# Generated by pormake.
# Topology wne, (6)-cn, num edge types: 1
# Building blocks:
#     Node 0, Type 0, BuildingBlock: BETDIP_clean_sbu_0, # of connection points: 6
#     Node 1, Type 0, BuildingBlock: BETDIP_clean_sbu_0, # of connection points: 6
#     Node 2, Type 0, BuildingBlock: BETDIP_clean_sbu_0, # of connection points: 6
#     Node 3, Type 0, BuildingBlock: BETDIP_clean_sbu_0, # of connection points: 6
#     Node 4, Type 0, BuildingBlock: BETDIP_clean_sbu_0, # of connection points: 6
#     Node 5, Type 0, BuildingBlock: BETDIP_clean_sbu_0, # of connection points: 6
#     Node 6, Type 0, BuildingBlock: BETDIP_clean_sbu_0, # of connection points: 6
#     Node 7, Type 0, BuildingBlock: BETDIP_clean_sbu_0, # of connection points: 6
#     Node 8, Type 0, BuildingBlock: BETDIP_clean_sbu_0, # of connection points: 6
#     Node 9, Type 0, BuildingBlock: BETDIP_clean_sbu_0, # of connection points: 6
#     Node 10, Type 0, BuildingBlock: BETDIP_clean_sbu_0, # of connection points: 6
#     Node 11, Type 0, BuildingBlock: BETDIP_clean_sbu_0, # of connection points: 6
#     Node 12, Type 0, BuildingBlock: BETDIP_clean_sbu_0, # of connection points: 6
#     Node 13, Type 0, BuildingBlock: BETDIP_clean_sbu_0, # of connection points: 6
#     Node 14, Type 0, BuildingBlock: BETDIP_clean_sbu_0, # of connection points: 6
#     Node 15, Type 0, BuildingBlock: BETDIP_clean_sbu_0, # of connection points: 6
#     Node 16, Type 0, BuildingBlock: BETDIP_clean_sbu_0, # of connection points: 6
#     Node 17, Type 0, BuildingBlock: BETDIP_clean_sbu_0, # of connection points: 6
#     Node 18, Type 0, BuildingBlock: BETDIP_clean_sbu_0, # of connection points: 6
#     Node 19, Type 0, BuildingBlock: BETDIP_clean_sbu_0, # of connection points: 6
#     Node 20, Type 0, BuildingBlock: BETDIP_clean_sbu_0, # of connection points: 6
#     Node 21, Type 0, BuildingBlock: BETDIP_clean_sbu_0, # of connection points: 6
#     Node 22, Type 0, BuildingBlock: BETDIP_clean_sbu_0, # of connection points: 6
#     Node 23, Type 0, BuildingBlock: BETDIP_clean_sbu_0, # of connection points: 6
#     Node 24, Type 0, BuildingBlock: BETDIP_clean_sbu_0, # of connection points: 6
#     Node 25, Type 0, BuildingBlock: BETDIP_clean_sbu_0, # of connection points: 6
#     Node 26, Type 0, BuildingBlock: BETDIP_clean_sbu_0, # of connection points: 6
#     Node 27, Type 0, BuildingBlock: BETDIP_clean_sbu_0, # of connection points: 6
#     Node 28, Type 0, BuildingBlock: BETDIP_clean_sbu_0, # of connection points: 6
#     Node 29, Type 0, BuildingBlock: BETDIP_clean_sbu_0, # of connection points: 6
#     Node 30, Type 0, BuildingBlock: BETDIP_clean_sbu_0, # of connection points: 6
#     Node 31, Type 0, BuildingBlock: BETDIP_clean_sbu_0, # of connection points: 6
#     Node 32, Type 0, BuildingBlock: BETDIP_clean_sbu_0, # of connection points: 6
#     Node 33, Type 0, BuildingBlock: BETDIP_clean_sbu_0, # of connection points: 6
#     Node 34, Type 0, BuildingBlock: BETDIP_clean_sbu_0, # of connection points: 6
#     Node 35, Type 0, BuildingBlock: BETDIP_clean_sbu_0, # of connection points: 6
#     Edge 36, Type (0, 0), BuildingBlock: XIVTED_clean_linker_0, # of connection points: 2
#     Edge 37, Type (0, 0), BuildingBlock: XIVTED_clean_linker_0, # of connection points: 2
#     Edge 38, Type (0, 0), BuildingBlock: XIVTED_clean_linker_0, # of connection points: 2
#     Edge 39, Type (0, 0), BuildingBlock: XIVTED_clean_linker_0, # of connection points: 2
#     Edge 40, Type (0, 0), BuildingBlock: XIVTED_clean_linker_0, # of connection points: 2
#     Edge 41, Type (0, 0), BuildingBlock: XIVTED_clean_linker_0, # of connection points: 2
#     Edge 42, Type (0, 0), BuildingBlock: XIVTED_clean_linker_0, # of connection points: 2
#     Edge 43, Type (0, 0), BuildingBlock: XIVTED_clean_linker_0, # of connection points: 2
#     Edge 44, Type (0, 0), BuildingBlock: XIVTED_clean_linker_0, # of connection points: 2
#     Edge 45, Type (0, 0), BuildingBlock: XIVTED_clean_linker_0, # of connection points: 2
#     Edge 46, Type (0, 0), BuildingBlock: XIVTED_clean_linker_0, # of connection points: 2
#     Edge 47, Type (0, 0), BuildingBlock: XIVTED_clean_linker_0, # of connection points: 2
#     Edge 48, Type (0, 0), BuildingBlock: XIVTED_clean_linker_0, # of connection points: 2
#     Edge 49, Type (0, 0), BuildingBlock: XIVTED_clean_linker_0, # of connection points: 2
#     Edge 50, Type (0, 0), BuildingBlock: XIVTED_clean_linker_0, # of connection points: 2
#     Edge 51, Type (0, 0), BuildingBlock: XIVTED_clean_linker_0, # of connection points: 2
#     Edge 52, Type (0, 0), BuildingBlock: XIVTED_clean_linker_0, # of connection points: 2
#     Edge 53, Type (0, 0), BuildingBlock: XIVTED_clean_linker_0, # of connection points: 2
#     Edge 54, Type (0, 0), BuildingBlock: XIVTED_clean_linker_0, # of connection points: 2
#     Edge 55, Type (0, 0), BuildingBlock: XIVTED_clean_linker_0, # of connection points: 2
#     Edge 56, Type (0, 0), BuildingBlock: XIVTED_clean_linker_0, # of connection points: 2
#     Edge 57, Type (0, 0), BuildingBlock: XIVTED_clean_linker_0, # of connection points: 2
#     Edge 58, Type (0, 0), BuildingBlock: XIVTED_clean_linker_0, # of connection points: 2
#     Edge 59, Type (0, 0), BuildingBlock: XIVTED_clean_linker_0, # of connection points: 2
#     Edge 60, Type (0, 0), BuildingBlock: XIVTED_clean_linker_0, # of connection points: 2
#     Edge 61, Type (0, 0), BuildingBlock: XIVTED_clean_linker_0, # of connection points: 2
#     Edge 62, Type (0, 0), BuildingBlock: XIVTED_clean_linker_0, # of connection points: 2
#     Edge 63, Type (0, 0), BuildingBlock: XIVTED_clean_linker_0, # of connection points: 2
#     Edge 64, Type (0, 0), BuildingBlock: XIVTED_clean_linker_0, # of connection points: 2
#     Edge 65, Type (0, 0), BuildingBlock: XIVTED_clean_linker_0, # of connection points: 2
#     Edge 66, Type (0, 0), BuildingBlock: XIVTED_clean_linker_0, # of connection points: 2
#     Edge 67, Type (0, 0), BuildingBlock: XIVTED_clean_linker_0, # of connection points: 2
#     Edge 68, Type (0, 0), BuildingBlock: XIVTED_clean_linker_0, # of connection points: 2
#     Edge 69, Type (0, 0), BuildingBlock: XIVTED_clean_linker_0, # of connection points: 2
#     Edge 70, Type (0, 0), BuildingBlock: XIVTED_clean_linker_0, # of connection points: 2
#     Edge 71, Type (0, 0), BuildingBlock: XIVTED_clean_linker_0, # of connection points: 2
#     Edge 72, Type (0, 0), BuildingBlock: XIVTED_clean_linker_0, # of connection points: 2
#     Edge 73, Type (0, 0), BuildingBlock: XIVTED_clean_linker_0, # of connection points: 2
#     Edge 74, Type (0, 0), BuildingBlock: XIVTED_clean_linker_0, # of connection points: 2
#     Edge 75, Type (0, 0), BuildingBlock: XIVTED_clean_linker_0, # of connection points: 2
#     Edge 76, Type (0, 0), BuildingBlock: XIVTED_clean_linker_0, # of connection points: 2
#     Edge 77, Type (0, 0), BuildingBlock: XIVTED_clean_linker_0, # of connection points: 2
#     Edge 78, Type (0, 0), BuildingBlock: XIVTED_clean_linker_0, # of connection points: 2
#     Edge 79, Type (0, 0), BuildingBlock: XIVTED_clean_linker_0, # of connection points: 2
#     Edge 80, Type (0, 0), BuildingBlock: XIVTED_clean_linker_0, # of connection points: 2
#     Edge 81, Type (0, 0), BuildingBlock: XIVTED_clean_linker_0, # of connection points: 2
#     Edge 82, Type (0, 0), BuildingBlock: XIVTED_clean_linker_0, # of connection points: 2
#     Edge 83, Type (0, 0), BuildingBlock: XIVTED_clean_linker_0, # of connection points: 2
#     Edge 84, Type (0, 0), BuildingBlock: XIVTED_clean_linker_0, # of connection points: 2
#     Edge 85, Type (0, 0), BuildingBlock: XIVTED_clean_linker_0, # of connection points: 2
#     Edge 86, Type (0, 0), BuildingBlock: XIVTED_clean_linker_0, # of connection points: 2
#     Edge 87, Type (0, 0), BuildingBlock: XIVTED_clean_linker_0, # of connection points: 2
#     Edge 88, Type (0, 0), BuildingBlock: XIVTED_clean_linker_0, # of connection points: 2
#     Edge 89, Type (0, 0), BuildingBlock: XIVTED_clean_linker_0, # of connection points: 2
#     Edge 90, Type (0, 0), BuildingBlock: XIVTED_clean_linker_0, # of connection points: 2
#     Edge 91, Type (0, 0), BuildingBlock: XIVTED_clean_linker_0, # of connection points: 2
#     Edge 92, Type (0, 0), BuildingBlock: XIVTED_clean_linker_0, # of connection points: 2
#     Edge 93, Type (0, 0), BuildingBlock: XIVTED_clean_linker_0, # of connection points: 2
#     Edge 94, Type (0, 0), BuildingBlock: XIVTED_clean_linker_0, # of connection points: 2
#     Edge 95, Type (0, 0), BuildingBlock: XIVTED_clean_linker_0, # of connection points: 2
#     Edge 96, Type (0, 0), BuildingBlock: XIVTED_clean_linker_0, # of connection points: 2
#     Edge 97, Type (0, 0), BuildingBlock: XIVTED_clean_linker_0, # of connection points: 2
#     Edge 98, Type (0, 0), BuildingBlock: XIVTED_clean_linker_0, # of connection points: 2
#     Edge 99, Type (0, 0), BuildingBlock: XIVTED_clean_linker_0, # of connection points: 2
#     Edge 100, Type (0, 0), BuildingBlock: XIVTED_clean_linker_0, # of connection points: 2
#     Edge 101, Type (0, 0), BuildingBlock: XIVTED_clean_linker_0, # of connection points: 2
#     Edge 102, Type (0, 0), BuildingBlock: XIVTED_clean_linker_0, # of connection points: 2
#     Edge 103, Type (0, 0), BuildingBlock: XIVTED_clean_linker_0, # of connection points: 2
#     Edge 104, Type (0, 0), BuildingBlock: XIVTED_clean_linker_0, # of connection points: 2
#     Edge 105, Type (0, 0), BuildingBlock: XIVTED_clean_linker_0, # of connection points: 2
#     Edge 106, Type (0, 0), BuildingBlock: XIVTED_clean_linker_0, # of connection points: 2
#     Edge 107, Type (0, 0), BuildingBlock: XIVTED_clean_linker_0, # of connection points: 2
#     Edge 108, Type (0, 0), BuildingBlock: XIVTED_clean_linker_0, # of connection points: 2
#     Edge 109, Type (0, 0), BuildingBlock: XIVTED_clean_linker_0, # of connection points: 2
#     Edge 110, Type (0, 0), BuildingBlock: XIVTED_clean_linker_0, # of connection points: 2
#     Edge 111, Type (0, 0), BuildingBlock: XIVTED_clean_linker_0, # of connection points: 2
#     Edge 112, Type (0, 0), BuildingBlock: XIVTED_clean_linker_0, # of connection points: 2
#     Edge 113, Type (0, 0), BuildingBlock: XIVTED_clean_linker_0, # of connection points: 2
#     Edge 114, Type (0, 0), BuildingBlock: XIVTED_clean_linker_0, # of connection points: 2
#     Edge 115, Type (0, 0), BuildingBlock: XIVTED_clean_linker_0, # of connection points: 2
#     Edge 116, Type (0, 0), BuildingBlock: XIVTED_clean_linker_0, # of connection points: 2
#     Edge 117, Type (0, 0), BuildingBlock: XIVTED_clean_linker_0, # of connection points: 2
#     Edge 118, Type (0, 0), BuildingBlock: XIVTED_clean_linker_0, # of connection points: 2
#     Edge 119, Type (0, 0), BuildingBlock: XIVTED_clean_linker_0, # of connection points: 2
#     Edge 120, Type (0, 0), BuildingBlock: XIVTED_clean_linker_0, # of connection points: 2
#     Edge 121, Type (0, 0), BuildingBlock: XIVTED_clean_linker_0, # of connection points: 2
#     Edge 122, Type (0, 0), BuildingBlock: XIVTED_clean_linker_0, # of connection points: 2
#     Edge 123, Type (0, 0), BuildingBlock: XIVTED_clean_linker_0, # of connection points: 2
#     Edge 124, Type (0, 0), BuildingBlock: XIVTED_clean_linker_0, # of connection points: 2
#     Edge 125, Type (0, 0), BuildingBlock: XIVTED_clean_linker_0, # of connection points: 2
#     Edge 126, Type (0, 0), BuildingBlock: XIVTED_clean_linker_0, # of connection points: 2
#     Edge 127, Type (0, 0), BuildingBlock: XIVTED_clean_linker_0, # of connection points: 2
#     Edge 128, Type (0, 0), BuildingBlock: XIVTED_clean_linker_0, # of connection points: 2
#     Edge 129, Type (0, 0), BuildingBlock: XIVTED_clean_linker_0, # of connection points: 2
#     Edge 130, Type (0, 0), BuildingBlock: XIVTED_clean_linker_0, # of connection points: 2
#     Edge 131, Type (0, 0), BuildingBlock: XIVTED_clean_linker_0, # of connection points: 2
#     Edge 132, Type (0, 0), BuildingBlock: XIVTED_clean_linker_0, # of connection points: 2
#     Edge 133, Type (0, 0), BuildingBlock: XIVTED_clean_linker_0, # of connection points: 2
#     Edge 134, Type (0, 0), BuildingBlock: XIVTED_clean_linker_0, # of connection points: 2
#     Edge 135, Type (0, 0), BuildingBlock: XIVTED_clean_linker_0, # of connection points: 2
#     Edge 136, Type (0, 0), BuildingBlock: XIVTED_clean_linker_0, # of connection points: 2
#     Edge 137, Type (0, 0), BuildingBlock: XIVTED_clean_linker_0, # of connection points: 2
#     Edge 138, Type (0, 0), BuildingBlock: XIVTED_clean_linker_0, # of connection points: 2
#     Edge 139, Type (0, 0), BuildingBlock: XIVTED_clean_linker_0, # of connection points: 2
#     Edge 140, Type (0, 0), BuildingBlock: XIVTED_clean_linker_0, # of connection points: 2
#     Edge 141, Type (0, 0), BuildingBlock: XIVTED_clean_linker_0, # of connection points: 2
#     Edge 142, Type (0, 0), BuildingBlock: XIVTED_clean_linker_0, # of connection points: 2
#     Edge 143, Type (0, 0), BuildingBlock: XIVTED_clean_linker_0, # of connection points: 2
# Relax obj value: 0.422
# Max RMSD: 0.265
# Mean RMSD: 0.265
data_MOF--net-wne--node1-BETDIP_clean_sbu_0--edge1-XIVTED_clean_linker_0
_symmetry_space_group_name_H-M    P1
_symmetry_Int_Tables_number       1
_symmetry_cell_setting            triclinic
loop_
_symmetry_equiv_pos_as_xyz
'x, y, z'
_cell_length_a     85.513699
_cell_length_b     85.597681
_cell_length_c     32.400797
_cell_angle_alpha  90.056369
_cell_angle_beta   89.999645
_cell_angle_gamma 120.04243
loop_
_atom_site_label
_atom_site_type_symbol
_atom_site_fract_x
_atom_site_fract_y
_atom_site_fract_z
_atom_type_partial_charge
Tb0 Tb 0.29779 0.20693 0.1026 0.0
Tb1 Tb 0.32147 0.2433 0.1286 0.0
C2 C 0.28196 0.17445 0.07653 0.0
C3 C 0.28299 0.15765 0.06782 0.0
C4 C 0.28431 0.15264 0.02706 0.0
C5 C 0.28224 0.13554 1.01809 0.0
C6 C 0.27853 0.1227 0.04951 0.0
C7 C 0.27767 0.12795 0.09038 0.0
C8 C 0.27983 0.14504 0.09934 0.0
C9 C 0.28486 0.21752 0.16706 0.0
C10 C 0.33425 0.21528 0.14837 0.0
C11 C 0.33684 0.27232 0.16804 0.0
C12 C 0.33117 0.28599 0.17002 0.0
C13 C 0.32257 0.28752 0.2056 0.0
C14 C 0.31487 0.2986 0.20562 0.0
C15 C 0.31555 0.30821 0.16995 0.0
C16 C 0.32421 0.30669 0.13456 0.0
C17 C 0.33192 0.29574 0.13458 0.0
C18 C 0.32848 0.23906 0.05042 0.0
C19 C 0.28648 0.23542 0.07924 0.0
O20 O 0.29021 0.18859 0.0523 0.0
O21 O 0.28225 0.17918 0.11505 0.0
O22 O 0.3009 0.22084 0.1609 0.0
O23 O 0.27535 0.20711 0.13707 0.0
O24 O 0.31847 0.20289 0.13328 0.0
O25 O 0.33873 0.23248 0.14874 0.0
O26 O 0.32549 0.2569 0.18471 0.0
O27 O 0.34278 0.27015 0.13252 0.0
O28 O 0.3246 0.22755 0.07957 0.0
O29 O 0.32639 0.25202 0.0648 0.0
O30 O 0.29797 0.24531 0.10858 0.0
O31 O 0.28645 0.22073 0.06572 0.0
H32 H 0.28633 0.16172 1.00175 0.0
H33 H 0.28285 0.13215 0.98616 0.0
H34 H 0.27515 0.11874 0.11571 0.0
H35 H 0.27845 0.14813 0.13109 0.0
H36 H 0.32156 0.27992 0.23318 0.0
H37 H 0.30845 0.29971 0.23342 0.0
H38 H 0.32547 0.31435 0.10694 0.0
H39 H 0.33823 0.29476 0.10646 0.0
Tb40 Tb 0.86985 0.10597 0.10523 0.0
Tb41 Tb 0.83348 0.09371 0.13013 0.0
C42 C 0.90233 0.12136 0.07946 0.0
C43 C 0.91969 0.13799 0.06806 0.0
C44 C 0.93406 0.13589 0.05381 0.0
C45 C 0.9511 0.1509 0.0452 0.0
C46 C 0.95446 0.16867 0.05038 0.0
C47 C 0.93989 0.17079 0.06401 0.0
C48 C 0.92276 0.15565 0.07301 0.0
C49 C 0.85872 0.08241 0.16978 0.0
C50 C 0.86189 0.1345 0.14968 0.0
C51 C 0.80417 0.08051 0.16844 0.0
C52 C 0.78997 0.0613 0.16983 0.0
C53 C 0.7888 0.05053 0.20387 0.0
C54 C 0.77757 0.03179 0.20238 0.0
C55 C 0.76722 1.02354 0.16703 0.0
C56 C 0.76806 0.03436 0.13356 0.0
C57 C 0.77929 0.05299 0.13489 0.0
C58 C 0.83811 0.10462 0.05166 0.0
C59 C 0.84106 0.06642 0.08121 0.0
O60 O 0.88824 0.11536 0.05504 0.0
O61 O 0.89768 0.1187 0.11837 0.0
O62 O 0.85562 0.09524 0.16336 0.0
O63 O 0.8692 0.08323 0.1401 0.0
O64 O 0.87417 0.13099 0.13459 0.0
O65 O 0.84463 0.12186 0.15024 0.0
O66 O 0.81937 0.08406 0.1856 0.0
O67 O 0.80681 0.0888 0.13307 0.0
O68 O 0.84954 0.11236 0.08099 0.0
O69 O 0.82497 0.08969 0.06614 0.0
O70 O 0.83117 0.06804 0.11045 0.0
O71 O 0.85585 0.08102 0.06798 0.0
H72 H 0.93217 0.12249 0.04977 0.0
H73 H 0.96166 0.14849 0.03416 0.0
H74 H 0.94183 0.18418 0.0687 0.0
H75 H 0.91202 0.15776 0.08425 0.0
H76 H 0.79699 0.05656 0.23113 0.0
H77 H 0.77719 1.02372 0.22847 0.0
H78 H 0.7598 1.02843 0.10634 0.0
H79 H 0.77985 0.06081 0.10807 0.0
Tb80 Tb 0.97274 0.78098 0.10536 0.0
Tb81 Tb 0.98527 0.7567 0.12693 0.0
C82 C 0.95636 0.79756 0.08283 0.0
C83 C 0.93872 0.797 0.07431 0.0
C84 C 0.93085 0.79316 0.03467 0.0
C85 C 0.91596 0.79545 1.02546 0.0
C86 C 0.90852 0.80189 0.0554 0.0
C87 C 0.91621 0.80535 0.09525 0.0
C88 C 0.931 0.80299 0.10447 0.0
C89 C 0.99622 0.79242 0.17005 0.0
C90 C 0.94476 0.74436 0.15029 0.0
C91 C 0.99947 0.73987 0.15688 0.0
C92 C 1.01711 0.74207 0.1447 0.0
C93 C 1.03243 0.75258 0.16931 0.0
C94 C 0.04975 0.75827 0.15408 0.0
C95 C 0.05208 0.75347 0.11403 0.0
C96 C 1.03671 0.74221 0.0903 0.0
C97 C 1.01943 0.73661 0.10539 0.0
C98 C 0.97388 0.75131 0.04872 0.0
C99 C 1.01218 0.79235 0.07922 0.0
O100 O 0.96245 0.79 0.05706 0.0
O101 O 0.96033 0.79608 0.1211 0.0
O102 O 0.98344 0.77653 0.16266 0.0
O103 O 0.99542 0.80253 0.14149 0.0
O104 O 0.9478 0.7597 0.13351 0.0
O105 O 0.95779 0.74029 0.15218 0.0
O106 O 1.00051 0.75414 0.17409 0.0
O107 O 0.98645 0.73274 0.12956 0.0
O108 O 0.96638 0.75463 0.07907 0.0
O109 O 0.98907 0.75339 0.06199 0.0
O110 O 1.01066 0.78036 0.10699 0.0
O111 O 0.99754 0.79279 0.06743 0.0
H112 H 0.93654 0.78891 1.01024 0.0
H113 H 0.91071 0.79278 0.99427 0.0
H114 H 0.91088 0.81005 0.11953 0.0
H115 H 0.93676 0.8064 0.13517 0.0
H116 H 1.03105 0.75712 0.19962 0.0
H117 H 0.06131 0.76683 0.17324 0.0
H118 H 1.03799 0.73773 0.05987 0.0
H119 H 1.00797 0.72855 0.08551 0.0
Tb120 Tb 0.22273 0.28074 0.44954 0.0
Tb121 Tb 0.25939 0.30514 0.42682 0.0
C122 C 0.19006 0.26439 0.47445 0.0
C123 C 0.17307 0.26512 0.48287 0.0
C124 C 0.16889 0.26851 0.52279 0.0
C125 C 0.15176 0.26637 0.53192 0.0
C126 C 0.13807 0.26052 0.50159 0.0
C127 C 0.14244 0.25751 0.46148 0.0
C128 C 0.15956 0.25974 0.45234 0.0
C129 C 0.23435 0.26849 0.38568 0.0
C130 C 0.23115 0.31771 0.40763 0.0
C131 C 0.28755 0.3233 0.38462 0.0
C132 C 0.29888 0.31815 0.3611 0.0
C133 C 0.29568 0.30042 0.36272 0.0
C134 C 0.30716 0.29579 0.34231 0.0
C135 C 0.32246 0.30903 0.32124 0.0
C136 C 0.32496 0.32658 0.31793 0.0
C137 C 0.31319 0.33104 0.3375 0.0
C138 C 0.25375 0.31161 0.50456 0.0
C139 C 0.25142 0.26986 0.47335 0.0
O140 O 0.20406 0.27263 0.49915 0.0
O141 O 0.19504 0.26499 0.43605 0.0
O142 O 0.23767 0.28445 0.39255 0.0
O143 O 0.22329 0.25861 0.41437 0.0
O144 O 0.21864 0.3011 0.41758 0.0
O145 O 0.24846 0.32292 0.41224 0.0
O146 O 0.27126 0.31702 0.37026 0.0
O147 O 0.28761 0.32139 0.42455 0.0
O148 O 0.24263 0.30748 0.47446 0.0
O149 O 0.2677 0.31108 0.49091 0.0
O150 O 0.26125 0.28128 0.44389 0.0
O151 O 0.23675 0.26986 0.48692 0.0
H152 H 0.17867 0.27229 0.54747 0.0
H153 H 0.14906 0.26867 0.56331 0.0
H154 H 0.13256 0.25328 0.43692 0.0
H155 H 0.162 0.25668 0.42138 0.0
H156 H 0.28458 0.29026 0.3807 0.0
H157 H 0.30459 0.28209 0.34494 0.0
H158 H 0.3367 0.33729 0.3027 0.0
H159 H 0.31574 0.34477 0.33572 0.0
Tb160 Tb 0.79468 0.95674 0.45242 0.0
Tb161 Tb 0.77025 0.96922 0.43005 0.0
C162 C 0.81075 0.94015 0.47734 0.0
C163 C 0.81007 0.92244 0.48577 0.0
C164 C 0.80702 0.91505 0.52582 0.0
C165 C 0.80928 0.90014 0.53491 0.0
C166 C 0.8149 0.89217 0.50441 0.0
C167 C 0.81756 0.89937 0.46417 0.0
C168 C 0.81522 0.91419 0.45507 0.0
C169 C 0.80703 0.98098 0.38938 0.0
C170 C 0.75786 0.9286 0.4088 0.0
C171 C 0.75288 0.98034 0.38904 0.0
C172 C 0.75858 0.9986 0.37394 0.0
C173 C 0.75569 1.00128 0.33263 0.0
C174 C 0.76189 1.01872 0.31764 0.0
C175 C 0.77103 0.03383 0.34373 0.0
C176 C 0.7745 0.03098 0.38476 0.0
C177 C 0.76845 1.01362 0.39956 0.0
C178 C 0.76389 0.95718 0.50752 0.0
C179 C 0.80571 0.99638 0.47714 0.0
O180 O 0.80253 0.94593 0.50202 0.0
O181 O 0.81021 0.94457 0.43895 0.0
O182 O 0.79102 0.96838 0.39628 0.0
O183 O 0.81699 0.97925 0.41696 0.0
O184 O 0.77438 0.93257 0.41943 0.0
O185 O 0.75266 0.94068 0.41343 0.0
O186 O 0.76134 0.97281 0.37236 0.0
O187 O 0.75134 0.97803 0.42899 0.0
O188 O 0.76788 0.95001 0.47738 0.0
O189 O 0.76521 0.97206 0.49422 0.0
O190 O 0.79393 0.99491 0.44865 0.0
O191 O 0.80599 0.98173 0.48963 0.0
H192 H 0.80345 0.92116 0.55063 0.0
H193 H 0.80724 0.8953 0.5664 0.0
H194 H 0.82161 0.89363 0.43945 0.0
H195 H 0.81802 0.91954 0.42398 0.0
H196 H 0.74856 0.98987 0.312 0.0
H197 H 0.75903 1.02026 0.28595 0.0
H198 H 0.7811 0.042 0.40648 0.0
H199 H 0.77136 1.01199 0.4313 0.0
Tb200 Tb 0.12172 0.85421 0.45278 0.0
Tb201 Tb 0.10794 0.81711 0.43268 0.0
C202 C 0.13907 0.8873 0.47461 0.0
C203 C 0.15686 0.90425 0.48321 0.0
C204 C 0.16393 0.90889 0.52355 0.0
C205 C 0.17889 0.92608 0.53253 0.0
C206 C 0.1872 0.93939 0.50162 0.0
C207 C 0.18036 0.93454 0.46111 0.0
C208 C 0.1655 0.91735 0.45213 0.0
C209 C 0.09793 0.84246 0.38863 0.0
C210 C 0.14828 0.84398 0.40648 0.0
C211 C 0.09264 0.78541 0.40677 0.0
C212 C 0.07568 0.77053 0.42403 0.0
C213 C 0.05887 0.76835 0.41189 0.0
C214 C 1.04331 0.75761 0.43502 0.0
C215 C 1.04427 0.74882 0.47062 0.0
C216 C 0.06081 0.75005 0.48114 0.0
C217 C 0.07632 0.76073 0.45806 0.0
C218 C 0.11989 0.82356 0.51064 0.0
C219 C 0.08199 0.82723 0.47966 0.0
O220 O 0.13257 0.87375 0.50068 0.0
O221 O 0.13507 0.8817 0.43643 0.0
O222 O 0.1103 0.83873 0.39592 0.0
O223 O 0.09942 0.85384 0.41676 0.0
O224 O 0.14609 0.8567 0.42402 0.0
O225 O 0.13474 0.82713 0.40476 0.0
O226 O 0.09106 0.7982 0.38887 0.0
O227 O 0.10681 0.792 0.43095 0.0
O228 O 0.12747 0.83393 0.4797 0.0
O229 O 0.10433 0.81084 0.49812 0.0
O230 O 0.08306 0.8164 0.45224 0.0
O231 O 0.09692 0.84216 0.49099 0.0
H232 H 0.15752 0.89943 0.54863 0.0
H233 H 0.18347 0.92914 0.5642 0.0
H234 H 0.18638 0.9441 0.4361 0.0
H235 H 0.16041 0.91457 0.4208 0.0
H236 H 0.05786 0.77568 0.38574 0.0
H237 H 1.0307 0.75669 0.42586 0.0
H238 H 0.06182 0.74286 0.50757 0.0
H239 H 0.08899 0.76198 0.46812 0.0
Tb240 Tb 0.77169 0.81817 0.93267 0.0
Tb241 Tb 0.7953 0.85516 0.95144 0.0
C242 C 0.75473 0.7863 0.908 0.0
C243 C 0.75657 0.77143 0.92602 0.0
C244 C 0.77194 0.76994 0.91734 0.0
C245 C 0.77619 0.75916 0.94183 0.0
C246 C 0.76517 0.74965 0.97538 0.0
C247 C 0.74921 0.75019 0.98232 0.0
C248 C 0.74493 0.76091 0.95784 0.0
C249 C 0.76662 0.82499 1.01066 0.0
C250 C 0.80793 0.82827 0.97899 0.0
C251 C 0.81151 0.88832 0.97249 0.0
C252 C 0.81061 0.90516 0.98158 0.0
C253 C 0.80823 0.90963 1.02211 0.0
C254 C 0.81038 0.92673 0.03148 0.0
C255 C 0.81522 0.94009 1.00077 0.0
C256 C 0.81715 0.93539 0.96008 0.0
C257 C 0.81493 0.91831 0.95071 0.0
C258 C 0.80672 0.84287 0.88705 0.0
C259 C 0.75823 0.84512 0.90697 0.0
O260 O 0.76912 0.79883 0.88947 0.0
O261 O 0.74744 0.79324 0.93195 0.0
O262 O 0.76935 0.83524 0.97954 0.0
O263 O 0.76935 0.8122 0.99828 0.0
O264 O 0.7959 0.81734 0.95183 0.0
O265 O 0.80798 0.84323 0.99001 0.0
O266 O 0.80482 0.87489 0.99886 0.0
O267 O 0.80938 0.88257 0.93434 0.0
O268 O 0.79076 0.83945 0.8948 0.0
O269 O 0.81688 0.85428 0.91488 0.0
O270 O 0.7733 0.85781 0.92406 0.0
O271 O 0.75483 0.82825 0.90515 0.0
H272 H 0.78123 0.77782 0.89298 0.0
H273 H 0.78844 0.7588 0.93544 0.0
H274 H 0.7401 0.74247 1.00709 0.0
H275 H 0.73296 0.76167 0.9652 0.0
H276 H 0.8053 0.90013 0.04701 0.0
H277 H 0.80893 0.92969 0.06327 0.0
H278 H 0.82057 0.94501 0.93524 0.0
H279 H 0.81718 0.91562 0.91925 0.0
Tb280 Tb 0.26094 0.96833 0.92829 0.0
Tb281 Tb 0.22444 0.95639 0.95072 0.0
C282 C 0.28919 0.97833 0.88679 0.0
C283 C 0.30132 0.99565 0.86689 0.0
C284 C 0.30766 0.99599 0.82691 0.0
C285 C 0.3192 1.01245 0.8078 0.0
C286 C 0.3247 1.0289 0.82842 0.0
C287 C 0.31731 1.02836 0.86766 0.0
C288 C 0.30573 1.01195 0.88656 0.0
C289 C 0.25564 0.95697 1.00636 0.0
C290 C 0.25328 0.99609 0.97381 0.0
C291 C 0.19176 0.94031 0.97568 0.0
C292 C 0.17461 0.92269 0.984 0.0
C293 C 0.17009 0.91531 1.02404 0.0
C294 C 0.1528 0.9005 0.03292 0.0
C295 C 0.13928 0.89268 1.00221 0.0
C296 C 0.144 0.89985 0.96199 0.0
C297 C 0.16127 0.91455 0.9531 0.0
C298 C 0.23622 0.98031 0.88687 0.0
C299 C 0.23249 0.92754 0.90915 0.0
O300 O 0.27301 0.96955 0.87108 0.0
O301 O 0.28888 0.9783 0.92708 0.0
O302 O 0.2443 0.94956 0.97664 0.0
O303 O 0.26921 0.97165 0.99225 0.0
O304 O 0.2632 0.99428 0.94488 0.0
O305 O 0.2385 0.98154 0.98741 0.0
O306 O 0.20574 0.94596 1.0004 0.0
O307 O 0.19678 0.94462 0.9373 0.0
O308 O 0.23947 0.96762 0.89388 0.0
O309 O 0.22486 0.97891 0.915 0.0
O310 O 0.22006 0.93177 0.9189 0.0
O311 O 0.2498 0.93958 0.91379 0.0
H312 H 0.30395 0.98352 0.81074 0.0
H313 H 0.32435 1.01217 0.77758 0.0
H314 H 0.32126 0.04052 0.88527 0.0
H315 H 0.30054 1.01204 0.91701 0.0
H316 H 0.17974 0.92135 0.04898 0.0
H317 H 0.14984 0.89564 0.06438 0.0
H318 H 0.13426 0.89419 0.93715 0.0
H319 H 0.16396 0.91989 0.92201 0.0
Tb320 Tb 0.1081 0.306 0.92982 0.0
Tb321 Tb 0.12076 0.282 0.95233 0.0
C322 C 0.09779 0.3236 0.88696 0.0
C323 C 0.08121 0.31796 0.86289 0.0
C324 C 0.0824 0.32302 0.82136 0.0
C325 C 0.06674 0.3183 0.79866 0.0
C326 C 0.04962 0.30875 0.81744 0.0
C327 C 0.04855 0.30244 0.85811 0.0
C328 C 0.06415 0.30692 0.88047 0.0
C329 C 0.12001 0.31275 1.00754 0.0
C330 C 0.08101 0.27066 0.97652 0.0
C331 C 0.13747 0.26601 0.97716 0.0
C332 C 0.15522 0.26667 0.98548 0.0
C333 C 0.16217 0.26877 1.02587 0.0
C334 C 0.17706 0.26641 0.03465 0.0
C335 C 0.18545 0.2616 1.00347 0.0
C336 C 0.17872 0.25993 0.96293 0.0
C337 C 0.16392 0.26238 0.95415 0.0
C338 C 0.09654 0.26943 0.8889 0.0
C339 C 0.1489 0.319 0.91006 0.0
O340 O 0.1083 0.31785 0.87301 0.0
O341 O 0.09609 0.32216 0.92705 0.0
O342 O 0.12727 0.30866 0.97783 0.0
O343 O 0.10534 0.3117 0.99353 0.0
O344 O 0.0824 0.2821 0.9473 0.0
O345 O 0.09579 0.27073 0.98959 0.0
O346 O 0.13172 0.27423 1.00187 0.0
O347 O 0.13296 0.26651 0.93882 0.0
O348 O 0.10917 0.2854 0.89573 0.0
O349 O 0.09806 0.25961 0.91721 0.0
O350 O 0.14492 0.30239 0.91944 0.0
O351 O 0.13678 0.32409 0.91566 0.0
H352 H 0.09546 0.33101 0.80677 0.0
H353 H 0.06812 0.32298 0.76713 0.0
H354 H 1.03576 0.29516 0.87409 0.0
H355 H 0.06282 0.30226 0.91204 0.0
H356 H 0.1557 0.27166 0.05112 0.0
H357 H 0.18153 0.26768 0.06636 0.0
H358 H 0.1848 0.25655 0.93771 0.0
H359 H 0.15895 0.26033 0.92274 0.0
Tb360 Tb 0.83325 0.75648 0.62787 0.0
Tb361 Tb 0.86987 0.78026 0.60502 0.0
C362 C 0.80316 0.7406 0.66288 0.0
C363 C 0.78889 0.74545 0.65989 0.0
C364 C 0.78632 0.75483 0.69244 0.0
C365 C 0.77527 0.76241 0.68718 0.0
C366 C 0.76658 0.76071 0.64928 0.0
C367 C 0.76881 0.75089 0.61722 0.0
C368 C 0.77983 0.74338 0.62241 0.0
C369 C 0.83851 0.75019 0.54979 0.0
C370 C 0.84183 0.79174 0.57914 0.0
C371 C 0.90281 0.79671 0.5821 0.0
C372 C 0.91996 0.79625 0.5741 0.0
C373 C 0.9244 0.79292 0.53439 0.0
C374 C 0.9417 0.7954 0.52575 0.0
C375 C 0.9553 0.80155 0.55636 0.0
C376 C 0.95065 0.80447 0.59627 0.0
C377 C 0.93337 0.80189 0.60493 0.0
C378 C 0.85835 0.79257 0.66911 0.0
C379 C 0.86097 0.7434 0.64921 0.0
O380 O 0.81788 0.75273 0.68094 0.0
O381 O 0.80673 0.73434 0.62953 0.0
O382 O 0.84961 0.75375 0.57973 0.0
O383 O 0.82549 0.7524 0.56333 0.0
O384 O 0.83153 0.78011 0.60772 0.0
O385 O 0.85669 0.79181 0.56683 0.0
O386 O 0.8891 0.78885 0.55648 0.0
O387 O 0.89741 0.79555 0.62032 0.0
O388 O 0.85519 0.77662 0.66256 0.0
O389 O 0.86907 0.80229 0.63984 0.0
O390 O 0.87347 0.75903 0.63391 0.0
O391 O 0.84383 0.73924 0.64998 0.0
H392 H 0.79333 0.75682 0.72153 0.0
H393 H 0.7737 0.76975 0.71257 0.0
H394 H 0.76181 0.74875 0.58808 0.0
H395 H 0.78155 0.73634 0.59658 0.0
H396 H 0.91468 0.78894 0.5095 0.0
H397 H 0.94462 0.79314 0.49451 0.0
H398 H 0.96047 0.80892 0.62103 0.0
H399 H 0.93072 0.80491 0.63574 0.0
Tb400 Tb 0.32312 0.09359 0.62813 0.0
Tb401 Tb 0.29906 0.10586 0.60382 0.0
C402 C 0.33931 0.08018 0.66509 0.0
C403 C 0.33468 0.06114 0.66354 0.0
C404 C 0.32762 0.05021 0.69875 0.0
C405 C 0.31999 0.03149 0.69578 0.0
C406 C 0.3194 1.02341 0.65762 0.0
C407 C 0.3268 0.03444 0.62269 0.0
C408 C 0.33428 0.05304 0.62555 0.0
C409 C 0.32959 0.10479 0.54984 0.0
C410 C 0.28809 0.06632 0.57916 0.0
C411 C 0.28267 0.12208 0.57868 0.0
C412 C 0.28343 0.13973 0.56938 0.0
C413 C 0.28526 0.14614 0.52858 0.0
C414 C 0.28303 0.161 0.51896 0.0
C415 C 0.27867 0.16992 0.54971 0.0
C416 C 0.27724 0.16372 0.59065 0.0
C417 C 0.27954 0.14893 0.60027 0.0
C418 C 0.28665 0.08219 0.6682 0.0
C419 C 0.33549 0.13427 0.64893 0.0
O420 O 0.32697 0.08266 0.68227 0.0
O421 O 0.34547 0.08959 0.63119 0.0
O422 O 0.32577 0.11235 0.57932 0.0
O423 O 0.32763 0.08976 0.56397 0.0
O424 O 0.29977 0.06796 0.608 0.0
O425 O 0.28781 0.08091 0.56636 0.0
O426 O 0.29063 0.11601 0.55402 0.0
O427 O 0.28359 0.11809 0.61725 0.0
O428 O 0.3026 0.09509 0.66185 0.0
O429 O 0.27697 0.08303 0.63858 0.0
O430 O 0.31974 0.1308 0.63367 0.0
O431 O 0.34003 0.12158 0.6495 0.0
H432 H 0.32742 0.05609 0.72824 0.0
H433 H 0.3143 1.02332 0.72307 0.0
H434 H 0.32705 1.02872 0.59303 0.0
H435 H 0.33933 0.06099 0.59766 0.0
H436 H 0.28783 0.13927 0.5037 0.0
H437 H 0.28407 0.16506 0.48698 0.0
H438 H 0.27419 0.17023 0.61552 0.0
H439 H 0.27772 0.14436 0.63198 0.0
Tb440 Tb 0.98491 0.24451 0.62359 0.0
Tb441 Tb 0.9716 0.20767 0.60414 0.0
C442 C 0.99937 0.27641 0.64795 0.0
C443 C 1.01536 0.29163 0.62843 0.0
C444 C 1.03208 0.29209 0.62806 0.0
C445 C 1.04572 0.30338 0.6008 0.0
C446 C 1.04294 0.31444 0.57343 0.0
C447 C 1.02677 0.31494 0.57591 0.0
C448 C 1.01313 0.30368 0.60319 0.0
C449 C 0.97293 0.23798 0.54553 0.0
C450 C 1.0112 0.23476 0.57719 0.0
C451 C 0.95547 0.17468 0.582 0.0
C452 C 0.93886 0.15734 0.57022 0.0
C453 C 0.94109 0.14365 0.55211 0.0
C454 C 0.92621 0.12653 0.54346 0.0
C455 C 0.9084 0.12241 0.55239 0.0
C456 C 0.9061 0.13632 0.56971 0.0
C457 C 0.92113 0.15351 0.57881 0.0
C458 C 0.99529 0.21968 0.66871 0.0
C459 C 0.94454 0.21723 0.6496 0.0
O460 O 1.00213 0.26428 0.66563 0.0
O461 O 0.98473 0.26897 0.62533 0.0
O462 O 0.96547 0.22757 0.57646 0.0
O463 O 0.98849 0.25069 0.55803 0.0
O464 O 1.01007 0.24554 0.60466 0.0
O465 O 0.99628 0.21991 0.56573 0.0
O466 O 0.96253 0.18824 0.55603 0.0
O467 O 0.95744 0.18014 0.62036 0.0
O468 O 0.9828 0.22319 0.66122 0.0
O469 O 0.99392 0.20831 0.64071 0.0
O470 O 0.94681 0.20474 0.63119 0.0
O471 O 0.95811 0.23405 0.65227 0.0
H472 H 1.03431 0.28299 0.64711 0.0
H473 H 0.05811 0.30284 0.59987 0.0
H474 H 1.02448 0.32378 0.55606 0.0
H475 H 1.00045 0.30365 0.60285 0.0
H476 H 0.95454 0.1461 0.54522 0.0
H477 H 0.92871 0.11648 0.52955 0.0
H478 H 0.8927 0.13377 0.5773 0.0
H479 H 0.91892 0.1637 0.59305 0.0
Tb480 Tb 0.96533 0.54203 0.43798 0.0
Tb481 Tb 0.98961 0.57873 0.46151 0.0
C482 C 0.94932 0.50947 0.41225 0.0
C483 C 0.95007 0.4925 0.40362 0.0
C484 C 0.95294 0.48814 0.36339 0.0
C485 C 0.95073 0.471 0.35412 0.0
C486 C 0.94534 0.45746 0.38462 0.0
C487 C 0.94287 0.46202 0.42503 0.0
C488 C 0.94516 0.47915 0.4343 0.0
C489 C 0.95254 0.55355 0.50101 0.0
C490 C 1.00199 0.55047 0.48195 0.0
C491 C 1.00693 0.60702 0.50336 0.0
C492 C 1.0009 0.6188 0.52181 0.0
C493 C 1.00575 0.625 0.56237 0.0
C494 C 0.99997 0.63616 0.57997 0.0
C495 C 0.98935 0.64146 0.55725 0.0
C496 C 0.98364 0.63419 0.51739 0.0
C497 C 0.98928 0.62295 0.50001 0.0
C498 C 0.99659 0.5735 0.38412 0.0
C499 C 0.95446 0.5707 0.41379 0.0
O500 O 0.95766 0.52356 0.38793 0.0
O501 O 0.94967 0.51429 0.45071 0.0
O502 O 0.9686 0.55701 0.4947 0.0
O503 O 0.94282 0.54213 0.47268 0.0
O504 O 0.98548 0.53798 0.47108 0.0
O505 O 1.00722 0.56777 0.47765 0.0
O506 O 0.99967 0.59089 0.51914 0.0
O507 O 1.00736 0.60669 0.4631 0.0
O508 O 0.99223 0.56213 0.41384 0.0
O509 O 0.99539 0.58707 0.39777 0.0
O510 O 0.96586 0.58064 0.44327 0.0
O511 O 0.9545 0.55603 0.40044 0.0
H512 H 0.95633 0.49779 0.3386 0.0
H513 H 0.95261 0.46817 0.32251 0.0
H514 H 0.93901 0.45227 0.44973 0.0
H515 H 0.94251 0.48171 0.46553 0.0
H516 H 1.01424 0.62146 0.5802 0.0
H517 H 1.00448 0.64122 0.61077 0.0
H518 H 0.97573 0.63799 0.49821 0.0
H519 H 0.98486 0.61786 0.46904 0.0
Tb520 Tb 0.5369 0.43909 0.43579 0.0
Tb521 Tb 0.49983 0.42596 0.45367 0.0
C522 C 0.57015 0.45585 0.41522 0.0
C523 C 0.58716 0.47351 0.40649 0.0
C524 C 0.59131 0.48104 0.36655 0.0
C525 C 0.60847 0.49595 0.35728 0.0
C526 C 0.62223 0.50376 0.38747 0.0
C527 C 0.61788 0.49642 0.42761 0.0
C528 C 0.60073 0.4816 0.43688 0.0
C529 C 0.52422 0.41529 0.4999 0.0
C530 C 0.52711 0.46626 0.48013 0.0
C531 C 0.46787 0.41148 0.47749 0.0
C532 C 0.45303 0.39471 0.45965 0.0
C533 C 0.45334 0.37842 0.46238 0.0
C534 C 0.44229 0.36381 0.43703 0.0
C535 C 0.43071 0.36518 0.40851 0.0
C536 C 0.42956 0.38101 0.40767 0.0
C537 C 0.44059 0.39562 0.43304 0.0
C538 C 0.50704 0.43784 0.37588 0.0
C539 C 0.50981 0.39966 0.40786 0.0
O540 O 0.55675 0.44929 0.38868 0.0
O541 O 0.56431 0.45219 0.45329 0.0
O542 O 0.52086 0.42785 0.49203 0.0
O543 O 0.53575 0.41656 0.4724 0.0
O544 O 0.5398 0.46373 0.46371 0.0
O545 O 0.51012 0.45295 0.48107 0.0
O546 O 0.48027 0.40977 0.4971 0.0
O547 O 0.47496 0.4254 0.4527 0.0
O548 O 0.5172 0.44535 0.40724 0.0
O549 O 0.4942 0.42229 0.38796 0.0
O550 O 0.49883 0.40081 0.43478 0.0
O551 O 0.52487 0.41452 0.39707 0.0
H552 H 0.58147 0.47506 0.34196 0.0
H553 H 0.61113 0.50091 0.32587 0.0
H554 H 0.62782 0.50205 0.45208 0.0
H555 H 0.5983 0.47611 0.46784 0.0
H556 H 0.4628 0.37721 0.48247 0.0
H557 H 0.44334 0.35173 0.43862 0.0
H558 H 0.42029 0.38222 0.3869 0.0
H559 H 0.44006 0.40796 0.43027 0.0
Tb560 Tb 0.63864 0.11249 0.43611 0.0
Tb561 Tb 0.65172 0.08882 0.458 0.0
C562 C 0.622 0.12885 0.41401 0.0
C563 C 0.60439 0.12826 0.40511 0.0
C564 C 0.59736 0.12567 0.36473 0.0
C565 C 0.58256 0.12805 0.35541 0.0
C566 C 0.57435 0.13334 0.38602 0.0
C567 C 0.58118 0.13554 0.42655 0.0
C568 C 0.5959 0.13308 0.43588 0.0
C569 C 0.66207 0.12428 0.50095 0.0
C570 C 0.61116 0.07577 0.48162 0.0
C571 C 0.66672 0.07267 0.48685 0.0
C572 C 0.68356 0.07431 0.47022 0.0
C573 C 0.70014 0.08572 0.48987 0.0
C574 C 0.71646 0.09137 0.4692 0.0
C575 C 0.71648 0.08565 0.42856 0.0
C576 C 0.69995 0.07338 0.40999 0.0
C577 C 0.6837 0.06776 0.43052 0.0
C578 C 0.64023 0.08298 0.37961 0.0
C579 C 0.67817 0.12447 0.40956 0.0
O580 O 0.62838 0.12163 0.38804 0.0
O581 O 0.62575 0.12708 0.45228 0.0
O582 O 0.64941 0.10834 0.49371 0.0
O583 O 0.66125 0.13423 0.47204 0.0
O584 O 0.61372 0.09069 0.46339 0.0
O585 O 0.6246 0.07235 0.48481 0.0
O586 O 0.6687 0.08758 0.50277 0.0
O587 O 0.65238 0.06468 0.4632 0.0
O588 O 0.63265 0.08625 0.40988 0.0
O589 O 0.65546 0.08527 0.39307 0.0
O590 O 0.67687 0.11264 0.43749 0.0
O591 O 0.66338 0.12462 0.39785 0.0
H592 H 0.60368 0.12236 0.33989 0.0
H593 H 0.57799 0.12639 0.32371 0.0
H594 H 0.57522 0.13933 0.4513 0.0
H595 H 0.601 0.13553 0.46721 0.0
H596 H 0.70044 0.09109 0.52037 0.0
H597 H 0.729 0.10064 0.48451 0.0
H598 H 0.69954 0.06815 0.3793 0.0
H599 H 0.67124 0.05896 0.41434 0.0
Tb600 Tb 0.89024 0.61652 0.78429 0.0
Tb601 Tb 0.92671 0.64123 0.76044 0.0
C602 C 0.85739 0.59958 0.80787 0.0
C603 C 0.84001 0.59887 0.81886 0.0
C604 C 0.82662 0.58342 0.83909 0.0
C605 C 0.80946 0.58115 0.84729 0.0
C606 C 0.80503 0.59433 0.83572 0.0
C607 C 0.81865 0.6101 0.81624 0.0
C608 C 0.83587 0.61228 0.80764 0.0
C609 C 0.90197 0.60488 0.71946 0.0
C610 C 0.8987 0.65238 0.73509 0.0
C611 C 0.95838 0.65364 0.73531 0.0
C612 C 0.96914 0.64449 0.73261 0.0
C613 C 0.97146 0.63786 0.69472 0.0
C614 C 0.98127 0.62879 0.69281 0.0
C615 C 0.98905 0.62635 0.72867 0.0
C616 C 0.98613 0.63243 0.76663 0.0
C617 C 0.97635 0.64139 0.76858 0.0
C618 C 0.91758 0.65419 0.82556 0.0
C619 C 0.91774 0.60518 0.8114 0.0
O620 O 0.87117 0.60722 0.83313 0.0
O621 O 0.86253 0.60199 0.76929 0.0
O622 O 0.90494 0.62076 0.72628 0.0
O623 O 0.89101 0.59484 0.74806 0.0
O624 O 0.88806 0.63963 0.76136 0.0
O625 O 0.9146 0.65434 0.72517 0.0
O626 O 0.94454 0.64772 0.71043 0.0
O627 O 0.95442 0.65645 0.77255 0.0
O628 O 0.91313 0.63757 0.81977 0.0
O629 O 0.92725 0.66328 0.79435 0.0
O630 O 0.92871 0.61817 0.78589 0.0
O631 O 0.90187 0.60335 0.82066 0.0
H632 H 0.82933 0.57281 0.84806 0.0
H633 H 0.79964 0.56898 0.86291 0.0
H634 H 0.81584 0.62056 0.80662 0.0
H635 H 0.84583 0.6243 0.79175 0.0
H636 H 0.96586 0.63984 0.66653 0.0
H637 H 0.98316 0.6241 0.66325 0.0
H638 H 0.99224 0.63119 0.79479 0.0
H639 H 0.97472 0.64611 0.79841 0.0
Tb640 Tb 0.46244 0.29 0.78322 0.0
Tb641 Tb 0.43833 0.30296 0.76654 0.0
C642 C 0.4789 0.27316 0.80316 0.0
C643 C 0.47818 0.25543 0.81137 0.0
C644 C 0.47515 0.24791 0.8513 0.0
C645 C 0.47737 0.23294 0.85995 0.0
C646 C 0.48294 0.22506 0.82912 0.0
C647 C 0.48555 0.23238 0.78901 0.0
C648 C 0.48325 0.24725 0.78036 0.0
C649 C 0.47345 0.31392 0.7194 0.0
C650 C 0.42566 0.26297 0.73804 0.0
C651 C 0.41988 0.31686 0.74627 0.0
C652 C 0.42022 0.33216 0.76824 0.0
C653 C 0.43654 0.34866 0.77237 0.0
C654 C 0.43817 0.36145 0.8014 0.0
C655 C 0.42351 0.35806 0.82679 0.0
C656 C 0.40689 0.34207 0.82084 0.0
C657 C 0.40526 0.32925 0.79186 0.0
C658 C 0.43388 0.29076 0.8441 0.0
C659 C 0.47493 0.32949 0.81104 0.0
O660 O 0.47211 0.27966 0.82998 0.0
O661 O 0.47673 0.27698 0.76524 0.0
O662 O 0.45745 0.3014 0.72725 0.0
O663 O 0.48375 0.31241 0.74639 0.0
O664 O 0.44075 0.26543 0.75504 0.0
O665 O 0.42206 0.27632 0.73697 0.0
O666 O 0.43478 0.3204 0.7273 0.0
O667 O 0.41322 0.30189 0.76747 0.0
O668 O 0.4365 0.28346 0.81234 0.0
O669 O 0.43675 0.30641 0.83257 0.0
O670 O 0.46254 0.32817 0.78471 0.0
O671 O 0.4753 0.31471 0.82167 0.0
H672 H 0.47161 0.25395 0.87634 0.0
H673 H 0.47537 0.22799 0.89134 0.0
H674 H 0.48955 0.22671 0.76406 0.0
H675 H 0.48602 0.25271 0.74937 0.0
H676 H 0.44839 0.35138 0.75473 0.0
H677 H 0.45112 0.37366 0.80505 0.0
H678 H 0.39516 0.33931 0.83908 0.0
H679 H 0.39257 0.31666 0.78942 0.0
Tb680 Tb 0.78747 0.18699 0.78399 0.0
Tb681 Tb 0.77533 0.15038 0.7592 0.0
C682 C 0.80356 0.21957 0.80931 0.0
C683 C 0.82112 0.23685 0.81711 0.0
C684 C 0.82867 0.24161 0.85698 0.0
C685 C 0.84338 0.25901 0.86542 0.0
C686 C 0.85091 0.27238 0.83442 0.0
C687 C 0.84357 0.26743 0.79437 0.0
C688 C 0.82899 0.25005 0.78591 0.0
C689 C 0.76361 0.1755 0.72022 0.0
C690 C 0.81616 0.17904 0.74026 0.0
C691 C 0.7639 0.12227 0.71659 0.0
C692 C 0.74521 0.10924 0.70466 0.0
C693 C 0.74086 0.10425 0.66317 0.0
C694 C 0.72292 0.09261 0.65147 0.0
C695 C 0.70905 0.08565 0.68122 0.0
C696 C 0.7135 0.09142 0.72247 0.0
C697 C 0.73131 0.10314 0.73395 0.0
C698 C 0.78668 0.1552 0.83723 0.0
C699 C 0.74783 0.15796 0.80735 0.0
O700 O 0.79827 0.20561 0.83385 0.0
O701 O 0.79894 0.21459 0.77099 0.0
O702 O 0.77636 0.17231 0.72688 0.0
O703 O 0.7649 0.18669 0.74864 0.0
O704 O 0.81221 0.19141 0.75258 0.0
O705 O 0.8039 0.16169 0.7425 0.0
O706 O 0.77024 0.13829 0.70064 0.0
O707 O 0.76786 0.12302 0.75577 0.0
O708 O 0.79409 0.16674 0.8079 0.0
O709 O 0.77195 0.14171 0.82282 0.0
O710 O 0.74954 0.14801 0.77827 0.0
O711 O 0.7624 0.17279 0.82082 0.0
H712 H 0.82284 0.23206 0.88211 0.0
H713 H 0.84839 0.26217 0.89677 0.0
H714 H 0.84902 0.27707 0.76934 0.0
H715 H 0.8235 0.24716 0.75493 0.0
H716 H 0.75134 0.10934 0.63985 0.0
H717 H 0.71999 0.08871 0.61936 0.0
H718 H 0.70342 0.08622 0.74663 0.0
H719 H 0.73418 0.10723 0.76599 0.0
Tb720 Tb 0.4389 0.15077 0.25928 0.0
Tb721 Tb 0.46232 0.18755 0.28096 0.0
C722 C 0.42368 0.11978 0.22848 0.0
C723 C 0.42749 0.10552 0.2409 0.0
C724 C 0.42376 0.09099 0.21491 0.0
C725 C 0.42947 0.07879 0.22594 0.0
C726 C 0.43947 0.08131 0.26254 0.0
C727 C 0.44352 0.09626 0.28756 0.0
C728 C 0.43722 0.10787 0.2774 0.0
C729 C 0.43283 0.15655 0.33756 0.0
C730 C 0.47448 0.16053 0.30873 0.0
C731 C 0.47868 0.22068 0.30237 0.0
C732 C 0.47806 0.2377 0.31087 0.0
C733 C 0.47424 0.24172 0.35054 0.0
C734 C 0.47655 0.25889 0.35982 0.0
C735 C 0.48298 0.27276 0.32993 0.0
C736 C 0.48642 0.26855 0.29005 0.0
C737 C 0.48404 0.25139 0.28076 0.0
C738 C 0.47409 0.17569 0.2163 0.0
C739 C 0.42531 0.17778 0.2358 0.0
O740 O 0.43747 0.13362 0.21135 0.0
O741 O 0.41605 0.12477 0.25656 0.0
O742 O 0.43602 0.16728 0.30712 0.0
O743 O 0.43529 0.1437 0.32436 0.0
O744 O 0.46314 0.15023 0.27977 0.0
O745 O 0.47426 0.17524 0.32059 0.0
O746 O 0.47141 0.20718 0.32854 0.0
O747 O 0.47697 0.215 0.26424 0.0
O748 O 0.45826 0.1727 0.22348 0.0
O749 O 0.48401 0.18604 0.2459 0.0
O750 O 0.44044 0.19035 0.25304 0.0
O751 O 0.42174 0.16085 0.23372 0.0
H752 H 0.41649 0.0891 0.18625 0.0
H753 H 0.42575 0.06726 0.20615 0.0
H754 H 0.45154 0.09908 0.31532 0.0
H755 H 0.44026 0.1189 0.29807 0.0
H756 H 0.47 0.23178 0.37493 0.0
H757 H 0.4739 0.26145 0.39103 0.0
H758 H 0.49111 0.27858 0.26581 0.0
H759 H 0.48744 0.24905 0.25005 0.0
Tb760 Tb 0.92684 0.3033 0.26062 0.0
Tb761 Tb 0.89018 0.29058 0.28344 0.0
C762 C 0.95667 0.31702 0.22446 0.0
C763 C 0.97061 0.33627 0.22427 0.0
C764 C 0.97481 0.34619 0.18738 0.0
C765 C 0.986 0.36496 0.18783 0.0
C766 C 0.99319 0.37412 0.22524 0.0
C767 C 0.98895 0.36408 0.26203 0.0
C768 C 0.97775 0.34544 0.26159 0.0
C769 C 0.92152 0.29165 0.33851 0.0
C770 C 0.91838 0.33014 0.30906 0.0
C771 C 0.85731 0.27393 0.30717 0.0
C772 C 0.8402 0.25619 0.31506 0.0
C773 C 0.83581 0.24838 0.35472 0.0
C774 C 0.81856 0.23344 0.36336 0.0
C775 C 0.80494 0.22589 0.3328 0.0
C776 C 0.80953 0.2335 0.29293 0.0
C777 C 0.82677 0.24833 0.28428 0.0
C778 C 0.90182 0.31441 0.21937 0.0
C779 C 0.89892 0.26268 0.23851 0.0
O780 O 0.9417 0.31354 0.20628 0.0
O781 O 0.95361 0.30841 0.25949 0.0
O782 O 0.91038 0.28416 0.30854 0.0
O783 O 0.93459 0.30688 0.32511 0.0
O784 O 0.92866 0.32874 0.28046 0.0
O785 O 0.9035 0.31539 0.32142 0.0
O786 O 0.87115 0.27966 0.33235 0.0
O787 O 0.86255 0.27843 0.26896 0.0
O788 O 0.90492 0.3016 0.2261 0.0
O789 O 0.89103 0.31345 0.24852 0.0
O790 O 0.8864 0.26606 0.25263 0.0
O791 O 0.91617 0.27534 0.23946 0.0
H792 H 0.96909 0.33945 0.15833 0.0
H793 H 0.98901 0.37227 0.15897 0.0
H794 H 0.99464 0.37055 0.29131 0.0
H795 H 0.97453 0.33828 0.2907 0.0
H796 H 0.84553 0.25417 0.3796 0.0
H797 H 0.81571 0.22826 0.39457 0.0
H798 H 0.79972 0.22808 0.26817 0.0
H799 H 0.82936 0.25401 0.2535 0.0
Tb800 Tb 0.77591 0.63994 0.26343 0.0
Tb801 Tb 0.78884 0.61621 0.28394 0.0
C802 C 0.76162 0.6573 0.23769 0.0
C803 C 0.74554 0.65657 0.25655 0.0
C804 C 0.72892 0.64021 0.25749 0.0
C805 C 0.71525 0.63797 0.28454 0.0
C806 C 0.7179 0.65202 0.31112 0.0
C807 C 0.73395 0.66878 0.30799 0.0
C808 C 0.74761 0.67104 0.2809 0.0
C809 C 0.78752 0.64547 0.34171 0.0
C810 C 0.74937 0.60413 0.31075 0.0
C811 C 0.80553 0.59992 0.30629 0.0
C812 C 0.8233 0.60092 0.31574 0.0
C813 C 0.82992 0.6032 0.35646 0.0
C814 C 0.84494 0.60123 0.36619 0.0
C815 C 0.85379 0.59667 0.33566 0.0
C816 C 0.84737 0.5948 0.29478 0.0
C817 C 0.83242 0.59684 0.28506 0.0
C818 C 0.76527 0.60456 0.21922 0.0
C819 C 0.81635 0.65267 0.23849 0.0
O820 O 0.75897 0.64237 0.22037 0.0
O821 O 0.77613 0.66459 0.26076 0.0
O822 O 0.79507 0.64238 0.31112 0.0
O823 O 0.7721 0.64282 0.32871 0.0
O824 O 0.75064 0.61601 0.28301 0.0
O825 O 0.76419 0.60403 0.32233 0.0
O826 O 0.79884 0.60688 0.33212 0.0
O827 O 0.80192 0.60176 0.26795 0.0
O828 O 0.77794 0.62051 0.22649 0.0
O829 O 0.7663 0.59456 0.24773 0.0
O830 O 0.8137 0.6377 0.25636 0.0
O831 O 0.80301 0.65627 0.2359 0.0
H832 H 0.72681 0.62872 0.23915 0.0
H833 H 0.70296 0.62497 0.28601 0.0
H834 H 0.73613 0.68006 0.32721 0.0
H835 H 0.76022 0.68378 0.2808 0.0
H836 H 0.82312 0.60594 0.38122 0.0
H837 H 0.84917 0.60261 0.39812 0.0
H838 H 0.85382 0.59159 0.27007 0.0
H839 H 0.82767 0.59467 0.25344 0.0
Tb840 Tb 0.49976 0.08885 0.95695 0.0
Tb841 Tb 0.53607 0.11252 0.93313 0.0
C842 C 0.46899 0.07311 0.98787 0.0
C843 C 0.4536 0.07451 0.97139 0.0
C844 C 0.45248 0.09019 0.97854 0.0
C845 C 0.44145 0.09407 0.95388 0.0
C846 C 0.43142 0.0824 0.92165 0.0
C847 C 0.43142 0.06608 0.91671 0.0
C848 C 0.4423 0.06212 0.94146 0.0
C849 C 0.50452 0.0823 0.8784 0.0
C850 C 0.50808 0.12372 0.9061 0.0
C851 C 0.56907 0.12893 0.91039 0.0
C852 C 0.58601 0.12807 0.90193 0.0
C853 C 0.59075 0.12589 0.8615 0.0
C854 C 0.6079 0.12802 0.85265 0.0
C855 C 0.62108 0.13265 0.8838 0.0
C856 C 0.61613 0.1344 0.92438 0.0
C857 C 0.59898 0.13219 0.93323 0.0
C858 C 0.5245 0.12452 0.99787 0.0
C859 C 0.52755 0.07621 0.97973 0.0
O860 O 0.48223 0.08805 1.00319 0.0
O861 O 0.47495 0.06484 0.96402 0.0
O862 O 0.5158 0.08599 0.90798 0.0
O863 O 0.49157 0.0844 0.89258 0.0
O864 O 0.49788 0.11217 0.93489 0.0
O865 O 0.52305 0.12396 0.89421 0.0
O866 O 0.55536 0.12134 0.88475 0.0
O867 O 0.56365 0.12767 0.94863 0.0
O868 O 0.52184 0.10876 0.99146 0.0
O869 O 0.53437 0.13422 0.96749 0.0
O870 O 0.53968 0.09113 0.96108 0.0
O871 O 0.51063 0.07254 0.98326 0.0
H872 H 0.46094 0.10002 1.00148 0.0
H873 H 0.44141 0.10658 0.95874 0.0
H874 H 0.42328 0.05652 0.89298 0.0
H875 H 0.44271 0.04988 0.93538 0.0
H876 H 0.5814 0.12312 0.83629 0.0
H877 H 0.61104 0.12671 0.82092 0.0
H878 H 0.62559 0.13765 0.94956 0.0
H879 H 0.59612 0.13429 0.96466 0.0
Tb880 Tb 0.9878 0.42608 0.95392 0.0
Tb881 Tb 0.96409 0.43938 0.93549 0.0
C882 C 1.00541 0.41163 0.97679 0.0
C883 C 1.00442 0.3956 0.95688 0.0
C884 C 0.98842 0.37869 0.95903 0.0
C885 C 0.98567 0.36472 0.93234 0.0
C886 C 0.99883 0.36736 0.90302 0.0
C887 C 1.01525 0.38385 0.90261 0.0
C888 C 1.01803 0.39781 0.92933 0.0
C889 C 0.99271 0.43794 0.87591 0.0
C890 C 0.95139 0.39969 0.90878 0.0
C891 C 0.94802 0.45648 0.91452 0.0
C892 C 0.94904 0.4743 0.90548 0.0
C893 C 0.95227 0.48163 0.86533 0.0
C894 C 0.95034 0.49671 0.85592 0.0
C895 C 0.94485 0.5049 0.88617 0.0
C896 C 0.94204 0.49777 0.92651 0.0
C897 C 0.94406 0.48279 0.93592 0.0
C898 C 0.95272 0.41579 1.00006 0.0
C899 C 1.00112 0.46636 0.98017 0.0
O900 O 0.99069 0.40891 0.99528 0.0
O901 O 1.01248 0.42626 0.95424 0.0
O902 O 0.99 0.44542 0.90716 0.0
O903 O 0.98988 0.42239 0.88815 0.0
O904 O 0.96357 0.40099 0.93567 0.0
O905 O 0.95119 0.41449 0.89754 0.0
O906 O 0.95459 0.44961 0.88811 0.0
O907 O 0.95017 0.45288 0.95265 0.0
O908 O 0.96874 0.42824 0.99219 0.0
O909 O 0.94256 0.41718 0.9725 0.0
O910 O 0.9862 0.46407 0.96251 0.0
O911 O 1.00436 0.4528 0.98254 0.0
H912 H 0.97759 0.37647 0.97984 0.0
H913 H 0.97296 0.35211 0.93361 0.0
H914 H 1.02589 0.38607 0.88119 0.0
H915 H 1.03048 0.41064 0.92699 0.0
H916 H 0.95576 0.47536 0.8407 0.0
H917 H 0.95249 0.50151 0.82438 0.0
H918 H 0.93809 0.50367 0.95105 0.0
H919 H 0.94114 0.47749 0.96705 0.0
Tb920 Tb 0.65179 0.57872 0.95706 0.0
Tb921 Tb 0.63974 0.5419 0.9356 0.0
C922 C 0.66262 0.60727 0.99781 0.0
C923 C 0.68043 0.61932 1.01628 0.0
C924 C 0.68194 0.62289 0.05881 0.0
C925 C 0.69889 0.63381 0.07682 0.0
C926 C 0.71463 0.64159 0.05244 0.0
C927 C 0.71302 0.63717 1.01014 0.0
C928 C 0.69618 0.6261 0.99239 0.0
C929 C 0.63839 0.57222 0.88009 0.0
C930 C 0.67897 0.57081 0.90943 0.0
C931 C 0.62358 0.50912 0.91163 0.0
C932 C 0.60598 0.49188 0.90384 0.0
C933 C 0.59832 0.48722 0.86404 0.0
C934 C 0.58354 0.46988 0.85555 0.0
C935 C 0.57602 0.45644 0.88641 0.0
C936 C 0.58346 0.46128 0.9264 0.0
C937 C 0.59814 0.47862 0.93491 0.0
C938 C 0.66446 0.55446 0.99788 0.0
C939 C 0.61129 0.5501 0.97906 0.0
O940 O 0.65381 0.59123 1.01414 0.0
O941 O 0.66178 0.60665 0.95754 0.0
O942 O 0.63224 0.56138 0.91094 0.0
O943 O 0.65321 0.58615 0.89261 0.0
O944 O 0.67754 0.58104 0.93816 0.0
O945 O 0.66431 0.55578 0.89724 0.0
O946 O 0.62901 0.52292 0.88654 0.0
O947 O 0.62811 0.51435 0.94987 0.0
O948 O 0.65161 0.55752 0.99139 0.0
O949 O 0.66275 0.54278 0.97029 0.0
O950 O 0.61545 0.53769 0.9686 0.0
O951 O 0.62323 0.56743 0.9742 0.0
H952 H 0.66999 0.6173 0.07807 0.0
H953 H 0.69957 0.63659 0.10957 0.0
H954 H 0.72463 0.64303 0.98987 0.0
H955 H 0.69552 0.62315 0.95971 0.0
H956 H 0.60413 0.49681 0.83898 0.0
H957 H 0.57846 0.46681 0.82424 0.0
H958 H 0.57804 0.4516 0.95134 0.0
H959 H 0.60372 0.48142 0.96582 0.0
Tb960 Tb 0.63008 0.87307 0.77191 0.0
Tb961 Tb 0.65376 0.90937 0.79689 0.0
C962 C 0.6136 0.84018 0.74857 0.0
C963 C 0.61428 0.82319 0.73983 0.0
C964 C 0.61788 0.81916 0.69995 0.0
C965 C 0.61569 0.80205 0.6905 0.0
C966 C 0.6096 0.78822 0.72045 0.0
C967 C 0.60638 0.79244 0.76054 0.0
C968 C 0.60864 0.80954 0.76999 0.0
C969 C 0.61785 0.88442 0.83656 0.0
C970 C 0.66632 0.88147 0.81896 0.0
C971 C 0.66932 0.93988 0.82908 0.0
C972 C 0.6681 0.95541 0.8132 0.0
C973 C 0.65657 0.96047 0.83258 0.0
C974 C 0.65144 0.97163 0.81226 0.0
C975 C 0.65775 0.97787 0.77222 0.0
C976 C 0.6701 0.97367 0.75397 0.0
C977 C 0.67523 0.96261 0.77418 0.0
C978 C 0.6604 0.90488 0.71828 0.0
C979 C 0.61911 0.90126 0.74512 0.0
O980 O 0.62131 0.85395 0.72319 0.0
O981 O 0.61483 0.84548 0.78692 0.0
O982 O 0.63366 0.88715 0.83043 0.0
O983 O 0.60824 0.87464 0.80594 0.0
O984 O 0.65151 0.86941 0.79972 0.0
O985 O 0.66987 0.89831 0.82315 0.0
O986 O 0.65405 0.92668 0.84306 0.0
O987 O 0.67782 0.93399 0.80575 0.0
O988 O 0.6567 0.89351 0.74759 0.0
O989 O 0.65838 0.91783 0.73283 0.0
O990 O 0.63055 0.91134 0.77426 0.0
O991 O 0.61885 0.88631 0.73304 0.0
H992 H 0.62186 0.82906 0.67552 0.0
H993 H 0.61816 0.79948 0.65914 0.0
H994 H 0.60195 0.78245 0.78485 0.0
H995 H 0.60541 0.81186 0.80089 0.0
H996 H 0.65074 0.95501 0.86249 0.0
H997 H 0.6421 0.97486 0.82728 0.0
H998 H 0.67572 0.97882 0.72374 0.0
H999 H 0.68413 0.95903 0.7582 0.0
Tb1000 Tb 0.20321 0.77187 0.7726 0.0
Tb1001 Tb 0.16618 0.75861 0.79487 0.0
C1002 C 0.23605 0.78892 0.74869 0.0
C1003 C 0.25295 0.8067 0.73975 0.0
C1004 C 0.25715 0.81386 0.69946 0.0
C1005 C 0.27424 0.82885 0.68993 0.0
C1006 C 0.28791 0.83714 0.72021 0.0
C1007 C 0.28351 0.83018 0.76069 0.0
C1008 C 0.26642 0.81527 0.77022 0.0
C1009 C 0.19166 0.74809 0.83661 0.0
C1010 C 0.19385 0.79909 0.81903 0.0
C1011 C 0.13553 0.74395 0.82723 0.0
C1012 C 0.12082 0.72525 0.81998 0.0
C1013 C 0.11753 0.71171 0.84899 0.0
C1014 C 0.10636 0.69349 0.83906 0.0
C1015 C 0.09818 0.68846 0.79999 0.0
C1016 C 0.10092 0.70206 0.7717 0.0
C1017 C 0.11211 0.72021 0.78151 0.0
C1018 C 0.17199 0.7705 0.71707 0.0
C1019 C 0.17535 0.73217 0.74676 0.0
O1020 O 0.22215 0.78265 0.72355 0.0
O1021 O 0.23092 0.78477 0.7871 0.0
O1022 O 0.18819 0.76065 0.8297 0.0
O1023 O 0.20276 0.74936 0.80794 0.0
O1024 O 0.20646 0.79625 0.80317 0.0
O1025 O 0.17671 0.78608 0.81925 0.0
O1026 O 0.14969 0.74514 0.84532 0.0
O1027 O 0.14005 0.75525 0.79636 0.0
O1028 O 0.18282 0.77793 0.7475 0.0
O1029 O 0.159 0.75514 0.72996 0.0
O1030 O 0.16482 0.73347 0.77475 0.0
O1031 O 0.1903 0.74694 0.73482 0.0
H1032 H 0.24742 0.8075 0.67481 0.0
H1033 H 0.27694 0.83348 0.65828 0.0
H1034 H 0.29335 0.83617 0.78525 0.0
H1035 H 0.26399 0.81011 0.80147 0.0
H1036 H 0.12419 0.71519 0.87879 0.0
H1037 H 0.10443 0.68336 0.86165 0.0
H1038 H 0.09432 0.69871 0.74186 0.0
H1039 H 0.11434 0.73024 0.75835 0.0
Tb1040 Tb 0.30462 0.44519 0.77086 0.0
Tb1041 Tb 0.31737 0.42156 0.7969 0.0
C1042 C 0.28789 0.4607 0.74328 0.0
C1043 C 0.27011 0.45983 0.73442 0.0
C1044 C 0.26397 0.45877 0.69357 0.0
C1045 C 0.24907 0.46105 0.68443 0.0
C1046 C 0.23985 0.46471 0.71579 0.0
C1047 C 0.24575 0.4653 0.75676 0.0
C1048 C 0.26056 0.46293 0.76588 0.0
C1049 C 0.32876 0.45881 0.83414 0.0
C1050 C 0.27654 0.40894 0.81588 0.0
C1051 C 0.32715 0.40423 0.84252 0.0
C1052 C 0.34347 0.40929 0.86719 0.0
C1053 C 0.34189 0.40538 0.90954 0.0
C1054 C 0.35721 0.40955 0.93307 0.0
C1055 C 0.37438 0.41748 0.91448 0.0
C1056 C 0.37593 0.42256 0.8726 0.0
C1057 C 0.36068 0.41855 0.8493 0.0
C1058 C 0.30513 0.41334 0.71938 0.0
C1059 C 0.34442 0.45619 0.74806 0.0
O1060 O 0.29353 0.45199 0.71983 0.0
O1061 O 0.29255 0.46096 0.78182 0.0
O1062 O 0.31628 0.44268 0.82829 0.0
O1063 O 0.32709 0.46819 0.805 0.0
O1064 O 0.28047 0.42537 0.80483 0.0
O1065 O 0.28867 0.4038 0.81147 0.0
O1066 O 0.3173 0.41096 0.85528 0.0
O1067 O 0.32889 0.40502 0.80239 0.0
O1068 O 0.2981 0.41808 0.74843 0.0
O1069 O 0.32002 0.41501 0.73382 0.0
O1070 O 0.34303 0.44521 0.77842 0.0
O1071 O 0.32963 0.45581 0.7339 0.0
H1072 H 0.27111 0.45681 0.66831 0.0
H1073 H 0.24525 0.46065 0.65243 0.0
H1074 H 0.23899 0.46777 0.78207 0.0
H1075 H 0.26487 0.46412 0.79772 0.0
H1076 H 0.32875 0.39869 0.92422 0.0
H1077 H 0.35544 0.40571 0.96528 0.0
H1078 H 0.38875 0.42849 0.85661 0.0
H1079 H 0.36238 0.42224 0.81696 0.0
Tb1080 Tb 0.55594 0.94848 0.11729 0.0
Tb1081 Tb 0.59207 0.97205 0.08968 0.0
C1082 C 0.52331 0.93239 0.14255 0.0
C1083 C 0.50642 0.9333 0.15122 0.0
C1084 C 0.50178 0.93544 0.19177 0.0
C1085 C 0.48469 0.93337 0.20091 0.0
C1086 C 0.47146 0.92887 0.16992 0.0
C1087 C 0.4763 0.92714 0.12922 0.0
C1088 C 0.49339 0.92928 0.12008 0.0
C1089 C 0.56658 0.93573 0.05247 0.0
C1090 C 0.56392 0.9846 0.07 0.0
C1091 C 0.62136 0.98643 0.0518 0.0
C1092 C 0.63643 0.98309 0.06011 0.0
C1093 C 0.63832 0.97034 0.03631 0.0
C1094 C 0.64961 0.96388 0.04949 0.0
C1095 C 0.65921 0.97007 0.08668 0.0
C1096 C 0.65803 0.98348 0.10925 0.0
C1097 C 0.6468 0.98992 0.09614 0.0
C1098 C 0.58857 0.97932 0.16832 0.0
C1099 C 0.58462 0.93781 0.14229 0.0
O1100 O 0.53737 0.94058 0.1671 0.0
O1101 O 0.52819 0.93287 0.1041 0.0
O1102 O 0.56932 0.95154 0.05832 0.0
O1103 O 0.5571 0.92634 0.08362 0.0
O1104 O 0.5519 0.96947 0.08827 0.0
O1105 O 0.58094 0.98859 0.06645 0.0
O1106 O 0.60676 0.9724 0.03769 0.0
O1107 O 0.61768 0.99488 0.08057 0.0
O1108 O 0.57675 0.9753 0.13976 0.0
O1109 O 0.60153 0.97747 0.153 0.0
O1110 O 0.59439 0.94908 0.11257 0.0
O1111 O 0.56979 0.93761 0.15527 0.0
H1112 H 0.51117 0.93813 0.21685 0.0
H1113 H 0.48163 0.93465 0.23272 0.0
H1114 H 0.46679 0.92397 0.10418 0.0
H1115 H 0.49618 0.92723 0.08856 0.0
H1116 H 0.63041 0.96474 1.00849 0.0
H1117 H 0.65046 0.95374 0.0312 0.0
H1118 H 0.66579 0.98902 0.13726 0.0
H1119 H 0.64575 0.99975 0.11524 0.0
Tb1120 Tb 0.12931 0.62197 0.11693 0.0
Tb1121 Tb 0.10468 0.63389 0.09124 0.0
C1122 C 0.14548 0.60541 0.14147 0.0
C1123 C 0.14472 0.58767 0.14952 0.0
C1124 C 0.1408 0.57977 0.18909 0.0
C1125 C 0.14294 0.56481 0.19822 0.0
C1126 C 0.14929 0.5573 0.16826 0.0
C1127 C 0.15281 0.565 0.12844 0.0
C1128 C 0.15061 0.57989 0.11931 0.0
C1129 C 0.14141 0.64545 0.0524 0.0
C1130 C 0.09356 0.59438 0.06776 0.0
C1131 C 0.09123 0.65127 0.05945 0.0
C1132 C 0.09899 0.66967 0.04338 0.0
C1133 C 0.11748 0.68219 0.04783 0.0
C1134 C 0.12427 0.70026 0.03717 0.0
C1135 C 0.11264 0.70602 1.02182 0.0
C1136 C 0.09442 0.69305 1.01413 0.0
C1137 C 0.08766 0.67504 1.02499 0.0
C1138 C 0.09138 0.61203 0.1567 0.0
C1139 C 0.14047 0.6608 0.1436 0.0
O1140 O 0.13701 0.61089 0.16607 0.0
O1141 O 0.14514 0.61011 0.10324 0.0
O1142 O 0.12545 0.63256 0.05874 0.0
O1143 O 0.15129 0.6444 0.08128 0.0
O1144 O 0.10648 0.59661 0.09352 0.0
O1145 O 0.09151 0.60821 0.05778 0.0
O1146 O 0.09517 0.64066 0.03858 0.0
O1147 O 0.09271 0.6499 0.0993 0.0
O1148 O 0.10805 0.62402 0.15096 0.0
O1149 O 0.08232 0.61298 0.12592 0.0
O1150 O 0.12774 0.6589 0.11727 0.0
O1151 O 0.14213 0.64672 0.15341 0.0
H1152 H 0.13662 0.58551 0.21356 0.0
H1153 H 0.14024 0.55957 0.22939 0.0
H1154 H 0.15745 0.55962 0.10414 0.0
H1155 H 0.15408 0.58567 0.08865 0.0
H1156 H 0.12654 0.6782 0.061 0.0
H1157 H 0.13836 0.70989 0.04316 0.0
H1158 H 0.08499 0.69702 1.00291 0.0
H1159 H 0.0734 0.66549 1.02089 0.0
Tb1160 Tb 0.45526 0.52117 0.11463 0.0
Tb1161 Tb 0.44251 0.48453 0.09003 0.0
C1162 C 0.47187 0.55381 0.13978 0.0
C1163 C 0.48959 0.57075 0.14896 0.0
C1164 C 0.49592 0.57554 0.1898 0.0
C1165 C 0.51079 0.5927 0.1993 0.0
C1166 C 0.51976 0.60586 0.16837 0.0
C1167 C 0.51366 0.60086 0.12739 0.0
C1168 C 0.49887 0.58369 0.11791 0.0
C1169 C 0.43164 0.50996 0.05022 0.0
C1170 C 0.48301 0.51279 0.06757 0.0
C1171 C 0.42843 0.45436 0.05538 0.0
C1172 C 0.41014 0.43898 0.06318 0.0
C1173 C 0.39562 0.43629 0.0378 0.0
C1174 C 0.37779 0.42477 0.05023 0.0
C1175 C 0.37419 0.41569 0.08813 0.0
C1176 C 0.38872 0.41752 0.11212 0.0
C1177 C 0.40648 0.42901 0.09982 0.0
C1178 C 0.45403 0.48951 0.16817 0.0
C1179 C 0.41576 0.49275 0.14001 0.0
O1180 O 0.46582 0.53979 0.1644 0.0
O1181 O 0.4677 0.54889 0.10124 0.0
O1182 O 0.44441 0.50675 0.05667 0.0
O1183 O 0.43252 0.52054 0.07976 0.0
O1184 O 0.47995 0.52506 0.08452 0.0
O1185 O 0.4701 0.49566 0.06596 0.0
O1186 O 0.42865 0.46842 0.03934 0.0
O1187 O 0.44022 0.45894 0.08528 0.0
O1188 O 0.46152 0.50076 0.13849 0.0
O1189 O 0.43889 0.47647 0.15434 0.0
O1190 O 0.41717 0.48257 0.1112 0.0
O1191 O 0.43045 0.50767 0.15244 0.0
H1192 H 0.48899 0.56621 0.21481 0.0
H1193 H 0.51477 0.59588 0.2313 0.0
H1194 H 0.52021 0.6103 0.10238 0.0
H1195 H 0.49438 0.5808 0.08614 0.0
H1196 H 0.39802 0.4438 1.00934 0.0
H1197 H 0.36686 0.42346 0.03091 0.0
H1198 H 0.38638 0.41014 0.14075 0.0
H1199 H 0.41729 0.43064 0.12001 0.0
Tb1200 Tb 0.10474 0.4845 0.59016 0.0
Tb1201 Tb 0.129 0.52076 0.61695 0.0
C1202 C 0.0874 0.45754 0.54405 0.0
C1203 C 0.09247 0.44558 0.52262 0.0
C1204 C 0.08891 0.44212 0.48034 0.0
C1205 C 0.09352 0.43062 0.45978 0.0
C1206 C 0.10163 0.42222 0.48128 0.0
C1207 C 0.10621 0.42676 0.52315 0.0
C1208 C 0.10173 0.43831 0.54348 0.0
C1209 C 0.09729 0.48841 0.66813 0.0
C1210 C 0.13946 0.49145 0.63849 0.0
C1211 C 0.145 0.55304 0.64444 0.0
C1212 C 0.14436 0.57011 0.65252 0.0
C1213 C 0.14173 0.57476 0.69265 0.0
C1214 C 0.14411 0.59201 0.70139 0.0
C1215 C 0.14946 0.60535 0.67043 0.0
C1216 C 0.15165 0.60049 0.63013 0.0
C1217 C 0.14917 0.58325 0.62137 0.0
C1218 C 0.14207 0.51006 0.55313 0.0
C1219 C 0.09271 0.51321 0.5726 0.0
O1220 O 0.09549 0.47413 0.53082 0.0
O1221 O 0.08671 0.45669 0.58433 0.0
O1222 O 0.10189 0.50032 0.63953 0.0
O1223 O 0.09832 0.47494 0.653 0.0
O1224 O 0.12811 0.48194 0.60849 0.0
O1225 O 0.13957 0.50606 0.65298 0.0
O1226 O 0.13596 0.53876 0.6679 0.0
O1227 O 0.14537 0.54853 0.60605 0.0
O1228 O 0.12605 0.50673 0.55922 0.0
O1229 O 0.1517 0.52097 0.58232 0.0
O1230 O 0.10926 0.52548 0.58376 0.0
O1231 O 0.0873 0.49585 0.57616 0.0
H1232 H 0.08224 0.44805 0.4634 0.0
H1233 H 0.08997 0.42772 0.42754 0.0
H1234 H 0.1122 0.42053 0.54137 0.0
H1235 H 0.10516 0.44121 0.57585 0.0
H1236 H 0.13842 0.56527 0.71774 0.0
H1237 H 0.14242 0.5951 0.73292 0.0
H1238 H 0.15546 0.61009 0.60511 0.0
H1239 H 0.15162 0.58046 0.59017 0.0
Tb1240 Tb 0.59206 0.63508 0.59282 0.0
Tb1241 Tb 0.55503 0.62195 0.61496 0.0
C1242 C 0.62224 0.64928 0.55808 0.0
C1243 C 0.63665 0.66837 0.56129 0.0
C1244 C 0.63827 0.68087 0.53093 0.0
C1245 C 0.64925 0.69941 0.53773 0.0
C1246 C 0.65887 0.70574 0.57485 0.0
C1247 C 0.65784 0.6932 0.60428 0.0
C1248 C 0.64688 0.67476 0.59761 0.0
C1249 C 0.58581 0.62264 0.67027 0.0
C1250 C 0.58315 0.66141 0.64195 0.0
C1251 C 0.5223 0.60517 0.63915 0.0
C1252 C 0.50558 0.58736 0.64851 0.0
C1253 C 0.50125 0.58083 0.68927 0.0
C1254 C 0.48428 0.56579 0.69907 0.0
C1255 C 0.4709 0.5568 0.66855 0.0
C1256 C 0.47543 0.56312 0.62762 0.0
C1257 C 0.4924 0.57811 0.61783 0.0
C1258 C 0.56683 0.64616 0.55184 0.0
C1259 C 0.56418 0.59447 0.56928 0.0
O1260 O 0.60756 0.64676 0.53991 0.0
O1261 O 0.61856 0.63945 0.59142 0.0
O1262 O 0.57521 0.61559 0.6394 0.0
O1263 O 0.59933 0.63781 0.65798 0.0
O1264 O 0.59368 0.66027 0.61366 0.0
O1265 O 0.5682 0.64658 0.6536 0.0
O1266 O 0.53623 0.61155 0.6642 0.0
O1267 O 0.52733 0.60913 0.60062 0.0
O1268 O 0.57014 0.63345 0.55819 0.0
O1269 O 0.55569 0.64475 0.58053 0.0
O1270 O 0.55156 0.5975 0.58431 0.0
O1271 O 0.58137 0.60736 0.56966 0.0
H1272 H 0.63051 0.67635 0.50262 0.0
H1273 H 0.64989 0.70878 0.51448 0.0
H1274 H 0.66562 0.69765 0.63258 0.0
H1275 H 0.64603 0.66556 0.6216 0.0
H1276 H 0.51077 0.58774 0.71402 0.0
H1277 H 0.48145 0.56165 0.73104 0.0
H1278 H 0.46578 0.55657 0.60292 0.0
H1279 H 0.49496 0.58278 0.58617 0.0
Tb1280 Tb 0.44145 0.97124 0.58721 0.0
Tb1281 Tb 0.45427 0.94804 0.6152 0.0
C1282 C 0.42643 0.9851 0.54774 0.0
C1283 C 0.40797 0.98166 0.555 0.0
C1284 C 0.39454 0.97258 0.52492 0.0
C1285 C 0.3763 0.96569 0.53464 0.0
C1286 C 0.37122 0.96774 0.57467 0.0
C1287 C 0.38477 0.97733 0.6042 0.0
C1288 C 0.40288 0.98414 0.59457 0.0
C1289 C 0.45238 0.97902 0.66572 0.0
C1290 C 0.41501 0.9373 0.64119 0.0
C1291 C 0.47079 0.93189 0.63999 0.0
C1292 C 0.4885 0.93255 0.64818 0.0
C1293 C 0.49593 0.93548 0.68822 0.0
C1294 C 0.51082 0.93314 0.69708 0.0
C1295 C 0.51871 0.92755 0.66634 0.0
C1296 C 0.51151 0.92505 0.62611 0.0
C1297 C 0.49671 0.92747 0.61724 0.0
C1298 C 0.43072 0.935 0.55055 0.0
C1299 C 0.48234 0.98425 0.56807 0.0
O1300 O 0.42698 0.97093 0.53483 0.0
O1301 O 0.43843 0.99382 0.57665 0.0
O1302 O 0.46015 0.97485 0.63741 0.0
O1303 O 0.43756 0.97715 0.65024 0.0
O1304 O 0.41625 0.94831 0.61109 0.0
O1305 O 0.42978 0.93734 0.65393 0.0
O1306 O 0.46514 0.94021 0.66471 0.0
O1307 O 0.46626 0.93237 0.60165 0.0
O1308 O 0.44387 0.9508 0.55614 0.0
O1309 O 0.43076 0.92577 0.58205 0.0
O1310 O 0.47937 0.96923 0.58658 0.0
O1311 O 0.46916 0.98799 0.56417 0.0
H1312 H 0.3981 0.97019 0.49441 0.0
H1313 H 0.36618 0.9585 0.51114 0.0
H1314 H 0.38141 0.97973 0.63491 0.0
H1315 H 0.41282 0.99085 0.61869 0.0
H1316 H 0.48984 0.939 0.71318 0.0
H1317 H 0.51569 0.93507 0.72855 0.0
H1318 H 0.51721 0.92104 0.60124 0.0
H1319 H 0.49134 0.92478 0.58614 0.0
Tb1320 Tb 0.16765 0.42251 0.29706 0.0
Tb1321 Tb 0.20434 0.4461 0.27276 0.0
C1322 C 0.1376 0.40701 0.33225 0.0
C1323 C 0.1227 0.41068 0.32515 0.0
C1324 C 0.11971 0.42144 0.35339 0.0
C1325 C 0.10883 0.4287 0.34259 0.0
C1326 C 0.10066 0.42522 0.30354 0.0
C1327 C 0.1029 0.4137 0.27628 0.0
C1328 C 0.11379 0.40653 0.2869 0.0
C1329 C 0.17248 0.41585 0.2189 0.0
C1330 C 0.17622 0.45743 0.2467 0.0
C1331 C 0.23707 0.46209 0.24833 0.0
C1332 C 0.25405 0.46135 0.23971 0.0
C1333 C 0.25846 0.4586 0.19943 0.0
C1334 C 0.27565 0.46091 0.1902 0.0
C1335 C 0.28917 0.4663 0.22079 0.0
C1336 C 0.28455 0.46861 0.26126 0.0
C1337 C 0.26737 0.46621 0.27049 0.0
C1338 C 0.19319 0.45862 0.33702 0.0
C1339 C 0.19546 0.40975 0.31936 0.0
O1340 O 0.15198 0.42051 0.3484 0.0
O1341 O 0.14172 0.39962 0.30188 0.0
O1342 O 0.18374 0.41954 0.24855 0.0
O1343 O 0.15946 0.41797 0.23281 0.0
O1344 O 0.16595 0.44598 0.27559 0.0
O1345 O 0.19107 0.45749 0.23451 0.0
O1346 O 0.22313 0.45407 0.22342 0.0
O1347 O 0.23203 0.46137 0.28673 0.0
O1348 O 0.18999 0.44266 0.33059 0.0
O1349 O 0.20371 0.46828 0.30738 0.0
O1350 O 0.2079 0.42509 0.30275 0.0
O1351 O 0.17836 0.40566 0.32069 0.0
H1352 H 0.12653 0.42497 0.383 0.0
H1353 H 0.10724 0.43745 0.36423 0.0
H1354 H 0.09623 0.41022 0.24651 0.0
H1355 H 0.11577 0.39833 0.26435 0.0
H1356 H 0.24882 0.45524 0.17458 0.0
H1357 H 0.27854 0.45914 0.15856 0.0
H1358 H 0.2943 0.47246 0.28602 0.0
H1359 H 0.26476 0.46877 0.30176 0.0
Tb1360 Tb 0.65501 0.76035 0.29619 0.0
Tb1361 Tb 0.63064 0.77242 0.27132 0.0
C1362 C 0.67276 0.75057 0.34029 0.0
C1363 C 0.66771 0.7335 0.36145 0.0
C1364 C 0.67125 0.73354 0.4037 0.0
C1365 C 0.66666 0.71741 0.42401 0.0
C1366 C 0.65864 0.70094 0.40233 0.0
C1367 C 0.65407 0.70094 0.3605 0.0
C1368 C 0.65848 0.717 0.3404 0.0
C1369 C 0.66213 0.77204 0.21846 0.0
C1370 C 0.62001 0.73269 0.24863 0.0
C1371 C 0.61464 0.78884 0.24477 0.0
C1372 C 0.61543 0.80662 0.2366 0.0
C1373 C 0.6177 0.81365 0.1963 0.0
C1374 C 0.61548 0.82861 0.18759 0.0
C1375 C 0.61066 0.83699 0.21877 0.0
C1376 C 0.60883 0.83019 0.25924 0.0
C1377 C 0.61115 0.81533 0.26795 0.0
C1378 C 0.6179 0.74847 0.33491 0.0
C1379 C 0.6671 0.80101 0.31529 0.0
O1380 O 0.66508 0.75932 0.35459 0.0
O1381 O 0.6729 0.75034 0.29998 0.0
O1382 O 0.65766 0.77922 0.24764 0.0
O1383 O 0.66102 0.75741 0.23285 0.0
O1384 O 0.63149 0.73445 0.27821 0.0
O1385 O 0.61986 0.74724 0.23475 0.0
O1386 O 0.62335 0.78335 0.22085 0.0
O1387 O 0.61457 0.78411 0.28315 0.0
O1388 O 0.6339 0.76116 0.32843 0.0
O1389 O 0.60812 0.74986 0.30629 0.0
O1390 O 0.6505 0.79676 0.30471 0.0
O1391 O 0.6725 0.78909 0.31085 0.0
H1392 H 0.67787 0.74611 0.42083 0.0
H1393 H 0.67015 0.718 0.45621 0.0
H1394 H 0.64812 0.68874 0.34213 0.0
H1395 H 0.65504 0.71649 0.30805 0.0
H1396 H 0.6206 0.80719 0.17106 0.0
H1397 H 0.61686 0.83316 0.15594 0.0
H1398 H 0.60544 0.83627 0.28444 0.0
H1399 H 0.609 0.81031 0.29931 0.0
Tb1400 Tb 0.31706 0.90819 0.29915 0.0
Tb1401 Tb 0.30467 0.87241 0.26938 0.0
C1402 C 0.33124 0.93587 0.34301 0.0
C1403 C 0.35055 0.9497 0.34309 0.0
C1404 C 0.3615 0.95104 0.37686 0.0
C1405 C 0.38031 0.9617 0.37427 0.0
C1406 C 0.38846 0.97119 0.33782 0.0
C1407 C 0.37739 0.96998 0.3044 0.0
C1408 C 0.35872 0.95936 0.30694 0.0
C1409 C 0.30624 0.90555 0.22074 0.0
C1410 C 0.34405 0.90161 0.24542 0.0
C1411 C 0.2892 0.84018 0.24211 0.0
C1412 C 0.27242 0.82302 0.23034 0.0
C1413 C 0.27432 0.80971 0.20924 0.0
C1414 C 0.25932 0.79263 0.20082 0.0
C1415 C 0.24175 0.7882 0.21304 0.0
C1416 C 0.23975 0.80175 0.23332 0.0
C1417 C 0.2549 0.81889 0.24215 0.0
C1418 C 0.32811 0.88266 0.33427 0.0
C1419 C 0.27611 0.88007 0.31597 0.0
O1420 O 0.32802 0.92014 0.35619 0.0
O1421 O 0.32199 0.93452 0.30964 0.0
O1422 O 0.29856 0.8933 0.24844 0.0
O1423 O 0.32086 0.91862 0.2368 0.0
O1424 O 0.34256 0.91097 0.27616 0.0
O1425 O 0.32939 0.887 0.23165 0.0
O1426 O 0.29523 0.85445 0.21833 0.0
O1427 O 0.29198 0.84454 0.2812 0.0
O1428 O 0.31491 0.88518 0.32868 0.0
O1429 O 0.32815 0.87351 0.30255 0.0
O1430 O 0.27935 0.86806 0.29804 0.0
O1431 O 0.28906 0.8971 0.31947 0.0
H1432 H 0.35554 0.94341 0.40481 0.0
H1433 H 0.38845 0.96247 0.40065 0.0
H1434 H 0.38311 0.97759 0.27632 0.0
H1435 H 0.35075 0.95847 0.28012 0.0
H1436 H 0.2876 0.8124 0.19987 0.0
H1437 H 0.26155 0.78286 0.18459 0.0
H1438 H 0.22654 0.79895 0.24348 0.0
H1439 H 0.25297 0.82877 0.25877 0.0
H1440 H 0.25432 0.09013 0.08628 0.0
H1441 H 0.28032 1.02885 0.94506 0.0
H1442 H 0.29449 0.11172 0.99 0.0
H1443 H 0.23644 1.0064 0.03252 0.0
H1444 H 0.2866 0.05917 0.9637 0.0
H1445 H 0.24864 0.0598 0.06977 0.0
C1446 C 0.2621 0.08863 0.06187 0.0
C1447 C 0.27502 0.10385 0.03973 0.0
C1448 C 0.27563 0.04765 0.97901 0.0
C1449 C 0.26833 0.06858 1.02024 0.0
C1450 C 0.27204 1.03022 0.96848 0.0
C1451 C 0.25781 1.01479 0.98726 0.0
C1452 C 0.265 0.04999 1.00883 0.0
C1453 C 0.24758 1.01773 1.01718 0.0
C1454 C 0.25872 0.07115 0.05225 0.0
C1455 C 0.28429 0.10061 1.00785 0.0
N1456 N 0.25137 0.03486 0.02695 0.0
N1457 N 0.28082 0.08349 0.99926 0.0
H1458 H 0.07168 0.24124 0.02729 0.0
H1459 H 0.96392 0.20172 1.0142 0.0
H1460 H 0.04777 0.26708 0.95843 0.0
H1461 H 0.98796 0.17243 0.06683 0.0
H1462 H 0.99433 0.22679 0.99842 0.0
H1463 H 1.04129 0.21719 0.04662 0.0
C1464 C 0.0601 0.24201 1.01647 0.0
C1465 C 0.06252 0.25641 0.99115 0.0
C1466 C 0.99296 0.21488 1.01347 0.0
C1467 C 1.02728 0.22857 1.01329 0.0
C1468 C 0.97552 0.20053 1.02278 0.0
C1469 C 0.97309 0.18466 0.04178 0.0
C1470 C 1.00834 0.21364 1.02351 0.0
C1471 C 0.9889 0.18411 0.0516 0.0
C1472 C 1.04266 0.22816 0.02743 0.0
C1473 C 0.04676 0.25638 0.97803 0.0
N1474 N 1.00567 0.19826 0.04247 0.0
N1475 N 1.02997 0.24279 0.98919 0.0
H1476 H 0.83698 0.84804 0.03185 0.0
H1477 H 0.87922 0.7828 1.00302 0.0
H1478 H 0.8121 0.7993 0.95902 0.0
H1479 H 0.90254 0.82914 0.0837 0.0
H1480 H 0.85492 0.78898 0.98617 0.0
H1481 H 0.86102 0.8416 0.05127 0.0
C1482 C 0.83644 0.83593 1.02011 0.0
C1483 C 0.8223 0.82424 0.9937 0.0
C1484 C 0.86532 0.79781 1.00765 0.0
C1485 C 0.85013 0.8168 1.01565 0.0
C1486 C 0.87937 0.79433 1.01717 0.0
C1487 C 0.8932 0.80539 0.04502 0.0
C1488 C 0.86492 0.81258 1.02573 0.0
C1489 C 0.8922 0.81999 0.06255 0.0
C1490 C 0.85026 0.83227 0.03117 0.0
C1491 C 0.82258 0.80879 0.97946 0.0
N1492 N 0.87846 0.82315 0.05258 0.0
N1493 N 0.83618 0.80561 0.99042 0.0
H1494 H 1.02038 0.21536 0.5231 0.0
H1495 H 0.12799 0.27923 0.55535 0.0
H1496 H 1.04447 0.26329 0.59869 0.0
H1497 H 0.1048 0.23395 0.4716 0.0
H1498 H 0.09753 0.27323 0.57202 0.0
H1499 H 0.05085 0.22168 0.50386 0.0
C1500 C 1.032 0.22727 0.53549 0.0
C1501 C 1.02962 0.23878 0.5626 0.0
C1502 C 0.09907 0.2646 0.54991 0.0
C1503 C 0.06487 0.24606 0.54086 0.0
C1504 C 0.11657 0.26797 0.54048 0.0
C1505 C 0.11929 0.25715 0.51184 0.0
C1506 C 0.08386 0.25018 0.53091 0.0
C1507 C 0.10365 0.24291 0.4934 0.0
C1508 C 0.04947 0.23086 0.52453 0.0
C1509 C 1.04541 0.25397 0.57766 0.0
N1510 N 0.08677 0.23984 0.5033 0.0
N1511 N 0.06218 0.25708 0.56678 0.0
H1512 H 0.79685 0.86372 0.55947 0.0
H1513 H 0.86033 0.81985 0.52341 0.0
H1514 H 0.84111 0.88524 0.47298 0.0
H1515 H 0.81353 0.79657 0.60257 0.0
H1516 H 0.8537 0.84378 0.50448 0.0
H1517 H 0.80306 0.83942 0.57594 0.0
C1518 C 0.80793 0.86348 0.54395 0.0
C1519 C 0.81839 0.87682 0.51458 0.0
C1520 C 0.84483 0.83339 0.52586 0.0
C1521 C 0.82561 0.84851 0.53347 0.0
C1522 C 0.84859 0.81963 0.53664 0.0
C1523 C 0.8375 0.80595 0.56466 0.0
C1524 C 0.82987 0.83371 0.54327 0.0
C1525 C 0.82253 0.80666 0.5808 0.0
C1526 C 0.81142 0.84942 0.55328 0.0
C1527 C 0.83242 0.8753 0.49536 0.0
N1528 N 0.81924 0.82021 0.57006 0.0
N1529 N 0.83561 0.86157 0.50517 0.0
H1530 H 0.19425 0.97217 0.46821 0.0
H1531 H 0.28372 0.03353 0.60358 0.0
H1532 H 0.21532 0.95038 0.55821 0.0
H1533 H 0.25992 0.05602 0.52302 0.0
H1534 H 0.25984 1.00319 0.58445 0.0
H1535 H 0.21881 1.00257 0.48488 0.0
C1536 C 0.20407 0.97364 0.49126 0.0
C1537 C 0.20248 0.95833 0.51158 0.0
C1538 C 0.25981 1.01471 0.57076 0.0
C1539 C 0.23097 0.99371 0.53128 0.0
C1540 C 0.27357 0.03217 0.58159 0.0
C1541 C 0.27405 0.04763 0.56495 0.0
C1542 C 0.2462 1.01236 0.5428 0.0
C1543 C 0.26029 0.04468 0.5367 0.0
C1544 C 0.21811 0.99116 0.50098 0.0
C1545 C 0.21566 0.96154 0.5418 0.0
N1546 N 0.24703 1.02752 0.52663 0.0
N1547 N 0.22923 0.97871 0.55053 0.0
H1548 H 0.813 0.03353 0.10654 0.0
H1549 H 0.84077 0.97299 0.9676 0.0
H1550 H 0.85856 0.0564 1.02365 0.0
H1551 H 0.79809 0.95068 0.05812 0.0
H1552 H 0.84653 1.00327 0.98505 0.0
H1553 H 0.80655 1.00328 0.08668 0.0
C1554 C 0.82163 0.03228 0.08389 0.0
C1555 C 0.8364 0.0478 0.06678 0.0
C1556 C 0.83588 0.99177 1.00109 0.0
C1557 C 0.82899 1.01267 0.04382 0.0
C1558 C 0.83245 0.97433 0.99092 0.0
C1559 C 0.81881 0.95892 1.01116 0.0
C1560 C 0.8256 0.99412 0.03179 0.0
C1561 C 0.80886 0.96194 0.04176 0.0
C1562 C 0.81793 1.01487 0.07265 0.0
C1563 C 0.84702 0.04499 0.03771 0.0
N1564 N 0.81241 0.97903 0.05095 0.0
N1565 N 0.84313 1.0279 0.02726 0.0
H1566 H 0.10651 0.88668 0.97083 0.0
H1567 H 1.04491 0.79582 0.10075 0.0
H1568 H 0.1282 0.86388 0.05657 0.0
H1569 H 1.02245 0.82137 1.02573 0.0
H1570 H 0.07527 0.8196 0.08169 0.0
H1571 H 0.07599 0.86229 0.98728 0.0
C1572 C 0.10498 0.87652 0.99289 0.0
C1573 C 0.12029 0.87756 1.0121 0.0
C1574 C 0.06375 0.82004 0.06921 0.0
C1575 C 0.08481 0.84927 0.03151 0.0
C1576 C 1.04627 0.80635 0.08001 0.0
C1577 C 1.03082 0.80639 0.06492 0.0
C1578 C 0.06613 0.83412 0.04284 0.0
C1579 C 1.03378 0.8206 0.03818 0.0
C1580 C 0.0874 0.86258 1.00249 0.0
C1581 C 0.11703 0.86396 0.04108 0.0
N1582 N 0.05097 0.8338 0.0281 0.0
N1583 N 0.09981 0.85049 0.04968 0.0
H1584 H 0.28156 0.26327 0.10557 0.0
H1585 H 0.19276 0.23625 0.96857 0.0
H1586 H 0.2586 0.21795 1.02197 0.0
H1587 H 0.2133 0.27819 0.06096 0.0
H1588 H 0.21729 0.2303 0.98485 0.0
H1589 H 0.25764 0.2697 0.08691 0.0
C1590 C 0.27159 0.25468 0.083 0.0
C1591 C 0.27234 0.24 0.06535 0.0
C1592 C 0.21647 0.24083 1.00157 0.0
C1593 C 0.24441 0.24739 0.04373 0.0
C1594 C 0.20245 0.24437 0.99207 0.0
C1595 C 0.20071 0.25786 1.01317 0.0
C1596 C 0.22917 0.25085 0.03243 0.0
C1597 C 0.21373 0.26753 0.04393 0.0
C1598 C 0.2578 0.25837 0.07244 0.0
C1599 C 0.25877 0.22944 0.03642 0.0
N1600 N 0.22729 0.26389 0.05242 0.0
N1601 N 0.24547 0.23333 0.02662 0.0
H1602 H 0.04915 0.79781 0.46022 0.0
H1603 H 0.9881 0.82886 0.58639 0.0
H1604 H 0.07215 0.84694 0.53157 0.0
H1605 H 0.96629 0.78319 0.50382 0.0
H1606 H 1.01863 0.83488 0.57017 0.0
H1607 H 1.01897 0.79159 0.47932 0.0
C1608 C 0.04795 0.80731 0.48016 0.0
C1609 C 0.0635 0.823 0.49419 0.0
C1610 C 1.00718 0.82353 0.55561 0.0
C1611 C 1.02835 0.81582 0.51634 0.0
C1612 C 0.98961 0.81996 0.56508 0.0
C1613 C 0.97427 0.80538 0.54667 0.0
C1614 C 1.00971 0.81243 0.52755 0.0
C1615 C 0.97748 0.79468 0.51865 0.0
C1616 C 1.03056 0.80372 0.49099 0.0
C1617 C 0.06072 0.83467 0.51997 0.0
N1618 N 0.99468 0.79837 0.51016 0.0
N1619 N 1.04359 0.83086 0.53011 0.0
H1620 H 0.29521 0.19683 0.49052 0.0
H1621 H 0.23452 0.24326 0.53298 0.0
H1622 H 0.25393 0.17821 0.58427 0.0
H1623 H 0.27828 0.26364 0.44528 0.0
H1624 H 0.24125 0.21944 0.55217 0.0
H1625 H 0.28892 0.221 0.47328 0.0
C1626 C 0.28477 0.19769 0.50749 0.0
C1627 C 0.27516 0.1852 0.5391 0.0
C1628 C 0.24944 0.22917 0.52884 0.0
C1629 C 0.26788 0.21336 0.51935 0.0
C1630 C 0.24561 0.24286 0.51788 0.0
C1631 C 0.25585 0.2557 0.48748 0.0
C1632 C 0.26359 0.22808 0.50922 0.0
C1633 C 0.27 0.25422 0.46902 0.0
C1634 C 0.28124 0.21166 0.49771 0.0
C1635 C 0.26196 0.18749 0.5601 0.0
N1636 N 0.27337 0.24076 0.48001 0.0
N1637 N 0.25871 0.20112 0.54983 0.0
H1638 H 0.90635 0.08942 0.56387 0.0
H1639 H 0.80789 1.02919 0.46224 0.0
H1640 H 0.87411 0.11209 0.52185 0.0
H1641 H 0.83633 1.00632 0.52451 0.0
H1642 H 0.832 0.05943 0.48206 0.0
H1643 H 0.88134 0.05921 0.54784 0.0
C1644 C 0.89406 0.08814 0.55111 0.0
C1645 C 0.89261 0.10362 0.54408 0.0
C1646 C 0.83295 0.04782 0.49165 0.0
C1647 C 0.86347 0.06851 0.52552 0.0
C1648 C 0.81911 1.03044 0.48035 0.0
C1649 C 0.81986 1.01493 0.49176 0.0
C1650 C 0.84796 0.04999 0.51429 0.0
C1651 C 0.83495 1.0177 0.51509 0.0
C1652 C 0.87966 0.07075 0.54216 0.0
C1653 C 0.87601 0.10073 0.52814 0.0
N1654 N 0.84834 0.03476 0.52526 0.0
N1655 N 0.86225 0.08366 0.51919 0.0
H1656 H 0.9632 0.44711 0.3288 0.0
H1657 H 0.90007 0.33977 0.36528 0.0
H1658 H 0.91936 0.42432 0.41639 0.0
H1659 H 0.94658 0.36327 0.2852 0.0
H1660 H 0.90673 0.37033 0.38437 0.0
H1661 H 0.95701 0.4166 0.31206 0.0
C1662 C 0.95222 0.43577 0.34451 0.0
C1663 C 0.94187 0.43863 0.37427 0.0
C1664 C 0.91553 0.36881 0.36275 0.0
C1665 C 0.93467 0.40313 0.35507 0.0
C1666 C 0.91175 0.35128 0.35187 0.0
C1667 C 0.92275 0.34869 0.32356 0.0
C1668 C 0.93041 0.38408 0.34514 0.0
C1669 C 0.93765 0.36437 0.30721 0.0
C1670 C 0.94874 0.41824 0.33503 0.0
C1671 C 0.92797 0.42309 0.39371 0.0
N1672 N 0.94095 0.38121 0.31805 0.0
N1673 N 0.92479 0.40618 0.38374 0.0
H1674 H 0.73999 0.57579 0.36553 0.0
H1675 H 0.63242 0.53245 0.33338 0.0
H1676 H 0.71616 0.59947 0.28878 0.0
H1677 H 0.65549 0.51039 0.41736 0.0
H1678 H 0.66292 0.55674 0.3164 0.0
H1679 H 0.70946 0.55185 0.385 0.0
C1680 C 0.72841 0.57609 0.35294 0.0
C1681 C 0.73089 0.58988 0.32543 0.0
C1682 C 0.66134 0.54662 0.33863 0.0
C1683 C 0.69556 0.56214 0.34746 0.0
C1684 C 0.64382 0.53258 0.34824 0.0
C1685 C 0.64104 0.5191 0.37705 0.0
C1686 C 0.67653 0.54737 0.3576 0.0
C1687 C 0.65666 0.52045 0.39545 0.0
C1688 C 0.71091 0.56233 0.36403 0.0
C1689 C 0.71515 0.58929 0.31013 0.0
N1690 N 0.67357 0.53417 0.38538 0.0
N1691 N 0.69834 0.57575 0.32116 0.0
H1692 H 0.50208 0.17883 0.36608 0.0
H1693 H 0.54632 0.11575 0.32982 0.0
H1694 H 0.47986 0.13278 0.28462 0.0
H1695 H 0.56732 0.15935 0.41814 0.0
H1696 H 0.5222 0.12216 0.31282 0.0
H1697 H 0.52597 0.17219 0.38585 0.0
C1698 C 0.50208 0.16726 0.35255 0.0
C1699 C 0.48871 0.15635 0.32369 0.0
C1700 C 0.53205 0.13033 0.33601 0.0
C1701 C 0.51635 0.14872 0.34601 0.0
C1702 C 0.54599 0.12674 0.34563 0.0
C1703 C 0.55912 0.13696 0.37563 0.0
C1704 C 0.53105 0.14439 0.35618 0.0
C1705 C 0.55753 0.15085 0.39524 0.0
C1706 C 0.5158 0.16349 0.3638 0.0
C1707 C 0.48967 0.14159 0.30715 0.0
N1708 N 0.5439 0.15416 0.38514 0.0
N1709 N 0.50315 0.1383 0.31836 0.0
H1710 H 0.77219 0.56286 0.82752 0.0
H1711 H 0.71166 0.60192 0.9222 0.0
H1712 H 0.79452 0.6187 0.86195 0.0
H1713 H 0.6889 0.54975 0.86381 0.0
H1714 H 0.74194 0.6081 0.90249 0.0
H1715 H 0.74192 0.55763 0.84291 0.0
C1716 C 0.77082 0.57407 0.83846 0.0
C1717 C 0.78621 0.59128 0.84357 0.0
C1718 C 0.73034 0.59534 0.89371 0.0
C1719 C 0.75106 0.58527 0.86139 0.0
C1720 C 0.71295 0.59177 0.90494 0.0
C1721 C 0.69748 0.57526 0.8946 0.0
C1722 C 0.73254 0.58226 0.87229 0.0
C1723 C 0.70027 0.56271 0.87235 0.0
C1724 C 0.7534 0.57106 0.84704 0.0
C1725 C 0.78322 0.60523 0.85721 0.0
N1726 N 0.71734 0.5664 0.86229 0.0
N1727 N 0.76613 0.6019 0.86589 0.0
H1728 H 0.47931 0.12784 0.92852 0.0
H1729 H 0.50926 0.21848 0.79715 0.0
H1730 H 0.52667 0.15223 0.85115 0.0
H1731 H 0.46499 0.19633 0.88364 0.0
H1732 H 0.51491 0.19379 0.8134 0.0
H1733 H 0.47308 0.15181 0.90937 0.0
C1734 C 0.48838 0.13812 0.90717 0.0
C1735 C 0.50358 0.13778 0.89146 0.0
C1736 C 0.50394 0.19429 0.82882 0.0
C1737 C 0.49644 0.16577 0.86933 0.0
C1738 C 0.50057 0.2084 0.81933 0.0
C1739 C 0.48651 0.20973 0.83881 0.0
C1740 C 0.49317 0.18109 0.85802 0.0
C1741 C 0.47609 0.19621 0.86793 0.0
C1742 C 0.4848 0.15194 0.89635 0.0
C1743 C 0.51476 0.15174 0.86406 0.0
N1744 N 0.47959 0.18258 0.87645 0.0
N1745 N 0.51099 0.16507 0.85399 0.0
H1746 H 0.85627 0.30487 0.80292 0.0
H1747 H 0.94807 0.36707 0.92943 0.0
H1748 H 0.8801 0.28391 0.88778 0.0
H1749 H 0.92171 0.38941 0.85681 0.0
H1750 H 0.92422 0.33677 0.91092 0.0
H1751 H 0.88059 0.33555 0.81868 0.0
C1752 C 0.86664 0.3066 0.82465 0.0
C1753 C 0.86592 0.29145 0.84384 0.0
C1754 C 0.92359 0.34824 0.89884 0.0
C1755 C 0.8941 0.32707 0.86239 0.0
C1756 C 0.93734 0.3657 0.90932 0.0
C1757 C 0.93711 0.3811 0.89475 0.0
C1758 C 0.90925 0.3458 0.87328 0.0
C1759 C 0.92262 0.3781 0.86883 0.0
C1760 C 0.88053 0.32426 0.83385 0.0
C1761 C 0.87977 0.29494 0.87235 0.0
N1762 N 0.90935 0.36089 0.85901 0.0
N1763 N 0.89317 0.31222 0.88054 0.0
H1764 H 0.46396 0.28291 0.38257 0.0
H1765 H 0.52933 0.39041 0.35428 0.0
H1766 H 0.51023 0.30601 0.30172 0.0
H1767 H 0.48095 0.36648 0.42831 0.0
H1768 H 0.52276 0.35994 0.33445 0.0
H1769 H 0.47025 0.31338 0.39983 0.0
C1770 C 0.4755 0.29431 0.36847 0.0
C1771 C 0.48651 0.29156 0.34046 0.0
C1772 C 0.51353 0.36136 0.3549 0.0
C1773 C 0.49382 0.32701 0.36022 0.0
C1774 C 0.51727 0.37883 0.3662 0.0
C1775 C 0.5057 0.38125 0.39304 0.0
C1776 C 0.49812 0.34601 0.37059 0.0
C1777 C 0.49031 0.36551 0.40749 0.0
C1778 C 0.47904 0.31182 0.37823 0.0
C1779 C 0.50112 0.30718 0.32298 0.0
N1780 N 0.48705 0.34874 0.39627 0.0
N1781 N 0.50434 0.32407 0.33319 0.0
H1782 H 0.71107 0.12804 0.42985 0.0
H1783 H 0.77199 0.21991 0.30245 0.0
H1784 H 0.68814 0.15373 0.3569 0.0
H1785 H 0.79408 0.19665 0.38578 0.0
H1786 H 0.74155 0.19526 0.3187 0.0
H1787 H 0.74132 0.15206 0.41078 0.0
C1788 C 0.7123 0.13866 0.40956 0.0
C1789 C 0.69675 0.13866 0.39508 0.0
C1790 C 0.75304 0.19551 0.33342 0.0
C1791 C 0.73195 0.16668 0.37297 0.0
C1792 C 0.77057 0.2096 0.32393 0.0
C1793 C 0.78598 0.2106 0.34252 0.0
C1794 C 0.75058 0.182 0.36172 0.0
C1795 C 0.78285 0.19678 0.37078 0.0
C1796 C 0.72972 0.15249 0.39875 0.0
C1797 C 0.69956 0.15298 0.36887 0.0
N1798 N 0.76568 0.18318 0.3793 0.0
N1799 N 0.71669 0.16632 0.35879 0.0
H1800 H 0.88099 0.61393 0.39408 0.0
H1801 H 0.92777 0.5534 0.35448 0.0
H1802 H 0.86214 0.57181 0.30228 0.0
H1803 H 0.94829 0.59775 0.44062 0.0
H1804 H 0.90381 0.55986 0.33481 0.0
H1805 H 0.90541 0.60801 0.41166 0.0
C1806 C 0.88186 0.60338 0.37761 0.0
C1807 C 0.86923 0.59342 0.34644 0.0
C1808 C 0.9136 0.56825 0.35789 0.0
C1809 C 0.89766 0.58657 0.36658 0.0
C1810 C 0.92737 0.56457 0.36912 0.0
C1811 C 0.94029 0.57504 0.39925 0.0
C1812 C 0.91251 0.58248 0.37697 0.0
C1813 C 0.93882 0.58929 0.41713 0.0
C1814 C 0.89597 0.60007 0.38759 0.0
C1815 C 0.87152 0.5801 0.32607 0.0
N1816 N 0.92526 0.59251 0.40588 0.0
N1817 N 0.88529 0.57707 0.33652 0.0
H1818 H 0.71496 0.13033 0.78031 0.0
H1819 H 0.65389 0.15775 0.91855 0.0
H1820 H 0.73759 0.1752 0.86519 0.0
H1821 H 0.63193 0.11579 0.82621 0.0
H1822 H 0.68424 0.16338 0.90204 0.0
H1823 H 0.68463 0.12402 0.79918 0.0
C1824 C 0.71363 0.13882 0.80322 0.0
C1825 C 0.72912 0.15335 0.82118 0.0
C1826 C 0.6728 0.15292 0.88539 0.0
C1827 C 0.69388 0.14612 0.843 0.0
C1828 C 0.65531 0.14956 0.89502 0.0
C1829 C 0.63997 0.13616 0.87399 0.0
C1830 C 0.67528 0.14281 0.85445 0.0
C1831 C 0.64312 0.12638 0.84318 0.0
C1832 C 0.69618 0.13521 0.81389 0.0
C1833 C 0.72622 0.16383 0.85049 0.0
N1834 N 0.66025 0.12985 0.83453 0.0
N1835 N 0.70908 0.16003 0.86037 0.0
H1836 H 0.89932 0.57674 0.86573 0.0
H1837 H 0.96322 0.53333 0.83104 0.0
H1838 H 0.94672 0.60112 0.78849 0.0
H1839 H 0.91871 0.51201 0.91686 0.0
H1840 H 0.95723 0.55781 0.8143 0.0
H1841 H 0.90615 0.55301 0.88435 0.0
C1842 C 0.91126 0.57725 0.85286 0.0
C1843 C 0.92246 0.59121 0.82555 0.0
C1844 C 0.94879 0.54781 0.83688 0.0
C1845 C 0.93033 0.56359 0.8466 0.0
C1846 C 0.95214 0.53366 0.84637 0.0
C1847 C 0.94154 0.52034 0.87567 0.0
C1848 C 0.93458 0.54878 0.85643 0.0
C1849 C 0.92752 0.52193 0.89458 0.0
C1850 C 0.91514 0.56359 0.86349 0.0
C1851 C 0.93769 0.59085 0.80987 0.0
N1852 N 0.92446 0.53572 0.8846 0.0
N1853 N 0.94109 0.57733 0.82041 0.0
H1854 H 0.57036 0.42378 0.91756 0.0
H1855 H 0.47856 0.36226 0.79037 0.0
H1856 H 0.54683 0.4452 0.83311 0.0
H1857 H 0.50452 0.33955 0.86309 0.0
H1858 H 0.50253 0.39248 0.80915 0.0
H1859 H 0.5459 0.39321 0.90151 0.0
C1860 C 0.56003 0.42218 0.89587 0.0
C1861 C 0.56088 0.43742 0.87688 0.0
C1862 C 0.50303 0.38095 0.8212 0.0
C1863 C 0.53253 0.40192 0.85796 0.0
C1864 C 0.48921 0.36353 0.81057 0.0
C1865 C 0.48928 0.34805 0.8251 0.0
C1866 C 0.5173 0.38325 0.84687 0.0
C1867 C 0.50371 0.35092 0.8511 0.0
C1868 C 0.54606 0.40458 0.88649 0.0
C1869 C 0.54707 0.43409 0.8484 0.0
N1870 N 0.51705 0.36808 0.86107 0.0
N1871 N 0.53358 0.41686 0.84003 0.0
H1872 H 0.62838 0.77822 0.66657 0.0
H1873 H 0.56417 0.67065 0.69713 0.0
H1874 H 0.58287 0.75487 0.74963 0.0
H1875 H 0.61178 0.69466 0.62049 0.0
H1876 H 0.57069 0.70109 0.71702 0.0
H1877 H 0.62229 0.74781 0.64923 0.0
C1878 C 0.61705 0.76678 0.68115 0.0
C1879 C 0.60619 0.76945 0.70981 0.0
C1880 C 0.57976 0.6997 0.69599 0.0
C1881 C 0.59912 0.73407 0.68995 0.0
C1882 C 0.57606 0.68225 0.68466 0.0
C1883 C 0.58741 0.67985 0.65705 0.0
C1884 C 0.59493 0.71508 0.67957 0.0
C1885 C 0.60257 0.69562 0.6419 0.0
C1886 C 0.61363 0.74931 0.67134 0.0
C1887 C 0.59186 0.75378 0.72785 0.0
N1888 N 0.6058 0.71238 0.65317 0.0
N1889 N 0.58876 0.73693 0.71759 0.0
H1890 H 0.29798 0.86511 0.66389 0.0
H1891 H 0.40559 0.91006 0.69912 0.0
H1892 H 0.32126 0.84472 0.75175 0.0
H1893 H 0.38173 0.93217 0.61763 0.0
H1894 H 0.3751 0.88629 0.71915 0.0
H1895 H 0.32841 0.88947 0.64654 0.0
C1896 C 0.3094 0.86561 0.67954 0.0
C1897 C 0.30669 0.85256 0.70954 0.0
C1898 C 0.37652 0.89639 0.69704 0.0
C1899 C 0.34213 0.88095 0.68964 0.0
C1900 C 0.39401 0.91008 0.68564 0.0
C1901 C 0.39649 0.92337 0.65661 0.0
C1902 C 0.36115 0.89575 0.67926 0.0
C1903 C 0.38072 0.92238 0.64019 0.0
C1904 C 0.32689 0.8797 0.6697 0.0
C1905 C 0.32236 0.85442 0.72889 0.0
N1906 N 0.36391 0.9089 0.65153 0.0
N1907 N 0.33922 0.86817 0.71857 0.0
H1908 H 0.14536 0.46466 0.60872 0.0
H1909 H 0.23136 0.48873 0.75333 0.0
H1910 H 0.16606 0.50748 0.69891 0.0
H1911 H 0.21328 0.44943 0.65512 0.0
H1912 H 0.20693 0.49474 0.73649 0.0
H1913 H 0.16913 0.45804 0.62776 0.0
C1914 C 0.15479 0.47263 0.63282 0.0
C1915 C 0.15346 0.48668 0.65223 0.0
C1916 C 0.20827 0.48478 0.71862 0.0
C1917 C 0.18119 0.47908 0.67429 0.0
C1918 C 0.22223 0.4812 0.72842 0.0
C1919 C 0.22462 0.46843 0.70585 0.0
C1920 C 0.1963 0.47552 0.68596 0.0
C1921 C 0.21232 0.45951 0.67335 0.0
C1922 C 0.16849 0.46885 0.64359 0.0
C1923 C 0.16635 0.4965 0.68304 0.0
N1924 N 0.19881 0.46317 0.66458 0.0
N1925 N 0.17957 0.49253 0.69302 0.0
H1926 H 0.35383 0.88466 0.18599 0.0
H1927 H 0.46106 0.94588 0.22793 0.0
H1928 H 0.37714 0.92923 0.27166 0.0
H1929 H 0.43842 0.904 0.13546 0.0
H1930 H 0.43054 0.93979 0.24445 0.0
H1931 H 0.38444 0.89151 0.16678 0.0
C1932 C 0.36532 0.89598 0.20055 0.0
C1933 C 0.36266 0.90637 0.23049 0.0
C1934 C 0.43222 0.93194 0.22045 0.0
C1935 C 0.39811 0.91421 0.20881 0.0
C1936 C 0.44975 0.93535 0.21108 0.0
C1937 C 0.45265 0.92551 0.18006 0.0
C1938 C 0.41716 0.91845 0.19899 0.0
C1939 C 0.43716 0.9122 0.15919 0.0
C1940 C 0.38287 0.89986 0.18962 0.0
C1941 C 0.3783 0.9208 0.24833 0.0
N1942 N 0.42026 0.90906 0.16907 0.0
N1943 N 0.39517 0.9242 0.23741 0.0
H1944 H 0.13019 0.5282 0.22102 0.0
H1945 H 0.19507 0.48558 0.19147 0.0
H1946 H 0.17631 0.55101 0.13969 0.0
H1947 H 0.14739 0.46176 0.26789 0.0
H1948 H 0.18837 0.50933 0.17144 0.0
H1949 H 0.13635 0.50393 0.23826 0.0
C1950 C 0.14167 0.52824 0.20679 0.0
C1951 C 0.15268 0.54194 0.17867 0.0
C1952 C 0.17932 0.49886 0.19245 0.0
C1953 C 0.15982 0.51369 0.19839 0.0
C1954 C 0.18312 0.4852 0.20385 0.0
C1955 C 0.17181 0.47146 0.23147 0.0
C1956 C 0.16409 0.49898 0.20879 0.0
C1957 C 0.15657 0.47194 0.24651 0.0
C1958 C 0.14512 0.51422 0.21655 0.0
C1959 C 0.16719 0.54078 0.16104 0.0
N1960 N 0.15324 0.48539 0.23516 0.0
N1961 N 0.17033 0.52707 0.17123 0.0
H1962 H 0.6143 0.69988 0.27694 0.0
H1963 H 0.52788 0.63859 0.13278 0.0
H1964 H 0.59321 0.72238 0.18888 0.0
H1965 H 0.54663 0.61684 0.22822 0.0
H1966 H 0.55226 0.66897 0.15037 0.0
H1967 H 0.59056 0.66955 0.25721 0.0
C1968 C 0.60479 0.69853 0.25317 0.0
C1969 C 0.606 0.71398 0.23456 0.0
C1970 C 0.55108 0.65757 0.16747 0.0
C1971 C 0.57831 0.67874 0.2117 0.0
C1972 C 0.53715 0.64007 0.15723 0.0
C1973 C 0.53496 0.62477 0.1788 0.0
C1974 C 0.56322 0.66011 0.19958 0.0
C1975 C 0.54744 0.62799 0.21078 0.0
C1976 C 0.59111 0.68108 0.242 0.0
C1977 C 0.593 0.71104 0.20414 0.0
N1978 N 0.56091 0.64513 0.22 0.0
N1979 N 0.57981 0.69389 0.19376 0.0
H1980 H 0.14637 0.69936 0.76866 0.0
H1981 H 0.17584 0.63807 0.63805 0.0
H1982 H 0.19424 0.72209 0.69292 0.0
H1983 H 0.1319 0.61642 0.72537 0.0
H1984 H 0.18182 0.66855 0.65431 0.0
H1985 H 0.14005 0.66912 0.74974 0.0
C1986 C 0.15556 0.69809 0.74778 0.0
C1987 C 0.17093 0.71359 0.73245 0.0
C1988 C 0.17085 0.65715 0.66991 0.0
C1989 C 0.16364 0.67838 0.71052 0.0
C1990 C 0.1673 0.6396 0.66043 0.0
C1991 C 0.15323 0.62431 0.68014 0.0
C1992 C 0.16023 0.65973 0.6993 0.0
C1993 C 0.14299 0.62757 0.70948 0.0
C1994 C 0.15192 0.68067 0.73707 0.0
C1995 C 0.18222 0.71071 0.70555 0.0
N1996 N 0.14664 0.64475 0.71795 0.0
N1997 N 0.17837 0.69357 0.69554 0.0
H1998 H 0.46112 0.52988 0.72739 0.0
H1999 H 0.35366 0.48228 0.68747 0.0
H2000 H 0.43759 0.54811 0.63497 0.0
H2001 H 0.37774 0.46287 0.77562 0.0
H2002 H 0.38404 0.5062 0.6674 0.0
H2003 H 0.43081 0.50546 0.74528 0.0
C2004 C 0.44965 0.52888 0.71084 0.0
C2005 C 0.45223 0.54134 0.67943 0.0
C2006 C 0.3827 0.49666 0.69101 0.0
C2007 C 0.417 0.5129 0.69991 0.0
C2008 C 0.36528 0.48291 0.70247 0.0
C2009 C 0.36291 0.47032 0.7333 0.0
C2010 C 0.39809 0.49806 0.71052 0.0
C2011 C 0.37869 0.47209 0.7516 0.0
C2012 C 0.43225 0.51477 0.721 0.0
C2013 C 0.43657 0.53887 0.65896 0.0
N2014 N 0.39544 0.48561 0.74009 0.0
N2015 N 0.41978 0.5251 0.66957 0.0
H2016 H 0.61548 0.93038 0.76671 0.0
H2017 H 0.52498 0.90101 0.63469 0.0
H2018 H 0.59053 0.88275 0.69018 0.0
H2019 H 0.54744 0.94535 0.72105 0.0
H2020 H 0.54947 0.89508 0.65134 0.0
H2021 H 0.59172 0.93688 0.7471 0.0
C2022 C 0.6051 0.9213 0.74548 0.0
C2023 C 0.60521 0.90593 0.73015 0.0
C2024 C 0.54908 0.90613 0.66664 0.0
C2025 C 0.5775 0.91341 0.70746 0.0
C2026 C 0.53509 0.90965 0.65692 0.0
C2027 C 0.53391 0.92382 0.67625 0.0
C2028 C 0.56231 0.91685 0.69591 0.0
C2029 C 0.54745 0.93418 0.70545 0.0
C2030 C 0.59141 0.92503 0.73438 0.0
C2031 C 0.59119 0.89477 0.7028 0.0
N2032 N 0.56097 0.93053 0.71419 0.0
N2033 N 0.57798 0.8987 0.69246 0.0
H2034 H 0.32209 0.49262 0.25259 0.0
H2035 H 0.38288 0.46389 0.11749 0.0
H2036 H 0.2999 0.44873 0.16503 0.0
H2037 H 0.40578 0.51101 0.19571 0.0
H2038 H 0.35263 0.45733 0.13754 0.0
H2039 H 0.35249 0.4986 0.23525 0.0
C2040 C 0.32349 0.48408 0.22995 0.0
C2041 C 0.30808 0.47003 0.21049 0.0
C2042 C 0.36422 0.46908 0.15051 0.0
C2043 C 0.3434 0.47706 0.19002 0.0
C2044 C 0.38164 0.47285 0.13914 0.0
C2045 C 0.39717 0.48809 0.15485 0.0
C2046 C 0.362 0.48055 0.17806 0.0
C2047 C 0.39437 0.4991 0.18276 0.0
C2048 C 0.34099 0.48763 0.21984 0.0
C2049 C 0.31116 0.45981 0.18075 0.0
N2050 N 0.37724 0.49513 0.19335 0.0
N2051 N 0.3283 0.46348 0.17163 0.0
H2052 H 0.58512 0.84418 0.25299 0.0
H2053 H 0.61313 0.93352 0.11803 0.0
H2054 H 0.62768 0.86504 0.16214 0.0
H2055 H 0.56687 0.90982 0.19887 0.0
H2056 H 0.61959 0.90968 0.13699 0.0
H2057 H 0.57932 0.86878 0.2368 0.0
C2058 C 0.5934 0.85395 0.22985 0.0
C2059 C 0.60703 0.85229 0.20914 0.0
C2060 C 0.60806 0.90967 0.15081 0.0
C2061 C 0.6002 0.88084 0.19002 0.0
C2062 C 0.60435 0.92342 0.1401 0.0
C2063 C 0.58937 0.92391 0.15683 0.0
C2064 C 0.59681 0.89609 0.17876 0.0
C2065 C 0.57859 0.91019 0.18514 0.0
C2066 C 0.58995 0.86802 0.22041 0.0
C2067 C 0.61692 0.86543 0.17884 0.0
N2068 N 0.58249 0.89694 0.1951 0.0
N2069 N 0.61337 0.87903 0.17041 0.0
H2070 H 0.20668 0.77787 0.18845 0.0
H2071 H 0.17201 0.67109 0.18679 0.0
H2072 H 0.24032 0.75531 0.21959 0.0
H2073 H 0.14146 0.69344 0.13245 0.0
H2074 H 0.19584 0.70165 0.20494 0.0
H2075 H 0.18167 0.74723 0.17378 0.0
C2076 C 0.20885 0.76654 0.19251 0.0
C2077 C 0.22588 0.76944 0.20513 0.0
C2078 C 0.1839 0.69991 0.18923 0.0
C2079 C 0.197 0.73398 0.18832 0.0
C2080 C 0.17015 0.68236 0.17897 0.0
C2081 C 0.15449 0.67943 0.158 0.0
C2082 C 0.18214 0.71493 0.17884 0.0
C2083 C 0.15317 0.69484 0.1486 0.0
C2084 C 0.19452 0.74898 0.18386 0.0
C2085 C 0.22767 0.75399 0.20938 0.0
N2086 N 0.16671 0.71179 0.15904 0.0
N2087 N 0.21353 0.73712 0.20116 0.0
H2088 H 0.36865 0.23666 0.17981 0.0
H2089 H 0.39105 0.15596 0.20306 0.0
H2090 H 0.33063 0.1813 0.14878 0.0
H2091 H 0.42834 0.21137 0.23533 0.0
H2092 H 0.36892 0.16482 0.18235 0.0
H2093 H 0.39055 0.22755 0.20002 0.0
C2094 C 0.36482 0.22257 0.17736 0.0
C2095 C 0.3476 0.20979 0.16253 0.0
C2096 C 0.38196 0.17505 0.19388 0.0
C2097 C 0.37293 0.19917 0.18563 0.0
C2098 C 0.39468 0.17 0.20565 0.0
C2099 C 0.41175 0.18288 0.22103 0.0
C2100 C 0.38621 0.19318 0.19741 0.0
C2101 C 0.41546 0.20087 0.22369 0.0
C2102 C 0.37741 0.21736 0.18888 0.0
C2103 C 0.34363 0.19171 0.16007 0.0
N2104 N 0.40289 0.20542 0.21213 0.0
N2105 N 0.35612 0.18699 0.17137 0.0
H2106 H 0.89621 0.16424 0.15212 0.0
H2107 H 0.86467 0.23304 0.23419 0.0
H2108 H 0.84077 0.14826 0.17894 0.0
H2109 H 0.92031 0.24905 0.21005 0.0
H2110 H 0.85577 0.20222 0.2133 0.0
H2111 H 0.90524 0.19517 0.17271 0.0
C2112 C 0.88588 0.16715 0.16247 0.0
C2113 C 0.86762 0.15339 0.16375 0.0
C2114 C 0.86993 0.21244 0.21245 0.0
C2115 C 0.87802 0.18921 0.1874 0.0
C2116 C 0.87507 0.23016 0.22434 0.0
C2117 C 0.89335 0.24389 0.22394 0.0
C2118 C 0.88309 0.20816 0.19991 0.0
C2119 C 0.90608 0.23907 0.21087 0.0
C2120 C 0.8911 0.18491 0.1742 0.0
C2121 C 0.85499 0.15825 0.17743 0.0
N2122 N 0.90073 0.2217 0.19949 0.0
N2123 N 0.8604 0.17564 0.18859 0.0
H2124 H 0.84649 0.64895 0.23814 0.0
H2125 H 0.91468 0.74831 0.15027 0.0
H2126 H 0.8295 0.68703 0.20552 0.0
H2127 H 0.93132 0.70993 0.18261 0.0
H2128 H 0.88373 0.72633 0.17045 0.0
H2129 H 0.87732 0.67096 0.21767 0.0
C2130 C 0.84915 0.6619 0.22648 0.0
C2131 C 0.83511 0.66597 0.22362 0.0
C2132 C 0.89412 0.72268 0.17327 0.0
C2133 C 0.87095 0.69161 0.20007 0.0
C2134 C 0.91192 0.7353 0.16179 0.0
C2135 C 0.92589 0.73114 0.16469 0.0
C2136 C 0.88997 0.70557 0.18788 0.0
C2137 C 0.92118 0.71391 0.17983 0.0
C2138 C 0.86689 0.67454 0.21483 0.0
C2139 C 0.8397 0.68314 0.20826 0.0
N2140 N 0.90373 0.70185 0.19073 0.0
N2141 N 0.85713 0.69525 0.19721 0.0
H2142 H 0.22956 0.41402 0.32386 0.0
H2143 H 0.19678 0.3128 0.40079 0.0
H2144 H 0.17379 0.37491 0.34842 0.0
H2145 H 0.25274 0.35327 0.38389 0.0
H2146 H 0.18806 0.33498 0.38066 0.0
H2147 H 0.23813 0.3919 0.34499 0.0
C2148 C 0.21906 0.40082 0.33385 0.0
C2149 C 0.20085 0.39647 0.3343 0.0
C2150 C 0.20225 0.33903 0.38129 0.0
C2151 C 0.21071 0.37076 0.3585 0.0
C2152 C 0.20728 0.32631 0.39272 0.0
C2153 C 0.22559 0.33103 0.39408 0.0
C2154 C 0.21557 0.35674 0.3709 0.0
C2155 C 0.23847 0.34888 0.38334 0.0
C2156 C 0.22401 0.38813 0.34591 0.0
C2157 C 0.18798 0.37901 0.34759 0.0
N2158 N 0.23323 0.36098 0.37226 0.0
N2159 N 0.19313 0.36685 0.35898 0.0
H2160 H 0.66141 0.82982 0.32586 0.0
H2161 H 0.76336 0.89975 0.39766 0.0
H2162 H 0.7029 0.81548 0.33775 0.0
H2163 H 0.722 0.9143 0.38646 0.0
H2164 H 0.7415 0.86905 0.37553 0.0
H2165 H 0.68321 0.86062 0.3479 0.0
C2166 C 0.67507 0.83307 0.33319 0.0
C2167 C 0.68019 0.81983 0.32987 0.0
C2168 C 0.73717 0.87893 0.37782 0.0
C2169 C 0.70546 0.85544 0.3552 0.0
C2170 C 0.74971 0.89657 0.39044 0.0
C2171 C 0.74466 0.90985 0.394 0.0
C2172 C 0.71928 0.87429 0.36854 0.0
C2173 C 0.72664 0.90467 0.3842 0.0
C2174 C 0.68757 0.85075 0.34577 0.0
C2175 C 0.6982 0.82508 0.3398 0.0
N2176 N 0.71469 0.8874 0.37203 0.0
N2177 N 0.7101 0.84236 0.3519 0.0
H2178 H 0.26374 0.90119 0.35128 0.0
H2179 H 0.15983 0.82187 0.37144 0.0
H2180 H 0.24514 0.84641 0.31269 0.0
H2181 H 0.1793 0.87723 0.40648 0.0
H2182 H 0.1906 0.83026 0.34963 0.0
H2183 H 0.2329 0.89236 0.37196 0.0
C2184 C 0.25323 0.88727 0.34722 0.0
C2185 C 0.25727 0.87458 0.33011 0.0
C2186 C 0.18812 0.84058 0.36199 0.0
C2187 C 0.22146 0.86428 0.35386 0.0
C2188 C 0.17048 0.8358 0.37439 0.0
C2189 C 0.16675 0.84881 0.39089 0.0
C2190 C 0.2023 0.85855 0.36609 0.0
C2191 C 0.18132 0.86664 0.39398 0.0
C2192 C 0.23551 0.88222 0.35902 0.0
C2193 C 0.24284 0.85673 0.3257 0.0
N2194 N 0.1983 0.87092 0.38187 0.0
N2195 N 0.22569 0.85215 0.33741 0.0
H2196 H 0.72434 0.82321 0.87239 0.0
H2197 H 0.69969 0.90259 0.85575 0.0
H2198 H 0.76056 0.8784 0.90827 0.0
H2199 H 0.66381 0.84802 0.81518 0.0
H2200 H 0.72178 0.89375 0.87619 0.0
H2201 H 0.70196 0.83176 0.85176 0.0
C2202 C 0.72768 0.83713 0.87578 0.0
C2203 C 0.74453 0.85005 0.89213 0.0
C2204 C 0.70906 0.88367 0.86291 0.0
C2205 C 0.7187 0.85998 0.8687 0.0
C2206 C 0.69635 0.88872 0.85129 0.0
C2207 C 0.6797 0.8761 0.83365 0.0
C2208 C 0.70525 0.86578 0.85702 0.0
C2209 C 0.67637 0.85831 0.82864 0.0
C2210 C 0.71483 0.84201 0.86405 0.0
C2211 C 0.74787 0.86789 0.89583 0.0
N2212 N 0.68895 0.85373 0.84016 0.0
N2213 N 0.73516 0.87226 0.88437 0.0
H2214 H 0.17197 0.81209 0.84787 0.0
H2215 H 0.25403 0.91358 0.88529 0.0
H2216 H 0.22791 0.82897 0.82489 0.0
H2217 H 0.19805 0.89803 0.90186 0.0
H2218 H 0.24466 0.88257 0.86465 0.0
H2219 H 0.18112 0.84302 0.86959 0.0
C2220 C 0.18618 0.82221 0.84756 0.0
C2221 C 0.19913 0.8177 0.83445 0.0
C2222 C 0.23439 0.88591 0.87273 0.0
C2223 C 0.20977 0.85346 0.85931 0.0
C2224 C 0.23976 0.9037 0.88454 0.0
C2225 C 0.22687 0.90864 0.89537 0.0
C2226 C 0.21594 0.87269 0.87173 0.0
C2227 C 0.20854 0.89503 0.89374 0.0
C2228 C 0.1914 0.83995 0.85989 0.0
C2229 C 0.21735 0.83162 0.83468 0.0
N2230 N 0.20367 0.87779 0.88228 0.0
N2231 N 0.22207 0.84871 0.8468 0.0
H2232 H 0.16258 0.35472 0.88841 0.0
H2233 H 0.26291 0.37346 0.83916 0.0
H2234 H 0.17819 0.31414 0.89864 0.0
H2235 H 0.24721 0.41389 0.82645 0.0
H2236 H 0.23218 0.35179 0.8616 0.0
H2237 H 0.19335 0.37652 0.86618 0.0
C2238 C 0.17242 0.35032 0.88594 0.0
C2239 C 0.16759 0.33242 0.89548 0.0
C2240 C 0.23542 0.3654 0.85397 0.0
C2241 C 0.20319 0.35758 0.86995 0.0
C2242 C 0.25306 0.37785 0.84115 0.0
C2243 C 0.25785 0.39567 0.8308 0.0
C2244 C 0.22226 0.37064 0.85662 0.0
C2245 C 0.2443 0.40039 0.83407 0.0
C2246 C 0.19006 0.36285 0.87322 0.0
C2247 C 0.18112 0.3277 0.89162 0.0
N2248 N 0.22723 0.38801 0.8466 0.0
N2249 N 0.19819 0.34013 0.87927 0.0
H2250 H 0.83986 0.70988 0.68532 0.0
H2251 H 0.91866 0.68407 0.69086 0.0
H2252 H 0.89432 0.74577 0.64405 0.0
H2253 H 0.86611 0.65115 0.74539 0.0
H2254 H 0.90962 0.70606 0.6704 0.0
H2255 H 0.84883 0.68777 0.70495 0.0
C2256 C 0.85372 0.7132 0.68047 0.0
C2257 C 0.8663 0.72989 0.66301 0.0
C2258 C 0.90004 0.694 0.68676 0.0
C2259 C 0.87672 0.70431 0.68525 0.0
C2260 C 0.90518 0.68135 0.69833 0.0
C2261 C 0.89319 0.66558 0.71998 0.0
C2262 C 0.88267 0.69096 0.69659 0.0
C2263 C 0.87591 0.66302 0.72885 0.0
C2264 C 0.85885 0.7005 0.69168 0.0
C2265 C 0.88408 0.73321 0.65749 0.0
N2266 N 0.87122 0.67547 0.71718 0.0
N2267 N 0.88869 0.72061 0.66839 0.0
H2268 H 0.37005 0.14766 0.67981 0.0
H2269 H 0.39118 0.2503 0.70607 0.0
H2270 H 0.33144 0.16437 0.65002 0.0
H2271 H 0.42922 0.23278 0.73503 0.0
H2272 H 0.36925 0.21928 0.68478 0.0
H2273 H 0.39172 0.17876 0.70008 0.0
C2274 C 0.36604 0.1578 0.67765 0.0
C2275 C 0.34873 0.15316 0.66316 0.0
C2276 C 0.38242 0.22224 0.69568 0.0
C2277 C 0.3738 0.18922 0.68633 0.0
C2278 C 0.39502 0.24004 0.70775 0.0
C2279 C 0.41224 0.24439 0.72243 0.0
C2280 C 0.38694 0.20853 0.69823 0.0
C2281 C 0.41622 0.23028 0.72398 0.0
C2282 C 0.3785 0.17565 0.68919 0.0
C2283 C 0.34453 0.16712 0.66104 0.0
N2284 N 0.40377 0.21315 0.7122 0.0
N2285 N 0.3569 0.18439 0.67239 0.0
H2286 H 0.93224 0.2391 0.68264 0.0
H2287 H 0.82965 0.15775 0.71155 0.0
H2288 H 0.9141 0.18358 0.65174 0.0
H2289 H 0.84616 0.21335 0.73727 0.0
H2290 H 0.86064 0.1671 0.69085 0.0
H2291 H 0.90131 0.23015 0.70446 0.0
C2292 C 0.92185 0.22503 0.68061 0.0
C2293 C 0.92599 0.21213 0.66523 0.0
C2294 C 0.85753 0.1773 0.70094 0.0
C2295 C 0.89027 0.20174 0.69015 0.0
C2296 C 0.83973 0.17195 0.71279 0.0
C2297 C 0.83506 0.18472 0.72622 0.0
C2298 C 0.87103 0.19564 0.70251 0.0
C2299 C 0.84895 0.20295 0.72708 0.0
C2300 C 0.90411 0.21992 0.69299 0.0
C2301 C 0.91175 0.19409 0.66329 0.0
N2302 N 0.8662 0.20782 0.71552 0.0
N2303 N 0.89469 0.1895 0.67548 0.0
H2304 H 0.99652 0.51607 0.49164 0.0
H2305 H 0.09834 0.54777 0.5639 0.0
H2306 H 1.03778 0.57193 0.505 0.0
H2307 H 0.057 0.49201 0.54927 0.0
H2308 H 0.07654 0.55687 0.54261 0.0
H2309 H 1.01838 0.50713 0.51308 0.0
C2310 C 1.01015 0.52651 0.4992 0.0
C2311 C 1.01517 0.54485 0.49644 0.0
C2312 C 0.07222 0.54264 0.54398 0.0
C2313 C 1.04055 0.53457 0.52111 0.0
C2314 C 0.08472 0.5374 0.55612 0.0
C2315 C 0.07964 0.51903 0.55845 0.0
C2316 C 0.05437 0.52948 0.534 0.0
C2317 C 0.06167 0.50631 0.54798 0.0
C2318 C 1.02268 0.52135 0.51142 0.0
C2319 C 1.03316 0.55764 0.50664 0.0
N2320 N 0.04978 0.51176 0.53633 0.0
N2321 N 1.04511 0.55228 0.51841 0.0
H2322 H 0.58594 0.58165 0.53912 0.0
H2323 H 0.5051 0.47872 0.5113 0.0
H2324 H 0.53021 0.56418 0.56646 0.0
H2325 H 0.56085 0.49668 0.48289 0.0
H2326 H 0.51392 0.50966 0.53227 0.0
H2327 H 0.57696 0.55069 0.5185 0.0
C2328 C 0.57181 0.57138 0.54063 0.0
C2329 C 0.55888 0.57576 0.55457 0.0
C2330 C 0.52424 0.50682 0.52154 0.0
C2331 C 0.54841 0.53989 0.53106 0.0
C2332 C 0.5192 0.48908 0.50965 0.0
C2333 C 0.53219 0.48487 0.49525 0.0
C2334 C 0.54246 0.52065 0.51914 0.0
C2335 C 0.55027 0.49909 0.49374 0.0
C2336 C 0.56667 0.55361 0.52891 0.0
C2337 C 0.54074 0.56164 0.5559 0.0
N2338 N 0.5548 0.51619 0.5054 0.0
N2339 N 0.5361 0.54448 0.54443 0.0
H2340 H 0.59901 0.04225 0.51784 0.0
H2341 H 0.49479 1.01763 0.53145 0.0
H2342 H 0.58013 0.07805 0.47829 0.0
H2343 H 0.51333 0.98178 0.57279 0.0
H2344 H 0.52584 0.03967 0.51144 0.0
H2345 H 0.56799 1.02004 0.53822 0.0
C2346 C 0.58843 0.04554 0.51358 0.0
C2347 C 0.59243 0.06223 0.49627 0.0
C2348 C 0.52314 1.02697 0.52481 0.0
C2349 C 0.55652 0.03656 0.51948 0.0
C2350 C 0.50532 1.01429 0.5362 0.0
C2351 C 0.5012 0.99764 0.55389 0.0
C2352 C 0.5372 1.02316 0.53101 0.0
C2353 C 0.51566 0.99433 0.55926 0.0
C2354 C 0.57063 0.03277 0.52518 0.0
C2355 C 0.57791 0.06549 0.4915 0.0
N2356 N 0.53288 1.00688 0.54798 0.0
N2357 N 0.56076 0.05287 0.5029 0.0
H2358 H 0.53013 0.98132 0.07355 0.0
H2359 H 0.56122 0.07932 0.97687 0.0
H2360 H 0.58461 1.01825 0.03399 0.0
H2361 H 0.50662 0.04255 1.0159 0.0
H2362 H 0.56991 0.05729 0.99795 0.0
H2363 H 0.52129 1.00332 0.05268 0.0
C2364 C 0.54028 0.994 0.06032 0.0
C2365 C 0.55822 0.99776 0.05558 0.0
C2366 C 0.55603 0.054 1.00205 0.0
C2367 C 0.54804 1.02334 0.03158 0.0
C2368 C 0.55101 0.06666 0.99004 0.0
C2369 C 0.53308 0.06297 0.99455 0.0
C2370 C 0.5431 0.03731 1.01883 0.0
C2371 C 0.52059 0.04616 1.01182 0.0
C2372 C 0.53518 1.00663 0.04845 0.0
C2373 C 0.57063 1.01459 0.03827 0.0
N2374 N 0.52581 0.03404 1.0232 0.0
N2375 N 0.56534 1.02666 0.02704 0.0
H2376 H 1.03404 0.47776 1.01911 0.0
H2377 H 0.06227 0.58296 1.02236 0.0
H2378 H 0.99991 0.49782 0.97421 0.0
H2379 H 0.09416 0.56275 0.07965 0.0
H2380 H 1.04003 0.55205 1.0019 0.0
H2381 H 0.05663 0.50866 0.03954 0.0
C2382 C 1.0312 0.48857 1.01367 0.0
C2383 C 1.01487 0.48496 0.99491 0.0
C2384 C 0.05191 0.55435 1.01887 0.0
C2385 C 1.04096 0.52067 1.01799 0.0
C2386 C 0.06472 0.57209 0.03046 0.0
C2387 C 0.08027 0.57567 0.05283 0.0
C2388 C 0.05456 0.53988 0.02945 0.0
C2389 C 0.08246 0.56081 0.06246 0.0
C2390 C 1.04417 0.50628 1.02532 0.0
C2391 C 1.01217 0.49974 0.98863 0.0
N2392 N 0.06984 0.5437 0.05078 0.0
N2393 N 1.025 0.5168 0.99996 0.0
H2394 H 0.51259 0.54705 0.06338 0.0
H2395 H 0.58215 0.51561 0.98645 0.0
H2396 H 0.49663 0.49153 0.03829 0.0
H2397 H 0.59695 0.57134 1.00331 0.0
H2398 H 0.55113 0.50651 1.0067 0.0
H2399 H 0.54344 0.55602 0.04246 0.0
C2400 C 0.51549 0.53669 0.0533 0.0
C2401 C 0.50177 0.51843 0.05264 0.0
C2402 C 0.56115 0.52073 1.00606 0.0
C2403 C 0.53754 0.52876 0.02871 0.0
C2404 C 0.57896 0.52598 0.99458 0.0
C2405 C 0.5924 0.54434 0.99313 0.0
C2406 C 0.55652 0.53387 1.01642 0.0
C2407 C 0.5872 0.55704 1.00394 0.0
C2408 C 0.53322 0.54187 0.04137 0.0
C2409 C 0.50661 0.50575 0.03927 0.0
N2410 N 0.56979 0.55159 1.01506 0.0
N2411 N 0.524 0.51113 0.02802 0.0
H2412 H 0.34246 0.26795 0.99845 0.0
H2413 H 0.4131 0.25351 0.86418 0.0
H2414 H 0.34808 0.22175 1.02586 0.0
H2415 H 0.42053 0.3054 0.89901 0.0
H2416 H 0.38733 0.2391 0.9133 0.0
H2417 H 0.36783 0.27884 0.95093 0.0
C2418 C 0.34885 0.25987 0.99432 0.0
C2419 C 0.34282 0.2438 1.01702 0.0
C2420 C 0.39474 0.25365 0.91032 0.0
C2421 C 0.37262 0.25653 0.96079 0.0
C2422 C 0.40957 0.26194 0.88227 0.0
C2423 C 0.41934 0.28088 0.87693 0.0
C2424 C 0.38923 0.26427 0.93269 0.0
C2425 C 0.41369 0.29084 0.90141 0.0
C2426 C 0.36356 0.26625 0.96699 0.0
C2427 C 0.352 0.23416 1.00934 0.0
N2428 N 0.39914 0.28252 0.92727 0.0
N2429 N 0.36633 0.24061 0.982 0.0
H2430 H 0.81057 0.08898 0.99625 0.0
H2431 H 0.82359 0.17358 0.86217 0.0
H2432 H 0.85471 0.14161 0.02798 0.0
H2433 H 0.77224 0.12679 0.89052 0.0
H2434 H 0.83803 0.16306 0.91332 0.0
H2435 H 0.79976 0.10281 0.94682 0.0
C2436 C 0.81822 0.10351 0.99266 0.0
C2437 C 0.83368 0.11395 1.01713 0.0
C2438 C 0.82358 0.15522 0.90846 0.0
C2439 C 0.82101 0.13029 0.95877 0.0
C2440 C 0.81527 0.16128 0.87926 0.0
C2441 C 0.79648 0.15117 0.87143 0.0
C2442 C 0.81317 0.13868 0.92955 0.0
C2443 C 0.78668 0.13519 0.89475 0.0
C2444 C 0.81189 0.11146 0.96424 0.0
C2445 C 0.8428 0.13283 1.01008 0.0
N2446 N 0.79505 0.12948 0.92178 0.0
N2447 N 0.83638 0.14034 0.98171 0.0
H2448 H 0.8999 0.66951 0.86559 0.0
H2449 H 0.98832 0.73724 0.99525 0.0
H2450 H 0.94716 0.66418 0.87496 0.0
H2451 H 0.9369 0.73211 1.02563 0.0
H2452 H 0.97331 0.71227 0.94668 0.0
H2453 H 0.91226 0.6928 0.92033 0.0
C2454 C 0.91255 0.6727 0.88019 0.0
C2455 C 0.92207 0.66414 0.86642 0.0
C2456 C 0.96519 0.71653 0.96372 0.0
C2457 C 0.93702 0.69195 0.92789 0.0
C2458 C 0.97383 0.73102 0.99159 0.0
C2459 C 0.96406 0.73713 1.01523 0.0
C2460 C 0.94637 0.70778 0.95805 0.0
C2461 C 0.94519 0.72815 1.00831 0.0
C2462 C 0.91975 0.68626 0.91117 0.0
C2463 C 0.93892 0.66976 0.8853 0.0
N2464 N 0.93704 0.71409 0.98044 0.0
N2465 N 0.94582 0.68325 0.91436 0.0
H2466 H 0.24224 0.33719 0.51374 0.0
H2467 H 0.3082 0.38333 0.70999 0.0
H2468 H 0.27358 0.31726 0.57424 0.0
H2469 H 0.27775 0.40664 0.66026 0.0
H2470 H 0.29382 0.35869 0.66119 0.0
H2471 H 0.2527 0.36151 0.5664 0.0
C2472 C 0.25094 0.33759 0.5385 0.0
C2473 C 0.2568 0.32479 0.53942 0.0
C2474 C 0.2901 0.36906 0.66057 0.0
C2475 C 0.26925 0.3531 0.59982 0.0
C2476 C 0.29844 0.38338 0.68879 0.0
C2477 C 0.29447 0.39753 0.68982 0.0
C2478 C 0.27748 0.36839 0.63175 0.0
C2479 C 0.28136 0.39621 0.66116 0.0
C2480 C 0.25709 0.35166 0.56845 0.0
C2481 C 0.26849 0.32654 0.572 0.0
N2482 N 0.27349 0.38207 0.63326 0.0
N2483 N 0.27425 0.34022 0.60024 0.0
H2484 H 0.67396 0.93369 0.66628 0.0
H2485 H 0.7439 0.91985 0.52809 0.0
H2486 H 0.68003 0.88768 0.69282 0.0
H2487 H 0.7512 0.97152 0.56439 0.0
H2488 H 0.71864 0.90523 0.57851 0.0
H2489 H 0.69903 0.94464 0.61797 0.0
C2490 C 0.68039 0.92566 0.66179 0.0
C2491 C 0.67457 0.90962 0.68449 0.0
C2492 C 0.72593 0.91978 0.5756 0.0
C2493 C 0.70404 0.92244 0.62731 0.0
C2494 C 0.74048 0.92819 0.54683 0.0
C2495 C 0.74999 0.94714 0.54143 0.0
C2496 C 0.72047 0.93028 0.59867 0.0
C2497 C 0.74449 0.95697 0.56674 0.0
C2498 C 0.69493 0.93208 0.63401 0.0
C2499 C 0.6838 0.90006 0.67633 0.0
N2500 N 0.73022 0.94853 0.59329 0.0
N2501 N 0.69797 0.90656 0.64853 0.0
H2502 H 0.10445 0.79609 0.56632 0.0
H2503 H 0.1901 0.80738 0.69323 0.0
H2504 H 0.15713 0.83921 0.53125 0.0
H2505 H 0.14275 0.75634 0.6656 0.0
H2506 H 0.17921 0.82212 0.64392 0.0
H2507 H 0.11854 0.78478 0.61381 0.0
C2508 C 0.11905 0.80342 0.56879 0.0
C2509 C 0.12943 0.81875 0.54397 0.0
C2510 C 0.17132 0.80767 0.64853 0.0
C2511 C 0.14603 0.80552 0.60009 0.0
C2512 C 0.17758 0.7992 0.67671 0.0
C2513 C 0.16745 0.7804 0.68413 0.0
C2514 C 0.15455 0.79744 0.62815 0.0
C2515 C 0.15119 0.77077 0.66158 0.0
C2516 C 0.12714 0.7968 0.59608 0.0
C2517 C 0.1484 0.82743 0.54948 0.0
N2518 N 0.14528 0.77931 0.63556 0.0
N2519 N 0.15604 0.82075 0.57683 0.0
H2520 H 0.68059 0.809 0.19449 0.0
H2521 H 0.75501 0.79806 0.06757 0.0
H2522 H 0.67681 0.75805 0.16588 0.0
H2523 H 0.74489 0.84053 0.03046 0.0
H2524 H 0.72969 0.78688 0.11532 0.0
H2525 H 0.70611 0.82385 0.14476 0.0
C2526 C 0.68485 0.80086 0.17762 0.0
C2527 C 0.67625 0.78206 0.18495 0.0
C2528 C 0.73298 0.79874 0.09709 0.0
C2529 C 0.70604 0.7992 0.1286 0.0
C2530 C 0.74765 0.80528 0.06966 0.0
C2531 C 0.75239 0.82037 0.04418 0.0
C2532 C 0.72266 0.80731 0.10057 0.0
C2533 C 0.74198 0.82893 0.04921 0.0
C2534 C 0.69954 0.80939 0.14924 0.0
C2535 C 0.68279 0.77248 0.16199 0.0
N2536 N 0.7277 0.82233 0.07669 0.0
N2537 N 0.69718 0.78107 0.13583 0.0
H2538 H 0.28087 0.97247 0.06665 0.0
H2539 H 0.27039 0.88601 0.18941 0.0
H2540 H 0.24023 0.91961 1.02572 0.0
H2541 H 0.3202 0.93636 0.17478 0.0
H2542 H 0.25605 0.89671 0.13844 0.0
H2543 H 0.29161 0.95867 0.11639 0.0
C2544 C 0.27394 0.95788 0.06835 0.0
C2545 C 0.25951 0.94739 0.04125 0.0
C2546 C 0.27014 0.90532 0.14632 0.0
C2547 C 0.27213 0.93107 0.09975 0.0
C2548 C 0.2784 0.89919 0.17546 0.0
C2549 C 0.29672 0.91019 0.187 0.0
C2550 C 0.28008 0.9228 0.12903 0.0
C2551 C 0.30613 0.92723 0.16757 0.0
C2552 C 0.28025 0.94995 0.09691 0.0
C2553 C 0.25129 0.92842 0.0458 0.0
N2554 N 0.29778 0.93293 0.14045 0.0
N2555 N 0.25769 0.92092 0.07426 0.0
H2556 H 0.191 0.39781 0.1924 0.0
H2557 H 0.10488 0.32334 0.06681 0.0
H2558 H 0.14283 0.40053 0.1688 0.0
H2559 H 0.15747 0.33418 0.02713 0.0
H2560 H 0.1191 0.34821 0.11575 0.0
H2561 H 0.18013 0.37248 0.14209 0.0
C2562 C 0.1783 0.39332 0.17658 0.0
C2563 C 0.16793 0.40161 0.18543 0.0
C2564 C 0.12766 0.34518 0.09672 0.0
C2565 C 0.15509 0.37205 0.12831 0.0
C2566 C 0.11949 0.33077 0.06863 0.0
C2567 C 0.12979 0.32637 0.04208 0.0
C2568 C 0.14657 0.35561 0.09972 0.0
C2569 C 0.1488 0.3368 0.04678 0.0
C2570 C 0.17206 0.37876 0.14783 0.0
C2571 C 0.15146 0.39482 0.1637 0.0
N2572 N 0.15653 0.35087 0.07484 0.0
N2573 N 0.14559 0.38056 0.1371 0.0
H2574 H 0.81056 0.73726 0.49513 0.0
H2575 H 0.82446 0.66512 0.36544 0.0
H2576 H 0.8553 0.72987 0.52748 0.0
H2577 H 0.77274 0.65974 0.39362 0.0
H2578 H 0.8387 0.69073 0.41505 0.0
H2579 H 0.79977 0.71204 0.44717 0.0
C2580 C 0.81835 0.73051 0.49198 0.0
C2581 C 0.83397 0.736 0.51618 0.0
C2582 C 0.82422 0.6838 0.41049 0.0
C2583 C 0.82136 0.70636 0.45951 0.0
C2584 C 0.81603 0.66908 0.38215 0.0
C2585 C 0.79719 0.65994 0.3748 0.0
C2586 C 0.81364 0.68984 0.43114 0.0
C2587 C 0.78722 0.6661 0.39759 0.0
C2588 C 0.81203 0.71589 0.46441 0.0
C2589 C 0.84326 0.72637 0.50976 0.0
N2590 N 0.79548 0.68053 0.42379 0.0
N2591 N 0.83687 0.71213 0.48218 0.0
H2592 H 0.34768 0.14139 0.5233 0.0
H2593 H 0.42118 0.12938 0.39377 0.0
H2594 H 0.34471 0.09046 0.49917 0.0
H2595 H 0.41151 0.17241 0.35926 0.0
H2596 H 0.39627 0.11837 0.44264 0.0
H2597 H 0.37283 0.1558 0.47256 0.0
C2598 C 0.35207 0.13315 0.50727 0.0
C2599 C 0.34375 0.11449 0.51612 0.0
C2600 C 0.39955 0.1303 0.42472 0.0
C2601 C 0.37314 0.13117 0.4584 0.0
C2602 C 0.41398 0.13675 0.39662 0.0
C2603 C 0.41876 0.15196 0.37154 0.0
C2604 C 0.38946 0.13907 0.42931 0.0
C2605 C 0.40858 0.16071 0.37763 0.0
C2606 C 0.36654 0.14144 0.47826 0.0
C2607 C 0.35044 0.10479 0.4941 0.0
N2608 N 0.39452 0.1542 0.40575 0.0
N2609 N 0.3646 0.11316 0.46721 0.0
H2610 H 0.93594 0.22065 0.52211 0.0
H2611 H 0.94933 0.30667 0.39352 0.0
H2612 H 0.98755 0.26713 0.49388 0.0
H2613 H 0.90489 0.25445 0.36027 0.0
H2614 H 0.9602 0.29226 0.44124 0.0
H2615 H 0.92157 0.23196 0.47279 0.0
C2616 C 0.94433 0.23307 0.50546 0.0
C2617 C 0.96318 0.24281 0.5127 0.0
C2618 C 0.94799 0.28383 0.42386 0.0
C2619 C 0.94657 0.2562 0.45667 0.0
C2620 C 0.94162 0.29211 0.39642 0.0
C2621 C 0.92605 0.28196 0.37203 0.0
C2622 C 0.93877 0.26496 0.42845 0.0
C2623 C 0.91688 0.26302 0.37814 0.0
C2624 C 0.93606 0.23956 0.47727 0.0
C2625 C 0.97307 0.25896 0.48999 0.0
N2626 N 0.92331 0.25519 0.4056 0.0
N2627 N 0.96474 0.2651 0.46395 0.0
H2628 H 0.09018 0.63254 0.22126 0.0
H2629 H 1.00902 0.55117 0.35001 0.0
H2630 H 0.06797 0.57738 0.1824 0.0
H2631 H 1.01752 0.60516 0.34268 0.0
H2632 H 1.03352 0.55979 0.29847 0.0
H2633 H 0.06759 0.62234 0.27703 0.0
C2634 C 0.08105 0.61821 0.22538 0.0
C2635 C 0.08152 0.60583 0.19751 0.0
C2636 C 1.02997 0.56971 0.3083 0.0
C2637 C 0.0549 0.59388 0.26139 0.0
C2638 C 1.01589 0.56475 0.33775 0.0
C2639 C 1.01086 0.57731 0.35117 0.0
C2640 C 1.03955 0.58754 0.29269 0.0
C2641 C 1.02061 0.59481 0.3338 0.0
C2642 C 0.06787 0.61237 0.25695 0.0
C2643 C 0.06856 0.58743 0.20367 0.0
N2644 N 1.03435 0.59933 0.30626 0.0
N2645 N 0.05594 0.58205 0.2347 0.0
H2646 H 0.48062 0.42238 0.31763 0.0
H2647 H 0.49063 0.50833 0.19472 0.0
H2648 H 0.52204 0.47516 0.35722 0.0
H2649 H 0.4401 0.45958 0.21725 0.0
H2650 H 0.50542 0.49757 0.24431 0.0
H2651 H 0.4693 0.43633 0.26978 0.0
C2652 C 0.48759 0.43698 0.31607 0.0
C2653 C 0.50243 0.44741 0.34227 0.0
C2654 C 0.49107 0.48934 0.2385 0.0
C2655 C 0.48918 0.46387 0.28576 0.0
C2656 C 0.48256 0.49551 0.21015 0.0
C2657 C 0.4639 0.48497 0.20122 0.0
C2658 C 0.48101 0.47225 0.25753 0.0
C2659 C 0.45442 0.46836 0.22245 0.0
C2660 C 0.48096 0.44499 0.28857 0.0
C2661 C 0.51065 0.46639 0.33789 0.0
N2662 N 0.463 0.46257 0.24866 0.0
N2663 N 0.50398 0.47396 0.31035 0.0
H2664 H 0.6033 0.0636 0.35567 0.0
H2665 H 0.61744 0.99276 0.22034 0.0
H2666 H 0.65493 0.0689 0.32696 0.0
H2667 H 0.57141 0.99891 0.19418 0.0
H2668 H 0.62843 1.01772 0.26905 0.0
H2669 H 0.58899 0.03828 0.30536 0.0
C2670 C 0.6117 0.05969 0.33869 0.0
C2671 C 0.63054 0.06872 0.3461 0.0
C2672 C 0.61586 1.01367 0.253 0.0
C2673 C 0.61401 0.03913 0.28887 0.0
C2674 C 0.60943 0.9992 0.22499 0.0
C2675 C 0.59336 0.99342 0.20232 0.0
C2676 C 0.60624 1.02279 0.25986 0.0
C2677 C 0.58381 1.00264 0.21066 0.0
C2678 C 0.60347 0.04511 0.30995 0.0
C2679 C 0.64046 0.06262 0.32295 0.0
N2680 N 0.59033 1.01676 0.2386 0.0
N2681 N 0.63216 0.04834 0.2963 0.0
H2682 H 0.43696 0.99255 0.71748 0.0
H2683 H 0.52225 0.06325 0.85321 0.0
H2684 H 0.48912 0.9985 0.69206 0.0
H2685 H 0.47542 0.06796 0.82662 0.0
H2686 H 0.51117 0.03804 0.80257 0.0
H2687 H 0.45092 1.01738 0.76652 0.0
C2688 C 0.4514 0.99892 0.72235 0.0
C2689 C 0.46169 0.99311 0.69979 0.0
C2690 C 0.50343 0.04471 0.8077 0.0
C2691 C 0.47819 1.02236 0.75774 0.0
C2692 C 0.5098 0.05923 0.83665 0.0
C2693 C 0.49989 0.06806 0.84475 0.0
C2694 C 0.48676 0.03861 0.78708 0.0
C2695 C 0.48371 0.06183 0.82208 0.0
C2696 C 0.45945 1.01332 0.75056 0.0
C2697 C 0.48046 1.00225 0.70843 0.0
N2698 N 0.47771 0.04764 0.79519 0.0
N2699 N 0.48805 1.01631 0.73655 0.0
H2700 H 0.08422 0.46057 0.72257 0.0
H2701 H 1.01297 0.47501 0.8541 0.0
H2702 H 0.0776 0.50584 0.69132 0.0
H2703 H 1.00638 0.42315 0.82234 0.0
H2704 H 1.03864 0.48929 0.80471 0.0
H2705 H 0.05904 0.44998 0.77052 0.0
C2706 C 0.07765 0.46852 0.726 0.0
C2707 C 0.08333 0.48422 0.70208 0.0
C2708 C 1.03144 0.47477 0.80842 0.0
C2709 C 0.05373 0.47183 0.7587 0.0
C2710 C 1.01667 0.46656 0.83663 0.0
C2711 C 1.00718 0.44767 0.84291 0.0
C2712 C 1.03716 0.46414 0.78685 0.0
C2713 C 1.01302 0.43767 0.8192 0.0
C2714 C 0.06305 0.46231 0.75354 0.0
C2715 C 0.07395 0.49373 0.70884 0.0
N2716 N 1.02751 0.44594 0.79316 0.0
N2717 N 0.05971 0.48743 0.73638 0.0
H2718 H 0.57857 0.58681 0.6715 0.0
H2719 H 0.63031 0.59905 0.88907 0.0
H2720 H 0.60232 0.63523 0.74495 0.0
H2721 H 0.6203 0.5558 0.80583 0.0
H2722 H 0.61569 0.60955 0.84047 0.0
H2723 H 0.58926 0.57276 0.72274 0.0
C2724 C 0.58562 0.59438 0.6988 0.0
C2725 C 0.58924 0.61229 0.70386 0.0
C2726 C 0.61647 0.59765 0.83268 0.0
C2727 C 0.60182 0.59617 0.76301 0.0
C2728 C 0.62478 0.59152 0.86075 0.0
C2729 C 0.62658 0.57634 0.85216 0.0
C2730 C 0.60964 0.5887 0.79482 0.0
C2731 C 0.61914 0.56739 0.81439 0.0
C2732 C 0.59193 0.58637 0.72794 0.0
C2733 C 0.59895 0.6214 0.7396 0.0
N2734 N 0.6111 0.57369 0.78727 0.0
N2735 N 0.60475 0.61333 0.7674 0.0
H2736 H 0.26003 0.28771 0.32428 0.0
H2737 H 0.25074 0.21298 0.17446 0.0
H2738 H 0.22643 0.23359 0.3691 0.0
H2739 H 0.30218 0.23958 0.23642 0.0
H2740 H 0.23885 0.22546 0.22627 0.0
H2741 H 0.27324 0.27609 0.27315 0.0
C2742 C 0.2554 0.27342 0.32363 0.0
C2743 C 0.24219 0.26179 0.35211 0.0
C2744 C 0.25282 0.22876 0.22819 0.0
C2745 C 0.2569 0.24815 0.29176 0.0
C2746 C 0.2597 0.22159 0.19854 0.0
C2747 C 0.27779 0.22539 0.19981 0.0
C2748 C 0.26408 0.24032 0.2595 0.0
C2749 C 0.28845 0.23668 0.23255 0.0
C2750 C 0.26297 0.26678 0.29422 0.0
C2751 C 0.23661 0.24325 0.34841 0.0
N2752 N 0.28156 0.24383 0.26051 0.0
N2753 N 0.24376 0.23707 0.3189 0.0
H2754 H 0.86362 0.05316 0.17874 0.0
H2755 H 0.79192 1.00127 0.3607 0.0
H2756 H 0.83621 0.07762 0.23838 0.0
H2757 H 0.83834 0.9952 0.34272 0.0
H2758 H 0.80391 1.0257 0.30897 0.0
H2759 H 0.8512 1.02904 0.23074 0.0
C2760 C 0.85487 0.0535 0.20246 0.0
C2761 C 0.85086 0.06763 0.20294 0.0
C2762 C 0.81145 1.01896 0.31602 0.0
C2763 C 0.83599 0.0392 0.26337 0.0
C2764 C 0.80441 1.00473 0.34536 0.0
C2765 C 0.81375 0.99561 0.35601 0.0
C2766 C 0.82798 1.02414 0.29588 0.0
C2767 C 0.83041 1.00152 0.33568 0.0
C2768 C 0.84773 0.03958 0.23237 0.0
C2769 C 0.83937 0.06695 0.23521 0.0
N2770 N 0.83677 1.01506 0.30663 0.0
N2771 N 0.83228 0.05304 0.26349 0.0
H2772 H 1.00208 0.77319 0.23312 0.0
H2773 H 0.07288 0.85264 0.37046 0.0
H2774 H 1.02385 0.82706 0.18554 0.0
H2775 H 0.08925 0.81522 0.32876 0.0
H2776 H 0.04869 0.8405 0.31828 0.0
H2777 H 1.0273 0.78463 0.28305 0.0
C2778 C 1.01221 0.78734 0.23246 0.0
C2779 C 1.01086 0.79893 0.20348 0.0
C2780 C 0.05745 0.83481 0.32082 0.0
C2781 C 1.0395 0.81248 0.26329 0.0
C2782 C 0.07139 0.84175 0.35073 0.0
C2783 C 0.08327 0.83489 0.3552 0.0
C2784 C 0.05467 0.82032 0.29532 0.0
C2785 C 0.08034 0.82074 0.32794 0.0
C2786 C 1.0266 0.79392 0.26147 0.0
C2787 C 1.02418 0.8174 0.20653 0.0
N2788 N 0.06631 0.81382 0.29988 0.0
N2789 N 1.03762 0.82354 0.23581 0.0
H2790 H 0.86446 0.82708 0.67979 0.0
H2791 H 0.7873 0.81567 0.82794 0.0
H2792 H 0.83455 0.77457 0.73565 0.0
H2793 H 0.84175 0.85224 0.86759 0.0
H2794 H 0.79918 0.8024 0.77772 0.0
H2795 H 0.85186 0.83885 0.73148 0.0
C2796 C 0.85509 0.81787 0.70247 0.0
C2797 C 0.85041 0.79952 0.70201 0.0
C2798 C 0.8085 0.81328 0.79759 0.0
C2799 C 0.83527 0.81313 0.76148 0.0
C2800 C 0.80169 0.82084 0.82668 0.0
C2801 C 0.81336 0.83493 0.85349 0.0
C2802 C 0.82727 0.82025 0.79356 0.0
C2803 C 0.83205 0.84137 0.84829 0.0
C2804 C 0.84785 0.82469 0.73208 0.0
C2805 C 0.83817 0.78855 0.73303 0.0
N2806 N 0.83833 0.83423 0.819 0.0
N2807 N 0.83092 0.7954 0.76084 0.0
H2808 H 0.27013 0.99669 0.84881 0.0
H2809 H 0.25217 0.05353 0.6784 0.0
H2810 H 0.22069 0.99816 0.84866 0.0
H2811 H 0.30449 0.07679 0.73587 0.0
H2812 H 0.24032 1.02933 0.73029 0.0
H2813 H 0.28295 1.02154 0.79805 0.0
C2814 C 0.26185 1.002 0.83787 0.0
C2815 C 0.24416 0.99494 0.85344 0.0
C2816 C 0.25446 0.03961 0.73137 0.0
C2817 C 0.25876 1.02366 0.79374 0.0
C2818 C 0.26133 0.05357 0.70155 0.0
C2819 C 0.27965 0.06739 0.70141 0.0
C2820 C 0.26591 0.03881 0.76149 0.0
C2821 C 0.29054 0.06634 0.73302 0.0
C2822 C 0.26925 1.01638 0.8089 0.0
C2823 C 0.23432 1.00289 0.83789 0.0
N2824 N 0.28364 0.05234 0.76107 0.0
N2825 N 0.24156 1.01644 0.80888 0.0
H2826 H 1.01934 0.20855 0.68955 0.0
H2827 H 0.08473 0.2886 0.8406 0.0
H2828 H 1.00442 0.24757 0.72715 0.0
H2829 H 0.074 0.23455 0.861 0.0
H2830 H 0.05969 0.27695 0.79031 0.0
H2831 H 1.04315 0.22037 0.74244 0.0
C2832 C 1.02104 0.21968 0.70866 0.0
C2833 C 1.00965 0.22704 0.70285 0.0
C2834 C 0.0628 0.26761 0.80575 0.0
C2835 C 1.03783 0.24124 0.7639 0.0
C2836 C 0.0772 0.27432 0.83468 0.0
C2837 C 0.0817 0.26272 0.85594 0.0
C2838 C 0.05295 0.24903 0.79625 0.0
C2839 C 0.07125 0.24419 0.84587 0.0
C2840 C 1.03476 0.22645 0.73907 0.0
C2841 C 1.01286 0.24153 0.72929 0.0
N2842 N 0.05773 0.23806 0.81675 0.0
N2843 N 1.02666 0.24824 0.75794 0.0
H2844 H 0.92811 0.62402 0.65807 0.0
H2845 H 0.91836 0.53822 0.53483 0.0
H2846 H 0.89352 0.56997 0.7022 0.0
H2847 H 0.96999 0.58671 0.54283 0.0
H2848 H 0.90649 0.55066 0.58681 0.0
H2849 H 0.94127 0.61217 0.60767 0.0
C2850 C 0.92333 0.60972 0.6577 0.0
C2851 C 0.90983 0.59819 0.68579 0.0
C2852 C 0.92047 0.55863 0.5773 0.0
C2853 C 0.92433 0.58417 0.62557 0.0
C2854 C 0.92731 0.5515 0.54742 0.0
C2855 C 0.94546 0.56122 0.5342 0.0
C2856 C 0.93153 0.57606 0.59371 0.0
C2857 C 0.95612 0.57851 0.55199 0.0
C2858 C 0.93081 0.6029 0.62844 0.0
C2859 C 0.90391 0.57958 0.68183 0.0
N2860 N 0.94904 0.58539 0.58012 0.0
N2861 N 0.91097 0.57325 0.65246 0.0
H2862 H 0.49667 0.40734 0.55817 0.0
H2863 H 0.50842 0.33662 0.69445 0.0
H2864 H 0.53352 0.38968 0.51997 0.0
H2865 H 0.4544 0.3247 0.66581 0.0
H2866 H 0.52015 0.36063 0.64214 0.0
H2867 H 0.48322 0.38223 0.6083 0.0
C2868 C 0.50187 0.39817 0.55973 0.0
C2869 C 0.5161 0.40067 0.53336 0.0
C2870 C 0.50572 0.35286 0.6474 0.0
C2871 C 0.50119 0.37205 0.59328 0.0
C2872 C 0.49892 0.33902 0.67746 0.0
C2873 C 0.48022 0.32838 0.68554 0.0
C2874 C 0.49397 0.35687 0.62538 0.0
C2875 C 0.46886 0.3325 0.6618 0.0
C2876 C 0.4942 0.3838 0.58879 0.0
C2877 C 0.52254 0.38846 0.53892 0.0
N2878 N 0.47586 0.34643 0.63354 0.0
N2879 N 0.51529 0.37504 0.56816 0.0
H2880 H 0.66738 0.10547 0.56574 0.0
H2881 H 0.7515 0.19331 0.6702 0.0
H2882 H 0.69037 0.15876 0.51392 0.0
H2883 H 0.74125 0.13971 0.69504 0.0
H2884 H 0.7273 0.18085 0.61798 0.0
H2885 H 0.6921 0.11726 0.61705 0.0
C2886 C 0.67761 0.1196 0.56474 0.0
C2887 C 0.67666 0.13095 0.53443 0.0
C2888 C 0.73041 0.17175 0.63447 0.0
C2889 C 0.70509 0.14489 0.59495 0.0
C2890 C 0.74434 0.1789 0.66447 0.0
C2891 C 0.74911 0.16773 0.6866 0.0
C2892 C 0.72045 0.153 0.62678 0.0
C2893 C 0.73882 0.14905 0.67789 0.0
C2894 C 0.69177 0.12639 0.59441 0.0
C2895 C 0.69033 0.14932 0.53617 0.0
N2896 N 0.72507 0.14234 0.64921 0.0
N2897 N 0.70369 0.15562 0.56561 0.0
H2898 H 0.49933 0.16479 0.22489 0.0
H2899 H 0.51221 0.14862 0.98844 0.0
H2900 H 0.46312 0.16586 0.13425 0.0
H2901 H 0.51627 0.11482 0.081 0.0
H2902 H 0.49872 0.15952 0.04015 0.0
H2903 H 0.51008 0.1511 0.1733 0.0
C2904 C 0.49358 0.16216 0.19417 0.0
C2905 C 0.48012 0.16654 0.18449 0.0
C2906 C 0.5025 0.14968 0.04925 0.0
C2907 C 0.49306 0.1512 0.12386 0.0
C2908 C 0.51028 0.14342 1.01961 0.0
C2909 C 0.51544 0.13059 0.0298 0.0
C2910 C 0.50034 0.14375 0.09052 0.0
C2911 C 0.51249 0.12456 0.07118 0.0
C2912 C 0.49975 0.15427 0.1646 0.0
C2913 C 0.47337 0.16271 0.14368 0.0
N2914 N 0.50551 0.13135 0.09983 0.0
N2915 N 0.48007 0.15562 0.11503 0.0
H2916 H 0.92542 0.31954 0.15317 0.0
H2917 H 0.9176 0.39238 1.02304 0.0
H2918 H 0.89599 0.34305 0.20722 0.0
H2919 H 0.9717 0.406 0.05632 0.0
H2920 H 0.90581 0.36847 0.07575 0.0
H2921 H 0.93922 0.34482 0.10379 0.0
C2922 C 0.92207 0.3301 0.15554 0.0
C2923 C 0.90989 0.32919 0.18621 0.0
C2924 C 0.92027 0.37659 0.07132 0.0
C2925 C 0.92485 0.35792 0.12662 0.0
C2926 C 0.92711 0.39036 0.04107 0.0
C2927 C 0.94586 0.40141 0.0341 0.0
C2928 C 0.93206 0.37308 0.0946 0.0
C2929 C 0.95723 0.39781 0.05923 0.0
C2930 C 0.92984 0.34452 0.12669 0.0
C2931 C 0.9054 0.34302 0.18492 0.0
N2932 N 0.95021 0.38392 0.08758 0.0
N2933 N 0.9126 0.35648 0.15571 0.0
H2934 H 0.73935 0.56956 0.2018 0.0
H2935 H 0.68099 0.58841 0.03532 0.0
H2936 H 0.75779 0.62348 0.15799 0.0
H2937 H 0.68226 0.53893 0.03633 0.0
H2938 H 0.7056 0.60116 0.0868 0.0
H2939 H 0.71552 0.55786 0.14902 0.0
C2940 C 0.73844 0.57906 0.18128 0.0
C2941 C 0.75082 0.59771 0.1853 0.0
C2942 C 0.70045 0.58747 0.07601 0.0
C2943 C 0.72269 0.5841 0.1241 0.0
C2944 C 0.68618 0.5801 0.04669 0.0
C2945 C 0.6791 0.56241 0.03127 0.0
C2946 C 0.70766 0.57698 0.09147 0.0
C2947 C 0.68699 0.55256 0.04704 0.0
C2948 C 0.7247 0.57227 0.15092 0.0
C2949 C 0.74859 0.60908 0.15715 0.0
N2950 N 0.70049 0.5598 0.07625 0.0
N2951 N 0.73483 0.60218 0.12838 0.0
H2952 H 0.5933 0.89613 0.82658 0.0
H2953 H 0.57862 0.91144 0.06273 0.0
H2954 H 0.62789 0.89347 0.91933 0.0
H2955 H 0.57523 0.94538 0.96951 0.0
H2956 H 0.59238 0.90054 1.01173 0.0
H2957 H 0.58236 0.90982 0.87766 0.0
C2958 C 0.59865 0.8984 0.85767 0.0
C2959 C 0.61171 0.89356 0.86811 0.0
C2960 C 0.58868 0.9104 1.00232 0.0
C2961 C 0.59854 0.90893 0.92809 0.0
C2962 C 0.58074 0.91666 0.03156 0.0
C2963 C 0.57568 0.92952 1.02096 0.0
C2964 C 0.59111 0.91638 0.96106 0.0
C2965 C 0.5789 0.93559 0.97961 0.0
C2966 C 0.59237 0.9063 0.88694 0.0
C2967 C 0.61796 0.89697 0.90934 0.0
N2968 N 0.58604 0.92881 0.95136 0.0
N2969 N 0.61117 0.90408 0.93765 0.0
H2970 H 0.17657 0.67086 0.03412 0.0
H2971 H 0.1671 0.74195 0.90137 0.0
H2972 H 0.12251 0.65413 0.99371 0.0
H2973 H 0.19864 0.72031 0.84954 0.0
H2974 H 0.1536 0.71646 0.95045 0.0
H2975 H 0.18828 0.69525 0.98256 0.0
C2976 C 0.16705 0.67227 1.01471 0.0
C2977 C 0.14833 0.66018 1.01922 0.0
C2978 C 0.16339 0.71725 0.9281 0.0
C2979 C 0.16193 0.68902 0.96014 0.0
C2980 C 0.17101 0.73177 0.8995 0.0
C2981 C 0.1837 0.73325 0.86956 0.0
C2982 C 0.16902 0.70432 0.92857 0.0
C2983 C 0.18883 0.71989 0.87129 0.0
C2984 C 0.17383 0.68632 0.98516 0.0
C2985 C 0.13693 0.66304 0.99244 0.0
N2986 N 0.18174 0.70632 0.9002 0.0
N2987 N 0.14382 0.67718 0.9648 0.0
H2988 H 0.42657 0.48678 0.9832 0.0
H2989 H 0.34579 0.49226 0.8721 0.0
H2990 H 0.40294 0.51575 0.03913 0.0
H2991 H 0.34656 0.44253 0.8705 0.0
H2992 H 0.37029 0.50428 0.92376 0.0
H2993 H 0.4013 0.47338 0.93348 0.0
C2994 C 0.41602 0.49017 0.98572 0.0
C2995 C 0.41688 0.50211 1.01697 0.0
C2996 C 0.3651 0.49069 0.91226 0.0
C2997 C 0.38811 0.48753 0.95731 0.0
C2998 C 0.35103 0.48376 0.88258 0.0
C2999 C 0.34363 0.46606 0.86696 0.0
C3000 C 0.37263 0.48022 0.92588 0.0
C3001 C 0.35139 0.45598 0.88194 0.0
C3002 C 0.4016 0.48262 0.95675 0.0
C3003 C 0.40301 0.50655 1.0163 0.0
N3004 N 0.36545 0.46317 0.90985 0.0
N3005 N 0.38951 0.49949 0.98714 0.0
H3006 H 0.17425 0.52732 0.51019 0.0
H3007 H 0.17076 0.44072 0.40509 0.0
H3008 H 0.12669 0.47518 0.52122 0.0
H3009 H 0.19805 0.49279 0.34647 0.0
H3010 H 0.15729 0.45248 0.4548 0.0
H3011 H 0.1862 0.51487 0.4584 0.0
C3012 C 0.16618 0.51324 0.50164 0.0
C3013 C 0.14908 0.50245 0.51986 0.0
C3014 C 0.16616 0.46132 0.43094 0.0
C3015 C 0.16321 0.48769 0.46085 0.0
C3016 C 0.17376 0.45452 0.40201 0.0
C3017 C 0.18526 0.46547 0.37007 0.0
C3018 C 0.17057 0.47957 0.42952 0.0
C3019 C 0.18921 0.48362 0.3699 0.0
C3020 C 0.17307 0.5061 0.47191 0.0
C3021 C 0.13958 0.48418 0.50747 0.0
N3022 N 0.1821 0.49003 0.39896 0.0
N3023 N 0.14676 0.47738 0.47941 0.0
H3024 H 0.63451 0.7304 0.36784 0.0
H3025 H 0.56025 0.67423 0.54133 0.0
H3026 H 0.58518 0.73183 0.37642 0.0
H3027 H 0.59075 0.65228 0.48536 0.0
H3028 H 0.57245 0.69852 0.48977 0.0
H3029 H 0.62264 0.7056 0.41871 0.0
C3030 C 0.62135 0.72579 0.38089 0.0
C3031 C 0.61115 0.73368 0.36781 0.0
C3032 C 0.57664 0.6885 0.48888 0.0
C3033 C 0.5971 0.70486 0.42707 0.0
C3034 C 0.56963 0.67449 0.51852 0.0
C3035 C 0.57457 0.66102 0.51893 0.0
C3036 C 0.58919 0.68966 0.45913 0.0
C3037 C 0.58685 0.66244 0.48783 0.0
C3038 C 0.61442 0.71139 0.40975 0.0
C3039 C 0.59376 0.72645 0.38536 0.0
N3040 N 0.59381 0.67645 0.45984 0.0
N3041 N 0.58748 0.71281 0.41411 0.0
H3042 H 0.39437 0.9106 0.56066 0.0
H3043 H 0.36458 0.89496 0.3241 0.0
H3044 H 0.43179 0.94448 0.46737 0.0
H3045 H 0.32701 0.89129 0.41721 0.0
H3046 H 0.38924 0.90901 0.37512 0.0
H3047 H 0.36976 0.89943 0.50946 0.0
C3048 C 0.3975 0.91574 0.52942 0.0
C3049 C 0.41544 0.92866 0.51887 0.0
C3050 C 0.37563 0.90519 0.38449 0.0
C3051 C 0.3869 0.91523 0.45875 0.0
C3052 C 0.36142 0.89708 0.35525 0.0
C3053 C 0.34343 0.89184 0.3658 0.0
C3054 C 0.37202 0.90763 0.42573 0.0
C3055 C 0.34052 0.89507 0.40712 0.0
C3056 C 0.38332 0.90933 0.50007 0.0
C3057 C 0.41832 0.93465 0.47744 0.0
N3058 N 0.35445 0.90239 0.43538 0.0
N3059 N 0.40441 0.92773 0.44909 0.0
H3060 H 0.32221 0.33366 0.22881 0.0
H3061 H 0.34517 0.39118 0.04258 0.0
H3062 H 0.2959 0.31406 0.11137 0.0
H3063 H 0.36039 0.41254 0.16588 0.0
H3064 H 0.31799 0.36552 0.07021 0.0
H3065 H 0.32542 0.36293 0.21388 0.0
C3066 C 0.31638 0.33528 0.2006 0.0
C3067 C 0.30971 0.32181 0.17022 0.0
C3068 C 0.32696 0.37604 0.09128 0.0
C3069 C 0.31417 0.35546 0.15193 0.0
C3070 C 0.34252 0.39076 0.07537 0.0
C3071 C 0.35547 0.40348 0.10228 0.0
C3072 C 0.32473 0.37386 0.13435 0.0
C3073 C 0.35115 0.40245 0.14435 0.0
C3074 C 0.31835 0.35211 0.1918 0.0
C3075 C 0.30201 0.32451 0.13466 0.0
N3076 N 0.33642 0.38757 0.15931 0.0
N3077 N 0.30509 0.34129 0.12565 0.0
H3078 H 0.68299 0.96457 0.04089 0.0
H3079 H 0.74251 1.00317 0.22595 0.0
H3080 H 0.66352 0.96103 0.16524 0.0
H3081 H 0.76141 0.99946 0.10507 0.0
H3082 H 0.71389 0.97604 0.21165 0.0
H3083 H 0.70951 0.96452 0.06793 0.0
C3084 C 0.684 0.9632 0.07386 0.0
C3085 C 0.67158 0.9638 0.10106 0.0
C3086 C 0.72446 0.98072 0.18861 0.0
C3087 C 0.70219 0.96445 0.13233 0.0
C3088 C 0.74092 0.99622 0.197 0.0
C3089 C 0.75393 1.00401 0.16581 0.0
C3090 C 0.72095 0.97352 0.14838 0.0
C3091 C 0.75128 0.99427 0.12917 0.0
C3092 C 0.69922 0.96322 0.08942 0.0
C3093 C 0.67336 0.96158 0.14337 0.0
N3094 N 0.73481 0.97984 0.12081 0.0
N3095 N 0.68872 0.9626 0.15787 0.0
H3096 H 0.06476 0.76441 0.03533 0.0
H3097 H 0.13165 0.73064 0.082 0.0
H3098 H 0.0812 0.7557 0.15502 0.0
H3099 H 0.10517 0.72546 0.96534 0.0
H3100 H 0.12684 0.75545 0.10021 0.0
H3101 H 0.09131 0.76523 1.00489 0.0
C3102 C 0.07414 0.76303 0.05535 0.0
C3103 C 0.07032 0.7591 0.09748 0.0
C3104 C 0.12268 0.74937 0.06993 0.0
C3105 C 0.10077 0.76031 0.06295 0.0
C3106 C 0.12557 0.73524 0.05926 0.0
C3107 C 0.11789 0.72535 1.02297 0.0
C3108 C 0.11182 0.75328 0.04442 0.0
C3109 C 0.1105 0.73221 0.99455 0.0
C3110 C 0.08939 0.76371 0.038 0.0
C3111 C 0.08335 0.7583 0.12224 0.0
N3112 N 0.10701 0.74537 1.00649 0.0
N3113 N 0.09776 0.75842 0.10443 0.0
H3114 H 0.41166 0.329 0.42613 0.0
H3115 H 0.34682 0.32308 0.25662 0.0
H3116 H 0.42433 0.36681 0.32636 0.0
H3117 H 0.3332 0.28788 0.36222 0.0
H3118 H 0.37777 0.32911 0.26098 0.0
H3119 H 0.38758 0.30566 0.38428 0.0
C3120 C 0.40968 0.33228 0.39499 0.0
C3121 C 0.41937 0.35006 0.38036 0.0
C3122 C 0.36785 0.31957 0.28235 0.0
C3123 C 0.39163 0.32357 0.33275 0.0
C3124 C 0.35013 0.31616 0.27995 0.0
C3125 C 0.33764 0.30595 0.31084 0.0
C3126 C 0.37303 0.31302 0.31635 0.0
C3127 C 0.34248 0.29652 0.33872 0.0
C3128 C 0.39593 0.31893 0.37103 0.0
C3129 C 0.4165 0.35345 0.33953 0.0
N3130 N 0.35998 0.3008 0.34179 0.0
N3131 N 0.40256 0.34045 0.31751 0.0
H3132 H 0.75149 0.04184 0.2883 0.0
H3133 H 0.72407 0.09542 0.34717 0.0
H3134 H 0.79764 0.06784 0.36964 0.0
H3135 H 0.74802 0.08905 0.45844 0.0
H3136 H 0.74796 0.09483 0.30682 0.0
H3137 H 0.74774 0.06772 0.29347 0.0
C3138 C 0.76135 0.05321 0.30615 0.0
C3139 C 0.77405 0.05192 0.3313 0.0
C3140 C 0.74823 0.09404 0.34015 0.0
C3141 C 0.76931 0.08166 0.3384 0.0
C3142 C 0.73457 0.09428 0.36318 0.0
C3143 C 0.73355 0.09127 0.40597 0.0
C3144 C 0.76065 0.09047 0.36018 0.0
C3145 C 0.74795 0.09081 0.42538 0.0
C3146 C 0.75917 0.06823 0.30908 0.0
C3147 C 0.78666 0.06758 0.35243 0.0
N3148 N 0.76067 0.08988 0.40219 0.0
N3149 N 0.78341 0.08146 0.35734 0.0
H3150 H 1.01005 0.72465 0.44434 0.0
H3151 H 0.96184 0.64888 0.53979 0.0
H3152 H 1.0415 0.74748 0.55482 0.0
H3153 H 1.012 0.67015 0.60731 0.0
H3154 H 0.96713 0.67956 0.53272 0.0
H3155 H 0.98679 0.70042 0.48523 0.0
C3156 C 1.01175 0.72493 0.47751 0.0
C3157 C 1.02806 0.73758 0.49602 0.0
C3158 C 0.97673 0.67738 0.54988 0.0
C3159 C 1.00152 0.70978 0.5433 0.0
C3160 C 0.97378 0.65986 0.55386 0.0
C3161 C 0.98733 0.65703 0.57078 0.0
C3162 C 0.99323 0.69192 0.56334 0.0
C3163 C 1.00159 0.67155 0.59177 0.0
C3164 C 0.99834 0.71108 0.50113 0.0
C3165 C 1.02944 0.73744 0.53914 0.0
N3166 N 1.00446 0.68847 0.58629 0.0
N3167 N 1.01661 0.7234 0.56119 0.0
H3168 H 0.74973 0.65129 0.03094 0.0
H3169 H 0.76332 0.74726 0.05961 0.0
H3170 H 0.71961 0.66714 0.11068 0.0
H3171 H 0.77756 0.72688 0.95287 0.0
H3172 H 0.76231 0.72289 0.10088 0.0
H3173 H 0.77413 0.68267 0.02896 0.0
C3174 C 0.74843 0.66119 0.04916 0.0
C3175 C 0.73195 0.65682 0.06817 0.0
C3176 C 0.76626 0.72413 0.06875 0.0
C3177 C 0.75992 0.69243 0.06697 0.0
C3178 C 0.76663 0.73788 0.04509 0.0
C3179 C 0.76965 0.7385 1.00239 0.0
C3180 C 0.7686 0.71078 0.04932 0.0
C3181 C 0.77466 0.72657 0.98547 0.0
C3182 C 0.76247 0.67909 0.04825 0.0
C3183 C 0.73162 0.66991 0.09373 0.0
N3184 N 0.77347 0.71284 1.00877 0.0
N3185 N 0.74516 0.6873 0.09128 0.0
H3186 H 0.33265 0.06434 0.84045 0.0
H3187 H 0.40787 0.09412 0.9413 0.0
H3188 H 0.35357 0.03335 0.78126 0.0
H3189 H 0.43042 0.08061 0.83759 0.0
H3190 H 0.38408 0.09224 0.8968 0.0
H3191 H 0.36351 0.08952 0.84732 0.0
C3192 C 0.34361 0.06287 0.82815 0.0
C3193 C 0.34057 0.04604 0.81382 0.0
C3194 C 0.39462 0.09046 0.88302 0.0
C3195 C 0.37569 0.07474 0.82116 0.0
C3196 C 0.40817 0.09141 0.90872 0.0
C3197 C 0.42056 0.08671 0.89336 0.0
C3198 C 0.39341 0.08448 0.84198 0.0
C3199 C 0.42056 0.08355 0.85089 0.0
C3200 C 0.36124 0.0773 0.83207 0.0
C3201 C 0.35511 0.04557 0.79489 0.0
N3202 N 0.40685 0.08197 0.82689 0.0
N3203 N 0.37213 0.05951 0.80034 0.0
H3204 H 0.98426 0.33125 0.91835 0.0
H3205 H 1.01311 0.28332 0.82418 0.0
H3206 H 1.00642 0.3705 0.82042 0.0
H3207 H 0.04932 0.33491 0.76873 0.0
H3208 H 0.98978 0.2918 0.827 0.0
H3209 H 0.98645 0.30949 0.87429 0.0
C3210 C 0.98905 0.33509 0.887 0.0
C3211 C 0.99588 0.3529 0.87356 0.0
C3212 C 1.00275 0.30112 0.81355 0.0
C3213 C 0.99844 0.32803 0.82249 0.0
C3214 C 1.01607 0.29625 0.81167 0.0
C3215 C 1.03373 0.30903 0.79951 0.0
C3216 C 1.00731 0.31883 0.80312 0.0
C3217 C 1.03629 0.3249 0.78059 0.0
C3218 C 0.99018 0.32256 0.86148 0.0
C3219 C 1.00175 0.3571 0.83255 0.0
N3220 N 1.02342 0.32963 0.78431 0.0
N3221 N 1.00335 0.34491 0.80884 0.0
H3222 H 0.74176 0.75942 0.70481 0.0
H3223 H 0.68323 0.73072 0.52113 0.0
H3224 H 0.76172 0.77706 0.58145 0.0
H3225 H 0.66308 0.72518 0.64531 0.0
H3226 H 0.71036 0.75831 0.54118 0.0
H3227 H 0.71402 0.75896 0.6865 0.0
C3228 C 0.74059 0.76381 0.67421 0.0
C3229 C 0.75359 0.76721 0.64382 0.0
C3230 C 0.6998 0.75146 0.56393 0.0
C3231 C 0.7215 0.76589 0.62206 0.0
C3232 C 0.68419 0.73567 0.55228 0.0
C3233 C 0.67136 0.7252 0.58216 0.0
C3234 C 0.70276 0.75628 0.60595 0.0
C3235 C 0.67318 0.73245 0.62188 0.0
C3236 C 0.72463 0.76348 0.66359 0.0
C3237 C 0.7515 0.77328 0.60509 0.0
N3238 N 0.68893 0.74724 0.63308 0.0
N3239 N 0.73543 0.77177 0.59475 0.0
H3240 H 0.3532 0.95198 0.64655 0.0
H3241 H 0.29854 0.99979 0.59678 0.0
H3242 H 0.34561 0.96948 0.52716 0.0
H3243 H 0.32618 1.00256 0.71025 0.0
H3244 H 0.29929 0.97249 0.57797 0.0
H3245 H 0.3272 0.95359 0.67247 0.0
C3246 C 0.34572 0.95561 0.62542 0.0
C3247 C 0.35217 0.96165 0.58533 0.0
C3248 C 0.30446 0.97865 0.60781 0.0
C3249 C 0.32243 0.96321 0.61457 0.0
C3250 C 0.30417 0.99428 0.61845 0.0
C3251 C 0.31312 1.0039 0.6542 0.0
C3252 C 0.31383 0.97279 0.63308 0.0
C3253 C 0.3195 0.99583 0.68195 0.0
C3254 C 0.33079 0.95635 0.64016 0.0
C3255 C 0.34149 0.96531 0.5587 0.0
N3256 N 0.32022 0.98098 0.67025 0.0
N3257 N 0.32741 0.96657 0.57416 0.0
H3258 H 0.078 0.39723 0.42516 0.0
H3259 H 0.07972 0.33464 0.58343 0.0
H3260 H 0.12563 0.40991 0.49622 0.0
H3261 H 1.03774 0.31919 0.49224 0.0
H3262 H 0.1011 0.35759 0.53624 0.0
H3263 H 0.06928 0.36577 0.42707 0.0
C3264 C 0.08706 0.39362 0.44014 0.0
C3265 C 0.10179 0.40617 0.46386 0.0
C3266 C 0.08733 0.34889 0.52598 0.0
C3267 C 0.09119 0.36981 0.46794 0.0
C3268 C 0.0751 0.3358 0.55307 0.0
C3269 C 0.05678 0.32559 0.54239 0.0
C3270 C 0.08106 0.35197 0.48842 0.0
C3271 C 0.0516 0.32741 0.50242 0.0
C3272 C 0.0819 0.37541 0.44153 0.0
C3273 C 0.11326 0.40046 0.48058 0.0
N3274 N 0.06357 0.34067 0.47727 0.0
N3275 N 0.10727 0.38253 0.48424 0.0
H3276 H 0.99449 0.60406 0.78089 0.0
H3277 H 0.0731 0.66178 0.84971 0.0
H3278 H 1.01614 0.63692 0.67208 0.0
H3279 H 0.0946 0.67124 0.72603 0.0
H3280 H 0.04714 0.63405 0.82657 0.0
H3281 H 1.02449 0.60859 0.79616 0.0
C3282 C 1.00541 0.6117 0.75939 0.0
C3283 C 1.0031 0.62105 0.7265 0.0
C3284 C 0.05779 0.64166 0.80455 0.0
C3285 C 1.03732 0.62675 0.74444 0.0
C3286 C 0.07271 0.6577 0.81791 0.0
C3287 C 0.08563 0.66928 0.78935 0.0
C3288 C 0.05564 0.63744 0.76216 0.0
C3289 C 0.08444 0.66311 0.74866 0.0
C3290 C 1.02257 0.61442 0.76834 0.0
C3291 C 1.0174 0.62998 0.69857 0.0
N3292 N 0.06938 0.64792 0.73593 0.0
N3293 N 1.0341 0.63315 0.70893 0.0
H3294 H 0.44149 0.39507 0.82213 0.0
H3295 H 0.37287 0.39235 0.97009 0.0
H3296 H 0.41011 0.35101 0.90554 0.0
H3297 H 0.41131 0.4408 0.9064 0.0
H3298 H 0.39476 0.38245 0.97103 0.0
H3299 H 0.43906 0.41565 0.87022 0.0
C3300 C 0.43442 0.38977 0.85101 0.0
C3301 C 0.4253 0.37117 0.85902 0.0
C3302 C 0.39868 0.3955 0.95765 0.0
C3303 C 0.4222 0.39461 0.91399 0.0
C3304 C 0.38612 0.40133 0.95743 0.0
C3305 C 0.38964 0.41673 0.93469 0.0
C3306 C 0.41445 0.40485 0.93388 0.0
C3307 C 0.40746 0.42802 0.9211 0.0
C3308 C 0.43307 0.40156 0.87863 0.0
C3309 C 0.4166 0.36514 0.89723 0.0
N3310 N 0.41896 0.42144 0.91892 0.0
N3311 N 0.41488 0.37674 0.92282 0.0
H3312 H 0.70021 0.05785 0.62669 0.0
H3313 H 0.64826 0.97616 0.69083 0.0
H3314 H 0.67593 0.07748 0.71408 0.0
H3315 H 0.65512 1.00632 0.80267 0.0
H3316 H 0.64898 1.00079 0.65101 0.0
H3317 H 0.67509 1.02777 0.63543 0.0
C3318 C 0.68924 0.05607 0.64647 0.0
C3319 C 0.69083 0.07012 0.67176 0.0
C3320 C 0.64994 1.00183 0.68433 0.0
C3321 C 0.66204 0.03529 0.68294 0.0
C3322 C 0.64957 0.98783 0.70705 0.0
C3323 C 0.65256 0.98966 0.74987 0.0
C3324 C 0.65365 1.01781 0.70467 0.0
C3325 C 0.65332 1.00459 0.76959 0.0
C3326 C 0.6747 0.03866 0.65156 0.0
C3327 C 0.67584 0.06679 0.69602 0.0
N3328 N 0.65436 1.01835 0.74668 0.0
N3329 N 0.66246 0.04955 0.70262 0.0
H3330 H 0.44797 0.05936 0.21614 0.0
H3331 H 0.41018 0.99438 0.39821 0.0
H3332 H 0.44186 0.07185 0.3424 0.0
H3333 H 0.4118 0.97835 0.27276 0.0
H3334 H 0.43638 1.02363 0.38416 0.0
H3335 H 0.44815 0.03247 0.24069 0.0
C3336 C 0.44696 0.05669 0.24898 0.0
C3337 C 0.44408 0.06758 0.27689 0.0
C3338 C 0.43137 1.01357 0.35987 0.0
C3339 C 0.4447 0.03706 0.3052 0.0
C3340 C 0.41642 0.99672 0.36806 0.0
C3341 C 0.40806 0.9844 0.33571 0.0
C3342 C 0.43735 1.01817 0.31888 0.0
C3343 C 0.41718 0.98802 0.2978 0.0
C3344 C 0.44736 0.04147 0.26303 0.0
C3345 C 0.44382 0.0639 0.31926 0.0
N3346 N 0.43091 1.00493 0.28974 0.0
N3347 N 0.44373 0.04879 0.33192 0.0
H3348 H 0.99772 0.3997 0.28299 0.0
H3349 H 0.09899 0.43971 0.22946 0.0
H3350 H 1.02036 0.39324 0.16958 0.0
H3351 H 0.07481 0.42672 0.35052 0.0
H3352 H 0.07238 0.44009 0.20325 0.0
H3353 H 1.02682 0.42625 0.29924 0.0
C3354 C 1.00861 0.4042 0.26082 0.0
C3355 C 1.007 0.39359 0.22618 0.0
C3356 C 0.07323 0.43788 0.23589 0.0
C3357 C 1.04001 0.42396 0.24426 0.0
C3358 C 0.08831 0.4375 0.2508 0.0
C3359 C 0.08858 0.43219 0.29166 0.0
C3360 C 0.05835 0.43271 0.26202 0.0
C3361 C 0.07487 0.43027 0.31845 0.0
C3362 C 1.02515 0.41944 0.26999 0.0
C3363 C 1.02116 0.40058 0.19746 0.0
N3364 N 0.05999 0.42998 0.30285 0.0
N3365 N 1.03731 0.41506 0.20776 0.0
H3366 H 0.68218 0.69969 0.45891 0.0
H3367 H 0.68108 0.63495 0.30151 0.0
H3368 H 0.63496 0.66459 0.3867 0.0
H3369 H 0.7232 0.66271 0.39184 0.0
H3370 H 0.65963 0.63654 0.34848 0.0
H3371 H 0.69109 0.67709 0.45732 0.0
C3372 C 0.67325 0.68703 0.44371 0.0
C3373 C 0.65859 0.68477 0.41961 0.0
C3374 C 0.67345 0.64188 0.3586 0.0
C3375 C 0.66942 0.65918 0.41595 0.0
C3376 C 0.68573 0.64102 0.33164 0.0
C3377 C 0.70409 0.64945 0.34212 0.0
C3378 C 0.67971 0.65156 0.39581 0.0
C3379 C 0.7093 0.65681 0.38181 0.0
C3380 C 0.67852 0.67405 0.44251 0.0
C3381 C 0.64728 0.66758 0.40263 0.0
N3382 N 0.69727 0.65809 0.40681 0.0
N3383 N 0.65339 0.65574 0.39922 0.0
loop_
_geom_bond_atom_site_label_1
_geom_bond_atom_site_label_2
_geom_bond_distance
_geom_bond_site_symmetry_2
_ccdc_geom_bond_type
Tb0 C2 2.809 . S
Tb0 O20 2.484 . S
Tb0 O21 2.440 . S
Tb0 O22 2.658 . S
Tb0 O23 2.409 . S
Tb0 O24 2.378 . S
Tb0 O28 2.325 . S
Tb0 O31 2.341 . S
Tb1 C11 2.809 . S
Tb1 O22 2.325 . S
Tb1 O25 2.341 . S
Tb1 O26 2.484 . S
Tb1 O27 2.440 . S
Tb1 O28 2.658 . S
Tb1 O29 2.409 . S
Tb1 O30 2.378 . S
C2 Tb0 2.809 . S
C2 C3 1.514 . S
C2 O20 1.248 . S
C2 O21 1.266 . S
C3 C2 1.514 . S
C3 C4 1.359 . S
C3 C8 1.348 . S
C4 C3 1.359 . S
C4 C5 1.380 . S
C4 H32 0.929 . S
C5 C4 1.380 . S
C5 C6 1.347 . S
C5 H33 0.931 . S
C6 C5 1.347 . S
C6 C7 1.369 . S
C7 C6 1.369 . S
C7 C8 1.408 . S
C7 H34 0.930 . S
C8 C3 1.348 . S
C8 C7 1.408 . S
C8 H35 0.930 . S
C9 O22 1.281 . S
C9 O23 1.254 . S
C10 O24 1.236 . S
C10 O25 1.266 . S
C11 Tb1 2.809 . S
C11 C12 1.514 . S
C11 O26 1.248 . S
C11 O27 1.266 . S
C12 C11 1.514 . S
C12 C13 1.359 . S
C12 C17 1.348 . S
C13 C12 1.359 . S
C13 C14 1.380 . S
C13 H36 0.929 . S
C14 C13 1.380 . S
C14 C15 1.347 . S
C14 H37 0.931 . S
C15 C14 1.347 . S
C15 C16 1.369 . S
C16 C15 1.369 . S
C16 C17 1.408 . S
C16 H38 0.930 . S
C17 C12 1.348 . S
C17 C16 1.408 . S
C17 H39 0.930 . S
C18 O28 1.281 . S
C18 O29 1.254 . S
C19 O30 1.236 . S
C19 O31 1.266 . S
O20 Tb0 2.484 . S
O20 C2 1.248 . S
O21 Tb0 2.440 . S
O21 C2 1.266 . S
O22 Tb0 2.658 . S
O22 Tb1 2.325 . S
O22 C9 1.281 . S
O23 Tb0 2.409 . S
O23 C9 1.254 . S
O24 Tb0 2.378 . S
O24 C10 1.236 . S
O25 Tb1 2.341 . S
O25 C10 1.266 . S
O26 Tb1 2.484 . S
O26 C11 1.248 . S
O27 Tb1 2.440 . S
O27 C11 1.266 . S
O28 Tb0 2.325 . S
O28 Tb1 2.658 . S
O28 C18 1.281 . S
O29 Tb1 2.409 . S
O29 C18 1.254 . S
O30 Tb1 2.378 . S
O30 C19 1.236 . S
O31 Tb0 2.341 . S
O31 C19 1.266 . S
H32 C4 0.929 . S
H33 C5 0.931 . S
H34 C7 0.930 . S
H35 C8 0.930 . S
H36 C13 0.929 . S
H37 C14 0.931 . S
H38 C16 0.930 . S
H39 C17 0.930 . S
Tb40 C42 2.809 . S
Tb40 O60 2.484 . S
Tb40 O61 2.440 . S
Tb40 O62 2.658 . S
Tb40 O63 2.409 . S
Tb40 O64 2.378 . S
Tb40 O68 2.325 . S
Tb40 O71 2.341 . S
Tb41 C51 2.809 . S
Tb41 O62 2.325 . S
Tb41 O65 2.341 . S
Tb41 O66 2.484 . S
Tb41 O67 2.440 . S
Tb41 O68 2.658 . S
Tb41 O69 2.409 . S
Tb41 O70 2.378 . S
C42 Tb40 2.809 . S
C42 C43 1.514 . S
C42 O60 1.248 . S
C42 O61 1.266 . S
C43 C42 1.514 . S
C43 C44 1.359 . S
C43 C48 1.348 . S
C44 C43 1.359 . S
C44 C45 1.380 . S
C44 H72 0.929 . S
C45 C44 1.380 . S
C45 C46 1.347 . S
C45 H73 0.931 . S
C46 C45 1.347 . S
C46 C47 1.369 . S
C47 C46 1.369 . S
C47 C48 1.408 . S
C47 H74 0.930 . S
C48 C43 1.348 . S
C48 C47 1.408 . S
C48 H75 0.930 . S
C49 O62 1.281 . S
C49 O63 1.254 . S
C50 O64 1.236 . S
C50 O65 1.266 . S
C51 Tb41 2.809 . S
C51 C52 1.514 . S
C51 O66 1.248 . S
C51 O67 1.266 . S
C52 C51 1.514 . S
C52 C53 1.359 . S
C52 C57 1.348 . S
C53 C52 1.359 . S
C53 C54 1.380 1_545 S
C53 H76 0.929 . S
C54 C53 1.380 1_565 S
C54 C55 1.347 . S
C54 H77 0.931 . S
C55 C54 1.347 . S
C55 C56 1.369 1_565 S
C56 C55 1.369 1_545 S
C56 C57 1.408 . S
C56 H78 0.930 . S
C57 C52 1.348 . S
C57 C56 1.408 . S
C57 H79 0.930 . S
C58 O68 1.281 . S
C58 O69 1.254 . S
C59 O70 1.236 . S
C59 O71 1.266 . S
O60 Tb40 2.484 . S
O60 C42 1.248 . S
O61 Tb40 2.440 . S
O61 C42 1.266 . S
O62 Tb40 2.658 . S
O62 Tb41 2.325 . S
O62 C49 1.281 . S
O63 Tb40 2.409 . S
O63 C49 1.254 . S
O64 Tb40 2.378 . S
O64 C50 1.236 . S
O65 Tb41 2.341 . S
O65 C50 1.266 . S
O66 Tb41 2.484 . S
O66 C51 1.248 . S
O67 Tb41 2.440 . S
O67 C51 1.266 . S
O68 Tb40 2.325 . S
O68 Tb41 2.658 . S
O68 C58 1.281 . S
O69 Tb41 2.409 . S
O69 C58 1.254 . S
O70 Tb41 2.378 . S
O70 C59 1.236 . S
O71 Tb40 2.341 . S
O71 C59 1.266 . S
H72 C44 0.929 . S
H73 C45 0.931 . S
H74 C47 0.930 . S
H75 C48 0.930 . S
H76 C53 0.929 . S
H77 C54 0.931 . S
H78 C56 0.930 . S
H79 C57 0.930 . S
Tb80 C82 2.809 . S
Tb80 O100 2.484 . S
Tb80 O101 2.440 . S
Tb80 O102 2.658 . S
Tb80 O103 2.409 . S
Tb80 O104 2.378 . S
Tb80 O108 2.325 . S
Tb80 O111 2.341 . S
Tb81 C91 2.809 . S
Tb81 O102 2.325 . S
Tb81 O105 2.341 . S
Tb81 O106 2.484 . S
Tb81 O107 2.440 . S
Tb81 O108 2.658 . S
Tb81 O109 2.409 . S
Tb81 O110 2.378 . S
C82 Tb80 2.809 . S
C82 C83 1.514 . S
C82 O100 1.248 . S
C82 O101 1.266 . S
C83 C82 1.514 . S
C83 C84 1.359 . S
C83 C88 1.348 . S
C84 C83 1.359 . S
C84 C85 1.380 . S
C84 H112 0.929 . S
C85 C84 1.380 . S
C85 C86 1.347 . S
C85 H113 0.931 . S
C86 C85 1.347 . S
C86 C87 1.369 . S
C87 C86 1.369 . S
C87 C88 1.408 . S
C87 H114 0.930 . S
C88 C83 1.348 . S
C88 C87 1.408 . S
C88 H115 0.930 . S
C89 O102 1.281 . S
C89 O103 1.254 . S
C90 O104 1.236 . S
C90 O105 1.266 . S
C91 Tb81 2.809 . S
C91 C92 1.514 . S
C91 O106 1.248 . S
C91 O107 1.266 . S
C92 C91 1.514 . S
C92 C93 1.359 . S
C92 C97 1.348 . S
C93 C92 1.359 . S
C93 C94 1.380 1_655 S
C93 H116 0.929 . S
C94 C93 1.380 1_455 S
C94 C95 1.347 . S
C94 H117 0.931 . S
C95 C94 1.347 . S
C95 C96 1.369 1_455 S
C96 C95 1.369 1_655 S
C96 C97 1.408 . S
C96 H118 0.930 . S
C97 C92 1.348 . S
C97 C96 1.408 . S
C97 H119 0.930 . S
C98 O108 1.281 . S
C98 O109 1.254 . S
C99 O110 1.236 . S
C99 O111 1.266 . S
O100 Tb80 2.484 . S
O100 C82 1.248 . S
O101 Tb80 2.440 . S
O101 C82 1.266 . S
O102 Tb80 2.658 . S
O102 Tb81 2.325 . S
O102 C89 1.281 . S
O103 Tb80 2.409 . S
O103 C89 1.254 . S
O104 Tb80 2.378 . S
O104 C90 1.236 . S
O105 Tb81 2.341 . S
O105 C90 1.266 . S
O106 Tb81 2.484 . S
O106 C91 1.248 . S
O107 Tb81 2.440 . S
O107 C91 1.266 . S
O108 Tb80 2.325 . S
O108 Tb81 2.658 . S
O108 C98 1.281 . S
O109 Tb81 2.409 . S
O109 C98 1.254 . S
O110 Tb81 2.378 . S
O110 C99 1.236 . S
O111 Tb80 2.341 . S
O111 C99 1.266 . S
H112 C84 0.929 . S
H113 C85 0.931 . S
H114 C87 0.930 . S
H115 C88 0.930 . S
H116 C93 0.929 . S
H117 C94 0.931 . S
H118 C96 0.930 . S
H119 C97 0.930 . S
Tb120 C122 2.809 . S
Tb120 O140 2.484 . S
Tb120 O141 2.440 . S
Tb120 O142 2.658 . S
Tb120 O143 2.409 . S
Tb120 O144 2.378 . S
Tb120 O148 2.325 . S
Tb120 O151 2.341 . S
Tb121 C131 2.809 . S
Tb121 O142 2.325 . S
Tb121 O145 2.341 . S
Tb121 O146 2.484 . S
Tb121 O147 2.440 . S
Tb121 O148 2.658 . S
Tb121 O149 2.409 . S
Tb121 O150 2.378 . S
C122 Tb120 2.809 . S
C122 C123 1.514 . S
C122 O140 1.248 . S
C122 O141 1.266 . S
C123 C122 1.514 . S
C123 C124 1.359 . S
C123 C128 1.348 . S
C124 C123 1.359 . S
C124 C125 1.380 . S
C124 H152 0.929 . S
C125 C124 1.380 . S
C125 C126 1.347 . S
C125 H153 0.931 . S
C126 C125 1.347 . S
C126 C127 1.369 . S
C127 C126 1.369 . S
C127 C128 1.408 . S
C127 H154 0.930 . S
C128 C123 1.348 . S
C128 C127 1.408 . S
C128 H155 0.930 . S
C129 O142 1.281 . S
C129 O143 1.254 . S
C130 O144 1.236 . S
C130 O145 1.266 . S
C131 Tb121 2.809 . S
C131 C132 1.514 . S
C131 O146 1.248 . S
C131 O147 1.266 . S
C132 C131 1.514 . S
C132 C133 1.359 . S
C132 C137 1.348 . S
C133 C132 1.359 . S
C133 C134 1.380 . S
C133 H156 0.929 . S
C134 C133 1.380 . S
C134 C135 1.347 . S
C134 H157 0.931 . S
C135 C134 1.347 . S
C135 C136 1.369 . S
C136 C135 1.369 . S
C136 C137 1.408 . S
C136 H158 0.930 . S
C137 C132 1.348 . S
C137 C136 1.408 . S
C137 H159 0.930 . S
C138 O148 1.281 . S
C138 O149 1.254 . S
C139 O150 1.236 . S
C139 O151 1.266 . S
O140 Tb120 2.484 . S
O140 C122 1.248 . S
O141 Tb120 2.440 . S
O141 C122 1.266 . S
O142 Tb120 2.658 . S
O142 Tb121 2.325 . S
O142 C129 1.281 . S
O143 Tb120 2.409 . S
O143 C129 1.254 . S
O144 Tb120 2.378 . S
O144 C130 1.236 . S
O145 Tb121 2.341 . S
O145 C130 1.266 . S
O146 Tb121 2.484 . S
O146 C131 1.248 . S
O147 Tb121 2.440 . S
O147 C131 1.266 . S
O148 Tb120 2.325 . S
O148 Tb121 2.658 . S
O148 C138 1.281 . S
O149 Tb121 2.409 . S
O149 C138 1.254 . S
O150 Tb121 2.378 . S
O150 C139 1.236 . S
O151 Tb120 2.341 . S
O151 C139 1.266 . S
H152 C124 0.929 . S
H153 C125 0.931 . S
H154 C127 0.930 . S
H155 C128 0.930 . S
H156 C133 0.929 . S
H157 C134 0.931 . S
H158 C136 0.930 . S
H159 C137 0.930 . S
Tb160 C162 2.809 . S
Tb160 O180 2.484 . S
Tb160 O181 2.440 . S
Tb160 O182 2.658 . S
Tb160 O183 2.409 . S
Tb160 O184 2.378 . S
Tb160 O188 2.325 . S
Tb160 O191 2.341 . S
Tb161 C171 2.809 . S
Tb161 O182 2.325 . S
Tb161 O185 2.341 . S
Tb161 O186 2.484 . S
Tb161 O187 2.440 . S
Tb161 O188 2.658 . S
Tb161 O189 2.409 . S
Tb161 O190 2.378 . S
C162 Tb160 2.809 . S
C162 C163 1.514 . S
C162 O180 1.248 . S
C162 O181 1.266 . S
C163 C162 1.514 . S
C163 C164 1.359 . S
C163 C168 1.348 . S
C164 C163 1.359 . S
C164 C165 1.380 . S
C164 H192 0.929 . S
C165 C164 1.380 . S
C165 C166 1.347 . S
C165 H193 0.931 . S
C166 C165 1.347 . S
C166 C167 1.369 . S
C167 C166 1.369 . S
C167 C168 1.408 . S
C167 H194 0.930 . S
C168 C163 1.348 . S
C168 C167 1.408 . S
C168 H195 0.930 . S
C169 O182 1.281 . S
C169 O183 1.254 . S
C170 O184 1.236 . S
C170 O185 1.266 . S
C171 Tb161 2.809 . S
C171 C172 1.514 . S
C171 O186 1.248 . S
C171 O187 1.266 . S
C172 C171 1.514 . S
C172 C173 1.359 . S
C172 C177 1.348 . S
C173 C172 1.359 . S
C173 C174 1.380 1_565 S
C173 H196 0.929 . S
C174 C173 1.380 1_545 S
C174 C175 1.347 . S
C174 H197 0.931 . S
C175 C174 1.347 . S
C175 C176 1.369 1_545 S
C176 C175 1.369 1_565 S
C176 C177 1.408 . S
C176 H198 0.930 . S
C177 C172 1.348 . S
C177 C176 1.408 . S
C177 H199 0.930 . S
C178 O188 1.281 . S
C178 O189 1.254 . S
C179 O190 1.236 . S
C179 O191 1.266 . S
O180 Tb160 2.484 . S
O180 C162 1.248 . S
O181 Tb160 2.440 . S
O181 C162 1.266 . S
O182 Tb160 2.658 . S
O182 Tb161 2.325 . S
O182 C169 1.281 . S
O183 Tb160 2.409 . S
O183 C169 1.254 . S
O184 Tb160 2.378 . S
O184 C170 1.236 . S
O185 Tb161 2.341 . S
O185 C170 1.266 . S
O186 Tb161 2.484 . S
O186 C171 1.248 . S
O187 Tb161 2.440 . S
O187 C171 1.266 . S
O188 Tb160 2.325 . S
O188 Tb161 2.658 . S
O188 C178 1.281 . S
O189 Tb161 2.409 . S
O189 C178 1.254 . S
O190 Tb161 2.378 . S
O190 C179 1.236 . S
O191 Tb160 2.341 . S
O191 C179 1.266 . S
H192 C164 0.929 . S
H193 C165 0.931 . S
H194 C167 0.930 . S
H195 C168 0.930 . S
H196 C173 0.929 . S
H197 C174 0.931 . S
H198 C176 0.930 . S
H199 C177 0.930 . S
Tb200 C202 2.809 . S
Tb200 O220 2.484 . S
Tb200 O221 2.440 . S
Tb200 O222 2.658 . S
Tb200 O223 2.409 . S
Tb200 O224 2.378 . S
Tb200 O228 2.325 . S
Tb200 O231 2.341 . S
Tb201 C211 2.809 . S
Tb201 O222 2.325 . S
Tb201 O225 2.341 . S
Tb201 O226 2.484 . S
Tb201 O227 2.440 . S
Tb201 O228 2.658 . S
Tb201 O229 2.409 . S
Tb201 O230 2.378 . S
C202 Tb200 2.809 . S
C202 C203 1.514 . S
C202 O220 1.248 . S
C202 O221 1.266 . S
C203 C202 1.514 . S
C203 C204 1.359 . S
C203 C208 1.348 . S
C204 C203 1.359 . S
C204 C205 1.380 . S
C204 H232 0.929 . S
C205 C204 1.380 . S
C205 C206 1.347 . S
C205 H233 0.931 . S
C206 C205 1.347 . S
C206 C207 1.369 . S
C207 C206 1.369 . S
C207 C208 1.408 . S
C207 H234 0.930 . S
C208 C203 1.348 . S
C208 C207 1.408 . S
C208 H235 0.930 . S
C209 O222 1.281 . S
C209 O223 1.254 . S
C210 O224 1.236 . S
C210 O225 1.266 . S
C211 Tb201 2.809 . S
C211 C212 1.514 . S
C211 O226 1.248 . S
C211 O227 1.266 . S
C212 C211 1.514 . S
C212 C213 1.359 . S
C212 C217 1.348 . S
C213 C212 1.359 . S
C213 C214 1.380 1_455 S
C213 H236 0.929 . S
C214 C213 1.380 1_655 S
C214 C215 1.347 . S
C214 H237 0.931 . S
C215 C214 1.347 . S
C215 C216 1.369 1_655 S
C216 C215 1.369 1_455 S
C216 C217 1.408 . S
C216 H238 0.930 . S
C217 C212 1.348 . S
C217 C216 1.408 . S
C217 H239 0.930 . S
C218 O228 1.281 . S
C218 O229 1.254 . S
C219 O230 1.236 . S
C219 O231 1.266 . S
O220 Tb200 2.484 . S
O220 C202 1.248 . S
O221 Tb200 2.440 . S
O221 C202 1.266 . S
O222 Tb200 2.658 . S
O222 Tb201 2.325 . S
O222 C209 1.281 . S
O223 Tb200 2.409 . S
O223 C209 1.254 . S
O224 Tb200 2.378 . S
O224 C210 1.236 . S
O225 Tb201 2.341 . S
O225 C210 1.266 . S
O226 Tb201 2.484 . S
O226 C211 1.248 . S
O227 Tb201 2.440 . S
O227 C211 1.266 . S
O228 Tb200 2.325 . S
O228 Tb201 2.658 . S
O228 C218 1.281 . S
O229 Tb201 2.409 . S
O229 C218 1.254 . S
O230 Tb201 2.378 . S
O230 C219 1.236 . S
O231 Tb200 2.341 . S
O231 C219 1.266 . S
H232 C204 0.929 . S
H233 C205 0.931 . S
H234 C207 0.930 . S
H235 C208 0.930 . S
H236 C213 0.929 . S
H237 C214 0.931 . S
H238 C216 0.930 . S
H239 C217 0.930 . S
Tb240 C242 2.809 . S
Tb240 O260 2.484 . S
Tb240 O261 2.440 . S
Tb240 O262 2.658 . S
Tb240 O263 2.409 . S
Tb240 O264 2.378 . S
Tb240 O268 2.325 . S
Tb240 O271 2.341 . S
Tb241 C251 2.809 . S
Tb241 O262 2.325 . S
Tb241 O265 2.341 . S
Tb241 O266 2.484 . S
Tb241 O267 2.440 . S
Tb241 O268 2.658 . S
Tb241 O269 2.409 . S
Tb241 O270 2.378 . S
C242 Tb240 2.809 . S
C242 C243 1.514 . S
C242 O260 1.248 . S
C242 O261 1.266 . S
C243 C242 1.514 . S
C243 C244 1.359 . S
C243 C248 1.348 . S
C244 C243 1.359 . S
C244 C245 1.380 . S
C244 H272 0.929 . S
C245 C244 1.380 . S
C245 C246 1.347 . S
C245 H273 0.931 . S
C246 C245 1.347 . S
C246 C247 1.369 . S
C247 C246 1.369 . S
C247 C248 1.408 . S
C247 H274 0.930 . S
C248 C243 1.348 . S
C248 C247 1.408 . S
C248 H275 0.930 . S
C249 O262 1.281 . S
C249 O263 1.254 . S
C250 O264 1.236 . S
C250 O265 1.266 . S
C251 Tb241 2.809 . S
C251 C252 1.514 . S
C251 O266 1.248 . S
C251 O267 1.266 . S
C252 C251 1.514 . S
C252 C253 1.359 . S
C252 C257 1.348 . S
C253 C252 1.359 . S
C253 C254 1.380 . S
C253 H276 0.929 . S
C254 C253 1.380 . S
C254 C255 1.347 . S
C254 H277 0.931 . S
C255 C254 1.347 . S
C255 C256 1.369 . S
C256 C255 1.369 . S
C256 C257 1.408 . S
C256 H278 0.930 . S
C257 C252 1.348 . S
C257 C256 1.408 . S
C257 H279 0.930 . S
C258 O268 1.281 . S
C258 O269 1.254 . S
C259 O270 1.236 . S
C259 O271 1.266 . S
O260 Tb240 2.484 . S
O260 C242 1.248 . S
O261 Tb240 2.440 . S
O261 C242 1.266 . S
O262 Tb240 2.658 . S
O262 Tb241 2.325 . S
O262 C249 1.281 . S
O263 Tb240 2.409 . S
O263 C249 1.254 . S
O264 Tb240 2.378 . S
O264 C250 1.236 . S
O265 Tb241 2.341 . S
O265 C250 1.266 . S
O266 Tb241 2.484 . S
O266 C251 1.248 . S
O267 Tb241 2.440 . S
O267 C251 1.266 . S
O268 Tb240 2.325 . S
O268 Tb241 2.658 . S
O268 C258 1.281 . S
O269 Tb241 2.409 . S
O269 C258 1.254 . S
O270 Tb241 2.378 . S
O270 C259 1.236 . S
O271 Tb240 2.341 . S
O271 C259 1.266 . S
H272 C244 0.929 . S
H273 C245 0.931 . S
H274 C247 0.930 . S
H275 C248 0.930 . S
H276 C253 0.929 . S
H277 C254 0.931 . S
H278 C256 0.930 . S
H279 C257 0.930 . S
Tb280 C282 2.809 . S
Tb280 O300 2.484 . S
Tb280 O301 2.440 . S
Tb280 O302 2.658 . S
Tb280 O303 2.409 . S
Tb280 O304 2.378 . S
Tb280 O308 2.325 . S
Tb280 O311 2.341 . S
Tb281 C291 2.809 . S
Tb281 O302 2.325 . S
Tb281 O305 2.341 . S
Tb281 O306 2.484 . S
Tb281 O307 2.440 . S
Tb281 O308 2.658 . S
Tb281 O309 2.409 . S
Tb281 O310 2.378 . S
C282 Tb280 2.809 . S
C282 C283 1.514 . S
C282 O300 1.248 . S
C282 O301 1.266 . S
C283 C282 1.514 . S
C283 C284 1.359 . S
C283 C288 1.348 . S
C284 C283 1.359 . S
C284 C285 1.380 1_565 S
C284 H312 0.929 . S
C285 C284 1.380 1_545 S
C285 C286 1.347 . S
C285 H313 0.931 . S
C286 C285 1.347 . S
C286 C287 1.369 1_545 S
C287 C286 1.369 1_565 S
C287 C288 1.408 . S
C287 H314 0.930 . S
C288 C283 1.348 . S
C288 C287 1.408 . S
C288 H315 0.930 . S
C289 O302 1.281 . S
C289 O303 1.254 . S
C290 O304 1.236 . S
C290 O305 1.266 . S
C291 Tb281 2.809 . S
C291 C292 1.514 . S
C291 O306 1.248 . S
C291 O307 1.266 . S
C292 C291 1.514 . S
C292 C293 1.359 . S
C292 C297 1.348 . S
C293 C292 1.359 . S
C293 C294 1.380 . S
C293 H316 0.929 . S
C294 C293 1.380 . S
C294 C295 1.347 . S
C294 H317 0.931 . S
C295 C294 1.347 . S
C295 C296 1.369 . S
C296 C295 1.369 . S
C296 C297 1.408 . S
C296 H318 0.930 . S
C297 C292 1.348 . S
C297 C296 1.408 . S
C297 H319 0.930 . S
C298 O308 1.281 . S
C298 O309 1.254 . S
C299 O310 1.236 . S
C299 O311 1.266 . S
O300 Tb280 2.484 . S
O300 C282 1.248 . S
O301 Tb280 2.440 . S
O301 C282 1.266 . S
O302 Tb280 2.658 . S
O302 Tb281 2.325 . S
O302 C289 1.281 . S
O303 Tb280 2.409 . S
O303 C289 1.254 . S
O304 Tb280 2.378 . S
O304 C290 1.236 . S
O305 Tb281 2.341 . S
O305 C290 1.266 . S
O306 Tb281 2.484 . S
O306 C291 1.248 . S
O307 Tb281 2.440 . S
O307 C291 1.266 . S
O308 Tb280 2.325 . S
O308 Tb281 2.658 . S
O308 C298 1.281 . S
O309 Tb281 2.409 . S
O309 C298 1.254 . S
O310 Tb281 2.378 . S
O310 C299 1.236 . S
O311 Tb280 2.341 . S
O311 C299 1.266 . S
H312 C284 0.929 . S
H313 C285 0.931 . S
H314 C287 0.930 . S
H315 C288 0.930 . S
H316 C293 0.929 . S
H317 C294 0.931 . S
H318 C296 0.930 . S
H319 C297 0.930 . S
Tb320 C322 2.809 . S
Tb320 O340 2.484 . S
Tb320 O341 2.440 . S
Tb320 O342 2.658 . S
Tb320 O343 2.409 . S
Tb320 O344 2.378 . S
Tb320 O348 2.325 . S
Tb320 O351 2.341 . S
Tb321 C331 2.809 . S
Tb321 O342 2.325 . S
Tb321 O345 2.341 . S
Tb321 O346 2.484 . S
Tb321 O347 2.440 . S
Tb321 O348 2.658 . S
Tb321 O349 2.409 . S
Tb321 O350 2.378 . S
C322 Tb320 2.809 . S
C322 C323 1.514 . S
C322 O340 1.248 . S
C322 O341 1.266 . S
C323 C322 1.514 . S
C323 C324 1.359 . S
C323 C328 1.348 . S
C324 C323 1.359 . S
C324 C325 1.380 1_455 S
C324 H352 0.929 . S
C325 C324 1.380 1_655 S
C325 C326 1.347 . S
C325 H353 0.931 . S
C326 C325 1.347 . S
C326 C327 1.369 1_655 S
C327 C326 1.369 1_455 S
C327 C328 1.408 . S
C327 H354 0.930 . S
C328 C323 1.348 . S
C328 C327 1.408 . S
C328 H355 0.930 . S
C329 O342 1.281 . S
C329 O343 1.254 . S
C330 O344 1.236 . S
C330 O345 1.266 . S
C331 Tb321 2.809 . S
C331 C332 1.514 . S
C331 O346 1.248 . S
C331 O347 1.266 . S
C332 C331 1.514 . S
C332 C333 1.359 . S
C332 C337 1.348 . S
C333 C332 1.359 . S
C333 C334 1.380 . S
C333 H356 0.929 . S
C334 C333 1.380 . S
C334 C335 1.347 . S
C334 H357 0.931 . S
C335 C334 1.347 . S
C335 C336 1.369 . S
C336 C335 1.369 . S
C336 C337 1.408 . S
C336 H358 0.930 . S
C337 C332 1.348 . S
C337 C336 1.408 . S
C337 H359 0.930 . S
C338 O348 1.281 . S
C338 O349 1.254 . S
C339 O350 1.236 . S
C339 O351 1.266 . S
O340 Tb320 2.484 . S
O340 C322 1.248 . S
O341 Tb320 2.440 . S
O341 C322 1.266 . S
O342 Tb320 2.658 . S
O342 Tb321 2.325 . S
O342 C329 1.281 . S
O343 Tb320 2.409 . S
O343 C329 1.254 . S
O344 Tb320 2.378 . S
O344 C330 1.236 . S
O345 Tb321 2.341 . S
O345 C330 1.266 . S
O346 Tb321 2.484 . S
O346 C331 1.248 . S
O347 Tb321 2.440 . S
O347 C331 1.266 . S
O348 Tb320 2.325 . S
O348 Tb321 2.658 . S
O348 C338 1.281 . S
O349 Tb321 2.409 . S
O349 C338 1.254 . S
O350 Tb321 2.378 . S
O350 C339 1.236 . S
O351 Tb320 2.341 . S
O351 C339 1.266 . S
H352 C324 0.929 . S
H353 C325 0.931 . S
H354 C327 0.930 . S
H355 C328 0.930 . S
H356 C333 0.929 . S
H357 C334 0.931 . S
H358 C336 0.930 . S
H359 C337 0.930 . S
Tb360 C362 2.809 . S
Tb360 O380 2.484 . S
Tb360 O381 2.440 . S
Tb360 O382 2.658 . S
Tb360 O383 2.409 . S
Tb360 O384 2.378 . S
Tb360 O388 2.325 . S
Tb360 O391 2.341 . S
Tb361 C371 2.809 . S
Tb361 O382 2.325 . S
Tb361 O385 2.341 . S
Tb361 O386 2.484 . S
Tb361 O387 2.440 . S
Tb361 O388 2.658 . S
Tb361 O389 2.409 . S
Tb361 O390 2.378 . S
C362 Tb360 2.809 . S
C362 C363 1.514 . S
C362 O380 1.248 . S
C362 O381 1.266 . S
C363 C362 1.514 . S
C363 C364 1.359 . S
C363 C368 1.348 . S
C364 C363 1.359 . S
C364 C365 1.380 . S
C364 H392 0.929 . S
C365 C364 1.380 . S
C365 C366 1.347 . S
C365 H393 0.931 . S
C366 C365 1.347 . S
C366 C367 1.369 . S
C367 C366 1.369 . S
C367 C368 1.408 . S
C367 H394 0.930 . S
C368 C363 1.348 . S
C368 C367 1.408 . S
C368 H395 0.930 . S
C369 O382 1.281 . S
C369 O383 1.254 . S
C370 O384 1.236 . S
C370 O385 1.266 . S
C371 Tb361 2.809 . S
C371 C372 1.514 . S
C371 O386 1.248 . S
C371 O387 1.266 . S
C372 C371 1.514 . S
C372 C373 1.359 . S
C372 C377 1.348 . S
C373 C372 1.359 . S
C373 C374 1.380 . S
C373 H396 0.929 . S
C374 C373 1.380 . S
C374 C375 1.347 . S
C374 H397 0.931 . S
C375 C374 1.347 . S
C375 C376 1.369 . S
C376 C375 1.369 . S
C376 C377 1.408 . S
C376 H398 0.930 . S
C377 C372 1.348 . S
C377 C376 1.408 . S
C377 H399 0.930 . S
C378 O388 1.281 . S
C378 O389 1.254 . S
C379 O390 1.236 . S
C379 O391 1.266 . S
O380 Tb360 2.484 . S
O380 C362 1.248 . S
O381 Tb360 2.440 . S
O381 C362 1.266 . S
O382 Tb360 2.658 . S
O382 Tb361 2.325 . S
O382 C369 1.281 . S
O383 Tb360 2.409 . S
O383 C369 1.254 . S
O384 Tb360 2.378 . S
O384 C370 1.236 . S
O385 Tb361 2.341 . S
O385 C370 1.266 . S
O386 Tb361 2.484 . S
O386 C371 1.248 . S
O387 Tb361 2.440 . S
O387 C371 1.266 . S
O388 Tb360 2.325 . S
O388 Tb361 2.658 . S
O388 C378 1.281 . S
O389 Tb361 2.409 . S
O389 C378 1.254 . S
O390 Tb361 2.378 . S
O390 C379 1.236 . S
O391 Tb360 2.341 . S
O391 C379 1.266 . S
H392 C364 0.929 . S
H393 C365 0.931 . S
H394 C367 0.930 . S
H395 C368 0.930 . S
H396 C373 0.929 . S
H397 C374 0.931 . S
H398 C376 0.930 . S
H399 C377 0.930 . S
Tb400 C402 2.809 . S
Tb400 O420 2.484 . S
Tb400 O421 2.440 . S
Tb400 O422 2.658 . S
Tb400 O423 2.409 . S
Tb400 O424 2.378 . S
Tb400 O428 2.325 . S
Tb400 O431 2.341 . S
Tb401 C411 2.809 . S
Tb401 O422 2.325 . S
Tb401 O425 2.341 . S
Tb401 O426 2.484 . S
Tb401 O427 2.440 . S
Tb401 O428 2.658 . S
Tb401 O429 2.409 . S
Tb401 O430 2.378 . S
C402 Tb400 2.809 . S
C402 C403 1.514 . S
C402 O420 1.248 . S
C402 O421 1.266 . S
C403 C402 1.514 . S
C403 C404 1.359 . S
C403 C408 1.348 . S
C404 C403 1.359 . S
C404 C405 1.380 1_545 S
C404 H432 0.929 . S
C405 C404 1.380 1_565 S
C405 C406 1.347 . S
C405 H433 0.931 . S
C406 C405 1.347 . S
C406 C407 1.369 1_565 S
C407 C406 1.369 1_545 S
C407 C408 1.408 . S
C407 H434 0.930 . S
C408 C403 1.348 . S
C408 C407 1.408 . S
C408 H435 0.930 . S
C409 O422 1.281 . S
C409 O423 1.254 . S
C410 O424 1.236 . S
C410 O425 1.266 . S
C411 Tb401 2.809 . S
C411 C412 1.514 . S
C411 O426 1.248 . S
C411 O427 1.266 . S
C412 C411 1.514 . S
C412 C413 1.359 . S
C412 C417 1.348 . S
C413 C412 1.359 . S
C413 C414 1.380 . S
C413 H436 0.929 . S
C414 C413 1.380 . S
C414 C415 1.347 . S
C414 H437 0.931 . S
C415 C414 1.347 . S
C415 C416 1.369 . S
C416 C415 1.369 . S
C416 C417 1.408 . S
C416 H438 0.930 . S
C417 C412 1.348 . S
C417 C416 1.408 . S
C417 H439 0.930 . S
C418 O428 1.281 . S
C418 O429 1.254 . S
C419 O430 1.236 . S
C419 O431 1.266 . S
O420 Tb400 2.484 . S
O420 C402 1.248 . S
O421 Tb400 2.440 . S
O421 C402 1.266 . S
O422 Tb400 2.658 . S
O422 Tb401 2.325 . S
O422 C409 1.281 . S
O423 Tb400 2.409 . S
O423 C409 1.254 . S
O424 Tb400 2.378 . S
O424 C410 1.236 . S
O425 Tb401 2.341 . S
O425 C410 1.266 . S
O426 Tb401 2.484 . S
O426 C411 1.248 . S
O427 Tb401 2.440 . S
O427 C411 1.266 . S
O428 Tb400 2.325 . S
O428 Tb401 2.658 . S
O428 C418 1.281 . S
O429 Tb401 2.409 . S
O429 C418 1.254 . S
O430 Tb401 2.378 . S
O430 C419 1.236 . S
O431 Tb400 2.341 . S
O431 C419 1.266 . S
H432 C404 0.929 . S
H433 C405 0.931 . S
H434 C407 0.930 . S
H435 C408 0.930 . S
H436 C413 0.929 . S
H437 C414 0.931 . S
H438 C416 0.930 . S
H439 C417 0.930 . S
Tb440 C442 2.809 . S
Tb440 O460 2.484 . S
Tb440 O461 2.440 . S
Tb440 O462 2.658 . S
Tb440 O463 2.409 . S
Tb440 O464 2.378 . S
Tb440 O468 2.325 . S
Tb440 O471 2.341 . S
Tb441 C451 2.809 . S
Tb441 O462 2.325 . S
Tb441 O465 2.341 . S
Tb441 O466 2.484 . S
Tb441 O467 2.440 . S
Tb441 O468 2.658 . S
Tb441 O469 2.409 . S
Tb441 O470 2.378 . S
C442 Tb440 2.809 . S
C442 C443 1.514 . S
C442 O460 1.248 . S
C442 O461 1.266 . S
C443 C442 1.514 . S
C443 C444 1.359 . S
C443 C448 1.348 . S
C444 C443 1.359 . S
C444 C445 1.380 1_655 S
C444 H472 0.929 . S
C445 C444 1.380 1_455 S
C445 C446 1.347 . S
C445 H473 0.931 . S
C446 C445 1.347 . S
C446 C447 1.369 1_455 S
C447 C446 1.369 1_655 S
C447 C448 1.408 . S
C447 H474 0.930 . S
C448 C443 1.348 . S
C448 C447 1.408 . S
C448 H475 0.930 . S
C449 O462 1.281 . S
C449 O463 1.254 . S
C450 O464 1.236 . S
C450 O465 1.266 . S
C451 Tb441 2.809 . S
C451 C452 1.514 . S
C451 O466 1.248 . S
C451 O467 1.266 . S
C452 C451 1.514 . S
C452 C453 1.359 . S
C452 C457 1.348 . S
C453 C452 1.359 . S
C453 C454 1.380 . S
C453 H476 0.929 . S
C454 C453 1.380 . S
C454 C455 1.347 . S
C454 H477 0.931 . S
C455 C454 1.347 . S
C455 C456 1.369 . S
C456 C455 1.369 . S
C456 C457 1.408 . S
C456 H478 0.930 . S
C457 C452 1.348 . S
C457 C456 1.408 . S
C457 H479 0.930 . S
C458 O468 1.281 . S
C458 O469 1.254 . S
C459 O470 1.236 . S
C459 O471 1.266 . S
O460 Tb440 2.484 . S
O460 C442 1.248 . S
O461 Tb440 2.440 . S
O461 C442 1.266 . S
O462 Tb440 2.658 . S
O462 Tb441 2.325 . S
O462 C449 1.281 . S
O463 Tb440 2.409 . S
O463 C449 1.254 . S
O464 Tb440 2.378 . S
O464 C450 1.236 . S
O465 Tb441 2.341 . S
O465 C450 1.266 . S
O466 Tb441 2.484 . S
O466 C451 1.248 . S
O467 Tb441 2.440 . S
O467 C451 1.266 . S
O468 Tb440 2.325 . S
O468 Tb441 2.658 . S
O468 C458 1.281 . S
O469 Tb441 2.409 . S
O469 C458 1.254 . S
O470 Tb441 2.378 . S
O470 C459 1.236 . S
O471 Tb440 2.341 . S
O471 C459 1.266 . S
H472 C444 0.929 . S
H473 C445 0.931 . S
H474 C447 0.930 . S
H475 C448 0.930 . S
H476 C453 0.929 . S
H477 C454 0.931 . S
H478 C456 0.930 . S
H479 C457 0.930 . S
Tb480 C482 2.809 . S
Tb480 O500 2.484 . S
Tb480 O501 2.440 . S
Tb480 O502 2.658 . S
Tb480 O503 2.409 . S
Tb480 O504 2.378 . S
Tb480 O508 2.325 . S
Tb480 O511 2.341 . S
Tb481 C491 2.809 . S
Tb481 O502 2.325 . S
Tb481 O505 2.341 . S
Tb481 O506 2.484 . S
Tb481 O507 2.440 . S
Tb481 O508 2.658 . S
Tb481 O509 2.409 . S
Tb481 O510 2.378 . S
C482 Tb480 2.809 . S
C482 C483 1.514 . S
C482 O500 1.248 . S
C482 O501 1.266 . S
C483 C482 1.514 . S
C483 C484 1.359 . S
C483 C488 1.348 . S
C484 C483 1.359 . S
C484 C485 1.380 . S
C484 H512 0.929 . S
C485 C484 1.380 . S
C485 C486 1.347 . S
C485 H513 0.931 . S
C486 C485 1.347 . S
C486 C487 1.369 . S
C487 C486 1.369 . S
C487 C488 1.408 . S
C487 H514 0.930 . S
C488 C483 1.348 . S
C488 C487 1.408 . S
C488 H515 0.930 . S
C489 O502 1.281 . S
C489 O503 1.254 . S
C490 O504 1.236 . S
C490 O505 1.266 . S
C491 Tb481 2.809 . S
C491 C492 1.514 . S
C491 O506 1.248 . S
C491 O507 1.266 . S
C492 C491 1.514 . S
C492 C493 1.359 . S
C492 C497 1.348 . S
C493 C492 1.359 . S
C493 C494 1.380 . S
C493 H516 0.929 . S
C494 C493 1.380 . S
C494 C495 1.347 . S
C494 H517 0.931 . S
C495 C494 1.347 . S
C495 C496 1.369 . S
C496 C495 1.369 . S
C496 C497 1.408 . S
C496 H518 0.930 . S
C497 C492 1.348 . S
C497 C496 1.408 . S
C497 H519 0.930 . S
C498 O508 1.281 . S
C498 O509 1.254 . S
C499 O510 1.236 . S
C499 O511 1.266 . S
O500 Tb480 2.484 . S
O500 C482 1.248 . S
O501 Tb480 2.440 . S
O501 C482 1.266 . S
O502 Tb480 2.658 . S
O502 Tb481 2.325 . S
O502 C489 1.281 . S
O503 Tb480 2.409 . S
O503 C489 1.254 . S
O504 Tb480 2.378 . S
O504 C490 1.236 . S
O505 Tb481 2.341 . S
O505 C490 1.266 . S
O506 Tb481 2.484 . S
O506 C491 1.248 . S
O507 Tb481 2.440 . S
O507 C491 1.266 . S
O508 Tb480 2.325 . S
O508 Tb481 2.658 . S
O508 C498 1.281 . S
O509 Tb481 2.409 . S
O509 C498 1.254 . S
O510 Tb481 2.378 . S
O510 C499 1.236 . S
O511 Tb480 2.341 . S
O511 C499 1.266 . S
H512 C484 0.929 . S
H513 C485 0.931 . S
H514 C487 0.930 . S
H515 C488 0.930 . S
H516 C493 0.929 . S
H517 C494 0.931 . S
H518 C496 0.930 . S
H519 C497 0.930 . S
Tb520 C522 2.809 . S
Tb520 O540 2.484 . S
Tb520 O541 2.440 . S
Tb520 O542 2.658 . S
Tb520 O543 2.409 . S
Tb520 O544 2.378 . S
Tb520 O548 2.325 . S
Tb520 O551 2.341 . S
Tb521 C531 2.809 . S
Tb521 O542 2.325 . S
Tb521 O545 2.341 . S
Tb521 O546 2.484 . S
Tb521 O547 2.440 . S
Tb521 O548 2.658 . S
Tb521 O549 2.409 . S
Tb521 O550 2.378 . S
C522 Tb520 2.809 . S
C522 C523 1.514 . S
C522 O540 1.248 . S
C522 O541 1.266 . S
C523 C522 1.514 . S
C523 C524 1.359 . S
C523 C528 1.348 . S
C524 C523 1.359 . S
C524 C525 1.380 . S
C524 H552 0.929 . S
C525 C524 1.380 . S
C525 C526 1.347 . S
C525 H553 0.931 . S
C526 C525 1.347 . S
C526 C527 1.369 . S
C527 C526 1.369 . S
C527 C528 1.408 . S
C527 H554 0.930 . S
C528 C523 1.348 . S
C528 C527 1.408 . S
C528 H555 0.930 . S
C529 O542 1.281 . S
C529 O543 1.254 . S
C530 O544 1.236 . S
C530 O545 1.266 . S
C531 Tb521 2.809 . S
C531 C532 1.514 . S
C531 O546 1.248 . S
C531 O547 1.266 . S
C532 C531 1.514 . S
C532 C533 1.359 . S
C532 C537 1.348 . S
C533 C532 1.359 . S
C533 C534 1.380 . S
C533 H556 0.929 . S
C534 C533 1.380 . S
C534 C535 1.347 . S
C534 H557 0.931 . S
C535 C534 1.347 . S
C535 C536 1.369 . S
C536 C535 1.369 . S
C536 C537 1.408 . S
C536 H558 0.930 . S
C537 C532 1.348 . S
C537 C536 1.408 . S
C537 H559 0.930 . S
C538 O548 1.281 . S
C538 O549 1.254 . S
C539 O550 1.236 . S
C539 O551 1.266 . S
O540 Tb520 2.484 . S
O540 C522 1.248 . S
O541 Tb520 2.440 . S
O541 C522 1.266 . S
O542 Tb520 2.658 . S
O542 Tb521 2.325 . S
O542 C529 1.281 . S
O543 Tb520 2.409 . S
O543 C529 1.254 . S
O544 Tb520 2.378 . S
O544 C530 1.236 . S
O545 Tb521 2.341 . S
O545 C530 1.266 . S
O546 Tb521 2.484 . S
O546 C531 1.248 . S
O547 Tb521 2.440 . S
O547 C531 1.266 . S
O548 Tb520 2.325 . S
O548 Tb521 2.658 . S
O548 C538 1.281 . S
O549 Tb521 2.409 . S
O549 C538 1.254 . S
O550 Tb521 2.378 . S
O550 C539 1.236 . S
O551 Tb520 2.341 . S
O551 C539 1.266 . S
H552 C524 0.929 . S
H553 C525 0.931 . S
H554 C527 0.930 . S
H555 C528 0.930 . S
H556 C533 0.929 . S
H557 C534 0.931 . S
H558 C536 0.930 . S
H559 C537 0.930 . S
Tb560 C562 2.809 . S
Tb560 O580 2.484 . S
Tb560 O581 2.440 . S
Tb560 O582 2.658 . S
Tb560 O583 2.409 . S
Tb560 O584 2.378 . S
Tb560 O588 2.325 . S
Tb560 O591 2.341 . S
Tb561 C571 2.809 . S
Tb561 O582 2.325 . S
Tb561 O585 2.341 . S
Tb561 O586 2.484 . S
Tb561 O587 2.440 . S
Tb561 O588 2.658 . S
Tb561 O589 2.409 . S
Tb561 O590 2.378 . S
C562 Tb560 2.809 . S
C562 C563 1.514 . S
C562 O580 1.248 . S
C562 O581 1.266 . S
C563 C562 1.514 . S
C563 C564 1.359 . S
C563 C568 1.348 . S
C564 C563 1.359 . S
C564 C565 1.380 . S
C564 H592 0.929 . S
C565 C564 1.380 . S
C565 C566 1.347 . S
C565 H593 0.931 . S
C566 C565 1.347 . S
C566 C567 1.369 . S
C567 C566 1.369 . S
C567 C568 1.408 . S
C567 H594 0.930 . S
C568 C563 1.348 . S
C568 C567 1.408 . S
C568 H595 0.930 . S
C569 O582 1.281 . S
C569 O583 1.254 . S
C570 O584 1.236 . S
C570 O585 1.266 . S
C571 Tb561 2.809 . S
C571 C572 1.514 . S
C571 O586 1.248 . S
C571 O587 1.266 . S
C572 C571 1.514 . S
C572 C573 1.359 . S
C572 C577 1.348 . S
C573 C572 1.359 . S
C573 C574 1.380 . S
C573 H596 0.929 . S
C574 C573 1.380 . S
C574 C575 1.347 . S
C574 H597 0.931 . S
C575 C574 1.347 . S
C575 C576 1.369 . S
C576 C575 1.369 . S
C576 C577 1.408 . S
C576 H598 0.930 . S
C577 C572 1.348 . S
C577 C576 1.408 . S
C577 H599 0.930 . S
C578 O588 1.281 . S
C578 O589 1.254 . S
C579 O590 1.236 . S
C579 O591 1.266 . S
O580 Tb560 2.484 . S
O580 C562 1.248 . S
O581 Tb560 2.440 . S
O581 C562 1.266 . S
O582 Tb560 2.658 . S
O582 Tb561 2.325 . S
O582 C569 1.281 . S
O583 Tb560 2.409 . S
O583 C569 1.254 . S
O584 Tb560 2.378 . S
O584 C570 1.236 . S
O585 Tb561 2.341 . S
O585 C570 1.266 . S
O586 Tb561 2.484 . S
O586 C571 1.248 . S
O587 Tb561 2.440 . S
O587 C571 1.266 . S
O588 Tb560 2.325 . S
O588 Tb561 2.658 . S
O588 C578 1.281 . S
O589 Tb561 2.409 . S
O589 C578 1.254 . S
O590 Tb561 2.378 . S
O590 C579 1.236 . S
O591 Tb560 2.341 . S
O591 C579 1.266 . S
H592 C564 0.929 . S
H593 C565 0.931 . S
H594 C567 0.930 . S
H595 C568 0.930 . S
H596 C573 0.929 . S
H597 C574 0.931 . S
H598 C576 0.930 . S
H599 C577 0.930 . S
Tb600 C602 2.809 . S
Tb600 O620 2.484 . S
Tb600 O621 2.440 . S
Tb600 O622 2.658 . S
Tb600 O623 2.409 . S
Tb600 O624 2.378 . S
Tb600 O628 2.325 . S
Tb600 O631 2.341 . S
Tb601 C611 2.809 . S
Tb601 O622 2.325 . S
Tb601 O625 2.341 . S
Tb601 O626 2.484 . S
Tb601 O627 2.440 . S
Tb601 O628 2.658 . S
Tb601 O629 2.409 . S
Tb601 O630 2.378 . S
C602 Tb600 2.809 . S
C602 C603 1.514 . S
C602 O620 1.248 . S
C602 O621 1.266 . S
C603 C602 1.514 . S
C603 C604 1.359 . S
C603 C608 1.348 . S
C604 C603 1.359 . S
C604 C605 1.380 . S
C604 H632 0.929 . S
C605 C604 1.380 . S
C605 C606 1.347 . S
C605 H633 0.931 . S
C606 C605 1.347 . S
C606 C607 1.369 . S
C607 C606 1.369 . S
C607 C608 1.408 . S
C607 H634 0.930 . S
C608 C603 1.348 . S
C608 C607 1.408 . S
C608 H635 0.930 . S
C609 O622 1.281 . S
C609 O623 1.254 . S
C610 O624 1.236 . S
C610 O625 1.266 . S
C611 Tb601 2.809 . S
C611 C612 1.514 . S
C611 O626 1.248 . S
C611 O627 1.266 . S
C612 C611 1.514 . S
C612 C613 1.359 . S
C612 C617 1.348 . S
C613 C612 1.359 . S
C613 C614 1.380 . S
C613 H636 0.929 . S
C614 C613 1.380 . S
C614 C615 1.347 . S
C614 H637 0.931 . S
C615 C614 1.347 . S
C615 C616 1.369 . S
C616 C615 1.369 . S
C616 C617 1.408 . S
C616 H638 0.930 . S
C617 C612 1.348 . S
C617 C616 1.408 . S
C617 H639 0.930 . S
C618 O628 1.281 . S
C618 O629 1.254 . S
C619 O630 1.236 . S
C619 O631 1.266 . S
O620 Tb600 2.484 . S
O620 C602 1.248 . S
O621 Tb600 2.440 . S
O621 C602 1.266 . S
O622 Tb600 2.658 . S
O622 Tb601 2.325 . S
O622 C609 1.281 . S
O623 Tb600 2.409 . S
O623 C609 1.254 . S
O624 Tb600 2.378 . S
O624 C610 1.236 . S
O625 Tb601 2.341 . S
O625 C610 1.266 . S
O626 Tb601 2.484 . S
O626 C611 1.248 . S
O627 Tb601 2.440 . S
O627 C611 1.266 . S
O628 Tb600 2.325 . S
O628 Tb601 2.658 . S
O628 C618 1.281 . S
O629 Tb601 2.409 . S
O629 C618 1.254 . S
O630 Tb601 2.378 . S
O630 C619 1.236 . S
O631 Tb600 2.341 . S
O631 C619 1.266 . S
H632 C604 0.929 . S
H633 C605 0.931 . S
H634 C607 0.930 . S
H635 C608 0.930 . S
H636 C613 0.929 . S
H637 C614 0.931 . S
H638 C616 0.930 . S
H639 C617 0.930 . S
Tb640 C642 2.809 . S
Tb640 O660 2.484 . S
Tb640 O661 2.440 . S
Tb640 O662 2.658 . S
Tb640 O663 2.409 . S
Tb640 O664 2.378 . S
Tb640 O668 2.325 . S
Tb640 O671 2.341 . S
Tb641 C651 2.809 . S
Tb641 O662 2.325 . S
Tb641 O665 2.341 . S
Tb641 O666 2.484 . S
Tb641 O667 2.440 . S
Tb641 O668 2.658 . S
Tb641 O669 2.409 . S
Tb641 O670 2.378 . S
C642 Tb640 2.809 . S
C642 C643 1.514 . S
C642 O660 1.248 . S
C642 O661 1.266 . S
C643 C642 1.514 . S
C643 C644 1.359 . S
C643 C648 1.348 . S
C644 C643 1.359 . S
C644 C645 1.380 . S
C644 H672 0.929 . S
C645 C644 1.380 . S
C645 C646 1.347 . S
C645 H673 0.931 . S
C646 C645 1.347 . S
C646 C647 1.369 . S
C647 C646 1.369 . S
C647 C648 1.408 . S
C647 H674 0.930 . S
C648 C643 1.348 . S
C648 C647 1.408 . S
C648 H675 0.930 . S
C649 O662 1.281 . S
C649 O663 1.254 . S
C650 O664 1.236 . S
C650 O665 1.266 . S
C651 Tb641 2.809 . S
C651 C652 1.514 . S
C651 O666 1.248 . S
C651 O667 1.266 . S
C652 C651 1.514 . S
C652 C653 1.359 . S
C652 C657 1.348 . S
C653 C652 1.359 . S
C653 C654 1.380 . S
C653 H676 0.929 . S
C654 C653 1.380 . S
C654 C655 1.347 . S
C654 H677 0.931 . S
C655 C654 1.347 . S
C655 C656 1.369 . S
C656 C655 1.369 . S
C656 C657 1.408 . S
C656 H678 0.930 . S
C657 C652 1.348 . S
C657 C656 1.408 . S
C657 H679 0.930 . S
C658 O668 1.281 . S
C658 O669 1.254 . S
C659 O670 1.236 . S
C659 O671 1.266 . S
O660 Tb640 2.484 . S
O660 C642 1.248 . S
O661 Tb640 2.440 . S
O661 C642 1.266 . S
O662 Tb640 2.658 . S
O662 Tb641 2.325 . S
O662 C649 1.281 . S
O663 Tb640 2.409 . S
O663 C649 1.254 . S
O664 Tb640 2.378 . S
O664 C650 1.236 . S
O665 Tb641 2.341 . S
O665 C650 1.266 . S
O666 Tb641 2.484 . S
O666 C651 1.248 . S
O667 Tb641 2.440 . S
O667 C651 1.266 . S
O668 Tb640 2.325 . S
O668 Tb641 2.658 . S
O668 C658 1.281 . S
O669 Tb641 2.409 . S
O669 C658 1.254 . S
O670 Tb641 2.378 . S
O670 C659 1.236 . S
O671 Tb640 2.341 . S
O671 C659 1.266 . S
H672 C644 0.929 . S
H673 C645 0.931 . S
H674 C647 0.930 . S
H675 C648 0.930 . S
H676 C653 0.929 . S
H677 C654 0.931 . S
H678 C656 0.930 . S
H679 C657 0.930 . S
Tb680 C682 2.809 . S
Tb680 O700 2.484 . S
Tb680 O701 2.440 . S
Tb680 O702 2.658 . S
Tb680 O703 2.409 . S
Tb680 O704 2.378 . S
Tb680 O708 2.325 . S
Tb680 O711 2.341 . S
Tb681 C691 2.809 . S
Tb681 O702 2.325 . S
Tb681 O705 2.341 . S
Tb681 O706 2.484 . S
Tb681 O707 2.440 . S
Tb681 O708 2.658 . S
Tb681 O709 2.409 . S
Tb681 O710 2.378 . S
C682 Tb680 2.809 . S
C682 C683 1.514 . S
C682 O700 1.248 . S
C682 O701 1.266 . S
C683 C682 1.514 . S
C683 C684 1.359 . S
C683 C688 1.348 . S
C684 C683 1.359 . S
C684 C685 1.380 . S
C684 H712 0.929 . S
C685 C684 1.380 . S
C685 C686 1.347 . S
C685 H713 0.931 . S
C686 C685 1.347 . S
C686 C687 1.369 . S
C687 C686 1.369 . S
C687 C688 1.408 . S
C687 H714 0.930 . S
C688 C683 1.348 . S
C688 C687 1.408 . S
C688 H715 0.930 . S
C689 O702 1.281 . S
C689 O703 1.254 . S
C690 O704 1.236 . S
C690 O705 1.266 . S
C691 Tb681 2.809 . S
C691 C692 1.514 . S
C691 O706 1.248 . S
C691 O707 1.266 . S
C692 C691 1.514 . S
C692 C693 1.359 . S
C692 C697 1.348 . S
C693 C692 1.359 . S
C693 C694 1.380 . S
C693 H716 0.929 . S
C694 C693 1.380 . S
C694 C695 1.347 . S
C694 H717 0.931 . S
C695 C694 1.347 . S
C695 C696 1.369 . S
C696 C695 1.369 . S
C696 C697 1.408 . S
C696 H718 0.930 . S
C697 C692 1.348 . S
C697 C696 1.408 . S
C697 H719 0.930 . S
C698 O708 1.281 . S
C698 O709 1.254 . S
C699 O710 1.236 . S
C699 O711 1.266 . S
O700 Tb680 2.484 . S
O700 C682 1.248 . S
O701 Tb680 2.440 . S
O701 C682 1.266 . S
O702 Tb680 2.658 . S
O702 Tb681 2.325 . S
O702 C689 1.281 . S
O703 Tb680 2.409 . S
O703 C689 1.254 . S
O704 Tb680 2.378 . S
O704 C690 1.236 . S
O705 Tb681 2.341 . S
O705 C690 1.266 . S
O706 Tb681 2.484 . S
O706 C691 1.248 . S
O707 Tb681 2.440 . S
O707 C691 1.266 . S
O708 Tb680 2.325 . S
O708 Tb681 2.658 . S
O708 C698 1.281 . S
O709 Tb681 2.409 . S
O709 C698 1.254 . S
O710 Tb681 2.378 . S
O710 C699 1.236 . S
O711 Tb680 2.341 . S
O711 C699 1.266 . S
H712 C684 0.929 . S
H713 C685 0.931 . S
H714 C687 0.930 . S
H715 C688 0.930 . S
H716 C693 0.929 . S
H717 C694 0.931 . S
H718 C696 0.930 . S
H719 C697 0.930 . S
Tb720 C722 2.809 . S
Tb720 O740 2.484 . S
Tb720 O741 2.440 . S
Tb720 O742 2.658 . S
Tb720 O743 2.409 . S
Tb720 O744 2.378 . S
Tb720 O748 2.325 . S
Tb720 O751 2.341 . S
Tb721 C731 2.809 . S
Tb721 O742 2.325 . S
Tb721 O745 2.341 . S
Tb721 O746 2.484 . S
Tb721 O747 2.440 . S
Tb721 O748 2.658 . S
Tb721 O749 2.409 . S
Tb721 O750 2.378 . S
C722 Tb720 2.809 . S
C722 C723 1.514 . S
C722 O740 1.248 . S
C722 O741 1.266 . S
C723 C722 1.514 . S
C723 C724 1.359 . S
C723 C728 1.348 . S
C724 C723 1.359 . S
C724 C725 1.380 . S
C724 H752 0.929 . S
C725 C724 1.380 . S
C725 C726 1.347 . S
C725 H753 0.931 . S
C726 C725 1.347 . S
C726 C727 1.369 . S
C727 C726 1.369 . S
C727 C728 1.408 . S
C727 H754 0.930 . S
C728 C723 1.348 . S
C728 C727 1.408 . S
C728 H755 0.930 . S
C729 O742 1.281 . S
C729 O743 1.254 . S
C730 O744 1.236 . S
C730 O745 1.266 . S
C731 Tb721 2.809 . S
C731 C732 1.514 . S
C731 O746 1.248 . S
C731 O747 1.266 . S
C732 C731 1.514 . S
C732 C733 1.359 . S
C732 C737 1.348 . S
C733 C732 1.359 . S
C733 C734 1.380 . S
C733 H756 0.929 . S
C734 C733 1.380 . S
C734 C735 1.347 . S
C734 H757 0.931 . S
C735 C734 1.347 . S
C735 C736 1.369 . S
C736 C735 1.369 . S
C736 C737 1.408 . S
C736 H758 0.930 . S
C737 C732 1.348 . S
C737 C736 1.408 . S
C737 H759 0.930 . S
C738 O748 1.281 . S
C738 O749 1.254 . S
C739 O750 1.236 . S
C739 O751 1.266 . S
O740 Tb720 2.484 . S
O740 C722 1.248 . S
O741 Tb720 2.440 . S
O741 C722 1.266 . S
O742 Tb720 2.658 . S
O742 Tb721 2.325 . S
O742 C729 1.281 . S
O743 Tb720 2.409 . S
O743 C729 1.254 . S
O744 Tb720 2.378 . S
O744 C730 1.236 . S
O745 Tb721 2.341 . S
O745 C730 1.266 . S
O746 Tb721 2.484 . S
O746 C731 1.248 . S
O747 Tb721 2.440 . S
O747 C731 1.266 . S
O748 Tb720 2.325 . S
O748 Tb721 2.658 . S
O748 C738 1.281 . S
O749 Tb721 2.409 . S
O749 C738 1.254 . S
O750 Tb721 2.378 . S
O750 C739 1.236 . S
O751 Tb720 2.341 . S
O751 C739 1.266 . S
H752 C724 0.929 . S
H753 C725 0.931 . S
H754 C727 0.930 . S
H755 C728 0.930 . S
H756 C733 0.929 . S
H757 C734 0.931 . S
H758 C736 0.930 . S
H759 C737 0.930 . S
Tb760 C762 2.809 . S
Tb760 O780 2.484 . S
Tb760 O781 2.440 . S
Tb760 O782 2.658 . S
Tb760 O783 2.409 . S
Tb760 O784 2.378 . S
Tb760 O788 2.325 . S
Tb760 O791 2.341 . S
Tb761 C771 2.809 . S
Tb761 O782 2.325 . S
Tb761 O785 2.341 . S
Tb761 O786 2.484 . S
Tb761 O787 2.440 . S
Tb761 O788 2.658 . S
Tb761 O789 2.409 . S
Tb761 O790 2.378 . S
C762 Tb760 2.809 . S
C762 C763 1.514 . S
C762 O780 1.248 . S
C762 O781 1.266 . S
C763 C762 1.514 . S
C763 C764 1.359 . S
C763 C768 1.348 . S
C764 C763 1.359 . S
C764 C765 1.380 . S
C764 H792 0.929 . S
C765 C764 1.380 . S
C765 C766 1.347 . S
C765 H793 0.931 . S
C766 C765 1.347 . S
C766 C767 1.369 . S
C767 C766 1.369 . S
C767 C768 1.408 . S
C767 H794 0.930 . S
C768 C763 1.348 . S
C768 C767 1.408 . S
C768 H795 0.930 . S
C769 O782 1.281 . S
C769 O783 1.254 . S
C770 O784 1.236 . S
C770 O785 1.266 . S
C771 Tb761 2.809 . S
C771 C772 1.514 . S
C771 O786 1.248 . S
C771 O787 1.266 . S
C772 C771 1.514 . S
C772 C773 1.359 . S
C772 C777 1.348 . S
C773 C772 1.359 . S
C773 C774 1.380 . S
C773 H796 0.929 . S
C774 C773 1.380 . S
C774 C775 1.347 . S
C774 H797 0.931 . S
C775 C774 1.347 . S
C775 C776 1.369 . S
C776 C775 1.369 . S
C776 C777 1.408 . S
C776 H798 0.930 . S
C777 C772 1.348 . S
C777 C776 1.408 . S
C777 H799 0.930 . S
C778 O788 1.281 . S
C778 O789 1.254 . S
C779 O790 1.236 . S
C779 O791 1.266 . S
O780 Tb760 2.484 . S
O780 C762 1.248 . S
O781 Tb760 2.440 . S
O781 C762 1.266 . S
O782 Tb760 2.658 . S
O782 Tb761 2.325 . S
O782 C769 1.281 . S
O783 Tb760 2.409 . S
O783 C769 1.254 . S
O784 Tb760 2.378 . S
O784 C770 1.236 . S
O785 Tb761 2.341 . S
O785 C770 1.266 . S
O786 Tb761 2.484 . S
O786 C771 1.248 . S
O787 Tb761 2.440 . S
O787 C771 1.266 . S
O788 Tb760 2.325 . S
O788 Tb761 2.658 . S
O788 C778 1.281 . S
O789 Tb761 2.409 . S
O789 C778 1.254 . S
O790 Tb761 2.378 . S
O790 C779 1.236 . S
O791 Tb760 2.341 . S
O791 C779 1.266 . S
H792 C764 0.929 . S
H793 C765 0.931 . S
H794 C767 0.930 . S
H795 C768 0.930 . S
H796 C773 0.929 . S
H797 C774 0.931 . S
H798 C776 0.930 . S
H799 C777 0.930 . S
Tb800 C802 2.809 . S
Tb800 O820 2.484 . S
Tb800 O821 2.440 . S
Tb800 O822 2.658 . S
Tb800 O823 2.409 . S
Tb800 O824 2.378 . S
Tb800 O828 2.325 . S
Tb800 O831 2.341 . S
Tb801 C811 2.809 . S
Tb801 O822 2.325 . S
Tb801 O825 2.341 . S
Tb801 O826 2.484 . S
Tb801 O827 2.440 . S
Tb801 O828 2.658 . S
Tb801 O829 2.409 . S
Tb801 O830 2.378 . S
C802 Tb800 2.809 . S
C802 C803 1.514 . S
C802 O820 1.248 . S
C802 O821 1.266 . S
C803 C802 1.514 . S
C803 C804 1.359 . S
C803 C808 1.348 . S
C804 C803 1.359 . S
C804 C805 1.380 . S
C804 H832 0.929 . S
C805 C804 1.380 . S
C805 C806 1.347 . S
C805 H833 0.931 . S
C806 C805 1.347 . S
C806 C807 1.369 . S
C807 C806 1.369 . S
C807 C808 1.408 . S
C807 H834 0.930 . S
C808 C803 1.348 . S
C808 C807 1.408 . S
C808 H835 0.930 . S
C809 O822 1.281 . S
C809 O823 1.254 . S
C810 O824 1.236 . S
C810 O825 1.266 . S
C811 Tb801 2.809 . S
C811 C812 1.514 . S
C811 O826 1.248 . S
C811 O827 1.266 . S
C812 C811 1.514 . S
C812 C813 1.359 . S
C812 C817 1.348 . S
C813 C812 1.359 . S
C813 C814 1.380 . S
C813 H836 0.929 . S
C814 C813 1.380 . S
C814 C815 1.347 . S
C814 H837 0.931 . S
C815 C814 1.347 . S
C815 C816 1.369 . S
C816 C815 1.369 . S
C816 C817 1.408 . S
C816 H838 0.930 . S
C817 C812 1.348 . S
C817 C816 1.408 . S
C817 H839 0.930 . S
C818 O828 1.281 . S
C818 O829 1.254 . S
C819 O830 1.236 . S
C819 O831 1.266 . S
O820 Tb800 2.484 . S
O820 C802 1.248 . S
O821 Tb800 2.440 . S
O821 C802 1.266 . S
O822 Tb800 2.658 . S
O822 Tb801 2.325 . S
O822 C809 1.281 . S
O823 Tb800 2.409 . S
O823 C809 1.254 . S
O824 Tb800 2.378 . S
O824 C810 1.236 . S
O825 Tb801 2.341 . S
O825 C810 1.266 . S
O826 Tb801 2.484 . S
O826 C811 1.248 . S
O827 Tb801 2.440 . S
O827 C811 1.266 . S
O828 Tb800 2.325 . S
O828 Tb801 2.658 . S
O828 C818 1.281 . S
O829 Tb801 2.409 . S
O829 C818 1.254 . S
O830 Tb801 2.378 . S
O830 C819 1.236 . S
O831 Tb800 2.341 . S
O831 C819 1.266 . S
H832 C804 0.929 . S
H833 C805 0.931 . S
H834 C807 0.930 . S
H835 C808 0.930 . S
H836 C813 0.929 . S
H837 C814 0.931 . S
H838 C816 0.930 . S
H839 C817 0.930 . S
Tb840 C842 2.809 . S
Tb840 O860 2.484 . S
Tb840 O861 2.440 . S
Tb840 O862 2.658 . S
Tb840 O863 2.409 . S
Tb840 O864 2.378 . S
Tb840 O868 2.325 . S
Tb840 O871 2.341 . S
Tb841 C851 2.809 . S
Tb841 O862 2.325 . S
Tb841 O865 2.341 . S
Tb841 O866 2.484 . S
Tb841 O867 2.440 . S
Tb841 O868 2.658 . S
Tb841 O869 2.409 . S
Tb841 O870 2.378 . S
C842 Tb840 2.809 . S
C842 C843 1.514 . S
C842 O860 1.248 . S
C842 O861 1.266 . S
C843 C842 1.514 . S
C843 C844 1.359 . S
C843 C848 1.348 . S
C844 C843 1.359 . S
C844 C845 1.380 . S
C844 H872 0.929 . S
C845 C844 1.380 . S
C845 C846 1.347 . S
C845 H873 0.931 . S
C846 C845 1.347 . S
C846 C847 1.369 . S
C847 C846 1.369 . S
C847 C848 1.408 . S
C847 H874 0.930 . S
C848 C843 1.348 . S
C848 C847 1.408 . S
C848 H875 0.930 . S
C849 O862 1.281 . S
C849 O863 1.254 . S
C850 O864 1.236 . S
C850 O865 1.266 . S
C851 Tb841 2.809 . S
C851 C852 1.514 . S
C851 O866 1.248 . S
C851 O867 1.266 . S
C852 C851 1.514 . S
C852 C853 1.359 . S
C852 C857 1.348 . S
C853 C852 1.359 . S
C853 C854 1.380 . S
C853 H876 0.929 . S
C854 C853 1.380 . S
C854 C855 1.347 . S
C854 H877 0.931 . S
C855 C854 1.347 . S
C855 C856 1.369 . S
C856 C855 1.369 . S
C856 C857 1.408 . S
C856 H878 0.930 . S
C857 C852 1.348 . S
C857 C856 1.408 . S
C857 H879 0.930 . S
C858 O868 1.281 . S
C858 O869 1.254 . S
C859 O870 1.236 . S
C859 O871 1.266 . S
O860 Tb840 2.484 . S
O860 C842 1.248 . S
O861 Tb840 2.440 . S
O861 C842 1.266 . S
O862 Tb840 2.658 . S
O862 Tb841 2.325 . S
O862 C849 1.281 . S
O863 Tb840 2.409 . S
O863 C849 1.254 . S
O864 Tb840 2.378 . S
O864 C850 1.236 . S
O865 Tb841 2.341 . S
O865 C850 1.266 . S
O866 Tb841 2.484 . S
O866 C851 1.248 . S
O867 Tb841 2.440 . S
O867 C851 1.266 . S
O868 Tb840 2.325 . S
O868 Tb841 2.658 . S
O868 C858 1.281 . S
O869 Tb841 2.409 . S
O869 C858 1.254 . S
O870 Tb841 2.378 . S
O870 C859 1.236 . S
O871 Tb840 2.341 . S
O871 C859 1.266 . S
H872 C844 0.929 . S
H873 C845 0.931 . S
H874 C847 0.930 . S
H875 C848 0.930 . S
H876 C853 0.929 . S
H877 C854 0.931 . S
H878 C856 0.930 . S
H879 C857 0.930 . S
Tb880 C882 2.809 . S
Tb880 O900 2.484 . S
Tb880 O901 2.440 . S
Tb880 O902 2.658 . S
Tb880 O903 2.409 . S
Tb880 O904 2.378 . S
Tb880 O908 2.325 . S
Tb880 O911 2.341 . S
Tb881 C891 2.809 . S
Tb881 O902 2.325 . S
Tb881 O905 2.341 . S
Tb881 O906 2.484 . S
Tb881 O907 2.440 . S
Tb881 O908 2.658 . S
Tb881 O909 2.409 . S
Tb881 O910 2.378 . S
C882 Tb880 2.809 . S
C882 C883 1.514 . S
C882 O900 1.248 . S
C882 O901 1.266 . S
C883 C882 1.514 . S
C883 C884 1.359 . S
C883 C888 1.348 . S
C884 C883 1.359 . S
C884 C885 1.380 . S
C884 H912 0.929 . S
C885 C884 1.380 . S
C885 C886 1.347 . S
C885 H913 0.931 . S
C886 C885 1.347 . S
C886 C887 1.369 . S
C887 C886 1.369 . S
C887 C888 1.408 . S
C887 H914 0.930 . S
C888 C883 1.348 . S
C888 C887 1.408 . S
C888 H915 0.930 . S
C889 O902 1.281 . S
C889 O903 1.254 . S
C890 O904 1.236 . S
C890 O905 1.266 . S
C891 Tb881 2.809 . S
C891 C892 1.514 . S
C891 O906 1.248 . S
C891 O907 1.266 . S
C892 C891 1.514 . S
C892 C893 1.359 . S
C892 C897 1.348 . S
C893 C892 1.359 . S
C893 C894 1.380 . S
C893 H916 0.929 . S
C894 C893 1.380 . S
C894 C895 1.347 . S
C894 H917 0.931 . S
C895 C894 1.347 . S
C895 C896 1.369 . S
C896 C895 1.369 . S
C896 C897 1.408 . S
C896 H918 0.930 . S
C897 C892 1.348 . S
C897 C896 1.408 . S
C897 H919 0.930 . S
C898 O908 1.281 . S
C898 O909 1.254 . S
C899 O910 1.236 . S
C899 O911 1.266 . S
O900 Tb880 2.484 . S
O900 C882 1.248 . S
O901 Tb880 2.440 . S
O901 C882 1.266 . S
O902 Tb880 2.658 . S
O902 Tb881 2.325 . S
O902 C889 1.281 . S
O903 Tb880 2.409 . S
O903 C889 1.254 . S
O904 Tb880 2.378 . S
O904 C890 1.236 . S
O905 Tb881 2.341 . S
O905 C890 1.266 . S
O906 Tb881 2.484 . S
O906 C891 1.248 . S
O907 Tb881 2.440 . S
O907 C891 1.266 . S
O908 Tb880 2.325 . S
O908 Tb881 2.658 . S
O908 C898 1.281 . S
O909 Tb881 2.409 . S
O909 C898 1.254 . S
O910 Tb881 2.378 . S
O910 C899 1.236 . S
O911 Tb880 2.341 . S
O911 C899 1.266 . S
H912 C884 0.929 . S
H913 C885 0.931 . S
H914 C887 0.930 . S
H915 C888 0.930 . S
H916 C893 0.929 . S
H917 C894 0.931 . S
H918 C896 0.930 . S
H919 C897 0.930 . S
Tb920 C922 2.809 . S
Tb920 O940 2.484 . S
Tb920 O941 2.440 . S
Tb920 O942 2.658 . S
Tb920 O943 2.409 . S
Tb920 O944 2.378 . S
Tb920 O948 2.325 . S
Tb920 O951 2.341 . S
Tb921 C931 2.809 . S
Tb921 O942 2.325 . S
Tb921 O945 2.341 . S
Tb921 O946 2.484 . S
Tb921 O947 2.440 . S
Tb921 O948 2.658 . S
Tb921 O949 2.409 . S
Tb921 O950 2.378 . S
C922 Tb920 2.809 . S
C922 C923 1.514 . S
C922 O940 1.248 . S
C922 O941 1.266 . S
C923 C922 1.514 . S
C923 C924 1.359 . S
C923 C928 1.348 . S
C924 C923 1.359 . S
C924 C925 1.380 . S
C924 H952 0.929 . S
C925 C924 1.380 . S
C925 C926 1.347 . S
C925 H953 0.931 . S
C926 C925 1.347 . S
C926 C927 1.369 . S
C927 C926 1.369 . S
C927 C928 1.408 . S
C927 H954 0.930 . S
C928 C923 1.348 . S
C928 C927 1.408 . S
C928 H955 0.930 . S
C929 O942 1.281 . S
C929 O943 1.254 . S
C930 O944 1.236 . S
C930 O945 1.266 . S
C931 Tb921 2.809 . S
C931 C932 1.514 . S
C931 O946 1.248 . S
C931 O947 1.266 . S
C932 C931 1.514 . S
C932 C933 1.359 . S
C932 C937 1.348 . S
C933 C932 1.359 . S
C933 C934 1.380 . S
C933 H956 0.929 . S
C934 C933 1.380 . S
C934 C935 1.347 . S
C934 H957 0.931 . S
C935 C934 1.347 . S
C935 C936 1.369 . S
C936 C935 1.369 . S
C936 C937 1.408 . S
C936 H958 0.930 . S
C937 C932 1.348 . S
C937 C936 1.408 . S
C937 H959 0.930 . S
C938 O948 1.281 . S
C938 O949 1.254 . S
C939 O950 1.236 . S
C939 O951 1.266 . S
O940 Tb920 2.484 . S
O940 C922 1.248 . S
O941 Tb920 2.440 . S
O941 C922 1.266 . S
O942 Tb920 2.658 . S
O942 Tb921 2.325 . S
O942 C929 1.281 . S
O943 Tb920 2.409 . S
O943 C929 1.254 . S
O944 Tb920 2.378 . S
O944 C930 1.236 . S
O945 Tb921 2.341 . S
O945 C930 1.266 . S
O946 Tb921 2.484 . S
O946 C931 1.248 . S
O947 Tb921 2.440 . S
O947 C931 1.266 . S
O948 Tb920 2.325 . S
O948 Tb921 2.658 . S
O948 C938 1.281 . S
O949 Tb921 2.409 . S
O949 C938 1.254 . S
O950 Tb921 2.378 . S
O950 C939 1.236 . S
O951 Tb920 2.341 . S
O951 C939 1.266 . S
H952 C924 0.929 . S
H953 C925 0.931 . S
H954 C927 0.930 . S
H955 C928 0.930 . S
H956 C933 0.929 . S
H957 C934 0.931 . S
H958 C936 0.930 . S
H959 C937 0.930 . S
Tb960 C962 2.809 . S
Tb960 O980 2.484 . S
Tb960 O981 2.440 . S
Tb960 O982 2.658 . S
Tb960 O983 2.409 . S
Tb960 O984 2.378 . S
Tb960 O988 2.325 . S
Tb960 O991 2.341 . S
Tb961 C971 2.809 . S
Tb961 O982 2.325 . S
Tb961 O985 2.341 . S
Tb961 O986 2.484 . S
Tb961 O987 2.440 . S
Tb961 O988 2.658 . S
Tb961 O989 2.409 . S
Tb961 O990 2.378 . S
C962 Tb960 2.809 . S
C962 C963 1.514 . S
C962 O980 1.248 . S
C962 O981 1.266 . S
C963 C962 1.514 . S
C963 C964 1.359 . S
C963 C968 1.348 . S
C964 C963 1.359 . S
C964 C965 1.380 . S
C964 H992 0.929 . S
C965 C964 1.380 . S
C965 C966 1.347 . S
C965 H993 0.931 . S
C966 C965 1.347 . S
C966 C967 1.369 . S
C967 C966 1.369 . S
C967 C968 1.408 . S
C967 H994 0.930 . S
C968 C963 1.348 . S
C968 C967 1.408 . S
C968 H995 0.930 . S
C969 O982 1.281 . S
C969 O983 1.254 . S
C970 O984 1.236 . S
C970 O985 1.266 . S
C971 Tb961 2.809 . S
C971 C972 1.514 . S
C971 O986 1.248 . S
C971 O987 1.266 . S
C972 C971 1.514 . S
C972 C973 1.359 . S
C972 C977 1.348 . S
C973 C972 1.359 . S
C973 C974 1.380 . S
C973 H996 0.929 . S
C974 C973 1.380 . S
C974 C975 1.347 . S
C974 H997 0.931 . S
C975 C974 1.347 . S
C975 C976 1.369 . S
C976 C975 1.369 . S
C976 C977 1.408 . S
C976 H998 0.930 . S
C977 C972 1.348 . S
C977 C976 1.408 . S
C977 H999 0.930 . S
C978 O988 1.281 . S
C978 O989 1.254 . S
C979 O990 1.236 . S
C979 O991 1.266 . S
O980 Tb960 2.484 . S
O980 C962 1.248 . S
O981 Tb960 2.440 . S
O981 C962 1.266 . S
O982 Tb960 2.658 . S
O982 Tb961 2.325 . S
O982 C969 1.281 . S
O983 Tb960 2.409 . S
O983 C969 1.254 . S
O984 Tb960 2.378 . S
O984 C970 1.236 . S
O985 Tb961 2.341 . S
O985 C970 1.266 . S
O986 Tb961 2.484 . S
O986 C971 1.248 . S
O987 Tb961 2.440 . S
O987 C971 1.266 . S
O988 Tb960 2.325 . S
O988 Tb961 2.658 . S
O988 C978 1.281 . S
O989 Tb961 2.409 . S
O989 C978 1.254 . S
O990 Tb961 2.378 . S
O990 C979 1.236 . S
O991 Tb960 2.341 . S
O991 C979 1.266 . S
H992 C964 0.929 . S
H993 C965 0.931 . S
H994 C967 0.930 . S
H995 C968 0.930 . S
H996 C973 0.929 . S
H997 C974 0.931 . S
H998 C976 0.930 . S
H999 C977 0.930 . S
Tb1000 C1002 2.809 . S
Tb1000 O1020 2.484 . S
Tb1000 O1021 2.440 . S
Tb1000 O1022 2.658 . S
Tb1000 O1023 2.409 . S
Tb1000 O1024 2.378 . S
Tb1000 O1028 2.325 . S
Tb1000 O1031 2.341 . S
Tb1001 C1011 2.809 . S
Tb1001 O1022 2.325 . S
Tb1001 O1025 2.341 . S
Tb1001 O1026 2.484 . S
Tb1001 O1027 2.440 . S
Tb1001 O1028 2.658 . S
Tb1001 O1029 2.409 . S
Tb1001 O1030 2.378 . S
C1002 Tb1000 2.809 . S
C1002 C1003 1.514 . S
C1002 O1020 1.248 . S
C1002 O1021 1.266 . S
C1003 C1002 1.514 . S
C1003 C1004 1.359 . S
C1003 C1008 1.348 . S
C1004 C1003 1.359 . S
C1004 C1005 1.380 . S
C1004 H1032 0.929 . S
C1005 C1004 1.380 . S
C1005 C1006 1.347 . S
C1005 H1033 0.931 . S
C1006 C1005 1.347 . S
C1006 C1007 1.369 . S
C1007 C1006 1.369 . S
C1007 C1008 1.408 . S
C1007 H1034 0.930 . S
C1008 C1003 1.348 . S
C1008 C1007 1.408 . S
C1008 H1035 0.930 . S
C1009 O1022 1.281 . S
C1009 O1023 1.254 . S
C1010 O1024 1.236 . S
C1010 O1025 1.266 . S
C1011 Tb1001 2.809 . S
C1011 C1012 1.514 . S
C1011 O1026 1.248 . S
C1011 O1027 1.266 . S
C1012 C1011 1.514 . S
C1012 C1013 1.359 . S
C1012 C1017 1.348 . S
C1013 C1012 1.359 . S
C1013 C1014 1.380 . S
C1013 H1036 0.929 . S
C1014 C1013 1.380 . S
C1014 C1015 1.347 . S
C1014 H1037 0.931 . S
C1015 C1014 1.347 . S
C1015 C1016 1.369 . S
C1016 C1015 1.369 . S
C1016 C1017 1.408 . S
C1016 H1038 0.930 . S
C1017 C1012 1.348 . S
C1017 C1016 1.408 . S
C1017 H1039 0.930 . S
C1018 O1028 1.281 . S
C1018 O1029 1.254 . S
C1019 O1030 1.236 . S
C1019 O1031 1.266 . S
O1020 Tb1000 2.484 . S
O1020 C1002 1.248 . S
O1021 Tb1000 2.440 . S
O1021 C1002 1.266 . S
O1022 Tb1000 2.658 . S
O1022 Tb1001 2.325 . S
O1022 C1009 1.281 . S
O1023 Tb1000 2.409 . S
O1023 C1009 1.254 . S
O1024 Tb1000 2.378 . S
O1024 C1010 1.236 . S
O1025 Tb1001 2.341 . S
O1025 C1010 1.266 . S
O1026 Tb1001 2.484 . S
O1026 C1011 1.248 . S
O1027 Tb1001 2.440 . S
O1027 C1011 1.266 . S
O1028 Tb1000 2.325 . S
O1028 Tb1001 2.658 . S
O1028 C1018 1.281 . S
O1029 Tb1001 2.409 . S
O1029 C1018 1.254 . S
O1030 Tb1001 2.378 . S
O1030 C1019 1.236 . S
O1031 Tb1000 2.341 . S
O1031 C1019 1.266 . S
H1032 C1004 0.929 . S
H1033 C1005 0.931 . S
H1034 C1007 0.930 . S
H1035 C1008 0.930 . S
H1036 C1013 0.929 . S
H1037 C1014 0.931 . S
H1038 C1016 0.930 . S
H1039 C1017 0.930 . S
Tb1040 C1042 2.809 . S
Tb1040 O1060 2.484 . S
Tb1040 O1061 2.440 . S
Tb1040 O1062 2.658 . S
Tb1040 O1063 2.409 . S
Tb1040 O1064 2.378 . S
Tb1040 O1068 2.325 . S
Tb1040 O1071 2.341 . S
Tb1041 C1051 2.809 . S
Tb1041 O1062 2.325 . S
Tb1041 O1065 2.341 . S
Tb1041 O1066 2.484 . S
Tb1041 O1067 2.440 . S
Tb1041 O1068 2.658 . S
Tb1041 O1069 2.409 . S
Tb1041 O1070 2.378 . S
C1042 Tb1040 2.809 . S
C1042 C1043 1.514 . S
C1042 O1060 1.248 . S
C1042 O1061 1.266 . S
C1043 C1042 1.514 . S
C1043 C1044 1.359 . S
C1043 C1048 1.348 . S
C1044 C1043 1.359 . S
C1044 C1045 1.380 . S
C1044 H1072 0.929 . S
C1045 C1044 1.380 . S
C1045 C1046 1.347 . S
C1045 H1073 0.931 . S
C1046 C1045 1.347 . S
C1046 C1047 1.369 . S
C1047 C1046 1.369 . S
C1047 C1048 1.408 . S
C1047 H1074 0.930 . S
C1048 C1043 1.348 . S
C1048 C1047 1.408 . S
C1048 H1075 0.930 . S
C1049 O1062 1.281 . S
C1049 O1063 1.254 . S
C1050 O1064 1.236 . S
C1050 O1065 1.266 . S
C1051 Tb1041 2.809 . S
C1051 C1052 1.514 . S
C1051 O1066 1.248 . S
C1051 O1067 1.266 . S
C1052 C1051 1.514 . S
C1052 C1053 1.359 . S
C1052 C1057 1.348 . S
C1053 C1052 1.359 . S
C1053 C1054 1.380 . S
C1053 H1076 0.929 . S
C1054 C1053 1.380 . S
C1054 C1055 1.347 . S
C1054 H1077 0.931 . S
C1055 C1054 1.347 . S
C1055 C1056 1.369 . S
C1056 C1055 1.369 . S
C1056 C1057 1.408 . S
C1056 H1078 0.930 . S
C1057 C1052 1.348 . S
C1057 C1056 1.408 . S
C1057 H1079 0.930 . S
C1058 O1068 1.281 . S
C1058 O1069 1.254 . S
C1059 O1070 1.236 . S
C1059 O1071 1.266 . S
O1060 Tb1040 2.484 . S
O1060 C1042 1.248 . S
O1061 Tb1040 2.440 . S
O1061 C1042 1.266 . S
O1062 Tb1040 2.658 . S
O1062 Tb1041 2.325 . S
O1062 C1049 1.281 . S
O1063 Tb1040 2.409 . S
O1063 C1049 1.254 . S
O1064 Tb1040 2.378 . S
O1064 C1050 1.236 . S
O1065 Tb1041 2.341 . S
O1065 C1050 1.266 . S
O1066 Tb1041 2.484 . S
O1066 C1051 1.248 . S
O1067 Tb1041 2.440 . S
O1067 C1051 1.266 . S
O1068 Tb1040 2.325 . S
O1068 Tb1041 2.658 . S
O1068 C1058 1.281 . S
O1069 Tb1041 2.409 . S
O1069 C1058 1.254 . S
O1070 Tb1041 2.378 . S
O1070 C1059 1.236 . S
O1071 Tb1040 2.341 . S
O1071 C1059 1.266 . S
H1072 C1044 0.929 . S
H1073 C1045 0.931 . S
H1074 C1047 0.930 . S
H1075 C1048 0.930 . S
H1076 C1053 0.929 . S
H1077 C1054 0.931 . S
H1078 C1056 0.930 . S
H1079 C1057 0.930 . S
Tb1080 C1082 2.809 . S
Tb1080 O1100 2.484 . S
Tb1080 O1101 2.440 . S
Tb1080 O1102 2.658 . S
Tb1080 O1103 2.409 . S
Tb1080 O1104 2.378 . S
Tb1080 O1108 2.325 . S
Tb1080 O1111 2.341 . S
Tb1081 C1091 2.809 . S
Tb1081 O1102 2.325 . S
Tb1081 O1105 2.341 . S
Tb1081 O1106 2.484 . S
Tb1081 O1107 2.440 . S
Tb1081 O1108 2.658 . S
Tb1081 O1109 2.409 . S
Tb1081 O1110 2.378 . S
C1082 Tb1080 2.809 . S
C1082 C1083 1.514 . S
C1082 O1100 1.248 . S
C1082 O1101 1.266 . S
C1083 C1082 1.514 . S
C1083 C1084 1.359 . S
C1083 C1088 1.348 . S
C1084 C1083 1.359 . S
C1084 C1085 1.380 . S
C1084 H1112 0.929 . S
C1085 C1084 1.380 . S
C1085 C1086 1.347 . S
C1085 H1113 0.931 . S
C1086 C1085 1.347 . S
C1086 C1087 1.369 . S
C1087 C1086 1.369 . S
C1087 C1088 1.408 . S
C1087 H1114 0.930 . S
C1088 C1083 1.348 . S
C1088 C1087 1.408 . S
C1088 H1115 0.930 . S
C1089 O1102 1.281 . S
C1089 O1103 1.254 . S
C1090 O1104 1.236 . S
C1090 O1105 1.266 . S
C1091 Tb1081 2.809 . S
C1091 C1092 1.514 . S
C1091 O1106 1.248 . S
C1091 O1107 1.266 . S
C1092 C1091 1.514 . S
C1092 C1093 1.359 . S
C1092 C1097 1.348 . S
C1093 C1092 1.359 . S
C1093 C1094 1.380 . S
C1093 H1116 0.929 . S
C1094 C1093 1.380 . S
C1094 C1095 1.347 . S
C1094 H1117 0.931 . S
C1095 C1094 1.347 . S
C1095 C1096 1.369 . S
C1096 C1095 1.369 . S
C1096 C1097 1.408 . S
C1096 H1118 0.930 . S
C1097 C1092 1.348 . S
C1097 C1096 1.408 . S
C1097 H1119 0.930 . S
C1098 O1108 1.281 . S
C1098 O1109 1.254 . S
C1099 O1110 1.236 . S
C1099 O1111 1.266 . S
O1100 Tb1080 2.484 . S
O1100 C1082 1.248 . S
O1101 Tb1080 2.440 . S
O1101 C1082 1.266 . S
O1102 Tb1080 2.658 . S
O1102 Tb1081 2.325 . S
O1102 C1089 1.281 . S
O1103 Tb1080 2.409 . S
O1103 C1089 1.254 . S
O1104 Tb1080 2.378 . S
O1104 C1090 1.236 . S
O1105 Tb1081 2.341 . S
O1105 C1090 1.266 . S
O1106 Tb1081 2.484 . S
O1106 C1091 1.248 . S
O1107 Tb1081 2.440 . S
O1107 C1091 1.266 . S
O1108 Tb1080 2.325 . S
O1108 Tb1081 2.658 . S
O1108 C1098 1.281 . S
O1109 Tb1081 2.409 . S
O1109 C1098 1.254 . S
O1110 Tb1081 2.378 . S
O1110 C1099 1.236 . S
O1111 Tb1080 2.341 . S
O1111 C1099 1.266 . S
H1112 C1084 0.929 . S
H1113 C1085 0.931 . S
H1114 C1087 0.930 . S
H1115 C1088 0.930 . S
H1116 C1093 0.929 . S
H1117 C1094 0.931 . S
H1118 C1096 0.930 . S
H1119 C1097 0.930 . S
Tb1120 C1122 2.809 . S
Tb1120 O1140 2.484 . S
Tb1120 O1141 2.440 . S
Tb1120 O1142 2.658 . S
Tb1120 O1143 2.409 . S
Tb1120 O1144 2.378 . S
Tb1120 O1148 2.325 . S
Tb1120 O1151 2.341 . S
Tb1121 C1131 2.809 . S
Tb1121 O1142 2.325 . S
Tb1121 O1145 2.341 . S
Tb1121 O1146 2.484 . S
Tb1121 O1147 2.440 . S
Tb1121 O1148 2.658 . S
Tb1121 O1149 2.409 . S
Tb1121 O1150 2.378 . S
C1122 Tb1120 2.809 . S
C1122 C1123 1.514 . S
C1122 O1140 1.248 . S
C1122 O1141 1.266 . S
C1123 C1122 1.514 . S
C1123 C1124 1.359 . S
C1123 C1128 1.348 . S
C1124 C1123 1.359 . S
C1124 C1125 1.380 . S
C1124 H1152 0.929 . S
C1125 C1124 1.380 . S
C1125 C1126 1.347 . S
C1125 H1153 0.931 . S
C1126 C1125 1.347 . S
C1126 C1127 1.369 . S
C1127 C1126 1.369 . S
C1127 C1128 1.408 . S
C1127 H1154 0.930 . S
C1128 C1123 1.348 . S
C1128 C1127 1.408 . S
C1128 H1155 0.930 . S
C1129 O1142 1.281 . S
C1129 O1143 1.254 . S
C1130 O1144 1.236 . S
C1130 O1145 1.266 . S
C1131 Tb1121 2.809 . S
C1131 C1132 1.514 . S
C1131 O1146 1.248 . S
C1131 O1147 1.266 . S
C1132 C1131 1.514 . S
C1132 C1133 1.359 . S
C1132 C1137 1.348 . S
C1133 C1132 1.359 . S
C1133 C1134 1.380 . S
C1133 H1156 0.929 . S
C1134 C1133 1.380 . S
C1134 C1135 1.347 . S
C1134 H1157 0.931 . S
C1135 C1134 1.347 . S
C1135 C1136 1.369 . S
C1136 C1135 1.369 . S
C1136 C1137 1.408 . S
C1136 H1158 0.930 . S
C1137 C1132 1.348 . S
C1137 C1136 1.408 . S
C1137 H1159 0.930 . S
C1138 O1148 1.281 . S
C1138 O1149 1.254 . S
C1139 O1150 1.236 . S
C1139 O1151 1.266 . S
O1140 Tb1120 2.484 . S
O1140 C1122 1.248 . S
O1141 Tb1120 2.440 . S
O1141 C1122 1.266 . S
O1142 Tb1120 2.658 . S
O1142 Tb1121 2.325 . S
O1142 C1129 1.281 . S
O1143 Tb1120 2.409 . S
O1143 C1129 1.254 . S
O1144 Tb1120 2.378 . S
O1144 C1130 1.236 . S
O1145 Tb1121 2.341 . S
O1145 C1130 1.266 . S
O1146 Tb1121 2.484 . S
O1146 C1131 1.248 . S
O1147 Tb1121 2.440 . S
O1147 C1131 1.266 . S
O1148 Tb1120 2.325 . S
O1148 Tb1121 2.658 . S
O1148 C1138 1.281 . S
O1149 Tb1121 2.409 . S
O1149 C1138 1.254 . S
O1150 Tb1121 2.378 . S
O1150 C1139 1.236 . S
O1151 Tb1120 2.341 . S
O1151 C1139 1.266 . S
H1152 C1124 0.929 . S
H1153 C1125 0.931 . S
H1154 C1127 0.930 . S
H1155 C1128 0.930 . S
H1156 C1133 0.929 . S
H1157 C1134 0.931 . S
H1158 C1136 0.930 . S
H1159 C1137 0.930 . S
Tb1160 C1162 2.809 . S
Tb1160 O1180 2.484 . S
Tb1160 O1181 2.440 . S
Tb1160 O1182 2.658 . S
Tb1160 O1183 2.409 . S
Tb1160 O1184 2.378 . S
Tb1160 O1188 2.325 . S
Tb1160 O1191 2.341 . S
Tb1161 C1171 2.809 . S
Tb1161 O1182 2.325 . S
Tb1161 O1185 2.341 . S
Tb1161 O1186 2.484 . S
Tb1161 O1187 2.440 . S
Tb1161 O1188 2.658 . S
Tb1161 O1189 2.409 . S
Tb1161 O1190 2.378 . S
C1162 Tb1160 2.809 . S
C1162 C1163 1.514 . S
C1162 O1180 1.248 . S
C1162 O1181 1.266 . S
C1163 C1162 1.514 . S
C1163 C1164 1.359 . S
C1163 C1168 1.348 . S
C1164 C1163 1.359 . S
C1164 C1165 1.380 . S
C1164 H1192 0.929 . S
C1165 C1164 1.380 . S
C1165 C1166 1.347 . S
C1165 H1193 0.931 . S
C1166 C1165 1.347 . S
C1166 C1167 1.369 . S
C1167 C1166 1.369 . S
C1167 C1168 1.408 . S
C1167 H1194 0.930 . S
C1168 C1163 1.348 . S
C1168 C1167 1.408 . S
C1168 H1195 0.930 . S
C1169 O1182 1.281 . S
C1169 O1183 1.254 . S
C1170 O1184 1.236 . S
C1170 O1185 1.266 . S
C1171 Tb1161 2.809 . S
C1171 C1172 1.514 . S
C1171 O1186 1.248 . S
C1171 O1187 1.266 . S
C1172 C1171 1.514 . S
C1172 C1173 1.359 . S
C1172 C1177 1.348 . S
C1173 C1172 1.359 . S
C1173 C1174 1.380 . S
C1173 H1196 0.929 . S
C1174 C1173 1.380 . S
C1174 C1175 1.347 . S
C1174 H1197 0.931 . S
C1175 C1174 1.347 . S
C1175 C1176 1.369 . S
C1176 C1175 1.369 . S
C1176 C1177 1.408 . S
C1176 H1198 0.930 . S
C1177 C1172 1.348 . S
C1177 C1176 1.408 . S
C1177 H1199 0.930 . S
C1178 O1188 1.281 . S
C1178 O1189 1.254 . S
C1179 O1190 1.236 . S
C1179 O1191 1.266 . S
O1180 Tb1160 2.484 . S
O1180 C1162 1.248 . S
O1181 Tb1160 2.440 . S
O1181 C1162 1.266 . S
O1182 Tb1160 2.658 . S
O1182 Tb1161 2.325 . S
O1182 C1169 1.281 . S
O1183 Tb1160 2.409 . S
O1183 C1169 1.254 . S
O1184 Tb1160 2.378 . S
O1184 C1170 1.236 . S
O1185 Tb1161 2.341 . S
O1185 C1170 1.266 . S
O1186 Tb1161 2.484 . S
O1186 C1171 1.248 . S
O1187 Tb1161 2.440 . S
O1187 C1171 1.266 . S
O1188 Tb1160 2.325 . S
O1188 Tb1161 2.658 . S
O1188 C1178 1.281 . S
O1189 Tb1161 2.409 . S
O1189 C1178 1.254 . S
O1190 Tb1161 2.378 . S
O1190 C1179 1.236 . S
O1191 Tb1160 2.341 . S
O1191 C1179 1.266 . S
H1192 C1164 0.929 . S
H1193 C1165 0.931 . S
H1194 C1167 0.930 . S
H1195 C1168 0.930 . S
H1196 C1173 0.929 . S
H1197 C1174 0.931 . S
H1198 C1176 0.930 . S
H1199 C1177 0.930 . S
Tb1200 C1202 2.809 . S
Tb1200 O1220 2.484 . S
Tb1200 O1221 2.440 . S
Tb1200 O1222 2.658 . S
Tb1200 O1223 2.409 . S
Tb1200 O1224 2.378 . S
Tb1200 O1228 2.325 . S
Tb1200 O1231 2.341 . S
Tb1201 C1211 2.809 . S
Tb1201 O1222 2.325 . S
Tb1201 O1225 2.341 . S
Tb1201 O1226 2.484 . S
Tb1201 O1227 2.440 . S
Tb1201 O1228 2.658 . S
Tb1201 O1229 2.409 . S
Tb1201 O1230 2.378 . S
C1202 Tb1200 2.809 . S
C1202 C1203 1.514 . S
C1202 O1220 1.248 . S
C1202 O1221 1.266 . S
C1203 C1202 1.514 . S
C1203 C1204 1.359 . S
C1203 C1208 1.348 . S
C1204 C1203 1.359 . S
C1204 C1205 1.380 . S
C1204 H1232 0.929 . S
C1205 C1204 1.380 . S
C1205 C1206 1.347 . S
C1205 H1233 0.931 . S
C1206 C1205 1.347 . S
C1206 C1207 1.369 . S
C1207 C1206 1.369 . S
C1207 C1208 1.408 . S
C1207 H1234 0.930 . S
C1208 C1203 1.348 . S
C1208 C1207 1.408 . S
C1208 H1235 0.930 . S
C1209 O1222 1.281 . S
C1209 O1223 1.254 . S
C1210 O1224 1.236 . S
C1210 O1225 1.266 . S
C1211 Tb1201 2.809 . S
C1211 C1212 1.514 . S
C1211 O1226 1.248 . S
C1211 O1227 1.266 . S
C1212 C1211 1.514 . S
C1212 C1213 1.359 . S
C1212 C1217 1.348 . S
C1213 C1212 1.359 . S
C1213 C1214 1.380 . S
C1213 H1236 0.929 . S
C1214 C1213 1.380 . S
C1214 C1215 1.347 . S
C1214 H1237 0.931 . S
C1215 C1214 1.347 . S
C1215 C1216 1.369 . S
C1216 C1215 1.369 . S
C1216 C1217 1.408 . S
C1216 H1238 0.930 . S
C1217 C1212 1.348 . S
C1217 C1216 1.408 . S
C1217 H1239 0.930 . S
C1218 O1228 1.281 . S
C1218 O1229 1.254 . S
C1219 O1230 1.236 . S
C1219 O1231 1.266 . S
O1220 Tb1200 2.484 . S
O1220 C1202 1.248 . S
O1221 Tb1200 2.440 . S
O1221 C1202 1.266 . S
O1222 Tb1200 2.658 . S
O1222 Tb1201 2.325 . S
O1222 C1209 1.281 . S
O1223 Tb1200 2.409 . S
O1223 C1209 1.254 . S
O1224 Tb1200 2.378 . S
O1224 C1210 1.236 . S
O1225 Tb1201 2.341 . S
O1225 C1210 1.266 . S
O1226 Tb1201 2.484 . S
O1226 C1211 1.248 . S
O1227 Tb1201 2.440 . S
O1227 C1211 1.266 . S
O1228 Tb1200 2.325 . S
O1228 Tb1201 2.658 . S
O1228 C1218 1.281 . S
O1229 Tb1201 2.409 . S
O1229 C1218 1.254 . S
O1230 Tb1201 2.378 . S
O1230 C1219 1.236 . S
O1231 Tb1200 2.341 . S
O1231 C1219 1.266 . S
H1232 C1204 0.929 . S
H1233 C1205 0.931 . S
H1234 C1207 0.930 . S
H1235 C1208 0.930 . S
H1236 C1213 0.929 . S
H1237 C1214 0.931 . S
H1238 C1216 0.930 . S
H1239 C1217 0.930 . S
Tb1240 C1242 2.809 . S
Tb1240 O1260 2.484 . S
Tb1240 O1261 2.440 . S
Tb1240 O1262 2.658 . S
Tb1240 O1263 2.409 . S
Tb1240 O1264 2.378 . S
Tb1240 O1268 2.325 . S
Tb1240 O1271 2.341 . S
Tb1241 C1251 2.809 . S
Tb1241 O1262 2.325 . S
Tb1241 O1265 2.341 . S
Tb1241 O1266 2.484 . S
Tb1241 O1267 2.440 . S
Tb1241 O1268 2.658 . S
Tb1241 O1269 2.409 . S
Tb1241 O1270 2.378 . S
C1242 Tb1240 2.809 . S
C1242 C1243 1.514 . S
C1242 O1260 1.248 . S
C1242 O1261 1.266 . S
C1243 C1242 1.514 . S
C1243 C1244 1.359 . S
C1243 C1248 1.348 . S
C1244 C1243 1.359 . S
C1244 C1245 1.380 . S
C1244 H1272 0.929 . S
C1245 C1244 1.380 . S
C1245 C1246 1.347 . S
C1245 H1273 0.931 . S
C1246 C1245 1.347 . S
C1246 C1247 1.369 . S
C1247 C1246 1.369 . S
C1247 C1248 1.408 . S
C1247 H1274 0.930 . S
C1248 C1243 1.348 . S
C1248 C1247 1.408 . S
C1248 H1275 0.930 . S
C1249 O1262 1.281 . S
C1249 O1263 1.254 . S
C1250 O1264 1.236 . S
C1250 O1265 1.266 . S
C1251 Tb1241 2.809 . S
C1251 C1252 1.514 . S
C1251 O1266 1.248 . S
C1251 O1267 1.266 . S
C1252 C1251 1.514 . S
C1252 C1253 1.359 . S
C1252 C1257 1.348 . S
C1253 C1252 1.359 . S
C1253 C1254 1.380 . S
C1253 H1276 0.929 . S
C1254 C1253 1.380 . S
C1254 C1255 1.347 . S
C1254 H1277 0.931 . S
C1255 C1254 1.347 . S
C1255 C1256 1.369 . S
C1256 C1255 1.369 . S
C1256 C1257 1.408 . S
C1256 H1278 0.930 . S
C1257 C1252 1.348 . S
C1257 C1256 1.408 . S
C1257 H1279 0.930 . S
C1258 O1268 1.281 . S
C1258 O1269 1.254 . S
C1259 O1270 1.236 . S
C1259 O1271 1.266 . S
O1260 Tb1240 2.484 . S
O1260 C1242 1.248 . S
O1261 Tb1240 2.440 . S
O1261 C1242 1.266 . S
O1262 Tb1240 2.658 . S
O1262 Tb1241 2.325 . S
O1262 C1249 1.281 . S
O1263 Tb1240 2.409 . S
O1263 C1249 1.254 . S
O1264 Tb1240 2.378 . S
O1264 C1250 1.236 . S
O1265 Tb1241 2.341 . S
O1265 C1250 1.266 . S
O1266 Tb1241 2.484 . S
O1266 C1251 1.248 . S
O1267 Tb1241 2.440 . S
O1267 C1251 1.266 . S
O1268 Tb1240 2.325 . S
O1268 Tb1241 2.658 . S
O1268 C1258 1.281 . S
O1269 Tb1241 2.409 . S
O1269 C1258 1.254 . S
O1270 Tb1241 2.378 . S
O1270 C1259 1.236 . S
O1271 Tb1240 2.341 . S
O1271 C1259 1.266 . S
H1272 C1244 0.929 . S
H1273 C1245 0.931 . S
H1274 C1247 0.930 . S
H1275 C1248 0.930 . S
H1276 C1253 0.929 . S
H1277 C1254 0.931 . S
H1278 C1256 0.930 . S
H1279 C1257 0.930 . S
Tb1280 C1282 2.809 . S
Tb1280 O1300 2.484 . S
Tb1280 O1301 2.440 . S
Tb1280 O1302 2.658 . S
Tb1280 O1303 2.409 . S
Tb1280 O1304 2.378 . S
Tb1280 O1308 2.325 . S
Tb1280 O1311 2.341 . S
Tb1281 C1291 2.809 . S
Tb1281 O1302 2.325 . S
Tb1281 O1305 2.341 . S
Tb1281 O1306 2.484 . S
Tb1281 O1307 2.440 . S
Tb1281 O1308 2.658 . S
Tb1281 O1309 2.409 . S
Tb1281 O1310 2.378 . S
C1282 Tb1280 2.809 . S
C1282 C1283 1.514 . S
C1282 O1300 1.248 . S
C1282 O1301 1.266 . S
C1283 C1282 1.514 . S
C1283 C1284 1.359 . S
C1283 C1288 1.348 . S
C1284 C1283 1.359 . S
C1284 C1285 1.380 . S
C1284 H1312 0.929 . S
C1285 C1284 1.380 . S
C1285 C1286 1.347 . S
C1285 H1313 0.931 . S
C1286 C1285 1.347 . S
C1286 C1287 1.369 . S
C1287 C1286 1.369 . S
C1287 C1288 1.408 . S
C1287 H1314 0.930 . S
C1288 C1283 1.348 . S
C1288 C1287 1.408 . S
C1288 H1315 0.930 . S
C1289 O1302 1.281 . S
C1289 O1303 1.254 . S
C1290 O1304 1.236 . S
C1290 O1305 1.266 . S
C1291 Tb1281 2.809 . S
C1291 C1292 1.514 . S
C1291 O1306 1.248 . S
C1291 O1307 1.266 . S
C1292 C1291 1.514 . S
C1292 C1293 1.359 . S
C1292 C1297 1.348 . S
C1293 C1292 1.359 . S
C1293 C1294 1.380 . S
C1293 H1316 0.929 . S
C1294 C1293 1.380 . S
C1294 C1295 1.347 . S
C1294 H1317 0.931 . S
C1295 C1294 1.347 . S
C1295 C1296 1.369 . S
C1296 C1295 1.369 . S
C1296 C1297 1.408 . S
C1296 H1318 0.930 . S
C1297 C1292 1.348 . S
C1297 C1296 1.408 . S
C1297 H1319 0.930 . S
C1298 O1308 1.281 . S
C1298 O1309 1.254 . S
C1299 O1310 1.236 . S
C1299 O1311 1.266 . S
O1300 Tb1280 2.484 . S
O1300 C1282 1.248 . S
O1301 Tb1280 2.440 . S
O1301 C1282 1.266 . S
O1302 Tb1280 2.658 . S
O1302 Tb1281 2.325 . S
O1302 C1289 1.281 . S
O1303 Tb1280 2.409 . S
O1303 C1289 1.254 . S
O1304 Tb1280 2.378 . S
O1304 C1290 1.236 . S
O1305 Tb1281 2.341 . S
O1305 C1290 1.266 . S
O1306 Tb1281 2.484 . S
O1306 C1291 1.248 . S
O1307 Tb1281 2.440 . S
O1307 C1291 1.266 . S
O1308 Tb1280 2.325 . S
O1308 Tb1281 2.658 . S
O1308 C1298 1.281 . S
O1309 Tb1281 2.409 . S
O1309 C1298 1.254 . S
O1310 Tb1281 2.378 . S
O1310 C1299 1.236 . S
O1311 Tb1280 2.341 . S
O1311 C1299 1.266 . S
H1312 C1284 0.929 . S
H1313 C1285 0.931 . S
H1314 C1287 0.930 . S
H1315 C1288 0.930 . S
H1316 C1293 0.929 . S
H1317 C1294 0.931 . S
H1318 C1296 0.930 . S
H1319 C1297 0.930 . S
Tb1320 C1322 2.809 . S
Tb1320 O1340 2.484 . S
Tb1320 O1341 2.440 . S
Tb1320 O1342 2.658 . S
Tb1320 O1343 2.409 . S
Tb1320 O1344 2.378 . S
Tb1320 O1348 2.325 . S
Tb1320 O1351 2.341 . S
Tb1321 C1331 2.809 . S
Tb1321 O1342 2.325 . S
Tb1321 O1345 2.341 . S
Tb1321 O1346 2.484 . S
Tb1321 O1347 2.440 . S
Tb1321 O1348 2.658 . S
Tb1321 O1349 2.409 . S
Tb1321 O1350 2.378 . S
C1322 Tb1320 2.809 . S
C1322 C1323 1.514 . S
C1322 O1340 1.248 . S
C1322 O1341 1.266 . S
C1323 C1322 1.514 . S
C1323 C1324 1.359 . S
C1323 C1328 1.348 . S
C1324 C1323 1.359 . S
C1324 C1325 1.380 . S
C1324 H1352 0.929 . S
C1325 C1324 1.380 . S
C1325 C1326 1.347 . S
C1325 H1353 0.931 . S
C1326 C1325 1.347 . S
C1326 C1327 1.369 . S
C1327 C1326 1.369 . S
C1327 C1328 1.408 . S
C1327 H1354 0.930 . S
C1328 C1323 1.348 . S
C1328 C1327 1.408 . S
C1328 H1355 0.930 . S
C1329 O1342 1.281 . S
C1329 O1343 1.254 . S
C1330 O1344 1.236 . S
C1330 O1345 1.266 . S
C1331 Tb1321 2.809 . S
C1331 C1332 1.514 . S
C1331 O1346 1.248 . S
C1331 O1347 1.266 . S
C1332 C1331 1.514 . S
C1332 C1333 1.359 . S
C1332 C1337 1.348 . S
C1333 C1332 1.359 . S
C1333 C1334 1.380 . S
C1333 H1356 0.929 . S
C1334 C1333 1.380 . S
C1334 C1335 1.347 . S
C1334 H1357 0.931 . S
C1335 C1334 1.347 . S
C1335 C1336 1.369 . S
C1336 C1335 1.369 . S
C1336 C1337 1.408 . S
C1336 H1358 0.930 . S
C1337 C1332 1.348 . S
C1337 C1336 1.408 . S
C1337 H1359 0.930 . S
C1338 O1348 1.281 . S
C1338 O1349 1.254 . S
C1339 O1350 1.236 . S
C1339 O1351 1.266 . S
O1340 Tb1320 2.484 . S
O1340 C1322 1.248 . S
O1341 Tb1320 2.440 . S
O1341 C1322 1.266 . S
O1342 Tb1320 2.658 . S
O1342 Tb1321 2.325 . S
O1342 C1329 1.281 . S
O1343 Tb1320 2.409 . S
O1343 C1329 1.254 . S
O1344 Tb1320 2.378 . S
O1344 C1330 1.236 . S
O1345 Tb1321 2.341 . S
O1345 C1330 1.266 . S
O1346 Tb1321 2.484 . S
O1346 C1331 1.248 . S
O1347 Tb1321 2.440 . S
O1347 C1331 1.266 . S
O1348 Tb1320 2.325 . S
O1348 Tb1321 2.658 . S
O1348 C1338 1.281 . S
O1349 Tb1321 2.409 . S
O1349 C1338 1.254 . S
O1350 Tb1321 2.378 . S
O1350 C1339 1.236 . S
O1351 Tb1320 2.341 . S
O1351 C1339 1.266 . S
H1352 C1324 0.929 . S
H1353 C1325 0.931 . S
H1354 C1327 0.930 . S
H1355 C1328 0.930 . S
H1356 C1333 0.929 . S
H1357 C1334 0.931 . S
H1358 C1336 0.930 . S
H1359 C1337 0.930 . S
Tb1360 C1362 2.809 . S
Tb1360 O1380 2.484 . S
Tb1360 O1381 2.440 . S
Tb1360 O1382 2.658 . S
Tb1360 O1383 2.409 . S
Tb1360 O1384 2.378 . S
Tb1360 O1388 2.325 . S
Tb1360 O1391 2.341 . S
Tb1361 C1371 2.809 . S
Tb1361 O1382 2.325 . S
Tb1361 O1385 2.341 . S
Tb1361 O1386 2.484 . S
Tb1361 O1387 2.440 . S
Tb1361 O1388 2.658 . S
Tb1361 O1389 2.409 . S
Tb1361 O1390 2.378 . S
C1362 Tb1360 2.809 . S
C1362 C1363 1.514 . S
C1362 O1380 1.248 . S
C1362 O1381 1.266 . S
C1363 C1362 1.514 . S
C1363 C1364 1.359 . S
C1363 C1368 1.348 . S
C1364 C1363 1.359 . S
C1364 C1365 1.380 . S
C1364 H1392 0.929 . S
C1365 C1364 1.380 . S
C1365 C1366 1.347 . S
C1365 H1393 0.931 . S
C1366 C1365 1.347 . S
C1366 C1367 1.369 . S
C1367 C1366 1.369 . S
C1367 C1368 1.408 . S
C1367 H1394 0.930 . S
C1368 C1363 1.348 . S
C1368 C1367 1.408 . S
C1368 H1395 0.930 . S
C1369 O1382 1.281 . S
C1369 O1383 1.254 . S
C1370 O1384 1.236 . S
C1370 O1385 1.266 . S
C1371 Tb1361 2.809 . S
C1371 C1372 1.514 . S
C1371 O1386 1.248 . S
C1371 O1387 1.266 . S
C1372 C1371 1.514 . S
C1372 C1373 1.359 . S
C1372 C1377 1.348 . S
C1373 C1372 1.359 . S
C1373 C1374 1.380 . S
C1373 H1396 0.929 . S
C1374 C1373 1.380 . S
C1374 C1375 1.347 . S
C1374 H1397 0.931 . S
C1375 C1374 1.347 . S
C1375 C1376 1.369 . S
C1376 C1375 1.369 . S
C1376 C1377 1.408 . S
C1376 H1398 0.930 . S
C1377 C1372 1.348 . S
C1377 C1376 1.408 . S
C1377 H1399 0.930 . S
C1378 O1388 1.281 . S
C1378 O1389 1.254 . S
C1379 O1390 1.236 . S
C1379 O1391 1.266 . S
O1380 Tb1360 2.484 . S
O1380 C1362 1.248 . S
O1381 Tb1360 2.440 . S
O1381 C1362 1.266 . S
O1382 Tb1360 2.658 . S
O1382 Tb1361 2.325 . S
O1382 C1369 1.281 . S
O1383 Tb1360 2.409 . S
O1383 C1369 1.254 . S
O1384 Tb1360 2.378 . S
O1384 C1370 1.236 . S
O1385 Tb1361 2.341 . S
O1385 C1370 1.266 . S
O1386 Tb1361 2.484 . S
O1386 C1371 1.248 . S
O1387 Tb1361 2.440 . S
O1387 C1371 1.266 . S
O1388 Tb1360 2.325 . S
O1388 Tb1361 2.658 . S
O1388 C1378 1.281 . S
O1389 Tb1361 2.409 . S
O1389 C1378 1.254 . S
O1390 Tb1361 2.378 . S
O1390 C1379 1.236 . S
O1391 Tb1360 2.341 . S
O1391 C1379 1.266 . S
H1392 C1364 0.929 . S
H1393 C1365 0.931 . S
H1394 C1367 0.930 . S
H1395 C1368 0.930 . S
H1396 C1373 0.929 . S
H1397 C1374 0.931 . S
H1398 C1376 0.930 . S
H1399 C1377 0.930 . S
Tb1400 C1402 2.809 . S
Tb1400 O1420 2.484 . S
Tb1400 O1421 2.440 . S
Tb1400 O1422 2.658 . S
Tb1400 O1423 2.409 . S
Tb1400 O1424 2.378 . S
Tb1400 O1428 2.325 . S
Tb1400 O1431 2.341 . S
Tb1401 C1411 2.809 . S
Tb1401 O1422 2.325 . S
Tb1401 O1425 2.341 . S
Tb1401 O1426 2.484 . S
Tb1401 O1427 2.440 . S
Tb1401 O1428 2.658 . S
Tb1401 O1429 2.409 . S
Tb1401 O1430 2.378 . S
C1402 Tb1400 2.809 . S
C1402 C1403 1.514 . S
C1402 O1420 1.248 . S
C1402 O1421 1.266 . S
C1403 C1402 1.514 . S
C1403 C1404 1.359 . S
C1403 C1408 1.348 . S
C1404 C1403 1.359 . S
C1404 C1405 1.380 . S
C1404 H1432 0.929 . S
C1405 C1404 1.380 . S
C1405 C1406 1.347 . S
C1405 H1433 0.931 . S
C1406 C1405 1.347 . S
C1406 C1407 1.369 . S
C1407 C1406 1.369 . S
C1407 C1408 1.408 . S
C1407 H1434 0.930 . S
C1408 C1403 1.348 . S
C1408 C1407 1.408 . S
C1408 H1435 0.930 . S
C1409 O1422 1.281 . S
C1409 O1423 1.254 . S
C1410 O1424 1.236 . S
C1410 O1425 1.266 . S
C1411 Tb1401 2.809 . S
C1411 C1412 1.514 . S
C1411 O1426 1.248 . S
C1411 O1427 1.266 . S
C1412 C1411 1.514 . S
C1412 C1413 1.359 . S
C1412 C1417 1.348 . S
C1413 C1412 1.359 . S
C1413 C1414 1.380 . S
C1413 H1436 0.929 . S
C1414 C1413 1.380 . S
C1414 C1415 1.347 . S
C1414 H1437 0.931 . S
C1415 C1414 1.347 . S
C1415 C1416 1.369 . S
C1416 C1415 1.369 . S
C1416 C1417 1.408 . S
C1416 H1438 0.930 . S
C1417 C1412 1.348 . S
C1417 C1416 1.408 . S
C1417 H1439 0.930 . S
C1418 O1428 1.281 . S
C1418 O1429 1.254 . S
C1419 O1430 1.236 . S
C1419 O1431 1.266 . S
O1420 Tb1400 2.484 . S
O1420 C1402 1.248 . S
O1421 Tb1400 2.440 . S
O1421 C1402 1.266 . S
O1422 Tb1400 2.658 . S
O1422 Tb1401 2.325 . S
O1422 C1409 1.281 . S
O1423 Tb1400 2.409 . S
O1423 C1409 1.254 . S
O1424 Tb1400 2.378 . S
O1424 C1410 1.236 . S
O1425 Tb1401 2.341 . S
O1425 C1410 1.266 . S
O1426 Tb1401 2.484 . S
O1426 C1411 1.248 . S
O1427 Tb1401 2.440 . S
O1427 C1411 1.266 . S
O1428 Tb1400 2.325 . S
O1428 Tb1401 2.658 . S
O1428 C1418 1.281 . S
O1429 Tb1401 2.409 . S
O1429 C1418 1.254 . S
O1430 Tb1401 2.378 . S
O1430 C1419 1.236 . S
O1431 Tb1400 2.341 . S
O1431 C1419 1.266 . S
H1432 C1404 0.929 . S
H1433 C1405 0.931 . S
H1434 C1407 0.930 . S
H1435 C1408 0.930 . S
H1436 C1413 0.929 . S
H1437 C1414 0.931 . S
H1438 C1416 0.930 . S
H1439 C1417 0.930 . S
H1440 C1446 0.930 . S
H1441 C1450 0.930 . S
H1442 C1455 0.929 . S
H1443 C1453 0.929 . S
H1444 C1448 0.929 . S
H1445 C1454 0.929 . S
C1446 H1440 0.930 . S
C1446 C1447 1.367 . S
C1446 C1454 1.378 . S
C1447 C1446 1.367 . S
C1447 C1455 1.433 . S
C1448 H1444 0.929 . S
C1448 C1450 1.378 1_545 S
C1448 C1452 1.350 1_556 S
C1449 C1452 1.463 . S
C1449 C1454 1.350 . S
C1449 N1457 1.427 . S
C1450 H1441 0.930 . S
C1450 C1448 1.378 1_565 S
C1450 C1451 1.367 . S
C1451 C1450 1.367 . S
C1451 C1453 1.433 1_556 S
C1452 C1448 1.350 1_554 S
C1452 C1449 1.463 . S
C1452 N1456 1.427 1_545 S
C1453 H1443 0.929 . S
C1453 C1451 1.433 1_554 S
C1453 N1456 1.384 . S
C1454 H1445 0.929 . S
C1454 C1446 1.378 . S
C1454 C1449 1.350 . S
C1455 H1442 0.929 . S
C1455 C1447 1.433 . S
C1455 N1457 1.384 . S
N1456 C1452 1.427 1_565 S
N1456 C1453 1.384 . S
N1457 C1449 1.427 . S
N1457 C1455 1.384 . S
H1458 C1464 0.930 . S
H1459 C1468 0.930 . S
H1460 C1473 0.929 . S
H1461 C1471 0.929 . S
H1462 C1466 0.929 . S
H1463 C1472 0.929 . S
C1464 H1458 0.930 . S
C1464 C1465 1.367 . S
C1464 C1472 1.378 1_455 S
C1465 C1464 1.367 . S
C1465 C1473 1.433 1_556 S
C1466 H1462 0.929 . S
C1466 C1468 1.378 . S
C1466 C1470 1.350 . S
C1467 C1470 1.463 . S
C1467 C1472 1.350 1_554 S
C1467 N1475 1.427 1_655 S
C1468 H1459 0.930 . S
C1468 C1466 1.378 . S
C1468 C1469 1.367 . S
C1469 C1468 1.367 . S
C1469 C1471 1.433 . S
C1470 C1466 1.350 . S
C1470 C1467 1.463 . S
C1470 N1474 1.427 . S
C1471 H1461 0.929 . S
C1471 C1469 1.433 . S
C1471 N1474 1.384 . S
C1472 H1463 0.929 . S
C1472 C1464 1.378 1_655 S
C1472 C1467 1.350 1_556 S
C1473 H1460 0.929 . S
C1473 C1465 1.433 1_554 S
C1473 N1475 1.384 . S
N1474 C1470 1.427 . S
N1474 C1471 1.384 . S
N1475 C1467 1.427 1_455 S
N1475 C1473 1.384 . S
H1476 C1482 0.930 . S
H1477 C1486 0.930 . S
H1478 C1491 0.929 . S
H1479 C1489 0.929 . S
H1480 C1484 0.929 1_556 S
H1481 C1490 0.929 . S
C1482 H1476 0.930 . S
C1482 C1483 1.367 1_554 S
C1482 C1490 1.378 . S
C1483 C1482 1.367 1_556 S
C1483 C1491 1.433 . S
C1484 H1480 0.929 1_554 S
C1484 C1486 1.378 . S
C1484 C1488 1.350 . S
C1485 C1488 1.463 . S
C1485 C1490 1.350 . S
C1485 N1493 1.427 1_554 S
C1486 H1477 0.930 . S
C1486 C1484 1.378 . S
C1486 C1487 1.367 . S
C1487 C1486 1.367 . S
C1487 C1489 1.433 . S
C1488 C1484 1.350 . S
C1488 C1485 1.463 . S
C1488 N1492 1.427 . S
C1489 H1479 0.929 . S
C1489 C1487 1.433 . S
C1489 N1492 1.384 . S
C1490 H1481 0.929 . S
C1490 C1482 1.378 . S
C1490 C1485 1.350 . S
C1491 H1478 0.929 . S
C1491 C1483 1.433 . S
C1491 N1493 1.384 . S
N1492 C1488 1.427 . S
N1492 C1489 1.384 . S
N1493 C1485 1.427 1_556 S
N1493 C1491 1.384 . S
H1494 C1500 0.930 . S
H1495 C1504 0.930 . S
H1496 C1509 0.929 . S
H1497 C1507 0.929 . S
H1498 C1502 0.929 . S
H1499 C1508 0.929 . S
C1500 H1494 0.930 . S
C1500 C1501 1.367 . S
C1500 C1508 1.378 . S
C1501 C1500 1.367 . S
C1501 C1509 1.433 . S
C1502 H1498 0.929 . S
C1502 C1504 1.378 . S
C1502 C1506 1.350 . S
C1503 C1506 1.463 . S
C1503 C1508 1.350 1_455 S
C1503 N1511 1.427 . S
C1504 H1495 0.930 . S
C1504 C1502 1.378 . S
C1504 C1505 1.367 . S
C1505 C1504 1.367 . S
C1505 C1507 1.433 . S
C1506 C1502 1.350 . S
C1506 C1503 1.463 . S
C1506 N1510 1.427 . S
C1507 H1497 0.929 . S
C1507 C1505 1.433 . S
C1507 N1510 1.384 . S
C1508 H1499 0.929 . S
C1508 C1500 1.378 . S
C1508 C1503 1.350 1_655 S
C1509 H1496 0.929 . S
C1509 C1501 1.433 . S
C1509 N1511 1.384 1_655 S
N1510 C1506 1.427 . S
N1510 C1507 1.384 . S
N1511 C1503 1.427 . S
N1511 C1509 1.384 1_455 S
H1512 C1518 0.930 . S
H1513 C1522 0.930 . S
H1514 C1527 0.929 . S
H1515 C1525 0.929 . S
H1516 C1520 0.929 . S
H1517 C1526 0.929 . S
C1518 H1512 0.930 . S
C1518 C1519 1.367 . S
C1518 C1526 1.378 . S
C1519 C1518 1.367 . S
C1519 C1527 1.433 . S
C1520 H1516 0.929 . S
C1520 C1522 1.378 . S
C1520 C1524 1.350 . S
C1521 C1524 1.463 . S
C1521 C1526 1.350 . S
C1521 N1529 1.427 . S
C1522 H1513 0.930 . S
C1522 C1520 1.378 . S
C1522 C1523 1.367 . S
C1523 C1522 1.367 . S
C1523 C1525 1.433 . S
C1524 C1520 1.350 . S
C1524 C1521 1.463 . S
C1524 N1528 1.427 . S
C1525 H1515 0.929 . S
C1525 C1523 1.433 . S
C1525 N1528 1.384 . S
C1526 H1517 0.929 . S
C1526 C1518 1.378 . S
C1526 C1521 1.350 . S
C1527 H1514 0.929 . S
C1527 C1519 1.433 . S
C1527 N1529 1.384 . S
N1528 C1524 1.427 . S
N1528 C1525 1.384 . S
N1529 C1521 1.427 . S
N1529 C1527 1.384 . S
H1530 C1536 0.930 . S
H1531 C1540 0.930 . S
H1532 C1545 0.929 . S
H1533 C1543 0.929 . S
H1534 C1538 0.929 . S
H1535 C1544 0.929 . S
C1536 H1530 0.930 . S
C1536 C1537 1.367 . S
C1536 C1544 1.378 . S
C1537 C1536 1.367 . S
C1537 C1545 1.433 . S
C1538 H1534 0.929 . S
C1538 C1540 1.378 1_565 S
C1538 C1542 1.350 . S
C1539 C1542 1.463 . S
C1539 C1544 1.350 . S
C1539 N1547 1.427 . S
C1540 H1531 0.930 . S
C1540 C1538 1.378 1_545 S
C1540 C1541 1.367 . S
C1541 C1540 1.367 . S
C1541 C1543 1.433 . S
C1542 C1538 1.350 . S
C1542 C1539 1.463 . S
C1542 N1546 1.427 1_565 S
C1543 H1533 0.929 . S
C1543 C1541 1.433 . S
C1543 N1546 1.384 . S
C1544 H1535 0.929 . S
C1544 C1536 1.378 . S
C1544 C1539 1.350 . S
C1545 H1532 0.929 . S
C1545 C1537 1.433 . S
C1545 N1547 1.384 . S
N1546 C1542 1.427 1_545 S
N1546 C1543 1.384 . S
N1547 C1539 1.427 . S
N1547 C1545 1.384 . S
H1548 C1554 0.930 . S
H1549 C1558 0.930 . S
H1550 C1563 0.929 . S
H1551 C1561 0.929 1_554 S
H1552 C1556 0.929 . S
H1553 C1562 0.929 . S
C1554 H1548 0.930 . S
C1554 C1555 1.367 . S
C1554 C1562 1.378 1_545 S
C1555 C1554 1.367 . S
C1555 C1563 1.433 1_554 S
C1556 H1552 0.929 . S
C1556 C1558 1.378 . S
C1556 C1560 1.350 . S
C1557 C1560 1.463 . S
C1557 C1562 1.350 1_556 S
C1557 N1565 1.427 1_565 S
C1558 H1549 0.930 . S
C1558 C1556 1.378 . S
C1558 C1559 1.367 . S
C1559 C1558 1.367 . S
C1559 C1561 1.433 . S
C1560 C1556 1.350 . S
C1560 C1557 1.463 . S
C1560 N1564 1.427 1_556 S
C1561 H1551 0.929 1_556 S
C1561 C1559 1.433 . S
C1561 N1564 1.384 1_556 S
C1562 H1553 0.929 . S
C1562 C1554 1.378 1_565 S
C1562 C1557 1.350 1_554 S
C1563 H1550 0.929 . S
C1563 C1555 1.433 1_556 S
C1563 N1565 1.384 . S
N1564 C1560 1.427 1_554 S
N1564 C1561 1.384 1_554 S
N1565 C1557 1.427 1_545 S
N1565 C1563 1.384 . S
H1566 C1572 0.930 . S
H1567 C1576 0.930 . S
H1568 C1581 0.929 . S
H1569 C1579 0.929 . S
H1570 C1574 0.929 . S
H1571 C1580 0.929 . S
C1572 H1566 0.930 . S
C1572 C1573 1.367 . S
C1572 C1580 1.378 . S
C1573 C1572 1.367 . S
C1573 C1581 1.433 . S
C1574 H1570 0.929 . S
C1574 C1576 1.378 1_455 S
C1574 C1578 1.350 1_554 S
C1575 C1578 1.463 . S
C1575 C1580 1.350 . S
C1575 N1583 1.427 . S
C1576 H1567 0.930 . S
C1576 C1574 1.378 1_655 S
C1576 C1577 1.367 . S
C1577 C1576 1.367 . S
C1577 C1579 1.433 . S
C1578 C1574 1.350 1_556 S
C1578 C1575 1.463 . S
C1578 N1582 1.427 1_455 S
C1579 H1569 0.929 . S
C1579 C1577 1.433 . S
C1579 N1582 1.384 1_554 S
C1580 H1571 0.929 . S
C1580 C1572 1.378 . S
C1580 C1575 1.350 . S
C1581 H1568 0.929 . S
C1581 C1573 1.433 . S
C1581 N1583 1.384 . S
N1582 C1578 1.427 1_655 S
N1582 C1579 1.384 1_556 S
N1583 C1575 1.427 . S
N1583 C1581 1.384 . S
H1584 C1590 0.930 . S
H1585 C1594 0.930 . S
H1586 C1599 0.929 . S
H1587 C1597 0.929 . S
H1588 C1592 0.929 . S
H1589 C1598 0.929 . S
C1590 H1584 0.930 . S
C1590 C1591 1.367 . S
C1590 C1598 1.378 . S
C1591 C1590 1.367 . S
C1591 C1599 1.433 . S
C1592 H1588 0.929 . S
C1592 C1594 1.378 . S
C1592 C1596 1.350 . S
C1593 C1596 1.463 . S
C1593 C1598 1.350 1_556 S
C1593 N1601 1.427 . S
C1594 H1585 0.930 . S
C1594 C1592 1.378 . S
C1594 C1595 1.367 . S
C1595 C1594 1.367 . S
C1595 C1597 1.433 . S
C1596 C1592 1.350 . S
C1596 C1593 1.463 . S
C1596 N1600 1.427 . S
C1597 H1587 0.929 . S
C1597 C1595 1.433 . S
C1597 N1600 1.384 . S
C1598 H1589 0.929 . S
C1598 C1590 1.378 . S
C1598 C1593 1.350 1_554 S
C1599 H1586 0.929 . S
C1599 C1591 1.433 . S
C1599 N1601 1.384 1_554 S
N1600 C1596 1.427 . S
N1600 C1597 1.384 . S
N1601 C1593 1.427 . S
N1601 C1599 1.384 1_556 S
H1602 C1608 0.930 . S
H1603 C1612 0.930 . S
H1604 C1617 0.929 . S
H1605 C1615 0.929 . S
H1606 C1610 0.929 . S
H1607 C1616 0.929 . S
C1608 H1602 0.930 . S
C1608 C1609 1.367 . S
C1608 C1616 1.378 1_455 S
C1609 C1608 1.367 . S
C1609 C1617 1.433 . S
C1610 H1606 0.929 . S
C1610 C1612 1.378 . S
C1610 C1614 1.350 . S
C1611 C1614 1.463 . S
C1611 C1616 1.350 . S
C1611 N1619 1.427 1_655 S
C1612 H1603 0.930 . S
C1612 C1610 1.378 . S
C1612 C1613 1.367 . S
C1613 C1612 1.367 . S
C1613 C1615 1.433 . S
C1614 C1610 1.350 . S
C1614 C1611 1.463 . S
C1614 N1618 1.427 . S
C1615 H1605 0.929 . S
C1615 C1613 1.433 . S
C1615 N1618 1.384 . S
C1616 H1607 0.929 . S
C1616 C1608 1.378 1_655 S
C1616 C1611 1.350 . S
C1617 H1604 0.929 . S
C1617 C1609 1.433 . S
C1617 N1619 1.384 . S
N1618 C1614 1.427 . S
N1618 C1615 1.384 . S
N1619 C1611 1.427 1_455 S
N1619 C1617 1.384 . S
H1620 C1626 0.930 . S
H1621 C1630 0.930 . S
H1622 C1635 0.929 . S
H1623 C1633 0.929 . S
H1624 C1628 0.929 . S
H1625 C1634 0.929 . S
C1626 H1620 0.930 . S
C1626 C1627 1.367 . S
C1626 C1634 1.378 . S
C1627 C1626 1.367 . S
C1627 C1635 1.433 . S
C1628 H1624 0.929 . S
C1628 C1630 1.378 . S
C1628 C1632 1.350 . S
C1629 C1632 1.463 . S
C1629 C1634 1.350 . S
C1629 N1637 1.427 . S
C1630 H1621 0.930 . S
C1630 C1628 1.378 . S
C1630 C1631 1.367 . S
C1631 C1630 1.367 . S
C1631 C1633 1.433 . S
C1632 C1628 1.350 . S
C1632 C1629 1.463 . S
C1632 N1636 1.427 . S
C1633 H1623 0.929 . S
C1633 C1631 1.433 . S
C1633 N1636 1.384 . S
C1634 H1625 0.929 . S
C1634 C1626 1.378 . S
C1634 C1629 1.350 . S
C1635 H1622 0.929 . S
C1635 C1627 1.433 . S
C1635 N1637 1.384 . S
N1636 C1632 1.427 . S
N1636 C1633 1.384 . S
N1637 C1629 1.427 . S
N1637 C1635 1.384 . S
H1638 C1644 0.930 . S
H1639 C1648 0.930 . S
H1640 C1653 0.929 . S
H1641 C1651 0.929 . S
H1642 C1646 0.929 1_545 S
H1643 C1652 0.929 . S
C1644 H1638 0.930 . S
C1644 C1645 1.367 . S
C1644 C1652 1.378 . S
C1645 C1644 1.367 . S
C1645 C1653 1.433 . S
C1646 H1642 0.929 1_565 S
C1646 C1648 1.378 . S
C1646 C1650 1.350 1_565 S
C1647 C1650 1.463 . S
C1647 C1652 1.350 . S
C1647 N1655 1.427 . S
C1648 H1639 0.930 . S
C1648 C1646 1.378 . S
C1648 C1649 1.367 . S
C1649 C1648 1.367 . S
C1649 C1651 1.433 . S
C1650 C1646 1.350 1_545 S
C1650 C1647 1.463 . S
C1650 N1654 1.427 . S
C1651 H1641 0.929 . S
C1651 C1649 1.433 . S
C1651 N1654 1.384 1_565 S
C1652 H1643 0.929 . S
C1652 C1644 1.378 . S
C1652 C1647 1.350 . S
C1653 H1640 0.929 . S
C1653 C1645 1.433 . S
C1653 N1655 1.384 . S
N1654 C1650 1.427 . S
N1654 C1651 1.384 1_545 S
N1655 C1647 1.427 . S
N1655 C1653 1.384 . S
H1656 C1662 0.930 . S
H1657 C1666 0.930 . S
H1658 C1671 0.929 . S
H1659 C1669 0.929 . S
H1660 C1664 0.929 . S
H1661 C1670 0.929 . S
C1662 H1656 0.930 . S
C1662 C1663 1.367 . S
C1662 C1670 1.378 . S
C1663 C1662 1.367 . S
C1663 C1671 1.433 . S
C1664 H1660 0.929 . S
C1664 C1666 1.378 . S
C1664 C1668 1.350 . S
C1665 C1668 1.463 . S
C1665 C1670 1.350 . S
C1665 N1673 1.427 . S
C1666 H1657 0.930 . S
C1666 C1664 1.378 . S
C1666 C1667 1.367 . S
C1667 C1666 1.367 . S
C1667 C1669 1.433 . S
C1668 C1664 1.350 . S
C1668 C1665 1.463 . S
C1668 N1672 1.427 . S
C1669 H1659 0.929 . S
C1669 C1667 1.433 . S
C1669 N1672 1.384 . S
C1670 H1661 0.929 . S
C1670 C1662 1.378 . S
C1670 C1665 1.350 . S
C1671 H1658 0.929 . S
C1671 C1663 1.433 . S
C1671 N1673 1.384 . S
N1672 C1668 1.427 . S
N1672 C1669 1.384 . S
N1673 C1665 1.427 . S
N1673 C1671 1.384 . S
H1674 C1680 0.930 . S
H1675 C1684 0.930 . S
H1676 C1689 0.929 . S
H1677 C1687 0.929 . S
H1678 C1682 0.929 . S
H1679 C1688 0.929 . S
C1680 H1674 0.930 . S
C1680 C1681 1.367 . S
C1680 C1688 1.378 . S
C1681 C1680 1.367 . S
C1681 C1689 1.433 . S
C1682 H1678 0.929 . S
C1682 C1684 1.378 . S
C1682 C1686 1.350 . S
C1683 C1686 1.463 . S
C1683 C1688 1.350 . S
C1683 N1691 1.427 . S
C1684 H1675 0.930 . S
C1684 C1682 1.378 . S
C1684 C1685 1.367 . S
C1685 C1684 1.367 . S
C1685 C1687 1.433 . S
C1686 C1682 1.350 . S
C1686 C1683 1.463 . S
C1686 N1690 1.427 . S
C1687 H1677 0.929 . S
C1687 C1685 1.433 . S
C1687 N1690 1.384 . S
C1688 H1679 0.929 . S
C1688 C1680 1.378 . S
C1688 C1683 1.350 . S
C1689 H1676 0.929 . S
C1689 C1681 1.433 . S
C1689 N1691 1.384 . S
N1690 C1686 1.427 . S
N1690 C1687 1.384 . S
N1691 C1683 1.427 . S
N1691 C1689 1.384 . S
H1692 C1698 0.930 . S
H1693 C1702 0.930 . S
H1694 C1707 0.929 . S
H1695 C1705 0.929 . S
H1696 C1700 0.929 . S
H1697 C1706 0.929 . S
C1698 H1692 0.930 . S
C1698 C1699 1.367 . S
C1698 C1706 1.378 . S
C1699 C1698 1.367 . S
C1699 C1707 1.433 . S
C1700 H1696 0.929 . S
C1700 C1702 1.378 . S
C1700 C1704 1.350 . S
C1701 C1704 1.463 . S
C1701 C1706 1.350 . S
C1701 N1709 1.427 . S
C1702 H1693 0.930 . S
C1702 C1700 1.378 . S
C1702 C1703 1.367 . S
C1703 C1702 1.367 . S
C1703 C1705 1.433 . S
C1704 C1700 1.350 . S
C1704 C1701 1.463 . S
C1704 N1708 1.427 . S
C1705 H1695 0.929 . S
C1705 C1703 1.433 . S
C1705 N1708 1.384 . S
C1706 H1697 0.929 . S
C1706 C1698 1.378 . S
C1706 C1701 1.350 . S
C1707 H1694 0.929 . S
C1707 C1699 1.433 . S
C1707 N1709 1.384 . S
N1708 C1704 1.427 . S
N1708 C1705 1.384 . S
N1709 C1701 1.427 . S
N1709 C1707 1.384 . S
H1710 C1716 0.930 . S
H1711 C1720 0.930 . S
H1712 C1725 0.929 . S
H1713 C1723 0.929 . S
H1714 C1718 0.929 . S
H1715 C1724 0.929 . S
C1716 H1710 0.930 . S
C1716 C1717 1.367 . S
C1716 C1724 1.378 . S
C1717 C1716 1.367 . S
C1717 C1725 1.433 . S
C1718 H1714 0.929 . S
C1718 C1720 1.378 . S
C1718 C1722 1.350 . S
C1719 C1722 1.463 . S
C1719 C1724 1.350 . S
C1719 N1727 1.427 . S
C1720 H1711 0.930 . S
C1720 C1718 1.378 . S
C1720 C1721 1.367 . S
C1721 C1720 1.367 . S
C1721 C1723 1.433 . S
C1722 C1718 1.350 . S
C1722 C1719 1.463 . S
C1722 N1726 1.427 . S
C1723 H1713 0.929 . S
C1723 C1721 1.433 . S
C1723 N1726 1.384 . S
C1724 H1715 0.929 . S
C1724 C1716 1.378 . S
C1724 C1719 1.350 . S
C1725 H1712 0.929 . S
C1725 C1717 1.433 . S
C1725 N1727 1.384 . S
N1726 C1722 1.427 . S
N1726 C1723 1.384 . S
N1727 C1719 1.427 . S
N1727 C1725 1.384 . S
H1728 C1734 0.930 . S
H1729 C1738 0.930 . S
H1730 C1743 0.929 . S
H1731 C1741 0.929 . S
H1732 C1736 0.929 . S
H1733 C1742 0.929 . S
C1734 H1728 0.930 . S
C1734 C1735 1.367 . S
C1734 C1742 1.378 . S
C1735 C1734 1.367 . S
C1735 C1743 1.433 . S
C1736 H1732 0.929 . S
C1736 C1738 1.378 . S
C1736 C1740 1.350 . S
C1737 C1740 1.463 . S
C1737 C1742 1.350 . S
C1737 N1745 1.427 . S
C1738 H1729 0.930 . S
C1738 C1736 1.378 . S
C1738 C1739 1.367 . S
C1739 C1738 1.367 . S
C1739 C1741 1.433 . S
C1740 C1736 1.350 . S
C1740 C1737 1.463 . S
C1740 N1744 1.427 . S
C1741 H1731 0.929 . S
C1741 C1739 1.433 . S
C1741 N1744 1.384 . S
C1742 H1733 0.929 . S
C1742 C1734 1.378 . S
C1742 C1737 1.350 . S
C1743 H1730 0.929 . S
C1743 C1735 1.433 . S
C1743 N1745 1.384 . S
N1744 C1740 1.427 . S
N1744 C1741 1.384 . S
N1745 C1737 1.427 . S
N1745 C1743 1.384 . S
H1746 C1752 0.930 . S
H1747 C1756 0.930 . S
H1748 C1761 0.929 . S
H1749 C1759 0.929 . S
H1750 C1754 0.929 . S
H1751 C1760 0.929 . S
C1752 H1746 0.930 . S
C1752 C1753 1.367 . S
C1752 C1760 1.378 . S
C1753 C1752 1.367 . S
C1753 C1761 1.433 . S
C1754 H1750 0.929 . S
C1754 C1756 1.378 . S
C1754 C1758 1.350 . S
C1755 C1758 1.463 . S
C1755 C1760 1.350 . S
C1755 N1763 1.427 . S
C1756 H1747 0.930 . S
C1756 C1754 1.378 . S
C1756 C1757 1.367 . S
C1757 C1756 1.367 . S
C1757 C1759 1.433 . S
C1758 C1754 1.350 . S
C1758 C1755 1.463 . S
C1758 N1762 1.427 . S
C1759 H1749 0.929 . S
C1759 C1757 1.433 . S
C1759 N1762 1.384 . S
C1760 H1751 0.929 . S
C1760 C1752 1.378 . S
C1760 C1755 1.350 . S
C1761 H1748 0.929 . S
C1761 C1753 1.433 . S
C1761 N1763 1.384 . S
N1762 C1758 1.427 . S
N1762 C1759 1.384 . S
N1763 C1755 1.427 . S
N1763 C1761 1.384 . S
H1764 C1770 0.930 . S
H1765 C1774 0.930 . S
H1766 C1779 0.929 . S
H1767 C1777 0.929 . S
H1768 C1772 0.929 . S
H1769 C1778 0.929 . S
C1770 H1764 0.930 . S
C1770 C1771 1.367 . S
C1770 C1778 1.378 . S
C1771 C1770 1.367 . S
C1771 C1779 1.433 . S
C1772 H1768 0.929 . S
C1772 C1774 1.378 . S
C1772 C1776 1.350 . S
C1773 C1776 1.463 . S
C1773 C1778 1.350 . S
C1773 N1781 1.427 . S
C1774 H1765 0.930 . S
C1774 C1772 1.378 . S
C1774 C1775 1.367 . S
C1775 C1774 1.367 . S
C1775 C1777 1.433 . S
C1776 C1772 1.350 . S
C1776 C1773 1.463 . S
C1776 N1780 1.427 . S
C1777 H1767 0.929 . S
C1777 C1775 1.433 . S
C1777 N1780 1.384 . S
C1778 H1769 0.929 . S
C1778 C1770 1.378 . S
C1778 C1773 1.350 . S
C1779 H1766 0.929 . S
C1779 C1771 1.433 . S
C1779 N1781 1.384 . S
N1780 C1776 1.427 . S
N1780 C1777 1.384 . S
N1781 C1773 1.427 . S
N1781 C1779 1.384 . S
H1782 C1788 0.930 . S
H1783 C1792 0.930 . S
H1784 C1797 0.929 . S
H1785 C1795 0.929 . S
H1786 C1790 0.929 . S
H1787 C1796 0.929 . S
C1788 H1782 0.930 . S
C1788 C1789 1.367 . S
C1788 C1796 1.378 . S
C1789 C1788 1.367 . S
C1789 C1797 1.433 . S
C1790 H1786 0.929 . S
C1790 C1792 1.378 . S
C1790 C1794 1.350 . S
C1791 C1794 1.463 . S
C1791 C1796 1.350 . S
C1791 N1799 1.427 . S
C1792 H1783 0.930 . S
C1792 C1790 1.378 . S
C1792 C1793 1.367 . S
C1793 C1792 1.367 . S
C1793 C1795 1.433 . S
C1794 C1790 1.350 . S
C1794 C1791 1.463 . S
C1794 N1798 1.427 . S
C1795 H1785 0.929 . S
C1795 C1793 1.433 . S
C1795 N1798 1.384 . S
C1796 H1787 0.929 . S
C1796 C1788 1.378 . S
C1796 C1791 1.350 . S
C1797 H1784 0.929 . S
C1797 C1789 1.433 . S
C1797 N1799 1.384 . S
N1798 C1794 1.427 . S
N1798 C1795 1.384 . S
N1799 C1791 1.427 . S
N1799 C1797 1.384 . S
H1800 C1806 0.930 . S
H1801 C1810 0.930 . S
H1802 C1815 0.929 . S
H1803 C1813 0.929 . S
H1804 C1808 0.929 . S
H1805 C1814 0.929 . S
C1806 H1800 0.930 . S
C1806 C1807 1.367 . S
C1806 C1814 1.378 . S
C1807 C1806 1.367 . S
C1807 C1815 1.433 . S
C1808 H1804 0.929 . S
C1808 C1810 1.378 . S
C1808 C1812 1.350 . S
C1809 C1812 1.463 . S
C1809 C1814 1.350 . S
C1809 N1817 1.427 . S
C1810 H1801 0.930 . S
C1810 C1808 1.378 . S
C1810 C1811 1.367 . S
C1811 C1810 1.367 . S
C1811 C1813 1.433 . S
C1812 C1808 1.350 . S
C1812 C1809 1.463 . S
C1812 N1816 1.427 . S
C1813 H1803 0.929 . S
C1813 C1811 1.433 . S
C1813 N1816 1.384 . S
C1814 H1805 0.929 . S
C1814 C1806 1.378 . S
C1814 C1809 1.350 . S
C1815 H1802 0.929 . S
C1815 C1807 1.433 . S
C1815 N1817 1.384 . S
N1816 C1812 1.427 . S
N1816 C1813 1.384 . S
N1817 C1809 1.427 . S
N1817 C1815 1.384 . S
H1818 C1824 0.930 . S
H1819 C1828 0.930 . S
H1820 C1833 0.929 . S
H1821 C1831 0.929 . S
H1822 C1826 0.929 . S
H1823 C1832 0.929 . S
C1824 H1818 0.930 . S
C1824 C1825 1.367 . S
C1824 C1832 1.378 . S
C1825 C1824 1.367 . S
C1825 C1833 1.433 . S
C1826 H1822 0.929 . S
C1826 C1828 1.378 . S
C1826 C1830 1.350 . S
C1827 C1830 1.463 . S
C1827 C1832 1.350 . S
C1827 N1835 1.427 . S
C1828 H1819 0.930 . S
C1828 C1826 1.378 . S
C1828 C1829 1.367 . S
C1829 C1828 1.367 . S
C1829 C1831 1.433 . S
C1830 C1826 1.350 . S
C1830 C1827 1.463 . S
C1830 N1834 1.427 . S
C1831 H1821 0.929 . S
C1831 C1829 1.433 . S
C1831 N1834 1.384 . S
C1832 H1823 0.929 . S
C1832 C1824 1.378 . S
C1832 C1827 1.350 . S
C1833 H1820 0.929 . S
C1833 C1825 1.433 . S
C1833 N1835 1.384 . S
N1834 C1830 1.427 . S
N1834 C1831 1.384 . S
N1835 C1827 1.427 . S
N1835 C1833 1.384 . S
H1836 C1842 0.930 . S
H1837 C1846 0.930 . S
H1838 C1851 0.929 . S
H1839 C1849 0.929 . S
H1840 C1844 0.929 . S
H1841 C1850 0.929 . S
C1842 H1836 0.930 . S
C1842 C1843 1.367 . S
C1842 C1850 1.378 . S
C1843 C1842 1.367 . S
C1843 C1851 1.433 . S
C1844 H1840 0.929 . S
C1844 C1846 1.378 . S
C1844 C1848 1.350 . S
C1845 C1848 1.463 . S
C1845 C1850 1.350 . S
C1845 N1853 1.427 . S
C1846 H1837 0.930 . S
C1846 C1844 1.378 . S
C1846 C1847 1.367 . S
C1847 C1846 1.367 . S
C1847 C1849 1.433 . S
C1848 C1844 1.350 . S
C1848 C1845 1.463 . S
C1848 N1852 1.427 . S
C1849 H1839 0.929 . S
C1849 C1847 1.433 . S
C1849 N1852 1.384 . S
C1850 H1841 0.929 . S
C1850 C1842 1.378 . S
C1850 C1845 1.350 . S
C1851 H1838 0.929 . S
C1851 C1843 1.433 . S
C1851 N1853 1.384 . S
N1852 C1848 1.427 . S
N1852 C1849 1.384 . S
N1853 C1845 1.427 . S
N1853 C1851 1.384 . S
H1854 C1860 0.930 . S
H1855 C1864 0.930 . S
H1856 C1869 0.929 . S
H1857 C1867 0.929 . S
H1858 C1862 0.929 . S
H1859 C1868 0.929 . S
C1860 H1854 0.930 . S
C1860 C1861 1.367 . S
C1860 C1868 1.378 . S
C1861 C1860 1.367 . S
C1861 C1869 1.433 . S
C1862 H1858 0.929 . S
C1862 C1864 1.378 . S
C1862 C1866 1.350 . S
C1863 C1866 1.463 . S
C1863 C1868 1.350 . S
C1863 N1871 1.427 . S
C1864 H1855 0.930 . S
C1864 C1862 1.378 . S
C1864 C1865 1.367 . S
C1865 C1864 1.367 . S
C1865 C1867 1.433 . S
C1866 C1862 1.350 . S
C1866 C1863 1.463 . S
C1866 N1870 1.427 . S
C1867 H1857 0.929 . S
C1867 C1865 1.433 . S
C1867 N1870 1.384 . S
C1868 H1859 0.929 . S
C1868 C1860 1.378 . S
C1868 C1863 1.350 . S
C1869 H1856 0.929 . S
C1869 C1861 1.433 . S
C1869 N1871 1.384 . S
N1870 C1866 1.427 . S
N1870 C1867 1.384 . S
N1871 C1863 1.427 . S
N1871 C1869 1.384 . S
H1872 C1878 0.930 . S
H1873 C1882 0.930 . S
H1874 C1887 0.929 . S
H1875 C1885 0.929 . S
H1876 C1880 0.929 . S
H1877 C1886 0.929 . S
C1878 H1872 0.930 . S
C1878 C1879 1.367 . S
C1878 C1886 1.378 . S
C1879 C1878 1.367 . S
C1879 C1887 1.433 . S
C1880 H1876 0.929 . S
C1880 C1882 1.378 . S
C1880 C1884 1.350 . S
C1881 C1884 1.463 . S
C1881 C1886 1.350 . S
C1881 N1889 1.427 . S
C1882 H1873 0.930 . S
C1882 C1880 1.378 . S
C1882 C1883 1.367 . S
C1883 C1882 1.367 . S
C1883 C1885 1.433 . S
C1884 C1880 1.350 . S
C1884 C1881 1.463 . S
C1884 N1888 1.427 . S
C1885 H1875 0.929 . S
C1885 C1883 1.433 . S
C1885 N1888 1.384 . S
C1886 H1877 0.929 . S
C1886 C1878 1.378 . S
C1886 C1881 1.350 . S
C1887 H1874 0.929 . S
C1887 C1879 1.433 . S
C1887 N1889 1.384 . S
N1888 C1884 1.427 . S
N1888 C1885 1.384 . S
N1889 C1881 1.427 . S
N1889 C1887 1.384 . S
H1890 C1896 0.930 . S
H1891 C1900 0.930 . S
H1892 C1905 0.929 . S
H1893 C1903 0.929 . S
H1894 C1898 0.929 . S
H1895 C1904 0.929 . S
C1896 H1890 0.930 . S
C1896 C1897 1.367 . S
C1896 C1904 1.378 . S
C1897 C1896 1.367 . S
C1897 C1905 1.433 . S
C1898 H1894 0.929 . S
C1898 C1900 1.378 . S
C1898 C1902 1.350 . S
C1899 C1902 1.463 . S
C1899 C1904 1.350 . S
C1899 N1907 1.427 . S
C1900 H1891 0.930 . S
C1900 C1898 1.378 . S
C1900 C1901 1.367 . S
C1901 C1900 1.367 . S
C1901 C1903 1.433 . S
C1902 C1898 1.350 . S
C1902 C1899 1.463 . S
C1902 N1906 1.427 . S
C1903 H1893 0.929 . S
C1903 C1901 1.433 . S
C1903 N1906 1.384 . S
C1904 H1895 0.929 . S
C1904 C1896 1.378 . S
C1904 C1899 1.350 . S
C1905 H1892 0.929 . S
C1905 C1897 1.433 . S
C1905 N1907 1.384 . S
N1906 C1902 1.427 . S
N1906 C1903 1.384 . S
N1907 C1899 1.427 . S
N1907 C1905 1.384 . S
H1908 C1914 0.930 . S
H1909 C1918 0.930 . S
H1910 C1923 0.929 . S
H1911 C1921 0.929 . S
H1912 C1916 0.929 . S
H1913 C1922 0.929 . S
C1914 H1908 0.930 . S
C1914 C1915 1.367 . S
C1914 C1922 1.378 . S
C1915 C1914 1.367 . S
C1915 C1923 1.433 . S
C1916 H1912 0.929 . S
C1916 C1918 1.378 . S
C1916 C1920 1.350 . S
C1917 C1920 1.463 . S
C1917 C1922 1.350 . S
C1917 N1925 1.427 . S
C1918 H1909 0.930 . S
C1918 C1916 1.378 . S
C1918 C1919 1.367 . S
C1919 C1918 1.367 . S
C1919 C1921 1.433 . S
C1920 C1916 1.350 . S
C1920 C1917 1.463 . S
C1920 N1924 1.427 . S
C1921 H1911 0.929 . S
C1921 C1919 1.433 . S
C1921 N1924 1.384 . S
C1922 H1913 0.929 . S
C1922 C1914 1.378 . S
C1922 C1917 1.350 . S
C1923 H1910 0.929 . S
C1923 C1915 1.433 . S
C1923 N1925 1.384 . S
N1924 C1920 1.427 . S
N1924 C1921 1.384 . S
N1925 C1917 1.427 . S
N1925 C1923 1.384 . S
H1926 C1932 0.930 . S
H1927 C1936 0.930 . S
H1928 C1941 0.929 . S
H1929 C1939 0.929 . S
H1930 C1934 0.929 . S
H1931 C1940 0.929 . S
C1932 H1926 0.930 . S
C1932 C1933 1.367 . S
C1932 C1940 1.378 . S
C1933 C1932 1.367 . S
C1933 C1941 1.433 . S
C1934 H1930 0.929 . S
C1934 C1936 1.378 . S
C1934 C1938 1.350 . S
C1935 C1938 1.463 . S
C1935 C1940 1.350 . S
C1935 N1943 1.427 . S
C1936 H1927 0.930 . S
C1936 C1934 1.378 . S
C1936 C1937 1.367 . S
C1937 C1936 1.367 . S
C1937 C1939 1.433 . S
C1938 C1934 1.350 . S
C1938 C1935 1.463 . S
C1938 N1942 1.427 . S
C1939 H1929 0.929 . S
C1939 C1937 1.433 . S
C1939 N1942 1.384 . S
C1940 H1931 0.929 . S
C1940 C1932 1.378 . S
C1940 C1935 1.350 . S
C1941 H1928 0.929 . S
C1941 C1933 1.433 . S
C1941 N1943 1.384 . S
N1942 C1938 1.427 . S
N1942 C1939 1.384 . S
N1943 C1935 1.427 . S
N1943 C1941 1.384 . S
H1944 C1950 0.930 . S
H1945 C1954 0.930 . S
H1946 C1959 0.929 . S
H1947 C1957 0.929 . S
H1948 C1952 0.929 . S
H1949 C1958 0.929 . S
C1950 H1944 0.930 . S
C1950 C1951 1.367 . S
C1950 C1958 1.378 . S
C1951 C1950 1.367 . S
C1951 C1959 1.433 . S
C1952 H1948 0.929 . S
C1952 C1954 1.378 . S
C1952 C1956 1.350 . S
C1953 C1956 1.463 . S
C1953 C1958 1.350 . S
C1953 N1961 1.427 . S
C1954 H1945 0.930 . S
C1954 C1952 1.378 . S
C1954 C1955 1.367 . S
C1955 C1954 1.367 . S
C1955 C1957 1.433 . S
C1956 C1952 1.350 . S
C1956 C1953 1.463 . S
C1956 N1960 1.427 . S
C1957 H1947 0.929 . S
C1957 C1955 1.433 . S
C1957 N1960 1.384 . S
C1958 H1949 0.929 . S
C1958 C1950 1.378 . S
C1958 C1953 1.350 . S
C1959 H1946 0.929 . S
C1959 C1951 1.433 . S
C1959 N1961 1.384 . S
N1960 C1956 1.427 . S
N1960 C1957 1.384 . S
N1961 C1953 1.427 . S
N1961 C1959 1.384 . S
H1962 C1968 0.930 . S
H1963 C1972 0.930 . S
H1964 C1977 0.929 . S
H1965 C1975 0.929 . S
H1966 C1970 0.929 . S
H1967 C1976 0.929 . S
C1968 H1962 0.930 . S
C1968 C1969 1.367 . S
C1968 C1976 1.378 . S
C1969 C1968 1.367 . S
C1969 C1977 1.433 . S
C1970 H1966 0.929 . S
C1970 C1972 1.378 . S
C1970 C1974 1.350 . S
C1971 C1974 1.463 . S
C1971 C1976 1.350 . S
C1971 N1979 1.427 . S
C1972 H1963 0.930 . S
C1972 C1970 1.378 . S
C1972 C1973 1.367 . S
C1973 C1972 1.367 . S
C1973 C1975 1.433 . S
C1974 C1970 1.350 . S
C1974 C1971 1.463 . S
C1974 N1978 1.427 . S
C1975 H1965 0.929 . S
C1975 C1973 1.433 . S
C1975 N1978 1.384 . S
C1976 H1967 0.929 . S
C1976 C1968 1.378 . S
C1976 C1971 1.350 . S
C1977 H1964 0.929 . S
C1977 C1969 1.433 . S
C1977 N1979 1.384 . S
N1978 C1974 1.427 . S
N1978 C1975 1.384 . S
N1979 C1971 1.427 . S
N1979 C1977 1.384 . S
H1980 C1986 0.930 . S
H1981 C1990 0.930 . S
H1982 C1995 0.929 . S
H1983 C1993 0.929 . S
H1984 C1988 0.929 . S
H1985 C1994 0.929 . S
C1986 H1980 0.930 . S
C1986 C1987 1.367 . S
C1986 C1994 1.378 . S
C1987 C1986 1.367 . S
C1987 C1995 1.433 . S
C1988 H1984 0.929 . S
C1988 C1990 1.378 . S
C1988 C1992 1.350 . S
C1989 C1992 1.463 . S
C1989 C1994 1.350 . S
C1989 N1997 1.427 . S
C1990 H1981 0.930 . S
C1990 C1988 1.378 . S
C1990 C1991 1.367 . S
C1991 C1990 1.367 . S
C1991 C1993 1.433 . S
C1992 C1988 1.350 . S
C1992 C1989 1.463 . S
C1992 N1996 1.427 . S
C1993 H1983 0.929 . S
C1993 C1991 1.433 . S
C1993 N1996 1.384 . S
C1994 H1985 0.929 . S
C1994 C1986 1.378 . S
C1994 C1989 1.350 . S
C1995 H1982 0.929 . S
C1995 C1987 1.433 . S
C1995 N1997 1.384 . S
N1996 C1992 1.427 . S
N1996 C1993 1.384 . S
N1997 C1989 1.427 . S
N1997 C1995 1.384 . S
H1998 C2004 0.930 . S
H1999 C2008 0.930 . S
H2000 C2013 0.929 . S
H2001 C2011 0.929 . S
H2002 C2006 0.929 . S
H2003 C2012 0.929 . S
C2004 H1998 0.930 . S
C2004 C2005 1.367 . S
C2004 C2012 1.378 . S
C2005 C2004 1.367 . S
C2005 C2013 1.433 . S
C2006 H2002 0.929 . S
C2006 C2008 1.378 . S
C2006 C2010 1.350 . S
C2007 C2010 1.463 . S
C2007 C2012 1.350 . S
C2007 N2015 1.427 . S
C2008 H1999 0.930 . S
C2008 C2006 1.378 . S
C2008 C2009 1.367 . S
C2009 C2008 1.367 . S
C2009 C2011 1.433 . S
C2010 C2006 1.350 . S
C2010 C2007 1.463 . S
C2010 N2014 1.427 . S
C2011 H2001 0.929 . S
C2011 C2009 1.433 . S
C2011 N2014 1.384 . S
C2012 H2003 0.929 . S
C2012 C2004 1.378 . S
C2012 C2007 1.350 . S
C2013 H2000 0.929 . S
C2013 C2005 1.433 . S
C2013 N2015 1.384 . S
N2014 C2010 1.427 . S
N2014 C2011 1.384 . S
N2015 C2007 1.427 . S
N2015 C2013 1.384 . S
H2016 C2022 0.930 . S
H2017 C2026 0.930 . S
H2018 C2031 0.929 . S
H2019 C2029 0.929 . S
H2020 C2024 0.929 . S
H2021 C2030 0.929 . S
C2022 H2016 0.930 . S
C2022 C2023 1.367 . S
C2022 C2030 1.378 . S
C2023 C2022 1.367 . S
C2023 C2031 1.433 . S
C2024 H2020 0.929 . S
C2024 C2026 1.378 . S
C2024 C2028 1.350 . S
C2025 C2028 1.463 . S
C2025 C2030 1.350 . S
C2025 N2033 1.427 . S
C2026 H2017 0.930 . S
C2026 C2024 1.378 . S
C2026 C2027 1.367 . S
C2027 C2026 1.367 . S
C2027 C2029 1.433 . S
C2028 C2024 1.350 . S
C2028 C2025 1.463 . S
C2028 N2032 1.427 . S
C2029 H2019 0.929 . S
C2029 C2027 1.433 . S
C2029 N2032 1.384 . S
C2030 H2021 0.929 . S
C2030 C2022 1.378 . S
C2030 C2025 1.350 . S
C2031 H2018 0.929 . S
C2031 C2023 1.433 . S
C2031 N2033 1.384 . S
N2032 C2028 1.427 . S
N2032 C2029 1.384 . S
N2033 C2025 1.427 . S
N2033 C2031 1.384 . S
H2034 C2040 0.930 . S
H2035 C2044 0.930 . S
H2036 C2049 0.929 . S
H2037 C2047 0.929 . S
H2038 C2042 0.929 . S
H2039 C2048 0.929 . S
C2040 H2034 0.930 . S
C2040 C2041 1.367 . S
C2040 C2048 1.378 . S
C2041 C2040 1.367 . S
C2041 C2049 1.433 . S
C2042 H2038 0.929 . S
C2042 C2044 1.378 . S
C2042 C2046 1.350 . S
C2043 C2046 1.463 . S
C2043 C2048 1.350 . S
C2043 N2051 1.427 . S
C2044 H2035 0.930 . S
C2044 C2042 1.378 . S
C2044 C2045 1.367 . S
C2045 C2044 1.367 . S
C2045 C2047 1.433 . S
C2046 C2042 1.350 . S
C2046 C2043 1.463 . S
C2046 N2050 1.427 . S
C2047 H2037 0.929 . S
C2047 C2045 1.433 . S
C2047 N2050 1.384 . S
C2048 H2039 0.929 . S
C2048 C2040 1.378 . S
C2048 C2043 1.350 . S
C2049 H2036 0.929 . S
C2049 C2041 1.433 . S
C2049 N2051 1.384 . S
N2050 C2046 1.427 . S
N2050 C2047 1.384 . S
N2051 C2043 1.427 . S
N2051 C2049 1.384 . S
H2052 C2058 0.930 . S
H2053 C2062 0.930 . S
H2054 C2067 0.929 . S
H2055 C2065 0.929 . S
H2056 C2060 0.929 . S
H2057 C2066 0.929 . S
C2058 H2052 0.930 . S
C2058 C2059 1.367 . S
C2058 C2066 1.378 . S
C2059 C2058 1.367 . S
C2059 C2067 1.433 . S
C2060 H2056 0.929 . S
C2060 C2062 1.378 . S
C2060 C2064 1.350 . S
C2061 C2064 1.463 . S
C2061 C2066 1.350 . S
C2061 N2069 1.427 . S
C2062 H2053 0.930 . S
C2062 C2060 1.378 . S
C2062 C2063 1.367 . S
C2063 C2062 1.367 . S
C2063 C2065 1.433 . S
C2064 C2060 1.350 . S
C2064 C2061 1.463 . S
C2064 N2068 1.427 . S
C2065 H2055 0.929 . S
C2065 C2063 1.433 . S
C2065 N2068 1.384 . S
C2066 H2057 0.929 . S
C2066 C2058 1.378 . S
C2066 C2061 1.350 . S
C2067 H2054 0.929 . S
C2067 C2059 1.433 . S
C2067 N2069 1.384 . S
N2068 C2064 1.427 . S
N2068 C2065 1.384 . S
N2069 C2061 1.427 . S
N2069 C2067 1.384 . S
H2070 C2076 0.930 . S
H2071 C2080 0.930 . S
H2072 C2085 0.929 . S
H2073 C2083 0.929 . S
H2074 C2078 0.929 . S
H2075 C2084 0.929 . S
C2076 H2070 0.930 . S
C2076 C2077 1.367 . S
C2076 C2084 1.378 . S
C2077 C2076 1.367 . S
C2077 C2085 1.433 . S
C2078 H2074 0.929 . S
C2078 C2080 1.378 . S
C2078 C2082 1.350 . S
C2079 C2082 1.463 . S
C2079 C2084 1.350 . S
C2079 N2087 1.427 . S
C2080 H2071 0.930 . S
C2080 C2078 1.378 . S
C2080 C2081 1.367 . S
C2081 C2080 1.367 . S
C2081 C2083 1.433 . S
C2082 C2078 1.350 . S
C2082 C2079 1.463 . S
C2082 N2086 1.427 . S
C2083 H2073 0.929 . S
C2083 C2081 1.433 . S
C2083 N2086 1.384 . S
C2084 H2075 0.929 . S
C2084 C2076 1.378 . S
C2084 C2079 1.350 . S
C2085 H2072 0.929 . S
C2085 C2077 1.433 . S
C2085 N2087 1.384 . S
N2086 C2082 1.427 . S
N2086 C2083 1.384 . S
N2087 C2079 1.427 . S
N2087 C2085 1.384 . S
H2088 C2094 0.930 . S
H2089 C2098 0.930 . S
H2090 C2103 0.929 . S
H2091 C2101 0.929 . S
H2092 C2096 0.929 . S
H2093 C2102 0.929 . S
C2094 H2088 0.930 . S
C2094 C2095 1.367 . S
C2094 C2102 1.378 . S
C2095 C2094 1.367 . S
C2095 C2103 1.433 . S
C2096 H2092 0.929 . S
C2096 C2098 1.378 . S
C2096 C2100 1.350 . S
C2097 C2100 1.463 . S
C2097 C2102 1.350 . S
C2097 N2105 1.427 . S
C2098 H2089 0.930 . S
C2098 C2096 1.378 . S
C2098 C2099 1.367 . S
C2099 C2098 1.367 . S
C2099 C2101 1.433 . S
C2100 C2096 1.350 . S
C2100 C2097 1.463 . S
C2100 N2104 1.427 . S
C2101 H2091 0.929 . S
C2101 C2099 1.433 . S
C2101 N2104 1.384 . S
C2102 H2093 0.929 . S
C2102 C2094 1.378 . S
C2102 C2097 1.350 . S
C2103 H2090 0.929 . S
C2103 C2095 1.433 . S
C2103 N2105 1.384 . S
N2104 C2100 1.427 . S
N2104 C2101 1.384 . S
N2105 C2097 1.427 . S
N2105 C2103 1.384 . S
H2106 C2112 0.930 . S
H2107 C2116 0.930 . S
H2108 C2121 0.929 . S
H2109 C2119 0.929 . S
H2110 C2114 0.929 . S
H2111 C2120 0.929 . S
C2112 H2106 0.930 . S
C2112 C2113 1.367 . S
C2112 C2120 1.378 . S
C2113 C2112 1.367 . S
C2113 C2121 1.433 . S
C2114 H2110 0.929 . S
C2114 C2116 1.378 . S
C2114 C2118 1.350 . S
C2115 C2118 1.463 . S
C2115 C2120 1.350 . S
C2115 N2123 1.427 . S
C2116 H2107 0.930 . S
C2116 C2114 1.378 . S
C2116 C2117 1.367 . S
C2117 C2116 1.367 . S
C2117 C2119 1.433 . S
C2118 C2114 1.350 . S
C2118 C2115 1.463 . S
C2118 N2122 1.427 . S
C2119 H2109 0.929 . S
C2119 C2117 1.433 . S
C2119 N2122 1.384 . S
C2120 H2111 0.929 . S
C2120 C2112 1.378 . S
C2120 C2115 1.350 . S
C2121 H2108 0.929 . S
C2121 C2113 1.433 . S
C2121 N2123 1.384 . S
N2122 C2118 1.427 . S
N2122 C2119 1.384 . S
N2123 C2115 1.427 . S
N2123 C2121 1.384 . S
H2124 C2130 0.930 . S
H2125 C2134 0.930 . S
H2126 C2139 0.929 . S
H2127 C2137 0.929 . S
H2128 C2132 0.929 . S
H2129 C2138 0.929 . S
C2130 H2124 0.930 . S
C2130 C2131 1.367 . S
C2130 C2138 1.378 . S
C2131 C2130 1.367 . S
C2131 C2139 1.433 . S
C2132 H2128 0.929 . S
C2132 C2134 1.378 . S
C2132 C2136 1.350 . S
C2133 C2136 1.463 . S
C2133 C2138 1.350 . S
C2133 N2141 1.427 . S
C2134 H2125 0.930 . S
C2134 C2132 1.378 . S
C2134 C2135 1.367 . S
C2135 C2134 1.367 . S
C2135 C2137 1.433 . S
C2136 C2132 1.350 . S
C2136 C2133 1.463 . S
C2136 N2140 1.427 . S
C2137 H2127 0.929 . S
C2137 C2135 1.433 . S
C2137 N2140 1.384 . S
C2138 H2129 0.929 . S
C2138 C2130 1.378 . S
C2138 C2133 1.350 . S
C2139 H2126 0.929 . S
C2139 C2131 1.433 . S
C2139 N2141 1.384 . S
N2140 C2136 1.427 . S
N2140 C2137 1.384 . S
N2141 C2133 1.427 . S
N2141 C2139 1.384 . S
H2142 C2148 0.930 . S
H2143 C2152 0.930 . S
H2144 C2157 0.929 . S
H2145 C2155 0.929 . S
H2146 C2150 0.929 . S
H2147 C2156 0.929 . S
C2148 H2142 0.930 . S
C2148 C2149 1.367 . S
C2148 C2156 1.378 . S
C2149 C2148 1.367 . S
C2149 C2157 1.433 . S
C2150 H2146 0.929 . S
C2150 C2152 1.378 . S
C2150 C2154 1.350 . S
C2151 C2154 1.463 . S
C2151 C2156 1.350 . S
C2151 N2159 1.427 . S
C2152 H2143 0.930 . S
C2152 C2150 1.378 . S
C2152 C2153 1.367 . S
C2153 C2152 1.367 . S
C2153 C2155 1.433 . S
C2154 C2150 1.350 . S
C2154 C2151 1.463 . S
C2154 N2158 1.427 . S
C2155 H2145 0.929 . S
C2155 C2153 1.433 . S
C2155 N2158 1.384 . S
C2156 H2147 0.929 . S
C2156 C2148 1.378 . S
C2156 C2151 1.350 . S
C2157 H2144 0.929 . S
C2157 C2149 1.433 . S
C2157 N2159 1.384 . S
N2158 C2154 1.427 . S
N2158 C2155 1.384 . S
N2159 C2151 1.427 . S
N2159 C2157 1.384 . S
H2160 C2166 0.930 . S
H2161 C2170 0.930 . S
H2162 C2175 0.929 . S
H2163 C2173 0.929 . S
H2164 C2168 0.929 . S
H2165 C2174 0.929 . S
C2166 H2160 0.930 . S
C2166 C2167 1.367 . S
C2166 C2174 1.378 . S
C2167 C2166 1.367 . S
C2167 C2175 1.433 . S
C2168 H2164 0.929 . S
C2168 C2170 1.378 . S
C2168 C2172 1.350 . S
C2169 C2172 1.463 . S
C2169 C2174 1.350 . S
C2169 N2177 1.427 . S
C2170 H2161 0.930 . S
C2170 C2168 1.378 . S
C2170 C2171 1.367 . S
C2171 C2170 1.367 . S
C2171 C2173 1.433 . S
C2172 C2168 1.350 . S
C2172 C2169 1.463 . S
C2172 N2176 1.427 . S
C2173 H2163 0.929 . S
C2173 C2171 1.433 . S
C2173 N2176 1.384 . S
C2174 H2165 0.929 . S
C2174 C2166 1.378 . S
C2174 C2169 1.350 . S
C2175 H2162 0.929 . S
C2175 C2167 1.433 . S
C2175 N2177 1.384 . S
N2176 C2172 1.427 . S
N2176 C2173 1.384 . S
N2177 C2169 1.427 . S
N2177 C2175 1.384 . S
H2178 C2184 0.930 . S
H2179 C2188 0.930 . S
H2180 C2193 0.929 . S
H2181 C2191 0.929 . S
H2182 C2186 0.929 . S
H2183 C2192 0.929 . S
C2184 H2178 0.930 . S
C2184 C2185 1.367 . S
C2184 C2192 1.378 . S
C2185 C2184 1.367 . S
C2185 C2193 1.433 . S
C2186 H2182 0.929 . S
C2186 C2188 1.378 . S
C2186 C2190 1.350 . S
C2187 C2190 1.463 . S
C2187 C2192 1.350 . S
C2187 N2195 1.427 . S
C2188 H2179 0.930 . S
C2188 C2186 1.378 . S
C2188 C2189 1.367 . S
C2189 C2188 1.367 . S
C2189 C2191 1.433 . S
C2190 C2186 1.350 . S
C2190 C2187 1.463 . S
C2190 N2194 1.427 . S
C2191 H2181 0.929 . S
C2191 C2189 1.433 . S
C2191 N2194 1.384 . S
C2192 H2183 0.929 . S
C2192 C2184 1.378 . S
C2192 C2187 1.350 . S
C2193 H2180 0.929 . S
C2193 C2185 1.433 . S
C2193 N2195 1.384 . S
N2194 C2190 1.427 . S
N2194 C2191 1.384 . S
N2195 C2187 1.427 . S
N2195 C2193 1.384 . S
H2196 C2202 0.930 . S
H2197 C2206 0.930 . S
H2198 C2211 0.929 . S
H2199 C2209 0.929 . S
H2200 C2204 0.929 . S
H2201 C2210 0.929 . S
C2202 H2196 0.930 . S
C2202 C2203 1.367 . S
C2202 C2210 1.378 . S
C2203 C2202 1.367 . S
C2203 C2211 1.433 . S
C2204 H2200 0.929 . S
C2204 C2206 1.378 . S
C2204 C2208 1.350 . S
C2205 C2208 1.463 . S
C2205 C2210 1.350 . S
C2205 N2213 1.427 . S
C2206 H2197 0.930 . S
C2206 C2204 1.378 . S
C2206 C2207 1.367 . S
C2207 C2206 1.367 . S
C2207 C2209 1.433 . S
C2208 C2204 1.350 . S
C2208 C2205 1.463 . S
C2208 N2212 1.427 . S
C2209 H2199 0.929 . S
C2209 C2207 1.433 . S
C2209 N2212 1.384 . S
C2210 H2201 0.929 . S
C2210 C2202 1.378 . S
C2210 C2205 1.350 . S
C2211 H2198 0.929 . S
C2211 C2203 1.433 . S
C2211 N2213 1.384 . S
N2212 C2208 1.427 . S
N2212 C2209 1.384 . S
N2213 C2205 1.427 . S
N2213 C2211 1.384 . S
H2214 C2220 0.930 . S
H2215 C2224 0.930 . S
H2216 C2229 0.929 . S
H2217 C2227 0.929 . S
H2218 C2222 0.929 . S
H2219 C2228 0.929 . S
C2220 H2214 0.930 . S
C2220 C2221 1.367 . S
C2220 C2228 1.378 . S
C2221 C2220 1.367 . S
C2221 C2229 1.433 . S
C2222 H2218 0.929 . S
C2222 C2224 1.378 . S
C2222 C2226 1.350 . S
C2223 C2226 1.463 . S
C2223 C2228 1.350 . S
C2223 N2231 1.427 . S
C2224 H2215 0.930 . S
C2224 C2222 1.378 . S
C2224 C2225 1.367 . S
C2225 C2224 1.367 . S
C2225 C2227 1.433 . S
C2226 C2222 1.350 . S
C2226 C2223 1.463 . S
C2226 N2230 1.427 . S
C2227 H2217 0.929 . S
C2227 C2225 1.433 . S
C2227 N2230 1.384 . S
C2228 H2219 0.929 . S
C2228 C2220 1.378 . S
C2228 C2223 1.350 . S
C2229 H2216 0.929 . S
C2229 C2221 1.433 . S
C2229 N2231 1.384 . S
N2230 C2226 1.427 . S
N2230 C2227 1.384 . S
N2231 C2223 1.427 . S
N2231 C2229 1.384 . S
H2232 C2238 0.930 . S
H2233 C2242 0.930 . S
H2234 C2247 0.929 . S
H2235 C2245 0.929 . S
H2236 C2240 0.929 . S
H2237 C2246 0.929 . S
C2238 H2232 0.930 . S
C2238 C2239 1.367 . S
C2238 C2246 1.378 . S
C2239 C2238 1.367 . S
C2239 C2247 1.433 . S
C2240 H2236 0.929 . S
C2240 C2242 1.378 . S
C2240 C2244 1.350 . S
C2241 C2244 1.463 . S
C2241 C2246 1.350 . S
C2241 N2249 1.427 . S
C2242 H2233 0.930 . S
C2242 C2240 1.378 . S
C2242 C2243 1.367 . S
C2243 C2242 1.367 . S
C2243 C2245 1.433 . S
C2244 C2240 1.350 . S
C2244 C2241 1.463 . S
C2244 N2248 1.427 . S
C2245 H2235 0.929 . S
C2245 C2243 1.433 . S
C2245 N2248 1.384 . S
C2246 H2237 0.929 . S
C2246 C2238 1.378 . S
C2246 C2241 1.350 . S
C2247 H2234 0.929 . S
C2247 C2239 1.433 . S
C2247 N2249 1.384 . S
N2248 C2244 1.427 . S
N2248 C2245 1.384 . S
N2249 C2241 1.427 . S
N2249 C2247 1.384 . S
H2250 C2256 0.930 . S
H2251 C2260 0.930 . S
H2252 C2265 0.929 . S
H2253 C2263 0.929 . S
H2254 C2258 0.929 . S
H2255 C2264 0.929 . S
C2256 H2250 0.930 . S
C2256 C2257 1.367 . S
C2256 C2264 1.378 . S
C2257 C2256 1.367 . S
C2257 C2265 1.433 . S
C2258 H2254 0.929 . S
C2258 C2260 1.378 . S
C2258 C2262 1.350 . S
C2259 C2262 1.463 . S
C2259 C2264 1.350 . S
C2259 N2267 1.427 . S
C2260 H2251 0.930 . S
C2260 C2258 1.378 . S
C2260 C2261 1.367 . S
C2261 C2260 1.367 . S
C2261 C2263 1.433 . S
C2262 C2258 1.350 . S
C2262 C2259 1.463 . S
C2262 N2266 1.427 . S
C2263 H2253 0.929 . S
C2263 C2261 1.433 . S
C2263 N2266 1.384 . S
C2264 H2255 0.929 . S
C2264 C2256 1.378 . S
C2264 C2259 1.350 . S
C2265 H2252 0.929 . S
C2265 C2257 1.433 . S
C2265 N2267 1.384 . S
N2266 C2262 1.427 . S
N2266 C2263 1.384 . S
N2267 C2259 1.427 . S
N2267 C2265 1.384 . S
H2268 C2274 0.930 . S
H2269 C2278 0.930 . S
H2270 C2283 0.929 . S
H2271 C2281 0.929 . S
H2272 C2276 0.929 . S
H2273 C2282 0.929 . S
C2274 H2268 0.930 . S
C2274 C2275 1.367 . S
C2274 C2282 1.378 . S
C2275 C2274 1.367 . S
C2275 C2283 1.433 . S
C2276 H2272 0.929 . S
C2276 C2278 1.378 . S
C2276 C2280 1.350 . S
C2277 C2280 1.463 . S
C2277 C2282 1.350 . S
C2277 N2285 1.427 . S
C2278 H2269 0.930 . S
C2278 C2276 1.378 . S
C2278 C2279 1.367 . S
C2279 C2278 1.367 . S
C2279 C2281 1.433 . S
C2280 C2276 1.350 . S
C2280 C2277 1.463 . S
C2280 N2284 1.427 . S
C2281 H2271 0.929 . S
C2281 C2279 1.433 . S
C2281 N2284 1.384 . S
C2282 H2273 0.929 . S
C2282 C2274 1.378 . S
C2282 C2277 1.350 . S
C2283 H2270 0.929 . S
C2283 C2275 1.433 . S
C2283 N2285 1.384 . S
N2284 C2280 1.427 . S
N2284 C2281 1.384 . S
N2285 C2277 1.427 . S
N2285 C2283 1.384 . S
H2286 C2292 0.930 . S
H2287 C2296 0.930 . S
H2288 C2301 0.929 . S
H2289 C2299 0.929 . S
H2290 C2294 0.929 . S
H2291 C2300 0.929 . S
C2292 H2286 0.930 . S
C2292 C2293 1.367 . S
C2292 C2300 1.378 . S
C2293 C2292 1.367 . S
C2293 C2301 1.433 . S
C2294 H2290 0.929 . S
C2294 C2296 1.378 . S
C2294 C2298 1.350 . S
C2295 C2298 1.463 . S
C2295 C2300 1.350 . S
C2295 N2303 1.427 . S
C2296 H2287 0.930 . S
C2296 C2294 1.378 . S
C2296 C2297 1.367 . S
C2297 C2296 1.367 . S
C2297 C2299 1.433 . S
C2298 C2294 1.350 . S
C2298 C2295 1.463 . S
C2298 N2302 1.427 . S
C2299 H2289 0.929 . S
C2299 C2297 1.433 . S
C2299 N2302 1.384 . S
C2300 H2291 0.929 . S
C2300 C2292 1.378 . S
C2300 C2295 1.350 . S
C2301 H2288 0.929 . S
C2301 C2293 1.433 . S
C2301 N2303 1.384 . S
N2302 C2298 1.427 . S
N2302 C2299 1.384 . S
N2303 C2295 1.427 . S
N2303 C2301 1.384 . S
H2304 C2310 0.930 . S
H2305 C2314 0.930 . S
H2306 C2319 0.929 . S
H2307 C2317 0.929 . S
H2308 C2312 0.929 . S
H2309 C2318 0.929 . S
C2310 H2304 0.930 . S
C2310 C2311 1.367 . S
C2310 C2318 1.378 . S
C2311 C2310 1.367 . S
C2311 C2319 1.433 . S
C2312 H2308 0.929 . S
C2312 C2314 1.378 . S
C2312 C2316 1.350 . S
C2313 C2316 1.463 1_655 S
C2313 C2318 1.350 . S
C2313 N2321 1.427 . S
C2314 H2305 0.930 . S
C2314 C2312 1.378 . S
C2314 C2315 1.367 . S
C2315 C2314 1.367 . S
C2315 C2317 1.433 . S
C2316 C2312 1.350 . S
C2316 C2313 1.463 1_455 S
C2316 N2320 1.427 . S
C2317 H2307 0.929 . S
C2317 C2315 1.433 . S
C2317 N2320 1.384 . S
C2318 H2309 0.929 . S
C2318 C2310 1.378 . S
C2318 C2313 1.350 . S
C2319 H2306 0.929 . S
C2319 C2311 1.433 . S
C2319 N2321 1.384 . S
N2320 C2316 1.427 . S
N2320 C2317 1.384 . S
N2321 C2313 1.427 . S
N2321 C2319 1.384 . S
H2322 C2328 0.930 . S
H2323 C2332 0.930 . S
H2324 C2337 0.929 . S
H2325 C2335 0.929 . S
H2326 C2330 0.929 . S
H2327 C2336 0.929 . S
C2328 H2322 0.930 . S
C2328 C2329 1.367 . S
C2328 C2336 1.378 . S
C2329 C2328 1.367 . S
C2329 C2337 1.433 . S
C2330 H2326 0.929 . S
C2330 C2332 1.378 . S
C2330 C2334 1.350 . S
C2331 C2334 1.463 . S
C2331 C2336 1.350 . S
C2331 N2339 1.427 . S
C2332 H2323 0.930 . S
C2332 C2330 1.378 . S
C2332 C2333 1.367 . S
C2333 C2332 1.367 . S
C2333 C2335 1.433 . S
C2334 C2330 1.350 . S
C2334 C2331 1.463 . S
C2334 N2338 1.427 . S
C2335 H2325 0.929 . S
C2335 C2333 1.433 . S
C2335 N2338 1.384 . S
C2336 H2327 0.929 . S
C2336 C2328 1.378 . S
C2336 C2331 1.350 . S
C2337 H2324 0.929 . S
C2337 C2329 1.433 . S
C2337 N2339 1.384 . S
N2338 C2334 1.427 . S
N2338 C2335 1.384 . S
N2339 C2331 1.427 . S
N2339 C2337 1.384 . S
H2340 C2346 0.930 . S
H2341 C2350 0.930 . S
H2342 C2355 0.929 . S
H2343 C2353 0.929 . S
H2344 C2348 0.929 . S
H2345 C2354 0.929 . S
C2346 H2340 0.930 . S
C2346 C2347 1.367 . S
C2346 C2354 1.378 . S
C2347 C2346 1.367 . S
C2347 C2355 1.433 . S
C2348 H2344 0.929 . S
C2348 C2350 1.378 . S
C2348 C2352 1.350 . S
C2349 C2352 1.463 1_545 S
C2349 C2354 1.350 . S
C2349 N2357 1.427 . S
C2350 H2341 0.930 . S
C2350 C2348 1.378 . S
C2350 C2351 1.367 . S
C2351 C2350 1.367 . S
C2351 C2353 1.433 . S
C2352 C2348 1.350 . S
C2352 C2349 1.463 1_565 S
C2352 N2356 1.427 . S
C2353 H2343 0.929 . S
C2353 C2351 1.433 . S
C2353 N2356 1.384 . S
C2354 H2345 0.929 . S
C2354 C2346 1.378 . S
C2354 C2349 1.350 . S
C2355 H2342 0.929 . S
C2355 C2347 1.433 . S
C2355 N2357 1.384 . S
N2356 C2352 1.427 . S
N2356 C2353 1.384 . S
N2357 C2349 1.427 . S
N2357 C2355 1.384 . S
H2358 C2364 0.930 . S
H2359 C2368 0.930 . S
H2360 C2373 0.929 . S
H2361 C2371 0.929 . S
H2362 C2366 0.929 . S
H2363 C2372 0.929 . S
C2364 H2358 0.930 . S
C2364 C2365 1.367 1_556 S
C2364 C2372 1.378 . S
C2365 C2364 1.367 1_554 S
C2365 C2373 1.433 . S
C2366 H2362 0.929 . S
C2366 C2368 1.378 . S
C2366 C2370 1.350 1_554 S
C2367 C2370 1.463 1_564 S
C2367 C2372 1.350 1_554 S
C2367 N2375 1.427 . S
C2368 H2359 0.930 . S
C2368 C2366 1.378 . S
C2368 C2369 1.367 1_554 S
C2369 C2368 1.367 1_556 S
C2369 C2371 1.433 . S
C2370 C2366 1.350 1_556 S
C2370 C2367 1.463 1_546 S
C2370 N2374 1.427 . S
C2371 H2361 0.929 . S
C2371 C2369 1.433 . S
C2371 N2374 1.384 . S
C2372 H2363 0.929 . S
C2372 C2364 1.378 . S
C2372 C2367 1.350 1_556 S
C2373 H2360 0.929 . S
C2373 C2365 1.433 . S
C2373 N2375 1.384 . S
N2374 C2370 1.427 . S
N2374 C2371 1.384 . S
N2375 C2367 1.427 . S
N2375 C2373 1.384 . S
H2376 C2382 0.930 . S
H2377 C2386 0.930 . S
H2378 C2391 0.929 . S
H2379 C2389 0.929 . S
H2380 C2384 0.929 1_656 S
H2381 C2390 0.929 1_454 S
C2382 H2376 0.930 . S
C2382 C2383 1.367 . S
C2382 C2390 1.378 . S
C2383 C2382 1.367 . S
C2383 C2391 1.433 . S
C2384 H2380 0.929 1_454 S
C2384 C2386 1.378 . S
C2384 C2388 1.350 . S
C2385 C2388 1.463 1_656 S
C2385 C2390 1.350 . S
C2385 N2393 1.427 . S
C2386 H2377 0.930 . S
C2386 C2384 1.378 . S
C2386 C2387 1.367 . S
C2387 C2386 1.367 . S
C2387 C2389 1.433 . S
C2388 C2384 1.350 . S
C2388 C2385 1.463 1_454 S
C2388 N2392 1.427 . S
C2389 H2379 0.929 . S
C2389 C2387 1.433 . S
C2389 N2392 1.384 . S
C2390 H2381 0.929 1_656 S
C2390 C2382 1.378 . S
C2390 C2385 1.350 . S
C2391 H2378 0.929 . S
C2391 C2383 1.433 . S
C2391 N2393 1.384 . S
N2392 C2388 1.427 . S
N2392 C2389 1.384 . S
N2393 C2385 1.427 . S
N2393 C2391 1.384 . S
H2394 C2400 0.930 . S
H2395 C2404 0.930 . S
H2396 C2409 0.929 . S
H2397 C2407 0.929 . S
H2398 C2402 0.929 . S
H2399 C2408 0.929 . S
C2400 H2394 0.930 . S
C2400 C2401 1.367 . S
C2400 C2408 1.378 . S
C2401 C2400 1.367 . S
C2401 C2409 1.433 1_554 S
C2402 H2398 0.929 . S
C2402 C2404 1.378 . S
C2402 C2406 1.350 . S
C2403 C2406 1.463 1_554 S
C2403 C2408 1.350 . S
C2403 N2411 1.427 1_554 S
C2404 H2395 0.930 . S
C2404 C2402 1.378 . S
C2404 C2405 1.367 . S
C2405 C2404 1.367 . S
C2405 C2407 1.433 1_556 S
C2406 C2402 1.350 . S
C2406 C2403 1.463 1_556 S
C2406 N2410 1.427 1_556 S
C2407 H2397 0.929 . S
C2407 C2405 1.433 1_554 S
C2407 N2410 1.384 . S
C2408 H2399 0.929 . S
C2408 C2400 1.378 . S
C2408 C2403 1.350 . S
C2409 H2396 0.929 . S
C2409 C2401 1.433 1_556 S
C2409 N2411 1.384 . S
N2410 C2406 1.427 1_554 S
N2410 C2407 1.384 . S
N2411 C2403 1.427 1_556 S
N2411 C2409 1.384 . S
H2412 C2418 0.930 . S
H2413 C2422 0.930 . S
H2414 C2427 0.929 . S
H2415 C2425 0.929 . S
H2416 C2420 0.929 . S
H2417 C2426 0.929 . S
C2418 H2412 0.930 . S
C2418 C2419 1.367 . S
C2418 C2426 1.378 . S
C2419 C2418 1.367 . S
C2419 C2427 1.433 . S
C2420 H2416 0.929 . S
C2420 C2422 1.378 . S
C2420 C2424 1.350 . S
C2421 C2424 1.463 . S
C2421 C2426 1.350 . S
C2421 N2429 1.427 . S
C2422 H2413 0.930 . S
C2422 C2420 1.378 . S
C2422 C2423 1.367 . S
C2423 C2422 1.367 . S
C2423 C2425 1.433 . S
C2424 C2420 1.350 . S
C2424 C2421 1.463 . S
C2424 N2428 1.427 . S
C2425 H2415 0.929 . S
C2425 C2423 1.433 . S
C2425 N2428 1.384 . S
C2426 H2417 0.929 . S
C2426 C2418 1.378 . S
C2426 C2421 1.350 . S
C2427 H2414 0.929 . S
C2427 C2419 1.433 . S
C2427 N2429 1.384 . S
N2428 C2424 1.427 . S
N2428 C2425 1.384 . S
N2429 C2421 1.427 . S
N2429 C2427 1.384 . S
H2430 C2436 0.930 1_554 S
H2431 C2440 0.930 . S
H2432 C2445 0.929 . S
H2433 C2443 0.929 . S
H2434 C2438 0.929 . S
H2435 C2444 0.929 . S
C2436 H2430 0.930 1_556 S
C2436 C2437 1.367 . S
C2436 C2444 1.378 . S
C2437 C2436 1.367 . S
C2437 C2445 1.433 . S
C2438 H2434 0.929 . S
C2438 C2440 1.378 . S
C2438 C2442 1.350 . S
C2439 C2442 1.463 . S
C2439 C2444 1.350 . S
C2439 N2447 1.427 . S
C2440 H2431 0.930 . S
C2440 C2438 1.378 . S
C2440 C2441 1.367 . S
C2441 C2440 1.367 . S
C2441 C2443 1.433 . S
C2442 C2438 1.350 . S
C2442 C2439 1.463 . S
C2442 N2446 1.427 . S
C2443 H2433 0.929 . S
C2443 C2441 1.433 . S
C2443 N2446 1.384 . S
C2444 H2435 0.929 . S
C2444 C2436 1.378 . S
C2444 C2439 1.350 . S
C2445 H2432 0.929 . S
C2445 C2437 1.433 . S
C2445 N2447 1.384 . S
N2446 C2442 1.427 . S
N2446 C2443 1.384 . S
N2447 C2439 1.427 . S
N2447 C2445 1.384 . S
H2448 C2454 0.930 . S
H2449 C2458 0.930 . S
H2450 C2463 0.929 . S
H2451 C2461 0.929 . S
H2452 C2456 0.929 . S
H2453 C2462 0.929 . S
C2454 H2448 0.930 . S
C2454 C2455 1.367 . S
C2454 C2462 1.378 . S
C2455 C2454 1.367 . S
C2455 C2463 1.433 . S
C2456 H2452 0.929 . S
C2456 C2458 1.378 . S
C2456 C2460 1.350 . S
C2457 C2460 1.463 . S
C2457 C2462 1.350 . S
C2457 N2465 1.427 . S
C2458 H2449 0.930 . S
C2458 C2456 1.378 . S
C2458 C2459 1.367 . S
C2459 C2458 1.367 . S
C2459 C2461 1.433 . S
C2460 C2456 1.350 . S
C2460 C2457 1.463 . S
C2460 N2464 1.427 . S
C2461 H2451 0.929 . S
C2461 C2459 1.433 . S
C2461 N2464 1.384 . S
C2462 H2453 0.929 . S
C2462 C2454 1.378 . S
C2462 C2457 1.350 . S
C2463 H2450 0.929 . S
C2463 C2455 1.433 . S
C2463 N2465 1.384 . S
N2464 C2460 1.427 . S
N2464 C2461 1.384 . S
N2465 C2457 1.427 . S
N2465 C2463 1.384 . S
H2466 C2472 0.930 . S
H2467 C2476 0.930 . S
H2468 C2481 0.929 . S
H2469 C2479 0.929 . S
H2470 C2474 0.929 . S
H2471 C2480 0.929 . S
C2472 H2466 0.930 . S
C2472 C2473 1.367 . S
C2472 C2480 1.378 . S
C2473 C2472 1.367 . S
C2473 C2481 1.433 . S
C2474 H2470 0.929 . S
C2474 C2476 1.378 . S
C2474 C2478 1.350 . S
C2475 C2478 1.463 . S
C2475 C2480 1.350 . S
C2475 N2483 1.427 . S
C2476 H2467 0.930 . S
C2476 C2474 1.378 . S
C2476 C2477 1.367 . S
C2477 C2476 1.367 . S
C2477 C2479 1.433 . S
C2478 C2474 1.350 . S
C2478 C2475 1.463 . S
C2478 N2482 1.427 . S
C2479 H2469 0.929 . S
C2479 C2477 1.433 . S
C2479 N2482 1.384 . S
C2480 H2471 0.929 . S
C2480 C2472 1.378 . S
C2480 C2475 1.350 . S
C2481 H2468 0.929 . S
C2481 C2473 1.433 . S
C2481 N2483 1.384 . S
N2482 C2478 1.427 . S
N2482 C2479 1.384 . S
N2483 C2475 1.427 . S
N2483 C2481 1.384 . S
H2484 C2490 0.930 . S
H2485 C2494 0.930 . S
H2486 C2499 0.929 . S
H2487 C2497 0.929 . S
H2488 C2492 0.929 . S
H2489 C2498 0.929 . S
C2490 H2484 0.930 . S
C2490 C2491 1.367 . S
C2490 C2498 1.378 . S
C2491 C2490 1.367 . S
C2491 C2499 1.433 . S
C2492 H2488 0.929 . S
C2492 C2494 1.378 . S
C2492 C2496 1.350 . S
C2493 C2496 1.463 . S
C2493 C2498 1.350 . S
C2493 N2501 1.427 . S
C2494 H2485 0.930 . S
C2494 C2492 1.378 . S
C2494 C2495 1.367 . S
C2495 C2494 1.367 . S
C2495 C2497 1.433 . S
C2496 C2492 1.350 . S
C2496 C2493 1.463 . S
C2496 N2500 1.427 . S
C2497 H2487 0.929 . S
C2497 C2495 1.433 . S
C2497 N2500 1.384 . S
C2498 H2489 0.929 . S
C2498 C2490 1.378 . S
C2498 C2493 1.350 . S
C2499 H2486 0.929 . S
C2499 C2491 1.433 . S
C2499 N2501 1.384 . S
N2500 C2496 1.427 . S
N2500 C2497 1.384 . S
N2501 C2493 1.427 . S
N2501 C2499 1.384 . S
H2502 C2508 0.930 . S
H2503 C2512 0.930 . S
H2504 C2517 0.929 . S
H2505 C2515 0.929 . S
H2506 C2510 0.929 . S
H2507 C2516 0.929 . S
C2508 H2502 0.930 . S
C2508 C2509 1.367 . S
C2508 C2516 1.378 . S
C2509 C2508 1.367 . S
C2509 C2517 1.433 . S
C2510 H2506 0.929 . S
C2510 C2512 1.378 . S
C2510 C2514 1.350 . S
C2511 C2514 1.463 . S
C2511 C2516 1.350 . S
C2511 N2519 1.427 . S
C2512 H2503 0.930 . S
C2512 C2510 1.378 . S
C2512 C2513 1.367 . S
C2513 C2512 1.367 . S
C2513 C2515 1.433 . S
C2514 C2510 1.350 . S
C2514 C2511 1.463 . S
C2514 N2518 1.427 . S
C2515 H2505 0.929 . S
C2515 C2513 1.433 . S
C2515 N2518 1.384 . S
C2516 H2507 0.929 . S
C2516 C2508 1.378 . S
C2516 C2511 1.350 . S
C2517 H2504 0.929 . S
C2517 C2509 1.433 . S
C2517 N2519 1.384 . S
N2518 C2514 1.427 . S
N2518 C2515 1.384 . S
N2519 C2511 1.427 . S
N2519 C2517 1.384 . S
H2520 C2526 0.930 . S
H2521 C2530 0.930 . S
H2522 C2535 0.929 . S
H2523 C2533 0.929 . S
H2524 C2528 0.929 . S
H2525 C2534 0.929 . S
C2526 H2520 0.930 . S
C2526 C2527 1.367 . S
C2526 C2534 1.378 . S
C2527 C2526 1.367 . S
C2527 C2535 1.433 . S
C2528 H2524 0.929 . S
C2528 C2530 1.378 . S
C2528 C2532 1.350 . S
C2529 C2532 1.463 . S
C2529 C2534 1.350 . S
C2529 N2537 1.427 . S
C2530 H2521 0.930 . S
C2530 C2528 1.378 . S
C2530 C2531 1.367 . S
C2531 C2530 1.367 . S
C2531 C2533 1.433 . S
C2532 C2528 1.350 . S
C2532 C2529 1.463 . S
C2532 N2536 1.427 . S
C2533 H2523 0.929 . S
C2533 C2531 1.433 . S
C2533 N2536 1.384 . S
C2534 H2525 0.929 . S
C2534 C2526 1.378 . S
C2534 C2529 1.350 . S
C2535 H2522 0.929 . S
C2535 C2527 1.433 . S
C2535 N2537 1.384 . S
N2536 C2532 1.427 . S
N2536 C2533 1.384 . S
N2537 C2529 1.427 . S
N2537 C2535 1.384 . S
H2538 C2544 0.930 . S
H2539 C2548 0.930 . S
H2540 C2553 0.929 . S
H2541 C2551 0.929 . S
H2542 C2546 0.929 . S
H2543 C2552 0.929 . S
C2544 H2538 0.930 . S
C2544 C2545 1.367 . S
C2544 C2552 1.378 . S
C2545 C2544 1.367 . S
C2545 C2553 1.433 . S
C2546 H2542 0.929 . S
C2546 C2548 1.378 . S
C2546 C2550 1.350 . S
C2547 C2550 1.463 . S
C2547 C2552 1.350 . S
C2547 N2555 1.427 . S
C2548 H2539 0.930 . S
C2548 C2546 1.378 . S
C2548 C2549 1.367 . S
C2549 C2548 1.367 . S
C2549 C2551 1.433 . S
C2550 C2546 1.350 . S
C2550 C2547 1.463 . S
C2550 N2554 1.427 . S
C2551 H2541 0.929 . S
C2551 C2549 1.433 . S
C2551 N2554 1.384 . S
C2552 H2543 0.929 . S
C2552 C2544 1.378 . S
C2552 C2547 1.350 . S
C2553 H2540 0.929 . S
C2553 C2545 1.433 . S
C2553 N2555 1.384 . S
N2554 C2550 1.427 . S
N2554 C2551 1.384 . S
N2555 C2547 1.427 . S
N2555 C2553 1.384 . S
H2556 C2562 0.930 . S
H2557 C2566 0.930 . S
H2558 C2571 0.929 . S
H2559 C2569 0.929 1_556 S
H2560 C2564 0.929 . S
H2561 C2570 0.929 . S
C2562 H2556 0.930 . S
C2562 C2563 1.367 . S
C2562 C2570 1.378 . S
C2563 C2562 1.367 . S
C2563 C2571 1.433 . S
C2564 H2560 0.929 . S
C2564 C2566 1.378 . S
C2564 C2568 1.350 . S
C2565 C2568 1.463 . S
C2565 C2570 1.350 . S
C2565 N2573 1.427 . S
C2566 H2557 0.930 . S
C2566 C2564 1.378 . S
C2566 C2567 1.367 . S
C2567 C2566 1.367 . S
C2567 C2569 1.433 . S
C2568 C2564 1.350 . S
C2568 C2565 1.463 . S
C2568 N2572 1.427 . S
C2569 H2559 0.929 1_554 S
C2569 C2567 1.433 . S
C2569 N2572 1.384 . S
C2570 H2561 0.929 . S
C2570 C2562 1.378 . S
C2570 C2565 1.350 . S
C2571 H2558 0.929 . S
C2571 C2563 1.433 . S
C2571 N2573 1.384 . S
N2572 C2568 1.427 . S
N2572 C2569 1.384 . S
N2573 C2565 1.427 . S
N2573 C2571 1.384 . S
H2574 C2580 0.930 . S
H2575 C2584 0.930 . S
H2576 C2589 0.929 . S
H2577 C2587 0.929 . S
H2578 C2582 0.929 . S
H2579 C2588 0.929 . S
C2580 H2574 0.930 . S
C2580 C2581 1.367 . S
C2580 C2588 1.378 . S
C2581 C2580 1.367 . S
C2581 C2589 1.433 . S
C2582 H2578 0.929 . S
C2582 C2584 1.378 . S
C2582 C2586 1.350 . S
C2583 C2586 1.463 . S
C2583 C2588 1.350 . S
C2583 N2591 1.427 . S
C2584 H2575 0.930 . S
C2584 C2582 1.378 . S
C2584 C2585 1.367 . S
C2585 C2584 1.367 . S
C2585 C2587 1.433 . S
C2586 C2582 1.350 . S
C2586 C2583 1.463 . S
C2586 N2590 1.427 . S
C2587 H2577 0.929 . S
C2587 C2585 1.433 . S
C2587 N2590 1.384 . S
C2588 H2579 0.929 . S
C2588 C2580 1.378 . S
C2588 C2583 1.350 . S
C2589 H2576 0.929 . S
C2589 C2581 1.433 . S
C2589 N2591 1.384 . S
N2590 C2586 1.427 . S
N2590 C2587 1.384 . S
N2591 C2583 1.427 . S
N2591 C2589 1.384 . S
H2592 C2598 0.930 . S
H2593 C2602 0.930 . S
H2594 C2607 0.929 . S
H2595 C2605 0.929 . S
H2596 C2600 0.929 . S
H2597 C2606 0.929 . S
C2598 H2592 0.930 . S
C2598 C2599 1.367 . S
C2598 C2606 1.378 . S
C2599 C2598 1.367 . S
C2599 C2607 1.433 . S
C2600 H2596 0.929 . S
C2600 C2602 1.378 . S
C2600 C2604 1.350 . S
C2601 C2604 1.463 . S
C2601 C2606 1.350 . S
C2601 N2609 1.427 . S
C2602 H2593 0.930 . S
C2602 C2600 1.378 . S
C2602 C2603 1.367 . S
C2603 C2602 1.367 . S
C2603 C2605 1.433 . S
C2604 C2600 1.350 . S
C2604 C2601 1.463 . S
C2604 N2608 1.427 . S
C2605 H2595 0.929 . S
C2605 C2603 1.433 . S
C2605 N2608 1.384 . S
C2606 H2597 0.929 . S
C2606 C2598 1.378 . S
C2606 C2601 1.350 . S
C2607 H2594 0.929 . S
C2607 C2599 1.433 . S
C2607 N2609 1.384 . S
N2608 C2604 1.427 . S
N2608 C2605 1.384 . S
N2609 C2601 1.427 . S
N2609 C2607 1.384 . S
H2610 C2616 0.930 . S
H2611 C2620 0.930 . S
H2612 C2625 0.929 . S
H2613 C2623 0.929 . S
H2614 C2618 0.929 . S
H2615 C2624 0.929 . S
C2616 H2610 0.930 . S
C2616 C2617 1.367 . S
C2616 C2624 1.378 . S
C2617 C2616 1.367 . S
C2617 C2625 1.433 . S
C2618 H2614 0.929 . S
C2618 C2620 1.378 . S
C2618 C2622 1.350 . S
C2619 C2622 1.463 . S
C2619 C2624 1.350 . S
C2619 N2627 1.427 . S
C2620 H2611 0.930 . S
C2620 C2618 1.378 . S
C2620 C2621 1.367 . S
C2621 C2620 1.367 . S
C2621 C2623 1.433 . S
C2622 C2618 1.350 . S
C2622 C2619 1.463 . S
C2622 N2626 1.427 . S
C2623 H2613 0.929 . S
C2623 C2621 1.433 . S
C2623 N2626 1.384 . S
C2624 H2615 0.929 . S
C2624 C2616 1.378 . S
C2624 C2619 1.350 . S
C2625 H2612 0.929 . S
C2625 C2617 1.433 . S
C2625 N2627 1.384 . S
N2626 C2622 1.427 . S
N2626 C2623 1.384 . S
N2627 C2619 1.427 . S
N2627 C2625 1.384 . S
H2628 C2634 0.930 . S
H2629 C2638 0.930 . S
H2630 C2643 0.929 . S
H2631 C2641 0.929 . S
H2632 C2636 0.929 . S
H2633 C2642 0.929 . S
C2634 H2628 0.930 . S
C2634 C2635 1.367 . S
C2634 C2642 1.378 . S
C2635 C2634 1.367 . S
C2635 C2643 1.433 . S
C2636 H2632 0.929 . S
C2636 C2638 1.378 . S
C2636 C2640 1.350 . S
C2637 C2640 1.463 1_455 S
C2637 C2642 1.350 . S
C2637 N2645 1.427 . S
C2638 H2629 0.930 . S
C2638 C2636 1.378 . S
C2638 C2639 1.367 . S
C2639 C2638 1.367 . S
C2639 C2641 1.433 . S
C2640 C2636 1.350 . S
C2640 C2637 1.463 1_655 S
C2640 N2644 1.427 . S
C2641 H2631 0.929 . S
C2641 C2639 1.433 . S
C2641 N2644 1.384 . S
C2642 H2633 0.929 . S
C2642 C2634 1.378 . S
C2642 C2637 1.350 . S
C2643 H2630 0.929 . S
C2643 C2635 1.433 . S
C2643 N2645 1.384 . S
N2644 C2640 1.427 . S
N2644 C2641 1.384 . S
N2645 C2637 1.427 . S
N2645 C2643 1.384 . S
H2646 C2652 0.930 . S
H2647 C2656 0.930 . S
H2648 C2661 0.929 . S
H2649 C2659 0.929 . S
H2650 C2654 0.929 . S
H2651 C2660 0.929 . S
C2652 H2646 0.930 . S
C2652 C2653 1.367 . S
C2652 C2660 1.378 . S
C2653 C2652 1.367 . S
C2653 C2661 1.433 . S
C2654 H2650 0.929 . S
C2654 C2656 1.378 . S
C2654 C2658 1.350 . S
C2655 C2658 1.463 . S
C2655 C2660 1.350 . S
C2655 N2663 1.427 . S
C2656 H2647 0.930 . S
C2656 C2654 1.378 . S
C2656 C2657 1.367 . S
C2657 C2656 1.367 . S
C2657 C2659 1.433 . S
C2658 C2654 1.350 . S
C2658 C2655 1.463 . S
C2658 N2662 1.427 . S
C2659 H2649 0.929 . S
C2659 C2657 1.433 . S
C2659 N2662 1.384 . S
C2660 H2651 0.929 . S
C2660 C2652 1.378 . S
C2660 C2655 1.350 . S
C2661 H2648 0.929 . S
C2661 C2653 1.433 . S
C2661 N2663 1.384 . S
N2662 C2658 1.427 . S
N2662 C2659 1.384 . S
N2663 C2655 1.427 . S
N2663 C2661 1.384 . S
H2664 C2670 0.930 . S
H2665 C2674 0.930 . S
H2666 C2679 0.929 . S
H2667 C2677 0.929 . S
H2668 C2672 0.929 1_545 S
H2669 C2678 0.929 1_565 S
C2670 H2664 0.930 . S
C2670 C2671 1.367 . S
C2670 C2678 1.378 . S
C2671 C2670 1.367 . S
C2671 C2679 1.433 . S
C2672 H2668 0.929 1_565 S
C2672 C2674 1.378 . S
C2672 C2676 1.350 . S
C2673 C2676 1.463 1_545 S
C2673 C2678 1.350 . S
C2673 N2681 1.427 . S
C2674 H2665 0.930 . S
C2674 C2672 1.378 . S
C2674 C2675 1.367 . S
C2675 C2674 1.367 . S
C2675 C2677 1.433 . S
C2676 C2672 1.350 . S
C2676 C2673 1.463 1_565 S
C2676 N2680 1.427 . S
C2677 H2667 0.929 . S
C2677 C2675 1.433 . S
C2677 N2680 1.384 . S
C2678 H2669 0.929 1_545 S
C2678 C2670 1.378 . S
C2678 C2673 1.350 . S
C2679 H2666 0.929 . S
C2679 C2671 1.433 . S
C2679 N2681 1.384 . S
N2680 C2676 1.427 . S
N2680 C2677 1.384 . S
N2681 C2673 1.427 . S
N2681 C2679 1.384 . S
H2682 C2688 0.930 . S
H2683 C2692 0.930 . S
H2684 C2697 0.929 . S
H2685 C2695 0.929 . S
H2686 C2690 0.929 1_565 S
H2687 C2696 0.929 1_545 S
C2688 H2682 0.930 . S
C2688 C2689 1.367 . S
C2688 C2696 1.378 . S
C2689 C2688 1.367 . S
C2689 C2697 1.433 . S
C2690 H2686 0.929 1_545 S
C2690 C2692 1.378 . S
C2690 C2694 1.350 . S
C2691 C2694 1.463 1_565 S
C2691 C2696 1.350 . S
C2691 N2699 1.427 . S
C2692 H2683 0.930 . S
C2692 C2690 1.378 . S
C2692 C2693 1.367 . S
C2693 C2692 1.367 . S
C2693 C2695 1.433 . S
C2694 C2690 1.350 . S
C2694 C2691 1.463 1_545 S
C2694 N2698 1.427 . S
C2695 H2685 0.929 . S
C2695 C2693 1.433 . S
C2695 N2698 1.384 . S
C2696 H2687 0.929 1_565 S
C2696 C2688 1.378 . S
C2696 C2691 1.350 . S
C2697 H2684 0.929 . S
C2697 C2689 1.433 . S
C2697 N2699 1.384 . S
N2698 C2694 1.427 . S
N2698 C2695 1.384 . S
N2699 C2691 1.427 . S
N2699 C2697 1.384 . S
H2700 C2706 0.930 . S
H2701 C2710 0.930 . S
H2702 C2715 0.929 . S
H2703 C2713 0.929 . S
H2704 C2708 0.929 . S
H2705 C2714 0.929 . S
C2706 H2700 0.930 . S
C2706 C2707 1.367 . S
C2706 C2714 1.378 . S
C2707 C2706 1.367 . S
C2707 C2715 1.433 . S
C2708 H2704 0.929 . S
C2708 C2710 1.378 . S
C2708 C2712 1.350 . S
C2709 C2712 1.463 1_455 S
C2709 C2714 1.350 . S
C2709 N2717 1.427 . S
C2710 H2701 0.930 . S
C2710 C2708 1.378 . S
C2710 C2711 1.367 . S
C2711 C2710 1.367 . S
C2711 C2713 1.433 . S
C2712 C2708 1.350 . S
C2712 C2709 1.463 1_655 S
C2712 N2716 1.427 . S
C2713 H2703 0.929 . S
C2713 C2711 1.433 . S
C2713 N2716 1.384 . S
C2714 H2705 0.929 . S
C2714 C2706 1.378 . S
C2714 C2709 1.350 . S
C2715 H2702 0.929 . S
C2715 C2707 1.433 . S
C2715 N2717 1.384 . S
N2716 C2712 1.427 . S
N2716 C2713 1.384 . S
N2717 C2709 1.427 . S
N2717 C2715 1.384 . S
H2718 C2724 0.930 . S
H2719 C2728 0.930 . S
H2720 C2733 0.929 . S
H2721 C2731 0.929 . S
H2722 C2726 0.929 . S
H2723 C2732 0.929 . S
C2724 H2718 0.930 . S
C2724 C2725 1.367 . S
C2724 C2732 1.378 . S
C2725 C2724 1.367 . S
C2725 C2733 1.433 . S
C2726 H2722 0.929 . S
C2726 C2728 1.378 . S
C2726 C2730 1.350 . S
C2727 C2730 1.463 . S
C2727 C2732 1.350 . S
C2727 N2735 1.427 . S
C2728 H2719 0.930 . S
C2728 C2726 1.378 . S
C2728 C2729 1.367 . S
C2729 C2728 1.367 . S
C2729 C2731 1.433 . S
C2730 C2726 1.350 . S
C2730 C2727 1.463 . S
C2730 N2734 1.427 . S
C2731 H2721 0.929 . S
C2731 C2729 1.433 . S
C2731 N2734 1.384 . S
C2732 H2723 0.929 . S
C2732 C2724 1.378 . S
C2732 C2727 1.350 . S
C2733 H2720 0.929 . S
C2733 C2725 1.433 . S
C2733 N2735 1.384 . S
N2734 C2730 1.427 . S
N2734 C2731 1.384 . S
N2735 C2727 1.427 . S
N2735 C2733 1.384 . S
H2736 C2742 0.930 . S
H2737 C2746 0.930 . S
H2738 C2751 0.929 . S
H2739 C2749 0.929 . S
H2740 C2744 0.929 . S
H2741 C2750 0.929 . S
C2742 H2736 0.930 . S
C2742 C2743 1.367 . S
C2742 C2750 1.378 . S
C2743 C2742 1.367 . S
C2743 C2751 1.433 . S
C2744 H2740 0.929 . S
C2744 C2746 1.378 . S
C2744 C2748 1.350 . S
C2745 C2748 1.463 . S
C2745 C2750 1.350 . S
C2745 N2753 1.427 . S
C2746 H2737 0.930 . S
C2746 C2744 1.378 . S
C2746 C2747 1.367 . S
C2747 C2746 1.367 . S
C2747 C2749 1.433 . S
C2748 C2744 1.350 . S
C2748 C2745 1.463 . S
C2748 N2752 1.427 . S
C2749 H2739 0.929 . S
C2749 C2747 1.433 . S
C2749 N2752 1.384 . S
C2750 H2741 0.929 . S
C2750 C2742 1.378 . S
C2750 C2745 1.350 . S
C2751 H2738 0.929 . S
C2751 C2743 1.433 . S
C2751 N2753 1.384 . S
N2752 C2748 1.427 . S
N2752 C2749 1.384 . S
N2753 C2745 1.427 . S
N2753 C2751 1.384 . S
H2754 C2760 0.930 . S
H2755 C2764 0.930 . S
H2756 C2769 0.929 . S
H2757 C2767 0.929 . S
H2758 C2762 0.911 1_545 S
H2759 C2768 0.911 1_565 S
C2760 H2754 0.930 . S
C2760 C2761 1.367 . S
C2760 C2768 1.378 . S
C2761 C2760 1.367 . S
C2761 C2769 1.433 . S
C2762 H2758 0.911 1_565 S
C2762 C2764 1.378 . S
C2762 C2766 1.350 . S
C2763 C2766 1.463 1_545 S
C2763 C2768 1.350 . S
C2763 N2771 1.427 . S
C2764 H2755 0.930 . S
C2764 C2762 1.378 . S
C2764 C2765 1.367 . S
C2765 C2764 1.367 . S
C2765 C2767 1.433 . S
C2766 C2762 1.350 . S
C2766 C2763 1.463 1_565 S
C2766 N2770 1.427 . S
C2767 H2757 0.929 . S
C2767 C2765 1.433 . S
C2767 N2770 1.384 . S
C2768 H2759 0.911 1_545 S
C2768 C2760 1.378 . S
C2768 C2763 1.350 . S
C2769 H2756 0.929 . S
C2769 C2761 1.433 . S
C2769 N2771 1.384 . S
N2770 C2766 1.427 . S
N2770 C2767 1.384 . S
N2771 C2763 1.427 . S
N2771 C2769 1.384 . S
H2772 C2778 0.930 . S
H2773 C2782 0.930 . S
H2774 C2787 0.929 . S
H2775 C2785 0.929 . S
H2776 C2780 0.929 . S
H2777 C2786 0.929 . S
C2778 H2772 0.930 . S
C2778 C2779 1.367 . S
C2778 C2786 1.378 . S
C2779 C2778 1.367 . S
C2779 C2787 1.433 . S
C2780 H2776 0.929 . S
C2780 C2782 1.378 . S
C2780 C2784 1.350 . S
C2781 C2784 1.463 1_655 S
C2781 C2786 1.350 . S
C2781 N2789 1.427 . S
C2782 H2773 0.930 . S
C2782 C2780 1.378 . S
C2782 C2783 1.367 . S
C2783 C2782 1.367 . S
C2783 C2785 1.433 . S
C2784 C2780 1.350 . S
C2784 C2781 1.463 1_455 S
C2784 N2788 1.427 . S
C2785 H2775 0.929 . S
C2785 C2783 1.433 . S
C2785 N2788 1.384 . S
C2786 H2777 0.929 . S
C2786 C2778 1.378 . S
C2786 C2781 1.350 . S
C2787 H2774 0.929 . S
C2787 C2779 1.433 . S
C2787 N2789 1.384 . S
N2788 C2784 1.427 . S
N2788 C2785 1.384 . S
N2789 C2781 1.427 . S
N2789 C2787 1.384 . S
H2790 C2796 0.930 . S
H2791 C2800 0.930 . S
H2792 C2805 0.929 . S
H2793 C2803 0.929 . S
H2794 C2798 0.929 . S
H2795 C2804 0.929 . S
C2796 H2790 0.930 . S
C2796 C2797 1.367 . S
C2796 C2804 1.378 . S
C2797 C2796 1.367 . S
C2797 C2805 1.433 . S
C2798 H2794 0.929 . S
C2798 C2800 1.378 . S
C2798 C2802 1.350 . S
C2799 C2802 1.463 . S
C2799 C2804 1.350 . S
C2799 N2807 1.427 . S
C2800 H2791 0.930 . S
C2800 C2798 1.378 . S
C2800 C2801 1.367 . S
C2801 C2800 1.367 . S
C2801 C2803 1.433 . S
C2802 C2798 1.350 . S
C2802 C2799 1.463 . S
C2802 N2806 1.427 . S
C2803 H2793 0.929 . S
C2803 C2801 1.433 . S
C2803 N2806 1.384 . S
C2804 H2795 0.929 . S
C2804 C2796 1.378 . S
C2804 C2799 1.350 . S
C2805 H2792 0.929 . S
C2805 C2797 1.433 . S
C2805 N2807 1.384 . S
N2806 C2802 1.427 . S
N2806 C2803 1.384 . S
N2807 C2799 1.427 . S
N2807 C2805 1.384 . S
H2808 C2814 0.930 . S
H2809 C2818 0.930 . S
H2810 C2823 0.929 . S
H2811 C2821 0.929 . S
H2812 C2816 0.929 1_565 S
H2813 C2822 0.929 1_545 S
C2814 H2808 0.930 . S
C2814 C2815 1.367 . S
C2814 C2822 1.378 . S
C2815 C2814 1.367 . S
C2815 C2823 1.433 . S
C2816 H2812 0.929 1_545 S
C2816 C2818 1.378 . S
C2816 C2820 1.350 . S
C2817 C2820 1.463 1_565 S
C2817 C2822 1.350 . S
C2817 N2825 1.427 . S
C2818 H2809 0.930 . S
C2818 C2816 1.378 . S
C2818 C2819 1.367 . S
C2819 C2818 1.367 . S
C2819 C2821 1.433 . S
C2820 C2816 1.350 . S
C2820 C2817 1.463 1_545 S
C2820 N2824 1.427 . S
C2821 H2811 0.929 . S
C2821 C2819 1.433 . S
C2821 N2824 1.384 . S
C2822 H2813 0.929 1_565 S
C2822 C2814 1.378 . S
C2822 C2817 1.350 . S
C2823 H2810 0.929 . S
C2823 C2815 1.433 . S
C2823 N2825 1.384 . S
N2824 C2820 1.427 . S
N2824 C2821 1.384 . S
N2825 C2817 1.427 . S
N2825 C2823 1.384 . S
H2826 C2832 0.930 . S
H2827 C2836 0.930 . S
H2828 C2841 0.929 . S
H2829 C2839 0.929 . S
H2830 C2834 0.929 1_655 S
H2831 C2840 0.929 1_455 S
C2832 H2826 0.930 . S
C2832 C2833 1.367 . S
C2832 C2840 1.378 . S
C2833 C2832 1.367 . S
C2833 C2841 1.433 . S
C2834 H2830 0.929 1_455 S
C2834 C2836 1.378 . S
C2834 C2838 1.350 . S
C2835 C2838 1.463 1_655 S
C2835 C2840 1.350 . S
C2835 N2843 1.427 . S
C2836 H2827 0.930 . S
C2836 C2834 1.378 . S
C2836 C2837 1.367 . S
C2837 C2836 1.367 . S
C2837 C2839 1.433 . S
C2838 C2834 1.350 . S
C2838 C2835 1.463 1_455 S
C2838 N2842 1.427 . S
C2839 H2829 0.929 . S
C2839 C2837 1.433 . S
C2839 N2842 1.384 . S
C2840 H2831 0.929 1_655 S
C2840 C2832 1.378 . S
C2840 C2835 1.350 . S
C2841 H2828 0.929 . S
C2841 C2833 1.433 . S
C2841 N2843 1.384 . S
N2842 C2838 1.427 . S
N2842 C2839 1.384 . S
N2843 C2835 1.427 . S
N2843 C2841 1.384 . S
H2844 C2850 0.930 . S
H2845 C2854 0.930 . S
H2846 C2859 0.929 . S
H2847 C2857 0.929 . S
H2848 C2852 0.929 . S
H2849 C2858 0.929 . S
C2850 H2844 0.930 . S
C2850 C2851 1.367 . S
C2850 C2858 1.378 . S
C2851 C2850 1.367 . S
C2851 C2859 1.433 . S
C2852 H2848 0.929 . S
C2852 C2854 1.378 . S
C2852 C2856 1.350 . S
C2853 C2856 1.463 . S
C2853 C2858 1.350 . S
C2853 N2861 1.427 . S
C2854 H2845 0.930 . S
C2854 C2852 1.378 . S
C2854 C2855 1.367 . S
C2855 C2854 1.367 . S
C2855 C2857 1.433 . S
C2856 C2852 1.350 . S
C2856 C2853 1.463 . S
C2856 N2860 1.427 . S
C2857 H2847 0.929 . S
C2857 C2855 1.433 . S
C2857 N2860 1.384 . S
C2858 H2849 0.929 . S
C2858 C2850 1.378 . S
C2858 C2853 1.350 . S
C2859 H2846 0.929 . S
C2859 C2851 1.433 . S
C2859 N2861 1.384 . S
N2860 C2856 1.427 . S
N2860 C2857 1.384 . S
N2861 C2853 1.427 . S
N2861 C2859 1.384 . S
H2862 C2868 0.930 . S
H2863 C2872 0.930 . S
H2864 C2877 0.929 . S
H2865 C2875 0.929 . S
H2866 C2870 0.929 . S
H2867 C2876 0.929 . S
C2868 H2862 0.930 . S
C2868 C2869 1.367 . S
C2868 C2876 1.378 . S
C2869 C2868 1.367 . S
C2869 C2877 1.433 . S
C2870 H2866 0.929 . S
C2870 C2872 1.378 . S
C2870 C2874 1.350 . S
C2871 C2874 1.463 . S
C2871 C2876 1.350 . S
C2871 N2879 1.427 . S
C2872 H2863 0.930 . S
C2872 C2870 1.378 . S
C2872 C2873 1.367 . S
C2873 C2872 1.367 . S
C2873 C2875 1.433 . S
C2874 C2870 1.350 . S
C2874 C2871 1.463 . S
C2874 N2878 1.427 . S
C2875 H2865 0.929 . S
C2875 C2873 1.433 . S
C2875 N2878 1.384 . S
C2876 H2867 0.929 . S
C2876 C2868 1.378 . S
C2876 C2871 1.350 . S
C2877 H2864 0.929 . S
C2877 C2869 1.433 . S
C2877 N2879 1.384 . S
N2878 C2874 1.427 . S
N2878 C2875 1.384 . S
N2879 C2871 1.427 . S
N2879 C2877 1.384 . S
H2880 C2886 0.930 . S
H2881 C2890 0.930 . S
H2882 C2895 0.929 . S
H2883 C2893 0.929 . S
H2884 C2888 0.929 . S
H2885 C2894 0.929 . S
C2886 H2880 0.930 . S
C2886 C2887 1.367 . S
C2886 C2894 1.378 . S
C2887 C2886 1.367 . S
C2887 C2895 1.433 . S
C2888 H2884 0.929 . S
C2888 C2890 1.378 . S
C2888 C2892 1.350 . S
C2889 C2892 1.463 . S
C2889 C2894 1.350 . S
C2889 N2897 1.427 . S
C2890 H2881 0.930 . S
C2890 C2888 1.378 . S
C2890 C2891 1.367 . S
C2891 C2890 1.367 . S
C2891 C2893 1.433 . S
C2892 C2888 1.350 . S
C2892 C2889 1.463 . S
C2892 N2896 1.427 . S
C2893 H2883 0.929 . S
C2893 C2891 1.433 . S
C2893 N2896 1.384 . S
C2894 H2885 0.929 . S
C2894 C2886 1.378 . S
C2894 C2889 1.350 . S
C2895 H2882 0.929 . S
C2895 C2887 1.433 . S
C2895 N2897 1.384 . S
N2896 C2892 1.427 . S
N2896 C2893 1.384 . S
N2897 C2889 1.427 . S
N2897 C2895 1.384 . S
H2898 C2904 0.930 . S
H2899 C2908 0.930 1_556 S
H2900 C2913 0.929 . S
H2901 C2911 0.929 . S
H2902 C2906 0.929 . S
H2903 C2912 0.929 . S
C2904 H2898 0.930 . S
C2904 C2905 1.367 . S
C2904 C2912 1.378 . S
C2905 C2904 1.367 . S
C2905 C2913 1.433 . S
C2906 H2902 0.929 . S
C2906 C2908 1.378 . S
C2906 C2910 1.350 . S
C2907 C2910 1.463 . S
C2907 C2912 1.350 . S
C2907 N2915 1.427 . S
C2908 H2899 0.930 1_554 S
C2908 C2906 1.378 . S
C2908 C2909 1.367 . S
C2909 C2908 1.367 . S
C2909 C2911 1.433 . S
C2910 C2906 1.350 . S
C2910 C2907 1.463 . S
C2910 N2914 1.427 . S
C2911 H2901 0.929 . S
C2911 C2909 1.433 . S
C2911 N2914 1.384 . S
C2912 H2903 0.929 . S
C2912 C2904 1.378 . S
C2912 C2907 1.350 . S
C2913 H2900 0.929 . S
C2913 C2905 1.433 . S
C2913 N2915 1.384 . S
N2914 C2910 1.427 . S
N2914 C2911 1.384 . S
N2915 C2907 1.427 . S
N2915 C2913 1.384 . S
H2916 C2922 0.930 . S
H2917 C2926 0.930 1_556 S
H2918 C2931 0.929 . S
H2919 C2929 0.929 . S
H2920 C2924 0.929 . S
H2921 C2930 0.929 . S
C2922 H2916 0.930 . S
C2922 C2923 1.367 . S
C2922 C2930 1.378 . S
C2923 C2922 1.367 . S
C2923 C2931 1.433 . S
C2924 H2920 0.929 . S
C2924 C2926 1.378 . S
C2924 C2928 1.350 . S
C2925 C2928 1.463 . S
C2925 C2930 1.350 . S
C2925 N2933 1.427 . S
C2926 H2917 0.930 1_554 S
C2926 C2924 1.378 . S
C2926 C2927 1.367 . S
C2927 C2926 1.367 . S
C2927 C2929 1.433 . S
C2928 C2924 1.350 . S
C2928 C2925 1.463 . S
C2928 N2932 1.427 . S
C2929 H2919 0.929 . S
C2929 C2927 1.433 . S
C2929 N2932 1.384 . S
C2930 H2921 0.929 . S
C2930 C2922 1.378 . S
C2930 C2925 1.350 . S
C2931 H2918 0.929 . S
C2931 C2923 1.433 . S
C2931 N2933 1.384 . S
N2932 C2928 1.427 . S
N2932 C2929 1.384 . S
N2933 C2925 1.427 . S
N2933 C2931 1.384 . S
H2934 C2940 0.930 . S
H2935 C2944 0.930 1_556 S
H2936 C2949 0.929 . S
H2937 C2947 0.929 . S
H2938 C2942 0.929 . S
H2939 C2948 0.929 . S
C2940 H2934 0.930 . S
C2940 C2941 1.367 . S
C2940 C2948 1.378 . S
C2941 C2940 1.367 . S
C2941 C2949 1.433 . S
C2942 H2938 0.929 . S
C2942 C2944 1.378 . S
C2942 C2946 1.350 . S
C2943 C2946 1.463 . S
C2943 C2948 1.350 . S
C2943 N2951 1.427 . S
C2944 H2935 0.930 1_554 S
C2944 C2942 1.378 . S
C2944 C2945 1.367 . S
C2945 C2944 1.367 . S
C2945 C2947 1.433 . S
C2946 C2942 1.350 . S
C2946 C2943 1.463 . S
C2946 N2950 1.427 . S
C2947 H2937 0.929 . S
C2947 C2945 1.433 . S
C2947 N2950 1.384 . S
C2948 H2939 0.929 . S
C2948 C2940 1.378 . S
C2948 C2943 1.350 . S
C2949 H2936 0.929 . S
C2949 C2941 1.433 . S
C2949 N2951 1.384 . S
N2950 C2946 1.427 . S
N2950 C2947 1.384 . S
N2951 C2943 1.427 . S
N2951 C2949 1.384 . S
H2952 C2958 0.930 . S
H2953 C2962 0.930 1_554 S
H2954 C2967 0.929 . S
H2955 C2965 0.929 . S
H2956 C2960 0.929 . S
H2957 C2966 0.929 . S
C2958 H2952 0.930 . S
C2958 C2959 1.367 . S
C2958 C2966 1.378 . S
C2959 C2958 1.367 . S
C2959 C2967 1.433 . S
C2960 H2956 0.929 . S
C2960 C2962 1.378 . S
C2960 C2964 1.350 . S
C2961 C2964 1.463 . S
C2961 C2966 1.350 . S
C2961 N2969 1.427 . S
C2962 H2953 0.930 1_556 S
C2962 C2960 1.378 . S
C2962 C2963 1.367 . S
C2963 C2962 1.367 . S
C2963 C2965 1.433 . S
C2964 C2960 1.350 . S
C2964 C2961 1.463 . S
C2964 N2968 1.427 . S
C2965 H2955 0.929 . S
C2965 C2963 1.433 . S
C2965 N2968 1.384 . S
C2966 H2957 0.929 . S
C2966 C2958 1.378 . S
C2966 C2961 1.350 . S
C2967 H2954 0.929 . S
C2967 C2959 1.433 . S
C2967 N2969 1.384 . S
N2968 C2964 1.427 . S
N2968 C2965 1.384 . S
N2969 C2961 1.427 . S
N2969 C2967 1.384 . S
H2970 C2976 0.930 1_554 S
H2971 C2980 0.930 . S
H2972 C2985 0.929 . S
H2973 C2983 0.929 . S
H2974 C2978 0.929 . S
H2975 C2984 0.929 . S
C2976 H2970 0.930 1_556 S
C2976 C2977 1.367 . S
C2976 C2984 1.378 . S
C2977 C2976 1.367 . S
C2977 C2985 1.433 . S
C2978 H2974 0.929 . S
C2978 C2980 1.378 . S
C2978 C2982 1.350 . S
C2979 C2982 1.463 . S
C2979 C2984 1.350 . S
C2979 N2987 1.427 . S
C2980 H2971 0.930 . S
C2980 C2978 1.378 . S
C2980 C2981 1.367 . S
C2981 C2980 1.367 . S
C2981 C2983 1.433 . S
C2982 C2978 1.350 . S
C2982 C2979 1.463 . S
C2982 N2986 1.427 . S
C2983 H2973 0.929 . S
C2983 C2981 1.433 . S
C2983 N2986 1.384 . S
C2984 H2975 0.929 . S
C2984 C2976 1.378 . S
C2984 C2979 1.350 . S
C2985 H2972 0.929 . S
C2985 C2977 1.433 . S
C2985 N2987 1.384 . S
N2986 C2982 1.427 . S
N2986 C2983 1.384 . S
N2987 C2979 1.427 . S
N2987 C2985 1.384 . S
H2988 C2994 0.930 . S
H2989 C2998 0.930 . S
H2990 C3003 0.929 1_554 S
H2991 C3001 0.929 . S
H2992 C2996 0.929 . S
H2993 C3002 0.929 . S
C2994 H2988 0.930 . S
C2994 C2995 1.367 . S
C2994 C3002 1.378 . S
C2995 C2994 1.367 . S
C2995 C3003 1.433 . S
C2996 H2992 0.929 . S
C2996 C2998 1.378 . S
C2996 C3000 1.350 . S
C2997 C3000 1.463 . S
C2997 C3002 1.350 . S
C2997 N3005 1.427 . S
C2998 H2989 0.930 . S
C2998 C2996 1.378 . S
C2998 C2999 1.367 . S
C2999 C2998 1.367 . S
C2999 C3001 1.433 . S
C3000 C2996 1.350 . S
C3000 C2997 1.463 . S
C3000 N3004 1.427 . S
C3001 H2991 0.929 . S
C3001 C2999 1.433 . S
C3001 N3004 1.384 . S
C3002 H2993 0.929 . S
C3002 C2994 1.378 . S
C3002 C2997 1.350 . S
C3003 H2990 0.929 1_556 S
C3003 C2995 1.433 . S
C3003 N3005 1.384 . S
N3004 C3000 1.427 . S
N3004 C3001 1.384 . S
N3005 C2997 1.427 . S
N3005 C3003 1.384 . S
H3006 C3012 0.930 . S
H3007 C3016 0.930 . S
H3008 C3021 0.929 . S
H3009 C3019 0.929 . S
H3010 C3014 0.929 . S
H3011 C3020 0.929 . S
C3012 H3006 0.930 . S
C3012 C3013 1.367 . S
C3012 C3020 1.378 . S
C3013 C3012 1.367 . S
C3013 C3021 1.433 . S
C3014 H3010 0.929 . S
C3014 C3016 1.378 . S
C3014 C3018 1.350 . S
C3015 C3018 1.463 . S
C3015 C3020 1.350 . S
C3015 N3023 1.427 . S
C3016 H3007 0.930 . S
C3016 C3014 1.378 . S
C3016 C3017 1.367 . S
C3017 C3016 1.367 . S
C3017 C3019 1.433 . S
C3018 C3014 1.350 . S
C3018 C3015 1.463 . S
C3018 N3022 1.427 . S
C3019 H3009 0.929 . S
C3019 C3017 1.433 . S
C3019 N3022 1.384 . S
C3020 H3011 0.929 . S
C3020 C3012 1.378 . S
C3020 C3015 1.350 . S
C3021 H3008 0.929 . S
C3021 C3013 1.433 . S
C3021 N3023 1.384 . S
N3022 C3018 1.427 . S
N3022 C3019 1.384 . S
N3023 C3015 1.427 . S
N3023 C3021 1.384 . S
H3024 C3030 0.930 . S
H3025 C3034 0.930 . S
H3026 C3039 0.929 . S
H3027 C3037 0.929 . S
H3028 C3032 0.929 . S
H3029 C3038 0.929 . S
C3030 H3024 0.930 . S
C3030 C3031 1.367 . S
C3030 C3038 1.378 . S
C3031 C3030 1.367 . S
C3031 C3039 1.433 . S
C3032 H3028 0.929 . S
C3032 C3034 1.378 . S
C3032 C3036 1.350 . S
C3033 C3036 1.463 . S
C3033 C3038 1.350 . S
C3033 N3041 1.427 . S
C3034 H3025 0.930 . S
C3034 C3032 1.378 . S
C3034 C3035 1.367 . S
C3035 C3034 1.367 . S
C3035 C3037 1.433 . S
C3036 C3032 1.350 . S
C3036 C3033 1.463 . S
C3036 N3040 1.427 . S
C3037 H3027 0.929 . S
C3037 C3035 1.433 . S
C3037 N3040 1.384 . S
C3038 H3029 0.929 . S
C3038 C3030 1.378 . S
C3038 C3033 1.350 . S
C3039 H3026 0.929 . S
C3039 C3031 1.433 . S
C3039 N3041 1.384 . S
N3040 C3036 1.427 . S
N3040 C3037 1.384 . S
N3041 C3033 1.427 . S
N3041 C3039 1.384 . S
H3042 C3048 0.930 . S
H3043 C3052 0.930 . S
H3044 C3057 0.929 . S
H3045 C3055 0.929 . S
H3046 C3050 0.929 . S
H3047 C3056 0.929 . S
C3048 H3042 0.930 . S
C3048 C3049 1.367 . S
C3048 C3056 1.378 . S
C3049 C3048 1.367 . S
C3049 C3057 1.433 . S
C3050 H3046 0.929 . S
C3050 C3052 1.378 . S
C3050 C3054 1.350 . S
C3051 C3054 1.463 . S
C3051 C3056 1.350 . S
C3051 N3059 1.427 . S
C3052 H3043 0.930 . S
C3052 C3050 1.378 . S
C3052 C3053 1.367 . S
C3053 C3052 1.367 . S
C3053 C3055 1.433 . S
C3054 C3050 1.350 . S
C3054 C3051 1.463 . S
C3054 N3058 1.427 . S
C3055 H3045 0.929 . S
C3055 C3053 1.433 . S
C3055 N3058 1.384 . S
C3056 H3047 0.929 . S
C3056 C3048 1.378 . S
C3056 C3051 1.350 . S
C3057 H3044 0.929 . S
C3057 C3049 1.433 . S
C3057 N3059 1.384 . S
N3058 C3054 1.427 . S
N3058 C3055 1.384 . S
N3059 C3051 1.427 . S
N3059 C3057 1.384 . S
H3060 C3066 0.930 . S
H3061 C3070 0.930 . S
H3062 C3075 0.929 . S
H3063 C3073 0.929 . S
H3064 C3068 0.929 . S
H3065 C3074 0.929 . S
C3066 H3060 0.930 . S
C3066 C3067 1.367 . S
C3066 C3074 1.378 . S
C3067 C3066 1.367 . S
C3067 C3075 1.433 . S
C3068 H3064 0.929 . S
C3068 C3070 1.378 . S
C3068 C3072 1.350 . S
C3069 C3072 1.463 . S
C3069 C3074 1.350 . S
C3069 N3077 1.427 . S
C3070 H3061 0.930 . S
C3070 C3068 1.378 . S
C3070 C3071 1.367 . S
C3071 C3070 1.367 . S
C3071 C3073 1.433 . S
C3072 C3068 1.350 . S
C3072 C3069 1.463 . S
C3072 N3076 1.427 . S
C3073 H3063 0.929 . S
C3073 C3071 1.433 . S
C3073 N3076 1.384 . S
C3074 H3065 0.929 . S
C3074 C3066 1.378 . S
C3074 C3069 1.350 . S
C3075 H3062 0.929 . S
C3075 C3067 1.433 . S
C3075 N3077 1.384 . S
N3076 C3072 1.427 . S
N3076 C3073 1.384 . S
N3077 C3069 1.427 . S
N3077 C3075 1.384 . S
H3078 C3084 0.930 . S
H3079 C3088 0.930 1_545 S
H3080 C3093 0.929 . S
H3081 C3091 0.929 . S
H3082 C3086 0.929 . S
H3083 C3092 0.929 . S
C3084 H3078 0.930 . S
C3084 C3085 1.367 . S
C3084 C3092 1.378 . S
C3085 C3084 1.367 . S
C3085 C3093 1.433 . S
C3086 H3082 0.929 . S
C3086 C3088 1.378 . S
C3086 C3090 1.350 . S
C3087 C3090 1.463 . S
C3087 C3092 1.350 . S
C3087 N3095 1.427 . S
C3088 H3079 0.930 1_565 S
C3088 C3086 1.378 . S
C3088 C3089 1.367 . S
C3089 C3088 1.367 . S
C3089 C3091 1.433 . S
C3090 C3086 1.350 . S
C3090 C3087 1.463 . S
C3090 N3094 1.427 . S
C3091 H3081 0.929 . S
C3091 C3089 1.433 . S
C3091 N3094 1.384 . S
C3092 H3083 0.929 . S
C3092 C3084 1.378 . S
C3092 C3087 1.350 . S
C3093 H3080 0.929 . S
C3093 C3085 1.433 . S
C3093 N3095 1.384 . S
N3094 C3090 1.427 . S
N3094 C3091 1.384 . S
N3095 C3087 1.427 . S
N3095 C3093 1.384 . S
H3096 C3102 0.930 . S
H3097 C3106 0.930 . S
H3098 C3111 0.929 . S
H3099 C3109 0.929 . S
H3100 C3104 0.929 . S
H3101 C3110 0.929 . S
C3102 H3096 0.930 . S
C3102 C3103 1.367 . S
C3102 C3110 1.378 . S
C3103 C3102 1.367 . S
C3103 C3111 1.433 . S
C3104 H3100 0.929 . S
C3104 C3106 1.378 . S
C3104 C3108 1.350 . S
C3105 C3108 1.463 . S
C3105 C3110 1.350 . S
C3105 N3113 1.427 . S
C3106 H3097 0.930 . S
C3106 C3104 1.378 . S
C3106 C3107 1.367 . S
C3107 C3106 1.367 . S
C3107 C3109 1.433 . S
C3108 C3104 1.350 . S
C3108 C3105 1.463 . S
C3108 N3112 1.427 . S
C3109 H3099 0.929 . S
C3109 C3107 1.433 . S
C3109 N3112 1.384 . S
C3110 H3101 0.929 . S
C3110 C3102 1.378 . S
C3110 C3105 1.350 . S
C3111 H3098 0.929 . S
C3111 C3103 1.433 . S
C3111 N3113 1.384 . S
N3112 C3108 1.427 . S
N3112 C3109 1.384 . S
N3113 C3105 1.427 . S
N3113 C3111 1.384 . S
H3114 C3120 0.930 . S
H3115 C3124 0.930 . S
H3116 C3129 0.929 . S
H3117 C3127 0.929 . S
H3118 C3122 0.929 . S
H3119 C3128 0.929 . S
C3120 H3114 0.930 . S
C3120 C3121 1.367 . S
C3120 C3128 1.378 . S
C3121 C3120 1.367 . S
C3121 C3129 1.433 . S
C3122 H3118 0.929 . S
C3122 C3124 1.378 . S
C3122 C3126 1.350 . S
C3123 C3126 1.463 . S
C3123 C3128 1.350 . S
C3123 N3131 1.427 . S
C3124 H3115 0.930 . S
C3124 C3122 1.378 . S
C3124 C3125 1.367 . S
C3125 C3124 1.367 . S
C3125 C3127 1.433 . S
C3126 C3122 1.350 . S
C3126 C3123 1.463 . S
C3126 N3130 1.427 . S
C3127 H3117 0.929 . S
C3127 C3125 1.433 . S
C3127 N3130 1.384 . S
C3128 H3119 0.929 . S
C3128 C3120 1.378 . S
C3128 C3123 1.350 . S
C3129 H3116 0.929 . S
C3129 C3121 1.433 . S
C3129 N3131 1.384 . S
N3130 C3126 1.427 . S
N3130 C3127 1.384 . S
N3131 C3123 1.427 . S
N3131 C3129 1.384 . S
H3132 C3138 0.930 . S
H3133 C3142 0.930 . S
H3134 C3147 0.929 . S
H3135 C3145 0.929 . S
H3136 C3140 0.929 . S
H3137 C3146 0.929 1_565 S
C3138 H3132 0.930 . S
C3138 C3139 1.367 1_565 S
C3138 C3146 1.378 1_565 S
C3139 C3138 1.367 1_545 S
C3139 C3147 1.433 . S
C3140 H3136 0.929 . S
C3140 C3142 1.378 . S
C3140 C3144 1.350 . S
C3141 C3144 1.463 . S
C3141 C3146 1.350 . S
C3141 N3149 1.427 . S
C3142 H3133 0.930 . S
C3142 C3140 1.378 . S
C3142 C3143 1.367 . S
C3143 C3142 1.367 . S
C3143 C3145 1.433 . S
C3144 C3140 1.350 . S
C3144 C3141 1.463 . S
C3144 N3148 1.427 . S
C3145 H3135 0.929 . S
C3145 C3143 1.433 . S
C3145 N3148 1.384 . S
C3146 H3137 0.929 1_545 S
C3146 C3138 1.378 1_545 S
C3146 C3141 1.350 . S
C3147 H3134 0.929 . S
C3147 C3139 1.433 . S
C3147 N3149 1.384 . S
N3148 C3144 1.427 . S
N3148 C3145 1.384 . S
N3149 C3141 1.427 . S
N3149 C3147 1.384 . S
H3150 C3156 0.930 . S
H3151 C3160 0.930 . S
H3152 C3165 0.929 . S
H3153 C3163 0.929 . S
H3154 C3158 0.929 . S
H3155 C3164 0.929 . S
C3156 H3150 0.930 . S
C3156 C3157 1.367 1_455 S
C3156 C3164 1.378 1_455 S
C3157 C3156 1.367 1_655 S
C3157 C3165 1.433 . S
C3158 H3154 0.929 . S
C3158 C3160 1.378 . S
C3158 C3162 1.350 . S
C3159 C3162 1.463 . S
C3159 C3164 1.350 . S
C3159 N3167 1.427 . S
C3160 H3151 0.930 . S
C3160 C3158 1.378 . S
C3160 C3161 1.367 . S
C3161 C3160 1.367 . S
C3161 C3163 1.433 . S
C3162 C3158 1.350 . S
C3162 C3159 1.463 . S
C3162 N3166 1.427 . S
C3163 H3153 0.929 . S
C3163 C3161 1.433 . S
C3163 N3166 1.384 . S
C3164 H3155 0.929 . S
C3164 C3156 1.378 1_655 S
C3164 C3159 1.350 . S
C3165 H3152 0.929 . S
C3165 C3157 1.433 . S
C3165 N3167 1.384 . S
N3166 C3162 1.427 . S
N3166 C3163 1.384 . S
N3167 C3159 1.427 . S
N3167 C3165 1.384 . S
H3168 C3174 0.930 . S
H3169 C3178 0.930 . S
H3170 C3183 0.929 . S
H3171 C3181 0.929 . S
H3172 C3176 0.929 . S
H3173 C3182 0.929 . S
C3174 H3168 0.930 . S
C3174 C3175 1.367 . S
C3174 C3182 1.378 . S
C3175 C3174 1.367 . S
C3175 C3183 1.433 . S
C3176 H3172 0.929 . S
C3176 C3178 1.378 . S
C3176 C3180 1.350 . S
C3177 C3180 1.463 . S
C3177 C3182 1.350 . S
C3177 N3185 1.427 . S
C3178 H3169 0.930 . S
C3178 C3176 1.378 . S
C3178 C3179 1.367 . S
C3179 C3178 1.367 . S
C3179 C3181 1.433 . S
C3180 C3176 1.350 . S
C3180 C3177 1.463 . S
C3180 N3184 1.427 . S
C3181 H3171 0.929 . S
C3181 C3179 1.433 . S
C3181 N3184 1.384 . S
C3182 H3173 0.929 . S
C3182 C3174 1.378 . S
C3182 C3177 1.350 . S
C3183 H3170 0.929 . S
C3183 C3175 1.433 . S
C3183 N3185 1.384 . S
N3184 C3180 1.427 . S
N3184 C3181 1.384 . S
N3185 C3177 1.427 . S
N3185 C3183 1.384 . S
H3186 C3192 0.930 . S
H3187 C3196 0.930 . S
H3188 C3201 0.929 . S
H3189 C3199 0.929 . S
H3190 C3194 0.929 . S
H3191 C3200 0.929 . S
C3192 H3186 0.930 . S
C3192 C3193 1.367 . S
C3192 C3200 1.378 . S
C3193 C3192 1.367 . S
C3193 C3201 1.433 1_545 S
C3194 H3190 0.929 . S
C3194 C3196 1.378 . S
C3194 C3198 1.350 . S
C3195 C3198 1.463 . S
C3195 C3200 1.350 . S
C3195 N3203 1.427 . S
C3196 H3187 0.930 . S
C3196 C3194 1.378 . S
C3196 C3197 1.367 . S
C3197 C3196 1.367 . S
C3197 C3199 1.433 . S
C3198 C3194 1.350 . S
C3198 C3195 1.463 . S
C3198 N3202 1.427 . S
C3199 H3189 0.929 . S
C3199 C3197 1.433 . S
C3199 N3202 1.384 . S
C3200 H3191 0.929 . S
C3200 C3192 1.378 . S
C3200 C3195 1.350 . S
C3201 H3188 0.929 . S
C3201 C3193 1.433 1_565 S
C3201 N3203 1.384 1_565 S
N3202 C3198 1.427 . S
N3202 C3199 1.384 . S
N3203 C3195 1.427 . S
N3203 C3201 1.384 1_545 S
H3204 C3210 0.930 . S
H3205 C3214 0.930 . S
H3206 C3219 0.929 . S
H3207 C3217 0.929 . S
H3208 C3212 0.929 . S
H3209 C3218 0.929 . S
C3210 H3204 0.930 . S
C3210 C3211 1.367 . S
C3210 C3218 1.378 . S
C3211 C3210 1.367 . S
C3211 C3219 1.433 . S
C3212 H3208 0.929 . S
C3212 C3214 1.378 . S
C3212 C3216 1.350 . S
C3213 C3216 1.463 . S
C3213 C3218 1.350 . S
C3213 N3221 1.427 . S
C3214 H3205 0.930 . S
C3214 C3212 1.378 . S
C3214 C3215 1.367 . S
C3215 C3214 1.367 . S
C3215 C3217 1.433 1_655 S
C3216 C3212 1.350 . S
C3216 C3213 1.463 . S
C3216 N3220 1.427 . S
C3217 H3207 0.929 . S
C3217 C3215 1.433 1_455 S
C3217 N3220 1.384 1_455 S
C3218 H3209 0.929 . S
C3218 C3210 1.378 . S
C3218 C3213 1.350 . S
C3219 H3206 0.929 . S
C3219 C3211 1.433 . S
C3219 N3221 1.384 . S
N3220 C3216 1.427 . S
N3220 C3217 1.384 1_655 S
N3221 C3213 1.427 . S
N3221 C3219 1.384 . S
H3222 C3228 0.930 . S
H3223 C3232 0.930 . S
H3224 C3237 0.929 . S
H3225 C3235 0.929 . S
H3226 C3230 0.929 . S
H3227 C3236 0.929 . S
C3228 H3222 0.930 . S
C3228 C3229 1.367 . S
C3228 C3236 1.378 . S
C3229 C3228 1.367 . S
C3229 C3237 1.433 . S
C3230 H3226 0.929 . S
C3230 C3232 1.378 . S
C3230 C3234 1.350 . S
C3231 C3234 1.463 . S
C3231 C3236 1.350 . S
C3231 N3239 1.427 . S
C3232 H3223 0.930 . S
C3232 C3230 1.378 . S
C3232 C3233 1.367 . S
C3233 C3232 1.367 . S
C3233 C3235 1.433 . S
C3234 C3230 1.350 . S
C3234 C3231 1.463 . S
C3234 N3238 1.427 . S
C3235 H3225 0.929 . S
C3235 C3233 1.433 . S
C3235 N3238 1.384 . S
C3236 H3227 0.929 . S
C3236 C3228 1.378 . S
C3236 C3231 1.350 . S
C3237 H3224 0.929 . S
C3237 C3229 1.433 . S
C3237 N3239 1.384 . S
N3238 C3234 1.427 . S
N3238 C3235 1.384 . S
N3239 C3231 1.427 . S
N3239 C3237 1.384 . S
H3240 C3246 0.930 . S
H3241 C3250 0.930 . S
H3242 C3255 0.929 . S
H3243 C3253 0.929 . S
H3244 C3248 0.929 . S
H3245 C3254 0.929 . S
C3246 H3240 0.930 . S
C3246 C3247 1.367 . S
C3246 C3254 1.378 . S
C3247 C3246 1.367 . S
C3247 C3255 1.433 . S
C3248 H3244 0.929 . S
C3248 C3250 1.378 . S
C3248 C3252 1.350 . S
C3249 C3252 1.463 . S
C3249 C3254 1.350 . S
C3249 N3257 1.427 . S
C3250 H3241 0.930 . S
C3250 C3248 1.378 . S
C3250 C3251 1.367 . S
C3251 C3250 1.367 . S
C3251 C3253 1.433 . S
C3252 C3248 1.350 . S
C3252 C3249 1.463 . S
C3252 N3256 1.427 . S
C3253 H3243 0.929 . S
C3253 C3251 1.433 . S
C3253 N3256 1.384 . S
C3254 H3245 0.929 . S
C3254 C3246 1.378 . S
C3254 C3249 1.350 . S
C3255 H3242 0.929 . S
C3255 C3247 1.433 . S
C3255 N3257 1.384 . S
N3256 C3252 1.427 . S
N3256 C3253 1.384 . S
N3257 C3249 1.427 . S
N3257 C3255 1.384 . S
H3258 C3264 0.930 . S
H3259 C3268 0.930 . S
H3260 C3273 0.929 . S
H3261 C3271 0.929 . S
H3262 C3266 0.929 . S
H3263 C3272 0.929 . S
C3264 H3258 0.930 . S
C3264 C3265 1.367 . S
C3264 C3272 1.378 . S
C3265 C3264 1.367 . S
C3265 C3273 1.433 . S
C3266 H3262 0.929 . S
C3266 C3268 1.378 . S
C3266 C3270 1.350 . S
C3267 C3270 1.463 . S
C3267 C3272 1.350 . S
C3267 N3275 1.427 . S
C3268 H3259 0.930 . S
C3268 C3266 1.378 . S
C3268 C3269 1.367 . S
C3269 C3268 1.367 . S
C3269 C3271 1.433 . S
C3270 C3266 1.350 . S
C3270 C3267 1.463 . S
C3270 N3274 1.427 . S
C3271 H3261 0.929 . S
C3271 C3269 1.433 . S
C3271 N3274 1.384 . S
C3272 H3263 0.929 . S
C3272 C3264 1.378 . S
C3272 C3267 1.350 . S
C3273 H3260 0.929 . S
C3273 C3265 1.433 . S
C3273 N3275 1.384 . S
N3274 C3270 1.427 . S
N3274 C3271 1.384 . S
N3275 C3267 1.427 . S
N3275 C3273 1.384 . S
H3276 C3282 0.930 . S
H3277 C3286 0.930 . S
H3278 C3291 0.929 . S
H3279 C3289 0.929 . S
H3280 C3284 0.929 . S
H3281 C3290 0.929 . S
C3282 H3276 0.930 . S
C3282 C3283 1.367 . S
C3282 C3290 1.378 . S
C3283 C3282 1.367 . S
C3283 C3291 1.433 . S
C3284 H3280 0.929 . S
C3284 C3286 1.378 . S
C3284 C3288 1.350 . S
C3285 C3288 1.463 1_655 S
C3285 C3290 1.350 . S
C3285 N3293 1.427 . S
C3286 H3277 0.930 . S
C3286 C3284 1.378 . S
C3286 C3287 1.367 . S
C3287 C3286 1.367 . S
C3287 C3289 1.433 . S
C3288 C3284 1.350 . S
C3288 C3285 1.463 1_455 S
C3288 N3292 1.427 . S
C3289 H3279 0.929 . S
C3289 C3287 1.433 . S
C3289 N3292 1.384 . S
C3290 H3281 0.929 . S
C3290 C3282 1.378 . S
C3290 C3285 1.350 . S
C3291 H3278 0.929 . S
C3291 C3283 1.433 . S
C3291 N3293 1.384 . S
N3292 C3288 1.427 . S
N3292 C3289 1.384 . S
N3293 C3285 1.427 . S
N3293 C3291 1.384 . S
H3294 C3300 0.930 . S
H3295 C3304 0.930 . S
H3296 C3309 0.929 . S
H3297 C3307 0.929 . S
H3298 C3302 0.929 . S
H3299 C3308 0.929 . S
C3300 H3294 0.930 . S
C3300 C3301 1.367 . S
C3300 C3308 1.378 . S
C3301 C3300 1.367 . S
C3301 C3309 1.433 . S
C3302 H3298 0.929 . S
C3302 C3304 1.378 . S
C3302 C3306 1.350 . S
C3303 C3306 1.463 . S
C3303 C3308 1.350 . S
C3303 N3311 1.427 . S
C3304 H3295 0.930 . S
C3304 C3302 1.378 . S
C3304 C3305 1.367 . S
C3305 C3304 1.367 . S
C3305 C3307 1.433 . S
C3306 C3302 1.350 . S
C3306 C3303 1.463 . S
C3306 N3310 1.427 . S
C3307 H3297 0.929 . S
C3307 C3305 1.433 . S
C3307 N3310 1.384 . S
C3308 H3299 0.929 . S
C3308 C3300 1.378 . S
C3308 C3303 1.350 . S
C3309 H3296 0.929 . S
C3309 C3301 1.433 . S
C3309 N3311 1.384 . S
N3310 C3306 1.427 . S
N3310 C3307 1.384 . S
N3311 C3303 1.427 . S
N3311 C3309 1.384 . S
H3312 C3318 0.930 . S
H3313 C3322 0.930 . S
H3314 C3327 0.929 . S
H3315 C3325 0.929 . S
H3316 C3320 0.929 . S
H3317 C3326 0.929 . S
C3318 H3312 0.930 . S
C3318 C3319 1.367 . S
C3318 C3326 1.378 . S
C3319 C3318 1.367 . S
C3319 C3327 1.433 . S
C3320 H3316 0.929 . S
C3320 C3322 1.378 . S
C3320 C3324 1.350 . S
C3321 C3324 1.463 1_545 S
C3321 C3326 1.350 . S
C3321 N3329 1.427 . S
C3322 H3313 0.930 . S
C3322 C3320 1.378 . S
C3322 C3323 1.367 . S
C3323 C3322 1.367 . S
C3323 C3325 1.433 . S
C3324 C3320 1.350 . S
C3324 C3321 1.463 1_565 S
C3324 N3328 1.427 . S
C3325 H3315 0.929 . S
C3325 C3323 1.433 . S
C3325 N3328 1.384 . S
C3326 H3317 0.929 . S
C3326 C3318 1.378 . S
C3326 C3321 1.350 . S
C3327 H3314 0.929 . S
C3327 C3319 1.433 . S
C3327 N3329 1.384 . S
N3328 C3324 1.427 . S
N3328 C3325 1.384 . S
N3329 C3321 1.427 . S
N3329 C3327 1.384 . S
H3330 C3336 0.930 . S
H3331 C3340 0.930 . S
H3332 C3345 0.929 . S
H3333 C3343 0.929 . S
H3334 C3338 0.929 . S
H3335 C3344 0.929 . S
C3336 H3330 0.930 . S
C3336 C3337 1.367 . S
C3336 C3344 1.378 . S
C3337 C3336 1.367 . S
C3337 C3345 1.433 . S
C3338 H3334 0.929 . S
C3338 C3340 1.378 . S
C3338 C3342 1.350 . S
C3339 C3342 1.463 1_545 S
C3339 C3344 1.350 . S
C3339 N3347 1.427 . S
C3340 H3331 0.930 . S
C3340 C3338 1.378 . S
C3340 C3341 1.367 . S
C3341 C3340 1.367 . S
C3341 C3343 1.433 . S
C3342 C3338 1.350 . S
C3342 C3339 1.463 1_565 S
C3342 N3346 1.427 . S
C3343 H3333 0.929 . S
C3343 C3341 1.433 . S
C3343 N3346 1.384 . S
C3344 H3335 0.929 . S
C3344 C3336 1.378 . S
C3344 C3339 1.350 . S
C3345 H3332 0.929 . S
C3345 C3337 1.433 . S
C3345 N3347 1.384 . S
N3346 C3342 1.427 . S
N3346 C3343 1.384 . S
N3347 C3339 1.427 . S
N3347 C3345 1.384 . S
H3348 C3354 0.930 . S
H3349 C3358 0.930 . S
H3350 C3363 0.929 . S
H3351 C3361 0.929 . S
H3352 C3356 0.929 . S
H3353 C3362 0.929 . S
C3354 H3348 0.930 . S
C3354 C3355 1.367 . S
C3354 C3362 1.378 . S
C3355 C3354 1.367 . S
C3355 C3363 1.433 . S
C3356 H3352 0.929 . S
C3356 C3358 1.378 . S
C3356 C3360 1.350 . S
C3357 C3360 1.463 1_655 S
C3357 C3362 1.350 . S
C3357 N3365 1.427 . S
C3358 H3349 0.930 . S
C3358 C3356 1.378 . S
C3358 C3359 1.367 . S
C3359 C3358 1.367 . S
C3359 C3361 1.433 . S
C3360 C3356 1.350 . S
C3360 C3357 1.463 1_455 S
C3360 N3364 1.427 . S
C3361 H3351 0.929 . S
C3361 C3359 1.433 . S
C3361 N3364 1.384 . S
C3362 H3353 0.929 . S
C3362 C3354 1.378 . S
C3362 C3357 1.350 . S
C3363 H3350 0.929 . S
C3363 C3355 1.433 . S
C3363 N3365 1.384 . S
N3364 C3360 1.427 . S
N3364 C3361 1.384 . S
N3365 C3357 1.427 . S
N3365 C3363 1.384 . S
H3366 C3372 0.930 . S
H3367 C3376 0.930 . S
H3368 C3381 0.929 . S
H3369 C3379 0.929 . S
H3370 C3374 0.929 . S
H3371 C3380 0.929 . S
C3372 H3366 0.930 . S
C3372 C3373 1.367 . S
C3372 C3380 1.378 . S
C3373 C3372 1.367 . S
C3373 C3381 1.433 . S
C3374 H3370 0.929 . S
C3374 C3376 1.378 . S
C3374 C3378 1.350 . S
C3375 C3378 1.463 . S
C3375 C3380 1.350 . S
C3375 N3383 1.427 . S
C3376 H3367 0.930 . S
C3376 C3374 1.378 . S
C3376 C3377 1.367 . S
C3377 C3376 1.367 . S
C3377 C3379 1.433 . S
C3378 C3374 1.350 . S
C3378 C3375 1.463 . S
C3378 N3382 1.427 . S
C3379 H3369 0.929 . S
C3379 C3377 1.433 . S
C3379 N3382 1.384 . S
C3380 H3371 0.929 . S
C3380 C3372 1.378 . S
C3380 C3375 1.350 . S
C3381 H3368 0.929 . S
C3381 C3373 1.433 . S
C3381 N3383 1.384 . S
N3382 C3378 1.427 . S
N3382 C3379 1.384 . S
N3383 C3375 1.427 . S
N3383 C3381 1.384 . S
C1447 C6 2.007 . S
C1451 C290 2.021 . S
C1465 C330 2.018 . S
C1469 C46 2.008 . S
C1483 C250 2.015 . S
C1487 C86 2.003 . S
C1501 C450 2.016 . S
C1505 C126 2.001 . S
C1519 C166 2.001 . S
C1523 C370 2.016 . S
C1537 C206 2.008 . S
C1541 C410 2.020 . S
C1555 C59 2.020 . S
C1559 C255 2.008 . S
C1573 C295 2.005 . S
C1577 C99 2.021 . S
C1591 C19 2.021 . S
C1595 C335 2.005 . S
C1609 C219 2.020 . S
C1613 C375 2.008 . S
C1627 C415 2.001 . S
C1631 C139 2.017 . S
C1645 C455 2.001 . S
C1649 C179 2.018 . S
C1663 C486 2.002 . S
C1667 C770 2.015 . S
C1681 C810 2.017 . S
C1685 C526 2.001 . S
C1699 C730 2.015 . S
C1703 C566 2.002 . S
C1717 C606 2.001 . S
C1721 C930 2.017 . S
C1735 C850 2.020 . S
C1739 C646 2.003 . S
C1753 C686 2.008 . S
C1757 C890 2.020 . S
C1771 C735 2.001 . S
C1775 C539 2.017 . S
C1789 C579 2.021 . S
C1793 C775 2.008 . S
C1807 C815 2.004 . S
C1811 C499 2.015 . S
C1825 C699 2.018 . S
C1829 C855 2.001 . S
C1843 C619 2.016 . S
C1847 C895 2.005 . S
C1861 C935 2.002 . S
C1865 C659 2.019 . S
C1879 C966 2.004 . S
C1883 C1250 2.015 . S
C1897 C1006 2.005 . S
C1901 C1290 2.016 . S
C1915 C1210 2.021 . S
C1919 C1046 2.008 . S
C1933 C1410 2.015 . S
C1937 C1086 2.003 . S
C1951 C1126 2.007 . S
C1955 C1330 2.016 . S
C1969 C1370 2.019 . S
C1973 C1166 2.003 . S
C1987 C1019 2.021 . S
C1991 C1215 2.006 . S
C2005 C1255 2.007 . S
C2009 C1059 2.016 . S
C2023 C979 2.021 . S
C2027 C1295 2.006 . S
C2041 C1335 2.003 . S
C2045 C1179 2.020 . S
C2059 C1375 2.005 . S
C2063 C1099 2.021 . S
C2077 C1415 2.008 . S
C2081 C1139 2.018 . S
C2095 C10 2.218 . S
C2099 C739 2.218 . S
C2113 C50 2.223 . S
C2117 C779 2.223 . S
C2131 C819 2.224 . S
C2135 C90 2.224 . S
C2149 C1339 2.222 . S
C2153 C130 2.222 . S
C2167 C1379 2.224 . S
C2171 C170 2.224 . S
C2185 C1419 2.219 . S
C2189 C210 2.219 . S
C2203 C259 2.219 . S
C2207 C970 2.219 . S
C2221 C1010 2.218 . S
C2225 C299 2.218 . S
C2239 C339 2.218 . S
C2243 C1050 2.218 . S
C2257 C379 2.220 . S
C2261 C610 2.220 . S
C2275 C419 2.220 . S
C2279 C650 2.220 . S
C2293 C459 2.220 . S
C2297 C690 2.220 . S
C2311 C490 2.226 . S
C2315 C1219 2.226 . S
C2329 C1259 2.219 . S
C2333 C530 2.219 . S
C2347 C570 2.219 . S
C2351 C1299 2.219 . S
C2365 C1090 2.222 . S
C2369 C859 2.222 . S
C2383 C899 2.218 . S
C2387 C1130 2.218 . S
C2401 C1170 2.225 . S
C2405 C939 2.225 . S
C2419 C18 2.207 1_556 S
C2423 C658 2.215 . S
C2437 C58 2.200 1_556 S
C2441 C698 2.204 . S
C2455 C618 2.211 . S
C2459 C98 2.203 1_556 S
C2473 C138 2.210 . S
C2477 C1058 2.202 . S
C2491 C978 2.200 . S
C2495 C178 2.204 . S
C2509 C218 2.200 . S
C2513 C1018 2.204 . S
C2527 C1369 2.214 . S
C2531 C249 2.207 1_554 S
C2545 C289 2.203 1_554 S
C2549 C1409 2.211 . S
C2563 C1329 2.216 . S
C2567 C329 2.211 1_554 S
C2581 C369 2.200 . S
C2585 C809 2.205 . S
C2599 C409 2.204 . S
C2603 C729 2.200 . S
C2617 C449 2.211 . S
C2621 C769 2.203 . S
C2635 C1138 2.207 . S
C2639 C498 2.215 . S
C2653 C538 2.200 . S
C2657 C1178 2.206 . S
C2671 C578 2.201 . S
C2675 C1098 2.201 . S
C2689 C1289 2.200 . S
C2693 C849 2.203 . S
C2707 C1209 2.205 . S
C2711 C889 2.213 . S
C2725 C1249 2.202 . S
C2729 C929 2.200 . S
C2743 C129 2.695 . S
C2747 C9 2.692 . S
C2761 C49 2.690 . S
C2765 C169 2.692 . S
C2779 C89 2.693 . S
C2783 C209 2.691 . S
C2797 C378 2.691 . S
C2801 C258 2.693 . S
C2815 C298 2.691 . S
C2819 C418 2.690 . S
C2833 C458 2.690 . S
C2837 C338 2.691 . S
C2851 C609 2.695 . S
C2855 C489 2.692 . S
C2869 C529 2.698 . S
C2873 C649 2.695 . S
C2887 C569 2.699 . S
C2891 C689 2.697 . S
C2905 C738 2.691 . S
C2909 C858 2.690 1_554 S
C2923 C778 2.691 . S
C2927 C898 2.690 1_554 S
C2941 C818 2.690 . S
C2945 C938 2.692 1_554 S
C2959 C969 2.691 . S
C2963 C1089 2.690 1_556 S
C2977 C1129 2.690 1_556 S
C2981 C1009 2.692 . S
C2995 C1169 2.698 1_556 S
C2999 C1049 2.696 . S
C3013 C1218 2.698 . S
C3017 C1338 2.699 . S
C3031 C1378 2.692 . S
C3035 C1258 2.690 . S
C3049 C1298 2.690 . S
C3053 C1418 2.690 . S
C3067 C15 0.273 . S
C3071 C1175 0.293 . S
C3085 C1095 0.293 . S
C3089 C55 0.273 . S
C3103 C95 0.264 . S
C3107 C1135 0.255 . S
C3121 C535 0.261 . S
C3125 C135 0.298 . S
C3139 C175 0.243 . S
C3143 C575 0.291 . S
C3157 C215 0.257 . S
C3161 C495 0.298 . S
C3175 C926 0.244 . S
C3179 C246 0.281 . S
C3193 C286 0.298 . S
C3197 C846 0.256 . S
C3211 C886 0.245 . S
C3215 C326 0.294 . S
C3229 C366 0.274 . S
C3233 C1246 0.292 . S
C3247 C1286 0.259 . S
C3251 C406 0.259 . S
C3265 C1206 0.286 . S
C3269 C446 0.283 . S
C3283 C615 0.298 . S
C3287 C1015 0.259 . S
C3301 C655 0.292 . S
C3305 C1055 0.275 . S
C3319 C695 0.248 . S
C3323 C975 0.297 . S
C3337 C726 0.298 . S
C3341 C1406 0.260 . S
C3355 C766 0.261 . S
C3359 C1326 0.257 . S
C3373 C1366 0.288 . S
C3377 C806 0.280 . S
