# Generated by pormake.
# Topology rac, (4)-cn, num edge types: 1
# Building blocks:
#     Node 0, Type 0, BuildingBlock: KUFVIS_clean_sbu_0, # of connection points: 4
#     Node 1, Type 0, BuildingBlock: KUFVIS_clean_sbu_0, # of connection points: 4
#     Node 2, Type 0, BuildingBlock: KUFVIS_clean_sbu_0, # of connection points: 4
#     Node 3, Type 0, BuildingBlock: KUFVIS_clean_sbu_0, # of connection points: 4
#     Node 4, Type 0, BuildingBlock: KUFVIS_clean_sbu_0, # of connection points: 4
#     Node 5, Type 0, BuildingBlock: KUFVIS_clean_sbu_0, # of connection points: 4
#     Node 6, Type 0, BuildingBlock: KUFVIS_clean_sbu_0, # of connection points: 4
#     Node 7, Type 0, BuildingBlock: KUFVIS_clean_sbu_0, # of connection points: 4
#     Edge 8, Type (0, 0), BuildingBlock: XUDNAN_clean_linker_2, # of connection points: 2
#     Edge 9, Type (0, 0), BuildingBlock: XUDNAN_clean_linker_2, # of connection points: 2
#     Edge 10, Type (0, 0), BuildingBlock: XUDNAN_clean_linker_2, # of connection points: 2
#     Edge 11, Type (0, 0), BuildingBlock: XUDNAN_clean_linker_2, # of connection points: 2
#     Edge 12, Type (0, 0), BuildingBlock: XUDNAN_clean_linker_2, # of connection points: 2
#     Edge 13, Type (0, 0), BuildingBlock: XUDNAN_clean_linker_2, # of connection points: 2
#     Edge 14, Type (0, 0), BuildingBlock: XUDNAN_clean_linker_2, # of connection points: 2
#     Edge 15, Type (0, 0), BuildingBlock: XUDNAN_clean_linker_2, # of connection points: 2
#     Edge 16, Type (0, 0), BuildingBlock: XUDNAN_clean_linker_2, # of connection points: 2
#     Edge 17, Type (0, 0), BuildingBlock: XUDNAN_clean_linker_2, # of connection points: 2
#     Edge 18, Type (0, 0), BuildingBlock: XUDNAN_clean_linker_2, # of connection points: 2
#     Edge 19, Type (0, 0), BuildingBlock: XUDNAN_clean_linker_2, # of connection points: 2
#     Edge 20, Type (0, 0), BuildingBlock: XUDNAN_clean_linker_2, # of connection points: 2
#     Edge 21, Type (0, 0), BuildingBlock: XUDNAN_clean_linker_2, # of connection points: 2
#     Edge 22, Type (0, 0), BuildingBlock: XUDNAN_clean_linker_2, # of connection points: 2
#     Edge 23, Type (0, 0), BuildingBlock: XUDNAN_clean_linker_2, # of connection points: 2
# Relax obj value: 0.207
# Max RMSD: 0.071
# Mean RMSD: 0.071
data_MOF--net-rac--node1-KUFVIS_clean_sbu_0--edge1-XUDNAN_clean_linker_2
_symmetry_space_group_name_H-M    P1
_symmetry_Int_Tables_number       1
_symmetry_cell_setting            triclinic
loop_
_symmetry_equiv_pos_as_xyz
'x, y, z'
_cell_length_a     40.586751
_cell_length_b     21.719132
_cell_length_c     36.714327
_cell_angle_alpha  89.856855
_cell_angle_beta   89.869132
_cell_angle_gamma 90.10831
loop_
_atom_site_label
_atom_site_type_symbol
_atom_site_fract_x
_atom_site_fract_y
_atom_site_fract_z
_atom_type_partial_charge
Mn0 Mn 0.37468 0.28497 0.05043 0.0
Mn1 Mn 0.30711 0.28544 0.10335 0.0
C2 C 0.32608 0.32704 0.02792 0.0
C3 C 0.42329 0.34014 0.0344 0.0
C4 C 0.33278 0.17122 0.06585 0.0
O5 O 0.392 0.2651 0.10199 0.0
O6 O 0.34683 0.29236 0.13389 0.0
C7 C 0.31058 0.41137 0.13287 0.0
N8 N 0.29354 0.36682 0.115 0.0
C9 C 0.24483 0.42933 0.11285 0.0
C10 C 0.2617 0.47558 0.13149 0.0
C11 C 0.2948 0.46674 0.14147 0.0
C12 C 0.26198 0.37546 0.1046 0.0
H13 H 0.33601 0.40469 0.14033 0.0
C14 C 0.37744 0.27882 0.13188 0.0
O15 O 0.42031 0.28142 0.02804 0.0
O16 O 0.39888 0.36558 0.05109 0.0
N17 N 0.26619 0.27929 0.07743 0.0
C18 C 0.25325 0.23019 0.05926 0.0
C19 C 0.22043 0.23191 0.04733 0.0
C20 C 0.20084 0.28347 0.0549 0.0
C21 C 0.2143 0.33287 0.07434 0.0
C22 C 0.2473 0.32874 0.08527 0.0
H23 H 0.26757 0.18972 0.05402 0.0
O24 O 0.34996 0.31339 0.00595 0.0
O25 O 0.33196 0.31689 0.06199 0.0
O26 O 0.35436 0.19686 0.04501 0.0
O27 O 0.31862 0.19965 0.09198 0.0
C28 C 0.19631 0.3862 0.08315 0.0
C29 C 0.21164 0.43462 0.10222 0.0
H30 H 0.24955 0.51849 0.13718 0.0
H31 H 0.30831 0.50246 0.15539 0.0
H32 H 0.21016 0.19321 0.03268 0.0
H33 H 0.17549 0.28458 0.04576 0.0
H34 H 0.17078 0.39075 0.07504 0.0
H35 H 0.19772 0.47579 0.10851 0.0
Mn36 Mn 0.13167 0.71992 0.06181 0.0
Mn37 Mn 0.19074 0.73585 0.12539 0.0
C38 C 0.18285 0.67392 0.05255 0.0
C39 C 0.08681 0.65946 0.04008 0.0
C40 C 0.1749 0.83553 0.07026 0.0
O41 O 0.1051 0.748 0.10611 0.0
O42 O 0.14684 0.75287 0.14609 0.0
C43 C 0.17247 0.63582 0.17628 0.0
N44 N 0.1953 0.66371 0.15455 0.0
C45 C 0.23951 0.60919 0.18356 0.0
C46 C 0.21651 0.57937 0.20611 0.0
C47 C 0.18278 0.59208 0.20206 0.0
C48 C 0.2276 0.64958 0.15695 0.0
H49 H 0.14672 0.64791 0.17449 0.0
C50 C 0.11641 0.7574 0.13794 0.0
O51 O 0.09085 0.71653 0.03004 0.0
O52 O 0.10797 0.63879 0.06315 0.0
N53 N 0.23516 0.72149 0.11054 0.0
C54 C 0.25432 0.75698 0.08826 0.0
C55 C 0.28863 0.74906 0.08838 0.0
C56 C 0.30301 0.70684 0.11259 0.0
C57 C 0.28288 0.67193 0.13589 0.0
C58 C 0.24874 0.68006 0.13356 0.0
H59 H 0.24358 0.79167 0.07087 0.0
O60 O 0.16335 0.68759 0.02587 0.0
O61 O 0.17186 0.6884 0.08482 0.0
O62 O 0.1518 0.80791 0.0528 0.0
O63 O 0.18912 0.81216 0.09777 0.0
C64 C 0.29546 0.63179 0.16263 0.0
C65 C 0.27381 0.60088 0.18667 0.0
H66 H 0.22449 0.54697 0.22674 0.0
H67 H 0.16488 0.56964 0.21953 0.0
H68 H 0.30403 0.77671 0.07062 0.0
H69 H 0.32957 0.70214 0.11335 0.0
H70 H 0.32178 0.625 0.1653 0.0
H71 H 0.2838 0.5704 0.20725 0.0
Mn72 Mn 0.37468 0.20515 0.46324 0.0
Mn73 Mn 0.30737 0.22088 0.41025 0.0
C74 C 0.32514 0.16087 0.4803 0.0
C75 C 0.41952 0.13565 0.47588 0.0
C76 C 0.32997 0.32031 0.46247 0.0
O77 O 0.39479 0.23361 0.41499 0.0
O78 O 0.34785 0.24305 0.38274 0.0
C79 C 0.32007 0.12549 0.35454 0.0
N80 N 0.30041 0.14933 0.38108 0.0
C81 C 0.2549 0.08544 0.3627 0.0
C82 C 0.27466 0.06021 0.33514 0.0
C83 C 0.30752 0.07975 0.33138 0.0
C84 C 0.26909 0.12946 0.38566 0.0
H85 H 0.34494 0.14206 0.35064 0.0
C86 C 0.37922 0.2462 0.38575 0.0
O87 O 0.42021 0.1921 0.48772 0.0
O88 O 0.39458 0.12253 0.45608 0.0
N89 N 0.26643 0.20009 0.43308 0.0
C90 C 0.25104 0.22794 0.46162 0.0
C91 C 0.21892 0.20977 0.47113 0.0
C92 C 0.20263 0.16464 0.45049 0.0
C93 C 0.21884 0.13733 0.42089 0.0
C94 C 0.25128 0.15561 0.41361 0.0
H95 H 0.26316 0.26387 0.47689 0.0
O96 O 0.34782 0.17174 0.50413 0.0
O97 O 0.33221 0.17594 0.44692 0.0
O98 O 0.3563 0.29441 0.47509 0.0
O99 O 0.31147 0.29551 0.43872 0.0
C100 C 0.20391 0.09354 0.39791 0.0
C101 C 0.22179 0.0682 0.36853 0.0
H102 H 0.26493 0.02552 0.31693 0.0
H103 H 0.32292 0.0605 0.31019 0.0
H104 H 0.20651 0.23133 0.49388 0.0
H105 H 0.17761 0.15167 0.45744 0.0
H106 H 0.17871 0.07899 0.4026 0.0
H107 H 0.21013 0.03432 0.35119 0.0
Mn108 Mn 0.13419 0.76933 0.46321 0.0
Mn109 Mn 0.19662 0.74238 0.40608 0.0
C110 C 0.18572 0.80476 0.48167 0.0
C111 C 0.09057 0.84226 0.47347 0.0
C112 C 0.16847 0.64715 0.45658 0.0
O113 O 0.11278 0.74111 0.41536 0.0
O114 O 0.15588 0.75823 0.37837 0.0
C115 C 0.20563 0.85178 0.35894 0.0
N116 N 0.21846 0.80876 0.38189 0.0
C117 C 0.27348 0.82851 0.35997 0.0
C118 C 0.26081 0.87269 0.33582 0.0
C119 C 0.22678 0.88489 0.33565 0.0
C120 C 0.25117 0.79687 0.38236 0.0
H121 H 0.17942 0.8597 0.35791 0.0
C122 C 0.12513 0.75004 0.38383 0.0
O123 O 0.08866 0.78651 0.48649 0.0
O124 O 0.11662 0.85354 0.45473 0.0
N125 N 0.23842 0.72762 0.42871 0.0
C126 C 0.24675 0.69495 0.45898 0.0
C127 C 0.28014 0.68423 0.46665 0.0
C128 C 0.30462 0.70792 0.44334 0.0
C129 C 0.29549 0.74477 0.41363 0.0
C130 C 0.26187 0.75456 0.40779 0.0
H131 H 0.22828 0.67864 0.4776 0.0
O132 O 0.16103 0.79944 0.50382 0.0
O133 O 0.17919 0.79175 0.44748 0.0
O134 O 0.14993 0.68003 0.47717 0.0
O135 O 0.17693 0.66605 0.42517 0.0
C136 C 0.3184 0.77423 0.39046 0.0
C137 C 0.30738 0.81592 0.36353 0.0
H138 H 0.27703 0.89852 0.31796 0.0
H139 H 0.21684 0.91918 0.3173 0.0
H140 H 0.28698 0.65763 0.49041 0.0
H141 H 0.33034 0.69938 0.44927 0.0
H142 H 0.34459 0.76685 0.39395 0.0
H143 H 0.32525 0.83956 0.34656 0.0
Mn144 Mn 0.63754 0.71607 0.95593 0.0
Mn145 Mn 0.70686 0.74461 0.90695 0.0
C146 C 0.68256 0.652 0.95991 0.0
C147 C 0.58845 0.65511 0.96033 0.0
C148 C 0.68908 0.81641 0.9748 0.0
O149 O 0.62025 0.77133 0.91486 0.0
O150 O 0.66857 0.78748 0.88542 0.0
C151 C 0.68952 0.68517 0.83694 0.0
N152 N 0.71001 0.69034 0.86614 0.0
C153 C 0.74763 0.6164 0.84065 0.0
C154 C 0.72689 0.61024 0.81039 0.0
C155 C 0.69771 0.64478 0.80855 0.0
C156 C 0.73836 0.65786 0.86797 0.0
H157 H 0.66712 0.71169 0.83523 0.0
C158 C 0.63727 0.79391 0.88853 0.0
O159 O 0.59249 0.70346 0.98076 0.0
O160 O 0.6112 0.64623 0.93654 0.0
N161 N 0.74516 0.70312 0.92487 0.0
C162 C 0.76058 0.70947 0.95757 0.0
C163 C 0.789 0.67483 0.96487 0.0
C164 C 0.80142 0.63443 0.93838 0.0
C165 C 0.78514 0.62869 0.90492 0.0
C166 C 0.75684 0.6642 0.89924 0.0
H167 H 0.75105 0.74024 0.97803 0.0
O168 O 0.662 0.65545 0.98684 0.0
O169 O 0.67734 0.68889 0.93284 0.0
O170 O 0.66114 0.79062 0.98203 0.0
O171 O 0.70702 0.80194 0.94772 0.0
C172 C 0.79537 0.58784 0.8774 0.0
C173 C 0.77667 0.58178 0.84525 0.0
H174 H 0.73297 0.57871 0.78858 0.0
H175 H 0.68157 0.64029 0.78528 0.0
H176 H 0.80126 0.67914 0.99088 0.0
H177 H 0.82321 0.60747 0.94421 0.0
H178 H 0.8172 0.55988 0.881 0.0
H179 H 0.78443 0.54926 0.82462 0.0
Mn180 Mn 0.88675 0.26003 0.95113 0.0
Mn181 Mn 0.82803 0.22551 0.88891 0.0
C182 C 0.83876 0.31625 0.94917 0.0
C183 C 0.93226 0.32878 0.96233 0.0
C184 C 0.83661 0.15265 0.95928 0.0
O185 O 0.9126 0.20995 0.91398 0.0
O186 O 0.87122 0.19055 0.87476 0.0
C187 C 0.85383 0.29281 0.82453 0.0
N188 N 0.82876 0.28053 0.8482 0.0
C189 C 0.79105 0.34222 0.81324 0.0
C190 C 0.81645 0.35532 0.78843 0.0
C191 C 0.84798 0.33055 0.79413 0.0
C192 C 0.79818 0.30339 0.84268 0.0
H193 H 0.87806 0.27374 0.82867 0.0
C194 C 0.90151 0.18768 0.8843 0.0
O195 O 0.92782 0.28006 0.9825 0.0
O196 O 0.91195 0.33423 0.9359 0.0
N197 N 0.78505 0.25812 0.89836 0.0
C198 C 0.7656 0.25172 0.92841 0.0
C199 C 0.73387 0.27736 0.92854 0.0
C200 C 0.72268 0.31027 0.89801 0.0
C201 C 0.74367 0.31858 0.86799 0.0
C202 C 0.77491 0.29129 0.86925 0.0
H203 H 0.77476 0.2294 0.95258 0.0
O204 O 0.8562 0.31402 0.97857 0.0
O205 O 0.8494 0.28441 0.92161 0.0
O206 O 0.86211 0.18076 0.97247 0.0
O207 O 0.82406 0.1669 0.92868 0.0
C208 C 0.73558 0.35595 0.8379 0.0
C209 C 0.75923 0.36768 0.81052 0.0
H210 H 0.81213 0.38498 0.76516 0.0
H211 H 0.86773 0.34052 0.77514 0.0
H212 H 0.71829 0.27268 0.95235 0.0
H213 H 0.69843 0.33098 0.8985 0.0
H214 H 0.71161 0.3776 0.83618 0.0
H215 H 0.75299 0.39781 0.78802 0.0
Mn216 Mn 0.64409 0.7786 0.55235 0.0
Mn217 Mn 0.71775 0.78522 0.59416 0.0
C218 C 0.68984 0.8181 0.52137 0.0
C219 C 0.59425 0.83287 0.54029 0.0
C220 C 0.68719 0.66597 0.56848 0.0
O221 O 0.63243 0.7697 0.60658 0.0
O222 O 0.68196 0.79256 0.63085 0.0
C223 C 0.71655 0.91121 0.62184 0.0
N224 N 0.73144 0.86738 0.6015 0.0
C225 C 0.77852 0.93185 0.59045 0.0
C226 C 0.76378 0.97777 0.61153 0.0
C227 C 0.73263 0.96702 0.62732 0.0
C228 C 0.76111 0.87698 0.58578 0.0
H229 H 0.69254 0.90361 0.63371 0.0
C230 C 0.65084 0.78331 0.63366 0.0
O231 O 0.59607 0.77321 0.53738 0.0
O232 O 0.62081 0.86007 0.55081 0.0
N233 N 0.75463 0.77915 0.56164 0.0
C234 C 0.76506 0.72995 0.54175 0.0
C235 C 0.79558 0.7328 0.52368 0.0
C236 C 0.81539 0.78562 0.52686 0.0
C237 C 0.8044 0.83525 0.54797 0.0
C238 C 0.77359 0.83 0.56493 0.0
H239 H 0.7504 0.68868 0.53983 0.0
O240 O 0.66435 0.79886 0.50345 0.0
O241 O 0.68769 0.8119 0.55627 0.0
O242 O 0.66224 0.68762 0.55101 0.0
O243 O 0.70667 0.6992 0.58707 0.0
C244 C 0.82272 0.88982 0.55281 0.0
C245 C 0.80977 0.93813 0.57409 0.0
H246 H 0.77587 0.02163 0.6149 0.0
H247 H 0.72018 0.00148 0.64291 0.0
H248 H 0.80396 0.69411 0.50764 0.0
H249 H 0.83898 0.78754 0.51305 0.0
H250 H 0.84667 0.89528 0.54011 0.0
H251 H 0.82397 0.97997 0.57761 0.0
Mn252 Mn 0.87495 0.212 0.56172 0.0
Mn253 Mn 0.81203 0.21649 0.62078 0.0
C254 C 0.82372 0.17331 0.5429 0.0
C255 C 0.92101 0.15371 0.54068 0.0
C256 C 0.83872 0.32915 0.58126 0.0
O257 O 0.89745 0.22604 0.61094 0.0
O258 O 0.85414 0.20671 0.6477 0.0
C259 C 0.81071 0.10165 0.66313 0.0
N260 N 0.79531 0.14113 0.63996 0.0
C261 C 0.742 0.11013 0.66233 0.0
C262 C 0.75744 0.07039 0.68719 0.0
C263 C 0.79191 0.06508 0.68698 0.0
C264 C 0.76204 0.14454 0.63884 0.0
H265 H 0.83711 0.09949 0.66402 0.0
C266 C 0.88502 0.21477 0.6422 0.0
O267 O 0.91895 0.21286 0.5353 0.0
O268 O 0.89676 0.12918 0.55824 0.0
N269 N 0.76992 0.22533 0.59832 0.0
C270 C 0.75919 0.26876 0.57429 0.0
C271 C 0.72526 0.27482 0.56781 0.0
C272 C 0.70275 0.23803 0.58727 0.0
C273 C 0.71449 0.19425 0.61219 0.0
C274 C 0.74861 0.18769 0.61571 0.0
H275 H 0.7763 0.29871 0.56039 0.0
O276 O 0.84601 0.1923 0.52011 0.0
O277 O 0.83192 0.17851 0.57714 0.0
O278 O 0.85849 0.30346 0.55879 0.0
O279 O 0.82419 0.29929 0.6062 0.0
C280 C 0.69374 0.15827 0.63453 0.0
C281 C 0.70751 0.11741 0.66023 0.0
H282 H 0.74301 0.04292 0.70606 0.0
H283 H 0.80399 0.03399 0.70575 0.0
H284 H 0.71642 0.30894 0.54869 0.0
H285 H 0.67655 0.24424 0.58316 0.0
H286 H 0.66722 0.16275 0.63278 0.0
H287 H 0.69135 0.09114 0.67795 0.0
H288 H 0.30236 0.0947 0.11357 0.0
H289 H 0.32565 0.11287 0.99884 0.0
H290 H 0.28412 0.03194 0.9848 0.0
H291 H 0.28135 0.93131 0.11693 0.0
H292 H 0.2483 0.9457 0.14863 0.0
H293 H 0.28391 0.99514 0.14812 0.0
H294 H 0.24508 0.08888 0.13931 0.0
H295 H 0.2095 0.03938 0.13785 0.0
H296 H 0.21797 0.09117 0.10052 0.0
H297 H 0.23572 0.9486 0.98496 0.0
H298 H 0.19223 0.87153 1.00008 0.0
H299 H 0.19665 0.92718 0.11306 0.0
C300 C 0.29972 0.08036 0.08548 0.0
C301 C 0.31785 0.10984 0.05741 0.0
C302 C 0.31286 0.09009 0.02101 0.0
C303 C 0.28876 0.04487 0.01277 0.0
C304 C 0.26954 0.02047 0.04113 0.0
C305 C 0.27519 0.03768 0.07679 0.0
C306 C 0.25006 0.00998 0.10249 0.0
C307 C 0.26691 0.96803 0.13068 0.0
C308 C 0.22945 0.06036 0.12113 0.0
C309 C 0.22941 0.97334 0.0761 0.0
C310 C 0.24085 0.97899 0.04075 0.0
C311 C 0.22647 0.94486 0.01255 0.0
C312 C 0.20123 0.90192 0.02118 0.0
C313 C 0.19037 0.89414 0.05764 0.0
C314 C 0.20376 0.93286 0.08477 0.0
H315 H 0.20113 0.56686 0.41326 0.0
H316 H 0.17888 0.59956 0.52712 0.0
H317 H 0.22243 0.52393 0.54424 0.0
H318 H 0.22594 0.40835 0.4168 0.0
H319 H 0.25832 0.42133 0.384 0.0
H320 H 0.22183 0.4681 0.38293 0.0
H321 H 0.25853 0.56681 0.38786 0.0
H322 H 0.29461 0.51874 0.38898 0.0
H323 H 0.28727 0.57296 0.42503 0.0
H324 H 0.2713 0.4386 0.54621 0.0
H325 H 0.31446 0.36042 0.53253 0.0
H326 H 0.31064 0.41152 0.41878 0.0
C327 C 0.20453 0.5576 0.442 0.0
C328 C 0.18584 0.58931 0.46874 0.0
C329 C 0.19198 0.57517 0.5059 0.0
C330 C 0.21725 0.53299 0.51583 0.0
C331 C 0.23682 0.50654 0.4884 0.0
C332 C 0.23049 0.5192 0.45221 0.0
C333 C 0.25587 0.49073 0.42726 0.0
C334 C 0.23952 0.44438 0.40124 0.0
C335 C 0.27517 0.5403 0.40604 0.0
C336 C 0.27766 0.45882 0.45469 0.0
C337 C 0.26626 0.46668 0.48991 0.0
C338 C 0.28074 0.43398 0.51877 0.0
C339 C 0.3059 0.39044 0.51096 0.0
C340 C 0.31702 0.38117 0.47472 0.0
C341 C 0.30376 0.41898 0.44697 0.0
H342 H 0.68068 0.93805 0.96383 0.0
H343 H 0.73426 0.80726 0.02944 0.0
H344 H 0.77728 0.88563 0.04135 0.0
H345 H 0.74508 0.99107 0.91872 0.0
H346 H 0.73233 0.0703 0.91509 0.0
H347 H 0.702 0.01095 0.92068 0.0
H348 H 0.67907 0.06503 0.97824 0.0
H349 H 0.70914 0.12549 0.97245 0.0
H350 H 0.70656 0.08422 0.01502 0.0
H351 H 0.82123 0.97562 0.03434 0.0
H352 H 0.85587 0.06323 0.01175 0.0
H353 H 0.77192 0.12774 0.94976 0.0
C354 C 0.70013 0.92745 0.98298 0.0
C355 C 0.70325 0.86717 0.99686 0.0
C356 C 0.73053 0.85383 0.01969 0.0
C357 C 0.75544 0.89806 0.02618 0.0
C358 C 0.75277 0.95608 0.0099 0.0
C359 C 0.72516 0.97097 0.98944 0.0
C360 C 0.7296 0.03234 0.97057 0.0
C361 C 0.72713 0.02569 0.92884 0.0
C362 C 0.70461 0.07957 0.98494 0.0
C363 C 0.76429 0.04864 0.98226 0.0
C364 C 0.77754 0.00533 0.00538 0.0
C365 C 0.81056 0.01037 0.01681 0.0
C366 C 0.83021 0.06041 0.00393 0.0
C367 C 0.81694 0.10404 0.97925 0.0
C368 C 0.7833 0.09738 0.96926 0.0
H369 H 0.71201 0.58917 0.51363 0.0
H370 H 0.68721 0.59708 0.62847 0.0
H371 H 0.73145 0.52371 0.642 0.0
H372 H 0.72961 0.41309 0.51949 0.0
H373 H 0.76101 0.41815 0.4848 0.0
H374 H 0.72596 0.46896 0.48335 0.0
H375 H 0.76574 0.56214 0.48153 0.0
H376 H 0.80093 0.5119 0.4845 0.0
H377 H 0.79527 0.57207 0.51765 0.0
H378 H 0.78801 0.47932 0.64449 0.0
H379 H 0.83385 0.40714 0.63712 0.0
H380 H 0.81406 0.39631 0.52117 0.0
C381 C 0.7143 0.57211 0.54124 0.0
C382 C 0.69611 0.59973 0.57012 0.0
C383 C 0.70052 0.57663 0.60592 0.0
C384 C 0.72626 0.53612 0.61403 0.0
C385 C 0.74599 0.51515 0.58566 0.0
C386 C 0.73866 0.5276 0.54973 0.0
C387 C 0.76246 0.4927 0.52482 0.0
C388 C 0.74365 0.44539 0.50174 0.0
C389 C 0.78226 0.53739 0.50068 0.0
C390 C 0.78482 0.46107 0.55264 0.0
C391 C 0.77564 0.47821 0.58738 0.0
C392 C 0.79439 0.46269 0.61762 0.0
C393 C 0.821 0.42269 0.61294 0.0
C394 C 0.82722 0.39425 0.57883 0.0
C395 C 0.81011 0.41674 0.54768 0.0
H396 H 0.36771 0.35803 0.18701 0.0
H397 H 0.42583 0.19939 0.15653 0.0
H398 H 0.444 0.18822 0.2208 0.0
H399 H 0.42147 0.41501 0.26474 0.0
H400 H 0.38526 0.43583 0.29038 0.0
H401 H 0.38508 0.44129 0.24136 0.0
H402 H 0.33324 0.37154 0.23918 0.0
H403 H 0.33331 0.36568 0.28784 0.0
H404 H 0.33443 0.29677 0.26061 0.0
H405 H 0.44565 0.18211 0.29029 0.0
H406 H 0.42884 0.1787 0.35524 0.0
H407 H 0.36767 0.33908 0.3387 0.0
C408 C 0.38531 0.32236 0.19351 0.0
C409 C 0.39552 0.27978 0.16684 0.0
C410 C 0.41817 0.23314 0.17648 0.0
C411 C 0.42852 0.22652 0.21295 0.0
C412 C 0.41636 0.26754 0.2391 0.0
C413 C 0.39551 0.31513 0.22948 0.0
C414 C 0.38139 0.34721 0.2625 0.0
C415 C 0.39407 0.41378 0.26488 0.0
C416 C 0.34338 0.34507 0.26251 0.0
C417 C 0.39572 0.30789 0.29247 0.0
C418 C 0.41673 0.26336 0.27876 0.0
C419 C 0.43 0.21781 0.30131 0.0
C420 C 0.42051 0.21638 0.33823 0.0
C421 C 0.39748 0.2594 0.35187 0.0
C422 C 0.38598 0.30678 0.32899 0.0
H423 H 0.12516 0.84347 0.33618 0.0
H424 H 0.07926 0.66752 0.35808 0.0
H425 H 0.05632 0.66678 0.29547 0.0
H426 H 0.06219 0.90368 0.26599 0.0
H427 H 0.09529 0.93746 0.23986 0.0
H428 H 0.09798 0.93393 0.28885 0.0
H429 H 0.15387 0.87696 0.28366 0.0
H430 H 0.1514 0.88055 0.23509 0.0
H431 H 0.15616 0.80705 0.25738 0.0
H432 H 0.05174 0.67226 0.22729 0.0
H433 H 0.06874 0.67971 0.16272 0.0
H434 H 0.11847 0.85141 0.18506 0.0
C435 C 0.10906 0.80615 0.32818 0.0
C436 C 0.10369 0.75584 0.3517 0.0
C437 C 0.08303 0.70707 0.34052 0.0
C438 C 0.06996 0.70643 0.305 0.0
C439 C 0.07744 0.75537 0.28147 0.0
C440 C 0.09622 0.80488 0.29298 0.0
C441 C 0.10629 0.84589 0.26151 0.0
C442 C 0.08941 0.90898 0.26422 0.0
C443 C 0.14413 0.85289 0.25929 0.0
C444 C 0.09272 0.8092 0.22996 0.0
C445 C 0.07501 0.75836 0.24191 0.0
C446 C 0.06449 0.71297 0.21763 0.0
C447 C 0.07394 0.71778 0.18084 0.0
C448 C 0.09415 0.767 0.16902 0.0
C449 C 0.10195 0.81473 0.19341 0.0
H450 H 0.66133 0.87572 0.83972 0.0
H451 H 0.57848 0.75457 0.85992 0.0
H452 H 0.56629 0.75317 0.79403 0.0
H453 H 0.63002 0.95484 0.75278 0.0
H454 H 0.67099 0.95161 0.73382 0.0
H455 H 0.66536 0.9614 0.78219 0.0
H456 H 0.7024 0.86622 0.79344 0.0
H457 H 0.70728 0.85469 0.74541 0.0
H458 H 0.6912 0.79336 0.77349 0.0
H459 H 0.57191 0.74438 0.72484 0.0
H460 H 0.59304 0.73397 0.6616 0.0
H461 H 0.67545 0.85234 0.68893 0.0
C462 C 0.63937 0.85206 0.83051 0.0
C463 C 0.62072 0.81577 0.85499 0.0
C464 C 0.59271 0.78388 0.84185 0.0
C465 C 0.58586 0.78223 0.80426 0.0
C466 C 0.60705 0.81321 0.78036 0.0
C467 C 0.63294 0.8486 0.79321 0.0
C468 C 0.65592 0.86786 0.76273 0.0
C469 C 0.65553 0.9381 0.75757 0.0
C470 C 0.69124 0.84407 0.76918 0.0
C471 C 0.63991 0.83559 0.73097 0.0
C472 C 0.61132 0.8055 0.74118 0.0
C473 C 0.59391 0.76889 0.7165 0.0
C474 C 0.60615 0.76295 0.68069 0.0
C475 C 0.63597 0.79213 0.67028 0.0
C476 C 0.65257 0.82943 0.69583 0.0
H477 H 0.88592 0.11639 0.68677 0.0
H478 H 0.93219 0.29342 0.66965 0.0
H479 H 0.9584 0.28533 0.73054 0.0
H480 H 0.85862 0.14686 0.76923 0.0
H481 H 0.86278 0.07017 0.7876 0.0
H482 H 0.85804 0.08075 0.73961 0.0
H483 H 0.91225 0.02018 0.72872 0.0
H484 H 0.91738 0.01057 0.77719 0.0
H485 H 0.94979 0.04511 0.75036 0.0
H486 H 0.968 0.26943 0.79746 0.0
H487 H 0.95325 0.25736 0.86217 0.0
H488 H 0.89764 0.09327 0.83671 0.0
C489 C 0.90217 0.15274 0.69547 0.0
C490 C 0.90687 0.20559 0.67383 0.0
C491 C 0.92866 0.25209 0.68578 0.0
C492 C 0.94367 0.24763 0.72028 0.0
C493 C 0.93687 0.19604 0.74205 0.0
C494 C 0.91663 0.14923 0.7298 0.0
C495 C 0.9073 0.10519 0.7601 0.0
C496 C 0.86949 0.10061 0.76439 0.0
C497 C 0.92261 0.04149 0.7537 0.0
C498 C 0.92321 0.13698 0.79217 0.0
C499 C 0.94151 0.18768 0.78108 0.0
C500 C 0.95453 0.22901 0.80632 0.0
C501 C 0.9464 0.22131 0.84328 0.0
C502 C 0.92451 0.17396 0.8543 0.0
C503 C 0.91512 0.12871 0.82893 0.0
H504 H 0.44397 0.45479 0.05806 0.0
H505 H 0.46538 0.31308 0.9784 0.0
H506 H 0.5073 0.38089 0.95021 0.0
H507 H 0.45374 0.58587 0.99987 0.0
H508 H 0.47408 0.63339 0.03318 0.0
H509 H 0.44574 0.57422 0.04772 0.0
H510 H 0.49084 0.52583 0.08836 0.0
H511 H 0.5192 0.58533 0.07434 0.0
H512 H 0.52999 0.50548 0.06851 0.0
H513 H 0.54363 0.46566 0.92792 0.0
H514 H 0.57925 0.55505 0.91783 0.0
H515 H 0.53906 0.64275 0.01443 0.0
C516 C 0.45776 0.43782 0.03489 0.0
C517 C 0.45128 0.37831 0.02039 0.0
C518 C 0.46995 0.35796 0.99016 0.0
C519 C 0.49367 0.39647 0.9738 0.0
C520 C 0.49897 0.45508 0.98828 0.0
C521 C 0.48214 0.47533 0.01863 0.0
C522 C 0.49367 0.5398 0.02933 0.0
C523 C 0.4651 0.58605 0.0274 0.0
C524 C 0.50936 0.53905 0.0674 0.0
C525 C 0.51933 0.55294 0.9999 0.0
C526 C 0.52145 0.50344 0.97636 0.0
C527 C 0.54247 0.50426 0.94646 0.0
C528 C 0.56263 0.55585 0.94094 0.0
C529 C 0.56241 0.60656 0.96536 0.0
C530 C 0.53993 0.60522 0.99511 0.0
H531 H 0.06791 0.54365 0.06413 0.0
H532 H 0.04755 0.68016 0.98066 0.0
H533 H 1.00805 0.60846 0.95204 0.0
H534 H 0.06306 0.40962 0.00697 0.0
H535 H 0.0427 0.36179 0.04035 0.0
H536 H 0.06944 0.42335 0.05484 0.0
H537 H 0.0222 0.46959 0.09343 0.0
H538 H 0.99539 0.40791 0.07932 0.0
H539 H 0.98332 0.48682 0.07209 0.0
H540 H 0.97349 0.5216 0.93055 0.0
H541 H 0.94018 0.42978 0.92023 0.0
H542 H 0.97868 0.34691 0.01928 0.0
C543 C 0.05495 0.55864 0.03995 0.0
C544 C 0.06096 0.61793 0.02461 0.0
C545 C 0.0434 0.63549 0.99303 0.0
C546 C 0.02101 0.59481 0.97647 0.0
C547 C 0.01604 0.53667 0.99195 0.0
C548 C 0.03207 0.51872 0.02328 0.0
C549 C 0.02142 0.45383 0.03454 0.0
C550 C 0.05091 0.40953 0.03415 0.0
C551 C 1.00458 0.4546 0.07208 0.0
C552 C 0.99693 0.438 0.00451 0.0
C553 C 0.99477 0.48659 0.98016 0.0
C554 C 0.97475 0.48363 0.94964 0.0
C555 C 0.95586 0.43058 0.94405 0.0
C556 C 0.95631 0.3803 0.96898 0.0
C557 C 0.97758 0.38407 0.99962 0.0
H558 H 0.58512 0.95921 0.54407 0.0
H559 H 0.5351 0.78962 0.51478 0.0
H560 H 0.48606 0.84962 0.49689 0.0
H561 H 0.51271 0.03785 0.58094 0.0
H562 H 0.52452 0.11235 0.56346 0.0
H563 H 0.55568 0.05654 0.57485 0.0
H564 H 0.57968 0.06514 0.50973 0.0
H565 H 0.54858 0.12086 0.49807 0.0
H566 H 0.55319 0.05212 0.47114 0.0
H567 H 0.4435 0.92637 0.48036 0.0
H568 H 0.4083 0.01441 0.46693 0.0
H569 H 0.4837 0.13921 0.5072 0.0
C570 C 0.56375 0.9346 0.53412 0.0
C571 C 0.56408 0.86921 0.53093 0.0
C572 C 0.53559 0.83923 0.51761 0.0
C573 C 0.50758 0.87309 0.50735 0.0
C574 C 0.50818 0.93718 0.5106 0.0
C575 C 0.5354 0.96785 0.5238 0.0
C576 C 0.52936 0.03735 0.5241 0.0
C577 C 0.53065 0.0625 0.56317 0.0
C578 C 0.55418 0.07084 0.49928 0.0
C579 C 0.49453 0.04098 0.50869 0.0
C580 C 0.4831 0.98226 0.50119 0.0
C581 C 0.45218 0.97243 0.48622 0.0
C582 C 0.43234 0.02339 0.47856 0.0
C583 C 0.44293 0.08465 0.48577 0.0
C584 C 0.47463 0.09338 0.5014 0.0
H585 H 0.93378 0.03054 0.55481 0.0
H586 H 0.97184 0.18893 0.4958 0.0
H587 H 0.01737 0.12509 0.47205 0.0
H588 H 0.01344 0.96792 0.58025 0.0
H589 H 1.00104 0.88869 0.57505 0.0
H590 H 0.97099 0.94613 0.58717 0.0
H591 H 0.93547 0.91491 0.53179 0.0
H592 H 0.96545 0.8575 0.5194 0.0
H593 H 0.95351 0.91558 0.48687 0.0
H594 H 0.05796 0.04521 0.45384 0.0
H595 H 0.09371 0.9564 0.44422 0.0
H596 H 0.03204 0.84589 0.51605 0.0
C597 C 0.95173 0.05186 0.53689 0.0
C598 C 0.94906 0.11519 0.52714 0.0
C599 C 0.9732 0.14096 0.50375 0.0
C600 C 0.99916 0.10486 0.49004 0.0
C601 C 1.00095 0.04283 0.50004 0.0
C602 C 0.97808 0.01642 0.52312 0.0
C603 C 0.98634 0.94871 0.52995 0.0
C604 C 0.99337 0.9372 0.57052 0.0
C605 C 0.95853 0.90669 0.51618 0.0
C606 C 0.01748 0.94116 0.50702 0.0
C607 C 0.02509 -0.00369 0.48995 0.0
C608 C 0.05229 0.00198 0.46719 0.0
C609 C 0.07255 0.95065 0.46192 0.0
C610 C 0.0661 0.89331 0.47937 0.0
C611 C 0.03783 0.88862 0.50219 0.0
H612 H 0.25046 0.65756 0.04562 0.0
H613 H 0.1563 0.56323 0.04256 0.0
H614 H 0.1834 0.46995 0.0196 0.0
H615 H 0.28768 0.56854 0.96629 0.0
H616 H 0.32773 0.56729 0.98739 0.0
H617 H 0.30053 0.63174 0.99461 0.0
H618 H 0.30789 0.61666 0.06177 0.0
H619 H 0.33179 0.54771 0.0584 0.0
H620 H 0.29389 0.54801 0.08405 0.0
H621 H 0.22023 0.38661 0.99739 0.0
H622 H 0.26462 0.30829 0.9996 0.0
H623 H 0.33462 0.44939 0.02999 0.0
C624 C 0.23578 0.61687 0.04121 0.0
C625 C 0.20143 0.61704 0.04675 0.0
C626 C 0.1828 0.56347 0.03907 0.0
C627 C 0.19782 0.51077 0.02524 0.0
C628 C 0.23169 0.51178 0.01998 0.0
C629 C 0.25065 0.56276 0.02863 0.0
C630 C 0.28699 0.54843 0.02497 0.0
C631 C 0.30158 0.58092 0.99131 0.0
C632 C 0.30627 0.56591 0.0594 0.0
C633 C 0.28513 0.47956 0.01869 0.0
C634 C 0.25319 0.46092 0.01201 0.0
C635 C 0.2453 0.40015 1.00342 0.0
C636 C 0.27038 0.35603 0.00504 0.0
C637 C 0.30197 0.37315 0.01711 0.0
C638 C 0.31001 0.43574 0.02197 0.0
H639 H 0.31419 0.06151 0.43931 0.0
H640 H 0.2867 0.1473 0.54123 0.0
H641 H 0.25571 0.0528 0.55893 0.0
H642 H 0.24222 0.99248 0.42153 0.0
H643 H 0.25798 0.92261 0.40329 0.0
H644 H 0.28273 0.99041 0.40023 0.0
H645 H 0.3305 0.94129 0.43316 0.0
H646 H 0.30838 0.86968 0.43773 0.0
H647 H 0.32448 0.907 0.47747 0.0
H648 H 0.22661 0.94819 0.56324 0.0
H649 H 0.19327 0.85679 0.54901 0.0
H650 H 0.23762 0.84922 0.44251 0.0
C651 C 0.30114 0.06089 0.46508 0.0
C652 C 0.30175 0.11172 0.48849 0.0
C653 C 0.28563 0.10868 0.52266 0.0
C654 C 0.26866 0.055 0.53316 0.0
C655 C 0.26929 0.00468 0.50961 0.0
C656 C 0.28504 0.00772 0.47628 0.0
C657 C 0.28026 0.95008 0.45453 0.0
C658 C 0.26492 0.96501 0.41759 0.0
C659 C 0.31288 0.91501 0.45046 0.0
C660 C 0.25673 0.91593 0.47898 0.0
C661 C 0.25214 0.94623 0.51161 0.0
C662 C 0.23023 0.92424 0.53774 0.0
C663 C 0.2113 0.87216 0.52917 0.0
C664 C 0.21306 0.84488 0.49397 0.0
C665 C 0.23683 0.86626 0.4695 0.0
H666 H 0.71563 0.58126 0.01039 0.0
H667 H 0.6854 0.5886 0.89735 0.0
H668 H 0.72292 0.50329 0.88264 0.0
H669 H 0.79678 0.53815 1.00311 0.0
H670 H 0.79689 0.47899 0.03761 0.0
H671 H 0.76775 0.54122 0.0403 0.0
H672 H 0.71927 0.46303 0.04227 0.0
H673 H 0.74843 0.40059 0.04029 0.0
H674 H 0.71591 0.40563 0.00707 0.0
H675 H 0.7786 0.45247 0.87912 0.0
H676 H 0.82534 0.38192 0.88852 0.0
H677 H 0.80295 0.3713 1.00336 0.0
C678 C 0.71702 0.56454 0.98267 0.0
C679 C 0.70083 0.59521 0.95399 0.0
C680 C 0.70058 0.56936 0.91872 0.0
C681 C 0.72126 0.52058 0.91021 0.0
C682 C 0.73986 0.49569 0.93813 0.0
C683 C 0.73597 0.51288 0.97405 0.0
C684 C 0.75608 0.47195 0.99892 0.0
C685 C 0.78084 0.50987 0.0213 0.0
C686 C 0.73357 0.43298 0.0236 0.0
C687 C 0.77337 0.43254 0.97082 0.0
C688 C 0.76473 0.44972 0.93594 0.0
C689 C 0.78325 0.43299 0.90576 0.0
C690 C 0.80916 0.39214 0.91108 0.0
C691 C 0.81393 0.36425 0.94532 0.0
C692 C 0.79721 0.38727 0.97614 0.0
H693 H 0.6767 0.93905 0.52626 0.0
H694 H 0.74717 0.80963 0.48238 0.0
H695 H 0.78712 0.89461 0.47313 0.0
H696 H 0.71294 0.07034 0.45712 0.0
H697 H 0.70093 0.12963 0.48864 0.0
H698 H 0.67499 0.06296 0.48233 0.0
H699 H 0.67705 0.03815 0.55225 0.0
H700 H 0.69982 0.1086 0.55585 0.0
H701 H 0.71673 0.03934 0.57406 0.0
H702 H 0.82292 0.98195 0.4885 0.0
H703 H 0.85039 0.07252 0.51415 0.0
H704 H 0.75553 0.15267 0.54061 0.0
C705 C 0.70015 0.92954 0.51335 0.0
C706 C 0.70986 0.86824 0.50629 0.0
C707 C 0.74003 0.85635 0.48877 0.0
C708 C 0.76257 0.90439 0.4831 0.0
C709 C 0.75347 0.9639 0.49328 0.0
C710 C 0.72222 0.97749 0.50585 0.0
C711 C 0.7192 0.04564 0.51481 0.0
C712 C 0.70096 0.0791 0.48388 0.0
C713 C 0.7022 0.0583 0.55145 0.0
C714 C 0.75532 0.06351 0.51471 0.0
C715 C 0.77421 0.01684 0.49971 0.0
C716 C 0.80836 0.01957 0.4991 0.0
C717 C 0.82371 0.07082 0.51435 0.0
C718 C 0.80512 0.11921 0.53002 0.0
C719 C 0.7704 0.11599 0.52969 0.0
loop_
_geom_bond_atom_site_label_1
_geom_bond_atom_site_label_2
_geom_bond_distance
_geom_bond_site_symmetry_2
_ccdc_geom_bond_type
Mn0 O5 2.095 . S
Mn0 O15 2.162 . S
Mn0 O16 2.297 . S
Mn0 O24 2.385 1_554 S
Mn0 O25 2.209 . S
Mn0 O26 2.094 . S
Mn1 O6 2.121 . S
Mn1 N8 2.257 . S
Mn1 N17 2.282 . S
Mn1 O25 2.215 . S
Mn1 O27 2.117 . S
C2 O24 1.234 1_554 S
C2 O25 1.283 . S
C3 O15 1.281 . S
C3 O16 1.236 . S
C4 O26 1.240 . S
C4 O27 1.264 . S
O5 Mn0 2.095 . S
O5 C14 1.250 . S
O6 Mn1 2.121 . S
O6 C14 1.258 . S
C7 N8 1.326 . S
C7 C11 1.460 . S
C7 H13 0.929 . S
N8 Mn1 2.257 . S
N8 C7 1.326 . S
N8 C12 1.362 . S
C9 C10 1.258 . S
C9 C12 1.431 . S
C9 C29 1.449 . S
C10 C9 1.258 . S
C10 C11 1.477 . S
C10 H30 0.931 . S
C11 C7 1.460 . S
C11 C10 1.477 . S
C11 H31 0.930 . S
C12 N8 1.362 . S
C12 C9 1.431 . S
C12 C22 1.476 . S
H13 C7 0.929 . S
C14 O5 1.250 . S
C14 O6 1.258 . S
O15 Mn0 2.162 . S
O15 C3 1.281 . S
O16 Mn0 2.297 . S
O16 C3 1.236 . S
N17 Mn1 2.282 . S
N17 C18 1.328 . S
N17 C22 1.318 . S
C18 N17 1.328 . S
C18 C19 1.457 . S
C18 H23 0.929 . S
C19 C18 1.457 . S
C19 C20 1.291 . S
C19 H32 0.931 1_554 S
C20 C19 1.291 . S
C20 C21 1.373 . S
C20 H33 0.929 . S
C21 C20 1.373 . S
C21 C22 1.396 . S
C21 C28 1.403 . S
C22 C12 1.476 . S
C22 N17 1.318 . S
C22 C21 1.396 . S
H23 C18 0.929 . S
O24 Mn0 2.385 1_556 S
O24 C2 1.234 1_556 S
O25 Mn0 2.209 . S
O25 Mn1 2.215 . S
O25 C2 1.283 . S
O26 Mn0 2.094 . S
O26 C4 1.240 . S
O27 Mn1 2.117 . S
O27 C4 1.264 . S
C28 C21 1.403 . S
C28 C29 1.399 . S
C28 H34 0.929 . S
C29 C9 1.449 . S
C29 C28 1.399 . S
C29 H35 0.930 . S
H30 C10 0.931 . S
H31 C11 0.930 . S
H32 C19 0.931 1_556 S
H33 C20 0.929 . S
H34 C28 0.929 . S
H35 C29 0.930 . S
Mn36 O41 2.095 . S
Mn36 O51 2.162 . S
Mn36 O52 2.297 . S
Mn36 O60 2.385 1_554 S
Mn36 O61 2.209 . S
Mn36 O62 2.094 . S
Mn37 O42 2.121 . S
Mn37 N44 2.257 . S
Mn37 N53 2.282 . S
Mn37 O61 2.215 . S
Mn37 O63 2.117 . S
C38 O60 1.234 1_554 S
C38 O61 1.283 . S
C39 O51 1.281 . S
C39 O52 1.236 . S
C40 O62 1.240 . S
C40 O63 1.264 . S
O41 Mn36 2.095 . S
O41 C50 1.250 . S
O42 Mn37 2.121 . S
O42 C50 1.258 . S
C43 N44 1.326 . S
C43 C47 1.460 . S
C43 H49 0.929 . S
N44 Mn37 2.257 . S
N44 C43 1.326 . S
N44 C48 1.362 . S
C45 C46 1.258 . S
C45 C48 1.431 . S
C45 C65 1.449 . S
C46 C45 1.258 . S
C46 C47 1.477 . S
C46 H66 0.931 . S
C47 C43 1.460 . S
C47 C46 1.477 . S
C47 H67 0.930 . S
C48 N44 1.362 . S
C48 C45 1.431 . S
C48 C58 1.476 . S
H49 C43 0.929 . S
C50 O41 1.250 . S
C50 O42 1.258 . S
O51 Mn36 2.162 . S
O51 C39 1.281 . S
O52 Mn36 2.297 . S
O52 C39 1.236 . S
N53 Mn37 2.282 . S
N53 C54 1.328 . S
N53 C58 1.318 . S
C54 N53 1.328 . S
C54 C55 1.457 . S
C54 H59 0.929 . S
C55 C54 1.457 . S
C55 C56 1.291 . S
C55 H68 0.931 1_554 S
C56 C55 1.291 . S
C56 C57 1.373 . S
C56 H69 0.929 . S
C57 C56 1.373 . S
C57 C58 1.396 . S
C57 C64 1.403 . S
C58 C48 1.476 . S
C58 N53 1.318 . S
C58 C57 1.396 . S
H59 C54 0.929 . S
O60 Mn36 2.385 1_556 S
O60 C38 1.234 1_556 S
O61 Mn36 2.209 . S
O61 Mn37 2.215 . S
O61 C38 1.283 . S
O62 Mn36 2.094 . S
O62 C40 1.240 . S
O63 Mn37 2.117 . S
O63 C40 1.264 . S
C64 C57 1.403 . S
C64 C65 1.399 . S
C64 H70 0.929 . S
C65 C45 1.449 . S
C65 C64 1.399 . S
C65 H71 0.930 . S
H66 C46 0.931 . S
H67 C47 0.930 . S
H68 C55 0.931 1_556 S
H69 C56 0.929 . S
H70 C64 0.929 . S
H71 C65 0.930 . S
Mn72 O77 2.095 . S
Mn72 O87 2.162 . S
Mn72 O88 2.297 . S
Mn72 O96 2.385 . S
Mn72 O97 2.209 . S
Mn72 O98 2.094 . S
Mn73 O78 2.121 . S
Mn73 N80 2.257 . S
Mn73 N89 2.282 . S
Mn73 O97 2.215 . S
Mn73 O99 2.117 . S
C74 O96 1.234 . S
C74 O97 1.283 . S
C75 O87 1.281 . S
C75 O88 1.236 . S
C76 O98 1.240 . S
C76 O99 1.264 . S
O77 Mn72 2.095 . S
O77 C86 1.250 . S
O78 Mn73 2.121 . S
O78 C86 1.258 . S
C79 N80 1.326 . S
C79 C83 1.460 . S
C79 H85 0.929 . S
N80 Mn73 2.257 . S
N80 C79 1.326 . S
N80 C84 1.362 . S
C81 C82 1.258 . S
C81 C84 1.431 . S
C81 C101 1.449 . S
C82 C81 1.258 . S
C82 C83 1.477 . S
C82 H102 0.931 . S
C83 C79 1.460 . S
C83 C82 1.477 . S
C83 H103 0.930 . S
C84 N80 1.362 . S
C84 C81 1.431 . S
C84 C94 1.476 . S
H85 C79 0.929 . S
C86 O77 1.250 . S
C86 O78 1.258 . S
O87 Mn72 2.162 . S
O87 C75 1.281 . S
O88 Mn72 2.297 . S
O88 C75 1.236 . S
N89 Mn73 2.282 . S
N89 C90 1.328 . S
N89 C94 1.318 . S
C90 N89 1.328 . S
C90 C91 1.457 . S
C90 H95 0.929 . S
C91 C90 1.457 . S
C91 C92 1.291 . S
C91 H104 0.931 . S
C92 C91 1.291 . S
C92 C93 1.373 . S
C92 H105 0.929 . S
C93 C92 1.373 . S
C93 C94 1.396 . S
C93 C100 1.403 . S
C94 C84 1.476 . S
C94 N89 1.318 . S
C94 C93 1.396 . S
H95 C90 0.929 . S
O96 Mn72 2.385 . S
O96 C74 1.234 . S
O97 Mn72 2.209 . S
O97 Mn73 2.215 . S
O97 C74 1.283 . S
O98 Mn72 2.094 . S
O98 C76 1.240 . S
O99 Mn73 2.117 . S
O99 C76 1.264 . S
C100 C93 1.403 . S
C100 C101 1.399 . S
C100 H106 0.929 . S
C101 C81 1.449 . S
C101 C100 1.399 . S
C101 H107 0.930 . S
H102 C82 0.931 . S
H103 C83 0.930 . S
H104 C91 0.931 . S
H105 C92 0.929 . S
H106 C100 0.929 . S
H107 C101 0.930 . S
Mn108 O113 2.095 . S
Mn108 O123 2.162 . S
Mn108 O124 2.297 . S
Mn108 O132 2.385 . S
Mn108 O133 2.209 . S
Mn108 O134 2.094 . S
Mn109 O114 2.121 . S
Mn109 N116 2.257 . S
Mn109 N125 2.282 . S
Mn109 O133 2.215 . S
Mn109 O135 2.117 . S
C110 O132 1.234 . S
C110 O133 1.283 . S
C111 O123 1.281 . S
C111 O124 1.236 . S
C112 O134 1.240 . S
C112 O135 1.264 . S
O113 Mn108 2.095 . S
O113 C122 1.250 . S
O114 Mn109 2.121 . S
O114 C122 1.258 . S
C115 N116 1.326 . S
C115 C119 1.460 . S
C115 H121 0.929 . S
N116 Mn109 2.257 . S
N116 C115 1.326 . S
N116 C120 1.362 . S
C117 C118 1.258 . S
C117 C120 1.431 . S
C117 C137 1.449 . S
C118 C117 1.258 . S
C118 C119 1.477 . S
C118 H138 0.931 . S
C119 C115 1.460 . S
C119 C118 1.477 . S
C119 H139 0.930 . S
C120 N116 1.362 . S
C120 C117 1.431 . S
C120 C130 1.476 . S
H121 C115 0.929 . S
C122 O113 1.250 . S
C122 O114 1.258 . S
O123 Mn108 2.162 . S
O123 C111 1.281 . S
O124 Mn108 2.297 . S
O124 C111 1.236 . S
N125 Mn109 2.282 . S
N125 C126 1.328 . S
N125 C130 1.318 . S
C126 N125 1.328 . S
C126 C127 1.457 . S
C126 H131 0.929 . S
C127 C126 1.457 . S
C127 C128 1.291 . S
C127 H140 0.931 . S
C128 C127 1.291 . S
C128 C129 1.373 . S
C128 H141 0.929 . S
C129 C128 1.373 . S
C129 C130 1.396 . S
C129 C136 1.403 . S
C130 C120 1.476 . S
C130 N125 1.318 . S
C130 C129 1.396 . S
H131 C126 0.929 . S
O132 Mn108 2.385 . S
O132 C110 1.234 . S
O133 Mn108 2.209 . S
O133 Mn109 2.215 . S
O133 C110 1.283 . S
O134 Mn108 2.094 . S
O134 C112 1.240 . S
O135 Mn109 2.117 . S
O135 C112 1.264 . S
C136 C129 1.403 . S
C136 C137 1.399 . S
C136 H142 0.929 . S
C137 C117 1.449 . S
C137 C136 1.399 . S
C137 H143 0.930 . S
H138 C118 0.931 . S
H139 C119 0.930 . S
H140 C127 0.931 . S
H141 C128 0.929 . S
H142 C136 0.929 . S
H143 C137 0.930 . S
Mn144 O149 2.095 . S
Mn144 O159 2.162 . S
Mn144 O160 2.297 . S
Mn144 O168 2.385 1_556 S
Mn144 O169 2.209 . S
Mn144 O170 2.094 . S
Mn145 O150 2.121 . S
Mn145 N152 2.257 . S
Mn145 N161 2.282 . S
Mn145 O169 2.215 . S
Mn145 O171 2.117 . S
C146 O168 1.234 1_556 S
C146 O169 1.283 . S
C147 O159 1.281 . S
C147 O160 1.236 . S
C148 O170 1.240 . S
C148 O171 1.264 . S
O149 Mn144 2.095 . S
O149 C158 1.250 . S
O150 Mn145 2.121 . S
O150 C158 1.258 . S
C151 N152 1.326 . S
C151 C155 1.460 . S
C151 H157 0.929 . S
N152 Mn145 2.257 . S
N152 C151 1.326 . S
N152 C156 1.362 . S
C153 C154 1.258 . S
C153 C156 1.431 . S
C153 C173 1.449 . S
C154 C153 1.258 . S
C154 C155 1.477 . S
C154 H174 0.931 . S
C155 C151 1.460 . S
C155 C154 1.477 . S
C155 H175 0.930 . S
C156 N152 1.362 . S
C156 C153 1.431 . S
C156 C166 1.476 . S
H157 C151 0.929 . S
C158 O149 1.250 . S
C158 O150 1.258 . S
O159 Mn144 2.162 . S
O159 C147 1.281 . S
O160 Mn144 2.297 . S
O160 C147 1.236 . S
N161 Mn145 2.282 . S
N161 C162 1.328 . S
N161 C166 1.318 . S
C162 N161 1.328 . S
C162 C163 1.457 . S
C162 H167 0.929 . S
C163 C162 1.457 . S
C163 C164 1.291 . S
C163 H176 0.931 1_556 S
C164 C163 1.291 . S
C164 C165 1.373 . S
C164 H177 0.929 . S
C165 C164 1.373 . S
C165 C166 1.396 . S
C165 C172 1.403 . S
C166 C156 1.476 . S
C166 N161 1.318 . S
C166 C165 1.396 . S
H167 C162 0.929 . S
O168 Mn144 2.385 1_554 S
O168 C146 1.234 1_554 S
O169 Mn144 2.209 . S
O169 Mn145 2.215 . S
O169 C146 1.283 . S
O170 Mn144 2.094 . S
O170 C148 1.240 . S
O171 Mn145 2.117 . S
O171 C148 1.264 . S
C172 C165 1.403 . S
C172 C173 1.399 . S
C172 H178 0.929 . S
C173 C153 1.449 . S
C173 C172 1.399 . S
C173 H179 0.930 . S
H174 C154 0.931 . S
H175 C155 0.930 . S
H176 C163 0.931 1_554 S
H177 C164 0.929 . S
H178 C172 0.929 . S
H179 C173 0.930 . S
Mn180 O185 2.095 . S
Mn180 O195 2.162 . S
Mn180 O196 2.297 . S
Mn180 O204 2.385 1_556 S
Mn180 O205 2.209 . S
Mn180 O206 2.094 . S
Mn181 O186 2.121 . S
Mn181 N188 2.257 . S
Mn181 N197 2.282 . S
Mn181 O205 2.215 . S
Mn181 O207 2.117 . S
C182 O204 1.234 1_556 S
C182 O205 1.283 . S
C183 O195 1.281 . S
C183 O196 1.236 . S
C184 O206 1.240 . S
C184 O207 1.264 . S
O185 Mn180 2.095 . S
O185 C194 1.250 . S
O186 Mn181 2.121 . S
O186 C194 1.258 . S
C187 N188 1.326 . S
C187 C191 1.460 . S
C187 H193 0.929 . S
N188 Mn181 2.257 . S
N188 C187 1.326 . S
N188 C192 1.362 . S
C189 C190 1.258 . S
C189 C192 1.431 . S
C189 C209 1.449 . S
C190 C189 1.258 . S
C190 C191 1.477 . S
C190 H210 0.931 . S
C191 C187 1.460 . S
C191 C190 1.477 . S
C191 H211 0.930 . S
C192 N188 1.362 . S
C192 C189 1.431 . S
C192 C202 1.476 . S
H193 C187 0.929 . S
C194 O185 1.250 . S
C194 O186 1.258 . S
O195 Mn180 2.162 . S
O195 C183 1.281 . S
O196 Mn180 2.297 . S
O196 C183 1.236 . S
N197 Mn181 2.282 . S
N197 C198 1.328 . S
N197 C202 1.318 . S
C198 N197 1.328 . S
C198 C199 1.457 . S
C198 H203 0.929 . S
C199 C198 1.457 . S
C199 C200 1.291 . S
C199 H212 0.931 1_556 S
C200 C199 1.291 . S
C200 C201 1.373 . S
C200 H213 0.929 . S
C201 C200 1.373 . S
C201 C202 1.396 . S
C201 C208 1.403 . S
C202 C192 1.476 . S
C202 N197 1.318 . S
C202 C201 1.396 . S
H203 C198 0.929 . S
O204 Mn180 2.385 1_554 S
O204 C182 1.234 1_554 S
O205 Mn180 2.209 . S
O205 Mn181 2.215 . S
O205 C182 1.283 . S
O206 Mn180 2.094 . S
O206 C184 1.240 . S
O207 Mn181 2.117 . S
O207 C184 1.264 . S
C208 C201 1.403 . S
C208 C209 1.399 . S
C208 H214 0.929 . S
C209 C189 1.449 . S
C209 C208 1.399 . S
C209 H215 0.930 . S
H210 C190 0.931 . S
H211 C191 0.930 . S
H212 C199 0.931 1_554 S
H213 C200 0.929 . S
H214 C208 0.929 . S
H215 C209 0.930 . S
Mn216 O221 2.095 . S
Mn216 O231 2.162 . S
Mn216 O232 2.297 . S
Mn216 O240 2.385 . S
Mn216 O241 2.209 . S
Mn216 O242 2.094 . S
Mn217 O222 2.121 . S
Mn217 N224 2.257 . S
Mn217 N233 2.282 . S
Mn217 O241 2.215 . S
Mn217 O243 2.117 . S
C218 O240 1.234 . S
C218 O241 1.283 . S
C219 O231 1.281 . S
C219 O232 1.236 . S
C220 O242 1.240 . S
C220 O243 1.264 . S
O221 Mn216 2.095 . S
O221 C230 1.250 . S
O222 Mn217 2.121 . S
O222 C230 1.258 . S
C223 N224 1.326 . S
C223 C227 1.460 . S
C223 H229 0.929 . S
N224 Mn217 2.257 . S
N224 C223 1.326 . S
N224 C228 1.362 . S
C225 C226 1.258 . S
C225 C228 1.431 . S
C225 C245 1.449 . S
C226 C225 1.258 . S
C226 C227 1.477 . S
C226 H246 0.931 . S
C227 C223 1.460 . S
C227 C226 1.477 . S
C227 H247 0.930 . S
C228 N224 1.362 . S
C228 C225 1.431 . S
C228 C238 1.476 . S
H229 C223 0.929 . S
C230 O221 1.250 . S
C230 O222 1.258 . S
O231 Mn216 2.162 . S
O231 C219 1.281 . S
O232 Mn216 2.297 . S
O232 C219 1.236 . S
N233 Mn217 2.282 . S
N233 C234 1.328 . S
N233 C238 1.318 . S
C234 N233 1.328 . S
C234 C235 1.457 . S
C234 H239 0.929 . S
C235 C234 1.457 . S
C235 C236 1.291 . S
C235 H248 0.931 . S
C236 C235 1.291 . S
C236 C237 1.373 . S
C236 H249 0.929 . S
C237 C236 1.373 . S
C237 C238 1.396 . S
C237 C244 1.403 . S
C238 C228 1.476 . S
C238 N233 1.318 . S
C238 C237 1.396 . S
H239 C234 0.929 . S
O240 Mn216 2.385 . S
O240 C218 1.234 . S
O241 Mn216 2.209 . S
O241 Mn217 2.215 . S
O241 C218 1.283 . S
O242 Mn216 2.094 . S
O242 C220 1.240 . S
O243 Mn217 2.117 . S
O243 C220 1.264 . S
C244 C237 1.403 . S
C244 C245 1.399 . S
C244 H250 0.929 . S
C245 C225 1.449 . S
C245 C244 1.399 . S
C245 H251 0.930 . S
H246 C226 0.931 . S
H247 C227 0.930 . S
H248 C235 0.931 . S
H249 C236 0.929 . S
H250 C244 0.929 . S
H251 C245 0.930 . S
Mn252 O257 2.095 . S
Mn252 O267 2.162 . S
Mn252 O268 2.297 . S
Mn252 O276 2.385 . S
Mn252 O277 2.209 . S
Mn252 O278 2.094 . S
Mn253 O258 2.121 . S
Mn253 N260 2.257 . S
Mn253 N269 2.282 . S
Mn253 O277 2.215 . S
Mn253 O279 2.117 . S
C254 O276 1.234 . S
C254 O277 1.283 . S
C255 O267 1.281 . S
C255 O268 1.236 . S
C256 O278 1.240 . S
C256 O279 1.264 . S
O257 Mn252 2.095 . S
O257 C266 1.250 . S
O258 Mn253 2.121 . S
O258 C266 1.258 . S
C259 N260 1.326 . S
C259 C263 1.460 . S
C259 H265 0.929 . S
N260 Mn253 2.257 . S
N260 C259 1.326 . S
N260 C264 1.362 . S
C261 C262 1.258 . S
C261 C264 1.431 . S
C261 C281 1.449 . S
C262 C261 1.258 . S
C262 C263 1.477 . S
C262 H282 0.931 . S
C263 C259 1.460 . S
C263 C262 1.477 . S
C263 H283 0.930 . S
C264 N260 1.362 . S
C264 C261 1.431 . S
C264 C274 1.476 . S
H265 C259 0.929 . S
C266 O257 1.250 . S
C266 O258 1.258 . S
O267 Mn252 2.162 . S
O267 C255 1.281 . S
O268 Mn252 2.297 . S
O268 C255 1.236 . S
N269 Mn253 2.282 . S
N269 C270 1.328 . S
N269 C274 1.318 . S
C270 N269 1.328 . S
C270 C271 1.457 . S
C270 H275 0.929 . S
C271 C270 1.457 . S
C271 C272 1.291 . S
C271 H284 0.931 . S
C272 C271 1.291 . S
C272 C273 1.373 . S
C272 H285 0.929 . S
C273 C272 1.373 . S
C273 C274 1.396 . S
C273 C280 1.403 . S
C274 C264 1.476 . S
C274 N269 1.318 . S
C274 C273 1.396 . S
H275 C270 0.929 . S
O276 Mn252 2.385 . S
O276 C254 1.234 . S
O277 Mn252 2.209 . S
O277 Mn253 2.215 . S
O277 C254 1.283 . S
O278 Mn252 2.094 . S
O278 C256 1.240 . S
O279 Mn253 2.117 . S
O279 C256 1.264 . S
C280 C273 1.403 . S
C280 C281 1.399 . S
C280 H286 0.929 . S
C281 C261 1.449 . S
C281 C280 1.399 . S
C281 H287 0.930 . S
H282 C262 0.931 . S
H283 C263 0.930 . S
H284 C271 0.931 . S
H285 C272 0.929 . S
H286 C280 0.929 . S
H287 C281 0.930 . S
H288 C300 0.930 . S
H289 C302 0.930 . S
H290 C303 0.930 . S
H291 C307 0.959 . S
H292 C307 0.959 . S
H293 C307 0.961 . S
H294 C308 0.960 . S
H295 C308 0.961 . S
H296 C308 0.959 . S
H297 C311 0.929 . S
H298 C312 0.931 . S
H299 C314 0.930 . S
C300 H288 0.930 . S
C300 C301 1.399 . S
C300 C305 1.399 . S
C301 C300 1.399 . S
C301 C302 1.376 1_554 S
C302 H289 0.930 . S
C302 C301 1.376 1_556 S
C302 C303 1.388 . S
C303 H290 0.930 . S
C303 C302 1.388 . S
C303 C304 1.390 1_556 S
C304 C303 1.390 1_554 S
C304 C305 1.394 . S
C304 C310 1.465 1_545 S
C305 C300 1.399 . S
C305 C304 1.394 . S
C305 C306 1.515 1_545 S
C306 C305 1.515 1_565 S
C306 C307 1.503 . S
C306 C308 1.560 1_565 S
C306 C309 1.526 . S
C307 H291 0.959 . S
C307 H292 0.959 . S
C307 H293 0.961 . S
C307 C306 1.503 . S
C308 H294 0.960 . S
C308 H295 0.961 . S
C308 H296 0.959 . S
C308 C306 1.560 1_545 S
C309 C306 1.526 . S
C309 C310 1.396 . S
C309 C314 1.390 . S
C310 C304 1.465 1_565 S
C310 C309 1.396 . S
C310 C311 1.399 1_554 S
C311 H297 0.929 . S
C311 C310 1.399 1_556 S
C311 C312 1.385 . S
C312 H298 0.931 . S
C312 C311 1.385 . S
C312 C313 1.389 1_556 S
C313 C312 1.389 1_554 S
C313 C314 1.387 . S
C314 H299 0.930 . S
C314 C309 1.390 . S
C314 C313 1.387 . S
H315 C327 0.930 . S
H316 C329 0.930 . S
H317 C330 0.930 . S
H318 C334 0.959 . S
H319 C334 0.959 . S
H320 C334 0.961 . S
H321 C335 0.960 . S
H322 C335 0.961 . S
H323 C335 0.959 . S
H324 C338 0.929 . S
H325 C339 0.931 . S
H326 C341 0.930 . S
C327 H315 0.930 . S
C327 C328 1.399 . S
C327 C332 1.399 . S
C328 C327 1.399 . S
C328 C329 1.376 . S
C329 H316 0.930 . S
C329 C328 1.376 . S
C329 C330 1.388 . S
C330 H317 0.930 . S
C330 C329 1.388 . S
C330 C331 1.390 . S
C331 C330 1.390 . S
C331 C332 1.394 . S
C331 C337 1.465 . S
C332 C327 1.399 . S
C332 C331 1.394 . S
C332 C333 1.516 . S
C333 C332 1.516 . S
C333 C334 1.502 . S
C333 C335 1.561 . S
C333 C336 1.526 . S
C334 H318 0.959 . S
C334 H319 0.959 . S
C334 H320 0.961 . S
C334 C333 1.502 . S
C335 H321 0.960 . S
C335 H322 0.961 . S
C335 H323 0.959 . S
C335 C333 1.561 . S
C336 C333 1.526 . S
C336 C337 1.396 . S
C336 C341 1.390 . S
C337 C331 1.465 . S
C337 C336 1.396 . S
C337 C338 1.399 . S
C338 H324 0.929 . S
C338 C337 1.399 . S
C338 C339 1.385 . S
C339 H325 0.931 . S
C339 C338 1.385 . S
C339 C340 1.389 . S
C340 C339 1.389 . S
C340 C341 1.387 . S
C341 H326 0.930 . S
C341 C336 1.390 . S
C341 C340 1.387 . S
H342 C354 0.930 . S
H343 C356 0.930 . S
H344 C357 0.930 . S
H345 C361 0.959 . S
H346 C361 0.959 . S
H347 C361 0.961 . S
H348 C362 0.960 . S
H349 C362 0.961 . S
H350 C362 0.959 . S
H351 C365 0.929 . S
H352 C366 0.931 . S
H353 C368 0.930 . S
C354 H342 0.930 . S
C354 C355 1.399 . S
C354 C359 1.399 . S
C355 C354 1.399 . S
C355 C356 1.376 . S
C356 H343 0.930 . S
C356 C355 1.376 . S
C356 C357 1.388 . S
C357 H344 0.930 . S
C357 C356 1.388 . S
C357 C358 1.390 . S
C358 C357 1.390 . S
C358 C359 1.394 . S
C358 C364 1.478 . S
C359 C354 1.399 . S
C359 C358 1.394 . S
C359 C360 1.516 1_565 S
C360 C359 1.516 1_545 S
C360 C361 1.502 . S
C360 C362 1.561 1_556 S
C360 C363 1.526 . S
C361 H345 0.959 . S
C361 H346 0.959 . S
C361 H347 0.961 . S
C361 C360 1.502 . S
C362 H348 0.960 . S
C362 H349 0.961 . S
C362 H350 0.959 . S
C362 C360 1.561 1_554 S
C363 C360 1.526 . S
C363 C364 1.379 1_545 S
C363 C368 1.390 . S
C364 C358 1.478 . S
C364 C363 1.379 1_565 S
C364 C365 1.401 . S
C365 H351 0.929 . S
C365 C364 1.401 . S
C365 C366 1.385 1_565 S
C366 H352 0.931 . S
C366 C365 1.385 1_545 S
C366 C367 1.389 . S
C367 C366 1.389 . S
C367 C368 1.387 . S
C368 H353 0.930 . S
C368 C363 1.390 . S
C368 C367 1.387 . S
H369 C381 0.930 . S
H370 C383 0.930 . S
H371 C384 0.930 . S
H372 C388 0.959 . S
H373 C388 0.959 . S
H374 C388 0.961 . S
H375 C389 0.960 . S
H376 C389 0.961 . S
H377 C389 0.959 . S
H378 C392 0.929 . S
H379 C393 0.931 . S
H380 C395 0.930 . S
C381 H369 0.930 . S
C381 C382 1.399 . S
C381 C386 1.399 . S
C382 C381 1.399 . S
C382 C383 1.376 . S
C383 H370 0.930 . S
C383 C382 1.376 . S
C383 C384 1.388 . S
C384 H371 0.930 . S
C384 C383 1.388 . S
C384 C385 1.390 . S
C385 C384 1.390 . S
C385 C386 1.394 . S
C385 C391 1.465 . S
C386 C381 1.399 . S
C386 C385 1.394 . S
C386 C387 1.516 . S
C387 C386 1.516 . S
C387 C388 1.502 . S
C387 C389 1.561 . S
C387 C390 1.526 . S
C388 H372 0.959 . S
C388 H373 0.959 . S
C388 H374 0.961 . S
C388 C387 1.502 . S
C389 H375 0.960 . S
C389 H376 0.961 . S
C389 H377 0.959 . S
C389 C387 1.561 . S
C390 C387 1.526 . S
C390 C391 1.396 . S
C390 C395 1.390 . S
C391 C385 1.465 . S
C391 C390 1.396 . S
C391 C392 1.399 . S
C392 H378 0.929 . S
C392 C391 1.399 . S
C392 C393 1.385 . S
C393 H379 0.931 . S
C393 C392 1.385 . S
C393 C394 1.389 . S
C394 C393 1.389 . S
C394 C395 1.387 . S
C395 H380 0.930 . S
C395 C390 1.390 . S
C395 C394 1.387 . S
H396 C408 0.930 . S
H397 C410 0.930 . S
H398 C411 0.930 . S
H399 C415 0.959 . S
H400 C415 0.959 . S
H401 C415 0.961 . S
H402 C416 0.960 . S
H403 C416 0.961 . S
H404 C416 0.959 . S
H405 C419 0.929 . S
H406 C420 0.931 . S
H407 C422 0.930 . S
C408 H396 0.930 . S
C408 C409 1.399 . S
C408 C413 1.399 . S
C409 C408 1.399 . S
C409 C410 1.376 . S
C410 H397 0.930 . S
C410 C409 1.376 . S
C410 C411 1.388 . S
C411 H398 0.930 . S
C411 C410 1.388 . S
C411 C412 1.390 . S
C412 C411 1.390 . S
C412 C413 1.394 . S
C412 C418 1.465 . S
C413 C408 1.399 . S
C413 C412 1.394 . S
C413 C414 1.516 . S
C414 C413 1.516 . S
C414 C415 1.502 . S
C414 C416 1.561 . S
C414 C417 1.526 . S
C415 H399 0.959 . S
C415 H400 0.959 . S
C415 H401 0.961 . S
C415 C414 1.502 . S
C416 H402 0.960 . S
C416 H403 0.961 . S
C416 H404 0.959 . S
C416 C414 1.561 . S
C417 C414 1.526 . S
C417 C418 1.396 . S
C417 C422 1.390 . S
C418 C412 1.465 . S
C418 C417 1.396 . S
C418 C419 1.399 . S
C419 H405 0.929 . S
C419 C418 1.399 . S
C419 C420 1.385 . S
C420 H406 0.931 . S
C420 C419 1.385 . S
C420 C421 1.389 . S
C421 C420 1.389 . S
C421 C422 1.387 . S
C422 H407 0.930 . S
C422 C417 1.390 . S
C422 C421 1.387 . S
H423 C435 0.930 . S
H424 C437 0.930 . S
H425 C438 0.930 . S
H426 C442 0.959 . S
H427 C442 0.959 . S
H428 C442 0.961 . S
H429 C443 0.960 . S
H430 C443 0.961 . S
H431 C443 0.959 . S
H432 C446 0.929 . S
H433 C447 0.931 . S
H434 C449 0.930 . S
C435 H423 0.930 . S
C435 C436 1.399 . S
C435 C440 1.399 . S
C436 C435 1.399 . S
C436 C437 1.376 . S
C437 H424 0.930 . S
C437 C436 1.376 . S
C437 C438 1.388 . S
C438 H425 0.930 . S
C438 C437 1.388 . S
C438 C439 1.390 . S
C439 C438 1.390 . S
C439 C440 1.394 . S
C439 C445 1.465 . S
C440 C435 1.399 . S
C440 C439 1.394 . S
C440 C441 1.516 . S
C441 C440 1.516 . S
C441 C442 1.502 . S
C441 C443 1.561 . S
C441 C444 1.526 . S
C442 H426 0.959 . S
C442 H427 0.959 . S
C442 H428 0.961 . S
C442 C441 1.502 . S
C443 H429 0.960 . S
C443 H430 0.961 . S
C443 H431 0.959 . S
C443 C441 1.561 . S
C444 C441 1.526 . S
C444 C445 1.396 . S
C444 C449 1.390 . S
C445 C439 1.465 . S
C445 C444 1.396 . S
C445 C446 1.399 . S
C446 H432 0.929 . S
C446 C445 1.399 . S
C446 C447 1.385 . S
C447 H433 0.931 . S
C447 C446 1.385 . S
C447 C448 1.389 . S
C448 C447 1.389 . S
C448 C449 1.387 . S
C449 H434 0.930 . S
C449 C444 1.390 . S
C449 C448 1.387 . S
H450 C462 0.930 . S
H451 C464 0.930 . S
H452 C465 0.930 . S
H453 C469 0.959 . S
H454 C469 0.959 . S
H455 C469 0.961 . S
H456 C470 0.960 . S
H457 C470 0.961 . S
H458 C470 0.959 . S
H459 C473 0.929 . S
H460 C474 0.931 . S
H461 C476 0.930 . S
C462 H450 0.930 . S
C462 C463 1.399 . S
C462 C467 1.399 . S
C463 C462 1.399 . S
C463 C464 1.376 . S
C464 H451 0.930 . S
C464 C463 1.376 . S
C464 C465 1.388 . S
C465 H452 0.930 . S
C465 C464 1.388 . S
C465 C466 1.390 . S
C466 C465 1.390 . S
C466 C467 1.394 . S
C466 C472 1.465 . S
C467 C462 1.399 . S
C467 C466 1.394 . S
C467 C468 1.516 . S
C468 C467 1.516 . S
C468 C469 1.502 . S
C468 C470 1.561 . S
C468 C471 1.526 . S
C469 H453 0.959 . S
C469 H454 0.959 . S
C469 H455 0.961 . S
C469 C468 1.502 . S
C470 H456 0.960 . S
C470 H457 0.961 . S
C470 H458 0.959 . S
C470 C468 1.561 . S
C471 C468 1.526 . S
C471 C472 1.396 . S
C471 C476 1.390 . S
C472 C466 1.465 . S
C472 C471 1.396 . S
C472 C473 1.399 . S
C473 H459 0.929 . S
C473 C472 1.399 . S
C473 C474 1.385 . S
C474 H460 0.931 . S
C474 C473 1.385 . S
C474 C475 1.389 . S
C475 C474 1.389 . S
C475 C476 1.387 . S
C476 H461 0.930 . S
C476 C471 1.390 . S
C476 C475 1.387 . S
H477 C489 0.930 . S
H478 C491 0.930 . S
H479 C492 0.930 . S
H480 C496 0.959 . S
H481 C496 0.959 . S
H482 C496 0.961 . S
H483 C497 0.960 . S
H484 C497 0.961 . S
H485 C497 0.959 . S
H486 C500 0.929 . S
H487 C501 0.931 . S
H488 C503 0.930 . S
C489 H477 0.930 . S
C489 C490 1.399 . S
C489 C494 1.399 . S
C490 C489 1.399 . S
C490 C491 1.376 . S
C491 H478 0.930 . S
C491 C490 1.376 . S
C491 C492 1.388 . S
C492 H479 0.930 . S
C492 C491 1.388 . S
C492 C493 1.390 . S
C493 C492 1.390 . S
C493 C494 1.394 . S
C493 C499 1.465 . S
C494 C489 1.399 . S
C494 C493 1.394 . S
C494 C495 1.516 . S
C495 C494 1.516 . S
C495 C496 1.502 . S
C495 C497 1.561 . S
C495 C498 1.526 . S
C496 H480 0.959 . S
C496 H481 0.959 . S
C496 H482 0.961 . S
C496 C495 1.502 . S
C497 H483 0.960 . S
C497 H484 0.961 . S
C497 H485 0.959 . S
C497 C495 1.561 . S
C498 C495 1.526 . S
C498 C499 1.396 . S
C498 C503 1.390 . S
C499 C493 1.465 . S
C499 C498 1.396 . S
C499 C500 1.399 . S
C500 H486 0.929 . S
C500 C499 1.399 . S
C500 C501 1.385 . S
C501 H487 0.931 . S
C501 C500 1.385 . S
C501 C502 1.389 . S
C502 C501 1.389 . S
C502 C503 1.387 . S
C503 H488 0.930 . S
C503 C498 1.390 . S
C503 C502 1.387 . S
H504 C516 0.930 . S
H505 C518 0.930 . S
H506 C519 0.930 . S
H507 C523 0.959 . S
H508 C523 0.959 . S
H509 C523 0.961 . S
H510 C524 0.960 . S
H511 C524 0.961 . S
H512 C524 0.959 . S
H513 C527 0.929 . S
H514 C528 0.931 . S
H515 C530 0.930 . S
C516 H504 0.930 . S
C516 C517 1.399 . S
C516 C521 1.399 . S
C517 C516 1.399 . S
C517 C518 1.376 1_554 S
C518 H505 0.930 . S
C518 C517 1.376 1_556 S
C518 C519 1.388 . S
C519 H506 0.930 . S
C519 C518 1.388 . S
C519 C520 1.390 . S
C520 C519 1.390 . S
C520 C521 1.394 1_556 S
C520 C526 1.465 . S
C521 C516 1.399 . S
C521 C520 1.394 1_554 S
C521 C522 1.516 . S
C522 C521 1.516 . S
C522 C523 1.502 . S
C522 C524 1.561 . S
C522 C525 1.526 . S
C523 H507 0.959 . S
C523 H508 0.959 . S
C523 H509 0.961 . S
C523 C522 1.502 . S
C524 H510 0.960 . S
C524 H511 0.961 . S
C524 H512 0.959 . S
C524 C522 1.561 . S
C525 C522 1.526 . S
C525 C526 1.396 1_554 S
C525 C530 1.390 . S
C526 C520 1.465 . S
C526 C525 1.396 1_556 S
C526 C527 1.399 . S
C527 H513 0.929 . S
C527 C526 1.399 . S
C527 C528 1.385 . S
C528 H514 0.931 . S
C528 C527 1.385 . S
C528 C529 1.389 . S
C529 C528 1.389 . S
C529 C530 1.387 1_556 S
C530 H515 0.930 . S
C530 C525 1.390 . S
C530 C529 1.387 1_554 S
H531 C543 0.930 . S
H532 C545 0.930 . S
H533 C546 0.930 . S
H534 C550 0.959 . S
H535 C550 0.959 . S
H536 C550 0.961 . S
H537 C551 0.960 . S
H538 C551 0.961 . S
H539 C551 0.959 . S
H540 C554 0.929 . S
H541 C555 0.931 . S
H542 C557 0.930 . S
C543 H531 0.930 . S
C543 C544 1.399 . S
C543 C548 1.399 . S
C544 C543 1.399 . S
C544 C545 1.376 1_554 S
C545 H532 0.930 . S
C545 C544 1.376 1_556 S
C545 C546 1.388 . S
C546 H533 0.930 . S
C546 C545 1.388 . S
C546 C547 1.390 . S
C547 C546 1.390 . S
C547 C548 1.394 1_556 S
C547 C553 1.465 1_455 S
C548 C543 1.399 . S
C548 C547 1.394 1_554 S
C548 C549 1.516 . S
C549 C548 1.516 . S
C549 C550 1.502 . S
C549 C551 1.561 1_455 S
C549 C552 1.526 1_455 S
C550 H534 0.959 . S
C550 H535 0.959 . S
C550 H536 0.961 . S
C550 C549 1.502 . S
C551 H537 0.960 . S
C551 H538 0.961 . S
C551 H539 0.959 . S
C551 C549 1.561 1_655 S
C552 C549 1.526 1_655 S
C552 C553 1.396 1_554 S
C552 C557 1.390 . S
C553 C547 1.465 1_655 S
C553 C552 1.396 1_556 S
C553 C554 1.399 . S
C554 H540 0.929 . S
C554 C553 1.399 . S
C554 C555 1.385 . S
C555 H541 0.931 . S
C555 C554 1.385 . S
C555 C556 1.389 . S
C556 C555 1.389 . S
C556 C557 1.387 1_556 S
C557 H542 0.930 . S
C557 C552 1.390 . S
C557 C556 1.387 1_554 S
H558 C570 0.930 . S
H559 C572 0.930 . S
H560 C573 0.930 . S
H561 C577 0.959 . S
H562 C577 0.959 1_545 S
H563 C577 0.961 . S
H564 C578 0.960 . S
H565 C578 0.961 . S
H566 C578 0.959 . S
H567 C581 0.929 . S
H568 C582 0.931 . S
H569 C584 0.930 . S
C570 H558 0.930 . S
C570 C571 1.399 . S
C570 C575 1.399 . S
C571 C570 1.399 . S
C571 C572 1.376 . S
C572 H559 0.930 . S
C572 C571 1.376 . S
C572 C573 1.388 . S
C573 H560 0.930 . S
C573 C572 1.388 . S
C573 C574 1.390 . S
C574 C573 1.390 . S
C574 C575 1.394 . S
C574 C580 1.465 1_565 S
C575 C570 1.399 . S
C575 C574 1.394 . S
C575 C576 1.516 1_565 S
C576 C575 1.516 1_545 S
C576 C577 1.502 1_545 S
C576 C578 1.561 . S
C576 C579 1.526 . S
C577 H561 0.959 . S
C577 H562 0.959 1_565 S
C577 H563 0.961 . S
C577 C576 1.502 1_565 S
C578 H564 0.960 . S
C578 H565 0.961 . S
C578 H566 0.959 . S
C578 C576 1.561 . S
C579 C576 1.526 . S
C579 C580 1.396 . S
C579 C584 1.390 . S
C580 C574 1.465 1_545 S
C580 C579 1.396 . S
C580 C581 1.399 . S
C581 H567 0.929 . S
C581 C580 1.399 . S
C581 C582 1.385 . S
C582 H568 0.931 . S
C582 C581 1.385 . S
C582 C583 1.389 . S
C583 C582 1.389 . S
C583 C584 1.387 . S
C584 H569 0.930 . S
C584 C579 1.390 . S
C584 C583 1.387 . S
H585 C597 0.930 . S
H586 C599 0.930 . S
H587 C600 0.930 . S
H588 C604 0.959 . S
H589 C604 0.959 1_565 S
H590 C604 0.961 . S
H591 C605 0.960 . S
H592 C605 0.961 . S
H593 C605 0.959 . S
H594 C608 0.929 . S
H595 C609 0.931 . S
H596 C611 0.930 . S
C597 H585 0.930 . S
C597 C598 1.399 . S
C597 C602 1.399 . S
C598 C597 1.399 . S
C598 C599 1.376 . S
C599 H586 0.930 . S
C599 C598 1.376 . S
C599 C600 1.388 . S
C600 H587 0.930 . S
C600 C599 1.388 . S
C600 C601 1.390 . S
C601 C600 1.390 . S
C601 C602 1.394 . S
C601 C607 1.465 1_645 S
C602 C597 1.399 . S
C602 C601 1.394 . S
C602 C603 1.530 1_545 S
C603 C602 1.530 1_565 S
C603 C604 1.484 1_665 S
C603 C605 1.580 . S
C603 C606 1.513 1_655 S
C604 H588 0.959 . S
C604 H589 0.959 1_545 S
C604 H590 0.961 . S
C604 C603 1.484 1_445 S
C605 H591 0.960 . S
C605 H592 0.961 . S
C605 H593 0.959 . S
C605 C603 1.580 . S
C606 C603 1.513 1_455 S
C606 C607 1.396 . S
C606 C611 1.390 . S
C607 C601 1.465 1_465 S
C607 C606 1.396 . S
C607 C608 1.399 . S
C608 H594 0.929 . S
C608 C607 1.399 . S
C608 C609 1.385 . S
C609 H595 0.931 . S
C609 C608 1.385 . S
C609 C610 1.389 . S
C610 C609 1.389 . S
C610 C611 1.387 . S
C611 H596 0.930 . S
C611 C606 1.390 . S
C611 C610 1.387 . S
H612 C624 0.930 . S
H613 C626 0.930 . S
H614 C627 0.930 . S
H615 C631 0.959 . S
H616 C631 0.959 . S
H617 C631 0.961 . S
H618 C632 0.960 . S
H619 C632 0.961 . S
H620 C632 0.959 . S
H621 C635 0.929 . S
H622 C636 0.931 . S
H623 C638 0.930 . S
C624 H612 0.930 . S
C624 C625 1.399 . S
C624 C629 1.399 . S
C625 C624 1.399 . S
C625 C626 1.376 1_554 S
C626 H613 0.930 . S
C626 C625 1.376 1_556 S
C626 C627 1.388 . S
C627 H614 0.930 . S
C627 C626 1.388 . S
C627 C628 1.390 1_556 S
C628 C627 1.390 1_554 S
C628 C629 1.394 . S
C628 C634 1.465 . S
C629 C624 1.399 . S
C629 C628 1.394 . S
C629 C630 1.516 . S
C630 C629 1.516 . S
C630 C631 1.502 . S
C630 C632 1.561 . S
C630 C633 1.526 . S
C631 H615 0.959 . S
C631 H616 0.959 . S
C631 H617 0.961 . S
C631 C630 1.502 . S
C632 H618 0.960 . S
C632 H619 0.961 . S
C632 H620 0.959 . S
C632 C630 1.561 . S
C633 C630 1.526 . S
C633 C634 1.396 . S
C633 C638 1.390 . S
C634 C628 1.465 . S
C634 C633 1.396 . S
C634 C635 1.399 1_554 S
C635 H621 0.929 . S
C635 C634 1.399 1_556 S
C635 C636 1.385 . S
C636 H622 0.931 . S
C636 C635 1.385 . S
C636 C637 1.389 1_556 S
C637 C636 1.389 1_554 S
C637 C638 1.387 . S
C638 H623 0.930 . S
C638 C633 1.390 . S
C638 C637 1.387 . S
H639 C651 0.930 . S
H640 C653 0.930 . S
H641 C654 0.930 . S
H642 C658 0.959 . S
H643 C658 0.959 1_565 S
H644 C658 0.961 . S
H645 C659 0.960 . S
H646 C659 0.961 . S
H647 C659 0.959 . S
H648 C662 0.929 . S
H649 C663 0.931 . S
H650 C665 0.930 . S
C651 H639 0.930 . S
C651 C652 1.399 . S
C651 C656 1.399 . S
C652 C651 1.399 . S
C652 C653 1.376 . S
C653 H640 0.930 . S
C653 C652 1.376 . S
C653 C654 1.388 . S
C654 H641 0.930 . S
C654 C653 1.388 . S
C654 C655 1.390 . S
C655 C654 1.390 . S
C655 C656 1.394 . S
C655 C661 1.465 1_545 S
C656 C651 1.399 . S
C656 C655 1.394 . S
C656 C657 1.516 1_545 S
C657 C656 1.516 1_565 S
C657 C658 1.502 1_565 S
C657 C659 1.561 . S
C657 C660 1.526 . S
C658 H642 0.959 . S
C658 H643 0.959 1_545 S
C658 H644 0.961 . S
C658 C657 1.502 1_545 S
C659 H645 0.960 . S
C659 H646 0.961 . S
C659 H647 0.959 . S
C659 C657 1.561 . S
C660 C657 1.526 . S
C660 C661 1.396 . S
C660 C665 1.390 . S
C661 C655 1.465 1_565 S
C661 C660 1.396 . S
C661 C662 1.399 . S
C662 H648 0.929 . S
C662 C661 1.399 . S
C662 C663 1.385 . S
C663 H649 0.931 . S
C663 C662 1.385 . S
C663 C664 1.389 . S
C664 C663 1.389 . S
C664 C665 1.387 . S
C665 H650 0.930 . S
C665 C660 1.390 . S
C665 C664 1.387 . S
H666 C678 0.938 . S
H667 C680 0.930 . S
H668 C681 0.930 . S
H669 C685 0.959 . S
H670 C685 0.959 . S
H671 C685 0.961 . S
H672 C686 0.960 . S
H673 C686 0.961 . S
H674 C686 0.959 . S
H675 C689 0.929 . S
H676 C690 0.931 . S
H677 C692 0.927 1_554 S
C678 H666 0.938 . S
C678 C679 1.392 1_554 S
C678 C683 1.397 1_554 S
C679 C678 1.392 1_556 S
C679 C680 1.376 . S
C680 H667 0.930 . S
C680 C679 1.376 . S
C680 C681 1.388 . S
C681 H668 0.930 . S
C681 C680 1.388 . S
C681 C682 1.390 . S
C682 C681 1.390 . S
C682 C683 1.394 . S
C682 C688 1.465 . S
C683 C678 1.397 1_556 S
C683 C682 1.394 . S
C683 C684 1.516 1_556 S
C684 C683 1.516 1_554 S
C684 C685 1.502 . S
C684 C686 1.561 . S
C684 C687 1.526 1_554 S
C685 H669 0.959 . S
C685 H670 0.959 . S
C685 H671 0.961 . S
C685 C684 1.502 . S
C686 H672 0.960 . S
C686 H673 0.961 . S
C686 H674 0.959 . S
C686 C684 1.561 . S
C687 C684 1.526 1_556 S
C687 C688 1.396 . S
C687 C692 1.390 . S
C688 C682 1.465 . S
C688 C687 1.396 . S
C688 C689 1.399 . S
C689 H675 0.929 . S
C689 C688 1.399 . S
C689 C690 1.385 . S
C690 H676 0.931 . S
C690 C689 1.385 . S
C690 C691 1.389 . S
C691 C690 1.389 . S
C691 C692 1.389 . S
C692 H677 0.927 1_556 S
C692 C687 1.390 . S
C692 C691 1.389 . S
H693 C705 0.930 . S
H694 C707 0.930 . S
H695 C708 0.930 . S
H696 C712 0.959 . S
H697 C712 0.959 . S
H698 C712 0.961 . S
H699 C713 0.960 . S
H700 C713 0.961 1_545 S
H701 C713 0.959 . S
H702 C716 0.929 . S
H703 C717 0.931 . S
H704 C719 0.930 . S
C705 H693 0.930 . S
C705 C706 1.399 . S
C705 C710 1.399 . S
C706 C705 1.399 . S
C706 C707 1.376 . S
C707 H694 0.930 . S
C707 C706 1.376 . S
C707 C708 1.388 . S
C708 H695 0.930 . S
C708 C707 1.388 . S
C708 C709 1.390 . S
C709 C708 1.390 . S
C709 C710 1.394 . S
C709 C715 1.465 1_565 S
C710 C705 1.399 . S
C710 C709 1.394 . S
C710 C711 1.516 1_565 S
C711 C710 1.516 1_545 S
C711 C712 1.502 . S
C711 C713 1.561 1_545 S
C711 C714 1.526 . S
C712 H696 0.959 . S
C712 H697 0.959 . S
C712 H698 0.961 . S
C712 C711 1.502 . S
C713 H699 0.960 . S
C713 H700 0.961 1_565 S
C713 H701 0.959 . S
C713 C711 1.561 1_565 S
C714 C711 1.526 . S
C714 C715 1.396 . S
C714 C719 1.390 . S
C715 C709 1.465 1_545 S
C715 C714 1.396 . S
C715 C716 1.399 . S
C716 H702 0.929 . S
C716 C715 1.399 . S
C716 C717 1.385 . S
C717 H703 0.931 . S
C717 C716 1.385 . S
C717 C718 1.389 . S
C718 C717 1.389 . S
C718 C719 1.387 . S
C719 H704 0.930 . S
C719 C714 1.390 . S
C719 C718 1.387 . S
C301 C4 1.448 . S
C313 C40 1.477 . S
C328 C112 1.441 . S
C340 C76 1.481 . S
C355 C148 1.415 . S
C367 C184 1.478 . S
C382 C220 1.401 . S
C394 C256 1.455 . S
C409 C14 1.506 . S
C421 C86 1.519 . S
C436 C122 1.471 . S
C448 C50 1.482 . S
C463 C158 1.465 . S
C475 C230 1.477 . S
C490 C266 1.543 . S
C502 C194 1.531 . S
C517 C3 1.463 . S
C529 C147 1.408 . S
C544 C39 1.466 . S
C556 C183 1.402 . S
C571 C219 1.445 . S
C583 C75 1.412 . S
C598 C255 1.442 . S
C610 C111 1.414 . S
C625 C38 1.030 . S
C637 C2 1.028 . S
C652 C74 1.030 . S
C664 C110 1.029 . S
C679 C146 1.021 . S
C691 C182 1.018 . S
C706 C218 1.026 . S
C718 C254 1.030 . S
