# Generated by pormake.
# Topology unu, (4)-cn, num edge types: 1
# Building blocks:
#     Node 0, Type 0, BuildingBlock: GALJAG_clean_sbu_0, # of connection points: 4
#     Node 1, Type 0, BuildingBlock: GALJAG_clean_sbu_0, # of connection points: 4
#     Node 2, Type 0, BuildingBlock: GALJAG_clean_sbu_0, # of connection points: 4
#     Node 3, Type 0, BuildingBlock: GALJAG_clean_sbu_0, # of connection points: 4
#     Node 4, Type 0, BuildingBlock: GALJAG_clean_sbu_0, # of connection points: 4
#     Node 5, Type 0, BuildingBlock: GALJAG_clean_sbu_0, # of connection points: 4
#     Node 6, Type 0, BuildingBlock: GALJAG_clean_sbu_0, # of connection points: 4
#     Node 7, Type 0, BuildingBlock: GALJAG_clean_sbu_0, # of connection points: 4
#     Node 8, Type 0, BuildingBlock: GALJAG_clean_sbu_0, # of connection points: 4
#     Node 9, Type 0, BuildingBlock: GALJAG_clean_sbu_0, # of connection points: 4
#     Node 10, Type 0, BuildingBlock: GALJAG_clean_sbu_0, # of connection points: 4
#     Node 11, Type 0, BuildingBlock: GALJAG_clean_sbu_0, # of connection points: 4
#     Node 12, Type 0, BuildingBlock: GALJAG_clean_sbu_0, # of connection points: 4
#     Node 13, Type 0, BuildingBlock: GALJAG_clean_sbu_0, # of connection points: 4
#     Node 14, Type 0, BuildingBlock: GALJAG_clean_sbu_0, # of connection points: 4
#     Node 15, Type 0, BuildingBlock: GALJAG_clean_sbu_0, # of connection points: 4
#     Node 16, Type 0, BuildingBlock: GALJAG_clean_sbu_0, # of connection points: 4
#     Node 17, Type 0, BuildingBlock: GALJAG_clean_sbu_0, # of connection points: 4
#     Node 18, Type 0, BuildingBlock: GALJAG_clean_sbu_0, # of connection points: 4
#     Node 19, Type 0, BuildingBlock: GALJAG_clean_sbu_0, # of connection points: 4
#     Node 20, Type 0, BuildingBlock: GALJAG_clean_sbu_0, # of connection points: 4
#     Node 21, Type 0, BuildingBlock: GALJAG_clean_sbu_0, # of connection points: 4
#     Node 22, Type 0, BuildingBlock: GALJAG_clean_sbu_0, # of connection points: 4
#     Node 23, Type 0, BuildingBlock: GALJAG_clean_sbu_0, # of connection points: 4
#     Node 24, Type 0, BuildingBlock: GALJAG_clean_sbu_0, # of connection points: 4
#     Node 25, Type 0, BuildingBlock: GALJAG_clean_sbu_0, # of connection points: 4
#     Node 26, Type 0, BuildingBlock: GALJAG_clean_sbu_0, # of connection points: 4
#     Node 27, Type 0, BuildingBlock: GALJAG_clean_sbu_0, # of connection points: 4
#     Node 28, Type 0, BuildingBlock: GALJAG_clean_sbu_0, # of connection points: 4
#     Node 29, Type 0, BuildingBlock: GALJAG_clean_sbu_0, # of connection points: 4
#     Node 30, Type 0, BuildingBlock: GALJAG_clean_sbu_0, # of connection points: 4
#     Node 31, Type 0, BuildingBlock: GALJAG_clean_sbu_0, # of connection points: 4
#     Node 32, Type 0, BuildingBlock: GALJAG_clean_sbu_0, # of connection points: 4
#     Node 33, Type 0, BuildingBlock: GALJAG_clean_sbu_0, # of connection points: 4
#     Node 34, Type 0, BuildingBlock: GALJAG_clean_sbu_0, # of connection points: 4
#     Node 35, Type 0, BuildingBlock: GALJAG_clean_sbu_0, # of connection points: 4
#     Edge 36, Type (0, 0), None
#     Edge 37, Type (0, 0), None
#     Edge 38, Type (0, 0), None
#     Edge 39, Type (0, 0), None
#     Edge 40, Type (0, 0), None
#     Edge 41, Type (0, 0), None
#     Edge 42, Type (0, 0), None
#     Edge 43, Type (0, 0), None
#     Edge 44, Type (0, 0), None
#     Edge 45, Type (0, 0), None
#     Edge 46, Type (0, 0), None
#     Edge 47, Type (0, 0), None
#     Edge 48, Type (0, 0), None
#     Edge 49, Type (0, 0), None
#     Edge 50, Type (0, 0), None
#     Edge 51, Type (0, 0), None
#     Edge 52, Type (0, 0), None
#     Edge 53, Type (0, 0), None
#     Edge 54, Type (0, 0), None
#     Edge 55, Type (0, 0), None
#     Edge 56, Type (0, 0), None
#     Edge 57, Type (0, 0), None
#     Edge 58, Type (0, 0), None
#     Edge 59, Type (0, 0), None
#     Edge 60, Type (0, 0), None
#     Edge 61, Type (0, 0), None
#     Edge 62, Type (0, 0), None
#     Edge 63, Type (0, 0), None
#     Edge 64, Type (0, 0), None
#     Edge 65, Type (0, 0), None
#     Edge 66, Type (0, 0), None
#     Edge 67, Type (0, 0), None
#     Edge 68, Type (0, 0), None
#     Edge 69, Type (0, 0), None
#     Edge 70, Type (0, 0), None
#     Edge 71, Type (0, 0), None
#     Edge 72, Type (0, 0), None
#     Edge 73, Type (0, 0), None
#     Edge 74, Type (0, 0), None
#     Edge 75, Type (0, 0), None
#     Edge 76, Type (0, 0), None
#     Edge 77, Type (0, 0), None
#     Edge 78, Type (0, 0), None
#     Edge 79, Type (0, 0), None
#     Edge 80, Type (0, 0), None
#     Edge 81, Type (0, 0), None
#     Edge 82, Type (0, 0), None
#     Edge 83, Type (0, 0), None
#     Edge 84, Type (0, 0), None
#     Edge 85, Type (0, 0), None
#     Edge 86, Type (0, 0), None
#     Edge 87, Type (0, 0), None
#     Edge 88, Type (0, 0), None
#     Edge 89, Type (0, 0), None
#     Edge 90, Type (0, 0), None
#     Edge 91, Type (0, 0), None
#     Edge 92, Type (0, 0), None
#     Edge 93, Type (0, 0), None
#     Edge 94, Type (0, 0), None
#     Edge 95, Type (0, 0), None
#     Edge 96, Type (0, 0), None
#     Edge 97, Type (0, 0), None
#     Edge 98, Type (0, 0), None
#     Edge 99, Type (0, 0), None
#     Edge 100, Type (0, 0), None
#     Edge 101, Type (0, 0), None
#     Edge 102, Type (0, 0), None
#     Edge 103, Type (0, 0), None
#     Edge 104, Type (0, 0), None
#     Edge 105, Type (0, 0), None
#     Edge 106, Type (0, 0), None
#     Edge 107, Type (0, 0), None
# Relax obj value: 0.102
# Max RMSD: 0.228
# Mean RMSD: 0.228
data_MOF--net-unu--node1-GALJAG_clean_sbu_0--edge1-none
_symmetry_space_group_name_H-M    P1
_symmetry_Int_Tables_number       1
_symmetry_cell_setting            triclinic
loop_
_symmetry_equiv_pos_as_xyz
'x, y, z'
_cell_length_a     21.382302
_cell_length_b     21.382348
_cell_length_c     32.288501
_cell_angle_alpha  90.005386
_cell_angle_beta   89.998181
_cell_angle_gamma 120.00206
loop_
_atom_site_label
_atom_site_type_symbol
_atom_site_fract_x
_atom_site_fract_y
_atom_site_fract_z
_atom_type_partial_charge
In0 In 0.16448 0.01288 0.10747 0.0
O1 O 0.2178 -0.01558 0.05591 0.0
O2 O 0.21736 0.94576 0.11771 0.0
C3 C 0.10298 0.09379 0.10595 0.0
C4 C 0.27592 0.11838 0.14551 0.0
C5 C 0.03265 0.89903 0.10563 0.0
O6 O 0.12848 0.08205 0.07295 0.0
O7 O 0.11051 0.06616 0.13893 0.0
O8 O 0.06847 0.92143 0.13918 0.0
O9 O 0.06544 0.93135 0.07285 0.0
C10 C 0.23564 0.94885 0.08008 0.0
O11 O 0.22956 0.06243 0.16496 0.0
O12 O 0.26689 0.11964 0.10669 0.0
In13 In 0.94156 0.14249 0.10749 0.0
O14 O 0.97 0.22425 0.05592 0.0
O15 O 0.00868 0.2625 0.11772 0.0
C16 C 0.86064 8e-05 0.10596 0.0
C17 C 0.83606 0.14843 0.14552 0.0
C18 C 0.05537 0.12448 0.10563 0.0
O19 O 0.87236 0.0373 0.07296 0.0
O20 O 0.88828 0.03525 0.13894 0.0
O21 O 0.033 0.13793 0.13919 0.0
O22 O 0.02306 0.12496 0.07285 0.0
C23 C 0.00558 0.27767 0.0801 0.0
O24 O 0.89201 0.15803 0.16497 0.0
O25 O 0.83479 0.13813 0.1067 0.0
In26 In 0.81194 0.78995 0.10749 0.0
O27 O 0.73016 0.73663 0.05593 0.0
O28 O 0.69193 0.73707 0.11773 0.0
C29 C 0.95434 0.85146 0.10595 0.0
C30 C 0.806 0.67851 0.14552 0.0
C31 C 0.82995 0.92177 0.10565 0.0
O32 O 0.9171 0.82593 0.07295 0.0
O33 O 0.9192 0.84393 0.13894 0.0
O34 O 0.81652 0.88597 0.13921 0.0
O35 O 0.82946 0.88898 0.07286 0.0
C36 C 0.67675 0.71879 0.0801 0.0
O37 O 0.79641 0.72487 0.16498 0.0
O38 O 0.81629 0.68754 0.1067 0.0
In39 In 0.00377 0.1736 0.37136 0.0
O40 O -0.02468 0.22692 0.42292 0.0
O41 O 0.93665 0.22647 0.36112 0.0
C42 C 0.08469 0.1121 0.37289 0.0
C43 C 0.10927 0.28503 0.33333 0.0
C44 C 0.88992 0.04177 0.37321 0.0
O45 O 0.07295 0.13761 0.40589 0.0
O46 O 0.05705 0.11962 0.33991 0.0
O47 O 0.91232 0.07757 0.33965 0.0
O48 O 0.92226 0.07456 0.40599 0.0
C49 C 0.93974 0.24475 0.39874 0.0
O50 O 0.05332 0.23867 0.31387 0.0
O51 O 0.11053 0.27601 0.37215 0.0
In52 In 0.78083 0.82105 0.37136 0.0
O53 O 0.71575 0.80552 0.31387 0.0
O54 O 0.67843 0.82541 0.37215 0.0
C55 C 0.91266 0.83903 0.37321 0.0
C56 C 0.70968 0.68586 0.39874 0.0
C57 C 0.84235 0.96345 0.37289 0.0
O58 O 0.87685 0.82561 0.33965 0.0
O59 O 0.87987 0.83857 0.40599 0.0
O60 O 0.81683 0.92623 0.40589 0.0
O61 O 0.83482 0.9283 0.33991 0.0
C62 C 0.6694 0.81511 0.33333 0.0
O63 O 0.72752 0.73928 0.42292 0.0
O64 O 0.72795 0.70104 0.36111 0.0
In65 In 0.13337 0.95067 0.37136 0.0
O66 O 0.1489 0.90111 0.31387 0.0
O67 O 0.12902 0.84391 0.37214 0.0
C68 C 0.11537 0.06449 0.3732 0.0
C69 C 0.26856 0.0147 0.39875 0.0
C70 C -0.00903 0.86977 0.37289 0.0
O71 O 0.1288 0.0421 0.33965 0.0
O72 O 0.11585 0.03218 0.40599 0.0
O73 O 0.0282 0.88148 0.40589 0.0
O74 O 0.02612 0.89738 0.33991 0.0
C75 C 0.13931 0.84517 0.33333 0.0
O76 O 0.21514 0.97913 0.42292 0.0
O77 O 0.25338 0.01779 0.36112 0.0
In78 In 0.78085 0.95068 0.87136 0.0
O79 O 0.72754 0.97914 0.92292 0.0
O80 O 0.72797 0.0178 0.86112 0.0
C81 C 0.84235 0.86976 0.87288 0.0
C82 C 0.66941 0.84518 0.83332 0.0
C83 C 0.91268 0.06453 0.8732 0.0
O84 O 0.81685 0.8815 0.90589 0.0
O85 O 0.83482 0.89739 0.83991 0.0
O86 O 0.87687 0.04212 0.83965 0.0
O87 O 0.8799 0.0322 0.90598 0.0
C88 C 0.7097 0.01471 0.89875 0.0
O89 O 0.71578 0.90113 0.81387 0.0
O90 O 0.67844 0.84392 0.87214 0.0
In91 In 0.00378 0.82107 0.87135 0.0
O92 O -0.02467 0.73931 0.92291 0.0
O93 O 0.93665 0.70106 0.86111 0.0
C94 C 0.0847 0.96348 0.87287 0.0
C95 C 0.10928 0.81513 0.83332 0.0
C96 C 0.88996 0.83908 0.8732 0.0
O97 O 0.07297 0.92626 0.90587 0.0
O98 O 0.05706 0.92831 0.83989 0.0
O99 O 0.91233 0.82563 0.83964 0.0
O100 O 0.92228 0.8386 0.90598 0.0
C101 C 0.93976 0.68589 0.89873 0.0
O102 O 0.05333 0.80553 0.81386 0.0
O103 O 0.11054 0.82543 0.87213 0.0
In104 In 0.1334 0.17361 0.87134 0.0
O105 O 0.14892 0.23869 0.81386 0.0
O106 O 0.12905 0.27602 0.87213 0.0
C107 C 0.11538 0.04179 0.87318 0.0
C108 C 0.26858 0.24477 0.89873 0.0
C109 C -0.00901 0.1121 0.87288 0.0
O110 O 0.12881 0.07759 0.83963 0.0
O111 O 0.11587 0.07458 0.90597 0.0
O112 O 0.02823 0.13763 0.90588 0.0
O113 O 0.02614 0.11963 0.8399 0.0
C114 C 0.13933 0.28505 0.83331 0.0
O115 O 0.21517 0.22693 0.9229 0.0
O116 O 0.2534 0.22649 0.8611 0.0
In117 In 0.94156 0.78996 0.60747 0.0
O118 O 0.97002 0.73664 0.55591 0.0
O119 O 0.00869 0.73709 0.61772 0.0
C120 C 0.86065 0.85146 0.60595 0.0
C121 C 0.83607 0.67853 0.6455 0.0
C122 C 0.05541 0.92179 0.60562 0.0
O123 O 0.87238 0.82595 0.57294 0.0
O124 O 0.88828 0.84394 0.63892 0.0
O125 O 0.03301 0.88599 0.63918 0.0
O126 O 0.02308 0.88899 0.57284 0.0
C127 C 0.00559 0.71881 0.58009 0.0
O128 O 0.89201 0.72489 0.66496 0.0
O129 O 0.8348 0.68755 0.60669 0.0
In130 In 0.1645 0.14251 0.60747 0.0
O131 O 0.21782 0.22428 0.55591 0.0
O132 O 0.21739 0.26252 0.61772 0.0
C133 C 0.10298 0.0001 0.60594 0.0
C134 C 0.27593 0.14844 0.6455 0.0
C135 C 0.03268 0.12453 0.60562 0.0
O136 O 0.12851 0.03733 0.57294 0.0
O137 O 0.11051 0.03526 0.63892 0.0
O138 O 0.06848 0.13794 0.63918 0.0
O139 O 0.06547 0.12498 0.57284 0.0
C140 C 0.23566 0.27769 0.58009 0.0
O141 O 0.22958 0.15804 0.66496 0.0
O142 O 0.26691 0.13815 0.60669 0.0
In143 In 0.81196 0.01289 0.60747 0.0
O144 O 0.79643 0.06245 0.66496 0.0
O145 O 0.81631 0.11965 0.60669 0.0
C146 C 0.82996 0.89907 0.60563 0.0
C147 C 0.67677 0.94886 0.58008 0.0
C148 C 0.95437 0.09379 0.60594 0.0
O149 O 0.81653 0.92146 0.63919 0.0
O150 O 0.82948 0.93137 0.57284 0.0
O151 O 0.91713 0.08208 0.57294 0.0
O152 O 0.91921 0.06618 0.63892 0.0
C153 C 0.80602 0.11839 0.6455 0.0
O154 O 0.73019 -0.01557 0.55591 0.0
O155 O 0.69195 0.94577 0.61771 0.0
In156 In 0.83115 0.34621 0.44081 0.0
O157 O 0.88447 0.31776 0.38924 0.0
O158 O 0.88403 0.2791 0.45105 0.0
C159 C 0.76966 0.42713 0.43928 0.0
C160 C 0.94259 0.45172 0.47884 0.0
C161 C 0.69932 0.23237 0.43896 0.0
O162 O 0.79516 0.41539 0.40628 0.0
O163 O 0.77718 0.3995 0.47226 0.0
O164 O 0.73514 0.25477 0.47252 0.0
O165 O 0.73211 0.26469 0.40618 0.0
C166 C 0.9023 0.28218 0.41342 0.0
O167 O 0.89623 0.39577 0.49829 0.0
O168 O 0.93357 0.45298 0.44002 0.0
In169 In 0.60823 0.47582 0.44081 0.0
O170 O 0.55868 0.49136 0.49829 0.0
O171 O 0.50146 0.47147 0.44002 0.0
C172 C 0.72204 0.45782 0.43896 0.0
C173 C 0.67225 0.611 0.41342 0.0
C174 C 0.52731 0.33341 0.43928 0.0
O175 O 0.69967 0.47126 0.47252 0.0
O176 O 0.68973 0.45829 0.40618 0.0
O177 O 0.53904 0.37064 0.40628 0.0
O178 O 0.55494 0.36858 0.47226 0.0
C179 C 0.50273 0.48177 0.47884 0.0
O180 O 0.63667 0.55758 0.38925 0.0
O181 O 0.67535 0.59583 0.45105 0.0
In182 In 0.47861 0.12328 0.44081 0.0
O183 O 0.39684 0.06996 0.38925 0.0
O184 O 0.3586 0.0704 0.45106 0.0
C185 C 0.62102 0.18479 0.43928 0.0
C186 C 0.47268 0.01185 0.47884 0.0
C187 C 0.49662 0.25511 0.43897 0.0
O188 O 0.58378 0.15926 0.40628 0.0
O189 O 0.58587 0.17727 0.47226 0.0
O190 O 0.48319 0.2193 0.47253 0.0
O191 O 0.49614 0.22231 0.40618 0.0
C192 C 0.34342 0.05213 0.41343 0.0
O193 O 0.46309 0.05821 0.4983 0.0
O194 O 0.48296 0.02087 0.44002 0.0
In195 In 0.67045 0.50694 0.70468 0.0
O196 O 0.72 0.57201 0.6472 0.0
O197 O 0.77721 0.60936 0.70547 0.0
C198 C 0.5566 0.37511 0.70653 0.0
C199 C 0.60642 0.5781 0.73206 0.0
C200 C 0.75136 0.44545 0.70621 0.0
O201 O 0.579 0.41091 0.67297 0.0
O202 O 0.58893 0.40791 0.73931 0.0
O203 O 0.73963 0.47096 0.73921 0.0
O204 O 0.72373 0.45297 0.67323 0.0
C205 C 0.77594 0.61838 0.66665 0.0
O206 O 0.64199 0.56027 0.75624 0.0
O207 O 0.60332 0.55982 0.69444 0.0
In208 In 0.44751 0.15439 0.70468 0.0
O209 O 0.38243 0.13887 0.6472 0.0
O210 O 0.3451 0.15876 0.70547 0.0
C211 C 0.57933 0.17237 0.70654 0.0
C212 C 0.37635 0.01921 0.73207 0.0
C213 C 0.50903 0.2968 0.70622 0.0
O214 O 0.54353 0.15896 0.67298 0.0
O215 O 0.54654 0.17192 0.73931 0.0
O216 O 0.4835 0.25958 0.73922 0.0
O217 O 0.5015 0.26164 0.67323 0.0
C218 C 0.33608 0.14846 0.66665 0.0
O219 O 0.39419 0.07263 0.75624 0.0
O220 O 0.39462 0.03439 0.69444 0.0
In221 In 0.80005 0.28401 0.70469 0.0
O222 O 0.88182 0.31247 0.75625 0.0
O223 O 0.92005 0.35113 0.69445 0.0
C224 C 0.65764 0.20312 0.70622 0.0
C225 C 0.80599 0.17851 0.66666 0.0
C226 C 0.78205 0.39783 0.70653 0.0
O227 O 0.69488 0.21483 0.73922 0.0
O228 O 0.69279 0.23073 0.67324 0.0
O229 O 0.79548 0.37545 0.67297 0.0
O230 O 0.78253 0.36553 0.73932 0.0
C231 C 0.93524 0.34804 0.73208 0.0
O232 O 0.81558 0.23446 0.6472 0.0
O233 O 0.79569 0.17725 0.70547 0.0
In234 In 0.4475 0.284 0.2047 0.0
O235 O 0.39418 0.31245 0.25626 0.0
O236 O 0.39462 0.35112 0.19446 0.0
C237 C 0.509 0.20308 0.20623 0.0
C238 C 0.33607 0.1785 0.16666 0.0
C239 C 0.57933 0.39785 0.20655 0.0
O240 O 0.4835 0.21482 0.23923 0.0
O241 O 0.50147 0.23071 0.17325 0.0
O242 O 0.54352 0.37544 0.17299 0.0
O243 O 0.54654 0.36552 0.23933 0.0
C244 C 0.37635 0.34803 0.23208 0.0
O245 O 0.38243 0.23444 0.14721 0.0
O246 O 0.34509 0.17723 0.20548 0.0
In247 In 0.67043 0.15439 0.2047 0.0
O248 O 0.71998 0.13886 0.14721 0.0
O249 O 0.7772 0.15876 0.20548 0.0
C250 C 0.55661 0.1724 0.20655 0.0
C251 C 0.60641 0.01921 0.23208 0.0
C252 C 0.75135 0.29681 0.20622 0.0
O253 O 0.57899 0.15896 0.17299 0.0
O254 O 0.58893 0.17192 0.23933 0.0
O255 O 0.73962 0.25958 0.23923 0.0
O256 O 0.72371 0.26164 0.17325 0.0
C257 C 0.77594 0.14846 0.16667 0.0
O258 O 0.64199 0.07263 0.25626 0.0
O259 O 0.60331 0.03439 0.19446 0.0
In260 In 0.80005 0.50694 0.20469 0.0
O261 O 0.81557 0.57201 0.14721 0.0
O262 O 0.79569 0.60934 0.20548 0.0
C263 C 0.78203 0.37511 0.20654 0.0
C264 C 0.93523 0.57809 0.23207 0.0
C265 C 0.65764 0.44542 0.20623 0.0
O266 O 0.79546 0.41091 0.17298 0.0
O267 O 0.78252 0.40791 0.23932 0.0
O268 O 0.69487 0.47095 0.23923 0.0
O269 O 0.69279 0.45295 0.17324 0.0
C270 C 0.80598 0.61837 0.16667 0.0
O271 O 0.88182 0.56026 0.25625 0.0
O272 O 0.92005 0.55981 0.19445 0.0
In273 In 0.60823 0.12329 0.94081 0.0
O274 O 0.55868 0.05822 -0.0017 0.0
O275 O 0.50147 0.02088 0.94002 0.0
C276 C 0.72207 0.25512 0.93896 0.0
C277 C 0.67227 0.05214 0.91343 0.0
C278 C 0.52732 0.18479 0.93928 0.0
O279 O 0.69968 0.21932 0.97252 0.0
O280 O 0.68974 0.22232 0.90618 0.0
O281 O 0.53905 0.15928 0.90628 0.0
O282 O 0.55495 0.17727 0.97226 0.0
C283 C 0.50273 0.01185 0.97884 0.0
O284 O 0.63668 0.06997 0.88925 0.0
O285 O 0.67536 0.07042 0.95105 0.0
In286 In 0.83117 0.47584 0.94081 0.0
O287 O 0.89624 0.49137 -0.00171 0.0
O288 O 0.93357 0.47148 0.94002 0.0
C289 C 0.69934 0.45787 0.93895 0.0
C290 C 0.90232 0.61102 0.91342 0.0
C291 C 0.76964 0.33343 0.93927 0.0
O292 O 0.73515 0.47128 0.97251 0.0
O293 O 0.73214 0.45831 0.90617 0.0
O294 O 0.79517 0.37066 0.90627 0.0
O295 O 0.77718 0.3686 0.97226 0.0
C296 C 0.9426 0.48177 0.97884 0.0
O297 O 0.88449 0.55761 0.88924 0.0
O298 O 0.88406 0.59585 0.95104 0.0
In299 In 0.47863 0.34622 0.9408 0.0
O300 O 0.46309 0.39577 -0.00171 0.0
O301 O 0.48298 0.45298 0.94002 0.0
C302 C 0.49663 0.2324 0.93896 0.0
C303 C 0.34345 0.28219 0.91341 0.0
C304 C 0.62104 0.42713 0.93927 0.0
O305 O 0.4832 0.25479 0.97252 0.0
O306 O 0.49615 0.2647 0.90618 0.0
O307 O 0.5838 0.41541 0.90627 0.0
O308 O 0.58589 0.39951 0.97225 0.0
C309 C 0.47268 0.45172 0.97884 0.0
O310 O 0.39686 0.31777 0.88924 0.0
O311 O 0.35862 0.2791 0.95104 0.0
In312 In 0.49783 0.67956 0.77413 0.0
O313 O 0.55115 0.65111 0.72257 0.0
O314 O 0.55071 0.61244 0.78437 0.0
C315 C 0.43633 0.76048 0.7726 0.0
C316 C 0.60927 0.78506 0.81217 0.0
C317 C 0.366 0.56571 0.77228 0.0
O318 O 0.46183 0.74874 0.7396 0.0
O319 O 0.44386 0.73285 0.80558 0.0
O320 O 0.40181 0.58812 0.80584 0.0
O321 O 0.39879 0.59804 0.73951 0.0
C322 C 0.56898 0.61553 0.74675 0.0
O323 O 0.56291 0.72911 0.83162 0.0
O324 O 0.60024 0.78632 0.77335 0.0
In325 In 0.2749 0.80917 0.77413 0.0
O326 O 0.22535 0.8247 0.83162 0.0
O327 O 0.16813 0.8048 0.77335 0.0
C328 C 0.38872 0.79116 0.77229 0.0
C329 C 0.33893 0.94435 0.74675 0.0
C330 C 0.19399 0.66675 0.77261 0.0
O331 O 0.36634 0.8046 0.80584 0.0
O332 O 0.35641 0.79164 0.7395 0.0
O333 O 0.20572 0.70398 0.73961 0.0
O334 O 0.22162 0.70192 0.80559 0.0
C335 C 0.1694 0.8151 0.81216 0.0
O336 O 0.30335 0.89093 0.72257 0.0
O337 O 0.34202 0.92917 0.78437 0.0
In338 In 0.14529 0.45662 0.77414 0.0
O339 O 0.12977 0.39155 0.83162 0.0
O340 O 0.14964 0.35421 0.77335 0.0
C341 C 0.1633 0.58845 0.77229 0.0
C342 C 0.0101 0.38548 0.74676 0.0
C343 C 0.28769 0.51814 0.7726 0.0
O344 O 0.14987 0.55264 0.80585 0.0
O345 O 0.16282 0.55565 0.73951 0.0
O346 O 0.25046 0.49261 0.7396 0.0
O347 O 0.25254 0.51061 0.80559 0.0
C348 C 0.13936 0.34519 0.81216 0.0
O349 O 0.06351 0.4033 0.72258 0.0
O350 O 0.02528 0.40375 0.78438 0.0
In351 In 0.3371 0.84027 0.03802 0.0
O352 O 0.38666 0.90534 0.98053 0.0
O353 O 0.44387 0.94268 0.03881 0.0
C354 C 0.22326 0.70843 0.03987 0.0
C355 C 0.27307 0.91142 0.0654 0.0
C356 C 0.41802 0.77877 0.03955 0.0
O357 O 0.24566 0.74424 0.00631 0.0
O358 O 0.25559 0.74124 0.07265 0.0
O359 O 0.40629 0.80428 0.07255 0.0
O360 O 0.39038 0.78629 0.00657 0.0
C361 C 0.44261 0.9517 -1e-05 0.0
O362 O 0.30865 0.89359 0.08958 0.0
O363 O 0.26998 0.89314 0.02778 0.0
In364 In 0.11416 0.48772 0.03803 0.0
O365 O 0.06084 0.40595 0.08959 0.0
O366 O 0.06127 0.36771 0.02779 0.0
C367 C 0.17569 0.63012 0.03956 0.0
C368 C 0.00274 0.48179 -1e-05 0.0
C369 C 0.24599 0.50569 0.03988 0.0
O370 O 0.15016 0.5929 0.07256 0.0
O371 O 0.16816 0.59496 0.00657 0.0
O372 O 0.21018 0.49228 0.00632 0.0
O373 O 0.2132 0.50524 0.07266 0.0
C374 C 0.04301 0.35253 0.06541 0.0
O375 O 0.04909 0.47219 0.98054 0.0
O376 O 0.01176 0.49208 0.03881 0.0
In377 In 0.4667 0.61733 0.03803 0.0
O378 O 0.48224 0.56779 0.98054 0.0
O379 O 0.46235 0.51057 0.03881 0.0
C380 C 0.4487 0.73116 0.03987 0.0
C381 C 0.60189 0.68137 0.06542 0.0
C382 C 0.3243 0.53643 0.03956 0.0
O383 O 0.46213 0.70877 0.00631 0.0
O384 O 0.44918 0.69886 0.07265 0.0
O385 O 0.36153 0.54815 0.07256 0.0
O386 O 0.35945 0.56404 0.00658 0.0
C387 C 0.47265 0.51184 -1e-05 0.0
O388 O 0.54847 0.64579 0.0896 0.0
O389 O 0.58671 0.68446 0.02779 0.0
In390 In 0.11418 0.61734 0.53802 0.0
O391 O 0.06086 0.6458 0.58959 0.0
O392 O 0.0613 0.68446 0.52778 0.0
C393 C 0.17568 0.53643 0.53955 0.0
C394 C 0.00274 0.51184 0.49999 0.0
C395 C 0.24601 0.73119 0.53987 0.0
O396 O 0.15018 0.54817 0.57255 0.0
O397 O 0.16815 0.56406 0.50657 0.0
O398 O 0.2102 0.70879 0.50632 0.0
O399 O 0.21322 0.69886 0.57265 0.0
C400 C 0.04303 0.68138 0.56541 0.0
O401 O 0.0491 0.56779 0.48054 0.0
O402 O 0.01177 0.51058 0.53881 0.0
In403 In 0.33711 0.48774 0.53802 0.0
O404 O 0.30866 0.40598 0.58959 0.0
O405 O 0.26998 0.36773 0.52778 0.0
C406 C 0.41803 0.63015 0.53955 0.0
C407 C 0.44261 0.48179 0.49999 0.0
C408 C 0.22329 0.50574 0.53987 0.0
O409 O 0.4063 0.59292 0.57255 0.0
O410 O 0.39039 0.59498 0.50657 0.0
O411 O 0.24566 0.4923 0.50631 0.0
O412 O 0.2556 0.50527 0.57265 0.0
C413 C 0.27308 0.35256 0.56541 0.0
O414 O 0.38666 0.4722 0.48054 0.0
O415 O 0.44387 0.49209 0.53881 0.0
In416 In 0.46672 0.84028 0.53802 0.0
O417 O 0.48225 0.90535 0.48053 0.0
O418 O 0.46237 0.94269 0.53881 0.0
C419 C 0.44871 0.70845 0.53986 0.0
C420 C 0.60191 0.91143 0.5654 0.0
C421 C 0.32432 0.77876 0.53955 0.0
O422 O 0.46214 0.74426 0.50631 0.0
O423 O 0.4492 0.74125 0.57265 0.0
O424 O 0.36155 0.80429 0.57255 0.0
O425 O 0.35947 0.78629 0.50657 0.0
C426 C 0.47266 0.95171 0.49999 0.0
O427 O 0.5485 0.8936 0.58958 0.0
O428 O 0.58673 0.89316 0.52778 0.0
In429 In 0.27489 0.45662 0.27415 0.0
O430 O 0.30334 0.40329 0.22259 0.0
O431 O 0.34201 0.40374 0.28439 0.0
C432 C 0.19397 0.51811 0.27262 0.0
C433 C 0.16939 0.34518 0.31218 0.0
C434 C 0.38873 0.58845 0.2723 0.0
O435 O 0.2057 0.4926 0.23962 0.0
O436 O 0.22161 0.51059 0.3056 0.0
O437 O 0.36633 0.55264 0.30586 0.0
O438 O 0.3564 0.55565 0.23952 0.0
C439 C 0.33892 0.38546 0.24676 0.0
O440 O 0.22534 0.39154 0.33164 0.0
O441 O 0.16813 0.3542 0.27336 0.0
In442 In 0.49783 0.80917 0.27415 0.0
O443 O 0.55114 0.89093 0.22259 0.0
O444 O 0.55071 0.92917 0.28439 0.0
C445 C 0.4363 0.66676 0.27262 0.0
C446 C 0.60926 0.8151 0.31218 0.0
C447 C 0.366 0.79118 0.27229 0.0
O448 O 0.46183 0.70398 0.23962 0.0
O449 O 0.44384 0.70192 0.3056 0.0
O450 O 0.40181 0.8046 0.30585 0.0
O451 O 0.39879 0.79164 0.23952 0.0
C452 C 0.56898 0.94435 0.24676 0.0
O453 O 0.5629 0.82469 0.33163 0.0
O454 O 0.60023 0.8048 0.27336 0.0
In455 In 0.14528 0.67954 0.27414 0.0
O456 O 0.06351 0.65109 0.22258 0.0
O457 O 0.02528 0.61242 0.28438 0.0
C458 C 0.28769 0.76044 0.27261 0.0
C459 C 0.13934 0.78505 0.31218 0.0
C460 C 0.16328 0.56572 0.2723 0.0
O461 O 0.25046 0.74873 0.23961 0.0
O462 O 0.25254 0.73283 0.30559 0.0
O463 O 0.14985 0.58811 0.30586 0.0
O464 O 0.1628 0.59803 0.23952 0.0
C465 C 0.0101 0.61551 0.24675 0.0
O466 O 0.12975 0.7291 0.33163 0.0
O467 O 0.14964 0.78631 0.27336 0.0
loop_
_geom_bond_atom_site_label_1
_geom_bond_atom_site_label_2
_geom_bond_distance
_geom_bond_site_symmetry_2
_ccdc_geom_bond_type
In0 O1 2.294 . S
In0 O2 2.326 1_545 S
In0 O6 2.266 . S
In0 O7 2.326 . S
In0 O8 2.266 1_545 S
In0 O9 2.326 1_545 S
In0 O11 2.294 . S
In0 O12 2.326 . S
O1 In0 2.294 . S
O1 C10 1.240 . S
O2 In0 2.326 1_565 S
O2 C10 1.252 1_565 S
C3 O6 1.252 . S
C3 O7 1.260 . S
C4 O11 1.240 . S
C4 O12 1.252 . S
C5 O8 1.252 . S
C5 O9 1.260 . S
O6 In0 2.266 . S
O6 C3 1.252 . S
O7 In0 2.326 . S
O7 C3 1.260 . S
O8 In0 2.266 1_565 S
O8 C5 1.252 . S
O9 In0 2.326 1_565 S
O9 C5 1.260 . S
C10 O1 1.240 . S
C10 O2 1.252 1_545 S
O11 In0 2.294 . S
O11 C4 1.240 . S
O12 In0 2.326 . S
O12 C4 1.252 . S
In13 O14 2.294 . S
In13 O15 2.326 1_655 S
In13 O19 2.266 . S
In13 O20 2.326 . S
In13 O21 2.266 1_655 S
In13 O22 2.326 1_655 S
In13 O24 2.294 . S
In13 O25 2.326 . S
O14 In13 2.294 . S
O14 C23 1.240 . S
O15 In13 2.326 1_455 S
O15 C23 1.252 1_455 S
C16 O19 1.252 . S
C16 O20 1.260 . S
C17 O24 1.240 . S
C17 O25 1.252 . S
C18 O21 1.252 . S
C18 O22 1.260 . S
O19 In13 2.266 . S
O19 C16 1.252 . S
O20 In13 2.326 . S
O20 C16 1.260 . S
O21 In13 2.266 1_455 S
O21 C18 1.252 . S
O22 In13 2.326 1_455 S
O22 C18 1.260 . S
C23 O14 1.240 . S
C23 O15 1.252 1_655 S
O24 In13 2.294 . S
O24 C17 1.240 . S
O25 In13 2.326 . S
O25 C17 1.252 . S
In26 O27 2.294 . S
In26 O28 2.326 . S
In26 O32 2.266 . S
In26 O33 2.326 . S
In26 O34 2.266 . S
In26 O35 2.326 . S
In26 O37 2.294 . S
In26 O38 2.326 . S
O27 In26 2.294 . S
O27 C36 1.240 . S
O28 In26 2.326 . S
O28 C36 1.252 . S
C29 O32 1.252 . S
C29 O33 1.260 . S
C30 O37 1.240 . S
C30 O38 1.252 . S
C31 O34 1.252 . S
C31 O35 1.260 . S
O32 In26 2.266 . S
O32 C29 1.252 . S
O33 In26 2.326 . S
O33 C29 1.260 . S
O34 In26 2.266 . S
O34 C31 1.252 . S
O35 In26 2.326 . S
O35 C31 1.260 . S
C36 O27 1.240 . S
C36 O28 1.252 . S
O37 In26 2.294 . S
O37 C30 1.240 . S
O38 In26 2.326 . S
O38 C30 1.252 . S
In39 O40 2.294 . S
In39 O41 2.326 1_455 S
In39 O45 2.266 . S
In39 O46 2.326 . S
In39 O47 2.266 1_455 S
In39 O48 2.326 1_455 S
In39 O50 2.294 . S
In39 O51 2.326 . S
O40 In39 2.294 . S
O40 C49 1.240 . S
O41 In39 2.326 1_655 S
O41 C49 1.252 1_655 S
C42 O45 1.252 . S
C42 O46 1.260 . S
C43 O50 1.240 . S
C43 O51 1.252 . S
C44 O47 1.252 . S
C44 O48 1.260 . S
O45 In39 2.266 . S
O45 C42 1.252 . S
O46 In39 2.326 . S
O46 C42 1.260 . S
O47 In39 2.266 1_655 S
O47 C44 1.252 . S
O48 In39 2.326 1_655 S
O48 C44 1.260 . S
C49 O40 1.240 . S
C49 O41 1.252 1_455 S
O50 In39 2.294 . S
O50 C43 1.240 . S
O51 In39 2.326 . S
O51 C43 1.252 . S
In52 O53 2.294 . S
In52 O54 2.326 . S
In52 O58 2.266 . S
In52 O59 2.326 . S
In52 O60 2.266 . S
In52 O61 2.326 . S
In52 O63 2.294 . S
In52 O64 2.326 . S
O53 In52 2.294 . S
O53 C62 1.240 . S
O54 In52 2.326 . S
O54 C62 1.252 . S
C55 O58 1.252 . S
C55 O59 1.260 . S
C56 O63 1.240 . S
C56 O64 1.252 . S
C57 O60 1.252 . S
C57 O61 1.260 . S
O58 In52 2.266 . S
O58 C55 1.252 . S
O59 In52 2.326 . S
O59 C55 1.260 . S
O60 In52 2.266 . S
O60 C57 1.252 . S
O61 In52 2.326 . S
O61 C57 1.260 . S
C62 O53 1.240 . S
C62 O54 1.252 . S
O63 In52 2.294 . S
O63 C56 1.240 . S
O64 In52 2.326 . S
O64 C56 1.252 . S
In65 O66 2.294 . S
In65 O67 2.326 . S
In65 O71 2.266 1_565 S
In65 O72 2.326 1_565 S
In65 O73 2.266 . S
In65 O74 2.326 . S
In65 O76 2.294 . S
In65 O77 2.326 1_565 S
O66 In65 2.294 . S
O66 C75 1.240 . S
O67 In65 2.326 . S
O67 C75 1.252 . S
C68 O71 1.252 . S
C68 O72 1.260 . S
C69 O76 1.240 . S
C69 O77 1.252 1_565 S
C70 O73 1.252 . S
C70 O74 1.260 . S
O71 In65 2.266 1_545 S
O71 C68 1.252 . S
O72 In65 2.326 1_545 S
O72 C68 1.260 . S
O73 In65 2.266 . S
O73 C70 1.252 . S
O74 In65 2.326 . S
O74 C70 1.260 . S
C75 O66 1.240 . S
C75 O67 1.252 . S
O76 In65 2.294 . S
O76 C69 1.240 . S
O77 In65 2.326 1_545 S
O77 C69 1.252 1_545 S
In78 O79 2.294 . S
In78 O80 2.326 1_565 S
In78 O84 2.266 . S
In78 O85 2.326 . S
In78 O86 2.266 1_565 S
In78 O87 2.326 1_565 S
In78 O89 2.294 . S
In78 O90 2.326 . S
O79 In78 2.294 . S
O79 C88 1.240 . S
O80 In78 2.326 1_545 S
O80 C88 1.252 1_545 S
C81 O84 1.252 . S
C81 O85 1.260 . S
C82 O89 1.240 . S
C82 O90 1.252 . S
C83 O86 1.252 . S
C83 O87 1.260 . S
O84 In78 2.266 . S
O84 C81 1.252 . S
O85 In78 2.326 . S
O85 C81 1.260 . S
O86 In78 2.266 1_545 S
O86 C83 1.252 . S
O87 In78 2.326 1_545 S
O87 C83 1.260 . S
C88 O79 1.240 . S
C88 O80 1.252 1_565 S
O89 In78 2.294 . S
O89 C82 1.240 . S
O90 In78 2.326 . S
O90 C82 1.252 . S
In91 O92 2.294 . S
In91 O93 2.326 1_455 S
In91 O97 2.266 . S
In91 O98 2.326 . S
In91 O99 2.266 1_455 S
In91 O100 2.326 1_455 S
In91 O102 2.294 . S
In91 O103 2.326 . S
O92 In91 2.294 . S
O92 C101 1.240 . S
O93 In91 2.326 1_655 S
O93 C101 1.252 1_655 S
C94 O97 1.252 . S
C94 O98 1.260 . S
C95 O102 1.240 . S
C95 O103 1.252 . S
C96 O99 1.252 . S
C96 O100 1.260 . S
O97 In91 2.266 . S
O97 C94 1.252 . S
O98 In91 2.326 . S
O98 C94 1.260 . S
O99 In91 2.266 1_655 S
O99 C96 1.252 . S
O100 In91 2.326 1_655 S
O100 C96 1.260 . S
C101 O92 1.240 . S
C101 O93 1.252 1_455 S
O102 In91 2.294 . S
O102 C95 1.240 . S
O103 In91 2.326 . S
O103 C95 1.252 . S
In104 O105 2.294 . S
In104 O106 2.326 . S
In104 O110 2.266 . S
In104 O111 2.326 . S
In104 O112 2.266 . S
In104 O113 2.326 . S
In104 O115 2.294 . S
In104 O116 2.326 . S
O105 In104 2.294 . S
O105 C114 1.240 . S
O106 In104 2.326 . S
O106 C114 1.252 . S
C107 O110 1.252 . S
C107 O111 1.260 . S
C108 O115 1.240 . S
C108 O116 1.252 . S
C109 O112 1.252 . S
C109 O113 1.260 . S
O110 In104 2.266 . S
O110 C107 1.252 . S
O111 In104 2.326 . S
O111 C107 1.260 . S
O112 In104 2.266 . S
O112 C109 1.252 . S
O113 In104 2.326 . S
O113 C109 1.260 . S
C114 O105 1.240 . S
C114 O106 1.252 . S
O115 In104 2.294 . S
O115 C108 1.240 . S
O116 In104 2.326 . S
O116 C108 1.252 . S
In117 O118 2.294 . S
In117 O119 2.326 1_655 S
In117 O123 2.266 . S
In117 O124 2.326 . S
In117 O125 2.266 1_655 S
In117 O126 2.326 1_655 S
In117 O128 2.294 . S
In117 O129 2.326 . S
O118 In117 2.294 . S
O118 C127 1.240 . S
O119 In117 2.326 1_455 S
O119 C127 1.252 1_455 S
C120 O123 1.252 . S
C120 O124 1.260 . S
C121 O128 1.240 . S
C121 O129 1.252 . S
C122 O125 1.252 . S
C122 O126 1.260 . S
O123 In117 2.266 . S
O123 C120 1.252 . S
O124 In117 2.326 . S
O124 C120 1.260 . S
O125 In117 2.266 1_455 S
O125 C122 1.252 . S
O126 In117 2.326 1_455 S
O126 C122 1.260 . S
C127 O118 1.240 . S
C127 O119 1.252 1_655 S
O128 In117 2.294 . S
O128 C121 1.240 . S
O129 In117 2.326 . S
O129 C121 1.252 . S
In130 O131 2.294 . S
In130 O132 2.326 . S
In130 O136 2.266 . S
In130 O137 2.326 . S
In130 O138 2.266 . S
In130 O139 2.326 . S
In130 O141 2.294 . S
In130 O142 2.326 . S
O131 In130 2.294 . S
O131 C140 1.240 . S
O132 In130 2.326 . S
O132 C140 1.252 . S
C133 O136 1.252 . S
C133 O137 1.260 . S
C134 O141 1.240 . S
C134 O142 1.252 . S
C135 O138 1.252 . S
C135 O139 1.260 . S
O136 In130 2.266 . S
O136 C133 1.252 . S
O137 In130 2.326 . S
O137 C133 1.260 . S
O138 In130 2.266 . S
O138 C135 1.252 . S
O139 In130 2.326 . S
O139 C135 1.260 . S
C140 O131 1.240 . S
C140 O132 1.252 . S
O141 In130 2.294 . S
O141 C134 1.240 . S
O142 In130 2.326 . S
O142 C134 1.252 . S
In143 O144 2.294 . S
In143 O145 2.326 . S
In143 O149 2.266 1_545 S
In143 O150 2.326 1_545 S
In143 O151 2.266 . S
In143 O152 2.326 . S
In143 O154 2.294 . S
In143 O155 2.326 1_545 S
O144 In143 2.294 . S
O144 C153 1.240 . S
O145 In143 2.326 . S
O145 C153 1.252 . S
C146 O149 1.252 . S
C146 O150 1.260 . S
C147 O154 1.240 . S
C147 O155 1.252 1_545 S
C148 O151 1.252 . S
C148 O152 1.260 . S
O149 In143 2.266 1_565 S
O149 C146 1.252 . S
O150 In143 2.326 1_565 S
O150 C146 1.260 . S
O151 In143 2.266 . S
O151 C148 1.252 . S
O152 In143 2.326 . S
O152 C148 1.260 . S
C153 O144 1.240 . S
C153 O145 1.252 . S
O154 In143 2.294 . S
O154 C147 1.240 . S
O155 In143 2.326 1_565 S
O155 C147 1.252 1_565 S
In156 O157 2.294 . S
In156 O158 2.326 . S
In156 O162 2.266 . S
In156 O163 2.326 . S
In156 O164 2.266 . S
In156 O165 2.326 . S
In156 O167 2.294 . S
In156 O168 2.326 . S
O157 In156 2.294 . S
O157 C166 1.240 . S
O158 In156 2.326 . S
O158 C166 1.252 . S
C159 O162 1.252 . S
C159 O163 1.260 . S
C160 O167 1.240 . S
C160 O168 1.252 . S
C161 O164 1.252 . S
C161 O165 1.260 . S
O162 In156 2.266 . S
O162 C159 1.252 . S
O163 In156 2.326 . S
O163 C159 1.260 . S
O164 In156 2.266 . S
O164 C161 1.252 . S
O165 In156 2.326 . S
O165 C161 1.260 . S
C166 O157 1.240 . S
C166 O158 1.252 . S
O167 In156 2.294 . S
O167 C160 1.240 . S
O168 In156 2.326 . S
O168 C160 1.252 . S
In169 O170 2.294 . S
In169 O171 2.326 . S
In169 O175 2.266 . S
In169 O176 2.326 . S
In169 O177 2.266 . S
In169 O178 2.326 . S
In169 O180 2.294 . S
In169 O181 2.326 . S
O170 In169 2.294 . S
O170 C179 1.240 . S
O171 In169 2.326 . S
O171 C179 1.252 . S
C172 O175 1.252 . S
C172 O176 1.260 . S
C173 O180 1.240 . S
C173 O181 1.252 . S
C174 O177 1.252 . S
C174 O178 1.260 . S
O175 In169 2.266 . S
O175 C172 1.252 . S
O176 In169 2.326 . S
O176 C172 1.260 . S
O177 In169 2.266 . S
O177 C174 1.252 . S
O178 In169 2.326 . S
O178 C174 1.260 . S
C179 O170 1.240 . S
C179 O171 1.252 . S
O180 In169 2.294 . S
O180 C173 1.240 . S
O181 In169 2.326 . S
O181 C173 1.252 . S
In182 O183 2.294 . S
In182 O184 2.326 . S
In182 O188 2.266 . S
In182 O189 2.326 . S
In182 O190 2.266 . S
In182 O191 2.326 . S
In182 O193 2.294 . S
In182 O194 2.326 . S
O183 In182 2.294 . S
O183 C192 1.240 . S
O184 In182 2.326 . S
O184 C192 1.252 . S
C185 O188 1.252 . S
C185 O189 1.260 . S
C186 O193 1.240 . S
C186 O194 1.252 . S
C187 O190 1.252 . S
C187 O191 1.260 . S
O188 In182 2.266 . S
O188 C185 1.252 . S
O189 In182 2.326 . S
O189 C185 1.260 . S
O190 In182 2.266 . S
O190 C187 1.252 . S
O191 In182 2.326 . S
O191 C187 1.260 . S
C192 O183 1.240 . S
C192 O184 1.252 . S
O193 In182 2.294 . S
O193 C186 1.240 . S
O194 In182 2.326 . S
O194 C186 1.252 . S
In195 O196 2.294 . S
In195 O197 2.326 . S
In195 O201 2.266 . S
In195 O202 2.326 . S
In195 O203 2.266 . S
In195 O204 2.326 . S
In195 O206 2.294 . S
In195 O207 2.326 . S
O196 In195 2.294 . S
O196 C205 1.240 . S
O197 In195 2.326 . S
O197 C205 1.252 . S
C198 O201 1.252 . S
C198 O202 1.260 . S
C199 O206 1.240 . S
C199 O207 1.252 . S
C200 O203 1.252 . S
C200 O204 1.260 . S
O201 In195 2.266 . S
O201 C198 1.252 . S
O202 In195 2.326 . S
O202 C198 1.260 . S
O203 In195 2.266 . S
O203 C200 1.252 . S
O204 In195 2.326 . S
O204 C200 1.260 . S
C205 O196 1.240 . S
C205 O197 1.252 . S
O206 In195 2.294 . S
O206 C199 1.240 . S
O207 In195 2.326 . S
O207 C199 1.252 . S
In208 O209 2.294 . S
In208 O210 2.326 . S
In208 O214 2.266 . S
In208 O215 2.326 . S
In208 O216 2.266 . S
In208 O217 2.326 . S
In208 O219 2.294 . S
In208 O220 2.326 . S
O209 In208 2.294 . S
O209 C218 1.240 . S
O210 In208 2.326 . S
O210 C218 1.252 . S
C211 O214 1.252 . S
C211 O215 1.260 . S
C212 O219 1.240 . S
C212 O220 1.252 . S
C213 O216 1.252 . S
C213 O217 1.260 . S
O214 In208 2.266 . S
O214 C211 1.252 . S
O215 In208 2.326 . S
O215 C211 1.260 . S
O216 In208 2.266 . S
O216 C213 1.252 . S
O217 In208 2.326 . S
O217 C213 1.260 . S
C218 O209 1.240 . S
C218 O210 1.252 . S
O219 In208 2.294 . S
O219 C212 1.240 . S
O220 In208 2.326 . S
O220 C212 1.252 . S
In221 O222 2.294 . S
In221 O223 2.326 . S
In221 O227 2.266 . S
In221 O228 2.326 . S
In221 O229 2.266 . S
In221 O230 2.326 . S
In221 O232 2.294 . S
In221 O233 2.326 . S
O222 In221 2.294 . S
O222 C231 1.240 . S
O223 In221 2.326 . S
O223 C231 1.252 . S
C224 O227 1.252 . S
C224 O228 1.260 . S
C225 O232 1.240 . S
C225 O233 1.252 . S
C226 O229 1.252 . S
C226 O230 1.260 . S
O227 In221 2.266 . S
O227 C224 1.252 . S
O228 In221 2.326 . S
O228 C224 1.260 . S
O229 In221 2.266 . S
O229 C226 1.252 . S
O230 In221 2.326 . S
O230 C226 1.260 . S
C231 O222 1.240 . S
C231 O223 1.252 . S
O232 In221 2.294 . S
O232 C225 1.240 . S
O233 In221 2.326 . S
O233 C225 1.252 . S
In234 O235 2.294 . S
In234 O236 2.326 . S
In234 O240 2.266 . S
In234 O241 2.326 . S
In234 O242 2.266 . S
In234 O243 2.326 . S
In234 O245 2.294 . S
In234 O246 2.326 . S
O235 In234 2.294 . S
O235 C244 1.240 . S
O236 In234 2.326 . S
O236 C244 1.252 . S
C237 O240 1.252 . S
C237 O241 1.260 . S
C238 O245 1.240 . S
C238 O246 1.252 . S
C239 O242 1.252 . S
C239 O243 1.260 . S
O240 In234 2.266 . S
O240 C237 1.252 . S
O241 In234 2.326 . S
O241 C237 1.260 . S
O242 In234 2.266 . S
O242 C239 1.252 . S
O243 In234 2.326 . S
O243 C239 1.260 . S
C244 O235 1.240 . S
C244 O236 1.252 . S
O245 In234 2.294 . S
O245 C238 1.240 . S
O246 In234 2.326 . S
O246 C238 1.252 . S
In247 O248 2.294 . S
In247 O249 2.326 . S
In247 O253 2.266 . S
In247 O254 2.326 . S
In247 O255 2.266 . S
In247 O256 2.326 . S
In247 O258 2.294 . S
In247 O259 2.326 . S
O248 In247 2.294 . S
O248 C257 1.240 . S
O249 In247 2.326 . S
O249 C257 1.252 . S
C250 O253 1.252 . S
C250 O254 1.260 . S
C251 O258 1.240 . S
C251 O259 1.252 . S
C252 O255 1.252 . S
C252 O256 1.260 . S
O253 In247 2.266 . S
O253 C250 1.252 . S
O254 In247 2.326 . S
O254 C250 1.260 . S
O255 In247 2.266 . S
O255 C252 1.252 . S
O256 In247 2.326 . S
O256 C252 1.260 . S
C257 O248 1.240 . S
C257 O249 1.252 . S
O258 In247 2.294 . S
O258 C251 1.240 . S
O259 In247 2.326 . S
O259 C251 1.252 . S
In260 O261 2.294 . S
In260 O262 2.326 . S
In260 O266 2.266 . S
In260 O267 2.326 . S
In260 O268 2.266 . S
In260 O269 2.326 . S
In260 O271 2.294 . S
In260 O272 2.326 . S
O261 In260 2.294 . S
O261 C270 1.240 . S
O262 In260 2.326 . S
O262 C270 1.252 . S
C263 O266 1.252 . S
C263 O267 1.260 . S
C264 O271 1.240 . S
C264 O272 1.252 . S
C265 O268 1.252 . S
C265 O269 1.260 . S
O266 In260 2.266 . S
O266 C263 1.252 . S
O267 In260 2.326 . S
O267 C263 1.260 . S
O268 In260 2.266 . S
O268 C265 1.252 . S
O269 In260 2.326 . S
O269 C265 1.260 . S
C270 O261 1.240 . S
C270 O262 1.252 . S
O271 In260 2.294 . S
O271 C264 1.240 . S
O272 In260 2.326 . S
O272 C264 1.252 . S
In273 O274 2.294 . S
In273 O275 2.326 . S
In273 O279 2.266 . S
In273 O280 2.326 . S
In273 O281 2.266 . S
In273 O282 2.326 . S
In273 O284 2.294 . S
In273 O285 2.326 . S
O274 In273 2.294 . S
O274 C283 1.240 . S
O275 In273 2.326 . S
O275 C283 1.252 . S
C276 O279 1.252 . S
C276 O280 1.260 . S
C277 O284 1.240 . S
C277 O285 1.252 . S
C278 O281 1.252 . S
C278 O282 1.260 . S
O279 In273 2.266 . S
O279 C276 1.252 . S
O280 In273 2.326 . S
O280 C276 1.260 . S
O281 In273 2.266 . S
O281 C278 1.252 . S
O282 In273 2.326 . S
O282 C278 1.260 . S
C283 O274 1.240 . S
C283 O275 1.252 . S
O284 In273 2.294 . S
O284 C277 1.240 . S
O285 In273 2.326 . S
O285 C277 1.252 . S
In286 O287 2.294 . S
In286 O288 2.326 . S
In286 O292 2.266 . S
In286 O293 2.326 . S
In286 O294 2.266 . S
In286 O295 2.326 . S
In286 O297 2.294 . S
In286 O298 2.326 . S
O287 In286 2.294 . S
O287 C296 1.240 . S
O288 In286 2.326 . S
O288 C296 1.252 . S
C289 O292 1.252 . S
C289 O293 1.260 . S
C290 O297 1.240 . S
C290 O298 1.252 . S
C291 O294 1.252 . S
C291 O295 1.260 . S
O292 In286 2.266 . S
O292 C289 1.252 . S
O293 In286 2.326 . S
O293 C289 1.260 . S
O294 In286 2.266 . S
O294 C291 1.252 . S
O295 In286 2.326 . S
O295 C291 1.260 . S
C296 O287 1.240 . S
C296 O288 1.252 . S
O297 In286 2.294 . S
O297 C290 1.240 . S
O298 In286 2.326 . S
O298 C290 1.252 . S
In299 O300 2.294 . S
In299 O301 2.326 . S
In299 O305 2.266 . S
In299 O306 2.326 . S
In299 O307 2.266 . S
In299 O308 2.326 . S
In299 O310 2.294 . S
In299 O311 2.326 . S
O300 In299 2.294 . S
O300 C309 1.240 . S
O301 In299 2.326 . S
O301 C309 1.252 . S
C302 O305 1.252 . S
C302 O306 1.260 . S
C303 O310 1.240 . S
C303 O311 1.252 . S
C304 O307 1.252 . S
C304 O308 1.260 . S
O305 In299 2.266 . S
O305 C302 1.252 . S
O306 In299 2.326 . S
O306 C302 1.260 . S
O307 In299 2.266 . S
O307 C304 1.252 . S
O308 In299 2.326 . S
O308 C304 1.260 . S
C309 O300 1.240 . S
C309 O301 1.252 . S
O310 In299 2.294 . S
O310 C303 1.240 . S
O311 In299 2.326 . S
O311 C303 1.252 . S
In312 O313 2.294 . S
In312 O314 2.326 . S
In312 O318 2.266 . S
In312 O319 2.326 . S
In312 O320 2.266 . S
In312 O321 2.326 . S
In312 O323 2.294 . S
In312 O324 2.326 . S
O313 In312 2.294 . S
O313 C322 1.240 . S
O314 In312 2.326 . S
O314 C322 1.252 . S
C315 O318 1.252 . S
C315 O319 1.260 . S
C316 O323 1.240 . S
C316 O324 1.252 . S
C317 O320 1.252 . S
C317 O321 1.260 . S
O318 In312 2.266 . S
O318 C315 1.252 . S
O319 In312 2.326 . S
O319 C315 1.260 . S
O320 In312 2.266 . S
O320 C317 1.252 . S
O321 In312 2.326 . S
O321 C317 1.260 . S
C322 O313 1.240 . S
C322 O314 1.252 . S
O323 In312 2.294 . S
O323 C316 1.240 . S
O324 In312 2.326 . S
O324 C316 1.252 . S
In325 O326 2.294 . S
In325 O327 2.326 . S
In325 O331 2.266 . S
In325 O332 2.326 . S
In325 O333 2.266 . S
In325 O334 2.326 . S
In325 O336 2.294 . S
In325 O337 2.326 . S
O326 In325 2.294 . S
O326 C335 1.240 . S
O327 In325 2.326 . S
O327 C335 1.252 . S
C328 O331 1.252 . S
C328 O332 1.260 . S
C329 O336 1.240 . S
C329 O337 1.252 . S
C330 O333 1.252 . S
C330 O334 1.260 . S
O331 In325 2.266 . S
O331 C328 1.252 . S
O332 In325 2.326 . S
O332 C328 1.260 . S
O333 In325 2.266 . S
O333 C330 1.252 . S
O334 In325 2.326 . S
O334 C330 1.260 . S
C335 O326 1.240 . S
C335 O327 1.252 . S
O336 In325 2.294 . S
O336 C329 1.240 . S
O337 In325 2.326 . S
O337 C329 1.252 . S
In338 O339 2.294 . S
In338 O340 2.326 . S
In338 O344 2.266 . S
In338 O345 2.326 . S
In338 O346 2.266 . S
In338 O347 2.326 . S
In338 O349 2.294 . S
In338 O350 2.326 . S
O339 In338 2.294 . S
O339 C348 1.240 . S
O340 In338 2.326 . S
O340 C348 1.252 . S
C341 O344 1.252 . S
C341 O345 1.260 . S
C342 O349 1.240 . S
C342 O350 1.252 . S
C343 O346 1.252 . S
C343 O347 1.260 . S
O344 In338 2.266 . S
O344 C341 1.252 . S
O345 In338 2.326 . S
O345 C341 1.260 . S
O346 In338 2.266 . S
O346 C343 1.252 . S
O347 In338 2.326 . S
O347 C343 1.260 . S
C348 O339 1.240 . S
C348 O340 1.252 . S
O349 In338 2.294 . S
O349 C342 1.240 . S
O350 In338 2.326 . S
O350 C342 1.252 . S
In351 O352 2.294 . S
In351 O353 2.326 . S
In351 O357 2.266 . S
In351 O358 2.326 . S
In351 O359 2.266 . S
In351 O360 2.326 . S
In351 O362 2.294 . S
In351 O363 2.326 . S
O352 In351 2.294 . S
O352 C361 1.240 . S
O353 In351 2.326 . S
O353 C361 1.252 . S
C354 O357 1.252 . S
C354 O358 1.260 . S
C355 O362 1.240 . S
C355 O363 1.252 . S
C356 O359 1.252 . S
C356 O360 1.260 . S
O357 In351 2.266 . S
O357 C354 1.252 . S
O358 In351 2.326 . S
O358 C354 1.260 . S
O359 In351 2.266 . S
O359 C356 1.252 . S
O360 In351 2.326 . S
O360 C356 1.260 . S
C361 O352 1.240 . S
C361 O353 1.252 . S
O362 In351 2.294 . S
O362 C355 1.240 . S
O363 In351 2.326 . S
O363 C355 1.252 . S
In364 O365 2.294 . S
In364 O366 2.326 . S
In364 O370 2.266 . S
In364 O371 2.326 . S
In364 O372 2.266 . S
In364 O373 2.326 . S
In364 O375 2.294 . S
In364 O376 2.326 . S
O365 In364 2.294 . S
O365 C374 1.240 . S
O366 In364 2.326 . S
O366 C374 1.252 . S
C367 O370 1.252 . S
C367 O371 1.260 . S
C368 O375 1.240 . S
C368 O376 1.252 . S
C369 O372 1.252 . S
C369 O373 1.260 . S
O370 In364 2.266 . S
O370 C367 1.252 . S
O371 In364 2.326 . S
O371 C367 1.260 . S
O372 In364 2.266 . S
O372 C369 1.252 . S
O373 In364 2.326 . S
O373 C369 1.260 . S
C374 O365 1.240 . S
C374 O366 1.252 . S
O375 In364 2.294 . S
O375 C368 1.240 . S
O376 In364 2.326 . S
O376 C368 1.252 . S
In377 O378 2.294 . S
In377 O379 2.326 . S
In377 O383 2.266 . S
In377 O384 2.326 . S
In377 O385 2.266 . S
In377 O386 2.326 . S
In377 O388 2.294 . S
In377 O389 2.326 . S
O378 In377 2.294 . S
O378 C387 1.240 . S
O379 In377 2.326 . S
O379 C387 1.252 . S
C380 O383 1.252 . S
C380 O384 1.260 . S
C381 O388 1.240 . S
C381 O389 1.252 . S
C382 O385 1.252 . S
C382 O386 1.260 . S
O383 In377 2.266 . S
O383 C380 1.252 . S
O384 In377 2.326 . S
O384 C380 1.260 . S
O385 In377 2.266 . S
O385 C382 1.252 . S
O386 In377 2.326 . S
O386 C382 1.260 . S
C387 O378 1.240 . S
C387 O379 1.252 . S
O388 In377 2.294 . S
O388 C381 1.240 . S
O389 In377 2.326 . S
O389 C381 1.252 . S
In390 O391 2.294 . S
In390 O392 2.326 . S
In390 O396 2.266 . S
In390 O397 2.326 . S
In390 O398 2.266 . S
In390 O399 2.326 . S
In390 O401 2.294 . S
In390 O402 2.326 . S
O391 In390 2.294 . S
O391 C400 1.240 . S
O392 In390 2.326 . S
O392 C400 1.252 . S
C393 O396 1.252 . S
C393 O397 1.260 . S
C394 O401 1.240 . S
C394 O402 1.252 . S
C395 O398 1.252 . S
C395 O399 1.260 . S
O396 In390 2.266 . S
O396 C393 1.252 . S
O397 In390 2.326 . S
O397 C393 1.260 . S
O398 In390 2.266 . S
O398 C395 1.252 . S
O399 In390 2.326 . S
O399 C395 1.260 . S
C400 O391 1.240 . S
C400 O392 1.252 . S
O401 In390 2.294 . S
O401 C394 1.240 . S
O402 In390 2.326 . S
O402 C394 1.252 . S
In403 O404 2.294 . S
In403 O405 2.326 . S
In403 O409 2.266 . S
In403 O410 2.326 . S
In403 O411 2.266 . S
In403 O412 2.326 . S
In403 O414 2.294 . S
In403 O415 2.326 . S
O404 In403 2.294 . S
O404 C413 1.240 . S
O405 In403 2.326 . S
O405 C413 1.252 . S
C406 O409 1.252 . S
C406 O410 1.260 . S
C407 O414 1.240 . S
C407 O415 1.252 . S
C408 O411 1.252 . S
C408 O412 1.260 . S
O409 In403 2.266 . S
O409 C406 1.252 . S
O410 In403 2.326 . S
O410 C406 1.260 . S
O411 In403 2.266 . S
O411 C408 1.252 . S
O412 In403 2.326 . S
O412 C408 1.260 . S
C413 O404 1.240 . S
C413 O405 1.252 . S
O414 In403 2.294 . S
O414 C407 1.240 . S
O415 In403 2.326 . S
O415 C407 1.252 . S
In416 O417 2.294 . S
In416 O418 2.326 . S
In416 O422 2.266 . S
In416 O423 2.326 . S
In416 O424 2.266 . S
In416 O425 2.326 . S
In416 O427 2.294 . S
In416 O428 2.326 . S
O417 In416 2.294 . S
O417 C426 1.240 . S
O418 In416 2.326 . S
O418 C426 1.252 . S
C419 O422 1.252 . S
C419 O423 1.260 . S
C420 O427 1.240 . S
C420 O428 1.252 . S
C421 O424 1.252 . S
C421 O425 1.260 . S
O422 In416 2.266 . S
O422 C419 1.252 . S
O423 In416 2.326 . S
O423 C419 1.260 . S
O424 In416 2.266 . S
O424 C421 1.252 . S
O425 In416 2.326 . S
O425 C421 1.260 . S
C426 O417 1.240 . S
C426 O418 1.252 . S
O427 In416 2.294 . S
O427 C420 1.240 . S
O428 In416 2.326 . S
O428 C420 1.252 . S
In429 O430 2.294 . S
In429 O431 2.326 . S
In429 O435 2.266 . S
In429 O436 2.326 . S
In429 O437 2.266 . S
In429 O438 2.326 . S
In429 O440 2.294 . S
In429 O441 2.326 . S
O430 In429 2.294 . S
O430 C439 1.240 . S
O431 In429 2.326 . S
O431 C439 1.252 . S
C432 O435 1.252 . S
C432 O436 1.260 . S
C433 O440 1.240 . S
C433 O441 1.252 . S
C434 O437 1.252 . S
C434 O438 1.260 . S
O435 In429 2.266 . S
O435 C432 1.252 . S
O436 In429 2.326 . S
O436 C432 1.260 . S
O437 In429 2.266 . S
O437 C434 1.252 . S
O438 In429 2.326 . S
O438 C434 1.260 . S
C439 O430 1.240 . S
C439 O431 1.252 . S
O440 In429 2.294 . S
O440 C433 1.240 . S
O441 In429 2.326 . S
O441 C433 1.252 . S
In442 O443 2.294 . S
In442 O444 2.326 . S
In442 O448 2.266 . S
In442 O449 2.326 . S
In442 O450 2.266 . S
In442 O451 2.326 . S
In442 O453 2.294 . S
In442 O454 2.326 . S
O443 In442 2.294 . S
O443 C452 1.240 . S
O444 In442 2.326 . S
O444 C452 1.252 . S
C445 O448 1.252 . S
C445 O449 1.260 . S
C446 O453 1.240 . S
C446 O454 1.252 . S
C447 O450 1.252 . S
C447 O451 1.260 . S
O448 In442 2.266 . S
O448 C445 1.252 . S
O449 In442 2.326 . S
O449 C445 1.260 . S
O450 In442 2.266 . S
O450 C447 1.252 . S
O451 In442 2.326 . S
O451 C447 1.260 . S
C452 O443 1.240 . S
C452 O444 1.252 . S
O453 In442 2.294 . S
O453 C446 1.240 . S
O454 In442 2.326 . S
O454 C446 1.252 . S
In455 O456 2.294 . S
In455 O457 2.326 . S
In455 O461 2.266 . S
In455 O462 2.326 . S
In455 O463 2.266 . S
In455 O464 2.326 . S
In455 O466 2.294 . S
In455 O467 2.326 . S
O456 In455 2.294 . S
O456 C465 1.240 . S
O457 In455 2.326 . S
O457 C465 1.252 . S
C458 O461 1.252 . S
C458 O462 1.260 . S
C459 O466 1.240 . S
C459 O467 1.252 . S
C460 O463 1.252 . S
C460 O464 1.260 . S
O461 In455 2.266 . S
O461 C458 1.252 . S
O462 In455 2.326 . S
O462 C458 1.260 . S
O463 In455 2.266 . S
O463 C460 1.252 . S
O464 In455 2.326 . S
O464 C460 1.260 . S
C465 O456 1.240 . S
C465 O457 1.252 . S
O466 In455 2.294 . S
O466 C459 1.240 . S
O467 In455 2.326 . S
O467 C459 1.252 . S
C4 C238 1.554 . S
C257 C17 1.555 . S
C270 C30 1.555 . S
C43 C433 1.554 . S
C62 C446 1.554 . S
C75 C459 1.554 . S
C316 C82 1.554 . S
C95 C335 1.555 . S
C114 C348 1.555 . S
C205 C121 1.554 . S
C218 C134 1.554 . S
C225 C153 1.554 . S
C394 C160 1.554 1_455 S
C407 C179 1.554 . S
C186 C426 1.554 1_545 S
C361 C283 1.554 1_564 S
C296 C368 1.554 1_656 S
C309 C387 1.554 1_556 S
C10 C355 2.104 1_545 S
C374 C23 2.104 1_455 S
C381 C36 2.104 . S
C166 C49 2.104 1_655 S
C173 C56 2.104 . S
C192 C69 2.104 1_545 S
C88 C277 2.104 1_565 S
C290 C101 2.104 1_655 S
C303 C108 2.104 . S
C127 C400 2.104 1_655 S
C140 C413 2.104 . S
C147 C420 2.104 1_545 S
C199 C322 2.104 . S
C212 C329 2.104 1_545 S
C231 C342 2.104 1_655 S
C244 C439 2.104 . S
C452 C251 2.104 1_565 S
C264 C465 2.104 1_655 S
C18 C3 1.690 . S
C16 C31 1.690 1_545 S
C29 C5 1.690 1_655 S
C42 C68 1.690 . S
C44 C57 1.690 1_545 S
C70 C55 1.690 1_455 S
C81 C96 1.690 . S
C94 C107 1.690 1_565 S
C109 C83 1.690 1_455 S
C146 C120 1.690 . S
C133 C122 1.690 1_545 S
C135 C148 1.690 1_455 S
C172 C159 1.690 . S
C187 C174 1.690 . S
C161 C185 1.690 . S
C200 C226 1.690 . S
C213 C198 1.690 . S
C224 C211 1.690 . S
C250 C237 1.690 . S
C252 C263 1.690 . S
C265 C239 1.690 . S
C278 C302 1.690 . S
C291 C276 1.690 . S
C289 C304 1.690 . S
C328 C315 1.690 . S
C330 C341 1.690 . S
C317 C343 1.690 . S
C356 C380 1.690 . S
C367 C354 1.690 . S
C382 C369 1.690 . S
C393 C408 1.690 . S
C406 C419 1.690 . S
C421 C395 1.690 . S
C432 C460 1.690 . S
C445 C434 1.690 . S
C447 C458 1.690 . S
