# Generated by pormake.
# Topology fnz, (5)-cn, num edge types: 1
# Building blocks:
#     Node 0, Type 0, BuildingBlock: XOMCOT_clean_sbu_1, # of connection points: 5
#     Node 1, Type 0, BuildingBlock: XOMCOT_clean_sbu_1, # of connection points: 5
#     Node 2, Type 0, BuildingBlock: XOMCOT_clean_sbu_1, # of connection points: 5
#     Node 3, Type 0, BuildingBlock: XOMCOT_clean_sbu_1, # of connection points: 5
#     Node 4, Type 0, BuildingBlock: XOMCOT_clean_sbu_1, # of connection points: 5
#     Node 5, Type 0, BuildingBlock: XOMCOT_clean_sbu_1, # of connection points: 5
#     Node 6, Type 0, BuildingBlock: XOMCOT_clean_sbu_1, # of connection points: 5
#     Node 7, Type 0, BuildingBlock: XOMCOT_clean_sbu_1, # of connection points: 5
#     Node 8, Type 0, BuildingBlock: XOMCOT_clean_sbu_1, # of connection points: 5
#     Node 9, Type 0, BuildingBlock: XOMCOT_clean_sbu_1, # of connection points: 5
#     Node 10, Type 0, BuildingBlock: XOMCOT_clean_sbu_1, # of connection points: 5
#     Node 11, Type 0, BuildingBlock: XOMCOT_clean_sbu_1, # of connection points: 5
#     Edge 12, Type (0, 0), BuildingBlock: ZUJKAS_clean_linker_0, # of connection points: 2
#     Edge 13, Type (0, 0), BuildingBlock: ZUJKAS_clean_linker_0, # of connection points: 2
#     Edge 14, Type (0, 0), BuildingBlock: ZUJKAS_clean_linker_0, # of connection points: 2
#     Edge 15, Type (0, 0), BuildingBlock: ZUJKAS_clean_linker_0, # of connection points: 2
#     Edge 16, Type (0, 0), BuildingBlock: ZUJKAS_clean_linker_0, # of connection points: 2
#     Edge 17, Type (0, 0), BuildingBlock: ZUJKAS_clean_linker_0, # of connection points: 2
#     Edge 18, Type (0, 0), BuildingBlock: ZUJKAS_clean_linker_0, # of connection points: 2
#     Edge 19, Type (0, 0), BuildingBlock: ZUJKAS_clean_linker_0, # of connection points: 2
#     Edge 20, Type (0, 0), BuildingBlock: ZUJKAS_clean_linker_0, # of connection points: 2
#     Edge 21, Type (0, 0), BuildingBlock: ZUJKAS_clean_linker_0, # of connection points: 2
#     Edge 22, Type (0, 0), BuildingBlock: ZUJKAS_clean_linker_0, # of connection points: 2
#     Edge 23, Type (0, 0), BuildingBlock: ZUJKAS_clean_linker_0, # of connection points: 2
#     Edge 24, Type (0, 0), BuildingBlock: ZUJKAS_clean_linker_0, # of connection points: 2
#     Edge 25, Type (0, 0), BuildingBlock: ZUJKAS_clean_linker_0, # of connection points: 2
#     Edge 26, Type (0, 0), BuildingBlock: ZUJKAS_clean_linker_0, # of connection points: 2
#     Edge 27, Type (0, 0), BuildingBlock: ZUJKAS_clean_linker_0, # of connection points: 2
#     Edge 28, Type (0, 0), BuildingBlock: ZUJKAS_clean_linker_0, # of connection points: 2
#     Edge 29, Type (0, 0), BuildingBlock: ZUJKAS_clean_linker_0, # of connection points: 2
#     Edge 30, Type (0, 0), BuildingBlock: ZUJKAS_clean_linker_0, # of connection points: 2
#     Edge 31, Type (0, 0), BuildingBlock: ZUJKAS_clean_linker_0, # of connection points: 2
#     Edge 32, Type (0, 0), BuildingBlock: ZUJKAS_clean_linker_0, # of connection points: 2
#     Edge 33, Type (0, 0), BuildingBlock: ZUJKAS_clean_linker_0, # of connection points: 2
#     Edge 34, Type (0, 0), BuildingBlock: ZUJKAS_clean_linker_0, # of connection points: 2
#     Edge 35, Type (0, 0), BuildingBlock: ZUJKAS_clean_linker_0, # of connection points: 2
#     Edge 36, Type (0, 0), BuildingBlock: ZUJKAS_clean_linker_0, # of connection points: 2
#     Edge 37, Type (0, 0), BuildingBlock: ZUJKAS_clean_linker_0, # of connection points: 2
#     Edge 38, Type (0, 0), BuildingBlock: ZUJKAS_clean_linker_0, # of connection points: 2
#     Edge 39, Type (0, 0), BuildingBlock: ZUJKAS_clean_linker_0, # of connection points: 2
#     Edge 40, Type (0, 0), BuildingBlock: ZUJKAS_clean_linker_0, # of connection points: 2
#     Edge 41, Type (0, 0), BuildingBlock: ZUJKAS_clean_linker_0, # of connection points: 2
# Relax obj value: 0.375
# Max RMSD: 0.283
# Mean RMSD: 0.283
data_MOF--net-fnz--node1-XOMCOT_clean_sbu_1--edge1-ZUJKAS_clean_linker_0
_symmetry_space_group_name_H-M    P1
_symmetry_Int_Tables_number       1
_symmetry_cell_setting            triclinic
loop_
_symmetry_equiv_pos_as_xyz
'x, y, z'
_cell_length_a     57.006202
_cell_length_b     56.742097
_cell_length_c     34.932411
_cell_angle_alpha  89.848118
_cell_angle_beta   90.185117
_cell_angle_gamma 119.96299
loop_
_atom_site_label
_atom_site_type_symbol
_atom_site_fract_x
_atom_site_fract_y
_atom_site_fract_z
_atom_type_partial_charge
C0 C 0.47406 0.14935 1.00245 0.0
C1 C 0.48387 0.13157 1.00075 0.0
N2 N 0.46307 0.10633 1.00693 0.0
N3 N 0.44719 0.13536 1.00996 0.0
C4 C 0.44115 0.1091 1.01166 0.0
H5 H 0.48593 0.1712 0.99916 0.0
Co6 Co 0.42303 0.14899 1.01378 0.0
C7 C 0.45861 0.1728 0.08465 0.0
O8 O 0.4707 0.15837 0.08147 0.0
N9 N 0.39916 0.16252 1.01733 0.0
C10 C 0.37036 0.17409 0.04164 0.0
C11 C 0.38494 0.16131 0.04886 0.0
C12 C 0.39312 0.17646 0.99142 0.0
N13 N 0.37559 0.18368 1.00556 0.0
O14 O 0.44599 0.17877 0.9803 0.0
H15 H 0.38567 0.15233 0.07586 0.0
H16 H 0.40168 0.18166 0.96298 0.0
O17 O 0.44089 0.17024 0.05991 0.0
C18 C 0.4426 0.16936 0.94627 0.0
O19 O 0.42579 0.14327 0.94096 0.0
N20 N 0.39887 0.11834 0.04238 0.0
C21 C 0.36156 0.06627 0.06755 0.0
C22 C 0.38438 0.08311 0.08986 0.0
C23 C 0.40276 0.10943 0.07696 0.0
C24 C 0.37641 0.10238 0.02105 0.0
C25 C 0.35733 0.07647 0.03331 0.0
H26 H 0.42072 0.12166 0.09359 0.0
H27 H 0.37393 0.10947 0.99337 0.0
H28 H 0.42099 0.09204 1.0158 0.0
H29 H 0.50473 0.13684 0.99646 0.0
H30 H 0.3579 0.17726 0.06197 0.0
H31 H 0.38834 0.07573 0.11633 0.0
H32 H 0.34021 0.0639 1.01499 0.0
C33 C 0.34596 0.5032 0.08558 0.0
C34 C 0.37309 0.51793 0.0772 0.0
N35 N 0.37802 0.50642 0.04691 0.0
N36 N 0.33342 0.4823 0.06074 0.0
C37 C 0.35353 0.48541 0.03695 0.0
H38 H 0.33647 0.50727 0.10935 0.0
Co39 Co 0.29707 0.45288 0.06294 0.0
C40 C 0.28886 0.46574 0.13102 0.0
O41 O 0.29817 0.44885 0.13534 0.0
N42 N 0.26164 0.42405 0.06554 0.0
C43 C 0.22548 0.38294 0.07196 0.0
C44 C 0.25331 0.39743 0.07089 0.0
C45 C 0.23864 0.42535 0.06425 0.0
N46 N 0.21642 0.40062 0.06806 0.0
O47 O 0.28771 0.46629 1.0175 0.0
H48 H 0.26657 0.38906 0.0742 0.0
H49 H 0.23819 0.44407 0.06062 0.0
O50 O 0.28705 0.47307 0.09705 0.0
C51 C 0.29506 0.49004 1.00467 0.0
O52 O 0.31116 0.51153 0.02517 0.0
N53 N 0.30638 0.43145 0.03312 0.0
C54 C 0.32081 0.39635 0.99857 0.0
C55 C 0.32922 0.40576 0.03597 0.0
C56 C 0.32149 0.423 0.05284 0.0
C57 C 0.29774 0.42248 0.99671 0.0
C58 C 0.30479 0.40482 0.97886 0.0
H59 H 0.32744 0.42968 0.08204 0.0
H60 H 0.28484 0.42828 0.98161 0.0
H61 H 0.3506 0.47155 1.01394 0.0
H62 H 0.38806 0.53518 0.09333 0.0
H63 H 0.21288 0.36122 0.07622 0.0
H64 H 0.34095 0.39912 0.05259 0.0
H65 H 0.29762 0.39769 0.95013 0.0
C66 C 0.84634 0.33002 0.99942 0.0
C67 C 0.86191 0.35784 1.00402 0.0
N68 N 0.88609 0.36643 0.98701 0.0
N69 N 0.86069 0.3211 0.97978 0.0
C70 C 0.88452 0.34373 0.97218 0.0
H71 H 0.82618 0.31709 1.01056 0.0
Co72 Co 0.85255 0.28567 0.96809 0.0
C73 C 0.82833 0.25355 0.03843 0.0
O74 O 0.84306 0.24203 0.03227 0.0
N75 N 0.84404 0.24982 0.95499 0.0
C76 C 0.84357 0.21224 0.9354 0.0
C77 C 0.85937 0.23979 0.9409 0.0
C78 C 0.81876 0.22786 0.95635 0.0
N79 N 0.81801 0.2047 0.94535 0.0
O80 O 0.8222 0.28021 0.93729 0.0
H81 H 0.88064 0.25124 0.93448 0.0
H82 H 0.80133 0.22879 0.96649 0.0
O83 O 0.8299 0.27179 1.01508 0.0
C84 C 0.83054 0.29141 0.90462 0.0
O85 O 0.85677 0.30672 0.89937 0.0
N86 N 0.88419 0.29262 0.99461 0.0
C87 C 0.93718 0.31415 0.02193 0.0
C88 C 0.91605 0.30982 0.04679 0.0
C89 C 0.88973 0.29945 0.03242 0.0
C90 C 0.90468 0.29767 0.97009 0.0
C91 C 0.93098 0.30746 0.98319 0.0
H92 H 0.8744 0.2987 0.05126 0.0
H93 H 0.9009 0.29568 0.93961 0.0
H94 H 0.9009 0.34326 0.95742 0.0
H95 H 0.85593 0.37057 1.01923 0.0
H96 H 0.85044 0.19885 0.92464 0.0
H97 H 0.92001 0.31568 0.07661 0.0
H98 H 0.94643 0.31051 0.96266 0.0
C99 C 0.49381 0.83635 0.07486 0.0
C100 C 0.4779 0.84821 0.07155 0.0
N101 N 0.49404 0.87521 0.07536 0.0
N102 N 0.52002 0.85587 0.07957 0.0
C103 C 0.51922 0.8793 0.08062 0.0
H104 H 0.48684 0.81486 0.07218 0.0
Co105 Co 0.54944 0.84916 0.08156 0.0
C106 C 0.53031 0.82533 0.14721 0.0
O107 O 0.54414 0.85163 0.15391 0.0
N108 N 0.57775 0.84204 0.08481 0.0
C109 C 0.61669 0.84476 0.10091 0.0
C110 C 0.60247 0.85844 0.09986 0.0
C111 C 0.5772 0.81843 0.07739 0.0
N112 N 0.6007 0.81952 0.08694 0.0
O113 O 0.53689 0.82801 0.03307 0.0
H114 H 0.60939 0.87867 0.11078 0.0
H115 H 0.55961 0.80059 0.06613 0.0
O116 O 0.52794 0.8174 0.11253 0.0
C117 C 0.52679 0.83302 1.0033 0.0
O118 O 0.52382 0.85455 1.00296 0.0
N119 N 0.5726 0.88183 0.05532 0.0
C120 C 0.61119 0.93328 0.02861 0.0
C121 C 0.60137 0.92969 0.06614 0.0
C122 C 0.58262 0.90377 0.07906 0.0
C123 C 0.58336 0.88453 0.01954 0.0
C124 C 0.60212 0.91024 1.00524 0.0
H125 H 0.57585 0.90105 0.10847 0.0
H126 H 0.5784 0.86695 1.00221 0.0
H127 H 0.53661 0.89932 0.08337 0.0
H128 H 0.45634 0.83793 0.06596 0.0
H129 H 0.63677 0.8524 0.11273 0.0
H130 H 0.60807 0.94676 0.08548 0.0
H131 H 0.61016 0.91195 0.97668 0.0
C132 C 0.66608 0.51481 1.00479 0.0
C133 C 0.6388 0.50444 0.99815 0.0
N134 N 0.63358 0.52507 1.00034 0.0
N135 N 0.67792 0.54179 1.01157 0.0
C136 C 0.65763 0.54741 1.00766 0.0
H137 H 0.67654 0.5033 1.00525 0.0
Co138 Co 0.71462 0.567 0.0214 0.0
C139 C 0.70112 0.52864 0.09047 0.0
O140 O 0.67475 0.51487 0.08572 0.0
N141 N 0.75121 0.59199 0.03171 0.0
C142 C 0.78811 0.61995 0.06492 0.0
C143 C 0.76043 0.60628 0.06462 0.0
C144 C 0.77393 0.59707 1.01273 0.0
N145 N 0.79663 0.61404 0.03242 0.0
O146 O 0.72513 0.54681 0.98777 0.0
H147 H 0.74789 0.60565 0.08819 0.0
H148 H 0.77394 0.5877 0.98582 0.0
O149 O 0.71595 0.5475 0.06694 0.0
C150 C 0.72179 0.55265 0.95352 0.0
O151 O 0.71267 0.56965 0.94869 0.0
N152 N 0.70436 0.58844 0.04968 0.0
C153 C 0.68707 0.62359 0.07573 0.0
C154 C 0.68002 0.5994 0.09558 0.0
C155 C 0.68907 0.58205 0.08217 0.0
C156 C 0.71143 0.61192 0.03034 0.0
C157 C 0.70329 0.62989 0.04306 0.0
H158 H 0.68273 0.56315 0.0969 0.0
H159 H 0.72287 0.61628 1.00407 0.0
H160 H 0.66037 0.56764 1.00972 0.0
H161 H 0.6239 0.48333 0.99312 0.0
H162 H 0.80094 0.63174 0.08852 0.0
H163 H 0.66732 0.59379 0.12078 0.0
H164 H 0.70868 0.64803 0.02641 0.0
C165 C 0.15443 0.66227 0.93635 0.0
C166 C 0.14009 0.63433 0.93827 0.0
N167 N 0.12712 0.62689 0.97217 0.0
N168 N 0.15074 0.67266 0.96894 0.0
C169 C 0.13469 0.65057 0.99061 0.0
H170 H 0.16466 0.67399 0.91121 0.0
Co171 Co 0.15726 0.70839 0.97564 0.0
C172 C 0.19047 0.70403 0.03893 0.0
O173 O 0.19839 0.69007 1.01806 0.0
N174 N 0.16326 0.74356 0.98217 0.0
C175 C 0.15788 0.77965 0.98064 0.0
C176 C 0.14682 0.75282 0.97028 0.0
C177 C 0.18429 0.76509 0.99933 0.0
N178 N 0.18146 0.78736 0.99902 0.0
O179 O 0.19079 0.72285 0.9476 0.0
H180 H 0.12802 0.7408 0.95493 0.0
H181 H 0.20121 0.76433 1.0121 0.0
O182 O 0.17468 0.71157 0.02461 0.0
C183 C 0.186 0.72921 0.9145 0.0
O184 O 0.16138 0.7243 0.90684 0.0
N185 N 0.12362 0.69478 0.99864 0.0
C186 C 0.07015 0.67397 0.02104 0.0
C187 C 0.09134 0.68802 0.04736 0.0
C188 C 0.11819 0.69833 0.03553 0.0
C189 C 0.10331 0.68165 0.97272 0.0
C190 C 0.07645 0.67076 0.98341 0.0
H191 H 0.13447 0.70961 0.0556 0.0
H192 H 0.10816 0.67982 0.94336 0.0
H193 H 0.12676 0.65191 1.01808 0.0
H194 H 0.13728 0.62073 0.91482 0.0
H195 H 0.14941 0.79259 0.97444 0.0
H196 H 0.0872 0.69121 0.07654 0.0
H197 H 0.06078 0.66077 0.96194 0.0
C198 C 0.84586 0.51541 0.53755 0.0
C199 C 0.86204 0.5042 0.54476 0.0
N200 N 0.88814 0.52418 0.54313 0.0
N201 N 0.86163 0.5423 0.53078 0.0
C202 C 0.8872 0.54697 0.53506 0.0
H203 H 0.82396 0.50459 0.53721 0.0
Co204 Co 0.85101 0.56849 0.52148 0.0
C205 C 0.82645 0.53102 0.45209 0.0
O206 O 0.83998 0.51804 0.45628 0.0
N207 N 0.84039 0.59451 0.51181 0.0
C208 C 0.83315 0.62424 0.47976 0.0
C209 C 0.84638 0.60971 0.47959 0.0
C210 C 0.82299 0.59997 0.53086 0.0
N211 N 0.81829 0.61803 0.51188 0.0
O212 O 0.82023 0.54872 0.55507 0.0
H213 H 0.85844 0.60926 0.45613 0.0
H214 H 0.81315 0.59023 0.55738 0.0
O215 O 0.82988 0.54955 0.47589 0.0
C216 C 0.82951 0.55391 0.58929 0.0
O217 O 0.85566 0.57021 0.59411 0.0
N218 N 0.88283 0.58944 0.49356 0.0
C219 C 0.93634 0.62198 0.47075 0.0
C220 C 0.91789 0.60071 0.44723 0.0
C221 C 0.89104 0.58438 0.45936 0.0
C222 C 0.90022 0.61099 0.51551 0.0
C223 C 0.92704 0.62746 0.50473 0.0
H224 H 0.87749 0.56734 0.44197 0.0
H225 H 0.8934 0.61451 0.54264 0.0
H226 H 0.90495 0.5668 0.53211 0.0
H227 H 0.85502 0.48305 0.55118 0.0
H228 H 0.83302 0.63699 0.45674 0.0
H229 H 0.92446 0.596 0.42072 0.0
H230 H 0.94061 0.64394 0.52336 0.0
C231 C 0.33804 0.83268 0.47911 0.0
C232 C 0.36578 0.84404 0.48009 0.0
N233 N 0.37678 0.8709 0.47434 0.0
N234 N 0.33162 0.85248 0.47427 0.0
C235 C 0.35589 0.87546 0.4704 0.0
H236 H 0.32341 0.81135 0.48294 0.0
Co237 Co 0.29591 0.84677 0.47291 0.0
C238 C 0.29046 0.82462 0.40552 0.0
O239 O 0.30263 0.85107 0.40006 0.0
N240 N 0.2609 0.84075 0.46975 0.0
C241 C 0.22597 0.84496 0.45094 0.0
C242 C 0.2536 0.85826 0.45552 0.0
C243 C 0.23749 0.81695 0.47357 0.0
N244 N 0.2159 0.81892 0.46202 0.0
O245 O 0.28647 0.82395 0.52003 0.0
H246 H 0.26752 0.87895 0.44693 0.0
H247 H 0.23654 0.79811 0.48191 0.0
O248 O 0.28541 0.81587 0.43992 0.0
C249 C 0.30147 0.82768 0.54952 0.0
O250 O 0.32603 0.84889 0.55076 0.0
N251 N 0.30579 0.87869 0.50156 0.0
C252 C 0.31915 0.92937 0.53243 0.0
C253 C 0.32586 0.92705 0.4946 0.0
C254 C 0.31846 0.90155 0.47961 0.0
C255 C 0.2972 0.8802 0.53754 0.0
C256 C 0.30423 0.90543 0.55384 0.0
H257 H 0.32239 0.89986 0.44976 0.0
H258 H 0.28408 0.86204 0.55352 0.0
H259 H 0.35876 0.89547 0.46557 0.0
H260 H 0.37698 0.83351 0.48479 0.0
H261 H 0.21433 0.85356 0.43905 0.0
H262 H 0.33596 0.9447 0.47616 0.0
H263 H 0.29773 0.90612 0.5827 0.0
C264 C 0.48277 0.33343 0.53086 0.0
C265 C 0.49319 0.36097 0.53551 0.0
N266 N 0.47249 0.36606 0.53533 0.0
N267 N 0.4556 0.32111 0.52704 0.0
C268 C 0.44999 0.34152 0.53087 0.0
H269 H 0.49437 0.32309 0.52971 0.0
Co270 Co 0.43102 0.28352 0.5205 0.0
C271 C 0.46486 0.29734 0.44725 0.0
O272 O 0.47715 0.32388 0.45107 0.0
N273 N 0.40681 0.24615 0.51376 0.0
C274 C 0.37911 0.20732 0.48427 0.0
C275 C 0.39244 0.2351 0.48144 0.0
C276 C 0.40188 0.2245 0.53585 0.0
N277 N 0.38524 0.20056 0.51833 0.0
O278 O 0.4541 0.27513 0.55111 0.0
H279 H 0.39237 0.2465 0.45663 0.0
H280 H 0.41132 0.22618 0.56336 0.0
O281 O 0.44799 0.28192 0.47258 0.0
C282 C 0.45057 0.27958 0.58588 0.0
O283 O 0.43378 0.28861 0.59286 0.0
N284 N 0.40678 0.29152 0.49523 0.0
C285 C 0.36991 0.30845 0.47718 0.0
C286 C 0.39235 0.31556 0.45353 0.0
C287 C 0.41053 0.30656 0.46284 0.0
C288 C 0.38462 0.2838 0.51765 0.0
C289 C 0.36578 0.29171 0.50891 0.0
H290 H 0.42831 0.31327 0.44552 0.0
H291 H 0.38233 0.27252 0.54372 0.0
H292 H 0.42973 0.33851 0.5299 0.0
H293 H 0.51437 0.37599 0.53893 0.0
H294 H 0.36632 0.19323 0.46242 0.0
H295 H 0.39625 0.32869 0.42896 0.0
H296 H 0.34904 0.28623 0.52833 0.0
C297 C 0.16805 0.50758 0.54583 0.0
C298 C 0.15248 0.51992 0.54307 0.0
N299 N 0.12865 0.50388 0.56063 0.0
N300 N 0.15401 0.48391 0.56502 0.0
C301 C 0.13042 0.48258 0.57429 0.0
H302 H 0.18781 0.51484 0.53329 0.0
Co303 Co 0.16221 0.45628 0.57321 0.0
C304 C 0.1805 0.44826 0.49738 0.0
O305 O 0.16568 0.42191 0.50326 0.0
N306 N 0.17088 0.42861 0.58251 0.0
C307 C 0.17101 0.39083 0.5995 0.0
C308 C 0.1567 0.4044 0.60056 0.0
C309 C 0.19444 0.42978 0.57289 0.0
N310 N 0.19464 0.40669 0.58153 0.0
O311 O 0.19463 0.48091 0.60041 0.0
H312 H 0.13722 0.39663 0.61391 0.0
H313 H 0.2107 0.44689 0.5581 0.0
O314 O 0.18127 0.46482 0.523 0.0
C315 C 0.18723 0.48132 0.63476 0.0
O316 O 0.16114 0.46839 0.64216 0.0
N317 N 0.12866 0.4316 0.5509 0.0
C318 C 0.07472 0.39718 0.53071 0.0
C319 C 0.09361 0.41367 0.50305 0.0
C320 C 0.12042 0.4315 0.51402 0.0
C321 C 0.11007 0.41674 0.57822 0.0
C322 C 0.08316 0.3991 0.56875 0.0
H323 H 0.13402 0.44583 0.49319 0.0
H324 H 0.11592 0.41972 0.60803 0.0
H325 H 0.11439 0.46582 0.58986 0.0
H326 H 0.15769 0.53845 0.52759 0.0
H327 H 0.16434 0.37072 0.61091 0.0
H328 H 0.08748 0.41352 0.47363 0.0
H329 H 0.06902 0.38726 0.59115 0.0
C330 C 0.67092 0.14756 0.48784 0.0
C331 C 0.64378 0.12997 0.49439 0.0
N332 N 0.64025 0.10491 0.49988 0.0
N333 N 0.68428 0.13354 0.48929 0.0
C334 C 0.66507 0.10771 0.49726 0.0
H335 H 0.6802 0.169 0.48124 0.0
Co336 Co 0.72096 0.14673 0.47985 0.0
C337 C 0.73348 0.18964 0.42349 0.0
O338 O 0.74978 0.20722 0.449 0.0
N339 N 0.75775 0.16023 0.4696 0.0
C340 C 0.79539 0.1723 0.43676 0.0
C341 C 0.76768 0.15757 0.43584 0.0
C342 C 0.77989 0.17671 0.49062 0.0
N343 N 0.80309 0.18448 0.47116 0.0
O344 O 0.72975 0.17765 0.51233 0.0
H345 H 0.75551 0.14666 0.41129 0.0
H346 H 0.77904 0.18361 0.51912 0.0
O347 O 0.71902 0.16461 0.4329 0.0
C348 C 0.72741 0.16925 0.54687 0.0
O349 O 0.72032 0.14362 0.5525 0.0
N350 N 0.71221 0.11489 0.45304 0.0
C351 C 0.69323 0.06093 0.43284 0.0
C352 C 0.68395 0.07645 0.41338 0.0
C353 C 0.69409 0.10378 0.42361 0.0
C354 C 0.7219 0.10026 0.47128 0.0
C355 C 0.71306 0.07346 0.4612 0.0
H356 H 0.68579 0.11524 0.41023 0.0
H357 H 0.73548 0.10904 0.49541 0.0
H358 H 0.669 0.09097 0.49977 0.0
H359 H 0.62773 0.13489 0.49309 0.0
H360 H 0.80872 0.17511 0.41305 0.0
H361 H 0.66833 0.06725 0.39169 0.0
H362 H 0.72026 0.06204 0.47749 0.0
C363 C 0.50199 0.66303 0.60706 0.0
C364 C 0.48806 0.63527 0.60241 0.0
N365 N 0.49863 0.62906 0.57234 0.0
N366 N 0.52148 0.67458 0.58008 0.0
C367 C 0.51832 0.65321 0.55882 0.0
H368 H 0.49863 0.67366 0.63002 0.0
Co369 Co 0.54986 0.71147 0.57658 0.0
C370 C 0.51266 0.70719 0.51311 0.0
O371 O 0.49087 0.69235 0.53367 0.0
N372 N 0.57762 0.74748 0.57291 0.0
C373 C 0.6176 0.78522 0.57671 0.0
C374 C 0.60288 0.75825 0.58722 0.0
C375 C 0.57728 0.76824 0.5544 0.0
N376 N 0.60145 0.79145 0.55593 0.0
O377 O 0.52909 0.7235 0.60576 0.0
H378 H 0.61018 0.74708 0.60378 0.0
H379 H 0.55977 0.76619 0.53928 0.0
O380 O 0.53602 0.71536 0.5276 0.0
C381 C 0.53754 0.72407 0.63993 0.0
O382 O 0.55559 0.7164 0.64533 0.0
N383 N 0.57202 0.70046 0.55308 0.0
C384 C 0.60753 0.68299 0.53039 0.0
C385 C 0.59984 0.69699 0.50461 0.0
C386 C 0.58186 0.70562 0.51659 0.0
C387 C 0.57995 0.68763 0.57859 0.0
C388 C 0.59735 0.67839 0.56773 0.0
H389 H 0.5763 0.71674 0.49692 0.0
H390 H 0.57255 0.6845 0.60768 0.0
H391 H 0.53098 0.65513 0.53468 0.0
H392 H 0.47259 0.62071 0.62137 0.0
H393 H 0.63856 0.79913 0.58394 0.0
H394 H 0.60765 0.70123 0.47567 0.0
H395 H 0.60336 0.66836 0.5888 0.0
H396 H 0.49303 0.09103 0.96526 0.0
H397 H 0.49516 0.04914 0.9729 0.0
H398 H 0.43905 0.02527 0.06725 0.0
H399 H 0.43592 0.06632 0.05823 0.0
H400 H 0.5129 0.03268 0.02777 0.0
H401 H 0.40484 0.95581 1.01096 0.0
H402 H 0.41768 0.99125 1.00014 0.0
H403 H 0.40924 0.97899 0.04867 0.0
C404 C 0.48099 0.07661 0.98729 0.0
C405 C 0.46414 0.08167 1.01091 0.0
C406 C 0.48215 0.05271 0.99167 0.0
C407 C 0.46679 0.03365 0.02014 0.0
C408 C 0.4503 0.03902 0.04415 0.0
H409 H 0.51168 0.92088 0.11682 0.0
H410 H 0.50375 0.95874 0.10346 0.0
C411 C 0.44867 0.06259 0.03919 0.0
C412 C 0.46932 0.00906 0.02628 0.0
H413 H 0.43282 0.94041 0.04102 0.0
C414 C 0.49536 0.01248 0.03022 0.0
C415 C 0.44651 0.98254 0.02883 0.0
C416 C 0.41805 0.9769 0.02148 0.0
C417 C 0.49923 0.99034 0.03752 0.0
C418 C 0.47638 0.96413 0.04278 0.0
C419 C 0.45034 0.96056 0.03779 0.0
C420 C 0.47912 0.94019 0.05306 0.0
C421 C 0.52784 0.99531 0.03869 0.0
C422 C 0.46647 0.91643 0.03077 0.0
C423 C 0.47032 0.89448 0.03918 0.0
C424 C 0.48712 0.89609 0.06973 0.0
C425 C 0.49891 0.9194 0.09286 0.0
C426 C 0.4946 0.94108 0.08498 0.0
H427 H 0.54181 0.01362 0.02181 0.0
H428 H 0.53518 0.99892 0.06874 0.0
H429 H 0.52896 0.97764 0.02735 0.0
H430 H 0.45426 0.91516 1.00618 0.0
H431 H 0.46121 0.87675 0.02081 0.0
H432 H 0.58973 0.48972 0.95871 0.0
H433 H 0.54565 0.48755 0.95577 0.0
H434 H 0.5746 0.55445 0.03525 0.0
H435 H 0.61847 0.55692 0.03784 0.0
H436 H 0.50959 0.47744 1.01151 0.0
H437 H 0.54295 0.58005 0.95348 0.0
H438 H 0.56452 0.56521 0.95341 0.0
H439 H 0.56164 0.5817 0.9957 0.0
C440 C 0.58666 0.504 0.97537 0.0
C441 C 0.60767 0.5237 0.99811 0.0
C442 C 0.56154 0.50283 0.97357 0.0
C443 C 0.55702 0.52129 0.99453 0.0
C444 C 0.57786 0.54063 1.01774 0.0
H445 H 0.42702 0.5358 0.08235 0.0
H446 H 0.46973 0.53964 0.06328 0.0
C447 C 0.60295 0.54196 0.01929 0.0
C448 C 0.53012 0.5195 0.99413 0.0
H449 H 0.4996 0.558 0.98539 0.0
C450 C 0.50731 0.4949 1.00506 0.0
C451 C 0.52711 0.54226 0.98552 0.0
C452 C 0.55034 0.56869 0.97098 0.0
C453 C 0.48191 0.4929 1.00961 0.0
C454 C 0.47931 0.51606 1.00298 0.0
C455 C 0.50179 0.54035 0.99065 0.0
C456 C 0.45387 0.51591 1.01169 0.0
C457 C 0.45824 0.46642 0.02313 0.0
C458 C 0.431 0.50198 0.98824 0.0
C459 C 0.4064 0.49999 0.99876 0.0
C460 C 0.40415 0.51165 0.03319 0.0
C461 C 0.42764 0.52661 0.05561 0.0
C462 C 0.45221 0.52876 0.04488 0.0
H463 H 0.46418 0.45101 0.03021 0.0
H464 H 0.44899 0.46994 0.04885 0.0
H465 H 0.44251 0.45801 1.0004 0.0
H466 H 0.43205 0.4922 0.96224 0.0
H467 H 0.38911 0.48884 0.98017 0.0
H468 H 0.11743 0.57809 0.94464 0.0
H469 H 0.07604 0.53425 0.95219 0.0
H470 H 0.04448 0.57068 0.02955 0.0
H471 H 0.08495 0.61479 0.02054 0.0
H472 H 0.05061 0.50105 1.01142 0.0
H473 H 0.98483 0.53845 0.95148 0.0
H474 H 0.02127 0.55829 0.94966 0.0
H475 H 0.00359 0.55682 0.99299 0.0
C476 C 0.1017 0.57686 0.9632 0.0
C477 C 0.10459 0.60027 0.98145 0.0
C478 C 0.07806 0.55169 0.96767 0.0
C479 C 0.05678 0.54926 0.99063 0.0
C480 C 0.06025 0.57216 1.01079 0.0
H481 H 0.89677 0.40812 0.03586 0.0
H482 H 0.9379 0.45273 0.03846 0.0
C483 C 0.08376 0.59741 1.00605 0.0
C484 C 0.03082 0.52293 0.99253 0.0
H485 H 0.96281 0.49328 0.97497 0.0
C486 C 0.03144 0.49939 1.00347 0.0
C487 C 0.00572 0.52069 0.98207 0.0
C488 C 0.00374 0.54484 0.96804 0.0
C489 C 0.00775 0.47379 1.00419 0.0
C490 C 0.98279 0.4716 0.99353 0.0
C491 C 0.982 0.4951 0.98327 0.0
C492 C 0.95749 0.44488 0.9913 0.0
C493 C 0.00952 0.44919 1.0164 0.0
C494 C 0.9546 0.42596 0.9633 0.0
C495 C 0.93099 0.40059 0.96132 0.0
C496 C 0.9097 0.39344 0.98749 0.0
C497 C 0.91249 0.4128 1.01503 0.0
C498 C 0.9361 0.43831 1.01676 0.0
H499 H 0.02887 0.45497 0.03139 0.0
H500 H 0.99241 0.43595 0.03558 0.0
H501 H 0.00822 0.43713 0.99071 0.0
H502 H 0.97068 0.43086 0.9429 0.0
H503 H 0.92952 0.38665 0.93916 0.0
H504 H 0.07642 0.46327 0.55865 0.0
H505 H 0.03604 0.46777 0.55686 0.0
H506 H 0.08617 0.55514 0.56021 0.0
H507 H 0.12684 0.55072 0.56147 0.0
H508 H 0.01696 0.48983 0.60744 0.0
H509 H 0.0383 0.54523 0.4693 0.0
H510 H 0.05716 0.52931 0.48546 0.0
H511 H 0.06481 0.56194 0.50404 0.0
C512 C 0.07889 0.48346 0.55933 0.0
C513 C 0.10486 0.50669 0.56034 0.0
C514 C 0.05576 0.486 0.55809 0.0
C515 C 0.05803 0.51178 0.55784 0.0
C516 C 0.08391 0.53504 0.55942 0.0
H517 H 0.9391 0.56467 0.56096 0.0
H518 H 0.97998 0.5613 0.56524 0.0
C519 C 0.10713 0.53252 0.56031 0.0
C520 C 0.03318 0.5141 0.55651 0.0
H521 H 0.00092 0.54085 0.50494 0.0
C522 C 0.01343 0.50091 0.58494 0.0
C523 C 0.02852 0.5285 0.52707 0.0
C524 C 0.04818 0.54183 0.49452 0.0
C525 C 0.98934 0.50199 0.58497 0.0
C526 C 0.98481 0.51649 0.55571 0.0
C527 C 0.00454 0.5298 0.52739 0.0
C528 C 0.95967 0.51811 0.55391 0.0
C529 C 0.96904 0.48793 0.61658 0.0
C530 C 0.93465 0.49491 0.54597 0.0
C531 C 0.91113 0.49677 0.54298 0.0
C532 C 0.91217 0.52191 0.54787 0.0
C533 C 0.93737 0.54503 0.55631 0.0
C534 C 0.96085 0.54316 0.55903 0.0
H535 H 0.97785 0.48228 0.64093 0.0
H536 H 0.96131 0.50116 0.62737 0.0
H537 H 0.95157 0.46906 0.60518 0.0
H538 H 0.9334 0.47544 0.5414 0.0
H539 H 0.8923 0.47861 0.53594 0.0
H540 H 0.62735 0.05926 0.46069 0.0
H541 H 0.58305 0.01784 0.45768 0.0
H542 H 0.55199 0.05209 0.53986 0.0
H543 H 0.59606 0.09419 0.54103 0.0
H544 H 0.55217 0.98027 0.5047 0.0
H545 H 0.49731 0.03298 0.45835 0.0
H546 H 0.53368 0.05025 0.46171 0.0
H547 H 0.51346 0.04514 0.50382 0.0
C548 C 0.61104 0.05778 0.47822 0.0
C549 C 0.6149 0.07983 0.50091 0.0
C550 C 0.58574 0.03417 0.47648 0.0
C551 C 0.56389 0.03202 0.49781 0.0
C552 C 0.56818 0.05359 0.52205 0.0
H553 H 0.41302 0.87758 0.52891 0.0
H554 H 0.4593 0.91604 0.53503 0.0
C555 C 0.59335 0.0775 0.52303 0.0
C556 C 0.53666 0.0074 0.49406 0.0
H557 H 0.47029 0.98656 0.47586 0.0
C558 C 0.53428 0.98164 0.49816 0.0
C559 C 0.51334 0.00909 0.48478 0.0
C560 C 0.51459 0.03584 0.47649 0.0
C561 C 0.50931 0.95761 0.49335 0.0
C562 C 0.48579 0.95935 0.48587 0.0
C563 C 0.48821 0.98512 0.48182 0.0
C564 C 0.45846 0.93494 0.4814 0.0
C565 C 0.50873 0.93074 0.49513 0.0
C566 C 0.44224 0.93293 0.44976 0.0
C567 C 0.41562 0.91149 0.44702 0.0
C568 C 0.40488 0.89132 0.47537 0.0
C569 C 0.42121 0.89271 0.50639 0.0
C570 C 0.44766 0.91459 0.50972 0.0
H571 H 0.52879 0.93315 0.48798 0.0
H572 H 0.50363 0.92254 0.52469 0.0
H573 H 0.49342 0.91566 0.47519 0.0
H574 H 0.45001 0.9483 0.42751 0.0
H575 H 0.40322 0.91074 0.42297 0.0
H576 H 0.43314 0.37659 0.55869 0.0
H577 H 0.43552 0.42078 0.5604 0.0
H578 H 0.51787 0.45947 0.51996 0.0
H579 H 0.51543 0.41533 0.51692 0.0
H580 H 0.471 0.46673 0.60236 0.0
H581 H 0.48259 0.48908 0.44666 0.0
H582 H 0.47148 0.4555 0.46563 0.0
H583 H 0.50682 0.48083 0.46607 0.0
C584 C 0.45167 0.39439 0.54969 0.0
C585 C 0.47406 0.39225 0.53751 0.0
C586 C 0.45303 0.41969 0.55088 0.0
C587 C 0.47671 0.44336 0.53971 0.0
C588 C 0.4992 0.4414 0.52799 0.0
H589 H 0.53444 0.61595 0.54187 0.0
H590 H 0.52748 0.57029 0.53206 0.0
C591 C 0.49787 0.41613 0.52678 0.0
C592 C 0.47825 0.47024 0.54164 0.0
H593 H 0.48996 0.52549 0.48793 0.0
C594 C 0.47491 0.47949 0.57731 0.0
C595 C 0.48342 0.48687 0.5089 0.0
C596 C 0.48605 0.47752 0.46957 0.0
C597 C 0.47731 0.50523 0.58134 0.0
C598 C 0.48268 0.52195 0.54866 0.0
C599 C 0.48581 0.51262 0.51292 0.0
C600 C 0.48589 0.54952 0.55134 0.0
C601 C 0.47492 0.51463 0.62077 0.0
C602 C 0.46453 0.55302 0.56421 0.0
C603 C 0.4684 0.57914 0.56973 0.0
C604 C 0.49366 0.60229 0.5622 0.0
C605 C 0.51463 0.59866 0.54756 0.0
C606 C 0.51075 0.57253 0.54215 0.0
H607 H 0.47729 0.50233 0.64365 0.0
H608 H 0.49037 0.53634 0.62516 0.0
H609 H 0.45461 0.51255 0.62391 0.0
H610 H 0.44498 0.53553 0.57064 0.0
H611 H 0.45175 0.58124 0.58046 0.0
H612 H 0.3067 0.03956 0.07309 0.0
H613 H 0.2763 0.99026 0.07309 0.0
H614 H 0.34516 0.97818 0.07987 0.0
H615 H 0.37561 0.02758 0.08073 0.0
H616 H 0.27869 0.96048 1.01393 0.0
H617 H 0.29162 0.91883 0.15135 0.0
H618 H 0.30219 0.95438 0.14505 0.0
H619 H 0.32269 0.94104 0.12692 0.0
C620 C 0.31524 0.02633 0.07592 0.0
C621 C 0.34341 0.03726 0.07702 0.0
C622 C 0.29791 0.99821 0.07582 0.0
C623 C 0.30843 0.9805 0.0766 0.0
C624 C 0.33654 0.99139 0.08005 0.0
H625 H 0.23578 0.81013 1.01009 0.0
H626 H 0.26712 0.85651 0.03189 0.0
C627 C 0.35392 0.01961 0.08053 0.0
C628 C 0.29031 0.95121 0.06818 0.0
H629 H 0.26707 0.88674 0.10211 0.0
C630 C 0.27603 0.94439 0.03339 0.0
C631 C 0.28717 0.93023 0.09331 0.0
C632 C 0.30154 0.9364 0.13141 0.0
C633 C 0.25867 0.91725 0.02302 0.0
C634 C 0.2552 0.89628 0.04832 0.0
C635 C 0.26975 0.90294 0.08289 0.0
C636 C 0.23608 0.86741 0.03919 0.0
C637 C 0.24439 0.91117 0.9848 0.0
C638 C 0.20824 0.85806 0.03702 0.0
C639 C 0.19031 0.83164 0.02466 0.0
C640 C 0.19985 0.81398 1.01427 0.0
C641 C 0.2277 0.8231 1.01799 0.0
C642 C 0.24566 0.84961 0.0304 0.0
H643 H 0.25383 0.929 0.96524 0.0
H644 H 0.24453 0.89374 0.97065 0.0
H645 H 0.22297 0.90564 0.98928 0.0
H646 H 0.20044 0.87143 0.04419 0.0
H647 H 0.16897 0.82514 0.02303 0.0
H648 H 0.32684 0.17975 1.01315 0.0
H649 H 0.31497 0.2142 0.99532 0.0
H650 H 0.39355 0.26254 0.94354 0.0
H651 H 0.40523 0.22773 0.96075 0.0
H652 H 0.34329 0.26418 0.02635 0.0
H653 H 0.34488 0.27327 0.86809 0.0
H654 H 0.34242 0.24391 0.89225 0.0
H655 H 0.37462 0.2746 0.88794 0.0
C656 C 0.34127 0.19742 0.99711 0.0
C657 C 0.36699 0.20124 0.9886 0.0
C658 C 0.33448 0.21703 0.98682 0.0
C659 C 0.35333 0.24092 0.968 0.0
C660 C 0.37847 0.24404 0.95735 0.0
H661 H 0.36951 0.39811 0.99902 0.0
H662 H 0.37776 0.3607 0.98442 0.0
C663 C 0.38518 0.2242 0.96731 0.0
C664 C 0.34822 0.26406 0.96523 0.0
H665 H 0.34515 0.30948 0.90377 0.0
C666 C 0.34344 0.27385 0.99945 0.0
C667 C 0.34852 0.27675 0.93015 0.0
C668 C 0.35264 0.26647 0.89245 0.0
C669 C 0.3393 0.29616 0.9997 0.0
C670 C 0.34028 0.30928 0.96486 0.0
C671 C 0.34464 0.29939 0.93042 0.0
C672 C 0.33698 0.33348 0.96468 0.0
C673 C 0.33406 0.30574 0.03733 0.0
C674 C 0.31159 0.33077 0.95698 0.0
C675 C 0.30676 0.35206 0.96547 0.0
C676 C 0.32727 0.37624 0.98196 0.0
C677 C 0.35325 0.37956 0.98683 0.0
C678 C 0.35805 0.35833 0.97826 0.0
H679 H 0.33014 0.29106 0.06092 0.0
H680 H 0.35197 0.32551 0.04516 0.0
H681 H 0.31643 0.30894 0.03474 0.0
H682 H 0.29506 0.3116 0.94679 0.0
H683 H 0.28652 0.34889 0.96163 0.0
H684 H 0.98295 0.35047 0.98349 0.0
H685 H 0.02971 0.36689 1.00141 0.0
H686 H 0.00382 0.32631 0.11058 0.0
H687 H 0.95649 0.30753 0.09129 0.0
H688 H 0.06213 0.398 0.05337 0.0
H689 H 0.04842 0.29488 0.07578 0.0
H690 H 0.02202 0.29999 0.05628 0.0
H691 H 0.02842 0.30277 0.10706 0.0
C692 C 0.98702 0.34446 1.01104 0.0
C693 C 0.96578 0.3268 0.03534 0.0
C694 C 0.01392 0.35429 0.02153 0.0
C695 C 0.02039 0.34726 0.05695 0.0
C696 C -0.00064 0.33126 0.08254 0.0
H697 H 0.19577 0.4268 0.1076 0.0
H698 H 0.14801 0.41467 0.11068 0.0
C699 C 0.97227 0.32085 0.07168 0.0
C700 C 0.04914 0.35604 0.06572 0.0
H701 H 0.09208 0.33196 0.08535 0.0
C702 C 0.06869 0.38357 0.06051 0.0
C703 C 0.05774 0.33717 0.07476 0.0
C704 C 0.03811 0.30704 0.07846 0.0
C705 C 0.09651 0.39255 0.06224 0.0
C706 C 0.10509 0.37368 0.07133 0.0
C707 C 0.08552 0.34641 0.07836 0.0
C708 C 0.13407 0.38108 0.07078 0.0
C709 C 0.11625 0.42181 0.05212 0.0
C710 C 0.14207 0.36567 0.04862 0.0
C711 C 0.16908 0.37205 0.04791 0.0
C712 C 0.18872 0.3943 0.06872 0.0
C713 C 0.18091 0.40983 0.09083 0.0
C714 C 0.1537 0.40299 0.09238 0.0
H715 H 0.10635 0.4312 0.03553 0.0
H716 H 0.12442 0.43373 0.07882 0.0
H717 H 0.13342 0.42352 0.03504 0.0
H718 H 0.12738 0.34869 0.03166 0.0
H719 H 0.17477 0.35988 0.03067 0.0
H720 H 0.81958 0.15815 0.95511 0.0
H721 H 0.78123 0.11216 0.96082 0.0
H722 H 0.72613 0.14277 0.94565 0.0
H723 H 0.76462 0.18911 0.9398 0.0
H724 H 0.71286 0.10879 1.0068 0.0
H725 H 0.72984 0.06046 0.88079 0.0
H726 H 0.75948 0.07745 0.91034 0.0
H727 H 0.7466 0.09692 0.88671 0.0
C728 C 0.79936 0.15513 0.95217 0.0
C729 C 0.79522 0.17737 0.94681 0.0
C730 C 0.77741 0.12875 0.95538 0.0
C731 C 0.7508 0.12393 0.95293 0.0
C732 C 0.74652 0.14602 0.94736 0.0
H733 H 0.61298 0.95634 0.95875 0.0
H734 H 0.64503 0.00287 0.93771 0.0
C735 C 0.76852 0.1725 0.94424 0.0
C736 C 0.72765 0.09607 0.95902 0.0
H737 H 0.70123 0.03009 0.93025 0.0
C738 C 0.71008 0.09164 0.98971 0.0
C739 C 0.72373 0.07373 0.93636 0.0
C740 C 0.74075 0.07739 0.90146 0.0
C741 C 0.68959 0.06533 0.99954 0.0
C742 C 0.68695 0.04281 0.97859 0.0
C743 C 0.70356 0.04734 0.94666 0.0
C744 C 0.66795 0.01443 0.99057 0.0
C745 C 0.6711 0.06188 0.03253 0.0
C746 C 0.67071 0.00533 0.02677 0.0
C747 C 0.65257 0.97888 0.03877 0.0
C748 C 0.63136 0.96086 1.0147 0.0
C749 C 0.62916 0.96971 0.97789 0.0
C750 C 0.64735 0.99629 0.96591 0.0
H751 H 0.67022 0.08074 0.03769 0.0
H752 H 0.65024 0.04486 0.02726 0.0
H753 H 0.67894 0.0573 0.05895 0.0
H754 H 0.68694 0.01874 0.04582 0.0
H755 H 0.65523 0.9725 0.06693 0.0
H756 H 0.65017 0.82458 0.07912 0.0
H757 H 0.66113 0.78811 0.07993 0.0
H758 H 0.57648 0.7287 0.09224 0.0
H759 H 0.56537 0.76523 0.09241 0.0
H760 H 0.61158 0.7216 0.14361 0.0
H761 H 0.64672 0.73352 0.99329 0.0
H762 H 0.66257 0.76474 0.01989 0.0
H763 H 0.62674 0.74784 1.01073 0.0
C764 C 0.63387 0.80378 0.08208 0.0
C765 C 0.6069 0.79783 0.08559 0.0
C766 C 0.64014 0.78295 0.0822 0.0
C767 C 0.61958 0.75572 0.08566 0.0
C768 C 0.59261 0.74961 0.08928 0.0
H769 H 0.63466 0.60912 0.09197 0.0
H770 H 0.61606 0.63973 0.09811 0.0
C771 C 0.58629 0.77048 0.08904 0.0
C772 C 0.62653 0.73383 0.08623 0.0
H773 H 0.65833 0.70721 0.03429 0.0
C774 C 0.62152 0.71817 0.1196 0.0
C775 C 0.63934 0.72936 0.05477 0.0
C776 C 0.64394 0.74456 1.01749 0.0
C777 C 0.63015 0.69896 0.12292 0.0
C778 C 0.64385 0.69527 0.09192 0.0
C779 C 0.64805 0.71031 0.05816 0.0
C780 C 0.65496 0.67664 0.09396 0.0
C781 C 0.62549 0.68351 0.15993 0.0
C782 C 0.68295 0.68728 0.09027 0.0
C783 C 0.69355 0.66993 0.08677 0.0
C784 C 0.67633 0.64158 0.08674 0.0
C785 C 0.64841 0.63089 0.09244 0.0
C786 C 0.63777 0.64834 0.09586 0.0
H787 H 0.61909 0.69224 0.18337 0.0
H788 H 0.60936 0.66207 0.15559 0.0
H789 H 0.64416 0.68345 0.16893 0.0
H790 H 0.69653 0.70907 0.08879 0.0
H791 H 0.71515 0.67869 0.08264 0.0
H792 H 0.81327 0.58233 0.99741 0.0
H793 H 0.85992 0.59098 0.99449 0.0
H794 H 0.88832 0.66871 0.04908 0.0
H795 H 0.84193 0.66041 0.05136 0.0
H796 H 0.92088 0.66926 0.98731 0.0
H797 H 0.8989 0.5872 0.0929 0.0
H798 H 0.8775 0.57723 0.05122 0.0
H799 H 0.8763 0.60041 0.08498 0.0
C800 C 0.82955 0.6015 1.00794 0.0
C801 C 0.82402 0.62063 0.02493 0.0
C802 C 0.85609 0.60626 1.0067 0.0
C803 C 0.87738 0.6302 0.02237 0.0
C804 C 0.87209 0.64999 0.03722 0.0
H805 H 0.05011 0.70226 0.05845 0.0
H806 H 0.00252 0.69036 0.06236 0.0
C807 C 0.84564 0.64521 0.03857 0.0
C808 C 0.90511 0.63447 0.02466 0.0
H809 H 0.94334 0.61112 0.06815 0.0
C810 C 0.92583 0.65657 1.00492 0.0
C811 C 0.91138 0.61787 0.04784 0.0
C812 C 0.88995 0.59445 0.07074 0.0
C813 C 0.95275 0.66241 1.00746 0.0
C814 C 0.9591 0.64601 0.03099 0.0
C815 C 0.93834 0.62373 0.05043 0.0
C816 C 0.98714 0.65131 0.0346 0.0
C817 C 0.97412 0.6858 0.98442 0.0
C818 C 0.99391 0.63254 0.01987 0.0
C819 C 0.02097 0.63915 1.01799 0.0
C820 C 0.04162 0.66461 0.03092 0.0
C821 C 0.0346 0.68249 0.04841 0.0
C822 C 0.0075 0.67585 0.05025 0.0
H823 H 0.96509 0.6923 0.96136 0.0
H824 H 0.98589 0.70344 1.00362 0.0
H825 H 0.9884 0.68023 0.97128 0.0
H826 H 0.97842 0.61338 1.00804 0.0
H827 H 0.02586 0.62487 1.00482 0.0
H828 H 0.18953 0.77418 0.50668 0.0
H829 H 0.14244 0.73758 0.49989 0.0
H830 H 0.13326 0.77744 0.40034 0.0
H831 H 0.18005 0.81415 0.40737 0.0
H832 H 0.09237 0.7627 0.44914 0.0
H833 H 0.10801 0.67508 0.42544 0.0
H834 H 0.12401 0.6933 0.46847 0.0
H835 H 0.13533 0.70987 0.42277 0.0
C836 C 0.1775 0.77493 0.48316 0.0
C837 C 0.18841 0.79708 0.45772 0.0
C838 C 0.15068 0.75395 0.47914 0.0
C839 C 0.13446 0.75452 0.44918 0.0
C840 C 0.14542 0.77653 0.42358 0.0
H841 H 0.9601 0.64887 0.40416 0.0
H842 H 0.00878 0.67979 0.39312 0.0
C843 C 0.1721 0.79759 0.4278 0.0
C844 C 0.10555 0.73318 0.44598 0.0
H845 H 0.06287 0.66444 0.44185 0.0
C846 C 0.08594 0.74125 0.44693 0.0
C847 C 0.09719 0.70519 0.44295 0.0
C848 C 0.11726 0.69534 0.43945 0.0
C849 C 0.05821 0.72205 0.44655 0.0
C850 C 0.04989 0.69408 0.44491 0.0
C851 C 0.06941 0.68596 0.443 0.0
C852 C 0.02107 0.67308 0.44888 0.0
C853 C 0.03795 0.73171 0.44954 0.0
C854 C 0.01219 0.65858 0.48329 0.0
C855 C 0.98464 0.64118 0.48965 0.0
C856 C 0.96551 0.63783 0.46155 0.0
C857 C 0.9745 0.65118 0.42621 0.0
C858 C 0.00218 0.66884 0.41997 0.0
H859 H 0.0478 0.75387 0.45546 0.0
H860 H 0.02656 0.72752 0.42222 0.0
H861 H 0.02311 0.72052 0.47261 0.0
H862 H 0.0265 0.66156 0.50586 0.0
H863 H 0.97819 0.63081 0.51695 0.0
H864 H 0.37274 0.15699 0.47356 0.0
H865 H 0.3588 0.11094 0.494 0.0
H866 H 0.36741 0.13576 0.61215 0.0
H867 H 0.38126 0.18245 0.59173 0.0
H868 H 0.3904 0.10256 0.59438 0.0
H869 H 0.28537 0.0564 0.54083 0.0
H870 H 0.30934 0.07709 0.50495 0.0
H871 H 0.30649 0.09258 0.54831 0.0
C872 C 0.37127 0.15276 0.50393 0.0
C873 C 0.37764 0.17342 0.53099 0.0
C874 C 0.36333 0.12633 0.51558 0.0
C875 C 0.36143 0.11977 0.55456 0.0
C876 C 0.36846 0.14037 0.58188 0.0
H877 H 0.28805 0.94311 0.57686 0.0
H878 H 0.29803 0.98887 0.5949 0.0
C879 C 0.37645 0.16702 0.57018 0.0
C880 C 0.35272 0.09137 0.56584 0.0
H881 H 0.30379 0.02625 0.54598 0.0
C882 C 0.37121 0.08581 0.58463 0.0
C883 C 0.32742 0.06952 0.55401 0.0
C884 C 0.3059 0.07419 0.53629 0.0
C885 C 0.36597 0.05896 0.58894 0.0
C886 C 0.34189 0.03728 0.57329 0.0
C887 C 0.32245 0.0428 0.55751 0.0
C888 C 0.33772 0.00939 0.56874 0.0
C889 C 0.38659 0.05422 0.60936 0.0
C890 C 0.35686 0.00558 0.54864 0.0
C891 C 0.35133 0.9795 0.53867 0.0
C892 C 0.32633 0.95657 0.54799 0.0
C893 C 0.3076 0.96027 0.56952 0.0
C894 C 0.31322 0.98645 0.57969 0.0
H895 H 0.39727 0.06982 0.63187 0.0
H896 H 0.3771 0.03375 0.62279 0.0
H897 H 0.40203 0.05596 0.58852 0.0
H898 H 0.3756 0.02287 0.53894 0.0
H899 H 0.36636 0.97736 0.52253 0.0
H900 H 0.18555 0.3557 0.56898 0.0
H901 H 0.21778 0.34276 0.54595 0.0
H902 H 0.28013 0.42714 0.54155 0.0
H903 H 0.24791 0.44041 0.56515 0.0
H904 H 0.27647 0.39597 0.47453 0.0
H905 H 0.28039 0.34566 0.60877 0.0
H906 H 0.24658 0.334 0.59187 0.0
H907 H 0.26726 0.36875 0.60697 0.0
C908 C 0.20619 0.37157 0.56386 0.0
C909 C 0.21415 0.39912 0.5694 0.0
C910 C 0.22458 0.36411 0.55045 0.0
C911 C 0.25139 0.38397 0.54249 0.0
C912 C 0.25949 0.41152 0.54761 0.0
H913 H 0.38577 0.3622 0.46979 0.0
H914 H 0.35739 0.38286 0.47988 0.0
C915 C 0.24105 0.41904 0.56107 0.0
C916 C 0.27073 0.37566 0.52877 0.0
H917 H 0.29827 0.33639 0.55297 0.0
C918 C 0.28152 0.38318 0.49173 0.0
C919 C 0.27734 0.35912 0.55142 0.0
C920 C 0.26752 0.3516 0.59211 0.0
C921 C 0.29791 0.37356 0.47619 0.0
C922 C 0.30365 0.35621 0.49843 0.0
C923 C 0.29349 0.34941 0.53581 0.0
C924 C 0.31993 0.34443 0.48388 0.0
C925 C 0.30825 0.38123 0.4358 0.0
C926 C 0.30813 0.31607 0.48162 0.0
C927 C 0.32424 0.30429 0.47591 0.0
C928 C 0.35245 0.32069 0.47246 0.0
C929 C 0.36402 0.34913 0.47178 0.0
C930 C 0.34785 0.36094 0.47764 0.0
H931 H 0.29806 0.39069 0.42012 0.0
H932 H 0.3303 0.39601 0.43656 0.0
H933 H 0.30523 0.36305 0.41974 0.0
H934 H 0.28661 0.30301 0.48642 0.0
H935 H 0.31486 0.28232 0.47651 0.0
H936 H 0.0553 0.35934 0.47375 0.0
H937 H 0.00797 0.32397 0.46306 0.0
H938 H 0.98277 0.35686 0.55499 0.0
H939 H 0.0299 0.3922 0.56573 0.0
H940 H 0.97551 0.28662 0.52663 0.0
H941 H 0.92977 0.34443 0.46288 0.0
H942 H 0.96561 0.35619 0.46027 0.0
H943 H 0.95108 0.35912 0.50422 0.0
C944 C 0.03955 0.35932 0.49105 0.0
C945 C 0.04614 0.3783 0.52066 0.0
C946 C 0.01264 0.33911 0.48507 0.0
C947 C 0.99202 0.33797 0.50819 0.0
C948 C 0.99844 0.35761 0.53668 0.0
H949 H 0.81836 0.22675 0.52031 0.0
H950 H 0.86462 0.26327 0.53309 0.0
C951 C 0.0253 0.37763 0.5429 0.0
C952 C 0.9641 0.31499 0.50477 0.0
H953 H 0.89988 0.29857 0.47962 0.0
C954 C 0.95894 0.28913 0.5162 0.0
C955 C 0.94264 0.31859 0.49175 0.0
C956 C 0.94741 0.34602 0.47881 0.0
C957 C 0.93267 0.26662 0.51512 0.0
C958 C 0.9112 0.27005 0.50135 0.0
C959 C 0.91638 0.29602 0.49024 0.0
C960 C 0.88346 0.24677 0.4965 0.0
C961 C 0.9281 0.23952 0.5294 0.0
C962 C 0.87879 0.2253 0.47206 0.0
C963 C 0.85249 0.20429 0.4651 0.0
C964 C 0.83025 0.20452 0.48201 0.0
C965 C 0.83501 0.22575 0.50722 0.0
C966 C 0.86141 0.24676 0.51429 0.0
H967 H 0.94425 0.24206 0.54971 0.0
H968 H 0.9082 0.22783 0.54387 0.0
H969 H 0.92846 0.22741 0.50476 0.0
H970 H 0.89546 0.22515 0.45748 0.0
H971 H 0.84953 0.18811 0.44587 0.0
H972 H 0.63952 0.02316 0.43767 0.0
H973 H 0.62045 0.97429 0.4495 0.0
H974 H 0.69908 0.98275 0.43148 0.0
H975 H 0.71822 0.03152 0.41993 0.0
H976 H 0.62256 0.92746 0.4099 0.0
H977 H 0.67849 0.96191 0.54781 0.0
H978 H 0.67183 0.9839 0.51787 0.0
H979 H 0.69837 0.97699 0.50555 0.0
C980 C 0.65246 0.01436 0.43472 0.0
C981 C 0.68037 0.03108 0.42812 0.0
C982 C 0.64159 0.9865 0.44168 0.0
C983 C 0.6585 0.97509 0.44197 0.0
C984 C 0.6858 0.99128 0.43176 0.0
H985 H 0.65148 0.83045 0.53327 0.0
H986 H 0.66382 0.87408 0.50343 0.0
C987 C 0.69667 0.01906 0.42502 0.0
C988 C 0.64875 0.94752 0.45785 0.0
H989 H 0.65704 0.91493 0.5345 0.0
C990 C 0.62995 0.92462 0.43717 0.0
C991 C 0.65835 0.94399 0.49358 0.0
C992 C 0.6777 0.96795 0.51776 0.0
C993 C 0.62113 0.89813 0.45086 0.0
C994 C 0.63109 0.89464 0.48638 0.0
C995 C 0.64957 0.91763 0.50719 0.0
C996 C 0.623 0.86743 0.50259 0.0
C997 C 0.60183 0.87414 0.42678 0.0
C998 C 0.59596 0.84925 0.51235 0.0
C999 C 0.58885 0.82429 0.52966 0.0
C1000 C 0.60869 0.81712 0.53785 0.0
C1001 C 0.63574 0.83542 0.52794 0.0
C1002 C 0.64281 0.8603 0.51058 0.0
H1003 H 0.60141 0.88011 0.39658 0.0
H1004 H 0.60742 0.858 0.42728 0.0
H1005 H 0.58108 0.86544 0.43857 0.0
H1006 H 0.58044 0.8546 0.50734 0.0
H1007 H 0.56791 0.81091 0.53739 0.0
H1008 H 0.65647 0.71301 0.49508 0.0
H1009 H 0.69224 0.70118 0.4889 0.0
H1010 H 0.63929 0.62234 0.53829 0.0
H1011 H 0.60344 0.6338 0.54377 0.0
H1012 H 0.71409 0.6888 0.55253 0.0
H1013 H 0.6726 0.60378 0.44827 0.0
H1014 H 0.6594 0.62669 0.45298 0.0
H1015 H 0.64976 0.59929 0.48652 0.0
C1016 C 0.65224 0.69287 0.50346 0.0
C1017 C 0.62726 0.67434 0.51999 0.0
C1018 C 0.67271 0.68621 0.50021 0.0
C1019 C 0.66836 0.66084 0.51297 0.0
C1020 C 0.64296 0.64185 0.52772 0.0
H1021 H 0.76941 0.58747 0.54578 0.0
H1022 H 0.73306 0.59861 0.54986 0.0
C1023 C 0.62257 0.6485 0.53108 0.0
C1024 C 0.69101 0.65513 0.51447 0.0
H1025 H 0.71081 0.61046 0.48484 0.0
C1026 C 0.7135 0.67181 0.53748 0.0
C1027 C 0.68999 0.63277 0.49517 0.0
C1028 C 0.66676 0.61473 0.46907 0.0
C1029 C 0.73489 0.66651 0.54214 0.0
C1030 C 0.73388 0.64416 0.52284 0.0
C1031 C 0.71139 0.62746 0.49985 0.0
C1032 C 0.75658 0.63855 0.52445 0.0
C1033 C 0.75813 0.68456 0.56823 0.0
C1034 C 0.78189 0.65749 0.50944 0.0
C1035 C 0.80259 0.65123 0.50726 0.0
C1036 C 0.79837 0.62585 0.51984 0.0
C1037 C 0.77334 0.60729 0.5363 0.0
C1038 C 0.75253 0.61354 0.53833 0.0
H1039 H 0.75241 0.69574 0.58877 0.0
H1040 H 0.76529 0.67254 0.58459 0.0
H1041 H 0.77524 0.69979 0.55072 0.0
H1042 H 0.78532 0.67674 0.49808 0.0
H1043 H 0.82173 0.66594 0.49466 0.0
H1044 H 0.49134 0.3241 0.38189 0.0
H1045 H 0.49168 0.30434 0.31997 0.0
H1046 H 0.44473 0.22378 0.36762 0.0
H1047 H 0.44361 0.24336 0.42942 0.0
H1048 H 0.51047 0.2721 0.29585 0.0
H1049 H 0.39917 0.21849 0.27622 0.0
H1050 H 0.41607 0.24317 0.31365 0.0
H1051 H 0.40922 0.20877 0.31943 0.0
C1052 C 0.48115 0.30216 0.37933 0.0
C1053 C 0.46724 0.28534 0.41066 0.0
C1054 C 0.48136 0.29088 0.34381 0.0
C1055 C 0.46772 0.26254 0.33876 0.0
C1056 C 0.45475 0.24569 0.3704 0.0
H1057 H 0.48821 0.17602 0.1483 0.0
H1058 H 0.49126 0.19891 0.20866 0.0
C1059 C 0.45434 0.25695 0.40588 0.0
C1060 C 0.467 0.25074 0.30037 0.0
H1061 H 0.42405 0.2078 0.23188 0.0
C1062 C 0.49156 0.25811 0.28182 0.0
C1063 C 0.44234 0.23289 0.28158 0.0
C1064 C 0.41521 0.22556 0.29853 0.0
C1065 C 0.49216 0.24776 0.24549 0.0
C1066 C 0.46752 0.22895 0.22749 0.0
C1067 C 0.44296 0.22199 0.24572 0.0
C1068 C 0.46666 0.21602 0.18998 0.0
C1069 C 0.51922 0.25753 0.22651 0.0
C1070 C 0.45135 0.21744 0.15935 0.0
C1071 C 0.44926 0.20402 0.12479 0.0
C1072 C 0.46242 0.18882 0.1201 0.0
C1073 C 0.47801 0.18773 0.15066 0.0
C1074 C 0.47992 0.20098 0.18525 0.0
H1075 H 0.53479 0.27766 0.23779 0.0
H1076 H 0.52625 0.24284 0.2325 0.0
H1077 H 0.5178 0.25918 0.19501 0.0
H1078 H 0.44081 0.22879 0.16228 0.0
H1079 H 0.437 0.20524 0.10197 0.0
H1080 H 0.30379 0.46437 0.20411 0.0
H1081 H 0.28572 0.47231 0.26242 0.0
H1082 H 0.23672 0.49556 0.19563 0.0
H1083 H 0.25459 0.487 0.13631 0.0
H1084 H 0.28452 0.5161 0.29381 0.0
H1085 H 0.18057 0.43204 0.25955 0.0
H1086 H 0.20974 0.43746 0.2325 0.0
H1087 H 0.19601 0.45959 0.22581 0.0
C1088 C 0.28935 0.47142 0.20161 0.0
C1089 C 0.28039 0.47476 0.16551 0.0
C1090 C 0.27912 0.4761 0.23512 0.0
C1091 C 0.25956 0.48416 0.23357 0.0
C1092 C 0.2515 0.48893 0.19757 0.0
H1093 H 0.2018 0.49926 0.46455 0.0
H1094 H 0.22046 0.51273 0.39956 0.0
C1095 C 0.26187 0.48426 0.1637 0.0
C1096 C 0.24665 0.48535 0.26998 0.0
H1097 H 0.18819 0.45017 0.32129 0.0
C1098 C 0.26331 0.5021 0.29968 0.0
C1099 C 0.21901 0.4669 0.27769 0.0
C1100 C 0.20022 0.4478 0.24742 0.0
C1101 C 0.25352 0.49982 0.33724 0.0
C1102 C 0.22619 0.48053 0.34524 0.0
C1103 C 0.20914 0.46495 0.31509 0.0
C1104 C 0.21573 0.47349 0.38511 0.0
C1105 C 0.2729 0.51674 0.36854 0.0
C1106 C 0.20687 0.44707 0.3986 0.0
C1107 C 0.19619 0.43937 0.43534 0.0
C1108 C 0.19404 0.45789 0.45972 0.0
C1109 C 0.20338 0.48459 0.44659 0.0
C1110 C 0.21405 0.4923 0.40947 0.0
H1111 H 0.29425 0.52764 0.35862 0.0
H1112 H 0.26765 0.53208 0.37853 0.0
H1113 H 0.27125 0.50375 0.39338 0.0
H1114 H 0.2081 0.43224 0.38051 0.0
H1115 H 0.18935 0.41868 0.44447 0.0
H1116 H 0.81347 0.20956 0.08406 0.0
H1117 H 0.79216 0.20028 0.14679 0.0
H1118 H 0.7862 0.27293 0.13843 0.0
H1119 H 0.80751 0.28234 0.07483 0.0
H1120 H 0.81433 0.23451 0.20904 0.0
H1121 H 0.71055 0.2155 0.17806 0.0
H1122 H 0.73219 0.21425 0.14138 0.0
H1123 H 0.73799 0.24645 0.15889 0.0
C1124 C 0.80736 0.22348 0.09521 0.0
C1125 C 0.81236 0.2468 0.07442 0.0
C1126 C 0.79512 0.21809 0.13117 0.0
C1127 C 0.78746 0.2358 0.14742 0.0
C1128 C 0.79155 0.25871 0.12629 0.0
H1129 H 0.7647 0.24058 0.39346 0.0
H1130 H 0.77572 0.25297 0.3262 0.0
C1131 C 0.80379 0.26411 0.08997 0.0
C1132 C 0.7773 0.23108 0.18759 0.0
H1133 H 0.72212 0.21557 0.24334 0.0
C1134 C 0.7942 0.23049 0.2165 0.0
C1135 C 0.75096 0.22563 0.19735 0.0
C1136 C 0.7317 0.22524 0.16735 0.0
C1137 C 0.78551 0.2245 0.25466 0.0
C1138 C 0.75926 0.21919 0.26451 0.0
C1139 C 0.74229 0.2198 0.23574 0.0
C1140 C 0.74928 0.21244 0.30458 0.0
C1141 C 0.80429 0.22329 0.28417 0.0
C1142 C 0.72997 0.18568 0.31473 0.0
C1143 C 0.72359 0.17844 0.35333 0.0
C1144 C 0.73638 0.19789 0.38249 0.0
C1145 C 0.75452 0.22501 0.37191 0.0
C1146 C 0.7609 0.23217 0.3334 0.0
H1147 H 0.82184 0.22306 0.27082 0.0
H1148 H 0.81215 0.24139 0.30303 0.0
H1149 H 0.79328 0.2049 0.3024 0.0
H1150 H 0.72077 0.17012 0.29292 0.0
H1151 H 0.70956 0.15738 0.36035 0.0
H1152 H 0.5143 0.77057 0.14975 0.0
H1153 H 0.50345 0.74194 0.20749 0.0
H1154 H 0.51457 0.80951 0.27695 0.0
H1155 H 0.52466 0.83761 0.22015 0.0
H1156 H 0.53609 0.74951 0.26826 0.0
H1157 H 0.44531 0.74995 0.32086 0.0
H1158 H 0.45791 0.76039 0.27282 0.0
H1159 H 0.47194 0.78406 0.31206 0.0
C1160 C 0.51373 0.77901 0.17728 0.0
C1161 C 0.52025 0.80634 0.18029 0.0
C1162 C 0.50769 0.76271 0.21027 0.0
C1163 C 0.50773 0.77339 0.24665 0.0
C1164 C 0.51365 0.80047 0.24931 0.0
H1165 H 0.55291 0.74486 0.46753 0.0
H1166 H 0.54948 0.75704 0.40161 0.0
C1167 C 0.51967 0.81664 0.21665 0.0
C1168 C 0.50397 0.7575 0.28244 0.0
H1169 H 0.47209 0.74307 0.36913 0.0
C1170 C 0.52172 0.74762 0.29003 0.0
C1171 C 0.48493 0.75449 0.31077 0.0
C1172 C 0.46376 0.76253 0.30351 0.0
C1173 C 0.5221 0.73645 0.3259 0.0
C1174 C 0.50476 0.73578 0.35542 0.0
C1175 C 0.48581 0.74403 0.34696 0.0
C1176 C 0.50674 0.72785 0.39559 0.0
C1177 C 0.54124 0.72563 0.33173 0.0
C1178 C 0.48367 0.7081 0.41507 0.0
C1179 C 0.48547 0.70144 0.45327 0.0
C1180 C 0.51041 0.71436 0.4728 0.0
C1181 C 0.53342 0.73425 0.45331 0.0
C1182 C 0.53154 0.74108 0.41536 0.0
H1183 H 0.54542 0.71859 0.30427 0.0
H1184 H 0.56083 0.74216 0.3429 0.0
H1185 H 0.53301 0.70847 0.35242 0.0
H1186 H 0.46423 0.69775 0.40067 0.0
H1187 H 0.46735 0.68604 0.46738 0.0
H1188 H 0.79411 0.55268 0.43466 0.0
H1189 H 0.77076 0.54928 0.37428 0.0
H1190 H 0.80092 0.49928 0.32743 0.0
H1191 H 0.82354 0.50183 0.38802 0.0
H1192 H 0.79097 0.56686 0.3056 0.0
H1193 H 0.72321 0.45546 0.29647 0.0
H1194 H 0.7415 0.47194 0.33958 0.0
H1195 H 0.75804 0.46455 0.30145 0.0
C1196 C 0.79543 0.54058 0.41173 0.0
C1197 C 0.81059 0.52736 0.41642 0.0
C1198 C 0.78212 0.53873 0.3771 0.0
C1199 C 0.78365 0.52368 0.34626 0.0
C1200 C 0.79871 0.51039 0.35095 0.0
H1201 H 0.755 0.55118 0.10837 0.0
H1202 H 0.77495 0.54916 0.1695 0.0
C1203 C 0.81181 0.51201 0.38569 0.0
C1204 C 0.77077 0.52314 0.30867 0.0
H1205 H 0.72823 0.48074 0.23928 0.0
C1206 C 0.77713 0.54799 0.29126 0.0
C1207 C 0.75239 0.49858 0.28995 0.0
C1208 C 0.74315 0.47114 0.308 0.0
C1209 C 0.76602 0.549 0.25567 0.0
C1210 C 0.7486 0.52446 0.23614 0.0
C1211 C 0.74187 0.49958 0.25382 0.0
C1212 C 0.73658 0.52417 0.19792 0.0
C1213 C 0.7726 0.57642 0.23989 0.0
C1214 C 0.70836 0.50964 0.19264 0.0
C1215 C 0.69688 0.51032 0.15739 0.0
C1216 C 0.71335 0.52561 0.12657 0.0
C1217 C 0.74165 0.53938 0.13152 0.0
C1218 C 0.75312 0.53846 0.16666 0.0
H1219 H 0.77916 0.59197 0.26286 0.0
H1220 H 0.78948 0.58336 0.21914 0.0
H1221 H 0.75489 0.57536 0.22492 0.0
H1222 H 0.69512 0.49829 0.21613 0.0
H1223 H 0.67503 0.49946 0.1547 0.0
H1224 H 0.18536 0.7401 0.08493 0.0
H1225 H 0.20187 0.75358 0.15022 0.0
H1226 H 0.23284 0.69805 0.15025 0.0
H1227 H 0.21706 0.68503 0.08419 0.0
H1228 H 0.19031 0.72601 0.21641 0.0
H1229 H 0.29908 0.7672 0.18274 0.0
H1230 H 0.27371 0.75784 0.14595 0.0
H1231 H 0.27766 0.73208 0.17036 0.0
C1232 C 0.19572 0.73073 0.09871 0.0
C1233 C 0.20007 0.71161 0.07909 0.0
C1234 C 0.2051 0.73843 0.13619 0.0
C1235 C 0.21899 0.72718 0.15517 0.0
C1236 C 0.22279 0.70756 0.13602 0.0
H1237 H 0.25593 0.76883 0.40226 0.0
H1238 H 0.23835 0.74078 0.34414 0.0
C1239 C 0.21363 0.70003 0.09826 0.0
C1240 C 0.22963 0.73643 0.19471 0.0
H1241 H 0.28805 0.76854 0.2472 0.0
C1242 C 0.21166 0.73511 0.22325 0.0
C1243 C 0.25753 0.74845 0.20367 0.0
C1244 C 0.27819 0.75175 0.17405 0.0
C1245 C 0.22087 0.74624 0.25991 0.0
C1246 C 0.24881 0.7585 0.26871 0.0
C1247 C 0.26662 0.75893 0.24061 0.0
C1248 C 0.26053 0.77421 0.30472 0.0
C1249 C 0.2008 0.74605 0.28816 0.0
C1250 C 0.2796 0.80201 0.30209 0.0
C1251 C 0.28982 0.81783 0.33498 0.0
C1252 C 0.28128 0.80637 0.3716 0.0
C1253 C 0.26288 0.77828 0.3745 0.0
C1254 C 0.25263 0.7623 0.34128 0.0
H1255 H 0.18115 0.74064 0.27439 0.0
H1256 H 0.19689 0.73081 0.31086 0.0
H1257 H 0.20896 0.76625 0.30202 0.0
H1258 H 0.28612 0.81172 0.27438 0.0
H1259 H 0.30408 0.83934 0.3315 0.0
H1260 H 0.532 0.70287 0.71042 0.0
H1261 H 0.52432 0.71977 0.77028 0.0
H1262 H 0.51294 0.77906 0.70818 0.0
H1263 H 0.52076 0.76202 0.64725 0.0
H1264 H 0.56062 0.7788 0.78921 0.0
H1265 H 0.45012 0.74291 0.79394 0.0
H1266 H 0.46338 0.725 0.76698 0.0
H1267 H 0.46847 0.75704 0.75004 0.0
C1268 C 0.52734 0.71918 0.70927 0.0
C1269 C 0.52716 0.73126 0.67413 0.0
C1270 C 0.52295 0.72879 0.74359 0.0
C1271 C 0.51818 0.7507 0.74374 0.0
C1272 C 0.51641 0.76197 0.70861 0.0
H1273 H 0.50522 0.83934 0.93704 0.0
H1274 H 0.50248 0.81877 0.87495 0.0
C1275 C 0.52077 0.75219 0.67387 0.0
C1276 C 0.51793 0.76307 0.78105 0.0
H1277 H 0.47633 0.76751 0.84723 0.0
C1278 C 0.54222 0.77647 0.80187 0.0
C1279 C 0.49393 0.75998 0.79739 0.0
C1280 C 0.46736 0.74539 0.77621 0.0
C1281 C 0.54322 0.7869 0.83865 0.0
C1282 C 0.51906 0.78314 0.85565 0.0
C1283 C 0.49479 0.7701 0.83447 0.0
C1284 C 0.5189 0.79377 0.89458 0.0
C1285 C 0.5703 0.80234 0.85854 0.0
C1286 C 0.52832 0.78602 0.92688 0.0
C1287 C 0.53014 0.79798 0.96272 0.0
C1288 C 0.52232 0.81774 0.96696 0.0
C1289 C 0.51167 0.82438 0.93492 0.0
C1290 C 0.50999 0.81256 0.89925 0.0
H1291 H 0.58736 0.8097 0.83795 0.0
H1292 H 0.57209 0.8201 0.87442 0.0
H1293 H 0.5724 0.78867 0.8793 0.0
H1294 H 0.5347 0.77105 0.92424 0.0
H1295 H 0.53828 0.79228 0.98679 0.0
H1296 H 0.77854 0.54631 0.60347 0.0
H1297 H 0.75648 0.53774 0.66666 0.0
H1298 H 0.82075 0.52838 0.71613 0.0
H1299 H 0.84291 0.53742 0.65388 0.0
H1300 H 0.73913 0.49543 0.72482 0.0
H1301 H 0.82557 0.59353 0.77407 0.0
H1302 H 0.81965 0.58413 0.72419 0.0
H1303 H 0.83524 0.57032 0.75483 0.0
C1304 C 0.78749 0.54171 0.62769 0.0
C1305 C 0.81252 0.54274 0.6239 0.0
C1306 C 0.77499 0.53697 0.66379 0.0
C1307 C 0.78734 0.53308 0.69634 0.0
C1308 C 0.81117 0.53196 0.69171 0.0
H1309 H 0.76167 0.53909 0.9436 0.0
H1310 H 0.7765 0.52964 0.88213 0.0
C1311 C 0.82373 0.53698 0.65603 0.0
C1312 C 0.77676 0.53225 0.73559 0.0
H1313 H 0.79378 0.56624 0.82099 0.0
C1314 C 0.75104 0.51091 0.74584 0.0
C1315 C 0.79236 0.5524 0.76317 0.0
C1316 C 0.81963 0.57653 0.75353 0.0
C1317 C 0.74063 0.50911 0.78296 0.0
C1318 C 0.75618 0.52938 0.8104 0.0
C1319 C 0.78199 0.5505 0.80021 0.0
C1320 C 0.74513 0.53081 0.84843 0.0
C1321 C 0.71313 0.48539 0.79254 0.0
C1322 C 0.72246 0.53425 0.85005 0.0
C1323 C 0.71416 0.53972 0.88482 0.0
C1324 C 0.72826 0.54189 0.91896 0.0
C1325 C 0.75022 0.53719 0.91785 0.0
C1326 C 0.75876 0.53195 0.88273 0.0
H1327 H 0.70792 0.46765 0.77378 0.0
H1328 H 0.71216 0.47905 0.82286 0.0
H1329 H 0.69758 0.49145 0.78803 0.0
H1330 H 0.71194 0.53408 0.82409 0.0
H1331 H 0.69717 0.54329 0.88472 0.0
H1332 H 0.33062 0.82218 0.6067 0.0
H1333 H 0.31484 0.80172 0.66959 0.0
H1334 H 0.23265 0.77654 0.6367 0.0
H1335 H 0.2484 0.79674 0.57301 0.0
H1336 H 0.29111 0.8187 0.72023 0.0
H1337 H 0.22332 0.70894 0.69133 0.0
H1338 H 0.24688 0.73194 0.65621 0.0
H1339 H 0.21503 0.73057 0.6638 0.0
C1340 C 0.30909 0.81182 0.6125 0.0
C1341 C 0.29076 0.81116 0.58486 0.0
C1342 C 0.3001 0.80013 0.64856 0.0
C1343 C 0.27255 0.78747 0.65801 0.0
C1344 C 0.25397 0.78574 0.62993 0.0
H1345 H 0.19516 0.77183 0.87074 0.0
H1346 H 0.22026 0.78626 0.81075 0.0
C1347 C 0.26297 0.79733 0.59353 0.0
C1348 C 0.26394 0.77861 0.69824 0.0
H1349 H 0.22043 0.72469 0.75377 0.0
C1350 C 0.27587 0.79804 0.72752 0.0
C1351 C 0.24433 0.75159 0.70802 0.0
C1352 C 0.23182 0.72947 0.67825 0.0
C1353 C 0.26802 0.7915 0.76592 0.0
C1354 C 0.24743 0.76488 0.77543 0.0
C1355 C 0.23621 0.74512 0.74647 0.0
C1356 C 0.23527 0.75804 0.81433 0.0
C1357 C 0.2816 0.81327 0.796 0.0
C1358 C 0.2357 0.73762 0.8368 0.0
C1359 C 0.22156 0.72957 0.87169 0.0
C1360 C 0.20648 0.74154 0.884 0.0
C1361 C 0.20694 0.76255 0.8621 0.0
C1362 C 0.22124 0.77078 0.82777 0.0
H1363 H 0.30188 0.82955 0.78648 0.0
H1364 H 0.26898 0.82275 0.8015 0.0
H1365 H 0.2839 0.80458 0.82334 0.0
H1366 H 0.24627 0.7274 0.8268 0.0
H1367 H 0.22099 0.7129 0.88767 0.0
H1368 H 0.4531 0.22138 0.9311 0.0
H1369 H 0.4649 0.24407 0.86811 0.0
H1370 H 0.47286 0.17796 0.82216 0.0
H1371 H 0.46065 0.15517 0.88427 0.0
H1372 H 0.50914 0.2596 0.81213 0.0
H1373 H 0.40971 0.1762 0.76105 0.0
H1374 H 0.41825 0.1823 0.8112 0.0
H1375 H 0.43125 0.16515 0.78253 0.0
C1376 C 0.45816 0.21218 0.90778 0.0
C1377 C 0.45577 0.18646 0.91235 0.0
C1378 C 0.46477 0.22504 0.87182 0.0
C1379 C 0.4692 0.21238 0.84028 0.0
C1380 C 0.46903 0.18783 0.84587 0.0
H1381 H 0.46264 0.23849 0.59382 0.0
H1382 H 0.47312 0.22327 0.65433 0.0
C1383 C 0.46215 0.1749 0.88142 0.0
C1384 C 0.4713 0.22313 0.80084 0.0
H1385 H 0.43804 0.20791 0.715 0.0
C1386 C 0.49365 0.24832 0.79084 0.0
C1387 C 0.45113 0.2083 0.773 0.0
C1388 C 0.42609 0.1816 0.78242 0.0
C1389 C 0.49633 0.25906 0.75368 0.0
C1390 C 0.47592 0.24439 0.72604 0.0
C1391 C 0.45386 0.219 0.73596 0.0
C1392 C 0.47514 0.25615 0.68825 0.0
C1393 C 0.52104 0.28597 0.74433 0.0
C1394 C 0.47341 0.27993 0.68701 0.0
C1395 C 0.4674 0.28848 0.65277 0.0
C1396 C 0.46295 0.27349 0.61889 0.0
C1397 C 0.46632 0.25061 0.6194 0.0
C1398 C 0.47214 0.24185 0.65398 0.0
H1399 H 0.53847 0.28975 0.76283 0.0
H1400 H 0.527 0.2869 0.71389 0.0
H1401 H 0.51651 0.30257 0.74956 0.0
H1402 H 0.47498 0.29098 0.71302 0.0
H1403 H 0.46487 0.30618 0.65322 0.0
H1404 H 0.25434 0.45184 0.96003 0.0
H1405 H 0.24335 0.45661 0.89382 0.0
H1406 H 0.3087 0.53985 0.89254 0.0
H1407 H 0.31904 0.53552 0.95936 0.0
H1408 H 0.26736 0.53744 0.85855 0.0
H1409 H 0.2801 0.45473 0.79857 0.0
H1410 H 0.25546 0.44195 0.8361 0.0
H1411 H 0.29014 0.46685 0.84686 0.0
C1412 C 0.26636 0.47118 0.94567 0.0
C1413 C 0.28762 0.49328 0.96499 0.0
C1414 C 0.26025 0.47381 0.90758 0.0
C1415 C 0.27567 0.49837 0.88757 0.0
C1416 C 0.29661 0.52061 0.90709 0.0
H1417 H 0.23976 0.49104 0.63983 0.0
H1418 H 0.26688 0.50061 0.69876 0.0
C1419 C 0.30246 0.51813 0.94539 0.0
C1420 C 0.26923 0.50112 0.84687 0.0
H1421 H 0.25413 0.46903 0.7601 0.0
C1422 C 0.26488 0.52266 0.83695 0.0
C1423 C 0.26674 0.48244 0.81805 0.0
C1424 C 0.27368 0.46041 0.82535 0.0
C1425 C 0.25659 0.52507 0.79989 0.0
C1426 C 0.25159 0.5049 0.77216 0.0
C1427 C 0.25753 0.48432 0.78136 0.0
C1428 C 0.2375 0.50304 0.73526 0.0
C1429 C 0.2531 0.54919 0.79105 0.0
C1430 C 0.21224 0.50165 0.73589 0.0
C1431 C 0.19702 0.49652 0.70247 0.0
C1432 C 0.20639 0.49221 0.66745 0.0
C1433 C 0.23215 0.49462 0.66626 0.0
C1434 C 0.24754 0.49986 0.69998 0.0
H1435 H 0.26744 0.56722 0.80811 0.0
H1436 H 0.25635 0.55465 0.76021 0.0
H1437 H 0.23229 0.54426 0.79893 0.0
H1438 H 0.20358 0.50322 0.76264 0.0
H1439 H 0.17722 0.4947 0.70449 0.0
H1440 H 0.83841 0.32207 0.84132 0.0
H1441 H 0.81583 0.30695 0.77942 0.0
H1442 H 0.76091 0.22832 0.82777 0.0
H1443 H 0.78327 0.24363 0.89025 0.0
H1444 H 0.81642 0.26646 0.74026 0.0
H1445 H 0.71011 0.24136 0.76064 0.0
H1446 H 0.73666 0.26193 0.79425 0.0
H1447 H 0.7211 0.22547 0.79526 0.0
C1448 C 0.82098 0.30181 0.83909 0.0
C1449 C 0.81258 0.28405 0.87068 0.0
C1450 C 0.80814 0.29316 0.80361 0.0
C1451 C 0.78661 0.26651 0.79877 0.0
C1452 C 0.77713 0.24915 0.83084 0.0
H1453 H 0.71045 0.15309 0.61933 0.0
H1454 H 0.72417 0.1802 0.67744 0.0
C1455 C 0.7899 0.25791 0.86662 0.0
C1456 C 0.77654 0.25611 0.75945 0.0
H1457 H 0.71948 0.22346 0.70429 0.0
C1458 C 0.79527 0.25744 0.73221 0.0
C1459 C 0.74897 0.24432 0.74889 0.0
C1460 C 0.72807 0.24339 0.77617 0.0
C1461 C 0.78709 0.24629 0.69541 0.0
C1462 C 0.75939 0.23383 0.68515 0.0
C1463 C 0.74074 0.23316 0.71202 0.0
C1464 C 0.74906 0.21853 0.64859 0.0
C1465 C 0.80798 0.24669 0.66856 0.0
C1466 C 0.75781 0.23112 0.61255 0.0
C1467 C 0.74996 0.21548 0.57882 0.0
C1468 C 0.73328 0.18707 0.58078 0.0
C1469 C 0.72357 0.17489 0.61675 0.0
C1470 C 0.73129 0.1904 0.65014 0.0
H1471 H 0.82738 0.25245 0.6834 0.0
H1472 H 0.8004 0.22645 0.65506 0.0
H1473 H 0.81219 0.26174 0.64545 0.0
H1474 H 0.7712 0.25289 0.61059 0.0
H1475 H 0.75773 0.22544 0.55155 0.0
loop_
_geom_bond_atom_site_label_1
_geom_bond_atom_site_label_2
_geom_bond_distance
_geom_bond_site_symmetry_2
_ccdc_geom_bond_type
C0 C1 1.351 . S
C0 N3 1.368 . S
C0 H5 0.931 . S
C1 C0 1.351 . S
C1 N2 1.353 1_556 S
C1 H29 0.930 . S
N2 C1 1.353 1_554 S
N2 C4 1.349 . S
N3 C0 1.368 . S
N3 C4 1.321 1_556 S
N3 Co6 2.139 . S
C4 N2 1.349 . S
C4 N3 1.321 1_554 S
C4 H28 0.930 . S
H5 C0 0.931 . S
Co6 N3 2.139 . S
Co6 N9 2.116 1_556 S
Co6 O14 2.077 . S
Co6 O17 2.013 1_556 S
Co6 N20 2.139 1_556 S
C7 O8 1.227 . S
C7 O17 1.265 . S
O8 C7 1.227 . S
N9 Co6 2.116 1_554 S
N9 C11 1.375 . S
N9 C12 1.313 1_554 S
C10 C11 1.338 . S
C10 N13 1.377 1_554 S
C10 H30 0.930 . S
C11 N9 1.375 . S
C11 C10 1.338 . S
C11 H15 0.931 . S
C12 N9 1.313 1_556 S
C12 N13 1.344 . S
C12 H16 0.930 . S
N13 C10 1.377 1_556 S
N13 C12 1.344 . S
O14 Co6 2.077 . S
O14 C18 1.253 . S
H15 C11 0.931 . S
H16 C12 0.930 . S
O17 Co6 2.013 1_554 S
O17 C7 1.265 . S
C18 O14 1.253 . S
C18 O19 1.227 . S
O19 C18 1.227 . S
N20 Co6 2.139 1_554 S
N20 C23 1.346 . S
N20 C24 1.345 1_554 S
C21 C22 1.387 . S
C21 C25 1.391 1_554 S
C22 C21 1.387 . S
C22 C23 1.369 . S
C22 H31 0.929 . S
C23 N20 1.346 . S
C23 C22 1.369 . S
C23 H26 0.928 . S
C24 N20 1.345 1_556 S
C24 C25 1.371 . S
C24 H27 0.931 . S
C25 C21 1.391 1_556 S
C25 C24 1.371 . S
C25 H32 0.930 . S
H26 C23 0.928 . S
H27 C24 0.931 . S
H28 C4 0.930 . S
H29 C1 0.930 . S
H30 C10 0.930 . S
H31 C22 0.929 . S
H32 C25 0.930 . S
C33 C34 1.351 . S
C33 N36 1.368 . S
C33 H38 0.931 . S
C34 C33 1.351 . S
C34 N35 1.353 1_556 S
C34 H62 0.930 . S
N35 C34 1.353 1_554 S
N35 C37 1.349 . S
N36 C33 1.368 . S
N36 C37 1.321 1_556 S
N36 Co39 2.139 . S
C37 N35 1.349 . S
C37 N36 1.321 1_554 S
C37 H61 0.930 . S
H38 C33 0.931 . S
Co39 N36 2.139 . S
Co39 N42 2.116 1_556 S
Co39 O47 2.077 . S
Co39 O50 2.013 1_556 S
Co39 N53 2.139 1_556 S
C40 O41 1.227 . S
C40 O50 1.265 . S
O41 C40 1.227 . S
N42 Co39 2.116 1_554 S
N42 C44 1.375 . S
N42 C45 1.313 1_554 S
C43 C44 1.338 . S
C43 N46 1.377 1_554 S
C43 H63 0.930 . S
C44 N42 1.375 . S
C44 C43 1.338 . S
C44 H48 0.931 . S
C45 N42 1.313 1_556 S
C45 N46 1.344 . S
C45 H49 0.930 . S
N46 C43 1.377 1_556 S
N46 C45 1.344 . S
O47 Co39 2.077 . S
O47 C51 1.253 . S
H48 C44 0.931 . S
H49 C45 0.930 . S
O50 Co39 2.013 1_554 S
O50 C40 1.265 . S
C51 O47 1.253 . S
C51 O52 1.227 . S
O52 C51 1.227 . S
N53 Co39 2.139 1_554 S
N53 C56 1.346 . S
N53 C57 1.345 1_554 S
C54 C55 1.387 . S
C54 C58 1.391 1_554 S
C55 C54 1.387 . S
C55 C56 1.369 . S
C55 H64 0.929 . S
C56 N53 1.346 . S
C56 C55 1.369 . S
C56 H59 0.928 . S
C57 N53 1.345 1_556 S
C57 C58 1.371 . S
C57 H60 0.931 . S
C58 C54 1.391 1_556 S
C58 C57 1.371 . S
C58 H65 0.930 . S
H59 C56 0.928 . S
H60 C57 0.931 . S
H61 C37 0.930 . S
H62 C34 0.930 . S
H63 C43 0.930 . S
H64 C55 0.929 . S
H65 C58 0.930 . S
C66 C67 1.351 . S
C66 N69 1.368 . S
C66 H71 0.931 . S
C67 C66 1.351 . S
C67 N68 1.353 1_556 S
C67 H95 0.930 . S
N68 C67 1.353 1_554 S
N68 C70 1.349 . S
N69 C66 1.368 . S
N69 C70 1.321 1_556 S
N69 Co72 2.139 . S
C70 N68 1.349 . S
C70 N69 1.321 1_554 S
C70 H94 0.930 . S
H71 C66 0.931 . S
Co72 N69 2.139 . S
Co72 N75 2.116 1_556 S
Co72 O80 2.077 . S
Co72 O83 2.013 1_556 S
Co72 N86 2.139 1_556 S
C73 O74 1.227 . S
C73 O83 1.265 . S
O74 C73 1.227 . S
N75 Co72 2.116 1_554 S
N75 C77 1.375 . S
N75 C78 1.313 1_554 S
C76 C77 1.338 . S
C76 N79 1.377 1_554 S
C76 H96 0.930 . S
C77 N75 1.375 . S
C77 C76 1.338 . S
C77 H81 0.931 . S
C78 N75 1.313 1_556 S
C78 N79 1.344 . S
C78 H82 0.930 . S
N79 C76 1.377 1_556 S
N79 C78 1.344 . S
O80 Co72 2.077 . S
O80 C84 1.253 . S
H81 C77 0.931 . S
H82 C78 0.930 . S
O83 Co72 2.013 1_554 S
O83 C73 1.265 . S
C84 O80 1.253 . S
C84 O85 1.227 . S
O85 C84 1.227 . S
N86 Co72 2.139 1_554 S
N86 C89 1.346 . S
N86 C90 1.345 1_554 S
C87 C88 1.387 . S
C87 C91 1.391 1_554 S
C88 C87 1.387 . S
C88 C89 1.369 . S
C88 H97 0.929 . S
C89 N86 1.346 . S
C89 C88 1.369 . S
C89 H92 0.928 . S
C90 N86 1.345 1_556 S
C90 C91 1.371 . S
C90 H93 0.931 . S
C91 C87 1.391 1_556 S
C91 C90 1.371 . S
C91 H98 0.930 . S
H92 C89 0.928 . S
H93 C90 0.931 . S
H94 C70 0.930 . S
H95 C67 0.930 . S
H96 C76 0.930 . S
H97 C88 0.929 . S
H98 C91 0.930 . S
C99 C100 1.351 . S
C99 N102 1.368 . S
C99 H104 0.931 . S
C100 C99 1.351 . S
C100 N101 1.353 1_556 S
C100 H128 0.930 . S
N101 C100 1.353 1_554 S
N101 C103 1.349 . S
N102 C99 1.368 . S
N102 C103 1.321 1_556 S
N102 Co105 2.139 . S
C103 N101 1.349 . S
C103 N102 1.321 1_554 S
C103 H127 0.930 . S
H104 C99 0.931 . S
Co105 N102 2.139 . S
Co105 N108 2.116 1_556 S
Co105 O113 2.077 . S
Co105 O116 2.013 1_556 S
Co105 N119 2.139 1_556 S
C106 O107 1.227 . S
C106 O116 1.265 . S
O107 C106 1.227 . S
N108 Co105 2.116 1_554 S
N108 C110 1.375 . S
N108 C111 1.313 1_554 S
C109 C110 1.338 . S
C109 N112 1.377 1_554 S
C109 H129 0.930 . S
C110 N108 1.375 . S
C110 C109 1.338 . S
C110 H114 0.931 . S
C111 N108 1.313 1_556 S
C111 N112 1.344 . S
C111 H115 0.930 . S
N112 C109 1.377 1_556 S
N112 C111 1.344 . S
O113 Co105 2.077 . S
O113 C117 1.253 . S
H114 C110 0.931 . S
H115 C111 0.930 . S
O116 Co105 2.013 1_554 S
O116 C106 1.265 . S
C117 O113 1.253 . S
C117 O118 1.227 . S
O118 C117 1.227 . S
N119 Co105 2.139 1_554 S
N119 C122 1.346 . S
N119 C123 1.345 1_554 S
C120 C121 1.387 . S
C120 C124 1.391 1_554 S
C121 C120 1.387 . S
C121 C122 1.369 . S
C121 H130 0.929 . S
C122 N119 1.346 . S
C122 C121 1.369 . S
C122 H125 0.928 . S
C123 N119 1.345 1_556 S
C123 C124 1.371 . S
C123 H126 0.931 . S
C124 C120 1.391 1_556 S
C124 C123 1.371 . S
C124 H131 0.930 . S
H125 C122 0.928 . S
H126 C123 0.931 . S
H127 C103 0.930 . S
H128 C100 0.930 . S
H129 C109 0.930 . S
H130 C121 0.929 . S
H131 C124 0.930 . S
C132 C133 1.351 . S
C132 N135 1.368 . S
C132 H137 0.931 . S
C133 C132 1.351 . S
C133 N134 1.353 1_556 S
C133 H161 0.930 . S
N134 C133 1.353 1_554 S
N134 C136 1.349 . S
N135 C132 1.368 . S
N135 C136 1.321 1_556 S
N135 Co138 2.139 . S
C136 N134 1.349 . S
C136 N135 1.321 1_554 S
C136 H160 0.930 . S
H137 C132 0.931 . S
Co138 N135 2.139 . S
Co138 N141 2.116 1_556 S
Co138 O146 2.077 . S
Co138 O149 2.013 1_556 S
Co138 N152 2.139 1_556 S
C139 O140 1.227 . S
C139 O149 1.265 . S
O140 C139 1.227 . S
N141 Co138 2.116 1_554 S
N141 C143 1.375 . S
N141 C144 1.313 1_554 S
C142 C143 1.338 . S
C142 N145 1.377 1_554 S
C142 H162 0.930 . S
C143 N141 1.375 . S
C143 C142 1.338 . S
C143 H147 0.931 . S
C144 N141 1.313 1_556 S
C144 N145 1.344 . S
C144 H148 0.930 . S
N145 C142 1.377 1_556 S
N145 C144 1.344 . S
O146 Co138 2.077 . S
O146 C150 1.253 . S
H147 C143 0.931 . S
H148 C144 0.930 . S
O149 Co138 2.013 1_554 S
O149 C139 1.265 . S
C150 O146 1.253 . S
C150 O151 1.227 . S
O151 C150 1.227 . S
N152 Co138 2.139 1_554 S
N152 C155 1.346 . S
N152 C156 1.345 1_554 S
C153 C154 1.387 . S
C153 C157 1.391 1_554 S
C154 C153 1.387 . S
C154 C155 1.369 . S
C154 H163 0.929 . S
C155 N152 1.346 . S
C155 C154 1.369 . S
C155 H158 0.928 . S
C156 N152 1.345 1_556 S
C156 C157 1.371 . S
C156 H159 0.931 . S
C157 C153 1.391 1_556 S
C157 C156 1.371 . S
C157 H164 0.930 . S
H158 C155 0.928 . S
H159 C156 0.931 . S
H160 C136 0.930 . S
H161 C133 0.930 . S
H162 C142 0.930 . S
H163 C154 0.929 . S
H164 C157 0.930 . S
C165 C166 1.351 . S
C165 N168 1.368 . S
C165 H170 0.931 . S
C166 C165 1.351 . S
C166 N167 1.353 1_556 S
C166 H194 0.930 . S
N167 C166 1.353 1_554 S
N167 C169 1.349 . S
N168 C165 1.368 . S
N168 C169 1.321 1_556 S
N168 Co171 2.139 . S
C169 N167 1.349 . S
C169 N168 1.321 1_554 S
C169 H193 0.930 . S
H170 C165 0.931 . S
Co171 N168 2.139 . S
Co171 N174 2.116 1_556 S
Co171 O179 2.077 . S
Co171 O182 2.013 1_556 S
Co171 N185 2.139 1_556 S
C172 O173 1.227 . S
C172 O182 1.265 . S
O173 C172 1.227 . S
N174 Co171 2.116 1_554 S
N174 C176 1.375 . S
N174 C177 1.313 1_554 S
C175 C176 1.338 . S
C175 N178 1.377 1_554 S
C175 H195 0.930 . S
C176 N174 1.375 . S
C176 C175 1.338 . S
C176 H180 0.931 . S
C177 N174 1.313 1_556 S
C177 N178 1.344 . S
C177 H181 0.930 . S
N178 C175 1.377 1_556 S
N178 C177 1.344 . S
O179 Co171 2.077 . S
O179 C183 1.253 . S
H180 C176 0.931 . S
H181 C177 0.930 . S
O182 Co171 2.013 1_554 S
O182 C172 1.265 . S
C183 O179 1.253 . S
C183 O184 1.227 . S
O184 C183 1.227 . S
N185 Co171 2.139 1_554 S
N185 C188 1.346 . S
N185 C189 1.345 1_554 S
C186 C187 1.387 . S
C186 C190 1.391 1_554 S
C187 C186 1.387 . S
C187 C188 1.369 . S
C187 H196 0.929 . S
C188 N185 1.346 . S
C188 C187 1.369 . S
C188 H191 0.928 . S
C189 N185 1.345 1_556 S
C189 C190 1.371 . S
C189 H192 0.931 . S
C190 C186 1.391 1_556 S
C190 C189 1.371 . S
C190 H197 0.930 . S
H191 C188 0.928 . S
H192 C189 0.931 . S
H193 C169 0.930 . S
H194 C166 0.930 . S
H195 C175 0.930 . S
H196 C187 0.929 . S
H197 C190 0.930 . S
C198 C199 1.351 . S
C198 N201 1.368 . S
C198 H203 0.931 . S
C199 C198 1.351 . S
C199 N200 1.373 . S
C199 H227 0.930 . S
N200 C199 1.373 . S
N200 C202 1.340 . S
N201 C198 1.368 . S
N201 C202 1.321 . S
N201 Co204 2.135 . S
C202 N200 1.340 . S
C202 N201 1.321 . S
C202 H226 0.930 . S
H203 C198 0.931 . S
Co204 N201 2.135 . S
Co204 N207 2.121 . S
Co204 O212 2.055 . S
Co204 O215 2.039 . S
Co204 N218 2.140 . S
C205 O206 1.227 . S
C205 O215 1.265 . S
O206 C205 1.227 . S
N207 Co204 2.121 . S
N207 C209 1.375 . S
N207 C210 1.313 . S
C208 C209 1.338 . S
C208 N211 1.377 . S
C208 H228 0.930 . S
C209 N207 1.375 . S
C209 C208 1.338 . S
C209 H213 0.931 . S
C210 N207 1.313 . S
C210 N211 1.344 . S
C210 H214 0.930 . S
N211 C208 1.377 . S
N211 C210 1.344 . S
O212 Co204 2.055 . S
O212 C216 1.253 . S
H213 C209 0.931 . S
H214 C210 0.930 . S
O215 Co204 2.039 . S
O215 C205 1.265 . S
C216 O212 1.253 . S
C216 O217 1.227 . S
O217 C216 1.227 . S
N218 Co204 2.140 . S
N218 C221 1.346 . S
N218 C222 1.345 . S
C219 C220 1.387 . S
C219 C223 1.391 . S
C220 C219 1.387 . S
C220 C221 1.369 . S
C220 H229 0.929 . S
C221 N218 1.346 . S
C221 C220 1.369 . S
C221 H224 0.928 . S
C222 N218 1.345 . S
C222 C223 1.371 . S
C222 H225 0.931 . S
C223 C219 1.391 . S
C223 C222 1.371 . S
C223 H230 0.930 . S
H224 C221 0.928 . S
H225 C222 0.931 . S
H226 C202 0.930 . S
H227 C199 0.930 . S
H228 C208 0.930 . S
H229 C220 0.929 . S
H230 C223 0.930 . S
C231 C232 1.351 . S
C231 N234 1.368 . S
C231 H236 0.931 . S
C232 C231 1.351 . S
C232 N233 1.373 . S
C232 H260 0.930 . S
N233 C232 1.373 . S
N233 C235 1.340 . S
N234 C231 1.368 . S
N234 C235 1.321 . S
N234 Co237 2.135 . S
C235 N233 1.340 . S
C235 N234 1.321 . S
C235 H259 0.930 . S
H236 C231 0.931 . S
Co237 N234 2.135 . S
Co237 N240 2.121 . S
Co237 O245 2.055 . S
Co237 O248 2.039 . S
Co237 N251 2.140 . S
C238 O239 1.227 . S
C238 O248 1.265 . S
O239 C238 1.227 . S
N240 Co237 2.121 . S
N240 C242 1.375 . S
N240 C243 1.313 . S
C241 C242 1.338 . S
C241 N244 1.377 . S
C241 H261 0.930 . S
C242 N240 1.375 . S
C242 C241 1.338 . S
C242 H246 0.931 . S
C243 N240 1.313 . S
C243 N244 1.344 . S
C243 H247 0.930 . S
N244 C241 1.377 . S
N244 C243 1.344 . S
O245 Co237 2.055 . S
O245 C249 1.253 . S
H246 C242 0.931 . S
H247 C243 0.930 . S
O248 Co237 2.039 . S
O248 C238 1.265 . S
C249 O245 1.253 . S
C249 O250 1.227 . S
O250 C249 1.227 . S
N251 Co237 2.140 . S
N251 C254 1.346 . S
N251 C255 1.345 . S
C252 C253 1.387 . S
C252 C256 1.391 . S
C253 C252 1.387 . S
C253 C254 1.369 . S
C253 H262 0.929 . S
C254 N251 1.346 . S
C254 C253 1.369 . S
C254 H257 0.928 . S
C255 N251 1.345 . S
C255 C256 1.371 . S
C255 H258 0.931 . S
C256 C252 1.391 . S
C256 C255 1.371 . S
C256 H263 0.930 . S
H257 C254 0.928 . S
H258 C255 0.931 . S
H259 C235 0.930 . S
H260 C232 0.930 . S
H261 C241 0.930 . S
H262 C253 0.929 . S
H263 C256 0.930 . S
C264 C265 1.351 . S
C264 N267 1.368 . S
C264 H269 0.931 . S
C265 C264 1.351 . S
C265 N266 1.373 . S
C265 H293 0.930 . S
N266 C265 1.373 . S
N266 C268 1.340 . S
N267 C264 1.368 . S
N267 C268 1.321 . S
N267 Co270 2.135 . S
C268 N266 1.340 . S
C268 N267 1.321 . S
C268 H292 0.930 . S
H269 C264 0.931 . S
Co270 N267 2.135 . S
Co270 N273 2.121 . S
Co270 O278 2.055 . S
Co270 O281 2.039 . S
Co270 N284 2.140 . S
C271 O272 1.227 . S
C271 O281 1.265 . S
O272 C271 1.227 . S
N273 Co270 2.121 . S
N273 C275 1.375 . S
N273 C276 1.313 . S
C274 C275 1.338 . S
C274 N277 1.377 . S
C274 H294 0.930 . S
C275 N273 1.375 . S
C275 C274 1.338 . S
C275 H279 0.931 . S
C276 N273 1.313 . S
C276 N277 1.344 . S
C276 H280 0.930 . S
N277 C274 1.377 . S
N277 C276 1.344 . S
O278 Co270 2.055 . S
O278 C282 1.253 . S
H279 C275 0.931 . S
H280 C276 0.930 . S
O281 Co270 2.039 . S
O281 C271 1.265 . S
C282 O278 1.253 . S
C282 O283 1.227 . S
O283 C282 1.227 . S
N284 Co270 2.140 . S
N284 C287 1.346 . S
N284 C288 1.345 . S
C285 C286 1.387 . S
C285 C289 1.391 . S
C286 C285 1.387 . S
C286 C287 1.369 . S
C286 H295 0.929 . S
C287 N284 1.346 . S
C287 C286 1.369 . S
C287 H290 0.928 . S
C288 N284 1.345 . S
C288 C289 1.371 . S
C288 H291 0.931 . S
C289 C285 1.391 . S
C289 C288 1.371 . S
C289 H296 0.930 . S
H290 C287 0.928 . S
H291 C288 0.931 . S
H292 C268 0.930 . S
H293 C265 0.930 . S
H294 C274 0.930 . S
H295 C286 0.929 . S
H296 C289 0.930 . S
C297 C298 1.351 . S
C297 N300 1.368 . S
C297 H302 0.931 . S
C298 C297 1.351 . S
C298 N299 1.373 . S
C298 H326 0.930 . S
N299 C298 1.373 . S
N299 C301 1.340 . S
N300 C297 1.368 . S
N300 C301 1.321 . S
N300 Co303 2.135 . S
C301 N299 1.340 . S
C301 N300 1.321 . S
C301 H325 0.930 . S
H302 C297 0.931 . S
Co303 N300 2.135 . S
Co303 N306 2.121 . S
Co303 O311 2.055 . S
Co303 O314 2.039 . S
Co303 N317 2.140 . S
C304 O305 1.227 . S
C304 O314 1.265 . S
O305 C304 1.227 . S
N306 Co303 2.121 . S
N306 C308 1.375 . S
N306 C309 1.313 . S
C307 C308 1.338 . S
C307 N310 1.377 . S
C307 H327 0.930 . S
C308 N306 1.375 . S
C308 C307 1.338 . S
C308 H312 0.931 . S
C309 N306 1.313 . S
C309 N310 1.344 . S
C309 H313 0.930 . S
N310 C307 1.377 . S
N310 C309 1.344 . S
O311 Co303 2.055 . S
O311 C315 1.253 . S
H312 C308 0.931 . S
H313 C309 0.930 . S
O314 Co303 2.039 . S
O314 C304 1.265 . S
C315 O311 1.253 . S
C315 O316 1.227 . S
O316 C315 1.227 . S
N317 Co303 2.140 . S
N317 C320 1.346 . S
N317 C321 1.345 . S
C318 C319 1.387 . S
C318 C322 1.391 . S
C319 C318 1.387 . S
C319 C320 1.369 . S
C319 H328 0.929 . S
C320 N317 1.346 . S
C320 C319 1.369 . S
C320 H323 0.928 . S
C321 N317 1.345 . S
C321 C322 1.371 . S
C321 H324 0.931 . S
C322 C318 1.391 . S
C322 C321 1.371 . S
C322 H329 0.930 . S
H323 C320 0.928 . S
H324 C321 0.931 . S
H325 C301 0.930 . S
H326 C298 0.930 . S
H327 C307 0.930 . S
H328 C319 0.929 . S
H329 C322 0.930 . S
C330 C331 1.351 . S
C330 N333 1.368 . S
C330 H335 0.931 . S
C331 C330 1.351 . S
C331 N332 1.373 . S
C331 H359 0.930 . S
N332 C331 1.373 . S
N332 C334 1.340 . S
N333 C330 1.368 . S
N333 C334 1.321 . S
N333 Co336 2.135 . S
C334 N332 1.340 . S
C334 N333 1.321 . S
C334 H358 0.930 . S
H335 C330 0.931 . S
Co336 N333 2.135 . S
Co336 N339 2.121 . S
Co336 O344 2.055 . S
Co336 O347 2.039 . S
Co336 N350 2.140 . S
C337 O338 1.227 . S
C337 O347 1.265 . S
O338 C337 1.227 . S
N339 Co336 2.121 . S
N339 C341 1.375 . S
N339 C342 1.313 . S
C340 C341 1.338 . S
C340 N343 1.377 . S
C340 H360 0.930 . S
C341 N339 1.375 . S
C341 C340 1.338 . S
C341 H345 0.931 . S
C342 N339 1.313 . S
C342 N343 1.344 . S
C342 H346 0.930 . S
N343 C340 1.377 . S
N343 C342 1.344 . S
O344 Co336 2.055 . S
O344 C348 1.253 . S
H345 C341 0.931 . S
H346 C342 0.930 . S
O347 Co336 2.039 . S
O347 C337 1.265 . S
C348 O344 1.253 . S
C348 O349 1.227 . S
O349 C348 1.227 . S
N350 Co336 2.140 . S
N350 C353 1.346 . S
N350 C354 1.345 . S
C351 C352 1.387 . S
C351 C355 1.391 . S
C352 C351 1.387 . S
C352 C353 1.369 . S
C352 H361 0.929 . S
C353 N350 1.346 . S
C353 C352 1.369 . S
C353 H356 0.928 . S
C354 N350 1.345 . S
C354 C355 1.371 . S
C354 H357 0.931 . S
C355 C351 1.391 . S
C355 C354 1.371 . S
C355 H362 0.930 . S
H356 C353 0.928 . S
H357 C354 0.931 . S
H358 C334 0.930 . S
H359 C331 0.930 . S
H360 C340 0.930 . S
H361 C352 0.929 . S
H362 C355 0.930 . S
C363 C364 1.351 . S
C363 N366 1.368 . S
C363 H368 0.931 . S
C364 C363 1.351 . S
C364 N365 1.373 . S
C364 H392 0.930 . S
N365 C364 1.373 . S
N365 C367 1.340 . S
N366 C363 1.368 . S
N366 C367 1.321 . S
N366 Co369 2.135 . S
C367 N365 1.340 . S
C367 N366 1.321 . S
C367 H391 0.930 . S
H368 C363 0.931 . S
Co369 N366 2.135 . S
Co369 N372 2.121 . S
Co369 O377 2.055 . S
Co369 O380 2.039 . S
Co369 N383 2.140 . S
C370 O371 1.227 . S
C370 O380 1.265 . S
O371 C370 1.227 . S
N372 Co369 2.121 . S
N372 C374 1.375 . S
N372 C375 1.313 . S
C373 C374 1.338 . S
C373 N376 1.377 . S
C373 H393 0.930 . S
C374 N372 1.375 . S
C374 C373 1.338 . S
C374 H378 0.931 . S
C375 N372 1.313 . S
C375 N376 1.344 . S
C375 H379 0.930 . S
N376 C373 1.377 . S
N376 C375 1.344 . S
O377 Co369 2.055 . S
O377 C381 1.253 . S
H378 C374 0.931 . S
H379 C375 0.930 . S
O380 Co369 2.039 . S
O380 C370 1.265 . S
C381 O377 1.253 . S
C381 O382 1.227 . S
O382 C381 1.227 . S
N383 Co369 2.140 . S
N383 C386 1.346 . S
N383 C387 1.345 . S
C384 C385 1.387 . S
C384 C388 1.391 . S
C385 C384 1.387 . S
C385 C386 1.369 . S
C385 H394 0.929 . S
C386 N383 1.346 . S
C386 C385 1.369 . S
C386 H389 0.928 . S
C387 N383 1.345 . S
C387 C388 1.371 . S
C387 H390 0.931 . S
C388 C384 1.391 . S
C388 C387 1.371 . S
C388 H395 0.930 . S
H389 C386 0.928 . S
H390 C387 0.931 . S
H391 C367 0.930 . S
H392 C364 0.930 . S
H393 C373 0.930 . S
H394 C385 0.929 . S
H395 C388 0.930 . S
H396 C404 0.929 . S
H397 C406 0.930 . S
H398 C408 0.930 . S
H399 C411 0.929 . S
H400 C414 0.931 . S
H401 C416 0.960 . S
H402 C416 0.960 . S
H403 C416 0.960 . S
C404 H396 0.929 . S
C404 C405 1.377 1_556 S
C404 C406 1.384 . S
C405 C404 1.377 1_554 S
C405 C411 1.390 . S
C406 H397 0.930 . S
C406 C404 1.384 . S
C406 C407 1.372 1_556 S
C407 C406 1.372 1_554 S
C407 C408 1.400 . S
C407 C412 1.490 . S
C408 H398 0.930 . S
C408 C407 1.400 . S
C408 C411 1.386 . S
H409 C425 0.930 . S
H410 C426 0.931 . S
C411 H399 0.929 . S
C411 C405 1.390 . S
C411 C408 1.386 . S
C412 C407 1.490 . S
C412 C414 1.393 1_554 S
C412 C415 1.403 1_545 S
H413 C419 0.930 . S
C414 H400 0.931 . S
C414 C412 1.393 1_556 S
C414 C417 1.403 . S
C415 C412 1.403 1_565 S
C415 C416 1.524 . S
C415 C419 1.400 . S
C416 H401 0.960 . S
C416 H402 0.960 . S
C416 H403 0.960 . S
C416 C415 1.524 . S
C417 C414 1.403 . S
C417 C418 1.388 1_546 S
C417 C421 1.499 . S
C418 C417 1.388 1_564 S
C418 C419 1.385 . S
C418 C420 1.478 . S
C419 H413 0.930 . S
C419 C415 1.400 . S
C419 C418 1.385 . S
C420 C418 1.478 . S
C420 C422 1.381 1_554 S
C420 C426 1.383 . S
C421 C417 1.499 . S
C421 H427 0.959 . S
C421 H428 0.961 1_556 S
C421 H429 0.960 . S
C422 C420 1.381 1_556 S
C422 C423 1.394 . S
C422 H430 0.930 . S
C423 C422 1.394 . S
C423 C424 1.383 1_556 S
C423 H431 0.929 . S
C424 C423 1.383 1_554 S
C424 C425 1.377 . S
C425 H409 0.930 . S
C425 C424 1.377 . S
C425 C426 1.379 . S
C426 H410 0.931 . S
C426 C420 1.383 . S
C426 C425 1.379 . S
H427 C421 0.959 . S
H428 C421 0.961 1_554 S
H429 C421 0.960 . S
H430 C422 0.930 . S
H431 C423 0.929 . S
H432 C440 0.929 . S
H433 C442 0.930 . S
H434 C444 0.930 . S
H435 C447 0.929 . S
H436 C450 0.930 . S
H437 C452 0.960 . S
H438 C452 0.960 . S
H439 C452 0.960 . S
C440 H432 0.929 . S
C440 C441 1.377 1_556 S
C440 C442 1.384 . S
C441 C440 1.377 1_554 S
C441 C447 1.390 . S
C442 H433 0.930 . S
C442 C440 1.384 . S
C442 C443 1.372 1_556 S
C443 C442 1.372 1_554 S
C443 C444 1.400 . S
C443 C448 1.490 . S
C444 H434 0.930 . S
C444 C443 1.400 . S
C444 C447 1.386 . S
H445 C461 0.930 . S
H446 C462 0.931 . S
C447 H435 0.929 . S
C447 C441 1.390 . S
C447 C444 1.386 . S
C448 C443 1.490 . S
C448 C450 1.395 . S
C448 C451 1.403 1_554 S
H449 C455 0.930 . S
C450 H436 0.930 . S
C450 C448 1.395 . S
C450 C453 1.403 . S
C451 C448 1.403 1_556 S
C451 C452 1.524 . S
C451 C455 1.400 . S
C452 H437 0.960 . S
C452 H438 0.960 . S
C452 H439 0.960 . S
C452 C451 1.524 . S
C453 C450 1.403 . S
C453 C454 1.392 . S
C453 C457 1.495 . S
C454 C453 1.392 . S
C454 C455 1.385 1_554 S
C454 C456 1.478 . S
C455 H449 0.930 . S
C455 C451 1.400 . S
C455 C454 1.385 1_556 S
C456 C454 1.478 . S
C456 C458 1.381 1_554 S
C456 C462 1.383 . S
C457 C453 1.495 . S
C457 H463 0.959 . S
C457 H464 0.961 . S
C457 H465 0.960 . S
C458 C456 1.381 1_556 S
C458 C459 1.394 . S
C458 H466 0.930 . S
C459 C458 1.394 . S
C459 C460 1.383 1_556 S
C459 H467 0.929 . S
C460 C459 1.383 1_554 S
C460 C461 1.377 . S
C461 H445 0.930 . S
C461 C460 1.377 . S
C461 C462 1.379 . S
C462 H446 0.931 . S
C462 C456 1.383 . S
C462 C461 1.379 . S
H463 C457 0.959 . S
H464 C457 0.961 . S
H465 C457 0.960 . S
H466 C458 0.930 . S
H467 C459 0.929 . S
H468 C476 0.929 . S
H469 C478 0.930 . S
H470 C480 0.930 . S
H471 C483 0.929 . S
H472 C486 0.930 . S
H473 C488 0.960 . S
H474 C488 0.960 . S
H475 C488 0.960 1_554 S
C476 H468 0.929 . S
C476 C477 1.377 1_556 S
C476 C478 1.384 . S
C477 C476 1.377 1_554 S
C477 C483 1.390 . S
C478 H469 0.930 . S
C478 C476 1.384 . S
C478 C479 1.372 1_556 S
C479 C478 1.372 1_554 S
C479 C480 1.400 . S
C479 C484 1.490 . S
C480 H470 0.930 . S
C480 C479 1.400 . S
C480 C483 1.386 . S
H481 C497 0.930 . S
H482 C498 0.931 . S
C483 H471 0.929 . S
C483 C477 1.390 . S
C483 C480 1.386 . S
C484 C479 1.490 . S
C484 C486 1.395 . S
C484 C487 1.403 1_455 S
H485 C491 0.930 . S
C486 H472 0.930 . S
C486 C484 1.395 . S
C486 C489 1.403 . S
C487 C484 1.403 1_655 S
C487 C488 1.524 1_554 S
C487 C491 1.400 . S
C488 H473 0.960 . S
C488 H474 0.960 . S
C488 H475 0.960 1_556 S
C488 C487 1.524 1_556 S
C489 C486 1.403 . S
C489 C490 1.392 1_455 S
C489 C493 1.495 . S
C490 C489 1.392 1_655 S
C490 C491 1.385 . S
C490 C492 1.478 . S
C491 H485 0.930 . S
C491 C487 1.400 . S
C491 C490 1.385 . S
C492 C490 1.478 . S
C492 C494 1.381 1_554 S
C492 C498 1.383 . S
C493 C489 1.495 . S
C493 H499 0.959 . S
C493 H500 0.961 . S
C493 H501 0.944 1_554 S
C494 C492 1.381 1_556 S
C494 C495 1.394 . S
C494 H502 0.930 . S
C495 C494 1.394 . S
C495 C496 1.383 1_556 S
C495 H503 0.929 . S
C496 C495 1.383 1_554 S
C496 C497 1.377 . S
C497 H481 0.930 . S
C497 C496 1.377 . S
C497 C498 1.379 . S
C498 H482 0.931 . S
C498 C492 1.383 . S
C498 C497 1.379 . S
H499 C493 0.959 . S
H500 C493 0.961 . S
H501 C493 0.944 1_556 S
H502 C494 0.930 . S
H503 C495 0.929 . S
H504 C512 0.929 . S
H505 C514 0.930 . S
H506 C516 0.930 . S
H507 C519 0.929 . S
H508 C522 0.930 . S
H509 C524 0.960 . S
H510 C524 0.960 . S
H511 C524 0.960 . S
C512 H504 0.929 . S
C512 C513 1.377 . S
C512 C514 1.384 . S
C513 C512 1.377 . S
C513 C519 1.390 . S
C514 H505 0.930 . S
C514 C512 1.384 . S
C514 C515 1.372 . S
C515 C514 1.372 . S
C515 C516 1.400 . S
C515 C520 1.490 . S
C516 H506 0.930 . S
C516 C515 1.400 . S
C516 C519 1.386 . S
H517 C533 0.930 . S
H518 C534 0.931 . S
C519 H507 0.929 . S
C519 C513 1.390 . S
C519 C516 1.386 . S
C520 C515 1.490 . S
C520 C522 1.395 1_455 S
C520 C523 1.403 . S
H521 C527 0.930 . S
C522 H508 0.930 . S
C522 C520 1.395 1_655 S
C522 C525 1.403 . S
C523 C520 1.403 . S
C523 C524 1.524 . S
C523 C527 1.400 . S
C524 H509 0.960 . S
C524 H510 0.960 . S
C524 H511 0.960 . S
C524 C523 1.524 . S
C525 C522 1.403 . S
C525 C526 1.392 . S
C525 C529 1.495 . S
C526 C525 1.392 . S
C526 C527 1.385 1_655 S
C526 C528 1.478 . S
C527 H521 0.930 . S
C527 C523 1.400 . S
C527 C526 1.385 1_455 S
C528 C526 1.478 . S
C528 C530 1.381 . S
C528 C534 1.383 . S
C529 C525 1.495 . S
C529 H535 0.959 . S
C529 H536 0.961 . S
C529 H537 0.960 . S
C530 C528 1.381 . S
C530 C531 1.394 . S
C530 H538 0.930 . S
C531 C530 1.394 . S
C531 C532 1.383 . S
C531 H539 0.929 . S
C532 C531 1.383 . S
C532 C533 1.377 . S
C533 H517 0.930 . S
C533 C532 1.377 . S
C533 C534 1.379 . S
C534 H518 0.931 . S
C534 C528 1.383 . S
C534 C533 1.379 . S
H535 C529 0.959 . S
H536 C529 0.961 . S
H537 C529 0.960 . S
H538 C530 0.930 . S
H539 C531 0.929 . S
H540 C548 0.929 . S
H541 C550 0.930 . S
H542 C552 0.930 . S
H543 C555 0.929 . S
H544 C558 0.930 . S
H545 C560 0.960 . S
H546 C560 0.960 . S
H547 C560 0.960 . S
C548 H540 0.929 . S
C548 C549 1.377 . S
C548 C550 1.384 . S
C549 C548 1.377 . S
C549 C555 1.390 . S
C550 H541 0.930 . S
C550 C548 1.384 . S
C550 C551 1.372 . S
C551 C550 1.372 . S
C551 C552 1.400 . S
C551 C556 1.490 . S
C552 H542 0.930 . S
C552 C551 1.400 . S
C552 C555 1.386 . S
H553 C569 0.930 . S
H554 C570 0.931 . S
C555 H543 0.929 . S
C555 C549 1.390 . S
C555 C552 1.386 . S
C556 C551 1.490 . S
C556 C558 1.395 1_545 S
C556 C559 1.403 . S
H557 C563 0.930 . S
C558 H544 0.930 . S
C558 C556 1.395 1_565 S
C558 C561 1.403 . S
C559 C556 1.403 . S
C559 C560 1.524 . S
C559 C563 1.400 . S
C560 H545 0.960 . S
C560 H546 0.960 . S
C560 H547 0.960 . S
C560 C559 1.524 . S
C561 C558 1.403 . S
C561 C562 1.392 . S
C561 C565 1.495 . S
C562 C561 1.392 . S
C562 C563 1.385 1_565 S
C562 C564 1.478 . S
C563 H557 0.930 . S
C563 C559 1.400 . S
C563 C562 1.385 1_545 S
C564 C562 1.478 . S
C564 C566 1.381 . S
C564 C570 1.383 . S
C565 C561 1.495 . S
C565 H571 0.959 . S
C565 H572 0.961 . S
C565 H573 0.960 . S
C566 C564 1.381 . S
C566 C567 1.394 . S
C566 H574 0.930 . S
C567 C566 1.394 . S
C567 C568 1.383 . S
C567 H575 0.929 . S
C568 C567 1.383 . S
C568 C569 1.377 . S
C569 H553 0.930 . S
C569 C568 1.377 . S
C569 C570 1.379 . S
C570 H554 0.931 . S
C570 C564 1.383 . S
C570 C569 1.379 . S
H571 C565 0.959 . S
H572 C565 0.961 . S
H573 C565 0.960 . S
H574 C566 0.930 . S
H575 C567 0.929 . S
H576 C584 0.929 . S
H577 C586 0.930 . S
H578 C588 0.930 . S
H579 C591 0.929 . S
H580 C594 0.930 . S
H581 C596 0.960 . S
H582 C596 0.960 . S
H583 C596 0.960 . S
C584 H576 0.929 . S
C584 C585 1.377 . S
C584 C586 1.384 . S
C585 C584 1.377 . S
C585 C591 1.390 . S
C586 H577 0.930 . S
C586 C584 1.384 . S
C586 C587 1.372 . S
C587 C586 1.372 . S
C587 C588 1.400 . S
C587 C592 1.490 . S
C588 H578 0.930 . S
C588 C587 1.400 . S
C588 C591 1.386 . S
H589 C605 0.930 . S
H590 C606 0.931 . S
C591 H579 0.929 . S
C591 C585 1.390 . S
C591 C588 1.386 . S
C592 C587 1.490 . S
C592 C594 1.395 . S
C592 C595 1.403 . S
H593 C599 0.930 . S
C594 H580 0.930 . S
C594 C592 1.395 . S
C594 C597 1.403 . S
C595 C592 1.403 . S
C595 C596 1.524 . S
C595 C599 1.400 . S
C596 H581 0.960 . S
C596 H582 0.960 . S
C596 H583 0.960 . S
C596 C595 1.524 . S
C597 C594 1.403 . S
C597 C598 1.392 . S
C597 C601 1.495 . S
C598 C597 1.392 . S
C598 C599 1.385 . S
C598 C600 1.478 . S
C599 H593 0.930 . S
C599 C595 1.400 . S
C599 C598 1.385 . S
C600 C598 1.478 . S
C600 C602 1.381 . S
C600 C606 1.383 . S
C601 C597 1.495 . S
C601 H607 0.959 . S
C601 H608 0.961 . S
C601 H609 0.960 . S
C602 C600 1.381 . S
C602 C603 1.394 . S
C602 H610 0.930 . S
C603 C602 1.394 . S
C603 C604 1.383 . S
C603 H611 0.929 . S
C604 C603 1.383 . S
C604 C605 1.377 . S
C605 H589 0.930 . S
C605 C604 1.377 . S
C605 C606 1.379 . S
C606 H590 0.931 . S
C606 C600 1.383 . S
C606 C605 1.379 . S
H607 C601 0.959 . S
H608 C601 0.961 . S
H609 C601 0.960 . S
H610 C602 0.930 . S
H611 C603 0.929 . S
H612 C620 0.929 . S
H613 C622 0.930 . S
H614 C624 0.889 1_565 S
H615 C627 0.929 . S
H616 C630 0.930 . S
H617 C632 0.960 . S
H618 C632 0.960 . S
H619 C632 0.960 . S
C620 H612 0.929 . S
C620 C621 1.377 . S
C620 C622 1.384 . S
C621 C620 1.377 . S
C621 C627 1.390 1_554 S
C622 H613 0.930 . S
C622 C620 1.384 . S
C622 C623 1.372 1_545 S
C623 C622 1.372 1_565 S
C623 C624 1.405 1_564 S
C623 C628 1.489 1_554 S
C624 H614 0.889 1_545 S
C624 C623 1.405 1_546 S
C624 C627 1.422 . S
H625 C641 0.930 . S
H626 C642 0.931 . S
C627 H615 0.929 . S
C627 C621 1.390 1_556 S
C627 C624 1.422 . S
C628 C623 1.489 1_556 S
C628 C630 1.401 . S
C628 C631 1.397 1_556 S
H629 C635 0.930 . S
C630 H616 0.930 . S
C630 C628 1.401 . S
C630 C633 1.403 . S
C631 C628 1.397 1_554 S
C631 C632 1.524 . S
C631 C635 1.400 . S
C632 H617 0.960 . S
C632 H618 0.960 . S
C632 H619 0.960 . S
C632 C631 1.524 . S
C633 C630 1.403 . S
C633 C634 1.392 . S
C633 C637 1.495 . S
C634 C633 1.392 . S
C634 C635 1.385 1_556 S
C634 C636 1.478 . S
C635 H629 0.930 . S
C635 C631 1.400 . S
C635 C634 1.385 1_554 S
C636 C634 1.478 . S
C636 C638 1.381 1_556 S
C636 C642 1.383 . S
C637 C633 1.495 . S
C637 H643 0.959 . S
C637 H644 0.961 . S
C637 H645 0.960 . S
C638 C636 1.381 1_554 S
C638 C639 1.394 . S
C638 H646 0.930 . S
C639 C638 1.394 . S
C639 C640 1.383 1_554 S
C639 H647 0.929 . S
C640 C639 1.383 1_556 S
C640 C641 1.377 . S
C641 H625 0.930 . S
C641 C640 1.377 . S
C641 C642 1.379 . S
C642 H626 0.931 . S
C642 C636 1.383 . S
C642 C641 1.379 . S
H643 C637 0.959 . S
H644 C637 0.961 . S
H645 C637 0.960 . S
H646 C638 0.930 . S
H647 C639 0.929 . S
H648 C656 0.929 . S
H649 C658 0.930 . S
H650 C660 0.930 . S
H651 C663 0.929 . S
H652 C666 0.930 . S
H653 C668 0.960 . S
H654 C668 0.960 . S
H655 C668 0.960 . S
C656 H648 0.929 . S
C656 C657 1.377 1_554 S
C656 C658 1.384 . S
C657 C656 1.377 1_556 S
C657 C663 1.390 . S
C658 H649 0.930 . S
C658 C656 1.384 . S
C658 C659 1.372 1_554 S
C659 C658 1.372 1_556 S
C659 C660 1.400 . S
C659 C664 1.490 . S
C660 H650 0.930 . S
C660 C659 1.400 . S
C660 C663 1.386 . S
H661 C677 0.930 . S
H662 C678 0.931 . S
C663 H651 0.929 . S
C663 C657 1.390 . S
C663 C660 1.386 . S
C664 C659 1.490 . S
C664 C666 1.395 1_556 S
C664 C667 1.403 . S
H665 C671 0.930 . S
C666 H652 0.930 . S
C666 C664 1.395 1_554 S
C666 C669 1.403 . S
C667 C664 1.403 . S
C667 C668 1.524 . S
C667 C671 1.400 . S
C668 H653 0.960 . S
C668 H654 0.960 . S
C668 H655 0.960 . S
C668 C667 1.524 . S
C669 C666 1.403 . S
C669 C670 1.392 . S
C669 C673 1.495 . S
C670 C669 1.392 . S
C670 C671 1.385 1_554 S
C670 C672 1.478 . S
C671 H665 0.930 . S
C671 C667 1.400 . S
C671 C670 1.385 1_556 S
C672 C670 1.478 . S
C672 C674 1.381 . S
C672 C678 1.383 1_554 S
C673 C669 1.495 . S
C673 H679 0.959 . S
C673 H680 0.961 . S
C673 H681 0.960 . S
C674 C672 1.381 . S
C674 C675 1.394 . S
C674 H682 0.930 . S
C675 C674 1.394 . S
C675 C676 1.383 . S
C675 H683 0.929 . S
C676 C675 1.383 . S
C676 C677 1.377 1_554 S
C677 H661 0.930 . S
C677 C676 1.377 1_556 S
C677 C678 1.379 . S
C678 H662 0.931 . S
C678 C672 1.383 1_556 S
C678 C677 1.379 . S
H679 C673 0.959 . S
H680 C673 0.961 . S
H681 C673 0.960 . S
H682 C674 0.930 . S
H683 C675 0.929 . S
H684 C692 0.929 . S
H685 C694 0.941 . S
H686 C696 0.930 1_455 S
H687 C699 0.929 . S
H688 C702 0.930 . S
H689 C704 0.960 . S
H690 C704 0.960 . S
H691 C704 0.960 . S
C692 H684 0.929 . S
C692 C693 1.377 1_556 S
C692 C694 1.384 . S
C693 C692 1.377 1_554 S
C693 C699 1.390 . S
C694 H685 0.941 . S
C694 C692 1.384 . S
C694 C695 1.372 1_655 S
C695 C694 1.372 1_455 S
C695 C696 1.400 1_456 S
C695 C700 1.490 . S
C696 H686 0.930 1_655 S
C696 C695 1.400 1_654 S
C696 C699 1.386 . S
H697 C713 0.930 . S
H698 C714 0.931 . S
C699 H687 0.929 . S
C699 C693 1.390 . S
C699 C696 1.386 . S
C700 C695 1.490 . S
C700 C702 1.395 . S
C700 C703 1.403 1_556 S
H701 C707 0.930 . S
C702 H688 0.930 . S
C702 C700 1.395 . S
C702 C705 1.403 . S
C703 C700 1.403 1_554 S
C703 C704 1.524 . S
C703 C707 1.400 . S
C704 H689 0.960 . S
C704 H690 0.960 . S
C704 H691 0.960 . S
C704 C703 1.524 . S
C705 C702 1.403 . S
C705 C706 1.392 . S
C705 C709 1.495 . S
C706 C705 1.392 . S
C706 C707 1.385 1_556 S
C706 C708 1.478 . S
C707 H701 0.930 . S
C707 C703 1.400 . S
C707 C706 1.385 1_554 S
C708 C706 1.478 . S
C708 C710 1.381 . S
C708 C714 1.383 1_556 S
C709 C705 1.495 . S
C709 H715 0.959 . S
C709 H716 0.961 . S
C709 H717 0.960 . S
C710 C708 1.381 . S
C710 C711 1.394 . S
C710 H718 0.930 . S
C711 C710 1.394 . S
C711 C712 1.383 . S
C711 H719 0.929 . S
C712 C711 1.383 . S
C712 C713 1.377 1_556 S
C713 H697 0.930 . S
C713 C712 1.377 1_554 S
C713 C714 1.379 . S
C714 H698 0.931 . S
C714 C708 1.383 1_554 S
C714 C713 1.379 . S
H715 C709 0.959 . S
H716 C709 0.961 . S
H717 C709 0.960 . S
H718 C710 0.930 . S
H719 C711 0.929 . S
H720 C728 0.929 . S
H721 C730 0.930 . S
H722 C732 0.930 . S
H723 C735 0.929 . S
H724 C738 0.930 . S
H725 C740 0.962 . S
H726 C740 0.980 . S
H727 C740 0.941 1_556 S
C728 H720 0.929 . S
C728 C729 1.377 1_554 S
C728 C730 1.384 . S
C729 C728 1.377 1_556 S
C729 C735 1.390 . S
C730 H721 0.930 . S
C730 C728 1.384 . S
C730 C731 1.372 1_554 S
C731 C730 1.372 1_556 S
C731 C732 1.400 . S
C731 C736 1.490 . S
C732 H722 0.930 . S
C732 C731 1.400 . S
C732 C735 1.386 . S
H733 C749 0.930 . S
H734 C750 0.927 1_545 S
C735 H723 0.929 . S
C735 C729 1.390 . S
C735 C732 1.386 . S
C736 C731 1.490 . S
C736 C738 1.395 . S
C736 C739 1.403 . S
H737 C743 0.929 1_554 S
C738 H724 0.930 . S
C738 C736 1.395 . S
C738 C741 1.403 . S
C739 C736 1.403 . S
C739 C740 1.523 1_556 S
C739 C743 1.400 . S
C740 H725 0.962 . S
C740 H726 0.980 . S
C740 H727 0.941 1_554 S
C740 C739 1.523 1_554 S
C741 C738 1.403 . S
C741 C742 1.393 . S
C741 C745 1.495 . S
C742 C741 1.393 . S
C742 C743 1.385 . S
C742 C744 1.477 1_556 S
C743 H737 0.929 1_556 S
C743 C739 1.400 . S
C743 C742 1.385 . S
C744 C742 1.477 1_554 S
C744 C746 1.400 1_545 S
C744 C750 1.365 1_544 S
C745 C741 1.495 . S
C745 H751 0.959 . S
C745 H752 0.961 . S
C745 H753 0.960 1_556 S
C746 C744 1.400 1_565 S
C746 C747 1.394 . S
C746 H754 0.930 1_565 S
C747 C746 1.394 . S
C747 C748 1.383 . S
C747 H755 0.929 . S
C748 C747 1.383 . S
C748 C749 1.377 1_554 S
C749 H733 0.930 . S
C749 C748 1.377 1_556 S
C749 C750 1.379 . S
C750 H734 0.927 1_565 S
C750 C744 1.365 1_566 S
C750 C749 1.379 . S
H751 C745 0.959 . S
H752 C745 0.961 . S
H753 C745 0.960 1_554 S
H754 C746 0.930 1_545 S
H755 C747 0.929 . S
H756 C764 0.929 . S
H757 C766 0.930 . S
H758 C768 0.930 . S
H759 C771 0.929 . S
H760 C774 0.930 . S
H761 C776 0.960 . S
H762 C776 0.960 . S
H763 C776 0.960 . S
C764 H756 0.929 . S
C764 C765 1.377 1_554 S
C764 C766 1.384 . S
C765 C764 1.377 1_556 S
C765 C771 1.390 . S
C766 H757 0.930 . S
C766 C764 1.384 . S
C766 C767 1.372 1_554 S
C767 C766 1.372 1_556 S
C767 C768 1.400 . S
C767 C772 1.490 . S
C768 H758 0.930 . S
C768 C767 1.400 . S
C768 C771 1.386 . S
H769 C785 0.930 . S
H770 C786 0.931 . S
C771 H759 0.929 . S
C771 C765 1.390 . S
C771 C768 1.386 . S
C772 C767 1.490 . S
C772 C774 1.395 1_556 S
C772 C775 1.403 . S
H773 C779 0.930 . S
C774 H760 0.930 . S
C774 C772 1.395 1_554 S
C774 C777 1.403 . S
C775 C772 1.403 . S
C775 C776 1.524 . S
C775 C779 1.400 . S
C776 H761 0.960 . S
C776 H762 0.960 . S
C776 H763 0.960 . S
C776 C775 1.524 . S
C777 C774 1.403 . S
C777 C778 1.392 . S
C777 C781 1.495 . S
C778 C777 1.392 . S
C778 C779 1.385 1_554 S
C778 C780 1.478 . S
C779 H773 0.930 . S
C779 C775 1.400 . S
C779 C778 1.385 1_556 S
C780 C778 1.478 . S
C780 C782 1.381 . S
C780 C786 1.383 1_554 S
C781 C777 1.495 . S
C781 H787 0.959 . S
C781 H788 0.961 . S
C781 H789 0.960 . S
C782 C780 1.381 . S
C782 C783 1.394 . S
C782 H790 0.930 . S
C783 C782 1.394 . S
C783 C784 1.383 . S
C783 H791 0.929 . S
C784 C783 1.383 . S
C784 C785 1.377 1_554 S
C785 H769 0.930 . S
C785 C784 1.377 1_556 S
C785 C786 1.379 . S
C786 H770 0.931 . S
C786 C780 1.383 1_556 S
C786 C785 1.379 . S
H787 C781 0.959 . S
H788 C781 0.961 . S
H789 C781 0.960 . S
H790 C782 0.930 . S
H791 C783 0.929 . S
H792 C800 0.929 . S
H793 C802 0.930 . S
H794 C804 0.930 . S
H795 C807 0.929 . S
H796 C810 0.930 . S
H797 C812 0.960 . S
H798 C812 0.960 . S
H799 C812 0.960 . S
C800 H792 0.929 . S
C800 C801 1.377 . S
C800 C802 1.384 . S
C801 C800 1.377 . S
C801 C807 1.390 1_556 S
C802 H793 0.930 . S
C802 C800 1.384 . S
C802 C803 1.372 . S
C803 C802 1.372 . S
C803 C804 1.400 1_556 S
C803 C808 1.490 . S
C804 H794 0.930 . S
C804 C803 1.400 1_554 S
C804 C807 1.386 . S
H805 C821 0.930 . S
H806 C822 0.931 1_655 S
C807 H795 0.929 . S
C807 C801 1.390 1_554 S
C807 C804 1.386 . S
C808 C803 1.490 . S
C808 C810 1.395 . S
C808 C811 1.403 1_556 S
H809 C815 0.930 . S
C810 H796 0.930 . S
C810 C808 1.395 . S
C810 C813 1.403 . S
C811 C808 1.403 1_554 S
C811 C812 1.524 . S
C811 C815 1.400 . S
C812 H797 0.960 . S
C812 H798 0.960 . S
C812 H799 0.960 . S
C812 C811 1.524 . S
C813 C810 1.403 . S
C813 C814 1.392 . S
C813 C817 1.495 . S
C814 C813 1.392 . S
C814 C815 1.385 1_556 S
C814 C816 1.478 . S
C815 H809 0.930 . S
C815 C811 1.400 . S
C815 C814 1.385 1_554 S
C816 C814 1.478 . S
C816 C818 1.381 1_655 S
C816 C822 1.383 1_656 S
C817 C813 1.495 . S
C817 H823 0.959 . S
C817 H824 0.961 . S
C817 H825 0.960 . S
C818 C816 1.381 1_455 S
C818 C819 1.394 . S
C818 H826 0.930 1_455 S
C819 C818 1.394 . S
C819 C820 1.383 1_556 S
C819 H827 0.929 . S
C820 C819 1.383 1_554 S
C820 C821 1.377 . S
C821 H805 0.930 . S
C821 C820 1.377 . S
C821 C822 1.379 . S
C822 H806 0.931 1_455 S
C822 C816 1.383 1_454 S
C822 C821 1.379 . S
H823 C817 0.959 . S
H824 C817 0.961 . S
H825 C817 0.960 . S
H826 C818 0.930 1_655 S
H827 C819 0.929 . S
H828 C836 0.929 . S
H829 C838 0.930 . S
H830 C840 0.930 . S
H831 C843 0.929 . S
H832 C846 0.930 . S
H833 C848 0.960 . S
H834 C848 0.960 . S
H835 C848 0.960 . S
C836 H828 0.929 . S
C836 C837 1.377 . S
C836 C838 1.384 . S
C837 C836 1.377 . S
C837 C843 1.390 . S
C838 H829 0.930 . S
C838 C836 1.384 . S
C838 C839 1.372 . S
C839 C838 1.372 . S
C839 C840 1.400 . S
C839 C844 1.490 . S
C840 H830 0.930 . S
C840 C839 1.400 . S
C840 C843 1.386 . S
H841 C857 0.930 . S
H842 C858 0.931 1_455 S
C843 H831 0.929 . S
C843 C837 1.390 . S
C843 C840 1.386 . S
C844 C839 1.490 . S
C844 C846 1.395 . S
C844 C847 1.403 . S
H845 C851 0.930 . S
C846 H832 0.930 . S
C846 C844 1.395 . S
C846 C849 1.403 . S
C847 C844 1.403 . S
C847 C848 1.524 . S
C847 C851 1.400 . S
C848 H833 0.960 . S
C848 H834 0.960 . S
C848 H835 0.960 . S
C848 C847 1.524 . S
C849 C846 1.403 . S
C849 C850 1.392 . S
C849 C853 1.495 . S
C850 C849 1.392 . S
C850 C851 1.385 . S
C850 C852 1.478 . S
C851 H845 0.930 . S
C851 C847 1.400 . S
C851 C850 1.385 . S
C852 C850 1.478 . S
C852 C854 1.381 1_455 S
C852 C858 1.383 1_455 S
C853 C849 1.495 . S
C853 H859 0.959 . S
C853 H860 0.961 . S
C853 H861 0.960 . S
C854 C852 1.381 1_655 S
C854 C855 1.394 . S
C854 H862 0.930 1_655 S
C855 C854 1.394 . S
C855 C856 1.383 . S
C855 H863 0.929 . S
C856 C855 1.383 . S
C856 C857 1.377 . S
C857 H841 0.930 . S
C857 C856 1.377 . S
C857 C858 1.379 . S
C858 H842 0.931 1_655 S
C858 C852 1.383 1_655 S
C858 C857 1.379 . S
H859 C853 0.959 . S
H860 C853 0.961 . S
H861 C853 0.960 . S
H862 C854 0.930 1_455 S
H863 C855 0.929 . S
H864 C872 0.929 . S
H865 C874 0.930 . S
H866 C876 0.930 . S
H867 C879 0.929 . S
H868 C882 0.930 . S
H869 C884 0.960 . S
H870 C884 0.960 . S
H871 C884 0.960 . S
C872 H864 0.929 . S
C872 C873 1.377 . S
C872 C874 1.384 . S
C873 C872 1.377 . S
C873 C879 1.390 . S
C874 H865 0.930 . S
C874 C872 1.384 . S
C874 C875 1.372 . S
C875 C874 1.372 . S
C875 C876 1.400 . S
C875 C880 1.490 . S
C876 H866 0.930 . S
C876 C875 1.400 . S
C876 C879 1.386 . S
H877 C893 0.930 . S
H878 C894 0.931 . S
C879 H867 0.929 . S
C879 C873 1.390 . S
C879 C876 1.386 . S
C880 C875 1.490 . S
C880 C882 1.395 . S
C880 C883 1.403 . S
H881 C887 0.930 . S
C882 H868 0.930 . S
C882 C880 1.395 . S
C882 C885 1.403 . S
C883 C880 1.403 . S
C883 C884 1.524 . S
C883 C887 1.400 . S
C884 H869 0.960 . S
C884 H870 0.960 . S
C884 H871 0.960 . S
C884 C883 1.524 . S
C885 C882 1.403 . S
C885 C886 1.392 . S
C885 C889 1.495 . S
C886 C885 1.392 . S
C886 C887 1.385 . S
C886 C888 1.478 . S
C887 H881 0.930 . S
C887 C883 1.400 . S
C887 C886 1.385 . S
C888 C886 1.478 . S
C888 C890 1.381 . S
C888 C894 1.383 1_545 S
C889 C885 1.495 . S
C889 H895 0.959 . S
C889 H896 0.961 . S
C889 H897 0.960 . S
C890 C888 1.381 . S
C890 C891 1.395 1_545 S
C890 H898 0.930 . S
C891 C890 1.395 1_565 S
C891 C892 1.383 . S
C891 H899 0.929 . S
C892 C891 1.383 . S
C892 C893 1.377 . S
C893 H877 0.930 . S
C893 C892 1.377 . S
C893 C894 1.379 . S
C894 H878 0.931 . S
C894 C888 1.383 1_565 S
C894 C893 1.379 . S
H895 C889 0.959 . S
H896 C889 0.961 . S
H897 C889 0.960 . S
H898 C890 0.930 . S
H899 C891 0.929 . S
H900 C908 0.929 . S
H901 C910 0.930 . S
H902 C912 0.930 . S
H903 C915 0.929 . S
H904 C918 0.930 . S
H905 C920 0.960 . S
H906 C920 0.960 . S
H907 C920 0.960 . S
C908 H900 0.929 . S
C908 C909 1.377 . S
C908 C910 1.384 . S
C909 C908 1.377 . S
C909 C915 1.390 . S
C910 H901 0.930 . S
C910 C908 1.384 . S
C910 C911 1.372 . S
C911 C910 1.372 . S
C911 C912 1.400 . S
C911 C916 1.490 . S
C912 H902 0.930 . S
C912 C911 1.400 . S
C912 C915 1.386 . S
H913 C929 0.930 . S
H914 C930 0.931 . S
C915 H903 0.929 . S
C915 C909 1.390 . S
C915 C912 1.386 . S
C916 C911 1.490 . S
C916 C918 1.395 . S
C916 C919 1.403 . S
H917 C923 0.930 . S
C918 H904 0.930 . S
C918 C916 1.395 . S
C918 C921 1.403 . S
C919 C916 1.403 . S
C919 C920 1.524 . S
C919 C923 1.400 . S
C920 H905 0.960 . S
C920 H906 0.960 . S
C920 H907 0.960 . S
C920 C919 1.524 . S
C921 C918 1.403 . S
C921 C922 1.392 . S
C921 C925 1.495 . S
C922 C921 1.392 . S
C922 C923 1.385 . S
C922 C924 1.478 . S
C923 H917 0.930 . S
C923 C919 1.400 . S
C923 C922 1.385 . S
C924 C922 1.478 . S
C924 C926 1.381 . S
C924 C930 1.383 . S
C925 C921 1.495 . S
C925 H931 0.959 . S
C925 H932 0.961 . S
C925 H933 0.960 . S
C926 C924 1.381 . S
C926 C927 1.394 . S
C926 H934 0.930 . S
C927 C926 1.394 . S
C927 C928 1.383 . S
C927 H935 0.929 . S
C928 C927 1.383 . S
C928 C929 1.377 . S
C929 H913 0.930 . S
C929 C928 1.377 . S
C929 C930 1.379 . S
C930 H914 0.931 . S
C930 C924 1.383 . S
C930 C929 1.379 . S
H931 C925 0.959 . S
H932 C925 0.961 . S
H933 C925 0.960 . S
H934 C926 0.930 . S
H935 C927 0.929 . S
H936 C944 0.929 . S
H937 C946 0.930 1_655 S
H938 C948 0.930 1_655 S
H939 C951 0.929 . S
H940 C954 0.930 . S
H941 C956 0.960 . S
H942 C956 0.960 . S
H943 C956 0.960 . S
C944 H936 0.929 . S
C944 C945 1.377 . S
C944 C946 1.384 . S
C945 C944 1.377 . S
C945 C951 1.390 . S
C946 H937 0.930 1_455 S
C946 C944 1.384 . S
C946 C947 1.372 1_455 S
C947 C946 1.372 1_655 S
C947 C948 1.400 1_655 S
C947 C952 1.490 . S
C948 H938 0.930 1_455 S
C948 C947 1.400 1_455 S
C948 C951 1.386 . S
H949 C965 0.930 . S
H950 C966 0.931 . S
C951 H939 0.929 . S
C951 C945 1.390 . S
C951 C948 1.386 . S
C952 C947 1.490 . S
C952 C954 1.395 . S
C952 C955 1.403 . S
H953 C959 0.930 . S
C954 H940 0.930 . S
C954 C952 1.395 . S
C954 C957 1.403 . S
C955 C952 1.403 . S
C955 C956 1.524 . S
C955 C959 1.400 . S
C956 H941 0.960 . S
C956 H942 0.960 . S
C956 H943 0.960 . S
C956 C955 1.524 . S
C957 C954 1.403 . S
C957 C958 1.392 . S
C957 C961 1.495 . S
C958 C957 1.392 . S
C958 C959 1.385 . S
C958 C960 1.478 . S
C959 H953 0.930 . S
C959 C955 1.400 . S
C959 C958 1.385 . S
C960 C958 1.478 . S
C960 C962 1.381 . S
C960 C966 1.383 . S
C961 C957 1.495 . S
C961 H967 0.959 . S
C961 H968 0.961 . S
C961 H969 0.960 . S
C962 C960 1.381 . S
C962 C963 1.394 . S
C962 H970 0.930 . S
C963 C962 1.394 . S
C963 C964 1.383 . S
C963 H971 0.929 . S
C964 C963 1.383 . S
C964 C965 1.377 . S
C965 H949 0.930 . S
C965 C964 1.377 . S
C965 C966 1.379 . S
C966 H950 0.931 . S
C966 C960 1.383 . S
C966 C965 1.379 . S
H967 C961 0.959 . S
H968 C961 0.961 . S
H969 C961 0.960 . S
H970 C962 0.930 . S
H971 C963 0.929 . S
H972 C980 0.929 . S
H973 C982 0.926 1_565 S
H974 C984 0.930 . S
H975 C987 0.929 . S
H976 C990 0.930 . S
H977 C992 0.960 . S
H978 C992 0.960 . S
H979 C992 0.960 . S
C980 H972 0.929 . S
C980 C981 1.377 . S
C980 C982 1.409 . S
C981 C980 1.377 . S
C981 C987 1.390 . S
C982 H973 0.926 1_545 S
C982 C980 1.409 . S
C982 C983 1.352 1_545 S
C983 C982 1.352 1_565 S
C983 C984 1.400 1_565 S
C983 C988 1.490 . S
C984 H974 0.930 . S
C984 C983 1.400 1_545 S
C984 C987 1.386 . S
H985 C1001 0.930 . S
H986 C1002 0.931 . S
C987 H975 0.929 . S
C987 C981 1.390 . S
C987 C984 1.386 . S
C988 C983 1.490 . S
C988 C990 1.395 . S
C988 C991 1.403 . S
H989 C995 0.930 . S
C990 H976 0.930 . S
C990 C988 1.395 . S
C990 C993 1.403 . S
C991 C988 1.403 . S
C991 C992 1.524 . S
C991 C995 1.400 . S
C992 H977 0.960 . S
C992 H978 0.960 . S
C992 H979 0.960 . S
C992 C991 1.524 . S
C993 C990 1.403 . S
C993 C994 1.392 . S
C993 C997 1.495 . S
C994 C993 1.392 . S
C994 C995 1.385 . S
C994 C996 1.478 . S
C995 H989 0.930 . S
C995 C991 1.400 . S
C995 C994 1.385 . S
C996 C994 1.478 . S
C996 C998 1.381 . S
C996 C1002 1.383 . S
C997 C993 1.495 . S
C997 H1003 0.959 . S
C997 H1004 0.961 . S
C997 H1005 0.960 . S
C998 C996 1.381 . S
C998 C999 1.394 . S
C998 H1006 0.930 . S
C999 C998 1.394 . S
C999 C1000 1.383 . S
C999 H1007 0.929 . S
C1000 C999 1.383 . S
C1000 C1001 1.377 . S
C1001 H985 0.930 . S
C1001 C1000 1.377 . S
C1001 C1002 1.379 . S
C1002 H986 0.931 . S
C1002 C996 1.383 . S
C1002 C1001 1.379 . S
H1003 C997 0.959 . S
H1004 C997 0.961 . S
H1005 C997 0.960 . S
H1006 C998 0.930 . S
H1007 C999 0.929 . S
H1008 C1016 0.929 . S
H1009 C1018 0.930 . S
H1010 C1020 0.930 . S
H1011 C1023 0.929 . S
H1012 C1026 0.930 . S
H1013 C1028 0.960 . S
H1014 C1028 0.960 . S
H1015 C1028 0.960 . S
C1016 H1008 0.929 . S
C1016 C1017 1.377 . S
C1016 C1018 1.384 . S
C1017 C1016 1.377 . S
C1017 C1023 1.390 . S
C1018 H1009 0.930 . S
C1018 C1016 1.384 . S
C1018 C1019 1.372 . S
C1019 C1018 1.372 . S
C1019 C1020 1.400 . S
C1019 C1024 1.490 . S
C1020 H1010 0.930 . S
C1020 C1019 1.400 . S
C1020 C1023 1.386 . S
H1021 C1037 0.930 . S
H1022 C1038 0.931 . S
C1023 H1011 0.929 . S
C1023 C1017 1.390 . S
C1023 C1020 1.386 . S
C1024 C1019 1.490 . S
C1024 C1026 1.395 . S
C1024 C1027 1.403 . S
H1025 C1031 0.930 . S
C1026 H1012 0.930 . S
C1026 C1024 1.395 . S
C1026 C1029 1.403 . S
C1027 C1024 1.403 . S
C1027 C1028 1.524 . S
C1027 C1031 1.400 . S
C1028 H1013 0.960 . S
C1028 H1014 0.960 . S
C1028 H1015 0.960 . S
C1028 C1027 1.524 . S
C1029 C1026 1.403 . S
C1029 C1030 1.392 . S
C1029 C1033 1.495 . S
C1030 C1029 1.392 . S
C1030 C1031 1.385 . S
C1030 C1032 1.478 . S
C1031 H1025 0.930 . S
C1031 C1027 1.400 . S
C1031 C1030 1.385 . S
C1032 C1030 1.478 . S
C1032 C1034 1.381 . S
C1032 C1038 1.383 . S
C1033 C1029 1.495 . S
C1033 H1039 0.959 . S
C1033 H1040 0.961 . S
C1033 H1041 0.960 . S
C1034 C1032 1.381 . S
C1034 C1035 1.394 . S
C1034 H1042 0.930 . S
C1035 C1034 1.394 . S
C1035 C1036 1.383 . S
C1035 H1043 0.929 . S
C1036 C1035 1.383 . S
C1036 C1037 1.377 . S
C1037 H1021 0.930 . S
C1037 C1036 1.377 . S
C1037 C1038 1.379 . S
C1038 H1022 0.931 . S
C1038 C1032 1.383 . S
C1038 C1037 1.379 . S
H1039 C1033 0.959 . S
H1040 C1033 0.961 . S
H1041 C1033 0.960 . S
H1042 C1034 0.930 . S
H1043 C1035 0.929 . S
H1044 C1052 0.929 . S
H1045 C1054 0.930 . S
H1046 C1056 0.930 . S
H1047 C1059 0.929 . S
H1048 C1062 0.930 . S
H1049 C1064 0.960 . S
H1050 C1064 0.960 . S
H1051 C1064 0.960 . S
C1052 H1044 0.929 . S
C1052 C1053 1.377 . S
C1052 C1054 1.384 . S
C1053 C1052 1.377 . S
C1053 C1059 1.390 . S
C1054 H1045 0.930 . S
C1054 C1052 1.384 . S
C1054 C1055 1.372 . S
C1055 C1054 1.372 . S
C1055 C1056 1.400 . S
C1055 C1060 1.490 . S
C1056 H1046 0.930 . S
C1056 C1055 1.400 . S
C1056 C1059 1.386 . S
H1057 C1073 0.930 . S
H1058 C1074 0.931 . S
C1059 H1047 0.929 . S
C1059 C1053 1.390 . S
C1059 C1056 1.386 . S
C1060 C1055 1.490 . S
C1060 C1062 1.395 . S
C1060 C1063 1.403 . S
H1061 C1067 0.930 . S
C1062 H1048 0.930 . S
C1062 C1060 1.395 . S
C1062 C1065 1.403 . S
C1063 C1060 1.403 . S
C1063 C1064 1.524 . S
C1063 C1067 1.400 . S
C1064 H1049 0.960 . S
C1064 H1050 0.960 . S
C1064 H1051 0.960 . S
C1064 C1063 1.524 . S
C1065 C1062 1.403 . S
C1065 C1066 1.392 . S
C1065 C1069 1.495 . S
C1066 C1065 1.392 . S
C1066 C1067 1.385 . S
C1066 C1068 1.478 . S
C1067 H1061 0.930 . S
C1067 C1063 1.400 . S
C1067 C1066 1.385 . S
C1068 C1066 1.478 . S
C1068 C1070 1.381 . S
C1068 C1074 1.383 . S
C1069 C1065 1.495 . S
C1069 H1075 0.959 . S
C1069 H1076 0.961 . S
C1069 H1077 0.960 . S
C1070 C1068 1.381 . S
C1070 C1071 1.394 . S
C1070 H1078 0.930 . S
C1071 C1070 1.394 . S
C1071 C1072 1.383 . S
C1071 H1079 0.929 . S
C1072 C1071 1.383 . S
C1072 C1073 1.377 . S
C1073 H1057 0.930 . S
C1073 C1072 1.377 . S
C1073 C1074 1.379 . S
C1074 H1058 0.931 . S
C1074 C1068 1.383 . S
C1074 C1073 1.379 . S
H1075 C1069 0.959 . S
H1076 C1069 0.961 . S
H1077 C1069 0.960 . S
H1078 C1070 0.930 . S
H1079 C1071 0.929 . S
H1080 C1088 0.929 . S
H1081 C1090 0.930 . S
H1082 C1092 0.930 . S
H1083 C1095 0.929 . S
H1084 C1098 0.930 . S
H1085 C1100 0.960 . S
H1086 C1100 0.960 . S
H1087 C1100 0.960 . S
C1088 H1080 0.929 . S
C1088 C1089 1.377 . S
C1088 C1090 1.384 . S
C1089 C1088 1.377 . S
C1089 C1095 1.390 . S
C1090 H1081 0.930 . S
C1090 C1088 1.384 . S
C1090 C1091 1.372 . S
C1091 C1090 1.372 . S
C1091 C1092 1.400 . S
C1091 C1096 1.490 . S
C1092 H1082 0.930 . S
C1092 C1091 1.400 . S
C1092 C1095 1.386 . S
H1093 C1109 0.930 . S
H1094 C1110 0.931 . S
C1095 H1083 0.929 . S
C1095 C1089 1.390 . S
C1095 C1092 1.386 . S
C1096 C1091 1.490 . S
C1096 C1098 1.395 . S
C1096 C1099 1.403 . S
H1097 C1103 0.930 . S
C1098 H1084 0.930 . S
C1098 C1096 1.395 . S
C1098 C1101 1.403 . S
C1099 C1096 1.403 . S
C1099 C1100 1.524 . S
C1099 C1103 1.400 . S
C1100 H1085 0.960 . S
C1100 H1086 0.960 . S
C1100 H1087 0.960 . S
C1100 C1099 1.524 . S
C1101 C1098 1.403 . S
C1101 C1102 1.392 . S
C1101 C1105 1.495 . S
C1102 C1101 1.392 . S
C1102 C1103 1.385 . S
C1102 C1104 1.478 . S
C1103 H1097 0.930 . S
C1103 C1099 1.400 . S
C1103 C1102 1.385 . S
C1104 C1102 1.478 . S
C1104 C1106 1.381 . S
C1104 C1110 1.383 . S
C1105 C1101 1.495 . S
C1105 H1111 0.959 . S
C1105 H1112 0.961 . S
C1105 H1113 0.960 . S
C1106 C1104 1.381 . S
C1106 C1107 1.394 . S
C1106 H1114 0.930 . S
C1107 C1106 1.394 . S
C1107 C1108 1.383 . S
C1107 H1115 0.929 . S
C1108 C1107 1.383 . S
C1108 C1109 1.377 . S
C1109 H1093 0.930 . S
C1109 C1108 1.377 . S
C1109 C1110 1.379 . S
C1110 H1094 0.931 . S
C1110 C1104 1.383 . S
C1110 C1109 1.379 . S
H1111 C1105 0.959 . S
H1112 C1105 0.961 . S
H1113 C1105 0.960 . S
H1114 C1106 0.930 . S
H1115 C1107 0.929 . S
H1116 C1124 0.929 . S
H1117 C1126 0.930 . S
H1118 C1128 0.930 . S
H1119 C1131 0.929 . S
H1120 C1134 0.930 . S
H1121 C1136 0.960 . S
H1122 C1136 0.960 . S
H1123 C1136 0.960 . S
C1124 H1116 0.929 . S
C1124 C1125 1.377 . S
C1124 C1126 1.384 . S
C1125 C1124 1.377 . S
C1125 C1131 1.390 . S
C1126 H1117 0.930 . S
C1126 C1124 1.384 . S
C1126 C1127 1.372 . S
C1127 C1126 1.372 . S
C1127 C1128 1.400 . S
C1127 C1132 1.490 . S
C1128 H1118 0.930 . S
C1128 C1127 1.400 . S
C1128 C1131 1.386 . S
H1129 C1145 0.930 . S
H1130 C1146 0.931 . S
C1131 H1119 0.929 . S
C1131 C1125 1.390 . S
C1131 C1128 1.386 . S
C1132 C1127 1.490 . S
C1132 C1134 1.395 . S
C1132 C1135 1.403 . S
H1133 C1139 0.930 . S
C1134 H1120 0.930 . S
C1134 C1132 1.395 . S
C1134 C1137 1.403 . S
C1135 C1132 1.403 . S
C1135 C1136 1.524 . S
C1135 C1139 1.400 . S
C1136 H1121 0.960 . S
C1136 H1122 0.960 . S
C1136 H1123 0.960 . S
C1136 C1135 1.524 . S
C1137 C1134 1.403 . S
C1137 C1138 1.392 . S
C1137 C1141 1.495 . S
C1138 C1137 1.392 . S
C1138 C1139 1.385 . S
C1138 C1140 1.478 . S
C1139 H1133 0.930 . S
C1139 C1135 1.400 . S
C1139 C1138 1.385 . S
C1140 C1138 1.478 . S
C1140 C1142 1.381 . S
C1140 C1146 1.383 . S
C1141 C1137 1.495 . S
C1141 H1147 0.959 . S
C1141 H1148 0.961 . S
C1141 H1149 0.960 . S
C1142 C1140 1.381 . S
C1142 C1143 1.394 . S
C1142 H1150 0.930 . S
C1143 C1142 1.394 . S
C1143 C1144 1.383 . S
C1143 H1151 0.929 . S
C1144 C1143 1.383 . S
C1144 C1145 1.377 . S
C1145 H1129 0.930 . S
C1145 C1144 1.377 . S
C1145 C1146 1.379 . S
C1146 H1130 0.931 . S
C1146 C1140 1.383 . S
C1146 C1145 1.379 . S
H1147 C1141 0.959 . S
H1148 C1141 0.961 . S
H1149 C1141 0.960 . S
H1150 C1142 0.930 . S
H1151 C1143 0.929 . S
H1152 C1160 0.929 . S
H1153 C1162 0.930 . S
H1154 C1164 0.930 . S
H1155 C1167 0.929 . S
H1156 C1170 0.930 . S
H1157 C1172 0.960 . S
H1158 C1172 0.960 . S
H1159 C1172 0.960 . S
C1160 H1152 0.929 . S
C1160 C1161 1.377 . S
C1160 C1162 1.384 . S
C1161 C1160 1.377 . S
C1161 C1167 1.390 . S
C1162 H1153 0.930 . S
C1162 C1160 1.384 . S
C1162 C1163 1.372 . S
C1163 C1162 1.372 . S
C1163 C1164 1.400 . S
C1163 C1168 1.490 . S
C1164 H1154 0.930 . S
C1164 C1163 1.400 . S
C1164 C1167 1.386 . S
H1165 C1181 0.930 . S
H1166 C1182 0.931 . S
C1167 H1155 0.929 . S
C1167 C1161 1.390 . S
C1167 C1164 1.386 . S
C1168 C1163 1.490 . S
C1168 C1170 1.395 . S
C1168 C1171 1.403 . S
H1169 C1175 0.930 . S
C1170 H1156 0.930 . S
C1170 C1168 1.395 . S
C1170 C1173 1.403 . S
C1171 C1168 1.403 . S
C1171 C1172 1.524 . S
C1171 C1175 1.400 . S
C1172 H1157 0.960 . S
C1172 H1158 0.960 . S
C1172 H1159 0.960 . S
C1172 C1171 1.524 . S
C1173 C1170 1.403 . S
C1173 C1174 1.392 . S
C1173 C1177 1.495 . S
C1174 C1173 1.392 . S
C1174 C1175 1.385 . S
C1174 C1176 1.478 . S
C1175 H1169 0.930 . S
C1175 C1171 1.400 . S
C1175 C1174 1.385 . S
C1176 C1174 1.478 . S
C1176 C1178 1.381 . S
C1176 C1182 1.383 . S
C1177 C1173 1.495 . S
C1177 H1183 0.959 . S
C1177 H1184 0.961 . S
C1177 H1185 0.960 . S
C1178 C1176 1.381 . S
C1178 C1179 1.394 . S
C1178 H1186 0.930 . S
C1179 C1178 1.394 . S
C1179 C1180 1.383 . S
C1179 H1187 0.929 . S
C1180 C1179 1.383 . S
C1180 C1181 1.377 . S
C1181 H1165 0.930 . S
C1181 C1180 1.377 . S
C1181 C1182 1.379 . S
C1182 H1166 0.931 . S
C1182 C1176 1.383 . S
C1182 C1181 1.379 . S
H1183 C1177 0.959 . S
H1184 C1177 0.961 . S
H1185 C1177 0.960 . S
H1186 C1178 0.930 . S
H1187 C1179 0.929 . S
H1188 C1196 0.929 . S
H1189 C1198 0.930 . S
H1190 C1200 0.930 . S
H1191 C1203 0.929 . S
H1192 C1206 0.930 . S
H1193 C1208 0.960 . S
H1194 C1208 0.960 . S
H1195 C1208 0.960 . S
C1196 H1188 0.929 . S
C1196 C1197 1.377 . S
C1196 C1198 1.384 . S
C1197 C1196 1.377 . S
C1197 C1203 1.390 . S
C1198 H1189 0.930 . S
C1198 C1196 1.384 . S
C1198 C1199 1.372 . S
C1199 C1198 1.372 . S
C1199 C1200 1.400 . S
C1199 C1204 1.490 . S
C1200 H1190 0.930 . S
C1200 C1199 1.400 . S
C1200 C1203 1.386 . S
H1201 C1217 0.930 . S
H1202 C1218 0.931 . S
C1203 H1191 0.929 . S
C1203 C1197 1.390 . S
C1203 C1200 1.386 . S
C1204 C1199 1.490 . S
C1204 C1206 1.395 . S
C1204 C1207 1.403 . S
H1205 C1211 0.930 . S
C1206 H1192 0.930 . S
C1206 C1204 1.395 . S
C1206 C1209 1.403 . S
C1207 C1204 1.403 . S
C1207 C1208 1.524 . S
C1207 C1211 1.400 . S
C1208 H1193 0.960 . S
C1208 H1194 0.960 . S
C1208 H1195 0.960 . S
C1208 C1207 1.524 . S
C1209 C1206 1.403 . S
C1209 C1210 1.392 . S
C1209 C1213 1.495 . S
C1210 C1209 1.392 . S
C1210 C1211 1.385 . S
C1210 C1212 1.478 . S
C1211 H1205 0.930 . S
C1211 C1207 1.400 . S
C1211 C1210 1.385 . S
C1212 C1210 1.478 . S
C1212 C1214 1.381 . S
C1212 C1218 1.383 . S
C1213 C1209 1.495 . S
C1213 H1219 0.959 . S
C1213 H1220 0.961 . S
C1213 H1221 0.960 . S
C1214 C1212 1.381 . S
C1214 C1215 1.394 . S
C1214 H1222 0.930 . S
C1215 C1214 1.394 . S
C1215 C1216 1.383 . S
C1215 H1223 0.929 . S
C1216 C1215 1.383 . S
C1216 C1217 1.377 . S
C1217 H1201 0.930 . S
C1217 C1216 1.377 . S
C1217 C1218 1.379 . S
C1218 H1202 0.931 . S
C1218 C1212 1.383 . S
C1218 C1217 1.379 . S
H1219 C1213 0.959 . S
H1220 C1213 0.961 . S
H1221 C1213 0.960 . S
H1222 C1214 0.930 . S
H1223 C1215 0.929 . S
H1224 C1232 0.929 . S
H1225 C1234 0.930 . S
H1226 C1236 0.930 . S
H1227 C1239 0.929 . S
H1228 C1242 0.930 . S
H1229 C1244 0.960 . S
H1230 C1244 0.960 . S
H1231 C1244 0.960 . S
C1232 H1224 0.929 . S
C1232 C1233 1.377 . S
C1232 C1234 1.384 . S
C1233 C1232 1.377 . S
C1233 C1239 1.390 . S
C1234 H1225 0.930 . S
C1234 C1232 1.384 . S
C1234 C1235 1.372 . S
C1235 C1234 1.372 . S
C1235 C1236 1.400 . S
C1235 C1240 1.490 . S
C1236 H1226 0.930 . S
C1236 C1235 1.400 . S
C1236 C1239 1.386 . S
H1237 C1253 0.930 . S
H1238 C1254 0.931 . S
C1239 H1227 0.929 . S
C1239 C1233 1.390 . S
C1239 C1236 1.386 . S
C1240 C1235 1.490 . S
C1240 C1242 1.395 . S
C1240 C1243 1.403 . S
H1241 C1247 0.930 . S
C1242 H1228 0.930 . S
C1242 C1240 1.395 . S
C1242 C1245 1.403 . S
C1243 C1240 1.403 . S
C1243 C1244 1.524 . S
C1243 C1247 1.400 . S
C1244 H1229 0.960 . S
C1244 H1230 0.960 . S
C1244 H1231 0.960 . S
C1244 C1243 1.524 . S
C1245 C1242 1.403 . S
C1245 C1246 1.392 . S
C1245 C1249 1.495 . S
C1246 C1245 1.392 . S
C1246 C1247 1.385 . S
C1246 C1248 1.478 . S
C1247 H1241 0.930 . S
C1247 C1243 1.400 . S
C1247 C1246 1.385 . S
C1248 C1246 1.478 . S
C1248 C1250 1.381 . S
C1248 C1254 1.383 . S
C1249 C1245 1.495 . S
C1249 H1255 0.959 . S
C1249 H1256 0.961 . S
C1249 H1257 0.960 . S
C1250 C1248 1.381 . S
C1250 C1251 1.394 . S
C1250 H1258 0.930 . S
C1251 C1250 1.394 . S
C1251 C1252 1.383 . S
C1251 H1259 0.929 . S
C1252 C1251 1.383 . S
C1252 C1253 1.377 . S
C1253 H1237 0.930 . S
C1253 C1252 1.377 . S
C1253 C1254 1.379 . S
C1254 H1238 0.931 . S
C1254 C1248 1.383 . S
C1254 C1253 1.379 . S
H1255 C1249 0.959 . S
H1256 C1249 0.961 . S
H1257 C1249 0.960 . S
H1258 C1250 0.930 . S
H1259 C1251 0.929 . S
H1260 C1268 0.929 . S
H1261 C1270 0.930 . S
H1262 C1272 0.930 . S
H1263 C1275 0.929 . S
H1264 C1278 0.930 . S
H1265 C1280 0.960 . S
H1266 C1280 0.960 . S
H1267 C1280 0.960 . S
C1268 H1260 0.929 . S
C1268 C1269 1.377 . S
C1268 C1270 1.384 . S
C1269 C1268 1.377 . S
C1269 C1275 1.390 . S
C1270 H1261 0.930 . S
C1270 C1268 1.384 . S
C1270 C1271 1.372 . S
C1271 C1270 1.372 . S
C1271 C1272 1.400 . S
C1271 C1276 1.490 . S
C1272 H1262 0.930 . S
C1272 C1271 1.400 . S
C1272 C1275 1.386 . S
H1273 C1289 0.930 . S
H1274 C1290 0.931 . S
C1275 H1263 0.929 . S
C1275 C1269 1.390 . S
C1275 C1272 1.386 . S
C1276 C1271 1.490 . S
C1276 C1278 1.395 . S
C1276 C1279 1.403 . S
H1277 C1283 0.930 . S
C1278 H1264 0.930 . S
C1278 C1276 1.395 . S
C1278 C1281 1.403 . S
C1279 C1276 1.403 . S
C1279 C1280 1.524 . S
C1279 C1283 1.400 . S
C1280 H1265 0.960 . S
C1280 H1266 0.960 . S
C1280 H1267 0.960 . S
C1280 C1279 1.524 . S
C1281 C1278 1.403 . S
C1281 C1282 1.392 . S
C1281 C1285 1.495 . S
C1282 C1281 1.392 . S
C1282 C1283 1.385 . S
C1282 C1284 1.478 . S
C1283 H1277 0.930 . S
C1283 C1279 1.400 . S
C1283 C1282 1.385 . S
C1284 C1282 1.478 . S
C1284 C1286 1.381 . S
C1284 C1290 1.383 . S
C1285 C1281 1.495 . S
C1285 H1291 0.959 . S
C1285 H1292 0.961 . S
C1285 H1293 0.960 . S
C1286 C1284 1.381 . S
C1286 C1287 1.394 . S
C1286 H1294 0.930 . S
C1287 C1286 1.394 . S
C1287 C1288 1.383 . S
C1287 H1295 0.929 . S
C1288 C1287 1.383 . S
C1288 C1289 1.377 . S
C1289 H1273 0.930 . S
C1289 C1288 1.377 . S
C1289 C1290 1.379 . S
C1290 H1274 0.931 . S
C1290 C1284 1.383 . S
C1290 C1289 1.379 . S
H1291 C1285 0.959 . S
H1292 C1285 0.961 . S
H1293 C1285 0.960 . S
H1294 C1286 0.930 . S
H1295 C1287 0.929 . S
H1296 C1304 0.929 . S
H1297 C1306 0.930 . S
H1298 C1308 0.930 . S
H1299 C1311 0.929 . S
H1300 C1314 0.930 . S
H1301 C1316 0.960 . S
H1302 C1316 0.960 . S
H1303 C1316 0.960 . S
C1304 H1296 0.929 . S
C1304 C1305 1.377 . S
C1304 C1306 1.384 . S
C1305 C1304 1.377 . S
C1305 C1311 1.390 . S
C1306 H1297 0.930 . S
C1306 C1304 1.384 . S
C1306 C1307 1.372 . S
C1307 C1306 1.372 . S
C1307 C1308 1.400 . S
C1307 C1312 1.490 . S
C1308 H1298 0.930 . S
C1308 C1307 1.400 . S
C1308 C1311 1.386 . S
H1309 C1325 0.930 . S
H1310 C1326 0.931 . S
C1311 H1299 0.929 . S
C1311 C1305 1.390 . S
C1311 C1308 1.386 . S
C1312 C1307 1.490 . S
C1312 C1314 1.395 . S
C1312 C1315 1.403 . S
H1313 C1319 0.930 . S
C1314 H1300 0.930 . S
C1314 C1312 1.395 . S
C1314 C1317 1.403 . S
C1315 C1312 1.403 . S
C1315 C1316 1.524 . S
C1315 C1319 1.400 . S
C1316 H1301 0.960 . S
C1316 H1302 0.960 . S
C1316 H1303 0.960 . S
C1316 C1315 1.524 . S
C1317 C1314 1.403 . S
C1317 C1318 1.392 . S
C1317 C1321 1.495 . S
C1318 C1317 1.392 . S
C1318 C1319 1.385 . S
C1318 C1320 1.478 . S
C1319 H1313 0.930 . S
C1319 C1315 1.400 . S
C1319 C1318 1.385 . S
C1320 C1318 1.478 . S
C1320 C1322 1.381 . S
C1320 C1326 1.383 . S
C1321 C1317 1.495 . S
C1321 H1327 0.959 . S
C1321 H1328 0.961 . S
C1321 H1329 0.960 . S
C1322 C1320 1.381 . S
C1322 C1323 1.394 . S
C1322 H1330 0.930 . S
C1323 C1322 1.394 . S
C1323 C1324 1.383 . S
C1323 H1331 0.929 . S
C1324 C1323 1.383 . S
C1324 C1325 1.377 . S
C1325 H1309 0.930 . S
C1325 C1324 1.377 . S
C1325 C1326 1.379 . S
C1326 H1310 0.931 . S
C1326 C1320 1.383 . S
C1326 C1325 1.379 . S
H1327 C1321 0.959 . S
H1328 C1321 0.961 . S
H1329 C1321 0.960 . S
H1330 C1322 0.930 . S
H1331 C1323 0.929 . S
H1332 C1340 0.929 . S
H1333 C1342 0.930 . S
H1334 C1344 0.930 . S
H1335 C1347 0.929 . S
H1336 C1350 0.930 . S
H1337 C1352 0.960 . S
H1338 C1352 0.960 . S
H1339 C1352 0.960 . S
C1340 H1332 0.929 . S
C1340 C1341 1.377 . S
C1340 C1342 1.384 . S
C1341 C1340 1.377 . S
C1341 C1347 1.390 . S
C1342 H1333 0.930 . S
C1342 C1340 1.384 . S
C1342 C1343 1.372 . S
C1343 C1342 1.372 . S
C1343 C1344 1.400 . S
C1343 C1348 1.490 . S
C1344 H1334 0.930 . S
C1344 C1343 1.400 . S
C1344 C1347 1.386 . S
H1345 C1361 0.930 . S
H1346 C1362 0.931 . S
C1347 H1335 0.929 . S
C1347 C1341 1.390 . S
C1347 C1344 1.386 . S
C1348 C1343 1.490 . S
C1348 C1350 1.395 . S
C1348 C1351 1.403 . S
H1349 C1355 0.930 . S
C1350 H1336 0.930 . S
C1350 C1348 1.395 . S
C1350 C1353 1.403 . S
C1351 C1348 1.403 . S
C1351 C1352 1.524 . S
C1351 C1355 1.400 . S
C1352 H1337 0.960 . S
C1352 H1338 0.960 . S
C1352 H1339 0.960 . S
C1352 C1351 1.524 . S
C1353 C1350 1.403 . S
C1353 C1354 1.392 . S
C1353 C1357 1.495 . S
C1354 C1353 1.392 . S
C1354 C1355 1.385 . S
C1354 C1356 1.478 . S
C1355 H1349 0.930 . S
C1355 C1351 1.400 . S
C1355 C1354 1.385 . S
C1356 C1354 1.478 . S
C1356 C1358 1.381 . S
C1356 C1362 1.383 . S
C1357 C1353 1.495 . S
C1357 H1363 0.959 . S
C1357 H1364 0.961 . S
C1357 H1365 0.960 . S
C1358 C1356 1.381 . S
C1358 C1359 1.394 . S
C1358 H1366 0.930 . S
C1359 C1358 1.394 . S
C1359 C1360 1.383 . S
C1359 H1367 0.929 . S
C1360 C1359 1.383 . S
C1360 C1361 1.377 . S
C1361 H1345 0.930 . S
C1361 C1360 1.377 . S
C1361 C1362 1.379 . S
C1362 H1346 0.931 . S
C1362 C1356 1.383 . S
C1362 C1361 1.379 . S
H1363 C1357 0.959 . S
H1364 C1357 0.961 . S
H1365 C1357 0.960 . S
H1366 C1358 0.930 . S
H1367 C1359 0.929 . S
H1368 C1376 0.929 . S
H1369 C1378 0.930 . S
H1370 C1380 0.930 . S
H1371 C1383 0.929 . S
H1372 C1386 0.930 . S
H1373 C1388 0.960 . S
H1374 C1388 0.960 . S
H1375 C1388 0.960 . S
C1376 H1368 0.929 . S
C1376 C1377 1.377 . S
C1376 C1378 1.384 . S
C1377 C1376 1.377 . S
C1377 C1383 1.390 . S
C1378 H1369 0.930 . S
C1378 C1376 1.384 . S
C1378 C1379 1.372 . S
C1379 C1378 1.372 . S
C1379 C1380 1.400 . S
C1379 C1384 1.490 . S
C1380 H1370 0.930 . S
C1380 C1379 1.400 . S
C1380 C1383 1.386 . S
H1381 C1397 0.930 . S
H1382 C1398 0.931 . S
C1383 H1371 0.929 . S
C1383 C1377 1.390 . S
C1383 C1380 1.386 . S
C1384 C1379 1.490 . S
C1384 C1386 1.395 . S
C1384 C1387 1.403 . S
H1385 C1391 0.930 . S
C1386 H1372 0.930 . S
C1386 C1384 1.395 . S
C1386 C1389 1.403 . S
C1387 C1384 1.403 . S
C1387 C1388 1.524 . S
C1387 C1391 1.400 . S
C1388 H1373 0.960 . S
C1388 H1374 0.960 . S
C1388 H1375 0.960 . S
C1388 C1387 1.524 . S
C1389 C1386 1.403 . S
C1389 C1390 1.392 . S
C1389 C1393 1.495 . S
C1390 C1389 1.392 . S
C1390 C1391 1.385 . S
C1390 C1392 1.478 . S
C1391 H1385 0.930 . S
C1391 C1387 1.400 . S
C1391 C1390 1.385 . S
C1392 C1390 1.478 . S
C1392 C1394 1.381 . S
C1392 C1398 1.383 . S
C1393 C1389 1.495 . S
C1393 H1399 0.959 . S
C1393 H1400 0.961 . S
C1393 H1401 0.960 . S
C1394 C1392 1.381 . S
C1394 C1395 1.394 . S
C1394 H1402 0.930 . S
C1395 C1394 1.394 . S
C1395 C1396 1.383 . S
C1395 H1403 0.929 . S
C1396 C1395 1.383 . S
C1396 C1397 1.377 . S
C1397 H1381 0.930 . S
C1397 C1396 1.377 . S
C1397 C1398 1.379 . S
C1398 H1382 0.931 . S
C1398 C1392 1.383 . S
C1398 C1397 1.379 . S
H1399 C1393 0.959 . S
H1400 C1393 0.961 . S
H1401 C1393 0.960 . S
H1402 C1394 0.930 . S
H1403 C1395 0.929 . S
H1404 C1412 0.929 . S
H1405 C1414 0.930 . S
H1406 C1416 0.930 . S
H1407 C1419 0.929 . S
H1408 C1422 0.930 . S
H1409 C1424 0.960 . S
H1410 C1424 0.960 . S
H1411 C1424 0.960 . S
C1412 H1404 0.929 . S
C1412 C1413 1.377 . S
C1412 C1414 1.384 . S
C1413 C1412 1.377 . S
C1413 C1419 1.390 . S
C1414 H1405 0.930 . S
C1414 C1412 1.384 . S
C1414 C1415 1.372 . S
C1415 C1414 1.372 . S
C1415 C1416 1.400 . S
C1415 C1420 1.490 . S
C1416 H1406 0.930 . S
C1416 C1415 1.400 . S
C1416 C1419 1.386 . S
H1417 C1433 0.930 . S
H1418 C1434 0.931 . S
C1419 H1407 0.929 . S
C1419 C1413 1.390 . S
C1419 C1416 1.386 . S
C1420 C1415 1.490 . S
C1420 C1422 1.395 . S
C1420 C1423 1.403 . S
H1421 C1427 0.930 . S
C1422 H1408 0.930 . S
C1422 C1420 1.395 . S
C1422 C1425 1.403 . S
C1423 C1420 1.403 . S
C1423 C1424 1.524 . S
C1423 C1427 1.400 . S
C1424 H1409 0.960 . S
C1424 H1410 0.960 . S
C1424 H1411 0.960 . S
C1424 C1423 1.524 . S
C1425 C1422 1.403 . S
C1425 C1426 1.392 . S
C1425 C1429 1.495 . S
C1426 C1425 1.392 . S
C1426 C1427 1.385 . S
C1426 C1428 1.478 . S
C1427 H1421 0.930 . S
C1427 C1423 1.400 . S
C1427 C1426 1.385 . S
C1428 C1426 1.478 . S
C1428 C1430 1.381 . S
C1428 C1434 1.383 . S
C1429 C1425 1.495 . S
C1429 H1435 0.959 . S
C1429 H1436 0.961 . S
C1429 H1437 0.960 . S
C1430 C1428 1.381 . S
C1430 C1431 1.394 . S
C1430 H1438 0.930 . S
C1431 C1430 1.394 . S
C1431 C1432 1.383 . S
C1431 H1439 0.929 . S
C1432 C1431 1.383 . S
C1432 C1433 1.377 . S
C1433 H1417 0.930 . S
C1433 C1432 1.377 . S
C1433 C1434 1.379 . S
C1434 H1418 0.931 . S
C1434 C1428 1.383 . S
C1434 C1433 1.379 . S
H1435 C1429 0.959 . S
H1436 C1429 0.961 . S
H1437 C1429 0.960 . S
H1438 C1430 0.930 . S
H1439 C1431 0.929 . S
H1440 C1448 0.929 . S
H1441 C1450 0.930 . S
H1442 C1452 0.930 . S
H1443 C1455 0.929 . S
H1444 C1458 0.930 . S
H1445 C1460 0.960 . S
H1446 C1460 0.960 . S
H1447 C1460 0.960 . S
C1448 H1440 0.929 . S
C1448 C1449 1.377 . S
C1448 C1450 1.384 . S
C1449 C1448 1.377 . S
C1449 C1455 1.390 . S
C1450 H1441 0.930 . S
C1450 C1448 1.384 . S
C1450 C1451 1.372 . S
C1451 C1450 1.372 . S
C1451 C1452 1.400 . S
C1451 C1456 1.490 . S
C1452 H1442 0.930 . S
C1452 C1451 1.400 . S
C1452 C1455 1.386 . S
H1453 C1469 0.930 . S
H1454 C1470 0.931 . S
C1455 H1443 0.929 . S
C1455 C1449 1.390 . S
C1455 C1452 1.386 . S
C1456 C1451 1.490 . S
C1456 C1458 1.395 . S
C1456 C1459 1.403 . S
H1457 C1463 0.930 . S
C1458 H1444 0.930 . S
C1458 C1456 1.395 . S
C1458 C1461 1.403 . S
C1459 C1456 1.403 . S
C1459 C1460 1.524 . S
C1459 C1463 1.400 . S
C1460 H1445 0.960 . S
C1460 H1446 0.960 . S
C1460 H1447 0.960 . S
C1460 C1459 1.524 . S
C1461 C1458 1.403 . S
C1461 C1462 1.392 . S
C1461 C1465 1.495 . S
C1462 C1461 1.392 . S
C1462 C1463 1.385 . S
C1462 C1464 1.478 . S
C1463 H1457 0.930 . S
C1463 C1459 1.400 . S
C1463 C1462 1.385 . S
C1464 C1462 1.478 . S
C1464 C1466 1.381 . S
C1464 C1470 1.383 . S
C1465 C1461 1.495 . S
C1465 H1471 0.959 . S
C1465 H1472 0.961 . S
C1465 H1473 0.960 . S
C1466 C1464 1.381 . S
C1466 C1467 1.394 . S
C1466 H1474 0.930 . S
C1467 C1466 1.394 . S
C1467 C1468 1.383 . S
C1467 H1475 0.929 . S
C1468 C1467 1.383 . S
C1468 C1469 1.377 . S
C1469 H1453 0.930 . S
C1469 C1468 1.377 . S
C1469 C1470 1.379 . S
C1470 H1454 0.931 . S
C1470 C1464 1.383 . S
C1470 C1469 1.379 . S
H1471 C1465 0.959 . S
H1472 C1465 0.961 . S
H1473 C1465 0.960 . S
H1474 C1466 0.930 . S
H1475 C1467 0.929 . S
C405 N2 1.854 . S
C424 N101 1.842 . S
C441 N134 1.855 . S
C460 N35 1.860 . S
C477 N167 1.854 . S
C496 N68 1.850 . S
C513 N299 1.858 . S
C532 N200 1.850 . S
C549 N332 1.859 . S
C568 N233 1.857 . S
C585 N266 1.854 . S
C604 N365 1.830 . S
C621 C21 0.177 . S
C640 N178 0.508 . S
C657 N13 0.434 . S
C676 C54 0.192 . S
C693 C87 0.181 . S
C712 N46 0.461 . S
C729 N79 0.409 . S
C748 C120 0.100 . S
C765 N112 0.420 . S
C784 C153 0.137 . S
C801 N145 0.426 . S
C820 C186 0.228 . S
C837 N244 0.429 . S
C856 C219 0.235 . S
C873 N277 0.404 . S
C892 C252 0.100 . S
C909 N310 0.409 . S
C928 C285 0.099 . S
C945 C318 0.169 . S
C964 N343 0.480 . S
C981 C351 0.158 . S
C1000 N376 0.334 . S
C1017 C384 0.173 . S
C1036 N211 0.494 . S
C1053 C271 1.599 . S
C1072 C7 1.613 . S
C1089 C40 1.597 . S
C1108 C304 1.595 . S
C1125 C73 1.599 . S
C1144 C337 1.582 . S
C1161 C106 1.600 . S
C1180 C370 1.580 . S
C1197 C205 1.604 . S
C1216 C139 1.587 . S
C1233 C172 1.604 . S
C1252 C238 1.588 . S
C1269 C381 1.454 . S
C1288 C117 1.432 . S
C1305 C216 1.450 . S
C1324 C150 1.469 . S
C1341 C249 1.455 . S
C1360 C183 1.458 . S
C1377 C18 1.450 . S
C1396 C282 1.470 . S
C1413 C51 1.449 . S
C1432 C315 1.465 . S
C1449 C84 1.457 . S
C1468 C348 1.432 . S
