# Generated by pormake.
# Topology ukd, (4)-cn, num edge types: 1
# Building blocks:
#     Node 0, Type 0, BuildingBlock: AZAVOO_clean_sbu_0, # of connection points: 4
#     Node 1, Type 0, BuildingBlock: AZAVOO_clean_sbu_0, # of connection points: 4
#     Node 2, Type 0, BuildingBlock: AZAVOO_clean_sbu_0, # of connection points: 4
#     Node 3, Type 0, BuildingBlock: AZAVOO_clean_sbu_0, # of connection points: 4
#     Node 4, Type 0, BuildingBlock: AZAVOO_clean_sbu_0, # of connection points: 4
#     Node 5, Type 0, BuildingBlock: AZAVOO_clean_sbu_0, # of connection points: 4
#     Node 6, Type 0, BuildingBlock: AZAVOO_clean_sbu_0, # of connection points: 4
#     Node 7, Type 0, BuildingBlock: AZAVOO_clean_sbu_0, # of connection points: 4
#     Node 8, Type 0, BuildingBlock: AZAVOO_clean_sbu_0, # of connection points: 4
#     Node 9, Type 0, BuildingBlock: AZAVOO_clean_sbu_0, # of connection points: 4
#     Node 10, Type 0, BuildingBlock: AZAVOO_clean_sbu_0, # of connection points: 4
#     Node 11, Type 0, BuildingBlock: AZAVOO_clean_sbu_0, # of connection points: 4
#     Node 12, Type 0, BuildingBlock: AZAVOO_clean_sbu_0, # of connection points: 4
#     Node 13, Type 0, BuildingBlock: AZAVOO_clean_sbu_0, # of connection points: 4
#     Node 14, Type 0, BuildingBlock: AZAVOO_clean_sbu_0, # of connection points: 4
#     Node 15, Type 0, BuildingBlock: AZAVOO_clean_sbu_0, # of connection points: 4
#     Node 16, Type 0, BuildingBlock: AZAVOO_clean_sbu_0, # of connection points: 4
#     Node 17, Type 0, BuildingBlock: AZAVOO_clean_sbu_0, # of connection points: 4
#     Node 18, Type 0, BuildingBlock: AZAVOO_clean_sbu_0, # of connection points: 4
#     Node 19, Type 0, BuildingBlock: AZAVOO_clean_sbu_0, # of connection points: 4
#     Node 20, Type 0, BuildingBlock: AZAVOO_clean_sbu_0, # of connection points: 4
#     Node 21, Type 0, BuildingBlock: AZAVOO_clean_sbu_0, # of connection points: 4
#     Node 22, Type 0, BuildingBlock: AZAVOO_clean_sbu_0, # of connection points: 4
#     Node 23, Type 0, BuildingBlock: AZAVOO_clean_sbu_0, # of connection points: 4
#     Node 24, Type 0, BuildingBlock: AZAVOO_clean_sbu_0, # of connection points: 4
#     Node 25, Type 0, BuildingBlock: AZAVOO_clean_sbu_0, # of connection points: 4
#     Node 26, Type 0, BuildingBlock: AZAVOO_clean_sbu_0, # of connection points: 4
#     Node 27, Type 0, BuildingBlock: AZAVOO_clean_sbu_0, # of connection points: 4
#     Node 28, Type 0, BuildingBlock: AZAVOO_clean_sbu_0, # of connection points: 4
#     Node 29, Type 0, BuildingBlock: AZAVOO_clean_sbu_0, # of connection points: 4
#     Node 30, Type 0, BuildingBlock: AZAVOO_clean_sbu_0, # of connection points: 4
#     Node 31, Type 0, BuildingBlock: AZAVOO_clean_sbu_0, # of connection points: 4
#     Edge 32, Type (0, 0), BuildingBlock: AJUNOK_clean_linker_0, # of connection points: 2
#     Edge 33, Type (0, 0), BuildingBlock: AJUNOK_clean_linker_0, # of connection points: 2
#     Edge 34, Type (0, 0), BuildingBlock: AJUNOK_clean_linker_0, # of connection points: 2
#     Edge 35, Type (0, 0), BuildingBlock: AJUNOK_clean_linker_0, # of connection points: 2
#     Edge 36, Type (0, 0), BuildingBlock: AJUNOK_clean_linker_0, # of connection points: 2
#     Edge 37, Type (0, 0), BuildingBlock: AJUNOK_clean_linker_0, # of connection points: 2
#     Edge 38, Type (0, 0), BuildingBlock: AJUNOK_clean_linker_0, # of connection points: 2
#     Edge 39, Type (0, 0), BuildingBlock: AJUNOK_clean_linker_0, # of connection points: 2
#     Edge 40, Type (0, 0), BuildingBlock: AJUNOK_clean_linker_0, # of connection points: 2
#     Edge 41, Type (0, 0), BuildingBlock: AJUNOK_clean_linker_0, # of connection points: 2
#     Edge 42, Type (0, 0), BuildingBlock: AJUNOK_clean_linker_0, # of connection points: 2
#     Edge 43, Type (0, 0), BuildingBlock: AJUNOK_clean_linker_0, # of connection points: 2
#     Edge 44, Type (0, 0), BuildingBlock: AJUNOK_clean_linker_0, # of connection points: 2
#     Edge 45, Type (0, 0), BuildingBlock: AJUNOK_clean_linker_0, # of connection points: 2
#     Edge 46, Type (0, 0), BuildingBlock: AJUNOK_clean_linker_0, # of connection points: 2
#     Edge 47, Type (0, 0), BuildingBlock: AJUNOK_clean_linker_0, # of connection points: 2
#     Edge 48, Type (0, 0), BuildingBlock: AJUNOK_clean_linker_0, # of connection points: 2
#     Edge 49, Type (0, 0), BuildingBlock: AJUNOK_clean_linker_0, # of connection points: 2
#     Edge 50, Type (0, 0), BuildingBlock: AJUNOK_clean_linker_0, # of connection points: 2
#     Edge 51, Type (0, 0), BuildingBlock: AJUNOK_clean_linker_0, # of connection points: 2
#     Edge 52, Type (0, 0), BuildingBlock: AJUNOK_clean_linker_0, # of connection points: 2
#     Edge 53, Type (0, 0), BuildingBlock: AJUNOK_clean_linker_0, # of connection points: 2
#     Edge 54, Type (0, 0), BuildingBlock: AJUNOK_clean_linker_0, # of connection points: 2
#     Edge 55, Type (0, 0), BuildingBlock: AJUNOK_clean_linker_0, # of connection points: 2
#     Edge 56, Type (0, 0), BuildingBlock: AJUNOK_clean_linker_0, # of connection points: 2
#     Edge 57, Type (0, 0), BuildingBlock: AJUNOK_clean_linker_0, # of connection points: 2
#     Edge 58, Type (0, 0), BuildingBlock: AJUNOK_clean_linker_0, # of connection points: 2
#     Edge 59, Type (0, 0), BuildingBlock: AJUNOK_clean_linker_0, # of connection points: 2
#     Edge 60, Type (0, 0), BuildingBlock: AJUNOK_clean_linker_0, # of connection points: 2
#     Edge 61, Type (0, 0), BuildingBlock: AJUNOK_clean_linker_0, # of connection points: 2
#     Edge 62, Type (0, 0), BuildingBlock: AJUNOK_clean_linker_0, # of connection points: 2
#     Edge 63, Type (0, 0), BuildingBlock: AJUNOK_clean_linker_0, # of connection points: 2
#     Edge 64, Type (0, 0), BuildingBlock: AJUNOK_clean_linker_0, # of connection points: 2
#     Edge 65, Type (0, 0), BuildingBlock: AJUNOK_clean_linker_0, # of connection points: 2
#     Edge 66, Type (0, 0), BuildingBlock: AJUNOK_clean_linker_0, # of connection points: 2
#     Edge 67, Type (0, 0), BuildingBlock: AJUNOK_clean_linker_0, # of connection points: 2
#     Edge 68, Type (0, 0), BuildingBlock: AJUNOK_clean_linker_0, # of connection points: 2
#     Edge 69, Type (0, 0), BuildingBlock: AJUNOK_clean_linker_0, # of connection points: 2
#     Edge 70, Type (0, 0), BuildingBlock: AJUNOK_clean_linker_0, # of connection points: 2
#     Edge 71, Type (0, 0), BuildingBlock: AJUNOK_clean_linker_0, # of connection points: 2
#     Edge 72, Type (0, 0), BuildingBlock: AJUNOK_clean_linker_0, # of connection points: 2
#     Edge 73, Type (0, 0), BuildingBlock: AJUNOK_clean_linker_0, # of connection points: 2
#     Edge 74, Type (0, 0), BuildingBlock: AJUNOK_clean_linker_0, # of connection points: 2
#     Edge 75, Type (0, 0), BuildingBlock: AJUNOK_clean_linker_0, # of connection points: 2
#     Edge 76, Type (0, 0), BuildingBlock: AJUNOK_clean_linker_0, # of connection points: 2
#     Edge 77, Type (0, 0), BuildingBlock: AJUNOK_clean_linker_0, # of connection points: 2
#     Edge 78, Type (0, 0), BuildingBlock: AJUNOK_clean_linker_0, # of connection points: 2
#     Edge 79, Type (0, 0), BuildingBlock: AJUNOK_clean_linker_0, # of connection points: 2
#     Edge 80, Type (0, 0), BuildingBlock: AJUNOK_clean_linker_0, # of connection points: 2
#     Edge 81, Type (0, 0), BuildingBlock: AJUNOK_clean_linker_0, # of connection points: 2
#     Edge 82, Type (0, 0), BuildingBlock: AJUNOK_clean_linker_0, # of connection points: 2
#     Edge 83, Type (0, 0), BuildingBlock: AJUNOK_clean_linker_0, # of connection points: 2
#     Edge 84, Type (0, 0), BuildingBlock: AJUNOK_clean_linker_0, # of connection points: 2
#     Edge 85, Type (0, 0), BuildingBlock: AJUNOK_clean_linker_0, # of connection points: 2
#     Edge 86, Type (0, 0), BuildingBlock: AJUNOK_clean_linker_0, # of connection points: 2
#     Edge 87, Type (0, 0), BuildingBlock: AJUNOK_clean_linker_0, # of connection points: 2
#     Edge 88, Type (0, 0), BuildingBlock: AJUNOK_clean_linker_0, # of connection points: 2
#     Edge 89, Type (0, 0), BuildingBlock: AJUNOK_clean_linker_0, # of connection points: 2
#     Edge 90, Type (0, 0), BuildingBlock: AJUNOK_clean_linker_0, # of connection points: 2
#     Edge 91, Type (0, 0), BuildingBlock: AJUNOK_clean_linker_0, # of connection points: 2
#     Edge 92, Type (0, 0), BuildingBlock: AJUNOK_clean_linker_0, # of connection points: 2
#     Edge 93, Type (0, 0), BuildingBlock: AJUNOK_clean_linker_0, # of connection points: 2
#     Edge 94, Type (0, 0), BuildingBlock: AJUNOK_clean_linker_0, # of connection points: 2
#     Edge 95, Type (0, 0), BuildingBlock: AJUNOK_clean_linker_0, # of connection points: 2
# Relax obj value: 0.167
# Max RMSD: 0.201
# Mean RMSD: 0.201
data_MOF--net-ukd--node1-AZAVOO_clean_sbu_0--edge1-AJUNOK_clean_linker_0
_symmetry_space_group_name_H-M    P1
_symmetry_Int_Tables_number       1
_symmetry_cell_setting            triclinic
loop_
_symmetry_equiv_pos_as_xyz
'x, y, z'
_cell_length_a     30.555555
_cell_length_b     30.584831
_cell_length_c     59.666151
_cell_angle_alpha  89.978874
_cell_angle_beta   89.972164
_cell_angle_gamma 90.014711
loop_
_atom_site_label
_atom_site_type_symbol
_atom_site_fract_x
_atom_site_fract_y
_atom_site_fract_z
_atom_type_partial_charge
Mg0 Mg 0.25332 0.26119 0.34882 0.0
O1 O 0.19934 0.21004 0.34945 0.0
O2 O 0.13743 0.23643 0.33512 0.0
Mg3 Mg 0.15308 0.30672 0.32406 0.0
C4 C 0.15919 0.20549 0.34418 0.0
C5 C 0.3429 0.21108 0.35179 0.0
O6 O 0.35529 0.2463 0.34088 0.0
O7 O 0.26205 0.25044 0.31124 0.0
O8 O 0.20082 0.28063 0.29782 0.0
O9 O 0.22797 0.28737 0.38169 0.0
O10 O 0.20708 0.31068 0.3483 0.0
C11 C 0.23753 0.26154 0.29483 0.0
C12 C 0.20303 0.31233 0.36967 0.0
O13 O 0.30296 0.20751 0.3575 0.0
Mg14 Mg 0.98167 0.99583 0.59784 0.0
O15 O 0.03283 0.94202 0.59811 0.0
O16 O 0.00552 0.87894 0.58568 0.0
Mg17 Mg 0.93438 0.894 0.57593 0.0
C18 C 0.03718 0.9016 0.59341 0.0
C19 C 0.02893 0.08596 0.60599 0.0
O20 O 0.9887 0.1 0.60301 0.0
O21 O 0.99001 0.00185 0.55997 0.0
O22 O 0.95963 0.93935 0.5484 0.0
O23 O 0.95907 0.97275 0.63165 0.0
O24 O 0.93227 0.94949 0.59934 0.0
C25 C 0.97859 0.97568 0.54431 0.0
C26 C 0.93349 0.94648 0.62078 0.0
O27 O 0.03637 0.04517 0.60469 0.0
Mg28 Mg 0.2564 0.74144 0.84374 0.0
O29 O 0.31126 0.79161 0.84532 0.0
O30 O 0.37444 0.76262 0.83399 0.0
Mg31 Mg 0.35875 0.69181 0.82398 0.0
C32 C 0.35216 0.79481 0.84145 0.0
C33 C 0.18305 0.79953 0.86594 0.0
O34 O 0.18826 0.77034 0.88186 0.0
O35 O 0.25423 0.74929 0.80593 0.0
O36 O 0.31653 0.7174 0.79511 0.0
O37 O 0.27559 0.71829 0.87816 0.0
O38 O 0.30145 0.69123 0.84638 0.0
C39 C 0.28079 0.73713 0.7906 0.0
C40 C 0.30196 0.6919 0.86788 0.0
O41 O 0.20637 0.79651 0.84835 0.0
Mg42 Mg 0.51178 0.00409 0.09483 0.0
O43 O 0.46285 0.05976 0.09515 0.0
O44 O 0.49306 0.12224 0.08389 0.0
Mg45 Mg 0.56421 0.10501 0.07489 0.0
C46 C 0.46014 0.10048 0.09095 0.0
C47 C 0.44725 0.9363 0.11782 0.0
O48 O 0.47454 0.94171 0.13461 0.0
O49 O 0.50613 1.00039 0.05678 0.0
O50 O 0.53994 0.06186 0.04619 0.0
O51 O 0.53386 0.02494 0.12927 0.0
O52 O 0.56308 0.04811 0.0975 0.0
C53 C 0.5201 0.02628 0.04152 0.0
C54 C 0.56148 0.04999 0.11894 0.0
O55 O 0.45436 0.9566 0.09957 0.0
Mg56 Mg 0.24408 0.74071 0.15118 0.0
O57 O 0.19218 0.79406 0.1488 0.0
O58 O 0.12751 0.76831 0.16006 0.0
Mg59 Mg 0.13875 0.69708 0.1707 0.0
C60 C 0.15138 0.79923 0.15245 0.0
C61 C 0.301 0.81449 0.1282 0.0
O62 O 0.27239 0.80779 0.11215 0.0
O63 O 0.24586 0.74931 0.18907 0.0
O64 O 0.18182 0.7207 0.19966 0.0
O65 O 0.22449 0.71772 0.11684 0.0
O66 O 0.19618 0.69309 0.14856 0.0
C67 C 0.2184 0.7387 0.20431 0.0
C68 C 0.1961 0.69338 0.12706 0.0
O69 O 0.29798 0.7921 0.14612 0.0
Mg70 Mg 0.52068 0.99294 0.38936 0.0
O71 O 0.46929 0.93924 0.39198 0.0
O72 O 0.49811 0.87825 0.40613 0.0
Mg73 Mg 0.5698 0.89457 0.41415 0.0
C74 C 0.46567 0.89947 0.39817 0.0
C75 C 0.47516 0.079 0.37297 0.0
O76 O 0.51618 0.08755 0.36799 0.0
O77 O 0.51541 0.00412 0.42698 0.0
O78 O 0.54674 0.94367 0.44059 0.0
O79 O 0.54081 0.96537 0.35605 0.0
O80 O 0.57 0.94637 0.38857 0.0
C81 C 0.52812 0.98065 0.44346 0.0
C82 C 0.5673 0.94067 0.36731 0.0
O83 O 0.46612 0.04249 0.38206 0.0
Mg84 Mg 0.25484 0.25701 0.63815 0.0
O85 O 0.30888 0.20565 0.63861 0.0
O86 O 0.3713 0.2346 0.65101 0.0
Mg87 Mg 0.35589 0.3058 0.66013 0.0
C88 C 0.3494 0.20226 0.64343 0.0
C89 C 0.1657 0.21395 0.62588 0.0
O90 O 0.15606 0.25568 0.62416 0.0
O91 O 0.24786 0.25061 0.67605 0.0
O92 O 0.30978 0.28203 0.68776 0.0
O93 O 0.27835 0.27765 0.60415 0.0
O94 O 0.3013 0.30609 0.63622 0.0
C95 C 0.27326 0.26332 0.69178 0.0
C96 C 0.30453 0.30364 0.61481 0.0
O97 O 0.20428 0.2033 0.63169 0.0
Mg98 Mg 0.97996 0.99981 0.8948 0.0
O99 O 0.03511 0.04962 0.89192 0.0
O100 O 0.01311 0.11465 0.90458 0.0
Mg101 Mg 0.94251 0.1052 0.91689 0.0
C102 C 0.04218 0.08999 0.89583 0.0
C103 C 0.05272 0.9392 0.87189 0.0
O104 O 0.0479 0.96612 0.8549 0.0
O105 O 0.99099 0.99532 0.93222 0.0
O106 O 0.96679 0.05965 0.94483 0.0
O107 O 0.9561 0.02244 0.86116 0.0
O108 O 0.93427 0.04967 0.89368 0.0
C109 C 0.98336 0.02188 0.94823 0.0
C110 C 0.93376 0.05132 0.87219 0.0
O111 O 0.02938 0.94466 0.8893 0.0
Mg112 Mg 0.75384 0.73159 0.64555 0.0
O113 O 0.8063 0.78457 0.64565 0.0
O114 O 0.86915 0.7579 0.65895 0.0
Mg115 Mg 0.85571 0.68649 0.6685 0.0
C116 C 0.84651 0.78928 0.6509 0.0
C117 C 0.69967 0.80975 0.62339 0.0
O118 O 0.7296 0.80648 0.60766 0.0
O119 O 0.74697 0.73909 0.68317 0.0
O120 O 0.80923 0.71031 0.6961 0.0
O121 O 0.77799 0.7103 0.61172 0.0
O122 O 0.8019 0.68393 0.644 0.0
C123 C 0.77216 0.72856 0.69935 0.0
C124 C 0.80522 0.68564 0.62256 0.0
O125 O 0.70117 0.78382 0.64003 0.0
Mg126 Mg 0.01023 0.00799 0.39793 0.0
O127 O 0.96115 0.06349 0.39748 0.0
O128 O 0.98965 0.1252 0.4109 0.0
Mg129 Mg 0.06006 0.10734 0.42108 0.0
C130 C 0.95773 0.10382 0.40251 0.0
C131 C 0.95104 0.93324 0.37599 0.0
O132 O 0.98331 0.93129 0.36146 0.0
O133 O 1.0015 0.00194 0.43551 0.0
O134 O 0.03336 0.06243 0.44872 0.0
O135 O 0.03492 0.03062 0.36433 0.0
O136 O 0.06125 0.05241 0.39701 0.0
C137 C 0.01325 0.02629 0.4518 0.0
C138 C 0.06149 0.05532 0.37555 0.0
O139 O 0.95338 0.96054 0.39199 0.0
Mg140 Mg 0.74483 0.26282 0.14735 0.0
O141 O 0.69277 0.20943 0.14569 0.0
O142 O 0.6285 0.23518 0.15749 0.0
Mg143 Mg 0.64024 0.30661 0.16765 0.0
C144 C 0.65216 0.20415 0.14985 0.0
C145 C 0.80103 0.18833 0.1245 0.0
O146 O 0.77191 0.19398 0.10858 0.0
O147 O 0.74803 0.2541 0.18515 0.0
O148 O 0.68427 0.28273 0.19611 0.0
O149 O 0.72418 0.28608 0.11313 0.0
O150 O 0.6971 0.31043 0.14517 0.0
C151 C 0.7209 0.26463 0.20054 0.0
C152 C 0.69659 0.31077 0.12368 0.0
O153 O 0.79844 0.21159 0.14211 0.0
Mg154 Mg 0.49944 0.99337 0.89445 0.0
O155 O 0.54722 0.93667 0.89563 0.0
O156 O 0.51591 0.87618 0.90881 0.0
Mg157 Mg 0.44522 0.89605 0.9174 0.0
C158 C 0.54918 0.89645 0.90106 0.0
C159 C 0.55838 0.06879 0.87366 0.0
O160 O 0.52408 0.07369 0.86063 0.0
O161 O 0.50563 1.00079 0.93219 0.0
O162 O 0.47103 0.94138 0.94495 0.0
O163 O 0.4768 0.96984 0.86064 0.0
O164 O 0.44744 0.95019 0.89301 0.0
C165 C 0.4919 0.97698 0.94832 0.0
C166 C 0.44881 0.94627 0.87162 0.0
O167 O 0.55759 0.03926 0.88865 0.0
Mg168 Mg 0.75905 0.26924 0.84426 0.0
O169 O 0.81108 0.21573 0.84557 0.0
O170 O 0.87564 0.24224 0.83452 0.0
Mg171 Mg 0.86419 0.31417 0.82525 0.0
C172 C 0.85183 0.21082 0.84158 0.0
C173 C 0.70584 0.18936 0.86409 0.0
O174 O 0.73869 0.18964 0.87828 0.0
O175 O 0.75696 0.26292 0.80628 0.0
O176 O 0.82092 0.29217 0.79602 0.0
O177 O 0.77872 0.29003 0.87894 0.0
O178 O 0.80694 0.31662 0.84757 0.0
C179 C 0.78431 0.27441 0.79116 0.0
C180 C 0.80691 0.31511 0.86906 0.0
O181 O 0.70503 0.21776 0.84851 0.0
Mg182 Mg 0.49962 0.00803 0.58933 0.0
O183 O 0.54989 0.06255 0.59232 0.0
O184 O 0.52206 0.12595 0.58062 0.0
Mg185 Mg 0.45184 0.11097 0.56917 0.0
C186 C 0.55351 0.10347 0.58873 0.0
C187 C 0.561 0.94043 0.61407 0.0
O188 O 0.53592 0.95201 0.63093 0.0
O189 O 0.50992 0.00646 0.55156 0.0
O190 O 0.47853 0.06884 0.54053 0.0
O191 O 0.47374 0.0267 0.62334 0.0
O192 O 0.44921 0.05319 0.59119 0.0
C193 C 0.49847 0.03317 0.53614 0.0
C194 C 0.44811 0.05324 0.61268 0.0
O195 O 0.5543 0.95771 0.59498 0.0
Mg196 Mg 0.75393 0.73017 0.34552 0.0
O197 O 0.69926 0.7813 0.34518 0.0
O198 O 0.63793 0.75125 0.33192 0.0
Mg199 Mg 0.65438 0.68056 0.32237 0.0
C200 C 0.65881 0.78388 0.3399 0.0
C201 C 0.80416 0.81168 0.36688 0.0
O202 O 0.77072 0.81146 0.38072 0.0
O203 O 0.76091 0.73783 0.30791 0.0
O204 O 0.70005 0.70638 0.29487 0.0
O205 O 0.73025 0.7078 0.37934 0.0
O206 O 0.70795 0.68083 0.3469 0.0
C207 C 0.73636 0.72615 0.29168 0.0
C208 C 0.70452 0.68188 0.36832 0.0
O209 O 0.80565 0.78326 0.35135 0.0
Mg210 Mg 0.01012 0.99539 0.09428 0.0
O211 O 0.96265 0.93812 0.09451 0.0
O212 O 0.9953 0.87674 0.08336 0.0
Mg213 Mg 0.06573 0.89647 0.07431 0.0
C214 C 0.96158 0.89724 0.09035 0.0
C215 C 0.94708 0.06601 0.11567 0.0
O216 O 0.97684 0.06478 0.13155 0.0
O217 O 0.00438 0.99901 0.05636 0.0
O218 O 0.03952 0.93858 0.04553 0.0
O219 O 0.03197 0.97558 0.1288 0.0
O220 O 0.06246 0.95281 0.09725 0.0
C221 C 0.01849 0.97354 0.04099 0.0
C222 C 0.0603 0.95098 0.1187 0.0
O223 O 0.95188 0.04169 0.09858 0.0
Mg224 Mg 0.74381 0.75027 0.84543 0.0
O225 O 0.68735 0.70213 0.84403 0.0
O226 O 0.62576 0.73439 0.83288 0.0
Mg227 Mg 0.64465 0.80582 0.82573 0.0
C228 C 0.64675 0.70051 0.83927 0.0
C229 C 0.82014 0.69094 0.86406 0.0
O230 O 0.82376 0.72387 0.87807 0.0
O231 O 0.74856 0.74727 0.80748 0.0
O232 O 0.6879 0.78224 0.79675 0.0
O233 O 0.72283 0.76911 0.88022 0.0
O234 O 0.70034 0.80163 0.84911 0.0
C235 C 0.72333 0.76199 0.79216 0.0
C236 C 0.69816 0.79785 0.8705 0.0
O237 O 0.79073 0.69244 0.84903 0.0
Mg238 Mg 0.49068 0.49788 0.09051 0.0
O239 O 0.54144 0.44397 0.09305 0.0
O240 O 0.51377 0.3797 0.08263 0.0
Mg241 Mg 0.44287 0.39383 0.07204 0.0
C242 C 0.54542 0.40298 0.0899 0.0
C243 C 0.5623 0.55781 0.1136 0.0
O244 O 0.54673 0.5391 0.13175 0.0
O245 O 0.49891 0.49848 0.0526 0.0
O246 O 0.46802 0.43514 0.04277 0.0
O247 O 0.46728 0.47974 0.12507 0.0
O248 O 0.44086 0.45232 0.09356 0.0
C249 C 0.48723 0.47087 0.03768 0.0
C250 C 0.44132 0.45258 0.11505 0.0
O251 O 0.54566 0.54815 0.0947 0.0
Mg252 Mg 0.75157 0.23648 0.34693 0.0
O253 O 0.80391 0.28945 0.34688 0.0
O254 O 0.86725 0.26281 0.33423 0.0
Mg255 Mg 0.85386 0.19126 0.32483 0.0
C256 C 0.84433 0.29414 0.34213 0.0
C257 C 0.69239 0.31146 0.36868 0.0
O258 O 0.71686 0.30452 0.38643 0.0
O259 O 0.7455 0.24238 0.30937 0.0
O260 O 0.80801 0.21393 0.29664 0.0
O261 O 0.77496 0.21661 0.3811 0.0
O262 O 0.79941 0.18911 0.34911 0.0
C263 C 0.7707 0.23158 0.29326 0.0
C264 C 0.80224 0.19155 0.37054 0.0
O265 O 0.69887 0.28878 0.35117 0.0
Mg266 Mg 0.02367 0.51196 0.59102 0.0
O267 O 0.96888 0.56266 0.59351 0.0
O268 O 0.99351 0.62732 0.58145 0.0
Mg269 Mg 0.06494 0.61762 0.57077 0.0
C270 C 0.96308 0.60322 0.58938 0.0
C271 C 0.9462 0.45462 0.61172 0.0
O272 O 0.9439 0.48725 0.62599 0.0
O273 O 0.01462 0.50944 0.55321 0.0
O274 O 0.042 0.57361 0.54205 0.0
O275 O 0.04682 0.53238 0.62522 0.0
O276 O 0.06999 0.56092 0.59326 0.0
C277 C 0.02456 0.53662 0.53774 0.0
C278 C 0.07023 0.56125 0.61476 0.0
O279 O 0.97451 0.45611 0.59611 0.0
Mg280 Mg 0.75131 0.25022 0.64404 0.0
O281 O 0.69374 0.29735 0.64542 0.0
O282 O 0.63416 0.26448 0.65892 0.0
Mg283 Mg 0.65532 0.19449 0.66768 0.0
C284 C 0.65344 0.29816 0.65103 0.0
C285 C 0.82828 0.30544 0.62338 0.0
O286 O 0.83336 0.26869 0.61229 0.0
O287 O 0.75954 0.25717 0.68173 0.0
O288 O 0.70078 0.22185 0.69478 0.0
O289 O 0.72754 0.22709 0.61039 0.0
O290 O 0.70851 0.19776 0.64284 0.0
C291 C 0.7361 0.24331 0.69799 0.0
C292 C 0.70417 0.19908 0.62146 0.0
O293 O 0.79729 0.30815 0.63755 0.0
Mg294 Mg 0.02306 0.49297 0.89248 0.0
O295 O 0.96837 0.44217 0.89384 0.0
O296 O 0.99379 0.37925 0.9075 0.0
Mg297 Mg 0.06603 0.39101 0.91618 0.0
C298 C 0.96262 0.4024 0.89958 0.0
C299 C 0.94432 0.54611 0.87095 0.0
O300 O 0.94453 0.51311 0.85687 0.0
O301 O 0.01738 0.50181 0.93006 0.0
O302 O 0.04485 0.43942 0.9435 0.0
O303 O 0.04245 0.46698 0.85873 0.0
O304 O 0.06921 0.44363 0.89104 0.0
C305 C 0.02794 0.47718 0.94646 0.0
C306 C 0.06688 0.43967 0.86965 0.0
O307 O 0.97245 0.54694 0.88664 0.0
Mg308 Mg 0.75956 0.75933 0.14579 0.0
O309 O 0.81165 0.70634 0.14413 0.0
O310 O 0.87626 0.73225 0.15535 0.0
Mg311 Mg 0.86435 0.80361 0.16557 0.0
C312 C 0.85239 0.70123 0.14788 0.0
C313 C 0.70203 0.68727 0.12228 0.0
O314 O 0.72839 0.69716 0.10565 0.0
O315 O 0.7567 0.75152 0.18365 0.0
O316 O 0.82064 0.78018 0.19435 0.0
O317 O 0.78006 0.78097 0.11139 0.0
O318 O 0.80742 0.80701 0.14307 0.0
C319 C 0.7839 0.7624 0.19893 0.0
C320 C 0.80818 0.80563 0.12158 0.0
O321 O 0.70663 0.70713 0.14086 0.0
Mg322 Mg 0.48647 0.50576 0.39738 0.0
O323 O 0.54038 0.55664 0.39576 0.0
O324 O 0.51742 0.62109 0.40858 0.0
Mg325 Mg 0.44627 0.60989 0.41975 0.0
C326 C 0.54716 0.59684 0.40012 0.0
C327 C 0.55463 0.44363 0.37276 0.0
O328 O 0.54112 0.46498 0.35496 0.0
O329 O 0.49607 0.50047 0.43482 0.0
O330 O 0.47026 0.56404 0.44762 0.0
O331 O 0.46317 0.52886 0.3637 0.0
O332 O 0.43966 0.55448 0.39627 0.0
C333 C 0.48733 0.52645 0.45093 0.0
C334 C 0.4395 0.55658 0.37479 0.0
O335 O 0.53809 0.45278 0.39173 0.0
Mg336 Mg 0.26205 0.2399 0.14862 0.0
O337 O 0.31329 0.29356 0.14632 0.0
O338 O 0.37864 0.26895 0.15707 0.0
Mg339 Mg 0.36836 0.19706 0.16705 0.0
C340 C 0.35401 0.29951 0.14975 0.0
C341 C 0.20269 0.3103 0.1254 0.0
O342 O 0.22782 0.29896 0.10852 0.0
O343 O 0.26104 0.24677 0.18657 0.0
O344 O 0.3254 0.2182 0.19665 0.0
O345 O 0.28072 0.2182 0.11395 0.0
O346 O 0.31031 0.19276 0.14524 0.0
C347 C 0.28859 0.23542 0.20161 0.0
C348 C 0.30949 0.1937 0.12374 0.0
O349 O 0.20851 0.29186 0.14429 0.0
Mg350 Mg 0.50498 0.49882 0.8904 0.0
O351 O 0.45521 0.55391 0.89194 0.0
O352 O 0.48571 0.61566 0.90407 0.0
Mg353 Mg 0.55739 0.59838 0.91168 0.0
C354 C 0.45255 0.59428 0.89702 0.0
C355 C 0.44015 0.43035 0.86813 0.0
O356 O 0.46504 0.43764 0.85056 0.0
O357 O 0.50161 0.49232 0.92818 0.0
O358 O 0.53469 0.55316 0.94009 0.0
O359 O 0.52394 0.52174 0.85597 0.0
O360 O 0.55515 0.54386 0.88751 0.0
C361 C 0.51535 0.51688 0.94397 0.0
C362 C 0.55163 0.54692 0.86614 0.0
O363 O 0.44858 0.45023 0.88633 0.0
Mg364 Mg 0.2503 0.77357 0.64429 0.0
O365 O 0.19853 0.71973 0.64387 0.0
O366 O 0.13533 0.74524 0.65741 0.0
Mg367 Mg 0.14799 0.8162 0.66796 0.0
C368 C 0.15828 0.71448 0.64898 0.0
C369 C 0.30232 0.69393 0.62272 0.0
O370 O 0.26789 0.69243 0.60958 0.0
O371 O 0.25783 0.76471 0.68179 0.0
O372 O 0.19511 0.79185 0.69507 0.0
O373 O 0.22533 0.79546 0.61077 0.0
O374 O 0.2016 0.82031 0.64345 0.0
C375 C 0.23254 0.77422 0.6981 0.0
C376 C 0.19793 0.81918 0.62203 0.0
O377 O 0.3042 0.72319 0.63782 0.0
Mg378 Mg 0.98984 0.49917 0.39136 0.0
O379 O 0.04214 0.44619 0.39109 0.0
O380 O 0.01686 0.38438 0.40609 0.0
Mg381 Mg 0.94613 0.39888 0.41685 0.0
C382 C 0.04746 0.4064 0.39685 0.0
C383 C 0.03053 0.58626 0.37373 0.0
O384 O 0.98869 0.59294 0.37001 0.0
O385 O 1.00094 0.50854 0.42878 0.0
O386 O 0.97203 0.44726 0.44289 0.0
O387 O 0.96378 0.47327 0.35865 0.0
O388 O 0.94127 0.45204 0.39214 0.0
C389 C 0.99072 0.4843 0.44544 0.0
C390 C 0.93932 0.448 0.37077 0.0
O391 O 0.04214 0.55016 0.38248 0.0
Mg392 Mg 0.2534 0.76554 0.35124 0.0
O393 O 0.30746 0.7142 0.35017 0.0
O394 O 0.36898 0.74302 0.33642 0.0
Mg395 Mg 0.35275 0.81385 0.32693 0.0
C396 C 0.34767 0.71086 0.34462 0.0
C397 C 0.16315 0.71847 0.35293 0.0
O398 O 0.15318 0.75543 0.34295 0.0
O399 O 0.24405 0.75824 0.31361 0.0
O400 O 0.30508 0.78896 0.30026 0.0
O401 O 0.27946 0.78705 0.38463 0.0
O402 O 0.3 0.8147 0.35197 0.0
C403 C 0.26829 0.77003 0.29723 0.0
C404 C 0.30495 0.8127 0.3733 0.0
O405 O 0.20276 0.71198 0.35859 0.0
Mg406 Mg 0.99539 0.50366 0.09216 0.0
O407 O 0.04482 0.55923 0.09486 0.0
O408 O 0.0151 0.62174 0.08296 0.0
Mg409 Mg 0.94523 0.6052 0.07168 0.0
C410 C 0.04727 0.6002 0.09098 0.0
C411 C 0.06599 0.44303 0.11636 0.0
O412 O 0.04978 0.46116 0.13451 0.0
O413 O 0.00549 0.50172 0.05439 0.0
O414 O 0.97292 0.56336 0.04323 0.0
O415 O 0.9697 0.52247 0.12619 0.0
O416 O 0.94441 0.54797 0.09402 0.0
C417 C 0.99352 0.52805 0.03892 0.0
C418 C 0.94371 0.54863 0.11551 0.0
O419 O 0.05057 0.45394 0.09737 0.0
Mg420 Mg 0.24464 0.22598 0.83779 0.0
O421 O 0.19198 0.27851 0.84028 0.0
O422 O 0.12858 0.25313 0.82699 0.0
Mg423 Mg 0.14158 0.18277 0.81536 0.0
C424 C 0.1515 0.28358 0.83574 0.0
C425 C 0.29834 0.30265 0.86093 0.0
O426 O 0.26746 0.29875 0.87613 0.0
O427 O 0.24881 0.23729 0.80032 0.0
O428 O 0.18626 0.20895 0.78747 0.0
O429 O 0.22325 0.20056 0.87138 0.0
O430 O 0.19713 0.17796 0.8388 0.0
C431 C 0.22302 0.22785 0.78421 0.0
C432 C 0.19574 0.17663 0.8603 0.0
O433 O 0.29757 0.27764 0.84392 0.0
Mg434 Mg 0.50755 0.49478 0.59695 0.0
O435 O 0.46108 0.43687 0.59476 0.0
O436 O 0.49582 0.37668 0.58352 0.0
Mg437 Mg 0.56654 0.39817 0.57651 0.0
C438 C 0.46109 0.39628 0.58988 0.0
C439 C 0.4496 0.5732 0.6137 0.0
O440 O 0.48569 0.58139 0.62491 0.0
O441 O 0.50478 0.50107 0.55905 0.0
O442 O 0.54134 0.44156 0.54807 0.0
O443 O 0.52634 0.47255 0.63153 0.0
O444 O 0.5601 0.45274 0.60029 0.0
C445 C 0.52009 0.47644 0.54363 0.0
C446 C 0.55573 0.44896 0.62159 0.0
O447 O 0.44844 0.53992 0.60098 0.0
C448 C 0.10031 0.34382 0.40127 0.0
C449 C 0.08988 0.38476 0.39173 0.0
C450 C 0.13872 0.32139 0.39526 0.0
C451 C 0.16755 0.33892 0.37929 0.0
H452 H 0.07824 0.32851 0.41312 0.0
H453 H 0.1447 0.28926 0.40227 0.0
S454 S 0.15788 0.44596 0.35059 0.0
N455 N 0.11386 0.44288 0.36653 0.0
N456 N 0.18513 0.40025 0.35512 0.0
C457 C 0.15854 0.38032 0.3703 0.0
C458 C 0.11996 0.4034 0.37655 0.0
C459 C 0.86866 0.89852 0.62336 0.0
C460 C 0.91 0.91022 0.63165 0.0
C461 C 0.84778 0.86034 0.63047 0.0
C462 C 0.86786 0.83173 0.64583 0.0
H463 H 0.85276 0.91852 0.61077 0.0
H464 H 0.81637 0.85243 0.62309 0.0
S465 S 0.97572 0.84877 0.67321 0.0
N466 N 0.9698 0.8917 0.65667 0.0
N467 N 0.93096 0.81911 0.66995 0.0
C468 C 0.90879 0.84383 0.65482 0.0
C469 C 0.92975 0.88332 0.64778 0.0
C470 C 0.40666 0.66263 0.89763 0.0
C471 C 0.41049 0.61753 0.89296 0.0
C472 C 0.36943 0.6864 0.89111 0.0
C473 C 0.33503 0.66585 0.87966 0.0
H474 H 0.4333 0.68018 0.90552 0.0
H475 H 0.36879 0.72144 0.89379 0.0
S476 S 0.32573 0.54836 0.86559 0.0
N477 N 0.37372 0.55286 0.87805 0.0
N478 N 0.30485 0.59813 0.86541 0.0
C479 C 0.33716 0.62072 0.87598 0.0
C480 C 0.37457 0.59635 0.88279 0.0
C481 C 0.56632 0.11427 0.14462 0.0
C482 C 0.58694 0.0841 0.1304 0.0
C483 C 0.58813 0.15244 0.15148 0.0
C484 C 0.6314 0.16139 0.14452 0.0
H485 H 0.5324 0.10967 0.14937 0.0
H486 H 0.57043 0.17569 0.16174 0.0
S487 S 0.70076 0.08913 0.10912 0.0
N488 N 0.6534 0.06341 0.11089 0.0
N489 N 0.69494 0.13416 0.12404 0.0
C490 C 0.65302 0.12975 0.13137 0.0
C491 C 0.6306 0.09139 0.12421 0.0
C492 C 0.15115 0.62684 0.12265 0.0
C493 C 0.16185 0.66896 0.11511 0.0
C494 C 0.11514 0.60435 0.114 0.0
C495 C 0.08766 0.62356 0.09782 0.0
H496 H 0.17033 0.61143 0.13573 0.0
H497 H 0.1079 0.57228 0.12077 0.0
S498 S 0.10248 0.73335 0.07225 0.0
N499 N 0.14352 0.72885 0.09013 0.0
N500 N 0.07479 0.68706 0.07403 0.0
C501 C 0.09865 0.6655 0.08974 0.0
C502 C 0.13605 0.68807 0.09832 0.0
C503 C 0.63476 0.89707 0.36275 0.0
C504 C 0.5907 0.90371 0.35713 0.0
C505 C 0.65677 0.85905 0.3563 0.0
C506 C 0.63527 0.82554 0.3444 0.0
H507 H 0.65214 0.92114 0.37268 0.0
H508 H 0.69059 0.85543 0.36141 0.0
S509 S 0.51911 0.82764 0.32578 0.0
N510 N 0.52607 0.87475 0.33883 0.0
N511 N 0.56688 0.80245 0.32689 0.0
C512 C 0.59113 0.83235 0.33827 0.0
C513 C 0.56897 0.87164 0.34459 0.0
C514 C 0.34345 0.37175 0.6056 0.0
C515 C 0.34091 0.32619 0.60379 0.0
C516 C 0.38181 0.39407 0.59998 0.0
C517 C 0.4196 0.37152 0.59284 0.0
H518 H 0.31606 0.39015 0.61225 0.0
H519 H 0.38216 0.42922 0.60217 0.0
S520 S 0.42862 0.25124 0.58502 0.0
N521 N 0.37793 0.25886 0.5938 0.0
N522 N 0.45088 0.3004 0.58349 0.0
C523 C 0.41678 0.32573 0.59021 0.0
C524 C 0.37723 0.30314 0.59568 0.0
C525 C 0.86992 0.10031 0.86868 0.0
C526 C 0.91176 0.08828 0.86122 0.0
C527 C 0.85027 0.13905 0.86143 0.0
C528 C 0.87218 0.16796 0.84686 0.0
H529 H 0.85264 0.08005 0.88069 0.0
H530 H 0.8183 0.14711 0.8681 0.0
S531 S 0.98252 0.15051 0.82221 0.0
N532 N 0.97429 0.10696 0.83805 0.0
N533 N 0.93789 0.18068 0.8246 0.0
C534 C 0.91383 0.15565 0.83883 0.0
C535 C 0.93348 0.11556 0.84595 0.0
C536 C 0.89495 0.60346 0.61237 0.0
C537 C 0.92063 0.62331 0.59564 0.0
C538 C 0.85682 0.62336 0.62033 0.0
C539 C 0.84224 0.66342 0.61157 0.0
H540 H 0.90517 0.57305 0.62007 0.0
H541 H 0.83899 0.6076 0.63381 0.0
S542 S 0.89577 0.72794 0.5667 0.0
N543 N 0.92769 0.68479 0.56992 0.0
N544 N 0.85521 0.72172 0.58473 0.0
C545 C 0.86639 0.68291 0.59422 0.0
C546 C 0.90583 0.66301 0.58632 0.0
C547 C 0.09452 0.15468 0.34167 0.0
C548 C 0.13663 0.16398 0.35014 0.0
C549 C 0.07104 0.11767 0.34881 0.0
C550 C 0.08869 0.08917 0.36488 0.0
H551 H 0.07907 0.17668 0.32985 0.0
H552 H 0.03812 0.1126 0.3426 0.0
S553 S 0.19855 0.09591 0.39094 0.0
N554 N 0.19594 0.139 0.37435 0.0
N555 N 0.15131 0.07044 0.38793 0.0
C556 C 0.13121 0.09692 0.37278 0.0
C557 C 0.15535 0.13403 0.36535 0.0
C558 C 0.59689 0.33878 0.08904 0.0
C559 C 0.58719 0.38158 0.09635 0.0
C560 C 0.63432 0.31663 0.0967 0.0
C561 C 0.66274 0.3364 0.11215 0.0
H562 H 0.57492 0.32185 0.07775 0.0
H563 H 0.63974 0.28316 0.09146 0.0
S564 S 0.65463 0.44849 0.13529 0.0
N565 N 0.61148 0.4436 0.11887 0.0
N566 N 0.68077 0.40141 0.13348 0.0
C567 C 0.65451 0.3795 0.1189 0.0
C568 C 0.61702 0.40229 0.11092 0.0
C569 C 0.44087 0.882 0.84604 0.0
C570 C 0.42208 0.91215 0.86093 0.0
C571 C 0.41766 0.84457 0.8393 0.0
C572 C 0.37472 0.83648 0.847 0.0
H573 H 0.47441 0.88613 0.84053 0.0
H574 H 0.43389 0.82134 0.82841 0.0
S575 S 0.31002 0.90873 0.88464 0.0
N576 N 0.35771 0.93354 0.88204 0.0
N577 N 0.31363 0.86412 0.86921 0.0
C578 C 0.35498 0.86796 0.86099 0.0
C579 C 0.37882 0.90553 0.86802 0.0
C580 C 0.91383 0.3362 0.89842 0.0
C581 C 0.91933 0.38165 0.89534 0.0
C582 C 0.87544 0.31487 0.89151 0.0
C583 C 0.84142 0.33829 0.88129 0.0
H584 H 0.94007 0.31651 0.90527 0.0
H585 H 0.8735 0.27959 0.8929 0.0
S586 S 0.83607 0.45778 0.87198 0.0
N587 N 0.88442 0.44969 0.88359 0.0
N588 N 0.8133 0.40899 0.87006 0.0
C589 C 0.84518 0.38372 0.87926 0.0
C590 C 0.88384 0.40561 0.88649 0.0
C591 C 0.41658 0.15478 0.6447 0.0
C592 C 0.3724 0.16052 0.63842 0.0
C593 C 0.4405 0.11797 0.63775 0.0
C594 C 0.4211 0.08601 0.62415 0.0
H595 H 0.43335 0.17957 0.6544 0.0
H596 H 0.47493 0.11583 0.64194 0.0
S597 S 0.30605 0.08242 0.60479 0.0
N598 N 0.3096 0.12823 0.61928 0.0
N599 N 0.35519 0.06013 0.6059 0.0
C600 C 0.37675 0.09007 0.61863 0.0
C601 C 0.35217 0.12701 0.62589 0.0
C602 C 0.64122 0.67805 0.39484 0.0
C603 C 0.6686 0.65766 0.37909 0.0
C604 C 0.60238 0.65778 0.40202 0.0
C605 C 0.59008 0.61622 0.39392 0.0
H606 H 0.64868 0.71069 0.40076 0.0
H607 H 0.58143 0.67524 0.41361 0.0
S608 S 0.65371 0.54791 0.35391 0.0
N609 N 0.68278 0.59306 0.35666 0.0
N610 N 0.61068 0.55443 0.37029 0.0
C611 C 0.6187 0.59475 0.37898 0.0
C612 C 0.65771 0.61565 0.37152 0.0
C613 C 0.08735 0.85087 0.1531 0.0
C614 C 0.13059 0.84151 0.14629 0.0
C615 C 0.06541 0.88837 0.14544 0.0
C616 C 0.08583 0.91735 0.13049 0.0
H617 H 0.06979 0.82846 0.16392 0.0
H618 H 0.03156 0.89333 0.15022 0.0
S619 S 0.1995 0.91083 0.10912 0.0
N620 N 0.19388 0.86708 0.12506 0.0
N621 N 0.1521 0.93656 0.1104 0.0
C622 C 0.12945 0.90965 0.12437 0.0
C623 C 0.15202 0.87202 0.13236 0.0
C624 C 0.62921 0.80234 0.89268 0.0
C625 C 0.66509 0.82326 0.88266 0.0
C626 C 0.59246 0.82645 0.8996 0.0
C627 C 0.59058 0.87224 0.89673 0.0
H628 H 0.62842 0.767 0.89393 0.0
H629 H 0.56465 0.80878 0.9063 0.0
S630 S 0.67979 0.94218 0.87388 0.0
N631 N 0.69875 0.8918 0.87185 0.0
N632 N 0.63081 0.93759 0.88531 0.0
C633 C 0.62794 0.89353 0.88805 0.0
C634 C 0.66488 0.86888 0.88084 0.0
C635 C 0.43728 0.39122 0.14261 0.0
C636 C 0.41647 0.41882 0.12713 0.0
C637 C 0.41633 0.3533 0.15051 0.0
C638 C 0.3737 0.3422 0.1434 0.0
H639 H 0.47076 0.39756 0.14762 0.0
H640 H 0.43416 0.33194 0.16174 0.0
S641 S 0.30411 0.40721 0.1046 0.0
N642 N 0.35049 0.43471 0.10609 0.0
N643 N 0.31052 0.36448 0.12116 0.0
C644 C 0.35182 0.37131 0.12889 0.0
C645 C 0.37341 0.40933 0.12067 0.0
C646 C 0.88611 0.10507 0.3826 0.0
C647 C 0.91608 0.12631 0.39687 0.0
C648 C 0.84836 0.12608 0.37506 0.0
C649 C 0.83837 0.1688 0.38183 0.0
H650 H 0.89246 0.07238 0.37643 0.0
H651 H 0.82725 0.10904 0.36336 0.0
S652 S 0.90388 0.23855 0.41985 0.0
N653 N 0.93193 0.19247 0.41815 0.0
N654 N 0.85999 0.23158 0.40409 0.0
C655 C 0.86666 0.19004 0.3968 0.0
C656 C 0.90579 0.16889 0.40427 0.0
C657 C 0.15608 0.64644 0.6261 0.0
C658 C 0.13697 0.67259 0.64286 0.0
C659 C 0.1348 0.60938 0.61788 0.0
C660 C 0.09404 0.59631 0.62641 0.0
H661 H 0.18691 0.6556 0.61848 0.0
H662 H 0.14994 0.59134 0.60429 0.0
S663 S 0.031 0.6511 0.67136 0.0
N664 N 0.07545 0.68138 0.66847 0.0
N665 N 0.0359 0.61074 0.65312 0.0
C666 C 0.07531 0.62063 0.64387 0.0
C667 C 0.09664 0.65906 0.65204 0.0
C668 C 0.60475 0.1678 0.58709 0.0
C669 C 0.59467 0.1258 0.5954 0.0
C670 C 0.6419 0.19067 0.59454 0.0
C671 C 0.6697 0.17256 0.61082 0.0
H672 H 0.5834 0.18349 0.57503 0.0
H673 H 0.6477 0.22345 0.58832 0.0
S674 S 0.66003 0.06299 0.63696 0.0
N675 N 0.61756 0.06631 0.61997 0.0
N676 N 0.6865 0.1097 0.63411 0.0
C677 C 0.66092 0.13023 0.61871 0.0
C678 C 0.62365 0.10671 0.61095 0.0
C679 C 0.14977 0.3508 0.85927 0.0
C680 C 0.13027 0.32518 0.84242 0.0
C681 C 0.12934 0.38843 0.86742 0.0
C682 C 0.08906 0.40259 0.85874 0.0
H683 H 0.18046 0.34103 0.86685 0.0
H684 H 0.14502 0.40631 0.88089 0.0
S685 S 0.025 0.34893 0.81379 0.0
N686 N 0.06865 0.31761 0.81681 0.0
N687 N 0.03073 0.38924 0.83198 0.0
C688 C 0.06976 0.37844 0.84136 0.0
C689 C 0.09021 0.33946 0.83327 0.0
C690 C 0.88551 0.8956 0.10566 0.0
C691 C 0.92037 0.87315 0.09526 0.0
C692 C 0.84807 0.87357 0.11297 0.0
C693 C 0.84338 0.82849 0.10969 0.0
H694 H 0.88768 0.93031 0.10907 0.0
H695 H 0.82314 0.89176 0.12191 0.0
S696 S 0.92295 0.75413 0.0826 0.0
N697 N 0.94646 0.80275 0.08141 0.0
N698 N 0.87517 0.76181 0.09495 0.0
C699 C 0.8766 0.80567 0.09849 0.0
C700 C 0.91531 0.82792 0.09129 0.0
C701 C 0.37287 0.60152 0.3714 0.0
C702 C 0.41535 0.59223 0.3639 0.0
C703 C 0.35074 0.63893 0.36422 0.0
C704 C 0.37065 0.6692 0.34962 0.0
H705 H 0.35695 0.58017 0.3834 0.0
H706 H 0.31837 0.64488 0.37097 0.0
S707 S 0.48181 0.6589 0.32484 0.0
N708 N 0.47645 0.61487 0.34065 0.0
N709 N 0.43535 0.68614 0.32729 0.0
C710 C 0.41297 0.65958 0.34151 0.0
C711 C 0.4352 0.62083 0.3486 0.0
C712 C 0.41542 0.16931 0.09398 0.0
C713 C 0.41834 0.12341 0.09601 0.0
C714 C 0.37831 0.19209 0.10149 0.0
C715 C 0.34304 0.16971 0.11124 0.0
H716 H 0.44267 0.18803 0.08743 0.0
H717 H 0.37825 0.22751 0.10083 0.0
S718 S 0.33132 0.05008 0.1183 0.0
N719 N 0.37993 0.05647 0.10668 0.0
N720 N 0.31121 0.09985 0.12119 0.0
C721 C 0.34433 0.12406 0.11236 0.0
C722 C 0.38168 0.10072 0.10457 0.0
C723 C 0.55371 0.61899 0.8469 0.0
C724 C 0.57573 0.58164 0.85456 0.0
C725 C 0.57702 0.65686 0.84097 0.0
C726 C 0.62308 0.65848 0.84257 0.0
H727 H 0.51825 0.61983 0.84679 0.0
H728 H 0.55861 0.68558 0.8361 0.0
S729 S 0.6955 0.56623 0.85926 0.0
N730 N 0.64539 0.54669 0.86186 0.0
N731 N 0.68967 0.61692 0.85024 0.0
C732 C 0.64534 0.61995 0.84889 0.0
C733 C 0.62151 0.58179 0.85507 0.0
C734 C 0.1489 0.8829 0.61904 0.0
C735 C 0.16028 0.84095 0.61159 0.0
C736 C 0.10979 0.90254 0.61239 0.0
C737 C 0.07988 0.8806 0.59837 0.0
H738 H 0.17001 0.90033 0.63058 0.0
H739 H 0.1024 0.93469 0.61901 0.0
S740 S 0.0952 0.76983 0.57404 0.0
N741 N 0.1398 0.77811 0.5891 0.0
N742 N 0.06539 0.81461 0.5767 0.0
C743 C 0.09144 0.83877 0.59037 0.0
C744 C 0.1319 0.81906 0.59692 0.0
C745 C 0.92919 0.38531 0.34429 0.0
C746 C 0.91252 0.41269 0.36114 0.0
C747 C 0.90645 0.34745 0.33776 0.0
C748 C 0.86595 0.33628 0.34758 0.0
H749 H 0.9609 0.39201 0.33691 0.0
H750 H 0.92112 0.32637 0.32526 0.0
S751 S 0.80697 0.40018 0.39114 0.0
N752 N 0.85242 0.42794 0.38657 0.0
N753 N 0.80922 0.35769 0.37415 0.0
C754 C 0.84812 0.36487 0.36369 0.0
C755 C 0.87156 0.40283 0.37052 0.0
C756 C 0.35011 0.87899 0.37763 0.0
C757 C 0.34247 0.83525 0.38342 0.0
C758 C 0.38923 0.89977 0.38338 0.0
C759 C 0.42287 0.87728 0.39473 0.0
H760 H 0.32607 0.89698 0.36797 0.0
H761 H 0.39358 0.93336 0.37807 0.0
S762 S 0.41807 0.76164 0.41384 0.0
N763 N 0.3704 0.76996 0.40152 0.0
N764 N 0.44478 0.80851 0.41216 0.0
C765 C 0.41496 0.83356 0.40119 0.0
C766 C 0.37456 0.81265 0.39557 0.0
C767 C 0.93688 0.61028 0.14272 0.0
C768 C 0.91765 0.58246 0.12682 0.0
C769 C 0.91504 0.64812 0.15001 0.0
C770 C 0.87305 0.65889 0.14188 0.0
H771 H 0.96988 0.60415 0.14856 0.0
H772 H 0.93167 0.66962 0.16165 0.0
S773 S 0.8075 0.59349 0.10148 0.0
N774 N 0.85377 0.56617 0.10419 0.0
N775 N 0.81219 0.63634 0.1181 0.0
C776 C 0.85272 0.62968 0.12687 0.0
C777 C 0.87521 0.59172 0.11927 0.0
C778 C 0.13699 0.16986 0.88934 0.0
C779 C 0.16054 0.1518 0.87137 0.0
C780 C 0.09916 0.1492 0.89758 0.0
C781 C 0.08426 0.10942 0.88839 0.0
H782 H 0.14661 0.20108 0.89635 0.0
H783 H 0.08108 0.1649 0.91096 0.0
S784 S 0.13723 0.04739 0.84219 0.0
N785 N 0.16815 0.09118 0.84542 0.0
N786 N 0.09793 0.05189 0.86102 0.0
C787 C 0.109 0.09021 0.87107 0.0
C788 C 0.1469 0.11156 0.86252 0.0
C789 C 0.62518 0.41012 0.6281 0.0
C790 C 0.5806 0.41462 0.63314 0.0
C791 C 0.64868 0.37333 0.63495 0.0
C792 C 0.62829 0.33894 0.64672 0.0
H793 H 0.64173 0.43464 0.61808 0.0
H794 H 0.68276 0.37123 0.63006 0.0
S795 S 0.5118 0.33626 0.66472 0.0
N796 N 0.51688 0.38326 0.65131 0.0
N797 N 0.56071 0.31324 0.66409 0.0
C798 C 0.58382 0.34393 0.65263 0.0
C799 C 0.56004 0.382 0.64586 0.0
C800 C 0.2372 0.26163 0.23126 0.0
C801 C 0.27708 0.24159 0.2256 0.0
C802 C 0.22486 0.26745 0.2536 0.0
C803 C 0.25181 0.25356 0.27139 0.0
H804 H 0.21505 0.27306 0.21835 0.0
H805 H 0.19377 0.28325 0.25683 0.0
S806 S 0.3597 0.19875 0.26581 0.0
N807 N 0.34369 0.20741 0.23977 0.0
N808 N 0.32034 0.2185 0.28181 0.0
C809 C 0.29183 0.23332 0.26606 0.0
C810 C 0.30449 0.22735 0.2432 0.0
C811 C 0.00342 0.02933 0.51525 0.0
C812 C 0.98728 0.98755 0.52059 0.0
C813 C 0.01151 0.04148 0.49301 0.0
C814 C 0.00381 0.01239 0.47514 0.0
H815 H 0.00975 0.05309 0.52831 0.0
H816 H 0.0238 0.07414 0.48989 0.0
S817 S 0.96265 0.89847 0.48002 0.0
N818 N 0.96459 0.91653 0.50604 0.0
N819 N 0.97971 0.9395 0.46435 0.0
C820 C 0.98779 0.97039 0.48021 0.0
C821 C 0.97959 0.95795 0.50287 0.0
C822 C 0.22123 0.78034 0.73944 0.0
C823 C 0.24636 0.7645 0.7214 0.0
C824 C 0.23271 0.7714 0.76164 0.0
C825 C 0.26983 0.74618 0.76682 0.0
H826 H 0.19231 0.79998 0.7365 0.0
H827 H 0.21216 0.78451 0.77482 0.0
S828 S 0.34657 0.69627 0.72572 0.0
N829 N 0.31005 0.72196 0.71019 0.0
N830 N 0.33174 0.70508 0.75192 0.0
C831 C 0.29541 0.7301 0.74894 0.0
C832 C 0.28368 0.73927 0.72627 0.0
C833 C 0.48584 0.9798 0.01185 0.0
C834 C 0.51353 0.01473 0.0176 0.0
C835 C 0.47913 0.96804 0.98947 0.0
C836 C 0.49984 0.99067 0.97182 0.0
H837 H 0.46892 0.96135 0.02471 0.0
H838 H 0.45727 0.94097 0.98605 0.0
S839 S 0.57679 0.08395 0.97779 0.0
N840 N 0.56267 0.07149 0.00371 0.0
N841 N 0.54997 0.04929 0.96168 0.0
C842 C 0.52779 0.02563 0.97729 0.0
C843 C 0.53465 0.03766 0.00013 0.0
C844 C 0.28273 0.7714 0.25601 0.0
C845 C 0.25404 0.76173 0.27383 0.0
C846 C 0.27078 0.76411 0.23372 0.0
C847 C 0.22956 0.7468 0.22818 0.0
H848 H 0.31502 0.78462 0.2592 0.0
H849 H 0.29434 0.77199 0.22077 0.0
S850 S 0.14163 0.71666 0.26853 0.0
N851 N 0.18208 0.73444 0.2844 0.0
N852 N 0.15944 0.7207 0.2425 0.0
C853 C 0.20026 0.73717 0.24582 0.0
C854 C 0.21253 0.74461 0.26861 0.0
C855 C 0.53194 0.96814 0.48481 0.0
C856 C 0.52101 0.9959 0.46681 0.0
C857 C 0.52516 0.98077 0.50705 0.0
C858 C 0.50711 0.02175 0.51236 0.0
H859 H 0.54558 0.93598 0.48181 0.0
H860 H 0.53375 0.9578 0.52015 0.0
S861 S 0.47443 0.10768 0.47149 0.0
N862 N 0.49234 0.06699 0.45584 0.0
N863 N 0.47959 0.0909 0.49764 0.0
C864 C 0.49661 0.05027 0.49454 0.0
C865 C 0.50352 0.03732 0.47181 0.0
C866 C 0.2129 0.21996 0.74279 0.0
C867 C 0.23606 0.2384 0.76088 0.0
C868 C 0.22488 0.22848 0.72057 0.0
C869 C 0.26052 0.25584 0.71548 0.0
H870 H 0.1855 0.19823 0.74575 0.0
H871 H 0.20626 0.213 0.70732 0.0
S872 S 0.33032 0.31469 0.75671 0.0
N873 N 0.29524 0.2869 0.77217 0.0
N874 N 0.31778 0.30305 0.73049 0.0
C875 C 0.28355 0.27519 0.73342 0.0
C876 C 0.27134 0.26644 0.75606 0.0
C877 C 0.97872 0.03476 0.98954 0.0
C878 C 0.99329 0.00863 0.9716 0.0
C879 C 0.98699 0.02312 0.0118 0.0
C880 C 0.01031 0.98487 0.01715 0.0
H881 H 0.96041 0.06449 0.98646 0.0
H882 H 0.97483 0.04443 0.0249 0.0
S883 S 0.05664 0.90536 0.97634 0.0
N884 N 0.03287 0.94291 0.96068 0.0
N885 N 0.04845 0.92092 0.00248 0.0
C886 C 0.02535 0.95843 -0.00064 0.0
C887 C 0.01684 0.97031 0.97664 0.0
C888 C 0.7822 0.71931 0.74063 0.0
C889 C 0.75859 0.73783 0.72273 0.0
C890 C 0.77068 0.7275 0.76292 0.0
C891 C 0.73504 0.75464 0.76832 0.0
H892 H 0.80982 0.69797 0.7375 0.0
H893 H 0.78985 0.7121 0.77598 0.0
S894 S 0.66329 0.8126 0.72765 0.0
N895 N 0.69838 0.78548 0.7119 0.0
N896 N 0.67665 0.80099 0.75377 0.0
C897 C 0.71122 0.77371 0.75057 0.0
C898 C 0.72298 0.76527 0.72782 0.0
C899 C 0.77362 0.23885 0.22976 0.0
C900 C 0.73226 0.25599 0.22431 0.0
C901 C 0.78556 0.23099 0.25202 0.0
C902 C 0.75666 0.23992 0.26984 0.0
H903 H 0.79728 0.23159 0.21676 0.0
H904 H 0.81793 0.21799 0.25521 0.0
S905 S 0.6438 0.28409 0.2647 0.0
N906 N 0.66182 0.28095 0.23869 0.0
N907 N 0.68433 0.26623 0.28047 0.0
C908 C 0.71499 0.25678 0.26467 0.0
C909 C 0.70279 0.26478 0.24196 0.0
C910 C 0.73277 0.24826 0.76151 0.0
C911 C 0.77325 0.26707 0.76722 0.0
C912 C 0.72125 0.24092 0.73916 0.0
C913 C 0.74965 0.25207 0.72145 0.0
H914 H 0.70954 0.23904 0.77439 0.0
H915 H 0.68958 0.22639 0.73584 0.0
S916 S 0.8599 0.302 0.72717 0.0
N917 N 0.84216 0.29664 0.75315 0.0
N918 N 0.82036 0.28277 0.71115 0.0
C919 C 0.7903 0.27097 0.72684 0.0
C920 C 0.80213 0.27844 0.74967 0.0
C921 C 0.72499 0.71913 0.25034 0.0
C922 C 0.74974 0.73593 0.2683 0.0
C923 C 0.73622 0.72796 0.22807 0.0
C924 C 0.77275 0.75393 0.22275 0.0
H925 H 0.69659 0.6988 0.2534 0.0
H926 H 0.71611 0.714 0.21495 0.0
S927 S 0.84795 0.807 0.26352 0.0
N928 N 0.8122 0.78056 0.27921 0.0
N929 N 0.83338 0.7972 0.23738 0.0
C930 C 0.79782 0.77115 0.24053 0.0
C931 C 0.78632 0.76215 0.26326 0.0
C932 C 0.51374 0.52126 0.00755 0.0
C933 C 0.49515 0.48091 0.01367 0.0
C934 C 0.5203 0.53232 0.98506 0.0
C935 C 0.50855 0.50354 0.96764 0.0
H936 H 0.52306 0.54488 0.02021 0.0
H937 H 0.53443 0.564 0.98138 0.0
S938 S 0.46002 0.39294 0.97453 0.0
N939 N 0.46606 0.41135 0.00033 0.0
N940 N 0.47835 0.43226 0.95809 0.0
C941 C 0.49041 0.46278 0.97347 0.0
C942 C 0.48375 0.45145 -0.00357 0.0
C943 C 0.9931 0.47 0.48664 0.0
C944 C 1.00021 0.49898 0.46864 0.0
C945 C 1.0009 0.48256 0.50879 0.0
C946 C 0.0162 0.52469 0.514 0.0
H947 H 0.98142 0.43706 0.4837 0.0
H948 H 0.99495 0.45877 0.5219 0.0
S949 S 0.03949 0.61357 0.47309 0.0
N950 N 0.02311 0.57209 0.45755 0.0
N951 N 0.0378 0.59586 0.49921 0.0
C952 C 0.02344 0.5542 0.49618 0.0
C953 C 0.01549 0.54132 0.47353 0.0
C954 C 0.02749 0.47935 0.01007 0.0
C955 C 0.00294 0.51694 0.01518 0.0
C956 C 0.03572 0.46719 0.98787 0.0
C957 C 0.01979 0.49208 0.96976 0.0
H958 H 0.04038 0.4588 0.02331 0.0
H959 H 0.05464 0.43779 0.98498 0.0
S960 S 0.95398 0.5939 0.97389 0.0
N961 N 0.96303 0.57946 0.00012 0.0
N962 N 0.97851 0.55649 0.95845 0.0
C963 C 0.99559 0.5301 0.97457 0.0
C964 C 0.98717 0.54253 -0.00278 0.0
C965 C 0.48623 0.54097 0.49218 0.0
C966 C 0.49671 0.51278 0.4743 0.0
C967 C 0.49398 0.52898 0.51444 0.0
C968 C 0.51267 0.48831 0.51983 0.0
H969 H 0.4717 0.57269 0.48906 0.0
H970 H 0.48521 0.55197 0.5275 0.0
S971 S 0.5462 0.40221 0.47928 0.0
N972 N 0.52693 0.44213 0.46354 0.0
N973 N 0.54143 0.41951 0.50534 0.0
C974 C 0.5235 0.45973 0.50212 0.0
C975 C 0.51555 0.47196 0.47941 0.0
C976 C 0.42001 0.18329 0.35265 0.0
C977 C 0.37541 0.17647 0.35745 0.0
C978 C 0.45169 0.15169 0.35777 0.0
C979 C 0.44033 0.11166 0.36789 0.0
H980 H 0.43081 0.21345 0.3449 0.0
H981 H 0.48548 0.1589 0.3537 0.0
S982 S 0.32788 0.07696 0.38369 0.0
N983 N 0.32138 0.12617 0.37281 0.0
N984 N 0.38087 0.06678 0.38239 0.0
C985 C 0.39578 0.10421 0.37275 0.0
C986 C 0.36341 0.13654 0.36755 0.0
C987 C 0.05581 0.16256 0.61164 0.0
C988 C 0.06481 0.11744 0.61104 0.0
C989 C 0.08859 0.19322 0.61645 0.0
C990 C 0.1319 0.18022 0.62095 0.0
H991 H 0.02308 0.17455 0.60836 0.0
H992 H 0.07966 0.22748 0.61668 0.0
S993 S 0.17315 0.06593 0.62135 0.0
N994 N 0.12066 0.06122 0.61528 0.0
N995 N 0.18217 0.11882 0.62434 0.0
C996 C 0.14152 0.13517 0.6204 0.0
C997 C 0.10807 0.10385 0.61544 0.0
C998 C 0.14333 0.86468 0.85035 0.0
C999 C 0.14989 0.83501 0.86811 0.0
C1000 C 0.11193 0.89805 0.85173 0.0
C1001 C 0.08565 0.90331 0.87093 0.0
H1002 H 0.16252 0.86214 0.83514 0.0
H1003 H 0.10834 0.91989 0.83756 0.0
S1004 S 0.09024 0.83493 0.92241 0.0
N1005 N 0.12765 0.81361 0.90573 0.0
N1006 N 0.06882 0.87613 0.90833 0.0
C1007 C 0.09202 0.87405 0.88891 0.0
C1008 C 0.12402 0.84002 0.88749 0.0
C1009 C 0.37141 0.84851 0.14109 0.0
C1010 C 0.33718 0.8467 0.12531 0.0
C1011 C 0.40652 0.87768 0.13857 0.0
C1012 C 0.40906 0.90636 0.12015 0.0
H1013 H 0.37144 0.82688 0.15547 0.0
H1014 H 0.43214 0.8773 0.15111 0.0
S1015 S 0.32646 0.91705 0.0748 0.0
N1016 N 0.30718 0.8778 0.09104 0.0
N1017 N 0.373 0.93257 0.08636 0.0
C1018 C 0.37468 0.90553 0.10443 0.0
C1019 C 0.33886 0.87577 0.10699 0.0
C1020 C 0.65837 0.86646 0.60153 0.0
C1021 C 0.66436 0.84316 0.62165 0.0
C1022 C 0.62504 0.89774 0.59928 0.0
C1023 C 0.59636 0.90736 0.61711 0.0
H1024 H 0.67935 0.8603 0.58724 0.0
H1025 H 0.62182 0.91448 0.58337 0.0
S1026 S 0.59887 0.85656 0.6737 0.0
N1027 N 0.63919 0.83263 0.65999 0.0
N1028 N 0.57683 0.89133 0.65582 0.0
C1029 C 0.60227 0.88464 0.63744 0.0
C1030 C 0.63612 0.85261 0.6397 0.0
C1031 C 0.91201 0.87123 0.35706 0.0
C1032 C 0.91267 0.90339 0.37392 0.0
C1033 C 0.87677 0.84213 0.35487 0.0
C1034 C 0.84051 0.84382 0.36945 0.0
H1035 H 0.93908 0.86817 0.34544 0.0
H1036 H 0.87825 0.81792 0.34165 0.0
S1037 S 0.82526 0.92275 0.41614 0.0
N1038 N 0.87321 0.93574 0.40528 0.0
N1039 N 0.80714 0.88118 0.40116 0.0
C1040 C 0.84045 0.87613 0.38628 0.0
C1041 C 0.87642 0.90581 0.38852 0.0
C1042 C 0.87124 0.15476 0.1378 0.0
C1043 C 0.83719 0.15609 0.12191 0.0
C1044 C 0.90627 0.12545 0.13568 0.0
C1045 C 0.90889 0.09606 0.11757 0.0
H1046 H 0.87117 0.17684 0.152 0.0
H1047 H 0.93168 0.12619 0.14832 0.0
S1048 S 0.82715 0.08463 0.07183 0.0
N1049 N 0.80768 0.12426 0.08773 0.0
N1050 N 0.87336 0.06919 0.08375 0.0
C1051 C 0.87475 0.09654 0.10168 0.0
C1052 C 0.83902 0.12649 0.10385 0.0
C1053 C 0.59557 0.13344 0.85609 0.0
C1054 C 0.59704 0.09813 0.87123 0.0
C1055 C 0.63096 0.16233 0.85378 0.0
C1056 C 0.66942 0.15731 0.86652 0.0
H1057 H 0.56667 0.1392 0.84602 0.0
H1058 H 0.6278 0.18916 0.84203 0.0
S1059 S 0.69118 0.06869 0.90766 0.0
N1060 N 0.64115 0.05877 0.89858 0.0
N1061 N 0.70747 0.113 0.89424 0.0
C1062 C 0.67169 0.1217 0.88147 0.0
C1063 C 0.63562 0.09219 0.88381 0.0
C1064 C 0.8853 0.65388 0.88107 0.0
C1065 C 0.85067 0.6531 0.86553 0.0
C1066 C 0.91513 0.61921 0.88268 0.0
C1067 C 0.91182 0.58215 0.86877 0.0
H1068 H 0.88971 0.68166 0.8921 0.0
H1069 H 0.9412 0.62175 0.89491 0.0
S1070 S 0.82602 0.56286 0.82577 0.0
N1071 N 0.81401 0.61126 0.83633 0.0
N1072 N 0.87025 0.54637 0.83921 0.0
C1073 C 0.87711 0.58067 0.85325 0.0
C1074 C 0.84655 0.616 0.85167 0.0
C1075 C 0.64256 0.63991 0.13821 0.0
C1076 C 0.66713 0.65369 0.11951 0.0
C1077 C 0.60914 0.60871 0.13614 0.0
C1078 C 0.59848 0.59022 0.11525 0.0
H1079 H 0.64913 0.65327 0.15468 0.0
H1080 H 0.5912 0.59945 0.15107 0.0
S1081 S 0.65356 0.61393 0.06107 0.0
N1082 N 0.67897 0.6454 0.07938 0.0
N1083 N 0.61604 0.58716 0.0755 0.0
C1084 C 0.62295 0.60339 0.0964 0.0
C1085 C 0.65727 0.63495 0.09854 0.0
C1086 C 0.64511 0.36471 0.38953 0.0
C1087 C 0.65732 0.34521 0.3691 0.0
C1088 C 0.61181 0.39621 0.39051 0.0
C1089 C 0.58958 0.40997 0.37107 0.0
H1090 H 0.66115 0.35541 0.40499 0.0
H1091 H 0.60371 0.41011 0.40668 0.0
S1092 S 0.60914 0.36949 0.31326 0.0
N1093 N 0.64442 0.34219 0.32884 0.0
N1094 N 0.58222 0.40157 0.33071 0.0
C1095 C 0.60161 0.39101 0.35048 0.0
C1096 C 0.6353 0.3586 0.34949 0.0
C1097 C 0.88226 0.41709 0.62989 0.0
C1098 C 0.9164 0.41627 0.61403 0.0
C1099 C 0.85393 0.38136 0.63266 0.0
C1100 C 0.85853 0.34306 0.61975 0.0
H1101 H 0.87721 0.44563 0.64032 0.0
H1102 H 0.82832 0.38383 0.64515 0.0
S1103 S 0.94273 0.32392 0.57585 0.0
N1104 N 0.95313 0.37365 0.58515 0.0
N1105 N 0.90013 0.30665 0.59038 0.0
C1106 C 0.8925 0.34178 0.60377 0.0
C1107 C 0.9213 0.37827 0.6009 0.0
C1108 C 0.11479 0.39439 0.13927 0.0
C1109 C 0.10128 0.40956 0.11808 0.0
C1110 C 0.1474 0.36235 0.14145 0.0
C1111 C 0.1682 0.34425 0.12255 0.0
H1112 H 0.09992 0.40713 0.1544 0.0
H1113 H 0.15646 0.35186 0.15816 0.0
S1114 S 0.14518 0.37264 0.06315 0.0
N1115 N 0.11157 0.40385 0.07772 0.0
N1116 N 0.17281 0.34398 0.08182 0.0
C1117 C 0.15524 0.35927 0.10123 0.0
C1118 C 0.12184 0.39175 0.099 0.0
C1119 C 0.39739 0.3734 0.84731 0.0
C1120 C 0.40324 0.39863 0.86681 0.0
C1121 C 0.3635 0.34266 0.84563 0.0
C1122 C 0.33372 0.33585 0.86333 0.0
H1123 H 0.41935 0.3771 0.83318 0.0
H1124 H 0.36069 0.32412 0.83023 0.0
S1125 S 0.33399 0.39405 0.91799 0.0
N1126 N 0.37583 0.41507 0.90419 0.0
N1127 N 0.31216 0.35746 0.90101 0.0
C1128 C 0.33889 0.36113 0.88289 0.0
C1129 C 0.37358 0.3924 0.88463 0.0
C1130 C 0.41339 0.63953 0.62993 0.0
C1131 C 0.41116 0.60288 0.61571 0.0
C1132 C 0.37809 0.66848 0.63209 0.0
C1133 C 0.33895 0.66226 0.62005 0.0
H1134 H 0.44274 0.64614 0.63953 0.0
H1135 H 0.38178 0.69618 0.64324 0.0
S1136 S 0.31553 0.57071 0.58094 0.0
N1137 N 0.36595 0.5615 0.58964 0.0
N1138 N 0.29973 0.61594 0.59367 0.0
C1139 C 0.33605 0.62559 0.60585 0.0
C1140 C 0.37205 0.59595 0.60369 0.0
C1141 C 0.10834 0.61302 0.37243 0.0
C1142 C 0.06363 0.62036 0.36802 0.0
C1143 C 0.14015 0.64473 0.36745 0.0
C1144 C 0.12873 0.6852 0.3578 0.0
H1145 H 0.11901 0.58252 0.37986 0.0
H1146 H 0.17402 0.63735 0.37124 0.0
S1147 S 0.01619 0.72089 0.3428 0.0
N1148 N 0.00969 0.67141 0.3533 0.0
N1149 N 0.06923 0.73071 0.34394 0.0
C1150 C 0.08415 0.69292 0.3532 0.0
C1151 C 0.05173 0.66065 0.3583 0.0
loop_
_geom_bond_atom_site_label_1
_geom_bond_atom_site_label_2
_geom_bond_distance
_geom_bond_site_symmetry_2
_ccdc_geom_bond_type
Mg0 O1 2.028 . S
Mg0 O7 1.986 . S
Mg0 O9 2.114 . S
Mg0 O10 2.251 . S
Mg0 O13 2.010 . S
O1 Mg0 2.028 . S
O1 C4 1.250 . S
O2 Mg3 2.028 . S
O2 C4 1.248 . S
Mg3 O2 2.028 . S
Mg3 O8 2.032 . S
Mg3 O10 2.079 . S
C4 O1 1.250 . S
C4 O2 1.248 . S
C5 O6 1.264 . S
C5 O13 1.249 . S
O6 C5 1.264 . S
O7 Mg0 1.986 . S
O7 C11 1.246 . S
O8 Mg3 2.032 . S
O8 C11 1.259 . S
O9 Mg0 2.114 . S
O9 C12 1.252 . S
O10 Mg0 2.251 . S
O10 Mg3 2.079 . S
O10 C12 1.273 . S
C11 O7 1.246 . S
C11 O8 1.259 . S
C12 O9 1.252 . S
C12 O10 1.273 . S
O13 Mg0 2.010 . S
O13 C5 1.249 . S
Mg14 O15 2.028 . S
Mg14 O21 1.986 . S
Mg14 O23 2.114 1_455 S
Mg14 O24 2.251 1_455 S
Mg14 O27 2.010 1_565 S
O15 Mg14 2.028 . S
O15 C18 1.250 . S
O16 Mg17 2.028 1_455 S
O16 C18 1.248 . S
Mg17 O16 2.028 1_655 S
Mg17 O22 2.032 1_655 S
Mg17 O24 2.079 . S
C18 O15 1.250 . S
C18 O16 1.248 . S
C19 O20 1.264 . S
C19 O27 1.249 . S
O20 C19 1.264 . S
O21 Mg14 1.986 . S
O21 C25 1.246 . S
O22 Mg17 2.032 1_455 S
O22 C25 1.259 . S
O23 Mg14 2.114 1_655 S
O23 C26 1.252 . S
O24 Mg14 2.251 1_655 S
O24 Mg17 2.079 . S
O24 C26 1.273 . S
C25 O21 1.246 . S
C25 O22 1.259 . S
C26 O23 1.252 . S
C26 O24 1.273 . S
O27 Mg14 2.010 1_545 S
O27 C19 1.249 . S
Mg28 O29 2.028 . S
Mg28 O35 1.986 . S
Mg28 O37 2.114 . S
Mg28 O38 2.251 . S
Mg28 O41 2.010 . S
O29 Mg28 2.028 . S
O29 C32 1.250 . S
O30 Mg31 2.028 . S
O30 C32 1.248 . S
Mg31 O30 2.028 . S
Mg31 O36 2.032 . S
Mg31 O38 2.079 . S
C32 O29 1.250 . S
C32 O30 1.248 . S
C33 O34 1.264 . S
C33 O41 1.249 . S
O34 C33 1.264 . S
O35 Mg28 1.986 . S
O35 C39 1.246 . S
O36 Mg31 2.032 . S
O36 C39 1.259 . S
O37 Mg28 2.114 . S
O37 C40 1.252 . S
O38 Mg28 2.251 . S
O38 Mg31 2.079 . S
O38 C40 1.273 . S
C39 O35 1.246 . S
C39 O36 1.259 . S
C40 O37 1.252 . S
C40 O38 1.273 . S
O41 Mg28 2.010 . S
O41 C33 1.249 . S
Mg42 O43 2.028 . S
Mg42 O49 1.986 . S
Mg42 O51 2.114 . S
Mg42 O52 2.251 . S
Mg42 O55 2.010 1_545 S
O43 Mg42 2.028 . S
O43 C46 1.250 . S
O44 Mg45 2.028 . S
O44 C46 1.248 . S
Mg45 O44 2.028 . S
Mg45 O50 2.032 . S
Mg45 O52 2.079 . S
C46 O43 1.250 . S
C46 O44 1.248 . S
C47 O48 1.264 . S
C47 O55 1.249 . S
O48 C47 1.264 . S
O49 Mg42 1.986 . S
O49 C53 1.246 . S
O50 Mg45 2.032 . S
O50 C53 1.259 . S
O51 Mg42 2.114 . S
O51 C54 1.252 . S
O52 Mg42 2.251 . S
O52 Mg45 2.079 . S
O52 C54 1.273 . S
C53 O49 1.246 . S
C53 O50 1.259 . S
C54 O51 1.252 . S
C54 O52 1.273 . S
O55 Mg42 2.010 1_565 S
O55 C47 1.249 . S
Mg56 O57 2.028 . S
Mg56 O63 1.986 . S
Mg56 O65 2.114 . S
Mg56 O66 2.251 . S
Mg56 O69 2.010 . S
O57 Mg56 2.028 . S
O57 C60 1.250 . S
O58 Mg59 2.028 . S
O58 C60 1.248 . S
Mg59 O58 2.028 . S
Mg59 O64 2.032 . S
Mg59 O66 2.079 . S
C60 O57 1.250 . S
C60 O58 1.248 . S
C61 O62 1.264 . S
C61 O69 1.249 . S
O62 C61 1.264 . S
O63 Mg56 1.986 . S
O63 C67 1.246 . S
O64 Mg59 2.032 . S
O64 C67 1.259 . S
O65 Mg56 2.114 . S
O65 C68 1.252 . S
O66 Mg56 2.251 . S
O66 Mg59 2.079 . S
O66 C68 1.273 . S
C67 O63 1.246 . S
C67 O64 1.259 . S
C68 O65 1.252 . S
C68 O66 1.273 . S
O69 Mg56 2.010 . S
O69 C61 1.249 . S
Mg70 O71 2.028 . S
Mg70 O77 1.986 . S
Mg70 O79 2.114 . S
Mg70 O80 2.251 . S
Mg70 O83 2.010 1_565 S
O71 Mg70 2.028 . S
O71 C74 1.250 . S
O72 Mg73 2.028 . S
O72 C74 1.248 . S
Mg73 O72 2.028 . S
Mg73 O78 2.032 . S
Mg73 O80 2.079 . S
C74 O71 1.250 . S
C74 O72 1.248 . S
C75 O76 1.264 . S
C75 O83 1.249 . S
O76 C75 1.264 . S
O77 Mg70 1.986 . S
O77 C81 1.246 . S
O78 Mg73 2.032 . S
O78 C81 1.259 . S
O79 Mg70 2.114 . S
O79 C82 1.252 . S
O80 Mg70 2.251 . S
O80 Mg73 2.079 . S
O80 C82 1.273 . S
C81 O77 1.246 . S
C81 O78 1.259 . S
C82 O79 1.252 . S
C82 O80 1.273 . S
O83 Mg70 2.010 1_545 S
O83 C75 1.249 . S
Mg84 O85 2.028 . S
Mg84 O91 1.986 . S
Mg84 O93 2.114 . S
Mg84 O94 2.251 . S
Mg84 O97 2.010 . S
O85 Mg84 2.028 . S
O85 C88 1.250 . S
O86 Mg87 2.028 . S
O86 C88 1.248 . S
Mg87 O86 2.028 . S
Mg87 O92 2.032 . S
Mg87 O94 2.079 . S
C88 O85 1.250 . S
C88 O86 1.248 . S
C89 O90 1.264 . S
C89 O97 1.249 . S
O90 C89 1.264 . S
O91 Mg84 1.986 . S
O91 C95 1.246 . S
O92 Mg87 2.032 . S
O92 C95 1.259 . S
O93 Mg84 2.114 . S
O93 C96 1.252 . S
O94 Mg84 2.251 . S
O94 Mg87 2.079 . S
O94 C96 1.273 . S
C95 O91 1.246 . S
C95 O92 1.259 . S
C96 O93 1.252 . S
C96 O94 1.273 . S
O97 Mg84 2.010 . S
O97 C89 1.249 . S
Mg98 O99 2.028 . S
Mg98 O105 1.986 . S
Mg98 O107 2.114 1_455 S
Mg98 O108 2.251 1_455 S
Mg98 O111 2.010 1_545 S
O99 Mg98 2.028 . S
O99 C102 1.250 . S
O100 Mg101 2.028 1_455 S
O100 C102 1.248 . S
Mg101 O100 2.028 1_655 S
Mg101 O106 2.032 1_655 S
Mg101 O108 2.079 . S
C102 O99 1.250 . S
C102 O100 1.248 . S
C103 O104 1.264 . S
C103 O111 1.249 . S
O104 C103 1.264 . S
O105 Mg98 1.986 . S
O105 C109 1.246 . S
O106 Mg101 2.032 1_455 S
O106 C109 1.259 . S
O107 Mg98 2.114 1_655 S
O107 C110 1.252 . S
O108 Mg98 2.251 1_655 S
O108 Mg101 2.079 . S
O108 C110 1.273 . S
C109 O105 1.246 . S
C109 O106 1.259 . S
C110 O107 1.252 . S
C110 O108 1.273 . S
O111 Mg98 2.010 1_565 S
O111 C103 1.249 . S
Mg112 O113 2.028 . S
Mg112 O119 1.986 . S
Mg112 O121 2.114 . S
Mg112 O122 2.251 . S
Mg112 O125 2.010 . S
O113 Mg112 2.028 . S
O113 C116 1.250 . S
O114 Mg115 2.028 . S
O114 C116 1.248 . S
Mg115 O114 2.028 . S
Mg115 O120 2.032 . S
Mg115 O122 2.079 . S
C116 O113 1.250 . S
C116 O114 1.248 . S
C117 O118 1.264 . S
C117 O125 1.249 . S
O118 C117 1.264 . S
O119 Mg112 1.986 . S
O119 C123 1.246 . S
O120 Mg115 2.032 . S
O120 C123 1.259 . S
O121 Mg112 2.114 . S
O121 C124 1.252 . S
O122 Mg112 2.251 . S
O122 Mg115 2.079 . S
O122 C124 1.273 . S
C123 O119 1.246 . S
C123 O120 1.259 . S
C124 O121 1.252 . S
C124 O122 1.273 . S
O125 Mg112 2.010 . S
O125 C117 1.249 . S
Mg126 O127 2.028 . S
Mg126 O133 1.986 . S
Mg126 O135 2.114 1_655 S
Mg126 O136 2.251 1_655 S
Mg126 O139 2.010 1_545 S
O127 Mg126 2.028 . S
O127 C130 1.250 . S
O128 Mg129 2.028 1_655 S
O128 C130 1.248 . S
Mg129 O128 2.028 1_455 S
Mg129 O134 2.032 1_455 S
Mg129 O136 2.079 . S
C130 O127 1.250 . S
C130 O128 1.248 . S
C131 O132 1.264 . S
C131 O139 1.249 . S
O132 C131 1.264 . S
O133 Mg126 1.986 . S
O133 C137 1.246 . S
O134 Mg129 2.032 1_655 S
O134 C137 1.259 . S
O135 Mg126 2.114 1_455 S
O135 C138 1.252 . S
O136 Mg126 2.251 1_455 S
O136 Mg129 2.079 . S
O136 C138 1.273 . S
C137 O133 1.246 . S
C137 O134 1.259 . S
C138 O135 1.252 . S
C138 O136 1.273 . S
O139 Mg126 2.010 1_565 S
O139 C131 1.249 . S
Mg140 O141 2.028 . S
Mg140 O147 1.986 . S
Mg140 O149 2.114 . S
Mg140 O150 2.251 . S
Mg140 O153 2.010 . S
O141 Mg140 2.028 . S
O141 C144 1.250 . S
O142 Mg143 2.028 . S
O142 C144 1.248 . S
Mg143 O142 2.028 . S
Mg143 O148 2.032 . S
Mg143 O150 2.079 . S
C144 O141 1.250 . S
C144 O142 1.248 . S
C145 O146 1.264 . S
C145 O153 1.249 . S
O146 C145 1.264 . S
O147 Mg140 1.986 . S
O147 C151 1.246 . S
O148 Mg143 2.032 . S
O148 C151 1.259 . S
O149 Mg140 2.114 . S
O149 C152 1.252 . S
O150 Mg140 2.251 . S
O150 Mg143 2.079 . S
O150 C152 1.273 . S
C151 O147 1.246 . S
C151 O148 1.259 . S
C152 O149 1.252 . S
C152 O150 1.273 . S
O153 Mg140 2.010 . S
O153 C145 1.249 . S
Mg154 O155 2.028 . S
Mg154 O161 1.986 . S
Mg154 O163 2.114 . S
Mg154 O164 2.251 . S
Mg154 O167 2.010 1_565 S
O155 Mg154 2.028 . S
O155 C158 1.250 . S
O156 Mg157 2.028 . S
O156 C158 1.248 . S
Mg157 O156 2.028 . S
Mg157 O162 2.032 . S
Mg157 O164 2.079 . S
C158 O155 1.250 . S
C158 O156 1.248 . S
C159 O160 1.264 . S
C159 O167 1.249 . S
O160 C159 1.264 . S
O161 Mg154 1.986 . S
O161 C165 1.246 . S
O162 Mg157 2.032 . S
O162 C165 1.259 . S
O163 Mg154 2.114 . S
O163 C166 1.252 . S
O164 Mg154 2.251 . S
O164 Mg157 2.079 . S
O164 C166 1.273 . S
C165 O161 1.246 . S
C165 O162 1.259 . S
C166 O163 1.252 . S
C166 O164 1.273 . S
O167 Mg154 2.010 1_545 S
O167 C159 1.249 . S
Mg168 O169 2.028 . S
Mg168 O175 1.986 . S
Mg168 O177 2.114 . S
Mg168 O178 2.251 . S
Mg168 O181 2.010 . S
O169 Mg168 2.028 . S
O169 C172 1.250 . S
O170 Mg171 2.028 . S
O170 C172 1.248 . S
Mg171 O170 2.028 . S
Mg171 O176 2.032 . S
Mg171 O178 2.079 . S
C172 O169 1.250 . S
C172 O170 1.248 . S
C173 O174 1.264 . S
C173 O181 1.249 . S
O174 C173 1.264 . S
O175 Mg168 1.986 . S
O175 C179 1.246 . S
O176 Mg171 2.032 . S
O176 C179 1.259 . S
O177 Mg168 2.114 . S
O177 C180 1.252 . S
O178 Mg168 2.251 . S
O178 Mg171 2.079 . S
O178 C180 1.273 . S
C179 O175 1.246 . S
C179 O176 1.259 . S
C180 O177 1.252 . S
C180 O178 1.273 . S
O181 Mg168 2.010 . S
O181 C173 1.249 . S
Mg182 O183 2.028 . S
Mg182 O189 1.986 . S
Mg182 O191 2.114 . S
Mg182 O192 2.251 . S
Mg182 O195 2.010 1_545 S
O183 Mg182 2.028 . S
O183 C186 1.250 . S
O184 Mg185 2.028 . S
O184 C186 1.248 . S
Mg185 O184 2.028 . S
Mg185 O190 2.032 . S
Mg185 O192 2.079 . S
C186 O183 1.250 . S
C186 O184 1.248 . S
C187 O188 1.264 . S
C187 O195 1.249 . S
O188 C187 1.264 . S
O189 Mg182 1.986 . S
O189 C193 1.246 . S
O190 Mg185 2.032 . S
O190 C193 1.259 . S
O191 Mg182 2.114 . S
O191 C194 1.252 . S
O192 Mg182 2.251 . S
O192 Mg185 2.079 . S
O192 C194 1.273 . S
C193 O189 1.246 . S
C193 O190 1.259 . S
C194 O191 1.252 . S
C194 O192 1.273 . S
O195 Mg182 2.010 1_565 S
O195 C187 1.249 . S
Mg196 O197 2.028 . S
Mg196 O203 1.986 . S
Mg196 O205 2.114 . S
Mg196 O206 2.251 . S
Mg196 O209 2.010 . S
O197 Mg196 2.028 . S
O197 C200 1.250 . S
O198 Mg199 2.028 . S
O198 C200 1.248 . S
Mg199 O198 2.028 . S
Mg199 O204 2.032 . S
Mg199 O206 2.079 . S
C200 O197 1.250 . S
C200 O198 1.248 . S
C201 O202 1.264 . S
C201 O209 1.249 . S
O202 C201 1.264 . S
O203 Mg196 1.986 . S
O203 C207 1.246 . S
O204 Mg199 2.032 . S
O204 C207 1.259 . S
O205 Mg196 2.114 . S
O205 C208 1.252 . S
O206 Mg196 2.251 . S
O206 Mg199 2.079 . S
O206 C208 1.273 . S
C207 O203 1.246 . S
C207 O204 1.259 . S
C208 O205 1.252 . S
C208 O206 1.273 . S
O209 Mg196 2.010 . S
O209 C201 1.249 . S
Mg210 O211 2.028 . S
Mg210 O217 1.986 . S
Mg210 O219 2.114 1_655 S
Mg210 O220 2.251 1_655 S
Mg210 O223 2.010 1_565 S
O211 Mg210 2.028 . S
O211 C214 1.250 . S
O212 Mg213 2.028 1_655 S
O212 C214 1.248 . S
Mg213 O212 2.028 1_455 S
Mg213 O218 2.032 1_455 S
Mg213 O220 2.079 . S
C214 O211 1.250 . S
C214 O212 1.248 . S
C215 O216 1.264 . S
C215 O223 1.249 . S
O216 C215 1.264 . S
O217 Mg210 1.986 . S
O217 C221 1.246 . S
O218 Mg213 2.032 1_655 S
O218 C221 1.259 . S
O219 Mg210 2.114 1_455 S
O219 C222 1.252 . S
O220 Mg210 2.251 1_455 S
O220 Mg213 2.079 . S
O220 C222 1.273 . S
C221 O217 1.246 . S
C221 O218 1.259 . S
C222 O219 1.252 . S
C222 O220 1.273 . S
O223 Mg210 2.010 1_545 S
O223 C215 1.249 . S
Mg224 O225 2.028 . S
Mg224 O231 1.986 . S
Mg224 O233 2.114 . S
Mg224 O234 2.251 . S
Mg224 O237 2.010 . S
O225 Mg224 2.028 . S
O225 C228 1.250 . S
O226 Mg227 2.028 . S
O226 C228 1.248 . S
Mg227 O226 2.028 . S
Mg227 O232 2.032 . S
Mg227 O234 2.079 . S
C228 O225 1.250 . S
C228 O226 1.248 . S
C229 O230 1.264 . S
C229 O237 1.249 . S
O230 C229 1.264 . S
O231 Mg224 1.986 . S
O231 C235 1.246 . S
O232 Mg227 2.032 . S
O232 C235 1.259 . S
O233 Mg224 2.114 . S
O233 C236 1.252 . S
O234 Mg224 2.251 . S
O234 Mg227 2.079 . S
O234 C236 1.273 . S
C235 O231 1.246 . S
C235 O232 1.259 . S
C236 O233 1.252 . S
C236 O234 1.273 . S
O237 Mg224 2.010 . S
O237 C229 1.249 . S
Mg238 O239 2.028 . S
Mg238 O245 1.986 . S
Mg238 O247 2.114 . S
Mg238 O248 2.251 . S
Mg238 O251 2.010 . S
O239 Mg238 2.028 . S
O239 C242 1.250 . S
O240 Mg241 2.028 . S
O240 C242 1.248 . S
Mg241 O240 2.028 . S
Mg241 O246 2.032 . S
Mg241 O248 2.079 . S
C242 O239 1.250 . S
C242 O240 1.248 . S
C243 O244 1.264 . S
C243 O251 1.249 . S
O244 C243 1.264 . S
O245 Mg238 1.986 . S
O245 C249 1.246 . S
O246 Mg241 2.032 . S
O246 C249 1.259 . S
O247 Mg238 2.114 . S
O247 C250 1.252 . S
O248 Mg238 2.251 . S
O248 Mg241 2.079 . S
O248 C250 1.273 . S
C249 O245 1.246 . S
C249 O246 1.259 . S
C250 O247 1.252 . S
C250 O248 1.273 . S
O251 Mg238 2.010 . S
O251 C243 1.249 . S
Mg252 O253 2.028 . S
Mg252 O259 1.986 . S
Mg252 O261 2.114 . S
Mg252 O262 2.251 . S
Mg252 O265 2.010 . S
O253 Mg252 2.028 . S
O253 C256 1.250 . S
O254 Mg255 2.028 . S
O254 C256 1.248 . S
Mg255 O254 2.028 . S
Mg255 O260 2.032 . S
Mg255 O262 2.079 . S
C256 O253 1.250 . S
C256 O254 1.248 . S
C257 O258 1.264 . S
C257 O265 1.249 . S
O258 C257 1.264 . S
O259 Mg252 1.986 . S
O259 C263 1.246 . S
O260 Mg255 2.032 . S
O260 C263 1.259 . S
O261 Mg252 2.114 . S
O261 C264 1.252 . S
O262 Mg252 2.251 . S
O262 Mg255 2.079 . S
O262 C264 1.273 . S
C263 O259 1.246 . S
C263 O260 1.259 . S
C264 O261 1.252 . S
C264 O262 1.273 . S
O265 Mg252 2.010 . S
O265 C257 1.249 . S
Mg266 O267 2.028 . S
Mg266 O273 1.986 . S
Mg266 O275 2.114 1_655 S
Mg266 O276 2.251 1_655 S
Mg266 O279 2.010 . S
O267 Mg266 2.028 . S
O267 C270 1.250 . S
O268 Mg269 2.028 1_655 S
O268 C270 1.248 . S
Mg269 O268 2.028 1_455 S
Mg269 O274 2.032 1_455 S
Mg269 O276 2.079 . S
C270 O267 1.250 . S
C270 O268 1.248 . S
C271 O272 1.264 . S
C271 O279 1.249 . S
O272 C271 1.264 . S
O273 Mg266 1.986 . S
O273 C277 1.246 . S
O274 Mg269 2.032 1_655 S
O274 C277 1.259 . S
O275 Mg266 2.114 1_455 S
O275 C278 1.252 . S
O276 Mg266 2.251 1_455 S
O276 Mg269 2.079 . S
O276 C278 1.273 . S
C277 O273 1.246 . S
C277 O274 1.259 . S
C278 O275 1.252 . S
C278 O276 1.273 . S
O279 Mg266 2.010 . S
O279 C271 1.249 . S
Mg280 O281 2.028 . S
Mg280 O287 1.986 . S
Mg280 O289 2.114 . S
Mg280 O290 2.251 . S
Mg280 O293 2.010 . S
O281 Mg280 2.028 . S
O281 C284 1.250 . S
O282 Mg283 2.028 . S
O282 C284 1.248 . S
Mg283 O282 2.028 . S
Mg283 O288 2.032 . S
Mg283 O290 2.079 . S
C284 O281 1.250 . S
C284 O282 1.248 . S
C285 O286 1.264 . S
C285 O293 1.249 . S
O286 C285 1.264 . S
O287 Mg280 1.986 . S
O287 C291 1.246 . S
O288 Mg283 2.032 . S
O288 C291 1.259 . S
O289 Mg280 2.114 . S
O289 C292 1.252 . S
O290 Mg280 2.251 . S
O290 Mg283 2.079 . S
O290 C292 1.273 . S
C291 O287 1.246 . S
C291 O288 1.259 . S
C292 O289 1.252 . S
C292 O290 1.273 . S
O293 Mg280 2.010 . S
O293 C285 1.249 . S
Mg294 O295 2.028 . S
Mg294 O301 1.986 . S
Mg294 O303 2.114 1_655 S
Mg294 O304 2.251 1_655 S
Mg294 O307 2.010 . S
O295 Mg294 2.028 . S
O295 C298 1.250 . S
O296 Mg297 2.028 1_655 S
O296 C298 1.248 . S
Mg297 O296 2.028 1_455 S
Mg297 O302 2.032 1_455 S
Mg297 O304 2.079 . S
C298 O295 1.250 . S
C298 O296 1.248 . S
C299 O300 1.264 . S
C299 O307 1.249 . S
O300 C299 1.264 . S
O301 Mg294 1.986 . S
O301 C305 1.246 . S
O302 Mg297 2.032 1_655 S
O302 C305 1.259 . S
O303 Mg294 2.114 1_455 S
O303 C306 1.252 . S
O304 Mg294 2.251 1_455 S
O304 Mg297 2.079 . S
O304 C306 1.273 . S
C305 O301 1.246 . S
C305 O302 1.259 . S
C306 O303 1.252 . S
C306 O304 1.273 . S
O307 Mg294 2.010 . S
O307 C299 1.249 . S
Mg308 O309 2.028 . S
Mg308 O315 1.986 . S
Mg308 O317 2.114 . S
Mg308 O318 2.251 . S
Mg308 O321 2.010 . S
O309 Mg308 2.028 . S
O309 C312 1.250 . S
O310 Mg311 2.028 . S
O310 C312 1.248 . S
Mg311 O310 2.028 . S
Mg311 O316 2.032 . S
Mg311 O318 2.079 . S
C312 O309 1.250 . S
C312 O310 1.248 . S
C313 O314 1.264 . S
C313 O321 1.249 . S
O314 C313 1.264 . S
O315 Mg308 1.986 . S
O315 C319 1.246 . S
O316 Mg311 2.032 . S
O316 C319 1.259 . S
O317 Mg308 2.114 . S
O317 C320 1.252 . S
O318 Mg308 2.251 . S
O318 Mg311 2.079 . S
O318 C320 1.273 . S
C319 O315 1.246 . S
C319 O316 1.259 . S
C320 O317 1.252 . S
C320 O318 1.273 . S
O321 Mg308 2.010 . S
O321 C313 1.249 . S
Mg322 O323 2.028 . S
Mg322 O329 1.986 . S
Mg322 O331 2.114 . S
Mg322 O332 2.251 . S
Mg322 O335 2.010 . S
O323 Mg322 2.028 . S
O323 C326 1.250 . S
O324 Mg325 2.028 . S
O324 C326 1.248 . S
Mg325 O324 2.028 . S
Mg325 O330 2.032 . S
Mg325 O332 2.079 . S
C326 O323 1.250 . S
C326 O324 1.248 . S
C327 O328 1.264 . S
C327 O335 1.249 . S
O328 C327 1.264 . S
O329 Mg322 1.986 . S
O329 C333 1.246 . S
O330 Mg325 2.032 . S
O330 C333 1.259 . S
O331 Mg322 2.114 . S
O331 C334 1.252 . S
O332 Mg322 2.251 . S
O332 Mg325 2.079 . S
O332 C334 1.273 . S
C333 O329 1.246 . S
C333 O330 1.259 . S
C334 O331 1.252 . S
C334 O332 1.273 . S
O335 Mg322 2.010 . S
O335 C327 1.249 . S
Mg336 O337 2.028 . S
Mg336 O343 1.986 . S
Mg336 O345 2.114 . S
Mg336 O346 2.251 . S
Mg336 O349 2.010 . S
O337 Mg336 2.028 . S
O337 C340 1.250 . S
O338 Mg339 2.028 . S
O338 C340 1.248 . S
Mg339 O338 2.028 . S
Mg339 O344 2.032 . S
Mg339 O346 2.079 . S
C340 O337 1.250 . S
C340 O338 1.248 . S
C341 O342 1.264 . S
C341 O349 1.249 . S
O342 C341 1.264 . S
O343 Mg336 1.986 . S
O343 C347 1.246 . S
O344 Mg339 2.032 . S
O344 C347 1.259 . S
O345 Mg336 2.114 . S
O345 C348 1.252 . S
O346 Mg336 2.251 . S
O346 Mg339 2.079 . S
O346 C348 1.273 . S
C347 O343 1.246 . S
C347 O344 1.259 . S
C348 O345 1.252 . S
C348 O346 1.273 . S
O349 Mg336 2.010 . S
O349 C341 1.249 . S
Mg350 O351 2.028 . S
Mg350 O357 1.986 . S
Mg350 O359 2.114 . S
Mg350 O360 2.251 . S
Mg350 O363 2.010 . S
O351 Mg350 2.028 . S
O351 C354 1.250 . S
O352 Mg353 2.028 . S
O352 C354 1.248 . S
Mg353 O352 2.028 . S
Mg353 O358 2.032 . S
Mg353 O360 2.079 . S
C354 O351 1.250 . S
C354 O352 1.248 . S
C355 O356 1.264 . S
C355 O363 1.249 . S
O356 C355 1.264 . S
O357 Mg350 1.986 . S
O357 C361 1.246 . S
O358 Mg353 2.032 . S
O358 C361 1.259 . S
O359 Mg350 2.114 . S
O359 C362 1.252 . S
O360 Mg350 2.251 . S
O360 Mg353 2.079 . S
O360 C362 1.273 . S
C361 O357 1.246 . S
C361 O358 1.259 . S
C362 O359 1.252 . S
C362 O360 1.273 . S
O363 Mg350 2.010 . S
O363 C355 1.249 . S
Mg364 O365 2.028 . S
Mg364 O371 1.986 . S
Mg364 O373 2.114 . S
Mg364 O374 2.251 . S
Mg364 O377 2.010 . S
O365 Mg364 2.028 . S
O365 C368 1.250 . S
O366 Mg367 2.028 . S
O366 C368 1.248 . S
Mg367 O366 2.028 . S
Mg367 O372 2.032 . S
Mg367 O374 2.079 . S
C368 O365 1.250 . S
C368 O366 1.248 . S
C369 O370 1.264 . S
C369 O377 1.249 . S
O370 C369 1.264 . S
O371 Mg364 1.986 . S
O371 C375 1.246 . S
O372 Mg367 2.032 . S
O372 C375 1.259 . S
O373 Mg364 2.114 . S
O373 C376 1.252 . S
O374 Mg364 2.251 . S
O374 Mg367 2.079 . S
O374 C376 1.273 . S
C375 O371 1.246 . S
C375 O372 1.259 . S
C376 O373 1.252 . S
C376 O374 1.273 . S
O377 Mg364 2.010 . S
O377 C369 1.249 . S
Mg378 O379 2.028 . S
Mg378 O385 1.986 . S
Mg378 O387 2.114 1_455 S
Mg378 O388 2.251 1_455 S
Mg378 O391 2.010 . S
O379 Mg378 2.028 . S
O379 C382 1.250 . S
O380 Mg381 2.028 1_455 S
O380 C382 1.248 . S
Mg381 O380 2.028 1_655 S
Mg381 O386 2.032 1_655 S
Mg381 O388 2.079 . S
C382 O379 1.250 . S
C382 O380 1.248 . S
C383 O384 1.264 . S
C383 O391 1.249 . S
O384 C383 1.264 . S
O385 Mg378 1.986 . S
O385 C389 1.246 . S
O386 Mg381 2.032 1_455 S
O386 C389 1.259 . S
O387 Mg378 2.114 1_655 S
O387 C390 1.252 . S
O388 Mg378 2.251 1_655 S
O388 Mg381 2.079 . S
O388 C390 1.273 . S
C389 O385 1.246 . S
C389 O386 1.259 . S
C390 O387 1.252 . S
C390 O388 1.273 . S
O391 Mg378 2.010 . S
O391 C383 1.249 . S
Mg392 O393 2.028 . S
Mg392 O399 1.986 . S
Mg392 O401 2.114 . S
Mg392 O402 2.251 . S
Mg392 O405 2.010 . S
O393 Mg392 2.028 . S
O393 C396 1.250 . S
O394 Mg395 2.028 . S
O394 C396 1.248 . S
Mg395 O394 2.028 . S
Mg395 O400 2.032 . S
Mg395 O402 2.079 . S
C396 O393 1.250 . S
C396 O394 1.248 . S
C397 O398 1.264 . S
C397 O405 1.249 . S
O398 C397 1.264 . S
O399 Mg392 1.986 . S
O399 C403 1.246 . S
O400 Mg395 2.032 . S
O400 C403 1.259 . S
O401 Mg392 2.114 . S
O401 C404 1.252 . S
O402 Mg392 2.251 . S
O402 Mg395 2.079 . S
O402 C404 1.273 . S
C403 O399 1.246 . S
C403 O400 1.259 . S
C404 O401 1.252 . S
C404 O402 1.273 . S
O405 Mg392 2.010 . S
O405 C397 1.249 . S
Mg406 O407 2.028 . S
Mg406 O413 1.986 . S
Mg406 O415 2.114 1_455 S
Mg406 O416 2.251 1_455 S
Mg406 O419 2.010 . S
O407 Mg406 2.028 . S
O407 C410 1.250 . S
O408 Mg409 2.028 1_455 S
O408 C410 1.248 . S
Mg409 O408 2.028 1_655 S
Mg409 O414 2.032 1_655 S
Mg409 O416 2.079 . S
C410 O407 1.250 . S
C410 O408 1.248 . S
C411 O412 1.264 . S
C411 O419 1.249 . S
O412 C411 1.264 . S
O413 Mg406 1.986 . S
O413 C417 1.246 . S
O414 Mg409 2.032 1_455 S
O414 C417 1.259 . S
O415 Mg406 2.114 1_655 S
O415 C418 1.252 . S
O416 Mg406 2.251 1_655 S
O416 Mg409 2.079 . S
O416 C418 1.273 . S
C417 O413 1.246 . S
C417 O414 1.259 . S
C418 O415 1.252 . S
C418 O416 1.273 . S
O419 Mg406 2.010 . S
O419 C411 1.249 . S
Mg420 O421 2.028 . S
Mg420 O427 1.986 . S
Mg420 O429 2.114 . S
Mg420 O430 2.251 . S
Mg420 O433 2.010 . S
O421 Mg420 2.028 . S
O421 C424 1.250 . S
O422 Mg423 2.028 . S
O422 C424 1.248 . S
Mg423 O422 2.028 . S
Mg423 O428 2.032 . S
Mg423 O430 2.079 . S
C424 O421 1.250 . S
C424 O422 1.248 . S
C425 O426 1.264 . S
C425 O433 1.249 . S
O426 C425 1.264 . S
O427 Mg420 1.986 . S
O427 C431 1.246 . S
O428 Mg423 2.032 . S
O428 C431 1.259 . S
O429 Mg420 2.114 . S
O429 C432 1.252 . S
O430 Mg420 2.251 . S
O430 Mg423 2.079 . S
O430 C432 1.273 . S
C431 O427 1.246 . S
C431 O428 1.259 . S
C432 O429 1.252 . S
C432 O430 1.273 . S
O433 Mg420 2.010 . S
O433 C425 1.249 . S
Mg434 O435 2.028 . S
Mg434 O441 1.986 . S
Mg434 O443 2.114 . S
Mg434 O444 2.251 . S
Mg434 O447 2.010 . S
O435 Mg434 2.028 . S
O435 C438 1.250 . S
O436 Mg437 2.028 . S
O436 C438 1.248 . S
Mg437 O436 2.028 . S
Mg437 O442 2.032 . S
Mg437 O444 2.079 . S
C438 O435 1.250 . S
C438 O436 1.248 . S
C439 O440 1.264 . S
C439 O447 1.249 . S
O440 C439 1.264 . S
O441 Mg434 1.986 . S
O441 C445 1.246 . S
O442 Mg437 2.032 . S
O442 C445 1.259 . S
O443 Mg434 2.114 . S
O443 C446 1.252 . S
O444 Mg434 2.251 . S
O444 Mg437 2.079 . S
O444 C446 1.273 . S
C445 O441 1.246 . S
C445 O442 1.259 . S
C446 O443 1.252 . S
C446 O444 1.273 . S
O447 Mg434 2.010 . S
O447 C439 1.249 . S
C448 C449 1.369 . S
C448 C450 1.419 . S
C448 H452 0.930 . S
C449 C448 1.369 . S
C449 C458 1.429 . S
C450 C448 1.419 . S
C450 C451 1.363 . S
C450 H453 0.929 . S
C451 C450 1.363 . S
C451 C457 1.428 . S
H452 C448 0.930 . S
H453 C450 0.929 . S
S454 N455 1.613 . S
S454 N456 1.610 . S
N455 S454 1.613 . S
N455 C458 1.350 . S
N456 S454 1.610 . S
N456 C457 1.351 . S
C457 C451 1.428 . S
C457 N456 1.351 . S
C457 C458 1.434 . S
C458 C449 1.429 . S
C458 N455 1.350 . S
C458 C457 1.434 . S
C459 C460 1.369 . S
C459 C461 1.419 . S
C459 H463 0.930 . S
C460 C459 1.369 . S
C460 C469 1.429 . S
C461 C459 1.419 . S
C461 C462 1.363 . S
C461 H464 0.929 . S
C462 C461 1.363 . S
C462 C468 1.428 . S
H463 C459 0.930 . S
H464 C461 0.929 . S
S465 N466 1.613 . S
S465 N467 1.610 . S
N466 S465 1.613 . S
N466 C469 1.350 . S
N467 S465 1.610 . S
N467 C468 1.351 . S
C468 C462 1.428 . S
C468 N467 1.351 . S
C468 C469 1.434 . S
C469 C460 1.429 . S
C469 N466 1.350 . S
C469 C468 1.434 . S
C470 C471 1.369 . S
C470 C472 1.419 . S
C470 H474 0.930 . S
C471 C470 1.369 . S
C471 C480 1.429 . S
C472 C470 1.419 . S
C472 C473 1.363 . S
C472 H475 0.929 . S
C473 C472 1.363 . S
C473 C479 1.428 . S
H474 C470 0.930 . S
H475 C472 0.929 . S
S476 N477 1.613 . S
S476 N478 1.610 . S
N477 S476 1.613 . S
N477 C480 1.350 . S
N478 S476 1.610 . S
N478 C479 1.351 . S
C479 C473 1.428 . S
C479 N478 1.351 . S
C479 C480 1.434 . S
C480 C471 1.429 . S
C480 N477 1.350 . S
C480 C479 1.434 . S
C481 C482 1.369 . S
C481 C483 1.419 . S
C481 H485 0.930 . S
C482 C481 1.369 . S
C482 C491 1.429 . S
C483 C481 1.419 . S
C483 C484 1.363 . S
C483 H486 0.929 . S
C484 C483 1.363 . S
C484 C490 1.428 . S
H485 C481 0.930 . S
H486 C483 0.929 . S
S487 N488 1.613 . S
S487 N489 1.610 . S
N488 S487 1.613 . S
N488 C491 1.350 . S
N489 S487 1.610 . S
N489 C490 1.351 . S
C490 C484 1.428 . S
C490 N489 1.351 . S
C490 C491 1.434 . S
C491 C482 1.429 . S
C491 N488 1.350 . S
C491 C490 1.434 . S
C492 C493 1.369 . S
C492 C494 1.419 . S
C492 H496 0.930 . S
C493 C492 1.369 . S
C493 C502 1.429 . S
C494 C492 1.419 . S
C494 C495 1.363 . S
C494 H497 0.929 . S
C495 C494 1.363 . S
C495 C501 1.428 . S
H496 C492 0.930 . S
H497 C494 0.929 . S
S498 N499 1.613 . S
S498 N500 1.610 . S
N499 S498 1.613 . S
N499 C502 1.350 . S
N500 S498 1.610 . S
N500 C501 1.351 . S
C501 C495 1.428 . S
C501 N500 1.351 . S
C501 C502 1.434 . S
C502 C493 1.429 . S
C502 N499 1.350 . S
C502 C501 1.434 . S
C503 C504 1.369 . S
C503 C505 1.419 . S
C503 H507 0.930 . S
C504 C503 1.369 . S
C504 C513 1.429 . S
C505 C503 1.419 . S
C505 C506 1.363 . S
C505 H508 0.929 . S
C506 C505 1.363 . S
C506 C512 1.428 . S
H507 C503 0.930 . S
H508 C505 0.929 . S
S509 N510 1.613 . S
S509 N511 1.610 . S
N510 S509 1.613 . S
N510 C513 1.350 . S
N511 S509 1.610 . S
N511 C512 1.351 . S
C512 C506 1.428 . S
C512 N511 1.351 . S
C512 C513 1.434 . S
C513 C504 1.429 . S
C513 N510 1.350 . S
C513 C512 1.434 . S
C514 C515 1.369 . S
C514 C516 1.419 . S
C514 H518 0.930 . S
C515 C514 1.369 . S
C515 C524 1.429 . S
C516 C514 1.419 . S
C516 C517 1.363 . S
C516 H519 0.929 . S
C517 C516 1.363 . S
C517 C523 1.428 . S
H518 C514 0.930 . S
H519 C516 0.929 . S
S520 N521 1.613 . S
S520 N522 1.610 . S
N521 S520 1.613 . S
N521 C524 1.350 . S
N522 S520 1.610 . S
N522 C523 1.351 . S
C523 C517 1.428 . S
C523 N522 1.351 . S
C523 C524 1.434 . S
C524 C515 1.429 . S
C524 N521 1.350 . S
C524 C523 1.434 . S
C525 C526 1.369 . S
C525 C527 1.419 . S
C525 H529 0.930 . S
C526 C525 1.369 . S
C526 C535 1.429 . S
C527 C525 1.419 . S
C527 C528 1.363 . S
C527 H530 0.929 . S
C528 C527 1.363 . S
C528 C534 1.428 . S
H529 C525 0.930 . S
H530 C527 0.929 . S
S531 N532 1.613 . S
S531 N533 1.610 . S
N532 S531 1.613 . S
N532 C535 1.350 . S
N533 S531 1.610 . S
N533 C534 1.351 . S
C534 C528 1.428 . S
C534 N533 1.351 . S
C534 C535 1.434 . S
C535 C526 1.429 . S
C535 N532 1.350 . S
C535 C534 1.434 . S
C536 C537 1.369 . S
C536 C538 1.419 . S
C536 H540 0.930 . S
C537 C536 1.369 . S
C537 C546 1.429 . S
C538 C536 1.419 . S
C538 C539 1.363 . S
C538 H541 0.929 . S
C539 C538 1.363 . S
C539 C545 1.428 . S
H540 C536 0.930 . S
H541 C538 0.929 . S
S542 N543 1.613 . S
S542 N544 1.610 . S
N543 S542 1.613 . S
N543 C546 1.350 . S
N544 S542 1.610 . S
N544 C545 1.351 . S
C545 C539 1.428 . S
C545 N544 1.351 . S
C545 C546 1.434 . S
C546 C537 1.429 . S
C546 N543 1.350 . S
C546 C545 1.434 . S
C547 C548 1.369 . S
C547 C549 1.419 . S
C547 H551 0.930 . S
C548 C547 1.369 . S
C548 C557 1.429 . S
C549 C547 1.419 . S
C549 C550 1.363 . S
C549 H552 0.929 . S
C550 C549 1.363 . S
C550 C556 1.428 . S
H551 C547 0.930 . S
H552 C549 0.929 . S
S553 N554 1.613 . S
S553 N555 1.610 . S
N554 S553 1.613 . S
N554 C557 1.350 . S
N555 S553 1.610 . S
N555 C556 1.351 . S
C556 C550 1.428 . S
C556 N555 1.351 . S
C556 C557 1.434 . S
C557 C548 1.429 . S
C557 N554 1.350 . S
C557 C556 1.434 . S
C558 C559 1.369 . S
C558 C560 1.419 . S
C558 H562 0.930 . S
C559 C558 1.369 . S
C559 C568 1.429 . S
C560 C558 1.419 . S
C560 C561 1.363 . S
C560 H563 0.929 . S
C561 C560 1.363 . S
C561 C567 1.428 . S
H562 C558 0.930 . S
H563 C560 0.929 . S
S564 N565 1.613 . S
S564 N566 1.610 . S
N565 S564 1.613 . S
N565 C568 1.350 . S
N566 S564 1.610 . S
N566 C567 1.351 . S
C567 C561 1.428 . S
C567 N566 1.351 . S
C567 C568 1.434 . S
C568 C559 1.429 . S
C568 N565 1.350 . S
C568 C567 1.434 . S
C569 C570 1.369 . S
C569 C571 1.419 . S
C569 H573 0.930 . S
C570 C569 1.369 . S
C570 C579 1.429 . S
C571 C569 1.419 . S
C571 C572 1.363 . S
C571 H574 0.929 . S
C572 C571 1.363 . S
C572 C578 1.428 . S
H573 C569 0.930 . S
H574 C571 0.929 . S
S575 N576 1.613 . S
S575 N577 1.610 . S
N576 S575 1.613 . S
N576 C579 1.350 . S
N577 S575 1.610 . S
N577 C578 1.351 . S
C578 C572 1.428 . S
C578 N577 1.351 . S
C578 C579 1.434 . S
C579 C570 1.429 . S
C579 N576 1.350 . S
C579 C578 1.434 . S
C580 C581 1.369 . S
C580 C582 1.419 . S
C580 H584 0.930 . S
C581 C580 1.369 . S
C581 C590 1.429 . S
C582 C580 1.419 . S
C582 C583 1.363 . S
C582 H585 0.929 . S
C583 C582 1.363 . S
C583 C589 1.428 . S
H584 C580 0.930 . S
H585 C582 0.929 . S
S586 N587 1.613 . S
S586 N588 1.610 . S
N587 S586 1.613 . S
N587 C590 1.350 . S
N588 S586 1.610 . S
N588 C589 1.351 . S
C589 C583 1.428 . S
C589 N588 1.351 . S
C589 C590 1.434 . S
C590 C581 1.429 . S
C590 N587 1.350 . S
C590 C589 1.434 . S
C591 C592 1.369 . S
C591 C593 1.419 . S
C591 H595 0.930 . S
C592 C591 1.369 . S
C592 C601 1.429 . S
C593 C591 1.419 . S
C593 C594 1.363 . S
C593 H596 0.929 . S
C594 C593 1.363 . S
C594 C600 1.428 . S
H595 C591 0.930 . S
H596 C593 0.929 . S
S597 N598 1.613 . S
S597 N599 1.610 . S
N598 S597 1.613 . S
N598 C601 1.350 . S
N599 S597 1.610 . S
N599 C600 1.351 . S
C600 C594 1.428 . S
C600 N599 1.351 . S
C600 C601 1.434 . S
C601 C592 1.429 . S
C601 N598 1.350 . S
C601 C600 1.434 . S
C602 C603 1.369 . S
C602 C604 1.419 . S
C602 H606 0.930 . S
C603 C602 1.369 . S
C603 C612 1.429 . S
C604 C602 1.419 . S
C604 C605 1.363 . S
C604 H607 0.929 . S
C605 C604 1.363 . S
C605 C611 1.428 . S
H606 C602 0.930 . S
H607 C604 0.929 . S
S608 N609 1.613 . S
S608 N610 1.610 . S
N609 S608 1.613 . S
N609 C612 1.350 . S
N610 S608 1.610 . S
N610 C611 1.351 . S
C611 C605 1.428 . S
C611 N610 1.351 . S
C611 C612 1.434 . S
C612 C603 1.429 . S
C612 N609 1.350 . S
C612 C611 1.434 . S
C613 C614 1.369 . S
C613 C615 1.419 . S
C613 H617 0.930 . S
C614 C613 1.369 . S
C614 C623 1.429 . S
C615 C613 1.419 . S
C615 C616 1.363 . S
C615 H618 0.929 . S
C616 C615 1.363 . S
C616 C622 1.428 . S
H617 C613 0.930 . S
H618 C615 0.929 . S
S619 N620 1.613 . S
S619 N621 1.610 . S
N620 S619 1.613 . S
N620 C623 1.350 . S
N621 S619 1.610 . S
N621 C622 1.351 . S
C622 C616 1.428 . S
C622 N621 1.351 . S
C622 C623 1.434 . S
C623 C614 1.429 . S
C623 N620 1.350 . S
C623 C622 1.434 . S
C624 C625 1.369 . S
C624 C626 1.419 . S
C624 H628 0.930 . S
C625 C624 1.369 . S
C625 C634 1.429 . S
C626 C624 1.419 . S
C626 C627 1.363 . S
C626 H629 0.929 . S
C627 C626 1.363 . S
C627 C633 1.428 . S
H628 C624 0.930 . S
H629 C626 0.929 . S
S630 N631 1.613 . S
S630 N632 1.610 . S
N631 S630 1.613 . S
N631 C634 1.350 . S
N632 S630 1.610 . S
N632 C633 1.351 . S
C633 C627 1.428 . S
C633 N632 1.351 . S
C633 C634 1.434 . S
C634 C625 1.429 . S
C634 N631 1.350 . S
C634 C633 1.434 . S
C635 C636 1.369 . S
C635 C637 1.419 . S
C635 H639 0.930 . S
C636 C635 1.369 . S
C636 C645 1.429 . S
C637 C635 1.419 . S
C637 C638 1.363 . S
C637 H640 0.929 . S
C638 C637 1.363 . S
C638 C644 1.428 . S
H639 C635 0.930 . S
H640 C637 0.929 . S
S641 N642 1.613 . S
S641 N643 1.610 . S
N642 S641 1.613 . S
N642 C645 1.350 . S
N643 S641 1.610 . S
N643 C644 1.351 . S
C644 C638 1.428 . S
C644 N643 1.351 . S
C644 C645 1.434 . S
C645 C636 1.429 . S
C645 N642 1.350 . S
C645 C644 1.434 . S
C646 C647 1.369 . S
C646 C648 1.419 . S
C646 H650 0.930 . S
C647 C646 1.369 . S
C647 C656 1.429 . S
C648 C646 1.419 . S
C648 C649 1.363 . S
C648 H651 0.929 . S
C649 C648 1.363 . S
C649 C655 1.428 . S
H650 C646 0.930 . S
H651 C648 0.929 . S
S652 N653 1.613 . S
S652 N654 1.610 . S
N653 S652 1.613 . S
N653 C656 1.350 . S
N654 S652 1.610 . S
N654 C655 1.351 . S
C655 C649 1.428 . S
C655 N654 1.351 . S
C655 C656 1.434 . S
C656 C647 1.429 . S
C656 N653 1.350 . S
C656 C655 1.434 . S
C657 C658 1.369 . S
C657 C659 1.419 . S
C657 H661 0.930 . S
C658 C657 1.369 . S
C658 C667 1.429 . S
C659 C657 1.419 . S
C659 C660 1.363 . S
C659 H662 0.929 . S
C660 C659 1.363 . S
C660 C666 1.428 . S
H661 C657 0.930 . S
H662 C659 0.929 . S
S663 N664 1.613 . S
S663 N665 1.610 . S
N664 S663 1.613 . S
N664 C667 1.350 . S
N665 S663 1.610 . S
N665 C666 1.351 . S
C666 C660 1.428 . S
C666 N665 1.351 . S
C666 C667 1.434 . S
C667 C658 1.429 . S
C667 N664 1.350 . S
C667 C666 1.434 . S
C668 C669 1.369 . S
C668 C670 1.419 . S
C668 H672 0.930 . S
C669 C668 1.369 . S
C669 C678 1.429 . S
C670 C668 1.419 . S
C670 C671 1.363 . S
C670 H673 0.929 . S
C671 C670 1.363 . S
C671 C677 1.428 . S
H672 C668 0.930 . S
H673 C670 0.929 . S
S674 N675 1.613 . S
S674 N676 1.610 . S
N675 S674 1.613 . S
N675 C678 1.350 . S
N676 S674 1.610 . S
N676 C677 1.351 . S
C677 C671 1.428 . S
C677 N676 1.351 . S
C677 C678 1.434 . S
C678 C669 1.429 . S
C678 N675 1.350 . S
C678 C677 1.434 . S
C679 C680 1.369 . S
C679 C681 1.419 . S
C679 H683 0.930 . S
C680 C679 1.369 . S
C680 C689 1.429 . S
C681 C679 1.419 . S
C681 C682 1.363 . S
C681 H684 0.929 . S
C682 C681 1.363 . S
C682 C688 1.428 . S
H683 C679 0.930 . S
H684 C681 0.929 . S
S685 N686 1.613 . S
S685 N687 1.610 . S
N686 S685 1.613 . S
N686 C689 1.350 . S
N687 S685 1.610 . S
N687 C688 1.351 . S
C688 C682 1.428 . S
C688 N687 1.351 . S
C688 C689 1.434 . S
C689 C680 1.429 . S
C689 N686 1.350 . S
C689 C688 1.434 . S
C690 C691 1.369 . S
C690 C692 1.419 . S
C690 H694 0.930 . S
C691 C690 1.369 . S
C691 C700 1.429 . S
C692 C690 1.419 . S
C692 C693 1.363 . S
C692 H695 0.929 . S
C693 C692 1.363 . S
C693 C699 1.428 . S
H694 C690 0.930 . S
H695 C692 0.929 . S
S696 N697 1.613 . S
S696 N698 1.610 . S
N697 S696 1.613 . S
N697 C700 1.350 . S
N698 S696 1.610 . S
N698 C699 1.351 . S
C699 C693 1.428 . S
C699 N698 1.351 . S
C699 C700 1.434 . S
C700 C691 1.429 . S
C700 N697 1.350 . S
C700 C699 1.434 . S
C701 C702 1.369 . S
C701 C703 1.419 . S
C701 H705 0.930 . S
C702 C701 1.369 . S
C702 C711 1.429 . S
C703 C701 1.419 . S
C703 C704 1.363 . S
C703 H706 0.929 . S
C704 C703 1.363 . S
C704 C710 1.428 . S
H705 C701 0.930 . S
H706 C703 0.929 . S
S707 N708 1.613 . S
S707 N709 1.610 . S
N708 S707 1.613 . S
N708 C711 1.350 . S
N709 S707 1.610 . S
N709 C710 1.351 . S
C710 C704 1.428 . S
C710 N709 1.351 . S
C710 C711 1.434 . S
C711 C702 1.429 . S
C711 N708 1.350 . S
C711 C710 1.434 . S
C712 C713 1.369 . S
C712 C714 1.419 . S
C712 H716 0.930 . S
C713 C712 1.369 . S
C713 C722 1.429 . S
C714 C712 1.419 . S
C714 C715 1.363 . S
C714 H717 0.929 . S
C715 C714 1.363 . S
C715 C721 1.428 . S
H716 C712 0.930 . S
H717 C714 0.929 . S
S718 N719 1.613 . S
S718 N720 1.610 . S
N719 S718 1.613 . S
N719 C722 1.350 . S
N720 S718 1.610 . S
N720 C721 1.351 . S
C721 C715 1.428 . S
C721 N720 1.351 . S
C721 C722 1.434 . S
C722 C713 1.429 . S
C722 N719 1.350 . S
C722 C721 1.434 . S
C723 C724 1.369 . S
C723 C725 1.419 . S
C723 H727 0.930 . S
C724 C723 1.369 . S
C724 C733 1.429 . S
C725 C723 1.419 . S
C725 C726 1.363 . S
C725 H728 0.929 . S
C726 C725 1.363 . S
C726 C732 1.428 . S
H727 C723 0.930 . S
H728 C725 0.929 . S
S729 N730 1.613 . S
S729 N731 1.610 . S
N730 S729 1.613 . S
N730 C733 1.350 . S
N731 S729 1.610 . S
N731 C732 1.351 . S
C732 C726 1.428 . S
C732 N731 1.351 . S
C732 C733 1.434 . S
C733 C724 1.429 . S
C733 N730 1.350 . S
C733 C732 1.434 . S
C734 C735 1.369 . S
C734 C736 1.419 . S
C734 H738 0.930 . S
C735 C734 1.369 . S
C735 C744 1.429 . S
C736 C734 1.419 . S
C736 C737 1.363 . S
C736 H739 0.929 . S
C737 C736 1.363 . S
C737 C743 1.428 . S
H738 C734 0.930 . S
H739 C736 0.929 . S
S740 N741 1.613 . S
S740 N742 1.610 . S
N741 S740 1.613 . S
N741 C744 1.350 . S
N742 S740 1.610 . S
N742 C743 1.351 . S
C743 C737 1.428 . S
C743 N742 1.351 . S
C743 C744 1.434 . S
C744 C735 1.429 . S
C744 N741 1.350 . S
C744 C743 1.434 . S
C745 C746 1.369 . S
C745 C747 1.419 . S
C745 H749 0.930 . S
C746 C745 1.369 . S
C746 C755 1.429 . S
C747 C745 1.419 . S
C747 C748 1.363 . S
C747 H750 0.929 . S
C748 C747 1.363 . S
C748 C754 1.428 . S
H749 C745 0.930 . S
H750 C747 0.929 . S
S751 N752 1.613 . S
S751 N753 1.610 . S
N752 S751 1.613 . S
N752 C755 1.350 . S
N753 S751 1.610 . S
N753 C754 1.351 . S
C754 C748 1.428 . S
C754 N753 1.351 . S
C754 C755 1.434 . S
C755 C746 1.429 . S
C755 N752 1.350 . S
C755 C754 1.434 . S
C756 C757 1.369 . S
C756 C758 1.419 . S
C756 H760 0.930 . S
C757 C756 1.369 . S
C757 C766 1.429 . S
C758 C756 1.419 . S
C758 C759 1.363 . S
C758 H761 0.929 . S
C759 C758 1.363 . S
C759 C765 1.428 . S
H760 C756 0.930 . S
H761 C758 0.929 . S
S762 N763 1.613 . S
S762 N764 1.610 . S
N763 S762 1.613 . S
N763 C766 1.350 . S
N764 S762 1.610 . S
N764 C765 1.351 . S
C765 C759 1.428 . S
C765 N764 1.351 . S
C765 C766 1.434 . S
C766 C757 1.429 . S
C766 N763 1.350 . S
C766 C765 1.434 . S
C767 C768 1.369 . S
C767 C769 1.419 . S
C767 H771 0.930 . S
C768 C767 1.369 . S
C768 C777 1.429 . S
C769 C767 1.419 . S
C769 C770 1.363 . S
C769 H772 0.929 . S
C770 C769 1.363 . S
C770 C776 1.428 . S
H771 C767 0.930 . S
H772 C769 0.929 . S
S773 N774 1.613 . S
S773 N775 1.610 . S
N774 S773 1.613 . S
N774 C777 1.350 . S
N775 S773 1.610 . S
N775 C776 1.351 . S
C776 C770 1.428 . S
C776 N775 1.351 . S
C776 C777 1.434 . S
C777 C768 1.429 . S
C777 N774 1.350 . S
C777 C776 1.434 . S
C778 C779 1.369 . S
C778 C780 1.419 . S
C778 H782 0.930 . S
C779 C778 1.369 . S
C779 C788 1.429 . S
C780 C778 1.419 . S
C780 C781 1.363 . S
C780 H783 0.929 . S
C781 C780 1.363 . S
C781 C787 1.428 . S
H782 C778 0.930 . S
H783 C780 0.929 . S
S784 N785 1.613 . S
S784 N786 1.610 . S
N785 S784 1.613 . S
N785 C788 1.350 . S
N786 S784 1.610 . S
N786 C787 1.351 . S
C787 C781 1.428 . S
C787 N786 1.351 . S
C787 C788 1.434 . S
C788 C779 1.429 . S
C788 N785 1.350 . S
C788 C787 1.434 . S
C789 C790 1.369 . S
C789 C791 1.419 . S
C789 H793 0.930 . S
C790 C789 1.369 . S
C790 C799 1.429 . S
C791 C789 1.419 . S
C791 C792 1.363 . S
C791 H794 0.929 . S
C792 C791 1.363 . S
C792 C798 1.428 . S
H793 C789 0.930 . S
H794 C791 0.929 . S
S795 N796 1.613 . S
S795 N797 1.610 . S
N796 S795 1.613 . S
N796 C799 1.350 . S
N797 S795 1.610 . S
N797 C798 1.351 . S
C798 C792 1.428 . S
C798 N797 1.351 . S
C798 C799 1.434 . S
C799 C790 1.429 . S
C799 N796 1.350 . S
C799 C798 1.434 . S
C800 C801 1.369 . S
C800 C802 1.419 . S
C800 H804 0.930 . S
C801 C800 1.369 . S
C801 C810 1.429 . S
C802 C800 1.419 . S
C802 C803 1.363 . S
C802 H805 0.929 . S
C803 C802 1.363 . S
C803 C809 1.428 . S
H804 C800 0.930 . S
H805 C802 0.929 . S
S806 N807 1.613 . S
S806 N808 1.610 . S
N807 S806 1.613 . S
N807 C810 1.350 . S
N808 S806 1.610 . S
N808 C809 1.351 . S
C809 C803 1.428 . S
C809 N808 1.351 . S
C809 C810 1.434 . S
C810 C801 1.429 . S
C810 N807 1.350 . S
C810 C809 1.434 . S
C811 C812 1.369 1_645 S
C811 C813 1.419 . S
C811 H815 0.930 . S
C812 C811 1.369 1_465 S
C812 C821 1.429 . S
C813 C811 1.419 . S
C813 C814 1.363 . S
C813 H816 0.929 . S
C814 C813 1.363 . S
C814 C820 1.428 1_645 S
H815 C811 0.930 . S
H816 C813 0.929 . S
S817 N818 1.613 . S
S817 N819 1.610 . S
N818 S817 1.613 . S
N818 C821 1.350 . S
N819 S817 1.610 . S
N819 C820 1.351 . S
C820 C814 1.428 1_465 S
C820 N819 1.351 . S
C820 C821 1.434 . S
C821 C812 1.429 . S
C821 N818 1.350 . S
C821 C820 1.434 . S
C822 C823 1.369 . S
C822 C824 1.419 . S
C822 H826 0.930 . S
C823 C822 1.369 . S
C823 C832 1.429 . S
C824 C822 1.419 . S
C824 C825 1.363 . S
C824 H827 0.929 . S
C825 C824 1.363 . S
C825 C831 1.428 . S
H826 C822 0.930 . S
H827 C824 0.929 . S
S828 N829 1.613 . S
S828 N830 1.610 . S
N829 S828 1.613 . S
N829 C832 1.350 . S
N830 S828 1.610 . S
N830 C831 1.351 . S
C831 C825 1.428 . S
C831 N830 1.351 . S
C831 C832 1.434 . S
C832 C823 1.429 . S
C832 N829 1.350 . S
C832 C831 1.434 . S
C833 C834 1.369 1_565 S
C833 C835 1.419 1_554 S
C833 H837 0.930 . S
C834 C833 1.369 1_545 S
C834 C843 1.429 . S
C835 C833 1.419 1_556 S
C835 C836 1.363 . S
C835 H838 0.929 . S
C836 C835 1.363 . S
C836 C842 1.428 1_565 S
H837 C833 0.930 . S
H838 C835 0.929 . S
S839 N840 1.613 . S
S839 N841 1.610 1_554 S
N840 S839 1.613 . S
N840 C843 1.350 . S
N841 S839 1.610 1_556 S
N841 C842 1.351 . S
C842 C836 1.428 1_545 S
C842 N841 1.351 . S
C842 C843 1.434 1_556 S
C843 C834 1.429 . S
C843 N840 1.350 . S
C843 C842 1.434 1_554 S
C844 C845 1.369 . S
C844 C846 1.419 . S
C844 H848 0.930 . S
C845 C844 1.369 . S
C845 C854 1.429 . S
C846 C844 1.419 . S
C846 C847 1.363 . S
C846 H849 0.929 . S
C847 C846 1.363 . S
C847 C853 1.428 . S
H848 C844 0.930 . S
H849 C846 0.929 . S
S850 N851 1.613 . S
S850 N852 1.610 . S
N851 S850 1.613 . S
N851 C854 1.350 . S
N852 S850 1.610 . S
N852 C853 1.351 . S
C853 C847 1.428 . S
C853 N852 1.351 . S
C853 C854 1.434 . S
C854 C845 1.429 . S
C854 N851 1.350 . S
C854 C853 1.434 . S
C855 C856 1.369 . S
C855 C857 1.419 . S
C855 H859 0.930 . S
C856 C855 1.369 . S
C856 C865 1.429 1_565 S
C857 C855 1.419 . S
C857 C858 1.363 1_565 S
C857 H860 0.929 . S
C858 C857 1.363 1_545 S
C858 C864 1.428 . S
H859 C855 0.930 . S
H860 C857 0.929 . S
S861 N862 1.613 . S
S861 N863 1.610 . S
N862 S861 1.613 . S
N862 C865 1.350 . S
N863 S861 1.610 . S
N863 C864 1.351 . S
C864 C858 1.428 . S
C864 N863 1.351 . S
C864 C865 1.434 . S
C865 C856 1.429 1_545 S
C865 N862 1.350 . S
C865 C864 1.434 . S
C866 C867 1.369 . S
C866 C868 1.419 . S
C866 H870 0.930 . S
C867 C866 1.369 . S
C867 C876 1.429 . S
C868 C866 1.419 . S
C868 C869 1.363 . S
C868 H871 0.929 . S
C869 C868 1.363 . S
C869 C875 1.428 . S
H870 C866 0.930 . S
H871 C868 0.929 . S
S872 N873 1.613 . S
S872 N874 1.610 . S
N873 S872 1.613 . S
N873 C876 1.350 . S
N874 S872 1.610 . S
N874 C875 1.351 . S
C875 C869 1.428 . S
C875 N874 1.351 . S
C875 C876 1.434 . S
C876 C867 1.429 . S
C876 N873 1.350 . S
C876 C875 1.434 . S
C877 C878 1.369 1_655 S
C877 C879 1.419 1_556 S
C877 H881 0.930 . S
C878 C877 1.369 1_455 S
C878 C887 1.429 1_545 S
C879 C877 1.419 1_554 S
C879 C880 1.363 1_545 S
C879 H882 0.929 . S
C880 C879 1.363 1_565 S
C880 C886 1.428 1_655 S
H881 C877 0.930 . S
H882 C879 0.929 . S
S883 N884 1.613 . S
S883 N885 1.610 1_556 S
N884 S883 1.613 . S
N884 C887 1.350 . S
N885 S883 1.610 1_554 S
N885 C886 1.351 . S
C886 C880 1.428 1_455 S
C886 N885 1.351 . S
C886 C887 1.434 1_554 S
C887 C878 1.429 1_565 S
C887 N884 1.350 . S
C887 C886 1.434 1_556 S
C888 C889 1.369 . S
C888 C890 1.419 . S
C888 H892 0.930 . S
C889 C888 1.369 . S
C889 C898 1.429 . S
C890 C888 1.419 . S
C890 C891 1.363 . S
C890 H893 0.929 . S
C891 C890 1.363 . S
C891 C897 1.428 . S
H892 C888 0.930 . S
H893 C890 0.929 . S
S894 N895 1.613 . S
S894 N896 1.610 . S
N895 S894 1.613 . S
N895 C898 1.350 . S
N896 S894 1.610 . S
N896 C897 1.351 . S
C897 C891 1.428 . S
C897 N896 1.351 . S
C897 C898 1.434 . S
C898 C889 1.429 . S
C898 N895 1.350 . S
C898 C897 1.434 . S
C899 C900 1.369 . S
C899 C901 1.419 . S
C899 H903 0.930 . S
C900 C899 1.369 . S
C900 C909 1.429 . S
C901 C899 1.419 . S
C901 C902 1.363 . S
C901 H904 0.929 . S
C902 C901 1.363 . S
C902 C908 1.428 . S
H903 C899 0.930 . S
H904 C901 0.929 . S
S905 N906 1.613 . S
S905 N907 1.610 . S
N906 S905 1.613 . S
N906 C909 1.350 . S
N907 S905 1.610 . S
N907 C908 1.351 . S
C908 C902 1.428 . S
C908 N907 1.351 . S
C908 C909 1.434 . S
C909 C900 1.429 . S
C909 N906 1.350 . S
C909 C908 1.434 . S
C910 C911 1.369 . S
C910 C912 1.419 . S
C910 H914 0.930 . S
C911 C910 1.369 . S
C911 C920 1.429 . S
C912 C910 1.419 . S
C912 C913 1.363 . S
C912 H915 0.929 . S
C913 C912 1.363 . S
C913 C919 1.428 . S
H914 C910 0.930 . S
H915 C912 0.929 . S
S916 N917 1.613 . S
S916 N918 1.610 . S
N917 S916 1.613 . S
N917 C920 1.350 . S
N918 S916 1.610 . S
N918 C919 1.351 . S
C919 C913 1.428 . S
C919 N918 1.351 . S
C919 C920 1.434 . S
C920 C911 1.429 . S
C920 N917 1.350 . S
C920 C919 1.434 . S
C921 C922 1.369 . S
C921 C923 1.419 . S
C921 H925 0.930 . S
C922 C921 1.369 . S
C922 C931 1.429 . S
C923 C921 1.419 . S
C923 C924 1.363 . S
C923 H926 0.929 . S
C924 C923 1.363 . S
C924 C930 1.428 . S
H925 C921 0.930 . S
H926 C923 0.929 . S
S927 N928 1.613 . S
S927 N929 1.610 . S
N928 S927 1.613 . S
N928 C931 1.350 . S
N929 S927 1.610 . S
N929 C930 1.351 . S
C930 C924 1.428 . S
C930 N929 1.351 . S
C930 C931 1.434 . S
C931 C922 1.429 . S
C931 N928 1.350 . S
C931 C930 1.434 . S
C932 C933 1.369 . S
C932 C934 1.419 1_554 S
C932 H936 0.930 . S
C933 C932 1.369 . S
C933 C942 1.429 . S
C934 C932 1.419 1_556 S
C934 C935 1.363 . S
C934 H937 0.929 . S
C935 C934 1.363 . S
C935 C941 1.428 . S
H936 C932 0.930 . S
H937 C934 0.929 . S
S938 N939 1.613 1_556 S
S938 N940 1.610 . S
N939 S938 1.613 1_554 S
N939 C942 1.350 . S
N940 S938 1.610 . S
N940 C941 1.351 . S
C941 C935 1.428 . S
C941 N940 1.351 . S
C941 C942 1.434 1_556 S
C942 C933 1.429 . S
C942 N939 1.350 . S
C942 C941 1.434 1_554 S
C943 C944 1.369 . S
C943 C945 1.419 1_455 S
C943 H947 0.930 . S
C944 C943 1.369 . S
C944 C953 1.429 . S
C945 C943 1.419 1_655 S
C945 C946 1.363 . S
C945 H948 0.929 . S
C946 C945 1.363 . S
C946 C952 1.428 . S
H947 C943 0.930 . S
H948 C945 0.929 . S
S949 N950 1.612 1_655 S
S949 N951 1.612 . S
N950 S949 1.612 1_455 S
N950 C953 1.350 . S
N951 S949 1.612 . S
N951 C952 1.351 . S
C952 C946 1.428 . S
C952 N951 1.351 . S
C952 C953 1.434 1_655 S
C953 C944 1.429 . S
C953 N950 1.350 . S
C953 C952 1.434 1_455 S
C954 C955 1.369 . S
C954 C956 1.419 1_554 S
C954 H958 0.930 . S
C955 C954 1.369 . S
C955 C964 1.429 1_455 S
C956 C954 1.419 1_556 S
C956 C957 1.363 1_455 S
C956 H959 0.929 . S
C957 C956 1.363 1_655 S
C957 C963 1.428 . S
H958 C954 0.930 . S
H959 C956 0.929 . S
S960 N961 1.613 . S
S960 N962 1.610 1_554 S
N961 S960 1.613 . S
N961 C964 1.350 . S
N962 S960 1.610 1_556 S
N962 C963 1.351 . S
C963 C957 1.428 . S
C963 N962 1.351 . S
C963 C964 1.434 1_556 S
C964 C955 1.429 1_655 S
C964 N961 1.350 . S
C964 C963 1.434 1_554 S
C965 C966 1.369 . S
C965 C967 1.419 . S
C965 H969 0.930 . S
C966 C965 1.369 . S
C966 C975 1.429 . S
C967 C965 1.419 . S
C967 C968 1.363 . S
C967 H970 0.929 . S
C968 C967 1.363 . S
C968 C974 1.428 . S
H969 C965 0.930 . S
H970 C967 0.929 . S
S971 N972 1.613 . S
S971 N973 1.610 . S
N972 S971 1.613 . S
N972 C975 1.350 . S
N973 S971 1.610 . S
N973 C974 1.351 . S
C974 C968 1.428 . S
C974 N973 1.351 . S
C974 C975 1.434 . S
C975 C966 1.429 . S
C975 N972 1.350 . S
C975 C974 1.434 . S
C976 C977 1.369 . S
C976 C978 1.419 . S
C976 H980 0.930 . S
C977 C976 1.369 . S
C977 C986 1.429 . S
C978 C976 1.419 . S
C978 C979 1.363 . S
C978 H981 0.929 . S
C979 C978 1.363 . S
C979 C985 1.428 . S
H980 C976 0.930 . S
H981 C978 0.929 . S
S982 N983 1.613 . S
S982 N984 1.610 . S
N983 S982 1.613 . S
N983 C986 1.350 . S
N984 S982 1.610 . S
N984 C985 1.351 . S
C985 C979 1.428 . S
C985 N984 1.351 . S
C985 C986 1.434 . S
C986 C977 1.429 . S
C986 N983 1.350 . S
C986 C985 1.434 . S
C987 C988 1.369 . S
C987 C989 1.419 . S
C987 H991 0.930 . S
C988 C987 1.369 . S
C988 C997 1.429 . S
C989 C987 1.419 . S
C989 C990 1.363 . S
C989 H992 0.929 . S
C990 C989 1.363 . S
C990 C996 1.428 . S
H991 C987 0.930 . S
H992 C989 0.929 . S
S993 N994 1.613 . S
S993 N995 1.610 . S
N994 S993 1.613 . S
N994 C997 1.350 . S
N995 S993 1.610 . S
N995 C996 1.351 . S
C996 C990 1.428 . S
C996 N995 1.351 . S
C996 C997 1.434 . S
C997 C988 1.429 . S
C997 N994 1.350 . S
C997 C996 1.434 . S
C998 C999 1.369 . S
C998 C1000 1.419 . S
C998 H1002 0.930 . S
C999 C998 1.369 . S
C999 C1008 1.429 . S
C1000 C998 1.419 . S
C1000 C1001 1.363 . S
C1000 H1003 0.929 . S
C1001 C1000 1.363 . S
C1001 C1007 1.428 . S
H1002 C998 0.930 . S
H1003 C1000 0.929 . S
S1004 N1005 1.613 . S
S1004 N1006 1.610 . S
N1005 S1004 1.613 . S
N1005 C1008 1.350 . S
N1006 S1004 1.610 . S
N1006 C1007 1.351 . S
C1007 C1001 1.428 . S
C1007 N1006 1.351 . S
C1007 C1008 1.434 . S
C1008 C999 1.429 . S
C1008 N1005 1.350 . S
C1008 C1007 1.434 . S
C1009 C1010 1.369 . S
C1009 C1011 1.419 . S
C1009 H1013 0.930 . S
C1010 C1009 1.369 . S
C1010 C1019 1.429 . S
C1011 C1009 1.419 . S
C1011 C1012 1.363 . S
C1011 H1014 0.929 . S
C1012 C1011 1.363 . S
C1012 C1018 1.428 . S
H1013 C1009 0.930 . S
H1014 C1011 0.929 . S
S1015 N1016 1.613 . S
S1015 N1017 1.610 . S
N1016 S1015 1.613 . S
N1016 C1019 1.350 . S
N1017 S1015 1.610 . S
N1017 C1018 1.351 . S
C1018 C1012 1.428 . S
C1018 N1017 1.351 . S
C1018 C1019 1.434 . S
C1019 C1010 1.429 . S
C1019 N1016 1.350 . S
C1019 C1018 1.434 . S
C1020 C1021 1.369 . S
C1020 C1022 1.419 . S
C1020 H1024 0.930 . S
C1021 C1020 1.369 . S
C1021 C1030 1.429 . S
C1022 C1020 1.419 . S
C1022 C1023 1.363 . S
C1022 H1025 0.929 . S
C1023 C1022 1.363 . S
C1023 C1029 1.428 . S
H1024 C1020 0.930 . S
H1025 C1022 0.929 . S
S1026 N1027 1.613 . S
S1026 N1028 1.610 . S
N1027 S1026 1.613 . S
N1027 C1030 1.350 . S
N1028 S1026 1.610 . S
N1028 C1029 1.351 . S
C1029 C1023 1.428 . S
C1029 N1028 1.351 . S
C1029 C1030 1.434 . S
C1030 C1021 1.429 . S
C1030 N1027 1.350 . S
C1030 C1029 1.434 . S
C1031 C1032 1.369 . S
C1031 C1033 1.419 . S
C1031 H1035 0.930 . S
C1032 C1031 1.369 . S
C1032 C1041 1.429 . S
C1033 C1031 1.419 . S
C1033 C1034 1.363 . S
C1033 H1036 0.929 . S
C1034 C1033 1.363 . S
C1034 C1040 1.428 . S
H1035 C1031 0.930 . S
H1036 C1033 0.929 . S
S1037 N1038 1.613 . S
S1037 N1039 1.610 . S
N1038 S1037 1.613 . S
N1038 C1041 1.350 . S
N1039 S1037 1.610 . S
N1039 C1040 1.351 . S
C1040 C1034 1.428 . S
C1040 N1039 1.351 . S
C1040 C1041 1.434 . S
C1041 C1032 1.429 . S
C1041 N1038 1.350 . S
C1041 C1040 1.434 . S
C1042 C1043 1.369 . S
C1042 C1044 1.419 . S
C1042 H1046 0.930 . S
C1043 C1042 1.369 . S
C1043 C1052 1.429 . S
C1044 C1042 1.419 . S
C1044 C1045 1.363 . S
C1044 H1047 0.929 . S
C1045 C1044 1.363 . S
C1045 C1051 1.428 . S
H1046 C1042 0.930 . S
H1047 C1044 0.929 . S
S1048 N1049 1.613 . S
S1048 N1050 1.610 . S
N1049 S1048 1.613 . S
N1049 C1052 1.350 . S
N1050 S1048 1.610 . S
N1050 C1051 1.351 . S
C1051 C1045 1.428 . S
C1051 N1050 1.351 . S
C1051 C1052 1.434 . S
C1052 C1043 1.429 . S
C1052 N1049 1.350 . S
C1052 C1051 1.434 . S
C1053 C1054 1.369 . S
C1053 C1055 1.419 . S
C1053 H1057 0.930 . S
C1054 C1053 1.369 . S
C1054 C1063 1.429 . S
C1055 C1053 1.419 . S
C1055 C1056 1.363 . S
C1055 H1058 0.929 . S
C1056 C1055 1.363 . S
C1056 C1062 1.428 . S
H1057 C1053 0.930 . S
H1058 C1055 0.929 . S
S1059 N1060 1.613 . S
S1059 N1061 1.610 . S
N1060 S1059 1.613 . S
N1060 C1063 1.350 . S
N1061 S1059 1.610 . S
N1061 C1062 1.351 . S
C1062 C1056 1.428 . S
C1062 N1061 1.351 . S
C1062 C1063 1.434 . S
C1063 C1054 1.429 . S
C1063 N1060 1.350 . S
C1063 C1062 1.434 . S
C1064 C1065 1.369 . S
C1064 C1066 1.419 . S
C1064 H1068 0.930 . S
C1065 C1064 1.369 . S
C1065 C1074 1.429 . S
C1066 C1064 1.419 . S
C1066 C1067 1.363 . S
C1066 H1069 0.929 . S
C1067 C1066 1.363 . S
C1067 C1073 1.428 . S
H1068 C1064 0.930 . S
H1069 C1066 0.929 . S
S1070 N1071 1.613 . S
S1070 N1072 1.610 . S
N1071 S1070 1.613 . S
N1071 C1074 1.350 . S
N1072 S1070 1.610 . S
N1072 C1073 1.351 . S
C1073 C1067 1.428 . S
C1073 N1072 1.351 . S
C1073 C1074 1.434 . S
C1074 C1065 1.429 . S
C1074 N1071 1.350 . S
C1074 C1073 1.434 . S
C1075 C1076 1.369 . S
C1075 C1077 1.419 . S
C1075 H1079 0.930 . S
C1076 C1075 1.369 . S
C1076 C1085 1.429 . S
C1077 C1075 1.419 . S
C1077 C1078 1.363 . S
C1077 H1080 0.929 . S
C1078 C1077 1.363 . S
C1078 C1084 1.428 . S
H1079 C1075 0.930 . S
H1080 C1077 0.929 . S
S1081 N1082 1.613 . S
S1081 N1083 1.610 . S
N1082 S1081 1.613 . S
N1082 C1085 1.350 . S
N1083 S1081 1.610 . S
N1083 C1084 1.351 . S
C1084 C1078 1.428 . S
C1084 N1083 1.351 . S
C1084 C1085 1.434 . S
C1085 C1076 1.429 . S
C1085 N1082 1.350 . S
C1085 C1084 1.434 . S
C1086 C1087 1.369 . S
C1086 C1088 1.419 . S
C1086 H1090 0.930 . S
C1087 C1086 1.369 . S
C1087 C1096 1.429 . S
C1088 C1086 1.419 . S
C1088 C1089 1.363 . S
C1088 H1091 0.929 . S
C1089 C1088 1.363 . S
C1089 C1095 1.428 . S
H1090 C1086 0.930 . S
H1091 C1088 0.929 . S
S1092 N1093 1.613 . S
S1092 N1094 1.610 . S
N1093 S1092 1.613 . S
N1093 C1096 1.350 . S
N1094 S1092 1.610 . S
N1094 C1095 1.351 . S
C1095 C1089 1.428 . S
C1095 N1094 1.351 . S
C1095 C1096 1.434 . S
C1096 C1087 1.429 . S
C1096 N1093 1.350 . S
C1096 C1095 1.434 . S
C1097 C1098 1.369 . S
C1097 C1099 1.419 . S
C1097 H1101 0.930 . S
C1098 C1097 1.369 . S
C1098 C1107 1.429 . S
C1099 C1097 1.419 . S
C1099 C1100 1.363 . S
C1099 H1102 0.929 . S
C1100 C1099 1.363 . S
C1100 C1106 1.428 . S
H1101 C1097 0.930 . S
H1102 C1099 0.929 . S
S1103 N1104 1.613 . S
S1103 N1105 1.610 . S
N1104 S1103 1.613 . S
N1104 C1107 1.350 . S
N1105 S1103 1.610 . S
N1105 C1106 1.351 . S
C1106 C1100 1.428 . S
C1106 N1105 1.351 . S
C1106 C1107 1.434 . S
C1107 C1098 1.429 . S
C1107 N1104 1.350 . S
C1107 C1106 1.434 . S
C1108 C1109 1.369 . S
C1108 C1110 1.419 . S
C1108 H1112 0.930 . S
C1109 C1108 1.369 . S
C1109 C1118 1.429 . S
C1110 C1108 1.419 . S
C1110 C1111 1.363 . S
C1110 H1113 0.929 . S
C1111 C1110 1.363 . S
C1111 C1117 1.428 . S
H1112 C1108 0.930 . S
H1113 C1110 0.929 . S
S1114 N1115 1.613 . S
S1114 N1116 1.610 . S
N1115 S1114 1.613 . S
N1115 C1118 1.350 . S
N1116 S1114 1.610 . S
N1116 C1117 1.351 . S
C1117 C1111 1.428 . S
C1117 N1116 1.351 . S
C1117 C1118 1.434 . S
C1118 C1109 1.429 . S
C1118 N1115 1.350 . S
C1118 C1117 1.434 . S
C1119 C1120 1.369 . S
C1119 C1121 1.419 . S
C1119 H1123 0.930 . S
C1120 C1119 1.369 . S
C1120 C1129 1.429 . S
C1121 C1119 1.419 . S
C1121 C1122 1.363 . S
C1121 H1124 0.929 . S
C1122 C1121 1.363 . S
C1122 C1128 1.428 . S
H1123 C1119 0.930 . S
H1124 C1121 0.929 . S
S1125 N1126 1.613 . S
S1125 N1127 1.610 . S
N1126 S1125 1.613 . S
N1126 C1129 1.350 . S
N1127 S1125 1.610 . S
N1127 C1128 1.351 . S
C1128 C1122 1.428 . S
C1128 N1127 1.351 . S
C1128 C1129 1.434 . S
C1129 C1120 1.429 . S
C1129 N1126 1.350 . S
C1129 C1128 1.434 . S
C1130 C1131 1.369 . S
C1130 C1132 1.419 . S
C1130 H1134 0.930 . S
C1131 C1130 1.369 . S
C1131 C1140 1.429 . S
C1132 C1130 1.419 . S
C1132 C1133 1.363 . S
C1132 H1135 0.929 . S
C1133 C1132 1.363 . S
C1133 C1139 1.428 . S
H1134 C1130 0.930 . S
H1135 C1132 0.929 . S
S1136 N1137 1.613 . S
S1136 N1138 1.610 . S
N1137 S1136 1.613 . S
N1137 C1140 1.350 . S
N1138 S1136 1.610 . S
N1138 C1139 1.351 . S
C1139 C1133 1.428 . S
C1139 N1138 1.351 . S
C1139 C1140 1.434 . S
C1140 C1131 1.429 . S
C1140 N1137 1.350 . S
C1140 C1139 1.434 . S
C1141 C1142 1.369 . S
C1141 C1143 1.419 . S
C1141 H1145 0.930 . S
C1142 C1141 1.369 . S
C1142 C1151 1.429 . S
C1143 C1141 1.419 . S
C1143 C1144 1.363 . S
C1143 H1146 0.929 . S
C1144 C1143 1.363 . S
C1144 C1150 1.428 . S
H1145 C1141 0.930 . S
H1146 C1143 0.929 . S
S1147 N1148 1.613 . S
S1147 N1149 1.610 . S
N1148 S1147 1.613 . S
N1148 C1151 1.350 . S
N1149 S1147 1.610 . S
N1149 C1150 1.351 . S
C1150 C1144 1.428 . S
C1150 N1149 1.351 . S
C1150 C1151 1.434 . S
C1151 C1142 1.429 . S
C1151 N1148 1.350 . S
C1151 C1150 1.434 . S
C449 C382 1.490 . S
C451 C12 1.455 . S
C460 C26 1.456 . S
C462 C116 1.489 . S
C471 C354 1.490 . S
C473 C40 1.456 . S
C482 C54 1.459 . S
C484 C144 1.490 . S
C493 C68 1.454 . S
C495 C410 1.488 . S
C504 C82 1.452 . S
C506 C200 1.488 . S
C515 C96 1.451 . S
C517 C438 1.487 . S
C526 C110 1.451 . S
C528 C172 1.487 . S
C537 C270 1.488 . S
C539 C124 1.456 . S
C548 C4 1.491 . S
C550 C138 1.457 . S
C559 C242 1.491 . S
C561 C152 1.458 . S
C570 C166 1.455 . S
C572 C32 1.490 . S
C581 C298 1.491 . S
C583 C180 1.458 . S
C592 C88 1.491 . S
C594 C194 1.458 . S
C603 C208 1.456 . S
C605 C326 1.490 . S
C614 C60 1.491 . S
C616 C222 1.458 . S
C625 C236 1.458 . S
C627 C158 1.490 . S
C636 C250 1.454 . S
C638 C340 1.489 . S
C647 C130 1.490 . S
C649 C264 1.458 . S
C658 C368 1.490 . S
C660 C278 1.457 . S
C669 C186 1.491 . S
C671 C292 1.457 . S
C680 C424 1.489 . S
C682 C306 1.457 . S
C691 C214 1.487 . S
C693 C320 1.453 . S
C702 C334 1.451 . S
C704 C396 1.487 . S
C713 C46 1.491 . S
C715 C348 1.457 . S
C724 C362 1.457 . S
C726 C228 1.490 . S
C735 C376 1.455 . S
C737 C18 1.488 . S
C746 C390 1.457 . S
C748 C256 1.490 . S
C757 C404 1.451 . S
C759 C74 1.488 . S
C768 C418 1.451 . S
C770 C312 1.488 . S
C779 C432 1.453 . S
C781 C102 1.489 . S
C790 C446 1.458 . S
C792 C284 1.489 . S
C801 C347 1.501 . S
C803 C11 1.505 . S
C812 C25 1.504 . S
C814 C137 1.503 . S
C823 C375 1.506 . S
C825 C39 1.501 . S
C834 C53 1.501 . S
C836 C165 1.505 . S
C845 C403 1.506 . S
C847 C67 1.502 . S
C856 C81 1.502 . S
C858 C193 1.504 . S
C867 C431 1.506 . S
C869 C95 1.501 . S
C878 C109 1.505 . S
C880 C221 1.502 . S
C889 C123 1.506 . S
C891 C235 1.501 . S
C900 C151 1.503 . S
C902 C263 1.503 . S
C911 C179 1.501 . S
C913 C291 1.505 . S
C922 C207 1.506 . S
C924 C319 1.501 . S
C933 C249 1.504 . S
C935 C361 1.503 . S
C944 C389 1.506 . S
C946 C277 1.502 . S
C955 C417 1.501 . S
C957 C305 1.505 . S
C966 C333 1.503 . S
C968 C445 1.503 . S
C977 C5 1.068 . S
C979 C75 1.062 . S
C988 C19 1.068 . S
C990 C89 1.063 . S
C999 C33 1.052 . S
C1001 C103 1.050 . S
C1010 C61 1.067 . S
C1012 C47 1.060 . S
C1021 C117 1.050 . S
C1023 C187 1.058 . S
C1032 C131 1.061 . S
C1034 C201 1.065 . S
C1043 C145 1.068 . S
C1045 C215 1.063 . S
C1054 C159 1.060 . S
C1056 C173 1.065 . S
C1065 C229 1.063 . S
C1067 C299 1.066 . S
C1076 C313 1.057 . S
C1078 C243 1.052 . S
C1087 C257 1.052 . S
C1089 C327 1.059 . S
C1098 C271 1.048 . S
C1100 C285 1.054 . S
C1109 C411 1.048 . S
C1111 C341 1.055 . S
C1120 C355 1.052 . S
C1122 C425 1.060 . S
C1131 C439 1.061 . S
C1133 C369 1.066 . S
C1142 C383 1.053 . S
C1144 C397 1.050 . S
