# Generated by pormake.
# Topology whk, (6)-cn, num edge types: 1
# Building blocks:
#     Node 0, Type 0, BuildingBlock: PAMTUU_clean_sbu_0, # of connection points: 6
#     Node 1, Type 0, BuildingBlock: PAMTUU_clean_sbu_0, # of connection points: 6
#     Node 2, Type 0, BuildingBlock: PAMTUU_clean_sbu_0, # of connection points: 6
#     Node 3, Type 0, BuildingBlock: PAMTUU_clean_sbu_0, # of connection points: 6
#     Node 4, Type 0, BuildingBlock: PAMTUU_clean_sbu_0, # of connection points: 6
#     Node 5, Type 0, BuildingBlock: PAMTUU_clean_sbu_0, # of connection points: 6
#     Node 6, Type 0, BuildingBlock: PAMTUU_clean_sbu_0, # of connection points: 6
#     Node 7, Type 0, BuildingBlock: PAMTUU_clean_sbu_0, # of connection points: 6
#     Node 8, Type 0, BuildingBlock: PAMTUU_clean_sbu_0, # of connection points: 6
#     Node 9, Type 0, BuildingBlock: PAMTUU_clean_sbu_0, # of connection points: 6
#     Node 10, Type 0, BuildingBlock: PAMTUU_clean_sbu_0, # of connection points: 6
#     Node 11, Type 0, BuildingBlock: PAMTUU_clean_sbu_0, # of connection points: 6
#     Node 12, Type 0, BuildingBlock: PAMTUU_clean_sbu_0, # of connection points: 6
#     Node 13, Type 0, BuildingBlock: PAMTUU_clean_sbu_0, # of connection points: 6
#     Node 14, Type 0, BuildingBlock: PAMTUU_clean_sbu_0, # of connection points: 6
#     Node 15, Type 0, BuildingBlock: PAMTUU_clean_sbu_0, # of connection points: 6
#     Edge 16, Type (0, 0), BuildingBlock: CIFDUS_clean_linker_0, # of connection points: 2
#     Edge 17, Type (0, 0), BuildingBlock: CIFDUS_clean_linker_0, # of connection points: 2
#     Edge 18, Type (0, 0), BuildingBlock: CIFDUS_clean_linker_0, # of connection points: 2
#     Edge 19, Type (0, 0), BuildingBlock: CIFDUS_clean_linker_0, # of connection points: 2
#     Edge 20, Type (0, 0), BuildingBlock: CIFDUS_clean_linker_0, # of connection points: 2
#     Edge 21, Type (0, 0), BuildingBlock: CIFDUS_clean_linker_0, # of connection points: 2
#     Edge 22, Type (0, 0), BuildingBlock: CIFDUS_clean_linker_0, # of connection points: 2
#     Edge 23, Type (0, 0), BuildingBlock: CIFDUS_clean_linker_0, # of connection points: 2
#     Edge 24, Type (0, 0), BuildingBlock: CIFDUS_clean_linker_0, # of connection points: 2
#     Edge 25, Type (0, 0), BuildingBlock: CIFDUS_clean_linker_0, # of connection points: 2
#     Edge 26, Type (0, 0), BuildingBlock: CIFDUS_clean_linker_0, # of connection points: 2
#     Edge 27, Type (0, 0), BuildingBlock: CIFDUS_clean_linker_0, # of connection points: 2
#     Edge 28, Type (0, 0), BuildingBlock: CIFDUS_clean_linker_0, # of connection points: 2
#     Edge 29, Type (0, 0), BuildingBlock: CIFDUS_clean_linker_0, # of connection points: 2
#     Edge 30, Type (0, 0), BuildingBlock: CIFDUS_clean_linker_0, # of connection points: 2
#     Edge 31, Type (0, 0), BuildingBlock: CIFDUS_clean_linker_0, # of connection points: 2
#     Edge 32, Type (0, 0), BuildingBlock: CIFDUS_clean_linker_0, # of connection points: 2
#     Edge 33, Type (0, 0), BuildingBlock: CIFDUS_clean_linker_0, # of connection points: 2
#     Edge 34, Type (0, 0), BuildingBlock: CIFDUS_clean_linker_0, # of connection points: 2
#     Edge 35, Type (0, 0), BuildingBlock: CIFDUS_clean_linker_0, # of connection points: 2
#     Edge 36, Type (0, 0), BuildingBlock: CIFDUS_clean_linker_0, # of connection points: 2
#     Edge 37, Type (0, 0), BuildingBlock: CIFDUS_clean_linker_0, # of connection points: 2
#     Edge 38, Type (0, 0), BuildingBlock: CIFDUS_clean_linker_0, # of connection points: 2
#     Edge 39, Type (0, 0), BuildingBlock: CIFDUS_clean_linker_0, # of connection points: 2
#     Edge 40, Type (0, 0), BuildingBlock: CIFDUS_clean_linker_0, # of connection points: 2
#     Edge 41, Type (0, 0), BuildingBlock: CIFDUS_clean_linker_0, # of connection points: 2
#     Edge 42, Type (0, 0), BuildingBlock: CIFDUS_clean_linker_0, # of connection points: 2
#     Edge 43, Type (0, 0), BuildingBlock: CIFDUS_clean_linker_0, # of connection points: 2
#     Edge 44, Type (0, 0), BuildingBlock: CIFDUS_clean_linker_0, # of connection points: 2
#     Edge 45, Type (0, 0), BuildingBlock: CIFDUS_clean_linker_0, # of connection points: 2
#     Edge 46, Type (0, 0), BuildingBlock: CIFDUS_clean_linker_0, # of connection points: 2
#     Edge 47, Type (0, 0), BuildingBlock: CIFDUS_clean_linker_0, # of connection points: 2
#     Edge 48, Type (0, 0), BuildingBlock: CIFDUS_clean_linker_0, # of connection points: 2
#     Edge 49, Type (0, 0), BuildingBlock: CIFDUS_clean_linker_0, # of connection points: 2
#     Edge 50, Type (0, 0), BuildingBlock: CIFDUS_clean_linker_0, # of connection points: 2
#     Edge 51, Type (0, 0), BuildingBlock: CIFDUS_clean_linker_0, # of connection points: 2
#     Edge 52, Type (0, 0), BuildingBlock: CIFDUS_clean_linker_0, # of connection points: 2
#     Edge 53, Type (0, 0), BuildingBlock: CIFDUS_clean_linker_0, # of connection points: 2
#     Edge 54, Type (0, 0), BuildingBlock: CIFDUS_clean_linker_0, # of connection points: 2
#     Edge 55, Type (0, 0), BuildingBlock: CIFDUS_clean_linker_0, # of connection points: 2
#     Edge 56, Type (0, 0), BuildingBlock: CIFDUS_clean_linker_0, # of connection points: 2
#     Edge 57, Type (0, 0), BuildingBlock: CIFDUS_clean_linker_0, # of connection points: 2
#     Edge 58, Type (0, 0), BuildingBlock: CIFDUS_clean_linker_0, # of connection points: 2
#     Edge 59, Type (0, 0), BuildingBlock: CIFDUS_clean_linker_0, # of connection points: 2
#     Edge 60, Type (0, 0), BuildingBlock: CIFDUS_clean_linker_0, # of connection points: 2
#     Edge 61, Type (0, 0), BuildingBlock: CIFDUS_clean_linker_0, # of connection points: 2
#     Edge 62, Type (0, 0), BuildingBlock: CIFDUS_clean_linker_0, # of connection points: 2
#     Edge 63, Type (0, 0), BuildingBlock: CIFDUS_clean_linker_0, # of connection points: 2
# Relax obj value: 0.657
# Max RMSD: 0.330
# Mean RMSD: 0.330
data_MOF--net-whk--node1-PAMTUU_clean_sbu_0--edge1-CIFDUS_clean_linker_0
_symmetry_space_group_name_H-M    P1
_symmetry_Int_Tables_number       1
_symmetry_cell_setting            triclinic
loop_
_symmetry_equiv_pos_as_xyz
'x, y, z'
_cell_length_a     41.088503
_cell_length_b     41.534417
_cell_length_c     34.573932
_cell_angle_alpha  90.287751
_cell_angle_beta   90.018622
_cell_angle_gamma 90.09871
loop_
_atom_site_label
_atom_site_type_symbol
_atom_site_fract_x
_atom_site_fract_y
_atom_site_fract_z
_atom_type_partial_charge
Tb0 Tb 0.59299 0.22569 0.4111 0.0
Tb1 Tb 0.65598 0.26442 0.37382 0.0
C2 C 0.63545 0.27686 0.46031 0.0
C3 C 0.51675 0.1707 0.42795 0.0
C4 C 0.46618 0.12398 0.4175 0.0
C5 C 0.46356 0.14843 0.44569 0.0
C6 C 0.48848 0.17131 0.45086 0.0
C7 C 0.51985 0.14605 0.40014 0.0
C8 C 0.49503 0.12284 0.39523 0.0
C9 C 0.53933 0.19891 0.42958 0.0
O10 O 0.57434 0.26984 0.38422 0.0
O11 O 0.61973 0.30132 0.38631 0.0
O12 O 0.63213 0.23807 0.32706 0.0
O13 O 0.61217 0.1965 0.3626 0.0
O14 O 0.70578 0.27066 0.36151 0.0
O15 O 0.67011 0.30488 0.34196 0.0
O16 O 0.67692 0.21949 0.396 0.0
O17 O 0.63513 0.20054 0.43494 0.0
O18 O 0.60665 0.26281 0.45499 0.0
O19 O 0.65918 0.2747 0.43503 0.0
C20 C 0.58801 0.29846 0.38487 0.0
O21 O 0.54497 0.21357 0.39706 0.0
O22 O 0.56504 0.19891 0.45191 0.0
C23 C 0.62364 0.20772 0.32981 0.0
C24 C 0.71725 0.30013 0.30391 0.0
C25 C 0.75059 0.30942 0.23371 0.0
C26 C 0.73267 0.33465 0.25027 0.0
C27 C 0.71628 0.33006 0.28518 0.0
C28 C 0.73451 0.27463 0.28687 0.0
C29 C 0.7509 0.27923 0.25198 0.0
C30 C 0.7006 0.29661 0.34138 0.0
C31 C 0.66572 0.19979 0.42287 0.0
H32 H 0.44211 0.14999 0.46379 0.0
H33 H 0.4851 0.19031 0.47207 0.0
H34 H 0.54099 0.1453 0.38146 0.0
H35 H 0.49799 0.1046 0.37304 0.0
H36 H 0.73231 0.35819 0.23692 0.0
H37 H 0.70314 0.35009 0.29788 0.0
H38 H 0.73573 0.25132 0.30068 0.0
H39 H 0.76531 0.25963 0.24038 0.0
Tb40 Tb 0.36158 0.57301 0.42017 0.0
Tb41 Tb 0.32195 0.63469 0.38626 0.0
C42 C 0.30901 0.6115 0.4707 0.0
C43 C 0.41828 0.49786 0.43409 0.0
C44 C 0.46204 0.44487 0.42456 0.0
C45 C 0.44323 0.44847 0.45841 0.0
C46 C 0.42178 0.47454 0.46308 0.0
C47 C 0.43824 0.49533 0.40102 0.0
C48 C 0.46002 0.46932 0.39648 0.0
C49 C 0.38951 0.51989 0.43567 0.0
O50 O 0.31974 0.556 0.38629 0.0
O51 O 0.28503 0.59732 0.39609 0.0
O52 O 0.35268 0.61688 0.33912 0.0
O53 O 0.39295 0.59593 0.37627 0.0
O54 O 0.30647 0.68269 0.38757 0.0
O55 O 0.28964 0.64996 0.34316 0.0
O56 O 0.36738 0.6559 0.40866 0.0
O57 O 0.3845 0.61456 0.44847 0.0
O58 O 0.32189 0.58284 0.4628 0.0
O59 O 0.31305 0.63607 0.44764 0.0
C60 C 0.28983 0.56648 0.3907 0.0
O61 O 0.37552 0.52679 0.40296 0.0
O62 O 0.38784 0.54385 0.46031 0.0
C63 C 0.38337 0.60922 0.3437 0.0
C64 C 0.29888 0.70328 0.32555 0.0
C65 C 0.31495 0.74908 0.269 0.0
C66 C 0.33944 0.73187 0.28848 0.0
C67 C 0.33149 0.70907 0.31626 0.0
C68 C 0.27425 0.72009 0.30655 0.0
C69 C 0.2822 0.74298 0.27871 0.0
C70 C 0.29065 0.67974 0.35509 0.0
C71 C 0.38573 0.645 0.43724 0.0
H72 H 0.44437 0.43052 0.48099 0.0
H73 H 0.40653 0.47547 0.48862 0.0
H74 H 0.43589 0.51259 0.37782 0.0
H75 H 0.47395 0.46744 0.36998 0.0
H76 H 0.36492 0.73589 0.28272 0.0
H77 H 0.35083 0.69603 0.33062 0.0
H78 H 0.24891 0.71591 0.31368 0.0
H79 H 0.26266 0.75665 0.26594 0.0
Tb80 Tb 1.00836 0.35043 0.42058 0.0
Tb81 Tb 0.95935 0.30814 0.36645 0.0
C82 C 0.963 0.29449 0.45705 0.0
C83 C 0.07873 0.41139 0.4424 0.0
C84 C 0.12722 0.45967 0.42848 0.0
C85 C 0.13244 0.43492 0.45545 0.0
C86 C 0.10856 0.41133 0.46239 0.0
C87 C 0.07296 0.43648 0.41603 0.0
C88 C 0.09672 0.46054 0.40956 0.0
C89 C 0.05809 0.38168 0.44389 0.0
O90 O 1.03477 0.30665 0.40068 0.0
O91 O 0.99276 0.27266 0.38788 0.0
O92 O 0.98898 0.34023 0.33187 0.0
O93 O 0.98859 0.38052 0.37396 0.0
O94 O 0.9157 0.29943 0.33636 0.0
O95 O 0.95837 0.27038 0.32616 0.0
O96 O 0.92787 0.34515 0.39232 0.0
O97 O 0.96115 0.371 0.43751 0.0
O98 O 0.98841 0.31428 0.46184 0.0
O99 O 0.94764 0.29073 0.42378 0.0
C100 C 1.0234 0.27722 0.39584 0.0
O101 O 0.05615 0.36546 0.41162 0.0
O102 O 1.03079 0.38044 0.46353 0.0
C103 C 0.9856 0.37092 0.33811 0.0
C104 C 0.92612 0.28238 0.27264 0.0
C105 C 0.90954 0.30161 0.19747 0.0
C106 C 0.89458 0.27443 0.21452 0.0
C107 C 0.90252 0.26529 0.25207 0.0
C108 C 0.94489 0.30572 0.2536 0.0
C109 C 0.93697 0.31497 0.21596 0.0
C110 C 0.92923 0.27755 0.31441 0.0
C111 C 0.93229 0.36578 0.42135 0.0
H112 H 0.1553 0.43352 0.47097 0.0
H113 H 0.11411 0.392 0.48225 0.0
H114 H 0.05063 0.43679 0.39938 0.0
H115 H 0.09175 0.47908 0.38846 0.0
H116 H 0.87381 0.26267 0.20131 0.0
H117 H 0.88848 0.24652 0.26601 0.0
H118 H 0.9641 0.31838 0.26869 0.0
H119 H 0.94968 0.33523 0.20336 0.0
Tb120 Tb 0.23555 0.99706 0.42918 0.0
Tb121 Tb 0.27731 0.94576 0.38082 0.0
C122 C 0.29221 0.95298 0.46892 0.0
C123 C 0.18417 0.07229 0.44886 0.0
C124 C 0.14976 0.13077 0.43354 0.0
C125 C 0.13412 0.1042 0.45073 0.0
C126 C 0.15104 0.07554 0.45828 0.0
C127 C 0.19995 0.09865 0.43143 0.0
C128 C 0.183 0.12745 0.42392 0.0
C129 C 0.2017 0.04202 0.45966 0.0
O130 O 0.2724 1.02311 0.39543 0.0
O131 O 0.31067 0.98414 0.39814 0.0
O132 O 0.25025 0.9757 0.34134 0.0
O133 O 0.20645 0.98016 0.37883 0.0
O134 O 0.28191 0.9018 0.35116 0.0
O135 O 0.31807 0.93921 0.34507 0.0
O136 O 0.23494 0.91849 0.40338 0.0
O137 O 0.22146 0.95141 0.45465 0.0
O138 O 0.27391 0.97954 0.47018 0.0
O139 O 0.2936 0.93417 0.4383 0.0
C140 C 0.3033 1.01475 0.39629 0.0
O141 O 0.18977 1.01496 0.44685 0.0
O142 O 0.23339 0.04178 0.45845 0.0
C143 C 0.21878 0.97621 0.34417 0.0
C144 C 0.30106 0.91323 0.28792 0.0
C145 C 0.29809 0.90218 0.20779 0.0
C146 C 0.3232 0.92135 0.22358 0.0
C147 C 0.32531 0.92573 0.26362 0.0
C148 C 0.27244 0.90102 0.27119 0.0
C149 C 0.2707 0.89606 0.23135 0.0
C150 C 0.30576 0.91305 0.33027 0.0
C151 C 0.21896 0.9237 0.43609 0.0
H152 H 0.10882 0.10572 0.45927 0.0
H153 H 0.13823 0.05592 0.47215 0.0
H154 H 0.22548 0.09714 0.42383 0.0
H155 H 0.19596 0.14707 0.41029 0.0
H156 H 0.34376 0.92842 0.20595 0.0
H157 H 0.34687 0.93699 0.27567 0.0
H158 H 0.25226 0.89309 0.28893 0.0
H159 H 0.2497 0.88313 0.22044 0.0
Tb160 Tb 0.09639 0.85728 0.09895 0.0
Tb161 Tb 0.1449 0.81237 0.14862 0.0
C162 C 0.13133 0.79597 0.0591 0.0
C163 C 1.01948 0.91632 0.08696 0.0
C164 C 0.96192 0.95567 0.08751 0.0
C165 C 0.9775 0.94681 0.05248 0.0
C166 C 1.00583 0.92748 0.05222 0.0
C167 C 1.00435 0.92579 0.12188 0.0
C168 C 0.97623 0.94504 0.12216 0.0
C169 C 0.04832 0.89394 0.08798 0.0
O170 O 0.06845 0.81224 0.10939 0.0
O171 O 0.10485 0.77945 0.14048 0.0
O172 O 0.11914 0.84353 0.18838 0.0
O173 O 0.11996 0.88434 0.14715 0.0
O174 O 0.15234 0.7897 0.20194 0.0
O175 O 0.19018 0.79065 0.15864 0.0
O176 O 0.17545 0.85091 0.12371 0.0
O177 O 0.14284 0.87662 0.07838 0.0
O178 O 0.11227 0.82169 0.05396 0.0
O179 O 0.14443 0.78887 0.09273 0.0
C180 C 0.0764 0.78421 0.12457 0.0
O181 O 0.05487 0.8791 0.12031 0.0
O182 O 0.06923 0.88779 0.06001 0.0
C183 C 0.12115 0.87429 0.18293 0.0
C184 C 0.18273 0.74281 0.19342 0.0
C185 C 0.19663 0.6764 0.19256 0.0
C186 C 0.2065 0.69633 0.22387 0.0
C187 C 0.1996 0.72914 0.22413 0.0
C188 C 0.16917 0.72282 0.16477 0.0
C189 C 0.1757 0.68977 0.16461 0.0
C190 C 0.18013 0.77789 0.19091 0.0
C191 C 0.1716 0.87111 0.09432 0.0
H192 H 0.96779 0.95475 0.02504 0.0
H193 H 1.01671 0.92087 0.02479 0.0
H194 H 1.014 0.91789 0.14939 0.0
H195 H 0.96514 0.95072 0.14976 0.0
H196 H 0.22225 0.68767 0.24661 0.0
H197 H 0.20896 0.74415 0.24729 0.0
H198 H 0.15495 0.73297 0.14146 0.0
H199 H 0.16647 0.67533 0.14086 0.0
Tb200 Tb 0.72919 0.07591 0.08528 0.0
Tb201 Tb 0.76486 0.13341 0.12882 0.0
C202 C 0.78911 0.11637 0.04602 0.0
C203 C 0.6749 1.00126 0.07265 0.0
C204 C 0.63365 0.94874 0.09435 0.0
C205 C 0.65327 0.94709 0.06094 0.0
C206 C 0.6735 0.97292 0.05031 0.0
C207 C 0.65576 1.00301 0.10633 0.0
C208 C 0.6354 0.97714 0.11699 0.0
C209 C 0.69562 1.02865 0.05919 0.0
O210 O 0.77744 0.05587 0.09309 0.0
O211 O 0.7951 0.09037 0.14045 0.0
O212 O 0.71328 0.13135 0.13991 0.0
O213 O 0.71451 0.07901 0.14731 0.0
O214 O 0.78818 0.17651 0.14492 0.0
O215 O 0.76866 0.1438 0.18815 0.0
O216 O 0.73686 0.16088 0.0867 0.0
O217 O 0.70675 0.11928 0.0598 0.0
O218 O 0.76391 0.09621 0.04158 0.0
O219 O 0.79544 0.13157 0.07862 0.0
C220 C 0.79953 0.06468 0.11833 0.0
O221 O 0.72659 1.02736 0.06675 0.0
O222 O 0.6846 0.0578 0.06387 0.0
C223 C 0.70251 0.10677 0.15839 0.0
C224 C 0.75011 0.19684 0.19042 0.0
C225 C 0.69001 0.2287 0.20244 0.0
C226 C 0.70456 0.21106 0.2325 0.0
C227 C 0.73418 0.19497 0.2264 0.0
C228 C 0.73592 0.21526 0.16104 0.0
C229 C 0.70658 0.23096 0.16696 0.0
C230 C 0.77596 0.1737 0.17988 0.0
C231 C 0.71378 0.15036 0.06331 0.0
H232 H 0.65244 0.9261 0.04228 0.0
H233 H 0.68781 0.9709 0.0241 0.0
H234 H 0.65635 1.02446 0.12428 0.0
H235 H 0.62112 0.97939 0.14317 0.0
H236 H 0.69295 0.2094 0.26051 0.0
H237 H 0.74404 0.18017 0.24928 0.0
H238 H 0.74708 0.21718 0.13277 0.0
H239 H 0.69739 0.2456 0.14357 0.0
Tb240 Tb 0.51044 0.71276 0.08764 0.0
Tb241 Tb 0.46101 0.75504 0.1392 0.0
C242 C 0.47632 0.7757 0.05233 0.0
C243 C 0.58339 0.65438 0.06858 0.0
C244 C 0.6392 0.61432 0.07795 0.0
C245 C 0.63234 0.62913 0.04226 0.0
C246 C 0.60487 0.64885 0.03769 0.0
C247 C 0.58893 0.63795 0.10354 0.0
C248 C 0.61638 0.61805 0.10809 0.0
C249 C 0.56119 0.68271 0.06671 0.0
O250 O 0.53555 0.75796 0.10406 0.0
O251 O 0.50066 0.78953 0.13974 0.0
O252 O 0.48613 0.72222 0.17758 0.0
O253 O 0.48964 0.68252 0.13412 0.0
O254 O 0.41584 0.77838 0.1428 0.0
O255 O 0.44359 0.76812 0.19437 0.0
O256 O 0.43277 0.71662 0.11092 0.0
O257 O 0.46513 0.69325 0.06409 0.0
O258 O 0.4937 0.74927 0.0454 0.0
O259 O 0.46395 0.78255 0.08643 0.0
C260 C 0.52874 0.78508 0.12246 0.0
O261 O 0.55816 0.69932 0.09862 0.0
O262 O 0.53444 0.68273 0.04599 0.0
C263 C 0.48469 0.69155 0.17002 0.0
C264 C 0.39017 0.74713 0.18979 0.0
C265 C 0.35154 0.69096 0.19473 0.0
C266 C 0.37848 0.69518 0.21908 0.0
C267 C 0.39781 0.72277 0.2164 0.0
C268 C 0.36223 0.74363 0.16679 0.0
C269 C 0.34318 0.71597 0.16922 0.0
C270 C 0.41455 0.77183 0.17961 0.0
C271 C 0.43649 0.69767 0.0805 0.0
H272 H 0.64888 0.6264 0.01809 0.0
H273 H 0.6016 0.66147 0.01061 0.0
H274 H 0.57314 0.64203 0.12816 0.0
H275 H 0.62073 0.60718 0.13602 0.0
H276 H 0.38445 0.67732 0.2404 0.0
H277 H 0.41908 0.72468 0.23476 0.0
H278 H 0.35564 0.76189 0.14594 0.0
H279 H 0.32164 0.71444 0.15125 0.0
Tb280 Tb 0.86584 0.49259 0.08861 0.0
Tb281 Tb 0.82424 0.42985 0.11771 0.0
C282 C 0.81247 0.45854 0.03638 0.0
C283 C 0.91878 0.5741 0.08068 0.0
C284 C 0.9562 0.63256 0.0831 0.0
C285 C 0.94802 0.61757 0.04754 0.0
C286 C 0.92966 0.58872 0.04636 0.0
C287 C 0.92686 0.58921 0.11604 0.0
C288 C 0.94513 0.61779 0.11722 0.0
C289 C 0.899 0.54356 0.0809 0.0
O290 O 0.82243 0.51189 0.11806 0.0
O291 O 0.78884 0.46821 0.11341 0.0
O292 O 0.85368 0.4443 0.1673 0.0
O293 O 0.89462 0.46668 0.13246 0.0
O294 O 0.79556 0.41041 0.16175 0.0
O295 O 0.80247 0.38465 0.10778 0.0
O296 O 0.87023 0.40871 0.09856 0.0
O297 O 0.88812 0.45049 0.05952 0.0
O298 O 0.82501 0.48677 0.0467 0.0
O299 O 0.8197 0.43251 0.05555 0.0
C300 C 0.79309 0.49911 0.11841 0.0
O301 O 0.8879 0.53258 0.11364 0.0
O302 O 0.89123 0.52549 0.05096 0.0
C303 C 0.88432 0.45243 0.16406 0.0
C304 C 0.74982 0.38264 0.13622 0.0
C305 C 0.68293 0.3671 0.13838 0.0
C306 C 0.70457 0.34989 0.11426 0.0
C307 C 0.7376 0.35745 0.11345 0.0
C308 C 0.72796 0.40168 0.1578 0.0
C309 C 0.69481 0.39397 0.15884 0.0
C310 C 0.78539 0.38709 0.13943 0.0
C311 C 0.8892 0.41985 0.07075 0.0
H312 H 0.95619 0.62787 0.02052 0.0
H313 H 0.92399 0.57789 0.0186 0.0
H314 H 0.91895 0.57899 0.14322 0.0
H315 H 0.95013 0.62856 0.14518 0.0
H316 H 0.69671 0.32861 0.09861 0.0
H317 H 0.75388 0.3424 0.09663 0.0
H318 H 0.73662 0.42151 0.17548 0.0
H319 H 0.6789 0.4076 0.17775 0.0
Tb320 Tb 0.44804 0.80112 0.65058 0.0
Tb321 Tb 0.50052 0.84616 0.60551 0.0
C322 C 0.47283 0.86169 0.68735 0.0
C323 C 0.38648 0.79093 0.72428 0.0
C324 C 0.34435 0.8323 0.76464 0.0
C325 C 0.33217 0.80478 0.7457 0.0
C326 C 0.35312 0.78417 0.72572 0.0
C327 C 0.39898 0.81683 0.74615 0.0
C328 C 0.37801 0.83741 0.76616 0.0
C329 C 0.40663 0.77546 0.69436 0.0
O330 O 0.41997 0.84055 0.62422 0.0
O331 O 0.45544 0.86612 0.58199 0.0
O332 O 0.48574 0.81181 0.55917 0.0
O333 O 0.44937 0.77941 0.59358 0.0
O334 O 0.54172 0.86862 0.62794 0.0
O335 O 0.52917 0.87531 0.56685 0.0
O336 O 0.52633 0.80065 0.61999 0.0
O337 O 0.48609 0.76626 0.64096 0.0
O338 O 0.47476 0.83075 0.69135 0.0
O339 O 0.47529 0.87289 0.65226 0.0
C340 C 0.42579 0.86078 0.59548 0.0
O341 O 0.40024 0.7846 0.65916 0.0
O342 O 0.43785 0.77486 0.70094 0.0
C343 C 0.46496 0.78715 0.5616 0.0
C344 C 0.57921 0.90337 0.59303 0.0
C345 C 0.63667 0.94302 0.59098 0.0
C346 C 0.61714 0.93815 0.55767 0.0
C347 C 0.5889 0.91866 0.55869 0.0
C348 C 0.5985 0.9085 0.62632 0.0
C349 C 0.62661 0.92789 0.62533 0.0
C350 C 0.54938 0.88226 0.59521 0.0
C351 C 0.51619 0.7716 0.63015 0.0
H352 H 0.3062 0.80103 0.74297 0.0
H353 H 0.34294 0.7646 0.70872 0.0
H354 H 0.42466 0.82261 0.74549 0.0
H355 H 0.38774 0.85857 0.78041 0.0
H356 H 0.62349 0.9496 0.53065 0.0
H357 H 0.5747 0.91555 0.53254 0.0
H358 H 0.59205 0.89725 0.65346 0.0
H359 H 0.64087 0.93036 0.65151 0.0
Tb360 Tb 0.7782 0.43234 0.62547 0.0
Tb361 Tb 0.74111 0.49579 0.5902 0.0
C362 C 0.71852 0.4611 0.66832 0.0
C363 C 0.79802 0.36126 0.68469 0.0
C364 C 0.78103 0.31632 0.74225 0.0
C365 C 0.75699 0.33137 0.71946 0.0
C366 C 0.76535 0.35367 0.69129 0.0
C367 C 0.82226 0.34668 0.70684 0.0
C368 C 0.81394 0.32429 0.73516 0.0
C369 C 0.80684 0.38497 0.65545 0.0
O370 O 0.7315 0.41399 0.60402 0.0
O371 O 0.71795 0.45439 0.56117 0.0
O372 O 0.78067 0.48474 0.54815 0.0
O373 O 0.789 0.43153 0.5643 0.0
O374 O 0.72896 0.54269 0.60644 0.0
O375 O 0.71408 0.52463 0.55038 0.0
O376 O 0.78597 0.51367 0.61791 0.0
O377 O 0.81691 0.46805 0.61878 0.0
O378 O 0.74862 0.45144 0.67287 0.0
O379 O 0.70975 0.47482 0.63567 0.0
C380 C 0.71474 0.42451 0.57403 0.0
O381 O 0.79059 0.38344 0.62312 0.0
O382 O 0.80957 0.41444 0.66801 0.0
C383 C 0.79375 0.45603 0.54124 0.0
C384 C 0.68507 0.57148 0.57715 0.0
C385 C 0.64175 0.62523 0.58524 0.0
C386 C 0.65566 0.61708 0.54915 0.0
C387 C 0.67698 0.59074 0.54525 0.0
C388 C 0.66998 0.57853 0.61285 0.0
C389 C 0.6486 0.60488 0.61678 0.0
C390 C 0.71365 0.54912 0.57438 0.0
C391 C 0.81459 0.49953 0.61961 0.0
H392 H 0.73144 0.32637 0.72296 0.0
H393 H 0.74622 0.36511 0.67472 0.0
H394 H 0.84767 0.3524 0.70201 0.0
H395 H 0.83364 0.31272 0.7504 0.0
H396 H 0.65066 0.63152 0.52386 0.0
H397 H 0.68841 0.58637 0.51748 0.0
H398 H 0.67586 0.56459 0.63829 0.0
H399 H 0.63872 0.61019 0.64513 0.0
Tb400 Tb 0.14423 0.77047 0.63014 0.0
Tb401 Tb 0.09519 0.71946 0.58555 0.0
C402 C 0.12782 0.70461 0.66965 0.0
C403 C 0.18378 0.84884 0.66156 0.0
C404 C 0.21041 0.90726 0.68822 0.0
C405 C 0.22275 0.89227 0.65458 0.0
C406 C 0.20986 0.86303 0.64185 0.0
C407 C 0.16697 0.86727 0.68931 0.0
C408 C 0.18002 0.89663 0.70223 0.0
C409 C 0.17991 0.81344 0.65934 0.0
O410 O 0.17562 0.73506 0.60094 0.0
O411 O 0.1417 0.69496 0.5767 0.0
O412 O 0.11928 0.74802 0.53875 0.0
O413 O 0.13133 0.79244 0.57604 0.0
O414 O 0.04534 0.70965 0.5878 0.0
O415 O 0.07587 0.68263 0.54858 0.0
O416 O 0.07243 0.76729 0.58869 0.0
O417 O 0.09459 0.7841 0.64507 0.0
O418 O 0.14697 0.72974 0.66819 0.0
O419 O 0.10452 0.69916 0.64387 0.0
C420 C 0.17102 0.70686 0.58361 0.0
O421 O 0.15566 0.80008 0.6777 0.0
O422 O 0.18567 0.79966 0.6261 0.0
C423 C 0.12954 0.77833 0.54222 0.0
C424 C 1.0233 0.65922 0.56752 0.0
C425 C 0.96832 0.61788 0.57986 0.0
C426 C 0.97538 0.63044 0.54299 0.0
C427 C 1.00243 0.65062 0.53694 0.0
C428 C 1.01723 0.64566 0.60417 0.0
C429 C 0.99029 0.62497 0.61015 0.0
C430 C 0.04632 0.68688 0.56179 0.0
C431 C 0.07224 0.78709 0.61836 0.0
H432 H 0.24544 0.89997 0.64166 0.0
H433 H 0.22283 0.84984 0.61956 0.0
H434 H 0.14614 0.85738 0.70437 0.0
H435 H 0.16897 0.90827 0.72704 0.0
H436 H 0.95934 0.62539 0.51884 0.0
H437 H 1.006 0.66096 0.50855 0.0
H438 H 1.03243 0.65222 0.62858 0.0
H439 H 0.98566 0.61596 0.63897 0.0
Tb440 Tb 0.82204 0.12449 0.62441 0.0
Tb441 Tb 0.86538 0.07157 0.57916 0.0
C442 C 0.886 0.10063 0.66107 0.0
C443 C 0.79341 0.1576 0.71478 0.0
C444 C 0.79666 0.16674 0.79564 0.0
C445 C 0.77199 0.14739 0.77915 0.0
C446 C 0.76993 0.14361 0.73899 0.0
C447 C 0.82104 0.17177 0.73168 0.0
C448 C 0.82286 0.17597 0.77164 0.0
C449 C 0.78948 0.15643 0.67226 0.0
O450 O 0.85104 0.15388 0.58383 0.0
O451 O 0.89091 0.11672 0.56806 0.0
O452 O 0.83495 0.0944 0.533 0.0
O453 O 0.79668 0.12162 0.57031 0.0
O454 O 0.86994 1.02177 0.57163 0.0
O455 O 0.90487 0.05364 0.54551 0.0
O456 O 0.81574 0.05343 0.58164 0.0
O457 O 0.80761 0.07517 0.64013 0.0
O458 O 0.86748 0.12515 0.65431 0.0
O459 O 0.88322 0.07395 0.64023 0.0
C460 C 0.87947 0.14646 0.56794 0.0
O461 O 0.81276 0.1689 0.65157 0.0
O462 O 0.77968 0.12903 0.65809 0.0
C463 C 0.80735 0.11111 0.53679 0.0
C464 C 0.92265 0.9996 0.56142 0.0
C465 C 0.96356 0.9448 0.57262 0.0
C466 C 0.96369 0.96192 0.53745 0.0
C467 C 0.94351 0.98879 0.53195 0.0
C468 C 0.92366 0.98367 0.59734 0.0
C469 C 0.94391 0.95672 0.60289 0.0
C470 C 0.89687 1.0237 0.552 0.0
C471 C 0.79854 0.0546 0.61321 0.0
H472 H 0.75208 0.13868 0.79677 0.0
H473 H 0.7491 0.13116 0.72679 0.0
H474 H 0.84053 0.18132 0.714 0.0
H475 H 0.84311 0.18993 0.78275 0.0
H476 H 0.97888 0.95406 0.51364 0.0
H477 H 0.94322 1.00034 0.50392 0.0
H478 H 0.90776 0.99119 0.62067 0.0
H479 H 0.94293 0.94429 0.63032 0.0
Tb480 Tb 0.95146 0.26086 0.86458 0.0
Tb481 Tb 1.00076 0.21354 0.91068 0.0
C482 C 0.97491 0.19931 0.82672 0.0
C483 C 0.91164 0.33388 0.83207 0.0
C484 C 0.898 0.40042 0.83887 0.0
C485 C 0.89106 0.37901 0.86946 0.0
C486 C 0.89773 0.34627 0.86603 0.0
C487 C 0.92194 0.35537 0.80335 0.0
C488 C 0.91572 0.38837 0.807 0.0
C489 C 0.9164 0.29887 0.82701 0.0
O490 O 0.92053 0.22219 0.88784 0.0
O491 O 0.95381 0.19603 0.93196 0.0
O492 O 0.98784 0.24863 0.95694 0.0
O493 O 0.95202 0.28097 0.92223 0.0
O494 O 1.04168 0.18992 0.89034 0.0
O495 O 1.0259 0.18214 0.95024 0.0
O496 O 1.02987 0.25736 0.89761 0.0
O497 O 0.99138 0.29318 0.87648 0.0
O498 O 0.97583 0.2304 0.82277 0.0
O499 O 0.97709 0.18774 0.86177 0.0
C500 C 0.92479 0.20197 0.91697 0.0
O501 O 0.94534 0.29015 0.81578 0.0
O502 O 0.90516 0.28026 0.85427 0.0
C503 C 0.96754 0.27353 0.95422 0.0
C504 C 0.07582 0.15304 0.92596 0.0
C505 C 0.1291 0.10862 0.92689 0.0
C506 C 0.10697 0.11063 0.95816 0.0
C507 C 0.08073 0.13258 0.95773 0.0
C508 C 0.0982 0.15129 0.89511 0.0
C509 C 0.12427 0.12956 0.89555 0.0
C510 C 0.047 0.17504 0.92292 0.0
C511 C 1.02108 0.28673 0.88752 0.0
H512 H 0.87782 0.38664 0.89493 0.0
H513 H 0.89061 0.33054 0.88947 0.0
H514 H 0.93388 0.34653 0.77747 0.0
H515 H 0.92275 0.40399 0.78348 0.0
H516 H 0.10991 0.09526 0.9831 0.0
H517 H 0.06403 0.13315 0.98195 0.0
H518 H 0.09537 0.16649 0.86997 0.0
H519 H 0.14015 0.12863 0.87059 0.0
Tb520 Tb 0.32077 0.92936 0.91358 0.0
Tb521 Tb 0.36542 0.9947 0.92926 0.0
C522 C 0.36998 0.95272 0.85217 0.0
C523 C 0.2488 0.87516 0.90154 0.0
C524 C 0.18685 0.85692 0.8744 0.0
C525 C 0.2048 0.83653 0.89897 0.0
C526 C 0.23555 0.84552 0.9121 0.0
C527 C 0.22943 0.8975 0.88176 0.0
C528 C 0.19848 0.88849 0.86847 0.0
C529 C 0.28327 0.88127 0.90979 0.0
O530 O 0.36971 0.91032 0.92352 0.0
O531 O 0.39374 0.95431 0.95407 0.0
O532 O 0.32692 0.99072 0.97481 0.0
O533 O 0.3328 0.93748 0.97332 0.0
O534 O 0.38543 1.03423 0.90057 0.0
O535 O 0.39253 1.02937 0.96287 0.0
O536 O 0.32085 1.01032 0.89983 0.0
O537 O 0.28588 0.96909 0.91444 0.0
O538 O 0.33958 0.94373 0.85716 0.0
O539 O 0.38603 0.9675 0.88011 0.0
C540 C 0.39324 0.92311 0.94479 0.0
O541 O 0.30137 0.89099 0.88109 0.0
O542 O 0.28918 0.89727 0.94138 0.0
C543 C 0.32006 0.96241 0.99009 0.0
C544 C 0.41753 0.07747 0.92994 0.0
C545 C 0.45324 0.13702 0.92446 0.0
C546 C 0.44715 0.12228 0.96059 0.0
C547 C 0.42966 0.09299 0.96327 0.0
C548 C 0.42368 0.09213 0.89393 0.0
C549 C 0.44118 0.12122 0.89123 0.0
C550 C 0.39822 0.04655 0.93183 0.0
C551 C 0.29107 0.99924 0.90481 0.0
H552 H 0.19708 0.81206 0.90439 0.0
H553 H 0.24991 0.82833 0.92825 0.0
H554 H 0.23909 0.92094 0.87427 0.0
H555 H 0.18521 0.90497 0.85013 0.0
H556 H 0.45621 0.13319 0.98698 0.0
H557 H 0.42556 0.08257 0.9915 0.0
H558 H 0.41478 0.08117 0.86747 0.0
H559 H 0.44468 0.13164 0.86289 0.0
Tb560 Tb 0.63851 0.32063 0.86843 0.0
Tb561 Tb 0.58938 0.36021 0.92378 0.0
C562 C 0.61078 0.38196 0.83881 0.0
C563 C 0.70815 0.32877 0.81418 0.0
C564 C 0.74595 0.38502 0.80574 0.0
C565 C 0.72039 0.37848 0.78007 0.0
C566 C 0.70104 0.35108 0.78488 0.0
C567 C 0.73551 0.33408 0.83771 0.0
C568 C 0.75391 0.362 0.83386 0.0
C569 C 0.68391 0.30438 0.8258 0.0
O570 O 0.6646 0.36161 0.89405 0.0
O571 O 0.63647 0.37207 0.94991 0.0
O572 O 0.61161 0.3251 0.9644 0.0
O573 O 0.63747 0.29173 0.92007 0.0
O574 O 0.57276 0.406 0.94192 0.0
O575 O 0.54506 0.36366 0.95461 0.0
O576 O 0.56046 0.32016 0.89772 0.0
O577 O 0.59895 0.2864 0.87082 0.0
O578 O 0.61013 0.35132 0.83125 0.0
O579 O 0.6062 0.3907 0.87497 0.0
C580 C 0.66328 0.37393 0.92915 0.0
O581 O 0.6838 0.29799 0.86271 0.0
O582 O 0.65444 0.30829 0.8124 0.0
C583 C 0.6281 0.2985 0.95548 0.0
C584 C 0.51501 0.41268 0.94376 0.0
C585 C 0.45665 0.44729 0.92579 0.0
C586 C 0.4828 0.46233 0.94523 0.0
C587 C 0.5114 0.44529 0.9541 0.0
C588 C 0.48916 0.39759 0.92393 0.0
C589 C 0.46044 0.41462 0.91514 0.0
C590 C 0.54535 0.39502 0.95521 0.0
C591 C 0.56929 0.29173 0.8835 0.0
H592 H 0.71549 0.39441 0.75625 0.0
H593 H 0.68039 0.34754 0.76586 0.0
H594 H 0.74196 0.31725 0.86028 0.0
H595 H 0.77466 0.36538 0.8528 0.0
H596 H 0.48093 0.48718 0.95454 0.0
H597 H 0.5307 0.45761 0.96961 0.0
H598 H 0.491 0.37255 0.91534 0.0
H599 H 0.44122 0.40213 0.89973 0.0
Tb600 Tb 0.27096 0.63676 0.8805 0.0
Tb601 Tb 0.23339 0.57687 0.92055 0.0
C602 C 0.21031 0.60977 0.84462 0.0
C603 C 0.27946 0.69943 0.80844 0.0
C604 C 0.23776 0.73974 0.76664 0.0
C605 C 0.26558 0.75233 0.78517 0.0
C606 C 0.28633 0.73229 0.80584 0.0
C607 C 0.25369 0.68627 0.78663 0.0
C608 C 0.23297 0.70636 0.76576 0.0
C609 C 0.29475 0.68064 0.83927 0.0
O610 O 0.22834 0.65899 0.90925 0.0
O611 O 0.21337 0.61858 0.95171 0.0
O612 O 0.27343 0.58703 0.96222 0.0
O613 O 0.29054 0.63678 0.93873 0.0
O614 O 0.21126 0.53671 0.8963 0.0
O615 O 0.20933 0.54365 0.95915 0.0
O616 O 0.27768 0.55686 0.89317 0.0
O617 O 0.30964 0.60176 0.88811 0.0
O618 O 0.24135 0.61144 0.83809 0.0
O619 O 0.20154 0.60294 0.87995 0.0
C620 C 0.21222 0.64903 0.94021 0.0
O621 O 0.28265 0.68562 0.87364 0.0
O622 O 0.29862 0.65006 0.83211 0.0
C623 C 0.29116 0.61388 0.96498 0.0
C624 C 0.18138 0.49491 0.92984 0.0
C625 C 0.14386 0.43648 0.92765 0.0
C626 C 0.15296 0.451 0.96318 0.0
C627 C 0.17138 0.47984 0.96426 0.0
C628 C 0.17244 0.48022 0.89452 0.0
C629 C 0.15413 0.45168 0.89344 0.0
C630 C 0.20099 0.5256 0.92938 0.0
C631 C 0.30663 0.57035 0.88969 0.0
H632 H 0.26925 0.77808 0.78751 0.0
H633 H 0.3059 0.74289 0.82267 0.0
H634 H 0.24804 0.66087 0.78811 0.0
H635 H 0.21171 0.69625 0.75178 0.0
H636 H 0.14545 0.44035 0.99027 0.0
H637 H 0.17772 0.49033 0.992 0.0
H638 H 0.17963 0.49079 0.86725 0.0
H639 H 0.14843 0.44127 0.86547 0.0
H640 H 0.65716 0.15023 0.32562 0.0
H641 H 0.60261 0.21729 0.25654 0.0
H642 H 0.61761 0.18783 0.19781 0.0
H643 H 0.65314 0.14881 0.1652 0.0
H644 H 0.70984 0.08227 0.23224 0.0
H645 H 0.6876 0.10562 0.29224 0.0
C646 C 0.64802 0.15791 0.29773 0.0
C647 C 0.62871 0.18609 0.29555 0.0
C648 C 0.65776 0.14128 0.26356 0.0
C649 C 0.61744 0.19586 0.25913 0.0
C650 C 0.62611 0.17901 0.22547 0.0
C651 C 0.6598 0.1386 0.19293 0.0
C652 C 0.68288 0.11344 0.19404 0.0
C653 C 0.64727 0.15252 0.22716 0.0
C654 C 0.69167 0.10105 0.23032 0.0
C655 C 0.67922 0.11478 0.26471 0.0
H656 H 0.48435 0.69476 0.2498 0.0
H657 H 0.44697 0.63869 0.15438 0.0
H658 H 0.41356 0.60719 0.1989 0.0
H659 H 0.39074 0.59855 0.26501 0.0
H660 H 0.43076 0.65235 0.36068 0.0
H661 H 0.46675 0.68149 0.31657 0.0
C662 C 0.46943 0.6752 0.2388 0.0
C663 C 0.46847 0.66927 0.19848 0.0
C664 C 0.45034 0.65673 0.26486 0.0
C665 C 0.44871 0.64378 0.18507 0.0
C666 C 0.42935 0.62574 0.21064 0.0
C667 C 0.40788 0.61613 0.27625 0.0
C668 C 0.408 0.62311 0.31633 0.0
C669 C 0.42944 0.6323 0.2506 0.0
C670 C 0.43025 0.64622 0.33018 0.0
C671 C 0.45083 0.66304 0.30485 0.0
H672 H 0.99395 0.379 0.25943 0.0
H673 H 0.93202 0.4068 0.35442 0.0
H674 H 0.89509 0.43377 0.3099 0.0
H675 H 0.87872 0.44802 0.2431 0.0
H676 H 0.94392 0.42663 0.1489 0.0
H677 H 0.98104 0.39938 0.19341 0.0
C678 C 0.97262 0.39136 0.27038 0.0
C679 C 0.96583 0.39055 0.31042 0.0
C680 C 0.95189 0.40817 0.24454 0.0
C681 C 0.93804 0.40689 0.32396 0.0
C682 C 0.91674 0.42234 0.29839 0.0
C683 C 0.90128 0.43778 0.23243 0.0
C684 C 0.90839 0.43945 0.19257 0.0
C685 C 0.92317 0.42293 0.25852 0.0
C686 C 0.93789 0.4261 0.17939 0.0
C687 C 0.95911 0.41028 0.20488 0.0
H688 H 0.16392 0.93787 0.34308 0.0
H689 H 0.23102 0.98712 0.26803 0.0
H690 H 0.20506 0.96272 0.21135 0.0
H691 H 0.16567 0.92399 0.18269 0.0
H692 H 0.10224 0.87068 0.2582 0.0
H693 H 0.12379 0.89992 0.3143 0.0
C694 C 0.17229 0.94391 0.31427 0.0
C695 C 0.19909 0.96498 0.31003 0.0
C696 C 0.1579 0.92871 0.28154 0.0
C697 C 0.21022 0.97148 0.27234 0.0
C698 C 0.19544 0.95734 0.23978 0.0
C699 C 0.15608 0.91929 0.21133 0.0
C700 C 0.13186 0.89541 0.21596 0.0
C701 C 0.16955 0.93548 0.24392 0.0
C702 C 0.12056 0.88905 0.25359 0.0
C703 C 0.13301 0.90575 0.28582 0.0
H704 H 0.42708 0.91979 0.8484 0.0
H705 H 0.35226 0.96028 0.7764 0.0
H706 H 0.38008 0.93997 0.71838 0.0
H707 H 0.42315 0.90597 0.68827 0.0
H708 H 0.49392 0.86026 0.76163 0.0
H709 H 0.47039 0.88674 0.81848 0.0
C710 C 0.4171 0.92445 0.81993 0.0
C711 C 0.38777 0.94184 0.81674 0.0
C712 C 0.43248 0.91134 0.78678 0.0
C713 C 0.37482 0.94712 0.77969 0.0
C714 C 0.39078 0.93546 0.74648 0.0
C715 C 0.43386 0.90247 0.71661 0.0
C716 C 0.46076 0.88158 0.72053 0.0
C717 C 0.41926 0.91688 0.74962 0.0
C718 C 0.47357 0.87648 0.75769 0.0
C719 C 0.45999 0.89154 0.79029 0.0
H720 H 0.61254 0.37917 0.75909 0.0
H721 H 0.64963 0.43386 0.85579 0.0
H722 H 0.68506 0.46431 0.81242 0.0
H723 H 0.70957 0.47241 0.74694 0.0
H724 H 0.67018 0.41953 0.65014 0.0
H725 H 0.6321 0.39183 0.69301 0.0
C726 C 0.62777 0.39829 0.77061 0.0
C727 C 0.62797 0.40413 0.81095 0.0
C728 C 0.64805 0.41616 0.7452 0.0
C729 C 0.64832 0.42893 0.82504 0.0
C730 C 0.66888 0.44635 0.80013 0.0
C731 C 0.69213 0.45538 0.73516 0.0
C732 C 0.69286 0.44817 0.69512 0.0
C733 C 0.66944 0.4399 0.76014 0.0
C734 C 0.67016 0.42576 0.68061 0.0
C735 C 0.64834 0.40977 0.70524 0.0
H736 H 0.124 0.70754 0.74885 0.0
H737 H 0.15481 0.64664 0.65467 0.0
H738 H 0.18244 0.61087 0.70021 0.0
H739 H 0.20254 0.59982 0.76667 0.0
H740 H 0.16787 0.65806 0.86144 0.0
H741 H 0.1368 0.69139 0.81643 0.0
C742 C 0.13577 0.6858 0.73851 0.0
C743 C 0.13681 0.67947 0.69837 0.0
C744 C 0.15122 0.66492 0.76511 0.0
C745 C 0.15294 0.65164 0.68539 0.0
C746 C 0.16909 0.63135 0.71146 0.0
C747 C 0.18761 0.61939 0.77748 0.0
C748 C 0.18757 0.62636 0.81747 0.0
C749 C 0.16908 0.63812 0.75134 0.0
C750 C 0.16815 0.65191 0.83095 0.0
C751 C 0.15047 0.67114 0.80512 0.0
H752 H 0.933 0.14516 0.6631 0.0
H753 H 0.88974 0.07059 0.732 0.0
H754 H 0.91608 0.09293 0.79024 0.0
H755 H 0.94557 0.13875 0.82279 0.0
H756 H 0.98569 0.21418 0.75172 0.0
H757 H 0.96677 0.1866 0.6937 0.0
C758 C 0.93043 0.13298 0.69064 0.0
C759 C 0.9101 0.10566 0.69286 0.0
C760 C 0.94459 0.14676 0.72404 0.0
C761 C 0.90609 0.09091 0.72907 0.0
C762 C 0.92072 0.10415 0.76256 0.0
C763 C 0.95077 0.14876 0.79456 0.0
C764 C 0.96704 0.17882 0.79197 0.0
C765 C 0.93918 0.1328 0.76067 0.0
C766 C 0.97314 0.19139 0.75494 0.0
C767 C 0.9623 0.17557 0.72155 0.0
H768 H 0.39975 0.13431 0.41641 0.0
H769 H 0.47117 0.05886 0.40498 0.0
H770 H 0.42779 1.01916 0.39638 0.0
H771 H 0.36938 1.00521 0.39359 0.0
H772 H 0.29767 0.08049 0.40405 0.0
H773 H 0.34108 0.1205 0.41151 0.0
C774 C 0.4059 0.10917 0.41221 0.0
C775 C 0.43905 0.09984 0.41151 0.0
C776 C 0.3806 0.08625 0.40702 0.0
C777 C 0.44617 0.06705 0.40536 0.0
C778 C 0.42125 0.0442 0.4006 0.0
C779 C 0.36312 1.03039 0.39725 0.0
C780 C 0.32997 0.03958 0.39817 0.0
C781 C 0.38835 0.05343 0.40149 0.0
C782 C 0.32273 0.07248 0.40299 0.0
C783 C 0.34765 0.09546 0.40743 0.0
H784 H 0.52435 0.43828 0.39501 0.0
H785 H 0.44353 0.38272 0.43824 0.0
H786 H 0.47399 0.33304 0.428 0.0
H787 H 0.52421 0.30472 0.40802 0.0
H788 H 0.60608 0.36019 0.36756 0.0
H789 H 0.57479 0.40983 0.37502 0.0
C790 C 0.51333 0.4153 0.40203 0.0
C791 C 0.48155 0.4146 0.41771 0.0
C792 C 0.53127 0.38647 0.3964 0.0
C793 C 0.46799 0.38436 0.42677 0.0
C794 C 0.48539 0.35575 0.42068 0.0
C795 C 0.53511 0.3276 0.40037 0.0
C796 C 0.56754 0.32838 0.38683 0.0
C797 C 0.51713 0.35641 0.40565 0.0
C798 C 0.58124 0.35856 0.37785 0.0
C799 C 0.56332 0.38712 0.38222 0.0
H800 H 0.19234 0.44871 0.41556 0.0
H801 H 0.1221 0.5255 0.42156 0.0
H802 H 0.16523 0.56505 0.40955 0.0
H803 H 0.22374 0.57828 0.39904 0.0
H804 H 0.29317 0.50069 0.39079 0.0
H805 H 0.24991 0.46157 0.40179 0.0
C806 C 0.1864 0.47411 0.41434 0.0
C807 C 0.15374 0.4839 0.41982 0.0
C808 C 0.2114 0.49682 0.40686 0.0
C809 C 0.14676 0.51702 0.41738 0.0
C810 C 0.17156 0.53976 0.4106 0.0
C811 C 0.22942 0.5528 0.39921 0.0
C812 C 0.26208 0.54277 0.3939 0.0
C813 C 0.20408 0.53003 0.40543 0.0
C814 C 0.26856 0.50947 0.3945 0.0
C815 C 0.24371 0.48691 0.40099 0.0
H816 H 0.08657 0.13825 0.40952 0.0
H817 H 0.17148 0.19358 0.44108 0.0
H818 H 0.14115 0.24357 0.43131 0.0
H819 H 0.08922 0.27214 0.41559 0.0
H820 H 1.00501 0.21494 0.38503 0.0
H821 H 1.03605 0.16599 0.39315 0.0
C822 C 0.09854 0.16116 0.41462 0.0
C823 C 0.13146 0.1617 0.42627 0.0
C824 C 0.08086 0.18994 0.4092 0.0
C825 C 0.14637 0.19202 0.43176 0.0
C826 C 0.12889 0.2208 0.4264 0.0
C827 C 0.07772 0.249 0.41049 0.0
C828 C 0.04452 0.24778 0.39962 0.0
C829 C 0.09595 0.22017 0.4153 0.0
C830 C 1.03032 0.21722 0.39335 0.0
C831 C 0.04812 0.18888 0.39803 0.0
H832 H 0.94031 1.0017 0.1404 0.0
H833 H 0.911 0.95202 0.036 0.0
H834 H 0.85916 0.98037 0.03692 0.0
H835 H 0.8213 1.01881 0.06722 0.0
H836 H 0.84984 0.06914 0.1713 0.0
H837 H 0.90207 0.04065 0.17088 0.0
C838 C 0.92259 0.9968 0.11789 0.0
C839 C 0.93023 0.97446 0.08801 0.0
C840 C 0.89226 1.01322 0.11868 0.0
C841 C 0.90664 0.96923 0.05902 0.0
C842 C 0.87662 0.98532 0.0597 0.0
C843 C 0.83871 1.02346 0.09015 0.0
C844 C 0.83105 0.04608 0.11959 0.0
C845 C 0.86904 1.00727 0.08942 0.0
C846 C 0.85458 0.05186 0.14843 0.0
C847 C 0.88464 1.03556 0.14812 0.0
H848 H 0.52015 0.84992 0.13863 0.0
H849 H 0.59218 0.78178 0.09908 0.0
H850 H 0.63058 0.82548 0.0879 0.0
H851 H 0.64374 0.88333 0.08697 0.0
H852 H 0.57181 0.95204 0.12511 0.0
H853 H 0.53411 0.90818 0.13957 0.0
C854 C 0.54439 0.84453 0.12809 0.0
C855 C 0.55298 0.81221 0.1199 0.0
C856 C 0.56662 0.87009 0.12124 0.0
C857 C 0.58456 0.80613 0.10577 0.0
C858 C 0.60669 0.83125 0.09922 0.0
C859 C 0.61979 0.88888 0.09828 0.0
C860 C 0.61096 0.92137 0.10473 0.0
C861 C 0.59792 0.86338 0.10634 0.0
C862 C 0.57979 0.92754 0.12014 0.0
C863 C 0.55798 0.90234 0.12824 0.0
H864 H 0.65082 0.55799 0.11759 0.0
H865 H 0.69986 0.63233 0.05316 0.0
H866 H 0.75189 0.60531 0.06281 0.0
H867 H 0.78387 0.55928 0.08764 0.0
H868 H 0.7344 0.48389 0.14959 0.0
H869 H 0.68287 0.51269 0.14359 0.0
C870 C 0.67289 0.56844 0.10587 0.0
C871 C 0.67103 0.59717 0.08431 0.0
C872 C 0.70302 0.55261 0.11141 0.0
C873 C 0.70013 0.61 0.06919 0.0
C874 C 0.73011 0.59466 0.07499 0.0
C875 C 0.76195 0.54955 0.10057 0.0
C876 C 0.76326 0.51963 0.11961 0.0
C877 C 0.73193 0.56584 0.09589 0.0
C878 C 0.73428 0.50698 0.13515 0.0
C879 C 0.70467 0.52338 0.13151 0.0
H880 H 1.02726 0.77001 0.07157 0.0
H881 H 0.07514 0.73321 0.17325 0.0
H882 H 1.04311 0.68402 0.16929 0.0
H883 H 1.00281 0.65005 0.13641 0.0
H884 H 0.95447 0.68518 0.03428 0.0
H885 H 0.98552 0.73546 0.03861 0.0
C886 C 1.03033 0.75143 0.09316 0.0
C887 C 0.05365 0.75579 0.1229 0.0
C888 C 1.01197 0.72239 0.09037 0.0
C889 C 0.05752 0.73091 0.15008 0.0
C890 C 1.03918 0.70253 0.14781 0.0
C891 C 0.99864 0.66874 0.11521 0.0
C892 C 0.97594 0.66339 0.08508 0.0
C893 C 1.01653 0.69781 0.11796 0.0
C894 C 0.97185 0.68804 0.05759 0.0
C895 C 0.98951 0.7171 0.06024 0.0
H896 H 0.77153 1.01478 0.5585 0.0
H897 H 0.75565 0.04999 0.67451 0.0
H898 H 0.70471 1.01924 0.67796 0.0
H899 H 0.66389 0.98273 0.64756 0.0
H900 H 0.68081 0.94776 0.53146 0.0
H901 H 0.73137 0.97832 0.52855 0.0
C902 C 0.75712 1.01568 0.58475 0.0
C903 C 0.76791 1.03473 0.61635 0.0
C904 C 0.72758 0.9981 0.58641 0.0
C905 C 0.74839 1.03555 0.6498 0.0
C906 C 0.71907 1.01796 0.65172 0.0
C907 C 0.67865 0.98149 0.62164 0.0
C908 C 0.66783 0.96271 0.58966 0.0
C909 C 0.7083 0.99915 0.62016 0.0
C910 C 0.68761 0.96219 0.55634 0.0
C911 C 0.71692 0.97956 0.55473 0.0
H912 H 0.58758 0.63558 0.63124 0.0
H913 H 0.65086 0.68427 0.55086 0.0
H914 H 0.61927 0.73358 0.55845 0.0
H915 H 0.57279 0.76354 0.58739 0.0
H916 H 0.5096 0.71421 0.66729 0.0
H917 H 0.54211 0.66549 0.66089 0.0
C918 C 0.59474 0.65697 0.61553 0.0
C919 C 0.62174 0.65561 0.59021 0.0
C920 C 0.57639 0.68565 0.62012 0.0
C921 C 0.63 0.68391 0.56998 0.0
C922 C 0.61202 0.71244 0.57456 0.0
C923 C 0.56635 0.74228 0.60378 0.0
C924 C 0.53861 0.74299 0.62799 0.0
C925 C 0.58505 0.7137 0.5995 0.0
C926 C 0.53063 0.71475 0.64842 0.0
C927 C 0.54926 0.68665 0.64474 0.0
H928 H 0.95778 0.56022 0.61838 0.0
H929 H 0.90731 0.6351 0.55685 0.0
H930 H 0.8557 0.60689 0.56583 0.0
H931 H 0.82435 0.55996 0.58932 0.0
H932 H 0.87489 0.48312 0.64708 0.0
H933 H 0.9262 0.51282 0.64174 0.0
C934 C 0.93547 0.57045 0.60713 0.0
C935 C 0.9368 0.5999 0.58675 0.0
C936 C 0.90553 0.55362 0.6118 0.0
C937 C 0.9074 0.61243 0.57221 0.0
C938 C 0.87768 0.59631 0.57749 0.0
C939 C 0.84649 0.54987 0.60126 0.0
C940 C 0.84536 0.51933 0.61909 0.0
C941 C 0.87635 0.56677 0.59703 0.0
C942 C 0.8747 0.50654 0.63345 0.0
C943 C 0.90422 0.52355 0.6303 0.0
H944 H 0.99796 0.92119 0.63545 0.0
H945 H 0.97041 0.89718 0.51829 0.0
H946 H 0.99998 0.8466 0.52262 0.0
H947 H 1.03443 0.80898 0.55883 0.0
H948 H 0.06318 0.83249 0.67561 0.0
H949 H 1.03216 0.8827 0.67237 0.0
C950 C 0.99824 0.90484 0.61091 0.0
C951 C 0.98204 0.91358 0.57638 0.0
C952 C 1.01546 0.87535 0.61355 0.0
C953 C 0.98306 0.89183 0.54497 0.0
C954 C 0.99982 0.86258 0.5475 0.0
C955 C 1.0337 0.82484 0.58382 0.0
C956 C 0.0511 0.81654 0.61756 0.0
C957 C 1.01622 0.85407 0.58154 0.0
C958 C 0.05 0.83791 0.6493 0.0
C959 C 1.03229 0.86681 0.64741 0.0
H960 H 0.19113 0.11573 0.89762 0.0
H961 H 0.12916 0.04628 0.95393 0.0
H962 H 0.17267 1.00633 0.95068 0.0
H963 H 0.22856 0.99064 0.9316 0.0
H964 H 0.29039 0.06048 0.87577 0.0
H965 H 0.24653 0.10002 0.87809 0.0
C966 C 0.18686 0.09179 0.90891 0.0
C967 C 0.15648 0.08438 0.92604 0.0
C968 C 0.21203 0.06865 0.90664 0.0
C969 C 0.15214 0.05318 0.94109 0.0
C970 C 0.17703 1.03008 0.9389 0.0
C971 C 0.23241 1.0144 0.91955 0.0
C972 C 0.26299 1.02228 0.90329 0.0
C973 C 0.20709 1.03746 0.92163 0.0
C974 C 0.26732 0.05346 0.88834 0.0
C975 C 0.24218 0.07624 0.88979 0.0
H976 H 0.4965 0.15694 0.86795 0.0
H977 H 0.45155 0.18954 0.97384 0.0
H978 H 0.48085 0.24063 0.96926 0.0
H979 H 0.52089 0.27631 0.93604 0.0
H980 H 0.56657 0.24246 0.83126 0.0
H981 H 0.53499 0.19269 0.83413 0.0
C982 C 0.49269 0.17524 0.88992 0.0
C983 C 0.47155 0.16875 0.92134 0.0
C984 C 0.50976 0.2049 0.88714 0.0
C985 C 0.46781 0.1931 0.94961 0.0
C986 C 0.48447 0.22267 0.94684 0.0
C987 C 0.52344 0.25833 0.9134 0.0
C988 C 0.54599 0.26366 0.88311 0.0
C989 C 0.50566 0.22893 0.9158 0.0
C990 C 0.54939 0.23944 0.85473 0.0
C991 C 0.53138 0.21072 0.85647 0.0
H992 H 0.44871 0.51071 0.90421 0.0
H993 H 0.39351 0.42485 0.92918 0.0
H994 H 0.34283 0.45407 0.91814 0.0
H995 H 0.31345 0.50499 0.90396 0.0
H996 H 0.36935 0.59066 0.87988 0.0
H997 H 0.41971 0.56076 0.88826 0.0
C998 C 0.42566 0.49829 0.90748 0.0
C999 C 0.42542 0.46535 0.91768 0.0
C1000 C 0.39631 0.51538 0.90124 0.0
C1001 C 0.39493 0.44993 0.92096 0.0
C1002 C 0.36572 0.46677 0.91486 0.0
C1003 C 0.3366 0.51707 0.90004 0.0
C1004 C 0.33713 0.55029 0.89108 0.0
C1005 C 0.36599 0.49961 0.90518 0.0
C1006 C 0.36772 0.56527 0.88658 0.0
C1007 C 0.39677 0.54814 0.89152 0.0
H1008 H 0.09585 0.42007 0.87567 0.0
H1009 H 0.14647 0.38306 0.97523 0.0
H1010 H 0.11503 0.333 0.97082 0.0
H1011 H 0.0721 0.29925 0.93862 0.0
H1012 H 1.02181 0.33809 0.83979 0.0
H1013 H 0.05451 0.38692 0.8435 0.0
C1014 C 0.10044 0.40102 0.89626 0.0
C1015 C 0.12391 0.40577 0.9257 0.0
C1016 C 0.0823 0.3721 0.89348 0.0
C1017 C 0.12852 0.38066 0.95246 0.0
C1018 C 0.11063 0.35173 0.94976 0.0
C1019 C 0.06871 0.31818 0.91755 0.0
C1020 C 0.04452 0.31456 0.88867 0.0
C1021 C 0.08739 0.34704 0.92032 0.0
C1022 C 1.04015 0.33989 0.86223 0.0
C1023 C 0.05884 0.36804 0.86439 0.0
H1024 H 0.79364 0.35828 0.22939 0.0
H1025 H 0.76012 0.27454 0.16746 0.0
H1026 H 0.81107 0.27237 0.131 0.0
H1027 H 0.86993 0.28428 0.13505 0.0
H1028 H 0.90214 0.36751 0.19832 0.0
H1029 H 0.84663 0.38233 0.21245 0.0
C1030 C 0.79683 0.34039 0.20675 0.0
C1031 C 0.7739 0.31564 0.20208 0.0
C1032 C 0.82618 0.33931 0.18628 0.0
C1033 C 0.77813 0.293 0.17224 0.0
C1034 C 0.80716 0.29195 0.1513 0.0
C1035 C 0.86463 0.30668 0.15003 0.0
C1036 C 0.88964 0.32198 0.17107 0.0
C1037 C 0.83232 0.31348 0.16048 0.0
C1038 C 0.88307 0.35309 0.18546 0.0
C1039 C 0.85113 0.36123 0.19467 0.0
H1040 H 0.27966 0.76958 0.2061 0.0
H1041 H 0.36957 0.78748 0.26824 0.0
H1042 H 0.38039 0.83351 0.22808 0.0
H1043 H 0.35778 0.87616 0.19021 0.0
H1044 H 0.25836 0.8702 0.15353 0.0
H1045 H 0.25906 0.81191 0.16243 0.0
C1046 C 0.30158 0.78353 0.21116 0.0
C1047 C 0.32339 0.77489 0.24094 0.0
C1048 C 0.30618 0.81228 0.19082 0.0
C1049 C 0.35223 0.7929 0.24568 0.0
C1050 C 0.35853 0.81955 0.22265 0.0
C1051 C 0.3362 0.86215 0.18354 0.0
C1052 C 0.3064 0.87791 0.1772 0.0
C1053 C 0.33474 0.83055 0.19706 0.0
C1054 C 0.28096 0.85892 0.16196 0.0
C1055 C 0.28088 0.82565 0.16875 0.0
H1056 H 0.32099 0.65809 0.13697 0.0
H1057 H 0.33344 0.65864 0.26082 0.0
H1058 H 0.28098 0.63237 0.26876 0.0
H1059 H 0.22559 0.63283 0.24275 0.0
H1060 H 0.21126 0.64801 0.12106 0.0
H1061 H 0.26874 0.6407 0.10935 0.0
C1062 C 0.3126 0.65156 0.16564 0.0
C1063 C 0.32972 0.6626 0.19835 0.0
C1064 C 0.28117 0.6392 0.17022 0.0
C1065 C 0.31992 0.65201 0.23515 0.0
C1066 C 0.28974 0.63702 0.23978 0.0
C1067 C 0.23504 0.63357 0.21347 0.0
C1068 C 0.21537 0.64625 0.18388 0.0
C1069 C 0.26884 0.63415 0.2079 0.0
C1070 C 0.22646 0.64207 0.14555 0.0
C1071 C 0.25975 0.63843 0.13869 0.0
H1072 H 0.65865 0.35978 0.21095 0.0
H1073 H 0.63633 0.33796 0.09205 0.0
H1074 H 0.61991 0.28368 0.1099 0.0
H1075 H 0.63985 0.24027 0.15192 0.0
H1076 H 0.67043 0.26223 0.2678 0.0
H1077 H 0.65226 0.3178 0.26032 0.0
C1078 C 0.64815 0.34397 0.1892 0.0
C1079 C 0.65182 0.35139 0.14974 0.0
C1080 C 0.64117 0.3121 0.19945 0.0
C1081 C 0.63584 0.33172 0.12242 0.0
C1082 C 0.62688 0.30042 0.13259 0.0
C1083 C 0.6414 0.25702 0.17605 0.0
C1084 C 0.6605 0.24893 0.20842 0.0
C1085 C 0.63391 0.28949 0.16997 0.0
C1086 C 0.65913 0.26919 0.24095 0.0
C1087 C 0.64894 0.30104 0.23656 0.0
H1088 H 0.21453 0.90131 0.7667 0.0
H1089 H 0.26207 0.94926 0.67267 0.0
H1090 H 0.31504 0.9348 0.69935 0.0
H1091 H 0.34341 0.8897 0.73075 0.0
H1092 H 0.29329 0.83227 0.81522 0.0
H1093 H 0.24533 0.86645 0.80934 0.0
C1094 C 0.23639 0.90925 0.75246 0.0
C1095 C 0.23438 0.92268 0.71522 0.0
C1096 C 0.26625 0.89713 0.76529 0.0
C1097 C 0.26288 0.93654 0.69992 0.0
C1098 C 0.29325 0.92761 0.71473 0.0
C1099 C 0.32277 0.88618 0.74979 0.0
C1100 C 0.32171 0.85879 0.77345 0.0
C1101 C 0.29481 0.9049 0.74463 0.0
C1102 C 0.29446 0.85334 0.79691 0.0
C1103 C 0.26706 0.87293 0.7935 0.0
H1104 H 0.73729 0.1893 0.82015 0.0
H1105 H 0.83712 0.19353 0.85452 0.0
H1106 H 0.83676 0.25217 0.84819 0.0
H1107 H 0.81588 0.2956 0.80618 0.0
H1108 H 0.72518 0.27874 0.74482 0.0
H1109 H 0.71409 0.23329 0.78501 0.0
C1110 C 0.75901 0.20311 0.82687 0.0
C1111 C 0.78897 0.18713 0.83032 0.0
C1112 C 0.76031 0.23515 0.81477 0.0
C1113 C 0.81454 0.20526 0.84681 0.0
C1114 C 0.81474 0.23879 0.84172 0.0
C1115 C 0.79383 0.282 0.80089 0.0
C1116 C 0.77211 0.29092 0.77104 0.0
C1117 C 0.78917 0.25302 0.82081 0.0
C1118 C 0.74279 0.27339 0.76702 0.0
C1119 C 0.73623 0.24689 0.79016 0.0
H1120 H 0.8767 0.43158 0.773 0.0
H1121 H 0.87481 0.44238 0.8967 0.0
H1122 H 0.81597 0.44943 0.89499 0.0
H1123 H 0.76795 0.42576 0.86179 0.0
H1124 H 0.77178 0.40888 0.73889 0.0
H1125 H 0.82643 0.43178 0.73647 0.0
C1126 C 0.86389 0.43685 0.79965 0.0
C1127 C 0.87887 0.431 0.83561 0.0
C1128 C 0.82988 0.43856 0.79833 0.0
C1129 C 0.86282 0.44281 0.8688 0.0
C1130 C 0.829 0.44649 0.86794 0.0
C1131 C 0.78021 0.42856 0.83419 0.0
C1132 C 0.7673 0.41344 0.80104 0.0
C1133 C 0.81227 0.43999 0.83339 0.0
C1134 C 0.78218 0.41875 0.76511 0.0
C1135 C 0.81348 0.43174 0.76371 0.0
H1136 H 0.18328 0.86775 0.7975 0.0
H1137 H 0.13864 0.81031 0.8855 0.0
H1138 H 0.14077 0.7632 0.84311 0.0
H1139 H 0.17829 0.73656 0.79806 0.0
H1140 H 0.23763 0.79371 0.72206 0.0
H1141 H 0.20983 0.84209 0.74329 0.0
C1142 C 0.17307 0.84521 0.8069 0.0
C1143 C 0.16431 0.84158 0.84589 0.0
C1144 C 0.17919 0.81762 0.78477 0.0
C1145 C 0.14767 0.81324 0.85629 0.0
C1146 C 0.14964 0.78605 0.8323 0.0
C1147 C 0.18332 0.75932 0.78402 0.0
C1148 C 0.21045 0.7619 0.75938 0.0
C1149 C 0.16888 0.78736 0.79875 0.0
C1150 C 0.217 0.79137 0.74137 0.0
C1151 C 0.20114 0.81915 0.7538 0.0
H1152 H 0.73222 0.19188 0.4117 0.0
H1153 H 0.65095 0.15444 0.47694 0.0
H1154 H 0.68746 0.1198 0.51297 0.0
H1155 H 0.74263 0.10422 0.53146 0.0
H1156 H 0.825 0.14163 0.46922 0.0
H1157 H 0.78811 0.17123 0.42602 0.0
C1158 C 0.72241 0.17587 0.43345 0.0
C1159 C 0.68858 0.17636 0.44166 0.0
C1160 C 0.74383 0.15574 0.45461 0.0
C1161 C 0.67663 0.15514 0.46996 0.0
C1162 C 0.69758 0.13512 0.4907 0.0
C1163 C 0.75251 0.11807 0.50763 0.0
C1164 C 0.78656 0.12038 0.50333 0.0
C1165 C 0.73122 0.13574 0.48393 0.0
C1166 C 0.79896 0.13879 0.47267 0.0
C1167 C 0.77778 0.15618 0.4484 0.0
H1168 H 0.46898 0.72262 0.56058 0.0
H1169 H 0.44256 0.80283 0.48891 0.0
H1170 H 0.41698 0.76574 0.44211 0.0
H1171 H 0.39661 0.71044 0.42571 0.0
H1172 H 0.42399 0.63122 0.49939 0.0
H1173 H 0.45452 0.66774 0.54075 0.0
C1174 C 0.45844 0.73192 0.53411 0.0
C1175 C 0.45803 0.76546 0.52808 0.0
C1176 C 0.44329 0.71051 0.50791 0.0
C1177 C 0.44388 0.77714 0.4939 0.0
C1178 C 0.42881 0.75588 0.46743 0.0
C1179 C 0.40957 0.70108 0.45052 0.0
C1180 C 0.40739 0.66783 0.45934 0.0
C1181 C 0.42746 0.72251 0.47471 0.0
C1182 C 0.42472 0.65645 0.49166 0.0
C1183 C 0.44234 0.67741 0.51555 0.0
H1184 H 0.92709 0.42479 0.45943 0.0
H1185 H 0.87012 0.34404 0.4187 0.0
H1186 H 0.82135 0.36727 0.44713 0.0
H1187 H 0.79533 0.40763 0.48894 0.0
H1188 H 0.85021 0.48964 0.52881 0.0
H1189 H 0.89868 0.46951 0.49484 0.0
C1190 C 0.90395 0.41244 0.45655 0.0
C1191 C 0.90264 0.38236 0.4371 0.0
C1192 C 0.87535 0.42638 0.47259 0.0
C1193 C 0.87218 0.36707 0.43334 0.0
C1194 C 0.84409 0.38036 0.44969 0.0
C1195 C 0.81758 0.42173 0.48897 0.0
C1196 C 0.81886 0.45045 0.51082 0.0
C1197 C 0.84541 0.4097 0.46987 0.0
C1198 C 0.84817 0.468 0.51133 0.0
C1199 C 0.87612 0.4561 0.49245 0.0
H1200 H 0.11862 0.84147 0.53302 0.0
H1201 H 0.16856 0.76187 0.47956 0.0
H1202 H 0.19976 0.79976 0.43924 0.0
H1203 H 0.21765 0.85675 0.42533 0.0
H1204 H 0.16841 0.93458 0.48436 0.0
H1205 H 0.13284 0.89645 0.51629 0.0
C1206 C 0.13574 0.83223 0.5118 0.0
C1207 C 0.14091 0.79871 0.50922 0.0
C1208 C 0.15452 0.85415 0.49026 0.0
C1209 C 0.16343 0.78738 0.48171 0.0
C1210 C 0.18175 0.8092 0.45913 0.0
C1211 C 0.19891 0.86533 0.44487 0.0
C1212 C 0.19627 0.89883 0.45259 0.0
C1213 C 0.17832 0.84282 0.46408 0.0
C1214 C 0.17167 0.90921 0.47809 0.0
C1215 C 0.15103 0.88733 0.49637 0.0
H1216 H 0.31194 0.91113 0.03602 0.0
H1217 H 0.2621 0.99655 0.99847 0.0
H1218 H 0.21114 0.97622 0.02702 0.0
H1219 H 0.17969 0.93131 0.05914 0.0
H1220 H 0.23183 0.84579 0.09292 0.0
H1221 H 0.28233 0.86866 0.06901 0.0
C1222 C 0.29011 0.92576 0.03474 0.0
C1223 C 0.29115 0.95555 0.01529 0.0
C1224 C 0.26089 0.91344 0.05007 0.0
C1225 C 0.26239 0.97387 0.01376 0.0
C1226 C 0.23305 0.96193 0.02966 0.0
C1227 C 0.20215 0.91779 0.0613 0.0
C1228 C 0.20174 0.88681 0.07848 0.0
C1229 C 0.23177 0.93129 0.0472 0.0
C1230 C 0.2312 0.86974 0.08066 0.0
C1231 C 0.26027 0.88281 0.06686 0.0
H1232 H 0.70343 0.21477 0.07955 0.0
H1233 H 0.67892 0.14011 0.99726 0.0
H1234 H 0.64744 0.17863 0.95962 0.0
H1235 H 0.62948 0.23391 0.94752 0.0
H1236 H 0.65237 0.3093 0.02915 0.0
H1237 H 0.68084 0.27009 0.07021 0.0
C1238 C 0.69118 0.20691 0.05342 0.0
C1239 C 0.69406 0.17441 0.04113 0.0
C1240 C 0.67245 0.22931 0.03202 0.0
C1241 C 0.67743 0.16477 0.00746 0.0
C1242 C 0.65932 0.18685 0.98587 0.0
C1243 C 0.64019 0.24174 0.97468 0.0
C1244 C 0.63863 0.27461 0.98523 0.0
C1245 C 0.65693 0.21919 0.99761 0.0
C1246 C 0.65266 0.2842 0.02056 0.0
C1247 C 0.6694 0.26178 0.04373 0.0
H1248 H 0.29608 0.66161 0.01787 0.0
H1249 H 0.34613 0.57794 0.97482 0.0
H1250 H 0.39657 0.59602 0.00639 0.0
H1251 H 0.42808 0.63937 0.0409 0.0
H1252 H 0.37572 0.72185 0.08473 0.0
H1253 H 0.32514 0.70058 0.05883 0.0
C1254 C 0.31771 0.64668 0.01673 0.0
C1255 C 0.31707 0.61811 0.99468 0.0
C1256 C 0.34668 0.65753 0.03449 0.0
C1257 C 0.34562 0.59952 0.99254 0.0
C1258 C 0.37469 0.61023 0.01005 0.0
C1259 C 0.40559 0.65258 0.04481 0.0
C1260 C 0.4061 0.6825 0.06455 0.0
C1261 C 0.37586 0.63982 0.0301 0.0
C1262 C 0.3764 0.69887 0.06981 0.0
C1263 C 0.34725 0.68673 0.0549 0.0
H1264 H 0.90132 0.35557 0.08642 0.0
H1265 H 0.92602 0.43147 0.00653 0.0
H1266 H 0.95655 0.39337 0.96712 0.0
H1267 H 0.97168 0.33787 0.95124 0.0
H1268 H 0.94677 0.26085 0.0287 0.0
H1269 H 0.92183 0.29994 0.07354 0.0
C1270 C 0.91371 0.36392 0.06066 0.0
C1271 C 0.91089 0.39665 0.04951 0.0
C1272 C 0.93144 0.3416 0.0377 0.0
C1273 C 0.92742 0.40671 0.01604 0.0
C1274 C 0.94498 0.38483 0.99332 0.0
C1275 C 0.96163 0.32971 0.97853 0.0
C1276 C 0.96146 0.29645 0.98678 0.0
C1277 C 0.9466 0.35217 0.00339 0.0
C1278 C 0.94794 0.28627 0.02199 0.0
C1279 C 0.93319 0.30865 0.04731 0.0
H1280 H 0.41942 0.9223 0.56483 0.0
H1281 H 0.36663 0.83396 0.584 0.0
H1282 H 0.31942 0.85568 0.55042 0.0
H1283 H 0.29419 0.89804 0.5108 0.0
H1284 H 0.34431 0.98798 0.49451 0.0
H1285 H 0.39081 0.96792 0.53202 0.0
C1286 C 0.3975 0.90795 0.56184 0.0
C1287 C 0.3969 0.87628 0.57671 0.0
C1288 C 0.36968 0.92104 0.54318 0.0
C1289 C 0.36798 0.8583 0.57297 0.0
C1290 C 0.34085 0.87071 0.55366 0.0
C1291 C 0.31485 0.91363 0.51661 0.0
C1292 C 0.31544 0.94473 0.50049 0.0
C1293 C 0.34149 0.90186 0.5382 0.0
C1294 C 0.34278 0.96433 0.50749 0.0
C1295 C 0.36963 0.95261 0.52846 0.0
H1296 H 0.70176 0.3607 0.59041 0.0
H1297 H 0.67821 0.43578 0.50915 0.0
H1298 H 0.6472 0.39739 0.47024 0.0
H1299 H 0.63153 0.34137 0.45514 0.0
H1300 H 0.65637 0.26563 0.53423 0.0
H1301 H 0.68136 0.3052 0.57827 0.0
C1302 C 0.68953 0.36885 0.56446 0.0
C1303 C 0.6928 0.40137 0.55281 0.0
C1304 C 0.67172 0.34638 0.54176 0.0
C1305 C 0.6765 0.41113 0.51902 0.0
C1306 C 0.65867 0.38908 0.49659 0.0
C1307 C 0.64137 0.33371 0.48273 0.0
C1308 C 0.64123 0.30065 0.49192 0.0
C1309 C 0.65665 0.35654 0.5072 0.0
C1310 C 0.65519 0.29096 0.52706 0.0
C1311 C 0.66994 0.31361 0.55194 0.0
H1312 H 0.30832 0.66035 0.52187 0.0
H1313 H 0.25285 0.57768 0.48536 0.0
H1314 H 0.20456 0.59908 0.51863 0.0
H1315 H 0.17635 0.64539 0.55117 0.0
H1316 H 0.23378 0.72797 0.58573 0.0
H1317 H 0.28243 0.7027 0.56032 0.0
C1318 C 0.28599 0.64636 0.52252 0.0
C1319 C 0.28449 0.61711 0.50176 0.0
C1320 C 0.25816 0.65938 0.54057 0.0
C1321 C 0.25508 0.59972 0.50205 0.0
C1322 C 0.22722 0.61238 0.52046 0.0
C1323 C 0.19954 0.65774 0.55346 0.0
C1324 C 0.20083 0.689 0.57012 0.0
C1325 C 0.22812 0.64284 0.53866 0.0
C1326 C 0.23145 0.7042 0.573 0.0
C1327 C 0.25958 0.68969 0.55845 0.0
H1328 H 0.8799 0.21336 0.57669 0.0
H1329 H 0.92415 0.136 0.51157 0.0
H1330 H 0.95643 0.17451 0.47537 0.0
H1331 H 0.97015 0.23022 0.45857 0.0
H1332 H 0.92766 0.30864 0.5225 0.0
H1333 H 0.8975 0.27013 0.56294 0.0
C1334 C 0.89666 0.20496 0.55465 0.0
C1335 C 0.89919 0.17149 0.54699 0.0
C1336 C 0.91593 0.22755 0.53385 0.0
C1337 C 0.92146 0.16133 0.51846 0.0
C1338 C 0.94009 0.18343 0.49756 0.0
C1339 C 0.95507 0.23885 0.4822 0.0
C1340 C 0.95189 0.27228 0.48816 0.0
C1341 C 0.93742 0.21656 0.50473 0.0
C1342 C 0.9314 0.28308 0.51808 0.0
C1343 C 0.91373 0.26098 0.5408 0.0
H1344 H 0.91922 0.14423 0.95613 0.0
H1345 H 0.86309 0.22556 0.9173 0.0
H1346 H 0.81477 0.20417 0.94908 0.0
H1347 H 0.78927 0.16494 0.99354 0.0
H1348 H 0.84446 0.08308 0.03167 0.0
H1349 H 0.89168 0.10152 0.99444 0.0
C1350 C 0.89635 0.1571 0.95434 0.0
C1351 C 0.89509 0.18666 0.9343 0.0
C1352 C 0.86819 0.14437 0.97253 0.0
C1353 C 0.86501 0.20277 0.93222 0.0
C1354 C 0.83722 0.19056 0.95056 0.0
C1355 C 0.81124 0.15051 0.9924 0.0
C1356 C 0.813 0.12213 0.01447 0.0
C1357 C 0.83855 0.16164 0.97133 0.0
C1358 C 0.84211 0.10441 0.01396 0.0
C1359 C 0.86932 0.11526 0.99311 0.0
H1360 H 0.40599 0.85969 0.92617 0.0
H1361 H 0.4339 0.93515 0.00595 0.0
H1362 H 0.46568 0.89663 0.04322 0.0
H1363 H 0.48013 0.84048 0.05791 0.0
H1364 H 0.45317 0.7646 0.97877 0.0
H1365 H 0.42707 0.80422 0.93627 0.0
C1366 C 0.41942 0.86788 0.95137 0.0
C1367 C 0.41703 0.90051 0.96331 0.0
C1368 C 0.43782 0.8454 0.97293 0.0
C1369 C 0.43502 0.91044 0.99589 0.0
C1370 C 0.45317 0.8883 0.01743 0.0
C1371 C 0.46929 0.83271 0.03079 0.0
C1372 C 0.4687 0.79955 0.02149 0.0
C1373 C 0.45401 0.8556 0.00686 0.0
C1374 C 0.45445 0.78991 0.98637 0.0
C1375 C 0.43913 0.81259 0.96233 0.0
H1376 H 0.80575 0.414 0.98004 0.0
H1377 H 0.75506 0.49215 0.03548 0.0
H1378 H 0.70331 0.47277 0.0083 0.0
H1379 H 0.6715 0.42957 0.9737 0.0
H1380 H 0.72417 0.3524 0.9183 0.0
H1381 H 0.7756 0.37515 0.94027 0.0
C1382 C 0.78354 0.42753 0.98495 0.0
C1383 C 0.7845 0.45486 0.00925 0.0
C1384 C 0.75387 0.41575 0.96997 0.0
C1385 C 0.75531 0.47162 0.01604 0.0
C1386 C 0.72554 0.46008 1.0011 0.0
C1387 C 0.69426 0.41778 0.96661 0.0
C1388 C 0.6938 0.389 0.94457 0.0
C1389 C 0.7243 0.43146 0.97903 0.0
C1390 C 0.72367 0.37448 0.93506 0.0
C1391 C 0.75321 0.38751 0.94765 0.0
H1392 H 0.13676 0.73164 0.0665 0.0
H1393 H 0.14582 0.80632 0.98114 0.0
H1394 H 0.17038 0.76723 0.93581 0.0
H1395 H 0.19463 0.71252 0.92313 0.0
H1396 H 0.18487 0.63952 0.01102 0.0
H1397 H 0.15615 0.67734 0.05246 0.0
C1398 C 0.14368 0.73948 0.03775 0.0
C1399 C 0.13931 0.77214 0.0275 0.0
C1400 C 0.15851 0.71715 0.0124 0.0
C1401 C 0.14836 0.78146 0.98992 0.0
C1402 C 0.16293 0.75911 0.96417 0.0
C1403 C 0.18601 0.70478 0.95122 0.0
C1404 C 0.19239 0.67279 0.96365 0.0
C1405 C 0.169 0.727 0.97545 0.0
C1406 C 0.18062 0.66358 1.00022 0.0
C1407 C 0.16407 0.68534 0.02418 0.0
loop_
_geom_bond_atom_site_label_1
_geom_bond_atom_site_label_2
_geom_bond_distance
_geom_bond_site_symmetry_2
_ccdc_geom_bond_type
Tb0 C9 2.764 . S
Tb0 O10 2.325 . S
Tb0 O13 2.303 . S
Tb0 O17 2.322 . S
Tb0 O18 2.349 . S
Tb0 O21 2.415 . S
Tb0 O22 2.399 . S
Tb1 O11 2.322 . S
Tb1 O12 2.349 . S
Tb1 O14 2.415 . S
Tb1 O15 2.399 . S
Tb1 O16 2.325 . S
Tb1 O19 2.303 . S
Tb1 C30 2.764 . S
C2 O18 1.261 . S
C2 O19 1.257 . S
C3 C6 1.358 . S
C3 C7 1.332 . S
C3 C9 1.504 . S
C4 C5 1.373 . S
C4 C8 1.308 . S
C5 C4 1.373 . S
C5 C6 1.429 . S
C5 H32 0.932 . S
C6 C3 1.358 . S
C6 C5 1.429 . S
C6 H33 0.930 . S
C7 C3 1.332 . S
C7 C8 1.394 . S
C7 H34 0.932 . S
C8 C4 1.308 . S
C8 C7 1.394 . S
C8 H35 0.929 . S
C9 Tb0 2.764 . S
C9 C3 1.504 . S
C9 O21 1.239 . S
C9 O22 1.263 . S
O10 Tb0 2.325 . S
O10 C20 1.236 . S
O11 Tb1 2.322 . S
O11 C20 1.257 . S
O12 Tb1 2.349 . S
O12 C23 1.261 . S
O13 Tb0 2.303 . S
O13 C23 1.257 . S
O14 Tb1 2.415 . S
O14 C30 1.239 . S
O15 Tb1 2.399 . S
O15 C30 1.263 . S
O16 Tb1 2.325 . S
O16 C31 1.236 . S
O17 Tb0 2.322 . S
O17 C31 1.257 . S
O18 Tb0 2.349 . S
O18 C2 1.261 . S
O19 Tb1 2.303 . S
O19 C2 1.257 . S
C20 O10 1.236 . S
C20 O11 1.257 . S
O21 Tb0 2.415 . S
O21 C9 1.239 . S
O22 Tb0 2.399 . S
O22 C9 1.263 . S
C23 O12 1.261 . S
C23 O13 1.257 . S
C24 C27 1.358 . S
C24 C28 1.332 . S
C24 C30 1.504 . S
C25 C26 1.373 . S
C25 C29 1.308 . S
C26 C25 1.373 . S
C26 C27 1.429 . S
C26 H36 0.932 . S
C27 C24 1.358 . S
C27 C26 1.429 . S
C27 H37 0.930 . S
C28 C24 1.332 . S
C28 C29 1.394 . S
C28 H38 0.932 . S
C29 C25 1.308 . S
C29 C28 1.394 . S
C29 H39 0.929 . S
C30 Tb1 2.764 . S
C30 O14 1.239 . S
C30 O15 1.263 . S
C30 C24 1.504 . S
C31 O16 1.236 . S
C31 O17 1.257 . S
H32 C5 0.932 . S
H33 C6 0.930 . S
H34 C7 0.932 . S
H35 C8 0.929 . S
H36 C26 0.932 . S
H37 C27 0.930 . S
H38 C28 0.932 . S
H39 C29 0.929 . S
Tb40 C49 2.764 . S
Tb40 O50 2.325 . S
Tb40 O53 2.303 . S
Tb40 O57 2.322 . S
Tb40 O58 2.349 . S
Tb40 O61 2.415 . S
Tb40 O62 2.399 . S
Tb41 O51 2.322 . S
Tb41 O52 2.349 . S
Tb41 O54 2.415 . S
Tb41 O55 2.399 . S
Tb41 O56 2.325 . S
Tb41 O59 2.303 . S
Tb41 C70 2.764 . S
C42 O58 1.261 . S
C42 O59 1.257 . S
C43 C46 1.358 . S
C43 C47 1.332 . S
C43 C49 1.504 . S
C44 C45 1.373 . S
C44 C48 1.308 . S
C45 C44 1.373 . S
C45 C46 1.429 . S
C45 H72 0.932 . S
C46 C43 1.358 . S
C46 C45 1.429 . S
C46 H73 0.930 . S
C47 C43 1.332 . S
C47 C48 1.394 . S
C47 H74 0.932 . S
C48 C44 1.308 . S
C48 C47 1.394 . S
C48 H75 0.929 . S
C49 Tb40 2.764 . S
C49 C43 1.504 . S
C49 O61 1.239 . S
C49 O62 1.263 . S
O50 Tb40 2.325 . S
O50 C60 1.236 . S
O51 Tb41 2.322 . S
O51 C60 1.257 . S
O52 Tb41 2.349 . S
O52 C63 1.261 . S
O53 Tb40 2.303 . S
O53 C63 1.257 . S
O54 Tb41 2.415 . S
O54 C70 1.239 . S
O55 Tb41 2.399 . S
O55 C70 1.263 . S
O56 Tb41 2.325 . S
O56 C71 1.236 . S
O57 Tb40 2.322 . S
O57 C71 1.257 . S
O58 Tb40 2.349 . S
O58 C42 1.261 . S
O59 Tb41 2.303 . S
O59 C42 1.257 . S
C60 O50 1.236 . S
C60 O51 1.257 . S
O61 Tb40 2.415 . S
O61 C49 1.239 . S
O62 Tb40 2.399 . S
O62 C49 1.263 . S
C63 O52 1.261 . S
C63 O53 1.257 . S
C64 C67 1.358 . S
C64 C68 1.332 . S
C64 C70 1.504 . S
C65 C66 1.373 . S
C65 C69 1.308 . S
C66 C65 1.373 . S
C66 C67 1.429 . S
C66 H76 0.932 . S
C67 C64 1.358 . S
C67 C66 1.429 . S
C67 H77 0.930 . S
C68 C64 1.332 . S
C68 C69 1.394 . S
C68 H78 0.932 . S
C69 C65 1.308 . S
C69 C68 1.394 . S
C69 H79 0.929 . S
C70 Tb41 2.764 . S
C70 O54 1.239 . S
C70 O55 1.263 . S
C70 C64 1.504 . S
C71 O56 1.236 . S
C71 O57 1.257 . S
H72 C45 0.932 . S
H73 C46 0.930 . S
H74 C47 0.932 . S
H75 C48 0.929 . S
H76 C66 0.932 . S
H77 C67 0.930 . S
H78 C68 0.932 . S
H79 C69 0.929 . S
Tb80 C89 2.764 1_655 S
Tb80 O90 2.325 1_655 S
Tb80 O93 2.303 . S
Tb80 O97 2.322 . S
Tb80 O98 2.349 . S
Tb80 O101 2.415 1_655 S
Tb80 O102 2.399 1_655 S
Tb81 O91 2.322 . S
Tb81 O92 2.349 . S
Tb81 O94 2.415 . S
Tb81 O95 2.399 . S
Tb81 O96 2.325 . S
Tb81 O99 2.303 . S
Tb81 C110 2.764 . S
C82 O98 1.261 . S
C82 O99 1.257 . S
C83 C86 1.358 . S
C83 C87 1.332 . S
C83 C89 1.504 . S
C84 C85 1.373 . S
C84 C88 1.308 . S
C85 C84 1.373 . S
C85 C86 1.429 . S
C85 H112 0.932 . S
C86 C83 1.358 . S
C86 C85 1.429 . S
C86 H113 0.930 . S
C87 C83 1.332 . S
C87 C88 1.394 . S
C87 H114 0.932 . S
C88 C84 1.308 . S
C88 C87 1.394 . S
C88 H115 0.929 . S
C89 Tb80 2.764 1_455 S
C89 C83 1.504 . S
C89 O101 1.239 . S
C89 O102 1.263 . S
O90 Tb80 2.325 1_455 S
O90 C100 1.236 . S
O91 Tb81 2.322 . S
O91 C100 1.257 1_655 S
O92 Tb81 2.349 . S
O92 C103 1.261 . S
O93 Tb80 2.303 . S
O93 C103 1.257 . S
O94 Tb81 2.415 . S
O94 C110 1.239 . S
O95 Tb81 2.399 . S
O95 C110 1.263 . S
O96 Tb81 2.325 . S
O96 C111 1.236 . S
O97 Tb80 2.322 . S
O97 C111 1.257 . S
O98 Tb80 2.349 . S
O98 C82 1.261 . S
O99 Tb81 2.303 . S
O99 C82 1.257 . S
C100 O90 1.236 . S
C100 O91 1.257 1_455 S
O101 Tb80 2.415 1_455 S
O101 C89 1.239 . S
O102 Tb80 2.399 1_455 S
O102 C89 1.263 . S
C103 O92 1.261 . S
C103 O93 1.257 . S
C104 C107 1.358 . S
C104 C108 1.332 . S
C104 C110 1.504 . S
C105 C106 1.373 . S
C105 C109 1.308 . S
C106 C105 1.373 . S
C106 C107 1.429 . S
C106 H116 0.932 . S
C107 C104 1.358 . S
C107 C106 1.429 . S
C107 H117 0.930 . S
C108 C104 1.332 . S
C108 C109 1.394 . S
C108 H118 0.932 . S
C109 C105 1.308 . S
C109 C108 1.394 . S
C109 H119 0.929 . S
C110 Tb81 2.764 . S
C110 O94 1.239 . S
C110 O95 1.263 . S
C110 C104 1.504 . S
C111 O96 1.236 . S
C111 O97 1.257 . S
H112 C85 0.932 . S
H113 C86 0.930 . S
H114 C87 0.932 . S
H115 C88 0.929 . S
H116 C106 0.932 . S
H117 C107 0.930 . S
H118 C108 0.932 . S
H119 C109 0.929 . S
Tb120 C129 2.764 1_565 S
Tb120 O130 2.325 1_565 S
Tb120 O133 2.303 . S
Tb120 O137 2.322 . S
Tb120 O138 2.349 . S
Tb120 O141 2.415 1_565 S
Tb120 O142 2.399 1_565 S
Tb121 O131 2.322 . S
Tb121 O132 2.349 . S
Tb121 O134 2.415 . S
Tb121 O135 2.399 . S
Tb121 O136 2.325 . S
Tb121 O139 2.303 . S
Tb121 C150 2.764 . S
C122 O138 1.261 . S
C122 O139 1.257 . S
C123 C126 1.358 . S
C123 C127 1.332 . S
C123 C129 1.504 . S
C124 C125 1.373 . S
C124 C128 1.308 . S
C125 C124 1.373 . S
C125 C126 1.429 . S
C125 H152 0.932 . S
C126 C123 1.358 . S
C126 C125 1.429 . S
C126 H153 0.930 . S
C127 C123 1.332 . S
C127 C128 1.394 . S
C127 H154 0.932 . S
C128 C124 1.308 . S
C128 C127 1.394 . S
C128 H155 0.929 . S
C129 Tb120 2.764 1_545 S
C129 C123 1.504 . S
C129 O141 1.239 . S
C129 O142 1.263 . S
O130 Tb120 2.325 1_545 S
O130 C140 1.236 . S
O131 Tb121 2.322 . S
O131 C140 1.257 1_565 S
O132 Tb121 2.349 . S
O132 C143 1.261 . S
O133 Tb120 2.303 . S
O133 C143 1.257 . S
O134 Tb121 2.415 . S
O134 C150 1.239 . S
O135 Tb121 2.399 . S
O135 C150 1.263 . S
O136 Tb121 2.325 . S
O136 C151 1.236 . S
O137 Tb120 2.322 . S
O137 C151 1.257 . S
O138 Tb120 2.349 . S
O138 C122 1.261 . S
O139 Tb121 2.303 . S
O139 C122 1.257 . S
C140 O130 1.236 . S
C140 O131 1.257 1_545 S
O141 Tb120 2.415 1_545 S
O141 C129 1.239 . S
O142 Tb120 2.399 1_545 S
O142 C129 1.263 . S
C143 O132 1.261 . S
C143 O133 1.257 . S
C144 C147 1.358 . S
C144 C148 1.332 . S
C144 C150 1.504 . S
C145 C146 1.373 . S
C145 C149 1.308 . S
C146 C145 1.373 . S
C146 C147 1.429 . S
C146 H156 0.932 . S
C147 C144 1.358 . S
C147 C146 1.429 . S
C147 H157 0.930 . S
C148 C144 1.332 . S
C148 C149 1.394 . S
C148 H158 0.932 . S
C149 C145 1.308 . S
C149 C148 1.394 . S
C149 H159 0.929 . S
C150 Tb121 2.764 . S
C150 O134 1.239 . S
C150 O135 1.263 . S
C150 C144 1.504 . S
C151 O136 1.236 . S
C151 O137 1.257 . S
H152 C125 0.932 . S
H153 C126 0.930 . S
H154 C127 0.932 . S
H155 C128 0.929 . S
H156 C146 0.932 . S
H157 C147 0.930 . S
H158 C148 0.932 . S
H159 C149 0.929 . S
Tb160 C169 2.764 1_455 S
Tb160 O170 2.325 1_455 S
Tb160 O173 2.303 . S
Tb160 O177 2.322 . S
Tb160 O178 2.349 . S
Tb160 O181 2.415 1_455 S
Tb160 O182 2.399 1_455 S
Tb161 O171 2.322 . S
Tb161 O172 2.349 . S
Tb161 O174 2.415 . S
Tb161 O175 2.399 . S
Tb161 O176 2.325 . S
Tb161 O179 2.303 . S
Tb161 C190 2.764 . S
C162 O178 1.261 . S
C162 O179 1.257 . S
C163 C166 1.358 . S
C163 C167 1.332 . S
C163 C169 1.504 . S
C164 C165 1.373 . S
C164 C168 1.308 . S
C165 C164 1.373 . S
C165 C166 1.429 . S
C165 H192 0.932 . S
C166 C163 1.358 . S
C166 C165 1.429 . S
C166 H193 0.930 . S
C167 C163 1.332 . S
C167 C168 1.394 . S
C167 H194 0.932 . S
C168 C164 1.308 . S
C168 C167 1.394 . S
C168 H195 0.929 . S
C169 Tb160 2.764 1_655 S
C169 C163 1.504 . S
C169 O181 1.239 . S
C169 O182 1.263 . S
O170 Tb160 2.325 1_655 S
O170 C180 1.236 . S
O171 Tb161 2.322 . S
O171 C180 1.257 1_455 S
O172 Tb161 2.349 . S
O172 C183 1.261 . S
O173 Tb160 2.303 . S
O173 C183 1.257 . S
O174 Tb161 2.415 . S
O174 C190 1.239 . S
O175 Tb161 2.399 . S
O175 C190 1.263 . S
O176 Tb161 2.325 . S
O176 C191 1.236 . S
O177 Tb160 2.322 . S
O177 C191 1.257 . S
O178 Tb160 2.349 . S
O178 C162 1.261 . S
O179 Tb161 2.303 . S
O179 C162 1.257 . S
C180 O170 1.236 . S
C180 O171 1.257 1_655 S
O181 Tb160 2.415 1_655 S
O181 C169 1.239 . S
O182 Tb160 2.399 1_655 S
O182 C169 1.263 . S
C183 O172 1.261 . S
C183 O173 1.257 . S
C184 C187 1.358 . S
C184 C188 1.332 . S
C184 C190 1.504 . S
C185 C186 1.373 . S
C185 C189 1.308 . S
C186 C185 1.373 . S
C186 C187 1.429 . S
C186 H196 0.932 . S
C187 C184 1.358 . S
C187 C186 1.429 . S
C187 H197 0.930 . S
C188 C184 1.332 . S
C188 C189 1.394 . S
C188 H198 0.932 . S
C189 C185 1.308 . S
C189 C188 1.394 . S
C189 H199 0.929 . S
C190 Tb161 2.764 . S
C190 O174 1.239 . S
C190 O175 1.263 . S
C190 C184 1.504 . S
C191 O176 1.236 . S
C191 O177 1.257 . S
H192 C165 0.932 . S
H193 C166 0.930 . S
H194 C167 0.932 . S
H195 C168 0.929 . S
H196 C186 0.932 . S
H197 C187 0.930 . S
H198 C188 0.932 . S
H199 C189 0.929 . S
Tb200 C209 2.764 1_545 S
Tb200 O210 2.325 1_545 S
Tb200 O213 2.303 . S
Tb200 O217 2.322 . S
Tb200 O218 2.349 . S
Tb200 O221 2.415 1_545 S
Tb200 O222 2.399 1_545 S
Tb201 O211 2.322 . S
Tb201 O212 2.349 . S
Tb201 O214 2.415 . S
Tb201 O215 2.399 . S
Tb201 O216 2.325 . S
Tb201 O219 2.303 . S
Tb201 C230 2.764 . S
C202 O218 1.261 . S
C202 O219 1.257 . S
C203 C206 1.358 . S
C203 C207 1.332 . S
C203 C209 1.504 . S
C204 C205 1.373 . S
C204 C208 1.308 . S
C205 C204 1.373 . S
C205 C206 1.429 . S
C205 H232 0.932 . S
C206 C203 1.358 . S
C206 C205 1.429 . S
C206 H233 0.930 . S
C207 C203 1.332 . S
C207 C208 1.394 . S
C207 H234 0.932 . S
C208 C204 1.308 . S
C208 C207 1.394 . S
C208 H235 0.929 . S
C209 Tb200 2.764 1_565 S
C209 C203 1.504 . S
C209 O221 1.239 . S
C209 O222 1.263 . S
O210 Tb200 2.325 1_565 S
O210 C220 1.236 . S
O211 Tb201 2.322 . S
O211 C220 1.257 1_545 S
O212 Tb201 2.349 . S
O212 C223 1.261 . S
O213 Tb200 2.303 . S
O213 C223 1.257 . S
O214 Tb201 2.415 . S
O214 C230 1.239 . S
O215 Tb201 2.399 . S
O215 C230 1.263 . S
O216 Tb201 2.325 . S
O216 C231 1.236 . S
O217 Tb200 2.322 . S
O217 C231 1.257 . S
O218 Tb200 2.349 . S
O218 C202 1.261 . S
O219 Tb201 2.303 . S
O219 C202 1.257 . S
C220 O210 1.236 . S
C220 O211 1.257 1_565 S
O221 Tb200 2.415 1_565 S
O221 C209 1.239 . S
O222 Tb200 2.399 1_565 S
O222 C209 1.263 . S
C223 O212 1.261 . S
C223 O213 1.257 . S
C224 C227 1.358 . S
C224 C228 1.332 . S
C224 C230 1.504 . S
C225 C226 1.373 . S
C225 C229 1.308 . S
C226 C225 1.373 . S
C226 C227 1.429 . S
C226 H236 0.932 . S
C227 C224 1.358 . S
C227 C226 1.429 . S
C227 H237 0.930 . S
C228 C224 1.332 . S
C228 C229 1.394 . S
C228 H238 0.932 . S
C229 C225 1.308 . S
C229 C228 1.394 . S
C229 H239 0.929 . S
C230 Tb201 2.764 . S
C230 O214 1.239 . S
C230 O215 1.263 . S
C230 C224 1.504 . S
C231 O216 1.236 . S
C231 O217 1.257 . S
H232 C205 0.932 . S
H233 C206 0.930 . S
H234 C207 0.932 . S
H235 C208 0.929 . S
H236 C226 0.932 . S
H237 C227 0.930 . S
H238 C228 0.932 . S
H239 C229 0.929 . S
Tb240 C249 2.764 . S
Tb240 O250 2.325 . S
Tb240 O253 2.303 . S
Tb240 O257 2.322 . S
Tb240 O258 2.349 . S
Tb240 O261 2.415 . S
Tb240 O262 2.399 . S
Tb241 O251 2.322 . S
Tb241 O252 2.349 . S
Tb241 O254 2.415 . S
Tb241 O255 2.399 . S
Tb241 O256 2.325 . S
Tb241 O259 2.303 . S
Tb241 C270 2.764 . S
C242 O258 1.261 . S
C242 O259 1.257 . S
C243 C246 1.358 . S
C243 C247 1.332 . S
C243 C249 1.504 . S
C244 C245 1.373 . S
C244 C248 1.308 . S
C245 C244 1.373 . S
C245 C246 1.429 . S
C245 H272 0.932 . S
C246 C243 1.358 . S
C246 C245 1.429 . S
C246 H273 0.930 . S
C247 C243 1.332 . S
C247 C248 1.394 . S
C247 H274 0.932 . S
C248 C244 1.308 . S
C248 C247 1.394 . S
C248 H275 0.929 . S
C249 Tb240 2.764 . S
C249 C243 1.504 . S
C249 O261 1.239 . S
C249 O262 1.263 . S
O250 Tb240 2.325 . S
O250 C260 1.236 . S
O251 Tb241 2.322 . S
O251 C260 1.257 . S
O252 Tb241 2.349 . S
O252 C263 1.261 . S
O253 Tb240 2.303 . S
O253 C263 1.257 . S
O254 Tb241 2.415 . S
O254 C270 1.239 . S
O255 Tb241 2.399 . S
O255 C270 1.263 . S
O256 Tb241 2.325 . S
O256 C271 1.236 . S
O257 Tb240 2.322 . S
O257 C271 1.257 . S
O258 Tb240 2.349 . S
O258 C242 1.261 . S
O259 Tb241 2.303 . S
O259 C242 1.257 . S
C260 O250 1.236 . S
C260 O251 1.257 . S
O261 Tb240 2.415 . S
O261 C249 1.239 . S
O262 Tb240 2.399 . S
O262 C249 1.263 . S
C263 O252 1.261 . S
C263 O253 1.257 . S
C264 C267 1.358 . S
C264 C268 1.332 . S
C264 C270 1.504 . S
C265 C266 1.373 . S
C265 C269 1.308 . S
C266 C265 1.373 . S
C266 C267 1.429 . S
C266 H276 0.932 . S
C267 C264 1.358 . S
C267 C266 1.429 . S
C267 H277 0.930 . S
C268 C264 1.332 . S
C268 C269 1.394 . S
C268 H278 0.932 . S
C269 C265 1.308 . S
C269 C268 1.394 . S
C269 H279 0.929 . S
C270 Tb241 2.764 . S
C270 O254 1.239 . S
C270 O255 1.263 . S
C270 C264 1.504 . S
C271 O256 1.236 . S
C271 O257 1.257 . S
H272 C245 0.932 . S
H273 C246 0.930 . S
H274 C247 0.932 . S
H275 C248 0.929 . S
H276 C266 0.932 . S
H277 C267 0.930 . S
H278 C268 0.932 . S
H279 C269 0.929 . S
Tb280 C289 2.764 . S
Tb280 O290 2.325 . S
Tb280 O293 2.303 . S
Tb280 O297 2.322 . S
Tb280 O298 2.349 . S
Tb280 O301 2.415 . S
Tb280 O302 2.399 . S
Tb281 O291 2.322 . S
Tb281 O292 2.349 . S
Tb281 O294 2.415 . S
Tb281 O295 2.399 . S
Tb281 O296 2.325 . S
Tb281 O299 2.303 . S
Tb281 C310 2.764 . S
C282 O298 1.261 . S
C282 O299 1.257 . S
C283 C286 1.358 . S
C283 C287 1.332 . S
C283 C289 1.504 . S
C284 C285 1.373 . S
C284 C288 1.308 . S
C285 C284 1.373 . S
C285 C286 1.429 . S
C285 H312 0.932 . S
C286 C283 1.358 . S
C286 C285 1.429 . S
C286 H313 0.930 . S
C287 C283 1.332 . S
C287 C288 1.394 . S
C287 H314 0.932 . S
C288 C284 1.308 . S
C288 C287 1.394 . S
C288 H315 0.929 . S
C289 Tb280 2.764 . S
C289 C283 1.504 . S
C289 O301 1.239 . S
C289 O302 1.263 . S
O290 Tb280 2.325 . S
O290 C300 1.236 . S
O291 Tb281 2.322 . S
O291 C300 1.257 . S
O292 Tb281 2.349 . S
O292 C303 1.261 . S
O293 Tb280 2.303 . S
O293 C303 1.257 . S
O294 Tb281 2.415 . S
O294 C310 1.239 . S
O295 Tb281 2.399 . S
O295 C310 1.263 . S
O296 Tb281 2.325 . S
O296 C311 1.236 . S
O297 Tb280 2.322 . S
O297 C311 1.257 . S
O298 Tb280 2.349 . S
O298 C282 1.261 . S
O299 Tb281 2.303 . S
O299 C282 1.257 . S
C300 O290 1.236 . S
C300 O291 1.257 . S
O301 Tb280 2.415 . S
O301 C289 1.239 . S
O302 Tb280 2.399 . S
O302 C289 1.263 . S
C303 O292 1.261 . S
C303 O293 1.257 . S
C304 C307 1.358 . S
C304 C308 1.332 . S
C304 C310 1.504 . S
C305 C306 1.373 . S
C305 C309 1.308 . S
C306 C305 1.373 . S
C306 C307 1.429 . S
C306 H316 0.932 . S
C307 C304 1.358 . S
C307 C306 1.429 . S
C307 H317 0.930 . S
C308 C304 1.332 . S
C308 C309 1.394 . S
C308 H318 0.932 . S
C309 C305 1.308 . S
C309 C308 1.394 . S
C309 H319 0.929 . S
C310 Tb281 2.764 . S
C310 O294 1.239 . S
C310 O295 1.263 . S
C310 C304 1.504 . S
C311 O296 1.236 . S
C311 O297 1.257 . S
H312 C285 0.932 . S
H313 C286 0.930 . S
H314 C287 0.932 . S
H315 C288 0.929 . S
H316 C306 0.932 . S
H317 C307 0.930 . S
H318 C308 0.932 . S
H319 C309 0.929 . S
Tb320 C329 2.764 . S
Tb320 O330 2.325 . S
Tb320 O333 2.303 . S
Tb320 O337 2.322 . S
Tb320 O338 2.349 . S
Tb320 O341 2.415 . S
Tb320 O342 2.399 . S
Tb321 O331 2.322 . S
Tb321 O332 2.349 . S
Tb321 O334 2.415 . S
Tb321 O335 2.399 . S
Tb321 O336 2.325 . S
Tb321 O339 2.303 . S
Tb321 C350 2.764 . S
C322 O338 1.261 . S
C322 O339 1.257 . S
C323 C326 1.358 . S
C323 C327 1.332 . S
C323 C329 1.504 . S
C324 C325 1.373 . S
C324 C328 1.308 . S
C325 C324 1.373 . S
C325 C326 1.429 . S
C325 H352 0.932 . S
C326 C323 1.358 . S
C326 C325 1.429 . S
C326 H353 0.930 . S
C327 C323 1.332 . S
C327 C328 1.394 . S
C327 H354 0.932 . S
C328 C324 1.308 . S
C328 C327 1.394 . S
C328 H355 0.929 . S
C329 Tb320 2.764 . S
C329 C323 1.504 . S
C329 O341 1.239 . S
C329 O342 1.263 . S
O330 Tb320 2.325 . S
O330 C340 1.236 . S
O331 Tb321 2.322 . S
O331 C340 1.257 . S
O332 Tb321 2.349 . S
O332 C343 1.261 . S
O333 Tb320 2.303 . S
O333 C343 1.257 . S
O334 Tb321 2.415 . S
O334 C350 1.239 . S
O335 Tb321 2.399 . S
O335 C350 1.263 . S
O336 Tb321 2.325 . S
O336 C351 1.236 . S
O337 Tb320 2.322 . S
O337 C351 1.257 . S
O338 Tb320 2.349 . S
O338 C322 1.261 . S
O339 Tb321 2.303 . S
O339 C322 1.257 . S
C340 O330 1.236 . S
C340 O331 1.257 . S
O341 Tb320 2.415 . S
O341 C329 1.239 . S
O342 Tb320 2.399 . S
O342 C329 1.263 . S
C343 O332 1.261 . S
C343 O333 1.257 . S
C344 C347 1.358 . S
C344 C348 1.332 . S
C344 C350 1.504 . S
C345 C346 1.373 . S
C345 C349 1.308 . S
C346 C345 1.373 . S
C346 C347 1.429 . S
C346 H356 0.932 . S
C347 C344 1.358 . S
C347 C346 1.429 . S
C347 H357 0.930 . S
C348 C344 1.332 . S
C348 C349 1.394 . S
C348 H358 0.932 . S
C349 C345 1.308 . S
C349 C348 1.394 . S
C349 H359 0.929 . S
C350 Tb321 2.764 . S
C350 O334 1.239 . S
C350 O335 1.263 . S
C350 C344 1.504 . S
C351 O336 1.236 . S
C351 O337 1.257 . S
H352 C325 0.932 . S
H353 C326 0.930 . S
H354 C327 0.932 . S
H355 C328 0.929 . S
H356 C346 0.932 . S
H357 C347 0.930 . S
H358 C348 0.932 . S
H359 C349 0.929 . S
Tb360 C369 2.764 . S
Tb360 O370 2.325 . S
Tb360 O373 2.303 . S
Tb360 O377 2.322 . S
Tb360 O378 2.349 . S
Tb360 O381 2.415 . S
Tb360 O382 2.399 . S
Tb361 O371 2.322 . S
Tb361 O372 2.349 . S
Tb361 O374 2.415 . S
Tb361 O375 2.399 . S
Tb361 O376 2.325 . S
Tb361 O379 2.303 . S
Tb361 C390 2.764 . S
C362 O378 1.261 . S
C362 O379 1.257 . S
C363 C366 1.358 . S
C363 C367 1.332 . S
C363 C369 1.504 . S
C364 C365 1.373 . S
C364 C368 1.308 . S
C365 C364 1.373 . S
C365 C366 1.429 . S
C365 H392 0.932 . S
C366 C363 1.358 . S
C366 C365 1.429 . S
C366 H393 0.930 . S
C367 C363 1.332 . S
C367 C368 1.394 . S
C367 H394 0.932 . S
C368 C364 1.308 . S
C368 C367 1.394 . S
C368 H395 0.929 . S
C369 Tb360 2.764 . S
C369 C363 1.504 . S
C369 O381 1.239 . S
C369 O382 1.263 . S
O370 Tb360 2.325 . S
O370 C380 1.236 . S
O371 Tb361 2.322 . S
O371 C380 1.257 . S
O372 Tb361 2.349 . S
O372 C383 1.261 . S
O373 Tb360 2.303 . S
O373 C383 1.257 . S
O374 Tb361 2.415 . S
O374 C390 1.239 . S
O375 Tb361 2.399 . S
O375 C390 1.263 . S
O376 Tb361 2.325 . S
O376 C391 1.236 . S
O377 Tb360 2.322 . S
O377 C391 1.257 . S
O378 Tb360 2.349 . S
O378 C362 1.261 . S
O379 Tb361 2.303 . S
O379 C362 1.257 . S
C380 O370 1.236 . S
C380 O371 1.257 . S
O381 Tb360 2.415 . S
O381 C369 1.239 . S
O382 Tb360 2.399 . S
O382 C369 1.263 . S
C383 O372 1.261 . S
C383 O373 1.257 . S
C384 C387 1.358 . S
C384 C388 1.332 . S
C384 C390 1.504 . S
C385 C386 1.373 . S
C385 C389 1.308 . S
C386 C385 1.373 . S
C386 C387 1.429 . S
C386 H396 0.932 . S
C387 C384 1.358 . S
C387 C386 1.429 . S
C387 H397 0.930 . S
C388 C384 1.332 . S
C388 C389 1.394 . S
C388 H398 0.932 . S
C389 C385 1.308 . S
C389 C388 1.394 . S
C389 H399 0.929 . S
C390 Tb361 2.764 . S
C390 O374 1.239 . S
C390 O375 1.263 . S
C390 C384 1.504 . S
C391 O376 1.236 . S
C391 O377 1.257 . S
H392 C365 0.932 . S
H393 C366 0.930 . S
H394 C367 0.932 . S
H395 C368 0.929 . S
H396 C386 0.932 . S
H397 C387 0.930 . S
H398 C388 0.932 . S
H399 C389 0.929 . S
Tb400 C409 2.764 . S
Tb400 O410 2.325 . S
Tb400 O413 2.303 . S
Tb400 O417 2.322 . S
Tb400 O418 2.349 . S
Tb400 O421 2.415 . S
Tb400 O422 2.399 . S
Tb401 O411 2.322 . S
Tb401 O412 2.349 . S
Tb401 O414 2.415 1_455 S
Tb401 O415 2.399 1_455 S
Tb401 O416 2.325 1_455 S
Tb401 O419 2.303 . S
Tb401 C430 2.764 1_455 S
C402 O418 1.261 . S
C402 O419 1.257 . S
C403 C406 1.358 . S
C403 C407 1.332 . S
C403 C409 1.504 . S
C404 C405 1.373 . S
C404 C408 1.308 . S
C405 C404 1.373 . S
C405 C406 1.429 . S
C405 H432 0.932 . S
C406 C403 1.358 . S
C406 C405 1.429 . S
C406 H433 0.930 . S
C407 C403 1.332 . S
C407 C408 1.394 . S
C407 H434 0.932 . S
C408 C404 1.308 . S
C408 C407 1.394 . S
C408 H435 0.929 . S
C409 Tb400 2.764 . S
C409 C403 1.504 . S
C409 O421 1.239 . S
C409 O422 1.263 . S
O410 Tb400 2.325 . S
O410 C420 1.236 . S
O411 Tb401 2.322 . S
O411 C420 1.257 . S
O412 Tb401 2.349 . S
O412 C423 1.261 . S
O413 Tb400 2.303 . S
O413 C423 1.257 . S
O414 Tb401 2.415 1_655 S
O414 C430 1.239 . S
O415 Tb401 2.399 1_655 S
O415 C430 1.263 . S
O416 Tb401 2.325 1_655 S
O416 C431 1.236 . S
O417 Tb400 2.322 . S
O417 C431 1.257 1_455 S
O418 Tb400 2.349 . S
O418 C402 1.261 . S
O419 Tb401 2.303 . S
O419 C402 1.257 . S
C420 O410 1.236 . S
C420 O411 1.257 . S
O421 Tb400 2.415 . S
O421 C409 1.239 . S
O422 Tb400 2.399 . S
O422 C409 1.263 . S
C423 O412 1.261 . S
C423 O413 1.257 . S
C424 C427 1.358 . S
C424 C428 1.332 . S
C424 C430 1.504 . S
C425 C426 1.373 . S
C425 C429 1.308 . S
C426 C425 1.373 . S
C426 C427 1.429 . S
C426 H436 0.932 . S
C427 C424 1.358 . S
C427 C426 1.429 . S
C427 H437 0.930 . S
C428 C424 1.332 . S
C428 C429 1.394 . S
C428 H438 0.932 . S
C429 C425 1.308 . S
C429 C428 1.394 . S
C429 H439 0.929 . S
C430 Tb401 2.764 1_655 S
C430 O414 1.239 . S
C430 O415 1.263 . S
C430 C424 1.504 . S
C431 O416 1.236 . S
C431 O417 1.257 1_655 S
H432 C405 0.932 . S
H433 C406 0.930 . S
H434 C407 0.932 . S
H435 C408 0.929 . S
H436 C426 0.932 . S
H437 C427 0.930 . S
H438 C428 0.932 . S
H439 C429 0.929 . S
Tb440 C449 2.764 . S
Tb440 O450 2.325 . S
Tb440 O453 2.303 . S
Tb440 O457 2.322 . S
Tb440 O458 2.349 . S
Tb440 O461 2.415 . S
Tb440 O462 2.399 . S
Tb441 O451 2.322 . S
Tb441 O452 2.349 . S
Tb441 O454 2.415 1_545 S
Tb441 O455 2.399 1_545 S
Tb441 O456 2.325 1_545 S
Tb441 O459 2.303 . S
Tb441 C470 2.764 1_545 S
C442 O458 1.261 . S
C442 O459 1.257 . S
C443 C446 1.358 . S
C443 C447 1.332 . S
C443 C449 1.504 . S
C444 C445 1.373 . S
C444 C448 1.308 . S
C445 C444 1.373 . S
C445 C446 1.429 . S
C445 H472 0.932 . S
C446 C443 1.358 . S
C446 C445 1.429 . S
C446 H473 0.930 . S
C447 C443 1.332 . S
C447 C448 1.394 . S
C447 H474 0.932 . S
C448 C444 1.308 . S
C448 C447 1.394 . S
C448 H475 0.929 . S
C449 Tb440 2.764 . S
C449 C443 1.504 . S
C449 O461 1.239 . S
C449 O462 1.263 . S
O450 Tb440 2.325 . S
O450 C460 1.236 . S
O451 Tb441 2.322 . S
O451 C460 1.257 . S
O452 Tb441 2.349 . S
O452 C463 1.261 . S
O453 Tb440 2.303 . S
O453 C463 1.257 . S
O454 Tb441 2.415 1_565 S
O454 C470 1.239 . S
O455 Tb441 2.399 1_565 S
O455 C470 1.263 . S
O456 Tb441 2.325 1_565 S
O456 C471 1.236 . S
O457 Tb440 2.322 . S
O457 C471 1.257 1_545 S
O458 Tb440 2.349 . S
O458 C442 1.261 . S
O459 Tb441 2.303 . S
O459 C442 1.257 . S
C460 O450 1.236 . S
C460 O451 1.257 . S
O461 Tb440 2.415 . S
O461 C449 1.239 . S
O462 Tb440 2.399 . S
O462 C449 1.263 . S
C463 O452 1.261 . S
C463 O453 1.257 . S
C464 C467 1.358 . S
C464 C468 1.332 . S
C464 C470 1.504 . S
C465 C466 1.373 . S
C465 C469 1.308 . S
C466 C465 1.373 . S
C466 C467 1.429 . S
C466 H476 0.932 . S
C467 C464 1.358 . S
C467 C466 1.429 . S
C467 H477 0.930 . S
C468 C464 1.332 . S
C468 C469 1.394 . S
C468 H478 0.932 . S
C469 C465 1.308 . S
C469 C468 1.394 . S
C469 H479 0.929 . S
C470 Tb441 2.764 1_565 S
C470 O454 1.239 . S
C470 O455 1.263 . S
C470 C464 1.504 . S
C471 O456 1.236 . S
C471 O457 1.257 1_565 S
H472 C445 0.932 . S
H473 C446 0.930 . S
H474 C447 0.932 . S
H475 C448 0.929 . S
H476 C466 0.932 . S
H477 C467 0.930 . S
H478 C468 0.932 . S
H479 C469 0.929 . S
Tb480 C489 2.764 . S
Tb480 O490 2.325 . S
Tb480 O493 2.303 . S
Tb480 O497 2.322 . S
Tb480 O498 2.349 . S
Tb480 O501 2.415 . S
Tb480 O502 2.399 . S
Tb481 O491 2.322 . S
Tb481 O492 2.349 . S
Tb481 O494 2.415 1_655 S
Tb481 O495 2.399 1_655 S
Tb481 O496 2.325 1_655 S
Tb481 O499 2.303 . S
Tb481 C510 2.764 1_655 S
C482 O498 1.261 . S
C482 O499 1.257 . S
C483 C486 1.358 . S
C483 C487 1.332 . S
C483 C489 1.504 . S
C484 C485 1.373 . S
C484 C488 1.308 . S
C485 C484 1.373 . S
C485 C486 1.429 . S
C485 H512 0.932 . S
C486 C483 1.358 . S
C486 C485 1.429 . S
C486 H513 0.930 . S
C487 C483 1.332 . S
C487 C488 1.394 . S
C487 H514 0.932 . S
C488 C484 1.308 . S
C488 C487 1.394 . S
C488 H515 0.929 . S
C489 Tb480 2.764 . S
C489 C483 1.504 . S
C489 O501 1.239 . S
C489 O502 1.263 . S
O490 Tb480 2.325 . S
O490 C500 1.236 . S
O491 Tb481 2.322 . S
O491 C500 1.257 . S
O492 Tb481 2.349 . S
O492 C503 1.261 . S
O493 Tb480 2.303 . S
O493 C503 1.257 . S
O494 Tb481 2.415 1_455 S
O494 C510 1.239 . S
O495 Tb481 2.399 1_455 S
O495 C510 1.263 . S
O496 Tb481 2.325 1_455 S
O496 C511 1.236 . S
O497 Tb480 2.322 . S
O497 C511 1.257 1_655 S
O498 Tb480 2.349 . S
O498 C482 1.261 . S
O499 Tb481 2.303 . S
O499 C482 1.257 . S
C500 O490 1.236 . S
C500 O491 1.257 . S
O501 Tb480 2.415 . S
O501 C489 1.239 . S
O502 Tb480 2.399 . S
O502 C489 1.263 . S
C503 O492 1.261 . S
C503 O493 1.257 . S
C504 C507 1.358 . S
C504 C508 1.332 . S
C504 C510 1.504 . S
C505 C506 1.373 . S
C505 C509 1.308 . S
C506 C505 1.373 . S
C506 C507 1.429 . S
C506 H516 0.932 . S
C507 C504 1.358 . S
C507 C506 1.429 . S
C507 H517 0.930 . S
C508 C504 1.332 . S
C508 C509 1.394 . S
C508 H518 0.932 . S
C509 C505 1.308 . S
C509 C508 1.394 . S
C509 H519 0.929 . S
C510 Tb481 2.764 1_455 S
C510 O494 1.239 . S
C510 O495 1.263 . S
C510 C504 1.504 . S
C511 O496 1.236 . S
C511 O497 1.257 1_455 S
H512 C485 0.932 . S
H513 C486 0.930 . S
H514 C487 0.932 . S
H515 C488 0.929 . S
H516 C506 0.932 . S
H517 C507 0.930 . S
H518 C508 0.932 . S
H519 C509 0.929 . S
Tb520 C529 2.764 . S
Tb520 O530 2.325 . S
Tb520 O533 2.303 . S
Tb520 O537 2.322 . S
Tb520 O538 2.349 . S
Tb520 O541 2.415 . S
Tb520 O542 2.399 . S
Tb521 O531 2.322 . S
Tb521 O532 2.349 . S
Tb521 O534 2.415 1_565 S
Tb521 O535 2.399 1_565 S
Tb521 O536 2.325 1_565 S
Tb521 O539 2.303 . S
Tb521 C550 2.764 1_565 S
C522 O538 1.261 . S
C522 O539 1.257 . S
C523 C526 1.358 . S
C523 C527 1.332 . S
C523 C529 1.504 . S
C524 C525 1.373 . S
C524 C528 1.308 . S
C525 C524 1.373 . S
C525 C526 1.429 . S
C525 H552 0.932 . S
C526 C523 1.358 . S
C526 C525 1.429 . S
C526 H553 0.930 . S
C527 C523 1.332 . S
C527 C528 1.394 . S
C527 H554 0.932 . S
C528 C524 1.308 . S
C528 C527 1.394 . S
C528 H555 0.929 . S
C529 Tb520 2.764 . S
C529 C523 1.504 . S
C529 O541 1.239 . S
C529 O542 1.263 . S
O530 Tb520 2.325 . S
O530 C540 1.236 . S
O531 Tb521 2.322 . S
O531 C540 1.257 . S
O532 Tb521 2.349 . S
O532 C543 1.261 . S
O533 Tb520 2.303 . S
O533 C543 1.257 . S
O534 Tb521 2.415 1_545 S
O534 C550 1.239 . S
O535 Tb521 2.399 1_545 S
O535 C550 1.263 . S
O536 Tb521 2.325 1_545 S
O536 C551 1.236 . S
O537 Tb520 2.322 . S
O537 C551 1.257 1_565 S
O538 Tb520 2.349 . S
O538 C522 1.261 . S
O539 Tb521 2.303 . S
O539 C522 1.257 . S
C540 O530 1.236 . S
C540 O531 1.257 . S
O541 Tb520 2.415 . S
O541 C529 1.239 . S
O542 Tb520 2.399 . S
O542 C529 1.263 . S
C543 O532 1.261 . S
C543 O533 1.257 . S
C544 C547 1.358 . S
C544 C548 1.332 . S
C544 C550 1.504 . S
C545 C546 1.373 . S
C545 C549 1.308 . S
C546 C545 1.373 . S
C546 C547 1.429 . S
C546 H556 0.932 . S
C547 C544 1.358 . S
C547 C546 1.429 . S
C547 H557 0.930 . S
C548 C544 1.332 . S
C548 C549 1.394 . S
C548 H558 0.932 . S
C549 C545 1.308 . S
C549 C548 1.394 . S
C549 H559 0.929 . S
C550 Tb521 2.764 1_545 S
C550 O534 1.239 . S
C550 O535 1.263 . S
C550 C544 1.504 . S
C551 O536 1.236 . S
C551 O537 1.257 1_545 S
H552 C525 0.932 . S
H553 C526 0.930 . S
H554 C527 0.932 . S
H555 C528 0.929 . S
H556 C546 0.932 . S
H557 C547 0.930 . S
H558 C548 0.932 . S
H559 C549 0.929 . S
Tb560 C569 2.764 . S
Tb560 O570 2.325 . S
Tb560 O573 2.303 . S
Tb560 O577 2.322 . S
Tb560 O578 2.349 . S
Tb560 O581 2.415 . S
Tb560 O582 2.399 . S
Tb561 O571 2.322 . S
Tb561 O572 2.349 . S
Tb561 O574 2.415 . S
Tb561 O575 2.399 . S
Tb561 O576 2.325 . S
Tb561 O579 2.303 . S
Tb561 C590 2.764 . S
C562 O578 1.261 . S
C562 O579 1.257 . S
C563 C566 1.358 . S
C563 C567 1.332 . S
C563 C569 1.504 . S
C564 C565 1.373 . S
C564 C568 1.308 . S
C565 C564 1.373 . S
C565 C566 1.429 . S
C565 H592 0.932 . S
C566 C563 1.358 . S
C566 C565 1.429 . S
C566 H593 0.930 . S
C567 C563 1.332 . S
C567 C568 1.394 . S
C567 H594 0.932 . S
C568 C564 1.308 . S
C568 C567 1.394 . S
C568 H595 0.929 . S
C569 Tb560 2.764 . S
C569 C563 1.504 . S
C569 O581 1.239 . S
C569 O582 1.263 . S
O570 Tb560 2.325 . S
O570 C580 1.236 . S
O571 Tb561 2.322 . S
O571 C580 1.257 . S
O572 Tb561 2.349 . S
O572 C583 1.261 . S
O573 Tb560 2.303 . S
O573 C583 1.257 . S
O574 Tb561 2.415 . S
O574 C590 1.239 . S
O575 Tb561 2.399 . S
O575 C590 1.263 . S
O576 Tb561 2.325 . S
O576 C591 1.236 . S
O577 Tb560 2.322 . S
O577 C591 1.257 . S
O578 Tb560 2.349 . S
O578 C562 1.261 . S
O579 Tb561 2.303 . S
O579 C562 1.257 . S
C580 O570 1.236 . S
C580 O571 1.257 . S
O581 Tb560 2.415 . S
O581 C569 1.239 . S
O582 Tb560 2.399 . S
O582 C569 1.263 . S
C583 O572 1.261 . S
C583 O573 1.257 . S
C584 C587 1.358 . S
C584 C588 1.332 . S
C584 C590 1.504 . S
C585 C586 1.373 . S
C585 C589 1.308 . S
C586 C585 1.373 . S
C586 C587 1.429 . S
C586 H596 0.932 . S
C587 C584 1.358 . S
C587 C586 1.429 . S
C587 H597 0.930 . S
C588 C584 1.332 . S
C588 C589 1.394 . S
C588 H598 0.932 . S
C589 C585 1.308 . S
C589 C588 1.394 . S
C589 H599 0.929 . S
C590 Tb561 2.764 . S
C590 O574 1.239 . S
C590 O575 1.263 . S
C590 C584 1.504 . S
C591 O576 1.236 . S
C591 O577 1.257 . S
H592 C565 0.932 . S
H593 C566 0.930 . S
H594 C567 0.932 . S
H595 C568 0.929 . S
H596 C586 0.932 . S
H597 C587 0.930 . S
H598 C588 0.932 . S
H599 C589 0.929 . S
Tb600 C609 2.764 . S
Tb600 O610 2.325 . S
Tb600 O613 2.303 . S
Tb600 O617 2.322 . S
Tb600 O618 2.349 . S
Tb600 O621 2.415 . S
Tb600 O622 2.399 . S
Tb601 O611 2.322 . S
Tb601 O612 2.349 . S
Tb601 O614 2.415 . S
Tb601 O615 2.399 . S
Tb601 O616 2.325 . S
Tb601 O619 2.303 . S
Tb601 C630 2.764 . S
C602 O618 1.261 . S
C602 O619 1.257 . S
C603 C606 1.358 . S
C603 C607 1.332 . S
C603 C609 1.504 . S
C604 C605 1.373 . S
C604 C608 1.308 . S
C605 C604 1.373 . S
C605 C606 1.429 . S
C605 H632 0.932 . S
C606 C603 1.358 . S
C606 C605 1.429 . S
C606 H633 0.930 . S
C607 C603 1.332 . S
C607 C608 1.394 . S
C607 H634 0.932 . S
C608 C604 1.308 . S
C608 C607 1.394 . S
C608 H635 0.929 . S
C609 Tb600 2.764 . S
C609 C603 1.504 . S
C609 O621 1.239 . S
C609 O622 1.263 . S
O610 Tb600 2.325 . S
O610 C620 1.236 . S
O611 Tb601 2.322 . S
O611 C620 1.257 . S
O612 Tb601 2.349 . S
O612 C623 1.261 . S
O613 Tb600 2.303 . S
O613 C623 1.257 . S
O614 Tb601 2.415 . S
O614 C630 1.239 . S
O615 Tb601 2.399 . S
O615 C630 1.263 . S
O616 Tb601 2.325 . S
O616 C631 1.236 . S
O617 Tb600 2.322 . S
O617 C631 1.257 . S
O618 Tb600 2.349 . S
O618 C602 1.261 . S
O619 Tb601 2.303 . S
O619 C602 1.257 . S
C620 O610 1.236 . S
C620 O611 1.257 . S
O621 Tb600 2.415 . S
O621 C609 1.239 . S
O622 Tb600 2.399 . S
O622 C609 1.263 . S
C623 O612 1.261 . S
C623 O613 1.257 . S
C624 C627 1.358 . S
C624 C628 1.332 . S
C624 C630 1.504 . S
C625 C626 1.373 . S
C625 C629 1.308 . S
C626 C625 1.373 . S
C626 C627 1.429 . S
C626 H636 0.932 . S
C627 C624 1.358 . S
C627 C626 1.429 . S
C627 H637 0.930 . S
C628 C624 1.332 . S
C628 C629 1.394 . S
C628 H638 0.932 . S
C629 C625 1.308 . S
C629 C628 1.394 . S
C629 H639 0.929 . S
C630 Tb601 2.764 . S
C630 O614 1.239 . S
C630 O615 1.263 . S
C630 C624 1.504 . S
C631 O616 1.236 . S
C631 O617 1.257 . S
H632 C605 0.932 . S
H633 C606 0.930 . S
H634 C607 0.932 . S
H635 C608 0.929 . S
H636 C626 0.932 . S
H637 C627 0.930 . S
H638 C628 0.932 . S
H639 C629 0.929 . S
H640 C646 0.930 . S
H641 C649 0.930 . S
H642 C650 0.930 . S
H643 C651 0.930 . S
H644 C654 0.930 . S
H645 C655 0.930 . S
C646 H640 0.930 . S
C646 C647 1.355 . S
C646 C648 1.415 . S
C647 C646 1.355 . S
C647 C649 1.419 . S
C648 C646 1.415 . S
C648 C653 1.425 . S
C648 C655 1.409 . S
C649 H641 0.930 . S
C649 C647 1.419 . S
C649 C650 1.362 . S
C650 H642 0.930 . S
C650 C649 1.362 . S
C650 C653 1.409 . S
C651 H643 0.930 . S
C651 C652 1.355 . S
C651 C653 1.415 . S
C652 C651 1.355 . S
C652 C654 1.419 . S
C653 C648 1.425 . S
C653 C650 1.409 . S
C653 C651 1.415 . S
C654 H644 0.930 . S
C654 C652 1.419 . S
C654 C655 1.362 . S
C655 H645 0.930 . S
C655 C648 1.409 . S
C655 C654 1.362 . S
H656 C662 0.930 . S
H657 C665 0.930 . S
H658 C666 0.930 . S
H659 C667 0.930 . S
H660 C670 0.930 . S
H661 C671 0.930 . S
C662 H656 0.930 . S
C662 C663 1.355 . S
C662 C664 1.415 . S
C663 C662 1.355 . S
C663 C665 1.419 . S
C664 C662 1.415 . S
C664 C669 1.425 . S
C664 C671 1.409 . S
C665 H657 0.930 . S
C665 C663 1.419 . S
C665 C666 1.362 . S
C666 H658 0.930 . S
C666 C665 1.362 . S
C666 C669 1.409 . S
C667 H659 0.930 . S
C667 C668 1.355 . S
C667 C669 1.415 . S
C668 C667 1.355 . S
C668 C670 1.419 . S
C669 C664 1.425 . S
C669 C666 1.409 . S
C669 C667 1.415 . S
C670 H660 0.930 . S
C670 C668 1.419 . S
C670 C671 1.362 . S
C671 H661 0.930 . S
C671 C664 1.409 . S
C671 C670 1.362 . S
H672 C678 0.930 . S
H673 C681 0.930 . S
H674 C682 0.930 . S
H675 C683 0.930 . S
H676 C686 0.930 . S
H677 C687 0.930 . S
C678 H672 0.930 . S
C678 C679 1.355 . S
C678 C680 1.415 . S
C679 C678 1.355 . S
C679 C681 1.419 . S
C680 C678 1.415 . S
C680 C685 1.425 . S
C680 C687 1.409 . S
C681 H673 0.930 . S
C681 C679 1.419 . S
C681 C682 1.362 . S
C682 H674 0.930 . S
C682 C681 1.362 . S
C682 C685 1.409 . S
C683 H675 0.930 . S
C683 C684 1.355 . S
C683 C685 1.415 . S
C684 C683 1.355 . S
C684 C686 1.419 . S
C685 C680 1.425 . S
C685 C682 1.409 . S
C685 C683 1.415 . S
C686 H676 0.930 . S
C686 C684 1.419 . S
C686 C687 1.362 . S
C687 H677 0.930 . S
C687 C680 1.409 . S
C687 C686 1.362 . S
H688 C694 0.930 . S
H689 C697 0.930 . S
H690 C698 0.930 . S
H691 C699 0.930 . S
H692 C702 0.930 . S
H693 C703 0.930 . S
C694 H688 0.930 . S
C694 C695 1.355 . S
C694 C696 1.415 . S
C695 C694 1.355 . S
C695 C697 1.419 . S
C696 C694 1.415 . S
C696 C701 1.425 . S
C696 C703 1.409 . S
C697 H689 0.930 . S
C697 C695 1.419 . S
C697 C698 1.362 . S
C698 H690 0.930 . S
C698 C697 1.362 . S
C698 C701 1.409 . S
C699 H691 0.930 . S
C699 C700 1.355 . S
C699 C701 1.415 . S
C700 C699 1.355 . S
C700 C702 1.419 . S
C701 C696 1.425 . S
C701 C698 1.409 . S
C701 C699 1.415 . S
C702 H692 0.930 . S
C702 C700 1.419 . S
C702 C703 1.362 . S
C703 H693 0.930 . S
C703 C696 1.409 . S
C703 C702 1.362 . S
H704 C710 0.930 . S
H705 C713 0.930 . S
H706 C714 0.930 . S
H707 C715 0.930 . S
H708 C718 0.930 . S
H709 C719 0.930 . S
C710 H704 0.930 . S
C710 C711 1.355 . S
C710 C712 1.415 . S
C711 C710 1.355 . S
C711 C713 1.419 . S
C712 C710 1.415 . S
C712 C717 1.425 . S
C712 C719 1.409 . S
C713 H705 0.930 . S
C713 C711 1.419 . S
C713 C714 1.362 . S
C714 H706 0.930 . S
C714 C713 1.362 . S
C714 C717 1.409 . S
C715 H707 0.930 . S
C715 C716 1.355 . S
C715 C717 1.415 . S
C716 C715 1.355 . S
C716 C718 1.419 . S
C717 C712 1.425 . S
C717 C714 1.409 . S
C717 C715 1.415 . S
C718 H708 0.930 . S
C718 C716 1.419 . S
C718 C719 1.362 . S
C719 H709 0.930 . S
C719 C712 1.409 . S
C719 C718 1.362 . S
H720 C726 0.930 . S
H721 C729 0.930 . S
H722 C730 0.930 . S
H723 C731 0.930 . S
H724 C734 0.930 . S
H725 C735 0.930 . S
C726 H720 0.930 . S
C726 C727 1.355 . S
C726 C728 1.415 . S
C727 C726 1.355 . S
C727 C729 1.419 . S
C728 C726 1.415 . S
C728 C733 1.425 . S
C728 C735 1.409 . S
C729 H721 0.930 . S
C729 C727 1.419 . S
C729 C730 1.362 . S
C730 H722 0.930 . S
C730 C729 1.362 . S
C730 C733 1.409 . S
C731 H723 0.930 . S
C731 C732 1.355 . S
C731 C733 1.415 . S
C732 C731 1.355 . S
C732 C734 1.419 . S
C733 C728 1.425 . S
C733 C730 1.409 . S
C733 C731 1.415 . S
C734 H724 0.930 . S
C734 C732 1.419 . S
C734 C735 1.362 . S
C735 H725 0.930 . S
C735 C728 1.409 . S
C735 C734 1.362 . S
H736 C742 0.930 . S
H737 C745 0.930 . S
H738 C746 0.930 . S
H739 C747 0.930 . S
H740 C750 0.930 . S
H741 C751 0.930 . S
C742 H736 0.930 . S
C742 C743 1.355 . S
C742 C744 1.415 . S
C743 C742 1.355 . S
C743 C745 1.419 . S
C744 C742 1.415 . S
C744 C749 1.425 . S
C744 C751 1.409 . S
C745 H737 0.930 . S
C745 C743 1.419 . S
C745 C746 1.362 . S
C746 H738 0.930 . S
C746 C745 1.362 . S
C746 C749 1.409 . S
C747 H739 0.930 . S
C747 C748 1.355 . S
C747 C749 1.415 . S
C748 C747 1.355 . S
C748 C750 1.419 . S
C749 C744 1.425 . S
C749 C746 1.409 . S
C749 C747 1.415 . S
C750 H740 0.930 . S
C750 C748 1.419 . S
C750 C751 1.362 . S
C751 H741 0.930 . S
C751 C744 1.409 . S
C751 C750 1.362 . S
H752 C758 0.930 . S
H753 C761 0.930 . S
H754 C762 0.930 . S
H755 C763 0.930 . S
H756 C766 0.930 . S
H757 C767 0.930 . S
C758 H752 0.930 . S
C758 C759 1.355 . S
C758 C760 1.415 . S
C759 C758 1.355 . S
C759 C761 1.419 . S
C760 C758 1.415 . S
C760 C765 1.425 . S
C760 C767 1.409 . S
C761 H753 0.930 . S
C761 C759 1.419 . S
C761 C762 1.362 . S
C762 H754 0.930 . S
C762 C761 1.362 . S
C762 C765 1.409 . S
C763 H755 0.930 . S
C763 C764 1.355 . S
C763 C765 1.415 . S
C764 C763 1.355 . S
C764 C766 1.419 . S
C765 C760 1.425 . S
C765 C762 1.409 . S
C765 C763 1.415 . S
C766 H756 0.930 . S
C766 C764 1.419 . S
C766 C767 1.362 . S
C767 H757 0.930 . S
C767 C760 1.409 . S
C767 C766 1.362 . S
H768 C774 0.930 . S
H769 C777 0.930 . S
H770 C778 0.930 . S
H771 C779 0.930 . S
H772 C782 0.930 . S
H773 C783 0.930 . S
C774 H768 0.930 . S
C774 C775 1.355 . S
C774 C776 1.415 . S
C775 C774 1.355 . S
C775 C777 1.419 . S
C776 C774 1.415 . S
C776 C781 1.425 . S
C776 C783 1.409 . S
C777 H769 0.930 . S
C777 C775 1.419 . S
C777 C778 1.362 . S
C778 H770 0.930 . S
C778 C777 1.362 . S
C778 C781 1.409 . S
C779 H771 0.930 . S
C779 C780 1.355 . S
C779 C781 1.415 . S
C780 C779 1.355 . S
C780 C782 1.419 . S
C781 C776 1.425 . S
C781 C778 1.409 . S
C781 C779 1.415 . S
C782 H772 0.930 . S
C782 C780 1.419 . S
C782 C783 1.362 . S
C783 H773 0.930 . S
C783 C776 1.409 . S
C783 C782 1.362 . S
H784 C790 0.930 . S
H785 C793 0.930 . S
H786 C794 0.930 . S
H787 C795 0.930 . S
H788 C798 0.930 . S
H789 C799 0.930 . S
C790 H784 0.930 . S
C790 C791 1.355 . S
C790 C792 1.415 . S
C791 C790 1.355 . S
C791 C793 1.419 . S
C792 C790 1.415 . S
C792 C797 1.425 . S
C792 C799 1.409 . S
C793 H785 0.930 . S
C793 C791 1.419 . S
C793 C794 1.362 . S
C794 H786 0.930 . S
C794 C793 1.362 . S
C794 C797 1.409 . S
C795 H787 0.930 . S
C795 C796 1.355 . S
C795 C797 1.415 . S
C796 C795 1.355 . S
C796 C798 1.419 . S
C797 C792 1.425 . S
C797 C794 1.409 . S
C797 C795 1.415 . S
C798 H788 0.930 . S
C798 C796 1.419 . S
C798 C799 1.362 . S
C799 H789 0.930 . S
C799 C792 1.409 . S
C799 C798 1.362 . S
H800 C806 0.930 . S
H801 C809 0.930 . S
H802 C810 0.930 . S
H803 C811 0.930 . S
H804 C814 0.930 . S
H805 C815 0.930 . S
C806 H800 0.930 . S
C806 C807 1.355 . S
C806 C808 1.415 . S
C807 C806 1.355 . S
C807 C809 1.419 . S
C808 C806 1.415 . S
C808 C813 1.425 . S
C808 C815 1.409 . S
C809 H801 0.930 . S
C809 C807 1.419 . S
C809 C810 1.362 . S
C810 H802 0.930 . S
C810 C809 1.362 . S
C810 C813 1.409 . S
C811 H803 0.930 . S
C811 C812 1.355 . S
C811 C813 1.415 . S
C812 C811 1.355 . S
C812 C814 1.419 . S
C813 C808 1.425 . S
C813 C810 1.409 . S
C813 C811 1.415 . S
C814 H804 0.930 . S
C814 C812 1.419 . S
C814 C815 1.362 . S
C815 H805 0.930 . S
C815 C808 1.409 . S
C815 C814 1.362 . S
H816 C822 0.930 . S
H817 C825 0.930 . S
H818 C826 0.930 . S
H819 C827 0.930 . S
H820 C830 0.930 1_655 S
H821 C831 0.930 . S
C822 H816 0.930 . S
C822 C823 1.355 . S
C822 C824 1.415 . S
C823 C822 1.355 . S
C823 C825 1.419 . S
C824 C822 1.415 . S
C824 C829 1.425 . S
C824 C831 1.409 . S
C825 H817 0.930 . S
C825 C823 1.419 . S
C825 C826 1.362 . S
C826 H818 0.930 . S
C826 C825 1.362 . S
C826 C829 1.409 . S
C827 H819 0.930 . S
C827 C828 1.355 . S
C827 C829 1.415 . S
C828 C827 1.355 . S
C828 C830 1.419 . S
C829 C824 1.425 . S
C829 C826 1.409 . S
C829 C827 1.415 . S
C830 H820 0.930 1_455 S
C830 C828 1.419 . S
C830 C831 1.362 . S
C831 H821 0.930 . S
C831 C824 1.409 . S
C831 C830 1.362 . S
H832 C838 0.930 . S
H833 C841 0.930 . S
H834 C842 0.930 . S
H835 C843 0.930 . S
H836 C846 0.930 1_545 S
H837 C847 0.930 . S
C838 H832 0.930 . S
C838 C839 1.355 . S
C838 C840 1.415 . S
C839 C838 1.355 . S
C839 C841 1.419 . S
C840 C838 1.415 . S
C840 C845 1.425 . S
C840 C847 1.409 . S
C841 H833 0.930 . S
C841 C839 1.419 . S
C841 C842 1.362 . S
C842 H834 0.930 . S
C842 C841 1.362 . S
C842 C845 1.409 . S
C843 H835 0.930 . S
C843 C844 1.355 . S
C843 C845 1.415 . S
C844 C843 1.355 . S
C844 C846 1.419 . S
C845 C840 1.425 . S
C845 C842 1.409 . S
C845 C843 1.415 . S
C846 H836 0.930 1_565 S
C846 C844 1.419 . S
C846 C847 1.362 . S
C847 H837 0.930 . S
C847 C840 1.409 . S
C847 C846 1.362 . S
H848 C854 0.930 . S
H849 C857 0.930 . S
H850 C858 0.930 . S
H851 C859 0.930 . S
H852 C862 0.930 . S
H853 C863 0.930 . S
C854 H848 0.930 . S
C854 C855 1.355 . S
C854 C856 1.415 . S
C855 C854 1.355 . S
C855 C857 1.419 . S
C856 C854 1.415 . S
C856 C861 1.425 . S
C856 C863 1.409 . S
C857 H849 0.930 . S
C857 C855 1.419 . S
C857 C858 1.362 . S
C858 H850 0.930 . S
C858 C857 1.362 . S
C858 C861 1.409 . S
C859 H851 0.930 . S
C859 C860 1.355 . S
C859 C861 1.415 . S
C860 C859 1.355 . S
C860 C862 1.419 . S
C861 C856 1.425 . S
C861 C858 1.409 . S
C861 C859 1.415 . S
C862 H852 0.930 . S
C862 C860 1.419 . S
C862 C863 1.362 . S
C863 H853 0.930 . S
C863 C856 1.409 . S
C863 C862 1.362 . S
H864 C870 0.930 . S
H865 C873 0.930 . S
H866 C874 0.930 . S
H867 C875 0.930 . S
H868 C878 0.930 . S
H869 C879 0.930 . S
C870 H864 0.930 . S
C870 C871 1.355 . S
C870 C872 1.415 . S
C871 C870 1.355 . S
C871 C873 1.419 . S
C872 C870 1.415 . S
C872 C877 1.425 . S
C872 C879 1.409 . S
C873 H865 0.930 . S
C873 C871 1.419 . S
C873 C874 1.362 . S
C874 H866 0.930 . S
C874 C873 1.362 . S
C874 C877 1.409 . S
C875 H867 0.930 . S
C875 C876 1.355 . S
C875 C877 1.415 . S
C876 C875 1.355 . S
C876 C878 1.419 . S
C877 C872 1.425 . S
C877 C874 1.409 . S
C877 C875 1.415 . S
C878 H868 0.930 . S
C878 C876 1.419 . S
C878 C879 1.362 . S
C879 H869 0.930 . S
C879 C872 1.409 . S
C879 C878 1.362 . S
H880 C886 0.930 . S
H881 C889 0.930 . S
H882 C890 0.930 . S
H883 C891 0.930 . S
H884 C894 0.930 . S
H885 C895 0.930 . S
C886 H880 0.930 . S
C886 C887 1.355 . S
C886 C888 1.415 . S
C887 C886 1.355 . S
C887 C889 1.419 . S
C888 C886 1.415 . S
C888 C893 1.425 . S
C888 C895 1.409 . S
C889 H881 0.930 . S
C889 C887 1.419 . S
C889 C890 1.362 . S
C890 H882 0.930 . S
C890 C889 1.362 . S
C890 C893 1.409 . S
C891 H883 0.930 . S
C891 C892 1.355 . S
C891 C893 1.415 . S
C892 C891 1.355 . S
C892 C894 1.419 . S
C893 C888 1.425 . S
C893 C890 1.409 . S
C893 C891 1.415 . S
C894 H884 0.930 . S
C894 C892 1.419 . S
C894 C895 1.362 . S
C895 H885 0.930 . S
C895 C888 1.409 . S
C895 C894 1.362 . S
H896 C902 0.930 . S
H897 C905 0.930 . S
H898 C906 0.930 . S
H899 C907 0.930 . S
H900 C910 0.930 . S
H901 C911 0.930 . S
C902 H896 0.930 . S
C902 C903 1.355 . S
C902 C904 1.415 . S
C903 C902 1.355 . S
C903 C905 1.419 . S
C904 C902 1.415 . S
C904 C909 1.425 . S
C904 C911 1.409 . S
C905 H897 0.930 . S
C905 C903 1.419 . S
C905 C906 1.362 . S
C906 H898 0.930 . S
C906 C905 1.362 . S
C906 C909 1.409 . S
C907 H899 0.930 . S
C907 C908 1.355 . S
C907 C909 1.415 . S
C908 C907 1.355 . S
C908 C910 1.419 . S
C909 C904 1.425 . S
C909 C906 1.409 . S
C909 C907 1.415 . S
C910 H900 0.930 . S
C910 C908 1.419 . S
C910 C911 1.362 . S
C911 H901 0.930 . S
C911 C904 1.409 . S
C911 C910 1.362 . S
H912 C918 0.930 . S
H913 C921 0.930 . S
H914 C922 0.930 . S
H915 C923 0.930 . S
H916 C926 0.930 . S
H917 C927 0.930 . S
C918 H912 0.930 . S
C918 C919 1.355 . S
C918 C920 1.415 . S
C919 C918 1.355 . S
C919 C921 1.419 . S
C920 C918 1.415 . S
C920 C925 1.425 . S
C920 C927 1.409 . S
C921 H913 0.930 . S
C921 C919 1.419 . S
C921 C922 1.362 . S
C922 H914 0.930 . S
C922 C921 1.362 . S
C922 C925 1.409 . S
C923 H915 0.930 . S
C923 C924 1.355 . S
C923 C925 1.415 . S
C924 C923 1.355 . S
C924 C926 1.419 . S
C925 C920 1.425 . S
C925 C922 1.409 . S
C925 C923 1.415 . S
C926 H916 0.930 . S
C926 C924 1.419 . S
C926 C927 1.362 . S
C927 H917 0.930 . S
C927 C920 1.409 . S
C927 C926 1.362 . S
H928 C934 0.930 . S
H929 C937 0.930 . S
H930 C938 0.930 . S
H931 C939 0.930 . S
H932 C942 0.930 . S
H933 C943 0.930 . S
C934 H928 0.930 . S
C934 C935 1.355 . S
C934 C936 1.415 . S
C935 C934 1.355 . S
C935 C937 1.419 . S
C936 C934 1.415 . S
C936 C941 1.425 . S
C936 C943 1.409 . S
C937 H929 0.930 . S
C937 C935 1.419 . S
C937 C938 1.362 . S
C938 H930 0.930 . S
C938 C937 1.362 . S
C938 C941 1.409 . S
C939 H931 0.930 . S
C939 C940 1.355 . S
C939 C941 1.415 . S
C940 C939 1.355 . S
C940 C942 1.419 . S
C941 C936 1.425 . S
C941 C938 1.409 . S
C941 C939 1.415 . S
C942 H932 0.930 . S
C942 C940 1.419 . S
C942 C943 1.362 . S
C943 H933 0.930 . S
C943 C936 1.409 . S
C943 C942 1.362 . S
H944 C950 0.930 . S
H945 C953 0.930 . S
H946 C954 0.930 . S
H947 C955 0.930 . S
H948 C958 0.930 . S
H949 C959 0.930 . S
C950 H944 0.930 . S
C950 C951 1.355 . S
C950 C952 1.415 . S
C951 C950 1.355 . S
C951 C953 1.419 . S
C952 C950 1.415 . S
C952 C957 1.425 . S
C952 C959 1.409 . S
C953 H945 0.930 . S
C953 C951 1.419 . S
C953 C954 1.362 . S
C954 H946 0.930 . S
C954 C953 1.362 . S
C954 C957 1.409 . S
C955 H947 0.930 . S
C955 C956 1.355 . S
C955 C957 1.415 . S
C956 C955 1.355 . S
C956 C958 1.419 . S
C957 C952 1.425 . S
C957 C954 1.409 . S
C957 C955 1.415 . S
C958 H948 0.930 . S
C958 C956 1.419 . S
C958 C959 1.362 . S
C959 H949 0.930 . S
C959 C952 1.409 . S
C959 C958 1.362 . S
H960 C966 0.930 . S
H961 C969 0.930 . S
H962 C970 0.930 . S
H963 C971 0.930 . S
H964 C974 0.930 . S
H965 C975 0.930 . S
C966 H960 0.930 . S
C966 C967 1.355 . S
C966 C968 1.415 . S
C967 C966 1.355 . S
C967 C969 1.419 . S
C968 C966 1.415 . S
C968 C973 1.425 . S
C968 C975 1.409 . S
C969 H961 0.930 . S
C969 C967 1.419 . S
C969 C970 1.362 . S
C970 H962 0.930 . S
C970 C969 1.362 . S
C970 C973 1.409 . S
C971 H963 0.930 . S
C971 C972 1.355 . S
C971 C973 1.415 . S
C972 C971 1.355 . S
C972 C974 1.419 . S
C973 C968 1.425 . S
C973 C970 1.409 . S
C973 C971 1.415 . S
C974 H964 0.930 . S
C974 C972 1.419 . S
C974 C975 1.362 . S
C975 H965 0.930 . S
C975 C968 1.409 . S
C975 C974 1.362 . S
H976 C982 0.930 . S
H977 C985 0.930 . S
H978 C986 0.930 . S
H979 C987 0.930 . S
H980 C990 0.930 . S
H981 C991 0.930 . S
C982 H976 0.930 . S
C982 C983 1.355 . S
C982 C984 1.415 . S
C983 C982 1.355 . S
C983 C985 1.419 . S
C984 C982 1.415 . S
C984 C989 1.425 . S
C984 C991 1.409 . S
C985 H977 0.930 . S
C985 C983 1.419 . S
C985 C986 1.362 . S
C986 H978 0.930 . S
C986 C985 1.362 . S
C986 C989 1.409 . S
C987 H979 0.930 . S
C987 C988 1.355 . S
C987 C989 1.415 . S
C988 C987 1.355 . S
C988 C990 1.419 . S
C989 C984 1.425 . S
C989 C986 1.409 . S
C989 C987 1.415 . S
C990 H980 0.930 . S
C990 C988 1.419 . S
C990 C991 1.362 . S
C991 H981 0.930 . S
C991 C984 1.409 . S
C991 C990 1.362 . S
H992 C998 0.930 . S
H993 C1001 0.930 . S
H994 C1002 0.930 . S
H995 C1003 0.930 . S
H996 C1006 0.930 . S
H997 C1007 0.930 . S
C998 H992 0.930 . S
C998 C999 1.355 . S
C998 C1000 1.415 . S
C999 C998 1.355 . S
C999 C1001 1.419 . S
C1000 C998 1.415 . S
C1000 C1005 1.425 . S
C1000 C1007 1.409 . S
C1001 H993 0.930 . S
C1001 C999 1.419 . S
C1001 C1002 1.362 . S
C1002 H994 0.930 . S
C1002 C1001 1.362 . S
C1002 C1005 1.409 . S
C1003 H995 0.930 . S
C1003 C1004 1.355 . S
C1003 C1005 1.415 . S
C1004 C1003 1.355 . S
C1004 C1006 1.419 . S
C1005 C1000 1.425 . S
C1005 C1002 1.409 . S
C1005 C1003 1.415 . S
C1006 H996 0.930 . S
C1006 C1004 1.419 . S
C1006 C1007 1.362 . S
C1007 H997 0.930 . S
C1007 C1000 1.409 . S
C1007 C1006 1.362 . S
H1008 C1014 0.930 . S
H1009 C1017 0.930 . S
H1010 C1018 0.930 . S
H1011 C1019 0.930 . S
H1012 C1022 0.930 . S
H1013 C1023 0.930 . S
C1014 H1008 0.930 . S
C1014 C1015 1.355 . S
C1014 C1016 1.415 . S
C1015 C1014 1.355 . S
C1015 C1017 1.419 . S
C1016 C1014 1.415 . S
C1016 C1021 1.425 . S
C1016 C1023 1.409 . S
C1017 H1009 0.930 . S
C1017 C1015 1.419 . S
C1017 C1018 1.362 . S
C1018 H1010 0.930 . S
C1018 C1017 1.362 . S
C1018 C1021 1.409 . S
C1019 H1011 0.930 . S
C1019 C1020 1.355 . S
C1019 C1021 1.415 . S
C1020 C1019 1.355 . S
C1020 C1022 1.419 . S
C1021 C1016 1.425 . S
C1021 C1018 1.409 . S
C1021 C1019 1.415 . S
C1022 H1012 0.930 . S
C1022 C1020 1.419 . S
C1022 C1023 1.362 . S
C1023 H1013 0.930 . S
C1023 C1016 1.409 . S
C1023 C1022 1.362 . S
H1024 C1030 0.930 . S
H1025 C1033 0.930 . S
H1026 C1034 0.930 . S
H1027 C1035 0.930 . S
H1028 C1038 0.930 . S
H1029 C1039 0.930 . S
C1030 H1024 0.930 . S
C1030 C1031 1.355 . S
C1030 C1032 1.415 . S
C1031 C1030 1.355 . S
C1031 C1033 1.419 . S
C1032 C1030 1.415 . S
C1032 C1037 1.425 . S
C1032 C1039 1.409 . S
C1033 H1025 0.930 . S
C1033 C1031 1.419 . S
C1033 C1034 1.362 . S
C1034 H1026 0.930 . S
C1034 C1033 1.362 . S
C1034 C1037 1.409 . S
C1035 H1027 0.930 . S
C1035 C1036 1.355 . S
C1035 C1037 1.415 . S
C1036 C1035 1.355 . S
C1036 C1038 1.419 . S
C1037 C1032 1.425 . S
C1037 C1034 1.409 . S
C1037 C1035 1.415 . S
C1038 H1028 0.930 . S
C1038 C1036 1.419 . S
C1038 C1039 1.362 . S
C1039 H1029 0.930 . S
C1039 C1032 1.409 . S
C1039 C1038 1.362 . S
H1040 C1046 0.930 . S
H1041 C1049 0.930 . S
H1042 C1050 0.930 . S
H1043 C1051 0.930 . S
H1044 C1054 0.930 . S
H1045 C1055 0.930 . S
C1046 H1040 0.930 . S
C1046 C1047 1.355 . S
C1046 C1048 1.415 . S
C1047 C1046 1.355 . S
C1047 C1049 1.419 . S
C1048 C1046 1.415 . S
C1048 C1053 1.425 . S
C1048 C1055 1.409 . S
C1049 H1041 0.930 . S
C1049 C1047 1.419 . S
C1049 C1050 1.362 . S
C1050 H1042 0.930 . S
C1050 C1049 1.362 . S
C1050 C1053 1.409 . S
C1051 H1043 0.930 . S
C1051 C1052 1.355 . S
C1051 C1053 1.415 . S
C1052 C1051 1.355 . S
C1052 C1054 1.419 . S
C1053 C1048 1.425 . S
C1053 C1050 1.409 . S
C1053 C1051 1.415 . S
C1054 H1044 0.930 . S
C1054 C1052 1.419 . S
C1054 C1055 1.362 . S
C1055 H1045 0.930 . S
C1055 C1048 1.409 . S
C1055 C1054 1.362 . S
H1056 C1062 0.930 . S
H1057 C1065 0.930 . S
H1058 C1066 0.930 . S
H1059 C1067 0.930 . S
H1060 C1070 0.930 . S
H1061 C1071 0.930 . S
C1062 H1056 0.930 . S
C1062 C1063 1.355 . S
C1062 C1064 1.415 . S
C1063 C1062 1.355 . S
C1063 C1065 1.419 . S
C1064 C1062 1.415 . S
C1064 C1069 1.425 . S
C1064 C1071 1.409 . S
C1065 H1057 0.930 . S
C1065 C1063 1.419 . S
C1065 C1066 1.362 . S
C1066 H1058 0.930 . S
C1066 C1065 1.362 . S
C1066 C1069 1.409 . S
C1067 H1059 0.930 . S
C1067 C1068 1.355 . S
C1067 C1069 1.415 . S
C1068 C1067 1.355 . S
C1068 C1070 1.419 . S
C1069 C1064 1.425 . S
C1069 C1066 1.409 . S
C1069 C1067 1.415 . S
C1070 H1060 0.930 . S
C1070 C1068 1.419 . S
C1070 C1071 1.362 . S
C1071 H1061 0.930 . S
C1071 C1064 1.409 . S
C1071 C1070 1.362 . S
H1072 C1078 0.930 . S
H1073 C1081 0.930 . S
H1074 C1082 0.930 . S
H1075 C1083 0.930 . S
H1076 C1086 0.930 . S
H1077 C1087 0.930 . S
C1078 H1072 0.930 . S
C1078 C1079 1.355 . S
C1078 C1080 1.415 . S
C1079 C1078 1.355 . S
C1079 C1081 1.419 . S
C1080 C1078 1.415 . S
C1080 C1085 1.425 . S
C1080 C1087 1.409 . S
C1081 H1073 0.930 . S
C1081 C1079 1.419 . S
C1081 C1082 1.362 . S
C1082 H1074 0.930 . S
C1082 C1081 1.362 . S
C1082 C1085 1.409 . S
C1083 H1075 0.930 . S
C1083 C1084 1.355 . S
C1083 C1085 1.415 . S
C1084 C1083 1.355 . S
C1084 C1086 1.419 . S
C1085 C1080 1.425 . S
C1085 C1082 1.409 . S
C1085 C1083 1.415 . S
C1086 H1076 0.930 . S
C1086 C1084 1.419 . S
C1086 C1087 1.362 . S
C1087 H1077 0.930 . S
C1087 C1080 1.409 . S
C1087 C1086 1.362 . S
H1088 C1094 0.930 . S
H1089 C1097 0.930 . S
H1090 C1098 0.930 . S
H1091 C1099 0.930 . S
H1092 C1102 0.930 . S
H1093 C1103 0.930 . S
C1094 H1088 0.930 . S
C1094 C1095 1.355 . S
C1094 C1096 1.415 . S
C1095 C1094 1.355 . S
C1095 C1097 1.419 . S
C1096 C1094 1.415 . S
C1096 C1101 1.425 . S
C1096 C1103 1.409 . S
C1097 H1089 0.930 . S
C1097 C1095 1.419 . S
C1097 C1098 1.362 . S
C1098 H1090 0.930 . S
C1098 C1097 1.362 . S
C1098 C1101 1.409 . S
C1099 H1091 0.930 . S
C1099 C1100 1.355 . S
C1099 C1101 1.415 . S
C1100 C1099 1.355 . S
C1100 C1102 1.419 . S
C1101 C1096 1.425 . S
C1101 C1098 1.409 . S
C1101 C1099 1.415 . S
C1102 H1092 0.930 . S
C1102 C1100 1.419 . S
C1102 C1103 1.362 . S
C1103 H1093 0.930 . S
C1103 C1096 1.409 . S
C1103 C1102 1.362 . S
H1104 C1110 0.930 . S
H1105 C1113 0.930 . S
H1106 C1114 0.930 . S
H1107 C1115 0.930 . S
H1108 C1118 0.930 . S
H1109 C1119 0.930 . S
C1110 H1104 0.930 . S
C1110 C1111 1.355 . S
C1110 C1112 1.415 . S
C1111 C1110 1.355 . S
C1111 C1113 1.419 . S
C1112 C1110 1.415 . S
C1112 C1117 1.425 . S
C1112 C1119 1.409 . S
C1113 H1105 0.930 . S
C1113 C1111 1.419 . S
C1113 C1114 1.362 . S
C1114 H1106 0.930 . S
C1114 C1113 1.362 . S
C1114 C1117 1.409 . S
C1115 H1107 0.930 . S
C1115 C1116 1.355 . S
C1115 C1117 1.415 . S
C1116 C1115 1.355 . S
C1116 C1118 1.419 . S
C1117 C1112 1.425 . S
C1117 C1114 1.409 . S
C1117 C1115 1.415 . S
C1118 H1108 0.930 . S
C1118 C1116 1.419 . S
C1118 C1119 1.362 . S
C1119 H1109 0.930 . S
C1119 C1112 1.409 . S
C1119 C1118 1.362 . S
H1120 C1126 0.930 . S
H1121 C1129 0.930 . S
H1122 C1130 0.930 . S
H1123 C1131 0.930 . S
H1124 C1134 0.930 . S
H1125 C1135 0.930 . S
C1126 H1120 0.930 . S
C1126 C1127 1.355 . S
C1126 C1128 1.415 . S
C1127 C1126 1.355 . S
C1127 C1129 1.419 . S
C1128 C1126 1.415 . S
C1128 C1133 1.425 . S
C1128 C1135 1.409 . S
C1129 H1121 0.930 . S
C1129 C1127 1.419 . S
C1129 C1130 1.362 . S
C1130 H1122 0.930 . S
C1130 C1129 1.362 . S
C1130 C1133 1.409 . S
C1131 H1123 0.930 . S
C1131 C1132 1.355 . S
C1131 C1133 1.415 . S
C1132 C1131 1.355 . S
C1132 C1134 1.419 . S
C1133 C1128 1.425 . S
C1133 C1130 1.409 . S
C1133 C1131 1.415 . S
C1134 H1124 0.930 . S
C1134 C1132 1.419 . S
C1134 C1135 1.362 . S
C1135 H1125 0.930 . S
C1135 C1128 1.409 . S
C1135 C1134 1.362 . S
H1136 C1142 0.930 . S
H1137 C1145 0.930 . S
H1138 C1146 0.930 . S
H1139 C1147 0.930 . S
H1140 C1150 0.930 . S
H1141 C1151 0.930 . S
C1142 H1136 0.930 . S
C1142 C1143 1.355 . S
C1142 C1144 1.415 . S
C1143 C1142 1.355 . S
C1143 C1145 1.419 . S
C1144 C1142 1.415 . S
C1144 C1149 1.425 . S
C1144 C1151 1.409 . S
C1145 H1137 0.930 . S
C1145 C1143 1.419 . S
C1145 C1146 1.362 . S
C1146 H1138 0.930 . S
C1146 C1145 1.362 . S
C1146 C1149 1.409 . S
C1147 H1139 0.930 . S
C1147 C1148 1.355 . S
C1147 C1149 1.415 . S
C1148 C1147 1.355 . S
C1148 C1150 1.419 . S
C1149 C1144 1.425 . S
C1149 C1146 1.409 . S
C1149 C1147 1.415 . S
C1150 H1140 0.930 . S
C1150 C1148 1.419 . S
C1150 C1151 1.362 . S
C1151 H1141 0.930 . S
C1151 C1144 1.409 . S
C1151 C1150 1.362 . S
H1152 C1158 0.930 . S
H1153 C1161 0.930 . S
H1154 C1162 0.930 . S
H1155 C1163 0.930 . S
H1156 C1166 0.930 . S
H1157 C1167 0.930 . S
C1158 H1152 0.930 . S
C1158 C1159 1.355 . S
C1158 C1160 1.415 . S
C1159 C1158 1.355 . S
C1159 C1161 1.419 . S
C1160 C1158 1.415 . S
C1160 C1165 1.425 . S
C1160 C1167 1.409 . S
C1161 H1153 0.930 . S
C1161 C1159 1.419 . S
C1161 C1162 1.362 . S
C1162 H1154 0.930 . S
C1162 C1161 1.362 . S
C1162 C1165 1.409 . S
C1163 H1155 0.930 . S
C1163 C1164 1.355 . S
C1163 C1165 1.415 . S
C1164 C1163 1.355 . S
C1164 C1166 1.419 . S
C1165 C1160 1.425 . S
C1165 C1162 1.409 . S
C1165 C1163 1.415 . S
C1166 H1156 0.930 . S
C1166 C1164 1.419 . S
C1166 C1167 1.362 . S
C1167 H1157 0.930 . S
C1167 C1160 1.409 . S
C1167 C1166 1.362 . S
H1168 C1174 0.930 . S
H1169 C1177 0.930 . S
H1170 C1178 0.930 . S
H1171 C1179 0.930 . S
H1172 C1182 0.930 . S
H1173 C1183 0.930 . S
C1174 H1168 0.930 . S
C1174 C1175 1.355 . S
C1174 C1176 1.415 . S
C1175 C1174 1.355 . S
C1175 C1177 1.419 . S
C1176 C1174 1.415 . S
C1176 C1181 1.425 . S
C1176 C1183 1.409 . S
C1177 H1169 0.930 . S
C1177 C1175 1.419 . S
C1177 C1178 1.362 . S
C1178 H1170 0.930 . S
C1178 C1177 1.362 . S
C1178 C1181 1.409 . S
C1179 H1171 0.930 . S
C1179 C1180 1.355 . S
C1179 C1181 1.415 . S
C1180 C1179 1.355 . S
C1180 C1182 1.419 . S
C1181 C1176 1.425 . S
C1181 C1178 1.409 . S
C1181 C1179 1.415 . S
C1182 H1172 0.930 . S
C1182 C1180 1.419 . S
C1182 C1183 1.362 . S
C1183 H1173 0.930 . S
C1183 C1176 1.409 . S
C1183 C1182 1.362 . S
H1184 C1190 0.930 . S
H1185 C1193 0.930 . S
H1186 C1194 0.930 . S
H1187 C1195 0.930 . S
H1188 C1198 0.930 . S
H1189 C1199 0.930 . S
C1190 H1184 0.930 . S
C1190 C1191 1.355 . S
C1190 C1192 1.415 . S
C1191 C1190 1.355 . S
C1191 C1193 1.419 . S
C1192 C1190 1.415 . S
C1192 C1197 1.425 . S
C1192 C1199 1.409 . S
C1193 H1185 0.930 . S
C1193 C1191 1.419 . S
C1193 C1194 1.362 . S
C1194 H1186 0.930 . S
C1194 C1193 1.362 . S
C1194 C1197 1.409 . S
C1195 H1187 0.930 . S
C1195 C1196 1.355 . S
C1195 C1197 1.415 . S
C1196 C1195 1.355 . S
C1196 C1198 1.419 . S
C1197 C1192 1.425 . S
C1197 C1194 1.409 . S
C1197 C1195 1.415 . S
C1198 H1188 0.930 . S
C1198 C1196 1.419 . S
C1198 C1199 1.362 . S
C1199 H1189 0.930 . S
C1199 C1192 1.409 . S
C1199 C1198 1.362 . S
H1200 C1206 0.930 . S
H1201 C1209 0.930 . S
H1202 C1210 0.930 . S
H1203 C1211 0.930 . S
H1204 C1214 0.930 . S
H1205 C1215 0.930 . S
C1206 H1200 0.930 . S
C1206 C1207 1.355 . S
C1206 C1208 1.415 . S
C1207 C1206 1.355 . S
C1207 C1209 1.419 . S
C1208 C1206 1.415 . S
C1208 C1213 1.425 . S
C1208 C1215 1.409 . S
C1209 H1201 0.930 . S
C1209 C1207 1.419 . S
C1209 C1210 1.362 . S
C1210 H1202 0.930 . S
C1210 C1209 1.362 . S
C1210 C1213 1.409 . S
C1211 H1203 0.930 . S
C1211 C1212 1.355 . S
C1211 C1213 1.415 . S
C1212 C1211 1.355 . S
C1212 C1214 1.419 . S
C1213 C1208 1.425 . S
C1213 C1210 1.409 . S
C1213 C1211 1.415 . S
C1214 H1204 0.930 . S
C1214 C1212 1.419 . S
C1214 C1215 1.362 . S
C1215 H1205 0.930 . S
C1215 C1208 1.409 . S
C1215 C1214 1.362 . S
H1216 C1222 0.930 . S
H1217 C1225 0.930 . S
H1218 C1226 0.930 . S
H1219 C1227 0.930 1_556 S
H1220 C1230 0.930 . S
H1221 C1231 0.930 . S
C1222 H1216 0.930 . S
C1222 C1223 1.357 . S
C1222 C1224 1.415 . S
C1223 C1222 1.357 . S
C1223 C1225 1.417 1_554 S
C1224 C1222 1.415 . S
C1224 C1229 1.425 . S
C1224 C1231 1.409 . S
C1225 H1217 0.930 . S
C1225 C1223 1.417 1_556 S
C1225 C1226 1.362 . S
C1226 H1218 0.930 . S
C1226 C1225 1.362 . S
C1226 C1229 1.409 1_556 S
C1227 H1219 0.930 1_554 S
C1227 C1228 1.355 . S
C1227 C1229 1.415 . S
C1228 C1227 1.355 . S
C1228 C1230 1.419 . S
C1229 C1224 1.425 . S
C1229 C1226 1.409 1_554 S
C1229 C1227 1.415 . S
C1230 H1220 0.930 . S
C1230 C1228 1.419 . S
C1230 C1231 1.362 . S
C1231 H1221 0.930 . S
C1231 C1224 1.409 . S
C1231 C1230 1.362 . S
H1232 C1238 0.930 . S
H1233 C1241 0.930 . S
H1234 C1242 0.930 . S
H1235 C1243 0.930 . S
H1236 C1246 0.930 . S
H1237 C1247 0.930 . S
C1238 H1232 0.930 . S
C1238 C1239 1.355 . S
C1238 C1240 1.415 . S
C1239 C1238 1.355 . S
C1239 C1241 1.419 . S
C1240 C1238 1.415 . S
C1240 C1245 1.425 . S
C1240 C1247 1.409 1_554 S
C1241 H1233 0.930 . S
C1241 C1239 1.419 . S
C1241 C1242 1.362 . S
C1242 H1234 0.930 . S
C1242 C1241 1.362 . S
C1242 C1245 1.409 . S
C1243 H1235 0.930 . S
C1243 C1244 1.355 . S
C1243 C1245 1.415 . S
C1244 C1243 1.355 . S
C1244 C1246 1.419 1_554 S
C1245 C1240 1.425 . S
C1245 C1242 1.409 . S
C1245 C1243 1.415 . S
C1246 H1236 0.930 . S
C1246 C1244 1.419 1_556 S
C1246 C1247 1.362 . S
C1247 H1237 0.930 . S
C1247 C1240 1.409 1_556 S
C1247 C1246 1.362 . S
H1248 C1254 0.930 . S
H1249 C1257 0.930 . S
H1250 C1258 0.930 . S
H1251 C1259 0.930 . S
H1252 C1262 0.930 . S
H1253 C1263 0.930 . S
C1254 H1248 0.930 . S
C1254 C1255 1.355 . S
C1254 C1256 1.415 . S
C1255 C1254 1.355 . S
C1255 C1257 1.419 1_554 S
C1256 C1254 1.415 . S
C1256 C1261 1.425 . S
C1256 C1263 1.409 . S
C1257 H1249 0.930 . S
C1257 C1255 1.419 1_556 S
C1257 C1258 1.362 . S
C1258 H1250 0.930 . S
C1258 C1257 1.362 . S
C1258 C1261 1.409 1_556 S
C1259 H1251 0.930 . S
C1259 C1260 1.355 . S
C1259 C1261 1.415 . S
C1260 C1259 1.355 . S
C1260 C1262 1.419 . S
C1261 C1256 1.425 . S
C1261 C1258 1.409 1_554 S
C1261 C1259 1.415 . S
C1262 H1252 0.930 . S
C1262 C1260 1.419 . S
C1262 C1263 1.362 . S
C1263 H1253 0.930 . S
C1263 C1256 1.409 . S
C1263 C1262 1.362 . S
H1264 C1270 0.930 . S
H1265 C1273 0.930 . S
H1266 C1274 0.930 . S
H1267 C1275 0.930 . S
H1268 C1278 0.930 . S
H1269 C1279 0.930 . S
C1270 H1264 0.930 . S
C1270 C1271 1.355 . S
C1270 C1272 1.415 . S
C1271 C1270 1.355 . S
C1271 C1273 1.419 1_554 S
C1272 C1270 1.415 . S
C1272 C1277 1.425 1_554 S
C1272 C1279 1.409 . S
C1273 H1265 0.930 . S
C1273 C1271 1.419 1_556 S
C1273 C1274 1.362 . S
C1274 H1266 0.930 . S
C1274 C1273 1.362 . S
C1274 C1277 1.409 . S
C1275 H1267 0.930 . S
C1275 C1276 1.355 1_556 S
C1275 C1277 1.415 . S
C1276 C1275 1.355 1_554 S
C1276 C1278 1.419 . S
C1277 C1272 1.425 1_556 S
C1277 C1274 1.409 . S
C1277 C1275 1.415 . S
C1278 H1268 0.930 . S
C1278 C1276 1.419 . S
C1278 C1279 1.362 . S
C1279 H1269 0.930 . S
C1279 C1272 1.409 . S
C1279 C1278 1.362 . S
H1280 C1286 0.930 . S
H1281 C1289 0.930 . S
H1282 C1290 0.930 . S
H1283 C1291 0.930 . S
H1284 C1294 0.930 . S
H1285 C1295 0.930 . S
C1286 H1280 0.930 . S
C1286 C1287 1.355 . S
C1286 C1288 1.415 . S
C1287 C1286 1.355 . S
C1287 C1289 1.419 . S
C1288 C1286 1.415 . S
C1288 C1293 1.425 . S
C1288 C1295 1.409 . S
C1289 H1281 0.930 . S
C1289 C1287 1.419 . S
C1289 C1290 1.362 . S
C1290 H1282 0.930 . S
C1290 C1289 1.362 . S
C1290 C1293 1.409 . S
C1291 H1283 0.930 . S
C1291 C1292 1.355 . S
C1291 C1293 1.415 . S
C1292 C1291 1.355 . S
C1292 C1294 1.419 . S
C1293 C1288 1.425 . S
C1293 C1290 1.409 . S
C1293 C1291 1.415 . S
C1294 H1284 0.930 . S
C1294 C1292 1.419 . S
C1294 C1295 1.362 . S
C1295 H1285 0.930 . S
C1295 C1288 1.409 . S
C1295 C1294 1.362 . S
H1296 C1302 0.930 . S
H1297 C1305 0.930 . S
H1298 C1306 0.930 . S
H1299 C1307 0.930 . S
H1300 C1310 0.930 . S
H1301 C1311 0.930 . S
C1302 H1296 0.930 . S
C1302 C1303 1.355 . S
C1302 C1304 1.415 . S
C1303 C1302 1.355 . S
C1303 C1305 1.419 . S
C1304 C1302 1.415 . S
C1304 C1309 1.425 . S
C1304 C1311 1.409 . S
C1305 H1297 0.930 . S
C1305 C1303 1.419 . S
C1305 C1306 1.362 . S
C1306 H1298 0.930 . S
C1306 C1305 1.362 . S
C1306 C1309 1.409 . S
C1307 H1299 0.930 . S
C1307 C1308 1.355 . S
C1307 C1309 1.415 . S
C1308 C1307 1.355 . S
C1308 C1310 1.419 . S
C1309 C1304 1.425 . S
C1309 C1306 1.409 . S
C1309 C1307 1.415 . S
C1310 H1300 0.930 . S
C1310 C1308 1.419 . S
C1310 C1311 1.362 . S
C1311 H1301 0.930 . S
C1311 C1304 1.409 . S
C1311 C1310 1.362 . S
H1312 C1318 0.930 . S
H1313 C1321 0.930 . S
H1314 C1322 0.930 . S
H1315 C1323 0.930 . S
H1316 C1326 0.930 . S
H1317 C1327 0.930 . S
C1318 H1312 0.930 . S
C1318 C1319 1.355 . S
C1318 C1320 1.415 . S
C1319 C1318 1.355 . S
C1319 C1321 1.419 . S
C1320 C1318 1.415 . S
C1320 C1325 1.425 . S
C1320 C1327 1.409 . S
C1321 H1313 0.930 . S
C1321 C1319 1.419 . S
C1321 C1322 1.362 . S
C1322 H1314 0.930 . S
C1322 C1321 1.362 . S
C1322 C1325 1.409 . S
C1323 H1315 0.930 . S
C1323 C1324 1.355 . S
C1323 C1325 1.415 . S
C1324 C1323 1.355 . S
C1324 C1326 1.419 . S
C1325 C1320 1.425 . S
C1325 C1322 1.409 . S
C1325 C1323 1.415 . S
C1326 H1316 0.930 . S
C1326 C1324 1.419 . S
C1326 C1327 1.362 . S
C1327 H1317 0.930 . S
C1327 C1320 1.409 . S
C1327 C1326 1.362 . S
H1328 C1334 0.930 . S
H1329 C1337 0.930 . S
H1330 C1338 0.930 . S
H1331 C1339 0.930 . S
H1332 C1342 0.930 . S
H1333 C1343 0.930 . S
C1334 H1328 0.930 . S
C1334 C1335 1.355 . S
C1334 C1336 1.415 . S
C1335 C1334 1.355 . S
C1335 C1337 1.419 . S
C1336 C1334 1.415 . S
C1336 C1341 1.425 . S
C1336 C1343 1.409 . S
C1337 H1329 0.930 . S
C1337 C1335 1.419 . S
C1337 C1338 1.362 . S
C1338 H1330 0.930 . S
C1338 C1337 1.362 . S
C1338 C1341 1.409 . S
C1339 H1331 0.930 . S
C1339 C1340 1.355 . S
C1339 C1341 1.415 . S
C1340 C1339 1.355 . S
C1340 C1342 1.419 . S
C1341 C1336 1.425 . S
C1341 C1338 1.409 . S
C1341 C1339 1.415 . S
C1342 H1332 0.930 . S
C1342 C1340 1.419 . S
C1342 C1343 1.362 . S
C1343 H1333 0.930 . S
C1343 C1336 1.409 . S
C1343 C1342 1.362 . S
H1344 C1350 0.930 . S
H1345 C1353 0.930 . S
H1346 C1354 0.930 1_554 S
H1347 C1355 0.930 . S
H1348 C1358 0.930 . S
H1349 C1359 0.930 . S
C1350 H1344 0.930 . S
C1350 C1351 1.355 . S
C1350 C1352 1.415 . S
C1351 C1350 1.355 . S
C1351 C1353 1.419 . S
C1352 C1350 1.415 . S
C1352 C1357 1.425 . S
C1352 C1359 1.409 . S
C1353 H1345 0.930 . S
C1353 C1351 1.419 . S
C1353 C1354 1.362 . S
C1354 H1346 0.930 1_556 S
C1354 C1353 1.362 . S
C1354 C1357 1.409 . S
C1355 H1347 0.930 . S
C1355 C1356 1.355 1_554 S
C1355 C1357 1.415 1_554 S
C1356 C1355 1.355 1_556 S
C1356 C1358 1.419 . S
C1357 C1352 1.425 . S
C1357 C1354 1.409 . S
C1357 C1355 1.415 1_556 S
C1358 H1348 0.930 . S
C1358 C1356 1.419 . S
C1358 C1359 1.362 . S
C1359 H1349 0.930 . S
C1359 C1352 1.409 . S
C1359 C1358 1.362 . S
H1360 C1366 0.930 1_554 S
H1361 C1369 0.930 . S
H1362 C1370 0.930 . S
H1363 C1371 0.930 . S
H1364 C1374 0.930 . S
H1365 C1375 0.930 . S
C1366 H1360 0.930 1_556 S
C1366 C1367 1.355 . S
C1366 C1368 1.415 . S
C1367 C1366 1.355 . S
C1367 C1369 1.419 . S
C1368 C1366 1.415 . S
C1368 C1373 1.425 . S
C1368 C1375 1.409 1_556 S
C1369 H1361 0.930 . S
C1369 C1367 1.419 . S
C1369 C1370 1.362 . S
C1370 H1362 0.930 . S
C1370 C1369 1.362 . S
C1370 C1373 1.409 . S
C1371 H1363 0.930 . S
C1371 C1372 1.355 . S
C1371 C1373 1.415 . S
C1372 C1371 1.355 . S
C1372 C1374 1.419 1_556 S
C1373 C1368 1.425 . S
C1373 C1370 1.409 . S
C1373 C1371 1.415 . S
C1374 H1364 0.930 . S
C1374 C1372 1.419 1_554 S
C1374 C1375 1.362 . S
C1375 H1365 0.930 . S
C1375 C1368 1.409 1_554 S
C1375 C1374 1.362 . S
H1376 C1382 0.930 . S
H1377 C1385 0.930 . S
H1378 C1386 0.930 . S
H1379 C1387 0.930 1_554 S
H1380 C1390 0.930 . S
H1381 C1391 0.930 . S
C1382 H1376 0.930 . S
C1382 C1383 1.355 . S
C1382 C1384 1.415 . S
C1383 C1382 1.355 . S
C1383 C1385 1.419 1_556 S
C1384 C1382 1.415 . S
C1384 C1389 1.425 . S
C1384 C1391 1.409 . S
C1385 H1377 0.930 . S
C1385 C1383 1.419 1_554 S
C1385 C1386 1.362 . S
C1386 H1378 0.930 . S
C1386 C1385 1.362 . S
C1386 C1389 1.409 1_554 S
C1387 H1379 0.930 1_556 S
C1387 C1388 1.355 . S
C1387 C1389 1.415 . S
C1388 C1387 1.355 . S
C1388 C1390 1.419 . S
C1389 C1384 1.425 . S
C1389 C1386 1.409 1_556 S
C1389 C1387 1.415 . S
C1390 H1380 0.930 . S
C1390 C1388 1.419 . S
C1390 C1391 1.362 . S
C1391 H1381 0.930 . S
C1391 C1384 1.409 . S
C1391 C1390 1.362 . S
H1392 C1398 0.930 1_554 S
H1393 C1401 0.930 . S
H1394 C1402 0.930 . S
H1395 C1403 0.930 . S
H1396 C1406 0.930 . S
H1397 C1407 0.930 1_554 S
C1398 H1392 0.930 1_556 S
C1398 C1399 1.355 . S
C1398 C1400 1.415 . S
C1399 C1398 1.355 . S
C1399 C1401 1.419 . S
C1400 C1398 1.415 . S
C1400 C1405 1.425 . S
C1400 C1407 1.409 . S
C1401 H1393 0.930 . S
C1401 C1399 1.419 . S
C1401 C1402 1.362 . S
C1402 H1394 0.930 . S
C1402 C1401 1.362 . S
C1402 C1405 1.409 . S
C1403 H1395 0.930 . S
C1403 C1404 1.355 . S
C1403 C1405 1.415 . S
C1404 C1403 1.355 . S
C1404 C1406 1.419 . S
C1405 C1400 1.425 . S
C1405 C1402 1.409 . S
C1405 C1403 1.415 . S
C1406 H1396 0.930 . S
C1406 C1404 1.419 . S
C1406 C1407 1.362 . S
C1407 H1397 0.930 1_556 S
C1407 C1400 1.409 . S
C1407 C1406 1.362 . S
C647 C23 2.340 . S
C652 C223 2.383 . S
C663 C263 2.344 . S
C668 C63 2.336 . S
C679 C103 2.387 . S
C684 C303 2.321 . S
C695 C143 2.385 . S
C700 C183 2.339 . S
C711 C522 2.330 . S
C716 C322 2.387 . S
C727 C562 2.366 . S
C732 C362 2.320 . S
C743 C402 2.316 . S
C748 C602 2.381 . S
C759 C442 2.364 . S
C764 C482 2.367 . S
C775 C4 1.924 . S
C780 C140 1.810 . S
C791 C44 1.961 . S
C796 C20 1.793 . S
C807 C84 1.924 . S
C812 C60 1.808 . S
C823 C124 1.941 . S
C828 C100 1.778 . S
C839 C164 1.965 . S
C844 C220 1.799 . S
C855 C260 1.813 . S
C860 C204 1.925 . S
C871 C244 1.975 . S
C876 C300 1.818 . S
C887 C180 1.865 . S
C892 C284 1.976 . S
C903 C471 1.827 . S
C908 C345 1.978 . S
C919 C385 1.955 . S
C924 C351 1.863 . S
C935 C425 1.977 . S
C940 C391 1.823 . S
C951 C465 1.982 . S
C956 C431 1.852 . S
C967 C505 1.934 . S
C972 C551 1.838 . S
C983 C545 1.981 . S
C988 C591 1.850 . S
C999 C585 1.959 . S
C1004 C631 1.791 . S
C1015 C625 1.980 . S
C1020 C511 1.858 . S
C1031 C25 1.426 . S
C1036 C105 1.415 . S
C1047 C65 1.396 . S
C1052 C145 1.372 . S
C1063 C265 1.401 . S
C1068 C185 1.378 . S
C1079 C305 1.360 . S
C1084 C225 1.379 . S
C1095 C404 1.359 . S
C1100 C324 1.353 . S
C1111 C444 1.371 . S
C1116 C364 1.356 . S
C1127 C484 1.354 . S
C1132 C564 1.357 . S
C1143 C524 1.354 . S
C1148 C604 1.356 . S
C1159 C31 2.852 . S
C1164 C463 2.827 . S
C1175 C343 2.836 . S
C1180 C71 2.859 . S
C1191 C111 2.851 . S
C1196 C383 2.825 . S
C1207 C423 2.848 . S
C1212 C151 2.869 . S
C1223 C543 2.816 1_554 S
C1228 C191 2.845 . S
C1239 C231 2.853 . S
C1244 C583 2.827 1_554 S
C1255 C623 2.821 1_554 S
C1260 C271 2.847 . S
C1271 C311 2.868 . S
C1276 C503 2.847 1_554 S
C1287 C340 2.847 . S
C1292 C122 2.820 . S
C1303 C380 2.856 . S
C1308 C2 2.832 . S
C1319 C42 2.823 . S
C1324 C420 2.850 . S
C1335 C460 2.857 . S
C1340 C82 2.833 . S
C1351 C500 2.854 . S
C1356 C202 2.830 1_556 S
C1367 C540 2.851 . S
C1372 C242 2.826 1_556 S
C1383 C282 2.821 1_556 S
C1388 C580 2.847 . S
C1399 C162 2.840 1_556 S
C1404 C620 2.863 . S
