# Generated by pormake.
# Topology fnz, (5)-cn, num edge types: 1
# Building blocks:
#     Node 0, Type 0, BuildingBlock: XOMCOT_clean_sbu_0, # of connection points: 5
#     Node 1, Type 0, BuildingBlock: XOMCOT_clean_sbu_0, # of connection points: 5
#     Node 2, Type 0, BuildingBlock: XOMCOT_clean_sbu_0, # of connection points: 5
#     Node 3, Type 0, BuildingBlock: XOMCOT_clean_sbu_0, # of connection points: 5
#     Node 4, Type 0, BuildingBlock: XOMCOT_clean_sbu_0, # of connection points: 5
#     Node 5, Type 0, BuildingBlock: XOMCOT_clean_sbu_0, # of connection points: 5
#     Node 6, Type 0, BuildingBlock: XOMCOT_clean_sbu_0, # of connection points: 5
#     Node 7, Type 0, BuildingBlock: XOMCOT_clean_sbu_0, # of connection points: 5
#     Node 8, Type 0, BuildingBlock: XOMCOT_clean_sbu_0, # of connection points: 5
#     Node 9, Type 0, BuildingBlock: XOMCOT_clean_sbu_0, # of connection points: 5
#     Node 10, Type 0, BuildingBlock: XOMCOT_clean_sbu_0, # of connection points: 5
#     Node 11, Type 0, BuildingBlock: XOMCOT_clean_sbu_0, # of connection points: 5
#     Edge 12, Type (0, 0), BuildingBlock: MIFKUJ_clean_linker_0, # of connection points: 2
#     Edge 13, Type (0, 0), BuildingBlock: MIFKUJ_clean_linker_0, # of connection points: 2
#     Edge 14, Type (0, 0), BuildingBlock: MIFKUJ_clean_linker_0, # of connection points: 2
#     Edge 15, Type (0, 0), BuildingBlock: MIFKUJ_clean_linker_0, # of connection points: 2
#     Edge 16, Type (0, 0), BuildingBlock: MIFKUJ_clean_linker_0, # of connection points: 2
#     Edge 17, Type (0, 0), BuildingBlock: MIFKUJ_clean_linker_0, # of connection points: 2
#     Edge 18, Type (0, 0), BuildingBlock: MIFKUJ_clean_linker_0, # of connection points: 2
#     Edge 19, Type (0, 0), BuildingBlock: MIFKUJ_clean_linker_0, # of connection points: 2
#     Edge 20, Type (0, 0), BuildingBlock: MIFKUJ_clean_linker_0, # of connection points: 2
#     Edge 21, Type (0, 0), BuildingBlock: MIFKUJ_clean_linker_0, # of connection points: 2
#     Edge 22, Type (0, 0), BuildingBlock: MIFKUJ_clean_linker_0, # of connection points: 2
#     Edge 23, Type (0, 0), BuildingBlock: MIFKUJ_clean_linker_0, # of connection points: 2
#     Edge 24, Type (0, 0), BuildingBlock: MIFKUJ_clean_linker_0, # of connection points: 2
#     Edge 25, Type (0, 0), BuildingBlock: MIFKUJ_clean_linker_0, # of connection points: 2
#     Edge 26, Type (0, 0), BuildingBlock: MIFKUJ_clean_linker_0, # of connection points: 2
#     Edge 27, Type (0, 0), BuildingBlock: MIFKUJ_clean_linker_0, # of connection points: 2
#     Edge 28, Type (0, 0), BuildingBlock: MIFKUJ_clean_linker_0, # of connection points: 2
#     Edge 29, Type (0, 0), BuildingBlock: MIFKUJ_clean_linker_0, # of connection points: 2
#     Edge 30, Type (0, 0), BuildingBlock: MIFKUJ_clean_linker_0, # of connection points: 2
#     Edge 31, Type (0, 0), BuildingBlock: MIFKUJ_clean_linker_0, # of connection points: 2
#     Edge 32, Type (0, 0), BuildingBlock: MIFKUJ_clean_linker_0, # of connection points: 2
#     Edge 33, Type (0, 0), BuildingBlock: MIFKUJ_clean_linker_0, # of connection points: 2
#     Edge 34, Type (0, 0), BuildingBlock: MIFKUJ_clean_linker_0, # of connection points: 2
#     Edge 35, Type (0, 0), BuildingBlock: MIFKUJ_clean_linker_0, # of connection points: 2
#     Edge 36, Type (0, 0), BuildingBlock: MIFKUJ_clean_linker_0, # of connection points: 2
#     Edge 37, Type (0, 0), BuildingBlock: MIFKUJ_clean_linker_0, # of connection points: 2
#     Edge 38, Type (0, 0), BuildingBlock: MIFKUJ_clean_linker_0, # of connection points: 2
#     Edge 39, Type (0, 0), BuildingBlock: MIFKUJ_clean_linker_0, # of connection points: 2
#     Edge 40, Type (0, 0), BuildingBlock: MIFKUJ_clean_linker_0, # of connection points: 2
#     Edge 41, Type (0, 0), BuildingBlock: MIFKUJ_clean_linker_0, # of connection points: 2
# Relax obj value: 0.177
# Max RMSD: 0.247
# Mean RMSD: 0.247
data_MOF--net-fnz--node1-XOMCOT_clean_sbu_0--edge1-MIFKUJ_clean_linker_0
_symmetry_space_group_name_H-M    P1
_symmetry_Int_Tables_number       1
_symmetry_cell_setting            triclinic
loop_
_symmetry_equiv_pos_as_xyz
'x, y, z'
_cell_length_a     56.045003
_cell_length_b     56.029292
_cell_length_c     39.038613
_cell_angle_alpha  89.990533
_cell_angle_beta   89.988965
_cell_angle_gamma 119.98396
loop_
_atom_site_label
_atom_site_type_symbol
_atom_site_fract_x
_atom_site_fract_y
_atom_site_fract_z
_atom_type_partial_charge
Co0 Co 0.41398 0.14042 0.04626 0.0
C1 C 0.38525 0.17195 0.04341 0.0
C2 C 0.35958 0.13217 0.066 0.0
C3 C 0.3452 0.14622 0.0653 0.0
N4 N 0.38456 0.14837 0.0521 0.0
N5 N 0.36142 0.17126 0.05106 0.0
H6 H 0.40279 0.18908 0.03127 0.0
H7 H 0.3524 0.1117 0.07607 0.0
C8 C 0.38756 0.08394 0.0147 0.0
O9 O 0.40888 0.09203 0.99427 0.0
N10 N 0.4438 0.13253 0.04118 0.0
C11 C 0.46857 0.1477 0.02603 0.0
C12 C 0.48301 0.13388 0.02863 0.0
C13 C 0.44404 0.11024 0.05387 0.0
N14 N 0.46747 0.11021 0.04591 0.0
C15 C 0.43814 0.17747 0.98925 0.0
C16 C 0.39761 0.14633 0.94209 0.0
C17 C 0.42004 0.17142 0.93172 0.0
C18 C 0.44023 0.18737 0.95587 0.0
C19 C 0.39604 0.1375 0.97586 0.0
N20 N 0.41693 0.1522 0.99857 0.0
H21 H 0.45335 0.1905 0.00782 0.0
H22 H 0.37742 0.1193 0.98374 0.0
H23 H 0.47605 0.1674 0.01387 0.0
H24 H 0.4271 0.09414 0.06819 0.0
O25 O 0.43907 0.17533 0.06785 0.0
O26 O 0.41478 0.13545 0.09488 0.0
O27 O 0.3861 0.10094 0.03521 0.0
C28 C 0.4322 0.16172 0.09662 0.0
H29 H 0.32455 0.13866 0.07494 0.0
H30 H 0.5031 0.14044 0.01768 0.0
H31 H 0.38096 0.13405 0.9245 0.0
H32 H 0.45749 0.20729 0.94901 0.0
Co33 Co 0.27778 0.41982 0.03756 0.0
C34 C 0.21639 0.39128 0.03095 0.0
C35 C 0.23015 0.36801 0.06003 0.0
C36 C 0.2018 0.35397 0.06003 0.0
N37 N 0.23936 0.39125 0.04135 0.0
N38 N 0.19323 0.36866 0.04167 0.0
H39 H 0.21621 0.40791 0.01744 0.0
H40 H 0.24323 0.36193 0.07324 0.0
C41 C 0.27488 0.36934 0.00709 0.0
O42 O 0.25105 0.36282 0.99317 0.0
N43 N 0.31589 0.44787 0.03502 0.0
C44 C 0.32656 0.47348 0.02225 0.0
C45 C 0.3548 0.48652 0.0253 0.0
C46 C 0.33746 0.44566 0.04596 0.0
N47 N 0.36166 0.46901 0.04026 0.0
C48 C 0.2596 0.44126 0.98299 0.0
C49 C 0.28128 0.42568 0.92972 0.0
C50 C 0.26456 0.43702 0.92212 0.0
C51 C 0.25447 0.44574 0.94933 0.0
C52 C 0.28592 0.42165 0.96383 0.0
N53 N 0.27334 0.42744 0.98993 0.0
H54 H 0.25214 0.44867 0.00354 0.0
H55 H 0.29978 0.41399 0.96894 0.0
H56 H 0.3147 0.48197 0.01125 0.0
H57 H 0.33527 0.4273 0.05806 0.0
O58 O 0.2693 0.44538 0.06029 0.0
O59 O 0.28116 0.41768 0.08637 0.0
O60 O 0.28831 0.39153 0.02435 0.0
C61 C 0.27375 0.43621 0.08882 0.0
H62 H 0.18856 0.33459 0.07275 0.0
H63 H 0.36906 0.50714 0.01647 0.0
H64 H 0.29024 0.41938 0.90958 0.0
H65 H 0.24264 0.45589 0.9447 0.0
Co66 Co 0.85585 0.27119 0.03848 0.0
C67 C 0.82547 0.21084 0.0392 0.0
C68 C 0.86623 0.22655 0.05952 0.0
C69 C 0.85299 0.19814 0.05964 0.0
N70 N 0.84893 0.23433 0.04646 0.0
N71 N 0.82738 0.18838 0.0469 0.0
H72 H 0.80765 0.21028 0.02765 0.0
H73 H 0.88699 0.2405 0.06815 0.0
C74 C 0.91135 0.29804 0.00436 0.0
O75 O 0.90179 0.30718 0.98 0.0
N76 N 0.86281 0.30859 0.03162 0.0
C77 C 0.84423 0.31687 0.02653 0.0
C78 C 0.85749 0.34518 0.02727 0.0
C79 C 0.88683 0.33212 0.03735 0.0
N80 N 0.88437 0.35479 0.03393 0.0
C81 C 0.82382 0.26236 0.97699 0.0
C82 C 0.85043 0.24138 0.93832 0.0
C83 C 0.8292 0.24402 0.92316 0.0
C84 C 0.81562 0.25439 0.94314 0.0
C85 C 0.85804 0.24973 0.97214 0.0
N86 N 0.84564 0.26125 0.99066 0.0
H87 H 0.81196 0.26854 0.99237 0.0
H88 H 0.87369 0.24645 0.98365 0.0
H89 H 0.82223 0.30357 0.02468 0.0
H90 H 0.90564 0.33266 0.04475 0.0
O91 O 0.82004 0.26045 0.05764 0.0
O92 O 0.85919 0.27795 0.08699 0.0
O93 O 0.89569 0.28353 0.02887 0.0
C94 C 0.83268 0.26813 0.08701 0.0
H95 H 0.86148 0.18565 0.06864 0.0
H96 H 0.84778 0.35761 0.02458 0.0
H97 H 0.86074 0.23238 0.92445 0.0
H98 H 0.79875 0.25636 0.93284 0.0
Co99 Co 0.5743 0.85469 0.04416 0.0
C100 C 0.60123 0.82141 0.04453 0.0
C101 C 0.62605 0.8599 0.07042 0.0
C102 C 0.63947 0.8449 0.07145 0.0
N103 N 0.60223 0.84511 0.05334 0.0
N104 N 0.62378 0.82068 0.05513 0.0
H105 H 0.58446 0.80528 0.03007 0.0
H106 H 0.63308 0.88004 0.08145 0.0
C107 C 0.60659 0.91041 0.0113 0.0
O108 O 0.58883 0.90202 0.98592 0.0
N109 N 0.54594 0.86438 0.03607 0.0
C110 C 0.51916 0.84771 0.02801 0.0
C111 C 0.5058 0.86268 0.02909 0.0
C112 C 0.548 0.88887 0.04357 0.0
N113 N 0.52402 0.88862 0.0388 0.0
C114 C 0.55133 0.82277 0.98276 0.0
C115 C 0.59933 0.84784 0.94474 0.0
C116 C 0.57535 0.82674 0.92968 0.0
C117 C 0.55119 0.81397 0.94928 0.0
C118 C 0.59851 0.85605 0.97827 0.0
N119 N 0.57438 0.84447 0.99639 0.0
H120 H 0.53321 0.81119 0.99813 0.0
H121 H 0.61753 0.87139 0.98991 0.0
H122 H 0.50923 0.82583 0.02372 0.0
H123 H 0.56636 0.9062 0.05399 0.0
O124 O 0.54714 0.81924 0.06238 0.0
O125 O 0.57006 0.85786 0.09252 0.0
O126 O 0.60388 0.89409 0.03579 0.0
C127 C 0.55232 0.8316 0.09196 0.0
H128 H 0.65909 0.85127 0.08362 0.0
H129 H 0.48421 0.85483 0.02372 0.0
H130 H 0.61863 0.85793 0.93082 0.0
H131 H 0.53253 0.79667 0.93926 0.0
Co132 Co 0.72272 0.58401 0.03257 0.0
C133 C 0.78318 0.61333 0.02922 0.0
C134 C 0.76844 0.63888 0.05062 0.0
C135 C 0.79682 0.6535 0.05045 0.0
N136 N 0.76004 0.61382 0.03716 0.0
N137 N 0.80604 0.63737 0.03704 0.0
H138 H 0.78317 0.5957 0.01791 0.0
H139 H 0.75491 0.64585 0.06043 0.0
C140 C 0.69218 0.60987 0.00167 0.0
O141 O 0.67907 0.58831 0.98158 0.0
N142 N 0.68494 0.55398 0.02915 0.0
C143 C 0.67508 0.52832 0.01657 0.0
C144 C 0.64708 0.51351 0.02195 0.0
C145 C 0.66286 0.55401 0.04301 0.0
N146 N 0.63942 0.52975 0.03844 0.0
C147 C 0.73304 0.55953 0.97397 0.0
C148 C 0.74437 0.60172 0.92862 0.0
C149 C 0.74585 0.57883 0.91696 0.0
C150 C 0.74038 0.55769 0.94033 0.0
C151 C 0.73732 0.60286 0.9626 0.0
N152 N 0.73026 0.58126 0.98443 0.0
H153 H 0.73073 0.54391 0.99193 0.0
H154 H 0.73856 0.62167 0.9714 0.0
H155 H 0.68701 0.52027 0.00498 0.0
H156 H 0.66404 0.57145 0.05648 0.0
O157 O 0.73362 0.55921 0.05193 0.0
O158 O 0.71859 0.58286 0.08165 0.0
O159 O 0.71041 0.61149 0.02268 0.0
C160 C 0.72791 0.56574 0.08157 0.0
H161 H 0.80963 0.67415 0.06028 0.0
H162 H 0.63339 0.49247 0.01398 0.0
H163 H 0.74891 0.61886 0.91184 0.0
H164 H 0.74263 0.54027 0.9331 0.0
Co165 Co 0.14056 0.71731 0.03583 0.0
C166 C 0.17328 0.7788 0.03386 0.0
C167 C 0.13708 0.76362 0.06493 0.0
C168 C 0.15188 0.79184 0.0679 0.0
N169 N 0.15029 0.75541 0.04321 0.0
N170 N 0.17471 0.80138 0.04836 0.0
H171 H 0.18906 0.77947 0.0176 0.0
H172 H 0.11837 0.74986 0.0786 0.0
C173 C 0.09247 0.72167 0.01029 0.0
O174 O 0.10969 0.74594 0.99729 0.0
N175 N 0.13087 0.67946 0.0297 0.0
C176 C 0.14792 0.66992 0.02138 0.0
C177 C 0.13293 0.64153 0.02086 0.0
C178 C 0.10587 0.657 0.03401 0.0
N179 N 0.10655 0.63358 0.02866 0.0
C180 C 0.17941 0.73749 0.98025 0.0
C181 C 0.1414 0.7187 0.92767 0.0
C182 C 0.16946 0.73475 0.9195 0.0
C183 C 0.18859 0.74345 0.9464 0.0
C184 C 0.13318 0.71298 0.96188 0.0
N185 N 0.15196 0.72402 0.98785 0.0
H186 H 0.19455 0.74399 0.00042 0.0
H187 H 0.11164 0.6994 0.96713 0.0
H188 H 0.1697 0.6827 0.01624 0.0
H189 H 0.08767 0.65768 0.04167 0.0
O190 O 0.17506 0.72529 0.05699 0.0
O191 O 0.13573 0.71162 0.08451 0.0
O192 O 0.10148 0.70729 0.02482 0.0
C193 C 0.16186 0.71969 0.08599 0.0
H194 H 0.14674 0.80419 0.08429 0.0
H195 H 0.14073 0.62781 0.01488 0.0
H196 H 0.12575 0.71086 0.90792 0.0
H197 H 0.21053 0.75468 0.94144 0.0
Co198 Co 0.85954 0.58029 0.45471 0.0
C199 C 0.83069 0.612 0.45743 0.0
C200 C 0.87096 0.63566 0.43522 0.0
C201 C 0.85853 0.65154 0.43551 0.0
N202 N 0.85349 0.611 0.44909 0.0
N203 N 0.83319 0.63663 0.4495 0.0
H204 H 0.81253 0.59484 0.46856 0.0
H205 H 0.89124 0.64162 0.42543 0.0
C206 C 0.91559 0.60586 0.48758 0.0
O207 O 0.90672 0.58504 0.50902 0.0
N208 N 0.8659 0.54938 0.4592 0.0
C209 C 0.84815 0.52298 0.46799 0.0
C210 C 0.86121 0.50778 0.46467 0.0
C211 C 0.88899 0.54945 0.44922 0.0
N212 N 0.88695 0.52461 0.45314 0.0
C213 C 0.82422 0.55622 0.51305 0.0
C214 C 0.85457 0.59903 0.55783 0.0
C215 C 0.83028 0.57613 0.56967 0.0
C216 C 0.81485 0.55469 0.54656 0.0
C217 C 0.86291 0.59988 0.524 0.0
N218 N 0.84861 0.57801 0.50249 0.0
H219 H 0.81113 0.54038 0.49524 0.0
H220 H 0.8805 0.61861 0.51501 0.0
H221 H 0.82694 0.51476 0.47526 0.0
H222 H 0.9069 0.56728 0.43873 0.0
O223 O 0.82393 0.55645 0.4344 0.0
O224 O 0.86349 0.57886 0.40595 0.0
O225 O 0.89938 0.6069 0.46541 0.0
C226 C 0.83695 0.56249 0.40524 0.0
H227 H 0.86763 0.67254 0.42641 0.0
H228 H 0.85255 0.48613 0.47057 0.0
H229 H 0.86707 0.61636 0.57439 0.0
H230 H 0.79524 0.53722 0.55387 0.0
Co231 Co 0.27532 0.86041 0.45905 0.0
C232 C 0.21541 0.82726 0.45796 0.0
C233 C 0.22818 0.87001 0.45095 0.0
C234 C 0.19973 0.855 0.45136 0.0
N235 N 0.23781 0.85247 0.45528 0.0
N236 N 0.19195 0.82819 0.45554 0.0
H237 H 0.21625 0.80863 0.46244 0.0
H238 H 0.24079 0.89206 0.44788 0.0
C239 C 0.30731 0.91695 0.49014 0.0
O240 O 0.32172 0.9089 0.50839 0.0
N241 N 0.313 0.86812 0.46216 0.0
C242 C 0.32355 0.85469 0.47948 0.0
C243 C 0.35162 0.86831 0.47466 0.0
C244 C 0.33467 0.88914 0.44625 0.0
N245 N 0.35864 0.89012 0.45394 0.0
C246 C 0.26245 0.82233 0.51482 0.0
C247 C 0.25483 0.85341 0.56394 0.0
C248 C 0.25085 0.82752 0.57301 0.0
C249 C 0.25434 0.8117 0.54789 0.0
C250 C 0.26238 0.863 0.53047 0.0
N251 N 0.26746 0.84816 0.50667 0.0
H252 H 0.26441 0.80956 0.49561 0.0
H253 H 0.26293 0.8819 0.52372 0.0
H254 H 0.31215 0.83657 0.49502 0.0
H255 H 0.33284 0.90384 0.43011 0.0
O256 O 0.26513 0.82573 0.43651 0.0
O257 O 0.27975 0.86573 0.41025 0.0
O258 O 0.28752 0.8999 0.47114 0.0
C259 C 0.27098 0.83951 0.40792 0.0
H260 H 0.18588 0.86309 0.44853 0.0
H261 H 0.36581 0.86309 0.48669 0.0
H262 H 0.2512 0.86576 0.58229 0.0
H263 H 0.25092 0.79132 0.55377 0.0
Co264 Co 0.42082 0.28019 0.46742 0.0
C265 C 0.39275 0.21988 0.46711 0.0
C266 C 0.36778 0.23438 0.44346 0.0
C267 C 0.35415 0.20601 0.44137 0.0
N268 N 0.39185 0.24288 0.45974 0.0
N269 N 0.36995 0.19696 0.45622 0.0
H270 H 0.40989 0.22007 0.48011 0.0
H271 H 0.36092 0.24787 0.43317 0.0
C272 C 0.39174 0.30728 0.49982 0.0
O273 O 0.411 0.31801 0.52342 0.0
N274 N 0.45008 0.31794 0.4741 0.0
C275 C 0.47596 0.32743 0.48572 0.0
C276 C 0.49019 0.35573 0.48363 0.0
C277 C 0.44939 0.3406 0.4639 0.0
N278 N 0.47338 0.36397 0.47005 0.0
C279 C 0.44409 0.26873 0.52658 0.0
C280 C 0.4001 0.25474 0.57001 0.0
C281 C 0.42347 0.2548 0.58269 0.0
C282 C 0.44539 0.26121 0.56036 0.0
C283 C 0.39945 0.2618 0.53587 0.0
N284 N 0.42203 0.27057 0.5152 0.0
H285 H 0.46052 0.27217 0.50935 0.0
H286 H 0.38049 0.25961 0.52604 0.0
H287 H 0.48458 0.31505 0.49413 0.0
H288 H 0.43179 0.33994 0.45155 0.0
O289 O 0.44694 0.27097 0.44783 0.0
O290 O 0.42347 0.28654 0.41883 0.0
O291 O 0.39235 0.29135 0.47684 0.0
C292 C 0.44088 0.2776 0.41843 0.0
H293 H 0.3345 0.19317 0.42903 0.0
H294 H 0.51125 0.36916 0.49168 0.0
H295 H 0.38219 0.24855 0.5861 0.0
H296 H 0.46339 0.26046 0.56893 0.0
Co297 Co 0.13859 0.41428 0.46266 0.0
C298 C 0.17042 0.38591 0.46936 0.0
C299 C 0.12911 0.3581 0.45255 0.0
C300 C 0.14284 0.34356 0.45607 0.0
N301 N 0.14644 0.38454 0.46114 0.0
N302 N 0.16879 0.36114 0.46658 0.0
H303 H 0.18849 0.40457 0.47789 0.0
H304 H 0.10801 0.34995 0.44438 0.0
C305 C 0.08307 0.38907 0.49692 0.0
O306 O 0.09158 0.4112 0.51598 0.0
N307 N 0.13063 0.44431 0.46328 0.0
C308 C 0.14794 0.47119 0.46998 0.0
C309 C 0.13408 0.48544 0.46565 0.0
C310 C 0.10691 0.44295 0.45329 0.0
N311 N 0.10812 0.46761 0.45549 0.0
C312 C 0.1754 0.44326 0.51827 0.0
C313 C 0.1475 0.40354 0.56761 0.0
C314 C 0.17196 0.42741 0.5766 0.0
C315 C 0.18614 0.4473 0.55138 0.0
C316 C 0.13768 0.4002 0.53413 0.0
N317 N 0.15082 0.42052 0.51022 0.0
H318 H 0.18763 0.4579 0.49881 0.0
H319 H 0.12014 0.38065 0.52727 0.0
H320 H 0.16942 0.48039 0.4764 0.0
H321 H 0.08899 0.42412 0.445 0.0
O322 O 0.1733 0.4381 0.44024 0.0
O323 O 0.13354 0.41182 0.41375 0.0
O324 O 0.09934 0.38714 0.47562 0.0
C325 C 0.15979 0.42938 0.4116 0.0
H326 H 0.1345 0.32184 0.4509 0.0
H327 H 0.14274 0.50739 0.46919 0.0
H328 H 0.13662 0.38707 0.58597 0.0
H329 H 0.20555 0.46568 0.55705 0.0
Co330 Co 0.71948 0.14432 0.45707 0.0
C331 C 0.7798 0.17822 0.45557 0.0
C332 C 0.76574 0.14041 0.42787 0.0
C333 C 0.79406 0.15556 0.42581 0.0
N334 N 0.757 0.15463 0.44674 0.0
N335 N 0.80285 0.17931 0.44331 0.0
H336 H 0.77938 0.19397 0.47115 0.0
H337 H 0.75245 0.12058 0.4162 0.0
C338 C 0.69783 0.08908 0.48991 0.0
O339 O 0.68755 0.09708 0.5147 0.0
N340 N 0.68126 0.13367 0.46587 0.0
C341 C 0.67077 0.15013 0.47334 0.0
C342 C 0.64258 0.13522 0.47049 0.0
C343 C 0.65915 0.10928 0.45706 0.0
N344 N 0.63527 0.10953 0.46011 0.0
C345 C 0.72738 0.17482 0.51977 0.0
C346 C 0.75327 0.15145 0.55528 0.0
C347 C 0.74864 0.17094 0.57173 0.0
C348 C 0.73574 0.18288 0.55354 0.0
C349 C 0.7441 0.14362 0.52173 0.0
N350 N 0.73022 0.15437 0.50479 0.0
H351 H 0.71972 0.18591 0.50542 0.0
H352 H 0.74869 0.12923 0.50912 0.0
H353 H 0.68245 0.17203 0.47762 0.0
H354 H 0.66064 0.09228 0.44634 0.0
O355 O 0.7266 0.17953 0.43951 0.0
O356 O 0.71155 0.14125 0.40886 0.0
O357 O 0.71095 0.10537 0.46522 0.0
C358 C 0.71944 0.16738 0.40979 0.0
H359 H 0.80705 0.14964 0.41204 0.0
H360 H 0.62869 0.14312 0.47452 0.0
H361 H 0.76376 0.14223 0.56827 0.0
H362 H 0.7329 0.1989 0.56498 0.0
Co363 Co 0.58581 0.7272 0.46404 0.0
C364 C 0.61707 0.7888 0.46817 0.0
C365 C 0.63558 0.77291 0.43384 0.0
C366 C 0.65029 0.80126 0.43225 0.0
N367 N 0.61482 0.76505 0.45658 0.0
N368 N 0.63861 0.8111 0.45398 0.0
H369 H 0.60274 0.7902 0.48517 0.0
H370 H 0.63935 0.7589 0.41882 0.0
C371 C 0.63773 0.72934 0.48707 0.0
O372 O 0.64505 0.75312 0.50177 0.0
N373 N 0.55714 0.68962 0.47032 0.0
C374 C 0.53232 0.6806 0.48487 0.0
C375 C 0.51835 0.65222 0.48471 0.0
C376 C 0.55798 0.66689 0.46127 0.0
N377 N 0.53455 0.64364 0.46991 0.0
C378 C 0.57057 0.74823 0.52198 0.0
C379 C 0.58764 0.72532 0.5721 0.0
C380 C 0.57732 0.7425 0.58197 0.0
C381 C 0.56817 0.75353 0.55634 0.0
C382 C 0.58972 0.72063 0.53736 0.0
N383 N 0.58298 0.73356 0.51267 0.0
H384 H 0.56245 0.75613 0.50281 0.0
H385 H 0.59619 0.70608 0.5306 0.0
H386 H 0.52504 0.69373 0.49519 0.0
H387 H 0.57536 0.66746 0.44842 0.0
O388 O 0.55928 0.73634 0.44577 0.0
O389 O 0.58286 0.72182 0.4151 0.0
O390 O 0.61435 0.71592 0.47224 0.0
C391 C 0.56504 0.73023 0.41588 0.0
H392 H 0.66799 0.81364 0.41616 0.0
H393 H 0.4981 0.63901 0.49543 0.0
H394 H 0.59361 0.71516 0.59106 0.0
H395 H 0.55951 0.76646 0.56262 0.0
H396 H 0.51791 0.11486 0.04991 0.0
H397 H 0.52807 0.07729 0.053 0.0
H398 H 0.44115 0.01826 0.05741 0.0
H399 H 0.43075 0.05565 0.05368 0.0
H400 H 0.47236 0.00602 0.10257 0.0
H401 H 0.4728 0.02891 0.98362 0.0
H402 H 0.48696 0.06005 0.93375 0.0
H403 H 0.57114 0.08122 0.94918 0.0
H404 H 0.55752 0.05049 0.9995 0.0
H405 H 0.47501 0.88561 0.05237 0.0
H406 H 0.46633 0.92397 0.05781 0.0
H407 H 0.5528 0.98149 0.04264 0.0
H408 H 0.56149 0.94321 0.03574 0.0
H409 H 0.52261 0.99524 0.00456 0.0
H410 H 0.52244 0.97127 0.1222 0.0
H411 H 0.50868 0.94052 0.17244 0.0
H412 H 0.42491 0.92174 0.16032 0.0
H413 H 0.4381 0.95209 0.10968 0.0
C414 C 0.50094 0.09391 0.05156 0.0
C415 C 0.47351 0.08831 0.05126 0.0
C416 C 0.50679 0.07248 0.05346 0.0
C417 C 0.48534 0.04501 0.05505 0.0
C418 C 0.45799 0.03935 0.05625 0.0
C419 C 0.4521 0.06078 0.05424 0.0
C420 C 0.49144 0.02218 0.05371 0.0
C421 C 0.48308 0.00343 0.08102 0.0
C422 C 0.50596 0.01925 0.02589 0.0
C423 C 0.51418 0.03763 0.99554 0.0
C424 C 0.49436 0.04038 0.97655 0.0
C425 C 0.50228 0.05793 0.94817 0.0
C426 C 0.52994 0.07266 0.93835 0.0
C427 C 0.54973 0.06982 0.95685 0.0
C428 C 0.54192 0.05234 0.98529 0.0
C429 C 0.49219 0.90638 0.05001 0.0
C430 C 0.51897 0.91125 0.04359 0.0
C431 C 0.48723 0.92833 0.05354 0.0
C432 C 0.50897 0.95563 0.05106 0.0
C433 C 0.53573 0.96059 0.04482 0.0
C434 C 0.5407 0.93865 0.04117 0.0
C435 C 0.50362 0.97898 0.05352 0.0
C436 C 0.51203 0.99783 0.02629 0.0
C437 C 0.48923 0.98201 0.08147 0.0
C438 C 0.48122 0.96376 0.11194 0.0
C439 C 0.50104 0.96041 0.13007 0.0
C440 C 0.49335 0.94309 0.15866 0.0
C441 C 0.46593 0.92914 0.16951 0.0
C442 C 0.44614 0.93254 0.15185 0.0
C443 C 0.45372 0.94982 0.12323 0.0
H444 H 0.46001 0.91574 0.19165 0.0
H445 H 0.53604 0.08623 0.91637 0.0
H446 H 0.61938 0.5648 0.04342 0.0
H447 H 0.57148 0.55244 0.05336 0.0
H448 H 0.54886 0.46701 0.06364 0.0
H449 H 0.59667 0.47923 0.0536 0.0
H450 H 0.51599 0.47181 0.02029 0.0
H451 H 0.54965 0.50558 0.1313 0.0
H452 H 0.57829 0.53711 0.17712 0.0
H453 H 0.55261 0.59479 0.14831 0.0
H454 H 0.52452 0.56407 0.10154 0.0
H455 H 0.37688 0.43066 0.05393 0.0
H456 H 0.42329 0.439 0.06352 0.0
H457 H 0.45563 0.52634 0.05102 0.0
H458 H 0.40917 0.51847 0.04344 0.0
H459 H 0.48219 0.51664 0.10106 0.0
H460 H 0.4555 0.48483 0.98338 0.0
H461 H 0.42425 0.45129 0.94066 0.0
H462 H 0.4351 0.38786 0.98711 0.0
H463 H 0.4663 0.42103 0.0302 0.0
C464 C 0.60432 0.54347 0.04849 0.0
C465 C 0.6118 0.52295 0.04749 0.0
C466 C 0.57693 0.53643 0.05422 0.0
C467 C 0.55658 0.5088 0.05943 0.0
C468 C 0.56419 0.48844 0.05955 0.0
C469 C 0.5915 0.49543 0.05366 0.0
C470 C 0.52707 0.50085 0.06186 0.0
C471 C 0.5086 0.48134 0.03841 0.0
C472 C 0.51739 0.51349 0.08517 0.0
C473 C 0.53517 0.53257 0.11252 0.0
C474 C 0.55044 0.52518 0.1343 0.0
C475 C 0.56654 0.5429 0.16054 0.0
C476 C 0.56729 0.56794 0.16562 0.0
C477 C 0.55197 0.57535 0.14441 0.0
C478 C 0.53604 0.55784 0.11792 0.0
C479 C 0.39366 0.45173 0.05378 0.0
C480 C 0.38904 0.47386 0.04743 0.0
C481 C 0.42032 0.45642 0.05899 0.0
C482 C 0.443 0.48325 0.0573 0.0
C483 C 0.43845 0.50544 0.05222 0.0
C484 C 0.41179 0.50082 0.04743 0.0
C485 C 0.47159 0.48827 0.05908 0.0
C486 C 0.48979 0.50714 0.08322 0.0
C487 C 0.48109 0.47502 0.0366 0.0
C488 C 0.46308 0.45534 0.01005 0.0
C489 C 0.45119 0.46372 0.98445 0.0
C490 C 0.4335 0.44478 0.9602 0.0
C491 C 0.42767 0.41745 0.9612 0.0
C492 C 0.43964 0.40903 0.98635 0.0
C493 C 0.45739 0.4279 0.01063 0.0
H494 H 0.4139 0.4028 0.94246 0.0
H495 H 0.57972 0.5816 0.18599 0.0
H496 H 0.05417 0.61545 0.00873 0.0
H497 H 0.01561 0.56811 0.01135 0.0
H498 H 0.06887 0.54202 0.05746 0.0
H499 H 0.10766 0.58918 0.05334 0.0
H500 H 0.0394 0.50681 0.01211 0.0
H501 H 0.01812 0.5508 0.10363 0.0
H502 H 0.00958 0.586 0.12954 0.0
H503 H 0.94117 0.56282 0.06166 0.0
H504 H 0.94952 0.5277 0.03504 0.0
H505 H 0.93373 0.37522 0.06672 0.0
H506 H 0.97102 0.42301 0.06773 0.0
H507 H 0.92163 0.44715 0.00849 0.0
H508 H 0.88435 0.39938 0.00676 0.0
H509 H 0.94854 0.48302 0.06126 0.0
H510 H 0.96949 0.43812 0.97115 0.0
H511 H 0.97832 0.40307 0.94549 0.0
H512 H 0.04838 0.42867 0.0112 0.0
H513 H 0.03938 0.46318 0.03817 0.0
C514 C 0.0575 0.59957 0.01957 0.0
C515 C 0.0838 0.60587 0.03089 0.0
C516 C 0.03546 0.57256 0.02125 0.0
C517 C 0.03914 0.55148 0.03521 0.0
C518 C 0.06546 0.55786 0.04659 0.0
C519 C 0.08762 0.58476 0.04423 0.0
C520 C 0.01584 0.52264 0.03701 0.0
C521 C 0.01971 0.50159 0.02344 0.0
C522 C 0.98982 0.51584 0.0509 0.0
C523 C 0.98461 0.53677 0.06714 0.0
C524 C 0.00136 0.55332 0.09409 0.0
C525 C 0.99654 0.57324 0.10892 0.0
C526 C 0.97489 0.57668 0.09719 0.0
C527 C 0.95795 0.56014 0.07069 0.0
C528 C 0.9627 0.5402 0.05575 0.0
C529 C 0.93073 0.39055 0.05372 0.0
C530 C 0.90594 0.38324 0.03643 0.0
C531 C 0.95209 0.41793 0.05447 0.0
C532 C 0.94917 0.43856 0.03791 0.0
C533 C 0.92426 0.43154 0.02151 0.0
C534 C 0.90292 0.40417 0.02065 0.0
C535 C 0.97234 0.46734 0.03679 0.0
C536 C 0.96837 0.48831 0.05027 0.0
C537 C 0.99832 0.47407 0.023 0.0
C538 C 0.00354 0.45305 0.007 0.0
C539 C 0.98655 0.43603 0.98049 0.0
C540 C 0.99159 0.41625 0.96569 0.0
C541 C 0.01384 0.41358 0.97678 0.0
C542 C 0.0311 0.4307 0.0027 0.0
C543 C 0.02597 0.4503 0.01784 0.0
H544 H 0.01775 0.3983 0.96525 0.0
H545 H 0.97119 0.59213 0.10868 0.0
H546 H 0.06013 0.43675 0.42042 0.0
H547 H 0.02137 0.44494 0.41644 0.0
H548 H 0.06679 0.51989 0.47467 0.0
H549 H 0.10501 0.5113 0.48019 0.0
H550 H 0.01667 0.49103 0.49883 0.0
H551 H 0.05681 0.52026 0.38728 0.0
H552 H 0.07446 0.5157 0.33126 0.0
H553 H 0.99483 0.44768 0.30573 0.0
H554 H 0.97678 0.45159 0.36185 0.0
H555 H 0.94109 0.55818 0.46538 0.0
H556 H 0.97758 0.54644 0.46144 0.0
H557 H 0.91845 0.46472 0.42699 0.0
H558 H 0.88165 0.47634 0.43116 0.0
H559 H 0.9727 0.49377 0.38969 0.0
H560 H 0.93311 0.46638 0.50242 0.0
H561 H 0.91651 0.47338 0.55793 0.0
H562 H 0.99718 0.54097 0.58035 0.0
H563 H 0.01417 0.53463 0.52469 0.0
C564 C 0.06194 0.45494 0.4325 0.0
C565 C 0.08589 0.47332 0.45069 0.0
C566 C 0.03979 0.45974 0.42988 0.0
C567 C 0.04123 0.48314 0.44506 0.0
C568 C 0.0652 0.50169 0.46273 0.0
C569 C 0.08724 0.49685 0.46555 0.0
C570 C 0.01748 0.48793 0.44383 0.0
C571 C 0.0073 0.49189 0.47489 0.0
C572 C 0.00475 0.48841 0.41268 0.0
C573 C 0.01553 0.48602 0.37892 0.0
C574 C 0.04312 0.50417 0.36985 0.0
C575 C 0.05319 0.50174 0.33805 0.0
C576 C 0.0358 0.48136 0.31499 0.0
C577 C 0.00829 0.46342 0.32365 0.0
C578 C 0.99812 0.46575 0.35543 0.0
C579 C 0.93593 0.53786 0.45647 0.0
C580 C 0.90856 0.51813 0.4486 0.0
C581 C 0.95674 0.53116 0.45437 0.0
C582 C 0.95061 0.50472 0.44401 0.0
C583 C 0.9235 0.48524 0.43498 0.0
C584 C 0.90254 0.49181 0.4376 0.0
C585 C 0.9724 0.4972 0.44457 0.0
C586 C 0.9821 0.4927 0.41351 0.0
C587 C 0.98492 0.49646 0.47565 0.0
C588 C 0.97483 0.50019 0.50925 0.0
C589 C 0.94725 0.48289 0.51905 0.0
C590 C 0.93778 0.48671 0.55057 0.0
C591 C 0.95576 0.50765 0.57261 0.0
C592 C 0.98327 0.52478 0.56323 0.0
C593 C 0.99284 0.52106 0.53171 0.0
H594 H 0.9484 0.51058 0.59701 0.0
H595 H 0.04363 0.47951 0.29038 0.0
H596 H 0.61667 0.0545 0.46067 0.0
H597 H 0.56947 0.01744 0.44998 0.0
H598 H 0.54459 0.07759 0.4304 0.0
H599 H 0.59154 0.11463 0.44061 0.0
H600 H 0.51129 0.04071 0.47512 0.0
H601 H 0.54926 0.03895 0.3673 0.0
H602 H 0.57954 0.03554 0.32426 0.0
H603 H 0.55471 0.95347 0.35812 0.0
H604 H 0.525 0.95671 0.40225 0.0
H605 H 0.37465 0.94272 0.43462 0.0
H606 H 0.42157 0.98015 0.42591 0.0
H607 H 0.45248 0.92501 0.44745 0.0
H608 H 0.40544 0.88695 0.45429 0.0
H609 H 0.4819 0.96078 0.39743 0.0
H610 H 0.44872 0.96649 0.51048 0.0
H611 H 0.41522 0.96881 0.54935 0.0
H612 H 0.42949 0.04362 0.50088 0.0
H613 H 0.46288 0.04158 0.46148 0.0
C614 C 0.60127 0.05985 0.45354 0.0
C615 C 0.6079 0.0876 0.45189 0.0
C616 C 0.57431 0.03864 0.4474 0.0
C617 C 0.55354 0.04475 0.43931 0.0
C618 C 0.56026 0.07239 0.43677 0.0
C619 C 0.58713 0.09357 0.44288 0.0
C620 C 0.52442 0.02246 0.43616 0.0
C621 C 0.50487 0.02347 0.4577 0.0
C622 C 0.51606 0.99969 0.41384 0.0
C623 C 0.53508 0.99822 0.38847 0.0
C624 C 0.5506 0.02035 0.36606 0.0
C625 C 0.56762 0.01841 0.34135 0.0
C626 C 0.56903 0.9943 0.33843 0.0
C627 C 0.55352 0.97211 0.36033 0.0
C628 C 0.53672 0.97406 0.38534 0.0
C629 C 0.39125 0.93824 0.43669 0.0
C630 C 0.38614 0.91173 0.44558 0.0
C631 C 0.41817 0.95982 0.43202 0.0
C632 C 0.44054 0.95551 0.43679 0.0
C633 C 0.43552 0.92885 0.44392 0.0
C634 C 0.40858 0.90716 0.44821 0.0
C635 C 0.46918 0.979 0.43665 0.0
C636 C 0.48854 0.97816 0.41465 0.0
C637 C 0.47745 0.00201 0.4584 0.0
C638 C 0.45815 0.00378 0.48291 0.0
C639 C 0.44468 0.98341 0.5081 0.0
C640 C 0.42571 0.98467 0.53021 0.0
C641 C 0.42022 0.00634 0.52757 0.0
C642 C 0.43378 0.02687 0.50291 0.0
C643 C 0.45276 0.02569 0.48072 0.0
H644 H 0.40545 0.00722 0.54463 0.0
H645 H 0.58217 0.99282 0.31924 0.0
H646 H 0.52343 0.4088 0.45823 0.0
H647 H 0.53404 0.45661 0.45353 0.0
H648 H 0.44784 0.43044 0.4649 0.0
H649 H 0.43708 0.38258 0.4698 0.0
H650 H 0.47253 0.47045 0.41593 0.0
H651 H 0.4902 0.45579 0.53253 0.0
H652 H 0.51114 0.44176 0.57809 0.0
H653 H 0.5919 0.50237 0.54384 0.0
H654 H 0.57142 0.5165 0.49775 0.0
H655 H 0.48413 0.59753 0.46698 0.0
H656 H 0.47418 0.54999 0.46251 0.0
H657 H 0.56121 0.57835 0.45732 0.0
H658 H 0.57138 0.62583 0.46329 0.0
H659 H 0.53684 0.53732 0.50121 0.0
H660 H 0.51928 0.55358 0.38599 0.0
H661 H 0.49837 0.56758 0.34037 0.0
H662 H 0.41774 0.50439 0.3715 0.0
H663 H 0.43815 0.49026 0.41764 0.0
C664 C 0.50673 0.4132 0.45977 0.0
C665 C 0.47944 0.39189 0.4647 0.0
C666 C 0.51282 0.44052 0.45696 0.0
C667 C 0.49176 0.44708 0.45933 0.0
C668 C 0.46439 0.4258 0.46299 0.0
C669 C 0.45827 0.39845 0.46571 0.0
C670 C 0.49843 0.47622 0.45949 0.0
C671 C 0.48637 0.48505 0.43476 0.0
C672 C 0.51694 0.49534 0.48364 0.0
C673 C 0.52928 0.487 0.51148 0.0
C674 C 0.51243 0.46598 0.53456 0.0
C675 C 0.52421 0.45804 0.5605 0.0
C676 C 0.55284 0.47112 0.5638 0.0
C677 C 0.56974 0.49223 0.54122 0.0
C678 C 0.55805 0.50023 0.5152 0.0
C679 C 0.50118 0.5937 0.46505 0.0
C680 C 0.52857 0.61561 0.46555 0.0
C681 C 0.49544 0.56649 0.46207 0.0
C682 C 0.51695 0.56062 0.45917 0.0
C683 C 0.54429 0.58241 0.45937 0.0
C684 C 0.55005 0.60961 0.4625 0.0
C685 C 0.51101 0.5317 0.45756 0.0
C686 C 0.52314 0.52285 0.48217 0.0
C687 C 0.49259 0.51262 0.43327 0.0
C688 C 0.48025 0.52103 0.40548 0.0
C689 C 0.49708 0.54281 0.38329 0.0
C690 C 0.48531 0.55074 0.3573 0.0
C691 C 0.45674 0.53693 0.35309 0.0
C692 C 0.43987 0.5151 0.37482 0.0
C693 C 0.45153 0.5071 0.40087 0.0
H694 H 0.44767 0.5431 0.33296 0.0
H695 H 0.56192 0.46494 0.5839 0.0
H696 H 0.39021 0.03899 0.99281 0.0
H697 H 0.35451 0.99052 0.9978 0.0
H698 H 0.29924 0.01468 0.04231 0.0
H699 H 0.33514 0.06304 0.03843 0.0
H700 H 0.29703 0.97445 0.07772 0.0
H701 H 0.29304 0.99065 0.95732 0.0
H702 H 0.3116 0.00511 0.89897 0.0
H703 H 0.33686 0.9443 0.89734 0.0
H704 H 0.31876 0.92971 0.95587 0.0
H705 H 0.17179 0.84765 0.06002 0.0
H706 H 0.20886 0.8953 0.05416 0.0
H707 H 0.26447 0.8673 0.02259 0.0
H708 H 0.22782 0.8196 0.02911 0.0
H709 H 0.26718 0.90852 0.98072 0.0
H710 H 0.27167 0.8929 0.10117 0.0
H711 H 0.25272 0.87815 0.15932 0.0
H712 H 0.22513 0.93716 0.15964 0.0
H713 H 0.24411 0.95241 0.10155 0.0
C714 C 0.37033 0.03395 0.00328 0.0
C715 C 0.36542 0.05479 0.01511 0.0
C716 C 0.34991 0.00623 0.00608 0.0
C717 C 0.32403 0.9989 0.02011 0.0
C718 C 0.31904 0.01978 0.03148 0.0
C719 C 0.33955 0.04743 0.02914 0.0
C720 C 0.30236 0.96951 0.02395 0.0
C721 C 0.29029 0.96018 0.05634 0.0
C722 C 0.29398 0.95059 0.99635 0.0
C723 C 0.30479 0.95928 0.9611 0.0
C724 C 0.30273 0.9805 0.94461 0.0
C725 C 0.31314 0.98869 0.91149 0.0
C726 C 0.32546 0.97568 0.8945 0.0
C727 C 0.32734 0.95439 0.91055 0.0
C728 C 0.31699 0.94613 0.94369 0.0
C729 C 0.19193 0.85151 0.05219 0.0
C730 C 0.19664 0.8296 0.04495 0.0
C731 C 0.2131 0.87881 0.04876 0.0
C732 C 0.23942 0.88479 0.03807 0.0
C733 C 0.24424 0.86309 0.0307 0.0
C734 C 0.22314 0.83578 0.03429 0.0
C735 C 0.26184 0.91375 0.03427 0.0
C736 C 0.27403 0.9229 0.00199 0.0
C737 C 0.27028 0.93254 0.06188 0.0
C738 C 0.25912 0.92364 0.09694 0.0
C739 C 0.26146 0.90264 0.11359 0.0
C740 C 0.25075 0.89422 0.14655 0.0
C741 C 0.23756 0.90656 0.16306 0.0
C742 C 0.2353 0.92757 0.14678 0.0
C743 C 0.24614 0.9362 0.11391 0.0
H744 H 0.22917 0.89991 0.18851 0.0
H745 H 0.33351 0.98205 0.86886 0.0
H746 H 0.31042 0.16528 0.04486 0.0
H747 H 0.29928 0.2013 0.03281 0.0
H748 H 0.38585 0.26173 0.02913 0.0
H749 H 0.39718 0.22607 0.04275 0.0
H750 H 0.35901 0.28192 0.06249 0.0
H751 H 0.34826 0.23709 0.95585 0.0
H752 H 0.33177 0.19753 0.9166 0.0
H753 H 0.24811 0.17715 0.93481 0.0
H754 H 0.26407 0.21625 0.97485 0.0
H755 H 0.32881 0.38312 0.00364 0.0
H756 H 0.34737 0.3518 0.00309 0.0
H757 H 0.26464 0.28212 0.00524 0.0
H758 H 0.24611 0.31343 0.00331 0.0
H759 H 0.29495 0.26981 0.96764 0.0
H760 H 0.3083 0.31238 0.08173 0.0
H761 H 0.32666 0.35358 0.1187 0.0
H762 H 0.40843 0.38048 0.08174 0.0
H763 H 0.3905 0.33945 0.04454 0.0
C764 C 0.32713 0.18624 0.04191 0.0
C765 C 0.35473 0.19262 0.04459 0.0
C766 C 0.32072 0.20681 0.03461 0.0
C767 C 0.34175 0.23416 0.02944 0.0
C768 C 0.36929 0.24074 0.03277 0.0
C769 C 0.37572 0.22021 0.04025 0.0
C770 C 0.3349 0.25586 0.02072 0.0
C771 C 0.3453 0.27943 0.04145 0.0
C772 C 0.31708 0.25272 0.99322 0.0
C773 C 0.30737 0.22949 0.9686 0.0
C774 C 0.32633 0.22408 0.95167 0.0
C775 C 0.31707 0.20173 0.92927 0.0
C776 C 0.28889 0.18481 0.92325 0.0
C777 C 0.26993 0.19026 0.93954 0.0
C778 C 0.27907 0.21252 0.9621 0.0
C779 C 0.31465 0.36109 0.00352 0.0
C780 C 0.28605 0.3506 0.00382 0.0
C781 C 0.32524 0.3432 0.00345 0.0
C782 C 0.30743 0.31455 0.00522 0.0
C783 C 0.27883 0.30412 0.00406 0.0
C784 C 0.26824 0.32199 0.00304 0.0
C785 C 0.31827 0.29537 0.01014 0.0
C786 C 0.30875 0.27233 0.98857 0.0
C787 C 0.33716 0.29914 0.03661 0.0
C788 C 0.34806 0.32295 0.06034 0.0
C789 C 0.3302 0.32704 0.08164 0.0
C790 C 0.34052 0.35037 0.10258 0.0
C791 C 0.36869 0.36964 0.10255 0.0
C792 C 0.38663 0.36551 0.08179 0.0
C793 C 0.37641 0.34219 0.06086 0.0
H794 H 0.37662 0.38777 0.11861 0.0
H795 H 0.28176 0.16749 0.90592 0.0
H796 H 0.93781 0.28486 0.05289 0.0
H797 H 0.98658 0.29922 0.05563 0.0
H798 H 0.00061 0.34328 0.96037 0.0
H799 H 0.95154 0.329 0.95735 0.0
H800 H 0.0276 0.31256 0.96418 0.0
H801 H 0.01711 0.3774 0.02982 0.0
H802 H 0.99759 0.39472 0.07317 0.0
H803 H 0.02225 0.35881 0.15297 0.0
H804 H 0.04161 0.34097 0.10993 0.0
H805 H 0.17375 0.38371 0.98724 0.0
H806 H 0.12646 0.37375 0.97811 0.0
H807 H 0.10195 0.32912 0.07362 0.0
H808 H 0.1493 0.33952 0.08327 0.0
H809 H 0.08145 0.36418 0.06626 0.0
H810 H 0.08713 0.29494 0.9987 0.0
H811 H 0.1069 0.27851 0.95442 0.0
H812 H 0.09153 0.32415 0.87774 0.0
H813 H 0.07199 0.34114 0.92169 0.0
C814 C 0.95115 0.29752 0.03238 0.0
C815 C 0.94077 0.30587 0.00494 0.0
C816 C 0.97906 0.30575 0.03406 0.0
C817 C 0.9972 0.32251 0.00838 0.0
C818 C 0.98689 0.33035 0.98045 0.0
C819 C 0.95889 0.32223 0.97883 0.0
C820 C 0.02698 0.33212 0.01138 0.0
C821 C 0.03954 0.32425 0.98619 0.0
C822 C 0.04235 0.34708 0.04037 0.0
C823 C 0.03071 0.35772 0.06652 0.0
C824 C 0.01825 0.37308 0.05657 0.0
C825 C 0.00721 0.383 0.0811 0.0
C826 C 0.00865 0.37784 0.11583 0.0
C827 C 0.02115 0.36278 0.12605 0.0
C828 C 0.03219 0.35279 0.10156 0.0
C829 C 0.15833 0.37194 0.00641 0.0
C830 C 0.16528 0.36237 0.03598 0.0
C831 C 0.13129 0.36609 0.00102 0.0
C832 C 0.11067 0.35053 0.02508 0.0
C833 C 0.11756 0.34112 0.05472 0.0
C834 C 0.14457 0.34687 0.06005 0.0
C835 C 0.08189 0.34405 0.01949 0.0
C836 C 0.06954 0.35261 0.04417 0.0
C837 C 0.06676 0.32985 0.98999 0.0
C838 C 0.07838 0.31955 0.96354 0.0
C839 C 0.08818 0.30165 0.97245 0.0
C840 C 0.0993 0.2922 0.9474 0.0
C841 C 0.10055 0.30034 0.91331 0.0
C842 C 0.0906 0.31789 0.90417 0.0
C843 C 0.07948 0.32742 0.92913 0.0
H844 H 0.10916 0.29301 0.89396 0.0
H845 H 0.0001 0.38554 0.13482 0.0
H846 H 0.83525 0.14544 0.03288 0.0
H847 H 0.79965 0.09761 0.0221 0.0
H848 H 0.73672 0.11929 0.03886 0.0
H849 H 0.77219 0.16705 0.04924 0.0
H850 H 0.76062 0.05972 0.05894 0.0
H851 H 0.68153 0.08145 0.98686 0.0
H852 H 0.68273 0.1169 0.94829 0.0
H853 H 0.76539 0.14063 0.91843 0.0
H854 H 0.76439 0.10474 0.95585 0.0
H855 H 0.63114 0.94164 0.06747 0.0
H856 H 0.66986 0.9887 0.06939 0.0
H857 H 0.67405 0.99031 0.95889 0.0
H858 H 0.63401 0.94364 0.95696 0.0
H859 H 0.68396 0.03724 0.97801 0.0
H860 H 0.72049 0.98083 0.0124 0.0
H861 H 0.72316 0.94452 0.04495 0.0
H862 H 0.73312 0.98882 0.13853 0.0
H863 H 0.73009 0.02522 0.1066 0.0
C864 C 0.81383 0.13994 0.03446 0.0
C865 C 0.80652 0.16004 0.04167 0.0
C866 C 0.7935 0.11263 0.02821 0.0
C867 C 0.7655 0.10492 0.02914 0.0
C868 C 0.75818 0.12485 0.03717 0.0
C869 C 0.77847 0.15215 0.04313 0.0
C870 C 0.74383 0.076 0.02216 0.0
C871 C 0.74391 0.05479 0.04116 0.0
C872 C 0.72255 0.06942 0.99803 0.0
C873 C 0.72297 0.09054 0.97455 0.0
C874 C 0.69988 0.09405 0.97186 0.0
C875 C 0.70052 0.11422 0.95014 0.0
C876 C 0.72414 0.13104 0.93097 0.0
C877 C 0.74711 0.12761 0.93331 0.0
C878 C 0.7465 0.10732 0.95473 0.0
C879 C 0.64033 0.95207 0.0436 0.0
C880 C 0.62979 0.93899 0.01207 0.0
C881 C 0.6626 0.97893 0.0447 0.0
C882 C 0.67549 0.99293 0.01432 0.0
C883 C 0.66461 0.97998 0.98271 0.0
C884 C 0.64179 0.95332 0.9816 0.0
C885 C 0.70018 0.02103 0.01575 0.0
C886 C 0.70074 0.04211 0.99562 0.0
C887 C 0.72268 0.02734 0.03781 0.0
C888 C 0.72489 0.00568 0.05711 0.0
C889 C 0.72311 0.98277 0.03994 0.0
C890 C 0.72469 0.96217 0.05828 0.0
C891 C 0.72826 0.96434 0.09379 0.0
C892 C 0.73034 0.98716 0.11102 0.0
C893 C 0.72873 0.0078 0.09281 0.0
H894 H 0.72946 0.94836 0.10795 0.0
H895 H 0.72463 0.14669 0.91423 0.0
H896 H 0.67425 0.82492 0.05477 0.0
H897 H 0.68473 0.78849 0.04236 0.0
H898 H 0.59824 0.73077 0.02792 0.0
H899 H 0.58745 0.76675 0.04188 0.0
H900 H 0.6212 0.70664 0.06164 0.0
H901 H 0.64127 0.75929 0.95925 0.0
H902 H 0.66172 0.80104 0.92327 0.0
H903 H 0.74287 0.81745 0.95 0.0
H904 H 0.72289 0.77598 0.98657 0.0
H905 H 0.64511 0.60754 0.97849 0.0
H906 H 0.63308 0.64398 0.98178 0.0
H907 H 0.71281 0.69935 0.02504 0.0
H908 H 0.72489 0.66302 0.02223 0.0
H909 H 0.69088 0.7229 0.97232 0.0
H910 H 0.66796 0.67197 0.08073 0.0
H911 H 0.64706 0.62647 0.10882 0.0
H912 H 0.56893 0.60424 0.06329 0.0
H913 H 0.58951 0.6496 0.03463 0.0
C914 C 0.65738 0.80444 0.04944 0.0
C915 C 0.63 0.79894 0.04906 0.0
C916 C 0.66344 0.78365 0.04196 0.0
C917 C 0.64231 0.757 0.03355 0.0
C918 C 0.61491 0.75122 0.03408 0.0
C919 C 0.60881 0.77195 0.04174 0.0
C920 C 0.64889 0.7353 0.02388 0.0
C921 C 0.63617 0.71017 0.0418 0.0
C922 C 0.66842 0.73972 0.99796 0.0
C923 C 0.68057 0.76466 0.97591 0.0
C924 C 0.66348 0.77191 0.95767 0.0
C925 C 0.67499 0.79551 0.93713 0.0
C926 C 0.70358 0.81193 0.93442 0.0
C927 C 0.72072 0.80473 0.95217 0.0
C928 C 0.70932 0.78117 0.97278 0.0
C929 C 0.66023 0.62762 0.98816 0.0
C930 C 0.68583 0.63241 0.00037 0.0
C931 C 0.65335 0.64837 0.98997 0.0
C932 C 0.67211 0.67426 0.00362 0.0
C933 C 0.69817 0.67952 0.01424 0.0
C934 C 0.70491 0.65869 0.0129 0.0
C935 C 0.66354 0.69483 0.0104 0.0
C936 C 0.67585 0.71958 0.99198 0.0
C937 C 0.64339 0.68996 0.03541 0.0
C938 C 0.63025 0.66407 0.05552 0.0
C939 C 0.64627 0.65744 0.07695 0.0
C940 C 0.63452 0.63168 0.09285 0.0
C941 C 0.60673 0.61246 0.0877 0.0
C942 C 0.59047 0.61917 0.06721 0.0
C943 C 0.60214 0.64493 0.05121 0.0
H944 H 0.5979 0.59233 0.09944 0.0
H945 H 0.71246 0.83019 0.9185 0.0
H946 H 0.82589 0.60195 0.03488 0.0
H947 H 0.87383 0.61372 0.02736 0.0
H948 H 0.89853 0.69994 0.02278 0.0
H949 H 0.85056 0.68829 0.02916 0.0
H950 H 0.923 0.68594 0.97318 0.0
H951 H 0.9067 0.67001 0.0954 0.0
H952 H 0.88286 0.64241 0.14649 0.0
H953 H 0.90373 0.58126 0.11699 0.0
H954 H 0.92732 0.60827 0.06547 0.0
H955 H 0.06629 0.75106 0.00028 0.0
H956 H 0.01685 0.73411 0.00209 0.0
H957 H 0.00134 0.65131 0.01817 0.0
H958 H 0.05091 0.66839 0.01775 0.0
H959 H 0.97095 0.65991 0.0594 0.0
H960 H 0.9878 0.67382 0.93959 0.0
H961 H 0.01081 0.69872 0.88665 0.0
H962 H 0.988 0.75979 0.9084 0.0
H963 H 0.96516 0.73546 0.96173 0.0
C964 C 0.84144 0.6234 0.03194 0.0
C965 C 0.83432 0.64419 0.03268 0.0
C966 C 0.8689 0.6301 0.02797 0.0
C967 C 0.8898 0.65773 0.02488 0.0
C968 C 0.88274 0.67848 0.02525 0.0
C969 C 0.85532 0.67181 0.0292 0.0
C970 C 0.91906 0.66517 0.02103 0.0
C971 C 0.9336 0.68052 0.99219 0.0
C972 C 0.93255 0.65713 0.04518 0.0
C973 C 0.91847 0.641 0.07632 0.0
C974 C 0.90599 0.65056 0.09964 0.0
C975 C 0.89256 0.63504 0.12871 0.0
C976 C 0.89167 0.61004 0.13489 0.0
C977 C 0.90434 0.60058 0.11212 0.0
C978 C 0.91776 0.61599 0.08299 0.0
C979 C 0.05233 0.7292 0.00384 0.0
C980 C 0.06248 0.71106 0.00881 0.0
C981 C 0.02402 0.71948 0.00473 0.0
C982 C 0.00523 0.69132 0.00975 0.0
C983 C 0.01537 0.67311 0.01426 0.0
C984 C 0.04371 0.68289 0.01393 0.0
C985 C 0.97514 0.68113 0.01175 0.0
C986 C 0.96039 0.66522 0.0402 0.0
C987 C 0.96132 0.68825 0.98694 0.0
C988 C 0.97496 0.70292 0.95482 0.0
C989 C 0.98786 0.69267 0.93321 0.0
C990 C 0.00084 0.70667 0.90311 0.0
C991 C 0.00091 0.73086 0.89421 0.0
C992 C 0.98794 0.74106 0.91535 0.0
C993 C 0.97494 0.72716 0.9455 0.0
H994 H 0.01098 0.74166 0.8709 0.0
H995 H 0.88119 0.59801 0.15733 0.0
H996 H 0.1484 0.82658 0.48742 0.0
H997 H 0.10227 0.78609 0.49414 0.0
H998 H 0.12755 0.73734 0.43534 0.0
H999 H 0.17371 0.77765 0.42899 0.0
H1000 H 0.07553 0.73025 0.41627 0.0
H1001 H 0.12428 0.72705 0.5133 0.0
H1002 H 0.15439 0.74558 0.56387 0.0
H1003 H 0.09445 0.76027 0.61325 0.0
H1004 H 0.06429 0.74246 0.56265 0.0
H1005 H 0.95992 0.60493 0.51584 0.0
H1006 H 0.00856 0.64089 0.51162 0.0
H1007 H 0.98512 0.69294 0.4569 0.0
H1008 H 0.93688 0.65714 0.46038 0.0
H1009 H 0.03901 0.69364 0.53217 0.0
H1010 H 0.02927 0.72582 0.39333 0.0
H1011 H 0.00138 0.70452 0.34159 0.0
H1012 H 0.98683 0.62513 0.37414 0.0
H1013 H 0.01497 0.646 0.42579 0.0
C1014 C 0.14394 0.80726 0.47572 0.0
C1015 C 0.16449 0.80509 0.45779 0.0
C1016 C 0.11776 0.78419 0.47972 0.0
C1017 C 0.11168 0.75878 0.46539 0.0
C1018 C 0.13193 0.75678 0.44662 0.0
C1019 C 0.15822 0.7797 0.44316 0.0
C1020 C 0.08421 0.73422 0.47031 0.0
C1021 C 0.06749 0.72221 0.44156 0.0
C1022 C 0.07425 0.72324 0.50324 0.0
C1023 C 0.09215 0.73371 0.53399 0.0
C1024 C 0.11764 0.73451 0.5348 0.0
C1025 C 0.13473 0.74486 0.56349 0.0
C1026 C 0.12643 0.75422 0.59172 0.0
C1027 C 0.10096 0.75313 0.59136 0.0
C1028 C 0.08384 0.7429 0.56266 0.0
C1029 C 0.96519 0.62416 0.5032 0.0
C1030 C 0.94466 0.62811 0.48808 0.0
C1031 C 0.99293 0.64466 0.50082 0.0
C1032 C 0.00046 0.66936 0.48338 0.0
C1033 C 0.97983 0.67379 0.46978 0.0
C1034 C 0.95225 0.6533 0.47184 0.0
C1035 C 0.02984 0.69031 0.47818 0.0
C1036 C 0.047 0.7016 0.50685 0.0
C1037 C 0.04052 0.70013 0.44501 0.0
C1038 C 0.02407 0.68748 0.41358 0.0
C1039 C 0.02026 0.70385 0.38934 0.0
C1040 C 0.00438 0.69184 0.36005 0.0
C1041 C 0.99228 0.66348 0.35463 0.0
C1042 C 0.99614 0.64708 0.37842 0.0
C1043 C 0.01204 0.65899 0.40772 0.0
H1044 H 0.97995 0.65422 0.33196 0.0
H1045 H 0.13976 0.76224 0.61383 0.0
H1046 H 0.40686 0.17933 0.46343 0.0
H1047 H 0.39685 0.13202 0.47058 0.0
H1048 H 0.30986 0.10309 0.46229 0.0
H1049 H 0.31967 0.15058 0.45622 0.0
H1050 H 0.32021 0.07845 0.51458 0.0
H1051 H 0.34369 0.09379 0.39552 0.0
H1052 H 0.37194 0.11845 0.34523 0.0
H1053 H 0.4394 0.11131 0.38548 0.0
H1054 H 0.41144 0.08641 0.43595 0.0
H1055 H 0.27325 0.93746 0.47751 0.0
H1056 H 0.28552 0.98587 0.47427 0.0
H1057 H 0.36977 0.01078 0.49901 0.0
H1058 H 0.35755 0.9622 0.5028 0.0
H1059 H 0.3623 0.03772 0.43996 0.0
H1060 H 0.33535 0.0186 0.55793 0.0
H1061 H 0.30479 0.99243 0.60589 0.0
H1062 H 0.24135 0.00604 0.56536 0.0
H1063 H 0.2714 0.03196 0.51683 0.0
C1064 C 0.38557 0.16301 0.46344 0.0
C1065 C 0.36406 0.16887 0.45938 0.0
C1066 C 0.3799 0.13589 0.46713 0.0
C1067 C 0.35262 0.11399 0.46668 0.0
C1068 C 0.33108 0.11969 0.46264 0.0
C1069 C 0.33674 0.14685 0.4589 0.0
C1070 C 0.34659 0.0852 0.47115 0.0
C1071 C 0.32914 0.06944 0.49799 0.0
C1072 C 0.35871 0.07364 0.44998 0.0
C1073 C 0.37558 0.08848 0.41965 0.0
C1074 C 0.3646 0.09761 0.39373 0.0
C1075 C 0.38052 0.11155 0.36515 0.0
C1076 C 0.40751 0.11661 0.36227 0.0
C1077 C 0.41852 0.10745 0.3878 0.0
C1078 C 0.4026 0.09331 0.41632 0.0
C1079 C 0.29435 0.95323 0.48251 0.0
C1080 C 0.31443 0.9461 0.49053 0.0
C1081 C 0.3013 0.98085 0.48072 0.0
C1082 C 0.32851 0.00182 0.48649 0.0
C1083 C 0.34865 0.99482 0.49456 0.0
C1084 C 0.3416 0.96713 0.49694 0.0
C1085 C 0.33584 0.03103 0.48325 0.0
C1086 C 0.35351 0.04683 0.45663 0.0
C1087 C 0.32365 0.04251 0.50436 0.0
C1088 C 0.30555 0.027 0.53356 0.0
C1089 C 0.31479 0.01581 0.55907 0.0
C1090 C 0.29758 0.00106 0.58639 0.0
C1091 C 0.27112 0.99751 0.58863 0.0
C1092 C 0.26184 0.00877 0.56357 0.0
C1093 C 0.27897 0.02352 0.53617 0.0
H1094 H 0.25782 0.98609 0.60981 0.0
H1095 H 0.41985 0.12756 0.34022 0.0
H1096 H 0.16272 0.31316 0.4909 0.0
H1097 H 0.19937 0.30268 0.50301 0.0
H1098 H 0.26005 0.38422 0.46933 0.0
H1099 H 0.22354 0.39486 0.45789 0.0
H1100 H 0.23444 0.29873 0.46487 0.0
H1101 H 0.31963 0.4076 0.5115 0.0
H1102 H 0.32244 0.44684 0.54362 0.0
H1103 H 0.24483 0.39303 0.59183 0.0
H1104 H 0.24177 0.3534 0.56046 0.0
H1105 H 0.36209 0.30762 0.44508 0.0
H1106 H 0.32357 0.31629 0.44464 0.0
H1107 H 0.33021 0.32753 0.55435 0.0
H1108 H 0.36995 0.32038 0.55452 0.0
H1109 H 0.31874 0.36245 0.52969 0.0
H1110 H 0.2791 0.26606 0.51456 0.0
H1111 H 0.27317 0.22305 0.48944 0.0
H1112 H 0.25363 0.24466 0.39209 0.0
H1113 H 0.25984 0.28801 0.41649 0.0
C1114 C 0.18388 0.3288 0.48606 0.0
C1115 C 0.19028 0.35487 0.47358 0.0
C1116 C 0.20481 0.32283 0.49306 0.0
C1117 C 0.23253 0.34277 0.48755 0.0
C1118 C 0.2389 0.3687 0.47463 0.0
C1119 C 0.21802 0.37477 0.46802 0.0
C1120 C 0.25478 0.33627 0.4942 0.0
C1121 C 0.25281 0.3126 0.47918 0.0
C1122 C 0.27839 0.35386 0.51384 0.0
C1123 C 0.28038 0.37756 0.53335 0.0
C1124 C 0.30325 0.40411 0.5291 0.0
C1125 C 0.30486 0.42642 0.54716 0.0
C1126 C 0.28379 0.42244 0.56967 0.0
C1127 C 0.2611 0.3961 0.5743 0.0
C1128 C 0.25941 0.37371 0.55636 0.0
C1129 C 0.35535 0.31198 0.4691 0.0
C1130 C 0.36881 0.31309 0.49988 0.0
C1131 C 0.33321 0.31678 0.46887 0.0
C1132 C 0.32342 0.32185 0.49959 0.0
C1133 C 0.33724 0.32353 0.53033 0.0
C1134 C 0.3599 0.31939 0.53044 0.0
C1135 C 0.29878 0.32536 0.49937 0.0
C1136 C 0.30028 0.34845 0.51563 0.0
C1137 C 0.27422 0.30662 0.48206 0.0
C1138 C 0.27012 0.28039 0.46733 0.0
C1139 C 0.27368 0.26171 0.48775 0.0
C1140 C 0.27026 0.23726 0.47364 0.0
C1141 C 0.26308 0.23115 0.43918 0.0
C1142 C 0.25921 0.24943 0.41878 0.0
C1143 C 0.26264 0.27393 0.43275 0.0
H1144 H 0.26046 0.21222 0.4283 0.0
H1145 H 0.28505 0.43975 0.58357 0.0
H1146 H 0.06252 0.33525 0.48018 0.0
H1147 H 0.0142 0.2997 0.47477 0.0
H1148 H 0.98949 0.35746 0.50868 0.0
H1149 H 0.03804 0.393 0.51524 0.0
H1150 H 0.95513 0.30725 0.53348 0.0
H1151 H 0.99189 0.34493 0.42334 0.0
H1152 H 0.02518 0.35954 0.37572 0.0
H1153 H 0.00765 0.27622 0.36259 0.0
H1154 H 0.97454 0.26117 0.4105 0.0
H1155 H 0.82069 0.23281 0.45963 0.0
H1156 H 0.86796 0.26869 0.47159 0.0
H1157 H 0.8963 0.21144 0.4505 0.0
H1158 H 0.84905 0.17519 0.43931 0.0
H1159 H 0.92796 0.26271 0.41923 0.0
H1160 H 0.8902 0.2259 0.53098 0.0
H1161 H 0.85588 0.21277 0.57724 0.0
H1162 H 0.87405 0.29664 0.58524 0.0
H1163 H 0.90816 0.31018 0.53876 0.0
C1164 C 0.04679 0.34029 0.48688 0.0
C1165 C 0.05399 0.36694 0.4978 0.0
C1166 C 0.01919 0.31999 0.48368 0.0
C1167 C 0.99823 0.32611 0.49049 0.0
C1168 C 0.00533 0.35233 0.5031 0.0
C1169 C 0.03304 0.37259 0.50685 0.0
C1170 C 0.96912 0.30559 0.48258 0.0
C1171 C 0.94913 0.29776 0.50839 0.0
C1172 C 0.96129 0.29306 0.44987 0.0
C1173 C 0.9809 0.30196 0.4207 0.0
C1174 C 0.99525 0.32975 0.41043 0.0
C1175 C 0.01408 0.33811 0.38338 0.0
C1176 C 0.01857 0.31883 0.36619 0.0
C1177 C 0.00417 0.29113 0.37595 0.0
C1178 C 0.98535 0.28267 0.40303 0.0
C1179 C 0.83686 0.22767 0.45787 0.0
C1180 C 0.83091 0.20092 0.44881 0.0
C1181 C 0.8639 0.24828 0.46458 0.0
C1182 C 0.88553 0.24259 0.4623 0.0
C1183 C 0.87984 0.2162 0.45243 0.0
C1184 C 0.85279 0.19553 0.4459 0.0
C1185 C 0.91414 0.26413 0.47023 0.0
C1186 C 0.93401 0.27221 0.44432 0.0
C1187 C 0.92171 0.27708 0.50267 0.0
C1188 C 0.90157 0.26901 0.53116 0.0
C1189 C 0.88675 0.24151 0.54247 0.0
C1190 C 0.86734 0.23399 0.56878 0.0
C1191 C 0.86272 0.25384 0.58417 0.0
C1192 C 0.8776 0.28126 0.57336 0.0
C1193 C 0.897 0.28888 0.54705 0.0
H1194 H 0.84764 0.24796 0.60447 0.0
H1195 H 0.03317 0.32534 0.34526 0.0
H1196 H 0.70875 0.06346 0.43802 0.0
H1197 H 0.70057 0.01643 0.43694 0.0
H1198 H 0.67095 0.00416 0.54098 0.0
H1199 H 0.67882 0.05138 0.54231 0.0
H1200 H 0.70842 0.98146 0.52147 0.0
H1201 H 0.62318 0.97686 0.49329 0.0
H1202 H 0.59869 0.99758 0.46483 0.0
H1203 H 0.62502 0.98479 0.36664 0.0
H1204 H 0.65015 0.96433 0.39473 0.0
H1205 H 0.63497 0.83383 0.51329 0.0
H1206 H 0.64645 0.88167 0.52255 0.0
H1207 H 0.67053 0.90017 0.41661 0.0
H1208 H 0.65912 0.8523 0.40726 0.0
H1209 H 0.63483 0.91956 0.44069 0.0
H1210 H 0.719 0.92125 0.47265 0.0
H1211 H 0.74669 0.90562 0.5045 0.0
H1212 H 0.72162 0.92475 0.59969 0.0
H1213 H 0.69344 0.94014 0.5684 0.0
C1214 C 0.70073 0.05092 0.46084 0.0
C1215 C 0.69418 0.06106 0.49016 0.0
C1216 C 0.69619 0.0241 0.46019 0.0
C1217 C 0.68522 0.00696 0.48889 0.0
C1218 C 0.6796 0.01724 0.5187 0.0
C1219 C 0.68387 0.04408 0.51927 0.0
C1220 C 0.67723 0.97759 0.48614 0.0
C1221 C 0.69207 0.96772 0.50429 0.0
C1222 C 0.65605 0.95993 0.4635 0.0
C1223 C 0.63866 0.96927 0.44609 0.0
C1224 C 0.62363 0.97835 0.46561 0.0
C1225 C 0.60973 0.99013 0.44957 0.0
C1226 C 0.6105 0.99272 0.41397 0.0
C1227 C 0.62458 0.98287 0.39425 0.0
C1228 C 0.63862 0.97112 0.41022 0.0
C1229 C 0.64268 0.84812 0.49201 0.0
C1230 C 0.6462 0.83941 0.45957 0.0
C1231 C 0.64932 0.8754 0.49735 0.0
C1232 C 0.65937 0.89439 0.47027 0.0
C1233 C 0.6628 0.88577 0.43781 0.0
C1234 C 0.6565 0.85855 0.43257 0.0
C1235 C 0.66624 0.92327 0.47582 0.0
C1236 C 0.65108 0.9331 0.4581 0.0
C1237 C 0.68687 0.9407 0.49936 0.0
C1238 C 0.70387 0.93156 0.51819 0.0
C1239 C 0.71919 0.92189 0.50039 0.0
C1240 C 0.73501 0.91312 0.51833 0.0
C1241 C 0.73585 0.91412 0.5541 0.0
C1242 C 0.72091 0.92395 0.57199 0.0
C1243 C 0.70503 0.93272 0.55416 0.0
H1244 H 0.74812 0.90733 0.56795 0.0
H1245 H 0.60033 0.00254 0.40178 0.0
H1246 H 0.6912 0.75476 0.50909 0.0
H1247 H 0.72352 0.73758 0.50508 0.0
H1248 H 0.65956 0.66137 0.46206 0.0
H1249 H 0.62725 0.67856 0.46535 0.0
H1250 H 0.72622 0.69483 0.53104 0.0
H1251 H 0.68738 0.63949 0.40119 0.0
H1252 H 0.6634 0.64211 0.34953 0.0
H1253 H 0.69489 0.72839 0.36731 0.0
H1254 H 0.71933 0.72635 0.41877 0.0
H1255 H 0.79107 0.61603 0.49547 0.0
H1256 H 0.75686 0.63037 0.50358 0.0
H1257 H 0.7957 0.69157 0.42432 0.0
H1258 H 0.82921 0.67659 0.41501 0.0
H1259 H 0.74188 0.66601 0.41696 0.0
H1260 H 0.80526 0.7088 0.51022 0.0
H1261 H 0.83204 0.70974 0.56084 0.0
H1262 H 0.75717 0.6558 0.61445 0.0
H1263 H 0.72995 0.65425 0.56395 0.0
C1264 C 0.68393 0.73426 0.49898 0.0
C1265 C 0.65672 0.71815 0.4872 0.0
C1266 C 0.70243 0.72444 0.49681 0.0
C1267 C 0.69408 0.69835 0.48284 0.0
C1268 C 0.6666 0.68176 0.47237 0.0
C1269 C 0.64814 0.69162 0.47434 0.0
C1270 C 0.71443 0.68904 0.47784 0.0
C1271 C 0.72958 0.68843 0.50613 0.0
C1272 C 0.71914 0.68109 0.44525 0.0
C1273 C 0.70493 0.68268 0.414 0.0
C1274 C 0.68926 0.65903 0.39397 0.0
C1275 C 0.67558 0.66041 0.36475 0.0
C1276 C 0.67755 0.68538 0.35521 0.0
C1277 C 0.6933 0.70904 0.37479 0.0
C1278 C 0.70705 0.70778 0.404 0.0
C1279 C 0.7922 0.63233 0.47948 0.0
C1280 C 0.81302 0.64516 0.4546 0.0
C1281 C 0.77276 0.64071 0.48441 0.0
C1282 C 0.77389 0.66227 0.46483 0.0
C1283 C 0.79446 0.67494 0.4398 0.0
C1284 C 0.81381 0.66651 0.43474 0.0
C1285 C 0.75361 0.67164 0.47019 0.0
C1286 C 0.73842 0.67223 0.44194 0.0
C1287 C 0.74928 0.68007 0.50268 0.0
C1288 C 0.76559 0.68121 0.53319 0.0
C1289 C 0.79452 0.69699 0.53272 0.0
C1290 C 0.80977 0.69766 0.5614 0.0
C1291 C 0.79632 0.68278 0.59081 0.0
C1292 C 0.76757 0.66728 0.59164 0.0
C1293 C 0.75222 0.66653 0.56301 0.0
H1294 H 0.80817 0.6833 0.61298 0.0
H1295 H 0.66691 0.68639 0.33261 0.0
H1296 H 0.42463 0.28196 0.3543 0.0
H1297 H 0.43336 0.26465 0.30124 0.0
H1298 H 0.48704 0.243 0.35498 0.0
H1299 H 0.47798 0.25986 0.40875 0.0
H1300 H 0.50183 0.26852 0.27871 0.0
H1301 H 0.43746 0.19346 0.34993 0.0
H1302 H 0.3985 0.17269 0.39034 0.0
H1303 H 0.34555 0.17719 0.31431 0.0
H1304 H 0.38448 0.19869 0.27365 0.0
H1305 H 0.43028 0.13743 0.15762 0.0
H1306 H 0.44183 0.15894 0.21413 0.0
H1307 H 0.4665 0.23798 0.16805 0.0
H1308 H 0.45583 0.21663 0.11128 0.0
H1309 H 0.41817 0.18102 0.24623 0.0
H1310 H 0.51155 0.29024 0.21774 0.0
H1311 H 0.55279 0.31148 0.18083 0.0
H1312 H 0.55171 0.23441 0.1753 0.0
H1313 H 0.51072 0.2128 0.21256 0.0
C1314 C 0.4388 0.27412 0.35482 0.0
C1315 C 0.45041 0.272 0.38576 0.0
C1316 C 0.44381 0.26433 0.32443 0.0
C1317 C 0.46075 0.25256 0.32437 0.0
C1318 C 0.47403 0.2522 0.35464 0.0
C1319 C 0.46873 0.2617 0.38528 0.0
C1320 C 0.46113 0.2373 0.29377 0.0
C1321 C 0.48374 0.24929 0.27151 0.0
C1322 C 0.43772 0.21191 0.28515 0.0
C1323 C 0.41395 0.19796 0.3089 0.0
C1324 C 0.41757 0.19026 0.34193 0.0
C1325 C 0.39551 0.17842 0.36492 0.0
C1326 C 0.36958 0.17374 0.35499 0.0
C1327 C 0.36566 0.18086 0.32199 0.0
C1328 C 0.38773 0.19291 0.29896 0.0
C1329 C 0.43862 0.15949 0.1595 0.0
C1330 C 0.44212 0.17538 0.13009 0.0
C1331 C 0.44517 0.17175 0.19183 0.0
C1332 C 0.45514 0.20011 0.19546 0.0
C1333 C 0.45935 0.21616 0.16595 0.0
C1334 C 0.45314 0.20393 0.1335 0.0
C1335 C 0.45883 0.21239 0.23018 0.0
C1336 C 0.43668 0.19993 0.25331 0.0
C1337 C 0.48305 0.23693 0.23988 0.0
C1338 C 0.50791 0.24985 0.21775 0.0
C1339 C 0.52019 0.27786 0.2088 0.0
C1340 C 0.54351 0.28995 0.18778 0.0
C1341 C 0.55482 0.27429 0.17566 0.0
C1342 C 0.54288 0.2465 0.18461 0.0
C1343 C 0.51957 0.23431 0.20564 0.0
H1344 H 0.57286 0.28369 0.15937 0.0
H1345 H 0.35252 0.1645 0.37283 0.0
H1346 H 0.26249 0.47746 0.10276 0.0
H1347 H 0.24975 0.48833 0.15824 0.0
H1348 H 0.25874 0.42359 0.20552 0.0
H1349 H 0.27239 0.41344 0.15075 0.0
H1350 H 0.20749 0.45942 0.19524 0.0
H1351 H 0.27444 0.43389 0.28721 0.0
H1352 H 0.32145 0.44082 0.28915 0.0
H1353 H 0.34929 0.50884 0.21935 0.0
H1354 H 0.30254 0.50261 0.21736 0.0
H1355 H 0.14062 0.4046 0.34996 0.0
H1356 H 0.16488 0.41668 0.29533 0.0
H1357 H 0.23446 0.48631 0.34272 0.0
H1358 H 0.21062 0.47341 0.39801 0.0
H1359 H 0.25278 0.46238 0.30556 0.0
H1360 H 0.1904 0.49374 0.2837 0.0
H1361 H 0.14594 0.49275 0.28185 0.0
H1362 H 0.11416 0.42477 0.21155 0.0
H1363 H 0.15828 0.42506 0.21336 0.0
C1364 C 0.26222 0.46593 0.12517 0.0
C1365 C 0.26849 0.44465 0.12247 0.0
C1366 C 0.25488 0.4721 0.15682 0.0
C1367 C 0.25358 0.45702 0.18622 0.0
C1368 C 0.26027 0.43605 0.1835 0.0
C1369 C 0.26791 0.43012 0.15206 0.0
C1370 C 0.24309 0.4614 0.21918 0.0
C1371 C 0.21755 0.46039 0.21936 0.0
C1372 C 0.25661 0.46363 0.25065 0.0
C1373 C 0.28489 0.46767 0.25201 0.0
C1374 C 0.29061 0.45045 0.27244 0.0
C1375 C 0.31722 0.45422 0.2735 0.0
C1376 C 0.33833 0.47522 0.25434 0.0
C1377 C 0.33289 0.49253 0.23411 0.0
C1378 C 0.30633 0.48886 0.23297 0.0
C1379 C 0.16097 0.42266 0.34866 0.0
C1380 C 0.17375 0.43808 0.37817 0.0
C1381 C 0.17478 0.42969 0.31733 0.0
C1382 C 0.20137 0.45274 0.31465 0.0
C1383 C 0.21396 0.46849 0.34407 0.0
C1384 C 0.20032 0.46113 0.37562 0.0
C1385 C 0.21656 0.45902 0.28164 0.0
C1386 C 0.24299 0.46202 0.28146 0.0
C1387 C 0.20427 0.45959 0.25018 0.0
C1388 C 0.17767 0.45937 0.2488 0.0
C1389 C 0.17389 0.47847 0.268 0.0
C1390 C 0.14874 0.47804 0.26694 0.0
C1391 C 0.12723 0.45869 0.24662 0.0
C1392 C 0.13085 0.43976 0.22727 0.0
C1393 C 0.15594 0.44008 0.22825 0.0
H1394 H 0.10778 0.45839 0.24585 0.0
H1395 H 0.35891 0.47809 0.25519 0.0
H1396 H 0.77962 0.22948 0.10112 0.0
H1397 H 0.75681 0.21907 0.15687 0.0
H1398 H 0.8288 0.28819 0.20122 0.0
H1399 H 0.85219 0.29752 0.14583 0.0
H1400 H 0.81476 0.24796 0.24006 0.0
H1401 H 0.76337 0.28529 0.18927 0.0
H1402 H 0.73537 0.29175 0.14551 0.0
H1403 H 0.67157 0.20742 0.15732 0.0
H1404 H 0.69933 0.20033 0.20083 0.0
H1405 H 0.75017 0.22301 0.40083 0.0
H1406 H 0.76495 0.24746 0.34607 0.0
H1407 H 0.71324 0.17158 0.29215 0.0
H1408 H 0.69855 0.14694 0.3467 0.0
H1409 H 0.71725 0.22136 0.26121 0.0
H1410 H 0.77399 0.1847 0.30651 0.0
H1411 H 0.80169 0.18015 0.35244 0.0
H1412 H 0.85612 0.26776 0.3522 0.0
H1413 H 0.82843 0.27286 0.30663 0.0
C1414 C 0.79034 0.2427 0.12268 0.0
C1415 C 0.81762 0.26425 0.11931 0.0
C1416 C 0.77724 0.23686 0.15455 0.0
C1417 C 0.79088 0.25305 0.18337 0.0
C1418 C 0.81781 0.27533 0.17951 0.0
C1419 C 0.83115 0.28071 0.14786 0.0
C1420 C 0.77812 0.24522 0.21798 0.0
C1421 C 0.79364 0.24284 0.24469 0.0
C1422 C 0.75039 0.23806 0.22426 0.0
C1423 C 0.73354 0.24224 0.19817 0.0
C1424 C 0.74345 0.26807 0.18238 0.0
C1425 C 0.7276 0.27185 0.15764 0.0
C1426 C 0.70173 0.25 0.1486 0.0
C1427 C 0.69162 0.22433 0.16435 0.0
C1428 C 0.70738 0.22043 0.18909 0.0
C1429 C 0.74132 0.2117 0.37735 0.0
C1430 C 0.72349 0.18303 0.37791 0.0
C1431 C 0.74978 0.22569 0.34615 0.0
C1432 C 0.74034 0.21121 0.31519 0.0
C1433 C 0.72068 0.18307 0.31582 0.0
C1434 C 0.71245 0.16902 0.34697 0.0
C1435 C 0.75393 0.22417 0.28251 0.0
C1436 C 0.73854 0.22722 0.25635 0.0
C1437 C 0.78189 0.23236 0.27677 0.0
C1438 C 0.79899 0.22919 0.30342 0.0
C1439 C 0.79177 0.20301 0.3164 0.0
C1440 C 0.80746 0.20033 0.34237 0.0
C1441 C 0.83061 0.22366 0.35529 0.0
C1442 C 0.83816 0.24971 0.3422 0.0
C1443 C 0.82248 0.25251 0.31629 0.0
H1444 H 0.84277 0.22156 0.37534 0.0
H1445 H 0.6895 0.25297 0.12944 0.0
H1446 H 0.53964 0.8492 0.15038 0.0
H1447 H 0.53029 0.82711 0.20669 0.0
H1448 H 0.53435 0.75853 0.16266 0.0
H1449 H 0.54185 0.77979 0.106 0.0
H1450 H 0.50024 0.74004 0.21284 0.0
H1451 H 0.5919 0.81637 0.19942 0.0
H1452 H 0.62734 0.86438 0.18677 0.0
H1453 H 0.59768 0.89293 0.26962 0.0
H1454 H 0.56178 0.84508 0.28244 0.0
H1455 H 0.56522 0.71043 0.35217 0.0
H1456 H 0.55199 0.72293 0.29823 0.0
H1457 H 0.52736 0.77378 0.35342 0.0
H1458 H 0.54016 0.76104 0.40758 0.0
H1459 H 0.56734 0.80077 0.3004 0.0
H1460 H 0.47909 0.71942 0.31705 0.0
H1461 H 0.44794 0.67 0.32838 0.0
H1462 H 0.47707 0.64921 0.23776 0.0
H1463 H 0.5087 0.69851 0.22615 0.0
C1464 C 0.53776 0.82905 0.1527 0.0
C1465 C 0.54162 0.81621 0.1241 0.0
C1466 C 0.53262 0.81653 0.18486 0.0
C1467 C 0.53252 0.79156 0.18917 0.0
C1468 C 0.53448 0.77784 0.1601 0.0
C1469 C 0.53877 0.78999 0.12772 0.0
C1470 C 0.53311 0.78115 0.22402 0.0
C1471 C 0.51499 0.75331 0.23191 0.0
C1472 C 0.55228 0.79843 0.24912 0.0
C1473 C 0.57397 0.8272 0.24163 0.0
C1474 C 0.59283 0.83291 0.2148 0.0
C1475 C 0.61301 0.86008 0.20761 0.0
C1476 C 0.61471 0.8817 0.22732 0.0
C1477 C 0.59629 0.87617 0.25433 0.0
C1478 C 0.57603 0.84903 0.26157 0.0
C1479 C 0.5565 0.72386 0.35286 0.0
C1480 C 0.5538 0.73486 0.38401 0.0
C1481 C 0.54884 0.73087 0.32207 0.0
C1482 C 0.53863 0.74918 0.32194 0.0
C1483 C 0.53508 0.7595 0.3531 0.0
C1484 C 0.54235 0.75217 0.38396 0.0
C1485 C 0.53453 0.7598 0.28908 0.0
C1486 C 0.55224 0.78767 0.28151 0.0
C1487 C 0.5156 0.74235 0.26408 0.0
C1488 C 0.49642 0.71268 0.27087 0.0
C1489 C 0.47902 0.70431 0.29968 0.0
C1490 C 0.46124 0.67632 0.30613 0.0
C1491 C 0.46056 0.65647 0.28384 0.0
C1492 C 0.47762 0.6646 0.25501 0.0
C1493 C 0.49545 0.69257 0.24846 0.0
H1494 H 0.44679 0.63481 0.28888 0.0
H1495 H 0.63035 0.90272 0.22172 0.0
H1496 H 0.85572 0.55241 0.34596 0.0
H1497 H 0.83352 0.54281 0.28974 0.0
H1498 H 0.76381 0.54438 0.33443 0.0
H1499 H 0.78524 0.55217 0.39097 0.0
H1500 H 0.74586 0.50904 0.2861 0.0
H1501 H 0.82025 0.60242 0.29487 0.0
H1502 H 0.868 0.63964 0.30477 0.0
H1503 H 0.89607 0.60954 0.22191 0.0
H1504 H 0.84849 0.57188 0.21181 0.0
H1505 H 0.70939 0.56725 0.14565 0.0
H1506 H 0.72412 0.5565 0.19973 0.0
H1507 H 0.77553 0.53276 0.14421 0.0
H1508 H 0.76059 0.54305 0.09 0.0
H1509 H 0.8027 0.57477 0.19504 0.0
H1510 H 0.72361 0.48442 0.18313 0.0
H1511 H 0.67438 0.45115 0.17384 0.0
H1512 H 0.65346 0.48091 0.26377 0.0
H1513 H 0.70255 0.51466 0.27333 0.0
C1514 C 0.83542 0.55016 0.34375 0.0
C1515 C 0.82221 0.55323 0.37253 0.0
C1516 C 0.82282 0.54485 0.31166 0.0
C1517 C 0.79734 0.54368 0.30763 0.0
C1518 C 0.78351 0.5453 0.3368 0.0
C1519 C 0.79576 0.54979 0.36908 0.0
C1520 C 0.78602 0.54281 0.27298 0.0
C1521 C 0.75827 0.52352 0.26628 0.0
C1522 C 0.80225 0.56152 0.24686 0.0
C1523 C 0.83087 0.58414 0.25287 0.0
C1524 C 0.83663 0.60362 0.27893 0.0
C1525 C 0.86366 0.62481 0.28455 0.0
C1526 C 0.88506 0.6269 0.26404 0.0
C1527 C 0.87947 0.60785 0.23781 0.0
C1528 C 0.85249 0.58658 0.23212 0.0
C1529 C 0.72343 0.55925 0.14497 0.0
C1530 C 0.73395 0.55607 0.11372 0.0
C1531 C 0.73171 0.55301 0.17581 0.0
C1532 C 0.75081 0.54377 0.17581 0.0
C1533 C 0.76066 0.53974 0.1446 0.0
C1534 C 0.75208 0.54558 0.11372 0.0
C1535 C 0.76265 0.54122 0.20844 0.0
C1536 C 0.79048 0.56001 0.21475 0.0
C1537 C 0.7463 0.52262 0.23437 0.0
C1538 C 0.71677 0.50222 0.22879 0.0
C1539 C 0.7085 0.48403 0.20077 0.0
C1540 C 0.68062 0.46505 0.19549 0.0
C1541 C 0.6608 0.46395 0.21816 0.0
C1542 C 0.66884 0.48179 0.24621 0.0
C1543 C 0.69669 0.50083 0.2516 0.0
H1544 H 0.63923 0.44925 0.21402 0.0
H1545 H 0.90597 0.64333 0.26842 0.0
H1546 H 0.14059 0.71886 0.1488 0.0
H1547 H 0.16601 0.7378 0.20191 0.0
H1548 H 0.24137 0.75449 0.15185 0.0
H1549 H 0.21608 0.73593 0.09802 0.0
H1550 H 0.23238 0.73322 0.22535 0.0
H1551 H 0.23756 0.80452 0.15375 0.0
H1552 H 0.21908 0.82583 0.1146 0.0
H1553 H 0.16601 0.8253 0.19427 0.0
H1554 H 0.18369 0.80329 0.23371 0.0
H1555 H 0.29081 0.86414 0.34627 0.0
H1556 H 0.27969 0.84262 0.28972 0.0
H1557 H 0.22831 0.7632 0.33664 0.0
H1558 H 0.24015 0.78458 0.39335 0.0
H1559 H 0.23338 0.81916 0.259 0.0
H1560 H 0.22223 0.71162 0.28653 0.0
H1561 H 0.24436 0.69185 0.32225 0.0
H1562 H 0.31871 0.77045 0.32572 0.0
H1563 H 0.29719 0.79061 0.28964 0.0
C1564 C 0.16246 0.72597 0.14916 0.0
C1565 C 0.1764 0.72613 0.11916 0.0
C1566 C 0.17693 0.73679 0.17955 0.0
C1567 C 0.20551 0.74767 0.18059 0.0
C1568 C 0.21927 0.7461 0.15142 0.0
C1569 C 0.20482 0.73557 0.12075 0.0
C1570 C 0.22101 0.76327 0.21112 0.0
C1571 C 0.2328 0.75207 0.2328 0.0
C1572 C 0.22221 0.7883 0.22001 0.0
C1573 C 0.21172 0.80192 0.19659 0.0
C1574 C 0.22169 0.80861 0.16282 0.0
C1575 C 0.21134 0.82079 0.14055 0.0
C1576 C 0.19127 0.82678 0.15187 0.0
C1577 C 0.18152 0.82059 0.18551 0.0
C1578 C 0.19168 0.80823 0.20783 0.0
C1579 C 0.27748 0.84202 0.34453 0.0
C1580 C 0.26633 0.82601 0.37418 0.0
C1581 C 0.2711 0.82975 0.31219 0.0
C1582 C 0.25327 0.80125 0.30881 0.0
C1583 C 0.24255 0.78513 0.33852 0.0
C1584 C 0.24923 0.79738 0.37095 0.0
C1585 C 0.24425 0.78876 0.27426 0.0
C1586 C 0.23345 0.80052 0.25167 0.0
C1587 C 0.24477 0.76472 0.26418 0.0
C1588 C 0.25798 0.75267 0.28559 0.0
C1589 C 0.24334 0.72466 0.29477 0.0
C1590 C 0.25577 0.71339 0.31512 0.0
C1591 C 0.28289 0.7299 0.32633 0.0
C1592 C 0.29767 0.7577 0.31713 0.0
C1593 C 0.28535 0.76907 0.29677 0.0
H1594 H 0.29247 0.72113 0.34209 0.0
H1595 H 0.1834 0.83636 0.13464 0.0
H1596 H 0.61562 0.75312 0.63193 0.0
H1597 H 0.61455 0.76571 0.69162 0.0
H1598 H 0.53564 0.75958 0.67465 0.0
H1599 H 0.53631 0.74656 0.61506 0.0
H1600 H 0.57132 0.80706 0.70736 0.0
H1601 H 0.5398 0.7106 0.71947 0.0
H1602 H 0.54171 0.66788 0.71214 0.0
H1603 H 0.618 0.70358 0.76766 0.0
H1604 H 0.61675 0.74669 0.7749 0.0
H1605 H 0.53648 0.81376 0.87996 0.0
H1606 H 0.53677 0.79836 0.82146 0.0
H1607 H 0.61524 0.8039 0.8402 0.0
H1608 H 0.61474 0.81861 0.89911 0.0
H1609 H 0.5802 0.75677 0.80669 0.0
H1610 H 0.61202 0.85314 0.79445 0.0
H1611 H 0.61052 0.89609 0.80167 0.0
H1612 H 0.53426 0.86088 0.74613 0.0
H1613 H 0.53509 0.81754 0.739 0.0
C1614 C 0.59782 0.75401 0.64101 0.0
C1615 C 0.57607 0.74887 0.61867 0.0
C1616 C 0.59729 0.76129 0.67512 0.0
C1617 C 0.57496 0.76346 0.68759 0.0
C1618 C 0.55312 0.75813 0.66548 0.0
C1619 C 0.55359 0.75079 0.6314 0.0
C1620 C 0.57475 0.77211 0.72342 0.0
C1621 C 0.57286 0.79584 0.72911 0.0
C1622 C 0.57753 0.75788 0.7517 0.0
C1623 C 0.57832 0.73198 0.74742 0.0
C1624 C 0.55711 0.70943 0.72986 0.0
C1625 C 0.55805 0.68513 0.72577 0.0
C1626 C 0.58 0.68304 0.73934 0.0
C1627 C 0.60103 0.70524 0.75711 0.0
C1628 C 0.6002 0.72961 0.76124 0.0
C1629 C 0.5537 0.81151 0.87171 0.0
C1630 C 0.57565 0.81753 0.89411 0.0
C1631 C 0.55395 0.80293 0.8382 0.0
C1632 C 0.57618 0.8003 0.82637 0.0
C1633 C 0.59794 0.80591 0.84878 0.0
C1634 C 0.59774 0.81455 0.88231 0.0
C1635 C 0.57665 0.79164 0.79061 0.0
C1636 C 0.57864 0.76797 0.78493 0.0
C1637 C 0.57403 0.80595 0.7623 0.0
C1638 C 0.57348 0.83199 0.7665 0.0
C1639 C 0.59481 0.85447 0.78403 0.0
C1640 C 0.5941 0.8789 0.78805 0.0
C1641 C 0.57227 0.88119 0.77444 0.0
C1642 C 0.55113 0.85906 0.7567 0.0
C1643 C 0.55172 0.83457 0.75264 0.0
H1644 H 0.57177 0.90012 0.77758 0.0
H1645 H 0.58069 0.66421 0.73616 0.0
H1646 H 0.83489 0.61888 0.60905 0.0
H1647 H 0.82058 0.61721 0.66842 0.0
H1648 H 0.78805 0.52941 0.6705 0.0
H1649 H 0.8036 0.53091 0.61159 0.0
H1650 H 0.75196 0.55061 0.69694 0.0
H1651 H 0.84268 0.56166 0.70868 0.0
H1652 H 0.89248 0.58382 0.69693 0.0
H1653 H 0.90423 0.66032 0.73701 0.0
H1654 H 0.85439 0.63871 0.74851 0.0
H1655 H 0.72691 0.53338 0.87552 0.0
H1656 H 0.74116 0.53122 0.81711 0.0
H1657 H 0.79651 0.61916 0.81802 0.0
H1658 H 0.78388 0.62123 0.87717 0.0
H1659 H 0.82095 0.59587 0.78943 0.0
H1660 H 0.73227 0.58786 0.77618 0.0
H1661 H 0.68252 0.56851 0.78622 0.0
H1662 H 0.66658 0.49019 0.74739 0.0
H1663 H 0.71631 0.50898 0.73752 0.0
C1664 C 0.82514 0.59923 0.62216 0.0
C1665 C 0.82068 0.57505 0.60547 0.0
C1666 C 0.81675 0.59832 0.65601 0.0
C1667 C 0.80341 0.57322 0.67369 0.0
C1668 C 0.79829 0.54895 0.65709 0.0
C1669 C 0.80707 0.54987 0.62337 0.0
C1670 C 0.79506 0.5725 0.70969 0.0
C1671 C 0.76694 0.56009 0.71737 0.0
C1672 C 0.81477 0.58563 0.73587 0.0
C1673 C 0.84476 0.59863 0.72912 0.0
C1674 C 0.85584 0.58327 0.71468 0.0
C1675 C 0.88408 0.59572 0.70813 0.0
C1676 C 0.9015 0.62348 0.71613 0.0
C1677 C 0.89071 0.63883 0.73078 0.0
C1678 C 0.86247 0.62649 0.73735 0.0
C1679 C 0.74238 0.55223 0.86349 0.0
C1680 C 0.7541 0.57751 0.88111 0.0
C1681 C 0.75023 0.55101 0.82988 0.0
C1682 C 0.76956 0.5751 0.81292 0.0
C1683 C 0.78145 0.60031 0.8305 0.0
C1684 C 0.77391 0.6015 0.86424 0.0
C1685 C 0.77766 0.5741 0.77699 0.0
C1686 C 0.80582 0.58623 0.76921 0.0
C1687 C 0.75795 0.5611 0.7506 0.0
C1688 C 0.72804 0.54975 0.75646 0.0
C1689 C 0.71818 0.56645 0.77003 0.0
C1690 C 0.68998 0.55559 0.77565 0.0
C1691 C 0.67141 0.52811 0.76754 0.0
C1692 C 0.681 0.51145 0.75371 0.0
C1693 C 0.70918 0.5222 0.74807 0.0
H1694 H 0.64959 0.51975 0.7719 0.0
H1695 H 0.92337 0.63308 0.71105 0.0
H1696 H 0.20773 0.77783 0.59298 0.0
H1697 H 0.19354 0.76105 0.65175 0.0
H1698 H 0.26096 0.83671 0.69118 0.0
H1699 H 0.27499 0.85365 0.63256 0.0
H1700 H 0.25674 0.79052 0.72261 0.0
H1701 H 0.20027 0.82838 0.69465 0.0
H1702 H 0.16663 0.83653 0.66392 0.0
H1703 H 0.10391 0.75241 0.68054 0.0
H1704 H 0.13741 0.74348 0.71052 0.0
H1705 H 0.21245 0.7834 0.89584 0.0
H1706 H 0.22672 0.79688 0.8366 0.0
H1707 H 0.16119 0.7183 0.80165 0.0
H1708 H 0.14734 0.70406 0.86093 0.0
H1709 H 0.16419 0.76472 0.76782 0.0
H1710 H 0.22345 0.72875 0.7979 0.0
H1711 H 0.25764 0.72477 0.83349 0.0
H1712 H 0.31596 0.81034 0.81666 0.0
H1713 H 0.28197 0.81494 0.78135 0.0
C1714 C 0.21955 0.79077 0.61425 0.0
C1715 C 0.24247 0.81699 0.60835 0.0
C1716 C 0.21136 0.78126 0.64773 0.0
C1717 C 0.22618 0.79769 0.67579 0.0
C1718 C 0.24927 0.82373 0.66988 0.0
C1719 C 0.25719 0.83341 0.63647 0.0
C1720 C 0.21777 0.78768 0.71135 0.0
C1721 C 0.23657 0.78508 0.73257 0.0
C1722 C 0.19135 0.78032 0.72419 0.0
C1723 C 0.17151 0.78514 0.70441 0.0
C1724 C 0.17946 0.81144 0.69118 0.0
C1725 C 0.16038 0.81625 0.67402 0.0
C1726 C 0.13316 0.79501 0.67031 0.0
C1727 C 0.12501 0.76885 0.68349 0.0
C1728 C 0.14407 0.76388 0.70043 0.0
C1729 C 0.20135 0.76868 0.87571 0.0
C1730 C 0.17869 0.74258 0.88336 0.0
C1731 C 0.20947 0.77654 0.84181 0.0
C1732 C 0.19506 0.75855 0.81481 0.0
C1733 C 0.17252 0.7325 0.82219 0.0
C1734 C 0.16454 0.72448 0.85612 0.0
C1735 C 0.20303 0.76734 0.77883 0.0
C1736 C 0.1842 0.76983 0.75761 0.0
C1737 C 0.22954 0.77499 0.76616 0.0
C1738 C 0.25006 0.77224 0.78723 0.0
C1739 C 0.24348 0.74678 0.80202 0.0
C1740 C 0.26284 0.7444 0.8221 0.0
C1741 C 0.28893 0.76731 0.8274 0.0
C1742 C 0.29574 0.79262 0.81256 0.0
C1743 C 0.27644 0.79512 0.79248 0.0
H1744 H 0.30389 0.76542 0.84295 0.0
H1745 H 0.11837 0.79885 0.65724 0.0
H1746 H 0.42684 0.22079 0.91026 0.0
H1747 H 0.42827 0.23613 0.85092 0.0
H1748 H 0.41902 0.15944 0.81391 0.0
H1749 H 0.41698 0.14379 0.87314 0.0
H1750 H 0.46328 0.21093 0.78222 0.0
H1751 H 0.36598 0.16325 0.81036 0.0
H1752 H 0.32492 0.15403 0.84385 0.0
H1753 H 0.34265 0.23704 0.827 0.0
H1754 H 0.38408 0.2469 0.79382 0.0
H1755 H 0.43454 0.2157 0.60681 0.0
H1756 H 0.43513 0.20277 0.66656 0.0
H1757 H 0.41644 0.26521 0.69952 0.0
H1758 H 0.4145 0.27713 0.63964 0.0
H1759 H 0.38752 0.22247 0.73486 0.0
H1760 H 0.48311 0.27174 0.70674 0.0
H1761 H 0.52499 0.28367 0.6734 0.0
H1762 H 0.51359 0.20307 0.69183 0.0
H1763 H 0.47141 0.19051 0.7249 0.0
C1764 C 0.42524 0.20732 0.88939 0.0
C1765 C 0.4218 0.18115 0.8961 0.0
C1766 C 0.42596 0.21603 0.85564 0.0
C1767 C 0.4237 0.19886 0.82819 0.0
C1768 C 0.42081 0.17294 0.83484 0.0
C1769 C 0.41954 0.16401 0.86855 0.0
C1770 C 0.4241 0.20779 0.79245 0.0
C1771 C 0.44664 0.21323 0.77162 0.0
C1772 C 0.40279 0.21162 0.77923 0.0
C1773 C 0.37829 0.20589 0.79992 0.0
C1774 C 0.36134 0.17965 0.81417 0.0
C1775 C 0.33794 0.17428 0.833 0.0
C1776 C 0.33119 0.19494 0.83751 0.0
C1777 C 0.34791 0.22106 0.82344 0.0
C1778 C 0.37134 0.22655 0.80463 0.0
C1779 C 0.43069 0.22668 0.62691 0.0
C1780 C 0.42456 0.24743 0.61879 0.0
C1781 C 0.43118 0.21943 0.66105 0.0
C1782 C 0.42635 0.23334 0.68774 0.0
C1783 C 0.42026 0.25415 0.6795 0.0
C1784 C 0.41919 0.26099 0.64534 0.0
C1785 C 0.42679 0.22569 0.72414 0.0
C1786 C 0.40437 0.22044 0.74525 0.0
C1787 C 0.44854 0.2226 0.73782 0.0
C1788 C 0.47395 0.2301 0.71804 0.0
C1789 C 0.48942 0.25649 0.70348 0.0
C1790 C 0.51323 0.26338 0.68466 0.0
C1791 C 0.52191 0.24412 0.68043 0.0
C1792 C 0.50683 0.21795 0.69509 0.0
C1793 C 0.48298 0.21095 0.71391 0.0
H1794 H 0.54035 0.24949 0.66585 0.0
H1795 H 0.31292 0.19067 0.85175 0.0
H1796 H 0.29724 0.45151 0.86465 0.0
H1797 H 0.28334 0.45165 0.80526 0.0
H1798 H 0.20108 0.42765 0.83913 0.0
H1799 H 0.21447 0.42644 0.89826 0.0
H1800 H 0.20006 0.39675 0.78657 0.0
H1801 H 0.24632 0.49377 0.81296 0.0
H1802 H 0.28521 0.5381 0.8323 0.0
H1803 H 0.33577 0.53527 0.75155 0.0
H1804 H 0.29727 0.49071 0.73199 0.0
H1805 H 0.14424 0.41875 0.63677 0.0
H1806 H 0.16211 0.42243 0.69483 0.0
H1807 H 0.24261 0.44683 0.65377 0.0
H1808 H 0.22487 0.44354 0.59556 0.0
H1809 H 0.24648 0.47732 0.70879 0.0
H1810 H 0.2005 0.38121 0.68145 0.0
H1811 H 0.16195 0.3368 0.66172 0.0
H1812 H 0.11154 0.33749 0.74413 0.0
H1813 H 0.14967 0.38213 0.76407 0.0
C1814 C 0.27617 0.4462 0.85943 0.0
C1815 C 0.25697 0.43899 0.88621 0.0
C1816 C 0.26834 0.44655 0.82552 0.0
C1817 C 0.24123 0.43987 0.81782 0.0
C1818 C 0.22212 0.43293 0.84451 0.0
C1819 C 0.2299 0.43252 0.87834 0.0
C1820 C 0.23233 0.43908 0.78189 0.0
C1821 C 0.21 0.41449 0.7697 0.0
C1822 C 0.24587 0.46194 0.75957 0.0
C1823 C 0.269 0.48877 0.77124 0.0
C1824 C 0.2658 0.50249 0.79949 0.0
C1825 C 0.28776 0.52768 0.81046 0.0
C1826 C 0.31297 0.53946 0.79322 0.0
C1827 C 0.31625 0.5261 0.76491 0.0
C1828 C 0.29435 0.5009 0.75386 0.0
C1829 C 0.16574 0.42489 0.64017 0.0
C1830 C 0.18315 0.43076 0.61173 0.0
C1831 C 0.17592 0.42697 0.6733 0.0
C1832 C 0.2036 0.4345 0.67859 0.0
C1833 C 0.2212 0.44099 0.65025 0.0
C1834 C 0.21106 0.43914 0.61706 0.0
C1835 C 0.21394 0.43513 0.7137 0.0
C1836 C 0.2366 0.45959 0.72567 0.0
C1837 C 0.20078 0.41211 0.73584 0.0
C1838 C 0.17788 0.38513 0.72408 0.0
C1839 C 0.18113 0.37199 0.69523 0.0
C1840 C 0.15936 0.34676 0.68403 0.0
C1841 C 0.13429 0.33436 0.70162 0.0
C1842 C 0.13096 0.34713 0.73051 0.0
C1843 C 0.15265 0.37238 0.7418 0.0
H1844 H 0.11746 0.31484 0.6929 0.0
H1845 H 0.32995 0.55896 0.80175 0.0
H1846 H 0.77715 0.21784 0.8956 0.0
H1847 H 0.76422 0.20539 0.83584 0.0
H1848 H 0.84959 0.23727 0.80921 0.0
H1849 H 0.86285 0.25122 0.86858 0.0
H1850 H 0.82674 0.25336 0.76385 0.0
H1851 H 0.80248 0.16643 0.81475 0.0
H1852 H 0.78027 0.12805 0.85595 0.0
H1853 H 0.70065 0.11425 0.82598 0.0
H1854 H 0.7224 0.15272 0.78478 0.0
H1855 H 0.79942 0.1879 0.59921 0.0
H1856 H 0.8137 0.20054 0.65901 0.0
H1857 H 0.73209 0.18447 0.68459 0.0
H1858 H 0.71783 0.17216 0.62477 0.0
H1859 H 0.75364 0.15969 0.72975 0.0
H1860 H 0.77904 0.24762 0.67941 0.0
H1861 H 0.80193 0.28568 0.63794 0.0
H1862 H 0.88073 0.29659 0.66663 0.0
H1863 H 0.85825 0.25832 0.70802 0.0
C1864 C 0.79323 0.2225 0.87701 0.0
C1865 C 0.82107 0.2356 0.88696 0.0
C1866 C 0.78576 0.215 0.84288 0.0
C1867 C 0.80589 0.22002 0.81806 0.0
C1868 C 0.83367 0.23307 0.8279 0.0
C1869 C 0.84119 0.2408 0.86196 0.0
C1870 C 0.79807 0.21237 0.78167 0.0
C1871 C 0.81107 0.23274 0.75641 0.0
C1872 C 0.77723 0.18561 0.77191 0.0
C1873 C 0.76409 0.1626 0.79686 0.0
C1874 C 0.78025 0.15534 0.81712 0.0
C1875 C 0.76774 0.13353 0.8404 0.0
C1876 C 0.73907 0.11872 0.84355 0.0
C1877 C 0.72285 0.12572 0.82347 0.0
C1878 C 0.73525 0.1475 0.8001 0.0
C1879 C 0.78458 0.18708 0.61767 0.0
C1880 C 0.75754 0.17905 0.60756 0.0
C1881 C 0.79276 0.19437 0.65168 0.0
C1882 C 0.77391 0.19341 0.67611 0.0
C1883 C 0.74688 0.18528 0.66606 0.0
C1884 C 0.73882 0.17842 0.63197 0.0
C1885 C 0.7823 0.20067 0.71226 0.0
C1886 C 0.7694 0.18023 0.73737 0.0
C1887 C 0.80339 0.22725 0.72185 0.0
C1888 C 0.81694 0.24995 0.69659 0.0
C1889 C 0.80123 0.25794 0.67663 0.0
C1890 C 0.81413 0.2796 0.65321 0.0
C1891 C 0.84276 0.29357 0.64971 0.0
C1892 C 0.85855 0.2858 0.66946 0.0
C1893 C 0.84574 0.26413 0.6929 0.0
H1894 H 0.85271 0.31046 0.63174 0.0
H1895 H 0.72942 0.1018 0.86154 0.0
loop_
_geom_bond_atom_site_label_1
_geom_bond_atom_site_label_2
_geom_bond_distance
_geom_bond_site_symmetry_2
_ccdc_geom_bond_type
Co0 N4 2.148 . S
Co0 N10 2.128 . S
Co0 N20 2.194 1_554 S
Co0 O25 2.351 . S
Co0 O26 2.155 . S
Co0 O27 2.096 . S
C1 N4 1.301 . S
C1 N5 1.328 . S
C1 H6 0.930 . S
C2 C3 1.333 . S
C2 N4 1.317 . S
C2 H7 0.930 . S
C3 C2 1.333 . S
C3 N5 1.350 . S
C3 H29 0.931 . S
N4 Co0 2.148 . S
N4 C1 1.301 . S
N4 C2 1.317 . S
N5 C1 1.328 . S
N5 C3 1.350 . S
H6 C1 0.930 . S
H7 C2 0.930 . S
C8 O9 1.224 1_554 S
C8 O27 1.247 . S
O9 C8 1.224 1_556 S
N10 Co0 2.128 . S
N10 C11 1.355 . S
N10 C13 1.311 . S
C11 N10 1.355 . S
C11 C12 1.363 . S
C11 H23 0.929 . S
C12 C11 1.363 . S
C12 N14 1.375 . S
C12 H30 0.931 . S
C13 N10 1.311 . S
C13 N14 1.347 . S
C13 H24 0.929 . S
N14 C12 1.375 . S
N14 C13 1.347 . S
C15 C18 1.365 . S
C15 N20 1.328 . S
C15 H21 0.929 1_556 S
C16 C17 1.362 . S
C16 C19 1.378 . S
C16 H31 0.929 . S
C17 C16 1.362 . S
C17 C18 1.366 . S
C18 C15 1.365 . S
C18 C17 1.366 . S
C18 H32 0.930 . S
C19 C16 1.378 . S
C19 N20 1.315 . S
C19 H22 0.930 . S
N20 Co0 2.194 1_556 S
N20 C15 1.328 . S
N20 C19 1.315 . S
H21 C15 0.929 1_554 S
H22 C19 0.930 . S
H23 C11 0.929 . S
H24 C13 0.929 . S
O25 Co0 2.351 . S
O25 C28 1.244 . S
O26 Co0 2.155 . S
O26 C28 1.240 . S
O27 Co0 2.096 . S
O27 C8 1.247 . S
C28 O25 1.244 . S
C28 O26 1.240 . S
H29 C3 0.931 . S
H30 C12 0.931 . S
H31 C16 0.929 . S
H32 C18 0.930 . S
Co33 N37 2.148 . S
Co33 N43 2.128 . S
Co33 N53 2.194 1_554 S
Co33 O58 2.351 . S
Co33 O59 2.155 . S
Co33 O60 2.096 . S
C34 N37 1.301 . S
C34 N38 1.328 . S
C34 H39 0.930 . S
C35 C36 1.333 . S
C35 N37 1.317 . S
C35 H40 0.930 . S
C36 C35 1.333 . S
C36 N38 1.350 . S
C36 H62 0.931 . S
N37 Co33 2.148 . S
N37 C34 1.301 . S
N37 C35 1.317 . S
N38 C34 1.328 . S
N38 C36 1.350 . S
H39 C34 0.930 . S
H40 C35 0.930 . S
C41 O42 1.224 1_554 S
C41 O60 1.247 . S
O42 C41 1.224 1_556 S
N43 Co33 2.128 . S
N43 C44 1.355 . S
N43 C46 1.311 . S
C44 N43 1.355 . S
C44 C45 1.363 . S
C44 H56 0.929 . S
C45 C44 1.363 . S
C45 N47 1.375 . S
C45 H63 0.931 . S
C46 N43 1.311 . S
C46 N47 1.347 . S
C46 H57 0.929 . S
N47 C45 1.375 . S
N47 C46 1.347 . S
C48 C51 1.365 . S
C48 N53 1.328 . S
C48 H54 0.929 1_556 S
C49 C50 1.362 . S
C49 C52 1.378 . S
C49 H64 0.929 . S
C50 C49 1.362 . S
C50 C51 1.366 . S
C51 C48 1.365 . S
C51 C50 1.366 . S
C51 H65 0.930 . S
C52 C49 1.378 . S
C52 N53 1.315 . S
C52 H55 0.930 . S
N53 Co33 2.194 1_556 S
N53 C48 1.328 . S
N53 C52 1.315 . S
H54 C48 0.929 1_554 S
H55 C52 0.930 . S
H56 C44 0.929 . S
H57 C46 0.929 . S
O58 Co33 2.351 . S
O58 C61 1.244 . S
O59 Co33 2.155 . S
O59 C61 1.240 . S
O60 Co33 2.096 . S
O60 C41 1.247 . S
C61 O58 1.244 . S
C61 O59 1.240 . S
H62 C36 0.931 . S
H63 C45 0.931 . S
H64 C49 0.929 . S
H65 C51 0.930 . S
Co66 N70 2.148 . S
Co66 N76 2.128 . S
Co66 N86 2.194 1_554 S
Co66 O91 2.351 . S
Co66 O92 2.155 . S
Co66 O93 2.096 . S
C67 N70 1.301 . S
C67 N71 1.328 . S
C67 H72 0.930 . S
C68 C69 1.333 . S
C68 N70 1.317 . S
C68 H73 0.930 . S
C69 C68 1.333 . S
C69 N71 1.350 . S
C69 H95 0.931 . S
N70 Co66 2.148 . S
N70 C67 1.301 . S
N70 C68 1.317 . S
N71 C67 1.328 . S
N71 C69 1.350 . S
H72 C67 0.930 . S
H73 C68 0.930 . S
C74 O75 1.224 1_554 S
C74 O93 1.247 . S
O75 C74 1.224 1_556 S
N76 Co66 2.128 . S
N76 C77 1.355 . S
N76 C79 1.311 . S
C77 N76 1.355 . S
C77 C78 1.363 . S
C77 H89 0.929 . S
C78 C77 1.363 . S
C78 N80 1.375 . S
C78 H96 0.931 . S
C79 N76 1.311 . S
C79 N80 1.347 . S
C79 H90 0.929 . S
N80 C78 1.375 . S
N80 C79 1.347 . S
C81 C84 1.365 . S
C81 N86 1.328 . S
C81 H87 0.929 1_556 S
C82 C83 1.362 . S
C82 C85 1.378 . S
C82 H97 0.929 . S
C83 C82 1.362 . S
C83 C84 1.366 . S
C84 C81 1.365 . S
C84 C83 1.366 . S
C84 H98 0.930 . S
C85 C82 1.378 . S
C85 N86 1.315 . S
C85 H88 0.930 . S
N86 Co66 2.194 1_556 S
N86 C81 1.328 . S
N86 C85 1.315 . S
H87 C81 0.929 1_554 S
H88 C85 0.930 . S
H89 C77 0.929 . S
H90 C79 0.929 . S
O91 Co66 2.351 . S
O91 C94 1.244 . S
O92 Co66 2.155 . S
O92 C94 1.240 . S
O93 Co66 2.096 . S
O93 C74 1.247 . S
C94 O91 1.244 . S
C94 O92 1.240 . S
H95 C69 0.931 . S
H96 C78 0.931 . S
H97 C82 0.929 . S
H98 C84 0.930 . S
Co99 N103 2.148 . S
Co99 N109 2.128 . S
Co99 N119 2.194 1_554 S
Co99 O124 2.351 . S
Co99 O125 2.155 . S
Co99 O126 2.096 . S
C100 N103 1.301 . S
C100 N104 1.328 . S
C100 H105 0.930 . S
C101 C102 1.333 . S
C101 N103 1.317 . S
C101 H106 0.930 . S
C102 C101 1.333 . S
C102 N104 1.350 . S
C102 H128 0.931 . S
N103 Co99 2.148 . S
N103 C100 1.301 . S
N103 C101 1.317 . S
N104 C100 1.328 . S
N104 C102 1.350 . S
H105 C100 0.930 . S
H106 C101 0.930 . S
C107 O108 1.224 1_554 S
C107 O126 1.247 . S
O108 C107 1.224 1_556 S
N109 Co99 2.128 . S
N109 C110 1.355 . S
N109 C112 1.311 . S
C110 N109 1.355 . S
C110 C111 1.363 . S
C110 H122 0.929 . S
C111 C110 1.363 . S
C111 N113 1.375 . S
C111 H129 0.931 . S
C112 N109 1.311 . S
C112 N113 1.347 . S
C112 H123 0.929 . S
N113 C111 1.375 . S
N113 C112 1.347 . S
C114 C117 1.365 . S
C114 N119 1.328 . S
C114 H120 0.929 1_556 S
C115 C116 1.362 . S
C115 C118 1.378 . S
C115 H130 0.929 . S
C116 C115 1.362 . S
C116 C117 1.366 . S
C117 C114 1.365 . S
C117 C116 1.366 . S
C117 H131 0.930 . S
C118 C115 1.378 . S
C118 N119 1.315 . S
C118 H121 0.930 . S
N119 Co99 2.194 1_556 S
N119 C114 1.328 . S
N119 C118 1.315 . S
H120 C114 0.929 1_554 S
H121 C118 0.930 . S
H122 C110 0.929 . S
H123 C112 0.929 . S
O124 Co99 2.351 . S
O124 C127 1.244 . S
O125 Co99 2.155 . S
O125 C127 1.240 . S
O126 Co99 2.096 . S
O126 C107 1.247 . S
C127 O124 1.244 . S
C127 O125 1.240 . S
H128 C102 0.931 . S
H129 C111 0.931 . S
H130 C115 0.929 . S
H131 C117 0.930 . S
Co132 N136 2.148 . S
Co132 N142 2.128 . S
Co132 N152 2.194 1_554 S
Co132 O157 2.351 . S
Co132 O158 2.155 . S
Co132 O159 2.096 . S
C133 N136 1.301 . S
C133 N137 1.328 . S
C133 H138 0.930 . S
C134 C135 1.333 . S
C134 N136 1.317 . S
C134 H139 0.930 . S
C135 C134 1.333 . S
C135 N137 1.350 . S
C135 H161 0.931 . S
N136 Co132 2.148 . S
N136 C133 1.301 . S
N136 C134 1.317 . S
N137 C133 1.328 . S
N137 C135 1.350 . S
H138 C133 0.930 . S
H139 C134 0.930 . S
C140 O141 1.224 1_554 S
C140 O159 1.247 . S
O141 C140 1.224 1_556 S
N142 Co132 2.128 . S
N142 C143 1.355 . S
N142 C145 1.311 . S
C143 N142 1.355 . S
C143 C144 1.363 . S
C143 H155 0.929 . S
C144 C143 1.363 . S
C144 N146 1.375 . S
C144 H162 0.931 . S
C145 N142 1.311 . S
C145 N146 1.347 . S
C145 H156 0.929 . S
N146 C144 1.375 . S
N146 C145 1.347 . S
C147 C150 1.365 . S
C147 N152 1.328 . S
C147 H153 0.929 1_556 S
C148 C149 1.362 . S
C148 C151 1.378 . S
C148 H163 0.929 . S
C149 C148 1.362 . S
C149 C150 1.366 . S
C150 C147 1.365 . S
C150 C149 1.366 . S
C150 H164 0.930 . S
C151 C148 1.378 . S
C151 N152 1.315 . S
C151 H154 0.930 . S
N152 Co132 2.194 1_556 S
N152 C147 1.328 . S
N152 C151 1.315 . S
H153 C147 0.929 1_554 S
H154 C151 0.930 . S
H155 C143 0.929 . S
H156 C145 0.929 . S
O157 Co132 2.351 . S
O157 C160 1.244 . S
O158 Co132 2.155 . S
O158 C160 1.240 . S
O159 Co132 2.096 . S
O159 C140 1.247 . S
C160 O157 1.244 . S
C160 O158 1.240 . S
H161 C135 0.931 . S
H162 C144 0.931 . S
H163 C148 0.929 . S
H164 C150 0.930 . S
Co165 N169 2.148 . S
Co165 N175 2.128 . S
Co165 N185 2.194 1_554 S
Co165 O190 2.351 . S
Co165 O191 2.155 . S
Co165 O192 2.096 . S
C166 N169 1.301 . S
C166 N170 1.328 . S
C166 H171 0.930 . S
C167 C168 1.333 . S
C167 N169 1.317 . S
C167 H172 0.930 . S
C168 C167 1.333 . S
C168 N170 1.350 . S
C168 H194 0.931 . S
N169 Co165 2.148 . S
N169 C166 1.301 . S
N169 C167 1.317 . S
N170 C166 1.328 . S
N170 C168 1.350 . S
H171 C166 0.930 . S
H172 C167 0.930 . S
C173 O174 1.224 1_554 S
C173 O192 1.247 . S
O174 C173 1.224 1_556 S
N175 Co165 2.128 . S
N175 C176 1.355 . S
N175 C178 1.311 . S
C176 N175 1.355 . S
C176 C177 1.363 . S
C176 H188 0.929 . S
C177 C176 1.363 . S
C177 N179 1.375 . S
C177 H195 0.931 . S
C178 N175 1.311 . S
C178 N179 1.347 . S
C178 H189 0.929 . S
N179 C177 1.375 . S
N179 C178 1.347 . S
C180 C183 1.365 . S
C180 N185 1.328 . S
C180 H186 0.929 1_556 S
C181 C182 1.362 . S
C181 C184 1.378 . S
C181 H196 0.929 . S
C182 C181 1.362 . S
C182 C183 1.366 . S
C183 C180 1.365 . S
C183 C182 1.366 . S
C183 H197 0.930 . S
C184 C181 1.378 . S
C184 N185 1.315 . S
C184 H187 0.930 . S
N185 Co165 2.194 1_556 S
N185 C180 1.328 . S
N185 C184 1.315 . S
H186 C180 0.929 1_554 S
H187 C184 0.930 . S
H188 C176 0.929 . S
H189 C178 0.929 . S
O190 Co165 2.351 . S
O190 C193 1.244 . S
O191 Co165 2.155 . S
O191 C193 1.240 . S
O192 Co165 2.096 . S
O192 C173 1.247 . S
C193 O190 1.244 . S
C193 O191 1.240 . S
H194 C168 0.931 . S
H195 C177 0.931 . S
H196 C181 0.929 . S
H197 C183 0.930 . S
Co198 N202 2.148 . S
Co198 N208 2.128 . S
Co198 N218 2.194 . S
Co198 O223 2.351 . S
Co198 O224 2.155 . S
Co198 O225 2.096 . S
C199 N202 1.301 . S
C199 N203 1.328 . S
C199 H204 0.930 . S
C200 C201 1.333 . S
C200 N202 1.317 . S
C200 H205 0.930 . S
C201 C200 1.333 . S
C201 N203 1.350 . S
C201 H227 0.931 . S
N202 Co198 2.148 . S
N202 C199 1.301 . S
N202 C200 1.317 . S
N203 C199 1.328 . S
N203 C201 1.350 . S
H204 C199 0.930 . S
H205 C200 0.930 . S
C206 O207 1.224 . S
C206 O225 1.247 . S
O207 C206 1.224 . S
N208 Co198 2.128 . S
N208 C209 1.355 . S
N208 C211 1.311 . S
C209 N208 1.355 . S
C209 C210 1.363 . S
C209 H221 0.929 . S
C210 C209 1.363 . S
C210 N212 1.375 . S
C210 H228 0.931 . S
C211 N208 1.311 . S
C211 N212 1.347 . S
C211 H222 0.929 . S
N212 C210 1.375 . S
N212 C211 1.347 . S
C213 C216 1.365 . S
C213 N218 1.328 . S
C213 H219 0.929 . S
C214 C215 1.362 . S
C214 C217 1.378 . S
C214 H229 0.929 . S
C215 C214 1.362 . S
C215 C216 1.366 . S
C216 C213 1.365 . S
C216 C215 1.366 . S
C216 H230 0.930 . S
C217 C214 1.378 . S
C217 N218 1.315 . S
C217 H220 0.930 . S
N218 Co198 2.194 . S
N218 C213 1.328 . S
N218 C217 1.315 . S
H219 C213 0.929 . S
H220 C217 0.930 . S
H221 C209 0.929 . S
H222 C211 0.929 . S
O223 Co198 2.351 . S
O223 C226 1.244 . S
O224 Co198 2.155 . S
O224 C226 1.240 . S
O225 Co198 2.096 . S
O225 C206 1.247 . S
C226 O223 1.244 . S
C226 O224 1.240 . S
H227 C201 0.931 . S
H228 C210 0.931 . S
H229 C214 0.929 . S
H230 C216 0.930 . S
Co231 N235 2.148 . S
Co231 N241 2.128 . S
Co231 N251 2.194 . S
Co231 O256 2.351 . S
Co231 O257 2.155 . S
Co231 O258 2.096 . S
C232 N235 1.301 . S
C232 N236 1.328 . S
C232 H237 0.930 . S
C233 C234 1.333 . S
C233 N235 1.317 . S
C233 H238 0.930 . S
C234 C233 1.333 . S
C234 N236 1.350 . S
C234 H260 0.931 . S
N235 Co231 2.148 . S
N235 C232 1.301 . S
N235 C233 1.317 . S
N236 C232 1.328 . S
N236 C234 1.350 . S
H237 C232 0.930 . S
H238 C233 0.930 . S
C239 O240 1.224 . S
C239 O258 1.247 . S
O240 C239 1.224 . S
N241 Co231 2.128 . S
N241 C242 1.355 . S
N241 C244 1.311 . S
C242 N241 1.355 . S
C242 C243 1.363 . S
C242 H254 0.929 . S
C243 C242 1.363 . S
C243 N245 1.375 . S
C243 H261 0.931 . S
C244 N241 1.311 . S
C244 N245 1.347 . S
C244 H255 0.929 . S
N245 C243 1.375 . S
N245 C244 1.347 . S
C246 C249 1.365 . S
C246 N251 1.328 . S
C246 H252 0.929 . S
C247 C248 1.362 . S
C247 C250 1.378 . S
C247 H262 0.929 . S
C248 C247 1.362 . S
C248 C249 1.366 . S
C249 C246 1.365 . S
C249 C248 1.366 . S
C249 H263 0.930 . S
C250 C247 1.378 . S
C250 N251 1.315 . S
C250 H253 0.930 . S
N251 Co231 2.194 . S
N251 C246 1.328 . S
N251 C250 1.315 . S
H252 C246 0.929 . S
H253 C250 0.930 . S
H254 C242 0.929 . S
H255 C244 0.929 . S
O256 Co231 2.351 . S
O256 C259 1.244 . S
O257 Co231 2.155 . S
O257 C259 1.240 . S
O258 Co231 2.096 . S
O258 C239 1.247 . S
C259 O256 1.244 . S
C259 O257 1.240 . S
H260 C234 0.931 . S
H261 C243 0.931 . S
H262 C247 0.929 . S
H263 C249 0.930 . S
Co264 N268 2.148 . S
Co264 N274 2.128 . S
Co264 N284 2.194 . S
Co264 O289 2.351 . S
Co264 O290 2.155 . S
Co264 O291 2.096 . S
C265 N268 1.301 . S
C265 N269 1.328 . S
C265 H270 0.930 . S
C266 C267 1.333 . S
C266 N268 1.317 . S
C266 H271 0.930 . S
C267 C266 1.333 . S
C267 N269 1.350 . S
C267 H293 0.931 . S
N268 Co264 2.148 . S
N268 C265 1.301 . S
N268 C266 1.317 . S
N269 C265 1.328 . S
N269 C267 1.350 . S
H270 C265 0.930 . S
H271 C266 0.930 . S
C272 O273 1.224 . S
C272 O291 1.247 . S
O273 C272 1.224 . S
N274 Co264 2.128 . S
N274 C275 1.355 . S
N274 C277 1.311 . S
C275 N274 1.355 . S
C275 C276 1.363 . S
C275 H287 0.929 . S
C276 C275 1.363 . S
C276 N278 1.375 . S
C276 H294 0.931 . S
C277 N274 1.311 . S
C277 N278 1.347 . S
C277 H288 0.929 . S
N278 C276 1.375 . S
N278 C277 1.347 . S
C279 C282 1.365 . S
C279 N284 1.328 . S
C279 H285 0.929 . S
C280 C281 1.362 . S
C280 C283 1.378 . S
C280 H295 0.929 . S
C281 C280 1.362 . S
C281 C282 1.366 . S
C282 C279 1.365 . S
C282 C281 1.366 . S
C282 H296 0.930 . S
C283 C280 1.378 . S
C283 N284 1.315 . S
C283 H286 0.930 . S
N284 Co264 2.194 . S
N284 C279 1.328 . S
N284 C283 1.315 . S
H285 C279 0.929 . S
H286 C283 0.930 . S
H287 C275 0.929 . S
H288 C277 0.929 . S
O289 Co264 2.351 . S
O289 C292 1.244 . S
O290 Co264 2.155 . S
O290 C292 1.240 . S
O291 Co264 2.096 . S
O291 C272 1.247 . S
C292 O289 1.244 . S
C292 O290 1.240 . S
H293 C267 0.931 . S
H294 C276 0.931 . S
H295 C280 0.929 . S
H296 C282 0.930 . S
Co297 N301 2.148 . S
Co297 N307 2.128 . S
Co297 N317 2.194 . S
Co297 O322 2.351 . S
Co297 O323 2.155 . S
Co297 O324 2.096 . S
C298 N301 1.301 . S
C298 N302 1.328 . S
C298 H303 0.930 . S
C299 C300 1.333 . S
C299 N301 1.317 . S
C299 H304 0.930 . S
C300 C299 1.333 . S
C300 N302 1.350 . S
C300 H326 0.931 . S
N301 Co297 2.148 . S
N301 C298 1.301 . S
N301 C299 1.317 . S
N302 C298 1.328 . S
N302 C300 1.350 . S
H303 C298 0.930 . S
H304 C299 0.930 . S
C305 O306 1.224 . S
C305 O324 1.247 . S
O306 C305 1.224 . S
N307 Co297 2.128 . S
N307 C308 1.355 . S
N307 C310 1.311 . S
C308 N307 1.355 . S
C308 C309 1.363 . S
C308 H320 0.929 . S
C309 C308 1.363 . S
C309 N311 1.375 . S
C309 H327 0.931 . S
C310 N307 1.311 . S
C310 N311 1.347 . S
C310 H321 0.929 . S
N311 C309 1.375 . S
N311 C310 1.347 . S
C312 C315 1.365 . S
C312 N317 1.328 . S
C312 H318 0.929 . S
C313 C314 1.362 . S
C313 C316 1.378 . S
C313 H328 0.929 . S
C314 C313 1.362 . S
C314 C315 1.366 . S
C315 C312 1.365 . S
C315 C314 1.366 . S
C315 H329 0.930 . S
C316 C313 1.378 . S
C316 N317 1.315 . S
C316 H319 0.930 . S
N317 Co297 2.194 . S
N317 C312 1.328 . S
N317 C316 1.315 . S
H318 C312 0.929 . S
H319 C316 0.930 . S
H320 C308 0.929 . S
H321 C310 0.929 . S
O322 Co297 2.351 . S
O322 C325 1.244 . S
O323 Co297 2.155 . S
O323 C325 1.240 . S
O324 Co297 2.096 . S
O324 C305 1.247 . S
C325 O322 1.244 . S
C325 O323 1.240 . S
H326 C300 0.931 . S
H327 C309 0.931 . S
H328 C313 0.929 . S
H329 C315 0.930 . S
Co330 N334 2.148 . S
Co330 N340 2.128 . S
Co330 N350 2.194 . S
Co330 O355 2.351 . S
Co330 O356 2.155 . S
Co330 O357 2.096 . S
C331 N334 1.301 . S
C331 N335 1.328 . S
C331 H336 0.930 . S
C332 C333 1.333 . S
C332 N334 1.317 . S
C332 H337 0.930 . S
C333 C332 1.333 . S
C333 N335 1.350 . S
C333 H359 0.931 . S
N334 Co330 2.148 . S
N334 C331 1.301 . S
N334 C332 1.317 . S
N335 C331 1.328 . S
N335 C333 1.350 . S
H336 C331 0.930 . S
H337 C332 0.930 . S
C338 O339 1.224 . S
C338 O357 1.247 . S
O339 C338 1.224 . S
N340 Co330 2.128 . S
N340 C341 1.355 . S
N340 C343 1.311 . S
C341 N340 1.355 . S
C341 C342 1.363 . S
C341 H353 0.929 . S
C342 C341 1.363 . S
C342 N344 1.375 . S
C342 H360 0.931 . S
C343 N340 1.311 . S
C343 N344 1.347 . S
C343 H354 0.929 . S
N344 C342 1.375 . S
N344 C343 1.347 . S
C345 C348 1.365 . S
C345 N350 1.328 . S
C345 H351 0.929 . S
C346 C347 1.362 . S
C346 C349 1.378 . S
C346 H361 0.929 . S
C347 C346 1.362 . S
C347 C348 1.366 . S
C348 C345 1.365 . S
C348 C347 1.366 . S
C348 H362 0.930 . S
C349 C346 1.378 . S
C349 N350 1.315 . S
C349 H352 0.930 . S
N350 Co330 2.194 . S
N350 C345 1.328 . S
N350 C349 1.315 . S
H351 C345 0.929 . S
H352 C349 0.930 . S
H353 C341 0.929 . S
H354 C343 0.929 . S
O355 Co330 2.351 . S
O355 C358 1.244 . S
O356 Co330 2.155 . S
O356 C358 1.240 . S
O357 Co330 2.096 . S
O357 C338 1.247 . S
C358 O355 1.244 . S
C358 O356 1.240 . S
H359 C333 0.931 . S
H360 C342 0.931 . S
H361 C346 0.929 . S
H362 C348 0.930 . S
Co363 N367 2.148 . S
Co363 N373 2.128 . S
Co363 N383 2.194 . S
Co363 O388 2.351 . S
Co363 O389 2.155 . S
Co363 O390 2.096 . S
C364 N367 1.301 . S
C364 N368 1.328 . S
C364 H369 0.930 . S
C365 C366 1.333 . S
C365 N367 1.317 . S
C365 H370 0.930 . S
C366 C365 1.333 . S
C366 N368 1.350 . S
C366 H392 0.931 . S
N367 Co363 2.148 . S
N367 C364 1.301 . S
N367 C365 1.317 . S
N368 C364 1.328 . S
N368 C366 1.350 . S
H369 C364 0.930 . S
H370 C365 0.930 . S
C371 O372 1.224 . S
C371 O390 1.247 . S
O372 C371 1.224 . S
N373 Co363 2.128 . S
N373 C374 1.355 . S
N373 C376 1.311 . S
C374 N373 1.355 . S
C374 C375 1.363 . S
C374 H386 0.929 . S
C375 C374 1.363 . S
C375 N377 1.375 . S
C375 H393 0.931 . S
C376 N373 1.311 . S
C376 N377 1.347 . S
C376 H387 0.929 . S
N377 C375 1.375 . S
N377 C376 1.347 . S
C378 C381 1.365 . S
C378 N383 1.328 . S
C378 H384 0.929 . S
C379 C380 1.362 . S
C379 C382 1.378 . S
C379 H394 0.929 . S
C380 C379 1.362 . S
C380 C381 1.366 . S
C381 C378 1.365 . S
C381 C380 1.366 . S
C381 H395 0.930 . S
C382 C379 1.378 . S
C382 N383 1.315 . S
C382 H385 0.930 . S
N383 Co363 2.194 . S
N383 C378 1.328 . S
N383 C382 1.315 . S
H384 C378 0.929 . S
H385 C382 0.930 . S
H386 C374 0.929 . S
H387 C376 0.929 . S
O388 Co363 2.351 . S
O388 C391 1.244 . S
O389 Co363 2.155 . S
O389 C391 1.240 . S
O390 Co363 2.096 . S
O390 C371 1.247 . S
C391 O388 1.244 . S
C391 O389 1.240 . S
H392 C366 0.931 . S
H393 C375 0.931 . S
H394 C379 0.929 . S
H395 C381 0.930 . S
H396 C414 0.951 . S
H397 C416 0.951 . S
H398 C418 0.950 . S
H399 C419 0.950 . S
H400 C421 0.950 . S
H401 C424 0.950 . S
H402 C425 0.950 . S
H403 C427 0.950 . S
H404 C428 0.950 . S
H405 C429 0.951 . S
H406 C431 0.951 . S
H407 C433 0.950 . S
H408 C434 0.950 . S
H409 C436 0.950 1_556 S
H410 C439 0.950 . S
H411 C440 0.950 . S
H412 C442 0.950 . S
H413 C443 0.950 . S
C414 H396 0.951 . S
C414 C415 1.366 . S
C414 C416 1.388 . S
C415 C414 1.366 . S
C415 C419 1.385 . S
C416 H397 0.951 . S
C416 C414 1.388 . S
C416 C417 1.366 . S
C417 C416 1.366 . S
C417 C418 1.414 . S
C417 C420 1.499 . S
C418 H398 0.950 . S
C418 C417 1.414 . S
C418 C419 1.374 . S
C419 H399 0.950 . S
C419 C415 1.385 . S
C419 C418 1.374 . S
C420 C417 1.499 . S
C420 C421 1.373 1_545 S
C420 C422 1.389 . S
C421 H400 0.950 . S
C421 C420 1.373 1_565 S
C421 C437 1.377 . S
C422 C420 1.389 . S
C422 C423 1.524 1_554 S
C422 C436 1.377 . S
C423 C422 1.524 1_556 S
C423 C424 1.397 . S
C423 C428 1.363 . S
C424 H401 0.950 . S
C424 C423 1.397 . S
C424 C425 1.334 . S
C425 H402 0.950 . S
C425 C424 1.334 . S
C425 C426 1.287 . S
C426 C425 1.287 . S
C426 C427 1.524 . S
C426 H445 0.913 . S
C427 H403 0.950 . S
C427 C426 1.524 . S
C427 C428 1.415 . S
C428 H404 0.950 . S
C428 C423 1.363 . S
C428 C427 1.415 . S
C429 H405 0.951 . S
C429 C430 1.366 . S
C429 C431 1.388 . S
C430 C429 1.366 . S
C430 C434 1.385 . S
C431 H406 0.951 . S
C431 C429 1.388 . S
C431 C432 1.366 . S
C432 C431 1.366 . S
C432 C433 1.414 . S
C432 C435 1.499 . S
C433 H407 0.950 . S
C433 C432 1.414 . S
C433 C434 1.374 . S
C434 H408 0.950 . S
C434 C430 1.385 . S
C434 C433 1.374 . S
C435 C432 1.499 . S
C435 C436 1.373 1_565 S
C435 C437 1.389 . S
C436 H409 0.950 1_554 S
C436 C422 1.377 . S
C436 C435 1.373 1_545 S
C437 C421 1.377 . S
C437 C435 1.389 . S
C437 C438 1.524 . S
C438 C437 1.524 . S
C438 C439 1.397 . S
C438 C443 1.363 . S
C439 H410 0.950 . S
C439 C438 1.397 . S
C439 C440 1.334 . S
C440 H411 0.950 . S
C440 C439 1.334 . S
C440 C441 1.287 . S
C441 C440 1.287 . S
C441 C442 1.524 . S
C441 H444 0.999 . S
C442 H412 0.950 . S
C442 C441 1.524 . S
C442 C443 1.415 . S
C443 H413 0.950 . S
C443 C438 1.363 . S
C443 C442 1.415 . S
H444 C441 0.999 . S
H445 C426 0.913 . S
H446 C464 0.951 . S
H447 C466 0.951 . S
H448 C468 0.950 . S
H449 C469 0.950 . S
H450 C471 0.950 1_556 S
H451 C474 0.950 . S
H452 C475 0.950 . S
H453 C477 0.950 . S
H454 C478 0.950 . S
H455 C479 0.951 . S
H456 C481 0.951 . S
H457 C483 0.950 . S
H458 C484 0.950 . S
H459 C486 0.950 . S
H460 C489 0.950 . S
H461 C490 0.950 . S
H462 C492 0.950 . S
H463 C493 0.950 . S
C464 H446 0.951 . S
C464 C465 1.366 . S
C464 C466 1.388 . S
C465 C464 1.366 . S
C465 C469 1.385 . S
C466 H447 0.951 . S
C466 C464 1.388 . S
C466 C467 1.366 . S
C467 C466 1.366 . S
C467 C468 1.414 . S
C467 C470 1.499 . S
C468 H448 0.950 . S
C468 C467 1.414 . S
C468 C469 1.374 . S
C469 H449 0.950 . S
C469 C465 1.385 . S
C469 C468 1.374 . S
C470 C467 1.499 . S
C470 C471 1.373 . S
C470 C472 1.389 . S
C471 H450 0.950 1_554 S
C471 C470 1.373 . S
C471 C487 1.377 . S
C472 C470 1.389 . S
C472 C473 1.524 . S
C472 C486 1.377 . S
C473 C472 1.524 . S
C473 C474 1.397 . S
C473 C478 1.363 . S
C474 H451 0.950 . S
C474 C473 1.397 . S
C474 C475 1.334 . S
C475 H452 0.950 . S
C475 C474 1.334 . S
C475 C476 1.287 . S
C476 C475 1.287 . S
C476 C477 1.524 . S
C476 H495 0.913 . S
C477 H453 0.950 . S
C477 C476 1.524 . S
C477 C478 1.415 . S
C478 H454 0.950 . S
C478 C473 1.363 . S
C478 C477 1.415 . S
C479 H455 0.951 . S
C479 C480 1.366 . S
C479 C481 1.388 . S
C480 C479 1.366 . S
C480 C484 1.385 . S
C481 H456 0.951 . S
C481 C479 1.388 . S
C481 C482 1.366 . S
C482 C481 1.366 . S
C482 C483 1.414 . S
C482 C485 1.499 . S
C483 H457 0.950 . S
C483 C482 1.414 . S
C483 C484 1.374 . S
C484 H458 0.950 . S
C484 C480 1.385 . S
C484 C483 1.374 . S
C485 C482 1.499 . S
C485 C486 1.373 . S
C485 C487 1.389 . S
C486 H459 0.950 . S
C486 C472 1.377 . S
C486 C485 1.373 . S
C487 C471 1.377 . S
C487 C485 1.389 . S
C487 C488 1.524 1_554 S
C488 C487 1.524 1_556 S
C488 C489 1.397 . S
C488 C493 1.363 . S
C489 H460 0.950 . S
C489 C488 1.397 . S
C489 C490 1.334 . S
C490 H461 0.950 . S
C490 C489 1.334 . S
C490 C491 1.287 . S
C491 C490 1.287 . S
C491 C492 1.524 . S
C491 H494 0.999 . S
C492 H462 0.950 . S
C492 C491 1.524 . S
C492 C493 1.415 . S
C493 H463 0.950 . S
C493 C488 1.363 . S
C493 C492 1.415 . S
H494 C491 0.999 . S
H495 C476 0.913 . S
H496 C514 0.951 . S
H497 C516 0.951 . S
H498 C518 0.950 . S
H499 C519 0.950 . S
H500 C521 0.950 . S
H501 C524 0.950 1_455 S
H502 C525 0.950 . S
H503 C527 0.950 . S
H504 C528 0.950 . S
H505 C529 0.951 . S
H506 C531 0.951 . S
H507 C533 0.950 . S
H508 C534 0.950 . S
H509 C536 0.950 . S
H510 C539 0.950 1_655 S
H511 C540 0.950 . S
H512 C542 0.950 . S
H513 C543 0.950 . S
C514 H496 0.951 . S
C514 C515 1.366 . S
C514 C516 1.388 . S
C515 C514 1.366 . S
C515 C519 1.385 . S
C516 H497 0.951 . S
C516 C514 1.388 . S
C516 C517 1.366 . S
C517 C516 1.366 . S
C517 C518 1.414 . S
C517 C520 1.499 . S
C518 H498 0.950 . S
C518 C517 1.414 . S
C518 C519 1.374 . S
C519 H499 0.950 . S
C519 C515 1.385 . S
C519 C518 1.374 . S
C520 C517 1.499 . S
C520 C521 1.373 . S
C520 C522 1.389 1_455 S
C521 H500 0.950 . S
C521 C520 1.373 . S
C521 C537 1.377 . S
C522 C520 1.389 1_655 S
C522 C523 1.524 . S
C522 C536 1.377 . S
C523 C522 1.524 . S
C523 C524 1.397 . S
C523 C528 1.363 . S
C524 H501 0.950 1_655 S
C524 C523 1.397 . S
C524 C525 1.334 . S
C525 H502 0.950 . S
C525 C524 1.334 . S
C525 C526 1.287 . S
C526 C525 1.287 . S
C526 C527 1.524 . S
C526 H545 0.913 . S
C527 H503 0.950 . S
C527 C526 1.524 . S
C527 C528 1.415 . S
C528 H504 0.950 . S
C528 C523 1.363 . S
C528 C527 1.415 . S
C529 H505 0.951 . S
C529 C530 1.366 . S
C529 C531 1.388 . S
C530 C529 1.366 . S
C530 C534 1.385 . S
C531 H506 0.951 . S
C531 C529 1.388 . S
C531 C532 1.366 . S
C532 C531 1.366 . S
C532 C533 1.414 . S
C532 C535 1.499 . S
C533 H507 0.950 . S
C533 C532 1.414 . S
C533 C534 1.374 . S
C534 H508 0.950 . S
C534 C530 1.385 . S
C534 C533 1.374 . S
C535 C532 1.499 . S
C535 C536 1.373 . S
C535 C537 1.389 1_655 S
C536 H509 0.950 . S
C536 C522 1.377 . S
C536 C535 1.373 . S
C537 C521 1.377 . S
C537 C535 1.389 1_455 S
C537 C538 1.524 1_554 S
C538 C537 1.524 1_556 S
C538 C539 1.397 . S
C538 C543 1.363 1_556 S
C539 H510 0.950 1_455 S
C539 C538 1.397 . S
C539 C540 1.334 . S
C540 H511 0.950 . S
C540 C539 1.334 . S
C540 C541 1.287 . S
C541 C540 1.287 . S
C541 C542 1.524 . S
C541 H544 0.999 . S
C542 H512 0.950 . S
C542 C541 1.524 . S
C542 C543 1.415 1_556 S
C543 H513 0.950 . S
C543 C538 1.363 1_554 S
C543 C542 1.415 1_554 S
H544 C541 0.999 . S
H545 C526 0.913 . S
H546 C564 0.951 . S
H547 C566 0.951 . S
H548 C568 0.950 . S
H549 C569 0.950 . S
H550 C571 0.950 . S
H551 C574 0.950 . S
H552 C575 0.950 . S
H553 C577 0.950 . S
H554 C578 0.950 . S
H555 C579 0.951 . S
H556 C581 0.951 . S
H557 C583 0.950 . S
H558 C584 0.950 . S
H559 C586 0.950 . S
H560 C589 0.950 . S
H561 C590 0.950 . S
H562 C592 0.950 . S
H563 C593 0.950 . S
C564 H546 0.951 . S
C564 C565 1.366 . S
C564 C566 1.388 . S
C565 C564 1.366 . S
C565 C569 1.385 . S
C566 H547 0.951 . S
C566 C564 1.388 . S
C566 C567 1.366 . S
C567 C566 1.366 . S
C567 C568 1.414 . S
C567 C570 1.499 . S
C568 H548 0.950 . S
C568 C567 1.414 . S
C568 C569 1.374 . S
C569 H549 0.950 . S
C569 C565 1.385 . S
C569 C568 1.374 . S
C570 C567 1.499 . S
C570 C571 1.373 . S
C570 C572 1.389 . S
C571 H550 0.950 . S
C571 C570 1.373 . S
C571 C587 1.377 1_455 S
C572 C570 1.389 . S
C572 C573 1.524 . S
C572 C586 1.377 1_455 S
C573 C572 1.524 . S
C573 C574 1.397 . S
C573 C578 1.363 . S
C574 H551 0.950 . S
C574 C573 1.397 . S
C574 C575 1.334 . S
C575 H552 0.950 . S
C575 C574 1.334 . S
C575 C576 1.287 . S
C576 C575 1.287 . S
C576 C577 1.524 . S
C576 H595 0.913 . S
C577 H553 0.950 . S
C577 C576 1.524 . S
C577 C578 1.415 . S
C578 H554 0.950 . S
C578 C573 1.363 . S
C578 C577 1.415 . S
C579 H555 0.951 . S
C579 C580 1.366 . S
C579 C581 1.388 . S
C580 C579 1.366 . S
C580 C584 1.385 . S
C581 H556 0.951 . S
C581 C579 1.388 . S
C581 C582 1.366 . S
C582 C581 1.366 . S
C582 C583 1.414 . S
C582 C585 1.499 . S
C583 H557 0.950 . S
C583 C582 1.414 . S
C583 C584 1.374 . S
C584 H558 0.950 . S
C584 C580 1.385 . S
C584 C583 1.374 . S
C585 C582 1.499 . S
C585 C586 1.373 . S
C585 C587 1.389 . S
C586 H559 0.950 . S
C586 C572 1.377 1_655 S
C586 C585 1.373 . S
C587 C571 1.377 1_655 S
C587 C585 1.389 . S
C587 C588 1.524 . S
C588 C587 1.524 . S
C588 C589 1.397 . S
C588 C593 1.363 . S
C589 H560 0.950 . S
C589 C588 1.397 . S
C589 C590 1.334 . S
C590 H561 0.950 . S
C590 C589 1.334 . S
C590 C591 1.287 . S
C591 C590 1.287 . S
C591 C592 1.524 . S
C591 H594 0.999 . S
C592 H562 0.950 . S
C592 C591 1.524 . S
C592 C593 1.415 . S
C593 H563 0.950 . S
C593 C588 1.363 . S
C593 C592 1.415 . S
H594 C591 0.999 . S
H595 C576 0.913 . S
H596 C614 0.951 . S
H597 C616 0.951 . S
H598 C618 0.950 . S
H599 C619 0.950 . S
H600 C621 0.950 . S
H601 C624 0.950 . S
H602 C625 0.950 . S
H603 C627 0.950 . S
H604 C628 0.950 . S
H605 C629 0.951 . S
H606 C631 0.951 . S
H607 C633 0.950 . S
H608 C634 0.950 . S
H609 C636 0.950 . S
H610 C639 0.950 . S
H611 C640 0.950 . S
H612 C642 0.950 . S
H613 C643 0.950 . S
C614 H596 0.951 . S
C614 C615 1.366 . S
C614 C616 1.388 . S
C615 C614 1.366 . S
C615 C619 1.385 . S
C616 H597 0.951 . S
C616 C614 1.388 . S
C616 C617 1.366 . S
C617 C616 1.366 . S
C617 C618 1.414 . S
C617 C620 1.499 . S
C618 H598 0.950 . S
C618 C617 1.414 . S
C618 C619 1.374 . S
C619 H599 0.950 . S
C619 C615 1.385 . S
C619 C618 1.374 . S
C620 C617 1.499 . S
C620 C621 1.373 . S
C620 C622 1.389 1_545 S
C621 H600 0.950 . S
C621 C620 1.373 . S
C621 C637 1.377 . S
C622 C620 1.389 1_565 S
C622 C623 1.524 . S
C622 C636 1.377 . S
C623 C622 1.524 . S
C623 C624 1.397 1_565 S
C623 C628 1.363 . S
C624 H601 0.950 . S
C624 C623 1.397 1_545 S
C624 C625 1.334 . S
C625 H602 0.950 . S
C625 C624 1.334 . S
C625 C626 1.287 1_545 S
C626 C625 1.287 1_565 S
C626 C627 1.524 . S
C626 H645 0.913 . S
C627 H603 0.950 . S
C627 C626 1.524 . S
C627 C628 1.415 . S
C628 H604 0.950 . S
C628 C623 1.363 . S
C628 C627 1.415 . S
C629 H605 0.951 . S
C629 C630 1.366 . S
C629 C631 1.388 . S
C630 C629 1.366 . S
C630 C634 1.385 . S
C631 H606 0.951 . S
C631 C629 1.388 . S
C631 C632 1.366 . S
C632 C631 1.366 . S
C632 C633 1.414 . S
C632 C635 1.499 . S
C633 H607 0.950 . S
C633 C632 1.414 . S
C633 C634 1.374 . S
C634 H608 0.950 . S
C634 C630 1.385 . S
C634 C633 1.374 . S
C635 C632 1.499 . S
C635 C636 1.373 . S
C635 C637 1.389 1_565 S
C636 H609 0.950 . S
C636 C622 1.377 . S
C636 C635 1.373 . S
C637 C621 1.377 . S
C637 C635 1.389 1_545 S
C637 C638 1.524 . S
C638 C637 1.524 . S
C638 C639 1.397 1_545 S
C638 C643 1.363 . S
C639 H610 0.950 . S
C639 C638 1.397 1_565 S
C639 C640 1.334 . S
C640 H611 0.950 . S
C640 C639 1.334 . S
C640 C641 1.287 1_565 S
C641 C640 1.287 1_545 S
C641 C642 1.524 . S
C641 H644 0.999 . S
C642 H612 0.950 . S
C642 C641 1.524 . S
C642 C643 1.415 . S
C643 H613 0.950 . S
C643 C638 1.363 . S
C643 C642 1.415 . S
H644 C641 0.999 . S
H645 C626 0.913 . S
H646 C664 0.951 . S
H647 C666 0.951 . S
H648 C668 0.950 . S
H649 C669 0.950 . S
H650 C671 0.950 . S
H651 C674 0.950 . S
H652 C675 0.950 . S
H653 C677 0.950 . S
H654 C678 0.950 . S
H655 C679 0.951 . S
H656 C681 0.951 . S
H657 C683 0.950 . S
H658 C684 0.950 . S
H659 C686 0.950 . S
H660 C689 0.950 . S
H661 C690 0.950 . S
H662 C692 0.950 . S
H663 C693 0.950 . S
C664 H646 0.951 . S
C664 C665 1.366 . S
C664 C666 1.388 . S
C665 C664 1.366 . S
C665 C669 1.385 . S
C666 H647 0.951 . S
C666 C664 1.388 . S
C666 C667 1.366 . S
C667 C666 1.366 . S
C667 C668 1.414 . S
C667 C670 1.499 . S
C668 H648 0.950 . S
C668 C667 1.414 . S
C668 C669 1.374 . S
C669 H649 0.950 . S
C669 C665 1.385 . S
C669 C668 1.374 . S
C670 C667 1.499 . S
C670 C671 1.373 . S
C670 C672 1.389 . S
C671 H650 0.950 . S
C671 C670 1.373 . S
C671 C687 1.377 . S
C672 C670 1.389 . S
C672 C673 1.524 . S
C672 C686 1.377 . S
C673 C672 1.524 . S
C673 C674 1.397 . S
C673 C678 1.363 . S
C674 H651 0.950 . S
C674 C673 1.397 . S
C674 C675 1.334 . S
C675 H652 0.950 . S
C675 C674 1.334 . S
C675 C676 1.287 . S
C676 C675 1.287 . S
C676 C677 1.524 . S
C676 H695 0.913 . S
C677 H653 0.950 . S
C677 C676 1.524 . S
C677 C678 1.415 . S
C678 H654 0.950 . S
C678 C673 1.363 . S
C678 C677 1.415 . S
C679 H655 0.951 . S
C679 C680 1.366 . S
C679 C681 1.388 . S
C680 C679 1.366 . S
C680 C684 1.385 . S
C681 H656 0.951 . S
C681 C679 1.388 . S
C681 C682 1.366 . S
C682 C681 1.366 . S
C682 C683 1.414 . S
C682 C685 1.499 . S
C683 H657 0.950 . S
C683 C682 1.414 . S
C683 C684 1.374 . S
C684 H658 0.950 . S
C684 C680 1.385 . S
C684 C683 1.374 . S
C685 C682 1.499 . S
C685 C686 1.373 . S
C685 C687 1.389 . S
C686 H659 0.950 . S
C686 C672 1.377 . S
C686 C685 1.373 . S
C687 C671 1.377 . S
C687 C685 1.389 . S
C687 C688 1.524 . S
C688 C687 1.524 . S
C688 C689 1.397 . S
C688 C693 1.363 . S
C689 H660 0.950 . S
C689 C688 1.397 . S
C689 C690 1.334 . S
C690 H661 0.950 . S
C690 C689 1.334 . S
C690 C691 1.287 . S
C691 C690 1.287 . S
C691 C692 1.524 . S
C691 H694 0.999 . S
C692 H662 0.950 . S
C692 C691 1.524 . S
C692 C693 1.415 . S
C693 H663 0.950 . S
C693 C688 1.363 . S
C693 C692 1.415 . S
H694 C691 0.999 . S
H695 C676 0.913 . S
H696 C714 0.951 . S
H697 C716 0.951 . S
H698 C718 0.950 . S
H699 C719 0.950 . S
H700 C721 0.950 . S
H701 C724 0.950 . S
H702 C725 0.950 1_545 S
H703 C727 0.950 . S
H704 C728 0.950 1_554 S
H705 C729 0.951 . S
H706 C731 0.951 . S
H707 C733 0.950 . S
H708 C734 0.950 . S
H709 C736 0.950 . S
H710 C739 0.950 . S
H711 C740 0.950 . S
H712 C742 0.950 . S
H713 C743 0.950 . S
C714 H696 0.951 . S
C714 C715 1.366 . S
C714 C716 1.388 . S
C715 C714 1.366 . S
C715 C719 1.385 . S
C716 H697 0.951 . S
C716 C714 1.388 . S
C716 C717 1.366 . S
C717 C716 1.366 . S
C717 C718 1.414 . S
C717 C720 1.499 1_545 S
C718 H698 0.950 . S
C718 C717 1.414 . S
C718 C719 1.374 . S
C719 H699 0.950 . S
C719 C715 1.385 . S
C719 C718 1.374 . S
C720 C717 1.499 1_565 S
C720 C721 1.373 . S
C720 C722 1.389 . S
C721 H700 0.950 . S
C721 C720 1.373 . S
C721 C737 1.377 . S
C722 C720 1.389 . S
C722 C723 1.524 1_554 S
C722 C736 1.377 . S
C723 C722 1.524 1_556 S
C723 C724 1.397 . S
C723 C728 1.363 . S
C724 H701 0.950 . S
C724 C723 1.397 . S
C724 C725 1.334 . S
C725 H702 0.950 1_565 S
C725 C724 1.334 . S
C725 C726 1.287 . S
C726 C725 1.287 . S
C726 C727 1.524 . S
C726 H745 0.913 . S
C727 H703 0.950 . S
C727 C726 1.524 . S
C727 C728 1.415 . S
C728 H704 0.950 1_556 S
C728 C723 1.363 . S
C728 C727 1.415 . S
C729 H705 0.951 . S
C729 C730 1.366 . S
C729 C731 1.388 . S
C730 C729 1.366 . S
C730 C734 1.385 . S
C731 H706 0.951 . S
C731 C729 1.388 . S
C731 C732 1.366 . S
C732 C731 1.366 . S
C732 C733 1.414 . S
C732 C735 1.499 . S
C733 H707 0.950 . S
C733 C732 1.414 . S
C733 C734 1.374 . S
C734 H708 0.950 . S
C734 C730 1.385 . S
C734 C733 1.374 . S
C735 C732 1.499 . S
C735 C736 1.373 . S
C735 C737 1.389 . S
C736 H709 0.950 . S
C736 C722 1.377 . S
C736 C735 1.373 . S
C737 C721 1.377 . S
C737 C735 1.389 . S
C737 C738 1.524 . S
C738 C737 1.524 . S
C738 C739 1.397 . S
C738 C743 1.363 . S
C739 H710 0.950 . S
C739 C738 1.397 . S
C739 C740 1.334 . S
C740 H711 0.950 . S
C740 C739 1.334 . S
C740 C741 1.287 . S
C741 C740 1.287 . S
C741 C742 1.524 . S
C741 H744 0.999 . S
C742 H712 0.950 . S
C742 C741 1.524 . S
C742 C743 1.415 . S
C743 H713 0.950 . S
C743 C738 1.363 . S
C743 C742 1.415 . S
H744 C741 0.999 . S
H745 C726 0.913 . S
H746 C764 0.951 . S
H747 C766 0.951 . S
H748 C768 0.950 . S
H749 C769 0.950 . S
H750 C771 0.950 . S
H751 C774 0.950 . S
H752 C775 0.950 . S
H753 C777 0.950 . S
H754 C778 0.962 . S
H755 C779 0.951 . S
H756 C781 0.951 . S
H757 C783 0.950 . S
H758 C784 0.950 . S
H759 C786 0.950 . S
H760 C789 0.950 . S
H761 C790 0.950 . S
H762 C792 0.950 . S
H763 C793 0.950 . S
C764 H746 0.951 . S
C764 C765 1.366 . S
C764 C766 1.388 . S
C765 C764 1.366 . S
C765 C769 1.385 . S
C766 H747 0.951 . S
C766 C764 1.388 . S
C766 C767 1.366 . S
C767 C766 1.366 . S
C767 C768 1.414 . S
C767 C770 1.499 . S
C768 H748 0.950 . S
C768 C767 1.414 . S
C768 C769 1.374 . S
C769 H749 0.950 . S
C769 C765 1.385 . S
C769 C768 1.374 . S
C770 C767 1.499 . S
C770 C771 1.373 . S
C770 C772 1.389 . S
C771 H750 0.950 . S
C771 C770 1.373 . S
C771 C787 1.377 . S
C772 C770 1.389 . S
C772 C773 1.524 1_554 S
C772 C786 1.377 . S
C773 C772 1.524 1_556 S
C773 C774 1.397 . S
C773 C778 1.360 1_556 S
C774 H751 0.950 . S
C774 C773 1.397 . S
C774 C775 1.334 . S
C775 H752 0.950 . S
C775 C774 1.334 . S
C775 C776 1.287 . S
C776 C775 1.287 . S
C776 C777 1.524 . S
C776 H795 0.913 . S
C777 H753 0.950 . S
C777 C776 1.524 . S
C777 C778 1.406 1_556 S
C778 H754 0.962 . S
C778 C773 1.360 1_554 S
C778 C777 1.406 1_554 S
C779 H755 0.951 . S
C779 C780 1.366 . S
C779 C781 1.388 . S
C780 C779 1.366 . S
C780 C784 1.385 . S
C781 H756 0.951 . S
C781 C779 1.388 . S
C781 C782 1.366 . S
C782 C781 1.366 . S
C782 C783 1.414 . S
C782 C785 1.499 . S
C783 H757 0.950 . S
C783 C782 1.414 . S
C783 C784 1.374 . S
C784 H758 0.950 . S
C784 C780 1.385 . S
C784 C783 1.374 . S
C785 C782 1.499 . S
C785 C786 1.373 . S
C785 C787 1.389 . S
C786 H759 0.950 . S
C786 C772 1.377 . S
C786 C785 1.373 . S
C787 C771 1.377 . S
C787 C785 1.389 . S
C787 C788 1.524 . S
C788 C787 1.524 . S
C788 C789 1.397 . S
C788 C793 1.363 . S
C789 H760 0.950 . S
C789 C788 1.397 . S
C789 C790 1.334 . S
C790 H761 0.950 . S
C790 C789 1.334 . S
C790 C791 1.287 . S
C791 C790 1.287 . S
C791 C792 1.524 . S
C791 H794 0.999 . S
C792 H762 0.950 . S
C792 C791 1.524 . S
C792 C793 1.415 . S
C793 H763 0.950 . S
C793 C788 1.363 . S
C793 C792 1.415 . S
H794 C791 0.999 . S
H795 C776 0.913 . S
H796 C814 0.951 . S
H797 C816 0.951 . S
H798 C818 0.950 . S
H799 C819 0.950 . S
H800 C821 0.950 1_556 S
H801 C824 0.950 . S
H802 C825 0.950 . S
H803 C827 0.950 . S
H804 C828 0.950 . S
H805 C829 0.951 1_556 S
H806 C831 0.951 1_556 S
H807 C833 0.950 . S
H808 C834 0.950 . S
H809 C836 0.950 . S
H810 C839 0.950 . S
H811 C840 0.950 . S
H812 C842 0.950 . S
H813 C843 0.950 . S
C814 H796 0.951 . S
C814 C815 1.366 . S
C814 C816 1.388 . S
C815 C814 1.366 . S
C815 C819 1.385 1_554 S
C816 H797 0.951 . S
C816 C814 1.388 . S
C816 C817 1.366 . S
C817 C816 1.366 . S
C817 C818 1.414 1_554 S
C817 C820 1.499 1_655 S
C818 H798 0.950 . S
C818 C817 1.414 1_556 S
C818 C819 1.374 . S
C819 H799 0.950 . S
C819 C815 1.385 1_556 S
C819 C818 1.374 . S
C820 C817 1.499 1_455 S
C820 C821 1.373 . S
C820 C822 1.389 . S
C821 H800 0.950 1_554 S
C821 C820 1.373 . S
C821 C837 1.377 . S
C822 C820 1.389 . S
C822 C823 1.524 . S
C822 C836 1.377 . S
C823 C822 1.524 . S
C823 C824 1.397 . S
C823 C828 1.363 . S
C824 H801 0.950 . S
C824 C823 1.397 . S
C824 C825 1.334 . S
C825 H802 0.950 . S
C825 C824 1.334 . S
C825 C826 1.287 . S
C826 C825 1.287 . S
C826 C827 1.524 . S
C826 H845 0.913 . S
C827 H803 0.950 . S
C827 C826 1.524 . S
C827 C828 1.415 . S
C828 H804 0.950 . S
C828 C823 1.363 . S
C828 C827 1.415 . S
C829 H805 0.951 1_554 S
C829 C830 1.366 . S
C829 C831 1.388 . S
C830 C829 1.366 . S
C830 C834 1.385 . S
C831 H806 0.951 1_554 S
C831 C829 1.388 . S
C831 C832 1.366 . S
C832 C831 1.366 . S
C832 C833 1.414 . S
C832 C835 1.499 . S
C833 H807 0.950 . S
C833 C832 1.414 . S
C833 C834 1.374 . S
C834 H808 0.950 . S
C834 C830 1.385 . S
C834 C833 1.374 . S
C835 C832 1.499 . S
C835 C836 1.373 . S
C835 C837 1.389 . S
C836 H809 0.950 . S
C836 C822 1.377 . S
C836 C835 1.373 . S
C837 C821 1.377 . S
C837 C835 1.389 . S
C837 C838 1.524 1_554 S
C838 C837 1.524 1_556 S
C838 C839 1.397 1_556 S
C838 C843 1.363 . S
C839 H810 0.950 . S
C839 C838 1.397 1_554 S
C839 C840 1.334 1_554 S
C840 H811 0.950 . S
C840 C839 1.334 1_556 S
C840 C841 1.287 . S
C841 C840 1.287 . S
C841 C842 1.524 . S
C841 H844 0.999 . S
C842 H812 0.950 . S
C842 C841 1.524 . S
C842 C843 1.415 . S
C843 H813 0.950 . S
C843 C838 1.363 . S
C843 C842 1.415 . S
H844 C841 0.999 . S
H845 C826 0.913 . S
H846 C864 0.951 1_556 S
H847 C866 0.951 1_556 S
H848 C868 0.950 . S
H849 C869 0.950 . S
H850 C871 0.950 . S
H851 C874 0.950 . S
H852 C875 0.950 . S
H853 C877 0.950 . S
H854 C878 0.950 . S
H855 C879 0.951 . S
H856 C881 0.951 . S
H857 C883 0.950 1_556 S
H858 C884 0.950 1_556 S
H859 C886 0.950 1_556 S
H860 C889 0.950 . S
H861 C890 0.950 . S
H862 C892 0.950 . S
H863 C893 0.950 . S
C864 H846 0.951 1_554 S
C864 C865 1.366 . S
C864 C866 1.388 . S
C865 C864 1.366 . S
C865 C869 1.385 . S
C866 H847 0.951 1_554 S
C866 C864 1.388 . S
C866 C867 1.366 . S
C867 C866 1.366 . S
C867 C868 1.414 . S
C867 C870 1.499 . S
C868 H848 0.950 . S
C868 C867 1.414 . S
C868 C869 1.374 . S
C869 H849 0.950 . S
C869 C865 1.385 . S
C869 C868 1.374 . S
C870 C867 1.499 . S
C870 C871 1.373 . S
C870 C872 1.389 . S
C871 H850 0.950 . S
C871 C870 1.373 . S
C871 C887 1.377 . S
C872 C870 1.389 . S
C872 C873 1.524 1_554 S
C872 C886 1.377 . S
C873 C872 1.524 1_556 S
C873 C874 1.397 . S
C873 C878 1.363 . S
C874 H851 0.950 . S
C874 C873 1.397 . S
C874 C875 1.334 . S
C875 H852 0.950 . S
C875 C874 1.334 . S
C875 C876 1.287 . S
C876 C875 1.287 . S
C876 C877 1.524 . S
C876 H895 0.913 . S
C877 H853 0.950 . S
C877 C876 1.524 . S
C877 C878 1.415 . S
C878 H854 0.950 . S
C878 C873 1.363 . S
C878 C877 1.415 . S
C879 H855 0.951 . S
C879 C880 1.366 . S
C879 C881 1.388 . S
C880 C879 1.366 . S
C880 C884 1.385 . S
C881 H856 0.951 . S
C881 C879 1.388 . S
C881 C882 1.366 . S
C882 C881 1.366 . S
C882 C883 1.414 . S
C882 C885 1.499 1_565 S
C883 H857 0.950 1_554 S
C883 C882 1.414 . S
C883 C884 1.374 . S
C884 H858 0.950 1_554 S
C884 C880 1.385 . S
C884 C883 1.374 . S
C885 C882 1.499 1_545 S
C885 C886 1.373 . S
C885 C887 1.389 . S
C886 H859 0.950 1_554 S
C886 C872 1.377 . S
C886 C885 1.373 . S
C887 C871 1.377 . S
C887 C885 1.389 . S
C887 C888 1.524 . S
C888 C887 1.524 . S
C888 C889 1.397 1_545 S
C888 C893 1.363 . S
C889 H860 0.950 . S
C889 C888 1.397 1_565 S
C889 C890 1.334 . S
C890 H861 0.950 . S
C890 C889 1.334 . S
C890 C891 1.287 . S
C891 C890 1.287 . S
C891 C892 1.524 1_565 S
C891 H894 0.999 . S
C892 H862 0.950 . S
C892 C891 1.524 1_545 S
C892 C893 1.415 . S
C893 H863 0.950 . S
C893 C888 1.363 . S
C893 C892 1.415 . S
H894 C891 0.999 . S
H895 C876 0.913 . S
H896 C914 0.951 . S
H897 C916 0.951 . S
H898 C918 0.950 . S
H899 C919 0.950 . S
H900 C921 0.950 . S
H901 C924 0.950 . S
H902 C925 0.950 . S
H903 C927 0.950 . S
H904 C928 0.950 . S
H905 C929 0.951 . S
H906 C931 0.951 . S
H907 C933 0.950 . S
H908 C934 0.950 . S
H909 C936 0.950 1_556 S
H910 C939 0.950 . S
H911 C940 0.950 . S
H912 C942 0.950 . S
H913 C943 0.950 . S
C914 H896 0.951 . S
C914 C915 1.366 . S
C914 C916 1.388 . S
C915 C914 1.366 . S
C915 C919 1.385 . S
C916 H897 0.951 . S
C916 C914 1.388 . S
C916 C917 1.366 . S
C917 C916 1.366 . S
C917 C918 1.414 . S
C917 C920 1.499 . S
C918 H898 0.950 . S
C918 C917 1.414 . S
C918 C919 1.374 . S
C919 H899 0.950 . S
C919 C915 1.385 . S
C919 C918 1.374 . S
C920 C917 1.499 . S
C920 C921 1.373 . S
C920 C922 1.389 . S
C921 H900 0.950 . S
C921 C920 1.373 . S
C921 C937 1.377 . S
C922 C920 1.389 . S
C922 C923 1.524 1_554 S
C922 C936 1.377 . S
C923 C922 1.524 1_556 S
C923 C924 1.397 . S
C923 C928 1.363 . S
C924 H901 0.950 . S
C924 C923 1.397 . S
C924 C925 1.334 . S
C925 H902 0.950 . S
C925 C924 1.334 . S
C925 C926 1.287 . S
C926 C925 1.287 . S
C926 C927 1.524 . S
C926 H945 0.913 . S
C927 H903 0.950 . S
C927 C926 1.524 . S
C927 C928 1.415 . S
C928 H904 0.950 . S
C928 C923 1.363 . S
C928 C927 1.415 . S
C929 H905 0.951 . S
C929 C930 1.366 . S
C929 C931 1.388 . S
C930 C929 1.366 . S
C930 C934 1.385 . S
C931 H906 0.951 . S
C931 C929 1.388 . S
C931 C932 1.366 . S
C932 C931 1.366 . S
C932 C933 1.414 . S
C932 C935 1.499 . S
C933 H907 0.950 . S
C933 C932 1.414 . S
C933 C934 1.374 . S
C934 H908 0.950 . S
C934 C930 1.385 . S
C934 C933 1.374 . S
C935 C932 1.499 . S
C935 C936 1.373 . S
C935 C937 1.389 . S
C936 H909 0.950 1_554 S
C936 C922 1.377 . S
C936 C935 1.373 . S
C937 C921 1.377 . S
C937 C935 1.389 . S
C937 C938 1.524 . S
C938 C937 1.524 . S
C938 C939 1.397 . S
C938 C943 1.363 . S
C939 H910 0.950 . S
C939 C938 1.397 . S
C939 C940 1.334 . S
C940 H911 0.950 . S
C940 C939 1.334 . S
C940 C941 1.287 . S
C941 C940 1.287 . S
C941 C942 1.524 . S
C941 H944 0.999 . S
C942 H912 0.950 . S
C942 C941 1.524 . S
C942 C943 1.415 . S
C943 H913 0.950 . S
C943 C938 1.363 . S
C943 C942 1.415 . S
H944 C941 0.999 . S
H945 C926 0.913 . S
H946 C964 0.951 . S
H947 C966 0.951 . S
H948 C968 0.950 . S
H949 C969 0.950 . S
H950 C971 0.950 . S
H951 C974 0.950 . S
H952 C975 0.950 . S
H953 C977 0.950 . S
H954 C978 0.950 . S
H955 C979 0.951 . S
H956 C981 0.951 . S
H957 C983 0.950 . S
H958 C984 0.950 . S
H959 C986 0.950 . S
H960 C989 0.950 . S
H961 C990 0.950 . S
H962 C992 0.936 . S
H963 C993 0.950 1_554 S
C964 H946 0.951 . S
C964 C965 1.366 . S
C964 C966 1.388 . S
C965 C964 1.366 . S
C965 C969 1.385 . S
C966 H947 0.951 . S
C966 C964 1.388 . S
C966 C967 1.366 . S
C967 C966 1.366 . S
C967 C968 1.414 . S
C967 C970 1.499 . S
C968 H948 0.950 . S
C968 C967 1.414 . S
C968 C969 1.374 . S
C969 H949 0.950 . S
C969 C965 1.385 . S
C969 C968 1.374 . S
C970 C967 1.499 . S
C970 C971 1.373 . S
C970 C972 1.389 . S
C971 H950 0.950 . S
C971 C970 1.373 . S
C971 C987 1.377 . S
C972 C970 1.389 . S
C972 C973 1.524 . S
C972 C986 1.377 . S
C973 C972 1.524 . S
C973 C974 1.397 . S
C973 C978 1.363 . S
C974 H951 0.950 . S
C974 C973 1.397 . S
C974 C975 1.334 . S
C975 H952 0.950 . S
C975 C974 1.334 . S
C975 C976 1.287 . S
C976 C975 1.287 . S
C976 C977 1.524 . S
C976 H995 0.913 . S
C977 H953 0.950 . S
C977 C976 1.524 . S
C977 C978 1.415 . S
C978 H954 0.950 . S
C978 C973 1.363 . S
C978 C977 1.415 . S
C979 H955 0.951 . S
C979 C980 1.366 . S
C979 C981 1.388 . S
C980 C979 1.366 . S
C980 C984 1.385 . S
C981 H956 0.951 . S
C981 C979 1.388 . S
C981 C982 1.366 . S
C982 C981 1.366 . S
C982 C983 1.414 . S
C982 C985 1.499 1_455 S
C983 H957 0.950 . S
C983 C982 1.414 . S
C983 C984 1.374 . S
C984 H958 0.950 . S
C984 C980 1.385 . S
C984 C983 1.374 . S
C985 C982 1.499 1_655 S
C985 C986 1.373 . S
C985 C987 1.389 . S
C986 H959 0.950 . S
C986 C972 1.377 . S
C986 C985 1.373 . S
C987 C971 1.377 . S
C987 C985 1.389 . S
C987 C988 1.524 1_554 S
C988 C987 1.524 1_556 S
C988 C989 1.397 . S
C988 C993 1.363 . S
C989 H960 0.950 . S
C989 C988 1.397 . S
C989 C990 1.334 1_655 S
C990 H961 0.950 . S
C990 C989 1.334 1_455 S
C990 C991 1.287 . S
C991 C990 1.287 . S
C991 C992 1.546 . S
C991 H994 0.999 . S
C992 H962 0.936 . S
C992 C991 1.546 . S
C992 C993 1.410 1_455 S
C993 H963 0.950 1_556 S
C993 C988 1.363 . S
C993 C992 1.410 1_655 S
H994 C991 0.999 . S
H995 C976 0.913 . S
H996 C1014 0.951 . S
H997 C1016 0.951 . S
H998 C1018 0.950 . S
H999 C1019 0.950 . S
H1000 C1021 0.950 . S
H1001 C1024 0.950 . S
H1002 C1025 0.950 . S
H1003 C1027 0.950 . S
H1004 C1028 0.950 . S
H1005 C1029 0.951 . S
H1006 C1031 0.951 . S
H1007 C1033 0.950 . S
H1008 C1034 0.950 . S
H1009 C1036 0.950 . S
H1010 C1039 0.950 . S
H1011 C1040 0.950 . S
H1012 C1042 0.950 . S
H1013 C1043 0.950 . S
C1014 H996 0.951 . S
C1014 C1015 1.366 . S
C1014 C1016 1.388 . S
C1015 C1014 1.366 . S
C1015 C1019 1.385 . S
C1016 H997 0.951 . S
C1016 C1014 1.388 . S
C1016 C1017 1.366 . S
C1017 C1016 1.366 . S
C1017 C1018 1.414 . S
C1017 C1020 1.499 . S
C1018 H998 0.950 . S
C1018 C1017 1.414 . S
C1018 C1019 1.374 . S
C1019 H999 0.950 . S
C1019 C1015 1.385 . S
C1019 C1018 1.374 . S
C1020 C1017 1.499 . S
C1020 C1021 1.373 . S
C1020 C1022 1.389 . S
C1021 H1000 0.950 . S
C1021 C1020 1.373 . S
C1021 C1037 1.377 . S
C1022 C1020 1.389 . S
C1022 C1023 1.524 . S
C1022 C1036 1.377 . S
C1023 C1022 1.524 . S
C1023 C1024 1.397 . S
C1023 C1028 1.363 . S
C1024 H1001 0.950 . S
C1024 C1023 1.397 . S
C1024 C1025 1.334 . S
C1025 H1002 0.950 . S
C1025 C1024 1.334 . S
C1025 C1026 1.287 . S
C1026 C1025 1.287 . S
C1026 C1027 1.524 . S
C1026 H1045 0.913 . S
C1027 H1003 0.950 . S
C1027 C1026 1.524 . S
C1027 C1028 1.415 . S
C1028 H1004 0.950 . S
C1028 C1023 1.363 . S
C1028 C1027 1.415 . S
C1029 H1005 0.951 . S
C1029 C1030 1.366 . S
C1029 C1031 1.388 . S
C1030 C1029 1.366 . S
C1030 C1034 1.385 . S
C1031 H1006 0.951 . S
C1031 C1029 1.388 . S
C1031 C1032 1.366 . S
C1032 C1031 1.366 . S
C1032 C1033 1.414 . S
C1032 C1035 1.499 1_655 S
C1033 H1007 0.950 . S
C1033 C1032 1.414 . S
C1033 C1034 1.374 . S
C1034 H1008 0.950 . S
C1034 C1030 1.385 . S
C1034 C1033 1.374 . S
C1035 C1032 1.499 1_455 S
C1035 C1036 1.373 . S
C1035 C1037 1.389 . S
C1036 H1009 0.950 . S
C1036 C1022 1.377 . S
C1036 C1035 1.373 . S
C1037 C1021 1.377 . S
C1037 C1035 1.389 . S
C1037 C1038 1.524 . S
C1038 C1037 1.524 . S
C1038 C1039 1.397 1_455 S
C1038 C1043 1.363 . S
C1039 H1010 0.950 . S
C1039 C1038 1.397 1_655 S
C1039 C1040 1.334 . S
C1040 H1011 0.950 . S
C1040 C1039 1.334 . S
C1040 C1041 1.287 . S
C1041 C1040 1.287 . S
C1041 C1042 1.524 1_655 S
C1041 H1044 0.999 . S
C1042 H1012 0.950 . S
C1042 C1041 1.524 1_455 S
C1042 C1043 1.415 . S
C1043 H1013 0.950 . S
C1043 C1038 1.363 . S
C1043 C1042 1.415 . S
H1044 C1041 0.999 . S
H1045 C1026 0.913 . S
H1046 C1064 0.951 . S
H1047 C1066 0.951 . S
H1048 C1068 0.950 . S
H1049 C1069 0.950 . S
H1050 C1071 0.950 . S
H1051 C1074 0.950 . S
H1052 C1075 0.950 . S
H1053 C1077 0.950 . S
H1054 C1078 0.950 . S
H1055 C1079 0.951 . S
H1056 C1081 0.951 . S
H1057 C1083 0.950 . S
H1058 C1084 0.950 . S
H1059 C1086 0.950 . S
H1060 C1089 0.950 . S
H1061 C1090 0.950 . S
H1062 C1092 0.950 . S
H1063 C1093 0.950 . S
C1064 H1046 0.951 . S
C1064 C1065 1.366 . S
C1064 C1066 1.388 . S
C1065 C1064 1.366 . S
C1065 C1069 1.385 . S
C1066 H1047 0.951 . S
C1066 C1064 1.388 . S
C1066 C1067 1.366 . S
C1067 C1066 1.366 . S
C1067 C1068 1.414 . S
C1067 C1070 1.499 . S
C1068 H1048 0.950 . S
C1068 C1067 1.414 . S
C1068 C1069 1.374 . S
C1069 H1049 0.950 . S
C1069 C1065 1.385 . S
C1069 C1068 1.374 . S
C1070 C1067 1.499 . S
C1070 C1071 1.373 . S
C1070 C1072 1.389 . S
C1071 H1050 0.950 . S
C1071 C1070 1.373 . S
C1071 C1087 1.377 . S
C1072 C1070 1.389 . S
C1072 C1073 1.524 . S
C1072 C1086 1.377 . S
C1073 C1072 1.524 . S
C1073 C1074 1.397 . S
C1073 C1078 1.363 . S
C1074 H1051 0.950 . S
C1074 C1073 1.397 . S
C1074 C1075 1.334 . S
C1075 H1052 0.950 . S
C1075 C1074 1.334 . S
C1075 C1076 1.287 . S
C1076 C1075 1.287 . S
C1076 C1077 1.524 . S
C1076 H1095 0.913 . S
C1077 H1053 0.950 . S
C1077 C1076 1.524 . S
C1077 C1078 1.415 . S
C1078 H1054 0.950 . S
C1078 C1073 1.363 . S
C1078 C1077 1.415 . S
C1079 H1055 0.951 . S
C1079 C1080 1.366 . S
C1079 C1081 1.388 . S
C1080 C1079 1.366 . S
C1080 C1084 1.385 . S
C1081 H1056 0.951 . S
C1081 C1079 1.388 . S
C1081 C1082 1.366 . S
C1082 C1081 1.366 . S
C1082 C1083 1.414 . S
C1082 C1085 1.499 1_565 S
C1083 H1057 0.950 . S
C1083 C1082 1.414 . S
C1083 C1084 1.374 . S
C1084 H1058 0.950 . S
C1084 C1080 1.385 . S
C1084 C1083 1.374 . S
C1085 C1082 1.499 1_545 S
C1085 C1086 1.373 . S
C1085 C1087 1.389 . S
C1086 H1059 0.950 . S
C1086 C1072 1.377 . S
C1086 C1085 1.373 . S
C1087 C1071 1.377 . S
C1087 C1085 1.389 . S
C1087 C1088 1.524 . S
C1088 C1087 1.524 . S
C1088 C1089 1.397 . S
C1088 C1093 1.363 . S
C1089 H1060 0.950 . S
C1089 C1088 1.397 . S
C1089 C1090 1.334 1_545 S
C1090 H1061 0.950 . S
C1090 C1089 1.334 1_565 S
C1090 C1091 1.287 . S
C1091 C1090 1.287 . S
C1091 C1092 1.524 1_565 S
C1091 H1094 0.999 . S
C1092 H1062 0.950 . S
C1092 C1091 1.524 1_545 S
C1092 C1093 1.415 . S
C1093 H1063 0.950 . S
C1093 C1088 1.363 . S
C1093 C1092 1.415 . S
H1094 C1091 0.999 . S
H1095 C1076 0.913 . S
H1096 C1114 0.951 . S
H1097 C1116 0.951 . S
H1098 C1118 0.950 . S
H1099 C1119 0.950 . S
H1100 C1121 0.950 . S
H1101 C1124 0.950 . S
H1102 C1125 0.950 . S
H1103 C1127 0.950 . S
H1104 C1128 0.950 . S
H1105 C1129 0.951 . S
H1106 C1131 0.951 . S
H1107 C1133 0.950 . S
H1108 C1134 0.950 . S
H1109 C1136 0.950 . S
H1110 C1139 0.950 . S
H1111 C1140 0.950 . S
H1112 C1142 0.950 . S
H1113 C1143 0.950 . S
C1114 H1096 0.951 . S
C1114 C1115 1.366 . S
C1114 C1116 1.388 . S
C1115 C1114 1.366 . S
C1115 C1119 1.385 . S
C1116 H1097 0.951 . S
C1116 C1114 1.388 . S
C1116 C1117 1.366 . S
C1117 C1116 1.366 . S
C1117 C1118 1.414 . S
C1117 C1120 1.499 . S
C1118 H1098 0.950 . S
C1118 C1117 1.414 . S
C1118 C1119 1.374 . S
C1119 H1099 0.950 . S
C1119 C1115 1.385 . S
C1119 C1118 1.374 . S
C1120 C1117 1.499 . S
C1120 C1121 1.373 . S
C1120 C1122 1.389 . S
C1121 H1100 0.950 . S
C1121 C1120 1.373 . S
C1121 C1137 1.377 . S
C1122 C1120 1.389 . S
C1122 C1123 1.524 . S
C1122 C1136 1.377 . S
C1123 C1122 1.524 . S
C1123 C1124 1.397 . S
C1123 C1128 1.363 . S
C1124 H1101 0.950 . S
C1124 C1123 1.397 . S
C1124 C1125 1.334 . S
C1125 H1102 0.950 . S
C1125 C1124 1.334 . S
C1125 C1126 1.287 . S
C1126 C1125 1.287 . S
C1126 C1127 1.524 . S
C1126 H1145 0.913 . S
C1127 H1103 0.950 . S
C1127 C1126 1.524 . S
C1127 C1128 1.415 . S
C1128 H1104 0.950 . S
C1128 C1123 1.363 . S
C1128 C1127 1.415 . S
C1129 H1105 0.951 . S
C1129 C1130 1.366 . S
C1129 C1131 1.388 . S
C1130 C1129 1.366 . S
C1130 C1134 1.385 . S
C1131 H1106 0.951 . S
C1131 C1129 1.388 . S
C1131 C1132 1.366 . S
C1132 C1131 1.366 . S
C1132 C1133 1.414 . S
C1132 C1135 1.499 . S
C1133 H1107 0.950 . S
C1133 C1132 1.414 . S
C1133 C1134 1.374 . S
C1134 H1108 0.950 . S
C1134 C1130 1.385 . S
C1134 C1133 1.374 . S
C1135 C1132 1.499 . S
C1135 C1136 1.373 . S
C1135 C1137 1.389 . S
C1136 H1109 0.950 . S
C1136 C1122 1.377 . S
C1136 C1135 1.373 . S
C1137 C1121 1.377 . S
C1137 C1135 1.389 . S
C1137 C1138 1.524 . S
C1138 C1137 1.524 . S
C1138 C1139 1.397 . S
C1138 C1143 1.363 . S
C1139 H1110 0.950 . S
C1139 C1138 1.397 . S
C1139 C1140 1.334 . S
C1140 H1111 0.950 . S
C1140 C1139 1.334 . S
C1140 C1141 1.287 . S
C1141 C1140 1.287 . S
C1141 C1142 1.524 . S
C1141 H1144 0.999 . S
C1142 H1112 0.950 . S
C1142 C1141 1.524 . S
C1142 C1143 1.415 . S
C1143 H1113 0.950 . S
C1143 C1138 1.363 . S
C1143 C1142 1.415 . S
H1144 C1141 0.999 . S
H1145 C1126 0.913 . S
H1146 C1164 0.951 . S
H1147 C1166 0.951 . S
H1148 C1168 0.950 . S
H1149 C1169 0.950 . S
H1150 C1171 0.950 . S
H1151 C1174 0.950 . S
H1152 C1175 0.950 . S
H1153 C1177 0.950 . S
H1154 C1178 0.950 . S
H1155 C1179 0.951 . S
H1156 C1181 0.951 . S
H1157 C1183 0.950 . S
H1158 C1184 0.950 . S
H1159 C1186 0.950 . S
H1160 C1189 0.950 . S
H1161 C1190 0.950 . S
H1162 C1192 0.950 . S
H1163 C1193 0.950 . S
C1164 H1146 0.951 . S
C1164 C1165 1.366 . S
C1164 C1166 1.388 . S
C1165 C1164 1.366 . S
C1165 C1169 1.385 . S
C1166 H1147 0.951 . S
C1166 C1164 1.388 . S
C1166 C1167 1.366 . S
C1167 C1166 1.366 . S
C1167 C1168 1.414 . S
C1167 C1170 1.499 1_455 S
C1168 H1148 0.950 . S
C1168 C1167 1.414 . S
C1168 C1169 1.374 . S
C1169 H1149 0.950 . S
C1169 C1165 1.385 . S
C1169 C1168 1.374 . S
C1170 C1167 1.499 1_655 S
C1170 C1171 1.373 . S
C1170 C1172 1.389 . S
C1171 H1150 0.950 . S
C1171 C1170 1.373 . S
C1171 C1187 1.377 . S
C1172 C1170 1.389 . S
C1172 C1173 1.524 . S
C1172 C1186 1.377 . S
C1173 C1172 1.524 . S
C1173 C1174 1.397 1_655 S
C1173 C1178 1.363 . S
C1174 H1151 0.950 . S
C1174 C1173 1.397 1_455 S
C1174 C1175 1.334 . S
C1175 H1152 0.950 . S
C1175 C1174 1.334 . S
C1175 C1176 1.287 . S
C1176 C1175 1.287 . S
C1176 C1177 1.524 . S
C1176 H1195 0.913 . S
C1177 H1153 0.950 . S
C1177 C1176 1.524 . S
C1177 C1178 1.415 1_455 S
C1178 H1154 0.950 . S
C1178 C1173 1.363 . S
C1178 C1177 1.415 1_655 S
C1179 H1155 0.951 . S
C1179 C1180 1.366 . S
C1179 C1181 1.388 . S
C1180 C1179 1.366 . S
C1180 C1184 1.385 . S
C1181 H1156 0.951 . S
C1181 C1179 1.388 . S
C1181 C1182 1.366 . S
C1182 C1181 1.366 . S
C1182 C1183 1.414 . S
C1182 C1185 1.499 . S
C1183 H1157 0.950 . S
C1183 C1182 1.414 . S
C1183 C1184 1.374 . S
C1184 H1158 0.950 . S
C1184 C1180 1.385 . S
C1184 C1183 1.374 . S
C1185 C1182 1.499 . S
C1185 C1186 1.373 . S
C1185 C1187 1.389 . S
C1186 H1159 0.950 . S
C1186 C1172 1.377 . S
C1186 C1185 1.373 . S
C1187 C1171 1.377 . S
C1187 C1185 1.389 . S
C1187 C1188 1.524 . S
C1188 C1187 1.524 . S
C1188 C1189 1.397 . S
C1188 C1193 1.363 . S
C1189 H1160 0.950 . S
C1189 C1188 1.397 . S
C1189 C1190 1.334 . S
C1190 H1161 0.950 . S
C1190 C1189 1.334 . S
C1190 C1191 1.287 . S
C1191 C1190 1.287 . S
C1191 C1192 1.524 . S
C1191 H1194 0.999 . S
C1192 H1162 0.950 . S
C1192 C1191 1.524 . S
C1192 C1193 1.415 . S
C1193 H1163 0.950 . S
C1193 C1188 1.363 . S
C1193 C1192 1.415 . S
H1194 C1191 0.999 . S
H1195 C1176 0.913 . S
H1196 C1214 0.951 . S
H1197 C1216 0.951 . S
H1198 C1218 0.950 . S
H1199 C1219 0.950 . S
H1200 C1221 0.950 . S
H1201 C1224 0.950 . S
H1202 C1225 0.950 . S
H1203 C1227 0.950 . S
H1204 C1228 0.950 . S
H1205 C1229 0.951 . S
H1206 C1231 0.951 . S
H1207 C1233 0.950 . S
H1208 C1234 0.950 . S
H1209 C1236 0.950 . S
H1210 C1239 0.950 . S
H1211 C1240 0.950 . S
H1212 C1242 0.950 . S
H1213 C1243 0.950 . S
C1214 H1196 0.951 . S
C1214 C1215 1.366 . S
C1214 C1216 1.388 . S
C1215 C1214 1.366 . S
C1215 C1219 1.385 . S
C1216 H1197 0.951 . S
C1216 C1214 1.388 . S
C1216 C1217 1.366 . S
C1217 C1216 1.366 . S
C1217 C1218 1.414 . S
C1217 C1220 1.499 1_545 S
C1218 H1198 0.950 . S
C1218 C1217 1.414 . S
C1218 C1219 1.374 . S
C1219 H1199 0.950 . S
C1219 C1215 1.385 . S
C1219 C1218 1.374 . S
C1220 C1217 1.499 1_565 S
C1220 C1221 1.373 . S
C1220 C1222 1.389 . S
C1221 H1200 0.950 . S
C1221 C1220 1.373 . S
C1221 C1237 1.377 . S
C1222 C1220 1.389 . S
C1222 C1223 1.524 . S
C1222 C1236 1.377 . S
C1223 C1222 1.524 . S
C1223 C1224 1.397 . S
C1223 C1228 1.363 . S
C1224 H1201 0.950 . S
C1224 C1223 1.397 . S
C1224 C1225 1.334 . S
C1225 H1202 0.950 . S
C1225 C1224 1.334 . S
C1225 C1226 1.287 . S
C1226 C1225 1.287 . S
C1226 C1227 1.524 . S
C1226 H1245 0.913 . S
C1227 H1203 0.950 . S
C1227 C1226 1.524 . S
C1227 C1228 1.415 . S
C1228 H1204 0.950 . S
C1228 C1223 1.363 . S
C1228 C1227 1.415 . S
C1229 H1205 0.951 . S
C1229 C1230 1.366 . S
C1229 C1231 1.388 . S
C1230 C1229 1.366 . S
C1230 C1234 1.385 . S
C1231 H1206 0.951 . S
C1231 C1229 1.388 . S
C1231 C1232 1.366 . S
C1232 C1231 1.366 . S
C1232 C1233 1.414 . S
C1232 C1235 1.499 . S
C1233 H1207 0.950 . S
C1233 C1232 1.414 . S
C1233 C1234 1.374 . S
C1234 H1208 0.950 . S
C1234 C1230 1.385 . S
C1234 C1233 1.374 . S
C1235 C1232 1.499 . S
C1235 C1236 1.373 . S
C1235 C1237 1.389 . S
C1236 H1209 0.950 . S
C1236 C1222 1.377 . S
C1236 C1235 1.373 . S
C1237 C1221 1.377 . S
C1237 C1235 1.389 . S
C1237 C1238 1.524 . S
C1238 C1237 1.524 . S
C1238 C1239 1.397 . S
C1238 C1243 1.363 . S
C1239 H1210 0.950 . S
C1239 C1238 1.397 . S
C1239 C1240 1.334 . S
C1240 H1211 0.950 . S
C1240 C1239 1.334 . S
C1240 C1241 1.287 . S
C1241 C1240 1.287 . S
C1241 C1242 1.524 . S
C1241 H1244 0.999 . S
C1242 H1212 0.950 . S
C1242 C1241 1.524 . S
C1242 C1243 1.415 . S
C1243 H1213 0.950 . S
C1243 C1238 1.363 . S
C1243 C1242 1.415 . S
H1244 C1241 0.999 . S
H1245 C1226 0.913 . S
H1246 C1264 0.951 . S
H1247 C1266 0.951 . S
H1248 C1268 0.950 . S
H1249 C1269 0.950 . S
H1250 C1271 0.950 . S
H1251 C1274 0.950 . S
H1252 C1275 0.950 . S
H1253 C1277 0.950 . S
H1254 C1278 0.950 . S
H1255 C1279 0.951 . S
H1256 C1281 0.951 . S
H1257 C1283 0.950 . S
H1258 C1284 0.950 . S
H1259 C1286 0.950 . S
H1260 C1289 0.950 . S
H1261 C1290 0.950 . S
H1262 C1292 0.950 . S
H1263 C1293 0.950 . S
C1264 H1246 0.951 . S
C1264 C1265 1.366 . S
C1264 C1266 1.388 . S
C1265 C1264 1.366 . S
C1265 C1269 1.385 . S
C1266 H1247 0.951 . S
C1266 C1264 1.388 . S
C1266 C1267 1.366 . S
C1267 C1266 1.366 . S
C1267 C1268 1.414 . S
C1267 C1270 1.499 . S
C1268 H1248 0.950 . S
C1268 C1267 1.414 . S
C1268 C1269 1.374 . S
C1269 H1249 0.950 . S
C1269 C1265 1.385 . S
C1269 C1268 1.374 . S
C1270 C1267 1.499 . S
C1270 C1271 1.373 . S
C1270 C1272 1.389 . S
C1271 H1250 0.950 . S
C1271 C1270 1.373 . S
C1271 C1287 1.377 . S
C1272 C1270 1.389 . S
C1272 C1273 1.524 . S
C1272 C1286 1.377 . S
C1273 C1272 1.524 . S
C1273 C1274 1.397 . S
C1273 C1278 1.363 . S
C1274 H1251 0.950 . S
C1274 C1273 1.397 . S
C1274 C1275 1.334 . S
C1275 H1252 0.950 . S
C1275 C1274 1.334 . S
C1275 C1276 1.287 . S
C1276 C1275 1.287 . S
C1276 C1277 1.524 . S
C1276 H1295 0.913 . S
C1277 H1253 0.950 . S
C1277 C1276 1.524 . S
C1277 C1278 1.415 . S
C1278 H1254 0.950 . S
C1278 C1273 1.363 . S
C1278 C1277 1.415 . S
C1279 H1255 0.951 . S
C1279 C1280 1.366 . S
C1279 C1281 1.388 . S
C1280 C1279 1.366 . S
C1280 C1284 1.385 . S
C1281 H1256 0.951 . S
C1281 C1279 1.388 . S
C1281 C1282 1.366 . S
C1282 C1281 1.366 . S
C1282 C1283 1.414 . S
C1282 C1285 1.499 . S
C1283 H1257 0.950 . S
C1283 C1282 1.414 . S
C1283 C1284 1.374 . S
C1284 H1258 0.950 . S
C1284 C1280 1.385 . S
C1284 C1283 1.374 . S
C1285 C1282 1.499 . S
C1285 C1286 1.373 . S
C1285 C1287 1.389 . S
C1286 H1259 0.950 . S
C1286 C1272 1.377 . S
C1286 C1285 1.373 . S
C1287 C1271 1.377 . S
C1287 C1285 1.389 . S
C1287 C1288 1.524 . S
C1288 C1287 1.524 . S
C1288 C1289 1.397 . S
C1288 C1293 1.363 . S
C1289 H1260 0.950 . S
C1289 C1288 1.397 . S
C1289 C1290 1.334 . S
C1290 H1261 0.950 . S
C1290 C1289 1.334 . S
C1290 C1291 1.287 . S
C1291 C1290 1.287 . S
C1291 C1292 1.524 . S
C1291 H1294 0.999 . S
C1292 H1262 0.950 . S
C1292 C1291 1.524 . S
C1292 C1293 1.415 . S
C1293 H1263 0.950 . S
C1293 C1288 1.363 . S
C1293 C1292 1.415 . S
H1294 C1291 0.999 . S
H1295 C1276 0.913 . S
H1296 C1314 0.951 . S
H1297 C1316 0.951 . S
H1298 C1318 0.950 . S
H1299 C1319 0.950 . S
H1300 C1321 0.950 . S
H1301 C1324 0.950 . S
H1302 C1325 0.950 . S
H1303 C1327 0.950 . S
H1304 C1328 0.950 . S
H1305 C1329 0.951 . S
H1306 C1331 0.951 . S
H1307 C1333 0.950 . S
H1308 C1334 0.950 . S
H1309 C1336 0.950 . S
H1310 C1339 0.950 . S
H1311 C1340 0.950 . S
H1312 C1342 0.950 . S
H1313 C1343 0.950 . S
C1314 H1296 0.951 . S
C1314 C1315 1.366 . S
C1314 C1316 1.388 . S
C1315 C1314 1.366 . S
C1315 C1319 1.385 . S
C1316 H1297 0.951 . S
C1316 C1314 1.388 . S
C1316 C1317 1.366 . S
C1317 C1316 1.366 . S
C1317 C1318 1.414 . S
C1317 C1320 1.499 . S
C1318 H1298 0.950 . S
C1318 C1317 1.414 . S
C1318 C1319 1.374 . S
C1319 H1299 0.950 . S
C1319 C1315 1.385 . S
C1319 C1318 1.374 . S
C1320 C1317 1.499 . S
C1320 C1321 1.373 . S
C1320 C1322 1.389 . S
C1321 H1300 0.950 . S
C1321 C1320 1.373 . S
C1321 C1337 1.377 . S
C1322 C1320 1.389 . S
C1322 C1323 1.524 . S
C1322 C1336 1.377 . S
C1323 C1322 1.524 . S
C1323 C1324 1.397 . S
C1323 C1328 1.363 . S
C1324 H1301 0.950 . S
C1324 C1323 1.397 . S
C1324 C1325 1.334 . S
C1325 H1302 0.950 . S
C1325 C1324 1.334 . S
C1325 C1326 1.287 . S
C1326 C1325 1.287 . S
C1326 C1327 1.524 . S
C1326 H1345 0.913 . S
C1327 H1303 0.950 . S
C1327 C1326 1.524 . S
C1327 C1328 1.415 . S
C1328 H1304 0.950 . S
C1328 C1323 1.363 . S
C1328 C1327 1.415 . S
C1329 H1305 0.951 . S
C1329 C1330 1.366 . S
C1329 C1331 1.388 . S
C1330 C1329 1.366 . S
C1330 C1334 1.385 . S
C1331 H1306 0.951 . S
C1331 C1329 1.388 . S
C1331 C1332 1.366 . S
C1332 C1331 1.366 . S
C1332 C1333 1.414 . S
C1332 C1335 1.499 . S
C1333 H1307 0.950 . S
C1333 C1332 1.414 . S
C1333 C1334 1.374 . S
C1334 H1308 0.950 . S
C1334 C1330 1.385 . S
C1334 C1333 1.374 . S
C1335 C1332 1.499 . S
C1335 C1336 1.373 . S
C1335 C1337 1.389 . S
C1336 H1309 0.950 . S
C1336 C1322 1.377 . S
C1336 C1335 1.373 . S
C1337 C1321 1.377 . S
C1337 C1335 1.389 . S
C1337 C1338 1.524 . S
C1338 C1337 1.524 . S
C1338 C1339 1.397 . S
C1338 C1343 1.363 . S
C1339 H1310 0.950 . S
C1339 C1338 1.397 . S
C1339 C1340 1.334 . S
C1340 H1311 0.950 . S
C1340 C1339 1.334 . S
C1340 C1341 1.287 . S
C1341 C1340 1.287 . S
C1341 C1342 1.524 . S
C1341 H1344 0.999 . S
C1342 H1312 0.950 . S
C1342 C1341 1.524 . S
C1342 C1343 1.415 . S
C1343 H1313 0.950 . S
C1343 C1338 1.363 . S
C1343 C1342 1.415 . S
H1344 C1341 0.999 . S
H1345 C1326 0.913 . S
H1346 C1364 0.951 . S
H1347 C1366 0.951 . S
H1348 C1368 0.950 . S
H1349 C1369 0.950 . S
H1350 C1371 0.950 . S
H1351 C1374 0.950 . S
H1352 C1375 0.950 . S
H1353 C1377 0.950 . S
H1354 C1378 0.950 . S
H1355 C1379 0.951 . S
H1356 C1381 0.951 . S
H1357 C1383 0.950 . S
H1358 C1384 0.950 . S
H1359 C1386 0.950 . S
H1360 C1389 0.950 . S
H1361 C1390 0.950 . S
H1362 C1392 0.950 . S
H1363 C1393 0.950 . S
C1364 H1346 0.951 . S
C1364 C1365 1.366 . S
C1364 C1366 1.388 . S
C1365 C1364 1.366 . S
C1365 C1369 1.385 . S
C1366 H1347 0.951 . S
C1366 C1364 1.388 . S
C1366 C1367 1.366 . S
C1367 C1366 1.366 . S
C1367 C1368 1.414 . S
C1367 C1370 1.499 . S
C1368 H1348 0.950 . S
C1368 C1367 1.414 . S
C1368 C1369 1.374 . S
C1369 H1349 0.950 . S
C1369 C1365 1.385 . S
C1369 C1368 1.374 . S
C1370 C1367 1.499 . S
C1370 C1371 1.373 . S
C1370 C1372 1.389 . S
C1371 H1350 0.950 . S
C1371 C1370 1.373 . S
C1371 C1387 1.377 . S
C1372 C1370 1.389 . S
C1372 C1373 1.524 . S
C1372 C1386 1.377 . S
C1373 C1372 1.524 . S
C1373 C1374 1.397 . S
C1373 C1378 1.363 . S
C1374 H1351 0.950 . S
C1374 C1373 1.397 . S
C1374 C1375 1.334 . S
C1375 H1352 0.950 . S
C1375 C1374 1.334 . S
C1375 C1376 1.287 . S
C1376 C1375 1.287 . S
C1376 C1377 1.524 . S
C1376 H1395 0.913 . S
C1377 H1353 0.950 . S
C1377 C1376 1.524 . S
C1377 C1378 1.415 . S
C1378 H1354 0.950 . S
C1378 C1373 1.363 . S
C1378 C1377 1.415 . S
C1379 H1355 0.951 . S
C1379 C1380 1.366 . S
C1379 C1381 1.388 . S
C1380 C1379 1.366 . S
C1380 C1384 1.385 . S
C1381 H1356 0.951 . S
C1381 C1379 1.388 . S
C1381 C1382 1.366 . S
C1382 C1381 1.366 . S
C1382 C1383 1.414 . S
C1382 C1385 1.499 . S
C1383 H1357 0.950 . S
C1383 C1382 1.414 . S
C1383 C1384 1.374 . S
C1384 H1358 0.950 . S
C1384 C1380 1.385 . S
C1384 C1383 1.374 . S
C1385 C1382 1.499 . S
C1385 C1386 1.373 . S
C1385 C1387 1.389 . S
C1386 H1359 0.950 . S
C1386 C1372 1.377 . S
C1386 C1385 1.373 . S
C1387 C1371 1.377 . S
C1387 C1385 1.389 . S
C1387 C1388 1.524 . S
C1388 C1387 1.524 . S
C1388 C1389 1.397 . S
C1388 C1393 1.363 . S
C1389 H1360 0.950 . S
C1389 C1388 1.397 . S
C1389 C1390 1.334 . S
C1390 H1361 0.950 . S
C1390 C1389 1.334 . S
C1390 C1391 1.287 . S
C1391 C1390 1.287 . S
C1391 C1392 1.524 . S
C1391 H1394 0.999 . S
C1392 H1362 0.950 . S
C1392 C1391 1.524 . S
C1392 C1393 1.415 . S
C1393 H1363 0.950 . S
C1393 C1388 1.363 . S
C1393 C1392 1.415 . S
H1394 C1391 0.999 . S
H1395 C1376 0.913 . S
H1396 C1414 0.951 . S
H1397 C1416 0.951 . S
H1398 C1418 0.950 . S
H1399 C1419 0.950 . S
H1400 C1421 0.950 . S
H1401 C1424 0.950 . S
H1402 C1425 0.950 . S
H1403 C1427 0.950 . S
H1404 C1428 0.950 . S
H1405 C1429 0.951 . S
H1406 C1431 0.951 . S
H1407 C1433 0.950 . S
H1408 C1434 0.950 . S
H1409 C1436 0.950 . S
H1410 C1439 0.950 . S
H1411 C1440 0.950 . S
H1412 C1442 0.950 . S
H1413 C1443 0.950 . S
C1414 H1396 0.951 . S
C1414 C1415 1.366 . S
C1414 C1416 1.388 . S
C1415 C1414 1.366 . S
C1415 C1419 1.385 . S
C1416 H1397 0.951 . S
C1416 C1414 1.388 . S
C1416 C1417 1.366 . S
C1417 C1416 1.366 . S
C1417 C1418 1.414 . S
C1417 C1420 1.499 . S
C1418 H1398 0.950 . S
C1418 C1417 1.414 . S
C1418 C1419 1.374 . S
C1419 H1399 0.950 . S
C1419 C1415 1.385 . S
C1419 C1418 1.374 . S
C1420 C1417 1.499 . S
C1420 C1421 1.373 . S
C1420 C1422 1.389 . S
C1421 H1400 0.950 . S
C1421 C1420 1.373 . S
C1421 C1437 1.377 . S
C1422 C1420 1.389 . S
C1422 C1423 1.524 . S
C1422 C1436 1.377 . S
C1423 C1422 1.524 . S
C1423 C1424 1.397 . S
C1423 C1428 1.363 . S
C1424 H1401 0.950 . S
C1424 C1423 1.397 . S
C1424 C1425 1.334 . S
C1425 H1402 0.950 . S
C1425 C1424 1.334 . S
C1425 C1426 1.287 . S
C1426 C1425 1.287 . S
C1426 C1427 1.524 . S
C1426 H1445 0.913 . S
C1427 H1403 0.950 . S
C1427 C1426 1.524 . S
C1427 C1428 1.415 . S
C1428 H1404 0.950 . S
C1428 C1423 1.363 . S
C1428 C1427 1.415 . S
C1429 H1405 0.951 . S
C1429 C1430 1.366 . S
C1429 C1431 1.388 . S
C1430 C1429 1.366 . S
C1430 C1434 1.385 . S
C1431 H1406 0.951 . S
C1431 C1429 1.388 . S
C1431 C1432 1.366 . S
C1432 C1431 1.366 . S
C1432 C1433 1.414 . S
C1432 C1435 1.499 . S
C1433 H1407 0.950 . S
C1433 C1432 1.414 . S
C1433 C1434 1.374 . S
C1434 H1408 0.950 . S
C1434 C1430 1.385 . S
C1434 C1433 1.374 . S
C1435 C1432 1.499 . S
C1435 C1436 1.373 . S
C1435 C1437 1.389 . S
C1436 H1409 0.950 . S
C1436 C1422 1.377 . S
C1436 C1435 1.373 . S
C1437 C1421 1.377 . S
C1437 C1435 1.389 . S
C1437 C1438 1.524 . S
C1438 C1437 1.524 . S
C1438 C1439 1.397 . S
C1438 C1443 1.363 . S
C1439 H1410 0.950 . S
C1439 C1438 1.397 . S
C1439 C1440 1.334 . S
C1440 H1411 0.950 . S
C1440 C1439 1.334 . S
C1440 C1441 1.287 . S
C1441 C1440 1.287 . S
C1441 C1442 1.524 . S
C1441 H1444 0.999 . S
C1442 H1412 0.950 . S
C1442 C1441 1.524 . S
C1442 C1443 1.415 . S
C1443 H1413 0.950 . S
C1443 C1438 1.363 . S
C1443 C1442 1.415 . S
H1444 C1441 0.999 . S
H1445 C1426 0.913 . S
H1446 C1464 0.951 . S
H1447 C1466 0.951 . S
H1448 C1468 0.950 . S
H1449 C1469 0.950 . S
H1450 C1471 0.950 . S
H1451 C1474 0.950 . S
H1452 C1475 0.950 . S
H1453 C1477 0.950 . S
H1454 C1478 0.950 . S
H1455 C1479 0.951 . S
H1456 C1481 0.951 . S
H1457 C1483 0.950 . S
H1458 C1484 0.950 . S
H1459 C1486 0.950 . S
H1460 C1489 0.950 . S
H1461 C1490 0.950 . S
H1462 C1492 0.950 . S
H1463 C1493 0.950 . S
C1464 H1446 0.951 . S
C1464 C1465 1.366 . S
C1464 C1466 1.388 . S
C1465 C1464 1.366 . S
C1465 C1469 1.385 . S
C1466 H1447 0.951 . S
C1466 C1464 1.388 . S
C1466 C1467 1.366 . S
C1467 C1466 1.366 . S
C1467 C1468 1.414 . S
C1467 C1470 1.499 . S
C1468 H1448 0.950 . S
C1468 C1467 1.414 . S
C1468 C1469 1.374 . S
C1469 H1449 0.950 . S
C1469 C1465 1.385 . S
C1469 C1468 1.374 . S
C1470 C1467 1.499 . S
C1470 C1471 1.373 . S
C1470 C1472 1.389 . S
C1471 H1450 0.950 . S
C1471 C1470 1.373 . S
C1471 C1487 1.377 . S
C1472 C1470 1.389 . S
C1472 C1473 1.524 . S
C1472 C1486 1.377 . S
C1473 C1472 1.524 . S
C1473 C1474 1.397 . S
C1473 C1478 1.363 . S
C1474 H1451 0.950 . S
C1474 C1473 1.397 . S
C1474 C1475 1.334 . S
C1475 H1452 0.950 . S
C1475 C1474 1.334 . S
C1475 C1476 1.287 . S
C1476 C1475 1.287 . S
C1476 C1477 1.524 . S
C1476 H1495 0.913 . S
C1477 H1453 0.950 . S
C1477 C1476 1.524 . S
C1477 C1478 1.415 . S
C1478 H1454 0.950 . S
C1478 C1473 1.363 . S
C1478 C1477 1.415 . S
C1479 H1455 0.951 . S
C1479 C1480 1.366 . S
C1479 C1481 1.388 . S
C1480 C1479 1.366 . S
C1480 C1484 1.385 . S
C1481 H1456 0.951 . S
C1481 C1479 1.388 . S
C1481 C1482 1.366 . S
C1482 C1481 1.366 . S
C1482 C1483 1.414 . S
C1482 C1485 1.499 . S
C1483 H1457 0.950 . S
C1483 C1482 1.414 . S
C1483 C1484 1.374 . S
C1484 H1458 0.950 . S
C1484 C1480 1.385 . S
C1484 C1483 1.374 . S
C1485 C1482 1.499 . S
C1485 C1486 1.373 . S
C1485 C1487 1.389 . S
C1486 H1459 0.950 . S
C1486 C1472 1.377 . S
C1486 C1485 1.373 . S
C1487 C1471 1.377 . S
C1487 C1485 1.389 . S
C1487 C1488 1.524 . S
C1488 C1487 1.524 . S
C1488 C1489 1.397 . S
C1488 C1493 1.363 . S
C1489 H1460 0.950 . S
C1489 C1488 1.397 . S
C1489 C1490 1.334 . S
C1490 H1461 0.950 . S
C1490 C1489 1.334 . S
C1490 C1491 1.287 . S
C1491 C1490 1.287 . S
C1491 C1492 1.524 . S
C1491 H1494 0.999 . S
C1492 H1462 0.950 . S
C1492 C1491 1.524 . S
C1492 C1493 1.415 . S
C1493 H1463 0.950 . S
C1493 C1488 1.363 . S
C1493 C1492 1.415 . S
H1494 C1491 0.999 . S
H1495 C1476 0.913 . S
H1496 C1514 0.951 . S
H1497 C1516 0.951 . S
H1498 C1518 0.950 . S
H1499 C1519 0.950 . S
H1500 C1521 0.950 . S
H1501 C1524 0.950 . S
H1502 C1525 0.950 . S
H1503 C1527 0.950 . S
H1504 C1528 0.950 . S
H1505 C1529 0.951 . S
H1506 C1531 0.951 . S
H1507 C1533 0.950 . S
H1508 C1534 0.950 . S
H1509 C1536 0.950 . S
H1510 C1539 0.950 . S
H1511 C1540 0.950 . S
H1512 C1542 0.950 . S
H1513 C1543 0.950 . S
C1514 H1496 0.951 . S
C1514 C1515 1.366 . S
C1514 C1516 1.388 . S
C1515 C1514 1.366 . S
C1515 C1519 1.385 . S
C1516 H1497 0.951 . S
C1516 C1514 1.388 . S
C1516 C1517 1.366 . S
C1517 C1516 1.366 . S
C1517 C1518 1.414 . S
C1517 C1520 1.499 . S
C1518 H1498 0.950 . S
C1518 C1517 1.414 . S
C1518 C1519 1.374 . S
C1519 H1499 0.950 . S
C1519 C1515 1.385 . S
C1519 C1518 1.374 . S
C1520 C1517 1.499 . S
C1520 C1521 1.373 . S
C1520 C1522 1.389 . S
C1521 H1500 0.950 . S
C1521 C1520 1.373 . S
C1521 C1537 1.377 . S
C1522 C1520 1.389 . S
C1522 C1523 1.524 . S
C1522 C1536 1.377 . S
C1523 C1522 1.524 . S
C1523 C1524 1.397 . S
C1523 C1528 1.363 . S
C1524 H1501 0.950 . S
C1524 C1523 1.397 . S
C1524 C1525 1.334 . S
C1525 H1502 0.950 . S
C1525 C1524 1.334 . S
C1525 C1526 1.287 . S
C1526 C1525 1.287 . S
C1526 C1527 1.524 . S
C1526 H1545 0.913 . S
C1527 H1503 0.950 . S
C1527 C1526 1.524 . S
C1527 C1528 1.415 . S
C1528 H1504 0.950 . S
C1528 C1523 1.363 . S
C1528 C1527 1.415 . S
C1529 H1505 0.951 . S
C1529 C1530 1.366 . S
C1529 C1531 1.388 . S
C1530 C1529 1.366 . S
C1530 C1534 1.385 . S
C1531 H1506 0.951 . S
C1531 C1529 1.388 . S
C1531 C1532 1.366 . S
C1532 C1531 1.366 . S
C1532 C1533 1.414 . S
C1532 C1535 1.499 . S
C1533 H1507 0.950 . S
C1533 C1532 1.414 . S
C1533 C1534 1.374 . S
C1534 H1508 0.950 . S
C1534 C1530 1.385 . S
C1534 C1533 1.374 . S
C1535 C1532 1.499 . S
C1535 C1536 1.373 . S
C1535 C1537 1.389 . S
C1536 H1509 0.950 . S
C1536 C1522 1.377 . S
C1536 C1535 1.373 . S
C1537 C1521 1.377 . S
C1537 C1535 1.389 . S
C1537 C1538 1.524 . S
C1538 C1537 1.524 . S
C1538 C1539 1.397 . S
C1538 C1543 1.363 . S
C1539 H1510 0.950 . S
C1539 C1538 1.397 . S
C1539 C1540 1.334 . S
C1540 H1511 0.950 . S
C1540 C1539 1.334 . S
C1540 C1541 1.287 . S
C1541 C1540 1.287 . S
C1541 C1542 1.524 . S
C1541 H1544 0.999 . S
C1542 H1512 0.950 . S
C1542 C1541 1.524 . S
C1542 C1543 1.415 . S
C1543 H1513 0.950 . S
C1543 C1538 1.363 . S
C1543 C1542 1.415 . S
H1544 C1541 0.999 . S
H1545 C1526 0.913 . S
H1546 C1564 0.951 . S
H1547 C1566 0.951 . S
H1548 C1568 0.950 . S
H1549 C1569 0.950 . S
H1550 C1571 0.950 . S
H1551 C1574 0.950 . S
H1552 C1575 0.950 . S
H1553 C1577 0.950 . S
H1554 C1578 0.950 . S
H1555 C1579 0.951 . S
H1556 C1581 0.951 . S
H1557 C1583 0.950 . S
H1558 C1584 0.950 . S
H1559 C1586 0.950 . S
H1560 C1589 0.950 . S
H1561 C1590 0.950 . S
H1562 C1592 0.950 . S
H1563 C1593 0.950 . S
C1564 H1546 0.951 . S
C1564 C1565 1.366 . S
C1564 C1566 1.388 . S
C1565 C1564 1.366 . S
C1565 C1569 1.385 . S
C1566 H1547 0.951 . S
C1566 C1564 1.388 . S
C1566 C1567 1.366 . S
C1567 C1566 1.366 . S
C1567 C1568 1.414 . S
C1567 C1570 1.499 . S
C1568 H1548 0.950 . S
C1568 C1567 1.414 . S
C1568 C1569 1.374 . S
C1569 H1549 0.950 . S
C1569 C1565 1.385 . S
C1569 C1568 1.374 . S
C1570 C1567 1.499 . S
C1570 C1571 1.373 . S
C1570 C1572 1.389 . S
C1571 H1550 0.950 . S
C1571 C1570 1.373 . S
C1571 C1587 1.377 . S
C1572 C1570 1.389 . S
C1572 C1573 1.524 . S
C1572 C1586 1.377 . S
C1573 C1572 1.524 . S
C1573 C1574 1.397 . S
C1573 C1578 1.363 . S
C1574 H1551 0.950 . S
C1574 C1573 1.397 . S
C1574 C1575 1.334 . S
C1575 H1552 0.950 . S
C1575 C1574 1.334 . S
C1575 C1576 1.287 . S
C1576 C1575 1.287 . S
C1576 C1577 1.524 . S
C1576 H1595 0.913 . S
C1577 H1553 0.950 . S
C1577 C1576 1.524 . S
C1577 C1578 1.415 . S
C1578 H1554 0.950 . S
C1578 C1573 1.363 . S
C1578 C1577 1.415 . S
C1579 H1555 0.951 . S
C1579 C1580 1.366 . S
C1579 C1581 1.388 . S
C1580 C1579 1.366 . S
C1580 C1584 1.385 . S
C1581 H1556 0.951 . S
C1581 C1579 1.388 . S
C1581 C1582 1.366 . S
C1582 C1581 1.366 . S
C1582 C1583 1.414 . S
C1582 C1585 1.499 . S
C1583 H1557 0.950 . S
C1583 C1582 1.414 . S
C1583 C1584 1.374 . S
C1584 H1558 0.950 . S
C1584 C1580 1.385 . S
C1584 C1583 1.374 . S
C1585 C1582 1.499 . S
C1585 C1586 1.373 . S
C1585 C1587 1.389 . S
C1586 H1559 0.950 . S
C1586 C1572 1.377 . S
C1586 C1585 1.373 . S
C1587 C1571 1.377 . S
C1587 C1585 1.389 . S
C1587 C1588 1.524 . S
C1588 C1587 1.524 . S
C1588 C1589 1.397 . S
C1588 C1593 1.363 . S
C1589 H1560 0.950 . S
C1589 C1588 1.397 . S
C1589 C1590 1.334 . S
C1590 H1561 0.950 . S
C1590 C1589 1.334 . S
C1590 C1591 1.287 . S
C1591 C1590 1.287 . S
C1591 C1592 1.524 . S
C1591 H1594 0.999 . S
C1592 H1562 0.950 . S
C1592 C1591 1.524 . S
C1592 C1593 1.415 . S
C1593 H1563 0.950 . S
C1593 C1588 1.363 . S
C1593 C1592 1.415 . S
H1594 C1591 0.999 . S
H1595 C1576 0.913 . S
H1596 C1614 0.951 . S
H1597 C1616 0.951 . S
H1598 C1618 0.950 . S
H1599 C1619 0.950 . S
H1600 C1621 0.950 . S
H1601 C1624 0.950 . S
H1602 C1625 0.950 . S
H1603 C1627 0.950 . S
H1604 C1628 0.950 . S
H1605 C1629 0.951 . S
H1606 C1631 0.951 . S
H1607 C1633 0.950 . S
H1608 C1634 0.950 . S
H1609 C1636 0.950 . S
H1610 C1639 0.950 . S
H1611 C1640 0.950 . S
H1612 C1642 0.950 . S
H1613 C1643 0.950 . S
C1614 H1596 0.951 . S
C1614 C1615 1.366 . S
C1614 C1616 1.388 . S
C1615 C1614 1.366 . S
C1615 C1619 1.385 . S
C1616 H1597 0.951 . S
C1616 C1614 1.388 . S
C1616 C1617 1.366 . S
C1617 C1616 1.366 . S
C1617 C1618 1.414 . S
C1617 C1620 1.499 . S
C1618 H1598 0.950 . S
C1618 C1617 1.414 . S
C1618 C1619 1.374 . S
C1619 H1599 0.950 . S
C1619 C1615 1.385 . S
C1619 C1618 1.374 . S
C1620 C1617 1.499 . S
C1620 C1621 1.373 . S
C1620 C1622 1.389 . S
C1621 H1600 0.950 . S
C1621 C1620 1.373 . S
C1621 C1637 1.377 . S
C1622 C1620 1.389 . S
C1622 C1623 1.524 . S
C1622 C1636 1.377 . S
C1623 C1622 1.524 . S
C1623 C1624 1.397 . S
C1623 C1628 1.363 . S
C1624 H1601 0.950 . S
C1624 C1623 1.397 . S
C1624 C1625 1.334 . S
C1625 H1602 0.950 . S
C1625 C1624 1.334 . S
C1625 C1626 1.287 . S
C1626 C1625 1.287 . S
C1626 C1627 1.524 . S
C1626 H1645 0.913 . S
C1627 H1603 0.950 . S
C1627 C1626 1.524 . S
C1627 C1628 1.415 . S
C1628 H1604 0.950 . S
C1628 C1623 1.363 . S
C1628 C1627 1.415 . S
C1629 H1605 0.951 . S
C1629 C1630 1.366 . S
C1629 C1631 1.388 . S
C1630 C1629 1.366 . S
C1630 C1634 1.385 . S
C1631 H1606 0.951 . S
C1631 C1629 1.388 . S
C1631 C1632 1.366 . S
C1632 C1631 1.366 . S
C1632 C1633 1.414 . S
C1632 C1635 1.499 . S
C1633 H1607 0.950 . S
C1633 C1632 1.414 . S
C1633 C1634 1.374 . S
C1634 H1608 0.950 . S
C1634 C1630 1.385 . S
C1634 C1633 1.374 . S
C1635 C1632 1.499 . S
C1635 C1636 1.373 . S
C1635 C1637 1.389 . S
C1636 H1609 0.950 . S
C1636 C1622 1.377 . S
C1636 C1635 1.373 . S
C1637 C1621 1.377 . S
C1637 C1635 1.389 . S
C1637 C1638 1.524 . S
C1638 C1637 1.524 . S
C1638 C1639 1.397 . S
C1638 C1643 1.363 . S
C1639 H1610 0.950 . S
C1639 C1638 1.397 . S
C1639 C1640 1.334 . S
C1640 H1611 0.950 . S
C1640 C1639 1.334 . S
C1640 C1641 1.287 . S
C1641 C1640 1.287 . S
C1641 C1642 1.524 . S
C1641 H1644 0.999 . S
C1642 H1612 0.950 . S
C1642 C1641 1.524 . S
C1642 C1643 1.415 . S
C1643 H1613 0.950 . S
C1643 C1638 1.363 . S
C1643 C1642 1.415 . S
H1644 C1641 0.999 . S
H1645 C1626 0.913 . S
H1646 C1664 0.951 . S
H1647 C1666 0.951 . S
H1648 C1668 0.950 . S
H1649 C1669 0.950 . S
H1650 C1671 0.950 . S
H1651 C1674 0.950 . S
H1652 C1675 0.950 . S
H1653 C1677 0.950 . S
H1654 C1678 0.950 . S
H1655 C1679 0.951 . S
H1656 C1681 0.951 . S
H1657 C1683 0.950 . S
H1658 C1684 0.950 . S
H1659 C1686 0.950 . S
H1660 C1689 0.950 . S
H1661 C1690 0.950 . S
H1662 C1692 0.950 . S
H1663 C1693 0.950 . S
C1664 H1646 0.951 . S
C1664 C1665 1.366 . S
C1664 C1666 1.388 . S
C1665 C1664 1.366 . S
C1665 C1669 1.385 . S
C1666 H1647 0.951 . S
C1666 C1664 1.388 . S
C1666 C1667 1.366 . S
C1667 C1666 1.366 . S
C1667 C1668 1.414 . S
C1667 C1670 1.499 . S
C1668 H1648 0.950 . S
C1668 C1667 1.414 . S
C1668 C1669 1.374 . S
C1669 H1649 0.950 . S
C1669 C1665 1.385 . S
C1669 C1668 1.374 . S
C1670 C1667 1.499 . S
C1670 C1671 1.373 . S
C1670 C1672 1.389 . S
C1671 H1650 0.950 . S
C1671 C1670 1.373 . S
C1671 C1687 1.377 . S
C1672 C1670 1.389 . S
C1672 C1673 1.524 . S
C1672 C1686 1.377 . S
C1673 C1672 1.524 . S
C1673 C1674 1.397 . S
C1673 C1678 1.363 . S
C1674 H1651 0.950 . S
C1674 C1673 1.397 . S
C1674 C1675 1.334 . S
C1675 H1652 0.950 . S
C1675 C1674 1.334 . S
C1675 C1676 1.287 . S
C1676 C1675 1.287 . S
C1676 C1677 1.524 . S
C1676 H1695 0.913 . S
C1677 H1653 0.950 . S
C1677 C1676 1.524 . S
C1677 C1678 1.415 . S
C1678 H1654 0.950 . S
C1678 C1673 1.363 . S
C1678 C1677 1.415 . S
C1679 H1655 0.951 . S
C1679 C1680 1.366 . S
C1679 C1681 1.388 . S
C1680 C1679 1.366 . S
C1680 C1684 1.385 . S
C1681 H1656 0.951 . S
C1681 C1679 1.388 . S
C1681 C1682 1.366 . S
C1682 C1681 1.366 . S
C1682 C1683 1.414 . S
C1682 C1685 1.499 . S
C1683 H1657 0.950 . S
C1683 C1682 1.414 . S
C1683 C1684 1.374 . S
C1684 H1658 0.950 . S
C1684 C1680 1.385 . S
C1684 C1683 1.374 . S
C1685 C1682 1.499 . S
C1685 C1686 1.373 . S
C1685 C1687 1.389 . S
C1686 H1659 0.950 . S
C1686 C1672 1.377 . S
C1686 C1685 1.373 . S
C1687 C1671 1.377 . S
C1687 C1685 1.389 . S
C1687 C1688 1.524 . S
C1688 C1687 1.524 . S
C1688 C1689 1.397 . S
C1688 C1693 1.363 . S
C1689 H1660 0.950 . S
C1689 C1688 1.397 . S
C1689 C1690 1.334 . S
C1690 H1661 0.950 . S
C1690 C1689 1.334 . S
C1690 C1691 1.287 . S
C1691 C1690 1.287 . S
C1691 C1692 1.524 . S
C1691 H1694 0.999 . S
C1692 H1662 0.950 . S
C1692 C1691 1.524 . S
C1692 C1693 1.415 . S
C1693 H1663 0.950 . S
C1693 C1688 1.363 . S
C1693 C1692 1.415 . S
H1694 C1691 0.999 . S
H1695 C1676 0.913 . S
H1696 C1714 0.951 . S
H1697 C1716 0.951 . S
H1698 C1718 0.950 . S
H1699 C1719 0.950 . S
H1700 C1721 0.950 . S
H1701 C1724 0.950 . S
H1702 C1725 0.950 . S
H1703 C1727 0.950 . S
H1704 C1728 0.950 . S
H1705 C1729 0.951 . S
H1706 C1731 0.951 . S
H1707 C1733 0.950 . S
H1708 C1734 0.950 . S
H1709 C1736 0.950 . S
H1710 C1739 0.950 . S
H1711 C1740 0.950 . S
H1712 C1742 0.950 . S
H1713 C1743 0.950 . S
C1714 H1696 0.951 . S
C1714 C1715 1.366 . S
C1714 C1716 1.388 . S
C1715 C1714 1.366 . S
C1715 C1719 1.385 . S
C1716 H1697 0.951 . S
C1716 C1714 1.388 . S
C1716 C1717 1.366 . S
C1717 C1716 1.366 . S
C1717 C1718 1.414 . S
C1717 C1720 1.499 . S
C1718 H1698 0.950 . S
C1718 C1717 1.414 . S
C1718 C1719 1.374 . S
C1719 H1699 0.950 . S
C1719 C1715 1.385 . S
C1719 C1718 1.374 . S
C1720 C1717 1.499 . S
C1720 C1721 1.373 . S
C1720 C1722 1.389 . S
C1721 H1700 0.950 . S
C1721 C1720 1.373 . S
C1721 C1737 1.377 . S
C1722 C1720 1.389 . S
C1722 C1723 1.524 . S
C1722 C1736 1.377 . S
C1723 C1722 1.524 . S
C1723 C1724 1.397 . S
C1723 C1728 1.363 . S
C1724 H1701 0.950 . S
C1724 C1723 1.397 . S
C1724 C1725 1.334 . S
C1725 H1702 0.950 . S
C1725 C1724 1.334 . S
C1725 C1726 1.287 . S
C1726 C1725 1.287 . S
C1726 C1727 1.524 . S
C1726 H1745 0.913 . S
C1727 H1703 0.950 . S
C1727 C1726 1.524 . S
C1727 C1728 1.415 . S
C1728 H1704 0.950 . S
C1728 C1723 1.363 . S
C1728 C1727 1.415 . S
C1729 H1705 0.951 . S
C1729 C1730 1.366 . S
C1729 C1731 1.388 . S
C1730 C1729 1.366 . S
C1730 C1734 1.385 . S
C1731 H1706 0.951 . S
C1731 C1729 1.388 . S
C1731 C1732 1.366 . S
C1732 C1731 1.366 . S
C1732 C1733 1.414 . S
C1732 C1735 1.499 . S
C1733 H1707 0.950 . S
C1733 C1732 1.414 . S
C1733 C1734 1.374 . S
C1734 H1708 0.950 . S
C1734 C1730 1.385 . S
C1734 C1733 1.374 . S
C1735 C1732 1.499 . S
C1735 C1736 1.373 . S
C1735 C1737 1.389 . S
C1736 H1709 0.950 . S
C1736 C1722 1.377 . S
C1736 C1735 1.373 . S
C1737 C1721 1.377 . S
C1737 C1735 1.389 . S
C1737 C1738 1.524 . S
C1738 C1737 1.524 . S
C1738 C1739 1.397 . S
C1738 C1743 1.363 . S
C1739 H1710 0.950 . S
C1739 C1738 1.397 . S
C1739 C1740 1.334 . S
C1740 H1711 0.950 . S
C1740 C1739 1.334 . S
C1740 C1741 1.287 . S
C1741 C1740 1.287 . S
C1741 C1742 1.524 . S
C1741 H1744 0.999 . S
C1742 H1712 0.950 . S
C1742 C1741 1.524 . S
C1742 C1743 1.415 . S
C1743 H1713 0.950 . S
C1743 C1738 1.363 . S
C1743 C1742 1.415 . S
H1744 C1741 0.999 . S
H1745 C1726 0.913 . S
H1746 C1764 0.951 . S
H1747 C1766 0.951 . S
H1748 C1768 0.950 . S
H1749 C1769 0.950 . S
H1750 C1771 0.950 . S
H1751 C1774 0.950 . S
H1752 C1775 0.950 . S
H1753 C1777 0.950 . S
H1754 C1778 0.950 . S
H1755 C1779 0.951 . S
H1756 C1781 0.951 . S
H1757 C1783 0.950 . S
H1758 C1784 0.950 . S
H1759 C1786 0.950 . S
H1760 C1789 0.950 . S
H1761 C1790 0.950 . S
H1762 C1792 0.950 . S
H1763 C1793 0.950 . S
C1764 H1746 0.951 . S
C1764 C1765 1.366 . S
C1764 C1766 1.388 . S
C1765 C1764 1.366 . S
C1765 C1769 1.385 . S
C1766 H1747 0.951 . S
C1766 C1764 1.388 . S
C1766 C1767 1.366 . S
C1767 C1766 1.366 . S
C1767 C1768 1.414 . S
C1767 C1770 1.499 . S
C1768 H1748 0.950 . S
C1768 C1767 1.414 . S
C1768 C1769 1.374 . S
C1769 H1749 0.950 . S
C1769 C1765 1.385 . S
C1769 C1768 1.374 . S
C1770 C1767 1.499 . S
C1770 C1771 1.373 . S
C1770 C1772 1.389 . S
C1771 H1750 0.950 . S
C1771 C1770 1.373 . S
C1771 C1787 1.377 . S
C1772 C1770 1.389 . S
C1772 C1773 1.524 . S
C1772 C1786 1.377 . S
C1773 C1772 1.524 . S
C1773 C1774 1.397 . S
C1773 C1778 1.363 . S
C1774 H1751 0.950 . S
C1774 C1773 1.397 . S
C1774 C1775 1.334 . S
C1775 H1752 0.950 . S
C1775 C1774 1.334 . S
C1775 C1776 1.287 . S
C1776 C1775 1.287 . S
C1776 C1777 1.524 . S
C1776 H1795 0.913 . S
C1777 H1753 0.950 . S
C1777 C1776 1.524 . S
C1777 C1778 1.415 . S
C1778 H1754 0.950 . S
C1778 C1773 1.363 . S
C1778 C1777 1.415 . S
C1779 H1755 0.951 . S
C1779 C1780 1.366 . S
C1779 C1781 1.388 . S
C1780 C1779 1.366 . S
C1780 C1784 1.385 . S
C1781 H1756 0.951 . S
C1781 C1779 1.388 . S
C1781 C1782 1.366 . S
C1782 C1781 1.366 . S
C1782 C1783 1.414 . S
C1782 C1785 1.499 . S
C1783 H1757 0.950 . S
C1783 C1782 1.414 . S
C1783 C1784 1.374 . S
C1784 H1758 0.950 . S
C1784 C1780 1.385 . S
C1784 C1783 1.374 . S
C1785 C1782 1.499 . S
C1785 C1786 1.373 . S
C1785 C1787 1.389 . S
C1786 H1759 0.950 . S
C1786 C1772 1.377 . S
C1786 C1785 1.373 . S
C1787 C1771 1.377 . S
C1787 C1785 1.389 . S
C1787 C1788 1.524 . S
C1788 C1787 1.524 . S
C1788 C1789 1.397 . S
C1788 C1793 1.363 . S
C1789 H1760 0.950 . S
C1789 C1788 1.397 . S
C1789 C1790 1.334 . S
C1790 H1761 0.950 . S
C1790 C1789 1.334 . S
C1790 C1791 1.287 . S
C1791 C1790 1.287 . S
C1791 C1792 1.524 . S
C1791 H1794 0.999 . S
C1792 H1762 0.950 . S
C1792 C1791 1.524 . S
C1792 C1793 1.415 . S
C1793 H1763 0.950 . S
C1793 C1788 1.363 . S
C1793 C1792 1.415 . S
H1794 C1791 0.999 . S
H1795 C1776 0.913 . S
H1796 C1814 0.951 . S
H1797 C1816 0.951 . S
H1798 C1818 0.950 . S
H1799 C1819 0.950 . S
H1800 C1821 0.950 . S
H1801 C1824 0.950 . S
H1802 C1825 0.950 . S
H1803 C1827 0.950 . S
H1804 C1828 0.950 . S
H1805 C1829 0.951 . S
H1806 C1831 0.951 . S
H1807 C1833 0.950 . S
H1808 C1834 0.950 . S
H1809 C1836 0.950 . S
H1810 C1839 0.950 . S
H1811 C1840 0.950 . S
H1812 C1842 0.950 . S
H1813 C1843 0.950 . S
C1814 H1796 0.951 . S
C1814 C1815 1.366 . S
C1814 C1816 1.388 . S
C1815 C1814 1.366 . S
C1815 C1819 1.385 . S
C1816 H1797 0.951 . S
C1816 C1814 1.388 . S
C1816 C1817 1.366 . S
C1817 C1816 1.366 . S
C1817 C1818 1.414 . S
C1817 C1820 1.499 . S
C1818 H1798 0.950 . S
C1818 C1817 1.414 . S
C1818 C1819 1.374 . S
C1819 H1799 0.950 . S
C1819 C1815 1.385 . S
C1819 C1818 1.374 . S
C1820 C1817 1.499 . S
C1820 C1821 1.373 . S
C1820 C1822 1.389 . S
C1821 H1800 0.950 . S
C1821 C1820 1.373 . S
C1821 C1837 1.377 . S
C1822 C1820 1.389 . S
C1822 C1823 1.524 . S
C1822 C1836 1.377 . S
C1823 C1822 1.524 . S
C1823 C1824 1.397 . S
C1823 C1828 1.363 . S
C1824 H1801 0.950 . S
C1824 C1823 1.397 . S
C1824 C1825 1.334 . S
C1825 H1802 0.950 . S
C1825 C1824 1.334 . S
C1825 C1826 1.287 . S
C1826 C1825 1.287 . S
C1826 C1827 1.524 . S
C1826 H1845 0.913 . S
C1827 H1803 0.950 . S
C1827 C1826 1.524 . S
C1827 C1828 1.415 . S
C1828 H1804 0.950 . S
C1828 C1823 1.363 . S
C1828 C1827 1.415 . S
C1829 H1805 0.951 . S
C1829 C1830 1.366 . S
C1829 C1831 1.388 . S
C1830 C1829 1.366 . S
C1830 C1834 1.385 . S
C1831 H1806 0.951 . S
C1831 C1829 1.388 . S
C1831 C1832 1.366 . S
C1832 C1831 1.366 . S
C1832 C1833 1.414 . S
C1832 C1835 1.499 . S
C1833 H1807 0.950 . S
C1833 C1832 1.414 . S
C1833 C1834 1.374 . S
C1834 H1808 0.950 . S
C1834 C1830 1.385 . S
C1834 C1833 1.374 . S
C1835 C1832 1.499 . S
C1835 C1836 1.373 . S
C1835 C1837 1.389 . S
C1836 H1809 0.950 . S
C1836 C1822 1.377 . S
C1836 C1835 1.373 . S
C1837 C1821 1.377 . S
C1837 C1835 1.389 . S
C1837 C1838 1.524 . S
C1838 C1837 1.524 . S
C1838 C1839 1.397 . S
C1838 C1843 1.363 . S
C1839 H1810 0.950 . S
C1839 C1838 1.397 . S
C1839 C1840 1.334 . S
C1840 H1811 0.950 . S
C1840 C1839 1.334 . S
C1840 C1841 1.287 . S
C1841 C1840 1.287 . S
C1841 C1842 1.524 . S
C1841 H1844 0.999 . S
C1842 H1812 0.950 . S
C1842 C1841 1.524 . S
C1842 C1843 1.415 . S
C1843 H1813 0.950 . S
C1843 C1838 1.363 . S
C1843 C1842 1.415 . S
H1844 C1841 0.999 . S
H1845 C1826 0.913 . S
H1846 C1864 0.951 . S
H1847 C1866 0.951 . S
H1848 C1868 0.950 . S
H1849 C1869 0.950 . S
H1850 C1871 0.950 . S
H1851 C1874 0.950 . S
H1852 C1875 0.950 . S
H1853 C1877 0.950 . S
H1854 C1878 0.950 . S
H1855 C1879 0.951 . S
H1856 C1881 0.951 . S
H1857 C1883 0.950 . S
H1858 C1884 0.950 . S
H1859 C1886 0.950 . S
H1860 C1889 0.950 . S
H1861 C1890 0.950 . S
H1862 C1892 0.950 . S
H1863 C1893 0.950 . S
C1864 H1846 0.951 . S
C1864 C1865 1.366 . S
C1864 C1866 1.388 . S
C1865 C1864 1.366 . S
C1865 C1869 1.385 . S
C1866 H1847 0.951 . S
C1866 C1864 1.388 . S
C1866 C1867 1.366 . S
C1867 C1866 1.366 . S
C1867 C1868 1.414 . S
C1867 C1870 1.499 . S
C1868 H1848 0.950 . S
C1868 C1867 1.414 . S
C1868 C1869 1.374 . S
C1869 H1849 0.950 . S
C1869 C1865 1.385 . S
C1869 C1868 1.374 . S
C1870 C1867 1.499 . S
C1870 C1871 1.373 . S
C1870 C1872 1.389 . S
C1871 H1850 0.950 . S
C1871 C1870 1.373 . S
C1871 C1887 1.377 . S
C1872 C1870 1.389 . S
C1872 C1873 1.524 . S
C1872 C1886 1.377 . S
C1873 C1872 1.524 . S
C1873 C1874 1.397 . S
C1873 C1878 1.363 . S
C1874 H1851 0.950 . S
C1874 C1873 1.397 . S
C1874 C1875 1.334 . S
C1875 H1852 0.950 . S
C1875 C1874 1.334 . S
C1875 C1876 1.287 . S
C1876 C1875 1.287 . S
C1876 C1877 1.524 . S
C1876 H1895 0.913 . S
C1877 H1853 0.950 . S
C1877 C1876 1.524 . S
C1877 C1878 1.415 . S
C1878 H1854 0.950 . S
C1878 C1873 1.363 . S
C1878 C1877 1.415 . S
C1879 H1855 0.951 . S
C1879 C1880 1.366 . S
C1879 C1881 1.388 . S
C1880 C1879 1.366 . S
C1880 C1884 1.385 . S
C1881 H1856 0.951 . S
C1881 C1879 1.388 . S
C1881 C1882 1.366 . S
C1882 C1881 1.366 . S
C1882 C1883 1.414 . S
C1882 C1885 1.499 . S
C1883 H1857 0.950 . S
C1883 C1882 1.414 . S
C1883 C1884 1.374 . S
C1884 H1858 0.950 . S
C1884 C1880 1.385 . S
C1884 C1883 1.374 . S
C1885 C1882 1.499 . S
C1885 C1886 1.373 . S
C1885 C1887 1.389 . S
C1886 H1859 0.950 . S
C1886 C1872 1.377 . S
C1886 C1885 1.373 . S
C1887 C1871 1.377 . S
C1887 C1885 1.389 . S
C1887 C1888 1.524 . S
C1888 C1887 1.524 . S
C1888 C1889 1.397 . S
C1888 C1893 1.363 . S
C1889 H1860 0.950 . S
C1889 C1888 1.397 . S
C1889 C1890 1.334 . S
C1890 H1861 0.950 . S
C1890 C1889 1.334 . S
C1890 C1891 1.287 . S
C1891 C1890 1.287 . S
C1891 C1892 1.524 . S
C1891 H1894 0.999 . S
C1892 H1862 0.950 . S
C1892 C1891 1.524 . S
C1892 C1893 1.415 . S
C1893 H1863 0.950 . S
C1893 C1888 1.363 . S
C1893 C1892 1.415 . S
H1894 C1891 0.999 . S
H1895 C1876 0.913 . S
C415 N14 1.530 . S
C430 N113 1.530 . S
C465 N146 1.529 . S
C480 N47 1.529 . S
C515 N179 1.529 . S
C530 N80 1.529 . S
C565 N311 1.530 . S
C580 N212 1.530 . S
C615 N344 1.530 . S
C630 N245 1.530 . S
C665 N278 1.529 . S
C680 N377 1.529 . S
C715 C8 0.892 . S
C730 N170 0.891 . S
C765 N5 0.891 . S
C780 C41 0.891 . S
C815 C74 0.892 . S
C830 N38 0.891 . S
C865 N71 0.891 . S
C880 C107 0.891 . S
C915 N104 0.891 . S
C930 C140 0.891 . S
C965 N137 0.891 . S
C980 C173 0.892 . S
C1015 N236 0.891 . S
C1030 C206 0.892 . S
C1065 N269 0.891 . S
C1080 C239 0.892 . S
C1115 N302 0.891 . S
C1130 C272 0.891 . S
C1165 C305 0.892 . S
C1180 N335 0.891 . S
C1215 C338 0.892 . S
C1230 N368 0.891 . S
C1265 C371 0.891 . S
C1280 N203 0.891 . S
C1315 C292 1.154 . S
C1330 C28 1.153 . S
C1365 C61 1.154 . S
C1380 C325 1.154 . S
C1415 C94 1.153 . S
C1430 C358 1.154 . S
C1465 C127 1.154 . S
C1480 C391 1.153 . S
C1515 C226 1.154 . S
C1530 C160 1.153 . S
C1565 C193 1.154 . S
C1580 C259 1.153 . S
C1615 C380 1.436 . S
C1630 C116 1.436 . S
C1665 C215 1.436 . S
C1680 C149 1.436 . S
C1715 C248 1.437 . S
C1730 C182 1.436 . S
C1765 C17 1.437 . S
C1780 C281 1.436 . S
C1815 C50 1.436 . S
C1830 C314 1.436 . S
C1865 C83 1.437 . S
C1880 C347 1.436 . S
