# Generated by pormake.
# Topology irl, (4)-cn, num edge types: 1
# Building blocks:
#     Node 0, Type 0, BuildingBlock: QUQFOY_clean_sbu_3, # of connection points: 4
#     Node 1, Type 0, BuildingBlock: QUQFOY_clean_sbu_3, # of connection points: 4
#     Node 2, Type 0, BuildingBlock: QUQFOY_clean_sbu_3, # of connection points: 4
#     Node 3, Type 0, BuildingBlock: QUQFOY_clean_sbu_3, # of connection points: 4
#     Node 4, Type 0, BuildingBlock: QUQFOY_clean_sbu_3, # of connection points: 4
#     Node 5, Type 0, BuildingBlock: QUQFOY_clean_sbu_3, # of connection points: 4
#     Node 6, Type 0, BuildingBlock: QUQFOY_clean_sbu_3, # of connection points: 4
#     Node 7, Type 0, BuildingBlock: QUQFOY_clean_sbu_3, # of connection points: 4
#     Edge 8, Type (0, 0), BuildingBlock: UVAHIK_clean_linker_0, # of connection points: 2
#     Edge 9, Type (0, 0), BuildingBlock: UVAHIK_clean_linker_0, # of connection points: 2
#     Edge 10, Type (0, 0), BuildingBlock: UVAHIK_clean_linker_0, # of connection points: 2
#     Edge 11, Type (0, 0), BuildingBlock: UVAHIK_clean_linker_0, # of connection points: 2
#     Edge 12, Type (0, 0), BuildingBlock: UVAHIK_clean_linker_0, # of connection points: 2
#     Edge 13, Type (0, 0), BuildingBlock: UVAHIK_clean_linker_0, # of connection points: 2
#     Edge 14, Type (0, 0), BuildingBlock: UVAHIK_clean_linker_0, # of connection points: 2
#     Edge 15, Type (0, 0), BuildingBlock: UVAHIK_clean_linker_0, # of connection points: 2
#     Edge 16, Type (0, 0), BuildingBlock: UVAHIK_clean_linker_0, # of connection points: 2
#     Edge 17, Type (0, 0), BuildingBlock: UVAHIK_clean_linker_0, # of connection points: 2
#     Edge 18, Type (0, 0), BuildingBlock: UVAHIK_clean_linker_0, # of connection points: 2
#     Edge 19, Type (0, 0), BuildingBlock: UVAHIK_clean_linker_0, # of connection points: 2
#     Edge 20, Type (0, 0), BuildingBlock: UVAHIK_clean_linker_0, # of connection points: 2
#     Edge 21, Type (0, 0), BuildingBlock: UVAHIK_clean_linker_0, # of connection points: 2
#     Edge 22, Type (0, 0), BuildingBlock: UVAHIK_clean_linker_0, # of connection points: 2
#     Edge 23, Type (0, 0), BuildingBlock: UVAHIK_clean_linker_0, # of connection points: 2
# Relax obj value: 0.063
# Max RMSD: 0.124
# Mean RMSD: 0.124
data_MOF--net-irl--node1-QUQFOY_clean_sbu_3--edge1-UVAHIK_clean_linker_0
_symmetry_space_group_name_H-M    P1
_symmetry_Int_Tables_number       1
_symmetry_cell_setting            triclinic
loop_
_symmetry_equiv_pos_as_xyz
'x, y, z'
_cell_length_a     44.724252
_cell_length_b     57.596054
_cell_length_c     36.950288
_cell_angle_alpha  90.10574
_cell_angle_beta   89.996753
_cell_angle_gamma 90.001056
loop_
_atom_site_label
_atom_site_type_symbol
_atom_site_fract_x
_atom_site_fract_y
_atom_site_fract_z
_atom_type_partial_charge
C0 C 0.98511 0.21168 0.94961 0.0
O1 O 0.96523 0.21009 0.97401 0.0
Cd2 Cd 0.97984 0.19653 0.03321 0.0
O3 O 0.01214 0.20643 0.95637 0.0
Cd4 Cd 0.04784 0.1938 0.00185 0.0
C5 C 0.00961 0.143 0.01045 0.0
O6 O 0.025 0.21715 0.04844 0.0
O7 O 0.06157 0.19529 0.06563 0.0
O8 O 0.07836 0.22219 0.97157 0.0
C9 C 0.04203 0.21039 0.07373 0.0
O10 O 0.98867 0.15496 0.02461 0.0
C11 C 0.10164 0.20972 0.96922 0.0
O12 O 0.03333 0.15275 -0.00121 0.0
O13 O 0.10002 0.18924 0.9819 0.0
C14 C 0.98685 0.82966 0.9012 0.0
O15 O 0.01185 0.82993 0.91743 0.0
Cd16 Cd 0.01221 0.84186 0.98016 0.0
O17 O 0.96298 0.83426 0.91832 0.0
Cd18 Cd 0.94159 0.8427 0.97695 0.0
C19 C 0.97592 0.89486 0.97869 0.0
O20 O 0.97606 0.81834 0.01159 0.0
O21 O 0.94343 0.83879 0.04142 0.0
O22 O 0.91039 0.8114 0.95753 0.0
C23 C 0.96393 0.82359 0.04158 0.0
O24 O -0.00016 0.88302 0.98161 0.0
C25 C 0.88547 0.82108 0.96359 0.0
O26 O 0.95064 0.88483 0.97536 0.0
O27 O 0.88615 0.84185 0.9755 0.0
C28 C 0.98527 0.79091 0.52745 0.0
O29 O 0.96413 0.79265 0.50467 0.0
Cd30 Cd 0.97453 0.80649 0.44441 0.0
O31 O 0.01189 0.79625 0.51873 0.0
Cd32 Cd 0.04402 0.80936 0.4698 0.0
C33 C 0.00493 0.86007 0.46502 0.0
O34 O 0.01863 0.78602 0.42508 0.0
O35 O 0.05343 0.80876 0.40518 0.0
O36 O 0.07847 0.78093 0.49316 0.0
C37 C 0.03418 0.79314 0.39865 0.0
O38 O 0.98331 0.84815 0.45237 0.0
C39 C 0.10077 0.79446 0.49537 0.0
O40 O 0.02923 0.85028 0.47462 0.0
O41 O 0.09667 0.81547 0.48612 0.0
C42 C 0.98422 0.17547 0.57772 0.0
O43 O 0.01002 0.17408 0.56361 0.0
Cd44 Cd 0.01413 0.16036 0.50203 0.0
O45 O 0.96115 0.17092 0.55903 0.0
Cd46 Cd 0.94489 0.16118 0.49823 0.0
C47 C 0.97677 0.10814 0.50226 0.0
O48 O 0.98219 0.18382 0.4644 0.0
O49 O 0.95153 0.16189 0.43405 0.0
O50 O 0.91231 0.19362 0.50808 0.0
C51 C 0.97178 0.17729 0.43407 0.0
O52 O 0.00133 0.11928 0.50092 0.0
C53 C 0.88795 0.18316 0.50176 0.0
O54 O 0.9519 0.11893 0.50301 0.0
O55 O 0.88962 0.16162 0.49421 0.0
C56 C 0.50271 0.68781 0.94758 0.0
O57 O 0.48075 0.68698 0.9693 0.0
Cd58 Cd 0.4899 0.67389 0.03002 0.0
O59 O 0.52886 0.68247 0.95817 0.0
Cd60 Cd 0.5601 0.67111 0.00903 0.0
C61 C 0.52252 0.62018 0.01385 0.0
O62 O 0.53261 0.69592 0.04961 0.0
O63 O 0.56682 0.67453 0.07416 0.0
O64 O 0.59055 0.7007 0.98238 0.0
C65 C 0.54741 0.69045 0.07756 0.0
O66 O 0.50025 0.63243 0.0238 0.0
C67 C 0.61517 0.68988 0.98398 0.0
O68 O 0.5474 0.62968 0.00582 0.0
O69 O 0.61445 0.66935 -0.00335 0.0
C70 C 0.50416 0.30394 0.93497 0.0
O71 O 0.52453 0.30499 0.95886 0.0
Cd72 Cd 0.51177 0.31751 0.01939 0.0
O73 O 0.47736 0.30933 0.94272 0.0
Cd74 Cd 0.4437 0.32172 -0.00939 0.0
C75 C 0.48283 0.37191 0.00229 0.0
O76 O 0.46677 0.29698 0.03575 0.0
O77 O 0.43041 0.31901 0.05387 0.0
O78 O 0.41004 0.29425 0.96284 0.0
C79 C 0.44943 0.30337 0.06107 0.0
O80 O 0.50396 0.35935 0.01454 0.0
C81 C 0.38802 0.308 0.96013 0.0
O82 O 0.45869 0.36274 -0.00923 0.0
O83 O 0.39195 0.32873 0.9711 0.0
C84 C 0.51145 0.31965 0.55598 0.0
O85 O 0.48608 0.32005 0.54056 0.0
Cd86 Cd 0.48243 0.33023 0.47743 0.0
O87 O 0.53513 0.32346 0.53796 0.0
Cd88 Cd 0.55433 0.33073 0.47744 0.0
C89 C 0.51947 0.38299 0.4762 0.0
O90 O 0.51805 0.30639 0.44622 0.0
O91 O 0.54856 0.32631 0.41287 0.0
O92 O 0.58773 0.29998 0.49373 0.0
C93 C 0.52779 0.31137 0.41494 0.0
O94 O 0.49537 0.37129 0.47401 0.0
C95 C 0.61187 0.31053 0.48661 0.0
O96 O 0.5447 0.37281 0.47914 0.0
O97 O 0.60964 0.33135 0.47538 0.0
C98 C 0.49942 0.69689 0.56803 0.0
O99 O 0.52412 0.69641 0.55109 0.0
Cd100 Cd 0.52429 0.68649 0.4874 0.0
O101 O 0.47511 0.69236 0.55177 0.0
Cd102 Cd 0.45199 0.68294 0.49457 0.0
C103 C 0.49108 0.63234 0.4879 0.0
O104 O 0.48459 0.70907 0.46122 0.0
O105 O 0.45109 0.69017 0.43051 0.0
O106 O 0.41613 0.71023 0.51769 0.0
C107 C 0.47212 0.70491 0.43109 0.0
O108 O 0.51429 0.64489 0.48391 0.0
C109 C 0.39311 0.69799 0.51161 0.0
O110 O 0.46556 0.64156 0.49348 0.0
O111 O 0.39731 0.67802 0.49773 0.0
C112 C 0.95257 0.9344 0.9854 0.0
C113 C 0.978 0.92052 0.97981 0.0
C114 C 0.95528 0.95857 -0.01166 0.0
C115 C 0.01176 0.00425 0.0078 0.0
H116 H 0.95234 0.04567 0.96713 0.0
C117 C 0.0299 0.10331 -0.00362 0.0
C118 C 0.00588 0.11752 0.00701 0.0
C119 C 0.02614 0.07929 -0.00691 0.0
C120 C 0.96899 0.03428 0.97886 0.0
H121 H 0.02606 0.92123 0.97161 0.0
H122 H 0.03062 0.96311 0.97573 0.0
H123 H 0.94609 0.00373 0.96085 0.0
H124 H 0.95898 0.11755 0.02228 0.0
H125 H 0.95249 0.07571 0.01634 0.0
H126 H 0.03485 0.03483 0.02531 0.0
C127 C 0.00868 0.95542 0.97896 0.0
C128 C 0.96538 0.01026 0.97537 0.0
C129 C 0.00602 0.93135 0.97634 0.0
C130 C 0.978 0.10715 0.0141 0.0
C131 C 0.97418 0.08318 0.01047 0.0
C132 C 0.01548 0.02823 0.01101 0.0
C133 C 0.98345 0.96934 0.98549 0.0
C134 C 0.98679 0.99493 -0.01031 0.0
C135 C -0.00179 0.06899 1e-05 0.0
C136 C 0.99418 0.04351 -0.00347 0.0
H137 H 0.93068 0.92658 -0.01168 0.0
H138 H 0.93539 0.96873 -0.00631 0.0
H139 H 0.02838 0.99299 0.01987 0.0
H140 H 0.05166 0.11072 -0.00929 0.0
H141 H 0.045 0.06879 0.98469 0.0
C142 C 0.97341 0.89606 0.463 0.0
C143 C 0.00128 0.88552 0.46943 0.0
C144 C 0.96962 0.91993 0.46794 0.0
C145 C 0.00357 0.97087 0.51362 0.0
H146 H 0.95483 0.00589 0.4462 0.0
C147 C 0.00495 0.07074 0.50669 0.0
C148 C 0.9776 0.08241 0.50199 0.0
C149 C 0.00639 0.04658 0.50474 0.0
C150 C 0.96817 0.99629 0.46553 0.0
H151 H 0.04714 0.89198 0.48572 0.0
H152 H 0.04068 0.9337 0.49362 0.0
H153 H 0.9608 0.96413 0.43789 0.0
H154 H 0.93018 0.07771 0.49203 0.0
H155 H 0.93277 0.03531 0.48848 0.0
H156 H 0.01138 0.00317 0.5408 0.0
C157 C 0.02157 0.92341 0.48544 0.0
C158 C 0.97162 0.97235 0.46078 0.0
C159 C 0.02533 0.89949 0.48066 0.0
C160 C 0.95159 0.06927 0.4958 0.0
C161 C 0.9531 0.04502 0.49355 0.0
C162 C 0.00024 0.99481 0.51823 0.0
C163 C 0.99362 0.93392 0.47927 0.0
C164 C 0.98951 0.95935 0.48465 0.0
C165 C 0.98056 0.03344 0.49783 0.0
C166 C 0.98267 0.00781 0.49411 0.0
H167 H 0.95432 0.88583 0.45452 0.0
H168 H 0.94769 0.92735 0.46343 0.0
H169 H 0.01701 0.96136 0.53294 0.0
H170 H 0.02543 0.08029 0.51155 0.0
H171 H 0.02793 0.03821 0.50776 0.0
C172 C 0.49012 0.58483 0.01152 0.0
C173 C 0.51889 0.59467 0.01116 0.0
C174 C 0.4863 0.56083 0.00918 0.0
C175 C 0.52562 0.50631 0.98378 0.0
H176 H 0.46186 0.47786 0.0394 0.0
C177 C 0.51521 0.40729 0.00609 0.0
C178 C 0.48667 0.39745 0.00146 0.0
C179 C 0.51903 0.43135 0.00577 0.0
C180 C 0.47956 0.4856 0.02345 0.0
H181 H 0.56625 0.58694 0.00807 0.0
H182 H 0.55967 0.54491 0.0051 0.0
H183 H 0.46935 0.5197 0.04259 0.0
H184 H 0.43976 0.40522 -0.00719 0.0
H185 H 0.44644 0.44738 -0.00719 0.0
H186 H 0.53621 0.47193 0.96551 0.0
C187 C 0.53998 0.55581 0.00637 0.0
C188 C 0.48385 0.5096 0.02517 0.0
C189 C 0.54379 0.57991 0.00829 0.0
C190 C 0.46203 0.41224 -0.00358 0.0
C191 C 0.46581 0.43636 -0.00341 0.0
C192 C 0.52152 0.48225 0.98241 0.0
C193 C 0.51116 0.54595 0.00688 0.0
C194 C 0.50688 0.52031 0.00526 0.0
C195 C 0.49436 0.44613 0.00127 0.0
C196 C 0.49842 0.47168 0.00217 0.0
H197 H 0.4704 0.5957 0.01329 0.0
H198 H 0.46376 0.55399 0.00884 0.0
H199 H 0.54324 0.51393 0.9676 0.0
H200 H 0.5347 0.3964 0.00991 0.0
H201 H 0.54124 0.43841 0.00975 0.0
C202 C 0.48956 0.4197 0.47519 0.0
C203 C 0.51764 0.40871 0.47588 0.0
C204 C 0.48738 0.44386 0.47543 0.0
C205 C 0.52953 0.49691 0.49903 0.0
H206 H 0.46821 0.52715 0.44175 0.0
C207 C 0.52263 0.5965 0.48346 0.0
C208 C 0.49413 0.60672 0.48607 0.0
C209 C 0.5258 0.57241 0.48171 0.0
C210 C 0.48525 0.51894 0.45816 0.0
H211 H 0.56553 0.41464 0.47701 0.0
H212 H 0.56172 0.45696 0.4769 0.0
H213 H 0.47389 0.4851 0.43862 0.0
H214 H 0.44658 0.5995 0.48878 0.0
H215 H 0.45215 0.55734 0.48571 0.0
H216 H 0.54095 0.53083 0.51839 0.0
C217 C 0.54135 0.44679 0.47672 0.0
C218 C 0.48853 0.49483 0.45638 0.0
C219 C 0.54355 0.42253 0.47659 0.0
C220 C 0.46884 0.59222 0.48679 0.0
C221 C 0.47202 0.56808 0.48482 0.0
C222 C 0.52633 0.52103 0.50067 0.0
C223 C 0.51321 0.45774 0.4762 0.0
C224 C 0.51058 0.48349 0.47698 0.0
C225 C 0.50055 0.55792 0.48234 0.0
C226 C 0.50406 0.5323 0.4804 0.0
H227 H 0.46909 0.40966 0.47481 0.0
H228 H 0.46535 0.45166 0.47565 0.0
H229 H 0.54643 0.48873 0.51568 0.0
H230 H 0.54263 0.6071 0.4828 0.0
H231 H 0.54805 0.56513 0.47939 0.0
C232 C 0.01076 0.22928 0.12127 0.0
C233 C 0.03721 0.21772 0.11145 0.0
C234 C 0.0042 0.23323 0.15766 0.0
C235 C 0.03323 0.23306 0.25074 0.0
H236 H 0.96003 0.19993 0.27256 0.0
C237 C 0.00894 0.19358 0.39085 0.0
C238 C 0.97916 0.18959 0.40066 0.0
C239 C 0.01559 0.20334 0.35718 0.0
C240 C 0.98008 0.20989 0.2673 0.0
H241 H 0.07869 0.20306 0.13149 0.0
H242 H 0.06717 0.21006 0.19517 0.0
H243 H 0.97301 0.20761 0.2103 0.0
H244 H 0.93287 0.19438 0.3854 0.0
H245 H 0.94418 0.21282 0.32787 0.0
H246 H 0.04042 0.23523 0.3079 0.0
C247 C 0.05157 0.21599 0.17475 0.0
C248 C 0.98754 0.21419 0.23142 0.0
C249 C 0.05799 0.21178 0.13838 0.0
C250 C 0.95605 0.19688 0.37779 0.0
C251 C 0.9626 0.20731 0.34479 0.0
C252 C 0.02546 0.22915 0.28688 0.0
C253 C 0.02414 0.22597 0.18469 0.0
C254 C 0.01449 0.22528 0.22279 0.0
C255 C 0.99244 0.20983 0.33335 0.0
C256 C -0.00087 0.21696 0.29556 0.0
H257 H 0.99443 0.23419 0.10103 0.0
H258 H 0.98294 0.24102 0.1648 0.0
H259 H 0.05415 0.24168 0.24458 0.0
H260 H 0.02703 0.18812 0.40838 0.0
H261 H 0.03882 0.20475 0.34929 0.0
C262 C 0.00217 0.77277 0.35338 0.0
C263 C 0.02851 0.78497 0.36155 0.0
C264 C 0.995 0.7676 0.31753 0.0
C265 C 0.02263 0.76553 0.2238 0.0
H266 H 0.94913 0.79808 0.20142 0.0
C267 C -2e-05 0.80588 0.08468 0.0
C268 C 0.97043 0.81047 0.07449 0.0
C269 C 0.00594 0.79539 0.11796 0.0
C270 C 0.96923 0.78823 0.20684 0.0
H271 H 0.0692 0.79963 0.33927 0.0
H272 H 0.05665 0.79053 0.27655 0.0
H273 H 0.9623 0.79112 0.2638 0.0
H274 H 0.92383 0.80593 0.08854 0.0
H275 H 0.93395 0.78621 0.14539 0.0
H276 H 0.02977 0.76285 0.16672 0.0
C277 C 0.04159 0.785 0.29783 0.0
C278 C 0.9768 0.78433 0.2428 0.0
C279 C 0.04858 0.79044 0.33362 0.0
C280 C 0.94685 0.80299 0.09648 0.0
C281 C 0.95272 0.7918 0.12908 0.0
C282 C 0.01475 0.769 0.18761 0.0
C283 C 0.01429 0.77426 0.28944 0.0
C284 C 0.00399 0.77367 0.2516 0.0
C285 C 0.98233 0.78872 0.141 0.0
C286 C 0.98844 0.78117 0.17872 0.0
H287 H 0.98639 0.76821 0.37445 0.0
H288 H 0.97382 0.7593 0.31157 0.0
H289 H 0.04369 0.75718 0.2301 0.0
H290 H 0.01844 0.81149 0.06783 0.0
H291 H 0.02903 0.79361 0.12624 0.0
C292 C 0.9507 0.78734 0.58045 0.0
C293 C 0.97929 0.78459 0.56536 0.0
C294 C 0.94683 0.78603 0.61793 0.0
C295 C 0.9855 0.77197 0.7046 0.0
H296 H 0.94596 0.82789 0.73827 0.0
C297 C 0.00918 0.81397 0.84375 0.0
C298 C 0.98437 0.82242 0.86299 0.0
C299 C 0.00578 0.80598 0.80822 0.0
C300 C 0.95669 0.81201 0.72942 0.0
H301 H 0.02551 0.77583 0.57694 0.0
H302 H 0.01887 0.77386 0.64189 0.0
H303 H 0.94244 0.81702 0.67492 0.0
H304 H 0.93658 0.82918 0.86001 0.0
H305 H 0.93084 0.81527 0.79852 0.0
H306 H 0.00067 0.76757 0.75915 0.0
C307 C -0.0006 0.77701 0.62516 0.0
C308 C 0.95449 0.80567 0.69314 0.0
C309 C 0.00327 0.77838 0.58789 0.0
C310 C 0.95624 0.82287 0.84597 0.0
C311 C 0.95289 0.81494 0.81065 0.0
C312 C 0.98777 0.77837 0.74096 0.0
C313 C 0.97145 0.78183 0.6407 0.0
C314 C 0.96939 0.78587 0.68017 0.0
C315 C 0.97756 0.80641 0.79141 0.0
C316 C 0.97384 0.79869 0.75351 0.0
H317 H 0.93177 0.79197 0.56365 0.0
H318 H 0.92491 0.78946 0.62921 0.0
H319 H -0.003 0.7565 0.69538 0.0
H320 H 0.03109 0.81333 0.85618 0.0
H321 H 0.02526 0.79975 0.79375 0.0
C322 C 0.00016 0.22528 0.88863 0.0
C323 C 0.97733 0.21822 0.91227 0.0
C324 C 0.99472 0.22729 0.85173 0.0
C325 C 0.94788 0.19956 0.78451 0.0
H326 H 0.99257 0.23917 0.71913 0.0
C327 C 0.95149 0.18328 0.63097 0.0
C328 C 0.98019 0.18348 0.61538 0.0
C329 C 0.947 0.19143 0.66605 0.0
C330 C 0.97996 0.22802 0.73712 0.0
H331 H 0.93024 0.20976 0.91645 0.0
H332 H 0.92059 0.21335 0.85145 0.0
H333 H 0.98939 0.24926 0.78328 0.0
H334 H 0.02667 0.19255 0.62433 0.0
H335 H 0.01883 0.20665 0.68608 0.0
H336 H 0.93918 0.17797 0.73862 0.0
C337 C 0.94282 0.21701 0.86159 0.0
C338 C 0.97802 0.23382 0.77373 0.0
C339 C 0.94828 0.21508 0.89875 0.0
C340 C 0.00434 0.19209 0.63564 0.0
C341 C -0.00021 0.20038 0.67079 0.0
C342 C 0.94965 0.19386 0.7479 0.0
C343 C 0.96631 0.22226 0.8376 0.0
C344 C 0.96281 0.21922 0.79802 0.0
C345 C 0.97108 0.20004 0.6863 0.0
C346 C 0.96646 0.20765 0.7241 0.0
H347 H 0.02272 0.22813 0.89837 0.0
H348 H 0.0134 0.23116 0.83409 0.0
H349 H 0.9364 0.18773 0.80253 0.0
H350 H 0.93233 0.17683 0.61609 0.0
H351 H 0.92463 0.1911 0.67728 0.0
C352 C 0.51819 0.71778 0.11614 0.0
C353 C 0.54224 0.70228 0.11232 0.0
C354 C 0.51207 0.72792 0.14959 0.0
C355 C 0.54096 0.73885 0.2414 0.0
H356 H 0.46118 0.72111 0.27138 0.0
C357 C 0.51133 0.71699 0.3876 0.0
C358 C 0.48125 0.71676 0.39799 0.0
C359 C 0.51923 0.72437 0.35293 0.0
C360 C 0.48322 0.72702 0.26357 0.0
H361 H 0.57983 0.6863 0.13977 0.0
H362 H 0.56891 0.70391 0.19845 0.0
H363 H 0.4751 0.71764 0.20859 0.0
H364 H 0.43618 0.72636 0.38298 0.0
H365 H 0.45005 0.74089 0.32341 0.0
H366 H 0.54927 0.74783 0.29668 0.0
C367 C 0.55496 0.7083 0.17548 0.0
C368 C 0.49122 0.72487 0.22738 0.0
C369 C 0.56096 0.698 0.14206 0.0
C370 C 0.45949 0.72604 0.37497 0.0
C371 C 0.46748 0.73419 0.34085 0.0
C372 C 0.53278 0.74143 0.27768 0.0
C373 C 0.53003 0.72288 0.17969 0.0
C374 C 0.52044 0.72991 0.21624 0.0
C375 C 0.49717 0.73219 0.32859 0.0
C376 C 0.50415 0.73461 0.28946 0.0
H377 H 0.50354 0.72157 0.09356 0.0
H378 H 0.49274 0.73914 0.15226 0.0
H379 H 0.56358 0.74304 0.23322 0.0
H380 H 0.52838 0.70988 0.40523 0.0
H381 H 0.54227 0.72234 0.34456 0.0
C382 C 0.48652 0.29138 0.38172 0.0
C383 C 0.51584 0.30012 0.3823 0.0
C384 C 0.47449 0.28259 0.34959 0.0
C385 C 0.49227 0.261 0.25878 0.0
H386 H 0.42905 0.30164 0.22537 0.0
C387 C 0.47895 0.28492 0.11031 0.0
C388 C 0.45158 0.2934 0.09752 0.0
C389 C 0.48179 0.2779 0.14626 0.0
C390 C 0.44599 0.2895 0.23425 0.0
H391 H 0.55624 0.30519 0.35089 0.0
H392 H 0.53541 0.28942 0.29501 0.0
H393 H 0.44341 0.30225 0.28855 0.0
H394 H 0.40502 0.29931 0.1108 0.0
H395 H 0.40946 0.28596 0.17309 0.0
H396 H 0.49536 0.24851 0.20443 0.0
C397 C 0.52171 0.28949 0.3192 0.0
C398 C 0.45424 0.28995 0.27059 0.0
C399 C 0.53348 0.29875 0.35099 0.0
C400 C 0.42654 0.29325 0.12037 0.0
C401 C 0.42915 0.28566 0.15606 0.0
C402 C 0.4836 0.26016 0.22251 0.0
C403 C 0.49193 0.28188 0.31803 0.0
C404 C 0.47835 0.27653 0.28271 0.0
C405 C 0.45707 0.27874 0.16988 0.0
C406 C 0.46139 0.2753 0.20941 0.0
H407 H 0.47253 0.29225 0.40562 0.0
H408 H 0.45138 0.27695 0.34909 0.0
H409 H 0.51083 0.25037 0.26777 0.0
H410 H 0.49857 0.28488 0.0931 0.0
H411 H 0.50378 0.27307 0.15585 0.0
C412 C 0.48755 0.29092 0.87414 0.0
C413 C 0.51104 0.29732 0.89734 0.0
C414 C 0.49265 0.28771 0.83737 0.0
C415 C 0.54144 0.30957 0.76703 0.0
H416 H 0.49585 0.26707 0.70696 0.0
C417 C 0.54243 0.31468 0.61155 0.0
C418 C 0.51419 0.314 0.59479 0.0
C419 C 0.54553 0.30913 0.64802 0.0
C420 C 0.50868 0.27904 0.72344 0.0
H421 H 0.55868 0.30389 0.90073 0.0
H422 H 0.56768 0.29826 0.83587 0.0
H423 H 0.49711 0.26148 0.77245 0.0
H424 H 0.4671 0.30678 0.60315 0.0
H425 H 0.47253 0.29726 0.66723 0.0
H426 H 0.55231 0.32751 0.71819 0.0
C427 C 0.54526 0.29595 0.84634 0.0
C428 C 0.50951 0.2758 0.76083 0.0
C429 C 0.54016 0.29906 0.8834 0.0
C430 C 0.48912 0.3075 0.61529 0.0
C431 C 0.49227 0.30186 0.65185 0.0
C432 C 0.54071 0.31274 0.72965 0.0
C433 C 0.52136 0.29085 0.82287 0.0
C434 C 0.52518 0.29144 0.7831 0.0
C435 C 0.52051 0.30272 0.66855 0.0
C436 C 0.52367 0.29787 0.70762 0.0
H437 H 0.46489 0.2892 0.88416 0.0
H438 H 0.47368 0.28405 0.82004 0.0
H439 H 0.55333 0.32212 0.78347 0.0
H440 H 0.56227 0.31952 0.59654 0.0
H441 H 0.56757 0.30976 0.66014 0.0
C442 C 0.52403 0.69893 0.88796 0.0
C443 C 0.49872 0.69549 0.90985 0.0
C444 C 0.52091 0.70521 0.85188 0.0
C445 C 0.46908 0.69892 0.7772 0.0
H446 H 0.52667 0.73818 0.72798 0.0
C447 C 0.47 0.7066 0.62313 0.0
C448 C 0.49802 0.70292 0.60679 0.0
C449 C 0.46786 0.71086 0.66008 0.0
C450 C 0.51046 0.7272 0.74142 0.0
H451 H 0.45027 0.69683 0.91144 0.0
H452 H 0.44479 0.70781 0.84779 0.0
H453 H 0.52552 0.7373 0.79409 0.0
H454 H 0.54587 0.70186 0.61609 0.0
H455 H 0.54206 0.70898 0.68123 0.0
H456 H 0.4546 0.68826 0.7247 0.0
C457 C 0.46704 0.70545 0.85879 0.0
C458 C 0.50973 0.72673 0.77915 0.0
C459 C 0.47016 0.6992 0.89514 0.0
C460 C 0.52399 0.70452 0.62797 0.0
C461 C 0.52181 0.70876 0.66514 0.0
C462 C 0.46973 0.69947 0.73953 0.0
C463 C 0.49243 0.70823 0.83675 0.0
C464 C 0.48961 0.71206 0.79736 0.0
C465 C 0.49365 0.7115 0.68157 0.0
C466 C 0.49093 0.71315 0.72131 0.0
H467 H 0.5464 0.69639 0.89846 0.0
H468 H 0.54089 0.7068 0.83548 0.0
H469 H 0.45363 0.6872 0.79043 0.0
H470 H 0.44953 0.70585 0.6075 0.0
H471 H 0.44592 0.71327 0.67196 0.0
C472 C 0.33477 0.315 0.9421 0.0
C473 C 0.35872 0.29961 0.94725 0.0
C474 C 0.3063 0.30652 0.93375 0.0
C475 C 0.26454 0.25251 0.90823 0.0
H476 H 0.2013 0.28132 0.96426 0.0
C477 C 0.15625 0.20639 0.95465 0.0
C478 C 0.12969 0.21941 0.95456 0.0
C479 C 0.18332 0.21672 0.94473 0.0
C480 C 0.21858 0.2733 0.94793 0.0
H481 H 0.37201 0.26338 0.94606 0.0
H482 H 0.32246 0.24859 0.93288 0.0
H483 H 0.25044 0.29912 0.96285 0.0
H484 H 0.11034 0.253 0.94184 0.0
H485 H 0.15755 0.27096 0.92482 0.0
H486 H 0.23267 0.22594 0.89515 0.0
C487 C 0.32553 0.26722 0.93439 0.0
C488 C 0.24679 0.28356 0.94696 0.0
C489 C 0.35398 0.2757 0.94229 0.0
C490 C 0.13047 0.24255 0.94256 0.0
C491 C 0.15748 0.25288 0.93285 0.0
C492 C 0.23633 0.24208 0.90958 0.0
C493 C 0.30117 0.28246 0.93084 0.0
C494 C 0.2703 0.27309 0.92767 0.0
C495 C 0.18426 0.24026 0.93474 0.0
C496 C 0.21325 0.25221 0.92992 0.0
H497 H 0.33784 0.33354 0.94538 0.0
H498 H 0.28817 0.31879 0.93046 0.0
H499 H 0.28198 0.24418 0.89257 0.0
H500 H 0.15631 0.1885 0.96363 0.0
H501 H 0.20371 0.20664 0.94663 0.0
C502 C 0.64295 0.72553 0.96635 0.0
C503 C 0.64327 0.70161 0.97375 0.0
C504 C 0.66948 0.7375 0.95994 0.0
C505 C 0.75055 0.73317 0.97737 0.0
H506 H 0.75329 0.78769 0.91586 0.0
C507 C 0.85883 0.78397 0.95132 0.0
C508 C 0.85742 0.80791 0.95872 0.0
C509 C 0.83284 0.77073 0.94924 0.0
C510 C 0.75272 0.77254 0.93319 0.0
H511 H 0.67151 0.67122 0.97852 0.0
H512 H 0.71804 0.692 0.96604 0.0
H513 H 0.70824 0.76373 0.91711 0.0
H514 H 0.82757 0.83691 0.96845 0.0
H515 H 0.78173 0.8136 0.96418 0.0
H516 H 0.79528 0.74188 -0.00713 0.0
C517 C 0.69727 0.70165 0.96625 0.0
C518 C 0.72696 0.75882 0.93403 0.0
C519 C 0.67063 0.68969 0.97315 0.0
C520 C 0.82932 0.8185 0.96279 0.0
C521 C 0.80317 0.80522 0.96022 0.0
C522 C 0.77642 0.74668 0.97607 0.0
C523 C 0.69705 0.72582 0.96026 0.0
C524 C 0.72538 0.73915 0.95658 0.0
C525 C 0.80481 0.78115 0.95408 0.0
C526 C 0.7776 0.76662 0.95433 0.0
H527 H 0.62224 0.73528 0.96672 0.0
H528 H 0.66835 0.75611 0.95611 0.0
H529 H 0.75004 0.71848 -0.00442 0.0
H530 H 0.88011 0.77525 0.94795 0.0
H531 H 0.83465 0.75225 0.94414 0.0
C532 C 0.15446 0.80078 0.51208 0.0
C533 C 0.13037 0.78561 0.50632 0.0
C534 C 0.1829 0.79201 0.51978 0.0
C535 C 0.22353 0.73768 0.54501 0.0
H536 H 0.28933 0.76749 0.49504 0.0
C537 C 0.33727 0.69382 0.51308 0.0
C538 C 0.36297 0.70737 0.51876 0.0
C539 C 0.30885 0.70359 0.51737 0.0
C540 C 0.27122 0.75914 0.50952 0.0
H541 H 0.1169 0.74942 0.50504 0.0
H542 H 0.16641 0.73417 0.51715 0.0
H543 H 0.23976 0.78472 0.49247 0.0
H544 H 0.37909 0.74148 0.53463 0.0
H545 H 0.32958 0.75845 0.54164 0.0
H546 H 0.25512 0.71151 0.56057 0.0
C547 C 0.16344 0.75282 0.51668 0.0
C548 C 0.24282 0.76908 0.50824 0.0
C549 C 0.13503 0.76158 0.50942 0.0
C550 C 0.35973 0.7306 0.52986 0.0
C551 C 0.33141 0.74037 0.53379 0.0
C552 C 0.25192 0.72758 0.54588 0.0
C553 C 0.18785 0.76789 0.52143 0.0
C554 C 0.21852 0.75835 0.52564 0.0
C555 C 0.30574 0.72708 0.52705 0.0
C556 C 0.27594 0.73815 0.52789 0.0
H557 H 0.15145 0.8194 0.51017 0.0
H558 H 0.20108 0.80414 0.52397 0.0
H559 H 0.20545 0.72916 0.55926 0.0
H560 H 0.33911 0.67587 0.5046 0.0
H561 H 0.28933 0.69302 0.51181 0.0
C562 C 0.66807 0.31046 0.48707 0.0
C563 C 0.64086 0.2985 0.4904 0.0
C564 C 0.69523 0.29852 0.49018 0.0
C565 C 0.72738 0.24257 0.52263 0.0
H566 H 0.7928 0.25866 0.45859 0.0
C567 C 0.8318 0.18447 0.50038 0.0
C568 C 0.8594 0.19604 0.50219 0.0
C569 C 0.80508 0.19714 0.50028 0.0
C570 C 0.77475 0.25408 0.47678 0.0
H571 H 0.62071 0.2647 0.49936 0.0
H572 H 0.66766 0.24395 0.50364 0.0
H573 H 0.74656 0.28103 0.45641 0.0
H574 H 0.88069 0.22988 0.50531 0.0
H575 H 0.83422 0.25181 0.50467 0.0
H576 H 0.75551 0.21521 0.54224 0.0
C577 C 0.6683 0.26257 0.49966 0.0
C578 C 0.74832 0.26698 0.47571 0.0
C579 C 0.64131 0.27448 0.49692 0.0
C580 C 0.85978 0.22043 0.50392 0.0
C581 C 0.8332 0.23303 0.50335 0.0
C582 C 0.75368 0.22951 0.52337 0.0
C583 C 0.69563 0.27439 0.49636 0.0
C584 C 0.72426 0.26134 0.49855 0.0
C585 C 0.80562 0.22154 0.50145 0.0
C586 C 0.77758 0.23514 0.50043 0.0
H587 H 0.66839 0.32899 0.48218 0.0
H588 H 0.71587 0.30823 0.48796 0.0
H589 H 0.70955 0.238 0.54112 0.0
H590 H 0.83085 0.1657 0.49905 0.0
H591 H 0.78403 0.18789 0.49863 0.0
loop_
_geom_bond_atom_site_label_1
_geom_bond_atom_site_label_2
_geom_bond_distance
_geom_bond_site_symmetry_2
_ccdc_geom_bond_type
C0 O1 1.324 . S
C0 O3 1.160 . S
O1 C0 1.324 . S
O1 Cd2 2.219 1_456 S
Cd2 O1 2.219 1_654 S
Cd2 O6 2.273 1_655 S
Cd2 O10 2.277 1_655 S
O3 C0 1.160 . S
O3 Cd4 2.203 1_556 S
Cd4 O3 2.203 1_554 S
Cd4 O6 2.411 . S
Cd4 O7 2.333 . S
Cd4 O8 2.352 . S
Cd4 O12 2.277 . S
Cd4 O13 2.356 . S
C5 O10 1.209 . S
C5 O12 1.226 . S
O6 Cd2 2.273 1_455 S
O6 Cd4 2.411 . S
O6 C9 1.320 . S
O7 Cd4 2.333 . S
O7 C9 1.214 . S
O8 Cd4 2.352 . S
O8 C11 1.258 . S
C9 O6 1.320 . S
C9 O7 1.214 . S
O10 Cd2 2.277 1_455 S
O10 C5 1.209 . S
C11 O8 1.258 . S
C11 O13 1.282 . S
O12 Cd4 2.277 . S
O12 C5 1.226 . S
O13 Cd4 2.356 . S
O13 C11 1.282 . S
C14 O15 1.324 . S
C14 O17 1.160 . S
O15 C14 1.324 . S
O15 Cd16 2.219 1_656 S
Cd16 O15 2.219 1_454 S
Cd16 O20 2.273 1_455 S
Cd16 O24 2.277 1_455 S
O17 C14 1.160 . S
O17 Cd18 2.203 1_556 S
Cd18 O17 2.203 1_554 S
Cd18 O20 2.411 . S
Cd18 O21 2.333 . S
Cd18 O22 2.352 . S
Cd18 O26 2.277 . S
Cd18 O27 2.356 . S
C19 O24 1.209 . S
C19 O26 1.226 . S
O20 Cd16 2.273 1_655 S
O20 Cd18 2.411 . S
O20 C23 1.320 . S
O21 Cd18 2.333 . S
O21 C23 1.214 . S
O22 Cd18 2.352 . S
O22 C25 1.258 . S
C23 O20 1.320 . S
C23 O21 1.214 . S
O24 Cd16 2.277 1_655 S
O24 C19 1.209 . S
C25 O22 1.258 . S
C25 O27 1.282 . S
O26 Cd18 2.277 . S
O26 C19 1.226 . S
O27 Cd18 2.356 . S
O27 C25 1.282 . S
C28 O29 1.324 . S
C28 O31 1.160 . S
O29 C28 1.324 . S
O29 Cd30 2.219 1_455 S
Cd30 O29 2.219 1_655 S
Cd30 O34 2.273 1_655 S
Cd30 O38 2.277 1_655 S
O31 C28 1.160 . S
O31 Cd32 2.203 . S
Cd32 O31 2.203 . S
Cd32 O34 2.411 . S
Cd32 O35 2.333 . S
Cd32 O36 2.352 . S
Cd32 O40 2.277 . S
Cd32 O41 2.356 . S
C33 O38 1.209 . S
C33 O40 1.226 . S
O34 Cd30 2.273 1_455 S
O34 Cd32 2.411 . S
O34 C37 1.320 . S
O35 Cd32 2.333 . S
O35 C37 1.214 . S
O36 Cd32 2.352 . S
O36 C39 1.258 . S
C37 O34 1.320 . S
C37 O35 1.214 . S
O38 Cd30 2.277 1_455 S
O38 C33 1.209 . S
C39 O36 1.258 . S
C39 O41 1.282 . S
O40 Cd32 2.277 . S
O40 C33 1.226 . S
O41 Cd32 2.356 . S
O41 C39 1.282 . S
C42 O43 1.324 . S
C42 O45 1.160 . S
O43 C42 1.324 . S
O43 Cd44 2.219 1_655 S
Cd44 O43 2.219 1_455 S
Cd44 O48 2.273 1_455 S
Cd44 O52 2.277 1_455 S
O45 C42 1.160 . S
O45 Cd46 2.203 . S
Cd46 O45 2.203 . S
Cd46 O48 2.411 . S
Cd46 O49 2.333 . S
Cd46 O50 2.352 . S
Cd46 O54 2.277 . S
Cd46 O55 2.356 . S
C47 O52 1.209 . S
C47 O54 1.226 . S
O48 Cd44 2.273 1_655 S
O48 Cd46 2.411 . S
O48 C51 1.320 . S
O49 Cd46 2.333 . S
O49 C51 1.214 . S
O50 Cd46 2.352 . S
O50 C53 1.258 . S
C51 O48 1.320 . S
C51 O49 1.214 . S
O52 Cd44 2.277 1_655 S
O52 C47 1.209 . S
C53 O50 1.258 . S
C53 O55 1.282 . S
O54 Cd46 2.277 . S
O54 C47 1.226 . S
O55 Cd46 2.356 . S
O55 C53 1.282 . S
C56 O57 1.306 . S
C56 O59 1.160 . S
O57 C56 1.306 . S
O57 Cd58 2.228 1_556 S
Cd58 O57 2.228 1_554 S
Cd58 O62 2.273 . S
Cd58 O66 2.277 . S
O59 C56 1.160 . S
O59 Cd60 2.203 1_556 S
Cd60 O59 2.203 1_554 S
Cd60 O62 2.411 . S
Cd60 O63 2.333 . S
Cd60 O64 2.352 . S
Cd60 O68 2.277 . S
Cd60 O69 2.356 . S
C61 O66 1.209 . S
C61 O68 1.226 . S
O62 Cd58 2.273 . S
O62 Cd60 2.411 . S
O62 C65 1.320 . S
O63 Cd60 2.333 . S
O63 C65 1.214 . S
O64 Cd60 2.352 . S
O64 C67 1.258 . S
C65 O62 1.320 . S
C65 O63 1.214 . S
O66 Cd58 2.277 . S
O66 C61 1.209 . S
C67 O64 1.258 . S
C67 O69 1.282 . S
O68 Cd60 2.277 . S
O68 C61 1.226 . S
O69 Cd60 2.356 . S
O69 C67 1.282 . S
C70 O71 1.306 . S
C70 O73 1.160 . S
O71 C70 1.306 . S
O71 Cd72 2.228 1_556 S
Cd72 O71 2.228 1_554 S
Cd72 O76 2.273 . S
Cd72 O80 2.277 . S
O73 C70 1.160 . S
O73 Cd74 2.203 1_556 S
Cd74 O73 2.203 1_554 S
Cd74 O76 2.411 . S
Cd74 O77 2.333 . S
Cd74 O78 2.352 . S
Cd74 O82 2.277 . S
Cd74 O83 2.356 . S
C75 O80 1.209 . S
C75 O82 1.226 . S
O76 Cd72 2.273 . S
O76 Cd74 2.411 . S
O76 C79 1.320 . S
O77 Cd74 2.333 . S
O77 C79 1.214 . S
O78 Cd74 2.352 . S
O78 C81 1.258 . S
C79 O76 1.320 . S
C79 O77 1.214 . S
O80 Cd72 2.277 . S
O80 C75 1.209 . S
C81 O78 1.258 . S
C81 O83 1.282 . S
O82 Cd74 2.277 . S
O82 C75 1.226 . S
O83 Cd74 2.356 . S
O83 C81 1.282 . S
C84 O85 1.306 . S
C84 O87 1.160 . S
O85 C84 1.306 . S
O85 Cd86 2.228 . S
Cd86 O85 2.228 . S
Cd86 O90 2.273 . S
Cd86 O94 2.277 . S
O87 C84 1.160 . S
O87 Cd88 2.203 . S
Cd88 O87 2.203 . S
Cd88 O90 2.411 . S
Cd88 O91 2.333 . S
Cd88 O92 2.352 . S
Cd88 O96 2.277 . S
Cd88 O97 2.356 . S
C89 O94 1.209 . S
C89 O96 1.226 . S
O90 Cd86 2.273 . S
O90 Cd88 2.411 . S
O90 C93 1.320 . S
O91 Cd88 2.333 . S
O91 C93 1.214 . S
O92 Cd88 2.352 . S
O92 C95 1.258 . S
C93 O90 1.320 . S
C93 O91 1.214 . S
O94 Cd86 2.277 . S
O94 C89 1.209 . S
C95 O92 1.258 . S
C95 O97 1.282 . S
O96 Cd88 2.277 . S
O96 C89 1.226 . S
O97 Cd88 2.356 . S
O97 C95 1.282 . S
C98 O99 1.306 . S
C98 O101 1.160 . S
O99 C98 1.306 . S
O99 Cd100 2.228 . S
Cd100 O99 2.228 . S
Cd100 O104 2.273 . S
Cd100 O108 2.277 . S
O101 C98 1.160 . S
O101 Cd102 2.203 . S
Cd102 O101 2.203 . S
Cd102 O104 2.411 . S
Cd102 O105 2.333 . S
Cd102 O106 2.352 . S
Cd102 O110 2.277 . S
Cd102 O111 2.356 . S
C103 O108 1.209 . S
C103 O110 1.226 . S
O104 Cd100 2.273 . S
O104 Cd102 2.411 . S
O104 C107 1.320 . S
O105 Cd102 2.333 . S
O105 C107 1.214 . S
O106 Cd102 2.352 . S
O106 C109 1.258 . S
C107 O104 1.320 . S
C107 O105 1.214 . S
O108 Cd100 2.277 . S
O108 C103 1.209 . S
C109 O106 1.258 . S
C109 O111 1.282 . S
O110 Cd102 2.277 . S
O110 C103 1.226 . S
O111 Cd102 2.356 . S
O111 C109 1.282 . S
C112 C113 1.349 1_556 S
C112 C114 1.327 . S
C112 H137 0.950 . S
C113 C112 1.349 1_554 S
C113 C129 1.349 . S
C114 C112 1.327 . S
C114 C133 1.429 1_556 S
C114 H138 0.950 . S
C115 C132 1.574 1_565 S
C115 C134 1.368 1_455 S
C115 H139 0.949 . S
H116 C120 0.949 . S
C117 C118 1.349 . S
C117 C119 1.327 . S
C117 H140 0.950 . S
C118 C117 1.349 . S
C118 C130 1.349 1_554 S
C119 C117 1.327 . S
C119 C135 1.429 . S
C119 H141 0.950 . S
C120 H116 0.949 . S
C120 C128 1.574 1_545 S
C120 C136 1.368 1_656 S
H121 C129 0.950 . S
H122 C127 0.950 1_455 S
H123 C128 0.949 . S
H124 C130 0.950 . S
H125 C131 0.950 1_655 S
H126 C132 0.949 . S
C127 H122 0.950 1_655 S
C127 C129 1.327 . S
C127 C133 1.429 . S
C128 C120 1.574 1_565 S
C128 H123 0.949 . S
C128 C134 1.368 1_556 S
C129 C113 1.349 . S
C129 H121 0.950 . S
C129 C127 1.327 . S
C130 C118 1.349 1_556 S
C130 H124 0.950 . S
C130 C131 1.327 . S
C131 H125 0.950 1_455 S
C131 C130 1.327 . S
C131 C135 1.429 1_556 S
C132 C115 1.574 1_545 S
C132 H126 0.949 . S
C132 C136 1.368 . S
C133 C114 1.429 1_554 S
C133 C127 1.429 . S
C133 C134 1.523 . S
C134 C115 1.368 1_655 S
C134 C128 1.368 1_554 S
C134 C133 1.523 . S
C135 C119 1.429 . S
C135 C131 1.429 1_554 S
C135 C136 1.523 . S
C136 C120 1.368 1_454 S
C136 C132 1.368 . S
C136 C135 1.523 . S
H137 C112 0.950 . S
H138 C114 0.950 . S
H139 C115 0.949 . S
H140 C117 0.950 . S
H141 C119 0.950 . S
C142 C143 1.349 . S
C142 C144 1.327 . S
C142 H167 0.950 . S
C143 C142 1.349 . S
C143 C159 1.349 . S
C144 C142 1.327 . S
C144 C163 1.429 . S
C144 H168 0.950 1_455 S
C145 C162 1.574 1_565 S
C145 C164 1.368 . S
C145 H169 0.949 . S
H146 C150 0.949 . S
C147 C148 1.349 . S
C147 C149 1.327 . S
C147 H170 0.950 . S
C148 C147 1.349 . S
C148 C160 1.349 . S
C149 C147 1.327 . S
C149 C165 1.429 . S
C149 H171 0.950 1_655 S
C150 H146 0.949 . S
C150 C158 1.574 1_545 S
C150 C166 1.368 . S
H151 C159 0.950 . S
H152 C157 0.950 . S
H153 C158 0.949 . S
H154 C160 0.950 . S
H155 C161 0.950 . S
H156 C162 0.949 . S
C157 H152 0.950 . S
C157 C159 1.327 . S
C157 C163 1.429 . S
C158 C150 1.574 1_565 S
C158 H153 0.949 . S
C158 C164 1.368 1_655 S
C159 C143 1.349 . S
C159 H151 0.950 . S
C159 C157 1.327 . S
C160 C148 1.349 . S
C160 H154 0.950 . S
C160 C161 1.327 . S
C161 H155 0.950 . S
C161 C160 1.327 . S
C161 C165 1.429 . S
C162 C145 1.574 1_545 S
C162 H156 0.949 . S
C162 C166 1.368 1_455 S
C163 C144 1.429 . S
C163 C157 1.429 . S
C163 C164 1.523 . S
C164 C145 1.368 . S
C164 C158 1.368 1_455 S
C164 C163 1.523 . S
C165 C149 1.429 . S
C165 C161 1.429 . S
C165 C166 1.523 . S
C166 C150 1.368 . S
C166 C162 1.368 1_655 S
C166 C165 1.523 . S
H167 C142 0.950 . S
H168 C144 0.950 1_655 S
H169 C145 0.949 . S
H170 C147 0.950 . S
H171 C149 0.950 1_455 S
C172 C173 1.349 . S
C172 C174 1.327 . S
C172 H197 0.950 . S
C173 C172 1.349 . S
C173 C189 1.349 1_554 S
C174 C172 1.327 . S
C174 C193 1.429 . S
C174 H198 0.950 . S
C175 C192 1.574 . S
C175 C194 1.368 1_556 S
C175 H199 0.949 . S
H176 C180 0.949 . S
C177 C178 1.349 1_556 S
C177 C179 1.327 . S
C177 H200 0.950 . S
C178 C177 1.349 1_554 S
C178 C190 1.349 . S
C179 C177 1.327 . S
C179 C195 1.429 1_556 S
C179 H201 0.950 . S
C180 H176 0.949 . S
C180 C188 1.574 . S
C180 C196 1.368 . S
H181 C189 0.950 . S
H182 C187 0.950 . S
H183 C188 0.949 . S
H184 C190 0.950 . S
H185 C191 0.950 . S
H186 C192 0.949 . S
C187 H182 0.950 . S
C187 C189 1.327 . S
C187 C193 1.429 1_556 S
C188 C180 1.574 . S
C188 H183 0.949 . S
C188 C194 1.368 . S
C189 C173 1.349 1_556 S
C189 H181 0.950 . S
C189 C187 1.327 . S
C190 C178 1.349 . S
C190 H184 0.950 . S
C190 C191 1.327 . S
C191 H185 0.950 . S
C191 C190 1.327 . S
C191 C195 1.429 . S
C192 C175 1.574 . S
C192 H186 0.949 . S
C192 C196 1.368 1_556 S
C193 C174 1.429 . S
C193 C187 1.429 1_554 S
C193 C194 1.523 . S
C194 C175 1.368 1_554 S
C194 C188 1.368 . S
C194 C193 1.523 . S
C195 C179 1.429 1_554 S
C195 C191 1.429 . S
C195 C196 1.523 . S
C196 C180 1.368 . S
C196 C192 1.368 1_554 S
C196 C195 1.523 . S
H197 C172 0.950 . S
H198 C174 0.950 . S
H199 C175 0.949 . S
H200 C177 0.950 . S
H201 C179 0.950 . S
C202 C203 1.349 . S
C202 C204 1.327 . S
C202 H227 0.950 . S
C203 C202 1.349 . S
C203 C219 1.349 . S
C204 C202 1.327 . S
C204 C223 1.429 . S
C204 H228 0.950 . S
C205 C222 1.574 . S
C205 C224 1.368 . S
C205 H229 0.949 . S
H206 C210 0.949 . S
C207 C208 1.349 . S
C207 C209 1.327 . S
C207 H230 0.950 . S
C208 C207 1.349 . S
C208 C220 1.349 . S
C209 C207 1.327 . S
C209 C225 1.429 . S
C209 H231 0.950 . S
C210 H206 0.949 . S
C210 C218 1.574 . S
C210 C226 1.368 . S
H211 C219 0.950 . S
H212 C217 0.950 . S
H213 C218 0.949 . S
H214 C220 0.950 . S
H215 C221 0.950 . S
H216 C222 0.949 . S
C217 H212 0.950 . S
C217 C219 1.327 . S
C217 C223 1.429 . S
C218 C210 1.574 . S
C218 H213 0.949 . S
C218 C224 1.368 . S
C219 C203 1.349 . S
C219 H211 0.950 . S
C219 C217 1.327 . S
C220 C208 1.349 . S
C220 H214 0.950 . S
C220 C221 1.327 . S
C221 H215 0.950 . S
C221 C220 1.327 . S
C221 C225 1.429 . S
C222 C205 1.574 . S
C222 H216 0.949 . S
C222 C226 1.368 . S
C223 C204 1.429 . S
C223 C217 1.429 . S
C223 C224 1.523 . S
C224 C205 1.368 . S
C224 C218 1.368 . S
C224 C223 1.523 . S
C225 C209 1.429 . S
C225 C221 1.429 . S
C225 C226 1.523 . S
C226 C210 1.368 . S
C226 C222 1.368 . S
C226 C225 1.523 . S
H227 C202 0.950 . S
H228 C204 0.950 . S
H229 C205 0.949 . S
H230 C207 0.950 . S
H231 C209 0.950 . S
C232 C233 1.349 . S
C232 C234 1.327 1_455 S
C232 H257 0.950 1_455 S
C233 C232 1.349 . S
C233 C249 1.349 . S
C234 C232 1.327 1_655 S
C234 C253 1.429 1_655 S
C234 H258 0.950 . S
C235 C252 1.574 . S
C235 C254 1.368 . S
C235 H259 0.949 . S
H236 C240 0.949 . S
C237 C238 1.349 . S
C237 C239 1.327 1_655 S
C237 H260 0.950 1_655 S
C238 C237 1.349 . S
C238 C250 1.349 . S
C239 C237 1.327 1_455 S
C239 C255 1.429 1_455 S
C239 H261 0.950 . S
C240 H236 0.949 . S
C240 C248 1.574 . S
C240 C256 1.368 . S
H241 C249 0.950 . S
H242 C247 0.950 . S
H243 C248 0.949 . S
H244 C250 0.950 . S
H245 C251 0.950 . S
H246 C252 0.949 . S
C247 H242 0.950 . S
C247 C249 1.327 . S
C247 C253 1.429 . S
C248 C240 1.574 . S
C248 H243 0.949 . S
C248 C254 1.368 1_655 S
C249 C233 1.349 . S
C249 H241 0.950 . S
C249 C247 1.327 . S
C250 C238 1.349 . S
C250 H244 0.950 . S
C250 C251 1.327 . S
C251 H245 0.950 . S
C251 C250 1.327 . S
C251 C255 1.429 . S
C252 C235 1.574 . S
C252 H246 0.949 . S
C252 C256 1.368 1_455 S
C253 C234 1.429 1_455 S
C253 C247 1.429 . S
C253 C254 1.523 . S
C254 C235 1.368 . S
C254 C248 1.368 1_455 S
C254 C253 1.523 . S
C255 C239 1.429 1_655 S
C255 C251 1.429 . S
C255 C256 1.523 . S
C256 C240 1.368 . S
C256 C252 1.368 1_655 S
C256 C255 1.523 . S
H257 C232 0.950 1_655 S
H258 C234 0.950 . S
H259 C235 0.949 . S
H260 C237 0.950 1_455 S
H261 C239 0.950 . S
C262 C263 1.349 . S
C262 C264 1.327 1_455 S
C262 H287 0.950 1_455 S
C263 C262 1.349 . S
C263 C279 1.349 . S
C264 C262 1.327 1_655 S
C264 C283 1.429 1_655 S
C264 H288 0.950 . S
C265 C282 1.574 . S
C265 C284 1.368 . S
C265 H289 0.949 . S
H266 C270 0.949 . S
C267 C268 1.349 . S
C267 C269 1.327 1_655 S
C267 H290 0.950 1_655 S
C268 C267 1.349 . S
C268 C280 1.349 . S
C269 C267 1.327 1_455 S
C269 C285 1.429 1_455 S
C269 H291 0.950 . S
C270 H266 0.949 . S
C270 C278 1.574 . S
C270 C286 1.368 . S
H271 C279 0.950 . S
H272 C277 0.950 . S
H273 C278 0.949 . S
H274 C280 0.950 . S
H275 C281 0.950 . S
H276 C282 0.949 . S
C277 H272 0.950 . S
C277 C279 1.327 . S
C277 C283 1.429 . S
C278 C270 1.574 . S
C278 H273 0.949 . S
C278 C284 1.368 1_655 S
C279 C263 1.349 . S
C279 H271 0.950 . S
C279 C277 1.327 . S
C280 C268 1.349 . S
C280 H274 0.950 . S
C280 C281 1.327 . S
C281 H275 0.950 . S
C281 C280 1.327 . S
C281 C285 1.429 . S
C282 C265 1.574 . S
C282 H276 0.949 . S
C282 C286 1.368 1_455 S
C283 C264 1.429 1_455 S
C283 C277 1.429 . S
C283 C284 1.523 . S
C284 C265 1.368 . S
C284 C278 1.368 1_455 S
C284 C283 1.523 . S
C285 C269 1.429 1_655 S
C285 C281 1.429 . S
C285 C286 1.523 . S
C286 C270 1.368 . S
C286 C282 1.368 1_655 S
C286 C285 1.523 . S
H287 C262 0.950 1_655 S
H288 C264 0.950 . S
H289 C265 0.949 . S
H290 C267 0.950 1_455 S
H291 C269 0.950 . S
C292 C293 1.349 . S
C292 C294 1.327 1_455 S
C292 H317 0.950 1_455 S
C293 C292 1.349 . S
C293 C309 1.349 . S
C294 C292 1.327 1_655 S
C294 C313 1.429 1_655 S
C294 H318 0.950 . S
C295 C312 1.574 . S
C295 C314 1.368 . S
C295 H319 0.949 . S
H296 C300 0.949 . S
C297 C298 1.349 . S
C297 C299 1.327 1_655 S
C297 H320 0.950 1_655 S
C298 C297 1.349 . S
C298 C310 1.349 . S
C299 C297 1.327 1_455 S
C299 C315 1.429 1_455 S
C299 H321 0.950 . S
C300 H296 0.949 . S
C300 C308 1.574 . S
C300 C316 1.368 . S
H301 C309 0.950 . S
H302 C307 0.950 . S
H303 C308 0.949 . S
H304 C310 0.950 . S
H305 C311 0.950 . S
H306 C312 0.949 . S
C307 H302 0.950 . S
C307 C309 1.327 . S
C307 C313 1.429 . S
C308 C300 1.574 . S
C308 H303 0.949 . S
C308 C314 1.368 1_655 S
C309 C293 1.349 . S
C309 H301 0.950 . S
C309 C307 1.327 . S
C310 C298 1.349 . S
C310 H304 0.950 . S
C310 C311 1.327 . S
C311 H305 0.950 . S
C311 C310 1.327 . S
C311 C315 1.429 . S
C312 C295 1.574 . S
C312 H306 0.949 . S
C312 C316 1.368 1_455 S
C313 C294 1.429 1_455 S
C313 C307 1.429 . S
C313 C314 1.523 . S
C314 C295 1.368 . S
C314 C308 1.368 1_455 S
C314 C313 1.523 . S
C315 C299 1.429 1_655 S
C315 C311 1.429 . S
C315 C316 1.523 . S
C316 C300 1.368 . S
C316 C312 1.368 1_655 S
C316 C315 1.523 . S
H317 C292 0.950 1_655 S
H318 C294 0.950 . S
H319 C295 0.949 . S
H320 C297 0.950 1_455 S
H321 C299 0.950 . S
C322 C323 1.349 . S
C322 C324 1.327 . S
C322 H347 0.950 . S
C323 C322 1.349 . S
C323 C339 1.349 . S
C324 C322 1.327 . S
C324 C343 1.429 . S
C324 H348 0.950 . S
C325 C342 1.574 . S
C325 C344 1.368 1_655 S
C325 H349 0.949 . S
H326 C330 0.949 . S
C327 C328 1.349 . S
C327 C329 1.327 . S
C327 H350 0.950 . S
C328 C327 1.349 . S
C328 C340 1.349 . S
C329 C327 1.327 . S
C329 C345 1.429 . S
C329 H351 0.950 . S
C330 H326 0.949 . S
C330 C338 1.574 . S
C330 C346 1.368 1_455 S
H331 C339 0.950 1_655 S
H332 C337 0.950 . S
H333 C338 0.949 . S
H334 C340 0.950 1_455 S
H335 C341 0.950 . S
H336 C342 0.949 . S
C337 H332 0.950 . S
C337 C339 1.327 1_655 S
C337 C343 1.429 1_655 S
C338 C330 1.574 . S
C338 H333 0.949 . S
C338 C344 1.368 . S
C339 C323 1.349 . S
C339 H331 0.950 1_455 S
C339 C337 1.327 1_455 S
C340 C328 1.349 . S
C340 H334 0.950 1_655 S
C340 C341 1.327 1_655 S
C341 H335 0.950 . S
C341 C340 1.327 1_455 S
C341 C345 1.429 1_455 S
C342 C325 1.574 . S
C342 H336 0.949 . S
C342 C346 1.368 . S
C343 C324 1.429 . S
C343 C337 1.429 1_455 S
C343 C344 1.523 . S
C344 C325 1.368 1_455 S
C344 C338 1.368 . S
C344 C343 1.523 . S
C345 C329 1.429 . S
C345 C341 1.429 1_655 S
C345 C346 1.523 . S
C346 C330 1.368 1_655 S
C346 C342 1.368 . S
C346 C345 1.523 . S
H347 C322 0.950 . S
H348 C324 0.950 . S
H349 C325 0.949 . S
H350 C327 0.950 . S
H351 C329 0.950 . S
C352 C353 1.349 . S
C352 C354 1.327 . S
C352 H377 0.950 . S
C353 C352 1.349 . S
C353 C369 1.349 . S
C354 C352 1.327 . S
C354 C373 1.429 . S
C354 H378 0.950 . S
C355 C372 1.574 . S
C355 C374 1.368 . S
C355 H379 0.949 . S
H356 C360 0.949 . S
C357 C358 1.349 . S
C357 C359 1.327 . S
C357 H380 0.950 . S
C358 C357 1.349 . S
C358 C370 1.349 . S
C359 C357 1.327 . S
C359 C375 1.429 . S
C359 H381 0.950 . S
C360 H356 0.949 . S
C360 C368 1.574 . S
C360 C376 1.368 . S
H361 C369 0.950 . S
H362 C367 0.950 . S
H363 C368 0.949 . S
H364 C370 0.950 . S
H365 C371 0.950 . S
H366 C372 0.949 . S
C367 H362 0.950 . S
C367 C369 1.327 . S
C367 C373 1.429 . S
C368 C360 1.574 . S
C368 H363 0.949 . S
C368 C374 1.368 . S
C369 C353 1.349 . S
C369 H361 0.950 . S
C369 C367 1.327 . S
C370 C358 1.349 . S
C370 H364 0.950 . S
C370 C371 1.327 . S
C371 H365 0.950 . S
C371 C370 1.327 . S
C371 C375 1.429 . S
C372 C355 1.574 . S
C372 H366 0.949 . S
C372 C376 1.368 . S
C373 C354 1.429 . S
C373 C367 1.429 . S
C373 C374 1.523 . S
C374 C355 1.368 . S
C374 C368 1.368 . S
C374 C373 1.523 . S
C375 C359 1.429 . S
C375 C371 1.429 . S
C375 C376 1.523 . S
C376 C360 1.368 . S
C376 C372 1.368 . S
C376 C375 1.523 . S
H377 C352 0.950 . S
H378 C354 0.950 . S
H379 C355 0.949 . S
H380 C357 0.950 . S
H381 C359 0.950 . S
C382 C383 1.349 . S
C382 C384 1.327 . S
C382 H407 0.950 . S
C383 C382 1.349 . S
C383 C399 1.349 . S
C384 C382 1.327 . S
C384 C403 1.429 . S
C384 H408 0.950 . S
C385 C402 1.574 . S
C385 C404 1.368 . S
C385 H409 0.949 . S
H386 C390 0.949 . S
C387 C388 1.349 . S
C387 C389 1.327 . S
C387 H410 0.950 . S
C388 C387 1.349 . S
C388 C400 1.349 . S
C389 C387 1.327 . S
C389 C405 1.429 . S
C389 H411 0.950 . S
C390 H386 0.949 . S
C390 C398 1.574 . S
C390 C406 1.368 . S
H391 C399 0.950 . S
H392 C397 0.950 . S
H393 C398 0.949 . S
H394 C400 0.950 . S
H395 C401 0.950 . S
H396 C402 0.949 . S
C397 H392 0.950 . S
C397 C399 1.327 . S
C397 C403 1.429 . S
C398 C390 1.574 . S
C398 H393 0.949 . S
C398 C404 1.368 . S
C399 C383 1.349 . S
C399 H391 0.950 . S
C399 C397 1.327 . S
C400 C388 1.349 . S
C400 H394 0.950 . S
C400 C401 1.327 . S
C401 H395 0.950 . S
C401 C400 1.327 . S
C401 C405 1.429 . S
C402 C385 1.574 . S
C402 H396 0.949 . S
C402 C406 1.368 . S
C403 C384 1.429 . S
C403 C397 1.429 . S
C403 C404 1.523 . S
C404 C385 1.368 . S
C404 C398 1.368 . S
C404 C403 1.523 . S
C405 C389 1.429 . S
C405 C401 1.429 . S
C405 C406 1.523 . S
C406 C390 1.368 . S
C406 C402 1.368 . S
C406 C405 1.523 . S
H407 C382 0.950 . S
H408 C384 0.950 . S
H409 C385 0.949 . S
H410 C387 0.950 . S
H411 C389 0.950 . S
C412 C413 1.349 . S
C412 C414 1.327 . S
C412 H437 0.950 . S
C413 C412 1.349 . S
C413 C429 1.349 . S
C414 C412 1.327 . S
C414 C433 1.429 . S
C414 H438 0.950 . S
C415 C432 1.574 . S
C415 C434 1.368 . S
C415 H439 0.949 . S
H416 C420 0.949 . S
C417 C418 1.349 . S
C417 C419 1.327 . S
C417 H440 0.950 . S
C418 C417 1.349 . S
C418 C430 1.349 . S
C419 C417 1.327 . S
C419 C435 1.429 . S
C419 H441 0.950 . S
C420 H416 0.949 . S
C420 C428 1.574 . S
C420 C436 1.368 . S
H421 C429 0.950 . S
H422 C427 0.950 . S
H423 C428 0.949 . S
H424 C430 0.950 . S
H425 C431 0.950 . S
H426 C432 0.949 . S
C427 H422 0.950 . S
C427 C429 1.327 . S
C427 C433 1.429 . S
C428 C420 1.574 . S
C428 H423 0.949 . S
C428 C434 1.368 . S
C429 C413 1.349 . S
C429 H421 0.950 . S
C429 C427 1.327 . S
C430 C418 1.349 . S
C430 H424 0.950 . S
C430 C431 1.327 . S
C431 H425 0.950 . S
C431 C430 1.327 . S
C431 C435 1.429 . S
C432 C415 1.574 . S
C432 H426 0.949 . S
C432 C436 1.368 . S
C433 C414 1.429 . S
C433 C427 1.429 . S
C433 C434 1.523 . S
C434 C415 1.368 . S
C434 C428 1.368 . S
C434 C433 1.523 . S
C435 C419 1.429 . S
C435 C431 1.429 . S
C435 C436 1.523 . S
C436 C420 1.368 . S
C436 C432 1.368 . S
C436 C435 1.523 . S
H437 C412 0.950 . S
H438 C414 0.950 . S
H439 C415 0.949 . S
H440 C417 0.950 . S
H441 C419 0.950 . S
C442 C443 1.349 . S
C442 C444 1.327 . S
C442 H467 0.950 . S
C443 C442 1.349 . S
C443 C459 1.349 . S
C444 C442 1.327 . S
C444 C463 1.429 . S
C444 H468 0.950 . S
C445 C462 1.574 . S
C445 C464 1.368 . S
C445 H469 0.949 . S
H446 C450 0.949 . S
C447 C448 1.349 . S
C447 C449 1.327 . S
C447 H470 0.950 . S
C448 C447 1.349 . S
C448 C460 1.349 . S
C449 C447 1.327 . S
C449 C465 1.429 . S
C449 H471 0.950 . S
C450 H446 0.949 . S
C450 C458 1.574 . S
C450 C466 1.368 . S
H451 C459 0.950 . S
H452 C457 0.950 . S
H453 C458 0.949 . S
H454 C460 0.950 . S
H455 C461 0.950 . S
H456 C462 0.949 . S
C457 H452 0.950 . S
C457 C459 1.327 . S
C457 C463 1.429 . S
C458 C450 1.574 . S
C458 H453 0.949 . S
C458 C464 1.368 . S
C459 C443 1.349 . S
C459 H451 0.950 . S
C459 C457 1.327 . S
C460 C448 1.349 . S
C460 H454 0.950 . S
C460 C461 1.327 . S
C461 H455 0.950 . S
C461 C460 1.327 . S
C461 C465 1.429 . S
C462 C445 1.574 . S
C462 H456 0.949 . S
C462 C466 1.368 . S
C463 C444 1.429 . S
C463 C457 1.429 . S
C463 C464 1.523 . S
C464 C445 1.368 . S
C464 C458 1.368 . S
C464 C463 1.523 . S
C465 C449 1.429 . S
C465 C461 1.429 . S
C465 C466 1.523 . S
C466 C450 1.368 . S
C466 C462 1.368 . S
C466 C465 1.523 . S
H467 C442 0.950 . S
H468 C444 0.950 . S
H469 C445 0.949 . S
H470 C447 0.950 . S
H471 C449 0.950 . S
C472 C473 1.349 . S
C472 C474 1.327 . S
C472 H497 0.950 . S
C473 C472 1.349 . S
C473 C489 1.349 1_554 S
C474 C472 1.327 . S
C474 C493 1.429 . S
C474 H498 0.950 . S
C475 C492 1.574 . S
C475 C494 1.368 1_556 S
C475 H499 0.949 . S
H476 C480 0.949 . S
C477 C478 1.349 1_556 S
C477 C479 1.327 . S
C477 H500 0.950 . S
C478 C477 1.349 1_554 S
C478 C490 1.349 . S
C479 C477 1.327 . S
C479 C495 1.429 1_556 S
C479 H501 0.950 . S
C480 H476 0.949 . S
C480 C488 1.574 . S
C480 C496 1.368 . S
H481 C489 0.950 . S
H482 C487 0.950 . S
H483 C488 0.949 . S
H484 C490 0.950 . S
H485 C491 0.950 . S
H486 C492 0.949 . S
C487 H482 0.950 . S
C487 C489 1.327 . S
C487 C493 1.429 1_556 S
C488 C480 1.574 . S
C488 H483 0.949 . S
C488 C494 1.368 . S
C489 C473 1.349 1_556 S
C489 H481 0.950 . S
C489 C487 1.327 . S
C490 C478 1.349 . S
C490 H484 0.950 . S
C490 C491 1.327 . S
C491 H485 0.950 . S
C491 C490 1.327 . S
C491 C495 1.429 . S
C492 C475 1.574 . S
C492 H486 0.949 . S
C492 C496 1.368 1_556 S
C493 C474 1.429 . S
C493 C487 1.429 1_554 S
C493 C494 1.523 . S
C494 C475 1.368 1_554 S
C494 C488 1.368 . S
C494 C493 1.523 . S
C495 C479 1.429 1_554 S
C495 C491 1.429 . S
C495 C496 1.523 . S
C496 C480 1.368 . S
C496 C492 1.368 1_554 S
C496 C495 1.523 . S
H497 C472 0.950 . S
H498 C474 0.950 . S
H499 C475 0.949 . S
H500 C477 0.950 . S
H501 C479 0.950 . S
C502 C503 1.349 1_556 S
C502 C504 1.327 . S
C502 H527 0.950 . S
C503 C502 1.349 1_554 S
C503 C519 1.349 . S
C504 C502 1.327 . S
C504 C523 1.429 1_556 S
C504 H528 0.950 . S
C505 C522 1.574 . S
C505 C524 1.368 . S
C505 H529 0.949 . S
H506 C510 0.949 . S
C507 C508 1.349 . S
C507 C509 1.327 . S
C507 H530 0.950 . S
C508 C507 1.349 . S
C508 C520 1.349 1_554 S
C509 C507 1.327 . S
C509 C525 1.429 . S
C509 H531 0.950 . S
C510 H506 0.949 . S
C510 C518 1.574 . S
C510 C526 1.368 1_556 S
H511 C519 0.950 . S
H512 C517 0.950 . S
H513 C518 0.949 . S
H514 C520 0.950 . S
H515 C521 0.950 . S
H516 C522 0.949 . S
C517 H512 0.950 . S
C517 C519 1.327 . S
C517 C523 1.429 . S
C518 C510 1.574 . S
C518 H513 0.949 . S
C518 C524 1.368 1_556 S
C519 C503 1.349 . S
C519 H511 0.950 . S
C519 C517 1.327 . S
C520 C508 1.349 1_556 S
C520 H514 0.950 . S
C520 C521 1.327 . S
C521 H515 0.950 . S
C521 C520 1.327 . S
C521 C525 1.429 1_556 S
C522 C505 1.574 . S
C522 H516 0.949 . S
C522 C526 1.368 . S
C523 C504 1.429 1_554 S
C523 C517 1.429 . S
C523 C524 1.523 . S
C524 C505 1.368 . S
C524 C518 1.368 1_554 S
C524 C523 1.523 . S
C525 C509 1.429 . S
C525 C521 1.429 1_554 S
C525 C526 1.523 . S
C526 C510 1.368 1_554 S
C526 C522 1.368 . S
C526 C525 1.523 . S
H527 C502 0.950 . S
H528 C504 0.950 . S
H529 C505 0.949 . S
H530 C507 0.950 . S
H531 C509 0.950 . S
C532 C533 1.349 . S
C532 C534 1.327 . S
C532 H557 0.950 . S
C533 C532 1.349 . S
C533 C549 1.349 . S
C534 C532 1.327 . S
C534 C553 1.429 . S
C534 H558 0.950 . S
C535 C552 1.574 . S
C535 C554 1.368 . S
C535 H559 0.949 . S
H536 C540 0.949 . S
C537 C538 1.349 . S
C537 C539 1.327 . S
C537 H560 0.950 . S
C538 C537 1.349 . S
C538 C550 1.349 . S
C539 C537 1.327 . S
C539 C555 1.429 . S
C539 H561 0.950 . S
C540 H536 0.949 . S
C540 C548 1.574 . S
C540 C556 1.368 . S
H541 C549 0.950 . S
H542 C547 0.950 . S
H543 C548 0.949 . S
H544 C550 0.950 . S
H545 C551 0.950 . S
H546 C552 0.949 . S
C547 H542 0.950 . S
C547 C549 1.327 . S
C547 C553 1.429 . S
C548 C540 1.574 . S
C548 H543 0.949 . S
C548 C554 1.368 . S
C549 C533 1.349 . S
C549 H541 0.950 . S
C549 C547 1.327 . S
C550 C538 1.349 . S
C550 H544 0.950 . S
C550 C551 1.327 . S
C551 H545 0.950 . S
C551 C550 1.327 . S
C551 C555 1.429 . S
C552 C535 1.574 . S
C552 H546 0.949 . S
C552 C556 1.368 . S
C553 C534 1.429 . S
C553 C547 1.429 . S
C553 C554 1.523 . S
C554 C535 1.368 . S
C554 C548 1.368 . S
C554 C553 1.523 . S
C555 C539 1.429 . S
C555 C551 1.429 . S
C555 C556 1.523 . S
C556 C540 1.368 . S
C556 C552 1.368 . S
C556 C555 1.523 . S
H557 C532 0.950 . S
H558 C534 0.950 . S
H559 C535 0.949 . S
H560 C537 0.950 . S
H561 C539 0.950 . S
C562 C563 1.349 . S
C562 C564 1.327 . S
C562 H587 0.950 . S
C563 C562 1.349 . S
C563 C579 1.349 . S
C564 C562 1.327 . S
C564 C583 1.429 . S
C564 H588 0.950 . S
C565 C582 1.574 . S
C565 C584 1.368 . S
C565 H589 0.949 . S
H566 C570 0.949 . S
C567 C568 1.349 . S
C567 C569 1.327 . S
C567 H590 0.950 . S
C568 C567 1.349 . S
C568 C580 1.349 . S
C569 C567 1.327 . S
C569 C585 1.429 . S
C569 H591 0.950 . S
C570 H566 0.949 . S
C570 C578 1.574 . S
C570 C586 1.368 . S
H571 C579 0.950 . S
H572 C577 0.950 . S
H573 C578 0.949 . S
H574 C580 0.950 . S
H575 C581 0.950 . S
H576 C582 0.949 . S
C577 H572 0.950 . S
C577 C579 1.327 . S
C577 C583 1.429 . S
C578 C570 1.574 . S
C578 H573 0.949 . S
C578 C584 1.368 . S
C579 C563 1.349 . S
C579 H571 0.950 . S
C579 C577 1.327 . S
C580 C568 1.349 . S
C580 H574 0.950 . S
C580 C581 1.327 . S
C581 H575 0.950 . S
C581 C580 1.327 . S
C581 C585 1.429 . S
C582 C565 1.574 . S
C582 H576 0.949 . S
C582 C586 1.368 . S
C583 C564 1.429 . S
C583 C577 1.429 . S
C583 C584 1.523 . S
C584 C565 1.368 . S
C584 C578 1.368 . S
C584 C583 1.523 . S
C585 C569 1.429 . S
C585 C581 1.429 . S
C585 C586 1.523 . S
C586 C570 1.368 . S
C586 C582 1.368 . S
C586 C585 1.523 . S
H587 C562 0.950 . S
H588 C564 0.950 . S
H589 C565 0.949 . S
H590 C567 0.950 . S
H591 C569 0.950 . S
C113 C19 1.504 . S
C118 C5 1.504 . S
C143 C33 1.504 . S
C148 C47 1.504 . S
C173 C61 1.504 . S
C178 C75 1.504 . S
C203 C89 1.504 . S
C208 C103 1.504 . S
C233 C9 1.151 . S
C238 C51 1.151 . S
C263 C37 1.151 . S
C268 C23 1.151 . S
C293 C28 1.182 . S
C298 C14 1.182 . S
C323 C0 1.182 . S
C328 C42 1.182 . S
C353 C65 1.151 . S
C358 C107 1.151 . S
C383 C93 1.151 . S
C388 C79 1.151 . S
C413 C70 1.182 . S
C418 C84 1.182 . S
C443 C56 1.182 . S
C448 C98 1.182 . S
C473 C81 1.510 . S
C478 C11 1.510 . S
C503 C67 1.510 . S
C508 C25 1.510 . S
C533 C39 1.510 . S
C538 C109 1.510 . S
C563 C95 1.510 . S
C568 C53 1.510 . S
