# Generated by pormake.
# Topology wme, (6)-cn, num edge types: 1
# Building blocks:
#     Node 0, Type 0, BuildingBlock: HISSIN_clean_sbu_0, # of connection points: 6
#     Node 1, Type 0, BuildingBlock: HISSIN_clean_sbu_0, # of connection points: 6
#     Node 2, Type 0, BuildingBlock: HISSIN_clean_sbu_0, # of connection points: 6
#     Node 3, Type 0, BuildingBlock: HISSIN_clean_sbu_0, # of connection points: 6
#     Node 4, Type 0, BuildingBlock: HISSIN_clean_sbu_0, # of connection points: 6
#     Node 5, Type 0, BuildingBlock: HISSIN_clean_sbu_0, # of connection points: 6
#     Node 6, Type 0, BuildingBlock: HISSIN_clean_sbu_0, # of connection points: 6
#     Node 7, Type 0, BuildingBlock: HISSIN_clean_sbu_0, # of connection points: 6
#     Node 8, Type 0, BuildingBlock: HISSIN_clean_sbu_0, # of connection points: 6
#     Node 9, Type 0, BuildingBlock: HISSIN_clean_sbu_0, # of connection points: 6
#     Node 10, Type 0, BuildingBlock: HISSIN_clean_sbu_0, # of connection points: 6
#     Node 11, Type 0, BuildingBlock: HISSIN_clean_sbu_0, # of connection points: 6
#     Edge 12, Type (0, 0), BuildingBlock: XUDNAN_clean_linker_2, # of connection points: 2
#     Edge 13, Type (0, 0), BuildingBlock: XUDNAN_clean_linker_2, # of connection points: 2
#     Edge 14, Type (0, 0), BuildingBlock: XUDNAN_clean_linker_2, # of connection points: 2
#     Edge 15, Type (0, 0), BuildingBlock: XUDNAN_clean_linker_2, # of connection points: 2
#     Edge 16, Type (0, 0), BuildingBlock: XUDNAN_clean_linker_2, # of connection points: 2
#     Edge 17, Type (0, 0), BuildingBlock: XUDNAN_clean_linker_2, # of connection points: 2
#     Edge 18, Type (0, 0), BuildingBlock: XUDNAN_clean_linker_2, # of connection points: 2
#     Edge 19, Type (0, 0), BuildingBlock: XUDNAN_clean_linker_2, # of connection points: 2
#     Edge 20, Type (0, 0), BuildingBlock: XUDNAN_clean_linker_2, # of connection points: 2
#     Edge 21, Type (0, 0), BuildingBlock: XUDNAN_clean_linker_2, # of connection points: 2
#     Edge 22, Type (0, 0), BuildingBlock: XUDNAN_clean_linker_2, # of connection points: 2
#     Edge 23, Type (0, 0), BuildingBlock: XUDNAN_clean_linker_2, # of connection points: 2
#     Edge 24, Type (0, 0), BuildingBlock: XUDNAN_clean_linker_2, # of connection points: 2
#     Edge 25, Type (0, 0), BuildingBlock: XUDNAN_clean_linker_2, # of connection points: 2
#     Edge 26, Type (0, 0), BuildingBlock: XUDNAN_clean_linker_2, # of connection points: 2
#     Edge 27, Type (0, 0), BuildingBlock: XUDNAN_clean_linker_2, # of connection points: 2
#     Edge 28, Type (0, 0), BuildingBlock: XUDNAN_clean_linker_2, # of connection points: 2
#     Edge 29, Type (0, 0), BuildingBlock: XUDNAN_clean_linker_2, # of connection points: 2
#     Edge 30, Type (0, 0), BuildingBlock: XUDNAN_clean_linker_2, # of connection points: 2
#     Edge 31, Type (0, 0), BuildingBlock: XUDNAN_clean_linker_2, # of connection points: 2
#     Edge 32, Type (0, 0), BuildingBlock: XUDNAN_clean_linker_2, # of connection points: 2
#     Edge 33, Type (0, 0), BuildingBlock: XUDNAN_clean_linker_2, # of connection points: 2
#     Edge 34, Type (0, 0), BuildingBlock: XUDNAN_clean_linker_2, # of connection points: 2
#     Edge 35, Type (0, 0), BuildingBlock: XUDNAN_clean_linker_2, # of connection points: 2
#     Edge 36, Type (0, 0), BuildingBlock: XUDNAN_clean_linker_2, # of connection points: 2
#     Edge 37, Type (0, 0), BuildingBlock: XUDNAN_clean_linker_2, # of connection points: 2
#     Edge 38, Type (0, 0), BuildingBlock: XUDNAN_clean_linker_2, # of connection points: 2
#     Edge 39, Type (0, 0), BuildingBlock: XUDNAN_clean_linker_2, # of connection points: 2
#     Edge 40, Type (0, 0), BuildingBlock: XUDNAN_clean_linker_2, # of connection points: 2
#     Edge 41, Type (0, 0), BuildingBlock: XUDNAN_clean_linker_2, # of connection points: 2
#     Edge 42, Type (0, 0), BuildingBlock: XUDNAN_clean_linker_2, # of connection points: 2
#     Edge 43, Type (0, 0), BuildingBlock: XUDNAN_clean_linker_2, # of connection points: 2
#     Edge 44, Type (0, 0), BuildingBlock: XUDNAN_clean_linker_2, # of connection points: 2
#     Edge 45, Type (0, 0), BuildingBlock: XUDNAN_clean_linker_2, # of connection points: 2
#     Edge 46, Type (0, 0), BuildingBlock: XUDNAN_clean_linker_2, # of connection points: 2
#     Edge 47, Type (0, 0), BuildingBlock: XUDNAN_clean_linker_2, # of connection points: 2
# Relax obj value: 0.087
# Max RMSD: 0.188
# Mean RMSD: 0.188
data_MOF--net-wme--node1-HISSIN_clean_sbu_0--edge1-XUDNAN_clean_linker_2
_symmetry_space_group_name_H-M    P1
_symmetry_Int_Tables_number       1
_symmetry_cell_setting            triclinic
loop_
_symmetry_equiv_pos_as_xyz
'x, y, z'
_cell_length_a     40.258463
_cell_length_b     40.355185
_cell_length_c     53.126834
_cell_angle_alpha  90.023001
_cell_angle_beta   90.115059
_cell_angle_gamma 119.86067
loop_
_atom_site_label
_atom_site_type_symbol
_atom_site_fract_x
_atom_site_fract_y
_atom_site_fract_z
_atom_type_partial_charge
Eu0 Eu 0.22963 0.38116 0.10599 0.0
Eu1 Eu 0.24733 0.31866 0.13615 0.0
C2 C 0.23229 0.37807 0.16662 0.0
C3 C 0.20254 0.45921 0.09068 0.0
C4 C 0.17315 0.45804 0.07577 0.0
C5 C 0.20669 0.51388 0.11323 0.0
C6 C 0.1607 0.48449 0.07947 0.0
C7 C 0.21903 0.48728 0.10961 0.0
C8 C 0.1775 0.51299 0.09811 0.0
C9 C 0.21729 0.43285 0.08492 0.0
O10 O 0.18546 0.28568 0.12313 0.0
O11 O 0.17445 0.33619 0.12348 0.0
C12 C 0.16175 0.29922 0.12433 0.0
O13 O 0.22795 0.34158 0.0748 0.0
O14 O 0.23382 0.27568 0.16532 0.0
O15 O 0.28358 0.29309 0.14169 0.0
O16 O 0.25336 0.30885 0.09568 0.0
C17 C 0.24109 0.31743 0.07525 0.0
O18 O 0.29131 0.39831 0.10089 0.0
O19 O 0.29987 0.3783 0.13904 0.0
O20 O 0.22554 0.34288 0.16528 0.0
O21 O 0.24971 0.44021 0.09524 0.0
O22 O 0.19273 0.39624 0.08412 0.0
O23 O 0.24171 0.40052 0.14683 0.0
C24 C 0.25039 0.22859 0.15584 0.0
C25 C 0.24304 0.21083 0.13209 0.0
C26 C 0.23327 0.16781 0.17551 0.0
C27 C 0.23074 0.17168 0.13013 0.0
C28 C 0.24579 0.20683 0.17744 0.0
C29 C 0.22512 0.14962 0.15189 0.0
C30 C 0.26124 0.26916 0.15878 0.0
C31 C 0.31321 0.40294 0.12032 0.0
H32 H 0.16025 0.43703 0.06087 0.0
H33 H 0.21996 0.53511 0.12796 0.0
H34 H 0.13853 0.48318 0.06723 0.0
H35 H 0.2418 0.48904 0.12143 0.0
H36 H 0.24613 0.22702 0.11514 0.0
H37 H 0.22967 0.15173 0.1926 0.0
H38 H 0.22444 0.15843 0.11169 0.0
H39 H 0.25133 0.21993 0.19592 0.0
Eu40 Eu 0.86772 0.20722 0.61264 0.0
Eu41 Eu 0.95937 0.24814 0.62882 0.0
C42 C 0.89647 0.23563 0.66998 0.0
C43 C 0.75755 0.169 0.60667 0.0
C44 C 0.73484 0.14295 0.62542 0.0
C45 C 0.70497 0.18092 0.59756 0.0
C46 C 0.69754 0.13566 0.62997 0.0
C47 C 0.74225 0.18813 0.59296 0.0
C48 C 0.68189 0.15411 0.61584 0.0
C49 C 0.7952 0.17329 0.59954 0.0
O50 O 0.93202 0.18658 0.64039 0.0
O51 O 0.88421 0.1611 0.61091 0.0
C52 C 0.90677 0.15734 0.62718 0.0
O53 O 0.90487 0.23354 0.57813 0.0
O54 O 1.00603 0.25447 0.6532 0.0
O55 O 1.01872 0.2873 0.61871 0.0
O56 O 0.95109 0.2211 0.59085 0.0
C57 C 0.93515 0.23056 0.57302 0.0
O58 O 0.88396 0.26772 0.62246 0.0
O59 O 0.94898 0.29578 0.61609 0.0
O60 O 0.93155 0.25827 0.66207 0.0
O61 O 0.82125 0.20596 0.59034 0.0
O62 O 0.80995 0.15808 0.61426 0.0
O63 O 0.86958 0.20971 0.65531 0.0
C64 C 0.06043 0.2645 0.63031 0.0
C65 C 0.05721 0.24574 0.60737 0.0
C66 C 0.11676 0.25977 0.64065 0.0
C67 C 0.08384 0.2345 0.60102 0.0
C68 C 0.09024 0.27125 0.64693 0.0
C69 C 0.11398 0.24148 0.61755 0.0
C70 C 0.03247 0.2764 0.63721 0.0
C71 C 0.91766 0.29814 0.61865 0.0
H72 H 0.74548 0.12743 0.63623 0.0
H73 H 0.69375 0.19532 0.5861 0.0
H74 H 0.68079 0.11522 0.64442 0.0
H75 H 0.75872 0.20792 0.57812 0.0
H76 H 0.03413 0.23976 0.59435 0.0
H77 H 0.13985 0.26584 0.65367 0.0
H78 H 0.08064 0.22001 0.58326 0.0
H79 H 0.09307 0.2855 0.66475 0.0
Eu80 Eu 0.66669 0.84887 0.10574 0.0
Eu81 Eu 0.72596 0.93549 0.12946 0.0
C82 C 0.67055 0.86724 0.16486 0.0
C83 C 0.59021 0.74138 0.09585 0.0
C84 C 0.57905 0.73164 0.12102 0.0
C85 C 0.54288 0.67668 0.08328 0.0
C86 C 0.55019 0.69451 0.12729 0.0
C87 C 0.57163 0.71372 0.07707 0.0
C88 C 0.53192 0.66634 0.10851 0.0
C89 C 0.62272 0.77909 0.08877 0.0
O90 O 0.7555 0.90004 0.13194 0.0
O91 O 0.72685 0.86282 0.09744 0.0
C92 C 0.75514 0.87791 0.11365 0.0
O93 O 0.68331 0.89142 0.07338 0.0
O94 O 0.76601 0.97104 0.15897 0.0
O95 O 0.75474 0.99763 0.12707 0.0
O96 O 0.74161 0.93707 0.08913 0.0
C97 C 0.71722 0.92214 0.07053 0.0
O98 O 0.62817 0.87037 0.11908 0.0
O99 O 0.67085 0.93514 0.11865 0.0
O100 O 0.68357 0.90327 0.15958 0.0
O101 O 0.61583 0.80704 0.08483 0.0
O102 O 0.65484 0.79036 0.10084 0.0
O103 O 0.67047 0.84318 0.14809 0.0
C104 C 0.81596 0.0325 0.14656 0.0
C105 C 0.83905 0.03696 0.12556 0.0
C106 C 0.86942 0.08834 0.16576 0.0
C107 C 0.87699 0.0674 0.12454 0.0
C108 C 0.83173 0.058 0.16678 0.0
C109 C 0.89232 0.09398 0.14443 0.0
C110 C 0.77496 1.003 0.14748 0.0
C111 C 0.63543 0.90591 0.11886 0.0
H112 H 0.59305 0.75255 0.13585 0.0
H113 H 0.53005 0.65585 0.06831 0.0
H114 H 0.54223 0.6879 0.14687 0.0
H115 H 0.58 0.72052 0.05755 0.0
H116 H 0.82747 1.01751 0.10974 0.0
H117 H 0.88047 0.10785 0.18158 0.0
H118 H 0.8938 0.07101 0.10781 0.0
H119 H 0.81454 0.05497 0.18322 0.0
Eu120 Eu 0.83496 0.65475 0.60626 0.0
Eu121 Eu 0.82012 0.71868 0.63617 0.0
C122 C 0.83976 0.66248 0.6666 0.0
C123 C 0.85864 0.57524 0.58964 0.0
C124 C 0.88803 0.58392 0.60716 0.0
C125 C 0.85377 0.51358 0.58202 0.0
C126 C 0.90037 0.55759 0.61194 0.0
C127 C 0.84164 0.53993 0.57718 0.0
C128 C 0.88329 0.52204 0.59946 0.0
C129 C 0.84439 0.60182 0.58435 0.0
O130 O 0.8775 0.7515 0.61676 0.0
O131 O 0.89261 0.70378 0.61733 0.0
C132 C 0.90294 0.74014 0.6157 0.0
O133 O 0.82746 0.68844 0.57476 0.0
O134 O 0.83681 0.76327 0.66454 0.0
O135 O 0.78647 0.74721 0.64181 0.0
O136 O 0.79693 0.71425 0.59735 0.0
C137 C 0.80675 0.70536 0.576 0.0
O138 O 0.7725 0.63604 0.60552 0.0
O139 O 0.76887 0.65949 0.64374 0.0
O140 O 0.84692 0.69772 0.66424 0.0
O141 O 0.81326 0.59507 0.59607 0.0
O142 O 0.86937 0.63826 0.58323 0.0
O143 O 0.82819 0.63851 0.64755 0.0
C144 C 0.82418 0.81248 0.65288 0.0
C145 C 0.80131 0.82832 0.65952 0.0
C146 C 0.87325 0.87486 0.638 0.0
C147 C 0.81443 0.86726 0.65564 0.0
C148 C 0.86001 0.83594 0.64169 0.0
C149 C 0.85082 0.8911 0.64518 0.0
C150 C 0.81072 0.77173 0.65791 0.0
C151 C 0.75312 0.63346 0.62587 0.0
H152 H 0.90128 0.6109 0.61718 0.0
H153 H 0.84037 0.48676 0.57182 0.0
H154 H 0.92291 0.56482 0.62566 0.0
H155 H 0.81885 0.53268 0.56364 0.0
H156 H 0.77352 0.81067 0.66806 0.0
H157 H 0.90117 0.89231 0.62958 0.0
H158 H 0.7966 0.87894 0.66153 0.0
H159 H 0.878 0.82429 0.63609 0.0
Eu160 Eu 0.19529 0.83052 0.11058 0.0
Eu161 Eu 0.1047 0.78992 0.12811 0.0
C162 C 0.16865 0.80124 0.16789 0.0
C163 C 0.30579 0.87123 0.10285 0.0
C164 C 0.31991 0.84965 0.09093 0.0
C165 C 0.36829 0.90986 0.12269 0.0
C166 C 0.35784 0.85823 0.0947 0.0
C167 C 0.33039 0.90125 0.11895 0.0
C168 C 0.38271 0.88885 0.11033 0.0
C169 C 0.26726 0.86532 0.09638 0.0
O170 O 0.13405 0.85098 0.14133 0.0
O171 O 0.17877 0.87671 0.11027 0.0
C172 C 0.15836 0.88059 0.12808 0.0
O173 O 0.1568 0.80487 0.07646 0.0
O174 O 0.0598 0.78368 0.15401 0.0
O175 O 0.04451 0.75271 0.11865 0.0
O176 O 0.11176 0.81788 0.09063 0.0
C177 C 0.1265 0.8082 0.0722 0.0
O178 O 0.17934 0.76968 0.11935 0.0
O179 O 0.11402 0.74193 0.11423 0.0
O180 O 0.13357 0.7782 0.16005 0.0
O181 O 0.24137 0.83198 0.08785 0.0
O182 O 0.2526 0.88045 0.11118 0.0
O183 O 0.19491 0.82775 0.15328 0.0
C184 C 1.00545 0.77727 0.13276 0.0
C185 C 1.01135 0.80113 0.11202 0.0
C186 C 0.94869 0.78089 0.14367 0.0
C187 C 0.98588 0.81437 0.10697 0.0
C188 C 0.97414 0.76748 0.14865 0.0
C189 C 0.9541 0.80424 0.12264 0.0
C190 C 0.03229 0.76329 0.13813 0.0
C191 C 0.1454 0.73934 0.1158 0.0
H192 H 0.30199 0.82676 0.07808 0.0
H193 H 0.38644 0.93329 0.13511 0.0
H194 H 0.36804 0.84172 0.08463 0.0
H195 H 0.32068 0.91879 0.12824 0.0
H196 H 0.03563 0.80948 0.09967 0.0
H197 H 0.92432 0.77229 0.15597 0.0
H198 H 0.99121 0.83273 0.09083 0.0
H199 H 0.96925 0.74929 0.16483 0.0
Eu200 Eu 0.39994 0.19404 0.60143 0.0
Eu201 Eu 0.33816 0.10864 0.62443 0.0
C202 C 0.38689 0.1786 0.66139 0.0
C203 C 0.47577 0.30071 0.59277 0.0
C204 C 0.4862 0.33258 0.57741 0.0
C205 C 0.521 0.34246 0.62454 0.0
C206 C 0.51377 0.36909 0.58545 0.0
C207 C 0.49321 0.30582 0.61646 0.0
C208 C 0.53173 0.37462 0.60908 0.0
C209 C 0.44555 0.2629 0.58399 0.0
O210 O 0.3095 0.14466 0.62426 0.0
O211 O 0.34065 0.18038 0.58994 0.0
C212 C 0.31161 0.16674 0.60549 0.0
O213 O 0.39002 0.14953 0.57174 0.0
O214 O 0.29077 0.0721 0.64956 0.0
O215 O 0.31247 0.04668 0.62304 0.0
O216 O 0.32828 0.10789 0.58289 0.0
C217 C 0.35628 0.1199 0.56666 0.0
O218 O 0.43683 0.17456 0.62051 0.0
O219 O 0.39499 0.1097 0.6196 0.0
O220 O 0.37287 0.14185 0.65771 0.0
O221 O 0.45357 0.23531 0.58329 0.0
O222 O 0.41123 0.25149 0.59257 0.0
O223 O 0.39227 0.20225 0.64273 0.0
C224 C 0.24572 1.0113 0.63257 0.0
C225 C 0.23603 0.99543 0.60825 0.0
C226 C 0.18 0.96801 0.64581 0.0
C227 C 0.19898 0.96563 0.60296 0.0
C228 C 0.21717 0.99763 0.65117 0.0
C229 C 0.17066 0.95113 0.62178 0.0
C230 C 0.28561 0.04054 0.63921 0.0
C231 C 0.43007 0.13922 0.6215 0.0
H232 H 0.47272 0.32928 0.5592 0.0
H233 H 0.5344 0.34551 0.64273 0.0
H234 H 0.52062 0.3931 0.57321 0.0
H235 H 0.48529 0.28154 0.62869 0.0
H236 H 0.25721 1.00548 0.59339 0.0
H237 H 0.15898 0.95733 0.66077 0.0
H238 H 0.1926 0.95358 0.58417 0.0
H239 H 0.22388 1.00929 0.67006 0.0
Eu240 Eu 0.66957 0.82705 0.40363 0.0
Eu241 Eu 0.72736 0.79998 0.37812 0.0
C242 C 0.67739 0.82255 0.34318 0.0
C243 C 0.59567 0.85992 0.41645 0.0
C244 C 0.56651 0.83661 0.39945 0.0
C245 C 0.56716 0.9004 0.42068 0.0
C246 C 0.53771 0.84515 0.3932 0.0
C247 C 0.59569 0.89176 0.42699 0.0
C248 C 0.53786 0.87731 0.40366 0.0
C249 C 0.6268 0.85237 0.42331 0.0
O250 O 0.75869 0.86468 0.37853 0.0
O251 O 0.72994 0.87093 0.41366 0.0
C252 C 0.75831 0.8852 0.39759 0.0
O253 O 0.68096 0.79305 0.43287 0.0
O254 O 0.77276 0.80862 0.35184 0.0
O255 O 0.75001 0.76096 0.37778 0.0
O256 O 0.74076 0.80886 0.41925 0.0
C257 C 0.71426 0.79511 0.43657 0.0
O258 O 0.62994 0.77083 0.38567 0.0
O259 O 0.67032 0.74586 0.38492 0.0
O260 O 0.69098 0.79925 0.3461 0.0
O261 O 0.61874 0.81682 0.42469 0.0
O262 O 0.65992 0.87429 0.41282 0.0
O263 O 0.67405 0.84171 0.36217 0.0
C264 C 0.81601 0.79123 0.36903 0.0
C265 C 0.82976 0.80538 0.39327 0.0
C266 C 0.87689 0.79543 0.35914 0.0
C267 C 0.86667 0.81409 0.40048 0.0
C268 C 0.83986 0.78655 0.35198 0.0
C269 C 0.89063 0.80905 0.38354 0.0
C270 C 0.77685 0.78116 0.36155 0.0
C271 C 0.63561 0.74157 0.38431 0.0
H272 H 0.56608 0.812 0.39094 0.0
H273 H 0.56782 0.92499 0.4294 0.0
H274 H 0.51569 0.82696 0.3799 0.0
H275 H 0.61791 0.91006 0.44017 0.0
H276 H 0.81188 0.8095 0.40667 0.0
H277 H 0.89445 0.79086 0.34573 0.0
H278 H 0.87652 0.82499 0.41929 0.0
H279 H 0.82973 0.77571 0.3332 0.0
Eu280 Eu 0.85311 0.65953 0.90803 0.0
Eu281 Eu 0.93935 0.71682 0.88563 0.0
C282 C 0.87035 0.66579 0.84803 0.0
C283 C 0.74841 0.58233 0.91802 0.0
C284 C 0.72057 0.56049 0.93595 0.0
C285 C 0.70551 0.54225 0.88485 0.0
C286 C 0.68529 0.52986 0.92841 0.0
C287 C 0.74089 0.57278 0.89243 0.0
C288 C 0.67717 0.52064 0.90275 0.0
C289 C 0.78442 0.61578 0.92621 0.0
O290 O 0.90633 0.74856 0.88195 0.0
O291 O 0.86637 0.71997 0.9152 0.0
C292 C 0.88251 0.74811 0.89899 0.0
O293 O 0.89723 0.67126 0.93855 0.0
O294 O 0.97815 0.75682 0.85761 0.0
O295 O 1.00122 0.74345 0.89047 0.0
O296 O 0.93849 0.73187 0.92612 0.0
C297 C 0.92638 0.70533 0.94332 0.0
O298 O 0.87116 0.6198 0.89193 0.0
O299 O 0.93627 0.65986 0.89417 0.0
O300 O 0.90702 0.68073 0.85276 0.0
O301 O 0.81324 0.61032 0.93057 0.0
O302 O 0.79466 0.64744 0.914 0.0
O303 O 0.84517 0.66021 0.86572 0.0
C304 C 0.03526 0.80625 0.87472 0.0
C305 C 1.0281 0.8263 0.89352 0.0
C306 C 0.09183 0.8651 0.86219 0.0
C307 C 0.05266 0.86556 0.89662 0.0
C308 C 0.06727 0.8258 0.85914 0.0
C309 C 0.08471 0.88551 0.88088 0.0
C310 C 1.0088 0.76529 0.87074 0.0
C311 C 0.90608 0.6252 0.89266 0.0
H312 H 0.72589 0.56753 0.95577 0.0
H313 H 0.70032 0.53556 0.86498 0.0
H314 H 0.66397 0.51406 0.94265 0.0
H315 H 0.76218 0.58924 0.87831 0.0
H316 H 1.00339 0.81161 0.90569 0.0
H317 H 0.11591 0.87962 0.84953 0.0
H318 H 0.04661 0.88025 0.91141 0.0
H319 H 0.07303 0.81076 0.84443 0.0
Eu320 Eu 0.21901 0.84181 0.40734 0.0
Eu321 Eu 0.24347 0.92495 0.38099 0.0
C322 C 0.21874 0.85142 0.34688 0.0
C323 C 0.18898 0.73634 0.41928 0.0
C324 C 0.2042 0.71755 0.43331 0.0
C325 C 0.15615 0.68016 0.39237 0.0
C326 C 0.19539 0.68037 0.42704 0.0
C327 C 0.16523 0.71748 0.39852 0.0
C328 C 0.17089 0.66107 0.40667 0.0
C329 C 0.19673 0.77466 0.42727 0.0
O330 O 0.17886 0.89069 0.38185 0.0
O331 O 0.17367 0.85674 0.41732 0.0
C332 C 0.15869 0.86996 0.40099 0.0
O333 O 0.25533 0.88852 0.43526 0.0
O334 O 0.23319 0.9602 0.35433 0.0
O335 O 0.2813 0.98665 0.38005 0.0
O336 O 0.23563 0.92974 0.42232 0.0
C337 C 0.2521 0.91895 0.43909 0.0
O338 O 0.27412 0.85824 0.38745 0.0
O339 O 0.2985 0.92319 0.38691 0.0
O340 O 0.24266 0.88822 0.34916 0.0
O341 O 0.23233 0.80218 0.4272 0.0
O342 O 0.17339 0.78586 0.41904 0.0
O343 O 0.20094 0.82981 0.36645 0.0
C344 C 0.24966 0.02097 0.37051 0.0
C345 C 0.23585 0.02136 0.39468 0.0
C346 C 0.24425 0.07656 0.3595 0.0
C347 C 0.2268 0.04947 0.40133 0.0
C348 C 0.25348 0.04851 0.35291 0.0
C349 C 0.23117 0.07761 0.38388 0.0
C350 C 0.26041 0.9922 0.36363 0.0
C351 C 0.30323 0.89315 0.3858 0.0
H352 H 0.22244 0.73145 0.44943 0.0
H353 H 0.13761 0.66624 0.37639 0.0
H354 H 0.20694 0.66634 0.43856 0.0
H355 H 0.15327 0.73135 0.38721 0.0
H356 H 0.23237 1.00012 0.4085 0.0
H357 H 0.24831 0.098 0.34571 0.0
H358 H 0.21633 0.04913 0.42015 0.0
H359 H 0.26402 0.04858 0.33415 0.0
Eu360 Eu 0.38055 0.20289 0.89991 0.0
Eu361 Eu 0.33104 0.24254 0.87655 0.0
C362 C 0.38017 0.21838 0.84045 0.0
C363 C 0.45037 0.16403 0.91414 0.0
C364 C 0.48094 0.18796 0.89832 0.0
C365 C 0.48027 0.12515 0.92112 0.0
C366 C 0.51101 0.18041 0.89392 0.0
C367 C 0.45047 0.13277 0.92555 0.0
C368 C 0.51086 0.14862 0.90509 0.0
C369 C 0.41733 0.16984 0.9186 0.0
O370 O 0.28941 0.18507 0.89266 0.0
O371 O 0.32421 0.15576 0.88504 0.0
C372 C 0.29119 0.15394 0.88883 0.0
O373 O 0.34457 0.20741 0.93134 0.0
O374 O 0.28685 0.23787 0.85053 0.0
O375 O 0.31173 0.28448 0.87728 0.0
O376 O 0.34595 0.26112 0.91655 0.0
C377 C 0.34005 0.23725 0.93488 0.0
O378 O 0.42091 0.26673 0.89941 0.0
O379 O 0.39261 0.28754 0.87026 0.0
O380 O 0.34977 0.22209 0.84311 0.0
O381 O 0.42409 0.20379 0.92523 0.0
O382 O 0.38894 0.15354 0.90274 0.0
O383 O 0.39951 0.21554 0.85947 0.0
C384 C 0.24561 0.25714 0.86809 0.0
C385 C 0.22999 0.23961 0.89125 0.0
C386 C 0.18555 0.25476 0.8577 0.0
C387 C 0.19254 0.22998 0.89766 0.0
C388 C 0.22311 0.26453 0.85135 0.0
C389 C 0.16981 0.23746 0.88099 0.0
C390 C 0.28452 0.26597 0.86081 0.0
C391 C 0.42223 0.29295 0.88397 0.0
H392 H 0.48134 0.21216 0.88919 0.0
H393 H 0.4794 0.10086 0.93043 0.0
H394 H 0.53392 0.19897 0.88135 0.0
H395 H 0.42722 0.11395 0.93784 0.0
H396 H 0.24669 0.23312 0.9043 0.0
H397 H 0.16902 0.26126 0.84454 0.0
H398 H 0.1812 0.21622 0.91558 0.0
H399 H 0.23457 0.27776 0.8333 0.0
Eu400 Eu 0.20348 0.37645 0.40644 0.0
Eu401 Eu 0.11807 0.31766 0.38255 0.0
C402 C 0.18875 0.36834 0.34613 0.0
C403 C 0.30947 0.45235 0.41656 0.0
C404 C 0.32676 0.4494 0.39433 0.0
C405 C 0.36596 0.51397 0.42496 0.0
C406 C 0.36363 0.47815 0.38777 0.0
C407 C 0.32923 0.48505 0.43164 0.0
C408 C 0.38379 0.51059 0.40313 0.0
C409 C 0.27193 0.42094 0.42497 0.0
O410 O 0.15181 0.28662 0.38136 0.0
O411 O 0.1897 0.31642 0.41537 0.0
C412 C 0.1746 0.28777 0.39946 0.0
O413 O 0.1585 0.36541 0.43605 0.0
O414 O 0.08048 0.27417 0.35559 0.0
O415 O 0.05612 0.29338 0.3846 0.0
O416 O 0.1168 0.30451 0.42365 0.0
C417 C 0.12886 0.33155 0.4406 0.0
O418 O 0.18525 0.41499 0.3886 0.0
O419 O 0.1202 0.37435 0.38969 0.0
O420 O 0.1518 0.35318 0.34988 0.0
O421 O 0.24392 0.42829 0.42693 0.0
O422 O 0.26072 0.38719 0.41543 0.0
O423 O 0.21297 0.3739 0.36456 0.0
C424 C 1.01975 0.22851 0.3724 0.0
C425 C 0.98429 0.22109 0.38206 0.0
C426 C 0.99813 0.16042 0.37449 0.0
C427 C 0.95626 0.18388 0.38823 0.0
C428 C 1.02639 0.19778 0.36851 0.0
C429 C 0.96293 0.15317 0.38466 0.0
C430 C 0.04923 0.26842 0.36682 0.0
C431 C 0.15014 0.40908 0.38822 0.0
H432 H 0.31208 0.42463 0.3822 0.0
H433 H 0.38085 0.53846 0.43729 0.0
H434 H 0.37641 0.47498 0.37067 0.0
H435 H 0.31652 0.4879 0.44888 0.0
H436 H 0.97835 0.2442 0.38504 0.0
H437 H 1.00412 0.13732 0.37167 0.0
H438 H 0.92921 0.17912 0.39569 0.0
H439 H 0.05346 0.20256 0.3611 0.0
Eu440 Eu 0.8341 0.19001 0.90839 0.0
Eu441 Eu 0.81215 0.11006 0.87787 0.0
C442 C 0.83408 0.18539 0.84735 0.0
C443 C 0.86136 0.29422 0.92277 0.0
C444 C 0.88514 0.31375 0.90224 0.0
C445 C 0.85538 0.35025 0.9317 0.0
C446 C 0.89454 0.35139 0.89684 0.0
C447 C 0.84626 0.3127 0.93724 0.0
C448 C 0.88011 0.37027 0.91166 0.0
C449 C 0.85381 0.25563 0.93012 0.0
O450 O 0.87715 0.14651 0.87784 0.0
O451 O 0.88354 0.17966 0.91414 0.0
C452 C 0.89817 0.16761 0.89678 0.0
O453 O 0.80631 0.14121 0.93685 0.0
O454 O 0.82306 0.07727 0.84944 0.0
O455 O 0.7757 0.04825 0.87528 0.0
O456 O 0.82693 0.10433 0.91737 0.0
C457 C 0.81345 0.11269 0.93721 0.0
O458 O 0.77755 0.17205 0.88998 0.0
O459 O 0.75581 0.10781 0.88777 0.0
O460 O 0.81028 0.14846 0.84839 0.0
O461 O 0.81851 0.22757 0.92893 0.0
O462 O 0.87809 0.24551 0.92219 0.0
O463 O 0.85182 0.20536 0.8676 0.0
C464 C 0.80932 1.01643 0.86436 0.0
C465 C 0.82598 1.01758 0.88782 0.0
C466 C 0.81304 0.9597 0.85353 0.0
C467 C 0.83538 0.98963 0.89428 0.0
C468 C 0.8034 0.98762 0.84713 0.0
C469 C 0.82852 0.95998 0.87738 0.0
C470 C 0.79692 0.04437 0.85831 0.0
C471 C 0.74927 0.13679 0.88827 0.0
H472 H 0.897 0.30018 0.89057 0.0
H473 H 0.84398 0.36402 0.94359 0.0
H474 H 0.91319 0.36578 0.88105 0.0
H475 H 0.82797 0.29831 0.95319 0.0
H476 H 0.8311 0.03972 0.90135 0.0
H477 H 0.80716 0.93716 0.84015 0.0
H478 H 0.84776 0.99106 0.91265 0.0
H479 H 0.79062 0.98626 0.82892 0.0
H480 H 0.20759 0.95109 0.10654 0.0
H481 H 0.118 0.89617 0.16264 0.0
H482 H 0.12441 0.95825 0.17343 0.0
H483 H 0.26644 0.03625 0.14205 0.0
H484 H 0.28048 0.06791 0.11536 0.0
H485 H 0.26836 0.01886 0.11113 0.0
H486 H 0.21737 1.00974 0.07786 0.0
H487 H 0.22933 0.05878 0.082 0.0
H488 H 0.18058 0.02089 0.086 0.0
H489 H 0.14122 0.02569 0.17953 0.0
H490 H 0.16741 0.09539 0.18022 0.0
H491 H 0.24605 0.10852 0.1202 0.0
C492 C 0.18919 0.95211 0.12099 0.0
C493 C 0.16229 0.91851 0.13372 0.0
C494 C 0.13888 0.92127 0.15257 0.0
C495 C 0.14222 0.9565 0.15887 0.0
C496 C 0.16904 0.98896 0.14614 0.0
C497 C 0.19209 0.98726 0.12754 0.0
C498 C 0.219 0.0269 0.11717 0.0
C499 C 0.26106 0.03813 0.12171 0.0
C500 C 0.21108 0.0292 0.08909 0.0
C501 C 0.20762 0.051 0.13305 0.0
C502 C 0.17869 0.02836 0.14959 0.0
C503 C 0.16383 0.04376 0.16665 0.0
C504 C 0.17905 0.08342 0.16698 0.0
C505 C 0.20889 0.10747 0.15037 0.0
C506 C 0.22305 0.09086 0.13299 0.0
H507 H 0.25823 0.16172 0.6398 0.0
H508 H 0.29729 0.19589 0.56311 0.0
H509 H 0.24922 0.2162 0.55739 0.0
H510 H 0.15668 0.12701 0.62811 0.0
H511 H 0.15007 0.14535 0.65748 0.0
H512 H 0.18583 0.13108 0.65503 0.0
H513 H 0.23773 0.19817 0.67033 0.0
H514 H 0.2022 0.21269 0.67272 0.0
H515 H 0.24428 0.23996 0.65374 0.0
H516 H 0.19832 0.23452 0.56026 0.0
H517 H 0.14926 0.2514 0.572 0.0
H518 H 0.14411 0.20684 0.64712 0.0
C519 C 0.25631 0.173 0.6217 0.0
C520 C 0.2814 0.17704 0.60185 0.0
C521 C 0.2784 0.19252 0.57859 0.0
C522 C 0.25112 0.20406 0.57512 0.0
C523 C 0.22714 0.20012 0.59514 0.0
C524 C 0.22949 0.18505 0.618 0.0
C525 C 0.20152 0.18563 0.63682 0.0
C526 C 0.17176 0.14484 0.64482 0.0
C527 C 0.22271 0.21061 0.65975 0.0
C528 C 0.18337 0.2037 0.62103 0.0
C529 C 0.19831 0.21148 0.59698 0.0
C530 C 0.18627 0.2284 0.57901 0.0
C531 C 0.1583 0.23775 0.58582 0.0
C532 C 0.14284 0.23043 0.61046 0.0
C533 C 0.1556 0.21308 0.62821 0.0
H534 H 0.96087 0.10067 0.12777 0.0
H535 H 0.91089 0.16678 0.15649 0.0
H536 H 0.97383 0.22531 0.15427 0.0
H537 H 0.05087 0.15246 0.16106 0.0
H538 H 0.07943 0.1505 0.13564 0.0
H539 H 0.03025 0.11332 0.13896 0.0
H540 H 1.0161 0.12539 0.09335 0.0
H541 H 0.06526 0.16259 0.08989 0.0
H542 H 1.02711 0.17281 0.08423 0.0
H543 H 0.04106 0.27675 0.1487 0.0
H544 H 0.10992 0.31857 0.14123 0.0
H545 H 0.11901 0.22062 0.11685 0.0
C546 C 0.96322 0.12752 0.13345 0.0
C547 C 0.93084 0.12899 0.14249 0.0
C548 C 0.93523 0.16472 0.14989 0.0
C549 C 0.97088 0.19823 0.14856 0.0
C550 C 1.00216 0.1958 0.13981 0.0
C551 C 0.9989 0.16147 0.13243 0.0
C552 C 0.03757 0.16718 0.1241 0.0
C553 C 0.05027 0.14452 0.14095 0.0
C554 C 0.03643 0.15635 0.09624 0.0
C555 C 0.0629 0.21001 0.12804 0.0
C556 C 0.04162 0.2258 0.13695 0.0
C557 C 0.05806 0.26474 0.14175 0.0
C558 C 0.0973 0.28832 0.13735 0.0
C559 C 0.12007 0.27303 0.1284 0.0
C560 C 0.1025 0.2332 0.12378 0.0
H561 H 0.81404 0.92908 0.62778 0.0
H562 H 0.92243 0.94799 0.65793 0.0
H563 H 0.94847 1.01762 0.65546 0.0
H564 H 0.8548 1.00905 0.58405 0.0
H565 H 0.81747 0.02071 0.58884 0.0
H566 H 0.80724 0.97213 0.5925 0.0
H567 H 0.78234 0.97067 0.63764 0.0
H568 H 0.7925 0.01922 0.63411 0.0
H569 H 0.8129 1.00658 0.66007 0.0
H570 H 0.96201 0.08467 0.65174 0.0
H571 H 0.9634 0.14576 0.64534 0.0
H572 H 0.84707 0.08482 0.6163 0.0
C573 C 0.84324 0.94792 0.63386 0.0
C574 C 0.86627 0.93304 0.64297 0.0
C575 C 0.90443 0.95866 0.65057 0.0
C576 C 0.91942 0.99828 0.64936 0.0
C577 C 0.89603 1.01198 0.64034 0.0
C578 C 0.85885 0.9877 0.63255 0.0
C579 C 0.83997 1.01016 0.62362 0.0
C580 C 0.82924 1.00256 0.59558 0.0
C581 C 0.80485 1.00111 0.63983 0.0
C582 C 0.87222 0.0508 0.62791 0.0
C583 C 0.90421 0.05104 0.63764 0.0
C584 C 0.93724 0.08488 0.64398 0.0
C585 C 0.93767 0.11946 0.64035 0.0
C586 C 0.90538 0.12014 0.63027 0.0
C587 C 0.87231 0.08525 0.6238 0.0
H588 H 0.91894 0.83096 0.15499 0.0
H589 H 0.92535 0.80565 0.07629 0.0
H590 H 0.87818 0.8254 0.06556 0.0
H591 H 0.81822 0.79634 0.1561 0.0
H592 H 0.82134 0.83311 0.17688 0.0
H593 H 0.85706 0.81873 0.17841 0.0
H594 H 0.91034 0.88885 0.17133 0.0
H595 H 0.87474 0.90344 0.16971 0.0
H596 H 0.90801 0.91439 0.14417 0.0
H597 H 0.82808 0.84402 0.06342 0.0
H598 H 0.77814 0.86143 0.0698 0.0
H599 H 0.80395 0.87631 0.14976 0.0
C600 C 0.9104 0.8296 0.13551 0.0
C601 C 0.92607 0.81693 0.11645 0.0
C602 C 0.91429 0.8158 0.09116 0.0
C603 C 0.88737 0.82682 0.08488 0.0
C604 C 0.87253 0.83912 0.10407 0.0
C605 C 0.88364 0.84075 0.12886 0.0
C606 C 0.86251 0.8544 0.14583 0.0
C607 C 0.83835 0.82381 0.16546 0.0
C608 C 0.89058 0.89254 0.1585 0.0
C609 C 0.83735 0.85953 0.12673 0.0
C610 C 0.84376 0.85058 0.10276 0.0
C611 C 0.823 0.8514 0.08205 0.0
C612 C 0.7946 0.86122 0.0859 0.0
C613 C 0.78724 0.87033 0.11026 0.0
C614 C 0.80933 0.86999 0.13089 0.0
H615 H 0.9419 0.81593 0.63041 0.0
H616 H 0.95738 0.7279 0.59459 0.0
H617 H 1.02656 0.77327 0.59054 0.0
H618 H 1.01387 0.89704 0.59434 0.0
H619 H 0.03022 0.92892 0.62102 0.0
H620 H 0.98132 0.89045 0.61961 0.0
H621 H 0.9897 0.86563 0.66272 0.0
H622 H 0.03862 0.90394 0.66428 0.0
H623 H 1.02792 0.85507 0.66696 0.0
H624 H 0.09393 0.82725 0.59082 0.0
H625 H 0.15621 0.88558 0.59768 0.0
H626 H 0.09885 0.93876 0.63509 0.0
C627 C 0.95984 0.80644 0.62143 0.0
C628 C 0.94419 0.76842 0.61263 0.0
C629 C 0.9687 0.75684 0.60145 0.0
C630 C 1.00804 0.78245 0.59899 0.0
C631 C 1.02267 0.81955 0.60803 0.0
C632 C 0.99947 0.83155 0.6192 0.0
C633 C 1.02307 0.87242 0.62863 0.0
C634 C 1.01142 0.89876 0.61508 0.0
C635 C 1.01962 0.87436 0.65735 0.0
C636 C 0.06309 0.88135 0.62108 0.0
C637 C 0.06201 0.85053 0.60896 0.0
C638 C 0.09514 0.85164 0.60021 0.0
C639 C 0.13041 0.885 0.60408 0.0
C640 C 0.1325 0.91686 0.61681 0.0
C641 C 0.09823 0.91487 0.62538 0.0
H642 H 0.11391 0.88134 0.36687 0.0
H643 H 0.11179 0.83659 0.44153 0.0
H644 H 0.04372 0.81828 0.44576 0.0
H645 H 0.05007 0.9188 0.38025 0.0
H646 H 1.02704 0.90538 0.34988 0.0
H647 H 0.07616 0.91683 0.35329 0.0
H648 H 0.05903 0.85108 0.33421 0.0
H649 H 1.00985 0.83937 0.33083 0.0
H650 H 1.02139 0.80808 0.34824 0.0
H651 H 0.97532 0.80309 0.4414 0.0
H652 H 0.9113 0.79103 0.42844 0.0
H653 H 0.95775 0.84514 0.35649 0.0
C654 C 0.09928 0.86807 0.38423 0.0
C655 C 0.1183 0.86054 0.40392 0.0
C656 C 0.09791 0.84268 0.42619 0.0
C657 C 0.05922 0.83222 0.42879 0.0
C658 C 0.04126 0.83971 0.40894 0.0
C659 C 0.06059 0.85721 0.38708 0.0
C660 C 0.03424 0.86076 0.36821 0.0
C661 C 0.04768 0.90295 0.36259 0.0
C662 C 0.03094 0.83849 0.34395 0.0
C663 C 0.99699 0.84219 0.38278 0.0
C664 C 1.00173 0.83052 0.4063 0.0
C665 C 0.97132 0.8123 0.42308 0.0
C666 C 0.93509 0.80574 0.41559 0.0
C667 C 0.92946 0.81718 0.39147 0.0
C668 C 0.96101 0.83575 0.37496 0.0
H669 H 0.16337 0.92681 0.87759 0.0
H670 H 0.06366 0.9394 0.89012 0.0
H671 H 0.10566 1.00914 0.89428 0.0
H672 H 0.22665 1.00016 0.92067 0.0
H673 H 0.26812 1.01639 0.9008 0.0
H674 H 0.23027 0.96732 0.89936 0.0
H675 H 0.22342 0.97384 0.85136 0.0
H676 H 0.26127 0.02291 0.85265 0.0
H677 H 0.21517 1.01116 0.83986 0.0
H678 H 0.15837 0.07763 0.89634 0.0
H679 H 0.21803 0.13999 0.8963 0.0
H680 H 0.28336 0.08286 0.88173 0.0
C681 C 0.1503 0.94421 0.88107 0.0
C682 C 0.11016 0.92751 0.88362 0.0
C683 C 0.09434 0.95138 0.88848 0.0
C684 C 0.11795 0.99107 0.89072 0.0
C685 C 0.15734 1.00654 0.88804 0.0
C686 C 0.17342 0.98388 0.88332 0.0
C687 C 0.21658 1.00771 0.88103 0.0
C688 C 0.23657 0.99727 0.9017 0.0
C689 C 0.22988 1.00366 0.85465 0.0
C690 C 0.22224 0.04734 0.8851 0.0
C691 C 0.1877 0.04602 0.88914 0.0
C692 C 0.18559 0.07902 0.89323 0.0
C693 C 0.21969 0.11433 0.89316 0.0
C694 C 0.25546 0.1164 0.88902 0.0
C695 C 0.25655 0.08232 0.88497 0.0
H696 H 0.16079 0.23027 0.36572 0.0
H697 H 0.20892 0.27457 0.43959 0.0
H698 H 0.22615 0.22424 0.44414 0.0
H699 H 0.12222 0.1293 0.38052 0.0
H700 H 0.13425 0.11821 0.35019 0.0
H701 H 0.12369 0.1565 0.35321 0.0
H702 H 0.18913 0.20336 0.33308 0.0
H703 H 0.19995 0.16528 0.33008 0.0
H704 H 0.23245 0.20839 0.34674 0.0
H705 H 0.24001 0.17057 0.44039 0.0
H706 H 0.25089 0.11779 0.4281 0.0
H707 H 0.1945 0.10817 0.35652 0.0
C708 C 0.17459 0.22914 0.38296 0.0
C709 C 0.18339 0.25638 0.40232 0.0
C710 C 0.20189 0.25412 0.42446 0.0
C711 C 0.21173 0.22555 0.42727 0.0
C712 C 0.20302 0.19942 0.40777 0.0
C713 C 0.18491 0.20091 0.38602 0.0
C714 C 0.18016 0.17015 0.36756 0.0
C715 C 0.13754 0.14186 0.36258 0.0
C716 C 0.20172 0.18787 0.34291 0.0
C717 C 0.19881 0.15147 0.38224 0.0
C718 C 0.21149 0.16862 0.40547 0.0
C719 C 0.23 0.15673 0.42231 0.0
C720 C 0.23587 0.12658 0.4152 0.0
C721 C 0.22345 0.10868 0.39139 0.0
C722 C 0.20457 0.12138 0.37478 0.0
H723 H 0.10451 0.20567 0.85136 0.0
H724 H 0.14543 0.24803 0.92678 0.0
H725 H 0.08029 0.23282 0.93901 0.0
H726 H 0.03925 0.24192 0.84657 0.0
H727 H 1.00319 0.20113 0.82954 0.0
H728 H 0.05289 0.21444 0.82673 0.0
H729 H 0.03654 0.14642 0.84054 0.0
H730 H 0.98679 0.13293 0.84345 0.0
H731 H 1.01182 0.12742 0.86985 0.0
H732 H 1.01169 0.2152 0.94288 0.0
H733 H 0.94346 0.19547 0.93846 0.0
H734 H 0.94558 0.16359 0.86063 0.0
C735 C 0.0998 0.21188 0.87042 0.0
C736 C 0.13021 0.22795 0.88814 0.0
C737 C 0.12263 0.23525 0.91296 0.0
C738 C 0.08572 0.22688 0.92006 0.0
C739 C 0.05649 0.21106 0.90219 0.0
C740 C 0.06298 0.20351 0.8779 0.0
C741 C 1.02638 0.18658 0.86237 0.0
C742 C 0.0307 0.21257 0.83998 0.0
C743 C 1.0147 0.14592 0.85354 0.0
C744 C 0.99843 0.18614 0.8817 0.0
C745 C 1.01653 0.20042 0.90452 0.0
C746 C 0.99717 0.20383 0.92514 0.0
C747 C 0.95834 0.19258 0.92239 0.0
C748 C 0.93899 0.17789 0.8992 0.0
C749 C 0.9594 0.17439 0.87865 0.0
H750 H 0.93716 0.08646 0.35766 0.0
H751 H 0.92163 0.13136 0.42816 0.0
H752 H 0.87011 0.06694 0.4399 0.0
H753 H 0.83889 0.02238 0.34594 0.0
H754 H 0.84577 0.98505 0.33281 0.0
H755 H 0.88329 0.03413 0.33055 0.0
H756 H 0.93057 1.01718 0.35229 0.0
H757 H 0.89317 0.96797 0.35458 0.0
H758 H 0.91844 0.9937 0.38247 0.0
H759 H 0.81865 0.99908 0.44321 0.0
H760 H 0.76942 0.93159 0.43787 0.0
H761 H 0.81764 0.92955 0.36518 0.0
C762 C 0.9233 0.08254 0.37573 0.0
C763 C 0.93333 0.11391 0.39201 0.0
C764 C 0.91412 0.10781 0.41531 0.0
C765 C 0.88501 0.0713 0.42221 0.0
C766 C 0.87545 0.04111 0.40563 0.0
C767 C 0.89398 0.04622 0.38289 0.0
C768 C 0.87683 1.00912 0.36809 0.0
C769 C 0.8602 1.01291 0.34286 0.0
C770 C 0.90653 0.99624 0.36413 0.0
C771 C 0.84543 0.98257 0.38592 0.0
C772 C 0.84543 1.00165 0.40752 0.0
C773 C 0.8185 0.98373 0.42647 0.0
C774 C 0.79057 0.94533 0.4232 0.0
C775 C 0.78961 0.92514 0.40111 0.0
C776 C 0.81774 0.94405 0.38236 0.0
H777 H 0.89477 0.80275 0.86306 0.0
H778 H 0.8503 0.76513 0.93841 0.0
H779 H 0.83361 0.816 0.9412 0.0
H780 H 0.93445 0.90486 0.87413 0.0
H781 H 0.92084 0.91357 0.84357 0.0
H782 H 0.93112 0.87526 0.84774 0.0
H783 H 0.86443 0.82724 0.82953 0.0
H784 H 0.85389 0.86535 0.82537 0.0
H785 H 0.8221 0.82384 0.84356 0.0
H786 H 0.82063 0.86991 0.93595 0.0
H787 H 0.81051 0.92265 0.92246 0.0
H788 H 0.86176 0.92552 0.85009 0.0
C789 C 0.88186 0.80547 0.88023 0.0
C790 C 0.87398 0.77991 0.90056 0.0
C791 C 0.85659 0.7842 0.92255 0.0
C792 C 0.84706 0.81312 0.92437 0.0
C793 C 0.85484 0.83756 0.90398 0.0
C794 C 0.87173 0.83406 0.88228 0.0
C795 C 0.87567 0.86342 0.86283 0.0
C796 C 0.91804 0.89091 0.85671 0.0
C797 C 0.85264 0.84378 0.83891 0.0
C798 C 0.85815 0.88371 0.87697 0.0
C799 C 0.84664 0.86845 0.90075 0.0
C800 C 0.82967 0.88222 0.91741 0.0
C801 C 0.82422 0.91236 0.9096 0.0
C802 C 0.8355 0.92847 0.88527 0.0
C803 C 0.85264 0.91374 0.86875 0.0
H804 H 0.20364 0.72199 0.11704 0.0
H805 H 0.08024 0.66988 0.10911 0.0
H806 H 0.075 0.60658 0.10474 0.0
H807 H 0.21554 0.66275 0.07188 0.0
H808 H 0.25248 0.66016 0.08951 0.0
H809 H 0.2465 0.70133 0.09261 0.0
H810 H 0.23917 0.69119 0.14086 0.0
H811 H 0.24504 0.64992 0.13791 0.0
H812 H 0.20315 0.64572 0.15314 0.0
H813 H 0.08314 0.54875 0.10055 0.0
H814 H 0.10412 0.50097 0.09669 0.0
H815 H 0.22224 0.59052 0.10693 0.0
C816 C 0.17545 0.69731 0.11448 0.0
C817 C 0.14233 0.70112 0.11347 0.0
C818 C 0.10608 0.66791 0.10999 0.0
C819 C 0.10277 0.63173 0.1075 0.0
C820 C 0.13596 0.62904 0.10853 0.0
C821 C 0.17161 0.66093 0.11194 0.0
C822 C 0.20282 0.65024 0.11201 0.0
C823 C 0.23099 0.66978 0.0902 0.0
C824 C 0.22377 0.65984 0.1375 0.0
C825 C 0.17916 0.60737 0.10802 0.0
C826 C 0.14065 0.59574 0.10609 0.0
C827 C 0.11324 0.55757 0.10201 0.0
C828 C 0.12548 0.53064 0.09971 0.0
C829 C 0.16486 0.54183 0.10145 0.0
C830 C 0.1919 0.58082 0.10582 0.0
H831 H 0.65213 0.20264 0.61624 0.0
H832 H 0.6192 0.08297 0.62295 0.0
H833 H 0.55145 0.06602 0.62712 0.0
H834 H 0.58244 0.2008 0.66042 0.0
H835 H 0.57383 0.23344 0.64218 0.0
H836 H 0.61985 0.2362 0.64089 0.0
H837 H 0.6141 0.22885 0.59236 0.0
H838 H 0.56811 0.22612 0.59352 0.0
H839 H 0.57272 0.1884 0.57872 0.0
H840 H 0.48629 0.06183 0.62828 0.0
H841 H 0.43003 0.07123 0.62713 0.0
H842 H 0.50619 0.19358 0.61991 0.0
C843 C 0.63072 0.17286 0.6186 0.0
C844 C 0.64117 0.14419 0.61937 0.0
C845 C 0.61212 0.10558 0.6227 0.0
C846 C 0.57347 0.09561 0.62495 0.0
C847 C 0.56417 0.12456 0.62395 0.0
C848 C 0.59203 0.16242 0.62096 0.0
C849 C 0.5745 0.18803 0.62 0.0
C850 C 0.58849 0.21628 0.6422 0.0
C851 C 0.58285 0.20908 0.59464 0.0
C852 C 0.53242 0.15864 0.62257 0.0
C853 C 0.52694 0.12218 0.62486 0.0
C854 C 0.4903 0.09033 0.62669 0.0
C855 C 0.45848 0.09593 0.62601 0.0
C856 C 0.4635 0.13312 0.62358 0.0
C857 C 0.50113 0.16475 0.62203 0.0
H858 H 0.46593 0.61731 0.08245 0.0
H859 H 0.53089 0.62369 0.14939 0.0
H860 H 0.48321 0.55681 0.15951 0.0
H861 H 0.37237 0.55868 0.10884 0.0
H862 H 0.35253 0.53181 0.08027 0.0
H863 H 0.39149 0.58032 0.07873 0.0
H864 H 0.43124 0.55785 0.0529 0.0
H865 H 0.39245 0.50924 0.05447 0.0
H866 H 0.4395 0.52105 0.06542 0.0
H867 H 0.4273 0.488 0.16225 0.0
H868 H 0.36822 0.42509 0.1576 0.0
H869 H 0.34218 0.46394 0.08804 0.0
C870 C 0.47043 0.6047 0.09916 0.0
C871 C 0.50239 0.62613 0.1151 0.0
C872 C 0.50649 0.60834 0.13701 0.0
C873 C 0.47966 0.57014 0.14283 0.0
C874 C 0.44875 0.54984 0.12657 0.0
C875 C 0.44403 0.56662 0.10521 0.0
C876 C 0.40834 0.53883 0.09082 0.0
C877 C 0.37948 0.55327 0.0896 0.0
C878 C 0.41851 0.5313 0.06434 0.0
C879 C 0.39375 0.50371 0.10734 0.0
C880 C 0.41729 0.51051 0.12793 0.0
C881 C 0.40881 0.48238 0.1461 0.0
C882 C 0.37523 0.44664 0.14327 0.0
C883 C 0.35056 0.43922 0.12236 0.0
C884 C 0.36046 0.46826 0.10413 0.0
H885 H 0.83894 0.44421 0.60513 0.0
H886 H 0.95712 0.5362 0.60433 0.0
H887 H 0.97883 0.48921 0.61036 0.0
H888 H 0.85114 0.38615 0.65235 0.0
H889 H 0.81812 0.3417 0.63724 0.0
H890 H 0.81199 0.38276 0.63383 0.0
H891 H 0.81341 0.37716 0.58529 0.0
H892 H 0.81959 0.33615 0.58857 0.0
H893 H 0.85361 0.37687 0.57063 0.0
H894 H 0.98764 0.43167 0.61432 0.0
H895 H 0.98289 0.36842 0.61751 0.0
H896 H 0.8588 0.31411 0.616 0.0
C897 C 0.8694 0.45451 0.6062 0.0
C898 C 0.89634 0.49395 0.60424 0.0
C899 C 0.93594 0.50622 0.60607 0.0
C900 C 0.94854 0.47971 0.60935 0.0
C901 C 0.92121 0.44103 0.61094 0.0
C902 C 0.88246 0.42848 0.60958 0.0
C903 C 0.85896 0.38534 0.61155 0.0
C904 C 0.83356 0.37329 0.63515 0.0
C905 C 0.83499 0.36786 0.58758 0.0
C906 C 0.89057 0.37551 0.61393 0.0
C907 C 0.92627 0.40802 0.61353 0.0
C908 C 0.95982 0.40605 0.61481 0.0
C909 C 0.95681 0.36993 0.61656 0.0
C910 C 0.92049 0.33619 0.6171 0.0
C911 C 0.88702 0.33927 0.61584 0.0
H912 H 0.55938 0.85167 0.11966 0.0
H913 H 0.63569 0.97451 0.11773 0.0
H914 H 0.57935 0.98386 0.11653 0.0
H915 H 0.48993 0.84851 0.07706 0.0
H916 H 0.44982 0.81086 0.09357 0.0
H917 H 0.49607 0.81421 0.09525 0.0
H918 H 0.49425 0.81646 0.14395 0.0
H919 H 0.44793 0.81301 0.14245 0.0
H920 H 0.48669 0.85216 0.15907 0.0
H921 H 0.51377 0.97911 0.11449 0.0
H922 H 0.44558 0.96107 0.11134 0.0
H923 H 0.41315 0.84125 0.11492 0.0
C924 C 0.56451 0.88067 0.11911 0.0
C925 C 0.60217 0.91241 0.11882 0.0
C926 C 0.60722 0.94974 0.11802 0.0
C927 C 0.57536 0.95531 0.11734 0.0
C928 C 0.53867 0.92327 0.11751 0.0
C929 C 0.53321 0.88669 0.11841 0.0
C930 C 0.49105 0.85691 0.11793 0.0
C931 C 0.48115 0.83112 0.09456 0.0
C932 C 0.4793 0.83325 0.1423 0.0
C933 C 0.47343 0.88235 0.11637 0.0
C934 C 0.50129 0.92054 0.11628 0.0
C935 C 0.49178 0.94929 0.1147 0.0
C936 C 0.45289 0.93873 0.11307 0.0
C937 C 0.42383 0.8997 0.11297 0.0
C938 C 0.43453 0.8713 0.11474 0.0
H939 H 0.71169 0.5821 0.58935 0.0
H940 H 0.70926 0.60465 0.66898 0.0
H941 H 0.65044 0.54131 0.67362 0.0
H942 H 0.60872 0.52942 0.57843 0.0
H943 H 0.61223 0.49688 0.5568 0.0
H944 H 0.6514 0.54512 0.55986 0.0
H945 H 0.69732 0.51917 0.5699 0.0
H946 H 0.65828 0.47089 0.56713 0.0
H947 H 0.68636 0.48623 0.59563 0.0
H948 H 0.59365 0.47227 0.66932 0.0
H949 H 0.54413 0.40705 0.6565 0.0
H950 H 0.58759 0.43108 0.58007 0.0
C951 C 0.69861 0.57419 0.60778 0.0
C952 C 0.71508 0.59852 0.62882 0.0
C953 C 0.69694 0.58673 0.65254 0.0
C954 C 0.66366 0.5507 0.65534 0.0
C955 C 0.64892 0.52697 0.63423 0.0
C956 C 0.66583 0.53857 0.61088 0.0
C957 C 0.64606 0.50759 0.59126 0.0
C958 C 0.62856 0.52053 0.57036 0.0
C959 C 0.67365 0.49525 0.58035 0.0
C960 C 0.61535 0.47635 0.60713 0.0
C961 C 0.6172 0.48788 0.63186 0.0
C962 C 0.59197 0.46316 0.64997 0.0
C963 C 0.5641 0.42601 0.64254 0.0
C964 C 0.56167 0.41377 0.61721 0.0
C965 C 0.58797 0.43953 0.59946 0.0
H966 H 0.3239 0.83791 0.3886 0.0
H967 H 0.37142 0.96035 0.38032 0.0
H968 H 0.43671 0.96912 0.38116 0.0
H969 H 0.39191 0.84284 0.43212 0.0
H970 H 0.39369 0.80214 0.41978 0.0
H971 H 0.35082 0.80516 0.41622 0.0
H972 H 0.353 0.79755 0.36793 0.0
H973 H 0.3959 0.7944 0.37133 0.0
H974 H 0.39563 0.82983 0.3508 0.0
H975 H 0.49686 0.96483 0.38564 0.0
H976 H 0.54715 0.94801 0.39347 0.0
H977 H 0.46012 0.82844 0.3995 0.0
C978 C 0.34794 0.86658 0.38653 0.0
C979 C 0.34241 0.89846 0.38424 0.0
C980 C 0.37482 0.93546 0.38197 0.0
C981 C 0.41205 0.94072 0.38241 0.0
C982 C 0.41641 0.9087 0.38507 0.0
C983 C 0.38521 0.87234 0.38701 0.0
C984 C 0.39761 0.84288 0.39105 0.0
C985 C 0.38262 0.82205 0.41629 0.0
C986 C 0.38477 0.81449 0.36895 0.0
C987 C 0.44073 0.86841 0.39148 0.0
C988 C 0.45099 0.90625 0.38783 0.0
C989 C 0.48914 0.93528 0.38838 0.0
C990 C 0.51748 0.92545 0.393 0.0
C991 C 0.50763 0.88691 0.39714 0.0
C992 C 0.46867 0.85807 0.39605 0.0
H993 H 0.63453 0.4497 0.92412 0.0
H994 H 0.63299 0.52101 0.86353 0.0
H995 H 0.56805 0.47014 0.85143 0.0
H996 H 0.58332 0.35945 0.8908 0.0
H997 H 0.5576 0.33333 0.91837 0.0
H998 H 0.60444 0.37486 0.92158 0.0
H999 H 0.57686 0.40517 0.95214 0.0
H1000 H 0.52996 0.3638 0.94897 0.0
H1001 H 0.53701 0.41063 0.94218 0.0
H1002 H 0.50186 0.41228 0.84718 0.0
H1003 H 0.44082 0.35119 0.85018 0.0
H1004 H 0.48626 0.31817 0.91357 0.0
C1005 C 0.62055 0.45464 0.90831 0.0
C1006 C 0.63887 0.48935 0.89476 0.0
C1007 C 0.61972 0.49448 0.87399 0.0
C1008 C 0.58275 0.46585 0.86707 0.0
C1009 C 0.56538 0.43215 0.881 0.0
C1010 C 0.58377 0.42634 0.90108 0.0
C1011 C 0.55875 0.38773 0.91312 0.0
C1012 C 0.57713 0.36235 0.91082 0.0
C1013 C 0.55014 0.39212 0.94073 0.0
C1014 C 0.52323 0.37289 0.89687 0.0
C1015 C 0.52756 0.39887 0.87844 0.0
C1016 C 0.49822 0.39165 0.86148 0.0
C1017 C 0.46359 0.3569 0.86339 0.0
C1018 C 0.45863 0.32979 0.8821 0.0
C1019 C 0.48904 0.33811 0.89897 0.0
H1020 H 0.21784 0.62991 0.40496 0.0
H1021 H 0.09945 0.6013 0.39549 0.0
H1022 H 0.08102 0.53382 0.38773 0.0
H1023 H 0.21715 0.56516 0.35699 0.0
H1024 H 0.24802 0.55346 0.37485 0.0
H1025 H 0.25182 0.5996 0.37853 0.0
H1026 H 0.24129 0.58827 0.4266 0.0
H1027 H 0.23749 0.54215 0.42305 0.0
H1028 H 0.19937 0.54608 0.43789 0.0
H1029 H 0.07519 0.4682 0.3837 0.0
H1030 H 0.08308 0.41112 0.38232 0.0
H1031 H 0.20552 0.48396 0.39357 0.0
C1032 C 0.18805 0.60947 0.40121 0.0
C1033 C 0.16008 0.62087 0.40083 0.0
C1034 C 0.12144 0.59329 0.3956 0.0
C1035 C 0.11067 0.55487 0.39128 0.0
C1036 C 0.13894 0.54453 0.39202 0.0
C1037 C 0.17689 0.57115 0.39667 0.0
C1038 C 0.20171 0.55275 0.39683 0.0
C1039 C 0.23142 0.56869 0.37553 0.0
C1040 C 0.22109 0.5576 0.42263 0.0
C1041 C 0.17176 0.51152 0.39197 0.0
C1042 C 0.1357 0.50721 0.38922 0.0
C1043 C 0.10339 0.47132 0.38558 0.0
C1044 C 0.10811 0.43905 0.38484 0.0
C1045 C 0.1449 0.44296 0.38763 0.0
C1046 C 0.177 0.47984 0.39104 0.0
H1047 H 0.72673 0.19068 0.89163 0.0
H1048 H 0.68126 0.06833 0.88496 0.0
H1049 H 0.61539 0.05825 0.88681 0.0
H1050 H 0.65873 0.18619 0.93582 0.0
H1051 H 0.65608 0.22599 0.9227 0.0
H1052 H 0.69931 0.22355 0.91947 0.0
H1053 H 0.69628 0.22913 0.87106 0.0
H1054 H 0.65301 0.23162 0.87411 0.0
H1055 H 0.65362 0.19568 0.85428 0.0
H1056 H 0.55425 0.06171 0.89093 0.0
H1057 H 0.50326 0.07793 0.89707 0.0
H1058 H 0.58902 0.19815 0.90171 0.0
C1059 C 0.70303 0.16169 0.89029 0.0
C1060 C 0.70938 0.13025 0.88803 0.0
C1061 C 0.6773 0.09289 0.88659 0.0
C1062 C 0.63974 0.08691 0.88763 0.0
C1063 C 0.63463 0.11856 0.89008 0.0
C1064 C 0.66546 0.15523 0.89135 0.0
C1065 C 0.65241 0.18436 0.89474 0.0
C1066 C 0.66753 0.2063 0.91966 0.0
C1067 C 0.66455 0.21182 0.8722 0.0
C1068 C 0.60931 0.15838 0.89541 0.0
C1069 C 0.59964 0.12054 0.89261 0.0
C1070 C 0.56159 0.09125 0.89313 0.0
C1071 C 0.53279 0.10078 0.89679 0.0
C1072 C 0.54194 0.13935 0.90002 0.0
C1073 C 0.58088 0.16845 0.89904 0.0
H1074 H 0.41526 0.58854 0.40462 0.0
H1075 H 0.44261 0.49963 0.38786 0.0
H1076 H 0.50978 0.54887 0.37937 0.0
H1077 H 0.47708 0.65588 0.35712 0.0
H1078 H 0.4903 0.69695 0.37687 0.0
H1079 H 0.4442 0.65463 0.38059 0.0
H1080 H 0.45883 0.65172 0.42783 0.0
H1081 H 0.50492 0.694 0.42423 0.0
H1082 H 0.50171 0.65093 0.43662 0.0
H1083 H 0.57531 0.6084 0.37535 0.0
H1084 H 0.63263 0.67303 0.37455 0.0
H1085 H 0.56119 0.72217 0.39297 0.0
C1086 C 0.43536 0.57943 0.39911 0.0
C1087 C 0.4237 0.54024 0.39689 0.0
C1088 C 0.45082 0.5295 0.38941 0.0
C1089 C 0.48906 0.55726 0.38466 0.0
C1090 C 0.49968 0.59566 0.38723 0.0
C1091 C 0.4735 0.60672 0.3941 0.0
C1092 C 0.49219 0.64976 0.39587 0.0
C1093 C 0.47491 0.6652 0.37645 0.0
C1094 C 0.48924 0.66232 0.42273 0.0
C1095 C 0.53308 0.66119 0.38932 0.0
C1096 C 0.53695 0.62968 0.3844 0.0
C1097 C 0.57252 0.6333 0.37892 0.0
C1098 C 0.60493 0.67011 0.37854 0.0
C1099 C 0.60147 0.70275 0.38349 0.0
C1100 C 0.5649 0.69796 0.38876 0.0
H1101 H 0.84991 0.55083 0.89928 0.0
H1102 H 0.97244 0.62153 0.88775 0.0
H1103 H 0.97909 0.56375 0.89006 0.0
H1104 H 0.85525 0.48875 0.9444 0.0
H1105 H 0.81267 0.44688 0.93335 0.0
H1106 H 0.81755 0.49341 0.92944 0.0
H1107 H 0.80637 0.48164 0.88145 0.0
H1108 H 0.80134 0.435 0.88519 0.0
H1109 H 0.83627 0.46873 0.86359 0.0
H1110 H 0.97183 0.49745 0.89412 0.0
H1111 H 0.95206 0.42953 0.9012 0.0
H1112 H 0.8345 0.40328 0.91109 0.0
C1113 C 0.8782 0.55433 0.89696 0.0
C1114 C 0.91068 0.59085 0.89311 0.0
C1115 C 0.94713 0.59393 0.8906 0.0
C1116 C 0.95115 0.56123 0.89186 0.0
C1117 C 0.91848 0.52572 0.8958 0.0
C1118 C 0.88274 0.52219 0.8984 0.0
C1119 C 0.85226 0.48115 0.90341 0.0
C1120 C 0.83334 0.47734 0.92918 0.0
C1121 C 0.8223 0.46573 0.88214 0.0
C1122 C 0.87638 0.46195 0.90333 0.0
C1123 C 0.91445 0.48804 0.89871 0.0
C1124 C 0.94208 0.47685 0.8977 0.0
C1125 C 0.93054 0.43815 0.90162 0.0
C1126 C 0.89172 0.41101 0.9067 0.0
C1127 C 0.86442 0.42331 0.90748 0.0
H1128 H 0.14865 0.33714 0.30326 0.0
H1129 H 0.26026 0.42386 0.33025 0.0
H1130 H 0.28138 0.44266 0.28608 0.0
H1131 H 0.18316 0.30716 0.25249 0.0
H1132 H 0.14337 0.29729 0.23216 0.0
H1133 H 0.13703 0.29405 0.26572 0.0
H1134 H 0.11204 0.34213 0.2635 0.0
H1135 H 0.11903 0.34601 0.2299 0.0
H1136 H 0.14141 0.38831 0.24929 0.0
H1137 H 0.29018 0.45012 0.23818 0.0
H1138 H 0.28886 0.439 0.19208 0.0
H1139 H 0.17226 0.34563 0.19804 0.0
C1140 C 0.17743 0.36044 0.29995 0.0
C1141 C 0.20273 0.37937 0.32011 0.0
C1142 C 0.24044 0.40904 0.31499 0.0
C1143 C 0.25251 0.4201 0.29002 0.0
C1144 C 0.22655 0.40097 0.27052 0.0
C1145 C 0.18997 0.37136 0.27533 0.0
C1146 C 0.16849 0.35277 0.25137 0.0
C1147 C 0.1574 0.31033 0.25038 0.0
C1148 C 0.13316 0.35762 0.24835 0.0
C1149 C 0.19879 0.37612 0.23217 0.0
C1150 C 0.23188 0.40439 0.24341 0.0
C1151 C 0.26428 0.42834 0.22923 0.0
C1152 C 0.26322 0.42215 0.20309 0.0
C1153 C 0.23022 0.39194 0.19174 0.0
C1154 C 0.19748 0.36941 0.20636 0.0
H1155 H 0.83758 0.18184 0.69841 0.0
H1156 H 0.93657 0.29591 0.70185 0.0
H1157 H 0.92623 0.29868 0.74737 0.0
H1158 H 0.7795 0.19605 0.74731 0.0
H1159 H 0.76158 0.14853 0.75961 0.0
H1160 H 0.77319 0.15785 0.72667 0.0
H1161 H 0.81888 0.13015 0.73054 0.0
H1162 H 0.80752 0.12086 0.7634 0.0
H1163 H 0.85669 0.14972 0.75372 0.0
H1164 H 0.90951 0.28639 0.79317 0.0
H1165 H 0.8888 0.25905 0.83568 0.0
H1166 H 0.80135 0.15286 0.8022 0.0
C1167 C 0.85645 0.20779 0.70861 0.0
C1168 C 0.88774 0.23871 0.69658 0.0
C1169 C 0.91238 0.27184 0.7107 0.0
C1170 C 0.90662 0.27379 0.73654 0.0
C1171 C 0.87606 0.24243 0.74798 0.0
C1172 C 0.8513 0.21008 0.73446 0.0
C1173 C 0.82305 0.17889 0.75161 0.0
C1174 C 0.78189 0.16981 0.74596 0.0
C1175 C 0.82679 0.1428 0.7497 0.0
C1176 C 0.8366 0.19828 0.77692 0.0
C1177 C 0.86677 0.23514 0.77444 0.0
C1178 C 0.88554 0.25774 0.79535 0.0
C1179 C 0.8736 0.24196 0.81942 0.0
C1180 C 0.84347 0.20382 0.82231 0.0
C1181 C 0.82433 0.18218 0.80071 0.0
H1182 H 0.68117 0.81711 0.19381 0.0
H1183 H 0.63306 0.89224 0.19456 0.0
H1184 H 0.62221 0.88252 0.24028 0.0
H1185 H 0.61987 0.75129 0.246 0.0
H1186 H 0.65953 0.74742 0.25835 0.0
H1187 H 0.65628 0.75394 0.22505 0.0
H1188 H 0.72419 0.81357 0.22616 0.0
H1189 H 0.72745 0.8076 0.25943 0.0
H1190 H 0.7339 0.8522 0.24744 0.0
H1191 H 0.62585 0.87314 0.28619 0.0
H1192 H 0.64163 0.86257 0.3293 0.0
H1193 H 0.68831 0.79429 0.29904 0.0
C1194 C 0.66693 0.83016 0.20351 0.0
C1195 C 0.65755 0.85505 0.19079 0.0
C1196 C 0.64024 0.87289 0.2041 0.0
C1197 C 0.63387 0.86746 0.23002 0.0
C1198 C 0.64496 0.8441 0.24233 0.0
C1199 C 0.66077 0.82538 0.22953 0.0
C1200 C 0.67419 0.8055 0.24766 0.0
C1201 C 0.65108 0.76195 0.24405 0.0
C1202 C 0.71749 0.82064 0.24501 0.0
C1203 C 0.66485 0.81728 0.27254 0.0
C1204 C 0.6475 0.83905 0.26906 0.0
C1205 C 0.63877 0.85551 0.28921 0.0
C1206 C 0.64806 0.84956 0.31361 0.0
C1207 C 0.66612 0.82755 0.31758 0.0
C1208 C 0.67414 0.81093 0.29671 0.0
H1209 H 0.89563 0.69968 0.70102 0.0
H1210 H 0.78537 0.59791 0.69007 0.0
H1211 H 0.78106 0.58521 0.73603 0.0
H1212 H 0.92896 0.66071 0.75273 0.0
H1213 H 0.95319 0.70649 0.76829 0.0
H1214 H 0.9487 0.70406 0.7345 0.0
H1215 H 0.91693 0.74629 0.73646 0.0
H1216 H 0.92044 0.74811 0.77023 0.0
H1217 H 0.87453 0.731 0.75526 0.0
H1218 H 0.78527 0.59036 0.78436 0.0
H1219 H 0.8023 0.60702 0.82944 0.0
H1220 H 0.91118 0.7033 0.80702 0.0
C1221 C 0.87122 0.67402 0.70825 0.0
C1222 C 0.84104 0.64948 0.69221 0.0
C1223 C 0.80912 0.61653 0.70217 0.0
C1224 C 0.80632 0.60936 0.72822 0.0
C1225 C 0.83605 0.63509 0.74377 0.0
C1226 C 0.86837 0.66617 0.73397 0.0
C1227 C 0.89582 0.6904 0.75444 0.0
C1228 C 0.93392 0.69039 0.75237 0.0
C1229 C 0.90228 0.73135 0.75406 0.0
C1230 C 0.87355 0.66883 0.77739 0.0
C1231 C 0.83901 0.63713 0.77106 0.0
C1232 C 0.81262 0.61464 0.78948 0.0
C1233 C 0.82231 0.62444 0.81497 0.0
C1234 C 0.85818 0.65611 0.82158 0.0
C1235 C 0.88383 0.67847 0.80249 0.0
H1236 H 0.22285 0.85797 0.1975 0.0
H1237 H 0.1329 0.73914 0.19858 0.0
H1238 H 0.14097 0.73707 0.2445 0.0
H1239 H 0.28262 0.85169 0.24925 0.0
H1240 H 0.29426 0.89793 0.26145 0.0
H1241 H 0.28585 0.88822 0.22822 0.0
H1242 H 0.23362 0.9079 0.22958 0.0
H1243 H 0.24158 0.91731 0.26277 0.0
H1244 H 0.19425 0.88424 0.25126 0.0
H1245 H 0.15335 0.7499 0.29064 0.0
H1246 H 0.16928 0.77682 0.3336 0.0
H1247 H 0.25019 0.88761 0.30239 0.0
C1248 C 0.20575 0.8312 0.2073 0.0
C1249 C 0.17749 0.79865 0.19452 0.0
C1250 C 0.15481 0.76441 0.20806 0.0
C1251 C 0.15927 0.7629 0.23411 0.0
C1252 C 0.18654 0.79586 0.24633 0.0
C1253 C 0.20956 0.82934 0.23337 0.0
C1254 C 0.23391 0.86173 0.25123 0.0
C1255 C 0.2767 0.87571 0.2473 0.0
C1256 C 0.2253 0.89472 0.24855 0.0
C1257 C 0.2201 0.84154 0.27624 0.0
C1258 C 0.19321 0.80344 0.27303 0.0
C1259 C 0.17479 0.77957 0.29342 0.0
C1260 C 0.18393 0.79516 0.31775 0.0
C1261 C 0.21098 0.83433 0.32141 0.0
C1262 C 0.22955 0.85751 0.30031 0.0
H1263 H 0.37211 0.16033 0.8103 0.0
H1264 H 0.41731 0.28259 0.81297 0.0
H1265 H 0.43116 0.28706 0.76732 0.0
H1266 H 0.43796 0.16056 0.75979 0.0
H1267 H 0.40006 0.11758 0.74578 0.0
H1268 H 0.40042 0.12517 0.77925 0.0
H1269 H 0.33192 0.11559 0.77618 0.0
H1270 H 0.3315 0.10845 0.74275 0.0
H1271 H 0.32284 0.14512 0.75501 0.0
H1272 H 0.43163 0.27696 0.72095 0.0
H1273 H 0.42007 0.25326 0.67714 0.0
H1274 H 0.37367 0.13719 0.70469 0.0
C1275 C 0.38631 0.18809 0.80132 0.0
C1276 C 0.39459 0.22128 0.81487 0.0
C1277 C 0.41162 0.25709 0.80267 0.0
C1278 C 0.41952 0.25985 0.77685 0.0
C1279 C 0.41008 0.22644 0.76367 0.0
C1280 C 0.39415 0.19124 0.7755 0.0
C1281 C 0.383 0.15931 0.75662 0.0
C1282 C 0.40679 0.13949 0.7606 0.0
C1283 C 0.33976 0.13044 0.75771 0.0
C1284 C 0.39378 0.18185 0.73234 0.0
C1285 C 0.40983 0.22055 0.7368 0.0
C1286 C 0.41969 0.24677 0.71721 0.0
C1287 C 0.41282 0.23302 0.69239 0.0
C1288 C 0.39601 0.19339 0.68744 0.0
C1289 C 0.38688 0.1677 0.70777 0.0
H1290 H 0.3447 0.30285 0.95267 0.0
H1291 H 0.29499 0.182 0.969 0.0
H1292 H 0.25843 0.18874 1.00415 0.0
H1293 H 0.35506 0.33397 0.01747 0.0
H1294 H 0.34436 0.37138 0.01051 0.0
H1295 H 0.36615 0.35634 0.98693 0.0
H1296 H 0.31081 0.34331 0.95623 0.0
H1297 H 0.28829 0.35733 0.97996 0.0
H1298 H 0.26203 0.31092 0.96537 0.0
H1299 H 0.22704 0.2086 0.03698 0.0
H1300 H 0.20985 0.24159 0.06916 0.0
H1301 H 0.2798 0.34966 0.03144 0.0
C1302 C 0.32635 0.27781 0.96377 0.0
C1303 C 0.32265 0.24184 0.95815 0.0
C1304 C 0.29855 0.20987 0.97317 0.0
C1305 C 0.27735 0.21336 0.99294 0.0
C1306 C 0.28083 0.24905 0.99746 0.0
C1307 C 0.30528 0.28086 0.98361 0.0
C1308 C 0.30507 0.31628 0.99294 0.0
C1309 C 0.34502 0.34625 1.00254 0.0
C1310 C 0.29068 0.33293 0.9724 0.0
C1311 C 0.2766 0.2995 0.01431 0.0
C1312 C 0.26268 0.26056 0.01638 0.0
C1313 C 0.23749 0.23895 0.03541 0.0
C1314 C 0.22762 0.25786 0.05344 0.0
C1315 C 0.24278 0.2979 0.05232 0.0
C1316 C 0.26675 0.31884 0.03213 0.0
H1317 H 0.0961 0.26952 0.47157 0.0
H1318 H 0.10342 0.37866 0.4572 0.0
H1319 H 0.05122 0.36271 0.4878 0.0
H1320 H 0.99656 0.2138 0.4786 0.0
H1321 H 0.99767 0.18533 0.50438 0.0
H1322 H 0.0364 0.20552 0.48207 0.0
H1323 H 0.08556 0.23946 0.51811 0.0
H1324 H 0.04699 0.21824 0.54049 0.0
H1325 H 0.07811 0.26931 0.53998 0.0
H1326 H 0.99373 0.33165 0.51671 0.0
H1327 H 0.94478 0.29428 0.54882 0.0
H1328 H 0.9791 0.20809 0.54717 0.0
C1329 C 0.08722 0.29034 0.47537 0.0
C1330 C 0.10375 0.32538 0.46228 0.0
C1331 C 0.09141 0.35194 0.46743 0.0
C1332 C 0.06153 0.34292 0.48452 0.0
C1333 C 0.04499 0.3076 0.49662 0.0
C1334 C 0.05825 0.28227 0.4929 0.0
C1335 C 0.03651 0.24682 0.50894 0.0
C1336 C 1.01555 0.21075 0.49251 0.0
C1337 C 0.0634 0.24328 0.52801 0.0
C1338 C 1.00849 0.25583 0.52193 0.0
C1339 C 1.01334 0.29068 0.51422 0.0
C1340 C 0.98995 0.30452 0.52308 0.0
C1341 C 0.9619 0.28288 0.54105 0.0
C1342 C 0.95805 0.24824 0.55025 0.0
C1343 C 0.9813 0.23437 0.54027 0.0
H1344 H 0.68948 0.96185 0.0445 0.0
H1345 H 0.77696 0.92915 0.04403 0.0
H1346 H 0.8118 0.97662 0.01082 0.0
H1347 H 0.69336 0.98278 0.97521 0.0
H1348 H 0.68616 0.0229 0.98042 0.0
H1349 H 0.66563 0.98294 1.00177 0.0
H1350 H 0.69976 0.02938 0.03885 0.0
H1351 H 0.72141 0.06933 0.01756 0.0
H1352 H 0.75109 0.05965 0.03826 0.0
H1353 H 0.84066 0.0312 0.98199 0.0
H1354 H 0.85777 0.08425 0.95259 0.0
H1355 H 0.75226 0.08355 0.97047 0.0
C1356 C 0.715 0.96359 0.03644 0.0
C1357 C 0.73015 0.94123 0.04613 0.0
C1358 C 0.76456 0.94539 0.03623 0.0
C1359 C 0.7847 0.97254 0.01763 0.0
C1360 C 0.77008 0.99542 0.00924 0.0
C1361 C 0.73564 0.99082 0.01779 0.0
C1362 C 0.72751 0.0205 1.00613 0.0
C1363 C 0.691 1.00112 0.98991 0.0
C1364 C 0.72479 0.04623 0.02642 0.0
C1365 C 0.76303 0.04269 0.99001 0.0
C1366 C 0.78716 0.02767 0.99238 0.0
C1367 C 0.82187 0.043 0.97975 0.0
C1368 C 0.83146 0.07335 0.96326 0.0
C1369 C 0.80646 0.08812 0.95939 0.0
C1370 C 0.77221 0.07329 0.97345 0.0
H1371 H 0.83813 0.74882 0.53339 0.0
H1372 H 0.73091 0.67035 0.56959 0.0
H1373 H 0.69526 0.68392 0.53727 0.0
H1374 H 0.814 0.81833 0.51889 0.0
H1375 H 0.83698 0.83127 0.48856 0.0
H1376 H 0.85451 0.81211 0.5124 0.0
H1377 H 0.84637 0.75829 0.48204 0.0
H1378 H 0.82951 0.77776 0.45793 0.0
H1379 H 0.80064 0.72847 0.46715 0.0
H1380 H 0.67177 0.7112 0.50465 0.0
H1381 H 0.66095 0.74516 0.46975 0.0
H1382 H 0.78299 0.80581 0.45403 0.0
C1383 C 0.80712 0.73358 0.53382 0.0
C1384 C 0.78701 0.70819 0.55359 0.0
C1385 C 0.74655 0.6896 0.55429 0.0
C1386 C 0.72611 0.69721 0.53613 0.0
C1387 C 0.74664 0.7235 0.51738 0.0
C1388 C 0.78615 0.74096 0.51573 0.0
C1389 C 0.80105 0.76959 0.49435 0.0
C1390 C 0.82824 0.81022 0.50415 0.0
C1391 C 0.82053 0.75781 0.47417 0.0
C1392 C 0.76385 0.76584 0.48469 0.0
C1393 C 0.73287 0.73919 0.4983 0.0
C1394 C 0.69571 0.73181 0.49358 0.0
C1395 C 0.68988 0.75149 0.4739 0.0
C1396 C 0.72105 0.77803 0.45917 0.0
C1397 C 0.75852 0.78551 0.46488 0.0
H1398 H 0.95939 0.76714 0.97467 0.0
H1399 H 0.95288 0.6587 0.95887 0.0
H1400 H 1.00637 0.67507 0.98856 0.0
H1401 H 0.05869 0.82376 0.98028 0.0
H1402 H 0.05852 0.85192 1.00657 0.0
H1403 H 1.01863 0.83134 0.98502 0.0
H1404 H 0.97163 0.79689 0.02182 0.0
H1405 H 1.01127 0.81831 0.04354 0.0
H1406 H 0.98062 0.76719 0.04288 0.0
H1407 H 0.06521 0.70667 0.01624 0.0
H1408 H 0.11597 0.7446 0.04735 0.0
H1409 H 0.08021 0.82974 0.0482 0.0
C1410 C 0.96867 0.74652 0.97804 0.0
C1411 C 0.95201 0.71157 0.96477 0.0
C1412 C 0.96494 0.68531 0.96928 0.0
C1413 C 0.99556 0.69458 0.98585 0.0
C1414 C 1.01221 0.72982 0.99811 0.0
C1415 C 0.99838 0.75481 0.9951 0.0
C1416 C 1.02059 0.7903 0.01114 0.0
C1417 C 0.04027 0.82646 0.99477 0.0
C1418 C 0.99447 0.79333 0.03102 0.0
C1419 C 0.04965 0.78176 0.02318 0.0
C1420 C 0.04476 0.74705 0.01508 0.0
C1421 C 0.06903 0.73368 0.02295 0.0
C1422 C 0.09809 0.75564 0.04034 0.0
C1423 C 0.1021 0.79016 0.04996 0.0
C1424 C 0.07788 0.80355 0.04097 0.0
H1425 H 0.22929 0.96196 0.46547 0.0
H1426 H 0.32164 0.93659 0.45876 0.0
H1427 H 0.36078 0.98912 0.48854 0.0
H1428 H 0.28516 0.06235 0.46946 0.0
H1429 H 0.25581 0.06768 0.49288 0.0
H1430 H 0.23482 0.02783 0.4714 0.0
H1431 H 0.20973 0.98028 0.50884 0.0
H1432 H 0.22979 0.02003 0.5304 0.0
H1433 H 0.24275 0.98339 0.53296 0.0
H1434 H 0.39146 0.048 0.51654 0.0
H1435 H 0.40652 0.0999 0.54726 0.0
H1436 H 0.29214 0.08301 0.53782 0.0
C1437 C 0.25752 0.96711 0.47064 0.0
C1438 C 0.27254 0.94532 0.45999 0.0
C1439 C 0.30953 0.95274 0.46706 0.0
C1440 C 0.33208 0.98276 0.48369 0.0
C1441 C 0.31683 1.00449 0.49334 0.0
C1442 C 0.27997 0.99628 0.48763 0.0
C1443 C 0.26965 0.02279 0.50132 0.0
C1444 C 0.26085 0.04656 0.48265 0.0
C1445 C 0.236 1.00028 0.51946 0.0
C1446 C 0.3066 0.04749 0.51546 0.0
C1447 C 0.33375 0.03703 0.51026 0.0
C1448 C 0.37033 0.05626 0.52088 0.0
C1449 C 0.3788 0.08595 0.53805 0.0
C1450 C 0.35053 0.09544 0.54467 0.0
C1451 C 0.31429 0.07638 0.5329 0.0
loop_
_geom_bond_atom_site_label_1
_geom_bond_atom_site_label_2
_geom_bond_distance
_geom_bond_site_symmetry_2
_ccdc_geom_bond_type
Eu0 C9 2.828 . S
Eu0 O11 2.392 . S
Eu0 O13 2.418 . S
Eu0 O18 2.373 . S
Eu0 O21 2.488 . S
Eu0 O22 2.471 . S
Eu0 O23 2.349 . S
Eu1 O10 2.373 . S
Eu1 O14 2.488 . S
Eu1 O15 2.471 . S
Eu1 O16 2.349 . S
Eu1 O19 2.392 . S
Eu1 O20 2.418 . S
Eu1 C30 2.828 . S
C2 O20 1.244 . S
C2 O23 1.265 . S
C3 C4 1.379 . S
C3 C7 1.373 . S
C3 C9 1.505 . S
C4 C3 1.379 . S
C4 C6 1.369 . S
C4 H32 0.930 . S
C5 C7 1.383 . S
C5 C8 1.382 . S
C5 H33 0.930 . S
C6 C4 1.369 . S
C6 C8 1.392 . S
C6 H34 0.930 . S
C7 C3 1.373 . S
C7 C5 1.383 . S
C7 H35 0.931 . S
C8 C5 1.382 . S
C8 C6 1.392 . S
C9 Eu0 2.828 . S
C9 C3 1.505 . S
C9 O21 1.249 . S
C9 O22 1.244 . S
O10 Eu1 2.373 . S
O10 C12 1.258 . S
O11 Eu0 2.392 . S
O11 C12 1.242 . S
C12 O10 1.258 . S
C12 O11 1.242 . S
O13 Eu0 2.418 . S
O13 C17 1.244 . S
O14 Eu1 2.488 . S
O14 C30 1.249 . S
O15 Eu1 2.471 . S
O15 C30 1.244 . S
O16 Eu1 2.349 . S
O16 C17 1.265 . S
C17 O13 1.244 . S
C17 O16 1.265 . S
O18 Eu0 2.373 . S
O18 C31 1.258 . S
O19 Eu1 2.392 . S
O19 C31 1.242 . S
O20 Eu1 2.418 . S
O20 C2 1.244 . S
O21 Eu0 2.488 . S
O21 C9 1.249 . S
O22 Eu0 2.471 . S
O22 C9 1.244 . S
O23 Eu0 2.349 . S
O23 C2 1.265 . S
C24 C25 1.379 . S
C24 C28 1.373 . S
C24 C30 1.505 . S
C25 C24 1.379 . S
C25 C27 1.369 . S
C25 H36 0.930 . S
C26 C28 1.383 . S
C26 C29 1.382 . S
C26 H37 0.930 . S
C27 C25 1.369 . S
C27 C29 1.392 . S
C27 H38 0.930 . S
C28 C24 1.373 . S
C28 C26 1.383 . S
C28 H39 0.931 . S
C29 C26 1.382 . S
C29 C27 1.392 . S
C30 Eu1 2.828 . S
C30 O14 1.249 . S
C30 O15 1.244 . S
C30 C24 1.505 . S
C31 O18 1.258 . S
C31 O19 1.242 . S
H32 C4 0.930 . S
H33 C5 0.930 . S
H34 C6 0.930 . S
H35 C7 0.931 . S
H36 C25 0.930 . S
H37 C26 0.930 . S
H38 C27 0.930 . S
H39 C28 0.931 . S
Eu40 C49 2.828 . S
Eu40 O51 2.392 . S
Eu40 O53 2.418 . S
Eu40 O58 2.373 . S
Eu40 O61 2.488 . S
Eu40 O62 2.471 . S
Eu40 O63 2.349 . S
Eu41 O50 2.373 . S
Eu41 O54 2.488 . S
Eu41 O55 2.471 . S
Eu41 O56 2.349 . S
Eu41 O59 2.392 . S
Eu41 O60 2.418 . S
Eu41 C70 2.828 . S
C42 O60 1.244 . S
C42 O63 1.265 . S
C43 C44 1.379 . S
C43 C47 1.373 . S
C43 C49 1.505 . S
C44 C43 1.379 . S
C44 C46 1.369 . S
C44 H72 0.930 . S
C45 C47 1.383 . S
C45 C48 1.382 . S
C45 H73 0.930 . S
C46 C44 1.369 . S
C46 C48 1.392 . S
C46 H74 0.930 . S
C47 C43 1.373 . S
C47 C45 1.383 . S
C47 H75 0.931 . S
C48 C45 1.382 . S
C48 C46 1.392 . S
C49 Eu40 2.828 . S
C49 C43 1.505 . S
C49 O61 1.249 . S
C49 O62 1.244 . S
O50 Eu41 2.373 . S
O50 C52 1.258 . S
O51 Eu40 2.392 . S
O51 C52 1.242 . S
C52 O50 1.258 . S
C52 O51 1.242 . S
O53 Eu40 2.418 . S
O53 C57 1.244 . S
O54 Eu41 2.488 . S
O54 C70 1.249 . S
O55 Eu41 2.471 . S
O55 C70 1.244 . S
O56 Eu41 2.349 . S
O56 C57 1.265 . S
C57 O53 1.244 . S
C57 O56 1.265 . S
O58 Eu40 2.373 . S
O58 C71 1.258 . S
O59 Eu41 2.392 . S
O59 C71 1.242 . S
O60 Eu41 2.418 . S
O60 C42 1.244 . S
O61 Eu40 2.488 . S
O61 C49 1.249 . S
O62 Eu40 2.471 . S
O62 C49 1.244 . S
O63 Eu40 2.349 . S
O63 C42 1.265 . S
C64 C65 1.379 . S
C64 C68 1.373 . S
C64 C70 1.505 1_455 S
C65 C64 1.379 . S
C65 C67 1.369 . S
C65 H76 0.930 . S
C66 C68 1.383 . S
C66 C69 1.382 . S
C66 H77 0.930 . S
C67 C65 1.369 . S
C67 C69 1.392 . S
C67 H78 0.930 . S
C68 C64 1.373 . S
C68 C66 1.383 . S
C68 H79 0.931 . S
C69 C66 1.382 . S
C69 C67 1.392 . S
C70 Eu41 2.828 . S
C70 O54 1.249 . S
C70 O55 1.244 . S
C70 C64 1.505 1_655 S
C71 O58 1.258 . S
C71 O59 1.242 . S
H72 C44 0.930 . S
H73 C45 0.930 . S
H74 C46 0.930 . S
H75 C47 0.931 . S
H76 C65 0.930 . S
H77 C66 0.930 . S
H78 C67 0.930 . S
H79 C68 0.931 . S
Eu80 C89 2.828 . S
Eu80 O91 2.392 . S
Eu80 O93 2.418 . S
Eu80 O98 2.373 . S
Eu80 O101 2.488 . S
Eu80 O102 2.471 . S
Eu80 O103 2.349 . S
Eu81 O90 2.373 . S
Eu81 O94 2.488 . S
Eu81 O95 2.471 . S
Eu81 O96 2.349 . S
Eu81 O99 2.392 . S
Eu81 O100 2.418 . S
Eu81 C110 2.828 . S
C82 O100 1.244 . S
C82 O103 1.265 . S
C83 C84 1.379 . S
C83 C87 1.373 . S
C83 C89 1.505 . S
C84 C83 1.379 . S
C84 C86 1.369 . S
C84 H112 0.930 . S
C85 C87 1.383 . S
C85 C88 1.382 . S
C85 H113 0.930 . S
C86 C84 1.369 . S
C86 C88 1.392 . S
C86 H114 0.930 . S
C87 C83 1.373 . S
C87 C85 1.383 . S
C87 H115 0.931 . S
C88 C85 1.382 . S
C88 C86 1.392 . S
C89 Eu80 2.828 . S
C89 C83 1.505 . S
C89 O101 1.249 . S
C89 O102 1.244 . S
O90 Eu81 2.373 . S
O90 C92 1.258 . S
O91 Eu80 2.392 . S
O91 C92 1.242 . S
C92 O90 1.258 . S
C92 O91 1.242 . S
O93 Eu80 2.418 . S
O93 C97 1.244 . S
O94 Eu81 2.488 . S
O94 C110 1.249 . S
O95 Eu81 2.471 . S
O95 C110 1.244 . S
O96 Eu81 2.349 . S
O96 C97 1.265 . S
C97 O93 1.244 . S
C97 O96 1.265 . S
O98 Eu80 2.373 . S
O98 C111 1.258 . S
O99 Eu81 2.392 . S
O99 C111 1.242 . S
O100 Eu81 2.418 . S
O100 C82 1.244 . S
O101 Eu80 2.488 . S
O101 C89 1.249 . S
O102 Eu80 2.471 . S
O102 C89 1.244 . S
O103 Eu80 2.349 . S
O103 C82 1.265 . S
C104 C105 1.379 . S
C104 C108 1.373 . S
C104 C110 1.505 1_545 S
C105 C104 1.379 . S
C105 C107 1.369 . S
C105 H116 0.930 . S
C106 C108 1.383 . S
C106 C109 1.382 . S
C106 H117 0.930 . S
C107 C105 1.369 . S
C107 C109 1.392 . S
C107 H118 0.930 . S
C108 C104 1.373 . S
C108 C106 1.383 . S
C108 H119 0.931 . S
C109 C106 1.382 . S
C109 C107 1.392 . S
C110 Eu81 2.828 . S
C110 O94 1.249 . S
C110 O95 1.244 . S
C110 C104 1.505 1_565 S
C111 O98 1.258 . S
C111 O99 1.242 . S
H112 C84 0.930 . S
H113 C85 0.930 . S
H114 C86 0.930 . S
H115 C87 0.931 . S
H116 C105 0.930 . S
H117 C106 0.930 . S
H118 C107 0.930 . S
H119 C108 0.931 . S
Eu120 C129 2.828 . S
Eu120 O131 2.392 . S
Eu120 O133 2.418 . S
Eu120 O138 2.373 . S
Eu120 O141 2.488 . S
Eu120 O142 2.471 . S
Eu120 O143 2.349 . S
Eu121 O130 2.373 . S
Eu121 O134 2.488 . S
Eu121 O135 2.471 . S
Eu121 O136 2.349 . S
Eu121 O139 2.392 . S
Eu121 O140 2.418 . S
Eu121 C150 2.828 . S
C122 O140 1.244 . S
C122 O143 1.265 . S
C123 C124 1.379 . S
C123 C127 1.373 . S
C123 C129 1.505 . S
C124 C123 1.379 . S
C124 C126 1.369 . S
C124 H152 0.930 . S
C125 C127 1.383 . S
C125 C128 1.382 . S
C125 H153 0.930 . S
C126 C124 1.369 . S
C126 C128 1.392 . S
C126 H154 0.930 . S
C127 C123 1.373 . S
C127 C125 1.383 . S
C127 H155 0.931 . S
C128 C125 1.382 . S
C128 C126 1.392 . S
C129 Eu120 2.828 . S
C129 C123 1.505 . S
C129 O141 1.249 . S
C129 O142 1.244 . S
O130 Eu121 2.373 . S
O130 C132 1.258 . S
O131 Eu120 2.392 . S
O131 C132 1.242 . S
C132 O130 1.258 . S
C132 O131 1.242 . S
O133 Eu120 2.418 . S
O133 C137 1.244 . S
O134 Eu121 2.488 . S
O134 C150 1.249 . S
O135 Eu121 2.471 . S
O135 C150 1.244 . S
O136 Eu121 2.349 . S
O136 C137 1.265 . S
C137 O133 1.244 . S
C137 O136 1.265 . S
O138 Eu120 2.373 . S
O138 C151 1.258 . S
O139 Eu121 2.392 . S
O139 C151 1.242 . S
O140 Eu121 2.418 . S
O140 C122 1.244 . S
O141 Eu120 2.488 . S
O141 C129 1.249 . S
O142 Eu120 2.471 . S
O142 C129 1.244 . S
O143 Eu120 2.349 . S
O143 C122 1.265 . S
C144 C145 1.379 . S
C144 C148 1.373 . S
C144 C150 1.505 . S
C145 C144 1.379 . S
C145 C147 1.369 . S
C145 H156 0.930 . S
C146 C148 1.383 . S
C146 C149 1.382 . S
C146 H157 0.930 . S
C147 C145 1.369 . S
C147 C149 1.392 . S
C147 H158 0.930 . S
C148 C144 1.373 . S
C148 C146 1.383 . S
C148 H159 0.931 . S
C149 C146 1.382 . S
C149 C147 1.392 . S
C150 Eu121 2.828 . S
C150 O134 1.249 . S
C150 O135 1.244 . S
C150 C144 1.505 . S
C151 O138 1.258 . S
C151 O139 1.242 . S
H152 C124 0.930 . S
H153 C125 0.930 . S
H154 C126 0.930 . S
H155 C127 0.931 . S
H156 C145 0.930 . S
H157 C146 0.930 . S
H158 C147 0.930 . S
H159 C148 0.931 . S
Eu160 C169 2.828 . S
Eu160 O171 2.392 . S
Eu160 O173 2.418 . S
Eu160 O178 2.373 . S
Eu160 O181 2.488 . S
Eu160 O182 2.471 . S
Eu160 O183 2.349 . S
Eu161 O170 2.373 . S
Eu161 O174 2.488 . S
Eu161 O175 2.471 . S
Eu161 O176 2.349 . S
Eu161 O179 2.392 . S
Eu161 O180 2.418 . S
Eu161 C190 2.828 . S
C162 O180 1.244 . S
C162 O183 1.265 . S
C163 C164 1.379 . S
C163 C167 1.373 . S
C163 C169 1.505 . S
C164 C163 1.379 . S
C164 C166 1.369 . S
C164 H192 0.930 . S
C165 C167 1.383 . S
C165 C168 1.382 . S
C165 H193 0.930 . S
C166 C164 1.369 . S
C166 C168 1.392 . S
C166 H194 0.930 . S
C167 C163 1.373 . S
C167 C165 1.383 . S
C167 H195 0.931 . S
C168 C165 1.382 . S
C168 C166 1.392 . S
C169 Eu160 2.828 . S
C169 C163 1.505 . S
C169 O181 1.249 . S
C169 O182 1.244 . S
O170 Eu161 2.373 . S
O170 C172 1.258 . S
O171 Eu160 2.392 . S
O171 C172 1.242 . S
C172 O170 1.258 . S
C172 O171 1.242 . S
O173 Eu160 2.418 . S
O173 C177 1.244 . S
O174 Eu161 2.488 . S
O174 C190 1.249 . S
O175 Eu161 2.471 . S
O175 C190 1.244 . S
O176 Eu161 2.349 . S
O176 C177 1.265 . S
C177 O173 1.244 . S
C177 O176 1.265 . S
O178 Eu160 2.373 . S
O178 C191 1.258 . S
O179 Eu161 2.392 . S
O179 C191 1.242 . S
O180 Eu161 2.418 . S
O180 C162 1.244 . S
O181 Eu160 2.488 . S
O181 C169 1.249 . S
O182 Eu160 2.471 . S
O182 C169 1.244 . S
O183 Eu160 2.349 . S
O183 C162 1.265 . S
C184 C185 1.379 . S
C184 C188 1.373 . S
C184 C190 1.505 1_655 S
C185 C184 1.379 . S
C185 C187 1.369 . S
C185 H196 0.930 . S
C186 C188 1.383 . S
C186 C189 1.382 . S
C186 H197 0.930 . S
C187 C185 1.369 . S
C187 C189 1.392 . S
C187 H198 0.930 . S
C188 C184 1.373 . S
C188 C186 1.383 . S
C188 H199 0.931 . S
C189 C186 1.382 . S
C189 C187 1.392 . S
C190 Eu161 2.828 . S
C190 O174 1.249 . S
C190 O175 1.244 . S
C190 C184 1.505 1_455 S
C191 O178 1.258 . S
C191 O179 1.242 . S
H192 C164 0.930 . S
H193 C165 0.930 . S
H194 C166 0.930 . S
H195 C167 0.931 . S
H196 C185 0.930 . S
H197 C186 0.930 . S
H198 C187 0.930 . S
H199 C188 0.931 . S
Eu200 C209 2.828 . S
Eu200 O211 2.392 . S
Eu200 O213 2.418 . S
Eu200 O218 2.373 . S
Eu200 O221 2.488 . S
Eu200 O222 2.471 . S
Eu200 O223 2.349 . S
Eu201 O210 2.373 . S
Eu201 O214 2.488 . S
Eu201 O215 2.471 . S
Eu201 O216 2.349 . S
Eu201 O219 2.392 . S
Eu201 O220 2.418 . S
Eu201 C230 2.828 . S
C202 O220 1.244 . S
C202 O223 1.265 . S
C203 C204 1.379 . S
C203 C207 1.373 . S
C203 C209 1.505 . S
C204 C203 1.379 . S
C204 C206 1.369 . S
C204 H232 0.930 . S
C205 C207 1.383 . S
C205 C208 1.382 . S
C205 H233 0.930 . S
C206 C204 1.369 . S
C206 C208 1.392 . S
C206 H234 0.930 . S
C207 C203 1.373 . S
C207 C205 1.383 . S
C207 H235 0.931 . S
C208 C205 1.382 . S
C208 C206 1.392 . S
C209 Eu200 2.828 . S
C209 C203 1.505 . S
C209 O221 1.249 . S
C209 O222 1.244 . S
O210 Eu201 2.373 . S
O210 C212 1.258 . S
O211 Eu200 2.392 . S
O211 C212 1.242 . S
C212 O210 1.258 . S
C212 O211 1.242 . S
O213 Eu200 2.418 . S
O213 C217 1.244 . S
O214 Eu201 2.488 . S
O214 C230 1.249 . S
O215 Eu201 2.471 . S
O215 C230 1.244 . S
O216 Eu201 2.349 . S
O216 C217 1.265 . S
C217 O213 1.244 . S
C217 O216 1.265 . S
O218 Eu200 2.373 . S
O218 C231 1.258 . S
O219 Eu201 2.392 . S
O219 C231 1.242 . S
O220 Eu201 2.418 . S
O220 C202 1.244 . S
O221 Eu200 2.488 . S
O221 C209 1.249 . S
O222 Eu200 2.471 . S
O222 C209 1.244 . S
O223 Eu200 2.349 . S
O223 C202 1.265 . S
C224 C225 1.379 . S
C224 C228 1.373 . S
C224 C230 1.505 1_565 S
C225 C224 1.379 . S
C225 C227 1.369 . S
C225 H236 0.930 . S
C226 C228 1.383 . S
C226 C229 1.382 . S
C226 H237 0.930 . S
C227 C225 1.369 . S
C227 C229 1.392 . S
C227 H238 0.930 . S
C228 C224 1.373 . S
C228 C226 1.383 . S
C228 H239 0.931 . S
C229 C226 1.382 . S
C229 C227 1.392 . S
C230 Eu201 2.828 . S
C230 O214 1.249 . S
C230 O215 1.244 . S
C230 C224 1.505 1_545 S
C231 O218 1.258 . S
C231 O219 1.242 . S
H232 C204 0.930 . S
H233 C205 0.930 . S
H234 C206 0.930 . S
H235 C207 0.931 . S
H236 C225 0.930 . S
H237 C226 0.930 . S
H238 C227 0.930 . S
H239 C228 0.931 . S
Eu240 C249 2.828 . S
Eu240 O251 2.392 . S
Eu240 O253 2.418 . S
Eu240 O258 2.373 . S
Eu240 O261 2.488 . S
Eu240 O262 2.471 . S
Eu240 O263 2.349 . S
Eu241 O250 2.373 . S
Eu241 O254 2.488 . S
Eu241 O255 2.471 . S
Eu241 O256 2.349 . S
Eu241 O259 2.392 . S
Eu241 O260 2.418 . S
Eu241 C270 2.828 . S
C242 O260 1.244 . S
C242 O263 1.265 . S
C243 C244 1.379 . S
C243 C247 1.373 . S
C243 C249 1.505 . S
C244 C243 1.379 . S
C244 C246 1.369 . S
C244 H272 0.930 . S
C245 C247 1.383 . S
C245 C248 1.382 . S
C245 H273 0.930 . S
C246 C244 1.369 . S
C246 C248 1.392 . S
C246 H274 0.930 . S
C247 C243 1.373 . S
C247 C245 1.383 . S
C247 H275 0.931 . S
C248 C245 1.382 . S
C248 C246 1.392 . S
C249 Eu240 2.828 . S
C249 C243 1.505 . S
C249 O261 1.249 . S
C249 O262 1.244 . S
O250 Eu241 2.373 . S
O250 C252 1.258 . S
O251 Eu240 2.392 . S
O251 C252 1.242 . S
C252 O250 1.258 . S
C252 O251 1.242 . S
O253 Eu240 2.418 . S
O253 C257 1.244 . S
O254 Eu241 2.488 . S
O254 C270 1.249 . S
O255 Eu241 2.471 . S
O255 C270 1.244 . S
O256 Eu241 2.349 . S
O256 C257 1.265 . S
C257 O253 1.244 . S
C257 O256 1.265 . S
O258 Eu240 2.373 . S
O258 C271 1.258 . S
O259 Eu241 2.392 . S
O259 C271 1.242 . S
O260 Eu241 2.418 . S
O260 C242 1.244 . S
O261 Eu240 2.488 . S
O261 C249 1.249 . S
O262 Eu240 2.471 . S
O262 C249 1.244 . S
O263 Eu240 2.349 . S
O263 C242 1.265 . S
C264 C265 1.379 . S
C264 C268 1.373 . S
C264 C270 1.505 . S
C265 C264 1.379 . S
C265 C267 1.369 . S
C265 H276 0.930 . S
C266 C268 1.383 . S
C266 C269 1.382 . S
C266 H277 0.930 . S
C267 C265 1.369 . S
C267 C269 1.392 . S
C267 H278 0.930 . S
C268 C264 1.373 . S
C268 C266 1.383 . S
C268 H279 0.931 . S
C269 C266 1.382 . S
C269 C267 1.392 . S
C270 Eu241 2.828 . S
C270 O254 1.249 . S
C270 O255 1.244 . S
C270 C264 1.505 . S
C271 O258 1.258 . S
C271 O259 1.242 . S
H272 C244 0.930 . S
H273 C245 0.930 . S
H274 C246 0.930 . S
H275 C247 0.931 . S
H276 C265 0.930 . S
H277 C266 0.930 . S
H278 C267 0.930 . S
H279 C268 0.931 . S
Eu280 C289 2.828 . S
Eu280 O291 2.392 . S
Eu280 O293 2.418 . S
Eu280 O298 2.373 . S
Eu280 O301 2.488 . S
Eu280 O302 2.471 . S
Eu280 O303 2.349 . S
Eu281 O290 2.373 . S
Eu281 O294 2.488 . S
Eu281 O295 2.471 . S
Eu281 O296 2.349 . S
Eu281 O299 2.392 . S
Eu281 O300 2.418 . S
Eu281 C310 2.828 . S
C282 O300 1.244 . S
C282 O303 1.265 . S
C283 C284 1.379 . S
C283 C287 1.373 . S
C283 C289 1.505 . S
C284 C283 1.379 . S
C284 C286 1.369 . S
C284 H312 0.930 . S
C285 C287 1.383 . S
C285 C288 1.382 . S
C285 H313 0.930 . S
C286 C284 1.369 . S
C286 C288 1.392 . S
C286 H314 0.930 . S
C287 C283 1.373 . S
C287 C285 1.383 . S
C287 H315 0.931 . S
C288 C285 1.382 . S
C288 C286 1.392 . S
C289 Eu280 2.828 . S
C289 C283 1.505 . S
C289 O301 1.249 . S
C289 O302 1.244 . S
O290 Eu281 2.373 . S
O290 C292 1.258 . S
O291 Eu280 2.392 . S
O291 C292 1.242 . S
C292 O290 1.258 . S
C292 O291 1.242 . S
O293 Eu280 2.418 . S
O293 C297 1.244 . S
O294 Eu281 2.488 . S
O294 C310 1.249 . S
O295 Eu281 2.471 . S
O295 C310 1.244 . S
O296 Eu281 2.349 . S
O296 C297 1.265 . S
C297 O293 1.244 . S
C297 O296 1.265 . S
O298 Eu280 2.373 . S
O298 C311 1.258 . S
O299 Eu281 2.392 . S
O299 C311 1.242 . S
O300 Eu281 2.418 . S
O300 C282 1.244 . S
O301 Eu280 2.488 . S
O301 C289 1.249 . S
O302 Eu280 2.471 . S
O302 C289 1.244 . S
O303 Eu280 2.349 . S
O303 C282 1.265 . S
C304 C305 1.379 . S
C304 C308 1.373 . S
C304 C310 1.505 1_455 S
C305 C304 1.379 . S
C305 C307 1.369 . S
C305 H316 0.930 . S
C306 C308 1.383 . S
C306 C309 1.382 . S
C306 H317 0.930 . S
C307 C305 1.369 . S
C307 C309 1.392 . S
C307 H318 0.930 . S
C308 C304 1.373 . S
C308 C306 1.383 . S
C308 H319 0.931 . S
C309 C306 1.382 . S
C309 C307 1.392 . S
C310 Eu281 2.828 . S
C310 O294 1.249 . S
C310 O295 1.244 . S
C310 C304 1.505 1_655 S
C311 O298 1.258 . S
C311 O299 1.242 . S
H312 C284 0.930 . S
H313 C285 0.930 . S
H314 C286 0.930 . S
H315 C287 0.931 . S
H316 C305 0.930 . S
H317 C306 0.930 . S
H318 C307 0.930 . S
H319 C308 0.931 . S
Eu320 C329 2.828 . S
Eu320 O331 2.392 . S
Eu320 O333 2.418 . S
Eu320 O338 2.373 . S
Eu320 O341 2.488 . S
Eu320 O342 2.471 . S
Eu320 O343 2.349 . S
Eu321 O330 2.373 . S
Eu321 O334 2.488 . S
Eu321 O335 2.471 . S
Eu321 O336 2.349 . S
Eu321 O339 2.392 . S
Eu321 O340 2.418 . S
Eu321 C350 2.828 . S
C322 O340 1.244 . S
C322 O343 1.265 . S
C323 C324 1.379 . S
C323 C327 1.373 . S
C323 C329 1.505 . S
C324 C323 1.379 . S
C324 C326 1.369 . S
C324 H352 0.930 . S
C325 C327 1.383 . S
C325 C328 1.382 . S
C325 H353 0.930 . S
C326 C324 1.369 . S
C326 C328 1.392 . S
C326 H354 0.930 . S
C327 C323 1.373 . S
C327 C325 1.383 . S
C327 H355 0.931 . S
C328 C325 1.382 . S
C328 C326 1.392 . S
C329 Eu320 2.828 . S
C329 C323 1.505 . S
C329 O341 1.249 . S
C329 O342 1.244 . S
O330 Eu321 2.373 . S
O330 C332 1.258 . S
O331 Eu320 2.392 . S
O331 C332 1.242 . S
C332 O330 1.258 . S
C332 O331 1.242 . S
O333 Eu320 2.418 . S
O333 C337 1.244 . S
O334 Eu321 2.488 . S
O334 C350 1.249 . S
O335 Eu321 2.471 . S
O335 C350 1.244 . S
O336 Eu321 2.349 . S
O336 C337 1.265 . S
C337 O333 1.244 . S
C337 O336 1.265 . S
O338 Eu320 2.373 . S
O338 C351 1.258 . S
O339 Eu321 2.392 . S
O339 C351 1.242 . S
O340 Eu321 2.418 . S
O340 C322 1.244 . S
O341 Eu320 2.488 . S
O341 C329 1.249 . S
O342 Eu320 2.471 . S
O342 C329 1.244 . S
O343 Eu320 2.349 . S
O343 C322 1.265 . S
C344 C345 1.379 . S
C344 C348 1.373 . S
C344 C350 1.505 1_545 S
C345 C344 1.379 . S
C345 C347 1.369 . S
C345 H356 0.930 . S
C346 C348 1.383 . S
C346 C349 1.382 . S
C346 H357 0.930 . S
C347 C345 1.369 . S
C347 C349 1.392 . S
C347 H358 0.930 . S
C348 C344 1.373 . S
C348 C346 1.383 . S
C348 H359 0.931 . S
C349 C346 1.382 . S
C349 C347 1.392 . S
C350 Eu321 2.828 . S
C350 O334 1.249 . S
C350 O335 1.244 . S
C350 C344 1.505 1_565 S
C351 O338 1.258 . S
C351 O339 1.242 . S
H352 C324 0.930 . S
H353 C325 0.930 . S
H354 C326 0.930 . S
H355 C327 0.931 . S
H356 C345 0.930 . S
H357 C346 0.930 . S
H358 C347 0.930 . S
H359 C348 0.931 . S
Eu360 C369 2.828 . S
Eu360 O371 2.392 . S
Eu360 O373 2.418 . S
Eu360 O378 2.373 . S
Eu360 O381 2.488 . S
Eu360 O382 2.471 . S
Eu360 O383 2.349 . S
Eu361 O370 2.373 . S
Eu361 O374 2.488 . S
Eu361 O375 2.471 . S
Eu361 O376 2.349 . S
Eu361 O379 2.392 . S
Eu361 O380 2.418 . S
Eu361 C390 2.828 . S
C362 O380 1.244 . S
C362 O383 1.265 . S
C363 C364 1.379 . S
C363 C367 1.373 . S
C363 C369 1.505 . S
C364 C363 1.379 . S
C364 C366 1.369 . S
C364 H392 0.930 . S
C365 C367 1.383 . S
C365 C368 1.382 . S
C365 H393 0.930 . S
C366 C364 1.369 . S
C366 C368 1.392 . S
C366 H394 0.930 . S
C367 C363 1.373 . S
C367 C365 1.383 . S
C367 H395 0.931 . S
C368 C365 1.382 . S
C368 C366 1.392 . S
C369 Eu360 2.828 . S
C369 C363 1.505 . S
C369 O381 1.249 . S
C369 O382 1.244 . S
O370 Eu361 2.373 . S
O370 C372 1.258 . S
O371 Eu360 2.392 . S
O371 C372 1.242 . S
C372 O370 1.258 . S
C372 O371 1.242 . S
O373 Eu360 2.418 . S
O373 C377 1.244 . S
O374 Eu361 2.488 . S
O374 C390 1.249 . S
O375 Eu361 2.471 . S
O375 C390 1.244 . S
O376 Eu361 2.349 . S
O376 C377 1.265 . S
C377 O373 1.244 . S
C377 O376 1.265 . S
O378 Eu360 2.373 . S
O378 C391 1.258 . S
O379 Eu361 2.392 . S
O379 C391 1.242 . S
O380 Eu361 2.418 . S
O380 C362 1.244 . S
O381 Eu360 2.488 . S
O381 C369 1.249 . S
O382 Eu360 2.471 . S
O382 C369 1.244 . S
O383 Eu360 2.349 . S
O383 C362 1.265 . S
C384 C385 1.379 . S
C384 C388 1.373 . S
C384 C390 1.505 . S
C385 C384 1.379 . S
C385 C387 1.369 . S
C385 H396 0.930 . S
C386 C388 1.383 . S
C386 C389 1.382 . S
C386 H397 0.930 . S
C387 C385 1.369 . S
C387 C389 1.392 . S
C387 H398 0.930 . S
C388 C384 1.373 . S
C388 C386 1.383 . S
C388 H399 0.931 . S
C389 C386 1.382 . S
C389 C387 1.392 . S
C390 Eu361 2.828 . S
C390 O374 1.249 . S
C390 O375 1.244 . S
C390 C384 1.505 . S
C391 O378 1.258 . S
C391 O379 1.242 . S
H392 C364 0.930 . S
H393 C365 0.930 . S
H394 C366 0.930 . S
H395 C367 0.931 . S
H396 C385 0.930 . S
H397 C386 0.930 . S
H398 C387 0.930 . S
H399 C388 0.931 . S
Eu400 C409 2.828 . S
Eu400 O411 2.392 . S
Eu400 O413 2.418 . S
Eu400 O418 2.373 . S
Eu400 O421 2.488 . S
Eu400 O422 2.471 . S
Eu400 O423 2.349 . S
Eu401 O410 2.373 . S
Eu401 O414 2.488 . S
Eu401 O415 2.471 . S
Eu401 O416 2.349 . S
Eu401 O419 2.392 . S
Eu401 O420 2.418 . S
Eu401 C430 2.828 . S
C402 O420 1.244 . S
C402 O423 1.265 . S
C403 C404 1.379 . S
C403 C407 1.373 . S
C403 C409 1.505 . S
C404 C403 1.379 . S
C404 C406 1.369 . S
C404 H432 0.930 . S
C405 C407 1.383 . S
C405 C408 1.382 . S
C405 H433 0.930 . S
C406 C404 1.369 . S
C406 C408 1.392 . S
C406 H434 0.930 . S
C407 C403 1.373 . S
C407 C405 1.383 . S
C407 H435 0.931 . S
C408 C405 1.382 . S
C408 C406 1.392 . S
C409 Eu400 2.828 . S
C409 C403 1.505 . S
C409 O421 1.249 . S
C409 O422 1.244 . S
O410 Eu401 2.373 . S
O410 C412 1.258 . S
O411 Eu400 2.392 . S
O411 C412 1.242 . S
C412 O410 1.258 . S
C412 O411 1.242 . S
O413 Eu400 2.418 . S
O413 C417 1.244 . S
O414 Eu401 2.488 . S
O414 C430 1.249 . S
O415 Eu401 2.471 . S
O415 C430 1.244 . S
O416 Eu401 2.349 . S
O416 C417 1.265 . S
C417 O413 1.244 . S
C417 O416 1.265 . S
O418 Eu400 2.373 . S
O418 C431 1.258 . S
O419 Eu401 2.392 . S
O419 C431 1.242 . S
O420 Eu401 2.418 . S
O420 C402 1.244 . S
O421 Eu400 2.488 . S
O421 C409 1.249 . S
O422 Eu400 2.471 . S
O422 C409 1.244 . S
O423 Eu400 2.349 . S
O423 C402 1.265 . S
C424 C425 1.379 . S
C424 C428 1.373 . S
C424 C430 1.505 1_655 S
C425 C424 1.379 . S
C425 C427 1.369 . S
C425 H436 0.930 . S
C426 C428 1.383 . S
C426 C429 1.382 . S
C426 H437 0.930 . S
C427 C425 1.369 . S
C427 C429 1.392 . S
C427 H438 0.930 . S
C428 C424 1.373 . S
C428 C426 1.383 . S
C428 H439 0.931 . S
C429 C426 1.382 . S
C429 C427 1.392 . S
C430 Eu401 2.828 . S
C430 O414 1.249 . S
C430 O415 1.244 . S
C430 C424 1.505 1_455 S
C431 O418 1.258 . S
C431 O419 1.242 . S
H432 C404 0.930 . S
H433 C405 0.930 . S
H434 C406 0.930 . S
H435 C407 0.931 . S
H436 C425 0.930 . S
H437 C426 0.930 . S
H438 C427 0.930 . S
H439 C428 0.931 . S
Eu440 C449 2.828 . S
Eu440 O451 2.392 . S
Eu440 O453 2.418 . S
Eu440 O458 2.373 . S
Eu440 O461 2.488 . S
Eu440 O462 2.471 . S
Eu440 O463 2.349 . S
Eu441 O450 2.373 . S
Eu441 O454 2.488 . S
Eu441 O455 2.471 . S
Eu441 O456 2.349 . S
Eu441 O459 2.392 . S
Eu441 O460 2.418 . S
Eu441 C470 2.828 . S
C442 O460 1.244 . S
C442 O463 1.265 . S
C443 C444 1.379 . S
C443 C447 1.373 . S
C443 C449 1.505 . S
C444 C443 1.379 . S
C444 C446 1.369 . S
C444 H472 0.930 . S
C445 C447 1.383 . S
C445 C448 1.382 . S
C445 H473 0.930 . S
C446 C444 1.369 . S
C446 C448 1.392 . S
C446 H474 0.930 . S
C447 C443 1.373 . S
C447 C445 1.383 . S
C447 H475 0.931 . S
C448 C445 1.382 . S
C448 C446 1.392 . S
C449 Eu440 2.828 . S
C449 C443 1.505 . S
C449 O461 1.249 . S
C449 O462 1.244 . S
O450 Eu441 2.373 . S
O450 C452 1.258 . S
O451 Eu440 2.392 . S
O451 C452 1.242 . S
C452 O450 1.258 . S
C452 O451 1.242 . S
O453 Eu440 2.418 . S
O453 C457 1.244 . S
O454 Eu441 2.488 . S
O454 C470 1.249 . S
O455 Eu441 2.471 . S
O455 C470 1.244 . S
O456 Eu441 2.349 . S
O456 C457 1.265 . S
C457 O453 1.244 . S
C457 O456 1.265 . S
O458 Eu440 2.373 . S
O458 C471 1.258 . S
O459 Eu441 2.392 . S
O459 C471 1.242 . S
O460 Eu441 2.418 . S
O460 C442 1.244 . S
O461 Eu440 2.488 . S
O461 C449 1.249 . S
O462 Eu440 2.471 . S
O462 C449 1.244 . S
O463 Eu440 2.349 . S
O463 C442 1.265 . S
C464 C465 1.379 . S
C464 C468 1.373 . S
C464 C470 1.505 1_565 S
C465 C464 1.379 . S
C465 C467 1.369 . S
C465 H476 0.930 . S
C466 C468 1.383 . S
C466 C469 1.382 . S
C466 H477 0.930 . S
C467 C465 1.369 . S
C467 C469 1.392 . S
C467 H478 0.930 . S
C468 C464 1.373 . S
C468 C466 1.383 . S
C468 H479 0.931 . S
C469 C466 1.382 . S
C469 C467 1.392 . S
C470 Eu441 2.828 . S
C470 O454 1.249 . S
C470 O455 1.244 . S
C470 C464 1.505 1_545 S
C471 O458 1.258 . S
C471 O459 1.242 . S
H472 C444 0.930 . S
H473 C445 0.930 . S
H474 C446 0.930 . S
H475 C447 0.931 . S
H476 C465 0.930 . S
H477 C466 0.930 . S
H478 C467 0.930 . S
H479 C468 0.931 . S
H480 C492 0.930 . S
H481 C494 0.930 . S
H482 C495 0.930 . S
H483 C499 0.959 . S
H484 C499 0.959 . S
H485 C499 0.952 1_565 S
H486 C500 0.960 . S
H487 C500 0.961 1_545 S
H488 C500 0.959 . S
H489 C503 0.929 . S
H490 C504 0.931 . S
H491 C506 0.930 . S
C492 H480 0.930 . S
C492 C493 1.399 . S
C492 C497 1.399 . S
C493 C492 1.399 . S
C493 C494 1.376 . S
C494 H481 0.930 . S
C494 C493 1.376 . S
C494 C495 1.388 . S
C495 H482 0.930 . S
C495 C494 1.388 . S
C495 C496 1.390 . S
C496 C495 1.390 . S
C496 C497 1.394 . S
C496 C502 1.465 1_565 S
C497 C492 1.399 . S
C497 C496 1.394 . S
C497 C498 1.516 1_565 S
C498 C497 1.516 1_545 S
C498 C499 1.502 . S
C498 C500 1.561 1_545 S
C498 C501 1.526 . S
C499 H483 0.959 . S
C499 H484 0.959 . S
C499 H485 0.952 1_545 S
C499 C498 1.502 . S
C500 H486 0.960 . S
C500 H487 0.961 1_565 S
C500 H488 0.959 . S
C500 C498 1.561 1_565 S
C501 C498 1.526 . S
C501 C502 1.396 . S
C501 C506 1.390 . S
C502 C496 1.465 1_545 S
C502 C501 1.396 . S
C502 C503 1.399 . S
C503 H489 0.929 . S
C503 C502 1.399 . S
C503 C504 1.385 . S
C504 H490 0.931 . S
C504 C503 1.385 . S
C504 C505 1.389 . S
C505 C504 1.389 . S
C505 C506 1.387 . S
C506 H491 0.930 . S
C506 C501 1.390 . S
C506 C505 1.387 . S
H507 C519 0.930 . S
H508 C521 0.930 . S
H509 C522 0.930 . S
H510 C526 0.959 . S
H511 C526 0.959 . S
H512 C526 0.961 . S
H513 C527 0.960 . S
H514 C527 0.961 . S
H515 C527 0.959 . S
H516 C530 0.929 . S
H517 C531 0.931 . S
H518 C533 0.930 . S
C519 H507 0.930 . S
C519 C520 1.399 . S
C519 C524 1.399 . S
C520 C519 1.399 . S
C520 C521 1.376 . S
C521 H508 0.930 . S
C521 C520 1.376 . S
C521 C522 1.388 . S
C522 H509 0.930 . S
C522 C521 1.388 . S
C522 C523 1.390 . S
C523 C522 1.390 . S
C523 C524 1.394 . S
C523 C529 1.465 . S
C524 C519 1.399 . S
C524 C523 1.394 . S
C524 C525 1.516 . S
C525 C524 1.516 . S
C525 C526 1.502 . S
C525 C527 1.561 . S
C525 C528 1.526 . S
C526 H510 0.959 . S
C526 H511 0.959 . S
C526 H512 0.961 . S
C526 C525 1.502 . S
C527 H513 0.960 . S
C527 H514 0.961 . S
C527 H515 0.959 . S
C527 C525 1.561 . S
C528 C525 1.526 . S
C528 C529 1.396 . S
C528 C533 1.390 . S
C529 C523 1.465 . S
C529 C528 1.396 . S
C529 C530 1.399 . S
C530 H516 0.929 . S
C530 C529 1.399 . S
C530 C531 1.385 . S
C531 H517 0.931 . S
C531 C530 1.385 . S
C531 C532 1.389 . S
C532 C531 1.389 . S
C532 C533 1.387 . S
C533 H518 0.930 . S
C533 C528 1.390 . S
C533 C532 1.387 . S
H534 C546 0.930 . S
H535 C548 0.930 . S
H536 C549 0.930 . S
H537 C553 0.959 . S
H538 C553 0.959 . S
H539 C553 0.961 1_655 S
H540 C554 0.960 . S
H541 C554 0.961 1_455 S
H542 C554 0.959 . S
H543 C557 0.929 . S
H544 C558 0.931 . S
H545 C560 0.930 . S
C546 H534 0.930 . S
C546 C547 1.399 . S
C546 C551 1.399 . S
C547 C546 1.399 . S
C547 C548 1.376 . S
C548 H535 0.930 . S
C548 C547 1.376 . S
C548 C549 1.388 . S
C549 H536 0.930 . S
C549 C548 1.388 . S
C549 C550 1.390 . S
C550 C549 1.390 . S
C550 C551 1.394 . S
C550 C556 1.465 1_655 S
C551 C546 1.399 . S
C551 C550 1.394 . S
C551 C552 1.516 1_655 S
C552 C551 1.516 1_455 S
C552 C553 1.502 . S
C552 C554 1.561 1_455 S
C552 C555 1.526 . S
C553 H537 0.959 . S
C553 H538 0.959 . S
C553 H539 0.961 1_455 S
C553 C552 1.502 . S
C554 H540 0.960 . S
C554 H541 0.961 1_655 S
C554 H542 0.959 . S
C554 C552 1.561 1_655 S
C555 C552 1.526 . S
C555 C556 1.396 . S
C555 C560 1.390 . S
C556 C550 1.465 1_455 S
C556 C555 1.396 . S
C556 C557 1.399 . S
C557 H543 0.929 . S
C557 C556 1.399 . S
C557 C558 1.385 . S
C558 H544 0.931 . S
C558 C557 1.385 . S
C558 C559 1.389 . S
C559 C558 1.389 . S
C559 C560 1.387 . S
C560 H545 0.930 . S
C560 C555 1.390 . S
C560 C559 1.387 . S
H561 C573 0.930 . S
H562 C575 0.930 . S
H563 C576 0.930 . S
H564 C580 0.959 . S
H565 C580 0.959 . S
H566 C580 0.961 1_565 S
H567 C581 0.960 . S
H568 C581 0.961 1_545 S
H569 C581 0.959 . S
H570 C584 0.929 . S
H571 C585 0.931 . S
H572 C587 0.930 . S
C573 H561 0.930 . S
C573 C574 1.399 . S
C573 C578 1.399 . S
C574 C573 1.399 . S
C574 C575 1.376 . S
C575 H562 0.930 . S
C575 C574 1.376 . S
C575 C576 1.388 . S
C576 H563 0.930 . S
C576 C575 1.388 . S
C576 C577 1.390 . S
C577 C576 1.390 . S
C577 C578 1.394 . S
C577 C583 1.465 1_565 S
C578 C573 1.399 . S
C578 C577 1.394 . S
C578 C579 1.516 1_565 S
C579 C578 1.516 1_545 S
C579 C580 1.502 . S
C579 C581 1.561 1_545 S
C579 C582 1.526 . S
C580 H564 0.959 . S
C580 H565 0.959 . S
C580 H566 0.961 1_545 S
C580 C579 1.502 . S
C581 H567 0.960 . S
C581 H568 0.961 1_565 S
C581 H569 0.959 . S
C581 C579 1.561 1_565 S
C582 C579 1.526 . S
C582 C583 1.396 . S
C582 C587 1.390 . S
C583 C577 1.465 1_545 S
C583 C582 1.396 . S
C583 C584 1.399 . S
C584 H570 0.929 . S
C584 C583 1.399 . S
C584 C585 1.385 . S
C585 H571 0.931 . S
C585 C584 1.385 . S
C585 C586 1.389 . S
C586 C585 1.389 . S
C586 C587 1.387 . S
C587 H572 0.930 . S
C587 C582 1.390 . S
C587 C586 1.387 . S
H588 C600 0.930 . S
H589 C602 0.930 . S
H590 C603 0.930 . S
H591 C607 0.959 . S
H592 C607 0.959 . S
H593 C607 0.961 . S
H594 C608 0.960 . S
H595 C608 0.961 . S
H596 C608 0.959 . S
H597 C611 0.929 . S
H598 C612 0.931 . S
H599 C614 0.930 . S
C600 H588 0.930 . S
C600 C601 1.399 . S
C600 C605 1.399 . S
C601 C600 1.399 . S
C601 C602 1.376 . S
C602 H589 0.930 . S
C602 C601 1.376 . S
C602 C603 1.388 . S
C603 H590 0.930 . S
C603 C602 1.388 . S
C603 C604 1.390 . S
C604 C603 1.390 . S
C604 C605 1.394 . S
C604 C610 1.465 . S
C605 C600 1.399 . S
C605 C604 1.394 . S
C605 C606 1.516 . S
C606 C605 1.516 . S
C606 C607 1.502 . S
C606 C608 1.561 . S
C606 C609 1.526 . S
C607 H591 0.959 . S
C607 H592 0.959 . S
C607 H593 0.961 . S
C607 C606 1.502 . S
C608 H594 0.960 . S
C608 H595 0.961 . S
C608 H596 0.959 . S
C608 C606 1.561 . S
C609 C606 1.526 . S
C609 C610 1.396 . S
C609 C614 1.390 . S
C610 C604 1.465 . S
C610 C609 1.396 . S
C610 C611 1.399 . S
C611 H597 0.929 . S
C611 C610 1.399 . S
C611 C612 1.385 . S
C612 H598 0.931 . S
C612 C611 1.385 . S
C612 C613 1.389 . S
C613 C612 1.389 . S
C613 C614 1.387 . S
C614 H599 0.930 . S
C614 C609 1.390 . S
C614 C613 1.387 . S
H615 C627 0.930 . S
H616 C629 0.930 . S
H617 C630 0.930 . S
H618 C634 0.959 . S
H619 C634 0.959 . S
H620 C634 0.961 . S
H621 C635 0.960 1_655 S
H622 C635 0.961 . S
H623 C635 0.959 . S
H624 C638 0.929 . S
H625 C639 0.931 . S
H626 C641 0.930 . S
C627 H615 0.930 . S
C627 C628 1.399 . S
C627 C632 1.399 . S
C628 C627 1.399 . S
C628 C629 1.376 . S
C629 H616 0.930 . S
C629 C628 1.376 . S
C629 C630 1.388 . S
C630 H617 0.930 . S
C630 C629 1.388 . S
C630 C631 1.390 . S
C631 C630 1.390 . S
C631 C632 1.394 . S
C631 C637 1.465 1_655 S
C632 C627 1.399 . S
C632 C631 1.394 . S
C632 C633 1.516 . S
C633 C632 1.516 . S
C633 C634 1.502 . S
C633 C635 1.561 1_655 S
C633 C636 1.526 1_655 S
C634 H618 0.959 . S
C634 H619 0.959 . S
C634 H620 0.961 . S
C634 C633 1.502 . S
C635 H621 0.960 1_455 S
C635 H622 0.961 . S
C635 H623 0.959 . S
C635 C633 1.561 1_455 S
C636 C633 1.526 1_455 S
C636 C637 1.396 . S
C636 C641 1.390 . S
C637 C631 1.465 1_455 S
C637 C636 1.396 . S
C637 C638 1.399 . S
C638 H624 0.929 . S
C638 C637 1.399 . S
C638 C639 1.385 . S
C639 H625 0.931 . S
C639 C638 1.385 . S
C639 C640 1.389 . S
C640 C639 1.389 . S
C640 C641 1.387 . S
C641 H626 0.930 . S
C641 C636 1.390 . S
C641 C640 1.387 . S
H642 C654 0.930 . S
H643 C656 0.930 . S
H644 C657 0.930 . S
H645 C661 0.959 . S
H646 C661 0.959 . S
H647 C661 0.961 . S
H648 C662 0.960 . S
H649 C662 0.961 . S
H650 C662 0.959 . S
H651 C665 0.929 . S
H652 C666 0.931 . S
H653 C668 0.930 . S
C654 H642 0.930 . S
C654 C655 1.399 . S
C654 C659 1.399 . S
C655 C654 1.399 . S
C655 C656 1.376 . S
C656 H643 0.930 . S
C656 C655 1.376 . S
C656 C657 1.388 . S
C657 H644 0.930 . S
C657 C656 1.388 . S
C657 C658 1.390 . S
C658 C657 1.390 . S
C658 C659 1.394 . S
C658 C664 1.465 1_455 S
C659 C654 1.399 . S
C659 C658 1.394 . S
C659 C660 1.516 . S
C660 C659 1.516 . S
C660 C661 1.502 . S
C660 C662 1.561 . S
C660 C663 1.526 1_455 S
C661 H645 0.959 . S
C661 H646 0.959 . S
C661 H647 0.961 . S
C661 C660 1.502 . S
C662 H648 0.960 . S
C662 H649 0.961 . S
C662 H650 0.959 . S
C662 C660 1.561 . S
C663 C660 1.526 1_655 S
C663 C664 1.396 . S
C663 C668 1.390 . S
C664 C658 1.465 1_655 S
C664 C663 1.396 . S
C664 C665 1.399 . S
C665 H651 0.929 . S
C665 C664 1.399 . S
C665 C666 1.385 . S
C666 H652 0.931 . S
C666 C665 1.385 . S
C666 C667 1.389 . S
C667 C666 1.389 . S
C667 C668 1.387 . S
C668 H653 0.930 . S
C668 C663 1.390 . S
C668 C667 1.387 . S
H669 C681 0.930 . S
H670 C683 0.930 . S
H671 C684 0.930 . S
H672 C688 0.959 . S
H673 C688 0.959 . S
H674 C688 0.961 . S
H675 C689 0.969 . S
H676 C689 0.960 1_545 S
H677 C689 0.951 1_545 S
H678 C692 0.929 . S
H679 C693 0.931 . S
H680 C695 0.930 . S
C681 H669 0.930 . S
C681 C682 1.399 . S
C681 C686 1.399 . S
C682 C681 1.399 . S
C682 C683 1.376 . S
C683 H670 0.930 . S
C683 C682 1.376 . S
C683 C684 1.388 . S
C684 H671 0.930 . S
C684 C683 1.388 . S
C684 C685 1.390 . S
C685 C684 1.390 . S
C685 C686 1.394 . S
C685 C691 1.465 1_565 S
C686 C681 1.399 . S
C686 C685 1.394 . S
C686 C687 1.516 . S
C687 C686 1.516 . S
C687 C688 1.502 . S
C687 C689 1.562 . S
C687 C690 1.526 1_565 S
C688 H672 0.959 . S
C688 H673 0.959 . S
C688 H674 0.961 . S
C688 C687 1.502 . S
C689 H675 0.969 . S
C689 H676 0.960 1_565 S
C689 H677 0.951 1_565 S
C689 C687 1.562 . S
C690 C687 1.526 1_545 S
C690 C691 1.396 . S
C690 C695 1.390 . S
C691 C685 1.465 1_545 S
C691 C690 1.396 . S
C691 C692 1.399 . S
C692 H678 0.929 . S
C692 C691 1.399 . S
C692 C693 1.385 . S
C693 H679 0.931 . S
C693 C692 1.385 . S
C693 C694 1.389 . S
C694 C693 1.389 . S
C694 C695 1.387 . S
C695 H680 0.930 . S
C695 C690 1.390 . S
C695 C694 1.387 . S
H696 C708 0.930 . S
H697 C710 0.930 . S
H698 C711 0.930 . S
H699 C715 0.959 . S
H700 C715 0.959 . S
H701 C715 0.961 . S
H702 C716 0.960 . S
H703 C716 0.961 . S
H704 C716 0.959 . S
H705 C719 0.929 . S
H706 C720 0.931 . S
H707 C722 0.930 . S
C708 H696 0.930 . S
C708 C709 1.399 . S
C708 C713 1.399 . S
C709 C708 1.399 . S
C709 C710 1.376 . S
C710 H697 0.930 . S
C710 C709 1.376 . S
C710 C711 1.388 . S
C711 H698 0.930 . S
C711 C710 1.388 . S
C711 C712 1.390 . S
C712 C711 1.390 . S
C712 C713 1.394 . S
C712 C718 1.465 . S
C713 C708 1.399 . S
C713 C712 1.394 . S
C713 C714 1.516 . S
C714 C713 1.516 . S
C714 C715 1.502 . S
C714 C716 1.561 . S
C714 C717 1.526 . S
C715 H699 0.959 . S
C715 H700 0.959 . S
C715 H701 0.961 . S
C715 C714 1.502 . S
C716 H702 0.960 . S
C716 H703 0.961 . S
C716 H704 0.959 . S
C716 C714 1.561 . S
C717 C714 1.526 . S
C717 C718 1.396 . S
C717 C722 1.390 . S
C718 C712 1.465 . S
C718 C717 1.396 . S
C718 C719 1.399 . S
C719 H705 0.929 . S
C719 C718 1.399 . S
C719 C720 1.385 . S
C720 H706 0.931 . S
C720 C719 1.385 . S
C720 C721 1.389 . S
C721 C720 1.389 . S
C721 C722 1.387 . S
C722 H707 0.930 . S
C722 C717 1.390 . S
C722 C721 1.387 . S
H723 C735 0.930 . S
H724 C737 0.930 . S
H725 C738 0.930 . S
H726 C742 0.959 . S
H727 C742 0.959 . S
H728 C742 0.961 1_455 S
H729 C743 0.960 . S
H730 C743 0.961 . S
H731 C743 0.959 . S
H732 C746 0.929 . S
H733 C747 0.931 . S
H734 C749 0.930 . S
C735 H723 0.930 . S
C735 C736 1.399 . S
C735 C740 1.399 . S
C736 C735 1.399 . S
C736 C737 1.376 . S
C737 H724 0.930 . S
C737 C736 1.376 . S
C737 C738 1.388 . S
C738 H725 0.930 . S
C738 C737 1.388 . S
C738 C739 1.390 . S
C739 C738 1.390 . S
C739 C740 1.394 . S
C739 C745 1.465 1_455 S
C740 C735 1.399 . S
C740 C739 1.394 . S
C740 C741 1.516 1_455 S
C741 C740 1.516 1_655 S
C741 C742 1.502 . S
C741 C743 1.561 . S
C741 C744 1.526 . S
C742 H726 0.959 . S
C742 H727 0.959 . S
C742 H728 0.961 1_655 S
C742 C741 1.502 . S
C743 H729 0.960 . S
C743 H730 0.961 . S
C743 H731 0.959 . S
C743 C741 1.561 . S
C744 C741 1.526 . S
C744 C745 1.396 . S
C744 C749 1.390 . S
C745 C739 1.465 1_655 S
C745 C744 1.396 . S
C745 C746 1.399 . S
C746 H732 0.929 . S
C746 C745 1.399 . S
C746 C747 1.385 . S
C747 H733 0.931 . S
C747 C746 1.385 . S
C747 C748 1.389 . S
C748 C747 1.389 . S
C748 C749 1.387 . S
C749 H734 0.930 . S
C749 C744 1.390 . S
C749 C748 1.387 . S
H750 C762 0.930 . S
H751 C764 0.930 . S
H752 C765 0.930 . S
H753 C769 0.959 . S
H754 C769 0.959 1_565 S
H755 C769 0.961 . S
H756 C770 0.981 . S
H757 C770 0.961 . S
H758 C770 0.959 . S
H759 C773 0.929 . S
H760 C774 0.931 . S
H761 C776 0.930 . S
C762 H750 0.930 . S
C762 C763 1.399 . S
C762 C767 1.399 . S
C763 C762 1.399 . S
C763 C764 1.376 . S
C764 H751 0.930 . S
C764 C763 1.376 . S
C764 C765 1.388 . S
C765 H752 0.930 . S
C765 C764 1.388 . S
C765 C766 1.390 . S
C766 C765 1.390 . S
C766 C767 1.394 . S
C766 C772 1.465 1_545 S
C767 C762 1.399 . S
C767 C766 1.394 . S
C767 C768 1.516 1_545 S
C768 C767 1.516 1_565 S
C768 C769 1.502 1_565 S
C768 C770 1.561 . S
C768 C771 1.526 . S
C769 H753 0.959 . S
C769 H754 0.959 1_545 S
C769 H755 0.961 . S
C769 C768 1.502 1_545 S
C770 H756 0.981 . S
C770 H757 0.961 . S
C770 H758 0.959 . S
C770 C768 1.561 . S
C771 C768 1.526 . S
C771 C772 1.396 . S
C771 C776 1.390 . S
C772 C766 1.465 1_565 S
C772 C771 1.396 . S
C772 C773 1.399 . S
C773 H759 0.929 . S
C773 C772 1.399 . S
C773 C774 1.385 . S
C774 H760 0.931 . S
C774 C773 1.385 . S
C774 C775 1.389 . S
C775 C774 1.389 . S
C775 C776 1.387 . S
C776 H761 0.930 . S
C776 C771 1.390 . S
C776 C775 1.387 . S
H777 C789 0.930 . S
H778 C791 0.930 . S
H779 C792 0.930 . S
H780 C796 0.959 . S
H781 C796 0.959 . S
H782 C796 0.961 . S
H783 C797 0.960 . S
H784 C797 0.961 . S
H785 C797 0.959 . S
H786 C800 0.929 . S
H787 C801 0.931 . S
H788 C803 0.930 . S
C789 H777 0.930 . S
C789 C790 1.399 . S
C789 C794 1.399 . S
C790 C789 1.399 . S
C790 C791 1.376 . S
C791 H778 0.930 . S
C791 C790 1.376 . S
C791 C792 1.388 . S
C792 H779 0.930 . S
C792 C791 1.388 . S
C792 C793 1.390 . S
C793 C792 1.390 . S
C793 C794 1.394 . S
C793 C799 1.465 . S
C794 C789 1.399 . S
C794 C793 1.394 . S
C794 C795 1.516 . S
C795 C794 1.516 . S
C795 C796 1.502 . S
C795 C797 1.561 . S
C795 C798 1.526 . S
C796 H780 0.959 . S
C796 H781 0.959 . S
C796 H782 0.961 . S
C796 C795 1.502 . S
C797 H783 0.960 . S
C797 H784 0.961 . S
C797 H785 0.959 . S
C797 C795 1.561 . S
C798 C795 1.526 . S
C798 C799 1.396 . S
C798 C803 1.390 . S
C799 C793 1.465 . S
C799 C798 1.396 . S
C799 C800 1.399 . S
C800 H786 0.929 . S
C800 C799 1.399 . S
C800 C801 1.385 . S
C801 H787 0.931 . S
C801 C800 1.385 . S
C801 C802 1.389 . S
C802 C801 1.389 . S
C802 C803 1.387 . S
C803 H788 0.930 . S
C803 C798 1.390 . S
C803 C802 1.387 . S
H804 C816 0.930 . S
H805 C818 0.930 . S
H806 C819 0.930 . S
H807 C823 0.959 . S
H808 C823 0.959 . S
H809 C823 0.961 . S
H810 C824 0.960 . S
H811 C824 0.961 . S
H812 C824 0.959 . S
H813 C827 0.929 . S
H814 C828 0.931 . S
H815 C830 0.930 . S
C816 H804 0.930 . S
C816 C817 1.399 . S
C816 C821 1.399 . S
C817 C816 1.399 . S
C817 C818 1.376 . S
C818 H805 0.930 . S
C818 C817 1.376 . S
C818 C819 1.388 . S
C819 H806 0.930 . S
C819 C818 1.388 . S
C819 C820 1.390 . S
C820 C819 1.390 . S
C820 C821 1.394 . S
C820 C826 1.465 . S
C821 C816 1.399 . S
C821 C820 1.394 . S
C821 C822 1.516 . S
C822 C821 1.516 . S
C822 C823 1.502 . S
C822 C824 1.561 . S
C822 C825 1.526 . S
C823 H807 0.959 . S
C823 H808 0.959 . S
C823 H809 0.961 . S
C823 C822 1.502 . S
C824 H810 0.960 . S
C824 H811 0.961 . S
C824 H812 0.959 . S
C824 C822 1.561 . S
C825 C822 1.526 . S
C825 C826 1.396 . S
C825 C830 1.390 . S
C826 C820 1.465 . S
C826 C825 1.396 . S
C826 C827 1.399 . S
C827 H813 0.929 . S
C827 C826 1.399 . S
C827 C828 1.385 . S
C828 H814 0.931 . S
C828 C827 1.385 . S
C828 C829 1.389 . S
C829 C828 1.389 . S
C829 C830 1.387 . S
C830 H815 0.930 . S
C830 C825 1.390 . S
C830 C829 1.387 . S
H831 C843 0.930 . S
H832 C845 0.930 . S
H833 C846 0.930 . S
H834 C850 0.959 . S
H835 C850 0.959 . S
H836 C850 0.961 . S
H837 C851 0.960 . S
H838 C851 0.961 . S
H839 C851 0.959 . S
H840 C854 0.929 . S
H841 C855 0.931 . S
H842 C857 0.930 . S
C843 H831 0.930 . S
C843 C844 1.399 . S
C843 C848 1.399 . S
C844 C843 1.399 . S
C844 C845 1.376 . S
C845 H832 0.930 . S
C845 C844 1.376 . S
C845 C846 1.388 . S
C846 H833 0.930 . S
C846 C845 1.388 . S
C846 C847 1.390 . S
C847 C846 1.390 . S
C847 C848 1.394 . S
C847 C853 1.465 . S
C848 C843 1.399 . S
C848 C847 1.394 . S
C848 C849 1.516 . S
C849 C848 1.516 . S
C849 C850 1.502 . S
C849 C851 1.561 . S
C849 C852 1.526 . S
C850 H834 0.959 . S
C850 H835 0.959 . S
C850 H836 0.961 . S
C850 C849 1.502 . S
C851 H837 0.960 . S
C851 H838 0.961 . S
C851 H839 0.959 . S
C851 C849 1.561 . S
C852 C849 1.526 . S
C852 C853 1.396 . S
C852 C857 1.390 . S
C853 C847 1.465 . S
C853 C852 1.396 . S
C853 C854 1.399 . S
C854 H840 0.929 . S
C854 C853 1.399 . S
C854 C855 1.385 . S
C855 H841 0.931 . S
C855 C854 1.385 . S
C855 C856 1.389 . S
C856 C855 1.389 . S
C856 C857 1.387 . S
C857 H842 0.930 . S
C857 C852 1.390 . S
C857 C856 1.387 . S
H858 C870 0.930 . S
H859 C872 0.930 . S
H860 C873 0.930 . S
H861 C877 0.959 . S
H862 C877 0.959 . S
H863 C877 0.961 . S
H864 C878 0.960 . S
H865 C878 0.961 . S
H866 C878 0.959 . S
H867 C881 0.929 . S
H868 C882 0.931 . S
H869 C884 0.930 . S
C870 H858 0.930 . S
C870 C871 1.399 . S
C870 C875 1.399 . S
C871 C870 1.399 . S
C871 C872 1.376 . S
C872 H859 0.930 . S
C872 C871 1.376 . S
C872 C873 1.388 . S
C873 H860 0.930 . S
C873 C872 1.388 . S
C873 C874 1.390 . S
C874 C873 1.390 . S
C874 C875 1.394 . S
C874 C880 1.465 . S
C875 C870 1.399 . S
C875 C874 1.394 . S
C875 C876 1.516 . S
C876 C875 1.516 . S
C876 C877 1.502 . S
C876 C878 1.561 . S
C876 C879 1.526 . S
C877 H861 0.959 . S
C877 H862 0.959 . S
C877 H863 0.961 . S
C877 C876 1.502 . S
C878 H864 0.960 . S
C878 H865 0.961 . S
C878 H866 0.959 . S
C878 C876 1.561 . S
C879 C876 1.526 . S
C879 C880 1.396 . S
C879 C884 1.390 . S
C880 C874 1.465 . S
C880 C879 1.396 . S
C880 C881 1.399 . S
C881 H867 0.929 . S
C881 C880 1.399 . S
C881 C882 1.385 . S
C882 H868 0.931 . S
C882 C881 1.385 . S
C882 C883 1.389 . S
C883 C882 1.389 . S
C883 C884 1.387 . S
C884 H869 0.930 . S
C884 C879 1.390 . S
C884 C883 1.387 . S
H885 C897 0.930 . S
H886 C899 0.930 . S
H887 C900 0.930 . S
H888 C904 0.959 . S
H889 C904 0.959 . S
H890 C904 0.961 . S
H891 C905 0.960 . S
H892 C905 0.961 . S
H893 C905 0.959 . S
H894 C908 0.929 . S
H895 C909 0.931 . S
H896 C911 0.930 . S
C897 H885 0.930 . S
C897 C898 1.399 . S
C897 C902 1.399 . S
C898 C897 1.399 . S
C898 C899 1.376 . S
C899 H886 0.930 . S
C899 C898 1.376 . S
C899 C900 1.388 . S
C900 H887 0.930 . S
C900 C899 1.388 . S
C900 C901 1.390 . S
C901 C900 1.390 . S
C901 C902 1.394 . S
C901 C907 1.465 . S
C902 C897 1.399 . S
C902 C901 1.394 . S
C902 C903 1.516 . S
C903 C902 1.516 . S
C903 C904 1.502 . S
C903 C905 1.561 . S
C903 C906 1.526 . S
C904 H888 0.959 . S
C904 H889 0.959 . S
C904 H890 0.961 . S
C904 C903 1.502 . S
C905 H891 0.960 . S
C905 H892 0.961 . S
C905 H893 0.959 . S
C905 C903 1.561 . S
C906 C903 1.526 . S
C906 C907 1.396 . S
C906 C911 1.390 . S
C907 C901 1.465 . S
C907 C906 1.396 . S
C907 C908 1.399 . S
C908 H894 0.929 . S
C908 C907 1.399 . S
C908 C909 1.385 . S
C909 H895 0.931 . S
C909 C908 1.385 . S
C909 C910 1.389 . S
C910 C909 1.389 . S
C910 C911 1.387 . S
C911 H896 0.930 . S
C911 C906 1.390 . S
C911 C910 1.387 . S
H912 C924 0.930 . S
H913 C926 0.930 . S
H914 C927 0.930 . S
H915 C931 0.959 . S
H916 C931 0.959 . S
H917 C931 0.961 . S
H918 C932 0.960 . S
H919 C932 0.961 . S
H920 C932 0.959 . S
H921 C935 0.929 . S
H922 C936 0.931 . S
H923 C938 0.930 . S
C924 H912 0.930 . S
C924 C925 1.399 . S
C924 C929 1.399 . S
C925 C924 1.399 . S
C925 C926 1.376 . S
C926 H913 0.930 . S
C926 C925 1.376 . S
C926 C927 1.388 . S
C927 H914 0.930 . S
C927 C926 1.388 . S
C927 C928 1.390 . S
C928 C927 1.390 . S
C928 C929 1.394 . S
C928 C934 1.465 . S
C929 C924 1.399 . S
C929 C928 1.394 . S
C929 C930 1.516 . S
C930 C929 1.516 . S
C930 C931 1.502 . S
C930 C932 1.561 . S
C930 C933 1.526 . S
C931 H915 0.959 . S
C931 H916 0.959 . S
C931 H917 0.961 . S
C931 C930 1.502 . S
C932 H918 0.960 . S
C932 H919 0.961 . S
C932 H920 0.959 . S
C932 C930 1.561 . S
C933 C930 1.526 . S
C933 C934 1.396 . S
C933 C938 1.390 . S
C934 C928 1.465 . S
C934 C933 1.396 . S
C934 C935 1.399 . S
C935 H921 0.929 . S
C935 C934 1.399 . S
C935 C936 1.385 . S
C936 H922 0.931 . S
C936 C935 1.385 . S
C936 C937 1.389 . S
C937 C936 1.389 . S
C937 C938 1.387 . S
C938 H923 0.930 . S
C938 C933 1.390 . S
C938 C937 1.387 . S
H939 C951 0.930 . S
H940 C953 0.930 . S
H941 C954 0.930 . S
H942 C958 0.959 . S
H943 C958 0.959 . S
H944 C958 0.961 . S
H945 C959 0.960 . S
H946 C959 0.961 . S
H947 C959 0.959 . S
H948 C962 0.929 . S
H949 C963 0.931 . S
H950 C965 0.930 . S
C951 H939 0.930 . S
C951 C952 1.399 . S
C951 C956 1.399 . S
C952 C951 1.399 . S
C952 C953 1.376 . S
C953 H940 0.930 . S
C953 C952 1.376 . S
C953 C954 1.388 . S
C954 H941 0.930 . S
C954 C953 1.388 . S
C954 C955 1.390 . S
C955 C954 1.390 . S
C955 C956 1.394 . S
C955 C961 1.465 . S
C956 C951 1.399 . S
C956 C955 1.394 . S
C956 C957 1.516 . S
C957 C956 1.516 . S
C957 C958 1.502 . S
C957 C959 1.561 . S
C957 C960 1.526 . S
C958 H942 0.959 . S
C958 H943 0.959 . S
C958 H944 0.961 . S
C958 C957 1.502 . S
C959 H945 0.960 . S
C959 H946 0.961 . S
C959 H947 0.959 . S
C959 C957 1.561 . S
C960 C957 1.526 . S
C960 C961 1.396 . S
C960 C965 1.390 . S
C961 C955 1.465 . S
C961 C960 1.396 . S
C961 C962 1.399 . S
C962 H948 0.929 . S
C962 C961 1.399 . S
C962 C963 1.385 . S
C963 H949 0.931 . S
C963 C962 1.385 . S
C963 C964 1.389 . S
C964 C963 1.389 . S
C964 C965 1.387 . S
C965 H950 0.930 . S
C965 C960 1.390 . S
C965 C964 1.387 . S
H966 C978 0.930 . S
H967 C980 0.930 . S
H968 C981 0.930 . S
H969 C985 0.959 . S
H970 C985 0.959 . S
H971 C985 0.961 . S
H972 C986 0.960 . S
H973 C986 0.961 . S
H974 C986 0.959 . S
H975 C989 0.929 . S
H976 C990 0.931 . S
H977 C992 0.930 . S
C978 H966 0.930 . S
C978 C979 1.399 . S
C978 C983 1.399 . S
C979 C978 1.399 . S
C979 C980 1.376 . S
C980 H967 0.930 . S
C980 C979 1.376 . S
C980 C981 1.388 . S
C981 H968 0.930 . S
C981 C980 1.388 . S
C981 C982 1.390 . S
C982 C981 1.390 . S
C982 C983 1.394 . S
C982 C988 1.465 . S
C983 C978 1.399 . S
C983 C982 1.394 . S
C983 C984 1.516 . S
C984 C983 1.516 . S
C984 C985 1.502 . S
C984 C986 1.561 . S
C984 C987 1.526 . S
C985 H969 0.959 . S
C985 H970 0.959 . S
C985 H971 0.961 . S
C985 C984 1.502 . S
C986 H972 0.960 . S
C986 H973 0.961 . S
C986 H974 0.959 . S
C986 C984 1.561 . S
C987 C984 1.526 . S
C987 C988 1.396 . S
C987 C992 1.390 . S
C988 C982 1.465 . S
C988 C987 1.396 . S
C988 C989 1.399 . S
C989 H975 0.929 . S
C989 C988 1.399 . S
C989 C990 1.385 . S
C990 H976 0.931 . S
C990 C989 1.385 . S
C990 C991 1.389 . S
C991 C990 1.389 . S
C991 C992 1.387 . S
C992 H977 0.930 . S
C992 C987 1.390 . S
C992 C991 1.387 . S
H993 C1005 0.930 . S
H994 C1007 0.930 . S
H995 C1008 0.930 . S
H996 C1012 0.959 . S
H997 C1012 0.959 . S
H998 C1012 0.961 . S
H999 C1013 0.960 . S
H1000 C1013 0.961 . S
H1001 C1013 0.959 . S
H1002 C1016 0.929 . S
H1003 C1017 0.931 . S
H1004 C1019 0.930 . S
C1005 H993 0.930 . S
C1005 C1006 1.399 . S
C1005 C1010 1.399 . S
C1006 C1005 1.399 . S
C1006 C1007 1.376 . S
C1007 H994 0.930 . S
C1007 C1006 1.376 . S
C1007 C1008 1.388 . S
C1008 H995 0.930 . S
C1008 C1007 1.388 . S
C1008 C1009 1.390 . S
C1009 C1008 1.390 . S
C1009 C1010 1.394 . S
C1009 C1015 1.465 . S
C1010 C1005 1.399 . S
C1010 C1009 1.394 . S
C1010 C1011 1.516 . S
C1011 C1010 1.516 . S
C1011 C1012 1.502 . S
C1011 C1013 1.561 . S
C1011 C1014 1.526 . S
C1012 H996 0.959 . S
C1012 H997 0.959 . S
C1012 H998 0.961 . S
C1012 C1011 1.502 . S
C1013 H999 0.960 . S
C1013 H1000 0.961 . S
C1013 H1001 0.959 . S
C1013 C1011 1.561 . S
C1014 C1011 1.526 . S
C1014 C1015 1.396 . S
C1014 C1019 1.390 . S
C1015 C1009 1.465 . S
C1015 C1014 1.396 . S
C1015 C1016 1.399 . S
C1016 H1002 0.929 . S
C1016 C1015 1.399 . S
C1016 C1017 1.385 . S
C1017 H1003 0.931 . S
C1017 C1016 1.385 . S
C1017 C1018 1.389 . S
C1018 C1017 1.389 . S
C1018 C1019 1.387 . S
C1019 H1004 0.930 . S
C1019 C1014 1.390 . S
C1019 C1018 1.387 . S
H1020 C1032 0.930 . S
H1021 C1034 0.930 . S
H1022 C1035 0.930 . S
H1023 C1039 0.959 . S
H1024 C1039 0.959 . S
H1025 C1039 0.961 . S
H1026 C1040 0.960 . S
H1027 C1040 0.961 . S
H1028 C1040 0.959 . S
H1029 C1043 0.929 . S
H1030 C1044 0.931 . S
H1031 C1046 0.930 . S
C1032 H1020 0.930 . S
C1032 C1033 1.399 . S
C1032 C1037 1.399 . S
C1033 C1032 1.399 . S
C1033 C1034 1.376 . S
C1034 H1021 0.930 . S
C1034 C1033 1.376 . S
C1034 C1035 1.388 . S
C1035 H1022 0.930 . S
C1035 C1034 1.388 . S
C1035 C1036 1.390 . S
C1036 C1035 1.390 . S
C1036 C1037 1.394 . S
C1036 C1042 1.465 . S
C1037 C1032 1.399 . S
C1037 C1036 1.394 . S
C1037 C1038 1.516 . S
C1038 C1037 1.516 . S
C1038 C1039 1.502 . S
C1038 C1040 1.561 . S
C1038 C1041 1.526 . S
C1039 H1023 0.959 . S
C1039 H1024 0.959 . S
C1039 H1025 0.961 . S
C1039 C1038 1.502 . S
C1040 H1026 0.960 . S
C1040 H1027 0.961 . S
C1040 H1028 0.959 . S
C1040 C1038 1.561 . S
C1041 C1038 1.526 . S
C1041 C1042 1.396 . S
C1041 C1046 1.390 . S
C1042 C1036 1.465 . S
C1042 C1041 1.396 . S
C1042 C1043 1.399 . S
C1043 H1029 0.929 . S
C1043 C1042 1.399 . S
C1043 C1044 1.385 . S
C1044 H1030 0.931 . S
C1044 C1043 1.385 . S
C1044 C1045 1.389 . S
C1045 C1044 1.389 . S
C1045 C1046 1.387 . S
C1046 H1031 0.930 . S
C1046 C1041 1.390 . S
C1046 C1045 1.387 . S
H1047 C1059 0.930 . S
H1048 C1061 0.930 . S
H1049 C1062 0.930 . S
H1050 C1066 0.959 . S
H1051 C1066 0.959 . S
H1052 C1066 0.961 . S
H1053 C1067 0.960 . S
H1054 C1067 0.961 . S
H1055 C1067 0.959 . S
H1056 C1070 0.929 . S
H1057 C1071 0.931 . S
H1058 C1073 0.930 . S
C1059 H1047 0.930 . S
C1059 C1060 1.399 . S
C1059 C1064 1.399 . S
C1060 C1059 1.399 . S
C1060 C1061 1.376 . S
C1061 H1048 0.930 . S
C1061 C1060 1.376 . S
C1061 C1062 1.388 . S
C1062 H1049 0.930 . S
C1062 C1061 1.388 . S
C1062 C1063 1.390 . S
C1063 C1062 1.390 . S
C1063 C1064 1.394 . S
C1063 C1069 1.465 . S
C1064 C1059 1.399 . S
C1064 C1063 1.394 . S
C1064 C1065 1.516 . S
C1065 C1064 1.516 . S
C1065 C1066 1.502 . S
C1065 C1067 1.561 . S
C1065 C1068 1.526 . S
C1066 H1050 0.959 . S
C1066 H1051 0.959 . S
C1066 H1052 0.961 . S
C1066 C1065 1.502 . S
C1067 H1053 0.960 . S
C1067 H1054 0.961 . S
C1067 H1055 0.959 . S
C1067 C1065 1.561 . S
C1068 C1065 1.526 . S
C1068 C1069 1.396 . S
C1068 C1073 1.390 . S
C1069 C1063 1.465 . S
C1069 C1068 1.396 . S
C1069 C1070 1.399 . S
C1070 H1056 0.929 . S
C1070 C1069 1.399 . S
C1070 C1071 1.385 . S
C1071 H1057 0.931 . S
C1071 C1070 1.385 . S
C1071 C1072 1.389 . S
C1072 C1071 1.389 . S
C1072 C1073 1.387 . S
C1073 H1058 0.930 . S
C1073 C1068 1.390 . S
C1073 C1072 1.387 . S
H1074 C1086 0.930 . S
H1075 C1088 0.930 . S
H1076 C1089 0.930 . S
H1077 C1093 0.959 . S
H1078 C1093 0.959 . S
H1079 C1093 0.961 . S
H1080 C1094 0.960 . S
H1081 C1094 0.961 . S
H1082 C1094 0.959 . S
H1083 C1097 0.929 . S
H1084 C1098 0.931 . S
H1085 C1100 0.930 . S
C1086 H1074 0.930 . S
C1086 C1087 1.399 . S
C1086 C1091 1.399 . S
C1087 C1086 1.399 . S
C1087 C1088 1.376 . S
C1088 H1075 0.930 . S
C1088 C1087 1.376 . S
C1088 C1089 1.388 . S
C1089 H1076 0.930 . S
C1089 C1088 1.388 . S
C1089 C1090 1.390 . S
C1090 C1089 1.390 . S
C1090 C1091 1.394 . S
C1090 C1096 1.465 . S
C1091 C1086 1.399 . S
C1091 C1090 1.394 . S
C1091 C1092 1.516 . S
C1092 C1091 1.516 . S
C1092 C1093 1.502 . S
C1092 C1094 1.561 . S
C1092 C1095 1.526 . S
C1093 H1077 0.959 . S
C1093 H1078 0.959 . S
C1093 H1079 0.961 . S
C1093 C1092 1.502 . S
C1094 H1080 0.960 . S
C1094 H1081 0.961 . S
C1094 H1082 0.959 . S
C1094 C1092 1.561 . S
C1095 C1092 1.526 . S
C1095 C1096 1.396 . S
C1095 C1100 1.390 . S
C1096 C1090 1.465 . S
C1096 C1095 1.396 . S
C1096 C1097 1.399 . S
C1097 H1083 0.929 . S
C1097 C1096 1.399 . S
C1097 C1098 1.385 . S
C1098 H1084 0.931 . S
C1098 C1097 1.385 . S
C1098 C1099 1.389 . S
C1099 C1098 1.389 . S
C1099 C1100 1.387 . S
C1100 H1085 0.930 . S
C1100 C1095 1.390 . S
C1100 C1099 1.387 . S
H1101 C1113 0.930 . S
H1102 C1115 0.930 . S
H1103 C1116 0.930 . S
H1104 C1120 0.959 . S
H1105 C1120 0.959 . S
H1106 C1120 0.961 . S
H1107 C1121 0.960 . S
H1108 C1121 0.961 . S
H1109 C1121 0.959 . S
H1110 C1124 0.929 . S
H1111 C1125 0.931 . S
H1112 C1127 0.930 . S
C1113 H1101 0.930 . S
C1113 C1114 1.399 . S
C1113 C1118 1.399 . S
C1114 C1113 1.399 . S
C1114 C1115 1.376 . S
C1115 H1102 0.930 . S
C1115 C1114 1.376 . S
C1115 C1116 1.388 . S
C1116 H1103 0.930 . S
C1116 C1115 1.388 . S
C1116 C1117 1.390 . S
C1117 C1116 1.390 . S
C1117 C1118 1.394 . S
C1117 C1123 1.465 . S
C1118 C1113 1.399 . S
C1118 C1117 1.394 . S
C1118 C1119 1.516 . S
C1119 C1118 1.516 . S
C1119 C1120 1.502 . S
C1119 C1121 1.561 . S
C1119 C1122 1.526 . S
C1120 H1104 0.959 . S
C1120 H1105 0.959 . S
C1120 H1106 0.961 . S
C1120 C1119 1.502 . S
C1121 H1107 0.960 . S
C1121 H1108 0.961 . S
C1121 H1109 0.959 . S
C1121 C1119 1.561 . S
C1122 C1119 1.526 . S
C1122 C1123 1.396 . S
C1122 C1127 1.390 . S
C1123 C1117 1.465 . S
C1123 C1122 1.396 . S
C1123 C1124 1.399 . S
C1124 H1110 0.929 . S
C1124 C1123 1.399 . S
C1124 C1125 1.385 . S
C1125 H1111 0.931 . S
C1125 C1124 1.385 . S
C1125 C1126 1.389 . S
C1126 C1125 1.389 . S
C1126 C1127 1.387 . S
C1127 H1112 0.930 . S
C1127 C1122 1.390 . S
C1127 C1126 1.387 . S
H1128 C1140 0.930 . S
H1129 C1142 0.930 . S
H1130 C1143 0.930 . S
H1131 C1147 0.959 . S
H1132 C1147 0.959 . S
H1133 C1147 0.961 . S
H1134 C1148 0.960 . S
H1135 C1148 0.961 . S
H1136 C1148 0.959 . S
H1137 C1151 0.929 . S
H1138 C1152 0.931 . S
H1139 C1154 0.930 . S
C1140 H1128 0.930 . S
C1140 C1141 1.399 . S
C1140 C1145 1.399 . S
C1141 C1140 1.399 . S
C1141 C1142 1.376 . S
C1142 H1129 0.930 . S
C1142 C1141 1.376 . S
C1142 C1143 1.388 . S
C1143 H1130 0.930 . S
C1143 C1142 1.388 . S
C1143 C1144 1.390 . S
C1144 C1143 1.390 . S
C1144 C1145 1.394 . S
C1144 C1150 1.465 . S
C1145 C1140 1.399 . S
C1145 C1144 1.394 . S
C1145 C1146 1.516 . S
C1146 C1145 1.516 . S
C1146 C1147 1.502 . S
C1146 C1148 1.561 . S
C1146 C1149 1.526 . S
C1147 H1131 0.959 . S
C1147 H1132 0.959 . S
C1147 H1133 0.961 . S
C1147 C1146 1.502 . S
C1148 H1134 0.960 . S
C1148 H1135 0.961 . S
C1148 H1136 0.959 . S
C1148 C1146 1.561 . S
C1149 C1146 1.526 . S
C1149 C1150 1.396 . S
C1149 C1154 1.390 . S
C1150 C1144 1.465 . S
C1150 C1149 1.396 . S
C1150 C1151 1.399 . S
C1151 H1137 0.929 . S
C1151 C1150 1.399 . S
C1151 C1152 1.385 . S
C1152 H1138 0.931 . S
C1152 C1151 1.385 . S
C1152 C1153 1.389 . S
C1153 C1152 1.389 . S
C1153 C1154 1.387 . S
C1154 H1139 0.930 . S
C1154 C1149 1.390 . S
C1154 C1153 1.387 . S
H1155 C1167 0.930 . S
H1156 C1169 0.930 . S
H1157 C1170 0.930 . S
H1158 C1174 0.959 . S
H1159 C1174 0.959 . S
H1160 C1174 0.961 . S
H1161 C1175 0.960 . S
H1162 C1175 0.961 . S
H1163 C1175 0.959 . S
H1164 C1178 0.929 . S
H1165 C1179 0.931 . S
H1166 C1181 0.930 . S
C1167 H1155 0.930 . S
C1167 C1168 1.399 . S
C1167 C1172 1.399 . S
C1168 C1167 1.399 . S
C1168 C1169 1.376 . S
C1169 H1156 0.930 . S
C1169 C1168 1.376 . S
C1169 C1170 1.388 . S
C1170 H1157 0.930 . S
C1170 C1169 1.388 . S
C1170 C1171 1.390 . S
C1171 C1170 1.390 . S
C1171 C1172 1.394 . S
C1171 C1177 1.465 . S
C1172 C1167 1.399 . S
C1172 C1171 1.394 . S
C1172 C1173 1.516 . S
C1173 C1172 1.516 . S
C1173 C1174 1.502 . S
C1173 C1175 1.561 . S
C1173 C1176 1.526 . S
C1174 H1158 0.959 . S
C1174 H1159 0.959 . S
C1174 H1160 0.961 . S
C1174 C1173 1.502 . S
C1175 H1161 0.960 . S
C1175 H1162 0.961 . S
C1175 H1163 0.959 . S
C1175 C1173 1.561 . S
C1176 C1173 1.526 . S
C1176 C1177 1.396 . S
C1176 C1181 1.390 . S
C1177 C1171 1.465 . S
C1177 C1176 1.396 . S
C1177 C1178 1.399 . S
C1178 H1164 0.929 . S
C1178 C1177 1.399 . S
C1178 C1179 1.385 . S
C1179 H1165 0.931 . S
C1179 C1178 1.385 . S
C1179 C1180 1.389 . S
C1180 C1179 1.389 . S
C1180 C1181 1.387 . S
C1181 H1166 0.930 . S
C1181 C1176 1.390 . S
C1181 C1180 1.387 . S
H1182 C1194 0.930 . S
H1183 C1196 0.930 . S
H1184 C1197 0.930 . S
H1185 C1201 0.959 . S
H1186 C1201 0.959 . S
H1187 C1201 0.961 . S
H1188 C1202 0.960 . S
H1189 C1202 0.961 . S
H1190 C1202 0.959 . S
H1191 C1205 0.929 . S
H1192 C1206 0.931 . S
H1193 C1208 0.930 . S
C1194 H1182 0.930 . S
C1194 C1195 1.399 . S
C1194 C1199 1.399 . S
C1195 C1194 1.399 . S
C1195 C1196 1.376 . S
C1196 H1183 0.930 . S
C1196 C1195 1.376 . S
C1196 C1197 1.388 . S
C1197 H1184 0.930 . S
C1197 C1196 1.388 . S
C1197 C1198 1.390 . S
C1198 C1197 1.390 . S
C1198 C1199 1.394 . S
C1198 C1204 1.465 . S
C1199 C1194 1.399 . S
C1199 C1198 1.394 . S
C1199 C1200 1.516 . S
C1200 C1199 1.516 . S
C1200 C1201 1.502 . S
C1200 C1202 1.561 . S
C1200 C1203 1.526 . S
C1201 H1185 0.959 . S
C1201 H1186 0.959 . S
C1201 H1187 0.961 . S
C1201 C1200 1.502 . S
C1202 H1188 0.960 . S
C1202 H1189 0.961 . S
C1202 H1190 0.959 . S
C1202 C1200 1.561 . S
C1203 C1200 1.526 . S
C1203 C1204 1.396 . S
C1203 C1208 1.390 . S
C1204 C1198 1.465 . S
C1204 C1203 1.396 . S
C1204 C1205 1.399 . S
C1205 H1191 0.929 . S
C1205 C1204 1.399 . S
C1205 C1206 1.385 . S
C1206 H1192 0.931 . S
C1206 C1205 1.385 . S
C1206 C1207 1.389 . S
C1207 C1206 1.389 . S
C1207 C1208 1.387 . S
C1208 H1193 0.930 . S
C1208 C1203 1.390 . S
C1208 C1207 1.387 . S
H1209 C1221 0.930 . S
H1210 C1223 0.930 . S
H1211 C1224 0.930 . S
H1212 C1228 0.959 . S
H1213 C1228 0.959 . S
H1214 C1228 0.961 . S
H1215 C1229 0.960 . S
H1216 C1229 0.961 . S
H1217 C1229 0.959 . S
H1218 C1232 0.929 . S
H1219 C1233 0.931 . S
H1220 C1235 0.930 . S
C1221 H1209 0.930 . S
C1221 C1222 1.399 . S
C1221 C1226 1.399 . S
C1222 C1221 1.399 . S
C1222 C1223 1.376 . S
C1223 H1210 0.930 . S
C1223 C1222 1.376 . S
C1223 C1224 1.388 . S
C1224 H1211 0.930 . S
C1224 C1223 1.388 . S
C1224 C1225 1.390 . S
C1225 C1224 1.390 . S
C1225 C1226 1.394 . S
C1225 C1231 1.465 . S
C1226 C1221 1.399 . S
C1226 C1225 1.394 . S
C1226 C1227 1.516 . S
C1227 C1226 1.516 . S
C1227 C1228 1.502 . S
C1227 C1229 1.561 . S
C1227 C1230 1.526 . S
C1228 H1212 0.959 . S
C1228 H1213 0.959 . S
C1228 H1214 0.961 . S
C1228 C1227 1.502 . S
C1229 H1215 0.960 . S
C1229 H1216 0.961 . S
C1229 H1217 0.959 . S
C1229 C1227 1.561 . S
C1230 C1227 1.526 . S
C1230 C1231 1.396 . S
C1230 C1235 1.390 . S
C1231 C1225 1.465 . S
C1231 C1230 1.396 . S
C1231 C1232 1.399 . S
C1232 H1218 0.929 . S
C1232 C1231 1.399 . S
C1232 C1233 1.385 . S
C1233 H1219 0.931 . S
C1233 C1232 1.385 . S
C1233 C1234 1.389 . S
C1234 C1233 1.389 . S
C1234 C1235 1.387 . S
C1235 H1220 0.930 . S
C1235 C1230 1.390 . S
C1235 C1234 1.387 . S
H1236 C1248 0.930 . S
H1237 C1250 0.930 . S
H1238 C1251 0.930 . S
H1239 C1255 0.959 . S
H1240 C1255 0.959 . S
H1241 C1255 0.961 . S
H1242 C1256 0.960 . S
H1243 C1256 0.961 . S
H1244 C1256 0.959 . S
H1245 C1259 0.929 . S
H1246 C1260 0.931 . S
H1247 C1262 0.930 . S
C1248 H1236 0.930 . S
C1248 C1249 1.399 . S
C1248 C1253 1.399 . S
C1249 C1248 1.399 . S
C1249 C1250 1.376 . S
C1250 H1237 0.930 . S
C1250 C1249 1.376 . S
C1250 C1251 1.388 . S
C1251 H1238 0.930 . S
C1251 C1250 1.388 . S
C1251 C1252 1.390 . S
C1252 C1251 1.390 . S
C1252 C1253 1.394 . S
C1252 C1258 1.465 . S
C1253 C1248 1.399 . S
C1253 C1252 1.394 . S
C1253 C1254 1.516 . S
C1254 C1253 1.516 . S
C1254 C1255 1.502 . S
C1254 C1256 1.561 . S
C1254 C1257 1.526 . S
C1255 H1239 0.959 . S
C1255 H1240 0.959 . S
C1255 H1241 0.961 . S
C1255 C1254 1.502 . S
C1256 H1242 0.960 . S
C1256 H1243 0.961 . S
C1256 H1244 0.959 . S
C1256 C1254 1.561 . S
C1257 C1254 1.526 . S
C1257 C1258 1.396 . S
C1257 C1262 1.390 . S
C1258 C1252 1.465 . S
C1258 C1257 1.396 . S
C1258 C1259 1.399 . S
C1259 H1245 0.929 . S
C1259 C1258 1.399 . S
C1259 C1260 1.385 . S
C1260 H1246 0.931 . S
C1260 C1259 1.385 . S
C1260 C1261 1.389 . S
C1261 C1260 1.389 . S
C1261 C1262 1.387 . S
C1262 H1247 0.930 . S
C1262 C1257 1.390 . S
C1262 C1261 1.387 . S
H1263 C1275 0.930 . S
H1264 C1277 0.930 . S
H1265 C1278 0.930 . S
H1266 C1282 0.959 . S
H1267 C1282 0.959 . S
H1268 C1282 0.961 . S
H1269 C1283 0.960 . S
H1270 C1283 0.961 . S
H1271 C1283 0.959 . S
H1272 C1286 0.929 . S
H1273 C1287 0.931 . S
H1274 C1289 0.930 . S
C1275 H1263 0.930 . S
C1275 C1276 1.399 . S
C1275 C1280 1.399 . S
C1276 C1275 1.399 . S
C1276 C1277 1.376 . S
C1277 H1264 0.930 . S
C1277 C1276 1.376 . S
C1277 C1278 1.388 . S
C1278 H1265 0.930 . S
C1278 C1277 1.388 . S
C1278 C1279 1.390 . S
C1279 C1278 1.390 . S
C1279 C1280 1.394 . S
C1279 C1285 1.465 . S
C1280 C1275 1.399 . S
C1280 C1279 1.394 . S
C1280 C1281 1.516 . S
C1281 C1280 1.516 . S
C1281 C1282 1.502 . S
C1281 C1283 1.561 . S
C1281 C1284 1.526 . S
C1282 H1266 0.959 . S
C1282 H1267 0.959 . S
C1282 H1268 0.961 . S
C1282 C1281 1.502 . S
C1283 H1269 0.960 . S
C1283 H1270 0.961 . S
C1283 H1271 0.959 . S
C1283 C1281 1.561 . S
C1284 C1281 1.526 . S
C1284 C1285 1.396 . S
C1284 C1289 1.390 . S
C1285 C1279 1.465 . S
C1285 C1284 1.396 . S
C1285 C1286 1.399 . S
C1286 H1272 0.929 . S
C1286 C1285 1.399 . S
C1286 C1287 1.385 . S
C1287 H1273 0.931 . S
C1287 C1286 1.385 . S
C1287 C1288 1.389 . S
C1288 C1287 1.389 . S
C1288 C1289 1.387 . S
C1289 H1274 0.930 . S
C1289 C1284 1.390 . S
C1289 C1288 1.387 . S
H1290 C1302 0.930 . S
H1291 C1304 0.930 . S
H1292 C1305 0.930 . S
H1293 C1309 0.959 . S
H1294 C1309 0.959 . S
H1295 C1309 0.961 1_556 S
H1296 C1310 0.960 . S
H1297 C1310 0.961 . S
H1298 C1310 0.959 . S
H1299 C1313 0.929 . S
H1300 C1314 0.931 . S
H1301 C1316 0.930 . S
C1302 H1290 0.930 . S
C1302 C1303 1.399 . S
C1302 C1307 1.399 . S
C1303 C1302 1.399 . S
C1303 C1304 1.376 . S
C1304 H1291 0.930 . S
C1304 C1303 1.376 . S
C1304 C1305 1.388 . S
C1305 H1292 0.930 . S
C1305 C1304 1.388 . S
C1305 C1306 1.390 . S
C1306 C1305 1.390 . S
C1306 C1307 1.394 . S
C1306 C1312 1.465 1_556 S
C1307 C1302 1.399 . S
C1307 C1306 1.394 . S
C1307 C1308 1.516 . S
C1308 C1307 1.516 . S
C1308 C1309 1.502 1_556 S
C1308 C1310 1.561 . S
C1308 C1311 1.526 1_556 S
C1309 H1293 0.959 . S
C1309 H1294 0.959 . S
C1309 H1295 0.961 1_554 S
C1309 C1308 1.502 1_554 S
C1310 H1296 0.960 . S
C1310 H1297 0.961 . S
C1310 H1298 0.959 . S
C1310 C1308 1.561 . S
C1311 C1308 1.526 1_554 S
C1311 C1312 1.396 . S
C1311 C1316 1.390 . S
C1312 C1306 1.465 1_554 S
C1312 C1311 1.396 . S
C1312 C1313 1.399 . S
C1313 H1299 0.929 . S
C1313 C1312 1.399 . S
C1313 C1314 1.385 . S
C1314 H1300 0.931 . S
C1314 C1313 1.385 . S
C1314 C1315 1.389 . S
C1315 C1314 1.389 . S
C1315 C1316 1.387 . S
C1316 H1301 0.930 . S
C1316 C1311 1.390 . S
C1316 C1315 1.387 . S
H1317 C1329 0.930 . S
H1318 C1331 0.930 . S
H1319 C1332 0.930 . S
H1320 C1336 0.959 . S
H1321 C1336 0.959 . S
H1322 C1336 0.961 . S
H1323 C1337 0.960 . S
H1324 C1337 0.961 1_655 S
H1325 C1337 0.959 . S
H1326 C1340 0.929 . S
H1327 C1341 0.931 . S
H1328 C1343 0.930 . S
C1329 H1317 0.930 . S
C1329 C1330 1.399 . S
C1329 C1334 1.399 . S
C1330 C1329 1.399 . S
C1330 C1331 1.376 . S
C1331 H1318 0.930 . S
C1331 C1330 1.376 . S
C1331 C1332 1.388 . S
C1332 H1319 0.930 . S
C1332 C1331 1.388 . S
C1332 C1333 1.390 . S
C1333 C1332 1.390 . S
C1333 C1334 1.394 . S
C1333 C1339 1.465 1_455 S
C1334 C1329 1.399 . S
C1334 C1333 1.394 . S
C1334 C1335 1.516 1_455 S
C1335 C1334 1.516 1_655 S
C1335 C1336 1.502 . S
C1335 C1337 1.561 1_655 S
C1335 C1338 1.526 . S
C1336 H1320 0.959 . S
C1336 H1321 0.959 . S
C1336 H1322 0.961 . S
C1336 C1335 1.502 . S
C1337 H1323 0.960 . S
C1337 H1324 0.961 1_455 S
C1337 H1325 0.959 . S
C1337 C1335 1.561 1_455 S
C1338 C1335 1.526 . S
C1338 C1339 1.396 . S
C1338 C1343 1.390 . S
C1339 C1333 1.465 1_655 S
C1339 C1338 1.396 . S
C1339 C1340 1.399 . S
C1340 H1326 0.929 . S
C1340 C1339 1.399 . S
C1340 C1341 1.385 . S
C1341 H1327 0.931 . S
C1341 C1340 1.385 . S
C1341 C1342 1.389 . S
C1342 C1341 1.389 . S
C1342 C1343 1.387 . S
C1343 H1328 0.930 . S
C1343 C1338 1.390 . S
C1343 C1342 1.387 . S
H1344 C1356 0.930 . S
H1345 C1358 0.930 . S
H1346 C1359 0.930 . S
H1347 C1363 0.959 . S
H1348 C1363 0.959 . S
H1349 C1363 0.961 . S
H1350 C1364 0.960 . S
H1351 C1364 0.961 . S
H1352 C1364 0.959 . S
H1353 C1367 0.929 1_565 S
H1354 C1368 0.931 . S
H1355 C1370 0.930 . S
C1356 H1344 0.930 . S
C1356 C1357 1.399 . S
C1356 C1361 1.399 . S
C1357 C1356 1.399 . S
C1357 C1358 1.376 . S
C1358 H1345 0.930 . S
C1358 C1357 1.376 . S
C1358 C1359 1.388 1_554 S
C1359 H1346 0.930 . S
C1359 C1358 1.388 1_556 S
C1359 C1360 1.390 . S
C1360 C1359 1.390 . S
C1360 C1361 1.394 1_556 S
C1360 C1366 1.465 1_565 S
C1361 C1356 1.399 . S
C1361 C1360 1.394 1_554 S
C1361 C1362 1.516 1_565 S
C1362 C1361 1.516 1_545 S
C1362 C1363 1.502 . S
C1362 C1364 1.561 . S
C1362 C1365 1.526 1_554 S
C1363 H1347 0.959 . S
C1363 H1348 0.959 . S
C1363 H1349 0.961 . S
C1363 C1362 1.502 . S
C1364 H1350 0.960 . S
C1364 H1351 0.961 . S
C1364 H1352 0.959 . S
C1364 C1362 1.561 . S
C1365 C1362 1.526 1_556 S
C1365 C1366 1.396 . S
C1365 C1370 1.390 . S
C1366 C1360 1.465 1_545 S
C1366 C1365 1.396 . S
C1366 C1367 1.399 . S
C1367 H1353 0.929 1_545 S
C1367 C1366 1.399 . S
C1367 C1368 1.385 . S
C1368 H1354 0.931 . S
C1368 C1367 1.385 . S
C1368 C1369 1.389 . S
C1369 C1368 1.389 . S
C1369 C1370 1.387 . S
C1370 H1355 0.930 . S
C1370 C1365 1.390 . S
C1370 C1369 1.387 . S
H1371 C1383 0.930 . S
H1372 C1385 0.930 . S
H1373 C1386 0.930 . S
H1374 C1390 0.959 . S
H1375 C1390 0.959 . S
H1376 C1390 0.961 . S
H1377 C1391 0.960 . S
H1378 C1391 0.961 . S
H1379 C1391 0.959 . S
H1380 C1394 0.929 . S
H1381 C1395 0.931 . S
H1382 C1397 0.930 . S
C1383 H1371 0.930 . S
C1383 C1384 1.399 . S
C1383 C1388 1.399 . S
C1384 C1383 1.399 . S
C1384 C1385 1.376 . S
C1385 H1372 0.930 . S
C1385 C1384 1.376 . S
C1385 C1386 1.388 . S
C1386 H1373 0.930 . S
C1386 C1385 1.388 . S
C1386 C1387 1.390 . S
C1387 C1386 1.390 . S
C1387 C1388 1.394 . S
C1387 C1393 1.465 . S
C1388 C1383 1.399 . S
C1388 C1387 1.394 . S
C1388 C1389 1.516 . S
C1389 C1388 1.516 . S
C1389 C1390 1.502 . S
C1389 C1391 1.561 . S
C1389 C1392 1.526 . S
C1390 H1374 0.959 . S
C1390 H1375 0.959 . S
C1390 H1376 0.961 . S
C1390 C1389 1.502 . S
C1391 H1377 0.960 . S
C1391 H1378 0.961 . S
C1391 H1379 0.959 . S
C1391 C1389 1.561 . S
C1392 C1389 1.526 . S
C1392 C1393 1.396 . S
C1392 C1397 1.390 . S
C1393 C1387 1.465 . S
C1393 C1392 1.396 . S
C1393 C1394 1.399 . S
C1394 H1380 0.929 . S
C1394 C1393 1.399 . S
C1394 C1395 1.385 . S
C1395 H1381 0.931 . S
C1395 C1394 1.385 . S
C1395 C1396 1.389 . S
C1396 C1395 1.389 . S
C1396 C1397 1.387 . S
C1397 H1382 0.930 . S
C1397 C1392 1.390 . S
C1397 C1396 1.387 . S
H1398 C1410 0.930 . S
H1399 C1412 0.930 . S
H1400 C1413 0.930 . S
H1401 C1417 0.959 . S
H1402 C1417 0.959 . S
H1403 C1417 0.961 . S
H1404 C1418 0.960 . S
H1405 C1418 0.961 . S
H1406 C1418 0.996 . S
H1407 C1421 0.929 1_655 S
H1408 C1422 0.931 . S
H1409 C1424 0.930 . S
C1410 H1398 0.930 . S
C1410 C1411 1.399 . S
C1410 C1415 1.399 . S
C1411 C1410 1.399 . S
C1411 C1412 1.376 . S
C1412 H1399 0.930 . S
C1412 C1411 1.376 . S
C1412 C1413 1.388 1_556 S
C1413 H1400 0.930 . S
C1413 C1412 1.388 1_554 S
C1413 C1414 1.390 . S
C1414 C1413 1.390 . S
C1414 C1415 1.394 1_554 S
C1414 C1420 1.465 1_655 S
C1415 C1410 1.399 . S
C1415 C1414 1.394 1_556 S
C1415 C1416 1.516 1_655 S
C1416 C1415 1.516 1_455 S
C1416 C1417 1.502 . S
C1416 C1418 1.561 . S
C1416 C1419 1.526 1_556 S
C1417 H1401 0.959 . S
C1417 H1402 0.959 . S
C1417 H1403 0.961 . S
C1417 C1416 1.502 . S
C1418 H1404 0.960 . S
C1418 H1405 0.961 . S
C1418 H1406 0.996 . S
C1418 C1416 1.561 . S
C1419 C1416 1.526 1_554 S
C1419 C1420 1.396 . S
C1419 C1424 1.390 . S
C1420 C1414 1.465 1_455 S
C1420 C1419 1.396 . S
C1420 C1421 1.399 . S
C1421 H1407 0.929 1_455 S
C1421 C1420 1.399 . S
C1421 C1422 1.385 . S
C1422 H1408 0.931 . S
C1422 C1421 1.385 . S
C1422 C1423 1.389 . S
C1423 C1422 1.389 . S
C1423 C1424 1.387 . S
C1424 H1409 0.930 . S
C1424 C1419 1.390 . S
C1424 C1423 1.387 . S
H1425 C1437 0.930 . S
H1426 C1439 0.930 . S
H1427 C1440 0.930 1_545 S
H1428 C1444 0.959 . S
H1429 C1444 0.959 . S
H1430 C1444 0.961 . S
H1431 C1445 0.960 . S
H1432 C1445 0.961 . S
H1433 C1445 0.959 . S
H1434 C1448 0.929 . S
H1435 C1449 0.931 . S
H1436 C1451 0.930 . S
C1437 H1425 0.930 . S
C1437 C1438 1.399 . S
C1437 C1442 1.399 . S
C1438 C1437 1.399 . S
C1438 C1439 1.376 . S
C1439 H1426 0.930 . S
C1439 C1438 1.376 . S
C1439 C1440 1.388 . S
C1440 H1427 0.930 1_565 S
C1440 C1439 1.388 . S
C1440 C1441 1.390 . S
C1441 C1440 1.390 . S
C1441 C1442 1.394 . S
C1441 C1447 1.465 1_565 S
C1442 C1437 1.399 . S
C1442 C1441 1.394 . S
C1442 C1443 1.516 . S
C1443 C1442 1.516 . S
C1443 C1444 1.502 . S
C1443 C1445 1.561 . S
C1443 C1446 1.526 1_565 S
C1444 H1428 0.959 . S
C1444 H1429 0.959 . S
C1444 H1430 0.961 . S
C1444 C1443 1.502 . S
C1445 H1431 0.960 . S
C1445 H1432 0.961 . S
C1445 H1433 0.959 . S
C1445 C1443 1.561 . S
C1446 C1443 1.526 1_545 S
C1446 C1447 1.396 . S
C1446 C1451 1.390 . S
C1447 C1441 1.465 1_545 S
C1447 C1446 1.396 . S
C1447 C1448 1.399 . S
C1448 H1434 0.929 . S
C1448 C1447 1.399 . S
C1448 C1449 1.385 . S
C1449 H1435 0.931 . S
C1449 C1448 1.385 . S
C1449 C1450 1.389 . S
C1450 C1449 1.389 . S
C1450 C1451 1.387 . S
C1451 H1436 0.930 . S
C1451 C1446 1.390 . S
C1451 C1450 1.387 . S
C493 C172 1.297 . S
C505 C29 1.314 . S
C520 C212 1.268 . S
C532 C69 1.299 . S
C547 C109 1.310 . S
C559 C12 1.272 . S
C574 C149 1.309 . S
C586 C52 1.270 . S
C601 C189 1.293 . S
C613 C92 1.298 . S
C628 C132 1.292 . S
C640 C229 1.293 . S
C655 C332 1.272 . S
C667 C269 1.296 . S
C682 C309 1.306 . S
C694 C372 1.316 . S
C709 C412 1.288 . S
C721 C349 1.293 . S
C736 C389 1.294 . S
C748 C452 1.304 . S
C763 C429 1.297 . S
C775 C252 1.312 . S
C790 C292 1.293 . S
C802 C469 1.293 . S
C817 C191 1.728 . S
C829 C8 1.706 . S
C844 C48 1.667 . S
C856 C231 1.746 . S
C871 C88 1.664 . S
C883 C31 1.747 . S
C898 C128 1.662 . S
C910 C71 1.748 . S
C925 C111 1.720 . S
C937 C168 1.718 . S
C952 C151 1.721 . S
C964 C208 1.715 . S
C979 C351 1.737 . S
C991 C248 1.682 . S
C1006 C288 1.719 . S
C1018 C391 1.720 . S
C1033 C328 1.722 . S
C1045 C431 1.719 . S
C1060 C471 1.737 . S
C1072 C368 1.682 . S
C1087 C408 1.667 . S
C1099 C271 1.746 . S
C1114 C311 1.736 . S
C1126 C448 1.689 . S
C1141 C402 1.634 . S
C1153 C2 1.669 . S
C1168 C42 1.595 . S
C1180 C442 1.678 . S
C1195 C82 1.603 . S
C1207 C242 1.650 . S
C1222 C122 1.623 . S
C1234 C282 1.676 . S
C1249 C162 1.594 . S
C1261 C322 1.676 . S
C1276 C362 1.594 . S
C1288 C202 1.675 . S
C1303 C377 2.136 . S
C1315 C17 2.139 . S
C1330 C417 2.150 . S
C1342 C57 2.135 . S
C1357 C97 2.146 . S
C1369 C457 2.131 . S
C1384 C137 2.150 . S
C1396 C257 2.134 . S
C1411 C297 2.151 . S
C1423 C177 2.132 . S
C1438 C337 2.131 . S
C1450 C217 2.151 . S
