# Generated by pormake.
# Topology ecc, (8)-cn, num edge types: 1
# Building blocks:
#     Node 0, Type 0, BuildingBlock: EBIMEJ_clean_sbu_0, # of connection points: 8
#     Node 1, Type 0, BuildingBlock: EBIMEJ_clean_sbu_0, # of connection points: 8
#     Node 2, Type 0, BuildingBlock: EBIMEJ_clean_sbu_0, # of connection points: 8
#     Node 3, Type 0, BuildingBlock: EBIMEJ_clean_sbu_0, # of connection points: 8
#     Node 4, Type 0, BuildingBlock: EBIMEJ_clean_sbu_0, # of connection points: 8
#     Node 5, Type 0, BuildingBlock: EBIMEJ_clean_sbu_0, # of connection points: 8
#     Node 6, Type 0, BuildingBlock: EBIMEJ_clean_sbu_0, # of connection points: 8
#     Node 7, Type 0, BuildingBlock: EBIMEJ_clean_sbu_0, # of connection points: 8
#     Node 8, Type 0, BuildingBlock: EBIMEJ_clean_sbu_0, # of connection points: 8
#     Node 9, Type 0, BuildingBlock: EBIMEJ_clean_sbu_0, # of connection points: 8
#     Node 10, Type 0, BuildingBlock: EBIMEJ_clean_sbu_0, # of connection points: 8
#     Node 11, Type 0, BuildingBlock: EBIMEJ_clean_sbu_0, # of connection points: 8
#     Node 12, Type 0, BuildingBlock: EBIMEJ_clean_sbu_0, # of connection points: 8
#     Node 13, Type 0, BuildingBlock: EBIMEJ_clean_sbu_0, # of connection points: 8
#     Node 14, Type 0, BuildingBlock: EBIMEJ_clean_sbu_0, # of connection points: 8
#     Node 15, Type 0, BuildingBlock: EBIMEJ_clean_sbu_0, # of connection points: 8
#     Node 16, Type 0, BuildingBlock: EBIMEJ_clean_sbu_0, # of connection points: 8
#     Node 17, Type 0, BuildingBlock: EBIMEJ_clean_sbu_0, # of connection points: 8
#     Edge 18, Type (0, 0), BuildingBlock: OJICUG_clean_linker_0, # of connection points: 2
#     Edge 19, Type (0, 0), BuildingBlock: OJICUG_clean_linker_0, # of connection points: 2
#     Edge 20, Type (0, 0), BuildingBlock: OJICUG_clean_linker_0, # of connection points: 2
#     Edge 21, Type (0, 0), BuildingBlock: OJICUG_clean_linker_0, # of connection points: 2
#     Edge 22, Type (0, 0), BuildingBlock: OJICUG_clean_linker_0, # of connection points: 2
#     Edge 23, Type (0, 0), BuildingBlock: OJICUG_clean_linker_0, # of connection points: 2
#     Edge 24, Type (0, 0), BuildingBlock: OJICUG_clean_linker_0, # of connection points: 2
#     Edge 25, Type (0, 0), BuildingBlock: OJICUG_clean_linker_0, # of connection points: 2
#     Edge 26, Type (0, 0), BuildingBlock: OJICUG_clean_linker_0, # of connection points: 2
#     Edge 27, Type (0, 0), BuildingBlock: OJICUG_clean_linker_0, # of connection points: 2
#     Edge 28, Type (0, 0), BuildingBlock: OJICUG_clean_linker_0, # of connection points: 2
#     Edge 29, Type (0, 0), BuildingBlock: OJICUG_clean_linker_0, # of connection points: 2
#     Edge 30, Type (0, 0), BuildingBlock: OJICUG_clean_linker_0, # of connection points: 2
#     Edge 31, Type (0, 0), BuildingBlock: OJICUG_clean_linker_0, # of connection points: 2
#     Edge 32, Type (0, 0), BuildingBlock: OJICUG_clean_linker_0, # of connection points: 2
#     Edge 33, Type (0, 0), BuildingBlock: OJICUG_clean_linker_0, # of connection points: 2
#     Edge 34, Type (0, 0), BuildingBlock: OJICUG_clean_linker_0, # of connection points: 2
#     Edge 35, Type (0, 0), BuildingBlock: OJICUG_clean_linker_0, # of connection points: 2
#     Edge 36, Type (0, 0), BuildingBlock: OJICUG_clean_linker_0, # of connection points: 2
#     Edge 37, Type (0, 0), BuildingBlock: OJICUG_clean_linker_0, # of connection points: 2
#     Edge 38, Type (0, 0), BuildingBlock: OJICUG_clean_linker_0, # of connection points: 2
#     Edge 39, Type (0, 0), BuildingBlock: OJICUG_clean_linker_0, # of connection points: 2
#     Edge 40, Type (0, 0), BuildingBlock: OJICUG_clean_linker_0, # of connection points: 2
#     Edge 41, Type (0, 0), BuildingBlock: OJICUG_clean_linker_0, # of connection points: 2
#     Edge 42, Type (0, 0), BuildingBlock: OJICUG_clean_linker_0, # of connection points: 2
#     Edge 43, Type (0, 0), BuildingBlock: OJICUG_clean_linker_0, # of connection points: 2
#     Edge 44, Type (0, 0), BuildingBlock: OJICUG_clean_linker_0, # of connection points: 2
#     Edge 45, Type (0, 0), BuildingBlock: OJICUG_clean_linker_0, # of connection points: 2
#     Edge 46, Type (0, 0), BuildingBlock: OJICUG_clean_linker_0, # of connection points: 2
#     Edge 47, Type (0, 0), BuildingBlock: OJICUG_clean_linker_0, # of connection points: 2
#     Edge 48, Type (0, 0), BuildingBlock: OJICUG_clean_linker_0, # of connection points: 2
#     Edge 49, Type (0, 0), BuildingBlock: OJICUG_clean_linker_0, # of connection points: 2
#     Edge 50, Type (0, 0), BuildingBlock: OJICUG_clean_linker_0, # of connection points: 2
#     Edge 51, Type (0, 0), BuildingBlock: OJICUG_clean_linker_0, # of connection points: 2
#     Edge 52, Type (0, 0), BuildingBlock: OJICUG_clean_linker_0, # of connection points: 2
#     Edge 53, Type (0, 0), BuildingBlock: OJICUG_clean_linker_0, # of connection points: 2
#     Edge 54, Type (0, 0), BuildingBlock: OJICUG_clean_linker_0, # of connection points: 2
#     Edge 55, Type (0, 0), BuildingBlock: OJICUG_clean_linker_0, # of connection points: 2
#     Edge 56, Type (0, 0), BuildingBlock: OJICUG_clean_linker_0, # of connection points: 2
#     Edge 57, Type (0, 0), BuildingBlock: OJICUG_clean_linker_0, # of connection points: 2
#     Edge 58, Type (0, 0), BuildingBlock: OJICUG_clean_linker_0, # of connection points: 2
#     Edge 59, Type (0, 0), BuildingBlock: OJICUG_clean_linker_0, # of connection points: 2
#     Edge 60, Type (0, 0), BuildingBlock: OJICUG_clean_linker_0, # of connection points: 2
#     Edge 61, Type (0, 0), BuildingBlock: OJICUG_clean_linker_0, # of connection points: 2
#     Edge 62, Type (0, 0), BuildingBlock: OJICUG_clean_linker_0, # of connection points: 2
#     Edge 63, Type (0, 0), BuildingBlock: OJICUG_clean_linker_0, # of connection points: 2
#     Edge 64, Type (0, 0), BuildingBlock: OJICUG_clean_linker_0, # of connection points: 2
#     Edge 65, Type (0, 0), BuildingBlock: OJICUG_clean_linker_0, # of connection points: 2
#     Edge 66, Type (0, 0), BuildingBlock: OJICUG_clean_linker_0, # of connection points: 2
#     Edge 67, Type (0, 0), BuildingBlock: OJICUG_clean_linker_0, # of connection points: 2
#     Edge 68, Type (0, 0), BuildingBlock: OJICUG_clean_linker_0, # of connection points: 2
#     Edge 69, Type (0, 0), BuildingBlock: OJICUG_clean_linker_0, # of connection points: 2
#     Edge 70, Type (0, 0), BuildingBlock: OJICUG_clean_linker_0, # of connection points: 2
#     Edge 71, Type (0, 0), BuildingBlock: OJICUG_clean_linker_0, # of connection points: 2
#     Edge 72, Type (0, 0), BuildingBlock: OJICUG_clean_linker_0, # of connection points: 2
#     Edge 73, Type (0, 0), BuildingBlock: OJICUG_clean_linker_0, # of connection points: 2
#     Edge 74, Type (0, 0), BuildingBlock: OJICUG_clean_linker_0, # of connection points: 2
#     Edge 75, Type (0, 0), BuildingBlock: OJICUG_clean_linker_0, # of connection points: 2
#     Edge 76, Type (0, 0), BuildingBlock: OJICUG_clean_linker_0, # of connection points: 2
#     Edge 77, Type (0, 0), BuildingBlock: OJICUG_clean_linker_0, # of connection points: 2
#     Edge 78, Type (0, 0), BuildingBlock: OJICUG_clean_linker_0, # of connection points: 2
#     Edge 79, Type (0, 0), BuildingBlock: OJICUG_clean_linker_0, # of connection points: 2
#     Edge 80, Type (0, 0), BuildingBlock: OJICUG_clean_linker_0, # of connection points: 2
#     Edge 81, Type (0, 0), BuildingBlock: OJICUG_clean_linker_0, # of connection points: 2
#     Edge 82, Type (0, 0), BuildingBlock: OJICUG_clean_linker_0, # of connection points: 2
#     Edge 83, Type (0, 0), BuildingBlock: OJICUG_clean_linker_0, # of connection points: 2
#     Edge 84, Type (0, 0), BuildingBlock: OJICUG_clean_linker_0, # of connection points: 2
#     Edge 85, Type (0, 0), BuildingBlock: OJICUG_clean_linker_0, # of connection points: 2
#     Edge 86, Type (0, 0), BuildingBlock: OJICUG_clean_linker_0, # of connection points: 2
#     Edge 87, Type (0, 0), BuildingBlock: OJICUG_clean_linker_0, # of connection points: 2
#     Edge 88, Type (0, 0), BuildingBlock: OJICUG_clean_linker_0, # of connection points: 2
#     Edge 89, Type (0, 0), BuildingBlock: OJICUG_clean_linker_0, # of connection points: 2
# Relax obj value: 0.333
# Max RMSD: 0.289
# Mean RMSD: 0.289
data_MOF--net-ecc--node1-EBIMEJ_clean_sbu_0--edge1-OJICUG_clean_linker_0
_symmetry_space_group_name_H-M    P1
_symmetry_Int_Tables_number       1
_symmetry_cell_setting            triclinic
loop_
_symmetry_equiv_pos_as_xyz
'x, y, z'
_cell_length_a     46.275578
_cell_length_b     46.29849
_cell_length_c     19.547844
_cell_angle_alpha  89.94359
_cell_angle_beta   89.997089
_cell_angle_gamma 120.1314
loop_
_atom_site_label
_atom_site_type_symbol
_atom_site_fract_x
_atom_site_fract_y
_atom_site_fract_z
_atom_type_partial_charge
Co0 Co 0.14654 1.0168 0.70616 0.0
Co1 Co 0.19258 0.04367 0.83608 0.0
Co2 Co 0.20999 1.0096 0.72771 0.0
H3 H 0.1773 1.01115 0.73526 0.0
O4 O 0.169 1.0055 0.77563 0.0
H5 H 0.22425 0.03897 0.83856 0.0
O6 O 0.23407 0.04403 0.79917 0.0
Co7 Co 0.25266 0.03288 0.88112 0.0
O8 O 0.24888 0.06518 0.953 0.0
O9 O 0.21699 0.08146 0.8983 0.0
O10 O 0.27208 1.01247 0.80929 0.0
O11 O 0.25129 1.01021 0.70286 0.0
O12 O 0.10068 1.01301 0.70359 0.0
O13 O 0.10877 0.98052 0.764 0.0
O14 O 0.21171 0.99004 0.91553 0.0
O15 O 0.17651 1.00962 0.91266 0.0
C16 C 0.15727 0.96913 0.62018 0.0
C17 C 0.14783 0.06474 0.80237 0.0
C18 C 0.30769 0.05549 0.94238 0.0
C19 C 0.20807 0.06387 0.63506 0.0
C20 C 0.2357 0.08398 0.94803 0.0
C21 C 0.27151 1.00754 0.74362 0.0
C22 C 0.08844 0.98952 0.74624 0.0
C23 C 0.18347 0.98713 0.93035 0.0
O24 O 0.14186 0.98504 0.63113 0.0
O25 O 0.1835 0.9746 0.65414 0.0
O26 O 0.15294 0.04894 0.84992 0.0
O27 O 0.15257 0.06058 0.73989 0.0
O28 O 0.27972 0.04205 0.97162 0.0
O29 O 0.30427 0.05567 0.87865 0.0
O30 O 0.17787 0.05486 0.64801 0.0
O31 O 0.22249 0.04847 0.65984 0.0
Co32 Co 0.05217 0.16267 0.70381 0.0
Co33 Co 1.02111 0.17976 0.83487 0.0
Co34 Co 0.05783 0.23166 0.72754 0.0
H35 H 0.05617 0.19774 0.73587 0.0
O36 O 0.06042 0.19416 0.77678 0.0
H37 H 1.02715 0.21663 0.83778 0.0
O38 O 1.02289 0.22182 0.79799 0.0
Co39 Co 0.03346 0.25108 0.88045 0.0
O40 O 1.00067 0.21492 0.95203 0.0
O41 O 0.98268 0.16697 0.8953 0.0
O42 O 0.05388 0.2907 0.80757 0.0
O43 O 0.05792 0.27244 0.70198 0.0
O44 O 0.05496 0.12039 0.72086 0.0
O45 O 0.09449 0.16712 0.74774 0.0
O46 O 0.07553 0.25141 0.91459 0.0
O47 O 0.05441 0.19624 0.91327 0.0
C48 C 0.09981 0.22007 0.61989 0.0
C49 C 0.99931 0.11871 0.7885 0.0
C50 C 1.01132 0.28373 0.94235 0.0
C51 C 1.00683 0.17692 0.62644 0.0
C52 C 0.98083 0.18307 0.94594 0.0
C53 C 0.05984 0.29519 0.74213 0.0
C54 C 0.08303 0.13621 0.74886 0.0
C55 C 0.07756 0.22566 0.93038 0.0
O56 O 0.08396 0.18862 0.62905 0.0
O57 O 0.09375 0.24023 0.65483 0.0
O58 O 1.01291 0.1335 0.8443 0.0
O59 O 1.00456 0.13635 0.73553 0.0
O60 O 1.02397 0.26844 0.97134 0.0
O61 O 1.0117 0.28078 0.87852 0.0
O62 O 1.01778 0.15697 0.63573 0.0
O63 O 1.01911 0.20506 0.65859 0.0
Co64 Co 0.90253 0.91961 0.70295 0.0
Co65 Co 0.88573 0.87497 0.83506 0.0
Co66 Co 0.83371 0.8553 0.72612 0.0
H67 H 0.86706 0.88843 0.73367 0.0
O68 O 0.8698 0.89703 0.77374 0.0
H69 H 0.84968 0.84252 0.83784 0.0
O70 O 0.84521 0.83251 0.79867 0.0
Co71 Co 0.81527 0.81362 0.8804 0.0
O72 O 0.85175 0.8165 0.94992 0.0
O73 O 0.90016 0.85194 0.89873 0.0
O74 O 0.77524 0.79383 0.80904 0.0
O75 O 0.79382 0.81324 0.70186 0.0
O76 O 0.93019 0.96805 0.67382 0.0
O77 O 0.90902 0.95576 0.77161 0.0
O78 O 0.81252 0.85366 0.91693 0.0
O79 O 0.86698 0.89067 0.91068 0.0
C80 C 0.8444 0.90643 0.61517 0.0
C81 C 0.95142 0.92427 0.79995 0.0
C82 C 0.78226 0.75915 0.94327 0.0
C83 C 0.89171 0.85857 0.63737 0.0
C84 C 0.88396 0.83137 0.94619 0.0
C85 C 0.77087 0.79356 0.74324 0.0
C86 C 0.92684 0.97871 0.73068 0.0
C87 C 0.8374 0.8825 0.93023 0.0
O88 O 0.87585 0.92206 0.62477 0.0
O89 O 0.82403 0.8808 0.65149 0.0
O90 O 0.93016 0.91587 0.8484 0.0
O91 O 0.94228 0.91777 0.73786 0.0
O92 O 0.78446 0.76225 0.87932 0.0
O93 O 0.79857 0.78713 0.97183 0.0
O94 O 0.91247 0.88861 0.65238 0.0
O95 O 0.86114 0.8439 0.65854 0.0
Co96 Co 0.81413 0.03207 0.17329 0.0
Co97 Co 0.85688 0.05491 0.32573 0.0
Co98 Co 0.87386 0.02053 0.21661 0.0
H99 H 0.84225 0.02532 0.21509 0.0
O100 O 0.8325 0.02025 0.25459 0.0
H101 H 0.88936 0.05368 0.31677 0.0
O102 O 0.89756 0.059 0.27624 0.0
Co103 Co 0.92024 0.04882 0.34662 0.0
O104 O 0.92452 0.07892 0.42432 0.0
O105 O 0.88404 0.09058 0.39856 0.0
O106 O 0.91552 1.00584 0.31254 0.0
O107 O 0.9138 1.01569 0.20187 0.0
O108 O 0.78766 0.02301 0.08208 0.0
O109 O 0.76274 1.01119 0.17471 0.0
O110 O 0.88862 1.00768 0.39664 0.0
O111 O 0.84508 1.01612 0.3942 0.0
C112 C 0.82943 0.97965 0.10658 0.0
C113 C 0.79572 0.05741 0.31117 0.0
C114 C 0.97949 0.08446 0.31941 0.0
C115 C 0.8831 0.07738 0.12313 0.0
C116 C 0.90981 0.09556 0.43389 0.0
C117 C 0.92195 1.00282 0.25061 0.0
C118 C 0.75965 1.01087 0.11082 0.0
C119 C 0.85901 0.99929 0.41366 0.0
O120 O 0.81656 0.99874 0.1023 0.0
O121 O 0.84907 0.98251 0.15475 0.0
O122 O 0.81571 0.05423 0.35171 0.0
O123 O 0.79515 0.0527 0.24544 0.0
O124 O 0.96861 0.07235 0.3777 0.0
O125 O 0.95668 0.07674 0.27653 0.0
O126 O 0.85524 0.07497 0.13945 0.0
O127 O 0.88955 0.05436 0.13941 0.0
Co128 Co 0.03367 0.81379 0.1735 0.0
Co129 Co 1.0109 0.83342 0.32704 0.0
Co130 Co 0.04493 0.88486 0.21806 0.0
H131 H 0.04008 0.84842 0.21583 0.0
O132 O 0.04522 0.84376 0.25521 0.0
H133 H 1.01204 0.8674 0.31873 0.0
O134 O 1.00651 0.86995 0.27818 0.0
Co135 Co 1.01705 0.90363 0.34735 0.0
O136 O 0.98572 0.87666 0.42321 0.0
O137 O 0.97592 0.82473 0.401 0.0
O138 O 0.06061 0.9421 0.31409 0.0
O139 O 0.05019 0.92979 0.20379 0.0
O140 O 0.04103 0.79457 0.08283 0.0
O141 O 0.0571 0.78569 0.17492 0.0
O142 O 0.05495 0.91108 0.40635 0.0
O143 O 0.0499 0.86062 0.39436 0.0
C144 C 0.08562 0.88187 0.10702 0.0
C145 C 1.00878 0.76994 0.31169 0.0
C146 C 0.98907 0.93341 0.30636 0.0
C147 C 0.98847 0.83747 0.12347 0.0
C148 C 0.97018 0.84533 0.43477 0.0
C149 C 0.06518 0.9509 0.25152 0.0
C150 C 0.05548 0.78095 0.11142 0.0
C151 C 0.06465 0.89048 0.41928 0.0
O152 O 0.06667 0.84984 0.1023 0.0
O153 O 0.08287 0.89829 0.156 0.0
O154 O 1.01185 0.79297 0.35249 0.0
O155 O 1.01332 0.77417 0.24592 0.0
O156 O 1.01211 0.94493 0.34997 0.0
O157 O 0.98091 0.90435 0.28799 0.0
O158 O 0.99096 0.81196 0.13876 0.0
O159 O 1.01119 0.8669 0.14107 0.0
Co160 Co 0.2525 0.25146 0.17091 0.0
Co161 Co 0.23438 0.20865 0.3249 0.0
Co162 Co 0.1816 0.19201 0.21905 0.0
H163 H 0.21836 0.22317 0.21464 0.0
O164 O 0.22376 0.23291 0.2541 0.0
H165 H 0.20047 0.17599 0.31794 0.0
O166 O 0.19675 0.16788 0.27729 0.0
Co167 Co 0.16543 0.14481 0.35066 0.0
O168 O 0.19213 0.13982 0.42479 0.0
O169 O 0.24354 0.1822 0.39847 0.0
O170 O 0.13762 0.16456 0.32062 0.0
O171 O 0.13528 0.15352 0.21164 0.0
O172 O 0.28216 0.303 0.17346 0.0
O173 O 0.26959 0.27873 0.08029 0.0
O174 O 0.16012 0.17401 0.41801 0.0
O175 O 0.20808 0.22088 0.39361 0.0
C176 C 0.18384 0.23456 0.10671 0.0
C177 C 0.29741 0.2708 0.30802 0.0
C178 C 0.13787 0.08731 0.30599 0.0
C179 C 0.22724 0.1816 0.12284 0.0
C180 C 0.22359 0.15597 0.43384 0.0
C181 C 0.12029 0.15257 0.2671 0.0
C182 C 0.28493 0.30659 0.10966 0.0
C183 C 0.18009 0.20505 0.42631 0.0
O184 O 0.21575 0.24705 0.09994 0.0
O185 O 0.16813 0.21686 0.1581 0.0
O186 O 0.27508 0.24992 0.34904 0.0
O187 O 0.29259 0.2716 0.24256 0.0
O188 O 0.12267 0.09965 0.33608 0.0
O189 O 0.16882 0.10679 0.30475 0.0
O190 O 0.25291 0.20976 0.13723 0.0
O191 O 0.19781 0.17493 0.14086 0.0
Co192 Co 0.81223 0.34692 0.03712 0.0
Co193 Co 0.86067 0.37871 0.16742 0.0
Co194 Co 0.8763 0.34221 0.06042 0.0
H195 H 0.84375 0.34342 0.06875 0.0
O196 O 0.83594 0.33922 0.10969 0.0
H197 H 0.89143 0.37262 0.17074 0.0
O198 O 0.90112 0.377 0.13117 0.0
Co199 Co 0.9192 0.36582 0.21353 0.0
O200 O 0.91606 0.39876 0.28448 0.0
O201 O 0.88639 0.41722 0.22803 0.0
O202 O 0.93857 0.34549 0.14131 0.0
O203 O 0.91736 0.34255 0.03495 0.0
O204 O 0.76706 0.34389 0.05428 0.0
O205 O 0.7747 0.3049 0.08298 0.0
O206 O 0.87714 0.32381 0.24675 0.0
O207 O 0.84369 0.34554 0.24613 0.0
C208 C 0.82288 0.30021 0.95228 0.0
C209 C 0.82043 0.4001 0.12034 0.0
C210 C 0.97373 0.3874 0.2761 0.0
C211 C 0.87211 0.39302 0.96042 0.0
C212 C 0.90457 0.41897 0.27829 0.0
C213 C 0.9378 0.34023 0.07572 0.0
C214 C 0.75509 0.31615 0.0836 0.0
C215 C 0.84956 0.32211 0.26284 0.0
O216 O 0.80668 0.31533 0.96236 0.0
O217 O 0.84935 0.30667 0.98685 0.0
O218 O 0.8224 0.38683 0.17609 0.0
O219 O 0.83213 0.39467 0.06654 0.0
O220 O 0.9457 0.37503 0.3048 0.0
O221 O 0.97064 0.38703 0.21222 0.0
O222 O 0.84107 0.3816 0.96953 0.0
O223 O 0.88828 0.38102 0.99222 0.0
Co224 Co 0.71684 0.4965 0.04001 0.0
Co225 Co 0.68872 0.51413 0.17044 0.0
Co226 Co 0.72305 0.5661 0.06214 0.0
H227 H 0.72183 0.53229 0.0702 0.0
O228 O 0.72721 0.52934 0.11059 0.0
H229 H 0.6934 0.5505 0.17274 0.0
O230 O 0.68833 0.55529 0.1334 0.0
Co231 Co 0.69998 0.58517 0.2152 0.0
O232 O 0.66724 0.54894 0.28646 0.0
O233 O 0.65073 0.50048 0.2325 0.0
O234 O 0.72028 0.62507 0.14352 0.0
O235 O 0.72219 0.60654 0.03698 0.0
O236 O 0.73817 0.46949 1.00978 0.0
O237 O 0.74572 0.48874 0.10893 0.0
O238 O 0.74298 0.58719 0.24844 0.0
O239 O 0.72244 0.53223 0.24744 0.0
C240 C 0.76304 0.55434 0.95233 0.0
C241 C 0.67131 0.44812 0.13675 0.0
C242 C 0.67836 0.61811 0.27732 0.0
C243 C 0.66758 0.50879 0.97365 0.0
C244 C 0.64818 0.51693 0.28165 0.0
C245 C 0.72494 0.62941 0.07782 0.0
C246 C 0.75156 0.47185 0.06704 0.0
C247 C 0.74544 0.5617 0.26394 0.0
O248 O 0.74638 0.52289 0.96172 0.0
O249 O 0.75849 0.57507 0.98868 0.0
O250 O 0.68411 0.46943 0.18501 0.0
O251 O 0.67456 0.45715 0.07446 0.0
O252 O 0.69126 0.60303 0.30619 0.0
O253 O 0.67815 0.61473 0.21353 0.0
O254 O 0.67581 0.48741 0.99002 0.0
O255 O 0.68444 0.53945 0.99371 0.0
Co256 Co 0.57278 0.25366 0.04077 0.0
Co257 Co 0.55281 0.20719 0.17058 0.0
Co258 Co 0.50189 0.19034 0.06092 0.0
H259 H 0.53619 0.22289 0.06935 0.0
O260 O 0.5387 0.23104 0.1098 0.0
H261 H 0.51625 0.17558 0.17224 0.0
O262 O 0.51165 0.16592 0.13271 0.0
Co263 Co 0.48145 0.14708 0.21418 0.0
O264 O 0.51704 0.14968 0.28581 0.0
O265 O 0.56573 0.18245 0.23305 0.0
O266 O 0.44205 0.12816 0.14143 0.0
O267 O 0.46107 0.14922 0.03526 0.0
O268 O 0.61471 0.29974 0.04137 0.0
O269 O 0.57255 0.29073 0.09745 0.0
O270 O 0.47971 0.18788 0.24983 0.0
O271 O 0.53463 0.22318 0.2469 0.0
C272 C 0.51496 0.24363 0.95376 0.0
C273 C 0.61893 0.25189 0.13794 0.0
C274 C 0.44856 0.0919 0.27517 0.0
C275 C 0.55873 0.19263 0.96911 0.0
C276 C 0.54909 0.16289 0.28149 0.0
C277 C 0.43794 0.12893 0.07574 0.0
C278 C 0.60226 0.31142 0.08233 0.0
C279 C 0.50513 0.2161 0.26489 0.0
O280 O 0.54634 0.25873 0.96483 0.0
O281 O 0.49391 0.21736 0.98752 0.0
O282 O 0.59784 0.24667 0.18519 0.0
O283 O 0.61029 0.24744 0.07528 0.0
O284 O 0.46316 0.11981 0.30451 0.0
O285 O 0.45232 0.09546 0.21147 0.0
O286 O 0.57991 0.22277 0.9826 0.0
O287 O 0.52868 0.17809 0.99334 0.0
Co288 Co 0.48121 0.36587 0.50651 0.0
Co289 Co 0.52381 0.39014 0.66068 0.0
Co290 Co 0.54103 0.35495 0.55352 0.0
H291 H 0.50964 0.36012 0.54967 0.0
O292 O 0.49984 0.35544 0.58916 0.0
H293 H 0.55679 0.38968 0.65286 0.0
O294 O 0.56478 0.39426 0.61209 0.0
Co295 Co 0.58856 0.38666 0.68463 0.0
O296 O 0.59354 0.41824 0.75883 0.0
O297 O 0.54998 0.4256 0.73495 0.0
O298 O 0.5694 0.33909 0.65482 0.0
O299 O 0.57989 0.34778 0.54561 0.0
O300 O 0.45504 0.35654 0.41476 0.0
O301 O 0.4298 0.34496 0.50698 0.0
O302 O 0.56007 0.35213 0.75286 0.0
O303 O 0.51231 0.35128 0.72849 0.0
C304 C 0.49755 0.31374 0.44229 0.0
C305 C 0.46187 0.39102 0.64423 0.0
C306 C 0.64569 0.41675 0.63798 0.0
C307 C 0.55085 0.41088 0.45704 0.0
C308 C 0.57672 0.43268 0.76923 0.0
C309 C 0.58149 0.33411 0.6011 0.0
C310 C 0.42693 0.34446 0.44302 0.0
C311 C 0.52887 0.33997 0.76116 0.0
O312 O 0.48447 0.33261 0.43653 0.0
O313 O 0.51648 0.31667 0.492 0.0
O314 O 0.48218 0.38877 0.68546 0.0
O315 O 0.46148 0.38596 0.5786 0.0
O316 O 0.63395 0.38981 0.67037 0.0
O317 O 0.62587 0.42771 0.6356 0.0
O318 O 0.52254 0.40796 0.47128 0.0
O319 O 0.55801 0.38859 0.47572 0.0
Co320 Co 0.70079 0.14757 0.50563 0.0
Co321 Co 0.67675 0.16573 0.6591 0.0
Co322 Co 0.71055 0.21798 0.55121 0.0
H323 H 0.70649 0.18185 0.54848 0.0
O324 O 0.7116 0.17712 0.58782 0.0
H325 H 0.67749 0.19932 0.65135 0.0
O326 O 0.67199 0.2022 0.61102 0.0
Co327 Co 0.68206 0.2349 0.68177 0.0
O328 O 0.65247 0.20815 0.75952 0.0
O329 O 0.64119 0.15621 0.73269 0.0
O330 O 0.72428 0.27441 0.64767 0.0
O331 O 0.71457 0.26243 0.5371 0.0
O332 O 0.70952 0.12931 0.41516 0.0
O333 O 0.72406 0.11931 0.50796 0.0
O334 O 0.72294 0.24428 0.73264 0.0
O335 O 0.71525 0.19262 0.72767 0.0
C336 C 0.75163 0.21641 0.43966 0.0
C337 C 0.67578 0.10292 0.64278 0.0
C338 C 0.64772 0.25995 0.65497 0.0
C339 C 0.65449 0.17015 0.45661 0.0
C340 C 0.63622 0.1767 0.76893 0.0
C341 C 0.72739 0.28362 0.58553 0.0
C342 C 0.72341 0.11526 0.44432 0.0
C343 C 0.7316 0.22318 0.74851 0.0
O344 O 0.73333 0.18429 0.4346 0.0
O345 O 0.7486 0.23229 0.48933 0.0
O346 O 0.67822 0.1256 0.68377 0.0
O347 O 0.68063 0.10746 0.57711 0.0
O348 O 0.66135 0.26243 0.71199 0.0
O349 O 0.65303 0.24263 0.61323 0.0
O350 O 0.65764 0.14496 0.47126 0.0
O351 O 0.67687 0.1997 0.47421 0.0
Co352 Co 0.91834 0.58461 0.50624 0.0
Co353 Co 0.89832 0.54178 0.66028 0.0
Co354 Co 0.84741 0.52349 0.54999 0.0
H355 H 0.88372 0.55561 0.54813 0.0
O356 O 0.88804 0.56539 0.58753 0.0
H357 H 0.86425 0.50894 0.65238 0.0
O358 O 0.86192 0.50053 0.61224 0.0
Co359 Co 0.82779 0.47807 0.68121 0.0
O360 O 0.85476 0.47332 0.75638 0.0
O361 O 0.90688 0.51548 0.73433 0.0
O362 O 0.79019 0.48386 0.64547 0.0
O363 O 0.80267 0.48354 0.53595 0.0
O364 O 0.93581 0.61172 0.41561 0.0
O365 O 0.94849 0.63612 0.50867 0.0
O366 O 0.82047 0.5086 0.74006 0.0
O367 O 0.87118 0.55384 0.72741 0.0
C368 C 0.85045 0.56768 0.43864 0.0
C369 C 0.96195 0.60332 0.64452 0.0
C370 C 0.79784 0.4202 0.64067 0.0
C371 C 0.89581 0.51564 0.45527 0.0
C372 C 0.88612 0.48894 0.76771 0.0
C373 C 0.78156 0.4788 0.58283 0.0
C374 C 0.9514 0.6396 0.44483 0.0
C375 C 0.84132 0.53894 0.75264 0.0
O376 O 0.88262 0.58222 0.43532 0.0
O377 O 0.83397 0.54718 0.48591 0.0
O378 O 0.93879 0.58335 0.68531 0.0
O379 O 0.95783 0.60368 0.57875 0.0
O380 O 0.7859 0.43203 0.68254 0.0
O381 O 0.82734 0.44082 0.62401 0.0
O382 O 0.92067 0.54454 0.4684 0.0
O383 O 0.86624 0.5073 0.4753 0.0
Co384 Co 0.48033 0.68205 0.37196 0.0
Co385 Co 0.52594 0.71066 0.50238 0.0
Co386 Co 0.54403 0.67663 0.39475 0.0
H387 H 0.51127 0.67746 0.40258 0.0
O388 O 0.50288 0.67207 0.44294 0.0
H389 H 0.55787 0.7064 0.50509 0.0
O390 O 0.56777 0.71149 0.46577 0.0
Co391 Co 0.5862 0.70029 0.54788 0.0
O392 O 0.58232 0.73292 0.61879 0.0
O393 O 0.55001 0.74872 0.56407 0.0
O394 O 0.60612 0.6802 0.47647 0.0
O395 O 0.58555 0.67793 0.36988 0.0
O396 O 0.43186 0.65903 0.34159 0.0
O397 O 0.44401 0.65373 0.44202 0.0
O398 O 0.54531 0.6572 0.58157 0.0
O399 O 0.51037 0.67705 0.57971 0.0
C400 C 0.49237 0.63627 0.28484 0.0
C401 C 0.47695 0.72739 0.46769 0.0
C402 C 0.64069 0.7217 0.61038 0.0
C403 C 0.54181 0.7317 0.30573 0.0
C404 C 0.56888 0.7515 0.61371 0.0
C405 C 0.60576 0.67538 0.41082 0.0
C406 C 0.42109 0.64654 0.39968 0.0
C407 C 0.51716 0.65438 0.59679 0.0
O408 O 0.47745 0.65275 0.29377 0.0
O409 O 0.51768 0.64102 0.32148 0.0
O410 O 0.48558 0.71489 0.51635 0.0
O411 O 0.48299 0.72419 0.40558 0.0
O412 O 0.61275 0.71017 0.63917 0.0
O413 O 0.63753 0.72071 0.54646 0.0
O414 O 0.51207 0.72319 0.32193 0.0
O415 O 0.55581 0.71511 0.32601 0.0
Co416 Co 0.38202 0.82707 0.37369 0.0
Co417 Co 0.35521 0.84667 0.50321 0.0
Co418 Co 0.38934 0.89775 0.3936 0.0
H419 H 0.38769 0.86355 0.4021 0.0
O420 O 0.39333 0.86107 0.44259 0.0
H421 H 0.36006 0.88314 0.50491 0.0
O422 O 0.35501 0.88774 0.46536 0.0
Co423 Co 0.36629 0.91781 0.54694 0.0
O424 O 0.33316 0.88197 0.61841 0.0
O425 O 0.31741 0.83346 0.56554 0.0
O426 O 0.38663 0.95723 0.47403 0.0
O427 O 0.38892 0.93846 0.36788 0.0
O428 O 0.38615 0.78525 0.37206 0.0
O429 O 0.41859 0.82636 0.43151 0.0
O430 O 0.40903 0.91977 0.58208 0.0
O431 O 0.38935 0.86491 0.57964 0.0
C432 C 0.43002 0.8851 0.287 0.0
C433 C 0.33411 0.78065 0.47066 0.0
C434 C 0.34446 0.95064 0.60929 0.0
C435 C 0.33492 0.84085 0.3016 0.0
C436 C 0.3144 0.84992 0.61407 0.0
C437 C 0.39164 0.96147 0.40835 0.0
C438 C 0.40976 0.79698 0.41439 0.0
C439 C 0.41186 0.89443 0.59729 0.0
O440 O 0.41395 0.85377 0.29842 0.0
O441 O 0.42448 0.90599 0.32023 0.0
O442 O 0.34982 0.80176 0.51794 0.0
O443 O 0.33822 0.78936 0.40804 0.0
O444 O 0.35677 0.93499 0.63805 0.0
O445 O 0.34497 0.94793 0.5454 0.0
O446 O 0.34405 0.81985 0.3151 0.0
O447 O 0.35026 0.87084 0.32599 0.0
Co448 Co 0.23559 0.5874 0.36962 0.0
Co449 Co 0.2191 0.53967 0.50104 0.0
Co450 Co 0.16682 0.52327 0.39392 0.0
H451 H 0.20057 0.55597 0.40175 0.0
O452 O 0.20415 0.56395 0.44252 0.0
H453 H 0.18229 0.50867 0.50465 0.0
O454 O 0.17707 0.49892 0.46518 0.0
Co455 Co 0.14787 0.4806 0.5477 0.0
O456 O 0.18405 0.48413 0.61888 0.0
O457 O 0.23217 0.5145 0.56235 0.0
O458 O 0.10803 0.46088 0.4757 0.0
O459 O 0.12621 0.48196 0.3691 0.0
O460 O 0.27808 0.63246 0.38658 0.0
O461 O 0.23147 0.62508 0.41499 0.0
O462 O 0.14752 0.5223 0.58139 0.0
O463 O 0.20271 0.55667 0.57915 0.0
C464 C 0.17786 0.5762 0.28503 0.0
C465 C 0.28041 0.57916 0.45345 0.0
C466 C 0.11575 0.42534 0.60821 0.0
C467 C 0.22174 0.52763 0.2932 0.0
C468 C 0.2159 0.49621 0.61272 0.0
C469 C 0.10354 0.46144 0.41006 0.0
C470 C 0.26242 0.64457 0.41564 0.0
C471 C 0.17329 0.55023 0.59661 0.0
O472 O 0.20927 0.59258 0.29488 0.0
O473 O 0.15792 0.54977 0.31991 0.0
O474 O 0.26548 0.57806 0.50909 0.0
O475 O 0.26299 0.56724 0.40004 0.0
O476 O 0.12608 0.45319 0.63659 0.0
O477 O 0.12329 0.42905 0.54583 0.0
O478 O 0.24129 0.55875 0.30159 0.0
O479 O 0.19375 0.51139 0.32586 0.0
Co480 Co 0.1471 0.69834 0.83935 0.0
Co481 Co 0.18956 0.72223 0.99222 0.0
Co482 Co 0.20763 0.68822 0.88457 0.0
H483 H 0.17563 0.69242 0.88193 0.0
O484 O 0.1658 0.68734 0.92132 0.0
H485 H 0.22234 0.72143 0.98431 0.0
O486 O 0.2307 0.72683 0.94394 0.0
Co487 Co 0.2533 0.71687 1.01489 0.0
O488 O 0.25622 0.74622 0.09299 0.0
O489 O 0.2159 0.75785 0.06541 0.0
O490 O 0.25048 0.67465 0.98134 0.0
O491 O 0.24801 0.68399 0.87057 0.0
O492 O 0.12019 0.68875 0.74854 0.0
O493 O 0.09557 0.67637 0.84149 0.0
O494 O 0.22163 0.67574 0.06499 0.0
O495 O 0.17786 0.68377 0.06099 0.0
C496 C 0.16474 0.64737 0.77324 0.0
C497 C 0.12787 0.72357 0.97656 0.0
C498 C 0.31257 0.75224 0.98737 0.0
C499 C 0.21616 0.74438 0.78995 0.0
C500 C 0.24125 0.76266 0.10197 0.0
C501 C 0.25659 0.67147 0.91928 0.0
C502 C 0.09223 0.67603 0.77766 0.0
C503 C 0.1919 0.66721 0.08125 0.0
O504 O 0.1512 0.66588 0.76819 0.0
O505 O 0.18354 0.65015 0.823 0.0
O506 O 0.14808 0.72088 1.01722 0.0
O507 O 0.12734 0.71867 0.91086 0.0
O508 O 0.30173 0.73965 0.04535 0.0
O509 O 0.2897 0.74525 0.94501 0.0
O510 O 0.18793 0.74141 0.80509 0.0
O511 O 0.22312 0.72184 0.80724 0.0
Co512 Co 0.36717 0.48105 0.83957 0.0
Co513 Co 0.34418 0.5009 0.99335 0.0
Co514 Co 0.37797 0.55205 0.88369 0.0
H515 H 0.37326 0.51564 0.88178 0.0
O516 O 0.37841 0.51106 0.92126 0.0
H517 H 0.34571 0.53507 0.9851 0.0
O518 O 0.33997 0.53753 0.9447 0.0
Co519 Co 0.3513 0.57152 1.01362 0.0
O520 O 0.31939 0.54466 0.08877 0.0
O521 O 0.3091 0.49251 0.06699 0.0
O522 O 0.39501 0.6093 0.97907 0.0
O523 O 0.3832 0.5969 0.86923 0.0
O524 O 0.38754 0.45009 0.84112 0.0
O525 O 0.37743 0.46454 0.7484 0.0
O526 O 0.38925 0.57873 0.07231 0.0
O527 O 0.38333 0.52788 0.06083 0.0
C528 C 0.41882 0.54898 0.77253 0.0
C529 C 0.34193 0.43725 0.97788 0.0
C530 C 0.32355 0.60165 0.97311 0.0
C531 C 0.32137 0.50423 0.78943 0.0
C532 C 0.30344 0.51333 0.10022 0.0
C533 C 0.39901 0.61801 0.91645 0.0
C534 C 0.38884 0.44808 0.7772 0.0
C535 C 0.39853 0.55781 0.08551 0.0
O536 O 0.40029 0.5169 0.76829 0.0
O537 O 0.41563 0.56539 0.82092 0.0
O538 O 0.34476 0.4602 1.01869 0.0
O539 O 0.34679 0.44158 0.91221 0.0
O540 O 0.34709 0.61329 1.01563 0.0
O541 O 0.31482 0.57233 0.95566 0.0
O542 O 0.32447 0.479 0.80401 0.0
O543 O 0.34362 0.53376 0.80766 0.0
Co544 Co 0.5856 0.91827 0.83901 0.0
Co545 Co 0.56679 0.87556 0.99298 0.0
Co546 Co 0.51446 0.85897 0.88592 0.0
H547 H 0.55123 0.8901 0.88216 0.0
O548 O 0.55644 0.89984 0.92165 0.0
H549 H 0.53311 0.84278 0.98514 0.0
O550 O 0.52958 0.83481 0.94437 0.0
Co551 Co 0.49815 0.81126 1.01727 0.0
O552 O 0.52456 0.80613 0.09184 0.0
O553 O 0.57582 0.84915 0.06702 0.0
O554 O 0.47064 0.8313 0.98695 0.0
O555 O 0.46817 0.82045 0.87793 0.0
O556 O 0.60337 0.94487 0.74782 0.0
O557 O 0.61553 0.96973 0.8404 0.0
O558 O 0.49243 0.83977 0.08564 0.0
O559 O 0.53974 0.88727 0.06102 0.0
C560 C 0.51732 0.90243 0.77448 0.0
C561 C 0.62987 0.93753 0.97691 0.0
C562 C 0.47115 0.75409 0.97124 0.0
C563 C 0.56031 0.84864 0.79006 0.0
C564 C 0.55595 0.82264 0.10178 0.0
C565 C 0.45323 0.81931 0.93356 0.0
C566 C 0.61871 0.97289 0.77657 0.0
C567 C 0.51185 0.87092 0.09391 0.0
O568 O 0.54924 0.91491 0.76839 0.0
O569 O 0.50117 0.88396 0.82472 0.0
O570 O 0.60726 0.91693 1.01787 0.0
O571 O 0.62532 0.93813 0.9113 0.0
O572 O 0.45563 0.76615 1.00105 0.0
O573 O 0.5021 0.77364 0.97111 0.0
O574 O 0.58601 0.87664 0.80509 0.0
O575 O 0.53087 0.84204 0.80776 0.0
C576 C 0.0822 0.0875 0.80455 0.0
C577 C 0.10045 0.12024 0.77909 0.0
H578 H 0.08428 0.0446 0.8391 0.0
C579 C 0.13544 0.13682 0.77893 0.0
H580 H 0.05514 0.07454 0.80642 0.0
C581 C 0.15181 0.11944 0.79598 0.0
C582 C 0.13337 0.08578 0.81555 0.0
H583 H 0.14994 0.16221 0.76017 0.0
H584 H 0.17856 0.13137 0.78811 0.0
C585 C 0.09874 0.07055 0.82398 0.0
C586 C 0.96679 0.05933 0.83171 0.0
C587 C 0.98164 0.08239 0.77826 0.0
H588 H 0.93663 1.00738 0.85818 0.0
C589 C 0.97793 0.0708 0.71042 0.0
H590 H 0.96914 0.06769 0.8842 0.0
C591 C 0.95972 0.03719 0.69582 0.0
C592 C 0.94447 1.0141 0.74842 0.0
H593 H 0.98909 0.08772 0.66761 0.0
H594 H 0.95758 0.02934 0.64293 0.0
C595 C 0.94802 0.02512 0.81671 0.0
C596 C 1.00591 0.93005 0.82953 0.0
C597 C 0.9872 0.94506 0.8112 0.0
H598 H 0.05351 0.93274 0.82304 0.0
C599 C 1.00309 0.97658 0.78012 0.0
H600 H 0.9938 0.9053 0.85199 0.0
C601 C 0.03636 0.99139 0.76078 0.0
C602 C 0.05457 0.97532 0.77401 0.0
H603 H 0.98901 0.98833 0.76472 0.0
H604 H 0.04735 1.01473 0.73272 0.0
C605 C 0.03972 0.94537 0.81162 0.0
C606 C 0.94512 0.93718 0.23888 0.0
C607 C 0.97449 0.95258 0.27828 0.0
H608 H 0.90497 0.94218 0.1966 0.0
C609 C 0.98963 0.98669 0.29304 0.0
H610 H 0.93325 0.91089 0.22627 0.0
C611 C 0.97446 1.00464 0.27322 0.0
C612 C 0.9434 0.98861 0.24031 0.0
H613 H 1.0125 0.99926 0.32256 0.0
H614 H 0.98546 0.03027 0.28973 0.0
C615 C 0.92936 0.95513 0.22057 0.0
C616 C 0.08799 0.03932 0.2532 0.0
C617 C 0.12122 0.05388 0.27563 0.0
H618 H 0.04449 0.99434 0.22035 0.0
C619 C 0.13779 0.03555 0.27226 0.0
H620 H 0.07501 0.05335 0.25395 0.0
C621 C 0.12008 1.00181 0.25475 0.0
C622 C 0.08606 0.98652 0.23817 0.0
H623 H 0.16355 0.0465 0.28858 0.0
H624 H 0.13214 0.98701 0.25996 0.0
C625 C 0.07068 1.00587 0.23328 0.0
C626 C 0.06116 0.12377 0.22147 0.0
C627 C 0.08382 0.13507 0.27617 0.0
H628 H 1.00933 0.09889 0.19244 0.0
C629 C 0.07158 0.13029 0.34374 0.0
H630 H 0.06996 0.12727 0.16911 0.0
C631 C 0.03777 0.11447 0.35678 0.0
C632 C 1.01507 0.10307 0.30285 0.0
H633 H 0.0881 0.13853 0.38761 0.0
H634 H 0.02942 0.111 0.40953 0.0
C635 C 1.02674 0.10789 0.23484 0.0
C636 C 0.79405 0.42236 0.04376 0.0
C637 C 0.80181 0.41792 0.11128 0.0
H638 H 0.77263 0.44292 0.97761 0.0
C639 C 0.79302 0.43179 0.16557 0.0
H640 H 0.80019 0.41198 1.00024 0.0
C641 C 0.77709 0.45021 0.15175 0.0
C642 C 0.76969 0.45443 0.08377 0.0
H643 H 0.79883 0.42885 0.21788 0.0
H644 H 0.77029 0.46079 0.19391 0.0
C645 C 0.77819 0.44023 0.03031 0.0
C646 C 0.67324 0.39703 0.12122 0.0
C647 C 0.65641 0.41244 0.14856 0.0
H648 H 0.6689 0.35321 0.07585 0.0
C649 C 0.6222 0.39332 0.1631 0.0
H650 H 0.6995 0.41144 0.10888 0.0
C651 C 0.60452 0.35954 0.14501 0.0
C652 C 0.62094 0.34517 0.11082 0.0
H653 H 0.6087 0.40508 0.18262 0.0
H654 H 0.57777 0.34541 0.15338 0.0
C655 C 0.65559 0.3638 0.10144 0.0
C656 C 0.70752 0.31721 0.13999 0.0
C657 C 0.72183 0.29886 0.11466 0.0
H658 H 0.66261 0.31531 0.17455 0.0
C659 C 0.70327 0.26389 0.1151 0.0
H660 H 0.72176 0.34426 0.1414 0.0
C661 C 0.66949 0.24763 0.13244 0.0
C662 C 0.65442 0.26617 0.15167 0.0
H663 H 0.71403 0.24932 0.09641 0.0
H664 H 0.65449 0.22088 0.12484 0.0
C665 C 0.674 0.30079 0.15971 0.0
C666 C 0.60755 0.30118 0.55603 0.0
C667 C 0.59993 0.31613 0.61008 0.0
H668 H 0.62854 0.27055 0.52815 0.0
C669 C 0.60816 0.31217 0.67751 0.0
H670 H 0.60133 0.30373 0.50381 0.0
C671 C 0.62313 0.2935 0.69119 0.0
C672 C 0.63034 0.27809 0.63805 0.0
H673 H 0.6029 0.32341 0.72079 0.0
H674 H 0.62902 0.29114 0.74384 0.0
C675 C 0.62266 0.28201 0.57009 0.0
C676 C 0.79447 0.37204 0.57602 0.0
C677 C 0.77869 0.38648 0.61236 0.0
H678 H 0.78943 0.32646 0.53635 0.0
C679 C 0.74419 0.368 0.62377 0.0
H680 H 0.82108 0.38608 0.56602 0.0
C681 C 0.72611 0.33486 0.60376 0.0
C682 C 0.74235 0.31933 0.5742 0.0
H683 H 0.73135 0.37867 0.65092 0.0
H684 H 0.70004 0.32058 0.61763 0.0
C685 C 0.77635 0.33831 0.55767 0.0
C686 C 0.73145 0.48394 0.58644 0.0
C687 C 0.74612 0.46482 0.56878 0.0
H688 H 0.68728 0.4833 0.62157 0.0
C689 C 0.72615 0.43016 0.56239 0.0
H690 H 0.74675 0.51075 0.59271 0.0
C691 C 0.69271 0.41434 0.58249 0.0
C692 C 0.67883 0.43333 0.60638 0.0
H693 H 0.73721 0.41521 0.54856 0.0
H694 H 0.67819 0.38729 0.58251 0.0
C695 C 0.69772 0.46826 0.60404 0.0
C696 C 0.47036 0.7756 0.497 0.0
C697 C 0.4558 0.74188 0.47876 0.0
H698 H 0.46677 0.81998 0.49061 0.0
C699 C 0.42419 0.72563 0.44812 0.0
H700 H 0.49516 0.78869 0.5192 0.0
C701 C 0.40883 0.74353 0.42908 0.0
C702 C 0.42445 0.77785 0.44214 0.0
H703 H 0.41279 0.69978 0.43283 0.0
H704 H 0.38544 0.73075 0.4013 0.0
C705 C 0.4545 0.79352 0.47934 0.0
C706 C 0.27935 0.72977 0.46611 0.0
C707 C 0.31318 0.7451 0.48431 0.0
H708 H 0.23636 0.68513 0.43062 0.0
C709 C 0.32854 0.72581 0.49091 0.0
H710 H 0.26733 0.74455 0.4596 0.0
C711 C 0.3115 0.69236 0.47088 0.0
C712 C 0.27857 0.67782 0.44661 0.0
H713 H 0.35462 0.73739 0.50495 0.0
H714 H 0.32452 0.67837 0.47129 0.0
C715 C 0.2619 0.69607 0.44842 0.0
C716 C 0.33967 0.60762 0.49857 0.0
C717 C 0.31688 0.59653 0.4441 0.0
H718 H 0.39158 0.63213 0.52704 0.0
C719 C 0.32896 0.60132 0.3764 0.0
H720 H 0.331 0.60411 0.55103 0.0
C721 C 0.36273 0.61691 0.36299 0.0
C722 C 0.38556 0.62808 0.41668 0.0
H723 H 0.31235 0.59326 0.33267 0.0
H724 H 0.37093 0.62037 0.31015 0.0
C725 C 0.37406 0.62327 0.48482 0.0
C726 C 0.27904 0.6053 0.90761 0.0
C727 C 0.30893 0.62085 0.94537 0.0
H728 H 0.23857 0.61028 0.86711 0.0
C729 C 0.32448 0.65512 0.95887 0.0
H730 H 0.26683 0.57889 0.89597 0.0
C731 C 0.30922 0.67309 0.93965 0.0
C732 C 0.27775 0.65696 0.9084 0.0
H733 H 0.34776 0.66781 0.98707 0.0
H734 H 0.32058 0.69889 0.95528 0.0
C735 C 0.26327 0.62329 0.88978 0.0
C736 C 0.40466 0.6729 0.89658 0.0
C737 C 0.41998 0.65355 0.90273 0.0
H738 H 0.40886 0.72039 0.9165 0.0
C739 C 0.45387 0.66882 0.92038 0.0
H740 H 0.37854 0.66137 0.88292 0.0
C741 C 0.47145 0.70253 0.93798 0.0
C742 C 0.45485 0.72084 0.94027 0.0
H743 H 0.46586 0.654 0.92653 0.0
H744 H 0.49705 0.71344 0.95536 0.0
C745 C 0.42184 0.70635 0.91654 0.0
C746 C 0.40468 0.79652 1.01067 0.0
C747 C 0.41676 0.80179 0.94293 0.0
H748 H 0.36272 0.77728 0.07696 0.0
C749 C 0.39399 0.79123 0.88847 0.0
H750 H 0.42129 0.80414 0.05438 0.0
C751 C 0.35962 0.77571 0.90226 0.0
C752 C 0.34811 0.7705 0.97042 0.0
H753 H 0.40267 0.79513 0.83599 0.0
H754 H 0.34211 0.7673 0.86002 0.0
C755 C 0.37093 0.78108 1.02411 0.0
C756 C 0.22487 0.12271 0.60651 0.0
C757 C 0.2258 0.09362 0.58955 0.0
H758 H 0.22527 0.16664 0.57002 0.0
C759 C 0.23486 0.09051 0.52247 0.0
H760 H 0.21721 0.12548 0.65733 0.0
C761 C 0.2395 0.11433 0.47208 0.0
C762 C 0.23554 0.14187 0.48793 0.0
H763 H 0.23482 0.06801 0.50725 0.0
H764 H 0.24258 0.10927 0.41931 0.0
C765 C 0.22977 0.14653 0.55649 0.0
C766 C 0.97817 0.17408 0.51449 0.0
C767 C 0.97626 0.16366 0.58277 0.0
H768 H 0.95729 0.16079 0.4132 0.0
C769 C 0.94757 0.1338 0.60306 0.0
H770 H 1.00039 0.19625 0.49655 0.0
C771 C 0.92284 0.11356 0.55549 0.0
C772 C 0.92596 0.12256 0.48607 0.0
H773 H 0.94573 0.12451 0.65472 0.0
H774 H 0.90299 0.08924 0.57177 0.0
C775 C 0.95331 0.15374 0.46671 0.0
C776 C 0.89252 0.832 0.5251 0.0
C777 C 0.90488 0.84191 0.59186 0.0
H778 H 0.90367 0.82433 0.42198 0.0
C779 C 0.93589 0.84481 0.60826 0.0
H780 H 0.86926 0.83051 0.51021 0.0
C781 C 0.95541 0.84098 0.55805 0.0
C782 C 0.94454 0.83416 0.48986 0.0
H783 H 0.94647 0.85309 0.65879 0.0
H784 H 0.9805 0.84672 0.57119 0.0
C785 C 0.91227 0.82838 0.47451 0.0
C786 C 0.11051 0.2014 0.98449 0.0
C787 C 0.10734 0.22952 0.97028 0.0
H788 H 0.13752 0.18147 0.03645 0.0
C789 C 0.13283 0.2608 0.99488 0.0
H790 H 0.09189 0.1769 0.96646 0.0
C791 C 0.15966 0.26346 0.03478 0.0
C792 C 0.1619 0.23496 0.05061 0.0
H793 H 0.13155 0.28315 0.98504 0.0
H794 H 0.17765 0.28747 0.05601 0.0
C795 C 0.13711 0.20408 1.02404 0.0
C796 C 0.80068 0.92296 0.04839 0.0
C797 C 0.82676 0.95649 0.05035 0.0
H798 H 0.78319 0.87334 1.00907 0.0
C799 C 0.8552 0.96545 1.00995 0.0
H800 H 0.77896 0.91487 0.08077 0.0
C801 C 0.85807 0.94168 0.97033 0.0
C802 C 0.83259 0.90785 0.96969 0.0
H803 H 0.87619 0.99075 1.01178 0.0
H804 H 0.88083 0.94981 0.94137 0.0
C805 C 0.80339 0.89903 1.00797 0.0
C806 C 0.12533 0.95254 0.97925 0.0
C807 C 0.15759 0.95719 0.96989 0.0
H808 H 0.07746 0.9246 0.02764 0.0
C809 C 0.16432 0.93324 0.99931 0.0
H810 H 0.11872 0.96995 0.95733 0.0
C811 C 0.14004 0.90658 0.03955 0.0
C812 C 0.1083 0.90296 0.05057 0.0
H813 H 0.18874 0.93574 0.99328 0.0
H814 H 0.14668 0.8899 0.06484 0.0
C815 C 0.1013 0.92608 1.01892 0.0
C816 C 0.82781 0.94769 0.57622 0.0
C817 C 0.83299 0.92087 0.56043 0.0
H818 H 0.83101 0.99348 0.54144 0.0
C819 C 0.83982 0.91708 0.49208 0.0
H820 H 0.82387 0.95216 0.62888 0.0
C821 C 0.84425 0.94088 0.44231 0.0
C822 C 0.84199 0.96928 0.4592 0.0
H823 H 0.8452 0.89757 0.47853 0.0
H824 H 0.85248 0.93862 0.3917 0.0
C825 C 0.83206 0.97155 0.52607 0.0
C826 C 0.09186 0.89144 0.53178 0.0
C827 C 0.09453 0.90342 0.4646 0.0
H828 H 0.11084 0.903 0.63474 0.0
C829 C 0.12299 0.93411 0.44745 0.0
H830 H 0.0698 0.86847 0.5472 0.0
C831 C 0.14656 0.95372 0.49729 0.0
C832 C 0.14238 0.94324 0.5658 0.0
H833 H 0.1254 0.94442 0.39658 0.0
H834 H 0.16621 0.97861 0.48354 0.0
C835 C 0.11549 0.91125 0.58196 0.0
C836 C 0.17799 0.23095 0.53823 0.0
C837 C 0.16729 0.22255 0.47014 0.0
H838 H 0.16504 0.23828 0.63994 0.0
C839 C 0.13763 0.22175 0.4503 0.0
H840 H 0.20007 0.23068 0.55568 0.0
C841 C 0.1177 0.22633 0.49835 0.0
C842 C 0.12682 0.23182 0.56771 0.0
H843 H 0.12819 0.21441 0.39872 0.0
H844 H 0.09338 0.22198 0.48255 0.0
C845 C 0.15793 0.23549 0.5865 0.0
C846 C 0.95545 0.86197 0.07192 0.0
C847 C 0.95886 0.83378 0.08339 0.0
H848 H 0.92879 0.88271 1.02189 0.0
C849 C 0.934 0.80298 0.0557 0.0
H850 H 0.97354 0.88611 0.0925 0.0
C851 C 0.9076 0.80099 1.01523 0.0
C852 C 0.90531 0.8297 1.00197 0.0
H853 H 0.93551 0.78062 0.06346 0.0
H854 H 0.89008 0.77745 0.99157 0.0
C855 C 0.92936 0.85996 0.03192 0.0
C856 C 0.20345 0.12357 0.07298 0.0
C857 C 0.23121 0.15563 0.0837 0.0
H858 H 0.18371 0.07589 1.02407 0.0
C859 C 0.26226 0.16216 0.05633 0.0
H860 H 0.17916 0.11713 0.09329 0.0
C861 C 0.26493 0.13793 1.01685 0.0
C862 C 0.23671 0.10639 1.00443 0.0
H863 H 0.28433 0.18642 0.06346 0.0
H864 H 0.2886 0.14451 0.99314 0.0
C865 C 0.20615 0.09956 0.03398 0.0
C866 C 0.92736 0.15904 1.017 0.0
C867 C 0.95838 0.16157 1.00246 0.0
H868 H 0.87923 0.13077 0.06609 0.0
C869 C 0.96464 0.13724 0.03063 0.0
H870 H 0.92122 0.17668 0.9945 0.0
C871 C 0.94062 0.11077 0.07037 0.0
C872 C 0.90904 0.10726 0.0833 0.0
H873 H 0.98787 0.13786 1.01921 0.0
H874 H 0.94666 0.09247 0.08953 0.0
C875 C 0.90308 0.13234 0.05726 0.0
C876 C 0.8869 0.45174 0.93723 0.0
C877 C 0.88916 0.42369 0.91722 0.0
H878 H 0.88549 0.49542 0.9054 0.0
C879 C 0.89835 0.42224 0.84932 0.0
H880 H 0.87896 0.45317 0.98866 0.0
C881 C 0.9023 0.4468 0.80138 0.0
C882 C 0.89722 0.47332 0.82036 0.0
H883 H 0.89921 0.40051 0.8317 0.0
H884 H 0.90594 0.44316 0.74803 0.0
C885 C 0.89082 0.47615 0.88951 0.0
C886 C 0.58555 0.44716 0.89244 0.0
C887 C 0.59034 0.45829 0.82431 0.0
H888 H 0.60616 0.45495 0.99352 0.0
C889 C 0.61771 0.49024 0.8097 0.0
H890 H 0.56558 0.42224 0.90505 0.0
C891 C 0.64118 0.50925 0.86081 0.0
C892 C 0.63801 0.49641 0.92736 0.0
H893 H 0.62291 0.49897 0.75726 0.0
H894 H 0.66354 0.53218 0.84642 0.0
C895 C 0.60908 0.46587 0.94313 0.0
C896 C 0.62077 0.17205 0.89179 0.0
C897 C 0.61022 0.16545 0.82335 0.0
H898 H 0.61206 0.18495 0.99199 0.0
C899 C 0.57844 0.16085 0.8072 0.0
H900 H 0.64554 0.17702 0.90556 0.0
C901 C 0.55903 0.16548 0.8571 0.0
C902 C 0.5712 0.17514 0.92405 0.0
H903 H 0.57016 0.15713 0.75446 0.0
H904 H 0.5363 0.16493 0.84149 0.0
C905 C 0.60158 0.17684 0.94132 0.0
C906 C 0.80005 0.5962 0.33116 0.0
C907 C 0.77534 0.56548 0.30295 0.0
H908 H 0.84397 0.62161 0.39529 0.0
C909 C 0.77915 0.53743 0.3129 0.0
H910 H 0.79822 0.61845 0.32454 0.0
C911 C 0.80549 0.53947 0.35205 0.0
C912 C 0.82936 0.56962 0.38269 0.0
H913 H 0.76117 0.51336 0.29184 0.0
H914 H 0.80632 0.5168 0.36115 0.0
C915 C 0.82665 0.5982 0.3709 0.0
C916 C 0.46794 0.25932 0.37439 0.0
C917 C 0.49621 0.29094 0.38628 0.0
H918 H 0.44825 0.21085 0.32724 0.0
C919 C 0.5265 0.29789 0.3553 0.0
H920 H 0.44445 0.25269 0.39903 0.0
C921 C 0.52891 0.27399 0.31532 0.0
C922 C 0.50112 0.24185 0.305 0.0
H923 H 0.54897 0.32164 0.3645 0.0
H924 H 0.55303 0.28061 0.29381 0.0
C925 C 0.47032 0.23515 0.33394 0.0
C926 C 0.7684 0.26334 0.35748 0.0
C927 C 0.77408 0.23821 0.38348 0.0
H928 H 0.78691 0.30869 0.30028 0.0
C929 C 0.80447 0.23989 0.36669 0.0
H930 H 0.74559 0.26328 0.37046 0.0
C931 C 0.8288 0.26661 0.32662 0.0
C932 C 0.82345 0.29245 0.30277 0.0
H933 H 0.81014 0.22159 0.38736 0.0
H934 H 0.85221 0.26751 0.31607 0.0
C935 C 0.79244 0.28978 0.31777 0.0
C936 C 0.50231 0.31013 0.87173 0.0
C937 C 0.51218 0.30917 0.80413 0.0
H938 H 0.49415 0.2888 0.97277 0.0
C939 C 0.51527 0.28158 0.78429 0.0
H940 H 0.5008 0.33152 0.88927 0.0
C941 C 0.51141 0.25714 0.83189 0.0
C942 C 0.50423 0.25946 0.90079 0.0
H943 H 0.52373 0.28052 0.73314 0.0
H944 H 0.51729 0.23823 0.81618 0.0
C945 C 0.49841 0.28553 0.91957 0.0
C946 C 0.81352 0.28536 0.8292 0.0
C947 C 0.80883 0.27446 0.89749 0.0
H948 H 0.79287 0.27709 0.72809 0.0
C949 C 0.78153 0.24255 0.91256 0.0
H950 H 0.83344 0.31025 0.81625 0.0
C951 C 0.75806 0.22328 0.86163 0.0
C952 C 0.76119 0.23581 0.79479 0.0
H953 H 0.77641 0.234 0.96512 0.0
H954 H 0.73576 0.20035 0.87629 0.0
C955 C 0.79002 0.26638 0.77868 0.0
C956 C 0.77867 0.55876 0.82949 0.0
C957 C 0.78908 0.56536 0.89801 0.0
H958 H 0.78777 0.54618 0.7293 0.0
C959 C 0.82091 0.57018 0.91443 0.0
H960 H 0.75388 0.55364 0.81551 0.0
C961 C 0.84056 0.56582 0.86467 0.0
C962 C 0.8286 0.55625 0.79755 0.0
H963 H 0.82911 0.57393 0.96723 0.0
H964 H 0.86334 0.56654 0.88045 0.0
C965 C 0.79811 0.55428 0.78007 0.0
C966 C 0.59282 0.1909 0.37057 0.0
C967 C 0.56999 0.16095 0.33783 0.0
H968 H 0.63655 0.21726 0.43249 0.0
C969 C 0.574 0.13298 0.34727 0.0
H970 H 0.5911 0.21319 0.363 0.0
C971 C 0.60073 0.13536 0.3871 0.0
C972 C 0.62441 0.16592 0.41754 0.0
H973 H 0.55758 0.10983 0.32103 0.0
H974 H 0.60353 0.11359 0.39191 0.0
C975 C 0.61936 0.19334 0.40974 0.0
C976 C 0.87616 0.4563 0.41687 0.0
C977 C 0.90078 0.49046 0.41547 0.0
H978 H 0.85892 0.40705 0.37695 0.0
C979 C 0.92939 0.49986 0.37472 0.0
H980 H 0.85389 0.44777 0.44776 0.0
C981 C 0.93228 0.47614 0.33401 0.0
C982 C 0.90711 0.44222 0.33429 0.0
H983 H 0.9489 0.52581 0.37192 0.0
H984 H 0.95344 0.48462 0.29985 0.0
C985 C 0.87928 0.43269 0.37704 0.0
C986 C 0.61001 0.44854 0.41484 0.0
C987 C 0.57648 0.44096 0.41759 0.0
H988 H 0.65892 0.47928 0.37202 0.0
C989 C 0.56808 0.46231 0.38188 0.0
H990 H 0.61779 0.43315 0.44188 0.0
C991 C 0.59208 0.48923 0.34199 0.0
C992 C 0.62528 0.49598 0.33788 0.0
H993 H 0.54262 0.45743 0.38249 0.0
H994 H 0.58425 0.50366 0.31159 0.0
C995 C 0.63387 0.47547 0.37562 0.0
C996 C 0.56841 0.75828 0.19276 0.0
C997 C 0.5589 0.76132 0.25949 0.0
H998 H 0.57608 0.77662 0.08922 0.0
C999 C 0.55715 0.79008 0.27549 0.0
H1000 H 0.56907 0.73605 0.17822 0.0
C1001 C 0.56167 0.81354 0.22489 0.0
C1002 C 0.5679 0.80888 0.15664 0.0
H1003 H 0.54923 0.79287 0.32603 0.0
H1004 H 0.55664 0.83336 0.23772 0.0
C1005 C 0.57262 0.78171 0.14174 0.0
C1006 C 0.30742 0.84014 0.18934 0.0
C1007 C 0.3049 0.82819 0.25653 0.0
H1008 H 0.28793 0.82869 0.08672 0.0
C1009 C 0.27619 0.79778 0.27408 0.0
H1010 H 0.32963 0.86288 0.17353 0.0
C1011 C 0.2522 0.77838 0.22466 0.0
C1012 C 0.25616 0.78875 0.15607 0.0
H1013 H 0.27383 0.78746 0.32494 0.0
H1014 H 0.23238 0.75362 0.23872 0.0
C1015 C 0.28335 0.82053 0.13957 0.0
C1016 C 0.24512 0.49745 0.13407 0.0
C1017 C 0.27671 0.50236 0.15298 0.0
H1018 H 0.20204 0.50073 0.16442 0.0
C1019 C 0.28602 0.50876 0.22212 0.0
H1020 H 0.23779 0.49383 0.08073 0.0
C1021 C 0.26561 0.51278 0.26987 0.0
C1022 C 0.23531 0.51062 0.24993 0.0
H1023 H 0.31062 0.51399 0.23796 0.0
H1024 H 0.27505 0.52068 0.32127 0.0
C1025 C 0.22461 0.50149 0.18204 0.0
C1026 C 0.46582 0.92938 0.66619 0.0
C1027 C 0.44173 0.89857 0.63721 0.0
H1028 H 0.50927 0.95533 0.73135 0.0
C1029 C 0.44621 0.87091 0.64734 0.0
H1030 H 0.46348 0.95134 0.65963 0.0
C1031 C 0.47263 0.87343 0.68721 0.0
C1032 C 0.49594 0.90372 0.71825 0.0
H1033 H 0.4287 0.84679 0.62582 0.0
H1034 H 0.47399 0.85105 0.69638 0.0
C1035 C 0.49245 0.93186 0.70657 0.0
C1036 C 0.19756 0.60757 0.65002 0.0
C1037 C 0.16944 0.57613 0.63634 0.0
H1038 H 0.21757 0.65458 0.70167 0.0
C1039 C 0.13817 0.57014 0.66136 0.0
H1040 H 0.22204 0.61359 0.63162 0.0
C1041 C 0.13555 0.59427 0.70135 0.0
C1042 C 0.16409 0.62513 0.71681 0.0
H1043 H 0.11582 0.54639 0.65185 0.0
H1044 H 0.11159 0.5881 0.72302 0.0
C1045 C 0.19493 0.63143 0.68961 0.0
C1046 C 0.43492 0.59359 0.68529 0.0
C1047 C 0.44162 0.57012 0.71625 0.0
H1048 H 0.45268 0.63774 0.62457 0.0
C1049 C 0.47319 0.5734 0.70473 0.0
H1050 H 0.41122 0.59237 0.69435 0.0
C1051 C 0.49762 0.60011 0.66475 0.0
C1052 C 0.49119 0.62441 0.6361 0.0
H1053 H 0.47961 0.55643 0.72946 0.0
H1054 H 0.52191 0.60235 0.65832 0.0
C1055 C 0.45908 0.62007 0.64591 0.0
C1056 C 0.1766 0.60885 0.11139 0.0
C1057 C 0.17485 0.63759 0.12749 0.0
H1058 H 0.17717 0.56557 0.14901 0.0
C1059 C 0.16542 0.64063 0.19431 0.0
H1060 H 0.18447 0.60607 0.06079 0.0
C1061 C 0.16127 0.6172 0.24526 0.0
C1062 C 0.16597 0.59004 0.23023 0.0
H1063 H 0.16478 0.66287 0.20893 0.0
H1064 H 0.15785 0.62227 0.29783 0.0
C1065 C 0.17214 0.58539 0.16194 0.0
C1066 C 0.42615 0.55867 0.19774 0.0
C1067 C 0.4286 0.57054 0.13049 0.0
H1068 H 0.44572 0.57023 0.30029 0.0
C1069 C 0.45727 0.60097 0.11283 0.0
H1070 H 0.40396 0.53593 0.21364 0.0
C1071 C 0.48128 0.62044 0.16217 0.0
C1072 C 0.4774 0.61013 0.2308 0.0
H1073 H 0.45958 0.61124 0.06195 0.0
H1074 H 0.50107 0.6452 0.148 0.0
C1075 C 0.45024 0.57834 0.24742 0.0
C1076 C 0.50889 0.89697 0.20512 0.0
C1077 C 0.49817 0.88781 0.13724 0.0
H1078 H 0.49572 0.90463 0.30643 0.0
C1079 C 0.46783 0.88556 0.11734 0.0
H1080 H 0.5315 0.8978 0.22268 0.0
C1081 C 0.44741 0.88953 0.16511 0.0
C1082 C 0.45674 0.89599 0.23423 0.0
H1083 H 0.45838 0.87763 0.06596 0.0
H1084 H 0.42278 0.88426 0.1493 0.0
C1085 C 0.48836 0.90097 0.25311 0.0
C1086 C 0.26848 0.46956 0.71759 0.0
C1087 C 0.2914 0.49993 0.74973 0.0
H1088 H 0.22602 0.44403 0.64989 0.0
C1089 C 0.28567 0.52698 0.74286 0.0
H1090 H 0.27183 0.44809 0.7215 0.0
C1091 C 0.25915 0.52435 0.70312 0.0
C1092 C 0.23704 0.49457 0.66895 0.0
H1093 H 0.30227 0.55073 0.76692 0.0
H1094 H 0.25684 0.54635 0.69643 0.0
C1095 C 0.24183 0.46701 0.67726 0.0
C1096 C 0.59538 0.82932 0.72338 0.0
C1097 C 0.56427 0.8228 0.75039 0.0
H1098 H 0.6218 0.81178 0.66012 0.0
C1099 C 0.53642 0.7909 0.73876 0.0
H1100 H 0.61751 0.85346 0.7312 0.0
C1101 C 0.53913 0.76704 0.69924 0.0
C1102 C 0.56977 0.77386 0.6701 0.0
H1103 H 0.51209 0.78447 0.75878 0.0
H1104 H 0.51665 0.74348 0.68876 0.0
C1105 C 0.59805 0.80522 0.68342 0.0
C1106 C 0.27435 0.77904 0.74134 0.0
C1107 C 0.24208 0.7744 0.75059 0.0
H1108 H 0.32231 0.80701 0.69335 0.0
C1109 C 0.23546 0.79846 0.72134 0.0
H1110 H 0.2809 0.76156 0.76313 0.0
C1111 C 0.25985 0.82521 0.68136 0.0
C1112 C 0.2916 0.82881 0.67045 0.0
H1113 H 0.21106 0.79599 0.7273 0.0
H1114 H 0.25328 0.84196 0.65615 0.0
C1115 C 0.29848 0.80557 0.70198 0.0
C1116 C 0.29662 0.99641 0.63971 0.0
C1117 C 0.29369 0.99618 0.71165 0.0
H1118 H 0.31468 0.98264 0.55193 0.0
C1119 C 0.30971 0.98254 0.75023 0.0
H1120 H 0.28493 1.00677 0.60772 0.0
C1121 C 0.32693 0.96841 0.71747 0.0
C1122 C 0.32871 0.96778 0.64545 0.0
H1123 H 0.30801 0.98175 0.80552 0.0
H1124 H 0.33821 0.95731 0.7485 0.0
C1125 C 0.31379 0.98251 0.60732 0.0
C1126 C 0.0786 0.35748 0.74713 0.0
C1127 C 0.07159 0.32872 0.7095 0.0
H1128 H 0.09799 0.41071 0.74497 0.0
C1129 C 0.07787 0.33236 0.63837 0.0
H1130 H 0.07416 0.35584 0.80176 0.0
C1131 C 0.09141 0.36346 0.60629 0.0
C1132 C 0.09922 0.39228 0.64375 0.0
H1133 H 0.07298 0.31116 0.60684 0.0
H1134 H 0.09639 0.36494 0.55186 0.0
C1135 C 0.09231 0.38895 0.71457 0.0
C1136 C 0.67605 0.73944 0.71832 0.0
C1137 C 0.67357 0.73697 0.64639 0.0
H1138 H 0.70857 0.75874 0.80595 0.0
C1139 C 0.7032 0.75075 0.60807 0.0
H1140 H 0.65367 0.729 0.74942 0.0
C1141 C 0.7344 0.76761 0.64016 0.0
C1142 C 0.7372 0.77136 0.71192 0.0
H1143 H 0.70234 0.74926 0.55273 0.0
H1144 H 0.75647 0.7785 0.60805 0.0
C1145 C 0.70753 0.75637 0.75078 0.0
C1146 C 0.97651 0.31583 0.08272 0.0
C1147 C 0.96005 0.32893 0.0439 0.0
H1148 H 1.00551 0.29112 0.08144 0.0
C1149 C 0.96268 0.32872 0.97195 0.0
H1150 H 0.97506 0.3154 0.13804 0.0
C1151 C 0.98001 0.31493 0.93981 0.0
C1152 C 0.99538 0.30074 0.97822 0.0
H1153 H 0.95065 0.33865 0.93977 0.0
H1154 H 0.98066 0.3147 0.88442 0.0
C1155 C 0.99388 0.3018 0.05022 0.0
C1156 C 0.75068 0.69264 0.08445 0.0
C1157 C 0.73622 0.66292 0.04597 0.0
H1158 H 0.77676 0.74646 0.08242 0.0
C1159 C 0.73521 0.66552 0.97416 0.0
H1160 H 0.75206 0.69175 0.13965 0.0
C1161 C 0.74925 0.69662 0.94166 0.0
C1162 C 0.76489 0.72633 0.97962 0.0
H1163 H 0.72417 0.64339 0.94236 0.0
H1164 H 0.74857 0.69735 0.88631 0.0
C1165 C 0.76496 0.72402 0.05158 0.0
C1166 C 0.34333 0.07236 0.04998 0.0
C1167 C 0.34073 0.07153 0.97802 0.0
H1168 H 0.37584 0.09064 0.13778 0.0
C1169 C 0.37031 0.08763 0.93952 0.0
H1170 H 0.32102 0.06016 0.08124 0.0
C1171 C 0.4015 0.10497 0.97163 0.0
C1172 C 0.40437 0.10689 0.0436 0.0
H1173 H 0.36938 0.08749 0.88414 0.0
H1174 H 0.42347 0.11753 0.93944 0.0
C1175 C 0.3748 0.08976 0.08243 0.0
C1176 C 0.7727 0.07096 0.41526 0.0
C1177 C 0.774 0.06927 0.34328 0.0
H1178 H 0.75603 0.08643 0.50262 0.0
C1179 C 0.75659 0.08132 0.30443 0.0
H1180 H 0.78552 0.06193 0.44753 0.0
C1181 C 0.73947 0.09565 0.33681 0.0
C1182 C 0.73925 0.09812 0.40873 0.0
H1183 H 0.75697 0.08058 0.24909 0.0
H1184 H 0.72699 0.10539 0.30551 0.0
C1185 C 0.75568 0.08509 0.44727 0.0
C1186 C 0.99744 0.73346 0.41544 0.0
C1187 C 0.99728 0.73633 0.34354 0.0
H1188 H 0.98349 0.7013 0.50293 0.0
C1189 C 0.9836 0.70673 0.3047 0.0
H1190 H 1.00782 0.75546 0.44758 0.0
C1191 C 0.96937 0.67525 0.33715 0.0
C1192 C 0.96866 0.67265 0.40911 0.0
H1193 H 0.98286 0.70778 0.24942 0.0
H1194 H 0.95824 0.65293 0.30592 0.0
C1195 C 0.98343 0.70223 0.44755 0.0
C1196 C 0.36439 0.31414 0.44423 0.0
C1197 C 0.39417 0.32888 0.40637 0.0
H1198 H 0.31119 0.28522 0.44342 0.0
C1199 C 0.39197 0.32694 0.33434 0.0
H1200 H 0.365 0.31518 0.49961 0.0
C1201 C 0.36063 0.30957 0.30131 0.0
C1202 C 0.33086 0.29358 0.33972 0.0
H1203 H 0.41448 0.33813 0.30357 0.0
H1204 H 0.35982 0.30761 0.24607 0.0
C1205 C 0.33336 0.29685 0.4116 0.0
C1206 C 0.0705 0.76056 1.0034 0.0
C1207 C 0.07117 0.76378 0.07528 0.0
H1208 H 0.08735 0.74503 0.91523 0.0
C1209 C 0.08848 0.75159 0.11333 0.0
H1210 H 0.05729 0.76963 0.97248 0.0
C1211 C 0.10547 0.73755 0.08091 0.0
C1212 C 0.10594 0.73516 1.00891 0.0
H1213 H 0.08959 0.75356 0.16861 0.0
H1214 H 0.11899 0.72924 0.11296 0.0
C1215 C 0.08765 0.74635 0.97055 0.0
C1216 C 0.31707 0.3741 0.97029 0.0
C1217 C 0.33042 0.40359 1.00948 0.0
H1218 H 0.29206 0.32031 0.97086 0.0
C1219 C 0.33034 0.40052 0.08135 0.0
H1220 H 0.31654 0.37531 0.91501 0.0
C1221 C 0.31644 0.36921 0.11308 0.0
C1222 C 0.30201 0.33973 0.07429 0.0
H1223 H 0.34048 0.42243 0.11373 0.0
H1224 H 0.31634 0.36813 0.16845 0.0
C1225 C 0.30292 0.34254 1.00236 0.0
C1226 C 0.69304 0.9762 0.96993 0.0
C1227 C 0.66335 0.96009 1.00861 0.0
H1228 H 0.74687 1.00482 0.97165 0.0
C1229 C 0.666 0.96316 0.0805 0.0
H1230 H 0.69212 0.9744 0.91467 0.0
C1231 C 0.69711 0.98043 0.11284 0.0
C1232 C 0.7268 0.99531 0.07465 0.0
H1233 H 0.64391 0.95142 0.11251 0.0
H1234 H 0.69787 0.98134 0.16823 0.0
C1235 C 0.72444 0.99353 1.00265 0.0
C1236 C 0.66177 0.63691 0.38528 0.0
C1237 C 0.66281 0.63543 0.31328 0.0
H1238 H 0.64345 0.65102 0.47318 0.0
C1239 C 0.64733 0.6495 0.27489 0.0
H1240 H 0.67354 0.62637 0.41645 0.0
C1241 C 0.63027 0.66354 0.30706 0.0
C1242 C 0.62799 0.66408 0.37904 0.0
H1243 H 0.64765 0.64896 0.2195 0.0
H1244 H 0.61811 0.67332 0.27486 0.0
C1245 C 0.64461 0.65116 0.41784 0.0
C1246 C 0.42961 0.05606 0.38268 0.0
C1247 C 0.43148 0.05878 0.31072 0.0
H1248 H 0.41529 0.02344 0.47043 0.0
C1249 C 0.41807 0.02927 0.27219 0.0
H1250 H 0.43967 0.07831 0.414 0.0
C1251 C 0.40421 0.99804 0.30424 0.0
C1252 C 0.40316 0.99506 0.37623 0.0
H1253 H 0.41895 0.03029 0.21681 0.0
H1254 H 0.39488 0.97615 0.27201 0.0
C1255 C 0.41553 0.02456 0.41508 0.0
C1256 C 0.06739 0.43589 0.30639 0.0
C1257 C 0.07005 0.43885 0.3783 0.0
H1258 H 0.03553 0.41757 0.21868 0.0
C1259 C 0.04038 0.42249 0.41698 0.0
H1260 H 0.08947 0.44782 0.27436 0.0
C1261 C 1.00899 0.40496 0.38428 0.0
C1262 C 1.00661 0.40323 0.31228 0.0
H1263 H 0.0413 0.42419 0.47226 0.0
H1264 H 0.98656 0.39344 0.41531 0.0
C1265 C 0.03629 0.41842 0.27407 0.0
C1266 C 0.42442 0.41681 0.63675 0.0
C1267 C 0.43942 0.40219 0.67554 0.0
H1268 H 0.39683 0.44297 0.63812 0.0
C1269 C 0.43544 0.40102 0.74729 0.0
H1270 H 0.42699 0.41837 0.5816 0.0
C1271 C 0.41829 0.41502 0.77941 0.0
C1272 C 0.40446 0.4308 0.74117 0.0
H1273 H 0.44633 0.38988 0.77936 0.0
H1274 H 0.4166 0.41417 0.83473 0.0
C1275 C 0.40724 0.43105 0.66924 0.0
C1276 C 0.66426 0.06655 0.74653 0.0
C1277 C 0.66458 0.06937 0.67456 0.0
H1278 H 0.64987 0.03455 0.83418 0.0
C1279 C 0.6515 0.03978 0.63582 0.0
H1280 H 0.67416 0.08853 0.77866 0.0
C1281 C 0.6373 1.00833 0.66846 0.0
C1282 C 0.63603 1.00581 0.74048 0.0
H1283 H 0.65119 0.04081 0.5805 0.0
H1284 H 0.62662 0.98598 0.63736 0.0
C1285 C 0.65026 0.03541 0.77878 0.0
C1286 C 0.99841 0.62795 0.74833 0.0
C1287 C 0.99557 0.62534 0.6764 0.0
H1288 H 0.03052 0.64575 0.8358 0.0
C1289 C 1.0252 0.64161 0.63752 0.0
H1290 H 0.97639 0.61605 0.78052 0.0
C1291 C 0.05667 0.6588 0.66995 0.0
C1292 C 0.05923 0.66026 0.74192 0.0
H1293 H 1.02416 0.64018 0.58221 0.0
H1294 H 0.07902 0.6703 0.6387 0.0
C1295 C 0.02962 0.64508 0.78041 0.0
loop_
_geom_bond_atom_site_label_1
_geom_bond_atom_site_label_2
_geom_bond_distance
_geom_bond_site_symmetry_2
_ccdc_geom_bond_type
Co0 H3 2.400 1_545 S
Co0 O4 2.009 1_545 S
Co0 O12 2.115 1_545 S
Co0 O13 2.315 1_545 S
Co0 O24 2.053 1_545 S
Co0 O27 2.094 . S
Co0 O30 2.122 . S
Co1 O4 2.126 1_545 S
Co1 H5 2.388 . S
Co1 O6 2.053 . S
Co1 O9 2.047 . S
Co1 O15 2.113 1_545 S
Co1 O26 2.063 . S
Co2 H3 2.388 . S
Co2 O4 2.053 . S
Co2 O6 2.126 1_565 S
Co2 O11 2.063 . S
Co2 O25 2.047 . S
Co2 O31 2.113 1_565 S
H3 Co0 2.400 1_565 S
H3 Co2 2.388 . S
H3 O4 0.760 . S
O4 Co0 2.009 1_565 S
O4 Co1 2.126 1_565 S
O4 Co2 2.053 . S
O4 H3 0.760 . S
H5 Co1 2.388 . S
H5 O6 0.760 . S
H5 Co7 2.400 . S
O6 Co1 2.053 . S
O6 Co2 2.126 1_545 S
O6 H5 0.760 . S
O6 Co7 2.009 . S
Co7 H5 2.400 . S
Co7 O6 2.009 . S
Co7 O8 2.053 . S
Co7 O10 2.094 1_545 S
Co7 O14 2.122 1_545 S
Co7 O28 2.115 . S
Co7 O29 2.315 . S
O8 Co7 2.053 . S
O8 C20 1.259 . S
O9 Co1 2.047 . S
O9 C20 1.257 . S
O10 Co7 2.094 1_565 S
O10 C21 1.253 . S
O11 Co2 2.063 . S
O11 C21 1.268 . S
O12 Co0 2.115 1_565 S
O12 C22 1.281 . S
O13 Co0 2.315 1_565 S
O13 C22 1.252 . S
O14 Co7 2.122 1_565 S
O14 C23 1.272 . S
O15 Co1 2.113 1_565 S
O15 C23 1.245 . S
C16 O24 1.259 . S
C16 O25 1.257 . S
C17 O26 1.268 . S
C17 O27 1.253 . S
C18 O28 1.281 . S
C18 O29 1.252 . S
C19 O30 1.272 . S
C19 O31 1.245 . S
C20 O8 1.259 . S
C20 O9 1.257 . S
C21 O10 1.253 . S
C21 O11 1.268 . S
C22 O12 1.281 . S
C22 O13 1.252 . S
C23 O14 1.272 . S
C23 O15 1.245 . S
O24 Co0 2.053 1_565 S
O24 C16 1.259 . S
O25 Co2 2.047 . S
O25 C16 1.257 . S
O26 Co1 2.063 . S
O26 C17 1.268 . S
O27 Co0 2.094 . S
O27 C17 1.253 . S
O28 Co7 2.115 . S
O28 C18 1.281 . S
O29 Co7 2.315 . S
O29 C18 1.252 . S
O30 Co0 2.122 . S
O30 C19 1.272 . S
O31 Co2 2.113 1_545 S
O31 C19 1.245 . S
Co32 H35 2.400 . S
Co32 O36 2.009 . S
Co32 O44 2.115 . S
Co32 O45 2.315 . S
Co32 O56 2.053 . S
Co32 O59 2.094 1_455 S
Co32 O62 2.122 1_455 S
Co33 O36 2.126 1_655 S
Co33 H37 2.388 . S
Co33 O38 2.053 . S
Co33 O41 2.047 . S
Co33 O47 2.113 1_655 S
Co33 O58 2.063 . S
Co34 H35 2.388 . S
Co34 O36 2.053 . S
Co34 O38 2.126 1_455 S
Co34 O43 2.063 . S
Co34 O57 2.047 . S
Co34 O63 2.113 1_455 S
H35 Co32 2.400 . S
H35 Co34 2.388 . S
H35 O36 0.760 . S
O36 Co32 2.009 . S
O36 Co33 2.126 1_455 S
O36 Co34 2.053 . S
O36 H35 0.760 . S
H37 Co33 2.388 . S
H37 O38 0.760 . S
H37 Co39 2.400 . S
O38 Co33 2.053 . S
O38 Co34 2.126 1_655 S
O38 H37 0.760 . S
O38 Co39 2.009 . S
Co39 H37 2.400 . S
Co39 O38 2.009 . S
Co39 O40 2.053 . S
Co39 O42 2.094 1_655 S
Co39 O46 2.122 1_655 S
Co39 O60 2.115 . S
Co39 O61 2.315 . S
O40 Co39 2.053 . S
O40 C52 1.259 . S
O41 Co33 2.047 . S
O41 C52 1.257 . S
O42 Co39 2.094 1_455 S
O42 C53 1.253 . S
O43 Co34 2.063 . S
O43 C53 1.268 . S
O44 Co32 2.115 . S
O44 C54 1.281 . S
O45 Co32 2.315 . S
O45 C54 1.252 . S
O46 Co39 2.122 1_455 S
O46 C55 1.272 . S
O47 Co33 2.113 1_455 S
O47 C55 1.245 . S
C48 O56 1.259 . S
C48 O57 1.257 . S
C49 O58 1.268 . S
C49 O59 1.253 . S
C50 O60 1.281 . S
C50 O61 1.252 . S
C51 O62 1.272 . S
C51 O63 1.245 . S
C52 O40 1.259 . S
C52 O41 1.257 . S
C53 O42 1.253 . S
C53 O43 1.268 . S
C54 O44 1.281 . S
C54 O45 1.252 . S
C55 O46 1.272 . S
C55 O47 1.245 . S
O56 Co32 2.053 . S
O56 C48 1.259 . S
O57 Co34 2.047 . S
O57 C48 1.257 . S
O58 Co33 2.063 . S
O58 C49 1.268 . S
O59 Co32 2.094 1_655 S
O59 C49 1.253 . S
O60 Co39 2.115 . S
O60 C50 1.281 . S
O61 Co39 2.315 . S
O61 C50 1.252 . S
O62 Co32 2.122 1_655 S
O62 C51 1.272 . S
O63 Co34 2.113 1_655 S
O63 C51 1.245 . S
Co64 H67 2.400 . S
Co64 O68 2.009 . S
Co64 O76 2.115 . S
Co64 O77 2.315 . S
Co64 O88 2.053 . S
Co64 O91 2.094 . S
Co64 O94 2.122 . S
Co65 O68 2.126 . S
Co65 H69 2.388 . S
Co65 O70 2.053 . S
Co65 O73 2.047 . S
Co65 O79 2.113 . S
Co65 O90 2.063 . S
Co66 H67 2.388 . S
Co66 O68 2.053 . S
Co66 O70 2.126 . S
Co66 O75 2.063 . S
Co66 O89 2.047 . S
Co66 O95 2.113 . S
H67 Co64 2.400 . S
H67 Co66 2.388 . S
H67 O68 0.760 . S
O68 Co64 2.009 . S
O68 Co65 2.126 . S
O68 Co66 2.053 . S
O68 H67 0.760 . S
H69 Co65 2.388 . S
H69 O70 0.760 . S
H69 Co71 2.400 . S
O70 Co65 2.053 . S
O70 Co66 2.126 . S
O70 H69 0.760 . S
O70 Co71 2.009 . S
Co71 H69 2.400 . S
Co71 O70 2.009 . S
Co71 O72 2.053 . S
Co71 O74 2.094 . S
Co71 O78 2.122 . S
Co71 O92 2.115 . S
Co71 O93 2.315 . S
O72 Co71 2.053 . S
O72 C84 1.259 . S
O73 Co65 2.047 . S
O73 C84 1.257 . S
O74 Co71 2.094 . S
O74 C85 1.253 . S
O75 Co66 2.063 . S
O75 C85 1.268 . S
O76 Co64 2.115 . S
O76 C86 1.281 . S
O77 Co64 2.315 . S
O77 C86 1.252 . S
O78 Co71 2.122 . S
O78 C87 1.272 . S
O79 Co65 2.113 . S
O79 C87 1.245 . S
C80 O88 1.259 . S
C80 O89 1.257 . S
C81 O90 1.268 . S
C81 O91 1.253 . S
C82 O92 1.281 . S
C82 O93 1.252 . S
C83 O94 1.272 . S
C83 O95 1.245 . S
C84 O72 1.259 . S
C84 O73 1.257 . S
C85 O74 1.253 . S
C85 O75 1.268 . S
C86 O76 1.281 . S
C86 O77 1.252 . S
C87 O78 1.272 . S
C87 O79 1.245 . S
O88 Co64 2.053 . S
O88 C80 1.259 . S
O89 Co66 2.047 . S
O89 C80 1.257 . S
O90 Co65 2.063 . S
O90 C81 1.268 . S
O91 Co64 2.094 . S
O91 C81 1.253 . S
O92 Co71 2.115 . S
O92 C82 1.281 . S
O93 Co71 2.315 . S
O93 C82 1.252 . S
O94 Co64 2.122 . S
O94 C83 1.272 . S
O95 Co66 2.113 . S
O95 C83 1.245 . S
Co96 H99 2.400 1_545 S
Co96 O100 2.017 . S
Co96 O108 2.115 . S
Co96 O109 2.315 1_545 S
Co96 O120 2.053 1_545 S
Co96 O123 2.094 . S
Co96 O126 2.122 . S
Co97 O100 2.136 . S
Co97 H101 2.388 . S
Co97 O102 2.053 . S
Co97 O105 2.047 . S
Co97 O111 2.138 . S
Co97 O122 2.063 . S
Co98 H99 2.388 . S
Co98 O100 2.044 1_565 S
Co98 O102 2.126 1_565 S
Co98 O107 2.063 . S
Co98 O121 2.047 . S
Co98 O127 2.113 1_565 S
H99 Co96 2.400 1_565 S
H99 Co98 2.388 . S
H99 O100 0.749 1_565 S
O100 Co96 2.017 . S
O100 Co97 2.136 . S
O100 Co98 2.044 1_545 S
O100 H99 0.749 1_545 S
H101 Co97 2.388 . S
H101 O102 0.760 . S
H101 Co103 2.400 . S
O102 Co97 2.053 . S
O102 Co98 2.126 1_545 S
O102 H101 0.760 . S
O102 Co103 2.009 . S
Co103 H101 2.400 . S
Co103 O102 2.009 . S
Co103 O104 2.053 . S
Co103 O106 2.094 1_545 S
Co103 O110 2.122 1_545 S
Co103 O124 2.115 . S
Co103 O125 2.315 . S
O104 Co103 2.053 . S
O104 C116 1.259 . S
O105 Co97 2.047 . S
O105 C116 1.257 . S
O106 Co103 2.094 1_565 S
O106 C117 1.253 . S
O107 Co98 2.063 . S
O107 C117 1.268 . S
O108 Co96 2.115 . S
O108 C118 1.281 1_545 S
O109 Co96 2.315 1_565 S
O109 C118 1.252 . S
O110 Co103 2.122 1_565 S
O110 C119 1.272 . S
O111 Co97 2.138 . S
O111 C119 1.217 1_545 S
C112 O120 1.259 . S
C112 O121 1.257 . S
C113 O122 1.268 . S
C113 O123 1.253 . S
C114 O124 1.281 . S
C114 O125 1.252 . S
C115 O126 1.272 . S
C115 O127 1.245 . S
C116 O104 1.259 . S
C116 O105 1.257 . S
C117 O106 1.253 . S
C117 O107 1.268 . S
C118 O108 1.281 1_565 S
C118 O109 1.252 . S
C119 O110 1.272 . S
C119 O111 1.217 1_565 S
O120 Co96 2.053 1_565 S
O120 C112 1.259 . S
O121 Co98 2.047 . S
O121 C112 1.257 . S
O122 Co97 2.063 . S
O122 C113 1.268 . S
O123 Co96 2.094 . S
O123 C113 1.253 . S
O124 Co103 2.115 . S
O124 C114 1.281 . S
O125 Co103 2.315 . S
O125 C114 1.252 . S
O126 Co96 2.122 . S
O126 C115 1.272 . S
O127 Co98 2.113 1_545 S
O127 C115 1.245 . S
Co128 H131 2.400 . S
Co128 O132 2.009 . S
Co128 O140 2.115 . S
Co128 O141 2.315 . S
Co128 O152 2.053 . S
Co128 O155 2.094 1_455 S
Co128 O158 2.122 1_455 S
Co129 O132 2.126 1_655 S
Co129 H133 2.388 . S
Co129 O134 2.053 . S
Co129 O137 2.047 . S
Co129 O143 2.113 1_655 S
Co129 O154 2.063 . S
Co130 H131 2.388 . S
Co130 O132 2.053 . S
Co130 O134 2.126 1_455 S
Co130 O139 2.063 . S
Co130 O153 2.047 . S
Co130 O159 2.113 1_455 S
H131 Co128 2.400 . S
H131 Co130 2.388 . S
H131 O132 0.760 . S
O132 Co128 2.009 . S
O132 Co129 2.126 1_455 S
O132 Co130 2.053 . S
O132 H131 0.760 . S
H133 Co129 2.388 . S
H133 O134 0.760 . S
H133 Co135 2.400 . S
O134 Co129 2.053 . S
O134 Co130 2.126 1_655 S
O134 H133 0.760 . S
O134 Co135 2.009 . S
Co135 H133 2.400 . S
Co135 O134 2.009 . S
Co135 O136 2.053 . S
Co135 O138 2.094 1_655 S
Co135 O142 2.122 1_655 S
Co135 O156 2.115 . S
Co135 O157 2.315 . S
O136 Co135 2.053 . S
O136 C148 1.259 . S
O137 Co129 2.047 . S
O137 C148 1.257 . S
O138 Co135 2.094 1_455 S
O138 C149 1.253 . S
O139 Co130 2.063 . S
O139 C149 1.268 . S
O140 Co128 2.115 . S
O140 C150 1.281 . S
O141 Co128 2.315 . S
O141 C150 1.252 . S
O142 Co135 2.122 1_455 S
O142 C151 1.272 . S
O143 Co129 2.113 1_455 S
O143 C151 1.245 . S
C144 O152 1.259 . S
C144 O153 1.257 . S
C145 O154 1.268 . S
C145 O155 1.253 . S
C146 O156 1.281 . S
C146 O157 1.252 . S
C147 O158 1.272 . S
C147 O159 1.245 . S
C148 O136 1.259 . S
C148 O137 1.257 . S
C149 O138 1.253 . S
C149 O139 1.268 . S
C150 O140 1.281 . S
C150 O141 1.252 . S
C151 O142 1.272 . S
C151 O143 1.245 . S
O152 Co128 2.053 . S
O152 C144 1.259 . S
O153 Co130 2.047 . S
O153 C144 1.257 . S
O154 Co129 2.063 . S
O154 C145 1.268 . S
O155 Co128 2.094 1_655 S
O155 C145 1.253 . S
O156 Co135 2.115 . S
O156 C146 1.281 . S
O157 Co135 2.315 . S
O157 C146 1.252 . S
O158 Co128 2.122 1_655 S
O158 C147 1.272 . S
O159 Co130 2.113 1_655 S
O159 C147 1.245 . S
Co160 H163 2.400 . S
Co160 O164 2.009 . S
Co160 O172 2.115 . S
Co160 O173 2.315 . S
Co160 O184 2.053 . S
Co160 O187 2.094 . S
Co160 O190 2.122 . S
Co161 O164 2.126 . S
Co161 H165 2.388 . S
Co161 O166 2.053 . S
Co161 O169 2.047 . S
Co161 O175 2.113 . S
Co161 O186 2.063 . S
Co162 H163 2.388 . S
Co162 O164 2.053 . S
Co162 O166 2.126 . S
Co162 O171 2.063 . S
Co162 O185 2.047 . S
Co162 O191 2.113 . S
H163 Co160 2.400 . S
H163 Co162 2.388 . S
H163 O164 0.760 . S
O164 Co160 2.009 . S
O164 Co161 2.126 . S
O164 Co162 2.053 . S
O164 H163 0.760 . S
H165 Co161 2.388 . S
H165 O166 0.760 . S
H165 Co167 2.400 . S
O166 Co161 2.053 . S
O166 Co162 2.126 . S
O166 H165 0.760 . S
O166 Co167 2.009 . S
Co167 H165 2.400 . S
Co167 O166 2.009 . S
Co167 O168 2.053 . S
Co167 O170 2.094 . S
Co167 O174 2.122 . S
Co167 O188 2.115 . S
Co167 O189 2.315 . S
O168 Co167 2.053 . S
O168 C180 1.259 . S
O169 Co161 2.047 . S
O169 C180 1.257 . S
O170 Co167 2.094 . S
O170 C181 1.253 . S
O171 Co162 2.063 . S
O171 C181 1.268 . S
O172 Co160 2.115 . S
O172 C182 1.281 . S
O173 Co160 2.315 . S
O173 C182 1.252 . S
O174 Co167 2.122 . S
O174 C183 1.272 . S
O175 Co161 2.113 . S
O175 C183 1.245 . S
C176 O184 1.259 . S
C176 O185 1.257 . S
C177 O186 1.268 . S
C177 O187 1.253 . S
C178 O188 1.281 . S
C178 O189 1.252 . S
C179 O190 1.272 . S
C179 O191 1.245 . S
C180 O168 1.259 . S
C180 O169 1.257 . S
C181 O170 1.253 . S
C181 O171 1.268 . S
C182 O172 1.281 . S
C182 O173 1.252 . S
C183 O174 1.272 . S
C183 O175 1.245 . S
O184 Co160 2.053 . S
O184 C176 1.259 . S
O185 Co162 2.047 . S
O185 C176 1.257 . S
O186 Co161 2.063 . S
O186 C177 1.268 . S
O187 Co160 2.094 . S
O187 C177 1.253 . S
O188 Co167 2.115 . S
O188 C178 1.281 . S
O189 Co167 2.315 . S
O189 C178 1.252 . S
O190 Co160 2.122 . S
O190 C179 1.272 . S
O191 Co162 2.113 . S
O191 C179 1.245 . S
Co192 H195 2.400 1_556 S
Co192 O196 2.009 1_556 S
Co192 O204 2.115 . S
Co192 O205 2.315 1_556 S
Co192 O216 2.053 . S
Co192 O219 2.094 1_556 S
Co192 O222 2.122 . S
Co193 O196 2.126 . S
Co193 H197 2.388 . S
Co193 O198 2.053 . S
Co193 O201 2.047 . S
Co193 O207 2.113 . S
Co193 O218 2.063 . S
Co194 H195 2.388 . S
Co194 O196 2.053 . S
Co194 O198 2.126 . S
Co194 O203 2.063 . S
Co194 O217 2.047 1_554 S
Co194 O223 2.113 1_554 S
H195 Co192 2.400 1_554 S
H195 Co194 2.388 . S
H195 O196 0.760 . S
O196 Co192 2.009 1_554 S
O196 Co193 2.126 . S
O196 Co194 2.053 . S
O196 H195 0.760 . S
H197 Co193 2.388 . S
H197 O198 0.760 . S
H197 Co199 2.400 . S
O198 Co193 2.053 . S
O198 Co194 2.126 . S
O198 H197 0.760 . S
O198 Co199 2.009 . S
Co199 H197 2.400 . S
Co199 O198 2.009 . S
Co199 O200 2.053 . S
Co199 O202 2.094 . S
Co199 O206 2.122 . S
Co199 O220 2.115 . S
Co199 O221 2.315 . S
O200 Co199 2.053 . S
O200 C212 1.259 . S
O201 Co193 2.047 . S
O201 C212 1.257 . S
O202 Co199 2.094 . S
O202 C213 1.253 . S
O203 Co194 2.063 . S
O203 C213 1.268 . S
O204 Co192 2.115 . S
O204 C214 1.281 . S
O205 Co192 2.315 1_554 S
O205 C214 1.252 1_554 S
O206 Co199 2.122 . S
O206 C215 1.272 . S
O207 Co193 2.113 . S
O207 C215 1.245 . S
C208 O216 1.259 . S
C208 O217 1.257 . S
C209 O218 1.268 . S
C209 O219 1.253 . S
C210 O220 1.281 . S
C210 O221 1.252 . S
C211 O222 1.272 . S
C211 O223 1.245 . S
C212 O200 1.259 . S
C212 O201 1.257 . S
C213 O202 1.253 . S
C213 O203 1.268 . S
C214 O204 1.281 . S
C214 O205 1.252 1_556 S
C215 O206 1.272 . S
C215 O207 1.245 . S
O216 Co192 2.053 . S
O216 C208 1.259 . S
O217 Co194 2.047 1_556 S
O217 C208 1.257 . S
O218 Co193 2.063 . S
O218 C209 1.268 . S
O219 Co192 2.094 1_554 S
O219 C209 1.253 . S
O220 Co199 2.115 . S
O220 C210 1.281 . S
O221 Co199 2.315 . S
O221 C210 1.252 . S
O222 Co192 2.122 . S
O222 C211 1.272 . S
O223 Co194 2.113 1_556 S
O223 C211 1.245 . S
Co224 H227 2.400 1_556 S
Co224 O228 2.009 1_556 S
Co224 O236 2.115 . S
Co224 O237 2.315 1_556 S
Co224 O248 2.053 . S
Co224 O251 2.094 1_556 S
Co224 O254 2.122 . S
Co225 O228 2.126 . S
Co225 H229 2.388 . S
Co225 O230 2.053 . S
Co225 O233 2.047 . S
Co225 O239 2.113 . S
Co225 O250 2.063 . S
Co226 H227 2.388 . S
Co226 O228 2.053 . S
Co226 O230 2.126 . S
Co226 O235 2.063 . S
Co226 O249 2.047 1_554 S
Co226 O255 2.113 1_554 S
H227 Co224 2.400 1_554 S
H227 Co226 2.388 . S
H227 O228 0.760 . S
O228 Co224 2.009 1_554 S
O228 Co225 2.126 . S
O228 Co226 2.053 . S
O228 H227 0.760 . S
H229 Co225 2.388 . S
H229 O230 0.760 . S
H229 Co231 2.400 . S
O230 Co225 2.053 . S
O230 Co226 2.126 . S
O230 H229 0.760 . S
O230 Co231 2.009 . S
Co231 H229 2.400 . S
Co231 O230 2.009 . S
Co231 O232 2.053 . S
Co231 O234 2.094 . S
Co231 O238 2.122 . S
Co231 O252 2.115 . S
Co231 O253 2.315 . S
O232 Co231 2.053 . S
O232 C244 1.259 . S
O233 Co225 2.047 . S
O233 C244 1.257 . S
O234 Co231 2.094 . S
O234 C245 1.253 . S
O235 Co226 2.063 . S
O235 C245 1.268 . S
O236 Co224 2.115 . S
O236 C246 1.281 . S
O237 Co224 2.315 1_554 S
O237 C246 1.252 1_554 S
O238 Co231 2.122 . S
O238 C247 1.272 . S
O239 Co225 2.113 . S
O239 C247 1.245 . S
C240 O248 1.259 . S
C240 O249 1.257 . S
C241 O250 1.268 . S
C241 O251 1.253 . S
C242 O252 1.281 . S
C242 O253 1.252 . S
C243 O254 1.272 . S
C243 O255 1.245 . S
C244 O232 1.259 . S
C244 O233 1.257 . S
C245 O234 1.253 . S
C245 O235 1.268 . S
C246 O236 1.281 . S
C246 O237 1.252 1_556 S
C247 O238 1.272 . S
C247 O239 1.245 . S
O248 Co224 2.053 . S
O248 C240 1.259 . S
O249 Co226 2.047 1_556 S
O249 C240 1.257 . S
O250 Co225 2.063 . S
O250 C241 1.268 . S
O251 Co224 2.094 1_554 S
O251 C241 1.253 . S
O252 Co231 2.115 . S
O252 C242 1.281 . S
O253 Co231 2.315 . S
O253 C242 1.252 . S
O254 Co224 2.122 . S
O254 C243 1.272 . S
O255 Co226 2.113 1_556 S
O255 C243 1.245 . S
Co256 H259 2.400 1_556 S
Co256 O260 2.009 1_556 S
Co256 O268 2.115 . S
Co256 O269 2.315 1_556 S
Co256 O280 2.053 . S
Co256 O283 2.094 1_556 S
Co256 O286 2.122 . S
Co257 O260 2.126 . S
Co257 H261 2.388 . S
Co257 O262 2.053 . S
Co257 O265 2.047 . S
Co257 O271 2.113 . S
Co257 O282 2.063 . S
Co258 H259 2.388 . S
Co258 O260 2.053 . S
Co258 O262 2.126 . S
Co258 O267 2.063 . S
Co258 O281 2.047 1_554 S
Co258 O287 2.113 1_554 S
H259 Co256 2.400 1_554 S
H259 Co258 2.388 . S
H259 O260 0.760 . S
O260 Co256 2.009 1_554 S
O260 Co257 2.126 . S
O260 Co258 2.053 . S
O260 H259 0.760 . S
H261 Co257 2.388 . S
H261 O262 0.760 . S
H261 Co263 2.400 . S
O262 Co257 2.053 . S
O262 Co258 2.126 . S
O262 H261 0.760 . S
O262 Co263 2.009 . S
Co263 H261 2.400 . S
Co263 O262 2.009 . S
Co263 O264 2.053 . S
Co263 O266 2.094 . S
Co263 O270 2.122 . S
Co263 O284 2.115 . S
Co263 O285 2.315 . S
O264 Co263 2.053 . S
O264 C276 1.259 . S
O265 Co257 2.047 . S
O265 C276 1.257 . S
O266 Co263 2.094 . S
O266 C277 1.253 . S
O267 Co258 2.063 . S
O267 C277 1.268 . S
O268 Co256 2.115 . S
O268 C278 1.281 . S
O269 Co256 2.315 1_554 S
O269 C278 1.252 1_554 S
O270 Co263 2.122 . S
O270 C279 1.272 . S
O271 Co257 2.113 . S
O271 C279 1.245 . S
C272 O280 1.259 . S
C272 O281 1.257 . S
C273 O282 1.268 . S
C273 O283 1.253 . S
C274 O284 1.281 . S
C274 O285 1.252 . S
C275 O286 1.272 . S
C275 O287 1.245 . S
C276 O264 1.259 . S
C276 O265 1.257 . S
C277 O266 1.253 . S
C277 O267 1.268 . S
C278 O268 1.281 . S
C278 O269 1.252 1_556 S
C279 O270 1.272 . S
C279 O271 1.245 . S
O280 Co256 2.053 . S
O280 C272 1.259 . S
O281 Co258 2.047 1_556 S
O281 C272 1.257 . S
O282 Co257 2.063 . S
O282 C273 1.268 . S
O283 Co256 2.094 1_554 S
O283 C273 1.253 . S
O284 Co263 2.115 . S
O284 C274 1.281 . S
O285 Co263 2.315 . S
O285 C274 1.252 . S
O286 Co256 2.122 . S
O286 C275 1.272 . S
O287 Co258 2.113 1_556 S
O287 C275 1.245 . S
Co288 H291 2.400 . S
Co288 O292 2.009 . S
Co288 O300 2.115 . S
Co288 O301 2.315 . S
Co288 O312 2.053 . S
Co288 O315 2.094 . S
Co288 O318 2.122 . S
Co289 O292 2.126 . S
Co289 H293 2.388 . S
Co289 O294 2.053 . S
Co289 O297 2.047 . S
Co289 O303 2.113 . S
Co289 O314 2.063 . S
Co290 H291 2.388 . S
Co290 O292 2.053 . S
Co290 O294 2.126 . S
Co290 O299 2.063 . S
Co290 O313 2.047 . S
Co290 O319 2.113 . S
H291 Co288 2.400 . S
H291 Co290 2.388 . S
H291 O292 0.760 . S
O292 Co288 2.009 . S
O292 Co289 2.126 . S
O292 Co290 2.053 . S
O292 H291 0.760 . S
H293 Co289 2.388 . S
H293 O294 0.760 . S
H293 Co295 2.400 . S
O294 Co289 2.053 . S
O294 Co290 2.126 . S
O294 H293 0.760 . S
O294 Co295 2.009 . S
Co295 H293 2.400 . S
Co295 O294 2.009 . S
Co295 O296 2.053 . S
Co295 O298 2.094 . S
Co295 O302 2.122 . S
Co295 O316 2.115 . S
Co295 O317 2.315 . S
O296 Co295 2.053 . S
O296 C308 1.259 . S
O297 Co289 2.047 . S
O297 C308 1.257 . S
O298 Co295 2.094 . S
O298 C309 1.253 . S
O299 Co290 2.063 . S
O299 C309 1.268 . S
O300 Co288 2.115 . S
O300 C310 1.281 . S
O301 Co288 2.315 . S
O301 C310 1.252 . S
O302 Co295 2.122 . S
O302 C311 1.272 . S
O303 Co289 2.113 . S
O303 C311 1.245 . S
C304 O312 1.259 . S
C304 O313 1.257 . S
C305 O314 1.268 . S
C305 O315 1.253 . S
C306 O316 1.281 . S
C306 O317 1.252 . S
C307 O318 1.272 . S
C307 O319 1.245 . S
C308 O296 1.259 . S
C308 O297 1.257 . S
C309 O298 1.253 . S
C309 O299 1.268 . S
C310 O300 1.281 . S
C310 O301 1.252 . S
C311 O302 1.272 . S
C311 O303 1.245 . S
O312 Co288 2.053 . S
O312 C304 1.259 . S
O313 Co290 2.047 . S
O313 C304 1.257 . S
O314 Co289 2.063 . S
O314 C305 1.268 . S
O315 Co288 2.094 . S
O315 C305 1.253 . S
O316 Co295 2.115 . S
O316 C306 1.281 . S
O317 Co295 2.315 . S
O317 C306 1.252 . S
O318 Co288 2.122 . S
O318 C307 1.272 . S
O319 Co290 2.113 . S
O319 C307 1.245 . S
Co320 H323 2.400 . S
Co320 O324 2.009 . S
Co320 O332 2.115 . S
Co320 O333 2.315 . S
Co320 O344 2.053 . S
Co320 O347 2.094 . S
Co320 O350 2.122 . S
Co321 O324 2.126 . S
Co321 H325 2.388 . S
Co321 O326 2.053 . S
Co321 O329 2.047 . S
Co321 O335 2.113 . S
Co321 O346 2.063 . S
Co322 H323 2.388 . S
Co322 O324 2.053 . S
Co322 O326 2.126 . S
Co322 O331 2.063 . S
Co322 O345 2.047 . S
Co322 O351 2.113 . S
H323 Co320 2.400 . S
H323 Co322 2.388 . S
H323 O324 0.760 . S
O324 Co320 2.009 . S
O324 Co321 2.126 . S
O324 Co322 2.053 . S
O324 H323 0.760 . S
H325 Co321 2.388 . S
H325 O326 0.760 . S
H325 Co327 2.400 . S
O326 Co321 2.053 . S
O326 Co322 2.126 . S
O326 H325 0.760 . S
O326 Co327 2.009 . S
Co327 H325 2.400 . S
Co327 O326 2.009 . S
Co327 O328 2.053 . S
Co327 O330 2.094 . S
Co327 O334 2.122 . S
Co327 O348 2.115 . S
Co327 O349 2.315 . S
O328 Co327 2.053 . S
O328 C340 1.259 . S
O329 Co321 2.047 . S
O329 C340 1.257 . S
O330 Co327 2.094 . S
O330 C341 1.253 . S
O331 Co322 2.063 . S
O331 C341 1.268 . S
O332 Co320 2.115 . S
O332 C342 1.281 . S
O333 Co320 2.315 . S
O333 C342 1.252 . S
O334 Co327 2.122 . S
O334 C343 1.272 . S
O335 Co321 2.113 . S
O335 C343 1.245 . S
C336 O344 1.259 . S
C336 O345 1.257 . S
C337 O346 1.268 . S
C337 O347 1.253 . S
C338 O348 1.281 . S
C338 O349 1.252 . S
C339 O350 1.272 . S
C339 O351 1.245 . S
C340 O328 1.259 . S
C340 O329 1.257 . S
C341 O330 1.253 . S
C341 O331 1.268 . S
C342 O332 1.281 . S
C342 O333 1.252 . S
C343 O334 1.272 . S
C343 O335 1.245 . S
O344 Co320 2.053 . S
O344 C336 1.259 . S
O345 Co322 2.047 . S
O345 C336 1.257 . S
O346 Co321 2.063 . S
O346 C337 1.268 . S
O347 Co320 2.094 . S
O347 C337 1.253 . S
O348 Co327 2.115 . S
O348 C338 1.281 . S
O349 Co327 2.315 . S
O349 C338 1.252 . S
O350 Co320 2.122 . S
O350 C339 1.272 . S
O351 Co322 2.113 . S
O351 C339 1.245 . S
Co352 H355 2.400 . S
Co352 O356 2.009 . S
Co352 O364 2.115 . S
Co352 O365 2.315 . S
Co352 O376 2.053 . S
Co352 O379 2.094 . S
Co352 O382 2.122 . S
Co353 O356 2.126 . S
Co353 H357 2.388 . S
Co353 O358 2.053 . S
Co353 O361 2.047 . S
Co353 O367 2.113 . S
Co353 O378 2.063 . S
Co354 H355 2.388 . S
Co354 O356 2.053 . S
Co354 O358 2.126 . S
Co354 O363 2.063 . S
Co354 O377 2.047 . S
Co354 O383 2.113 . S
H355 Co352 2.400 . S
H355 Co354 2.388 . S
H355 O356 0.760 . S
O356 Co352 2.009 . S
O356 Co353 2.126 . S
O356 Co354 2.053 . S
O356 H355 0.760 . S
H357 Co353 2.388 . S
H357 O358 0.760 . S
H357 Co359 2.400 . S
O358 Co353 2.053 . S
O358 Co354 2.126 . S
O358 H357 0.760 . S
O358 Co359 2.009 . S
Co359 H357 2.400 . S
Co359 O358 2.009 . S
Co359 O360 2.053 . S
Co359 O362 2.094 . S
Co359 O366 2.122 . S
Co359 O380 2.115 . S
Co359 O381 2.315 . S
O360 Co359 2.053 . S
O360 C372 1.259 . S
O361 Co353 2.047 . S
O361 C372 1.257 . S
O362 Co359 2.094 . S
O362 C373 1.253 . S
O363 Co354 2.063 . S
O363 C373 1.268 . S
O364 Co352 2.115 . S
O364 C374 1.281 . S
O365 Co352 2.315 . S
O365 C374 1.252 . S
O366 Co359 2.122 . S
O366 C375 1.272 . S
O367 Co353 2.113 . S
O367 C375 1.245 . S
C368 O376 1.259 . S
C368 O377 1.257 . S
C369 O378 1.268 . S
C369 O379 1.253 . S
C370 O380 1.281 . S
C370 O381 1.252 . S
C371 O382 1.272 . S
C371 O383 1.245 . S
C372 O360 1.259 . S
C372 O361 1.257 . S
C373 O362 1.253 . S
C373 O363 1.268 . S
C374 O364 1.281 . S
C374 O365 1.252 . S
C375 O366 1.272 . S
C375 O367 1.245 . S
O376 Co352 2.053 . S
O376 C368 1.259 . S
O377 Co354 2.047 . S
O377 C368 1.257 . S
O378 Co353 2.063 . S
O378 C369 1.268 . S
O379 Co352 2.094 . S
O379 C369 1.253 . S
O380 Co359 2.115 . S
O380 C370 1.281 . S
O381 Co359 2.315 . S
O381 C370 1.252 . S
O382 Co352 2.122 . S
O382 C371 1.272 . S
O383 Co354 2.113 . S
O383 C371 1.245 . S
Co384 H387 2.400 . S
Co384 O388 2.009 . S
Co384 O396 2.115 . S
Co384 O397 2.315 . S
Co384 O408 2.053 . S
Co384 O411 2.094 . S
Co384 O414 2.122 . S
Co385 O388 2.126 . S
Co385 H389 2.388 . S
Co385 O390 2.053 . S
Co385 O393 2.047 . S
Co385 O399 2.113 . S
Co385 O410 2.063 . S
Co386 H387 2.388 . S
Co386 O388 2.053 . S
Co386 O390 2.126 . S
Co386 O395 2.063 . S
Co386 O409 2.047 . S
Co386 O415 2.113 . S
H387 Co384 2.400 . S
H387 Co386 2.388 . S
H387 O388 0.760 . S
O388 Co384 2.009 . S
O388 Co385 2.126 . S
O388 Co386 2.053 . S
O388 H387 0.760 . S
H389 Co385 2.388 . S
H389 O390 0.760 . S
H389 Co391 2.400 . S
O390 Co385 2.053 . S
O390 Co386 2.126 . S
O390 H389 0.760 . S
O390 Co391 2.009 . S
Co391 H389 2.400 . S
Co391 O390 2.009 . S
Co391 O392 2.053 . S
Co391 O394 2.094 . S
Co391 O398 2.122 . S
Co391 O412 2.115 . S
Co391 O413 2.315 . S
O392 Co391 2.053 . S
O392 C404 1.259 . S
O393 Co385 2.047 . S
O393 C404 1.257 . S
O394 Co391 2.094 . S
O394 C405 1.253 . S
O395 Co386 2.063 . S
O395 C405 1.268 . S
O396 Co384 2.115 . S
O396 C406 1.281 . S
O397 Co384 2.315 . S
O397 C406 1.252 . S
O398 Co391 2.122 . S
O398 C407 1.272 . S
O399 Co385 2.113 . S
O399 C407 1.245 . S
C400 O408 1.259 . S
C400 O409 1.257 . S
C401 O410 1.268 . S
C401 O411 1.253 . S
C402 O412 1.281 . S
C402 O413 1.252 . S
C403 O414 1.272 . S
C403 O415 1.245 . S
C404 O392 1.259 . S
C404 O393 1.257 . S
C405 O394 1.253 . S
C405 O395 1.268 . S
C406 O396 1.281 . S
C406 O397 1.252 . S
C407 O398 1.272 . S
C407 O399 1.245 . S
O408 Co384 2.053 . S
O408 C400 1.259 . S
O409 Co386 2.047 . S
O409 C400 1.257 . S
O410 Co385 2.063 . S
O410 C401 1.268 . S
O411 Co384 2.094 . S
O411 C401 1.253 . S
O412 Co391 2.115 . S
O412 C402 1.281 . S
O413 Co391 2.315 . S
O413 C402 1.252 . S
O414 Co384 2.122 . S
O414 C403 1.272 . S
O415 Co386 2.113 . S
O415 C403 1.245 . S
Co416 H419 2.400 . S
Co416 O420 2.009 . S
Co416 O428 2.115 . S
Co416 O429 2.315 . S
Co416 O440 2.053 . S
Co416 O443 2.094 . S
Co416 O446 2.122 . S
Co417 O420 2.126 . S
Co417 H421 2.388 . S
Co417 O422 2.053 . S
Co417 O425 2.047 . S
Co417 O431 2.113 . S
Co417 O442 2.063 . S
Co418 H419 2.388 . S
Co418 O420 2.053 . S
Co418 O422 2.126 . S
Co418 O427 2.063 . S
Co418 O441 2.047 . S
Co418 O447 2.113 . S
H419 Co416 2.400 . S
H419 Co418 2.388 . S
H419 O420 0.760 . S
O420 Co416 2.009 . S
O420 Co417 2.126 . S
O420 Co418 2.053 . S
O420 H419 0.760 . S
H421 Co417 2.388 . S
H421 O422 0.760 . S
H421 Co423 2.400 . S
O422 Co417 2.053 . S
O422 Co418 2.126 . S
O422 H421 0.760 . S
O422 Co423 2.009 . S
Co423 H421 2.400 . S
Co423 O422 2.009 . S
Co423 O424 2.053 . S
Co423 O426 2.094 . S
Co423 O430 2.122 . S
Co423 O444 2.115 . S
Co423 O445 2.315 . S
O424 Co423 2.053 . S
O424 C436 1.259 . S
O425 Co417 2.047 . S
O425 C436 1.257 . S
O426 Co423 2.094 . S
O426 C437 1.253 . S
O427 Co418 2.063 . S
O427 C437 1.268 . S
O428 Co416 2.115 . S
O428 C438 1.281 . S
O429 Co416 2.315 . S
O429 C438 1.252 . S
O430 Co423 2.122 . S
O430 C439 1.272 . S
O431 Co417 2.113 . S
O431 C439 1.245 . S
C432 O440 1.259 . S
C432 O441 1.257 . S
C433 O442 1.268 . S
C433 O443 1.253 . S
C434 O444 1.281 . S
C434 O445 1.252 . S
C435 O446 1.272 . S
C435 O447 1.245 . S
C436 O424 1.259 . S
C436 O425 1.257 . S
C437 O426 1.253 . S
C437 O427 1.268 . S
C438 O428 1.281 . S
C438 O429 1.252 . S
C439 O430 1.272 . S
C439 O431 1.245 . S
O440 Co416 2.053 . S
O440 C432 1.259 . S
O441 Co418 2.047 . S
O441 C432 1.257 . S
O442 Co417 2.063 . S
O442 C433 1.268 . S
O443 Co416 2.094 . S
O443 C433 1.253 . S
O444 Co423 2.115 . S
O444 C434 1.281 . S
O445 Co423 2.315 . S
O445 C434 1.252 . S
O446 Co416 2.122 . S
O446 C435 1.272 . S
O447 Co418 2.113 . S
O447 C435 1.245 . S
Co448 H451 2.400 . S
Co448 O452 2.009 . S
Co448 O460 2.115 . S
Co448 O461 2.315 . S
Co448 O472 2.053 . S
Co448 O475 2.094 . S
Co448 O478 2.122 . S
Co449 O452 2.126 . S
Co449 H453 2.388 . S
Co449 O454 2.053 . S
Co449 O457 2.047 . S
Co449 O463 2.113 . S
Co449 O474 2.063 . S
Co450 H451 2.388 . S
Co450 O452 2.053 . S
Co450 O454 2.126 . S
Co450 O459 2.063 . S
Co450 O473 2.047 . S
Co450 O479 2.113 . S
H451 Co448 2.400 . S
H451 Co450 2.388 . S
H451 O452 0.760 . S
O452 Co448 2.009 . S
O452 Co449 2.126 . S
O452 Co450 2.053 . S
O452 H451 0.760 . S
H453 Co449 2.388 . S
H453 O454 0.760 . S
H453 Co455 2.400 . S
O454 Co449 2.053 . S
O454 Co450 2.126 . S
O454 H453 0.760 . S
O454 Co455 2.009 . S
Co455 H453 2.400 . S
Co455 O454 2.009 . S
Co455 O456 2.053 . S
Co455 O458 2.094 . S
Co455 O462 2.122 . S
Co455 O476 2.115 . S
Co455 O477 2.315 . S
O456 Co455 2.053 . S
O456 C468 1.259 . S
O457 Co449 2.047 . S
O457 C468 1.257 . S
O458 Co455 2.094 . S
O458 C469 1.253 . S
O459 Co450 2.063 . S
O459 C469 1.268 . S
O460 Co448 2.115 . S
O460 C470 1.281 . S
O461 Co448 2.315 . S
O461 C470 1.252 . S
O462 Co455 2.122 . S
O462 C471 1.272 . S
O463 Co449 2.113 . S
O463 C471 1.245 . S
C464 O472 1.259 . S
C464 O473 1.257 . S
C465 O474 1.268 . S
C465 O475 1.253 . S
C466 O476 1.281 . S
C466 O477 1.252 . S
C467 O478 1.272 . S
C467 O479 1.245 . S
C468 O456 1.259 . S
C468 O457 1.257 . S
C469 O458 1.253 . S
C469 O459 1.268 . S
C470 O460 1.281 . S
C470 O461 1.252 . S
C471 O462 1.272 . S
C471 O463 1.245 . S
O472 Co448 2.053 . S
O472 C464 1.259 . S
O473 Co450 2.047 . S
O473 C464 1.257 . S
O474 Co449 2.063 . S
O474 C465 1.268 . S
O475 Co448 2.094 . S
O475 C465 1.253 . S
O476 Co455 2.115 . S
O476 C466 1.281 . S
O477 Co455 2.315 . S
O477 C466 1.252 . S
O478 Co448 2.122 . S
O478 C467 1.272 . S
O479 Co450 2.113 . S
O479 C467 1.245 . S
Co480 H483 2.400 . S
Co480 O484 2.009 . S
Co480 O492 2.115 . S
Co480 O493 2.315 . S
Co480 O504 2.053 . S
Co480 O507 2.094 . S
Co480 O510 2.122 . S
Co481 O484 2.126 . S
Co481 H485 2.388 . S
Co481 O486 2.053 . S
Co481 O489 2.047 1_556 S
Co481 O495 2.113 1_556 S
Co481 O506 2.063 . S
Co482 H483 2.388 . S
Co482 O484 2.053 . S
Co482 O486 2.126 . S
Co482 O491 2.063 . S
Co482 O505 2.047 . S
Co482 O511 2.113 . S
H483 Co480 2.400 . S
H483 Co482 2.388 . S
H483 O484 0.760 . S
O484 Co480 2.009 . S
O484 Co481 2.126 . S
O484 Co482 2.053 . S
O484 H483 0.760 . S
H485 Co481 2.388 . S
H485 O486 0.760 . S
H485 Co487 2.400 1_556 S
O486 Co481 2.053 . S
O486 Co482 2.126 . S
O486 H485 0.760 . S
O486 Co487 2.009 1_556 S
Co487 H485 2.400 1_554 S
Co487 O486 2.009 1_554 S
Co487 O488 2.053 . S
Co487 O490 2.094 1_554 S
Co487 O494 2.122 . S
Co487 O508 2.115 . S
Co487 O509 2.315 1_554 S
O488 Co487 2.053 . S
O488 C500 1.259 . S
O489 Co481 2.047 1_554 S
O489 C500 1.257 . S
O490 Co487 2.094 1_556 S
O490 C501 1.253 . S
O491 Co482 2.063 . S
O491 C501 1.268 . S
O492 Co480 2.115 . S
O492 C502 1.281 . S
O493 Co480 2.315 . S
O493 C502 1.252 . S
O494 Co487 2.122 . S
O494 C503 1.272 . S
O495 Co481 2.113 1_554 S
O495 C503 1.245 . S
C496 O504 1.259 . S
C496 O505 1.257 . S
C497 O506 1.268 . S
C497 O507 1.253 . S
C498 O508 1.281 . S
C498 O509 1.252 1_554 S
C499 O510 1.272 . S
C499 O511 1.245 . S
C500 O488 1.259 . S
C500 O489 1.257 . S
C501 O490 1.253 . S
C501 O491 1.268 . S
C502 O492 1.281 . S
C502 O493 1.252 . S
C503 O494 1.272 . S
C503 O495 1.245 . S
O504 Co480 2.053 . S
O504 C496 1.259 . S
O505 Co482 2.047 . S
O505 C496 1.257 . S
O506 Co481 2.063 . S
O506 C497 1.268 . S
O507 Co480 2.094 . S
O507 C497 1.253 . S
O508 Co487 2.115 . S
O508 C498 1.281 . S
O509 Co487 2.315 1_556 S
O509 C498 1.252 1_556 S
O510 Co480 2.122 . S
O510 C499 1.272 . S
O511 Co482 2.113 . S
O511 C499 1.245 . S
Co512 H515 2.400 . S
Co512 O516 2.009 . S
Co512 O524 2.115 . S
Co512 O525 2.315 . S
Co512 O536 2.053 . S
Co512 O539 2.094 . S
Co512 O542 2.122 . S
Co513 O516 2.126 . S
Co513 H517 2.388 . S
Co513 O518 2.053 . S
Co513 O521 2.047 1_556 S
Co513 O527 2.113 1_556 S
Co513 O538 2.063 . S
Co514 H515 2.388 . S
Co514 O516 2.053 . S
Co514 O518 2.126 . S
Co514 O523 2.063 . S
Co514 O537 2.047 . S
Co514 O543 2.113 . S
H515 Co512 2.400 . S
H515 Co514 2.388 . S
H515 O516 0.760 . S
O516 Co512 2.009 . S
O516 Co513 2.126 . S
O516 Co514 2.053 . S
O516 H515 0.760 . S
H517 Co513 2.388 . S
H517 O518 0.760 . S
H517 Co519 2.400 1_556 S
O518 Co513 2.053 . S
O518 Co514 2.126 . S
O518 H517 0.760 . S
O518 Co519 2.009 1_556 S
Co519 H517 2.400 1_554 S
Co519 O518 2.009 1_554 S
Co519 O520 2.053 . S
Co519 O522 2.094 1_554 S
Co519 O526 2.122 . S
Co519 O540 2.115 . S
Co519 O541 2.315 1_554 S
O520 Co519 2.053 . S
O520 C532 1.259 . S
O521 Co513 2.047 1_554 S
O521 C532 1.257 . S
O522 Co519 2.094 1_556 S
O522 C533 1.253 . S
O523 Co514 2.063 . S
O523 C533 1.268 . S
O524 Co512 2.115 . S
O524 C534 1.281 . S
O525 Co512 2.315 . S
O525 C534 1.252 . S
O526 Co519 2.122 . S
O526 C535 1.272 . S
O527 Co513 2.113 1_554 S
O527 C535 1.245 . S
C528 O536 1.259 . S
C528 O537 1.257 . S
C529 O538 1.268 . S
C529 O539 1.253 . S
C530 O540 1.281 . S
C530 O541 1.252 1_554 S
C531 O542 1.272 . S
C531 O543 1.245 . S
C532 O520 1.259 . S
C532 O521 1.257 . S
C533 O522 1.253 . S
C533 O523 1.268 . S
C534 O524 1.281 . S
C534 O525 1.252 . S
C535 O526 1.272 . S
C535 O527 1.245 . S
O536 Co512 2.053 . S
O536 C528 1.259 . S
O537 Co514 2.047 . S
O537 C528 1.257 . S
O538 Co513 2.063 . S
O538 C529 1.268 . S
O539 Co512 2.094 . S
O539 C529 1.253 . S
O540 Co519 2.115 . S
O540 C530 1.281 . S
O541 Co519 2.315 1_556 S
O541 C530 1.252 1_556 S
O542 Co512 2.122 . S
O542 C531 1.272 . S
O543 Co514 2.113 . S
O543 C531 1.245 . S
Co544 H547 2.400 . S
Co544 O548 2.009 . S
Co544 O556 2.115 . S
Co544 O557 2.315 . S
Co544 O568 2.053 . S
Co544 O571 2.094 . S
Co544 O574 2.122 . S
Co545 O548 2.126 . S
Co545 H549 2.388 . S
Co545 O550 2.053 . S
Co545 O553 2.047 1_556 S
Co545 O559 2.113 1_556 S
Co545 O570 2.063 . S
Co546 H547 2.388 . S
Co546 O548 2.053 . S
Co546 O550 2.126 . S
Co546 O555 2.063 . S
Co546 O569 2.047 . S
Co546 O575 2.113 . S
H547 Co544 2.400 . S
H547 Co546 2.388 . S
H547 O548 0.760 . S
O548 Co544 2.009 . S
O548 Co545 2.126 . S
O548 Co546 2.053 . S
O548 H547 0.760 . S
H549 Co545 2.388 . S
H549 O550 0.760 . S
H549 Co551 2.400 1_556 S
O550 Co545 2.053 . S
O550 Co546 2.126 . S
O550 H549 0.760 . S
O550 Co551 2.009 1_556 S
Co551 H549 2.400 1_554 S
Co551 O550 2.009 1_554 S
Co551 O552 2.053 . S
Co551 O554 2.094 1_554 S
Co551 O558 2.122 . S
Co551 O572 2.115 . S
Co551 O573 2.315 1_554 S
O552 Co551 2.053 . S
O552 C564 1.259 . S
O553 Co545 2.047 1_554 S
O553 C564 1.257 . S
O554 Co551 2.094 1_556 S
O554 C565 1.253 . S
O555 Co546 2.063 . S
O555 C565 1.268 . S
O556 Co544 2.115 . S
O556 C566 1.281 . S
O557 Co544 2.315 . S
O557 C566 1.252 . S
O558 Co551 2.122 . S
O558 C567 1.272 . S
O559 Co545 2.113 1_554 S
O559 C567 1.245 . S
C560 O568 1.259 . S
C560 O569 1.257 . S
C561 O570 1.268 . S
C561 O571 1.253 . S
C562 O572 1.281 . S
C562 O573 1.252 1_554 S
C563 O574 1.272 . S
C563 O575 1.245 . S
C564 O552 1.259 . S
C564 O553 1.257 . S
C565 O554 1.253 . S
C565 O555 1.268 . S
C566 O556 1.281 . S
C566 O557 1.252 . S
C567 O558 1.272 . S
C567 O559 1.245 . S
O568 Co544 2.053 . S
O568 C560 1.259 . S
O569 Co546 2.047 . S
O569 C560 1.257 . S
O570 Co545 2.063 . S
O570 C561 1.268 . S
O571 Co544 2.094 . S
O571 C561 1.253 . S
O572 Co551 2.115 . S
O572 C562 1.281 . S
O573 Co551 2.315 1_556 S
O573 C562 1.252 1_556 S
O574 Co544 2.122 . S
O574 C563 1.272 . S
O575 Co546 2.113 . S
O575 C563 1.245 . S
C576 C577 1.387 . S
C576 H580 0.950 . S
C576 C585 1.390 . S
C577 C576 1.387 . S
C577 C579 1.387 . S
H578 C585 0.950 . S
C579 C577 1.387 . S
C579 C581 1.390 . S
C579 H583 0.950 . S
H580 C576 0.950 . S
C581 C579 1.390 . S
C581 C582 1.387 . S
C581 H584 0.950 . S
C582 C581 1.387 . S
C582 C585 1.387 . S
H583 C579 0.950 . S
H584 C581 0.950 . S
C585 C576 1.390 . S
C585 H578 0.950 . S
C585 C582 1.387 . S
C586 C587 1.387 . S
C586 H590 0.950 . S
C586 C595 1.390 . S
C587 C586 1.387 . S
C587 C589 1.387 . S
H588 C595 0.950 . S
C589 C587 1.387 . S
C589 C591 1.390 . S
C589 H593 0.950 1_655 S
H590 C586 0.950 . S
C591 C589 1.390 . S
C591 C592 1.387 . S
C591 H594 0.950 . S
C592 C591 1.387 . S
C592 C595 1.387 . S
H593 C589 0.950 1_455 S
H594 C591 0.950 . S
C595 C586 1.390 . S
C595 H588 0.950 . S
C595 C592 1.387 . S
C596 C597 1.387 . S
C596 H600 0.950 . S
C596 C605 1.390 1_655 S
C597 C596 1.387 . S
C597 C599 1.387 . S
H598 C605 0.950 . S
C599 C597 1.387 . S
C599 C601 1.390 1_655 S
C599 H603 0.950 . S
H600 C596 0.950 . S
C601 C599 1.390 1_455 S
C601 C602 1.387 . S
C601 H604 0.950 1_565 S
C602 C601 1.387 . S
C602 C605 1.387 . S
H603 C599 0.950 . S
H604 C601 0.950 1_545 S
C605 C596 1.390 1_455 S
C605 H598 0.950 . S
C605 C602 1.387 . S
C606 C607 1.387 . S
C606 H610 0.950 . S
C606 C615 1.390 . S
C607 C606 1.387 . S
C607 C609 1.387 . S
H608 C615 0.950 . S
C609 C607 1.387 . S
C609 C611 1.390 . S
C609 H613 0.950 . S
H610 C606 0.950 . S
C611 C609 1.390 . S
C611 C612 1.387 . S
C611 H614 0.950 1_565 S
C612 C611 1.387 . S
C612 C615 1.387 . S
H613 C609 0.950 . S
H614 C611 0.950 1_545 S
C615 C606 1.390 . S
C615 H608 0.950 . S
C615 C612 1.387 . S
C616 C617 1.387 . S
C616 H620 0.950 . S
C616 C625 1.390 1_545 S
C617 C616 1.387 . S
C617 C619 1.387 . S
H618 C625 0.950 1_655 S
C619 C617 1.387 . S
C619 C621 1.390 1_545 S
C619 H623 0.950 . S
H620 C616 0.950 . S
C621 C619 1.390 1_565 S
C621 C622 1.387 . S
C621 H624 0.950 . S
C622 C621 1.387 . S
C622 C625 1.387 . S
H623 C619 0.950 . S
H624 C621 0.950 . S
C625 C616 1.390 1_565 S
C625 H618 0.950 1_455 S
C625 C622 1.387 . S
C626 C627 1.387 . S
C626 H630 0.950 . S
C626 C635 1.390 1_455 S
C627 C626 1.387 . S
C627 C629 1.387 . S
H628 C635 0.950 . S
C629 C627 1.387 . S
C629 C631 1.390 . S
C629 H633 0.950 . S
H630 C626 0.950 . S
C631 C629 1.390 . S
C631 C632 1.387 1_455 S
C631 H634 0.950 . S
C632 C631 1.387 1_655 S
C632 C635 1.387 . S
H633 C629 0.950 . S
H634 C631 0.950 . S
C635 C626 1.390 1_655 S
C635 H628 0.950 . S
C635 C632 1.387 . S
C636 C637 1.387 . S
C636 H640 0.950 . S
C636 C645 1.402 . S
C637 C636 1.387 . S
C637 C639 1.387 . S
H638 C645 0.936 1_556 S
C639 C637 1.387 . S
C639 C641 1.390 . S
C639 H643 0.950 . S
H640 C636 0.950 . S
C641 C639 1.390 . S
C641 C642 1.387 . S
C641 H644 0.950 . S
C642 C641 1.387 . S
C642 C645 1.390 . S
H643 C639 0.950 . S
H644 C641 0.950 . S
C645 C636 1.402 . S
C645 H638 0.936 1_554 S
C645 C642 1.390 . S
C646 C647 1.387 . S
C646 H650 0.950 . S
C646 C655 1.390 . S
C647 C646 1.387 . S
C647 C649 1.387 . S
H648 C655 0.950 . S
C649 C647 1.387 . S
C649 C651 1.390 . S
C649 H653 0.950 . S
H650 C646 0.950 . S
C651 C649 1.390 . S
C651 C652 1.387 . S
C651 H654 0.950 . S
C652 C651 1.387 . S
C652 C655 1.387 . S
H653 C649 0.950 . S
H654 C651 0.950 . S
C655 C646 1.390 . S
C655 H648 0.950 . S
C655 C652 1.387 . S
C656 C657 1.387 . S
C656 H660 0.950 . S
C656 C665 1.390 . S
C657 C656 1.387 . S
C657 C659 1.387 . S
H658 C665 0.950 . S
C659 C657 1.387 . S
C659 C661 1.390 . S
C659 H663 0.950 . S
H660 C656 0.950 . S
C661 C659 1.390 . S
C661 C662 1.387 . S
C661 H664 0.950 . S
C662 C661 1.387 . S
C662 C665 1.387 . S
H663 C659 0.950 . S
H664 C661 0.950 . S
C665 C656 1.390 . S
C665 H658 0.950 . S
C665 C662 1.387 . S
C666 C667 1.387 . S
C666 H670 0.950 . S
C666 C675 1.390 . S
C667 C666 1.387 . S
C667 C669 1.387 . S
H668 C675 0.950 . S
C669 C667 1.387 . S
C669 C671 1.390 . S
C669 H673 0.950 . S
H670 C666 0.950 . S
C671 C669 1.390 . S
C671 C672 1.387 . S
C671 H674 0.950 . S
C672 C671 1.387 . S
C672 C675 1.387 . S
H673 C669 0.950 . S
H674 C671 0.950 . S
C675 C666 1.390 . S
C675 H668 0.950 . S
C675 C672 1.387 . S
C676 C677 1.387 . S
C676 H680 0.950 . S
C676 C685 1.390 . S
C677 C676 1.387 . S
C677 C679 1.387 . S
H678 C685 0.950 . S
C679 C677 1.387 . S
C679 C681 1.390 . S
C679 H683 0.950 . S
H680 C676 0.950 . S
C681 C679 1.390 . S
C681 C682 1.387 . S
C681 H684 0.950 . S
C682 C681 1.387 . S
C682 C685 1.387 . S
H683 C679 0.950 . S
H684 C681 0.950 . S
C685 C676 1.390 . S
C685 H678 0.950 . S
C685 C682 1.387 . S
C686 C687 1.387 . S
C686 H690 0.950 . S
C686 C695 1.390 . S
C687 C686 1.387 . S
C687 C689 1.387 . S
H688 C695 0.950 . S
C689 C687 1.387 . S
C689 C691 1.390 . S
C689 H693 0.950 . S
H690 C686 0.950 . S
C691 C689 1.390 . S
C691 C692 1.387 . S
C691 H694 0.950 . S
C692 C691 1.387 . S
C692 C695 1.387 . S
H693 C689 0.950 . S
H694 C691 0.950 . S
C695 C686 1.390 . S
C695 H688 0.950 . S
C695 C692 1.387 . S
C696 C697 1.387 . S
C696 H700 0.950 . S
C696 C705 1.390 . S
C697 C696 1.387 . S
C697 C699 1.387 . S
H698 C705 0.950 . S
C699 C697 1.387 . S
C699 C701 1.390 . S
C699 H703 0.950 . S
H700 C696 0.950 . S
C701 C699 1.390 . S
C701 C702 1.387 . S
C701 H704 0.950 . S
C702 C701 1.387 . S
C702 C705 1.387 . S
H703 C699 0.950 . S
H704 C701 0.950 . S
C705 C696 1.390 . S
C705 H698 0.950 . S
C705 C702 1.387 . S
C706 C707 1.387 . S
C706 H710 0.950 . S
C706 C715 1.390 . S
C707 C706 1.387 . S
C707 C709 1.387 . S
H708 C715 0.950 . S
C709 C707 1.387 . S
C709 C711 1.390 . S
C709 H713 0.950 . S
H710 C706 0.950 . S
C711 C709 1.390 . S
C711 C712 1.387 . S
C711 H714 0.950 . S
C712 C711 1.387 . S
C712 C715 1.387 . S
H713 C709 0.950 . S
H714 C711 0.950 . S
C715 C706 1.390 . S
C715 H708 0.950 . S
C715 C712 1.387 . S
C716 C717 1.387 . S
C716 H720 0.950 . S
C716 C725 1.390 . S
C717 C716 1.387 . S
C717 C719 1.387 . S
H718 C725 0.950 . S
C719 C717 1.387 . S
C719 C721 1.390 . S
C719 H723 0.950 . S
H720 C716 0.950 . S
C721 C719 1.390 . S
C721 C722 1.387 . S
C721 H724 0.950 . S
C722 C721 1.387 . S
C722 C725 1.387 . S
H723 C719 0.950 . S
H724 C721 0.950 . S
C725 C716 1.390 . S
C725 H718 0.950 . S
C725 C722 1.387 . S
C726 C727 1.387 . S
C726 H730 0.950 . S
C726 C735 1.390 . S
C727 C726 1.387 . S
C727 C729 1.387 1_556 S
H728 C735 0.950 . S
C729 C727 1.387 1_554 S
C729 C731 1.390 1_554 S
C729 H733 0.950 . S
H730 C726 0.950 . S
C731 C729 1.390 1_556 S
C731 C732 1.387 . S
C731 H734 0.950 . S
C732 C731 1.387 . S
C732 C735 1.387 . S
H733 C729 0.950 . S
H734 C731 0.950 . S
C735 C726 1.390 . S
C735 H728 0.950 . S
C735 C732 1.387 . S
C736 C737 1.387 . S
C736 H740 0.950 . S
C736 C745 1.390 . S
C737 C736 1.387 . S
C737 C739 1.387 . S
H738 C745 0.950 . S
C739 C737 1.387 . S
C739 C741 1.390 . S
C739 H743 0.950 . S
H740 C736 0.950 . S
C741 C739 1.390 . S
C741 C742 1.387 . S
C741 H744 0.950 . S
C742 C741 1.387 . S
C742 C745 1.387 . S
H743 C739 0.950 . S
H744 C741 0.950 . S
C745 C736 1.390 . S
C745 H738 0.950 . S
C745 C742 1.387 . S
C746 C747 1.387 . S
C746 H750 0.950 . S
C746 C755 1.390 1_556 S
C747 C746 1.387 . S
C747 C749 1.387 . S
H748 C755 0.950 . S
C749 C747 1.387 . S
C749 C751 1.390 . S
C749 H753 0.950 . S
H750 C746 0.950 . S
C751 C749 1.390 . S
C751 C752 1.387 . S
C751 H754 0.950 . S
C752 C751 1.387 . S
C752 C755 1.387 1_556 S
H753 C749 0.950 . S
H754 C751 0.950 . S
C755 C746 1.390 1_554 S
C755 H748 0.950 . S
C755 C752 1.387 1_554 S
C756 C757 1.387 . S
C756 H760 0.950 . S
C756 C765 1.390 . S
C757 C756 1.387 . S
C757 C759 1.387 . S
H758 C765 0.950 . S
C759 C757 1.387 . S
C759 C761 1.390 . S
C759 H763 0.950 . S
H760 C756 0.950 . S
C761 C759 1.390 . S
C761 C762 1.387 . S
C761 H764 0.950 . S
C762 C761 1.387 . S
C762 C765 1.387 . S
H763 C759 0.950 . S
H764 C761 0.950 . S
C765 C756 1.390 . S
C765 H758 0.950 . S
C765 C762 1.387 . S
C766 C767 1.387 . S
C766 H770 0.950 . S
C766 C775 1.390 . S
C767 C766 1.387 . S
C767 C769 1.387 . S
H768 C775 0.950 . S
C769 C767 1.387 . S
C769 C771 1.390 . S
C769 H773 0.950 . S
H770 C766 0.950 . S
C771 C769 1.390 . S
C771 C772 1.387 . S
C771 H774 0.950 . S
C772 C771 1.387 . S
C772 C775 1.387 . S
H773 C769 0.950 . S
H774 C771 0.950 . S
C775 C766 1.390 . S
C775 H768 0.950 . S
C775 C772 1.387 . S
C776 C777 1.387 . S
C776 H780 0.950 . S
C776 C785 1.390 . S
C777 C776 1.387 . S
C777 C779 1.387 . S
H778 C785 0.950 . S
C779 C777 1.387 . S
C779 C781 1.390 . S
C779 H783 0.950 . S
H780 C776 0.950 . S
C781 C779 1.390 . S
C781 C782 1.387 . S
C781 H784 0.950 . S
C782 C781 1.387 . S
C782 C785 1.387 . S
H783 C779 0.950 . S
H784 C781 0.950 . S
C785 C776 1.390 . S
C785 H778 0.950 . S
C785 C782 1.387 . S
C786 C787 1.387 . S
C786 H790 0.950 . S
C786 C795 1.390 1_556 S
C787 C786 1.387 . S
C787 C789 1.387 . S
H788 C795 0.950 . S
C789 C787 1.387 . S
C789 C791 1.390 . S
C789 H793 0.950 . S
H790 C786 0.950 . S
C791 C789 1.390 . S
C791 C792 1.387 1_556 S
C791 H794 0.950 . S
C792 C791 1.387 1_554 S
C792 C795 1.387 . S
H793 C789 0.950 . S
H794 C791 0.950 . S
C795 C786 1.390 1_554 S
C795 H788 0.950 . S
C795 C792 1.387 . S
C796 C797 1.387 . S
C796 H800 0.950 . S
C796 C805 1.390 . S
C797 C796 1.387 . S
C797 C799 1.387 1_554 S
H798 C805 0.950 . S
C799 C797 1.387 1_556 S
C799 C801 1.390 . S
C799 H803 0.950 . S
H800 C796 0.950 . S
C801 C799 1.390 . S
C801 C802 1.387 . S
C801 H804 0.950 . S
C802 C801 1.387 . S
C802 C805 1.387 1_556 S
H803 C799 0.950 . S
H804 C801 0.950 . S
C805 C796 1.390 . S
C805 H798 0.950 . S
C805 C802 1.387 1_554 S
C806 C807 1.387 1_554 S
C806 H810 0.950 . S
C806 C815 1.390 . S
C807 C806 1.387 1_556 S
C807 C809 1.387 . S
H808 C815 0.950 . S
C809 C807 1.387 . S
C809 C811 1.390 . S
C809 H813 0.950 . S
H810 C806 0.950 . S
C811 C809 1.390 . S
C811 C812 1.387 1_556 S
C811 H814 0.950 . S
C812 C811 1.387 1_554 S
C812 C815 1.387 . S
H813 C809 0.950 . S
H814 C811 0.950 . S
C815 C806 1.390 . S
C815 H808 0.950 . S
C815 C812 1.387 . S
C816 C817 1.387 . S
C816 H820 0.950 . S
C816 C825 1.390 . S
C817 C816 1.387 . S
C817 C819 1.387 . S
H818 C825 0.950 . S
C819 C817 1.387 . S
C819 C821 1.390 . S
C819 H823 0.950 . S
H820 C816 0.950 . S
C821 C819 1.390 . S
C821 C822 1.387 . S
C821 H824 0.950 . S
C822 C821 1.387 . S
C822 C825 1.387 . S
H823 C819 0.950 . S
H824 C821 0.950 . S
C825 C816 1.390 . S
C825 H818 0.950 . S
C825 C822 1.387 . S
C826 C827 1.387 . S
C826 H830 0.950 . S
C826 C835 1.390 . S
C827 C826 1.387 . S
C827 C829 1.387 . S
H828 C835 0.950 . S
C829 C827 1.387 . S
C829 C831 1.390 . S
C829 H833 0.950 . S
H830 C826 0.950 . S
C831 C829 1.390 . S
C831 C832 1.387 . S
C831 H834 0.950 . S
C832 C831 1.387 . S
C832 C835 1.387 . S
H833 C829 0.950 . S
H834 C831 0.950 . S
C835 C826 1.390 . S
C835 H828 0.950 . S
C835 C832 1.387 . S
C836 C837 1.387 . S
C836 H840 0.950 . S
C836 C845 1.390 . S
C837 C836 1.387 . S
C837 C839 1.387 . S
H838 C845 0.950 . S
C839 C837 1.387 . S
C839 C841 1.390 . S
C839 H843 0.950 . S
H840 C836 0.950 . S
C841 C839 1.390 . S
C841 C842 1.387 . S
C841 H844 0.950 . S
C842 C841 1.387 . S
C842 C845 1.387 . S
H843 C839 0.950 . S
H844 C841 0.950 . S
C845 C836 1.390 . S
C845 H838 0.950 . S
C845 C842 1.387 . S
C846 C847 1.377 1_556 S
C846 H850 0.951 . S
C846 C855 1.399 . S
C847 C846 1.377 1_554 S
C847 C849 1.387 . S
H848 C855 0.950 . S
C849 C847 1.387 . S
C849 C851 1.390 . S
C849 H853 0.950 . S
H850 C846 0.951 . S
C851 C849 1.390 . S
C851 C852 1.387 1_554 S
C851 H854 0.950 . S
C852 C851 1.387 1_556 S
C852 C855 1.387 . S
H853 C849 0.950 . S
H854 C851 0.950 . S
C855 C846 1.399 . S
C855 H848 0.950 . S
C855 C852 1.387 . S
C856 C857 1.387 . S
C856 H860 0.950 . S
C856 C865 1.390 1_554 S
C857 C856 1.387 . S
C857 C859 1.387 . S
H858 C865 0.950 . S
C859 C857 1.387 . S
C859 C861 1.390 1_554 S
C859 H863 0.950 . S
H860 C856 0.950 . S
C861 C859 1.390 1_556 S
C861 C862 1.387 . S
C861 H864 0.950 . S
C862 C861 1.387 . S
C862 C865 1.387 . S
H863 C859 0.950 . S
H864 C861 0.950 . S
C865 C856 1.390 1_556 S
C865 H858 0.950 . S
C865 C862 1.387 . S
C866 C867 1.387 1_554 S
C866 H870 0.950 . S
C866 C875 1.390 . S
C867 C866 1.387 1_556 S
C867 C869 1.387 . S
H868 C875 0.950 . S
C869 C867 1.387 . S
C869 C871 1.390 . S
C869 H873 0.950 . S
H870 C866 0.950 . S
C871 C869 1.390 . S
C871 C872 1.387 1_556 S
C871 H874 0.950 . S
C872 C871 1.387 1_554 S
C872 C875 1.387 . S
H873 C869 0.950 . S
H874 C871 0.950 . S
C875 C866 1.390 . S
C875 H868 0.950 . S
C875 C872 1.387 . S
C876 C877 1.387 . S
C876 H880 0.950 . S
C876 C885 1.390 . S
C877 C876 1.387 . S
C877 C879 1.387 . S
H878 C885 0.950 . S
C879 C877 1.387 . S
C879 C881 1.390 . S
C879 H883 0.950 . S
H880 C876 0.950 . S
C881 C879 1.390 . S
C881 C882 1.387 . S
C881 H884 0.950 . S
C882 C881 1.387 . S
C882 C885 1.387 . S
H883 C879 0.950 . S
H884 C881 0.950 . S
C885 C876 1.390 . S
C885 H878 0.950 . S
C885 C882 1.387 . S
C886 C887 1.387 . S
C886 H890 0.950 . S
C886 C895 1.390 . S
C887 C886 1.387 . S
C887 C889 1.387 . S
H888 C895 0.950 . S
C889 C887 1.387 . S
C889 C891 1.390 . S
C889 H893 0.950 . S
H890 C886 0.950 . S
C891 C889 1.390 . S
C891 C892 1.387 . S
C891 H894 0.950 . S
C892 C891 1.387 . S
C892 C895 1.387 . S
H893 C889 0.950 . S
H894 C891 0.950 . S
C895 C886 1.390 . S
C895 H888 0.950 . S
C895 C892 1.387 . S
C896 C897 1.387 . S
C896 H900 0.950 . S
C896 C905 1.390 . S
C897 C896 1.387 . S
C897 C899 1.387 . S
H898 C905 0.950 . S
C899 C897 1.387 . S
C899 C901 1.390 . S
C899 H903 0.950 . S
H900 C896 0.950 . S
C901 C899 1.390 . S
C901 C902 1.387 . S
C901 H904 0.950 . S
C902 C901 1.387 . S
C902 C905 1.387 . S
H903 C899 0.950 . S
H904 C901 0.950 . S
C905 C896 1.390 . S
C905 H898 0.950 . S
C905 C902 1.387 . S
C906 C907 1.387 . S
C906 H910 0.950 . S
C906 C915 1.390 . S
C907 C906 1.387 . S
C907 C909 1.387 . S
H908 C915 0.950 . S
C909 C907 1.387 . S
C909 C911 1.390 . S
C909 H913 0.950 . S
H910 C906 0.950 . S
C911 C909 1.390 . S
C911 C912 1.387 . S
C911 H914 0.950 . S
C912 C911 1.387 . S
C912 C915 1.387 . S
H913 C909 0.950 . S
H914 C911 0.950 . S
C915 C906 1.390 . S
C915 H908 0.950 . S
C915 C912 1.387 . S
C916 C917 1.387 . S
C916 H920 0.950 . S
C916 C925 1.390 . S
C917 C916 1.387 . S
C917 C919 1.387 . S
H918 C925 0.950 . S
C919 C917 1.387 . S
C919 C921 1.390 . S
C919 H923 0.950 . S
H920 C916 0.950 . S
C921 C919 1.390 . S
C921 C922 1.387 . S
C921 H924 0.950 . S
C922 C921 1.387 . S
C922 C925 1.387 . S
H923 C919 0.950 . S
H924 C921 0.950 . S
C925 C916 1.390 . S
C925 H918 0.950 . S
C925 C922 1.387 . S
C926 C927 1.387 . S
C926 H930 0.950 . S
C926 C935 1.390 . S
C927 C926 1.387 . S
C927 C929 1.387 . S
H928 C935 0.950 . S
C929 C927 1.387 . S
C929 C931 1.390 . S
C929 H933 0.950 . S
H930 C926 0.950 . S
C931 C929 1.390 . S
C931 C932 1.387 . S
C931 H934 0.950 . S
C932 C931 1.387 . S
C932 C935 1.387 . S
H933 C929 0.950 . S
H934 C931 0.950 . S
C935 C926 1.390 . S
C935 H928 0.950 . S
C935 C932 1.387 . S
C936 C937 1.387 . S
C936 H940 0.950 . S
C936 C945 1.390 . S
C937 C936 1.387 . S
C937 C939 1.387 . S
H938 C945 0.950 . S
C939 C937 1.387 . S
C939 C941 1.390 . S
C939 H943 0.950 . S
H940 C936 0.950 . S
C941 C939 1.390 . S
C941 C942 1.387 . S
C941 H944 0.950 . S
C942 C941 1.387 . S
C942 C945 1.387 . S
H943 C939 0.950 . S
H944 C941 0.950 . S
C945 C936 1.390 . S
C945 H938 0.950 . S
C945 C942 1.387 . S
C946 C947 1.387 . S
C946 H950 0.950 . S
C946 C955 1.390 . S
C947 C946 1.387 . S
C947 C949 1.387 . S
H948 C955 0.950 . S
C949 C947 1.387 . S
C949 C951 1.390 . S
C949 H953 0.950 . S
H950 C946 0.950 . S
C951 C949 1.390 . S
C951 C952 1.387 . S
C951 H954 0.950 . S
C952 C951 1.387 . S
C952 C955 1.387 . S
H953 C949 0.950 . S
H954 C951 0.950 . S
C955 C946 1.390 . S
C955 H948 0.950 . S
C955 C952 1.387 . S
C956 C957 1.387 . S
C956 H960 0.950 . S
C956 C965 1.390 . S
C957 C956 1.387 . S
C957 C959 1.387 . S
H958 C965 0.950 . S
C959 C957 1.387 . S
C959 C961 1.390 . S
C959 H963 0.950 . S
H960 C956 0.950 . S
C961 C959 1.390 . S
C961 C962 1.387 . S
C961 H964 0.950 . S
C962 C961 1.387 . S
C962 C965 1.387 . S
H963 C959 0.950 . S
H964 C961 0.950 . S
C965 C956 1.390 . S
C965 H958 0.950 . S
C965 C962 1.387 . S
C966 C967 1.387 . S
C966 H970 0.950 . S
C966 C975 1.390 . S
C967 C966 1.387 . S
C967 C969 1.387 . S
H968 C975 0.950 . S
C969 C967 1.387 . S
C969 C971 1.390 . S
C969 H973 0.950 . S
H970 C966 0.950 . S
C971 C969 1.390 . S
C971 C972 1.387 . S
C971 H974 0.950 . S
C972 C971 1.387 . S
C972 C975 1.387 . S
H973 C969 0.950 . S
H974 C971 0.950 . S
C975 C966 1.390 . S
C975 H968 0.950 . S
C975 C972 1.387 . S
C976 C977 1.387 . S
C976 H980 0.950 . S
C976 C985 1.390 . S
C977 C976 1.387 . S
C977 C979 1.387 . S
H978 C985 0.950 . S
C979 C977 1.387 . S
C979 C981 1.390 . S
C979 H983 0.950 . S
H980 C976 0.950 . S
C981 C979 1.390 . S
C981 C982 1.387 . S
C981 H984 0.950 . S
C982 C981 1.387 . S
C982 C985 1.387 . S
H983 C979 0.950 . S
H984 C981 0.950 . S
C985 C976 1.390 . S
C985 H978 0.950 . S
C985 C982 1.387 . S
C986 C987 1.387 . S
C986 H990 0.950 . S
C986 C995 1.390 . S
C987 C986 1.387 . S
C987 C989 1.387 . S
H988 C995 0.950 . S
C989 C987 1.387 . S
C989 C991 1.390 . S
C989 H993 0.950 . S
H990 C986 0.950 . S
C991 C989 1.390 . S
C991 C992 1.387 . S
C991 H994 0.950 . S
C992 C991 1.387 . S
C992 C995 1.387 . S
H993 C989 0.950 . S
H994 C991 0.950 . S
C995 C986 1.390 . S
C995 H988 0.950 . S
C995 C992 1.387 . S
C996 C997 1.387 . S
C996 H1000 0.950 . S
C996 C1005 1.390 . S
C997 C996 1.387 . S
C997 C999 1.387 . S
H998 C1005 0.950 . S
C999 C997 1.387 . S
C999 C1001 1.390 . S
C999 H1003 0.950 . S
H1000 C996 0.950 . S
C1001 C999 1.390 . S
C1001 C1002 1.387 . S
C1001 H1004 0.950 . S
C1002 C1001 1.387 . S
C1002 C1005 1.387 . S
H1003 C999 0.950 . S
H1004 C1001 0.950 . S
C1005 C996 1.390 . S
C1005 H998 0.950 . S
C1005 C1002 1.387 . S
C1006 C1007 1.387 . S
C1006 H1010 0.950 . S
C1006 C1015 1.390 . S
C1007 C1006 1.387 . S
C1007 C1009 1.387 . S
H1008 C1015 0.950 . S
C1009 C1007 1.387 . S
C1009 C1011 1.390 . S
C1009 H1013 0.950 . S
H1010 C1006 0.950 . S
C1011 C1009 1.390 . S
C1011 C1012 1.387 . S
C1011 H1014 0.950 . S
C1012 C1011 1.387 . S
C1012 C1015 1.387 . S
H1013 C1009 0.950 . S
H1014 C1011 0.950 . S
C1015 C1006 1.390 . S
C1015 H1008 0.950 . S
C1015 C1012 1.387 . S
C1016 C1017 1.387 . S
C1016 H1020 0.950 . S
C1016 C1025 1.390 . S
C1017 C1016 1.387 . S
C1017 C1019 1.387 . S
H1018 C1025 0.950 . S
C1019 C1017 1.387 . S
C1019 C1021 1.390 . S
C1019 H1023 0.950 . S
H1020 C1016 0.950 . S
C1021 C1019 1.390 . S
C1021 C1022 1.387 . S
C1021 H1024 0.950 . S
C1022 C1021 1.387 . S
C1022 C1025 1.387 . S
H1023 C1019 0.950 . S
H1024 C1021 0.950 . S
C1025 C1016 1.390 . S
C1025 H1018 0.950 . S
C1025 C1022 1.387 . S
C1026 C1027 1.387 . S
C1026 H1030 0.950 . S
C1026 C1035 1.390 . S
C1027 C1026 1.387 . S
C1027 C1029 1.387 . S
H1028 C1035 0.950 . S
C1029 C1027 1.387 . S
C1029 C1031 1.390 . S
C1029 H1033 0.950 . S
H1030 C1026 0.950 . S
C1031 C1029 1.390 . S
C1031 C1032 1.387 . S
C1031 H1034 0.950 . S
C1032 C1031 1.387 . S
C1032 C1035 1.387 . S
H1033 C1029 0.950 . S
H1034 C1031 0.950 . S
C1035 C1026 1.390 . S
C1035 H1028 0.950 . S
C1035 C1032 1.387 . S
C1036 C1037 1.387 . S
C1036 H1040 0.950 . S
C1036 C1045 1.390 . S
C1037 C1036 1.387 . S
C1037 C1039 1.387 . S
H1038 C1045 0.950 . S
C1039 C1037 1.387 . S
C1039 C1041 1.390 . S
C1039 H1043 0.950 . S
H1040 C1036 0.950 . S
C1041 C1039 1.390 . S
C1041 C1042 1.387 . S
C1041 H1044 0.950 . S
C1042 C1041 1.387 . S
C1042 C1045 1.387 . S
H1043 C1039 0.950 . S
H1044 C1041 0.950 . S
C1045 C1036 1.390 . S
C1045 H1038 0.950 . S
C1045 C1042 1.387 . S
C1046 C1047 1.387 . S
C1046 H1050 0.950 . S
C1046 C1055 1.390 . S
C1047 C1046 1.387 . S
C1047 C1049 1.387 . S
H1048 C1055 0.950 . S
C1049 C1047 1.387 . S
C1049 C1051 1.390 . S
C1049 H1053 0.950 . S
H1050 C1046 0.950 . S
C1051 C1049 1.390 . S
C1051 C1052 1.387 . S
C1051 H1054 0.950 . S
C1052 C1051 1.387 . S
C1052 C1055 1.387 . S
H1053 C1049 0.950 . S
H1054 C1051 0.950 . S
C1055 C1046 1.390 . S
C1055 H1048 0.950 . S
C1055 C1052 1.387 . S
C1056 C1057 1.387 . S
C1056 H1060 0.950 . S
C1056 C1065 1.390 . S
C1057 C1056 1.387 . S
C1057 C1059 1.387 . S
H1058 C1065 0.950 . S
C1059 C1057 1.387 . S
C1059 C1061 1.390 . S
C1059 H1063 0.950 . S
H1060 C1056 0.950 . S
C1061 C1059 1.390 . S
C1061 C1062 1.387 . S
C1061 H1064 0.950 . S
C1062 C1061 1.387 . S
C1062 C1065 1.387 . S
H1063 C1059 0.950 . S
H1064 C1061 0.950 . S
C1065 C1056 1.390 . S
C1065 H1058 0.950 . S
C1065 C1062 1.387 . S
C1066 C1067 1.387 . S
C1066 H1070 0.950 . S
C1066 C1075 1.390 . S
C1067 C1066 1.387 . S
C1067 C1069 1.387 . S
H1068 C1075 0.950 . S
C1069 C1067 1.387 . S
C1069 C1071 1.390 . S
C1069 H1073 0.950 . S
H1070 C1066 0.950 . S
C1071 C1069 1.390 . S
C1071 C1072 1.387 . S
C1071 H1074 0.950 . S
C1072 C1071 1.387 . S
C1072 C1075 1.387 . S
H1073 C1069 0.950 . S
H1074 C1071 0.950 . S
C1075 C1066 1.390 . S
C1075 H1068 0.950 . S
C1075 C1072 1.387 . S
C1076 C1077 1.387 . S
C1076 H1080 0.950 . S
C1076 C1085 1.390 . S
C1077 C1076 1.387 . S
C1077 C1079 1.387 . S
H1078 C1085 0.950 . S
C1079 C1077 1.387 . S
C1079 C1081 1.390 . S
C1079 H1083 0.950 . S
H1080 C1076 0.950 . S
C1081 C1079 1.390 . S
C1081 C1082 1.387 . S
C1081 H1084 0.950 . S
C1082 C1081 1.387 . S
C1082 C1085 1.387 . S
H1083 C1079 0.950 . S
H1084 C1081 0.950 . S
C1085 C1076 1.390 . S
C1085 H1078 0.950 . S
C1085 C1082 1.387 . S
C1086 C1087 1.387 . S
C1086 H1090 0.950 . S
C1086 C1095 1.390 . S
C1087 C1086 1.387 . S
C1087 C1089 1.387 . S
H1088 C1095 0.950 . S
C1089 C1087 1.387 . S
C1089 C1091 1.390 . S
C1089 H1093 0.950 . S
H1090 C1086 0.950 . S
C1091 C1089 1.390 . S
C1091 C1092 1.387 . S
C1091 H1094 0.950 . S
C1092 C1091 1.387 . S
C1092 C1095 1.387 . S
H1093 C1089 0.950 . S
H1094 C1091 0.950 . S
C1095 C1086 1.390 . S
C1095 H1088 0.950 . S
C1095 C1092 1.387 . S
C1096 C1097 1.387 . S
C1096 H1100 0.950 . S
C1096 C1105 1.390 . S
C1097 C1096 1.387 . S
C1097 C1099 1.387 . S
H1098 C1105 0.950 . S
C1099 C1097 1.387 . S
C1099 C1101 1.390 . S
C1099 H1103 0.950 . S
H1100 C1096 0.950 . S
C1101 C1099 1.390 . S
C1101 C1102 1.387 . S
C1101 H1104 0.950 . S
C1102 C1101 1.387 . S
C1102 C1105 1.387 . S
H1103 C1099 0.950 . S
H1104 C1101 0.950 . S
C1105 C1096 1.390 . S
C1105 H1098 0.950 . S
C1105 C1102 1.387 . S
C1106 C1107 1.387 . S
C1106 H1110 0.950 . S
C1106 C1115 1.390 . S
C1107 C1106 1.387 . S
C1107 C1109 1.387 . S
H1108 C1115 0.950 . S
C1109 C1107 1.387 . S
C1109 C1111 1.390 . S
C1109 H1113 0.950 . S
H1110 C1106 0.950 . S
C1111 C1109 1.390 . S
C1111 C1112 1.387 . S
C1111 H1114 0.950 . S
C1112 C1111 1.387 . S
C1112 C1115 1.387 . S
H1113 C1109 0.950 . S
H1114 C1111 0.950 . S
C1115 C1106 1.390 . S
C1115 H1108 0.950 . S
C1115 C1112 1.387 . S
C1116 C1117 1.387 . S
C1116 H1120 0.950 1_565 S
C1116 C1125 1.390 . S
C1117 C1116 1.387 . S
C1117 C1119 1.387 . S
H1118 C1125 0.950 . S
C1119 C1117 1.387 . S
C1119 C1121 1.390 . S
C1119 H1123 0.950 . S
H1120 C1116 0.950 1_545 S
C1121 C1119 1.390 . S
C1121 C1122 1.387 . S
C1121 H1124 0.950 . S
C1122 C1121 1.387 . S
C1122 C1125 1.387 . S
H1123 C1119 0.950 . S
H1124 C1121 0.950 . S
C1125 C1116 1.390 . S
C1125 H1118 0.950 . S
C1125 C1122 1.387 . S
C1126 C1127 1.387 . S
C1126 H1130 0.950 . S
C1126 C1135 1.390 . S
C1127 C1126 1.387 . S
C1127 C1129 1.387 . S
H1128 C1135 0.950 . S
C1129 C1127 1.387 . S
C1129 C1131 1.390 . S
C1129 H1133 0.950 . S
H1130 C1126 0.950 . S
C1131 C1129 1.390 . S
C1131 C1132 1.387 . S
C1131 H1134 0.950 . S
C1132 C1131 1.387 . S
C1132 C1135 1.387 . S
H1133 C1129 0.950 . S
H1134 C1131 0.950 . S
C1135 C1126 1.390 . S
C1135 H1128 0.950 . S
C1135 C1132 1.387 . S
C1136 C1137 1.387 . S
C1136 H1140 0.950 . S
C1136 C1145 1.390 . S
C1137 C1136 1.387 . S
C1137 C1139 1.387 . S
H1138 C1145 0.950 . S
C1139 C1137 1.387 . S
C1139 C1141 1.390 . S
C1139 H1143 0.950 . S
H1140 C1136 0.950 . S
C1141 C1139 1.390 . S
C1141 C1142 1.387 . S
C1141 H1144 0.950 . S
C1142 C1141 1.387 . S
C1142 C1145 1.387 . S
H1143 C1139 0.950 . S
H1144 C1141 0.950 . S
C1145 C1136 1.390 . S
C1145 H1138 0.950 . S
C1145 C1142 1.387 . S
C1146 C1147 1.387 1_554 S
C1146 H1150 0.950 . S
C1146 C1155 1.390 1_554 S
C1147 C1146 1.387 1_556 S
C1147 C1149 1.387 . S
H1148 C1155 0.950 . S
C1149 C1147 1.387 . S
C1149 C1151 1.390 . S
C1149 H1153 0.950 . S
H1150 C1146 0.950 . S
C1151 C1149 1.390 . S
C1151 C1152 1.387 . S
C1151 H1154 0.950 . S
C1152 C1151 1.387 . S
C1152 C1155 1.387 . S
H1153 C1149 0.950 . S
H1154 C1151 0.950 . S
C1155 C1146 1.390 1_556 S
C1155 H1148 0.950 . S
C1155 C1152 1.387 . S
C1156 C1157 1.387 . S
C1156 H1160 0.950 1_556 S
C1156 C1165 1.390 . S
C1157 C1156 1.387 . S
C1157 C1159 1.387 . S
H1158 C1165 0.950 . S
C1159 C1157 1.387 . S
C1159 C1161 1.390 . S
C1159 H1163 0.950 . S
H1160 C1156 0.950 1_554 S
C1161 C1159 1.390 . S
C1161 C1162 1.387 . S
C1161 H1164 0.950 . S
C1162 C1161 1.387 . S
C1162 C1165 1.387 . S
H1163 C1159 0.950 . S
H1164 C1161 0.950 . S
C1165 C1156 1.390 . S
C1165 H1158 0.950 . S
C1165 C1162 1.387 . S
C1166 C1167 1.387 . S
C1166 H1170 0.950 . S
C1166 C1175 1.390 . S
C1167 C1166 1.387 . S
C1167 C1169 1.387 . S
H1168 C1175 0.950 1_554 S
C1169 C1167 1.387 . S
C1169 C1171 1.390 . S
C1169 H1173 0.950 . S
H1170 C1166 0.950 . S
C1171 C1169 1.390 . S
C1171 C1172 1.387 . S
C1171 H1174 0.950 . S
C1172 C1171 1.387 . S
C1172 C1175 1.387 . S
H1173 C1169 0.950 . S
H1174 C1171 0.950 . S
C1175 C1166 1.390 . S
C1175 H1168 0.950 1_556 S
C1175 C1172 1.387 . S
C1176 C1177 1.387 . S
C1176 H1180 0.950 . S
C1176 C1185 1.390 . S
C1177 C1176 1.387 . S
C1177 C1179 1.387 . S
H1178 C1185 0.950 . S
C1179 C1177 1.387 . S
C1179 C1181 1.390 . S
C1179 H1183 0.950 . S
H1180 C1176 0.950 . S
C1181 C1179 1.390 . S
C1181 C1182 1.387 . S
C1181 H1184 0.950 . S
C1182 C1181 1.387 . S
C1182 C1185 1.387 . S
H1183 C1179 0.950 . S
H1184 C1181 0.950 . S
C1185 C1176 1.390 . S
C1185 H1178 0.950 . S
C1185 C1182 1.387 . S
C1186 C1187 1.387 . S
C1186 H1190 0.950 1_655 S
C1186 C1195 1.390 . S
C1187 C1186 1.387 . S
C1187 C1189 1.387 . S
H1188 C1195 0.950 . S
C1189 C1187 1.387 . S
C1189 C1191 1.390 . S
C1189 H1193 0.950 . S
H1190 C1186 0.950 1_455 S
C1191 C1189 1.390 . S
C1191 C1192 1.387 . S
C1191 H1194 0.950 . S
C1192 C1191 1.387 . S
C1192 C1195 1.387 . S
H1193 C1189 0.950 . S
H1194 C1191 0.950 . S
C1195 C1186 1.390 . S
C1195 H1188 0.950 . S
C1195 C1192 1.387 . S
C1196 C1197 1.387 . S
C1196 H1200 0.950 . S
C1196 C1205 1.390 . S
C1197 C1196 1.387 . S
C1197 C1199 1.387 . S
H1198 C1205 0.950 . S
C1199 C1197 1.387 . S
C1199 C1201 1.390 . S
C1199 H1203 0.950 . S
H1200 C1196 0.950 . S
C1201 C1199 1.390 . S
C1201 C1202 1.387 . S
C1201 H1204 0.950 . S
C1202 C1201 1.387 . S
C1202 C1205 1.387 . S
H1203 C1199 0.950 . S
H1204 C1201 0.950 . S
C1205 C1196 1.390 . S
C1205 H1198 0.950 . S
C1205 C1202 1.387 . S
C1206 C1207 1.387 . S
C1206 H1210 0.950 . S
C1206 C1215 1.390 . S
C1207 C1206 1.387 . S
C1207 C1209 1.387 . S
H1208 C1215 0.950 . S
C1209 C1207 1.387 . S
C1209 C1211 1.390 . S
C1209 H1213 0.950 . S
H1210 C1206 0.950 . S
C1211 C1209 1.390 . S
C1211 C1212 1.387 . S
C1211 H1214 0.950 1_554 S
C1212 C1211 1.387 . S
C1212 C1215 1.387 . S
H1213 C1209 0.950 . S
H1214 C1211 0.950 1_556 S
C1215 C1206 1.390 . S
C1215 H1208 0.950 . S
C1215 C1212 1.387 . S
C1216 C1217 1.387 . S
C1216 H1220 0.950 1_554 S
C1216 C1225 1.390 . S
C1217 C1216 1.387 . S
C1217 C1219 1.387 . S
H1218 C1225 0.950 . S
C1219 C1217 1.387 . S
C1219 C1221 1.390 . S
C1219 H1223 0.950 . S
H1220 C1216 0.950 1_556 S
C1221 C1219 1.390 . S
C1221 C1222 1.387 . S
C1221 H1224 0.950 . S
C1222 C1221 1.387 . S
C1222 C1225 1.387 . S
H1223 C1219 0.950 . S
H1224 C1221 0.950 . S
C1225 C1216 1.390 . S
C1225 H1218 0.950 . S
C1225 C1222 1.387 . S
C1226 C1227 1.387 1_556 S
C1226 H1230 0.950 . S
C1226 C1235 1.390 1_556 S
C1227 C1226 1.387 1_554 S
C1227 C1229 1.387 . S
H1228 C1235 0.950 1_545 S
C1229 C1227 1.387 . S
C1229 C1231 1.390 . S
C1229 H1233 0.950 . S
H1230 C1226 0.950 . S
C1231 C1229 1.390 . S
C1231 C1232 1.387 . S
C1231 H1234 0.950 . S
C1232 C1231 1.387 . S
C1232 C1235 1.387 . S
H1233 C1229 0.950 . S
H1234 C1231 0.950 . S
C1235 C1226 1.390 1_554 S
C1235 H1228 0.950 1_565 S
C1235 C1232 1.387 . S
C1236 C1237 1.387 . S
C1236 H1240 0.950 . S
C1236 C1245 1.390 . S
C1237 C1236 1.387 . S
C1237 C1239 1.387 . S
H1238 C1245 0.950 . S
C1239 C1237 1.387 . S
C1239 C1241 1.390 . S
C1239 H1243 0.950 . S
H1240 C1236 0.950 . S
C1241 C1239 1.390 . S
C1241 C1242 1.387 . S
C1241 H1244 0.950 . S
C1242 C1241 1.387 . S
C1242 C1245 1.387 . S
H1243 C1239 0.950 . S
H1244 C1241 0.950 . S
C1245 C1236 1.390 . S
C1245 H1238 0.950 . S
C1245 C1242 1.387 . S
C1246 C1247 1.387 . S
C1246 H1250 0.950 . S
C1246 C1255 1.390 1_545 S
C1247 C1246 1.387 . S
C1247 C1249 1.387 . S
H1248 C1255 0.950 . S
C1249 C1247 1.387 . S
C1249 C1251 1.390 1_545 S
C1249 H1253 0.950 . S
H1250 C1246 0.950 . S
C1251 C1249 1.390 1_565 S
C1251 C1252 1.387 . S
C1251 H1254 0.950 . S
C1252 C1251 1.387 . S
C1252 C1255 1.387 . S
H1253 C1249 0.950 . S
H1254 C1251 0.950 . S
C1255 C1246 1.390 1_565 S
C1255 H1248 0.950 . S
C1255 C1252 1.387 . S
C1256 C1257 1.387 . S
C1256 H1260 0.950 . S
C1256 C1265 1.390 . S
C1257 C1256 1.387 . S
C1257 C1259 1.387 . S
H1258 C1265 0.950 . S
C1259 C1257 1.387 . S
C1259 C1261 1.390 1_455 S
C1259 H1263 0.950 . S
H1260 C1256 0.950 . S
C1261 C1259 1.390 1_655 S
C1261 C1262 1.387 . S
C1261 H1264 0.950 . S
C1262 C1261 1.387 . S
C1262 C1265 1.387 1_655 S
H1263 C1259 0.950 . S
H1264 C1261 0.950 . S
C1265 C1256 1.390 . S
C1265 H1258 0.950 . S
C1265 C1262 1.387 1_455 S
C1266 C1267 1.387 . S
C1266 H1270 0.950 . S
C1266 C1275 1.390 . S
C1267 C1266 1.387 . S
C1267 C1269 1.387 . S
H1268 C1275 0.950 . S
C1269 C1267 1.387 . S
C1269 C1271 1.390 . S
C1269 H1273 0.950 . S
H1270 C1266 0.950 . S
C1271 C1269 1.390 . S
C1271 C1272 1.387 . S
C1271 H1274 0.950 . S
C1272 C1271 1.387 . S
C1272 C1275 1.387 . S
H1273 C1269 0.950 . S
H1274 C1271 0.950 . S
C1275 C1266 1.390 . S
C1275 H1268 0.950 . S
C1275 C1272 1.387 . S
C1276 C1277 1.387 . S
C1276 H1280 0.950 . S
C1276 C1285 1.390 . S
C1277 C1276 1.387 . S
C1277 C1279 1.387 . S
H1278 C1285 0.950 1_565 S
C1279 C1277 1.387 . S
C1279 C1281 1.390 . S
C1279 H1283 0.950 . S
H1280 C1276 0.950 . S
C1281 C1279 1.390 . S
C1281 C1282 1.387 . S
C1281 H1284 0.950 . S
C1282 C1281 1.387 . S
C1282 C1285 1.387 . S
H1283 C1279 0.950 . S
H1284 C1281 0.950 . S
C1285 C1276 1.390 . S
C1285 H1278 0.950 1_545 S
C1285 C1282 1.387 . S
C1286 C1287 1.387 . S
C1286 H1290 0.950 . S
C1286 C1295 1.390 . S
C1287 C1286 1.387 . S
C1287 C1289 1.387 . S
H1288 C1295 0.950 . S
C1289 C1287 1.387 . S
C1289 C1291 1.390 1_655 S
C1289 H1293 0.950 . S
H1290 C1286 0.950 . S
C1291 C1289 1.390 1_455 S
C1291 C1292 1.387 . S
C1291 H1294 0.950 . S
C1292 C1291 1.387 . S
C1292 C1295 1.387 1_455 S
H1293 C1289 0.950 . S
H1294 C1291 0.950 . S
C1295 C1286 1.390 . S
C1295 H1288 0.950 . S
C1295 C1292 1.387 1_655 S
C577 C54 1.470 . S
C582 C17 1.384 . S
C587 C49 1.390 . S
C592 C86 1.474 1_545 S
C597 C81 1.390 . S
C602 C22 1.474 . S
C607 C146 1.472 . S
C612 C117 1.385 . S
C617 C178 1.474 . S
C622 C149 1.390 . S
C627 C181 1.385 . S
C632 C114 1.471 . S
C637 C209 1.385 . S
C642 C246 1.471 1_554 S
C647 C241 1.384 . S
C652 C278 1.470 1_554 S
C657 C214 1.470 1_554 S
C662 C273 1.385 . S
C667 C309 1.384 . S
C672 C338 1.470 . S
C677 C370 1.470 . S
C682 C341 1.384 . S
C687 C373 1.384 . S
C692 C306 1.470 . S
C697 C401 1.390 . S
C702 C438 1.473 . S
C707 C433 1.390 . S
C712 C470 1.474 . S
C717 C465 1.386 . S
C722 C406 1.470 . S
C727 C530 1.471 1_556 S
C732 C501 1.385 . S
C737 C533 1.390 . S
C742 C562 1.474 1_556 S
C747 C565 1.386 . S
C752 C498 1.470 1_556 S
C757 C19 1.479 . S
C762 C180 1.496 . S
C767 C51 1.482 . S
C772 C116 1.495 . S
C777 C83 1.480 . S
C782 C148 1.493 . S
C787 C55 1.847 . S
C792 C176 1.800 . S
C797 C112 1.798 . S
C802 C87 1.847 . S
C807 C23 1.847 . S
C812 C144 1.800 . S
C817 C80 1.496 . S
C822 C119 1.480 . S
C827 C151 1.480 . S
C832 C16 1.496 . S
C837 C183 1.480 . S
C842 C48 1.493 . S
C847 C147 1.847 . S
C852 C84 1.799 . S
C857 C179 1.846 . S
C862 C20 1.798 . S
C867 C52 1.799 . S
C872 C115 1.847 . S
C877 C211 1.479 . S
C882 C372 1.496 . S
C887 C308 1.496 . S
C892 C243 1.480 . S
C897 C340 1.495 . S
C902 C275 1.479 . S
C907 C247 1.847 . S
C912 C368 1.799 . S
C917 C304 1.798 . S
C922 C279 1.846 . S
C927 C336 1.799 . S
C932 C215 1.847 . S
C937 C311 1.479 . S
C942 C272 1.496 . S
C947 C208 1.493 . S
C952 C343 1.482 . S
C957 C240 1.495 . S
C962 C375 1.482 . S
C967 C276 1.799 . S
C972 C339 1.846 . S
C977 C371 1.847 . S
C982 C212 1.798 . S
C987 C307 1.847 . S
C992 C244 1.799 . S
C997 C403 1.482 . S
C1002 C564 1.493 . S
C1007 C435 1.482 . S
C1012 C500 1.492 . S
C1017 C532 1.493 . S
C1022 C467 1.481 . S
C1027 C439 1.847 . S
C1032 C560 1.799 . S
C1037 C471 1.847 . S
C1042 C496 1.800 . S
C1047 C528 1.800 . S
C1052 C407 1.847 . S
C1057 C503 1.482 . S
C1062 C464 1.493 . S
C1067 C535 1.479 . S
C1072 C400 1.495 . S
C1077 C567 1.481 . S
C1082 C432 1.495 . S
C1087 C531 1.847 . S
C1092 C468 1.800 . S
C1097 C563 1.847 . S
C1102 C404 1.800 . S
C1107 C499 1.847 . S
C1112 C436 1.800 . S
C1117 C21 2.222 . S
C1122 C434 2.130 . S
C1127 C53 2.222 . S
C1132 C466 2.129 . S
C1137 C402 2.129 . S
C1142 C85 2.223 . S
C1147 C213 2.224 1_556 S
C1152 C50 2.130 . S
C1157 C245 2.224 1_556 S
C1162 C82 2.131 . S
C1167 C18 2.129 . S
C1172 C277 2.223 1_556 S
C1177 C113 2.222 . S
C1182 C342 2.129 . S
C1187 C145 2.224 . S
C1192 C374 2.130 . S
C1197 C310 2.128 . S
C1202 C177 2.223 . S
C1207 C150 2.131 . S
C1212 C497 2.224 1_554 S
C1217 C529 2.222 1_554 S
C1222 C182 2.129 . S
C1227 C561 2.223 1_554 S
C1232 C118 2.131 . S
C1237 C242 2.129 . S
C1242 C405 2.222 . S
C1247 C274 2.129 . S
C1252 C437 2.222 . S
C1257 C469 2.223 . S
C1262 C210 2.131 . S
C1267 C305 2.222 . S
C1272 C534 2.129 . S
C1277 C337 2.222 . S
C1282 C566 2.129 1_545 S
C1287 C369 2.223 . S
C1292 C502 2.128 . S
