# Generated by pormake.
# Topology bcu-h, (3)-cn, num edge types: 1
# Building blocks:
#     Node 0, Type 0, BuildingBlock: OLANEW_clean_sbu_2, # of connection points: 3
#     Node 1, Type 0, BuildingBlock: OLANEW_clean_sbu_2, # of connection points: 3
#     Node 2, Type 0, BuildingBlock: OLANEW_clean_sbu_2, # of connection points: 3
#     Node 3, Type 0, BuildingBlock: OLANEW_clean_sbu_2, # of connection points: 3
#     Node 4, Type 0, BuildingBlock: OLANEW_clean_sbu_2, # of connection points: 3
#     Node 5, Type 0, BuildingBlock: OLANEW_clean_sbu_2, # of connection points: 3
#     Node 6, Type 0, BuildingBlock: OLANEW_clean_sbu_2, # of connection points: 3
#     Node 7, Type 0, BuildingBlock: OLANEW_clean_sbu_2, # of connection points: 3
#     Node 8, Type 0, BuildingBlock: OLANEW_clean_sbu_2, # of connection points: 3
#     Node 9, Type 0, BuildingBlock: OLANEW_clean_sbu_2, # of connection points: 3
#     Node 10, Type 0, BuildingBlock: OLANEW_clean_sbu_2, # of connection points: 3
#     Node 11, Type 0, BuildingBlock: OLANEW_clean_sbu_2, # of connection points: 3
#     Node 12, Type 0, BuildingBlock: OLANEW_clean_sbu_2, # of connection points: 3
#     Node 13, Type 0, BuildingBlock: OLANEW_clean_sbu_2, # of connection points: 3
#     Node 14, Type 0, BuildingBlock: OLANEW_clean_sbu_2, # of connection points: 3
#     Node 15, Type 0, BuildingBlock: OLANEW_clean_sbu_2, # of connection points: 3
#     Edge 16, Type (0, 0), BuildingBlock: KIFKEQ_clean_linker_1, # of connection points: 2
#     Edge 17, Type (0, 0), BuildingBlock: KIFKEQ_clean_linker_1, # of connection points: 2
#     Edge 18, Type (0, 0), BuildingBlock: KIFKEQ_clean_linker_1, # of connection points: 2
#     Edge 19, Type (0, 0), BuildingBlock: KIFKEQ_clean_linker_1, # of connection points: 2
#     Edge 20, Type (0, 0), BuildingBlock: KIFKEQ_clean_linker_1, # of connection points: 2
#     Edge 21, Type (0, 0), BuildingBlock: KIFKEQ_clean_linker_1, # of connection points: 2
#     Edge 22, Type (0, 0), BuildingBlock: KIFKEQ_clean_linker_1, # of connection points: 2
#     Edge 23, Type (0, 0), BuildingBlock: KIFKEQ_clean_linker_1, # of connection points: 2
#     Edge 24, Type (0, 0), BuildingBlock: KIFKEQ_clean_linker_1, # of connection points: 2
#     Edge 25, Type (0, 0), BuildingBlock: KIFKEQ_clean_linker_1, # of connection points: 2
#     Edge 26, Type (0, 0), BuildingBlock: KIFKEQ_clean_linker_1, # of connection points: 2
#     Edge 27, Type (0, 0), BuildingBlock: KIFKEQ_clean_linker_1, # of connection points: 2
#     Edge 28, Type (0, 0), BuildingBlock: KIFKEQ_clean_linker_1, # of connection points: 2
#     Edge 29, Type (0, 0), BuildingBlock: KIFKEQ_clean_linker_1, # of connection points: 2
#     Edge 30, Type (0, 0), BuildingBlock: KIFKEQ_clean_linker_1, # of connection points: 2
#     Edge 31, Type (0, 0), BuildingBlock: KIFKEQ_clean_linker_1, # of connection points: 2
#     Edge 32, Type (0, 0), BuildingBlock: KIFKEQ_clean_linker_1, # of connection points: 2
#     Edge 33, Type (0, 0), BuildingBlock: KIFKEQ_clean_linker_1, # of connection points: 2
#     Edge 34, Type (0, 0), BuildingBlock: KIFKEQ_clean_linker_1, # of connection points: 2
#     Edge 35, Type (0, 0), BuildingBlock: KIFKEQ_clean_linker_1, # of connection points: 2
#     Edge 36, Type (0, 0), BuildingBlock: KIFKEQ_clean_linker_1, # of connection points: 2
#     Edge 37, Type (0, 0), BuildingBlock: KIFKEQ_clean_linker_1, # of connection points: 2
#     Edge 38, Type (0, 0), BuildingBlock: KIFKEQ_clean_linker_1, # of connection points: 2
#     Edge 39, Type (0, 0), BuildingBlock: KIFKEQ_clean_linker_1, # of connection points: 2
# Relax obj value: 0.003
# Max RMSD: 0.058
# Mean RMSD: 0.058
data_MOF--net-bcu-h--node1-OLANEW_clean_sbu_2--edge1-KIFKEQ_clean_linker_1
_symmetry_space_group_name_H-M    P1
_symmetry_Int_Tables_number       1
_symmetry_cell_setting            triclinic
loop_
_symmetry_equiv_pos_as_xyz
'x, y, z'
_cell_length_a     59.104692
_cell_length_b     59.093193
_cell_length_c     47.269283
_cell_angle_alpha  90.06008
_cell_angle_beta   90.013482
_cell_angle_gamma 89.988195
loop_
_atom_site_label
_atom_site_type_symbol
_atom_site_fract_x
_atom_site_fract_y
_atom_site_fract_z
_atom_type_partial_charge
O0 O 0.62107 0.00035 0.17247 0.0
Cd1 Cd 0.64243 0.9877 0.13097 0.0
O2 O 0.61558 0.03423 0.1545 0.0
Cd3 Cd 0.64082 0.02917 0.12144 0.0
O4 O 0.6762 0.03233 0.10873 0.0
C5 C 0.68432 0.05221 0.10733 0.0
O6 O 0.67078 0.06952 0.11159 0.0
C7 C 0.61203 0.01985 0.17402 0.0
C8 C 0.61429 0.96886 0.08974 0.0
O9 O 0.62382 0.95645 0.10851 0.0
O10 O 0.61807 0.99021 0.09045 0.0
O11 O 0.47607 0.59571 0.62192 0.0
Cd12 Cd 0.4883 0.61156 0.57674 0.0
O13 O 0.45879 0.62699 0.63516 0.0
Cd14 Cd 0.4688 0.64914 0.60046 0.0
O15 O 0.46905 0.68485 0.58861 0.0
C16 C 0.48127 0.69802 0.60342 0.0
O17 O 0.49433 0.68924 0.62306 0.0
C18 C 0.46406 0.60645 0.63973 0.0
C19 C 0.5036 0.57694 0.54138 0.0
O20 O 0.51752 0.58858 0.55626 0.0
O21 O 0.48252 0.58188 0.54294 0.0
O22 O 0.90683 0.45578 0.15526 0.0
Cd23 Cd 0.88526 0.46237 0.1118 0.0
O24 O 0.91651 0.42138 0.14211 0.0
Cd25 Cd 0.89221 0.42169 0.10742 0.0
O26 O 0.85676 0.4233 0.09462 0.0
C27 C 0.8429 0.4139 0.11147 0.0
O28 O 0.85088 0.40336 0.13382 0.0
C29 C 0.91787 0.43763 0.15972 0.0
C30 C 0.90842 0.49016 0.07403 0.0
O31 O 0.91313 0.46905 0.07603 0.0
O32 O 0.89275 0.49818 0.08986 0.0
O33 O 0.00204 0.89762 0.66152 0.0
Cd34 Cd 0.98798 0.87422 0.62246 0.0
O35 O 0.03273 0.90752 0.63831 0.0
Cd36 Cd 0.02765 0.88082 0.60712 0.0
O37 O 0.02955 0.8449 0.59659 0.0
C38 C 0.04904 0.83582 0.59678 0.0
O39 O 0.06681 0.84869 0.60132 0.0
C40 C 0.02005 0.90934 0.65994 0.0
C41 C 0.96669 0.90032 0.58101 0.0
O42 O 0.95533 0.89128 0.60114 0.0
O43 O 0.9881 0.89698 0.58043 0.0
O44 O 0.08706 0.96963 0.85747 0.0
Cd45 Cd 0.10769 0.97421 0.90199 0.0
O46 O 0.11855 0.96578 0.8331 0.0
Cd47 Cd 0.14259 0.96882 0.86794 0.0
O48 O 0.17726 0.96494 0.88316 0.0
C49 C 0.19235 0.9664 0.86409 0.0
O50 O 0.18601 0.97075 0.83801 0.0
C51 C 0.09706 0.96651 0.83398 0.0
C52 C 0.08384 0.00023 0.94124 0.0
O53 O 0.09799 0.00937 0.92418 0.0
O54 O 0.08093 0.97876 0.93969 0.0
O55 O 0.55301 0.07344 0.38 0.0
Cd56 Cd 0.54745 0.09082 0.42647 0.0
O57 O 0.56909 0.10459 0.36441 0.0
Cd58 Cd 0.56448 0.12555 0.40201 0.0
O59 O 0.56328 0.1597 0.41952 0.0
C60 C 0.54492 0.1687 0.42785 0.0
O61 O 0.52637 0.15645 0.42815 0.0
C62 C 0.56274 0.08429 0.36024 0.0
C63 C 0.5155 0.06854 0.45968 0.0
O64 O 0.50973 0.08489 0.44339 0.0
O65 O 0.53636 0.06261 0.46005 0.0
O66 O 0.38505 0.51411 0.8099 0.0
Cd67 Cd 0.36424 0.49824 0.84997 0.0
O68 O 0.38344 0.54831 0.82822 0.0
Cd69 Cd 0.35574 0.53998 0.85681 0.0
O70 O 0.3199 0.54116 0.86773 0.0
C71 C 0.3119 0.55936 0.878 0.0
O72 O 0.32577 0.57616 0.88353 0.0
C73 C 0.39102 0.53479 0.80954 0.0
C74 C 0.39374 0.49497 0.89593 0.0
O75 O 0.38228 0.51302 0.89143 0.0
O76 O 0.39084 0.47821 0.87909 0.0
O77 O 0.98573 0.37739 0.35541 0.0
Cd78 Cd 0.99208 0.35747 0.40011 0.0
O79 O 0.95174 0.38828 0.36863 0.0
Cd80 Cd 0.95101 0.36376 0.40303 0.0
O81 O 0.94735 0.32788 0.41293 0.0
C82 C 0.95174 0.31474 0.39234 0.0
O83 O 0.95858 0.32363 0.36835 0.0
C84 C 0.96789 0.38888 0.35084 0.0
C85 C 0.00905 0.38721 0.44075 0.0
O86 O 0.9878 0.38611 0.43558 0.0
O87 O 0.02231 0.37406 0.42696 0.0
O88 O 0.46954 0.88746 0.86942 0.0
Cd89 Cd 0.47708 0.87217 0.91658 0.0
O90 O 0.43862 0.90206 0.88725 0.0
Cd91 Cd 0.40525 0.91802 0.88513 0.0
O92 O 0.37092 0.93154 0.88253 0.0
C93 C 0.35503 0.92191 0.89607 0.0
O94 O 0.35973 0.90409 0.91159 0.0
C95 C 0.45141 0.89869 0.866 0.0
C96 C 0.50826 0.89644 0.94895 0.0
O97 O 0.51461 0.87999 0.93314 0.0
O98 O 0.48722 0.90174 0.94896 0.0
O99 O 0.57875 0.42108 0.34035 0.0
Cd100 Cd 0.57301 0.4093 0.38938 0.0
O101 O 0.56067 0.39137 0.32376 0.0
Cd102 Cd 0.55689 0.37438 0.36452 0.0
O103 O 0.55457 0.34548 0.39315 0.0
C104 C 0.53674 0.33349 0.39226 0.0
O105 O 0.52006 0.33988 0.3757 0.0
C106 C 0.57087 0.40999 0.31948 0.0
C107 C 0.55808 0.44546 0.42246 0.0
O108 O 0.57909 0.44015 0.42154 0.0
O109 O 0.54414 0.4336 0.4079 0.0
O110 O 0.02766 0.61331 0.86335 0.0
Cd111 Cd 0.02466 0.62233 0.91371 0.0
O112 O 0.06002 0.59853 0.87583 0.0
Cd113 Cd 0.09389 0.58431 0.87031 0.0
O114 O 0.12957 0.57496 0.87266 0.0
C115 C 0.1443 0.59045 0.86979 0.0
O116 O 0.13749 0.61125 0.86489 0.0
C117 C 0.04583 0.60322 0.85646 0.0
C118 C 0.99735 0.59276 0.94435 0.0
O119 O 0.98976 0.61197 0.9361 0.0
O120 O 0.01769 0.5874 0.93779 0.0
O121 O 0.87781 0.03681 0.35874 0.0
Cd122 Cd 0.86179 0.02932 0.40552 0.0
O123 O 0.89333 0.06702 0.37724 0.0
Cd124 Cd 0.9104 0.09987 0.37648 0.0
O125 O 0.92291 0.13459 0.37942 0.0
C126 C 0.91164 0.14887 0.39378 0.0
O127 O 0.89298 0.14223 0.40639 0.0
C128 C 0.88974 0.05453 0.35576 0.0
C129 C 0.88722 8e-05 0.43921 0.0
O130 O 0.87128 0.99258 0.42338 0.0
O131 O 0.8914 0.02136 0.4387 0.0
O132 O 0.96265 0.11314 0.15978 0.0
Cd133 Cd 0.97311 0.12791 0.11326 0.0
O134 O 0.93244 0.09854 0.14017 0.0
Cd135 Cd 0.89881 0.08305 0.13957 0.0
O136 O 0.8636 0.07267 0.13401 0.0
C137 C 0.85184 0.08252 0.11516 0.0
O138 O 0.86134 0.09835 0.09969 0.0
C139 C 0.94431 0.1021 0.16218 0.0
C140 C 0.9973 0.09762 0.07952 0.0
O141 O 0.00753 0.11156 0.09593 0.0
O142 O 0.97561 0.09777 0.07943 0.0
O143 O 0.385 0.96376 0.67009 0.0
Cd144 Cd 0.36961 0.97372 0.62375 0.0
O145 O 0.40326 0.93588 0.64986 0.0
Cd146 Cd 0.42282 0.90446 0.64813 0.0
O147 O 0.43786 0.87097 0.64255 0.0
C148 C 0.43963 0.86254 0.61789 0.0
O149 O 0.43273 0.87443 0.59606 0.0
C150 C 0.39821 0.94688 0.67215 0.0
C151 C 0.40161 0.99387 0.58853 0.0
O152 O 0.3889 0.00587 0.60461 0.0
O153 O 0.39924 0.97232 0.58922 0.0
O154 O 0.56056 0.48366 0.1131 0.0
Cd155 Cd 0.56143 0.50352 0.06784 0.0
O156 O 0.59654 0.47628 0.10738 0.0
Cd157 Cd 0.62967 0.46153 0.11678 0.0
O158 O 0.66477 0.45024 0.11999 0.0
C159 C 0.67558 0.44528 0.09757 0.0
O160 O 0.66516 0.44669 0.07307 0.0
C161 C 0.57875 0.47499 0.12245 0.0
C162 C 0.52238 0.49753 0.03561 0.0
O163 O 0.53956 0.48455 0.0323 0.0
O164 O 0.52358 0.51314 0.05441 0.0
O165 O 0.08545 0.55023 0.64358 0.0
Cd166 Cd 0.09263 0.54676 0.5928 0.0
O167 O 0.07742 0.58504 0.63201 0.0
Cd168 Cd 0.06605 0.62019 0.63552 0.0
O169 O 0.05888 0.6562 0.6303 0.0
C170 C 0.07002 0.66707 0.61175 0.0
O171 O 0.0853 0.65626 0.59673 0.0
C172 C 0.07936 0.56997 0.65109 0.0
C173 C 0.07401 0.50871 0.56686 0.0
O174 O 0.09485 0.509 0.57439 0.0
O175 O 0.06189 0.5262 0.57213 0.0
H176 H 0.50073 0.9339 0.98168 0.0
H177 H 0.55261 0.8858 0.95847 0.0
H178 H 0.52693 0.95196 0.01465 0.0
H179 H 0.57879 0.90396 0.99134 0.0
H180 H 0.60688 0.92403 0.07911 0.0
H181 H 0.58187 0.90742 0.0437 0.0
H182 H 0.56282 0.97427 0.01559 0.0
H183 H 0.5878 0.99096 0.05113 0.0
C184 C 0.51777 0.92729 0.98344 0.0
C185 C 0.52456 0.90836 0.96753 0.0
C186 C 0.5328 0.93771 0.00223 0.0
C187 C 0.55487 0.92931 0.00568 0.0
C188 C 0.56179 0.91064 0.98939 0.0
C189 C 0.54683 0.90033 0.97044 0.0
C190 C 0.5974 0.9352 0.06536 0.0
C191 C 0.59931 0.95882 0.06796 0.0
C192 C 0.58318 0.92567 0.04495 0.0
C193 C 0.57041 0.93954 0.02683 0.0
C194 C 0.57232 0.96316 0.02941 0.0
C195 C 0.5867 0.9727 0.04968 0.0
H196 H 0.54668 0.56861 0.52325 0.0
H197 H 0.4785 0.54262 0.51892 0.0
H198 H 0.5598 0.53743 0.49379 0.0
H199 H 0.49168 0.51078 0.49073 0.0
H200 H 0.51768 0.46759 0.41861 0.0
H201 H 0.5048 0.49987 0.44625 0.0
H202 H 0.5673 0.49861 0.49385 0.0
H203 H 0.58056 0.46708 0.46511 0.0
C204 C 0.53452 0.55612 0.51615 0.0
C205 C 0.51156 0.55809 0.52334 0.0
C206 C 0.54206 0.53811 0.49942 0.0
C207 C 0.52686 0.52142 0.48984 0.0
C208 C 0.50386 0.52346 0.49717 0.0
C209 C 0.49628 0.54167 0.51352 0.0
C210 C 0.52866 0.47425 0.43497 0.0
C211 C 0.55014 0.46481 0.43967 0.0
C212 C 0.52122 0.4927 0.45099 0.0
C213 C 0.53494 0.50194 0.47245 0.0
C214 C 0.5564 0.49231 0.47721 0.0
C215 C 0.56398 0.47409 0.46087 0.0
H216 H 0.96286 0.60427 0.97971 0.0
H217 H 0.00035 0.54687 0.94827 0.0
H218 H 0.94143 0.57954 0.01082 0.0
H219 H 0.97786 0.52171 0.97772 0.0
H220 H 0.95138 0.48461 0.05451 0.0
H221 H 0.97243 0.50936 0.02302 0.0
H222 H 0.91373 0.55279 0.01553 0.0
H223 H 0.89344 0.52878 0.04875 0.0
C224 C 0.9662 0.58624 0.97911 0.0
C225 C 0.98331 0.57748 0.9617 0.0
C226 C 0.95379 0.57196 0.99683 0.0
C227 C 0.9578 0.54845 0.99703 0.0
C228 C 0.97458 0.53971 0.97886 0.0
C229 C 0.98738 0.55409 0.96171 0.0
C230 C 0.94305 0.49949 0.0461 0.0
C231 C 0.92084 0.50485 0.05413 0.0
C232 C 0.95504 0.51365 0.0278 0.0
C233 C 0.94489 0.53322 0.01645 0.0
C234 C 0.92242 0.53825 0.0242 0.0
C235 C 0.91066 0.52439 0.04311 0.0
H236 H 0.92132 0.90596 0.57239 0.0
H237 H 0.98664 0.92638 0.54027 0.0
H238 H 0.90279 0.9295 0.53687 0.0
H239 H 0.96804 0.9499 0.50472 0.0
H240 H 0.92473 0.00987 0.4708 0.0
H241 H 0.94436 0.98517 0.50413 0.0
H242 H 0.89795 0.93103 0.48421 0.0
H243 H 0.87825 0.95569 0.4509 0.0
C244 C 0.93172 0.91542 0.55772 0.0
C245 C 0.95545 0.91432 0.55918 0.0
C246 C 0.9211 0.92879 0.53727 0.0
C247 C 0.93397 0.94152 0.51801 0.0
C248 C 0.9577 0.94042 0.51944 0.0
C249 C 0.96833 0.92686 0.53972 0.0
C250 C 0.91879 0.99266 0.4734 0.0
C251 C 0.8999 0.98476 0.45826 0.0
C252 C 0.9301 0.97849 0.49239 0.0
C253 C 0.92263 0.9562 0.49685 0.0
C254 C 0.90393 0.94821 0.48144 0.0
C255 C 0.89275 0.9623 0.46225 0.0
H256 H 0.08895 0.04528 0.9526 0.0
H257 H 0.05029 0.98644 0.97718 0.0
H258 H 0.06816 0.06811 0.98684 0.0
H259 H 0.02962 0.0093 0.01161 0.0
H260 H 0.98062 0.06458 0.04473 0.0
H261 H 0.00169 0.04064 0.01189 0.0
H262 H 0.06409 0.07204 0.03872 0.0
H263 H 0.04306 0.09613 0.07138 0.0
C264 C 0.07605 0.0372 0.96534 0.0
C265 C 0.07127 0.01404 0.96214 0.0
C266 C 0.06424 0.05026 0.98509 0.0
C267 C 0.04728 0.0405 0.00197 0.0
C268 C 0.04245 0.01735 0.99873 0.0
C269 C 0.05437 0.00424 0.9791 0.0
C270 C 0.99884 0.06631 0.04372 0.0
C271 C 0.01015 0.08231 0.06062 0.0
C272 C 0.01092 0.05252 0.025 0.0
C273 C 0.03454 0.05452 0.02264 0.0
C274 C 0.04587 0.07031 0.0398 0.0
C275 C 0.03382 0.08401 0.05864 0.0
H276 H 0.4325 0.973 0.55423 0.0
H277 H 0.4086 0.03904 0.57982 0.0
H278 H 0.45981 0.99076 0.52254 0.0
H279 H 0.43607 0.05675 0.54837 0.0
H280 H 0.47082 0.07923 0.46643 0.0
H281 H 0.44327 0.06089 0.49723 0.0
H282 H 0.49454 0.01388 0.52524 0.0
H283 H 0.52207 0.03204 0.49422 0.0
C284 C 0.43311 0.9913 0.55316 0.0
C285 C 0.41837 0.00461 0.56954 0.0
C286 C 0.44883 0.00146 0.5351 0.0
C287 C 0.45008 0.02515 0.53293 0.0
C288 C 0.43533 0.03845 0.54931 0.0
C289 C 0.41969 0.0283 0.56746 0.0
C290 C 0.47621 0.06494 0.47909 0.0
C291 C 0.49865 0.0571 0.47789 0.0
C292 C 0.46045 0.05453 0.49686 0.0
C293 C 0.46675 0.03598 0.51372 0.0
C294 C 0.48912 0.02799 0.5123 0.0
C295 C 0.50491 0.03847 0.49463 0.0
H296 H 0.51732 0.47111 0.98857 0.0
H297 H 0.48152 0.5186 0.04178 0.0
H298 H 0.48496 0.46943 0.95678 0.0
H299 H 0.44879 0.5163 0.01057 0.0
H300 H 0.40821 0.52962 0.92952 0.0
H301 H 0.43811 0.52884 0.96482 0.0
H302 H 0.44695 0.45709 0.95059 0.0
H303 H 0.41751 0.4581 0.91445 0.0
C304 C 0.5024 0.48094 0.99371 0.0
C305 C 0.50205 0.49512 0.01757 0.0
C306 C 0.48375 0.47987 0.97556 0.0
C307 C 0.46424 0.49281 0.98099 0.0
C308 C 0.46367 0.50643 0.00541 0.0
C309 C 0.48239 0.50766 0.02341 0.0
C310 C 0.41641 0.51364 0.93407 0.0
C311 C 0.41057 0.49395 0.91907 0.0
C312 C 0.43349 0.51314 0.95448 0.0
C313 C 0.44504 0.49291 0.96057 0.0
C314 C 0.43871 0.47306 0.94612 0.0
C315 C 0.42172 0.4736 0.92552 0.0
H316 H 0.09672 0.47758 0.53522 0.0
H317 H 0.02974 0.49606 0.56326 0.0
H318 H 0.08082 0.44763 0.50609 0.0
H319 H 0.01375 0.46513 0.53568 0.0
H320 H 0.98951 0.4265 0.45828 0.0
H321 H 0.00515 0.4548 0.49004 0.0
H322 H 0.06407 0.41256 0.50316 0.0
H323 H 0.0489 0.38504 0.46978 0.0
C324 C 0.07859 0.4749 0.53558 0.0
C325 C 0.06445 0.48922 0.55135 0.0
C326 C 0.06942 0.45759 0.51899 0.0
C327 C 0.04588 0.45385 0.51826 0.0
C328 C 0.03186 0.46775 0.535 0.0
C329 C 0.04102 0.48539 0.55106 0.0
C330 C 0.00577 0.42328 0.46805 0.0
C331 C 0.01804 0.40364 0.46147 0.0
C332 C 0.01473 0.43945 0.48651 0.0
C333 C 0.03598 0.43613 0.49938 0.0
C334 C 0.04792 0.41607 0.49328 0.0
C335 C 0.03918 0.40016 0.47429 0.0
H336 H 0.6085 0.99713 0.22434 0.0
H337 H 0.5874 0.05843 0.18207 0.0
H338 H 0.5935 0.01168 0.26886 0.0
H339 H 0.57193 0.07267 0.22635 0.0
H340 H 0.58215 0.10372 0.31404 0.0
H341 H 0.59019 0.08662 0.26856 0.0
H342 H 0.56064 0.02374 0.29688 0.0
H343 H 0.55287 0.04086 0.34307 0.0
C344 C 0.60021 0.01348 0.22439 0.0
C345 C 0.59947 0.02677 0.19974 0.0
C346 C 0.59153 0.02178 0.24992 0.0
C347 C 0.58186 0.0435 0.25126 0.0
C348 C 0.57976 0.05609 0.22617 0.0
C349 C 0.58852 0.04787 0.20074 0.0
C350 C 0.57723 0.08626 0.31067 0.0
C351 C 0.5669 0.07366 0.3323 0.0
C352 C 0.58167 0.0765 0.2844 0.0
C353 C 0.57588 0.05386 0.27895 0.0
C354 C 0.5654 0.0412 0.30047 0.0
C355 C 0.5609 0.05102 0.32689 0.0
H356 H 0.4123 0.57567 0.80727 0.0
H357 H 0.40236 0.51399 0.75968 0.0
H358 H 0.43271 0.59201 0.76757 0.0
H359 H 0.42223 0.53064 0.71952 0.0
H360 H 0.47239 0.56306 0.65792 0.0
H361 H 0.45775 0.54472 0.7005 0.0
H362 H 0.42172 0.60598 0.72213 0.0
H363 H 0.43668 0.62436 0.68034 0.0
C364 C 0.41456 0.56555 0.78836 0.0
C365 C 0.40549 0.54362 0.78652 0.0
C366 C 0.42616 0.57496 0.76553 0.0
C367 C 0.42879 0.56277 0.74018 0.0
C368 C 0.42062 0.54044 0.73877 0.0
C369 C 0.40914 0.53093 0.76176 0.0
C370 C 0.46145 0.57262 0.67189 0.0
C371 C 0.45573 0.59519 0.66571 0.0
C372 C 0.45298 0.56209 0.69621 0.0
C373 C 0.43865 0.57391 0.71482 0.0
C374 C 0.43307 0.59649 0.70862 0.0
C375 C 0.44154 0.60699 0.68445 0.0
H376 H 0.93295 0.41657 0.33559 0.0
H377 H 0.99588 0.38869 0.30464 0.0
H378 H 0.92503 0.43189 0.2889 0.0
H379 H 0.98803 0.40435 0.25788 0.0
H380 H 0.94426 0.40171 0.17513 0.0
H381 H 0.96012 0.39392 0.22159 0.0
H382 H 0.93606 0.45864 0.25166 0.0
H383 H 0.91986 0.46638 0.20516 0.0
C384 C 0.94532 0.41407 0.31897 0.0
C385 C 0.96492 0.40116 0.32378 0.0
C386 C 0.94084 0.42301 0.29221 0.0
C387 C 0.95583 0.41919 0.26962 0.0
C388 C 0.97602 0.40732 0.27479 0.0
C389 C 0.98056 0.39845 0.30162 0.0
C390 C 0.94265 0.41447 0.19148 0.0
C391 C 0.93052 0.43455 0.18651 0.0
C392 C 0.9519 0.41006 0.2181 0.0
C393 C 0.94919 0.42559 0.24039 0.0
C394 C 0.93815 0.44622 0.235 0.0
C395 C 0.92897 0.45068 0.20831 0.0
H396 H 0.00441 0.90786 0.71433 0.0
H397 H 0.05299 0.94175 0.66085 0.0
H398 H 0.02132 0.92544 0.75583 0.0
H399 H 0.06936 0.96008 0.70223 0.0
H400 H 0.11363 0.95662 0.78165 0.0
H401 H 0.09271 0.94689 0.73935 0.0
H402 H 0.02975 0.95822 0.7837 0.0
H403 H 0.05089 0.96732 0.82668 0.0
C404 C 0.01833 0.91953 0.71136 0.0
C405 C 0.02759 0.92313 0.68434 0.0
C406 C 0.02799 0.92972 0.73519 0.0
C407 C 0.04697 0.94392 0.73248 0.0
C408 C 0.05514 0.94877 0.70519 0.0
C409 C 0.04566 0.93838 0.68142 0.0
C410 C 0.09533 0.95726 0.78243 0.0
C411 C 0.08396 0.96261 0.80768 0.0
C412 C 0.08328 0.95185 0.75799 0.0
C413 C 0.05949 0.9518 0.75799 0.0
C414 C 0.04806 0.95783 0.78302 0.0
C415 C 0.06017 0.96315 0.80763 0.0
H416 H 0.45934 0.87763 0.81579 0.0
H417 H 0.42926 0.93765 0.85173 0.0
H418 H 0.44687 0.88928 0.76879 0.0
H419 H 0.417 0.94956 0.80481 0.0
H420 H 0.37673 0.95126 0.72262 0.0
H421 H 0.39015 0.93987 0.76921 0.0
H422 H 0.45267 0.91634 0.73194 0.0
H423 H 0.43899 0.9275 0.6853 0.0
C424 C 0.45015 0.89339 0.81358 0.0
C425 C 0.44478 0.90647 0.83747 0.0
C426 C 0.44308 0.90014 0.78664 0.0
C427 C 0.43071 0.92027 0.78296 0.0
C428 C 0.42595 0.93366 0.80689 0.0
C429 C 0.4329 0.92682 0.83383 0.0
C430 C 0.39333 0.94361 0.72442 0.0
C431 C 0.40662 0.93984 0.70025 0.0
C432 C 0.4011 0.9372 0.75115 0.0
C433 C 0.42251 0.92713 0.75441 0.0
C434 C 0.43591 0.9236 0.73018 0.0
C435 C 0.42804 0.92989 0.7034 0.0
H436 H 0.54387 0.45314 0.14792 0.0
H437 H 0.61342 0.47289 0.16088 0.0
H438 H 0.54285 0.43687 0.19529 0.0
H439 H 0.6127 0.4559 0.20791 0.0
H440 H 0.59199 0.44888 0.30204 0.0
H441 H 0.59484 0.46357 0.25393 0.0
H442 H 0.55839 0.40535 0.22264 0.0
H443 H 0.55523 0.39081 0.27064 0.0
C444 C 0.55905 0.45369 0.16075 0.0
C445 C 0.57887 0.46387 0.15044 0.0
C446 C 0.55852 0.44425 0.18782 0.0
C447 C 0.57774 0.44497 0.20532 0.0
C448 C 0.5976 0.45512 0.19497 0.0
C449 C 0.59815 0.46449 0.16781 0.0
C450 C 0.58463 0.43918 0.2849 0.0
C451 C 0.57328 0.41872 0.29025 0.0
C452 C 0.5864 0.44754 0.2573 0.0
C453 C 0.57679 0.43565 0.23448 0.0
C454 C 0.56571 0.41506 0.2398 0.0
C455 C 0.56399 0.40668 0.26734 0.0
H456 H 0.03194 0.6268 0.81021 0.0
H457 H 0.0698 0.56754 0.83487 0.0
H458 H 0.03998 0.61866 0.76051 0.0
H459 H 0.07833 0.55969 0.78527 0.0
H460 H 0.06645 0.54009 0.69185 0.0
H461 H 0.05821 0.54786 0.74155 0.0
H462 H 0.07349 0.61851 0.72833 0.0
H463 H 0.08226 0.61065 0.67894 0.0
C464 C 0.04207 0.6121 0.80499 0.0
C465 C 0.05063 0.59806 0.82644 0.0
C466 C 0.0468 0.60752 0.77658 0.0
C467 C 0.05992 0.58863 0.76899 0.0
C468 C 0.06814 0.57436 0.79045 0.0
C469 C 0.06356 0.57905 0.81888 0.0
C470 C 0.06804 0.55728 0.69956 0.0
C471 C 0.07438 0.57487 0.68119 0.0
C472 C 0.06339 0.56171 0.72804 0.0
C473 C 0.06499 0.58384 0.73879 0.0
C474 C 0.07159 0.60138 0.72051 0.0
C475 C 0.07639 0.59691 0.69208 0.0
H476 H 0.92126 0.06348 0.17573 0.0
H477 H 0.95058 0.12359 0.21237 0.0
H478 H 0.90863 0.05138 0.22243 0.0
H479 H 0.93745 0.112 0.25899 0.0
H480 H 0.92976 0.07512 0.34255 0.0
H481 H 0.94338 0.08598 0.29583 0.0
H482 H 0.88222 0.05915 0.25839 0.0
H483 H 0.86907 0.04776 0.30511 0.0
C484 C 0.92461 0.07431 0.19373 0.0
C485 C 0.93658 0.09463 0.19039 0.0
C486 C 0.91742 0.06738 0.22056 0.0
C487 C 0.92188 0.08074 0.24463 0.0
C488 C 0.93399 0.10106 0.24113 0.0
C489 C 0.94141 0.10781 0.21437 0.0
C490 C 0.91916 0.07182 0.32434 0.0
C491 C 0.8982 0.06095 0.32748 0.0
C492 C 0.92695 0.078 0.2975 0.0
C493 C 0.91387 0.07362 0.27319 0.0
C494 C 0.89295 0.06253 0.27647 0.0
C495 C 0.88532 0.05611 0.30327 0.0
H496 H 0.8217 0.10208 0.07877 0.0
H497 H 0.82717 0.0501 0.14269 0.0
H498 H 0.78152 0.09376 0.07356 0.0
H499 H 0.7869 0.04202 0.13769 0.0
H500 H 0.71787 0.02023 0.10522 0.0
H501 H 0.75868 0.02662 0.10445 0.0
H502 H 0.74732 0.0988 0.1022 0.0
H503 H 0.70662 0.09247 0.10259 0.0
C504 C 0.81436 0.08883 0.09166 0.0
C505 C 0.82763 0.07682 0.11125 0.0
C506 C 0.7913 0.08414 0.08874 0.0
C507 C 0.78101 0.06727 0.10525 0.0
C508 C 0.79438 0.05494 0.12442 0.0
C509 C 0.81743 0.05968 0.12742 0.0
C510 C 0.72408 0.03745 0.10422 0.0
C511 C 0.70898 0.05584 0.10411 0.0
C512 C 0.74746 0.04111 0.10398 0.0
C513 C 0.75623 0.06322 0.10344 0.0
C514 C 0.74112 0.08156 0.10235 0.0
C515 C 0.71777 0.07792 0.10272 0.0
H516 H 0.44448 0.83907 0.56829 0.0
H517 H 0.45444 0.83322 0.65857 0.0
H518 H 0.45727 0.80011 0.56212 0.0
H519 H 0.46677 0.79424 0.65244 0.0
H520 H 0.50469 0.73055 0.63219 0.0
H521 H 0.49705 0.77104 0.63358 0.0
H522 H 0.44339 0.76222 0.57247 0.0
H523 H 0.45134 0.72177 0.57061 0.0
C524 C 0.44946 0.82952 0.58681 0.0
C525 C 0.44837 0.83925 0.61394 0.0
C526 C 0.45669 0.80715 0.58327 0.0
C527 C 0.46303 0.79404 0.60677 0.0
C528 C 0.46233 0.80394 0.63383 0.0
C529 C 0.4551 0.82627 0.63737 0.0
C530 C 0.49146 0.73727 0.61875 0.0
C531 C 0.4785 0.72289 0.60147 0.0
C532 C 0.48698 0.76048 0.6197 0.0
C533 C 0.46942 0.76984 0.60342 0.0
C534 C 0.45714 0.7556 0.58515 0.0
C535 C 0.46165 0.73238 0.58416 0.0
H536 H 0.82046 0.43755 0.07025 0.0
H537 H 0.80935 0.39559 0.14377 0.0
H538 H 0.77975 0.44373 0.06624 0.0
H539 H 0.76872 0.40143 0.13944 0.0
H540 H 0.70228 0.44157 0.14458 0.0
H541 H 0.74245 0.43254 0.14662 0.0
H542 H 0.74382 0.42505 0.05571 0.0
H543 H 0.70368 0.43451 0.05358 0.0
C544 C 0.80933 0.42943 0.08534 0.0
C545 C 0.81816 0.4162 0.10744 0.0
C546 C 0.78599 0.43289 0.08297 0.0
C547 C 0.771 0.4232 0.10265 0.0
C548 C 0.77983 0.40945 0.12423 0.0
C549 C 0.80313 0.406 0.12661 0.0
C550 C 0.71111 0.43791 0.12502 0.0
C551 C 0.69977 0.43883 0.09891 0.0
C552 C 0.73412 0.4326 0.12621 0.0
C553 C 0.74635 0.42806 0.10132 0.0
C554 C 0.73495 0.42872 0.07523 0.0
C555 C 0.71191 0.43402 0.07404 0.0
H556 H 0.03858 0.69416 0.6375 0.0
H557 H 0.09261 0.69542 0.57592 0.0
H558 H 0.03298 0.73473 0.6311 0.0
H559 H 0.0868 0.73591 0.5693 0.0
H560 H 0.0883 0.81152 0.59536 0.0
H561 H 0.09267 0.77057 0.59706 0.0
H562 H 0.02002 0.76272 0.5959 0.0
H563 H 0.01559 0.80378 0.59454 0.0
C564 C 0.04918 0.70305 0.62248 0.0
C565 C 0.06611 0.69156 0.60732 0.0
C566 C 0.04585 0.72627 0.61866 0.0
C567 C 0.05945 0.73853 0.59969 0.0
C568 C 0.07621 0.72699 0.5843 0.0
C569 C 0.07947 0.70376 0.58803 0.0
C570 C 0.07324 0.80109 0.5952 0.0
C571 C 0.05159 0.81094 0.59497 0.0
C572 C 0.07576 0.77759 0.59604 0.0
C573 C 0.05668 0.7634 0.59677 0.0
C574 C 0.03503 0.77322 0.59575 0.0
C575 C 0.03251 0.79674 0.59477 0.0
H576 H 0.21138 0.95495 0.91508 0.0
H577 H 0.22792 0.96768 0.82747 0.0
H578 H 0.251 0.94593 0.9246 0.0
H579 H 0.26722 0.95824 0.83683 0.0
H580 H 0.33973 0.95875 0.86674 0.0
H581 H 0.30074 0.97135 0.86104 0.0
H582 H 0.27791 0.91602 0.91345 0.0
H583 H 0.31694 0.9037 0.91969 0.0
C584 C 0.22346 0.9559 0.89789 0.0
C585 C 0.21647 0.96199 0.8705 0.0
C586 C 0.24613 0.9506 0.90331 0.0
C587 C 0.26228 0.95133 0.88147 0.0
C588 C 0.25531 0.95781 0.85423 0.0
C589 C 0.2327 0.96309 0.84883 0.0
C590 C 0.32641 0.94934 0.87719 0.0
C591 C 0.33145 0.93014 0.89355 0.0
C592 C 0.30404 0.95651 0.87382 0.0
C593 C 0.28618 0.94463 0.88666 0.0
C594 C 0.29128 0.92572 0.90353 0.0
C595 C 0.31366 0.91856 0.90694 0.0
H596 H 0.5036 0.30149 0.38851 0.0
H597 H 0.56848 0.31461 0.42734 0.0
H598 H 0.50521 0.26256 0.40466 0.0
H599 H 0.56978 0.27567 0.44436 0.0
H600 H 0.57925 0.19935 0.42276 0.0
H601 H 0.57613 0.24026 0.42135 0.0
H602 H 0.50508 0.23543 0.44214 0.0
H603 H 0.50808 0.19425 0.44267 0.0
C604 C 0.51799 0.29621 0.40106 0.0
C605 C 0.53608 0.31107 0.40622 0.0
C606 C 0.51884 0.27386 0.41055 0.0
C607 C 0.53774 0.26585 0.4256 0.0
C608 C 0.55517 0.28115 0.43236 0.0
C609 C 0.55437 0.30351 0.42272 0.0
C610 C 0.56303 0.20698 0.42752 0.0
C611 C 0.54382 0.19349 0.43233 0.0
C612 C 0.56126 0.23053 0.42692 0.0
C613 C 0.54028 0.2412 0.43129 0.0
C614 C 0.5214 0.22775 0.4381 0.0
C615 C 0.52315 0.20414 0.43857 0.0
H616 H 0.17985 0.61916 0.86152 0.0
H617 H 0.16401 0.55015 0.88431 0.0
H618 H 0.22002 0.61085 0.86578 0.0
H619 H 0.20427 0.54198 0.88931 0.0
H620 H 0.27832 0.53041 0.86128 0.0
H621 H 0.23774 0.53754 0.86071 0.0
H622 H 0.2488 0.60258 0.90024 0.0
H623 H 0.28944 0.5957 0.90012 0.0
C624 C 0.18493 0.60223 0.86761 0.0
C625 C 0.16872 0.58531 0.8725 0.0
C626 C 0.20799 0.59751 0.87028 0.0
C627 C 0.2154 0.57577 0.87803 0.0
C628 C 0.19916 0.55884 0.88301 0.0
C629 C 0.17608 0.56355 0.88024 0.0
C630 C 0.27208 0.54614 0.87011 0.0
C631 C 0.28714 0.56256 0.88054 0.0
C632 C 0.24878 0.5502 0.86988 0.0
C633 C 0.24 0.57073 0.88019 0.0
C634 C 0.25503 0.58678 0.89161 0.0
C635 C 0.27832 0.58276 0.89173 0.0
H636 H 0.88991 0.18398 0.41988 0.0
H637 H 0.95006 0.1679 0.37192 0.0
H638 H 0.90106 0.22364 0.42108 0.0
H639 H 0.96149 0.20751 0.37373 0.0
H640 H 0.95811 0.28301 0.35123 0.0
H641 H 0.94957 0.24284 0.3532 0.0
H642 H 0.92845 0.25006 0.44026 0.0
H643 H 0.93652 0.29056 0.43807 0.0
C644 C 0.90563 0.18886 0.40981 0.0
C645 C 0.91902 0.17278 0.39564 0.0
C646 C 0.9121 0.2116 0.41068 0.0
C647 C 0.93215 0.21879 0.39745 0.0
C648 C 0.94577 0.20261 0.38378 0.0
C649 C 0.93927 0.17988 0.38285 0.0
C650 C 0.95177 0.27606 0.37087 0.0
C651 C 0.9479 0.29003 0.39446 0.0
C652 C 0.94701 0.25294 0.37206 0.0
C653 C 0.93831 0.24319 0.39688 0.0
C654 C 0.93485 0.25709 0.42069 0.0
C655 C 0.93961 0.28027 0.41949 0.0
loop_
_geom_bond_atom_site_label_1
_geom_bond_atom_site_label_2
_geom_bond_distance
_geom_bond_site_symmetry_2
_ccdc_geom_bond_type
O0 Cd1 2.300 . S
O0 C7 1.275 . S
Cd1 O0 2.300 . S
Cd1 O9 2.381 . S
Cd1 O10 2.378 . S
O2 Cd3 2.385 . S
O2 C7 1.255 . S
Cd3 O2 2.385 . S
Cd3 O4 2.317 . S
O4 Cd3 2.317 . S
O4 C5 1.232 . S
C5 O4 1.232 . S
C5 O6 1.218 . S
O6 C5 1.218 . S
C7 O0 1.275 . S
C7 O2 1.255 . S
C8 O9 1.258 . S
C8 O10 1.256 . S
O9 Cd1 2.381 . S
O9 C8 1.258 . S
O10 Cd1 2.378 . S
O10 C8 1.256 . S
O11 Cd12 2.300 . S
O11 C18 1.275 . S
Cd12 O11 2.300 . S
Cd12 O20 2.381 . S
Cd12 O21 2.378 . S
O13 Cd14 2.385 . S
O13 C18 1.255 . S
Cd14 O13 2.385 . S
Cd14 O15 2.317 . S
O15 Cd14 2.317 . S
O15 C16 1.232 . S
C16 O15 1.232 . S
C16 O17 1.218 . S
O17 C16 1.218 . S
C18 O11 1.275 . S
C18 O13 1.255 . S
C19 O20 1.258 . S
C19 O21 1.256 . S
O20 Cd12 2.381 . S
O20 C19 1.258 . S
O21 Cd12 2.378 . S
O21 C19 1.256 . S
O22 Cd23 2.300 . S
O22 C29 1.275 . S
Cd23 O22 2.300 . S
Cd23 O31 2.381 . S
Cd23 O32 2.378 . S
O24 Cd25 2.385 . S
O24 C29 1.255 . S
Cd25 O24 2.385 . S
Cd25 O26 2.317 . S
O26 Cd25 2.317 . S
O26 C27 1.232 . S
C27 O26 1.232 . S
C27 O28 1.218 . S
O28 C27 1.218 . S
C29 O22 1.275 . S
C29 O24 1.255 . S
C30 O31 1.258 . S
C30 O32 1.256 . S
O31 Cd23 2.381 . S
O31 C30 1.258 . S
O32 Cd23 2.378 . S
O32 C30 1.256 . S
O33 Cd34 2.300 . S
O33 C40 1.275 . S
Cd34 O33 2.300 . S
Cd34 O42 2.381 . S
Cd34 O43 2.378 . S
O35 Cd36 2.385 . S
O35 C40 1.255 . S
Cd36 O35 2.385 . S
Cd36 O37 2.317 . S
O37 Cd36 2.317 . S
O37 C38 1.232 . S
C38 O37 1.232 . S
C38 O39 1.218 . S
O39 C38 1.218 . S
C40 O33 1.275 . S
C40 O35 1.255 . S
C41 O42 1.258 . S
C41 O43 1.256 . S
O42 Cd34 2.381 . S
O42 C41 1.258 . S
O43 Cd34 2.378 . S
O43 C41 1.256 . S
O44 Cd45 2.300 . S
O44 C51 1.275 . S
Cd45 O44 2.300 . S
Cd45 O53 2.381 . S
Cd45 O54 2.378 . S
O46 Cd47 2.385 . S
O46 C51 1.255 . S
Cd47 O46 2.385 . S
Cd47 O48 2.317 . S
O48 Cd47 2.317 . S
O48 C49 1.232 . S
C49 O48 1.232 . S
C49 O50 1.218 . S
O50 C49 1.218 . S
C51 O44 1.275 . S
C51 O46 1.255 . S
C52 O53 1.258 . S
C52 O54 1.256 . S
O53 Cd45 2.381 . S
O53 C52 1.258 . S
O54 Cd45 2.378 . S
O54 C52 1.256 . S
O55 Cd56 2.300 . S
O55 C62 1.275 . S
Cd56 O55 2.300 . S
Cd56 O64 2.381 . S
Cd56 O65 2.378 . S
O57 Cd58 2.385 . S
O57 C62 1.255 . S
Cd58 O57 2.385 . S
Cd58 O59 2.317 . S
O59 Cd58 2.317 . S
O59 C60 1.232 . S
C60 O59 1.232 . S
C60 O61 1.218 . S
O61 C60 1.218 . S
C62 O55 1.275 . S
C62 O57 1.255 . S
C63 O64 1.258 . S
C63 O65 1.256 . S
O64 Cd56 2.381 . S
O64 C63 1.258 . S
O65 Cd56 2.378 . S
O65 C63 1.256 . S
O66 Cd67 2.300 . S
O66 C73 1.275 . S
Cd67 O66 2.300 . S
Cd67 O75 2.381 . S
Cd67 O76 2.378 . S
O68 Cd69 2.385 . S
O68 C73 1.255 . S
Cd69 O68 2.385 . S
Cd69 O70 2.317 . S
O70 Cd69 2.317 . S
O70 C71 1.232 . S
C71 O70 1.232 . S
C71 O72 1.218 . S
O72 C71 1.218 . S
C73 O66 1.275 . S
C73 O68 1.255 . S
C74 O75 1.258 . S
C74 O76 1.256 . S
O75 Cd67 2.381 . S
O75 C74 1.258 . S
O76 Cd67 2.378 . S
O76 C74 1.256 . S
O77 Cd78 2.300 . S
O77 C84 1.275 . S
Cd78 O77 2.300 . S
Cd78 O86 2.381 . S
Cd78 O87 2.378 . S
O79 Cd80 2.385 . S
O79 C84 1.255 . S
Cd80 O79 2.385 . S
Cd80 O81 2.317 . S
O81 Cd80 2.317 . S
O81 C82 1.232 . S
C82 O81 1.232 . S
C82 O83 1.218 . S
O83 C82 1.218 . S
C84 O77 1.275 . S
C84 O79 1.255 . S
C85 O86 1.258 . S
C85 O87 1.256 . S
O86 Cd78 2.381 . S
O86 C85 1.258 . S
O87 Cd78 2.378 . S
O87 C85 1.256 . S
O88 Cd89 2.300 . S
O88 C95 1.275 . S
Cd89 O88 2.300 . S
Cd89 O97 2.381 . S
Cd89 O98 2.378 . S
O90 Cd91 2.385 . S
O90 C95 1.255 . S
Cd91 O90 2.385 . S
Cd91 O92 2.317 . S
O92 Cd91 2.317 . S
O92 C93 1.232 . S
C93 O92 1.232 . S
C93 O94 1.218 . S
O94 C93 1.218 . S
C95 O88 1.275 . S
C95 O90 1.255 . S
C96 O97 1.258 . S
C96 O98 1.256 . S
O97 Cd89 2.381 . S
O97 C96 1.258 . S
O98 Cd89 2.378 . S
O98 C96 1.256 . S
O99 Cd100 2.300 . S
O99 C106 1.275 . S
Cd100 O99 2.300 . S
Cd100 O108 2.381 . S
Cd100 O109 2.378 . S
O101 Cd102 2.385 . S
O101 C106 1.255 . S
Cd102 O101 2.385 . S
Cd102 O103 2.317 . S
O103 Cd102 2.317 . S
O103 C104 1.232 . S
C104 O103 1.232 . S
C104 O105 1.218 . S
O105 C104 1.218 . S
C106 O99 1.275 . S
C106 O101 1.255 . S
C107 O108 1.258 . S
C107 O109 1.256 . S
O108 Cd100 2.381 . S
O108 C107 1.258 . S
O109 Cd100 2.378 . S
O109 C107 1.256 . S
O110 Cd111 2.300 . S
O110 C117 1.275 . S
Cd111 O110 2.300 . S
Cd111 O119 2.381 . S
Cd111 O120 2.378 . S
O112 Cd113 2.385 . S
O112 C117 1.255 . S
Cd113 O112 2.385 . S
Cd113 O114 2.317 . S
O114 Cd113 2.317 . S
O114 C115 1.232 . S
C115 O114 1.232 . S
C115 O116 1.218 . S
O116 C115 1.218 . S
C117 O110 1.275 . S
C117 O112 1.255 . S
C118 O119 1.258 . S
C118 O120 1.256 . S
O119 Cd111 2.381 . S
O119 C118 1.258 . S
O120 Cd111 2.378 . S
O120 C118 1.256 . S
O121 Cd122 2.300 . S
O121 C128 1.275 . S
Cd122 O121 2.300 . S
Cd122 O130 2.381 . S
Cd122 O131 2.378 . S
O123 Cd124 2.385 . S
O123 C128 1.255 . S
Cd124 O123 2.385 . S
Cd124 O125 2.317 . S
O125 Cd124 2.317 . S
O125 C126 1.232 . S
C126 O125 1.232 . S
C126 O127 1.218 . S
O127 C126 1.218 . S
C128 O121 1.275 . S
C128 O123 1.255 . S
C129 O130 1.258 . S
C129 O131 1.256 . S
O130 Cd122 2.381 . S
O130 C129 1.258 . S
O131 Cd122 2.378 . S
O131 C129 1.256 . S
O132 Cd133 2.300 . S
O132 C139 1.275 . S
Cd133 O132 2.300 . S
Cd133 O141 2.381 . S
Cd133 O142 2.378 . S
O134 Cd135 2.385 . S
O134 C139 1.255 . S
Cd135 O134 2.385 . S
Cd135 O136 2.317 . S
O136 Cd135 2.317 . S
O136 C137 1.232 . S
C137 O136 1.232 . S
C137 O138 1.218 . S
O138 C137 1.218 . S
C139 O132 1.275 . S
C139 O134 1.255 . S
C140 O141 1.258 . S
C140 O142 1.256 . S
O141 Cd133 2.381 . S
O141 C140 1.258 . S
O142 Cd133 2.378 . S
O142 C140 1.256 . S
O143 Cd144 2.300 . S
O143 C150 1.275 . S
Cd144 O143 2.300 . S
Cd144 O152 2.381 . S
Cd144 O153 2.378 . S
O145 Cd146 2.385 . S
O145 C150 1.255 . S
Cd146 O145 2.385 . S
Cd146 O147 2.317 . S
O147 Cd146 2.317 . S
O147 C148 1.232 . S
C148 O147 1.232 . S
C148 O149 1.218 . S
O149 C148 1.218 . S
C150 O143 1.275 . S
C150 O145 1.255 . S
C151 O152 1.258 . S
C151 O153 1.256 . S
O152 Cd144 2.381 . S
O152 C151 1.258 . S
O153 Cd144 2.378 . S
O153 C151 1.256 . S
O154 Cd155 2.300 . S
O154 C161 1.275 . S
Cd155 O154 2.300 . S
Cd155 O163 2.381 . S
Cd155 O164 2.378 . S
O156 Cd157 2.385 . S
O156 C161 1.255 . S
Cd157 O156 2.385 . S
Cd157 O158 2.317 . S
O158 Cd157 2.317 . S
O158 C159 1.232 . S
C159 O158 1.232 . S
C159 O160 1.218 . S
O160 C159 1.218 . S
C161 O154 1.275 . S
C161 O156 1.255 . S
C162 O163 1.258 . S
C162 O164 1.256 . S
O163 Cd155 2.381 . S
O163 C162 1.258 . S
O164 Cd155 2.378 . S
O164 C162 1.256 . S
O165 Cd166 2.300 . S
O165 C172 1.275 . S
Cd166 O165 2.300 . S
Cd166 O174 2.381 . S
Cd166 O175 2.378 . S
O167 Cd168 2.385 . S
O167 C172 1.255 . S
Cd168 O167 2.385 . S
Cd168 O169 2.317 . S
O169 Cd168 2.317 . S
O169 C170 1.232 . S
C170 O169 1.232 . S
C170 O171 1.218 . S
O171 C170 1.218 . S
C172 O165 1.275 . S
C172 O167 1.255 . S
C173 O174 1.258 . S
C173 O175 1.256 . S
O174 Cd166 2.381 . S
O174 C173 1.258 . S
O175 Cd166 2.378 . S
O175 C173 1.256 . S
H176 C184 0.950 . S
H177 C189 0.950 . S
H178 C186 0.948 . S
H179 C188 0.950 . S
H180 C190 0.950 . S
H181 C192 0.948 . S
H182 C194 0.950 . S
H183 C195 0.950 . S
C184 H176 0.950 . S
C184 C185 1.386 . S
C184 C186 1.392 1_565 S
C185 C184 1.386 . S
C185 C189 1.393 . S
C186 H178 0.948 . S
C186 C184 1.392 1_545 S
C186 C187 1.401 1_545 S
C187 C186 1.401 1_565 S
C187 C188 1.398 1_556 S
C187 C193 1.491 1_566 S
C188 H179 0.950 . S
C188 C187 1.398 1_554 S
C188 C189 1.391 1_554 S
C189 H177 0.950 . S
C189 C185 1.393 . S
C189 C188 1.391 1_556 S
C190 H180 0.950 . S
C190 C191 1.386 . S
C190 C192 1.392 1_545 S
C191 C190 1.386 . S
C191 C195 1.393 . S
C192 H181 0.948 . S
C192 C190 1.392 1_565 S
C192 C193 1.401 1_565 S
C193 C187 1.491 1_544 S
C193 C192 1.401 1_545 S
C193 C194 1.398 1_554 S
C194 H182 0.950 . S
C194 C193 1.398 1_556 S
C194 C195 1.391 1_556 S
C195 H183 0.950 . S
C195 C191 1.393 . S
C195 C194 1.391 1_554 S
H196 C204 0.950 . S
H197 C209 0.950 . S
H198 C206 0.950 . S
H199 C208 0.950 . S
H200 C210 0.950 . S
H201 C212 0.950 . S
H202 C214 0.950 . S
H203 C215 0.950 . S
C204 H196 0.950 . S
C204 C205 1.386 . S
C204 C206 1.391 . S
C205 C204 1.386 . S
C205 C209 1.393 . S
C206 H198 0.950 . S
C206 C204 1.391 . S
C206 C207 1.400 . S
C207 C206 1.400 . S
C207 C208 1.398 . S
C207 C213 1.491 . S
C208 H199 0.950 . S
C208 C207 1.398 . S
C208 C209 1.391 . S
C209 H197 0.950 . S
C209 C205 1.393 . S
C209 C208 1.391 . S
C210 H200 0.950 . S
C210 C211 1.386 . S
C210 C212 1.391 . S
C211 C210 1.386 . S
C211 C215 1.393 . S
C212 H201 0.950 . S
C212 C210 1.391 . S
C212 C213 1.400 . S
C213 C207 1.491 . S
C213 C212 1.400 . S
C213 C214 1.398 . S
C214 H202 0.950 . S
C214 C213 1.398 . S
C214 C215 1.391 . S
C215 H203 0.950 . S
C215 C211 1.393 . S
C215 C214 1.391 . S
H216 C224 0.950 . S
H217 C229 0.950 . S
H218 C226 0.950 1_655 S
H219 C228 0.950 . S
H220 C230 0.950 . S
H221 C232 0.950 1_455 S
H222 C234 0.950 . S
H223 C235 0.950 . S
C224 H216 0.950 . S
C224 C225 1.386 . S
C224 C226 1.391 . S
C225 C224 1.386 . S
C225 C229 1.393 . S
C226 H218 0.950 1_455 S
C226 C224 1.391 . S
C226 C227 1.400 . S
C227 C226 1.400 . S
C227 C228 1.398 1_556 S
C227 C233 1.491 1_456 S
C228 H219 0.950 . S
C228 C227 1.398 1_554 S
C228 C229 1.391 1_554 S
C229 H217 0.950 . S
C229 C225 1.393 . S
C229 C228 1.391 1_556 S
C230 H220 0.950 . S
C230 C231 1.386 . S
C230 C232 1.391 . S
C231 C230 1.386 . S
C231 C235 1.393 . S
C232 H221 0.950 1_655 S
C232 C230 1.391 . S
C232 C233 1.400 . S
C233 C227 1.491 1_654 S
C233 C232 1.400 . S
C233 C234 1.398 1_554 S
C234 H222 0.950 . S
C234 C233 1.398 1_556 S
C234 C235 1.391 1_556 S
C235 H223 0.950 . S
C235 C231 1.393 . S
C235 C234 1.391 1_554 S
H236 C244 0.950 . S
H237 C249 0.950 . S
H238 C246 0.950 . S
H239 C248 0.950 1_545 S
H240 C250 0.950 . S
H241 C252 0.950 . S
H242 C254 0.950 1_565 S
H243 C255 0.950 . S
C244 H236 0.950 . S
C244 C245 1.386 . S
C244 C246 1.391 1_455 S
C245 C244 1.386 . S
C245 C249 1.393 . S
C246 H238 0.950 . S
C246 C244 1.391 1_655 S
C246 C247 1.400 1_655 S
C247 C246 1.400 1_455 S
C247 C248 1.398 . S
C247 C253 1.491 1_465 S
C248 H239 0.950 1_565 S
C248 C247 1.398 . S
C248 C249 1.391 . S
C249 H237 0.950 . S
C249 C245 1.393 . S
C249 C248 1.391 . S
C250 H240 0.950 . S
C250 C251 1.386 . S
C250 C252 1.391 1_655 S
C251 C250 1.386 . S
C251 C255 1.393 . S
C252 H241 0.950 . S
C252 C250 1.391 1_455 S
C252 C253 1.400 1_455 S
C253 C247 1.491 1_645 S
C253 C252 1.400 1_655 S
C253 C254 1.398 . S
C254 H242 0.950 1_545 S
C254 C253 1.398 . S
C254 C255 1.391 . S
C255 H243 0.950 . S
C255 C251 1.393 . S
C255 C254 1.391 . S
H256 C264 0.950 . S
H257 C269 0.950 . S
H258 C266 0.950 1_545 S
H259 C268 0.950 1_655 S
H260 C270 0.950 . S
H261 C272 0.950 1_565 S
H262 C274 0.950 1_455 S
H263 C275 0.950 . S
C264 H256 0.950 . S
C264 C265 1.386 . S
C264 C266 1.391 . S
C265 C264 1.386 . S
C265 C269 1.393 . S
C266 H258 0.950 1_565 S
C266 C264 1.391 . S
C266 C267 1.400 . S
C267 C266 1.400 . S
C267 C268 1.398 . S
C267 C273 1.491 1_466 S
C268 H259 0.950 1_455 S
C268 C267 1.398 . S
C268 C269 1.391 . S
C269 H257 0.950 . S
C269 C265 1.393 . S
C269 C268 1.391 . S
C270 H260 0.950 . S
C270 C271 1.386 . S
C270 C272 1.391 . S
C271 C270 1.386 . S
C271 C275 1.393 . S
C272 H261 0.950 1_545 S
C272 C270 1.391 . S
C272 C273 1.400 . S
C273 C267 1.491 1_644 S
C273 C272 1.400 . S
C273 C274 1.398 . S
C274 H262 0.950 1_655 S
C274 C273 1.398 . S
C274 C275 1.391 . S
C275 H263 0.950 . S
C275 C271 1.393 . S
C275 C274 1.391 . S
H276 C284 0.950 . S
H277 C289 0.950 . S
H278 C286 0.950 . S
H279 C288 0.950 1_545 S
H280 C290 0.950 . S
H281 C292 0.950 . S
H282 C294 0.950 1_565 S
H283 C295 0.950 . S
C284 H276 0.950 . S
C284 C285 1.386 . S
C284 C286 1.391 . S
C285 C284 1.386 . S
C285 C289 1.393 . S
C286 H278 0.950 . S
C286 C284 1.391 . S
C286 C287 1.400 . S
C287 C286 1.400 . S
C287 C288 1.398 . S
C287 C293 1.491 1_565 S
C288 H279 0.950 1_565 S
C288 C287 1.398 . S
C288 C289 1.391 . S
C289 H277 0.950 . S
C289 C285 1.393 . S
C289 C288 1.391 . S
C290 H280 0.950 . S
C290 C291 1.386 . S
C290 C292 1.391 . S
C291 C290 1.386 . S
C291 C295 1.393 . S
C292 H281 0.950 . S
C292 C290 1.391 . S
C292 C293 1.400 . S
C293 C287 1.491 1_545 S
C293 C292 1.400 . S
C293 C294 1.398 . S
C294 H282 0.950 1_545 S
C294 C293 1.398 . S
C294 C295 1.391 . S
C295 H283 0.950 . S
C295 C291 1.393 . S
C295 C294 1.391 . S
H296 C304 0.950 . S
H297 C309 0.950 . S
H298 C306 0.950 . S
H299 C308 0.950 . S
H300 C310 0.950 . S
H301 C312 0.950 . S
H302 C314 0.950 . S
H303 C315 0.950 . S
C304 H296 0.950 . S
C304 C305 1.386 . S
C304 C306 1.391 . S
C305 C304 1.386 . S
C305 C309 1.393 . S
C306 H298 0.950 . S
C306 C304 1.391 . S
C306 C307 1.400 . S
C307 C306 1.400 . S
C307 C308 1.398 1_554 S
C307 C313 1.491 1_554 S
C308 H299 0.950 . S
C308 C307 1.398 1_556 S
C308 C309 1.391 1_556 S
C309 H297 0.950 . S
C309 C305 1.393 . S
C309 C308 1.391 1_554 S
C310 H300 0.950 . S
C310 C311 1.386 . S
C310 C312 1.391 . S
C311 C310 1.386 . S
C311 C315 1.393 . S
C312 H301 0.950 . S
C312 C310 1.391 . S
C312 C313 1.400 . S
C313 C307 1.491 1_556 S
C313 C312 1.400 . S
C313 C314 1.398 1_556 S
C314 H302 0.950 . S
C314 C313 1.398 1_554 S
C314 C315 1.391 1_554 S
C315 H303 0.950 . S
C315 C311 1.393 . S
C315 C314 1.391 1_556 S
H316 C324 0.950 . S
H317 C329 0.950 . S
H318 C326 0.950 . S
H319 C328 0.950 1_655 S
H320 C330 0.950 . S
H321 C332 0.950 . S
H322 C334 0.950 1_455 S
H323 C335 0.950 . S
C324 H316 0.950 . S
C324 C325 1.386 . S
C324 C326 1.391 . S
C325 C324 1.386 . S
C325 C329 1.393 . S
C326 H318 0.950 . S
C326 C324 1.391 . S
C326 C327 1.400 . S
C327 C326 1.400 . S
C327 C328 1.398 . S
C327 C333 1.491 1_455 S
C328 H319 0.950 1_455 S
C328 C327 1.398 . S
C328 C329 1.391 . S
C329 H317 0.950 . S
C329 C325 1.393 . S
C329 C328 1.391 . S
C330 H320 0.950 . S
C330 C331 1.386 . S
C330 C332 1.391 . S
C331 C330 1.386 . S
C331 C335 1.393 . S
C332 H321 0.950 . S
C332 C330 1.391 . S
C332 C333 1.400 . S
C333 C327 1.491 1_655 S
C333 C332 1.400 . S
C333 C334 1.398 . S
C334 H322 0.950 1_655 S
C334 C333 1.398 . S
C334 C335 1.391 . S
C335 H323 0.950 . S
C335 C331 1.393 . S
C335 C334 1.391 . S
H336 C344 0.950 . S
H337 C349 0.950 . S
H338 C346 0.950 . S
H339 C348 0.950 . S
H340 C350 0.950 . S
H341 C352 0.950 . S
H342 C354 0.950 . S
H343 C355 0.950 . S
C344 H336 0.950 . S
C344 C345 1.386 . S
C344 C346 1.391 . S
C345 C344 1.386 . S
C345 C349 1.393 . S
C346 H338 0.950 . S
C346 C344 1.391 . S
C346 C347 1.400 . S
C347 C346 1.400 . S
C347 C348 1.398 . S
C347 C353 1.491 . S
C348 H339 0.950 . S
C348 C347 1.398 . S
C348 C349 1.391 . S
C349 H337 0.950 . S
C349 C345 1.393 . S
C349 C348 1.391 . S
C350 H340 0.950 . S
C350 C351 1.386 . S
C350 C352 1.391 . S
C351 C350 1.386 . S
C351 C355 1.393 . S
C352 H341 0.950 . S
C352 C350 1.391 . S
C352 C353 1.400 . S
C353 C347 1.491 . S
C353 C352 1.400 . S
C353 C354 1.398 . S
C354 H342 0.950 . S
C354 C353 1.398 . S
C354 C355 1.391 . S
C355 H343 0.950 . S
C355 C351 1.393 . S
C355 C354 1.391 . S
H356 C364 0.950 . S
H357 C369 0.950 . S
H358 C366 0.950 . S
H359 C368 0.950 . S
H360 C370 0.950 . S
H361 C372 0.950 . S
H362 C374 0.950 . S
H363 C375 0.950 . S
C364 H356 0.950 . S
C364 C365 1.386 . S
C364 C366 1.391 . S
C365 C364 1.386 . S
C365 C369 1.393 . S
C366 H358 0.950 . S
C366 C364 1.391 . S
C366 C367 1.400 . S
C367 C366 1.400 . S
C367 C368 1.398 . S
C367 C373 1.491 . S
C368 H359 0.950 . S
C368 C367 1.398 . S
C368 C369 1.391 . S
C369 H357 0.950 . S
C369 C365 1.393 . S
C369 C368 1.391 . S
C370 H360 0.950 . S
C370 C371 1.386 . S
C370 C372 1.391 . S
C371 C370 1.386 . S
C371 C375 1.393 . S
C372 H361 0.950 . S
C372 C370 1.391 . S
C372 C373 1.400 . S
C373 C367 1.491 . S
C373 C372 1.400 . S
C373 C374 1.398 . S
C374 H362 0.950 . S
C374 C373 1.398 . S
C374 C375 1.391 . S
C375 H363 0.950 . S
C375 C371 1.393 . S
C375 C374 1.391 . S
H376 C384 0.950 . S
H377 C389 0.950 . S
H378 C386 0.950 . S
H379 C388 0.950 . S
H380 C390 0.950 . S
H381 C392 0.950 . S
H382 C394 0.950 . S
H383 C395 0.950 . S
C384 H376 0.950 . S
C384 C385 1.386 . S
C384 C386 1.391 . S
C385 C384 1.386 . S
C385 C389 1.393 . S
C386 H378 0.950 . S
C386 C384 1.391 . S
C386 C387 1.400 . S
C387 C386 1.400 . S
C387 C388 1.398 . S
C387 C393 1.491 . S
C388 H379 0.950 . S
C388 C387 1.398 . S
C388 C389 1.391 . S
C389 H377 0.950 . S
C389 C385 1.393 . S
C389 C388 1.391 . S
C390 H380 0.950 . S
C390 C391 1.386 . S
C390 C392 1.391 . S
C391 C390 1.386 . S
C391 C395 1.393 . S
C392 H381 0.950 . S
C392 C390 1.391 . S
C392 C393 1.400 . S
C393 C387 1.491 . S
C393 C392 1.400 . S
C393 C394 1.398 . S
C394 H382 0.950 . S
C394 C393 1.398 . S
C394 C395 1.391 . S
C395 H383 0.950 . S
C395 C391 1.393 . S
C395 C394 1.391 . S
H396 C404 0.950 . S
H397 C409 0.950 . S
H398 C406 0.950 . S
H399 C408 0.950 . S
H400 C410 0.950 . S
H401 C412 0.950 . S
H402 C414 0.950 . S
H403 C415 0.950 . S
C404 H396 0.950 . S
C404 C405 1.386 . S
C404 C406 1.391 . S
C405 C404 1.386 . S
C405 C409 1.393 . S
C406 H398 0.950 . S
C406 C404 1.391 . S
C406 C407 1.400 . S
C407 C406 1.400 . S
C407 C408 1.398 . S
C407 C413 1.491 . S
C408 H399 0.950 . S
C408 C407 1.398 . S
C408 C409 1.391 . S
C409 H397 0.950 . S
C409 C405 1.393 . S
C409 C408 1.391 . S
C410 H400 0.950 . S
C410 C411 1.386 . S
C410 C412 1.391 . S
C411 C410 1.386 . S
C411 C415 1.393 . S
C412 H401 0.950 . S
C412 C410 1.391 . S
C412 C413 1.400 . S
C413 C407 1.491 . S
C413 C412 1.400 . S
C413 C414 1.398 . S
C414 H402 0.950 . S
C414 C413 1.398 . S
C414 C415 1.391 . S
C415 H403 0.950 . S
C415 C411 1.393 . S
C415 C414 1.391 . S
H416 C424 0.950 . S
H417 C429 0.950 . S
H418 C426 0.950 . S
H419 C428 0.950 . S
H420 C430 0.950 . S
H421 C432 0.950 . S
H422 C434 0.950 . S
H423 C435 0.950 . S
C424 H416 0.950 . S
C424 C425 1.386 . S
C424 C426 1.391 . S
C425 C424 1.386 . S
C425 C429 1.393 . S
C426 H418 0.950 . S
C426 C424 1.391 . S
C426 C427 1.400 . S
C427 C426 1.400 . S
C427 C428 1.398 . S
C427 C433 1.491 . S
C428 H419 0.950 . S
C428 C427 1.398 . S
C428 C429 1.391 . S
C429 H417 0.950 . S
C429 C425 1.393 . S
C429 C428 1.391 . S
C430 H420 0.950 . S
C430 C431 1.386 . S
C430 C432 1.391 . S
C431 C430 1.386 . S
C431 C435 1.393 . S
C432 H421 0.950 . S
C432 C430 1.391 . S
C432 C433 1.400 . S
C433 C427 1.491 . S
C433 C432 1.400 . S
C433 C434 1.398 . S
C434 H422 0.950 . S
C434 C433 1.398 . S
C434 C435 1.391 . S
C435 H423 0.950 . S
C435 C431 1.393 . S
C435 C434 1.391 . S
H436 C444 0.950 . S
H437 C449 0.950 . S
H438 C446 0.950 . S
H439 C448 0.950 . S
H440 C450 0.950 . S
H441 C452 0.950 . S
H442 C454 0.950 . S
H443 C455 0.950 . S
C444 H436 0.950 . S
C444 C445 1.386 . S
C444 C446 1.391 . S
C445 C444 1.386 . S
C445 C449 1.393 . S
C446 H438 0.950 . S
C446 C444 1.391 . S
C446 C447 1.400 . S
C447 C446 1.400 . S
C447 C448 1.398 . S
C447 C453 1.491 . S
C448 H439 0.950 . S
C448 C447 1.398 . S
C448 C449 1.391 . S
C449 H437 0.950 . S
C449 C445 1.393 . S
C449 C448 1.391 . S
C450 H440 0.950 . S
C450 C451 1.386 . S
C450 C452 1.391 . S
C451 C450 1.386 . S
C451 C455 1.393 . S
C452 H441 0.950 . S
C452 C450 1.391 . S
C452 C453 1.400 . S
C453 C447 1.491 . S
C453 C452 1.400 . S
C453 C454 1.398 . S
C454 H442 0.950 . S
C454 C453 1.398 . S
C454 C455 1.391 . S
C455 H443 0.950 . S
C455 C451 1.393 . S
C455 C454 1.391 . S
H456 C464 0.950 . S
H457 C469 0.950 . S
H458 C466 0.950 . S
H459 C468 0.950 . S
H460 C470 0.950 . S
H461 C472 0.950 . S
H462 C474 0.950 . S
H463 C475 0.950 . S
C464 H456 0.950 . S
C464 C465 1.386 . S
C464 C466 1.391 . S
C465 C464 1.386 . S
C465 C469 1.393 . S
C466 H458 0.950 . S
C466 C464 1.391 . S
C466 C467 1.400 . S
C467 C466 1.400 . S
C467 C468 1.398 . S
C467 C473 1.491 . S
C468 H459 0.950 . S
C468 C467 1.398 . S
C468 C469 1.391 . S
C469 H457 0.950 . S
C469 C465 1.393 . S
C469 C468 1.391 . S
C470 H460 0.950 . S
C470 C471 1.386 . S
C470 C472 1.391 . S
C471 C470 1.386 . S
C471 C475 1.393 . S
C472 H461 0.950 . S
C472 C470 1.391 . S
C472 C473 1.400 . S
C473 C467 1.491 . S
C473 C472 1.400 . S
C473 C474 1.398 . S
C474 H462 0.950 . S
C474 C473 1.398 . S
C474 C475 1.391 . S
C475 H463 0.950 . S
C475 C471 1.393 . S
C475 C474 1.391 . S
H476 C484 0.950 . S
H477 C489 0.950 . S
H478 C486 0.950 . S
H479 C488 0.950 . S
H480 C490 0.950 . S
H481 C492 0.950 . S
H482 C494 0.950 . S
H483 C495 0.950 . S
C484 H476 0.950 . S
C484 C485 1.386 . S
C484 C486 1.391 . S
C485 C484 1.386 . S
C485 C489 1.393 . S
C486 H478 0.950 . S
C486 C484 1.391 . S
C486 C487 1.400 . S
C487 C486 1.400 . S
C487 C488 1.398 . S
C487 C493 1.491 . S
C488 H479 0.950 . S
C488 C487 1.398 . S
C488 C489 1.391 . S
C489 H477 0.950 . S
C489 C485 1.393 . S
C489 C488 1.391 . S
C490 H480 0.950 . S
C490 C491 1.386 . S
C490 C492 1.391 . S
C491 C490 1.386 . S
C491 C495 1.393 . S
C492 H481 0.950 . S
C492 C490 1.391 . S
C492 C493 1.400 . S
C493 C487 1.491 . S
C493 C492 1.400 . S
C493 C494 1.398 . S
C494 H482 0.950 . S
C494 C493 1.398 . S
C494 C495 1.391 . S
C495 H483 0.950 . S
C495 C491 1.393 . S
C495 C494 1.391 . S
H496 C504 0.950 . S
H497 C509 0.950 . S
H498 C506 0.950 . S
H499 C508 0.950 . S
H500 C510 0.950 . S
H501 C512 0.950 . S
H502 C514 0.950 . S
H503 C515 0.950 . S
C504 H496 0.950 . S
C504 C505 1.386 . S
C504 C506 1.391 . S
C505 C504 1.386 . S
C505 C509 1.393 . S
C506 H498 0.950 . S
C506 C504 1.391 . S
C506 C507 1.400 . S
C507 C506 1.400 . S
C507 C508 1.398 . S
C507 C513 1.491 . S
C508 H499 0.950 . S
C508 C507 1.398 . S
C508 C509 1.391 . S
C509 H497 0.950 . S
C509 C505 1.393 . S
C509 C508 1.391 . S
C510 H500 0.950 . S
C510 C511 1.386 . S
C510 C512 1.391 . S
C511 C510 1.386 . S
C511 C515 1.393 . S
C512 H501 0.950 . S
C512 C510 1.391 . S
C512 C513 1.400 . S
C513 C507 1.491 . S
C513 C512 1.400 . S
C513 C514 1.398 . S
C514 H502 0.950 . S
C514 C513 1.398 . S
C514 C515 1.391 . S
C515 H503 0.950 . S
C515 C511 1.393 . S
C515 C514 1.391 . S
H516 C524 0.950 . S
H517 C529 0.950 . S
H518 C526 0.950 . S
H519 C528 0.950 . S
H520 C530 0.950 . S
H521 C532 0.950 . S
H522 C534 0.950 . S
H523 C535 0.950 . S
C524 H516 0.950 . S
C524 C525 1.386 . S
C524 C526 1.391 . S
C525 C524 1.386 . S
C525 C529 1.393 . S
C526 H518 0.950 . S
C526 C524 1.391 . S
C526 C527 1.400 . S
C527 C526 1.400 . S
C527 C528 1.398 . S
C527 C533 1.491 . S
C528 H519 0.950 . S
C528 C527 1.398 . S
C528 C529 1.391 . S
C529 H517 0.950 . S
C529 C525 1.393 . S
C529 C528 1.391 . S
C530 H520 0.950 . S
C530 C531 1.386 . S
C530 C532 1.391 . S
C531 C530 1.386 . S
C531 C535 1.393 . S
C532 H521 0.950 . S
C532 C530 1.391 . S
C532 C533 1.400 . S
C533 C527 1.491 . S
C533 C532 1.400 . S
C533 C534 1.398 . S
C534 H522 0.950 . S
C534 C533 1.398 . S
C534 C535 1.391 . S
C535 H523 0.950 . S
C535 C531 1.393 . S
C535 C534 1.391 . S
H536 C544 0.950 . S
H537 C549 0.950 . S
H538 C546 0.950 . S
H539 C548 0.950 . S
H540 C550 0.950 . S
H541 C552 0.950 . S
H542 C554 0.950 . S
H543 C555 0.950 . S
C544 H536 0.950 . S
C544 C545 1.386 . S
C544 C546 1.391 . S
C545 C544 1.386 . S
C545 C549 1.393 . S
C546 H538 0.950 . S
C546 C544 1.391 . S
C546 C547 1.400 . S
C547 C546 1.400 . S
C547 C548 1.398 . S
C547 C553 1.491 . S
C548 H539 0.950 . S
C548 C547 1.398 . S
C548 C549 1.391 . S
C549 H537 0.950 . S
C549 C545 1.393 . S
C549 C548 1.391 . S
C550 H540 0.950 . S
C550 C551 1.386 . S
C550 C552 1.391 . S
C551 C550 1.386 . S
C551 C555 1.393 . S
C552 H541 0.950 . S
C552 C550 1.391 . S
C552 C553 1.400 . S
C553 C547 1.491 . S
C553 C552 1.400 . S
C553 C554 1.398 . S
C554 H542 0.950 . S
C554 C553 1.398 . S
C554 C555 1.391 . S
C555 H543 0.950 . S
C555 C551 1.393 . S
C555 C554 1.391 . S
H556 C564 0.950 . S
H557 C569 0.950 . S
H558 C566 0.950 . S
H559 C568 0.950 . S
H560 C570 0.950 . S
H561 C572 0.950 . S
H562 C574 0.950 . S
H563 C575 0.950 . S
C564 H556 0.950 . S
C564 C565 1.386 . S
C564 C566 1.391 . S
C565 C564 1.386 . S
C565 C569 1.393 . S
C566 H558 0.950 . S
C566 C564 1.391 . S
C566 C567 1.400 . S
C567 C566 1.400 . S
C567 C568 1.398 . S
C567 C573 1.491 . S
C568 H559 0.950 . S
C568 C567 1.398 . S
C568 C569 1.391 . S
C569 H557 0.950 . S
C569 C565 1.393 . S
C569 C568 1.391 . S
C570 H560 0.950 . S
C570 C571 1.386 . S
C570 C572 1.391 . S
C571 C570 1.386 . S
C571 C575 1.393 . S
C572 H561 0.950 . S
C572 C570 1.391 . S
C572 C573 1.400 . S
C573 C567 1.491 . S
C573 C572 1.400 . S
C573 C574 1.398 . S
C574 H562 0.950 . S
C574 C573 1.398 . S
C574 C575 1.391 . S
C575 H563 0.950 . S
C575 C571 1.393 . S
C575 C574 1.391 . S
H576 C584 0.950 . S
H577 C589 0.950 . S
H578 C586 0.950 . S
H579 C588 0.950 . S
H580 C590 0.950 . S
H581 C592 0.950 . S
H582 C594 0.950 . S
H583 C595 0.950 . S
C584 H576 0.950 . S
C584 C585 1.386 . S
C584 C586 1.391 . S
C585 C584 1.386 . S
C585 C589 1.393 . S
C586 H578 0.950 . S
C586 C584 1.391 . S
C586 C587 1.400 . S
C587 C586 1.400 . S
C587 C588 1.398 . S
C587 C593 1.491 . S
C588 H579 0.950 . S
C588 C587 1.398 . S
C588 C589 1.391 . S
C589 H577 0.950 . S
C589 C585 1.393 . S
C589 C588 1.391 . S
C590 H580 0.950 . S
C590 C591 1.386 . S
C590 C592 1.391 . S
C591 C590 1.386 . S
C591 C595 1.393 . S
C592 H581 0.950 . S
C592 C590 1.391 . S
C592 C593 1.400 . S
C593 C587 1.491 . S
C593 C592 1.400 . S
C593 C594 1.398 . S
C594 H582 0.950 . S
C594 C593 1.398 . S
C594 C595 1.391 . S
C595 H583 0.950 . S
C595 C591 1.393 . S
C595 C594 1.391 . S
H596 C604 0.950 . S
H597 C609 0.950 . S
H598 C606 0.950 . S
H599 C608 0.950 . S
H600 C610 0.950 . S
H601 C612 0.950 . S
H602 C614 0.950 . S
H603 C615 0.950 . S
C604 H596 0.950 . S
C604 C605 1.386 . S
C604 C606 1.391 . S
C605 C604 1.386 . S
C605 C609 1.393 . S
C606 H598 0.950 . S
C606 C604 1.391 . S
C606 C607 1.400 . S
C607 C606 1.400 . S
C607 C608 1.398 . S
C607 C613 1.491 . S
C608 H599 0.950 . S
C608 C607 1.398 . S
C608 C609 1.391 . S
C609 H597 0.950 . S
C609 C605 1.393 . S
C609 C608 1.391 . S
C610 H600 0.950 . S
C610 C611 1.386 . S
C610 C612 1.391 . S
C611 C610 1.386 . S
C611 C615 1.393 . S
C612 H601 0.950 . S
C612 C610 1.391 . S
C612 C613 1.400 . S
C613 C607 1.491 . S
C613 C612 1.400 . S
C613 C614 1.398 . S
C614 H602 0.950 . S
C614 C613 1.398 . S
C614 C615 1.391 . S
C615 H603 0.950 . S
C615 C611 1.393 . S
C615 C614 1.391 . S
H616 C624 0.950 . S
H617 C629 0.950 . S
H618 C626 0.950 . S
H619 C628 0.950 . S
H620 C630 0.950 . S
H621 C632 0.950 . S
H622 C634 0.950 . S
H623 C635 0.950 . S
C624 H616 0.950 . S
C624 C625 1.386 . S
C624 C626 1.391 . S
C625 C624 1.386 . S
C625 C629 1.393 . S
C626 H618 0.950 . S
C626 C624 1.391 . S
C626 C627 1.400 . S
C627 C626 1.400 . S
C627 C628 1.398 . S
C627 C633 1.491 . S
C628 H619 0.950 . S
C628 C627 1.398 . S
C628 C629 1.391 . S
C629 H617 0.950 . S
C629 C625 1.393 . S
C629 C628 1.391 . S
C630 H620 0.950 . S
C630 C631 1.386 . S
C630 C632 1.391 . S
C631 C630 1.386 . S
C631 C635 1.393 . S
C632 H621 0.950 . S
C632 C630 1.391 . S
C632 C633 1.400 . S
C633 C627 1.491 . S
C633 C632 1.400 . S
C633 C634 1.398 . S
C634 H622 0.950 . S
C634 C633 1.398 . S
C634 C635 1.391 . S
C635 H623 0.950 . S
C635 C631 1.393 . S
C635 C634 1.391 . S
H636 C644 0.950 . S
H637 C649 0.950 . S
H638 C646 0.950 . S
H639 C648 0.950 . S
H640 C650 0.950 . S
H641 C652 0.950 . S
H642 C654 0.950 . S
H643 C655 0.950 . S
C644 H636 0.950 . S
C644 C645 1.386 . S
C644 C646 1.391 . S
C645 C644 1.386 . S
C645 C649 1.393 . S
C646 H638 0.950 . S
C646 C644 1.391 . S
C646 C647 1.400 . S
C647 C646 1.400 . S
C647 C648 1.398 . S
C647 C653 1.491 . S
C648 H639 0.950 . S
C648 C647 1.398 . S
C648 C649 1.391 . S
C649 H637 0.950 . S
C649 C645 1.393 . S
C649 C648 1.391 . S
C650 H640 0.950 . S
C650 C651 1.386 . S
C650 C652 1.391 . S
C651 C650 1.386 . S
C651 C655 1.393 . S
C652 H641 0.950 . S
C652 C650 1.391 . S
C652 C653 1.400 . S
C653 C647 1.491 . S
C653 C652 1.400 . S
C653 C654 1.398 . S
C654 H642 0.950 . S
C654 C653 1.398 . S
C654 C655 1.391 . S
C655 H643 0.950 . S
C655 C651 1.393 . S
C655 C654 1.391 . S
C185 C96 1.629 . S
C191 C8 1.680 . S
C205 C19 1.679 . S
C211 C107 1.634 . S
C225 C118 1.619 . S
C231 C30 1.678 . S
C245 C41 1.678 . S
C251 C129 1.629 . S
C265 C52 1.677 . S
C271 C140 1.621 . S
C285 C151 1.635 . S
C291 C63 1.681 . S
C305 C162 1.619 . S
C311 C74 1.678 . S
C325 C173 1.619 . S
C331 C85 1.677 . S
C345 C7 1.597 . S
C351 C62 1.590 . S
C365 C73 1.584 . S
C371 C18 1.589 . S
C385 C84 1.587 . S
C391 C29 1.595 . S
C405 C40 1.597 . S
C411 C51 1.589 . S
C425 C95 1.538 . S
C431 C150 1.524 . S
C445 C161 1.525 . S
C451 C106 1.514 . S
C465 C117 1.534 . S
C471 C172 1.511 . S
C485 C139 1.524 . S
C491 C128 1.538 . S
C505 C137 1.384 . S
C511 C5 1.490 . S
C525 C148 1.339 . S
C531 C16 1.454 . S
C545 C27 1.476 . S
C551 C159 1.378 . S
C565 C170 1.336 . S
C571 C38 1.464 . S
C585 C49 1.477 . S
C591 C93 1.378 . S
C605 C104 1.380 . S
C611 C60 1.493 . S
C625 C115 1.376 . S
C631 C71 1.474 . S
C645 C126 1.374 . S
C651 C82 1.472 . S
