# Generated by pormake.
# Topology uol, (4)-cn, num edge types: 1
# Building blocks:
#     Node 0, Type 0, BuildingBlock: KUFVIS_clean_sbu_0, # of connection points: 4
#     Node 1, Type 0, BuildingBlock: KUFVIS_clean_sbu_0, # of connection points: 4
#     Node 2, Type 0, BuildingBlock: KUFVIS_clean_sbu_0, # of connection points: 4
#     Node 3, Type 0, BuildingBlock: KUFVIS_clean_sbu_0, # of connection points: 4
#     Node 4, Type 0, BuildingBlock: KUFVIS_clean_sbu_0, # of connection points: 4
#     Node 5, Type 0, BuildingBlock: KUFVIS_clean_sbu_0, # of connection points: 4
#     Node 6, Type 0, BuildingBlock: KUFVIS_clean_sbu_0, # of connection points: 4
#     Node 7, Type 0, BuildingBlock: KUFVIS_clean_sbu_0, # of connection points: 4
#     Node 8, Type 0, BuildingBlock: KUFVIS_clean_sbu_0, # of connection points: 4
#     Node 9, Type 0, BuildingBlock: KUFVIS_clean_sbu_0, # of connection points: 4
#     Node 10, Type 0, BuildingBlock: KUFVIS_clean_sbu_0, # of connection points: 4
#     Node 11, Type 0, BuildingBlock: KUFVIS_clean_sbu_0, # of connection points: 4
#     Edge 12, Type (0, 0), BuildingBlock: AJUNOK_clean_linker_0, # of connection points: 2
#     Edge 13, Type (0, 0), BuildingBlock: AJUNOK_clean_linker_0, # of connection points: 2
#     Edge 14, Type (0, 0), BuildingBlock: AJUNOK_clean_linker_0, # of connection points: 2
#     Edge 15, Type (0, 0), BuildingBlock: AJUNOK_clean_linker_0, # of connection points: 2
#     Edge 16, Type (0, 0), BuildingBlock: AJUNOK_clean_linker_0, # of connection points: 2
#     Edge 17, Type (0, 0), BuildingBlock: AJUNOK_clean_linker_0, # of connection points: 2
#     Edge 18, Type (0, 0), BuildingBlock: AJUNOK_clean_linker_0, # of connection points: 2
#     Edge 19, Type (0, 0), BuildingBlock: AJUNOK_clean_linker_0, # of connection points: 2
#     Edge 20, Type (0, 0), BuildingBlock: AJUNOK_clean_linker_0, # of connection points: 2
#     Edge 21, Type (0, 0), BuildingBlock: AJUNOK_clean_linker_0, # of connection points: 2
#     Edge 22, Type (0, 0), BuildingBlock: AJUNOK_clean_linker_0, # of connection points: 2
#     Edge 23, Type (0, 0), BuildingBlock: AJUNOK_clean_linker_0, # of connection points: 2
#     Edge 24, Type (0, 0), BuildingBlock: AJUNOK_clean_linker_0, # of connection points: 2
#     Edge 25, Type (0, 0), BuildingBlock: AJUNOK_clean_linker_0, # of connection points: 2
#     Edge 26, Type (0, 0), BuildingBlock: AJUNOK_clean_linker_0, # of connection points: 2
#     Edge 27, Type (0, 0), BuildingBlock: AJUNOK_clean_linker_0, # of connection points: 2
#     Edge 28, Type (0, 0), BuildingBlock: AJUNOK_clean_linker_0, # of connection points: 2
#     Edge 29, Type (0, 0), BuildingBlock: AJUNOK_clean_linker_0, # of connection points: 2
#     Edge 30, Type (0, 0), BuildingBlock: AJUNOK_clean_linker_0, # of connection points: 2
#     Edge 31, Type (0, 0), BuildingBlock: AJUNOK_clean_linker_0, # of connection points: 2
#     Edge 32, Type (0, 0), BuildingBlock: AJUNOK_clean_linker_0, # of connection points: 2
#     Edge 33, Type (0, 0), BuildingBlock: AJUNOK_clean_linker_0, # of connection points: 2
#     Edge 34, Type (0, 0), BuildingBlock: AJUNOK_clean_linker_0, # of connection points: 2
#     Edge 35, Type (0, 0), BuildingBlock: AJUNOK_clean_linker_0, # of connection points: 2
# Relax obj value: 0.137
# Max RMSD: 0.196
# Mean RMSD: 0.196
data_MOF--net-uol--node1-KUFVIS_clean_sbu_0--edge1-AJUNOK_clean_linker_0
_symmetry_space_group_name_H-M    P1
_symmetry_Int_Tables_number       1
_symmetry_cell_setting            triclinic
loop_
_symmetry_equiv_pos_as_xyz
'x, y, z'
_cell_length_a     23.456414
_cell_length_b     23.465707
_cell_length_c     50.374644
_cell_angle_alpha  90.030843
_cell_angle_beta   89.939884
_cell_angle_gamma 120.00423
loop_
_atom_site_label
_atom_site_type_symbol
_atom_site_fract_x
_atom_site_fract_y
_atom_site_fract_z
_atom_type_partial_charge
Mn0 Mn 0.1507 0.33522 0.10256 0.0
Mn1 Mn 0.18089 0.41261 0.16197 0.0
C2 C 0.19841 0.30541 0.13569 0.0
C3 C 0.18546 0.33388 0.059 0.0
C4 C 0.04575 0.30394 0.14492 0.0
O5 O 0.14049 0.41463 0.09503 0.0
O6 O 0.17245 0.46802 0.13403 0.0
C7 C 0.31202 0.52907 0.15234 0.0
N8 N 0.27212 0.47451 0.16689 0.0
C9 C 0.35615 0.50292 0.19993 0.0
C10 C 0.39815 0.55957 0.18534 0.0
C11 C 0.37612 0.57244 0.16136 0.0
C12 C 0.29298 0.46134 0.18986 0.0
H13 H 0.29483 0.53962 0.13412 0.0
C14 C 0.15498 0.46428 0.10971 0.0
O15 O 0.12351 0.30108 0.06542 0.0
O16 O 0.22621 0.36855 0.07761 0.0
N17 N 0.19065 0.3658 0.19103 0.0
C18 C 0.14578 0.30658 0.20154 0.0
C19 C 0.16262 0.28292 0.22403 0.0
C20 C 0.22417 0.32161 0.2362 0.0
C21 C 0.26881 0.38323 0.22544 0.0
C22 C 0.25009 0.4033 0.20249 0.0
H23 H 0.09809 0.277 0.1925 0.0
O24 O 0.17072 0.26771 0.11536 0.0
O25 O 0.2006 0.36228 0.13566 0.0
O26 O 0.06184 0.28901 0.1228 0.0
O27 O 0.08611 0.35054 0.15984 0.0
C28 C 0.33163 0.42495 0.23627 0.0
C29 C 0.3751 0.48502 0.22364 0.0
H30 H 0.44764 0.5931 0.19221 0.0
H31 H 0.40831 0.61595 0.14995 0.0
H32 H 0.12806 0.23505 0.23203 0.0
H33 H 0.23677 0.30335 0.25367 0.0
H34 H 0.34735 0.41091 0.2541 0.0
H35 H 0.42364 0.5162 0.23192 0.0
Mn36 Mn 0.81681 0.1437 0.26803 0.0
Mn37 Mn 0.77007 0.17613 0.32716 0.0
C38 C 0.89507 0.19449 0.30081 0.0
C39 C 0.85227 0.17509 0.2242 0.0
C40 C 0.74537 0.04094 0.31129 0.0
O41 O 0.72633 0.13172 0.26047 0.0
O42 O 0.70493 0.16453 0.29929 0.0
C43 C 0.78141 0.30532 0.31629 0.0
N44 N 0.7976 0.26715 0.33123 0.0
C45 C 0.85207 0.35316 0.36363 0.0
C46 C 0.83586 0.3934 0.34863 0.0
C47 C 0.80077 0.36951 0.32477 0.0
C48 C 0.83182 0.28982 0.35408 0.0
H49 H 0.75345 0.28665 0.29819 0.0
C50 C 0.69065 0.14569 0.27513 0.0
O51 O 0.82327 0.11375 0.23142 0.0
O52 O 0.85788 0.21728 0.24212 0.0
N53 N 0.82775 0.18884 0.35617 0.0
C54 C 0.84371 0.14557 0.36709 0.0
C55 C 0.88474 0.16447 0.38948 0.0
C56 C 0.90633 0.22635 0.40115 0.0
C57 C 0.88763 0.26927 0.38999 0.0
C58 C 0.8485 0.2486 0.36714 0.0
H59 H 0.82651 0.0976 0.35844 0.0
O60 O 0.90502 0.16573 0.28083 0.0
O61 O 0.83986 0.19573 0.30067 0.0
O62 O 0.77562 0.05623 0.28902 0.0
O63 O 0.73905 0.08162 0.32597 0.0
C64 C 0.90737 0.33229 0.40031 0.0
C65 C 0.88916 0.37402 0.38726 0.0
H66 H 0.85074 0.44295 0.35509 0.0
H67 H 0.78823 0.40033 0.31306 0.0
H68 H 0.89936 0.13122 0.39779 0.0
H69 H 0.93757 0.24053 0.41855 0.0
H70 H 0.93735 0.3495 0.41805 0.0
H71 H 0.90549 0.42274 0.39514 0.0
Mn72 Mn 0.67818 0.81364 0.4344 0.0
Mn73 Mn 0.60021 0.76934 0.49377 0.0
C74 C 0.70623 0.89315 0.46664 0.0
C75 C 0.68142 0.84785 0.39051 0.0
C76 C 0.7095 0.74267 0.47769 0.0
O77 O 0.59906 0.72327 0.42736 0.0
O78 O 0.54526 0.70367 0.46626 0.0
C79 C 0.48242 0.78128 0.48353 0.0
N80 N 0.53746 0.79782 0.49806 0.0
C81 C 0.50801 0.8542 0.53041 0.0
C82 C 0.45088 0.83764 0.51583 0.0
C83 C 0.43829 0.80141 0.49219 0.0
C84 C 0.55034 0.8331 0.5207 0.0
H85 H 0.47204 0.75245 0.46561 0.0
C86 C 0.54928 0.68866 0.44213 0.0
O87 O 0.71374 0.81882 0.39772 0.0
O88 O 0.64529 0.8541 0.40846 0.0
N89 N 0.64676 0.82799 0.52234 0.0
C90 C 0.70637 0.84393 0.53289 0.0
C91 C 0.72982 0.88595 0.55497 0.0
C92 C 0.69065 0.90892 0.56664 0.0
C93 C 0.62864 0.89028 0.55588 0.0
C94 C 0.60875 0.84993 0.53336 0.0
H95 H 0.73635 0.82581 0.52419 0.0
O96 O 0.74488 0.90214 0.44673 0.0
O97 O 0.64983 0.83794 0.46684 0.0
O98 O 0.72461 0.77268 0.45541 0.0
O99 O 0.66293 0.73728 0.49244 0.0
C100 C 0.58631 0.91114 0.5663 0.0
C101 C 0.52575 0.89262 0.55371 0.0
H102 H 0.41678 0.85316 0.52241 0.0
H103 H 0.3944 0.78861 0.4808 0.0
H104 H 0.7779 0.90035 0.56302 0.0
H105 H 0.70881 0.94112 0.58375 0.0
H106 H 0.60023 0.94212 0.58379 0.0
H107 H 0.49405 0.90973 0.56169 0.0
Mn108 Mn 0.86535 0.67494 0.60111 0.0
Mn109 Mn 0.82494 0.59912 0.66083 0.0
C110 C 0.81827 0.70992 0.6327 0.0
C111 C 0.83472 0.67608 0.55698 0.0
C112 C 0.96462 0.70076 0.6451 0.0
O113 O 0.87129 0.5922 0.59525 0.0
O114 O 0.82987 0.53969 0.63391 0.0
C115 C 0.68928 0.49345 0.64877 0.0
N116 N 0.73177 0.54475 0.66427 0.0
C117 C 0.64417 0.53045 0.69338 0.0
C118 C 0.59948 0.47709 0.67784 0.0
C119 C 0.62212 0.45865 0.6554 0.0
C120 C 0.71055 0.563 0.68588 0.0
H121 H 0.7066 0.47937 0.63146 0.0
C122 C 0.85144 0.5421 0.61033 0.0
O123 O 0.89632 0.7068 0.56397 0.0
O124 O 0.79202 0.64356 0.57535 0.0
N125 N 0.8182 0.6499 0.6891 0.0
C126 C 0.86618 0.70697 0.70004 0.0
C127 C 0.85082 0.7346 0.72167 0.0
C128 C 0.78689 0.70239 0.73232 0.0
C129 C 0.73854 0.64326 0.72096 0.0
C130 C 0.75658 0.6183 0.69926 0.0
H131 H 0.91549 0.73186 0.69206 0.0
O132 O 0.84868 0.7463 0.61235 0.0
O133 O 0.81324 0.65198 0.6334 0.0
O134 O 0.95199 0.71759 0.62266 0.0
O135 O 0.92131 0.65489 0.65961 0.0
C136 C 0.67241 0.60991 0.72943 0.0
C137 C 0.62521 0.55369 0.71559 0.0
H138 H 0.54756 0.45045 0.68277 0.0
H139 H 0.58785 0.41782 0.64321 0.0
H140 H 0.8882 0.78079 0.73001 0.0
H141 H 0.77512 0.72421 0.74887 0.0
H142 H 0.65695 0.6282 0.74608 0.0
H143 H 0.57422 0.52946 0.72187 0.0
Mn144 Mn 0.19125 0.85874 0.76887 0.0
Mn145 Mn 0.22717 0.81979 0.82875 0.0
C146 C 0.11013 0.81456 0.80088 0.0
C147 C 0.15724 0.82646 0.72501 0.0
C148 C 0.26658 0.95929 0.8123 0.0
O149 O 0.27888 0.86247 0.76278 0.0
O150 O 0.29038 0.82254 0.8017 0.0
C151 C 0.19493 0.68312 0.81743 0.0
N152 N 0.1872 0.72666 0.83271 0.0
C153 C 0.11356 0.64065 0.8623 0.0
C154 C 0.12109 0.59489 0.84699 0.0
C155 C 0.16181 0.61621 0.82442 0.0
C156 C 0.14811 0.70672 0.85445 0.0
H157 H 0.22603 0.6994 0.80002 0.0
C158 C 0.30888 0.84245 0.77791 0.0
O159 O 0.18982 0.88833 0.73156 0.0
O160 O 0.14725 0.78441 0.74361 0.0
N161 N 0.17069 0.81502 0.85714 0.0
C162 C 0.16279 0.86395 0.86788 0.0
C163 C 0.12037 0.84999 0.88961 0.0
C164 C 0.0879 0.78643 0.90057 0.0
C165 C 0.09744 0.73707 0.88941 0.0
C166 C 0.14 0.75376 0.8676 0.0
H167 H 0.18773 0.91298 0.85966 0.0
O168 O 0.10423 0.84445 0.78035 0.0
O169 O 0.16227 0.80814 0.80149 0.0
O170 O 0.23702 0.94622 0.78988 0.0
O171 O 0.26892 0.9162 0.82702 0.0
C172 C 0.0639 0.67126 0.89821 0.0
C173 C 0.07178 0.62304 0.88461 0.0
H174 H 0.09523 0.54316 0.85219 0.0
H175 H 0.16751 0.58112 0.81241 0.0
H176 H 0.11252 0.88815 0.8978 0.0
H177 H 0.05474 0.77574 0.9172 0.0
H178 H 0.03049 0.65685 0.91495 0.0
H179 H 0.04448 0.57232 0.89116 0.0
Mn180 Mn 0.33285 0.18768 0.93585 0.0
Mn181 Mn 0.41266 0.22889 0.99467 0.0
C182 C 0.29866 0.10917 0.9687 0.0
C183 C 0.33003 0.15154 0.89219 0.0
C184 C 0.31027 0.26582 0.97894 0.0
O185 O 0.41509 0.27521 0.92853 0.0
O186 O 0.47063 0.29095 0.96667 0.0
C187 C 0.517 0.19723 0.98217 0.0
N188 N 0.4669 0.18996 0.99812 0.0
C189 C 0.48214 0.11796 0.02756 0.0
C190 C 0.53434 0.12513 0.01158 0.0
C191 C 0.55171 0.16478 0.98876 0.0
C192 C 0.44968 0.15186 0.0201 0.0
H193 H 0.53019 0.22741 0.96454 0.0
C194 C 0.46643 0.30698 0.94275 0.0
O195 O 0.29985 0.18338 0.89861 0.0
O196 O 0.36296 0.143 0.91083 0.0
N197 N 0.36382 0.17406 0.02389 0.0
C198 C 0.30771 0.16629 0.03534 0.0
C199 C 0.28101 0.12457 0.05736 0.0
C200 C 0.31333 0.093 0.06797 0.0
C201 C 0.37153 0.10245 0.05609 0.0
C202 C 0.39551 0.1441 0.03397 0.0
H203 H 0.28272 0.1906 0.02739 0.0
O204 O 0.26168 0.10126 0.94835 0.0
O205 O 0.35713 0.16161 0.96853 0.0
O206 O 0.29186 0.23426 0.95694 0.0
O207 O 0.35691 0.26946 0.99326 0.0
C208 C 0.40477 0.06955 0.06447 0.0
C209 C 0.45991 0.07714 0.05016 0.0
H210 H 0.56087 0.09975 0.01647 0.0
H211 H 0.59161 0.17015 0.97623 0.0
H212 H 0.23535 0.11653 0.06602 0.0
H213 H 0.29225 0.06049 0.08487 0.0
H214 H 0.38723 0.03684 0.08144 0.0
H215 H 0.48408 0.05034 0.05642 0.0
Mn216 Mn 0.67316 0.85688 0.74157 0.0
Mn217 Mn 0.59426 0.81795 0.68253 0.0
C218 C 0.7082 0.81283 0.70886 0.0
C219 C 0.67525 0.82399 0.78532 0.0
C220 C 0.69583 0.95744 0.6984 0.0
O221 O 0.59022 0.86112 0.74867 0.0
O222 O 0.53542 0.82129 0.71033 0.0
C223 C 0.49052 0.68152 0.69469 0.0
N224 N 0.54068 0.72477 0.67889 0.0
C225 C 0.52661 0.63811 0.64932 0.0
C226 C 0.47433 0.59265 0.66514 0.0
C227 C 0.45636 0.61445 0.68797 0.0
C228 C 0.55849 0.70437 0.65691 0.0
H229 H 0.47688 0.69814 0.71233 0.0
C230 C 0.53904 0.84105 0.73431 0.0
O231 O 0.70556 0.88596 0.77885 0.0
O232 O 0.64324 0.78228 0.76663 0.0
N233 N 0.64402 0.81265 0.65349 0.0
C234 C 0.70044 0.86126 0.64235 0.0
C235 C 0.7279 0.84671 0.62043 0.0
C236 C 0.69606 0.78297 0.60964 0.0
C237 C 0.63757 0.73395 0.62122 0.0
C238 C 0.61283 0.75116 0.64324 0.0
H239 H 0.72509 0.91042 0.65044 0.0
O240 O 0.74493 0.84225 0.72924 0.0
O241 O 0.64959 0.80648 0.70889 0.0
O242 O 0.71388 0.9444 0.72051 0.0
O243 O 0.64932 0.91431 0.68407 0.0
C244 C 0.60484 0.66792 0.61267 0.0
C245 C 0.54952 0.62 0.62676 0.0
H246 H 0.44825 0.5408 0.66016 0.0
H247 H 0.41642 0.57958 0.70039 0.0
H248 H 0.7737 0.88456 0.61197 0.0
H249 H 0.71775 0.77186 0.59285 0.0
H250 H 0.62298 0.65312 0.59577 0.0
H251 H 0.5258 0.56912 0.62041 0.0
Mn252 Mn 0.81523 0.67191 0.90851 0.0
Mn253 Mn 0.77813 0.59707 0.84856 0.0
C254 C 0.89599 0.7079 0.8764 0.0
C255 C 0.84886 0.67229 0.95231 0.0
C256 C 0.74042 0.69831 0.86523 0.0
O257 O 0.7271 0.58878 0.91466 0.0
O258 O 0.71426 0.53741 0.87557 0.0
C259 C 0.80821 0.49127 0.8601 0.0
N260 N 0.81681 0.5427 0.84474 0.0
C261 C 0.89016 0.52903 0.81542 0.0
C262 C 0.88168 0.47553 0.8308 0.0
C263 C 0.84068 0.45671 0.85328 0.0
C264 C 0.85623 0.56134 0.8231 0.0
H265 H 0.77693 0.47692 0.87745 0.0
C266 C 0.69619 0.53917 0.8994 0.0
O267 O 0.8174 0.70285 0.94594 0.0
O268 O 0.85855 0.64044 0.93352 0.0
N269 N 0.83507 0.64798 0.82016 0.0
C270 C 0.84357 0.70483 0.80924 0.0
C271 C 0.88631 0.73271 0.78756 0.0
C272 C 0.91836 0.70095 0.7768 0.0
C273 C 0.90803 0.64193 0.78811 0.0
C274 C 0.86523 0.61668 0.80986 0.0
H275 H 0.8189 0.72938 0.81729 0.0
O276 O 0.90259 0.74387 0.89697 0.0
O277 O 0.84336 0.64973 0.87579 0.0
O278 O 0.77007 0.71451 0.88765 0.0
O279 O 0.73789 0.65308 0.85031 0.0
C280 C 0.94101 0.6089 0.77949 0.0
C281 C 0.93226 0.55264 0.79319 0.0
H282 H 0.90704 0.44907 0.82574 0.0
H283 H 0.83428 0.41578 0.86535 0.0
H284 H 0.89472 0.77879 0.77925 0.0
H285 H 0.95176 0.72297 0.76021 0.0
H286 H 0.97462 0.62743 0.7628 0.0
H287 H 0.95911 0.52862 0.78678 0.0
Mn288 Mn 0.14023 0.81393 0.07612 0.0
Mn289 Mn 0.18116 0.77905 0.01637 0.0
C290 C 0.18771 0.89629 0.04472 0.0
C291 C 0.17053 0.84531 0.12029 0.0
C292 C 0.04134 0.74081 0.03201 0.0
O293 O 0.13414 0.72518 0.08183 0.0
O294 O 0.17562 0.71419 0.04315 0.0
C295 C 0.31649 0.80835 0.02866 0.0
N296 N 0.27434 0.81759 0.01313 0.0
C297 C 0.36244 0.89096 0.98424 0.0
C298 C 0.4068 0.88188 0.99982 0.0
C299 C 0.38373 0.84055 0.02217 0.0
C300 C 0.29597 0.85732 0.99161 0.0
H301 H 0.29885 0.77675 0.04589 0.0
C302 C 0.15387 0.6949 0.0667 0.0
O303 O 0.10898 0.81453 0.11323 0.0
O304 O 0.21336 0.85557 0.10196 0.0
N305 N 0.18849 0.83699 0.9882 0.0
C306 C 0.14074 0.84625 0.97714 0.0
C307 C 0.15648 0.88934 0.95555 0.0
C308 C 0.22057 0.92103 0.94505 0.0
C309 C 0.26868 0.91007 0.95654 0.0
C310 C 0.25025 0.86693 0.97818 0.0
H311 H 0.0913 0.8218 0.985 0.0
O312 O 0.15707 0.90206 0.06504 0.0
O313 O 0.19267 0.84333 0.04392 0.0
O314 O 0.05373 0.77012 0.05448 0.0
O315 O 0.08482 0.73874 0.01742 0.0
C316 C 0.33492 0.94272 0.94821 0.0
C317 C 0.38182 0.93338 0.96212 0.0
H318 H 0.45877 0.907 0.995 0.0
H319 H 0.41773 0.83364 0.03438 0.0
H320 H 0.11927 0.89824 0.9471 0.0
H321 H 0.23261 0.95467 0.92852 0.0
H322 H 0.35068 0.97658 0.93161 0.0
H323 H 0.43289 0.96002 0.95594 0.0
Mn324 Mn 0.32983 0.14081 0.24253 0.0
Mn325 Mn 0.40367 0.17414 0.1822 0.0
C326 C 0.29973 0.19196 0.21084 0.0
C327 C 0.32761 0.17179 0.28655 0.0
C328 C 0.29568 0.03838 0.1989 0.0
O329 O 0.40995 0.1303 0.24868 0.0
O330 O 0.45939 0.16224 0.20884 0.0
C331 C 0.52281 0.30307 0.19205 0.0
N332 N 0.46686 0.2652 0.17792 0.0
C333 C 0.49558 0.35147 0.14588 0.0
C334 C 0.55359 0.39142 0.16008 0.0
C335 C 0.56702 0.36725 0.18335 0.0
C336 C 0.45319 0.28814 0.15562 0.0
H337 H 0.53385 0.28415 0.20966 0.0
C338 C 0.45765 0.14368 0.23288 0.0
O339 O 0.29584 0.11041 0.27938 0.0
O340 O 0.36313 0.21424 0.26852 0.0
N341 N 0.35612 0.18715 0.15432 0.0
C342 C 0.29615 0.14377 0.14397 0.0
C343 C 0.2722 0.16271 0.12217 0.0
C344 C 0.31125 0.22492 0.11056 0.0
C345 C 0.37366 0.26794 0.12107 0.0
C346 C 0.39408 0.24709 0.14331 0.0
H347 H 0.26631 0.09558 0.1526 0.0
O348 O 0.26201 0.16195 0.23093 0.0
O349 O 0.35618 0.19338 0.21002 0.0
O350 O 0.28288 0.05313 0.2217 0.0
O351 O 0.34041 0.07963 0.18354 0.0
C352 C 0.41597 0.33109 0.11065 0.0
C353 C 0.47714 0.37264 0.12291 0.0
H354 H 0.58779 0.44096 0.15346 0.0
H355 H 0.61163 0.39783 0.19444 0.0
H356 H 0.22386 0.12927 0.11428 0.0
H357 H 0.29274 0.23921 0.09365 0.0
H358 H 0.40163 0.34847 0.09339 0.0
H359 H 0.50887 0.4214 0.11493 0.0
Mn360 Mn 0.1894 0.33158 0.4088 0.0
Mn361 Mn 0.23106 0.40687 0.34876 0.0
C362 C 0.10878 0.30141 0.37674 0.0
C363 C 0.15522 0.32838 0.45282 0.0
C364 C 0.25895 0.29885 0.36504 0.0
O365 O 0.27984 0.41166 0.4154 0.0
O366 O 0.298 0.4618 0.37574 0.0
C367 C 0.22027 0.52518 0.35926 0.0
N368 N 0.20299 0.46995 0.34474 0.0
C369 C 0.14661 0.49982 0.31262 0.0
C370 C 0.16382 0.55711 0.32722 0.0
C371 C 0.20043 0.5696 0.35073 0.0
C372 C 0.16732 0.45717 0.32222 0.0
H373 H 0.24949 0.5355 0.37706 0.0
C374 C 0.31452 0.45958 0.39977 0.0
O375 O 0.18516 0.29694 0.4456 0.0
O376 O 0.14838 0.36401 0.43484 0.0
N377 N 0.17143 0.36025 0.32049 0.0
C378 C 0.15521 0.30065 0.30984 0.0
C379 C 0.11311 0.2775 0.28778 0.0
C380 C 0.09064 0.31709 0.27616 0.0
C381 C 0.10965 0.37911 0.28701 0.0
C382 C 0.14993 0.39863 0.30954 0.0
H383 H 0.17317 0.27048 0.31844 0.0
O384 O 0.10084 0.26369 0.39683 0.0
O385 O 0.16355 0.35817 0.3762 0.0
O386 O 0.231 0.28552 0.38779 0.0
O387 O 0.26257 0.34386 0.34986 0.0
C388 C 0.08926 0.42184 0.27666 0.0
C389 C 0.10815 0.4824 0.28934 0.0
H390 H 0.14862 0.59148 0.32071 0.0
H391 H 0.21381 0.61364 0.36212 0.0
H392 H 0.09838 0.2294 0.27967 0.0
H393 H 0.05858 0.29924 0.259 0.0
H394 H 0.05835 0.40822 0.25917 0.0
H395 H 0.09139 0.5144 0.28143 0.0
Mn396 Mn 0.85638 0.18651 0.57468 0.0
Mn397 Mn 0.82458 0.23189 0.51522 0.0
C398 C 0.80832 0.10806 0.54188 0.0
C399 C 0.82255 0.15063 0.61834 0.0
C400 C 0.96048 0.26008 0.532 0.0
O401 O 0.86577 0.27585 0.58199 0.0
O402 O 0.83296 0.29625 0.54298 0.0
C403 C 0.69329 0.21684 0.52489 0.0
N404 N 0.73319 0.20196 0.51043 0.0
C405 C 0.649 0.14553 0.47751 0.0
C406 C 0.607 0.16038 0.49201 0.0
C407 C 0.62911 0.19581 0.51589 0.0
C408 C 0.71226 0.16747 0.48755 0.0
H409 H 0.71056 0.24504 0.543 0.0
C410 C 0.8507 0.31047 0.56726 0.0
O411 O 0.88442 0.18059 0.61176 0.0
O412 O 0.78134 0.14418 0.59986 0.0
N413 N 0.81479 0.17468 0.48638 0.0
C414 C 0.85963 0.16006 0.47602 0.0
C415 C 0.84261 0.11878 0.45374 0.0
C416 C 0.78089 0.09538 0.44166 0.0
C417 C 0.73632 0.1127 0.45224 0.0
C418 C 0.75519 0.15222 0.475 0.0
H419 H 0.90742 0.17854 0.48502 0.0
O420 O 0.83692 0.09898 0.56211 0.0
O421 O 0.80572 0.16254 0.54176 0.0
O422 O 0.94501 0.22953 0.55422 0.0
O423 O 0.91952 0.26537 0.51712 0.0
C424 C 0.67339 0.0912 0.44144 0.0
C425 C 0.62995 0.10808 0.45394 0.0
H426 H 0.55744 0.14417 0.48516 0.0
H427 H 0.59692 0.2073 0.52722 0.0
H428 H 0.87717 0.10533 0.44585 0.0
H429 H 0.76811 0.06388 0.42436 0.0
H430 H 0.65756 0.0609 0.42375 0.0
H431 H 0.58134 0.09043 0.44569 0.0
C432 C 0.14889 0.62297 0.10452 0.0
C433 C 0.15263 0.63485 0.077 0.0
C434 C 0.1494 0.56772 0.11483 0.0
C435 C 0.15286 0.52145 0.09808 0.0
H436 H 0.14653 0.65712 0.11834 0.0
H437 H 0.14691 0.56128 0.13617 0.0
S438 S 0.16229 0.52872 0.02442 0.0
N439 N 0.159 0.59485 0.03309 0.0
N440 N 0.15983 0.49121 0.05245 0.0
C441 C 0.15585 0.53225 0.07048 0.0
C442 C 0.15586 0.58883 0.05997 0.0
C443 C 0.58239 0.14184 0.28064 0.0
C444 C 0.63012 0.14155 0.2637 0.0
C445 C 0.5262 0.14085 0.27055 0.0
C446 C 0.51545 0.1402 0.24304 0.0
H447 H 0.58849 0.14322 0.30199 0.0
H448 H 0.49168 0.14211 0.28451 0.0
S449 S 0.62405 0.13681 0.18997 0.0
N450 N 0.66175 0.13876 0.21788 0.0
N451 N 0.55643 0.13693 0.19894 0.0
C452 C 0.56218 0.13873 0.22582 0.0
C453 C 0.61927 0.13932 0.23612 0.0
C454 C 0.44385 0.58129 0.44764 0.0
C455 C 0.49184 0.62904 0.43072 0.0
C456 C 0.38758 0.52616 0.43751 0.0
C457 C 0.37639 0.51663 0.40999 0.0
H458 H 0.44948 0.58656 0.46899 0.0
H459 H 0.35196 0.49147 0.45145 0.0
S460 S 0.48762 0.62628 0.35697 0.0
N461 N 0.52484 0.66228 0.38491 0.0
N462 N 0.41948 0.55907 0.36589 0.0
C463 C 0.42449 0.56354 0.39279 0.0
C464 C 0.48203 0.61947 0.40312 0.0
C465 C 0.85655 0.47518 0.57245 0.0
C466 C 0.85249 0.48321 0.59996 0.0
C467 C 0.85611 0.41943 0.56212 0.0
C468 C 0.85243 0.36963 0.57886 0.0
H469 H 0.85919 0.51183 0.55865 0.0
H470 H 0.85891 0.41557 0.54078 0.0
S471 S 0.84173 0.36691 0.65248 0.0
N472 N 0.84527 0.43643 0.64385 0.0
N473 N 0.84462 0.33207 0.62445 0.0
C474 C 0.84897 0.37724 0.60644 0.0
C475 C 0.84887 0.43377 0.61697 0.0
C476 C 0.43628 0.84781 0.7294 0.0
C477 C 0.48062 0.8406 0.7459 0.0
C478 C 0.38133 0.84874 0.73991 0.0
C479 C 0.36784 0.84157 0.76736 0.0
H480 H 0.44451 0.85372 0.70816 0.0
H481 H 0.34901 0.85475 0.7263 0.0
S482 S 0.46751 0.81811 0.81903 0.0
N483 N 0.50658 0.82428 0.79097 0.0
N484 N 0.40344 0.82553 0.8108 0.0
C485 C 0.4115 0.83337 0.78407 0.0
C486 C 0.46779 0.83309 0.77334 0.0
C487 C 0.57296 0.41326 0.94783 0.0
C488 C 0.52431 0.36569 0.93111 0.0
C489 C 0.62781 0.46939 0.93745 0.0
C490 C 0.63683 0.47998 0.90988 0.0
H491 H 0.56852 0.40752 0.96919 0.0
H492 H 0.66382 0.50433 0.9512 0.0
S493 S 0.52398 0.3704 0.85737 0.0
N494 N 0.48898 0.33308 0.88546 0.0
N495 N 0.59187 0.43821 0.86599 0.0
C496 C 0.58862 0.43276 0.89289 0.0
C497 C 0.53248 0.37585 0.90347 0.0
C498 C 0.21195 0.18794 0.1825 0.0
C499 C 0.27729 0.22348 0.19147 0.0
C500 C 0.18679 0.21617 0.16507 0.0
C501 C 0.22551 0.28152 0.15641 0.0
H502 H 0.18025 0.13742 0.18871 0.0
H503 H 0.1365 0.18647 0.15822 0.0
S504 S 0.39835 0.39658 0.17529 0.0
N505 N 0.37838 0.32914 0.19245 0.0
N506 N 0.33307 0.3803 0.15728 0.0
C507 C 0.29085 0.31781 0.16527 0.0
C508 C 0.31608 0.28941 0.18361 0.0
C509 C 0.97438 0.18612 0.3304 0.0
C510 C 0.94652 0.22343 0.32136 0.0
C511 C 0.02744 0.21263 0.34803 0.0
C512 C 0.0557 0.27798 0.35687 0.0
H513 H 0.95483 0.13578 0.32379 0.0
H514 H 0.04705 0.18186 0.35458 0.0
S515 S 1.00093 0.39613 0.33926 0.0
N516 N 0.95317 0.33003 0.32143 0.0
N517 N 0.04884 0.37782 0.35699 0.0
C518 C 0.02762 0.31553 0.34847 0.0
C519 C 0.97438 0.28894 0.3299 0.0
C520 C 0.81882 0.02899 0.51295 0.0
C521 C 0.78049 0.05618 0.52149 0.0
C522 C 0.79334 0.9754 0.49561 0.0
C523 C 0.7281 0.94601 0.48654 0.0
H524 H 0.86916 0.04948 0.51973 0.0
H525 H 0.82491 0.95641 0.48938 0.0
S526 S 0.60754 0.99863 0.5029 0.0
N527 N 0.673 0.04759 0.52083 0.0
N528 N 0.62724 0.95103 0.48565 0.0
C529 C 0.68951 0.97335 0.49446 0.0
C530 C 0.71502 0.02709 0.51279 0.0
C531 C 0.72459 0.69714 0.66089 0.0
C532 C 0.79026 0.73507 0.65252 0.0
C533 C 0.69776 0.72215 0.67937 0.0
C534 C 0.73412 0.7875 0.68822 0.0
H535 H 0.694 0.64782 0.65328 0.0
H536 H 0.64855 0.69014 0.68685 0.0
S537 S 0.90688 0.9082 0.67079 0.0
N538 N 0.89074 0.84118 0.65413 0.0
N539 N 0.83878 0.88977 0.68715 0.0
C540 C 0.79925 0.82634 0.67939 0.0
C541 C 0.82725 0.80019 0.6615 0.0
C542 C 0.97689 0.69647 0.84781 0.0
C543 C 0.9484 0.73359 0.8563 0.0
C544 C 0.02896 0.72243 0.82946 0.0
C545 C 0.05734 0.78791 0.82085 0.0
H546 H 0.95879 0.64717 0.85533 0.0
H547 H 0.04712 0.69119 0.82202 0.0
S548 S 1.00196 0.90607 0.8381 0.0
N549 N 0.95177 0.83861 0.85468 0.0
N550 N 0.05275 0.88901 0.82183 0.0
C551 C 0.02979 0.82571 0.82954 0.0
C552 C 0.97545 0.7986 0.84734 0.0
C553 C 0.28188 0.97735 0.01681 0.0
C554 C 0.21613 0.94974 0.02507 0.0
C555 C 0.309 0.02926 0.99839 0.0
C556 C 0.27289 0.05851 0.98954 0.0
H557 H 0.31224 0.95835 0.02441 0.0
H558 H 0.35818 0.04623 0.99092 0.0
S559 S 0.1004 0.00756 0.00702 0.0
N560 N 0.11601 0.95612 0.02352 0.0
N561 N 0.16869 0.05708 0.99075 0.0
C562 C 0.20784 0.03264 0.9984 0.0
C563 C 0.17949 0.97832 0.01618 0.0
C564 C 0.17506 0.26687 0.01845 0.0
C565 C 0.21046 0.32576 0.03298 0.0
C566 C 0.20542 0.25067 0.99796 0.0
C567 C 0.2719 0.29306 0.99135 0.0
H568 H 0.1256 0.23053 0.02441 0.0
H569 H 0.17878 0.20209 0.98916 0.0
S570 S 0.38155 0.45859 0.01951 0.0
N571 N 0.31209 0.43089 0.03625 0.0
N572 N 0.36879 0.40009 0.99809 0.0
C573 C 0.30525 0.35482 1.00378 0.0
C574 C 0.27462 0.37128 0.02453 0.0
C575 C 0.90269 0.26176 0.18937 0.0
C576 C 0.88566 0.19827 0.19812 0.0
C577 C 0.94899 0.29296 0.16909 0.0
C578 C 0.98 0.26191 0.15671 0.0
H579 H 0.88374 0.28953 0.19955 0.0
H580 H 0.96497 0.344 0.1647 0.0
S581 S 0.94724 0.09294 0.16993 0.0
N582 N 0.89833 0.10268 0.19078 0.0
N583 N 0.98595 0.16201 0.15275 0.0
C584 C 0.95884 0.19621 0.1634 0.0
C585 C 0.91148 0.16419 0.18413 0.0
C586 C 0.65995 0.94443 0.33562 0.0
C587 C 0.72205 0.97559 0.32328 0.0
C588 C 0.64486 0.8979 0.35576 0.0
C589 C 0.69142 0.88092 0.36442 0.0
H590 H 0.62481 0.96033 0.33127 0.0
H591 H 0.59809 0.87878 0.36593 0.0
S592 S 0.8585 0.943 0.33626 0.0
N593 N 0.82806 0.9818 0.31921 0.0
N594 N 0.79982 0.89383 0.35704 0.0
C595 C 0.75139 0.90695 0.35046 0.0
C596 C 0.7667 0.9545 0.32986 0.0
C597 C 0.84611 0.74531 0.5172 0.0
C598 C 0.81204 0.68457 0.53059 0.0
C599 C 0.81541 0.76157 0.49691 0.0
C600 C 0.75009 0.71731 0.48938 0.0
H601 H 0.89415 0.78282 0.52409 0.0
H602 H 0.84036 0.81124 0.48909 0.0
S603 S 0.64521 0.54739 0.51433 0.0
N604 N 0.71374 0.57644 0.53178 0.0
N605 N 0.65644 0.60714 0.49389 0.0
C606 C 0.71869 0.65403 0.50054 0.0
C607 C 0.74959 0.63759 0.52111 0.0
C608 C 0.10274 0.73709 0.69159 0.0
C609 C 0.12465 0.80275 0.69886 0.0
C610 C 0.05622 0.70626 0.67141 0.0
C611 C 0.03 0.73992 0.65757 0.0
H612 H 0.11791 0.70764 0.70287 0.0
H613 H 0.03651 0.65406 0.66813 0.0
S614 S 0.07743 0.91491 0.66631 0.0
N615 N 0.12214 0.90271 0.68847 0.0
N616 N 0.03438 0.84432 0.65045 0.0
C617 C 0.05627 0.80734 0.66272 0.0
C618 C 0.10375 0.83893 0.68342 0.0
C619 C 0.36626 0.09712 0.85923 0.0
C620 C 0.32208 0.11886 0.86609 0.0
C621 C 0.35161 0.05088 0.83901 0.0
C622 C 0.29241 0.02478 0.82468 0.0
H623 H 0.4104 0.11222 0.87085 0.0
H624 H 0.38429 0.03123 0.83609 0.0
S625 S 0.16467 0.07256 0.83202 0.0
N626 N 0.22032 0.11675 0.85468 0.0
N627 N 0.19291 0.02958 0.81655 0.0
C628 C 0.25105 0.05109 0.82938 0.0
C629 C 0.26585 0.09824 0.85014 0.0
C630 C 0.742 0.83466 0.82592 0.0
C631 C 0.68271 0.79999 0.81161 0.0
C632 C 0.75754 0.80386 0.84641 0.0
C633 C 0.71407 0.73775 0.85321 0.0
H634 H 0.77911 0.88354 0.81968 0.0
H635 H 0.80642 0.82963 0.85499 0.0
S636 S 0.54736 0.63055 0.82567 0.0
N637 N 0.57618 0.69987 0.80878 0.0
N638 N 0.60582 0.64232 0.84692 0.0
C639 C 0.65199 0.7054 0.84105 0.0
C640 C 0.63618 0.73647 0.82032 0.0
C641 C 0.90429 0.73905 0.99299 0.0
C642 C 0.88093 0.68015 0.97849 0.0
C643 C 0.95121 0.75556 0.01331 0.0
C644 C 0.9757 0.71345 0.01975 0.0
H645 H 0.89099 0.77523 0.98703 0.0
H646 H 0.97315 0.80418 0.02208 0.0
S647 S 0.92035 0.54807 0.99159 0.0
N648 N 0.87797 0.57532 0.97508 0.0
N649 N 0.96615 0.60672 0.01293 0.0
C650 C 0.94736 0.65164 0.0074 0.0
C651 C 0.89992 0.63487 0.98683 0.0
C652 C 0.15894 0.90343 0.15993 0.0
C653 C 0.19305 0.87657 0.14668 0.0
C654 C 0.18968 0.95082 0.18008 0.0
C655 C 0.25501 0.97203 0.18762 0.0
H656 H 0.11091 0.8928 0.15299 0.0
H657 H 0.16476 0.97574 0.18775 0.0
S658 S 0.36007 0.90683 0.163 0.0
N659 N 0.29145 0.86686 0.14564 0.0
N660 N 0.34879 0.95566 0.18327 0.0
C661 C 0.28644 0.93999 0.17664 0.0
C662 C 0.25553 0.89224 0.1562 0.0
C663 C 0.36224 0.2589 0.32106 0.0
C664 C 0.31694 0.19474 0.31258 0.0
C665 C 0.34595 0.28984 0.34103 0.0
C666 C 0.28386 0.25781 0.35338 0.0
H667 H 0.40883 0.28732 0.31085 0.0
H668 H 0.38004 0.34127 0.34521 0.0
S669 S 0.15055 0.08703 0.34088 0.0
N670 N 0.2098 0.09764 0.3202 0.0
N671 N 0.17933 0.15652 0.35767 0.0
C672 C 0.24055 0.19163 0.347 0.0
C673 C 0.25709 0.15985 0.32658 0.0
C674 C 0.10306 0.36301 0.48758 0.0
C675 C 0.12164 0.31762 0.47891 0.0
C676 C 0.05636 0.34697 0.50779 0.0
C677 C 0.02643 0.28495 0.52018 0.0
H678 H 0.1211 0.40956 0.47738 0.0
H679 H 0.03927 0.38118 0.51212 0.0
S680 S 0.06328 0.15137 0.50716 0.0
N681 N 0.1115 0.21045 0.48636 0.0
N682 N 0.0231 0.18036 0.52423 0.0
C683 C 0.04906 0.24153 0.51357 0.0
C684 C 0.09686 0.25785 0.49292 0.0
C685 C 0.70064 0.04795 0.67143 0.0
C686 C 0.73462 0.0229 0.68584 0.0
C687 C 0.73157 0.09425 0.65116 0.0
C688 C 0.79775 0.11721 0.64434 0.0
H689 H 0.64819 0.02749 0.67436 0.0
H690 H 0.70192 0.10851 0.63952 0.0
S691 S 0.91111 0.07427 0.67871 0.0
N692 N 0.83996 0.03013 0.69411 0.0
N693 N 0.89857 0.11751 0.65597 0.0
C694 C 0.83415 0.09765 0.66038 0.0
C695 C 0.80244 0.05039 0.68117 0.0
loop_
_geom_bond_atom_site_label_1
_geom_bond_atom_site_label_2
_geom_bond_distance
_geom_bond_site_symmetry_2
_ccdc_geom_bond_type
Mn0 O5 2.095 . S
Mn0 O15 2.162 . S
Mn0 O16 2.297 . S
Mn0 O24 2.385 . S
Mn0 O25 2.209 . S
Mn0 O26 2.094 . S
Mn1 O6 2.121 . S
Mn1 N8 2.257 . S
Mn1 N17 2.282 . S
Mn1 O25 2.215 . S
Mn1 O27 2.117 . S
C2 O24 1.234 . S
C2 O25 1.283 . S
C3 O15 1.281 . S
C3 O16 1.236 . S
C4 O26 1.240 . S
C4 O27 1.264 . S
O5 Mn0 2.095 . S
O5 C14 1.250 . S
O6 Mn1 2.121 . S
O6 C14 1.258 . S
C7 N8 1.326 . S
C7 C11 1.460 . S
C7 H13 0.929 . S
N8 Mn1 2.257 . S
N8 C7 1.326 . S
N8 C12 1.362 . S
C9 C10 1.258 . S
C9 C12 1.431 . S
C9 C29 1.449 . S
C10 C9 1.258 . S
C10 C11 1.477 . S
C10 H30 0.931 . S
C11 C7 1.460 . S
C11 C10 1.477 . S
C11 H31 0.930 . S
C12 N8 1.362 . S
C12 C9 1.431 . S
C12 C22 1.476 . S
H13 C7 0.929 . S
C14 O5 1.250 . S
C14 O6 1.258 . S
O15 Mn0 2.162 . S
O15 C3 1.281 . S
O16 Mn0 2.297 . S
O16 C3 1.236 . S
N17 Mn1 2.282 . S
N17 C18 1.328 . S
N17 C22 1.318 . S
C18 N17 1.328 . S
C18 C19 1.457 . S
C18 H23 0.929 . S
C19 C18 1.457 . S
C19 C20 1.291 . S
C19 H32 0.931 . S
C20 C19 1.291 . S
C20 C21 1.373 . S
C20 H33 0.929 . S
C21 C20 1.373 . S
C21 C22 1.396 . S
C21 C28 1.403 . S
C22 C12 1.476 . S
C22 N17 1.318 . S
C22 C21 1.396 . S
H23 C18 0.929 . S
O24 Mn0 2.385 . S
O24 C2 1.234 . S
O25 Mn0 2.209 . S
O25 Mn1 2.215 . S
O25 C2 1.283 . S
O26 Mn0 2.094 . S
O26 C4 1.240 . S
O27 Mn1 2.117 . S
O27 C4 1.264 . S
C28 C21 1.403 . S
C28 C29 1.399 . S
C28 H34 0.929 . S
C29 C9 1.449 . S
C29 C28 1.399 . S
C29 H35 0.930 . S
H30 C10 0.931 . S
H31 C11 0.930 . S
H32 C19 0.931 . S
H33 C20 0.929 . S
H34 C28 0.929 . S
H35 C29 0.930 . S
Mn36 O41 2.095 . S
Mn36 O51 2.162 . S
Mn36 O52 2.297 . S
Mn36 O60 2.385 . S
Mn36 O61 2.209 . S
Mn36 O62 2.094 . S
Mn37 O42 2.121 . S
Mn37 N44 2.257 . S
Mn37 N53 2.282 . S
Mn37 O61 2.215 . S
Mn37 O63 2.117 . S
C38 O60 1.234 . S
C38 O61 1.283 . S
C39 O51 1.281 . S
C39 O52 1.236 . S
C40 O62 1.240 . S
C40 O63 1.264 . S
O41 Mn36 2.095 . S
O41 C50 1.250 . S
O42 Mn37 2.121 . S
O42 C50 1.258 . S
C43 N44 1.326 . S
C43 C47 1.460 . S
C43 H49 0.929 . S
N44 Mn37 2.257 . S
N44 C43 1.326 . S
N44 C48 1.362 . S
C45 C46 1.258 . S
C45 C48 1.431 . S
C45 C65 1.449 . S
C46 C45 1.258 . S
C46 C47 1.477 . S
C46 H66 0.931 . S
C47 C43 1.460 . S
C47 C46 1.477 . S
C47 H67 0.930 . S
C48 N44 1.362 . S
C48 C45 1.431 . S
C48 C58 1.476 . S
H49 C43 0.929 . S
C50 O41 1.250 . S
C50 O42 1.258 . S
O51 Mn36 2.162 . S
O51 C39 1.281 . S
O52 Mn36 2.297 . S
O52 C39 1.236 . S
N53 Mn37 2.282 . S
N53 C54 1.328 . S
N53 C58 1.318 . S
C54 N53 1.328 . S
C54 C55 1.457 . S
C54 H59 0.929 . S
C55 C54 1.457 . S
C55 C56 1.291 . S
C55 H68 0.931 . S
C56 C55 1.291 . S
C56 C57 1.373 . S
C56 H69 0.929 . S
C57 C56 1.373 . S
C57 C58 1.396 . S
C57 C64 1.403 . S
C58 C48 1.476 . S
C58 N53 1.318 . S
C58 C57 1.396 . S
H59 C54 0.929 . S
O60 Mn36 2.385 . S
O60 C38 1.234 . S
O61 Mn36 2.209 . S
O61 Mn37 2.215 . S
O61 C38 1.283 . S
O62 Mn36 2.094 . S
O62 C40 1.240 . S
O63 Mn37 2.117 . S
O63 C40 1.264 . S
C64 C57 1.403 . S
C64 C65 1.399 . S
C64 H70 0.929 . S
C65 C45 1.449 . S
C65 C64 1.399 . S
C65 H71 0.930 . S
H66 C46 0.931 . S
H67 C47 0.930 . S
H68 C55 0.931 . S
H69 C56 0.929 . S
H70 C64 0.929 . S
H71 C65 0.930 . S
Mn72 O77 2.095 . S
Mn72 O87 2.162 . S
Mn72 O88 2.297 . S
Mn72 O96 2.385 . S
Mn72 O97 2.209 . S
Mn72 O98 2.094 . S
Mn73 O78 2.121 . S
Mn73 N80 2.257 . S
Mn73 N89 2.282 . S
Mn73 O97 2.215 . S
Mn73 O99 2.117 . S
C74 O96 1.234 . S
C74 O97 1.283 . S
C75 O87 1.281 . S
C75 O88 1.236 . S
C76 O98 1.240 . S
C76 O99 1.264 . S
O77 Mn72 2.095 . S
O77 C86 1.250 . S
O78 Mn73 2.121 . S
O78 C86 1.258 . S
C79 N80 1.326 . S
C79 C83 1.460 . S
C79 H85 0.929 . S
N80 Mn73 2.257 . S
N80 C79 1.326 . S
N80 C84 1.362 . S
C81 C82 1.258 . S
C81 C84 1.431 . S
C81 C101 1.449 . S
C82 C81 1.258 . S
C82 C83 1.477 . S
C82 H102 0.931 . S
C83 C79 1.460 . S
C83 C82 1.477 . S
C83 H103 0.930 . S
C84 N80 1.362 . S
C84 C81 1.431 . S
C84 C94 1.476 . S
H85 C79 0.929 . S
C86 O77 1.250 . S
C86 O78 1.258 . S
O87 Mn72 2.162 . S
O87 C75 1.281 . S
O88 Mn72 2.297 . S
O88 C75 1.236 . S
N89 Mn73 2.282 . S
N89 C90 1.328 . S
N89 C94 1.318 . S
C90 N89 1.328 . S
C90 C91 1.457 . S
C90 H95 0.929 . S
C91 C90 1.457 . S
C91 C92 1.291 . S
C91 H104 0.931 . S
C92 C91 1.291 . S
C92 C93 1.373 . S
C92 H105 0.929 . S
C93 C92 1.373 . S
C93 C94 1.396 . S
C93 C100 1.403 . S
C94 C84 1.476 . S
C94 N89 1.318 . S
C94 C93 1.396 . S
H95 C90 0.929 . S
O96 Mn72 2.385 . S
O96 C74 1.234 . S
O97 Mn72 2.209 . S
O97 Mn73 2.215 . S
O97 C74 1.283 . S
O98 Mn72 2.094 . S
O98 C76 1.240 . S
O99 Mn73 2.117 . S
O99 C76 1.264 . S
C100 C93 1.403 . S
C100 C101 1.399 . S
C100 H106 0.929 . S
C101 C81 1.449 . S
C101 C100 1.399 . S
C101 H107 0.930 . S
H102 C82 0.931 . S
H103 C83 0.930 . S
H104 C91 0.931 . S
H105 C92 0.929 . S
H106 C100 0.929 . S
H107 C101 0.930 . S
Mn108 O113 2.095 . S
Mn108 O123 2.162 . S
Mn108 O124 2.297 . S
Mn108 O132 2.385 . S
Mn108 O133 2.209 . S
Mn108 O134 2.094 . S
Mn109 O114 2.121 . S
Mn109 N116 2.257 . S
Mn109 N125 2.282 . S
Mn109 O133 2.215 . S
Mn109 O135 2.117 . S
C110 O132 1.234 . S
C110 O133 1.283 . S
C111 O123 1.281 . S
C111 O124 1.236 . S
C112 O134 1.240 . S
C112 O135 1.264 . S
O113 Mn108 2.095 . S
O113 C122 1.250 . S
O114 Mn109 2.121 . S
O114 C122 1.258 . S
C115 N116 1.326 . S
C115 C119 1.460 . S
C115 H121 0.929 . S
N116 Mn109 2.257 . S
N116 C115 1.326 . S
N116 C120 1.362 . S
C117 C118 1.258 . S
C117 C120 1.431 . S
C117 C137 1.449 . S
C118 C117 1.258 . S
C118 C119 1.477 . S
C118 H138 0.931 . S
C119 C115 1.460 . S
C119 C118 1.477 . S
C119 H139 0.930 . S
C120 N116 1.362 . S
C120 C117 1.431 . S
C120 C130 1.476 . S
H121 C115 0.929 . S
C122 O113 1.250 . S
C122 O114 1.258 . S
O123 Mn108 2.162 . S
O123 C111 1.281 . S
O124 Mn108 2.297 . S
O124 C111 1.236 . S
N125 Mn109 2.282 . S
N125 C126 1.328 . S
N125 C130 1.318 . S
C126 N125 1.328 . S
C126 C127 1.457 . S
C126 H131 0.929 . S
C127 C126 1.457 . S
C127 C128 1.291 . S
C127 H140 0.931 . S
C128 C127 1.291 . S
C128 C129 1.373 . S
C128 H141 0.929 . S
C129 C128 1.373 . S
C129 C130 1.396 . S
C129 C136 1.403 . S
C130 C120 1.476 . S
C130 N125 1.318 . S
C130 C129 1.396 . S
H131 C126 0.929 . S
O132 Mn108 2.385 . S
O132 C110 1.234 . S
O133 Mn108 2.209 . S
O133 Mn109 2.215 . S
O133 C110 1.283 . S
O134 Mn108 2.094 . S
O134 C112 1.240 . S
O135 Mn109 2.117 . S
O135 C112 1.264 . S
C136 C129 1.403 . S
C136 C137 1.399 . S
C136 H142 0.929 . S
C137 C117 1.449 . S
C137 C136 1.399 . S
C137 H143 0.930 . S
H138 C118 0.931 . S
H139 C119 0.930 . S
H140 C127 0.931 . S
H141 C128 0.929 . S
H142 C136 0.929 . S
H143 C137 0.930 . S
Mn144 O149 2.095 . S
Mn144 O159 2.162 . S
Mn144 O160 2.297 . S
Mn144 O168 2.385 . S
Mn144 O169 2.209 . S
Mn144 O170 2.094 . S
Mn145 O150 2.121 . S
Mn145 N152 2.257 . S
Mn145 N161 2.282 . S
Mn145 O169 2.215 . S
Mn145 O171 2.117 . S
C146 O168 1.234 . S
C146 O169 1.283 . S
C147 O159 1.281 . S
C147 O160 1.236 . S
C148 O170 1.240 . S
C148 O171 1.264 . S
O149 Mn144 2.095 . S
O149 C158 1.250 . S
O150 Mn145 2.121 . S
O150 C158 1.258 . S
C151 N152 1.326 . S
C151 C155 1.460 . S
C151 H157 0.929 . S
N152 Mn145 2.257 . S
N152 C151 1.326 . S
N152 C156 1.362 . S
C153 C154 1.258 . S
C153 C156 1.431 . S
C153 C173 1.449 . S
C154 C153 1.258 . S
C154 C155 1.477 . S
C154 H174 0.931 . S
C155 C151 1.460 . S
C155 C154 1.477 . S
C155 H175 0.930 . S
C156 N152 1.362 . S
C156 C153 1.431 . S
C156 C166 1.476 . S
H157 C151 0.929 . S
C158 O149 1.250 . S
C158 O150 1.258 . S
O159 Mn144 2.162 . S
O159 C147 1.281 . S
O160 Mn144 2.297 . S
O160 C147 1.236 . S
N161 Mn145 2.282 . S
N161 C162 1.328 . S
N161 C166 1.318 . S
C162 N161 1.328 . S
C162 C163 1.457 . S
C162 H167 0.929 . S
C163 C162 1.457 . S
C163 C164 1.291 . S
C163 H176 0.931 . S
C164 C163 1.291 . S
C164 C165 1.373 . S
C164 H177 0.929 . S
C165 C164 1.373 . S
C165 C166 1.396 . S
C165 C172 1.403 . S
C166 C156 1.476 . S
C166 N161 1.318 . S
C166 C165 1.396 . S
H167 C162 0.929 . S
O168 Mn144 2.385 . S
O168 C146 1.234 . S
O169 Mn144 2.209 . S
O169 Mn145 2.215 . S
O169 C146 1.283 . S
O170 Mn144 2.094 . S
O170 C148 1.240 . S
O171 Mn145 2.117 . S
O171 C148 1.264 . S
C172 C165 1.403 . S
C172 C173 1.399 . S
C172 H178 0.929 . S
C173 C153 1.449 . S
C173 C172 1.399 . S
C173 H179 0.930 . S
H174 C154 0.931 . S
H175 C155 0.930 . S
H176 C163 0.931 . S
H177 C164 0.929 . S
H178 C172 0.929 . S
H179 C173 0.930 . S
Mn180 O185 2.095 . S
Mn180 O195 2.162 . S
Mn180 O196 2.297 . S
Mn180 O204 2.385 . S
Mn180 O205 2.209 . S
Mn180 O206 2.094 . S
Mn181 O186 2.121 . S
Mn181 N188 2.257 1_556 S
Mn181 N197 2.282 1_556 S
Mn181 O205 2.215 . S
Mn181 O207 2.117 . S
C182 O204 1.234 . S
C182 O205 1.283 . S
C183 O195 1.281 . S
C183 O196 1.236 . S
C184 O206 1.240 . S
C184 O207 1.264 . S
O185 Mn180 2.095 . S
O185 C194 1.250 . S
O186 Mn181 2.121 . S
O186 C194 1.258 . S
C187 N188 1.311 1_556 S
C187 C191 1.441 1_556 S
C187 H193 0.964 . S
N188 Mn181 2.257 1_554 S
N188 C187 1.311 1_554 S
N188 C192 1.362 . S
C189 C190 1.258 . S
C189 C192 1.431 . S
C189 C209 1.449 . S
C190 C189 1.258 . S
C190 C191 1.477 . S
C190 H210 0.931 . S
C191 C187 1.441 1_554 S
C191 C190 1.477 . S
C191 H211 0.930 . S
C192 N188 1.362 . S
C192 C189 1.431 . S
C192 C202 1.476 . S
H193 C187 0.964 . S
C194 O185 1.250 . S
C194 O186 1.258 . S
O195 Mn180 2.162 . S
O195 C183 1.281 . S
O196 Mn180 2.297 . S
O196 C183 1.236 . S
N197 Mn181 2.282 1_554 S
N197 C198 1.328 . S
N197 C202 1.318 . S
C198 N197 1.328 . S
C198 C199 1.457 . S
C198 H203 0.929 . S
C199 C198 1.457 . S
C199 C200 1.291 . S
C199 H212 0.931 . S
C200 C199 1.291 . S
C200 C201 1.373 . S
C200 H213 0.929 . S
C201 C200 1.373 . S
C201 C202 1.396 . S
C201 C208 1.403 . S
C202 C192 1.476 . S
C202 N197 1.318 . S
C202 C201 1.396 . S
H203 C198 0.929 . S
O204 Mn180 2.385 . S
O204 C182 1.234 . S
O205 Mn180 2.209 . S
O205 Mn181 2.215 . S
O205 C182 1.283 . S
O206 Mn180 2.094 . S
O206 C184 1.240 . S
O207 Mn181 2.117 . S
O207 C184 1.264 . S
C208 C201 1.403 . S
C208 C209 1.399 . S
C208 H214 0.929 . S
C209 C189 1.449 . S
C209 C208 1.399 . S
C209 H215 0.930 . S
H210 C190 0.931 . S
H211 C191 0.930 . S
H212 C199 0.931 . S
H213 C200 0.929 . S
H214 C208 0.929 . S
H215 C209 0.930 . S
Mn216 O221 2.095 . S
Mn216 O231 2.162 . S
Mn216 O232 2.297 . S
Mn216 O240 2.385 . S
Mn216 O241 2.209 . S
Mn216 O242 2.094 . S
Mn217 O222 2.121 . S
Mn217 N224 2.257 . S
Mn217 N233 2.282 . S
Mn217 O241 2.215 . S
Mn217 O243 2.117 . S
C218 O240 1.234 . S
C218 O241 1.283 . S
C219 O231 1.281 . S
C219 O232 1.236 . S
C220 O242 1.240 . S
C220 O243 1.264 . S
O221 Mn216 2.095 . S
O221 C230 1.250 . S
O222 Mn217 2.121 . S
O222 C230 1.258 . S
C223 N224 1.326 . S
C223 C227 1.460 . S
C223 H229 0.929 . S
N224 Mn217 2.257 . S
N224 C223 1.326 . S
N224 C228 1.362 . S
C225 C226 1.258 . S
C225 C228 1.431 . S
C225 C245 1.449 . S
C226 C225 1.258 . S
C226 C227 1.477 . S
C226 H246 0.931 . S
C227 C223 1.460 . S
C227 C226 1.477 . S
C227 H247 0.930 . S
C228 N224 1.362 . S
C228 C225 1.431 . S
C228 C238 1.476 . S
H229 C223 0.929 . S
C230 O221 1.250 . S
C230 O222 1.258 . S
O231 Mn216 2.162 . S
O231 C219 1.281 . S
O232 Mn216 2.297 . S
O232 C219 1.236 . S
N233 Mn217 2.282 . S
N233 C234 1.328 . S
N233 C238 1.318 . S
C234 N233 1.328 . S
C234 C235 1.457 . S
C234 H239 0.929 . S
C235 C234 1.457 . S
C235 C236 1.291 . S
C235 H248 0.931 . S
C236 C235 1.291 . S
C236 C237 1.373 . S
C236 H249 0.929 . S
C237 C236 1.373 . S
C237 C238 1.396 . S
C237 C244 1.403 . S
C238 C228 1.476 . S
C238 N233 1.318 . S
C238 C237 1.396 . S
H239 C234 0.929 . S
O240 Mn216 2.385 . S
O240 C218 1.234 . S
O241 Mn216 2.209 . S
O241 Mn217 2.215 . S
O241 C218 1.283 . S
O242 Mn216 2.094 . S
O242 C220 1.240 . S
O243 Mn217 2.117 . S
O243 C220 1.264 . S
C244 C237 1.403 . S
C244 C245 1.399 . S
C244 H250 0.929 . S
C245 C225 1.449 . S
C245 C244 1.399 . S
C245 H251 0.930 . S
H246 C226 0.931 . S
H247 C227 0.930 . S
H248 C235 0.931 . S
H249 C236 0.929 . S
H250 C244 0.929 . S
H251 C245 0.930 . S
Mn252 O257 2.095 . S
Mn252 O267 2.162 . S
Mn252 O268 2.297 . S
Mn252 O276 2.385 . S
Mn252 O277 2.209 . S
Mn252 O278 2.094 . S
Mn253 O258 2.121 . S
Mn253 N260 2.257 . S
Mn253 N269 2.282 . S
Mn253 O277 2.215 . S
Mn253 O279 2.117 . S
C254 O276 1.234 . S
C254 O277 1.283 . S
C255 O267 1.281 . S
C255 O268 1.236 . S
C256 O278 1.240 . S
C256 O279 1.264 . S
O257 Mn252 2.095 . S
O257 C266 1.250 . S
O258 Mn253 2.121 . S
O258 C266 1.258 . S
C259 N260 1.326 . S
C259 C263 1.460 . S
C259 H265 0.929 . S
N260 Mn253 2.257 . S
N260 C259 1.326 . S
N260 C264 1.362 . S
C261 C262 1.258 . S
C261 C264 1.431 . S
C261 C281 1.449 . S
C262 C261 1.258 . S
C262 C263 1.477 . S
C262 H282 0.931 . S
C263 C259 1.460 . S
C263 C262 1.477 . S
C263 H283 0.930 . S
C264 N260 1.362 . S
C264 C261 1.431 . S
C264 C274 1.476 . S
H265 C259 0.929 . S
C266 O257 1.250 . S
C266 O258 1.258 . S
O267 Mn252 2.162 . S
O267 C255 1.281 . S
O268 Mn252 2.297 . S
O268 C255 1.236 . S
N269 Mn253 2.282 . S
N269 C270 1.328 . S
N269 C274 1.318 . S
C270 N269 1.328 . S
C270 C271 1.457 . S
C270 H275 0.929 . S
C271 C270 1.457 . S
C271 C272 1.291 . S
C271 H284 0.931 . S
C272 C271 1.291 . S
C272 C273 1.373 . S
C272 H285 0.929 . S
C273 C272 1.373 . S
C273 C274 1.396 . S
C273 C280 1.403 . S
C274 C264 1.476 . S
C274 N269 1.318 . S
C274 C273 1.396 . S
H275 C270 0.929 . S
O276 Mn252 2.385 . S
O276 C254 1.234 . S
O277 Mn252 2.209 . S
O277 Mn253 2.215 . S
O277 C254 1.283 . S
O278 Mn252 2.094 . S
O278 C256 1.240 . S
O279 Mn253 2.117 . S
O279 C256 1.264 . S
C280 C273 1.403 . S
C280 C281 1.399 . S
C280 H286 0.929 . S
C281 C261 1.449 . S
C281 C280 1.399 . S
C281 H287 0.930 . S
H282 C262 0.931 . S
H283 C263 0.930 . S
H284 C271 0.931 . S
H285 C272 0.929 . S
H286 C280 0.929 . S
H287 C281 0.930 . S
Mn288 O293 2.095 . S
Mn288 O303 2.162 . S
Mn288 O304 2.297 . S
Mn288 O312 2.385 . S
Mn288 O313 2.209 . S
Mn288 O314 2.094 . S
Mn289 O294 2.121 . S
Mn289 N296 2.257 1_554 S
Mn289 N305 2.282 1_554 S
Mn289 O313 2.215 . S
Mn289 O315 2.117 . S
C290 O312 1.234 . S
C290 O313 1.283 . S
C291 O303 1.281 . S
C291 O304 1.236 . S
C292 O314 1.240 . S
C292 O315 1.264 . S
O293 Mn288 2.095 . S
O293 C302 1.250 . S
O294 Mn289 2.121 . S
O294 C302 1.258 . S
C295 N296 1.311 1_554 S
C295 C299 1.441 1_554 S
C295 H301 0.964 . S
N296 Mn289 2.257 1_556 S
N296 C295 1.311 1_556 S
N296 C300 1.362 . S
C297 C298 1.258 . S
C297 C300 1.431 . S
C297 C317 1.449 . S
C298 C297 1.258 . S
C298 C299 1.477 . S
C298 H318 0.931 . S
C299 C295 1.441 1_556 S
C299 C298 1.477 . S
C299 H319 0.930 . S
C300 N296 1.362 . S
C300 C297 1.431 . S
C300 C310 1.476 . S
H301 C295 0.964 . S
C302 O293 1.250 . S
C302 O294 1.258 . S
O303 Mn288 2.162 . S
O303 C291 1.281 . S
O304 Mn288 2.297 . S
O304 C291 1.236 . S
N305 Mn289 2.282 1_556 S
N305 C306 1.328 . S
N305 C310 1.318 . S
C306 N305 1.328 . S
C306 C307 1.457 . S
C306 H311 0.929 . S
C307 C306 1.457 . S
C307 C308 1.291 . S
C307 H320 0.931 . S
C308 C307 1.291 . S
C308 C309 1.373 . S
C308 H321 0.929 . S
C309 C308 1.373 . S
C309 C310 1.396 . S
C309 C316 1.403 . S
C310 C300 1.476 . S
C310 N305 1.318 . S
C310 C309 1.396 . S
H311 C306 0.929 . S
O312 Mn288 2.385 . S
O312 C290 1.234 . S
O313 Mn288 2.209 . S
O313 Mn289 2.215 . S
O313 C290 1.283 . S
O314 Mn288 2.094 . S
O314 C292 1.240 . S
O315 Mn289 2.117 . S
O315 C292 1.264 . S
C316 C309 1.403 . S
C316 C317 1.399 . S
C316 H322 0.929 . S
C317 C297 1.449 . S
C317 C316 1.399 . S
C317 H323 0.930 . S
H318 C298 0.931 . S
H319 C299 0.930 . S
H320 C307 0.931 . S
H321 C308 0.929 . S
H322 C316 0.929 . S
H323 C317 0.930 . S
Mn324 O329 2.095 . S
Mn324 O339 2.162 . S
Mn324 O340 2.297 . S
Mn324 O348 2.385 . S
Mn324 O349 2.209 . S
Mn324 O350 2.094 . S
Mn325 O330 2.121 . S
Mn325 N332 2.257 . S
Mn325 N341 2.282 . S
Mn325 O349 2.215 . S
Mn325 O351 2.117 . S
C326 O348 1.234 . S
C326 O349 1.283 . S
C327 O339 1.281 . S
C327 O340 1.236 . S
C328 O350 1.240 . S
C328 O351 1.264 . S
O329 Mn324 2.095 . S
O329 C338 1.250 . S
O330 Mn325 2.121 . S
O330 C338 1.258 . S
C331 N332 1.326 . S
C331 C335 1.460 . S
C331 H337 0.929 . S
N332 Mn325 2.257 . S
N332 C331 1.326 . S
N332 C336 1.362 . S
C333 C334 1.258 . S
C333 C336 1.431 . S
C333 C353 1.449 . S
C334 C333 1.258 . S
C334 C335 1.477 . S
C334 H354 0.931 . S
C335 C331 1.460 . S
C335 C334 1.477 . S
C335 H355 0.930 . S
C336 N332 1.362 . S
C336 C333 1.431 . S
C336 C346 1.476 . S
H337 C331 0.929 . S
C338 O329 1.250 . S
C338 O330 1.258 . S
O339 Mn324 2.162 . S
O339 C327 1.281 . S
O340 Mn324 2.297 . S
O340 C327 1.236 . S
N341 Mn325 2.282 . S
N341 C342 1.328 . S
N341 C346 1.318 . S
C342 N341 1.328 . S
C342 C343 1.457 . S
C342 H347 0.929 . S
C343 C342 1.457 . S
C343 C344 1.291 . S
C343 H356 0.931 . S
C344 C343 1.291 . S
C344 C345 1.373 . S
C344 H357 0.929 . S
C345 C344 1.373 . S
C345 C346 1.396 . S
C345 C352 1.403 . S
C346 C336 1.476 . S
C346 N341 1.318 . S
C346 C345 1.396 . S
H347 C342 0.929 . S
O348 Mn324 2.385 . S
O348 C326 1.234 . S
O349 Mn324 2.209 . S
O349 Mn325 2.215 . S
O349 C326 1.283 . S
O350 Mn324 2.094 . S
O350 C328 1.240 . S
O351 Mn325 2.117 . S
O351 C328 1.264 . S
C352 C345 1.403 . S
C352 C353 1.399 . S
C352 H358 0.929 . S
C353 C333 1.449 . S
C353 C352 1.399 . S
C353 H359 0.930 . S
H354 C334 0.931 . S
H355 C335 0.930 . S
H356 C343 0.931 . S
H357 C344 0.929 . S
H358 C352 0.929 . S
H359 C353 0.930 . S
Mn360 O365 2.095 . S
Mn360 O375 2.162 . S
Mn360 O376 2.297 . S
Mn360 O384 2.385 . S
Mn360 O385 2.209 . S
Mn360 O386 2.094 . S
Mn361 O366 2.121 . S
Mn361 N368 2.257 . S
Mn361 N377 2.282 . S
Mn361 O385 2.215 . S
Mn361 O387 2.117 . S
C362 O384 1.234 . S
C362 O385 1.283 . S
C363 O375 1.281 . S
C363 O376 1.236 . S
C364 O386 1.240 . S
C364 O387 1.264 . S
O365 Mn360 2.095 . S
O365 C374 1.250 . S
O366 Mn361 2.121 . S
O366 C374 1.258 . S
C367 N368 1.326 . S
C367 C371 1.460 . S
C367 H373 0.929 . S
N368 Mn361 2.257 . S
N368 C367 1.326 . S
N368 C372 1.362 . S
C369 C370 1.258 . S
C369 C372 1.431 . S
C369 C389 1.449 . S
C370 C369 1.258 . S
C370 C371 1.477 . S
C370 H390 0.931 . S
C371 C367 1.460 . S
C371 C370 1.477 . S
C371 H391 0.930 . S
C372 N368 1.362 . S
C372 C369 1.431 . S
C372 C382 1.476 . S
H373 C367 0.929 . S
C374 O365 1.250 . S
C374 O366 1.258 . S
O375 Mn360 2.162 . S
O375 C363 1.281 . S
O376 Mn360 2.297 . S
O376 C363 1.236 . S
N377 Mn361 2.282 . S
N377 C378 1.328 . S
N377 C382 1.318 . S
C378 N377 1.328 . S
C378 C379 1.457 . S
C378 H383 0.929 . S
C379 C378 1.457 . S
C379 C380 1.291 . S
C379 H392 0.931 . S
C380 C379 1.291 . S
C380 C381 1.373 . S
C380 H393 0.929 . S
C381 C380 1.373 . S
C381 C382 1.396 . S
C381 C388 1.403 . S
C382 C372 1.476 . S
C382 N377 1.318 . S
C382 C381 1.396 . S
H383 C378 0.929 . S
O384 Mn360 2.385 . S
O384 C362 1.234 . S
O385 Mn360 2.209 . S
O385 Mn361 2.215 . S
O385 C362 1.283 . S
O386 Mn360 2.094 . S
O386 C364 1.240 . S
O387 Mn361 2.117 . S
O387 C364 1.264 . S
C388 C381 1.403 . S
C388 C389 1.399 . S
C388 H394 0.929 . S
C389 C369 1.449 . S
C389 C388 1.399 . S
C389 H395 0.930 . S
H390 C370 0.931 . S
H391 C371 0.930 . S
H392 C379 0.931 . S
H393 C380 0.929 . S
H394 C388 0.929 . S
H395 C389 0.930 . S
Mn396 O401 2.095 . S
Mn396 O411 2.162 . S
Mn396 O412 2.297 . S
Mn396 O420 2.385 . S
Mn396 O421 2.209 . S
Mn396 O422 2.094 . S
Mn397 O402 2.121 . S
Mn397 N404 2.257 . S
Mn397 N413 2.282 . S
Mn397 O421 2.215 . S
Mn397 O423 2.117 . S
C398 O420 1.234 . S
C398 O421 1.283 . S
C399 O411 1.281 . S
C399 O412 1.236 . S
C400 O422 1.240 . S
C400 O423 1.264 . S
O401 Mn396 2.095 . S
O401 C410 1.250 . S
O402 Mn397 2.121 . S
O402 C410 1.258 . S
C403 N404 1.326 . S
C403 C407 1.460 . S
C403 H409 0.929 . S
N404 Mn397 2.257 . S
N404 C403 1.326 . S
N404 C408 1.362 . S
C405 C406 1.258 . S
C405 C408 1.431 . S
C405 C425 1.449 . S
C406 C405 1.258 . S
C406 C407 1.477 . S
C406 H426 0.931 . S
C407 C403 1.460 . S
C407 C406 1.477 . S
C407 H427 0.930 . S
C408 N404 1.362 . S
C408 C405 1.431 . S
C408 C418 1.476 . S
H409 C403 0.929 . S
C410 O401 1.250 . S
C410 O402 1.258 . S
O411 Mn396 2.162 . S
O411 C399 1.281 . S
O412 Mn396 2.297 . S
O412 C399 1.236 . S
N413 Mn397 2.282 . S
N413 C414 1.328 . S
N413 C418 1.318 . S
C414 N413 1.328 . S
C414 C415 1.457 . S
C414 H419 0.929 . S
C415 C414 1.457 . S
C415 C416 1.291 . S
C415 H428 0.931 . S
C416 C415 1.291 . S
C416 C417 1.373 . S
C416 H429 0.929 . S
C417 C416 1.373 . S
C417 C418 1.396 . S
C417 C424 1.403 . S
C418 C408 1.476 . S
C418 N413 1.318 . S
C418 C417 1.396 . S
H419 C414 0.929 . S
O420 Mn396 2.385 . S
O420 C398 1.234 . S
O421 Mn396 2.209 . S
O421 Mn397 2.215 . S
O421 C398 1.283 . S
O422 Mn396 2.094 . S
O422 C400 1.240 . S
O423 Mn397 2.117 . S
O423 C400 1.264 . S
C424 C417 1.403 . S
C424 C425 1.399 . S
C424 H430 0.929 . S
C425 C405 1.449 . S
C425 C424 1.399 . S
C425 H431 0.930 . S
H426 C406 0.931 . S
H427 C407 0.930 . S
H428 C415 0.931 . S
H429 C416 0.929 . S
H430 C424 0.929 . S
H431 C425 0.930 . S
C432 C433 1.369 . S
C432 C434 1.419 . S
C432 H436 0.930 . S
C433 C432 1.369 . S
C433 C442 1.429 . S
C434 C432 1.419 . S
C434 C435 1.363 . S
C434 H437 0.929 . S
C435 C434 1.363 . S
C435 C441 1.428 . S
H436 C432 0.930 . S
H437 C434 0.929 . S
S438 N439 1.613 . S
S438 N440 1.610 . S
N439 S438 1.613 . S
N439 C442 1.350 . S
N440 S438 1.610 . S
N440 C441 1.351 . S
C441 C435 1.428 . S
C441 N440 1.351 . S
C441 C442 1.434 . S
C442 C433 1.429 . S
C442 N439 1.350 . S
C442 C441 1.434 . S
C443 C444 1.369 . S
C443 C445 1.419 . S
C443 H447 0.930 . S
C444 C443 1.369 . S
C444 C453 1.429 . S
C445 C443 1.419 . S
C445 C446 1.363 . S
C445 H448 0.929 . S
C446 C445 1.363 . S
C446 C452 1.428 . S
H447 C443 0.930 . S
H448 C445 0.929 . S
S449 N450 1.613 . S
S449 N451 1.610 . S
N450 S449 1.613 . S
N450 C453 1.350 . S
N451 S449 1.610 . S
N451 C452 1.351 . S
C452 C446 1.428 . S
C452 N451 1.351 . S
C452 C453 1.434 . S
C453 C444 1.429 . S
C453 N450 1.350 . S
C453 C452 1.434 . S
C454 C455 1.369 . S
C454 C456 1.419 . S
C454 H458 0.930 . S
C455 C454 1.369 . S
C455 C464 1.429 . S
C456 C454 1.419 . S
C456 C457 1.363 . S
C456 H459 0.929 . S
C457 C456 1.363 . S
C457 C463 1.428 . S
H458 C454 0.930 . S
H459 C456 0.929 . S
S460 N461 1.613 . S
S460 N462 1.610 . S
N461 S460 1.613 . S
N461 C464 1.350 . S
N462 S460 1.610 . S
N462 C463 1.351 . S
C463 C457 1.428 . S
C463 N462 1.351 . S
C463 C464 1.434 . S
C464 C455 1.429 . S
C464 N461 1.350 . S
C464 C463 1.434 . S
C465 C466 1.369 . S
C465 C467 1.419 . S
C465 H469 0.930 . S
C466 C465 1.369 . S
C466 C475 1.429 . S
C467 C465 1.419 . S
C467 C468 1.363 . S
C467 H470 0.929 . S
C468 C467 1.363 . S
C468 C474 1.428 . S
H469 C465 0.930 . S
H470 C467 0.929 . S
S471 N472 1.613 . S
S471 N473 1.610 . S
N472 S471 1.613 . S
N472 C475 1.350 . S
N473 S471 1.610 . S
N473 C474 1.351 . S
C474 C468 1.428 . S
C474 N473 1.351 . S
C474 C475 1.434 . S
C475 C466 1.429 . S
C475 N472 1.350 . S
C475 C474 1.434 . S
C476 C477 1.369 . S
C476 C478 1.419 . S
C476 H480 0.930 . S
C477 C476 1.369 . S
C477 C486 1.429 . S
C478 C476 1.419 . S
C478 C479 1.363 . S
C478 H481 0.929 . S
C479 C478 1.363 . S
C479 C485 1.428 . S
H480 C476 0.930 . S
H481 C478 0.929 . S
S482 N483 1.613 . S
S482 N484 1.610 . S
N483 S482 1.613 . S
N483 C486 1.350 . S
N484 S482 1.610 . S
N484 C485 1.351 . S
C485 C479 1.428 . S
C485 N484 1.351 . S
C485 C486 1.434 . S
C486 C477 1.429 . S
C486 N483 1.350 . S
C486 C485 1.434 . S
C487 C488 1.369 . S
C487 C489 1.419 . S
C487 H491 0.930 . S
C488 C487 1.369 . S
C488 C497 1.429 . S
C489 C487 1.419 . S
C489 C490 1.363 . S
C489 H492 0.929 . S
C490 C489 1.363 . S
C490 C496 1.428 . S
H491 C487 0.930 . S
H492 C489 0.929 . S
S493 N494 1.613 . S
S493 N495 1.610 . S
N494 S493 1.613 . S
N494 C497 1.350 . S
N495 S493 1.610 . S
N495 C496 1.351 . S
C496 C490 1.428 . S
C496 N495 1.351 . S
C496 C497 1.434 . S
C497 C488 1.429 . S
C497 N494 1.350 . S
C497 C496 1.434 . S
C498 C499 1.369 . S
C498 C500 1.419 . S
C498 H502 0.930 . S
C499 C498 1.369 . S
C499 C508 1.429 . S
C500 C498 1.419 . S
C500 C501 1.363 . S
C500 H503 0.929 . S
C501 C500 1.363 . S
C501 C507 1.428 . S
H502 C498 0.930 . S
H503 C500 0.929 . S
S504 N505 1.613 . S
S504 N506 1.610 . S
N505 S504 1.613 . S
N505 C508 1.350 . S
N506 S504 1.610 . S
N506 C507 1.351 . S
C507 C501 1.428 . S
C507 N506 1.351 . S
C507 C508 1.434 . S
C508 C499 1.429 . S
C508 N505 1.350 . S
C508 C507 1.434 . S
C509 C510 1.369 . S
C509 C511 1.419 1_655 S
C509 H513 0.930 . S
C510 C509 1.369 . S
C510 C519 1.429 . S
C511 C509 1.419 1_455 S
C511 C512 1.363 . S
C511 H514 0.929 . S
C512 C511 1.363 . S
C512 C518 1.428 . S
H513 C509 0.930 . S
H514 C511 0.929 . S
S515 N516 1.613 1_455 S
S515 N517 1.610 . S
N516 S515 1.613 1_655 S
N516 C519 1.350 . S
N517 S515 1.610 . S
N517 C518 1.351 . S
C518 C512 1.428 . S
C518 N517 1.351 . S
C518 C519 1.434 1_455 S
C519 C510 1.429 . S
C519 N516 1.350 . S
C519 C518 1.434 1_655 S
C520 C521 1.369 . S
C520 C522 1.419 1_545 S
C520 H524 0.930 . S
C521 C520 1.369 . S
C521 C530 1.429 . S
C522 C520 1.419 1_565 S
C522 C523 1.363 . S
C522 H525 0.929 . S
C523 C522 1.363 . S
C523 C529 1.428 . S
H524 C520 0.930 . S
H525 C522 0.929 . S
S526 N527 1.613 1_565 S
S526 N528 1.610 . S
N527 S526 1.613 1_545 S
N527 C530 1.350 . S
N528 S526 1.610 . S
N528 C529 1.351 . S
C529 C523 1.428 . S
C529 N528 1.351 . S
C529 C530 1.434 1_565 S
C530 C521 1.429 . S
C530 N527 1.350 . S
C530 C529 1.434 1_545 S
C531 C532 1.369 . S
C531 C533 1.419 . S
C531 H535 0.930 . S
C532 C531 1.369 . S
C532 C541 1.429 . S
C533 C531 1.419 . S
C533 C534 1.363 . S
C533 H536 0.929 . S
C534 C533 1.363 . S
C534 C540 1.428 . S
H535 C531 0.930 . S
H536 C533 0.929 . S
S537 N538 1.613 . S
S537 N539 1.610 . S
N538 S537 1.613 . S
N538 C541 1.350 . S
N539 S537 1.610 . S
N539 C540 1.351 . S
C540 C534 1.428 . S
C540 N539 1.351 . S
C540 C541 1.434 . S
C541 C532 1.429 . S
C541 N538 1.350 . S
C541 C540 1.434 . S
C542 C543 1.369 . S
C542 C544 1.419 . S
C542 H546 0.930 . S
C543 C542 1.369 . S
C543 C552 1.429 1_655 S
C544 C542 1.419 . S
C544 C545 1.362 1_655 S
C544 H547 0.929 . S
C545 C544 1.362 1_455 S
C545 C551 1.428 . S
H546 C542 0.930 . S
H547 C544 0.929 . S
S548 N549 1.613 . S
S548 N550 1.610 . S
N549 S548 1.613 . S
N549 C552 1.350 . S
N550 S548 1.610 . S
N550 C551 1.351 . S
C551 C545 1.428 . S
C551 N550 1.351 . S
C551 C552 1.434 . S
C552 C543 1.429 1_455 S
C552 N549 1.350 . S
C552 C551 1.434 . S
C553 C554 1.369 . S
C553 C555 1.419 1_564 S
C553 H557 0.930 . S
C554 C553 1.369 . S
C554 C563 1.429 . S
C555 C553 1.419 1_546 S
C555 C556 1.363 . S
C555 H558 0.929 . S
C556 C555 1.363 . S
C556 C562 1.428 . S
H557 C553 0.930 . S
H558 C555 0.929 . S
S559 N560 1.613 1_545 S
S559 N561 1.610 1_554 S
N560 S559 1.613 1_565 S
N560 C563 1.350 . S
N561 S559 1.610 1_556 S
N561 C562 1.351 . S
C562 C556 1.428 . S
C562 N561 1.351 . S
C562 C563 1.434 1_546 S
C563 C554 1.429 . S
C563 N560 1.350 . S
C563 C562 1.434 1_564 S
C564 C565 1.369 . S
C564 C566 1.419 1_554 S
C564 H568 0.930 . S
C565 C564 1.369 . S
C565 C574 1.429 . S
C566 C564 1.419 1_556 S
C566 C567 1.363 . S
C566 H569 0.929 . S
C567 C566 1.363 . S
C567 C573 1.428 1_556 S
H568 C564 0.930 . S
H569 C566 0.929 . S
S570 N571 1.613 . S
S570 N572 1.610 . S
N571 S570 1.613 . S
N571 C574 1.350 . S
N572 S570 1.610 . S
N572 C573 1.351 . S
C573 C567 1.428 1_554 S
C573 N572 1.351 . S
C573 C574 1.434 . S
C574 C565 1.429 . S
C574 N571 1.350 . S
C574 C573 1.434 . S
C575 C576 1.369 . S
C575 C577 1.419 . S
C575 H579 0.930 . S
C576 C575 1.369 . S
C576 C585 1.429 . S
C577 C575 1.419 . S
C577 C578 1.363 1_655 S
C577 H580 0.929 . S
C578 C577 1.363 1_455 S
C578 C584 1.428 . S
H579 C575 0.930 . S
H580 C577 0.929 . S
S581 N582 1.613 1_455 S
S581 N583 1.610 . S
N582 S581 1.613 1_655 S
N582 C585 1.350 . S
N583 S581 1.610 . S
N583 C584 1.351 . S
C584 C578 1.428 . S
C584 N583 1.351 . S
C584 C585 1.434 1_455 S
C585 C576 1.429 . S
C585 N582 1.350 . S
C585 C584 1.434 1_655 S
C586 C587 1.369 1_565 S
C586 C588 1.419 . S
C586 H590 0.930 . S
C587 C586 1.369 1_545 S
C587 C596 1.429 . S
C588 C586 1.419 . S
C588 C589 1.363 . S
C588 H591 0.929 . S
C589 C588 1.363 . S
C589 C595 1.428 . S
H590 C586 0.930 . S
H591 C588 0.929 . S
S592 N593 1.613 . S
S592 N594 1.610 . S
N593 S592 1.613 . S
N593 C596 1.350 . S
N594 S592 1.610 . S
N594 C595 1.351 1_545 S
C595 C589 1.428 . S
C595 N594 1.351 1_565 S
C595 C596 1.434 1_565 S
C596 C587 1.429 . S
C596 N593 1.350 . S
C596 C595 1.434 1_545 S
C597 C598 1.369 . S
C597 C599 1.419 . S
C597 H601 0.930 . S
C598 C597 1.369 . S
C598 C607 1.429 . S
C599 C597 1.419 . S
C599 C600 1.363 . S
C599 H602 0.929 . S
C600 C599 1.363 . S
C600 C606 1.428 . S
H601 C597 0.930 . S
H602 C599 0.929 . S
S603 N604 1.613 . S
S603 N605 1.610 . S
N604 S603 1.613 . S
N604 C607 1.350 . S
N605 S603 1.610 . S
N605 C606 1.351 . S
C606 C600 1.428 . S
C606 N605 1.351 . S
C606 C607 1.434 . S
C607 C598 1.429 . S
C607 N604 1.350 . S
C607 C606 1.434 . S
C608 C609 1.369 . S
C608 C610 1.419 1_455 S
C608 H612 0.930 . S
C609 C608 1.369 . S
C609 C618 1.429 . S
C610 C608 1.419 1_655 S
C610 C611 1.363 . S
C610 H613 0.929 . S
C611 C610 1.363 . S
C611 C617 1.428 1_655 S
H612 C608 0.930 . S
H613 C610 0.929 . S
S614 N615 1.613 . S
S614 N616 1.610 . S
N615 S614 1.613 . S
N615 C618 1.350 . S
N616 S614 1.610 . S
N616 C617 1.351 . S
C617 C611 1.428 1_455 S
C617 N616 1.351 . S
C617 C618 1.434 . S
C618 C609 1.429 . S
C618 N615 1.350 . S
C618 C617 1.434 . S
C619 C620 1.369 . S
C619 C621 1.419 . S
C619 H623 0.930 . S
C620 C619 1.369 . S
C620 C629 1.429 . S
C621 C619 1.419 . S
C621 C622 1.363 1_545 S
C621 H624 0.940 . S
C622 C621 1.363 1_565 S
C622 C628 1.428 1_565 S
H623 C619 0.930 . S
H624 C621 0.940 . S
S625 N626 1.613 . S
S625 N627 1.610 1_545 S
N626 S625 1.613 . S
N626 C629 1.350 . S
N627 S625 1.610 1_565 S
N627 C628 1.351 1_565 S
C628 C622 1.428 1_545 S
C628 N627 1.351 1_545 S
C628 C629 1.434 . S
C629 C620 1.429 . S
C629 N626 1.350 . S
C629 C628 1.434 . S
C630 C631 1.369 . S
C630 C632 1.419 . S
C630 H634 0.930 . S
C631 C630 1.369 . S
C631 C640 1.429 . S
C632 C630 1.419 . S
C632 C633 1.363 . S
C632 H635 0.929 . S
C633 C632 1.363 . S
C633 C639 1.428 . S
H634 C630 0.930 . S
H635 C632 0.929 . S
S636 N637 1.613 . S
S636 N638 1.610 . S
N637 S636 1.613 . S
N637 C640 1.350 . S
N638 S636 1.610 . S
N638 C639 1.351 . S
C639 C633 1.428 . S
C639 N638 1.351 . S
C639 C640 1.434 . S
C640 C631 1.429 . S
C640 N637 1.350 . S
C640 C639 1.434 . S
C641 C642 1.369 . S
C641 C643 1.419 1_556 S
C641 H645 0.930 . S
C642 C641 1.369 . S
C642 C651 1.429 . S
C643 C641 1.419 1_554 S
C643 C644 1.363 1_655 S
C643 H646 0.929 . S
C644 C643 1.363 1_455 S
C644 C650 1.428 1_554 S
H645 C641 0.930 . S
H646 C643 0.929 . S
S647 N648 1.613 1_455 S
S647 N649 1.610 . S
N648 S647 1.613 1_655 S
N648 C651 1.350 . S
N649 S647 1.610 . S
N649 C650 1.351 . S
C650 C644 1.428 1_556 S
C650 N649 1.351 . S
C650 C651 1.434 1_455 S
C651 C642 1.429 . S
C651 N648 1.350 . S
C651 C650 1.434 1_655 S
C652 C653 1.369 . S
C652 C654 1.419 1_565 S
C652 H656 0.930 . S
C653 C652 1.369 . S
C653 C662 1.429 . S
C654 C652 1.419 1_545 S
C654 C655 1.363 . S
C654 H657 0.929 . S
C655 C654 1.363 . S
C655 C661 1.428 1_545 S
H656 C652 0.930 . S
H657 C654 0.929 . S
S658 N659 1.613 . S
S658 N660 1.610 . S
N659 S658 1.613 . S
N659 C662 1.350 . S
N660 S658 1.610 . S
N660 C661 1.351 . S
C661 C655 1.428 1_565 S
C661 N660 1.351 . S
C661 C662 1.434 . S
C662 C653 1.429 . S
C662 N659 1.350 . S
C662 C661 1.434 . S
C663 C664 1.369 . S
C663 C665 1.419 . S
C663 H667 0.930 . S
C664 C663 1.369 . S
C664 C673 1.429 . S
C665 C663 1.419 . S
C665 C666 1.363 . S
C665 H668 0.929 . S
C666 C665 1.363 . S
C666 C672 1.428 . S
H667 C663 0.930 . S
H668 C665 0.929 . S
S669 N670 1.613 . S
S669 N671 1.610 . S
N670 S669 1.613 . S
N670 C673 1.350 . S
N671 S669 1.610 . S
N671 C672 1.351 . S
C672 C666 1.428 . S
C672 N671 1.351 . S
C672 C673 1.434 . S
C673 C664 1.429 . S
C673 N670 1.350 . S
C673 C672 1.434 . S
C674 C675 1.369 . S
C674 C676 1.419 . S
C674 H678 0.930 . S
C675 C674 1.369 . S
C675 C684 1.429 . S
C676 C674 1.419 . S
C676 C677 1.363 1_455 S
C676 H679 0.929 . S
C677 C676 1.363 1_655 S
C677 C683 1.428 . S
H678 C674 0.930 . S
H679 C676 0.929 . S
S680 N681 1.613 1_655 S
S680 N682 1.610 . S
N681 S680 1.613 1_455 S
N681 C684 1.350 . S
N682 S680 1.610 . S
N682 C683 1.351 . S
C683 C677 1.428 . S
C683 N682 1.351 . S
C683 C684 1.434 1_655 S
C684 C675 1.429 . S
C684 N681 1.350 . S
C684 C683 1.434 1_455 S
C685 C686 1.369 . S
C685 C687 1.419 1_565 S
C685 H689 0.930 . S
C686 C685 1.369 . S
C686 C695 1.429 1_565 S
C687 C685 1.419 1_545 S
C687 C688 1.363 . S
C687 H690 0.929 . S
C688 C687 1.363 . S
C688 C694 1.428 . S
H689 C685 0.930 . S
H690 C687 0.929 . S
S691 N692 1.613 . S
S691 N693 1.610 . S
N692 S691 1.613 . S
N692 C695 1.350 . S
N693 S691 1.610 . S
N693 C694 1.351 . S
C694 C688 1.428 . S
C694 N693 1.351 . S
C694 C695 1.434 . S
C695 C686 1.429 1_545 S
C695 N692 1.350 . S
C695 C694 1.434 . S
C433 C302 1.243 . S
C435 C14 1.251 . S
C444 C50 1.251 . S
C446 C338 1.247 . S
C455 C86 1.250 . S
C457 C374 1.247 . S
C466 C122 1.244 . S
C468 C410 1.251 . S
C477 C230 1.249 . S
C479 C158 1.249 . S
C488 C194 1.252 . S
C490 C266 1.243 . S
C499 C326 1.047 . S
C501 C2 1.044 . S
C510 C38 1.045 . S
C512 C362 1.045 . S
C521 C398 1.044 . S
C523 C74 1.045 . S
C532 C110 1.034 . S
C534 C218 1.037 . S
C543 C254 1.035 . S
C545 C146 1.039 . S
C554 C290 1.035 . S
C556 C182 1.036 . S
C565 C3 1.492 . S
C567 C184 1.458 . S
C576 C39 1.494 . S
C578 C4 1.456 . S
C587 C40 1.456 . S
C589 C75 1.495 . S
C598 C111 1.494 . S
C600 C76 1.462 . S
C609 C147 1.496 . S
C611 C112 1.459 . S
C620 C183 1.495 . S
C622 C148 1.457 . S
C631 C219 1.493 . S
C633 C256 1.461 . S
C642 C255 1.492 . S
C644 C292 1.459 . S
C653 C291 1.493 . S
C655 C328 1.461 . S
C664 C327 1.493 . S
C666 C364 1.456 . S
C675 C363 1.495 . S
C677 C400 1.456 . S
C686 C220 1.462 . S
C688 C399 1.496 . S
