# Generated by pormake.
# Topology dia-f, (3)-cn, num edge types: 1
# Building blocks:
#     Node 0, Type 0, BuildingBlock: WUSLED_clean_sbu_0, # of connection points: 3
#     Node 1, Type 0, BuildingBlock: WUSLED_clean_sbu_0, # of connection points: 3
#     Node 2, Type 0, BuildingBlock: WUSLED_clean_sbu_0, # of connection points: 3
#     Node 3, Type 0, BuildingBlock: WUSLED_clean_sbu_0, # of connection points: 3
#     Node 4, Type 0, BuildingBlock: WUSLED_clean_sbu_0, # of connection points: 3
#     Node 5, Type 0, BuildingBlock: WUSLED_clean_sbu_0, # of connection points: 3
#     Node 6, Type 0, BuildingBlock: WUSLED_clean_sbu_0, # of connection points: 3
#     Node 7, Type 0, BuildingBlock: WUSLED_clean_sbu_0, # of connection points: 3
#     Node 8, Type 0, BuildingBlock: WUSLED_clean_sbu_0, # of connection points: 3
#     Node 9, Type 0, BuildingBlock: WUSLED_clean_sbu_0, # of connection points: 3
#     Node 10, Type 0, BuildingBlock: WUSLED_clean_sbu_0, # of connection points: 3
#     Node 11, Type 0, BuildingBlock: WUSLED_clean_sbu_0, # of connection points: 3
#     Node 12, Type 0, BuildingBlock: WUSLED_clean_sbu_0, # of connection points: 3
#     Node 13, Type 0, BuildingBlock: WUSLED_clean_sbu_0, # of connection points: 3
#     Node 14, Type 0, BuildingBlock: WUSLED_clean_sbu_0, # of connection points: 3
#     Node 15, Type 0, BuildingBlock: WUSLED_clean_sbu_0, # of connection points: 3
#     Edge 16, Type (0, 0), None
#     Edge 17, Type (0, 0), None
#     Edge 18, Type (0, 0), None
#     Edge 19, Type (0, 0), None
#     Edge 20, Type (0, 0), None
#     Edge 21, Type (0, 0), None
#     Edge 22, Type (0, 0), None
#     Edge 23, Type (0, 0), None
#     Edge 24, Type (0, 0), None
#     Edge 25, Type (0, 0), None
#     Edge 26, Type (0, 0), None
#     Edge 27, Type (0, 0), None
#     Edge 28, Type (0, 0), None
#     Edge 29, Type (0, 0), None
#     Edge 30, Type (0, 0), None
#     Edge 31, Type (0, 0), None
#     Edge 32, Type (0, 0), None
#     Edge 33, Type (0, 0), None
#     Edge 34, Type (0, 0), None
#     Edge 35, Type (0, 0), None
#     Edge 36, Type (0, 0), None
#     Edge 37, Type (0, 0), None
#     Edge 38, Type (0, 0), None
#     Edge 39, Type (0, 0), None
# Relax obj value: 0.108
# Max RMSD: 0.093
# Mean RMSD: 0.091
data_MOF--net-dia-f--node1-WUSLED_clean_sbu_0--edge1-none
_symmetry_space_group_name_H-M    P1
_symmetry_Int_Tables_number       1
_symmetry_cell_setting            triclinic
loop_
_symmetry_equiv_pos_as_xyz
'x, y, z'
_cell_length_a     64.382153
_cell_length_b     64.459254
_cell_length_c     41.84449
_cell_angle_alpha  89.835515
_cell_angle_beta   89.94184
_cell_angle_gamma 90.129271
loop_
_atom_site_label
_atom_site_type_symbol
_atom_site_fract_x
_atom_site_fract_y
_atom_site_fract_z
_atom_type_partial_charge
C0 C 0.9952 0.62826 0.11612 0.0
C1 C 1.00207 0.6466 0.13073 0.0
C2 C 0.96626 0.65779 0.13851 0.0
C3 C 0.98776 0.66121 0.14183 0.0
C4 C 0.95947 0.63928 0.12401 0.0
C5 C 0.97383 0.62467 0.11289 0.0
U6 U 0.05111 0.61313 0.10319 0.0
O7 O 0.06755 0.58341 0.1089 0.0
O8 O 0.0672 0.59906 0.06222 0.0
C9 C 0.07234 0.5823 0.07838 0.0
C10 C 1.01033 0.61309 0.10402 0.0
C11 C 0.06912 0.56191 0.06263 0.0
C12 C 0.06171 0.54117 1.01525 0.0
C13 C 0.06211 0.5604 0.03086 0.0
C14 C 0.07473 0.52453 0.06307 0.0
C15 C 0.06842 0.52305 0.03097 0.0
C16 C 0.07515 0.54371 0.07862 0.0
C17 C 0.09076 0.65425 0.13473 0.0
C18 C 0.12433 0.667 0.11628 0.0
C19 C 0.11211 0.67578 0.16927 0.0
C20 C 0.09413 0.6641 0.16409 0.0
C21 C 0.12718 0.6779 0.14509 0.0
C22 C 0.10627 0.65528 0.11112 0.0
C23 C 0.07004 0.6453 0.12841 0.0
O24 O 0.02132 0.61939 0.07933 0.0
O25 O 0.02166 0.60394 0.12603 0.0
O26 O 0.06469 0.62883 0.14509 0.0
O27 O 0.06394 0.64458 0.09845 0.0
H28 H 0.01853 0.64962 0.13351 0.0
H29 H 0.99356 0.6751 0.15327 0.0
H30 H 0.94306 0.63625 0.12075 0.0
H31 H 0.96825 0.61062 0.10158 0.0
H32 H 0.05694 0.54066 0.99045 0.0
H33 H 0.05752 0.57411 1.01766 0.0
H34 H 0.07969 0.51088 0.0761 0.0
H35 H 0.08077 0.54436 0.103 0.0
H36 H 0.13574 0.66806 0.09731 0.0
H37 H 0.11356 0.68414 0.19157 0.0
H38 H 0.08232 0.66362 0.18257 0.0
H39 H 0.1041 0.64774 0.08826 0.0
C40 C 0.68893 0.82531 0.3581 0.0
C41 C 0.67454 0.81605 0.37895 0.0
C42 C 0.65288 0.84696 0.37717 0.0
C43 C 0.65678 0.82677 0.38847 0.0
C44 C 0.6677 0.85651 0.35714 0.0
C45 C 0.68556 0.84571 0.34757 0.0
U46 U 0.71052 0.77243 0.34521 0.0
O47 O 0.72511 0.75733 0.30369 0.0
O48 O 0.74162 0.75869 0.34955 0.0
C49 C 0.74246 0.75355 0.31917 0.0
C50 C 0.70625 0.81286 0.34544 0.0
C51 C 0.76188 0.75866 0.3021 0.0
C52 C 0.79134 0.78137 0.29146 0.0
C53 C 0.77248 0.77741 0.30715 0.0
C54 C 0.78899 0.74804 0.26513 0.0
C55 C 0.79991 0.76666 0.27036 0.0
C56 C 0.77021 0.7441 0.28086 0.0
C57 C 0.67218 0.73025 0.37899 0.0
C58 C 0.65782 0.69733 0.36109 0.0
C59 C 0.65203 0.70875 0.41544 0.0
C60 C 0.66389 0.72651 0.40946 0.0
C61 C 0.64816 0.69432 0.39098 0.0
C62 C 0.6697 0.71517 0.35511 0.0
C63 C 0.68019 0.75124 0.37184 0.0
O64 O 0.71717 0.80278 0.36703 0.0
O65 O 0.7013 0.80127 0.3208 0.0
O66 O 0.68011 0.75721 0.34177 0.0
O67 O 0.69655 0.75764 0.38781 0.0
H68 H 0.67676 0.80027 0.38723 0.0
H69 H 0.64588 0.81906 0.4043 0.0
H70 H 0.66509 0.87198 0.34784 0.0
H71 H 0.69641 0.85305 0.33125 0.0
H72 H 0.79939 0.79578 0.29633 0.0
H73 H 0.76631 0.78888 0.32345 0.0
H74 H 0.79486 0.73653 0.24866 0.0
H75 H 0.76222 0.72956 0.27655 0.0
H76 H 0.65543 0.68637 0.34187 0.0
H77 H 0.64469 0.70715 0.43861 0.0
H78 H 0.66547 0.73799 0.42817 0.0
H79 H 0.67599 0.71763 0.33139 0.0
C80 C 0.5056 0.3908 0.61043 0.0
C81 C 0.51552 0.37204 0.61778 0.0
C82 C 0.48207 0.35505 0.6253 0.0
C83 C 0.5039 0.35436 0.62508 0.0
C84 C 0.47213 0.37404 0.61885 0.0
C85 C 0.48384 0.39179 0.61131 0.0
U86 U 0.55879 0.41301 0.60104 0.0
O87 O 0.57393 0.43065 0.56254 0.0
O88 O 0.57242 0.44379 0.6109 0.0
C89 C 0.57747 0.44686 0.58078 0.0
C90 C 0.51826 0.40891 0.60127 0.0
C91 C 0.57239 0.46739 0.56707 0.0
C92 C 0.55505 0.48909 0.52754 0.0
C93 C 0.55779 0.46976 0.54237 0.0
C94 C 0.58083 0.50409 0.5627 0.0
C95 C 0.56677 0.50644 0.53722 0.0
C96 C 0.58362 0.48479 0.57738 0.0
C97 C 0.60138 0.37298 0.62603 0.0
C98 C 0.63695 0.37666 0.6449 0.0
C99 C 0.62429 0.34314 0.62751 0.0
C100 C 0.60501 0.35188 0.62059 0.0
C101 C 0.64049 0.35534 0.64003 0.0
C102 C 0.61754 0.38544 0.63792 0.0
C103 C 0.58014 0.38084 0.62111 0.0
O104 O 0.52858 0.41758 0.62482 0.0
O105 O 0.52971 0.40614 0.57562 0.0
O106 O 0.57408 0.38314 0.59135 0.0
O107 O 0.5737 0.39572 0.64011 0.0
H108 H 0.53231 0.371 0.61747 0.0
H109 H 0.51204 0.34009 0.63048 0.0
H110 H 0.45533 0.375 0.61878 0.0
H111 H 0.47594 0.40618 0.60578 0.0
H112 H 0.54393 0.4904 0.50824 0.0
H113 H 0.54884 0.4566 0.53402 0.0
H114 H 0.59033 0.517 0.57052 0.0
H115 H 0.59504 0.48331 0.59624 0.0
H116 H 0.64913 0.38653 0.65426 0.0
H117 H 0.62624 0.32661 0.62404 0.0
H118 H 0.59269 0.34196 0.61172 0.0
H119 H 0.61506 0.4018 0.6423 0.0
C120 C 0.92491 0.32849 0.8671 0.0
C121 C 0.94322 0.3221 0.88233 0.0
C122 C 0.95395 0.35812 0.88909 0.0
C123 C 0.95759 0.33675 0.89322 0.0
C124 C 0.93543 0.36444 0.87409 0.0
C125 C 0.92105 0.34973 0.86314 0.0
U126 U 0.9108 0.27224 0.85555 0.0
O127 O 0.88121 0.25527 0.85909 0.0
O128 O 0.89856 0.25539 0.81384 0.0
C129 C 0.8814 0.24995 0.82875 0.0
C130 C 0.91015 0.31295 0.85482 0.0
C131 C 0.86188 0.25271 0.81072 0.0
C132 C 0.82858 0.26962 0.80168 0.0
C133 C 0.8475 0.26835 0.81818 0.0
C134 C 0.83842 0.23999 0.76966 0.0
C135 C 0.82375 0.25535 0.77732 0.0
C136 C 0.85723 0.2387 0.78619 0.0
C137 C 0.9514 0.23361 0.88979 0.0
C138 C 0.94805 0.19632 0.89772 0.0
C139 C 0.9817 0.2129 0.90266 0.0
C140 C 0.97272 0.23207 0.89578 0.0
C141 C 0.96953 0.19476 0.90366 0.0
C142 C 0.93905 0.21562 0.8907 0.0
C143 C 0.94272 0.25428 0.88319 0.0
O144 O 0.91716 0.30178 0.83093 0.0
O145 O 0.90063 0.30177 0.87673 0.0
O146 O 0.92563 0.25928 0.89854 0.0
O147 O 0.94273 0.26018 0.85312 0.0
H148 H 0.94644 0.30574 0.88566 0.0
H149 H 0.9715 0.33132 0.90509 0.0
H150 H 0.93222 0.38074 0.87025 0.0
H151 H 0.90702 0.35493 0.85134 0.0
H152 H 0.81773 0.28175 0.80799 0.0
H153 H 0.85078 0.27942 0.83696 0.0
H154 H 0.83515 0.22854 0.75145 0.0
H155 H 0.86804 0.22646 0.78014 0.0
H156 H 0.93829 0.18262 0.89815 0.0
H157 H 0.99819 0.21236 0.90769 0.0
H158 H 0.98247 0.2458 0.89536 0.0
H159 H 0.92252 0.21652 0.88607 0.0
C160 C 0.99934 0.4025 0.92226 0.0
C161 C 1.00566 0.38426 0.90688 0.0
C162 C 0.96956 0.37364 0.90016 0.0
C163 C 0.99094 0.36998 0.89594 0.0
C164 C 0.96331 0.3921 0.9153 0.0
C165 C 0.97809 0.40638 0.9263 0.0
U166 U 0.05571 0.41666 0.93391 0.0
O167 O 0.07247 0.44638 0.93074 0.0
O168 O 0.0725 0.42879 0.97577 0.0
C169 C 0.07776 0.44607 0.96109 0.0
C170 C 1.01493 0.41717 0.93463 0.0
C171 C 0.07449 0.4654 0.97925 0.0
C172 C 0.05479 0.49662 0.99152 0.0
C173 C 0.05694 0.47797 0.9746 0.0
C174 C 0.08748 0.4901 1.01824 0.0
C175 C 0.07009 0.50294 1.01353 0.0
C176 C 0.08963 0.47157 1.0013 0.0
C177 C 0.0942 0.37602 0.89888 0.0
C178 C 0.13175 0.37842 0.89291 0.0
C179 C 0.11413 0.34579 0.88326 0.0
C180 C 0.09514 0.35506 0.89036 0.0
C181 C 0.13271 0.35728 0.88456 0.0
C182 C 0.1126 0.38772 0.90016 0.0
C183 C 0.07368 0.38496 0.90588 0.0
O184 O 0.02617 0.41005 0.95842 0.0
O185 O 0.02607 0.42679 0.91278 0.0
O186 O 0.06875 0.40216 0.89078 0.0
O187 O 0.06792 0.38482 0.936 0.0
H188 H 0.02203 0.38103 0.90349 0.0
H189 H 0.99632 0.35612 0.88397 0.0
H190 H 0.947 0.39531 0.91921 0.0
H191 H 0.97293 0.42036 0.93821 0.0
H192 H 0.04112 0.50602 0.9875 0.0
H193 H 0.04499 0.47344 0.95778 0.0
H194 H 0.09974 0.49458 0.03454 0.0
H195 H 0.10332 0.46214 1.00516 0.0
H196 H 0.14579 0.38766 0.89427 0.0
H197 H 0.11422 0.32961 0.87632 0.0
H198 H 0.08108 0.34582 0.88905 0.0
H199 H 0.11216 0.40396 0.90673 0.0
C200 C 0.92258 0.70367 0.17188 0.0
C201 C 0.94092 0.70977 0.15628 0.0
C202 C 0.95107 0.67359 0.1499 0.0
C203 C 0.95501 0.69489 0.1454 0.0
C204 C 0.93259 0.66757 0.16544 0.0
C205 C 0.91849 0.6825 0.17636 0.0
U206 U 0.9084 0.7601 0.1812 0.0
O207 O 0.87872 0.7766 0.17542 0.0
O208 O 0.895 0.77745 0.22143 0.0
C209 C 0.87804 0.78223 0.20557 0.0
C210 C 0.90785 0.71939 0.18347 0.0
C211 C 0.85829 0.77805 0.22223 0.0
C212 C 0.83459 0.75448 0.24947 0.0
C213 C 0.85346 0.75815 0.23373 0.0
C214 C 0.82514 0.79054 0.24229 0.0
C215 C 0.82014 0.77063 0.25391 0.0
C216 C 0.84403 0.79419 0.22662 0.0
C217 C 0.94955 0.79799 0.14519 0.0
C218 C 0.95304 0.83528 0.15251 0.0
C219 C 0.97608 0.81717 0.11631 0.0
C220 C 0.96596 0.79854 0.12324 0.0
C221 C 0.97 0.8357 0.13123 0.0
C222 C 0.94291 0.81649 0.15957 0.0
C223 C 0.94058 0.77767 0.15343 0.0
O224 O 0.91471 0.73098 0.20701 0.0
O225 O 0.89851 0.73017 0.161 0.0
O226 O 0.92376 0.77213 0.13785 0.0
O227 O 0.94004 0.77282 0.18395 0.0
H228 H 0.94431 0.72607 0.15251 0.0
H229 H 0.9689 0.7001 0.13313 0.0
H230 H 0.92916 0.65133 0.16963 0.0
H231 H 0.90443 0.67751 0.18841 0.0
H232 H 0.83144 0.73903 0.25846 0.0
H233 H 0.8643 0.74548 0.23058 0.0
H234 H 0.81433 0.80327 0.24484 0.0
H235 H 0.84747 0.80964 0.21779 0.0
H236 H 0.94806 0.84931 0.16442 0.0
H237 H 0.98884 0.81703 0.0994 0.0
H238 H 0.97123 0.78443 0.11182 0.0
H239 H 0.93024 0.81633 0.17661 0.0
C240 C 0.50072 0.63819 0.43015 0.0
C241 C 0.5096 0.65184 0.40776 0.0
C242 C 0.47948 0.6745 0.41119 0.0
C243 C 0.49907 0.66972 0.39828 0.0
C244 C 0.47027 0.66042 0.4328 0.0
C245 C 0.48087 0.64243 0.44229 0.0
U246 U 0.55359 0.61635 0.4424 0.0
O247 O 0.56904 0.60184 0.48363 0.0
O248 O 0.5671 0.58515 0.43806 0.0
C249 C 0.57237 0.58432 0.46842 0.0
C250 C 0.51316 0.62085 0.44281 0.0
C251 C 0.56779 0.56475 0.48597 0.0
C252 C 0.56483 0.52701 0.48609 0.0
C253 C 0.56609 0.54584 0.46944 0.0
C254 C 0.5664 0.54552 0.53622 0.0
C255 C 0.56544 0.52657 0.51969 0.0
C256 C 0.56762 0.56436 0.51959 0.0
C257 C 0.59577 0.65432 0.40773 0.0
C258 C 0.62903 0.6682 0.42524 0.0
C259 C 0.61713 0.67459 0.37124 0.0
C260 C 0.5993 0.66285 0.37736 0.0
C261 C 0.63184 0.67811 0.39548 0.0
C262 C 0.61112 0.65645 0.43135 0.0
C263 C 0.57476 0.64647 0.41518 0.0
O264 O 0.52299 0.60979 0.4212 0.0
O265 O 0.52497 0.6258 0.46722 0.0
O266 O 0.56898 0.64666 0.44531 0.0
O267 O 0.56817 0.63011 0.39945 0.0
H268 H 0.52498 0.64896 0.39824 0.0
H269 H 0.50648 0.68003 0.38124 0.0
H270 H 0.45528 0.66374 0.44336 0.0
H271 H 0.47386 0.63218 0.45983 0.0
H272 H 0.5644 0.51272 0.47255 0.0
H273 H 0.56652 0.54549 0.44357 0.0
H274 H 0.56667 0.54578 0.5621 0.0
H275 H 0.56913 0.57857 0.53315 0.0
H276 H 0.64021 0.67031 0.44428 0.0
H277 H 0.61857 0.68213 0.34819 0.0
H278 H 0.58761 0.66154 0.35885 0.0
H279 H 0.60882 0.64995 0.455 0.0
C280 C 0.69529 0.32249 0.67065 0.0
C281 C 0.68587 0.31787 0.64122 0.0
C282 C 0.66049 0.34536 0.64925 0.0
C283 C 0.66879 0.32927 0.63057 0.0
C284 C 0.6705 0.35056 0.67805 0.0
C285 C 0.68774 0.33921 0.68863 0.0
U286 U 0.71259 0.26809 0.68792 0.0
O287 O 0.74256 0.25199 0.68351 0.0
O288 O 0.72691 0.25347 0.73009 0.0
C289 C 0.74383 0.24826 0.71438 0.0
C290 C 0.71135 0.30864 0.68419 0.0
C291 C 0.76414 0.25266 0.72988 0.0
C292 C 0.78477 0.25911 0.77777 0.0
C293 C 0.76543 0.25747 0.76262 0.0
C294 C 0.80197 0.25165 0.7277 0.0
C295 C 0.80328 0.25582 0.76063 0.0
C296 C 0.78267 0.25001 0.71258 0.0
C297 C 0.67089 0.2278 0.65826 0.0
C298 C 0.65387 0.19668 0.67857 0.0
C299 C 0.64942 0.20669 0.62322 0.0
C300 C 0.66253 0.22371 0.62798 0.0
C301 C 0.64431 0.19337 0.64874 0.0
C302 C 0.667 0.21376 0.68333 0.0
C303 C 0.68053 0.24831 0.66382 0.0
O304 O 0.70555 0.29832 0.70983 0.0
O305 O 0.72151 0.29709 0.66357 0.0
O306 O 0.69707 0.25315 0.64691 0.0
O307 O 0.68129 0.25501 0.69344 0.0
H308 H 0.69122 0.30499 0.62685 0.0
H309 H 0.66172 0.32507 0.60801 0.0
H310 H 0.66443 0.36272 0.6932 0.0
H311 H 0.69465 0.34296 0.7115 0.0
H312 H 0.78516 0.2621 0.80321 0.0
H313 H 0.7515 0.25935 0.77683 0.0
H314 H 0.8159 0.2493 0.71365 0.0
H315 H 0.78228 0.24609 0.68743 0.0
H316 H 0.65055 0.18653 0.69862 0.0
H317 H 0.64222 0.20485 0.60002 0.0
H318 H 0.66515 0.23441 0.60835 0.0
H319 H 0.67327 0.2165 0.70696 0.0
C320 C 0.42259 0.20367 0.67189 0.0
C321 C 0.44092 0.20977 0.65629 0.0
C322 C 0.45108 0.17359 0.6499 0.0
C323 C 0.45502 0.1949 0.6454 0.0
C324 C 0.43259 0.16757 0.66545 0.0
C325 C 0.41849 0.1825 0.67637 0.0
U326 U 0.40842 0.2601 0.68124 0.0
O327 O 0.37874 0.27662 0.67546 0.0
O328 O 0.39502 0.27745 0.72147 0.0
C329 C 0.37806 0.28224 0.70561 0.0
C330 C 0.40785 0.21939 0.68348 0.0
C331 C 0.35832 0.27806 0.72228 0.0
C332 C 0.33462 0.2545 0.74952 0.0
C333 C 0.35349 0.25816 0.73378 0.0
C334 C 0.32517 0.29056 0.74233 0.0
C335 C 0.32017 0.27064 0.75396 0.0
C336 C 0.34406 0.2942 0.72667 0.0
C337 C 0.44958 0.29799 0.64523 0.0
C338 C 0.45305 0.33528 0.65253 0.0
C339 C 0.47612 0.31716 0.61638 0.0
C340 C 0.466 0.29854 0.6233 0.0
C341 C 0.47003 0.3357 0.63127 0.0
C342 C 0.44293 0.3165 0.65958 0.0
C343 C 0.4406 0.27768 0.65346 0.0
O344 O 0.41472 0.23098 0.70703 0.0
O345 O 0.39852 0.23018 0.66102 0.0
O346 O 0.42378 0.27214 0.63788 0.0
O347 O 0.44007 0.27282 0.68398 0.0
H348 H 0.44431 0.22607 0.65251 0.0
H349 H 0.4689 0.2001 0.63313 0.0
H350 H 0.42916 0.15134 0.66963 0.0
H351 H 0.40443 0.17752 0.68842 0.0
H352 H 0.33146 0.23904 0.75852 0.0
H353 H 0.36433 0.2455 0.73063 0.0
H354 H 0.31436 0.30329 0.74488 0.0
H355 H 0.3475 0.30965 0.71783 0.0
H356 H 0.44806 0.34932 0.66442 0.0
H357 H 0.48889 0.31702 0.59949 0.0
H358 H 0.47128 0.28442 0.61191 0.0
H359 H 0.43024 0.31634 0.67661 0.0
C360 C 0.19527 0.82247 0.17063 0.0
C361 C 0.18582 0.81783 0.14123 0.0
C362 C 0.16046 0.84534 0.14922 0.0
C363 C 0.16874 0.82922 0.13057 0.0
C364 C 0.1705 0.85057 0.17799 0.0
C365 C 0.18774 0.83923 0.18857 0.0
U366 U 0.21258 0.76809 0.18791 0.0
O367 O 0.24255 0.75199 0.18353 0.0
O368 O 0.22689 0.75348 0.2301 0.0
C369 C 0.24382 0.74827 0.2144 0.0
C370 C 0.21133 0.80864 0.18417 0.0
C371 C 0.26412 0.75268 0.22991 0.0
C372 C 0.28474 0.75899 0.27785 0.0
C373 C 0.2654 0.75734 0.2627 0.0
C374 C 0.30196 0.75185 0.22769 0.0
C375 C 0.30326 0.75587 0.26066 0.0
C376 C 0.28266 0.75019 0.21257 0.0
C377 C 0.17089 0.72778 0.15826 0.0
C378 C 0.15388 0.69666 0.17858 0.0
C379 C 0.14943 0.70667 0.12322 0.0
C380 C 0.16254 0.72369 0.12797 0.0
C381 C 0.14431 0.69335 0.14874 0.0
C382 C 0.16701 0.71374 0.18333 0.0
C383 C 0.18053 0.74829 0.16381 0.0
O384 O 0.20553 0.79832 0.20982 0.0
O385 O 0.22149 0.79708 0.16356 0.0
O386 O 0.19707 0.75314 0.1469 0.0
O387 O 0.18128 0.755 0.19343 0.0
H388 H 0.19115 0.80493 0.12689 0.0
H389 H 0.16165 0.82499 0.10804 0.0
H390 H 0.16445 0.86275 0.19311 0.0
H391 H 0.19467 0.843 0.21141 0.0
H392 H 0.28513 0.76186 0.30333 0.0
H393 H 0.25147 0.75908 0.27696 0.0
H394 H 0.31589 0.74963 0.2136 0.0
H395 H 0.28228 0.74639 0.18737 0.0
H396 H 0.15055 0.68652 0.19862 0.0
H397 H 0.14222 0.70482 0.10002 0.0
H398 H 0.16515 0.73439 0.10835 0.0
H399 H 0.17327 0.71648 0.20696 0.0
C400 C 0.18887 0.32529 0.858 0.0
C401 C 0.17437 0.31597 0.8786 0.0
C402 C 0.15281 0.34695 0.87701 0.0
C403 C 0.1566 0.32668 0.88809 0.0
C404 C 0.16773 0.35656 0.85723 0.0
C405 C 0.1856 0.34575 0.84769 0.0
U406 U 0.21051 0.27243 0.84518 0.0
O407 O 0.22513 0.25733 0.80368 0.0
O408 O 0.24162 0.25872 0.84956 0.0
C409 C 0.24247 0.25357 0.81919 0.0
C410 C 0.20621 0.31286 0.84538 0.0
C411 C 0.26189 0.25867 0.80212 0.0
C412 C 0.29136 0.28138 0.7915 0.0
C413 C 0.2725 0.27743 0.80718 0.0
C414 C 0.28902 0.24806 0.76517 0.0
C415 C 0.29994 0.26668 0.77041 0.0
C416 C 0.27023 0.24412 0.78089 0.0
C417 C 0.17218 0.23024 0.87893 0.0
C418 C 0.15781 0.19732 0.86104 0.0
C419 C 0.15203 0.20873 0.91539 0.0
C420 C 0.16389 0.22649 0.9094 0.0
C421 C 0.14815 0.1943 0.89093 0.0
C422 C 0.16968 0.21516 0.85505 0.0
C423 C 0.18017 0.25123 0.87177 0.0
O424 O 0.21711 0.3028 0.86699 0.0
O425 O 0.20129 0.30127 0.82073 0.0
O426 O 0.18011 0.25719 0.84171 0.0
O427 O 0.19652 0.25764 0.88776 0.0
H428 H 0.17652 0.30014 0.88672 0.0
H429 H 0.14562 0.31893 0.90373 0.0
H430 H 0.1652 0.37208 0.8481 0.0
H431 H 0.19653 0.35315 0.83157 0.0
H432 H 0.2994 0.2958 0.79637 0.0
H433 H 0.26633 0.2889 0.82348 0.0
H434 H 0.29489 0.23654 0.7487 0.0
H435 H 0.26224 0.22958 0.77658 0.0
H436 H 0.15542 0.18636 0.84182 0.0
H437 H 0.1447 0.20714 0.93856 0.0
H438 H 0.16548 0.23798 0.92811 0.0
H439 H 0.17597 0.21762 0.83132 0.0
C440 C 0.42493 0.82851 0.36708 0.0
C441 C 0.44324 0.82212 0.38232 0.0
C442 C 0.45399 0.85814 0.38907 0.0
C443 C 0.45762 0.83677 0.39321 0.0
C444 C 0.43547 0.86446 0.37406 0.0
C445 C 0.42109 0.84975 0.36311 0.0
U446 U 0.41082 0.77227 0.35553 0.0
O447 O 0.38122 0.75531 0.35907 0.0
O448 O 0.39856 0.75543 0.31381 0.0
C449 C 0.3814 0.74999 0.32873 0.0
C450 C 0.41018 0.81298 0.3548 0.0
C451 C 0.36188 0.75277 0.31071 0.0
C452 C 0.32851 0.76959 0.30185 0.0
C453 C 0.34744 0.76832 0.31833 0.0
C454 C 0.33848 0.74015 0.2695 0.0
C455 C 0.32374 0.75542 0.27733 0.0
C456 C 0.35729 0.73886 0.28602 0.0
C457 C 0.45141 0.73362 0.38974 0.0
C458 C 0.44806 0.69634 0.39767 0.0
C459 C 0.48171 0.71291 0.40262 0.0
C460 C 0.47273 0.73208 0.39575 0.0
C461 C 0.46954 0.69477 0.40362 0.0
C462 C 0.43906 0.71564 0.39065 0.0
C463 C 0.44273 0.7543 0.38315 0.0
O464 O 0.41719 0.80181 0.33091 0.0
O465 O 0.40066 0.8018 0.37672 0.0
O466 O 0.42564 0.7593 0.3985 0.0
O467 O 0.44274 0.7602 0.35309 0.0
H468 H 0.44646 0.80576 0.38566 0.0
H469 H 0.47153 0.83134 0.40508 0.0
H470 H 0.43227 0.88076 0.37021 0.0
H471 H 0.40706 0.85496 0.3513 0.0
H472 H 0.31761 0.78165 0.30828 0.0
H473 H 0.35067 0.77931 0.33723 0.0
H474 H 0.33525 0.72877 0.25116 0.0
H475 H 0.36815 0.72669 0.27984 0.0
H476 H 0.43829 0.68264 0.39809 0.0
H477 H 0.4982 0.71237 0.40767 0.0
H478 H 0.48249 0.74581 0.39533 0.0
H479 H 0.42253 0.71654 0.38601 0.0
C480 C 0.4952 0.12827 0.61613 0.0
C481 C 0.50207 0.1466 0.63073 0.0
C482 C 0.46626 0.1578 0.63852 0.0
C483 C 0.48776 0.16121 0.64183 0.0
C484 C 0.45947 0.13928 0.62402 0.0
C485 C 0.47383 0.12467 0.61289 0.0
U486 U 0.55111 0.11314 0.6032 0.0
O487 O 0.56755 0.08343 0.60892 0.0
O488 O 0.56721 0.09907 0.56224 0.0
C489 C 0.57235 0.08231 0.57841 0.0
C490 C 0.51034 0.11309 0.60403 0.0
C491 C 0.56914 0.06192 0.56267 0.0
C492 C 0.56168 0.04116 0.51533 0.0
C493 C 0.56208 0.06039 0.53092 0.0
C494 C 0.57481 0.02455 0.56309 0.0
C495 C 0.56845 0.02305 0.53102 0.0
C496 C 0.57522 0.04373 0.57863 0.0
C497 C 0.59076 0.15427 0.63472 0.0
C498 C 0.62432 0.16702 0.61627 0.0
C499 C 0.61211 0.1758 0.66926 0.0
C500 C 0.59412 0.16412 0.66409 0.0
C501 C 0.62718 0.17793 0.64509 0.0
C502 C 0.60627 0.15531 0.61111 0.0
C503 C 0.57004 0.14532 0.62841 0.0
O504 O 0.52132 0.11939 0.57933 0.0
O505 O 0.52166 0.10394 0.62604 0.0
O506 O 0.56469 0.12885 0.64509 0.0
O507 O 0.56394 0.14459 0.59845 0.0
H508 H 0.51853 0.14962 0.63352 0.0
H509 H 0.49356 0.17511 0.65327 0.0
H510 H 0.44306 0.13625 0.62075 0.0
H511 H 0.46825 0.11062 0.60159 0.0
H512 H 0.55687 0.04064 0.49055 0.0
H513 H 0.55744 0.0741 0.51775 0.0
H514 H 0.57982 1.01091 0.5761 0.0
H515 H 0.58088 0.0444 0.60299 0.0
H516 H 0.63574 0.16808 0.59731 0.0
H517 H 0.61355 0.18416 0.69156 0.0
H518 H 0.58232 0.16364 0.68256 0.0
H519 H 0.6041 0.14776 0.58826 0.0
C520 C 1.00558 0.89079 0.11039 0.0
C521 C 1.01549 0.87203 0.11771 0.0
C522 C 0.98205 0.85505 0.12525 0.0
C523 C 1.00387 0.85436 0.12501 0.0
C524 C 0.97211 0.87404 0.11883 0.0
C525 C 0.98382 0.8918 0.11129 0.0
U526 U 0.05877 0.913 0.10102 0.0
O527 O 0.07392 0.93064 0.06252 0.0
O528 O 0.07241 0.94377 0.11089 0.0
C529 C 0.07746 0.94684 0.08077 0.0
C530 C 0.01824 0.90891 0.10124 0.0
C531 C 0.07239 0.96738 0.06706 0.0
C532 C 0.05504 0.98908 0.02754 0.0
C533 C 0.05778 0.96975 0.04237 0.0
C534 C 0.08084 1.00408 0.06269 0.0
C535 C 0.06677 1.00643 0.03721 0.0
C536 C 0.08362 0.98477 0.07736 0.0
C537 C 0.10135 0.87296 0.12601 0.0
C538 C 0.13693 0.87665 0.14481 0.0
C539 C 0.12424 0.8431 0.12756 0.0
C540 C 0.10497 0.85184 0.12064 0.0
C541 C 0.14046 0.85531 0.14001 0.0
C542 C 0.11752 0.88542 0.13783 0.0
C543 C 0.08011 0.88082 0.12109 0.0
O544 O 0.02856 0.91758 0.1248 0.0
O545 O 0.02969 0.90614 0.07558 0.0
O546 O 0.07405 0.88313 0.09132 0.0
O547 O 0.07368 0.8957 0.14009 0.0
H548 H 0.03229 0.87098 0.11739 0.0
H549 H 1.01201 0.84008 0.13039 0.0
H550 H 0.95531 0.87501 0.11878 0.0
H551 H 0.97592 0.90619 0.10579 0.0
H552 H 0.04392 0.9904 1.00825 0.0
H553 H 0.04883 0.95659 0.03402 0.0
H554 H 0.09035 0.01698 0.0705 0.0
H555 H 0.09505 0.98329 0.09622 0.0
H556 H 0.14913 0.88652 0.15412 0.0
H557 H 0.12618 0.82657 0.12414 0.0
H558 H 0.09264 0.84192 0.11182 0.0
H559 H 0.11505 0.90179 0.14217 0.0
C560 C 0.49937 0.90252 0.42225 0.0
C561 C 0.5057 0.88428 0.40688 0.0
C562 C 0.46959 0.87366 0.40014 0.0
C563 C 0.49097 0.87 0.39594 0.0
C564 C 0.46334 0.89212 0.41527 0.0
C565 C 0.47812 0.90641 0.42627 0.0
U566 U 0.55574 0.91666 0.43397 0.0
O567 O 0.57251 0.94637 0.43081 0.0
O568 O 0.57251 0.92879 0.47585 0.0
C569 C 0.5778 0.94607 0.46117 0.0
C570 C 0.51496 0.91718 0.43463 0.0
C571 C 0.57453 0.9654 0.47931 0.0
C572 C 0.5548 0.99659 0.49164 0.0
C573 C 0.55694 0.97793 0.47472 0.0
C574 C 0.58755 0.99013 0.51822 0.0
C575 C 0.57012 1.00294 0.51358 0.0
C576 C 0.5897 0.97161 0.50129 0.0
C577 C 0.59425 0.876 0.39907 0.0
C578 C 0.63178 0.87847 0.39279 0.0
C579 C 0.61423 0.84572 0.3838 0.0
C580 C 0.59523 0.85499 0.39089 0.0
C581 C 0.63278 0.85727 0.38476 0.0
C582 C 0.61263 0.88776 0.40002 0.0
C583 C 0.57373 0.88494 0.40601 0.0
O584 O 0.52619 0.91006 0.45845 0.0
O585 O 0.52613 0.92679 0.41279 0.0
O586 O 0.56881 0.90214 0.39088 0.0
O587 O 0.56794 0.88481 0.43612 0.0
H588 H 0.52206 0.88104 0.4035 0.0
H589 H 0.49635 0.85613 0.38398 0.0
H590 H 0.44703 0.89534 0.41917 0.0
H591 H 0.47297 0.92038 0.43818 0.0
H592 H 0.5411 1.00597 0.48767 0.0
H593 H 0.54497 0.97338 0.45795 0.0
H594 H 0.59983 0.99465 0.53446 0.0
H595 H 0.60341 0.9622 0.5051 0.0
H596 H 0.6458 0.88776 0.39388 0.0
H597 H 0.61434 0.8295 0.37711 0.0
H598 H 0.58119 0.8457 0.38983 0.0
H599 H 0.61216 0.90404 0.40633 0.0
C600 C 1.00072 0.13818 0.93017 0.0
C601 C 1.00959 0.15182 0.90778 0.0
C602 C 0.97948 0.17449 0.91123 0.0
C603 C 0.99906 0.16971 0.89831 0.0
C604 C 0.97027 0.16041 0.93284 0.0
C605 C 0.98087 0.14242 0.94233 0.0
U606 U 0.0536 0.11634 0.9424 0.0
O607 O 0.06906 0.10183 0.98363 0.0
O608 O 0.06711 0.08513 0.93805 0.0
C609 C 0.07238 0.08431 0.96841 0.0
C610 C 1.01316 0.12084 0.94283 0.0
C611 C 0.0678 0.06474 0.98596 0.0
C612 C 0.06483 0.027 0.98609 0.0
C613 C 0.06609 0.04583 0.96944 0.0
C614 C 0.06642 0.04551 0.03622 0.0
C615 C 0.06545 0.02657 1.01969 0.0
C616 C 0.06764 0.06435 1.01958 0.0
C617 C 0.09577 0.15431 0.90771 0.0
C618 C 0.12903 0.16819 0.9252 0.0
C619 C 0.11712 0.17458 0.87121 0.0
C620 C 0.09929 0.16284 0.87733 0.0
C621 C 0.13184 0.1781 0.89544 0.0
C622 C 0.11113 0.15643 0.93132 0.0
C623 C 0.07476 0.14646 0.91516 0.0
O624 O 0.02299 0.10977 0.92121 0.0
O625 O 0.02498 0.12579 0.96723 0.0
O626 O 0.06899 0.14665 0.9453 0.0
O627 O 0.06816 0.1301 0.89944 0.0
H628 H 0.02497 0.14895 0.89825 0.0
H629 H 1.00647 0.18002 0.88127 0.0
H630 H 0.95529 0.16372 0.94341 0.0
H631 H 0.97387 0.13217 0.95987 0.0
H632 H 0.06439 1.01271 0.97255 0.0
H633 H 0.06652 0.04548 0.94357 0.0
H634 H 0.06669 0.04577 0.06209 0.0
H635 H 0.06916 0.07856 0.03314 0.0
H636 H 0.14022 0.1703 0.94423 0.0
H637 H 0.11855 0.18212 0.84815 0.0
H638 H 0.08759 0.16153 0.85884 0.0
H639 H 0.10883 0.14994 0.95497 0.0
loop_
_geom_bond_atom_site_label_1
_geom_bond_atom_site_label_2
_geom_bond_distance
_geom_bond_site_symmetry_2
_ccdc_geom_bond_type
C0 C1 1.264 . S
C0 C5 1.479 . S
C0 C10 1.465 1_655 S
C1 C0 1.264 . S
C1 C3 1.339 . S
C1 H28 0.931 1_655 S
C2 C3 1.395 . S
C2 C4 1.320 . S
C3 C1 1.339 . S
C3 C2 1.395 . S
C3 H29 0.929 . S
C4 C2 1.320 . S
C4 C5 1.405 . S
C4 H30 0.930 . S
C5 C0 1.479 . S
C5 C4 1.405 . S
C5 H31 0.931 . S
U6 O7 2.454 . S
U6 O8 2.458 . S
U6 C9 2.984 . S
U6 C10 2.847 . S
U6 C23 2.882 . S
U6 O24 2.441 . S
U6 O25 2.420 . S
U6 O26 2.455 . S
U6 O27 2.449 . S
O7 U6 2.454 . S
O7 C9 1.353 . S
O8 U6 2.458 . S
O8 C9 1.286 . S
C9 U6 2.984 . S
C9 O7 1.353 . S
C9 O8 1.286 . S
C9 C11 1.363 . S
C10 C0 1.465 1_455 S
C10 U6 2.847 . S
C10 O24 1.249 . S
C10 O25 1.202 . S
C11 C9 1.363 . S
C11 C13 1.408 . S
C11 C16 1.342 . S
C12 C13 1.310 . S
C12 C15 1.461 . S
C12 H32 0.932 . S
C13 C11 1.408 . S
C13 C12 1.310 . S
C13 H33 0.930 . S
C14 C15 1.474 . S
C14 C16 1.285 . S
C14 H34 0.929 . S
C15 C12 1.461 . S
C15 C14 1.474 . S
C16 C11 1.342 . S
C16 C14 1.285 . S
C16 H35 0.930 . S
C17 C20 1.424 . S
C17 C22 1.245 . S
C17 C23 1.428 . S
C18 C21 1.260 . S
C18 C22 1.477 . S
C18 H36 0.932 . S
C19 C20 1.384 . S
C19 C21 1.479 . S
C19 H37 0.929 . S
C20 C17 1.424 . S
C20 C19 1.384 . S
C20 H38 0.928 . S
C21 C18 1.260 . S
C21 C19 1.479 . S
C22 C17 1.245 . S
C22 C18 1.477 . S
C22 H39 0.932 . S
C23 U6 2.882 . S
C23 C17 1.428 . S
C23 O26 1.301 . S
C23 O27 1.282 . S
O24 U6 2.441 . S
O24 C10 1.249 . S
O25 U6 2.420 . S
O25 C10 1.202 . S
O26 U6 2.455 . S
O26 C23 1.301 . S
O27 U6 2.449 . S
O27 C23 1.282 . S
H28 C1 0.931 1_455 S
H29 C3 0.929 . S
H30 C4 0.930 . S
H31 C5 0.931 . S
H32 C12 0.932 . S
H33 C13 0.930 . S
H34 C14 0.929 . S
H35 C16 0.930 . S
H36 C18 0.932 . S
H37 C19 0.929 . S
H38 C20 0.928 . S
H39 C22 0.932 . S
C40 C41 1.264 . S
C40 C45 1.479 . S
C40 C50 1.465 . S
C41 C40 1.264 . S
C41 C43 1.339 . S
C41 H68 0.931 . S
C42 C43 1.395 . S
C42 C44 1.320 . S
C43 C41 1.339 . S
C43 C42 1.395 . S
C43 H69 0.929 . S
C44 C42 1.320 . S
C44 C45 1.405 . S
C44 H70 0.930 . S
C45 C40 1.479 . S
C45 C44 1.405 . S
C45 H71 0.931 . S
U46 O47 2.454 . S
U46 O48 2.458 . S
U46 C49 2.984 . S
U46 C50 2.847 . S
U46 C63 2.882 . S
U46 O64 2.441 . S
U46 O65 2.420 . S
U46 O66 2.455 . S
U46 O67 2.449 . S
O47 U46 2.454 . S
O47 C49 1.353 . S
O48 U46 2.458 . S
O48 C49 1.286 . S
C49 U46 2.984 . S
C49 O47 1.353 . S
C49 O48 1.286 . S
C49 C51 1.363 . S
C50 C40 1.465 . S
C50 U46 2.847 . S
C50 O64 1.249 . S
C50 O65 1.202 . S
C51 C49 1.363 . S
C51 C53 1.408 . S
C51 C56 1.342 . S
C52 C53 1.310 . S
C52 C55 1.461 . S
C52 H72 0.932 . S
C53 C51 1.408 . S
C53 C52 1.310 . S
C53 H73 0.930 . S
C54 C55 1.474 . S
C54 C56 1.285 . S
C54 H74 0.929 . S
C55 C52 1.461 . S
C55 C54 1.474 . S
C56 C51 1.342 . S
C56 C54 1.285 . S
C56 H75 0.930 . S
C57 C60 1.424 . S
C57 C62 1.245 . S
C57 C63 1.428 . S
C58 C61 1.260 . S
C58 C62 1.477 . S
C58 H76 0.932 . S
C59 C60 1.384 . S
C59 C61 1.479 . S
C59 H77 0.929 . S
C60 C57 1.424 . S
C60 C59 1.384 . S
C60 H78 0.928 . S
C61 C58 1.260 . S
C61 C59 1.479 . S
C62 C57 1.245 . S
C62 C58 1.477 . S
C62 H79 0.932 . S
C63 U46 2.882 . S
C63 C57 1.428 . S
C63 O66 1.301 . S
C63 O67 1.282 . S
O64 U46 2.441 . S
O64 C50 1.249 . S
O65 U46 2.420 . S
O65 C50 1.202 . S
O66 U46 2.455 . S
O66 C63 1.301 . S
O67 U46 2.449 . S
O67 C63 1.282 . S
H68 C41 0.931 . S
H69 C43 0.929 . S
H70 C44 0.930 . S
H71 C45 0.931 . S
H72 C52 0.932 . S
H73 C53 0.930 . S
H74 C54 0.929 . S
H75 C56 0.930 . S
H76 C58 0.932 . S
H77 C59 0.929 . S
H78 C60 0.928 . S
H79 C62 0.932 . S
C80 C81 1.264 . S
C80 C85 1.479 . S
C80 C90 1.465 . S
C81 C80 1.264 . S
C81 C83 1.339 . S
C81 H108 0.931 . S
C82 C83 1.395 . S
C82 C84 1.320 . S
C83 C81 1.339 . S
C83 C82 1.395 . S
C83 H109 0.929 . S
C84 C82 1.320 . S
C84 C85 1.405 . S
C84 H110 0.930 . S
C85 C80 1.479 . S
C85 C84 1.405 . S
C85 H111 0.931 . S
U86 O87 2.454 . S
U86 O88 2.458 . S
U86 C89 2.984 . S
U86 C90 2.847 . S
U86 C103 2.882 . S
U86 O104 2.441 . S
U86 O105 2.420 . S
U86 O106 2.455 . S
U86 O107 2.449 . S
O87 U86 2.454 . S
O87 C89 1.353 . S
O88 U86 2.458 . S
O88 C89 1.286 . S
C89 U86 2.984 . S
C89 O87 1.353 . S
C89 O88 1.286 . S
C89 C91 1.363 . S
C90 C80 1.465 . S
C90 U86 2.847 . S
C90 O104 1.249 . S
C90 O105 1.202 . S
C91 C89 1.363 . S
C91 C93 1.408 . S
C91 C96 1.342 . S
C92 C93 1.310 . S
C92 C95 1.461 . S
C92 H112 0.932 . S
C93 C91 1.408 . S
C93 C92 1.310 . S
C93 H113 0.930 . S
C94 C95 1.474 . S
C94 C96 1.285 . S
C94 H114 0.929 . S
C95 C92 1.461 . S
C95 C94 1.474 . S
C96 C91 1.342 . S
C96 C94 1.285 . S
C96 H115 0.930 . S
C97 C100 1.424 . S
C97 C102 1.245 . S
C97 C103 1.428 . S
C98 C101 1.260 . S
C98 C102 1.477 . S
C98 H116 0.932 . S
C99 C100 1.384 . S
C99 C101 1.479 . S
C99 H117 0.929 . S
C100 C97 1.424 . S
C100 C99 1.384 . S
C100 H118 0.928 . S
C101 C98 1.260 . S
C101 C99 1.479 . S
C102 C97 1.245 . S
C102 C98 1.477 . S
C102 H119 0.932 . S
C103 U86 2.882 . S
C103 C97 1.428 . S
C103 O106 1.301 . S
C103 O107 1.282 . S
O104 U86 2.441 . S
O104 C90 1.249 . S
O105 U86 2.420 . S
O105 C90 1.202 . S
O106 U86 2.455 . S
O106 C103 1.301 . S
O107 U86 2.449 . S
O107 C103 1.282 . S
H108 C81 0.931 . S
H109 C83 0.929 . S
H110 C84 0.930 . S
H111 C85 0.931 . S
H112 C92 0.932 . S
H113 C93 0.930 . S
H114 C94 0.929 . S
H115 C96 0.930 . S
H116 C98 0.932 . S
H117 C99 0.929 . S
H118 C100 0.928 . S
H119 C102 0.932 . S
C120 C121 1.264 . S
C120 C125 1.479 . S
C120 C130 1.465 . S
C121 C120 1.264 . S
C121 C123 1.339 . S
C121 H148 0.931 . S
C122 C123 1.395 . S
C122 C124 1.320 . S
C123 C121 1.339 . S
C123 C122 1.395 . S
C123 H149 0.929 . S
C124 C122 1.320 . S
C124 C125 1.405 . S
C124 H150 0.930 . S
C125 C120 1.479 . S
C125 C124 1.405 . S
C125 H151 0.931 . S
U126 O127 2.454 . S
U126 O128 2.458 . S
U126 C129 2.984 . S
U126 C130 2.847 . S
U126 C143 2.882 . S
U126 O144 2.441 . S
U126 O145 2.420 . S
U126 O146 2.455 . S
U126 O147 2.449 . S
O127 U126 2.454 . S
O127 C129 1.353 . S
O128 U126 2.458 . S
O128 C129 1.286 . S
C129 U126 2.984 . S
C129 O127 1.353 . S
C129 O128 1.286 . S
C129 C131 1.363 . S
C130 C120 1.465 . S
C130 U126 2.847 . S
C130 O144 1.249 . S
C130 O145 1.202 . S
C131 C129 1.363 . S
C131 C133 1.408 . S
C131 C136 1.342 . S
C132 C133 1.310 . S
C132 C135 1.461 . S
C132 H152 0.932 . S
C133 C131 1.408 . S
C133 C132 1.310 . S
C133 H153 0.930 . S
C134 C135 1.474 . S
C134 C136 1.285 . S
C134 H154 0.929 . S
C135 C132 1.461 . S
C135 C134 1.474 . S
C136 C131 1.342 . S
C136 C134 1.285 . S
C136 H155 0.930 . S
C137 C140 1.424 . S
C137 C142 1.245 . S
C137 C143 1.428 . S
C138 C141 1.260 . S
C138 C142 1.477 . S
C138 H156 0.932 . S
C139 C140 1.384 . S
C139 C141 1.479 . S
C139 H157 0.929 . S
C140 C137 1.424 . S
C140 C139 1.384 . S
C140 H158 0.928 . S
C141 C138 1.260 . S
C141 C139 1.479 . S
C142 C137 1.245 . S
C142 C138 1.477 . S
C142 H159 0.932 . S
C143 U126 2.882 . S
C143 C137 1.428 . S
C143 O146 1.301 . S
C143 O147 1.282 . S
O144 U126 2.441 . S
O144 C130 1.249 . S
O145 U126 2.420 . S
O145 C130 1.202 . S
O146 U126 2.455 . S
O146 C143 1.301 . S
O147 U126 2.449 . S
O147 C143 1.282 . S
H148 C121 0.931 . S
H149 C123 0.929 . S
H150 C124 0.930 . S
H151 C125 0.931 . S
H152 C132 0.932 . S
H153 C133 0.930 . S
H154 C134 0.929 . S
H155 C136 0.930 . S
H156 C138 0.932 . S
H157 C139 0.929 . S
H158 C140 0.928 . S
H159 C142 0.932 . S
C160 C161 1.264 . S
C160 C165 1.479 . S
C160 C170 1.465 1_655 S
C161 C160 1.264 . S
C161 C163 1.339 . S
C161 H188 0.931 1_655 S
C162 C163 1.395 . S
C162 C164 1.320 . S
C163 C161 1.339 . S
C163 C162 1.395 . S
C163 H189 0.929 . S
C164 C162 1.320 . S
C164 C165 1.405 . S
C164 H190 0.930 . S
C165 C160 1.479 . S
C165 C164 1.405 . S
C165 H191 0.931 . S
U166 O167 2.454 . S
U166 O168 2.458 . S
U166 C169 2.984 . S
U166 C170 2.847 . S
U166 C183 2.882 . S
U166 O184 2.441 . S
U166 O185 2.420 . S
U166 O186 2.455 . S
U166 O187 2.449 . S
O167 U166 2.454 . S
O167 C169 1.353 . S
O168 U166 2.458 . S
O168 C169 1.286 . S
C169 U166 2.984 . S
C169 O167 1.353 . S
C169 O168 1.286 . S
C169 C171 1.363 . S
C170 C160 1.465 1_455 S
C170 U166 2.847 . S
C170 O184 1.249 . S
C170 O185 1.202 . S
C171 C169 1.363 . S
C171 C173 1.408 . S
C171 C176 1.342 . S
C172 C173 1.310 . S
C172 C175 1.461 . S
C172 H192 0.932 . S
C173 C171 1.408 . S
C173 C172 1.310 . S
C173 H193 0.930 . S
C174 C175 1.474 . S
C174 C176 1.285 . S
C174 H194 0.929 . S
C175 C172 1.461 . S
C175 C174 1.474 . S
C176 C171 1.342 . S
C176 C174 1.285 . S
C176 H195 0.930 . S
C177 C180 1.424 . S
C177 C182 1.245 . S
C177 C183 1.428 . S
C178 C181 1.260 . S
C178 C182 1.477 . S
C178 H196 0.932 . S
C179 C180 1.384 . S
C179 C181 1.479 . S
C179 H197 0.929 . S
C180 C177 1.424 . S
C180 C179 1.384 . S
C180 H198 0.928 . S
C181 C178 1.260 . S
C181 C179 1.479 . S
C182 C177 1.245 . S
C182 C178 1.477 . S
C182 H199 0.932 . S
C183 U166 2.882 . S
C183 C177 1.428 . S
C183 O186 1.301 . S
C183 O187 1.282 . S
O184 U166 2.441 . S
O184 C170 1.249 . S
O185 U166 2.420 . S
O185 C170 1.202 . S
O186 U166 2.455 . S
O186 C183 1.301 . S
O187 U166 2.449 . S
O187 C183 1.282 . S
H188 C161 0.931 1_455 S
H189 C163 0.929 . S
H190 C164 0.930 . S
H191 C165 0.931 . S
H192 C172 0.932 . S
H193 C173 0.930 . S
H194 C174 0.929 . S
H195 C176 0.930 . S
H196 C178 0.932 . S
H197 C179 0.929 . S
H198 C180 0.928 . S
H199 C182 0.932 . S
C200 C201 1.264 . S
C200 C205 1.479 . S
C200 C210 1.465 . S
C201 C200 1.264 . S
C201 C203 1.339 . S
C201 H228 0.931 . S
C202 C203 1.395 . S
C202 C204 1.320 . S
C203 C201 1.339 . S
C203 C202 1.395 . S
C203 H229 0.929 . S
C204 C202 1.320 . S
C204 C205 1.405 . S
C204 H230 0.930 . S
C205 C200 1.479 . S
C205 C204 1.405 . S
C205 H231 0.931 . S
U206 O207 2.454 . S
U206 O208 2.458 . S
U206 C209 2.984 . S
U206 C210 2.847 . S
U206 C223 2.882 . S
U206 O224 2.441 . S
U206 O225 2.420 . S
U206 O226 2.455 . S
U206 O227 2.449 . S
O207 U206 2.454 . S
O207 C209 1.353 . S
O208 U206 2.458 . S
O208 C209 1.286 . S
C209 U206 2.984 . S
C209 O207 1.353 . S
C209 O208 1.286 . S
C209 C211 1.363 . S
C210 C200 1.465 . S
C210 U206 2.847 . S
C210 O224 1.249 . S
C210 O225 1.202 . S
C211 C209 1.363 . S
C211 C213 1.408 . S
C211 C216 1.342 . S
C212 C213 1.310 . S
C212 C215 1.461 . S
C212 H232 0.932 . S
C213 C211 1.408 . S
C213 C212 1.310 . S
C213 H233 0.930 . S
C214 C215 1.474 . S
C214 C216 1.285 . S
C214 H234 0.929 . S
C215 C212 1.461 . S
C215 C214 1.474 . S
C216 C211 1.342 . S
C216 C214 1.285 . S
C216 H235 0.930 . S
C217 C220 1.424 . S
C217 C222 1.245 . S
C217 C223 1.428 . S
C218 C221 1.260 . S
C218 C222 1.477 . S
C218 H236 0.932 . S
C219 C220 1.384 . S
C219 C221 1.479 . S
C219 H237 0.929 . S
C220 C217 1.424 . S
C220 C219 1.384 . S
C220 H238 0.928 . S
C221 C218 1.260 . S
C221 C219 1.479 . S
C222 C217 1.245 . S
C222 C218 1.477 . S
C222 H239 0.932 . S
C223 U206 2.882 . S
C223 C217 1.428 . S
C223 O226 1.301 . S
C223 O227 1.282 . S
O224 U206 2.441 . S
O224 C210 1.249 . S
O225 U206 2.420 . S
O225 C210 1.202 . S
O226 U206 2.455 . S
O226 C223 1.301 . S
O227 U206 2.449 . S
O227 C223 1.282 . S
H228 C201 0.931 . S
H229 C203 0.929 . S
H230 C204 0.930 . S
H231 C205 0.931 . S
H232 C212 0.932 . S
H233 C213 0.930 . S
H234 C214 0.929 . S
H235 C216 0.930 . S
H236 C218 0.932 . S
H237 C219 0.929 . S
H238 C220 0.928 . S
H239 C222 0.932 . S
C240 C241 1.264 . S
C240 C245 1.479 . S
C240 C250 1.465 . S
C241 C240 1.264 . S
C241 C243 1.339 . S
C241 H268 0.931 . S
C242 C243 1.395 . S
C242 C244 1.320 . S
C243 C241 1.339 . S
C243 C242 1.395 . S
C243 H269 0.929 . S
C244 C242 1.320 . S
C244 C245 1.405 . S
C244 H270 0.930 . S
C245 C240 1.479 . S
C245 C244 1.405 . S
C245 H271 0.931 . S
U246 O247 2.454 . S
U246 O248 2.458 . S
U246 C249 2.984 . S
U246 C250 2.847 . S
U246 C263 2.882 . S
U246 O264 2.441 . S
U246 O265 2.420 . S
U246 O266 2.455 . S
U246 O267 2.449 . S
O247 U246 2.454 . S
O247 C249 1.353 . S
O248 U246 2.458 . S
O248 C249 1.286 . S
C249 U246 2.984 . S
C249 O247 1.353 . S
C249 O248 1.286 . S
C249 C251 1.363 . S
C250 C240 1.465 . S
C250 U246 2.847 . S
C250 O264 1.249 . S
C250 O265 1.202 . S
C251 C249 1.363 . S
C251 C253 1.408 . S
C251 C256 1.342 . S
C252 C253 1.310 . S
C252 C255 1.461 . S
C252 H272 0.932 . S
C253 C251 1.408 . S
C253 C252 1.310 . S
C253 H273 0.930 . S
C254 C255 1.474 . S
C254 C256 1.285 . S
C254 H274 0.929 . S
C255 C252 1.461 . S
C255 C254 1.474 . S
C256 C251 1.342 . S
C256 C254 1.285 . S
C256 H275 0.930 . S
C257 C260 1.424 . S
C257 C262 1.245 . S
C257 C263 1.428 . S
C258 C261 1.260 . S
C258 C262 1.477 . S
C258 H276 0.932 . S
C259 C260 1.384 . S
C259 C261 1.479 . S
C259 H277 0.929 . S
C260 C257 1.424 . S
C260 C259 1.384 . S
C260 H278 0.928 . S
C261 C258 1.260 . S
C261 C259 1.479 . S
C262 C257 1.245 . S
C262 C258 1.477 . S
C262 H279 0.932 . S
C263 U246 2.882 . S
C263 C257 1.428 . S
C263 O266 1.301 . S
C263 O267 1.282 . S
O264 U246 2.441 . S
O264 C250 1.249 . S
O265 U246 2.420 . S
O265 C250 1.202 . S
O266 U246 2.455 . S
O266 C263 1.301 . S
O267 U246 2.449 . S
O267 C263 1.282 . S
H268 C241 0.931 . S
H269 C243 0.929 . S
H270 C244 0.930 . S
H271 C245 0.931 . S
H272 C252 0.932 . S
H273 C253 0.930 . S
H274 C254 0.929 . S
H275 C256 0.930 . S
H276 C258 0.932 . S
H277 C259 0.929 . S
H278 C260 0.928 . S
H279 C262 0.932 . S
C280 C281 1.264 . S
C280 C285 1.479 . S
C280 C290 1.465 . S
C281 C280 1.264 . S
C281 C283 1.339 . S
C281 H308 0.931 . S
C282 C283 1.395 . S
C282 C284 1.320 . S
C283 C281 1.339 . S
C283 C282 1.395 . S
C283 H309 0.929 . S
C284 C282 1.320 . S
C284 C285 1.405 . S
C284 H310 0.930 . S
C285 C280 1.479 . S
C285 C284 1.405 . S
C285 H311 0.931 . S
U286 O287 2.454 . S
U286 O288 2.458 . S
U286 C289 2.984 . S
U286 C290 2.847 . S
U286 C303 2.882 . S
U286 O304 2.441 . S
U286 O305 2.420 . S
U286 O306 2.455 . S
U286 O307 2.449 . S
O287 U286 2.454 . S
O287 C289 1.353 . S
O288 U286 2.458 . S
O288 C289 1.286 . S
C289 U286 2.984 . S
C289 O287 1.353 . S
C289 O288 1.286 . S
C289 C291 1.363 . S
C290 C280 1.465 . S
C290 U286 2.847 . S
C290 O304 1.249 . S
C290 O305 1.202 . S
C291 C289 1.363 . S
C291 C293 1.408 . S
C291 C296 1.342 . S
C292 C293 1.310 . S
C292 C295 1.461 . S
C292 H312 0.932 . S
C293 C291 1.408 . S
C293 C292 1.310 . S
C293 H313 0.930 . S
C294 C295 1.474 . S
C294 C296 1.285 . S
C294 H314 0.929 . S
C295 C292 1.461 . S
C295 C294 1.474 . S
C296 C291 1.342 . S
C296 C294 1.285 . S
C296 H315 0.930 . S
C297 C300 1.424 . S
C297 C302 1.245 . S
C297 C303 1.428 . S
C298 C301 1.260 . S
C298 C302 1.477 . S
C298 H316 0.932 . S
C299 C300 1.384 . S
C299 C301 1.479 . S
C299 H317 0.929 . S
C300 C297 1.424 . S
C300 C299 1.384 . S
C300 H318 0.928 . S
C301 C298 1.260 . S
C301 C299 1.479 . S
C302 C297 1.245 . S
C302 C298 1.477 . S
C302 H319 0.932 . S
C303 U286 2.882 . S
C303 C297 1.428 . S
C303 O306 1.301 . S
C303 O307 1.282 . S
O304 U286 2.441 . S
O304 C290 1.249 . S
O305 U286 2.420 . S
O305 C290 1.202 . S
O306 U286 2.455 . S
O306 C303 1.301 . S
O307 U286 2.449 . S
O307 C303 1.282 . S
H308 C281 0.931 . S
H309 C283 0.929 . S
H310 C284 0.930 . S
H311 C285 0.931 . S
H312 C292 0.932 . S
H313 C293 0.930 . S
H314 C294 0.929 . S
H315 C296 0.930 . S
H316 C298 0.932 . S
H317 C299 0.929 . S
H318 C300 0.928 . S
H319 C302 0.932 . S
C320 C321 1.264 . S
C320 C325 1.479 . S
C320 C330 1.465 . S
C321 C320 1.264 . S
C321 C323 1.339 . S
C321 H348 0.931 . S
C322 C323 1.395 . S
C322 C324 1.320 . S
C323 C321 1.339 . S
C323 C322 1.395 . S
C323 H349 0.929 . S
C324 C322 1.320 . S
C324 C325 1.405 . S
C324 H350 0.930 . S
C325 C320 1.479 . S
C325 C324 1.405 . S
C325 H351 0.931 . S
U326 O327 2.454 . S
U326 O328 2.458 . S
U326 C329 2.984 . S
U326 C330 2.847 . S
U326 C343 2.882 . S
U326 O344 2.441 . S
U326 O345 2.420 . S
U326 O346 2.455 . S
U326 O347 2.449 . S
O327 U326 2.454 . S
O327 C329 1.353 . S
O328 U326 2.458 . S
O328 C329 1.286 . S
C329 U326 2.984 . S
C329 O327 1.353 . S
C329 O328 1.286 . S
C329 C331 1.363 . S
C330 C320 1.465 . S
C330 U326 2.847 . S
C330 O344 1.249 . S
C330 O345 1.202 . S
C331 C329 1.363 . S
C331 C333 1.408 . S
C331 C336 1.342 . S
C332 C333 1.310 . S
C332 C335 1.461 . S
C332 H352 0.932 . S
C333 C331 1.408 . S
C333 C332 1.310 . S
C333 H353 0.930 . S
C334 C335 1.474 . S
C334 C336 1.285 . S
C334 H354 0.929 . S
C335 C332 1.461 . S
C335 C334 1.474 . S
C336 C331 1.342 . S
C336 C334 1.285 . S
C336 H355 0.930 . S
C337 C340 1.424 . S
C337 C342 1.245 . S
C337 C343 1.428 . S
C338 C341 1.260 . S
C338 C342 1.477 . S
C338 H356 0.932 . S
C339 C340 1.384 . S
C339 C341 1.479 . S
C339 H357 0.929 . S
C340 C337 1.424 . S
C340 C339 1.384 . S
C340 H358 0.928 . S
C341 C338 1.260 . S
C341 C339 1.479 . S
C342 C337 1.245 . S
C342 C338 1.477 . S
C342 H359 0.932 . S
C343 U326 2.882 . S
C343 C337 1.428 . S
C343 O346 1.301 . S
C343 O347 1.282 . S
O344 U326 2.441 . S
O344 C330 1.249 . S
O345 U326 2.420 . S
O345 C330 1.202 . S
O346 U326 2.455 . S
O346 C343 1.301 . S
O347 U326 2.449 . S
O347 C343 1.282 . S
H348 C321 0.931 . S
H349 C323 0.929 . S
H350 C324 0.930 . S
H351 C325 0.931 . S
H352 C332 0.932 . S
H353 C333 0.930 . S
H354 C334 0.929 . S
H355 C336 0.930 . S
H356 C338 0.932 . S
H357 C339 0.929 . S
H358 C340 0.928 . S
H359 C342 0.932 . S
C360 C361 1.264 . S
C360 C365 1.479 . S
C360 C370 1.465 . S
C361 C360 1.264 . S
C361 C363 1.339 . S
C361 H388 0.931 . S
C362 C363 1.395 . S
C362 C364 1.320 . S
C363 C361 1.339 . S
C363 C362 1.395 . S
C363 H389 0.929 . S
C364 C362 1.320 . S
C364 C365 1.405 . S
C364 H390 0.930 . S
C365 C360 1.479 . S
C365 C364 1.405 . S
C365 H391 0.931 . S
U366 O367 2.454 . S
U366 O368 2.458 . S
U366 C369 2.984 . S
U366 C370 2.847 . S
U366 C383 2.882 . S
U366 O384 2.441 . S
U366 O385 2.420 . S
U366 O386 2.455 . S
U366 O387 2.449 . S
O367 U366 2.454 . S
O367 C369 1.353 . S
O368 U366 2.458 . S
O368 C369 1.286 . S
C369 U366 2.984 . S
C369 O367 1.353 . S
C369 O368 1.286 . S
C369 C371 1.363 . S
C370 C360 1.465 . S
C370 U366 2.847 . S
C370 O384 1.249 . S
C370 O385 1.202 . S
C371 C369 1.363 . S
C371 C373 1.408 . S
C371 C376 1.342 . S
C372 C373 1.310 . S
C372 C375 1.461 . S
C372 H392 0.932 . S
C373 C371 1.408 . S
C373 C372 1.310 . S
C373 H393 0.930 . S
C374 C375 1.474 . S
C374 C376 1.285 . S
C374 H394 0.929 . S
C375 C372 1.461 . S
C375 C374 1.474 . S
C376 C371 1.342 . S
C376 C374 1.285 . S
C376 H395 0.930 . S
C377 C380 1.424 . S
C377 C382 1.245 . S
C377 C383 1.428 . S
C378 C381 1.260 . S
C378 C382 1.477 . S
C378 H396 0.932 . S
C379 C380 1.384 . S
C379 C381 1.479 . S
C379 H397 0.929 . S
C380 C377 1.424 . S
C380 C379 1.384 . S
C380 H398 0.928 . S
C381 C378 1.260 . S
C381 C379 1.479 . S
C382 C377 1.245 . S
C382 C378 1.477 . S
C382 H399 0.932 . S
C383 U366 2.882 . S
C383 C377 1.428 . S
C383 O386 1.301 . S
C383 O387 1.282 . S
O384 U366 2.441 . S
O384 C370 1.249 . S
O385 U366 2.420 . S
O385 C370 1.202 . S
O386 U366 2.455 . S
O386 C383 1.301 . S
O387 U366 2.449 . S
O387 C383 1.282 . S
H388 C361 0.931 . S
H389 C363 0.929 . S
H390 C364 0.930 . S
H391 C365 0.931 . S
H392 C372 0.932 . S
H393 C373 0.930 . S
H394 C374 0.929 . S
H395 C376 0.930 . S
H396 C378 0.932 . S
H397 C379 0.929 . S
H398 C380 0.928 . S
H399 C382 0.932 . S
C400 C401 1.264 . S
C400 C405 1.479 . S
C400 C410 1.465 . S
C401 C400 1.264 . S
C401 C403 1.339 . S
C401 H428 0.931 . S
C402 C403 1.395 . S
C402 C404 1.320 . S
C403 C401 1.339 . S
C403 C402 1.395 . S
C403 H429 0.929 . S
C404 C402 1.320 . S
C404 C405 1.405 . S
C404 H430 0.930 . S
C405 C400 1.479 . S
C405 C404 1.405 . S
C405 H431 0.931 . S
U406 O407 2.454 . S
U406 O408 2.458 . S
U406 C409 2.984 . S
U406 C410 2.847 . S
U406 C423 2.882 . S
U406 O424 2.441 . S
U406 O425 2.420 . S
U406 O426 2.455 . S
U406 O427 2.449 . S
O407 U406 2.454 . S
O407 C409 1.353 . S
O408 U406 2.458 . S
O408 C409 1.286 . S
C409 U406 2.984 . S
C409 O407 1.353 . S
C409 O408 1.286 . S
C409 C411 1.363 . S
C410 C400 1.465 . S
C410 U406 2.847 . S
C410 O424 1.249 . S
C410 O425 1.202 . S
C411 C409 1.363 . S
C411 C413 1.408 . S
C411 C416 1.342 . S
C412 C413 1.310 . S
C412 C415 1.461 . S
C412 H432 0.932 . S
C413 C411 1.408 . S
C413 C412 1.310 . S
C413 H433 0.930 . S
C414 C415 1.474 . S
C414 C416 1.285 . S
C414 H434 0.929 . S
C415 C412 1.461 . S
C415 C414 1.474 . S
C416 C411 1.342 . S
C416 C414 1.285 . S
C416 H435 0.930 . S
C417 C420 1.424 . S
C417 C422 1.245 . S
C417 C423 1.428 . S
C418 C421 1.260 . S
C418 C422 1.477 . S
C418 H436 0.932 . S
C419 C420 1.384 . S
C419 C421 1.479 . S
C419 H437 0.929 . S
C420 C417 1.424 . S
C420 C419 1.384 . S
C420 H438 0.928 . S
C421 C418 1.260 . S
C421 C419 1.479 . S
C422 C417 1.245 . S
C422 C418 1.477 . S
C422 H439 0.932 . S
C423 U406 2.882 . S
C423 C417 1.428 . S
C423 O426 1.301 . S
C423 O427 1.282 . S
O424 U406 2.441 . S
O424 C410 1.249 . S
O425 U406 2.420 . S
O425 C410 1.202 . S
O426 U406 2.455 . S
O426 C423 1.301 . S
O427 U406 2.449 . S
O427 C423 1.282 . S
H428 C401 0.931 . S
H429 C403 0.929 . S
H430 C404 0.930 . S
H431 C405 0.931 . S
H432 C412 0.932 . S
H433 C413 0.930 . S
H434 C414 0.929 . S
H435 C416 0.930 . S
H436 C418 0.932 . S
H437 C419 0.929 . S
H438 C420 0.928 . S
H439 C422 0.932 . S
C440 C441 1.264 . S
C440 C445 1.479 . S
C440 C450 1.465 . S
C441 C440 1.264 . S
C441 C443 1.339 . S
C441 H468 0.931 . S
C442 C443 1.395 . S
C442 C444 1.320 . S
C443 C441 1.339 . S
C443 C442 1.395 . S
C443 H469 0.929 . S
C444 C442 1.320 . S
C444 C445 1.405 . S
C444 H470 0.930 . S
C445 C440 1.479 . S
C445 C444 1.405 . S
C445 H471 0.931 . S
U446 O447 2.454 . S
U446 O448 2.458 . S
U446 C449 2.984 . S
U446 C450 2.847 . S
U446 C463 2.882 . S
U446 O464 2.441 . S
U446 O465 2.420 . S
U446 O466 2.455 . S
U446 O467 2.449 . S
O447 U446 2.454 . S
O447 C449 1.353 . S
O448 U446 2.458 . S
O448 C449 1.286 . S
C449 U446 2.984 . S
C449 O447 1.353 . S
C449 O448 1.286 . S
C449 C451 1.363 . S
C450 C440 1.465 . S
C450 U446 2.847 . S
C450 O464 1.249 . S
C450 O465 1.202 . S
C451 C449 1.363 . S
C451 C453 1.408 . S
C451 C456 1.342 . S
C452 C453 1.310 . S
C452 C455 1.461 . S
C452 H472 0.932 . S
C453 C451 1.408 . S
C453 C452 1.310 . S
C453 H473 0.930 . S
C454 C455 1.474 . S
C454 C456 1.285 . S
C454 H474 0.929 . S
C455 C452 1.461 . S
C455 C454 1.474 . S
C456 C451 1.342 . S
C456 C454 1.285 . S
C456 H475 0.930 . S
C457 C460 1.424 . S
C457 C462 1.245 . S
C457 C463 1.428 . S
C458 C461 1.260 . S
C458 C462 1.477 . S
C458 H476 0.932 . S
C459 C460 1.384 . S
C459 C461 1.479 . S
C459 H477 0.929 . S
C460 C457 1.424 . S
C460 C459 1.384 . S
C460 H478 0.928 . S
C461 C458 1.260 . S
C461 C459 1.479 . S
C462 C457 1.245 . S
C462 C458 1.477 . S
C462 H479 0.932 . S
C463 U446 2.882 . S
C463 C457 1.428 . S
C463 O466 1.301 . S
C463 O467 1.282 . S
O464 U446 2.441 . S
O464 C450 1.249 . S
O465 U446 2.420 . S
O465 C450 1.202 . S
O466 U446 2.455 . S
O466 C463 1.301 . S
O467 U446 2.449 . S
O467 C463 1.282 . S
H468 C441 0.931 . S
H469 C443 0.929 . S
H470 C444 0.930 . S
H471 C445 0.931 . S
H472 C452 0.932 . S
H473 C453 0.930 . S
H474 C454 0.929 . S
H475 C456 0.930 . S
H476 C458 0.932 . S
H477 C459 0.929 . S
H478 C460 0.928 . S
H479 C462 0.932 . S
C480 C481 1.264 . S
C480 C485 1.479 . S
C480 C490 1.465 . S
C481 C480 1.264 . S
C481 C483 1.339 . S
C481 H508 0.931 . S
C482 C483 1.395 . S
C482 C484 1.320 . S
C483 C481 1.339 . S
C483 C482 1.395 . S
C483 H509 0.929 . S
C484 C482 1.320 . S
C484 C485 1.405 . S
C484 H510 0.930 . S
C485 C480 1.479 . S
C485 C484 1.405 . S
C485 H511 0.931 . S
U486 O487 2.454 . S
U486 O488 2.458 . S
U486 C489 2.984 . S
U486 C490 2.847 . S
U486 C503 2.882 . S
U486 O504 2.441 . S
U486 O505 2.420 . S
U486 O506 2.455 . S
U486 O507 2.449 . S
O487 U486 2.454 . S
O487 C489 1.353 . S
O488 U486 2.458 . S
O488 C489 1.286 . S
C489 U486 2.984 . S
C489 O487 1.353 . S
C489 O488 1.286 . S
C489 C491 1.363 . S
C490 C480 1.465 . S
C490 U486 2.847 . S
C490 O504 1.249 . S
C490 O505 1.202 . S
C491 C489 1.363 . S
C491 C493 1.408 . S
C491 C496 1.342 . S
C492 C493 1.310 1_565 S
C492 C495 1.461 . S
C492 H512 0.932 . S
C493 C491 1.408 . S
C493 C492 1.310 1_545 S
C493 H513 0.930 . S
C494 C495 1.474 1_545 S
C494 C496 1.285 . S
C494 H514 0.929 1_545 S
C495 C492 1.461 . S
C495 C494 1.474 1_565 S
C496 C491 1.342 . S
C496 C494 1.285 . S
C496 H515 0.930 . S
C497 C500 1.424 . S
C497 C502 1.245 . S
C497 C503 1.428 . S
C498 C501 1.260 . S
C498 C502 1.477 . S
C498 H516 0.932 . S
C499 C500 1.384 . S
C499 C501 1.479 . S
C499 H517 0.929 . S
C500 C497 1.424 . S
C500 C499 1.384 . S
C500 H518 0.928 . S
C501 C498 1.260 . S
C501 C499 1.479 . S
C502 C497 1.245 . S
C502 C498 1.477 . S
C502 H519 0.932 . S
C503 U486 2.882 . S
C503 C497 1.428 . S
C503 O506 1.301 . S
C503 O507 1.282 . S
O504 U486 2.441 . S
O504 C490 1.249 . S
O505 U486 2.420 . S
O505 C490 1.202 . S
O506 U486 2.455 . S
O506 C503 1.301 . S
O507 U486 2.449 . S
O507 C503 1.282 . S
H508 C481 0.931 . S
H509 C483 0.929 . S
H510 C484 0.930 . S
H511 C485 0.931 . S
H512 C492 0.932 . S
H513 C493 0.930 . S
H514 C494 0.929 1_565 S
H515 C496 0.930 . S
H516 C498 0.932 . S
H517 C499 0.929 . S
H518 C500 0.928 . S
H519 C502 0.932 . S
C520 C521 1.264 . S
C520 C525 1.479 . S
C520 C530 1.465 1_655 S
C521 C520 1.264 . S
C521 C523 1.339 . S
C521 H548 0.931 . S
C522 C523 1.395 . S
C522 C524 1.320 . S
C523 C521 1.339 . S
C523 C522 1.395 . S
C523 H549 0.929 . S
C524 C522 1.320 . S
C524 C525 1.405 . S
C524 H550 0.930 . S
C525 C520 1.479 . S
C525 C524 1.405 . S
C525 H551 0.931 . S
U526 O527 2.454 . S
U526 O528 2.458 . S
U526 C529 2.984 . S
U526 C530 2.847 . S
U526 C543 2.882 . S
U526 O544 2.441 . S
U526 O545 2.420 . S
U526 O546 2.455 . S
U526 O547 2.449 . S
O527 U526 2.454 . S
O527 C529 1.353 . S
O528 U526 2.458 . S
O528 C529 1.286 . S
C529 U526 2.984 . S
C529 O527 1.353 . S
C529 O528 1.286 . S
C529 C531 1.363 . S
C530 C520 1.465 1_455 S
C530 U526 2.847 . S
C530 O544 1.249 . S
C530 O545 1.202 . S
C531 C529 1.363 . S
C531 C533 1.408 . S
C531 C536 1.342 . S
C532 C533 1.320 . S
C532 C535 1.456 1_565 S
C532 H552 0.927 1_565 S
C533 C531 1.408 . S
C533 C532 1.320 . S
C533 H553 0.930 . S
C534 C535 1.474 1_565 S
C534 C536 1.285 . S
C534 H554 0.929 1_565 S
C535 C532 1.456 1_545 S
C535 C534 1.474 1_545 S
C536 C531 1.342 . S
C536 C534 1.285 . S
C536 H555 0.930 . S
C537 C540 1.424 . S
C537 C542 1.245 . S
C537 C543 1.428 . S
C538 C541 1.260 . S
C538 C542 1.477 . S
C538 H556 0.932 . S
C539 C540 1.384 . S
C539 C541 1.479 . S
C539 H557 0.929 . S
C540 C537 1.424 . S
C540 C539 1.384 . S
C540 H558 0.928 . S
C541 C538 1.260 . S
C541 C539 1.479 . S
C542 C537 1.245 . S
C542 C538 1.477 . S
C542 H559 0.932 . S
C543 U526 2.882 . S
C543 C537 1.428 . S
C543 O546 1.301 . S
C543 O547 1.282 . S
O544 U526 2.441 . S
O544 C530 1.249 . S
O545 U526 2.420 . S
O545 C530 1.202 . S
O546 U526 2.455 . S
O546 C543 1.301 . S
O547 U526 2.449 . S
O547 C543 1.282 . S
H548 C521 0.931 . S
H549 C523 0.929 . S
H550 C524 0.930 . S
H551 C525 0.931 . S
H552 C532 0.927 1_545 S
H553 C533 0.930 . S
H554 C534 0.929 1_545 S
H555 C536 0.930 . S
H556 C538 0.932 . S
H557 C539 0.929 . S
H558 C540 0.928 . S
H559 C542 0.932 . S
C560 C561 1.264 . S
C560 C565 1.479 . S
C560 C570 1.465 . S
C561 C560 1.264 . S
C561 C563 1.339 . S
C561 H588 0.931 . S
C562 C563 1.395 . S
C562 C564 1.320 . S
C563 C561 1.339 . S
C563 C562 1.395 . S
C563 H589 0.929 . S
C564 C562 1.320 . S
C564 C565 1.405 . S
C564 H590 0.930 . S
C565 C560 1.479 . S
C565 C564 1.405 . S
C565 H591 0.931 . S
U566 O567 2.454 . S
U566 O568 2.458 . S
U566 C569 2.984 . S
U566 C570 2.847 . S
U566 C583 2.882 . S
U566 O584 2.441 . S
U566 O585 2.420 . S
U566 O586 2.455 . S
U566 O587 2.449 . S
O567 U566 2.454 . S
O567 C569 1.353 . S
O568 U566 2.458 . S
O568 C569 1.286 . S
C569 U566 2.984 . S
C569 O567 1.353 . S
C569 O568 1.286 . S
C569 C571 1.363 . S
C570 C560 1.465 . S
C570 U566 2.847 . S
C570 O584 1.249 . S
C570 O585 1.202 . S
C571 C569 1.363 . S
C571 C573 1.408 . S
C571 C576 1.342 . S
C572 C573 1.310 1_545 S
C572 C575 1.461 . S
C572 H592 0.932 . S
C573 C571 1.408 . S
C573 C572 1.310 1_565 S
C573 H593 0.930 . S
C574 C575 1.446 1_565 S
C574 C576 1.330 . S
C574 H594 0.914 1_565 S
C575 C572 1.461 . S
C575 C574 1.446 1_545 S
C576 C571 1.342 . S
C576 C574 1.330 . S
C576 H595 0.930 . S
C577 C580 1.424 . S
C577 C582 1.245 . S
C577 C583 1.428 . S
C578 C581 1.260 . S
C578 C582 1.477 . S
C578 H596 0.932 . S
C579 C580 1.384 . S
C579 C581 1.479 . S
C579 H597 0.929 . S
C580 C577 1.424 . S
C580 C579 1.384 . S
C580 H598 0.928 . S
C581 C578 1.260 . S
C581 C579 1.479 . S
C582 C577 1.245 . S
C582 C578 1.477 . S
C582 H599 0.932 . S
C583 U566 2.882 . S
C583 C577 1.428 . S
C583 O586 1.301 . S
C583 O587 1.282 . S
O584 U566 2.441 . S
O584 C570 1.249 . S
O585 U566 2.420 . S
O585 C570 1.202 . S
O586 U566 2.455 . S
O586 C583 1.301 . S
O587 U566 2.449 . S
O587 C583 1.282 . S
H588 C561 0.931 . S
H589 C563 0.929 . S
H590 C564 0.930 . S
H591 C565 0.931 . S
H592 C572 0.932 . S
H593 C573 0.930 . S
H594 C574 0.914 1_545 S
H595 C576 0.930 . S
H596 C578 0.932 . S
H597 C579 0.929 . S
H598 C580 0.928 . S
H599 C582 0.932 . S
C600 C601 1.264 . S
C600 C605 1.479 . S
C600 C610 1.465 1_655 S
C601 C600 1.264 . S
C601 C603 1.339 . S
C601 H628 0.931 . S
C602 C603 1.395 . S
C602 C604 1.320 . S
C603 C601 1.339 . S
C603 C602 1.395 . S
C603 H629 0.929 . S
C604 C602 1.320 . S
C604 C605 1.405 . S
C604 H630 0.930 . S
C605 C600 1.479 . S
C605 C604 1.405 . S
C605 H631 0.931 . S
U606 O607 2.454 . S
U606 O608 2.458 . S
U606 C609 2.984 . S
U606 C610 2.847 . S
U606 C623 2.882 . S
U606 O624 2.441 . S
U606 O625 2.420 . S
U606 O626 2.455 . S
U606 O627 2.449 . S
O607 U606 2.454 . S
O607 C609 1.353 . S
O608 U606 2.458 . S
O608 C609 1.286 . S
C609 U606 2.984 . S
C609 O607 1.353 . S
C609 O608 1.286 . S
C609 C611 1.363 . S
C610 C600 1.465 1_455 S
C610 U606 2.847 . S
C610 O624 1.249 . S
C610 O625 1.202 . S
C611 C609 1.363 . S
C611 C613 1.408 . S
C611 C616 1.342 . S
C612 C613 1.313 . S
C612 C615 1.459 1_545 S
C612 H632 0.930 1_545 S
C613 C611 1.408 . S
C613 C612 1.313 . S
C613 H633 0.930 . S
C614 C615 1.474 1_545 S
C614 C616 1.285 . S
C614 H634 0.929 1_545 S
C615 C612 1.459 1_565 S
C615 C614 1.474 1_565 S
C616 C611 1.342 . S
C616 C614 1.285 . S
C616 H635 0.930 . S
C617 C620 1.424 . S
C617 C622 1.245 . S
C617 C623 1.428 . S
C618 C621 1.260 . S
C618 C622 1.477 . S
C618 H636 0.932 . S
C619 C620 1.384 . S
C619 C621 1.479 . S
C619 H637 0.929 . S
C620 C617 1.424 . S
C620 C619 1.384 . S
C620 H638 0.928 . S
C621 C618 1.260 . S
C621 C619 1.479 . S
C622 C617 1.245 . S
C622 C618 1.477 . S
C622 H639 0.932 . S
C623 U606 2.882 . S
C623 C617 1.428 . S
C623 O626 1.301 . S
C623 O627 1.282 . S
O624 U606 2.441 . S
O624 C610 1.249 . S
O625 U606 2.420 . S
O625 C610 1.202 . S
O626 U606 2.455 . S
O626 C623 1.301 . S
O627 U606 2.449 . S
O627 C623 1.282 . S
H628 C601 0.931 . S
H629 C603 0.929 . S
H630 C604 0.930 . S
H631 C605 0.931 . S
H632 C612 0.930 1_565 S
H633 C613 0.930 . S
H634 C614 0.929 1_565 S
H635 C616 0.930 . S
H636 C618 0.932 . S
H637 C619 0.929 . S
H638 C620 0.928 . S
H639 C622 0.932 . S
C381 C21 4.345 . S
C42 C581 3.942 . S
C341 C82 3.857 . S
C141 C602 3.900 . S
C181 C402 3.942 . S
C522 C221 3.857 . S
C461 C242 3.900 . S
C501 C301 4.345 . S
C162 C122 4.125 . S
C482 C322 4.166 . S
C261 C61 3.705 . S
C541 C362 3.943 . S
C2 C202 4.167 . S
C621 C421 3.705 . S
C282 C101 3.944 . S
C442 C562 4.125 . S
C15 C175 4.864 1_554 S
C55 C215 4.815 . S
C95 C255 4.775 . S
C135 C295 4.847 . S
C335 C415 4.815 . S
C455 C375 4.847 . S
C575 C495 4.864 1_545 S
C615 C535 4.775 1_566 S
