# Generated by pormake.
# Topology wjh, (4)-cn, num edge types: 1
# Building blocks:
#     Node 0, Type 0, BuildingBlock: CEKHIL_clean_sbu_0, # of connection points: 4
#     Node 1, Type 0, BuildingBlock: CEKHIL_clean_sbu_0, # of connection points: 4
#     Node 2, Type 0, BuildingBlock: CEKHIL_clean_sbu_0, # of connection points: 4
#     Node 3, Type 0, BuildingBlock: CEKHIL_clean_sbu_0, # of connection points: 4
#     Node 4, Type 0, BuildingBlock: CEKHIL_clean_sbu_0, # of connection points: 4
#     Node 5, Type 0, BuildingBlock: CEKHIL_clean_sbu_0, # of connection points: 4
#     Node 6, Type 0, BuildingBlock: CEKHIL_clean_sbu_0, # of connection points: 4
#     Node 7, Type 0, BuildingBlock: CEKHIL_clean_sbu_0, # of connection points: 4
#     Node 8, Type 0, BuildingBlock: CEKHIL_clean_sbu_0, # of connection points: 4
#     Node 9, Type 0, BuildingBlock: CEKHIL_clean_sbu_0, # of connection points: 4
#     Node 10, Type 0, BuildingBlock: CEKHIL_clean_sbu_0, # of connection points: 4
#     Node 11, Type 0, BuildingBlock: CEKHIL_clean_sbu_0, # of connection points: 4
#     Edge 12, Type (0, 0), BuildingBlock: KIFKEQ_clean_linker_1, # of connection points: 2
#     Edge 13, Type (0, 0), BuildingBlock: KIFKEQ_clean_linker_1, # of connection points: 2
#     Edge 14, Type (0, 0), BuildingBlock: KIFKEQ_clean_linker_1, # of connection points: 2
#     Edge 15, Type (0, 0), BuildingBlock: KIFKEQ_clean_linker_1, # of connection points: 2
#     Edge 16, Type (0, 0), BuildingBlock: KIFKEQ_clean_linker_1, # of connection points: 2
#     Edge 17, Type (0, 0), BuildingBlock: KIFKEQ_clean_linker_1, # of connection points: 2
#     Edge 18, Type (0, 0), BuildingBlock: KIFKEQ_clean_linker_1, # of connection points: 2
#     Edge 19, Type (0, 0), BuildingBlock: KIFKEQ_clean_linker_1, # of connection points: 2
#     Edge 20, Type (0, 0), BuildingBlock: KIFKEQ_clean_linker_1, # of connection points: 2
#     Edge 21, Type (0, 0), BuildingBlock: KIFKEQ_clean_linker_1, # of connection points: 2
#     Edge 22, Type (0, 0), BuildingBlock: KIFKEQ_clean_linker_1, # of connection points: 2
#     Edge 23, Type (0, 0), BuildingBlock: KIFKEQ_clean_linker_1, # of connection points: 2
#     Edge 24, Type (0, 0), BuildingBlock: KIFKEQ_clean_linker_1, # of connection points: 2
#     Edge 25, Type (0, 0), BuildingBlock: KIFKEQ_clean_linker_1, # of connection points: 2
#     Edge 26, Type (0, 0), BuildingBlock: KIFKEQ_clean_linker_1, # of connection points: 2
#     Edge 27, Type (0, 0), BuildingBlock: KIFKEQ_clean_linker_1, # of connection points: 2
#     Edge 28, Type (0, 0), BuildingBlock: KIFKEQ_clean_linker_1, # of connection points: 2
#     Edge 29, Type (0, 0), BuildingBlock: KIFKEQ_clean_linker_1, # of connection points: 2
#     Edge 30, Type (0, 0), BuildingBlock: KIFKEQ_clean_linker_1, # of connection points: 2
#     Edge 31, Type (0, 0), BuildingBlock: KIFKEQ_clean_linker_1, # of connection points: 2
#     Edge 32, Type (0, 0), BuildingBlock: KIFKEQ_clean_linker_1, # of connection points: 2
#     Edge 33, Type (0, 0), BuildingBlock: KIFKEQ_clean_linker_1, # of connection points: 2
#     Edge 34, Type (0, 0), BuildingBlock: KIFKEQ_clean_linker_1, # of connection points: 2
#     Edge 35, Type (0, 0), BuildingBlock: KIFKEQ_clean_linker_1, # of connection points: 2
# Relax obj value: 0.078
# Max RMSD: 0.099
# Mean RMSD: 0.099
data_MOF--net-wjh--node1-CEKHIL_clean_sbu_0--edge1-KIFKEQ_clean_linker_1
_symmetry_space_group_name_H-M    P1
_symmetry_Int_Tables_number       1
_symmetry_cell_setting            triclinic
loop_
_symmetry_equiv_pos_as_xyz
'x, y, z'
_cell_length_a     61.325973
_cell_length_b     61.299279
_cell_length_c     26.994686
_cell_angle_alpha  90.030626
_cell_angle_beta   89.995745
_cell_angle_gamma 119.98032
loop_
_atom_site_label
_atom_site_type_symbol
_atom_site_fract_x
_atom_site_fract_y
_atom_site_fract_z
_atom_type_partial_charge
Co0 Co 0.53506 0.15815 0.02841 0.0
O1 O 0.54803 0.19395 0.02795 0.0
O2 O 0.51048 0.16603 0.05629 0.0
C3 C 0.54756 0.15558 0.95101 0.0
O4 O 0.51522 0.11951 0.03385 0.0
Co5 Co 0.57274 0.13796 0.01714 0.0
O6 O 0.54156 0.1047 0.01752 0.0
C7 C 0.57111 0.16248 0.10949 0.0
C8 C 0.52719 0.18958 0.04884 0.0
C9 C 0.51977 0.10123 0.02802 0.0
O10 O 0.55033 0.16112 0.09592 0.0
O11 O 0.58424 0.15683 0.081 0.0
O12 O 0.52669 0.15596 0.95735 0.0
O13 O 0.56065 0.15901 0.99031 0.0
Co14 Co 0.38664 0.52929 0.19713 0.0
O15 O 0.36615 0.54467 0.20503 0.0
O16 O 0.35394 0.50528 0.22505 0.0
C17 C 0.40025 0.54484 0.12063 0.0
O18 O 0.40273 0.50685 0.19272 0.0
Co19 Co 0.44472 0.56262 0.18015 0.0
O20 O 0.44126 0.53007 0.15906 0.0
C21 C 0.42258 0.55963 0.27911 0.0
C22 C 0.34876 0.52344 0.22299 0.0
C23 C 0.42292 0.50901 0.1731 0.0
O24 O 0.40113 0.54129 0.26511 0.0
O25 O 0.44132 0.57161 0.24986 0.0
O26 O 0.37865 0.52427 0.12591 0.0
O27 O 0.41164 0.55558 0.16094 0.0
Co28 Co 0.86536 0.38185 0.35863 0.0
O29 O 0.82925 0.36266 0.36579 0.0
O30 O 0.85519 0.34915 0.3877 0.0
C31 C 0.86513 0.3956 0.28128 0.0
O32 O 0.90357 0.39593 0.35607 0.0
Co33 Co 0.89375 0.43999 0.34045 0.0
O34 O 0.92231 0.43491 0.32337 0.0
C35 C 0.87247 0.41908 0.43899 0.0
C36 C 0.83219 0.34487 0.38489 0.0
C37 C 0.92304 0.41559 0.33842 0.0
O38 O 0.86816 0.39706 0.42595 0.0
O39 O 0.88062 0.4378 0.40922 0.0
O40 O 0.86235 0.37329 0.2877 0.0
O41 O 0.86624 0.40763 0.32101 0.0
Co42 Co 0.49378 0.86223 0.51949 0.0
O43 O 0.4776 0.82616 0.5264 0.0
O44 O 0.51674 0.85274 0.54909 0.0
C45 C 0.48 0.86174 0.44182 0.0
O46 O 0.51717 0.90058 0.51732 0.0
Co47 Co 0.46287 0.88937 0.50056 0.0
O48 O 0.49626 0.91863 0.48462 0.0
C49 C 0.4626 0.86819 0.59913 0.0
C50 C 0.49842 0.82956 0.54589 0.0
C51 C 0.51649 0.91985 0.49993 0.0
O52 O 0.48082 0.86458 0.58655 0.0
O53 O 0.45171 0.87584 0.569 0.0
O54 O 0.49982 0.85952 0.44868 0.0
O55 O 0.46871 0.86247 0.48131 0.0
Co56 Co 0.63928 0.4896 0.69462 0.0
O57 O 0.65982 0.47394 0.697 0.0
O58 O 0.67207 0.51255 0.72304 0.0
C59 C 0.62475 0.47703 0.61707 0.0
O60 O 0.62366 0.51245 0.69703 0.0
Co61 Co 0.58101 0.45787 0.68004 0.0
O62 O 0.58436 0.49113 0.66596 0.0
C63 C 0.60405 0.45677 0.77542 0.0
C64 C 0.67726 0.49456 0.7171 0.0
C65 C 0.60332 0.51145 0.68111 0.0
O66 O 0.6254 0.47541 0.76192 0.0
O67 O 0.58484 0.44604 0.74688 0.0
O68 O 0.64677 0.49692 0.6237 0.0
O69 O 0.61356 0.46486 0.65651 0.0
Co70 Co 0.16122 0.63369 0.86265 0.0
O71 O 0.19719 0.65534 0.8639 0.0
O72 O 0.17001 0.66648 0.89029 0.0
C73 C 0.15895 0.61877 0.78518 0.0
O74 O 0.12257 0.61607 0.86665 0.0
Co75 Co 0.13932 0.57552 0.85056 0.0
O76 O 0.10665 0.57467 0.85076 0.0
C77 C 0.16371 0.60095 0.94357 0.0
C78 C 0.19338 0.67232 0.88419 0.0
C79 C 0.10386 0.59347 0.86086 0.0
O80 O 0.16295 0.62074 0.93027 0.0
O81 O 0.15784 0.58224 0.91472 0.0
O82 O 0.16011 0.64039 0.79149 0.0
O83 O 0.16147 0.60859 0.82466 0.0
Co84 Co 0.86369 0.48932 0.87883 0.0
O85 O 0.82771 0.47326 0.87137 0.0
O86 O 0.85427 0.51273 0.85081 0.0
C87 C 0.86278 0.47438 0.95565 0.0
O88 O 0.90214 0.51249 0.88253 0.0
Co89 Co 0.88973 0.45707 0.89511 0.0
O90 O 0.91869 0.49 0.9146 0.0
C91 C 0.86914 0.45876 0.79714 0.0
C92 C 0.83108 0.4943 0.85319 0.0
C93 C 0.92069 0.51082 0.90095 0.0
O94 O 0.86629 0.47731 0.81087 0.0
O95 O 0.87606 0.44696 0.82651 0.0
O96 O 0.86071 0.49437 0.9501 0.0
O97 O 0.86346 0.4636 0.91539 0.0
Co98 Co 0.38498 0.86108 0.03949 0.0
O99 O 0.3655 0.82534 0.0279 0.0
O100 O 0.35218 0.85213 0.01191 0.0
C101 C 0.39859 0.85832 0.11564 0.0
O102 O 0.39997 0.89937 0.04715 0.0
Co103 Co 0.44316 0.88707 0.05705 0.0
O104 O 0.43893 0.9155 0.07936 0.0
C105 C 0.42152 0.86863 0.95764 0.0
C106 C 0.34784 0.82907 0.01097 0.0
C107 C 0.42009 0.91764 0.06654 0.0
O108 O 0.40004 0.86551 0.97146 0.0
O109 O 0.44003 0.87492 0.98727 0.0
O110 O 0.37649 0.85617 0.11053 0.0
O111 O 0.41035 0.86011 0.07516 0.0
Co112 Co 0.53601 0.38139 0.21314 0.0
O113 O 0.54854 0.35821 0.21382 0.0
O114 O 0.51126 0.34913 0.18475 0.0
C115 C 0.54816 0.39623 0.29079 0.0
O116 O 0.51669 0.4007 0.20744 0.0
Co117 Co 0.57443 0.43905 0.22499 0.0
O118 O 0.54351 0.44161 0.22497 0.0
C119 C 0.57244 0.41305 0.13229 0.0
C120 C 0.52771 0.34197 0.19252 0.0
C121 C 0.52161 0.42362 0.21389 0.0
O122 O 0.5516 0.39371 0.14584 0.0
O123 O 0.58574 0.43172 0.16089 0.0
O124 O 0.52723 0.37512 0.28403 0.0
O125 O 0.56157 0.4058 0.25179 0.0
Co126 Co 0.16107 0.52678 0.3818 0.0
O127 O 0.19726 0.54276 0.37873 0.0
O128 O 0.17109 0.50393 0.35359 0.0
C129 C 0.15937 0.5397 0.45924 0.0
O130 O 0.12268 0.50358 0.38019 0.0
Co131 Co 0.13388 0.55792 0.39683 0.0
O132 O 0.10435 0.52452 0.41149 0.0
C133 C 0.15754 0.5589 0.30082 0.0
C134 C 0.19421 0.52209 0.35907 0.0
C135 C 0.10324 0.5043 0.39637 0.0
O136 O 0.16078 0.54056 0.31432 0.0
O137 O 0.14903 0.56952 0.32961 0.0
O138 O 0.16171 0.5199 0.45288 0.0
O139 O 0.15996 0.55155 0.4196 0.0
Co140 Co 0.64114 0.15818 0.54718 0.0
O141 O 0.66123 0.19442 0.54445 0.0
O142 O 0.67389 0.16836 0.51844 0.0
C143 C 0.62667 0.15605 0.62485 0.0
O144 O 0.6261 0.1198 0.54496 0.0
Co145 Co 0.58287 0.1308 0.56229 0.0
O146 O 0.5868 0.1012 0.57605 0.0
C147 C 0.60539 0.15494 0.46665 0.0
C148 C 0.67877 0.19146 0.52413 0.0
C149 C 0.60596 0.10024 0.5608 0.0
O150 O 0.62693 0.15807 0.47998 0.0
O151 O 0.58625 0.14626 0.49542 0.0
O152 O 0.64885 0.1586 0.61808 0.0
O153 O 0.61529 0.15679 0.58548 0.0
Co154 Co 0.49218 0.63934 0.7174 0.0
O155 O 0.47702 0.66014 0.71116 0.0
O156 O 0.51582 0.67165 0.68778 0.0
C157 C 0.47814 0.6264 0.79492 0.0
O158 O 0.51442 0.62308 0.71911 0.0
Co159 Co 0.45939 0.58147 0.73663 0.0
O160 O 0.49232 0.58429 0.75216 0.0
C161 C 0.46005 0.6028 0.63784 0.0
C162 C 0.49794 0.67716 0.69141 0.0
C163 C 0.51291 0.60278 0.73663 0.0
O164 O 0.47872 0.62434 0.65042 0.0
O165 O 0.44865 0.58436 0.66802 0.0
O166 O 0.49875 0.64783 0.78826 0.0
O167 O 0.46657 0.6147 0.75543 0.0
H168 H 0.54882 0.17468 0.1844 0.0
H169 H 0.61231 0.16448 0.15246 0.0
H170 H 0.55957 0.17901 0.27221 0.0
H171 H 0.62235 0.16786 0.23967 0.0
H172 H 0.6421 0.18339 0.39924 0.0
H173 H 0.63626 0.19224 0.31366 0.0
H174 H 0.55553 0.14885 0.33303 0.0
H175 H 0.56131 0.14078 0.41844 0.0
C176 C 0.56518 0.17362 0.19595 0.0
C177 C 0.57939 0.16874 0.1615 0.0
C178 C 0.57128 0.176 0.24625 0.0
C179 C 0.5916 0.17341 0.26299 0.0
C180 C 0.60671 0.17017 0.22811 0.0
C181 C 0.60075 0.16797 0.17796 0.0
C182 C 0.62313 0.17591 0.38521 0.0
C183 C 0.60218 0.16118 0.41542 0.0
C184 C 0.61978 0.181 0.33626 0.0
C185 C 0.59543 0.17122 0.31651 0.0
C186 C 0.57454 0.15709 0.34725 0.0
C187 C 0.57787 0.15223 0.39618 0.0
H188 H 0.46677 0.59147 0.32516 0.0
H189 H 0.3867 0.54567 0.35161 0.0
H190 H 0.47339 0.6038 0.41148 0.0
H191 H 0.39341 0.55864 0.43842 0.0
H192 H 0.42327 0.55921 0.59653 0.0
H193 H 0.41231 0.55061 0.50972 0.0
H194 H 0.46629 0.62791 0.4738 0.0
H195 H 0.47789 0.6365 0.56095 0.0
C196 C 0.4505 0.58423 0.34927 0.0
C197 C 0.4262 0.56743 0.33155 0.0
C198 C 0.45431 0.59152 0.39875 0.0
C199 C 0.43392 0.58231 0.43167 0.0
C200 C 0.40952 0.56586 0.4139 0.0
C201 C 0.40569 0.55843 0.36427 0.0
C202 C 0.43272 0.5745 0.57032 0.0
C203 C 0.45178 0.59847 0.58564 0.0
C204 C 0.42623 0.56958 0.52052 0.0
C205 C 0.43855 0.58853 0.48493 0.0
C206 C 0.45677 0.61282 0.50041 0.0
C207 C 0.46336 0.61775 0.55031 0.0
H208 H 0.8735 0.42067 0.75515 0.0
H209 H 0.85537 0.47871 0.72039 0.0
H210 H 0.87035 0.40961 0.6684 0.0
H211 H 0.85155 0.46702 0.63306 0.0
H212 H 0.88683 0.46413 0.48367 0.0
H213 H 0.88164 0.47181 0.56972 0.0
H214 H 0.84258 0.39171 0.59813 0.0
H215 H 0.84834 0.38392 0.51176 0.0
C216 C 0.86853 0.43091 0.72911 0.0
C217 C 0.86506 0.45087 0.74469 0.0
C218 C 0.86646 0.42434 0.67931 0.0
C219 C 0.86078 0.43748 0.6439 0.0
C220 C 0.8563 0.45678 0.65956 0.0
C221 C 0.85843 0.46344 0.70954 0.0
C222 C 0.87696 0.44808 0.50806 0.0
C223 C 0.86822 0.4234 0.49096 0.0
C224 C 0.87378 0.45251 0.55735 0.0
C225 C 0.86166 0.43237 0.59065 0.0
C226 C 0.85226 0.40762 0.57335 0.0
C227 C 0.85557 0.40317 0.52396 0.0
H228 H 0.47696 0.84809 0.67451 0.0
H229 H 0.4286 0.87883 0.64142 0.0
H230 H 0.46421 0.84369 0.76122 0.0
H231 H 0.41652 0.87503 0.72776 0.0
H232 H 0.38678 0.85107 0.88232 0.0
H233 H 0.39427 0.84626 0.79519 0.0
H234 H 0.47276 0.87353 0.82742 0.0
H235 H 0.46534 0.87779 0.91395 0.0
C236 C 0.46361 0.85385 0.68563 0.0
C237 C 0.45404 0.86408 0.65114 0.0
C238 C 0.45633 0.85135 0.73524 0.0
C239 C 0.43946 0.85913 0.75127 0.0
C240 C 0.42927 0.86854 0.71647 0.0
C241 C 0.43643 0.87094 0.66696 0.0
C242 C 0.40559 0.85593 0.87078 0.0
C243 C 0.42549 0.86503 0.90502 0.0
C244 C 0.40987 0.85317 0.82095 0.0
C245 C 0.4341 0.85951 0.80454 0.0
C246 C 0.4538 0.86807 0.83901 0.0
C247 C 0.44954 0.87075 0.88864 0.0
H248 H 0.54953 0.37902 0.05686 0.0
H249 H 0.61367 0.4522 0.08931 0.0
H250 H 0.55961 0.386 0.96885 0.0
H251 H 0.62303 0.45945 0.00195 0.0
H252 H 0.64127 0.46475 0.8413 0.0
H253 H 0.63612 0.44959 0.92643 0.0
H254 H 0.55525 0.4126 0.90983 0.0
H255 H 0.56035 0.4269 0.82478 0.0
C256 C 0.5659 0.39644 0.04538 0.0
C257 C 0.58048 0.41524 0.08007 0.0
C258 C 0.57161 0.40049 -0.00505 0.0
C259 C 0.59188 0.42345 0.97833 0.0
C260 C 0.6074 0.44147 0.01337 0.0
C261 C 0.60184 0.43737 0.06363 0.0
C262 C 0.62241 0.45326 0.85586 0.0
C263 C 0.60123 0.44723 0.82652 0.0
C264 C 0.61946 0.44454 0.90455 0.0
C265 C 0.59527 0.42988 0.92494 0.0
C266 C 0.57414 0.4234 0.89508 0.0
C267 C 0.57708 0.43186 0.84638 0.0
H268 H 0.18469 0.54951 0.23194 0.0
H269 H 0.14384 0.5894 0.25345 0.0
H270 H 0.19292 0.56391 0.14611 0.0
H271 H 0.15132 0.60298 0.16793 0.0
H272 H 0.17689 0.6354 0.0189 0.0
H273 H 0.18141 0.62865 0.10646 0.0
H274 H 0.16784 0.5539 0.07293 0.0
H275 H 0.16424 0.56085 0.98595 0.0
C276 C 0.17748 0.56132 0.21839 0.0
C277 C 0.16343 0.56811 0.24935 0.0
C278 C 0.1822 0.56958 0.1693 0.0
C279 C 0.17277 0.58459 0.15019 0.0
C280 C 0.1593 0.59187 0.18163 0.0
C281 C 0.15477 0.58383 0.23065 0.0
C282 C 0.17529 0.6177 0.03018 0.0
C283 C 0.16973 0.59851 -0.00448 0.0
C284 C 0.17779 0.6138 0.08033 0.0
C285 C 0.17465 0.59061 0.09671 0.0
C286 C 0.17061 0.57207 0.06162 0.0
C287 C 0.16828 0.576 0.01162 0.0
H288 H 0.48724 0.30368 0.14279 0.0
H289 H 0.56076 0.32493 0.20149 0.0
H290 H 0.48451 0.26544 0.10705 0.0
H291 H 0.55802 0.28723 0.16597 0.0
H292 H 0.48651 0.18783 0.09685 0.0
H293 H 0.48401 0.22347 0.13248 0.0
H294 H 0.55841 0.27468 0.07683 0.0
H295 H 0.56093 0.23958 0.04141 0.0
C296 C 0.50265 0.30009 0.14854 0.0
C297 C 0.52429 0.31749 0.17471 0.0
C298 C 0.50105 0.2782 0.12817 0.0
C299 C 0.5212 0.27352 0.13314 0.0
C300 C 0.54236 0.2905 0.16076 0.0
C301 C 0.54386 0.3121 0.18135 0.0
C302 C 0.50218 0.20674 0.0918 0.0
C303 C 0.52399 0.2108 0.06657 0.0
C304 C 0.50071 0.22712 0.1121 0.0
C305 C 0.52116 0.25184 0.10802 0.0
C306 C 0.54252 0.25584 0.08134 0.0
C307 C 0.54388 0.23565 0.06081 0.0
H308 H 0.33462 0.55891 0.22003 0.0
H309 H 0.3087 0.48263 0.26818 0.0
H310 H 0.29689 0.55677 0.25345 0.0
H311 H 0.2706 0.48059 0.30254 0.0
H312 H 0.19448 0.48234 0.31185 0.0
H313 H 0.23106 0.48091 0.27902 0.0
H314 H 0.28003 0.55586 0.33535 0.0
H315 H 0.2438 0.55742 0.36731 0.0
C316 C 0.32084 0.54161 0.23778 0.0
C317 C 0.32481 0.52098 0.24165 0.0
C318 C 0.29921 0.54045 0.25727 0.0
C319 C 0.28082 0.51864 0.28133 0.0
C320 C 0.28437 0.49766 0.28414 0.0
C321 C 0.30621 0.49885 0.26461 0.0
C322 C 0.21309 0.49842 0.31743 0.0
C323 C 0.21617 0.52007 0.34189 0.0
C324 C 0.23405 0.49756 0.2988 0.0
C325 C 0.25848 0.51838 0.30402 0.0
C326 C 0.26148 0.53967 0.32976 0.0
C327 C 0.24066 0.54051 0.34837 0.0
H328 H 0.69283 0.2411 0.53164 0.0
H329 H 0.71838 0.19168 0.47571 0.0
H330 H 0.73035 0.2773 0.49859 0.0
H331 H 0.75601 0.22812 0.44177 0.0
H332 H 0.83186 0.30431 0.42947 0.0
H333 H 0.7956 0.2668 0.46433 0.0
H334 H 0.74687 0.29498 0.41785 0.0
H335 H 0.78287 0.33234 0.3839 0.0
C336 C 0.70649 0.23794 0.51235 0.0
C337 C 0.70251 0.21344 0.50619 0.0
C338 C 0.72798 0.25873 0.49306 0.0
C339 C 0.74613 0.25566 0.46698 0.0
C340 C 0.74249 0.2312 0.46186 0.0
C341 C 0.72088 0.21031 0.48116 0.0
C342 C 0.81337 0.30241 0.42659 0.0
C343 C 0.81031 0.32141 0.40409 0.0
C344 C 0.79258 0.28087 0.4464 0.0
C345 C 0.76831 0.27794 0.44435 0.0
C346 C 0.76531 0.29679 0.421 0.0
C347 C 0.78599 0.31819 0.40118 0.0
H348 H 0.46245 0.78 0.54384 0.0
H349 H 0.53884 0.83003 0.59161 0.0
H350 H 0.46421 0.7444 0.57875 0.0
H351 H 0.54051 0.79408 0.62735 0.0
H352 H 0.46322 0.69224 0.69725 0.0
H353 H 0.46513 0.72958 0.66208 0.0
H354 H 0.53968 0.75363 0.6059 0.0
H355 H 0.53789 0.71598 0.64195 0.0
C356 C 0.47969 0.78343 0.56174 0.0
C357 C 0.50045 0.80793 0.56516 0.0
C358 C 0.48064 0.76297 0.58205 0.0
C359 C 0.50239 0.76638 0.60643 0.0
C360 C 0.52349 0.79079 0.60869 0.0
C361 C 0.5225 0.81139 0.58839 0.0
C362 C 0.48013 0.70547 0.67762 0.0
C363 C 0.50035 0.70098 0.67217 0.0
C364 C 0.48114 0.72687 0.65715 0.0
C365 C 0.50241 0.74447 0.63053 0.0
C366 C 0.52304 0.74047 0.62628 0.0
C367 C 0.52199 0.71888 0.64678 0.0
H368 H 0.69178 0.45939 0.70871 0.0
H369 H 0.717 0.53424 0.76493 0.0
H370 H 0.72957 0.46103 0.74092 0.0
H371 H 0.755 0.53577 0.79801 0.0
H372 H 0.83117 0.53489 0.80871 0.0
H373 H 0.79491 0.53655 0.77457 0.0
H374 H 0.74577 0.45998 0.82239 0.0
H375 H 0.78164 0.45823 0.85561 0.0
C376 C 0.70544 0.47627 0.72786 0.0
C377 C 0.70124 0.49663 0.73444 0.0
C378 C 0.72709 0.47715 0.74665 0.0
C379 C 0.74524 0.49841 0.77264 0.0
C380 C 0.74147 0.51914 0.77802 0.0
C381 C 0.71965 0.51823 0.75923 0.0
C382 C 0.81259 0.51849 0.81205 0.0
C383 C 0.80936 0.49638 0.83462 0.0
C384 C 0.79181 0.51946 0.79265 0.0
C385 C 0.76743 0.49829 0.79519 0.0
C386 C 0.76429 0.47647 0.8188 0.0
C387 C 0.78491 0.47552 0.83818 0.0
H388 H 0.23801 0.67922 0.91647 0.0
H389 H 0.19733 0.71898 0.89464 0.0
H390 H 0.27388 0.71722 0.94733 0.0
H391 H 0.23429 0.75813 0.92227 0.0
H392 H 0.29923 0.82028 0.01518 0.0
H393 H 0.26109 0.78295 0.98521 0.0
H394 H 0.30717 0.75425 0.92444 0.0
H395 H 0.34444 0.79025 0.95778 0.0
C396 C 0.23695 0.69634 0.91749 0.0
C397 C 0.21494 0.69616 0.90265 0.0
C398 C 0.25773 0.71837 0.93483 0.0
C399 C 0.25757 0.74128 0.93647 0.0
C400 C 0.23529 0.74101 0.92202 0.0
C401 C 0.2141 0.7186 0.90582 0.0
C402 C 0.30098 0.80586 -0.0046 0.0
C403 C 0.32469 0.80792 0.98945 0.0
C404 C 0.27915 0.78447 0.97789 0.0
C405 C 0.28068 0.765 0.953 0.0
C406 C 0.30477 0.76805 0.94506 0.0
C407 C 0.32633 0.78892 0.96375 0.0
H408 H 0.64868 0.1672 0.71674 0.0
H409 H 0.57687 0.13659 0.64275 0.0
H410 H 0.62823 0.16527 0.79569 0.0
H411 H 0.55633 0.13351 0.7211 0.0
H412 H 0.53337 0.16159 0.85802 0.0
H413 H 0.55231 0.15995 0.77943 0.0
H414 H 0.60042 0.13864 0.85748 0.0
H415 H 0.58237 0.1414 0.9354 0.0
C416 C 0.6285 0.15959 0.71753 0.0
C417 C 0.61444 0.1522 0.67362 0.0
C418 C 0.6167 0.1584 0.7627 0.0
C419 C 0.59058 0.14944 0.76475 0.0
C420 C 0.57651 0.1411 0.72087 0.0
C421 C 0.58831 0.14264 0.67589 0.0
C422 C 0.5478 0.15632 0.8581 0.0
C423 C 0.55646 0.15177 0.90279 0.0
C424 C 0.55866 0.1553 0.81315 0.0
C425 C 0.57812 0.14936 0.8121 0.0
C426 C 0.58597 0.14386 0.85686 0.0
C427 C 0.5754 0.14522 0.90161 0.0
H428 H 0.5031 0.63478 0.88377 0.0
H429 H 0.43001 0.59215 0.81516 0.0
H430 H 0.48517 0.61329 0.96241 0.0
H431 H 0.4119 0.57177 0.89322 0.0
H432 H 0.38846 0.52258 0.02867 0.0
H433 H 0.40911 0.5417 0.95016 0.0
H434 H 0.45852 0.61127 0.02676 0.0
H435 H 0.43884 0.59184 0.10457 0.0
C436 C 0.4832 0.62107 0.88575 0.0
C437 C 0.46796 0.61509 0.84358 0.0
C438 C 0.47286 0.60876 0.93066 0.0
C439 C 0.44704 0.5906 0.93418 0.0
C440 C 0.43192 0.58506 0.89182 0.0
C441 C 0.44228 0.59699 0.84709 0.0
C442 C 0.40379 0.54189 0.02844 0.0
C443 C 0.41199 0.55572 0.07254 0.0
C444 C 0.4156 0.55294 0.98358 0.0
C445 C 0.43553 0.57813 0.98202 0.0
C446 C 0.44366 0.59175 0.02645 0.0
C447 C 0.43215 0.58064 0.07111 0.0
H448 H 0.85408 0.48671 0.04854 0.0
H449 H 0.87633 0.43913 0.97152 0.0
H450 H 0.85517 0.46731 0.12701 0.0
H451 H 0.87852 0.42071 0.04923 0.0
H452 H 0.85242 0.37284 0.19 0.0
H453 H 0.85217 0.39251 0.11129 0.0
H454 H 0.88294 0.46466 0.18469 0.0
H455 H 0.88214 0.44494 0.2628 0.0
C456 C 0.85954 0.47242 0.04848 0.0
C457 C 0.86508 0.46446 0.00394 0.0
C458 C 0.86026 0.46133 0.09334 0.0
C459 C 0.86681 0.4423 0.09441 0.0
C460 C 0.87288 0.43487 0.04979 0.0
C461 C 0.87187 0.44569 0.00517 0.0
C462 C 0.85929 0.39291 0.189 0.0
C463 C 0.86722 0.4073 0.2325 0.0
C464 C 0.85921 0.40424 0.144 0.0
C465 C 0.86735 0.43019 0.14173 0.0
C466 C 0.87598 0.44458 0.18518 0.0
C467 C 0.87577 0.43325 0.22998 0.0
H468 H 0.49025 0.84872 0.35104 0.0
H469 H 0.44743 0.87834 0.42237 0.0
H470 H 0.47016 0.84775 0.27208 0.0
H471 H 0.42836 0.87845 0.34403 0.0
H472 H 0.37754 0.84919 0.20851 0.0
H473 H 0.39805 0.8503 0.28694 0.0
H474 H 0.46785 0.87333 0.20904 0.0
H475 H 0.44719 0.87106 0.13133 0.0
C476 C 0.47693 0.85543 0.34964 0.0
C477 C 0.47038 0.86352 0.39282 0.0
C478 C 0.46541 0.85493 0.30451 0.0
C479 C 0.4474 0.8628 0.30177 0.0
C480 C 0.44161 0.87165 0.34488 0.0
C481 C 0.45282 0.87185 0.38981 0.0
C482 C 0.39725 0.85452 0.20839 0.0
C483 C 0.41071 0.86004 0.16383 0.0
C484 C 0.40908 0.85527 0.25324 0.0
C485 C 0.43466 0.86185 0.25432 0.0
C486 C 0.44807 0.86771 0.20963 0.0
C487 C 0.43621 0.86665 0.165 0.0
H488 H 0.57514 0.44565 0.59889 0.0
H489 H 0.64695 0.48806 0.52548 0.0
H490 H 0.55501 0.42752 0.52044 0.0
H491 H 0.62699 0.46893 0.44659 0.0
H492 H 0.582 0.44553 0.30628 0.0
H493 H 0.59918 0.46679 0.38419 0.0
H494 H 0.55189 0.39726 0.46255 0.0
H495 H 0.53375 0.37621 0.38384 0.0
C496 C 0.58666 0.45116 0.56584 0.0
C497 C 0.61266 0.46827 0.56828 0.0
C498 C 0.57511 0.44053 0.52083 0.0
C499 C 0.58934 0.44644 0.47714 0.0
C500 C 0.61533 0.46413 0.47939 0.0
C501 C 0.62685 0.47508 0.52454 0.0
C502 C 0.57502 0.43479 0.3401 0.0
C503 C 0.55656 0.40914 0.33897 0.0
C504 C 0.58509 0.44698 0.38488 0.0
C505 C 0.57724 0.43375 0.42975 0.0
C506 C 0.55822 0.40817 0.42874 0.0
C507 C 0.54784 0.39602 0.38372 0.0
H508 H 0.14188 0.5718 0.47631 0.0
H509 H 0.1692 0.528 0.5516 0.0
H510 H 0.13899 0.58956 0.55442 0.0
H511 H 0.16743 0.54678 0.63039 0.0
H512 H 0.1431 0.56944 0.76891 0.0
H513 H 0.14057 0.54876 0.69088 0.0
H514 H 0.16555 0.6192 0.61393 0.0
H515 H 0.16698 0.63969 0.69255 0.0
C516 C 0.14725 0.5659 0.50968 0.0
C517 C 0.15581 0.54849 0.50784 0.0
C518 C 0.14582 0.57633 0.55454 0.0
C519 C 0.15326 0.56991 0.59874 0.0
C520 C 0.16127 0.55198 0.5971 0.0
C521 C 0.16238 0.54123 0.55204 0.0
C522 C 0.14779 0.58049 0.73532 0.0
C523 C 0.1553 0.60623 0.73681 0.0
C524 C 0.14656 0.56864 0.69053 0.0
C525 C 0.15314 0.5823 0.64607 0.0
C526 C 0.16006 0.60798 0.6474 0.0
C527 C 0.16096 0.61979 0.69237 0.0
H528 H 0.46812 0.07814 0.01269 0.0
H529 H 0.52662 0.0645 0.06615 0.0
H530 H 0.43676 0.03334 0.02711 0.0
H531 H 0.49588 0.02077 0.08078 0.0
H532 H 0.43998 0.95045 0.14267 0.0
H533 H 0.45875 0.99605 0.13808 0.0
H534 H 0.42931 0.98927 0.9902 0.0
H535 H 0.40993 0.94324 -0.00468 0.0
C536 C 0.47422 0.06572 0.02788 0.0
C537 C 0.49987 0.07483 0.03798 0.0
C538 C 0.45634 0.04015 0.03597 0.0
C539 C 0.46383 0.02361 0.05562 0.0
C540 C 0.48939 0.03304 0.0664 0.0
C541 C 0.50709 0.05814 0.05751 0.0
C542 C 0.43665 0.95861 0.10995 0.0
C543 C 0.42368 0.94335 0.06924 0.0
C544 C 0.4475 0.98473 0.1072 0.0
C545 C 0.44596 0.99627 0.06338 0.0
C546 C 0.43076 0.9809 0.02447 0.0
C547 C 0.41962 0.95455 0.02743 0.0
H548 H 0.46966 0.39505 0.225 0.0
H549 H 0.52955 0.46843 0.18041 0.0
H550 H 0.43882 0.40916 0.21031 0.0
H551 H 0.49931 0.48204 0.16553 0.0
H552 H 0.44458 0.49712 0.09864 0.0
H553 H 0.46322 0.47021 0.1041 0.0
H554 H 0.43119 0.44591 0.24974 0.0
H555 H 0.41199 0.47273 0.24384 0.0
C556 C 0.47619 0.414 0.21179 0.0
C557 C 0.50207 0.43065 0.20416 0.0
C558 C 0.45861 0.42207 0.20355 0.0
C559 C 0.46665 0.44661 0.18625 0.0
C560 C 0.49244 0.46292 0.17812 0.0
C561 C 0.50983 0.45513 0.18713 0.0
C562 C 0.44074 0.48535 0.1311 0.0
C563 C 0.42709 0.48723 0.17103 0.0
C564 C 0.45146 0.46999 0.13429 0.0
C565 C 0.44907 0.45635 0.17774 0.0
C566 C 0.43329 0.45617 0.21577 0.0
C567 C 0.42228 0.4715 0.21238 0.0
H568 H 0.08454 0.46993 0.32091 0.0
H569 H 0.06433 0.489 0.46084 0.0
H570 H 0.03996 0.43992 0.30448 0.0
H571 H 0.02009 0.45881 0.44504 0.0
H572 H 0.94149 0.39875 0.41218 0.0
H573 H 0.98596 0.41261 0.42777 0.0
H574 H 1.00594 0.45233 0.28832 0.0
H575 H 0.96178 0.43895 0.2733 0.0
C576 C 0.0707 0.467 0.34894 0.0
C577 C 0.07784 0.48186 0.39203 0.0
C578 C 0.0452 0.44996 0.33942 0.0
C579 C 0.02653 0.44708 0.37339 0.0
C580 C 0.034 0.4604 0.41836 0.0
C581 C 0.05934 0.47778 0.42733 0.0
C582 C 0.95531 0.4097 0.38413 0.0
C583 C 0.94822 0.41792 0.34167 0.0
C584 C 0.98075 0.41776 0.39319 0.0
C585 C 0.99944 0.43367 0.35939 0.0
C586 C 0.992 0.43993 0.31488 0.0
C587 C 0.96671 0.43235 0.30635 0.0
H588 H 0.53109 0.95885 0.43571 0.0
H589 H 0.55163 0.93861 0.57396 0.0
H590 H 0.56124 1.00315 0.45143 0.0
H591 H 0.58157 0.9832 0.59026 0.0
H592 H 0.58241 0.061 0.62459 0.0
H593 H 0.56875 0.01686 0.60813 0.0
H594 H 0.60767 0.03753 0.46781 0.0
H595 H 0.62187 0.082 0.48493 0.0
C596 C 0.54262 0.96384 0.46878 0.0
C597 C 0.53894 0.9453 0.50369 0.0
C598 C 0.55997 0.98921 0.4777 0.0
C599 C 0.57366 0.99666 0.52222 0.0
C600 C 0.57123 0.97797 0.55567 0.0
C601 C 0.55421 0.95246 0.54621 0.0
C602 C 0.58875 0.0562 0.59098 0.0
C603 C 0.60312 0.07489 0.55597 0.0
C604 C 0.58102 0.03094 0.58163 0.0
C605 C 0.58703 0.02372 0.53656 0.0
C606 C 0.60274 0.04258 0.50284 0.0
C607 C 0.61098 0.068 0.51274 0.0
H608 H 0.6178 0.54525 0.75744 0.0
H609 H 0.58005 0.52681 0.61593 0.0
H610 H 0.6028 0.575 0.77333 0.0
H611 H 0.56563 0.55682 0.63115 0.0
H612 H 0.54862 0.61861 0.66373 0.0
H613 H 0.57833 0.60348 0.64902 0.0
H614 H 0.55582 0.56246 0.78691 0.0
H615 H 0.52589 0.57707 0.80102 0.0
C616 C 0.60712 0.54826 0.729 0.0
C617 C 0.6 0.53369 0.68553 0.0
C618 C 0.59842 0.56515 0.7382 0.0
C619 C 0.58299 0.56817 0.70353 0.0
C620 C 0.57767 0.55509 0.65836 0.0
C621 C 0.58585 0.53784 0.6497 0.0
C622 C 0.55062 0.607 0.69157 0.0
C623 C 0.53485 0.59889 0.73338 0.0
C624 C 0.5675 0.59825 0.68303 0.0
C625 C 0.56934 0.58173 0.71675 0.0
C626 C 0.55502 0.57534 0.76047 0.0
C627 C 0.53779 0.58361 0.76845 0.0
H628 H 0.08069 0.62146 0.83947 0.0
H629 H 0.06787 0.55197 0.90588 0.0
H630 H 0.03597 0.60851 0.85367 0.0
H631 H 0.02425 0.53942 0.92024 0.0
H632 H 0.95352 0.52579 0.97724 0.0
H633 H 0.99907 0.55274 0.97218 0.0
H634 H 0.99217 0.57117 0.82086 0.0
H635 H 0.94617 0.54452 0.82655 0.0
C636 C 0.06847 0.60367 0.85754 0.0
C637 C 0.07773 0.58766 0.87126 0.0
C638 C 0.04295 0.59623 0.86549 0.0
C639 C 0.02664 0.57305 0.88857 0.0
C640 C 0.0363 0.55756 0.90317 0.0
C641 C 0.06134 0.56468 0.89445 0.0
C642 C 0.96164 0.5364 0.94356 0.0
C643 C 0.94638 0.53296 0.90222 0.0
C644 C 0.98774 0.55173 0.94054 0.0
C645 C 0.99926 0.56364 0.89577 0.0
C646 C 0.98384 0.56229 0.85587 0.0
C647 C 0.95752 0.54707 0.85914 0.0
loop_
_geom_bond_atom_site_label_1
_geom_bond_atom_site_label_2
_geom_bond_distance
_geom_bond_site_symmetry_2
_ccdc_geom_bond_type
Co0 O1 2.216 . S
Co0 O2 2.091 . S
Co0 O4 2.004 . S
Co0 O10 2.021 . S
Co0 O12 2.137 1_554 S
Co0 O13 2.244 . S
O1 Co0 2.216 . S
O1 C8 1.247 . S
O2 Co0 2.091 . S
O2 C8 1.261 . S
C3 O12 1.247 . S
C3 O13 1.272 1_556 S
O4 Co0 2.004 . S
O4 C9 1.259 . S
Co5 O6 2.061 . S
Co5 O11 2.052 . S
Co5 O13 2.135 . S
O6 Co5 2.061 . S
O6 C9 1.235 . S
C7 O10 1.238 . S
C7 O11 1.241 . S
C8 O1 1.247 . S
C8 O2 1.261 . S
C9 O4 1.259 . S
C9 O6 1.235 . S
O10 Co0 2.021 . S
O10 C7 1.238 . S
O11 Co5 2.052 . S
O11 C7 1.241 . S
O12 Co0 2.137 1_556 S
O12 C3 1.247 . S
O13 Co0 2.244 . S
O13 C3 1.272 1_554 S
O13 Co5 2.135 . S
Co14 O15 2.216 . S
Co14 O16 2.091 . S
Co14 O18 2.004 . S
Co14 O24 2.021 . S
Co14 O26 2.137 . S
Co14 O27 2.244 . S
O15 Co14 2.216 . S
O15 C22 1.247 . S
O16 Co14 2.091 . S
O16 C22 1.261 . S
C17 O26 1.247 . S
C17 O27 1.272 . S
O18 Co14 2.004 . S
O18 C23 1.259 . S
Co19 O20 2.061 . S
Co19 O25 2.052 . S
Co19 O27 2.135 . S
O20 Co19 2.061 . S
O20 C23 1.235 . S
C21 O24 1.238 . S
C21 O25 1.241 . S
C22 O15 1.247 . S
C22 O16 1.261 . S
C23 O18 1.259 . S
C23 O20 1.235 . S
O24 Co14 2.021 . S
O24 C21 1.238 . S
O25 Co19 2.052 . S
O25 C21 1.241 . S
O26 Co14 2.137 . S
O26 C17 1.247 . S
O27 Co14 2.244 . S
O27 C17 1.272 . S
O27 Co19 2.135 . S
Co28 O29 2.216 . S
Co28 O30 2.091 . S
Co28 O32 2.004 . S
Co28 O38 2.021 . S
Co28 O40 2.137 . S
Co28 O41 2.244 . S
O29 Co28 2.216 . S
O29 C36 1.247 . S
O30 Co28 2.091 . S
O30 C36 1.261 . S
C31 O40 1.247 . S
C31 O41 1.272 . S
O32 Co28 2.004 . S
O32 C37 1.259 . S
Co33 O34 2.061 . S
Co33 O39 2.052 . S
Co33 O41 2.135 . S
O34 Co33 2.061 . S
O34 C37 1.235 . S
C35 O38 1.238 . S
C35 O39 1.241 . S
C36 O29 1.247 . S
C36 O30 1.261 . S
C37 O32 1.259 . S
C37 O34 1.235 . S
O38 Co28 2.021 . S
O38 C35 1.238 . S
O39 Co33 2.052 . S
O39 C35 1.241 . S
O40 Co28 2.137 . S
O40 C31 1.247 . S
O41 Co28 2.244 . S
O41 C31 1.272 . S
O41 Co33 2.135 . S
Co42 O43 2.216 . S
Co42 O44 2.091 . S
Co42 O46 2.004 . S
Co42 O52 2.021 . S
Co42 O54 2.137 . S
Co42 O55 2.244 . S
O43 Co42 2.216 . S
O43 C50 1.247 . S
O44 Co42 2.091 . S
O44 C50 1.261 . S
C45 O54 1.247 . S
C45 O55 1.272 . S
O46 Co42 2.004 . S
O46 C51 1.259 . S
Co47 O48 2.061 . S
Co47 O53 2.052 . S
Co47 O55 2.135 . S
O48 Co47 2.061 . S
O48 C51 1.235 . S
C49 O52 1.238 . S
C49 O53 1.241 . S
C50 O43 1.247 . S
C50 O44 1.261 . S
C51 O46 1.259 . S
C51 O48 1.235 . S
O52 Co42 2.021 . S
O52 C49 1.238 . S
O53 Co47 2.052 . S
O53 C49 1.241 . S
O54 Co42 2.137 . S
O54 C45 1.247 . S
O55 Co42 2.244 . S
O55 C45 1.272 . S
O55 Co47 2.135 . S
Co56 O57 2.216 . S
Co56 O58 2.091 . S
Co56 O60 2.004 . S
Co56 O66 2.021 . S
Co56 O68 2.137 . S
Co56 O69 2.244 . S
O57 Co56 2.216 . S
O57 C64 1.247 . S
O58 Co56 2.091 . S
O58 C64 1.261 . S
C59 O68 1.247 . S
C59 O69 1.272 . S
O60 Co56 2.004 . S
O60 C65 1.259 . S
Co61 O62 2.061 . S
Co61 O67 2.052 . S
Co61 O69 2.135 . S
O62 Co61 2.061 . S
O62 C65 1.235 . S
C63 O66 1.238 . S
C63 O67 1.241 . S
C64 O57 1.247 . S
C64 O58 1.261 . S
C65 O60 1.259 . S
C65 O62 1.235 . S
O66 Co56 2.021 . S
O66 C63 1.238 . S
O67 Co61 2.052 . S
O67 C63 1.241 . S
O68 Co56 2.137 . S
O68 C59 1.247 . S
O69 Co56 2.244 . S
O69 C59 1.272 . S
O69 Co61 2.135 . S
Co70 O71 2.216 . S
Co70 O72 2.091 . S
Co70 O74 2.004 . S
Co70 O80 2.021 . S
Co70 O82 2.137 . S
Co70 O83 2.244 . S
O71 Co70 2.216 . S
O71 C78 1.247 . S
O72 Co70 2.091 . S
O72 C78 1.261 . S
C73 O82 1.247 . S
C73 O83 1.272 . S
O74 Co70 2.004 . S
O74 C79 1.259 . S
Co75 O76 2.061 . S
Co75 O81 2.052 . S
Co75 O83 2.135 . S
O76 Co75 2.061 . S
O76 C79 1.235 . S
C77 O80 1.238 . S
C77 O81 1.241 . S
C78 O71 1.247 . S
C78 O72 1.261 . S
C79 O74 1.259 . S
C79 O76 1.235 . S
O80 Co70 2.021 . S
O80 C77 1.238 . S
O81 Co75 2.052 . S
O81 C77 1.241 . S
O82 Co70 2.137 . S
O82 C73 1.247 . S
O83 Co70 2.244 . S
O83 C73 1.272 . S
O83 Co75 2.135 . S
Co84 O85 2.216 . S
Co84 O86 2.091 . S
Co84 O88 2.004 . S
Co84 O94 2.021 . S
Co84 O96 2.137 . S
Co84 O97 2.244 . S
O85 Co84 2.216 . S
O85 C92 1.247 . S
O86 Co84 2.091 . S
O86 C92 1.261 . S
C87 O96 1.247 . S
C87 O97 1.272 . S
O88 Co84 2.004 . S
O88 C93 1.259 . S
Co89 O90 2.061 . S
Co89 O95 2.052 . S
Co89 O97 2.135 . S
O90 Co89 2.061 . S
O90 C93 1.235 . S
C91 O94 1.238 . S
C91 O95 1.241 . S
C92 O85 1.247 . S
C92 O86 1.261 . S
C93 O88 1.259 . S
C93 O90 1.235 . S
O94 Co84 2.021 . S
O94 C91 1.238 . S
O95 Co89 2.052 . S
O95 C91 1.241 . S
O96 Co84 2.137 . S
O96 C87 1.247 . S
O97 Co84 2.244 . S
O97 C87 1.272 . S
O97 Co89 2.135 . S
Co98 O99 2.216 . S
Co98 O100 2.091 . S
Co98 O102 2.004 . S
Co98 O108 2.021 1_554 S
Co98 O110 2.137 . S
Co98 O111 2.244 . S
O99 Co98 2.216 . S
O99 C106 1.247 . S
O100 Co98 2.091 . S
O100 C106 1.261 . S
C101 O110 1.247 . S
C101 O111 1.272 . S
O102 Co98 2.004 . S
O102 C107 1.259 . S
Co103 O104 2.061 . S
Co103 O109 2.052 1_554 S
Co103 O111 2.135 . S
O104 Co103 2.061 . S
O104 C107 1.235 . S
C105 O108 1.238 . S
C105 O109 1.241 . S
C106 O99 1.247 . S
C106 O100 1.261 . S
C107 O102 1.259 . S
C107 O104 1.235 . S
O108 Co98 2.021 1_556 S
O108 C105 1.238 . S
O109 Co103 2.052 1_556 S
O109 C105 1.241 . S
O110 Co98 2.137 . S
O110 C101 1.247 . S
O111 Co98 2.244 . S
O111 C101 1.272 . S
O111 Co103 2.135 . S
Co112 O113 2.216 . S
Co112 O114 2.091 . S
Co112 O116 2.004 . S
Co112 O122 2.021 . S
Co112 O124 2.137 . S
Co112 O125 2.244 . S
O113 Co112 2.216 . S
O113 C120 1.247 . S
O114 Co112 2.091 . S
O114 C120 1.261 . S
C115 O124 1.247 . S
C115 O125 1.272 . S
O116 Co112 2.004 . S
O116 C121 1.259 . S
Co117 O118 2.061 . S
Co117 O123 2.052 . S
Co117 O125 2.135 . S
O118 Co117 2.061 . S
O118 C121 1.235 . S
C119 O122 1.238 . S
C119 O123 1.241 . S
C120 O113 1.247 . S
C120 O114 1.261 . S
C121 O116 1.259 . S
C121 O118 1.235 . S
O122 Co112 2.021 . S
O122 C119 1.238 . S
O123 Co117 2.052 . S
O123 C119 1.241 . S
O124 Co112 2.137 . S
O124 C115 1.247 . S
O125 Co112 2.244 . S
O125 C115 1.272 . S
O125 Co117 2.135 . S
Co126 O127 2.216 . S
Co126 O128 2.091 . S
Co126 O130 2.004 . S
Co126 O136 2.021 . S
Co126 O138 2.137 . S
Co126 O139 2.244 . S
O127 Co126 2.216 . S
O127 C134 1.247 . S
O128 Co126 2.091 . S
O128 C134 1.261 . S
C129 O138 1.247 . S
C129 O139 1.272 . S
O130 Co126 2.004 . S
O130 C135 1.259 . S
Co131 O132 2.061 . S
Co131 O137 2.052 . S
Co131 O139 2.135 . S
O132 Co131 2.061 . S
O132 C135 1.235 . S
C133 O136 1.238 . S
C133 O137 1.241 . S
C134 O127 1.247 . S
C134 O128 1.261 . S
C135 O130 1.259 . S
C135 O132 1.235 . S
O136 Co126 2.021 . S
O136 C133 1.238 . S
O137 Co131 2.052 . S
O137 C133 1.241 . S
O138 Co126 2.137 . S
O138 C129 1.247 . S
O139 Co126 2.244 . S
O139 C129 1.272 . S
O139 Co131 2.135 . S
Co140 O141 2.216 . S
Co140 O142 2.091 . S
Co140 O144 2.004 . S
Co140 O150 2.021 . S
Co140 O152 2.137 . S
Co140 O153 2.244 . S
O141 Co140 2.216 . S
O141 C148 1.247 . S
O142 Co140 2.091 . S
O142 C148 1.261 . S
C143 O152 1.247 . S
C143 O153 1.272 . S
O144 Co140 2.004 . S
O144 C149 1.259 . S
Co145 O146 2.061 . S
Co145 O151 2.052 . S
Co145 O153 2.135 . S
O146 Co145 2.061 . S
O146 C149 1.235 . S
C147 O150 1.238 . S
C147 O151 1.241 . S
C148 O141 1.247 . S
C148 O142 1.261 . S
C149 O144 1.259 . S
C149 O146 1.235 . S
O150 Co140 2.021 . S
O150 C147 1.238 . S
O151 Co145 2.052 . S
O151 C147 1.241 . S
O152 Co140 2.137 . S
O152 C143 1.247 . S
O153 Co140 2.244 . S
O153 C143 1.272 . S
O153 Co145 2.135 . S
Co154 O155 2.216 . S
Co154 O156 2.091 . S
Co154 O158 2.004 . S
Co154 O164 2.021 . S
Co154 O166 2.137 . S
Co154 O167 2.244 . S
O155 Co154 2.216 . S
O155 C162 1.247 . S
O156 Co154 2.091 . S
O156 C162 1.261 . S
C157 O166 1.247 . S
C157 O167 1.272 . S
O158 Co154 2.004 . S
O158 C163 1.259 . S
Co159 O160 2.061 . S
Co159 O165 2.052 . S
Co159 O167 2.135 . S
O160 Co159 2.061 . S
O160 C163 1.235 . S
C161 O164 1.238 . S
C161 O165 1.241 . S
C162 O155 1.247 . S
C162 O156 1.261 . S
C163 O158 1.259 . S
C163 O160 1.235 . S
O164 Co154 2.021 . S
O164 C161 1.238 . S
O165 Co159 2.052 . S
O165 C161 1.241 . S
O166 Co154 2.137 . S
O166 C157 1.247 . S
O167 Co154 2.244 . S
O167 C157 1.272 . S
O167 Co159 2.135 . S
H168 C176 0.950 . S
H169 C181 0.950 . S
H170 C178 0.950 . S
H171 C180 0.950 . S
H172 C182 0.950 . S
H173 C184 0.950 . S
H174 C186 0.950 . S
H175 C187 0.950 . S
C176 H168 0.950 . S
C176 C177 1.386 . S
C176 C178 1.391 . S
C177 C176 1.386 . S
C177 C181 1.393 . S
C178 H170 0.950 . S
C178 C176 1.391 . S
C178 C179 1.400 . S
C179 C178 1.400 . S
C179 C180 1.398 . S
C179 C185 1.491 . S
C180 H171 0.950 . S
C180 C179 1.398 . S
C180 C181 1.391 . S
C181 H169 0.950 . S
C181 C177 1.393 . S
C181 C180 1.391 . S
C182 H172 0.950 . S
C182 C183 1.386 . S
C182 C184 1.391 . S
C183 C182 1.386 . S
C183 C187 1.393 . S
C184 H173 0.950 . S
C184 C182 1.391 . S
C184 C185 1.400 . S
C185 C179 1.491 . S
C185 C184 1.400 . S
C185 C186 1.398 . S
C186 H174 0.950 . S
C186 C185 1.398 . S
C186 C187 1.391 . S
C187 H175 0.950 . S
C187 C183 1.393 . S
C187 C186 1.391 . S
H188 C196 0.950 . S
H189 C201 0.950 . S
H190 C198 0.950 . S
H191 C200 0.950 . S
H192 C202 0.950 . S
H193 C204 0.950 . S
H194 C206 0.950 . S
H195 C207 0.950 . S
C196 H188 0.950 . S
C196 C197 1.386 . S
C196 C198 1.391 . S
C197 C196 1.386 . S
C197 C201 1.393 . S
C198 H190 0.950 . S
C198 C196 1.391 . S
C198 C199 1.400 . S
C199 C198 1.400 . S
C199 C200 1.398 . S
C199 C205 1.491 . S
C200 H191 0.950 . S
C200 C199 1.398 . S
C200 C201 1.391 . S
C201 H189 0.950 . S
C201 C197 1.393 . S
C201 C200 1.391 . S
C202 H192 0.950 . S
C202 C203 1.386 . S
C202 C204 1.391 . S
C203 C202 1.386 . S
C203 C207 1.393 . S
C204 H193 0.950 . S
C204 C202 1.391 . S
C204 C205 1.400 . S
C205 C199 1.491 . S
C205 C204 1.400 . S
C205 C206 1.398 . S
C206 H194 0.950 . S
C206 C205 1.398 . S
C206 C207 1.391 . S
C207 H195 0.950 . S
C207 C203 1.393 . S
C207 C206 1.391 . S
H208 C216 0.950 . S
H209 C221 0.950 . S
H210 C218 0.950 . S
H211 C220 0.950 . S
H212 C222 0.950 . S
H213 C224 0.950 . S
H214 C226 0.950 . S
H215 C227 0.950 . S
C216 H208 0.950 . S
C216 C217 1.386 . S
C216 C218 1.391 . S
C217 C216 1.386 . S
C217 C221 1.393 . S
C218 H210 0.950 . S
C218 C216 1.391 . S
C218 C219 1.400 . S
C219 C218 1.400 . S
C219 C220 1.398 . S
C219 C225 1.491 . S
C220 H211 0.950 . S
C220 C219 1.398 . S
C220 C221 1.391 . S
C221 H209 0.950 . S
C221 C217 1.393 . S
C221 C220 1.391 . S
C222 H212 0.950 . S
C222 C223 1.386 . S
C222 C224 1.391 . S
C223 C222 1.386 . S
C223 C227 1.393 . S
C224 H213 0.950 . S
C224 C222 1.391 . S
C224 C225 1.400 . S
C225 C219 1.491 . S
C225 C224 1.400 . S
C225 C226 1.398 . S
C226 H214 0.950 . S
C226 C225 1.398 . S
C226 C227 1.391 . S
C227 H215 0.950 . S
C227 C223 1.393 . S
C227 C226 1.391 . S
H228 C236 0.950 . S
H229 C241 0.950 . S
H230 C238 0.950 . S
H231 C240 0.950 . S
H232 C242 0.950 . S
H233 C244 0.950 . S
H234 C246 0.950 . S
H235 C247 0.950 . S
C236 H228 0.950 . S
C236 C237 1.386 . S
C236 C238 1.391 . S
C237 C236 1.386 . S
C237 C241 1.393 . S
C238 H230 0.950 . S
C238 C236 1.391 . S
C238 C239 1.400 . S
C239 C238 1.400 . S
C239 C240 1.398 . S
C239 C245 1.491 . S
C240 H231 0.950 . S
C240 C239 1.398 . S
C240 C241 1.391 . S
C241 H229 0.950 . S
C241 C237 1.393 . S
C241 C240 1.391 . S
C242 H232 0.950 . S
C242 C243 1.386 . S
C242 C244 1.391 . S
C243 C242 1.386 . S
C243 C247 1.393 . S
C244 H233 0.950 . S
C244 C242 1.391 . S
C244 C245 1.400 . S
C245 C239 1.491 . S
C245 C244 1.400 . S
C245 C246 1.398 . S
C246 H234 0.950 . S
C246 C245 1.398 . S
C246 C247 1.391 . S
C247 H235 0.950 . S
C247 C243 1.393 . S
C247 C246 1.391 . S
H248 C256 0.950 . S
H249 C261 0.950 . S
H250 C258 0.950 . S
H251 C260 0.950 . S
H252 C262 0.950 . S
H253 C264 0.950 . S
H254 C266 0.950 . S
H255 C267 0.950 . S
C256 H248 0.950 . S
C256 C257 1.386 . S
C256 C258 1.391 1_554 S
C257 C256 1.386 . S
C257 C261 1.393 . S
C258 H250 0.950 . S
C258 C256 1.391 1_556 S
C258 C259 1.400 . S
C259 C258 1.400 . S
C259 C260 1.398 1_556 S
C259 C265 1.491 . S
C260 H251 0.950 . S
C260 C259 1.398 1_554 S
C260 C261 1.391 . S
C261 H249 0.950 . S
C261 C257 1.393 . S
C261 C260 1.391 . S
C262 H252 0.950 . S
C262 C263 1.386 . S
C262 C264 1.391 . S
C263 C262 1.386 . S
C263 C267 1.393 . S
C264 H253 0.950 . S
C264 C262 1.391 . S
C264 C265 1.400 . S
C265 C259 1.491 . S
C265 C264 1.400 . S
C265 C266 1.398 . S
C266 H254 0.950 . S
C266 C265 1.398 . S
C266 C267 1.391 . S
C267 H255 0.950 . S
C267 C263 1.393 . S
C267 C266 1.391 . S
H268 C276 0.950 . S
H269 C281 0.950 . S
H270 C278 0.950 . S
H271 C280 0.950 . S
H272 C282 0.950 . S
H273 C284 0.950 . S
H274 C286 0.950 . S
H275 C287 0.950 1_556 S
C276 H268 0.950 . S
C276 C277 1.386 . S
C276 C278 1.391 . S
C277 C276 1.386 . S
C277 C281 1.393 . S
C278 H270 0.950 . S
C278 C276 1.391 . S
C278 C279 1.400 . S
C279 C278 1.400 . S
C279 C280 1.398 . S
C279 C285 1.491 . S
C280 H271 0.950 . S
C280 C279 1.398 . S
C280 C281 1.391 . S
C281 H269 0.950 . S
C281 C277 1.393 . S
C281 C280 1.391 . S
C282 H272 0.950 . S
C282 C283 1.386 . S
C282 C284 1.391 . S
C283 C282 1.386 . S
C283 C287 1.393 . S
C284 H273 0.950 . S
C284 C282 1.391 . S
C284 C285 1.400 . S
C285 C279 1.491 . S
C285 C284 1.400 . S
C285 C286 1.398 . S
C286 H274 0.950 . S
C286 C285 1.398 . S
C286 C287 1.391 . S
C287 H275 0.950 1_554 S
C287 C283 1.393 . S
C287 C286 1.391 . S
H288 C296 0.950 . S
H289 C301 0.950 . S
H290 C298 0.950 . S
H291 C300 0.950 . S
H292 C302 0.950 . S
H293 C304 0.950 . S
H294 C306 0.950 . S
H295 C307 0.950 . S
C296 H288 0.950 . S
C296 C297 1.386 . S
C296 C298 1.391 . S
C297 C296 1.386 . S
C297 C301 1.393 . S
C298 H290 0.950 . S
C298 C296 1.391 . S
C298 C299 1.400 . S
C299 C298 1.400 . S
C299 C300 1.398 . S
C299 C305 1.491 . S
C300 H291 0.950 . S
C300 C299 1.398 . S
C300 C301 1.391 . S
C301 H289 0.950 . S
C301 C297 1.393 . S
C301 C300 1.391 . S
C302 H292 0.950 . S
C302 C303 1.386 . S
C302 C304 1.391 . S
C303 C302 1.386 . S
C303 C307 1.393 . S
C304 H293 0.950 . S
C304 C302 1.391 . S
C304 C305 1.400 . S
C305 C299 1.491 . S
C305 C304 1.400 . S
C305 C306 1.398 . S
C306 H294 0.950 . S
C306 C305 1.398 . S
C306 C307 1.391 . S
C307 H295 0.950 . S
C307 C303 1.393 . S
C307 C306 1.391 . S
H308 C316 0.950 . S
H309 C321 0.950 . S
H310 C318 0.950 . S
H311 C320 0.950 . S
H312 C322 0.950 . S
H313 C324 0.950 . S
H314 C326 0.950 . S
H315 C327 0.950 . S
C316 H308 0.950 . S
C316 C317 1.386 . S
C316 C318 1.391 . S
C317 C316 1.386 . S
C317 C321 1.393 . S
C318 H310 0.950 . S
C318 C316 1.391 . S
C318 C319 1.400 . S
C319 C318 1.400 . S
C319 C320 1.398 . S
C319 C325 1.491 . S
C320 H311 0.950 . S
C320 C319 1.398 . S
C320 C321 1.391 . S
C321 H309 0.950 . S
C321 C317 1.393 . S
C321 C320 1.391 . S
C322 H312 0.950 . S
C322 C323 1.386 . S
C322 C324 1.391 . S
C323 C322 1.386 . S
C323 C327 1.393 . S
C324 H313 0.950 . S
C324 C322 1.391 . S
C324 C325 1.400 . S
C325 C319 1.491 . S
C325 C324 1.400 . S
C325 C326 1.398 . S
C326 H314 0.950 . S
C326 C325 1.398 . S
C326 C327 1.391 . S
C327 H315 0.950 . S
C327 C323 1.393 . S
C327 C326 1.391 . S
H328 C336 0.950 . S
H329 C341 0.950 . S
H330 C338 0.950 . S
H331 C340 0.950 . S
H332 C342 0.950 . S
H333 C344 0.950 . S
H334 C346 0.950 . S
H335 C347 0.950 . S
C336 H328 0.950 . S
C336 C337 1.386 . S
C336 C338 1.391 . S
C337 C336 1.386 . S
C337 C341 1.393 . S
C338 H330 0.950 . S
C338 C336 1.391 . S
C338 C339 1.400 . S
C339 C338 1.400 . S
C339 C340 1.398 . S
C339 C345 1.491 . S
C340 H331 0.950 . S
C340 C339 1.398 . S
C340 C341 1.391 . S
C341 H329 0.950 . S
C341 C337 1.393 . S
C341 C340 1.391 . S
C342 H332 0.950 . S
C342 C343 1.386 . S
C342 C344 1.391 . S
C343 C342 1.386 . S
C343 C347 1.393 . S
C344 H333 0.950 . S
C344 C342 1.391 . S
C344 C345 1.400 . S
C345 C339 1.491 . S
C345 C344 1.400 . S
C345 C346 1.398 . S
C346 H334 0.950 . S
C346 C345 1.398 . S
C346 C347 1.391 . S
C347 H335 0.950 . S
C347 C343 1.393 . S
C347 C346 1.391 . S
H348 C356 0.950 . S
H349 C361 0.950 . S
H350 C358 0.950 . S
H351 C360 0.950 . S
H352 C362 0.950 . S
H353 C364 0.950 . S
H354 C366 0.950 . S
H355 C367 0.950 . S
C356 H348 0.950 . S
C356 C357 1.386 . S
C356 C358 1.391 . S
C357 C356 1.386 . S
C357 C361 1.393 . S
C358 H350 0.950 . S
C358 C356 1.391 . S
C358 C359 1.400 . S
C359 C358 1.400 . S
C359 C360 1.398 . S
C359 C365 1.491 . S
C360 H351 0.950 . S
C360 C359 1.398 . S
C360 C361 1.391 . S
C361 H349 0.950 . S
C361 C357 1.393 . S
C361 C360 1.391 . S
C362 H352 0.950 . S
C362 C363 1.386 . S
C362 C364 1.391 . S
C363 C362 1.386 . S
C363 C367 1.393 . S
C364 H353 0.950 . S
C364 C362 1.391 . S
C364 C365 1.400 . S
C365 C359 1.491 . S
C365 C364 1.400 . S
C365 C366 1.398 . S
C366 H354 0.950 . S
C366 C365 1.398 . S
C366 C367 1.391 . S
C367 H355 0.950 . S
C367 C363 1.393 . S
C367 C366 1.391 . S
H368 C376 0.950 . S
H369 C381 0.950 . S
H370 C378 0.950 . S
H371 C380 0.950 . S
H372 C382 0.950 . S
H373 C384 0.950 . S
H374 C386 0.950 . S
H375 C387 0.950 . S
C376 H368 0.950 . S
C376 C377 1.386 . S
C376 C378 1.391 . S
C377 C376 1.386 . S
C377 C381 1.393 . S
C378 H370 0.950 . S
C378 C376 1.391 . S
C378 C379 1.400 . S
C379 C378 1.400 . S
C379 C380 1.398 . S
C379 C385 1.491 . S
C380 H371 0.950 . S
C380 C379 1.398 . S
C380 C381 1.391 . S
C381 H369 0.950 . S
C381 C377 1.393 . S
C381 C380 1.391 . S
C382 H372 0.950 . S
C382 C383 1.386 . S
C382 C384 1.391 . S
C383 C382 1.386 . S
C383 C387 1.393 . S
C384 H373 0.950 . S
C384 C382 1.391 . S
C384 C385 1.400 . S
C385 C379 1.491 . S
C385 C384 1.400 . S
C385 C386 1.398 . S
C386 H374 0.950 . S
C386 C385 1.398 . S
C386 C387 1.391 . S
C387 H375 0.950 . S
C387 C383 1.393 . S
C387 C386 1.391 . S
H388 C396 0.950 . S
H389 C401 0.950 . S
H390 C398 0.950 . S
H391 C400 0.950 1_554 S
H392 C402 0.950 . S
H393 C404 0.950 . S
H394 C406 0.950 . S
H395 C407 0.950 . S
C396 H388 0.950 . S
C396 C397 1.386 . S
C396 C398 1.391 . S
C397 C396 1.386 . S
C397 C401 1.393 . S
C398 H390 0.950 . S
C398 C396 1.391 . S
C398 C399 1.400 . S
C399 C398 1.400 . S
C399 C400 1.398 . S
C399 C405 1.491 . S
C400 H391 0.950 1_556 S
C400 C399 1.398 . S
C400 C401 1.391 . S
C401 H389 0.950 . S
C401 C397 1.393 . S
C401 C400 1.391 . S
C402 H392 0.950 . S
C402 C403 1.386 . S
C402 C404 1.391 . S
C403 C402 1.386 . S
C403 C407 1.393 1_554 S
C404 H393 0.950 . S
C404 C402 1.391 . S
C404 C405 1.400 1_554 S
C405 C399 1.491 . S
C405 C404 1.400 1_556 S
C405 C406 1.398 . S
C406 H394 0.950 . S
C406 C405 1.398 . S
C406 C407 1.391 . S
C407 H395 0.950 . S
C407 C403 1.393 1_556 S
C407 C406 1.391 . S
H408 C416 0.950 . S
H409 C421 0.950 . S
H410 C418 0.950 . S
H411 C420 0.950 . S
H412 C422 0.950 . S
H413 C424 0.950 . S
H414 C426 0.950 . S
H415 C427 0.950 . S
C416 H408 0.950 . S
C416 C417 1.386 . S
C416 C418 1.391 . S
C417 C416 1.386 . S
C417 C421 1.393 . S
C418 H410 0.950 . S
C418 C416 1.391 . S
C418 C419 1.400 . S
C419 C418 1.400 . S
C419 C420 1.398 . S
C419 C425 1.491 . S
C420 H411 0.950 . S
C420 C419 1.398 . S
C420 C421 1.391 . S
C421 H409 0.950 . S
C421 C417 1.393 . S
C421 C420 1.391 . S
C422 H412 0.950 . S
C422 C423 1.386 . S
C422 C424 1.391 . S
C423 C422 1.386 . S
C423 C427 1.393 . S
C424 H413 0.950 . S
C424 C422 1.391 . S
C424 C425 1.400 . S
C425 C419 1.491 . S
C425 C424 1.400 . S
C425 C426 1.398 . S
C426 H414 0.950 . S
C426 C425 1.398 . S
C426 C427 1.391 . S
C427 H415 0.950 . S
C427 C423 1.393 . S
C427 C426 1.391 . S
H428 C436 0.950 . S
H429 C441 0.950 . S
H430 C438 0.950 . S
H431 C440 0.950 . S
H432 C442 0.950 . S
H433 C444 0.959 . S
H434 C446 0.950 . S
H435 C447 0.950 . S
C436 H428 0.950 . S
C436 C437 1.386 . S
C436 C438 1.391 . S
C437 C436 1.386 . S
C437 C441 1.393 . S
C438 H430 0.950 . S
C438 C436 1.391 . S
C438 C439 1.400 . S
C439 C438 1.400 . S
C439 C440 1.398 . S
C439 C445 1.491 . S
C440 H431 0.950 . S
C440 C439 1.398 . S
C440 C441 1.391 . S
C441 H429 0.950 . S
C441 C437 1.393 . S
C441 C440 1.391 . S
C442 H432 0.950 . S
C442 C443 1.386 . S
C442 C444 1.378 1_554 S
C443 C442 1.386 . S
C443 C447 1.393 . S
C444 H433 0.959 . S
C444 C442 1.378 1_556 S
C444 C445 1.404 . S
C445 C439 1.491 . S
C445 C444 1.404 . S
C445 C446 1.398 1_556 S
C446 H434 0.950 . S
C446 C445 1.398 1_554 S
C446 C447 1.391 . S
C447 H435 0.950 . S
C447 C443 1.393 . S
C447 C446 1.391 . S
H448 C456 0.950 . S
H449 C461 0.950 1_556 S
H450 C458 0.950 . S
H451 C460 0.950 . S
H452 C462 0.950 . S
H453 C464 0.950 . S
H454 C466 0.950 . S
H455 C467 0.950 . S
C456 H448 0.950 . S
C456 C457 1.386 . S
C456 C458 1.391 . S
C457 C456 1.386 . S
C457 C461 1.393 . S
C458 H450 0.950 . S
C458 C456 1.391 . S
C458 C459 1.400 . S
C459 C458 1.400 . S
C459 C460 1.398 . S
C459 C465 1.491 . S
C460 H451 0.950 . S
C460 C459 1.398 . S
C460 C461 1.391 . S
C461 H449 0.950 1_554 S
C461 C457 1.393 . S
C461 C460 1.391 . S
C462 H452 0.950 . S
C462 C463 1.386 . S
C462 C464 1.391 . S
C463 C462 1.386 . S
C463 C467 1.393 . S
C464 H453 0.950 . S
C464 C462 1.391 . S
C464 C465 1.400 . S
C465 C459 1.491 . S
C465 C464 1.400 . S
C465 C466 1.398 . S
C466 H454 0.950 . S
C466 C465 1.398 . S
C466 C467 1.391 . S
C467 H455 0.950 . S
C467 C463 1.393 . S
C467 C466 1.391 . S
H468 C476 0.950 . S
H469 C481 0.950 . S
H470 C478 0.950 . S
H471 C480 0.950 . S
H472 C482 0.950 . S
H473 C484 0.950 . S
H474 C486 0.950 . S
H475 C487 0.950 . S
C476 H468 0.950 . S
C476 C477 1.386 . S
C476 C478 1.391 . S
C477 C476 1.386 . S
C477 C481 1.393 . S
C478 H470 0.950 . S
C478 C476 1.391 . S
C478 C479 1.400 . S
C479 C478 1.400 . S
C479 C480 1.398 . S
C479 C485 1.491 . S
C480 H471 0.950 . S
C480 C479 1.398 . S
C480 C481 1.391 . S
C481 H469 0.950 . S
C481 C477 1.393 . S
C481 C480 1.391 . S
C482 H472 0.950 . S
C482 C483 1.386 . S
C482 C484 1.391 . S
C483 C482 1.386 . S
C483 C487 1.393 . S
C484 H473 0.950 . S
C484 C482 1.391 . S
C484 C485 1.400 . S
C485 C479 1.491 . S
C485 C484 1.400 . S
C485 C486 1.398 . S
C486 H474 0.950 . S
C486 C485 1.398 . S
C486 C487 1.391 . S
C487 H475 0.950 . S
C487 C483 1.393 . S
C487 C486 1.391 . S
H488 C496 0.950 . S
H489 C501 0.950 . S
H490 C498 0.950 . S
H491 C500 0.950 . S
H492 C502 0.950 . S
H493 C504 0.950 . S
H494 C506 0.950 . S
H495 C507 0.950 . S
C496 H488 0.950 . S
C496 C497 1.386 . S
C496 C498 1.391 . S
C497 C496 1.386 . S
C497 C501 1.393 . S
C498 H490 0.950 . S
C498 C496 1.391 . S
C498 C499 1.400 . S
C499 C498 1.400 . S
C499 C500 1.398 . S
C499 C505 1.491 . S
C500 H491 0.950 . S
C500 C499 1.398 . S
C500 C501 1.391 . S
C501 H489 0.950 . S
C501 C497 1.393 . S
C501 C500 1.391 . S
C502 H492 0.950 . S
C502 C503 1.386 . S
C502 C504 1.391 . S
C503 C502 1.386 . S
C503 C507 1.393 . S
C504 H493 0.950 . S
C504 C502 1.391 . S
C504 C505 1.400 . S
C505 C499 1.491 . S
C505 C504 1.400 . S
C505 C506 1.398 . S
C506 H494 0.950 . S
C506 C505 1.398 . S
C506 C507 1.391 . S
C507 H495 0.950 . S
C507 C503 1.393 . S
C507 C506 1.391 . S
H508 C516 0.950 . S
H509 C521 0.950 . S
H510 C518 0.950 . S
H511 C520 0.950 . S
H512 C522 0.950 . S
H513 C524 0.950 . S
H514 C526 0.950 . S
H515 C527 0.950 . S
C516 H508 0.950 . S
C516 C517 1.386 . S
C516 C518 1.391 . S
C517 C516 1.386 . S
C517 C521 1.393 . S
C518 H510 0.950 . S
C518 C516 1.391 . S
C518 C519 1.400 . S
C519 C518 1.400 . S
C519 C520 1.398 . S
C519 C525 1.491 . S
C520 H511 0.950 . S
C520 C519 1.398 . S
C520 C521 1.391 . S
C521 H509 0.950 . S
C521 C517 1.393 . S
C521 C520 1.391 . S
C522 H512 0.950 . S
C522 C523 1.386 . S
C522 C524 1.391 . S
C523 C522 1.386 . S
C523 C527 1.393 . S
C524 H513 0.950 . S
C524 C522 1.391 . S
C524 C525 1.400 . S
C525 C519 1.491 . S
C525 C524 1.400 . S
C525 C526 1.398 . S
C526 H514 0.950 . S
C526 C525 1.398 . S
C526 C527 1.391 . S
C527 H515 0.950 . S
C527 C523 1.393 . S
C527 C526 1.391 . S
H528 C536 0.950 1_556 S
H529 C541 0.950 . S
H530 C538 0.950 1_556 S
H531 C540 0.950 . S
H532 C542 0.950 . S
H533 C544 0.950 . S
H534 C546 0.950 . S
H535 C547 0.950 . S
C536 H528 0.950 1_554 S
C536 C537 1.386 . S
C536 C538 1.391 . S
C537 C536 1.386 . S
C537 C541 1.393 . S
C538 H530 0.950 1_554 S
C538 C536 1.391 . S
C538 C539 1.400 . S
C539 C538 1.400 . S
C539 C540 1.398 . S
C539 C545 1.491 1_545 S
C540 H531 0.950 . S
C540 C539 1.398 . S
C540 C541 1.391 . S
C541 H529 0.950 . S
C541 C537 1.393 . S
C541 C540 1.391 . S
C542 H532 0.950 . S
C542 C543 1.386 . S
C542 C544 1.391 . S
C543 C542 1.386 . S
C543 C547 1.393 1_554 S
C544 H533 0.950 . S
C544 C542 1.391 . S
C544 C545 1.400 . S
C545 C539 1.491 1_565 S
C545 C544 1.400 . S
C545 C546 1.398 1_554 S
C546 H534 0.950 . S
C546 C545 1.398 1_556 S
C546 C547 1.391 . S
C547 H535 0.950 . S
C547 C543 1.393 1_556 S
C547 C546 1.391 . S
H548 C556 0.950 . S
H549 C561 0.950 . S
H550 C558 0.950 . S
H551 C560 0.950 . S
H552 C562 0.950 . S
H553 C564 0.950 . S
H554 C566 0.950 . S
H555 C567 0.950 . S
C556 H548 0.950 . S
C556 C557 1.386 . S
C556 C558 1.391 . S
C557 C556 1.386 . S
C557 C561 1.393 . S
C558 H550 0.950 . S
C558 C556 1.391 . S
C558 C559 1.400 . S
C559 C558 1.400 . S
C559 C560 1.398 . S
C559 C565 1.491 . S
C560 H551 0.950 . S
C560 C559 1.398 . S
C560 C561 1.391 . S
C561 H549 0.950 . S
C561 C557 1.393 . S
C561 C560 1.391 . S
C562 H552 0.950 . S
C562 C563 1.386 . S
C562 C564 1.391 . S
C563 C562 1.386 . S
C563 C567 1.393 . S
C564 H553 0.950 . S
C564 C562 1.391 . S
C564 C565 1.400 . S
C565 C559 1.491 . S
C565 C564 1.400 . S
C565 C566 1.398 . S
C566 H554 0.950 . S
C566 C565 1.398 . S
C566 C567 1.391 . S
C567 H555 0.950 . S
C567 C563 1.393 . S
C567 C566 1.391 . S
H568 C576 0.950 . S
H569 C581 0.950 . S
H570 C578 0.950 . S
H571 C580 0.950 . S
H572 C582 0.950 . S
H573 C584 0.950 . S
H574 C586 0.950 . S
H575 C587 0.950 . S
C576 H568 0.950 . S
C576 C577 1.386 . S
C576 C578 1.391 . S
C577 C576 1.386 . S
C577 C581 1.393 . S
C578 H570 0.950 . S
C578 C576 1.391 . S
C578 C579 1.400 . S
C579 C578 1.400 . S
C579 C580 1.398 . S
C579 C585 1.491 1_455 S
C580 H571 0.950 . S
C580 C579 1.398 . S
C580 C581 1.391 . S
C581 H569 0.950 . S
C581 C577 1.393 . S
C581 C580 1.391 . S
C582 H572 0.950 . S
C582 C583 1.386 . S
C582 C584 1.391 . S
C583 C582 1.386 . S
C583 C587 1.393 . S
C584 H573 0.950 . S
C584 C582 1.391 . S
C584 C585 1.400 . S
C585 C579 1.491 1_655 S
C585 C584 1.400 . S
C585 C586 1.398 . S
C586 H574 0.950 . S
C586 C585 1.398 . S
C586 C587 1.391 . S
C587 H575 0.950 . S
C587 C583 1.393 . S
C587 C586 1.391 . S
H588 C596 0.950 . S
H589 C601 0.950 . S
H590 C598 0.950 . S
H591 C600 0.950 . S
H592 C602 0.950 . S
H593 C604 0.950 . S
H594 C606 0.950 . S
H595 C607 0.950 . S
C596 H588 0.950 . S
C596 C597 1.386 . S
C596 C598 1.391 . S
C597 C596 1.386 . S
C597 C601 1.393 . S
C598 H590 0.950 . S
C598 C596 1.391 . S
C598 C599 1.400 . S
C599 C598 1.400 . S
C599 C600 1.398 . S
C599 C605 1.491 1_565 S
C600 H591 0.950 . S
C600 C599 1.398 . S
C600 C601 1.391 . S
C601 H589 0.950 . S
C601 C597 1.393 . S
C601 C600 1.391 . S
C602 H592 0.950 . S
C602 C603 1.386 . S
C602 C604 1.391 . S
C603 C602 1.386 . S
C603 C607 1.393 . S
C604 H593 0.950 . S
C604 C602 1.391 . S
C604 C605 1.400 . S
C605 C599 1.491 1_545 S
C605 C604 1.400 . S
C605 C606 1.398 . S
C606 H594 0.950 . S
C606 C605 1.398 . S
C606 C607 1.391 . S
C607 H595 0.950 . S
C607 C603 1.393 . S
C607 C606 1.391 . S
H608 C616 0.950 . S
H609 C621 0.950 . S
H610 C618 0.950 . S
H611 C620 0.950 . S
H612 C622 0.950 . S
H613 C624 0.950 . S
H614 C626 0.950 . S
H615 C627 0.950 . S
C616 H608 0.950 . S
C616 C617 1.386 . S
C616 C618 1.391 . S
C617 C616 1.386 . S
C617 C621 1.393 . S
C618 H610 0.950 . S
C618 C616 1.391 . S
C618 C619 1.400 . S
C619 C618 1.400 . S
C619 C620 1.398 . S
C619 C625 1.491 . S
C620 H611 0.950 . S
C620 C619 1.398 . S
C620 C621 1.391 . S
C621 H609 0.950 . S
C621 C617 1.393 . S
C621 C620 1.391 . S
C622 H612 0.950 . S
C622 C623 1.386 . S
C622 C624 1.391 . S
C623 C622 1.386 . S
C623 C627 1.393 . S
C624 H613 0.950 . S
C624 C622 1.391 . S
C624 C625 1.400 . S
C625 C619 1.491 . S
C625 C624 1.400 . S
C625 C626 1.398 . S
C626 H614 0.950 . S
C626 C625 1.398 . S
C626 C627 1.391 . S
C627 H615 0.950 . S
C627 C623 1.393 . S
C627 C626 1.391 . S
H628 C636 0.950 . S
H629 C641 0.950 . S
H630 C638 0.950 . S
H631 C640 0.950 . S
H632 C642 0.950 . S
H633 C644 0.950 . S
H634 C646 0.950 . S
H635 C647 0.950 . S
C636 H628 0.950 . S
C636 C637 1.386 . S
C636 C638 1.391 . S
C637 C636 1.386 . S
C637 C641 1.393 . S
C638 H630 0.950 . S
C638 C636 1.391 . S
C638 C639 1.400 . S
C639 C638 1.400 . S
C639 C640 1.398 . S
C639 C645 1.491 1_455 S
C640 H631 0.950 . S
C640 C639 1.398 . S
C640 C641 1.391 . S
C641 H629 0.950 . S
C641 C637 1.393 . S
C641 C640 1.391 . S
C642 H632 0.950 . S
C642 C643 1.386 . S
C642 C644 1.391 . S
C643 C642 1.386 . S
C643 C647 1.393 . S
C644 H633 0.950 . S
C644 C642 1.391 . S
C644 C645 1.400 . S
C645 C639 1.491 1_655 S
C645 C644 1.400 . S
C645 C646 1.398 . S
C646 H634 0.950 . S
C646 C645 1.398 . S
C646 C647 1.391 . S
C647 H635 0.950 . S
C647 C643 1.393 . S
C647 C646 1.391 . S
C177 C7 1.065 . S
C183 C147 1.076 . S
C197 C21 1.076 . S
C203 C161 1.064 . S
C217 C91 1.088 . S
C223 C35 1.084 . S
C237 C49 1.075 . S
C243 C105 1.090 . S
C257 C119 1.064 . S
C263 C63 1.078 . S
C277 C133 1.075 . S
C283 C77 1.090 1_554 S
C297 C120 1.360 . S
C303 C8 1.363 . S
C317 C22 1.365 . S
C323 C134 1.365 . S
C337 C148 1.364 . S
C343 C36 1.362 . S
C357 C50 1.360 . S
C363 C162 1.357 . S
C377 C64 1.365 . S
C383 C92 1.365 . S
C397 C78 1.363 . S
C403 C106 1.360 . S
C417 C143 1.636 . S
C423 C3 1.632 . S
C437 C157 1.635 . S
C443 C17 1.632 . S
C457 C87 1.636 1_554 S
C463 C31 1.631 . S
C477 C45 1.636 . S
C483 C101 1.631 . S
C497 C59 1.631 . S
C503 C115 1.636 . S
C517 C129 1.631 . S
C523 C73 1.636 . S
C537 C9 1.311 . S
C543 C107 1.335 . S
C557 C121 1.313 . S
C563 C23 1.332 . S
C577 C135 1.334 . S
C583 C37 1.313 . S
C597 C51 1.323 . S
C603 C149 1.325 . S
C617 C65 1.330 . S
C623 C163 1.317 . S
C637 C79 1.311 . S
C643 C93 1.335 . S
