# Generated by pormake.
# Topology tes, (8)-cn, num edge types: 1
# Building blocks:
#     Node 0, Type 0, BuildingBlock: EBIMEJ_clean_sbu_0, # of connection points: 8
#     Node 1, Type 0, BuildingBlock: EBIMEJ_clean_sbu_0, # of connection points: 8
#     Node 2, Type 0, BuildingBlock: EBIMEJ_clean_sbu_0, # of connection points: 8
#     Node 3, Type 0, BuildingBlock: EBIMEJ_clean_sbu_0, # of connection points: 8
#     Node 4, Type 0, BuildingBlock: EBIMEJ_clean_sbu_0, # of connection points: 8
#     Node 5, Type 0, BuildingBlock: EBIMEJ_clean_sbu_0, # of connection points: 8
#     Node 6, Type 0, BuildingBlock: EBIMEJ_clean_sbu_0, # of connection points: 8
#     Node 7, Type 0, BuildingBlock: EBIMEJ_clean_sbu_0, # of connection points: 8
#     Node 8, Type 0, BuildingBlock: EBIMEJ_clean_sbu_0, # of connection points: 8
#     Node 9, Type 0, BuildingBlock: EBIMEJ_clean_sbu_0, # of connection points: 8
#     Node 10, Type 0, BuildingBlock: EBIMEJ_clean_sbu_0, # of connection points: 8
#     Node 11, Type 0, BuildingBlock: EBIMEJ_clean_sbu_0, # of connection points: 8
#     Node 12, Type 0, BuildingBlock: EBIMEJ_clean_sbu_0, # of connection points: 8
#     Node 13, Type 0, BuildingBlock: EBIMEJ_clean_sbu_0, # of connection points: 8
#     Node 14, Type 0, BuildingBlock: EBIMEJ_clean_sbu_0, # of connection points: 8
#     Node 15, Type 0, BuildingBlock: EBIMEJ_clean_sbu_0, # of connection points: 8
#     Node 16, Type 0, BuildingBlock: EBIMEJ_clean_sbu_0, # of connection points: 8
#     Node 17, Type 0, BuildingBlock: EBIMEJ_clean_sbu_0, # of connection points: 8
#     Node 18, Type 0, BuildingBlock: EBIMEJ_clean_sbu_0, # of connection points: 8
#     Node 19, Type 0, BuildingBlock: EBIMEJ_clean_sbu_0, # of connection points: 8
#     Node 20, Type 0, BuildingBlock: EBIMEJ_clean_sbu_0, # of connection points: 8
#     Node 21, Type 0, BuildingBlock: EBIMEJ_clean_sbu_0, # of connection points: 8
#     Node 22, Type 0, BuildingBlock: EBIMEJ_clean_sbu_0, # of connection points: 8
#     Node 23, Type 0, BuildingBlock: EBIMEJ_clean_sbu_0, # of connection points: 8
#     Edge 24, Type (0, 0), BuildingBlock: KIFKEQ_clean_linker_1, # of connection points: 2
#     Edge 25, Type (0, 0), BuildingBlock: KIFKEQ_clean_linker_1, # of connection points: 2
#     Edge 26, Type (0, 0), BuildingBlock: KIFKEQ_clean_linker_1, # of connection points: 2
#     Edge 27, Type (0, 0), BuildingBlock: KIFKEQ_clean_linker_1, # of connection points: 2
#     Edge 28, Type (0, 0), BuildingBlock: KIFKEQ_clean_linker_1, # of connection points: 2
#     Edge 29, Type (0, 0), BuildingBlock: KIFKEQ_clean_linker_1, # of connection points: 2
#     Edge 30, Type (0, 0), BuildingBlock: KIFKEQ_clean_linker_1, # of connection points: 2
#     Edge 31, Type (0, 0), BuildingBlock: KIFKEQ_clean_linker_1, # of connection points: 2
#     Edge 32, Type (0, 0), BuildingBlock: KIFKEQ_clean_linker_1, # of connection points: 2
#     Edge 33, Type (0, 0), BuildingBlock: KIFKEQ_clean_linker_1, # of connection points: 2
#     Edge 34, Type (0, 0), BuildingBlock: KIFKEQ_clean_linker_1, # of connection points: 2
#     Edge 35, Type (0, 0), BuildingBlock: KIFKEQ_clean_linker_1, # of connection points: 2
#     Edge 36, Type (0, 0), BuildingBlock: KIFKEQ_clean_linker_1, # of connection points: 2
#     Edge 37, Type (0, 0), BuildingBlock: KIFKEQ_clean_linker_1, # of connection points: 2
#     Edge 38, Type (0, 0), BuildingBlock: KIFKEQ_clean_linker_1, # of connection points: 2
#     Edge 39, Type (0, 0), BuildingBlock: KIFKEQ_clean_linker_1, # of connection points: 2
#     Edge 40, Type (0, 0), BuildingBlock: KIFKEQ_clean_linker_1, # of connection points: 2
#     Edge 41, Type (0, 0), BuildingBlock: KIFKEQ_clean_linker_1, # of connection points: 2
#     Edge 42, Type (0, 0), BuildingBlock: KIFKEQ_clean_linker_1, # of connection points: 2
#     Edge 43, Type (0, 0), BuildingBlock: KIFKEQ_clean_linker_1, # of connection points: 2
#     Edge 44, Type (0, 0), BuildingBlock: KIFKEQ_clean_linker_1, # of connection points: 2
#     Edge 45, Type (0, 0), BuildingBlock: KIFKEQ_clean_linker_1, # of connection points: 2
#     Edge 46, Type (0, 0), BuildingBlock: KIFKEQ_clean_linker_1, # of connection points: 2
#     Edge 47, Type (0, 0), BuildingBlock: KIFKEQ_clean_linker_1, # of connection points: 2
#     Edge 48, Type (0, 0), BuildingBlock: KIFKEQ_clean_linker_1, # of connection points: 2
#     Edge 49, Type (0, 0), BuildingBlock: KIFKEQ_clean_linker_1, # of connection points: 2
#     Edge 50, Type (0, 0), BuildingBlock: KIFKEQ_clean_linker_1, # of connection points: 2
#     Edge 51, Type (0, 0), BuildingBlock: KIFKEQ_clean_linker_1, # of connection points: 2
#     Edge 52, Type (0, 0), BuildingBlock: KIFKEQ_clean_linker_1, # of connection points: 2
#     Edge 53, Type (0, 0), BuildingBlock: KIFKEQ_clean_linker_1, # of connection points: 2
#     Edge 54, Type (0, 0), BuildingBlock: KIFKEQ_clean_linker_1, # of connection points: 2
#     Edge 55, Type (0, 0), BuildingBlock: KIFKEQ_clean_linker_1, # of connection points: 2
#     Edge 56, Type (0, 0), BuildingBlock: KIFKEQ_clean_linker_1, # of connection points: 2
#     Edge 57, Type (0, 0), BuildingBlock: KIFKEQ_clean_linker_1, # of connection points: 2
#     Edge 58, Type (0, 0), BuildingBlock: KIFKEQ_clean_linker_1, # of connection points: 2
#     Edge 59, Type (0, 0), BuildingBlock: KIFKEQ_clean_linker_1, # of connection points: 2
#     Edge 60, Type (0, 0), BuildingBlock: KIFKEQ_clean_linker_1, # of connection points: 2
#     Edge 61, Type (0, 0), BuildingBlock: KIFKEQ_clean_linker_1, # of connection points: 2
#     Edge 62, Type (0, 0), BuildingBlock: KIFKEQ_clean_linker_1, # of connection points: 2
#     Edge 63, Type (0, 0), BuildingBlock: KIFKEQ_clean_linker_1, # of connection points: 2
#     Edge 64, Type (0, 0), BuildingBlock: KIFKEQ_clean_linker_1, # of connection points: 2
#     Edge 65, Type (0, 0), BuildingBlock: KIFKEQ_clean_linker_1, # of connection points: 2
#     Edge 66, Type (0, 0), BuildingBlock: KIFKEQ_clean_linker_1, # of connection points: 2
#     Edge 67, Type (0, 0), BuildingBlock: KIFKEQ_clean_linker_1, # of connection points: 2
#     Edge 68, Type (0, 0), BuildingBlock: KIFKEQ_clean_linker_1, # of connection points: 2
#     Edge 69, Type (0, 0), BuildingBlock: KIFKEQ_clean_linker_1, # of connection points: 2
#     Edge 70, Type (0, 0), BuildingBlock: KIFKEQ_clean_linker_1, # of connection points: 2
#     Edge 71, Type (0, 0), BuildingBlock: KIFKEQ_clean_linker_1, # of connection points: 2
#     Edge 72, Type (0, 0), BuildingBlock: KIFKEQ_clean_linker_1, # of connection points: 2
#     Edge 73, Type (0, 0), BuildingBlock: KIFKEQ_clean_linker_1, # of connection points: 2
#     Edge 74, Type (0, 0), BuildingBlock: KIFKEQ_clean_linker_1, # of connection points: 2
#     Edge 75, Type (0, 0), BuildingBlock: KIFKEQ_clean_linker_1, # of connection points: 2
#     Edge 76, Type (0, 0), BuildingBlock: KIFKEQ_clean_linker_1, # of connection points: 2
#     Edge 77, Type (0, 0), BuildingBlock: KIFKEQ_clean_linker_1, # of connection points: 2
#     Edge 78, Type (0, 0), BuildingBlock: KIFKEQ_clean_linker_1, # of connection points: 2
#     Edge 79, Type (0, 0), BuildingBlock: KIFKEQ_clean_linker_1, # of connection points: 2
#     Edge 80, Type (0, 0), BuildingBlock: KIFKEQ_clean_linker_1, # of connection points: 2
#     Edge 81, Type (0, 0), BuildingBlock: KIFKEQ_clean_linker_1, # of connection points: 2
#     Edge 82, Type (0, 0), BuildingBlock: KIFKEQ_clean_linker_1, # of connection points: 2
#     Edge 83, Type (0, 0), BuildingBlock: KIFKEQ_clean_linker_1, # of connection points: 2
#     Edge 84, Type (0, 0), BuildingBlock: KIFKEQ_clean_linker_1, # of connection points: 2
#     Edge 85, Type (0, 0), BuildingBlock: KIFKEQ_clean_linker_1, # of connection points: 2
#     Edge 86, Type (0, 0), BuildingBlock: KIFKEQ_clean_linker_1, # of connection points: 2
#     Edge 87, Type (0, 0), BuildingBlock: KIFKEQ_clean_linker_1, # of connection points: 2
#     Edge 88, Type (0, 0), BuildingBlock: KIFKEQ_clean_linker_1, # of connection points: 2
#     Edge 89, Type (0, 0), BuildingBlock: KIFKEQ_clean_linker_1, # of connection points: 2
#     Edge 90, Type (0, 0), BuildingBlock: KIFKEQ_clean_linker_1, # of connection points: 2
#     Edge 91, Type (0, 0), BuildingBlock: KIFKEQ_clean_linker_1, # of connection points: 2
#     Edge 92, Type (0, 0), BuildingBlock: KIFKEQ_clean_linker_1, # of connection points: 2
#     Edge 93, Type (0, 0), BuildingBlock: KIFKEQ_clean_linker_1, # of connection points: 2
#     Edge 94, Type (0, 0), BuildingBlock: KIFKEQ_clean_linker_1, # of connection points: 2
#     Edge 95, Type (0, 0), BuildingBlock: KIFKEQ_clean_linker_1, # of connection points: 2
#     Edge 96, Type (0, 0), BuildingBlock: KIFKEQ_clean_linker_1, # of connection points: 2
#     Edge 97, Type (0, 0), BuildingBlock: KIFKEQ_clean_linker_1, # of connection points: 2
#     Edge 98, Type (0, 0), BuildingBlock: KIFKEQ_clean_linker_1, # of connection points: 2
#     Edge 99, Type (0, 0), BuildingBlock: KIFKEQ_clean_linker_1, # of connection points: 2
#     Edge 100, Type (0, 0), BuildingBlock: KIFKEQ_clean_linker_1, # of connection points: 2
#     Edge 101, Type (0, 0), BuildingBlock: KIFKEQ_clean_linker_1, # of connection points: 2
#     Edge 102, Type (0, 0), BuildingBlock: KIFKEQ_clean_linker_1, # of connection points: 2
#     Edge 103, Type (0, 0), BuildingBlock: KIFKEQ_clean_linker_1, # of connection points: 2
#     Edge 104, Type (0, 0), BuildingBlock: KIFKEQ_clean_linker_1, # of connection points: 2
#     Edge 105, Type (0, 0), BuildingBlock: KIFKEQ_clean_linker_1, # of connection points: 2
#     Edge 106, Type (0, 0), BuildingBlock: KIFKEQ_clean_linker_1, # of connection points: 2
#     Edge 107, Type (0, 0), BuildingBlock: KIFKEQ_clean_linker_1, # of connection points: 2
#     Edge 108, Type (0, 0), BuildingBlock: KIFKEQ_clean_linker_1, # of connection points: 2
#     Edge 109, Type (0, 0), BuildingBlock: KIFKEQ_clean_linker_1, # of connection points: 2
#     Edge 110, Type (0, 0), BuildingBlock: KIFKEQ_clean_linker_1, # of connection points: 2
#     Edge 111, Type (0, 0), BuildingBlock: KIFKEQ_clean_linker_1, # of connection points: 2
#     Edge 112, Type (0, 0), BuildingBlock: KIFKEQ_clean_linker_1, # of connection points: 2
#     Edge 113, Type (0, 0), BuildingBlock: KIFKEQ_clean_linker_1, # of connection points: 2
#     Edge 114, Type (0, 0), BuildingBlock: KIFKEQ_clean_linker_1, # of connection points: 2
#     Edge 115, Type (0, 0), BuildingBlock: KIFKEQ_clean_linker_1, # of connection points: 2
#     Edge 116, Type (0, 0), BuildingBlock: KIFKEQ_clean_linker_1, # of connection points: 2
#     Edge 117, Type (0, 0), BuildingBlock: KIFKEQ_clean_linker_1, # of connection points: 2
#     Edge 118, Type (0, 0), BuildingBlock: KIFKEQ_clean_linker_1, # of connection points: 2
#     Edge 119, Type (0, 0), BuildingBlock: KIFKEQ_clean_linker_1, # of connection points: 2
# Relax obj value: 0.205
# Max RMSD: 0.299
# Mean RMSD: 0.292
data_MOF--net-tes--node1-EBIMEJ_clean_sbu_0--edge1-KIFKEQ_clean_linker_1
_symmetry_space_group_name_H-M    P1
_symmetry_Int_Tables_number       1
_symmetry_cell_setting            triclinic
loop_
_symmetry_equiv_pos_as_xyz
'x, y, z'
_cell_length_a     50.513246
_cell_length_b     50.167393
_cell_length_c     51.438207
_cell_angle_alpha  90.808987
_cell_angle_beta   91.403466
_cell_angle_gamma 91.089846
loop_
_atom_site_label
_atom_site_type_symbol
_atom_site_fract_x
_atom_site_fract_y
_atom_site_fract_z
_atom_type_partial_charge
Co0 Co 0.09417 0.37885 0.42777 0.0
Co1 Co 0.12477 0.40796 0.37829 0.0
Co2 Co 0.13401 0.34954 0.39252 0.0
H3 H 0.11961 0.37109 0.409 0.0
O4 O 0.12848 0.38605 0.41054 0.0
H5 H 0.13984 0.38676 0.36236 0.0
O6 O 0.13125 0.3717 0.36059 0.0
Co7 Co 0.16536 0.37968 0.34374 0.0
O8 O 0.15317 0.41117 0.32234 0.0
O9 O 0.12025 0.42836 0.34491 0.0
O10 O 0.16903 0.33913 0.34251 0.0
O11 O 0.14591 0.31833 0.37308 0.0
O12 O 0.05341 0.37833 0.4281 0.0
O13 O 0.07587 0.40228 0.45415 0.0
O14 O 0.1905 0.40861 0.35771 0.0
O15 O 0.16185 0.42724 0.38401 0.0
C16 C 0.12261 0.32869 0.44621 0.0
C17 C 0.10407 0.43989 0.42009 0.0
C18 C 0.19707 0.37126 0.30985 0.0
C19 C 0.07526 0.33093 0.39828 0.0
C20 C 0.1347 0.42794 0.32477 0.0
C21 C 0.16069 0.31801 0.35345 0.0
C22 C 0.05305 0.39479 0.4467 0.0
C23 C 0.185 0.42701 0.37376 0.0
O24 O 0.1057 0.34701 0.44981 0.0
O25 O 0.13638 0.32781 0.42554 0.0
O26 O 0.11229 0.43897 0.39708 0.0
O27 O 0.09957 0.4193 0.43386 0.0
O28 O 0.20377 0.37613 0.3332 0.0
O29 O 0.17241 0.37044 0.30608 0.0
O30 O 0.07134 0.34678 0.41717 0.0
O31 O 0.09667 0.33289 0.38527 0.0
Co32 Co 0.88519 0.92686 0.59936 0.0
Co33 Co 0.91711 0.87815 0.63066 0.0
Co34 Co 0.85831 0.88864 0.639 0.0
H35 H 0.8785 0.90697 0.62437 0.0
O36 O 0.89316 0.90953 0.63324 0.0
H37 H 0.89718 0.85985 0.64522 0.0
O38 O 0.88236 0.85741 0.63659 0.0
Co39 Co 0.89096 0.83894 0.66942 0.0
O40 O 0.92449 0.81959 0.65861 0.0
O41 O 0.94071 0.84568 0.62768 0.0
O42 O 0.85488 0.84848 0.6843 0.0
O43 O 0.82964 0.86649 0.65278 0.0
O44 O 0.89058 0.93626 0.56141 0.0
O45 O 0.89706 0.9652 0.59046 0.0
O46 O 0.91888 0.85481 0.69403 0.0
O47 O 0.93466 0.88545 0.66731 0.0
C48 C 0.83509 0.94342 0.62833 0.0
C49 C 0.94301 0.91039 0.59476 0.0
C50 C 0.87955 0.79551 0.68785 0.0
C51 C 0.83896 0.89422 0.5817 0.0
C52 C 0.94173 0.82446 0.64144 0.0
C53 C 0.83227 0.85468 0.67445 0.0
C54 C 0.89662 0.96022 0.56642 0.0
C55 C 0.93526 0.8736 0.6895 0.0
O56 O 0.85382 0.94858 0.61265 0.0
O57 O 0.83435 0.92126 0.64078 0.0
O58 O 0.94542 0.90023 0.61716 0.0
O59 O 0.92034 0.91424 0.58394 0.0
O60 O 0.90123 0.80764 0.69206 0.0
O61 O 0.86415 0.80809 0.67319 0.0
O62 O 0.85302 0.91506 0.5787 0.0
O63 O 0.84216 0.87991 0.60216 0.0
Co64 Co 0.42609 0.62854 0.92529 0.0
Co65 Co 0.38962 0.59018 0.87585 0.0
Co66 Co 0.3815 0.65 0.88935 0.0
H67 H 0.39873 0.63094 0.90635 0.0
O68 O 0.39087 0.61551 0.90848 0.0
H69 H 0.37459 0.61113 0.85943 0.0
O70 O 0.3834 0.62598 0.85787 0.0
Co71 Co 0.34891 0.61794 0.83975 0.0
O72 O 0.35948 0.58623 0.8175 0.0
O73 O 0.38992 0.56739 0.84314 0.0
O74 O 0.33192 0.64823 0.85973 0.0
O75 O 0.36438 0.67755 0.86883 0.0
O76 O 0.46615 0.62363 0.92456 0.0
O77 O 0.44467 0.61264 0.95701 0.0
O78 O 0.32399 0.58988 0.85353 0.0
O79 O 0.35204 0.57473 0.88363 0.0
C80 C 0.39443 0.67645 0.94235 0.0
C81 C 0.41894 0.57061 0.91006 0.0
C82 C 0.3331 0.63471 0.79766 0.0
C83 C 0.43901 0.67455 0.89429 0.0
C84 C 0.37645 0.56821 0.82174 0.0
C85 C 0.34097 0.67219 0.86049 0.0
C86 C 0.46687 0.61351 0.94666 0.0
C87 C 0.32904 0.57403 0.87197 0.0
O88 O 0.41358 0.66055 0.9466 0.0
O89 O 0.37929 0.67385 0.92188 0.0
O90 O 0.40248 0.55906 0.89507 0.0
O91 O 0.4225 0.59497 0.90457 0.0
O92 O 0.32593 0.61279 0.80692 0.0
O93 O 0.34938 0.64726 0.81224 0.0
O94 O 0.44458 0.66212 0.91494 0.0
O95 O 0.41749 0.66888 0.88095 0.0
Co96 Co 0.63887 0.17412 0.18303 0.0
Co97 Co 0.66906 0.14003 0.1322 0.0
Co98 Co 0.61061 0.1319 0.14739 0.0
H99 H 0.63241 0.14722 0.16404 0.0
O100 O 0.64724 0.13877 0.16538 0.0
H101 H 0.64655 0.12516 0.11626 0.0
O102 O 0.63206 0.13407 0.11517 0.0
Co103 Co 0.63723 0.09974 0.0966 0.0
O104 O 0.67027 0.10838 0.07636 0.0
O105 O 0.68895 0.14245 0.09878 0.0
O106 O 0.59682 0.09716 0.09532 0.0
O107 O 0.57865 0.1196 0.12806 0.0
O108 O 0.65167 0.21266 0.18023 0.0
O109 O 0.65438 0.19301 0.21571 0.0
O110 O 0.66348 0.07373 0.11116 0.0
O111 O 0.68471 0.10247 0.13786 0.0
C112 C 0.59056 0.14335 0.20194 0.0
C113 C 0.69336 0.17149 0.16464 0.0
C114 C 0.62579 0.07048 0.05962 0.0
C115 C 0.59077 0.18884 0.15643 0.0
C116 C 0.68797 0.12672 0.07896 0.0
C117 C 0.57677 0.10551 0.10736 0.0
C118 C 0.65871 0.21427 0.20373 0.0
C119 C 0.6822 0.07899 0.12743 0.0
O120 O 0.60862 0.16132 0.20612 0.0
O121 O 0.58956 0.12949 0.18068 0.0
O122 O 0.70121 0.15259 0.15086 0.0
O123 O 0.66976 0.17822 0.15941 0.0
O124 O 0.62993 0.06219 0.08232 0.0
O125 O 0.62742 0.09542 0.05819 0.0
O126 O 0.60419 0.19184 0.17742 0.0
O127 O 0.5959 0.16958 0.1406 0.0
Co128 Co 0.09485 0.62691 0.08494 0.0
Co129 Co 0.12219 0.59633 0.13525 0.0
Co130 Co 0.13306 0.65527 0.12501 0.0
H131 H 0.11918 0.63454 0.10624 0.0
O132 O 0.12786 0.61988 0.10476 0.0
H133 H 0.13637 0.61702 0.15379 0.0
O134 O 0.12782 0.63172 0.15536 0.0
Co135 Co 0.16068 0.62419 0.17528 0.0
O136 O 0.15161 0.58855 0.19126 0.0
O137 O 0.11682 0.57362 0.16719 0.0
O138 O 0.17799 0.65881 0.16359 0.0
O139 O 0.14598 0.68445 0.14751 0.0
O140 O 0.05522 0.61989 0.09141 0.0
O141 O 0.0731 0.60522 0.05817 0.0
O142 O 0.18773 0.59994 0.15993 0.0
O143 O 0.15961 0.57977 0.13179 0.0
C144 C 0.12621 0.67745 0.07051 0.0
C145 C 0.10542 0.5667 0.08877 0.0
C146 C 0.17208 0.6364 0.2207 0.0
C147 C 0.07706 0.67477 0.11254 0.0
C148 C 0.13258 0.57184 0.18707 0.0
C149 C 0.16848 0.68171 0.1586 0.0
C150 C 0.05211 0.60675 0.07057 0.0
C151 C 0.18287 0.58197 0.14274 0.0
O152 O 0.10952 0.65863 0.0645 0.0
O153 O 0.1378 0.67872 0.09312 0.0
O154 O 0.11 0.56644 0.11317 0.0
O155 O 0.10383 0.5882 0.07566 0.0
O156 O 0.17468 0.61351 0.21107 0.0
O157 O 0.16292 0.65248 0.20451 0.0
O158 O 0.0752 0.6608 0.09178 0.0
O159 O 0.09574 0.67058 0.12937 0.0
Co160 Co 0.62798 0.84324 0.33862 0.0
Co161 Co 0.66337 0.87159 0.38888 0.0
Co162 Co 0.60455 0.8833 0.37788 0.0
H163 H 0.62342 0.86802 0.35973 0.0
O164 O 0.6386 0.87614 0.35805 0.0
H165 H 0.64392 0.88591 0.4071 0.0
O166 O 0.62885 0.87759 0.40857 0.0
Co167 Co 0.6388 0.91054 0.42834 0.0
O168 O 0.67333 0.9008 0.44631 0.0
O169 O 0.68776 0.86755 0.42135 0.0
O170 O 0.60719 0.9301 0.41284 0.0
O171 O 0.57768 0.89876 0.39989 0.0
O172 O 0.63967 0.80422 0.33864 0.0
O173 O 0.63388 0.82487 0.30402 0.0
O174 O 0.6685 0.93472 0.41687 0.0
O175 O 0.67997 0.90936 0.38343 0.0
C176 C 0.57858 0.87504 0.324 0.0
C177 C 0.68975 0.85183 0.34335 0.0
C178 C 0.62475 0.92355 0.47196 0.0
C179 C 0.58133 0.82613 0.36792 0.0
C180 C 0.68994 0.88255 0.44195 0.0
C181 C 0.58324 0.92158 0.4099 0.0
C182 C 0.64004 0.8032 0.3142 0.0
C183 C 0.68286 0.93093 0.39729 0.0
O184 O 0.59484 0.85643 0.31916 0.0
O185 O 0.58061 0.8888 0.34541 0.0
O186 O 0.69209 0.85966 0.36693 0.0
O187 O 0.66752 0.84782 0.33134 0.0
O188 O 0.64696 0.92935 0.46298 0.0
O189 O 0.61034 0.91021 0.4562 0.0
O190 O 0.59526 0.8228 0.34804 0.0
O191 O 0.58571 0.84646 0.38322 0.0
Co192 Co 0.3355 0.37995 0.66421 0.0
Co193 Co 0.38845 0.34357 0.63256 0.0
Co194 Co 0.37532 0.40394 0.6258 0.0
H195 H 0.35703 0.38367 0.64005 0.0
O196 O 0.35538 0.36842 0.6318 0.0
H197 H 0.40607 0.36567 0.62034 0.0
O198 O 0.40713 0.38031 0.62944 0.0
Co199 Co 0.42795 0.37411 0.59776 0.0
O200 O 0.45004 0.34255 0.60929 0.0
O201 O 0.42143 0.32069 0.63395 0.0
O202 O 0.41249 0.40737 0.58097 0.0
O203 O 0.39704 0.43314 0.61271 0.0
O204 O 0.30246 0.38574 0.6854 0.0
O205 O 0.33223 0.36058 0.69865 0.0
O206 O 0.41709 0.34362 0.57377 0.0
O207 O 0.38097 0.3315 0.59462 0.0
C208 C 0.32018 0.42917 0.63508 0.0
C209 C 0.35032 0.32221 0.65418 0.0
C210 C 0.46949 0.38867 0.57809 0.0
C211 C 0.3696 0.4235 0.6827 0.0
C212 C 0.44416 0.32272 0.62342 0.0
C213 C 0.4071 0.43032 0.59049 0.0
C214 C 0.31025 0.37061 0.70313 0.0
C215 C 0.39621 0.3293 0.57506 0.0
O216 O 0.31401 0.41119 0.65135 0.0
O217 O 0.34241 0.42836 0.623 0.0
O218 O 0.36804 0.31084 0.64201 0.0
O219 O 0.35325 0.34726 0.65421 0.0
O220 O 0.46117 0.36497 0.57806 0.0
O221 O 0.45443 0.40421 0.58964 0.0
O222 O 0.34793 0.41105 0.68585 0.0
O223 O 0.38346 0.41966 0.66236 0.0
Co224 Co 0.87963 0.16826 0.83987 0.0
Co225 Co 0.85005 0.13738 0.88935 0.0
Co226 Co 0.9076 0.12759 0.87582 0.0
H227 H 0.88675 0.14273 0.85905 0.0
O228 O 0.87173 0.13409 0.85733 0.0
H229 H 0.87095 0.12178 0.90545 0.0
O230 O 0.88582 0.13053 0.90744 0.0
Co231 Co 0.87824 0.09558 0.92358 0.0
O232 O 0.84583 0.10584 0.94396 0.0
O233 O 0.82987 0.14081 0.92251 0.0
O234 O 0.91008 0.07989 0.90548 0.0
O235 O 0.93693 0.11367 0.89611 0.0
O236 O 0.85965 0.18384 0.80936 0.0
O237 O 0.87947 0.20901 0.8365 0.0
O238 O 0.84836 0.07131 0.91086 0.0
O239 O 0.83133 0.10008 0.88291 0.0
C240 C 0.92829 0.13793 0.82193 0.0
C241 C 0.8185 0.15956 0.84745 0.0
C242 C 0.89899 0.07667 0.96249 0.0
C243 C 0.92714 0.18647 0.87066 0.0
C244 C 0.82952 0.12489 0.9418 0.0
C245 C 0.93325 0.09058 0.90511 0.0
C246 C 0.86572 0.20743 0.81582 0.0
C247 C 0.83089 0.07694 0.89376 0.0
O248 O 0.91052 0.15539 0.81802 0.0
O249 O 0.92924 0.1245 0.84304 0.0
O250 O 0.81941 0.15055 0.87032 0.0
O251 O 0.83911 0.16427 0.83409 0.0
O252 O 0.89915 0.06581 0.94038 0.0
O253 O 0.88664 0.09813 0.96273 0.0
O254 O 0.91104 0.19123 0.85205 0.0
O255 O 0.92537 0.16445 0.88311 0.0
Co256 Co 0.4224 0.09611 0.38205 0.0
Co257 Co 0.3729 0.13049 0.41232 0.0
Co258 Co 0.38734 0.13857 0.35557 0.0
H259 H 0.40399 0.12278 0.37599 0.0
O260 O 0.40598 0.13144 0.39063 0.0
H261 H 0.35594 0.14477 0.39092 0.0
O262 O 0.35473 0.13549 0.37663 0.0
Co263 Co 0.33554 0.16932 0.38221 0.0
O264 O 0.31393 0.15872 0.41389 0.0
O265 O 0.33984 0.12885 0.43316 0.0
O266 O 0.34862 0.18517 0.34786 0.0
O267 O 0.36708 0.15183 0.326 0.0
O268 O 0.42652 0.05659 0.38895 0.0
O269 O 0.45774 0.08375 0.39706 0.0
O270 O 0.34602 0.1919 0.41372 0.0
O271 O 0.38084 0.16851 0.42621 0.0
C272 C 0.44241 0.1274 0.3356 0.0
C273 C 0.40496 0.09868 0.43592 0.0
C274 C 0.29658 0.19004 0.36198 0.0
C275 C 0.39324 0.08061 0.33505 0.0
C276 C 0.31846 0.14207 0.43201 0.0
C277 C 0.3546 0.17354 0.32653 0.0
C278 C 0.44989 0.05985 0.39732 0.0
C279 C 0.36619 0.18904 0.42857 0.0
O280 O 0.44572 0.10936 0.3527 0.0
O281 O 0.42132 0.1415 0.33482 0.0
O282 O 0.39254 0.11888 0.44297 0.0
O283 O 0.39926 0.09011 0.41305 0.0
O284 O 0.3185 0.20185 0.36601 0.0
O285 O 0.29688 0.16619 0.36906 0.0
O286 O 0.41329 0.07591 0.34935 0.0
O287 O 0.37959 0.10169 0.33861 0.0
Co288 Co 0.0849 0.08707 0.63223 0.0
Co289 Co 0.13382 0.12371 0.59979 0.0
Co290 Co 0.12185 0.13039 0.65783 0.0
H291 H 0.10406 0.11432 0.63764 0.0
O292 O 0.1015 0.12287 0.62325 0.0
H293 H 0.15094 0.13901 0.62101 0.0
O294 O 0.15341 0.12977 0.63492 0.0
Co295 Co 0.16962 0.16571 0.62937 0.0
O296 O 0.193 0.15303 0.59969 0.0
O297 O 0.16623 0.12398 0.57799 0.0
O298 O 0.1529 0.17899 0.66296 0.0
O299 O 0.14353 0.14411 0.68692 0.0
O300 O 0.08622 0.04888 0.61843 0.0
O301 O 0.0503 0.06875 0.61968 0.0
O302 O 0.15904 0.18734 0.59859 0.0
O303 O 0.12499 0.1612 0.5861 0.0
C304 C 0.06686 0.11904 0.67916 0.0
C305 C 0.10088 0.09092 0.57796 0.0
C306 C 0.2003 0.20072 0.646 0.0
C307 C 0.11542 0.07342 0.67805 0.0
C308 C 0.18819 0.13704 0.58046 0.0
C309 C 0.15351 0.16725 0.6848 0.0
C310 C 0.0618 0.04766 0.61355 0.0
C311 C 0.13877 0.18293 0.58409 0.0
O312 O 0.06152 0.10188 0.66098 0.0
O313 O 0.0893 0.13166 0.68052 0.0
O314 O 0.11336 0.11063 0.56941 0.0
O315 O 0.10783 0.08442 0.60088 0.0
O316 O 0.18162 0.20464 0.63009 0.0
O317 O 0.20153 0.17678 0.65278 0.0
O318 O 0.09382 0.06893 0.66557 0.0
O319 O 0.13039 0.09351 0.67254 0.0
Co320 Co 0.17593 0.84128 0.88432 0.0
Co321 Co 0.14202 0.89221 0.85146 0.0
Co322 Co 0.13498 0.87792 0.9093 0.0
H323 H 0.14996 0.86083 0.88908 0.0
O324 O 0.1414 0.85889 0.87428 0.0
H325 H 0.12728 0.90857 0.87247 0.0
O326 O 0.13641 0.91052 0.8869 0.0
Co327 Co 0.10173 0.92755 0.88006 0.0
O328 O 0.11146 0.94965 0.84811 0.0
O329 O 0.14321 0.9256 0.83024 0.0
O330 O 0.08971 0.91805 0.91705 0.0
O331 O 0.12249 0.89815 0.93892 0.0
O332 O 0.21461 0.83555 0.8762 0.0
O333 O 0.18642 0.80462 0.87112 0.0
O334 O 0.07759 0.91435 0.85057 0.0
O335 O 0.10452 0.88381 0.83509 0.0
C336 C 0.1452 0.82202 0.9306 0.0
C337 C 0.1732 0.85899 0.83041 0.0
C338 C 0.07491 0.96419 0.89546 0.0
C339 C 0.19288 0.87204 0.93019 0.0
C340 C 0.12861 0.94618 0.83054 0.0
C341 C 0.10116 0.91097 0.93827 0.0
C342 C 0.21024 0.81177 0.86929 0.0
C343 C 0.08212 0.89584 0.83429 0.0
O344 O 0.16204 0.81731 0.913 0.0
O345 O 0.13286 0.84425 0.93138 0.0
O346 O 0.15488 0.87284 0.8213 0.0
O347 O 0.18024 0.86515 0.85363 0.0
O348 O 0.0688 0.93997 0.89798 0.0
O349 O 0.09654 0.9677 0.88436 0.0
O350 O 0.19681 0.85117 0.91676 0.0
O351 O 0.17228 0.88627 0.92565 0.0
Co352 Co 0.34631 0.84455 0.12715 0.0
Co353 Co 0.3785 0.89465 0.15902 0.0
Co354 Co 0.38661 0.88309 0.10161 0.0
H355 H 0.37182 0.86487 0.12106 0.0
O356 O 0.38079 0.8628 0.13543 0.0
H357 H 0.39291 0.91309 0.13916 0.0
O358 O 0.38359 0.91479 0.12497 0.0
Co359 Co 0.4179 0.93419 0.13228 0.0
O360 O 0.40553 0.95519 0.16424 0.0
O361 O 0.37601 0.92743 0.18189 0.0
O362 O 0.43343 0.92171 0.09718 0.0
O363 O 0.39908 0.90517 0.07376 0.0
O364 O 0.30593 0.83942 0.12552 0.0
O365 O 0.33037 0.81271 0.14517 0.0
O366 O 0.43972 0.92457 0.16437 0.0
O367 O 0.41626 0.88837 0.17392 0.0
C368 C 0.37522 0.8285 0.07758 0.0
C369 C 0.35695 0.85019 0.18776 0.0
C370 C 0.44137 0.97305 0.1146 0.0
C371 C 0.32753 0.87644 0.08281 0.0
C372 C 0.38877 0.94976 0.18178 0.0
C373 C 0.42179 0.91627 0.07523 0.0
C374 C 0.30713 0.81834 0.13835 0.0
C375 C 0.43659 0.90388 0.17805 0.0
O376 O 0.35733 0.82427 0.09432 0.0
O377 O 0.38982 0.84984 0.07859 0.0
O378 O 0.36746 0.87333 0.18835 0.0
O379 O 0.3502 0.83772 0.16662 0.0
O380 O 0.4517 0.95074 0.11817 0.0
O381 O 0.41745 0.97319 0.12066 0.0
O382 O 0.32266 0.85727 0.09786 0.0
O383 O 0.34978 0.88932 0.08466 0.0
Co384 Co 0.38123 0.42737 0.09661 0.0
Co385 Co 0.41644 0.3752 0.12759 0.0
Co386 Co 0.35806 0.38949 0.13795 0.0
H387 H 0.3776 0.40694 0.12192 0.0
O388 O 0.39316 0.40858 0.12943 0.0
H389 H 0.39574 0.35866 0.14285 0.0
O390 O 0.38057 0.35703 0.13475 0.0
Co391 Co 0.38876 0.339 0.16779 0.0
O392 O 0.42292 0.31972 0.16016 0.0
O393 O 0.43823 0.34136 0.12583 0.0
O394 O 0.35585 0.35318 0.18508 0.0
O395 O 0.32955 0.36878 0.15333 0.0
O396 O 0.39113 0.43463 0.05934 0.0
O397 O 0.38948 0.46601 0.08634 0.0
O398 O 0.41548 0.3562 0.19238 0.0
O399 O 0.43376 0.38348 0.16386 0.0
C400 C 0.33389 0.44479 0.1274 0.0
C401 C 0.43569 0.40958 0.09695 0.0
C402 C 0.37483 0.2951 0.18366 0.0
C403 C 0.33647 0.39312 0.08113 0.0
C404 C 0.43958 0.3221 0.14203 0.0
C405 C 0.33296 0.35881 0.17571 0.0
C406 C 0.39391 0.45924 0.06327 0.0
C407 C 0.43282 0.37371 0.1869 0.0
O408 O 0.35096 0.44992 0.11008 0.0
O409 O 0.33485 0.42296 0.14045 0.0
O410 O 0.44658 0.39518 0.1137 0.0
O411 O 0.41177 0.403 0.09167 0.0
O412 O 0.39799 0.30445 0.18592 0.0
O413 O 0.35947 0.31057 0.17209 0.0
O414 O 0.34967 0.41407 0.0762 0.0
O415 O 0.34024 0.3804 0.10243 0.0
Co416 Co 0.84135 0.88074 0.16368 0.0
Co417 Co 0.89006 0.84917 0.13143 0.0
Co418 Co 0.87746 0.90824 0.12332 0.0
H419 H 0.86029 0.88744 0.13825 0.0
O420 O 0.85786 0.87247 0.12974 0.0
H421 H 0.90658 0.87009 0.11617 0.0
O422 O 0.90914 0.88486 0.12487 0.0
Co423 Co 0.92485 0.87738 0.09051 0.0
O424 O 0.94575 0.84411 0.10034 0.0
O425 O 0.92344 0.82717 0.13349 0.0
O426 O 0.91037 0.91226 0.07589 0.0
O427 O 0.89864 0.93751 0.10954 0.0
O428 O 0.84028 0.87634 0.20323 0.0
O429 O 0.8061 0.87098 0.17991 0.0
O430 O 0.91062 0.84777 0.06705 0.0
O431 O 0.88171 0.83148 0.09488 0.0
C432 C 0.82326 0.93104 0.13529 0.0
C433 C 0.85093 0.81887 0.15975 0.0
C434 C 0.96315 0.89484 0.06726 0.0
C435 C 0.87444 0.92683 0.18129 0.0
C436 C 0.94321 0.8268 0.11822 0.0
C437 C 0.90859 0.93504 0.0872 0.0
C438 C 0.81578 0.87134 0.20266 0.0
C439 C 0.89261 0.83088 0.07235 0.0
O440 O 0.81915 0.91245 0.15161 0.0
O441 O 0.84452 0.93168 0.1219 0.0
O442 O 0.87033 0.81866 0.14458 0.0
O443 O 0.83953 0.84011 0.167 0.0
O444 O 0.94017 0.89265 0.05746 0.0
O445 O 0.96435 0.8874 0.09046 0.0
O446 O 0.85505 0.91141 0.18582 0.0
O447 O 0.88667 0.92509 0.15962 0.0
Co448 Co 0.1384 0.67194 0.67974 0.0
Co449 Co 0.16756 0.64197 0.62857 0.0
Co450 Co 0.10981 0.63123 0.64182 0.0
H451 H 0.13109 0.64647 0.65925 0.0
O452 O 0.14592 0.63812 0.66055 0.0
H453 H 0.14603 0.62629 0.61176 0.0
O454 O 0.13146 0.635 0.61028 0.0
Co455 Co 0.13737 0.60038 0.59236 0.0
O456 O 0.17075 0.61078 0.57303 0.0
O457 O 0.18804 0.64573 0.59544 0.0
O458 O 0.09974 0.58672 0.59962 0.0
O459 O 0.07909 0.61876 0.62128 0.0
O460 O 0.13014 0.70735 0.6973 0.0
O461 O 0.15925 0.68268 0.71292 0.0
O462 O 0.16454 0.57542 0.60673 0.0
O463 O 0.18484 0.60474 0.63356 0.0
C464 C 0.08728 0.64253 0.69463 0.0
C465 C 0.19967 0.66862 0.66953 0.0
C466 C 0.12223 0.57612 0.5529 0.0
C467 C 0.09426 0.69131 0.64701 0.0
C468 C 0.18793 0.6297 0.57576 0.0
C469 C 0.07868 0.59813 0.60679 0.0
C470 C 0.14684 0.70401 0.71541 0.0
C471 C 0.18301 0.58116 0.62312 0.0
O472 O 0.10427 0.6615 0.6985 0.0
O473 O 0.08834 0.62711 0.67453 0.0
O474 O 0.19858 0.65542 0.64827 0.0
O475 O 0.17914 0.675 0.68217 0.0
O476 O 0.12221 0.56641 0.5753 0.0
O477 O 0.13046 0.59991 0.55293 0.0
O478 O 0.11163 0.6971 0.66451 0.0
O479 O 0.0933 0.66801 0.63629 0.0
Co480 Co 0.59134 0.87426 0.92185 0.0
Co481 Co 0.6242 0.90866 0.87649 0.0
Co482 Co 0.63304 0.8492 0.88667 0.0
H483 H 0.61767 0.86902 0.90392 0.0
O484 O 0.62625 0.88395 0.90703 0.0
H485 H 0.6394 0.88861 0.85919 0.0
O486 O 0.63068 0.87378 0.85618 0.0
Co487 Co 0.66569 0.88266 0.84111 0.0
O488 O 0.65252 0.91379 0.81994 0.0
O489 O 0.62151 0.93209 0.8445 0.0
O490 O 0.67936 0.8507 0.86071 0.0
O491 O 0.64747 0.82108 0.86512 0.0
O492 O 0.55998 0.89975 0.92313 0.0
O493 O 0.55853 0.86315 0.94169 0.0
O494 O 0.68776 0.91457 0.85232 0.0
O495 O 0.66172 0.92634 0.88454 0.0
C496 C 0.62158 0.82475 0.93908 0.0
C497 C 0.60311 0.93576 0.92114 0.0
C498 C 0.69465 0.86629 0.80703 0.0
C499 C 0.57491 0.82778 0.89004 0.0
C500 C 0.63521 0.93156 0.82372 0.0
C501 C 0.66991 0.82732 0.85638 0.0
C502 C 0.54671 0.88439 0.93704 0.0
C503 C 0.68331 0.92958 0.87168 0.0
O504 O 0.60369 0.84204 0.94291 0.0
O505 O 0.63576 0.8254 0.91859 0.0
O506 O 0.61155 0.93789 0.89815 0.0
O507 O 0.59764 0.91345 0.9318 0.0
O508 O 0.70273 0.87399 0.82921 0.0
O509 O 0.66993 0.86756 0.80423 0.0
O510 O 0.57035 0.84193 0.90988 0.0
O511 O 0.59641 0.83142 0.87742 0.0
Co512 Co 0.9197 0.13239 0.43159 0.0
Co513 Co 0.88722 0.09519 0.37808 0.0
Co514 Co 0.87968 0.15547 0.39137 0.0
H515 H 0.89485 0.13579 0.4095 0.0
O516 O 0.88662 0.12043 0.41068 0.0
H517 H 0.87269 0.11617 0.36124 0.0
O518 O 0.88168 0.13095 0.35976 0.0
Co519 Co 0.84687 0.12267 0.34164 0.0
O520 O 0.86142 0.09349 0.3177 0.0
O521 O 0.88843 0.07209 0.34504 0.0
O522 O 0.83242 0.15549 0.36053 0.0
O523 O 0.86541 0.18372 0.36989 0.0
O524 O 0.95431 0.11506 0.44213 0.0
O525 O 0.92781 0.12714 0.47033 0.0
O526 O 0.82713 0.08819 0.34832 0.0
O527 O 0.84928 0.08034 0.38495 0.0
C528 C 0.88919 0.1815 0.44621 0.0
C529 C 0.91562 0.07557 0.41373 0.0
C530 C 0.81366 0.14036 0.31104 0.0
C531 C 0.93775 0.17696 0.3997 0.0
C532 C 0.87713 0.07432 0.32248 0.0
C533 C 0.84239 0.17908 0.36029 0.0
C534 C 0.94939 0.11617 0.46589 0.0
C535 C 0.82968 0.07495 0.36903 0.0
O536 O 0.90644 0.16421 0.45245 0.0
O537 O 0.87682 0.18017 0.42387 0.0
O538 O 0.89949 0.06435 0.39807 0.0
O539 O 0.91989 0.1 0.40876 0.0
O540 O 0.80812 0.1283 0.33147 0.0
O541 O 0.83822 0.14272 0.30807 0.0
O542 O 0.9416 0.16394 0.42042 0.0
O543 O 0.91684 0.17245 0.38513 0.0
Co544 Co 0.59722 0.1283 0.58232 0.0
Co545 Co 0.6263 0.09917 0.63396 0.0
Co546 Co 0.63857 0.15699 0.61985 0.0
H547 H 0.62279 0.13577 0.60267 0.0
O548 O 0.63079 0.12066 0.60172 0.0
H549 H 0.64223 0.12042 0.65067 0.0
O550 O 0.63425 0.13547 0.65168 0.0
Co551 Co 0.6676 0.12805 0.67104 0.0
O552 O 0.65858 0.09282 0.68865 0.0
O553 O 0.62176 0.07878 0.66738 0.0
O554 O 0.6821 0.16585 0.66494 0.0
O555 O 0.65248 0.18756 0.64018 0.0
O556 O 0.5845 0.12642 0.54433 0.0
O557 O 0.56031 0.1126 0.57385 0.0
O558 O 0.69326 0.10345 0.65406 0.0
O559 O 0.66297 0.08131 0.62976 0.0
C560 C 0.62584 0.18009 0.56708 0.0
C561 C 0.60211 0.06685 0.59192 0.0
C562 C 0.68244 0.13873 0.71584 0.0
C563 C 0.57894 0.17261 0.61517 0.0
C564 C 0.63852 0.077 0.6864 0.0
C565 C 0.67225 0.18731 0.65595 0.0
C566 C 0.56249 0.11622 0.54983 0.0
C567 C 0.68699 0.08416 0.63874 0.0
O568 O 0.60679 0.16309 0.56375 0.0
O569 O 0.64208 0.17864 0.58669 0.0
O570 O 0.61243 0.06802 0.61466 0.0
O571 O 0.59757 0.08744 0.57828 0.0
O572 O 0.68561 0.11658 0.70482 0.0
O573 O 0.67106 0.15508 0.70131 0.0
O574 O 0.57285 0.1552 0.59783 0.0
O575 O 0.60236 0.17388 0.62548 0.0
Co576 Co 0.13087 0.3372 0.84378 0.0
Co577 Co 0.16359 0.36903 0.8929 0.0
Co578 Co 0.10544 0.37905 0.88017 0.0
H579 H 0.12501 0.36325 0.86307 0.0
O580 O 0.1399 0.37183 0.86127 0.0
H581 H 0.14356 0.38417 0.90991 0.0
O582 O 0.1288 0.37537 0.91155 0.0
Co583 Co 0.13697 0.40989 0.92938 0.0
O584 O 0.17043 0.3997 0.94966 0.0
O585 O 0.18632 0.36632 0.92562 0.0
O586 O 0.10389 0.42763 0.91398 0.0
O587 O 0.07735 0.39385 0.90072 0.0
O588 O 0.1324 0.29619 0.84285 0.0
O589 O 0.15381 0.31943 0.81703 0.0
O590 O 0.16541 0.43492 0.91634 0.0
O591 O 0.18072 0.40655 0.88702 0.0
C592 C 0.08071 0.36728 0.82728 0.0
C593 C 0.19166 0.35034 0.84882 0.0
C594 C 0.11555 0.42271 0.96963 0.0
C595 C 0.08432 0.32029 0.87351 0.0
C596 C 0.18719 0.3813 0.94609 0.0
C597 C 0.08071 0.41724 0.91002 0.0
C598 C 0.14808 0.29631 0.82426 0.0
C599 C 0.18156 0.42963 0.89851 0.0
O600 O 0.097 0.34831 0.82376 0.0
O601 O 0.08264 0.38269 0.84745 0.0
O602 O 0.19302 0.35663 0.87274 0.0
O603 O 0.16989 0.34631 0.83586 0.0
O604 O 0.1152 0.43643 0.94942 0.0
O605 O 0.12885 0.40198 0.96743 0.0
O606 O 0.09954 0.31497 0.85494 0.0
O607 O 0.08695 0.34252 0.88628 0.0
Co608 Co 0.37852 0.67025 0.33551 0.0
Co609 Co 0.34996 0.63834 0.38466 0.0
Co610 Co 0.40778 0.6298 0.37094 0.0
H611 H 0.38624 0.64438 0.35428 0.0
O612 O 0.37151 0.63528 0.3526 0.0
H613 H 0.37127 0.6231 0.40107 0.0
O614 O 0.38605 0.63205 0.4028 0.0
Co615 Co 0.37916 0.59753 0.42022 0.0
O616 O 0.3469 0.60885 0.44053 0.0
O617 O 0.32963 0.64226 0.41785 0.0
O618 O 0.4196 0.59241 0.41983 0.0
O619 O 0.43903 0.61819 0.39031 0.0
O620 O 0.38596 0.71068 0.3353 0.0
O621 O 0.35229 0.69475 0.31667 0.0
O622 O 0.35061 0.57213 0.4059 0.0
O623 O 0.33147 0.60071 0.37912 0.0
C624 C 0.42815 0.64149 0.31724 0.0
C625 C 0.31799 0.65877 0.34174 0.0
C626 C 0.38883 0.56782 0.45645 0.0
C627 C 0.42761 0.68764 0.36385 0.0
C628 C 0.32997 0.62727 0.43784 0.0
C629 C 0.44016 0.60193 0.40893 0.0
C630 C 0.36552 0.71554 0.32212 0.0
C631 C 0.33218 0.57741 0.38964 0.0
O632 O 0.41017 0.65887 0.31355 0.0
O633 O 0.42892 0.62745 0.33793 0.0
O634 O 0.3192 0.65094 0.36511 0.0
O635 O 0.33852 0.66395 0.32829 0.0
O636 O 0.40024 0.56662 0.435 0.0
O637 O 0.37194 0.58579 0.45722 0.0
O638 O 0.41274 0.69044 0.34387 0.0
O639 O 0.42389 0.66755 0.37869 0.0
Co640 Co 0.92482 0.59226 0.88098 0.0
Co641 Co 0.87542 0.62509 0.90958 0.0
Co642 Co 0.88862 0.63252 0.85266 0.0
H643 H 0.90582 0.6181 0.87359 0.0
O644 O 0.90786 0.62732 0.88791 0.0
H645 H 0.85842 0.63969 0.88844 0.0
O646 O 0.85651 0.63026 0.87428 0.0
Co647 Co 0.83893 0.66499 0.88008 0.0
O648 O 0.81694 0.65286 0.91113 0.0
O649 O 0.84221 0.62224 0.93015 0.0
O650 O 0.84694 0.67631 0.84225 0.0
O651 O 0.86816 0.64339 0.82251 0.0
O652 O 0.92628 0.55126 0.87934 0.0
O653 O 0.95122 0.57356 0.90461 0.0
O654 O 0.85101 0.68927 0.91004 0.0
O655 O 0.8821 0.66292 0.92592 0.0
C656 C 0.94298 0.62122 0.83199 0.0
C657 C 0.91722 0.60224 0.94102 0.0
C658 C 0.80259 0.69275 0.86486 0.0
C659 C 0.89434 0.57374 0.83441 0.0
C660 C 0.82092 0.63567 0.9289 0.0
C661 C 0.85454 0.66424 0.82168 0.0
C662 C 0.94457 0.5507 0.89628 0.0
C663 C 0.86941 0.68502 0.92666 0.0
O664 O 0.94665 0.60358 0.84945 0.0
O665 O 0.92199 0.63529 0.83146 0.0
O666 O 0.89514 0.61368 0.94017 0.0
O667 O 0.93002 0.59539 0.9209 0.0
O668 O 0.82668 0.69909 0.86309 0.0
O669 O 0.79911 0.67037 0.87499 0.0
O670 O 0.91422 0.56978 0.8493 0.0
O671 O 0.88083 0.59501 0.83704 0.0
Co672 Co 0.58483 0.59508 0.12913 0.0
Co673 Co 0.63495 0.62425 0.0988 0.0
Co674 Co 0.62569 0.63416 0.15631 0.0
H675 H 0.60641 0.61988 0.13618 0.0
O676 O 0.60435 0.62872 0.12199 0.0
H677 H 0.65427 0.63879 0.11887 0.0
O678 O 0.65622 0.62978 0.133 0.0
Co679 Co 0.67623 0.66325 0.12629 0.0
O680 O 0.69523 0.64995 0.09415 0.0
O681 O 0.6667 0.62014 0.07584 0.0
O682 O 0.66759 0.67841 0.16255 0.0
O683 O 0.6489 0.64575 0.1851 0.0
O684 O 0.56176 0.56364 0.13889 0.0
O685 O 0.55054 0.58772 0.10774 0.0
O686 O 0.6656 0.68527 0.09533 0.0
O687 O 0.62941 0.66182 0.08368 0.0
C688 C 0.57162 0.6253 0.17932 0.0
C689 C 0.59906 0.58938 0.07141 0.0
C690 C 0.71622 0.68713 0.14245 0.0
C691 C 0.61604 0.5762 0.17392 0.0
C692 C 0.68902 0.63286 0.07626 0.0
C693 C 0.66286 0.66693 0.18407 0.0
C694 C 0.54459 0.56809 0.12154 0.0
C695 C 0.64493 0.68222 0.08096 0.0
O696 O 0.56589 0.60792 0.16157 0.0
O697 O 0.59364 0.63866 0.17938 0.0
O698 O 0.61217 0.61117 0.07022 0.0
O699 O 0.59227 0.57913 0.09298 0.0
O700 O 0.69451 0.69809 0.13753 0.0
O701 O 0.71507 0.66233 0.13876 0.0
O702 O 0.59572 0.57269 0.1593 0.0
O703 O 0.63124 0.59677 0.17137 0.0
Co704 Co 0.66905 0.34601 0.38021 0.0
Co705 Co 0.63629 0.39512 0.34945 0.0
Co706 Co 0.62582 0.38049 0.40569 0.0
H707 H 0.64232 0.36414 0.38591 0.0
O708 O 0.63425 0.36202 0.37093 0.0
H709 H 0.62024 0.41153 0.36981 0.0
O710 O 0.62883 0.41324 0.3845 0.0
Co711 Co 0.59438 0.43055 0.37737 0.0
O712 O 0.60364 0.45086 0.34418 0.0
O713 O 0.6384 0.42912 0.32888 0.0
O714 O 0.57774 0.41698 0.41109 0.0
O715 O 0.61119 0.4004 0.43448 0.0
O716 O 0.70716 0.33495 0.38836 0.0
O717 O 0.68428 0.31512 0.35948 0.0
O718 O 0.57117 0.41608 0.34811 0.0
O719 O 0.59949 0.38704 0.33208 0.0
C720 C 0.63909 0.3267 0.42808 0.0
C721 C 0.66766 0.35827 0.32017 0.0
C722 C 0.573 0.46958 0.39674 0.0
C723 C 0.68502 0.37982 0.42485 0.0
C724 C 0.62224 0.44853 0.32784 0.0
C725 C 0.58881 0.41136 0.43295 0.0
C726 C 0.70623 0.31654 0.37155 0.0
C727 C 0.57661 0.39803 0.33168 0.0
O728 O 0.65795 0.32442 0.41205 0.0
O729 O 0.62318 0.34641 0.42683 0.0
O730 O 0.65011 0.37602 0.31943 0.0
O731 O 0.67552 0.34734 0.34114 0.0
O732 O 0.59643 0.46998 0.38906 0.0
O733 O 0.56201 0.44705 0.39362 0.0
O734 O 0.69183 0.36227 0.40861 0.0
O735 O 0.66155 0.38922 0.42421 0.0
Co736 Co 0.91992 0.42213 0.63815 0.0
Co737 Co 0.87151 0.39211 0.60272 0.0
Co738 Co 0.88081 0.38106 0.66046 0.0
H739 H 0.89953 0.39643 0.64231 0.0
O740 O 0.90209 0.38807 0.62774 0.0
H741 H 0.85239 0.3773 0.62132 0.0
O742 O 0.85022 0.38599 0.63577 0.0
Co743 Co 0.8313 0.35204 0.62666 0.0
O744 O 0.81203 0.3648 0.59389 0.0
O745 O 0.83956 0.39604 0.5785 0.0
O746 O 0.84687 0.33373 0.65884 0.0
O747 O 0.85793 0.3666 0.68664 0.0
O748 O 0.92088 0.45761 0.6189 0.0
O749 O 0.95283 0.44554 0.64229 0.0
O750 O 0.84441 0.32762 0.59854 0.0
O751 O 0.87713 0.35446 0.58612 0.0
C752 C 0.93426 0.39068 0.68695 0.0
C753 C 0.91905 0.41098 0.57849 0.0
C754 C 0.79106 0.33429 0.64622 0.0
C755 C 0.88758 0.4398 0.68155 0.0
C756 C 0.8176 0.38263 0.57723 0.0
C757 C 0.84904 0.34323 0.68207 0.0
C758 C 0.94386 0.46312 0.62758 0.0
C759 C 0.86405 0.33207 0.58418 0.0
O760 O 0.93898 0.40961 0.67121 0.0
O761 O 0.91306 0.37607 0.68452 0.0
O762 O 0.89465 0.40474 0.57535 0.0
O763 O 0.93044 0.4143 0.60083 0.0
O764 O 0.81248 0.32211 0.64553 0.0
O765 O 0.79204 0.35639 0.63512 0.0
O766 O 0.90679 0.44527 0.6671 0.0
O767 O 0.87482 0.4174 0.6789 0.0
H768 H 0.15843 0.27026 0.37827 0.0
H769 H 0.18801 0.30793 0.30932 0.0
H770 H 0.18744 0.23301 0.37115 0.0
H771 H 0.21666 0.27028 0.30199 0.0
H772 H 0.29487 0.2395 0.34202 0.0
H773 H 0.25583 0.26435 0.33045 0.0
H774 H 0.20629 0.19551 0.34625 0.0
H775 H 0.24586 0.17043 0.35803 0.0
C776 C 0.17035 0.27014 0.36105 0.0
C777 C 0.17165 0.29244 0.34488 0.0
C778 C 0.18685 0.24864 0.35684 0.0
C779 C 0.20471 0.2491 0.33633 0.0
C780 C 0.20342 0.26974 0.31824 0.0
C781 C 0.18705 0.29131 0.32251 0.0
C782 C 0.27573 0.22942 0.34237 0.0
C783 C 0.27325 0.20321 0.35116 0.0
C784 C 0.25333 0.24357 0.33547 0.0
C785 C 0.22799 0.23181 0.3374 0.0
C786 C 0.22562 0.205 0.34465 0.0
C787 C 0.24817 0.19072 0.35139 0.0
H788 H 0.99433 0.90454 0.61078 0.0
H789 H 0.94608 0.93939 0.55008 0.0
H790 H 0.03003 0.93537 0.60154 0.0
H791 H 0.98194 0.97074 0.54105 0.0
H792 H 0.0107 0.04411 0.59633 0.0
H793 H 0.98835 1.00561 0.5761 0.0
H794 H 0.06192 0.96288 0.57743 0.0
H795 H 0.0843 1.00158 0.59799 0.0
C796 C 0.99167 0.91814 0.59478 0.0
C797 C 0.96687 0.92087 0.58233 0.0
C798 C 0.01233 0.93566 0.58923 0.0
C799 C 0.00826 0.95612 0.57129 0.0
C800 C 0.98521 0.95554 0.55548 0.0
C801 C 0.96459 0.9378 0.56089 0.0
C802 C 0.02211 0.02658 0.59204 0.0
C803 C 0.04888 0.02528 0.59951 0.0
C804 C 0.00951 1.00474 0.57988 0.0
C805 C 0.02347 0.98121 0.57525 0.0
C806 C 0.05077 0.98077 0.58086 0.0
C807 C 0.06341 1.0027 0.59294 0.0
H808 H 0.20332 0.76771 0.83891 0.0
H809 H 0.26289 0.81686 0.87893 0.0
H810 H 0.23707 0.73655 0.82616 0.0
H811 H 0.29629 0.7844 0.86879 0.0
H812 H 0.35392 0.72365 0.84892 0.0
H813 H 0.32326 0.75993 0.84134 0.0
H814 H 0.25728 0.70493 0.8515 0.0
H815 H 0.28757 0.66899 0.85739 0.0
C816 C 0.22374 0.77183 0.84479 0.0
C817 C 0.2307 0.79432 0.86001 0.0
C818 C 0.24302 0.75398 0.83768 0.0
C819 C 0.26927 0.75766 0.84696 0.0
C820 C 0.27638 0.78106 0.86101 0.0
C821 C 0.25722 0.79947 0.86718 0.0
C822 C 0.33281 0.71946 0.84914 0.0
C823 C 0.32301 0.69377 0.85424 0.0
C824 C 0.31529 0.74013 0.84478 0.0
C825 C 0.28783 0.73539 0.84598 0.0
C826 C 0.27823 0.70932 0.84986 0.0
C827 C 0.29565 0.68869 0.85367 0.0
H828 H 0.49098 0.97342 0.09625 0.0
H829 H 0.4246 0.02426 0.11043 0.0
H830 H 0.51755 0.01183 0.08452 0.0
H831 H 0.45158 0.06325 0.09876 0.0
H832 H 0.52983 0.11027 0.13222 0.0
H833 H 0.4906 0.08231 0.12461 0.0
H834 H 0.52448 0.05007 0.05485 0.0
H835 H 0.56401 0.07774 0.06255 0.0
C836 C 0.48188 0.99279 0.0962 0.0
C837 C 0.45588 0.996 0.10442 0.0
C838 C 0.49701 0.01481 0.08921 0.0
C839 C 0.48653 0.04051 0.09058 0.0
C840 C 0.46002 0.0436 0.09749 0.0
C841 C 0.4447 0.0214 0.10423 0.0
C842 C 0.5286 0.09793 0.11477 0.0
C843 C 0.55043 0.0954 0.09857 0.0
C844 C 0.50596 0.08208 0.11027 0.0
C845 C 0.50487 0.06362 0.08948 0.0
C846 C 0.52513 0.06384 0.07129 0.0
C847 C 0.54779 0.07961 0.07581 0.0
H848 H 0.15605 0.73466 0.15695 0.0
H849 H 0.22122 0.68054 0.16652 0.0
H850 H 0.18757 0.77236 0.15792 0.0
H851 H 0.25205 0.71697 0.16542 0.0
H852 H 0.30717 0.77861 0.17282 0.0
H853 H 0.27007 0.75261 0.18695 0.0
H854 H 0.2195 0.79122 0.13022 0.0
H855 H 0.25619 0.82144 0.11993 0.0
C856 C 0.177 0.7309 0.15941 0.0
C857 C 0.18627 0.7048 0.16158 0.0
C858 C 0.19497 0.75235 0.15983 0.0
C859 C 0.22227 0.74773 0.16199 0.0
C860 C 0.23119 0.72155 0.16469 0.0
C861 C 0.21341 0.70044 0.16496 0.0
C862 C 0.28784 0.7828 0.16454 0.0
C863 C 0.28427 0.80255 0.14595 0.0
C864 C 0.26663 0.76735 0.17213 0.0
C865 C 0.24199 0.76933 0.15922 0.0
C866 C 0.23817 0.78944 0.14079 0.0
C867 C 0.25919 0.80638 0.13455 0.0
H868 H 0.53064 0.91019 0.41614 0.0
H869 H 0.5883 0.97501 0.41557 0.0
H870 H 0.49543 0.94232 0.42173 0.0
H871 H 0.55364 0.00675 0.41934 0.0
H872 H 0.49282 0.06333 0.42965 0.0
H873 H 0.52166 0.02738 0.44249 0.0
H874 H 0.47404 0.9722 0.39459 0.0
H875 H 0.44359 0.00768 0.38455 0.0
C876 C 0.53572 0.93126 0.41724 0.0
C877 C 0.56203 0.9402 0.41502 0.0
C878 C 0.51565 0.94963 0.42041 0.0
C879 C 0.52164 0.97714 0.42085 0.0
C880 C 0.54819 0.98579 0.41971 0.0
C881 C 0.56815 0.96752 0.41713 0.0
C882 C 0.48818 0.04329 0.42266 0.0
C883 C 0.46622 0.03806 0.40617 0.0
C884 C 0.50476 0.02274 0.42975 0.0
C885 C 0.50052 0.99698 0.41912 0.0
C886 C 0.47776 0.99164 0.40348 0.0
C887 C 0.46051 0.01201 0.39738 0.0
H888 H 0.30031 0.34076 0.65653 0.0
H889 H 0.3476 0.27144 0.67033 0.0
H890 H 0.26033 0.31507 0.6658 0.0
H891 H 0.30771 0.24501 0.67727 0.0
H892 H 0.2351 0.1991 0.6872 0.0
H893 H 0.26867 0.23302 0.69952 0.0
H894 H 0.23935 0.28323 0.63784 0.0
H895 H 0.20545 0.2501 0.62657 0.0
C896 C 0.30215 0.32025 0.66245 0.0
C897 C 0.32684 0.30805 0.66313 0.0
C898 C 0.27929 0.30542 0.66735 0.0
C899 C 0.2808 0.27794 0.67198 0.0
C900 C 0.3058 0.2662 0.67417 0.0
C901 C 0.32864 0.28119 0.6698 0.0
C902 C 0.2357 0.21767 0.67671 0.0
C903 C 0.2183 0.22192 0.65561 0.0
C904 C 0.25477 0.23706 0.68376 0.0
C905 C 0.25688 0.26066 0.66948 0.0
C906 C 0.23813 0.2655 0.64954 0.0
C907 C 0.21889 0.24635 0.6428 0.0
H908 H 0.03442 0.95921 0.92826 0.0
H909 H 0.07869 0.01679 0.88409 0.0
H910 H 1.0041 0.99344 0.94113 0.0
H911 H 0.04647 0.05061 0.89464 0.0
H912 H 0.98381 0.10721 0.91704 0.0
H913 H 0.02213 0.07881 0.92402 0.0
H914 H 0.97142 0.00897 0.91177 0.0
H915 H 0.93368 0.03689 0.90578 0.0
C916 C 0.0379 0.97936 0.9217 0.0
C917 C 0.05868 0.98554 0.90515 0.0
C918 C 0.02049 0.99889 0.92895 0.0
C919 C 0.02265 0.02443 0.9184 0.0
C920 C 0.0445 0.03111 0.90323 0.0
C921 C 0.06266 0.01173 0.89687 0.0
C922 C 0.98104 0.08574 0.9162 0.0
C923 C 0.95602 0.07411 0.91069 0.0
C924 C 1.00282 0.06961 0.92028 0.0
C925 C 0.99967 0.04179 0.91867 0.0
C926 C 0.97441 0.03034 0.9139 0.0
C927 C 0.95278 0.04635 0.9101 0.0
H928 H 0.40559 0.25485 0.19964 0.0
H929 H 0.32492 0.28204 0.19837 0.0
H930 H 0.39371 0.22036 0.23028 0.0
H931 H 0.31311 0.24771 0.22971 0.0
H932 H 0.36487 0.15462 0.27796 0.0
H933 H 0.36323 0.17914 0.23754 0.0
H934 H 0.33186 0.24709 0.27805 0.0
H935 H 0.33374 0.22283 0.31872 0.0
C936 C 0.38516 0.2529 0.2054 0.0
C937 C 0.36619 0.27108 0.19699 0.0
C938 C 0.37833 0.23314 0.22279 0.0
C939 C 0.35253 0.23158 0.23226 0.0
C940 C 0.3331 0.24866 0.22256 0.0
C941 C 0.33984 0.26816 0.20469 0.0
C942 C 0.35721 0.17464 0.27827 0.0
C943 C 0.34994 0.18703 0.30167 0.0
C944 C 0.35612 0.18851 0.25508 0.0
C945 C 0.34749 0.21487 0.25486 0.0
C946 C 0.33829 0.22661 0.27777 0.0
C947 C 0.33958 0.2128 0.30107 0.0
H948 H 0.08117 0.04914 0.54962 0.0
H949 H 0.0606 0.12438 0.58454 0.0
H950 H 0.03772 0.04639 0.52739 0.0
H951 H 0.01774 0.12233 0.56192 0.0
H952 H 0.94291 0.1173 0.51835 0.0
H953 H 0.97446 0.10209 0.55156 0.0
H954 H 0.02533 0.07386 0.491 0.0
H955 H 0.99377 0.08836 0.45825 0.0
C956 C 0.06702 0.06475 0.55284 0.0
C957 C 0.07381 0.087 0.56843 0.0
C958 C 0.0423 0.06321 0.54026 0.0
C959 C 0.02449 0.08425 0.54275 0.0
C960 C 0.03082 0.10561 0.55991 0.0
C961 C 0.05542 0.10701 0.57258 0.0
C962 C 0.96066 0.1074 0.51232 0.0
C963 C 0.96645 0.10462 0.48591 0.0
C964 C 0.97857 0.0986 0.53124 0.0
C965 C 1.00239 0.08698 0.52385 0.0
C966 C 0.00702 0.08242 0.49736 0.0
C967 C 0.98917 0.09115 0.47856 0.0
H968 H 0.13402 0.8227 0.83536 0.0
H969 H 0.21177 0.8346 0.80394 0.0
H970 H 0.1293 0.78015 0.81202 0.0
H971 H 0.20687 0.79191 0.78007 0.0
H972 H 0.18641 0.7037 0.75246 0.0
H973 H 0.19563 0.73789 0.78626 0.0
H974 H 0.12703 0.78094 0.75988 0.0
H975 H 0.11816 0.74747 0.72593 0.0
C976 C 0.15039 0.81568 0.82406 0.0
C977 C 0.17327 0.83151 0.82125 0.0
C978 C 0.14769 0.7915 0.81079 0.0
C979 C 0.1677 0.78313 0.79436 0.0
C980 C 0.19136 0.7981 0.79289 0.0
C981 C 0.19412 0.82236 0.80634 0.0
C982 C 0.17337 0.7205 0.75398 0.0
C983 C 0.15177 0.72328 0.73656 0.0
C984 C 0.17861 0.73985 0.77325 0.0
C985 C 0.16188 0.76165 0.77552 0.0
C986 C 0.13993 0.76399 0.75854 0.0
C987 C 0.13498 0.745 0.7391 0.0
H988 H 0.52741 0.93435 0.94329 0.0
H989 H 0.51255 0.85153 0.96113 0.0
H990 H 0.49385 0.94753 0.9744 0.0
H991 H 0.47835 0.86469 0.99113 0.0
H992 H 0.40563 0.89791 0.02729 0.0
H993 H 0.43213 0.89417 0.98875 0.0
H994 H 0.49731 0.93513 0.02884 0.0
H995 H 0.47108 0.93843 0.0681 0.0
C996 C 0.51649 0.91901 0.95334 0.0
C997 C 0.5227 0.89199 0.95029 0.0
C998 C 0.49744 0.92656 0.97103 0.0
C999 C 0.48388 0.90705 0.98496 0.0
C1000 C 0.48863 0.87998 0.98036 0.0
C1001 C 0.50809 0.87249 0.96326 0.0
C1002 C 0.42542 0.90665 0.02792 0.0
C1003 C 0.43646 0.91817 0.05095 0.0
C1004 C 0.44043 0.90457 1.00576 0.0
C1005 C 0.46648 0.91444 1.00607 0.0
C1006 C 0.47702 0.92768 0.0283 0.0
C1007 C 0.46212 0.92941 0.05072 0.0
H1008 H 0.38316 0.86007 0.23428 0.0
H1009 H 0.3213 0.8114 0.19816 0.0
H1010 H 0.38025 0.83394 0.27371 0.0
H1011 H 0.32011 0.78321 0.23589 0.0
H1012 H 0.31829 0.73412 0.30438 0.0
H1013 H 0.31148 0.77362 0.27812 0.0
H1014 H 0.39532 0.79286 0.28558 0.0
H1015 H 0.40134 0.75484 0.31335 0.0
C1016 C 0.36896 0.84364 0.23473 0.0
C1017 C 0.35327 0.83667 0.21267 0.0
C1018 C 0.36743 0.8285 0.25724 0.0
C1019 C 0.35051 0.80588 0.2579 0.0
C1020 C 0.33345 0.80035 0.2364 0.0
C1021 C 0.33461 0.8159 0.21429 0.0
C1022 C 0.33499 0.74737 0.30091 0.0
C1023 C 0.36035 0.74145 0.31051 0.0
C1024 C 0.33121 0.76985 0.28571 0.0
C1025 C 0.35294 0.78622 0.27912 0.0
C1026 C 0.37798 0.78109 0.29037 0.0
C1027 C 0.38155 0.7591 0.30618 0.0
H1028 H 0.56442 0.12237 0.49758 0.0
H1029 H 0.51555 0.09112 0.55832 0.0
H1030 H 0.52927 0.11173 0.46547 0.0
H1031 H 0.48029 0.08096 0.52636 0.0
H1032 H 0.42401 0.05613 0.46156 0.0
H1033 H 0.46604 0.05467 0.48654 0.0
H1034 H 0.48611 0.13401 0.46062 0.0
H1035 H 0.44435 0.13532 0.43607 0.0
C1036 C 0.54625 0.11299 0.50397 0.0
C1037 C 0.54234 0.10797 0.53036 0.0
C1038 C 0.52626 0.10686 0.48565 0.0
C1039 C 0.50213 0.09568 0.49354 0.0
C1040 C 0.49884 0.0893 0.51976 0.0
C1041 C 0.51884 0.09543 0.53806 0.0
C1042 C 0.43781 0.0729 0.46097 0.0
C1043 C 0.43135 0.09582 0.44721 0.0
C1044 C 0.46162 0.07215 0.47522 0.0
C1045 C 0.47918 0.09423 0.47544 0.0
C1046 C 0.47313 0.11656 0.46044 0.0
C1047 C 0.44926 0.11743 0.44659 0.0
H1048 H 0.16643 0.21985 0.68802 0.0
H1049 H 0.1568 0.14943 0.73477 0.0
H1050 H 0.17338 0.24663 0.72676 0.0
H1051 H 0.1645 0.17656 0.77415 0.0
H1052 H 0.12799 0.24558 0.82599 0.0
H1053 H 0.13746 0.20957 0.79539 0.0
H1054 H 0.20039 0.25773 0.76343 0.0
H1055 H 0.1888 0.29435 0.7916 0.0
C1056 C 0.1664 0.20997 0.7066 0.0
C1057 C 0.16064 0.18265 0.7084 0.0
C1058 C 0.17072 0.22531 0.72892 0.0
C1059 C 0.16961 0.21363 0.75356 0.0
C1060 C 0.16527 0.18603 0.75538 0.0
C1061 C 0.16082 0.17059 0.73291 0.0
C1062 C 0.14423 0.24807 0.81282 0.0
C1063 C 0.15763 0.27264 0.81098 0.0
C1064 C 0.14988 0.22741 0.79551 0.0
C1065 C 0.16937 0.23112 0.77674 0.0
C1066 C 0.18489 0.25458 0.77732 0.0
C1067 C 0.17851 0.27546 0.79374 0.0
H1068 H 0.96265 0.91706 0.01959 0.0
H1069 H 0.01517 0.89193 0.08174 0.0
H1070 H 1.00058 0.92654 0.99274 0.0
H1071 H 0.05334 0.9014 0.05469 0.0
H1072 H 0.09761 0.87568 0.97757 0.0
H1073 H 0.06701 0.8774 0.0135 0.0
H1074 H 0.04214 0.95538 0.98926 0.0
H1075 H 0.07364 0.95383 0.95382 0.0
C1076 C 0.98236 0.91408 0.02766 0.0
C1077 C 0.9861 0.90365 0.05259 0.0
C1078 C 1.00406 0.91969 0.01239 0.0
C1079 C 0.02981 0.91473 0.02175 0.0
C1080 C 0.03362 0.90533 0.04711 0.0
C1081 C 0.01187 0.89998 0.06253 0.0
C1082 C 0.08614 0.89347 0.98042 0.0
C1083 C 0.08699 0.91428 0.96253 0.0
C1084 C 0.06871 0.8945 1.00097 0.0
C1085 C 0.05202 0.91637 1.00382 0.0
C1086 C 0.05451 0.93811 0.98713 0.0
C1087 C 0.0721 0.93712 0.96674 0.0
H1088 H 0.28458 0.38167 0.17054 0.0
H1089 H 0.33059 0.32899 0.21905 0.0
H1090 H 0.24971 0.38132 0.2025 0.0
H1091 H 0.29552 0.32816 0.25045 0.0
H1092 H 0.25054 0.37183 0.3145 0.0
H1093 H 0.28174 0.36488 0.27983 0.0
H1094 H 0.21658 0.35222 0.22467 0.0
H1095 H 0.18529 0.35962 0.25932 0.0
C1096 C 0.28694 0.36955 0.18768 0.0
C1097 C 0.31034 0.35567 0.19259 0.0
C1098 C 0.26701 0.36927 0.20585 0.0
C1099 C 0.27028 0.35495 0.22891 0.0
C1100 C 0.29289 0.3397 0.23296 0.0
C1101 C 0.31285 0.34014 0.21497 0.0
C1102 C 0.24296 0.3674 0.295 0.0
C1103 C 0.21572 0.36624 0.28939 0.0
C1104 C 0.26071 0.36324 0.27526 0.0
C1105 C 0.25137 0.35784 0.24977 0.0
C1106 C 0.2241 0.35645 0.24422 0.0
C1107 C 0.20633 0.36061 0.26398 0.0
H1108 H 0.77218 0.13449 0.85968 0.0
H1109 H 0.80534 0.19291 0.80847 0.0
H1110 H 0.73064 0.13461 0.83454 0.0
H1111 H 0.76448 0.19222 0.78249 0.0
H1112 H 0.69027 0.18806 0.73769 0.0
H1113 H 0.71646 0.19869 0.77726 0.0
H1114 H 0.72542 0.11445 0.79101 0.0
H1115 H 0.69916 0.104 0.75197 0.0
C1116 C 0.77046 0.14769 0.84326 0.0
C1117 C 0.79227 0.16295 0.83518 0.0
C1118 C 0.74671 0.14776 0.82893 0.0
C1119 C 0.74451 0.16306 0.80636 0.0
C1120 C 0.76552 0.18024 0.79983 0.0
C1121 C 0.78916 0.18021 0.81424 0.0
C1122 C 0.69721 0.17193 0.74971 0.0
C1123 C 0.69324 0.14527 0.74177 0.0
C1124 C 0.71216 0.17799 0.77224 0.0
C1125 C 0.72308 0.15741 0.78705 0.0
C1126 C 0.71701 0.13075 0.78019 0.0
C1127 C 0.70225 0.12473 0.75767 0.0
H1128 H 0.13762 0.42092 0.01798 0.0
H1129 H 0.06866 0.44645 0.97461 0.0
H1130 H 0.1274 0.45183 0.05319 0.0
H1131 H 0.05767 0.47652 0.01018 0.0
H1132 H 0.0937 0.55857 0.03734 0.0
H1133 H 0.08681 0.51647 0.01467 0.0
H1134 H 0.09992 0.47428 0.08641 0.0
H1135 H 0.10699 0.51677 0.10945 0.0
C1136 C 0.11946 0.43206 0.01673 0.0
C1137 C 0.10421 0.43213 0.99365 0.0
C1138 C 0.11353 0.44966 0.03686 0.0
C1139 C 0.09219 0.46703 0.03391 0.0
C1140 C 0.07459 0.46373 0.01253 0.0
C1141 C 0.08082 0.4466 0.99226 0.0
C1142 C 0.09481 0.54043 0.04844 0.0
C1143 C 0.10104 0.54103 0.07514 0.0
C1144 C 0.09047 0.51625 0.0355 0.0
C1145 C 0.09237 0.49215 0.04895 0.0
C1146 C 0.09815 0.49265 0.07573 0.0
C1147 C 0.10237 0.51694 0.08878 0.0
H1148 H 0.76405 0.85705 0.20331 0.0
H1149 H 0.83311 0.87112 0.25325 0.0
H1150 H 0.73778 0.84743 0.24099 0.0
H1151 H 0.8067 0.86093 0.29133 0.0
H1152 H 0.7348 0.88244 0.3459 0.0
H1153 H 0.76957 0.88309 0.31366 0.0
H1154 H 0.73295 0.81422 0.27498 0.0
H1155 H 0.69796 0.81417 0.30664 0.0
C1156 C 0.77363 0.85781 0.22239 0.0
C1157 C 0.80048 0.86488 0.22552 0.0
C1158 C 0.75869 0.85202 0.24394 0.0
C1159 C 0.77036 0.85311 0.26901 0.0
C1160 C 0.79733 0.85995 0.27216 0.0
C1161 C 0.81235 0.86574 0.25048 0.0
C1162 C 0.73472 0.86706 0.3309 0.0
C1163 C 0.71359 0.84862 0.32822 0.0
C1164 C 0.75459 0.86735 0.31255 0.0
C1165 C 0.75355 0.84901 0.29162 0.0
C1166 C 0.73381 0.82894 0.29062 0.0
C1167 C 0.71385 0.82889 0.30867 0.0
H1168 H 0.94183 0.04551 0.96566 0.0
H1169 H 0.8792 0.07854 0.0109 0.0
H1170 H 0.95274 0.0153 1.00083 0.0
H1171 H 0.88896 0.04737 0.0456 0.0
H1172 H 0.90989 0.98689 0.10463 0.0
H1173 H 0.91632 0.02677 0.07864 0.0
H1174 H 0.92628 0.97697 0.01037 0.0
H1175 H 0.92038 0.93764 0.03605 0.0
C1176 C 0.93083 0.04661 0.98344 0.0
C1177 C 0.90945 0.06378 0.98565 0.0
C1178 C 0.93698 0.02935 1.0035 0.0
C1179 C 0.92125 0.02851 0.02564 0.0
C1180 C 0.90153 0.04762 0.02884 0.0
C1181 C 0.89581 0.06537 0.00897 0.0
C1182 C 0.91381 0.98456 0.08412 0.0
C1183 C 0.91441 0.95915 0.07232 0.0
C1184 C 0.91755 0.00735 0.06931 0.0
C1185 C 0.92194 1.00501 0.04253 0.0
C1186 C 0.92359 0.97953 0.03107 0.0
C1187 C 0.91993 0.95688 0.0458 0.0
H1188 H 0.32833 0.68664 0.78383 0.0
H1189 H 0.31272 0.60566 0.75733 0.0
H1190 H 0.30275 0.70316 0.74639 0.0
H1191 H 0.28763 0.62193 0.72014 0.0
H1192 H 0.24734 0.65059 0.65336 0.0
H1193 H 0.28812 0.64927 0.67931 0.0
H1194 H 0.25263 0.69705 0.73911 0.0
H1195 H 0.21197 0.69903 0.71294 0.0
C1196 C 0.3201 0.6725 0.76955 0.0
C1197 C 0.32213 0.64495 0.77334 0.0
C1198 C 0.30554 0.68191 0.74827 0.0
C1199 C 0.29341 0.66382 0.73039 0.0
C1200 C 0.29717 0.63635 0.73336 0.0
C1201 C 0.31125 0.62699 0.75476 0.0
C1202 C 0.24843 0.66157 0.67165 0.0
C1203 C 0.22603 0.67397 0.68167 0.0
C1204 C 0.27185 0.66085 0.68643 0.0
C1205 C 0.27323 0.67254 0.71137 0.0
C1206 C 0.25205 0.68781 0.71994 0.0
C1207 C 0.2286 0.68858 0.70513 0.0
H1208 H 0.09879 0.52733 0.55127 0.0
H1209 H 0.12575 0.59128 0.50242 0.0
H1210 H 0.08749 0.50035 0.51297 0.0
H1211 H 0.11473 0.56379 0.4637 0.0
H1212 H 0.14011 0.48037 0.42281 0.0
H1213 H 0.13799 0.52018 0.45058 0.0
H1214 H 0.05829 0.49768 0.47133 0.0
H1215 H 0.0604 0.45831 0.44266 0.0
C1216 C 0.1018 0.53579 0.53228 0.0
C1217 C 0.11322 0.56124 0.52965 0.0
C1218 C 0.09508 0.52047 0.51037 0.0
C1219 C 0.10007 0.53021 0.4855 0.0
C1220 C 0.11061 0.55606 0.48277 0.0
C1221 C 0.11698 0.57163 0.5048 0.0
C1222 C 0.12194 0.4845 0.43275 0.0
C1223 C 0.10081 0.46603 0.432 0.0
C1224 C 0.12061 0.50728 0.44839 0.0
C1225 C 0.09812 0.51159 0.4633 0.0
C1226 C 0.07595 0.49444 0.46026 0.0
C1227 C 0.0773 0.47181 0.44448 0.0
H1228 H 0.39954 0.44726 0.01257 0.0
H1229 H 0.40717 0.51219 0.06854 0.0
H1230 H 0.41153 0.47717 0.97806 0.0
H1231 H 0.4198 0.54244 0.03365 0.0
H1232 H 0.44902 0.52895 0.92178 0.0
H1233 H 0.4485 0.50364 0.96201 0.0
H1234 H 0.39502 0.5605 0.99501 0.0
H1235 H 0.39582 0.58577 0.95472 0.0
C1236 C 0.4041 0.46794 0.01749 0.0
C1237 C 0.40219 0.47758 0.04305 0.0
C1238 C 0.41125 0.48501 0.99778 0.0
C1239 C 0.41681 0.51205 1.00326 0.0
C1240 C 0.41548 0.52166 0.02898 0.0
C1241 C 0.40822 0.50447 0.04882 0.0
C1242 C 0.43794 0.53639 0.93804 0.0
C1243 C 0.42316 0.55956 0.93576 0.0
C1244 C 0.43746 0.5219 0.96089 0.0
C1245 C 0.42172 0.53017 0.98155 0.0
C1246 C 0.40774 0.55402 0.97958 0.0
C1247 C 0.40817 0.56845 0.95663 0.0
H1248 H 0.65662 0.7766 0.84024 0.0
H1249 H 0.72307 0.83127 0.85306 0.0
H1250 H 0.68734 0.74074 0.83115 0.0
H1251 H 0.7532 0.79609 0.84525 0.0
H1252 H 0.80773 0.73656 0.83535 0.0
H1253 H 0.77296 0.76496 0.8196 0.0
H1254 H 0.71521 0.71658 0.85944 0.0
H1255 H 0.74981 0.68582 0.87182 0.0
C1256 C 0.67772 0.78096 0.84082 0.0
C1257 C 0.68757 0.80646 0.8478 0.0
C1258 C 0.69523 0.76055 0.83559 0.0
C1259 C 0.72268 0.76547 0.83763 0.0
C1260 C 0.73224 0.79152 0.8429 0.0
C1261 C 0.71487 0.81179 0.84776 0.0
C1262 C 0.78745 0.73125 0.83963 0.0
C1263 C 0.7813 0.70901 0.85463 0.0
C1264 C 0.76754 0.74771 0.83088 0.0
C1265 C 0.74144 0.74343 0.8388 0.0
C1266 C 0.73507 0.72033 0.85272 0.0
C1267 C 0.7549 0.70299 0.86028 0.0
H1268 H 0.46085 0.43691 0.05942 0.0
H1269 H 0.4281 0.44471 0.13583 0.0
H1270 H 0.47939 0.48241 0.06359 0.0
H1271 H 0.44493 0.49027 0.13937 0.0
H1272 H 0.52707 0.53095 0.15419 0.0
H1273 H 0.49277 0.49764 0.14586 0.0
H1274 H 0.47466 0.5327 0.07131 0.0
H1275 H 0.50976 0.56658 0.07979 0.0
C1276 C 0.45708 0.4487 0.0767 0.0
C1277 C 0.44352 0.43758 0.09744 0.0
C1278 C 0.46719 0.47473 0.07892 0.0
C1279 C 0.4637 0.48959 0.10192 0.0
C1280 C 0.44803 0.47906 0.12157 0.0
C1281 C 0.43849 0.45303 0.11958 0.0
C1282 C 0.51548 0.53193 0.13623 0.0
C1283 C 0.52119 0.55095 0.11743 0.0
C1284 C 0.4956 0.51303 0.13156 0.0
C1285 C 0.48101 0.51277 0.10798 0.0
C1286 C 0.48576 0.53262 0.08961 0.0
C1287 C 0.5057 0.55186 0.09443 0.0
H1288 H 0.75306 0.31368 0.39824 0.0
H1289 H 0.70963 0.28205 0.33084 0.0
H1290 H 0.78885 0.283 0.38987 0.0
H1291 H 0.74577 0.25204 0.32192 0.0
H1292 H 0.78966 0.17645 0.34861 0.0
H1293 H 0.75924 0.21284 0.34603 0.0
H1294 H 0.82396 0.26924 0.36002 0.0
H1295 H 0.85487 0.23244 0.36256 0.0
C1296 C 0.75145 0.30047 0.3814 0.0
C1297 C 0.72858 0.29977 0.36541 0.0
C1298 C 0.772 0.28318 0.37643 0.0
C1299 C 0.76996 0.26516 0.35529 0.0
C1300 C 0.74764 0.26555 0.33851 0.0
C1301 C 0.727 0.28263 0.34364 0.0
C1302 C 0.79764 0.19655 0.35051 0.0
C1303 C 0.82466 0.20154 0.35594 0.0
C1304 C 0.78015 0.21747 0.34892 0.0
C1305 C 0.7893 0.24381 0.35284 0.0
C1306 C 0.81647 0.24901 0.35712 0.0
C1307 C 0.83409 0.228 0.35857 0.0
H1308 H 0.0674 0.55935 0.57045 0.0
H1309 H 0.03208 0.60676 0.63086 0.0
H1310 H 0.0285 0.52979 0.56917 0.0
H1311 H 0.99325 0.57721 0.6292 0.0
H1312 H 0.9931 0.47607 0.64502 0.0
H1313 H 0.02055 0.5137 0.63213 0.0
H1314 H 0.95801 0.54013 0.58057 0.0
H1315 H 0.93005 0.50192 0.59333 0.0
C1316 C 0.05106 0.56393 0.58281 0.0
C1317 C 0.05307 0.58476 0.6013 0.0
C1318 C 0.0287 0.54734 0.58171 0.0
C1319 C 0.00818 0.55167 0.59894 0.0
C1320 C 0.00884 0.57408 0.61544 0.0
C1321 C 0.03117 0.5907 0.61654 0.0
C1322 C 0.9851 0.48986 0.63097 0.0
C1323 C 0.95951 0.48635 0.6202 0.0
C1324 C 1.00079 0.51121 0.6236 0.0
C1325 C 0.99108 0.5293 0.60544 0.0
C1326 C 0.96555 0.52609 0.59459 0.0
C1327 C 0.94973 0.5045 0.60195 0.0
H1328 H 0.74147 0.3329 0.62531 0.0
H1329 H 0.78832 0.30902 0.69191 0.0
H1330 H 0.70679 0.30119 0.63661 0.0
H1331 H 0.75293 0.27859 0.70458 0.0
H1332 H 0.72157 0.19534 0.67714 0.0
H1333 H 0.74479 0.23742 0.68397 0.0
H1334 H 0.67415 0.27947 0.66084 0.0
H1335 H 0.65119 0.23689 0.65271 0.0
C1336 C 0.74363 0.32178 0.64312 0.0
C1337 C 0.76748 0.32266 0.65748 0.0
C1338 C 0.72373 0.30368 0.64977 0.0
C1339 C 0.72745 0.28676 0.67113 0.0
C1340 C 0.74989 0.29069 0.68753 0.0
C1341 C 0.77005 0.30815 0.68042 0.0
C1342 C 0.71086 0.21355 0.67386 0.0
C1343 C 0.68488 0.21288 0.66366 0.0
C1344 C 0.72405 0.23781 0.67816 0.0
C1345 C 0.71137 0.26193 0.67274 0.0
C1346 C 0.6846 0.26124 0.66468 0.0
C1347 C 0.67151 0.23689 0.65996 0.0
H1348 H 0.97661 0.5463 0.93859 0.0
H1349 H 0.94262 0.50161 0.87309 0.0
H1350 H 1.00476 0.50925 0.94925 0.0
H1351 H 0.97239 0.46503 0.88263 0.0
H1352 H 0.02858 0.4016 0.90764 0.0
H1353 H 0.99021 0.43023 0.91113 0.0
H1354 H 0.04269 0.49853 0.924 0.0
H1355 H 0.0806 0.47025 0.92107 0.0
C1356 C 0.97471 0.52824 0.92687 0.0
C1357 C 0.9577 0.5267 0.90494 0.0
C1358 C 0.99094 0.50713 0.93287 0.0
C1359 C 0.9911 0.48461 0.91644 0.0
C1360 C 0.97252 0.48214 0.89571 0.0
C1361 C 0.95569 0.5031 0.89009 0.0
C1362 C 0.0318 0.4227 0.91153 0.0
C1363 C 0.05753 0.43378 0.91387 0.0
C1364 C 0.0099 0.43898 0.91357 0.0
C1365 C 0.01352 0.46646 0.91801 0.0
C1366 C 0.03926 0.47729 0.92119 0.0
C1367 C 0.06104 0.46111 0.91921 0.0
H1368 H 0.82016 0.80979 0.20151 0.0
H1369 H 0.85624 0.77022 0.13644 0.0
H1370 H 0.79189 0.77069 0.20777 0.0
H1371 H 0.82759 0.73145 0.14244 0.0
H1372 H 0.76574 0.66812 0.15223 0.0
H1373 H 0.80484 0.69424 0.16753 0.0
H1374 H 0.75676 0.76444 0.17254 0.0
H1375 H 0.71841 0.73883 0.15712 0.0
C1376 C 0.82254 0.79248 0.18902 0.0
C1377 C 0.83951 0.79331 0.16782 0.0
C1378 C 0.8066 0.77006 0.1928 0.0
C1379 C 0.80721 0.74849 0.17518 0.0
C1380 C 0.82678 0.74787 0.15629 0.0
C1381 C 0.84294 0.77022 0.15265 0.0
C1382 C 0.76367 0.68907 0.15701 0.0
C1383 C 0.73933 0.70166 0.15328 0.0
C1384 C 0.78585 0.70384 0.16593 0.0
C1385 C 0.78365 0.73115 0.17155 0.0
C1386 C 0.75892 0.74326 0.16899 0.0
C1387 C 0.73703 0.72871 0.15973 0.0
H1388 H 0.52551 0.46925 0.41975 0.0
H1389 H 0.58967 0.52171 0.39769 0.0
H1390 H 0.4995 0.50736 0.43166 0.0
H1391 H 0.56336 0.56035 0.40967 0.0
H1392 H 0.48493 0.60364 0.38048 0.0
H1393 H 0.52332 0.57593 0.38614 0.0
H1394 H 0.49314 0.54767 0.45887 0.0
H1395 H 0.45449 0.57579 0.45324 0.0
C1396 C 0.53431 0.48898 0.41811 0.0
C1397 C 0.55941 0.49263 0.40754 0.0
C1398 C 0.5195 0.51086 0.42519 0.0
C1399 C 0.52942 0.53685 0.42159 0.0
C1400 C 0.55527 0.54049 0.41257 0.0
C1401 C 0.57025 0.51847 0.40569 0.0
C1402 C 0.48682 0.59222 0.39813 0.0
C1403 C 0.46619 0.59096 0.41594 0.0
C1404 C 0.509 0.57645 0.40147 0.0
C1405 C 0.51094 0.55927 0.4227 0.0
C1406 C 0.49182 0.56039 0.44206 0.0
C1407 C 0.46963 0.57622 0.43872 0.0
H1408 H 0.91308 0.7617 0.71124 0.0
H1409 H 0.83019 0.77367 0.69323 0.0
H1410 H 0.90155 0.72388 0.7379 0.0
H1411 H 0.81849 0.73555 0.72028 0.0
H1412 H 0.82127 0.70416 0.80826 0.0
H1413 H 0.82324 0.73132 0.76936 0.0
H1414 H 0.88092 0.67819 0.73765 0.0
H1415 H 0.87969 0.65188 0.77687 0.0
C1416 C 0.89241 0.75584 0.71262 0.0
C1417 C 0.87248 0.77058 0.70051 0.0
C1418 C 0.8858 0.73406 0.72766 0.0
C1419 C 0.85912 0.7268 0.731 0.0
C1420 C 0.83918 0.74082 0.71791 0.0
C1421 C 0.84585 0.7625 0.7025 0.0
C1422 C 0.83417 0.69835 0.79294 0.0
C1423 C 0.85111 0.67681 0.79616 0.0
C1424 C 0.83495 0.71349 0.77045 0.0
C1425 C 0.85262 0.70701 0.7508 0.0
C1426 C 0.86746 0.68377 0.75279 0.0
C1427 C 0.86672 0.66876 0.77528 0.0
H1428 H 0.55715 0.55485 0.0659 0.0
H1429 H 0.61604 0.59679 0.02189 0.0
H1430 H 0.5287 0.55132 0.02826 0.0
H1431 H 0.5888 0.59044 0.98263 0.0
H1432 H 0.51722 0.63284 0.94617 0.0
H1433 H 0.55523 0.61522 0.96924 0.0
H1434 H 0.50763 0.54644 0.991 0.0
H1435 H 0.46911 0.5671 0.97193 0.0
C1436 C 0.56444 0.56242 0.04778 0.0
C1437 C 0.58783 0.57777 0.04713 0.0
C1438 C 0.54816 0.56007 0.02572 0.0
C1439 C 0.55554 0.57222 1.00234 0.0
C1440 C 0.58155 0.58256 1.00064 0.0
C1441 C 0.59737 0.58592 0.02307 0.0
C1442 C 0.51517 0.614 0.95606 0.0
C1443 C 0.4904 0.60145 0.9579 0.0
C1444 C 0.53709 0.60343 0.96891 0.0
C1445 C 0.53474 0.57941 0.98281 0.0
C1446 C 0.51026 0.56552 0.98179 0.0
C1447 C 0.48811 0.57706 0.97047 0.0
H1448 H 0.6645 0.26262 0.18146 0.0
H1449 H 0.68049 0.21985 0.25228 0.0
H1450 H 0.67824 0.30437 0.2032 0.0
H1451 H 0.69404 0.26144 0.27404 0.0
H1452 H 0.71439 0.33365 0.31286 0.0
H1453 H 0.72321 0.30221 0.27776 0.0
H1454 H 0.65143 0.32588 0.23764 0.0
H1455 H 0.64262 0.35722 0.27265 0.0
C1456 C 0.67147 0.26213 0.20153 0.0
C1457 C 0.67076 0.23835 0.21557 0.0
C1458 C 0.67946 0.28594 0.21384 0.0
C1459 C 0.687 0.28612 0.24025 0.0
C1460 C 0.68856 0.26186 0.25356 0.0
C1461 C 0.68041 0.23812 0.24129 0.0
C1462 C 0.70098 0.33272 0.2961 0.0
C1463 C 0.6773 0.34699 0.2958 0.0
C1464 C 0.70614 0.31489 0.27599 0.0
C1465 C 0.68768 0.31122 0.25541 0.0
C1466 C 0.66602 0.32834 0.25332 0.0
C1467 C 0.66087 0.3462 0.27345 0.0
H1468 H 1.00344 0.37253 0.44283 0.0
H1469 H 0.04948 0.43657 0.47981 0.0
H1470 H 0.96669 0.38235 0.47123 0.0
H1471 H 0.01207 0.44851 0.5055 0.0
H1472 H 0.97162 0.42229 0.57836 0.0
H1473 H 0.99992 0.42406 0.54171 0.0
H1474 H 0.93252 0.40965 0.48948 0.0
H1475 H 0.90376 0.4066 0.52695 0.0
C1476 C 1.00521 0.38942 0.45617 0.0
C1477 C 0.02919 0.40375 0.4593 0.0
C1478 C 0.98413 0.39526 0.47218 0.0
C1479 C 0.98677 0.41588 0.49092 0.0
C1480 C 0.00975 0.43205 0.49171 0.0
C1481 C 0.03108 0.42547 0.47669 0.0
C1482 C 0.96262 0.41964 0.55914 0.0
C1483 C 0.93549 0.41396 0.55558 0.0
C1484 C 0.97887 0.42109 0.53797 0.0
C1485 C 0.96838 0.41735 0.51262 0.0
C1486 C 0.94108 0.41252 0.50885 0.0
C1487 C 0.92469 0.41079 0.53024 0.0
H1488 H 0.84916 0.2895 0.67962 0.0
H1489 H 0.84302 0.35628 0.7332 0.0
H1490 H 0.84824 0.25915 0.71542 0.0
H1491 H 0.84105 0.32534 0.76951 0.0
H1492 H 0.88206 0.25936 0.82143 0.0
H1493 H 0.87252 0.29518 0.79097 0.0
H1494 H 0.81933 0.24193 0.74703 0.0
H1495 H 0.83104 0.20592 0.77533 0.0
C1496 C 0.84704 0.29764 0.69907 0.0
C1497 C 0.84622 0.32515 0.70376 0.0
C1498 C 0.84627 0.28023 0.7196 0.0
C1499 C 0.84417 0.28996 0.74517 0.0
C1500 C 0.84273 0.31747 0.74991 0.0
C1501 C 0.84382 0.33504 0.72924 0.0
C1502 C 0.86809 0.25562 0.80541 0.0
C1503 C 0.85727 0.23006 0.8006 0.0
C1504 C 0.86239 0.27609 0.78823 0.0
C1505 C 0.84544 0.27108 0.76657 0.0
C1506 C 0.83285 0.24611 0.76333 0.0
C1507 C 0.83931 0.22558 0.77975 0.0
H1508 H 0.93459 0.55496 0.95818 0.0
H1509 H 0.92424 0.63692 0.98134 0.0
H1510 H 0.96016 0.54722 0.99827 0.0
H1511 H 0.9502 0.62976 0.02105 0.0
H1512 H 1.0025 0.61834 0.08682 0.0
H1513 H 0.96116 0.60938 0.06211 0.0
H1514 H 1.00437 0.56348 1.00593 0.0
H1515 H 0.04489 0.57182 0.03073 0.0
C1516 C 0.93785 0.57121 0.97203 0.0
C1517 C 0.92875 0.59673 0.96655 0.0
C1518 C 0.95206 0.56677 0.99503 0.0
C1519 C 0.95762 0.58799 0.01258 0.0
C1520 C 0.94615 0.61291 0.00808 0.0
C1521 C 0.93162 0.61719 0.98522 0.0
C1522 C 1.00278 0.60555 0.06969 0.0
C1523 C 0.02675 0.59627 0.0602 0.0
C1524 C 0.97924 0.60049 0.05555 0.0
C1525 C 0.97959 0.58613 0.03187 0.0
C1526 C 1.00325 0.57443 0.02416 0.0
C1527 C 0.02662 0.57948 0.03822 0.0
H1528 H 0.64144 0.65885 0.23164 0.0
H1529 H 0.69902 0.7071 0.19192 0.0
H1530 H 0.64428 0.68957 0.26862 0.0
H1531 H 0.7026 0.73724 0.22921 0.0
H1532 H 0.64878 0.80271 0.26293 0.0
H1533 H 0.66385 0.7661 0.23658 0.0
H1534 H 0.66868 0.71641 0.30448 0.0
H1535 H 0.65327 0.7537 0.33132 0.0
C1536 C 0.65543 0.67546 0.23115 0.0
C1537 C 0.66936 0.68124 0.20853 0.0
C1538 C 0.65727 0.69285 0.25248 0.0
C1539 C 0.67325 0.71596 0.2514 0.0
C1540 C 0.68979 0.71972 0.23021 0.0
C1541 C 0.68764 0.70259 0.20881 0.0
C1542 C 0.65324 0.78408 0.27235 0.0
C1543 C 0.64964 0.78078 0.29902 0.0
C1544 C 0.66231 0.76324 0.25733 0.0
C1545 C 0.66786 0.73863 0.26866 0.0
C1546 C 0.6647 0.73535 0.29547 0.0
C1547 C 0.65578 0.75648 0.31068 0.0
H1548 H 0.53759 0.42691 0.43823 0.0
H1549 H 0.60716 0.40343 0.48239 0.0
H1550 H 0.51244 0.42769 0.47808 0.0
H1551 H 0.58173 0.40372 0.52193 0.0
H1552 H 0.51018 0.35874 0.56269 0.0
H1553 H 0.54266 0.37045 0.53029 0.0
H1554 H 0.51053 0.44947 0.52531 0.0
H1555 H 0.47816 0.43786 0.55825 0.0
C1556 C 0.54766 0.42255 0.45644 0.0
C1557 C 0.57425 0.41487 0.45712 0.0
C1558 C 0.53331 0.42311 0.47922 0.0
C1559 C 0.54531 0.41575 0.50286 0.0
C1560 C 0.57218 0.40942 0.50381 0.0
C1561 C 0.58659 0.40912 0.48115 0.0
C1562 C 0.5106 0.37883 0.55521 0.0
C1563 C 0.49185 0.39743 0.56275 0.0
C1564 C 0.52917 0.38555 0.53682 0.0
C1565 C 0.52892 0.41083 0.52549 0.0
C1566 C 0.51098 0.4299 0.53393 0.0
C1567 C 0.49267 0.42331 0.55276 0.0
H1568 H 0.78372 0.87771 0.66972 0.0
H1569 H 0.82791 0.82096 0.71508 0.0
H1570 H 0.74784 0.87498 0.70051 0.0
H1571 H 0.79182 0.81766 0.74526 0.0
H1572 H 0.74735 0.85858 0.81188 0.0
H1573 H 0.77813 0.85043 0.77728 0.0
H1574 H 0.71308 0.84757 0.72102 0.0
H1575 H 0.68213 0.85625 0.75591 0.0
C1576 C 0.78547 0.86414 0.68584 0.0
C1577 C 0.80878 0.84988 0.69023 0.0
C1578 C 0.76488 0.86247 0.70339 0.0
C1579 C 0.76724 0.84635 0.72543 0.0
C1580 C 0.78972 0.83063 0.7287 0.0
C1581 C 0.81034 0.83248 0.71136 0.0
C1582 C 0.73959 0.85586 0.79218 0.0
C1583 C 0.71248 0.85822 0.78644 0.0
C1584 C 0.75717 0.85097 0.77237 0.0
C1585 C 0.74796 0.84833 0.74645 0.0
C1586 C 0.72068 0.84972 0.74082 0.0
C1587 C 0.70301 0.85454 0.76074 0.0
H1588 H 0.18584 0.60371 0.25992 0.0
H1589 H 0.18425 0.68659 0.23828 0.0
H1590 H 0.21593 0.61503 0.29621 0.0
H1591 H 0.21453 0.69797 0.27473 0.0
H1592 H 0.30543 0.68255 0.29567 0.0
H1593 H 0.26249 0.68286 0.27357 0.0
H1594 H 0.22759 0.64133 0.33766 0.0
H1595 H 0.27065 0.641 0.36008 0.0
C1596 C 0.19119 0.62448 0.26356 0.0
C1597 C 0.18329 0.64425 0.24619 0.0
C1598 C 0.20824 0.631 0.28442 0.0
C1599 C 0.21772 0.65732 0.28794 0.0
C1600 C 0.20755 0.67752 0.27218 0.0
C1601 C 0.19024 0.67102 0.25144 0.0
C1602 C 0.2886 0.67393 0.30535 0.0
C1603 C 0.29156 0.66145 0.32948 0.0
C1604 C 0.2639 0.67443 0.29283 0.0
C1605 C 0.24179 0.66224 0.30406 0.0
C1606 C 0.2444 0.65093 0.32873 0.0
C1607 C 0.26907 0.65067 0.34142 0.0
H1608 H 0.6162 0.0186 0.61128 0.0
H1609 H 0.57555 0.05497 0.54616 0.0
H1610 H 0.61436 0.97584 0.58832 0.0
H1611 H 0.57402 0.01222 0.52327 0.0
H1612 H 0.57404 0.93363 0.48501 0.0
H1613 H 0.56063 0.96283 0.52074 0.0
H1614 H 0.64198 0.96844 0.54868 0.0
H1615 H 0.65524 0.93967 0.51311 0.0
C1616 C 0.60633 0.01739 0.59235 0.0
C1617 C 0.5967 0.04032 0.58017 0.0
C1618 C 0.60518 0.99287 0.57933 0.0
C1619 C 0.59428 0.99088 0.55403 0.0
C1620 C 0.58237 0.0132 0.54288 0.0
C1621 C 0.5836 0.03777 0.55584 0.0
C1622 C 0.58877 0.94035 0.49943 0.0
C1623 C 0.61565 0.93481 0.4964 0.0
C1624 C 0.58113 0.95704 0.51973 0.0
C1625 C 0.60028 0.96786 0.53732 0.0
C1626 C 0.62675 0.96009 0.53559 0.0
C1627 C 0.63441 0.94383 0.51515 0.0
H1628 H 0.26947 0.39925 0.7205 0.0
H1629 H 0.3194 0.33287 0.73943 0.0
H1630 H 0.24643 0.39354 0.76104 0.0
H1631 H 0.29623 0.32717 0.78035 0.0
H1632 H 0.21565 0.30942 0.82505 0.0
H1633 H 0.24918 0.31371 0.79157 0.0
H1634 H 0.25655 0.39816 0.80901 0.0
H1635 H 0.22193 0.39381 0.84113 0.0
C1636 C 0.27548 0.38347 0.73342 0.0
C1637 C 0.29609 0.3665 0.72708 0.0
C1638 C 0.26258 0.38042 0.7567 0.0
C1639 C 0.27001 0.36024 0.77388 0.0
C1640 C 0.29042 0.343 0.76741 0.0
C1641 C 0.30355 0.34623 0.74413 0.0
C1642 C 0.22467 0.32871 0.82153 0.0
C1643 C 0.21595 0.35144 0.83449 0.0
C1644 C 0.24408 0.33114 0.80293 0.0
C1645 C 0.2549 0.35638 0.79753 0.0
C1646 C 0.24805 0.37861 0.81263 0.0
C1647 C 0.22852 0.37615 0.83102 0.0
H1648 H 0.39759 0.48268 0.6023 0.0
H1649 H 0.42332 0.43026 0.54069 0.0
H1650 H 0.39842 0.51998 0.57235 0.0
H1651 H 0.42279 0.46671 0.51087 0.0
H1652 H 0.43084 0.53539 0.46144 0.0
H1653 H 0.4416 0.50696 0.49784 0.0
H1654 H 0.37104 0.53257 0.53645 0.0
H1655 H 0.36165 0.56276 0.50093 0.0
C1656 C 0.40356 0.47917 0.58248 0.0
C1657 C 0.40999 0.45352 0.57371 0.0
C1658 C 0.40394 0.50045 0.56535 0.0
C1659 C 0.41052 0.49625 0.53924 0.0
C1660 C 0.41808 0.4708 0.53094 0.0
C1661 C 0.41803 0.44974 0.54803 0.0
C1662 C 0.41802 0.53536 0.478 0.0
C1663 C 0.39544 0.55108 0.47851 0.0
C1664 C 0.42406 0.51898 0.49875 0.0
C1665 C 0.40702 0.51731 0.51988 0.0
C1666 C 0.3848 0.5337 0.52066 0.0
C1667 C 0.37919 0.55068 0.50019 0.0
H1668 H 0.68848 0.13585 0.20284 0.0
H1669 H 0.7243 0.21175 0.18438 0.0
H1670 H 0.71477 0.13469 0.2431 0.0
H1671 H 0.75067 0.21096 0.22507 0.0
H1672 H 0.82176 0.16632 0.26581 0.0
H1673 H 0.78807 0.18078 0.23464 0.0
H1674 H 0.72668 0.15451 0.28603 0.0
H1675 H 0.76043 0.13954 0.31698 0.0
C1676 C 0.70144 0.15266 0.20797 0.0
C1677 C 0.70467 0.17384 0.19085 0.0
C1678 C 0.71635 0.15214 0.23102 0.0
C1679 C 0.73487 0.17268 0.23706 0.0
C1680 C 0.73669 0.19479 0.22066 0.0
C1681 C 0.72167 0.19531 0.19756 0.0
C1682 C 0.80108 0.16398 0.27054 0.0
C1683 C 0.79359 0.15142 0.29345 0.0
C1684 C 0.7818 0.17256 0.2529 0.0
C1685 C 0.75479 0.16873 0.25798 0.0
C1686 C 0.74738 0.1575 0.28161 0.0
C1687 C 0.76665 0.14886 0.29921 0.0
H1688 H 0.57111 0.94127 0.96205 0.0
H1689 H 0.62801 0.98413 0.91609 0.0
H1690 H 0.57099 0.97793 0.99313 0.0
H1691 H 0.62885 0.02054 0.94819 0.0
H1692 H 0.61533 0.08535 0.00994 0.0
H1693 H 0.6039 0.05592 0.97284 0.0
H1694 H 0.60928 0.9877 0.02303 0.0
H1695 H 0.62022 0.01691 0.0599 0.0
C1696 C 0.58314 0.9588 0.9583 0.0
C1697 C 0.59982 0.95982 0.93692 0.0
C1698 C 0.58313 0.97969 0.97613 0.0
C1699 C 0.6003 1.00161 0.97319 0.0
C1700 C 0.61538 1.00376 0.95072 0.0
C1701 C 0.61503 0.98293 0.93251 0.0
C1702 C 0.61383 0.06405 0.01293 0.0
C1703 C 0.61856 0.0532 0.03757 0.0
C1704 C 0.60734 0.04736 0.99181 0.0
C1705 C 0.60541 0.01976 0.9953 0.0
C1706 C 0.61003 0.00903 0.02004 0.0
C1707 C 0.61652 0.02565 0.04105 0.0
H1708 H 0.94792 0.03566 0.42599 0.0
H1709 H 0.8901 0.08814 0.45802 0.0
H1710 H 0.948 0.00975 0.46593 0.0
H1711 H 0.89043 0.06255 0.49832 0.0
H1712 H 0.90941 0.01339 0.57234 0.0
H1713 H 0.91931 0.04498 0.53758 0.0
H1714 H 0.90884 0.98137 0.48059 0.0
H1715 H 0.89902 0.95017 0.51486 0.0
C1716 C 0.93594 0.0421 0.44202 0.0
C1717 C 0.91943 0.06402 0.43941 0.0
C1718 C 0.93591 0.02733 0.46474 0.0
C1719 C 0.91921 0.03422 0.48511 0.0
C1720 C 0.90371 0.05708 0.48301 0.0
C1721 C 0.90351 0.07167 0.46007 0.0
C1722 C 0.9094 0.00628 0.55237 0.0
C1723 C 0.90341 0.97943 0.54621 0.0
C1724 C 0.91504 0.02427 0.53259 0.0
C1725 C 0.91507 0.01547 0.50654 0.0
C1726 C 0.90945 0.98855 0.50057 0.0
C1727 C 0.90362 0.97075 0.52017 0.0
H1728 H 0.14187 0.27742 0.44092 0.0
H1729 H 0.10798 0.33033 0.49736 0.0
H1730 H 0.14313 0.24193 0.47339 0.0
H1731 H 0.10957 0.29518 0.52967 0.0
H1732 H 0.14734 0.23669 0.58853 0.0
H1733 H 0.14314 0.27071 0.55542 0.0
H1734 H 0.1132 0.21127 0.50032 0.0
H1735 H 0.11708 0.17692 0.53397 0.0
C1736 C 0.13491 0.28165 0.46027 0.0
C1737 C 0.12503 0.30709 0.46635 0.0
C1738 C 0.13536 0.26112 0.47888 0.0
C1739 C 0.12644 0.26543 0.50438 0.0
C1740 C 0.11681 0.29094 0.51044 0.0
C1741 C 0.11589 0.31122 0.49177 0.0
C1742 C 0.13938 0.23079 0.56952 0.0
C1743 C 0.13224 0.20389 0.56425 0.0
C1744 C 0.137 0.25045 0.55039 0.0
C1745 C 0.12788 0.24402 0.52493 0.0
C1746 C 0.12047 0.21712 0.51958 0.0
C1747 C 0.12235 0.19741 0.53901 0.0
H1748 H 0.08676 0.87486 0.78368 0.0
H1749 H 0.02864 0.90492 0.83591 0.0
H1750 H 0.05247 0.87113 0.74877 0.0
H1751 H 0.9947 0.90103 0.80153 0.0
H1752 H 0.93288 0.86593 0.74225 0.0
H1753 H 0.96777 0.86981 0.77573 0.0
H1754 H 0.02262 0.89721 0.71859 0.0
H1755 H 0.98721 0.8935 0.68479 0.0
C1756 C 0.06667 0.88026 0.78799 0.0
C1757 C 0.06083 0.88994 0.81315 0.0
C1758 C 0.04689 0.87845 0.76772 0.0
C1759 C 0.02032 0.88578 0.77184 0.0
C1760 C 0.01455 0.89487 0.79717 0.0
C1761 C 0.03427 0.89712 0.81715 0.0
C1762 C 0.95221 0.87323 0.73667 0.0
C1763 C 0.95665 0.87976 0.71045 0.0
C1764 C 0.97249 0.87544 0.75611 0.0
C1765 C 0.99855 0.88382 0.75039 0.0
C1766 C 1.00309 0.89047 0.72413 0.0
C1767 C 0.98254 0.88871 0.70464 0.0
H1768 H 0.41812 0.81894 0.04579 0.0
H1769 H 0.33878 0.79058 0.06024 0.0
H1770 H 0.4225 0.7836 0.01263 0.0
H1771 H 0.343 0.75579 0.02707 0.0
H1772 H 0.35132 0.70966 0.94858 0.0
H1773 H 0.34683 0.74704 0.97943 0.0
H1774 H 0.42582 0.73393 0.00957 0.0
H1775 H 0.43017 0.69655 0.97919 0.0
C1776 C 0.40154 0.80535 0.04188 0.0
C1777 C 0.37817 0.80776 0.05614 0.0
C1778 C 0.40408 0.7849 0.02285 0.0
C1779 C 0.38313 0.76648 0.01694 0.0
C1780 C 0.35957 0.76946 0.03072 0.0
C1781 C 0.35723 0.78947 0.05002 0.0
C1782 C 0.36772 0.71464 0.96181 0.0
C1783 C 0.39102 0.69956 0.96129 0.0
C1784 C 0.36514 0.73617 0.97965 0.0
C1785 C 0.38597 0.74384 0.99725 0.0
C1786 C 0.40938 0.72903 0.99635 0.0
C1787 C 0.41176 0.70727 0.97894 0.0
H1788 H 0.4791 0.09091 0.32089 0.0
H1789 H 0.45361 0.17042 0.30355 0.0
H1790 H 0.51331 0.09458 0.28843 0.0
H1791 H 0.48853 0.17428 0.27117 0.0
H1792 H 0.57521 0.17984 0.2388 0.0
H1793 H 0.53896 0.17668 0.26933 0.0
H1794 H 0.51916 0.09773 0.23993 0.0
H1795 H 0.5552 0.10109 0.20888 0.0
C1796 C 0.48079 0.10933 0.31027 0.0
C1797 C 0.46342 0.13044 0.31526 0.0
C1798 C 0.50045 0.11132 0.29137 0.0
C1799 C 0.50398 0.13473 0.27696 0.0
C1800 C 0.48668 0.15596 0.28191 0.0
C1801 C 0.46652 0.15374 0.3005 0.0
C1802 C 0.56328 0.16167 0.23883 0.0
C1803 C 0.56863 0.14058 0.22135 0.0
C1804 C 0.5422 0.15999 0.25628 0.0
C1805 C 0.5259 0.13694 0.25736 0.0
C1806 C 0.53128 0.11576 0.23996 0.0
C1807 C 0.55204 0.11768 0.22206 0.0
H1808 H 0.12406 0.82743 0.97995 0.0
H1809 H 0.15808 0.76901 0.92904 0.0
H1810 H 0.12061 0.7937 0.01405 0.0
H1811 H 0.15444 0.73556 0.96274 0.0
H1812 H 0.11719 0.6744 0.01771 0.0
H1813 H 0.12106 0.70908 0.98527 0.0
H1814 H 0.14802 0.76518 0.04489 0.0
H1815 H 0.14437 0.73004 0.07765 0.0
C1816 C 0.13059 0.80741 0.97584 0.0
C1817 C 0.14121 0.8012 0.95137 0.0
C1818 C 0.12885 0.78802 0.99559 0.0
C1819 C 0.1372 0.76158 0.99144 0.0
C1820 C 0.14751 0.75544 0.96686 0.0
C1821 C 0.14965 0.77482 0.94739 0.0
C1822 C 0.12418 0.69402 0.02407 0.0
C1823 C 0.13064 0.69902 0.05057 0.0
C1824 C 0.12647 0.71407 1.00528 0.0
C1825 C 0.1349 0.74026 0.01212 0.0
C1826 C 0.14129 0.74543 0.03867 0.0
C1827 C 0.13945 0.72512 0.05752 0.0
H1828 H 0.47442 0.93853 0.19936 0.0
H1829 H 0.44472 0.85804 0.20751 0.0
H1830 H 0.5064 0.93193 0.23487 0.0
H1831 H 0.47724 0.85126 0.24306 0.0
H1832 H 0.55946 0.84045 0.2857 0.0
H1833 H 0.52516 0.84674 0.25228 0.0
H1834 H 0.51218 0.92594 0.2823 0.0
H1835 H 0.54658 0.91948 0.31622 0.0
C1836 C 0.4747 0.91925 0.20855 0.0
C1837 C 0.45676 0.89879 0.19994 0.0
C1838 C 0.4931 0.91554 0.22931 0.0
C1839 C 0.49483 0.89103 0.24229 0.0
C1840 C 0.47696 0.87043 0.23366 0.0
C1841 C 0.45813 0.87432 0.21313 0.0
C1842 C 0.54936 0.8593 0.28539 0.0
C1843 C 0.55633 0.87948 0.30397 0.0
C1844 C 0.52934 0.86284 0.26611 0.0
C1845 C 0.51552 0.88692 0.26409 0.0
C1846 C 0.52233 0.90714 0.28276 0.0
C1847 C 0.54211 0.9034 0.30246 0.0
H1848 H 0.41109 0.19749 0.46047 0.0
H1849 H 0.33245 0.22703 0.44633 0.0
H1850 H 0.41777 0.23045 0.49593 0.0
H1851 H 0.33901 0.2595 0.48165 0.0
H1852 H 0.35076 0.29819 0.56412 0.0
H1853 H 0.34387 0.26415 0.52964 0.0
H1854 H 0.42312 0.27914 0.50334 0.0
H1855 H 0.42991 0.31298 0.5373 0.0
C1856 C 0.39525 0.21099 0.46476 0.0
C1857 C 0.37133 0.20953 0.45006 0.0
C1858 C 0.39907 0.23 0.48517 0.0
C1859 C 0.37891 0.24786 0.49193 0.0
C1860 C 0.35495 0.24611 0.4774 0.0
C1861 C 0.35131 0.2275 0.45682 0.0
C1862 C 0.36667 0.29435 0.55092 0.0
C1863 C 0.39082 0.30878 0.55364 0.0
C1864 C 0.36273 0.27477 0.53103 0.0
C1865 C 0.38297 0.26859 0.5135 0.0
C1866 C 0.40711 0.2829 0.51645 0.0
C1867 C 0.41089 0.30266 0.53595 0.0
H1868 H 0.92477 0.15062 0.77017 0.0
H1869 H 0.97888 0.11716 0.82647 0.0
H1870 H 0.95797 0.14658 0.73674 0.0
H1871 H 0.01248 0.11351 0.79284 0.0
H1872 H 0.07451 0.13878 0.72955 0.0
H1873 H 0.04197 0.1424 0.76412 0.0
H1874 H 0.98091 0.11162 0.71124 0.0
H1875 H 0.01332 0.10759 0.67699 0.0
C1876 C 0.94373 0.14229 0.77551 0.0
C1877 C 0.94879 0.13406 0.80125 0.0
C1878 C 0.96288 0.13991 0.75616 0.0
C1879 C 0.98815 0.1297 0.76181 0.0
C1880 C 0.9934 0.12163 0.78761 0.0
C1881 C 0.97397 0.12351 0.80693 0.0
C1882 C 0.05411 0.13293 0.7252 0.0
C1883 C 0.04674 0.12302 0.70016 0.0
C1884 C 0.03542 0.13479 0.74518 0.0
C1885 C 0.00856 0.12733 0.74072 0.0
C1886 C 1.00121 0.11779 0.71558 0.0
C1887 C 0.01994 0.11543 0.69582 0.0
H1888 H 0.17875 0.52873 0.12573 0.0
H1889 H 0.23683 0.58871 0.14963 0.0
H1890 H 0.21404 0.4956 0.12305 0.0
H1891 H 0.27181 0.55604 0.14665 0.0
H1892 H 0.33294 0.49779 0.11402 0.0
H1893 H 0.29701 0.52946 0.11632 0.0
H1894 H 0.24697 0.4693 0.14999 0.0
H1895 H 0.28339 0.4374 0.14797 0.0
C1896 C 0.19902 0.5351 0.12997 0.0
C1897 C 0.20458 0.56186 0.13761 0.0
C1898 C 0.21939 0.51588 0.12875 0.0
C1899 C 0.24626 0.52272 0.13463 0.0
C1900 C 0.25171 0.54963 0.14169 0.0
C1901 C 0.23141 0.56859 0.14339 0.0
C1902 C 0.31443 0.49116 0.1222 0.0
C1903 C 0.31163 0.4647 0.13102 0.0
C1904 C 0.29359 0.50956 0.12355 0.0
C1905 C 0.26858 0.50239 0.13334 0.0
C1906 C 0.26563 0.47586 0.14211 0.0
C1907 C 0.28677 0.45749 0.14121 0.0
H1908 H 0.83264 0.02277 0.90049 0.0
H1909 H 0.77816 0.08299 0.87593 0.0
H1910 H 0.79742 0.98907 0.89704 0.0
H1911 H 0.74234 0.04883 0.87253 0.0
H1912 H 0.67831 0.98124 0.89339 0.0
H1913 H 0.71248 0.01712 0.89732 0.0
H1914 H 0.77015 0.96358 0.86679 0.0
H1915 H 0.73651 0.92838 0.86284 0.0
C1916 C 0.81317 0.02895 0.894 0.0
C1917 C 0.80885 0.05602 0.88821 0.0
C1918 C 0.79268 0.00934 0.892 0.0
C1919 C 0.76646 0.01565 0.88448 0.0
C1920 C 0.76197 0.04278 0.8786 0.0
C1921 C 0.78276 0.0625 0.88021 0.0
C1922 C 0.69839 0.97696 0.88797 0.0
C1923 C 0.7043 0.95133 0.8781 0.0
C1924 C 0.71808 0.9978 0.88987 0.0
C1925 C 0.74462 0.99376 0.88242 0.0
C1926 C 0.75039 0.96795 0.8731 0.0
C1927 C 0.73081 0.94747 0.87082 0.0
H1928 H 0.79332 0.0525 0.33419 0.0
H1929 H 0.81865 0.04684 0.41454 0.0
H1930 H 0.75964 0.01797 0.3404 0.0
H1931 H 0.78445 0.01208 0.42086 0.0
H1932 H 0.70106 0.97196 0.42942 0.0
H1933 H 0.73645 1.00472 0.42324 0.0
H1934 H 0.7508 0.97045 0.34769 0.0
H1935 H 0.71522 0.93716 0.35403 0.0
C1936 C 0.79181 0.04397 0.35334 0.0
C1937 C 0.80905 0.05302 0.37387 0.0
C1938 C 0.77238 0.02377 0.35683 0.0
C1939 C 0.76885 0.01177 0.38116 0.0
C1940 C 0.78609 0.02075 0.4018 0.0
C1941 C 0.80594 0.04077 0.39818 0.0
C1942 C 0.71155 0.97127 0.41132 0.0
C1943 C 0.70463 0.95164 0.39216 0.0
C1944 C 0.73227 0.99014 0.4079 0.0
C1945 C 0.74698 0.99067 0.38496 0.0
C1946 C 0.74003 0.97114 0.36562 0.0
C1947 C 0.71948 0.95186 0.36925 0.0
H1948 H 0.82826 0.98292 0.11627 0.0
H1949 H 0.7713 0.92975 0.15046 0.0
H1950 H 0.79537 0.01853 0.11613 0.0
H1951 H 0.73867 0.96492 0.15009 0.0
H1952 H 0.67668 0.02468 0.11992 0.0
H1953 H 0.71027 0.99042 0.12129 0.0
H1954 H 0.76944 0.04969 0.14439 0.0
H1955 H 0.73544 0.08424 0.14325 0.0
C1956 C 0.80872 0.9786 0.12352 0.0
C1957 C 0.80276 0.95298 0.13318 0.0
C1958 C 0.78978 0.99926 0.12369 0.0
C1959 C 0.76393 0.99503 0.13309 0.0
C1960 C 0.75801 0.9693 0.14241 0.0
C1961 C 0.77697 0.94891 0.14266 0.0
C1962 C 0.69673 0.03056 0.12575 0.0
C1963 C 0.70286 0.05758 0.13184 0.0
C1964 C 0.71621 0.01068 0.12651 0.0
C1965 C 0.74302 0.01682 0.13291 0.0
C1966 C 0.74925 0.04386 0.13915 0.0
C1967 C 0.72954 0.06377 0.13884 0.0
H1968 H 0.2678 0.43027 0.64813 0.0
H1969 H 0.32802 0.48106 0.61585 0.0
H1970 H 0.23682 0.46664 0.64709 0.0
H1971 H 0.29648 0.51805 0.61473 0.0
H1972 H 0.23667 0.58612 0.63891 0.0
H1973 H 0.27017 0.55095 0.64081 0.0
H1974 H 0.21001 0.49233 0.61862 0.0
H1975 H 0.17708 0.52697 0.61677 0.0
C1976 C 0.27455 0.44915 0.64049 0.0
C1977 C 0.30079 0.45209 0.63179 0.0
C1978 C 0.25648 0.47031 0.63985 0.0
C1979 C 0.26359 0.49582 0.63073 0.0
C1980 C 0.28992 0.49899 0.62208 0.0
C1981 C 0.30808 0.47752 0.62242 0.0
C1982 C 0.23048 0.56566 0.63488 0.0
C1983 C 0.20368 0.55976 0.628 0.0
C1984 C 0.2499 0.54536 0.63561 0.0
C1985 C 0.24325 0.51826 0.62989 0.0
C1986 C 0.21636 0.51255 0.62352 0.0
C1987 C 0.19721 0.5327 0.62244 0.0
H1988 H 0.17975 0.48033 0.39121 0.0
H1989 H 0.23879 0.42568 0.36569 0.0
H1990 H 0.21366 0.51641 0.39368 0.0
H1991 H 0.27228 0.4612 0.36818 0.0
H1992 H 0.33441 0.52327 0.39812 0.0
H1993 H 0.29963 0.48903 0.39574 0.0
H1994 H 0.24368 0.54726 0.36966 0.0
H1995 H 0.27902 0.58193 0.37197 0.0
C1996 C 0.19994 0.4757 0.38652 0.0
C1997 C 0.20605 0.44939 0.37858 0.0
C1998 C 0.21957 0.4967 0.38761 0.0
C1999 C 0.24638 0.49238 0.38119 0.0
C2000 C 0.25235 0.46595 0.37369 0.0
C2001 C 0.2328 0.44522 0.37223 0.0
C2002 C 0.31485 0.52901 0.39148 0.0
C2003 C 0.31025 0.55589 0.3849 0.0
C2004 C 0.29456 0.50902 0.39009 0.0
C2005 C 0.26816 0.51465 0.38243 0.0
C2006 C 0.2634 0.54159 0.37583 0.0
C2007 C 0.28396 0.56166 0.37684 0.0
H2008 H 0.18024 0.4842 0.90597 0.0
H2009 H 0.23239 0.42333 0.87907 0.0
H2010 H 0.21517 0.51791 0.90087 0.0
H2011 H 0.26769 0.45725 0.87408 0.0
H2012 H 0.33389 0.5233 0.89349 0.0
H2013 H 0.29927 0.48862 0.89858 0.0
H2014 H 0.24064 0.5425 0.86916 0.0
H2015 H 0.27501 0.57669 0.8638 0.0
C2016 C 0.19907 0.47789 0.89864 0.0
C2017 C 0.20289 0.45066 0.89259 0.0
C2018 C 0.21934 0.49745 0.89568 0.0
C2019 C 0.24478 0.49081 0.88704 0.0
C2020 C 0.24869 0.46353 0.88097 0.0
C2021 C 0.22815 0.44395 0.88348 0.0
C2022 C 0.31357 0.52794 0.88845 0.0
C2023 C 0.30763 0.55332 0.87845 0.0
C2024 C 0.29358 0.50779 0.89107 0.0
C2025 C 0.26666 0.51227 0.8843 0.0
C2026 C 0.26078 0.53788 0.87488 0.0
C2027 C 0.28074 0.55773 0.87179 0.0
H2028 H 0.6805 0.71852 0.06185 0.0
H2029 H 0.59917 0.69217 0.05095 0.0
H2030 H 0.67482 0.75092 0.02749 0.0
H2031 H 0.59335 0.72522 0.01642 0.0
H2032 H 0.58686 0.80891 0.97662 0.0
H2033 H 0.59152 0.77427 0.00921 0.0
H2034 H 0.66837 0.75559 0.98004 0.0
H2035 H 0.66356 0.7902 0.94705 0.0
C2036 C 0.66123 0.71964 0.05226 0.0
C2037 C 0.64026 0.70251 0.0597 0.0
C2038 C 0.65806 0.73826 0.03219 0.0
C2039 C 0.63363 0.74102 0.01878 0.0
C2040 C 0.61249 0.72403 0.02624 0.0
C2041 C 0.61582 0.70492 0.04612 0.0
C2042 C 0.60483 0.79748 0.977 0.0
C2043 C 0.6249 0.80283 0.95897 0.0
C2044 C 0.6074 0.7773 0.99574 0.0
C2045 C 0.63035 0.76182 0.99765 0.0
C2046 C 0.65044 0.76707 0.97957 0.0
C2047 C 0.64766 0.78699 0.96046 0.0
H2048 H 0.5825 0.37654 0.28171 0.0
H2049 H 0.52337 0.40678 0.33287 0.0
H2050 H 0.54872 0.37223 0.24644 0.0
H2051 H 0.49014 0.40278 0.29809 0.0
H2052 H 0.42947 0.36749 0.2395 0.0
H2053 H 0.46403 0.37152 0.27304 0.0
H2054 H 0.51962 0.39765 0.21593 0.0
H2055 H 0.48457 0.39332 0.18188 0.0
C2056 C 0.56231 0.38188 0.28565 0.0
C2057 C 0.55589 0.39177 0.31052 0.0
C2058 C 0.5429 0.37977 0.26523 0.0
C2059 C 0.51634 0.38716 0.26906 0.0
C2060 C 0.51004 0.39652 0.29409 0.0
C2061 C 0.52933 0.39886 0.31425 0.0
C2062 C 0.44891 0.37449 0.23394 0.0
C2063 C 0.4538 0.38035 0.2077 0.0
C2064 C 0.46895 0.37683 0.25339 0.0
C2065 C 0.49501 0.38493 0.24759 0.0
C2066 C 0.5 0.3911 0.22137 0.0
C2067 C 0.47971 0.38901 0.20179 0.0
H2068 H 0.89835 0.18186 0.49917 0.0
H2069 H 0.87011 0.23309 0.43839 0.0
H2070 H 0.89376 0.21778 0.53107 0.0
H2071 H 0.8659 0.26958 0.4706 0.0
H2072 H 0.88712 0.33669 0.5353 0.0
H2073 H 0.89226 0.30169 0.50168 0.0
H2074 H 0.85985 0.2434 0.55341 0.0
H2075 H 0.85435 0.27807 0.58644 0.0
C2076 C 0.89101 0.20077 0.49247 0.0
C2077 C 0.88444 0.20403 0.46583 0.0
C2078 C 0.88833 0.2216 0.511 0.0
C2079 C 0.87944 0.24707 0.50386 0.0
C2080 C 0.873 0.25053 0.47716 0.0
C2081 C 0.87517 0.22937 0.45858 0.0
C2082 C 0.8814 0.31636 0.53966 0.0
C2083 C 0.87052 0.31055 0.56407 0.0
C2084 C 0.88407 0.29618 0.52014 0.0
C2085 C 0.8765 0.26927 0.52442 0.0
C2086 C 0.86619 0.26355 0.54904 0.0
C2087 C 0.86302 0.28367 0.56821 0.0
H2088 H 0.95136 0.66367 0.79881 0.0
H2089 H 0.98133 0.58609 0.81725 0.0
H2090 H 0.98504 0.66862 0.7655 0.0
H2091 H 0.01452 0.59083 0.78371 0.0
H2092 H 0.05445 0.59844 0.70291 0.0
H2093 H 0.01954 0.59337 0.735 0.0
H2094 H 0.03463 0.67407 0.76206 0.0
H2095 H 0.06972 0.67898 0.7305 0.0
C2096 C 0.96504 0.64761 0.79582 0.0
C2097 C 0.9635 0.62455 0.81116 0.0
C2098 C 0.98451 0.65048 0.77666 0.0
C2099 C 1.00278 0.63014 0.77166 0.0
C2100 C 1.00087 0.60691 0.78667 0.0
C2101 C 0.98182 0.60428 0.80617 0.0
C2102 C 0.0504 0.61512 0.7157 0.0
C2103 C 0.06533 0.63907 0.71398 0.0
C2104 C 0.03034 0.61219 0.73426 0.0
C2105 C 0.02401 0.63329 0.7514 0.0
C2106 C 0.0386 0.65737 0.74927 0.0
C2107 C 0.05898 0.66011 0.73115 0.0
H2108 H 0.59678 0.31532 0.46034 0.0
H2109 H 0.67623 0.29076 0.44462 0.0
H2110 H 0.59376 0.28134 0.49414 0.0
H2111 H 0.67333 0.25726 0.47842 0.0
H2112 H 0.66825 0.21507 0.55831 0.0
H2113 H 0.6712 0.25064 0.52608 0.0
H2114 H 0.59121 0.23224 0.49959 0.0
H2115 H 0.58838 0.1967 0.53136 0.0
C2116 C 0.61365 0.30279 0.46401 0.0
C2117 C 0.63668 0.30599 0.44927 0.0
C2118 C 0.6119 0.28311 0.48346 0.0
C2119 C 0.63331 0.26622 0.48935 0.0
C2120 C 0.65644 0.2698 0.47489 0.0
C2121 C 0.658 0.28906 0.45518 0.0
C2122 C 0.65127 0.21854 0.54563 0.0
C2123 C 0.62815 0.20253 0.54762 0.0
C2124 C 0.65298 0.23901 0.52696 0.0
C2125 C 0.63144 0.24465 0.50989 0.0
C2126 C 0.60821 0.22894 0.5123 0.0
C2127 C 0.60668 0.20824 0.53057 0.0
H2128 H 0.9423 0.3462 0.71801 0.0
H2129 H 0.97201 0.42617 0.70609 0.0
H2130 H 0.97643 0.34035 0.75233 0.0
H2131 H 1.00557 0.42045 0.74021 0.0
H2132 H 0.04802 0.41051 0.81997 0.0
H2133 H 0.01199 0.41558 0.78773 0.0
H2134 H 0.02573 0.33645 0.75781 0.0
H2135 H 0.06187 0.33148 0.78977 0.0
C2136 C 0.95593 0.36258 0.72271 0.0
C2137 C 0.95423 0.38661 0.70891 0.0
C2138 C 0.97567 0.3592 0.74237 0.0
C2139 C 0.99403 0.37991 0.74929 0.0
C2140 C 0.99186 0.40405 0.73582 0.0
C2141 C 0.97255 0.40726 0.71597 0.0
C2142 C 0.04344 0.39416 0.80653 0.0
C2143 C 0.05829 0.37066 0.80758 0.0
C2144 C 0.02271 0.39709 0.78789 0.0
C2145 C 0.01568 0.37644 0.7699 0.0
C2146 C 0.03021 0.35276 0.77131 0.0
C2147 C 0.05122 0.35001 0.78962 0.0
H2148 H 0.8752 0.77765 0.07769 0.0
H2149 H 0.89671 0.8343 0.01935 0.0
H2150 H 0.87086 0.74243 0.04374 0.0
H2151 H 0.89218 0.79967 0.9858 0.0
H2152 H 0.85708 0.73832 0.92639 0.0
H2153 H 0.86096 0.77178 0.96114 0.0
H2154 H 0.89605 0.71396 0.01194 0.0
H2155 H 0.89233 0.68018 0.97668 0.0
C2156 C 0.87852 0.78286 0.05765 0.0
C2157 C 0.88599 0.80935 0.05163 0.0
C2158 C 0.87638 0.76243 0.03805 0.0
C2159 C 0.88113 0.76771 0.01151 0.0
C2160 C 0.88801 0.79435 1.00563 0.0
C2161 C 0.89061 0.81448 0.02513 0.0
C2162 C 0.86597 0.73257 0.9448 0.0
C2163 C 0.87466 0.70616 0.94811 0.0
C2164 C 0.86822 0.75203 0.965 0.0
C2165 C 0.87885 0.74613 0.9899 0.0
C2166 C 0.88754 0.71966 0.99336 0.0
C2167 C 0.88571 0.70018 0.97286 0.0
H2168 H 0.56303 0.66898 0.21214 0.0
H2169 H 0.53558 0.58838 0.19595 0.0
H2170 H 0.52939 0.67318 0.24579 0.0
H2171 H 0.50268 0.59238 0.22958 0.0
H2172 H 0.46306 0.60024 0.30973 0.0
H2173 H 0.49842 0.59697 0.27806 0.0
H2174 H 0.47895 0.67456 0.24906 0.0
H2175 H 0.44333 0.67765 0.28032 0.0
C2176 C 0.55003 0.65211 0.21579 0.0
C2177 C 0.55211 0.62842 0.20096 0.0
C2178 C 0.53058 0.65453 0.23506 0.0
C2179 C 0.51308 0.63311 0.2406 0.0
C2180 C 0.51573 0.60929 0.22619 0.0
C2181 C 0.53463 0.60708 0.20665 0.0
C2182 C 0.46617 0.61658 0.29656 0.0
C2183 C 0.44985 0.63906 0.2976 0.0
C2184 C 0.48654 0.61471 0.27829 0.0
C2185 C 0.49178 0.6355 0.26078 0.0
C2186 C 0.47581 0.65819 0.2622 0.0
C2187 C 0.4551 0.65983 0.28007 0.0
H2188 H 0.83504 0.99581 0.61282 0.0
H2189 H 0.78405 0.93749 0.64807 0.0
H2190 H 0.79966 0.02808 0.61355 0.0
H2191 H 0.74823 0.9701 0.64875 0.0
H2192 H 0.68122 0.03019 0.62437 0.0
H2193 H 0.71569 0.99616 0.62241 0.0
H2194 H 0.77522 0.05637 0.64176 0.0
H2195 H 0.74114 0.08994 0.64374 0.0
C2196 C 0.81633 0.98976 0.62096 0.0
C2197 C 0.81298 0.96369 0.63062 0.0
C2198 C 0.7958 0.00853 0.62143 0.0
C2199 C 0.7706 1.00221 0.63126 0.0
C2200 C 0.76706 0.97604 0.6408 0.0
C2201 C 0.78786 0.95726 0.64067 0.0
C2202 C 0.70171 0.03629 0.62777 0.0
C2203 C 0.70804 0.06328 0.63392 0.0
C2204 C 0.72161 0.01657 0.62699 0.0
C2205 C 0.74874 0.02307 0.63192 0.0
C2206 C 0.75492 0.05016 0.6375 0.0
C2207 C 0.73512 0.06966 0.63866 0.0
H2208 H 0.08844 0.54067 0.19957 0.0
H2209 H 0.17171 0.55261 0.21809 0.0
H2210 H 0.08628 0.50559 0.23274 0.0
H2211 H 0.16952 0.51812 0.25048 0.0
H2212 H 0.16567 0.43518 0.28262 0.0
H2213 H 0.16252 0.46847 0.24908 0.0
H2214 H 0.09295 0.50016 0.28427 0.0
H2215 H 0.09607 0.46643 0.31852 0.0
C2216 C 0.10624 0.53577 0.21049 0.0
C2217 C 0.13024 0.54954 0.20601 0.0
C2218 C 0.10496 0.51586 0.22964 0.0
C2219 C 0.12777 0.50894 0.24425 0.0
C2220 C 0.15162 0.52266 0.23952 0.0
C2221 C 0.15281 0.54262 0.22089 0.0
C2222 C 0.14949 0.44901 0.28336 0.0
C2223 C 0.13119 0.44798 0.3036 0.0
C2224 C 0.14776 0.46825 0.26401 0.0
C2225 C 0.12757 0.48714 0.26394 0.0
C2226 C 0.10867 0.4858 0.28363 0.0
C2227 C 0.11056 0.46655 0.30335 0.0
H2228 H 0.70711 0.92085 0.4766 0.0
H2229 H 0.72464 0.84037 0.45279 0.0
H2230 H 0.74207 0.91998 0.50947 0.0
H2231 H 0.76042 0.83958 0.4866 0.0
H2232 H 0.80372 0.85003 0.57438 0.0
H2233 H 0.76874 0.84389 0.54008 0.0
H2234 H 0.79171 0.91913 0.50721 0.0
H2235 H 0.82594 0.92519 0.54037 0.0
C2236 C 0.71834 0.90276 0.47832 0.0
C2237 C 0.71268 0.88067 0.46162 0.0
C2238 C 0.73866 0.90234 0.49736 0.0
C2239 C 0.75434 0.87976 0.50096 0.0
C2240 C 0.7487 0.85732 0.48462 0.0
C2241 C 0.72831 0.85785 0.46503 0.0
C2242 C 0.80144 0.86512 0.5597 0.0
C2243 C 0.81799 0.88817 0.56061 0.0
C2244 C 0.78141 0.86154 0.5399 0.0
C2245 C 0.77712 0.8811 0.52076 0.0
C2246 C 0.79403 0.90368 0.52156 0.0
C2247 C 0.81394 0.90709 0.54084 0.0
H2248 H 0.39308 0.47313 0.67712 0.0
H2249 H 0.36285 0.41968 0.73475 0.0
H2250 H 0.39815 0.50855 0.71055 0.0
H2251 H 0.36822 0.45464 0.76799 0.0
H2252 H 0.39838 0.51854 0.82652 0.0
H2253 H 0.40138 0.48354 0.79307 0.0
H2254 H 0.36558 0.53544 0.73663 0.0
H2255 H 0.36231 0.57026 0.76999 0.0
C2256 C 0.38825 0.46871 0.69702 0.0
C2257 C 0.37775 0.4435 0.70326 0.0
C2258 C 0.39086 0.48907 0.71614 0.0
C2259 C 0.38353 0.48452 0.74204 0.0
C2260 C 0.37429 0.45888 0.7484 0.0
C2261 C 0.3712 0.4388 0.72929 0.0
C2262 C 0.39137 0.52261 0.80694 0.0
C2263 C 0.38002 0.5473 0.8011 0.0
C2264 C 0.393 0.50248 0.78775 0.0
C2265 C 0.38378 0.50662 0.76205 0.0
C2266 C 0.37317 0.53159 0.75606 0.0
C2267 C 0.37112 0.55152 0.77532 0.0
H2268 H 0.81514 0.08763 0.97707 0.0
H2269 H 0.79701 0.16741 0.95257 0.0
H2270 H 0.78124 0.09005 0.00963 0.0
H2271 H 0.76287 0.16983 0.98582 0.0
H2272 H 0.72481 0.16724 0.07068 0.0
H2273 H 0.75871 0.16878 0.03716 0.0
H2274 H 0.73118 0.09203 0.00757 0.0
H2275 H 0.69752 0.09047 0.04045 0.0
C2276 C 0.80405 0.10583 0.97868 0.0
C2277 C 0.80893 0.12734 0.96204 0.0
C2278 C 0.78446 0.10713 0.99736 0.0
C2279 C 0.76926 0.13008 1.00031 0.0
C2280 C 0.77435 0.15191 0.98411 0.0
C2281 C 0.7938 0.15046 0.96498 0.0
C2282 C 0.72594 0.15077 0.05695 0.0
C2283 C 0.70838 0.12871 0.05845 0.0
C2284 C 0.74526 0.15173 0.03766 0.0
C2285 C 0.74774 0.13046 0.01977 0.0
C2286 C 0.73001 0.10864 0.02117 0.0
C2287 C 0.71059 0.10783 0.04006 0.0
H2288 H 0.24106 0.15178 0.58201 0.0
H2289 H 0.17994 0.11879 0.53024 0.0
H2290 H 0.27222 0.15159 0.54629 0.0
H2291 H 0.21101 0.11896 0.49455 0.0
H2292 H 0.26608 0.15631 0.4321 0.0
H2293 H 0.23509 0.15351 0.46787 0.0
H2294 H 0.29595 0.11946 0.51666 0.0
H2295 H 0.32684 0.1219 0.48086 0.0
C2296 C 0.23427 0.1443 0.5631 0.0
C2297 C 0.2079 0.13519 0.55919 0.0
C2298 C 0.2522 0.14414 0.54259 0.0
C2299 C 0.24417 0.13535 0.51743 0.0
C2300 C 0.21786 0.12608 0.51356 0.0
C2301 C 0.20008 0.12578 0.53416 0.0
C2302 C 0.27284 0.14804 0.45038 0.0
C2303 C 0.29903 0.13924 0.45342 0.0
C2304 C 0.25501 0.14635 0.4709 0.0
C2305 C 0.26297 0.13629 0.49525 0.0
C2306 C 0.28914 0.12749 0.49829 0.0
C2307 C 0.30683 0.12872 0.47764 0.0
H2308 H 0.1478 0.93833 0.78149 0.0
H2309 H 0.11274 0.99854 0.8297 0.0
H2310 H 0.14756 0.969 0.74491 0.0
H2311 H 0.11307 0.02944 0.79316 0.0
H2312 H 0.14 0.08496 0.72557 0.0
H2313 H 0.14523 0.05509 0.76287 0.0
H2314 H 0.11128 0.99002 0.71674 0.0
H2315 H 0.10547 0.01983 0.67996 0.0
C2316 C 0.1404 0.95823 0.78447 0.0
C2317 C 0.13036 0.96583 0.80876 0.0
C2318 C 0.14013 0.97582 0.76338 0.0
C2319 C 0.13035 1.00182 0.76597 0.0
C2320 C 0.12099 0.00971 0.79044 0.0
C2321 C 0.12071 0.9919 0.81141 0.0
C2322 C 0.13411 0.06417 0.72328 0.0
C2323 C 0.12251 0.05482 0.69961 0.0
C2324 C 0.13684 0.04709 0.74475 0.0
C2325 C 0.12867 0.02004 0.74293 0.0
C2326 C 0.11799 0.01058 0.71892 0.0
C2327 C 0.11466 0.02774 0.69777 0.0
H2328 H 0.18506 0.89572 0.97859 0.0
H2329 H 0.24612 0.86237 0.93173 0.0
H2330 H 0.21687 0.90018 0.01553 0.0
H2331 H 0.27784 0.86731 0.96818 0.0
H2332 H 0.33536 0.89735 0.03385 0.0
H2333 H 0.30336 0.89979 0.99724 0.0
H2334 H 0.24169 0.86964 0.04594 0.0
H2335 H 0.27366 0.86671 0.08223 0.0
C2336 C 0.20537 0.88992 0.9759 0.0
C2337 C 0.21285 0.87888 0.95186 0.0
C2338 C 0.22365 0.89222 0.99724 0.0
C2339 C 0.25023 0.88414 0.99514 0.0
C2340 C 0.25782 0.87405 0.97077 0.0
C2341 C 0.23947 0.87118 0.94973 0.0
C2342 C 0.31489 0.89171 0.03695 0.0
C2343 C 0.30733 0.882 0.06134 0.0
C2344 C 0.29647 0.89286 0.01578 0.0
C2345 C 0.26964 0.88489 0.01831 0.0
C2346 C 0.26193 0.87621 0.04301 0.0
C2347 C 0.28042 0.87449 0.06396 0.0
H2348 H 0.37099 0.09018 0.28647 0.0
H2349 H 0.40243 0.02721 0.33363 0.0
H2350 H 0.36729 0.05912 0.24904 0.0
H2351 H 0.39842 0.99633 0.29665 0.0
H2352 H 0.36809 0.94117 0.2301 0.0
H2353 H 0.36564 0.97256 0.26677 0.0
H2354 H 0.39939 0.03471 0.22011 0.0
H2355 H 0.40215 1.00327 0.18349 0.0
C2356 C 0.37653 0.06961 0.28905 0.0
C2357 C 0.38685 0.06125 0.3132 0.0
C2358 C 0.37469 0.05184 0.26751 0.0
C2359 C 0.38259 0.0251 0.26969 0.0
C2360 C 0.3919 0.01659 0.29415 0.0
C2361 C 0.39424 0.0344 0.31543 0.0
C2362 C 0.37474 0.96158 0.22749 0.0
C2363 C 0.38532 0.96953 0.20365 0.0
C2364 C 0.37347 0.97961 0.24864 0.0
C2365 C 0.3823 0.00631 0.24654 0.0
C2366 C 0.39215 0.01446 0.22247 0.0
C2367 C 0.39387 0.99632 0.20145 0.0
H2368 H 0.47751 0.31342 0.10412 0.0
H2369 H 0.4518 0.28466 0.17828 0.0
H2370 H 0.51359 0.28092 0.10499 0.0
H2371 H 0.4873 0.25291 0.17906 0.0
H2372 H 0.57137 0.22524 0.19046 0.0
H2373 H 0.53592 0.2565 0.18455 0.0
H2374 H 0.52387 0.22927 0.1052 0.0
H2375 H 0.56 0.19721 0.11114 0.0
C2376 C 0.47937 0.30023 0.12052 0.0
C2377 C 0.46151 0.30202 0.14114 0.0
C2378 C 0.50002 0.28145 0.12095 0.0
C2379 C 0.50364 0.26425 0.14221 0.0
C2380 C 0.48553 0.2659 0.16249 0.0
C2381 C 0.46491 0.28424 0.16194 0.0
C2382 C 0.56143 0.22573 0.17157 0.0
C2383 C 0.56888 0.20837 0.1513 0.0
C2384 C 0.54081 0.24376 0.16825 0.0
C2385 C 0.52669 0.24551 0.14445 0.0
C2386 C 0.53432 0.22863 0.12381 0.0
C2387 C 0.55498 0.21012 0.12725 0.0
H2388 H 0.92862 0.24031 0.86052 0.0
H2389 H 0.9772 0.17859 0.89264 0.0
H2390 H 0.96591 0.27202 0.86465 0.0
H2391 H 0.01482 0.21033 0.89633 0.0
H2392 H 0.08267 0.26615 0.86411 0.0
H2393 H 0.0453 0.23473 0.86677 0.0
H2394 H 0.99659 0.29782 0.89537 0.0
H2395 H 0.03436 0.32933 0.89316 0.0
C2396 C 0.94715 0.23348 0.86882 0.0
C2397 C 0.94948 0.20662 0.87641 0.0
C2398 C 0.9687 0.25184 0.87124 0.0
C2399 C 0.99377 0.24407 0.8808 0.0
C2400 C 0.99605 0.21729 0.88874 0.0
C2401 C 0.97427 0.19901 0.88684 0.0
C2402 C 0.06416 0.27337 0.87145 0.0
C2403 C 0.06195 0.30052 0.87864 0.0
C2404 C 0.04257 0.25517 0.87302 0.0
C2405 C 0.01752 0.2634 0.88125 0.0
C2406 C 0.01534 0.29051 0.88879 0.0
C2407 C 0.0372 0.30865 0.88777 0.0
H2408 H 0.98306 0.81606 0.08455 0.0
H2409 H 0.94997 0.78765 0.15584 0.0
H2410 H 0.01483 0.78029 0.08537 0.0
H2411 H 0.98238 0.75157 0.1567 0.0
H2412 H 0.06505 0.70484 0.15701 0.0
H2413 H 0.03304 0.74124 0.16047 0.0
H2414 H 0.01269 0.73129 0.07899 0.0
H2415 H 0.04388 0.69532 0.07558 0.0
C2416 C 0.98255 0.80231 0.10058 0.0
C2417 C 0.96356 0.80504 0.12008 0.0
C2418 C 1.00087 0.78155 0.10097 0.0
C2419 C 1.00131 0.76268 0.121 0.0
C2420 C 0.98286 0.76569 0.14098 0.0
C2421 C 0.96413 0.7864 0.14042 0.0
C2422 C 0.05366 0.71036 0.13988 0.0
C2423 C 0.0573 0.69682 0.11601 0.0
C2424 C 0.03517 0.73121 0.14188 0.0
C2425 C 0.02021 0.73955 0.11996 0.0
C2426 C 0.0239 0.72587 0.09628 0.0
C2427 C 0.04186 0.70493 0.09439 0.0
H2428 H 0.55937 0.79289 0.33083 0.0
H2429 H 0.55107 0.81336 0.41195 0.0
H2430 H 0.52351 0.76059 0.33321 0.0
H2431 H 0.51433 0.78005 0.41431 0.0
H2432 H 0.46584 0.69347 0.40478 0.0
H2433 H 0.50221 0.72717 0.40905 0.0
H2434 H 0.47514 0.76304 0.33783 0.0
H2435 H 0.43972 0.73018 0.33349 0.0
C2436 C 0.55005 0.7905 0.34942 0.0
C2437 C 0.55861 0.80616 0.37121 0.0
C2438 C 0.52911 0.77181 0.3507 0.0
C2439 C 0.51558 0.76745 0.37389 0.0
C2440 C 0.52422 0.78263 0.39606 0.0
C2441 C 0.54524 0.80192 0.39467 0.0
C2442 C 0.46752 0.70869 0.39017 0.0
C2443 C 0.44943 0.70865 0.36873 0.0
C2444 C 0.48839 0.72817 0.39269 0.0
C2445 C 0.49202 0.74798 0.37367 0.0
C2446 C 0.47351 0.74813 0.35277 0.0
C2447 C 0.45284 0.72907 0.35037 0.0
H2448 H 0.99215 0.83262 0.62204 0.0
H2449 H 0.94243 0.77158 0.65484 0.0
H2450 H 0.02894 0.80125 0.62087 0.0
H2451 H 0.97883 0.74028 0.65321 0.0
H2452 H 0.04352 0.68261 0.62651 0.0
H2453 H 0.00721 0.71426 0.62305 0.0
H2454 H 0.05944 0.7774 0.65207 0.0
H2455 H 0.09555 0.74574 0.65597 0.0
C2456 C 0.98886 0.81246 0.62867 0.0
C2457 C 0.96401 0.80487 0.63845 0.0
C2458 C 0.01011 0.79442 0.62818 0.0
C2459 C 0.00715 0.76794 0.6369 0.0
C2460 C 0.98208 0.76025 0.64605 0.0
C2461 C 0.96108 0.77838 0.64707 0.0
C2462 C 0.04748 0.70331 0.63175 0.0
C2463 C 0.07284 0.71139 0.64134 0.0
C2464 C 0.02646 0.72153 0.63001 0.0
C2465 C 0.03008 0.74866 0.6373 0.0
C2466 C 0.05568 0.75688 0.64602 0.0
C2467 C 0.07653 0.73859 0.64827 0.0
H2468 H 0.08186 0.27973 0.37824 0.0
H2469 H 0.0217 0.33138 0.40711 0.0
H2470 H 0.04925 0.24268 0.37538 0.0
H2471 H 0.98912 0.29471 0.40369 0.0
H2472 H 0.9306 0.22629 0.37655 0.0
H2473 H 0.96304 0.26328 0.37313 0.0
H2474 H 0.02368 0.21405 0.40648 0.0
H2475 H 0.9913 0.17757 0.41045 0.0
C2476 C 0.0616 0.28345 0.38343 0.0
C2477 C 0.05467 0.30892 0.39274 0.0
C2478 C 0.04282 0.26202 0.38202 0.0
C2479 C 0.01621 0.26535 0.38929 0.0
C2480 C 0.00914 0.2911 0.39765 0.0
C2481 C 0.028 0.31228 0.39966 0.0
C2482 C 0.95095 0.22315 0.3827 0.0
C2483 C 0.95811 0.19856 0.39357 0.0
C2484 C 0.96962 0.24456 0.38099 0.0
C2485 C 0.99633 0.242 0.3895 0.0
C2486 C 1.00359 0.21704 0.39944 0.0
C2487 C 0.98485 0.19596 0.40174 0.0
H2488 H 0.43031 0.72351 0.87064 0.0
H2489 H 0.49273 0.6751 0.90183 0.0
H2490 H 0.46254 0.76038 0.86517 0.0
H2491 H 0.5247 0.71143 0.89617 0.0
H2492 H 0.58219 0.77686 0.86934 0.0
H2493 H 0.54957 0.7398 0.86605 0.0
H2494 H 0.48896 0.79203 0.89317 0.0
H2495 H 0.52139 0.82863 0.89667 0.0
C2496 C 0.45094 0.72042 0.87575 0.0
C2497 C 0.4587 0.69602 0.88654 0.0
C2498 C 0.4695 0.74173 0.87288 0.0
C2499 C 0.49657 0.73921 0.8802 0.0
C2500 C 0.50434 0.71438 0.88996 0.0
C2501 C 0.48581 0.6934 0.89329 0.0
C2502 C 0.56178 0.78061 0.87397 0.0
C2503 C 0.55462 0.80605 0.88305 0.0
C2504 C 0.54301 0.7592 0.8724 0.0
C2505 C 0.51629 0.76257 0.87938 0.0
C2506 C 0.50903 0.78837 0.8873 0.0
C2507 C 0.52781 0.80952 0.88935 0.0
H2508 H 0.67661 0.05942 0.72018 0.0
H2509 H 0.59417 0.04621 0.69877 0.0
H2510 H 0.67344 0.02533 0.75305 0.0
H2511 H 0.591 0.01179 0.73238 0.0
H2512 H 0.59706 0.97085 0.81738 0.0
H2513 H 0.59558 1.00582 0.78411 0.0
H2514 H 0.66687 0.97542 0.75125 0.0
H2515 H 0.66833 0.94092 0.78364 0.0
C2516 C 0.65768 0.04935 0.72248 0.0
C2517 C 0.63567 0.05572 0.70653 0.0
C2518 C 0.65591 0.02963 0.74142 0.0
C2519 C 0.63199 0.01565 0.74546 0.0
C2520 C 0.60971 0.02223 0.72993 0.0
C2521 C 0.61159 0.04183 0.71052 0.0
C2522 C 0.6123 0.97156 0.80296 0.0
C2523 C 0.63279 0.95283 0.80345 0.0
C2524 C 0.61139 0.99155 0.7838 0.0
C2525 C 0.63121 0.99359 0.765 0.0
C2526 C 0.65141 0.97473 0.76547 0.0
C2527 C 0.65212 0.95473 0.78417 0.0
H2528 H 0.33804 0.39787 0.02857 0.0
H2529 H 0.28717 0.37034 0.08915 0.0
H2530 H 0.30208 0.39121 0.99652 0.0
H2531 H 0.25076 0.36392 0.05689 0.0
H2532 H 0.18701 0.39689 0.99734 0.0
H2533 H 0.22287 0.39499 0.0299 0.0
H2534 H 0.27245 0.35729 0.97362 0.0
H2535 H 0.23635 0.35894 0.94095 0.0
C2536 C 0.31926 0.38988 0.03499 0.0
C2537 C 0.31561 0.38449 0.06149 0.0
C2538 C 0.29859 0.38601 0.01653 0.0
C2539 C 0.27338 0.37709 0.024 0.0
C2540 C 0.26986 0.37095 0.05042 0.0
C2541 C 0.2908 0.37435 0.0689 0.0
C2542 C 0.20545 0.38791 0.9919 0.0
C2543 C 0.20867 0.37808 0.96638 0.0
C2544 C 0.22601 0.38667 0.01071 0.0
C2545 C 0.25065 0.37596 1.00453 0.0
C2546 C 0.2538 0.36576 0.97911 0.0
C2547 C 0.23303 0.36658 0.96037 0.0
H2548 H 0.86902 0.92344 0.23393 0.0
H2549 H 0.89324 0.97901 0.17558 0.0
H2550 H 0.87218 0.95867 0.26701 0.0
H2551 H 0.89627 0.01472 0.20894 0.0
H2552 H 0.8641 0.07651 0.27002 0.0
H2553 H 0.86711 0.04181 0.23643 0.0
H2554 H 0.90091 0.98884 0.29299 0.0
H2555 H 0.89802 0.02367 0.32663 0.0
C2556 C 0.87557 0.94312 0.22815 0.0
C2557 C 0.88119 0.94801 0.20185 0.0
C2558 C 0.8774 0.96351 0.24732 0.0
C2559 C 0.88445 0.98993 0.24103 0.0
C2560 C 0.8906 0.99481 0.21477 0.0
C2561 C 0.88922 0.97417 0.19557 0.0
C2562 C 0.87244 0.05758 0.27538 0.0
C2563 C 0.88085 0.05326 0.30139 0.0
C2564 C 0.87431 0.03756 0.2559 0.0
C2565 C 0.88426 0.01215 0.26162 0.0
C2566 C 0.89292 0.0079 0.28758 0.0
C2567 C 0.89142 0.02808 0.307 0.0
H2568 H 0.20153 0.59144 0.54068 0.0
H2569 H 0.22213 0.67212 0.56489 0.0
H2570 H 0.23547 0.59295 0.50811 0.0
H2571 H 0.25636 0.67365 0.53155 0.0
H2572 H 0.29481 0.66836 0.44649 0.0
H2573 H 0.26111 0.67107 0.4802 0.0
H2574 H 0.28531 0.59493 0.50941 0.0
H2575 H 0.31868 0.59223 0.47639 0.0
C2576 C 0.21319 0.60966 0.53903 0.0
C2577 C 0.2089 0.63168 0.55563 0.0
C2578 C 0.23283 0.61044 0.5203 0.0
C2579 C 0.24879 0.63337 0.51715 0.0
C2580 C 0.24435 0.65569 0.53335 0.0
C2581 C 0.22482 0.65476 0.55256 0.0
C2582 C 0.293 0.65228 0.46019 0.0
C2583 C 0.30962 0.63007 0.4585 0.0
C2584 C 0.27378 0.65391 0.47962 0.0
C2585 C 0.27036 0.63316 0.49751 0.0
C2586 C 0.28713 0.61118 0.49588 0.0
C2587 C 0.30646 0.60972 0.47687 0.0
H2588 H 0.679 0.61577 0.02552 0.0
H2589 H 0.74245 0.64301 0.07757 0.0
H2590 H 0.71004 0.61475 0.98949 0.0
H2591 H 0.7733 0.6417 0.04186 0.0
H2592 H 0.82719 0.61289 0.97697 0.0
H2593 H 0.79533 0.6099 0.01186 0.0
H2594 H 0.7368 0.64791 0.96331 0.0
H2595 H 0.76878 0.6512 0.9284 0.0
C2596 C 0.6996 0.62113 0.02941 0.0
C2597 C 0.70812 0.62935 0.05461 0.0
C2598 C 0.71738 0.62079 0.00867 0.0
C2599 C 0.7443 0.62814 0.01264 0.0
C2600 C 0.75287 0.63565 0.03799 0.0
C2601 C 0.73507 0.63647 0.05853 0.0
C2602 C 0.80748 0.62042 0.97355 0.0
C2603 C 0.80071 0.63226 0.94966 0.0
C2604 C 0.78919 0.61885 0.9937 0.0
C2605 C 0.76337 0.62866 0.99055 0.0
C2606 C 0.75637 0.63991 0.96645 0.0
C2607 C 0.77481 0.64191 0.94642 0.0
H2608 H 0.66305 0.45779 0.29355 0.0
H2609 H 0.58483 0.48422 0.31212 0.0
H2610 H 0.66389 0.48875 0.25689 0.0
H2611 H 0.5856 0.51456 0.27558 0.0
H2612 H 0.58126 0.5379 0.19005 0.0
H2613 H 0.58467 0.50847 0.22691 0.0
H2614 H 0.66291 0.54007 0.2455 0.0
H2615 H 0.65939 0.57042 0.20828 0.0
C2616 C 0.64609 0.47022 0.28999 0.0
C2617 C 0.62386 0.4683 0.30605 0.0
C2618 C 0.64664 0.4881 0.26898 0.0
C2619 C 0.62476 0.50419 0.26304 0.0
C2620 C 0.60275 0.50241 0.27928 0.0
C2621 C 0.60238 0.48499 0.30045 0.0
C2622 C 0.59943 0.53866 0.20168 0.0
C2623 C 0.62011 0.55676 0.19578 0.0
C2624 C 0.60125 0.52175 0.22312 0.0
C2625 C 0.62397 0.52185 0.23948 0.0
C2626 C 0.6451 0.53933 0.23333 0.0
C2627 C 0.64309 0.55677 0.21195 0.0
H2628 H 0.82518 0.4065 0.52968 0.0
H2629 H 0.76503 0.36779 0.57475 0.0
H2630 H 0.79335 0.40992 0.49315 0.0
H2631 H 0.73341 0.37125 0.53846 0.0
H2632 H 0.67541 0.39818 0.47467 0.0
H2633 H 0.70703 0.40205 0.51161 0.0
H2634 H 0.77037 0.3798 0.46138 0.0
H2635 H 0.73897 0.37593 0.42474 0.0
C2636 C 0.80514 0.39901 0.53198 0.0
C2637 C 0.79787 0.38686 0.55535 0.0
C2638 C 0.78686 0.40081 0.51092 0.0
C2639 C 0.76061 0.3909 0.51267 0.0
C2640 C 0.75322 0.37943 0.53631 0.0
C2641 C 0.77153 0.37729 0.55717 0.0
C2642 C 0.69617 0.39475 0.47138 0.0
C2643 C 0.70451 0.38692 0.44653 0.0
C2644 C 0.71433 0.39664 0.49267 0.0
C2645 C 0.74143 0.39117 0.48968 0.0
C2646 C 0.74985 0.38447 0.46457 0.0
C2647 C 0.73171 0.38221 0.44346 0.0
H2648 H 0.89496 0.49417 0.68201 0.0
H2649 H 0.86934 0.43033 0.7312 0.0
H2650 H 0.89304 0.52565 0.71859 0.0
H2651 H 0.86791 0.46189 0.76817 0.0
H2652 H 0.90628 0.52038 0.83253 0.0
H2653 H 0.90065 0.48853 0.79631 0.0
H2654 H 0.86377 0.54909 0.74999 0.0
H2655 H 0.86896 0.58096 0.78658 0.0
C2656 C 0.88843 0.48684 0.70055 0.0
C2657 C 0.88202 0.4595 0.70329 0.0
C2658 C 0.88733 0.50504 0.72168 0.0
C2659 C 0.8804 0.49662 0.7467 0.0
C2660 C 0.87349 0.46933 0.74939 0.0
C2661 C 0.87401 0.45117 0.72802 0.0
C2662 C 0.89655 0.52692 0.81481 0.0
C2663 C 0.88795 0.55348 0.81285 0.0
C2664 C 0.89324 0.50848 0.7939 0.0
C2665 C 0.88175 0.51593 0.76987 0.0
C2666 C 0.87283 0.54242 0.76799 0.0
C2667 C 0.87561 0.56075 0.78915 0.0
H2668 H 0.43665 0.27077 0.63997 0.0
H2669 H 0.4972 0.32435 0.61233 0.0
H2670 H 0.46861 0.23458 0.64085 0.0
H2671 H 0.52902 0.28836 0.61335 0.0
H2672 H 0.58702 0.22291 0.63724 0.0
H2673 H 0.55497 0.2587 0.64164 0.0
H2674 H 0.49308 0.20625 0.6104 0.0
H2675 H 0.52501 0.17066 0.60587 0.0
C2676 C 0.45681 0.27501 0.63438 0.0
C2677 C 0.46411 0.30076 0.62616 0.0
C2678 C 0.47519 0.2541 0.63469 0.0
C2679 C 0.50166 0.25827 0.62719 0.0
C2680 C 0.50906 0.28421 0.61958 0.0
C2681 C 0.49063 0.30495 0.61889 0.0
C2682 C 0.5665 0.21881 0.63171 0.0
C2683 C 0.55882 0.19359 0.62129 0.0
C2684 C 0.54807 0.23952 0.63399 0.0
C2685 C 0.52119 0.23567 0.62632 0.0
C2686 C 0.51339 0.21015 0.61678 0.0
C2687 C 0.53186 0.18962 0.61412 0.0
loop_
_geom_bond_atom_site_label_1
_geom_bond_atom_site_label_2
_geom_bond_distance
_geom_bond_site_symmetry_2
_ccdc_geom_bond_type
Co0 H3 2.400 . S
Co0 O4 2.009 . S
Co0 O12 2.115 . S
Co0 O13 2.315 . S
Co0 O24 2.053 . S
Co0 O27 2.094 . S
Co0 O30 2.122 . S
Co1 O4 2.126 . S
Co1 H5 2.388 . S
Co1 O6 2.053 . S
Co1 O9 2.047 . S
Co1 O15 2.113 . S
Co1 O26 2.063 . S
Co2 H3 2.388 . S
Co2 O4 2.053 . S
Co2 O6 2.126 . S
Co2 O11 2.063 . S
Co2 O25 2.047 . S
Co2 O31 2.113 . S
H3 Co0 2.400 . S
H3 Co2 2.388 . S
H3 O4 0.760 . S
O4 Co0 2.009 . S
O4 Co1 2.126 . S
O4 Co2 2.053 . S
O4 H3 0.760 . S
H5 Co1 2.388 . S
H5 O6 0.760 . S
H5 Co7 2.400 . S
O6 Co1 2.053 . S
O6 Co2 2.126 . S
O6 H5 0.760 . S
O6 Co7 2.009 . S
Co7 H5 2.400 . S
Co7 O6 2.009 . S
Co7 O8 2.053 . S
Co7 O10 2.094 . S
Co7 O14 2.122 . S
Co7 O28 2.115 . S
Co7 O29 2.315 . S
O8 Co7 2.053 . S
O8 C20 1.259 . S
O9 Co1 2.047 . S
O9 C20 1.257 . S
O10 Co7 2.094 . S
O10 C21 1.253 . S
O11 Co2 2.063 . S
O11 C21 1.268 . S
O12 Co0 2.115 . S
O12 C22 1.281 . S
O13 Co0 2.315 . S
O13 C22 1.252 . S
O14 Co7 2.122 . S
O14 C23 1.272 . S
O15 Co1 2.113 . S
O15 C23 1.245 . S
C16 O24 1.259 . S
C16 O25 1.257 . S
C17 O26 1.268 . S
C17 O27 1.253 . S
C18 O28 1.281 . S
C18 O29 1.252 . S
C19 O30 1.272 . S
C19 O31 1.245 . S
C20 O8 1.259 . S
C20 O9 1.257 . S
C21 O10 1.253 . S
C21 O11 1.268 . S
C22 O12 1.281 . S
C22 O13 1.252 . S
C23 O14 1.272 . S
C23 O15 1.245 . S
O24 Co0 2.053 . S
O24 C16 1.259 . S
O25 Co2 2.047 . S
O25 C16 1.257 . S
O26 Co1 2.063 . S
O26 C17 1.268 . S
O27 Co0 2.094 . S
O27 C17 1.253 . S
O28 Co7 2.115 . S
O28 C18 1.281 . S
O29 Co7 2.315 . S
O29 C18 1.252 . S
O30 Co0 2.122 . S
O30 C19 1.272 . S
O31 Co2 2.113 . S
O31 C19 1.245 . S
Co32 H35 2.400 . S
Co32 O36 2.009 . S
Co32 O44 2.115 . S
Co32 O45 2.315 . S
Co32 O56 2.053 . S
Co32 O59 2.094 . S
Co32 O62 2.122 . S
Co33 O36 2.126 . S
Co33 H37 2.388 . S
Co33 O38 2.053 . S
Co33 O41 2.047 . S
Co33 O47 2.113 . S
Co33 O58 2.063 . S
Co34 H35 2.388 . S
Co34 O36 2.053 . S
Co34 O38 2.126 . S
Co34 O43 2.063 . S
Co34 O57 2.047 . S
Co34 O63 2.113 . S
H35 Co32 2.400 . S
H35 Co34 2.388 . S
H35 O36 0.760 . S
O36 Co32 2.009 . S
O36 Co33 2.126 . S
O36 Co34 2.053 . S
O36 H35 0.760 . S
H37 Co33 2.388 . S
H37 O38 0.760 . S
H37 Co39 2.400 . S
O38 Co33 2.053 . S
O38 Co34 2.126 . S
O38 H37 0.760 . S
O38 Co39 2.009 . S
Co39 H37 2.400 . S
Co39 O38 2.009 . S
Co39 O40 2.053 . S
Co39 O42 2.094 . S
Co39 O46 2.122 . S
Co39 O60 2.115 . S
Co39 O61 2.315 . S
O40 Co39 2.053 . S
O40 C52 1.259 . S
O41 Co33 2.047 . S
O41 C52 1.257 . S
O42 Co39 2.094 . S
O42 C53 1.253 . S
O43 Co34 2.063 . S
O43 C53 1.268 . S
O44 Co32 2.115 . S
O44 C54 1.281 . S
O45 Co32 2.315 . S
O45 C54 1.252 . S
O46 Co39 2.122 . S
O46 C55 1.272 . S
O47 Co33 2.113 . S
O47 C55 1.245 . S
C48 O56 1.259 . S
C48 O57 1.257 . S
C49 O58 1.268 . S
C49 O59 1.253 . S
C50 O60 1.281 . S
C50 O61 1.252 . S
C51 O62 1.272 . S
C51 O63 1.245 . S
C52 O40 1.259 . S
C52 O41 1.257 . S
C53 O42 1.253 . S
C53 O43 1.268 . S
C54 O44 1.281 . S
C54 O45 1.252 . S
C55 O46 1.272 . S
C55 O47 1.245 . S
O56 Co32 2.053 . S
O56 C48 1.259 . S
O57 Co34 2.047 . S
O57 C48 1.257 . S
O58 Co33 2.063 . S
O58 C49 1.268 . S
O59 Co32 2.094 . S
O59 C49 1.253 . S
O60 Co39 2.115 . S
O60 C50 1.281 . S
O61 Co39 2.315 . S
O61 C50 1.252 . S
O62 Co32 2.122 . S
O62 C51 1.272 . S
O63 Co34 2.113 . S
O63 C51 1.245 . S
Co64 H67 2.400 . S
Co64 O68 2.009 . S
Co64 O76 2.115 . S
Co64 O77 2.315 . S
Co64 O88 2.053 . S
Co64 O91 2.094 . S
Co64 O94 2.122 . S
Co65 O68 2.126 . S
Co65 H69 2.388 . S
Co65 O70 2.053 . S
Co65 O73 2.047 . S
Co65 O79 2.113 . S
Co65 O90 2.063 . S
Co66 H67 2.388 . S
Co66 O68 2.053 . S
Co66 O70 2.126 . S
Co66 O75 2.063 . S
Co66 O89 2.047 . S
Co66 O95 2.113 . S
H67 Co64 2.400 . S
H67 Co66 2.388 . S
H67 O68 0.760 . S
O68 Co64 2.009 . S
O68 Co65 2.126 . S
O68 Co66 2.053 . S
O68 H67 0.760 . S
H69 Co65 2.388 . S
H69 O70 0.760 . S
H69 Co71 2.400 . S
O70 Co65 2.053 . S
O70 Co66 2.126 . S
O70 H69 0.760 . S
O70 Co71 2.009 . S
Co71 H69 2.400 . S
Co71 O70 2.009 . S
Co71 O72 2.053 . S
Co71 O74 2.094 . S
Co71 O78 2.122 . S
Co71 O92 2.115 . S
Co71 O93 2.315 . S
O72 Co71 2.053 . S
O72 C84 1.259 . S
O73 Co65 2.047 . S
O73 C84 1.257 . S
O74 Co71 2.094 . S
O74 C85 1.253 . S
O75 Co66 2.063 . S
O75 C85 1.268 . S
O76 Co64 2.115 . S
O76 C86 1.281 . S
O77 Co64 2.315 . S
O77 C86 1.252 . S
O78 Co71 2.122 . S
O78 C87 1.272 . S
O79 Co65 2.113 . S
O79 C87 1.245 . S
C80 O88 1.259 . S
C80 O89 1.257 . S
C81 O90 1.268 . S
C81 O91 1.253 . S
C82 O92 1.281 . S
C82 O93 1.252 . S
C83 O94 1.272 . S
C83 O95 1.245 . S
C84 O72 1.259 . S
C84 O73 1.257 . S
C85 O74 1.253 . S
C85 O75 1.268 . S
C86 O76 1.281 . S
C86 O77 1.252 . S
C87 O78 1.272 . S
C87 O79 1.245 . S
O88 Co64 2.053 . S
O88 C80 1.259 . S
O89 Co66 2.047 . S
O89 C80 1.257 . S
O90 Co65 2.063 . S
O90 C81 1.268 . S
O91 Co64 2.094 . S
O91 C81 1.253 . S
O92 Co71 2.115 . S
O92 C82 1.281 . S
O93 Co71 2.315 . S
O93 C82 1.252 . S
O94 Co64 2.122 . S
O94 C83 1.272 . S
O95 Co66 2.113 . S
O95 C83 1.245 . S
Co96 H99 2.400 . S
Co96 O100 2.009 . S
Co96 O108 2.115 . S
Co96 O109 2.315 . S
Co96 O120 2.053 . S
Co96 O123 2.094 . S
Co96 O126 2.122 . S
Co97 O100 2.126 . S
Co97 H101 2.388 . S
Co97 O102 2.053 . S
Co97 O105 2.047 . S
Co97 O111 2.113 . S
Co97 O122 2.063 . S
Co98 H99 2.388 . S
Co98 O100 2.053 . S
Co98 O102 2.126 . S
Co98 O107 2.063 . S
Co98 O121 2.047 . S
Co98 O127 2.113 . S
H99 Co96 2.400 . S
H99 Co98 2.388 . S
H99 O100 0.760 . S
O100 Co96 2.009 . S
O100 Co97 2.126 . S
O100 Co98 2.053 . S
O100 H99 0.760 . S
H101 Co97 2.388 . S
H101 O102 0.760 . S
H101 Co103 2.400 . S
O102 Co97 2.053 . S
O102 Co98 2.126 . S
O102 H101 0.760 . S
O102 Co103 2.009 . S
Co103 H101 2.400 . S
Co103 O102 2.009 . S
Co103 O104 2.053 . S
Co103 O106 2.094 . S
Co103 O110 2.122 . S
Co103 O124 2.115 . S
Co103 O125 2.315 . S
O104 Co103 2.053 . S
O104 C116 1.259 . S
O105 Co97 2.047 . S
O105 C116 1.257 . S
O106 Co103 2.094 . S
O106 C117 1.253 . S
O107 Co98 2.063 . S
O107 C117 1.268 . S
O108 Co96 2.115 . S
O108 C118 1.281 . S
O109 Co96 2.315 . S
O109 C118 1.252 . S
O110 Co103 2.122 . S
O110 C119 1.272 . S
O111 Co97 2.113 . S
O111 C119 1.245 . S
C112 O120 1.259 . S
C112 O121 1.257 . S
C113 O122 1.268 . S
C113 O123 1.253 . S
C114 O124 1.281 . S
C114 O125 1.252 . S
C115 O126 1.272 . S
C115 O127 1.245 . S
C116 O104 1.259 . S
C116 O105 1.257 . S
C117 O106 1.253 . S
C117 O107 1.268 . S
C118 O108 1.281 . S
C118 O109 1.252 . S
C119 O110 1.272 . S
C119 O111 1.245 . S
O120 Co96 2.053 . S
O120 C112 1.259 . S
O121 Co98 2.047 . S
O121 C112 1.257 . S
O122 Co97 2.063 . S
O122 C113 1.268 . S
O123 Co96 2.094 . S
O123 C113 1.253 . S
O124 Co103 2.115 . S
O124 C114 1.281 . S
O125 Co103 2.315 . S
O125 C114 1.252 . S
O126 Co96 2.122 . S
O126 C115 1.272 . S
O127 Co98 2.113 . S
O127 C115 1.245 . S
Co128 H131 2.400 . S
Co128 O132 2.009 . S
Co128 O140 2.115 . S
Co128 O141 2.315 . S
Co128 O152 2.053 . S
Co128 O155 2.094 . S
Co128 O158 2.122 . S
Co129 O132 2.126 . S
Co129 H133 2.388 . S
Co129 O134 2.053 . S
Co129 O137 2.047 . S
Co129 O143 2.113 . S
Co129 O154 2.063 . S
Co130 H131 2.388 . S
Co130 O132 2.053 . S
Co130 O134 2.126 . S
Co130 O139 2.063 . S
Co130 O153 2.047 . S
Co130 O159 2.113 . S
H131 Co128 2.400 . S
H131 Co130 2.388 . S
H131 O132 0.760 . S
O132 Co128 2.009 . S
O132 Co129 2.126 . S
O132 Co130 2.053 . S
O132 H131 0.760 . S
H133 Co129 2.388 . S
H133 O134 0.760 . S
H133 Co135 2.400 . S
O134 Co129 2.053 . S
O134 Co130 2.126 . S
O134 H133 0.760 . S
O134 Co135 2.009 . S
Co135 H133 2.400 . S
Co135 O134 2.009 . S
Co135 O136 2.053 . S
Co135 O138 2.094 . S
Co135 O142 2.122 . S
Co135 O156 2.115 . S
Co135 O157 2.315 . S
O136 Co135 2.053 . S
O136 C148 1.259 . S
O137 Co129 2.047 . S
O137 C148 1.257 . S
O138 Co135 2.094 . S
O138 C149 1.253 . S
O139 Co130 2.063 . S
O139 C149 1.268 . S
O140 Co128 2.115 . S
O140 C150 1.281 . S
O141 Co128 2.315 . S
O141 C150 1.252 . S
O142 Co135 2.122 . S
O142 C151 1.272 . S
O143 Co129 2.113 . S
O143 C151 1.245 . S
C144 O152 1.259 . S
C144 O153 1.257 . S
C145 O154 1.268 . S
C145 O155 1.253 . S
C146 O156 1.281 . S
C146 O157 1.252 . S
C147 O158 1.272 . S
C147 O159 1.245 . S
C148 O136 1.259 . S
C148 O137 1.257 . S
C149 O138 1.253 . S
C149 O139 1.268 . S
C150 O140 1.281 . S
C150 O141 1.252 . S
C151 O142 1.272 . S
C151 O143 1.245 . S
O152 Co128 2.053 . S
O152 C144 1.259 . S
O153 Co130 2.047 . S
O153 C144 1.257 . S
O154 Co129 2.063 . S
O154 C145 1.268 . S
O155 Co128 2.094 . S
O155 C145 1.253 . S
O156 Co135 2.115 . S
O156 C146 1.281 . S
O157 Co135 2.315 . S
O157 C146 1.252 . S
O158 Co128 2.122 . S
O158 C147 1.272 . S
O159 Co130 2.113 . S
O159 C147 1.245 . S
Co160 H163 2.400 . S
Co160 O164 2.009 . S
Co160 O172 2.115 . S
Co160 O173 2.315 . S
Co160 O184 2.053 . S
Co160 O187 2.094 . S
Co160 O190 2.122 . S
Co161 O164 2.126 . S
Co161 H165 2.388 . S
Co161 O166 2.053 . S
Co161 O169 2.047 . S
Co161 O175 2.113 . S
Co161 O186 2.063 . S
Co162 H163 2.388 . S
Co162 O164 2.053 . S
Co162 O166 2.126 . S
Co162 O171 2.063 . S
Co162 O185 2.047 . S
Co162 O191 2.113 . S
H163 Co160 2.400 . S
H163 Co162 2.388 . S
H163 O164 0.760 . S
O164 Co160 2.009 . S
O164 Co161 2.126 . S
O164 Co162 2.053 . S
O164 H163 0.760 . S
H165 Co161 2.388 . S
H165 O166 0.760 . S
H165 Co167 2.400 . S
O166 Co161 2.053 . S
O166 Co162 2.126 . S
O166 H165 0.760 . S
O166 Co167 2.009 . S
Co167 H165 2.400 . S
Co167 O166 2.009 . S
Co167 O168 2.053 . S
Co167 O170 2.094 . S
Co167 O174 2.122 . S
Co167 O188 2.115 . S
Co167 O189 2.315 . S
O168 Co167 2.053 . S
O168 C180 1.259 . S
O169 Co161 2.047 . S
O169 C180 1.257 . S
O170 Co167 2.094 . S
O170 C181 1.253 . S
O171 Co162 2.063 . S
O171 C181 1.268 . S
O172 Co160 2.115 . S
O172 C182 1.281 . S
O173 Co160 2.315 . S
O173 C182 1.252 . S
O174 Co167 2.122 . S
O174 C183 1.272 . S
O175 Co161 2.113 . S
O175 C183 1.245 . S
C176 O184 1.259 . S
C176 O185 1.257 . S
C177 O186 1.268 . S
C177 O187 1.253 . S
C178 O188 1.281 . S
C178 O189 1.252 . S
C179 O190 1.272 . S
C179 O191 1.245 . S
C180 O168 1.259 . S
C180 O169 1.257 . S
C181 O170 1.253 . S
C181 O171 1.268 . S
C182 O172 1.281 . S
C182 O173 1.252 . S
C183 O174 1.272 . S
C183 O175 1.245 . S
O184 Co160 2.053 . S
O184 C176 1.259 . S
O185 Co162 2.047 . S
O185 C176 1.257 . S
O186 Co161 2.063 . S
O186 C177 1.268 . S
O187 Co160 2.094 . S
O187 C177 1.253 . S
O188 Co167 2.115 . S
O188 C178 1.281 . S
O189 Co167 2.315 . S
O189 C178 1.252 . S
O190 Co160 2.122 . S
O190 C179 1.272 . S
O191 Co162 2.113 . S
O191 C179 1.245 . S
Co192 H195 2.400 . S
Co192 O196 2.009 . S
Co192 O204 2.115 . S
Co192 O205 2.315 . S
Co192 O216 2.053 . S
Co192 O219 2.094 . S
Co192 O222 2.122 . S
Co193 O196 2.126 . S
Co193 H197 2.388 . S
Co193 O198 2.053 . S
Co193 O201 2.047 . S
Co193 O207 2.113 . S
Co193 O218 2.063 . S
Co194 H195 2.388 . S
Co194 O196 2.053 . S
Co194 O198 2.126 . S
Co194 O203 2.063 . S
Co194 O217 2.047 . S
Co194 O223 2.113 . S
H195 Co192 2.400 . S
H195 Co194 2.388 . S
H195 O196 0.760 . S
O196 Co192 2.009 . S
O196 Co193 2.126 . S
O196 Co194 2.053 . S
O196 H195 0.760 . S
H197 Co193 2.388 . S
H197 O198 0.760 . S
H197 Co199 2.400 . S
O198 Co193 2.053 . S
O198 Co194 2.126 . S
O198 H197 0.760 . S
O198 Co199 2.009 . S
Co199 H197 2.400 . S
Co199 O198 2.009 . S
Co199 O200 2.053 . S
Co199 O202 2.094 . S
Co199 O206 2.122 . S
Co199 O220 2.115 . S
Co199 O221 2.315 . S
O200 Co199 2.053 . S
O200 C212 1.259 . S
O201 Co193 2.047 . S
O201 C212 1.257 . S
O202 Co199 2.094 . S
O202 C213 1.253 . S
O203 Co194 2.063 . S
O203 C213 1.268 . S
O204 Co192 2.115 . S
O204 C214 1.281 . S
O205 Co192 2.315 . S
O205 C214 1.252 . S
O206 Co199 2.122 . S
O206 C215 1.272 . S
O207 Co193 2.113 . S
O207 C215 1.245 . S
C208 O216 1.259 . S
C208 O217 1.257 . S
C209 O218 1.268 . S
C209 O219 1.253 . S
C210 O220 1.281 . S
C210 O221 1.252 . S
C211 O222 1.272 . S
C211 O223 1.245 . S
C212 O200 1.259 . S
C212 O201 1.257 . S
C213 O202 1.253 . S
C213 O203 1.268 . S
C214 O204 1.281 . S
C214 O205 1.252 . S
C215 O206 1.272 . S
C215 O207 1.245 . S
O216 Co192 2.053 . S
O216 C208 1.259 . S
O217 Co194 2.047 . S
O217 C208 1.257 . S
O218 Co193 2.063 . S
O218 C209 1.268 . S
O219 Co192 2.094 . S
O219 C209 1.253 . S
O220 Co199 2.115 . S
O220 C210 1.281 . S
O221 Co199 2.315 . S
O221 C210 1.252 . S
O222 Co192 2.122 . S
O222 C211 1.272 . S
O223 Co194 2.113 . S
O223 C211 1.245 . S
Co224 H227 2.400 . S
Co224 O228 2.009 . S
Co224 O236 2.115 . S
Co224 O237 2.315 . S
Co224 O248 2.053 . S
Co224 O251 2.094 . S
Co224 O254 2.122 . S
Co225 O228 2.126 . S
Co225 H229 2.388 . S
Co225 O230 2.053 . S
Co225 O233 2.047 . S
Co225 O239 2.113 . S
Co225 O250 2.063 . S
Co226 H227 2.388 . S
Co226 O228 2.053 . S
Co226 O230 2.126 . S
Co226 O235 2.063 . S
Co226 O249 2.047 . S
Co226 O255 2.113 . S
H227 Co224 2.400 . S
H227 Co226 2.388 . S
H227 O228 0.760 . S
O228 Co224 2.009 . S
O228 Co225 2.126 . S
O228 Co226 2.053 . S
O228 H227 0.760 . S
H229 Co225 2.388 . S
H229 O230 0.760 . S
H229 Co231 2.400 . S
O230 Co225 2.053 . S
O230 Co226 2.126 . S
O230 H229 0.760 . S
O230 Co231 2.009 . S
Co231 H229 2.400 . S
Co231 O230 2.009 . S
Co231 O232 2.053 . S
Co231 O234 2.094 . S
Co231 O238 2.122 . S
Co231 O252 2.115 . S
Co231 O253 2.315 . S
O232 Co231 2.053 . S
O232 C244 1.259 . S
O233 Co225 2.047 . S
O233 C244 1.257 . S
O234 Co231 2.094 . S
O234 C245 1.253 . S
O235 Co226 2.063 . S
O235 C245 1.268 . S
O236 Co224 2.115 . S
O236 C246 1.281 . S
O237 Co224 2.315 . S
O237 C246 1.252 . S
O238 Co231 2.122 . S
O238 C247 1.272 . S
O239 Co225 2.113 . S
O239 C247 1.245 . S
C240 O248 1.259 . S
C240 O249 1.257 . S
C241 O250 1.268 . S
C241 O251 1.253 . S
C242 O252 1.281 . S
C242 O253 1.252 . S
C243 O254 1.272 . S
C243 O255 1.245 . S
C244 O232 1.259 . S
C244 O233 1.257 . S
C245 O234 1.253 . S
C245 O235 1.268 . S
C246 O236 1.281 . S
C246 O237 1.252 . S
C247 O238 1.272 . S
C247 O239 1.245 . S
O248 Co224 2.053 . S
O248 C240 1.259 . S
O249 Co226 2.047 . S
O249 C240 1.257 . S
O250 Co225 2.063 . S
O250 C241 1.268 . S
O251 Co224 2.094 . S
O251 C241 1.253 . S
O252 Co231 2.115 . S
O252 C242 1.281 . S
O253 Co231 2.315 . S
O253 C242 1.252 . S
O254 Co224 2.122 . S
O254 C243 1.272 . S
O255 Co226 2.113 . S
O255 C243 1.245 . S
Co256 H259 2.400 . S
Co256 O260 2.009 . S
Co256 O268 2.115 . S
Co256 O269 2.315 . S
Co256 O280 2.053 . S
Co256 O283 2.094 . S
Co256 O286 2.122 . S
Co257 O260 2.126 . S
Co257 H261 2.388 . S
Co257 O262 2.053 . S
Co257 O265 2.047 . S
Co257 O271 2.113 . S
Co257 O282 2.063 . S
Co258 H259 2.388 . S
Co258 O260 2.053 . S
Co258 O262 2.126 . S
Co258 O267 2.063 . S
Co258 O281 2.047 . S
Co258 O287 2.113 . S
H259 Co256 2.400 . S
H259 Co258 2.388 . S
H259 O260 0.760 . S
O260 Co256 2.009 . S
O260 Co257 2.126 . S
O260 Co258 2.053 . S
O260 H259 0.760 . S
H261 Co257 2.388 . S
H261 O262 0.760 . S
H261 Co263 2.400 . S
O262 Co257 2.053 . S
O262 Co258 2.126 . S
O262 H261 0.760 . S
O262 Co263 2.009 . S
Co263 H261 2.400 . S
Co263 O262 2.009 . S
Co263 O264 2.053 . S
Co263 O266 2.094 . S
Co263 O270 2.122 . S
Co263 O284 2.115 . S
Co263 O285 2.315 . S
O264 Co263 2.053 . S
O264 C276 1.259 . S
O265 Co257 2.047 . S
O265 C276 1.257 . S
O266 Co263 2.094 . S
O266 C277 1.253 . S
O267 Co258 2.063 . S
O267 C277 1.268 . S
O268 Co256 2.115 . S
O268 C278 1.281 . S
O269 Co256 2.315 . S
O269 C278 1.252 . S
O270 Co263 2.122 . S
O270 C279 1.272 . S
O271 Co257 2.113 . S
O271 C279 1.245 . S
C272 O280 1.259 . S
C272 O281 1.257 . S
C273 O282 1.268 . S
C273 O283 1.253 . S
C274 O284 1.281 . S
C274 O285 1.252 . S
C275 O286 1.272 . S
C275 O287 1.245 . S
C276 O264 1.259 . S
C276 O265 1.257 . S
C277 O266 1.253 . S
C277 O267 1.268 . S
C278 O268 1.281 . S
C278 O269 1.252 . S
C279 O270 1.272 . S
C279 O271 1.245 . S
O280 Co256 2.053 . S
O280 C272 1.259 . S
O281 Co258 2.047 . S
O281 C272 1.257 . S
O282 Co257 2.063 . S
O282 C273 1.268 . S
O283 Co256 2.094 . S
O283 C273 1.253 . S
O284 Co263 2.115 . S
O284 C274 1.281 . S
O285 Co263 2.315 . S
O285 C274 1.252 . S
O286 Co256 2.122 . S
O286 C275 1.272 . S
O287 Co258 2.113 . S
O287 C275 1.245 . S
Co288 H291 2.400 . S
Co288 O292 2.009 . S
Co288 O300 2.115 . S
Co288 O301 2.315 . S
Co288 O312 2.053 . S
Co288 O315 2.094 . S
Co288 O318 2.122 . S
Co289 O292 2.126 . S
Co289 H293 2.388 . S
Co289 O294 2.053 . S
Co289 O297 2.047 . S
Co289 O303 2.113 . S
Co289 O314 2.063 . S
Co290 H291 2.388 . S
Co290 O292 2.053 . S
Co290 O294 2.126 . S
Co290 O299 2.063 . S
Co290 O313 2.047 . S
Co290 O319 2.113 . S
H291 Co288 2.400 . S
H291 Co290 2.388 . S
H291 O292 0.760 . S
O292 Co288 2.009 . S
O292 Co289 2.126 . S
O292 Co290 2.053 . S
O292 H291 0.760 . S
H293 Co289 2.388 . S
H293 O294 0.760 . S
H293 Co295 2.400 . S
O294 Co289 2.053 . S
O294 Co290 2.126 . S
O294 H293 0.760 . S
O294 Co295 2.009 . S
Co295 H293 2.400 . S
Co295 O294 2.009 . S
Co295 O296 2.053 . S
Co295 O298 2.094 . S
Co295 O302 2.122 . S
Co295 O316 2.115 . S
Co295 O317 2.315 . S
O296 Co295 2.053 . S
O296 C308 1.259 . S
O297 Co289 2.047 . S
O297 C308 1.257 . S
O298 Co295 2.094 . S
O298 C309 1.253 . S
O299 Co290 2.063 . S
O299 C309 1.268 . S
O300 Co288 2.115 . S
O300 C310 1.281 . S
O301 Co288 2.315 . S
O301 C310 1.252 . S
O302 Co295 2.122 . S
O302 C311 1.272 . S
O303 Co289 2.113 . S
O303 C311 1.245 . S
C304 O312 1.259 . S
C304 O313 1.257 . S
C305 O314 1.268 . S
C305 O315 1.253 . S
C306 O316 1.281 . S
C306 O317 1.252 . S
C307 O318 1.272 . S
C307 O319 1.245 . S
C308 O296 1.259 . S
C308 O297 1.257 . S
C309 O298 1.253 . S
C309 O299 1.268 . S
C310 O300 1.281 . S
C310 O301 1.252 . S
C311 O302 1.272 . S
C311 O303 1.245 . S
O312 Co288 2.053 . S
O312 C304 1.259 . S
O313 Co290 2.047 . S
O313 C304 1.257 . S
O314 Co289 2.063 . S
O314 C305 1.268 . S
O315 Co288 2.094 . S
O315 C305 1.253 . S
O316 Co295 2.115 . S
O316 C306 1.281 . S
O317 Co295 2.315 . S
O317 C306 1.252 . S
O318 Co288 2.122 . S
O318 C307 1.272 . S
O319 Co290 2.113 . S
O319 C307 1.245 . S
Co320 H323 2.400 . S
Co320 O324 2.009 . S
Co320 O332 2.115 . S
Co320 O333 2.315 . S
Co320 O344 2.053 . S
Co320 O347 2.094 . S
Co320 O350 2.122 . S
Co321 O324 2.126 . S
Co321 H325 2.388 . S
Co321 O326 2.053 . S
Co321 O329 2.047 . S
Co321 O335 2.113 . S
Co321 O346 2.063 . S
Co322 H323 2.388 . S
Co322 O324 2.053 . S
Co322 O326 2.126 . S
Co322 O331 2.063 . S
Co322 O345 2.047 . S
Co322 O351 2.113 . S
H323 Co320 2.400 . S
H323 Co322 2.388 . S
H323 O324 0.760 . S
O324 Co320 2.009 . S
O324 Co321 2.126 . S
O324 Co322 2.053 . S
O324 H323 0.760 . S
H325 Co321 2.388 . S
H325 O326 0.760 . S
H325 Co327 2.400 . S
O326 Co321 2.053 . S
O326 Co322 2.126 . S
O326 H325 0.760 . S
O326 Co327 2.009 . S
Co327 H325 2.400 . S
Co327 O326 2.009 . S
Co327 O328 2.053 . S
Co327 O330 2.094 . S
Co327 O334 2.122 . S
Co327 O348 2.115 . S
Co327 O349 2.315 . S
O328 Co327 2.053 . S
O328 C340 1.259 . S
O329 Co321 2.047 . S
O329 C340 1.257 . S
O330 Co327 2.094 . S
O330 C341 1.253 . S
O331 Co322 2.063 . S
O331 C341 1.268 . S
O332 Co320 2.115 . S
O332 C342 1.281 . S
O333 Co320 2.315 . S
O333 C342 1.252 . S
O334 Co327 2.122 . S
O334 C343 1.272 . S
O335 Co321 2.113 . S
O335 C343 1.245 . S
C336 O344 1.259 . S
C336 O345 1.257 . S
C337 O346 1.268 . S
C337 O347 1.253 . S
C338 O348 1.281 . S
C338 O349 1.252 . S
C339 O350 1.272 . S
C339 O351 1.245 . S
C340 O328 1.259 . S
C340 O329 1.257 . S
C341 O330 1.253 . S
C341 O331 1.268 . S
C342 O332 1.281 . S
C342 O333 1.252 . S
C343 O334 1.272 . S
C343 O335 1.245 . S
O344 Co320 2.053 . S
O344 C336 1.259 . S
O345 Co322 2.047 . S
O345 C336 1.257 . S
O346 Co321 2.063 . S
O346 C337 1.268 . S
O347 Co320 2.094 . S
O347 C337 1.253 . S
O348 Co327 2.115 . S
O348 C338 1.281 . S
O349 Co327 2.315 . S
O349 C338 1.252 . S
O350 Co320 2.122 . S
O350 C339 1.272 . S
O351 Co322 2.113 . S
O351 C339 1.245 . S
Co352 H355 2.400 . S
Co352 O356 2.009 . S
Co352 O364 2.115 . S
Co352 O365 2.315 . S
Co352 O376 2.053 . S
Co352 O379 2.094 . S
Co352 O382 2.122 . S
Co353 O356 2.126 . S
Co353 H357 2.388 . S
Co353 O358 2.053 . S
Co353 O361 2.047 . S
Co353 O367 2.113 . S
Co353 O378 2.063 . S
Co354 H355 2.388 . S
Co354 O356 2.053 . S
Co354 O358 2.126 . S
Co354 O363 2.063 . S
Co354 O377 2.047 . S
Co354 O383 2.113 . S
H355 Co352 2.400 . S
H355 Co354 2.388 . S
H355 O356 0.760 . S
O356 Co352 2.009 . S
O356 Co353 2.126 . S
O356 Co354 2.053 . S
O356 H355 0.760 . S
H357 Co353 2.388 . S
H357 O358 0.760 . S
H357 Co359 2.400 . S
O358 Co353 2.053 . S
O358 Co354 2.126 . S
O358 H357 0.760 . S
O358 Co359 2.009 . S
Co359 H357 2.400 . S
Co359 O358 2.009 . S
Co359 O360 2.053 . S
Co359 O362 2.094 . S
Co359 O366 2.122 . S
Co359 O380 2.115 . S
Co359 O381 2.315 . S
O360 Co359 2.053 . S
O360 C372 1.259 . S
O361 Co353 2.047 . S
O361 C372 1.257 . S
O362 Co359 2.094 . S
O362 C373 1.253 . S
O363 Co354 2.063 . S
O363 C373 1.268 . S
O364 Co352 2.115 . S
O364 C374 1.281 . S
O365 Co352 2.315 . S
O365 C374 1.252 . S
O366 Co359 2.122 . S
O366 C375 1.272 . S
O367 Co353 2.113 . S
O367 C375 1.245 . S
C368 O376 1.259 . S
C368 O377 1.257 . S
C369 O378 1.268 . S
C369 O379 1.253 . S
C370 O380 1.281 . S
C370 O381 1.252 . S
C371 O382 1.272 . S
C371 O383 1.245 . S
C372 O360 1.259 . S
C372 O361 1.257 . S
C373 O362 1.253 . S
C373 O363 1.268 . S
C374 O364 1.281 . S
C374 O365 1.252 . S
C375 O366 1.272 . S
C375 O367 1.245 . S
O376 Co352 2.053 . S
O376 C368 1.259 . S
O377 Co354 2.047 . S
O377 C368 1.257 . S
O378 Co353 2.063 . S
O378 C369 1.268 . S
O379 Co352 2.094 . S
O379 C369 1.253 . S
O380 Co359 2.115 . S
O380 C370 1.281 . S
O381 Co359 2.315 . S
O381 C370 1.252 . S
O382 Co352 2.122 . S
O382 C371 1.272 . S
O383 Co354 2.113 . S
O383 C371 1.245 . S
Co384 H387 2.400 . S
Co384 O388 2.009 . S
Co384 O396 2.115 . S
Co384 O397 2.315 . S
Co384 O408 2.053 . S
Co384 O411 2.094 . S
Co384 O414 2.122 . S
Co385 O388 2.126 . S
Co385 H389 2.388 . S
Co385 O390 2.053 . S
Co385 O393 2.047 . S
Co385 O399 2.113 . S
Co385 O410 2.063 . S
Co386 H387 2.388 . S
Co386 O388 2.053 . S
Co386 O390 2.126 . S
Co386 O395 2.063 . S
Co386 O409 2.047 . S
Co386 O415 2.113 . S
H387 Co384 2.400 . S
H387 Co386 2.388 . S
H387 O388 0.760 . S
O388 Co384 2.009 . S
O388 Co385 2.126 . S
O388 Co386 2.053 . S
O388 H387 0.760 . S
H389 Co385 2.388 . S
H389 O390 0.760 . S
H389 Co391 2.400 . S
O390 Co385 2.053 . S
O390 Co386 2.126 . S
O390 H389 0.760 . S
O390 Co391 2.009 . S
Co391 H389 2.400 . S
Co391 O390 2.009 . S
Co391 O392 2.053 . S
Co391 O394 2.094 . S
Co391 O398 2.122 . S
Co391 O412 2.115 . S
Co391 O413 2.315 . S
O392 Co391 2.053 . S
O392 C404 1.259 . S
O393 Co385 2.047 . S
O393 C404 1.257 . S
O394 Co391 2.094 . S
O394 C405 1.253 . S
O395 Co386 2.063 . S
O395 C405 1.268 . S
O396 Co384 2.115 . S
O396 C406 1.281 . S
O397 Co384 2.315 . S
O397 C406 1.252 . S
O398 Co391 2.122 . S
O398 C407 1.272 . S
O399 Co385 2.113 . S
O399 C407 1.245 . S
C400 O408 1.259 . S
C400 O409 1.257 . S
C401 O410 1.268 . S
C401 O411 1.253 . S
C402 O412 1.281 . S
C402 O413 1.252 . S
C403 O414 1.272 . S
C403 O415 1.245 . S
C404 O392 1.259 . S
C404 O393 1.257 . S
C405 O394 1.253 . S
C405 O395 1.268 . S
C406 O396 1.281 . S
C406 O397 1.252 . S
C407 O398 1.272 . S
C407 O399 1.245 . S
O408 Co384 2.053 . S
O408 C400 1.259 . S
O409 Co386 2.047 . S
O409 C400 1.257 . S
O410 Co385 2.063 . S
O410 C401 1.268 . S
O411 Co384 2.094 . S
O411 C401 1.253 . S
O412 Co391 2.115 . S
O412 C402 1.281 . S
O413 Co391 2.315 . S
O413 C402 1.252 . S
O414 Co384 2.122 . S
O414 C403 1.272 . S
O415 Co386 2.113 . S
O415 C403 1.245 . S
Co416 H419 2.400 . S
Co416 O420 2.009 . S
Co416 O428 2.115 . S
Co416 O429 2.315 . S
Co416 O440 2.053 . S
Co416 O443 2.094 . S
Co416 O446 2.122 . S
Co417 O420 2.126 . S
Co417 H421 2.388 . S
Co417 O422 2.053 . S
Co417 O425 2.047 . S
Co417 O431 2.113 . S
Co417 O442 2.063 . S
Co418 H419 2.388 . S
Co418 O420 2.053 . S
Co418 O422 2.126 . S
Co418 O427 2.063 . S
Co418 O441 2.047 . S
Co418 O447 2.113 . S
H419 Co416 2.400 . S
H419 Co418 2.388 . S
H419 O420 0.760 . S
O420 Co416 2.009 . S
O420 Co417 2.126 . S
O420 Co418 2.053 . S
O420 H419 0.760 . S
H421 Co417 2.388 . S
H421 O422 0.760 . S
H421 Co423 2.400 . S
O422 Co417 2.053 . S
O422 Co418 2.126 . S
O422 H421 0.760 . S
O422 Co423 2.009 . S
Co423 H421 2.400 . S
Co423 O422 2.009 . S
Co423 O424 2.053 . S
Co423 O426 2.094 . S
Co423 O430 2.122 . S
Co423 O444 2.115 . S
Co423 O445 2.315 . S
O424 Co423 2.053 . S
O424 C436 1.259 . S
O425 Co417 2.047 . S
O425 C436 1.257 . S
O426 Co423 2.094 . S
O426 C437 1.253 . S
O427 Co418 2.063 . S
O427 C437 1.268 . S
O428 Co416 2.115 . S
O428 C438 1.281 . S
O429 Co416 2.315 . S
O429 C438 1.252 . S
O430 Co423 2.122 . S
O430 C439 1.272 . S
O431 Co417 2.113 . S
O431 C439 1.245 . S
C432 O440 1.259 . S
C432 O441 1.257 . S
C433 O442 1.268 . S
C433 O443 1.253 . S
C434 O444 1.281 . S
C434 O445 1.252 . S
C435 O446 1.272 . S
C435 O447 1.245 . S
C436 O424 1.259 . S
C436 O425 1.257 . S
C437 O426 1.253 . S
C437 O427 1.268 . S
C438 O428 1.281 . S
C438 O429 1.252 . S
C439 O430 1.272 . S
C439 O431 1.245 . S
O440 Co416 2.053 . S
O440 C432 1.259 . S
O441 Co418 2.047 . S
O441 C432 1.257 . S
O442 Co417 2.063 . S
O442 C433 1.268 . S
O443 Co416 2.094 . S
O443 C433 1.253 . S
O444 Co423 2.115 . S
O444 C434 1.281 . S
O445 Co423 2.315 . S
O445 C434 1.252 . S
O446 Co416 2.122 . S
O446 C435 1.272 . S
O447 Co418 2.113 . S
O447 C435 1.245 . S
Co448 H451 2.400 . S
Co448 O452 2.009 . S
Co448 O460 2.115 . S
Co448 O461 2.315 . S
Co448 O472 2.053 . S
Co448 O475 2.094 . S
Co448 O478 2.122 . S
Co449 O452 2.126 . S
Co449 H453 2.388 . S
Co449 O454 2.053 . S
Co449 O457 2.047 . S
Co449 O463 2.113 . S
Co449 O474 2.063 . S
Co450 H451 2.388 . S
Co450 O452 2.053 . S
Co450 O454 2.126 . S
Co450 O459 2.063 . S
Co450 O473 2.047 . S
Co450 O479 2.113 . S
H451 Co448 2.400 . S
H451 Co450 2.388 . S
H451 O452 0.760 . S
O452 Co448 2.009 . S
O452 Co449 2.126 . S
O452 Co450 2.053 . S
O452 H451 0.760 . S
H453 Co449 2.388 . S
H453 O454 0.760 . S
H453 Co455 2.400 . S
O454 Co449 2.053 . S
O454 Co450 2.126 . S
O454 H453 0.760 . S
O454 Co455 2.009 . S
Co455 H453 2.400 . S
Co455 O454 2.009 . S
Co455 O456 2.053 . S
Co455 O458 2.094 . S
Co455 O462 2.122 . S
Co455 O476 2.115 . S
Co455 O477 2.315 . S
O456 Co455 2.053 . S
O456 C468 1.259 . S
O457 Co449 2.047 . S
O457 C468 1.257 . S
O458 Co455 2.094 . S
O458 C469 1.253 . S
O459 Co450 2.063 . S
O459 C469 1.268 . S
O460 Co448 2.115 . S
O460 C470 1.281 . S
O461 Co448 2.315 . S
O461 C470 1.252 . S
O462 Co455 2.122 . S
O462 C471 1.272 . S
O463 Co449 2.113 . S
O463 C471 1.245 . S
C464 O472 1.259 . S
C464 O473 1.257 . S
C465 O474 1.268 . S
C465 O475 1.253 . S
C466 O476 1.281 . S
C466 O477 1.252 . S
C467 O478 1.272 . S
C467 O479 1.245 . S
C468 O456 1.259 . S
C468 O457 1.257 . S
C469 O458 1.253 . S
C469 O459 1.268 . S
C470 O460 1.281 . S
C470 O461 1.252 . S
C471 O462 1.272 . S
C471 O463 1.245 . S
O472 Co448 2.053 . S
O472 C464 1.259 . S
O473 Co450 2.047 . S
O473 C464 1.257 . S
O474 Co449 2.063 . S
O474 C465 1.268 . S
O475 Co448 2.094 . S
O475 C465 1.253 . S
O476 Co455 2.115 . S
O476 C466 1.281 . S
O477 Co455 2.315 . S
O477 C466 1.252 . S
O478 Co448 2.122 . S
O478 C467 1.272 . S
O479 Co450 2.113 . S
O479 C467 1.245 . S
Co480 H483 2.400 . S
Co480 O484 2.009 . S
Co480 O492 2.115 . S
Co480 O493 2.315 . S
Co480 O504 2.053 . S
Co480 O507 2.094 . S
Co480 O510 2.122 . S
Co481 O484 2.126 . S
Co481 H485 2.388 . S
Co481 O486 2.053 . S
Co481 O489 2.047 . S
Co481 O495 2.113 . S
Co481 O506 2.063 . S
Co482 H483 2.388 . S
Co482 O484 2.053 . S
Co482 O486 2.126 . S
Co482 O491 2.063 . S
Co482 O505 2.047 . S
Co482 O511 2.113 . S
H483 Co480 2.400 . S
H483 Co482 2.388 . S
H483 O484 0.760 . S
O484 Co480 2.009 . S
O484 Co481 2.126 . S
O484 Co482 2.053 . S
O484 H483 0.760 . S
H485 Co481 2.388 . S
H485 O486 0.760 . S
H485 Co487 2.400 . S
O486 Co481 2.053 . S
O486 Co482 2.126 . S
O486 H485 0.760 . S
O486 Co487 2.009 . S
Co487 H485 2.400 . S
Co487 O486 2.009 . S
Co487 O488 2.053 . S
Co487 O490 2.094 . S
Co487 O494 2.122 . S
Co487 O508 2.115 . S
Co487 O509 2.315 . S
O488 Co487 2.053 . S
O488 C500 1.259 . S
O489 Co481 2.047 . S
O489 C500 1.257 . S
O490 Co487 2.094 . S
O490 C501 1.253 . S
O491 Co482 2.063 . S
O491 C501 1.268 . S
O492 Co480 2.115 . S
O492 C502 1.281 . S
O493 Co480 2.315 . S
O493 C502 1.252 . S
O494 Co487 2.122 . S
O494 C503 1.272 . S
O495 Co481 2.113 . S
O495 C503 1.245 . S
C496 O504 1.259 . S
C496 O505 1.257 . S
C497 O506 1.268 . S
C497 O507 1.253 . S
C498 O508 1.281 . S
C498 O509 1.252 . S
C499 O510 1.272 . S
C499 O511 1.245 . S
C500 O488 1.259 . S
C500 O489 1.257 . S
C501 O490 1.253 . S
C501 O491 1.268 . S
C502 O492 1.281 . S
C502 O493 1.252 . S
C503 O494 1.272 . S
C503 O495 1.245 . S
O504 Co480 2.053 . S
O504 C496 1.259 . S
O505 Co482 2.047 . S
O505 C496 1.257 . S
O506 Co481 2.063 . S
O506 C497 1.268 . S
O507 Co480 2.094 . S
O507 C497 1.253 . S
O508 Co487 2.115 . S
O508 C498 1.281 . S
O509 Co487 2.315 . S
O509 C498 1.252 . S
O510 Co480 2.122 . S
O510 C499 1.272 . S
O511 Co482 2.113 . S
O511 C499 1.245 . S
Co512 H515 2.400 . S
Co512 O516 2.009 . S
Co512 O524 2.115 . S
Co512 O525 2.315 . S
Co512 O536 2.053 . S
Co512 O539 2.094 . S
Co512 O542 2.122 . S
Co513 O516 2.126 . S
Co513 H517 2.388 . S
Co513 O518 2.053 . S
Co513 O521 2.047 . S
Co513 O527 2.113 . S
Co513 O538 2.063 . S
Co514 H515 2.388 . S
Co514 O516 2.053 . S
Co514 O518 2.126 . S
Co514 O523 2.063 . S
Co514 O537 2.047 . S
Co514 O543 2.113 . S
H515 Co512 2.400 . S
H515 Co514 2.388 . S
H515 O516 0.760 . S
O516 Co512 2.009 . S
O516 Co513 2.126 . S
O516 Co514 2.053 . S
O516 H515 0.760 . S
H517 Co513 2.388 . S
H517 O518 0.760 . S
H517 Co519 2.400 . S
O518 Co513 2.053 . S
O518 Co514 2.126 . S
O518 H517 0.760 . S
O518 Co519 2.009 . S
Co519 H517 2.400 . S
Co519 O518 2.009 . S
Co519 O520 2.053 . S
Co519 O522 2.094 . S
Co519 O526 2.122 . S
Co519 O540 2.115 . S
Co519 O541 2.315 . S
O520 Co519 2.053 . S
O520 C532 1.259 . S
O521 Co513 2.047 . S
O521 C532 1.257 . S
O522 Co519 2.094 . S
O522 C533 1.253 . S
O523 Co514 2.063 . S
O523 C533 1.268 . S
O524 Co512 2.115 . S
O524 C534 1.281 . S
O525 Co512 2.315 . S
O525 C534 1.252 . S
O526 Co519 2.122 . S
O526 C535 1.272 . S
O527 Co513 2.113 . S
O527 C535 1.245 . S
C528 O536 1.259 . S
C528 O537 1.257 . S
C529 O538 1.268 . S
C529 O539 1.253 . S
C530 O540 1.281 . S
C530 O541 1.252 . S
C531 O542 1.272 . S
C531 O543 1.245 . S
C532 O520 1.259 . S
C532 O521 1.257 . S
C533 O522 1.253 . S
C533 O523 1.268 . S
C534 O524 1.281 . S
C534 O525 1.252 . S
C535 O526 1.272 . S
C535 O527 1.245 . S
O536 Co512 2.053 . S
O536 C528 1.259 . S
O537 Co514 2.047 . S
O537 C528 1.257 . S
O538 Co513 2.063 . S
O538 C529 1.268 . S
O539 Co512 2.094 . S
O539 C529 1.253 . S
O540 Co519 2.115 . S
O540 C530 1.281 . S
O541 Co519 2.315 . S
O541 C530 1.252 . S
O542 Co512 2.122 . S
O542 C531 1.272 . S
O543 Co514 2.113 . S
O543 C531 1.245 . S
Co544 H547 2.400 . S
Co544 O548 2.009 . S
Co544 O556 2.115 . S
Co544 O557 2.315 . S
Co544 O568 2.053 . S
Co544 O571 2.094 . S
Co544 O574 2.122 . S
Co545 O548 2.126 . S
Co545 H549 2.388 . S
Co545 O550 2.053 . S
Co545 O553 2.047 . S
Co545 O559 2.113 . S
Co545 O570 2.063 . S
Co546 H547 2.388 . S
Co546 O548 2.053 . S
Co546 O550 2.126 . S
Co546 O555 2.063 . S
Co546 O569 2.047 . S
Co546 O575 2.113 . S
H547 Co544 2.400 . S
H547 Co546 2.388 . S
H547 O548 0.760 . S
O548 Co544 2.009 . S
O548 Co545 2.126 . S
O548 Co546 2.053 . S
O548 H547 0.760 . S
H549 Co545 2.388 . S
H549 O550 0.760 . S
H549 Co551 2.400 . S
O550 Co545 2.053 . S
O550 Co546 2.126 . S
O550 H549 0.760 . S
O550 Co551 2.009 . S
Co551 H549 2.400 . S
Co551 O550 2.009 . S
Co551 O552 2.053 . S
Co551 O554 2.094 . S
Co551 O558 2.122 . S
Co551 O572 2.115 . S
Co551 O573 2.315 . S
O552 Co551 2.053 . S
O552 C564 1.259 . S
O553 Co545 2.047 . S
O553 C564 1.257 . S
O554 Co551 2.094 . S
O554 C565 1.253 . S
O555 Co546 2.063 . S
O555 C565 1.268 . S
O556 Co544 2.115 . S
O556 C566 1.281 . S
O557 Co544 2.315 . S
O557 C566 1.252 . S
O558 Co551 2.122 . S
O558 C567 1.272 . S
O559 Co545 2.113 . S
O559 C567 1.245 . S
C560 O568 1.259 . S
C560 O569 1.257 . S
C561 O570 1.268 . S
C561 O571 1.253 . S
C562 O572 1.281 . S
C562 O573 1.252 . S
C563 O574 1.272 . S
C563 O575 1.245 . S
C564 O552 1.259 . S
C564 O553 1.257 . S
C565 O554 1.253 . S
C565 O555 1.268 . S
C566 O556 1.281 . S
C566 O557 1.252 . S
C567 O558 1.272 . S
C567 O559 1.245 . S
O568 Co544 2.053 . S
O568 C560 1.259 . S
O569 Co546 2.047 . S
O569 C560 1.257 . S
O570 Co545 2.063 . S
O570 C561 1.268 . S
O571 Co544 2.094 . S
O571 C561 1.253 . S
O572 Co551 2.115 . S
O572 C562 1.281 . S
O573 Co551 2.315 . S
O573 C562 1.252 . S
O574 Co544 2.122 . S
O574 C563 1.272 . S
O575 Co546 2.113 . S
O575 C563 1.245 . S
Co576 H579 2.400 . S
Co576 O580 2.009 . S
Co576 O588 2.115 . S
Co576 O589 2.315 . S
Co576 O600 2.053 . S
Co576 O603 2.094 . S
Co576 O606 2.122 . S
Co577 O580 2.126 . S
Co577 H581 2.388 . S
Co577 O582 2.053 . S
Co577 O585 2.047 . S
Co577 O591 2.113 . S
Co577 O602 2.063 . S
Co578 H579 2.388 . S
Co578 O580 2.053 . S
Co578 O582 2.126 . S
Co578 O587 2.063 . S
Co578 O601 2.047 . S
Co578 O607 2.113 . S
H579 Co576 2.400 . S
H579 Co578 2.388 . S
H579 O580 0.760 . S
O580 Co576 2.009 . S
O580 Co577 2.126 . S
O580 Co578 2.053 . S
O580 H579 0.760 . S
H581 Co577 2.388 . S
H581 O582 0.760 . S
H581 Co583 2.400 . S
O582 Co577 2.053 . S
O582 Co578 2.126 . S
O582 H581 0.760 . S
O582 Co583 2.009 . S
Co583 H581 2.400 . S
Co583 O582 2.009 . S
Co583 O584 2.053 . S
Co583 O586 2.094 . S
Co583 O590 2.122 . S
Co583 O604 2.115 . S
Co583 O605 2.315 . S
O584 Co583 2.053 . S
O584 C596 1.259 . S
O585 Co577 2.047 . S
O585 C596 1.257 . S
O586 Co583 2.094 . S
O586 C597 1.253 . S
O587 Co578 2.063 . S
O587 C597 1.268 . S
O588 Co576 2.115 . S
O588 C598 1.281 . S
O589 Co576 2.315 . S
O589 C598 1.252 . S
O590 Co583 2.122 . S
O590 C599 1.272 . S
O591 Co577 2.113 . S
O591 C599 1.245 . S
C592 O600 1.259 . S
C592 O601 1.257 . S
C593 O602 1.268 . S
C593 O603 1.253 . S
C594 O604 1.281 . S
C594 O605 1.252 . S
C595 O606 1.272 . S
C595 O607 1.245 . S
C596 O584 1.259 . S
C596 O585 1.257 . S
C597 O586 1.253 . S
C597 O587 1.268 . S
C598 O588 1.281 . S
C598 O589 1.252 . S
C599 O590 1.272 . S
C599 O591 1.245 . S
O600 Co576 2.053 . S
O600 C592 1.259 . S
O601 Co578 2.047 . S
O601 C592 1.257 . S
O602 Co577 2.063 . S
O602 C593 1.268 . S
O603 Co576 2.094 . S
O603 C593 1.253 . S
O604 Co583 2.115 . S
O604 C594 1.281 . S
O605 Co583 2.315 . S
O605 C594 1.252 . S
O606 Co576 2.122 . S
O606 C595 1.272 . S
O607 Co578 2.113 . S
O607 C595 1.245 . S
Co608 H611 2.400 . S
Co608 O612 2.009 . S
Co608 O620 2.115 . S
Co608 O621 2.315 . S
Co608 O632 2.053 . S
Co608 O635 2.094 . S
Co608 O638 2.122 . S
Co609 O612 2.126 . S
Co609 H613 2.388 . S
Co609 O614 2.053 . S
Co609 O617 2.047 . S
Co609 O623 2.113 . S
Co609 O634 2.063 . S
Co610 H611 2.388 . S
Co610 O612 2.053 . S
Co610 O614 2.126 . S
Co610 O619 2.063 . S
Co610 O633 2.047 . S
Co610 O639 2.113 . S
H611 Co608 2.400 . S
H611 Co610 2.388 . S
H611 O612 0.760 . S
O612 Co608 2.009 . S
O612 Co609 2.126 . S
O612 Co610 2.053 . S
O612 H611 0.760 . S
H613 Co609 2.388 . S
H613 O614 0.760 . S
H613 Co615 2.400 . S
O614 Co609 2.053 . S
O614 Co610 2.126 . S
O614 H613 0.760 . S
O614 Co615 2.009 . S
Co615 H613 2.400 . S
Co615 O614 2.009 . S
Co615 O616 2.053 . S
Co615 O618 2.094 . S
Co615 O622 2.122 . S
Co615 O636 2.115 . S
Co615 O637 2.315 . S
O616 Co615 2.053 . S
O616 C628 1.259 . S
O617 Co609 2.047 . S
O617 C628 1.257 . S
O618 Co615 2.094 . S
O618 C629 1.253 . S
O619 Co610 2.063 . S
O619 C629 1.268 . S
O620 Co608 2.115 . S
O620 C630 1.281 . S
O621 Co608 2.315 . S
O621 C630 1.252 . S
O622 Co615 2.122 . S
O622 C631 1.272 . S
O623 Co609 2.113 . S
O623 C631 1.245 . S
C624 O632 1.259 . S
C624 O633 1.257 . S
C625 O634 1.268 . S
C625 O635 1.253 . S
C626 O636 1.281 . S
C626 O637 1.252 . S
C627 O638 1.272 . S
C627 O639 1.245 . S
C628 O616 1.259 . S
C628 O617 1.257 . S
C629 O618 1.253 . S
C629 O619 1.268 . S
C630 O620 1.281 . S
C630 O621 1.252 . S
C631 O622 1.272 . S
C631 O623 1.245 . S
O632 Co608 2.053 . S
O632 C624 1.259 . S
O633 Co610 2.047 . S
O633 C624 1.257 . S
O634 Co609 2.063 . S
O634 C625 1.268 . S
O635 Co608 2.094 . S
O635 C625 1.253 . S
O636 Co615 2.115 . S
O636 C626 1.281 . S
O637 Co615 2.315 . S
O637 C626 1.252 . S
O638 Co608 2.122 . S
O638 C627 1.272 . S
O639 Co610 2.113 . S
O639 C627 1.245 . S
Co640 H643 2.400 . S
Co640 O644 2.009 . S
Co640 O652 2.115 . S
Co640 O653 2.315 . S
Co640 O664 2.053 . S
Co640 O667 2.094 . S
Co640 O670 2.122 . S
Co641 O644 2.126 . S
Co641 H645 2.388 . S
Co641 O646 2.053 . S
Co641 O649 2.047 . S
Co641 O655 2.113 . S
Co641 O666 2.063 . S
Co642 H643 2.388 . S
Co642 O644 2.053 . S
Co642 O646 2.126 . S
Co642 O651 2.063 . S
Co642 O665 2.047 . S
Co642 O671 2.113 . S
H643 Co640 2.400 . S
H643 Co642 2.388 . S
H643 O644 0.760 . S
O644 Co640 2.009 . S
O644 Co641 2.126 . S
O644 Co642 2.053 . S
O644 H643 0.760 . S
H645 Co641 2.388 . S
H645 O646 0.760 . S
H645 Co647 2.400 . S
O646 Co641 2.053 . S
O646 Co642 2.126 . S
O646 H645 0.760 . S
O646 Co647 2.009 . S
Co647 H645 2.400 . S
Co647 O646 2.009 . S
Co647 O648 2.053 . S
Co647 O650 2.094 . S
Co647 O654 2.122 . S
Co647 O668 2.115 . S
Co647 O669 2.315 . S
O648 Co647 2.053 . S
O648 C660 1.259 . S
O649 Co641 2.047 . S
O649 C660 1.257 . S
O650 Co647 2.094 . S
O650 C661 1.253 . S
O651 Co642 2.063 . S
O651 C661 1.268 . S
O652 Co640 2.115 . S
O652 C662 1.281 . S
O653 Co640 2.315 . S
O653 C662 1.252 . S
O654 Co647 2.122 . S
O654 C663 1.272 . S
O655 Co641 2.113 . S
O655 C663 1.245 . S
C656 O664 1.259 . S
C656 O665 1.257 . S
C657 O666 1.268 . S
C657 O667 1.253 . S
C658 O668 1.281 . S
C658 O669 1.252 . S
C659 O670 1.272 . S
C659 O671 1.245 . S
C660 O648 1.259 . S
C660 O649 1.257 . S
C661 O650 1.253 . S
C661 O651 1.268 . S
C662 O652 1.281 . S
C662 O653 1.252 . S
C663 O654 1.272 . S
C663 O655 1.245 . S
O664 Co640 2.053 . S
O664 C656 1.259 . S
O665 Co642 2.047 . S
O665 C656 1.257 . S
O666 Co641 2.063 . S
O666 C657 1.268 . S
O667 Co640 2.094 . S
O667 C657 1.253 . S
O668 Co647 2.115 . S
O668 C658 1.281 . S
O669 Co647 2.315 . S
O669 C658 1.252 . S
O670 Co640 2.122 . S
O670 C659 1.272 . S
O671 Co642 2.113 . S
O671 C659 1.245 . S
Co672 H675 2.400 . S
Co672 O676 2.009 . S
Co672 O684 2.115 . S
Co672 O685 2.315 . S
Co672 O696 2.053 . S
Co672 O699 2.094 . S
Co672 O702 2.122 . S
Co673 O676 2.126 . S
Co673 H677 2.388 . S
Co673 O678 2.053 . S
Co673 O681 2.047 . S
Co673 O687 2.113 . S
Co673 O698 2.063 . S
Co674 H675 2.388 . S
Co674 O676 2.053 . S
Co674 O678 2.126 . S
Co674 O683 2.063 . S
Co674 O697 2.047 . S
Co674 O703 2.113 . S
H675 Co672 2.400 . S
H675 Co674 2.388 . S
H675 O676 0.760 . S
O676 Co672 2.009 . S
O676 Co673 2.126 . S
O676 Co674 2.053 . S
O676 H675 0.760 . S
H677 Co673 2.388 . S
H677 O678 0.760 . S
H677 Co679 2.400 . S
O678 Co673 2.053 . S
O678 Co674 2.126 . S
O678 H677 0.760 . S
O678 Co679 2.009 . S
Co679 H677 2.400 . S
Co679 O678 2.009 . S
Co679 O680 2.053 . S
Co679 O682 2.094 . S
Co679 O686 2.122 . S
Co679 O700 2.115 . S
Co679 O701 2.315 . S
O680 Co679 2.053 . S
O680 C692 1.259 . S
O681 Co673 2.047 . S
O681 C692 1.257 . S
O682 Co679 2.094 . S
O682 C693 1.253 . S
O683 Co674 2.063 . S
O683 C693 1.268 . S
O684 Co672 2.115 . S
O684 C694 1.281 . S
O685 Co672 2.315 . S
O685 C694 1.252 . S
O686 Co679 2.122 . S
O686 C695 1.272 . S
O687 Co673 2.113 . S
O687 C695 1.245 . S
C688 O696 1.259 . S
C688 O697 1.257 . S
C689 O698 1.268 . S
C689 O699 1.253 . S
C690 O700 1.281 . S
C690 O701 1.252 . S
C691 O702 1.272 . S
C691 O703 1.245 . S
C692 O680 1.259 . S
C692 O681 1.257 . S
C693 O682 1.253 . S
C693 O683 1.268 . S
C694 O684 1.281 . S
C694 O685 1.252 . S
C695 O686 1.272 . S
C695 O687 1.245 . S
O696 Co672 2.053 . S
O696 C688 1.259 . S
O697 Co674 2.047 . S
O697 C688 1.257 . S
O698 Co673 2.063 . S
O698 C689 1.268 . S
O699 Co672 2.094 . S
O699 C689 1.253 . S
O700 Co679 2.115 . S
O700 C690 1.281 . S
O701 Co679 2.315 . S
O701 C690 1.252 . S
O702 Co672 2.122 . S
O702 C691 1.272 . S
O703 Co674 2.113 . S
O703 C691 1.245 . S
Co704 H707 2.400 . S
Co704 O708 2.009 . S
Co704 O716 2.115 . S
Co704 O717 2.315 . S
Co704 O728 2.053 . S
Co704 O731 2.094 . S
Co704 O734 2.122 . S
Co705 O708 2.126 . S
Co705 H709 2.388 . S
Co705 O710 2.053 . S
Co705 O713 2.047 . S
Co705 O719 2.113 . S
Co705 O730 2.063 . S
Co706 H707 2.388 . S
Co706 O708 2.053 . S
Co706 O710 2.126 . S
Co706 O715 2.063 . S
Co706 O729 2.047 . S
Co706 O735 2.113 . S
H707 Co704 2.400 . S
H707 Co706 2.388 . S
H707 O708 0.760 . S
O708 Co704 2.009 . S
O708 Co705 2.126 . S
O708 Co706 2.053 . S
O708 H707 0.760 . S
H709 Co705 2.388 . S
H709 O710 0.760 . S
H709 Co711 2.400 . S
O710 Co705 2.053 . S
O710 Co706 2.126 . S
O710 H709 0.760 . S
O710 Co711 2.009 . S
Co711 H709 2.400 . S
Co711 O710 2.009 . S
Co711 O712 2.053 . S
Co711 O714 2.094 . S
Co711 O718 2.122 . S
Co711 O732 2.115 . S
Co711 O733 2.315 . S
O712 Co711 2.053 . S
O712 C724 1.259 . S
O713 Co705 2.047 . S
O713 C724 1.257 . S
O714 Co711 2.094 . S
O714 C725 1.253 . S
O715 Co706 2.063 . S
O715 C725 1.268 . S
O716 Co704 2.115 . S
O716 C726 1.281 . S
O717 Co704 2.315 . S
O717 C726 1.252 . S
O718 Co711 2.122 . S
O718 C727 1.272 . S
O719 Co705 2.113 . S
O719 C727 1.245 . S
C720 O728 1.259 . S
C720 O729 1.257 . S
C721 O730 1.268 . S
C721 O731 1.253 . S
C722 O732 1.281 . S
C722 O733 1.252 . S
C723 O734 1.272 . S
C723 O735 1.245 . S
C724 O712 1.259 . S
C724 O713 1.257 . S
C725 O714 1.253 . S
C725 O715 1.268 . S
C726 O716 1.281 . S
C726 O717 1.252 . S
C727 O718 1.272 . S
C727 O719 1.245 . S
O728 Co704 2.053 . S
O728 C720 1.259 . S
O729 Co706 2.047 . S
O729 C720 1.257 . S
O730 Co705 2.063 . S
O730 C721 1.268 . S
O731 Co704 2.094 . S
O731 C721 1.253 . S
O732 Co711 2.115 . S
O732 C722 1.281 . S
O733 Co711 2.315 . S
O733 C722 1.252 . S
O734 Co704 2.122 . S
O734 C723 1.272 . S
O735 Co706 2.113 . S
O735 C723 1.245 . S
Co736 H739 2.400 . S
Co736 O740 2.009 . S
Co736 O748 2.115 . S
Co736 O749 2.315 . S
Co736 O760 2.053 . S
Co736 O763 2.094 . S
Co736 O766 2.122 . S
Co737 O740 2.126 . S
Co737 H741 2.388 . S
Co737 O742 2.053 . S
Co737 O745 2.047 . S
Co737 O751 2.113 . S
Co737 O762 2.063 . S
Co738 H739 2.388 . S
Co738 O740 2.053 . S
Co738 O742 2.126 . S
Co738 O747 2.063 . S
Co738 O761 2.047 . S
Co738 O767 2.113 . S
H739 Co736 2.400 . S
H739 Co738 2.388 . S
H739 O740 0.760 . S
O740 Co736 2.009 . S
O740 Co737 2.126 . S
O740 Co738 2.053 . S
O740 H739 0.760 . S
H741 Co737 2.388 . S
H741 O742 0.760 . S
H741 Co743 2.400 . S
O742 Co737 2.053 . S
O742 Co738 2.126 . S
O742 H741 0.760 . S
O742 Co743 2.009 . S
Co743 H741 2.400 . S
Co743 O742 2.009 . S
Co743 O744 2.053 . S
Co743 O746 2.094 . S
Co743 O750 2.122 . S
Co743 O764 2.115 . S
Co743 O765 2.315 . S
O744 Co743 2.053 . S
O744 C756 1.259 . S
O745 Co737 2.047 . S
O745 C756 1.257 . S
O746 Co743 2.094 . S
O746 C757 1.253 . S
O747 Co738 2.063 . S
O747 C757 1.268 . S
O748 Co736 2.115 . S
O748 C758 1.281 . S
O749 Co736 2.315 . S
O749 C758 1.252 . S
O750 Co743 2.122 . S
O750 C759 1.272 . S
O751 Co737 2.113 . S
O751 C759 1.245 . S
C752 O760 1.259 . S
C752 O761 1.257 . S
C753 O762 1.268 . S
C753 O763 1.253 . S
C754 O764 1.281 . S
C754 O765 1.252 . S
C755 O766 1.272 . S
C755 O767 1.245 . S
C756 O744 1.259 . S
C756 O745 1.257 . S
C757 O746 1.253 . S
C757 O747 1.268 . S
C758 O748 1.281 . S
C758 O749 1.252 . S
C759 O750 1.272 . S
C759 O751 1.245 . S
O760 Co736 2.053 . S
O760 C752 1.259 . S
O761 Co738 2.047 . S
O761 C752 1.257 . S
O762 Co737 2.063 . S
O762 C753 1.268 . S
O763 Co736 2.094 . S
O763 C753 1.253 . S
O764 Co743 2.115 . S
O764 C754 1.281 . S
O765 Co743 2.315 . S
O765 C754 1.252 . S
O766 Co736 2.122 . S
O766 C755 1.272 . S
O767 Co738 2.113 . S
O767 C755 1.245 . S
H768 C776 0.950 . S
H769 C781 0.950 . S
H770 C778 0.950 . S
H771 C780 0.950 . S
H772 C782 0.950 . S
H773 C784 0.950 . S
H774 C786 0.950 . S
H775 C787 0.950 . S
C776 H768 0.950 . S
C776 C777 1.386 . S
C776 C778 1.391 . S
C777 C776 1.386 . S
C777 C781 1.393 . S
C778 H770 0.950 . S
C778 C776 1.391 . S
C778 C779 1.400 . S
C779 C778 1.400 . S
C779 C780 1.398 . S
C779 C785 1.491 . S
C780 H771 0.950 . S
C780 C779 1.398 . S
C780 C781 1.391 . S
C781 H769 0.950 . S
C781 C777 1.393 . S
C781 C780 1.391 . S
C782 H772 0.950 . S
C782 C783 1.386 . S
C782 C784 1.391 . S
C783 C782 1.386 . S
C783 C787 1.393 . S
C784 H773 0.950 . S
C784 C782 1.391 . S
C784 C785 1.400 . S
C785 C779 1.491 . S
C785 C784 1.400 . S
C785 C786 1.398 . S
C786 H774 0.950 . S
C786 C785 1.398 . S
C786 C787 1.391 . S
C787 H775 0.950 . S
C787 C783 1.393 . S
C787 C786 1.391 . S
H788 C796 0.950 . S
H789 C801 0.950 . S
H790 C798 0.939 1_455 S
H791 C800 0.950 . S
H792 C802 0.950 . S
H793 C804 0.950 . S
H794 C806 0.966 . S
H795 C807 0.950 . S
C796 H788 0.950 . S
C796 C797 1.386 . S
C796 C798 1.391 . S
C797 C796 1.386 . S
C797 C801 1.393 . S
C798 H790 0.939 1_655 S
C798 C796 1.391 . S
C798 C799 1.400 . S
C799 C798 1.400 . S
C799 C800 1.398 . S
C799 C805 1.491 . S
C800 H791 0.950 . S
C800 C799 1.398 . S
C800 C801 1.391 . S
C801 H789 0.950 . S
C801 C797 1.393 . S
C801 C800 1.391 . S
C802 H792 0.950 . S
C802 C803 1.386 1_655 S
C802 C804 1.391 . S
C803 C802 1.386 1_455 S
C803 C807 1.393 . S
C804 H793 0.950 . S
C804 C802 1.391 . S
C804 C805 1.400 1_545 S
C805 C799 1.491 . S
C805 C804 1.400 1_565 S
C805 C806 1.398 1_655 S
C806 H794 0.966 . S
C806 C805 1.398 1_455 S
C806 C807 1.375 1_565 S
C807 H795 0.950 . S
C807 C803 1.393 . S
C807 C806 1.375 1_545 S
H808 C816 0.950 . S
H809 C821 0.950 . S
H810 C818 0.950 . S
H811 C820 0.950 . S
H812 C822 0.950 . S
H813 C824 0.950 . S
H814 C826 0.950 . S
H815 C827 0.950 . S
C816 H808 0.950 . S
C816 C817 1.386 . S
C816 C818 1.391 . S
C817 C816 1.386 . S
C817 C821 1.393 . S
C818 H810 0.950 . S
C818 C816 1.391 . S
C818 C819 1.400 . S
C819 C818 1.400 . S
C819 C820 1.398 . S
C819 C825 1.491 . S
C820 H811 0.950 . S
C820 C819 1.398 . S
C820 C821 1.391 . S
C821 H809 0.950 . S
C821 C817 1.393 . S
C821 C820 1.391 . S
C822 H812 0.950 . S
C822 C823 1.386 . S
C822 C824 1.391 . S
C823 C822 1.386 . S
C823 C827 1.393 . S
C824 H813 0.950 . S
C824 C822 1.391 . S
C824 C825 1.400 . S
C825 C819 1.491 . S
C825 C824 1.400 . S
C825 C826 1.398 . S
C826 H814 0.950 . S
C826 C825 1.398 . S
C826 C827 1.391 . S
C827 H815 0.950 . S
C827 C823 1.393 . S
C827 C826 1.391 . S
H828 C836 0.950 . S
H829 C841 0.950 . S
H830 C838 0.950 . S
H831 C840 0.950 . S
H832 C842 0.950 . S
H833 C844 0.950 . S
H834 C846 0.950 . S
H835 C847 0.950 . S
C836 H828 0.950 . S
C836 C837 1.386 . S
C836 C838 1.391 . S
C837 C836 1.386 . S
C837 C841 1.393 1_565 S
C838 H830 0.950 . S
C838 C836 1.391 . S
C838 C839 1.400 1_565 S
C839 C838 1.400 1_545 S
C839 C840 1.398 . S
C839 C845 1.491 . S
C840 H831 0.950 . S
C840 C839 1.398 . S
C840 C841 1.391 . S
C841 H829 0.950 . S
C841 C837 1.393 1_545 S
C841 C840 1.391 . S
C842 H832 0.950 . S
C842 C843 1.386 . S
C842 C844 1.391 . S
C843 C842 1.386 . S
C843 C847 1.393 . S
C844 H833 0.950 . S
C844 C842 1.391 . S
C844 C845 1.400 . S
C845 C839 1.491 . S
C845 C844 1.400 . S
C845 C846 1.398 . S
C846 H834 0.950 . S
C846 C845 1.398 . S
C846 C847 1.391 . S
C847 H835 0.950 . S
C847 C843 1.393 . S
C847 C846 1.391 . S
H848 C856 0.950 . S
H849 C861 0.950 . S
H850 C858 0.950 . S
H851 C860 0.950 . S
H852 C862 0.950 . S
H853 C864 0.950 . S
H854 C866 0.950 . S
H855 C867 0.950 . S
C856 H848 0.950 . S
C856 C857 1.386 . S
C856 C858 1.391 . S
C857 C856 1.386 . S
C857 C861 1.393 . S
C858 H850 0.950 . S
C858 C856 1.391 . S
C858 C859 1.400 . S
C859 C858 1.400 . S
C859 C860 1.398 . S
C859 C865 1.491 . S
C860 H851 0.950 . S
C860 C859 1.398 . S
C860 C861 1.391 . S
C861 H849 0.950 . S
C861 C857 1.393 . S
C861 C860 1.391 . S
C862 H852 0.950 . S
C862 C863 1.386 . S
C862 C864 1.391 . S
C863 C862 1.386 . S
C863 C867 1.393 . S
C864 H853 0.950 . S
C864 C862 1.391 . S
C864 C865 1.400 . S
C865 C859 1.491 . S
C865 C864 1.400 . S
C865 C866 1.398 . S
C866 H854 0.950 . S
C866 C865 1.398 . S
C866 C867 1.391 . S
C867 H855 0.950 . S
C867 C863 1.393 . S
C867 C866 1.391 . S
H868 C876 0.950 . S
H869 C881 0.950 . S
H870 C878 0.950 . S
H871 C880 0.950 . S
H872 C882 0.950 . S
H873 C884 0.950 . S
H874 C886 0.950 . S
H875 C887 0.950 . S
C876 H868 0.950 . S
C876 C877 1.386 . S
C876 C878 1.391 . S
C877 C876 1.386 . S
C877 C881 1.393 . S
C878 H870 0.950 . S
C878 C876 1.391 . S
C878 C879 1.400 . S
C879 C878 1.400 . S
C879 C880 1.398 . S
C879 C885 1.491 1_565 S
C880 H871 0.950 . S
C880 C879 1.398 . S
C880 C881 1.391 . S
C881 H869 0.950 . S
C881 C877 1.393 . S
C881 C880 1.391 . S
C882 H872 0.950 . S
C882 C883 1.386 . S
C882 C884 1.391 . S
C883 C882 1.386 . S
C883 C887 1.393 . S
C884 H873 0.950 . S
C884 C882 1.391 . S
C884 C885 1.400 . S
C885 C879 1.491 1_545 S
C885 C884 1.400 . S
C885 C886 1.398 . S
C886 H874 0.950 . S
C886 C885 1.398 . S
C886 C887 1.391 . S
C887 H875 0.950 . S
C887 C883 1.393 . S
C887 C886 1.391 . S
H888 C896 0.950 . S
H889 C901 0.950 . S
H890 C898 0.950 . S
H891 C900 0.950 . S
H892 C902 0.950 . S
H893 C904 0.950 . S
H894 C906 0.950 . S
H895 C907 0.950 . S
C896 H888 0.950 . S
C896 C897 1.386 . S
C896 C898 1.391 . S
C897 C896 1.386 . S
C897 C901 1.393 . S
C898 H890 0.950 . S
C898 C896 1.391 . S
C898 C899 1.400 . S
C899 C898 1.400 . S
C899 C900 1.398 . S
C899 C905 1.491 . S
C900 H891 0.950 . S
C900 C899 1.398 . S
C900 C901 1.391 . S
C901 H889 0.950 . S
C901 C897 1.393 . S
C901 C900 1.391 . S
C902 H892 0.950 . S
C902 C903 1.386 . S
C902 C904 1.391 . S
C903 C902 1.386 . S
C903 C907 1.393 . S
C904 H893 0.950 . S
C904 C902 1.391 . S
C904 C905 1.400 . S
C905 C899 1.491 . S
C905 C904 1.400 . S
C905 C906 1.398 . S
C906 H894 0.950 . S
C906 C905 1.398 . S
C906 C907 1.391 . S
C907 H895 0.950 . S
C907 C903 1.393 . S
C907 C906 1.391 . S
H908 C916 0.950 . S
H909 C921 0.950 . S
H910 C918 0.950 1_655 S
H911 C920 0.950 . S
H912 C922 0.950 . S
H913 C924 0.950 1_455 S
H914 C926 0.950 . S
H915 C927 0.950 . S
C916 H908 0.950 . S
C916 C917 1.386 . S
C916 C918 1.391 . S
C917 C916 1.386 . S
C917 C921 1.393 1_565 S
C918 H910 0.950 1_455 S
C918 C916 1.391 . S
C918 C919 1.400 1_565 S
C919 C918 1.400 1_545 S
C919 C920 1.398 . S
C919 C925 1.491 1_455 S
C920 H911 0.950 . S
C920 C919 1.398 . S
C920 C921 1.391 . S
C921 H909 0.950 . S
C921 C917 1.393 1_545 S
C921 C920 1.391 . S
C922 H912 0.950 . S
C922 C923 1.386 . S
C922 C924 1.391 . S
C923 C922 1.386 . S
C923 C927 1.393 . S
C924 H913 0.950 1_655 S
C924 C922 1.391 . S
C924 C925 1.400 . S
C925 C919 1.491 1_655 S
C925 C924 1.400 . S
C925 C926 1.398 . S
C926 H914 0.950 . S
C926 C925 1.398 . S
C926 C927 1.391 . S
C927 H915 0.950 . S
C927 C923 1.393 . S
C927 C926 1.391 . S
H928 C936 0.950 . S
H929 C941 0.950 . S
H930 C938 0.950 . S
H931 C940 0.950 . S
H932 C942 0.950 . S
H933 C944 0.950 . S
H934 C946 0.950 . S
H935 C947 0.950 . S
C936 H928 0.950 . S
C936 C937 1.386 . S
C936 C938 1.391 . S
C937 C936 1.386 . S
C937 C941 1.393 . S
C938 H930 0.950 . S
C938 C936 1.391 . S
C938 C939 1.400 . S
C939 C938 1.400 . S
C939 C940 1.398 . S
C939 C945 1.491 . S
C940 H931 0.950 . S
C940 C939 1.398 . S
C940 C941 1.391 . S
C941 H929 0.950 . S
C941 C937 1.393 . S
C941 C940 1.391 . S
C942 H932 0.950 . S
C942 C943 1.386 . S
C942 C944 1.391 . S
C943 C942 1.386 . S
C943 C947 1.393 . S
C944 H933 0.950 . S
C944 C942 1.391 . S
C944 C945 1.400 . S
C945 C939 1.491 . S
C945 C944 1.400 . S
C945 C946 1.398 . S
C946 H934 0.950 . S
C946 C945 1.398 . S
C946 C947 1.391 . S
C947 H935 0.950 . S
C947 C943 1.393 . S
C947 C946 1.391 . S
H948 C956 0.950 . S
H949 C961 0.950 . S
H950 C958 0.950 . S
H951 C960 0.950 . S
H952 C962 0.950 . S
H953 C964 0.950 1_455 S
H954 C966 0.950 . S
H955 C967 0.950 . S
C956 H948 0.950 . S
C956 C957 1.386 . S
C956 C958 1.391 . S
C957 C956 1.386 . S
C957 C961 1.393 . S
C958 H950 0.950 . S
C958 C956 1.391 . S
C958 C959 1.400 . S
C959 C958 1.400 . S
C959 C960 1.398 . S
C959 C965 1.491 . S
C960 H951 0.950 . S
C960 C959 1.398 . S
C960 C961 1.391 . S
C961 H949 0.950 . S
C961 C957 1.393 . S
C961 C960 1.391 . S
C962 H952 0.950 . S
C962 C963 1.386 . S
C962 C964 1.391 . S
C963 C962 1.386 . S
C963 C967 1.393 . S
C964 H953 0.950 1_655 S
C964 C962 1.391 . S
C964 C965 1.400 1_655 S
C965 C959 1.491 . S
C965 C964 1.400 1_455 S
C965 C966 1.398 1_455 S
C966 H954 0.950 . S
C966 C965 1.398 1_655 S
C966 C967 1.391 . S
C967 H955 0.950 . S
C967 C963 1.393 . S
C967 C966 1.391 . S
H968 C976 0.950 . S
H969 C981 0.950 . S
H970 C978 0.950 . S
H971 C980 0.950 . S
H972 C982 0.950 . S
H973 C984 0.950 . S
H974 C986 0.950 . S
H975 C987 0.950 . S
C976 H968 0.950 . S
C976 C977 1.386 . S
C976 C978 1.391 . S
C977 C976 1.386 . S
C977 C981 1.393 . S
C978 H970 0.950 . S
C978 C976 1.391 . S
C978 C979 1.400 . S
C979 C978 1.400 . S
C979 C980 1.398 . S
C979 C985 1.491 . S
C980 H971 0.950 . S
C980 C979 1.398 . S
C980 C981 1.391 . S
C981 H969 0.950 . S
C981 C977 1.393 . S
C981 C980 1.391 . S
C982 H972 0.950 . S
C982 C983 1.386 . S
C982 C984 1.391 . S
C983 C982 1.386 . S
C983 C987 1.393 . S
C984 H973 0.950 . S
C984 C982 1.391 . S
C984 C985 1.400 . S
C985 C979 1.491 . S
C985 C984 1.400 . S
C985 C986 1.398 . S
C986 H974 0.950 . S
C986 C985 1.398 . S
C986 C987 1.391 . S
C987 H975 0.950 . S
C987 C983 1.393 . S
C987 C986 1.391 . S
H988 C996 0.950 . S
H989 C1001 0.950 . S
H990 C998 0.950 . S
H991 C1000 0.950 . S
H992 C1002 0.950 . S
H993 C1004 0.950 . S
H994 C1006 0.950 . S
H995 C1007 0.950 . S
C996 H988 0.950 . S
C996 C997 1.386 . S
C996 C998 1.391 1_556 S
C997 C996 1.386 . S
C997 C1001 1.393 . S
C998 H990 0.950 . S
C998 C996 1.391 1_554 S
C998 C999 1.400 . S
C999 C998 1.400 . S
C999 C1000 1.398 1_554 S
C999 C1005 1.491 . S
C1000 H991 0.950 . S
C1000 C999 1.398 1_556 S
C1000 C1001 1.391 . S
C1001 H989 0.950 . S
C1001 C997 1.393 . S
C1001 C1000 1.391 . S
C1002 H992 0.950 . S
C1002 C1003 1.386 . S
C1002 C1004 1.391 . S
C1003 C1002 1.386 . S
C1003 C1007 1.393 . S
C1004 H993 0.950 . S
C1004 C1002 1.391 . S
C1004 C1005 1.400 . S
C1005 C999 1.491 . S
C1005 C1004 1.400 . S
C1005 C1006 1.398 . S
C1006 H994 0.950 . S
C1006 C1005 1.398 . S
C1006 C1007 1.391 . S
C1007 H995 0.950 . S
C1007 C1003 1.393 . S
C1007 C1006 1.391 . S
H1008 C1016 0.950 . S
H1009 C1021 0.950 . S
H1010 C1018 0.950 . S
H1011 C1020 0.950 . S
H1012 C1022 0.950 . S
H1013 C1024 0.950 . S
H1014 C1026 0.950 . S
H1015 C1027 0.950 . S
C1016 H1008 0.950 . S
C1016 C1017 1.386 . S
C1016 C1018 1.391 . S
C1017 C1016 1.386 . S
C1017 C1021 1.393 . S
C1018 H1010 0.950 . S
C1018 C1016 1.391 . S
C1018 C1019 1.400 . S
C1019 C1018 1.400 . S
C1019 C1020 1.398 . S
C1019 C1025 1.491 . S
C1020 H1011 0.950 . S
C1020 C1019 1.398 . S
C1020 C1021 1.391 . S
C1021 H1009 0.950 . S
C1021 C1017 1.393 . S
C1021 C1020 1.391 . S
C1022 H1012 0.950 . S
C1022 C1023 1.386 . S
C1022 C1024 1.391 . S
C1023 C1022 1.386 . S
C1023 C1027 1.393 . S
C1024 H1013 0.950 . S
C1024 C1022 1.391 . S
C1024 C1025 1.400 . S
C1025 C1019 1.491 . S
C1025 C1024 1.400 . S
C1025 C1026 1.398 . S
C1026 H1014 0.950 . S
C1026 C1025 1.398 . S
C1026 C1027 1.391 . S
C1027 H1015 0.950 . S
C1027 C1023 1.393 . S
C1027 C1026 1.391 . S
H1028 C1036 0.950 . S
H1029 C1041 0.950 . S
H1030 C1038 0.950 . S
H1031 C1040 0.950 . S
H1032 C1042 0.950 . S
H1033 C1044 0.950 . S
H1034 C1046 0.950 . S
H1035 C1047 0.950 . S
C1036 H1028 0.950 . S
C1036 C1037 1.386 . S
C1036 C1038 1.391 . S
C1037 C1036 1.386 . S
C1037 C1041 1.393 . S
C1038 H1030 0.950 . S
C1038 C1036 1.391 . S
C1038 C1039 1.400 . S
C1039 C1038 1.400 . S
C1039 C1040 1.398 . S
C1039 C1045 1.491 . S
C1040 H1031 0.950 . S
C1040 C1039 1.398 . S
C1040 C1041 1.391 . S
C1041 H1029 0.950 . S
C1041 C1037 1.393 . S
C1041 C1040 1.391 . S
C1042 H1032 0.950 . S
C1042 C1043 1.386 . S
C1042 C1044 1.391 . S
C1043 C1042 1.386 . S
C1043 C1047 1.393 . S
C1044 H1033 0.950 . S
C1044 C1042 1.391 . S
C1044 C1045 1.400 . S
C1045 C1039 1.491 . S
C1045 C1044 1.400 . S
C1045 C1046 1.398 . S
C1046 H1034 0.950 . S
C1046 C1045 1.398 . S
C1046 C1047 1.391 . S
C1047 H1035 0.950 . S
C1047 C1043 1.393 . S
C1047 C1046 1.391 . S
H1048 C1056 0.950 . S
H1049 C1061 0.950 . S
H1050 C1058 0.950 . S
H1051 C1060 0.950 . S
H1052 C1062 0.950 . S
H1053 C1064 0.950 . S
H1054 C1066 0.950 . S
H1055 C1067 0.950 . S
C1056 H1048 0.950 . S
C1056 C1057 1.386 . S
C1056 C1058 1.391 . S
C1057 C1056 1.386 . S
C1057 C1061 1.393 . S
C1058 H1050 0.950 . S
C1058 C1056 1.391 . S
C1058 C1059 1.400 . S
C1059 C1058 1.400 . S
C1059 C1060 1.398 . S
C1059 C1065 1.491 . S
C1060 H1051 0.950 . S
C1060 C1059 1.398 . S
C1060 C1061 1.391 . S
C1061 H1049 0.950 . S
C1061 C1057 1.393 . S
C1061 C1060 1.391 . S
C1062 H1052 0.950 . S
C1062 C1063 1.386 . S
C1062 C1064 1.391 . S
C1063 C1062 1.386 . S
C1063 C1067 1.393 . S
C1064 H1053 0.950 . S
C1064 C1062 1.391 . S
C1064 C1065 1.400 . S
C1065 C1059 1.491 . S
C1065 C1064 1.400 . S
C1065 C1066 1.398 . S
C1066 H1054 0.950 . S
C1066 C1065 1.398 . S
C1066 C1067 1.391 . S
C1067 H1055 0.950 . S
C1067 C1063 1.393 . S
C1067 C1066 1.391 . S
H1068 C1076 0.950 . S
H1069 C1081 0.950 . S
H1070 C1078 0.950 1_556 S
H1071 C1080 0.950 . S
H1072 C1082 0.950 . S
H1073 C1084 0.950 1_554 S
H1074 C1086 0.950 . S
H1075 C1087 0.950 . S
C1076 H1068 0.950 . S
C1076 C1077 1.386 . S
C1076 C1078 1.391 . S
C1077 C1076 1.386 . S
C1077 C1081 1.393 1_655 S
C1078 H1070 0.950 1_554 S
C1078 C1076 1.391 . S
C1078 C1079 1.400 1_655 S
C1079 C1078 1.400 1_455 S
C1079 C1080 1.398 . S
C1079 C1085 1.491 1_554 S
C1080 H1071 0.950 . S
C1080 C1079 1.398 . S
C1080 C1081 1.391 . S
C1081 H1069 0.950 . S
C1081 C1077 1.393 1_455 S
C1081 C1080 1.391 . S
C1082 H1072 0.950 . S
C1082 C1083 1.386 . S
C1082 C1084 1.391 . S
C1083 C1082 1.386 . S
C1083 C1087 1.393 . S
C1084 H1073 0.950 1_556 S
C1084 C1082 1.391 . S
C1084 C1085 1.400 . S
C1085 C1079 1.491 1_556 S
C1085 C1084 1.400 . S
C1085 C1086 1.398 . S
C1086 H1074 0.950 . S
C1086 C1085 1.398 . S
C1086 C1087 1.391 . S
C1087 H1075 0.950 . S
C1087 C1083 1.393 . S
C1087 C1086 1.391 . S
H1088 C1096 0.950 . S
H1089 C1101 0.950 . S
H1090 C1098 0.950 . S
H1091 C1100 0.950 . S
H1092 C1102 0.950 . S
H1093 C1104 0.950 . S
H1094 C1106 0.950 . S
H1095 C1107 0.950 . S
C1096 H1088 0.950 . S
C1096 C1097 1.386 . S
C1096 C1098 1.391 . S
C1097 C1096 1.386 . S
C1097 C1101 1.393 . S
C1098 H1090 0.950 . S
C1098 C1096 1.391 . S
C1098 C1099 1.400 . S
C1099 C1098 1.400 . S
C1099 C1100 1.398 . S
C1099 C1105 1.491 . S
C1100 H1091 0.950 . S
C1100 C1099 1.398 . S
C1100 C1101 1.391 . S
C1101 H1089 0.950 . S
C1101 C1097 1.393 . S
C1101 C1100 1.391 . S
C1102 H1092 0.950 . S
C1102 C1103 1.386 . S
C1102 C1104 1.391 . S
C1103 C1102 1.386 . S
C1103 C1107 1.393 . S
C1104 H1093 0.950 . S
C1104 C1102 1.391 . S
C1104 C1105 1.400 . S
C1105 C1099 1.491 . S
C1105 C1104 1.400 . S
C1105 C1106 1.398 . S
C1106 H1094 0.950 . S
C1106 C1105 1.398 . S
C1106 C1107 1.391 . S
C1107 H1095 0.950 . S
C1107 C1103 1.393 . S
C1107 C1106 1.391 . S
H1108 C1116 0.950 . S
H1109 C1121 0.950 . S
H1110 C1118 0.950 . S
H1111 C1120 0.950 . S
H1112 C1122 0.950 . S
H1113 C1124 0.950 . S
H1114 C1126 0.950 . S
H1115 C1127 0.950 . S
C1116 H1108 0.950 . S
C1116 C1117 1.386 . S
C1116 C1118 1.391 . S
C1117 C1116 1.386 . S
C1117 C1121 1.393 . S
C1118 H1110 0.950 . S
C1118 C1116 1.391 . S
C1118 C1119 1.400 . S
C1119 C1118 1.400 . S
C1119 C1120 1.398 . S
C1119 C1125 1.491 . S
C1120 H1111 0.950 . S
C1120 C1119 1.398 . S
C1120 C1121 1.391 . S
C1121 H1109 0.950 . S
C1121 C1117 1.393 . S
C1121 C1120 1.391 . S
C1122 H1112 0.950 . S
C1122 C1123 1.386 . S
C1122 C1124 1.391 . S
C1123 C1122 1.386 . S
C1123 C1127 1.393 . S
C1124 H1113 0.950 . S
C1124 C1122 1.391 . S
C1124 C1125 1.400 . S
C1125 C1119 1.491 . S
C1125 C1124 1.400 . S
C1125 C1126 1.398 . S
C1126 H1114 0.950 . S
C1126 C1125 1.398 . S
C1126 C1127 1.391 . S
C1127 H1115 0.950 . S
C1127 C1123 1.393 . S
C1127 C1126 1.391 . S
H1128 C1136 0.950 . S
H1129 C1141 0.950 . S
H1130 C1138 0.950 . S
H1131 C1140 0.950 . S
H1132 C1142 0.950 . S
H1133 C1144 0.950 . S
H1134 C1146 0.950 . S
H1135 C1147 0.950 . S
C1136 H1128 0.950 . S
C1136 C1137 1.386 1_554 S
C1136 C1138 1.391 . S
C1137 C1136 1.386 1_556 S
C1137 C1141 1.393 . S
C1138 H1130 0.950 . S
C1138 C1136 1.391 . S
C1138 C1139 1.400 . S
C1139 C1138 1.400 . S
C1139 C1140 1.398 1_554 S
C1139 C1145 1.491 . S
C1140 H1131 0.950 . S
C1140 C1139 1.398 1_556 S
C1140 C1141 1.391 . S
C1141 H1129 0.950 . S
C1141 C1137 1.393 . S
C1141 C1140 1.391 . S
C1142 H1132 0.950 . S
C1142 C1143 1.386 . S
C1142 C1144 1.391 . S
C1143 C1142 1.386 . S
C1143 C1147 1.393 . S
C1144 H1133 0.950 . S
C1144 C1142 1.391 . S
C1144 C1145 1.400 . S
C1145 C1139 1.491 . S
C1145 C1144 1.400 . S
C1145 C1146 1.398 . S
C1146 H1134 0.950 . S
C1146 C1145 1.398 . S
C1146 C1147 1.391 . S
C1147 H1135 0.950 . S
C1147 C1143 1.393 . S
C1147 C1146 1.391 . S
H1148 C1156 0.950 . S
H1149 C1161 0.950 . S
H1150 C1158 0.950 . S
H1151 C1160 0.950 . S
H1152 C1162 0.950 . S
H1153 C1164 0.950 . S
H1154 C1166 0.950 . S
H1155 C1167 0.950 . S
C1156 H1148 0.950 . S
C1156 C1157 1.386 . S
C1156 C1158 1.391 . S
C1157 C1156 1.386 . S
C1157 C1161 1.393 . S
C1158 H1150 0.950 . S
C1158 C1156 1.391 . S
C1158 C1159 1.400 . S
C1159 C1158 1.400 . S
C1159 C1160 1.398 . S
C1159 C1165 1.491 . S
C1160 H1151 0.950 . S
C1160 C1159 1.398 . S
C1160 C1161 1.391 . S
C1161 H1149 0.950 . S
C1161 C1157 1.393 . S
C1161 C1160 1.391 . S
C1162 H1152 0.950 . S
C1162 C1163 1.386 . S
C1162 C1164 1.391 . S
C1163 C1162 1.386 . S
C1163 C1167 1.393 . S
C1164 H1153 0.950 . S
C1164 C1162 1.391 . S
C1164 C1165 1.400 . S
C1165 C1159 1.491 . S
C1165 C1164 1.400 . S
C1165 C1166 1.398 . S
C1166 H1154 0.950 . S
C1166 C1165 1.398 . S
C1166 C1167 1.391 . S
C1167 H1155 0.950 . S
C1167 C1163 1.393 . S
C1167 C1166 1.391 . S
H1168 C1176 0.950 . S
H1169 C1181 0.950 . S
H1170 C1178 0.950 1_565 S
H1171 C1180 0.950 . S
H1172 C1182 0.950 . S
H1173 C1184 0.950 . S
H1174 C1186 0.950 . S
H1175 C1187 0.950 . S
C1176 H1168 0.950 . S
C1176 C1177 1.386 . S
C1176 C1178 1.391 . S
C1177 C1176 1.386 . S
C1177 C1181 1.393 1_556 S
C1178 H1170 0.950 1_545 S
C1178 C1176 1.391 . S
C1178 C1179 1.400 1_556 S
C1179 C1178 1.400 1_554 S
C1179 C1180 1.398 . S
C1179 C1185 1.491 1_545 S
C1180 H1171 0.950 . S
C1180 C1179 1.398 . S
C1180 C1181 1.391 . S
C1181 H1169 0.950 . S
C1181 C1177 1.393 1_554 S
C1181 C1180 1.391 . S
C1182 H1172 0.950 . S
C1182 C1183 1.386 . S
C1182 C1184 1.391 . S
C1183 C1182 1.386 . S
C1183 C1187 1.393 . S
C1184 H1173 0.950 . S
C1184 C1182 1.391 . S
C1184 C1185 1.400 . S
C1185 C1179 1.491 1_565 S
C1185 C1184 1.400 . S
C1185 C1186 1.398 . S
C1186 H1174 0.950 . S
C1186 C1185 1.398 . S
C1186 C1187 1.391 . S
C1187 H1175 0.950 . S
C1187 C1183 1.393 . S
C1187 C1186 1.391 . S
H1188 C1196 0.950 . S
H1189 C1201 0.950 . S
H1190 C1198 0.950 . S
H1191 C1200 0.950 . S
H1192 C1202 0.950 . S
H1193 C1204 0.950 . S
H1194 C1206 0.950 . S
H1195 C1207 0.950 . S
C1196 H1188 0.950 . S
C1196 C1197 1.386 . S
C1196 C1198 1.391 . S
C1197 C1196 1.386 . S
C1197 C1201 1.393 . S
C1198 H1190 0.950 . S
C1198 C1196 1.391 . S
C1198 C1199 1.400 . S
C1199 C1198 1.400 . S
C1199 C1200 1.398 . S
C1199 C1205 1.491 . S
C1200 H1191 0.950 . S
C1200 C1199 1.398 . S
C1200 C1201 1.391 . S
C1201 H1189 0.950 . S
C1201 C1197 1.393 . S
C1201 C1200 1.391 . S
C1202 H1192 0.950 . S
C1202 C1203 1.386 . S
C1202 C1204 1.391 . S
C1203 C1202 1.386 . S
C1203 C1207 1.393 . S
C1204 H1193 0.950 . S
C1204 C1202 1.391 . S
C1204 C1205 1.400 . S
C1205 C1199 1.491 . S
C1205 C1204 1.400 . S
C1205 C1206 1.398 . S
C1206 H1194 0.950 . S
C1206 C1205 1.398 . S
C1206 C1207 1.391 . S
C1207 H1195 0.950 . S
C1207 C1203 1.393 . S
C1207 C1206 1.391 . S
H1208 C1216 0.950 . S
H1209 C1221 0.950 . S
H1210 C1218 0.950 . S
H1211 C1220 0.950 . S
H1212 C1222 0.950 . S
H1213 C1224 0.950 . S
H1214 C1226 0.950 . S
H1215 C1227 0.950 . S
C1216 H1208 0.950 . S
C1216 C1217 1.386 . S
C1216 C1218 1.391 . S
C1217 C1216 1.386 . S
C1217 C1221 1.393 . S
C1218 H1210 0.950 . S
C1218 C1216 1.391 . S
C1218 C1219 1.400 . S
C1219 C1218 1.400 . S
C1219 C1220 1.398 . S
C1219 C1225 1.491 . S
C1220 H1211 0.950 . S
C1220 C1219 1.398 . S
C1220 C1221 1.391 . S
C1221 H1209 0.950 . S
C1221 C1217 1.393 . S
C1221 C1220 1.391 . S
C1222 H1212 0.950 . S
C1222 C1223 1.386 . S
C1222 C1224 1.391 . S
C1223 C1222 1.386 . S
C1223 C1227 1.393 . S
C1224 H1213 0.950 . S
C1224 C1222 1.391 . S
C1224 C1225 1.400 . S
C1225 C1219 1.491 . S
C1225 C1224 1.400 . S
C1225 C1226 1.398 . S
C1226 H1214 0.950 . S
C1226 C1225 1.398 . S
C1226 C1227 1.391 . S
C1227 H1215 0.950 . S
C1227 C1223 1.393 . S
C1227 C1226 1.391 . S
H1228 C1236 0.950 . S
H1229 C1241 0.950 . S
H1230 C1238 0.950 1_556 S
H1231 C1240 0.950 . S
H1232 C1242 0.950 . S
H1233 C1244 0.950 . S
H1234 C1246 0.950 . S
H1235 C1247 0.950 . S
C1236 H1228 0.950 . S
C1236 C1237 1.386 . S
C1236 C1238 1.391 . S
C1237 C1236 1.386 . S
C1237 C1241 1.393 . S
C1238 H1230 0.950 1_554 S
C1238 C1236 1.391 . S
C1238 C1239 1.400 1_554 S
C1239 C1238 1.400 1_556 S
C1239 C1240 1.398 1_556 S
C1239 C1245 1.491 . S
C1240 H1231 0.950 . S
C1240 C1239 1.398 1_554 S
C1240 C1241 1.391 . S
C1241 H1229 0.950 . S
C1241 C1237 1.393 . S
C1241 C1240 1.391 . S
C1242 H1232 0.950 . S
C1242 C1243 1.386 . S
C1242 C1244 1.391 . S
C1243 C1242 1.386 . S
C1243 C1247 1.393 . S
C1244 H1233 0.950 . S
C1244 C1242 1.391 . S
C1244 C1245 1.400 . S
C1245 C1239 1.491 . S
C1245 C1244 1.400 . S
C1245 C1246 1.398 . S
C1246 H1234 0.950 . S
C1246 C1245 1.398 . S
C1246 C1247 1.391 . S
C1247 H1235 0.950 . S
C1247 C1243 1.393 . S
C1247 C1246 1.391 . S
H1248 C1256 0.950 . S
H1249 C1261 0.950 . S
H1250 C1258 0.950 . S
H1251 C1260 0.950 . S
H1252 C1262 0.950 . S
H1253 C1264 0.950 . S
H1254 C1266 0.950 . S
H1255 C1267 0.950 . S
C1256 H1248 0.950 . S
C1256 C1257 1.386 . S
C1256 C1258 1.391 . S
C1257 C1256 1.386 . S
C1257 C1261 1.393 . S
C1258 H1250 0.950 . S
C1258 C1256 1.391 . S
C1258 C1259 1.400 . S
C1259 C1258 1.400 . S
C1259 C1260 1.398 . S
C1259 C1265 1.491 . S
C1260 H1251 0.950 . S
C1260 C1259 1.398 . S
C1260 C1261 1.391 . S
C1261 H1249 0.950 . S
C1261 C1257 1.393 . S
C1261 C1260 1.391 . S
C1262 H1252 0.950 . S
C1262 C1263 1.386 . S
C1262 C1264 1.391 . S
C1263 C1262 1.386 . S
C1263 C1267 1.393 . S
C1264 H1253 0.950 . S
C1264 C1262 1.391 . S
C1264 C1265 1.400 . S
C1265 C1259 1.491 . S
C1265 C1264 1.400 . S
C1265 C1266 1.398 . S
C1266 H1254 0.950 . S
C1266 C1265 1.398 . S
C1266 C1267 1.391 . S
C1267 H1255 0.950 . S
C1267 C1263 1.393 . S
C1267 C1266 1.391 . S
H1268 C1276 0.950 . S
H1269 C1281 0.950 . S
H1270 C1278 0.950 . S
H1271 C1280 0.950 . S
H1272 C1282 0.950 . S
H1273 C1284 0.950 . S
H1274 C1286 0.950 . S
H1275 C1287 0.950 . S
C1276 H1268 0.950 . S
C1276 C1277 1.386 . S
C1276 C1278 1.391 . S
C1277 C1276 1.386 . S
C1277 C1281 1.393 . S
C1278 H1270 0.950 . S
C1278 C1276 1.391 . S
C1278 C1279 1.400 . S
C1279 C1278 1.400 . S
C1279 C1280 1.398 . S
C1279 C1285 1.491 . S
C1280 H1271 0.950 . S
C1280 C1279 1.398 . S
C1280 C1281 1.391 . S
C1281 H1269 0.950 . S
C1281 C1277 1.393 . S
C1281 C1280 1.391 . S
C1282 H1272 0.950 . S
C1282 C1283 1.386 . S
C1282 C1284 1.391 . S
C1283 C1282 1.386 . S
C1283 C1287 1.393 . S
C1284 H1273 0.950 . S
C1284 C1282 1.391 . S
C1284 C1285 1.400 . S
C1285 C1279 1.491 . S
C1285 C1284 1.400 . S
C1285 C1286 1.398 . S
C1286 H1274 0.950 . S
C1286 C1285 1.398 . S
C1286 C1287 1.391 . S
C1287 H1275 0.950 . S
C1287 C1283 1.393 . S
C1287 C1286 1.391 . S
H1288 C1296 0.950 . S
H1289 C1301 0.950 . S
H1290 C1298 0.950 . S
H1291 C1300 0.950 . S
H1292 C1302 0.950 . S
H1293 C1304 0.950 . S
H1294 C1306 0.950 . S
H1295 C1307 0.950 . S
C1296 H1288 0.950 . S
C1296 C1297 1.386 . S
C1296 C1298 1.391 . S
C1297 C1296 1.386 . S
C1297 C1301 1.393 . S
C1298 H1290 0.950 . S
C1298 C1296 1.391 . S
C1298 C1299 1.400 . S
C1299 C1298 1.400 . S
C1299 C1300 1.398 . S
C1299 C1305 1.491 . S
C1300 H1291 0.950 . S
C1300 C1299 1.398 . S
C1300 C1301 1.391 . S
C1301 H1289 0.950 . S
C1301 C1297 1.393 . S
C1301 C1300 1.391 . S
C1302 H1292 0.950 . S
C1302 C1303 1.386 . S
C1302 C1304 1.391 . S
C1303 C1302 1.386 . S
C1303 C1307 1.393 . S
C1304 H1293 0.950 . S
C1304 C1302 1.391 . S
C1304 C1305 1.400 . S
C1305 C1299 1.491 . S
C1305 C1304 1.400 . S
C1305 C1306 1.398 . S
C1306 H1294 0.950 . S
C1306 C1305 1.398 . S
C1306 C1307 1.391 . S
C1307 H1295 0.950 . S
C1307 C1303 1.393 . S
C1307 C1306 1.391 . S
H1308 C1316 0.950 . S
H1309 C1321 0.950 . S
H1310 C1318 0.950 . S
H1311 C1320 0.950 . S
H1312 C1322 0.951 . S
H1313 C1324 0.950 . S
H1314 C1326 0.950 . S
H1315 C1327 0.950 . S
C1316 H1308 0.950 . S
C1316 C1317 1.386 . S
C1316 C1318 1.391 . S
C1317 C1316 1.386 . S
C1317 C1321 1.393 . S
C1318 H1310 0.950 . S
C1318 C1316 1.391 . S
C1318 C1319 1.400 . S
C1319 C1318 1.400 . S
C1319 C1320 1.398 . S
C1319 C1325 1.491 . S
C1320 H1311 0.950 . S
C1320 C1319 1.398 . S
C1320 C1321 1.391 . S
C1321 H1309 0.950 . S
C1321 C1317 1.393 . S
C1321 C1320 1.391 . S
C1322 H1312 0.951 . S
C1322 C1323 1.381 1_455 S
C1322 C1324 1.395 . S
C1323 C1322 1.381 1_655 S
C1323 C1327 1.393 . S
C1324 H1313 0.950 . S
C1324 C1322 1.395 . S
C1324 C1325 1.400 . S
C1325 C1319 1.491 . S
C1325 C1324 1.400 . S
C1325 C1326 1.398 1_455 S
C1326 H1314 0.950 . S
C1326 C1325 1.398 1_655 S
C1326 C1327 1.391 . S
C1327 H1315 0.950 . S
C1327 C1323 1.393 . S
C1327 C1326 1.391 . S
H1328 C1336 0.950 . S
H1329 C1341 0.950 . S
H1330 C1338 0.950 . S
H1331 C1340 0.950 . S
H1332 C1342 0.950 . S
H1333 C1344 0.950 . S
H1334 C1346 0.950 . S
H1335 C1347 0.950 . S
C1336 H1328 0.950 . S
C1336 C1337 1.386 . S
C1336 C1338 1.391 . S
C1337 C1336 1.386 . S
C1337 C1341 1.393 . S
C1338 H1330 0.950 . S
C1338 C1336 1.391 . S
C1338 C1339 1.400 . S
C1339 C1338 1.400 . S
C1339 C1340 1.398 . S
C1339 C1345 1.491 . S
C1340 H1331 0.950 . S
C1340 C1339 1.398 . S
C1340 C1341 1.391 . S
C1341 H1329 0.950 . S
C1341 C1337 1.393 . S
C1341 C1340 1.391 . S
C1342 H1332 0.950 . S
C1342 C1343 1.386 . S
C1342 C1344 1.391 . S
C1343 C1342 1.386 . S
C1343 C1347 1.393 . S
C1344 H1333 0.950 . S
C1344 C1342 1.391 . S
C1344 C1345 1.400 . S
C1345 C1339 1.491 . S
C1345 C1344 1.400 . S
C1345 C1346 1.398 . S
C1346 H1334 0.950 . S
C1346 C1345 1.398 . S
C1346 C1347 1.391 . S
C1347 H1335 0.950 . S
C1347 C1343 1.393 . S
C1347 C1346 1.391 . S
H1348 C1356 0.950 . S
H1349 C1361 0.950 . S
H1350 C1358 0.950 . S
H1351 C1360 0.950 . S
H1352 C1362 0.950 . S
H1353 C1364 0.950 . S
H1354 C1366 0.950 . S
H1355 C1367 0.950 . S
C1356 H1348 0.950 . S
C1356 C1357 1.386 1_455 S
C1356 C1358 1.391 . S
C1357 C1356 1.386 1_655 S
C1357 C1361 1.393 . S
C1358 H1350 0.950 . S
C1358 C1356 1.391 . S
C1358 C1359 1.400 . S
C1359 C1358 1.400 . S
C1359 C1360 1.398 1_455 S
C1359 C1365 1.491 . S
C1360 H1351 0.950 . S
C1360 C1359 1.398 1_655 S
C1360 C1361 1.391 . S
C1361 H1349 0.950 . S
C1361 C1357 1.393 . S
C1361 C1360 1.391 . S
C1362 H1352 0.950 . S
C1362 C1363 1.386 . S
C1362 C1364 1.391 . S
C1363 C1362 1.386 . S
C1363 C1367 1.393 . S
C1364 H1353 0.950 . S
C1364 C1362 1.391 . S
C1364 C1365 1.400 . S
C1365 C1359 1.491 . S
C1365 C1364 1.400 . S
C1365 C1366 1.398 . S
C1366 H1354 0.950 . S
C1366 C1365 1.398 . S
C1366 C1367 1.391 . S
C1367 H1355 0.950 . S
C1367 C1363 1.393 . S
C1367 C1366 1.391 . S
H1368 C1376 0.950 . S
H1369 C1381 0.950 . S
H1370 C1378 0.950 . S
H1371 C1380 0.950 . S
H1372 C1382 0.950 . S
H1373 C1384 0.950 . S
H1374 C1386 0.950 . S
H1375 C1387 0.950 . S
C1376 H1368 0.950 . S
C1376 C1377 1.386 . S
C1376 C1378 1.391 . S
C1377 C1376 1.386 . S
C1377 C1381 1.393 . S
C1378 H1370 0.950 . S
C1378 C1376 1.391 . S
C1378 C1379 1.400 . S
C1379 C1378 1.400 . S
C1379 C1380 1.398 . S
C1379 C1385 1.491 . S
C1380 H1371 0.950 . S
C1380 C1379 1.398 . S
C1380 C1381 1.391 . S
C1381 H1369 0.950 . S
C1381 C1377 1.393 . S
C1381 C1380 1.391 . S
C1382 H1372 0.950 . S
C1382 C1383 1.386 . S
C1382 C1384 1.391 . S
C1383 C1382 1.386 . S
C1383 C1387 1.393 . S
C1384 H1373 0.950 . S
C1384 C1382 1.391 . S
C1384 C1385 1.400 . S
C1385 C1379 1.491 . S
C1385 C1384 1.400 . S
C1385 C1386 1.398 . S
C1386 H1374 0.950 . S
C1386 C1385 1.398 . S
C1386 C1387 1.391 . S
C1387 H1375 0.950 . S
C1387 C1383 1.393 . S
C1387 C1386 1.391 . S
H1388 C1396 0.950 . S
H1389 C1401 0.950 . S
H1390 C1398 0.950 . S
H1391 C1400 0.950 . S
H1392 C1402 0.950 . S
H1393 C1404 0.950 . S
H1394 C1406 0.950 . S
H1395 C1407 0.950 . S
C1396 H1388 0.950 . S
C1396 C1397 1.386 . S
C1396 C1398 1.391 . S
C1397 C1396 1.386 . S
C1397 C1401 1.393 . S
C1398 H1390 0.950 . S
C1398 C1396 1.391 . S
C1398 C1399 1.400 . S
C1399 C1398 1.400 . S
C1399 C1400 1.398 . S
C1399 C1405 1.491 . S
C1400 H1391 0.950 . S
C1400 C1399 1.398 . S
C1400 C1401 1.391 . S
C1401 H1389 0.950 . S
C1401 C1397 1.393 . S
C1401 C1400 1.391 . S
C1402 H1392 0.950 . S
C1402 C1403 1.386 . S
C1402 C1404 1.391 . S
C1403 C1402 1.386 . S
C1403 C1407 1.393 . S
C1404 H1393 0.950 . S
C1404 C1402 1.391 . S
C1404 C1405 1.400 . S
C1405 C1399 1.491 . S
C1405 C1404 1.400 . S
C1405 C1406 1.398 . S
C1406 H1394 0.950 . S
C1406 C1405 1.398 . S
C1406 C1407 1.391 . S
C1407 H1395 0.950 . S
C1407 C1403 1.393 . S
C1407 C1406 1.391 . S
H1408 C1416 0.950 . S
H1409 C1421 0.950 . S
H1410 C1418 0.950 . S
H1411 C1420 0.950 . S
H1412 C1422 0.950 . S
H1413 C1424 0.950 . S
H1414 C1426 0.950 . S
H1415 C1427 0.950 . S
C1416 H1408 0.950 . S
C1416 C1417 1.386 . S
C1416 C1418 1.391 . S
C1417 C1416 1.386 . S
C1417 C1421 1.393 . S
C1418 H1410 0.950 . S
C1418 C1416 1.391 . S
C1418 C1419 1.400 . S
C1419 C1418 1.400 . S
C1419 C1420 1.398 . S
C1419 C1425 1.491 . S
C1420 H1411 0.950 . S
C1420 C1419 1.398 . S
C1420 C1421 1.391 . S
C1421 H1409 0.950 . S
C1421 C1417 1.393 . S
C1421 C1420 1.391 . S
C1422 H1412 0.950 . S
C1422 C1423 1.386 . S
C1422 C1424 1.391 . S
C1423 C1422 1.386 . S
C1423 C1427 1.393 . S
C1424 H1413 0.950 . S
C1424 C1422 1.391 . S
C1424 C1425 1.400 . S
C1425 C1419 1.491 . S
C1425 C1424 1.400 . S
C1425 C1426 1.398 . S
C1426 H1414 0.950 . S
C1426 C1425 1.398 . S
C1426 C1427 1.391 . S
C1427 H1415 0.950 . S
C1427 C1423 1.393 . S
C1427 C1426 1.391 . S
H1428 C1436 0.950 . S
H1429 C1441 0.950 . S
H1430 C1438 0.950 . S
H1431 C1440 0.950 . S
H1432 C1442 0.950 . S
H1433 C1444 0.950 . S
H1434 C1446 0.950 . S
H1435 C1447 0.950 . S
C1436 H1428 0.950 . S
C1436 C1437 1.386 . S
C1436 C1438 1.391 . S
C1437 C1436 1.386 . S
C1437 C1441 1.393 . S
C1438 H1430 0.950 . S
C1438 C1436 1.391 . S
C1438 C1439 1.400 . S
C1439 C1438 1.400 . S
C1439 C1440 1.398 . S
C1439 C1445 1.491 . S
C1440 H1431 0.950 . S
C1440 C1439 1.398 . S
C1440 C1441 1.391 . S
C1441 H1429 0.950 . S
C1441 C1437 1.393 . S
C1441 C1440 1.391 . S
C1442 H1432 0.950 . S
C1442 C1443 1.386 . S
C1442 C1444 1.391 . S
C1443 C1442 1.386 . S
C1443 C1447 1.393 . S
C1444 H1433 0.950 . S
C1444 C1442 1.391 . S
C1444 C1445 1.400 1_556 S
C1445 C1439 1.491 . S
C1445 C1444 1.400 1_554 S
C1445 C1446 1.398 . S
C1446 H1434 0.950 . S
C1446 C1445 1.398 . S
C1446 C1447 1.391 1_554 S
C1447 H1435 0.950 . S
C1447 C1443 1.393 . S
C1447 C1446 1.391 1_556 S
H1448 C1456 0.950 . S
H1449 C1461 0.950 . S
H1450 C1458 0.950 . S
H1451 C1460 0.950 . S
H1452 C1462 0.950 . S
H1453 C1464 0.950 . S
H1454 C1466 0.950 . S
H1455 C1467 0.950 . S
C1456 H1448 0.950 . S
C1456 C1457 1.386 . S
C1456 C1458 1.391 . S
C1457 C1456 1.386 . S
C1457 C1461 1.393 . S
C1458 H1450 0.950 . S
C1458 C1456 1.391 . S
C1458 C1459 1.400 . S
C1459 C1458 1.400 . S
C1459 C1460 1.398 . S
C1459 C1465 1.491 . S
C1460 H1451 0.950 . S
C1460 C1459 1.398 . S
C1460 C1461 1.391 . S
C1461 H1449 0.950 . S
C1461 C1457 1.393 . S
C1461 C1460 1.391 . S
C1462 H1452 0.950 . S
C1462 C1463 1.386 . S
C1462 C1464 1.391 . S
C1463 C1462 1.386 . S
C1463 C1467 1.393 . S
C1464 H1453 0.950 . S
C1464 C1462 1.391 . S
C1464 C1465 1.400 . S
C1465 C1459 1.491 . S
C1465 C1464 1.400 . S
C1465 C1466 1.398 . S
C1466 H1454 0.950 . S
C1466 C1465 1.398 . S
C1466 C1467 1.391 . S
C1467 H1455 0.950 . S
C1467 C1463 1.393 . S
C1467 C1466 1.391 . S
H1468 C1476 0.950 . S
H1469 C1481 0.950 . S
H1470 C1478 0.950 . S
H1471 C1480 0.950 . S
H1472 C1482 0.950 . S
H1473 C1484 0.950 . S
H1474 C1486 0.950 . S
H1475 C1487 0.950 . S
C1476 H1468 0.950 . S
C1476 C1477 1.386 . S
C1476 C1478 1.391 1_455 S
C1477 C1476 1.386 . S
C1477 C1481 1.393 . S
C1478 H1470 0.950 . S
C1478 C1476 1.391 1_655 S
C1478 C1479 1.400 . S
C1479 C1478 1.400 . S
C1479 C1480 1.398 1_655 S
C1479 C1485 1.491 . S
C1480 H1471 0.950 . S
C1480 C1479 1.398 1_455 S
C1480 C1481 1.391 . S
C1481 H1469 0.950 . S
C1481 C1477 1.393 . S
C1481 C1480 1.391 . S
C1482 H1472 0.950 . S
C1482 C1483 1.386 . S
C1482 C1484 1.391 . S
C1483 C1482 1.386 . S
C1483 C1487 1.393 . S
C1484 H1473 0.950 . S
C1484 C1482 1.391 . S
C1484 C1485 1.400 . S
C1485 C1479 1.491 . S
C1485 C1484 1.400 . S
C1485 C1486 1.398 . S
C1486 H1474 0.950 . S
C1486 C1485 1.398 . S
C1486 C1487 1.391 . S
C1487 H1475 0.950 . S
C1487 C1483 1.393 . S
C1487 C1486 1.391 . S
H1488 C1496 0.950 . S
H1489 C1501 0.950 . S
H1490 C1498 0.950 . S
H1491 C1500 0.950 . S
H1492 C1502 0.950 . S
H1493 C1504 0.950 . S
H1494 C1506 0.950 . S
H1495 C1507 0.950 . S
C1496 H1488 0.950 . S
C1496 C1497 1.386 . S
C1496 C1498 1.391 . S
C1497 C1496 1.386 . S
C1497 C1501 1.393 . S
C1498 H1490 0.950 . S
C1498 C1496 1.391 . S
C1498 C1499 1.400 . S
C1499 C1498 1.400 . S
C1499 C1500 1.398 . S
C1499 C1505 1.491 . S
C1500 H1491 0.950 . S
C1500 C1499 1.398 . S
C1500 C1501 1.391 . S
C1501 H1489 0.950 . S
C1501 C1497 1.393 . S
C1501 C1500 1.391 . S
C1502 H1492 0.950 . S
C1502 C1503 1.386 . S
C1502 C1504 1.391 . S
C1503 C1502 1.386 . S
C1503 C1507 1.393 . S
C1504 H1493 0.950 . S
C1504 C1502 1.391 . S
C1504 C1505 1.400 . S
C1505 C1499 1.491 . S
C1505 C1504 1.400 . S
C1505 C1506 1.398 . S
C1506 H1494 0.950 . S
C1506 C1505 1.398 . S
C1506 C1507 1.391 . S
C1507 H1495 0.950 . S
C1507 C1503 1.393 . S
C1507 C1506 1.391 . S
H1508 C1516 0.950 . S
H1509 C1521 0.950 . S
H1510 C1518 0.950 . S
H1511 C1520 0.950 . S
H1512 C1522 0.950 . S
H1513 C1524 0.950 . S
H1514 C1526 0.950 . S
H1515 C1527 0.950 . S
C1516 H1508 0.950 . S
C1516 C1517 1.386 . S
C1516 C1518 1.391 . S
C1517 C1516 1.386 . S
C1517 C1521 1.393 . S
C1518 H1510 0.950 . S
C1518 C1516 1.391 . S
C1518 C1519 1.400 . S
C1519 C1518 1.400 . S
C1519 C1520 1.398 . S
C1519 C1525 1.491 . S
C1520 H1511 0.950 . S
C1520 C1519 1.398 . S
C1520 C1521 1.391 . S
C1521 H1509 0.950 . S
C1521 C1517 1.393 . S
C1521 C1520 1.391 . S
C1522 H1512 0.950 . S
C1522 C1523 1.386 . S
C1522 C1524 1.391 1_455 S
C1523 C1522 1.386 . S
C1523 C1527 1.393 1_554 S
C1524 H1513 0.950 . S
C1524 C1522 1.391 1_655 S
C1524 C1525 1.400 1_554 S
C1525 C1519 1.491 . S
C1525 C1524 1.400 1_556 S
C1525 C1526 1.398 1_655 S
C1526 H1514 0.950 . S
C1526 C1525 1.398 1_455 S
C1526 C1527 1.391 . S
C1527 H1515 0.950 . S
C1527 C1523 1.393 1_556 S
C1527 C1526 1.391 . S
H1528 C1536 0.950 . S
H1529 C1541 0.950 . S
H1530 C1538 0.950 . S
H1531 C1540 0.950 . S
H1532 C1542 0.950 . S
H1533 C1544 0.950 . S
H1534 C1546 0.950 . S
H1535 C1547 0.950 . S
C1536 H1528 0.950 . S
C1536 C1537 1.386 . S
C1536 C1538 1.391 . S
C1537 C1536 1.386 . S
C1537 C1541 1.393 . S
C1538 H1530 0.950 . S
C1538 C1536 1.391 . S
C1538 C1539 1.400 . S
C1539 C1538 1.400 . S
C1539 C1540 1.398 . S
C1539 C1545 1.491 . S
C1540 H1531 0.950 . S
C1540 C1539 1.398 . S
C1540 C1541 1.391 . S
C1541 H1529 0.950 . S
C1541 C1537 1.393 . S
C1541 C1540 1.391 . S
C1542 H1532 0.950 . S
C1542 C1543 1.386 . S
C1542 C1544 1.391 . S
C1543 C1542 1.386 . S
C1543 C1547 1.393 . S
C1544 H1533 0.950 . S
C1544 C1542 1.391 . S
C1544 C1545 1.400 . S
C1545 C1539 1.491 . S
C1545 C1544 1.400 . S
C1545 C1546 1.398 . S
C1546 H1534 0.950 . S
C1546 C1545 1.398 . S
C1546 C1547 1.391 . S
C1547 H1535 0.950 . S
C1547 C1543 1.393 . S
C1547 C1546 1.391 . S
H1548 C1556 0.950 . S
H1549 C1561 0.950 . S
H1550 C1558 0.950 . S
H1551 C1560 0.950 . S
H1552 C1562 0.950 . S
H1553 C1564 0.950 . S
H1554 C1566 0.950 . S
H1555 C1567 0.950 . S
C1556 H1548 0.950 . S
C1556 C1557 1.386 . S
C1556 C1558 1.391 . S
C1557 C1556 1.386 . S
C1557 C1561 1.393 . S
C1558 H1550 0.950 . S
C1558 C1556 1.391 . S
C1558 C1559 1.400 . S
C1559 C1558 1.400 . S
C1559 C1560 1.398 . S
C1559 C1565 1.491 . S
C1560 H1551 0.950 . S
C1560 C1559 1.398 . S
C1560 C1561 1.391 . S
C1561 H1549 0.950 . S
C1561 C1557 1.393 . S
C1561 C1560 1.391 . S
C1562 H1552 0.950 . S
C1562 C1563 1.386 . S
C1562 C1564 1.391 . S
C1563 C1562 1.386 . S
C1563 C1567 1.393 . S
C1564 H1553 0.950 . S
C1564 C1562 1.391 . S
C1564 C1565 1.400 . S
C1565 C1559 1.491 . S
C1565 C1564 1.400 . S
C1565 C1566 1.398 . S
C1566 H1554 0.950 . S
C1566 C1565 1.398 . S
C1566 C1567 1.391 . S
C1567 H1555 0.950 . S
C1567 C1563 1.393 . S
C1567 C1566 1.391 . S
H1568 C1576 0.950 . S
H1569 C1581 0.950 . S
H1570 C1578 0.950 . S
H1571 C1580 0.950 . S
H1572 C1582 0.950 . S
H1573 C1584 0.950 . S
H1574 C1586 0.950 . S
H1575 C1587 0.950 . S
C1576 H1568 0.950 . S
C1576 C1577 1.386 . S
C1576 C1578 1.391 . S
C1577 C1576 1.386 . S
C1577 C1581 1.393 . S
C1578 H1570 0.950 . S
C1578 C1576 1.391 . S
C1578 C1579 1.400 . S
C1579 C1578 1.400 . S
C1579 C1580 1.398 . S
C1579 C1585 1.491 . S
C1580 H1571 0.950 . S
C1580 C1579 1.398 . S
C1580 C1581 1.391 . S
C1581 H1569 0.950 . S
C1581 C1577 1.393 . S
C1581 C1580 1.391 . S
C1582 H1572 0.950 . S
C1582 C1583 1.386 . S
C1582 C1584 1.391 . S
C1583 C1582 1.386 . S
C1583 C1587 1.393 . S
C1584 H1573 0.950 . S
C1584 C1582 1.391 . S
C1584 C1585 1.400 . S
C1585 C1579 1.491 . S
C1585 C1584 1.400 . S
C1585 C1586 1.398 . S
C1586 H1574 0.950 . S
C1586 C1585 1.398 . S
C1586 C1587 1.391 . S
C1587 H1575 0.950 . S
C1587 C1583 1.393 . S
C1587 C1586 1.391 . S
H1588 C1596 0.950 . S
H1589 C1601 0.950 . S
H1590 C1598 0.950 . S
H1591 C1600 0.950 . S
H1592 C1602 0.950 . S
H1593 C1604 0.950 . S
H1594 C1606 0.950 . S
H1595 C1607 0.950 . S
C1596 H1588 0.950 . S
C1596 C1597 1.386 . S
C1596 C1598 1.391 . S
C1597 C1596 1.386 . S
C1597 C1601 1.393 . S
C1598 H1590 0.950 . S
C1598 C1596 1.391 . S
C1598 C1599 1.400 . S
C1599 C1598 1.400 . S
C1599 C1600 1.398 . S
C1599 C1605 1.491 . S
C1600 H1591 0.950 . S
C1600 C1599 1.398 . S
C1600 C1601 1.391 . S
C1601 H1589 0.950 . S
C1601 C1597 1.393 . S
C1601 C1600 1.391 . S
C1602 H1592 0.950 . S
C1602 C1603 1.386 . S
C1602 C1604 1.391 . S
C1603 C1602 1.386 . S
C1603 C1607 1.393 . S
C1604 H1593 0.950 . S
C1604 C1602 1.391 . S
C1604 C1605 1.400 . S
C1605 C1599 1.491 . S
C1605 C1604 1.400 . S
C1605 C1606 1.398 . S
C1606 H1594 0.950 . S
C1606 C1605 1.398 . S
C1606 C1607 1.391 . S
C1607 H1595 0.950 . S
C1607 C1603 1.393 . S
C1607 C1606 1.391 . S
H1608 C1616 0.950 . S
H1609 C1621 0.950 . S
H1610 C1618 0.950 . S
H1611 C1620 0.950 . S
H1612 C1622 0.950 . S
H1613 C1624 0.950 . S
H1614 C1626 0.950 . S
H1615 C1627 0.950 . S
C1616 H1608 0.950 . S
C1616 C1617 1.386 . S
C1616 C1618 1.391 . S
C1617 C1616 1.386 . S
C1617 C1621 1.393 . S
C1618 H1610 0.950 . S
C1618 C1616 1.391 . S
C1618 C1619 1.400 . S
C1619 C1618 1.400 . S
C1619 C1620 1.398 . S
C1619 C1625 1.491 1_545 S
C1620 H1611 0.950 . S
C1620 C1619 1.398 . S
C1620 C1621 1.391 . S
C1621 H1609 0.950 . S
C1621 C1617 1.393 . S
C1621 C1620 1.391 . S
C1622 H1612 0.950 . S
C1622 C1623 1.386 . S
C1622 C1624 1.391 . S
C1623 C1622 1.386 . S
C1623 C1627 1.393 . S
C1624 H1613 0.950 . S
C1624 C1622 1.391 . S
C1624 C1625 1.400 . S
C1625 C1619 1.491 1_565 S
C1625 C1624 1.400 . S
C1625 C1626 1.398 . S
C1626 H1614 0.950 . S
C1626 C1625 1.398 . S
C1626 C1627 1.391 . S
C1627 H1615 0.950 . S
C1627 C1623 1.393 . S
C1627 C1626 1.391 . S
H1628 C1636 0.950 . S
H1629 C1641 0.950 . S
H1630 C1638 0.950 . S
H1631 C1640 0.950 . S
H1632 C1642 0.950 . S
H1633 C1644 0.950 . S
H1634 C1646 0.950 . S
H1635 C1647 0.950 . S
C1636 H1628 0.950 . S
C1636 C1637 1.386 . S
C1636 C1638 1.391 . S
C1637 C1636 1.386 . S
C1637 C1641 1.393 . S
C1638 H1630 0.950 . S
C1638 C1636 1.391 . S
C1638 C1639 1.400 . S
C1639 C1638 1.400 . S
C1639 C1640 1.398 . S
C1639 C1645 1.491 . S
C1640 H1631 0.950 . S
C1640 C1639 1.398 . S
C1640 C1641 1.391 . S
C1641 H1629 0.950 . S
C1641 C1637 1.393 . S
C1641 C1640 1.391 . S
C1642 H1632 0.950 . S
C1642 C1643 1.386 . S
C1642 C1644 1.391 . S
C1643 C1642 1.386 . S
C1643 C1647 1.393 . S
C1644 H1633 0.950 . S
C1644 C1642 1.391 . S
C1644 C1645 1.400 . S
C1645 C1639 1.491 . S
C1645 C1644 1.400 . S
C1645 C1646 1.398 . S
C1646 H1634 0.950 . S
C1646 C1645 1.398 . S
C1646 C1647 1.391 . S
C1647 H1635 0.950 . S
C1647 C1643 1.393 . S
C1647 C1646 1.391 . S
H1648 C1656 0.950 . S
H1649 C1661 0.950 . S
H1650 C1658 0.950 . S
H1651 C1660 0.950 . S
H1652 C1662 0.950 . S
H1653 C1664 0.950 . S
H1654 C1666 0.950 . S
H1655 C1667 0.950 . S
C1656 H1648 0.950 . S
C1656 C1657 1.386 . S
C1656 C1658 1.391 . S
C1657 C1656 1.386 . S
C1657 C1661 1.393 . S
C1658 H1650 0.950 . S
C1658 C1656 1.391 . S
C1658 C1659 1.400 . S
C1659 C1658 1.400 . S
C1659 C1660 1.398 . S
C1659 C1665 1.491 . S
C1660 H1651 0.950 . S
C1660 C1659 1.398 . S
C1660 C1661 1.391 . S
C1661 H1649 0.950 . S
C1661 C1657 1.393 . S
C1661 C1660 1.391 . S
C1662 H1652 0.950 . S
C1662 C1663 1.386 . S
C1662 C1664 1.391 . S
C1663 C1662 1.386 . S
C1663 C1667 1.393 . S
C1664 H1653 0.950 . S
C1664 C1662 1.391 . S
C1664 C1665 1.400 . S
C1665 C1659 1.491 . S
C1665 C1664 1.400 . S
C1665 C1666 1.398 . S
C1666 H1654 0.950 . S
C1666 C1665 1.398 . S
C1666 C1667 1.391 . S
C1667 H1655 0.950 . S
C1667 C1663 1.393 . S
C1667 C1666 1.391 . S
H1668 C1676 0.950 . S
H1669 C1681 0.950 . S
H1670 C1678 0.950 . S
H1671 C1680 0.950 . S
H1672 C1682 0.950 . S
H1673 C1684 0.950 . S
H1674 C1686 0.950 . S
H1675 C1687 0.950 . S
C1676 H1668 0.950 . S
C1676 C1677 1.386 . S
C1676 C1678 1.391 . S
C1677 C1676 1.386 . S
C1677 C1681 1.393 . S
C1678 H1670 0.950 . S
C1678 C1676 1.391 . S
C1678 C1679 1.400 . S
C1679 C1678 1.400 . S
C1679 C1680 1.398 . S
C1679 C1685 1.491 . S
C1680 H1671 0.950 . S
C1680 C1679 1.398 . S
C1680 C1681 1.391 . S
C1681 H1669 0.950 . S
C1681 C1677 1.393 . S
C1681 C1680 1.391 . S
C1682 H1672 0.950 . S
C1682 C1683 1.386 . S
C1682 C1684 1.391 . S
C1683 C1682 1.386 . S
C1683 C1687 1.393 . S
C1684 H1673 0.950 . S
C1684 C1682 1.391 . S
C1684 C1685 1.400 . S
C1685 C1679 1.491 . S
C1685 C1684 1.400 . S
C1685 C1686 1.398 . S
C1686 H1674 0.950 . S
C1686 C1685 1.398 . S
C1686 C1687 1.391 . S
C1687 H1675 0.950 . S
C1687 C1683 1.393 . S
C1687 C1686 1.391 . S
H1688 C1696 0.950 . S
H1689 C1701 0.950 . S
H1690 C1698 0.950 . S
H1691 C1700 0.950 1_545 S
H1692 C1702 0.950 . S
H1693 C1704 0.950 . S
H1694 C1706 0.950 1_565 S
H1695 C1707 0.950 . S
C1696 H1688 0.950 . S
C1696 C1697 1.386 . S
C1696 C1698 1.391 . S
C1697 C1696 1.386 . S
C1697 C1701 1.393 . S
C1698 H1690 0.950 . S
C1698 C1696 1.391 . S
C1698 C1699 1.400 . S
C1699 C1698 1.400 . S
C1699 C1700 1.398 . S
C1699 C1705 1.491 1_565 S
C1700 H1691 0.950 1_565 S
C1700 C1699 1.398 . S
C1700 C1701 1.391 . S
C1701 H1689 0.950 . S
C1701 C1697 1.393 . S
C1701 C1700 1.391 . S
C1702 H1692 0.950 . S
C1702 C1703 1.386 1_556 S
C1702 C1704 1.391 . S
C1703 C1702 1.386 1_554 S
C1703 C1707 1.393 . S
C1704 H1693 0.950 . S
C1704 C1702 1.391 . S
C1704 C1705 1.400 . S
C1705 C1699 1.491 1_545 S
C1705 C1704 1.400 . S
C1705 C1706 1.398 1_556 S
C1706 H1694 0.950 1_545 S
C1706 C1705 1.398 1_554 S
C1706 C1707 1.391 . S
C1707 H1695 0.950 . S
C1707 C1703 1.393 . S
C1707 C1706 1.391 . S
H1708 C1716 0.950 . S
H1709 C1721 0.950 . S
H1710 C1718 0.950 1_565 S
H1711 C1720 0.950 . S
H1712 C1722 0.950 . S
H1713 C1724 0.950 . S
H1714 C1726 0.950 . S
H1715 C1727 0.950 . S
C1716 H1708 0.950 . S
C1716 C1717 1.386 . S
C1716 C1718 1.391 . S
C1717 C1716 1.386 . S
C1717 C1721 1.393 . S
C1718 H1710 0.950 1_545 S
C1718 C1716 1.391 . S
C1718 C1719 1.400 . S
C1719 C1718 1.400 . S
C1719 C1720 1.398 . S
C1719 C1725 1.491 . S
C1720 H1711 0.950 . S
C1720 C1719 1.398 . S
C1720 C1721 1.391 . S
C1721 H1709 0.950 . S
C1721 C1717 1.393 . S
C1721 C1720 1.391 . S
C1722 H1712 0.950 . S
C1722 C1723 1.386 1_545 S
C1722 C1724 1.391 . S
C1723 C1722 1.386 1_565 S
C1723 C1727 1.393 . S
C1724 H1713 0.950 . S
C1724 C1722 1.391 . S
C1724 C1725 1.400 . S
C1725 C1719 1.491 . S
C1725 C1724 1.400 . S
C1725 C1726 1.398 1_545 S
C1726 H1714 0.950 . S
C1726 C1725 1.398 1_565 S
C1726 C1727 1.391 . S
C1727 H1715 0.950 . S
C1727 C1723 1.393 . S
C1727 C1726 1.391 . S
H1728 C1736 0.950 . S
H1729 C1741 0.950 . S
H1730 C1738 0.950 . S
H1731 C1740 0.950 . S
H1732 C1742 0.950 . S
H1733 C1744 0.950 . S
H1734 C1746 0.950 . S
H1735 C1747 0.950 . S
C1736 H1728 0.950 . S
C1736 C1737 1.386 . S
C1736 C1738 1.391 . S
C1737 C1736 1.386 . S
C1737 C1741 1.393 . S
C1738 H1730 0.950 . S
C1738 C1736 1.391 . S
C1738 C1739 1.400 . S
C1739 C1738 1.400 . S
C1739 C1740 1.398 . S
C1739 C1745 1.491 . S
C1740 H1731 0.950 . S
C1740 C1739 1.398 . S
C1740 C1741 1.391 . S
C1741 H1729 0.950 . S
C1741 C1737 1.393 . S
C1741 C1740 1.391 . S
C1742 H1732 0.950 . S
C1742 C1743 1.386 . S
C1742 C1744 1.391 . S
C1743 C1742 1.386 . S
C1743 C1747 1.393 . S
C1744 H1733 0.950 . S
C1744 C1742 1.391 . S
C1744 C1745 1.400 . S
C1745 C1739 1.491 . S
C1745 C1744 1.400 . S
C1745 C1746 1.398 . S
C1746 H1734 0.950 . S
C1746 C1745 1.398 . S
C1746 C1747 1.391 . S
C1747 H1735 0.950 . S
C1747 C1743 1.393 . S
C1747 C1746 1.391 . S
H1748 C1756 0.950 . S
H1749 C1761 0.950 . S
H1750 C1758 0.950 . S
H1751 C1760 0.930 1_655 S
H1752 C1762 0.950 . S
H1753 C1764 0.950 . S
H1754 C1766 0.950 1_455 S
H1755 C1767 0.950 . S
C1756 H1748 0.950 . S
C1756 C1757 1.386 . S
C1756 C1758 1.391 . S
C1757 C1756 1.386 . S
C1757 C1761 1.393 . S
C1758 H1750 0.950 . S
C1758 C1756 1.391 . S
C1758 C1759 1.400 . S
C1759 C1758 1.400 . S
C1759 C1760 1.404 . S
C1759 C1765 1.491 1_455 S
C1760 H1751 0.930 1_455 S
C1760 C1759 1.404 . S
C1760 C1761 1.405 . S
C1761 H1749 0.950 . S
C1761 C1757 1.393 . S
C1761 C1760 1.405 . S
C1762 H1752 0.950 . S
C1762 C1763 1.386 . S
C1762 C1764 1.391 . S
C1763 C1762 1.386 . S
C1763 C1767 1.393 . S
C1764 H1753 0.950 . S
C1764 C1762 1.391 . S
C1764 C1765 1.400 . S
C1765 C1759 1.491 1_655 S
C1765 C1764 1.400 . S
C1765 C1766 1.398 . S
C1766 H1754 0.950 1_655 S
C1766 C1765 1.398 . S
C1766 C1767 1.391 . S
C1767 H1755 0.950 . S
C1767 C1763 1.393 . S
C1767 C1766 1.391 . S
H1768 C1776 0.950 . S
H1769 C1781 0.950 . S
H1770 C1778 0.950 . S
H1771 C1780 0.950 1_556 S
H1772 C1782 0.950 . S
H1773 C1784 0.950 . S
H1774 C1786 0.950 1_554 S
H1775 C1787 0.950 . S
C1776 H1768 0.950 . S
C1776 C1777 1.386 . S
C1776 C1778 1.391 . S
C1777 C1776 1.386 . S
C1777 C1781 1.393 . S
C1778 H1770 0.950 . S
C1778 C1776 1.391 . S
C1778 C1779 1.400 . S
C1779 C1778 1.400 . S
C1779 C1780 1.398 . S
C1779 C1785 1.491 1_554 S
C1780 H1771 0.950 1_554 S
C1780 C1779 1.398 . S
C1780 C1781 1.391 . S
C1781 H1769 0.950 . S
C1781 C1777 1.393 . S
C1781 C1780 1.391 . S
C1782 H1772 0.950 . S
C1782 C1783 1.386 . S
C1782 C1784 1.391 . S
C1783 C1782 1.386 . S
C1783 C1787 1.393 . S
C1784 H1773 0.950 . S
C1784 C1782 1.391 . S
C1784 C1785 1.400 . S
C1785 C1779 1.491 1_556 S
C1785 C1784 1.400 . S
C1785 C1786 1.398 . S
C1786 H1774 0.950 1_556 S
C1786 C1785 1.398 . S
C1786 C1787 1.391 . S
C1787 H1775 0.950 . S
C1787 C1783 1.393 . S
C1787 C1786 1.391 . S
H1788 C1796 0.950 . S
H1789 C1801 0.950 . S
H1790 C1798 0.950 . S
H1791 C1800 0.950 . S
H1792 C1802 0.950 . S
H1793 C1804 0.950 . S
H1794 C1806 0.950 . S
H1795 C1807 0.950 . S
C1796 H1788 0.950 . S
C1796 C1797 1.386 . S
C1796 C1798 1.391 . S
C1797 C1796 1.386 . S
C1797 C1801 1.393 . S
C1798 H1790 0.950 . S
C1798 C1796 1.391 . S
C1798 C1799 1.400 . S
C1799 C1798 1.400 . S
C1799 C1800 1.398 . S
C1799 C1805 1.491 . S
C1800 H1791 0.950 . S
C1800 C1799 1.398 . S
C1800 C1801 1.391 . S
C1801 H1789 0.950 . S
C1801 C1797 1.393 . S
C1801 C1800 1.391 . S
C1802 H1792 0.950 . S
C1802 C1803 1.386 . S
C1802 C1804 1.391 . S
C1803 C1802 1.386 . S
C1803 C1807 1.393 . S
C1804 H1793 0.950 . S
C1804 C1802 1.391 . S
C1804 C1805 1.400 . S
C1805 C1799 1.491 . S
C1805 C1804 1.400 . S
C1805 C1806 1.398 . S
C1806 H1794 0.950 . S
C1806 C1805 1.398 . S
C1806 C1807 1.391 . S
C1807 H1795 0.950 . S
C1807 C1803 1.393 . S
C1807 C1806 1.391 . S
H1808 C1816 0.950 . S
H1809 C1821 0.950 . S
H1810 C1818 0.950 1_554 S
H1811 C1820 0.950 . S
H1812 C1822 0.950 . S
H1813 C1824 0.950 1_556 S
H1814 C1826 0.950 . S
H1815 C1827 0.950 . S
C1816 H1808 0.950 . S
C1816 C1817 1.386 . S
C1816 C1818 1.391 . S
C1817 C1816 1.386 . S
C1817 C1821 1.393 . S
C1818 H1810 0.950 1_556 S
C1818 C1816 1.391 . S
C1818 C1819 1.400 . S
C1819 C1818 1.400 . S
C1819 C1820 1.398 . S
C1819 C1825 1.491 1_556 S
C1820 H1811 0.950 . S
C1820 C1819 1.398 . S
C1820 C1821 1.391 . S
C1821 H1809 0.950 . S
C1821 C1817 1.393 . S
C1821 C1820 1.391 . S
C1822 H1812 0.950 . S
C1822 C1823 1.386 . S
C1822 C1824 1.391 . S
C1823 C1822 1.386 . S
C1823 C1827 1.393 . S
C1824 H1813 0.950 1_554 S
C1824 C1822 1.391 . S
C1824 C1825 1.400 . S
C1825 C1819 1.491 1_554 S
C1825 C1824 1.400 . S
C1825 C1826 1.398 . S
C1826 H1814 0.950 . S
C1826 C1825 1.398 . S
C1826 C1827 1.391 . S
C1827 H1815 0.950 . S
C1827 C1823 1.393 . S
C1827 C1826 1.391 . S
H1828 C1836 0.950 . S
H1829 C1841 0.950 . S
H1830 C1838 0.950 . S
H1831 C1840 0.950 . S
H1832 C1842 0.950 . S
H1833 C1844 0.950 . S
H1834 C1846 0.950 . S
H1835 C1847 0.950 . S
C1836 H1828 0.950 . S
C1836 C1837 1.386 . S
C1836 C1838 1.391 . S
C1837 C1836 1.386 . S
C1837 C1841 1.393 . S
C1838 H1830 0.950 . S
C1838 C1836 1.391 . S
C1838 C1839 1.400 . S
C1839 C1838 1.400 . S
C1839 C1840 1.398 . S
C1839 C1845 1.491 . S
C1840 H1831 0.950 . S
C1840 C1839 1.398 . S
C1840 C1841 1.391 . S
C1841 H1829 0.950 . S
C1841 C1837 1.393 . S
C1841 C1840 1.391 . S
C1842 H1832 0.950 . S
C1842 C1843 1.386 . S
C1842 C1844 1.391 . S
C1843 C1842 1.386 . S
C1843 C1847 1.393 . S
C1844 H1833 0.950 . S
C1844 C1842 1.391 . S
C1844 C1845 1.400 . S
C1845 C1839 1.491 . S
C1845 C1844 1.400 . S
C1845 C1846 1.398 . S
C1846 H1834 0.950 . S
C1846 C1845 1.398 . S
C1846 C1847 1.391 . S
C1847 H1835 0.950 . S
C1847 C1843 1.393 . S
C1847 C1846 1.391 . S
H1848 C1856 0.950 . S
H1849 C1861 0.950 . S
H1850 C1858 0.950 . S
H1851 C1860 0.950 . S
H1852 C1862 0.950 . S
H1853 C1864 0.950 . S
H1854 C1866 0.950 . S
H1855 C1867 0.950 . S
C1856 H1848 0.950 . S
C1856 C1857 1.386 . S
C1856 C1858 1.391 . S
C1857 C1856 1.386 . S
C1857 C1861 1.393 . S
C1858 H1850 0.950 . S
C1858 C1856 1.391 . S
C1858 C1859 1.400 . S
C1859 C1858 1.400 . S
C1859 C1860 1.398 . S
C1859 C1865 1.491 . S
C1860 H1851 0.950 . S
C1860 C1859 1.398 . S
C1860 C1861 1.391 . S
C1861 H1849 0.950 . S
C1861 C1857 1.393 . S
C1861 C1860 1.391 . S
C1862 H1852 0.950 . S
C1862 C1863 1.386 . S
C1862 C1864 1.391 . S
C1863 C1862 1.386 . S
C1863 C1867 1.393 . S
C1864 H1853 0.950 . S
C1864 C1862 1.391 . S
C1864 C1865 1.400 . S
C1865 C1859 1.491 . S
C1865 C1864 1.400 . S
C1865 C1866 1.398 . S
C1866 H1854 0.950 . S
C1866 C1865 1.398 . S
C1866 C1867 1.391 . S
C1867 H1855 0.950 . S
C1867 C1863 1.393 . S
C1867 C1866 1.391 . S
H1868 C1876 0.950 . S
H1869 C1881 0.950 . S
H1870 C1878 0.950 . S
H1871 C1880 0.950 1_455 S
H1872 C1882 0.950 . S
H1873 C1884 0.950 . S
H1874 C1886 0.950 1_655 S
H1875 C1887 0.950 . S
C1876 H1868 0.950 . S
C1876 C1877 1.386 . S
C1876 C1878 1.391 . S
C1877 C1876 1.386 . S
C1877 C1881 1.393 . S
C1878 H1870 0.950 . S
C1878 C1876 1.391 . S
C1878 C1879 1.400 . S
C1879 C1878 1.400 . S
C1879 C1880 1.398 . S
C1879 C1885 1.491 1_655 S
C1880 H1871 0.950 1_655 S
C1880 C1879 1.398 . S
C1880 C1881 1.391 . S
C1881 H1869 0.950 . S
C1881 C1877 1.393 . S
C1881 C1880 1.391 . S
C1882 H1872 0.950 . S
C1882 C1883 1.386 . S
C1882 C1884 1.391 . S
C1883 C1882 1.386 . S
C1883 C1887 1.393 . S
C1884 H1873 0.950 . S
C1884 C1882 1.391 . S
C1884 C1885 1.400 . S
C1885 C1879 1.491 1_455 S
C1885 C1884 1.400 . S
C1885 C1886 1.398 . S
C1886 H1874 0.950 1_455 S
C1886 C1885 1.398 . S
C1886 C1887 1.391 . S
C1887 H1875 0.950 . S
C1887 C1883 1.393 . S
C1887 C1886 1.391 . S
H1888 C1896 0.950 . S
H1889 C1901 0.950 . S
H1890 C1898 0.950 . S
H1891 C1900 0.950 . S
H1892 C1902 0.950 . S
H1893 C1904 0.950 . S
H1894 C1906 0.950 . S
H1895 C1907 0.950 . S
C1896 H1888 0.950 . S
C1896 C1897 1.386 . S
C1896 C1898 1.391 . S
C1897 C1896 1.386 . S
C1897 C1901 1.393 . S
C1898 H1890 0.950 . S
C1898 C1896 1.391 . S
C1898 C1899 1.400 . S
C1899 C1898 1.400 . S
C1899 C1900 1.398 . S
C1899 C1905 1.491 . S
C1900 H1891 0.950 . S
C1900 C1899 1.398 . S
C1900 C1901 1.391 . S
C1901 H1889 0.950 . S
C1901 C1897 1.393 . S
C1901 C1900 1.391 . S
C1902 H1892 0.950 . S
C1902 C1903 1.386 . S
C1902 C1904 1.391 . S
C1903 C1902 1.386 . S
C1903 C1907 1.393 . S
C1904 H1893 0.950 . S
C1904 C1902 1.391 . S
C1904 C1905 1.400 . S
C1905 C1899 1.491 . S
C1905 C1904 1.400 . S
C1905 C1906 1.398 . S
C1906 H1894 0.950 . S
C1906 C1905 1.398 . S
C1906 C1907 1.391 . S
C1907 H1895 0.950 . S
C1907 C1903 1.393 . S
C1907 C1906 1.391 . S
H1908 C1916 0.950 . S
H1909 C1921 0.950 . S
H1910 C1918 0.950 . S
H1911 C1920 0.950 . S
H1912 C1922 0.950 . S
H1913 C1924 0.950 1_545 S
H1914 C1926 0.950 . S
H1915 C1927 0.950 . S
C1916 H1908 0.950 . S
C1916 C1917 1.386 . S
C1916 C1918 1.391 1_545 S
C1917 C1916 1.386 . S
C1917 C1921 1.393 . S
C1918 H1910 0.950 . S
C1918 C1916 1.391 1_565 S
C1918 C1919 1.400 1_565 S
C1919 C1918 1.400 1_545 S
C1919 C1920 1.398 . S
C1919 C1925 1.491 1_545 S
C1920 H1911 0.950 . S
C1920 C1919 1.398 . S
C1920 C1921 1.391 . S
C1921 H1909 0.950 . S
C1921 C1917 1.393 . S
C1921 C1920 1.391 . S
C1922 H1912 0.950 . S
C1922 C1923 1.386 . S
C1922 C1924 1.391 . S
C1923 C1922 1.386 . S
C1923 C1927 1.393 . S
C1924 H1913 0.950 1_565 S
C1924 C1922 1.391 . S
C1924 C1925 1.400 . S
C1925 C1919 1.491 1_565 S
C1925 C1924 1.400 . S
C1925 C1926 1.398 . S
C1926 H1914 0.950 . S
C1926 C1925 1.398 . S
C1926 C1927 1.391 . S
C1927 H1915 0.950 . S
C1927 C1923 1.393 . S
C1927 C1926 1.391 . S
H1928 C1936 0.950 . S
H1929 C1941 0.950 . S
H1930 C1938 0.950 . S
H1931 C1940 0.950 . S
H1932 C1942 0.950 . S
H1933 C1944 0.950 1_545 S
H1934 C1946 0.950 . S
H1935 C1947 0.950 . S
C1936 H1928 0.950 . S
C1936 C1937 1.386 . S
C1936 C1938 1.391 . S
C1937 C1936 1.386 . S
C1937 C1941 1.393 . S
C1938 H1930 0.950 . S
C1938 C1936 1.391 . S
C1938 C1939 1.400 . S
C1939 C1938 1.400 . S
C1939 C1940 1.398 . S
C1939 C1945 1.491 1_545 S
C1940 H1931 0.950 . S
C1940 C1939 1.398 . S
C1940 C1941 1.391 . S
C1941 H1929 0.950 . S
C1941 C1937 1.393 . S
C1941 C1940 1.391 . S
C1942 H1932 0.950 . S
C1942 C1943 1.386 . S
C1942 C1944 1.391 . S
C1943 C1942 1.386 . S
C1943 C1947 1.393 . S
C1944 H1933 0.950 1_565 S
C1944 C1942 1.391 . S
C1944 C1945 1.400 . S
C1945 C1939 1.491 1_565 S
C1945 C1944 1.400 . S
C1945 C1946 1.398 . S
C1946 H1934 0.950 . S
C1946 C1945 1.398 . S
C1946 C1947 1.391 . S
C1947 H1935 0.950 . S
C1947 C1943 1.393 . S
C1947 C1946 1.391 . S
H1948 C1956 0.950 . S
H1949 C1961 0.950 . S
H1950 C1958 0.950 1_545 S
H1951 C1960 0.950 . S
H1952 C1962 0.950 . S
H1953 C1964 0.950 1_565 S
H1954 C1966 0.950 . S
H1955 C1967 0.950 . S
C1956 H1948 0.950 . S
C1956 C1957 1.386 . S
C1956 C1958 1.391 . S
C1957 C1956 1.386 . S
C1957 C1961 1.393 . S
C1958 H1950 0.950 1_565 S
C1958 C1956 1.391 . S
C1958 C1959 1.400 . S
C1959 C1958 1.400 . S
C1959 C1960 1.398 . S
C1959 C1965 1.491 1_565 S
C1960 H1951 0.950 . S
C1960 C1959 1.398 . S
C1960 C1961 1.391 . S
C1961 H1949 0.950 . S
C1961 C1957 1.393 . S
C1961 C1960 1.391 . S
C1962 H1952 0.950 . S
C1962 C1963 1.386 . S
C1962 C1964 1.391 . S
C1963 C1962 1.386 . S
C1963 C1967 1.393 . S
C1964 H1953 0.950 1_545 S
C1964 C1962 1.391 . S
C1964 C1965 1.400 . S
C1965 C1959 1.491 1_545 S
C1965 C1964 1.400 . S
C1965 C1966 1.398 . S
C1966 H1954 0.950 . S
C1966 C1965 1.398 . S
C1966 C1967 1.391 . S
C1967 H1955 0.950 . S
C1967 C1963 1.393 . S
C1967 C1966 1.391 . S
H1968 C1976 0.950 . S
H1969 C1981 0.950 . S
H1970 C1978 0.950 . S
H1971 C1980 0.950 . S
H1972 C1982 0.950 . S
H1973 C1984 0.950 . S
H1974 C1986 0.950 . S
H1975 C1987 0.950 . S
C1976 H1968 0.950 . S
C1976 C1977 1.386 . S
C1976 C1978 1.391 . S
C1977 C1976 1.386 . S
C1977 C1981 1.393 . S
C1978 H1970 0.950 . S
C1978 C1976 1.391 . S
C1978 C1979 1.400 . S
C1979 C1978 1.400 . S
C1979 C1980 1.398 . S
C1979 C1985 1.491 . S
C1980 H1971 0.950 . S
C1980 C1979 1.398 . S
C1980 C1981 1.391 . S
C1981 H1969 0.950 . S
C1981 C1977 1.393 . S
C1981 C1980 1.391 . S
C1982 H1972 0.950 . S
C1982 C1983 1.386 . S
C1982 C1984 1.391 . S
C1983 C1982 1.386 . S
C1983 C1987 1.393 . S
C1984 H1973 0.950 . S
C1984 C1982 1.391 . S
C1984 C1985 1.400 . S
C1985 C1979 1.491 . S
C1985 C1984 1.400 . S
C1985 C1986 1.398 . S
C1986 H1974 0.950 . S
C1986 C1985 1.398 . S
C1986 C1987 1.391 . S
C1987 H1975 0.950 . S
C1987 C1983 1.393 . S
C1987 C1986 1.391 . S
H1988 C1996 0.950 . S
H1989 C2001 0.950 . S
H1990 C1998 0.950 . S
H1991 C2000 0.950 . S
H1992 C2002 0.950 . S
H1993 C2004 0.950 . S
H1994 C2006 0.950 . S
H1995 C2007 0.950 . S
C1996 H1988 0.950 . S
C1996 C1997 1.386 . S
C1996 C1998 1.391 . S
C1997 C1996 1.386 . S
C1997 C2001 1.393 . S
C1998 H1990 0.950 . S
C1998 C1996 1.391 . S
C1998 C1999 1.400 . S
C1999 C1998 1.400 . S
C1999 C2000 1.398 . S
C1999 C2005 1.491 . S
C2000 H1991 0.950 . S
C2000 C1999 1.398 . S
C2000 C2001 1.391 . S
C2001 H1989 0.950 . S
C2001 C1997 1.393 . S
C2001 C2000 1.391 . S
C2002 H1992 0.950 . S
C2002 C2003 1.386 . S
C2002 C2004 1.391 . S
C2003 C2002 1.386 . S
C2003 C2007 1.393 . S
C2004 H1993 0.950 . S
C2004 C2002 1.391 . S
C2004 C2005 1.400 . S
C2005 C1999 1.491 . S
C2005 C2004 1.400 . S
C2005 C2006 1.398 . S
C2006 H1994 0.950 . S
C2006 C2005 1.398 . S
C2006 C2007 1.391 . S
C2007 H1995 0.950 . S
C2007 C2003 1.393 . S
C2007 C2006 1.391 . S
H2008 C2016 0.950 . S
H2009 C2021 0.950 . S
H2010 C2018 0.950 . S
H2011 C2020 0.950 . S
H2012 C2022 0.950 . S
H2013 C2024 0.950 . S
H2014 C2026 0.950 . S
H2015 C2027 0.950 . S
C2016 H2008 0.950 . S
C2016 C2017 1.386 . S
C2016 C2018 1.391 . S
C2017 C2016 1.386 . S
C2017 C2021 1.393 . S
C2018 H2010 0.950 . S
C2018 C2016 1.391 . S
C2018 C2019 1.400 . S
C2019 C2018 1.400 . S
C2019 C2020 1.398 . S
C2019 C2025 1.491 . S
C2020 H2011 0.950 . S
C2020 C2019 1.398 . S
C2020 C2021 1.391 . S
C2021 H2009 0.950 . S
C2021 C2017 1.393 . S
C2021 C2020 1.391 . S
C2022 H2012 0.950 . S
C2022 C2023 1.386 . S
C2022 C2024 1.391 . S
C2023 C2022 1.386 . S
C2023 C2027 1.393 . S
C2024 H2013 0.950 . S
C2024 C2022 1.391 . S
C2024 C2025 1.400 . S
C2025 C2019 1.491 . S
C2025 C2024 1.400 . S
C2025 C2026 1.398 . S
C2026 H2014 0.950 . S
C2026 C2025 1.398 . S
C2026 C2027 1.391 . S
C2027 H2015 0.950 . S
C2027 C2023 1.393 . S
C2027 C2026 1.391 . S
H2028 C2036 0.950 . S
H2029 C2041 0.950 . S
H2030 C2038 0.950 . S
H2031 C2040 0.950 . S
H2032 C2042 0.950 . S
H2033 C2044 0.950 . S
H2034 C2046 0.950 . S
H2035 C2047 0.950 . S
C2036 H2028 0.950 . S
C2036 C2037 1.386 . S
C2036 C2038 1.391 . S
C2037 C2036 1.386 . S
C2037 C2041 1.393 . S
C2038 H2030 0.950 . S
C2038 C2036 1.391 . S
C2038 C2039 1.400 . S
C2039 C2038 1.400 . S
C2039 C2040 1.398 . S
C2039 C2045 1.491 1_554 S
C2040 H2031 0.950 . S
C2040 C2039 1.398 . S
C2040 C2041 1.391 . S
C2041 H2029 0.950 . S
C2041 C2037 1.393 . S
C2041 C2040 1.391 . S
C2042 H2032 0.950 . S
C2042 C2043 1.386 . S
C2042 C2044 1.391 . S
C2043 C2042 1.386 . S
C2043 C2047 1.393 . S
C2044 H2033 0.950 . S
C2044 C2042 1.391 . S
C2044 C2045 1.400 . S
C2045 C2039 1.491 1_556 S
C2045 C2044 1.400 . S
C2045 C2046 1.398 . S
C2046 H2034 0.950 . S
C2046 C2045 1.398 . S
C2046 C2047 1.391 . S
C2047 H2035 0.950 . S
C2047 C2043 1.393 . S
C2047 C2046 1.391 . S
H2048 C2056 0.950 . S
H2049 C2061 0.950 . S
H2050 C2058 0.950 . S
H2051 C2060 0.950 . S
H2052 C2062 0.950 . S
H2053 C2064 0.950 . S
H2054 C2066 0.950 . S
H2055 C2067 0.950 . S
C2056 H2048 0.950 . S
C2056 C2057 1.386 . S
C2056 C2058 1.391 . S
C2057 C2056 1.386 . S
C2057 C2061 1.393 . S
C2058 H2050 0.950 . S
C2058 C2056 1.391 . S
C2058 C2059 1.400 . S
C2059 C2058 1.400 . S
C2059 C2060 1.398 . S
C2059 C2065 1.491 . S
C2060 H2051 0.950 . S
C2060 C2059 1.398 . S
C2060 C2061 1.391 . S
C2061 H2049 0.950 . S
C2061 C2057 1.393 . S
C2061 C2060 1.391 . S
C2062 H2052 0.950 . S
C2062 C2063 1.386 . S
C2062 C2064 1.391 . S
C2063 C2062 1.386 . S
C2063 C2067 1.393 . S
C2064 H2053 0.950 . S
C2064 C2062 1.391 . S
C2064 C2065 1.400 . S
C2065 C2059 1.491 . S
C2065 C2064 1.400 . S
C2065 C2066 1.398 . S
C2066 H2054 0.950 . S
C2066 C2065 1.398 . S
C2066 C2067 1.391 . S
C2067 H2055 0.950 . S
C2067 C2063 1.393 . S
C2067 C2066 1.391 . S
H2068 C2076 0.950 . S
H2069 C2081 0.950 . S
H2070 C2078 0.950 . S
H2071 C2080 0.950 . S
H2072 C2082 0.950 . S
H2073 C2084 0.950 . S
H2074 C2086 0.950 . S
H2075 C2087 0.950 . S
C2076 H2068 0.950 . S
C2076 C2077 1.386 . S
C2076 C2078 1.391 . S
C2077 C2076 1.386 . S
C2077 C2081 1.393 . S
C2078 H2070 0.950 . S
C2078 C2076 1.391 . S
C2078 C2079 1.400 . S
C2079 C2078 1.400 . S
C2079 C2080 1.398 . S
C2079 C2085 1.491 . S
C2080 H2071 0.950 . S
C2080 C2079 1.398 . S
C2080 C2081 1.391 . S
C2081 H2069 0.950 . S
C2081 C2077 1.393 . S
C2081 C2080 1.391 . S
C2082 H2072 0.950 . S
C2082 C2083 1.386 . S
C2082 C2084 1.391 . S
C2083 C2082 1.386 . S
C2083 C2087 1.393 . S
C2084 H2073 0.950 . S
C2084 C2082 1.391 . S
C2084 C2085 1.400 . S
C2085 C2079 1.491 . S
C2085 C2084 1.400 . S
C2085 C2086 1.398 . S
C2086 H2074 0.950 . S
C2086 C2085 1.398 . S
C2086 C2087 1.391 . S
C2087 H2075 0.950 . S
C2087 C2083 1.393 . S
C2087 C2086 1.391 . S
H2088 C2096 0.950 . S
H2089 C2101 0.950 . S
H2090 C2098 0.950 . S
H2091 C2100 0.950 1_455 S
H2092 C2102 0.950 . S
H2093 C2104 0.950 . S
H2094 C2106 0.950 1_655 S
H2095 C2107 0.950 . S
C2096 H2088 0.950 . S
C2096 C2097 1.386 . S
C2096 C2098 1.391 . S
C2097 C2096 1.386 . S
C2097 C2101 1.393 . S
C2098 H2090 0.950 . S
C2098 C2096 1.391 . S
C2098 C2099 1.400 . S
C2099 C2098 1.400 . S
C2099 C2100 1.398 . S
C2099 C2105 1.491 1_655 S
C2100 H2091 0.950 1_655 S
C2100 C2099 1.398 . S
C2100 C2101 1.391 . S
C2101 H2089 0.950 . S
C2101 C2097 1.393 . S
C2101 C2100 1.391 . S
C2102 H2092 0.950 . S
C2102 C2103 1.386 . S
C2102 C2104 1.391 . S
C2103 C2102 1.386 . S
C2103 C2107 1.393 . S
C2104 H2093 0.950 . S
C2104 C2102 1.391 . S
C2104 C2105 1.400 . S
C2105 C2099 1.491 1_455 S
C2105 C2104 1.400 . S
C2105 C2106 1.398 . S
C2106 H2094 0.950 1_455 S
C2106 C2105 1.398 . S
C2106 C2107 1.391 . S
C2107 H2095 0.950 . S
C2107 C2103 1.393 . S
C2107 C2106 1.391 . S
H2108 C2116 0.950 . S
H2109 C2121 0.950 . S
H2110 C2118 0.950 . S
H2111 C2120 0.950 . S
H2112 C2122 0.950 . S
H2113 C2124 0.950 . S
H2114 C2126 0.950 . S
H2115 C2127 0.950 . S
C2116 H2108 0.950 . S
C2116 C2117 1.386 . S
C2116 C2118 1.391 . S
C2117 C2116 1.386 . S
C2117 C2121 1.393 . S
C2118 H2110 0.950 . S
C2118 C2116 1.391 . S
C2118 C2119 1.400 . S
C2119 C2118 1.400 . S
C2119 C2120 1.398 . S
C2119 C2125 1.491 . S
C2120 H2111 0.950 . S
C2120 C2119 1.398 . S
C2120 C2121 1.391 . S
C2121 H2109 0.950 . S
C2121 C2117 1.393 . S
C2121 C2120 1.391 . S
C2122 H2112 0.950 . S
C2122 C2123 1.386 . S
C2122 C2124 1.391 . S
C2123 C2122 1.386 . S
C2123 C2127 1.393 . S
C2124 H2113 0.950 . S
C2124 C2122 1.391 . S
C2124 C2125 1.400 . S
C2125 C2119 1.491 . S
C2125 C2124 1.400 . S
C2125 C2126 1.398 . S
C2126 H2114 0.950 . S
C2126 C2125 1.398 . S
C2126 C2127 1.391 . S
C2127 H2115 0.950 . S
C2127 C2123 1.393 . S
C2127 C2126 1.391 . S
H2128 C2136 0.950 . S
H2129 C2141 0.950 . S
H2130 C2138 0.950 1_455 S
H2131 C2140 0.950 . S
H2132 C2142 0.950 . S
H2133 C2144 0.950 1_655 S
H2134 C2146 0.950 . S
H2135 C2147 0.950 . S
C2136 H2128 0.950 . S
C2136 C2137 1.386 . S
C2136 C2138 1.391 . S
C2137 C2136 1.386 . S
C2137 C2141 1.393 . S
C2138 H2130 0.950 1_655 S
C2138 C2136 1.391 . S
C2138 C2139 1.400 . S
C2139 C2138 1.400 . S
C2139 C2140 1.398 . S
C2139 C2145 1.491 1_655 S
C2140 H2131 0.950 . S
C2140 C2139 1.398 . S
C2140 C2141 1.391 . S
C2141 H2129 0.950 . S
C2141 C2137 1.393 . S
C2141 C2140 1.391 . S
C2142 H2132 0.950 . S
C2142 C2143 1.386 . S
C2142 C2144 1.391 . S
C2143 C2142 1.386 . S
C2143 C2147 1.393 . S
C2144 H2133 0.950 1_455 S
C2144 C2142 1.391 . S
C2144 C2145 1.400 . S
C2145 C2139 1.491 1_455 S
C2145 C2144 1.400 . S
C2145 C2146 1.398 . S
C2146 H2134 0.950 . S
C2146 C2145 1.398 . S
C2146 C2147 1.391 . S
C2147 H2135 0.950 . S
C2147 C2143 1.393 . S
C2147 C2146 1.391 . S
H2148 C2156 0.950 . S
H2149 C2161 0.950 . S
H2150 C2158 0.950 . S
H2151 C2160 0.950 1_556 S
H2152 C2162 0.950 . S
H2153 C2164 0.950 . S
H2154 C2166 0.950 1_554 S
H2155 C2167 0.950 . S
C2156 H2148 0.950 . S
C2156 C2157 1.386 . S
C2156 C2158 1.391 . S
C2157 C2156 1.386 . S
C2157 C2161 1.393 . S
C2158 H2150 0.950 . S
C2158 C2156 1.391 . S
C2158 C2159 1.400 . S
C2159 C2158 1.400 . S
C2159 C2160 1.398 . S
C2159 C2165 1.491 1_554 S
C2160 H2151 0.950 1_554 S
C2160 C2159 1.398 . S
C2160 C2161 1.391 . S
C2161 H2149 0.950 . S
C2161 C2157 1.393 . S
C2161 C2160 1.391 . S
C2162 H2152 0.950 . S
C2162 C2163 1.386 . S
C2162 C2164 1.391 . S
C2163 C2162 1.386 . S
C2163 C2167 1.393 . S
C2164 H2153 0.950 . S
C2164 C2162 1.391 . S
C2164 C2165 1.400 . S
C2165 C2159 1.491 1_556 S
C2165 C2164 1.400 . S
C2165 C2166 1.398 . S
C2166 H2154 0.950 1_556 S
C2166 C2165 1.398 . S
C2166 C2167 1.391 . S
C2167 H2155 0.950 . S
C2167 C2163 1.393 . S
C2167 C2166 1.391 . S
H2168 C2176 0.950 . S
H2169 C2181 0.950 . S
H2170 C2178 0.950 . S
H2171 C2180 0.950 . S
H2172 C2182 0.950 . S
H2173 C2184 0.950 . S
H2174 C2186 0.950 . S
H2175 C2187 0.950 . S
C2176 H2168 0.950 . S
C2176 C2177 1.386 . S
C2176 C2178 1.391 . S
C2177 C2176 1.386 . S
C2177 C2181 1.393 . S
C2178 H2170 0.950 . S
C2178 C2176 1.391 . S
C2178 C2179 1.400 . S
C2179 C2178 1.400 . S
C2179 C2180 1.398 . S
C2179 C2185 1.491 . S
C2180 H2171 0.950 . S
C2180 C2179 1.398 . S
C2180 C2181 1.391 . S
C2181 H2169 0.950 . S
C2181 C2177 1.393 . S
C2181 C2180 1.391 . S
C2182 H2172 0.950 . S
C2182 C2183 1.386 . S
C2182 C2184 1.391 . S
C2183 C2182 1.386 . S
C2183 C2187 1.393 . S
C2184 H2173 0.950 . S
C2184 C2182 1.391 . S
C2184 C2185 1.400 . S
C2185 C2179 1.491 . S
C2185 C2184 1.400 . S
C2185 C2186 1.398 . S
C2186 H2174 0.950 . S
C2186 C2185 1.398 . S
C2186 C2187 1.391 . S
C2187 H2175 0.950 . S
C2187 C2183 1.393 . S
C2187 C2186 1.391 . S
H2188 C2196 0.950 . S
H2189 C2201 0.950 . S
H2190 C2198 0.950 . S
H2191 C2200 0.950 . S
H2192 C2202 0.950 . S
H2193 C2204 0.950 1_565 S
H2194 C2206 0.950 . S
H2195 C2207 0.950 . S
C2196 H2188 0.950 . S
C2196 C2197 1.386 . S
C2196 C2198 1.391 1_565 S
C2197 C2196 1.386 . S
C2197 C2201 1.393 . S
C2198 H2190 0.950 . S
C2198 C2196 1.391 1_545 S
C2198 C2199 1.400 1_545 S
C2199 C2198 1.400 1_565 S
C2199 C2200 1.398 . S
C2199 C2205 1.491 1_565 S
C2200 H2191 0.950 . S
C2200 C2199 1.398 . S
C2200 C2201 1.391 . S
C2201 H2189 0.950 . S
C2201 C2197 1.393 . S
C2201 C2200 1.391 . S
C2202 H2192 0.950 . S
C2202 C2203 1.386 . S
C2202 C2204 1.391 . S
C2203 C2202 1.386 . S
C2203 C2207 1.393 . S
C2204 H2193 0.950 1_545 S
C2204 C2202 1.391 . S
C2204 C2205 1.400 . S
C2205 C2199 1.491 1_545 S
C2205 C2204 1.400 . S
C2205 C2206 1.398 . S
C2206 H2194 0.950 . S
C2206 C2205 1.398 . S
C2206 C2207 1.391 . S
C2207 H2195 0.950 . S
C2207 C2203 1.393 . S
C2207 C2206 1.391 . S
H2208 C2216 0.950 . S
H2209 C2221 0.950 . S
H2210 C2218 0.950 . S
H2211 C2220 0.950 . S
H2212 C2222 0.950 . S
H2213 C2224 0.950 . S
H2214 C2226 0.950 . S
H2215 C2227 0.950 . S
C2216 H2208 0.950 . S
C2216 C2217 1.386 . S
C2216 C2218 1.391 . S
C2217 C2216 1.386 . S
C2217 C2221 1.393 . S
C2218 H2210 0.950 . S
C2218 C2216 1.391 . S
C2218 C2219 1.400 . S
C2219 C2218 1.400 . S
C2219 C2220 1.398 . S
C2219 C2225 1.491 . S
C2220 H2211 0.950 . S
C2220 C2219 1.398 . S
C2220 C2221 1.391 . S
C2221 H2209 0.950 . S
C2221 C2217 1.393 . S
C2221 C2220 1.391 . S
C2222 H2212 0.950 . S
C2222 C2223 1.386 . S
C2222 C2224 1.391 . S
C2223 C2222 1.386 . S
C2223 C2227 1.393 . S
C2224 H2213 0.950 . S
C2224 C2222 1.391 . S
C2224 C2225 1.400 . S
C2225 C2219 1.491 . S
C2225 C2224 1.400 . S
C2225 C2226 1.398 . S
C2226 H2214 0.950 . S
C2226 C2225 1.398 . S
C2226 C2227 1.391 . S
C2227 H2215 0.950 . S
C2227 C2223 1.393 . S
C2227 C2226 1.391 . S
H2228 C2236 0.950 . S
H2229 C2241 0.950 . S
H2230 C2238 0.950 . S
H2231 C2240 0.950 . S
H2232 C2242 0.950 . S
H2233 C2244 0.950 . S
H2234 C2246 0.950 . S
H2235 C2247 0.950 . S
C2236 H2228 0.950 . S
C2236 C2237 1.386 . S
C2236 C2238 1.391 . S
C2237 C2236 1.386 . S
C2237 C2241 1.393 . S
C2238 H2230 0.950 . S
C2238 C2236 1.391 . S
C2238 C2239 1.400 . S
C2239 C2238 1.400 . S
C2239 C2240 1.398 . S
C2239 C2245 1.491 . S
C2240 H2231 0.950 . S
C2240 C2239 1.398 . S
C2240 C2241 1.391 . S
C2241 H2229 0.950 . S
C2241 C2237 1.393 . S
C2241 C2240 1.391 . S
C2242 H2232 0.950 . S
C2242 C2243 1.386 . S
C2242 C2244 1.391 . S
C2243 C2242 1.386 . S
C2243 C2247 1.393 . S
C2244 H2233 0.950 . S
C2244 C2242 1.391 . S
C2244 C2245 1.400 . S
C2245 C2239 1.491 . S
C2245 C2244 1.400 . S
C2245 C2246 1.398 . S
C2246 H2234 0.950 . S
C2246 C2245 1.398 . S
C2246 C2247 1.391 . S
C2247 H2235 0.950 . S
C2247 C2243 1.393 . S
C2247 C2246 1.391 . S
H2248 C2256 0.950 . S
H2249 C2261 0.950 . S
H2250 C2258 0.950 . S
H2251 C2260 0.950 . S
H2252 C2262 0.950 . S
H2253 C2264 0.950 . S
H2254 C2266 0.950 . S
H2255 C2267 0.950 . S
C2256 H2248 0.950 . S
C2256 C2257 1.386 . S
C2256 C2258 1.391 . S
C2257 C2256 1.386 . S
C2257 C2261 1.393 . S
C2258 H2250 0.950 . S
C2258 C2256 1.391 . S
C2258 C2259 1.400 . S
C2259 C2258 1.400 . S
C2259 C2260 1.398 . S
C2259 C2265 1.491 . S
C2260 H2251 0.950 . S
C2260 C2259 1.398 . S
C2260 C2261 1.391 . S
C2261 H2249 0.950 . S
C2261 C2257 1.393 . S
C2261 C2260 1.391 . S
C2262 H2252 0.950 . S
C2262 C2263 1.386 . S
C2262 C2264 1.391 . S
C2263 C2262 1.386 . S
C2263 C2267 1.393 . S
C2264 H2253 0.950 . S
C2264 C2262 1.391 . S
C2264 C2265 1.400 . S
C2265 C2259 1.491 . S
C2265 C2264 1.400 . S
C2265 C2266 1.398 . S
C2266 H2254 0.950 . S
C2266 C2265 1.398 . S
C2266 C2267 1.391 . S
C2267 H2255 0.950 . S
C2267 C2263 1.393 . S
C2267 C2266 1.391 . S
H2268 C2276 0.950 . S
H2269 C2281 0.950 . S
H2270 C2278 0.950 . S
H2271 C2280 0.950 1_554 S
H2272 C2282 0.950 . S
H2273 C2284 0.950 . S
H2274 C2286 0.965 . S
H2275 C2287 0.950 . S
C2276 H2268 0.950 . S
C2276 C2277 1.386 . S
C2276 C2278 1.391 . S
C2277 C2276 1.386 . S
C2277 C2281 1.393 . S
C2278 H2270 0.950 . S
C2278 C2276 1.391 . S
C2278 C2279 1.400 . S
C2279 C2278 1.400 . S
C2279 C2280 1.398 . S
C2279 C2285 1.491 1_556 S
C2280 H2271 0.950 1_556 S
C2280 C2279 1.398 . S
C2280 C2281 1.391 . S
C2281 H2269 0.950 . S
C2281 C2277 1.393 . S
C2281 C2280 1.391 . S
C2282 H2272 0.950 . S
C2282 C2283 1.386 . S
C2282 C2284 1.391 . S
C2283 C2282 1.386 . S
C2283 C2287 1.393 . S
C2284 H2273 0.950 . S
C2284 C2282 1.391 . S
C2284 C2285 1.400 . S
C2285 C2279 1.491 1_554 S
C2285 C2284 1.400 . S
C2285 C2286 1.398 . S
C2286 H2274 0.965 . S
C2286 C2285 1.398 . S
C2286 C2287 1.391 . S
C2287 H2275 0.950 . S
C2287 C2283 1.393 . S
C2287 C2286 1.391 . S
H2288 C2296 0.950 . S
H2289 C2301 0.950 . S
H2290 C2298 0.950 . S
H2291 C2300 0.950 . S
H2292 C2302 0.950 . S
H2293 C2304 0.950 . S
H2294 C2306 0.950 . S
H2295 C2307 0.950 . S
C2296 H2288 0.950 . S
C2296 C2297 1.386 . S
C2296 C2298 1.391 . S
C2297 C2296 1.386 . S
C2297 C2301 1.393 . S
C2298 H2290 0.950 . S
C2298 C2296 1.391 . S
C2298 C2299 1.400 . S
C2299 C2298 1.400 . S
C2299 C2300 1.398 . S
C2299 C2305 1.491 . S
C2300 H2291 0.950 . S
C2300 C2299 1.398 . S
C2300 C2301 1.391 . S
C2301 H2289 0.950 . S
C2301 C2297 1.393 . S
C2301 C2300 1.391 . S
C2302 H2292 0.950 . S
C2302 C2303 1.386 . S
C2302 C2304 1.391 . S
C2303 C2302 1.386 . S
C2303 C2307 1.393 . S
C2304 H2293 0.950 . S
C2304 C2302 1.391 . S
C2304 C2305 1.400 . S
C2305 C2299 1.491 . S
C2305 C2304 1.400 . S
C2305 C2306 1.398 . S
C2306 H2294 0.950 . S
C2306 C2305 1.398 . S
C2306 C2307 1.391 . S
C2307 H2295 0.950 . S
C2307 C2303 1.393 . S
C2307 C2306 1.391 . S
H2308 C2316 0.950 . S
H2309 C2321 0.950 . S
H2310 C2318 0.950 . S
H2311 C2320 0.950 . S
H2312 C2322 0.950 . S
H2313 C2324 0.950 . S
H2314 C2326 0.950 1_565 S
H2315 C2327 0.950 . S
C2316 H2308 0.950 . S
C2316 C2317 1.386 . S
C2316 C2318 1.391 . S
C2317 C2316 1.386 . S
C2317 C2321 1.393 . S
C2318 H2310 0.950 . S
C2318 C2316 1.391 . S
C2318 C2319 1.400 . S
C2319 C2318 1.400 . S
C2319 C2320 1.398 1_565 S
C2319 C2325 1.491 1_565 S
C2320 H2311 0.950 . S
C2320 C2319 1.398 1_545 S
C2320 C2321 1.391 1_545 S
C2321 H2309 0.950 . S
C2321 C2317 1.393 . S
C2321 C2320 1.391 1_565 S
C2322 H2312 0.950 . S
C2322 C2323 1.386 . S
C2322 C2324 1.391 . S
C2323 C2322 1.386 . S
C2323 C2327 1.393 . S
C2324 H2313 0.950 . S
C2324 C2322 1.391 . S
C2324 C2325 1.400 . S
C2325 C2319 1.491 1_545 S
C2325 C2324 1.400 . S
C2325 C2326 1.398 . S
C2326 H2314 0.950 1_545 S
C2326 C2325 1.398 . S
C2326 C2327 1.391 . S
C2327 H2315 0.950 . S
C2327 C2323 1.393 . S
C2327 C2326 1.391 . S
H2328 C2336 0.950 . S
H2329 C2341 0.950 . S
H2330 C2338 0.950 1_554 S
H2331 C2340 0.950 . S
H2332 C2342 0.950 . S
H2333 C2344 0.950 1_556 S
H2334 C2346 0.950 . S
H2335 C2347 0.950 . S
C2336 H2328 0.950 . S
C2336 C2337 1.386 . S
C2336 C2338 1.391 . S
C2337 C2336 1.386 . S
C2337 C2341 1.393 . S
C2338 H2330 0.950 1_556 S
C2338 C2336 1.391 . S
C2338 C2339 1.400 . S
C2339 C2338 1.400 . S
C2339 C2340 1.398 . S
C2339 C2345 1.491 1_556 S
C2340 H2331 0.950 . S
C2340 C2339 1.398 . S
C2340 C2341 1.391 . S
C2341 H2329 0.950 . S
C2341 C2337 1.393 . S
C2341 C2340 1.391 . S
C2342 H2332 0.950 . S
C2342 C2343 1.386 . S
C2342 C2344 1.391 . S
C2343 C2342 1.386 . S
C2343 C2347 1.393 . S
C2344 H2333 0.950 1_554 S
C2344 C2342 1.391 . S
C2344 C2345 1.400 . S
C2345 C2339 1.491 1_554 S
C2345 C2344 1.400 . S
C2345 C2346 1.398 . S
C2346 H2334 0.950 . S
C2346 C2345 1.398 . S
C2346 C2347 1.391 . S
C2347 H2335 0.950 . S
C2347 C2343 1.393 . S
C2347 C2346 1.391 . S
H2348 C2356 0.950 . S
H2349 C2361 0.950 . S
H2350 C2358 0.950 . S
H2351 C2360 0.950 1_565 S
H2352 C2362 0.950 . S
H2353 C2364 0.950 . S
H2354 C2366 0.950 . S
H2355 C2367 0.950 . S
C2356 H2348 0.950 . S
C2356 C2357 1.386 . S
C2356 C2358 1.391 . S
C2357 C2356 1.386 . S
C2357 C2361 1.393 . S
C2358 H2350 0.950 . S
C2358 C2356 1.391 . S
C2358 C2359 1.400 . S
C2359 C2358 1.400 . S
C2359 C2360 1.398 . S
C2359 C2365 1.491 1_545 S
C2360 H2351 0.950 1_545 S
C2360 C2359 1.398 . S
C2360 C2361 1.391 . S
C2361 H2349 0.950 . S
C2361 C2357 1.393 . S
C2361 C2360 1.391 . S
C2362 H2352 0.950 . S
C2362 C2363 1.386 . S
C2362 C2364 1.391 . S
C2363 C2362 1.386 . S
C2363 C2367 1.393 . S
C2364 H2353 0.950 . S
C2364 C2362 1.391 . S
C2364 C2365 1.400 . S
C2365 C2359 1.491 1_565 S
C2365 C2364 1.400 . S
C2365 C2366 1.398 1_565 S
C2366 H2354 0.950 . S
C2366 C2365 1.398 1_545 S
C2366 C2367 1.391 1_545 S
C2367 H2355 0.950 . S
C2367 C2363 1.393 . S
C2367 C2366 1.391 1_565 S
H2368 C2376 0.950 . S
H2369 C2381 0.950 . S
H2370 C2378 0.950 . S
H2371 C2380 0.950 . S
H2372 C2382 0.950 . S
H2373 C2384 0.950 . S
H2374 C2386 0.950 . S
H2375 C2387 0.950 . S
C2376 H2368 0.950 . S
C2376 C2377 1.386 . S
C2376 C2378 1.391 . S
C2377 C2376 1.386 . S
C2377 C2381 1.393 . S
C2378 H2370 0.950 . S
C2378 C2376 1.391 . S
C2378 C2379 1.400 . S
C2379 C2378 1.400 . S
C2379 C2380 1.398 . S
C2379 C2385 1.491 . S
C2380 H2371 0.950 . S
C2380 C2379 1.398 . S
C2380 C2381 1.391 . S
C2381 H2369 0.950 . S
C2381 C2377 1.393 . S
C2381 C2380 1.391 . S
C2382 H2372 0.950 . S
C2382 C2383 1.386 . S
C2382 C2384 1.391 . S
C2383 C2382 1.386 . S
C2383 C2387 1.393 . S
C2384 H2373 0.950 . S
C2384 C2382 1.391 . S
C2384 C2385 1.400 . S
C2385 C2379 1.491 . S
C2385 C2384 1.400 . S
C2385 C2386 1.398 . S
C2386 H2374 0.950 . S
C2386 C2385 1.398 . S
C2386 C2387 1.391 . S
C2387 H2375 0.950 . S
C2387 C2383 1.393 . S
C2387 C2386 1.391 . S
H2388 C2396 0.950 . S
H2389 C2401 0.950 . S
H2390 C2398 0.950 . S
H2391 C2400 0.950 1_455 S
H2392 C2402 0.950 . S
H2393 C2404 0.950 . S
H2394 C2406 0.950 1_655 S
H2395 C2407 0.950 . S
C2396 H2388 0.950 . S
C2396 C2397 1.386 . S
C2396 C2398 1.391 . S
C2397 C2396 1.386 . S
C2397 C2401 1.393 . S
C2398 H2390 0.950 . S
C2398 C2396 1.391 . S
C2398 C2399 1.400 . S
C2399 C2398 1.400 . S
C2399 C2400 1.398 . S
C2399 C2405 1.491 1_655 S
C2400 H2391 0.950 1_655 S
C2400 C2399 1.398 . S
C2400 C2401 1.391 . S
C2401 H2389 0.950 . S
C2401 C2397 1.393 . S
C2401 C2400 1.391 . S
C2402 H2392 0.950 . S
C2402 C2403 1.386 . S
C2402 C2404 1.391 . S
C2403 C2402 1.386 . S
C2403 C2407 1.393 . S
C2404 H2393 0.950 . S
C2404 C2402 1.391 . S
C2404 C2405 1.400 . S
C2405 C2399 1.491 1_455 S
C2405 C2404 1.400 . S
C2405 C2406 1.398 . S
C2406 H2394 0.950 1_455 S
C2406 C2405 1.398 . S
C2406 C2407 1.391 . S
C2407 H2395 0.950 . S
C2407 C2403 1.393 . S
C2407 C2406 1.391 . S
H2408 C2416 0.950 . S
H2409 C2421 0.950 . S
H2410 C2418 0.950 1_455 S
H2411 C2420 0.950 . S
H2412 C2422 0.950 . S
H2413 C2424 0.950 1_655 S
H2414 C2426 0.950 . S
H2415 C2427 0.950 . S
C2416 H2408 0.950 . S
C2416 C2417 1.386 . S
C2416 C2418 1.391 . S
C2417 C2416 1.386 . S
C2417 C2421 1.393 . S
C2418 H2410 0.950 1_655 S
C2418 C2416 1.391 . S
C2418 C2419 1.400 . S
C2419 C2418 1.400 . S
C2419 C2420 1.398 . S
C2419 C2425 1.491 1_655 S
C2420 H2411 0.950 . S
C2420 C2419 1.398 . S
C2420 C2421 1.391 . S
C2421 H2409 0.950 . S
C2421 C2417 1.393 . S
C2421 C2420 1.391 . S
C2422 H2412 0.950 . S
C2422 C2423 1.386 . S
C2422 C2424 1.391 . S
C2423 C2422 1.386 . S
C2423 C2427 1.393 . S
C2424 H2413 0.950 1_455 S
C2424 C2422 1.391 . S
C2424 C2425 1.400 . S
C2425 C2419 1.491 1_455 S
C2425 C2424 1.400 . S
C2425 C2426 1.398 . S
C2426 H2414 0.950 . S
C2426 C2425 1.398 . S
C2426 C2427 1.391 . S
C2427 H2415 0.950 . S
C2427 C2423 1.393 . S
C2427 C2426 1.391 . S
H2428 C2436 0.950 . S
H2429 C2441 0.950 . S
H2430 C2438 0.950 . S
H2431 C2440 0.950 . S
H2432 C2442 0.950 . S
H2433 C2444 0.950 . S
H2434 C2446 0.950 . S
H2435 C2447 0.950 . S
C2436 H2428 0.950 . S
C2436 C2437 1.386 . S
C2436 C2438 1.391 . S
C2437 C2436 1.386 . S
C2437 C2441 1.393 . S
C2438 H2430 0.950 . S
C2438 C2436 1.391 . S
C2438 C2439 1.400 . S
C2439 C2438 1.400 . S
C2439 C2440 1.398 . S
C2439 C2445 1.491 . S
C2440 H2431 0.950 . S
C2440 C2439 1.398 . S
C2440 C2441 1.391 . S
C2441 H2429 0.950 . S
C2441 C2437 1.393 . S
C2441 C2440 1.391 . S
C2442 H2432 0.950 . S
C2442 C2443 1.386 . S
C2442 C2444 1.391 . S
C2443 C2442 1.386 . S
C2443 C2447 1.393 . S
C2444 H2433 0.950 . S
C2444 C2442 1.391 . S
C2444 C2445 1.400 . S
C2445 C2439 1.491 . S
C2445 C2444 1.400 . S
C2445 C2446 1.398 . S
C2446 H2434 0.950 . S
C2446 C2445 1.398 . S
C2446 C2447 1.391 . S
C2447 H2435 0.950 . S
C2447 C2443 1.393 . S
C2447 C2446 1.391 . S
H2448 C2456 0.950 . S
H2449 C2461 0.950 . S
H2450 C2458 0.954 1_455 S
H2451 C2460 0.950 . S
H2452 C2462 0.950 . S
H2453 C2464 0.950 . S
H2454 C2466 0.950 . S
H2455 C2467 0.950 . S
C2456 H2448 0.950 . S
C2456 C2457 1.386 . S
C2456 C2458 1.388 . S
C2457 C2456 1.386 . S
C2457 C2461 1.393 . S
C2458 H2450 0.954 1_655 S
C2458 C2456 1.388 . S
C2458 C2459 1.400 . S
C2459 C2458 1.400 . S
C2459 C2460 1.405 . S
C2459 C2465 1.484 1_655 S
C2460 H2451 0.950 . S
C2460 C2459 1.405 . S
C2460 C2461 1.391 . S
C2461 H2449 0.950 . S
C2461 C2457 1.393 . S
C2461 C2460 1.391 . S
C2462 H2452 0.950 . S
C2462 C2463 1.386 . S
C2462 C2464 1.391 . S
C2463 C2462 1.386 . S
C2463 C2467 1.393 . S
C2464 H2453 0.950 . S
C2464 C2462 1.391 . S
C2464 C2465 1.400 . S
C2465 C2459 1.484 1_455 S
C2465 C2464 1.400 . S
C2465 C2466 1.398 . S
C2466 H2454 0.950 . S
C2466 C2465 1.398 . S
C2466 C2467 1.391 . S
C2467 H2455 0.950 . S
C2467 C2463 1.393 . S
C2467 C2466 1.391 . S
H2468 C2476 0.950 . S
H2469 C2481 0.950 . S
H2470 C2478 0.950 . S
H2471 C2480 0.950 1_655 S
H2472 C2482 0.950 . S
H2473 C2484 0.950 . S
H2474 C2486 0.950 1_455 S
H2475 C2487 0.950 . S
C2476 H2468 0.950 . S
C2476 C2477 1.386 . S
C2476 C2478 1.391 . S
C2477 C2476 1.386 . S
C2477 C2481 1.393 . S
C2478 H2470 0.950 . S
C2478 C2476 1.391 . S
C2478 C2479 1.400 . S
C2479 C2478 1.400 . S
C2479 C2480 1.398 . S
C2479 C2485 1.491 1_455 S
C2480 H2471 0.950 1_455 S
C2480 C2479 1.398 . S
C2480 C2481 1.391 . S
C2481 H2469 0.950 . S
C2481 C2477 1.393 . S
C2481 C2480 1.391 . S
C2482 H2472 0.950 . S
C2482 C2483 1.386 . S
C2482 C2484 1.391 . S
C2483 C2482 1.386 . S
C2483 C2487 1.393 . S
C2484 H2473 0.950 . S
C2484 C2482 1.391 . S
C2484 C2485 1.400 . S
C2485 C2479 1.491 1_655 S
C2485 C2484 1.400 . S
C2485 C2486 1.398 . S
C2486 H2474 0.950 1_655 S
C2486 C2485 1.398 . S
C2486 C2487 1.391 . S
C2487 H2475 0.950 . S
C2487 C2483 1.393 . S
C2487 C2486 1.391 . S
H2488 C2496 0.950 . S
H2489 C2501 0.950 . S
H2490 C2498 0.950 . S
H2491 C2500 0.950 . S
H2492 C2502 0.950 . S
H2493 C2504 0.950 . S
H2494 C2506 0.950 . S
H2495 C2507 0.950 . S
C2496 H2488 0.950 . S
C2496 C2497 1.386 . S
C2496 C2498 1.391 . S
C2497 C2496 1.386 . S
C2497 C2501 1.393 . S
C2498 H2490 0.950 . S
C2498 C2496 1.391 . S
C2498 C2499 1.400 . S
C2499 C2498 1.400 . S
C2499 C2500 1.398 . S
C2499 C2505 1.491 . S
C2500 H2491 0.950 . S
C2500 C2499 1.398 . S
C2500 C2501 1.391 . S
C2501 H2489 0.950 . S
C2501 C2497 1.393 . S
C2501 C2500 1.391 . S
C2502 H2492 0.950 . S
C2502 C2503 1.386 . S
C2502 C2504 1.391 . S
C2503 C2502 1.386 . S
C2503 C2507 1.393 . S
C2504 H2493 0.950 . S
C2504 C2502 1.391 . S
C2504 C2505 1.400 . S
C2505 C2499 1.491 . S
C2505 C2504 1.400 . S
C2505 C2506 1.398 . S
C2506 H2494 0.950 . S
C2506 C2505 1.398 . S
C2506 C2507 1.391 . S
C2507 H2495 0.950 . S
C2507 C2503 1.393 . S
C2507 C2506 1.391 . S
H2508 C2516 0.950 . S
H2509 C2521 0.950 . S
H2510 C2518 0.950 1_565 S
H2511 C2520 0.950 . S
H2512 C2522 0.950 . S
H2513 C2524 0.950 1_545 S
H2514 C2526 0.950 . S
H2515 C2527 0.950 . S
C2516 H2508 0.950 . S
C2516 C2517 1.386 . S
C2516 C2518 1.391 . S
C2517 C2516 1.386 . S
C2517 C2521 1.393 . S
C2518 H2510 0.950 1_545 S
C2518 C2516 1.391 . S
C2518 C2519 1.400 . S
C2519 C2518 1.400 . S
C2519 C2520 1.398 . S
C2519 C2525 1.491 1_545 S
C2520 H2511 0.950 . S
C2520 C2519 1.398 . S
C2520 C2521 1.391 . S
C2521 H2509 0.950 . S
C2521 C2517 1.393 . S
C2521 C2520 1.391 . S
C2522 H2512 0.950 . S
C2522 C2523 1.386 . S
C2522 C2524 1.391 . S
C2523 C2522 1.386 . S
C2523 C2527 1.393 . S
C2524 H2513 0.950 1_565 S
C2524 C2522 1.391 . S
C2524 C2525 1.400 . S
C2525 C2519 1.491 1_565 S
C2525 C2524 1.400 . S
C2525 C2526 1.398 . S
C2526 H2514 0.950 . S
C2526 C2525 1.398 . S
C2526 C2527 1.391 . S
C2527 H2515 0.950 . S
C2527 C2523 1.393 . S
C2527 C2526 1.391 . S
H2528 C2536 0.950 . S
H2529 C2541 0.950 . S
H2530 C2538 0.950 1_556 S
H2531 C2540 0.950 . S
H2532 C2542 0.950 . S
H2533 C2544 0.950 1_554 S
H2534 C2546 0.950 . S
H2535 C2547 0.950 . S
C2536 H2528 0.950 . S
C2536 C2537 1.386 . S
C2536 C2538 1.391 . S
C2537 C2536 1.386 . S
C2537 C2541 1.393 . S
C2538 H2530 0.950 1_554 S
C2538 C2536 1.391 . S
C2538 C2539 1.400 . S
C2539 C2538 1.400 . S
C2539 C2540 1.398 . S
C2539 C2545 1.491 1_554 S
C2540 H2531 0.950 . S
C2540 C2539 1.398 . S
C2540 C2541 1.391 . S
C2541 H2529 0.950 . S
C2541 C2537 1.393 . S
C2541 C2540 1.391 . S
C2542 H2532 0.950 . S
C2542 C2543 1.386 . S
C2542 C2544 1.391 . S
C2543 C2542 1.386 . S
C2543 C2547 1.393 . S
C2544 H2533 0.950 1_556 S
C2544 C2542 1.391 . S
C2544 C2545 1.400 . S
C2545 C2539 1.491 1_556 S
C2545 C2544 1.400 . S
C2545 C2546 1.398 . S
C2546 H2534 0.950 . S
C2546 C2545 1.398 . S
C2546 C2547 1.391 . S
C2547 H2535 0.950 . S
C2547 C2543 1.393 . S
C2547 C2546 1.391 . S
H2548 C2556 0.950 . S
H2549 C2561 0.950 . S
H2550 C2558 0.950 . S
H2551 C2560 0.950 1_545 S
H2552 C2562 0.950 . S
H2553 C2564 0.950 . S
H2554 C2566 0.950 . S
H2555 C2567 0.950 . S
C2556 H2548 0.950 . S
C2556 C2557 1.386 . S
C2556 C2558 1.391 . S
C2557 C2556 1.386 . S
C2557 C2561 1.393 . S
C2558 H2550 0.950 . S
C2558 C2556 1.391 . S
C2558 C2559 1.400 . S
C2559 C2558 1.400 . S
C2559 C2560 1.398 . S
C2559 C2565 1.487 1_565 S
C2560 H2551 0.950 1_565 S
C2560 C2559 1.398 . S
C2560 C2561 1.391 . S
C2561 H2549 0.950 . S
C2561 C2557 1.393 . S
C2561 C2560 1.391 . S
C2562 H2552 0.950 . S
C2562 C2563 1.386 . S
C2562 C2564 1.391 . S
C2563 C2562 1.386 . S
C2563 C2567 1.393 . S
C2564 H2553 0.950 . S
C2564 C2562 1.391 . S
C2564 C2565 1.405 . S
C2565 C2559 1.487 1_545 S
C2565 C2564 1.405 . S
C2565 C2566 1.397 1_545 S
C2566 H2554 0.950 . S
C2566 C2565 1.397 1_565 S
C2566 C2567 1.391 1_565 S
C2567 H2555 0.950 . S
C2567 C2563 1.393 . S
C2567 C2566 1.391 1_545 S
H2568 C2576 0.950 . S
H2569 C2581 0.950 . S
H2570 C2578 0.950 . S
H2571 C2580 0.950 . S
H2572 C2582 0.950 . S
H2573 C2584 0.950 . S
H2574 C2586 0.950 . S
H2575 C2587 0.950 . S
C2576 H2568 0.950 . S
C2576 C2577 1.386 . S
C2576 C2578 1.391 . S
C2577 C2576 1.386 . S
C2577 C2581 1.393 . S
C2578 H2570 0.950 . S
C2578 C2576 1.391 . S
C2578 C2579 1.400 . S
C2579 C2578 1.400 . S
C2579 C2580 1.398 . S
C2579 C2585 1.491 . S
C2580 H2571 0.950 . S
C2580 C2579 1.398 . S
C2580 C2581 1.391 . S
C2581 H2569 0.950 . S
C2581 C2577 1.393 . S
C2581 C2580 1.391 . S
C2582 H2572 0.950 . S
C2582 C2583 1.386 . S
C2582 C2584 1.391 . S
C2583 C2582 1.386 . S
C2583 C2587 1.393 . S
C2584 H2573 0.950 . S
C2584 C2582 1.391 . S
C2584 C2585 1.400 . S
C2585 C2579 1.491 . S
C2585 C2584 1.400 . S
C2585 C2586 1.398 . S
C2586 H2574 0.950 . S
C2586 C2585 1.398 . S
C2586 C2587 1.391 . S
C2587 H2575 0.950 . S
C2587 C2583 1.393 . S
C2587 C2586 1.391 . S
H2588 C2596 0.950 . S
H2589 C2601 0.950 . S
H2590 C2598 0.950 1_556 S
H2591 C2600 0.950 . S
H2592 C2602 0.950 . S
H2593 C2604 0.950 1_554 S
H2594 C2606 0.950 . S
H2595 C2607 0.950 . S
C2596 H2588 0.950 . S
C2596 C2597 1.386 . S
C2596 C2598 1.391 . S
C2597 C2596 1.386 . S
C2597 C2601 1.393 . S
C2598 H2590 0.950 1_554 S
C2598 C2596 1.391 . S
C2598 C2599 1.400 . S
C2599 C2598 1.400 . S
C2599 C2600 1.398 . S
C2599 C2605 1.491 1_554 S
C2600 H2591 0.950 . S
C2600 C2599 1.398 . S
C2600 C2601 1.391 . S
C2601 H2589 0.950 . S
C2601 C2597 1.393 . S
C2601 C2600 1.391 . S
C2602 H2592 0.950 . S
C2602 C2603 1.386 . S
C2602 C2604 1.391 . S
C2603 C2602 1.386 . S
C2603 C2607 1.393 . S
C2604 H2593 0.950 1_556 S
C2604 C2602 1.391 . S
C2604 C2605 1.400 . S
C2605 C2599 1.491 1_556 S
C2605 C2604 1.400 . S
C2605 C2606 1.398 . S
C2606 H2594 0.950 . S
C2606 C2605 1.398 . S
C2606 C2607 1.391 . S
C2607 H2595 0.950 . S
C2607 C2603 1.393 . S
C2607 C2606 1.391 . S
H2608 C2616 0.950 . S
H2609 C2621 0.950 . S
H2610 C2618 0.950 . S
H2611 C2620 0.950 . S
H2612 C2622 0.950 . S
H2613 C2624 0.950 . S
H2614 C2626 0.950 . S
H2615 C2627 0.950 . S
C2616 H2608 0.950 . S
C2616 C2617 1.386 . S
C2616 C2618 1.391 . S
C2617 C2616 1.386 . S
C2617 C2621 1.393 . S
C2618 H2610 0.950 . S
C2618 C2616 1.391 . S
C2618 C2619 1.400 . S
C2619 C2618 1.400 . S
C2619 C2620 1.398 . S
C2619 C2625 1.491 . S
C2620 H2611 0.950 . S
C2620 C2619 1.398 . S
C2620 C2621 1.391 . S
C2621 H2609 0.950 . S
C2621 C2617 1.393 . S
C2621 C2620 1.391 . S
C2622 H2612 0.950 . S
C2622 C2623 1.386 . S
C2622 C2624 1.391 . S
C2623 C2622 1.386 . S
C2623 C2627 1.393 . S
C2624 H2613 0.950 . S
C2624 C2622 1.391 . S
C2624 C2625 1.400 . S
C2625 C2619 1.491 . S
C2625 C2624 1.400 . S
C2625 C2626 1.398 . S
C2626 H2614 0.950 . S
C2626 C2625 1.398 . S
C2626 C2627 1.391 . S
C2627 H2615 0.950 . S
C2627 C2623 1.393 . S
C2627 C2626 1.391 . S
H2628 C2636 0.950 . S
H2629 C2641 0.950 . S
H2630 C2638 0.950 . S
H2631 C2640 0.950 . S
H2632 C2642 0.950 . S
H2633 C2644 0.950 . S
H2634 C2646 0.950 . S
H2635 C2647 0.950 . S
C2636 H2628 0.950 . S
C2636 C2637 1.386 . S
C2636 C2638 1.391 . S
C2637 C2636 1.386 . S
C2637 C2641 1.393 . S
C2638 H2630 0.950 . S
C2638 C2636 1.391 . S
C2638 C2639 1.400 . S
C2639 C2638 1.400 . S
C2639 C2640 1.398 . S
C2639 C2645 1.491 . S
C2640 H2631 0.950 . S
C2640 C2639 1.398 . S
C2640 C2641 1.391 . S
C2641 H2629 0.950 . S
C2641 C2637 1.393 . S
C2641 C2640 1.391 . S
C2642 H2632 0.950 . S
C2642 C2643 1.386 . S
C2642 C2644 1.391 . S
C2643 C2642 1.386 . S
C2643 C2647 1.393 . S
C2644 H2633 0.950 . S
C2644 C2642 1.391 . S
C2644 C2645 1.400 . S
C2645 C2639 1.491 . S
C2645 C2644 1.400 . S
C2645 C2646 1.398 . S
C2646 H2634 0.950 . S
C2646 C2645 1.398 . S
C2646 C2647 1.391 . S
C2647 H2635 0.950 . S
C2647 C2643 1.393 . S
C2647 C2646 1.391 . S
H2648 C2656 0.950 . S
H2649 C2661 0.950 . S
H2650 C2658 0.950 . S
H2651 C2660 0.950 . S
H2652 C2662 0.950 . S
H2653 C2664 0.950 . S
H2654 C2666 0.950 . S
H2655 C2667 0.950 . S
C2656 H2648 0.950 . S
C2656 C2657 1.386 . S
C2656 C2658 1.391 . S
C2657 C2656 1.386 . S
C2657 C2661 1.393 . S
C2658 H2650 0.950 . S
C2658 C2656 1.391 . S
C2658 C2659 1.400 . S
C2659 C2658 1.400 . S
C2659 C2660 1.398 . S
C2659 C2665 1.491 . S
C2660 H2651 0.950 . S
C2660 C2659 1.398 . S
C2660 C2661 1.391 . S
C2661 H2649 0.950 . S
C2661 C2657 1.393 . S
C2661 C2660 1.391 . S
C2662 H2652 0.950 . S
C2662 C2663 1.386 . S
C2662 C2664 1.391 . S
C2663 C2662 1.386 . S
C2663 C2667 1.393 . S
C2664 H2653 0.950 . S
C2664 C2662 1.391 . S
C2664 C2665 1.400 . S
C2665 C2659 1.491 . S
C2665 C2664 1.400 . S
C2665 C2666 1.398 . S
C2666 H2654 0.950 . S
C2666 C2665 1.398 . S
C2666 C2667 1.391 . S
C2667 H2655 0.950 . S
C2667 C2663 1.393 . S
C2667 C2666 1.391 . S
H2668 C2676 0.950 . S
H2669 C2681 0.950 . S
H2670 C2678 0.950 . S
H2671 C2680 0.950 . S
H2672 C2682 0.950 . S
H2673 C2684 0.950 . S
H2674 C2686 0.950 . S
H2675 C2687 0.950 . S
C2676 H2668 0.950 . S
C2676 C2677 1.386 . S
C2676 C2678 1.391 . S
C2677 C2676 1.386 . S
C2677 C2681 1.393 . S
C2678 H2670 0.950 . S
C2678 C2676 1.391 . S
C2678 C2679 1.400 . S
C2679 C2678 1.400 . S
C2679 C2680 1.398 . S
C2679 C2685 1.491 . S
C2680 H2671 0.950 . S
C2680 C2679 1.398 . S
C2680 C2681 1.391 . S
C2681 H2669 0.950 . S
C2681 C2677 1.393 . S
C2681 C2680 1.391 . S
C2682 H2672 0.950 . S
C2682 C2683 1.386 . S
C2682 C2684 1.391 . S
C2683 C2682 1.386 . S
C2683 C2687 1.393 . S
C2684 H2673 0.950 . S
C2684 C2682 1.391 . S
C2684 C2685 1.400 . S
C2685 C2679 1.491 . S
C2685 C2684 1.400 . S
C2685 C2686 1.398 . S
C2686 H2674 0.950 . S
C2686 C2685 1.398 . S
C2686 C2687 1.391 . S
C2687 H2675 0.950 . S
C2687 C2683 1.393 . S
C2687 C2686 1.391 . S
C777 C21 1.090 . S
C783 C274 1.073 . S
C797 C49 1.457 . S
C803 C310 1.593 . S
C817 C342 1.283 . S
C823 C85 1.249 . S
C837 C370 1.043 . S
C843 C117 1.014 . S
C857 C149 1.067 . S
C863 C374 1.088 . S
C877 C181 1.226 . S
C883 C278 1.223 . S
C897 C209 1.322 . S
C903 C306 1.449 . S
C917 C338 1.090 . S
C923 C245 1.077 . S
C937 C402 1.100 . S
C943 C277 1.110 . S
C957 C305 1.499 . S
C963 C534 1.670 . S
C977 C337 1.624 . S
C983 C470 1.784 . S
C997 C502 1.277 . S
C1003 C373 1.254 . S
C1017 C369 1.690 . S
C1023 C630 1.850 . S
C1037 C566 1.597 . S
C1043 C273 1.445 . S
C1057 C309 1.073 . S
C1063 C598 1.099 . S
C1077 C434 1.292 . S
C1083 C341 1.271 . S
C1097 C405 1.337 . S
C1103 C18 1.315 . S
C1117 C241 1.518 . S
C1123 C562 1.631 . S
C1137 C594 1.516 . S
C1143 C145 1.393 . S
C1157 C438 1.932 . S
C1163 C177 1.744 . S
C1177 C242 1.221 . S
C1183 C437 1.204 . S
C1197 C82 1.535 . S
C1203 C465 1.365 . S
C1217 C466 1.590 . S
C1223 C17 1.424 . S
C1237 C406 1.905 . S
C1243 C81 1.718 . S
C1257 C501 1.062 . S
C1263 C658 1.038 . S
C1277 C401 1.411 . S
C1283 C694 1.575 . S
C1297 C726 1.297 . S
C1303 C533 1.294 . S
C1317 C469 1.049 . S
C1323 C758 1.051 . S
C1337 C754 1.023 . S
C1343 C565 1.046 . S
C1357 C662 1.220 . S
C1363 C597 1.185 . S
C1377 C433 1.318 . S
C1383 C690 1.468 . S
C1397 C722 1.129 . S
C1403 C629 1.115 . S
C1417 C50 1.121 . S
C1423 C661 1.142 . S
C1437 C689 1.491 . S
C1443 C86 1.667 . S
C1457 C118 1.632 . S
C1463 C721 1.506 . S
C1477 C22 1.841 . S
C1483 C753 1.682 . S
C1497 C757 1.284 . S
C1503 C246 1.304 . S
C1517 C657 1.557 . S
C1523 C150 1.732 . S
C1537 C693 1.102 . S
C1543 C182 1.092 . S
C1557 C725 1.255 . S
C1563 C210 1.268 . S
C1577 C53 1.295 . S
C1583 C498 1.273 . S
C1597 C146 1.578 . S
C1603 C625 1.453 . S
C1617 C561 1.471 . S
C1623 C178 1.606 . S
C1637 C214 1.952 . S
C1643 C593 1.779 . S
C1657 C213 1.271 . S
C1663 C626 1.244 . S
C1677 C113 1.455 . S
C1683 C530 1.618 . S
C1697 C497 1.499 . S
C1703 C114 1.643 . S
C1717 C529 1.712 . S
C1723 C54 1.876 . S
C1737 C16 1.813 . S
C1743 C311 1.771 . S
C1757 C343 2.081 . S
C1763 C55 2.078 . S
C1777 C368 1.540 . S
C1783 C80 1.542 . S
C1797 C272 1.569 . S
C1803 C112 1.558 . S
C1817 C336 1.596 . S
C1823 C144 1.601 . S
C1837 C375 1.711 . S
C1843 C176 1.749 . S
C1857 C279 1.937 . S
C1863 C215 1.935 . S
C1877 C240 1.560 . S
C1883 C304 1.559 . S
C1897 C151 1.698 . S
C1903 C400 1.740 . S
C1917 C247 2.031 . S
C1923 C503 2.030 . S
C1937 C535 1.994 . S
C1943 C183 1.993 . S
C1957 C432 1.905 . S
C1963 C119 1.857 . S
C1977 C208 1.829 . S
C1983 C471 1.766 . S
C1997 C23 2.037 . S
C2003 C631 2.039 . S
C2017 C599 1.868 . S
C2023 C87 1.867 . S
C2037 C695 1.711 . S
C2043 C496 1.758 . S
C2057 C727 1.955 . S
C2063 C407 1.953 . S
C2077 C528 1.786 . S
C2083 C759 1.735 . S
C2097 C656 1.557 . S
C2103 C464 1.564 . S
C2117 C720 1.603 . S
C2123 C560 1.603 . S
C2137 C752 1.503 . S
C2143 C592 1.507 . S
C2157 C439 2.073 . S
C2163 C663 2.076 . S
C2177 C688 1.609 . S
C2183 C624 1.613 . S
C2197 C48 1.817 . S
C2203 C567 1.753 . S
C2217 C148 1.612 . S
C2223 C20 1.610 . S
C2237 C180 1.914 . S
C2243 C51 1.834 . S
C2257 C211 1.712 . S
C2263 C84 1.805 . S
C2277 C244 1.601 . S
C2283 C116 1.601 . S
C2297 C308 1.752 . S
C2303 C276 1.751 . S
C2317 C340 1.950 . S
C2323 C307 1.884 . S
C2337 C339 2.122 . S
C2343 C371 2.149 . S
C2357 C275 1.857 . S
C2363 C372 1.946 . S
C2377 C404 1.925 . S
C2383 C115 1.836 . S
C2397 C243 2.138 . S
C2403 C595 2.128 . S
C2417 C436 1.874 . S
C2423 C147 1.798 . S
C2437 C179 2.086 . S
C2443 C627 2.078 . S
C2457 C52 1.984 . S
C2463 C467 1.912 . S
C2477 C19 1.982 . S
C2483 C531 2.002 . S
C2497 C83 2.036 . S
C2503 C499 2.054 . S
C2517 C564 1.662 . S
C2523 C500 1.665 . S
C2537 C403 1.730 . S
C2543 C596 1.797 . S
C2557 C435 1.857 . S
C2563 C532 1.929 . S
C2577 C468 1.539 . S
C2583 C628 1.540 . S
C2597 C692 1.768 . S
C2603 C660 1.771 . S
C2617 C724 1.935 . S
C2623 C691 1.851 . S
C2637 C756 1.962 . S
C2643 C723 1.888 . S
C2657 C755 2.131 . S
C2663 C659 2.115 . S
C2677 C212 1.817 . S
C2683 C563 1.755 . S
