# Generated by pormake.
# Topology zfb, (5)-cn, num edge types: 1
# Building blocks:
#     Node 0, Type 0, BuildingBlock: BEQFEK_clean_sbu_0, # of connection points: 5
#     Node 1, Type 0, BuildingBlock: BEQFEK_clean_sbu_0, # of connection points: 5
#     Node 2, Type 0, BuildingBlock: BEQFEK_clean_sbu_0, # of connection points: 5
#     Node 3, Type 0, BuildingBlock: BEQFEK_clean_sbu_0, # of connection points: 5
#     Node 4, Type 0, BuildingBlock: BEQFEK_clean_sbu_0, # of connection points: 5
#     Node 5, Type 0, BuildingBlock: BEQFEK_clean_sbu_0, # of connection points: 5
#     Node 6, Type 0, BuildingBlock: BEQFEK_clean_sbu_0, # of connection points: 5
#     Node 7, Type 0, BuildingBlock: BEQFEK_clean_sbu_0, # of connection points: 5
#     Edge 8, Type (0, 0), BuildingBlock: KIFKEQ_clean_linker_1, # of connection points: 2
#     Edge 9, Type (0, 0), BuildingBlock: KIFKEQ_clean_linker_1, # of connection points: 2
#     Edge 10, Type (0, 0), BuildingBlock: KIFKEQ_clean_linker_1, # of connection points: 2
#     Edge 11, Type (0, 0), BuildingBlock: KIFKEQ_clean_linker_1, # of connection points: 2
#     Edge 12, Type (0, 0), BuildingBlock: KIFKEQ_clean_linker_1, # of connection points: 2
#     Edge 13, Type (0, 0), BuildingBlock: KIFKEQ_clean_linker_1, # of connection points: 2
#     Edge 14, Type (0, 0), BuildingBlock: KIFKEQ_clean_linker_1, # of connection points: 2
#     Edge 15, Type (0, 0), BuildingBlock: KIFKEQ_clean_linker_1, # of connection points: 2
#     Edge 16, Type (0, 0), BuildingBlock: KIFKEQ_clean_linker_1, # of connection points: 2
#     Edge 17, Type (0, 0), BuildingBlock: KIFKEQ_clean_linker_1, # of connection points: 2
#     Edge 18, Type (0, 0), BuildingBlock: KIFKEQ_clean_linker_1, # of connection points: 2
#     Edge 19, Type (0, 0), BuildingBlock: KIFKEQ_clean_linker_1, # of connection points: 2
#     Edge 20, Type (0, 0), BuildingBlock: KIFKEQ_clean_linker_1, # of connection points: 2
#     Edge 21, Type (0, 0), BuildingBlock: KIFKEQ_clean_linker_1, # of connection points: 2
#     Edge 22, Type (0, 0), BuildingBlock: KIFKEQ_clean_linker_1, # of connection points: 2
#     Edge 23, Type (0, 0), BuildingBlock: KIFKEQ_clean_linker_1, # of connection points: 2
#     Edge 24, Type (0, 0), BuildingBlock: KIFKEQ_clean_linker_1, # of connection points: 2
#     Edge 25, Type (0, 0), BuildingBlock: KIFKEQ_clean_linker_1, # of connection points: 2
#     Edge 26, Type (0, 0), BuildingBlock: KIFKEQ_clean_linker_1, # of connection points: 2
#     Edge 27, Type (0, 0), BuildingBlock: KIFKEQ_clean_linker_1, # of connection points: 2
# Relax obj value: 0.117
# Max RMSD: 0.139
# Mean RMSD: 0.139
data_MOF--net-zfb--node1-BEQFEK_clean_sbu_0--edge1-KIFKEQ_clean_linker_1
_symmetry_space_group_name_H-M    P1
_symmetry_Int_Tables_number       1
_symmetry_cell_setting            triclinic
loop_
_symmetry_equiv_pos_as_xyz
'x, y, z'
_cell_length_a     31.00977
_cell_length_b     31.040085
_cell_length_c     39.185639
_cell_angle_alpha  90.010622
_cell_angle_beta   90.025728
_cell_angle_gamma 89.908228
loop_
_atom_site_label
_atom_site_type_symbol
_atom_site_fract_x
_atom_site_fract_y
_atom_site_fract_z
_atom_type_partial_charge
Co0 Co 0.20735 0.36508 0.08541 0.0
Co1 Co 0.20771 0.37248 0.00503 0.0
C2 C 0.13138 0.39946 0.04532 0.0
O3 O 0.15037 0.38977 0.07317 0.0
O4 O 0.14908 0.39301 0.01639 0.0
C5 C 0.17376 0.33899 0.15096 0.0
O6 O 0.13856 0.33143 0.13327 0.0
C7 C 0.18894 0.36447 0.93107 0.0
C8 C 0.25426 0.37434 0.90994 0.0
C9 C 0.21195 0.36622 0.90053 0.0
N10 N 0.21666 0.37107 0.95697 0.0
N11 N 0.2555 0.37729 0.9441 0.0
C12 C 0.14229 0.35396 0.93614 0.0
H13 H 0.13644 0.34269 0.96259 0.0
H14 H 0.13184 0.32879 0.91781 0.0
H15 H 0.1227 0.3834 0.93183 0.0
C16 C 0.2214 0.2724 0.06677 0.0
N17 N 0.21841 0.31457 0.05861 0.0
N18 N 0.21895 0.31822 0.02513 0.0
C19 C 0.22281 0.27882 0.01101 0.0
C20 C 0.22428 0.24838 0.03689 0.0
C21 C 0.21962 0.25527 0.1024 0.0
H22 H 0.23917 0.27589 0.11955 0.0
H23 H 0.18573 0.25601 0.11143 0.0
H24 H 0.23164 0.2216 0.10359 0.0
O25 O 0.24924 0.41299 0.07756 0.0
O26 O 0.24722 0.41713 0.02118 0.0
H27 H 0.24582 0.288 0.96007 0.0
H28 H 0.22244 0.23558 0.96724 0.0
C29 C 0.21985 0.27028 0.97347 0.0
H30 H 0.18842 0.28214 0.9639 0.0
H31 H 0.28301 0.38307 0.95875 0.0
O32 O 0.20724 0.35237 0.13548 0.0
C33 C 0.26065 0.43093 0.04975 0.0
Co34 Co 0.63267 0.20108 0.58379 0.0
Co35 Co 0.62626 0.20576 0.50331 0.0
C36 C 0.5982 0.12784 0.54178 0.0
O37 O 0.60803 0.14518 0.57022 0.0
O38 O 0.60481 0.14693 0.51344 0.0
C39 C 0.61755 0.18243 0.65368 0.0
O40 O 0.58115 0.16869 0.64042 0.0
C41 C 0.63885 0.18605 0.43042 0.0
C42 C 0.62175 0.24848 0.40675 0.0
C43 C 0.63482 0.2069 0.3992 0.0
N44 N 0.62884 0.21427 0.45522 0.0
N45 N 0.61863 0.25147 0.4409 0.0
C46 C 0.64786 0.13937 0.4369 0.0
H47 H 0.61697 0.12297 0.44274 0.0
H48 H 0.66899 0.13587 0.45961 0.0
H49 H 0.66263 0.12327 0.41456 0.0
C50 C 0.72568 0.20983 0.56625 0.0
N51 N 0.68358 0.21129 0.55758 0.0
N52 N 0.68046 0.21516 0.52423 0.0
C53 C 0.7203 0.21788 0.51073 0.0
C54 C 0.75048 0.21377 0.53675 0.0
C55 C 0.74122 0.19892 0.60138 0.0
H56 H 0.72081 0.1731 0.61237 0.0
H57 H 0.77528 0.188 0.60134 0.0
H58 H 0.73808 0.22778 0.61792 0.0
O59 O 0.58484 0.24361 0.57619 0.0
O60 O 0.58174 0.24535 0.5197 0.0
H61 H 0.76226 0.2373 0.46942 0.0
H62 H 0.72615 0.19339 0.45992 0.0
C63 C 0.72928 0.22452 0.47356 0.0
H64 H 0.70577 0.24764 0.46268 0.0
H65 H 0.60926 0.27885 0.45447 0.0
O66 O 0.64572 0.19873 0.63393 0.0
C67 C 0.56737 0.25688 0.54864 0.0
Co68 Co 0.79469 0.62866 0.0846 0.0
Co69 Co 0.79761 0.62316 1.00426 0.0
C70 C 0.87224 0.5952 0.04582 0.0
O71 O 0.85212 0.6038 0.07339 0.0
O72 O 0.85572 0.60275 0.01665 0.0
C73 C 0.82668 0.65477 0.15049 0.0
O74 O 0.8618 0.66309 0.13296 0.0
C75 C 0.82068 0.63228 0.93157 0.0
C76 C 0.75767 0.61943 0.90713 0.0
C77 C 0.80036 0.62878 0.90015 0.0
N78 N 0.79112 0.62545 0.95605 0.0
N79 N 0.75359 0.61775 0.94126 0.0
C80 C 0.8678 0.63812 0.93843 0.0
H81 H 0.88294 0.6059 0.94124 0.0
H82 H 0.87262 0.65589 0.9627 0.0
H83 H 0.88413 0.65516 0.91724 0.0
C84 C 0.78111 0.722 0.06665 0.0
N85 N 0.78475 0.67994 0.05817 0.0
N86 N 0.78554 0.67687 0.02465 0.0
C87 C 0.78199 0.71644 0.01082 0.0
C88 C 0.77921 0.74646 0.03691 0.0
C89 C 0.78115 0.73864 0.10245 0.0
H90 H 0.76143 0.71737 0.11894 0.0
H91 H 0.8147 0.73855 0.11229 0.0
H92 H 0.76838 0.77204 0.1036 0.0
O93 O 0.75264 0.58097 0.0752 0.0
O94 O 0.75763 0.57829 0.01888 0.0
H95 H 0.76069 0.70812 0.95929 0.0
H96 H 0.78412 0.76032 0.9675 0.0
C97 C 0.7863 0.7255 0.97343 0.0
H98 H 0.81797 0.71355 0.96443 0.0
H99 H 0.72521 0.61104 0.95452 0.0
O100 O 0.79358 0.64074 0.13481 0.0
C101 C 0.74265 0.56377 0.04672 0.0
Co102 Co 0.36774 0.796 0.58488 0.0
Co103 Co 0.37348 0.79109 0.50428 0.0
C104 C 0.40385 0.86819 0.54243 0.0
O105 O 0.39407 0.851 0.57089 0.0
O106 O 0.39628 0.84937 0.51417 0.0
C107 C 0.34822 0.83585 0.6492 0.0
O108 O 0.34729 0.87048 0.62995 0.0
C109 C 0.35789 0.81009 0.43145 0.0
C110 C 0.38205 0.7503 0.4074 0.0
C111 C 0.36439 0.79023 0.40015 0.0
N112 N 0.37092 0.7829 0.45613 0.0
N113 N 0.38523 0.74723 0.44154 0.0
C114 C 0.34281 0.85524 0.43773 0.0
H115 H 0.36434 0.87814 0.42424 0.0
H116 H 0.34239 0.86261 0.4654 0.0
H117 H 0.30983 0.85972 0.42744 0.0
C118 C 0.27419 0.78691 0.56759 0.0
N119 N 0.3163 0.78621 0.5588 0.0
N120 N 0.31927 0.78232 0.52542 0.0
C121 C 0.27937 0.77896 0.51208 0.0
C122 C 0.24929 0.78267 0.53813 0.0
C123 C 0.2587 0.79728 0.60282 0.0
H124 H 0.27091 0.82949 0.61022 0.0
H125 H 0.22307 0.79769 0.60468 0.0
H126 H 0.27206 0.77343 0.62109 0.0
O127 O 0.41471 0.75244 0.57723 0.0
O128 O 0.4175 0.75092 0.52071 0.0
H129 H 0.29446 0.74974 0.46386 0.0
H130 H 0.23764 0.7574 0.47135 0.0
C131 C 0.27008 0.77172 0.47503 0.0
H132 H 0.27121 0.80294 0.46138 0.0
H133 H 0.39768 0.72094 0.45491 0.0
O134 O 0.35542 0.79947 0.63523 0.0
C135 C 0.43188 0.73906 0.54957 0.0
Co136 Co 0.69815 0.12896 0.97341 0.0
Co137 Co 0.70994 0.12376 0.05356 0.0
C138 C 0.6287 0.09494 0.01891 0.0
O139 O 0.6425 0.10545 0.98944 0.0
O140 O 0.65127 0.10087 0.04569 0.0
C141 C 0.65732 0.14923 0.90921 0.0
O142 O 0.62275 0.15078 0.92855 0.0
C143 C 0.6925 0.13652 0.12664 0.0
C144 C 0.7561 0.12141 0.14931 0.0
C145 C 0.7143 0.13322 0.15752 0.0
N146 N 0.72037 0.12733 0.1014 0.0
N147 N 0.75828 0.11834 0.11511 0.0
C148 C 0.64534 0.14395 0.12091 0.0
H149 H 0.63002 0.1128 0.11418 0.0
H150 H 0.64065 0.16605 0.09895 0.0
H151 H 0.62899 0.15691 0.14383 0.0
C152 C 0.71001 0.22231 0.98963 0.0
N153 N 0.71115 0.18031 0.99861 0.0
N154 N 0.71716 0.17763 0.0318 0.0
C155 C 0.72105 0.21758 0.04486 0.0
C156 C 0.71592 0.2474 0.01878 0.0
C157 C 0.6974 0.2376 0.9548 0.0
H158 H 0.66438 0.22607 0.94901 0.0
H159 H 0.69768 0.27317 0.95267 0.0
H160 H 0.7196 0.22353 0.93559 0.0
O161 O 0.74036 0.08032 0.98024 0.0
O162 O 0.74935 0.07981 0.03637 0.0
H163 H 0.74129 0.26037 0.08542 0.0
H164 H 0.69881 0.22318 0.09631 0.0
C165 C 0.72921 0.22707 0.08176 0.0
H166 H 0.75346 0.20426 0.09203 0.0
H167 H 0.78556 0.10967 0.1011 0.0
O168 O 0.6936 0.14102 0.92304 0.0
C169 C 0.75709 0.06405 0.0071 0.0
Co170 Co 0.86794 0.70251 0.47406 0.0
Co171 Co 0.87302 0.70686 0.5544 0.0
C172 C 0.90225 0.62905 0.51595 0.0
O173 O 0.89187 0.64528 0.48717 0.0
O174 O 0.8959 0.64924 0.54382 0.0
C175 C 0.84311 0.66876 0.40811 0.0
O176 O 0.83552 0.63349 0.42562 0.0
C177 C 0.86573 0.68584 0.62749 0.0
C178 C 0.87309 0.75039 0.65071 0.0
C179 C 0.86754 0.70729 0.65853 0.0
N180 N 0.86981 0.71513 0.60244 0.0
N181 N 0.87423 0.75359 0.6165 0.0
C182 C 0.86414 0.63825 0.62144 0.0
H183 H 0.89697 0.62689 0.61464 0.0
H184 H 0.84264 0.63106 0.59953 0.0
H185 H 0.85335 0.62036 0.64434 0.0
C186 C 0.77421 0.71582 0.49096 0.0
N187 N 0.81632 0.714 0.49977 0.0
N188 N 0.81913 0.7157 0.53327 0.0
C189 C 0.77932 0.71876 0.54678 0.0
C190 C 0.74938 0.71888 0.52047 0.0
C191 C 0.75794 0.71303 0.45511 0.0
H192 H 0.77877 0.73237 0.43799 0.0
H193 H 0.75919 0.67897 0.44658 0.0
H194 H 0.72416 0.72468 0.45323 0.0
O195 O 0.91627 0.74443 0.48257 0.0
O196 O 0.91666 0.74744 0.53901 0.0
H197 H 0.78497 0.74389 0.59741 0.0
H198 H 0.73522 0.71517 0.58996 0.0
C199 C 0.77018 0.71594 0.58425 0.0
H200 H 0.78494 0.68618 0.59458 0.0
H201 H 0.87846 0.782 0.60268 0.0
O202 O 0.85631 0.70217 0.42378 0.0
C203 C 0.9323 0.75848 0.51041 0.0
Co204 Co 0.30098 0.86468 0.9746 0.0
Co205 Co 0.29069 0.87103 0.05466 0.0
C206 C 0.37197 0.89765 0.01953 0.0
O207 O 0.35765 0.88693 0.99021 0.0
O208 O 0.34956 0.8926 0.04649 0.0
C209 C 0.32395 0.87773 0.90496 0.0
O210 O 0.3402 0.91314 0.91806 0.0
C211 C 0.3074 0.86269 0.12834 0.0
C212 C 0.24158 0.86934 0.14946 0.0
C213 C 0.28425 0.86321 0.15865 0.0
N214 N 0.27949 0.86785 0.1024 0.0
N215 N 0.24027 0.87196 0.1152 0.0
C216 C 0.35532 0.86103 0.12385 0.0
H217 H 0.36666 0.89321 0.11552 0.0
H218 H 0.36374 0.83776 0.10341 0.0
H219 H 0.37235 0.85252 0.14777 0.0
C220 C 0.28557 0.77223 0.99111 0.0
N221 N 0.28663 0.8142 1.00004 0.0
N222 N 0.28247 0.81712 0.03338 0.0
C223 C 0.27838 0.77734 0.04671 0.0
C224 C 0.28029 0.74744 0.0204 0.0
C225 C 0.29167 0.75636 0.95539 0.0
H226 H 0.27047 0.77483 0.93787 0.0
H227 H 0.32555 0.76205 0.9475 0.0
H228 H 0.28421 0.72152 0.95317 0.0
O229 O 0.25983 0.91406 0.9809 0.0
O230 O 0.25194 0.9155 0.03712 0.0
H231 H 0.25026 0.7836 0.09631 0.0
H232 H 0.27842 0.73325 0.09001 0.0
C233 C 0.2787 0.76817 0.08425 0.0
H234 H 0.30812 0.78219 0.09572 0.0
H235 H 0.21259 0.87664 0.1005 0.0
O236 O 0.30504 0.85126 0.9247 0.0
C237 C 0.24383 0.93091 0.00778 0.0
Co238 Co 0.13111 0.2949 0.4747 0.0
Co239 Co 0.12584 0.29083 0.55504 0.0
C240 C 0.09634 0.36835 0.51618 0.0
O241 O 0.10691 0.35211 0.48745 0.0
O242 O 0.10267 0.34823 0.54408 0.0
C243 C 0.15583 0.328 0.40854 0.0
O244 O 0.16334 0.3635 0.4258 0.0
C245 C 0.13454 0.31309 0.62782 0.0
C246 C 0.12662 0.24915 0.65191 0.0
C247 C 0.13334 0.29226 0.65914 0.0
N248 N 0.1291 0.28344 0.60319 0.0
N249 N 0.12421 0.24536 0.61777 0.0
C250 C 0.13712 0.36051 0.62113 0.0
H251 H 0.10481 0.37217 0.61318 0.0
H252 H 0.15963 0.36684 0.59972 0.0
H253 H 0.14712 0.37885 0.64405 0.0
C254 C 0.22474 0.28168 0.4917 0.0
N255 N 0.18266 0.28371 0.50051 0.0
N256 N 0.17984 0.28197 0.53401 0.0
C257 C 0.21965 0.27856 0.54752 0.0
C258 C 0.24955 0.27838 0.5212 0.0
C259 C 0.24099 0.28434 0.45585 0.0
H260 H 0.22023 0.26479 0.4388 0.0
H261 H 0.23956 0.31834 0.4472 0.0
H262 H 0.27481 0.27282 0.45401 0.0
O263 O 0.08317 0.25275 0.48334 0.0
O264 O 0.08253 0.2497 0.5398 0.0
H265 H 0.21291 0.25337 0.59805 0.0
H266 H 0.26382 0.28001 0.59076 0.0
C267 C 0.22887 0.28074 0.58501 0.0
H268 H 0.2154 0.31104 0.59544 0.0
H269 H 0.11911 0.21677 0.60436 0.0
O270 O 0.14273 0.29475 0.42445 0.0
C271 C 0.06717 0.23851 0.51112 0.0
H272 H 0.19897 0.97199 0.0581 0.0
H273 H 0.24667 0.98957 0.95546 0.0
H274 H 0.18938 0.04926 0.06382 0.0
H275 H 0.23574 0.06711 0.96085 0.0
H276 H 0.28155 0.19732 1.00368 0.0
H277 H 0.27614 0.1201 0.99264 0.0
H278 H 0.15595 0.11622 0.04843 0.0
H279 H 0.16217 0.19357 0.05988 0.0
C280 C 0.20598 0.99221 0.03627 0.0
C281 C 0.22435 0.97456 0.00652 0.0
C282 C 0.20044 0.03669 0.03957 0.0
C283 C 0.2129 0.06458 0.01314 0.0
C284 C 0.22699 0.04658 0.98208 0.0
C285 C 0.2326 0.002 0.97877 0.0
C286 C 0.25415 0.17974 0.01365 0.0
C287 C 0.22239 0.20108 0.0327 0.0
C288 C 0.25066 0.13567 0.00697 0.0
C289 C 0.21523 0.11193 0.01918 0.0
C290 C 0.18371 0.1334 0.03872 0.0
C291 C 0.18732 0.17757 0.04545 0.0
H292 H 0.00905 0.23073 0.45842 0.0
H293 H 0.02762 0.19943 0.56494 0.0
H294 H 0.93181 0.21678 0.46454 0.0
H295 H 0.95064 0.18639 0.57093 0.0
H296 H 0.81348 0.25221 0.57458 0.0
H297 H 0.8916 0.24621 0.56715 0.0
H298 H 0.8725 0.15994 0.48211 0.0
H299 H 0.79439 0.16438 0.49053 0.0
C300 C 0.99705 0.21945 0.48278 0.0
C301 C 0.02449 0.21697 0.51131 0.0
C302 C 0.95275 0.2117 0.48631 0.0
C303 C 0.93527 0.20158 0.51843 0.0
C304 C 0.96324 0.19501 0.54607 0.0
C305 C 0.0074 0.20223 0.54249 0.0
C306 C 0.82601 0.23141 0.55471 0.0
C307 C 0.79788 0.20908 0.533 0.0
C308 C 0.87064 0.22796 0.55043 0.0
C309 C 0.888 0.20254 0.52404 0.0
C310 C 0.85992 0.17993 0.50248 0.0
C311 C 0.81529 0.18276 0.50718 0.0
H312 H 0.75477 0.00481 0.95508 0.0
H313 H 0.80212 0.02363 0.05772 0.0
H314 H 0.7661 0.92739 0.96094 0.0
H315 H 0.81193 0.94648 0.06397 0.0
H316 H 0.83976 0.80219 0.06122 0.0
H317 H 0.8453 0.87959 0.04975 0.0
H318 H 0.72643 0.87407 0.99219 0.0
H319 H 0.72186 0.7968 1.00313 0.0
C320 C 0.7688 0.99268 0.9785 0.0
C321 C 0.77686 0.02047 0.0061 0.0
C322 C 0.77462 0.94815 0.9821 0.0
C323 C 0.78866 0.93049 0.01332 0.0
C324 C 0.80091 0.95873 0.0396 0.0
C325 C 0.79524 0.00317 0.03599 0.0
C326 C 0.81473 0.81786 0.04642 0.0
C327 C 0.78032 0.79385 0.03311 0.0
C328 C 0.81794 0.86207 0.03968 0.0
C329 C 0.78664 0.88312 0.0196 0.0
C330 C 0.75178 0.85888 0.00694 0.0
C331 C 0.74873 0.81478 0.01358 0.0
H332 H 0.9909 0.76605 0.45798 0.0
H333 H 0.97203 0.79659 0.56461 0.0
H334 H 0.06829 0.77934 0.46454 0.0
H335 H 0.04911 0.80872 0.57103 0.0
H336 H 0.18612 0.7411 0.5738 0.0
H337 H 0.108 0.74686 0.56583 0.0
H338 H 0.12748 0.83772 0.48396 0.0
H339 H 0.20555 0.83368 0.4931 0.0
C340 C 0.00288 0.77699 0.48245 0.0
C341 C 0.97526 0.77952 0.51087 0.0
C342 C 0.04724 0.78433 0.48624 0.0
C343 C 0.06461 0.79401 0.51849 0.0
C344 C 0.03656 0.80049 0.54605 0.0
C345 C 0.99234 0.79377 0.54222 0.0
C346 C 0.17367 0.76299 0.55464 0.0
C347 C 0.20187 0.787 0.53417 0.0
C348 C 0.12906 0.76619 0.54997 0.0
C349 C 0.11183 0.79286 0.52432 0.0
C350 C 0.13998 0.81685 0.5038 0.0
C351 C 0.18457 0.81432 0.50896 0.0
H352 H 0.73099 0.50554 0.09881 0.0
H353 H 0.70767 0.52453 0.99109 0.0
H354 H 0.71685 0.42846 0.0919 0.0
H355 H 0.69422 0.44779 0.98434 0.0
H356 H 0.75674 0.30992 0.98214 0.0
H357 H 0.75157 0.38799 0.98973 0.0
H358 H 0.66186 0.36968 0.07266 0.0
H359 H 0.6658 0.29155 0.06415 0.0
C360 C 0.72138 0.49365 0.07396 0.0
C361 C 0.72116 0.52113 0.04542 0.0
C362 C 0.71352 0.44945 0.06997 0.0
C363 C 0.7055 0.43212 0.03741 0.0
C364 C 0.70124 0.4602 0.00958 0.0
C365 C 0.70867 0.50423 0.01357 0.0
C366 C 0.7353 0.32265 1.0015 0.0
C367 C 0.71166 0.29477 0.02248 0.0
C368 C 0.73234 0.36725 0.00591 0.0
C369 C 0.70615 0.38486 0.03173 0.0
C370 C 0.68239 0.35697 0.05268 0.0
C371 C 0.68481 0.31236 0.04787 0.0
H372 H 0.47223 0.69692 0.49742 0.0
H373 H 0.49045 0.73709 0.602 0.0
H374 H 0.54957 0.68674 0.4913 0.0
H375 H 0.56797 0.72586 0.59607 0.0
H376 H 0.69777 0.77496 0.55437 0.0
H377 H 0.62045 0.76903 0.56497 0.0
H378 H 0.6169 0.65129 0.50613 0.0
H379 H 0.69454 0.65773 0.49543 0.0
C380 C 0.49258 0.70208 0.51953 0.0
C381 C 0.47513 0.71854 0.55005 0.0
C382 C 0.53706 0.69624 0.51598 0.0
C383 C 0.56512 0.70664 0.54289 0.0
C384 C 0.54727 0.71869 0.57454 0.0
C385 C 0.50271 0.72448 0.57812 0.0
C386 C 0.6803 0.74794 0.54366 0.0
C387 C 0.7019 0.71687 0.52408 0.0
C388 C 0.63616 0.74417 0.55006 0.0
C389 C 0.6125 0.70925 0.53691 0.0
C390 C 0.6341 0.67858 0.51664 0.0
C391 C 0.67841 0.68236 0.51031 0.0
H392 H 0.26257 0.4893 0.10208 0.0
H393 H 0.30258 0.47096 0.99748 0.0
H394 H 0.27382 0.56675 0.09612 0.0
H395 H 0.31326 0.54827 0.99147 0.0
H396 H 0.34382 0.69334 0.99794 0.0
H397 H 0.35031 0.61569 0.00858 0.0
H398 H 0.22903 0.61812 0.06279 0.0
H399 H 0.22268 0.69533 0.05191 0.0
C400 C 0.27526 0.50152 0.07823 0.0
C401 C 0.2811 0.47402 0.05011 0.0
C402 C 0.2811 0.54599 0.07466 0.0
C403 C 0.29331 0.56369 0.04305 0.0
C404 C 0.30366 0.53571 0.0161 0.0
C405 C 0.29756 0.49133 0.01959 0.0
C406 C 0.31841 0.67697 0.01175 0.0
C407 C 0.28271 0.70006 0.0241 0.0
C408 C 0.32226 0.63271 0.01807 0.0
C409 C 0.29058 0.61091 0.03706 0.0
C410 C 0.25456 0.63413 0.04886 0.0
C411 C 0.25062 0.67817 0.04233 0.0
H412 H 0.30443 0.33965 0.49662 0.0
H413 H 0.30112 0.22155 0.55442 0.0
H414 H 0.38221 0.34551 0.50696 0.0
H415 H 0.37859 0.22691 0.56467 0.0
H416 H 0.50921 0.25812 0.60129 0.0
H417 H 0.43165 0.26956 0.59587 0.0
H418 H 0.44904 0.30958 0.49123 0.0
H419 H 0.52643 0.29914 0.49683 0.0
C420 C 0.32056 0.31473 0.5112 0.0
C421 C 0.29704 0.28014 0.52475 0.0
C422 C 0.36495 0.31817 0.51731 0.0
C423 C 0.38656 0.28706 0.53713 0.0
C424 C 0.36285 0.25208 0.55009 0.0
C425 C 0.31863 0.24865 0.54391 0.0
C426 C 0.49672 0.27094 0.57755 0.0
C427 C 0.52401 0.27712 0.54935 0.0
C428 C 0.45214 0.27686 0.57426 0.0
C429 C 0.43401 0.2893 0.54281 0.0
C430 C 0.4618 0.2998 0.51577 0.0
C431 C 0.50629 0.29382 0.51902 0.0
H432 H 0.0979 0.44173 0.10015 0.0
H433 H 0.07364 0.41425 0.99373 0.0
H434 H 0.03752 0.49139 0.10089 0.0
H435 H 0.01152 0.46242 0.99489 0.0
H436 H 0.93288 0.58477 0.99584 0.0
H437 H 0.99483 0.53642 0.9966 0.0
H438 H 0.96291 0.4986 0.09978 0.0
H439 H 0.90259 0.54844 0.09952 0.0
C440 C 0.07898 0.44549 0.07708 0.0
C441 C 0.09063 0.4241 0.04684 0.0
C442 C 0.04422 0.47404 0.07752 0.0
C443 C 0.01973 0.48137 0.04787 0.0
C444 C 0.03029 0.45848 0.01798 0.0
C445 C 0.06556 0.43041 0.0174 0.0
C446 C 0.93961 0.5666 0.01884 0.0
C447 C 0.91291 0.57049 0.04762 0.0
C448 C 0.97479 0.53844 0.01916 0.0
C449 C 0.98364 0.51302 0.04808 0.0
C450 C 0.95753 0.51792 0.07717 0.0
C451 C 0.92283 0.54658 0.07704 0.0
H452 H 0.41678 0.92515 0.48994 0.0
H453 H 0.45059 0.90028 0.59512 0.0
H454 H 0.46478 0.98745 0.48969 0.0
H455 H 0.50011 0.96032 0.59435 0.0
H456 H 0.58535 0.07066 0.48936 0.0
H457 H 0.53795 0.0079 0.48941 0.0
H458 H 0.50413 0.03433 0.59448 0.0
H459 H 0.55301 0.09484 0.59491 0.0
C460 C 0.43439 0.93308 0.51299 0.0
C461 C 0.42961 0.90811 0.54262 0.0
C462 C 0.46231 0.96842 0.51275 0.0
C463 C 0.48656 0.97898 0.54197 0.0
C464 C 0.48141 0.95393 0.57158 0.0
C465 C 0.45296 0.9193 0.57201 0.0
C466 C 0.56823 0.06247 0.51256 0.0
C467 C 0.5732 0.08745 0.54218 0.0
C468 C 0.54065 0.02685 0.5125 0.0
C469 C 0.51694 0.01601 0.54191 0.0
C470 C 0.52241 0.04095 0.57155 0.0
C471 C 0.5505 0.07586 0.57179 0.0
H472 H 0.40276 0.94278 0.07412 0.0
H473 H 0.43272 0.90907 0.96971 0.0
H474 H 0.46316 0.99235 0.07508 0.0
H475 H 0.49424 0.95775 0.97108 0.0
H476 H 0.56735 0.08325 0.96968 0.0
H477 H 0.50645 0.03392 0.97127 0.0
H478 H 0.53949 0.99865 0.07477 0.0
H479 H 0.59938 0.04903 0.07361 0.0
C480 C 0.42285 0.94512 0.05161 0.0
C481 C 0.41279 0.92201 0.02178 0.0
C482 C 0.45754 0.97366 0.05217 0.0
C483 C 0.48322 0.9795 0.02302 0.0
C484 C 0.47442 0.95483 0.99371 0.0
C485 C 0.43947 0.92653 0.99305 0.0
C486 C 0.56122 0.06544 0.99294 0.0
C487 C 0.58828 0.07001 0.02147 0.0
C488 C 0.52662 0.03676 0.99372 0.0
C489 C 0.51853 0.01174 0.02294 0.0
C490 C 0.54462 0.01757 0.05191 0.0
C491 C 0.57898 0.04653 0.05125 0.0
H492 H 0.91405 0.57026 0.4645 0.0
H493 H 0.94856 0.59705 0.56926 0.0
H494 H 0.96189 0.50775 0.46485 0.0
H495 H 0.99744 0.5362 0.56916 0.0
H496 H 0.04982 0.40029 0.56937 0.0
H497 H 0.00086 0.46107 0.56917 0.0
H498 H 0.03654 0.48947 0.4649 0.0
H499 H 0.08446 0.42701 0.46465 0.0
C500 C 0.93164 0.56268 0.48763 0.0
C501 C 0.92728 0.58849 0.51689 0.0
C502 C 0.95946 0.52718 0.48772 0.0
C503 C 0.98384 0.51705 0.51696 0.0
C504 C 0.97876 0.54251 0.54635 0.0
C505 C 0.95062 0.57755 0.5464 0.0
C506 C 0.04776 0.41976 0.54649 0.0
C507 C 0.07118 0.40882 0.51703 0.0
C508 C 0.01958 0.45476 0.54639 0.0
C509 C 0.01452 0.4802 0.51698 0.0
C510 C 0.03896 0.47006 0.48779 0.0
C511 C 0.06682 0.43458 0.48775 0.0
H512 H 0.23733 0.36116 0.19631 0.0
H513 H 0.10994 0.30538 0.19105 0.0
H514 H 0.23538 0.35615 0.2585 0.0
H515 H 0.10794 0.3007 0.25315 0.0
H516 H 0.13493 0.26312 0.36403 0.0
H517 H 0.14165 0.26317 0.30193 0.0
H518 H 0.19588 0.39113 0.30571 0.0
H519 H 0.1895 0.39102 0.36773 0.0
C520 C 0.209 0.34763 0.20837 0.0
C521 C 0.17372 0.33382 0.18865 0.0
C522 C 0.2078 0.34499 0.24404 0.0
C523 C 0.17145 0.32816 0.26083 0.0
C524 C 0.1366 0.31344 0.24105 0.0
C525 C 0.13767 0.31636 0.20541 0.0
C526 C 0.1485 0.29118 0.35165 0.0
C527 C 0.16153 0.32713 0.37091 0.0
C528 C 0.15215 0.29129 0.31602 0.0
C529 C 0.16921 0.32719 0.29882 0.0
C530 C 0.18301 0.36277 0.31815 0.0
C531 C 0.17909 0.3628 0.35373 0.0
H532 H 0.58545 0.17271 0.8736 0.0
H533 H 0.72042 0.14262 0.86007 0.0
H534 H 0.57762 0.18251 0.81241 0.0
H535 H 0.71229 0.15144 0.79834 0.0
H536 H 0.68793 0.20929 0.69094 0.0
H537 H 0.69898 0.20313 0.75262 0.0
H538 H 0.57596 0.13913 0.76211 0.0
H539 H 0.56454 0.14616 0.70108 0.0
C540 C 0.61352 0.16807 0.85756 0.0
C541 C 0.65352 0.15658 0.87183 0.0
C542 C 0.60895 0.17345 0.82234 0.0
C543 C 0.64418 0.16732 0.80025 0.0
C544 C 0.6845 0.15673 0.81455 0.0
C545 C 0.68912 0.15143 0.84994 0.0
C546 C 0.66324 0.194 0.70626 0.0
C547 C 0.62521 0.17849 0.69102 0.0
C548 C 0.66969 0.19024 0.74161 0.0
C549 C 0.63824 0.1709 0.7625 0.0
C550 C 0.60052 0.155 0.74705 0.0
C551 C 0.59408 0.15881 0.71189 0.0
H552 H 0.86352 0.7333 0.36317 0.0
H553 H 0.80999 0.605 0.36768 0.0
H554 H 0.85697 0.73243 0.30106 0.0
H555 H 0.80384 0.60406 0.30565 0.0
H556 H 0.76312 0.63195 0.19566 0.0
H557 H 0.76453 0.63767 0.25784 0.0
H558 H 0.8912 0.69489 0.25278 0.0
H559 H 0.8897 0.68955 0.19073 0.0
C560 C 0.85021 0.70497 0.35096 0.0
C561 C 0.83744 0.66915 0.37046 0.0
C562 C 0.84667 0.7044 0.31533 0.0
C563 C 0.82999 0.66813 0.29834 0.0
C564 C 0.8164 0.63269 0.31791 0.0
C565 C 0.8202 0.63314 0.3535 0.0
C566 C 0.79116 0.64601 0.20779 0.0
C567 C 0.82636 0.66015 0.18816 0.0
C568 C 0.79206 0.64906 0.24346 0.0
C569 C 0.82803 0.66662 0.26033 0.0
C570 C 0.8628 0.6816 0.24063 0.0
C571 C 0.86203 0.6783 0.20501 0.0
H572 H 0.29214 0.8091 0.86831 0.0
H573 H 0.36363 0.92761 0.85711 0.0
H574 H 0.29639 0.79743 0.80662 0.0
H575 H 0.36859 0.91555 0.79598 0.0
H576 H 0.32957 0.90862 0.68527 0.0
H577 H 0.32252 0.91687 0.74665 0.0
H578 H 0.34667 0.78083 0.76006 0.0
H579 H 0.35291 0.77234 0.69815 0.0
C580 C 0.30891 0.83255 0.85276 0.0
C581 C 0.32728 0.86946 0.86769 0.0
C582 C 0.31154 0.82574 0.81741 0.0
C583 C 0.33253 0.85571 0.79621 0.0
C584 C 0.35142 0.8922 0.81134 0.0
C585 C 0.3488 0.899 0.84653 0.0
C586 C 0.33324 0.88033 0.70119 0.0
C587 C 0.34209 0.83984 0.68669 0.0
C588 C 0.32946 0.88514 0.73651 0.0
C589 C 0.33451 0.84963 0.75844 0.0
C590 C 0.34234 0.80885 0.74395 0.0
C591 C 0.34612 0.80401 0.70846 0.0
H592 H 0.79398 0.57499 0.84604 0.0
H593 H 0.84408 0.69856 0.87672 0.0
H594 H 0.81586 0.58908 0.78722 0.0
H595 H 0.86474 0.71367 0.81792 0.0
H596 H 0.92053 0.72129 0.71237 0.0
H597 H 0.91048 0.69754 0.77128 0.0
H598 H 0.79239 0.63345 0.74181 0.0
H599 H 0.80355 0.65617 0.68296 0.0
C600 C 0.8102 0.60496 0.84011 0.0
C601 C 0.81813 0.63539 0.86577 0.0
C602 C 0.82241 0.61324 0.80646 0.0
C603 C 0.84194 0.65261 0.7977 0.0
C604 C 0.85062 0.68266 0.82374 0.0
C605 C 0.83887 0.67407 0.85747 0.0
C606 C 0.89287 0.70151 0.7186 0.0
C607 C 0.86323 0.68978 0.69324 0.0
C608 C 0.8869 0.68815 0.7523 0.0
C609 C 0.85062 0.66353 0.76139 0.0
C610 C 0.82123 0.65149 0.73571 0.0
C611 C 0.82754 0.66445 0.70196 0.0
H612 H 0.41747 0.78804 0.34536 0.0
H613 H 0.28996 0.82695 0.37684 0.0
H614 H 0.40118 0.80988 0.28691 0.0
H615 H 0.27312 0.84815 0.31848 0.0
H616 H 0.26523 0.91125 0.21447 0.0
H617 H 0.28741 0.89815 0.27346 0.0
H618 H 0.35766 0.78497 0.24077 0.0
H619 H 0.33611 0.79887 0.18195 0.0
C620 C 0.38609 0.80169 0.33974 0.0
C621 C 0.35528 0.8067 0.36563 0.0
C622 C 0.37662 0.81394 0.30628 0.0
C623 C 0.33581 0.83078 0.29793 0.0
C624 C 0.30518 0.83621 0.32409 0.0
C625 C 0.31485 0.82429 0.35761 0.0
C626 C 0.28586 0.88394 0.22004 0.0
C627 C 0.29986 0.85662 0.19376 0.0
C628 C 0.29835 0.87624 0.25376 0.0
C629 C 0.3245 0.8406 0.26189 0.0
C630 C 0.33841 0.81331 0.23539 0.0
C631 C 0.32617 0.82124 0.20168 0.0
H632 H 0.08513 0.27859 0.71582 0.0
H633 H 0.19958 0.34321 0.68001 0.0
H634 H 0.10186 0.30058 0.7744 0.0
H635 H 0.21617 0.36557 0.7384 0.0
H636 H 0.26006 0.33451 0.84863 0.0
H637 H 0.23875 0.32186 0.78979 0.0
H638 H 0.11052 0.36802 0.81228 0.0
H639 H 0.13214 0.38229 0.87111 0.0
C640 C 0.11337 0.29823 0.7205 0.0
C641 C 0.14068 0.30994 0.69352 0.0
C642 C 0.12283 0.31093 0.75389 0.0
C643 C 0.16027 0.33476 0.76086 0.0
C644 C 0.18713 0.34713 0.7337 0.0
C645 C 0.17741 0.33483 0.7003 0.0
C646 C 0.22733 0.34223 0.84112 0.0
C647 C 0.19757 0.35847 0.86496 0.0
C648 C 0.21522 0.3351 0.80735 0.0
C649 C 0.173 0.34394 0.79654 0.0
C650 C 0.14315 0.36043 0.82014 0.0
C651 C 0.15545 0.36807 0.85398 0.0
H652 H 0.66889 0.2023 0.18122 0.0
H653 H 0.72608 0.08196 0.21273 0.0
H654 H 0.64706 0.21669 0.23994 0.0
H655 H 0.70383 0.09579 0.27155 0.0
H656 H 0.706 0.16397 0.37636 0.0
H657 H 0.72246 0.14328 0.3177 0.0
H658 H 0.59949 0.19453 0.28494 0.0
H659 H 0.5836 0.21568 0.34366 0.0
C660 C 0.67567 0.17839 0.20063 0.0
C661 C 0.69823 0.14059 0.19245 0.0
C662 C 0.66333 0.18663 0.2343 0.0
C663 C 0.67349 0.15728 0.2605 0.0
C664 C 0.69586 0.11928 0.2521 0.0
C665 C 0.70837 0.1112 0.21845 0.0
C666 C 0.68208 0.16967 0.35671 0.0
C667 C 0.64315 0.19051 0.36451 0.0
C668 C 0.69152 0.15802 0.32307 0.0
C669 C 0.66225 0.16716 0.29656 0.0
C670 C 0.62299 0.18748 0.30463 0.0
C671 C 0.61371 0.19931 0.33823 0.0
loop_
_geom_bond_atom_site_label_1
_geom_bond_atom_site_label_2
_geom_bond_distance
_geom_bond_site_symmetry_2
_ccdc_geom_bond_type
Co0 O3 1.970 . S
Co0 N17 1.989 . S
Co0 O25 1.967 . S
Co0 O32 1.920 . S
Co1 O4 1.966 1_556 S
Co1 N10 2.022 . S
Co1 N18 1.993 1_556 S
Co1 O26 1.941 1_556 S
C2 O3 1.258 . S
C2 O4 1.263 . S
O3 Co0 1.970 . S
O3 C2 1.258 . S
O4 Co1 1.966 1_554 S
O4 C2 1.263 . S
C5 O6 1.235 . S
C5 O32 1.289 . S
O6 C5 1.235 . S
C7 C9 1.400 . S
C7 N10 1.351 . S
C7 C12 1.501 . S
C8 C9 1.387 . S
C8 N11 1.341 . S
C9 C7 1.400 . S
C9 C8 1.387 . S
N10 Co1 2.022 . S
N10 C7 1.351 . S
N10 N11 1.365 . S
N11 C8 1.341 . S
N11 N10 1.365 . S
N11 H31 0.862 . S
C12 C7 1.501 . S
C12 H13 0.961 . S
C12 H14 0.961 . S
C12 H15 0.960 . S
H13 C12 0.961 . S
H14 C12 0.961 . S
H15 C12 0.960 . S
C16 N17 1.342 . S
C16 C20 1.401 . S
C16 C21 1.499 . S
N17 Co0 1.989 . S
N17 C16 1.342 . S
N17 N18 1.388 . S
N18 Co1 1.993 1_554 S
N18 N17 1.388 . S
N18 C19 1.346 . S
C19 N18 1.346 . S
C19 C20 1.396 . S
C19 C29 1.510 1_554 S
C20 C16 1.401 . S
C20 C19 1.396 . S
C21 C16 1.499 . S
C21 H22 0.959 . S
C21 H23 0.960 . S
C21 H24 0.961 . S
H22 C21 0.959 . S
H23 C21 0.960 . S
H24 C21 0.961 . S
O25 Co0 1.967 . S
O25 C33 1.258 . S
O26 Co1 1.941 1_554 S
O26 C33 1.266 . S
H27 C29 0.959 . S
H28 C29 0.961 . S
C29 C19 1.510 1_556 S
C29 H27 0.959 . S
C29 H28 0.961 . S
C29 H30 0.960 . S
H30 C29 0.960 . S
H31 N11 0.862 . S
O32 Co0 1.920 . S
O32 C5 1.289 . S
C33 O25 1.258 . S
C33 O26 1.266 . S
Co34 O37 1.970 . S
Co34 N51 1.989 . S
Co34 O59 1.967 . S
Co34 O66 1.920 . S
Co35 O38 1.966 . S
Co35 N44 2.022 . S
Co35 N52 1.993 . S
Co35 O60 1.941 . S
C36 O37 1.258 . S
C36 O38 1.263 . S
O37 Co34 1.970 . S
O37 C36 1.258 . S
O38 Co35 1.966 . S
O38 C36 1.263 . S
C39 O40 1.235 . S
C39 O66 1.289 . S
O40 C39 1.235 . S
C41 C43 1.400 . S
C41 N44 1.351 . S
C41 C46 1.501 . S
C42 C43 1.387 . S
C42 N45 1.341 . S
C43 C41 1.400 . S
C43 C42 1.387 . S
N44 Co35 2.022 . S
N44 C41 1.351 . S
N44 N45 1.365 . S
N45 C42 1.341 . S
N45 N44 1.365 . S
N45 H65 0.862 . S
C46 C41 1.501 . S
C46 H47 0.961 . S
C46 H48 0.961 . S
C46 H49 0.960 . S
H47 C46 0.961 . S
H48 C46 0.961 . S
H49 C46 0.960 . S
C50 N51 1.342 . S
C50 C54 1.401 . S
C50 C55 1.499 . S
N51 Co34 1.989 . S
N51 C50 1.342 . S
N51 N52 1.388 . S
N52 Co35 1.993 . S
N52 N51 1.388 . S
N52 C53 1.346 . S
C53 N52 1.346 . S
C53 C54 1.396 . S
C53 C63 1.510 . S
C54 C50 1.401 . S
C54 C53 1.396 . S
C55 C50 1.499 . S
C55 H56 0.959 . S
C55 H57 0.960 . S
C55 H58 0.961 . S
H56 C55 0.959 . S
H57 C55 0.960 . S
H58 C55 0.961 . S
O59 Co34 1.967 . S
O59 C67 1.258 . S
O60 Co35 1.941 . S
O60 C67 1.266 . S
H61 C63 0.959 . S
H62 C63 0.961 . S
C63 C53 1.510 . S
C63 H61 0.959 . S
C63 H62 0.961 . S
C63 H64 0.960 . S
H64 C63 0.960 . S
H65 N45 0.862 . S
O66 Co34 1.920 . S
O66 C39 1.289 . S
C67 O59 1.258 . S
C67 O60 1.266 . S
Co68 O71 1.970 . S
Co68 N85 1.989 . S
Co68 O93 1.967 . S
Co68 O100 1.920 . S
Co69 O72 1.966 1_556 S
Co69 N78 2.022 . S
Co69 N86 1.993 1_556 S
Co69 O94 1.941 1_556 S
C70 O71 1.258 . S
C70 O72 1.263 . S
O71 Co68 1.970 . S
O71 C70 1.258 . S
O72 Co69 1.966 1_554 S
O72 C70 1.263 . S
C73 O74 1.235 . S
C73 O100 1.289 . S
O74 C73 1.235 . S
C75 C77 1.400 . S
C75 N78 1.351 . S
C75 C80 1.501 . S
C76 C77 1.387 . S
C76 N79 1.341 . S
C77 C75 1.400 . S
C77 C76 1.387 . S
N78 Co69 2.022 . S
N78 C75 1.351 . S
N78 N79 1.365 . S
N79 C76 1.341 . S
N79 N78 1.365 . S
N79 H99 0.862 . S
C80 C75 1.501 . S
C80 H81 0.961 . S
C80 H82 0.961 . S
C80 H83 0.960 . S
H81 C80 0.961 . S
H82 C80 0.961 . S
H83 C80 0.960 . S
C84 N85 1.342 . S
C84 C88 1.401 . S
C84 C89 1.499 . S
N85 Co68 1.989 . S
N85 C84 1.342 . S
N85 N86 1.388 . S
N86 Co69 1.993 1_554 S
N86 N85 1.388 . S
N86 C87 1.346 . S
C87 N86 1.346 . S
C87 C88 1.396 . S
C87 C97 1.510 1_554 S
C88 C84 1.401 . S
C88 C87 1.396 . S
C89 C84 1.499 . S
C89 H90 0.959 . S
C89 H91 0.960 . S
C89 H92 0.961 . S
H90 C89 0.959 . S
H91 C89 0.960 . S
H92 C89 0.961 . S
O93 Co68 1.967 . S
O93 C101 1.258 . S
O94 Co69 1.941 1_554 S
O94 C101 1.266 . S
H95 C97 0.959 . S
H96 C97 0.961 . S
C97 C87 1.510 1_556 S
C97 H95 0.959 . S
C97 H96 0.961 . S
C97 H98 0.960 . S
H98 C97 0.960 . S
H99 N79 0.862 . S
O100 Co68 1.920 . S
O100 C73 1.289 . S
C101 O93 1.258 . S
C101 O94 1.266 . S
Co102 O105 1.970 . S
Co102 N119 1.989 . S
Co102 O127 1.967 . S
Co102 O134 1.920 . S
Co103 O106 1.966 . S
Co103 N112 2.022 . S
Co103 N120 1.993 . S
Co103 O128 1.941 . S
C104 O105 1.258 . S
C104 O106 1.263 . S
O105 Co102 1.970 . S
O105 C104 1.258 . S
O106 Co103 1.966 . S
O106 C104 1.263 . S
C107 O108 1.235 . S
C107 O134 1.289 . S
O108 C107 1.235 . S
C109 C111 1.400 . S
C109 N112 1.351 . S
C109 C114 1.501 . S
C110 C111 1.387 . S
C110 N113 1.341 . S
C111 C109 1.400 . S
C111 C110 1.387 . S
N112 Co103 2.022 . S
N112 C109 1.351 . S
N112 N113 1.365 . S
N113 C110 1.341 . S
N113 N112 1.365 . S
N113 H133 0.862 . S
C114 C109 1.501 . S
C114 H115 0.961 . S
C114 H116 0.961 . S
C114 H117 0.960 . S
H115 C114 0.961 . S
H116 C114 0.961 . S
H117 C114 0.960 . S
C118 N119 1.342 . S
C118 C122 1.401 . S
C118 C123 1.499 . S
N119 Co102 1.989 . S
N119 C118 1.342 . S
N119 N120 1.388 . S
N120 Co103 1.993 . S
N120 N119 1.388 . S
N120 C121 1.346 . S
C121 N120 1.346 . S
C121 C122 1.396 . S
C121 C131 1.510 . S
C122 C118 1.401 . S
C122 C121 1.396 . S
C123 C118 1.499 . S
C123 H124 0.959 . S
C123 H125 0.960 . S
C123 H126 0.961 . S
H124 C123 0.959 . S
H125 C123 0.960 . S
H126 C123 0.961 . S
O127 Co102 1.967 . S
O127 C135 1.258 . S
O128 Co103 1.941 . S
O128 C135 1.266 . S
H129 C131 0.959 . S
H130 C131 0.961 . S
C131 C121 1.510 . S
C131 H129 0.959 . S
C131 H130 0.961 . S
C131 H132 0.960 . S
H132 C131 0.960 . S
H133 N113 0.862 . S
O134 Co102 1.920 . S
O134 C107 1.289 . S
C135 O127 1.258 . S
C135 O128 1.266 . S
Co136 O139 1.970 . S
Co136 N153 1.986 1_556 S
Co136 O161 1.967 . S
Co136 O168 1.920 . S
Co137 O140 1.966 . S
Co137 N146 2.022 . S
Co137 N154 1.993 . S
Co137 O162 1.941 . S
C138 O139 1.258 1_554 S
C138 O140 1.263 . S
O139 Co136 1.970 . S
O139 C138 1.258 1_556 S
O140 Co137 1.966 . S
O140 C138 1.263 . S
C141 O142 1.235 . S
C141 O168 1.289 . S
O142 C141 1.235 . S
C143 C145 1.400 . S
C143 N146 1.351 . S
C143 C148 1.501 . S
C144 C145 1.387 . S
C144 N147 1.341 . S
C145 C143 1.400 . S
C145 C144 1.387 . S
N146 Co137 2.022 . S
N146 C143 1.351 . S
N146 N147 1.365 . S
N147 C144 1.341 . S
N147 N146 1.365 . S
N147 H167 0.862 . S
C148 C143 1.501 . S
C148 H149 0.961 . S
C148 H150 0.961 . S
C148 H151 0.960 . S
H149 C148 0.961 . S
H150 C148 0.961 . S
H151 C148 0.960 . S
C152 N153 1.340 1_556 S
C152 C156 1.401 1_556 S
C152 C157 1.499 . S
N153 Co136 1.986 1_554 S
N153 C152 1.340 1_554 S
N153 N154 1.394 . S
N154 Co137 1.993 . S
N154 N153 1.394 . S
N154 C155 1.346 . S
C155 N154 1.346 . S
C155 C156 1.396 . S
C155 C165 1.510 . S
C156 C152 1.401 1_554 S
C156 C155 1.396 . S
C157 C152 1.499 . S
C157 H158 0.959 . S
C157 H159 0.960 . S
C157 H160 0.961 . S
H158 C157 0.959 . S
H159 C157 0.960 . S
H160 C157 0.961 . S
O161 Co136 1.967 . S
O161 C169 1.258 1_556 S
O162 Co137 1.941 . S
O162 C169 1.266 . S
H163 C165 0.959 . S
H164 C165 0.961 . S
C165 C155 1.510 . S
C165 H163 0.959 . S
C165 H164 0.961 . S
C165 H166 0.960 . S
H166 C165 0.960 . S
H167 N147 0.862 . S
O168 Co136 1.920 . S
O168 C141 1.289 . S
C169 O161 1.258 1_554 S
C169 O162 1.266 . S
Co170 O173 1.970 . S
Co170 N187 1.989 . S
Co170 O195 1.967 . S
Co170 O202 1.920 . S
Co171 O174 1.966 . S
Co171 N180 2.022 . S
Co171 N188 1.993 . S
Co171 O196 1.941 . S
C172 O173 1.258 . S
C172 O174 1.263 . S
O173 Co170 1.970 . S
O173 C172 1.258 . S
O174 Co171 1.966 . S
O174 C172 1.263 . S
C175 O176 1.235 . S
C175 O202 1.289 . S
O176 C175 1.235 . S
C177 C179 1.400 . S
C177 N180 1.351 . S
C177 C182 1.501 . S
C178 C179 1.387 . S
C178 N181 1.341 . S
C179 C177 1.400 . S
C179 C178 1.387 . S
N180 Co171 2.022 . S
N180 C177 1.351 . S
N180 N181 1.365 . S
N181 C178 1.341 . S
N181 N180 1.365 . S
N181 H201 0.862 . S
C182 C177 1.501 . S
C182 H183 0.961 . S
C182 H184 0.961 . S
C182 H185 0.960 . S
H183 C182 0.961 . S
H184 C182 0.961 . S
H185 C182 0.960 . S
C186 N187 1.342 . S
C186 C190 1.401 . S
C186 C191 1.499 . S
N187 Co170 1.989 . S
N187 C186 1.342 . S
N187 N188 1.388 . S
N188 Co171 1.993 . S
N188 N187 1.388 . S
N188 C189 1.346 . S
C189 N188 1.346 . S
C189 C190 1.396 . S
C189 C199 1.510 . S
C190 C186 1.401 . S
C190 C189 1.396 . S
C191 C186 1.499 . S
C191 H192 0.959 . S
C191 H193 0.960 . S
C191 H194 0.961 . S
H192 C191 0.959 . S
H193 C191 0.960 . S
H194 C191 0.961 . S
O195 Co170 1.967 . S
O195 C203 1.258 . S
O196 Co171 1.941 . S
O196 C203 1.266 . S
H197 C199 0.959 . S
H198 C199 0.961 . S
C199 C189 1.510 . S
C199 H197 0.959 . S
C199 H198 0.961 . S
C199 H200 0.960 . S
H200 C199 0.960 . S
H201 N181 0.862 . S
O202 Co170 1.920 . S
O202 C175 1.289 . S
C203 O195 1.258 . S
C203 O196 1.266 . S
Co204 O207 1.970 . S
Co204 N221 1.986 1_556 S
Co204 O229 1.967 . S
Co204 O236 1.920 . S
Co205 O208 1.966 . S
Co205 N214 2.022 . S
Co205 N222 1.993 . S
Co205 O230 1.941 . S
C206 O207 1.258 1_554 S
C206 O208 1.263 . S
O207 Co204 1.970 . S
O207 C206 1.258 1_556 S
O208 Co205 1.966 . S
O208 C206 1.263 . S
C209 O210 1.235 . S
C209 O236 1.289 . S
O210 C209 1.235 . S
C211 C213 1.400 . S
C211 N214 1.351 . S
C211 C216 1.501 . S
C212 C213 1.387 . S
C212 N215 1.341 . S
C213 C211 1.400 . S
C213 C212 1.387 . S
N214 Co205 2.022 . S
N214 C211 1.351 . S
N214 N215 1.365 . S
N215 C212 1.341 . S
N215 N214 1.365 . S
N215 H235 0.862 . S
C216 C211 1.501 . S
C216 H217 0.961 . S
C216 H218 0.961 . S
C216 H219 0.960 . S
H217 C216 0.961 . S
H218 C216 0.961 . S
H219 C216 0.960 . S
C220 N221 1.340 1_556 S
C220 C224 1.401 1_556 S
C220 C225 1.499 . S
N221 Co204 1.986 1_554 S
N221 C220 1.340 1_554 S
N221 N222 1.394 . S
N222 Co205 1.993 . S
N222 N221 1.394 . S
N222 C223 1.346 . S
C223 N222 1.346 . S
C223 C224 1.396 . S
C223 C233 1.510 . S
C224 C220 1.401 1_554 S
C224 C223 1.396 . S
C225 C220 1.499 . S
C225 H226 0.959 . S
C225 H227 0.960 . S
C225 H228 0.961 . S
H226 C225 0.959 . S
H227 C225 0.960 . S
H228 C225 0.961 . S
O229 Co204 1.967 . S
O229 C237 1.258 1_556 S
O230 Co205 1.941 . S
O230 C237 1.266 . S
H231 C233 0.959 . S
H232 C233 0.961 . S
C233 C223 1.510 . S
C233 H231 0.959 . S
C233 H232 0.961 . S
C233 H234 0.960 . S
H234 C233 0.960 . S
H235 N215 0.862 . S
O236 Co204 1.920 . S
O236 C209 1.289 . S
C237 O229 1.258 1_554 S
C237 O230 1.266 . S
Co238 O241 1.970 . S
Co238 N255 1.989 . S
Co238 O263 1.967 . S
Co238 O270 1.920 . S
Co239 O242 1.966 . S
Co239 N248 2.022 . S
Co239 N256 1.993 . S
Co239 O264 1.941 . S
C240 O241 1.258 . S
C240 O242 1.263 . S
O241 Co238 1.970 . S
O241 C240 1.258 . S
O242 Co239 1.966 . S
O242 C240 1.263 . S
C243 O244 1.235 . S
C243 O270 1.289 . S
O244 C243 1.235 . S
C245 C247 1.400 . S
C245 N248 1.351 . S
C245 C250 1.501 . S
C246 C247 1.387 . S
C246 N249 1.341 . S
C247 C245 1.400 . S
C247 C246 1.387 . S
N248 Co239 2.022 . S
N248 C245 1.351 . S
N248 N249 1.365 . S
N249 C246 1.341 . S
N249 N248 1.365 . S
N249 H269 0.862 . S
C250 C245 1.501 . S
C250 H251 0.961 . S
C250 H252 0.961 . S
C250 H253 0.960 . S
H251 C250 0.961 . S
H252 C250 0.961 . S
H253 C250 0.960 . S
C254 N255 1.342 . S
C254 C258 1.401 . S
C254 C259 1.499 . S
N255 Co238 1.989 . S
N255 C254 1.342 . S
N255 N256 1.388 . S
N256 Co239 1.993 . S
N256 N255 1.388 . S
N256 C257 1.346 . S
C257 N256 1.346 . S
C257 C258 1.396 . S
C257 C267 1.510 . S
C258 C254 1.401 . S
C258 C257 1.396 . S
C259 C254 1.499 . S
C259 H260 0.959 . S
C259 H261 0.960 . S
C259 H262 0.961 . S
H260 C259 0.959 . S
H261 C259 0.960 . S
H262 C259 0.961 . S
O263 Co238 1.967 . S
O263 C271 1.258 . S
O264 Co239 1.941 . S
O264 C271 1.266 . S
H265 C267 0.959 . S
H266 C267 0.961 . S
C267 C257 1.510 . S
C267 H265 0.959 . S
C267 H266 0.961 . S
C267 H268 0.960 . S
H268 C267 0.960 . S
H269 N249 0.862 . S
O270 Co238 1.920 . S
O270 C243 1.289 . S
C271 O263 1.258 . S
C271 O264 1.266 . S
H272 C280 0.950 1_565 S
H273 C285 0.950 . S
H274 C282 0.950 . S
H275 C284 0.950 . S
H276 C286 0.950 . S
H277 C288 0.950 . S
H278 C290 0.950 . S
H279 C291 0.950 . S
C280 H272 0.950 1_545 S
C280 C281 1.386 1_545 S
C280 C282 1.391 . S
C281 C280 1.386 1_565 S
C281 C285 1.393 1_564 S
C282 H274 0.950 . S
C282 C280 1.391 . S
C282 C283 1.400 . S
C283 C282 1.400 . S
C283 C284 1.398 1_554 S
C283 C289 1.491 . S
C284 H275 0.950 . S
C284 C283 1.398 1_556 S
C284 C285 1.391 . S
C285 H273 0.950 . S
C285 C281 1.393 1_546 S
C285 C284 1.391 . S
C286 H276 0.950 . S
C286 C287 1.386 1_556 S
C286 C288 1.391 . S
C287 C286 1.386 1_554 S
C287 C291 1.393 . S
C288 H277 0.950 . S
C288 C286 1.391 . S
C288 C289 1.400 1_556 S
C289 C283 1.491 . S
C289 C288 1.400 1_554 S
C289 C290 1.398 . S
C290 H278 0.950 . S
C290 C289 1.398 . S
C290 C291 1.391 . S
C291 H279 0.950 . S
C291 C287 1.393 . S
C291 C290 1.391 . S
H292 C300 0.950 . S
H293 C305 0.950 . S
H294 C302 0.950 . S
H295 C304 0.950 . S
H296 C306 0.950 . S
H297 C308 0.950 . S
H298 C310 0.950 . S
H299 C311 0.950 . S
C300 H292 0.950 . S
C300 C301 1.386 1_655 S
C300 C302 1.391 . S
C301 C300 1.386 1_455 S
C301 C305 1.393 1_455 S
C302 H294 0.950 . S
C302 C300 1.391 . S
C302 C303 1.400 . S
C303 C302 1.400 . S
C303 C304 1.398 . S
C303 C309 1.491 . S
C304 H295 0.950 . S
C304 C303 1.398 . S
C304 C305 1.391 . S
C305 H293 0.950 . S
C305 C301 1.393 1_655 S
C305 C304 1.391 . S
C306 H296 0.950 . S
C306 C307 1.386 . S
C306 C308 1.391 . S
C307 C306 1.386 . S
C307 C311 1.393 . S
C308 H297 0.950 . S
C308 C306 1.391 . S
C308 C309 1.400 . S
C309 C303 1.491 . S
C309 C308 1.400 . S
C309 C310 1.398 . S
C310 H298 0.950 . S
C310 C309 1.398 . S
C310 C311 1.391 . S
C311 H299 0.950 . S
C311 C307 1.393 . S
C311 C310 1.391 . S
H312 C320 0.950 . S
H313 C325 0.950 1_545 S
H314 C322 0.950 . S
H315 C324 0.950 . S
H316 C326 0.950 . S
H317 C328 0.950 . S
H318 C330 0.950 . S
H319 C331 0.950 . S
C320 H312 0.950 . S
C320 C321 1.386 1_565 S
C320 C322 1.391 . S
C321 C320 1.386 1_545 S
C321 C325 1.393 1_545 S
C322 H314 0.950 . S
C322 C320 1.391 . S
C322 C323 1.400 . S
C323 C322 1.400 . S
C323 C324 1.398 . S
C323 C329 1.491 . S
C324 H315 0.950 . S
C324 C323 1.398 . S
C324 C325 1.391 . S
C325 H313 0.950 1_565 S
C325 C321 1.393 1_565 S
C325 C324 1.391 . S
C326 H316 0.950 . S
C326 C327 1.386 . S
C326 C328 1.391 . S
C327 C326 1.386 . S
C327 C331 1.393 . S
C328 H317 0.950 . S
C328 C326 1.391 . S
C328 C329 1.400 . S
C329 C323 1.491 . S
C329 C328 1.400 . S
C329 C330 1.398 . S
C330 H318 0.950 . S
C330 C329 1.398 . S
C330 C331 1.391 . S
C331 H319 0.950 . S
C331 C327 1.393 . S
C331 C330 1.391 . S
H332 C340 0.950 . S
H333 C345 0.950 . S
H334 C342 0.950 . S
H335 C344 0.950 . S
H336 C346 0.950 . S
H337 C348 0.950 . S
H338 C350 0.950 . S
H339 C351 0.950 . S
C340 H332 0.950 . S
C340 C341 1.386 1_455 S
C340 C342 1.391 . S
C341 C340 1.386 1_655 S
C341 C345 1.393 1_655 S
C342 H334 0.950 . S
C342 C340 1.391 . S
C342 C343 1.400 . S
C343 C342 1.400 . S
C343 C344 1.398 . S
C343 C349 1.491 . S
C344 H335 0.950 . S
C344 C343 1.398 . S
C344 C345 1.391 . S
C345 H333 0.950 . S
C345 C341 1.393 1_455 S
C345 C344 1.391 . S
C346 H336 0.950 . S
C346 C347 1.386 . S
C346 C348 1.391 . S
C347 C346 1.386 . S
C347 C351 1.393 . S
C348 H337 0.950 . S
C348 C346 1.391 . S
C348 C349 1.400 . S
C349 C343 1.491 . S
C349 C348 1.400 . S
C349 C350 1.398 . S
C350 H338 0.950 . S
C350 C349 1.398 . S
C350 C351 1.391 . S
C351 H339 0.950 . S
C351 C347 1.393 . S
C351 C350 1.391 . S
H352 C360 0.950 . S
H353 C365 0.950 1_556 S
H354 C362 0.950 . S
H355 C364 0.950 1_556 S
H356 C366 0.950 . S
H357 C368 0.950 . S
H358 C370 0.950 . S
H359 C371 0.950 . S
C360 H352 0.950 . S
C360 C361 1.386 . S
C360 C362 1.391 . S
C361 C360 1.386 . S
C361 C365 1.393 . S
C362 H354 0.950 . S
C362 C360 1.391 . S
C362 C363 1.400 . S
C363 C362 1.400 . S
C363 C364 1.398 . S
C363 C369 1.491 . S
C364 H355 0.950 1_554 S
C364 C363 1.398 . S
C364 C365 1.391 . S
C365 H353 0.950 1_554 S
C365 C361 1.393 . S
C365 C364 1.391 . S
C366 H356 0.950 . S
C366 C367 1.386 1_556 S
C366 C368 1.391 . S
C367 C366 1.386 1_554 S
C367 C371 1.393 . S
C368 H357 0.950 . S
C368 C366 1.391 . S
C368 C369 1.400 1_556 S
C369 C363 1.491 . S
C369 C368 1.400 1_554 S
C369 C370 1.398 . S
C370 H358 0.950 . S
C370 C369 1.398 . S
C370 C371 1.391 . S
C371 H359 0.950 . S
C371 C367 1.393 . S
C371 C370 1.391 . S
H372 C380 0.950 . S
H373 C385 0.950 . S
H374 C382 0.950 . S
H375 C384 0.950 . S
H376 C386 0.950 . S
H377 C388 0.950 . S
H378 C390 0.950 . S
H379 C391 0.950 . S
C380 H372 0.950 . S
C380 C381 1.386 . S
C380 C382 1.391 . S
C381 C380 1.386 . S
C381 C385 1.393 . S
C382 H374 0.950 . S
C382 C380 1.391 . S
C382 C383 1.400 . S
C383 C382 1.400 . S
C383 C384 1.398 . S
C383 C389 1.491 . S
C384 H375 0.950 . S
C384 C383 1.398 . S
C384 C385 1.391 . S
C385 H373 0.950 . S
C385 C381 1.393 . S
C385 C384 1.391 . S
C386 H376 0.950 . S
C386 C387 1.386 . S
C386 C388 1.391 . S
C387 C386 1.386 . S
C387 C391 1.393 . S
C388 H377 0.950 . S
C388 C386 1.391 . S
C388 C389 1.400 . S
C389 C383 1.491 . S
C389 C388 1.400 . S
C389 C390 1.398 . S
C390 H378 0.950 . S
C390 C389 1.398 . S
C390 C391 1.391 . S
C391 H379 0.950 . S
C391 C387 1.393 . S
C391 C390 1.391 . S
H392 C400 0.950 . S
H393 C405 0.950 . S
H394 C402 0.950 . S
H395 C404 0.950 . S
H396 C406 0.950 . S
H397 C408 0.950 . S
H398 C410 0.950 . S
H399 C411 0.950 . S
C400 H392 0.950 . S
C400 C401 1.386 . S
C400 C402 1.391 . S
C401 C400 1.386 . S
C401 C405 1.393 . S
C402 H394 0.950 . S
C402 C400 1.391 . S
C402 C403 1.400 . S
C403 C402 1.400 . S
C403 C404 1.398 . S
C403 C409 1.491 . S
C404 H395 0.950 . S
C404 C403 1.398 . S
C404 C405 1.391 . S
C405 H393 0.950 . S
C405 C401 1.393 . S
C405 C404 1.391 . S
C406 H396 0.950 . S
C406 C407 1.386 . S
C406 C408 1.391 . S
C407 C406 1.386 . S
C407 C411 1.393 . S
C408 H397 0.950 . S
C408 C406 1.391 . S
C408 C409 1.400 . S
C409 C403 1.491 . S
C409 C408 1.400 . S
C409 C410 1.398 . S
C410 H398 0.950 . S
C410 C409 1.398 . S
C410 C411 1.391 . S
C411 H399 0.950 . S
C411 C407 1.393 . S
C411 C410 1.391 . S
H412 C420 0.950 . S
H413 C425 0.950 . S
H414 C422 0.950 . S
H415 C424 0.950 . S
H416 C426 0.950 . S
H417 C428 0.950 . S
H418 C430 0.950 . S
H419 C431 0.950 . S
C420 H412 0.950 . S
C420 C421 1.386 . S
C420 C422 1.391 . S
C421 C420 1.386 . S
C421 C425 1.393 . S
C422 H414 0.950 . S
C422 C420 1.391 . S
C422 C423 1.400 . S
C423 C422 1.400 . S
C423 C424 1.398 . S
C423 C429 1.491 . S
C424 H415 0.950 . S
C424 C423 1.398 . S
C424 C425 1.391 . S
C425 H413 0.950 . S
C425 C421 1.393 . S
C425 C424 1.391 . S
C426 H416 0.950 . S
C426 C427 1.386 . S
C426 C428 1.391 . S
C427 C426 1.386 . S
C427 C431 1.393 . S
C428 H417 0.950 . S
C428 C426 1.391 . S
C428 C429 1.400 . S
C429 C423 1.491 . S
C429 C428 1.400 . S
C429 C430 1.398 . S
C430 H418 0.950 . S
C430 C429 1.398 . S
C430 C431 1.391 . S
C431 H419 0.950 . S
C431 C427 1.393 . S
C431 C430 1.391 . S
H432 C440 0.950 . S
H433 C445 0.950 1_556 S
H434 C442 0.950 . S
H435 C444 0.950 1_556 S
H436 C446 0.950 1_556 S
H437 C448 0.950 1_556 S
H438 C450 0.950 . S
H439 C451 0.950 . S
C440 H432 0.950 . S
C440 C441 1.386 . S
C440 C442 1.391 . S
C441 C440 1.386 . S
C441 C445 1.393 . S
C442 H434 0.950 . S
C442 C440 1.391 . S
C442 C443 1.400 . S
C443 C442 1.400 . S
C443 C444 1.398 . S
C443 C449 1.491 1_455 S
C444 H435 0.950 1_554 S
C444 C443 1.398 . S
C444 C445 1.391 . S
C445 H433 0.950 1_554 S
C445 C441 1.393 . S
C445 C444 1.391 . S
C446 H436 0.950 1_554 S
C446 C447 1.386 . S
C446 C448 1.391 . S
C447 C446 1.386 . S
C447 C451 1.393 . S
C448 H437 0.950 1_554 S
C448 C446 1.391 . S
C448 C449 1.400 . S
C449 C443 1.491 1_655 S
C449 C448 1.400 . S
C449 C450 1.398 . S
C450 H438 0.950 . S
C450 C449 1.398 . S
C450 C451 1.391 . S
C451 H439 0.950 . S
C451 C447 1.393 . S
C451 C450 1.391 . S
H452 C460 0.950 . S
H453 C465 0.950 . S
H454 C462 0.950 1_545 S
H455 C464 0.950 . S
H456 C466 0.950 . S
H457 C468 0.950 1_565 S
H458 C470 0.950 . S
H459 C471 0.950 . S
C460 H452 0.950 . S
C460 C461 1.386 . S
C460 C462 1.391 . S
C461 C460 1.386 . S
C461 C465 1.393 . S
C462 H454 0.950 1_565 S
C462 C460 1.391 . S
C462 C463 1.400 . S
C463 C462 1.400 . S
C463 C464 1.398 . S
C463 C469 1.491 1_565 S
C464 H455 0.950 . S
C464 C463 1.398 . S
C464 C465 1.391 . S
C465 H453 0.950 . S
C465 C461 1.393 . S
C465 C464 1.391 . S
C466 H456 0.950 . S
C466 C467 1.386 . S
C466 C468 1.391 . S
C467 C466 1.386 . S
C467 C471 1.393 . S
C468 H457 0.950 1_545 S
C468 C466 1.391 . S
C468 C469 1.400 . S
C469 C463 1.491 1_545 S
C469 C468 1.400 . S
C469 C470 1.398 . S
C470 H458 0.950 . S
C470 C469 1.398 . S
C470 C471 1.391 . S
C471 H459 0.950 . S
C471 C467 1.393 . S
C471 C470 1.391 . S
H472 C480 0.950 . S
H473 C485 0.950 . S
H474 C482 0.950 1_545 S
H475 C484 0.950 . S
H476 C486 0.950 . S
H477 C488 0.950 1_565 S
H478 C490 0.950 . S
H479 C491 0.950 . S
C480 H472 0.950 . S
C480 C481 1.386 . S
C480 C482 1.391 . S
C481 C480 1.386 . S
C481 C485 1.393 . S
C482 H474 0.950 1_565 S
C482 C480 1.391 . S
C482 C483 1.400 . S
C483 C482 1.400 . S
C483 C484 1.398 . S
C483 C489 1.491 1_565 S
C484 H475 0.950 . S
C484 C483 1.398 . S
C484 C485 1.391 . S
C485 H473 0.950 . S
C485 C481 1.393 . S
C485 C484 1.391 . S
C486 H476 0.950 . S
C486 C487 1.386 . S
C486 C488 1.391 . S
C487 C486 1.386 . S
C487 C491 1.393 . S
C488 H477 0.950 1_545 S
C488 C486 1.391 . S
C488 C489 1.400 . S
C489 C483 1.491 1_545 S
C489 C488 1.400 . S
C489 C490 1.398 . S
C490 H478 0.950 . S
C490 C489 1.398 . S
C490 C491 1.391 . S
C491 H479 0.950 . S
C491 C487 1.393 . S
C491 C490 1.391 . S
H492 C500 0.950 . S
H493 C505 0.950 . S
H494 C502 0.950 . S
H495 C504 0.950 1_455 S
H496 C506 0.950 . S
H497 C508 0.950 . S
H498 C510 0.950 1_655 S
H499 C511 0.950 . S
C500 H492 0.950 . S
C500 C501 1.386 . S
C500 C502 1.391 . S
C501 C500 1.386 . S
C501 C505 1.393 . S
C502 H494 0.950 . S
C502 C500 1.391 . S
C502 C503 1.400 . S
C503 C502 1.400 . S
C503 C504 1.398 . S
C503 C509 1.491 1_655 S
C504 H495 0.950 1_655 S
C504 C503 1.398 . S
C504 C505 1.391 . S
C505 H493 0.950 . S
C505 C501 1.393 . S
C505 C504 1.391 . S
C506 H496 0.950 . S
C506 C507 1.386 . S
C506 C508 1.391 . S
C507 C506 1.386 . S
C507 C511 1.393 . S
C508 H497 0.950 . S
C508 C506 1.391 . S
C508 C509 1.400 . S
C509 C503 1.491 1_455 S
C509 C508 1.400 . S
C509 C510 1.398 . S
C510 H498 0.950 1_455 S
C510 C509 1.398 . S
C510 C511 1.391 . S
C511 H499 0.950 . S
C511 C507 1.393 . S
C511 C510 1.391 . S
H512 C520 0.950 . S
H513 C525 0.950 . S
H514 C522 0.950 . S
H515 C524 0.950 . S
H516 C526 0.950 . S
H517 C528 0.950 . S
H518 C530 0.950 . S
H519 C531 0.950 . S
C520 H512 0.950 . S
C520 C521 1.386 . S
C520 C522 1.391 . S
C521 C520 1.386 . S
C521 C525 1.393 . S
C522 H514 0.950 . S
C522 C520 1.391 . S
C522 C523 1.400 . S
C523 C522 1.400 . S
C523 C524 1.398 . S
C523 C529 1.491 . S
C524 H515 0.950 . S
C524 C523 1.398 . S
C524 C525 1.391 . S
C525 H513 0.950 . S
C525 C521 1.393 . S
C525 C524 1.391 . S
C526 H516 0.950 . S
C526 C527 1.386 . S
C526 C528 1.391 . S
C527 C526 1.386 . S
C527 C531 1.393 . S
C528 H517 0.950 . S
C528 C526 1.391 . S
C528 C529 1.400 . S
C529 C523 1.491 . S
C529 C528 1.400 . S
C529 C530 1.398 . S
C530 H518 0.950 . S
C530 C529 1.398 . S
C530 C531 1.391 . S
C531 H519 0.950 . S
C531 C527 1.393 . S
C531 C530 1.391 . S
H532 C540 0.950 . S
H533 C545 0.950 . S
H534 C542 0.950 . S
H535 C544 0.950 . S
H536 C546 0.950 . S
H537 C548 0.950 . S
H538 C550 0.950 . S
H539 C551 0.950 . S
C540 H532 0.950 . S
C540 C541 1.386 . S
C540 C542 1.391 . S
C541 C540 1.386 . S
C541 C545 1.393 . S
C542 H534 0.950 . S
C542 C540 1.391 . S
C542 C543 1.400 . S
C543 C542 1.400 . S
C543 C544 1.398 . S
C543 C549 1.491 . S
C544 H535 0.950 . S
C544 C543 1.398 . S
C544 C545 1.391 . S
C545 H533 0.950 . S
C545 C541 1.393 . S
C545 C544 1.391 . S
C546 H536 0.950 . S
C546 C547 1.386 . S
C546 C548 1.391 . S
C547 C546 1.386 . S
C547 C551 1.393 . S
C548 H537 0.950 . S
C548 C546 1.391 . S
C548 C549 1.400 . S
C549 C543 1.491 . S
C549 C548 1.400 . S
C549 C550 1.398 . S
C550 H538 0.950 . S
C550 C549 1.398 . S
C550 C551 1.391 . S
C551 H539 0.950 . S
C551 C547 1.393 . S
C551 C550 1.391 . S
H552 C560 0.950 . S
H553 C565 0.950 . S
H554 C562 0.950 . S
H555 C564 0.950 . S
H556 C566 0.950 . S
H557 C568 0.950 . S
H558 C570 0.950 . S
H559 C571 0.950 . S
C560 H552 0.950 . S
C560 C561 1.386 . S
C560 C562 1.391 . S
C561 C560 1.386 . S
C561 C565 1.393 . S
C562 H554 0.950 . S
C562 C560 1.391 . S
C562 C563 1.400 . S
C563 C562 1.400 . S
C563 C564 1.398 . S
C563 C569 1.491 . S
C564 H555 0.950 . S
C564 C563 1.398 . S
C564 C565 1.391 . S
C565 H553 0.950 . S
C565 C561 1.393 . S
C565 C564 1.391 . S
C566 H556 0.950 . S
C566 C567 1.386 . S
C566 C568 1.391 . S
C567 C566 1.386 . S
C567 C571 1.393 . S
C568 H557 0.950 . S
C568 C566 1.391 . S
C568 C569 1.400 . S
C569 C563 1.491 . S
C569 C568 1.400 . S
C569 C570 1.398 . S
C570 H558 0.950 . S
C570 C569 1.398 . S
C570 C571 1.391 . S
C571 H559 0.950 . S
C571 C567 1.393 . S
C571 C570 1.391 . S
H572 C580 0.950 . S
H573 C585 0.950 . S
H574 C582 0.950 . S
H575 C584 0.950 . S
H576 C586 0.950 . S
H577 C588 0.950 . S
H578 C590 0.950 . S
H579 C591 0.950 . S
C580 H572 0.950 . S
C580 C581 1.386 . S
C580 C582 1.391 . S
C581 C580 1.386 . S
C581 C585 1.393 . S
C582 H574 0.950 . S
C582 C580 1.391 . S
C582 C583 1.400 . S
C583 C582 1.400 . S
C583 C584 1.398 . S
C583 C589 1.491 . S
C584 H575 0.950 . S
C584 C583 1.398 . S
C584 C585 1.391 . S
C585 H573 0.950 . S
C585 C581 1.393 . S
C585 C584 1.391 . S
C586 H576 0.950 . S
C586 C587 1.386 . S
C586 C588 1.391 . S
C587 C586 1.386 . S
C587 C591 1.393 . S
C588 H577 0.950 . S
C588 C586 1.391 . S
C588 C589 1.400 . S
C589 C583 1.491 . S
C589 C588 1.400 . S
C589 C590 1.398 . S
C590 H578 0.950 . S
C590 C589 1.398 . S
C590 C591 1.391 . S
C591 H579 0.950 . S
C591 C587 1.393 . S
C591 C590 1.391 . S
H592 C600 0.950 . S
H593 C605 0.950 . S
H594 C602 0.950 . S
H595 C604 0.950 . S
H596 C606 0.950 . S
H597 C608 0.950 . S
H598 C610 0.950 . S
H599 C611 0.950 . S
C600 H592 0.950 . S
C600 C601 1.386 . S
C600 C602 1.391 . S
C601 C600 1.386 . S
C601 C605 1.393 . S
C602 H594 0.950 . S
C602 C600 1.391 . S
C602 C603 1.400 . S
C603 C602 1.400 . S
C603 C604 1.398 . S
C603 C609 1.491 . S
C604 H595 0.950 . S
C604 C603 1.398 . S
C604 C605 1.391 . S
C605 H593 0.950 . S
C605 C601 1.393 . S
C605 C604 1.391 . S
C606 H596 0.950 . S
C606 C607 1.386 . S
C606 C608 1.391 . S
C607 C606 1.386 . S
C607 C611 1.393 . S
C608 H597 0.950 . S
C608 C606 1.391 . S
C608 C609 1.400 . S
C609 C603 1.491 . S
C609 C608 1.400 . S
C609 C610 1.398 . S
C610 H598 0.950 . S
C610 C609 1.398 . S
C610 C611 1.391 . S
C611 H599 0.950 . S
C611 C607 1.393 . S
C611 C610 1.391 . S
H612 C620 0.950 . S
H613 C625 0.950 . S
H614 C622 0.950 . S
H615 C624 0.950 . S
H616 C626 0.950 . S
H617 C628 0.950 . S
H618 C630 0.950 . S
H619 C631 0.950 . S
C620 H612 0.950 . S
C620 C621 1.386 . S
C620 C622 1.391 . S
C621 C620 1.386 . S
C621 C625 1.393 . S
C622 H614 0.950 . S
C622 C620 1.391 . S
C622 C623 1.400 . S
C623 C622 1.400 . S
C623 C624 1.398 . S
C623 C629 1.491 . S
C624 H615 0.950 . S
C624 C623 1.398 . S
C624 C625 1.391 . S
C625 H613 0.950 . S
C625 C621 1.393 . S
C625 C624 1.391 . S
C626 H616 0.950 . S
C626 C627 1.386 . S
C626 C628 1.391 . S
C627 C626 1.386 . S
C627 C631 1.393 . S
C628 H617 0.950 . S
C628 C626 1.391 . S
C628 C629 1.400 . S
C629 C623 1.491 . S
C629 C628 1.400 . S
C629 C630 1.398 . S
C630 H618 0.950 . S
C630 C629 1.398 . S
C630 C631 1.391 . S
C631 H619 0.950 . S
C631 C627 1.393 . S
C631 C630 1.391 . S
H632 C640 0.950 . S
H633 C645 0.950 . S
H634 C642 0.950 . S
H635 C644 0.950 . S
H636 C646 0.950 . S
H637 C648 0.950 . S
H638 C650 0.950 . S
H639 C651 0.950 . S
C640 H632 0.950 . S
C640 C641 1.386 . S
C640 C642 1.391 . S
C641 C640 1.386 . S
C641 C645 1.393 . S
C642 H634 0.950 . S
C642 C640 1.391 . S
C642 C643 1.400 . S
C643 C642 1.400 . S
C643 C644 1.398 . S
C643 C649 1.491 . S
C644 H635 0.950 . S
C644 C643 1.398 . S
C644 C645 1.391 . S
C645 H633 0.950 . S
C645 C641 1.393 . S
C645 C644 1.391 . S
C646 H636 0.950 . S
C646 C647 1.386 . S
C646 C648 1.391 . S
C647 C646 1.386 . S
C647 C651 1.393 . S
C648 H637 0.950 . S
C648 C646 1.391 . S
C648 C649 1.400 . S
C649 C643 1.491 . S
C649 C648 1.400 . S
C649 C650 1.398 . S
C650 H638 0.950 . S
C650 C649 1.398 . S
C650 C651 1.391 . S
C651 H639 0.950 . S
C651 C647 1.393 . S
C651 C650 1.391 . S
H652 C660 0.950 . S
H653 C665 0.950 . S
H654 C662 0.950 . S
H655 C664 0.950 . S
H656 C666 0.950 . S
H657 C668 0.950 . S
H658 C670 0.950 . S
H659 C671 0.950 . S
C660 H652 0.950 . S
C660 C661 1.386 . S
C660 C662 1.391 . S
C661 C660 1.386 . S
C661 C665 1.393 . S
C662 H654 0.950 . S
C662 C660 1.391 . S
C662 C663 1.400 . S
C663 C662 1.400 . S
C663 C664 1.398 . S
C663 C669 1.491 . S
C664 H655 0.950 . S
C664 C663 1.398 . S
C664 C665 1.391 . S
C665 H653 0.950 . S
C665 C661 1.393 . S
C665 C664 1.391 . S
C666 H656 0.950 . S
C666 C667 1.386 . S
C666 C668 1.391 . S
C667 C666 1.386 . S
C667 C671 1.393 . S
C668 H657 0.950 . S
C668 C666 1.391 . S
C668 C669 1.400 . S
C669 C663 1.491 . S
C669 C668 1.400 . S
C669 C670 1.398 . S
C670 H658 0.950 . S
C670 C669 1.398 . S
C670 C671 1.391 . S
C671 H659 0.950 . S
C671 C667 1.393 . S
C671 C670 1.391 . S
C281 C237 1.489 . S
C287 C20 1.520 . S
C301 C271 1.510 . S
C307 C54 1.538 . S
C321 C169 1.509 . S
C327 C88 1.533 . S
C341 C203 1.506 . S
C347 C122 1.536 . S
C361 C101 1.508 . S
C367 C156 1.537 . S
C381 C135 1.490 . S
C387 C190 1.521 . S
C401 C33 1.511 . S
C407 C224 1.535 . S
C421 C258 1.531 . S
C427 C67 1.499 . S
C441 C2 0.433 . S
C447 C70 0.437 . S
C461 C104 0.449 . S
C467 C36 0.460 . S
C481 C206 0.470 . S
C487 C138 0.460 . S
C501 C172 0.440 . S
C507 C240 0.450 . S
C521 C5 1.798 . S
C527 C243 1.798 . S
C541 C141 1.798 . S
C547 C39 1.798 . S
C561 C175 1.799 . S
C567 C73 1.801 . S
C581 C209 1.808 . S
C587 C107 1.808 . S
C601 C77 1.099 . S
C607 C179 1.109 . S
C621 C111 1.101 . S
C627 C213 1.110 . S
C641 C247 1.084 . S
C647 C9 1.088 . S
C661 C145 1.103 . S
C667 C43 1.093 . S
