# Generated by pormake.
# Topology wmy, (6)-cn, num edge types: 1
# Building blocks:
#     Node 0, Type 0, BuildingBlock: OJICUG_clean_sbu_0, # of connection points: 6
#     Node 1, Type 0, BuildingBlock: OJICUG_clean_sbu_0, # of connection points: 6
#     Node 2, Type 0, BuildingBlock: OJICUG_clean_sbu_0, # of connection points: 6
#     Node 3, Type 0, BuildingBlock: OJICUG_clean_sbu_0, # of connection points: 6
#     Node 4, Type 0, BuildingBlock: OJICUG_clean_sbu_0, # of connection points: 6
#     Node 5, Type 0, BuildingBlock: OJICUG_clean_sbu_0, # of connection points: 6
#     Node 6, Type 0, BuildingBlock: OJICUG_clean_sbu_0, # of connection points: 6
#     Node 7, Type 0, BuildingBlock: OJICUG_clean_sbu_0, # of connection points: 6
#     Node 8, Type 0, BuildingBlock: OJICUG_clean_sbu_0, # of connection points: 6
#     Node 9, Type 0, BuildingBlock: OJICUG_clean_sbu_0, # of connection points: 6
#     Node 10, Type 0, BuildingBlock: OJICUG_clean_sbu_0, # of connection points: 6
#     Node 11, Type 0, BuildingBlock: OJICUG_clean_sbu_0, # of connection points: 6
#     Node 12, Type 0, BuildingBlock: OJICUG_clean_sbu_0, # of connection points: 6
#     Node 13, Type 0, BuildingBlock: OJICUG_clean_sbu_0, # of connection points: 6
#     Node 14, Type 0, BuildingBlock: OJICUG_clean_sbu_0, # of connection points: 6
#     Node 15, Type 0, BuildingBlock: OJICUG_clean_sbu_0, # of connection points: 6
#     Node 16, Type 0, BuildingBlock: OJICUG_clean_sbu_0, # of connection points: 6
#     Node 17, Type 0, BuildingBlock: OJICUG_clean_sbu_0, # of connection points: 6
#     Node 18, Type 0, BuildingBlock: OJICUG_clean_sbu_0, # of connection points: 6
#     Node 19, Type 0, BuildingBlock: OJICUG_clean_sbu_0, # of connection points: 6
#     Node 20, Type 0, BuildingBlock: OJICUG_clean_sbu_0, # of connection points: 6
#     Node 21, Type 0, BuildingBlock: OJICUG_clean_sbu_0, # of connection points: 6
#     Node 22, Type 0, BuildingBlock: OJICUG_clean_sbu_0, # of connection points: 6
#     Node 23, Type 0, BuildingBlock: OJICUG_clean_sbu_0, # of connection points: 6
#     Node 24, Type 0, BuildingBlock: OJICUG_clean_sbu_0, # of connection points: 6
#     Node 25, Type 0, BuildingBlock: OJICUG_clean_sbu_0, # of connection points: 6
#     Node 26, Type 0, BuildingBlock: OJICUG_clean_sbu_0, # of connection points: 6
#     Node 27, Type 0, BuildingBlock: OJICUG_clean_sbu_0, # of connection points: 6
#     Node 28, Type 0, BuildingBlock: OJICUG_clean_sbu_0, # of connection points: 6
#     Node 29, Type 0, BuildingBlock: OJICUG_clean_sbu_0, # of connection points: 6
#     Node 30, Type 0, BuildingBlock: OJICUG_clean_sbu_0, # of connection points: 6
#     Node 31, Type 0, BuildingBlock: OJICUG_clean_sbu_0, # of connection points: 6
#     Node 32, Type 0, BuildingBlock: OJICUG_clean_sbu_0, # of connection points: 6
#     Node 33, Type 0, BuildingBlock: OJICUG_clean_sbu_0, # of connection points: 6
#     Node 34, Type 0, BuildingBlock: OJICUG_clean_sbu_0, # of connection points: 6
#     Node 35, Type 0, BuildingBlock: OJICUG_clean_sbu_0, # of connection points: 6
#     Edge 36, Type (0, 0), BuildingBlock: ZUJKAS_clean_linker_0, # of connection points: 2
#     Edge 37, Type (0, 0), BuildingBlock: ZUJKAS_clean_linker_0, # of connection points: 2
#     Edge 38, Type (0, 0), BuildingBlock: ZUJKAS_clean_linker_0, # of connection points: 2
#     Edge 39, Type (0, 0), BuildingBlock: ZUJKAS_clean_linker_0, # of connection points: 2
#     Edge 40, Type (0, 0), BuildingBlock: ZUJKAS_clean_linker_0, # of connection points: 2
#     Edge 41, Type (0, 0), BuildingBlock: ZUJKAS_clean_linker_0, # of connection points: 2
#     Edge 42, Type (0, 0), BuildingBlock: ZUJKAS_clean_linker_0, # of connection points: 2
#     Edge 43, Type (0, 0), BuildingBlock: ZUJKAS_clean_linker_0, # of connection points: 2
#     Edge 44, Type (0, 0), BuildingBlock: ZUJKAS_clean_linker_0, # of connection points: 2
#     Edge 45, Type (0, 0), BuildingBlock: ZUJKAS_clean_linker_0, # of connection points: 2
#     Edge 46, Type (0, 0), BuildingBlock: ZUJKAS_clean_linker_0, # of connection points: 2
#     Edge 47, Type (0, 0), BuildingBlock: ZUJKAS_clean_linker_0, # of connection points: 2
#     Edge 48, Type (0, 0), BuildingBlock: ZUJKAS_clean_linker_0, # of connection points: 2
#     Edge 49, Type (0, 0), BuildingBlock: ZUJKAS_clean_linker_0, # of connection points: 2
#     Edge 50, Type (0, 0), BuildingBlock: ZUJKAS_clean_linker_0, # of connection points: 2
#     Edge 51, Type (0, 0), BuildingBlock: ZUJKAS_clean_linker_0, # of connection points: 2
#     Edge 52, Type (0, 0), BuildingBlock: ZUJKAS_clean_linker_0, # of connection points: 2
#     Edge 53, Type (0, 0), BuildingBlock: ZUJKAS_clean_linker_0, # of connection points: 2
#     Edge 54, Type (0, 0), BuildingBlock: ZUJKAS_clean_linker_0, # of connection points: 2
#     Edge 55, Type (0, 0), BuildingBlock: ZUJKAS_clean_linker_0, # of connection points: 2
#     Edge 56, Type (0, 0), BuildingBlock: ZUJKAS_clean_linker_0, # of connection points: 2
#     Edge 57, Type (0, 0), BuildingBlock: ZUJKAS_clean_linker_0, # of connection points: 2
#     Edge 58, Type (0, 0), BuildingBlock: ZUJKAS_clean_linker_0, # of connection points: 2
#     Edge 59, Type (0, 0), BuildingBlock: ZUJKAS_clean_linker_0, # of connection points: 2
#     Edge 60, Type (0, 0), BuildingBlock: ZUJKAS_clean_linker_0, # of connection points: 2
#     Edge 61, Type (0, 0), BuildingBlock: ZUJKAS_clean_linker_0, # of connection points: 2
#     Edge 62, Type (0, 0), BuildingBlock: ZUJKAS_clean_linker_0, # of connection points: 2
#     Edge 63, Type (0, 0), BuildingBlock: ZUJKAS_clean_linker_0, # of connection points: 2
#     Edge 64, Type (0, 0), BuildingBlock: ZUJKAS_clean_linker_0, # of connection points: 2
#     Edge 65, Type (0, 0), BuildingBlock: ZUJKAS_clean_linker_0, # of connection points: 2
#     Edge 66, Type (0, 0), BuildingBlock: ZUJKAS_clean_linker_0, # of connection points: 2
#     Edge 67, Type (0, 0), BuildingBlock: ZUJKAS_clean_linker_0, # of connection points: 2
#     Edge 68, Type (0, 0), BuildingBlock: ZUJKAS_clean_linker_0, # of connection points: 2
#     Edge 69, Type (0, 0), BuildingBlock: ZUJKAS_clean_linker_0, # of connection points: 2
#     Edge 70, Type (0, 0), BuildingBlock: ZUJKAS_clean_linker_0, # of connection points: 2
#     Edge 71, Type (0, 0), BuildingBlock: ZUJKAS_clean_linker_0, # of connection points: 2
#     Edge 72, Type (0, 0), BuildingBlock: ZUJKAS_clean_linker_0, # of connection points: 2
#     Edge 73, Type (0, 0), BuildingBlock: ZUJKAS_clean_linker_0, # of connection points: 2
#     Edge 74, Type (0, 0), BuildingBlock: ZUJKAS_clean_linker_0, # of connection points: 2
#     Edge 75, Type (0, 0), BuildingBlock: ZUJKAS_clean_linker_0, # of connection points: 2
#     Edge 76, Type (0, 0), BuildingBlock: ZUJKAS_clean_linker_0, # of connection points: 2
#     Edge 77, Type (0, 0), BuildingBlock: ZUJKAS_clean_linker_0, # of connection points: 2
#     Edge 78, Type (0, 0), BuildingBlock: ZUJKAS_clean_linker_0, # of connection points: 2
#     Edge 79, Type (0, 0), BuildingBlock: ZUJKAS_clean_linker_0, # of connection points: 2
#     Edge 80, Type (0, 0), BuildingBlock: ZUJKAS_clean_linker_0, # of connection points: 2
#     Edge 81, Type (0, 0), BuildingBlock: ZUJKAS_clean_linker_0, # of connection points: 2
#     Edge 82, Type (0, 0), BuildingBlock: ZUJKAS_clean_linker_0, # of connection points: 2
#     Edge 83, Type (0, 0), BuildingBlock: ZUJKAS_clean_linker_0, # of connection points: 2
#     Edge 84, Type (0, 0), BuildingBlock: ZUJKAS_clean_linker_0, # of connection points: 2
#     Edge 85, Type (0, 0), BuildingBlock: ZUJKAS_clean_linker_0, # of connection points: 2
#     Edge 86, Type (0, 0), BuildingBlock: ZUJKAS_clean_linker_0, # of connection points: 2
#     Edge 87, Type (0, 0), BuildingBlock: ZUJKAS_clean_linker_0, # of connection points: 2
#     Edge 88, Type (0, 0), BuildingBlock: ZUJKAS_clean_linker_0, # of connection points: 2
#     Edge 89, Type (0, 0), BuildingBlock: ZUJKAS_clean_linker_0, # of connection points: 2
#     Edge 90, Type (0, 0), BuildingBlock: ZUJKAS_clean_linker_0, # of connection points: 2
#     Edge 91, Type (0, 0), BuildingBlock: ZUJKAS_clean_linker_0, # of connection points: 2
#     Edge 92, Type (0, 0), BuildingBlock: ZUJKAS_clean_linker_0, # of connection points: 2
#     Edge 93, Type (0, 0), BuildingBlock: ZUJKAS_clean_linker_0, # of connection points: 2
#     Edge 94, Type (0, 0), BuildingBlock: ZUJKAS_clean_linker_0, # of connection points: 2
#     Edge 95, Type (0, 0), BuildingBlock: ZUJKAS_clean_linker_0, # of connection points: 2
#     Edge 96, Type (0, 0), BuildingBlock: ZUJKAS_clean_linker_0, # of connection points: 2
#     Edge 97, Type (0, 0), BuildingBlock: ZUJKAS_clean_linker_0, # of connection points: 2
#     Edge 98, Type (0, 0), BuildingBlock: ZUJKAS_clean_linker_0, # of connection points: 2
#     Edge 99, Type (0, 0), BuildingBlock: ZUJKAS_clean_linker_0, # of connection points: 2
#     Edge 100, Type (0, 0), BuildingBlock: ZUJKAS_clean_linker_0, # of connection points: 2
#     Edge 101, Type (0, 0), BuildingBlock: ZUJKAS_clean_linker_0, # of connection points: 2
#     Edge 102, Type (0, 0), BuildingBlock: ZUJKAS_clean_linker_0, # of connection points: 2
#     Edge 103, Type (0, 0), BuildingBlock: ZUJKAS_clean_linker_0, # of connection points: 2
#     Edge 104, Type (0, 0), BuildingBlock: ZUJKAS_clean_linker_0, # of connection points: 2
#     Edge 105, Type (0, 0), BuildingBlock: ZUJKAS_clean_linker_0, # of connection points: 2
#     Edge 106, Type (0, 0), BuildingBlock: ZUJKAS_clean_linker_0, # of connection points: 2
#     Edge 107, Type (0, 0), BuildingBlock: ZUJKAS_clean_linker_0, # of connection points: 2
#     Edge 108, Type (0, 0), BuildingBlock: ZUJKAS_clean_linker_0, # of connection points: 2
#     Edge 109, Type (0, 0), BuildingBlock: ZUJKAS_clean_linker_0, # of connection points: 2
#     Edge 110, Type (0, 0), BuildingBlock: ZUJKAS_clean_linker_0, # of connection points: 2
#     Edge 111, Type (0, 0), BuildingBlock: ZUJKAS_clean_linker_0, # of connection points: 2
#     Edge 112, Type (0, 0), BuildingBlock: ZUJKAS_clean_linker_0, # of connection points: 2
#     Edge 113, Type (0, 0), BuildingBlock: ZUJKAS_clean_linker_0, # of connection points: 2
#     Edge 114, Type (0, 0), BuildingBlock: ZUJKAS_clean_linker_0, # of connection points: 2
#     Edge 115, Type (0, 0), BuildingBlock: ZUJKAS_clean_linker_0, # of connection points: 2
#     Edge 116, Type (0, 0), BuildingBlock: ZUJKAS_clean_linker_0, # of connection points: 2
#     Edge 117, Type (0, 0), BuildingBlock: ZUJKAS_clean_linker_0, # of connection points: 2
#     Edge 118, Type (0, 0), BuildingBlock: ZUJKAS_clean_linker_0, # of connection points: 2
#     Edge 119, Type (0, 0), BuildingBlock: ZUJKAS_clean_linker_0, # of connection points: 2
#     Edge 120, Type (0, 0), BuildingBlock: ZUJKAS_clean_linker_0, # of connection points: 2
#     Edge 121, Type (0, 0), BuildingBlock: ZUJKAS_clean_linker_0, # of connection points: 2
#     Edge 122, Type (0, 0), BuildingBlock: ZUJKAS_clean_linker_0, # of connection points: 2
#     Edge 123, Type (0, 0), BuildingBlock: ZUJKAS_clean_linker_0, # of connection points: 2
#     Edge 124, Type (0, 0), BuildingBlock: ZUJKAS_clean_linker_0, # of connection points: 2
#     Edge 125, Type (0, 0), BuildingBlock: ZUJKAS_clean_linker_0, # of connection points: 2
#     Edge 126, Type (0, 0), BuildingBlock: ZUJKAS_clean_linker_0, # of connection points: 2
#     Edge 127, Type (0, 0), BuildingBlock: ZUJKAS_clean_linker_0, # of connection points: 2
#     Edge 128, Type (0, 0), BuildingBlock: ZUJKAS_clean_linker_0, # of connection points: 2
#     Edge 129, Type (0, 0), BuildingBlock: ZUJKAS_clean_linker_0, # of connection points: 2
#     Edge 130, Type (0, 0), BuildingBlock: ZUJKAS_clean_linker_0, # of connection points: 2
#     Edge 131, Type (0, 0), BuildingBlock: ZUJKAS_clean_linker_0, # of connection points: 2
#     Edge 132, Type (0, 0), BuildingBlock: ZUJKAS_clean_linker_0, # of connection points: 2
#     Edge 133, Type (0, 0), BuildingBlock: ZUJKAS_clean_linker_0, # of connection points: 2
#     Edge 134, Type (0, 0), BuildingBlock: ZUJKAS_clean_linker_0, # of connection points: 2
#     Edge 135, Type (0, 0), BuildingBlock: ZUJKAS_clean_linker_0, # of connection points: 2
#     Edge 136, Type (0, 0), BuildingBlock: ZUJKAS_clean_linker_0, # of connection points: 2
#     Edge 137, Type (0, 0), BuildingBlock: ZUJKAS_clean_linker_0, # of connection points: 2
#     Edge 138, Type (0, 0), BuildingBlock: ZUJKAS_clean_linker_0, # of connection points: 2
#     Edge 139, Type (0, 0), BuildingBlock: ZUJKAS_clean_linker_0, # of connection points: 2
#     Edge 140, Type (0, 0), BuildingBlock: ZUJKAS_clean_linker_0, # of connection points: 2
#     Edge 141, Type (0, 0), BuildingBlock: ZUJKAS_clean_linker_0, # of connection points: 2
#     Edge 142, Type (0, 0), BuildingBlock: ZUJKAS_clean_linker_0, # of connection points: 2
#     Edge 143, Type (0, 0), BuildingBlock: ZUJKAS_clean_linker_0, # of connection points: 2
# Relax obj value: 0.454
# Max RMSD: 0.185
# Mean RMSD: 0.185
data_MOF--net-wmy--node1-OJICUG_clean_sbu_0--edge1-ZUJKAS_clean_linker_0
_symmetry_space_group_name_H-M    P1
_symmetry_Int_Tables_number       1
_symmetry_cell_setting            triclinic
loop_
_symmetry_equiv_pos_as_xyz
'x, y, z'
_cell_length_a     68.827113
_cell_length_b     68.816395
_cell_length_c     73.263913
_cell_angle_alpha  90.002241
_cell_angle_beta   89.994443
_cell_angle_gamma 120.00467
loop_
_atom_site_label
_atom_site_type_symbol
_atom_site_fract_x
_atom_site_fract_y
_atom_site_fract_z
_atom_type_partial_charge
Sc0 Sc -0.00117 0.14824 0.08349 0.0
Sc1 Sc 0.02956 0.19648 0.11018 0.0
Sc2 Sc 0.97005 0.16918 0.10903 0.0
O3 O -0.00054 0.17134 0.10091 0.0
C4 C 0.9605 0.15621 0.06684 0.0
C5 C 0.04093 0.19361 0.06863 0.0
C6 C 0.00179 0.22196 0.10432 0.0
C7 C 0.03796 0.15487 0.11033 0.0
C8 C 0.95697 0.11769 0.10916 0.0
C9 C -0.00094 0.18287 0.14585 0.0
O10 O 0.97564 0.15085 0.06543 0.0
O11 O 0.04419 0.20486 0.08323 0.0
O12 O 0.98248 0.20445 0.10416 0.0
O13 O 0.02167 0.14288 0.09978 0.0
O14 O 0.95393 0.1335 0.11473 0.0
O15 O 0.01797 0.1906 0.13796 0.0
O16 O 0.97222 0.12077 0.09786 0.0
O17 O 0.04349 0.17485 0.11472 0.0
O18 O 0.98064 0.17523 0.13718 0.0
O19 O 0.02565 0.17318 0.06717 0.0
O20 O 0.95626 0.16281 0.08176 0.0
O21 O 0.01975 0.22136 0.10679 0.0
Sc22 Sc 0.83935 0.84801 0.07778 0.0
Sc23 Sc 0.79684 0.83255 0.11038 0.0
Sc24 Sc 0.82583 0.80218 0.10672 0.0
O25 O 0.82067 0.82755 0.09833 0.0
C26 C 0.83279 0.80107 0.06387 0.0
C27 C 0.7913 0.84107 0.06832 0.0
C28 C 0.77237 0.77907 0.10668 0.0
C29 C 0.8356 0.88288 0.10462 0.0
C30 C 0.87587 0.84319 0.10114 0.0
C31 C 0.81647 0.8192 0.14448 0.0
O32 O 0.83718 0.82112 0.06146 0.0
O33 O 0.78445 0.83766 0.08476 0.0
O34 O 0.79026 0.7779 0.10585 0.0
O35 O 0.84411 0.8779 0.09128 0.0
O36 O 0.862 0.82426 0.10816 0.0
O37 O 0.80625 0.82838 0.13737 0.0
O38 O 0.86994 0.85358 0.09015 0.0
O39 O 0.81886 0.86818 0.11356 0.0
O40 O 0.8243 0.80912 0.13515 0.0
O41 O 0.8104 0.84414 0.06361 0.0
O42 O 0.82815 0.79174 0.07945 0.0
O43 O 0.77246 0.79751 0.10841 0.0
Sc44 Sc 0.15017 0.00042 0.07513 0.0
Sc45 Sc 0.16224 0.96851 0.10545 0.0
Sc46 Sc 0.19725 0.02736 0.1037 0.0
O47 O 0.16987 0.99874 0.09479 0.0
C48 C 0.1978 0.03727 0.06089 0.0
C49 C 0.15096 0.95589 0.06369 0.0
C50 C 0.21591 0.99383 0.10078 0.0
C51 C 0.11357 0.96341 0.1014 0.0
C52 C 0.16139 0.04291 0.10031 0.0
C53 C 0.17939 -0.00104 0.1406 0.0
O54 O 0.17817 0.02105 0.05793 0.0
O55 O 0.15759 0.9529 0.07907 0.0
O56 O 0.21875 0.01348 0.09889 0.0
O57 O 0.11993 0.97971 0.09031 0.0
O58 O 0.17745 0.04319 0.10916 0.0
O59 O 0.16576 0.98055 0.13295 0.0
O60 O 0.15134 0.0295 0.08717 0.0
O61 O 0.12675 0.95697 0.10749 0.0
O62 O 0.1927 0.01655 0.13178 0.0
O63 O 0.14697 0.97176 0.06072 0.0
O64 O 0.20619 0.04245 0.07683 0.0
O65 O 0.1969 0.97673 0.10436 0.0
Sc66 Sc 0.14645 0.00182 0.397 0.0
Sc67 Sc 0.19545 0.03342 0.37158 0.0
Sc68 Sc 0.17 0.97409 0.37332 0.0
O69 O 0.17067 0.00308 0.38065 0.0
C70 C 0.15406 0.96401 0.41495 0.0
C71 C 0.19065 0.04459 0.4127 0.0
C72 C 0.22197 0.00704 0.37986 0.0
C73 C 0.15316 0.04059 0.36979 0.0
C74 C 0.11841 0.95992 0.37052 0.0
C75 C 0.1847 0.00294 0.33641 0.0
O76 O 0.14885 0.97927 0.41579 0.0
O77 O 0.20259 0.04808 0.39849 0.0
O78 O 0.2048 0.98751 0.38053 0.0
O79 O 0.14096 0.024 0.38 0.0
O80 O 0.13488 0.95759 0.36558 0.0
O81 O 0.19018 0.02161 0.34397 0.0
O82 O 0.12033 0.97466 0.38195 0.0
O83 O 0.17348 0.04673 0.36622 0.0
O84 O 0.17855 0.98487 0.34527 0.0
O85 O 0.17025 0.02906 0.41372 0.0
O86 O 0.16132 0.95969 0.40043 0.0
O87 O 0.22089 0.02446 0.37587 0.0
Sc88 Sc 0.99755 0.15032 0.40596 0.0
Sc89 Sc 0.96475 0.16373 0.37772 0.0
Sc90 Sc 0.02389 0.19844 0.37834 0.0
O91 O 0.99539 0.17084 0.3873 0.0
C92 C 0.03424 0.19798 0.42097 0.0
C93 C 0.95333 0.1504 0.4194 0.0
C94 C 0.99024 0.21717 0.38299 0.0
C95 C 0.9599 0.11498 0.37927 0.0
C96 C 0.03993 0.1627 0.38046 0.0
C97 C 0.9946 0.18118 0.34181 0.0
O98 O 0.01892 0.17775 0.42344 0.0
O99 O 0.94962 0.15734 0.40446 0.0
O100 O 0.00997 0.21997 0.38309 0.0
O101 O 0.97621 0.12075 0.39024 0.0
O102 O 0.04055 0.1795 0.37267 0.0
O103 O 0.976 0.16916 0.34988 0.0
O104 O 0.0261 0.15154 0.39303 0.0
O105 O 0.95344 0.12845 0.37395 0.0
O106 O 0.01292 0.19306 0.35033 0.0
O107 O 0.96954 0.14675 0.42148 0.0
O108 O 0.03866 0.20734 0.40535 0.0
O109 O 0.97276 0.1981 0.3806 0.0
Sc110 Sc 0.85482 0.84607 0.40355 0.0
Sc111 Sc 0.83636 0.7987 0.37552 0.0
Sc112 Sc 0.80651 0.8284 0.37662 0.0
O113 O 0.83252 0.82437 0.38521 0.0
C114 C 0.80865 0.84001 0.41895 0.0
C115 C 0.84852 0.79925 0.4175 0.0
C116 C 0.78312 0.77517 0.38051 0.0
C117 C 0.8872 0.83855 0.37688 0.0
C118 C 0.84693 0.87917 0.37809 0.0
C119 C 0.82173 0.81469 0.33988 0.0
O120 O 0.82891 0.84473 0.42077 0.0
O121 O 0.84179 0.78913 0.4023 0.0
O122 O 0.78224 0.7932 0.38034 0.0
O123 O 0.88334 0.85003 0.38839 0.0
O124 O 0.82784 0.86424 0.37213 0.0
O125 O 0.83142 0.80545 0.34784 0.0
O126 O 0.85826 0.87483 0.38937 0.0
O127 O 0.87198 0.81956 0.3711 0.0
O128 O 0.81182 0.82332 0.34846 0.0
O129 O 0.8538 0.81962 0.41972 0.0
O130 O 0.79826 0.83396 0.40382 0.0
O131 O 0.80133 0.77485 0.37869 0.0
Sc132 Sc 0.01932 0.82478 0.87886 0.0
Sc133 Sc 0.95998 0.79817 0.87631 0.0
Sc134 Sc 0.99002 0.84437 0.90532 0.0
O135 O 0.98977 0.82242 0.8868 0.0
C136 C 0.02842 0.83613 0.92129 0.0
C137 C 0.98712 0.77197 0.88232 0.0
C138 C 0.94739 0.79839 0.91813 0.0
C139 C 0.99173 0.81265 0.84143 0.0
C140 C 0.03202 0.87614 0.8801 0.0
C141 C 0.95168 0.8398 0.87812 0.0
O142 O 0.0328 0.83019 0.90613 0.0
O143 O 0.96931 0.7728 0.87949 0.0
O144 O 0.96323 0.81834 0.92086 0.0
O145 O 0.00971 0.81964 0.85057 0.0
O146 O 0.01669 0.87259 0.89151 0.0
O147 O 0.947 0.82068 0.87193 0.0
O148 O 0.03518 0.86059 0.87403 0.0
O149 O 0.97257 0.80506 0.84882 0.0
O150 O 0.96693 0.85027 0.88992 0.0
O151 O 0.0065 0.78937 0.883 0.0
O152 O 0.01317 0.84127 0.92302 0.0
O153 O 0.94405 0.78861 0.90277 0.0
Sc154 Sc 0.16548 0.19192 0.87719 0.0
Sc155 Sc 0.19369 0.16073 0.87449 0.0
Sc156 Sc 0.14856 0.14428 0.90473 0.0
O157 O 0.16927 0.16568 0.88546 0.0
C158 C 0.15546 0.19076 0.91985 0.0
C159 C 0.21842 0.21419 0.87885 0.0
C160 C 0.19601 0.15028 0.91654 0.0
C161 C 0.17675 0.17548 0.83972 0.0
C162 C 0.11479 0.15208 0.87992 0.0
C163 C 0.15343 0.11026 0.87814 0.0
O164 O 0.16035 0.20052 0.90443 0.0
O165 O 0.21819 0.19587 0.87588 0.0
O166 O 0.17585 0.14523 0.91969 0.0
O167 O 0.17 0.18674 0.84881 0.0
O168 O 0.11929 0.1412 0.89157 0.0
O169 O 0.17218 0.12488 0.8715 0.0
O170 O 0.12968 0.17068 0.87315 0.0
O171 O 0.18488 0.16444 0.84717 0.0
O172 O 0.14293 0.11503 0.88991 0.0
O173 O 0.20078 0.21556 0.88069 0.0
O174 O 0.15143 0.17077 0.92197 0.0
O175 O 0.20511 0.15648 0.9009 0.0
Sc176 Sc 0.79728 0.97141 0.87912 0.0
Sc177 Sc 0.82991 0.03088 0.87769 0.0
Sc178 Sc 0.84447 0.00026 0.90744 0.0
O179 O 0.82388 0.00085 0.88804 0.0
C180 C 0.79699 0.96205 0.92175 0.0
C181 C 0.77642 0.0035 0.88234 0.0
C182 C 0.84144 0.0432 0.9197 0.0
C183 C 0.81417 -2e-05 0.84225 0.0
C184 C 0.83551 0.95846 0.88222 0.0
C185 C 0.87949 0.0384 0.88076 0.0
O186 O 0.78799 0.957 0.90605 0.0
O187 O 0.79513 0.02145 0.8801 0.0
O188 O 0.84528 0.02725 0.92261 0.0
O189 O 0.80304 0.98174 0.85102 0.0
O190 O 0.84614 0.97316 0.89442 0.0
O191 O 0.86542 0.04343 0.87425 0.0
O192 O 0.81765 0.95593 0.87482 0.0
O193 O 0.82517 0.01894 0.85004 0.0
O194 O 0.87418 0.02298 0.89254 0.0
O195 O 0.77446 0.98409 0.88276 0.0
O196 O 0.81696 0.97777 0.92445 0.0
O197 O 0.83551 0.04671 0.90418 0.0
Sc198 Sc 0.8263 0.01856 0.60942 0.0
Sc199 Sc 0.79751 0.95905 0.61134 0.0
Sc200 Sc 0.84579 0.98818 0.58429 0.0
O201 O 0.82318 0.98861 0.60171 0.0
C202 C 0.83964 0.02761 0.56739 0.0
C203 C 0.77341 0.98785 0.60425 0.0
C204 C 0.79991 0.94693 0.56972 0.0
C205 C 0.81166 0.99044 0.64656 0.0
C206 C 0.87731 0.02977 0.60978 0.0
C207 C 0.83784 0.94881 0.6118 0.0
O208 O 0.83265 0.03185 0.58207 0.0
O209 O 0.77339 0.96955 0.60669 0.0
O210 O 0.82019 0.96238 0.56781 0.0
O211 O 0.82035 0.00874 0.63765 0.0
O212 O 0.87371 0.01391 0.59895 0.0
O213 O 0.81865 0.94493 0.61712 0.0
O214 O 0.86194 0.03375 0.61486 0.0
O215 O 0.80296 0.9713 0.63894 0.0
O216 O 0.84949 0.96397 0.60022 0.0
O217 O 0.7912 0.00694 0.60463 0.0
O218 O 0.84489 0.01237 0.56628 0.0
O219 O 0.78924 0.94345 0.58466 0.0
Sc220 Sc 0.97071 0.79931 0.60999 0.0
Sc221 Sc 0.03004 0.83385 0.60968 0.0
Sc222 Sc 0.99658 0.84939 0.58463 0.0
O223 O -0.0009 0.82746 0.60144 0.0
C224 C 0.9589 0.80251 0.5684 0.0
C225 C 0.00399 0.78056 0.6034 0.0
C226 C 0.03916 0.84836 0.56801 0.0
C227 C 0.00117 0.81548 0.646 0.0
C228 C 0.95572 0.83621 0.61202 0.0
C229 C 0.03619 0.88299 0.61056 0.0
O230 O 0.9556 0.79166 0.58321 0.0
O231 O 0.02151 0.79951 0.6059 0.0
O232 O 0.02324 0.85268 0.56726 0.0
O233 O 0.98264 0.80378 0.6377 0.0
O234 O 0.97001 0.84876 0.60023 0.0
O235 O 0.0428 0.86922 0.61438 0.0
O236 O 0.95377 0.81766 0.6172 0.0
O237 O 0.01963 0.82782 0.63778 0.0
O238 O 0.01923 0.87794 0.60061 0.0
O239 O 0.98431 0.77782 0.60377 0.0
O240 O 0.97341 0.82321 0.56691 0.0
O241 O 0.04346 0.84065 0.58228 0.0
Sc242 Sc 0.19236 0.1708 0.60739 0.0
Sc243 Sc 0.16108 0.19888 0.6084 0.0
Sc244 Sc 0.14655 0.15428 0.57814 0.0
O245 O 0.16668 0.17471 0.59803 0.0
C246 C 0.19357 0.16321 0.56438 0.0
C247 C 0.21471 0.22376 0.60481 0.0
C248 C 0.14995 0.20085 0.56678 0.0
C249 C 0.17496 0.18251 0.64401 0.0
C250 C 0.15492 0.1204 0.60246 0.0
C251 C 0.1114 0.15663 0.60477 0.0
O252 O 0.20121 0.16461 0.58044 0.0
O253 O 0.1963 0.22354 0.6074 0.0
O254 O 0.1445 0.18053 0.56409 0.0
O255 O 0.18678 0.17604 0.63545 0.0
O256 O 0.14603 0.12503 0.5892 0.0
O257 O 0.12522 0.17633 0.61041 0.0
O258 O 0.17078 0.13532 0.61201 0.0
O259 O 0.16385 0.19019 0.63602 0.0
O260 O 0.1169 0.14587 0.59376 0.0
O261 O 0.21601 0.20598 0.60359 0.0
O262 O 0.17463 0.16144 0.56112 0.0
O263 O 0.15749 0.21063 0.58197 0.0
Sc264 Sc 0.67573 0.49155 0.41271 0.0
Sc265 Sc 0.70413 0.53756 0.44219 0.0
Sc266 Sc 0.64461 0.50809 0.4402 0.0
O267 O 0.67481 0.51242 0.43173 0.0
C268 C 0.63584 0.49804 0.39758 0.0
C269 C 0.71685 0.53872 0.40022 0.0
C270 C 0.67471 0.56143 0.43736 0.0
C271 C 0.71474 0.49754 0.43984 0.0
C272 C 0.63436 0.45744 0.43745 0.0
C273 C 0.67266 0.52069 0.47737 0.0
O274 O 0.65158 0.49366 0.39552 0.0
O275 O 0.72004 0.54804 0.41577 0.0
O276 O 0.65574 0.54343 0.43712 0.0
O277 O 0.69987 0.48685 0.42778 0.0
O278 O 0.63018 0.47213 0.44399 0.0
O279 O 0.69178 0.53006 0.4697 0.0
O280 O 0.65006 0.46226 0.42608 0.0
O281 O 0.71842 0.51622 0.44632 0.0
O282 O 0.65436 0.51234 0.46849 0.0
O283 O 0.70153 0.51862 0.39728 0.0
O284 O 0.63116 0.5033 0.41292 0.0
O285 O 0.69316 0.56162 0.43933 0.0
Sc286 Sc 0.51172 0.18291 0.41437 0.0
Sc287 Sc 0.46879 0.17182 0.44571 0.0
Sc288 Sc 0.4921 0.13623 0.44336 0.0
O289 O 0.49088 0.16368 0.43451 0.0
C290 C 0.50023 0.13475 0.40048 0.0
C291 C 0.46608 0.18172 0.40378 0.0
C292 C 0.4398 0.11811 0.44161 0.0
C293 C 0.51221 0.22025 0.44058 0.0
C294 C 0.54362 0.17202 0.4389 0.0
C295 C 0.48351 0.15515 0.48049 0.0
O296 O 0.50452 0.15468 0.39755 0.0
O297 O 0.4574 0.17681 0.41961 0.0
O298 O 0.45645 0.11503 0.43979 0.0
O299 O 0.52133 0.21367 0.42888 0.0
O300 O 0.52802 0.15559 0.44758 0.0
O301 O 0.47789 0.16825 0.47302 0.0
O302 O 0.54009 0.1825 0.42623 0.0
O303 O 0.49311 0.20717 0.4476 0.0
O304 O 0.48768 0.14185 0.47156 0.0
O305 O 0.48545 0.18475 0.40017 0.0
O306 O 0.4966 0.12627 0.41639 0.0
O307 O 0.44194 0.1373 0.44481 0.0
Sc308 Sc 0.81453 0.33401 0.41752 0.0
Sc309 Sc 0.83035 0.30259 0.44504 0.0
Sc310 Sc 0.86364 0.362 0.44389 0.0
O311 O 0.83621 0.33288 0.43551 0.0
C312 C 0.86134 0.37194 0.40157 0.0
C313 C 0.81687 0.29118 0.40337 0.0
C314 C 0.88368 0.32946 0.43932 0.0
C315 C 0.78079 0.29535 0.44419 0.0
C316 C 0.82592 0.3759 0.44332 0.0
C317 C 0.84754 0.33295 0.48067 0.0
O318 O 0.84097 0.35669 0.39974 0.0
O319 O 0.82426 0.28776 0.41821 0.0
O320 O 0.88595 0.34897 0.43895 0.0
O321 O 0.78572 0.31163 0.43343 0.0
O322 O 0.84423 0.37827 0.44959 0.0
O323 O 0.83581 0.31414 0.47279 0.0
O324 O 0.81418 0.36112 0.43152 0.0
O325 O 0.79483 0.28949 0.44911 0.0
O326 O 0.8589 0.35127 0.47199 0.0
O327 O 0.8123 0.30683 0.4015 0.0
O328 O 0.87161 0.37625 0.41677 0.0
O329 O 0.86492 0.31176 0.44199 0.0
Sc330 Sc 0.82299 0.34032 0.74026 0.0
Sc331 Sc 0.86989 0.36988 0.71191 0.0
Sc332 Sc 0.84133 0.3103 0.71333 0.0
O333 O 0.84477 0.34016 0.72181 0.0
C334 C 0.82966 0.30077 0.75569 0.0
C335 C 0.86927 0.38197 0.75376 0.0
C336 C 0.89434 0.34106 0.71758 0.0
C337 C 0.82904 0.37941 0.7133 0.0
C338 C 0.79045 0.29902 0.71465 0.0
C339 C 0.85492 0.33903 0.67643 0.0
O340 O 0.82553 0.31667 0.75773 0.0
O341 O 0.87937 0.38536 0.73855 0.0
O342 O 0.87652 0.32194 0.71771 0.0
O343 O 0.818 0.36402 0.72488 0.0
O344 O 0.80567 0.29555 0.70828 0.0
O345 O 0.86334 0.35802 0.68425 0.0
O346 O 0.79443 0.31419 0.72636 0.0
O347 O 0.84822 0.3838 0.70745 0.0
O348 O 0.84694 0.32066 0.68517 0.0
O349 O 0.8491 0.36649 0.75611 0.0
O350 O 0.83496 0.296 0.7404 0.0
O351 O 0.89428 0.35934 0.7152 0.0
Sc352 Sc 0.66353 0.47773 0.73648 0.0
Sc353 Sc 0.63252 0.49353 0.70836 0.0
Sc354 Sc 0.6919 0.52697 0.7102 0.0
O355 O 0.66266 0.49944 0.71832 0.0
C356 C 0.70163 0.5247 0.75245 0.0
C357 C 0.62084 0.4803 0.75024 0.0
C358 C 0.65903 0.54682 0.71437 0.0
C359 C 0.6249 0.44385 0.70953 0.0
C360 C 0.70541 0.48881 0.71089 0.0
C361 C 0.66368 0.51105 0.67307 0.0
O362 O 0.68696 0.50407 0.75395 0.0
O363 O 0.61699 0.48655 0.73499 0.0
O364 O 0.67859 0.54919 0.71432 0.0
O365 O 0.64027 0.44869 0.72123 0.0
O366 O 0.70846 0.50767 0.70531 0.0
O367 O 0.64467 0.49983 0.68076 0.0
O368 O 0.69 0.47651 0.72207 0.0
O369 O 0.62001 0.45821 0.70353 0.0
O370 O 0.68192 0.52189 0.68194 0.0
O371 O 0.63701 0.47661 0.75266 0.0
O372 O 0.70548 0.53536 0.73749 0.0
O373 O 0.64132 0.52795 0.71207 0.0
Sc374 Sc 0.51955 0.17741 0.74092 0.0
Sc375 Sc 0.50566 0.13242 0.71128 0.0
Sc376 Sc 0.47225 0.15827 0.7127 0.0
O377 O 0.49915 0.15602 0.72159 0.0
C378 C 0.47219 0.16787 0.75528 0.0
C379 C 0.51662 0.13135 0.7532 0.0
C380 C 0.45199 0.10571 0.7158 0.0
C381 C 0.55512 0.17488 0.71481 0.0
C382 C 0.50985 0.20952 0.71534 0.0
C383 C 0.48983 0.14709 0.67598 0.0
O384 O 0.49188 0.17142 0.75813 0.0
O385 O 0.50989 0.12149 0.7379 0.0
O386 O 0.44987 0.12298 0.71729 0.0
O387 O 0.54939 0.18536 0.72584 0.0
O388 O 0.49255 0.19391 0.70751 0.0
O389 O 0.50243 0.141 0.6837 0.0
O390 O 0.52016 0.20582 0.72807 0.0
O391 O 0.54139 0.15532 0.7089 0.0
O392 O 0.4771 0.15229 0.68467 0.0
O393 O 0.52129 0.15148 0.7558 0.0
O394 O 0.46349 0.16455 0.73949 0.0
O395 O 0.47071 0.10682 0.71256 0.0
Sc396 Sc 0.68642 0.16308 0.21475 0.0
Sc397 Sc 0.62699 0.13561 0.21297 0.0
Sc398 Sc 0.65691 0.18215 0.24163 0.0
O399 O 0.65679 0.16027 0.22309 0.0
C400 C 0.69601 0.1746 0.2571 0.0
C401 C 0.65478 0.11012 0.2186 0.0
C402 C 0.61493 0.13604 0.25495 0.0
C403 C 0.65815 0.15033 0.17766 0.0
C404 C 0.69852 0.21433 0.21622 0.0
C405 C 0.61807 0.17679 0.21462 0.0
O406 O 0.70017 0.16845 0.24195 0.0
O407 O 0.63676 0.1107 0.21638 0.0
O408 O 0.63072 0.15602 0.2576 0.0
O409 O 0.67643 0.15816 0.1865 0.0
O410 O 0.68307 0.21054 0.22759 0.0
O411 O 0.61374 0.1578 0.20839 0.0
O412 O 0.70193 0.19894 0.21015 0.0
O413 O 0.63911 0.14201 0.18537 0.0
O414 O 0.63318 0.18739 0.2265 0.0
O415 O 0.6741 0.12765 0.21864 0.0
O416 O 0.68074 0.17969 0.25894 0.0
O417 O 0.61138 0.12631 0.23954 0.0
Sc418 Sc 0.8377 0.53196 0.21232 0.0
Sc419 Sc 0.86404 0.4989 0.21162 0.0
Sc420 Sc 0.81777 0.48413 0.24021 0.0
O421 O 0.83987 0.50503 0.22137 0.0
C422 C 0.82667 0.53163 0.25467 0.0
C423 C 0.89045 0.55246 0.21601 0.0
C424 C 0.86351 0.48757 0.25385 0.0
C425 C 0.84962 0.51466 0.17578 0.0
C426 C 0.78626 0.49372 0.21411 0.0
C427 C 0.82205 0.44922 0.21419 0.0
O428 O 0.83257 0.54132 0.23925 0.0
O429 O 0.88956 0.53366 0.21407 0.0
O430 O 0.84359 0.48364 0.2563 0.0
O431 O 0.8426 0.52605 0.1843 0.0
O432 O 0.78966 0.48232 0.22602 0.0
O433 O 0.84131 0.46334 0.20802 0.0
O434 O 0.80192 0.51207 0.20763 0.0
O435 O 0.85731 0.50355 0.18381 0.0
O436 O 0.81158 0.4545 0.22562 0.0
O437 O 0.8731 0.55453 0.21613 0.0
O438 O 0.82128 0.51125 0.25701 0.0
O439 O 0.87338 0.49342 0.23847 0.0
Sc440 Sc 0.47047 0.31363 0.21156 0.0
Sc441 Sc 0.50341 0.37286 0.20898 0.0
Sc442 Sc 0.51986 0.34275 0.23735 0.0
O443 O 0.49789 0.34308 0.21928 0.0
C444 C 0.47385 0.30479 0.25392 0.0
C445 C 0.45021 0.34567 0.21578 0.0
C446 C 0.51697 0.38568 0.25041 0.0
C447 C 0.48563 0.34156 0.1743 0.0
C448 C 0.50855 0.3005 0.21182 0.0
C449 C 0.55323 0.38067 0.21005 0.0
O450 O 0.46377 0.29938 0.23865 0.0
O451 O 0.46852 0.36321 0.21154 0.0
O452 O 0.52215 0.37049 0.25253 0.0
O453 O 0.47332 0.32382 0.18337 0.0
O454 O 0.51994 0.31504 0.22392 0.0
O455 O 0.53899 0.38625 0.20508 0.0
O456 O 0.49042 0.29821 0.20518 0.0
O457 O 0.49869 0.3604 0.18161 0.0
O458 O 0.54842 0.3646 0.22101 0.0
O459 O 0.44836 0.32644 0.21759 0.0
O460 O 0.49379 0.32093 0.25574 0.0
O461 O 0.50906 0.38839 0.23555 0.0
Sc462 Sc 0.49204 0.35652 0.94108 0.0
Sc463 Sc 0.46654 0.29737 0.94472 0.0
Sc464 Sc 0.51235 0.32719 0.91546 0.0
O465 O 0.49029 0.32703 0.93375 0.0
C466 C 0.50421 0.36524 0.89873 0.0
C467 C 0.43964 0.32367 0.93772 0.0
C468 C 0.46644 0.28415 0.90312 0.0
C469 C 0.48041 0.3297 0.97886 0.0
C470 C 0.54346 0.36949 0.94073 0.0
C471 C 0.50834 0.28944 0.94303 0.0
O472 O 0.49837 0.37002 0.91375 0.0
O473 O 0.44089 0.30635 0.94181 0.0
O474 O 0.48634 0.29999 0.90019 0.0
O475 O 0.48585 0.34724 0.9695 0.0
O476 O 0.54021 0.35431 0.92922 0.0
O477 O 0.48914 0.28461 0.94906 0.0
O478 O 0.52774 0.37248 0.9467 0.0
O479 O 0.47431 0.31064 0.97185 0.0
O480 O 0.51878 0.30466 0.9312 0.0
O481 O 0.45676 0.34309 0.93586 0.0
O482 O 0.50901 0.34975 0.89731 0.0
O483 O 0.45672 0.2809 0.91851 0.0
Sc484 Sc 0.63913 0.13454 0.94485 0.0
Sc485 Sc 0.69866 0.16667 0.94671 0.0
Sc486 Sc 0.66865 0.18221 0.91713 0.0
O487 O 0.66881 0.16111 0.93627 0.0
C488 C 0.6293 0.13512 0.90245 0.0
C489 C 0.67097 0.11328 0.94174 0.0
C490 C 0.71039 0.1776 0.9045 0.0
C491 C 0.66723 0.15094 0.98195 0.0
C492 C 0.62747 0.17401 0.94243 0.0
C493 C 0.70767 0.2166 0.94381 0.0
O494 O 0.62543 0.12504 0.91768 0.0
O495 O 0.68907 0.13195 0.94352 0.0
O496 O 0.69403 0.18073 0.90127 0.0
O497 O 0.64895 0.14059 0.97309 0.0
O498 O 0.64314 0.18549 0.93118 0.0
O499 O 0.71153 0.20206 0.95102 0.0
O500 O 0.62362 0.15507 0.94855 0.0
O501 O 0.68632 0.1611 0.97425 0.0
O502 O 0.69303 0.21173 0.93142 0.0
O503 O 0.65164 0.11148 0.94185 0.0
O504 O 0.64427 0.15555 0.90045 0.0
O505 O 0.71479 0.17318 0.9203 0.0
Sc506 Sc 0.85948 0.50251 0.94335 0.0
Sc507 Sc 0.82717 0.52964 0.94484 0.0
Sc508 Sc 0.81095 0.48297 0.91639 0.0
O509 O 0.83256 0.50506 0.93488 0.0
C510 C 0.85782 0.49091 0.90105 0.0
C511 C 0.88055 0.55539 0.93962 0.0
C512 C 0.81504 0.529 0.90278 0.0
C513 C 0.84335 0.51494 0.98029 0.0
C514 C 0.82056 0.45113 0.94203 0.0
C515 C 0.7771 0.48838 0.94288 0.0
O516 O 0.86803 0.49714 0.91623 0.0
O517 O 0.86192 0.55472 0.94195 0.0
O518 O 0.81074 0.50894 0.90038 0.0
O519 O 0.85432 0.50763 0.9715 0.0
O520 O 0.80891 0.45478 0.93055 0.0
O521 O 0.79167 0.50751 0.94893 0.0
O522 O 0.83929 0.46663 0.94813 0.0
O523 O 0.83229 0.52287 0.97253 0.0
O524 O 0.78179 0.47754 0.93136 0.0
O525 O 0.88241 0.53791 0.9393 0.0
O526 O 0.8374 0.48559 0.89914 0.0
O527 O 0.82133 0.53902 0.91807 0.0
Sc528 Sc 0.33884 0.81697 0.74858 0.0
Sc529 Sc 0.36909 0.86217 0.77842 0.0
Sc530 Sc 0.30964 0.83544 0.77637 0.0
O531 O 0.33918 0.83822 0.76783 0.0
C532 C 0.29975 0.82513 0.73395 0.0
C533 C 0.38082 0.86332 0.73618 0.0
C534 C 0.34196 0.88845 0.77355 0.0
C535 C 0.37768 0.821 0.77513 0.0
C536 C 0.29763 0.7842 0.77395 0.0
C537 C 0.33757 0.84661 0.81354 0.0
O538 O 0.31463 0.81956 0.73191 0.0
O539 O 0.38515 0.87203 0.75202 0.0
O540 O 0.3225 0.87109 0.77331 0.0
O541 O 0.36301 0.81143 0.76273 0.0
O542 O 0.29392 0.79938 0.7801 0.0
O543 O 0.35668 0.85513 0.80592 0.0
O544 O 0.31318 0.78826 0.7626 0.0
O545 O 0.38169 0.83937 0.78247 0.0
O546 O 0.31939 0.83917 0.80462 0.0
O547 O 0.36445 0.84385 0.73287 0.0
O548 O 0.29595 0.83133 0.74922 0.0
O549 O 0.35986 0.88757 0.77557 0.0
Sc550 Sc 0.18265 0.51412 0.75257 0.0
Sc551 Sc 0.1365 0.49972 0.78118 0.0
Sc552 Sc 0.1624 0.46619 0.78036 0.0
O553 O 0.16048 0.49331 0.7714 0.0
C554 C 0.17364 0.46647 0.73816 0.0
C555 C 0.13745 0.51143 0.73888 0.0
C556 C 0.10959 0.44632 0.77632 0.0
C557 C 0.17845 0.54917 0.77869 0.0
C558 C 0.21401 0.50448 0.7787 0.0
C559 C 0.15046 0.48326 0.81699 0.0
O560 O 0.17969 0.48704 0.73603 0.0
O561 O 0.12799 0.50666 0.75445 0.0
O562 O 0.12675 0.44391 0.77681 0.0
O563 O 0.1884 0.54393 0.76672 0.0
O564 O 0.19838 0.48575 0.78468 0.0
O565 O 0.14226 0.4939 0.80897 0.0
O566 O 0.21062 0.5163 0.76721 0.0
O567 O 0.15965 0.53497 0.78554 0.0
O568 O 0.15813 0.47246 0.80844 0.0
O569 O 0.15685 0.51405 0.73614 0.0
O570 O 0.16699 0.45649 0.7534 0.0
O571 O 0.11073 0.46528 0.77787 0.0
Sc572 Sc 0.48029 0.65617 0.75011 0.0
Sc573 Sc 0.49784 0.62709 0.77877 0.0
Sc574 Sc 0.52901 0.68659 0.77662 0.0
O575 O 0.50241 0.65663 0.76853 0.0
C576 C 0.52623 0.69573 0.73422 0.0
C577 C 0.48507 0.61451 0.73696 0.0
C578 C 0.55106 0.65567 0.77252 0.0
C579 C 0.44742 0.61733 0.77737 0.0
C580 C 0.48925 0.69769 0.77556 0.0
C581 C 0.51439 0.65844 0.81389 0.0
O582 O 0.50619 0.67975 0.73241 0.0
O583 O 0.49169 0.6113 0.75228 0.0
O584 O 0.5525 0.67484 0.77207 0.0
O585 O 0.45166 0.63249 0.76559 0.0
O586 O 0.50806 0.70128 0.78177 0.0
O587 O 0.50343 0.63936 0.8063 0.0
O588 O 0.47792 0.68237 0.76398 0.0
O589 O 0.46229 0.61318 0.78339 0.0
O590 O 0.52484 0.67665 0.80492 0.0
O591 O 0.48034 0.62993 0.73436 0.0
O592 O 0.53654 0.70063 0.74941 0.0
O593 O 0.53269 0.63755 0.7753 0.0
Sc594 Sc 0.48394 0.67084 0.07283 0.0
Sc595 Sc 0.53112 0.6999 0.04474 0.0
Sc596 Sc 0.50291 0.64038 0.04714 0.0
O597 O 0.50601 0.67035 0.05487 0.0
C598 C 0.49068 0.63187 0.08952 0.0
C599 C 0.52995 0.713 0.08621 0.0
C600 C 0.55584 0.67152 0.05171 0.0
C601 C 0.4901 0.70921 0.04504 0.0
C602 C 0.45191 0.62876 0.04769 0.0
C603 C 0.51684 0.66825 0.00975 0.0
O604 O 0.48649 0.6478 0.09101 0.0
O605 O 0.54027 0.71593 0.07117 0.0
O606 O 0.53813 0.65232 0.05198 0.0
O607 O 0.47889 0.69396 0.05667 0.0
O608 O 0.46728 0.62529 0.0417 0.0
O609 O 0.52491 0.68739 0.01727 0.0
O610 O 0.45567 0.64419 0.05906 0.0
O611 O 0.50943 0.71365 0.03956 0.0
O612 O 0.50893 0.65009 0.0188 0.0
O613 O 0.50973 0.6976 0.08852 0.0
O614 O 0.49618 0.62672 0.07448 0.0
O615 O 0.55557 0.68961 0.04881 0.0
Sc616 Sc 0.32981 0.81337 0.07354 0.0
Sc617 Sc 0.29842 0.82796 0.04469 0.0
Sc618 Sc 0.35774 0.86157 0.04604 0.0
O619 O 0.32867 0.83433 0.05473 0.0
C620 C 0.36779 0.86098 0.08846 0.0
C621 C 0.287 0.81608 0.08678 0.0
C622 C 0.3248 0.88139 0.04947 0.0
C623 C 0.29118 0.77848 0.04709 0.0
C624 C 0.37152 0.82368 0.04794 0.0
C625 C 0.32918 0.84435 0.00918 0.0
O626 O 0.35305 0.84046 0.09058 0.0
O627 O 0.28311 0.82195 0.07137 0.0
O628 O 0.3444 0.88385 0.04965 0.0
O629 O 0.30671 0.78374 0.05873 0.0
O630 O 0.37422 0.8421 0.0416 0.0
O631 O 0.31025 0.83321 0.01701 0.0
O632 O 0.35645 0.81198 0.05957 0.0
O633 O 0.28608 0.79257 0.04082 0.0
O634 O 0.34745 0.85562 0.0179 0.0
O635 O 0.30315 0.81243 0.0894 0.0
O636 O 0.37164 0.87086 0.07313 0.0
O637 O 0.30714 0.86243 0.04742 0.0
Sc638 Sc 0.18312 0.51092 0.07765 0.0
Sc639 Sc 0.16716 0.46474 0.04867 0.0
Sc640 Sc 0.1356 0.49268 0.04964 0.0
O641 O 0.16192 0.48941 0.05864 0.0
C642 C 0.13616 0.50369 0.09203 0.0
C643 C 0.17792 0.46436 0.09096 0.0
C644 C 0.11366 0.4396 0.0529 0.0
C645 C 0.21739 0.50558 0.05155 0.0
C646 C 0.1751 0.54369 0.05182 0.0
C647 C 0.15227 0.48027 0.01294 0.0
O648 O 0.15636 0.50848 0.09434 0.0
O649 O 0.17226 0.45484 0.07544 0.0
O650 O 0.11211 0.45727 0.05309 0.0
O651 O 0.21254 0.51612 0.06325 0.0
O652 O 0.15645 0.52852 0.04534 0.0
O653 O 0.16268 0.47178 0.02092 0.0
O654 O 0.18618 0.53962 0.06357 0.0
O655 O 0.20284 0.48672 0.04503 0.0
O656 O 0.14152 0.48798 0.02153 0.0
O657 O 0.18225 0.48438 0.09364 0.0
O658 O 0.12639 0.49789 0.07663 0.0
O659 O 0.13223 0.43998 0.05107 0.0
Sc660 Sc 0.35523 0.49298 0.55028 0.0
Sc661 Sc 0.29583 0.46546 0.54945 0.0
Sc662 Sc 0.32623 0.5106 0.57925 0.0
O663 O 0.32577 0.48965 0.55965 0.0
C664 C 0.36578 0.50284 0.59281 0.0
C665 C 0.32418 0.4401 0.5528 0.0
C666 C 0.28465 0.46362 0.59179 0.0
C667 C 0.326 0.48163 0.51383 0.0
C668 C 0.36686 0.54386 0.55336 0.0
C669 C 0.28679 0.5064 0.55368 0.0
O670 O 0.37007 0.49822 0.57706 0.0
O671 O 0.3061 0.44061 0.55054 0.0
O672 O 0.30009 0.48371 0.59469 0.0
O673 O 0.34434 0.48792 0.52224 0.0
O674 O 0.35229 0.53959 0.56571 0.0
O675 O 0.28205 0.48746 0.54708 0.0
O676 O 0.36987 0.52877 0.54603 0.0
O677 O 0.30722 0.47413 0.52182 0.0
O678 O 0.30251 0.51681 0.56513 0.0
O679 O 0.34337 0.45771 0.55377 0.0
O680 O 0.35003 0.507 0.59569 0.0
O681 O 0.28107 0.45438 0.57617 0.0
Sc682 Sc 0.50539 0.86302 0.54309 0.0
Sc683 Sc 0.53045 0.82872 0.54187 0.0
Sc684 Sc 0.48693 0.81687 0.57264 0.0
O685 O 0.50761 0.83621 0.55249 0.0
C686 C 0.49746 0.86518 0.5857 0.0
C687 C 0.55803 0.88253 0.54513 0.0
C688 C 0.53294 0.8196 0.58416 0.0
C689 C 0.5148 0.84381 0.5065 0.0
C690 C 0.45406 0.82562 0.54728 0.0
C691 C 0.48803 0.77981 0.54708 0.0
O692 O 0.50105 0.87359 0.56979 0.0
O693 O 0.55654 0.86346 0.54292 0.0
O694 O 0.51355 0.8166 0.58757 0.0
O695 O 0.50943 0.85648 0.51505 0.0
O696 O 0.45811 0.81525 0.55975 0.0
O697 O 0.50683 0.79324 0.5398 0.0
O698 O 0.46943 0.84303 0.53937 0.0
O699 O 0.52169 0.83193 0.51433 0.0
O700 O 0.47875 0.78609 0.55887 0.0
O701 O 0.541 0.88511 0.54611 0.0
O702 O 0.49299 0.84525 0.58883 0.0
O703 O 0.54159 0.82402 0.56829 0.0
Sc704 Sc 0.13787 0.64303 0.54689 0.0
Sc705 Sc 0.16958 0.70256 0.54481 0.0
Sc706 Sc 0.18613 0.67304 0.57391 0.0
O707 O 0.16449 0.67286 0.55517 0.0
C708 C 0.13966 0.63433 0.5895 0.0
C709 C 0.11621 0.67433 0.55034 0.0
C710 C 0.18226 0.71544 0.58654 0.0
C711 C 0.15335 0.67117 0.50967 0.0
C712 C 0.17684 0.63105 0.54891 0.0
C713 C 0.21969 0.71128 0.54664 0.0
O714 O 0.12983 0.62902 0.5741 0.0
O715 O 0.1347 0.6924 0.54776 0.0
O716 O 0.18689 0.69997 0.58915 0.0
O717 O 0.14258 0.65299 0.51861 0.0
O718 O 0.18791 0.64615 0.5607 0.0
O719 O 0.20518 0.71602 0.54069 0.0
O720 O 0.15848 0.62795 0.54212 0.0
O721 O 0.16437 0.69025 0.51729 0.0
O722 O 0.21503 0.69589 0.5583 0.0
O723 O 0.11462 0.6551 0.55094 0.0
O724 O 0.15962 0.65035 0.59159 0.0
O725 O 0.17544 0.71849 0.57126 0.0
Sc726 Sc 0.15835 0.6912 0.27674 0.0
Sc727 Sc 0.12948 0.63165 0.27855 0.0
Sc728 Sc 0.17661 0.6607 0.25031 0.0
O729 O 0.15478 0.66119 0.26855 0.0
C730 C 0.17031 0.70044 0.23444 0.0
C731 C 0.10529 0.66062 0.27268 0.0
C732 C 0.13025 0.61937 0.23666 0.0
C733 C 0.14471 0.66294 0.31386 0.0
C734 C 0.2092 0.70202 0.27572 0.0
C735 C 0.1698 0.62145 0.27748 0.0
O736 O 0.16407 0.70482 0.24946 0.0
O737 O 0.10523 0.64225 0.27485 0.0
O738 O 0.15037 0.63493 0.23419 0.0
O739 O 0.15316 0.68127 0.305 0.0
O740 O 0.20514 0.68632 0.26455 0.0
O741 O 0.15089 0.61761 0.28351 0.0
O742 O 0.19411 0.70606 0.28146 0.0
O743 O 0.13582 0.64385 0.30615 0.0
O744 O 0.18083 0.63646 0.26563 0.0
O745 O 0.12314 0.67968 0.27272 0.0
O746 O 0.17511 0.68494 0.23285 0.0
O747 O 0.12027 0.61594 0.25194 0.0
Sc748 Sc 0.30144 0.46886 0.28104 0.0
Sc749 Sc 0.36061 0.50311 0.28304 0.0
Sc750 Sc 0.32936 0.51646 0.25297 0.0
O751 O 0.33047 0.49613 0.27235 0.0
C752 C 0.2909 0.46889 0.23866 0.0
C753 C 0.33438 0.44948 0.27899 0.0
C754 C 0.37182 0.51257 0.2407 0.0
C755 C 0.32965 0.48704 0.31804 0.0
C756 C 0.28813 0.507 0.27894 0.0
C757 C 0.36835 0.55254 0.2785 0.0
O758 O 0.28686 0.45942 0.25417 0.0
O759 O 0.35176 0.46834 0.28221 0.0
O760 O 0.35575 0.5162 0.23755 0.0
O761 O 0.31187 0.47411 0.30924 0.0
O762 O 0.30284 0.51825 0.26689 0.0
O763 O 0.37332 0.53867 0.28541 0.0
O764 O 0.2855 0.48875 0.28568 0.0
O765 O 0.3484 0.49975 0.31045 0.0
O766 O 0.35267 0.54677 0.26694 0.0
O767 O 0.3149 0.44691 0.2769 0.0
O768 O 0.30606 0.48914 0.23626 0.0
O769 O 0.37602 0.50771 0.25644 0.0
Sc770 Sc 0.52644 0.83898 0.27411 0.0
Sc771 Sc 0.49392 0.8658 0.27641 0.0
Sc772 Sc 0.47878 0.82093 0.24626 0.0
O773 O 0.49976 0.84194 0.26559 0.0
C774 C 0.52577 0.82883 0.23153 0.0
C775 C 0.54757 0.89182 0.27195 0.0
C776 C 0.48367 0.86784 0.23429 0.0
C777 C 0.50914 0.84951 0.31127 0.0
C778 C 0.48718 0.78794 0.27155 0.0
C779 C 0.44393 0.82481 0.27262 0.0
O780 O 0.53539 0.83395 0.24699 0.0
O781 O 0.52889 0.89092 0.27481 0.0
O782 O 0.47926 0.84787 0.23114 0.0
O783 O 0.52126 0.84369 0.30238 0.0
O784 O 0.47627 0.7921 0.25969 0.0
O785 O 0.45824 0.84363 0.27934 0.0
O786 O 0.50566 0.80308 0.27835 0.0
O787 O 0.49743 0.85684 0.30379 0.0
O788 O 0.44909 0.81463 0.26083 0.0
O789 O 0.54946 0.87441 0.27057 0.0
O790 O 0.50566 0.82433 0.22925 0.0
O791 O 0.48939 0.87693 0.24998 0.0
H792 H 0.03764 0.17539 0.03499 0.0
H793 H 0.06461 0.19012 0.01024 0.0
H794 H 0.10564 0.25051 0.04107 0.0
H795 H 0.07877 0.23553 0.06642 0.0
H796 H 0.08182 0.22824 0.98904 0.0
H797 H 0.14849 0.22686 0.03134 0.0
H798 H 0.11979 0.21381 0.03903 0.0
H799 H 0.13696 0.24383 0.03899 0.0
C800 C 0.05228 0.19189 0.03658 0.0
C801 C 0.05618 0.2041 0.05287 0.0
C802 C 0.06766 0.20036 0.02232 0.0
C803 C 0.08729 0.22127 0.0239 0.0
C804 C 0.09078 0.23415 0.03971 0.0
H805 H 0.15988 0.23282 0.92143 0.0
H806 H 0.14961 0.24894 0.94696 0.0
C807 C 0.07535 0.2256 0.05413 0.0
C808 C 0.1044 0.22821 0.0093 0.0
H809 H 0.15329 0.22897 -0.00023 0.0
C810 C 0.09778 0.22905 0.99134 0.0
C811 C 0.12522 0.22935 0.01244 0.0
C812 C 0.13314 0.22833 0.03145 0.0
C813 C 0.11021 0.22856 0.97635 0.0
C814 C 0.13015 0.22785 0.9795 0.0
C815 C 0.13797 0.22944 -0.00256 0.0
C816 C 0.14027 0.22071 0.965 0.0
C817 C 0.10075 0.22661 0.95741 0.0
C818 C 0.13964 0.20014 0.96704 0.0
C819 C 0.14572 0.19105 0.95266 0.0
C820 C 0.15247 0.20226 0.93581 0.0
C821 C 0.15449 0.22359 0.93414 0.0
C822 C 0.14852 0.2328 0.94868 0.0
H823 H 0.08366 0.2245 0.95763 0.0
H824 H 0.11184 0.24202 0.94954 0.0
H825 H 0.09993 0.21209 0.95008 0.0
H826 H 0.13339 0.19052 0.97952 0.0
H827 H 0.14418 0.17473 0.95457 0.0
H828 H 0.7908 0.83356 0.03185 0.0
H829 H 0.77814 0.84954 0.00808 0.0
H830 H 0.75023 0.87351 0.04902 0.0
H831 H 0.76256 0.85723 0.07298 0.0
H832 H 0.72854 0.85755 0.00639 0.0
H833 H 0.81749 0.92363 0.01815 0.0
H834 H 0.81156 0.89505 0.01688 0.0
H835 H 0.80081 0.90369 0.03558 0.0
C836 C 0.7812 0.84146 0.03576 0.0
C837 C 0.77803 0.84455 0.05425 0.0
C838 C 0.77383 0.85042 0.02217 0.0
C839 C 0.76342 0.86275 0.02689 0.0
C840 C 0.75809 0.86384 0.04519 0.0
H841 H 0.79771 0.97583 0.95659 0.0
H842 H 0.78292 0.9521 0.98364 0.0
C843 C 0.76523 0.85461 0.05884 0.0
C844 C 0.76332 0.87863 0.01346 0.0
H845 H 0.79957 0.92759 0.99237 0.0
C846 C 0.74389 0.87307 0.00342 0.0
C847 C 0.78333 0.89894 0.00993 0.0
C848 C 0.80451 0.90588 0.02073 0.0
C849 C 0.74428 0.8871 0.98928 0.0
C850 C 0.76475 0.90678 0.98498 0.0
C851 C 0.78383 0.91261 -0.00435 0.0
C852 C 0.76778 0.92077 0.96865 0.0
C853 C 0.72287 0.88066 0.97909 0.0
C854 C 0.76328 0.91111 0.95115 0.0
C855 C 0.77131 0.92471 0.93565 0.0
C856 C 0.78449 0.9481 0.93749 0.0
C857 C 0.78776 0.9578 0.95487 0.0
C858 C 0.77925 0.94426 0.9703 0.0
H859 H 0.70799 0.87098 0.98799 0.0
H860 H 0.7226 0.89564 0.97381 0.0
H861 H 0.72137 0.86976 0.96739 0.0
H862 H 0.75503 0.89309 0.94948 0.0
H863 H 0.7687 0.91686 0.92237 0.0
H864 H 0.1491 0.91506 0.0656 0.0
H865 H 0.13625 0.88629 0.04172 0.0
H866 H 0.12853 0.93074 0.00473 0.0
H867 H 0.14167 0.95948 0.02812 0.0
H868 H 0.0954 0.86633 0.02722 0.0
H869 H 0.15553 0.90493 0.97105 0.0
H870 H 0.16207 0.91572 -0.00592 0.0
H871 H 0.14745 0.92457 0.97874 0.0
C872 C 0.1452 0.91888 0.05222 0.0
C873 C 0.14626 0.93953 0.04882 0.0
C874 C 0.13787 0.90242 0.0386 0.0
C875 C 0.13177 0.90647 0.02133 0.0
C876 C 0.13373 0.92741 0.01775 0.0
H877 H 0.02426 0.84851 0.95581 0.0
H878 H 0.0506 0.85854 0.98084 0.0
C879 C 0.141 0.94378 0.03127 0.0
C880 C 0.12035 0.8882 0.00779 0.0
H881 H 0.1159 0.88057 0.96173 0.0
C882 C 0.10024 0.86904 0.01295 0.0
C883 C 0.12689 0.89123 0.98924 0.0
C884 C 0.14933 0.91013 0.98304 0.0
C885 C 0.08527 0.85441 -0.0002 0.0
C886 C 0.09035 0.85945 0.98108 0.0
C887 C 0.11167 0.87696 0.97606 0.0
C888 C 0.07276 0.84963 0.96681 0.0
C889 C 0.06368 0.83437 0.0061 0.0
C890 C 0.07642 0.84138 0.95042 0.0
C891 C 0.06145 0.83592 0.93582 0.0
C892 C 0.04265 0.83881 0.93735 0.0
C893 C 0.03854 0.84608 0.95409 0.0
C894 C 0.0535 0.85158 0.96857 0.0
H895 H 0.06635 0.82746 0.01895 0.0
H896 H 0.05118 0.83967 0.00901 0.0
H897 H 0.05667 0.82089 -0.00436 0.0
H898 H 0.09128 0.83993 0.94869 0.0
H899 H 0.06511 0.8303 0.92315 0.0
H900 H 0.17589 0.03678 0.44783 0.0
H901 H 0.18709 0.06412 0.47249 0.0
H902 H 0.23764 0.1149 0.43789 0.0
H903 H 0.22668 0.08748 0.413 0.0
H904 H 0.24908 0.11495 0.47833 0.0
H905 H 0.16976 0.11443 0.46354 0.0
H906 H 0.16634 0.08699 0.46666 0.0
H907 H 0.18236 0.10392 0.44763 0.0
C908 C 0.18966 0.05365 0.44552 0.0
C909 C 0.20015 0.06008 0.42837 0.0
C910 C 0.19608 0.0692 0.45965 0.0
C911 C 0.21295 0.09151 0.45686 0.0
C912 C 0.22457 0.09771 0.44023 0.0
H913 H 0.19838 0.18127 0.5306 0.0
H914 H 0.21063 0.17047 0.50301 0.0
C915 C 0.21826 0.08204 0.42605 0.0
C916 C 0.21623 0.10858 0.47059 0.0
H917 H 0.1874 0.1303 0.49184 0.0
C918 C 0.23583 0.11869 0.48118 0.0
C919 C 0.19914 0.11378 0.47391 0.0
C920 C 0.17829 0.1044 0.46223 0.0
C921 C 0.23815 0.13294 0.49582 0.0
C922 C 0.2202 0.13667 0.50006 0.0
C923 C 0.2012 0.12749 0.48871 0.0
C924 C 0.21938 0.14814 0.51697 0.0
C925 C 0.25967 0.14362 0.50662 0.0
C926 C 0.22137 0.14017 0.53413 0.0
C927 C 0.21492 0.14682 0.54997 0.0
C928 C 0.20579 0.16101 0.54877 0.0
C929 C 0.20528 0.17021 0.53181 0.0
C930 C 0.21228 0.16404 0.51607 0.0
H931 H 0.2741 0.14655 0.4979 0.0
H932 H 0.2632 0.15984 0.51271 0.0
H933 H 0.25834 0.13211 0.51778 0.0
H934 H 0.2262 0.12747 0.53522 0.0
H935 H 0.21523 0.13932 0.56289 0.0
H936 H 0.85762 0.02599 0.53462 0.0
H937 H 0.86755 0.0519 0.50919 0.0
H938 H 0.83925 0.0871 0.53725 0.0
H939 H 0.82967 0.06144 0.56321 0.0
H940 H 0.8438 0.0641 0.48622 0.0
H941 H 0.90392 0.13627 0.52911 0.0
H942 H 0.89115 0.10773 0.53716 0.0
H943 H 0.87496 0.12159 0.53593 0.0
C944 C 0.85328 0.03909 0.53542 0.0
C945 C 0.84317 0.04182 0.55113 0.0
C946 C 0.8589 0.05385 0.52079 0.0
C947 C 0.85446 0.07163 0.52144 0.0
C948 C 0.84323 0.07375 0.53663 0.0
H949 H 0.91226 0.1483 0.41965 0.0
H950 H 0.88445 0.13407 0.44437 0.0
C951 C 0.83771 0.05901 0.55142 0.0
C952 C 0.86333 0.08858 0.50667 0.0
H953 H 0.90687 0.14104 0.49755 0.0
C954 C 0.85721 0.08115 0.48863 0.0
C955 C 0.88074 0.11083 0.50995 0.0
C956 C 0.88826 0.11968 0.52904 0.0
C957 C 0.86947 0.09457 0.47379 0.0
C958 C 0.888 0.11619 0.47714 0.0
C959 C 0.89266 0.12444 0.49508 0.0
C960 C 0.90537 0.12823 0.46304 0.0
C961 C 0.8638 0.08471 0.45482 0.0
C962 C 0.92665 0.13068 0.46571 0.0
C963 C 0.94253 0.13891 0.45179 0.0
C964 C 0.93748 0.14484 0.43482 0.0
C965 C 0.91661 0.14369 0.43251 0.0
C966 C 0.90066 0.13546 0.44657 0.0
H967 H 0.85044 0.06677 0.45488 0.0
H968 H 0.85788 0.09416 0.44645 0.0
H969 H 0.87892 0.0861 0.44811 0.0
H970 H 0.93068 0.12525 0.47833 0.0
H971 H 0.9585 0.13984 0.45418 0.0
H972 H 0.96138 0.82023 0.53464 0.0
H973 H 0.93582 0.80324 0.5092 0.0
H974 H 0.89871 0.74169 0.53961 0.0
H975 H 0.92412 0.75886 0.56563 0.0
H976 H 0.92318 0.76524 0.48812 0.0
H977 H 0.85109 0.75876 0.52799 0.0
H978 H 0.87945 0.7745 0.53643 0.0
H979 H 0.8651 0.74439 0.53632 0.0
C980 C 0.94792 0.80302 0.536 0.0
C981 C 0.94463 0.79106 0.55234 0.0
C982 C 0.93336 0.79327 0.52134 0.0
C983 C 0.91521 0.7713 0.52259 0.0
C984 C 0.91242 0.7588 0.53849 0.0
H985 H 0.84581 0.75788 0.41809 0.0
H986 H 0.85587 0.74137 0.44352 0.0
C987 C 0.927 0.76863 0.5533 0.0
C988 C 0.89863 0.76279 0.50754 0.0
H989 H 0.8482 0.75766 0.49628 0.0
C990 C 0.90647 0.76285 0.48985 0.0
C991 C 0.8768 0.75951 0.50995 0.0
C992 C 0.8675 0.75933 0.52865 0.0
C993 C 0.89419 0.76243 0.47443 0.0
C994 C 0.87328 0.76137 0.47688 0.0
C995 C 0.86429 0.75857 0.49451 0.0
C996 C 0.86344 0.76858 0.46224 0.0
C997 C 0.90474 0.76551 0.45581 0.0
C998 C 0.86332 0.78874 0.46464 0.0
C999 C 0.85748 0.79807 0.45032 0.0
C1000 C 0.85166 0.7875 0.43318 0.0
C1001 C 0.85044 0.76657 0.43107 0.0
C1002 C 0.85626 0.75715 0.44554 0.0
H1003 H 0.92201 0.7681 0.45653 0.0
H1004 H 0.89438 0.7504 0.44736 0.0
H1005 H 0.90549 0.78016 0.44878 0.0
H1006 H 0.86879 0.79786 0.47741 0.0
H1007 H 0.85832 0.81403 0.45257 0.0
H1008 H 0.82561 0.75791 0.06257 0.0
H1009 H 0.83455 0.74041 0.03725 0.0
H1010 H 0.85464 0.79955 0.00447 0.0
H1011 H 0.84511 0.8167 0.02917 0.0
H1012 H 0.83328 0.76148 0.9842 0.0
H1013 H 0.89963 0.76052 0.02732 0.0
H1014 H 0.87102 0.74434 0.03483 0.0
H1015 H 0.88475 0.77444 0.03474 0.0
C1016 C 0.83158 0.76701 0.04985 0.0
C1017 C 0.83504 0.7889 0.04805 0.0
C1018 C 0.83677 0.75701 0.03543 0.0
C1019 C 0.84573 0.76887 0.01912 0.0
C1020 C 0.8478 0.79007 0.01694 0.0
H1021 H 0.94978 0.81381 0.95276 0.0
H1022 H 0.92173 0.79762 0.97661 0.0
C1023 C 0.84244 0.79994 0.03118 0.0
C1024 C 0.85523 0.76083 0.00478 0.0
H1025 H 0.90252 0.75821 -0.00412 0.0
C1026 C 0.84808 0.76009 0.98672 0.0
C1027 C 0.87441 0.75883 0.00818 0.0
C1028 C 0.88307 0.75964 0.02727 0.0
C1029 C 0.86104 0.76016 0.9719 0.0
C1030 C 0.88134 0.76031 0.97534 0.0
C1031 C 0.887 0.75824 0.99336 0.0
C1032 C 0.89914 0.76786 0.96128 0.0
C1033 C 0.85406 0.7624 0.95284 0.0
C1034 C 0.89608 0.75622 0.94482 0.0
C1035 C 0.91214 0.76567 0.9309 0.0
C1036 C 0.93152 0.7868 0.93333 0.0
C1037 C 0.935 0.79765 0.95027 0.0
C1038 C 0.91899 0.78832 0.96402 0.0
H1039 H 0.83898 0.76433 0.95277 0.0
H1040 H 0.86793 0.77713 0.94585 0.0
H1041 H 0.85017 0.7472 0.94482 0.0
H1042 H 0.88106 0.7402 0.94256 0.0
H1043 H 0.90903 0.75674 0.91808 0.0
H1044 H 0.18373 0.14164 0.95226 0.0
H1045 H 0.20151 0.13187 0.97623 0.0
H1046 H 0.25517 0.1429 0.93958 0.0
H1047 H 0.23698 0.15226 0.91506 0.0
H1048 H 0.2387 0.10352 0.9553 0.0
H1049 H 0.25339 0.1637 0.0099 0.0
H1050 H 0.22518 0.15291 0.00215 0.0
H1051 H 0.24824 0.16866 0.98664 0.0
C1052 C 0.19951 0.14241 0.94927 0.0
C1053 C 0.20879 0.14755 0.93163 0.0
C1054 C 0.20988 0.1371 0.96314 0.0
C1055 C 0.22996 0.13708 0.95987 0.0
C1056 C 0.23981 0.14306 0.94248 0.0
H1057 H 0.239 0.07602 0.06111 0.0
H1058 H 0.2567 0.10235 0.03579 0.0
C1059 C 0.22938 0.14838 0.92848 0.0
C1060 C 0.23835 0.12762 0.97396 0.0
H1061 H 0.24014 0.12447 0.02025 0.0
C1062 C 0.23981 0.10855 0.96947 0.0
C1063 C 0.24075 0.13453 0.9924 0.0
C1064 C 0.24208 0.15626 -0.00204 0.0
C1065 C 0.24046 0.0946 0.98313 0.0
C1066 C 0.23888 0.09953 0.00164 0.0
C1067 C 0.24064 0.12021 0.00607 0.0
C1068 C 0.23111 0.08204 0.01605 0.0
C1069 C 0.24154 0.07408 0.97753 0.0
C1070 C 0.21106 0.0617 0.01333 0.0
C1071 C 0.201 0.04665 0.02767 0.0
C1072 C 0.21052 0.05171 0.04523 0.0
C1073 C 0.23117 0.07161 0.04778 0.0
C1074 C 0.24133 0.08668 0.03332 0.0
H1075 H 0.25256 0.07781 0.96541 0.0
H1076 H 0.24793 0.0679 0.98871 0.0
H1077 H 0.22452 0.06056 0.97357 0.0
H1078 H 0.20238 0.05797 0.00037 0.0
H1079 H 0.18515 0.03151 0.02513 0.0
H1080 H 0.84685 0.03711 0.95562 0.0
H1081 H 0.85978 0.0648 0.97981 0.0
H1082 H 0.8585 0.11302 0.94293 0.0
H1083 H 0.84594 0.08526 0.91822 0.0
H1084 H 0.89791 0.13006 0.95914 0.0
H1085 H 0.83417 0.09228 0.01285 0.0
H1086 H 0.84103 0.07167 0.00539 0.0
H1087 H 0.82847 0.08231 0.98957 0.0
C1088 C 0.84888 0.05344 0.95264 0.0
C1089 C 0.84558 0.05902 0.9349 0.0
C1090 C 0.85601 0.06923 0.96663 0.0
C1091 C 0.85976 0.09092 0.96332 0.0
C1092 C 0.85549 0.0963 0.94583 0.0
H1093 H 0.92443 0.163 0.06402 0.0
H1094 H 0.8992 0.15424 0.03786 0.0
C1095 C 0.84831 0.08042 0.93174 0.0
C1096 C 0.87127 0.10842 0.97749 0.0
H1097 H 0.87354 0.11413 0.02376 0.0
C1098 C 0.89225 0.127 0.97321 0.0
C1099 C 0.86375 0.10499 -0.0042 0.0
C1100 C 0.84048 0.08684 0.00108 0.0
C1101 C 0.90693 0.14053 0.98699 0.0
C1102 C 0.90066 0.13493 0.00547 0.0
C1103 C 0.87866 0.11811 0.00962 0.0
C1104 C 0.91747 0.14354 0.02041 0.0
C1105 C 0.92943 0.16 0.9816 0.0
C1106 C 0.93617 0.14056 0.01927 0.0
C1107 C 0.95059 0.14556 0.03409 0.0
C1108 C 0.94648 0.15337 0.05057 0.0
C1109 C 0.9281 0.157 0.05155 0.0
C1110 C 0.91367 0.15203 0.03661 0.0
H1111 H 0.92808 0.16772 0.96869 0.0
H1112 H 0.93641 0.1731 0.99237 0.0
H1113 H 0.94135 0.15385 0.97914 0.0
H1114 H 0.93912 0.13338 0.00716 0.0
H1115 H 0.96452 0.14252 0.03279 0.0
H1116 H 0.76498 0.83101 0.42173 0.0
H1117 H 0.74773 0.83919 0.4477 0.0
H1118 H 0.80933 0.86408 0.47809 0.0
H1119 H 0.8264 0.8555 0.45269 0.0
H1120 H 0.77194 0.8391 0.49933 0.0
H1121 H 0.76372 0.90337 0.45898 0.0
H1122 H 0.74942 0.87492 0.45083 0.0
H1123 H 0.77953 0.89081 0.45057 0.0
C1124 C 0.77476 0.838 0.43403 0.0
C1125 C 0.79721 0.84288 0.43501 0.0
C1126 C 0.76488 0.84273 0.44882 0.0
C1127 C 0.77736 0.85256 0.46471 0.0
C1128 C 0.79937 0.85647 0.46597 0.0
H1129 H 0.81553 0.95261 0.5349 0.0
H1130 H 0.80105 0.92584 0.51003 0.0
C1131 C 0.80916 0.85165 0.45134 0.0
C1132 C 0.76872 0.86057 0.47972 0.0
H1133 H 0.76146 0.90472 0.49063 0.0
C1134 C 0.76899 0.85306 0.49748 0.0
C1135 C 0.76471 0.87865 0.47716 0.0
C1136 C 0.76439 0.88758 0.4584 0.0
C1137 C 0.76788 0.86468 0.51281 0.0
C1138 C 0.76589 0.88399 0.51022 0.0
C1139 C 0.76305 0.88994 0.4925 0.0
C1140 C 0.77205 0.9009 0.52488 0.0
C1141 C 0.7711 0.85752 0.53152 0.0
C1142 C 0.76018 0.89609 0.54141 0.0
C1143 C 0.76863 0.91143 0.55591 0.0
C1144 C 0.78901 0.93178 0.55399 0.0
C1145 C 0.79998 0.937 0.537 0.0
C1146 C 0.79161 0.92174 0.52267 0.0
H1147 H 0.7746 0.84343 0.53092 0.0
H1148 H 0.78522 0.87182 0.5387 0.0
H1149 H 0.75569 0.85203 0.53975 0.0
H1150 H 0.74482 0.88024 0.54328 0.0
H1151 H 0.75967 0.90698 0.56876 0.0
H1152 H 0.07748 0.84543 0.56414 0.0
H1153 H 0.10326 0.85801 0.53803 0.0
H1154 H 0.06012 0.87649 0.50943 0.0
H1155 H 0.03421 0.86363 0.53498 0.0
H1156 H 0.07681 0.85583 0.48709 0.0
H1157 H 0.14471 0.92484 0.52779 0.0
H1158 H 0.134 0.89658 0.53575 0.0
H1159 H 0.11634 0.90887 0.53617 0.0
C1160 C 0.07336 0.85193 0.55219 0.0
C1161 C 0.05388 0.85377 0.55179 0.0
C1162 C 0.08818 0.85921 0.53733 0.0
C1163 C 0.08377 0.8685 0.52192 0.0
C1164 C 0.06388 0.8694 0.5212 0.0
H1165 H 0.14194 0.9704 0.44886 0.0
H1166 H 0.12971 0.94472 0.47456 0.0
C1167 C 0.0491 0.86211 0.53591 0.0
C1168 C 0.10015 0.87875 0.50682 0.0
H1169 H 0.14914 0.92626 0.49614 0.0
C1170 C 0.09291 0.87094 0.48902 0.0
C1171 C 0.12112 0.89845 0.50948 0.0
C1172 C 0.12958 0.90786 0.52828 0.0
C1173 C 0.10514 0.8833 0.47374 0.0
C1174 C 0.12542 0.90375 0.4764 0.0
C1175 C 0.1336 0.91055 0.49419 0.0
C1176 C 0.13594 0.92021 0.46139 0.0
C1177 C 0.09527 0.87533 0.45498 0.0
C1178 C 0.14423 0.91532 0.44557 0.0
C1179 C 0.15111 0.93 0.43063 0.0
C1180 C 0.14988 0.94981 0.43135 0.0
C1181 C 0.14288 0.9552 0.44767 0.0
C1182 C 0.13598 0.94056 0.46248 0.0
H1183 H 0.07795 0.86072 0.45553 0.0
H1184 H 0.09487 0.88905 0.44731 0.0
H1185 H 0.10587 0.87025 0.44724 0.0
H1186 H 0.14474 0.89988 0.44459 0.0
H1187 H 0.15659 0.92542 0.41833 0.0
H1188 H 0.14153 0.18804 0.53122 0.0
H1189 H 0.13029 0.20442 0.50711 0.0
H1190 H 0.13864 0.25748 0.54335 0.0
H1191 H 0.14955 0.2407 0.56803 0.0
H1192 H 0.09876 0.23859 0.52745 0.0
H1193 H 0.16046 0.25663 0.47331 0.0
H1194 H 0.15099 0.22872 0.48128 0.0
H1195 H 0.16568 0.25214 0.49667 0.0
C1196 C 0.14138 0.20341 0.53409 0.0
C1197 C 0.14627 0.21293 0.55164 0.0
C1198 C 0.13522 0.21297 0.52014 0.0
C1199 C 0.13404 0.23247 0.52326 0.0
C1200 C 0.1397 0.24257 0.54058 0.0
H1201 H 0.07206 0.23993 0.42161 0.0
H1202 H 0.09787 0.25755 0.44727 0.0
C1203 C 0.14592 0.23296 0.55465 0.0
C1204 C 0.12387 0.23995 0.50904 0.0
H1205 H 0.12119 0.24187 0.4627 0.0
C1206 C 0.10407 0.2401 0.51333 0.0
C1207 C 0.13107 0.24277 0.49065 0.0
C1208 C 0.15339 0.24533 0.4853 0.0
C1209 C 0.08987 0.23998 0.49954 0.0
C1210 C 0.09536 0.23902 0.48106 0.0
C1211 C 0.11656 0.24194 0.47684 0.0
C1212 C 0.07814 0.2309 0.46642 0.0
C1213 C 0.06858 0.23965 0.50495 0.0
C1214 C 0.05833 0.21023 0.46868 0.0
C1215 C 0.04358 0.2002 0.45415 0.0
C1216 C 0.04842 0.2104 0.43685 0.0
C1217 C 0.06781 0.23158 0.43474 0.0
C1218 C 0.08259 0.2417 0.4494 0.0
H1219 H 0.07142 0.25017 0.51727 0.0
H1220 H 0.06214 0.24583 0.49379 0.0
H1221 H 0.05557 0.22224 0.50849 0.0
H1222 H 0.05479 0.20114 0.48145 0.0
H1223 H 0.02884 0.18393 0.45635 0.0
H1224 H 0.75769 0.57781 0.40163 0.0
H1225 H 0.78519 0.59439 0.37685 0.0
H1226 H 0.73865 0.54336 0.34004 0.0
H1227 H 0.71119 0.52721 0.36429 0.0
H1228 H 0.80427 0.57409 0.36077 0.0
H1229 H 0.76367 0.59605 0.30672 0.0
H1230 H 0.75369 0.59163 0.33001 0.0
H1231 H 0.74396 0.56834 0.31433 0.0
C1232 C 0.75312 0.57053 0.38811 0.0
C1233 C 0.73231 0.55104 0.38499 0.0
C1234 C 0.76886 0.58004 0.37398 0.0
C1235 C 0.76389 0.57037 0.35649 0.0
C1236 C 0.74271 0.55159 0.35322 0.0
H1237 H 0.81541 0.51677 0.28969 0.0
H1238 H 0.80746 0.53483 0.31466 0.0
C1239 C 0.72707 0.54213 0.36724 0.0
C1240 C 0.78152 0.57717 0.34233 0.0
H1241 H 0.78629 0.57903 0.296 0.0
C1242 C 0.80077 0.57599 0.34666 0.0
C1243 C 0.77756 0.58047 0.32395 0.0
C1244 C 0.7587 0.58446 0.31858 0.0
C1245 C 0.81437 0.57493 0.33289 0.0
C1246 C 0.80813 0.57442 0.31442 0.0
C1247 C 0.79075 0.57873 0.31016 0.0
C1248 C 0.81637 0.56541 0.29984 0.0
C1249 C 0.8345 0.57305 0.33831 0.0
C1250 C 0.82377 0.5764 0.28298 0.0
C1251 C 0.82802 0.56586 0.26841 0.0
C1252 C 0.82474 0.54406 0.27045 0.0
C1253 C 0.81812 0.53353 0.28757 0.0
C1254 C 0.81384 0.544 0.30201 0.0
H1255 H 0.8425 0.58317 0.35075 0.0
H1256 H 0.82901 0.55531 0.34164 0.0
H1257 H 0.84718 0.57874 0.32722 0.0
H1258 H 0.8256 0.59282 0.28092 0.0
H1259 H 0.83312 0.57448 0.25542 0.0
H1260 H 0.44447 0.20573 0.40527 0.0
H1261 H 0.4343 0.22086 0.37903 0.0
H1262 H 0.45074 0.18178 0.34271 0.0
H1263 H 0.46195 0.16759 0.36883 0.0
H1264 H 0.47576 0.22477 0.33635 0.0
H1265 H 0.38741 0.2051 0.33999 0.0
H1266 H 0.40232 0.21657 0.36093 0.0
H1267 H 0.39777 0.18986 0.353 0.0
C1268 C 0.44509 0.19979 0.3917 0.0
C1269 C 0.45418 0.18574 0.38894 0.0
C1270 C 0.43914 0.20832 0.37671 0.0
C1271 C 0.44171 0.20242 0.35888 0.0
C1272 C 0.44866 0.18658 0.35634 0.0
H1273 H 0.439 0.26139 0.25458 0.0
H1274 H 0.42693 0.23579 0.28074 0.0
C1275 C 0.45508 0.17851 0.37123 0.0
C1276 C 0.44182 0.21594 0.3431 0.0
H1277 H 0.41218 0.2365 0.32091 0.0
C1278 C 0.46167 0.22698 0.33285 0.0
C1279 C 0.42352 0.21897 0.33857 0.0
C1280 C 0.40147 0.20681 0.34859 0.0
C1281 C 0.46394 0.24126 0.31846 0.0
C1282 C 0.44607 0.24509 0.31443 0.0
C1283 C 0.42593 0.23369 0.32427 0.0
C1284 C 0.44867 0.26118 0.30002 0.0
C1285 C 0.4856 0.25234 0.30774 0.0
C1286 C 0.46411 0.28403 0.3025 0.0
C1287 C 0.47127 0.29859 0.28762 0.0
C1288 C 0.46291 0.29055 0.27004 0.0
C1289 C 0.44583 0.26806 0.26794 0.0
C1290 C 0.43882 0.25342 0.28286 0.0
H1291 H 0.49563 0.24395 0.30997 0.0
H1292 H 0.48225 0.25218 0.2929 0.0
H1293 H 0.49587 0.27009 0.31212 0.0
H1294 H 0.47179 0.29026 0.31572 0.0
H1295 H 0.48418 0.3159 0.28973 0.0
H1296 H 0.69288 0.18849 0.29128 0.0
H1297 H 0.71973 0.19916 0.31603 0.0
H1298 H 0.75884 0.17807 0.28446 0.0
H1299 H 0.73218 0.16784 0.25914 0.0
H1300 H 0.73665 0.17806 0.33703 0.0
H1301 H 0.80331 0.24403 0.29323 0.0
H1302 H 0.7744 0.22882 0.28604 0.0
H1303 H 0.791 0.21534 0.28594 0.0
C1304 C 0.70702 0.18585 0.28956 0.0
C1305 C 0.71057 0.17771 0.27303 0.0
C1306 C 0.72233 0.19187 0.30381 0.0
C1307 C 0.7415 0.1898 0.30197 0.0
C1308 C 0.74439 0.18024 0.28601 0.0
H1309 H 0.81965 0.25259 0.40216 0.0
H1310 H 0.80699 0.22495 0.37737 0.0
C1311 C 0.72908 0.17432 0.27159 0.0
C1312 C 0.75905 0.19976 0.31624 0.0
H1313 H 0.80914 0.24707 0.32464 0.0
C1314 C 0.75281 0.19281 0.33436 0.0
C1315 C 0.78015 0.21893 0.31262 0.0
C1316 C 0.78771 0.22739 0.29345 0.0
C1317 C 0.766 0.20581 0.34904 0.0
C1318 C 0.78621 0.22598 0.34541 0.0
C1319 C 0.79359 0.23161 0.32731 0.0
C1320 C 0.79713 0.24358 0.35953 0.0
C1321 C 0.75712 0.19897 0.36821 0.0
C1322 C 0.79675 0.26363 0.35736 0.0
C1323 C 0.80409 0.27946 0.37131 0.0
C1324 C 0.81194 0.27558 0.38785 0.0
C1325 C 0.81349 0.25601 0.38966 0.0
C1326 C 0.80618 0.24014 0.37556 0.0
H1327 H 0.73995 0.1841 0.36845 0.0
H1328 H 0.76836 0.19477 0.37599 0.0
H1329 H 0.75674 0.21302 0.37534 0.0
H1330 H 0.78985 0.26666 0.34509 0.0
H1331 H 0.80286 0.2944 0.3693 0.0
H1332 H 0.84028 0.47399 0.86754 0.0
H1333 H 0.85807 0.46564 0.84254 0.0
H1334 H 0.92009 0.49412 0.87278 0.0
H1335 H 0.90213 0.50205 0.89836 0.0
H1336 H 0.89474 0.49074 0.82089 0.0
H1337 H 0.90716 0.43061 0.86347 0.0
H1338 H 0.89045 0.4424 0.87135 0.0
H1339 H 0.92048 0.45939 0.87072 0.0
C1340 C 0.85776 0.4787 0.86893 0.0
C1341 C 0.86964 0.48837 0.88513 0.0
C1342 C 0.86796 0.47399 0.85453 0.0
C1343 C 0.89031 0.47894 0.8559 0.0
C1344 C 0.90269 0.48974 0.8716 0.0
H1345 H 0.9089 0.42251 0.75355 0.0
H1346 H 0.92376 0.45019 0.77835 0.0
C1347 C 0.8924 0.49433 0.88616 0.0
C1348 C 0.89946 0.47097 0.84125 0.0
H1349 H 0.90922 0.42802 0.83191 0.0
C1350 C 0.89855 0.47743 0.82324 0.0
C1351 C 0.90461 0.45376 0.84445 0.0
C1352 C 0.90568 0.44596 0.8635 0.0
C1353 C 0.90008 0.46548 0.80833 0.0
C1354 C 0.90322 0.44696 0.81159 0.0
C1355 C 0.90674 0.44219 0.82952 0.0
C1356 C 0.89753 0.42948 0.7975 0.0
C1357 C 0.89605 0.47137 0.78938 0.0
C1358 C 0.87866 0.40827 0.8004 0.0
C1359 C 0.87032 0.39246 0.78645 0.0
C1360 C 0.88059 0.3975 0.76918 0.0
C1361 C 0.90046 0.41819 0.76664 0.0
C1362 C 0.9089 0.43407 0.78075 0.0
H1363 H 0.89161 0.48483 0.78951 0.0
H1364 H 0.91145 0.47726 0.78105 0.0
H1365 H 0.88228 0.45636 0.78261 0.0
H1366 H 0.86963 0.40431 0.81324 0.0
H1367 H 0.85521 0.3766 0.78904 0.0
H1368 H 0.51724 0.36046 0.86468 0.0
H1369 H 0.52803 0.38645 0.83929 0.0
H1370 H 0.50864 0.42768 0.86978 0.0
H1371 H 0.49833 0.40191 0.89576 0.0
H1372 H 0.50745 0.40326 0.81776 0.0
H1373 H 0.57461 0.47083 0.86012 0.0
H1374 H 0.55898 0.44224 0.86805 0.0
H1375 H 0.54605 0.45934 0.86754 0.0
C1376 C 0.515 0.3749 0.86604 0.0
C1377 C 0.50733 0.3793 0.88245 0.0
C1378 C 0.52108 0.38971 0.85141 0.0
C1379 C 0.51954 0.40923 0.85276 0.0
C1380 C 0.51042 0.41296 0.86861 0.0
H1381 H 0.58233 0.48324 0.75091 0.0
H1382 H 0.55482 0.47163 0.77574 0.0
C1383 C 0.50444 0.39815 0.8834 0.0
C1384 C 0.5296 0.42621 0.83806 0.0
H1385 H 0.57739 0.47548 0.82859 0.0
C1386 C 0.52241 0.41937 0.82007 0.0
C1387 C 0.54906 0.44725 0.84122 0.0
C1388 C 0.5578 0.45544 0.86023 0.0
C1389 C 0.53542 0.43184 0.80512 0.0
C1390 C 0.55584 0.45196 0.80833 0.0
C1391 C 0.56175 0.45999 0.82625 0.0
C1392 C 0.57333 0.46211 0.79403 0.0
C1393 C 0.52828 0.42227 0.78617 0.0
C1394 C 0.59327 0.46157 0.79642 0.0
C1395 C 0.60903 0.46834 0.78245 0.0
C1396 C 0.60519 0.47575 0.76566 0.0
C1397 C 0.58571 0.47739 0.76359 0.0
C1398 C 0.56991 0.47068 0.77772 0.0
H1399 H 0.51325 0.4052 0.78632 0.0
H1400 H 0.52419 0.43336 0.77804 0.0
H1401 H 0.54212 0.42139 0.77915 0.0
H1402 H 0.59627 0.45503 0.8089 0.0
H1403 H 0.62389 0.46702 0.78466 0.0
H1404 H 0.52734 0.14598 0.78822 0.0
H1405 H 0.53843 0.12978 0.81259 0.0
H1406 H 0.52508 0.07357 0.77817 0.0
H1407 H 0.51443 0.09016 0.75317 0.0
H1408 H 0.51813 0.08985 0.83128 0.0
H1409 H 0.59104 0.09935 0.79077 0.0
H1410 H 0.5746 0.11157 0.7832 0.0
H1411 H 0.56325 0.08177 0.78188 0.0
C1412 C 0.52656 0.13009 0.78574 0.0
C1413 C 0.5204 0.11961 0.76857 0.0
C1414 C 0.53278 0.12074 0.79979 0.0
C1415 C 0.53291 0.10063 0.79713 0.0
C1416 C 0.52549 0.08932 0.7804 0.0
H1417 H 0.59403 0.09159 0.9004 0.0
H1418 H 0.56843 0.07398 0.87455 0.0
C1419 C 0.51932 0.09878 0.76617 0.0
C1420 C 0.54283 0.09325 0.81161 0.0
H1421 H 0.59258 0.09648 0.82233 0.0
C1422 C 0.53411 0.09058 0.82934 0.0
C1423 C 0.56357 0.09403 0.80895 0.0
C1424 C 0.57383 0.0969 0.79022 0.0
C1425 C 0.54679 0.09149 0.84465 0.0
C1426 C 0.5685 0.0945 0.84204 0.0
C1427 C 0.57599 0.09433 0.82424 0.0
C1428 C 0.58534 0.103 0.85692 0.0
C1429 C 0.53779 0.09159 0.86343 0.0
C1430 C 0.6039 0.12468 0.85528 0.0
C1431 C 0.6186 0.13464 0.86982 0.0
C1432 C 0.61506 0.1232 0.88647 0.0
C1433 C 0.5971 0.10097 0.88783 0.0
C1434 C 0.5824 0.09091 0.87312 0.0
H1435 H 0.52161 0.09149 0.8629 0.0
H1436 H 0.53504 0.07649 0.87106 0.0
H1437 H 0.55007 0.10663 0.87119 0.0
H1438 H 0.60653 0.13435 0.84292 0.0
H1439 H 0.63232 0.15167 0.86814 0.0
H1440 H 0.5052 0.14647 0.36454 0.0
H1441 H 0.51471 0.12956 0.33971 0.0
H1442 H 0.50784 0.0767 0.37552 0.0
H1443 H 0.49893 0.09411 0.40089 0.0
H1444 H 0.54656 0.09493 0.35972 0.0
H1445 H 0.48586 0.0786 0.30525 0.0
H1446 H 0.49554 0.10656 0.31315 0.0
H1447 H 0.48049 0.08318 0.32854 0.0
C1448 C 0.50519 0.13097 0.36715 0.0
C1449 C 0.5016 0.12185 0.38482 0.0
C1450 C 0.51034 0.12108 0.35278 0.0
C1451 C 0.51166 0.1016 0.3556 0.0
C1452 C 0.50675 0.09163 0.37298 0.0
H1453 H 0.57632 0.09471 0.25478 0.0
H1454 H 0.5492 0.07747 0.27971 0.0
C1455 C 0.50167 0.10162 0.38747 0.0
C1456 C 0.52189 0.09438 0.34121 0.0
H1457 H 0.52548 0.09374 0.29485 0.0
C1458 C 0.5415 0.09386 0.34557 0.0
C1459 C 0.51506 0.09216 0.32275 0.0
C1460 C 0.4929 0.08988 0.31725 0.0
C1461 C 0.55587 0.09422 0.33185 0.0
C1462 C 0.55079 0.09579 0.3134 0.0
C1463 C 0.52978 0.09324 0.30902 0.0
C1464 C 0.56832 0.10409 0.29904 0.0
C1465 C 0.57698 0.09421 0.33735 0.0
C1466 C 0.58807 0.12471 0.30163 0.0
C1467 C 0.60353 0.13456 0.28753 0.0
C1468 C 0.59948 0.12418 0.27033 0.0
C1469 C 0.57997 0.10317 0.26785 0.0
C1470 C 0.56446 0.09327 0.28208 0.0
H1471 H 0.57395 0.08361 0.34965 0.0
H1472 H 0.58334 0.08795 0.3262 0.0
H1473 H 0.59013 0.11155 0.34092 0.0
H1474 H 0.59114 0.13378 0.31437 0.0
H1475 H 0.61832 0.15072 0.28999 0.0
H1476 H 0.84573 0.36631 0.36665 0.0
H1477 H 0.8619 0.39214 0.34128 0.0
H1478 H 0.91947 0.43567 0.37417 0.0
H1479 H 0.90302 0.40997 0.40006 0.0
H1480 H 0.90228 0.45847 0.35921 0.0
H1481 H 0.91051 0.40844 0.30466 0.0
H1482 H 0.8829 0.3926 0.31409 0.0
H1483 H 0.90702 0.39973 0.32827 0.0
C1484 C 0.86203 0.38114 0.36849 0.0
C1485 C 0.87295 0.38613 0.3855 0.0
C1486 C 0.87143 0.39581 0.35382 0.0
C1487 C 0.89213 0.41568 0.35567 0.0
C1488 C 0.90359 0.42032 0.37239 0.0
H1489 H 0.90322 0.48696 0.25375 0.0
H1490 H 0.91909 0.47589 0.27894 0.0
C1491 C 0.89413 0.40561 0.38716 0.0
C1492 C 0.89974 0.43271 0.34093 0.0
H1493 H 0.89932 0.43588 0.29454 0.0
C1494 C 0.90238 0.45382 0.34508 0.0
C1495 C 0.90065 0.42711 0.3225 0.0
C1496 C 0.90039 0.4058 0.31719 0.0
C1497 C 0.90309 0.46821 0.33122 0.0
C1498 C 0.90049 0.461 0.31285 0.0
C1499 C 0.90072 0.44121 0.30865 0.0
C1500 C 0.8935 0.47134 0.29841 0.0
C1501 C 0.90541 0.49046 0.33648 0.0
C1502 C 0.87399 0.47264 0.30103 0.0
C1503 C 0.86493 0.47893 0.28677 0.0
C1504 C 0.87499 0.4838 0.26941 0.0
C1505 C 0.89504 0.48333 0.26694 0.0
C1506 C 0.90415 0.47702 0.28132 0.0
H1507 H 0.9164 0.49752 0.34865 0.0
H1508 H 0.91246 0.50282 0.32516 0.0
H1509 H 0.88867 0.48796 0.34017 0.0
H1510 H 0.86505 0.4677 0.3139 0.0
H1511 H 0.84951 0.47914 0.28923 0.0
H1512 H 0.60084 0.50659 0.39533 0.0
H1513 H 0.5748 0.49786 0.36974 0.0
H1514 H 0.61203 0.47424 0.3385 0.0
H1515 H 0.63831 0.48344 0.36352 0.0
H1516 H 0.59756 0.49736 0.31741 0.0
H1517 H 0.5277 0.43313 0.35998 0.0
H1518 H 0.54129 0.46182 0.36749 0.0
H1519 H 0.55639 0.44679 0.3677 0.0
C1520 C 0.60364 0.49981 0.38291 0.0
C1521 C 0.62148 0.49538 0.38161 0.0
C1522 C 0.58869 0.49477 0.36833 0.0
C1523 C 0.59123 0.48501 0.35235 0.0
C1524 C 0.60971 0.48175 0.35071 0.0
H1525 H 0.52913 0.38209 0.28502 0.0
H1526 H 0.54186 0.4099 0.30912 0.0
C1527 C 0.6247 0.48693 0.36512 0.0
C1528 C 0.57398 0.47613 0.33779 0.0
H1529 H 0.52285 0.43063 0.32848 0.0
C1530 C 0.58093 0.48315 0.31978 0.0
C1531 C 0.55225 0.45771 0.34102 0.0
C1532 C 0.54386 0.44925 0.36005 0.0
C1533 C 0.56781 0.47073 0.30486 0.0
C1534 C 0.54695 0.45112 0.30813 0.0
C1535 C 0.5389 0.44564 0.32608 0.0
C1536 C 0.53609 0.43356 0.29396 0.0
C1537 C 0.57736 0.47743 0.28587 0.0
C1538 C 0.52796 0.43731 0.27754 0.0
C1539 C 0.5208 0.42136 0.26349 0.0
C1540 C 0.52163 0.40146 0.26575 0.0
C1541 C 0.52853 0.39732 0.28265 0.0
C1542 C 0.53569 0.41318 0.29655 0.0
H1543 H 0.59474 0.49197 0.28592 0.0
H1544 H 0.5775 0.46315 0.27893 0.0
H1545 H 0.56669 0.48206 0.27772 0.0
H1546 H 0.52777 0.45278 0.27539 0.0
H1547 H 0.5154 0.42498 0.25069 0.0
H1548 H 0.47064 0.15253 0.78969 0.0
H1549 H 0.45621 0.16163 0.81691 0.0
H1550 H 0.43338 0.19799 0.78351 0.0
H1551 H 0.44651 0.18766 0.75623 0.0
H1552 H 0.47472 0.20183 0.82761 0.0
H1553 H 0.38497 0.17453 0.82044 0.0
H1554 H 0.3986 0.16363 0.80602 0.0
H1555 H 0.39982 0.18977 0.8005 0.0
C1556 C 0.46181 0.16179 0.78816 0.0
C1557 C 0.45978 0.16956 0.77097 0.0
C1558 C 0.45353 0.16695 0.80369 0.0
C1559 C 0.4436 0.18045 0.80233 0.0
C1560 C 0.44037 0.18705 0.78496 0.0
H1561 H 0.47327 0.29151 0.86665 0.0
H1562 H 0.46185 0.26306 0.84283 0.0
C1563 C 0.44809 0.18134 0.76936 0.0
C1564 C 0.44087 0.1912 0.81895 0.0
H1565 H 0.40699 0.20791 0.83947 0.0
C1566 C 0.45962 0.20255 0.83042 0.0
C1567 C 0.42124 0.19228 0.82274 0.0
C1568 C 0.39997 0.17916 0.81184 0.0
C1569 C 0.45975 0.21587 0.84485 0.0
C1570 C 0.44084 0.21837 0.84769 0.0
C1571 C 0.42157 0.20615 0.83699 0.0
C1572 C 0.44207 0.23513 0.86084 0.0
C1573 C 0.48055 0.22802 0.85651 0.0
C1574 C 0.43374 0.22876 0.87862 0.0
C1575 C 0.44017 0.24503 0.8923 0.0
C1576 C 0.45522 0.26773 0.88832 0.0
C1577 C 0.4619 0.27411 0.87015 0.0
C1578 C 0.45528 0.25793 0.85651 0.0
H1579 H 0.49181 0.22089 0.85493 0.0
H1580 H 0.49 0.24595 0.85244 0.0
H1581 H 0.47601 0.22724 0.87114 0.0
H1582 H 0.42364 0.21118 0.88216 0.0
H1583 H 0.43478 0.23966 0.9062 0.0
H1584 H 0.69932 0.16484 0.86929 0.0
H1585 H 0.72445 0.17836 0.84298 0.0
H1586 H 0.78113 0.21385 0.87903 0.0
H1587 H 0.75606 0.19936 0.90543 0.0
H1588 H 0.74485 0.22124 0.83674 0.0
H1589 H 0.80956 0.19605 0.83942 0.0
H1590 H 0.78404 0.18212 0.85269 0.0
H1591 H 0.8075 0.20805 0.86056 0.0
C1592 C 0.71725 0.17483 0.87158 0.0
C1593 C 0.72582 0.18124 0.8893 0.0
C1594 C 0.7316 0.18252 0.85657 0.0
C1595 C 0.7547 0.19715 0.85899 0.0
C1596 C 0.76347 0.20222 0.87678 0.0
H1597 H 0.83069 0.31107 0.79169 0.0
H1598 H 0.81599 0.28467 0.81713 0.0
C1599 C 0.74912 0.19406 0.89187 0.0
C1600 C 0.7685 0.21037 0.84323 0.0
H1601 H 0.81844 0.22876 0.82108 0.0
C1602 C 0.76075 0.22251 0.83318 0.0
C1603 C 0.7893 0.21216 0.83858 0.0
C1604 C 0.79798 0.19871 0.84828 0.0
C1605 C 0.77337 0.23675 0.81895 0.0
C1606 C 0.79463 0.23944 0.8149 0.0
C1607 C 0.80224 0.22686 0.82448 0.0
C1608 C 0.80893 0.25566 0.80085 0.0
C1609 C 0.76391 0.24907 0.80847 0.0
C1610 C 0.81093 0.24816 0.78353 0.0
C1611 C 0.81945 0.26326 0.76893 0.0
C1612 C 0.82581 0.28594 0.77151 0.0
C1613 C 0.8256 0.29364 0.78923 0.0
C1614 C 0.81733 0.27862 0.8038 0.0
H1615 H 0.74552 0.2414 0.81051 0.0
H1616 H 0.77206 0.26672 0.81325 0.0
H1617 H 0.76729 0.24923 0.79363 0.0
H1618 H 0.80445 0.23046 0.78104 0.0
H1619 H 0.81947 0.25685 0.75543 0.0
H1620 H 0.7366 0.56827 0.75537 0.0
H1621 H 0.76192 0.58519 0.78147 0.0
H1622 H 0.72393 0.52376 0.81187 0.0
H1623 H 0.69841 0.50708 0.78637 0.0
H1624 H 0.73734 0.56109 0.8332 0.0
H1625 H 0.80893 0.56762 0.79257 0.0
H1626 H 0.79542 0.58263 0.78464 0.0
H1627 H 0.78054 0.5525 0.78414 0.0
C1628 C 0.73348 0.5585 0.76772 0.0
C1629 C 0.71564 0.53617 0.76864 0.0
C1630 C 0.74803 0.56817 0.78258 0.0
C1631 C 0.74504 0.5556 0.79849 0.0
C1632 C 0.72659 0.53379 0.79973 0.0
H1633 H 0.80497 0.51407 0.86775 0.0
H1634 H 0.79327 0.52947 0.84317 0.0
C1635 C 0.71204 0.52421 0.78503 0.0
C1636 C 0.76172 0.56379 0.81349 0.0
H1637 H 0.81243 0.5692 0.82421 0.0
C1638 C 0.75405 0.56353 0.83129 0.0
C1639 C 0.78356 0.56713 0.81086 0.0
C1640 C 0.7927 0.56742 0.79207 0.0
C1641 C 0.76654 0.56393 0.84657 0.0
C1642 C 0.78752 0.56523 0.84389 0.0
C1643 C 0.79629 0.56812 0.82616 0.0
C1644 C 0.79788 0.55842 0.85842 0.0
C1645 C 0.75616 0.56068 0.86528 0.0
C1646 C 0.80505 0.56994 0.87509 0.0
C1647 C 0.81159 0.56095 0.88943 0.0
C1648 C 0.81113 0.54039 0.88722 0.0
C1649 C 0.80527 0.52976 0.87009 0.0
C1650 C 0.7987 0.53864 0.85592 0.0
H1651 H 0.73872 0.55762 0.86471 0.0
H1652 H 0.75593 0.54627 0.87231 0.0
H1653 H 0.76633 0.57592 0.87364 0.0
H1654 H 0.80495 0.58546 0.8772 0.0
H1655 H 0.81621 0.56968 0.90239 0.0
H1656 H 0.42584 0.89359 0.73801 0.0
H1657 H 0.45242 0.90599 0.71246 0.0
H1658 H 0.39735 0.8724 0.67472 0.0
H1659 H 0.37083 0.85965 0.70007 0.0
H1660 H 0.42809 0.85591 0.67721 0.0
H1661 H 0.47138 0.94828 0.66597 0.0
H1662 H 0.46774 0.93817 0.68913 0.0
H1663 H 0.44366 0.93284 0.67591 0.0
C1664 C 0.4194 0.88952 0.72421 0.0
C1665 C 0.39633 0.87533 0.721 0.0
C1666 C 0.43459 0.89672 0.70964 0.0
C1667 C 0.42679 0.89011 0.69175 0.0
C1668 C 0.40364 0.87771 0.68845 0.0
H1669 H 0.47884 0.89201 0.58611 0.0
H1670 H 0.46662 0.90356 0.61342 0.0
C1671 C 0.38854 0.87032 0.70295 0.0
C1672 C 0.44228 0.89175 0.67713 0.0
H1673 H 0.48357 0.92761 0.64812 0.0
C1674 C 0.44028 0.87159 0.67088 0.0
C1675 C 0.4581 0.91226 0.66902 0.0
C1676 C 0.46042 0.9342 0.6752 0.0
C1677 C 0.45329 0.87122 0.65642 0.0
C1678 C 0.46928 0.89171 0.64828 0.0
C1679 C 0.47151 0.91201 0.6546 0.0
C1680 C 0.48245 0.89165 0.63238 0.0
C1681 C 0.4492 0.84874 0.64961 0.0
C1682 C 0.49653 0.88246 0.63407 0.0
C1683 C 0.503 0.87535 0.61858 0.0
C1684 C 0.49603 0.87799 0.6012 0.0
C1685 C 0.48439 0.8898 0.5994 0.0
C1686 C 0.47747 0.89647 0.61496 0.0
H1687 H 0.43305 0.83466 0.65468 0.0
H1688 H 0.44903 0.8482 0.63446 0.0
H1689 H 0.46287 0.84595 0.6545 0.0
H1690 H 0.50078 0.87892 0.64742 0.0
H1691 H 0.51222 0.86651 0.62025 0.0
H1692 H 0.11162 0.58899 0.59039 0.0
H1693 H 0.10088 0.56504 0.61746 0.0
H1694 H 0.13155 0.62383 0.65185 0.0
H1695 H 0.14322 0.64776 0.62479 0.0
H1696 H 0.1494 0.59901 0.65763 0.0
H1697 H 0.05733 0.54328 0.65915 0.0
H1698 H 0.06893 0.54237 0.63746 0.0
H1699 H 0.07078 0.56814 0.64506 0.0
C1700 C 0.11541 0.59676 0.60376 0.0
C1701 C 0.12845 0.62018 0.60554 0.0
C1702 C 0.10912 0.58305 0.61925 0.0
C1703 C 0.11531 0.59261 0.63674 0.0
C1704 C 0.12662 0.61607 0.63851 0.0
H1705 H 0.1076 0.52672 0.74062 0.0
H1706 H 0.09783 0.54397 0.7156 0.0
C1707 C 0.13331 0.62973 0.62305 0.0
C1708 C 0.11385 0.57861 0.65267 0.0
H1709 H 0.07913 0.53077 0.67639 0.0
C1710 C 0.1339 0.58433 0.66187 0.0
C1711 C 0.09369 0.5594 0.65825 0.0
C1712 C 0.07144 0.55307 0.64957 0.0
C1713 C 0.13451 0.57114 0.67611 0.0
C1714 C 0.11465 0.5513 0.68102 0.0
C1715 C 0.09438 0.54584 0.67234 0.0
C1716 C 0.1153 0.53613 0.69495 0.0
C1717 C 0.15656 0.57841 0.68565 0.0
C1718 C 0.12738 0.52513 0.69135 0.0
C1719 C 0.1332 0.51555 0.70555 0.0
C1720 C 0.1268 0.51661 0.72358 0.0
C1721 C 0.11278 0.52567 0.72687 0.0
C1722 C 0.10715 0.5355 0.71261 0.0
H1723 H 0.16884 0.59641 0.6832 0.0
H1724 H 0.15407 0.57559 0.7006 0.0
H1725 H 0.16391 0.56835 0.68042 0.0
H1726 H 0.13367 0.52535 0.67774 0.0
H1727 H 0.14377 0.50842 0.70257 0.0
H1728 H 0.48458 0.57426 0.73777 0.0
H1729 H 0.4734 0.54676 0.71298 0.0
H1730 H 0.4653 0.59199 0.67716 0.0
H1731 H 0.47684 0.61947 0.70143 0.0
H1732 H 0.43332 0.52636 0.69777 0.0
H1733 H 0.49386 0.56893 0.64268 0.0
H1734 H 0.4998 0.57879 0.66599 0.0
H1735 H 0.48507 0.58781 0.65091 0.0
C1736 C 0.48097 0.57854 0.72446 0.0
C1737 C 0.48141 0.599 0.72164 0.0
C1738 C 0.47461 0.56282 0.71032 0.0
C1739 C 0.46888 0.56744 0.6931 0.0
C1740 C 0.47028 0.58824 0.69012 0.0
H1741 H 0.3621 0.51281 0.62823 0.0
H1742 H 0.38874 0.52121 0.65276 0.0
C1743 C 0.47659 0.60388 0.70415 0.0
C1744 C 0.45817 0.54975 0.67899 0.0
H1745 H 0.45414 0.54501 0.6327 0.0
C1746 C 0.43828 0.53003 0.68357 0.0
C1747 C 0.46489 0.55396 0.66049 0.0
C1748 C 0.48725 0.57343 0.65482 0.0
C1749 C 0.42354 0.5161 0.66999 0.0
C1750 C 0.4286 0.52246 0.65147 0.0
C1751 C 0.44986 0.54042 0.64691 0.0
C1752 C 0.41095 0.51369 0.63721 0.0
C1753 C 0.40211 0.49543 0.67569 0.0
C1754 C 0.41459 0.50688 0.62009 0.0
C1755 C 0.39944 0.5024 0.60578 0.0
C1756 C 0.38048 0.50484 0.60833 0.0
C1757 C 0.37648 0.51076 0.62571 0.0
C1758 C 0.39161 0.51529 0.63991 0.0
H1759 H 0.40501 0.48766 0.68791 0.0
H1760 H 0.38947 0.50024 0.67948 0.0
H1761 H 0.39518 0.48277 0.66458 0.0
H1762 H 0.42952 0.50576 0.61764 0.0
H1763 H 0.40302 0.49782 0.59259 0.0
H1764 H 0.51396 0.71034 0.12066 0.0
H1765 H 0.52948 0.73843 0.14452 0.0
H1766 H 0.58723 0.77965 0.11097 0.0
H1767 H 0.57139 0.75162 0.08648 0.0
H1768 H 0.5687 0.75825 0.16419 0.0
H1769 H 0.56172 0.82084 0.12044 0.0
H1770 H 0.54942 0.79187 0.11367 0.0
H1771 H 0.57929 0.81004 0.11275 0.0
C1772 C 0.53006 0.72525 0.11828 0.0
C1773 C 0.54121 0.72887 0.10147 0.0
C1774 C 0.539 0.74128 0.13205 0.0
C1775 C 0.55934 0.7613 0.12944 0.0
C1776 C 0.57129 0.76449 0.11313 0.0
H1777 H 0.56891 0.83605 0.23002 0.0
H1778 H 0.58611 0.82659 0.20479 0.0
C1779 C 0.56226 0.7484 0.0992 0.0
C1780 C 0.56642 0.77911 0.14344 0.0
H1781 H 0.56441 0.82682 0.15185 0.0
C1782 C 0.56845 0.77363 0.16152 0.0
C1783 C 0.56622 0.79921 0.13982 0.0
C1784 C 0.56397 0.80594 0.12067 0.0
C1785 C 0.56761 0.78625 0.17623 0.0
C1786 C 0.56536 0.80525 0.17264 0.0
C1787 C 0.56601 0.81218 0.15451 0.0
C1788 C 0.55738 0.81489 0.18689 0.0
C1789 C 0.56683 0.7778 0.19539 0.0
C1790 C 0.5361 0.81266 0.18481 0.0
C1791 C 0.52639 0.81829 0.199 0.0
C1792 C 0.53768 0.82617 0.21572 0.0
C1793 C 0.55962 0.82974 0.21741 0.0
C1794 C 0.56945 0.82425 0.20305 0.0
H1795 H 0.56604 0.76127 0.19558 0.0
H1796 H 0.58212 0.78998 0.2029 0.0
H1797 H 0.55202 0.77614 0.20282 0.0
H1798 H 0.52647 0.80551 0.17245 0.0
H1799 H 0.50958 0.81551 0.19707 0.0
H1800 H 0.18426 0.69662 0.20049 0.0
H1801 H 0.195 0.72293 0.17535 0.0
H1802 H 0.17437 0.76304 0.20605 0.0
H1803 H 0.16408 0.73692 0.23179 0.0
H1804 H 0.17375 0.73924 0.15395 0.0
H1805 H 0.24018 0.80723 0.19651 0.0
H1806 H 0.22503 0.77857 0.20432 0.0
H1807 H 0.21154 0.79516 0.20389 0.0
C1808 C 0.18176 0.71089 0.20196 0.0
C1809 C 0.1737 0.71485 0.21835 0.0
C1810 C 0.18781 0.72589 0.18747 0.0
C1811 C 0.18585 0.74515 0.18893 0.0
C1812 C 0.17645 0.74851 0.20479 0.0
H1813 H 0.24846 0.81899 0.08709 0.0
H1814 H 0.22088 0.80765 0.11184 0.0
C1815 C 0.1705 0.7335 0.21944 0.0
C1816 C 0.19569 0.76227 0.17431 0.0
H1817 H 0.24311 0.8119 0.16498 0.0
C1818 C 0.18858 0.75545 0.1563 0.0
C1819 C 0.21494 0.78344 0.17752 0.0
C1820 C 0.22354 0.79163 0.19656 0.0
C1821 C 0.20154 0.76804 0.14138 0.0
C1822 C 0.22183 0.78829 0.14465 0.0
C1823 C 0.22758 0.79631 0.16259 0.0
C1824 C 0.23943 0.79851 0.13043 0.0
C1825 C 0.19454 0.75847 0.12242 0.0
C1826 C 0.25944 0.79815 0.13301 0.0
C1827 C 0.27524 0.80479 0.11909 0.0
C1828 C 0.27137 0.81187 0.10215 0.0
C1829 C 0.25185 0.81339 0.09989 0.0
C1830 C 0.23602 0.80683 0.11398 0.0
H1831 H 0.17961 0.74134 0.12253 0.0
H1832 H 0.19037 0.76948 0.11426 0.0
H1833 H 0.20849 0.75773 0.11545 0.0
H1834 H 0.26245 0.79181 0.1456 0.0
H1835 H 0.29013 0.80358 0.12145 0.0
H1836 H 0.25328 0.42684 0.23819 0.0
H1837 H 0.22759 0.40878 0.21252 0.0
H1838 H 0.2702 0.46518 0.17816 0.0
H1839 H 0.29601 0.48289 0.2033 0.0
H1840 H 0.20398 0.42418 0.19654 0.0
H1841 H 0.2547 0.41547 0.143 0.0
H1842 H 0.26354 0.42 0.1666 0.0
H1843 H 0.27028 0.44346 0.1517 0.0
C1844 C 0.25743 0.43512 0.22503 0.0
C1845 C 0.27664 0.45642 0.22286 0.0
C1846 C 0.24274 0.42475 0.21038 0.0
C1847 C 0.24714 0.4354 0.1933 0.0
C1848 C 0.26674 0.45624 0.191 0.0
H1849 H 0.18491 0.47724 0.12662 0.0
H1850 H 0.19523 0.46087 0.15137 0.0
C1851 C 0.28138 0.46654 0.20553 0.0
C1852 C 0.23007 0.42687 0.17857 0.0
H1853 H 0.2273 0.42659 0.13215 0.0
C1854 C 0.20878 0.42391 0.18248 0.0
C1855 C 0.23581 0.42564 0.16024 0.0
C1856 C 0.25726 0.42605 0.15523 0.0
C1857 C 0.19444 0.42284 0.16844 0.0
C1858 C 0.20191 0.42544 0.15014 0.0
C1859 C 0.22178 0.42526 0.1462 0.0
C1860 C 0.19198 0.43276 0.1356 0.0
C1861 C 0.17203 0.4203 0.17343 0.0
C1862 C 0.18689 0.42258 0.11831 0.0
C1863 C 0.18125 0.4322 0.10388 0.0
C1864 C 0.18089 0.45229 0.1065 0.0
C1865 C 0.1851 0.46183 0.12404 0.0
C1866 C 0.19071 0.45227 0.13835 0.0
H1867 H 0.16477 0.40908 0.18544 0.0
H1868 H 0.17434 0.43692 0.17727 0.0
H1869 H 0.15993 0.4134 0.16193 0.0
H1870 H 0.18801 0.40766 0.11583 0.0
H1871 H 0.1781 0.42442 0.09054 0.0
H1872 H 0.29012 0.47573 0.62762 0.0
H1873 H 0.26304 0.45897 0.65207 0.0
H1874 H 0.21753 0.40647 0.61577 0.0
H1875 H 0.24461 0.42363 0.5908 0.0
H1876 H 0.19708 0.42535 0.63191 0.0
H1877 H 0.24062 0.40671 0.68573 0.0
H1878 H 0.25921 0.43465 0.6779 0.0
H1879 H 0.25032 0.41134 0.66236 0.0
C1880 C 0.27456 0.46038 0.62482 0.0
C1881 C 0.26948 0.45119 0.60716 0.0
C1882 C 0.25915 0.45059 0.63896 0.0
C1883 C 0.23836 0.43118 0.6359 0.0
C1884 C 0.23357 0.42131 0.61849 0.0
H1885 H 0.16868 0.4242 0.73747 0.0
H1886 H 0.17686 0.40642 0.7119 0.0
C1887 C 0.24906 0.43116 0.60424 0.0
C1888 C 0.22082 0.42376 0.65021 0.0
H1889 H 0.21647 0.42191 0.69656 0.0
C1890 C 0.20093 0.42379 0.646 0.0
C1891 C 0.22526 0.42089 0.66856 0.0
C1892 C 0.24492 0.41812 0.67381 0.0
C1893 C 0.18704 0.4241 0.65986 0.0
C1894 C 0.19358 0.42503 0.67829 0.0
C1895 C 0.21173 0.42187 0.68243 0.0
C1896 C 0.18482 0.43347 0.6929 0.0
C1897 C 0.16621 0.42477 0.65457 0.0
C1898 C 0.18639 0.45447 0.69069 0.0
C1899 C 0.18177 0.46463 0.70517 0.0
C1900 C 0.17573 0.45418 0.72235 0.0
C1901 C 0.17331 0.43273 0.72442 0.0
C1902 C 0.17794 0.42252 0.70982 0.0
H1903 H 0.15844 0.41445 0.64218 0.0
H1904 H 0.15361 0.41858 0.66575 0.0
H1905 H 0.17081 0.44229 0.65122 0.0
H1906 H 0.19233 0.46363 0.67798 0.0
H1907 H 0.18377 0.48111 0.70302 0.0
H1908 H 0.53578 0.83316 0.61922 0.0
H1909 H 0.54648 0.81889 0.64559 0.0
H1910 H 0.56519 0.78123 0.60969 0.0
H1911 H 0.55545 0.79638 0.58322 0.0
H1912 H 0.5224 0.7759 0.65199 0.0
H1913 H 0.61144 0.79779 0.6493 0.0
H1914 H 0.60068 0.8125 0.63605 0.0
H1915 H 0.59701 0.78607 0.62823 0.0
C1916 C 0.54303 0.82254 0.61697 0.0
C1917 C 0.54471 0.81575 0.59927 0.0
C1918 C 0.54914 0.81439 0.63202 0.0
C1919 C 0.55662 0.79895 0.62967 0.0
C1920 C 0.55992 0.79347 0.61189 0.0
H1921 H 0.5158 0.68523 0.69836 0.0
H1922 H 0.52747 0.71131 0.67271 0.0
C1923 C 0.55424 0.80204 0.59675 0.0
C1924 C 0.55663 0.78553 0.64553 0.0
H1925 H 0.58691 0.76597 0.66812 0.0
C1926 C 0.53669 0.77408 0.65563 0.0
C1927 C 0.5752 0.78303 0.6503 0.0
C1928 C 0.59736 0.79569 0.64051 0.0
C1929 C 0.53458 0.75987 0.67006 0.0
C1930 C 0.55272 0.75653 0.67429 0.0
C1931 C 0.57295 0.76839 0.66462 0.0
C1932 C 0.55029 0.74034 0.6886 0.0
C1933 C 0.5128 0.74834 0.68059 0.0
C1934 C 0.56021 0.74791 0.70578 0.0
C1935 C 0.55364 0.73299 0.72052 0.0
C1936 C 0.53692 0.71038 0.71823 0.0
C1937 C 0.52846 0.7026 0.70063 0.0
C1938 C 0.53518 0.71744 0.68593 0.0
H1939 H 0.50255 0.7565 0.67836 0.0
H1940 H 0.50282 0.73063 0.67602 0.0
H1941 H 0.51599 0.74834 0.69545 0.0
H1942 H 0.57187 0.76557 0.70806 0.0
H1943 H 0.56049 0.73948 0.73391 0.0
H1944 H 0.18182 0.75534 0.58607 0.0
H1945 H 0.19379 0.78315 0.61075 0.0
H1946 H 0.2046 0.73904 0.64578 0.0
H1947 H 0.19217 0.7112 0.62173 0.0
H1948 H 0.18667 0.76096 0.66428 0.0
H1949 H 0.26025 0.82077 0.62243 0.0
H1950 H 0.23257 0.81179 0.61384 0.0
H1951 H 0.24239 0.79209 0.61535 0.0
C1952 C 0.18638 0.75145 0.59915 0.0
C1953 C 0.18643 0.7312 0.6018 0.0
C1954 C 0.19332 0.76741 0.61319 0.0
C1955 C 0.20049 0.76334 0.62998 0.0
C1956 C 0.19919 0.74259 0.63293 0.0
H1957 H 0.30149 0.81012 0.69991 0.0
H1958 H 0.27545 0.80183 0.6749 0.0
C1959 C 0.19221 0.7267 0.61906 0.0
C1960 C 0.21143 0.78091 0.64415 0.0
H1961 H 0.26257 0.82619 0.65388 0.0
C1962 C 0.20301 0.77566 0.66202 0.0
C1963 C 0.23265 0.80015 0.64107 0.0
C1964 C 0.24266 0.80663 0.62219 0.0
C1965 C 0.2163 0.78745 0.67707 0.0
C1966 C 0.23836 0.80539 0.67405 0.0
C1967 C 0.2457 0.81232 0.6561 0.0
C1968 C 0.25545 0.81358 0.68875 0.0
C1969 C 0.20745 0.77913 0.69603 0.0
C1970 C 0.25328 0.82354 0.70476 0.0
C1971 C 0.26811 0.82807 0.71936 0.0
C1972 C 0.28545 0.82289 0.71805 0.0
C1973 C 0.28827 0.81417 0.70154 0.0
C1974 C 0.27342 0.80952 0.68712 0.0
H1975 H 0.19091 0.76341 0.69584 0.0
H1976 H 0.21944 0.77599 0.70382 0.0
H1977 H 0.20544 0.79208 0.70343 0.0
H1978 H 0.23981 0.82724 0.70616 0.0
H1979 H 0.26562 0.83505 0.73179 0.0
H1980 H 0.15124 0.51477 0.12702 0.0
H1981 H 0.13447 0.52475 0.15171 0.0
H1982 H 0.07714 0.50909 0.11792 0.0
H1983 H 0.09423 0.49955 0.09268 0.0
H1984 H 0.09316 0.5491 0.13227 0.0
H1985 H 0.08575 0.49275 0.18814 0.0
H1986 H 0.11355 0.5049 0.17906 0.0
H1987 H 0.08981 0.48717 0.16477 0.0
C1988 C 0.13487 0.51301 0.12483 0.0
C1989 C 0.12421 0.50652 0.10775 0.0
C1990 C 0.12513 0.51848 0.13913 0.0
C1991 C 0.10431 0.51727 0.13685 0.0
C1992 C 0.09312 0.50994 0.12005 0.0
H1993 H 0.0909 0.57869 0.23717 0.0
H1994 H 0.07548 0.55113 0.21234 0.0
C1995 C 0.10293 0.50451 0.10564 0.0
C1996 C 0.09622 0.52675 0.15119 0.0
H1997 H 0.09599 0.5314 0.19748 0.0
C1998 C 0.09304 0.54476 0.14651 0.0
C1999 C 0.09525 0.52075 0.16978 0.0
C2000 C 0.09601 0.50013 0.17565 0.0
C2001 C 0.09173 0.55852 0.16 0.0
C2002 C 0.0943 0.55452 0.17854 0.0
C2003 C 0.09462 0.5349 0.18325 0.0
C2004 C 0.10078 0.57217 0.19265 0.0
C2005 C 0.08877 0.5779 0.15416 0.0
C2006 C 0.11992 0.59321 0.18979 0.0
C2007 C 0.12871 0.6089 0.20384 0.0
C2008 C 0.11875 0.60384 0.22124 0.0
C2009 C 0.09898 0.58313 0.22393 0.0
C2010 C 0.09014 0.56736 0.20976 0.0
H2011 H 0.07776 0.57332 0.14196 0.0
H2012 H 0.08145 0.58326 0.16522 0.0
H2013 H 0.10533 0.59231 0.1503 0.0
H2014 H 0.12886 0.59714 0.17693 0.0
H2015 H 0.14389 0.62468 0.20122 0.0
H2016 H 0.48014 0.58784 0.09039 0.0
H2017 H 0.46494 0.56229 0.11654 0.0
H2018 H 0.47675 0.61777 0.15119 0.0
H2019 H 0.49162 0.64332 0.12521 0.0
H2020 H 0.47898 0.56164 0.15646 0.0
H2021 H 0.4064 0.57472 0.1456 0.0
H2022 H 0.42796 0.58199 0.12862 0.0
H2023 H 0.43303 0.60002 0.14793 0.0
C2024 C 0.48013 0.5947 0.10369 0.0
C2025 C 0.48665 0.6175 0.1057 0.0
C2026 C 0.47149 0.58009 0.1186 0.0
C2027 C 0.46952 0.58818 0.13566 0.0
C2028 C 0.47803 0.61125 0.13806 0.0
H2029 H 0.41752 0.53422 0.24136 0.0
H2030 H 0.44235 0.54834 0.21478 0.0
C2031 C 0.48642 0.62578 0.12319 0.0
C2032 C 0.45533 0.57245 0.15006 0.0
H2033 H 0.40596 0.55535 0.17228 0.0
C2034 C 0.4629 0.56001 0.15989 0.0
C2035 C 0.43421 0.57012 0.15419 0.0
C2036 C 0.42475 0.58224 0.14345 0.0
C2037 C 0.45009 0.54579 0.17428 0.0
C2038 C 0.42945 0.54435 0.17898 0.0
C2039 C 0.42173 0.55636 0.1687 0.0
C2040 C 0.41572 0.5315 0.19492 0.0
C2041 C 0.45872 0.53245 0.18422 0.0
C2042 C 0.39257 0.51694 0.19266 0.0
C2043 C 0.37837 0.50945 0.20778 0.0
C2044 C 0.38711 0.51599 0.22544 0.0
C2045 C 0.41045 0.52879 0.22785 0.0
C2046 C 0.42466 0.53675 0.21266 0.0
H2047 H 0.47014 0.52947 0.17543 0.0
H2048 H 0.4684 0.54204 0.19636 0.0
H2049 H 0.44474 0.51602 0.18888 0.0
H2050 H 0.38529 0.51263 0.17913 0.0
H2051 H 0.36042 0.49949 0.20561 0.0
H2052 H 0.36403 0.84574 0.12338 0.0
H2053 H 0.38964 0.86384 0.14857 0.0
H2054 H 0.42905 0.92249 0.11537 0.0
H2055 H 0.40359 0.90413 0.08965 0.0
H2056 H 0.45492 0.90908 0.13039 0.0
H2057 H 0.40183 0.91153 0.18505 0.0
H2058 H 0.3879 0.8838 0.17568 0.0
H2059 H 0.39295 0.90732 0.16147 0.0
C2060 C 0.37788 0.86265 0.12142 0.0
C2061 C 0.38182 0.87337 0.10439 0.0
C2062 C 0.39241 0.87314 0.136 0.0
C2063 C 0.41105 0.89475 0.13403 0.0
C2064 C 0.41463 0.90591 0.11726 0.0
H2065 H 0.48142 0.90664 0.23604 0.0
H2066 H 0.47051 0.92338 0.21139 0.0
C2067 C 0.40007 0.89536 0.10257 0.0
C2068 C 0.42816 0.90381 0.14871 0.0
H2069 H 0.43127 0.90288 0.19506 0.0
C2070 C 0.45 0.90851 0.14453 0.0
C2071 C 0.4222 0.90396 0.16717 0.0
C2072 C 0.39999 0.90165 0.17253 0.0
C2073 C 0.46488 0.91027 0.15836 0.0
C2074 C 0.45744 0.90661 0.17669 0.0
C2075 C 0.43683 0.90505 0.18097 0.0
C2076 C 0.4683 0.89979 0.1908 0.0
C2077 C 0.48791 0.91467 0.15307 0.0
C2078 C 0.47099 0.88121 0.18737 0.0
C2079 C 0.47716 0.87167 0.20132 0.0
C2080 C 0.48054 0.88028 0.21916 0.0
C2081 C 0.47894 0.89959 0.22245 0.0
C2082 C 0.47272 0.90919 0.20839 0.0
H2083 H 0.49451 0.92644 0.14133 0.0
H2084 H 0.49995 0.92179 0.16459 0.0
H2085 H 0.4868 0.89871 0.14868 0.0
H2086 H 0.46705 0.87319 0.17411 0.0
H2087 H 0.47835 0.8569 0.19824 0.0
H2088 H 0.02349 0.11297 0.12348 0.0
H2089 H 0.04617 0.09545 0.12971 0.0
H2090 H 0.10604 0.15741 0.1156 0.0
H2091 H 0.08347 0.17532 0.11073 0.0
H2092 H 0.06647 0.08683 0.10596 0.0
H2093 H 0.13135 0.1396 0.15596 0.0
H2094 H 0.1073 0.14281 0.15161 0.0
H2095 H 0.13188 0.15663 0.13729 0.0
C2096 C 0.04158 0.12297 0.1223 0.0
C2097 C 0.05181 0.14545 0.11669 0.0
C2098 C 0.05455 0.11298 0.12582 0.0
C2099 C 0.07794 0.12508 0.12329 0.0
C2100 C 0.0882 0.14783 0.11826 0.0
H2101 H 0.14895 0.06538 0.07732 0.0
H2102 H 0.13022 0.08645 0.08501 0.0
C2103 C 0.07527 0.15803 0.1153 0.0
C2104 C 0.09092 0.11309 0.12323 0.0
H2105 H 0.14074 0.11728 0.13581 0.0
C2106 C 0.08249 0.09335 0.11283 0.0
C2107 C 0.11175 0.12125 0.13234 0.0
C2108 C 0.12093 0.14109 0.14508 0.0
C2109 C 0.09458 0.08214 0.11066 0.0
C2110 C 0.11627 0.09143 0.11836 0.0
C2111 C 0.12434 0.11049 0.12953 0.0
C2112 C 0.1309 0.08189 0.1142 0.0
C2113 C 0.08392 0.06042 0.10002 0.0
C2114 C 0.13901 0.07378 0.12813 0.0
C2115 C 0.15031 0.06218 0.12374 0.0
C2116 C 0.15336 0.05841 0.10538 0.0
C2117 C 0.14648 0.06778 0.09157 0.0
C2118 C 0.13568 0.0797 0.09595 0.0
H2119 H 0.06531 0.05195 0.10054 0.0
H2120 H 0.089 0.06405 0.08548 0.0
H2121 H 0.08921 0.04867 0.10532 0.0
H2122 H 0.13569 0.07552 0.14231 0.0
H2123 H 0.15548 0.05509 0.13461 0.0
H2124 H 0.86842 0.91919 0.08652 0.0
H2125 H 0.88367 0.95876 0.09367 0.0
H2126 H 0.84027 0.94114 0.14057 0.0
H2127 H 0.8247 0.90118 0.13354 0.0
H2128 H 0.85584 0.98117 0.09821 0.0
H2129 H 0.90747 0.98593 0.15853 0.0
H2130 H 0.89927 0.96422 0.14151 0.0
H2131 H 0.87876 0.96346 0.157 0.0
C2132 C 0.86211 0.92359 0.09842 0.0
C2133 C 0.8453 0.90692 0.10946 0.0
C2134 C 0.87082 0.94626 0.10244 0.0
C2135 C 0.8631 0.95279 0.11764 0.0
C2136 C 0.84649 0.93634 0.12882 0.0
H2137 H 0.91407 0.09917 0.12289 0.0
H2138 H 0.88799 0.0592 0.12909 0.0
C2139 C 0.83762 0.91355 0.12476 0.0
C2140 C 0.87257 0.97698 0.12138 0.0
H2141 H 0.91265 0.01996 0.14672 0.0
C2142 C 0.86788 0.98969 0.10906 0.0
C2143 C 0.88826 0.98788 0.13554 0.0
C2144 C 0.89392 0.97482 0.14895 0.0
C2145 C 0.87943 0.01321 0.1099 0.0
C2146 C 0.89598 0.02421 0.1235 0.0
C2147 C 0.8998 0.01142 0.13643 0.0
C2148 C 0.91196 0.04863 0.1225 0.0
C2149 C 0.87501 0.02617 0.09545 0.0
C2150 C 0.93418 0.0559 0.11742 0.0
C2151 C 0.94895 0.0785 0.11385 0.0
C2152 C 0.94188 0.09439 0.11539 0.0
C2153 C 0.91997 0.08731 0.12154 0.0
C2154 C 0.90506 0.06451 0.12501 0.0
H2155 H 0.86327 0.01504 0.08476 0.0
H2156 H 0.8676 0.03556 0.10191 0.0
H2157 H 0.89097 0.03856 0.08881 0.0
H2158 H 0.93984 0.04392 0.11543 0.0
H2159 H 0.9658 0.08342 0.10937 0.0
H2160 H 0.90919 0.88492 0.09129 0.0
H2161 H 0.94915 0.90229 0.09733 0.0
H2162 H 0.93809 0.84373 0.12734 0.0
H2163 H 0.89766 0.82584 0.12118 0.0
H2164 H 0.97215 0.91187 0.13128 0.0
H2165 H 0.98563 0.85271 0.08841 0.0
H2166 H 0.96047 0.85463 0.08674 0.0
H2167 H 0.96449 0.84078 0.1059 0.0
C2168 C 0.91509 0.87559 0.09919 0.0
C2169 C 0.90012 0.85383 0.10562 0.0
C2170 C 0.93801 0.88565 0.10268 0.0
C2171 C 0.9466 0.87423 0.11262 0.0
C2172 C 0.93179 0.85269 0.11942 0.0
H2173 H 0.09154 0.92408 0.12085 0.0
H2174 H 0.05126 0.90174 0.12709 0.0
C2175 C 0.9087 0.84255 0.11595 0.0
C2176 C 0.97118 0.88509 0.11535 0.0
H2177 H 0.01755 0.8837 0.10069 0.0
C2178 C 0.98208 0.90556 0.12482 0.0
C2179 C 0.98407 0.87677 0.10697 0.0
C2180 C 0.9732 0.8551 0.09632 0.0
C2181 C 0.00558 0.91834 0.12557 0.0
C2182 C 0.01848 0.91062 0.11635 0.0
C2183 C 0.0076 0.88959 0.1077 0.0
C2184 C 0.04308 0.92494 0.11404 0.0
C2185 C 0.01637 0.94021 0.13594 0.0
C2186 C 0.05183 0.94539 0.10465 0.0
C2187 C 0.07478 0.95816 0.10103 0.0
C2188 C 0.08951 0.95071 0.10663 0.0
C2189 C 0.08073 0.93039 0.11638 0.0
C2190 C 0.05771 0.91757 0.11994 0.0
H2191 H 0.00506 0.94022 0.14676 0.0
H2192 H 0.0324 0.94359 0.14231 0.0
H2193 H 0.01999 0.95412 0.12636 0.0
H2194 H 0.04079 0.95117 0.09963 0.0
H2195 H 0.08087 0.97367 0.09347 0.0
H2196 H 0.06613 0.15512 0.40313 0.0
H2197 H 0.08872 0.13792 0.39574 0.0
H2198 H 0.07109 0.13529 0.33887 0.0
H2199 H 0.04936 0.15377 0.34624 0.0
H2200 H 0.0708 0.09713 0.38347 0.0
H2201 H 0.13623 0.15339 0.33434 0.0
H2202 H 0.11998 0.1623 0.34762 0.0
H2203 H 0.10817 0.14543 0.32751 0.0
C2204 C 0.06762 0.15141 0.38899 0.0
C2205 C 0.05611 0.15569 0.37523 0.0
C2206 C 0.08046 0.14156 0.38477 0.0
C2207 C 0.08165 0.1353 0.36674 0.0
C2208 C 0.07084 0.14038 0.3528 0.0
H2209 H 0.11079 0.0261 0.35758 0.0
H2210 H 0.09318 0.04896 0.35241 0.0
C2211 C 0.05835 0.15081 0.35701 0.0
C2212 C 0.09195 0.12116 0.36325 0.0
H2213 H 0.13251 0.11749 0.33916 0.0
C2214 C 0.08433 0.10164 0.37378 0.0
C2215 C 0.1096 0.12704 0.35063 0.0
C2216 C 0.11915 0.14829 0.33949 0.0
C2217 C 0.09422 0.08821 0.37253 0.0
C2218 C 0.11158 0.09377 0.35965 0.0
C2219 C 0.119 0.11308 0.34883 0.0
C2220 C 0.12319 0.08055 0.35837 0.0
C2221 C 0.0866 0.06883 0.38569 0.0
C2222 C 0.14633 0.0909 0.36182 0.0
C2223 C 0.15657 0.0779 0.36415 0.0
C2224 C 0.1437 0.0544 0.36335 0.0
C2225 C 0.12096 0.0442 0.35852 0.0
C2226 C 0.11089 0.05723 0.35568 0.0
H2227 H 0.07786 0.07073 0.39772 0.0
H2228 H 0.07463 0.053 0.37869 0.0
H2229 H 0.101 0.06727 0.39067 0.0
H2230 H 0.15619 0.10888 0.36382 0.0
H2231 H 0.17415 0.08614 0.36788 0.0
H2232 H 0.97151 0.08264 0.38376 0.0
H2233 H 0.94937 0.0429 0.37624 0.0
H2234 H 0.89746 0.05334 0.35365 0.0
H2235 H 0.91949 0.09332 0.36124 0.0
H2236 H 0.88198 0.01831 0.37917 0.0
H2237 H 0.9356 0.00961 0.32739 0.0
H2238 H 0.951 0.02411 0.34744 0.0
H2239 H 0.93851 0.03641 0.33341 0.0
C2240 C 0.95552 0.07663 0.37699 0.0
C2241 C 0.9473 0.09124 0.37315 0.0
C2242 C 0.94295 0.05389 0.37256 0.0
C2243 C 0.92192 0.04522 0.36415 0.0
C2244 C 0.91375 0.05975 0.36 0.0
H2245 H 0.82618 0.89864 0.35941 0.0
H2246 H 0.84193 0.93864 0.35229 0.0
C2247 C 0.9264 0.08259 0.36433 0.0
C2248 C 0.90785 0.02069 0.36124 0.0
H2249 H 0.90954 0.97577 0.34335 0.0
C2250 C 0.88767 0.00897 0.371 0.0
C2251 C 0.9153 0.00861 0.3505 0.0
C2252 C 0.93618 0.02035 0.33894 0.0
C2253 C 0.87563 0.9854 0.37143 0.0
C2254 C 0.88386 0.97332 0.36159 0.0
C2255 C 0.90329 0.98507 0.35092 0.0
C2256 C 0.87442 0.94886 0.3642 0.0
C2257 C 0.85508 0.97365 0.38338 0.0
C2258 C 0.88768 0.94133 0.3727 0.0
C2259 C 0.87883 0.91866 0.37671 0.0
C2260 C 0.85647 0.90289 0.37228 0.0
C2261 C 0.84341 0.91033 0.3631 0.0
C2262 C 0.85234 0.93318 0.3591 0.0
H2263 H 0.85281 0.98557 0.39211 0.0
H2264 H 0.83997 0.96451 0.37466 0.0
H2265 H 0.85615 0.96118 0.39231 0.0
H2266 H 0.90477 0.95313 0.37671 0.0
H2267 H 0.88951 0.91359 0.38361 0.0
H2268 H 0.10138 0.91729 0.35655 0.0
H2269 H 0.06204 0.89103 0.34842 0.0
H2270 H 0.04511 0.94214 0.36047 0.0
H2271 H 0.08391 0.96821 0.36834 0.0
H2272 H 0.02695 0.87713 0.37272 0.0
H2273 H 0.01106 0.91648 0.31343 0.0
H2274 H 0.03907 0.92374 0.32043 0.0
H2275 H 0.02488 0.93676 0.33116 0.0
C2276 C 0.08931 0.92301 0.35702 0.0
C2277 C 0.0957 0.94475 0.3632 0.0
C2278 C 0.06689 0.90802 0.3524 0.0
C2279 C 0.05072 0.91474 0.35356 0.0
C2280 C 0.05734 0.93672 0.35903 0.0
H2281 H 0.92247 0.8811 0.38112 0.0
H2282 H 0.96133 0.89568 0.37176 0.0
C2283 C 0.07954 0.95155 0.36374 0.0
C2284 C 0.02646 0.89847 0.35144 0.0
H2285 H 0.97886 0.8946 0.33357 0.0
C2286 C 0.01641 0.88043 0.36373 0.0
C2287 C 0.01274 0.90275 0.33966 0.0
C2288 C 0.02256 0.92087 0.3253 0.0
C2289 C 0.993 0.86794 0.36574 0.0
C2290 C 0.97944 0.87364 0.35512 0.0
C2291 C 0.98937 0.89044 0.34181 0.0
C2292 C 0.95548 0.86463 0.35948 0.0
C2293 C 0.98297 0.84993 0.38018 0.0
C2294 C 0.9393 0.8424 0.35543 0.0
C2295 C 0.91695 0.83396 0.36073 0.0
C2296 C 0.91052 0.84762 0.37028 0.0
C2297 C 0.92681 0.87004 0.37393 0.0
C2298 C 0.94902 0.87845 0.36852 0.0
H2299 H 0.99596 0.84825 0.38788 0.0
H2300 H 0.97301 0.85376 0.38996 0.0
H2301 H 0.9714 0.83357 0.37369 0.0
H2302 H 0.94403 0.83154 0.34838 0.0
H2303 H 0.90484 0.81663 0.35768 0.0
H2304 H 0.91153 0.81998 0.85955 0.0
H2305 H 0.88816 0.83664 0.85233 0.0
H2306 H 0.93793 0.89922 0.87623 0.0
H2307 H 0.96133 0.88296 0.88332 0.0
H2308 H 0.8708 0.85393 0.87802 0.0
H2309 H 0.92376 0.91963 0.82833 0.0
H2310 H 0.92789 0.8963 0.83365 0.0
H2311 H 0.9394 0.92062 0.84824 0.0
C2312 C 0.91766 0.83741 0.86297 0.0
C2313 C 0.9383 0.85011 0.87206 0.0
C2314 C 0.90427 0.84687 0.85885 0.0
C2315 C 0.91146 0.86926 0.86349 0.0
C2316 C 0.93226 0.88207 0.87215 0.0
H2317 H 0.87644 0.96379 0.8907 0.0
H2318 H 0.89156 0.93971 0.88254 0.0
C2319 C 0.94555 0.87265 0.87635 0.0
C2320 C 0.89666 0.87896 0.86093 0.0
H2321 H 0.8976 0.92629 0.84573 0.0
C2322 C 0.87629 0.86942 0.87054 0.0
C2323 C 0.90382 0.89909 0.85108 0.0
C2324 C 0.92481 0.90937 0.83959 0.0
C2325 C 0.86386 0.8805 0.87182 0.0
C2326 C 0.87198 0.9015 0.86312 0.0
C2327 C 0.89149 0.91022 0.85246 0.0
C2328 C 0.86244 0.91612 0.86712 0.0
C2329 C 0.84303 0.87055 0.88351 0.0
C2330 C 0.84105 0.91092 0.86098 0.0
C2331 C 0.83224 0.92476 0.86563 0.0
C2332 C 0.84469 0.94392 0.87657 0.0
C2333 C 0.86625 0.94912 0.8824 0.0
C2334 C 0.87501 0.93542 0.87768 0.0
H2335 H 0.84 0.85497 0.89055 0.0
H2336 H 0.84444 0.8829 0.89394 0.0
H2337 H 0.82825 0.8665 0.87486 0.0
H2338 H 0.83117 0.89616 0.85268 0.0
H2339 H 0.81562 0.92031 0.86088 0.0
H2340 H 0.11108 0.07592 0.88494 0.0
H2341 H 0.09534 0.03633 0.87769 0.0
H2342 H 0.15705 0.05067 0.85121 0.0
H2343 H 0.1732 0.09063 0.85852 0.0
H2344 H 0.09073 0.01478 0.84224 0.0
H2345 H 0.14565 0.00264 0.89143 0.0
H2346 H 0.14179 0.0267 0.89271 0.0
H2347 H 0.15854 0.02482 0.87482 0.0
C2348 C 0.12137 0.07079 0.87751 0.0
C2349 C 0.14351 0.08648 0.87246 0.0
C2350 C 0.11228 0.04812 0.87331 0.0
C2351 C 0.12511 0.04059 0.86408 0.0
C2352 C 0.14699 0.05618 0.85852 0.0
H2353 H 0.07284 0.89424 0.86253 0.0
H2354 H 0.09764 0.93376 0.85414 0.0
C2355 C 0.15613 0.07899 0.86265 0.0
C2356 C 0.11544 0.01622 0.86105 0.0
H2357 H 0.11538 0.97037 0.87889 0.0
C2358 C 0.09639 0.00506 0.84993 0.0
C2359 C 0.123 0.00365 0.871 0.0
C2360 C 0.14331 0.01492 0.88325 0.0
C2361 C 0.08389 0.98156 0.84933 0.0
C2362 C 0.09042 0.96898 0.8604 0.0
C2363 C 0.11041 0.9801 0.87046 0.0
C2364 C 0.07508 0.9448 0.86391 0.0
C2365 C 0.06328 0.97042 0.83741 0.0
C2366 C 0.05434 0.93804 0.87226 0.0
C2367 C 0.04031 0.9157 0.87715 0.0
C2368 C 0.04671 0.89954 0.87385 0.0
C2369 C 0.06738 0.90625 0.86519 0.0
C2370 C 0.08156 0.92878 0.8604 0.0
H2371 H 0.06484 0.98116 0.82554 0.0
H2372 H 0.06022 0.95392 0.83232 0.0
H2373 H 0.04847 0.96766 0.84547 0.0
H2374 H 0.04923 0.9502 0.87546 0.0
H2375 H 0.02451 0.91119 0.88373 0.0
H2376 H 0.91322 0.02971 0.88852 0.0
H2377 H 0.95291 0.05259 0.88112 0.0
H2378 H 0.93981 0.09955 0.85245 0.0
H2379 H 0.89983 0.0768 0.85992 0.0
H2380 H 0.97491 0.0674 0.84611 0.0
H2381 H 0.98771 0.1378 0.89165 0.0
H2382 H 0.96318 0.11026 0.89337 0.0
H2383 H 0.96593 0.12832 0.8747 0.0
C2384 C 0.91865 0.04484 0.88057 0.0
C2385 C 0.9033 0.0515 0.87498 0.0
C2386 C 0.94137 0.05785 0.8763 0.0
C2387 C 0.94928 0.07785 0.86643 0.0
C2388 C 0.93402 0.08429 0.86029 0.0
H2389 H 0.09523 0.17254 0.86109 0.0
H2390 H 0.05532 0.15644 0.85353 0.0
C2391 C 0.91118 0.07121 0.86451 0.0
C2392 C 0.9737 0.09212 0.86334 0.0
H2393 H 0.01978 0.13938 0.8791 0.0
C2394 C 0.98472 0.08335 0.85303 0.0
C2395 C 0.98641 0.11299 0.87229 0.0
C2396 C 0.97534 0.12298 0.88372 0.0
C2397 C 0.00821 0.09436 0.85219 0.0
C2398 C 0.02094 0.11442 0.86218 0.0
C2399 C 0.00993 0.12397 0.87149 0.0
C2400 C 0.04529 0.12393 0.86528 0.0
C2401 C 0.0192 0.08403 0.84109 0.0
C2402 C 0.05276 0.11102 0.87448 0.0
C2403 C 0.07535 0.12012 0.87889 0.0
C2404 C 0.09105 0.14243 0.87426 0.0
C2405 C 0.0836 0.15529 0.86479 0.0
C2406 C 0.06084 0.14615 0.86047 0.0
H2407 H 0.00817 0.07369 0.82974 0.0
H2408 H 0.03547 0.0971 0.83533 0.0
H2409 H 0.02239 0.07287 0.85 0.0
H2410 H 0.04098 0.09401 0.87869 0.0
H2411 H 0.08042 0.10966 0.88614 0.0
H2412 H 0.96398 0.87902 0.61369 0.0
H2413 H 0.93866 0.89207 0.62317 0.0
H2414 H 0.88844 0.82442 0.63735 0.0
H2415 H 0.91396 0.81101 0.62766 0.0
H2416 H 0.87308 0.84585 0.61397 0.0
H2417 H 0.91696 0.90107 0.67236 0.0
H2418 H 0.9359 0.90686 0.65366 0.0
H2419 H 0.92303 0.87975 0.66455 0.0
C2420 C 0.94767 0.86687 0.61904 0.0
C2421 C 0.9409 0.84393 0.61979 0.0
C2422 C 0.9333 0.87443 0.62467 0.0
C2423 C 0.91181 0.85929 0.63126 0.0
C2424 C 0.90509 0.8364 0.63251 0.0
H2425 H 0.81546 0.9092 0.63091 0.0
H2426 H 0.82984 0.88439 0.63992 0.0
C2427 C 0.91965 0.82878 0.62699 0.0
C2428 C 0.89591 0.86749 0.63461 0.0
H2429 H 0.89416 0.91176 0.65381 0.0
C2430 C 0.87716 0.85976 0.62313 0.0
C2431 C 0.90125 0.88557 0.64662 0.0
C2432 C 0.92027 0.89362 0.66013 0.0
C2433 C 0.86498 0.87109 0.62204 0.0
C2434 C 0.87169 0.89046 0.63283 0.0
C2435 C 0.8892 0.897 0.64544 0.0
C2436 C 0.86314 0.90597 0.62915 0.0
C2437 C 0.84623 0.86345 0.60829 0.0
C2438 C 0.87729 0.92648 0.62054 0.0
C2439 C 0.86919 0.94061 0.61534 0.0
C2440 C 0.84675 0.93457 0.61874 0.0
C2441 C 0.83281 0.91435 0.62804 0.0
C2442 C 0.84095 0.90012 0.63316 0.0
H2443 H 0.84418 0.849 0.60003 0.0
H2444 H 0.83021 0.85837 0.6155 0.0
H2445 H 0.84948 0.87746 0.59894 0.0
H2446 H 0.89449 0.93127 0.61735 0.0
H2447 H 0.88046 0.95611 0.60835 0.0
H2448 H 0.02101 0.90978 0.62393 0.0
H2449 H 0.04286 0.9504 0.62869 0.0
H2450 H 0.10331 0.94998 0.61374 0.0
H2451 H 0.08166 0.90912 0.61018 0.0
H2452 H 0.11271 0.98156 0.63845 0.0
H2453 H 0.06031 0.98849 0.58421 0.0
H2454 H 0.0442 0.97348 0.60379 0.0
H2455 H 0.05807 0.96211 0.59028 0.0
C2456 C 0.03905 0.91836 0.6221 0.0
C2457 C 0.04969 0.90648 0.61651 0.0
C2458 C 0.05149 0.94155 0.62467 0.0
C2459 C 0.0746 0.95336 0.62091 0.0
C2460 C 0.08547 0.94127 0.61657 0.0
H2461 H 0.14275 0.08687 0.57808 0.0
H2462 H 0.12545 0.04678 0.58417 0.0
C2463 C 0.07311 0.91795 0.61453 0.0
C2464 C 0.08701 0.97824 0.61983 0.0
H2465 H 0.08669 0.0221 0.59844 0.0
C2466 C 0.10707 0.99048 0.6297 0.0
C2467 C 0.07985 0.98984 0.60813 0.0
C2468 C 0.05958 0.9778 0.59586 0.0
C2469 C 0.12023 0.01395 0.62808 0.0
C2470 C 0.11271 0.02552 0.61674 0.0
C2471 C 0.09246 0.01327 0.60717 0.0
C2472 C 0.12587 0.05013 0.6136 0.0
C2473 C 0.1424 0.02592 0.63798 0.0
C2474 C 0.13246 0.06553 0.62811 0.0
C2475 C 0.14294 0.08863 0.62461 0.0
C2476 C 0.14633 0.09652 0.60656 0.0
C2477 C 0.14014 0.08116 0.59212 0.0
C2478 C 0.13025 0.05826 0.5956 0.0
H2479 H 0.14859 0.01428 0.64161 0.0
H2480 H 0.15537 0.03978 0.62959 0.0
H2481 H 0.14026 0.03316 0.65084 0.0
H2482 H 0.1288 0.05971 0.64209 0.0
H2483 H 0.14742 0.10019 0.63596 0.0
H2484 H 0.89525 0.07058 0.62738 0.0
H2485 H 0.93497 0.09628 0.63445 0.0
H2486 H 0.95183 0.04828 0.61283 0.0
H2487 H 0.91257 0.02256 0.60606 0.0
H2488 H 0.97469 0.06889 0.64526 0.0
H2489 H 0.98037 0.13107 0.5936 0.0
H2490 H 0.95977 0.1233 0.61138 0.0
H2491 H 0.95666 0.10294 0.59459 0.0
C2492 C 0.9074 0.06541 0.62436 0.0
C2493 C 0.90073 0.04462 0.61593 0.0
C2494 C 0.93008 0.08016 0.62831 0.0
C2495 C 0.94634 0.07429 0.62389 0.0
C2496 C 0.93956 0.05317 0.6163 0.0
H2497 H 0.07891 0.11268 0.60098 0.0
H2498 H 0.03951 0.0952 0.60964 0.0
C2499 C 0.91706 0.03851 0.61235 0.0
C2500 C 0.97065 0.09028 0.62602 0.0
H2501 H 0.014 0.13654 0.60614 0.0
C2502 C 0.98328 0.08394 0.63699 0.0
C2503 C 0.9818 0.10994 0.61525 0.0
C2504 C 0.96908 0.11727 0.60293 0.0
C2505 C 0.0068 0.09606 0.63672 0.0
C2506 C 0.01792 0.11481 0.62504 0.0
C2507 C 0.00535 0.12208 0.61504 0.0
C2508 C 0.04223 0.12537 0.62126 0.0
C2509 C 0.01957 0.08825 0.64847 0.0
C2510 C 0.05678 0.14823 0.62473 0.0
C2511 C 0.07941 0.15835 0.61977 0.0
C2512 C 0.08776 0.14582 0.61098 0.0
C2513 C 0.07309 0.12286 0.60768 0.0
C2514 C 0.05058 0.11277 0.61277 0.0
H2515 H 0.00948 0.07853 0.66044 0.0
H2516 H 0.02357 0.07712 0.64029 0.0
H2517 H 0.03558 0.10266 0.65337 0.0
H2518 H 0.05056 0.15826 0.6311 0.0
H2519 H 0.09022 0.17608 0.62245 0.0
H2520 H 0.78421 0.3701 0.43839 0.0
H2521 H 0.77089 0.39574 0.44608 0.0
H2522 H 0.83488 0.44142 0.47035 0.0
H2523 H 0.8487 0.41571 0.46242 0.0
H2524 H 0.76804 0.41387 0.48031 0.0
H2525 H 0.82537 0.47938 0.43101 0.0
H2526 H 0.82055 0.45109 0.43019 0.0
H2527 H 0.83742 0.46972 0.44806 0.0
C2528 C 0.79556 0.38555 0.44541 0.0
C2529 C 0.81767 0.39097 0.44957 0.0
C2530 C 0.78782 0.40014 0.4499 0.0
C2531 C 0.80195 0.42056 0.45861 0.0
C2532 C 0.82381 0.42583 0.46342 0.0
H2533 H 0.75451 0.51845 0.45882 0.0
H2534 H 0.77789 0.5024 0.46786 0.0
C2535 C 0.83162 0.41109 0.45895 0.0
C2536 C 0.79358 0.43637 0.46162 0.0
H2537 H 0.79561 0.48275 0.44285 0.0
C2538 C 0.77439 0.42924 0.47248 0.0
C2539 C 0.80196 0.45645 0.45145 0.0
C2540 C 0.8224 0.46471 0.43943 0.0
C2541 C 0.76246 0.44083 0.47244 0.0
C2542 C 0.76981 0.45986 0.46112 0.0
C2543 C 0.79001 0.46807 0.45145 0.0
C2544 C 0.75521 0.4694 0.45706 0.0
C2545 C 0.7415 0.43204 0.48387 0.0
C2546 C 0.73486 0.45617 0.4479 0.0
C2547 C 0.72162 0.46526 0.44258 0.0
C2548 C 0.72845 0.48782 0.44632 0.0
C2549 C 0.74872 0.50099 0.45579 0.0
C2550 C 0.7621 0.49188 0.46097 0.0
H2551 H 0.74202 0.42226 0.49574 0.0
H2552 H 0.73914 0.44594 0.48891 0.0
H2553 H 0.72674 0.42071 0.47541 0.0
H2554 H 0.72946 0.43889 0.44445 0.0
H2555 H 0.70611 0.45461 0.43537 0.0
H2556 H 0.55507 0.25252 0.43189 0.0
H2557 H 0.57331 0.2927 0.43793 0.0
H2558 H 0.51435 0.28328 0.46631 0.0
H2559 H 0.49578 0.2429 0.46027 0.0
H2560 H 0.53047 0.31715 0.43931 0.0
H2561 H 0.59885 0.3281 0.48551 0.0
H2562 H 0.59707 0.31266 0.46522 0.0
H2563 H 0.57427 0.3011 0.48132 0.0
C2564 C 0.546 0.25887 0.4396 0.0
C2565 C 0.52391 0.2444 0.44557 0.0
C2566 C 0.55654 0.28187 0.44315 0.0
C2567 C 0.54529 0.29093 0.45278 0.0
C2568 C 0.52337 0.27658 0.45898 0.0
H2569 H 0.59528 0.4374 0.45774 0.0
H2570 H 0.5718 0.39729 0.46487 0.0
C2571 C 0.51282 0.2535 0.45553 0.0
C2572 C 0.55601 0.31557 0.4551 0.0
H2573 H 0.60413 0.36126 0.47006 0.0
C2574 C 0.54634 0.32685 0.44636 0.0
C2575 C 0.57664 0.32811 0.46438 0.0
C2576 C 0.58722 0.31687 0.4748 0.0
C2577 C 0.55757 0.3504 0.44554 0.0
C2578 C 0.57882 0.36293 0.45395 0.0
C2579 C 0.58785 0.35163 0.46358 0.0
C2580 C 0.59322 0.3874 0.4509 0.0
C2581 C 0.54729 0.36165 0.4347 0.0
C2582 C 0.61327 0.39515 0.44116 0.0
C2583 C 0.62666 0.41788 0.43715 0.0
C2584 C 0.62038 0.43352 0.44283 0.0
C2585 C 0.60056 0.42582 0.45308 0.0
C2586 C 0.58707 0.40291 0.45708 0.0
H2587 H 0.53238 0.34941 0.42679 0.0
H2588 H 0.54197 0.37071 0.44415 0.0
H2589 H 0.55979 0.37412 0.42509 0.0
H2590 H 0.61835 0.38349 0.43629 0.0
H2591 H 0.64187 0.4231 0.42937 0.0
H2592 H 0.75664 0.24997 0.44879 0.0
H2593 H 0.71587 0.22697 0.45237 0.0
H2594 H 0.71114 0.28699 0.45685 0.0
H2595 H 0.75168 0.30998 0.45224 0.0
H2596 H 0.68353 0.22075 0.47614 0.0
H2597 H 0.67368 0.25861 0.41255 0.0
H2598 H 0.70062 0.26371 0.42041 0.0
H2599 H 0.68821 0.2791 0.42998 0.0
C2600 C 0.7469 0.25821 0.45084 0.0
C2601 C 0.75717 0.2817 0.44993 0.0
C2602 C 0.72363 0.24507 0.45289 0.0
C2603 C 0.71038 0.25526 0.45433 0.0
C2604 C 0.72094 0.27877 0.45514 0.0
H2605 H 0.56481 0.18522 0.47187 0.0
H2606 H 0.60547 0.20388 0.47717 0.0
C2607 C 0.74409 0.29188 0.45262 0.0
C2608 C 0.68556 0.24145 0.45335 0.0
H2609 H 0.64056 0.23485 0.42882 0.0
C2610 C 0.67408 0.22374 0.46578 0.0
C2611 C 0.6733 0.24508 0.43956 0.0
C2612 C 0.68459 0.26249 0.42476 0.0
C2613 C 0.65065 0.20967 0.46485 0.0
C2614 C 0.63837 0.21386 0.45146 0.0
C2615 C 0.64991 0.23163 0.43913 0.0
C2616 C 0.61364 0.19988 0.44934 0.0
C2617 C 0.63945 0.19013 0.47786 0.0
C2618 C 0.60465 0.19141 0.43202 0.0
C2619 C 0.58167 0.18148 0.42891 0.0
C2620 C 0.56713 0.1793 0.44316 0.0
C2621 C 0.57578 0.1865 0.46076 0.0
C2622 C 0.59897 0.19703 0.46379 0.0
H2623 H 0.65151 0.18526 0.48324 0.0
H2624 H 0.63266 0.19498 0.48965 0.0
H2625 H 0.62536 0.17529 0.47117 0.0
H2626 H 0.61556 0.19332 0.42066 0.0
H2627 H 0.57528 0.17602 0.41522 0.0
H2628 H 0.84963 0.41909 0.69407 0.0
H2629 H 0.83354 0.44264 0.68563 0.0
H2630 H 0.77044 0.39431 0.7097 0.0
H2631 H 0.78613 0.37072 0.71806 0.0
H2632 H 0.76792 0.41195 0.67381 0.0
H2633 H 0.81912 0.47798 0.72505 0.0
H2634 H 0.83319 0.46923 0.70913 0.0
H2635 H 0.81543 0.45013 0.72639 0.0
C2636 C 0.83227 0.41339 0.69741 0.0
C2637 C 0.81924 0.3931 0.7069 0.0
C2638 C 0.82316 0.4269 0.69264 0.0
C2639 C 0.8009 0.42027 0.69721 0.0
C2640 C 0.78768 0.39972 0.70608 0.0
H2641 H 0.69801 0.44617 0.71288 0.0
H2642 H 0.72353 0.43276 0.70493 0.0
C2643 C 0.79674 0.3863 0.71093 0.0
C2644 C 0.79123 0.43485 0.69363 0.0
H2645 H 0.78928 0.47971 0.71136 0.0
C2646 C 0.77289 0.42706 0.6817 0.0
C2647 C 0.79789 0.45465 0.70382 0.0
C2648 C 0.81742 0.46359 0.7169 0.0
C2649 C 0.76016 0.43779 0.68054 0.0
C2650 C 0.76569 0.45649 0.69187 0.0
C2651 C 0.78506 0.46532 0.70273 0.0
C2652 C 0.74979 0.46477 0.69485 0.0
C2653 C 0.74035 0.42846 0.66775 0.0
C2654 C 0.75618 0.48738 0.69205 0.0
C2655 C 0.74153 0.49523 0.69667 0.0
C2656 C 0.72047 0.48062 0.70449 0.0
C2657 C 0.71411 0.45794 0.70697 0.0
C2658 C 0.72861 0.45014 0.70224 0.0
H2659 H 0.74299 0.41999 0.65587 0.0
H2660 H 0.72517 0.41577 0.6751 0.0
H2661 H 0.73719 0.44184 0.66268 0.0
H2662 H 0.77259 0.49899 0.68655 0.0
H2663 H 0.74696 0.5128 0.69465 0.0
H2664 H 0.5501 0.24569 0.72448 0.0
H2665 H 0.56494 0.28469 0.71579 0.0
H2666 H 0.50541 0.26649 0.68421 0.0
H2667 H 0.49015 0.22697 0.69289 0.0
H2668 H 0.57125 0.30314 0.67784 0.0
H2669 H 0.5131 0.31717 0.72169 0.0
H2670 H 0.51826 0.29431 0.72605 0.0
H2671 H 0.50187 0.29323 0.70667 0.0
C2672 C 0.54003 0.24983 0.71569 0.0
C2673 C 0.51881 0.23313 0.70949 0.0
C2674 C 0.54864 0.27217 0.71067 0.0
C2675 C 0.53622 0.27844 0.69945 0.0
C2676 C 0.51515 0.26193 0.69299 0.0
H2677 H 0.58475 0.4234 0.69097 0.0
H2678 H 0.56148 0.38335 0.68376 0.0
C2679 C 0.50652 0.2394 0.69793 0.0
C2680 C 0.54559 0.30247 0.69508 0.0
H2681 H 0.54421 0.34895 0.70936 0.0
C2682 C 0.56508 0.31314 0.68438 0.0
C2683 C 0.53738 0.3154 0.70352 0.0
C2684 C 0.51653 0.30461 0.71519 0.0
C2685 C 0.57733 0.33659 0.68277 0.0
C2686 C 0.57012 0.34965 0.69243 0.0
C2687 C 0.54974 0.33889 0.70203 0.0
C2688 C 0.58491 0.37417 0.69486 0.0
C2689 C 0.59829 0.34718 0.67124 0.0
C2690 C 0.60575 0.38225 0.70346 0.0
C2691 C 0.61898 0.40496 0.70764 0.0
C2692 C 0.61163 0.42018 0.70341 0.0
C2693 C 0.59096 0.41217 0.69435 0.0
C2694 C 0.57763 0.3893 0.69024 0.0
H2695 H 0.59717 0.33578 0.66003 0.0
H2696 H 0.60142 0.36331 0.66523 0.0
H2697 H 0.61288 0.3505 0.67988 0.0
H2698 H 0.61148 0.37082 0.70754 0.0
H2699 H 0.63479 0.41049 0.71459 0.0
H2700 H 0.57622 0.15649 0.69538 0.0
H2701 H 0.6163 0.17403 0.6882 0.0
H2702 H 0.62811 0.23503 0.71451 0.0
H2703 H 0.5883 0.21789 0.72161 0.0
H2704 H 0.6504 0.24101 0.6798 0.0
H2705 H 0.66435 0.18645 0.72801 0.0
H2706 H 0.64266 0.17298 0.71111 0.0
H2707 H 0.63949 0.18896 0.72901 0.0
C2708 C 0.58731 0.1737 0.69952 0.0
C2709 C 0.57902 0.1857 0.70923 0.0
C2710 C 0.61021 0.18364 0.69547 0.0
C2711 C 0.62515 0.20571 0.70103 0.0
C2712 C 0.61683 0.21794 0.71015 0.0
H2713 H 0.75598 0.30727 0.71914 0.0
H2714 H 0.71663 0.28292 0.71168 0.0
C2715 C 0.59405 0.20806 0.71425 0.0
C2716 C 0.64963 0.21613 0.69807 0.0
H2717 H 0.69615 0.21649 0.7147 0.0
C2718 C 0.66041 0.23544 0.68716 0.0
C2719 C 0.6626 0.2087 0.70759 0.0
C2720 C 0.65182 0.18821 0.71969 0.0
C2721 C 0.68389 0.24814 0.68622 0.0
C2722 C 0.69687 0.24157 0.69672 0.0
C2723 C 0.68612 0.22148 0.70668 0.0
C2724 C 0.72122 0.2568 0.69961 0.0
C2725 C 0.69458 0.26888 0.67442 0.0
C2726 C 0.73692 0.25008 0.6955 0.0
C2727 C 0.75965 0.26404 0.69983 0.0
C2728 C 0.76688 0.28474 0.70862 0.0
C2729 C 0.75105 0.29143 0.71244 0.0
C2730 C 0.72852 0.27762 0.70802 0.0
H2731 H 0.68345 0.26742 0.66289 0.0
H2732 H 0.69754 0.28359 0.68275 0.0
H2733 H 0.71093 0.27207 0.66886 0.0
H2734 H 0.73155 0.23395 0.68918 0.0
H2735 H 0.77139 0.25835 0.69678 0.0
H2736 H 0.62635 0.21938 0.22072 0.0
H2737 H 0.60316 0.23547 0.21222 0.0
H2738 H 0.55621 0.1737 0.18558 0.0
H2739 H 0.57935 0.1572 0.19414 0.0
H2740 H 0.58756 0.2399 0.17601 0.0
H2741 H 0.51868 0.18606 0.22428 0.0
H2742 H 0.54641 0.18963 0.22643 0.0
H2743 H 0.52829 0.1728 0.20831 0.0
C2744 C 0.61116 0.20915 0.21299 0.0
C2745 C 0.60463 0.18689 0.20826 0.0
C2746 C 0.59797 0.21844 0.20808 0.0
C2747 C 0.57792 0.2057 0.19843 0.0
C2748 C 0.57155 0.1837 0.1932 0.0
H2749 H 0.48563 0.25994 0.1939 0.0
H2750 H 0.4999 0.23467 0.18579 0.0
C2751 C 0.58484 0.17436 0.19804 0.0
C2752 C 0.56354 0.21557 0.19467 0.0
H2753 H 0.51762 0.21651 0.21108 0.0
C2754 C 0.57199 0.23451 0.18335 0.0
C2755 C 0.54315 0.20835 0.20414 0.0
C2756 C 0.5335 0.18816 0.21655 0.0
C2757 C 0.56129 0.24726 0.18213 0.0
C2758 C 0.54193 0.24111 0.19277 0.0
C2759 C 0.53251 0.2212 0.20298 0.0
C2760 C 0.53347 0.25684 0.19584 0.0
C2761 C 0.57135 0.26775 0.17004 0.0
C2762 C 0.54757 0.27752 0.20422 0.0
C2763 C 0.53951 0.29179 0.20896 0.0
C2764 C 0.51707 0.2857 0.20548 0.0
C2765 C 0.50301 0.26515 0.19669 0.0
C2766 C 0.51111 0.25071 0.19207 0.0
H2767 H 0.58063 0.26583 0.15842 0.0
H2768 H 0.55825 0.2711 0.16459 0.0
H2769 H 0.58346 0.28255 0.1781 0.0
H2770 H 0.56473 0.28237 0.20763 0.0
H2771 H 0.55086 0.30751 0.21562 0.0
H2772 H 0.84157 0.42807 0.19644 0.0
H2773 H 0.82421 0.38801 0.18908 0.0
H2774 H 0.76155 0.37663 0.21174 0.0
H2775 H 0.77853 0.41634 0.21903 0.0
H2776 H 0.80472 0.35279 0.21494 0.0
H2777 H 0.74262 0.3434 0.16273 0.0
H2778 H 0.76647 0.37028 0.16862 0.0
H2779 H 0.74158 0.3582 0.18253 0.0
C2780 C 0.824 0.41709 0.1996 0.0
C2781 C 0.81146 0.42543 0.20837 0.0
C2782 C 0.81414 0.39422 0.1954 0.0
C2783 C 0.79152 0.37944 0.19962 0.0
C2784 C 0.7789 0.38782 0.20802 0.0
H2785 H 0.69211 0.24985 0.22194 0.0
H2786 H 0.71711 0.28903 0.21426 0.0
C2787 C 0.78873 0.41054 0.21233 0.0
C2788 C 0.78129 0.35494 0.19677 0.0
H2789 H 0.73435 0.30983 0.17952 0.0
C2790 C 0.78967 0.34335 0.20682 0.0
C2791 C 0.76173 0.34273 0.1861 0.0
C2792 C 0.7527 0.35432 0.17423 0.0
C2793 C 0.77793 0.31979 0.20767 0.0
C2794 C 0.75749 0.30764 0.19802 0.0
C2795 C 0.74998 0.31921 0.18697 0.0
C2796 C 0.74212 0.28341 0.20132 0.0
C2797 C 0.78658 0.30816 0.21992 0.0
C2798 C 0.74774 0.26713 0.1963 0.0
C2799 C 0.73339 0.2445 0.20072 0.0
C2800 C 0.71326 0.23788 0.21026 0.0
C2801 C 0.70753 0.25427 0.21475 0.0
C2802 C 0.72177 0.27673 0.21029 0.0
H2803 H 0.80128 0.32022 0.22812 0.0
H2804 H 0.77316 0.29651 0.22936 0.0
H2805 H 0.79168 0.29808 0.21147 0.0
H2806 H 0.76328 0.27195 0.18917 0.0
H2807 H 0.73827 0.23231 0.197 0.0
H2808 H 0.76925 0.51523 0.19339 0.0
H2809 H 0.72998 0.50059 0.18432 0.0
H2810 H 0.71149 0.43802 0.2113 0.0
H2811 H 0.75029 0.45223 0.22029 0.0
H2812 H 0.69269 0.43453 0.1747 0.0
H2813 H 0.67994 0.49056 0.22225 0.0
H2814 H 0.7032 0.50283 0.20657 0.0
H2815 H 0.70319 0.48561 0.22493 0.0
C2816 C 0.75683 0.49831 0.19728 0.0
C2817 C 0.76291 0.48499 0.20772 0.0
C2818 C 0.73443 0.49002 0.19213 0.0
C2819 C 0.7179 0.46831 0.19727 0.0
C2820 C 0.72404 0.45483 0.20721 0.0
H2821 H 0.58645 0.37023 0.2132 0.0
H2822 H 0.62586 0.39347 0.20524 0.0
C2823 C 0.74625 0.46307 0.21242 0.0
C2824 C 0.6939 0.45946 0.19316 0.0
H2825 H 0.64793 0.46058 0.20919 0.0
C2826 C 0.68291 0.44051 0.1819 0.0
C2827 C 0.68126 0.46743 0.20246 0.0
C2828 C 0.69235 0.48767 0.21481 0.0
C2829 C 0.65944 0.42846 0.18058 0.0
C2830 C 0.64672 0.43535 0.19109 0.0
C2831 C 0.65776 0.4553 0.20122 0.0
C2832 C 0.62229 0.42055 0.19386 0.0
C2833 C 0.64847 0.40799 0.1685 0.0
C2834 C 0.60718 0.42814 0.19027 0.0
C2835 C 0.5845 0.41487 0.19491 0.0
C2836 C 0.57668 0.39394 0.20348 0.0
C2837 C 0.59185 0.38625 0.20666 0.0
C2838 C 0.6144 0.39944 0.20195 0.0
H2839 H 0.65958 0.40952 0.15692 0.0
H2840 H 0.64525 0.39302 0.17658 0.0
H2841 H 0.63225 0.40521 0.16299 0.0
H2842 H 0.61301 0.4445 0.18421 0.0
H2843 H 0.57328 0.42133 0.19231 0.0
H2844 H 0.58789 0.15319 0.96196 0.0
H2845 H 0.56371 0.16876 0.96988 0.0
H2846 H 0.61046 0.23121 0.94399 0.0
H2847 H 0.63465 0.21613 0.93625 0.0
H2848 H 0.59426 0.23595 0.97872 0.0
H2849 H 0.52574 0.17941 0.93126 0.0
H2850 H 0.53515 0.16681 0.94801 0.0
H2851 H 0.55354 0.18303 0.92978 0.0
C2852 C 0.59307 0.17028 0.95807 0.0
C2853 C 0.61312 0.1833 0.9483 0.0
C2854 C 0.5792 0.1791 0.96255 0.0
C2855 C 0.58522 0.20105 0.95734 0.0
C2856 C 0.6055 0.21423 0.94811 0.0
H2857 H 0.55168 0.29934 0.93831 0.0
H2858 H 0.56808 0.27622 0.94617 0.0
C2859 C 0.61926 0.20548 0.94361 0.0
C2860 C 0.57036 0.21049 0.96069 0.0
H2861 H 0.5235 0.2094 0.94407 0.0
C2862 C 0.57854 0.22989 0.97145 0.0
C2863 C 0.54982 0.20247 0.95127 0.0
C2864 C 0.54046 0.18186 0.93934 0.0
C2865 C 0.56736 0.24221 0.97222 0.0
C2866 C 0.54769 0.23509 0.96175 0.0
C2867 C 0.53864 0.21483 0.95203 0.0
C2868 C 0.53798 0.24978 0.95875 0.0
C2869 C 0.5771 0.26317 0.98374 0.0
C2870 C 0.51551 0.24249 0.96309 0.0
C2871 C 0.506 0.25571 0.95857 0.0
C2872 C 0.51873 0.27626 0.94937 0.0
C2873 C 0.54135 0.28361 0.94536 0.0
C2874 C 0.55084 0.2705 0.94998 0.0
H2875 H 0.58721 0.2623 -0.00479 0.0
H2876 H 0.58836 0.27785 0.97518 0.0
H2877 H 0.56372 0.26596 0.98939 0.0
H2878 H 0.50525 0.22644 0.9697 0.0
H2879 H 0.48851 0.24951 0.96179 0.0
H2880 H 0.74726 0.23688 0.96308 0.0
H2881 H 0.7703 0.27686 0.97068 0.0
H2882 H 0.7215 0.28984 0.94513 0.0
H2883 H 0.69848 0.25023 0.93752 0.0
H2884 H 0.78797 0.31257 0.94439 0.0
H2885 H 0.73361 0.32231 -0.00521 0.0
H2886 H 0.73076 0.29539 0.9893 0.0
H2887 H 0.71862 0.30752 0.97467 0.0
C2888 C 0.7413 0.24822 0.95931 0.0
C2889 C 0.72104 0.24035 0.94966 0.0
C2890 C 0.7545 0.27102 0.96364 0.0
C2891 C 0.74743 0.28621 0.95869 0.0
C2892 C 0.72705 0.27833 0.94938 0.0
H2893 H 0.77877 0.41557 0.93607 0.0
H2894 H 0.76448 0.37647 0.94399 0.0
C2895 C 0.71399 0.25567 0.94491 0.0
C2896 C 0.76189 0.31062 0.96182 0.0
H2897 H 0.76003 0.35587 0.97864 0.0
C2898 C 0.78225 0.32209 0.95227 0.0
C2899 C 0.75438 0.32291 0.97219 0.0
C2900 C 0.73324 0.31138 0.98347 0.0
C2901 C 0.79431 0.34566 0.95153 0.0
C2902 C 0.78589 0.35792 0.96083 0.0
C2903 C 0.76641 0.34642 0.97147 0.0
C2904 C 0.79488 0.38215 0.95737 0.0
C2905 C 0.81501 0.35719 0.93973 0.0
C2906 C 0.8167 0.39845 0.96254 0.0
C2907 C 0.82508 0.42106 0.95797 0.0
C2908 C 0.81172 0.42762 0.94812 0.0
C2909 C 0.78966 0.4112 0.94349 0.0
C2910 C 0.78137 0.38879 0.94808 0.0
H2911 H 0.81782 0.34507 0.93176 0.0
H2912 H 0.81367 0.36892 0.93009 0.0
H2913 H 0.82992 0.36716 0.94848 0.0
H2914 H 0.8273 0.39367 0.96993 0.0
H2915 H 0.84209 0.43328 0.96181 0.0
H2916 H 0.74253 0.44585 0.93686 0.0
H2917 H 0.70302 0.43054 0.9443 0.0
H2918 H 0.71811 0.49302 0.96978 0.0
H2919 H 0.75792 0.5087 0.9623 0.0
H2920 H 0.68147 0.42704 0.97974 0.0
H2921 H 0.67043 0.48145 0.92924 0.0
H2922 H 0.6942 0.47711 0.92832 0.0
H2923 H 0.69263 0.49451 0.9458 0.0
C2924 C 0.73757 0.45638 0.94414 0.0
C2925 C 0.75343 0.4786 0.94882 0.0
C2926 C 0.71496 0.44754 0.94844 0.0
C2927 C 0.70767 0.46073 0.95742 0.0
C2928 C 0.72343 0.48267 0.96268 0.0
H2929 H 0.56169 0.41068 0.95778 0.0
H2930 H 0.60116 0.43522 0.96652 0.0
C2931 C 0.74616 0.49154 0.95844 0.0
C2932 C 0.68335 0.45147 0.96039 0.0
H2933 H 0.63793 0.45193 0.94218 0.0
C2934 C 0.67195 0.43276 0.97184 0.0
C2935 C 0.67103 0.45912 0.95019 0.0
C2936 C 0.68255 0.47909 0.93761 0.0
C2937 C 0.64844 0.42067 0.97253 0.0
C2938 C 0.63608 0.42723 0.96121 0.0
C2939 C 0.64748 0.44693 0.95081 0.0
C2940 C 0.61188 0.41206 0.95767 0.0
C2941 C 0.63703 0.40042 0.98482 0.0
C2942 C 0.60496 0.39107 0.94973 0.0
C2943 C 0.58269 0.37722 0.94464 0.0
C2944 C 0.56673 0.38403 0.9473 0.0
C2945 C 0.57355 0.40492 0.9556 0.0
C2946 C 0.59605 0.41894 0.9606 0.0
H2947 H 0.64767 0.40221 -0.00317 0.0
H2948 H 0.62057 0.3977 0.98971 0.0
H2949 H 0.63416 0.38532 0.97713 0.0
H2950 H 0.61697 0.38563 0.94696 0.0
H2951 H 0.57806 0.36122 0.93837 0.0
H2952 H 0.51075 0.73803 0.79394 0.0
H2953 H 0.49534 0.76237 0.8018 0.0
H2954 H 0.43172 0.71409 0.77844 0.0
H2955 H 0.44668 0.68978 0.77074 0.0
H2956 H 0.47811 0.78074 0.77681 0.0
H2957 H 0.41311 0.72835 0.82717 0.0
H2958 H 0.43591 0.72364 0.82121 0.0
H2959 H 0.41125 0.71268 0.80704 0.0
C2960 C 0.49338 0.73247 0.79074 0.0
C2961 C 0.47999 0.71197 0.78166 0.0
C2962 C 0.48463 0.7464 0.79523 0.0
C2963 C 0.46228 0.73985 0.79098 0.0
C2964 C 0.44884 0.71925 0.78224 0.0
H2965 H 0.36954 0.77894 0.76676 0.0
H2966 H 0.39236 0.7621 0.77427 0.0
C2967 C 0.45754 0.70545 0.77767 0.0
C2968 C 0.45318 0.75506 0.79407 0.0
H2969 H 0.40668 0.75503 0.8103 0.0
C2970 C 0.46284 0.77549 0.78455 0.0
C2971 C 0.43332 0.74818 0.80424 0.0
C2972 C 0.42294 0.72711 0.81565 0.0
C2973 C 0.45212 0.78829 0.78369 0.0
C2974 C 0.43137 0.78048 0.79273 0.0
C2975 C 0.42253 0.76088 0.80329 0.0
C2976 C 0.41723 0.79073 0.78945 0.0
C2977 C 0.46219 0.80919 0.77208 0.0
C2978 C 0.42349 0.81233 0.79578 0.0
C2979 C 0.41041 0.82208 0.79152 0.0
C2980 C 0.39093 0.81039 0.78079 0.0
C2981 C 0.38451 0.78853 0.77491 0.0
C2982 C 0.39748 0.77881 0.77925 0.0
H2983 H 0.47723 0.8117 0.76446 0.0
H2984 H 0.4496 0.80835 0.76214 0.0
H2985 H 0.46716 0.82405 0.78091 0.0
H2986 H 0.43859 0.82169 0.80382 0.0
H2987 H 0.41582 0.83892 0.7963 0.0
H2988 H 0.15986 0.5695 0.79887 0.0
H2989 H 0.17643 0.60965 0.80545 0.0
H2990 H 0.2369 0.62296 0.77736 0.0
H2991 H 0.22073 0.58311 0.77083 0.0
H2992 H 0.2434 0.64612 0.81201 0.0
H2993 H 0.1854 0.6558 0.76457 0.0
H2994 H 0.17336 0.63447 0.78192 0.0
H2995 H 0.18917 0.63167 0.76368 0.0
C2996 C 0.17678 0.58094 0.79425 0.0
C2997 C 0.18888 0.57307 0.78417 0.0
C2998 C 0.18615 0.60387 0.79796 0.0
C2999 C 0.20776 0.61924 0.7917 0.0
C3000 C 0.22016 0.61135 0.78226 0.0
H3001 H 0.30587 0.74974 0.76929 0.0
H3002 H 0.28224 0.71063 0.77773 0.0
C3003 C 0.21083 0.58854 0.77849 0.0
C3004 C 0.21746 0.64371 0.79413 0.0
H3005 H 0.21558 0.68865 0.77647 0.0
C3006 C 0.23709 0.65543 0.80453 0.0
C3007 C 0.20907 0.65576 0.78447 0.0
C3008 C 0.18816 0.64392 0.77293 0.0
C3009 C 0.24922 0.67896 0.80476 0.0
C3010 C 0.24172 0.69101 0.79404 0.0
C3011 C 0.22128 0.67933 0.78465 0.0
C3012 C 0.25637 0.71525 0.79025 0.0
C3013 C 0.2704 0.6907 0.81598 0.0
C3014 C 0.24948 0.73086 0.79421 0.0
C3015 C 0.26302 0.75346 0.78931 0.0
C3016 C 0.28346 0.76065 0.7801 0.0
C3017 C 0.29024 0.74487 0.7763 0.0
C3018 C 0.27684 0.72247 0.78128 0.0
H3019 H 0.26974 0.68026 0.82779 0.0
H3020 H 0.28491 0.6937 0.80737 0.0
H3021 H 0.27331 0.70714 0.8211 0.0
H3022 H 0.23358 0.72551 0.80095 0.0
H3023 H 0.25728 0.76516 0.79238 0.0
H3024 H 0.42862 0.57796 0.79702 0.0
H3025 H 0.38897 0.55407 0.80525 0.0
H3026 H 0.37356 0.60147 0.78025 0.0
H3027 H 0.41285 0.62541 0.77208 0.0
H3028 H 0.35301 0.5841 0.81593 0.0
H3029 H 0.33993 0.51761 0.76575 0.0
H3030 H 0.36251 0.52681 0.78196 0.0
H3031 H 0.36388 0.54559 0.76438 0.0
C3032 C 0.41682 0.5834 0.79343 0.0
C3033 C 0.42391 0.60352 0.78373 0.0
C3034 C 0.39418 0.56968 0.79808 0.0
C3035 C 0.37837 0.57594 0.79318 0.0
C3036 C 0.38553 0.59635 0.78412 0.0
H3037 H 0.24886 0.54723 0.77589 0.0
H3038 H 0.28789 0.56145 0.78399 0.0
C3039 C 0.40802 0.60996 0.7794 0.0
C3040 C 0.35411 0.56109 0.79661 0.0
H3041 H 0.30793 0.51539 0.77904 0.0
C3042 C 0.34316 0.56879 0.80819 0.0
C3043 C 0.34135 0.54104 0.7866 0.0
C3044 C 0.35237 0.53217 0.77389 0.0
C3045 C 0.31967 0.5577 0.80918 0.0
C3046 C 0.30687 0.5387 0.79803 0.0
C3047 C 0.31782 0.53 0.78753 0.0
C3048 C 0.28264 0.52993 0.79484 0.0
C3049 C 0.30876 0.56695 0.82158 0.0
C3050 C 0.26668 0.50733 0.79804 0.0
C3051 C 0.24412 0.49902 0.79334 0.0
C3052 C 0.23735 0.51315 0.78507 0.0
C3053 C 0.25344 0.53582 0.78216 0.0
C3054 C 0.27578 0.54408 0.78696 0.0
H3055 H 0.31971 0.57588 0.83342 0.0
H3056 H 0.30593 0.57921 0.81389 0.0
H3057 H 0.29233 0.55344 0.82672 0.0
H3058 H 0.27172 0.49609 0.80392 0.0
H3059 H 0.23216 0.48146 0.7957 0.0
H3060 H 0.36584 0.78206 0.05365 0.0
H3061 H 0.39068 0.76805 0.04499 0.0
H3062 H 0.43569 0.83128 0.01932 0.0
H3063 H 0.41078 0.84574 0.02808 0.0
H3064 H 0.40691 0.76535 0.00868 0.0
H3065 H 0.47462 0.82004 0.05751 0.0
H3066 H 0.44642 0.81519 0.05985 0.0
H3067 H 0.46409 0.83274 0.04182 0.0
C3068 C 0.38098 0.7931 0.04615 0.0
C3069 C 0.3864 0.81515 0.04172 0.0
C3070 C 0.39511 0.78498 0.04112 0.0
C3071 C 0.41505 0.79867 0.03164 0.0
C3072 C 0.42042 0.82054 0.02678 0.0
H3073 H 0.51159 0.74996 0.02742 0.0
H3074 H 0.49579 0.77383 0.01925 0.0
C3075 C 0.40615 0.82872 0.03175 0.0
C3076 C 0.43024 0.78981 0.02763 0.0
H3077 H 0.47667 0.79011 0.04434 0.0
C3078 C 0.42246 0.77107 0.01613 0.0
C3079 C 0.45058 0.79742 0.03727 0.0
C3080 C 0.45954 0.8174 0.04988 0.0
C3081 C 0.43373 0.75887 0.01491 0.0
C3082 C 0.45302 0.76536 0.02574 0.0
C3083 C 0.4618 0.78512 0.03612 0.0
C3084 C 0.46228 0.75025 0.02862 0.0
C3085 C 0.42436 0.73859 0.00261 0.0
C3086 C 0.44868 0.72913 0.03656 0.0
C3087 C 0.4576 0.71558 0.04132 0.0
C3088 C 0.48041 0.72287 0.0383 0.0
C3089 C 0.49393 0.7438 0.02986 0.0
C3090 C 0.48496 0.75747 0.0252 0.0
H3091 H 0.41506 0.74038 0.99095 0.0
H3092 H 0.43786 0.73581 -0.00277 0.0
H3093 H 0.41241 0.72352 0.01048 0.0
H3094 H 0.43126 0.72343 0.0397 0.0
H3095 H 0.44668 0.69956 0.04775 0.0
H3096 H 0.30102 0.74517 0.05297 0.0
H3097 H 0.27792 0.70543 0.04591 0.0
H3098 H 0.22821 0.71772 0.02119 0.0
H3099 H 0.25125 0.75777 0.02832 0.0
H3100 H 0.21093 0.68325 0.04728 0.0
H3101 H 0.26437 0.67085 -0.00221 0.0
H3102 H 0.27973 0.6857 0.01774 0.0
H3103 H 0.26813 0.69821 0.00293 0.0
C3104 C 0.28532 0.73956 0.04583 0.0
C3105 C 0.27798 0.7547 0.04126 0.0
C3106 C 0.27221 0.71682 0.04166 0.0
C3107 C 0.25152 0.70868 0.03277 0.0
C3108 C 0.24425 0.72373 0.02789 0.0
H3109 H 0.15494 0.56213 0.03105 0.0
H3110 H 0.17078 0.60176 0.02256 0.0
C3111 C 0.25745 0.74659 0.03197 0.0
C3112 C 0.23686 0.68419 0.03022 0.0
H3113 H 0.23787 0.63795 0.01477 0.0
C3114 C 0.21646 0.67329 0.03977 0.0
C3115 C 0.24409 0.67132 0.02034 0.0
C3116 C 0.26518 0.68215 0.00896 0.0
C3117 C 0.20404 0.64978 0.04097 0.0
C3118 C 0.21217 0.63697 0.03217 0.0
C3119 C 0.23174 0.64784 0.02156 0.0
C3120 C 0.20259 0.61276 0.03601 0.0
C3121 C 0.18324 0.63888 0.05269 0.0
C3122 C 0.21542 0.60585 0.046 0.0
C3123 C 0.20652 0.58342 0.05084 0.0
C3124 C 0.18455 0.56728 0.04574 0.0
C3125 C 0.17188 0.57413 0.03526 0.0
C3126 C 0.18084 0.59675 0.03045 0.0
H3127 H 0.18059 0.6514 0.0602 0.0
H3128 H 0.16835 0.62877 0.04395 0.0
H3129 H 0.18431 0.62737 0.06273 0.0
H3130 H 0.23225 0.61797 0.0504 0.0
H3131 H 0.2169 0.57881 0.05876 0.0
H3132 H 0.23708 0.48603 0.03172 0.0
H3133 H 0.27689 0.5026 0.02374 0.0
H3134 H 0.29107 0.56429 0.05017 0.0
H3135 H 0.2516 0.5481 0.05814 0.0
H3136 H 0.31136 0.56846 0.0138 0.0
H3137 H 0.32672 0.51574 0.06303 0.0
H3138 H 0.30373 0.50213 0.0472 0.0
H3139 H 0.30258 0.51938 0.06502 0.0
C3140 C 0.24865 0.50317 0.03573 0.0
C3141 C 0.24113 0.51567 0.0457 0.0
C3142 C 0.27138 0.51256 0.03121 0.0
C3143 C 0.28688 0.53458 0.03651 0.0
C3144 C 0.27934 0.54725 0.04598 0.0
H3145 H 0.41732 0.63701 0.05096 0.0
H3146 H 0.37798 0.61208 0.04388 0.0
C3147 C 0.25675 0.5379 0.05059 0.0
C3148 C 0.31117 0.54457 0.03287 0.0
H3149 H 0.35816 0.54577 0.04931 0.0
C3150 C 0.32159 0.56325 0.02127 0.0
C3151 C 0.32442 0.53757 0.0425 0.0
C3152 C 0.31395 0.51767 0.05522 0.0
C3153 C 0.34503 0.57588 0.01981 0.0
C3154 C 0.35835 0.56992 0.03053 0.0
C3155 C 0.3479 0.55032 0.04114 0.0
C3156 C 0.38272 0.58547 0.03305 0.0
C3157 C 0.35534 0.59596 0.00727 0.0
C3158 C 0.39852 0.57871 0.02952 0.0
C3159 C 0.42125 0.59302 0.03365 0.0
C3160 C 0.42839 0.61412 0.04167 0.0
C3161 C 0.41247 0.62087 0.04486 0.0
C3162 C 0.38993 0.6067 0.04064 0.0
H3163 H 0.34397 0.59368 -0.00431 0.0
H3164 H 0.35819 0.61104 0.01499 0.0
H3165 H 0.37168 0.59906 0.00176 0.0
H3166 H 0.39322 0.56227 0.02384 0.0
H3167 H 0.43307 0.58729 0.0311 0.0
H3168 H 0.29494 0.54863 0.5615 0.0
H3169 H 0.27217 0.56537 0.55345 0.0
H3170 H 0.2255 0.50494 0.52505 0.0
H3171 H 0.24818 0.48781 0.53311 0.0
H3172 H 0.25803 0.57126 0.51693 0.0
H3173 H 0.18722 0.51683 0.56343 0.0
H3174 H 0.21474 0.52 0.56612 0.0
H3175 H 0.1971 0.50369 0.54759 0.0
C3176 C 0.27986 0.53882 0.55352 0.0
C3177 C 0.27332 0.51677 0.54808 0.0
C3178 C 0.26692 0.54848 0.54887 0.0
C3179 C 0.24712 0.53632 0.53879 0.0
C3180 C 0.24066 0.51449 0.53299 0.0
H3181 H 0.15504 0.59045 0.531 0.0
H3182 H 0.16999 0.56549 0.52394 0.0
C3183 C 0.25368 0.50478 0.53757 0.0
C3184 C 0.23319 0.54664 0.53493 0.0
H3185 H 0.18671 0.54749 0.55002 0.0
C3186 C 0.24221 0.56583 0.52386 0.0
C3187 C 0.21246 0.53936 0.54386 0.0
C3188 C 0.20222 0.5189 0.556 0.0
C3189 C 0.23163 0.57866 0.52228 0.0
C3190 C 0.21181 0.57235 0.53233 0.0
C3191 C 0.20195 0.55229 0.54236 0.0
C3192 C 0.20304 0.5879 0.53484 0.0
C3193 C 0.24222 0.59932 0.51039 0.0
C3194 C 0.21664 0.60863 0.54334 0.0
C3195 C 0.2082 0.62276 0.54746 0.0
C3196 C 0.18587 0.61644 0.54324 0.0
C3197 C 0.17233 0.59583 0.53436 0.0
C3198 C 0.18081 0.58157 0.53033 0.0
H3199 H 0.25204 0.59758 0.49911 0.0
H3200 H 0.22936 0.60272 0.50446 0.0
H3201 H 0.25393 0.61401 0.51875 0.0
H3202 H 0.23367 0.61364 0.54731 0.0
H3203 H 0.21915 0.63852 0.55423 0.0
H3204 H 0.4463 0.74669 0.55744 0.0
H3205 H 0.42887 0.70655 0.55158 0.0
H3206 H 0.48636 0.71769 0.51994 0.0
H3207 H 0.50421 0.75807 0.52586 0.0
H3208 H 0.41866 0.68241 0.51749 0.0
H3209 H 0.48008 0.67217 0.56011 0.0
H3210 H 0.47728 0.69685 0.56155 0.0
H3211 H 0.491 0.6929 0.54226 0.0
C3212 C 0.45529 0.74072 0.54916 0.0
C3213 C 0.47679 0.75565 0.54228 0.0
C3214 C 0.44523 0.71774 0.54578 0.0
C3215 C 0.45645 0.70917 0.53552 0.0
C3216 C 0.47758 0.72399 0.52811 0.0
H3217 H 0.40543 0.56305 0.53257 0.0
H3218 H 0.42854 0.60281 0.52414 0.0
C3219 C 0.48769 0.74706 0.53145 0.0
C3220 C 0.44606 0.68459 0.53329 0.0
H3221 H 0.44894 0.63942 0.54908 0.0
C3222 C 0.42545 0.673 0.52412 0.0
C3223 C 0.45507 0.6724 0.54184 0.0
C3224 C 0.47701 0.68409 0.5521 0.0
C3225 C 0.41309 0.64948 0.52401 0.0
C3226 C 0.42139 0.63731 0.53358 0.0
C3227 C 0.44265 0.64884 0.54176 0.0
C3228 C 0.40703 0.61306 0.53742 0.0
C3229 C 0.39089 0.63787 0.51413 0.0
C3230 C 0.3875 0.60581 0.5478 0.0
C3231 C 0.37445 0.58333 0.5527 0.0
C3232 C 0.38065 0.56753 0.5474 0.0
C3233 C 0.40015 0.57477 0.53682 0.0
C3234 C 0.41336 0.59744 0.532 0.0
H3235 H 0.39044 0.64842 0.50284 0.0
H3236 H 0.38744 0.62148 0.50846 0.0
H3237 H 0.37727 0.63479 0.52385 0.0
H3238 H 0.38258 0.61767 0.55246 0.0
H3239 H 0.35953 0.57842 0.56081 0.0
H3240 H 0.43605 0.84534 0.5255 0.0
H3241 H 0.39631 0.8302 0.51768 0.0
H3242 H 0.3789 0.77064 0.54898 0.0
H3243 H 0.41814 0.78536 0.5568 0.0
H3244 H 0.35907 0.76405 0.51185 0.0
H3245 H 0.34722 0.82324 0.55622 0.0
H3246 H 0.37042 0.83419 0.54045 0.0
H3247 H 0.37027 0.81816 0.55978 0.0
C3248 C 0.42375 0.82899 0.53065 0.0
C3249 C 0.43031 0.81666 0.54189 0.0
C3250 C 0.40109 0.82042 0.52621 0.0
C3251 C 0.38475 0.79938 0.53286 0.0
C3252 C 0.3913 0.78692 0.54373 0.0
H3253 H 0.25333 0.70176 0.55156 0.0
H3254 H 0.29276 0.72493 0.54367 0.0
C3255 C 0.41378 0.79545 0.54825 0.0
C3256 C 0.3606 0.79012 0.52909 0.0
H3257 H 0.31489 0.79212 0.54461 0.0
C3258 C 0.34941 0.77045 0.51866 0.0
C3259 C 0.34812 0.79863 0.53788 0.0
C3260 C 0.35946 0.81968 0.54928 0.0
C3261 C 0.32592 0.75829 0.51769 0.0
C3262 C 0.31335 0.76579 0.5277 0.0
C3263 C 0.32458 0.78636 0.53701 0.0
C3264 C 0.28896 0.75115 0.53082 0.0
C3265 C 0.31475 0.73707 0.50647 0.0
C3266 C 0.27369 0.75832 0.52641 0.0
C3267 C 0.25097 0.74507 0.53099 0.0
C3268 C 0.24326 0.72461 0.54031 0.0
C3269 C 0.25863 0.71741 0.54442 0.0
C3270 C 0.2812 0.73056 0.53976 0.0
H3271 H 0.32569 0.73783 0.49501 0.0
H3272 H 0.31158 0.72263 0.51524 0.0
H3273 H 0.29847 0.73398 0.50084 0.0
H3274 H 0.27942 0.77429 0.51967 0.0
H3275 H 0.23961 0.75116 0.52769 0.0
H3276 H 0.29551 0.54941 0.27465 0.0
H3277 H 0.27106 0.56394 0.28311 0.0
H3278 H 0.22329 0.49969 0.30584 0.0
H3279 H 0.24787 0.48475 0.29731 0.0
H3280 H 0.20512 0.51805 0.2807 0.0
H3281 H 0.25644 0.58042 0.33315 0.0
H3282 H 0.27259 0.58263 0.31323 0.0
H3283 H 0.26071 0.55744 0.32679 0.0
C3284 C 0.27991 0.53832 0.28158 0.0
C3285 C 0.27361 0.51586 0.28523 0.0
C3286 C 0.26605 0.54676 0.28658 0.0
C3287 C 0.24557 0.53301 0.29538 0.0
C3288 C 0.23919 0.51062 0.29925 0.0
H3289 H 0.14911 0.58279 0.298 0.0
H3290 H 0.16444 0.55866 0.30664 0.0
C3291 C 0.25323 0.50214 0.29436 0.0
C3292 C 0.23031 0.54192 0.29888 0.0
H3293 H 0.23074 0.58816 0.31612 0.0
C3294 C 0.21027 0.53297 0.28889 0.0
C3295 C 0.23709 0.56131 0.30964 0.0
C3296 C 0.25779 0.57087 0.32146 0.0
C3297 C 0.19794 0.54417 0.28802 0.0
C3298 C 0.20581 0.56461 0.29757 0.0
C3299 C 0.22484 0.57254 0.30873 0.0
C3300 C 0.19669 0.57965 0.29391 0.0
C3301 C 0.17762 0.53505 0.27576 0.0
C3302 C 0.20998 0.59964 0.28432 0.0
C3303 C 0.20136 0.61339 0.27937 0.0
C3304 C 0.17924 0.60749 0.28398 0.0
C3305 C 0.16618 0.58779 0.29417 0.0
C3306 C 0.17485 0.57394 0.29907 0.0
H3307 H 0.17499 0.52009 0.26795 0.0
H3308 H 0.16245 0.53023 0.28415 0.0
H3309 H 0.17938 0.54815 0.26597 0.0
H3310 H 0.2269 0.60432 0.28024 0.0
H3311 H 0.21199 0.6285 0.27168 0.0
H3312 H 0.44473 0.75365 0.2656 0.0
H3313 H 0.42854 0.71453 0.27424 0.0
H3314 H 0.4907 0.72892 0.29992 0.0
H3315 H 0.50738 0.76861 0.29118 0.0
H3316 H 0.47232 0.69171 0.27533 0.0
H3317 H 0.40836 0.68489 0.32456 0.0
H3318 H 0.40784 0.69844 0.3038 0.0
H3319 H 0.4323 0.71149 0.3182 0.0
C3320 C 0.45506 0.74868 0.27318 0.0
C3321 C 0.47743 0.76434 0.27765 0.0
C3322 C 0.44564 0.72627 0.27826 0.0
C3323 C 0.45828 0.71892 0.288 0.0
C3324 C 0.48061 0.73438 0.29258 0.0
H3325 H 0.40701 0.57316 0.29893 0.0
H3326 H 0.43081 0.6134 0.30487 0.0
C3327 C 0.49009 0.757 0.28758 0.0
C3328 C 0.44823 0.6947 0.29203 0.0
H3329 H 0.40065 0.65046 0.30941 0.0
C3330 C 0.45699 0.68266 0.28319 0.0
C3331 C 0.42826 0.68301 0.30232 0.0
C3332 C 0.41876 0.69516 0.31291 0.0
C3333 C 0.44529 0.65909 0.28316 0.0
C3334 C 0.4245 0.64741 0.2924 0.0
C3335 C 0.41653 0.65948 0.30225 0.0
C3336 C 0.40958 0.62293 0.2902 0.0
C3337 C 0.45444 0.64686 0.27222 0.0
C3338 C 0.38949 0.61498 0.28046 0.0
C3339 C 0.37586 0.59209 0.27705 0.0
C3340 C 0.382 0.57662 0.28342 0.0
C3341 C 0.4018 0.58459 0.29376 0.0
C3342 C 0.41548 0.60758 0.29711 0.0
H3343 H 0.46929 0.65847 0.26395 0.0
H3344 H 0.45948 0.63752 0.28163 0.0
H3345 H 0.44133 0.63447 0.26295 0.0
H3346 H 0.38463 0.62659 0.27506 0.0
H3347 H 0.36069 0.58659 0.26915 0.0
H3348 H 0.24348 0.69333 0.27211 0.0
H3349 H 0.28286 0.71779 0.27932 0.0
H3350 H 0.26828 0.76772 0.30019 0.0
H3351 H 0.22841 0.74321 0.29278 0.0
H3352 H 0.30319 0.78443 0.27491 0.0
H3353 H 0.31696 0.73498 0.32736 0.0
H3354 H 0.30277 0.71811 0.30782 0.0
H3355 H 0.2893 0.72983 0.3214 0.0
C3356 C 0.24848 0.70939 0.27842 0.0
C3357 C 0.23275 0.71633 0.28179 0.0
C3358 C 0.27104 0.72328 0.28271 0.0
C3359 C 0.27845 0.74441 0.29058 0.0
C3360 C 0.26282 0.75135 0.2943 0.0
H3361 H 0.42394 0.84356 0.29303 0.0
H3362 H 0.38407 0.82661 0.30086 0.0
C3363 C 0.24008 0.73733 0.29007 0.0
C3364 C 0.30284 0.75973 0.29316 0.0
H3365 H 0.34967 0.76051 0.30946 0.0
C3366 C 0.31338 0.77959 0.28287 0.0
C3367 C 0.31605 0.75339 0.3036 0.0
C3368 C 0.30564 0.73302 0.31582 0.0
C3369 C 0.33686 0.79228 0.28156 0.0
C3370 C 0.35001 0.78496 0.29093 0.0
C3371 C 0.3395 0.76597 0.3022 0.0
C3372 C 0.37432 0.79507 0.28738 0.0
C3373 C 0.34743 0.81252 0.2692 0.0
C3374 C 0.382 0.78275 0.27757 0.0
C3375 C 0.40464 0.79232 0.27305 0.0
C3376 C 0.42013 0.81442 0.27836 0.0
C3377 C 0.41246 0.82653 0.28868 0.0
C3378 C 0.3897 0.81693 0.29312 0.0
H3379 H 0.33472 0.81463 0.26147 0.0
H3380 H 0.35755 0.82785 0.27748 0.0
H3381 H 0.35891 0.81109 0.25933 0.0
H3382 H 0.37035 0.76583 0.27305 0.0
H3383 H 0.40992 0.78242 0.26522 0.0
H3384 H 0.03118 0.20174 0.31925 0.0
H3385 H 0.03151 0.20201 0.28589 0.0
H3386 H 0.9594 0.16121 0.28521 0.0
H3387 H 0.95876 0.16086 0.31854 0.0
H3388 H 0.01316 0.16327 0.26204 0.0
H3389 H 0.97367 0.21599 0.25219 0.0
H3390 H 0.98616 0.21487 0.27357 0.0
H3391 H 0.95897 0.19232 0.26717 0.0
C3392 C 0.01536 0.19288 0.31205 0.0
C3393 C 0.99493 0.18136 0.32161 0.0
C3394 C 0.01561 0.19304 0.29299 0.0
C3395 C 0.99547 0.18187 0.28318 0.0
C3396 C 0.97508 0.17022 0.2926 0.0
H3397 H 0.96212 0.16477 0.16813 0.0
H3398 H 0.96138 0.164 0.20147 0.0
C3399 C 0.97479 0.16997 0.31165 0.0
C3400 C 0.99582 0.18201 0.26304 0.0
H3401 H 0.97956 0.19992 0.22571 0.0
C3402 C 0.0059 0.17134 0.25405 0.0
C3403 C 0.98622 0.19248 0.25278 0.0
C3404 C 0.97578 0.20474 0.26186 0.0
C3405 C 0.00637 0.17056 0.23494 0.0
C3406 C 0.9969 0.18117 0.22466 0.0
C3407 C 0.98678 0.1918 0.23367 0.0
C3408 C 0.99748 0.18157 0.20449 0.0
C3409 C 0.01655 0.15799 0.22595 0.0
C3410 C 0.01804 0.19198 0.19521 0.0
C3411 C 0.01856 0.1924 0.17617 0.0
C3412 C -0.00151 0.1826 0.16605 0.0
C3413 C 0.9779 0.17246 0.17546 0.0
C3414 C 0.97742 0.17199 0.19451 0.0
H3415 H 0.01743 0.1459 0.23549 0.0
H3416 H 0.00676 0.14871 0.21373 0.0
H3417 H 0.03389 0.17014 0.22152 0.0
H3418 H 0.03371 0.19991 0.2027 0.0
H3419 H 0.03472 0.20051 0.16941 0.0
H3420 H 0.80367 0.8334 0.31742 0.0
H3421 H 0.8044 0.83456 0.28408 0.0
H3422 H 0.84172 0.79957 0.28328 0.0
H3423 H 0.84097 0.79808 0.31656 0.0
H3424 H 0.84299 0.85361 0.26069 0.0
H3425 H 0.78737 0.76199 0.24959 0.0
H3426 H 0.78912 0.77533 0.27123 0.0
H3427 H 0.81085 0.7696 0.26448 0.0
C3428 C 0.81197 0.82587 0.31019 0.0
C3429 C 0.82213 0.81551 0.3197 0.0
C3430 C 0.8124 0.8266 0.29115 0.0
C3431 C 0.82286 0.8169 0.28132 0.0
C3432 C 0.83324 0.8068 0.29069 0.0
H3433 H 0.83678 0.8013 0.16528 0.0
H3434 H 0.84004 0.80197 0.19852 0.0
C3435 C 0.83284 0.80606 0.30972 0.0
C3436 C 0.8231 0.81755 0.2612 0.0
H3437 H 0.80424 0.78424 0.22343 0.0
C3438 C 0.83451 0.83848 0.2525 0.0
C3439 C 0.81208 0.79773 0.25067 0.0
C3440 C 0.79899 0.77487 0.25941 0.0
C3441 C 0.83532 0.84012 0.23342 0.0
C3442 C 0.82409 0.8203 0.22289 0.0
C3443 C 0.81287 0.79936 0.2316 0.0
C3444 C 0.82309 0.82091 0.20281 0.0
C3445 C 0.84839 0.86297 0.2247 0.0
C3446 C 0.81236 0.83124 0.19431 0.0
C3447 C 0.81045 0.83091 0.17535 0.0
C3448 C 0.8191 0.82007 0.16455 0.0
C3449 C 0.82993 0.8098 0.17316 0.0
C3450 C 0.83183 0.81016 0.19214 0.0
H3451 H 0.86084 0.87555 0.23428 0.0
H3452 H 0.85733 0.86234 0.21229 0.0
H3453 H 0.83662 0.8688 0.2206 0.0
H3454 H 0.80511 0.83922 0.20237 0.0
H3455 H 0.80195 0.83893 0.16921 0.0
H3456 H 0.19563 0.97748 0.31486 0.0
H3457 H 0.1971 0.97739 0.28143 0.0
H3458 H 0.17416 0.0254 0.27956 0.0
H3459 H 0.17409 0.02658 0.31285 0.0
H3460 H 0.16718 0.96544 0.25667 0.0
H3461 H 0.22592 0.05582 0.24641 0.0
H3462 H 0.22049 0.04303 0.26868 0.0
H3463 H 0.20196 0.0518 0.25909 0.0
C3464 C 0.1911 0.98813 0.30725 0.0
C3465 C 0.18504 0.00225 0.31635 0.0
C3466 C 0.19193 0.98807 0.28818 0.0
C3467 C 0.1863 0.00184 0.27795 0.0
C3468 C 0.17946 0.01533 0.28711 0.0
H3469 H 0.14475 0.97765 0.16454 0.0
H3470 H 0.1468 0.9784 0.19789 0.0
C3471 C 0.17923 0.01585 0.30613 0.0
C3472 C 0.18682 0.00154 0.25771 0.0
H3473 H 0.20414 0.03555 0.22028 0.0
C3474 C 0.17551 0.98077 0.24871 0.0
C3475 C 0.19809 0.02148 0.24727 0.0
C3476 C 0.2125 0.04423 0.25589 0.0
C3477 C 0.17468 0.97941 0.22961 0.0
C3478 C 0.18449 -0.00056 0.21921 0.0
C3479 C 0.19626 0.02018 0.22821 0.0
C3480 C 0.183 -0.00061 0.199 0.0
C3481 C 0.16372 0.95647 0.22088 0.0
C3482 C 0.20247 0.01192 0.18851 0.0
C3483 C 0.20118 0.01222 0.16951 0.0
C3484 C 0.18046 -0.00036 0.16065 0.0
C3485 C 0.16096 0.98725 0.17109 0.0
C3486 C 0.16216 0.98748 0.19012 0.0
H3487 H 0.16438 0.94393 0.23003 0.0
H3488 H 0.14578 0.95075 0.21825 0.0
H3489 H 0.1719 0.95669 0.20776 0.0
H3490 H 0.21873 0.02134 0.19501 0.0
H3491 H 0.21648 0.02182 0.16173 0.0
H3492 H 0.96716 0.78674 0.6685 0.0
H3493 H 0.96663 0.78678 0.70185 0.0
H3494 H 0.03414 0.84298 0.70262 0.0
H3495 H 0.03498 0.84316 0.66922 0.0
H3496 H 0.00038 0.78441 0.7267 0.0
H3497 H 0.99313 0.86118 0.7336 0.0
H3498 H 0.98531 0.84457 0.71297 0.0
H3499 H 0.01436 0.8626 0.7184 0.0
C3500 C 0.98194 0.79912 0.67572 0.0
C3501 C 0.0011 0.81501 0.66618 0.0
C3502 C 0.98159 0.79906 0.69475 0.0
C3503 C 0.00027 0.81499 0.70455 0.0
C3504 C 0.01952 0.83069 0.69518 0.0
H3505 H 0.02801 0.82126 0.82037 0.0
H3506 H 0.03023 0.82174 0.78707 0.0
C3507 C 0.01997 0.83069 0.67613 0.0
C3508 C -0.00048 0.81517 0.72463 0.0
H3509 H 0.99611 0.84449 0.76083 0.0
C3510 C -0.0005 0.79754 0.73421 0.0
C3511 C 0.99819 0.83227 0.73422 0.0
C3512 C 0.99759 0.85121 0.72435 0.0
C3513 C -0.00165 0.79666 0.75332 0.0
C3514 C 0.99723 0.81387 0.76291 0.0
C3515 C 0.99708 0.83141 0.75332 0.0
C3516 C 0.99591 0.81376 0.78297 0.0
C3517 C 0.99803 0.77723 0.76315 0.0
C3518 C 0.97593 0.80938 0.79154 0.0
C3519 C 0.97453 0.80901 0.81056 0.0
C3520 C 0.99321 0.81324 0.82128 0.0
C3521 C 0.01331 0.81792 0.81255 0.0
C3522 C 0.01462 0.81814 0.79354 0.0
H3523 H 0.99539 0.76354 0.75364 0.0
H3524 H 0.01429 0.78321 0.77025 0.0
H3525 H 0.98457 0.77033 0.77363 0.0
H3526 H 0.96137 0.80606 0.78351 0.0
H3527 H 0.95884 0.80546 0.81683 0.0
H3528 H 0.19373 0.16434 0.66624 0.0
H3529 H 0.19243 0.1622 0.69953 0.0
H3530 H 0.15352 0.19555 0.7008 0.0
H3531 H 0.15437 0.1975 0.66753 0.0
H3532 H 0.20853 0.19765 0.72403 0.0
H3533 H 0.11693 0.14058 0.73301 0.0
H3534 H 0.13084 0.14427 0.71133 0.0
H3535 H 0.1241 0.1649 0.71933 0.0
C3536 C 0.18479 0.17113 0.67356 0.0
C3537 C 0.17411 0.18105 0.66418 0.0
C3538 C 0.18406 0.16987 0.69258 0.0
C3539 C 0.1726 0.17841 0.70256 0.0
C3540 C 0.16203 0.18842 0.6933 0.0
H3541 H 0.15845 0.19489 0.81828 0.0
H3542 H 0.1574 0.19565 0.78492 0.0
C3543 C 0.16267 0.18963 0.67428 0.0
C3544 C 0.17251 0.17765 0.72271 0.0
H3545 H 0.13807 0.15757 0.75984 0.0
C3546 C 0.19315 0.18881 0.73187 0.0
C3547 C 0.15237 0.16614 0.73284 0.0
C3548 C 0.1298 0.15311 0.72365 0.0
C3549 C 0.1942 0.18899 0.75097 0.0
C3550 C 0.17408 0.17748 0.76108 0.0
C3551 C 0.15343 0.1664 0.75196 0.0
C3552 C 0.17424 0.17652 0.78119 0.0
C3553 C 0.21676 0.20176 0.76021 0.0
C3554 C 0.18372 0.16518 0.79001 0.0
C3555 C 0.18435 0.16467 0.80902 0.0
C3556 C 0.17544 0.17549 0.81956 0.0
C3557 C 0.16557 0.1865 0.81061 0.0
C3558 C 0.16491 0.18693 0.79157 0.0
H3559 H 0.22994 0.21377 0.75076 0.0
H3560 H 0.2159 0.21115 0.77221 0.0
H3561 H 0.22189 0.18972 0.76509 0.0
H3562 H 0.19069 0.15676 0.78216 0.0
H3563 H 0.19198 0.15594 0.81542 0.0
H3564 H 0.83405 0.03516 0.81826 0.0
H3565 H 0.83332 0.03345 0.78494 0.0
H3566 H 0.79408 0.96124 0.7872 0.0
H3567 H 0.7944 0.96267 0.82048 0.0
H3568 H 0.84883 0.01143 0.76189 0.0
H3569 H 0.75736 0.97827 0.75345 0.0
H3570 H 0.7719 0.99026 0.77461 0.0
H3571 H 0.76434 0.96205 0.76848 0.0
C3572 C 0.82521 0.01889 0.81171 0.0
C3573 C 0.81415 -0.00094 0.82208 0.0
C3574 C 0.82483 0.01797 0.79267 0.0
C3575 C 0.81335 0.99725 0.78368 0.0
C3576 C 0.80262 0.97741 0.79393 0.0
H3577 H 0.79344 0.95538 0.67074 0.0
H3578 H 0.79445 0.95734 0.70405 0.0
C3579 C 0.80294 0.97829 0.81295 0.0
C3580 C 0.81292 0.99635 0.76356 0.0
H3581 H 0.77769 0.97955 0.72687 0.0
C3582 C 0.83332 0.00458 0.75419 0.0
C3583 C 0.7926 0.98736 0.75365 0.0
C3584 C 0.77031 0.97916 0.76302 0.0
C3585 C 0.83391 0.00369 0.7351 0.0
C3586 C 0.8136 0.99463 0.72522 0.0
C3587 C 0.7932 0.98643 0.73457 0.0
C3588 C 0.81315 0.9936 0.70511 0.0
C3589 C 0.85619 0.01203 0.72567 0.0
C3590 C 0.82309 0.01338 0.69478 0.0
C3591 C 0.82254 0.01237 0.67576 0.0
C3592 C 0.81195 0.99152 0.66674 0.0
C3593 C 0.8018 0.97172 0.67721 0.0
C3594 C 0.80233 0.97277 0.69624 0.0
H3595 H 0.86938 0.01358 0.73528 0.0
H3596 H 0.85471 0.00061 0.71437 0.0
H3597 H 0.86172 0.02885 0.71976 0.0
H3598 H 0.83118 0.02961 0.70144 0.0
H3599 H 0.83048 0.02795 0.66815 0.0
H3600 H 0.6285 0.4916 0.64909 0.0
H3601 H 0.63011 0.49272 0.61582 0.0
H3602 H 0.7023 0.53236 0.61793 0.0
H3603 H 0.70095 0.53164 0.65125 0.0
H3604 H 0.68237 0.54923 0.59419 0.0
H3605 H 0.65026 0.45848 0.5822 0.0
H3606 H 0.63265 0.4644 0.59649 0.0
H3607 H 0.66021 0.47151 0.60422 0.0
C3608 C 0.64476 0.5005 0.64253 0.0
C3609 C 0.66461 0.5115 0.65288 0.0
C3610 C 0.64563 0.50099 0.6235 0.0
C3611 C 0.66633 0.51232 0.61448 0.0
C3612 C 0.68616 0.52342 0.6247 0.0
H3613 H 0.70789 0.53784 0.50135 0.0
H3614 H 0.70625 0.53592 0.53462 0.0
C3615 C 0.68534 0.52298 0.64374 0.0
C3616 C 0.66727 0.51325 0.59435 0.0
H3617 H 0.65395 0.48064 0.55617 0.0
C3618 C 0.67628 0.53427 0.58585 0.0
C3619 C 0.65924 0.49365 0.58359 0.0
C3620 C 0.65022 0.47074 0.59205 0.0
C3621 C 0.67715 0.5362 0.56679 0.0
C3622 C 0.66907 0.51662 0.55604 0.0
C3623 C 0.66006 0.49559 0.56452 0.0
C3624 C 0.67 0.51763 0.53593 0.0
C3625 C 0.68628 0.55912 0.55829 0.0
C3626 C 0.65012 0.50753 0.52572 0.0
C3627 C 0.65095 0.50851 0.50668 0.0
C3628 C 0.67171 0.5195 0.49755 0.0
C3629 C 0.6916 0.52935 0.5079 0.0
C3630 C 0.69073 0.52837 0.52692 0.0
H3631 H 0.68682 0.57159 0.56822 0.0
H3632 H 0.70364 0.5651 0.55343 0.0
H3633 H 0.67599 0.55843 0.54637 0.0
H3634 H 0.63397 0.49905 0.53249 0.0
H3635 H 0.63531 0.50066 0.49916 0.0
H3636 H 0.45426 0.13629 0.65382 0.0
H3637 H 0.45404 0.1375 0.62048 0.0
H3638 H 0.52556 0.1632 0.61985 0.0
H3639 H 0.52549 0.16053 0.65316 0.0
H3640 H 0.47202 0.16986 0.59786 0.0
H3641 H 0.50725 0.11462 0.58376 0.0
H3642 H 0.49896 0.11788 0.60636 0.0
H3643 H 0.52596 0.1383 0.59736 0.0
C3644 C 0.46987 0.142 0.64651 0.0
C3645 C 0.48985 0.14811 0.65594 0.0
C3646 C 0.46976 0.14272 0.62749 0.0
C3647 C 0.48971 0.15001 0.6176 0.0
C3648 C 0.50982 0.15674 0.6271 0.0
H3649 H 0.49833 0.19082 0.50354 0.0
H3650 H 0.50095 0.19045 0.53685 0.0
C3651 C 0.50982 0.1554 0.64612 0.0
C3652 C 0.48942 0.15111 0.5974 0.0
H3653 H 0.50532 0.13546 0.55857 0.0
C3654 C 0.47915 0.16217 0.58927 0.0
C3655 C 0.49846 0.14084 0.58617 0.0
C3656 C 0.50804 0.12704 0.59386 0.0
C3657 C 0.47754 0.16316 0.57026 0.0
C3658 C 0.48752 0.15381 0.55903 0.0
C3659 C 0.49788 0.14284 0.56717 0.0
C3660 C 0.48671 0.15442 0.53883 0.0
C3661 C 0.46445 0.17351 0.56254 0.0
C3662 C 0.47889 0.13449 0.5288 0.0
C3663 C 0.47818 0.13482 0.50979 0.0
C3664 C 0.48486 0.15502 0.5005 0.0
C3665 C 0.49277 0.17499 0.51047 0.0
C3666 C 0.49409 0.17475 0.52948 0.0
H3667 H 0.4521 0.17303 0.57257 0.0
H3668 H 0.47619 0.19138 0.5592 0.0
H3669 H 0.45529 0.16474 0.54995 0.0
H3670 H 0.47316 0.1186 0.53569 0.0
H3671 H 0.47196 0.1192 0.50237 0.0
H3672 H 0.86835 0.36979 0.50294 0.0
H3673 H 0.8695 0.37043 0.53629 0.0
H3674 H 0.82908 0.29828 0.5375 0.0
H3675 H 0.82787 0.29732 0.5042 0.0
H3676 H 0.8317 0.35222 0.56097 0.0
H3677 H 0.8849 0.31302 0.56916 0.0
H3678 H 0.88293 0.32519 0.54789 0.0
H3679 H 0.86071 0.29804 0.55476 0.0
C3680 C 0.85974 0.35403 0.51026 0.0
C3681 C 0.84811 0.33349 0.50086 0.0
C3682 C 0.86041 0.35445 0.5293 0.0
C3683 C 0.84963 0.33439 0.53925 0.0
C3684 C 0.83781 0.3139 0.52999 0.0
H3685 H 0.83591 0.30191 0.65437 0.0
H3686 H 0.83412 0.30093 0.62105 0.0
C3687 C 0.83707 0.31343 0.51096 0.0
C3688 C 0.85044 0.33491 0.55936 0.0
H3689 H 0.86958 0.31896 0.59609 0.0
C3690 C 0.84004 0.34504 0.56869 0.0
C3691 C 0.86126 0.32542 0.56927 0.0
C3692 C 0.87326 0.31494 0.55981 0.0
C3693 C 0.83989 0.34566 0.58781 0.0
C3694 C 0.85084 0.33629 0.59774 0.0
C3695 C 0.8612 0.32611 0.58839 0.0
C3696 C 0.8519 0.33701 0.61787 0.0
C3697 C 0.82765 0.35592 0.59721 0.0
C3698 C 0.86278 0.35765 0.62702 0.0
C3699 C 0.86381 0.35831 0.64604 0.0
C3700 C 0.85413 0.33831 0.65625 0.0
C3701 C 0.84352 0.31764 0.64696 0.0
C3702 C 0.84247 0.31702 0.62793 0.0
H3703 H 0.81533 0.35685 0.58798 0.0
H3704 H 0.81868 0.34615 0.60953 0.0
H3705 H 0.83996 0.37325 0.60156 0.0
H3706 H 0.87059 0.37326 0.61945 0.0
H3707 H 0.87224 0.37453 0.65272 0.0
H3708 H 0.62984 0.13276 0.0037 0.0
H3709 H 0.62841 0.13357 0.03699 0.0
H3710 H 0.7007 0.17023 0.03921 0.0
H3711 H 0.70241 0.16981 0.00595 0.0
H3712 H 0.64671 0.11628 0.06197 0.0
H3713 H 0.68299 0.20818 0.07073 0.0
H3714 H 0.67264 0.19427 0.04907 0.0
H3715 H 0.69978 0.20041 0.05716 0.0
C3716 C 0.64547 0.14108 0.01123 0.0
C3717 C 0.66625 0.15129 0.00211 0.0
C3718 C 0.64459 0.14151 0.03024 0.0
C3719 C 0.66444 0.15225 0.04048 0.0
C3720 C 0.68519 0.16227 0.0315 0.0
H3721 H 0.69541 0.16795 0.15576 0.0
H3722 H 0.69662 0.16806 0.12242 0.0
C3723 C 0.68612 0.16189 0.01248 0.0
C3724 C 0.66342 0.15234 0.0606 0.0
H3725 H 0.67816 0.18694 0.09763 0.0
C3726 C 0.65346 0.1317 0.06979 0.0
C3727 C 0.6723 0.17252 0.07068 0.0
C3728 C 0.68236 0.19511 0.06144 0.0
C3729 C 0.65249 0.1307 0.08889 0.0
C3730 C 0.66144 0.15089 0.09897 0.0
C3731 C 0.67138 0.17153 0.08979 0.0
C3732 C 0.66058 0.1509 0.11908 0.0
C3733 C 0.64232 0.10813 0.09817 0.0
C3734 C 0.6399 0.14148 0.12813 0.0
C3735 C 0.6391 0.14137 0.14716 0.0
C3736 C 0.65902 0.15077 0.15747 0.0
C3737 C 0.67975 0.16047 0.14828 0.0
C3738 C 0.6805 0.1606 0.12924 0.0
H3739 H 0.64102 0.09485 0.08877 0.0
H3740 H 0.6524 0.10883 0.11025 0.0
H3741 H 0.62517 0.10325 0.10293 0.0
H3742 H 0.62437 0.13427 0.12046 0.0
H3743 H 0.62286 0.13386 0.15376 0.0
H3744 H 0.85582 0.48701 0.15262 0.0
H3745 H 0.85459 0.48671 0.11924 0.0
H3746 H 0.84042 0.54103 0.11988 0.0
H3747 H 0.84148 0.5415 0.15325 0.0
H3748 H 0.81528 0.48309 0.09628 0.0
H3749 H 0.89854 0.55995 0.08612 0.0
H3750 H 0.89159 0.54316 0.10663 0.0
H3751 H 0.88003 0.5611 0.10292 0.0
C3752 C 0.85248 0.49894 0.14569 0.0
C3753 C 0.84881 0.51433 0.15561 0.0
C3754 C 0.85173 0.49868 0.12665 0.0
C3755 C 0.84756 0.51393 0.11725 0.0
C3756 C 0.84381 0.52924 0.12701 0.0
H3757 H 0.81689 0.52208 0.0041 0.0
H3758 H 0.81752 0.52106 0.03746 0.0
C3759 C 0.84437 0.52943 0.14605 0.0
C3760 C 0.84706 0.51381 0.09717 0.0
H3761 H 0.87662 0.54331 0.05979 0.0
C3762 C 0.82865 0.4962 0.08825 0.0
C3763 C 0.86466 0.53092 0.0869 0.0
C3764 C 0.88495 0.54985 0.09603 0.0
C3765 C 0.82725 0.49545 0.06915 0.0
C3766 C 0.8447 0.51274 0.05889 0.0
C3767 C 0.86326 0.53017 0.06781 0.0
C3768 C 0.84406 0.51296 0.03881 0.0
C3769 C 0.8073 0.47613 0.06002 0.0
C3770 C 0.85893 0.50892 0.02867 0.0
C3771 C 0.8586 0.50941 0.00964 0.0
C3772 C 0.84354 0.51421 0.00045 0.0
C3773 C 0.82873 0.51838 0.01074 0.0
C3774 C 0.82897 0.51771 0.02977 0.0
H3775 H 0.79711 0.46234 0.06974 0.0
H3776 H 0.79643 0.48219 0.05411 0.0
H3777 H 0.81286 0.46936 0.04867 0.0
H3778 H 0.87074 0.50533 0.03551 0.0
H3779 H 0.87029 0.50621 0.00216 0.0
H3780 H 0.46897 0.3548 0.00015 0.0
H3781 H 0.46967 0.35679 0.03351 0.0
H3782 H 0.49619 0.31168 0.03565 0.0
H3783 H 0.49403 0.30851 0.00239 0.0
H3784 H 0.46598 0.29996 0.05988 0.0
H3785 H 0.52111 0.3918 0.06616 0.0
H3786 H 0.49631 0.38506 0.05344 0.0
H3787 H 0.51609 0.37751 0.04458 0.0
C3788 C 0.47502 0.34542 0.00781 0.0
C3789 C 0.4815 0.33156 -0.00117 0.0
C3790 C 0.4756 0.3467 0.02684 0.0
C3791 C 0.4835 0.33482 0.0371 0.0
C3792 C 0.49008 0.32105 0.02804 0.0
H3793 H 0.52068 0.36326 0.15104 0.0
H3794 H 0.52007 0.36053 0.11776 0.0
C3795 C 0.48887 0.31925 0.00907 0.0
C3796 C 0.48416 0.336 0.05729 0.0
H3797 H 0.50192 0.37233 0.09323 0.0
C3798 C 0.47404 0.3158 0.06717 0.0
C3799 C 0.49498 0.35664 0.06683 0.0
C3800 C 0.50794 0.37894 0.05719 0.0
C3801 C 0.47435 0.31564 0.08628 0.0
C3802 C 0.48403 0.33629 0.09581 0.0
C3803 C 0.49424 0.35649 0.08594 0.0
C3804 C 0.48427 0.33744 0.116 0.0
C3805 C 0.46491 0.29334 0.09594 0.0
C3806 C 0.46435 0.32549 0.12609 0.0
C3807 C 0.46481 0.32652 0.14512 0.0
C3808 C 0.48506 0.34019 0.15429 0.0
C3809 C 0.50486 0.35265 0.14422 0.0
C3810 C 0.5045 0.35111 0.12524 0.0
H3811 H 0.46534 0.28049 0.08703 0.0
H3812 H 0.47434 0.29477 0.10863 0.0
H3813 H 0.44711 0.28721 0.09953 0.0
H3814 H 0.44841 0.31548 0.11927 0.0
H3815 H 0.44929 0.31702 0.15265 0.0
H3816 H 0.37262 0.86303 0.83766 0.0
H3817 H 0.37072 0.86149 0.87094 0.0
H3818 H 0.29846 0.82633 0.86845 0.0
H3819 H 0.30005 0.82759 0.83514 0.0
H3820 H 0.34924 0.87934 0.89351 0.0
H3821 H 0.31336 0.78743 0.90265 0.0
H3822 H 0.32659 0.80175 0.88168 0.0
H3823 H 0.29859 0.79554 0.88697 0.0
C3824 C 0.35629 0.85484 0.84414 0.0
C3825 C 0.33648 0.84541 0.8337 0.0
C3826 C 0.35527 0.85401 0.86315 0.0
C3827 C 0.33446 0.84358 0.87205 0.0
C3828 C 0.31466 0.83413 0.86176 0.0
H3829 H 0.29382 0.82465 0.98538 0.0
H3830 H 0.29528 0.82489 0.95206 0.0
C3831 C 0.31564 0.83499 0.84273 0.0
C3832 C 0.33353 0.84335 0.89216 0.0
H3833 H 0.31647 0.80857 0.92912 0.0
C3834 C 0.34217 0.86391 0.90134 0.0
C3835 C 0.32418 0.82314 0.9022 0.0
C3836 C 0.31529 0.80069 0.89293 0.0
C3837 C 0.34143 0.86478 0.92041 0.0
C3838 C 0.33222 0.84458 0.93049 0.0
C3839 C 0.32352 0.82401 0.92129 0.0
C3840 C 0.33149 0.84444 0.95062 0.0
C3841 C 0.35009 0.88727 0.92958 0.0
C3842 C 0.35141 0.8551 0.96076 0.0
C3843 C 0.35068 0.85509 0.97979 0.0
C3844 C 0.32998 0.84423 0.98901 0.0
C3845 C 0.31005 0.83324 0.97874 0.0
C3846 C 0.31083 0.83333 0.95971 0.0
H3847 H 0.35109 0.90018 0.91992 0.0
H3848 H 0.33921 0.88604 0.94124 0.0
H3849 H 0.36722 0.89306 0.93491 0.0
H3850 H 0.36754 0.86337 0.95395 0.0
H3851 H 0.36636 0.86355 0.98724 0.0
H3852 H 0.13379 0.49864 0.99056 0.0
H3853 H 0.13383 0.49928 0.95721 0.0
H3854 H 0.17159 0.46473 0.95618 0.0
H3855 H 0.17155 0.46381 0.98949 0.0
H3856 H 0.172 0.51809 0.93317 0.0
H3857 H 0.11636 0.42627 0.92332 0.0
H3858 H 0.11845 0.44005 0.94481 0.0
H3859 H 0.14006 0.43417 0.93802 0.0
C3860 C 0.14207 0.49112 0.98328 0.0
C3861 C 0.15255 0.48105 0.99274 0.0
C3862 C 0.14209 0.49154 0.96423 0.0
C3863 C 0.15244 0.48179 0.95431 0.0
C3864 C 0.16318 0.47201 0.96364 0.0
H3865 H 0.16832 0.46432 0.83939 0.0
H3866 H 0.16946 0.46485 0.87272 0.0
C3867 C 0.16322 0.4716 0.98268 0.0
C3868 C 0.15222 0.48205 0.93417 0.0
H3869 H 0.13321 0.44794 0.89683 0.0
C3870 C 0.16347 0.50279 0.92518 0.0
C3871 C 0.1411 0.46201 0.9239 0.0
C3872 C 0.12813 0.43934 0.93296 0.0
C3873 C 0.16421 0.50403 0.90607 0.0
C3874 C 0.15303 0.48399 0.89578 0.0
C3875 C 0.14178 0.46325 0.9048 0.0
C3876 C 0.15266 0.48414 0.87563 0.0
C3877 C 0.17733 0.52671 0.89706 0.0
C3878 C 0.14263 0.49463 0.86628 0.0
C3879 C 0.14197 0.49442 0.84724 0.0
C3880 C 0.15118 0.48352 0.83719 0.0
C3881 C 0.16107 0.47287 0.84666 0.0
C3882 C 0.16175 0.47315 0.86571 0.0
H3883 H 0.18957 0.53954 0.9066 0.0
H3884 H 0.18652 0.52586 0.8849 0.0
H3885 H 0.16556 0.53233 0.8925 0.0
H3886 H 0.1351 0.5028 0.87373 0.0
H3887 H 0.13411 0.50268 0.84043 0.0
H3888 H 0.5338 0.70327 0.98557 0.0
H3889 H 0.53322 0.7014 0.95231 0.0
H3890 H 0.49862 0.62913 0.95478 0.0
H3891 H 0.49933 0.63073 0.98812 0.0
H3892 H 0.53497 0.64778 0.93052 0.0
H3893 H 0.47868 0.6828 0.91933 0.0
H3894 H 0.50266 0.69998 0.93334 0.0
H3895 H 0.48172 0.67272 0.94129 0.0
C3896 C 0.52599 0.68693 0.97909 0.0
C3897 C 0.51653 0.66713 0.98956 0.0
C3898 C 0.52558 0.68593 0.96007 0.0
C3899 C 0.51555 0.66513 0.95114 0.0
C3900 C 0.50632 0.64534 0.96147 0.0
H3901 H 0.49612 0.62329 0.83795 0.0
H3902 H 0.49684 0.62499 0.87123 0.0
C3903 C 0.50674 0.64631 0.98051 0.0
C3904 C 0.5152 0.66407 0.93099 0.0
H3905 H 0.49643 0.67847 0.89308 0.0
C3906 C 0.52645 0.65437 0.92231 0.0
C3907 C 0.50408 0.67273 0.92039 0.0
C3908 C 0.49092 0.68247 0.92903 0.0
C3909 C 0.52723 0.65344 0.90323 0.0
C3910 C 0.5162 0.66219 0.89264 0.0
C3911 C 0.50493 0.67187 0.9013 0.0
C3912 C 0.51596 0.66123 0.87251 0.0
C3913 C 0.54019 0.64352 0.89453 0.0
C3914 C 0.52611 0.6811 0.86226 0.0
C3915 C 0.5257 0.68024 0.84321 0.0
C3916 C 0.51496 0.65946 0.83409 0.0
C3917 C 0.50463 0.63959 0.84448 0.0
C3918 C 0.5051 0.64049 0.86351 0.0
H3919 H 0.55195 0.64245 0.90431 0.0
H3920 H 0.52825 0.62629 0.8897 0.0
H3921 H 0.54988 0.65362 0.88255 0.0
H3922 H 0.53444 0.69727 0.86902 0.0
H3923 H 0.53374 0.69587 0.83567 0.0
H3924 H 0.35063 0.52281 0.34086 0.0
H3925 H 0.3493 0.52249 0.37423 0.0
H3926 H 0.30616 0.4505 0.37354 0.0
H3927 H 0.30621 0.45104 0.34016 0.0
H3928 H 0.29206 0.46665 0.39789 0.0
H3929 H 0.38378 0.50622 0.40753 0.0
H3930 H 0.37681 0.52424 0.39499 0.0
H3931 H 0.37086 0.49768 0.38539 0.0
C3932 C 0.34085 0.50696 0.3479 0.0
C3933 C 0.32862 0.48693 0.33806 0.0
C3934 C 0.34027 0.50675 0.36695 0.0
C3935 C 0.32818 0.48639 0.37644 0.0
C3936 C 0.31571 0.4664 0.36654 0.0
H3937 H 0.35108 0.47219 0.4908 0.0
H3938 H 0.35064 0.47254 0.45742 0.0
C3939 C 0.31574 0.4667 0.3475 0.0
C3940 C 0.32816 0.48587 0.39668 0.0
H3941 H 0.36238 0.5035 0.43398 0.0
C3942 C 0.30746 0.47455 0.40578 0.0
C3943 C 0.34826 0.49582 0.407 0.0
C3944 C 0.37115 0.50644 0.3982 0.0
C3945 C 0.30625 0.47295 0.42486 0.0
C3946 C 0.32629 0.48401 0.4352 0.0
C3947 C 0.347 0.49526 0.42609 0.0
C3948 C 0.3263 0.48368 0.45543 0.0
C3949 C 0.28352 0.45877 0.43359 0.0
C3950 C 0.31299 0.49006 0.46545 0.0
C3951 C 0.31271 0.48918 0.48449 0.0
C3952 C 0.32644 0.48278 0.49381 0.0
C3953 C 0.34039 0.47723 0.48386 0.0
C3954 C 0.34015 0.47744 0.46482 0.0
H3955 H 0.27154 0.44577 0.42401 0.0
H3956 H 0.28465 0.45026 0.44608 0.0
H3957 H 0.27648 0.46963 0.43733 0.0
H3958 H 0.30283 0.49577 0.45858 0.0
H3959 H 0.30207 0.49386 0.49194 0.0
H3960 H 0.54376 0.85858 0.33409 0.0
H3961 H 0.54257 0.8554 0.36736 0.0
H3962 H 0.47125 0.83084 0.36643 0.0
H3963 H 0.47279 0.83558 0.33326 0.0
H3964 H 0.48795 0.85834 0.3923 0.0
H3965 H 0.52307 0.80202 0.39806 0.0
H3966 H 0.54255 0.82723 0.38645 0.0
H3967 H 0.51555 0.80868 0.37634 0.0
C3968 C 0.52786 0.85246 0.34105 0.0
C3969 C 0.50836 0.84728 0.33123 0.0
C3970 C 0.52712 0.8504 0.36002 0.0
C3971 C 0.5067 0.84226 0.36941 0.0
C3972 C 0.48719 0.83705 0.35952 0.0
H3973 H 0.50078 0.80716 0.48474 0.0
H3974 H 0.49637 0.80543 0.4515 0.0
C3975 C 0.48806 0.83976 0.3406 0.0
C3976 C 0.50587 0.84023 0.38959 0.0
H3977 H 0.52395 0.82182 0.42544 0.0
C3978 C 0.49555 0.85006 0.39952 0.0
C3979 C 0.51528 0.82897 0.39908 0.0
C3980 C 0.52447 0.81592 0.38938 0.0
C3981 C 0.49498 0.84954 0.41863 0.0
C3982 C 0.50611 0.84 0.42813 0.0
C3983 C 0.51579 0.82954 0.41821 0.0
C3984 C 0.50819 0.84094 0.4483 0.0
C3985 C 0.48205 0.85888 0.42832 0.0
C3986 C 0.51653 0.86147 0.45756 0.0
C3987 C 0.5184 0.86233 0.47653 0.0
C3988 C 0.51282 0.84283 0.48651 0.0
C3989 C 0.50522 0.82242 0.47727 0.0
C3990 C 0.5027 0.82144 0.45833 0.0
H3991 H 0.46819 0.85756 0.41965 0.0
H3992 H 0.47479 0.85 0.44138 0.0
H3993 H 0.49345 0.87695 0.43124 0.0
H3994 H 0.52176 0.87689 0.45012 0.0
H3995 H 0.52464 0.87832 0.48338 0.0
H3996 H 0.12713 0.62767 0.33783 0.0
H3997 H 0.12846 0.62926 0.37112 0.0
H3998 H 0.16551 0.70156 0.36901 0.0
H3999 H 0.16406 0.70026 0.33571 0.0
H4000 H 0.16642 0.64887 0.39363 0.0
H4001 H 0.1136 0.68807 0.40379 0.0
H4002 H 0.11466 0.67562 0.38239 0.0
H4003 H 0.13686 0.70315 0.38854 0.0
C4004 C 0.13548 0.64394 0.3444 0.0
C4005 C 0.14539 0.66385 0.33405 0.0
C4006 C 0.13623 0.64479 0.36343 0.0
C4007 C 0.14679 0.66552 0.37247 0.0
C4008 C 0.15688 0.68541 0.36225 0.0
H4009 H 0.17251 0.70625 0.48557 0.0
H4010 H 0.17136 0.70447 0.45227 0.0
C4011 C 0.15611 0.6846 0.34321 0.0
C4012 C 0.14774 0.66629 0.39261 0.0
H4013 H 0.13211 0.68482 0.42995 0.0
C4014 C 0.15884 0.65663 0.4016 0.0
C4015 C 0.13782 0.67645 0.4029 0.0
C4016 C 0.12488 0.68624 0.39396 0.0
C4017 C 0.16063 0.65719 0.42068 0.0
C4018 C 0.15079 0.66741 0.43095 0.0
C4019 C 0.13967 0.67706 0.42197 0.0
C4020 C 0.15179 0.66825 0.45107 0.0
C4021 C 0.17341 0.64725 0.42968 0.0
C4022 C 0.141 0.64844 0.46135 0.0
C4023 C 0.14158 0.64935 0.48039 0.0
C4024 C 0.15291 0.67013 0.48948 0.0
C4025 C 0.16367 0.68995 0.47906 0.0
C4026 C 0.16303 0.689 0.46003 0.0
H4027 H 0.18428 0.64482 0.41982 0.0
H4028 H 0.18401 0.65814 0.44099 0.0
H4029 H 0.16132 0.63063 0.43552 0.0
H4030 H 0.13192 0.63229 0.45464 0.0
H4031 H 0.13306 0.63376 0.48796 0.0
H4032 H 0.10844 0.39853 0.04541 0.0
H4033 H 0.07663 0.36198 0.05272 0.0
H4034 H 0.0406 0.39345 0.07383 0.0
H4035 H 0.07274 0.43051 0.06663 0.0
H4036 H 0.04226 0.36387 0.09799 0.0
H4037 H 0.0148 0.32268 0.03103 0.0
H4038 H 0.04469 0.33565 0.03298 0.0
H4039 H 0.03168 0.35281 0.0334 0.0
C4040 C 0.09366 0.39777 0.05135 0.0
C4041 C 0.0932 0.41747 0.05553 0.0
C4042 C 0.07534 0.37679 0.05533 0.0
C4043 C 0.05607 0.37496 0.0635 0.0
C4044 C 0.05522 0.39452 0.06729 0.0
H4045 H 0.97132 0.23131 0.0881 0.0
H4046 H 0.97722 0.26848 0.07981 0.0
C4047 C 0.07359 0.41564 0.06318 0.0
C4048 C 0.03838 0.3527 0.07004 0.0
H4049 H 0.0108 0.2979 0.05672 0.0
C4050 C 0.03474 0.34948 0.08892 0.0
C4051 C 0.0281 0.33395 0.05824 0.0
C4052 C 0.02983 0.33651 0.03777 0.0
C4053 C 0.02331 0.32783 0.0964 0.0
C4054 C 0.01571 0.30907 0.0847 0.0
C4055 C 0.017 0.31229 0.06574 0.0
C4056 C 0.01037 0.28676 0.09173 0.0
C4057 C 0.02067 0.32527 0.11684 0.0
C4058 C 0.02702 0.28478 0.10117 0.0
C4059 C 0.02382 0.26375 0.10575 0.0
C4060 C 0.00388 0.24414 0.10097 0.0
C4061 C 0.98683 0.24611 0.09205 0.0
C4062 C 0.99015 0.2673 0.0873 0.0
H4063 H 0.01915 0.33923 0.12294 0.0
H4064 H 0.00572 0.30907 0.12069 0.0
H4065 H 0.03579 0.32586 0.12278 0.0
H4066 H 0.04298 0.29951 0.10432 0.0
H4067 H 0.03726 0.26286 0.11267 0.0
H4068 H 0.7634 0.73773 0.09383 0.0
H4069 H 0.72646 0.70594 0.08579 0.0
H4070 H 0.69488 0.74241 0.10566 0.0
H4071 H 0.73124 0.77373 0.11403 0.0
H4072 H 0.67068 0.69673 0.11396 0.0
H4073 H 0.69494 0.71196 0.04046 0.0
H4074 H 0.71144 0.70539 0.05558 0.0
H4075 H 0.71195 0.7316 0.05791 0.0
C4076 C 0.74852 0.73875 0.09682 0.0
C4077 C 0.75031 0.75843 0.1043 0.0
C4078 C 0.72746 0.72063 0.09212 0.0
C4079 C 0.70798 0.72199 0.09485 0.0
C4080 C 0.70969 0.741 0.1034 0.0
H4081 H 0.59722 0.70842 0.04769 0.0
H4082 H 0.63314 0.71321 0.05718 0.0
C4083 C 0.73057 0.759 0.10807 0.0
C4084 C 0.68591 0.70507 0.08736 0.0
H4085 H 0.6568 0.69116 0.04726 0.0
C4086 C 0.6676 0.69486 0.09938 0.0
C4087 C 0.68204 0.70272 0.0683 0.0
C4088 C 0.70103 0.71351 0.05472 0.0
C4089 C 0.64544 0.68425 0.09289 0.0
C4090 C 0.64161 0.68357 0.07387 0.0
C4091 C 0.65988 0.69178 0.06183 0.0
C4092 C 0.61968 0.67903 0.06653 0.0
C4093 C 0.62642 0.67578 0.10645 0.0
C4094 C 0.60016 0.658 0.06827 0.0
C4095 C 0.57934 0.65518 0.0629 0.0
C4096 C 0.57782 0.67338 0.05573 0.0
C4097 C 0.59764 0.69408 0.05331 0.0
C4098 C 0.61828 0.69684 0.05864 0.0
H4099 H 0.63247 0.67941 0.12078 0.0
H4100 H 0.61593 0.68358 0.10379 0.0
H4101 H 0.61557 0.65736 0.10494 0.0
H4102 H 0.60095 0.64396 0.07413 0.0
H4103 H 0.56442 0.63899 0.06487 0.0
H4104 H 0.2581 0.02403 0.08808 0.0
H4105 H 0.28822 0.01636 0.08011 0.0
H4106 H 0.24725 0.94795 0.0982 0.0
H4107 H 0.21737 0.9554 0.10643 0.0
H4108 H 0.29307 0.9681 0.10858 0.0
H4109 H 0.28179 0.97825 0.03447 0.0
H4110 H 0.28802 0.0013 0.04952 0.0
H4111 H 0.26152 0.97582 0.05126 0.0
C4112 C 0.25562 0.00743 0.0906 0.0
C4113 C 0.23517 0.99025 0.0977 0.0
C4114 C 0.27283 0.00309 0.08597 0.0
C4115 C 0.26981 0.98153 0.08836 0.0
C4116 C 0.24989 0.96471 0.09624 0.0
H4117 H 0.28728 0.88426 0.0436 0.0
H4118 H 0.28075 0.91465 0.05209 0.0
C4119 C 0.23276 0.96899 0.10085 0.0
C4120 C 0.28634 0.97549 0.08157 0.0
H4121 H 0.30245 0.96095 0.04225 0.0
C4122 C 0.29572 0.96708 0.0941 0.0
C4123 C 0.28967 0.97422 0.06266 0.0
C4124 C 0.2797 0.98275 0.0486 0.0
C4125 C 0.30679 0.95575 0.08818 0.0
C4126 C 0.3087 0.95308 0.06925 0.0
C4127 C 0.30097 0.96314 0.05675 0.0
C4128 C 0.31434 0.93633 0.0623 0.0
C4129 C 0.31461 0.94506 0.10218 0.0
C4130 C 0.33563 0.9387 0.06482 0.0
C4131 C 0.33946 0.92119 0.05999 0.0
C4132 C 0.322 0.90109 0.05265 0.0
C4133 C 0.30105 0.89936 0.0494 0.0
C4134 C 0.2973 0.91678 0.05415 0.0
H4135 H 0.31001 0.94706 0.11631 0.0
H4136 H 0.30721 0.92687 0.09929 0.0
H4137 H 0.33312 0.95289 0.10145 0.0
H4138 H 0.34906 0.95379 0.07092 0.0
H4139 H 0.35581 0.92308 0.06261 0.0
H4140 H 0.26288 0.04304 0.37219 0.0
H4141 H 0.29928 0.05061 0.38333 0.0
H4142 H 0.26828 0.98622 0.41018 0.0
H4143 H 0.2314 0.97845 0.3991 0.0
H4144 H 0.29543 0.02193 0.43305 0.0
H4145 H 0.34114 0.02698 0.36974 0.0
H4146 H 0.32729 0.04309 0.36781 0.0
H4147 H 0.31087 0.01312 0.3707 0.0
C4148 C 0.26375 0.03028 0.38022 0.0
C4149 C 0.2442 0.01017 0.38481 0.0
C4150 C 0.28465 0.03456 0.38644 0.0
C4151 C 0.28653 0.01884 0.39734 0.0
C4152 C 0.26718 0.99846 0.4016 0.0
H4153 H 0.42762 0.07587 0.42914 0.0
H4154 H 0.38988 0.0459 0.42105 0.0
C4155 C 0.24616 0.99405 0.39524 0.0
C4156 C 0.30844 0.02516 0.40577 0.0
H4157 H 0.36399 0.05002 0.39511 0.0
C4158 C 0.3104 0.02751 0.42481 0.0
C4159 C 0.3279 0.03202 0.39508 0.0
C4160 C 0.32667 0.02844 0.37471 0.0
C4161 C 0.33151 0.03851 0.43326 0.0
C4162 C 0.35105 0.04764 0.42232 0.0
C4163 C 0.34901 0.04334 0.40349 0.0
C4164 C 0.37339 0.06414 0.42961 0.0
C4165 C 0.33269 0.04106 0.45374 0.0
C4166 C 0.3766 0.08424 0.43722 0.0
C4167 C 0.39806 0.10139 0.44181 0.0
C4168 C 0.41686 0.09887 0.43875 0.0
C4169 C 0.41353 0.07838 0.43171 0.0
C4170 C 0.39198 0.06121 0.42708 0.0
H4171 H 0.31787 0.02682 0.46035 0.0
H4172 H 0.34816 0.04203 0.4593 0.0
H4173 H 0.33267 0.05669 0.45743 0.0
H4174 H 0.36259 0.08711 0.43888 0.0
H4175 H 0.39995 0.11689 0.44719 0.0
H4176 H 0.02193 0.25976 0.39379 0.0
H4177 H 0.01553 0.29059 0.40232 0.0
H4178 H 0.94537 0.24933 0.3892 0.0
H4179 H 0.95151 0.21873 0.38047 0.0
H4180 H 0.96527 0.29472 0.37692 0.0
H4181 H 0.98219 0.28753 0.45035 0.0
H4182 H 0.00345 0.29222 0.43382 0.0
H4183 H 0.97756 0.26598 0.43405 0.0
C4184 C 0.00519 0.25735 0.39251 0.0
C4185 C 0.98718 0.23665 0.38662 0.0
C4186 C 0.00158 0.27496 0.39745 0.0
C4187 C 0.97995 0.27211 0.39656 0.0
C4188 C 0.9622 0.25185 0.38998 0.0
H4189 H 0.88742 0.29257 0.4459 0.0
H4190 H 0.91727 0.28576 0.43625 0.0
C4191 C 0.96574 0.23431 0.38508 0.0
C4192 C 0.97493 0.2893 0.40351 0.0
H4193 H 0.96423 0.30782 0.44338 0.0
C4194 C 0.96561 0.2982 0.39139 0.0
C4195 C 0.97545 0.29372 0.4224 0.0
C4196 C 0.9851 0.28436 0.43602 0.0
C4197 C 0.95503 0.30979 0.39781 0.0
C4198 C 0.95407 0.31274 0.41683 0.0
C4199 C 0.9651 0.30554 0.42881 0.0
C4200 C 0.93796 0.31877 0.4246 0.0
C4201 C 0.94326 0.31702 0.38435 0.0
C4202 C 0.94 0.33988 0.42169 0.0
C4203 C 0.92278 0.34385 0.42718 0.0
C4204 C 0.90332 0.32672 0.43558 0.0
C4205 C 0.90201 0.30605 0.43927 0.0
C4206 C 0.91915 0.30216 0.43387 0.0
H4207 H 0.944 0.31167 0.37018 0.0
H4208 H 0.92538 0.3099 0.38826 0.0
H4209 H 0.95123 0.33557 0.38453 0.0
H4210 H 0.95454 0.35299 0.41473 0.0
H4211 H 0.92433 0.35998 0.4242 0.0
H4212 H 0.77624 0.73344 0.37328 0.0
H4213 H 0.74436 0.69762 0.38202 0.0
H4214 H 0.71097 0.73136 0.40403 0.0
H4215 H 0.74326 0.76772 0.39541 0.0
H4216 H 0.71312 0.70263 0.42845 0.0
H4217 H 0.68128 0.65806 0.36333 0.0
H4218 H 0.71119 0.67049 0.364 0.0
H4219 H 0.69882 0.68823 0.3645 0.0
C4220 C 0.762 0.73333 0.3797 0.0
C4221 C 0.76236 0.75347 0.38374 0.0
C4222 C 0.74362 0.71275 0.3845 0.0
C4223 C 0.72508 0.71175 0.39338 0.0
C4224 C 0.725 0.73176 0.39697 0.0
H4225 H 0.64288 0.5694 0.42197 0.0
H4226 H 0.64754 0.606 0.41341 0.0
C4227 C 0.74343 0.75249 0.39203 0.0
C4228 C 0.70757 0.68996 0.40089 0.0
H4229 H 0.67907 0.63451 0.38955 0.0
C4230 C 0.70502 0.68777 0.41991 0.0
C4231 C 0.69647 0.6706 0.38981 0.0
C4232 C 0.69689 0.67203 0.36926 0.0
C4233 C 0.69398 0.66655 0.42818 0.0
C4234 C 0.6857 0.64715 0.41713 0.0
C4235 C 0.68582 0.64937 0.39808 0.0
C4236 C 0.68093 0.62525 0.42474 0.0
C4237 C 0.69247 0.66513 0.44871 0.0
C4238 C 0.69807 0.62396 0.43404 0.0
C4239 C 0.69554 0.60324 0.43882 0.0
C4240 C 0.67583 0.58324 0.43433 0.0
C4241 C 0.65823 0.58451 0.42569 0.0
C4242 C 0.66086 0.60538 0.42078 0.0
H4243 H 0.69085 0.6792 0.45445 0.0
H4244 H 0.67799 0.64901 0.45335 0.0
H4245 H 0.70811 0.66652 0.45429 0.0
H4246 H 0.71394 0.63897 0.43682 0.0
H4247 H 0.7094 0.6029 0.44552 0.0
H4248 H 0.92043 0.56474 0.92361 0.0
H4249 H 0.95133 0.60181 0.9147 0.0
H4250 H 0.91637 0.6329 0.93868 0.0
H4251 H 0.88579 0.59632 0.94768 0.0
H4252 H 0.94617 0.6298 0.89101 0.0
H4253 H 0.98005 0.67415 0.95603 0.0
H4254 H 0.96349 0.64391 0.95466 0.0
H4255 H 0.95003 0.66058 0.95614 0.0
C4256 C 0.91962 0.57954 0.92735 0.0
C4257 C 0.9006 0.57759 0.93627 0.0
C4258 C 0.93727 0.60067 0.92225 0.0
C4259 C 0.93631 0.62012 0.92629 0.0
C4260 C 0.91775 0.61819 0.93582 0.0
H4261 H 0.95051 0.73093 0.87591 0.0
H4262 H 0.94493 0.69442 0.88462 0.0
C4263 C 0.90012 0.59719 0.94078 0.0
C4264 C 0.95287 0.64221 0.91864 0.0
H4265 H 0.98118 0.69757 0.9303 0.0
C4266 C 0.95445 0.6446 0.89959 0.0
C4267 C 0.9641 0.66149 0.92979 0.0
C4268 C 0.96453 0.65985 0.9503 0.0
C4269 C 0.96485 0.66589 0.89145 0.0
C4270 C 0.97351 0.68515 0.90269 0.0
C4271 C 0.97416 0.68279 0.92167 0.0
C4272 C 0.97845 0.70722 0.89539 0.0
C4273 C 0.96539 0.66753 0.87092 0.0
C4274 C -0.00088 0.72666 0.8987 0.0
C4275 C 0.00237 0.74775 0.89379 0.0
C4276 C 0.98482 0.74971 0.88577 0.0
C4277 C 0.96437 0.73009 0.88208 0.0
C4278 C 0.96122 0.70912 0.88688 0.0
H4279 H 0.96626 0.65329 0.86464 0.0
H4280 H 0.94972 0.66671 0.86606 0.0
H4281 H 0.9799 0.68352 0.86611 0.0
H4282 H 0.01253 0.72555 0.90546 0.0
H4283 H 0.0183 0.76253 0.89689 0.0
H4284 H 0.39982 0.29233 0.95218 0.0
H4285 H 0.36237 0.28185 0.94115 0.0
H4286 H 0.39112 0.33614 0.90226 0.0
H4287 H 0.42881 0.34718 0.91363 0.0
H4288 H 0.34822 0.32687 0.91737 0.0
H4289 H 0.34774 0.25131 0.89055 0.0
H4290 H 0.35289 0.25501 0.91465 0.0
H4291 H 0.37284 0.27539 0.89901 0.0
C4292 C 0.39815 0.30235 0.94156 0.0
C4293 C 0.4172 0.32033 0.93355 0.0
C4294 C 0.37677 0.29636 0.93528 0.0
C4295 C 0.37409 0.30793 0.92064 0.0
C4296 C 0.39291 0.32697 0.91354 0.0
H4297 H 0.25454 0.22897 0.85676 0.0
H4298 H 0.29318 0.25737 0.86399 0.0
C4299 C 0.41439 0.33323 0.92003 0.0
C4300 C 0.35208 0.29833 0.91146 0.0
H4301 H 0.3129 0.25057 0.89046 0.0
C4302 C 0.34049 0.31029 0.91128 0.0
C4303 C 0.34237 0.27698 0.90311 0.0
C4304 C 0.35469 0.26401 0.90164 0.0
C4305 C 0.31888 0.30091 0.90365 0.0
C4306 C 0.30859 0.27889 0.89641 0.0
C4307 C 0.32067 0.26742 0.89602 0.0
C4308 C 0.28498 0.26656 0.88996 0.0
C4309 C 0.30742 0.31471 0.90338 0.0
C4310 C 0.26734 0.26307 0.90169 0.0
C4311 C 0.24515 0.24727 0.89727 0.0
C4312 C 0.24046 0.23436 0.88134 0.0
C4313 C 0.25786 0.23877 0.86913 0.0
C4314 C 0.27989 0.25496 0.87328 0.0
H4315 H 0.31987 0.33295 0.90301 0.0
H4316 H 0.29605 0.31047 0.89146 0.0
H4317 H 0.29738 0.31139 0.91604 0.0
H4318 H 0.27079 0.27132 0.91484 0.0
H4319 H 0.23195 0.24388 0.90698 0.0
H4320 H 0.63934 0.07289 0.92718 0.0
H4321 H 0.64471 0.04154 0.91817 0.0
H4322 H 0.71226 0.07707 0.93921 0.0
H4323 H 0.70707 0.10813 0.94832 0.0
H4324 H 0.67624 0.04558 0.8931 0.0
H4325 H 0.69043 0.01392 0.95788 0.0
H4326 H 0.67688 0.03063 0.95692 0.0
H4327 H 0.70706 0.04392 0.95709 0.0
C4328 C 0.65515 0.07376 0.93027 0.0
C4329 C 0.67283 0.09306 0.93839 0.0
C4330 C 0.65817 0.05585 0.9251 0.0
C4331 C 0.67875 0.05683 0.92828 0.0
C4332 C 0.69605 0.07569 0.93702 0.0
H4333 H 0.77152 0.03957 0.87489 0.0
H4334 H 0.74102 0.04557 0.88415 0.0
C4335 C 0.69313 0.09358 0.94205 0.0
C4336 C 0.68359 0.03983 0.92052 0.0
H4337 H 0.71067 0.0113 0.93129 0.0
C4338 C 0.68313 0.03747 0.90147 0.0
C4339 C 0.69211 0.02883 0.93142 0.0
C4340 C 0.69141 0.02926 0.95198 0.0
C4341 C 0.69322 0.02648 0.89299 0.0
C4342 C 0.70428 0.01799 0.90385 0.0
C4343 C 0.70252 0.01815 0.92293 0.0
C4344 C 0.72078 0.01254 0.89595 0.0
C4345 C 0.69298 0.02512 0.87244 0.0
C4346 C 0.71962 0.99195 0.89955 0.0
C4347 C 0.73722 0.98847 0.8943 0.0
C4348 C 0.75639 0.0057 0.88568 0.0
C4349 C 0.75706 0.02597 0.88156 0.0
C4350 C 0.73948 0.02935 0.88667 0.0
H4351 H 0.67756 0.02418 0.86678 0.0
H4352 H 0.70759 0.04051 0.86691 0.0
H4353 H 0.69398 0.01032 0.86768 0.0
H4354 H 0.70544 0.97886 0.90689 0.0
H4355 H 0.73624 0.97269 0.89775 0.0
H4356 H 0.73164 0.95195 0.60909 0.0
H4357 H 0.6962 0.94747 0.59843 0.0
H4358 H 0.73011 0.01573 0.57887 0.0
H4359 H 0.76609 0.02038 0.58937 0.0
H4360 H 0.67317 0.9716 0.60553 0.0
H4361 H 0.69985 0.97675 0.53293 0.0
H4362 H 0.71526 0.97311 0.55125 0.0
H4363 H 0.71674 -0.00033 0.5481 0.0
C4364 C 0.73165 0.96615 0.60269 0.0
C4365 C 0.75176 0.98644 0.59986 0.0
C4366 C 0.71132 0.96359 0.5967 0.0
C4367 C 0.7106 0.98118 0.58771 0.0
C4368 C 0.73041 0.00188 0.58562 0.0
H4369 H 0.569 0.92539 0.55508 0.0
H4370 H 0.60626 0.95634 0.56326 0.0
C4371 C 0.7509 0.00452 0.5917 0.0
C4372 C 0.68916 0.9766 0.57938 0.0
H4373 H 0.66144 0.96038 0.53871 0.0
C4374 C 0.67057 0.96979 0.59089 0.0
C4375 C 0.68599 0.97429 0.56026 0.0
C4376 C 0.70542 0.98124 0.54731 0.0
C4377 C 0.64866 0.95872 0.58392 0.0
C4378 C 0.64541 0.95475 0.56492 0.0
C4379 C 0.66408 0.96349 0.55327 0.0
C4380 C 0.62337 0.93786 0.55748 0.0
C4381 C 0.62918 0.94952 0.59708 0.0
C4382 C 0.62087 0.91764 0.55081 0.0
C4383 C 0.59976 0.90004 0.54607 0.0
C4384 C 0.58064 0.90227 0.5479 0.0
C4385 C 0.58335 0.92304 0.55363 0.0
C4386 C 0.60459 0.94072 0.55837 0.0
H4387 H 0.63473 0.95221 0.61156 0.0
H4388 H 0.61921 0.95792 0.59473 0.0
H4389 H 0.61798 0.93125 0.59481 0.0
H4390 H 0.63518 0.91511 0.55001 0.0
H4391 H 0.5984 0.88441 0.54155 0.0
H4392 H 0.04238 0.77858 0.6065 0.0
H4393 H 0.04855 0.74807 0.59765 0.0
H4394 H 0.97893 0.70772 0.5825 0.0
H4395 H 0.97249 0.73852 0.59121 0.0
H4396 H 0.02703 0.70192 0.60943 0.0
H4397 H 0.01508 0.71209 0.53543 0.0
H4398 H 0.01936 0.73344 0.55183 0.0
H4399 H 0.99323 0.70747 0.55134 0.0
C4400 C 0.02826 0.76323 0.60139 0.0
C4401 C 0.00698 0.76112 0.59938 0.0
C4402 C 0.03182 0.74573 0.59644 0.0
C4403 C 0.01424 0.72575 0.58932 0.0
C4404 C 0.99274 0.72314 0.58783 0.0
H4405 H 0.0749 0.64205 0.56322 0.0
H4406 H 0.0431 0.64713 0.57135 0.0
C4407 C 0.98911 0.74071 0.59286 0.0
C4408 C 0.01943 0.70864 0.5825 0.0
H4409 H 0.03389 0.69279 0.54303 0.0
C4410 C 0.0279 0.69923 0.59494 0.0
C4411 C 0.02046 0.70523 0.56358 0.0
C4412 C 0.01164 0.71508 0.54967 0.0
C4413 C 0.03935 0.68834 0.58891 0.0
C4414 C 0.04209 0.68666 0.56995 0.0
C4415 C 0.03171 0.69414 0.55755 0.0
C4416 C 0.05944 0.68191 0.56295 0.0
C4417 C 0.05027 0.68068 0.60283 0.0
C4418 C 0.07873 0.69953 0.55498 0.0
C4419 C 0.09678 0.69674 0.55034 0.0
C4420 C 0.09595 0.67619 0.55352 0.0
C4421 C 0.07613 0.65813 0.56068 0.0
C4422 C 0.05798 0.661 0.56539 0.0
H4423 H 0.04795 0.68486 0.61701 0.0
H4424 H 0.04288 0.66222 0.60186 0.0
H4425 H 0.06853 0.68856 0.60005 0.0
H4426 H 0.08019 0.71582 0.55301 0.0
H4427 H 0.11164 0.71094 0.54467 0.0
H4428 H 0.35549 0.43088 0.5673 0.0
H4429 H 0.35017 0.39383 0.57498 0.0
H4430 H 0.28343 0.36254 0.55228 0.0
H4431 H 0.2886 0.39914 0.54447 0.0
H4432 H 0.31808 0.36513 0.59885 0.0
H4433 H 0.306 0.32226 0.53287 0.0
H4434 H 0.31944 0.35246 0.53469 0.0
H4435 H 0.28928 0.33553 0.5337 0.0
C4436 C 0.33989 0.41606 0.56356 0.0
C4437 C 0.3224 0.41795 0.55537 0.0
C4438 C 0.3369 0.39494 0.56795 0.0
C4439 C 0.31656 0.37544 0.56393 0.0
C4440 C 0.29949 0.37731 0.5551 0.0
H4441 H 0.22074 0.26499 0.61314 0.0
H4442 H 0.25248 0.30137 0.60525 0.0
C4443 C 0.30238 0.39831 0.55083 0.0
C4444 C 0.31155 0.35329 0.57104 0.0
H4445 H 0.28413 0.29822 0.55859 0.0
C4446 C 0.31134 0.35052 0.59003 0.0
C4447 C 0.30325 0.33427 0.55957 0.0
C4448 C 0.30475 0.33634 0.53906 0.0
C4449 C 0.30063 0.32907 0.59787 0.0
C4450 C 0.28963 0.31007 0.5864 0.0
C4451 C 0.2922 0.31281 0.56741 0.0
C4452 C 0.27227 0.28802 0.59352 0.0
C4453 C 0.30005 0.32699 0.61838 0.0
C4454 C 0.27277 0.26835 0.58946 0.0
C4455 C 0.25446 0.24736 0.59389 0.0
C4456 C 0.23525 0.24577 0.60216 0.0
C4457 C 0.2352 0.26558 0.60672 0.0
C4458 C 0.25349 0.28645 0.60241 0.0
H4459 H 0.31549 0.34091 0.62456 0.0
H4460 H 0.28554 0.32808 0.62375 0.0
H4461 H 0.29833 0.31075 0.62274 0.0
H4462 H 0.28702 0.26923 0.58239 0.0
H4463 H 0.25499 0.23241 0.59013 0.0
H4464 H 0.06885 0.44261 0.7824 0.0
H4465 H 0.03219 0.41195 0.77365 0.0
H4466 H 0.06255 0.37434 0.75372 0.0
H4467 H 0.09969 0.40528 0.76239 0.0
H4468 H 0.03528 0.37843 0.72837 0.0
H4469 H 0.98986 0.3497 0.79362 0.0
H4470 H 0.00397 0.37972 0.79225 0.0
H4471 H 0.02015 0.36567 0.79242 0.0
C4472 C 0.06779 0.4277 0.77643 0.0
C4473 C 0.08723 0.42646 0.77301 0.0
C4474 C 0.04674 0.41005 0.77162 0.0
C4475 C 0.04459 0.3907 0.76332 0.0
C4476 C 0.06385 0.38904 0.76032 0.0
H4477 H 0.90225 0.30958 0.73366 0.0
H4478 H 0.93873 0.31452 0.74296 0.0
C4479 C 0.08502 0.40671 0.76528 0.0
C4480 C 0.0225 0.37385 0.75586 0.0
H4481 H 0.967 0.34712 0.767 0.0
C4482 C 0.02036 0.37095 0.73686 0.0
C4483 C 0.00306 0.36364 0.7669 0.0
C4484 C 0.00442 0.36465 0.78745 0.0
C4485 C -0.00083 0.36028 0.72853 0.0
C4486 C 0.9798 0.35269 0.73949 0.0
C4487 C 0.98189 0.3533 0.75856 0.0
C4488 C 0.95803 0.34791 0.73162 0.0
C4489 C 0.9978 0.35838 0.70801 0.0
C4490 C 0.95685 0.36498 0.72212 0.0
C4491 C 0.93619 0.36231 0.71694 0.0
C4492 C 0.91617 0.3425 0.72121 0.0
C4493 C 0.91738 0.325 0.73011 0.0
C4494 C 0.93817 0.32778 0.73543 0.0
H4495 H 0.0119 0.35671 0.70241 0.0
H4496 H 0.9817 0.34377 0.7035 0.0
H4497 H -0.00092 0.37386 0.70218 0.0
H4498 H 0.97189 0.38086 0.71943 0.0
H4499 H 0.9359 0.37609 0.71006 0.0
H4500 H 0.59131 0.68731 0.75746 0.0
H4501 H 0.62232 0.68168 0.74777 0.0
H4502 H 0.58695 0.61416 0.76892 0.0
H4503 H 0.55636 0.61965 0.77883 0.0
H4504 H 0.63357 0.63683 0.77583 0.0
H4505 H 0.61344 0.64188 0.70282 0.0
H4506 H 0.62029 0.66541 0.7175 0.0
H4507 H 0.59462 0.63946 0.72095 0.0
C4508 C 0.59036 0.67141 0.76032 0.0
C4509 C 0.5712 0.65381 0.76869 0.0
C4510 C 0.60803 0.66821 0.7547 0.0
C4511 C 0.60676 0.64741 0.75742 0.0
C4512 C 0.58826 0.63035 0.76667 0.0
H4513 H 0.62083 0.54925 0.71154 0.0
H4514 H 0.61512 0.57998 0.72059 0.0
C4515 C 0.57069 0.63348 0.77223 0.0
C4516 C 0.62332 0.6421 0.74944 0.0
H4517 H 0.63513 0.6253 0.70916 0.0
C4518 C 0.63455 0.63492 0.76122 0.0
C4519 C 0.62448 0.63965 0.73036 0.0
C4520 C 0.61255 0.64689 0.71708 0.0
C4521 C 0.64516 0.62345 0.75457 0.0
C4522 C 0.64475 0.61941 0.7356 0.0
C4523 C 0.63536 0.62846 0.72369 0.0
C4524 C 0.64966 0.60224 0.72838 0.0
C4525 C 0.65488 0.61395 0.76798 0.0
C4526 C 0.67116 0.60473 0.72938 0.0
C4527 C 0.67451 0.587 0.72426 0.0
C4528 C 0.65639 0.56655 0.71808 0.0
C4529 C 0.63514 0.56462 0.71639 0.0
C4530 C 0.63185 0.58225 0.72146 0.0
H4531 H 0.65192 0.61685 0.78238 0.0
H4532 H 0.64745 0.59562 0.76581 0.0
H4533 H 0.67325 0.62195 0.7658 0.0
H4534 H 0.68517 0.62015 0.73448 0.0
H4535 H 0.69112 0.5891 0.72565 0.0
H4536 H 0.44806 0.06493 0.70891 0.0
H4537 H 0.41753 0.02817 0.71767 0.0
H4538 H 0.38043 0.0584 0.73899 0.0
H4539 H 0.41121 0.09558 0.73041 0.0
H4540 H 0.3846 0.03098 0.76369 0.0
H4541 H 0.35508 0.98613 0.69825 0.0
H4542 H 0.38507 -0.00019 0.6996 0.0
H4543 H 0.37144 0.01638 0.69958 0.0
C4544 C 0.43329 0.06383 0.71518 0.0
C4545 C 0.43217 0.08326 0.71904 0.0
C4546 C 0.4157 0.04272 0.72001 0.0
C4547 C 0.39654 0.0405 0.72871 0.0
C4548 C 0.39499 0.05975 0.73211 0.0
H4549 H 0.31169 0.89822 0.75764 0.0
H4550 H 0.31834 0.9354 0.74857 0.0
C4551 C 0.41259 0.08096 0.72719 0.0
C4552 C 0.37972 0.01837 0.73614 0.0
H4553 H 0.35174 0.96292 0.72474 0.0
C4554 C 0.37683 0.01613 0.75514 0.0
C4555 C 0.36916 -0.00098 0.725 0.0
C4556 C 0.37015 0.0005 0.70446 0.0
C4557 C 0.36565 0.9949 0.76337 0.0
C4558 C 0.35751 0.97553 0.75232 0.0
C4559 C 0.35831 0.97778 0.73325 0.0
C4560 C 0.35172 0.95343 0.76009 0.0
C4561 C 0.36367 0.99342 0.78389 0.0
C4562 C 0.3682 0.95131 0.76968 0.0
C4563 C 0.36455 0.93024 0.77475 0.0
C4564 C 0.34432 0.91075 0.77029 0.0
C4565 C 0.3274 0.91292 0.76135 0.0
C4566 C 0.33117 0.93412 0.75614 0.0
H4567 H 0.36263 0.00784 0.78958 0.0
H4568 H 0.34868 0.97758 0.78833 0.0
H4569 H 0.37884 0.99401 0.78971 0.0
H4570 H 0.3844 0.9659 0.77249 0.0
H4571 H 0.37791 0.92919 0.78166 0.0
H4572 H 0.61777 0.06901 0.21384 0.0
H4573 H 0.61262 0.03274 0.22271 0.0
H4574 H 0.6817 0.06409 0.23997 0.0
H4575 H 0.68704 0.10094 0.23131 0.0
H4576 H 0.63482 0.00896 0.21252 0.0
H4577 H 0.64514 0.03209 0.28631 0.0
H4578 H 0.64124 0.04887 0.26938 0.0
H4579 H 0.66745 0.04926 0.27074 0.0
C4580 C 0.632 0.06832 0.21939 0.0
C4581 C 0.65275 0.08797 0.22209 0.0
C4582 C 0.62904 0.04749 0.22435 0.0
C4583 C 0.6467 0.04577 0.23216 0.0
C4584 C 0.66779 0.06514 0.23415 0.0
H4585 H 0.58922 0.902 0.25906 0.0
H4586 H 0.62032 0.93926 0.25091 0.0
C4587 C 0.67082 0.08613 0.22912 0.0
C4588 C 0.64191 0.0237 0.23931 0.0
H4589 H 0.62783 0.99396 0.27909 0.0
C4590 C 0.6339 0.00564 0.22706 0.0
C4591 C 0.64078 0.01955 0.25829 0.0
C4592 C 0.64901 0.03837 0.27204 0.0
C4593 C 0.62284 0.98338 0.2333 0.0
C4594 C 0.6201 0.97921 0.2523 0.0
C4595 C 0.63001 0.9973 0.26454 0.0
C4596 C 0.60328 0.95695 0.25949 0.0
C4597 C 0.61237 0.96458 0.21953 0.0
C4598 C 0.58386 0.95472 0.26768 0.0
C4599 C 0.56621 0.93364 0.2724 0.0
C4600 C 0.56757 0.91423 0.26904 0.0
C4601 C 0.58757 0.91658 0.26174 0.0
C4602 C 0.60532 0.93783 0.25699 0.0
H4603 H 0.61425 0.97087 0.20531 0.0
H4604 H 0.62048 0.95416 0.22047 0.0
H4605 H 0.59422 0.9536 0.22245 0.0
H4606 H 0.58195 0.96927 0.26974 0.0
H4607 H 0.55121 0.93254 0.27817 0.0
H4608 H 0.09757 0.69191 0.25607 0.0
H4609 H 0.06108 0.68705 0.24686 0.0
H4610 H 0.02778 0.62146 0.27177 0.0
H4611 H 0.06379 0.62616 0.28102 0.0
H4612 H 0.0325 0.65359 0.22345 0.0
H4613 H 0.98817 0.64652 0.28785 0.0
H4614 H 0.01837 0.65949 0.28664 0.0
H4615 H 0.00106 0.62946 0.28882 0.0
C4616 C 0.08241 0.6767 0.25995 0.0
C4617 C 0.08354 0.65935 0.26917 0.0
C4618 C 0.06162 0.67396 0.25469 0.0
C4619 C 0.04173 0.65406 0.2589 0.0
C4620 C 0.04286 0.63719 0.26877 0.0
H4621 H 0.93149 0.55656 0.21042 0.0
H4622 H 0.96798 0.58804 0.21846 0.0
C4623 C 0.06351 0.6398 0.27386 0.0
C4624 C 0.01995 0.64911 0.251 0.0
H4625 H 0.96459 0.62332 0.26243 0.0
C4626 C 0.01769 0.64766 0.23194 0.0
C4627 C 0.00067 0.64185 0.26201 0.0
C4628 C 0.00225 0.64466 0.28247 0.0
C4629 C 0.99643 0.63671 0.22374 0.0
C4630 C 0.97713 0.62675 0.23495 0.0
C4631 C 0.97942 0.63058 0.25384 0.0
C4632 C 0.95511 0.60927 0.22788 0.0
C4633 C 0.99488 0.63474 0.20323 0.0
C4634 C 0.93567 0.61065 0.23064 0.0
C4635 C 0.91461 0.59251 0.22612 0.0
C4636 C 0.91269 0.57259 0.21905 0.0
C4637 C 0.93231 0.57159 0.21587 0.0
C4638 C 0.95326 0.5897 0.22028 0.0
H4639 H 0.00921 0.64954 0.19669 0.0
H4640 H 0.9956 0.61963 0.19899 0.0
H4641 H 0.97896 0.63317 0.19814 0.0
H4642 H 0.93675 0.62551 0.23672 0.0
H4643 H 0.89982 0.5938 0.22879 0.0
H4644 H 0.31788 0.41892 0.25152 0.0
H4645 H 0.33059 0.39268 0.24314 0.0
H4646 H 0.37052 0.41008 0.29227 0.0
H4647 H 0.35894 0.43736 0.29997 0.0
H4648 H 0.39549 0.41685 0.26483 0.0
H4649 H 0.32159 0.33259 0.25549 0.0
H4650 H 0.31866 0.35299 0.24244 0.0
H4651 H 0.31983 0.35487 0.267 0.0
C4652 C 0.32883 0.41658 0.26075 0.0
C4653 C 0.33763 0.43016 0.27628 0.0
C4654 C 0.33596 0.40144 0.25605 0.0
C4655 C 0.35142 0.39923 0.26713 0.0
C4656 C 0.35864 0.41151 0.28348 0.0
H4657 H 0.41683 0.32172 0.24043 0.0
H4658 H 0.39003 0.33203 0.25265 0.0
C4659 C 0.35205 0.42707 0.28788 0.0
C4660 C 0.3631 0.38753 0.26021 0.0
H4661 H 0.35543 0.33974 0.23939 0.0
C4662 C 0.38663 0.39983 0.25959 0.0
C4663 C 0.35167 0.36529 0.2534 0.0
C4664 C 0.32655 0.35062 0.2548 0.0
C4665 C 0.39902 0.39085 0.25193 0.0
C4666 C 0.38756 0.36926 0.24396 0.0
C4667 C 0.36409 0.3565 0.24515 0.0
C4668 C 0.40007 0.3601 0.2343 0.0
C4669 C 0.42433 0.40466 0.25245 0.0
C4670 C 0.41367 0.37177 0.21937 0.0
C4671 C 0.42918 0.36621 0.2126 0.0
C4672 C 0.43095 0.34853 0.2204 0.0
C4673 C 0.41581 0.33545 0.23419 0.0
C4674 C 0.40051 0.3413 0.24118 0.0
H4675 H 0.43026 0.41748 0.26345 0.0
H4676 H 0.43191 0.39389 0.25462 0.0
H4677 H 0.43054 0.41359 0.23926 0.0
H4678 H 0.41319 0.38605 0.21364 0.0
H4679 H 0.44042 0.37634 0.20178 0.0
loop_
_geom_bond_atom_site_label_1
_geom_bond_atom_site_label_2
_geom_bond_distance
_geom_bond_site_symmetry_2
_ccdc_geom_bond_type
Sc0 O3 2.025 . S
Sc0 O10 2.105 . S
Sc0 O13 2.105 . S
Sc0 O16 2.105 1_455 S
Sc0 O19 2.105 . S
Sc1 O3 2.025 . S
Sc1 O11 2.105 . S
Sc1 O15 2.105 . S
Sc1 O17 2.105 . S
Sc1 O21 2.105 . S
Sc2 O3 2.025 . S
Sc2 O12 2.105 . S
Sc2 O14 2.105 1_455 S
Sc2 O18 2.105 . S
Sc2 O20 2.105 1_455 S
O3 Sc0 2.025 . S
O3 Sc1 2.025 . S
O3 Sc2 2.025 . S
C4 O10 1.268 1_655 S
C4 O20 1.268 . S
C5 O11 1.268 . S
C5 O19 1.268 . S
C6 O12 1.268 . S
C6 O21 1.268 . S
C7 O13 1.268 . S
C7 O17 1.268 . S
C8 O14 1.268 . S
C8 O16 1.268 . S
C9 O15 1.268 . S
C9 O18 1.268 . S
O10 Sc0 2.105 . S
O10 C4 1.268 1_455 S
O11 Sc1 2.105 . S
O11 C5 1.268 . S
O12 Sc2 2.105 . S
O12 C6 1.268 . S
O13 Sc0 2.105 . S
O13 C7 1.268 . S
O14 Sc2 2.105 1_655 S
O14 C8 1.268 . S
O15 Sc1 2.105 . S
O15 C9 1.268 . S
O16 Sc0 2.105 1_655 S
O16 C8 1.268 . S
O17 Sc1 2.105 . S
O17 C7 1.268 . S
O18 Sc2 2.105 . S
O18 C9 1.268 . S
O19 Sc0 2.105 . S
O19 C5 1.268 . S
O20 Sc2 2.105 1_655 S
O20 C4 1.268 . S
O21 Sc1 2.105 . S
O21 C6 1.268 . S
Sc22 O25 2.025 . S
Sc22 O32 2.105 . S
Sc22 O35 2.105 . S
Sc22 O38 2.105 . S
Sc22 O41 2.105 . S
Sc23 O25 2.025 . S
Sc23 O33 2.105 . S
Sc23 O37 2.105 . S
Sc23 O39 2.105 . S
Sc23 O43 2.105 . S
Sc24 O25 2.025 . S
Sc24 O34 2.105 . S
Sc24 O36 2.105 . S
Sc24 O40 2.105 . S
Sc24 O42 2.105 . S
O25 Sc22 2.025 . S
O25 Sc23 2.025 . S
O25 Sc24 2.025 . S
C26 O32 1.268 . S
C26 O42 1.268 . S
C27 O33 1.268 . S
C27 O41 1.268 . S
C28 O34 1.268 . S
C28 O43 1.268 . S
C29 O35 1.268 . S
C29 O39 1.268 . S
C30 O36 1.268 . S
C30 O38 1.268 . S
C31 O37 1.268 . S
C31 O40 1.268 . S
O32 Sc22 2.105 . S
O32 C26 1.268 . S
O33 Sc23 2.105 . S
O33 C27 1.268 . S
O34 Sc24 2.105 . S
O34 C28 1.268 . S
O35 Sc22 2.105 . S
O35 C29 1.268 . S
O36 Sc24 2.105 . S
O36 C30 1.268 . S
O37 Sc23 2.105 . S
O37 C31 1.268 . S
O38 Sc22 2.105 . S
O38 C30 1.268 . S
O39 Sc23 2.105 . S
O39 C29 1.268 . S
O40 Sc24 2.105 . S
O40 C31 1.268 . S
O41 Sc22 2.105 . S
O41 C27 1.268 . S
O42 Sc24 2.105 . S
O42 C26 1.268 . S
O43 Sc23 2.105 . S
O43 C28 1.268 . S
Sc44 O47 2.025 . S
Sc44 O54 2.105 . S
Sc44 O57 2.105 . S
Sc44 O60 2.105 1_565 S
Sc44 O63 2.105 . S
Sc45 O47 2.025 . S
Sc45 O55 2.105 . S
Sc45 O59 2.105 . S
Sc45 O61 2.105 . S
Sc45 O65 2.105 . S
Sc46 O47 2.025 . S
Sc46 O56 2.105 . S
Sc46 O58 2.105 1_565 S
Sc46 O62 2.105 . S
Sc46 O64 2.105 1_565 S
O47 Sc44 2.025 . S
O47 Sc45 2.025 . S
O47 Sc46 2.025 . S
C48 O54 1.268 1_545 S
C48 O64 1.268 . S
C49 O55 1.268 . S
C49 O63 1.268 . S
C50 O56 1.268 . S
C50 O65 1.268 . S
C51 O57 1.268 . S
C51 O61 1.268 . S
C52 O58 1.268 . S
C52 O60 1.268 . S
C53 O59 1.268 . S
C53 O62 1.268 . S
O54 Sc44 2.105 . S
O54 C48 1.268 1_565 S
O55 Sc45 2.105 . S
O55 C49 1.268 . S
O56 Sc46 2.105 . S
O56 C50 1.268 . S
O57 Sc44 2.105 . S
O57 C51 1.268 . S
O58 Sc46 2.105 1_545 S
O58 C52 1.268 . S
O59 Sc45 2.105 . S
O59 C53 1.268 . S
O60 Sc44 2.105 1_545 S
O60 C52 1.268 . S
O61 Sc45 2.105 . S
O61 C51 1.268 . S
O62 Sc46 2.105 . S
O62 C53 1.268 . S
O63 Sc44 2.105 . S
O63 C49 1.268 . S
O64 Sc46 2.105 1_545 S
O64 C48 1.268 . S
O65 Sc45 2.105 . S
O65 C50 1.268 . S
Sc66 O69 2.025 . S
Sc66 O76 2.105 . S
Sc66 O79 2.105 . S
Sc66 O82 2.105 1_545 S
Sc66 O85 2.105 . S
Sc67 O69 2.025 . S
Sc67 O77 2.105 . S
Sc67 O81 2.105 . S
Sc67 O83 2.105 . S
Sc67 O87 2.105 . S
Sc68 O69 2.025 . S
Sc68 O78 2.105 . S
Sc68 O80 2.105 1_545 S
Sc68 O84 2.105 . S
Sc68 O86 2.105 1_545 S
O69 Sc66 2.025 . S
O69 Sc67 2.025 . S
O69 Sc68 2.025 . S
C70 O76 1.268 1_565 S
C70 O86 1.268 . S
C71 O77 1.268 . S
C71 O85 1.268 . S
C72 O78 1.268 . S
C72 O87 1.268 . S
C73 O79 1.268 . S
C73 O83 1.268 . S
C74 O80 1.268 . S
C74 O82 1.268 . S
C75 O81 1.268 . S
C75 O84 1.268 . S
O76 Sc66 2.105 . S
O76 C70 1.268 1_545 S
O77 Sc67 2.105 . S
O77 C71 1.268 . S
O78 Sc68 2.105 . S
O78 C72 1.268 . S
O79 Sc66 2.105 . S
O79 C73 1.268 . S
O80 Sc68 2.105 1_565 S
O80 C74 1.268 . S
O81 Sc67 2.105 . S
O81 C75 1.268 . S
O82 Sc66 2.105 1_565 S
O82 C74 1.268 . S
O83 Sc67 2.105 . S
O83 C73 1.268 . S
O84 Sc68 2.105 . S
O84 C75 1.268 . S
O85 Sc66 2.105 . S
O85 C71 1.268 . S
O86 Sc68 2.105 1_565 S
O86 C70 1.268 . S
O87 Sc67 2.105 . S
O87 C72 1.268 . S
Sc88 O91 2.025 . S
Sc88 O98 2.105 . S
Sc88 O101 2.105 . S
Sc88 O104 2.105 1_655 S
Sc88 O107 2.105 . S
Sc89 O91 2.025 . S
Sc89 O99 2.105 . S
Sc89 O103 2.105 . S
Sc89 O105 2.105 . S
Sc89 O109 2.105 . S
Sc90 O91 2.025 . S
Sc90 O100 2.105 . S
Sc90 O102 2.105 1_655 S
Sc90 O106 2.105 . S
Sc90 O108 2.105 1_655 S
O91 Sc88 2.025 . S
O91 Sc89 2.025 . S
O91 Sc90 2.025 . S
C92 O98 1.268 1_455 S
C92 O108 1.268 . S
C93 O99 1.268 . S
C93 O107 1.268 . S
C94 O100 1.268 . S
C94 O109 1.268 . S
C95 O101 1.268 . S
C95 O105 1.268 . S
C96 O102 1.268 . S
C96 O104 1.268 . S
C97 O103 1.268 . S
C97 O106 1.268 . S
O98 Sc88 2.105 . S
O98 C92 1.268 1_655 S
O99 Sc89 2.105 . S
O99 C93 1.268 . S
O100 Sc90 2.105 . S
O100 C94 1.268 . S
O101 Sc88 2.105 . S
O101 C95 1.268 . S
O102 Sc90 2.105 1_455 S
O102 C96 1.268 . S
O103 Sc89 2.105 . S
O103 C97 1.268 . S
O104 Sc88 2.105 1_455 S
O104 C96 1.268 . S
O105 Sc89 2.105 . S
O105 C95 1.268 . S
O106 Sc90 2.105 . S
O106 C97 1.268 . S
O107 Sc88 2.105 . S
O107 C93 1.268 . S
O108 Sc90 2.105 1_455 S
O108 C92 1.268 . S
O109 Sc89 2.105 . S
O109 C94 1.268 . S
Sc110 O113 2.025 . S
Sc110 O120 2.105 . S
Sc110 O123 2.105 . S
Sc110 O126 2.105 . S
Sc110 O129 2.105 . S
Sc111 O113 2.025 . S
Sc111 O121 2.105 . S
Sc111 O125 2.105 . S
Sc111 O127 2.105 . S
Sc111 O131 2.105 . S
Sc112 O113 2.025 . S
Sc112 O122 2.105 . S
Sc112 O124 2.105 . S
Sc112 O128 2.105 . S
Sc112 O130 2.105 . S
O113 Sc110 2.025 . S
O113 Sc111 2.025 . S
O113 Sc112 2.025 . S
C114 O120 1.268 . S
C114 O130 1.268 . S
C115 O121 1.268 . S
C115 O129 1.268 . S
C116 O122 1.268 . S
C116 O131 1.268 . S
C117 O123 1.268 . S
C117 O127 1.268 . S
C118 O124 1.268 . S
C118 O126 1.268 . S
C119 O125 1.268 . S
C119 O128 1.268 . S
O120 Sc110 2.105 . S
O120 C114 1.268 . S
O121 Sc111 2.105 . S
O121 C115 1.268 . S
O122 Sc112 2.105 . S
O122 C116 1.268 . S
O123 Sc110 2.105 . S
O123 C117 1.268 . S
O124 Sc112 2.105 . S
O124 C118 1.268 . S
O125 Sc111 2.105 . S
O125 C119 1.268 . S
O126 Sc110 2.105 . S
O126 C118 1.268 . S
O127 Sc111 2.105 . S
O127 C117 1.268 . S
O128 Sc112 2.105 . S
O128 C119 1.268 . S
O129 Sc110 2.105 . S
O129 C115 1.268 . S
O130 Sc112 2.105 . S
O130 C114 1.268 . S
O131 Sc111 2.105 . S
O131 C116 1.268 . S
Sc132 O135 2.025 . S
Sc132 O142 2.105 1_655 S
Sc132 O145 2.105 . S
Sc132 O148 2.105 1_655 S
Sc132 O151 2.105 . S
Sc133 O135 2.025 . S
Sc133 O143 2.105 . S
Sc133 O147 2.105 . S
Sc133 O149 2.105 . S
Sc133 O153 2.105 . S
Sc134 O135 2.025 . S
Sc134 O144 2.105 . S
Sc134 O146 2.105 1_655 S
Sc134 O150 2.105 . S
Sc134 O152 2.105 . S
O135 Sc132 2.025 . S
O135 Sc133 2.025 . S
O135 Sc134 2.025 . S
C136 O142 1.268 . S
C136 O152 1.268 1_455 S
C137 O143 1.268 . S
C137 O151 1.268 . S
C138 O144 1.268 . S
C138 O153 1.268 . S
C139 O145 1.268 . S
C139 O149 1.268 . S
C140 O146 1.268 . S
C140 O148 1.268 . S
C141 O147 1.268 . S
C141 O150 1.268 . S
O142 Sc132 2.105 1_455 S
O142 C136 1.268 . S
O143 Sc133 2.105 . S
O143 C137 1.268 . S
O144 Sc134 2.105 . S
O144 C138 1.268 . S
O145 Sc132 2.105 . S
O145 C139 1.268 . S
O146 Sc134 2.105 1_455 S
O146 C140 1.268 . S
O147 Sc133 2.105 . S
O147 C141 1.268 . S
O148 Sc132 2.105 1_455 S
O148 C140 1.268 . S
O149 Sc133 2.105 . S
O149 C139 1.268 . S
O150 Sc134 2.105 . S
O150 C141 1.268 . S
O151 Sc132 2.105 . S
O151 C137 1.268 . S
O152 Sc134 2.105 . S
O152 C136 1.268 1_655 S
O153 Sc133 2.105 . S
O153 C138 1.268 . S
Sc154 O157 2.025 . S
Sc154 O164 2.105 . S
Sc154 O167 2.105 . S
Sc154 O170 2.105 . S
Sc154 O173 2.105 . S
Sc155 O157 2.025 . S
Sc155 O165 2.105 . S
Sc155 O169 2.105 . S
Sc155 O171 2.105 . S
Sc155 O175 2.105 . S
Sc156 O157 2.025 . S
Sc156 O166 2.105 . S
Sc156 O168 2.105 . S
Sc156 O172 2.105 . S
Sc156 O174 2.105 . S
O157 Sc154 2.025 . S
O157 Sc155 2.025 . S
O157 Sc156 2.025 . S
C158 O164 1.268 . S
C158 O174 1.268 . S
C159 O165 1.268 . S
C159 O173 1.268 . S
C160 O166 1.268 . S
C160 O175 1.268 . S
C161 O167 1.268 . S
C161 O171 1.268 . S
C162 O168 1.268 . S
C162 O170 1.268 . S
C163 O169 1.268 . S
C163 O172 1.268 . S
O164 Sc154 2.105 . S
O164 C158 1.268 . S
O165 Sc155 2.105 . S
O165 C159 1.268 . S
O166 Sc156 2.105 . S
O166 C160 1.268 . S
O167 Sc154 2.105 . S
O167 C161 1.268 . S
O168 Sc156 2.105 . S
O168 C162 1.268 . S
O169 Sc155 2.105 . S
O169 C163 1.268 . S
O170 Sc154 2.105 . S
O170 C162 1.268 . S
O171 Sc155 2.105 . S
O171 C161 1.268 . S
O172 Sc156 2.105 . S
O172 C163 1.268 . S
O173 Sc154 2.105 . S
O173 C159 1.268 . S
O174 Sc156 2.105 . S
O174 C158 1.268 . S
O175 Sc155 2.105 . S
O175 C160 1.268 . S
Sc176 O179 2.025 . S
Sc176 O186 2.105 1_545 S
Sc176 O189 2.105 . S
Sc176 O192 2.105 1_545 S
Sc176 O195 2.105 . S
Sc177 O179 2.025 . S
Sc177 O187 2.105 . S
Sc177 O191 2.105 . S
Sc177 O193 2.105 . S
Sc177 O197 2.105 . S
Sc178 O179 2.025 . S
Sc178 O188 2.105 . S
Sc178 O190 2.105 1_545 S
Sc178 O194 2.105 . S
Sc178 O196 2.105 . S
O179 Sc176 2.025 . S
O179 Sc177 2.025 . S
O179 Sc178 2.025 . S
C180 O186 1.268 . S
C180 O196 1.268 1_565 S
C181 O187 1.268 . S
C181 O195 1.268 . S
C182 O188 1.268 . S
C182 O197 1.268 . S
C183 O189 1.268 . S
C183 O193 1.268 . S
C184 O190 1.268 . S
C184 O192 1.268 . S
C185 O191 1.268 . S
C185 O194 1.268 . S
O186 Sc176 2.105 1_565 S
O186 C180 1.268 . S
O187 Sc177 2.105 . S
O187 C181 1.268 . S
O188 Sc178 2.105 . S
O188 C182 1.268 . S
O189 Sc176 2.105 . S
O189 C183 1.268 . S
O190 Sc178 2.105 1_565 S
O190 C184 1.268 . S
O191 Sc177 2.105 . S
O191 C185 1.268 . S
O192 Sc176 2.105 1_565 S
O192 C184 1.268 . S
O193 Sc177 2.105 . S
O193 C183 1.268 . S
O194 Sc178 2.105 . S
O194 C185 1.268 . S
O195 Sc176 2.105 . S
O195 C181 1.268 . S
O196 Sc178 2.105 . S
O196 C180 1.268 1_545 S
O197 Sc177 2.105 . S
O197 C182 1.268 . S
Sc198 O201 2.025 . S
Sc198 O208 2.105 1_565 S
Sc198 O211 2.105 . S
Sc198 O214 2.105 1_565 S
Sc198 O217 2.105 . S
Sc199 O201 2.025 . S
Sc199 O209 2.105 . S
Sc199 O213 2.105 . S
Sc199 O215 2.105 . S
Sc199 O219 2.105 . S
Sc200 O201 2.025 . S
Sc200 O210 2.105 . S
Sc200 O212 2.105 1_565 S
Sc200 O216 2.105 . S
Sc200 O218 2.105 . S
O201 Sc198 2.025 . S
O201 Sc199 2.025 . S
O201 Sc200 2.025 . S
C202 O208 1.268 . S
C202 O218 1.268 1_545 S
C203 O209 1.268 . S
C203 O217 1.268 . S
C204 O210 1.268 . S
C204 O219 1.268 . S
C205 O211 1.268 . S
C205 O215 1.268 . S
C206 O212 1.268 . S
C206 O214 1.268 . S
C207 O213 1.268 . S
C207 O216 1.268 . S
O208 Sc198 2.105 1_545 S
O208 C202 1.268 . S
O209 Sc199 2.105 . S
O209 C203 1.268 . S
O210 Sc200 2.105 . S
O210 C204 1.268 . S
O211 Sc198 2.105 . S
O211 C205 1.268 . S
O212 Sc200 2.105 1_545 S
O212 C206 1.268 . S
O213 Sc199 2.105 . S
O213 C207 1.268 . S
O214 Sc198 2.105 1_545 S
O214 C206 1.268 . S
O215 Sc199 2.105 . S
O215 C205 1.268 . S
O216 Sc200 2.105 . S
O216 C207 1.268 . S
O217 Sc198 2.105 . S
O217 C203 1.268 . S
O218 Sc200 2.105 . S
O218 C202 1.268 1_565 S
O219 Sc199 2.105 . S
O219 C204 1.268 . S
Sc220 O223 2.025 . S
Sc220 O230 2.105 1_455 S
Sc220 O233 2.105 . S
Sc220 O236 2.105 1_455 S
Sc220 O239 2.105 . S
Sc221 O223 2.025 . S
Sc221 O231 2.105 . S
Sc221 O235 2.105 . S
Sc221 O237 2.105 . S
Sc221 O241 2.105 . S
Sc222 O223 2.025 . S
Sc222 O232 2.105 . S
Sc222 O234 2.105 1_455 S
Sc222 O238 2.105 . S
Sc222 O240 2.105 . S
O223 Sc220 2.025 . S
O223 Sc221 2.025 . S
O223 Sc222 2.025 . S
C224 O230 1.268 . S
C224 O240 1.268 1_655 S
C225 O231 1.268 . S
C225 O239 1.268 . S
C226 O232 1.268 . S
C226 O241 1.268 . S
C227 O233 1.268 . S
C227 O237 1.268 . S
C228 O234 1.268 . S
C228 O236 1.268 . S
C229 O235 1.268 . S
C229 O238 1.268 . S
O230 Sc220 2.105 1_655 S
O230 C224 1.268 . S
O231 Sc221 2.105 . S
O231 C225 1.268 . S
O232 Sc222 2.105 . S
O232 C226 1.268 . S
O233 Sc220 2.105 . S
O233 C227 1.268 . S
O234 Sc222 2.105 1_655 S
O234 C228 1.268 . S
O235 Sc221 2.105 . S
O235 C229 1.268 . S
O236 Sc220 2.105 1_655 S
O236 C228 1.268 . S
O237 Sc221 2.105 . S
O237 C227 1.268 . S
O238 Sc222 2.105 . S
O238 C229 1.268 . S
O239 Sc220 2.105 . S
O239 C225 1.268 . S
O240 Sc222 2.105 . S
O240 C224 1.268 1_455 S
O241 Sc221 2.105 . S
O241 C226 1.268 . S
Sc242 O245 2.025 . S
Sc242 O252 2.105 . S
Sc242 O255 2.105 . S
Sc242 O258 2.105 . S
Sc242 O261 2.105 . S
Sc243 O245 2.025 . S
Sc243 O253 2.105 . S
Sc243 O257 2.105 . S
Sc243 O259 2.105 . S
Sc243 O263 2.105 . S
Sc244 O245 2.025 . S
Sc244 O254 2.105 . S
Sc244 O256 2.105 . S
Sc244 O260 2.105 . S
Sc244 O262 2.105 . S
O245 Sc242 2.025 . S
O245 Sc243 2.025 . S
O245 Sc244 2.025 . S
C246 O252 1.268 . S
C246 O262 1.268 . S
C247 O253 1.268 . S
C247 O261 1.268 . S
C248 O254 1.268 . S
C248 O263 1.268 . S
C249 O255 1.268 . S
C249 O259 1.268 . S
C250 O256 1.268 . S
C250 O258 1.268 . S
C251 O257 1.268 . S
C251 O260 1.268 . S
O252 Sc242 2.105 . S
O252 C246 1.268 . S
O253 Sc243 2.105 . S
O253 C247 1.268 . S
O254 Sc244 2.105 . S
O254 C248 1.268 . S
O255 Sc242 2.105 . S
O255 C249 1.268 . S
O256 Sc244 2.105 . S
O256 C250 1.268 . S
O257 Sc243 2.105 . S
O257 C251 1.268 . S
O258 Sc242 2.105 . S
O258 C250 1.268 . S
O259 Sc243 2.105 . S
O259 C249 1.268 . S
O260 Sc244 2.105 . S
O260 C251 1.268 . S
O261 Sc242 2.105 . S
O261 C247 1.268 . S
O262 Sc244 2.105 . S
O262 C246 1.268 . S
O263 Sc243 2.105 . S
O263 C248 1.268 . S
Sc264 O267 2.025 . S
Sc264 O274 2.105 . S
Sc264 O277 2.105 . S
Sc264 O280 2.105 . S
Sc264 O283 2.105 . S
Sc265 O267 2.025 . S
Sc265 O275 2.105 . S
Sc265 O279 2.105 . S
Sc265 O281 2.105 . S
Sc265 O285 2.105 . S
Sc266 O267 2.025 . S
Sc266 O276 2.105 . S
Sc266 O278 2.105 . S
Sc266 O282 2.105 . S
Sc266 O284 2.105 . S
O267 Sc264 2.025 . S
O267 Sc265 2.025 . S
O267 Sc266 2.025 . S
C268 O274 1.268 . S
C268 O284 1.268 . S
C269 O275 1.268 . S
C269 O283 1.268 . S
C270 O276 1.268 . S
C270 O285 1.268 . S
C271 O277 1.268 . S
C271 O281 1.268 . S
C272 O278 1.268 . S
C272 O280 1.268 . S
C273 O279 1.268 . S
C273 O282 1.268 . S
O274 Sc264 2.105 . S
O274 C268 1.268 . S
O275 Sc265 2.105 . S
O275 C269 1.268 . S
O276 Sc266 2.105 . S
O276 C270 1.268 . S
O277 Sc264 2.105 . S
O277 C271 1.268 . S
O278 Sc266 2.105 . S
O278 C272 1.268 . S
O279 Sc265 2.105 . S
O279 C273 1.268 . S
O280 Sc264 2.105 . S
O280 C272 1.268 . S
O281 Sc265 2.105 . S
O281 C271 1.268 . S
O282 Sc266 2.105 . S
O282 C273 1.268 . S
O283 Sc264 2.105 . S
O283 C269 1.268 . S
O284 Sc266 2.105 . S
O284 C268 1.268 . S
O285 Sc265 2.105 . S
O285 C270 1.268 . S
Sc286 O289 2.025 . S
Sc286 O296 2.105 . S
Sc286 O299 2.105 . S
Sc286 O302 2.105 . S
Sc286 O305 2.105 . S
Sc287 O289 2.025 . S
Sc287 O297 2.105 . S
Sc287 O301 2.105 . S
Sc287 O303 2.105 . S
Sc287 O307 2.105 . S
Sc288 O289 2.025 . S
Sc288 O298 2.105 . S
Sc288 O300 2.105 . S
Sc288 O304 2.105 . S
Sc288 O306 2.105 . S
O289 Sc286 2.025 . S
O289 Sc287 2.025 . S
O289 Sc288 2.025 . S
C290 O296 1.268 . S
C290 O306 1.268 . S
C291 O297 1.268 . S
C291 O305 1.268 . S
C292 O298 1.268 . S
C292 O307 1.268 . S
C293 O299 1.268 . S
C293 O303 1.268 . S
C294 O300 1.268 . S
C294 O302 1.268 . S
C295 O301 1.268 . S
C295 O304 1.268 . S
O296 Sc286 2.105 . S
O296 C290 1.268 . S
O297 Sc287 2.105 . S
O297 C291 1.268 . S
O298 Sc288 2.105 . S
O298 C292 1.268 . S
O299 Sc286 2.105 . S
O299 C293 1.268 . S
O300 Sc288 2.105 . S
O300 C294 1.268 . S
O301 Sc287 2.105 . S
O301 C295 1.268 . S
O302 Sc286 2.105 . S
O302 C294 1.268 . S
O303 Sc287 2.105 . S
O303 C293 1.268 . S
O304 Sc288 2.105 . S
O304 C295 1.268 . S
O305 Sc286 2.105 . S
O305 C291 1.268 . S
O306 Sc288 2.105 . S
O306 C290 1.268 . S
O307 Sc287 2.105 . S
O307 C292 1.268 . S
Sc308 O311 2.025 . S
Sc308 O318 2.105 . S
Sc308 O321 2.105 . S
Sc308 O324 2.105 . S
Sc308 O327 2.105 . S
Sc309 O311 2.025 . S
Sc309 O319 2.105 . S
Sc309 O323 2.105 . S
Sc309 O325 2.105 . S
Sc309 O329 2.105 . S
Sc310 O311 2.025 . S
Sc310 O320 2.105 . S
Sc310 O322 2.105 . S
Sc310 O326 2.105 . S
Sc310 O328 2.105 . S
O311 Sc308 2.025 . S
O311 Sc309 2.025 . S
O311 Sc310 2.025 . S
C312 O318 1.268 . S
C312 O328 1.268 . S
C313 O319 1.268 . S
C313 O327 1.268 . S
C314 O320 1.268 . S
C314 O329 1.268 . S
C315 O321 1.268 . S
C315 O325 1.268 . S
C316 O322 1.268 . S
C316 O324 1.268 . S
C317 O323 1.268 . S
C317 O326 1.268 . S
O318 Sc308 2.105 . S
O318 C312 1.268 . S
O319 Sc309 2.105 . S
O319 C313 1.268 . S
O320 Sc310 2.105 . S
O320 C314 1.268 . S
O321 Sc308 2.105 . S
O321 C315 1.268 . S
O322 Sc310 2.105 . S
O322 C316 1.268 . S
O323 Sc309 2.105 . S
O323 C317 1.268 . S
O324 Sc308 2.105 . S
O324 C316 1.268 . S
O325 Sc309 2.105 . S
O325 C315 1.268 . S
O326 Sc310 2.105 . S
O326 C317 1.268 . S
O327 Sc308 2.105 . S
O327 C313 1.268 . S
O328 Sc310 2.105 . S
O328 C312 1.268 . S
O329 Sc309 2.105 . S
O329 C314 1.268 . S
Sc330 O333 2.025 . S
Sc330 O340 2.105 . S
Sc330 O343 2.105 . S
Sc330 O346 2.105 . S
Sc330 O349 2.105 . S
Sc331 O333 2.025 . S
Sc331 O341 2.105 . S
Sc331 O345 2.105 . S
Sc331 O347 2.105 . S
Sc331 O351 2.105 . S
Sc332 O333 2.025 . S
Sc332 O342 2.105 . S
Sc332 O344 2.105 . S
Sc332 O348 2.105 . S
Sc332 O350 2.105 . S
O333 Sc330 2.025 . S
O333 Sc331 2.025 . S
O333 Sc332 2.025 . S
C334 O340 1.268 . S
C334 O350 1.268 . S
C335 O341 1.268 . S
C335 O349 1.268 . S
C336 O342 1.268 . S
C336 O351 1.268 . S
C337 O343 1.268 . S
C337 O347 1.268 . S
C338 O344 1.268 . S
C338 O346 1.268 . S
C339 O345 1.268 . S
C339 O348 1.268 . S
O340 Sc330 2.105 . S
O340 C334 1.268 . S
O341 Sc331 2.105 . S
O341 C335 1.268 . S
O342 Sc332 2.105 . S
O342 C336 1.268 . S
O343 Sc330 2.105 . S
O343 C337 1.268 . S
O344 Sc332 2.105 . S
O344 C338 1.268 . S
O345 Sc331 2.105 . S
O345 C339 1.268 . S
O346 Sc330 2.105 . S
O346 C338 1.268 . S
O347 Sc331 2.105 . S
O347 C337 1.268 . S
O348 Sc332 2.105 . S
O348 C339 1.268 . S
O349 Sc330 2.105 . S
O349 C335 1.268 . S
O350 Sc332 2.105 . S
O350 C334 1.268 . S
O351 Sc331 2.105 . S
O351 C336 1.268 . S
Sc352 O355 2.025 . S
Sc352 O362 2.105 . S
Sc352 O365 2.105 . S
Sc352 O368 2.105 . S
Sc352 O371 2.105 . S
Sc353 O355 2.025 . S
Sc353 O363 2.105 . S
Sc353 O367 2.105 . S
Sc353 O369 2.105 . S
Sc353 O373 2.105 . S
Sc354 O355 2.025 . S
Sc354 O364 2.105 . S
Sc354 O366 2.105 . S
Sc354 O370 2.105 . S
Sc354 O372 2.105 . S
O355 Sc352 2.025 . S
O355 Sc353 2.025 . S
O355 Sc354 2.025 . S
C356 O362 1.268 . S
C356 O372 1.268 . S
C357 O363 1.268 . S
C357 O371 1.268 . S
C358 O364 1.268 . S
C358 O373 1.268 . S
C359 O365 1.268 . S
C359 O369 1.268 . S
C360 O366 1.268 . S
C360 O368 1.268 . S
C361 O367 1.268 . S
C361 O370 1.268 . S
O362 Sc352 2.105 . S
O362 C356 1.268 . S
O363 Sc353 2.105 . S
O363 C357 1.268 . S
O364 Sc354 2.105 . S
O364 C358 1.268 . S
O365 Sc352 2.105 . S
O365 C359 1.268 . S
O366 Sc354 2.105 . S
O366 C360 1.268 . S
O367 Sc353 2.105 . S
O367 C361 1.268 . S
O368 Sc352 2.105 . S
O368 C360 1.268 . S
O369 Sc353 2.105 . S
O369 C359 1.268 . S
O370 Sc354 2.105 . S
O370 C361 1.268 . S
O371 Sc352 2.105 . S
O371 C357 1.268 . S
O372 Sc354 2.105 . S
O372 C356 1.268 . S
O373 Sc353 2.105 . S
O373 C358 1.268 . S
Sc374 O377 2.025 . S
Sc374 O384 2.105 . S
Sc374 O387 2.105 . S
Sc374 O390 2.105 . S
Sc374 O393 2.105 . S
Sc375 O377 2.025 . S
Sc375 O385 2.105 . S
Sc375 O389 2.105 . S
Sc375 O391 2.105 . S
Sc375 O395 2.105 . S
Sc376 O377 2.025 . S
Sc376 O386 2.105 . S
Sc376 O388 2.105 . S
Sc376 O392 2.105 . S
Sc376 O394 2.105 . S
O377 Sc374 2.025 . S
O377 Sc375 2.025 . S
O377 Sc376 2.025 . S
C378 O384 1.268 . S
C378 O394 1.268 . S
C379 O385 1.268 . S
C379 O393 1.268 . S
C380 O386 1.268 . S
C380 O395 1.268 . S
C381 O387 1.268 . S
C381 O391 1.268 . S
C382 O388 1.268 . S
C382 O390 1.268 . S
C383 O389 1.268 . S
C383 O392 1.268 . S
O384 Sc374 2.105 . S
O384 C378 1.268 . S
O385 Sc375 2.105 . S
O385 C379 1.268 . S
O386 Sc376 2.105 . S
O386 C380 1.268 . S
O387 Sc374 2.105 . S
O387 C381 1.268 . S
O388 Sc376 2.105 . S
O388 C382 1.268 . S
O389 Sc375 2.105 . S
O389 C383 1.268 . S
O390 Sc374 2.105 . S
O390 C382 1.268 . S
O391 Sc375 2.105 . S
O391 C381 1.268 . S
O392 Sc376 2.105 . S
O392 C383 1.268 . S
O393 Sc374 2.105 . S
O393 C379 1.268 . S
O394 Sc376 2.105 . S
O394 C378 1.268 . S
O395 Sc375 2.105 . S
O395 C380 1.268 . S
Sc396 O399 2.025 . S
Sc396 O406 2.105 . S
Sc396 O409 2.105 . S
Sc396 O412 2.105 . S
Sc396 O415 2.105 . S
Sc397 O399 2.025 . S
Sc397 O407 2.105 . S
Sc397 O411 2.105 . S
Sc397 O413 2.105 . S
Sc397 O417 2.105 . S
Sc398 O399 2.025 . S
Sc398 O408 2.105 . S
Sc398 O410 2.105 . S
Sc398 O414 2.105 . S
Sc398 O416 2.105 . S
O399 Sc396 2.025 . S
O399 Sc397 2.025 . S
O399 Sc398 2.025 . S
C400 O406 1.268 . S
C400 O416 1.268 . S
C401 O407 1.268 . S
C401 O415 1.268 . S
C402 O408 1.268 . S
C402 O417 1.268 . S
C403 O409 1.268 . S
C403 O413 1.268 . S
C404 O410 1.268 . S
C404 O412 1.268 . S
C405 O411 1.268 . S
C405 O414 1.268 . S
O406 Sc396 2.105 . S
O406 C400 1.268 . S
O407 Sc397 2.105 . S
O407 C401 1.268 . S
O408 Sc398 2.105 . S
O408 C402 1.268 . S
O409 Sc396 2.105 . S
O409 C403 1.268 . S
O410 Sc398 2.105 . S
O410 C404 1.268 . S
O411 Sc397 2.105 . S
O411 C405 1.268 . S
O412 Sc396 2.105 . S
O412 C404 1.268 . S
O413 Sc397 2.105 . S
O413 C403 1.268 . S
O414 Sc398 2.105 . S
O414 C405 1.268 . S
O415 Sc396 2.105 . S
O415 C401 1.268 . S
O416 Sc398 2.105 . S
O416 C400 1.268 . S
O417 Sc397 2.105 . S
O417 C402 1.268 . S
Sc418 O421 2.025 . S
Sc418 O428 2.105 . S
Sc418 O431 2.105 . S
Sc418 O434 2.105 . S
Sc418 O437 2.105 . S
Sc419 O421 2.025 . S
Sc419 O429 2.105 . S
Sc419 O433 2.105 . S
Sc419 O435 2.105 . S
Sc419 O439 2.105 . S
Sc420 O421 2.025 . S
Sc420 O430 2.105 . S
Sc420 O432 2.105 . S
Sc420 O436 2.105 . S
Sc420 O438 2.105 . S
O421 Sc418 2.025 . S
O421 Sc419 2.025 . S
O421 Sc420 2.025 . S
C422 O428 1.268 . S
C422 O438 1.268 . S
C423 O429 1.268 . S
C423 O437 1.268 . S
C424 O430 1.268 . S
C424 O439 1.268 . S
C425 O431 1.268 . S
C425 O435 1.268 . S
C426 O432 1.268 . S
C426 O434 1.268 . S
C427 O433 1.268 . S
C427 O436 1.268 . S
O428 Sc418 2.105 . S
O428 C422 1.268 . S
O429 Sc419 2.105 . S
O429 C423 1.268 . S
O430 Sc420 2.105 . S
O430 C424 1.268 . S
O431 Sc418 2.105 . S
O431 C425 1.268 . S
O432 Sc420 2.105 . S
O432 C426 1.268 . S
O433 Sc419 2.105 . S
O433 C427 1.268 . S
O434 Sc418 2.105 . S
O434 C426 1.268 . S
O435 Sc419 2.105 . S
O435 C425 1.268 . S
O436 Sc420 2.105 . S
O436 C427 1.268 . S
O437 Sc418 2.105 . S
O437 C423 1.268 . S
O438 Sc420 2.105 . S
O438 C422 1.268 . S
O439 Sc419 2.105 . S
O439 C424 1.268 . S
Sc440 O443 2.025 . S
Sc440 O450 2.105 . S
Sc440 O453 2.105 . S
Sc440 O456 2.105 . S
Sc440 O459 2.105 . S
Sc441 O443 2.025 . S
Sc441 O451 2.105 . S
Sc441 O455 2.105 . S
Sc441 O457 2.105 . S
Sc441 O461 2.105 . S
Sc442 O443 2.025 . S
Sc442 O452 2.105 . S
Sc442 O454 2.105 . S
Sc442 O458 2.105 . S
Sc442 O460 2.105 . S
O443 Sc440 2.025 . S
O443 Sc441 2.025 . S
O443 Sc442 2.025 . S
C444 O450 1.268 . S
C444 O460 1.268 . S
C445 O451 1.268 . S
C445 O459 1.268 . S
C446 O452 1.268 . S
C446 O461 1.268 . S
C447 O453 1.268 . S
C447 O457 1.268 . S
C448 O454 1.268 . S
C448 O456 1.268 . S
C449 O455 1.268 . S
C449 O458 1.268 . S
O450 Sc440 2.105 . S
O450 C444 1.268 . S
O451 Sc441 2.105 . S
O451 C445 1.268 . S
O452 Sc442 2.105 . S
O452 C446 1.268 . S
O453 Sc440 2.105 . S
O453 C447 1.268 . S
O454 Sc442 2.105 . S
O454 C448 1.268 . S
O455 Sc441 2.105 . S
O455 C449 1.268 . S
O456 Sc440 2.105 . S
O456 C448 1.268 . S
O457 Sc441 2.105 . S
O457 C447 1.268 . S
O458 Sc442 2.105 . S
O458 C449 1.268 . S
O459 Sc440 2.105 . S
O459 C445 1.268 . S
O460 Sc442 2.105 . S
O460 C444 1.268 . S
O461 Sc441 2.105 . S
O461 C446 1.268 . S
Sc462 O465 2.025 . S
Sc462 O472 2.105 . S
Sc462 O475 2.105 . S
Sc462 O478 2.105 . S
Sc462 O481 2.105 . S
Sc463 O465 2.025 . S
Sc463 O473 2.105 . S
Sc463 O477 2.105 . S
Sc463 O479 2.105 . S
Sc463 O483 2.105 . S
Sc464 O465 2.025 . S
Sc464 O474 2.105 . S
Sc464 O476 2.105 . S
Sc464 O480 2.105 . S
Sc464 O482 2.105 . S
O465 Sc462 2.025 . S
O465 Sc463 2.025 . S
O465 Sc464 2.025 . S
C466 O472 1.268 . S
C466 O482 1.268 . S
C467 O473 1.268 . S
C467 O481 1.268 . S
C468 O474 1.268 . S
C468 O483 1.268 . S
C469 O475 1.268 . S
C469 O479 1.268 . S
C470 O476 1.268 . S
C470 O478 1.268 . S
C471 O477 1.268 . S
C471 O480 1.268 . S
O472 Sc462 2.105 . S
O472 C466 1.268 . S
O473 Sc463 2.105 . S
O473 C467 1.268 . S
O474 Sc464 2.105 . S
O474 C468 1.268 . S
O475 Sc462 2.105 . S
O475 C469 1.268 . S
O476 Sc464 2.105 . S
O476 C470 1.268 . S
O477 Sc463 2.105 . S
O477 C471 1.268 . S
O478 Sc462 2.105 . S
O478 C470 1.268 . S
O479 Sc463 2.105 . S
O479 C469 1.268 . S
O480 Sc464 2.105 . S
O480 C471 1.268 . S
O481 Sc462 2.105 . S
O481 C467 1.268 . S
O482 Sc464 2.105 . S
O482 C466 1.268 . S
O483 Sc463 2.105 . S
O483 C468 1.268 . S
Sc484 O487 2.025 . S
Sc484 O494 2.105 . S
Sc484 O497 2.105 . S
Sc484 O500 2.105 . S
Sc484 O503 2.105 . S
Sc485 O487 2.025 . S
Sc485 O495 2.105 . S
Sc485 O499 2.105 . S
Sc485 O501 2.105 . S
Sc485 O505 2.105 . S
Sc486 O487 2.025 . S
Sc486 O496 2.105 . S
Sc486 O498 2.105 . S
Sc486 O502 2.105 . S
Sc486 O504 2.105 . S
O487 Sc484 2.025 . S
O487 Sc485 2.025 . S
O487 Sc486 2.025 . S
C488 O494 1.268 . S
C488 O504 1.268 . S
C489 O495 1.268 . S
C489 O503 1.268 . S
C490 O496 1.268 . S
C490 O505 1.268 . S
C491 O497 1.268 . S
C491 O501 1.268 . S
C492 O498 1.268 . S
C492 O500 1.268 . S
C493 O499 1.268 . S
C493 O502 1.268 . S
O494 Sc484 2.105 . S
O494 C488 1.268 . S
O495 Sc485 2.105 . S
O495 C489 1.268 . S
O496 Sc486 2.105 . S
O496 C490 1.268 . S
O497 Sc484 2.105 . S
O497 C491 1.268 . S
O498 Sc486 2.105 . S
O498 C492 1.268 . S
O499 Sc485 2.105 . S
O499 C493 1.268 . S
O500 Sc484 2.105 . S
O500 C492 1.268 . S
O501 Sc485 2.105 . S
O501 C491 1.268 . S
O502 Sc486 2.105 . S
O502 C493 1.268 . S
O503 Sc484 2.105 . S
O503 C489 1.268 . S
O504 Sc486 2.105 . S
O504 C488 1.268 . S
O505 Sc485 2.105 . S
O505 C490 1.268 . S
Sc506 O509 2.025 . S
Sc506 O516 2.105 . S
Sc506 O519 2.105 . S
Sc506 O522 2.105 . S
Sc506 O525 2.105 . S
Sc507 O509 2.025 . S
Sc507 O517 2.105 . S
Sc507 O521 2.105 . S
Sc507 O523 2.105 . S
Sc507 O527 2.105 . S
Sc508 O509 2.025 . S
Sc508 O518 2.105 . S
Sc508 O520 2.105 . S
Sc508 O524 2.105 . S
Sc508 O526 2.105 . S
O509 Sc506 2.025 . S
O509 Sc507 2.025 . S
O509 Sc508 2.025 . S
C510 O516 1.268 . S
C510 O526 1.268 . S
C511 O517 1.268 . S
C511 O525 1.268 . S
C512 O518 1.268 . S
C512 O527 1.268 . S
C513 O519 1.268 . S
C513 O523 1.268 . S
C514 O520 1.268 . S
C514 O522 1.268 . S
C515 O521 1.268 . S
C515 O524 1.268 . S
O516 Sc506 2.105 . S
O516 C510 1.268 . S
O517 Sc507 2.105 . S
O517 C511 1.268 . S
O518 Sc508 2.105 . S
O518 C512 1.268 . S
O519 Sc506 2.105 . S
O519 C513 1.268 . S
O520 Sc508 2.105 . S
O520 C514 1.268 . S
O521 Sc507 2.105 . S
O521 C515 1.268 . S
O522 Sc506 2.105 . S
O522 C514 1.268 . S
O523 Sc507 2.105 . S
O523 C513 1.268 . S
O524 Sc508 2.105 . S
O524 C515 1.268 . S
O525 Sc506 2.105 . S
O525 C511 1.268 . S
O526 Sc508 2.105 . S
O526 C510 1.268 . S
O527 Sc507 2.105 . S
O527 C512 1.268 . S
Sc528 O531 2.025 . S
Sc528 O538 2.105 . S
Sc528 O541 2.105 . S
Sc528 O544 2.105 . S
Sc528 O547 2.105 . S
Sc529 O531 2.025 . S
Sc529 O539 2.105 . S
Sc529 O543 2.105 . S
Sc529 O545 2.105 . S
Sc529 O549 2.105 . S
Sc530 O531 2.025 . S
Sc530 O540 2.105 . S
Sc530 O542 2.105 . S
Sc530 O546 2.105 . S
Sc530 O548 2.105 . S
O531 Sc528 2.025 . S
O531 Sc529 2.025 . S
O531 Sc530 2.025 . S
C532 O538 1.268 . S
C532 O548 1.268 . S
C533 O539 1.268 . S
C533 O547 1.268 . S
C534 O540 1.268 . S
C534 O549 1.268 . S
C535 O541 1.268 . S
C535 O545 1.268 . S
C536 O542 1.268 . S
C536 O544 1.268 . S
C537 O543 1.268 . S
C537 O546 1.268 . S
O538 Sc528 2.105 . S
O538 C532 1.268 . S
O539 Sc529 2.105 . S
O539 C533 1.268 . S
O540 Sc530 2.105 . S
O540 C534 1.268 . S
O541 Sc528 2.105 . S
O541 C535 1.268 . S
O542 Sc530 2.105 . S
O542 C536 1.268 . S
O543 Sc529 2.105 . S
O543 C537 1.268 . S
O544 Sc528 2.105 . S
O544 C536 1.268 . S
O545 Sc529 2.105 . S
O545 C535 1.268 . S
O546 Sc530 2.105 . S
O546 C537 1.268 . S
O547 Sc528 2.105 . S
O547 C533 1.268 . S
O548 Sc530 2.105 . S
O548 C532 1.268 . S
O549 Sc529 2.105 . S
O549 C534 1.268 . S
Sc550 O553 2.025 . S
Sc550 O560 2.105 . S
Sc550 O563 2.105 . S
Sc550 O566 2.105 . S
Sc550 O569 2.105 . S
Sc551 O553 2.025 . S
Sc551 O561 2.105 . S
Sc551 O565 2.105 . S
Sc551 O567 2.105 . S
Sc551 O571 2.105 . S
Sc552 O553 2.025 . S
Sc552 O562 2.105 . S
Sc552 O564 2.105 . S
Sc552 O568 2.105 . S
Sc552 O570 2.105 . S
O553 Sc550 2.025 . S
O553 Sc551 2.025 . S
O553 Sc552 2.025 . S
C554 O560 1.268 . S
C554 O570 1.268 . S
C555 O561 1.268 . S
C555 O569 1.268 . S
C556 O562 1.268 . S
C556 O571 1.268 . S
C557 O563 1.268 . S
C557 O567 1.268 . S
C558 O564 1.268 . S
C558 O566 1.268 . S
C559 O565 1.268 . S
C559 O568 1.268 . S
O560 Sc550 2.105 . S
O560 C554 1.268 . S
O561 Sc551 2.105 . S
O561 C555 1.268 . S
O562 Sc552 2.105 . S
O562 C556 1.268 . S
O563 Sc550 2.105 . S
O563 C557 1.268 . S
O564 Sc552 2.105 . S
O564 C558 1.268 . S
O565 Sc551 2.105 . S
O565 C559 1.268 . S
O566 Sc550 2.105 . S
O566 C558 1.268 . S
O567 Sc551 2.105 . S
O567 C557 1.268 . S
O568 Sc552 2.105 . S
O568 C559 1.268 . S
O569 Sc550 2.105 . S
O569 C555 1.268 . S
O570 Sc552 2.105 . S
O570 C554 1.268 . S
O571 Sc551 2.105 . S
O571 C556 1.268 . S
Sc572 O575 2.025 . S
Sc572 O582 2.105 . S
Sc572 O585 2.105 . S
Sc572 O588 2.105 . S
Sc572 O591 2.105 . S
Sc573 O575 2.025 . S
Sc573 O583 2.105 . S
Sc573 O587 2.105 . S
Sc573 O589 2.105 . S
Sc573 O593 2.105 . S
Sc574 O575 2.025 . S
Sc574 O584 2.105 . S
Sc574 O586 2.105 . S
Sc574 O590 2.105 . S
Sc574 O592 2.105 . S
O575 Sc572 2.025 . S
O575 Sc573 2.025 . S
O575 Sc574 2.025 . S
C576 O582 1.268 . S
C576 O592 1.268 . S
C577 O583 1.268 . S
C577 O591 1.268 . S
C578 O584 1.268 . S
C578 O593 1.268 . S
C579 O585 1.268 . S
C579 O589 1.268 . S
C580 O586 1.268 . S
C580 O588 1.268 . S
C581 O587 1.268 . S
C581 O590 1.268 . S
O582 Sc572 2.105 . S
O582 C576 1.268 . S
O583 Sc573 2.105 . S
O583 C577 1.268 . S
O584 Sc574 2.105 . S
O584 C578 1.268 . S
O585 Sc572 2.105 . S
O585 C579 1.268 . S
O586 Sc574 2.105 . S
O586 C580 1.268 . S
O587 Sc573 2.105 . S
O587 C581 1.268 . S
O588 Sc572 2.105 . S
O588 C580 1.268 . S
O589 Sc573 2.105 . S
O589 C579 1.268 . S
O590 Sc574 2.105 . S
O590 C581 1.268 . S
O591 Sc572 2.105 . S
O591 C577 1.268 . S
O592 Sc574 2.105 . S
O592 C576 1.268 . S
O593 Sc573 2.105 . S
O593 C578 1.268 . S
Sc594 O597 2.025 . S
Sc594 O604 2.105 . S
Sc594 O607 2.105 . S
Sc594 O610 2.105 . S
Sc594 O613 2.105 . S
Sc595 O597 2.025 . S
Sc595 O605 2.105 . S
Sc595 O609 2.105 . S
Sc595 O611 2.105 . S
Sc595 O615 2.105 . S
Sc596 O597 2.025 . S
Sc596 O606 2.105 . S
Sc596 O608 2.105 . S
Sc596 O612 2.105 . S
Sc596 O614 2.105 . S
O597 Sc594 2.025 . S
O597 Sc595 2.025 . S
O597 Sc596 2.025 . S
C598 O604 1.268 . S
C598 O614 1.268 . S
C599 O605 1.268 . S
C599 O613 1.268 . S
C600 O606 1.268 . S
C600 O615 1.268 . S
C601 O607 1.268 . S
C601 O611 1.268 . S
C602 O608 1.268 . S
C602 O610 1.268 . S
C603 O609 1.268 . S
C603 O612 1.268 . S
O604 Sc594 2.105 . S
O604 C598 1.268 . S
O605 Sc595 2.105 . S
O605 C599 1.268 . S
O606 Sc596 2.105 . S
O606 C600 1.268 . S
O607 Sc594 2.105 . S
O607 C601 1.268 . S
O608 Sc596 2.105 . S
O608 C602 1.268 . S
O609 Sc595 2.105 . S
O609 C603 1.268 . S
O610 Sc594 2.105 . S
O610 C602 1.268 . S
O611 Sc595 2.105 . S
O611 C601 1.268 . S
O612 Sc596 2.105 . S
O612 C603 1.268 . S
O613 Sc594 2.105 . S
O613 C599 1.268 . S
O614 Sc596 2.105 . S
O614 C598 1.268 . S
O615 Sc595 2.105 . S
O615 C600 1.268 . S
Sc616 O619 2.025 . S
Sc616 O626 2.105 . S
Sc616 O629 2.105 . S
Sc616 O632 2.105 . S
Sc616 O635 2.105 . S
Sc617 O619 2.025 . S
Sc617 O627 2.105 . S
Sc617 O631 2.105 . S
Sc617 O633 2.105 . S
Sc617 O637 2.105 . S
Sc618 O619 2.025 . S
Sc618 O628 2.105 . S
Sc618 O630 2.105 . S
Sc618 O634 2.105 . S
Sc618 O636 2.105 . S
O619 Sc616 2.025 . S
O619 Sc617 2.025 . S
O619 Sc618 2.025 . S
C620 O626 1.268 . S
C620 O636 1.268 . S
C621 O627 1.268 . S
C621 O635 1.268 . S
C622 O628 1.268 . S
C622 O637 1.268 . S
C623 O629 1.268 . S
C623 O633 1.268 . S
C624 O630 1.268 . S
C624 O632 1.268 . S
C625 O631 1.268 . S
C625 O634 1.268 . S
O626 Sc616 2.105 . S
O626 C620 1.268 . S
O627 Sc617 2.105 . S
O627 C621 1.268 . S
O628 Sc618 2.105 . S
O628 C622 1.268 . S
O629 Sc616 2.105 . S
O629 C623 1.268 . S
O630 Sc618 2.105 . S
O630 C624 1.268 . S
O631 Sc617 2.105 . S
O631 C625 1.268 . S
O632 Sc616 2.105 . S
O632 C624 1.268 . S
O633 Sc617 2.105 . S
O633 C623 1.268 . S
O634 Sc618 2.105 . S
O634 C625 1.268 . S
O635 Sc616 2.105 . S
O635 C621 1.268 . S
O636 Sc618 2.105 . S
O636 C620 1.268 . S
O637 Sc617 2.105 . S
O637 C622 1.268 . S
Sc638 O641 2.025 . S
Sc638 O648 2.105 . S
Sc638 O651 2.105 . S
Sc638 O654 2.105 . S
Sc638 O657 2.105 . S
Sc639 O641 2.025 . S
Sc639 O649 2.105 . S
Sc639 O653 2.105 . S
Sc639 O655 2.105 . S
Sc639 O659 2.105 . S
Sc640 O641 2.025 . S
Sc640 O650 2.105 . S
Sc640 O652 2.105 . S
Sc640 O656 2.105 . S
Sc640 O658 2.105 . S
O641 Sc638 2.025 . S
O641 Sc639 2.025 . S
O641 Sc640 2.025 . S
C642 O648 1.268 . S
C642 O658 1.268 . S
C643 O649 1.268 . S
C643 O657 1.268 . S
C644 O650 1.268 . S
C644 O659 1.268 . S
C645 O651 1.268 . S
C645 O655 1.268 . S
C646 O652 1.268 . S
C646 O654 1.268 . S
C647 O653 1.268 . S
C647 O656 1.268 . S
O648 Sc638 2.105 . S
O648 C642 1.268 . S
O649 Sc639 2.105 . S
O649 C643 1.268 . S
O650 Sc640 2.105 . S
O650 C644 1.268 . S
O651 Sc638 2.105 . S
O651 C645 1.268 . S
O652 Sc640 2.105 . S
O652 C646 1.268 . S
O653 Sc639 2.105 . S
O653 C647 1.268 . S
O654 Sc638 2.105 . S
O654 C646 1.268 . S
O655 Sc639 2.105 . S
O655 C645 1.268 . S
O656 Sc640 2.105 . S
O656 C647 1.268 . S
O657 Sc638 2.105 . S
O657 C643 1.268 . S
O658 Sc640 2.105 . S
O658 C642 1.268 . S
O659 Sc639 2.105 . S
O659 C644 1.268 . S
Sc660 O663 2.025 . S
Sc660 O670 2.105 . S
Sc660 O673 2.105 . S
Sc660 O676 2.105 . S
Sc660 O679 2.105 . S
Sc661 O663 2.025 . S
Sc661 O671 2.105 . S
Sc661 O675 2.105 . S
Sc661 O677 2.105 . S
Sc661 O681 2.105 . S
Sc662 O663 2.025 . S
Sc662 O672 2.105 . S
Sc662 O674 2.105 . S
Sc662 O678 2.105 . S
Sc662 O680 2.105 . S
O663 Sc660 2.025 . S
O663 Sc661 2.025 . S
O663 Sc662 2.025 . S
C664 O670 1.268 . S
C664 O680 1.268 . S
C665 O671 1.268 . S
C665 O679 1.268 . S
C666 O672 1.268 . S
C666 O681 1.268 . S
C667 O673 1.268 . S
C667 O677 1.268 . S
C668 O674 1.268 . S
C668 O676 1.268 . S
C669 O675 1.268 . S
C669 O678 1.268 . S
O670 Sc660 2.105 . S
O670 C664 1.268 . S
O671 Sc661 2.105 . S
O671 C665 1.268 . S
O672 Sc662 2.105 . S
O672 C666 1.268 . S
O673 Sc660 2.105 . S
O673 C667 1.268 . S
O674 Sc662 2.105 . S
O674 C668 1.268 . S
O675 Sc661 2.105 . S
O675 C669 1.268 . S
O676 Sc660 2.105 . S
O676 C668 1.268 . S
O677 Sc661 2.105 . S
O677 C667 1.268 . S
O678 Sc662 2.105 . S
O678 C669 1.268 . S
O679 Sc660 2.105 . S
O679 C665 1.268 . S
O680 Sc662 2.105 . S
O680 C664 1.268 . S
O681 Sc661 2.105 . S
O681 C666 1.268 . S
Sc682 O685 2.025 . S
Sc682 O692 2.105 . S
Sc682 O695 2.105 . S
Sc682 O698 2.105 . S
Sc682 O701 2.105 . S
Sc683 O685 2.025 . S
Sc683 O693 2.105 . S
Sc683 O697 2.105 . S
Sc683 O699 2.105 . S
Sc683 O703 2.105 . S
Sc684 O685 2.025 . S
Sc684 O694 2.105 . S
Sc684 O696 2.105 . S
Sc684 O700 2.105 . S
Sc684 O702 2.105 . S
O685 Sc682 2.025 . S
O685 Sc683 2.025 . S
O685 Sc684 2.025 . S
C686 O692 1.268 . S
C686 O702 1.268 . S
C687 O693 1.268 . S
C687 O701 1.268 . S
C688 O694 1.268 . S
C688 O703 1.268 . S
C689 O695 1.268 . S
C689 O699 1.268 . S
C690 O696 1.268 . S
C690 O698 1.268 . S
C691 O697 1.268 . S
C691 O700 1.268 . S
O692 Sc682 2.105 . S
O692 C686 1.268 . S
O693 Sc683 2.105 . S
O693 C687 1.268 . S
O694 Sc684 2.105 . S
O694 C688 1.268 . S
O695 Sc682 2.105 . S
O695 C689 1.268 . S
O696 Sc684 2.105 . S
O696 C690 1.268 . S
O697 Sc683 2.105 . S
O697 C691 1.268 . S
O698 Sc682 2.105 . S
O698 C690 1.268 . S
O699 Sc683 2.105 . S
O699 C689 1.268 . S
O700 Sc684 2.105 . S
O700 C691 1.268 . S
O701 Sc682 2.105 . S
O701 C687 1.268 . S
O702 Sc684 2.105 . S
O702 C686 1.268 . S
O703 Sc683 2.105 . S
O703 C688 1.268 . S
Sc704 O707 2.025 . S
Sc704 O714 2.105 . S
Sc704 O717 2.105 . S
Sc704 O720 2.105 . S
Sc704 O723 2.105 . S
Sc705 O707 2.025 . S
Sc705 O715 2.105 . S
Sc705 O719 2.105 . S
Sc705 O721 2.105 . S
Sc705 O725 2.105 . S
Sc706 O707 2.025 . S
Sc706 O716 2.105 . S
Sc706 O718 2.105 . S
Sc706 O722 2.105 . S
Sc706 O724 2.105 . S
O707 Sc704 2.025 . S
O707 Sc705 2.025 . S
O707 Sc706 2.025 . S
C708 O714 1.268 . S
C708 O724 1.268 . S
C709 O715 1.268 . S
C709 O723 1.268 . S
C710 O716 1.268 . S
C710 O725 1.268 . S
C711 O717 1.268 . S
C711 O721 1.268 . S
C712 O718 1.268 . S
C712 O720 1.268 . S
C713 O719 1.268 . S
C713 O722 1.268 . S
O714 Sc704 2.105 . S
O714 C708 1.268 . S
O715 Sc705 2.105 . S
O715 C709 1.268 . S
O716 Sc706 2.105 . S
O716 C710 1.268 . S
O717 Sc704 2.105 . S
O717 C711 1.268 . S
O718 Sc706 2.105 . S
O718 C712 1.268 . S
O719 Sc705 2.105 . S
O719 C713 1.268 . S
O720 Sc704 2.105 . S
O720 C712 1.268 . S
O721 Sc705 2.105 . S
O721 C711 1.268 . S
O722 Sc706 2.105 . S
O722 C713 1.268 . S
O723 Sc704 2.105 . S
O723 C709 1.268 . S
O724 Sc706 2.105 . S
O724 C708 1.268 . S
O725 Sc705 2.105 . S
O725 C710 1.268 . S
Sc726 O729 2.025 . S
Sc726 O736 2.105 . S
Sc726 O739 2.105 . S
Sc726 O742 2.105 . S
Sc726 O745 2.105 . S
Sc727 O729 2.025 . S
Sc727 O737 2.105 . S
Sc727 O741 2.105 . S
Sc727 O743 2.105 . S
Sc727 O747 2.105 . S
Sc728 O729 2.025 . S
Sc728 O738 2.105 . S
Sc728 O740 2.105 . S
Sc728 O744 2.105 . S
Sc728 O746 2.105 . S
O729 Sc726 2.025 . S
O729 Sc727 2.025 . S
O729 Sc728 2.025 . S
C730 O736 1.268 . S
C730 O746 1.268 . S
C731 O737 1.268 . S
C731 O745 1.268 . S
C732 O738 1.268 . S
C732 O747 1.268 . S
C733 O739 1.268 . S
C733 O743 1.268 . S
C734 O740 1.268 . S
C734 O742 1.268 . S
C735 O741 1.268 . S
C735 O744 1.268 . S
O736 Sc726 2.105 . S
O736 C730 1.268 . S
O737 Sc727 2.105 . S
O737 C731 1.268 . S
O738 Sc728 2.105 . S
O738 C732 1.268 . S
O739 Sc726 2.105 . S
O739 C733 1.268 . S
O740 Sc728 2.105 . S
O740 C734 1.268 . S
O741 Sc727 2.105 . S
O741 C735 1.268 . S
O742 Sc726 2.105 . S
O742 C734 1.268 . S
O743 Sc727 2.105 . S
O743 C733 1.268 . S
O744 Sc728 2.105 . S
O744 C735 1.268 . S
O745 Sc726 2.105 . S
O745 C731 1.268 . S
O746 Sc728 2.105 . S
O746 C730 1.268 . S
O747 Sc727 2.105 . S
O747 C732 1.268 . S
Sc748 O751 2.025 . S
Sc748 O758 2.105 . S
Sc748 O761 2.105 . S
Sc748 O764 2.105 . S
Sc748 O767 2.105 . S
Sc749 O751 2.025 . S
Sc749 O759 2.105 . S
Sc749 O763 2.105 . S
Sc749 O765 2.105 . S
Sc749 O769 2.105 . S
Sc750 O751 2.025 . S
Sc750 O760 2.105 . S
Sc750 O762 2.105 . S
Sc750 O766 2.105 . S
Sc750 O768 2.105 . S
O751 Sc748 2.025 . S
O751 Sc749 2.025 . S
O751 Sc750 2.025 . S
C752 O758 1.268 . S
C752 O768 1.268 . S
C753 O759 1.268 . S
C753 O767 1.268 . S
C754 O760 1.268 . S
C754 O769 1.268 . S
C755 O761 1.268 . S
C755 O765 1.268 . S
C756 O762 1.268 . S
C756 O764 1.268 . S
C757 O763 1.268 . S
C757 O766 1.268 . S
O758 Sc748 2.105 . S
O758 C752 1.268 . S
O759 Sc749 2.105 . S
O759 C753 1.268 . S
O760 Sc750 2.105 . S
O760 C754 1.268 . S
O761 Sc748 2.105 . S
O761 C755 1.268 . S
O762 Sc750 2.105 . S
O762 C756 1.268 . S
O763 Sc749 2.105 . S
O763 C757 1.268 . S
O764 Sc748 2.105 . S
O764 C756 1.268 . S
O765 Sc749 2.105 . S
O765 C755 1.268 . S
O766 Sc750 2.105 . S
O766 C757 1.268 . S
O767 Sc748 2.105 . S
O767 C753 1.268 . S
O768 Sc750 2.105 . S
O768 C752 1.268 . S
O769 Sc749 2.105 . S
O769 C754 1.268 . S
Sc770 O773 2.025 . S
Sc770 O780 2.105 . S
Sc770 O783 2.105 . S
Sc770 O786 2.105 . S
Sc770 O789 2.105 . S
Sc771 O773 2.025 . S
Sc771 O781 2.105 . S
Sc771 O785 2.105 . S
Sc771 O787 2.105 . S
Sc771 O791 2.105 . S
Sc772 O773 2.025 . S
Sc772 O782 2.105 . S
Sc772 O784 2.105 . S
Sc772 O788 2.105 . S
Sc772 O790 2.105 . S
O773 Sc770 2.025 . S
O773 Sc771 2.025 . S
O773 Sc772 2.025 . S
C774 O780 1.268 . S
C774 O790 1.268 . S
C775 O781 1.268 . S
C775 O789 1.268 . S
C776 O782 1.268 . S
C776 O791 1.268 . S
C777 O783 1.268 . S
C777 O787 1.268 . S
C778 O784 1.268 . S
C778 O786 1.268 . S
C779 O785 1.268 . S
C779 O788 1.268 . S
O780 Sc770 2.105 . S
O780 C774 1.268 . S
O781 Sc771 2.105 . S
O781 C775 1.268 . S
O782 Sc772 2.105 . S
O782 C776 1.268 . S
O783 Sc770 2.105 . S
O783 C777 1.268 . S
O784 Sc772 2.105 . S
O784 C778 1.268 . S
O785 Sc771 2.105 . S
O785 C779 1.268 . S
O786 Sc770 2.105 . S
O786 C778 1.268 . S
O787 Sc771 2.105 . S
O787 C777 1.268 . S
O788 Sc772 2.105 . S
O788 C779 1.268 . S
O789 Sc770 2.105 . S
O789 C775 1.268 . S
O790 Sc772 2.105 . S
O790 C774 1.268 . S
O791 Sc771 2.105 . S
O791 C776 1.268 . S
H792 C800 0.929 . S
H793 C802 0.930 . S
H794 C804 0.930 . S
H795 C807 0.929 . S
H796 C810 0.930 . S
H797 C812 0.960 . S
H798 C812 0.960 . S
H799 C812 0.960 . S
C800 H792 0.929 . S
C800 C801 1.377 . S
C800 C802 1.384 . S
C801 C800 1.377 . S
C801 C807 1.390 . S
C802 H793 0.930 . S
C802 C800 1.384 . S
C802 C803 1.372 . S
C803 C802 1.372 . S
C803 C804 1.400 . S
C803 C808 1.490 . S
C804 H794 0.930 . S
C804 C803 1.400 . S
C804 C807 1.386 . S
H805 C821 0.930 . S
H806 C822 0.931 . S
C807 H795 0.929 . S
C807 C801 1.390 . S
C807 C804 1.386 . S
C808 C803 1.490 . S
C808 C810 1.395 . S
C808 C811 1.403 . S
H809 C815 0.930 . S
C810 H796 0.930 . S
C810 C808 1.395 . S
C810 C813 1.403 1_554 S
C811 C808 1.403 . S
C811 C812 1.524 . S
C811 C815 1.368 1_554 S
C812 H797 0.960 . S
C812 H798 0.960 . S
C812 H799 0.960 . S
C812 C811 1.524 . S
C813 C810 1.403 1_556 S
C813 C814 1.392 . S
C813 C817 1.495 . S
C814 C813 1.392 . S
C814 C815 1.417 . S
C814 C816 1.478 . S
C815 H809 0.930 . S
C815 C811 1.368 1_556 S
C815 C814 1.417 . S
C816 C814 1.478 . S
C816 C818 1.381 . S
C816 C822 1.383 . S
C817 C813 1.495 . S
C817 H823 0.959 . S
C817 H824 0.961 . S
C817 H825 0.960 . S
C818 C816 1.381 . S
C818 C819 1.394 . S
C818 H826 0.930 . S
C819 C818 1.394 . S
C819 C820 1.383 . S
C819 H827 0.929 . S
C820 C819 1.383 . S
C820 C821 1.377 . S
C821 H805 0.930 . S
C821 C820 1.377 . S
C821 C822 1.379 . S
C822 H806 0.931 . S
C822 C816 1.383 . S
C822 C821 1.379 . S
H823 C817 0.959 . S
H824 C817 0.961 . S
H825 C817 0.960 . S
H826 C818 0.930 . S
H827 C819 0.929 . S
H828 C836 0.929 . S
H829 C838 0.930 . S
H830 C840 0.930 . S
H831 C843 0.929 . S
H832 C846 0.930 . S
H833 C848 0.960 . S
H834 C848 0.960 . S
H835 C848 0.960 . S
C836 H828 0.929 . S
C836 C837 1.377 . S
C836 C838 1.384 . S
C837 C836 1.377 . S
C837 C843 1.390 . S
C838 H829 0.930 . S
C838 C836 1.384 . S
C838 C839 1.372 . S
C839 C838 1.372 . S
C839 C840 1.400 . S
C839 C844 1.490 . S
C840 H830 0.930 . S
C840 C839 1.400 . S
C840 C843 1.386 . S
H841 C857 0.930 1_545 S
H842 C858 0.931 . S
C843 H831 0.929 . S
C843 C837 1.390 . S
C843 C840 1.386 . S
C844 C839 1.490 . S
C844 C846 1.395 . S
C844 C847 1.403 . S
H845 C851 0.930 . S
C846 H832 0.930 . S
C846 C844 1.395 . S
C846 C849 1.403 1_554 S
C847 C844 1.403 . S
C847 C848 1.524 . S
C847 C851 1.400 1_554 S
C848 H833 0.960 . S
C848 H834 0.960 . S
C848 H835 0.960 . S
C848 C847 1.524 . S
C849 C846 1.403 1_556 S
C849 C850 1.392 . S
C849 C853 1.495 . S
C850 C849 1.392 . S
C850 C851 1.385 . S
C850 C852 1.478 . S
C851 H845 0.930 . S
C851 C847 1.400 1_556 S
C851 C850 1.385 . S
C852 C850 1.478 . S
C852 C854 1.381 . S
C852 C858 1.383 . S
C853 C849 1.495 . S
C853 H859 0.959 . S
C853 H860 0.961 . S
C853 H861 0.960 . S
C854 C852 1.381 . S
C854 C855 1.394 . S
C854 H862 0.930 . S
C855 C854 1.394 . S
C855 C856 1.383 . S
C855 H863 0.929 . S
C856 C855 1.383 . S
C856 C857 1.377 . S
C857 H841 0.930 1_565 S
C857 C856 1.377 . S
C857 C858 1.379 . S
C858 H842 0.931 . S
C858 C852 1.383 . S
C858 C857 1.379 . S
H859 C853 0.959 . S
H860 C853 0.961 . S
H861 C853 0.960 . S
H862 C854 0.930 . S
H863 C855 0.929 . S
H864 C872 0.929 . S
H865 C874 0.930 . S
H866 C876 0.930 . S
H867 C879 0.929 . S
H868 C882 0.930 . S
H869 C884 0.960 1_556 S
H870 C884 0.960 . S
H871 C884 0.960 . S
C872 H864 0.929 . S
C872 C873 1.377 . S
C872 C874 1.384 . S
C873 C872 1.377 . S
C873 C879 1.390 . S
C874 H865 0.930 . S
C874 C872 1.384 . S
C874 C875 1.372 . S
C875 C874 1.372 . S
C875 C876 1.400 . S
C875 C880 1.490 . S
C876 H866 0.930 . S
C876 C875 1.400 . S
C876 C879 1.386 . S
H877 C893 0.930 . S
H878 C894 0.931 . S
C879 H867 0.929 . S
C879 C873 1.390 . S
C879 C876 1.386 . S
C880 C875 1.490 . S
C880 C882 1.395 . S
C880 C883 1.403 . S
H881 C887 0.930 . S
C882 H868 0.930 . S
C882 C880 1.395 . S
C882 C885 1.435 . S
C883 C880 1.403 . S
C883 C884 1.524 . S
C883 C887 1.400 1_554 S
C884 H869 0.960 1_554 S
C884 H870 0.960 . S
C884 H871 0.960 . S
C884 C883 1.524 . S
C885 C882 1.435 . S
C885 C886 1.364 1_554 S
C885 C889 1.494 1_554 S
C886 C885 1.364 1_556 S
C886 C887 1.385 . S
C886 C888 1.478 . S
C887 H881 0.930 . S
C887 C883 1.400 1_556 S
C887 C886 1.385 . S
C888 C886 1.478 . S
C888 C890 1.381 . S
C888 C894 1.383 . S
C889 C885 1.494 1_556 S
C889 H895 0.946 1_556 S
C889 H896 0.974 . S
C889 H897 0.961 . S
C890 C888 1.381 . S
C890 C891 1.394 . S
C890 H898 0.930 . S
C891 C890 1.394 . S
C891 C892 1.383 . S
C891 H899 0.929 1_455 S
C892 C891 1.383 . S
C892 C893 1.377 . S
C893 H877 0.930 . S
C893 C892 1.377 . S
C893 C894 1.379 . S
C894 H878 0.931 . S
C894 C888 1.383 . S
C894 C893 1.379 . S
H895 C889 0.946 1_554 S
H896 C889 0.974 . S
H897 C889 0.961 . S
H898 C890 0.930 . S
H899 C891 0.929 1_655 S
H900 C908 0.929 . S
H901 C910 0.930 . S
H902 C912 0.930 . S
H903 C915 0.929 . S
H904 C918 0.930 . S
H905 C920 0.960 . S
H906 C920 0.960 . S
H907 C920 0.960 . S
C908 H900 0.929 . S
C908 C909 1.377 . S
C908 C910 1.384 . S
C909 C908 1.377 . S
C909 C915 1.390 . S
C910 H901 0.930 . S
C910 C908 1.384 . S
C910 C911 1.372 . S
C911 C910 1.372 . S
C911 C912 1.400 . S
C911 C916 1.490 . S
C912 H902 0.930 . S
C912 C911 1.400 . S
C912 C915 1.386 . S
H913 C929 0.930 . S
H914 C930 0.931 . S
C915 H903 0.929 . S
C915 C909 1.390 . S
C915 C912 1.386 . S
C916 C911 1.490 . S
C916 C918 1.395 . S
C916 C919 1.403 . S
H917 C923 0.930 . S
C918 H904 0.930 . S
C918 C916 1.395 . S
C918 C921 1.403 . S
C919 C916 1.403 . S
C919 C920 1.524 . S
C919 C923 1.400 . S
C920 H905 0.960 . S
C920 H906 0.960 . S
C920 H907 0.960 . S
C920 C919 1.524 . S
C921 C918 1.403 . S
C921 C922 1.392 . S
C921 C925 1.495 . S
C922 C921 1.392 . S
C922 C923 1.385 . S
C922 C924 1.478 . S
C923 H917 0.930 . S
C923 C919 1.400 . S
C923 C922 1.385 . S
C924 C922 1.478 . S
C924 C926 1.381 . S
C924 C930 1.383 . S
C925 C921 1.495 . S
C925 H931 0.959 . S
C925 H932 0.961 . S
C925 H933 0.960 . S
C926 C924 1.381 . S
C926 C927 1.394 . S
C926 H934 0.930 . S
C927 C926 1.394 . S
C927 C928 1.383 . S
C927 H935 0.929 . S
C928 C927 1.383 . S
C928 C929 1.377 . S
C929 H913 0.930 . S
C929 C928 1.377 . S
C929 C930 1.379 . S
C930 H914 0.931 . S
C930 C924 1.383 . S
C930 C929 1.379 . S
H931 C925 0.959 . S
H932 C925 0.961 . S
H933 C925 0.960 . S
H934 C926 0.930 . S
H935 C927 0.929 . S
H936 C944 0.929 1_565 S
H937 C946 0.930 . S
H938 C948 0.930 . S
H939 C951 0.929 . S
H940 C954 0.930 . S
H941 C956 0.960 . S
H942 C956 0.960 . S
H943 C956 0.960 . S
C944 H936 0.929 1_545 S
C944 C945 1.377 . S
C944 C946 1.384 . S
C945 C944 1.377 . S
C945 C951 1.390 . S
C946 H937 0.930 . S
C946 C944 1.384 . S
C946 C947 1.372 . S
C947 C946 1.372 . S
C947 C948 1.400 . S
C947 C952 1.490 . S
C948 H938 0.930 . S
C948 C947 1.400 . S
C948 C951 1.386 . S
H949 C965 0.930 . S
H950 C966 0.931 . S
C951 H939 0.929 . S
C951 C945 1.390 . S
C951 C948 1.386 . S
C952 C947 1.490 . S
C952 C954 1.395 . S
C952 C955 1.403 . S
H953 C959 0.930 . S
C954 H940 0.930 . S
C954 C952 1.395 . S
C954 C957 1.403 . S
C955 C952 1.403 . S
C955 C956 1.524 . S
C955 C959 1.400 . S
C956 H941 0.960 . S
C956 H942 0.960 . S
C956 H943 0.960 . S
C956 C955 1.524 . S
C957 C954 1.403 . S
C957 C958 1.392 . S
C957 C961 1.495 . S
C958 C957 1.392 . S
C958 C959 1.385 . S
C958 C960 1.478 . S
C959 H953 0.930 . S
C959 C955 1.400 . S
C959 C958 1.385 . S
C960 C958 1.478 . S
C960 C962 1.381 . S
C960 C966 1.383 . S
C961 C957 1.495 . S
C961 H967 0.959 . S
C961 H968 0.961 . S
C961 H969 0.960 . S
C962 C960 1.381 . S
C962 C963 1.394 . S
C962 H970 0.930 . S
C963 C962 1.394 . S
C963 C964 1.383 . S
C963 H971 0.929 . S
C964 C963 1.383 . S
C964 C965 1.377 . S
C965 H949 0.930 . S
C965 C964 1.377 . S
C965 C966 1.379 . S
C966 H950 0.931 . S
C966 C960 1.383 . S
C966 C965 1.379 . S
H967 C961 0.959 . S
H968 C961 0.961 . S
H969 C961 0.960 . S
H970 C962 0.930 . S
H971 C963 0.929 . S
H972 C980 0.929 . S
H973 C982 0.930 . S
H974 C984 0.930 . S
H975 C987 0.929 . S
H976 C990 0.930 . S
H977 C992 0.960 . S
H978 C992 0.960 . S
H979 C992 0.960 . S
C980 H972 0.929 . S
C980 C981 1.377 . S
C980 C982 1.384 . S
C981 C980 1.377 . S
C981 C987 1.390 . S
C982 H973 0.930 . S
C982 C980 1.384 . S
C982 C983 1.372 . S
C983 C982 1.372 . S
C983 C984 1.400 . S
C983 C988 1.490 . S
C984 H974 0.930 . S
C984 C983 1.400 . S
C984 C987 1.386 . S
H985 C1001 0.930 . S
H986 C1002 0.931 . S
C987 H975 0.929 . S
C987 C981 1.390 . S
C987 C984 1.386 . S
C988 C983 1.490 . S
C988 C990 1.395 . S
C988 C991 1.403 . S
H989 C995 0.930 . S
C990 H976 0.930 . S
C990 C988 1.395 . S
C990 C993 1.403 . S
C991 C988 1.403 . S
C991 C992 1.524 . S
C991 C995 1.400 . S
C992 H977 0.960 . S
C992 H978 0.960 . S
C992 H979 0.960 . S
C992 C991 1.524 . S
C993 C990 1.403 . S
C993 C994 1.392 . S
C993 C997 1.495 . S
C994 C993 1.392 . S
C994 C995 1.385 . S
C994 C996 1.478 . S
C995 H989 0.930 . S
C995 C991 1.400 . S
C995 C994 1.385 . S
C996 C994 1.478 . S
C996 C998 1.381 . S
C996 C1002 1.383 . S
C997 C993 1.495 . S
C997 H1003 0.959 . S
C997 H1004 0.961 . S
C997 H1005 0.960 . S
C998 C996 1.381 . S
C998 C999 1.394 . S
C998 H1006 0.930 . S
C999 C998 1.394 . S
C999 C1000 1.383 . S
C999 H1007 0.929 . S
C1000 C999 1.383 . S
C1000 C1001 1.377 . S
C1001 H985 0.930 . S
C1001 C1000 1.377 . S
C1001 C1002 1.379 . S
C1002 H986 0.931 . S
C1002 C996 1.383 . S
C1002 C1001 1.379 . S
H1003 C997 0.959 . S
H1004 C997 0.961 . S
H1005 C997 0.960 . S
H1006 C998 0.930 . S
H1007 C999 0.929 . S
H1008 C1016 0.929 . S
H1009 C1018 0.930 . S
H1010 C1020 0.930 . S
H1011 C1023 0.929 . S
H1012 C1026 0.930 . S
H1013 C1028 0.960 . S
H1014 C1028 0.960 . S
H1015 C1028 0.960 . S
C1016 H1008 0.929 . S
C1016 C1017 1.377 . S
C1016 C1018 1.384 . S
C1017 C1016 1.377 . S
C1017 C1023 1.390 . S
C1018 H1009 0.930 . S
C1018 C1016 1.384 . S
C1018 C1019 1.372 . S
C1019 C1018 1.372 . S
C1019 C1020 1.400 . S
C1019 C1024 1.490 . S
C1020 H1010 0.930 . S
C1020 C1019 1.400 . S
C1020 C1023 1.386 . S
H1021 C1037 0.930 . S
H1022 C1038 0.931 . S
C1023 H1011 0.929 . S
C1023 C1017 1.390 . S
C1023 C1020 1.386 . S
C1024 C1019 1.490 . S
C1024 C1026 1.395 1_554 S
C1024 C1027 1.403 . S
H1025 C1031 0.930 . S
C1026 H1012 0.930 . S
C1026 C1024 1.395 1_556 S
C1026 C1029 1.403 . S
C1027 C1024 1.403 . S
C1027 C1028 1.524 . S
C1027 C1031 1.400 1_554 S
C1028 H1013 0.960 . S
C1028 H1014 0.960 . S
C1028 H1015 0.960 . S
C1028 C1027 1.524 . S
C1029 C1026 1.403 . S
C1029 C1030 1.392 . S
C1029 C1033 1.495 . S
C1030 C1029 1.392 . S
C1030 C1031 1.385 . S
C1030 C1032 1.478 . S
C1031 H1025 0.930 . S
C1031 C1027 1.400 1_556 S
C1031 C1030 1.385 . S
C1032 C1030 1.478 . S
C1032 C1034 1.381 . S
C1032 C1038 1.383 . S
C1033 C1029 1.495 . S
C1033 H1039 0.959 . S
C1033 H1040 0.961 . S
C1033 H1041 0.960 . S
C1034 C1032 1.381 . S
C1034 C1035 1.394 . S
C1034 H1042 0.930 . S
C1035 C1034 1.394 . S
C1035 C1036 1.383 . S
C1035 H1043 0.929 . S
C1036 C1035 1.383 . S
C1036 C1037 1.377 . S
C1037 H1021 0.930 . S
C1037 C1036 1.377 . S
C1037 C1038 1.379 . S
C1038 H1022 0.931 . S
C1038 C1032 1.383 . S
C1038 C1037 1.379 . S
H1039 C1033 0.959 . S
H1040 C1033 0.961 . S
H1041 C1033 0.960 . S
H1042 C1034 0.930 . S
H1043 C1035 0.929 . S
H1044 C1052 0.929 . S
H1045 C1054 0.930 . S
H1046 C1056 0.930 . S
H1047 C1059 0.929 . S
H1048 C1062 0.930 . S
H1049 C1064 0.932 1_554 S
H1050 C1064 0.981 . S
H1051 C1064 0.967 . S
C1052 H1044 0.929 . S
C1052 C1053 1.377 . S
C1052 C1054 1.384 . S
C1053 C1052 1.377 . S
C1053 C1059 1.390 . S
C1054 H1045 0.930 . S
C1054 C1052 1.384 . S
C1054 C1055 1.372 . S
C1055 C1054 1.372 . S
C1055 C1056 1.400 . S
C1055 C1060 1.490 . S
C1056 H1046 0.930 . S
C1056 C1055 1.400 . S
C1056 C1059 1.386 . S
H1057 C1073 0.930 . S
H1058 C1074 0.931 . S
C1059 H1047 0.929 . S
C1059 C1053 1.390 . S
C1059 C1056 1.386 . S
C1060 C1055 1.490 . S
C1060 C1062 1.395 . S
C1060 C1063 1.403 . S
H1061 C1067 0.930 . S
C1062 H1048 0.930 . S
C1062 C1060 1.395 . S
C1062 C1065 1.403 . S
C1063 C1060 1.403 . S
C1063 C1064 1.526 . S
C1063 C1067 1.400 1_556 S
C1064 H1049 0.932 1_556 S
C1064 H1050 0.981 . S
C1064 H1051 0.967 . S
C1064 C1063 1.526 . S
C1065 C1062 1.403 . S
C1065 C1066 1.392 1_556 S
C1065 C1069 1.495 . S
C1066 C1065 1.392 1_554 S
C1066 C1067 1.385 . S
C1066 C1068 1.478 . S
C1067 H1061 0.930 . S
C1067 C1063 1.400 1_554 S
C1067 C1066 1.385 . S
C1068 C1066 1.478 . S
C1068 C1070 1.381 . S
C1068 C1074 1.383 . S
C1069 C1065 1.495 . S
C1069 H1075 0.959 . S
C1069 H1076 0.961 1_556 S
C1069 H1077 0.960 . S
C1070 C1068 1.381 . S
C1070 C1071 1.394 . S
C1070 H1078 0.930 . S
C1071 C1070 1.394 . S
C1071 C1072 1.383 . S
C1071 H1079 0.929 1_545 S
C1072 C1071 1.383 . S
C1072 C1073 1.377 . S
C1073 H1057 0.930 . S
C1073 C1072 1.377 . S
C1073 C1074 1.379 . S
C1074 H1058 0.931 . S
C1074 C1068 1.383 . S
C1074 C1073 1.379 . S
H1075 C1069 0.959 . S
H1076 C1069 0.961 1_554 S
H1077 C1069 0.960 . S
H1078 C1070 0.930 . S
H1079 C1071 0.929 1_565 S
H1080 C1088 0.929 . S
H1081 C1090 0.930 . S
H1082 C1092 0.930 . S
H1083 C1095 0.929 . S
H1084 C1098 0.930 . S
H1085 C1100 0.960 . S
H1086 C1100 0.949 1_556 S
H1087 C1100 0.960 1_556 S
C1088 H1080 0.929 . S
C1088 C1089 1.377 . S
C1088 C1090 1.384 . S
C1089 C1088 1.377 . S
C1089 C1095 1.390 . S
C1090 H1081 0.930 . S
C1090 C1088 1.384 . S
C1090 C1091 1.372 . S
C1091 C1090 1.372 . S
C1091 C1092 1.400 . S
C1091 C1096 1.490 . S
C1092 H1082 0.930 . S
C1092 C1091 1.400 . S
C1092 C1095 1.386 . S
H1093 C1109 0.930 . S
H1094 C1110 0.931 . S
C1095 H1083 0.929 . S
C1095 C1089 1.390 . S
C1095 C1092 1.386 . S
C1096 C1091 1.490 . S
C1096 C1098 1.395 . S
C1096 C1099 1.392 1_556 S
H1097 C1103 0.930 . S
C1098 H1084 0.930 . S
C1098 C1096 1.395 . S
C1098 C1101 1.403 . S
C1099 C1096 1.392 1_554 S
C1099 C1100 1.526 . S
C1099 C1103 1.409 . S
C1100 H1085 0.960 . S
C1100 H1086 0.949 1_554 S
C1100 H1087 0.960 1_554 S
C1100 C1099 1.526 . S
C1101 C1098 1.403 . S
C1101 C1102 1.392 1_556 S
C1101 C1105 1.495 . S
C1102 C1101 1.392 1_554 S
C1102 C1103 1.385 . S
C1102 C1104 1.478 . S
C1103 H1097 0.930 . S
C1103 C1099 1.409 . S
C1103 C1102 1.385 . S
C1104 C1102 1.478 . S
C1104 C1106 1.381 . S
C1104 C1110 1.383 . S
C1105 C1101 1.495 . S
C1105 H1111 0.959 . S
C1105 H1112 0.961 . S
C1105 H1113 0.960 . S
C1106 C1104 1.381 . S
C1106 C1107 1.394 . S
C1106 H1114 0.930 . S
C1107 C1106 1.394 . S
C1107 C1108 1.383 . S
C1107 H1115 0.929 1_655 S
C1108 C1107 1.383 . S
C1108 C1109 1.377 . S
C1109 H1093 0.930 . S
C1109 C1108 1.377 . S
C1109 C1110 1.379 . S
C1110 H1094 0.931 . S
C1110 C1104 1.383 . S
C1110 C1109 1.379 . S
H1111 C1105 0.959 . S
H1112 C1105 0.961 . S
H1113 C1105 0.960 . S
H1114 C1106 0.930 . S
H1115 C1107 0.929 1_455 S
H1116 C1124 0.929 . S
H1117 C1126 0.930 . S
H1118 C1128 0.930 . S
H1119 C1131 0.929 . S
H1120 C1134 0.930 . S
H1121 C1136 0.960 . S
H1122 C1136 0.960 . S
H1123 C1136 0.960 . S
C1124 H1116 0.929 . S
C1124 C1125 1.377 . S
C1124 C1126 1.384 . S
C1125 C1124 1.377 . S
C1125 C1131 1.390 . S
C1126 H1117 0.930 . S
C1126 C1124 1.384 . S
C1126 C1127 1.372 . S
C1127 C1126 1.372 . S
C1127 C1128 1.400 . S
C1127 C1132 1.490 . S
C1128 H1118 0.930 . S
C1128 C1127 1.400 . S
C1128 C1131 1.386 . S
H1129 C1145 0.930 . S
H1130 C1146 0.931 . S
C1131 H1119 0.929 . S
C1131 C1125 1.390 . S
C1131 C1128 1.386 . S
C1132 C1127 1.490 . S
C1132 C1134 1.395 . S
C1132 C1135 1.403 . S
H1133 C1139 0.930 . S
C1134 H1120 0.930 . S
C1134 C1132 1.395 . S
C1134 C1137 1.403 . S
C1135 C1132 1.403 . S
C1135 C1136 1.524 . S
C1135 C1139 1.400 . S
C1136 H1121 0.960 . S
C1136 H1122 0.960 . S
C1136 H1123 0.960 . S
C1136 C1135 1.524 . S
C1137 C1134 1.403 . S
C1137 C1138 1.392 . S
C1137 C1141 1.495 . S
C1138 C1137 1.392 . S
C1138 C1139 1.385 . S
C1138 C1140 1.478 . S
C1139 H1133 0.930 . S
C1139 C1135 1.400 . S
C1139 C1138 1.385 . S
C1140 C1138 1.478 . S
C1140 C1142 1.381 . S
C1140 C1146 1.383 . S
C1141 C1137 1.495 . S
C1141 H1147 0.959 . S
C1141 H1148 0.961 . S
C1141 H1149 0.960 . S
C1142 C1140 1.381 . S
C1142 C1143 1.394 . S
C1142 H1150 0.930 . S
C1143 C1142 1.394 . S
C1143 C1144 1.383 . S
C1143 H1151 0.929 . S
C1144 C1143 1.383 . S
C1144 C1145 1.377 . S
C1145 H1129 0.930 . S
C1145 C1144 1.377 . S
C1145 C1146 1.379 . S
C1146 H1130 0.931 . S
C1146 C1140 1.383 . S
C1146 C1145 1.379 . S
H1147 C1141 0.959 . S
H1148 C1141 0.961 . S
H1149 C1141 0.960 . S
H1150 C1142 0.930 . S
H1151 C1143 0.929 . S
H1152 C1160 0.929 . S
H1153 C1162 0.930 . S
H1154 C1164 0.930 . S
H1155 C1167 0.929 . S
H1156 C1170 0.930 . S
H1157 C1172 0.960 . S
H1158 C1172 0.960 . S
H1159 C1172 0.960 . S
C1160 H1152 0.929 . S
C1160 C1161 1.377 . S
C1160 C1162 1.384 . S
C1161 C1160 1.377 . S
C1161 C1167 1.390 . S
C1162 H1153 0.930 . S
C1162 C1160 1.384 . S
C1162 C1163 1.372 . S
C1163 C1162 1.372 . S
C1163 C1164 1.400 . S
C1163 C1168 1.490 . S
C1164 H1154 0.930 . S
C1164 C1163 1.400 . S
C1164 C1167 1.386 . S
H1165 C1181 0.930 1_545 S
H1166 C1182 0.931 . S
C1167 H1155 0.929 . S
C1167 C1161 1.390 . S
C1167 C1164 1.386 . S
C1168 C1163 1.490 . S
C1168 C1170 1.395 . S
C1168 C1171 1.403 . S
H1169 C1175 0.930 . S
C1170 H1156 0.930 . S
C1170 C1168 1.395 . S
C1170 C1173 1.403 . S
C1171 C1168 1.403 . S
C1171 C1172 1.524 . S
C1171 C1175 1.400 . S
C1172 H1157 0.960 . S
C1172 H1158 0.960 . S
C1172 H1159 0.960 . S
C1172 C1171 1.524 . S
C1173 C1170 1.403 . S
C1173 C1174 1.392 . S
C1173 C1177 1.495 . S
C1174 C1173 1.392 . S
C1174 C1175 1.385 . S
C1174 C1176 1.478 . S
C1175 H1169 0.930 . S
C1175 C1171 1.400 . S
C1175 C1174 1.385 . S
C1176 C1174 1.478 . S
C1176 C1178 1.381 . S
C1176 C1182 1.383 . S
C1177 C1173 1.495 . S
C1177 H1183 0.959 . S
C1177 H1184 0.961 . S
C1177 H1185 0.960 . S
C1178 C1176 1.381 . S
C1178 C1179 1.394 . S
C1178 H1186 0.930 . S
C1179 C1178 1.394 . S
C1179 C1180 1.383 . S
C1179 H1187 0.929 . S
C1180 C1179 1.383 . S
C1180 C1181 1.377 . S
C1181 H1165 0.930 1_565 S
C1181 C1180 1.377 . S
C1181 C1182 1.379 . S
C1182 H1166 0.931 . S
C1182 C1176 1.383 . S
C1182 C1181 1.379 . S
H1183 C1177 0.959 . S
H1184 C1177 0.961 . S
H1185 C1177 0.960 . S
H1186 C1178 0.930 . S
H1187 C1179 0.929 . S
H1188 C1196 0.929 . S
H1189 C1198 0.930 . S
H1190 C1200 0.930 . S
H1191 C1203 0.929 . S
H1192 C1206 0.930 . S
H1193 C1208 0.960 . S
H1194 C1208 0.960 . S
H1195 C1208 0.960 . S
C1196 H1188 0.929 . S
C1196 C1197 1.377 . S
C1196 C1198 1.384 . S
C1197 C1196 1.377 . S
C1197 C1203 1.390 . S
C1198 H1189 0.930 . S
C1198 C1196 1.384 . S
C1198 C1199 1.372 . S
C1199 C1198 1.372 . S
C1199 C1200 1.400 . S
C1199 C1204 1.490 . S
C1200 H1190 0.930 . S
C1200 C1199 1.400 . S
C1200 C1203 1.386 . S
H1201 C1217 0.930 . S
H1202 C1218 0.931 . S
C1203 H1191 0.929 . S
C1203 C1197 1.390 . S
C1203 C1200 1.386 . S
C1204 C1199 1.490 . S
C1204 C1206 1.395 . S
C1204 C1207 1.403 . S
H1205 C1211 0.930 . S
C1206 H1192 0.930 . S
C1206 C1204 1.395 . S
C1206 C1209 1.403 . S
C1207 C1204 1.403 . S
C1207 C1208 1.524 . S
C1207 C1211 1.400 . S
C1208 H1193 0.960 . S
C1208 H1194 0.960 . S
C1208 H1195 0.960 . S
C1208 C1207 1.524 . S
C1209 C1206 1.403 . S
C1209 C1210 1.392 . S
C1209 C1213 1.495 . S
C1210 C1209 1.392 . S
C1210 C1211 1.385 . S
C1210 C1212 1.478 . S
C1211 H1205 0.930 . S
C1211 C1207 1.400 . S
C1211 C1210 1.385 . S
C1212 C1210 1.478 . S
C1212 C1214 1.381 . S
C1212 C1218 1.383 . S
C1213 C1209 1.495 . S
C1213 H1219 0.959 . S
C1213 H1220 0.961 . S
C1213 H1221 0.960 . S
C1214 C1212 1.381 . S
C1214 C1215 1.394 . S
C1214 H1222 0.930 . S
C1215 C1214 1.394 . S
C1215 C1216 1.383 . S
C1215 H1223 0.929 1_455 S
C1216 C1215 1.383 . S
C1216 C1217 1.377 . S
C1217 H1201 0.930 . S
C1217 C1216 1.377 . S
C1217 C1218 1.379 . S
C1218 H1202 0.931 . S
C1218 C1212 1.383 . S
C1218 C1217 1.379 . S
H1219 C1213 0.959 . S
H1220 C1213 0.961 . S
H1221 C1213 0.960 . S
H1222 C1214 0.930 . S
H1223 C1215 0.929 1_655 S
H1224 C1232 0.929 . S
H1225 C1234 0.930 . S
H1226 C1236 0.930 . S
H1227 C1239 0.929 . S
H1228 C1242 0.930 . S
H1229 C1244 0.960 . S
H1230 C1244 0.960 . S
H1231 C1244 0.960 . S
C1232 H1224 0.929 . S
C1232 C1233 1.377 . S
C1232 C1234 1.384 . S
C1233 C1232 1.377 . S
C1233 C1239 1.390 . S
C1234 H1225 0.930 . S
C1234 C1232 1.384 . S
C1234 C1235 1.372 . S
C1235 C1234 1.372 . S
C1235 C1236 1.400 . S
C1235 C1240 1.490 . S
C1236 H1226 0.930 . S
C1236 C1235 1.400 . S
C1236 C1239 1.386 . S
H1237 C1253 0.930 . S
H1238 C1254 0.931 . S
C1239 H1227 0.929 . S
C1239 C1233 1.390 . S
C1239 C1236 1.386 . S
C1240 C1235 1.490 . S
C1240 C1242 1.395 . S
C1240 C1243 1.403 . S
H1241 C1247 0.930 . S
C1242 H1228 0.930 . S
C1242 C1240 1.395 . S
C1242 C1245 1.403 . S
C1243 C1240 1.403 . S
C1243 C1244 1.524 . S
C1243 C1247 1.400 . S
C1244 H1229 0.960 . S
C1244 H1230 0.960 . S
C1244 H1231 0.960 . S
C1244 C1243 1.524 . S
C1245 C1242 1.403 . S
C1245 C1246 1.392 . S
C1245 C1249 1.495 . S
C1246 C1245 1.392 . S
C1246 C1247 1.385 . S
C1246 C1248 1.478 . S
C1247 H1241 0.930 . S
C1247 C1243 1.400 . S
C1247 C1246 1.385 . S
C1248 C1246 1.478 . S
C1248 C1250 1.381 . S
C1248 C1254 1.383 . S
C1249 C1245 1.495 . S
C1249 H1255 0.959 . S
C1249 H1256 0.961 . S
C1249 H1257 0.960 . S
C1250 C1248 1.381 . S
C1250 C1251 1.394 . S
C1250 H1258 0.930 . S
C1251 C1250 1.394 . S
C1251 C1252 1.383 . S
C1251 H1259 0.929 . S
C1252 C1251 1.383 . S
C1252 C1253 1.377 . S
C1253 H1237 0.930 . S
C1253 C1252 1.377 . S
C1253 C1254 1.379 . S
C1254 H1238 0.931 . S
C1254 C1248 1.383 . S
C1254 C1253 1.379 . S
H1255 C1249 0.959 . S
H1256 C1249 0.961 . S
H1257 C1249 0.960 . S
H1258 C1250 0.930 . S
H1259 C1251 0.929 . S
H1260 C1268 0.929 . S
H1261 C1270 0.930 . S
H1262 C1272 0.930 . S
H1263 C1275 0.929 . S
H1264 C1278 0.930 . S
H1265 C1280 0.960 . S
H1266 C1280 0.960 . S
H1267 C1280 0.960 . S
C1268 H1260 0.929 . S
C1268 C1269 1.377 . S
C1268 C1270 1.384 . S
C1269 C1268 1.377 . S
C1269 C1275 1.390 . S
C1270 H1261 0.930 . S
C1270 C1268 1.384 . S
C1270 C1271 1.372 . S
C1271 C1270 1.372 . S
C1271 C1272 1.400 . S
C1271 C1276 1.490 . S
C1272 H1262 0.930 . S
C1272 C1271 1.400 . S
C1272 C1275 1.386 . S
H1273 C1289 0.930 . S
H1274 C1290 0.931 . S
C1275 H1263 0.929 . S
C1275 C1269 1.390 . S
C1275 C1272 1.386 . S
C1276 C1271 1.490 . S
C1276 C1278 1.395 . S
C1276 C1279 1.403 . S
H1277 C1283 0.930 . S
C1278 H1264 0.930 . S
C1278 C1276 1.395 . S
C1278 C1281 1.403 . S
C1279 C1276 1.403 . S
C1279 C1280 1.524 . S
C1279 C1283 1.400 . S
C1280 H1265 0.960 . S
C1280 H1266 0.960 . S
C1280 H1267 0.960 . S
C1280 C1279 1.524 . S
C1281 C1278 1.403 . S
C1281 C1282 1.392 . S
C1281 C1285 1.495 . S
C1282 C1281 1.392 . S
C1282 C1283 1.385 . S
C1282 C1284 1.478 . S
C1283 H1277 0.930 . S
C1283 C1279 1.400 . S
C1283 C1282 1.385 . S
C1284 C1282 1.478 . S
C1284 C1286 1.381 . S
C1284 C1290 1.383 . S
C1285 C1281 1.495 . S
C1285 H1291 0.959 . S
C1285 H1292 0.961 . S
C1285 H1293 0.960 . S
C1286 C1284 1.381 . S
C1286 C1287 1.394 . S
C1286 H1294 0.930 . S
C1287 C1286 1.394 . S
C1287 C1288 1.383 . S
C1287 H1295 0.929 . S
C1288 C1287 1.383 . S
C1288 C1289 1.377 . S
C1289 H1273 0.930 . S
C1289 C1288 1.377 . S
C1289 C1290 1.379 . S
C1290 H1274 0.931 . S
C1290 C1284 1.383 . S
C1290 C1289 1.379 . S
H1291 C1285 0.959 . S
H1292 C1285 0.961 . S
H1293 C1285 0.960 . S
H1294 C1286 0.930 . S
H1295 C1287 0.929 . S
H1296 C1304 0.929 . S
H1297 C1306 0.930 . S
H1298 C1308 0.930 . S
H1299 C1311 0.929 . S
H1300 C1314 0.930 . S
H1301 C1316 0.960 . S
H1302 C1316 0.960 . S
H1303 C1316 0.960 . S
C1304 H1296 0.929 . S
C1304 C1305 1.377 . S
C1304 C1306 1.384 . S
C1305 C1304 1.377 . S
C1305 C1311 1.390 . S
C1306 H1297 0.930 . S
C1306 C1304 1.384 . S
C1306 C1307 1.372 . S
C1307 C1306 1.372 . S
C1307 C1308 1.400 . S
C1307 C1312 1.490 . S
C1308 H1298 0.930 . S
C1308 C1307 1.400 . S
C1308 C1311 1.386 . S
H1309 C1325 0.930 . S
H1310 C1326 0.931 . S
C1311 H1299 0.929 . S
C1311 C1305 1.390 . S
C1311 C1308 1.386 . S
C1312 C1307 1.490 . S
C1312 C1314 1.395 . S
C1312 C1315 1.403 . S
H1313 C1319 0.930 . S
C1314 H1300 0.930 . S
C1314 C1312 1.395 . S
C1314 C1317 1.403 . S
C1315 C1312 1.403 . S
C1315 C1316 1.524 . S
C1315 C1319 1.400 . S
C1316 H1301 0.960 . S
C1316 H1302 0.960 . S
C1316 H1303 0.960 . S
C1316 C1315 1.524 . S
C1317 C1314 1.403 . S
C1317 C1318 1.392 . S
C1317 C1321 1.495 . S
C1318 C1317 1.392 . S
C1318 C1319 1.385 . S
C1318 C1320 1.478 . S
C1319 H1313 0.930 . S
C1319 C1315 1.400 . S
C1319 C1318 1.385 . S
C1320 C1318 1.478 . S
C1320 C1322 1.381 . S
C1320 C1326 1.383 . S
C1321 C1317 1.495 . S
C1321 H1327 0.959 . S
C1321 H1328 0.961 . S
C1321 H1329 0.960 . S
C1322 C1320 1.381 . S
C1322 C1323 1.394 . S
C1322 H1330 0.930 . S
C1323 C1322 1.394 . S
C1323 C1324 1.383 . S
C1323 H1331 0.929 . S
C1324 C1323 1.383 . S
C1324 C1325 1.377 . S
C1325 H1309 0.930 . S
C1325 C1324 1.377 . S
C1325 C1326 1.379 . S
C1326 H1310 0.931 . S
C1326 C1320 1.383 . S
C1326 C1325 1.379 . S
H1327 C1321 0.959 . S
H1328 C1321 0.961 . S
H1329 C1321 0.960 . S
H1330 C1322 0.930 . S
H1331 C1323 0.929 . S
H1332 C1340 0.929 . S
H1333 C1342 0.930 . S
H1334 C1344 0.930 . S
H1335 C1347 0.929 . S
H1336 C1350 0.930 . S
H1337 C1352 0.960 . S
H1338 C1352 0.960 . S
H1339 C1352 0.960 . S
C1340 H1332 0.929 . S
C1340 C1341 1.377 . S
C1340 C1342 1.384 . S
C1341 C1340 1.377 . S
C1341 C1347 1.390 . S
C1342 H1333 0.930 . S
C1342 C1340 1.384 . S
C1342 C1343 1.372 . S
C1343 C1342 1.372 . S
C1343 C1344 1.400 . S
C1343 C1348 1.490 . S
C1344 H1334 0.930 . S
C1344 C1343 1.400 . S
C1344 C1347 1.386 . S
H1345 C1361 0.930 . S
H1346 C1362 0.931 . S
C1347 H1335 0.929 . S
C1347 C1341 1.390 . S
C1347 C1344 1.386 . S
C1348 C1343 1.490 . S
C1348 C1350 1.395 . S
C1348 C1351 1.403 . S
H1349 C1355 0.930 . S
C1350 H1336 0.930 . S
C1350 C1348 1.395 . S
C1350 C1353 1.403 . S
C1351 C1348 1.403 . S
C1351 C1352 1.524 . S
C1351 C1355 1.400 . S
C1352 H1337 0.960 . S
C1352 H1338 0.960 . S
C1352 H1339 0.960 . S
C1352 C1351 1.524 . S
C1353 C1350 1.403 . S
C1353 C1354 1.392 . S
C1353 C1357 1.495 . S
C1354 C1353 1.392 . S
C1354 C1355 1.385 . S
C1354 C1356 1.478 . S
C1355 H1349 0.930 . S
C1355 C1351 1.400 . S
C1355 C1354 1.385 . S
C1356 C1354 1.478 . S
C1356 C1358 1.381 . S
C1356 C1362 1.383 . S
C1357 C1353 1.495 . S
C1357 H1363 0.959 . S
C1357 H1364 0.961 . S
C1357 H1365 0.960 . S
C1358 C1356 1.381 . S
C1358 C1359 1.394 . S
C1358 H1366 0.930 . S
C1359 C1358 1.394 . S
C1359 C1360 1.383 . S
C1359 H1367 0.929 . S
C1360 C1359 1.383 . S
C1360 C1361 1.377 . S
C1361 H1345 0.930 . S
C1361 C1360 1.377 . S
C1361 C1362 1.379 . S
C1362 H1346 0.931 . S
C1362 C1356 1.383 . S
C1362 C1361 1.379 . S
H1363 C1357 0.959 . S
H1364 C1357 0.961 . S
H1365 C1357 0.960 . S
H1366 C1358 0.930 . S
H1367 C1359 0.929 . S
H1368 C1376 0.929 . S
H1369 C1378 0.930 . S
H1370 C1380 0.930 . S
H1371 C1383 0.929 . S
H1372 C1386 0.930 . S
H1373 C1388 0.960 . S
H1374 C1388 0.960 . S
H1375 C1388 0.960 . S
C1376 H1368 0.929 . S
C1376 C1377 1.377 . S
C1376 C1378 1.384 . S
C1377 C1376 1.377 . S
C1377 C1383 1.390 . S
C1378 H1369 0.930 . S
C1378 C1376 1.384 . S
C1378 C1379 1.372 . S
C1379 C1378 1.372 . S
C1379 C1380 1.400 . S
C1379 C1384 1.490 . S
C1380 H1370 0.930 . S
C1380 C1379 1.400 . S
C1380 C1383 1.386 . S
H1381 C1397 0.930 . S
H1382 C1398 0.931 . S
C1383 H1371 0.929 . S
C1383 C1377 1.390 . S
C1383 C1380 1.386 . S
C1384 C1379 1.490 . S
C1384 C1386 1.395 . S
C1384 C1387 1.403 . S
H1385 C1391 0.930 . S
C1386 H1372 0.930 . S
C1386 C1384 1.395 . S
C1386 C1389 1.403 . S
C1387 C1384 1.403 . S
C1387 C1388 1.524 . S
C1387 C1391 1.400 . S
C1388 H1373 0.960 . S
C1388 H1374 0.960 . S
C1388 H1375 0.960 . S
C1388 C1387 1.524 . S
C1389 C1386 1.403 . S
C1389 C1390 1.392 . S
C1389 C1393 1.495 . S
C1390 C1389 1.392 . S
C1390 C1391 1.385 . S
C1390 C1392 1.478 . S
C1391 H1385 0.930 . S
C1391 C1387 1.400 . S
C1391 C1390 1.385 . S
C1392 C1390 1.478 . S
C1392 C1394 1.381 . S
C1392 C1398 1.383 . S
C1393 C1389 1.495 . S
C1393 H1399 0.959 . S
C1393 H1400 0.961 . S
C1393 H1401 0.960 . S
C1394 C1392 1.381 . S
C1394 C1395 1.394 . S
C1394 H1402 0.930 . S
C1395 C1394 1.394 . S
C1395 C1396 1.383 . S
C1395 H1403 0.929 . S
C1396 C1395 1.383 . S
C1396 C1397 1.377 . S
C1397 H1381 0.930 . S
C1397 C1396 1.377 . S
C1397 C1398 1.379 . S
C1398 H1382 0.931 . S
C1398 C1392 1.383 . S
C1398 C1397 1.379 . S
H1399 C1393 0.959 . S
H1400 C1393 0.961 . S
H1401 C1393 0.960 . S
H1402 C1394 0.930 . S
H1403 C1395 0.929 . S
H1404 C1412 0.929 . S
H1405 C1414 0.930 . S
H1406 C1416 0.930 . S
H1407 C1419 0.929 . S
H1408 C1422 0.930 . S
H1409 C1424 0.960 . S
H1410 C1424 0.960 . S
H1411 C1424 0.960 . S
C1412 H1404 0.929 . S
C1412 C1413 1.377 . S
C1412 C1414 1.384 . S
C1413 C1412 1.377 . S
C1413 C1419 1.390 . S
C1414 H1405 0.930 . S
C1414 C1412 1.384 . S
C1414 C1415 1.372 . S
C1415 C1414 1.372 . S
C1415 C1416 1.400 . S
C1415 C1420 1.490 . S
C1416 H1406 0.930 . S
C1416 C1415 1.400 . S
C1416 C1419 1.386 . S
H1417 C1433 0.930 . S
H1418 C1434 0.931 . S
C1419 H1407 0.929 . S
C1419 C1413 1.390 . S
C1419 C1416 1.386 . S
C1420 C1415 1.490 . S
C1420 C1422 1.395 . S
C1420 C1423 1.403 . S
H1421 C1427 0.930 . S
C1422 H1408 0.930 . S
C1422 C1420 1.395 . S
C1422 C1425 1.403 . S
C1423 C1420 1.403 . S
C1423 C1424 1.524 . S
C1423 C1427 1.400 . S
C1424 H1409 0.960 . S
C1424 H1410 0.960 . S
C1424 H1411 0.960 . S
C1424 C1423 1.524 . S
C1425 C1422 1.403 . S
C1425 C1426 1.392 . S
C1425 C1429 1.495 . S
C1426 C1425 1.392 . S
C1426 C1427 1.385 . S
C1426 C1428 1.478 . S
C1427 H1421 0.930 . S
C1427 C1423 1.400 . S
C1427 C1426 1.385 . S
C1428 C1426 1.478 . S
C1428 C1430 1.381 . S
C1428 C1434 1.383 . S
C1429 C1425 1.495 . S
C1429 H1435 0.959 . S
C1429 H1436 0.961 . S
C1429 H1437 0.960 . S
C1430 C1428 1.381 . S
C1430 C1431 1.394 . S
C1430 H1438 0.930 . S
C1431 C1430 1.394 . S
C1431 C1432 1.383 . S
C1431 H1439 0.929 . S
C1432 C1431 1.383 . S
C1432 C1433 1.377 . S
C1433 H1417 0.930 . S
C1433 C1432 1.377 . S
C1433 C1434 1.379 . S
C1434 H1418 0.931 . S
C1434 C1428 1.383 . S
C1434 C1433 1.379 . S
H1435 C1429 0.959 . S
H1436 C1429 0.961 . S
H1437 C1429 0.960 . S
H1438 C1430 0.930 . S
H1439 C1431 0.929 . S
H1440 C1448 0.929 . S
H1441 C1450 0.930 . S
H1442 C1452 0.930 . S
H1443 C1455 0.929 . S
H1444 C1458 0.930 . S
H1445 C1460 0.960 . S
H1446 C1460 0.960 . S
H1447 C1460 0.960 . S
C1448 H1440 0.929 . S
C1448 C1449 1.377 . S
C1448 C1450 1.384 . S
C1449 C1448 1.377 . S
C1449 C1455 1.390 . S
C1450 H1441 0.930 . S
C1450 C1448 1.384 . S
C1450 C1451 1.372 . S
C1451 C1450 1.372 . S
C1451 C1452 1.400 . S
C1451 C1456 1.490 . S
C1452 H1442 0.930 . S
C1452 C1451 1.400 . S
C1452 C1455 1.386 . S
H1453 C1469 0.930 . S
H1454 C1470 0.931 . S
C1455 H1443 0.929 . S
C1455 C1449 1.390 . S
C1455 C1452 1.386 . S
C1456 C1451 1.490 . S
C1456 C1458 1.395 . S
C1456 C1459 1.403 . S
H1457 C1463 0.930 . S
C1458 H1444 0.930 . S
C1458 C1456 1.395 . S
C1458 C1461 1.403 . S
C1459 C1456 1.403 . S
C1459 C1460 1.524 . S
C1459 C1463 1.400 . S
C1460 H1445 0.960 . S
C1460 H1446 0.960 . S
C1460 H1447 0.960 . S
C1460 C1459 1.524 . S
C1461 C1458 1.403 . S
C1461 C1462 1.392 . S
C1461 C1465 1.495 . S
C1462 C1461 1.392 . S
C1462 C1463 1.385 . S
C1462 C1464 1.478 . S
C1463 H1457 0.930 . S
C1463 C1459 1.400 . S
C1463 C1462 1.385 . S
C1464 C1462 1.478 . S
C1464 C1466 1.381 . S
C1464 C1470 1.383 . S
C1465 C1461 1.495 . S
C1465 H1471 0.959 . S
C1465 H1472 0.961 . S
C1465 H1473 0.960 . S
C1466 C1464 1.381 . S
C1466 C1467 1.394 . S
C1466 H1474 0.930 . S
C1467 C1466 1.394 . S
C1467 C1468 1.383 . S
C1467 H1475 0.929 . S
C1468 C1467 1.383 . S
C1468 C1469 1.377 . S
C1469 H1453 0.930 . S
C1469 C1468 1.377 . S
C1469 C1470 1.379 . S
C1470 H1454 0.931 . S
C1470 C1464 1.383 . S
C1470 C1469 1.379 . S
H1471 C1465 0.959 . S
H1472 C1465 0.961 . S
H1473 C1465 0.960 . S
H1474 C1466 0.930 . S
H1475 C1467 0.929 . S
H1476 C1484 0.929 . S
H1477 C1486 0.930 . S
H1478 C1488 0.930 . S
H1479 C1491 0.929 . S
H1480 C1494 0.930 . S
H1481 C1496 0.960 . S
H1482 C1496 0.960 . S
H1483 C1496 0.960 . S
C1484 H1476 0.929 . S
C1484 C1485 1.377 . S
C1484 C1486 1.384 . S
C1485 C1484 1.377 . S
C1485 C1491 1.390 . S
C1486 H1477 0.930 . S
C1486 C1484 1.384 . S
C1486 C1487 1.372 . S
C1487 C1486 1.372 . S
C1487 C1488 1.400 . S
C1487 C1492 1.490 . S
C1488 H1478 0.930 . S
C1488 C1487 1.400 . S
C1488 C1491 1.386 . S
H1489 C1505 0.930 . S
H1490 C1506 0.931 . S
C1491 H1479 0.929 . S
C1491 C1485 1.390 . S
C1491 C1488 1.386 . S
C1492 C1487 1.490 . S
C1492 C1494 1.395 . S
C1492 C1495 1.403 . S
H1493 C1499 0.930 . S
C1494 H1480 0.930 . S
C1494 C1492 1.395 . S
C1494 C1497 1.403 . S
C1495 C1492 1.403 . S
C1495 C1496 1.524 . S
C1495 C1499 1.400 . S
C1496 H1481 0.960 . S
C1496 H1482 0.960 . S
C1496 H1483 0.960 . S
C1496 C1495 1.524 . S
C1497 C1494 1.403 . S
C1497 C1498 1.392 . S
C1497 C1501 1.495 . S
C1498 C1497 1.392 . S
C1498 C1499 1.385 . S
C1498 C1500 1.478 . S
C1499 H1493 0.930 . S
C1499 C1495 1.400 . S
C1499 C1498 1.385 . S
C1500 C1498 1.478 . S
C1500 C1502 1.381 . S
C1500 C1506 1.383 . S
C1501 C1497 1.495 . S
C1501 H1507 0.959 . S
C1501 H1508 0.961 . S
C1501 H1509 0.960 . S
C1502 C1500 1.381 . S
C1502 C1503 1.394 . S
C1502 H1510 0.930 . S
C1503 C1502 1.394 . S
C1503 C1504 1.383 . S
C1503 H1511 0.929 . S
C1504 C1503 1.383 . S
C1504 C1505 1.377 . S
C1505 H1489 0.930 . S
C1505 C1504 1.377 . S
C1505 C1506 1.379 . S
C1506 H1490 0.931 . S
C1506 C1500 1.383 . S
C1506 C1505 1.379 . S
H1507 C1501 0.959 . S
H1508 C1501 0.961 . S
H1509 C1501 0.960 . S
H1510 C1502 0.930 . S
H1511 C1503 0.929 . S
H1512 C1520 0.929 . S
H1513 C1522 0.930 . S
H1514 C1524 0.930 . S
H1515 C1527 0.929 . S
H1516 C1530 0.930 . S
H1517 C1532 0.960 . S
H1518 C1532 0.960 . S
H1519 C1532 0.960 . S
C1520 H1512 0.929 . S
C1520 C1521 1.377 . S
C1520 C1522 1.384 . S
C1521 C1520 1.377 . S
C1521 C1527 1.390 . S
C1522 H1513 0.930 . S
C1522 C1520 1.384 . S
C1522 C1523 1.372 . S
C1523 C1522 1.372 . S
C1523 C1524 1.400 . S
C1523 C1528 1.490 . S
C1524 H1514 0.930 . S
C1524 C1523 1.400 . S
C1524 C1527 1.386 . S
H1525 C1541 0.930 . S
H1526 C1542 0.931 . S
C1527 H1515 0.929 . S
C1527 C1521 1.390 . S
C1527 C1524 1.386 . S
C1528 C1523 1.490 . S
C1528 C1530 1.395 . S
C1528 C1531 1.403 . S
H1529 C1535 0.930 . S
C1530 H1516 0.930 . S
C1530 C1528 1.395 . S
C1530 C1533 1.403 . S
C1531 C1528 1.403 . S
C1531 C1532 1.524 . S
C1531 C1535 1.400 . S
C1532 H1517 0.960 . S
C1532 H1518 0.960 . S
C1532 H1519 0.960 . S
C1532 C1531 1.524 . S
C1533 C1530 1.403 . S
C1533 C1534 1.392 . S
C1533 C1537 1.495 . S
C1534 C1533 1.392 . S
C1534 C1535 1.385 . S
C1534 C1536 1.478 . S
C1535 H1529 0.930 . S
C1535 C1531 1.400 . S
C1535 C1534 1.385 . S
C1536 C1534 1.478 . S
C1536 C1538 1.381 . S
C1536 C1542 1.383 . S
C1537 C1533 1.495 . S
C1537 H1543 0.959 . S
C1537 H1544 0.961 . S
C1537 H1545 0.960 . S
C1538 C1536 1.381 . S
C1538 C1539 1.394 . S
C1538 H1546 0.930 . S
C1539 C1538 1.394 . S
C1539 C1540 1.383 . S
C1539 H1547 0.929 . S
C1540 C1539 1.383 . S
C1540 C1541 1.377 . S
C1541 H1525 0.930 . S
C1541 C1540 1.377 . S
C1541 C1542 1.379 . S
C1542 H1526 0.931 . S
C1542 C1536 1.383 . S
C1542 C1541 1.379 . S
H1543 C1537 0.959 . S
H1544 C1537 0.961 . S
H1545 C1537 0.960 . S
H1546 C1538 0.930 . S
H1547 C1539 0.929 . S
H1548 C1556 0.929 . S
H1549 C1558 0.930 . S
H1550 C1560 0.930 . S
H1551 C1563 0.929 . S
H1552 C1566 0.930 . S
H1553 C1568 0.960 . S
H1554 C1568 0.960 . S
H1555 C1568 0.960 . S
C1556 H1548 0.929 . S
C1556 C1557 1.377 . S
C1556 C1558 1.384 . S
C1557 C1556 1.377 . S
C1557 C1563 1.390 . S
C1558 H1549 0.930 . S
C1558 C1556 1.384 . S
C1558 C1559 1.372 . S
C1559 C1558 1.372 . S
C1559 C1560 1.400 . S
C1559 C1564 1.490 . S
C1560 H1550 0.930 . S
C1560 C1559 1.400 . S
C1560 C1563 1.386 . S
H1561 C1577 0.930 . S
H1562 C1578 0.931 . S
C1563 H1551 0.929 . S
C1563 C1557 1.390 . S
C1563 C1560 1.386 . S
C1564 C1559 1.490 . S
C1564 C1566 1.395 . S
C1564 C1567 1.403 . S
H1565 C1571 0.930 . S
C1566 H1552 0.930 . S
C1566 C1564 1.395 . S
C1566 C1569 1.403 . S
C1567 C1564 1.403 . S
C1567 C1568 1.524 . S
C1567 C1571 1.400 . S
C1568 H1553 0.960 . S
C1568 H1554 0.960 . S
C1568 H1555 0.960 . S
C1568 C1567 1.524 . S
C1569 C1566 1.403 . S
C1569 C1570 1.392 . S
C1569 C1573 1.495 . S
C1570 C1569 1.392 . S
C1570 C1571 1.385 . S
C1570 C1572 1.478 . S
C1571 H1565 0.930 . S
C1571 C1567 1.400 . S
C1571 C1570 1.385 . S
C1572 C1570 1.478 . S
C1572 C1574 1.381 . S
C1572 C1578 1.383 . S
C1573 C1569 1.495 . S
C1573 H1579 0.959 . S
C1573 H1580 0.961 . S
C1573 H1581 0.960 . S
C1574 C1572 1.381 . S
C1574 C1575 1.394 . S
C1574 H1582 0.930 . S
C1575 C1574 1.394 . S
C1575 C1576 1.383 . S
C1575 H1583 0.929 . S
C1576 C1575 1.383 . S
C1576 C1577 1.377 . S
C1577 H1561 0.930 . S
C1577 C1576 1.377 . S
C1577 C1578 1.379 . S
C1578 H1562 0.931 . S
C1578 C1572 1.383 . S
C1578 C1577 1.379 . S
H1579 C1573 0.959 . S
H1580 C1573 0.961 . S
H1581 C1573 0.960 . S
H1582 C1574 0.930 . S
H1583 C1575 0.929 . S
H1584 C1592 0.929 . S
H1585 C1594 0.930 . S
H1586 C1596 0.930 . S
H1587 C1599 0.929 . S
H1588 C1602 0.930 . S
H1589 C1604 0.960 . S
H1590 C1604 0.960 . S
H1591 C1604 0.960 . S
C1592 H1584 0.929 . S
C1592 C1593 1.377 . S
C1592 C1594 1.384 . S
C1593 C1592 1.377 . S
C1593 C1599 1.390 . S
C1594 H1585 0.930 . S
C1594 C1592 1.384 . S
C1594 C1595 1.372 . S
C1595 C1594 1.372 . S
C1595 C1596 1.400 . S
C1595 C1600 1.490 . S
C1596 H1586 0.930 . S
C1596 C1595 1.400 . S
C1596 C1599 1.386 . S
H1597 C1613 0.930 . S
H1598 C1614 0.931 . S
C1599 H1587 0.929 . S
C1599 C1593 1.390 . S
C1599 C1596 1.386 . S
C1600 C1595 1.490 . S
C1600 C1602 1.395 . S
C1600 C1603 1.403 . S
H1601 C1607 0.930 . S
C1602 H1588 0.930 . S
C1602 C1600 1.395 . S
C1602 C1605 1.403 . S
C1603 C1600 1.403 . S
C1603 C1604 1.524 . S
C1603 C1607 1.400 . S
C1604 H1589 0.960 . S
C1604 H1590 0.960 . S
C1604 H1591 0.960 . S
C1604 C1603 1.524 . S
C1605 C1602 1.403 . S
C1605 C1606 1.392 . S
C1605 C1609 1.495 . S
C1606 C1605 1.392 . S
C1606 C1607 1.385 . S
C1606 C1608 1.478 . S
C1607 H1601 0.930 . S
C1607 C1603 1.400 . S
C1607 C1606 1.385 . S
C1608 C1606 1.478 . S
C1608 C1610 1.381 . S
C1608 C1614 1.383 . S
C1609 C1605 1.495 . S
C1609 H1615 0.959 . S
C1609 H1616 0.961 . S
C1609 H1617 0.960 . S
C1610 C1608 1.381 . S
C1610 C1611 1.394 . S
C1610 H1618 0.930 . S
C1611 C1610 1.394 . S
C1611 C1612 1.383 . S
C1611 H1619 0.929 . S
C1612 C1611 1.383 . S
C1612 C1613 1.377 . S
C1613 H1597 0.930 . S
C1613 C1612 1.377 . S
C1613 C1614 1.379 . S
C1614 H1598 0.931 . S
C1614 C1608 1.383 . S
C1614 C1613 1.379 . S
H1615 C1609 0.959 . S
H1616 C1609 0.961 . S
H1617 C1609 0.960 . S
H1618 C1610 0.930 . S
H1619 C1611 0.929 . S
H1620 C1628 0.929 . S
H1621 C1630 0.930 . S
H1622 C1632 0.930 . S
H1623 C1635 0.929 . S
H1624 C1638 0.930 . S
H1625 C1640 0.960 . S
H1626 C1640 0.960 . S
H1627 C1640 0.960 . S
C1628 H1620 0.929 . S
C1628 C1629 1.377 . S
C1628 C1630 1.384 . S
C1629 C1628 1.377 . S
C1629 C1635 1.390 . S
C1630 H1621 0.930 . S
C1630 C1628 1.384 . S
C1630 C1631 1.372 . S
C1631 C1630 1.372 . S
C1631 C1632 1.400 . S
C1631 C1636 1.490 . S
C1632 H1622 0.930 . S
C1632 C1631 1.400 . S
C1632 C1635 1.386 . S
H1633 C1649 0.930 . S
H1634 C1650 0.931 . S
C1635 H1623 0.929 . S
C1635 C1629 1.390 . S
C1635 C1632 1.386 . S
C1636 C1631 1.490 . S
C1636 C1638 1.395 . S
C1636 C1639 1.403 . S
H1637 C1643 0.930 . S
C1638 H1624 0.930 . S
C1638 C1636 1.395 . S
C1638 C1641 1.403 . S
C1639 C1636 1.403 . S
C1639 C1640 1.524 . S
C1639 C1643 1.400 . S
C1640 H1625 0.960 . S
C1640 H1626 0.960 . S
C1640 H1627 0.960 . S
C1640 C1639 1.524 . S
C1641 C1638 1.403 . S
C1641 C1642 1.392 . S
C1641 C1645 1.495 . S
C1642 C1641 1.392 . S
C1642 C1643 1.385 . S
C1642 C1644 1.478 . S
C1643 H1637 0.930 . S
C1643 C1639 1.400 . S
C1643 C1642 1.385 . S
C1644 C1642 1.478 . S
C1644 C1646 1.381 . S
C1644 C1650 1.383 . S
C1645 C1641 1.495 . S
C1645 H1651 0.959 . S
C1645 H1652 0.961 . S
C1645 H1653 0.960 . S
C1646 C1644 1.381 . S
C1646 C1647 1.394 . S
C1646 H1654 0.930 . S
C1647 C1646 1.394 . S
C1647 C1648 1.383 . S
C1647 H1655 0.929 . S
C1648 C1647 1.383 . S
C1648 C1649 1.377 . S
C1649 H1633 0.930 . S
C1649 C1648 1.377 . S
C1649 C1650 1.379 . S
C1650 H1634 0.931 . S
C1650 C1644 1.383 . S
C1650 C1649 1.379 . S
H1651 C1645 0.959 . S
H1652 C1645 0.961 . S
H1653 C1645 0.960 . S
H1654 C1646 0.930 . S
H1655 C1647 0.929 . S
H1656 C1664 0.929 . S
H1657 C1666 0.930 . S
H1658 C1668 0.930 . S
H1659 C1671 0.929 . S
H1660 C1674 0.930 . S
H1661 C1676 0.960 . S
H1662 C1676 0.960 . S
H1663 C1676 0.960 . S
C1664 H1656 0.929 . S
C1664 C1665 1.377 . S
C1664 C1666 1.384 . S
C1665 C1664 1.377 . S
C1665 C1671 1.390 . S
C1666 H1657 0.930 . S
C1666 C1664 1.384 . S
C1666 C1667 1.372 . S
C1667 C1666 1.372 . S
C1667 C1668 1.400 . S
C1667 C1672 1.490 . S
C1668 H1658 0.930 . S
C1668 C1667 1.400 . S
C1668 C1671 1.386 . S
H1669 C1685 0.930 . S
H1670 C1686 0.931 . S
C1671 H1659 0.929 . S
C1671 C1665 1.390 . S
C1671 C1668 1.386 . S
C1672 C1667 1.490 . S
C1672 C1674 1.395 . S
C1672 C1675 1.403 . S
H1673 C1679 0.930 . S
C1674 H1660 0.930 . S
C1674 C1672 1.395 . S
C1674 C1677 1.403 . S
C1675 C1672 1.403 . S
C1675 C1676 1.524 . S
C1675 C1679 1.400 . S
C1676 H1661 0.960 . S
C1676 H1662 0.960 . S
C1676 H1663 0.960 . S
C1676 C1675 1.524 . S
C1677 C1674 1.403 . S
C1677 C1678 1.392 . S
C1677 C1681 1.495 . S
C1678 C1677 1.392 . S
C1678 C1679 1.385 . S
C1678 C1680 1.478 . S
C1679 H1673 0.930 . S
C1679 C1675 1.400 . S
C1679 C1678 1.385 . S
C1680 C1678 1.478 . S
C1680 C1682 1.381 . S
C1680 C1686 1.383 . S
C1681 C1677 1.495 . S
C1681 H1687 0.959 . S
C1681 H1688 0.961 . S
C1681 H1689 0.960 . S
C1682 C1680 1.381 . S
C1682 C1683 1.394 . S
C1682 H1690 0.930 . S
C1683 C1682 1.394 . S
C1683 C1684 1.383 . S
C1683 H1691 0.929 . S
C1684 C1683 1.383 . S
C1684 C1685 1.377 . S
C1685 H1669 0.930 . S
C1685 C1684 1.377 . S
C1685 C1686 1.379 . S
C1686 H1670 0.931 . S
C1686 C1680 1.383 . S
C1686 C1685 1.379 . S
H1687 C1681 0.959 . S
H1688 C1681 0.961 . S
H1689 C1681 0.960 . S
H1690 C1682 0.930 . S
H1691 C1683 0.929 . S
H1692 C1700 0.929 . S
H1693 C1702 0.930 . S
H1694 C1704 0.930 . S
H1695 C1707 0.929 . S
H1696 C1710 0.930 . S
H1697 C1712 0.960 . S
H1698 C1712 0.960 . S
H1699 C1712 0.960 . S
C1700 H1692 0.929 . S
C1700 C1701 1.377 . S
C1700 C1702 1.384 . S
C1701 C1700 1.377 . S
C1701 C1707 1.390 . S
C1702 H1693 0.930 . S
C1702 C1700 1.384 . S
C1702 C1703 1.372 . S
C1703 C1702 1.372 . S
C1703 C1704 1.400 . S
C1703 C1708 1.490 . S
C1704 H1694 0.930 . S
C1704 C1703 1.400 . S
C1704 C1707 1.386 . S
H1705 C1721 0.930 . S
H1706 C1722 0.931 . S
C1707 H1695 0.929 . S
C1707 C1701 1.390 . S
C1707 C1704 1.386 . S
C1708 C1703 1.490 . S
C1708 C1710 1.395 . S
C1708 C1711 1.403 . S
H1709 C1715 0.930 . S
C1710 H1696 0.930 . S
C1710 C1708 1.395 . S
C1710 C1713 1.403 . S
C1711 C1708 1.403 . S
C1711 C1712 1.524 . S
C1711 C1715 1.400 . S
C1712 H1697 0.960 . S
C1712 H1698 0.960 . S
C1712 H1699 0.960 . S
C1712 C1711 1.524 . S
C1713 C1710 1.403 . S
C1713 C1714 1.392 . S
C1713 C1717 1.495 . S
C1714 C1713 1.392 . S
C1714 C1715 1.385 . S
C1714 C1716 1.478 . S
C1715 H1709 0.930 . S
C1715 C1711 1.400 . S
C1715 C1714 1.385 . S
C1716 C1714 1.478 . S
C1716 C1718 1.381 . S
C1716 C1722 1.383 . S
C1717 C1713 1.495 . S
C1717 H1723 0.959 . S
C1717 H1724 0.961 . S
C1717 H1725 0.960 . S
C1718 C1716 1.381 . S
C1718 C1719 1.394 . S
C1718 H1726 0.930 . S
C1719 C1718 1.394 . S
C1719 C1720 1.383 . S
C1719 H1727 0.929 . S
C1720 C1719 1.383 . S
C1720 C1721 1.377 . S
C1721 H1705 0.930 . S
C1721 C1720 1.377 . S
C1721 C1722 1.379 . S
C1722 H1706 0.931 . S
C1722 C1716 1.383 . S
C1722 C1721 1.379 . S
H1723 C1717 0.959 . S
H1724 C1717 0.961 . S
H1725 C1717 0.960 . S
H1726 C1718 0.930 . S
H1727 C1719 0.929 . S
H1728 C1736 0.929 . S
H1729 C1738 0.930 . S
H1730 C1740 0.930 . S
H1731 C1743 0.929 . S
H1732 C1746 0.930 . S
H1733 C1748 0.960 . S
H1734 C1748 0.960 . S
H1735 C1748 0.960 . S
C1736 H1728 0.929 . S
C1736 C1737 1.377 . S
C1736 C1738 1.384 . S
C1737 C1736 1.377 . S
C1737 C1743 1.390 . S
C1738 H1729 0.930 . S
C1738 C1736 1.384 . S
C1738 C1739 1.372 . S
C1739 C1738 1.372 . S
C1739 C1740 1.400 . S
C1739 C1744 1.490 . S
C1740 H1730 0.930 . S
C1740 C1739 1.400 . S
C1740 C1743 1.386 . S
H1741 C1757 0.930 . S
H1742 C1758 0.931 . S
C1743 H1731 0.929 . S
C1743 C1737 1.390 . S
C1743 C1740 1.386 . S
C1744 C1739 1.490 . S
C1744 C1746 1.395 . S
C1744 C1747 1.403 . S
H1745 C1751 0.930 . S
C1746 H1732 0.930 . S
C1746 C1744 1.395 . S
C1746 C1749 1.403 . S
C1747 C1744 1.403 . S
C1747 C1748 1.524 . S
C1747 C1751 1.400 . S
C1748 H1733 0.960 . S
C1748 H1734 0.960 . S
C1748 H1735 0.960 . S
C1748 C1747 1.524 . S
C1749 C1746 1.403 . S
C1749 C1750 1.392 . S
C1749 C1753 1.495 . S
C1750 C1749 1.392 . S
C1750 C1751 1.385 . S
C1750 C1752 1.478 . S
C1751 H1745 0.930 . S
C1751 C1747 1.400 . S
C1751 C1750 1.385 . S
C1752 C1750 1.478 . S
C1752 C1754 1.381 . S
C1752 C1758 1.383 . S
C1753 C1749 1.495 . S
C1753 H1759 0.959 . S
C1753 H1760 0.961 . S
C1753 H1761 0.960 . S
C1754 C1752 1.381 . S
C1754 C1755 1.394 . S
C1754 H1762 0.930 . S
C1755 C1754 1.394 . S
C1755 C1756 1.383 . S
C1755 H1763 0.929 . S
C1756 C1755 1.383 . S
C1756 C1757 1.377 . S
C1757 H1741 0.930 . S
C1757 C1756 1.377 . S
C1757 C1758 1.379 . S
C1758 H1742 0.931 . S
C1758 C1752 1.383 . S
C1758 C1757 1.379 . S
H1759 C1753 0.959 . S
H1760 C1753 0.961 . S
H1761 C1753 0.960 . S
H1762 C1754 0.930 . S
H1763 C1755 0.929 . S
H1764 C1772 0.929 . S
H1765 C1774 0.930 . S
H1766 C1776 0.930 . S
H1767 C1779 0.929 . S
H1768 C1782 0.930 . S
H1769 C1784 0.960 . S
H1770 C1784 0.960 . S
H1771 C1784 0.960 . S
C1772 H1764 0.929 . S
C1772 C1773 1.377 . S
C1772 C1774 1.384 . S
C1773 C1772 1.377 . S
C1773 C1779 1.390 . S
C1774 H1765 0.930 . S
C1774 C1772 1.384 . S
C1774 C1775 1.372 . S
C1775 C1774 1.372 . S
C1775 C1776 1.400 . S
C1775 C1780 1.490 . S
C1776 H1766 0.930 . S
C1776 C1775 1.400 . S
C1776 C1779 1.386 . S
H1777 C1793 0.930 . S
H1778 C1794 0.931 . S
C1779 H1767 0.929 . S
C1779 C1773 1.390 . S
C1779 C1776 1.386 . S
C1780 C1775 1.490 . S
C1780 C1782 1.395 . S
C1780 C1783 1.403 . S
H1781 C1787 0.930 . S
C1782 H1768 0.930 . S
C1782 C1780 1.395 . S
C1782 C1785 1.403 . S
C1783 C1780 1.403 . S
C1783 C1784 1.524 . S
C1783 C1787 1.400 . S
C1784 H1769 0.960 . S
C1784 H1770 0.960 . S
C1784 H1771 0.960 . S
C1784 C1783 1.524 . S
C1785 C1782 1.403 . S
C1785 C1786 1.392 . S
C1785 C1789 1.495 . S
C1786 C1785 1.392 . S
C1786 C1787 1.385 . S
C1786 C1788 1.478 . S
C1787 H1781 0.930 . S
C1787 C1783 1.400 . S
C1787 C1786 1.385 . S
C1788 C1786 1.478 . S
C1788 C1790 1.381 . S
C1788 C1794 1.383 . S
C1789 C1785 1.495 . S
C1789 H1795 0.959 . S
C1789 H1796 0.961 . S
C1789 H1797 0.960 . S
C1790 C1788 1.381 . S
C1790 C1791 1.394 . S
C1790 H1798 0.930 . S
C1791 C1790 1.394 . S
C1791 C1792 1.383 . S
C1791 H1799 0.929 . S
C1792 C1791 1.383 . S
C1792 C1793 1.377 . S
C1793 H1777 0.930 . S
C1793 C1792 1.377 . S
C1793 C1794 1.379 . S
C1794 H1778 0.931 . S
C1794 C1788 1.383 . S
C1794 C1793 1.379 . S
H1795 C1789 0.959 . S
H1796 C1789 0.961 . S
H1797 C1789 0.960 . S
H1798 C1790 0.930 . S
H1799 C1791 0.929 . S
H1800 C1808 0.929 . S
H1801 C1810 0.930 . S
H1802 C1812 0.930 . S
H1803 C1815 0.929 . S
H1804 C1818 0.930 . S
H1805 C1820 0.960 . S
H1806 C1820 0.960 . S
H1807 C1820 0.960 . S
C1808 H1800 0.929 . S
C1808 C1809 1.377 . S
C1808 C1810 1.384 . S
C1809 C1808 1.377 . S
C1809 C1815 1.390 . S
C1810 H1801 0.930 . S
C1810 C1808 1.384 . S
C1810 C1811 1.372 . S
C1811 C1810 1.372 . S
C1811 C1812 1.400 . S
C1811 C1816 1.490 . S
C1812 H1802 0.930 . S
C1812 C1811 1.400 . S
C1812 C1815 1.386 . S
H1813 C1829 0.930 . S
H1814 C1830 0.931 . S
C1815 H1803 0.929 . S
C1815 C1809 1.390 . S
C1815 C1812 1.386 . S
C1816 C1811 1.490 . S
C1816 C1818 1.395 . S
C1816 C1819 1.403 . S
H1817 C1823 0.930 . S
C1818 H1804 0.930 . S
C1818 C1816 1.395 . S
C1818 C1821 1.403 . S
C1819 C1816 1.403 . S
C1819 C1820 1.524 . S
C1819 C1823 1.400 . S
C1820 H1805 0.960 . S
C1820 H1806 0.960 . S
C1820 H1807 0.960 . S
C1820 C1819 1.524 . S
C1821 C1818 1.403 . S
C1821 C1822 1.392 . S
C1821 C1825 1.495 . S
C1822 C1821 1.392 . S
C1822 C1823 1.385 . S
C1822 C1824 1.478 . S
C1823 H1817 0.930 . S
C1823 C1819 1.400 . S
C1823 C1822 1.385 . S
C1824 C1822 1.478 . S
C1824 C1826 1.381 . S
C1824 C1830 1.383 . S
C1825 C1821 1.495 . S
C1825 H1831 0.959 . S
C1825 H1832 0.961 . S
C1825 H1833 0.960 . S
C1826 C1824 1.381 . S
C1826 C1827 1.394 . S
C1826 H1834 0.930 . S
C1827 C1826 1.394 . S
C1827 C1828 1.383 . S
C1827 H1835 0.929 . S
C1828 C1827 1.383 . S
C1828 C1829 1.377 . S
C1829 H1813 0.930 . S
C1829 C1828 1.377 . S
C1829 C1830 1.379 . S
C1830 H1814 0.931 . S
C1830 C1824 1.383 . S
C1830 C1829 1.379 . S
H1831 C1825 0.959 . S
H1832 C1825 0.961 . S
H1833 C1825 0.960 . S
H1834 C1826 0.930 . S
H1835 C1827 0.929 . S
H1836 C1844 0.929 . S
H1837 C1846 0.930 . S
H1838 C1848 0.930 . S
H1839 C1851 0.929 . S
H1840 C1854 0.930 . S
H1841 C1856 0.960 . S
H1842 C1856 0.960 . S
H1843 C1856 0.960 . S
C1844 H1836 0.929 . S
C1844 C1845 1.377 . S
C1844 C1846 1.384 . S
C1845 C1844 1.377 . S
C1845 C1851 1.390 . S
C1846 H1837 0.930 . S
C1846 C1844 1.384 . S
C1846 C1847 1.372 . S
C1847 C1846 1.372 . S
C1847 C1848 1.400 . S
C1847 C1852 1.490 . S
C1848 H1838 0.930 . S
C1848 C1847 1.400 . S
C1848 C1851 1.386 . S
H1849 C1865 0.930 . S
H1850 C1866 0.931 . S
C1851 H1839 0.929 . S
C1851 C1845 1.390 . S
C1851 C1848 1.386 . S
C1852 C1847 1.490 . S
C1852 C1854 1.395 . S
C1852 C1855 1.403 . S
H1853 C1859 0.930 . S
C1854 H1840 0.930 . S
C1854 C1852 1.395 . S
C1854 C1857 1.403 . S
C1855 C1852 1.403 . S
C1855 C1856 1.524 . S
C1855 C1859 1.400 . S
C1856 H1841 0.960 . S
C1856 H1842 0.960 . S
C1856 H1843 0.960 . S
C1856 C1855 1.524 . S
C1857 C1854 1.403 . S
C1857 C1858 1.392 . S
C1857 C1861 1.495 . S
C1858 C1857 1.392 . S
C1858 C1859 1.385 . S
C1858 C1860 1.478 . S
C1859 H1853 0.930 . S
C1859 C1855 1.400 . S
C1859 C1858 1.385 . S
C1860 C1858 1.478 . S
C1860 C1862 1.381 . S
C1860 C1866 1.383 . S
C1861 C1857 1.495 . S
C1861 H1867 0.959 . S
C1861 H1868 0.961 . S
C1861 H1869 0.960 . S
C1862 C1860 1.381 . S
C1862 C1863 1.394 . S
C1862 H1870 0.930 . S
C1863 C1862 1.394 . S
C1863 C1864 1.383 . S
C1863 H1871 0.929 . S
C1864 C1863 1.383 . S
C1864 C1865 1.377 . S
C1865 H1849 0.930 . S
C1865 C1864 1.377 . S
C1865 C1866 1.379 . S
C1866 H1850 0.931 . S
C1866 C1860 1.383 . S
C1866 C1865 1.379 . S
H1867 C1861 0.959 . S
H1868 C1861 0.961 . S
H1869 C1861 0.960 . S
H1870 C1862 0.930 . S
H1871 C1863 0.929 . S
H1872 C1880 0.929 . S
H1873 C1882 0.930 . S
H1874 C1884 0.930 . S
H1875 C1887 0.929 . S
H1876 C1890 0.930 . S
H1877 C1892 0.960 . S
H1878 C1892 0.960 . S
H1879 C1892 0.960 . S
C1880 H1872 0.929 . S
C1880 C1881 1.377 . S
C1880 C1882 1.384 . S
C1881 C1880 1.377 . S
C1881 C1887 1.390 . S
C1882 H1873 0.930 . S
C1882 C1880 1.384 . S
C1882 C1883 1.372 . S
C1883 C1882 1.372 . S
C1883 C1884 1.400 . S
C1883 C1888 1.490 . S
C1884 H1874 0.930 . S
C1884 C1883 1.400 . S
C1884 C1887 1.386 . S
H1885 C1901 0.930 . S
H1886 C1902 0.931 . S
C1887 H1875 0.929 . S
C1887 C1881 1.390 . S
C1887 C1884 1.386 . S
C1888 C1883 1.490 . S
C1888 C1890 1.395 . S
C1888 C1891 1.403 . S
H1889 C1895 0.930 . S
C1890 H1876 0.930 . S
C1890 C1888 1.395 . S
C1890 C1893 1.403 . S
C1891 C1888 1.403 . S
C1891 C1892 1.524 . S
C1891 C1895 1.400 . S
C1892 H1877 0.960 . S
C1892 H1878 0.960 . S
C1892 H1879 0.960 . S
C1892 C1891 1.524 . S
C1893 C1890 1.403 . S
C1893 C1894 1.392 . S
C1893 C1897 1.495 . S
C1894 C1893 1.392 . S
C1894 C1895 1.385 . S
C1894 C1896 1.478 . S
C1895 H1889 0.930 . S
C1895 C1891 1.400 . S
C1895 C1894 1.385 . S
C1896 C1894 1.478 . S
C1896 C1898 1.381 . S
C1896 C1902 1.383 . S
C1897 C1893 1.495 . S
C1897 H1903 0.959 . S
C1897 H1904 0.961 . S
C1897 H1905 0.960 . S
C1898 C1896 1.381 . S
C1898 C1899 1.394 . S
C1898 H1906 0.930 . S
C1899 C1898 1.394 . S
C1899 C1900 1.383 . S
C1899 H1907 0.929 . S
C1900 C1899 1.383 . S
C1900 C1901 1.377 . S
C1901 H1885 0.930 . S
C1901 C1900 1.377 . S
C1901 C1902 1.379 . S
C1902 H1886 0.931 . S
C1902 C1896 1.383 . S
C1902 C1901 1.379 . S
H1903 C1897 0.959 . S
H1904 C1897 0.961 . S
H1905 C1897 0.960 . S
H1906 C1898 0.930 . S
H1907 C1899 0.929 . S
H1908 C1916 0.929 . S
H1909 C1918 0.930 . S
H1910 C1920 0.930 . S
H1911 C1923 0.929 . S
H1912 C1926 0.930 . S
H1913 C1928 0.960 . S
H1914 C1928 0.960 . S
H1915 C1928 0.960 . S
C1916 H1908 0.929 . S
C1916 C1917 1.377 . S
C1916 C1918 1.384 . S
C1917 C1916 1.377 . S
C1917 C1923 1.390 . S
C1918 H1909 0.930 . S
C1918 C1916 1.384 . S
C1918 C1919 1.372 . S
C1919 C1918 1.372 . S
C1919 C1920 1.400 . S
C1919 C1924 1.490 . S
C1920 H1910 0.930 . S
C1920 C1919 1.400 . S
C1920 C1923 1.386 . S
H1921 C1937 0.930 . S
H1922 C1938 0.931 . S
C1923 H1911 0.929 . S
C1923 C1917 1.390 . S
C1923 C1920 1.386 . S
C1924 C1919 1.490 . S
C1924 C1926 1.395 . S
C1924 C1927 1.403 . S
H1925 C1931 0.930 . S
C1926 H1912 0.930 . S
C1926 C1924 1.395 . S
C1926 C1929 1.403 . S
C1927 C1924 1.403 . S
C1927 C1928 1.524 . S
C1927 C1931 1.400 . S
C1928 H1913 0.960 . S
C1928 H1914 0.960 . S
C1928 H1915 0.960 . S
C1928 C1927 1.524 . S
C1929 C1926 1.403 . S
C1929 C1930 1.392 . S
C1929 C1933 1.495 . S
C1930 C1929 1.392 . S
C1930 C1931 1.385 . S
C1930 C1932 1.478 . S
C1931 H1925 0.930 . S
C1931 C1927 1.400 . S
C1931 C1930 1.385 . S
C1932 C1930 1.478 . S
C1932 C1934 1.381 . S
C1932 C1938 1.383 . S
C1933 C1929 1.495 . S
C1933 H1939 0.959 . S
C1933 H1940 0.961 . S
C1933 H1941 0.960 . S
C1934 C1932 1.381 . S
C1934 C1935 1.394 . S
C1934 H1942 0.930 . S
C1935 C1934 1.394 . S
C1935 C1936 1.383 . S
C1935 H1943 0.929 . S
C1936 C1935 1.383 . S
C1936 C1937 1.377 . S
C1937 H1921 0.930 . S
C1937 C1936 1.377 . S
C1937 C1938 1.379 . S
C1938 H1922 0.931 . S
C1938 C1932 1.383 . S
C1938 C1937 1.379 . S
H1939 C1933 0.959 . S
H1940 C1933 0.961 . S
H1941 C1933 0.960 . S
H1942 C1934 0.930 . S
H1943 C1935 0.929 . S
H1944 C1952 0.929 . S
H1945 C1954 0.930 . S
H1946 C1956 0.930 . S
H1947 C1959 0.929 . S
H1948 C1962 0.930 . S
H1949 C1964 0.960 . S
H1950 C1964 0.960 . S
H1951 C1964 0.960 . S
C1952 H1944 0.929 . S
C1952 C1953 1.377 . S
C1952 C1954 1.384 . S
C1953 C1952 1.377 . S
C1953 C1959 1.390 . S
C1954 H1945 0.930 . S
C1954 C1952 1.384 . S
C1954 C1955 1.372 . S
C1955 C1954 1.372 . S
C1955 C1956 1.400 . S
C1955 C1960 1.490 . S
C1956 H1946 0.930 . S
C1956 C1955 1.400 . S
C1956 C1959 1.386 . S
H1957 C1973 0.930 . S
H1958 C1974 0.931 . S
C1959 H1947 0.929 . S
C1959 C1953 1.390 . S
C1959 C1956 1.386 . S
C1960 C1955 1.490 . S
C1960 C1962 1.395 . S
C1960 C1963 1.403 . S
H1961 C1967 0.930 . S
C1962 H1948 0.930 . S
C1962 C1960 1.395 . S
C1962 C1965 1.403 . S
C1963 C1960 1.403 . S
C1963 C1964 1.524 . S
C1963 C1967 1.400 . S
C1964 H1949 0.960 . S
C1964 H1950 0.960 . S
C1964 H1951 0.960 . S
C1964 C1963 1.524 . S
C1965 C1962 1.403 . S
C1965 C1966 1.392 . S
C1965 C1969 1.495 . S
C1966 C1965 1.392 . S
C1966 C1967 1.385 . S
C1966 C1968 1.478 . S
C1967 H1961 0.930 . S
C1967 C1963 1.400 . S
C1967 C1966 1.385 . S
C1968 C1966 1.478 . S
C1968 C1970 1.381 . S
C1968 C1974 1.383 . S
C1969 C1965 1.495 . S
C1969 H1975 0.959 . S
C1969 H1976 0.961 . S
C1969 H1977 0.960 . S
C1970 C1968 1.381 . S
C1970 C1971 1.394 . S
C1970 H1978 0.930 . S
C1971 C1970 1.394 . S
C1971 C1972 1.383 . S
C1971 H1979 0.929 . S
C1972 C1971 1.383 . S
C1972 C1973 1.377 . S
C1973 H1957 0.930 . S
C1973 C1972 1.377 . S
C1973 C1974 1.379 . S
C1974 H1958 0.931 . S
C1974 C1968 1.383 . S
C1974 C1973 1.379 . S
H1975 C1969 0.959 . S
H1976 C1969 0.961 . S
H1977 C1969 0.960 . S
H1978 C1970 0.930 . S
H1979 C1971 0.929 . S
H1980 C1988 0.929 . S
H1981 C1990 0.930 . S
H1982 C1992 0.930 . S
H1983 C1995 0.929 . S
H1984 C1998 0.930 . S
H1985 C2000 0.960 . S
H1986 C2000 0.960 . S
H1987 C2000 0.960 . S
C1988 H1980 0.929 . S
C1988 C1989 1.377 . S
C1988 C1990 1.384 . S
C1989 C1988 1.377 . S
C1989 C1995 1.390 . S
C1990 H1981 0.930 . S
C1990 C1988 1.384 . S
C1990 C1991 1.372 . S
C1991 C1990 1.372 . S
C1991 C1992 1.400 . S
C1991 C1996 1.490 . S
C1992 H1982 0.930 . S
C1992 C1991 1.400 . S
C1992 C1995 1.386 . S
H1993 C2009 0.930 . S
H1994 C2010 0.931 . S
C1995 H1983 0.929 . S
C1995 C1989 1.390 . S
C1995 C1992 1.386 . S
C1996 C1991 1.490 . S
C1996 C1998 1.395 . S
C1996 C1999 1.403 . S
H1997 C2003 0.930 . S
C1998 H1984 0.930 . S
C1998 C1996 1.395 . S
C1998 C2001 1.403 . S
C1999 C1996 1.403 . S
C1999 C2000 1.524 . S
C1999 C2003 1.400 . S
C2000 H1985 0.960 . S
C2000 H1986 0.960 . S
C2000 H1987 0.960 . S
C2000 C1999 1.524 . S
C2001 C1998 1.403 . S
C2001 C2002 1.392 . S
C2001 C2005 1.495 . S
C2002 C2001 1.392 . S
C2002 C2003 1.385 . S
C2002 C2004 1.478 . S
C2003 H1997 0.930 . S
C2003 C1999 1.400 . S
C2003 C2002 1.385 . S
C2004 C2002 1.478 . S
C2004 C2006 1.381 . S
C2004 C2010 1.383 . S
C2005 C2001 1.495 . S
C2005 H2011 0.959 . S
C2005 H2012 0.961 . S
C2005 H2013 0.960 . S
C2006 C2004 1.381 . S
C2006 C2007 1.394 . S
C2006 H2014 0.930 . S
C2007 C2006 1.394 . S
C2007 C2008 1.383 . S
C2007 H2015 0.929 . S
C2008 C2007 1.383 . S
C2008 C2009 1.377 . S
C2009 H1993 0.930 . S
C2009 C2008 1.377 . S
C2009 C2010 1.379 . S
C2010 H1994 0.931 . S
C2010 C2004 1.383 . S
C2010 C2009 1.379 . S
H2011 C2005 0.959 . S
H2012 C2005 0.961 . S
H2013 C2005 0.960 . S
H2014 C2006 0.930 . S
H2015 C2007 0.929 . S
H2016 C2024 0.929 . S
H2017 C2026 0.930 . S
H2018 C2028 0.930 . S
H2019 C2031 0.929 . S
H2020 C2034 0.930 . S
H2021 C2036 0.960 . S
H2022 C2036 0.960 . S
H2023 C2036 0.960 . S
C2024 H2016 0.929 . S
C2024 C2025 1.377 . S
C2024 C2026 1.384 . S
C2025 C2024 1.377 . S
C2025 C2031 1.390 . S
C2026 H2017 0.930 . S
C2026 C2024 1.384 . S
C2026 C2027 1.372 . S
C2027 C2026 1.372 . S
C2027 C2028 1.400 . S
C2027 C2032 1.490 . S
C2028 H2018 0.930 . S
C2028 C2027 1.400 . S
C2028 C2031 1.386 . S
H2029 C2045 0.930 . S
H2030 C2046 0.931 . S
C2031 H2019 0.929 . S
C2031 C2025 1.390 . S
C2031 C2028 1.386 . S
C2032 C2027 1.490 . S
C2032 C2034 1.395 . S
C2032 C2035 1.403 . S
H2033 C2039 0.930 . S
C2034 H2020 0.930 . S
C2034 C2032 1.395 . S
C2034 C2037 1.403 . S
C2035 C2032 1.403 . S
C2035 C2036 1.524 . S
C2035 C2039 1.400 . S
C2036 H2021 0.960 . S
C2036 H2022 0.960 . S
C2036 H2023 0.960 . S
C2036 C2035 1.524 . S
C2037 C2034 1.403 . S
C2037 C2038 1.392 . S
C2037 C2041 1.495 . S
C2038 C2037 1.392 . S
C2038 C2039 1.385 . S
C2038 C2040 1.478 . S
C2039 H2033 0.930 . S
C2039 C2035 1.400 . S
C2039 C2038 1.385 . S
C2040 C2038 1.478 . S
C2040 C2042 1.381 . S
C2040 C2046 1.383 . S
C2041 C2037 1.495 . S
C2041 H2047 0.959 . S
C2041 H2048 0.961 . S
C2041 H2049 0.960 . S
C2042 C2040 1.381 . S
C2042 C2043 1.394 . S
C2042 H2050 0.930 . S
C2043 C2042 1.394 . S
C2043 C2044 1.383 . S
C2043 H2051 0.929 . S
C2044 C2043 1.383 . S
C2044 C2045 1.377 . S
C2045 H2029 0.930 . S
C2045 C2044 1.377 . S
C2045 C2046 1.379 . S
C2046 H2030 0.931 . S
C2046 C2040 1.383 . S
C2046 C2045 1.379 . S
H2047 C2041 0.959 . S
H2048 C2041 0.961 . S
H2049 C2041 0.960 . S
H2050 C2042 0.930 . S
H2051 C2043 0.929 . S
H2052 C2060 0.929 . S
H2053 C2062 0.930 . S
H2054 C2064 0.930 . S
H2055 C2067 0.929 . S
H2056 C2070 0.930 . S
H2057 C2072 0.960 . S
H2058 C2072 0.960 . S
H2059 C2072 0.960 . S
C2060 H2052 0.929 . S
C2060 C2061 1.377 . S
C2060 C2062 1.384 . S
C2061 C2060 1.377 . S
C2061 C2067 1.390 . S
C2062 H2053 0.930 . S
C2062 C2060 1.384 . S
C2062 C2063 1.372 . S
C2063 C2062 1.372 . S
C2063 C2064 1.400 . S
C2063 C2068 1.490 . S
C2064 H2054 0.930 . S
C2064 C2063 1.400 . S
C2064 C2067 1.386 . S
H2065 C2081 0.930 . S
H2066 C2082 0.931 . S
C2067 H2055 0.929 . S
C2067 C2061 1.390 . S
C2067 C2064 1.386 . S
C2068 C2063 1.490 . S
C2068 C2070 1.395 . S
C2068 C2071 1.403 . S
H2069 C2075 0.930 . S
C2070 H2056 0.930 . S
C2070 C2068 1.395 . S
C2070 C2073 1.403 . S
C2071 C2068 1.403 . S
C2071 C2072 1.524 . S
C2071 C2075 1.400 . S
C2072 H2057 0.960 . S
C2072 H2058 0.960 . S
C2072 H2059 0.960 . S
C2072 C2071 1.524 . S
C2073 C2070 1.403 . S
C2073 C2074 1.392 . S
C2073 C2077 1.495 . S
C2074 C2073 1.392 . S
C2074 C2075 1.385 . S
C2074 C2076 1.478 . S
C2075 H2069 0.930 . S
C2075 C2071 1.400 . S
C2075 C2074 1.385 . S
C2076 C2074 1.478 . S
C2076 C2078 1.381 . S
C2076 C2082 1.383 . S
C2077 C2073 1.495 . S
C2077 H2083 0.959 . S
C2077 H2084 0.961 . S
C2077 H2085 0.960 . S
C2078 C2076 1.381 . S
C2078 C2079 1.394 . S
C2078 H2086 0.930 . S
C2079 C2078 1.394 . S
C2079 C2080 1.383 . S
C2079 H2087 0.929 . S
C2080 C2079 1.383 . S
C2080 C2081 1.377 . S
C2081 H2065 0.930 . S
C2081 C2080 1.377 . S
C2081 C2082 1.379 . S
C2082 H2066 0.931 . S
C2082 C2076 1.383 . S
C2082 C2081 1.379 . S
H2083 C2077 0.959 . S
H2084 C2077 0.961 . S
H2085 C2077 0.960 . S
H2086 C2078 0.930 . S
H2087 C2079 0.929 . S
H2088 C2096 0.929 . S
H2089 C2098 0.930 . S
H2090 C2100 0.930 . S
H2091 C2103 0.929 . S
H2092 C2106 0.930 . S
H2093 C2108 0.960 . S
H2094 C2108 0.960 . S
H2095 C2108 0.960 . S
C2096 H2088 0.929 . S
C2096 C2097 1.377 . S
C2096 C2098 1.384 . S
C2097 C2096 1.377 . S
C2097 C2103 1.390 . S
C2098 H2089 0.930 . S
C2098 C2096 1.384 . S
C2098 C2099 1.372 . S
C2099 C2098 1.372 . S
C2099 C2100 1.400 . S
C2099 C2104 1.490 . S
C2100 H2090 0.930 . S
C2100 C2099 1.400 . S
C2100 C2103 1.386 . S
H2101 C2117 0.930 . S
H2102 C2118 0.931 . S
C2103 H2091 0.929 . S
C2103 C2097 1.390 . S
C2103 C2100 1.386 . S
C2104 C2099 1.490 . S
C2104 C2106 1.395 . S
C2104 C2107 1.403 . S
H2105 C2111 0.930 . S
C2106 H2092 0.930 . S
C2106 C2104 1.395 . S
C2106 C2109 1.403 . S
C2107 C2104 1.403 . S
C2107 C2108 1.524 . S
C2107 C2111 1.400 . S
C2108 H2093 0.960 . S
C2108 H2094 0.960 . S
C2108 H2095 0.960 . S
C2108 C2107 1.524 . S
C2109 C2106 1.403 . S
C2109 C2110 1.392 . S
C2109 C2113 1.495 . S
C2110 C2109 1.392 . S
C2110 C2111 1.385 . S
C2110 C2112 1.478 . S
C2111 H2105 0.930 . S
C2111 C2107 1.400 . S
C2111 C2110 1.385 . S
C2112 C2110 1.478 . S
C2112 C2114 1.381 . S
C2112 C2118 1.383 . S
C2113 C2109 1.495 . S
C2113 H2119 0.959 . S
C2113 H2120 0.961 . S
C2113 H2121 0.960 . S
C2114 C2112 1.381 . S
C2114 C2115 1.394 . S
C2114 H2122 0.930 . S
C2115 C2114 1.394 . S
C2115 C2116 1.383 . S
C2115 H2123 0.929 . S
C2116 C2115 1.383 . S
C2116 C2117 1.377 . S
C2117 H2101 0.930 . S
C2117 C2116 1.377 . S
C2117 C2118 1.379 . S
C2118 H2102 0.931 . S
C2118 C2112 1.383 . S
C2118 C2117 1.379 . S
H2119 C2113 0.959 . S
H2120 C2113 0.961 . S
H2121 C2113 0.960 . S
H2122 C2114 0.930 . S
H2123 C2115 0.929 . S
H2124 C2132 0.929 . S
H2125 C2134 0.930 . S
H2126 C2136 0.930 . S
H2127 C2139 0.929 . S
H2128 C2142 0.930 1_565 S
H2129 C2144 0.975 . S
H2130 C2144 0.953 1_565 S
H2131 C2144 0.955 1_565 S
C2132 H2124 0.929 . S
C2132 C2133 1.377 . S
C2132 C2134 1.384 . S
C2133 C2132 1.377 . S
C2133 C2139 1.390 . S
C2134 H2125 0.930 . S
C2134 C2132 1.384 . S
C2134 C2135 1.372 . S
C2135 C2134 1.372 . S
C2135 C2136 1.400 . S
C2135 C2140 1.490 . S
C2136 H2126 0.930 . S
C2136 C2135 1.400 . S
C2136 C2139 1.386 . S
H2137 C2153 0.930 . S
H2138 C2154 0.931 . S
C2139 H2127 0.929 . S
C2139 C2133 1.390 . S
C2139 C2136 1.386 . S
C2140 C2135 1.490 . S
C2140 C2142 1.395 1_565 S
C2140 C2143 1.403 1_565 S
H2141 C2147 0.930 . S
C2142 H2128 0.930 1_545 S
C2142 C2140 1.395 1_545 S
C2142 C2145 1.403 . S
C2143 C2140 1.403 1_545 S
C2143 C2144 1.521 . S
C2143 C2147 1.400 . S
C2144 H2129 0.975 . S
C2144 H2130 0.953 1_545 S
C2144 H2131 0.955 1_545 S
C2144 C2143 1.521 . S
C2145 C2142 1.403 . S
C2145 C2146 1.392 . S
C2145 C2149 1.495 . S
C2146 C2145 1.392 . S
C2146 C2147 1.385 . S
C2146 C2148 1.478 . S
C2147 H2141 0.930 . S
C2147 C2143 1.400 . S
C2147 C2146 1.385 . S
C2148 C2146 1.478 . S
C2148 C2150 1.381 . S
C2148 C2154 1.383 . S
C2149 C2145 1.495 . S
C2149 H2155 0.959 . S
C2149 H2156 0.961 . S
C2149 H2157 0.960 . S
C2150 C2148 1.381 . S
C2150 C2151 1.394 . S
C2150 H2158 0.930 . S
C2151 C2150 1.394 . S
C2151 C2152 1.383 . S
C2151 H2159 0.929 . S
C2152 C2151 1.383 . S
C2152 C2153 1.377 . S
C2153 H2137 0.930 . S
C2153 C2152 1.377 . S
C2153 C2154 1.379 . S
C2154 H2138 0.931 . S
C2154 C2148 1.383 . S
C2154 C2153 1.379 . S
H2155 C2149 0.959 . S
H2156 C2149 0.961 . S
H2157 C2149 0.960 . S
H2158 C2150 0.930 . S
H2159 C2151 0.929 . S
H2160 C2168 0.929 . S
H2161 C2170 0.930 . S
H2162 C2172 0.930 . S
H2163 C2175 0.929 . S
H2164 C2178 0.930 . S
H2165 C2180 0.960 . S
H2166 C2180 0.960 . S
H2167 C2180 0.960 . S
C2168 H2160 0.929 . S
C2168 C2169 1.377 . S
C2168 C2170 1.384 . S
C2169 C2168 1.377 . S
C2169 C2175 1.390 . S
C2170 H2161 0.930 . S
C2170 C2168 1.384 . S
C2170 C2171 1.372 . S
C2171 C2170 1.372 . S
C2171 C2172 1.400 . S
C2171 C2176 1.490 . S
C2172 H2162 0.930 . S
C2172 C2171 1.400 . S
C2172 C2175 1.386 . S
H2173 C2189 0.930 . S
H2174 C2190 0.931 . S
C2175 H2163 0.929 . S
C2175 C2169 1.390 . S
C2175 C2172 1.386 . S
C2176 C2171 1.490 . S
C2176 C2178 1.395 . S
C2176 C2179 1.403 . S
H2177 C2183 0.930 1_455 S
C2178 H2164 0.930 . S
C2178 C2176 1.395 . S
C2178 C2181 1.403 . S
C2179 C2176 1.403 . S
C2179 C2180 1.524 . S
C2179 C2183 1.400 . S
C2180 H2165 0.960 . S
C2180 H2166 0.960 . S
C2180 H2167 0.960 . S
C2180 C2179 1.524 . S
C2181 C2178 1.403 . S
C2181 C2182 1.392 1_655 S
C2181 C2185 1.495 1_655 S
C2182 C2181 1.392 1_455 S
C2182 C2183 1.385 1_455 S
C2182 C2184 1.478 . S
C2183 H2177 0.930 1_655 S
C2183 C2179 1.400 . S
C2183 C2182 1.385 1_655 S
C2184 C2182 1.478 . S
C2184 C2186 1.381 . S
C2184 C2190 1.383 . S
C2185 C2181 1.495 1_455 S
C2185 H2191 0.959 1_455 S
C2185 H2192 0.961 . S
C2185 H2193 0.960 . S
C2186 C2184 1.381 . S
C2186 C2187 1.394 . S
C2186 H2194 0.930 . S
C2187 C2186 1.394 . S
C2187 C2188 1.383 . S
C2187 H2195 0.929 . S
C2188 C2187 1.383 . S
C2188 C2189 1.377 . S
C2189 H2173 0.930 . S
C2189 C2188 1.377 . S
C2189 C2190 1.379 . S
C2190 H2174 0.931 . S
C2190 C2184 1.383 . S
C2190 C2189 1.379 . S
H2191 C2185 0.959 1_655 S
H2192 C2185 0.961 . S
H2193 C2185 0.960 . S
H2194 C2186 0.930 . S
H2195 C2187 0.929 . S
H2196 C2204 0.929 . S
H2197 C2206 0.930 . S
H2198 C2208 0.930 . S
H2199 C2211 0.929 . S
H2200 C2214 0.930 . S
H2201 C2216 0.960 . S
H2202 C2216 0.960 . S
H2203 C2216 0.960 . S
C2204 H2196 0.929 . S
C2204 C2205 1.377 . S
C2204 C2206 1.384 . S
C2205 C2204 1.377 . S
C2205 C2211 1.390 . S
C2206 H2197 0.930 . S
C2206 C2204 1.384 . S
C2206 C2207 1.372 . S
C2207 C2206 1.372 . S
C2207 C2208 1.400 . S
C2207 C2212 1.490 . S
C2208 H2198 0.930 . S
C2208 C2207 1.400 . S
C2208 C2211 1.386 . S
H2209 C2225 0.930 . S
H2210 C2226 0.931 . S
C2211 H2199 0.929 . S
C2211 C2205 1.390 . S
C2211 C2208 1.386 . S
C2212 C2207 1.490 . S
C2212 C2214 1.395 . S
C2212 C2215 1.403 . S
H2213 C2219 0.930 . S
C2214 H2200 0.930 . S
C2214 C2212 1.395 . S
C2214 C2217 1.403 . S
C2215 C2212 1.403 . S
C2215 C2216 1.524 . S
C2215 C2219 1.400 . S
C2216 H2201 0.960 . S
C2216 H2202 0.960 . S
C2216 H2203 0.960 . S
C2216 C2215 1.524 . S
C2217 C2214 1.403 . S
C2217 C2218 1.392 . S
C2217 C2221 1.495 . S
C2218 C2217 1.392 . S
C2218 C2219 1.385 . S
C2218 C2220 1.478 . S
C2219 H2213 0.930 . S
C2219 C2215 1.400 . S
C2219 C2218 1.385 . S
C2220 C2218 1.478 . S
C2220 C2222 1.381 . S
C2220 C2226 1.383 . S
C2221 C2217 1.495 . S
C2221 H2227 0.959 . S
C2221 H2228 0.961 . S
C2221 H2229 0.960 . S
C2222 C2220 1.381 . S
C2222 C2223 1.394 . S
C2222 H2230 0.930 . S
C2223 C2222 1.394 . S
C2223 C2224 1.383 . S
C2223 H2231 0.929 . S
C2224 C2223 1.383 . S
C2224 C2225 1.377 . S
C2225 H2209 0.930 . S
C2225 C2224 1.377 . S
C2225 C2226 1.379 . S
C2226 H2210 0.931 . S
C2226 C2220 1.383 . S
C2226 C2225 1.379 . S
H2227 C2221 0.959 . S
H2228 C2221 0.961 . S
H2229 C2221 0.960 . S
H2230 C2222 0.930 . S
H2231 C2223 0.929 . S
H2232 C2240 0.929 . S
H2233 C2242 0.930 . S
H2234 C2244 0.930 . S
H2235 C2247 0.929 . S
H2236 C2250 0.930 1_545 S
H2237 C2252 0.960 1_565 S
H2238 C2252 0.960 . S
H2239 C2252 0.960 . S
C2240 H2232 0.929 . S
C2240 C2241 1.377 . S
C2240 C2242 1.384 . S
C2241 C2240 1.377 . S
C2241 C2247 1.390 . S
C2242 H2233 0.930 . S
C2242 C2240 1.384 . S
C2242 C2243 1.372 . S
C2243 C2242 1.372 . S
C2243 C2244 1.400 . S
C2243 C2248 1.490 . S
C2244 H2234 0.930 . S
C2244 C2243 1.400 . S
C2244 C2247 1.386 . S
H2245 C2261 0.930 . S
H2246 C2262 0.931 . S
C2247 H2235 0.929 . S
C2247 C2241 1.390 . S
C2247 C2244 1.386 . S
C2248 C2243 1.490 . S
C2248 C2250 1.395 1_545 S
C2248 C2251 1.403 1_545 S
H2249 C2255 0.930 . S
C2250 H2236 0.930 1_565 S
C2250 C2248 1.395 1_565 S
C2250 C2253 1.403 . S
C2251 C2248 1.403 1_565 S
C2251 C2252 1.524 1_565 S
C2251 C2255 1.400 . S
C2252 H2237 0.960 1_545 S
C2252 H2238 0.960 . S
C2252 H2239 0.960 . S
C2252 C2251 1.524 1_545 S
C2253 C2250 1.403 . S
C2253 C2254 1.392 . S
C2253 C2257 1.495 . S
C2254 C2253 1.392 . S
C2254 C2255 1.385 . S
C2254 C2256 1.478 . S
C2255 H2249 0.930 . S
C2255 C2251 1.400 . S
C2255 C2254 1.385 . S
C2256 C2254 1.478 . S
C2256 C2258 1.381 . S
C2256 C2262 1.383 . S
C2257 C2253 1.495 . S
C2257 H2263 0.959 . S
C2257 H2264 0.961 . S
C2257 H2265 0.960 . S
C2258 C2256 1.381 . S
C2258 C2259 1.394 . S
C2258 H2266 0.930 . S
C2259 C2258 1.394 . S
C2259 C2260 1.383 . S
C2259 H2267 0.929 . S
C2260 C2259 1.383 . S
C2260 C2261 1.377 . S
C2261 H2245 0.930 . S
C2261 C2260 1.377 . S
C2261 C2262 1.379 . S
C2262 H2246 0.931 . S
C2262 C2256 1.383 . S
C2262 C2261 1.379 . S
H2263 C2257 0.959 . S
H2264 C2257 0.961 . S
H2265 C2257 0.960 . S
H2266 C2258 0.930 . S
H2267 C2259 0.929 . S
H2268 C2276 0.929 . S
H2269 C2278 0.930 . S
H2270 C2280 0.930 . S
H2271 C2283 0.929 . S
H2272 C2286 0.930 . S
H2273 C2288 0.960 . S
H2274 C2288 0.960 . S
H2275 C2288 0.960 . S
C2276 H2268 0.929 . S
C2276 C2277 1.377 . S
C2276 C2278 1.384 . S
C2277 C2276 1.377 . S
C2277 C2283 1.390 . S
C2278 H2269 0.930 . S
C2278 C2276 1.384 . S
C2278 C2279 1.372 . S
C2279 C2278 1.372 . S
C2279 C2280 1.400 . S
C2279 C2284 1.490 . S
C2280 H2270 0.930 . S
C2280 C2279 1.400 . S
C2280 C2283 1.386 . S
H2281 C2297 0.930 . S
H2282 C2298 0.931 . S
C2283 H2271 0.929 . S
C2283 C2277 1.390 . S
C2283 C2280 1.386 . S
C2284 C2279 1.490 . S
C2284 C2286 1.395 . S
C2284 C2287 1.403 . S
H2285 C2291 0.930 1_655 S
C2286 H2272 0.930 . S
C2286 C2284 1.395 . S
C2286 C2289 1.403 . S
C2287 C2284 1.403 . S
C2287 C2288 1.524 . S
C2287 C2291 1.400 . S
C2288 H2273 0.960 . S
C2288 H2274 0.960 . S
C2288 H2275 0.960 . S
C2288 C2287 1.524 . S
C2289 C2286 1.403 . S
C2289 C2290 1.392 1_455 S
C2289 C2293 1.495 1_455 S
C2290 C2289 1.392 1_655 S
C2290 C2291 1.385 1_655 S
C2290 C2292 1.478 . S
C2291 H2285 0.930 1_455 S
C2291 C2287 1.400 . S
C2291 C2290 1.385 1_455 S
C2292 C2290 1.478 . S
C2292 C2294 1.381 . S
C2292 C2298 1.383 . S
C2293 C2289 1.495 1_655 S
C2293 H2299 0.959 1_655 S
C2293 H2300 0.961 . S
C2293 H2301 0.960 . S
C2294 C2292 1.381 . S
C2294 C2295 1.394 . S
C2294 H2302 0.930 . S
C2295 C2294 1.394 . S
C2295 C2296 1.383 . S
C2295 H2303 0.929 . S
C2296 C2295 1.383 . S
C2296 C2297 1.377 . S
C2297 H2281 0.930 . S
C2297 C2296 1.377 . S
C2297 C2298 1.379 . S
C2298 H2282 0.931 . S
C2298 C2292 1.383 . S
C2298 C2297 1.379 . S
H2299 C2293 0.959 1_455 S
H2300 C2293 0.961 . S
H2301 C2293 0.960 . S
H2302 C2294 0.930 . S
H2303 C2295 0.929 . S
H2304 C2312 0.929 . S
H2305 C2314 0.930 . S
H2306 C2316 0.930 . S
H2307 C2319 0.929 . S
H2308 C2322 0.930 . S
H2309 C2324 0.960 . S
H2310 C2324 0.960 . S
H2311 C2324 0.960 . S
C2312 H2304 0.929 . S
C2312 C2313 1.377 . S
C2312 C2314 1.384 . S
C2313 C2312 1.377 . S
C2313 C2319 1.390 . S
C2314 H2305 0.930 . S
C2314 C2312 1.384 . S
C2314 C2315 1.372 . S
C2315 C2314 1.372 . S
C2315 C2316 1.400 . S
C2315 C2320 1.490 . S
C2316 H2306 0.930 . S
C2316 C2315 1.400 . S
C2316 C2319 1.386 . S
H2317 C2333 0.930 . S
H2318 C2334 0.931 . S
C2319 H2307 0.929 . S
C2319 C2313 1.390 . S
C2319 C2316 1.386 . S
C2320 C2315 1.490 . S
C2320 C2322 1.395 . S
C2320 C2323 1.403 . S
H2321 C2327 0.930 . S
C2322 H2308 0.930 . S
C2322 C2320 1.395 . S
C2322 C2325 1.403 . S
C2323 C2320 1.403 . S
C2323 C2324 1.524 . S
C2323 C2327 1.400 . S
C2324 H2309 0.960 . S
C2324 H2310 0.960 . S
C2324 H2311 0.960 . S
C2324 C2323 1.524 . S
C2325 C2322 1.403 . S
C2325 C2326 1.392 . S
C2325 C2329 1.495 . S
C2326 C2325 1.392 . S
C2326 C2327 1.385 . S
C2326 C2328 1.478 . S
C2327 H2321 0.930 . S
C2327 C2323 1.400 . S
C2327 C2326 1.385 . S
C2328 C2326 1.478 . S
C2328 C2330 1.381 . S
C2328 C2334 1.383 . S
C2329 C2325 1.495 . S
C2329 H2335 0.959 . S
C2329 H2336 0.961 . S
C2329 H2337 0.960 . S
C2330 C2328 1.381 . S
C2330 C2331 1.394 . S
C2330 H2338 0.930 . S
C2331 C2330 1.394 . S
C2331 C2332 1.383 . S
C2331 H2339 0.929 . S
C2332 C2331 1.383 . S
C2332 C2333 1.377 . S
C2333 H2317 0.930 . S
C2333 C2332 1.377 . S
C2333 C2334 1.379 . S
C2334 H2318 0.931 . S
C2334 C2328 1.383 . S
C2334 C2333 1.379 . S
H2335 C2329 0.959 . S
H2336 C2329 0.961 . S
H2337 C2329 0.960 . S
H2338 C2330 0.930 . S
H2339 C2331 0.929 . S
H2340 C2348 0.929 . S
H2341 C2350 0.930 . S
H2342 C2352 0.930 . S
H2343 C2355 0.929 . S
H2344 C2358 0.930 1_545 S
H2345 C2360 0.958 . S
H2346 C2360 0.960 1_545 S
H2347 C2360 0.962 1_545 S
C2348 H2340 0.929 . S
C2348 C2349 1.377 . S
C2348 C2350 1.384 . S
C2349 C2348 1.377 . S
C2349 C2355 1.390 . S
C2350 H2341 0.930 . S
C2350 C2348 1.384 . S
C2350 C2351 1.372 . S
C2351 C2350 1.372 . S
C2351 C2352 1.400 . S
C2351 C2356 1.490 . S
C2352 H2342 0.930 . S
C2352 C2351 1.400 . S
C2352 C2355 1.386 . S
H2353 C2369 0.930 . S
H2354 C2370 0.931 . S
C2355 H2343 0.929 . S
C2355 C2349 1.390 . S
C2355 C2352 1.386 . S
C2356 C2351 1.490 . S
C2356 C2358 1.395 1_545 S
C2356 C2359 1.403 1_545 S
H2357 C2363 0.930 . S
C2358 H2344 0.930 1_565 S
C2358 C2356 1.395 1_565 S
C2358 C2361 1.403 . S
C2359 C2356 1.403 1_565 S
C2359 C2360 1.524 . S
C2359 C2363 1.400 . S
C2360 H2345 0.958 . S
C2360 H2346 0.960 1_565 S
C2360 H2347 0.962 1_565 S
C2360 C2359 1.524 . S
C2361 C2358 1.403 . S
C2361 C2362 1.392 . S
C2361 C2365 1.495 . S
C2362 C2361 1.392 . S
C2362 C2363 1.385 . S
C2362 C2364 1.478 . S
C2363 H2357 0.930 . S
C2363 C2359 1.400 . S
C2363 C2362 1.385 . S
C2364 C2362 1.478 . S
C2364 C2366 1.381 . S
C2364 C2370 1.383 . S
C2365 C2361 1.495 . S
C2365 H2371 0.959 . S
C2365 H2372 0.961 . S
C2365 H2373 0.960 . S
C2366 C2364 1.381 . S
C2366 C2367 1.394 . S
C2366 H2374 0.930 . S
C2367 C2366 1.394 . S
C2367 C2368 1.383 . S
C2367 H2375 0.929 . S
C2368 C2367 1.383 . S
C2368 C2369 1.377 . S
C2369 H2353 0.930 . S
C2369 C2368 1.377 . S
C2369 C2370 1.379 . S
C2370 H2354 0.931 . S
C2370 C2364 1.383 . S
C2370 C2369 1.379 . S
H2371 C2365 0.959 . S
H2372 C2365 0.961 . S
H2373 C2365 0.960 . S
H2374 C2366 0.930 . S
H2375 C2367 0.929 . S
H2376 C2384 0.929 . S
H2377 C2386 0.930 . S
H2378 C2388 0.930 . S
H2379 C2391 0.929 . S
H2380 C2394 0.930 1_655 S
H2381 C2396 0.966 . S
H2382 C2396 0.952 1_655 S
H2383 C2396 0.953 1_655 S
C2384 H2376 0.929 . S
C2384 C2385 1.377 . S
C2384 C2386 1.384 . S
C2385 C2384 1.377 . S
C2385 C2391 1.390 . S
C2386 H2377 0.930 . S
C2386 C2384 1.384 . S
C2386 C2387 1.372 . S
C2387 C2386 1.372 . S
C2387 C2388 1.400 . S
C2387 C2392 1.490 . S
C2388 H2378 0.930 . S
C2388 C2387 1.400 . S
C2388 C2391 1.386 . S
H2389 C2405 0.930 . S
H2390 C2406 0.931 . S
C2391 H2379 0.929 . S
C2391 C2385 1.390 . S
C2391 C2388 1.386 . S
C2392 C2387 1.490 . S
C2392 C2394 1.395 1_655 S
C2392 C2395 1.403 1_655 S
H2393 C2399 0.930 . S
C2394 H2380 0.930 1_455 S
C2394 C2392 1.395 1_455 S
C2394 C2397 1.403 . S
C2395 C2392 1.403 1_455 S
C2395 C2396 1.534 . S
C2395 C2399 1.400 . S
C2396 H2381 0.966 . S
C2396 H2382 0.952 1_455 S
C2396 H2383 0.953 1_455 S
C2396 C2395 1.534 . S
C2397 C2394 1.403 . S
C2397 C2398 1.392 . S
C2397 C2401 1.495 . S
C2398 C2397 1.392 . S
C2398 C2399 1.385 . S
C2398 C2400 1.478 . S
C2399 H2393 0.930 . S
C2399 C2395 1.400 . S
C2399 C2398 1.385 . S
C2400 C2398 1.478 . S
C2400 C2402 1.381 . S
C2400 C2406 1.383 . S
C2401 C2397 1.495 . S
C2401 H2407 0.959 . S
C2401 H2408 0.961 . S
C2401 H2409 0.960 . S
C2402 C2400 1.381 . S
C2402 C2403 1.394 . S
C2402 H2410 0.930 . S
C2403 C2402 1.394 . S
C2403 C2404 1.383 . S
C2403 H2411 0.929 . S
C2404 C2403 1.383 . S
C2404 C2405 1.377 . S
C2405 H2389 0.930 . S
C2405 C2404 1.377 . S
C2405 C2406 1.379 . S
C2406 H2390 0.931 . S
C2406 C2400 1.383 . S
C2406 C2405 1.379 . S
H2407 C2401 0.959 . S
H2408 C2401 0.961 . S
H2409 C2401 0.960 . S
H2410 C2402 0.930 . S
H2411 C2403 0.929 . S
H2412 C2420 0.929 . S
H2413 C2422 0.930 . S
H2414 C2424 0.930 . S
H2415 C2427 0.929 . S
H2416 C2430 0.930 . S
H2417 C2432 0.960 . S
H2418 C2432 0.960 . S
H2419 C2432 0.960 . S
C2420 H2412 0.929 . S
C2420 C2421 1.377 . S
C2420 C2422 1.384 . S
C2421 C2420 1.377 . S
C2421 C2427 1.390 . S
C2422 H2413 0.930 . S
C2422 C2420 1.384 . S
C2422 C2423 1.372 . S
C2423 C2422 1.372 . S
C2423 C2424 1.400 . S
C2423 C2428 1.490 . S
C2424 H2414 0.930 . S
C2424 C2423 1.400 . S
C2424 C2427 1.386 . S
H2425 C2441 0.930 . S
H2426 C2442 0.931 . S
C2427 H2415 0.929 . S
C2427 C2421 1.390 . S
C2427 C2424 1.386 . S
C2428 C2423 1.490 . S
C2428 C2430 1.395 . S
C2428 C2431 1.403 . S
H2429 C2435 0.930 . S
C2430 H2416 0.930 . S
C2430 C2428 1.395 . S
C2430 C2433 1.403 . S
C2431 C2428 1.403 . S
C2431 C2432 1.524 . S
C2431 C2435 1.400 . S
C2432 H2417 0.960 . S
C2432 H2418 0.960 . S
C2432 H2419 0.960 . S
C2432 C2431 1.524 . S
C2433 C2430 1.403 . S
C2433 C2434 1.392 . S
C2433 C2437 1.495 . S
C2434 C2433 1.392 . S
C2434 C2435 1.385 . S
C2434 C2436 1.478 . S
C2435 H2429 0.930 . S
C2435 C2431 1.400 . S
C2435 C2434 1.385 . S
C2436 C2434 1.478 . S
C2436 C2438 1.381 . S
C2436 C2442 1.383 . S
C2437 C2433 1.495 . S
C2437 H2443 0.959 . S
C2437 H2444 0.961 . S
C2437 H2445 0.960 . S
C2438 C2436 1.381 . S
C2438 C2439 1.394 . S
C2438 H2446 0.930 . S
C2439 C2438 1.394 . S
C2439 C2440 1.383 . S
C2439 H2447 0.929 . S
C2440 C2439 1.383 . S
C2440 C2441 1.377 . S
C2441 H2425 0.930 . S
C2441 C2440 1.377 . S
C2441 C2442 1.379 . S
C2442 H2426 0.931 . S
C2442 C2436 1.383 . S
C2442 C2441 1.379 . S
H2443 C2437 0.959 . S
H2444 C2437 0.961 . S
H2445 C2437 0.960 . S
H2446 C2438 0.930 . S
H2447 C2439 0.929 . S
H2448 C2456 0.929 . S
H2449 C2458 0.930 . S
H2450 C2460 0.930 . S
H2451 C2463 0.929 . S
H2452 C2466 0.930 1_565 S
H2453 C2468 0.960 1_545 S
H2454 C2468 0.960 . S
H2455 C2468 0.960 . S
C2456 H2448 0.929 . S
C2456 C2457 1.377 . S
C2456 C2458 1.384 . S
C2457 C2456 1.377 . S
C2457 C2463 1.390 . S
C2458 H2449 0.930 . S
C2458 C2456 1.384 . S
C2458 C2459 1.372 . S
C2459 C2458 1.372 . S
C2459 C2460 1.400 . S
C2459 C2464 1.490 . S
C2460 H2450 0.930 . S
C2460 C2459 1.400 . S
C2460 C2463 1.386 . S
H2461 C2477 0.930 . S
H2462 C2478 0.931 . S
C2463 H2451 0.929 . S
C2463 C2457 1.390 . S
C2463 C2460 1.386 . S
C2464 C2459 1.490 . S
C2464 C2466 1.395 1_565 S
C2464 C2467 1.403 1_565 S
H2465 C2471 0.930 . S
C2466 H2452 0.930 1_545 S
C2466 C2464 1.395 1_545 S
C2466 C2469 1.403 . S
C2467 C2464 1.403 1_545 S
C2467 C2468 1.524 1_545 S
C2467 C2471 1.400 . S
C2468 H2453 0.960 1_565 S
C2468 H2454 0.960 . S
C2468 H2455 0.960 . S
C2468 C2467 1.524 1_565 S
C2469 C2466 1.403 . S
C2469 C2470 1.392 . S
C2469 C2473 1.495 . S
C2470 C2469 1.392 . S
C2470 C2471 1.385 . S
C2470 C2472 1.478 . S
C2471 H2465 0.930 . S
C2471 C2467 1.400 . S
C2471 C2470 1.385 . S
C2472 C2470 1.478 . S
C2472 C2474 1.381 . S
C2472 C2478 1.383 . S
C2473 C2469 1.495 . S
C2473 H2479 0.959 . S
C2473 H2480 0.961 . S
C2473 H2481 0.960 . S
C2474 C2472 1.381 . S
C2474 C2475 1.394 . S
C2474 H2482 0.930 . S
C2475 C2474 1.394 . S
C2475 C2476 1.383 . S
C2475 H2483 0.929 . S
C2476 C2475 1.383 . S
C2476 C2477 1.377 . S
C2477 H2461 0.930 . S
C2477 C2476 1.377 . S
C2477 C2478 1.379 . S
C2478 H2462 0.931 . S
C2478 C2472 1.383 . S
C2478 C2477 1.379 . S
H2479 C2473 0.959 . S
H2480 C2473 0.961 . S
H2481 C2473 0.960 . S
H2482 C2474 0.930 . S
H2483 C2475 0.929 . S
H2484 C2492 0.929 . S
H2485 C2494 0.930 . S
H2486 C2496 0.930 . S
H2487 C2499 0.929 . S
H2488 C2502 0.930 . S
H2489 C2504 0.960 . S
H2490 C2504 0.960 . S
H2491 C2504 0.960 . S
C2492 H2484 0.929 . S
C2492 C2493 1.377 . S
C2492 C2494 1.384 . S
C2493 C2492 1.377 . S
C2493 C2499 1.390 . S
C2494 H2485 0.930 . S
C2494 C2492 1.384 . S
C2494 C2495 1.372 . S
C2495 C2494 1.372 . S
C2495 C2496 1.400 . S
C2495 C2500 1.490 . S
C2496 H2486 0.930 . S
C2496 C2495 1.400 . S
C2496 C2499 1.386 . S
H2497 C2513 0.930 . S
H2498 C2514 0.931 . S
C2499 H2487 0.929 . S
C2499 C2493 1.390 . S
C2499 C2496 1.386 . S
C2500 C2495 1.490 . S
C2500 C2502 1.395 . S
C2500 C2503 1.403 . S
H2501 C2507 0.930 1_455 S
C2502 H2488 0.930 . S
C2502 C2500 1.395 . S
C2502 C2505 1.403 . S
C2503 C2500 1.403 . S
C2503 C2504 1.524 . S
C2503 C2507 1.400 . S
C2504 H2489 0.960 . S
C2504 H2490 0.960 . S
C2504 H2491 0.960 . S
C2504 C2503 1.524 . S
C2505 C2502 1.403 . S
C2505 C2506 1.392 1_655 S
C2505 C2509 1.495 1_655 S
C2506 C2505 1.392 1_455 S
C2506 C2507 1.385 1_455 S
C2506 C2508 1.478 . S
C2507 H2501 0.930 1_655 S
C2507 C2503 1.400 . S
C2507 C2506 1.385 1_655 S
C2508 C2506 1.478 . S
C2508 C2510 1.381 . S
C2508 C2514 1.383 . S
C2509 C2505 1.495 1_455 S
C2509 H2515 0.959 1_455 S
C2509 H2516 0.961 . S
C2509 H2517 0.960 . S
C2510 C2508 1.381 . S
C2510 C2511 1.394 . S
C2510 H2518 0.930 . S
C2511 C2510 1.394 . S
C2511 C2512 1.383 . S
C2511 H2519 0.929 . S
C2512 C2511 1.383 . S
C2512 C2513 1.377 . S
C2513 H2497 0.930 . S
C2513 C2512 1.377 . S
C2513 C2514 1.379 . S
C2514 H2498 0.931 . S
C2514 C2508 1.383 . S
C2514 C2513 1.379 . S
H2515 C2509 0.959 1_655 S
H2516 C2509 0.961 . S
H2517 C2509 0.960 . S
H2518 C2510 0.930 . S
H2519 C2511 0.929 . S
H2520 C2528 0.929 . S
H2521 C2530 0.930 . S
H2522 C2532 0.930 . S
H2523 C2535 0.929 . S
H2524 C2538 0.930 . S
H2525 C2540 0.960 . S
H2526 C2540 0.960 . S
H2527 C2540 0.960 . S
C2528 H2520 0.929 . S
C2528 C2529 1.377 . S
C2528 C2530 1.384 . S
C2529 C2528 1.377 . S
C2529 C2535 1.390 . S
C2530 H2521 0.930 . S
C2530 C2528 1.384 . S
C2530 C2531 1.372 . S
C2531 C2530 1.372 . S
C2531 C2532 1.400 . S
C2531 C2536 1.490 . S
C2532 H2522 0.930 . S
C2532 C2531 1.400 . S
C2532 C2535 1.386 . S
H2533 C2549 0.930 . S
H2534 C2550 0.931 . S
C2535 H2523 0.929 . S
C2535 C2529 1.390 . S
C2535 C2532 1.386 . S
C2536 C2531 1.490 . S
C2536 C2538 1.395 . S
C2536 C2539 1.403 . S
H2537 C2543 0.930 . S
C2538 H2524 0.930 . S
C2538 C2536 1.395 . S
C2538 C2541 1.403 . S
C2539 C2536 1.403 . S
C2539 C2540 1.524 . S
C2539 C2543 1.400 . S
C2540 H2525 0.960 . S
C2540 H2526 0.960 . S
C2540 H2527 0.960 . S
C2540 C2539 1.524 . S
C2541 C2538 1.403 . S
C2541 C2542 1.392 . S
C2541 C2545 1.495 . S
C2542 C2541 1.392 . S
C2542 C2543 1.385 . S
C2542 C2544 1.478 . S
C2543 H2537 0.930 . S
C2543 C2539 1.400 . S
C2543 C2542 1.385 . S
C2544 C2542 1.478 . S
C2544 C2546 1.381 . S
C2544 C2550 1.383 . S
C2545 C2541 1.495 . S
C2545 H2551 0.959 . S
C2545 H2552 0.961 . S
C2545 H2553 0.960 . S
C2546 C2544 1.381 . S
C2546 C2547 1.394 . S
C2546 H2554 0.930 . S
C2547 C2546 1.394 . S
C2547 C2548 1.383 . S
C2547 H2555 0.929 . S
C2548 C2547 1.383 . S
C2548 C2549 1.377 . S
C2549 H2533 0.930 . S
C2549 C2548 1.377 . S
C2549 C2550 1.379 . S
C2550 H2534 0.931 . S
C2550 C2544 1.383 . S
C2550 C2549 1.379 . S
H2551 C2545 0.959 . S
H2552 C2545 0.961 . S
H2553 C2545 0.960 . S
H2554 C2546 0.930 . S
H2555 C2547 0.929 . S
H2556 C2564 0.929 . S
H2557 C2566 0.930 . S
H2558 C2568 0.930 . S
H2559 C2571 0.929 . S
H2560 C2574 0.930 . S
H2561 C2576 0.960 . S
H2562 C2576 0.960 . S
H2563 C2576 0.960 . S
C2564 H2556 0.929 . S
C2564 C2565 1.377 . S
C2564 C2566 1.384 . S
C2565 C2564 1.377 . S
C2565 C2571 1.390 . S
C2566 H2557 0.930 . S
C2566 C2564 1.384 . S
C2566 C2567 1.372 . S
C2567 C2566 1.372 . S
C2567 C2568 1.400 . S
C2567 C2572 1.490 . S
C2568 H2558 0.930 . S
C2568 C2567 1.400 . S
C2568 C2571 1.386 . S
H2569 C2585 0.930 . S
H2570 C2586 0.931 . S
C2571 H2559 0.929 . S
C2571 C2565 1.390 . S
C2571 C2568 1.386 . S
C2572 C2567 1.490 . S
C2572 C2574 1.395 . S
C2572 C2575 1.403 . S
H2573 C2579 0.930 . S
C2574 H2560 0.930 . S
C2574 C2572 1.395 . S
C2574 C2577 1.403 . S
C2575 C2572 1.403 . S
C2575 C2576 1.524 . S
C2575 C2579 1.400 . S
C2576 H2561 0.960 . S
C2576 H2562 0.960 . S
C2576 H2563 0.960 . S
C2576 C2575 1.524 . S
C2577 C2574 1.403 . S
C2577 C2578 1.392 . S
C2577 C2581 1.495 . S
C2578 C2577 1.392 . S
C2578 C2579 1.385 . S
C2578 C2580 1.478 . S
C2579 H2573 0.930 . S
C2579 C2575 1.400 . S
C2579 C2578 1.385 . S
C2580 C2578 1.478 . S
C2580 C2582 1.381 . S
C2580 C2586 1.383 . S
C2581 C2577 1.495 . S
C2581 H2587 0.959 . S
C2581 H2588 0.961 . S
C2581 H2589 0.960 . S
C2582 C2580 1.381 . S
C2582 C2583 1.394 . S
C2582 H2590 0.930 . S
C2583 C2582 1.394 . S
C2583 C2584 1.383 . S
C2583 H2591 0.929 . S
C2584 C2583 1.383 . S
C2584 C2585 1.377 . S
C2585 H2569 0.930 . S
C2585 C2584 1.377 . S
C2585 C2586 1.379 . S
C2586 H2570 0.931 . S
C2586 C2580 1.383 . S
C2586 C2585 1.379 . S
H2587 C2581 0.959 . S
H2588 C2581 0.961 . S
H2589 C2581 0.960 . S
H2590 C2582 0.930 . S
H2591 C2583 0.929 . S
H2592 C2600 0.929 . S
H2593 C2602 0.930 . S
H2594 C2604 0.930 . S
H2595 C2607 0.929 . S
H2596 C2610 0.930 . S
H2597 C2612 0.960 . S
H2598 C2612 0.960 . S
H2599 C2612 0.960 . S
C2600 H2592 0.929 . S
C2600 C2601 1.377 . S
C2600 C2602 1.384 . S
C2601 C2600 1.377 . S
C2601 C2607 1.390 . S
C2602 H2593 0.930 . S
C2602 C2600 1.384 . S
C2602 C2603 1.372 . S
C2603 C2602 1.372 . S
C2603 C2604 1.400 . S
C2603 C2608 1.490 . S
C2604 H2594 0.930 . S
C2604 C2603 1.400 . S
C2604 C2607 1.386 . S
H2605 C2621 0.930 . S
H2606 C2622 0.931 . S
C2607 H2595 0.929 . S
C2607 C2601 1.390 . S
C2607 C2604 1.386 . S
C2608 C2603 1.490 . S
C2608 C2610 1.395 . S
C2608 C2611 1.403 . S
H2609 C2615 0.930 . S
C2610 H2596 0.930 . S
C2610 C2608 1.395 . S
C2610 C2613 1.403 . S
C2611 C2608 1.403 . S
C2611 C2612 1.524 . S
C2611 C2615 1.400 . S
C2612 H2597 0.960 . S
C2612 H2598 0.960 . S
C2612 H2599 0.960 . S
C2612 C2611 1.524 . S
C2613 C2610 1.403 . S
C2613 C2614 1.392 . S
C2613 C2617 1.495 . S
C2614 C2613 1.392 . S
C2614 C2615 1.385 . S
C2614 C2616 1.478 . S
C2615 H2609 0.930 . S
C2615 C2611 1.400 . S
C2615 C2614 1.385 . S
C2616 C2614 1.478 . S
C2616 C2618 1.381 . S
C2616 C2622 1.383 . S
C2617 C2613 1.495 . S
C2617 H2623 0.959 . S
C2617 H2624 0.961 . S
C2617 H2625 0.960 . S
C2618 C2616 1.381 . S
C2618 C2619 1.394 . S
C2618 H2626 0.930 . S
C2619 C2618 1.394 . S
C2619 C2620 1.383 . S
C2619 H2627 0.929 . S
C2620 C2619 1.383 . S
C2620 C2621 1.377 . S
C2621 H2605 0.930 . S
C2621 C2620 1.377 . S
C2621 C2622 1.379 . S
C2622 H2606 0.931 . S
C2622 C2616 1.383 . S
C2622 C2621 1.379 . S
H2623 C2617 0.959 . S
H2624 C2617 0.961 . S
H2625 C2617 0.960 . S
H2626 C2618 0.930 . S
H2627 C2619 0.929 . S
H2628 C2636 0.929 . S
H2629 C2638 0.930 . S
H2630 C2640 0.930 . S
H2631 C2643 0.929 . S
H2632 C2646 0.930 . S
H2633 C2648 0.960 . S
H2634 C2648 0.960 . S
H2635 C2648 0.960 . S
C2636 H2628 0.929 . S
C2636 C2637 1.377 . S
C2636 C2638 1.384 . S
C2637 C2636 1.377 . S
C2637 C2643 1.390 . S
C2638 H2629 0.930 . S
C2638 C2636 1.384 . S
C2638 C2639 1.372 . S
C2639 C2638 1.372 . S
C2639 C2640 1.400 . S
C2639 C2644 1.490 . S
C2640 H2630 0.930 . S
C2640 C2639 1.400 . S
C2640 C2643 1.386 . S
H2641 C2657 0.930 . S
H2642 C2658 0.931 . S
C2643 H2631 0.929 . S
C2643 C2637 1.390 . S
C2643 C2640 1.386 . S
C2644 C2639 1.490 . S
C2644 C2646 1.395 . S
C2644 C2647 1.403 . S
H2645 C2651 0.930 . S
C2646 H2632 0.930 . S
C2646 C2644 1.395 . S
C2646 C2649 1.403 . S
C2647 C2644 1.403 . S
C2647 C2648 1.524 . S
C2647 C2651 1.400 . S
C2648 H2633 0.960 . S
C2648 H2634 0.960 . S
C2648 H2635 0.960 . S
C2648 C2647 1.524 . S
C2649 C2646 1.403 . S
C2649 C2650 1.392 . S
C2649 C2653 1.495 . S
C2650 C2649 1.392 . S
C2650 C2651 1.385 . S
C2650 C2652 1.478 . S
C2651 H2645 0.930 . S
C2651 C2647 1.400 . S
C2651 C2650 1.385 . S
C2652 C2650 1.478 . S
C2652 C2654 1.381 . S
C2652 C2658 1.383 . S
C2653 C2649 1.495 . S
C2653 H2659 0.959 . S
C2653 H2660 0.961 . S
C2653 H2661 0.960 . S
C2654 C2652 1.381 . S
C2654 C2655 1.394 . S
C2654 H2662 0.930 . S
C2655 C2654 1.394 . S
C2655 C2656 1.383 . S
C2655 H2663 0.929 . S
C2656 C2655 1.383 . S
C2656 C2657 1.377 . S
C2657 H2641 0.930 . S
C2657 C2656 1.377 . S
C2657 C2658 1.379 . S
C2658 H2642 0.931 . S
C2658 C2652 1.383 . S
C2658 C2657 1.379 . S
H2659 C2653 0.959 . S
H2660 C2653 0.961 . S
H2661 C2653 0.960 . S
H2662 C2654 0.930 . S
H2663 C2655 0.929 . S
H2664 C2672 0.929 . S
H2665 C2674 0.930 . S
H2666 C2676 0.930 . S
H2667 C2679 0.929 . S
H2668 C2682 0.930 . S
H2669 C2684 0.960 . S
H2670 C2684 0.960 . S
H2671 C2684 0.960 . S
C2672 H2664 0.929 . S
C2672 C2673 1.377 . S
C2672 C2674 1.384 . S
C2673 C2672 1.377 . S
C2673 C2679 1.390 . S
C2674 H2665 0.930 . S
C2674 C2672 1.384 . S
C2674 C2675 1.372 . S
C2675 C2674 1.372 . S
C2675 C2676 1.400 . S
C2675 C2680 1.490 . S
C2676 H2666 0.930 . S
C2676 C2675 1.400 . S
C2676 C2679 1.386 . S
H2677 C2693 0.930 . S
H2678 C2694 0.931 . S
C2679 H2667 0.929 . S
C2679 C2673 1.390 . S
C2679 C2676 1.386 . S
C2680 C2675 1.490 . S
C2680 C2682 1.395 . S
C2680 C2683 1.403 . S
H2681 C2687 0.930 . S
C2682 H2668 0.930 . S
C2682 C2680 1.395 . S
C2682 C2685 1.403 . S
C2683 C2680 1.403 . S
C2683 C2684 1.524 . S
C2683 C2687 1.400 . S
C2684 H2669 0.960 . S
C2684 H2670 0.960 . S
C2684 H2671 0.960 . S
C2684 C2683 1.524 . S
C2685 C2682 1.403 . S
C2685 C2686 1.392 . S
C2685 C2689 1.495 . S
C2686 C2685 1.392 . S
C2686 C2687 1.385 . S
C2686 C2688 1.478 . S
C2687 H2681 0.930 . S
C2687 C2683 1.400 . S
C2687 C2686 1.385 . S
C2688 C2686 1.478 . S
C2688 C2690 1.381 . S
C2688 C2694 1.383 . S
C2689 C2685 1.495 . S
C2689 H2695 0.959 . S
C2689 H2696 0.961 . S
C2689 H2697 0.960 . S
C2690 C2688 1.381 . S
C2690 C2691 1.394 . S
C2690 H2698 0.930 . S
C2691 C2690 1.394 . S
C2691 C2692 1.383 . S
C2691 H2699 0.929 . S
C2692 C2691 1.383 . S
C2692 C2693 1.377 . S
C2693 H2677 0.930 . S
C2693 C2692 1.377 . S
C2693 C2694 1.379 . S
C2694 H2678 0.931 . S
C2694 C2688 1.383 . S
C2694 C2693 1.379 . S
H2695 C2689 0.959 . S
H2696 C2689 0.961 . S
H2697 C2689 0.960 . S
H2698 C2690 0.930 . S
H2699 C2691 0.929 . S
H2700 C2708 0.929 . S
H2701 C2710 0.930 . S
H2702 C2712 0.930 . S
H2703 C2715 0.929 . S
H2704 C2718 0.930 . S
H2705 C2720 0.960 . S
H2706 C2720 0.960 . S
H2707 C2720 0.960 . S
C2708 H2700 0.929 . S
C2708 C2709 1.377 . S
C2708 C2710 1.384 . S
C2709 C2708 1.377 . S
C2709 C2715 1.390 . S
C2710 H2701 0.930 . S
C2710 C2708 1.384 . S
C2710 C2711 1.372 . S
C2711 C2710 1.372 . S
C2711 C2712 1.400 . S
C2711 C2716 1.490 . S
C2712 H2702 0.930 . S
C2712 C2711 1.400 . S
C2712 C2715 1.386 . S
H2713 C2729 0.930 . S
H2714 C2730 0.931 . S
C2715 H2703 0.929 . S
C2715 C2709 1.390 . S
C2715 C2712 1.386 . S
C2716 C2711 1.490 . S
C2716 C2718 1.395 . S
C2716 C2719 1.403 . S
H2717 C2723 0.930 . S
C2718 H2704 0.930 . S
C2718 C2716 1.395 . S
C2718 C2721 1.403 . S
C2719 C2716 1.403 . S
C2719 C2720 1.524 . S
C2719 C2723 1.400 . S
C2720 H2705 0.960 . S
C2720 H2706 0.960 . S
C2720 H2707 0.960 . S
C2720 C2719 1.524 . S
C2721 C2718 1.403 . S
C2721 C2722 1.392 . S
C2721 C2725 1.495 . S
C2722 C2721 1.392 . S
C2722 C2723 1.385 . S
C2722 C2724 1.478 . S
C2723 H2717 0.930 . S
C2723 C2719 1.400 . S
C2723 C2722 1.385 . S
C2724 C2722 1.478 . S
C2724 C2726 1.381 . S
C2724 C2730 1.383 . S
C2725 C2721 1.495 . S
C2725 H2731 0.959 . S
C2725 H2732 0.961 . S
C2725 H2733 0.960 . S
C2726 C2724 1.381 . S
C2726 C2727 1.394 . S
C2726 H2734 0.930 . S
C2727 C2726 1.394 . S
C2727 C2728 1.383 . S
C2727 H2735 0.929 . S
C2728 C2727 1.383 . S
C2728 C2729 1.377 . S
C2729 H2713 0.930 . S
C2729 C2728 1.377 . S
C2729 C2730 1.379 . S
C2730 H2714 0.931 . S
C2730 C2724 1.383 . S
C2730 C2729 1.379 . S
H2731 C2725 0.959 . S
H2732 C2725 0.961 . S
H2733 C2725 0.960 . S
H2734 C2726 0.930 . S
H2735 C2727 0.929 . S
H2736 C2744 0.929 . S
H2737 C2746 0.930 . S
H2738 C2748 0.930 . S
H2739 C2751 0.929 . S
H2740 C2754 0.930 . S
H2741 C2756 0.960 . S
H2742 C2756 0.960 . S
H2743 C2756 0.960 . S
C2744 H2736 0.929 . S
C2744 C2745 1.377 . S
C2744 C2746 1.384 . S
C2745 C2744 1.377 . S
C2745 C2751 1.390 . S
C2746 H2737 0.930 . S
C2746 C2744 1.384 . S
C2746 C2747 1.372 . S
C2747 C2746 1.372 . S
C2747 C2748 1.400 . S
C2747 C2752 1.490 . S
C2748 H2738 0.930 . S
C2748 C2747 1.400 . S
C2748 C2751 1.386 . S
H2749 C2765 0.930 . S
H2750 C2766 0.931 . S
C2751 H2739 0.929 . S
C2751 C2745 1.390 . S
C2751 C2748 1.386 . S
C2752 C2747 1.490 . S
C2752 C2754 1.395 . S
C2752 C2755 1.403 . S
H2753 C2759 0.930 . S
C2754 H2740 0.930 . S
C2754 C2752 1.395 . S
C2754 C2757 1.403 . S
C2755 C2752 1.403 . S
C2755 C2756 1.524 . S
C2755 C2759 1.400 . S
C2756 H2741 0.960 . S
C2756 H2742 0.960 . S
C2756 H2743 0.960 . S
C2756 C2755 1.524 . S
C2757 C2754 1.403 . S
C2757 C2758 1.392 . S
C2757 C2761 1.495 . S
C2758 C2757 1.392 . S
C2758 C2759 1.385 . S
C2758 C2760 1.478 . S
C2759 H2753 0.930 . S
C2759 C2755 1.400 . S
C2759 C2758 1.385 . S
C2760 C2758 1.478 . S
C2760 C2762 1.381 . S
C2760 C2766 1.383 . S
C2761 C2757 1.495 . S
C2761 H2767 0.959 . S
C2761 H2768 0.961 . S
C2761 H2769 0.960 . S
C2762 C2760 1.381 . S
C2762 C2763 1.394 . S
C2762 H2770 0.930 . S
C2763 C2762 1.394 . S
C2763 C2764 1.383 . S
C2763 H2771 0.929 . S
C2764 C2763 1.383 . S
C2764 C2765 1.377 . S
C2765 H2749 0.930 . S
C2765 C2764 1.377 . S
C2765 C2766 1.379 . S
C2766 H2750 0.931 . S
C2766 C2760 1.383 . S
C2766 C2765 1.379 . S
H2767 C2761 0.959 . S
H2768 C2761 0.961 . S
H2769 C2761 0.960 . S
H2770 C2762 0.930 . S
H2771 C2763 0.929 . S
H2772 C2780 0.929 . S
H2773 C2782 0.930 . S
H2774 C2784 0.930 . S
H2775 C2787 0.929 . S
H2776 C2790 0.930 . S
H2777 C2792 0.960 . S
H2778 C2792 0.960 . S
H2779 C2792 0.960 . S
C2780 H2772 0.929 . S
C2780 C2781 1.377 . S
C2780 C2782 1.384 . S
C2781 C2780 1.377 . S
C2781 C2787 1.390 . S
C2782 H2773 0.930 . S
C2782 C2780 1.384 . S
C2782 C2783 1.372 . S
C2783 C2782 1.372 . S
C2783 C2784 1.400 . S
C2783 C2788 1.490 . S
C2784 H2774 0.930 . S
C2784 C2783 1.400 . S
C2784 C2787 1.386 . S
H2785 C2801 0.930 . S
H2786 C2802 0.931 . S
C2787 H2775 0.929 . S
C2787 C2781 1.390 . S
C2787 C2784 1.386 . S
C2788 C2783 1.490 . S
C2788 C2790 1.395 . S
C2788 C2791 1.403 . S
H2789 C2795 0.930 . S
C2790 H2776 0.930 . S
C2790 C2788 1.395 . S
C2790 C2793 1.403 . S
C2791 C2788 1.403 . S
C2791 C2792 1.524 . S
C2791 C2795 1.400 . S
C2792 H2777 0.960 . S
C2792 H2778 0.960 . S
C2792 H2779 0.960 . S
C2792 C2791 1.524 . S
C2793 C2790 1.403 . S
C2793 C2794 1.392 . S
C2793 C2797 1.495 . S
C2794 C2793 1.392 . S
C2794 C2795 1.385 . S
C2794 C2796 1.478 . S
C2795 H2789 0.930 . S
C2795 C2791 1.400 . S
C2795 C2794 1.385 . S
C2796 C2794 1.478 . S
C2796 C2798 1.381 . S
C2796 C2802 1.383 . S
C2797 C2793 1.495 . S
C2797 H2803 0.959 . S
C2797 H2804 0.961 . S
C2797 H2805 0.960 . S
C2798 C2796 1.381 . S
C2798 C2799 1.394 . S
C2798 H2806 0.930 . S
C2799 C2798 1.394 . S
C2799 C2800 1.383 . S
C2799 H2807 0.929 . S
C2800 C2799 1.383 . S
C2800 C2801 1.377 . S
C2801 H2785 0.930 . S
C2801 C2800 1.377 . S
C2801 C2802 1.379 . S
C2802 H2786 0.931 . S
C2802 C2796 1.383 . S
C2802 C2801 1.379 . S
H2803 C2797 0.959 . S
H2804 C2797 0.961 . S
H2805 C2797 0.960 . S
H2806 C2798 0.930 . S
H2807 C2799 0.929 . S
H2808 C2816 0.929 . S
H2809 C2818 0.930 . S
H2810 C2820 0.930 . S
H2811 C2823 0.929 . S
H2812 C2826 0.930 . S
H2813 C2828 0.960 . S
H2814 C2828 0.960 . S
H2815 C2828 0.960 . S
C2816 H2808 0.929 . S
C2816 C2817 1.377 . S
C2816 C2818 1.384 . S
C2817 C2816 1.377 . S
C2817 C2823 1.390 . S
C2818 H2809 0.930 . S
C2818 C2816 1.384 . S
C2818 C2819 1.372 . S
C2819 C2818 1.372 . S
C2819 C2820 1.400 . S
C2819 C2824 1.490 . S
C2820 H2810 0.930 . S
C2820 C2819 1.400 . S
C2820 C2823 1.386 . S
H2821 C2837 0.930 . S
H2822 C2838 0.931 . S
C2823 H2811 0.929 . S
C2823 C2817 1.390 . S
C2823 C2820 1.386 . S
C2824 C2819 1.490 . S
C2824 C2826 1.395 . S
C2824 C2827 1.403 . S
H2825 C2831 0.930 . S
C2826 H2812 0.930 . S
C2826 C2824 1.395 . S
C2826 C2829 1.403 . S
C2827 C2824 1.403 . S
C2827 C2828 1.524 . S
C2827 C2831 1.400 . S
C2828 H2813 0.960 . S
C2828 H2814 0.960 . S
C2828 H2815 0.960 . S
C2828 C2827 1.524 . S
C2829 C2826 1.403 . S
C2829 C2830 1.392 . S
C2829 C2833 1.495 . S
C2830 C2829 1.392 . S
C2830 C2831 1.385 . S
C2830 C2832 1.478 . S
C2831 H2825 0.930 . S
C2831 C2827 1.400 . S
C2831 C2830 1.385 . S
C2832 C2830 1.478 . S
C2832 C2834 1.381 . S
C2832 C2838 1.383 . S
C2833 C2829 1.495 . S
C2833 H2839 0.959 . S
C2833 H2840 0.961 . S
C2833 H2841 0.960 . S
C2834 C2832 1.381 . S
C2834 C2835 1.394 . S
C2834 H2842 0.930 . S
C2835 C2834 1.394 . S
C2835 C2836 1.383 . S
C2835 H2843 0.929 . S
C2836 C2835 1.383 . S
C2836 C2837 1.377 . S
C2837 H2821 0.930 . S
C2837 C2836 1.377 . S
C2837 C2838 1.379 . S
C2838 H2822 0.931 . S
C2838 C2832 1.383 . S
C2838 C2837 1.379 . S
H2839 C2833 0.959 . S
H2840 C2833 0.961 . S
H2841 C2833 0.960 . S
H2842 C2834 0.930 . S
H2843 C2835 0.929 . S
H2844 C2852 0.929 . S
H2845 C2854 0.930 . S
H2846 C2856 0.930 . S
H2847 C2859 0.929 . S
H2848 C2862 0.930 . S
H2849 C2864 0.960 . S
H2850 C2864 0.960 . S
H2851 C2864 0.960 . S
C2852 H2844 0.929 . S
C2852 C2853 1.377 . S
C2852 C2854 1.384 . S
C2853 C2852 1.377 . S
C2853 C2859 1.390 . S
C2854 H2845 0.930 . S
C2854 C2852 1.384 . S
C2854 C2855 1.372 . S
C2855 C2854 1.372 . S
C2855 C2856 1.400 . S
C2855 C2860 1.490 . S
C2856 H2846 0.930 . S
C2856 C2855 1.400 . S
C2856 C2859 1.386 . S
H2857 C2873 0.930 . S
H2858 C2874 0.931 . S
C2859 H2847 0.929 . S
C2859 C2853 1.390 . S
C2859 C2856 1.386 . S
C2860 C2855 1.490 . S
C2860 C2862 1.395 . S
C2860 C2863 1.403 . S
H2861 C2867 0.930 . S
C2862 H2848 0.930 . S
C2862 C2860 1.395 . S
C2862 C2865 1.403 . S
C2863 C2860 1.403 . S
C2863 C2864 1.524 . S
C2863 C2867 1.400 . S
C2864 H2849 0.960 . S
C2864 H2850 0.960 . S
C2864 H2851 0.960 . S
C2864 C2863 1.524 . S
C2865 C2862 1.403 . S
C2865 C2866 1.392 . S
C2865 C2869 1.495 . S
C2866 C2865 1.392 . S
C2866 C2867 1.385 . S
C2866 C2868 1.478 . S
C2867 H2861 0.930 . S
C2867 C2863 1.400 . S
C2867 C2866 1.385 . S
C2868 C2866 1.478 . S
C2868 C2870 1.381 . S
C2868 C2874 1.383 . S
C2869 C2865 1.495 . S
C2869 H2875 0.959 1_556 S
C2869 H2876 0.961 1_556 S
C2869 H2877 0.960 . S
C2870 C2868 1.381 . S
C2870 C2871 1.394 . S
C2870 H2878 0.930 . S
C2871 C2870 1.394 . S
C2871 C2872 1.383 . S
C2871 H2879 0.929 . S
C2872 C2871 1.383 . S
C2872 C2873 1.377 . S
C2873 H2857 0.930 . S
C2873 C2872 1.377 . S
C2873 C2874 1.379 . S
C2874 H2858 0.931 . S
C2874 C2868 1.383 . S
C2874 C2873 1.379 . S
H2875 C2869 0.959 1_554 S
H2876 C2869 0.961 1_554 S
H2877 C2869 0.960 . S
H2878 C2870 0.930 . S
H2879 C2871 0.929 . S
H2880 C2888 0.929 . S
H2881 C2890 0.930 . S
H2882 C2892 0.930 . S
H2883 C2895 0.929 . S
H2884 C2898 0.930 . S
H2885 C2900 0.960 . S
H2886 C2900 0.960 . S
H2887 C2900 0.960 . S
C2888 H2880 0.929 . S
C2888 C2889 1.377 . S
C2888 C2890 1.384 . S
C2889 C2888 1.377 . S
C2889 C2895 1.390 . S
C2890 H2881 0.930 . S
C2890 C2888 1.384 . S
C2890 C2891 1.372 . S
C2891 C2890 1.372 . S
C2891 C2892 1.400 . S
C2891 C2896 1.490 . S
C2892 H2882 0.930 . S
C2892 C2891 1.400 . S
C2892 C2895 1.386 . S
H2893 C2909 0.930 . S
H2894 C2910 0.931 . S
C2895 H2883 0.929 . S
C2895 C2889 1.390 . S
C2895 C2892 1.386 . S
C2896 C2891 1.490 . S
C2896 C2898 1.395 . S
C2896 C2899 1.403 . S
H2897 C2903 0.930 . S
C2898 H2884 0.930 . S
C2898 C2896 1.395 . S
C2898 C2901 1.403 . S
C2899 C2896 1.403 . S
C2899 C2900 1.524 . S
C2899 C2903 1.400 . S
C2900 H2885 0.960 . S
C2900 H2886 0.960 . S
C2900 H2887 0.960 . S
C2900 C2899 1.524 . S
C2901 C2898 1.403 . S
C2901 C2902 1.392 . S
C2901 C2905 1.495 . S
C2902 C2901 1.392 . S
C2902 C2903 1.385 . S
C2902 C2904 1.478 . S
C2903 H2897 0.930 . S
C2903 C2899 1.400 . S
C2903 C2902 1.385 . S
C2904 C2902 1.478 . S
C2904 C2906 1.381 . S
C2904 C2910 1.383 . S
C2905 C2901 1.495 . S
C2905 H2911 0.959 . S
C2905 H2912 0.961 . S
C2905 H2913 0.960 . S
C2906 C2904 1.381 . S
C2906 C2907 1.394 . S
C2906 H2914 0.930 . S
C2907 C2906 1.394 . S
C2907 C2908 1.383 . S
C2907 H2915 0.929 . S
C2908 C2907 1.383 . S
C2908 C2909 1.377 . S
C2909 H2893 0.930 . S
C2909 C2908 1.377 . S
C2909 C2910 1.379 . S
C2910 H2894 0.931 . S
C2910 C2904 1.383 . S
C2910 C2909 1.379 . S
H2911 C2905 0.959 . S
H2912 C2905 0.961 . S
H2913 C2905 0.960 . S
H2914 C2906 0.930 . S
H2915 C2907 0.929 . S
H2916 C2924 0.929 . S
H2917 C2926 0.930 . S
H2918 C2928 0.930 . S
H2919 C2931 0.929 . S
H2920 C2934 0.930 . S
H2921 C2936 0.960 . S
H2922 C2936 0.960 . S
H2923 C2936 0.960 . S
C2924 H2916 0.929 . S
C2924 C2925 1.377 . S
C2924 C2926 1.384 . S
C2925 C2924 1.377 . S
C2925 C2931 1.390 . S
C2926 H2917 0.930 . S
C2926 C2924 1.384 . S
C2926 C2927 1.372 . S
C2927 C2926 1.372 . S
C2927 C2928 1.400 . S
C2927 C2932 1.490 . S
C2928 H2918 0.930 . S
C2928 C2927 1.400 . S
C2928 C2931 1.386 . S
H2929 C2945 0.930 . S
H2930 C2946 0.931 . S
C2931 H2919 0.929 . S
C2931 C2925 1.390 . S
C2931 C2928 1.386 . S
C2932 C2927 1.490 . S
C2932 C2934 1.395 . S
C2932 C2935 1.403 . S
H2933 C2939 0.930 . S
C2934 H2920 0.930 . S
C2934 C2932 1.395 . S
C2934 C2937 1.403 . S
C2935 C2932 1.403 . S
C2935 C2936 1.524 . S
C2935 C2939 1.400 . S
C2936 H2921 0.960 . S
C2936 H2922 0.960 . S
C2936 H2923 0.960 . S
C2936 C2935 1.524 . S
C2937 C2934 1.403 . S
C2937 C2938 1.392 . S
C2937 C2941 1.489 1_556 S
C2938 C2937 1.392 . S
C2938 C2939 1.385 . S
C2938 C2940 1.478 . S
C2939 H2933 0.930 . S
C2939 C2935 1.400 . S
C2939 C2938 1.385 . S
C2940 C2938 1.478 . S
C2940 C2942 1.381 . S
C2940 C2946 1.383 . S
C2941 C2937 1.489 1_554 S
C2941 H2947 0.964 . S
C2941 H2948 0.962 . S
C2941 H2949 0.960 . S
C2942 C2940 1.381 . S
C2942 C2943 1.394 . S
C2942 H2950 0.930 . S
C2943 C2942 1.394 . S
C2943 C2944 1.383 . S
C2943 H2951 0.929 . S
C2944 C2943 1.383 . S
C2944 C2945 1.377 . S
C2945 H2929 0.930 . S
C2945 C2944 1.377 . S
C2945 C2946 1.379 . S
C2946 H2930 0.931 . S
C2946 C2940 1.383 . S
C2946 C2945 1.379 . S
H2947 C2941 0.964 . S
H2948 C2941 0.962 . S
H2949 C2941 0.960 . S
H2950 C2942 0.930 . S
H2951 C2943 0.929 . S
H2952 C2960 0.929 . S
H2953 C2962 0.930 . S
H2954 C2964 0.930 . S
H2955 C2967 0.929 . S
H2956 C2970 0.930 . S
H2957 C2972 0.960 . S
H2958 C2972 0.960 . S
H2959 C2972 0.960 . S
C2960 H2952 0.929 . S
C2960 C2961 1.377 . S
C2960 C2962 1.384 . S
C2961 C2960 1.377 . S
C2961 C2967 1.390 . S
C2962 H2953 0.930 . S
C2962 C2960 1.384 . S
C2962 C2963 1.372 . S
C2963 C2962 1.372 . S
C2963 C2964 1.400 . S
C2963 C2968 1.490 . S
C2964 H2954 0.930 . S
C2964 C2963 1.400 . S
C2964 C2967 1.386 . S
H2965 C2981 0.930 . S
H2966 C2982 0.931 . S
C2967 H2955 0.929 . S
C2967 C2961 1.390 . S
C2967 C2964 1.386 . S
C2968 C2963 1.490 . S
C2968 C2970 1.395 . S
C2968 C2971 1.403 . S
H2969 C2975 0.930 . S
C2970 H2956 0.930 . S
C2970 C2968 1.395 . S
C2970 C2973 1.403 . S
C2971 C2968 1.403 . S
C2971 C2972 1.524 . S
C2971 C2975 1.400 . S
C2972 H2957 0.960 . S
C2972 H2958 0.960 . S
C2972 H2959 0.960 . S
C2972 C2971 1.524 . S
C2973 C2970 1.403 . S
C2973 C2974 1.392 . S
C2973 C2977 1.495 . S
C2974 C2973 1.392 . S
C2974 C2975 1.385 . S
C2974 C2976 1.478 . S
C2975 H2969 0.930 . S
C2975 C2971 1.400 . S
C2975 C2974 1.385 . S
C2976 C2974 1.478 . S
C2976 C2978 1.381 . S
C2976 C2982 1.383 . S
C2977 C2973 1.495 . S
C2977 H2983 0.959 . S
C2977 H2984 0.961 . S
C2977 H2985 0.960 . S
C2978 C2976 1.381 . S
C2978 C2979 1.394 . S
C2978 H2986 0.930 . S
C2979 C2978 1.394 . S
C2979 C2980 1.383 . S
C2979 H2987 0.929 . S
C2980 C2979 1.383 . S
C2980 C2981 1.377 . S
C2981 H2965 0.930 . S
C2981 C2980 1.377 . S
C2981 C2982 1.379 . S
C2982 H2966 0.931 . S
C2982 C2976 1.383 . S
C2982 C2981 1.379 . S
H2983 C2977 0.959 . S
H2984 C2977 0.961 . S
H2985 C2977 0.960 . S
H2986 C2978 0.930 . S
H2987 C2979 0.929 . S
H2988 C2996 0.929 . S
H2989 C2998 0.930 . S
H2990 C3000 0.930 . S
H2991 C3003 0.929 . S
H2992 C3006 0.930 . S
H2993 C3008 0.960 . S
H2994 C3008 0.960 . S
H2995 C3008 0.960 . S
C2996 H2988 0.929 . S
C2996 C2997 1.377 . S
C2996 C2998 1.384 . S
C2997 C2996 1.377 . S
C2997 C3003 1.390 . S
C2998 H2989 0.930 . S
C2998 C2996 1.384 . S
C2998 C2999 1.372 . S
C2999 C2998 1.372 . S
C2999 C3000 1.400 . S
C2999 C3004 1.490 . S
C3000 H2990 0.930 . S
C3000 C2999 1.400 . S
C3000 C3003 1.386 . S
H3001 C3017 0.930 . S
H3002 C3018 0.931 . S
C3003 H2991 0.929 . S
C3003 C2997 1.390 . S
C3003 C3000 1.386 . S
C3004 C2999 1.490 . S
C3004 C3006 1.395 . S
C3004 C3007 1.403 . S
H3005 C3011 0.930 . S
C3006 H2992 0.930 . S
C3006 C3004 1.395 . S
C3006 C3009 1.403 . S
C3007 C3004 1.403 . S
C3007 C3008 1.524 . S
C3007 C3011 1.400 . S
C3008 H2993 0.960 . S
C3008 H2994 0.960 . S
C3008 H2995 0.960 . S
C3008 C3007 1.524 . S
C3009 C3006 1.403 . S
C3009 C3010 1.392 . S
C3009 C3013 1.495 . S
C3010 C3009 1.392 . S
C3010 C3011 1.385 . S
C3010 C3012 1.478 . S
C3011 H3005 0.930 . S
C3011 C3007 1.400 . S
C3011 C3010 1.385 . S
C3012 C3010 1.478 . S
C3012 C3014 1.381 . S
C3012 C3018 1.383 . S
C3013 C3009 1.495 . S
C3013 H3019 0.959 . S
C3013 H3020 0.961 . S
C3013 H3021 0.960 . S
C3014 C3012 1.381 . S
C3014 C3015 1.394 . S
C3014 H3022 0.930 . S
C3015 C3014 1.394 . S
C3015 C3016 1.383 . S
C3015 H3023 0.929 . S
C3016 C3015 1.383 . S
C3016 C3017 1.377 . S
C3017 H3001 0.930 . S
C3017 C3016 1.377 . S
C3017 C3018 1.379 . S
C3018 H3002 0.931 . S
C3018 C3012 1.383 . S
C3018 C3017 1.379 . S
H3019 C3013 0.959 . S
H3020 C3013 0.961 . S
H3021 C3013 0.960 . S
H3022 C3014 0.930 . S
H3023 C3015 0.929 . S
H3024 C3032 0.929 . S
H3025 C3034 0.930 . S
H3026 C3036 0.930 . S
H3027 C3039 0.929 . S
H3028 C3042 0.930 . S
H3029 C3044 0.960 . S
H3030 C3044 0.960 . S
H3031 C3044 0.960 . S
C3032 H3024 0.929 . S
C3032 C3033 1.377 . S
C3032 C3034 1.384 . S
C3033 C3032 1.377 . S
C3033 C3039 1.390 . S
C3034 H3025 0.930 . S
C3034 C3032 1.384 . S
C3034 C3035 1.372 . S
C3035 C3034 1.372 . S
C3035 C3036 1.400 . S
C3035 C3040 1.490 . S
C3036 H3026 0.930 . S
C3036 C3035 1.400 . S
C3036 C3039 1.386 . S
H3037 C3053 0.930 . S
H3038 C3054 0.931 . S
C3039 H3027 0.929 . S
C3039 C3033 1.390 . S
C3039 C3036 1.386 . S
C3040 C3035 1.490 . S
C3040 C3042 1.395 . S
C3040 C3043 1.403 . S
H3041 C3047 0.930 . S
C3042 H3028 0.930 . S
C3042 C3040 1.395 . S
C3042 C3045 1.403 . S
C3043 C3040 1.403 . S
C3043 C3044 1.524 . S
C3043 C3047 1.400 . S
C3044 H3029 0.960 . S
C3044 H3030 0.960 . S
C3044 H3031 0.960 . S
C3044 C3043 1.524 . S
C3045 C3042 1.403 . S
C3045 C3046 1.392 . S
C3045 C3049 1.495 . S
C3046 C3045 1.392 . S
C3046 C3047 1.385 . S
C3046 C3048 1.478 . S
C3047 H3041 0.930 . S
C3047 C3043 1.400 . S
C3047 C3046 1.385 . S
C3048 C3046 1.478 . S
C3048 C3050 1.381 . S
C3048 C3054 1.383 . S
C3049 C3045 1.495 . S
C3049 H3055 0.959 . S
C3049 H3056 0.961 . S
C3049 H3057 0.960 . S
C3050 C3048 1.381 . S
C3050 C3051 1.394 . S
C3050 H3058 0.930 . S
C3051 C3050 1.394 . S
C3051 C3052 1.383 . S
C3051 H3059 0.929 . S
C3052 C3051 1.383 . S
C3052 C3053 1.377 . S
C3053 H3037 0.930 . S
C3053 C3052 1.377 . S
C3053 C3054 1.379 . S
C3054 H3038 0.931 . S
C3054 C3048 1.383 . S
C3054 C3053 1.379 . S
H3055 C3049 0.959 . S
H3056 C3049 0.961 . S
H3057 C3049 0.960 . S
H3058 C3050 0.930 . S
H3059 C3051 0.929 . S
H3060 C3068 0.929 . S
H3061 C3070 0.930 . S
H3062 C3072 0.930 . S
H3063 C3075 0.929 . S
H3064 C3078 0.930 . S
H3065 C3080 0.960 . S
H3066 C3080 0.960 . S
H3067 C3080 0.960 . S
C3068 H3060 0.929 . S
C3068 C3069 1.377 . S
C3068 C3070 1.384 . S
C3069 C3068 1.377 . S
C3069 C3075 1.390 . S
C3070 H3061 0.930 . S
C3070 C3068 1.384 . S
C3070 C3071 1.372 . S
C3071 C3070 1.372 . S
C3071 C3072 1.400 . S
C3071 C3076 1.490 . S
C3072 H3062 0.930 . S
C3072 C3071 1.400 . S
C3072 C3075 1.386 . S
H3073 C3089 0.930 . S
H3074 C3090 0.931 . S
C3075 H3063 0.929 . S
C3075 C3069 1.390 . S
C3075 C3072 1.386 . S
C3076 C3071 1.490 . S
C3076 C3078 1.395 . S
C3076 C3079 1.403 . S
H3077 C3083 0.930 . S
C3078 H3064 0.930 . S
C3078 C3076 1.395 . S
C3078 C3081 1.403 . S
C3079 C3076 1.403 . S
C3079 C3080 1.524 . S
C3079 C3083 1.400 . S
C3080 H3065 0.960 . S
C3080 H3066 0.960 . S
C3080 H3067 0.960 . S
C3080 C3079 1.524 . S
C3081 C3078 1.403 . S
C3081 C3082 1.392 . S
C3081 C3085 1.495 . S
C3082 C3081 1.392 . S
C3082 C3083 1.385 . S
C3082 C3084 1.478 . S
C3083 H3077 0.930 . S
C3083 C3079 1.400 . S
C3083 C3082 1.385 . S
C3084 C3082 1.478 . S
C3084 C3086 1.381 . S
C3084 C3090 1.383 . S
C3085 C3081 1.495 . S
C3085 H3091 0.959 . S
C3085 H3092 0.961 . S
C3085 H3093 0.960 . S
C3086 C3084 1.381 . S
C3086 C3087 1.394 . S
C3086 H3094 0.930 . S
C3087 C3086 1.394 . S
C3087 C3088 1.383 . S
C3087 H3095 0.929 . S
C3088 C3087 1.383 . S
C3088 C3089 1.377 . S
C3089 H3073 0.930 . S
C3089 C3088 1.377 . S
C3089 C3090 1.379 . S
C3090 H3074 0.931 . S
C3090 C3084 1.383 . S
C3090 C3089 1.379 . S
H3091 C3085 0.959 . S
H3092 C3085 0.961 . S
H3093 C3085 0.960 . S
H3094 C3086 0.930 . S
H3095 C3087 0.929 . S
H3096 C3104 0.929 . S
H3097 C3106 0.930 . S
H3098 C3108 0.930 . S
H3099 C3111 0.929 . S
H3100 C3114 0.930 . S
H3101 C3116 0.960 1_556 S
H3102 C3116 0.957 1_556 S
H3103 C3116 0.960 . S
C3104 H3096 0.929 . S
C3104 C3105 1.377 . S
C3104 C3106 1.384 . S
C3105 C3104 1.377 . S
C3105 C3111 1.390 . S
C3106 H3097 0.930 . S
C3106 C3104 1.384 . S
C3106 C3107 1.372 . S
C3107 C3106 1.372 . S
C3107 C3108 1.400 . S
C3107 C3112 1.490 . S
C3108 H3098 0.930 . S
C3108 C3107 1.400 . S
C3108 C3111 1.386 . S
H3109 C3125 0.930 . S
H3110 C3126 0.931 . S
C3111 H3099 0.929 . S
C3111 C3105 1.390 . S
C3111 C3108 1.386 . S
C3112 C3107 1.490 . S
C3112 C3114 1.395 . S
C3112 C3115 1.403 . S
H3113 C3119 0.930 . S
C3114 H3100 0.930 . S
C3114 C3112 1.395 . S
C3114 C3117 1.403 . S
C3115 C3112 1.403 . S
C3115 C3116 1.524 . S
C3115 C3119 1.400 . S
C3116 H3101 0.960 1_554 S
C3116 H3102 0.957 1_554 S
C3116 H3103 0.960 . S
C3116 C3115 1.524 . S
C3117 C3114 1.403 . S
C3117 C3118 1.392 . S
C3117 C3121 1.495 . S
C3118 C3117 1.392 . S
C3118 C3119 1.385 . S
C3118 C3120 1.478 . S
C3119 H3113 0.930 . S
C3119 C3115 1.400 . S
C3119 C3118 1.385 . S
C3120 C3118 1.478 . S
C3120 C3122 1.381 . S
C3120 C3126 1.383 . S
C3121 C3117 1.495 . S
C3121 H3127 0.959 . S
C3121 H3128 0.961 . S
C3121 H3129 0.960 . S
C3122 C3120 1.381 . S
C3122 C3123 1.394 . S
C3122 H3130 0.930 . S
C3123 C3122 1.394 . S
C3123 C3124 1.383 . S
C3123 H3131 0.929 . S
C3124 C3123 1.383 . S
C3124 C3125 1.377 . S
C3125 H3109 0.930 . S
C3125 C3124 1.377 . S
C3125 C3126 1.379 . S
C3126 H3110 0.931 . S
C3126 C3120 1.383 . S
C3126 C3125 1.379 . S
H3127 C3121 0.959 . S
H3128 C3121 0.961 . S
H3129 C3121 0.960 . S
H3130 C3122 0.930 . S
H3131 C3123 0.929 . S
H3132 C3140 0.929 . S
H3133 C3142 0.930 . S
H3134 C3144 0.930 . S
H3135 C3147 0.929 . S
H3136 C3150 0.930 . S
H3137 C3152 0.960 . S
H3138 C3152 0.960 . S
H3139 C3152 0.960 . S
C3140 H3132 0.929 . S
C3140 C3141 1.377 . S
C3140 C3142 1.384 . S
C3141 C3140 1.377 . S
C3141 C3147 1.390 . S
C3142 H3133 0.930 . S
C3142 C3140 1.384 . S
C3142 C3143 1.372 . S
C3143 C3142 1.372 . S
C3143 C3144 1.400 . S
C3143 C3148 1.490 . S
C3144 H3134 0.930 . S
C3144 C3143 1.400 . S
C3144 C3147 1.386 . S
H3145 C3161 0.930 . S
H3146 C3162 0.931 . S
C3147 H3135 0.929 . S
C3147 C3141 1.390 . S
C3147 C3144 1.386 . S
C3148 C3143 1.490 . S
C3148 C3150 1.395 . S
C3148 C3151 1.403 . S
H3149 C3155 0.930 . S
C3150 H3136 0.930 . S
C3150 C3148 1.395 . S
C3150 C3153 1.403 . S
C3151 C3148 1.403 . S
C3151 C3152 1.524 . S
C3151 C3155 1.400 . S
C3152 H3137 0.960 . S
C3152 H3138 0.960 . S
C3152 H3139 0.960 . S
C3152 C3151 1.524 . S
C3153 C3150 1.403 . S
C3153 C3154 1.392 . S
C3153 C3157 1.495 . S
C3154 C3153 1.392 . S
C3154 C3155 1.385 . S
C3154 C3156 1.478 . S
C3155 H3149 0.930 . S
C3155 C3151 1.400 . S
C3155 C3154 1.385 . S
C3156 C3154 1.478 . S
C3156 C3158 1.381 . S
C3156 C3162 1.383 . S
C3157 C3153 1.495 . S
C3157 H3163 0.959 . S
C3157 H3164 0.961 . S
C3157 H3165 0.960 . S
C3158 C3156 1.381 . S
C3158 C3159 1.394 . S
C3158 H3166 0.930 . S
C3159 C3158 1.394 . S
C3159 C3160 1.383 . S
C3159 H3167 0.929 . S
C3160 C3159 1.383 . S
C3160 C3161 1.377 . S
C3161 H3145 0.930 . S
C3161 C3160 1.377 . S
C3161 C3162 1.379 . S
C3162 H3146 0.931 . S
C3162 C3156 1.383 . S
C3162 C3161 1.379 . S
H3163 C3157 0.959 . S
H3164 C3157 0.961 . S
H3165 C3157 0.960 . S
H3166 C3158 0.930 . S
H3167 C3159 0.929 . S
H3168 C3176 0.929 . S
H3169 C3178 0.930 . S
H3170 C3180 0.930 . S
H3171 C3183 0.929 . S
H3172 C3186 0.930 . S
H3173 C3188 0.960 . S
H3174 C3188 0.960 . S
H3175 C3188 0.960 . S
C3176 H3168 0.929 . S
C3176 C3177 1.377 . S
C3176 C3178 1.384 . S
C3177 C3176 1.377 . S
C3177 C3183 1.390 . S
C3178 H3169 0.930 . S
C3178 C3176 1.384 . S
C3178 C3179 1.372 . S
C3179 C3178 1.372 . S
C3179 C3180 1.400 . S
C3179 C3184 1.490 . S
C3180 H3170 0.930 . S
C3180 C3179 1.400 . S
C3180 C3183 1.386 . S
H3181 C3197 0.930 . S
H3182 C3198 0.931 . S
C3183 H3171 0.929 . S
C3183 C3177 1.390 . S
C3183 C3180 1.386 . S
C3184 C3179 1.490 . S
C3184 C3186 1.395 . S
C3184 C3187 1.403 . S
H3185 C3191 0.930 . S
C3186 H3172 0.930 . S
C3186 C3184 1.395 . S
C3186 C3189 1.403 . S
C3187 C3184 1.403 . S
C3187 C3188 1.524 . S
C3187 C3191 1.400 . S
C3188 H3173 0.960 . S
C3188 H3174 0.960 . S
C3188 H3175 0.960 . S
C3188 C3187 1.524 . S
C3189 C3186 1.403 . S
C3189 C3190 1.392 . S
C3189 C3193 1.495 . S
C3190 C3189 1.392 . S
C3190 C3191 1.385 . S
C3190 C3192 1.478 . S
C3191 H3185 0.930 . S
C3191 C3187 1.400 . S
C3191 C3190 1.385 . S
C3192 C3190 1.478 . S
C3192 C3194 1.381 . S
C3192 C3198 1.383 . S
C3193 C3189 1.495 . S
C3193 H3199 0.959 . S
C3193 H3200 0.961 . S
C3193 H3201 0.960 . S
C3194 C3192 1.381 . S
C3194 C3195 1.394 . S
C3194 H3202 0.930 . S
C3195 C3194 1.394 . S
C3195 C3196 1.383 . S
C3195 H3203 0.929 . S
C3196 C3195 1.383 . S
C3196 C3197 1.377 . S
C3197 H3181 0.930 . S
C3197 C3196 1.377 . S
C3197 C3198 1.379 . S
C3198 H3182 0.931 . S
C3198 C3192 1.383 . S
C3198 C3197 1.379 . S
H3199 C3193 0.959 . S
H3200 C3193 0.961 . S
H3201 C3193 0.960 . S
H3202 C3194 0.930 . S
H3203 C3195 0.929 . S
H3204 C3212 0.929 . S
H3205 C3214 0.930 . S
H3206 C3216 0.930 . S
H3207 C3219 0.929 . S
H3208 C3222 0.930 . S
H3209 C3224 0.960 . S
H3210 C3224 0.960 . S
H3211 C3224 0.960 . S
C3212 H3204 0.929 . S
C3212 C3213 1.377 . S
C3212 C3214 1.384 . S
C3213 C3212 1.377 . S
C3213 C3219 1.390 . S
C3214 H3205 0.930 . S
C3214 C3212 1.384 . S
C3214 C3215 1.372 . S
C3215 C3214 1.372 . S
C3215 C3216 1.400 . S
C3215 C3220 1.490 . S
C3216 H3206 0.930 . S
C3216 C3215 1.400 . S
C3216 C3219 1.386 . S
H3217 C3233 0.930 . S
H3218 C3234 0.931 . S
C3219 H3207 0.929 . S
C3219 C3213 1.390 . S
C3219 C3216 1.386 . S
C3220 C3215 1.490 . S
C3220 C3222 1.395 . S
C3220 C3223 1.403 . S
H3221 C3227 0.930 . S
C3222 H3208 0.930 . S
C3222 C3220 1.395 . S
C3222 C3225 1.403 . S
C3223 C3220 1.403 . S
C3223 C3224 1.524 . S
C3223 C3227 1.400 . S
C3224 H3209 0.960 . S
C3224 H3210 0.960 . S
C3224 H3211 0.960 . S
C3224 C3223 1.524 . S
C3225 C3222 1.403 . S
C3225 C3226 1.392 . S
C3225 C3229 1.495 . S
C3226 C3225 1.392 . S
C3226 C3227 1.385 . S
C3226 C3228 1.478 . S
C3227 H3221 0.930 . S
C3227 C3223 1.400 . S
C3227 C3226 1.385 . S
C3228 C3226 1.478 . S
C3228 C3230 1.381 . S
C3228 C3234 1.383 . S
C3229 C3225 1.495 . S
C3229 H3235 0.959 . S
C3229 H3236 0.961 . S
C3229 H3237 0.960 . S
C3230 C3228 1.381 . S
C3230 C3231 1.394 . S
C3230 H3238 0.930 . S
C3231 C3230 1.394 . S
C3231 C3232 1.383 . S
C3231 H3239 0.929 . S
C3232 C3231 1.383 . S
C3232 C3233 1.377 . S
C3233 H3217 0.930 . S
C3233 C3232 1.377 . S
C3233 C3234 1.379 . S
C3234 H3218 0.931 . S
C3234 C3228 1.383 . S
C3234 C3233 1.379 . S
H3235 C3229 0.959 . S
H3236 C3229 0.961 . S
H3237 C3229 0.960 . S
H3238 C3230 0.930 . S
H3239 C3231 0.929 . S
H3240 C3248 0.929 . S
H3241 C3250 0.930 . S
H3242 C3252 0.930 . S
H3243 C3255 0.929 . S
H3244 C3258 0.930 . S
H3245 C3260 0.960 . S
H3246 C3260 0.960 . S
H3247 C3260 0.960 . S
C3248 H3240 0.929 . S
C3248 C3249 1.377 . S
C3248 C3250 1.384 . S
C3249 C3248 1.377 . S
C3249 C3255 1.390 . S
C3250 H3241 0.930 . S
C3250 C3248 1.384 . S
C3250 C3251 1.372 . S
C3251 C3250 1.372 . S
C3251 C3252 1.400 . S
C3251 C3256 1.490 . S
C3252 H3242 0.930 . S
C3252 C3251 1.400 . S
C3252 C3255 1.386 . S
H3253 C3269 0.930 . S
H3254 C3270 0.931 . S
C3255 H3243 0.929 . S
C3255 C3249 1.390 . S
C3255 C3252 1.386 . S
C3256 C3251 1.490 . S
C3256 C3258 1.395 . S
C3256 C3259 1.403 . S
H3257 C3263 0.930 . S
C3258 H3244 0.930 . S
C3258 C3256 1.395 . S
C3258 C3261 1.403 . S
C3259 C3256 1.403 . S
C3259 C3260 1.524 . S
C3259 C3263 1.400 . S
C3260 H3245 0.960 . S
C3260 H3246 0.960 . S
C3260 H3247 0.960 . S
C3260 C3259 1.524 . S
C3261 C3258 1.403 . S
C3261 C3262 1.392 . S
C3261 C3265 1.495 . S
C3262 C3261 1.392 . S
C3262 C3263 1.385 . S
C3262 C3264 1.478 . S
C3263 H3257 0.930 . S
C3263 C3259 1.400 . S
C3263 C3262 1.385 . S
C3264 C3262 1.478 . S
C3264 C3266 1.381 . S
C3264 C3270 1.383 . S
C3265 C3261 1.495 . S
C3265 H3271 0.959 . S
C3265 H3272 0.961 . S
C3265 H3273 0.960 . S
C3266 C3264 1.381 . S
C3266 C3267 1.394 . S
C3266 H3274 0.930 . S
C3267 C3266 1.394 . S
C3267 C3268 1.383 . S
C3267 H3275 0.929 . S
C3268 C3267 1.383 . S
C3268 C3269 1.377 . S
C3269 H3253 0.930 . S
C3269 C3268 1.377 . S
C3269 C3270 1.379 . S
C3270 H3254 0.931 . S
C3270 C3264 1.383 . S
C3270 C3269 1.379 . S
H3271 C3265 0.959 . S
H3272 C3265 0.961 . S
H3273 C3265 0.960 . S
H3274 C3266 0.930 . S
H3275 C3267 0.929 . S
H3276 C3284 0.929 . S
H3277 C3286 0.930 . S
H3278 C3288 0.930 . S
H3279 C3291 0.929 . S
H3280 C3294 0.930 . S
H3281 C3296 0.960 . S
H3282 C3296 0.960 . S
H3283 C3296 0.960 . S
C3284 H3276 0.929 . S
C3284 C3285 1.377 . S
C3284 C3286 1.384 . S
C3285 C3284 1.377 . S
C3285 C3291 1.390 . S
C3286 H3277 0.930 . S
C3286 C3284 1.384 . S
C3286 C3287 1.372 . S
C3287 C3286 1.372 . S
C3287 C3288 1.400 . S
C3287 C3292 1.490 . S
C3288 H3278 0.930 . S
C3288 C3287 1.400 . S
C3288 C3291 1.386 . S
H3289 C3305 0.930 . S
H3290 C3306 0.931 . S
C3291 H3279 0.929 . S
C3291 C3285 1.390 . S
C3291 C3288 1.386 . S
C3292 C3287 1.490 . S
C3292 C3294 1.395 . S
C3292 C3295 1.403 . S
H3293 C3299 0.930 . S
C3294 H3280 0.930 . S
C3294 C3292 1.395 . S
C3294 C3297 1.403 . S
C3295 C3292 1.403 . S
C3295 C3296 1.524 . S
C3295 C3299 1.400 . S
C3296 H3281 0.960 . S
C3296 H3282 0.960 . S
C3296 H3283 0.960 . S
C3296 C3295 1.524 . S
C3297 C3294 1.403 . S
C3297 C3298 1.392 . S
C3297 C3301 1.495 . S
C3298 C3297 1.392 . S
C3298 C3299 1.385 . S
C3298 C3300 1.478 . S
C3299 H3293 0.930 . S
C3299 C3295 1.400 . S
C3299 C3298 1.385 . S
C3300 C3298 1.478 . S
C3300 C3302 1.381 . S
C3300 C3306 1.383 . S
C3301 C3297 1.495 . S
C3301 H3307 0.959 . S
C3301 H3308 0.961 . S
C3301 H3309 0.960 . S
C3302 C3300 1.381 . S
C3302 C3303 1.394 . S
C3302 H3310 0.930 . S
C3303 C3302 1.394 . S
C3303 C3304 1.383 . S
C3303 H3311 0.929 . S
C3304 C3303 1.383 . S
C3304 C3305 1.377 . S
C3305 H3289 0.930 . S
C3305 C3304 1.377 . S
C3305 C3306 1.379 . S
C3306 H3290 0.931 . S
C3306 C3300 1.383 . S
C3306 C3305 1.379 . S
H3307 C3301 0.959 . S
H3308 C3301 0.961 . S
H3309 C3301 0.960 . S
H3310 C3302 0.930 . S
H3311 C3303 0.929 . S
H3312 C3320 0.929 . S
H3313 C3322 0.930 . S
H3314 C3324 0.930 . S
H3315 C3327 0.929 . S
H3316 C3330 0.930 . S
H3317 C3332 0.960 . S
H3318 C3332 0.960 . S
H3319 C3332 0.960 . S
C3320 H3312 0.929 . S
C3320 C3321 1.377 . S
C3320 C3322 1.384 . S
C3321 C3320 1.377 . S
C3321 C3327 1.390 . S
C3322 H3313 0.930 . S
C3322 C3320 1.384 . S
C3322 C3323 1.372 . S
C3323 C3322 1.372 . S
C3323 C3324 1.400 . S
C3323 C3328 1.490 . S
C3324 H3314 0.930 . S
C3324 C3323 1.400 . S
C3324 C3327 1.386 . S
H3325 C3341 0.930 . S
H3326 C3342 0.931 . S
C3327 H3315 0.929 . S
C3327 C3321 1.390 . S
C3327 C3324 1.386 . S
C3328 C3323 1.490 . S
C3328 C3330 1.395 . S
C3328 C3331 1.403 . S
H3329 C3335 0.930 . S
C3330 H3316 0.930 . S
C3330 C3328 1.395 . S
C3330 C3333 1.403 . S
C3331 C3328 1.403 . S
C3331 C3332 1.524 . S
C3331 C3335 1.400 . S
C3332 H3317 0.960 . S
C3332 H3318 0.960 . S
C3332 H3319 0.960 . S
C3332 C3331 1.524 . S
C3333 C3330 1.403 . S
C3333 C3334 1.392 . S
C3333 C3337 1.495 . S
C3334 C3333 1.392 . S
C3334 C3335 1.385 . S
C3334 C3336 1.478 . S
C3335 H3329 0.930 . S
C3335 C3331 1.400 . S
C3335 C3334 1.385 . S
C3336 C3334 1.478 . S
C3336 C3338 1.381 . S
C3336 C3342 1.383 . S
C3337 C3333 1.495 . S
C3337 H3343 0.959 . S
C3337 H3344 0.961 . S
C3337 H3345 0.960 . S
C3338 C3336 1.381 . S
C3338 C3339 1.394 . S
C3338 H3346 0.930 . S
C3339 C3338 1.394 . S
C3339 C3340 1.383 . S
C3339 H3347 0.929 . S
C3340 C3339 1.383 . S
C3340 C3341 1.377 . S
C3341 H3325 0.930 . S
C3341 C3340 1.377 . S
C3341 C3342 1.379 . S
C3342 H3326 0.931 . S
C3342 C3336 1.383 . S
C3342 C3341 1.379 . S
H3343 C3337 0.959 . S
H3344 C3337 0.961 . S
H3345 C3337 0.960 . S
H3346 C3338 0.930 . S
H3347 C3339 0.929 . S
H3348 C3356 0.929 . S
H3349 C3358 0.930 . S
H3350 C3360 0.930 . S
H3351 C3363 0.929 . S
H3352 C3366 0.930 . S
H3353 C3368 0.960 . S
H3354 C3368 0.960 . S
H3355 C3368 0.960 . S
C3356 H3348 0.929 . S
C3356 C3357 1.377 . S
C3356 C3358 1.384 . S
C3357 C3356 1.377 . S
C3357 C3363 1.390 . S
C3358 H3349 0.930 . S
C3358 C3356 1.384 . S
C3358 C3359 1.372 . S
C3359 C3358 1.372 . S
C3359 C3360 1.400 . S
C3359 C3364 1.490 . S
C3360 H3350 0.930 . S
C3360 C3359 1.400 . S
C3360 C3363 1.386 . S
H3361 C3377 0.930 . S
H3362 C3378 0.931 . S
C3363 H3351 0.929 . S
C3363 C3357 1.390 . S
C3363 C3360 1.386 . S
C3364 C3359 1.490 . S
C3364 C3366 1.395 . S
C3364 C3367 1.403 . S
H3365 C3371 0.930 . S
C3366 H3352 0.930 . S
C3366 C3364 1.395 . S
C3366 C3369 1.403 . S
C3367 C3364 1.403 . S
C3367 C3368 1.524 . S
C3367 C3371 1.400 . S
C3368 H3353 0.960 . S
C3368 H3354 0.960 . S
C3368 H3355 0.960 . S
C3368 C3367 1.524 . S
C3369 C3366 1.403 . S
C3369 C3370 1.392 . S
C3369 C3373 1.495 . S
C3370 C3369 1.392 . S
C3370 C3371 1.385 . S
C3370 C3372 1.478 . S
C3371 H3365 0.930 . S
C3371 C3367 1.400 . S
C3371 C3370 1.385 . S
C3372 C3370 1.478 . S
C3372 C3374 1.381 . S
C3372 C3378 1.383 . S
C3373 C3369 1.495 . S
C3373 H3379 0.959 . S
C3373 H3380 0.961 . S
C3373 H3381 0.960 . S
C3374 C3372 1.381 . S
C3374 C3375 1.394 . S
C3374 H3382 0.930 . S
C3375 C3374 1.394 . S
C3375 C3376 1.383 . S
C3375 H3383 0.929 . S
C3376 C3375 1.383 . S
C3376 C3377 1.377 . S
C3377 H3361 0.930 . S
C3377 C3376 1.377 . S
C3377 C3378 1.379 . S
C3378 H3362 0.931 . S
C3378 C3372 1.383 . S
C3378 C3377 1.379 . S
H3379 C3373 0.959 . S
H3380 C3373 0.961 . S
H3381 C3373 0.960 . S
H3382 C3374 0.930 . S
H3383 C3375 0.929 . S
H3384 C3392 0.929 1_455 S
H3385 C3394 0.930 . S
H3386 C3396 0.930 . S
H3387 C3399 0.929 . S
H3388 C3402 0.930 . S
H3389 C3404 0.960 . S
H3390 C3404 0.960 . S
H3391 C3404 0.960 . S
C3392 H3384 0.929 1_655 S
C3392 C3393 1.377 . S
C3392 C3394 1.384 1_655 S
C3393 C3392 1.377 . S
C3393 C3399 1.390 . S
C3394 H3385 0.930 . S
C3394 C3392 1.384 1_455 S
C3394 C3395 1.372 1_455 S
C3395 C3394 1.372 1_655 S
C3395 C3396 1.400 . S
C3395 C3400 1.490 . S
C3396 H3386 0.930 . S
C3396 C3395 1.400 . S
C3396 C3399 1.386 . S
H3397 C3413 0.930 1_655 S
H3398 C3414 0.939 . S
C3399 H3387 0.929 . S
C3399 C3393 1.390 . S
C3399 C3396 1.386 . S
C3400 C3395 1.490 . S
C3400 C3402 1.395 1_655 S
C3400 C3403 1.403 . S
H3401 C3407 0.930 . S
C3402 H3388 0.930 . S
C3402 C3400 1.395 1_455 S
C3402 C3405 1.403 . S
C3403 C3400 1.403 . S
C3403 C3404 1.524 . S
C3403 C3407 1.400 . S
C3404 H3389 0.960 . S
C3404 H3390 0.960 . S
C3404 H3391 0.960 . S
C3404 C3403 1.524 . S
C3405 C3402 1.403 . S
C3405 C3406 1.392 . S
C3405 C3409 1.495 . S
C3406 C3405 1.392 . S
C3406 C3407 1.385 1_455 S
C3406 C3408 1.478 . S
C3407 H3401 0.930 . S
C3407 C3403 1.400 . S
C3407 C3406 1.385 1_655 S
C3408 C3406 1.478 . S
C3408 C3410 1.381 . S
C3408 C3414 1.377 1_455 S
C3409 C3405 1.495 . S
C3409 H3415 0.959 . S
C3409 H3416 0.961 . S
C3409 H3417 0.960 . S
C3410 C3408 1.381 . S
C3410 C3411 1.394 . S
C3410 H3418 0.930 . S
C3411 C3410 1.394 . S
C3411 C3412 1.383 . S
C3411 H3419 0.929 . S
C3412 C3411 1.383 . S
C3412 C3413 1.377 . S
C3413 H3397 0.930 1_455 S
C3413 C3412 1.377 . S
C3413 C3414 1.378 1_455 S
C3414 H3398 0.939 . S
C3414 C3408 1.377 1_655 S
C3414 C3413 1.378 1_655 S
H3415 C3409 0.959 . S
H3416 C3409 0.961 . S
H3417 C3409 0.960 . S
H3418 C3410 0.930 . S
H3419 C3411 0.929 . S
H3420 C3428 0.929 . S
H3421 C3430 0.930 . S
H3422 C3432 0.930 . S
H3423 C3435 0.929 . S
H3424 C3438 0.930 . S
H3425 C3440 0.960 . S
H3426 C3440 0.960 . S
H3427 C3440 0.960 . S
C3428 H3420 0.929 . S
C3428 C3429 1.377 . S
C3428 C3430 1.384 . S
C3429 C3428 1.377 . S
C3429 C3435 1.390 . S
C3430 H3421 0.930 . S
C3430 C3428 1.384 . S
C3430 C3431 1.372 . S
C3431 C3430 1.372 . S
C3431 C3432 1.400 . S
C3431 C3436 1.490 . S
C3432 H3422 0.930 . S
C3432 C3431 1.400 . S
C3432 C3435 1.386 . S
H3433 C3449 0.930 . S
H3434 C3450 0.931 . S
C3435 H3423 0.929 . S
C3435 C3429 1.390 . S
C3435 C3432 1.386 . S
C3436 C3431 1.490 . S
C3436 C3438 1.395 . S
C3436 C3439 1.403 . S
H3437 C3443 0.930 . S
C3438 H3424 0.930 . S
C3438 C3436 1.395 . S
C3438 C3441 1.403 . S
C3439 C3436 1.403 . S
C3439 C3440 1.524 . S
C3439 C3443 1.400 . S
C3440 H3425 0.960 . S
C3440 H3426 0.960 . S
C3440 H3427 0.960 . S
C3440 C3439 1.524 . S
C3441 C3438 1.403 . S
C3441 C3442 1.392 . S
C3441 C3445 1.495 . S
C3442 C3441 1.392 . S
C3442 C3443 1.385 . S
C3442 C3444 1.478 . S
C3443 H3437 0.930 . S
C3443 C3439 1.400 . S
C3443 C3442 1.385 . S
C3444 C3442 1.478 . S
C3444 C3446 1.381 . S
C3444 C3450 1.383 . S
C3445 C3441 1.495 . S
C3445 H3451 0.959 . S
C3445 H3452 0.961 . S
C3445 H3453 0.960 . S
C3446 C3444 1.381 . S
C3446 C3447 1.394 . S
C3446 H3454 0.930 . S
C3447 C3446 1.394 . S
C3447 C3448 1.383 . S
C3447 H3455 0.929 . S
C3448 C3447 1.383 . S
C3448 C3449 1.377 . S
C3449 H3433 0.930 . S
C3449 C3448 1.377 . S
C3449 C3450 1.379 . S
C3450 H3434 0.931 . S
C3450 C3444 1.383 . S
C3450 C3449 1.379 . S
H3451 C3445 0.959 . S
H3452 C3445 0.961 . S
H3453 C3445 0.960 . S
H3454 C3446 0.930 . S
H3455 C3447 0.929 . S
H3456 C3464 0.929 . S
H3457 C3466 0.930 . S
H3458 C3468 0.930 . S
H3459 C3471 0.929 . S
H3460 C3474 0.930 . S
H3461 C3476 0.960 . S
H3462 C3476 0.960 . S
H3463 C3476 0.960 . S
C3464 H3456 0.929 . S
C3464 C3465 1.377 . S
C3464 C3466 1.384 . S
C3465 C3464 1.377 . S
C3465 C3471 1.390 . S
C3466 H3457 0.930 . S
C3466 C3464 1.384 . S
C3466 C3467 1.372 . S
C3467 C3466 1.372 . S
C3467 C3468 1.400 . S
C3467 C3472 1.490 . S
C3468 H3458 0.930 . S
C3468 C3467 1.400 . S
C3468 C3471 1.386 . S
H3469 C3485 0.930 . S
H3470 C3486 0.931 . S
C3471 H3459 0.929 . S
C3471 C3465 1.390 . S
C3471 C3468 1.386 . S
C3472 C3467 1.490 . S
C3472 C3474 1.395 1_545 S
C3472 C3475 1.403 . S
H3473 C3479 0.930 . S
C3474 H3460 0.930 . S
C3474 C3472 1.395 1_565 S
C3474 C3477 1.403 . S
C3475 C3472 1.403 . S
C3475 C3476 1.524 . S
C3475 C3479 1.400 . S
C3476 H3461 0.960 . S
C3476 H3462 0.960 . S
C3476 H3463 0.960 . S
C3476 C3475 1.524 . S
C3477 C3474 1.403 . S
C3477 C3478 1.392 . S
C3477 C3481 1.495 . S
C3478 C3477 1.392 . S
C3478 C3479 1.385 1_565 S
C3478 C3480 1.478 . S
C3479 H3473 0.930 . S
C3479 C3475 1.400 . S
C3479 C3478 1.385 1_545 S
C3480 C3478 1.478 . S
C3480 C3482 1.381 . S
C3480 C3486 1.383 . S
C3481 C3477 1.495 . S
C3481 H3487 0.959 . S
C3481 H3488 0.961 . S
C3481 H3489 0.960 . S
C3482 C3480 1.381 . S
C3482 C3483 1.394 . S
C3482 H3490 0.930 . S
C3483 C3482 1.394 . S
C3483 C3484 1.383 . S
C3483 H3491 0.929 . S
C3484 C3483 1.383 . S
C3484 C3485 1.377 . S
C3485 H3469 0.930 . S
C3485 C3484 1.377 . S
C3485 C3486 1.379 . S
C3486 H3470 0.931 . S
C3486 C3480 1.383 . S
C3486 C3485 1.379 . S
H3487 C3481 0.959 . S
H3488 C3481 0.961 . S
H3489 C3481 0.960 . S
H3490 C3482 0.930 . S
H3491 C3483 0.929 . S
H3492 C3500 0.929 1_655 S
H3493 C3502 0.928 1_655 S
H3494 C3504 0.930 . S
H3495 C3507 0.929 . S
H3496 C3510 0.930 . S
H3497 C3512 0.960 . S
H3498 C3512 0.960 . S
H3499 C3512 0.960 1_455 S
C3500 H3492 0.929 1_455 S
C3500 C3501 1.377 . S
C3500 C3502 1.385 . S
C3501 C3500 1.377 . S
C3501 C3507 1.390 . S
C3502 H3493 0.928 1_455 S
C3502 C3500 1.385 . S
C3502 C3503 1.373 . S
C3503 C3502 1.373 . S
C3503 C3504 1.400 . S
C3503 C3508 1.490 . S
C3504 H3494 0.930 . S
C3504 C3503 1.400 . S
C3504 C3507 1.386 . S
H3505 C3521 0.930 1_455 S
H3506 C3522 0.961 . S
C3507 H3495 0.929 . S
C3507 C3501 1.390 . S
C3507 C3504 1.386 . S
C3508 C3503 1.490 . S
C3508 C3510 1.395 . S
C3508 C3511 1.384 1_455 S
H3509 C3515 0.930 . S
C3510 H3496 0.930 . S
C3510 C3508 1.395 . S
C3510 C3513 1.403 1_455 S
C3511 C3508 1.384 1_655 S
C3511 C3512 1.538 . S
C3511 C3515 1.405 . S
C3512 H3497 0.960 . S
C3512 H3498 0.960 . S
C3512 H3499 0.960 1_655 S
C3512 C3511 1.538 . S
C3513 C3510 1.403 1_655 S
C3513 C3514 1.392 . S
C3513 C3517 1.495 . S
C3514 C3513 1.392 . S
C3514 C3515 1.385 . S
C3514 C3516 1.478 . S
C3515 H3509 0.930 . S
C3515 C3511 1.405 . S
C3515 C3514 1.385 . S
C3516 C3514 1.478 . S
C3516 C3518 1.381 . S
C3516 C3522 1.369 1_655 S
C3517 C3513 1.495 . S
C3517 H3523 0.959 1_655 S
C3517 H3524 0.961 1_655 S
C3517 H3525 0.960 . S
C3518 C3516 1.381 . S
C3518 C3519 1.394 . S
C3518 H3526 0.930 . S
C3519 C3518 1.394 . S
C3519 C3520 1.383 . S
C3519 H3527 0.929 . S
C3520 C3519 1.383 . S
C3520 C3521 1.377 . S
C3521 H3505 0.930 1_655 S
C3521 C3520 1.377 . S
C3521 C3522 1.366 1_655 S
C3522 H3506 0.961 . S
C3522 C3516 1.369 1_455 S
C3522 C3521 1.366 1_455 S
H3523 C3517 0.959 1_455 S
H3524 C3517 0.961 1_455 S
H3525 C3517 0.960 . S
H3526 C3518 0.930 . S
H3527 C3519 0.929 . S
H3528 C3536 0.929 . S
H3529 C3538 0.930 . S
H3530 C3540 0.930 . S
H3531 C3543 0.929 . S
H3532 C3546 0.930 . S
H3533 C3548 0.960 . S
H3534 C3548 0.960 . S
H3535 C3548 0.960 . S
C3536 H3528 0.929 . S
C3536 C3537 1.377 . S
C3536 C3538 1.384 . S
C3537 C3536 1.377 . S
C3537 C3543 1.390 . S
C3538 H3529 0.930 . S
C3538 C3536 1.384 . S
C3538 C3539 1.372 . S
C3539 C3538 1.372 . S
C3539 C3540 1.400 . S
C3539 C3544 1.490 . S
C3540 H3530 0.930 . S
C3540 C3539 1.400 . S
C3540 C3543 1.386 . S
H3541 C3557 0.930 . S
H3542 C3558 0.931 . S
C3543 H3531 0.929 . S
C3543 C3537 1.390 . S
C3543 C3540 1.386 . S
C3544 C3539 1.490 . S
C3544 C3546 1.395 . S
C3544 C3547 1.403 . S
H3545 C3551 0.930 . S
C3546 H3532 0.930 . S
C3546 C3544 1.395 . S
C3546 C3549 1.403 . S
C3547 C3544 1.403 . S
C3547 C3548 1.524 . S
C3547 C3551 1.400 . S
C3548 H3533 0.960 . S
C3548 H3534 0.960 . S
C3548 H3535 0.960 . S
C3548 C3547 1.524 . S
C3549 C3546 1.403 . S
C3549 C3550 1.392 . S
C3549 C3553 1.495 . S
C3550 C3549 1.392 . S
C3550 C3551 1.385 . S
C3550 C3552 1.478 . S
C3551 H3545 0.930 . S
C3551 C3547 1.400 . S
C3551 C3550 1.385 . S
C3552 C3550 1.478 . S
C3552 C3554 1.381 . S
C3552 C3558 1.383 . S
C3553 C3549 1.495 . S
C3553 H3559 0.959 . S
C3553 H3560 0.961 . S
C3553 H3561 0.960 . S
C3554 C3552 1.381 . S
C3554 C3555 1.394 . S
C3554 H3562 0.930 . S
C3555 C3554 1.394 . S
C3555 C3556 1.383 . S
C3555 H3563 0.929 . S
C3556 C3555 1.383 . S
C3556 C3557 1.377 . S
C3557 H3541 0.930 . S
C3557 C3556 1.377 . S
C3557 C3558 1.379 . S
C3558 H3542 0.931 . S
C3558 C3552 1.383 . S
C3558 C3557 1.379 . S
H3559 C3553 0.959 . S
H3560 C3553 0.961 . S
H3561 C3553 0.960 . S
H3562 C3554 0.930 . S
H3563 C3555 0.929 . S
H3564 C3572 0.929 . S
H3565 C3574 0.930 . S
H3566 C3576 0.930 1_565 S
H3567 C3579 0.929 . S
H3568 C3582 0.930 . S
H3569 C3584 0.960 . S
H3570 C3584 0.960 . S
H3571 C3584 0.960 . S
C3572 H3564 0.929 . S
C3572 C3573 1.377 . S
C3572 C3574 1.384 . S
C3573 C3572 1.377 . S
C3573 C3579 1.390 . S
C3574 H3565 0.930 . S
C3574 C3572 1.384 . S
C3574 C3575 1.372 . S
C3575 C3574 1.372 . S
C3575 C3576 1.400 . S
C3575 C3580 1.490 . S
C3576 H3566 0.930 1_545 S
C3576 C3575 1.400 . S
C3576 C3579 1.386 . S
H3577 C3593 0.930 . S
H3578 C3594 0.931 . S
C3579 H3567 0.929 . S
C3579 C3573 1.390 . S
C3579 C3576 1.386 . S
C3580 C3575 1.490 . S
C3580 C3582 1.395 . S
C3580 C3583 1.403 1_545 S
H3581 C3587 0.930 . S
C3582 H3568 0.930 . S
C3582 C3580 1.395 . S
C3582 C3585 1.403 . S
C3583 C3580 1.403 1_565 S
C3583 C3584 1.524 . S
C3583 C3587 1.400 . S
C3584 H3569 0.960 . S
C3584 H3570 0.960 . S
C3584 H3571 0.960 . S
C3584 C3583 1.524 . S
C3585 C3582 1.403 . S
C3585 C3586 1.392 1_545 S
C3585 C3589 1.495 . S
C3586 C3585 1.392 1_565 S
C3586 C3587 1.385 . S
C3586 C3588 1.478 . S
C3587 H3581 0.930 . S
C3587 C3583 1.400 . S
C3587 C3586 1.385 . S
C3588 C3586 1.478 . S
C3588 C3590 1.381 . S
C3588 C3594 1.383 . S
C3589 C3585 1.495 . S
C3589 H3595 0.959 . S
C3589 H3596 0.961 . S
C3589 H3597 0.960 . S
C3590 C3588 1.381 . S
C3590 C3591 1.394 . S
C3590 H3598 0.930 1_565 S
C3591 C3590 1.394 . S
C3591 C3592 1.383 . S
C3591 H3599 0.929 . S
C3592 C3591 1.383 . S
C3592 C3593 1.377 . S
C3593 H3577 0.930 . S
C3593 C3592 1.377 . S
C3593 C3594 1.379 . S
C3594 H3578 0.931 . S
C3594 C3588 1.383 . S
C3594 C3593 1.379 . S
H3595 C3589 0.959 . S
H3596 C3589 0.961 . S
H3597 C3589 0.960 . S
H3598 C3590 0.930 1_545 S
H3599 C3591 0.929 . S
H3600 C3608 0.929 . S
H3601 C3610 0.930 . S
H3602 C3612 0.930 . S
H3603 C3615 0.929 . S
H3604 C3618 0.930 . S
H3605 C3620 0.960 . S
H3606 C3620 0.960 . S
H3607 C3620 0.960 . S
C3608 H3600 0.929 . S
C3608 C3609 1.377 . S
C3608 C3610 1.384 . S
C3609 C3608 1.377 . S
C3609 C3615 1.390 . S
C3610 H3601 0.930 . S
C3610 C3608 1.384 . S
C3610 C3611 1.372 . S
C3611 C3610 1.372 . S
C3611 C3612 1.400 . S
C3611 C3616 1.490 . S
C3612 H3602 0.930 . S
C3612 C3611 1.400 . S
C3612 C3615 1.386 . S
H3613 C3629 0.930 . S
H3614 C3630 0.931 . S
C3615 H3603 0.929 . S
C3615 C3609 1.390 . S
C3615 C3612 1.386 . S
C3616 C3611 1.490 . S
C3616 C3618 1.395 . S
C3616 C3619 1.403 . S
H3617 C3623 0.930 . S
C3618 H3604 0.930 . S
C3618 C3616 1.395 . S
C3618 C3621 1.403 . S
C3619 C3616 1.403 . S
C3619 C3620 1.524 . S
C3619 C3623 1.400 . S
C3620 H3605 0.960 . S
C3620 H3606 0.960 . S
C3620 H3607 0.960 . S
C3620 C3619 1.524 . S
C3621 C3618 1.403 . S
C3621 C3622 1.392 . S
C3621 C3625 1.495 . S
C3622 C3621 1.392 . S
C3622 C3623 1.385 . S
C3622 C3624 1.478 . S
C3623 H3617 0.930 . S
C3623 C3619 1.400 . S
C3623 C3622 1.385 . S
C3624 C3622 1.478 . S
C3624 C3626 1.381 . S
C3624 C3630 1.383 . S
C3625 C3621 1.495 . S
C3625 H3631 0.959 . S
C3625 H3632 0.961 . S
C3625 H3633 0.960 . S
C3626 C3624 1.381 . S
C3626 C3627 1.394 . S
C3626 H3634 0.930 . S
C3627 C3626 1.394 . S
C3627 C3628 1.383 . S
C3627 H3635 0.929 . S
C3628 C3627 1.383 . S
C3628 C3629 1.377 . S
C3629 H3613 0.930 . S
C3629 C3628 1.377 . S
C3629 C3630 1.379 . S
C3630 H3614 0.931 . S
C3630 C3624 1.383 . S
C3630 C3629 1.379 . S
H3631 C3625 0.959 . S
H3632 C3625 0.961 . S
H3633 C3625 0.960 . S
H3634 C3626 0.930 . S
H3635 C3627 0.929 . S
H3636 C3644 0.929 . S
H3637 C3646 0.930 . S
H3638 C3648 0.930 . S
H3639 C3651 0.929 . S
H3640 C3654 0.930 . S
H3641 C3656 0.960 . S
H3642 C3656 0.960 . S
H3643 C3656 0.960 . S
C3644 H3636 0.929 . S
C3644 C3645 1.377 . S
C3644 C3646 1.384 . S
C3645 C3644 1.377 . S
C3645 C3651 1.390 . S
C3646 H3637 0.930 . S
C3646 C3644 1.384 . S
C3646 C3647 1.372 . S
C3647 C3646 1.372 . S
C3647 C3648 1.400 . S
C3647 C3652 1.490 . S
C3648 H3638 0.930 . S
C3648 C3647 1.400 . S
C3648 C3651 1.386 . S
H3649 C3665 0.930 . S
H3650 C3666 0.931 . S
C3651 H3639 0.929 . S
C3651 C3645 1.390 . S
C3651 C3648 1.386 . S
C3652 C3647 1.490 . S
C3652 C3654 1.395 . S
C3652 C3655 1.403 . S
H3653 C3659 0.930 . S
C3654 H3640 0.930 . S
C3654 C3652 1.395 . S
C3654 C3657 1.403 . S
C3655 C3652 1.403 . S
C3655 C3656 1.524 . S
C3655 C3659 1.400 . S
C3656 H3641 0.960 . S
C3656 H3642 0.960 . S
C3656 H3643 0.960 . S
C3656 C3655 1.524 . S
C3657 C3654 1.403 . S
C3657 C3658 1.392 . S
C3657 C3661 1.495 . S
C3658 C3657 1.392 . S
C3658 C3659 1.385 . S
C3658 C3660 1.478 . S
C3659 H3653 0.930 . S
C3659 C3655 1.400 . S
C3659 C3658 1.385 . S
C3660 C3658 1.478 . S
C3660 C3662 1.381 . S
C3660 C3666 1.383 . S
C3661 C3657 1.495 . S
C3661 H3667 0.959 . S
C3661 H3668 0.961 . S
C3661 H3669 0.960 . S
C3662 C3660 1.381 . S
C3662 C3663 1.394 . S
C3662 H3670 0.930 . S
C3663 C3662 1.394 . S
C3663 C3664 1.383 . S
C3663 H3671 0.929 . S
C3664 C3663 1.383 . S
C3664 C3665 1.377 . S
C3665 H3649 0.930 . S
C3665 C3664 1.377 . S
C3665 C3666 1.379 . S
C3666 H3650 0.931 . S
C3666 C3660 1.383 . S
C3666 C3665 1.379 . S
H3667 C3661 0.959 . S
H3668 C3661 0.961 . S
H3669 C3661 0.960 . S
H3670 C3662 0.930 . S
H3671 C3663 0.929 . S
H3672 C3680 0.929 . S
H3673 C3682 0.930 . S
H3674 C3684 0.930 . S
H3675 C3687 0.929 . S
H3676 C3690 0.930 . S
H3677 C3692 0.960 . S
H3678 C3692 0.960 . S
H3679 C3692 0.960 . S
C3680 H3672 0.929 . S
C3680 C3681 1.377 . S
C3680 C3682 1.384 . S
C3681 C3680 1.377 . S
C3681 C3687 1.390 . S
C3682 H3673 0.930 . S
C3682 C3680 1.384 . S
C3682 C3683 1.372 . S
C3683 C3682 1.372 . S
C3683 C3684 1.400 . S
C3683 C3688 1.490 . S
C3684 H3674 0.930 . S
C3684 C3683 1.400 . S
C3684 C3687 1.386 . S
H3685 C3701 0.930 . S
H3686 C3702 0.931 . S
C3687 H3675 0.929 . S
C3687 C3681 1.390 . S
C3687 C3684 1.386 . S
C3688 C3683 1.490 . S
C3688 C3690 1.395 . S
C3688 C3691 1.403 . S
H3689 C3695 0.930 . S
C3690 H3676 0.930 . S
C3690 C3688 1.395 . S
C3690 C3693 1.403 . S
C3691 C3688 1.403 . S
C3691 C3692 1.524 . S
C3691 C3695 1.400 . S
C3692 H3677 0.960 . S
C3692 H3678 0.960 . S
C3692 H3679 0.960 . S
C3692 C3691 1.524 . S
C3693 C3690 1.403 . S
C3693 C3694 1.392 . S
C3693 C3697 1.495 . S
C3694 C3693 1.392 . S
C3694 C3695 1.385 . S
C3694 C3696 1.478 . S
C3695 H3689 0.930 . S
C3695 C3691 1.400 . S
C3695 C3694 1.385 . S
C3696 C3694 1.478 . S
C3696 C3698 1.381 . S
C3696 C3702 1.383 . S
C3697 C3693 1.495 . S
C3697 H3703 0.959 . S
C3697 H3704 0.961 . S
C3697 H3705 0.960 . S
C3698 C3696 1.381 . S
C3698 C3699 1.394 . S
C3698 H3706 0.930 . S
C3699 C3698 1.394 . S
C3699 C3700 1.383 . S
C3699 H3707 0.929 . S
C3700 C3699 1.383 . S
C3700 C3701 1.377 . S
C3701 H3685 0.930 . S
C3701 C3700 1.377 . S
C3701 C3702 1.379 . S
C3702 H3686 0.931 . S
C3702 C3696 1.383 . S
C3702 C3701 1.379 . S
H3703 C3697 0.959 . S
H3704 C3697 0.961 . S
H3705 C3697 0.960 . S
H3706 C3698 0.930 . S
H3707 C3699 0.929 . S
H3708 C3716 0.929 . S
H3709 C3718 0.930 . S
H3710 C3720 0.930 . S
H3711 C3723 0.929 . S
H3712 C3726 0.930 . S
H3713 C3728 0.960 . S
H3714 C3728 0.960 . S
H3715 C3728 0.960 . S
C3716 H3708 0.929 . S
C3716 C3717 1.377 . S
C3716 C3718 1.384 . S
C3717 C3716 1.377 . S
C3717 C3723 1.390 . S
C3718 H3709 0.930 . S
C3718 C3716 1.384 . S
C3718 C3719 1.372 . S
C3719 C3718 1.372 . S
C3719 C3720 1.400 . S
C3719 C3724 1.490 . S
C3720 H3710 0.930 . S
C3720 C3719 1.400 . S
C3720 C3723 1.386 . S
H3721 C3737 0.930 . S
H3722 C3738 0.931 . S
C3723 H3711 0.929 . S
C3723 C3717 1.390 . S
C3723 C3720 1.386 . S
C3724 C3719 1.490 . S
C3724 C3726 1.395 . S
C3724 C3727 1.403 . S
H3725 C3731 0.930 . S
C3726 H3712 0.930 . S
C3726 C3724 1.395 . S
C3726 C3729 1.403 . S
C3727 C3724 1.403 . S
C3727 C3728 1.524 . S
C3727 C3731 1.400 . S
C3728 H3713 0.960 . S
C3728 H3714 0.960 . S
C3728 H3715 0.960 . S
C3728 C3727 1.524 . S
C3729 C3726 1.403 . S
C3729 C3730 1.392 . S
C3729 C3733 1.495 . S
C3730 C3729 1.392 . S
C3730 C3731 1.385 . S
C3730 C3732 1.478 . S
C3731 H3725 0.930 . S
C3731 C3727 1.400 . S
C3731 C3730 1.385 . S
C3732 C3730 1.478 . S
C3732 C3734 1.381 . S
C3732 C3738 1.383 . S
C3733 C3729 1.495 . S
C3733 H3739 0.959 . S
C3733 H3740 0.961 . S
C3733 H3741 0.960 . S
C3734 C3732 1.381 . S
C3734 C3735 1.394 . S
C3734 H3742 0.930 . S
C3735 C3734 1.394 . S
C3735 C3736 1.383 . S
C3735 H3743 0.929 . S
C3736 C3735 1.383 . S
C3736 C3737 1.377 . S
C3737 H3721 0.930 . S
C3737 C3736 1.377 . S
C3737 C3738 1.379 . S
C3738 H3722 0.931 . S
C3738 C3732 1.383 . S
C3738 C3737 1.379 . S
H3739 C3733 0.959 . S
H3740 C3733 0.961 . S
H3741 C3733 0.960 . S
H3742 C3734 0.930 . S
H3743 C3735 0.929 . S
H3744 C3752 0.929 . S
H3745 C3754 0.930 . S
H3746 C3756 0.930 . S
H3747 C3759 0.929 . S
H3748 C3762 0.930 . S
H3749 C3764 0.960 . S
H3750 C3764 0.960 . S
H3751 C3764 0.960 . S
C3752 H3744 0.929 . S
C3752 C3753 1.377 . S
C3752 C3754 1.384 . S
C3753 C3752 1.377 . S
C3753 C3759 1.390 . S
C3754 H3745 0.930 . S
C3754 C3752 1.384 . S
C3754 C3755 1.372 . S
C3755 C3754 1.372 . S
C3755 C3756 1.400 . S
C3755 C3760 1.490 . S
C3756 H3746 0.930 . S
C3756 C3755 1.400 . S
C3756 C3759 1.386 . S
H3757 C3773 0.930 . S
H3758 C3774 0.931 . S
C3759 H3747 0.929 . S
C3759 C3753 1.390 . S
C3759 C3756 1.386 . S
C3760 C3755 1.490 . S
C3760 C3762 1.395 . S
C3760 C3763 1.403 . S
H3761 C3767 0.930 . S
C3762 H3748 0.930 . S
C3762 C3760 1.395 . S
C3762 C3765 1.403 . S
C3763 C3760 1.403 . S
C3763 C3764 1.524 . S
C3763 C3767 1.400 . S
C3764 H3749 0.960 . S
C3764 H3750 0.960 . S
C3764 H3751 0.960 . S
C3764 C3763 1.524 . S
C3765 C3762 1.403 . S
C3765 C3766 1.392 . S
C3765 C3769 1.495 . S
C3766 C3765 1.392 . S
C3766 C3767 1.385 . S
C3766 C3768 1.478 . S
C3767 H3761 0.930 . S
C3767 C3763 1.400 . S
C3767 C3766 1.385 . S
C3768 C3766 1.478 . S
C3768 C3770 1.381 . S
C3768 C3774 1.383 . S
C3769 C3765 1.495 . S
C3769 H3775 0.959 . S
C3769 H3776 0.961 . S
C3769 H3777 0.960 . S
C3770 C3768 1.381 . S
C3770 C3771 1.394 . S
C3770 H3778 0.930 . S
C3771 C3770 1.394 . S
C3771 C3772 1.383 . S
C3771 H3779 0.929 . S
C3772 C3771 1.383 . S
C3772 C3773 1.377 . S
C3773 H3757 0.930 . S
C3773 C3772 1.377 . S
C3773 C3774 1.379 . S
C3774 H3758 0.931 . S
C3774 C3768 1.383 . S
C3774 C3773 1.379 . S
H3775 C3769 0.959 . S
H3776 C3769 0.961 . S
H3777 C3769 0.960 . S
H3778 C3770 0.930 . S
H3779 C3771 0.929 . S
H3780 C3788 0.929 . S
H3781 C3790 0.930 . S
H3782 C3792 0.930 . S
H3783 C3795 0.929 . S
H3784 C3798 0.930 . S
H3785 C3800 0.960 . S
H3786 C3800 0.960 . S
H3787 C3800 0.960 . S
C3788 H3780 0.929 . S
C3788 C3789 1.377 . S
C3788 C3790 1.384 . S
C3789 C3788 1.377 . S
C3789 C3795 1.390 . S
C3790 H3781 0.930 . S
C3790 C3788 1.384 . S
C3790 C3791 1.372 . S
C3791 C3790 1.372 . S
C3791 C3792 1.400 . S
C3791 C3796 1.490 . S
C3792 H3782 0.930 . S
C3792 C3791 1.400 . S
C3792 C3795 1.386 . S
H3793 C3809 0.930 . S
H3794 C3810 0.931 . S
C3795 H3783 0.929 . S
C3795 C3789 1.390 . S
C3795 C3792 1.386 . S
C3796 C3791 1.490 . S
C3796 C3798 1.395 . S
C3796 C3799 1.403 . S
H3797 C3803 0.930 . S
C3798 H3784 0.930 . S
C3798 C3796 1.395 . S
C3798 C3801 1.403 . S
C3799 C3796 1.403 . S
C3799 C3800 1.524 . S
C3799 C3803 1.400 . S
C3800 H3785 0.960 . S
C3800 H3786 0.960 . S
C3800 H3787 0.960 . S
C3800 C3799 1.524 . S
C3801 C3798 1.403 . S
C3801 C3802 1.392 . S
C3801 C3805 1.495 . S
C3802 C3801 1.392 . S
C3802 C3803 1.385 . S
C3802 C3804 1.478 . S
C3803 H3797 0.930 . S
C3803 C3799 1.400 . S
C3803 C3802 1.385 . S
C3804 C3802 1.478 . S
C3804 C3806 1.381 . S
C3804 C3810 1.383 . S
C3805 C3801 1.495 . S
C3805 H3811 0.959 . S
C3805 H3812 0.961 . S
C3805 H3813 0.960 . S
C3806 C3804 1.381 . S
C3806 C3807 1.394 . S
C3806 H3814 0.930 . S
C3807 C3806 1.394 . S
C3807 C3808 1.383 . S
C3807 H3815 0.929 . S
C3808 C3807 1.383 . S
C3808 C3809 1.377 . S
C3809 H3793 0.930 . S
C3809 C3808 1.377 . S
C3809 C3810 1.379 . S
C3810 H3794 0.931 . S
C3810 C3804 1.383 . S
C3810 C3809 1.379 . S
H3811 C3805 0.959 . S
H3812 C3805 0.961 . S
H3813 C3805 0.960 . S
H3814 C3806 0.930 . S
H3815 C3807 0.929 . S
H3816 C3824 0.929 . S
H3817 C3826 0.930 . S
H3818 C3828 0.930 . S
H3819 C3831 0.929 . S
H3820 C3834 0.930 . S
H3821 C3836 0.960 . S
H3822 C3836 0.960 . S
H3823 C3836 0.960 . S
C3824 H3816 0.929 . S
C3824 C3825 1.377 . S
C3824 C3826 1.384 . S
C3825 C3824 1.377 . S
C3825 C3831 1.390 . S
C3826 H3817 0.930 . S
C3826 C3824 1.384 . S
C3826 C3827 1.372 . S
C3827 C3826 1.372 . S
C3827 C3828 1.400 . S
C3827 C3832 1.490 . S
C3828 H3818 0.930 . S
C3828 C3827 1.400 . S
C3828 C3831 1.386 . S
H3829 C3845 0.930 . S
H3830 C3846 0.931 . S
C3831 H3819 0.929 . S
C3831 C3825 1.390 . S
C3831 C3828 1.386 . S
C3832 C3827 1.490 . S
C3832 C3834 1.395 . S
C3832 C3835 1.403 . S
H3833 C3839 0.930 . S
C3834 H3820 0.930 . S
C3834 C3832 1.395 . S
C3834 C3837 1.403 . S
C3835 C3832 1.403 . S
C3835 C3836 1.524 . S
C3835 C3839 1.400 . S
C3836 H3821 0.960 . S
C3836 H3822 0.960 . S
C3836 H3823 0.960 . S
C3836 C3835 1.524 . S
C3837 C3834 1.403 . S
C3837 C3838 1.392 . S
C3837 C3841 1.495 . S
C3838 C3837 1.392 . S
C3838 C3839 1.385 . S
C3838 C3840 1.478 . S
C3839 H3833 0.930 . S
C3839 C3835 1.400 . S
C3839 C3838 1.385 . S
C3840 C3838 1.478 . S
C3840 C3842 1.381 . S
C3840 C3846 1.383 . S
C3841 C3837 1.495 . S
C3841 H3847 0.959 . S
C3841 H3848 0.961 . S
C3841 H3849 0.960 . S
C3842 C3840 1.381 . S
C3842 C3843 1.394 . S
C3842 H3850 0.930 . S
C3843 C3842 1.394 . S
C3843 C3844 1.383 . S
C3843 H3851 0.929 . S
C3844 C3843 1.383 . S
C3844 C3845 1.377 . S
C3845 H3829 0.930 . S
C3845 C3844 1.377 . S
C3845 C3846 1.379 . S
C3846 H3830 0.931 . S
C3846 C3840 1.383 . S
C3846 C3845 1.379 . S
H3847 C3841 0.959 . S
H3848 C3841 0.961 . S
H3849 C3841 0.960 . S
H3850 C3842 0.930 . S
H3851 C3843 0.929 . S
H3852 C3860 0.929 . S
H3853 C3862 0.930 . S
H3854 C3864 0.930 . S
H3855 C3867 0.929 . S
H3856 C3870 0.930 . S
H3857 C3872 0.960 . S
H3858 C3872 0.960 . S
H3859 C3872 0.960 . S
C3860 H3852 0.929 . S
C3860 C3861 1.377 . S
C3860 C3862 1.384 . S
C3861 C3860 1.377 . S
C3861 C3867 1.390 . S
C3862 H3853 0.930 . S
C3862 C3860 1.384 . S
C3862 C3863 1.372 . S
C3863 C3862 1.372 . S
C3863 C3864 1.400 . S
C3863 C3868 1.490 . S
C3864 H3854 0.930 . S
C3864 C3863 1.400 . S
C3864 C3867 1.386 . S
H3865 C3881 0.930 . S
H3866 C3882 0.931 . S
C3867 H3855 0.929 . S
C3867 C3861 1.390 . S
C3867 C3864 1.386 . S
C3868 C3863 1.490 . S
C3868 C3870 1.395 . S
C3868 C3871 1.403 . S
H3869 C3875 0.930 . S
C3870 H3856 0.930 . S
C3870 C3868 1.395 . S
C3870 C3873 1.403 . S
C3871 C3868 1.403 . S
C3871 C3872 1.524 . S
C3871 C3875 1.400 . S
C3872 H3857 0.960 . S
C3872 H3858 0.960 . S
C3872 H3859 0.960 . S
C3872 C3871 1.524 . S
C3873 C3870 1.403 . S
C3873 C3874 1.392 . S
C3873 C3877 1.495 . S
C3874 C3873 1.392 . S
C3874 C3875 1.385 . S
C3874 C3876 1.478 . S
C3875 H3869 0.930 . S
C3875 C3871 1.400 . S
C3875 C3874 1.385 . S
C3876 C3874 1.478 . S
C3876 C3878 1.381 . S
C3876 C3882 1.383 . S
C3877 C3873 1.495 . S
C3877 H3883 0.959 . S
C3877 H3884 0.961 . S
C3877 H3885 0.960 . S
C3878 C3876 1.381 . S
C3878 C3879 1.394 . S
C3878 H3886 0.930 . S
C3879 C3878 1.394 . S
C3879 C3880 1.383 . S
C3879 H3887 0.929 . S
C3880 C3879 1.383 . S
C3880 C3881 1.377 . S
C3881 H3865 0.930 . S
C3881 C3880 1.377 . S
C3881 C3882 1.379 . S
C3882 H3866 0.931 . S
C3882 C3876 1.383 . S
C3882 C3881 1.379 . S
H3883 C3877 0.959 . S
H3884 C3877 0.961 . S
H3885 C3877 0.960 . S
H3886 C3878 0.930 . S
H3887 C3879 0.929 . S
H3888 C3896 0.929 . S
H3889 C3898 0.930 . S
H3890 C3900 0.930 . S
H3891 C3903 0.929 . S
H3892 C3906 0.930 . S
H3893 C3908 0.960 . S
H3894 C3908 0.960 . S
H3895 C3908 0.960 . S
C3896 H3888 0.929 . S
C3896 C3897 1.377 . S
C3896 C3898 1.384 . S
C3897 C3896 1.377 . S
C3897 C3903 1.390 . S
C3898 H3889 0.930 . S
C3898 C3896 1.384 . S
C3898 C3899 1.372 . S
C3899 C3898 1.372 . S
C3899 C3900 1.400 . S
C3899 C3904 1.490 . S
C3900 H3890 0.930 . S
C3900 C3899 1.400 . S
C3900 C3903 1.386 . S
H3901 C3917 0.930 . S
H3902 C3918 0.931 . S
C3903 H3891 0.929 . S
C3903 C3897 1.390 . S
C3903 C3900 1.386 . S
C3904 C3899 1.490 . S
C3904 C3906 1.395 . S
C3904 C3907 1.403 . S
H3905 C3911 0.930 . S
C3906 H3892 0.930 . S
C3906 C3904 1.395 . S
C3906 C3909 1.403 . S
C3907 C3904 1.403 . S
C3907 C3908 1.524 . S
C3907 C3911 1.400 . S
C3908 H3893 0.960 . S
C3908 H3894 0.960 . S
C3908 H3895 0.960 . S
C3908 C3907 1.524 . S
C3909 C3906 1.403 . S
C3909 C3910 1.392 . S
C3909 C3913 1.495 . S
C3910 C3909 1.392 . S
C3910 C3911 1.385 . S
C3910 C3912 1.478 . S
C3911 H3905 0.930 . S
C3911 C3907 1.400 . S
C3911 C3910 1.385 . S
C3912 C3910 1.478 . S
C3912 C3914 1.381 . S
C3912 C3918 1.383 . S
C3913 C3909 1.495 . S
C3913 H3919 0.959 . S
C3913 H3920 0.961 . S
C3913 H3921 0.960 . S
C3914 C3912 1.381 . S
C3914 C3915 1.394 . S
C3914 H3922 0.930 . S
C3915 C3914 1.394 . S
C3915 C3916 1.383 . S
C3915 H3923 0.929 . S
C3916 C3915 1.383 . S
C3916 C3917 1.377 . S
C3917 H3901 0.930 . S
C3917 C3916 1.377 . S
C3917 C3918 1.379 . S
C3918 H3902 0.931 . S
C3918 C3912 1.383 . S
C3918 C3917 1.379 . S
H3919 C3913 0.959 . S
H3920 C3913 0.961 . S
H3921 C3913 0.960 . S
H3922 C3914 0.930 . S
H3923 C3915 0.929 . S
H3924 C3932 0.929 . S
H3925 C3934 0.930 . S
H3926 C3936 0.930 . S
H3927 C3939 0.929 . S
H3928 C3942 0.930 . S
H3929 C3944 0.960 . S
H3930 C3944 0.960 . S
H3931 C3944 0.960 . S
C3932 H3924 0.929 . S
C3932 C3933 1.377 . S
C3932 C3934 1.384 . S
C3933 C3932 1.377 . S
C3933 C3939 1.390 . S
C3934 H3925 0.930 . S
C3934 C3932 1.384 . S
C3934 C3935 1.372 . S
C3935 C3934 1.372 . S
C3935 C3936 1.400 . S
C3935 C3940 1.490 . S
C3936 H3926 0.930 . S
C3936 C3935 1.400 . S
C3936 C3939 1.386 . S
H3937 C3953 0.930 . S
H3938 C3954 0.931 . S
C3939 H3927 0.929 . S
C3939 C3933 1.390 . S
C3939 C3936 1.386 . S
C3940 C3935 1.490 . S
C3940 C3942 1.395 . S
C3940 C3943 1.403 . S
H3941 C3947 0.930 . S
C3942 H3928 0.930 . S
C3942 C3940 1.395 . S
C3942 C3945 1.403 . S
C3943 C3940 1.403 . S
C3943 C3944 1.524 . S
C3943 C3947 1.400 . S
C3944 H3929 0.960 . S
C3944 H3930 0.960 . S
C3944 H3931 0.960 . S
C3944 C3943 1.524 . S
C3945 C3942 1.403 . S
C3945 C3946 1.392 . S
C3945 C3949 1.495 . S
C3946 C3945 1.392 . S
C3946 C3947 1.385 . S
C3946 C3948 1.478 . S
C3947 H3941 0.930 . S
C3947 C3943 1.400 . S
C3947 C3946 1.385 . S
C3948 C3946 1.478 . S
C3948 C3950 1.381 . S
C3948 C3954 1.383 . S
C3949 C3945 1.495 . S
C3949 H3955 0.959 . S
C3949 H3956 0.961 . S
C3949 H3957 0.960 . S
C3950 C3948 1.381 . S
C3950 C3951 1.394 . S
C3950 H3958 0.930 . S
C3951 C3950 1.394 . S
C3951 C3952 1.383 . S
C3951 H3959 0.929 . S
C3952 C3951 1.383 . S
C3952 C3953 1.377 . S
C3953 H3937 0.930 . S
C3953 C3952 1.377 . S
C3953 C3954 1.379 . S
C3954 H3938 0.931 . S
C3954 C3948 1.383 . S
C3954 C3953 1.379 . S
H3955 C3949 0.959 . S
H3956 C3949 0.961 . S
H3957 C3949 0.960 . S
H3958 C3950 0.930 . S
H3959 C3951 0.929 . S
H3960 C3968 0.929 . S
H3961 C3970 0.930 . S
H3962 C3972 0.930 . S
H3963 C3975 0.929 . S
H3964 C3978 0.930 . S
H3965 C3980 0.960 . S
H3966 C3980 0.960 . S
H3967 C3980 0.960 . S
C3968 H3960 0.929 . S
C3968 C3969 1.377 . S
C3968 C3970 1.384 . S
C3969 C3968 1.377 . S
C3969 C3975 1.390 . S
C3970 H3961 0.930 . S
C3970 C3968 1.384 . S
C3970 C3971 1.372 . S
C3971 C3970 1.372 . S
C3971 C3972 1.400 . S
C3971 C3976 1.490 . S
C3972 H3962 0.930 . S
C3972 C3971 1.400 . S
C3972 C3975 1.386 . S
H3973 C3989 0.930 . S
H3974 C3990 0.931 . S
C3975 H3963 0.929 . S
C3975 C3969 1.390 . S
C3975 C3972 1.386 . S
C3976 C3971 1.490 . S
C3976 C3978 1.395 . S
C3976 C3979 1.403 . S
H3977 C3983 0.930 . S
C3978 H3964 0.930 . S
C3978 C3976 1.395 . S
C3978 C3981 1.403 . S
C3979 C3976 1.403 . S
C3979 C3980 1.524 . S
C3979 C3983 1.400 . S
C3980 H3965 0.960 . S
C3980 H3966 0.960 . S
C3980 H3967 0.960 . S
C3980 C3979 1.524 . S
C3981 C3978 1.403 . S
C3981 C3982 1.392 . S
C3981 C3985 1.495 . S
C3982 C3981 1.392 . S
C3982 C3983 1.385 . S
C3982 C3984 1.478 . S
C3983 H3977 0.930 . S
C3983 C3979 1.400 . S
C3983 C3982 1.385 . S
C3984 C3982 1.478 . S
C3984 C3986 1.381 . S
C3984 C3990 1.383 . S
C3985 C3981 1.495 . S
C3985 H3991 0.959 . S
C3985 H3992 0.961 . S
C3985 H3993 0.960 . S
C3986 C3984 1.381 . S
C3986 C3987 1.394 . S
C3986 H3994 0.930 . S
C3987 C3986 1.394 . S
C3987 C3988 1.383 . S
C3987 H3995 0.929 . S
C3988 C3987 1.383 . S
C3988 C3989 1.377 . S
C3989 H3973 0.930 . S
C3989 C3988 1.377 . S
C3989 C3990 1.379 . S
C3990 H3974 0.931 . S
C3990 C3984 1.383 . S
C3990 C3989 1.379 . S
H3991 C3985 0.959 . S
H3992 C3985 0.961 . S
H3993 C3985 0.960 . S
H3994 C3986 0.930 . S
H3995 C3987 0.929 . S
H3996 C4004 0.929 . S
H3997 C4006 0.930 . S
H3998 C4008 0.930 . S
H3999 C4011 0.929 . S
H4000 C4014 0.930 . S
H4001 C4016 0.960 . S
H4002 C4016 0.960 . S
H4003 C4016 0.960 . S
C4004 H3996 0.929 . S
C4004 C4005 1.377 . S
C4004 C4006 1.384 . S
C4005 C4004 1.377 . S
C4005 C4011 1.390 . S
C4006 H3997 0.930 . S
C4006 C4004 1.384 . S
C4006 C4007 1.372 . S
C4007 C4006 1.372 . S
C4007 C4008 1.400 . S
C4007 C4012 1.490 . S
C4008 H3998 0.930 . S
C4008 C4007 1.400 . S
C4008 C4011 1.386 . S
H4009 C4025 0.930 . S
H4010 C4026 0.931 . S
C4011 H3999 0.929 . S
C4011 C4005 1.390 . S
C4011 C4008 1.386 . S
C4012 C4007 1.490 . S
C4012 C4014 1.395 . S
C4012 C4015 1.403 . S
H4013 C4019 0.930 . S
C4014 H4000 0.930 . S
C4014 C4012 1.395 . S
C4014 C4017 1.403 . S
C4015 C4012 1.403 . S
C4015 C4016 1.524 . S
C4015 C4019 1.400 . S
C4016 H4001 0.960 . S
C4016 H4002 0.960 . S
C4016 H4003 0.960 . S
C4016 C4015 1.524 . S
C4017 C4014 1.403 . S
C4017 C4018 1.392 . S
C4017 C4021 1.495 . S
C4018 C4017 1.392 . S
C4018 C4019 1.385 . S
C4018 C4020 1.478 . S
C4019 H4013 0.930 . S
C4019 C4015 1.400 . S
C4019 C4018 1.385 . S
C4020 C4018 1.478 . S
C4020 C4022 1.381 . S
C4020 C4026 1.383 . S
C4021 C4017 1.495 . S
C4021 H4027 0.959 . S
C4021 H4028 0.961 . S
C4021 H4029 0.960 . S
C4022 C4020 1.381 . S
C4022 C4023 1.394 . S
C4022 H4030 0.930 . S
C4023 C4022 1.394 . S
C4023 C4024 1.383 . S
C4023 H4031 0.929 . S
C4024 C4023 1.383 . S
C4024 C4025 1.377 . S
C4025 H4009 0.930 . S
C4025 C4024 1.377 . S
C4025 C4026 1.379 . S
C4026 H4010 0.931 . S
C4026 C4020 1.383 . S
C4026 C4025 1.379 . S
H4027 C4021 0.959 . S
H4028 C4021 0.961 . S
H4029 C4021 0.960 . S
H4030 C4022 0.930 . S
H4031 C4023 0.929 . S
H4032 C4040 0.929 . S
H4033 C4042 0.930 . S
H4034 C4044 0.930 . S
H4035 C4047 0.929 . S
H4036 C4050 0.930 . S
H4037 C4052 0.960 . S
H4038 C4052 0.960 . S
H4039 C4052 0.960 . S
C4040 H4032 0.929 . S
C4040 C4041 1.377 . S
C4040 C4042 1.384 . S
C4041 C4040 1.377 . S
C4041 C4047 1.390 . S
C4042 H4033 0.930 . S
C4042 C4040 1.384 . S
C4042 C4043 1.372 . S
C4043 C4042 1.372 . S
C4043 C4044 1.400 . S
C4043 C4048 1.490 . S
C4044 H4034 0.930 . S
C4044 C4043 1.400 . S
C4044 C4047 1.386 . S
H4045 C4061 0.930 . S
H4046 C4062 0.931 . S
C4047 H4035 0.929 . S
C4047 C4041 1.390 . S
C4047 C4044 1.386 . S
C4048 C4043 1.490 . S
C4048 C4050 1.395 . S
C4048 C4051 1.403 . S
H4049 C4055 0.930 . S
C4050 H4036 0.930 . S
C4050 C4048 1.395 . S
C4050 C4053 1.403 . S
C4051 C4048 1.403 . S
C4051 C4052 1.524 . S
C4051 C4055 1.400 . S
C4052 H4037 0.960 . S
C4052 H4038 0.960 . S
C4052 H4039 0.960 . S
C4052 C4051 1.524 . S
C4053 C4050 1.403 . S
C4053 C4054 1.392 . S
C4053 C4057 1.495 . S
C4054 C4053 1.392 . S
C4054 C4055 1.385 . S
C4054 C4056 1.478 . S
C4055 H4049 0.930 . S
C4055 C4051 1.400 . S
C4055 C4054 1.385 . S
C4056 C4054 1.478 . S
C4056 C4058 1.381 . S
C4056 C4062 1.383 . S
C4057 C4053 1.495 . S
C4057 H4063 0.959 . S
C4057 H4064 0.961 . S
C4057 H4065 0.960 . S
C4058 C4056 1.381 . S
C4058 C4059 1.394 . S
C4058 H4066 0.930 . S
C4059 C4058 1.394 . S
C4059 C4060 1.383 . S
C4059 H4067 0.929 . S
C4060 C4059 1.383 . S
C4060 C4061 1.377 . S
C4061 H4045 0.930 . S
C4061 C4060 1.377 . S
C4061 C4062 1.379 . S
C4062 H4046 0.931 . S
C4062 C4056 1.383 . S
C4062 C4061 1.379 . S
H4063 C4057 0.959 . S
H4064 C4057 0.961 . S
H4065 C4057 0.960 . S
H4066 C4058 0.930 . S
H4067 C4059 0.929 . S
H4068 C4076 0.929 . S
H4069 C4078 0.930 . S
H4070 C4080 0.930 . S
H4071 C4083 0.929 . S
H4072 C4086 0.930 . S
H4073 C4088 0.960 . S
H4074 C4088 0.960 . S
H4075 C4088 0.960 . S
C4076 H4068 0.929 . S
C4076 C4077 1.377 . S
C4076 C4078 1.384 . S
C4077 C4076 1.377 . S
C4077 C4083 1.390 . S
C4078 H4069 0.930 . S
C4078 C4076 1.384 . S
C4078 C4079 1.372 . S
C4079 C4078 1.372 . S
C4079 C4080 1.400 . S
C4079 C4084 1.490 . S
C4080 H4070 0.930 . S
C4080 C4079 1.400 . S
C4080 C4083 1.386 . S
H4081 C4097 0.930 . S
H4082 C4098 0.931 . S
C4083 H4071 0.929 . S
C4083 C4077 1.390 . S
C4083 C4080 1.386 . S
C4084 C4079 1.490 . S
C4084 C4086 1.395 . S
C4084 C4087 1.403 . S
H4085 C4091 0.930 . S
C4086 H4072 0.930 . S
C4086 C4084 1.395 . S
C4086 C4089 1.403 . S
C4087 C4084 1.403 . S
C4087 C4088 1.524 . S
C4087 C4091 1.400 . S
C4088 H4073 0.960 . S
C4088 H4074 0.960 . S
C4088 H4075 0.960 . S
C4088 C4087 1.524 . S
C4089 C4086 1.403 . S
C4089 C4090 1.392 . S
C4089 C4093 1.495 . S
C4090 C4089 1.392 . S
C4090 C4091 1.385 . S
C4090 C4092 1.478 . S
C4091 H4085 0.930 . S
C4091 C4087 1.400 . S
C4091 C4090 1.385 . S
C4092 C4090 1.478 . S
C4092 C4094 1.381 . S
C4092 C4098 1.383 . S
C4093 C4089 1.495 . S
C4093 H4099 0.959 . S
C4093 H4100 0.961 . S
C4093 H4101 0.960 . S
C4094 C4092 1.381 . S
C4094 C4095 1.394 . S
C4094 H4102 0.930 . S
C4095 C4094 1.394 . S
C4095 C4096 1.383 . S
C4095 H4103 0.929 . S
C4096 C4095 1.383 . S
C4096 C4097 1.377 . S
C4097 H4081 0.930 . S
C4097 C4096 1.377 . S
C4097 C4098 1.379 . S
C4098 H4082 0.931 . S
C4098 C4092 1.383 . S
C4098 C4097 1.379 . S
H4099 C4093 0.959 . S
H4100 C4093 0.961 . S
H4101 C4093 0.960 . S
H4102 C4094 0.930 . S
H4103 C4095 0.929 . S
H4104 C4112 0.929 . S
H4105 C4114 0.930 . S
H4106 C4116 0.930 . S
H4107 C4119 0.929 . S
H4108 C4122 0.930 . S
H4109 C4124 0.960 . S
H4110 C4124 0.960 . S
H4111 C4124 0.960 . S
C4112 H4104 0.929 . S
C4112 C4113 1.377 . S
C4112 C4114 1.384 . S
C4113 C4112 1.377 . S
C4113 C4119 1.390 . S
C4114 H4105 0.930 . S
C4114 C4112 1.384 . S
C4114 C4115 1.372 . S
C4115 C4114 1.372 . S
C4115 C4116 1.400 . S
C4115 C4120 1.490 . S
C4116 H4106 0.930 . S
C4116 C4115 1.400 . S
C4116 C4119 1.386 . S
H4117 C4133 0.930 . S
H4118 C4134 0.931 . S
C4119 H4107 0.929 . S
C4119 C4113 1.390 . S
C4119 C4116 1.386 . S
C4120 C4115 1.490 . S
C4120 C4122 1.395 . S
C4120 C4123 1.403 . S
H4121 C4127 0.930 . S
C4122 H4108 0.930 . S
C4122 C4120 1.395 . S
C4122 C4125 1.403 . S
C4123 C4120 1.403 . S
C4123 C4124 1.524 . S
C4123 C4127 1.400 . S
C4124 H4109 0.960 . S
C4124 H4110 0.960 . S
C4124 H4111 0.960 . S
C4124 C4123 1.524 . S
C4125 C4122 1.403 . S
C4125 C4126 1.392 . S
C4125 C4129 1.495 . S
C4126 C4125 1.392 . S
C4126 C4127 1.385 . S
C4126 C4128 1.478 . S
C4127 H4121 0.930 . S
C4127 C4123 1.400 . S
C4127 C4126 1.385 . S
C4128 C4126 1.478 . S
C4128 C4130 1.381 . S
C4128 C4134 1.383 . S
C4129 C4125 1.495 . S
C4129 H4135 0.959 . S
C4129 H4136 0.961 . S
C4129 H4137 0.960 . S
C4130 C4128 1.381 . S
C4130 C4131 1.394 . S
C4130 H4138 0.930 . S
C4131 C4130 1.394 . S
C4131 C4132 1.383 . S
C4131 H4139 0.929 . S
C4132 C4131 1.383 . S
C4132 C4133 1.377 . S
C4133 H4117 0.930 . S
C4133 C4132 1.377 . S
C4133 C4134 1.379 . S
C4134 H4118 0.931 . S
C4134 C4128 1.383 . S
C4134 C4133 1.379 . S
H4135 C4129 0.959 . S
H4136 C4129 0.961 . S
H4137 C4129 0.960 . S
H4138 C4130 0.930 . S
H4139 C4131 0.929 . S
H4140 C4148 0.929 . S
H4141 C4150 0.930 . S
H4142 C4152 0.930 . S
H4143 C4155 0.929 . S
H4144 C4158 0.930 . S
H4145 C4160 0.960 . S
H4146 C4160 0.960 . S
H4147 C4160 0.960 . S
C4148 H4140 0.929 . S
C4148 C4149 1.377 . S
C4148 C4150 1.384 . S
C4149 C4148 1.377 . S
C4149 C4155 1.390 . S
C4150 H4141 0.930 . S
C4150 C4148 1.384 . S
C4150 C4151 1.372 . S
C4151 C4150 1.372 . S
C4151 C4152 1.400 . S
C4151 C4156 1.490 . S
C4152 H4142 0.930 . S
C4152 C4151 1.400 . S
C4152 C4155 1.386 . S
H4153 C4169 0.930 . S
H4154 C4170 0.931 . S
C4155 H4143 0.929 . S
C4155 C4149 1.390 . S
C4155 C4152 1.386 . S
C4156 C4151 1.490 . S
C4156 C4158 1.395 . S
C4156 C4159 1.403 . S
H4157 C4163 0.930 . S
C4158 H4144 0.930 . S
C4158 C4156 1.395 . S
C4158 C4161 1.403 . S
C4159 C4156 1.403 . S
C4159 C4160 1.524 . S
C4159 C4163 1.400 . S
C4160 H4145 0.960 . S
C4160 H4146 0.960 . S
C4160 H4147 0.960 . S
C4160 C4159 1.524 . S
C4161 C4158 1.403 . S
C4161 C4162 1.392 . S
C4161 C4165 1.495 . S
C4162 C4161 1.392 . S
C4162 C4163 1.385 . S
C4162 C4164 1.478 . S
C4163 H4157 0.930 . S
C4163 C4159 1.400 . S
C4163 C4162 1.385 . S
C4164 C4162 1.478 . S
C4164 C4166 1.381 . S
C4164 C4170 1.383 . S
C4165 C4161 1.495 . S
C4165 H4171 0.959 . S
C4165 H4172 0.961 . S
C4165 H4173 0.960 . S
C4166 C4164 1.381 . S
C4166 C4167 1.394 . S
C4166 H4174 0.930 . S
C4167 C4166 1.394 . S
C4167 C4168 1.383 . S
C4167 H4175 0.929 . S
C4168 C4167 1.383 . S
C4168 C4169 1.377 . S
C4169 H4153 0.930 . S
C4169 C4168 1.377 . S
C4169 C4170 1.379 . S
C4170 H4154 0.931 . S
C4170 C4164 1.383 . S
C4170 C4169 1.379 . S
H4171 C4165 0.959 . S
H4172 C4165 0.961 . S
H4173 C4165 0.960 . S
H4174 C4166 0.930 . S
H4175 C4167 0.929 . S
H4176 C4184 0.929 . S
H4177 C4186 0.930 . S
H4178 C4188 0.930 . S
H4179 C4191 0.929 . S
H4180 C4194 0.930 . S
H4181 C4196 0.960 . S
H4182 C4196 0.960 . S
H4183 C4196 0.960 . S
C4184 H4176 0.929 . S
C4184 C4185 1.377 . S
C4184 C4186 1.384 . S
C4185 C4184 1.377 . S
C4185 C4191 1.390 . S
C4186 H4177 0.930 . S
C4186 C4184 1.384 . S
C4186 C4187 1.372 . S
C4187 C4186 1.372 . S
C4187 C4188 1.400 . S
C4187 C4192 1.490 . S
C4188 H4178 0.930 . S
C4188 C4187 1.400 . S
C4188 C4191 1.386 . S
H4189 C4205 0.930 . S
H4190 C4206 0.931 . S
C4191 H4179 0.929 . S
C4191 C4185 1.390 . S
C4191 C4188 1.386 . S
C4192 C4187 1.490 . S
C4192 C4194 1.395 . S
C4192 C4195 1.403 . S
H4193 C4199 0.930 . S
C4194 H4180 0.930 . S
C4194 C4192 1.395 . S
C4194 C4197 1.403 . S
C4195 C4192 1.403 . S
C4195 C4196 1.524 . S
C4195 C4199 1.400 . S
C4196 H4181 0.960 . S
C4196 H4182 0.960 . S
C4196 H4183 0.960 . S
C4196 C4195 1.524 . S
C4197 C4194 1.403 . S
C4197 C4198 1.392 . S
C4197 C4201 1.495 . S
C4198 C4197 1.392 . S
C4198 C4199 1.385 . S
C4198 C4200 1.478 . S
C4199 H4193 0.930 . S
C4199 C4195 1.400 . S
C4199 C4198 1.385 . S
C4200 C4198 1.478 . S
C4200 C4202 1.381 . S
C4200 C4206 1.383 . S
C4201 C4197 1.495 . S
C4201 H4207 0.959 . S
C4201 H4208 0.961 . S
C4201 H4209 0.960 . S
C4202 C4200 1.381 . S
C4202 C4203 1.394 . S
C4202 H4210 0.930 . S
C4203 C4202 1.394 . S
C4203 C4204 1.383 . S
C4203 H4211 0.929 . S
C4204 C4203 1.383 . S
C4204 C4205 1.377 . S
C4205 H4189 0.930 . S
C4205 C4204 1.377 . S
C4205 C4206 1.379 . S
C4206 H4190 0.931 . S
C4206 C4200 1.383 . S
C4206 C4205 1.379 . S
H4207 C4201 0.959 . S
H4208 C4201 0.961 . S
H4209 C4201 0.960 . S
H4210 C4202 0.930 . S
H4211 C4203 0.929 . S
H4212 C4220 0.929 . S
H4213 C4222 0.930 . S
H4214 C4224 0.930 . S
H4215 C4227 0.929 . S
H4216 C4230 0.930 . S
H4217 C4232 0.960 . S
H4218 C4232 0.960 . S
H4219 C4232 0.960 . S
C4220 H4212 0.929 . S
C4220 C4221 1.377 . S
C4220 C4222 1.384 . S
C4221 C4220 1.377 . S
C4221 C4227 1.390 . S
C4222 H4213 0.930 . S
C4222 C4220 1.384 . S
C4222 C4223 1.372 . S
C4223 C4222 1.372 . S
C4223 C4224 1.400 . S
C4223 C4228 1.490 . S
C4224 H4214 0.930 . S
C4224 C4223 1.400 . S
C4224 C4227 1.386 . S
H4225 C4241 0.930 . S
H4226 C4242 0.931 . S
C4227 H4215 0.929 . S
C4227 C4221 1.390 . S
C4227 C4224 1.386 . S
C4228 C4223 1.490 . S
C4228 C4230 1.395 . S
C4228 C4231 1.403 . S
H4229 C4235 0.930 . S
C4230 H4216 0.930 . S
C4230 C4228 1.395 . S
C4230 C4233 1.403 . S
C4231 C4228 1.403 . S
C4231 C4232 1.524 . S
C4231 C4235 1.400 . S
C4232 H4217 0.960 . S
C4232 H4218 0.960 . S
C4232 H4219 0.960 . S
C4232 C4231 1.524 . S
C4233 C4230 1.403 . S
C4233 C4234 1.392 . S
C4233 C4237 1.495 . S
C4234 C4233 1.392 . S
C4234 C4235 1.385 . S
C4234 C4236 1.478 . S
C4235 H4229 0.930 . S
C4235 C4231 1.400 . S
C4235 C4234 1.385 . S
C4236 C4234 1.478 . S
C4236 C4238 1.381 . S
C4236 C4242 1.383 . S
C4237 C4233 1.495 . S
C4237 H4243 0.959 . S
C4237 H4244 0.961 . S
C4237 H4245 0.960 . S
C4238 C4236 1.381 . S
C4238 C4239 1.394 . S
C4238 H4246 0.930 . S
C4239 C4238 1.394 . S
C4239 C4240 1.383 . S
C4239 H4247 0.929 . S
C4240 C4239 1.383 . S
C4240 C4241 1.377 . S
C4241 H4225 0.930 . S
C4241 C4240 1.377 . S
C4241 C4242 1.379 . S
C4242 H4226 0.931 . S
C4242 C4236 1.383 . S
C4242 C4241 1.379 . S
H4243 C4237 0.959 . S
H4244 C4237 0.961 . S
H4245 C4237 0.960 . S
H4246 C4238 0.930 . S
H4247 C4239 0.929 . S
H4248 C4256 0.929 . S
H4249 C4258 0.930 . S
H4250 C4260 0.930 . S
H4251 C4263 0.929 . S
H4252 C4266 0.930 . S
H4253 C4268 0.960 . S
H4254 C4268 0.960 . S
H4255 C4268 0.960 . S
C4256 H4248 0.929 . S
C4256 C4257 1.377 . S
C4256 C4258 1.384 . S
C4257 C4256 1.377 . S
C4257 C4263 1.390 . S
C4258 H4249 0.930 . S
C4258 C4256 1.384 . S
C4258 C4259 1.372 . S
C4259 C4258 1.372 . S
C4259 C4260 1.400 . S
C4259 C4264 1.490 . S
C4260 H4250 0.930 . S
C4260 C4259 1.400 . S
C4260 C4263 1.386 . S
H4261 C4277 0.930 . S
H4262 C4278 0.931 . S
C4263 H4251 0.929 . S
C4263 C4257 1.390 . S
C4263 C4260 1.386 . S
C4264 C4259 1.490 . S
C4264 C4266 1.395 . S
C4264 C4267 1.403 . S
H4265 C4271 0.930 . S
C4266 H4252 0.930 . S
C4266 C4264 1.395 . S
C4266 C4269 1.403 . S
C4267 C4264 1.403 . S
C4267 C4268 1.524 . S
C4267 C4271 1.400 . S
C4268 H4253 0.960 . S
C4268 H4254 0.960 . S
C4268 H4255 0.960 . S
C4268 C4267 1.524 . S
C4269 C4266 1.403 . S
C4269 C4270 1.392 . S
C4269 C4273 1.495 . S
C4270 C4269 1.392 . S
C4270 C4271 1.385 . S
C4270 C4272 1.478 . S
C4271 H4265 0.930 . S
C4271 C4267 1.400 . S
C4271 C4270 1.385 . S
C4272 C4270 1.478 . S
C4272 C4274 1.381 . S
C4272 C4278 1.383 . S
C4273 C4269 1.495 . S
C4273 H4279 0.959 . S
C4273 H4280 0.961 . S
C4273 H4281 0.960 . S
C4274 C4272 1.381 . S
C4274 C4275 1.394 . S
C4274 H4282 0.930 . S
C4275 C4274 1.394 . S
C4275 C4276 1.383 . S
C4275 H4283 0.929 . S
C4276 C4275 1.383 . S
C4276 C4277 1.377 . S
C4277 H4261 0.930 . S
C4277 C4276 1.377 . S
C4277 C4278 1.379 . S
C4278 H4262 0.931 . S
C4278 C4272 1.383 . S
C4278 C4277 1.379 . S
H4279 C4273 0.959 . S
H4280 C4273 0.961 . S
H4281 C4273 0.960 . S
H4282 C4274 0.930 . S
H4283 C4275 0.929 . S
H4284 C4292 0.929 . S
H4285 C4294 0.930 . S
H4286 C4296 0.930 . S
H4287 C4299 0.929 . S
H4288 C4302 0.930 . S
H4289 C4304 0.960 . S
H4290 C4304 0.960 . S
H4291 C4304 0.960 . S
C4292 H4284 0.929 . S
C4292 C4293 1.377 . S
C4292 C4294 1.384 . S
C4293 C4292 1.377 . S
C4293 C4299 1.390 . S
C4294 H4285 0.930 . S
C4294 C4292 1.384 . S
C4294 C4295 1.372 . S
C4295 C4294 1.372 . S
C4295 C4296 1.400 . S
C4295 C4300 1.490 . S
C4296 H4286 0.930 . S
C4296 C4295 1.400 . S
C4296 C4299 1.386 . S
H4297 C4313 0.930 . S
H4298 C4314 0.931 . S
C4299 H4287 0.929 . S
C4299 C4293 1.390 . S
C4299 C4296 1.386 . S
C4300 C4295 1.490 . S
C4300 C4302 1.395 . S
C4300 C4303 1.403 . S
H4301 C4307 0.930 . S
C4302 H4288 0.930 . S
C4302 C4300 1.395 . S
C4302 C4305 1.403 . S
C4303 C4300 1.403 . S
C4303 C4304 1.524 . S
C4303 C4307 1.400 . S
C4304 H4289 0.960 . S
C4304 H4290 0.960 . S
C4304 H4291 0.960 . S
C4304 C4303 1.524 . S
C4305 C4302 1.403 . S
C4305 C4306 1.392 . S
C4305 C4309 1.495 . S
C4306 C4305 1.392 . S
C4306 C4307 1.385 . S
C4306 C4308 1.478 . S
C4307 H4301 0.930 . S
C4307 C4303 1.400 . S
C4307 C4306 1.385 . S
C4308 C4306 1.478 . S
C4308 C4310 1.381 . S
C4308 C4314 1.383 . S
C4309 C4305 1.495 . S
C4309 H4315 0.959 . S
C4309 H4316 0.961 . S
C4309 H4317 0.960 . S
C4310 C4308 1.381 . S
C4310 C4311 1.394 . S
C4310 H4318 0.930 . S
C4311 C4310 1.394 . S
C4311 C4312 1.383 . S
C4311 H4319 0.929 . S
C4312 C4311 1.383 . S
C4312 C4313 1.377 . S
C4313 H4297 0.930 . S
C4313 C4312 1.377 . S
C4313 C4314 1.379 . S
C4314 H4298 0.931 . S
C4314 C4308 1.383 . S
C4314 C4313 1.379 . S
H4315 C4309 0.959 . S
H4316 C4309 0.961 . S
H4317 C4309 0.960 . S
H4318 C4310 0.930 . S
H4319 C4311 0.929 . S
H4320 C4328 0.929 . S
H4321 C4330 0.930 . S
H4322 C4332 0.930 . S
H4323 C4335 0.929 . S
H4324 C4338 0.930 . S
H4325 C4340 0.960 . S
H4326 C4340 0.960 . S
H4327 C4340 0.960 . S
C4328 H4320 0.929 . S
C4328 C4329 1.377 . S
C4328 C4330 1.384 . S
C4329 C4328 1.377 . S
C4329 C4335 1.390 . S
C4330 H4321 0.930 . S
C4330 C4328 1.384 . S
C4330 C4331 1.372 . S
C4331 C4330 1.372 . S
C4331 C4332 1.400 . S
C4331 C4336 1.490 . S
C4332 H4322 0.930 . S
C4332 C4331 1.400 . S
C4332 C4335 1.386 . S
H4333 C4349 0.930 . S
H4334 C4350 0.931 . S
C4335 H4323 0.929 . S
C4335 C4329 1.390 . S
C4335 C4332 1.386 . S
C4336 C4331 1.490 . S
C4336 C4338 1.395 . S
C4336 C4339 1.403 . S
H4337 C4343 0.930 . S
C4338 H4324 0.930 . S
C4338 C4336 1.395 . S
C4338 C4341 1.403 . S
C4339 C4336 1.403 . S
C4339 C4340 1.524 . S
C4339 C4343 1.400 . S
C4340 H4325 0.960 . S
C4340 H4326 0.960 . S
C4340 H4327 0.960 . S
C4340 C4339 1.524 . S
C4341 C4338 1.403 . S
C4341 C4342 1.392 . S
C4341 C4345 1.495 . S
C4342 C4341 1.392 . S
C4342 C4343 1.385 . S
C4342 C4344 1.478 . S
C4343 H4337 0.930 . S
C4343 C4339 1.400 . S
C4343 C4342 1.385 . S
C4344 C4342 1.478 . S
C4344 C4346 1.381 . S
C4344 C4350 1.383 . S
C4345 C4341 1.495 . S
C4345 H4351 0.959 . S
C4345 H4352 0.961 . S
C4345 H4353 0.960 . S
C4346 C4344 1.381 . S
C4346 C4347 1.394 . S
C4346 H4354 0.930 . S
C4347 C4346 1.394 . S
C4347 C4348 1.383 . S
C4347 H4355 0.929 . S
C4348 C4347 1.383 . S
C4348 C4349 1.377 . S
C4349 H4333 0.930 . S
C4349 C4348 1.377 . S
C4349 C4350 1.379 . S
C4350 H4334 0.931 . S
C4350 C4344 1.383 . S
C4350 C4349 1.379 . S
H4351 C4345 0.959 . S
H4352 C4345 0.961 . S
H4353 C4345 0.960 . S
H4354 C4346 0.930 . S
H4355 C4347 0.929 . S
H4356 C4364 0.929 . S
H4357 C4366 0.930 . S
H4358 C4368 0.930 . S
H4359 C4371 0.929 . S
H4360 C4374 0.930 . S
H4361 C4376 0.960 . S
H4362 C4376 0.960 . S
H4363 C4376 0.960 . S
C4364 H4356 0.929 . S
C4364 C4365 1.377 . S
C4364 C4366 1.384 . S
C4365 C4364 1.377 . S
C4365 C4371 1.390 . S
C4366 H4357 0.930 . S
C4366 C4364 1.384 . S
C4366 C4367 1.372 . S
C4367 C4366 1.372 . S
C4367 C4368 1.400 . S
C4367 C4372 1.490 . S
C4368 H4358 0.930 . S
C4368 C4367 1.400 . S
C4368 C4371 1.386 . S
H4369 C4385 0.930 . S
H4370 C4386 0.931 . S
C4371 H4359 0.929 . S
C4371 C4365 1.390 . S
C4371 C4368 1.386 . S
C4372 C4367 1.490 . S
C4372 C4374 1.395 . S
C4372 C4375 1.403 . S
H4373 C4379 0.930 . S
C4374 H4360 0.930 . S
C4374 C4372 1.395 . S
C4374 C4377 1.403 . S
C4375 C4372 1.403 . S
C4375 C4376 1.524 . S
C4375 C4379 1.400 . S
C4376 H4361 0.960 . S
C4376 H4362 0.960 . S
C4376 H4363 0.960 . S
C4376 C4375 1.524 . S
C4377 C4374 1.403 . S
C4377 C4378 1.392 . S
C4377 C4381 1.495 . S
C4378 C4377 1.392 . S
C4378 C4379 1.385 . S
C4378 C4380 1.478 . S
C4379 H4373 0.930 . S
C4379 C4375 1.400 . S
C4379 C4378 1.385 . S
C4380 C4378 1.478 . S
C4380 C4382 1.381 . S
C4380 C4386 1.383 . S
C4381 C4377 1.495 . S
C4381 H4387 0.959 . S
C4381 H4388 0.961 . S
C4381 H4389 0.960 . S
C4382 C4380 1.381 . S
C4382 C4383 1.394 . S
C4382 H4390 0.930 . S
C4383 C4382 1.394 . S
C4383 C4384 1.383 . S
C4383 H4391 0.929 . S
C4384 C4383 1.383 . S
C4384 C4385 1.377 . S
C4385 H4369 0.930 . S
C4385 C4384 1.377 . S
C4385 C4386 1.379 . S
C4386 H4370 0.931 . S
C4386 C4380 1.383 . S
C4386 C4385 1.379 . S
H4387 C4381 0.959 . S
H4388 C4381 0.961 . S
H4389 C4381 0.960 . S
H4390 C4382 0.930 . S
H4391 C4383 0.929 . S
H4392 C4400 0.929 . S
H4393 C4402 0.930 . S
H4394 C4404 0.930 . S
H4395 C4407 0.929 . S
H4396 C4410 0.930 . S
H4397 C4412 0.960 . S
H4398 C4412 0.960 . S
H4399 C4412 0.960 . S
C4400 H4392 0.929 . S
C4400 C4401 1.377 . S
C4400 C4402 1.384 . S
C4401 C4400 1.377 . S
C4401 C4407 1.390 . S
C4402 H4393 0.930 . S
C4402 C4400 1.384 . S
C4402 C4403 1.372 . S
C4403 C4402 1.372 . S
C4403 C4404 1.400 . S
C4403 C4408 1.490 . S
C4404 H4394 0.930 . S
C4404 C4403 1.400 . S
C4404 C4407 1.386 . S
H4405 C4421 0.930 . S
H4406 C4422 0.931 . S
C4407 H4395 0.929 . S
C4407 C4401 1.390 . S
C4407 C4404 1.386 . S
C4408 C4403 1.490 . S
C4408 C4410 1.395 . S
C4408 C4411 1.403 . S
H4409 C4415 0.930 . S
C4410 H4396 0.930 . S
C4410 C4408 1.395 . S
C4410 C4413 1.403 . S
C4411 C4408 1.403 . S
C4411 C4412 1.524 . S
C4411 C4415 1.400 . S
C4412 H4397 0.960 . S
C4412 H4398 0.960 . S
C4412 H4399 0.960 . S
C4412 C4411 1.524 . S
C4413 C4410 1.403 . S
C4413 C4414 1.392 . S
C4413 C4417 1.495 . S
C4414 C4413 1.392 . S
C4414 C4415 1.385 . S
C4414 C4416 1.478 . S
C4415 H4409 0.930 . S
C4415 C4411 1.400 . S
C4415 C4414 1.385 . S
C4416 C4414 1.478 . S
C4416 C4418 1.381 . S
C4416 C4422 1.383 . S
C4417 C4413 1.495 . S
C4417 H4423 0.959 . S
C4417 H4424 0.961 . S
C4417 H4425 0.960 . S
C4418 C4416 1.381 . S
C4418 C4419 1.394 . S
C4418 H4426 0.930 . S
C4419 C4418 1.394 . S
C4419 C4420 1.383 . S
C4419 H4427 0.929 . S
C4420 C4419 1.383 . S
C4420 C4421 1.377 . S
C4421 H4405 0.930 . S
C4421 C4420 1.377 . S
C4421 C4422 1.379 . S
C4422 H4406 0.931 . S
C4422 C4416 1.383 . S
C4422 C4421 1.379 . S
H4423 C4417 0.959 . S
H4424 C4417 0.961 . S
H4425 C4417 0.960 . S
H4426 C4418 0.930 . S
H4427 C4419 0.929 . S
H4428 C4436 0.929 . S
H4429 C4438 0.930 . S
H4430 C4440 0.930 . S
H4431 C4443 0.929 . S
H4432 C4446 0.930 . S
H4433 C4448 0.960 . S
H4434 C4448 0.960 . S
H4435 C4448 0.960 . S
C4436 H4428 0.929 . S
C4436 C4437 1.377 . S
C4436 C4438 1.384 . S
C4437 C4436 1.377 . S
C4437 C4443 1.390 . S
C4438 H4429 0.930 . S
C4438 C4436 1.384 . S
C4438 C4439 1.372 . S
C4439 C4438 1.372 . S
C4439 C4440 1.400 . S
C4439 C4444 1.490 . S
C4440 H4430 0.930 . S
C4440 C4439 1.400 . S
C4440 C4443 1.386 . S
H4441 C4457 0.930 . S
H4442 C4458 0.931 . S
C4443 H4431 0.929 . S
C4443 C4437 1.390 . S
C4443 C4440 1.386 . S
C4444 C4439 1.490 . S
C4444 C4446 1.395 . S
C4444 C4447 1.403 . S
H4445 C4451 0.930 . S
C4446 H4432 0.930 . S
C4446 C4444 1.395 . S
C4446 C4449 1.403 . S
C4447 C4444 1.403 . S
C4447 C4448 1.524 . S
C4447 C4451 1.400 . S
C4448 H4433 0.960 . S
C4448 H4434 0.960 . S
C4448 H4435 0.960 . S
C4448 C4447 1.524 . S
C4449 C4446 1.403 . S
C4449 C4450 1.392 . S
C4449 C4453 1.495 . S
C4450 C4449 1.392 . S
C4450 C4451 1.385 . S
C4450 C4452 1.478 . S
C4451 H4445 0.930 . S
C4451 C4447 1.400 . S
C4451 C4450 1.385 . S
C4452 C4450 1.478 . S
C4452 C4454 1.381 . S
C4452 C4458 1.383 . S
C4453 C4449 1.495 . S
C4453 H4459 0.959 . S
C4453 H4460 0.961 . S
C4453 H4461 0.960 . S
C4454 C4452 1.381 . S
C4454 C4455 1.394 . S
C4454 H4462 0.930 . S
C4455 C4454 1.394 . S
C4455 C4456 1.383 . S
C4455 H4463 0.929 . S
C4456 C4455 1.383 . S
C4456 C4457 1.377 . S
C4457 H4441 0.930 . S
C4457 C4456 1.377 . S
C4457 C4458 1.379 . S
C4458 H4442 0.931 . S
C4458 C4452 1.383 . S
C4458 C4457 1.379 . S
H4459 C4453 0.959 . S
H4460 C4453 0.961 . S
H4461 C4453 0.960 . S
H4462 C4454 0.930 . S
H4463 C4455 0.929 . S
H4464 C4472 0.929 . S
H4465 C4474 0.930 . S
H4466 C4476 0.930 . S
H4467 C4479 0.929 . S
H4468 C4482 0.930 . S
H4469 C4484 0.960 1_655 S
H4470 C4484 0.960 . S
H4471 C4484 0.960 . S
C4472 H4464 0.929 . S
C4472 C4473 1.377 . S
C4472 C4474 1.384 . S
C4473 C4472 1.377 . S
C4473 C4479 1.390 . S
C4474 H4465 0.930 . S
C4474 C4472 1.384 . S
C4474 C4475 1.372 . S
C4475 C4474 1.372 . S
C4475 C4476 1.400 . S
C4475 C4480 1.490 . S
C4476 H4466 0.930 . S
C4476 C4475 1.400 . S
C4476 C4479 1.386 . S
H4477 C4493 0.930 . S
H4478 C4494 0.931 . S
C4479 H4467 0.929 . S
C4479 C4473 1.390 . S
C4479 C4476 1.386 . S
C4480 C4475 1.490 . S
C4480 C4482 1.395 . S
C4480 C4483 1.403 . S
H4481 C4487 0.930 . S
C4482 H4468 0.930 . S
C4482 C4480 1.395 . S
C4482 C4485 1.403 1_455 S
C4483 C4480 1.403 . S
C4483 C4484 1.524 . S
C4483 C4487 1.400 1_455 S
C4484 H4469 0.960 1_455 S
C4484 H4470 0.960 . S
C4484 H4471 0.960 . S
C4484 C4483 1.524 . S
C4485 C4482 1.403 1_655 S
C4485 C4486 1.392 . S
C4485 C4489 1.495 . S
C4486 C4485 1.392 . S
C4486 C4487 1.385 . S
C4486 C4488 1.478 . S
C4487 H4481 0.930 . S
C4487 C4483 1.400 1_655 S
C4487 C4486 1.385 . S
C4488 C4486 1.478 . S
C4488 C4490 1.381 . S
C4488 C4494 1.383 . S
C4489 C4485 1.495 . S
C4489 H4495 0.959 1_655 S
C4489 H4496 0.961 . S
C4489 H4497 0.960 . S
C4490 C4488 1.381 . S
C4490 C4491 1.394 . S
C4490 H4498 0.930 . S
C4491 C4490 1.394 . S
C4491 C4492 1.383 . S
C4491 H4499 0.929 . S
C4492 C4491 1.383 . S
C4492 C4493 1.377 . S
C4493 H4477 0.930 . S
C4493 C4492 1.377 . S
C4493 C4494 1.379 . S
C4494 H4478 0.931 . S
C4494 C4488 1.383 . S
C4494 C4493 1.379 . S
H4495 C4489 0.959 1_455 S
H4496 C4489 0.961 . S
H4497 C4489 0.960 . S
H4498 C4490 0.930 . S
H4499 C4491 0.929 . S
H4500 C4508 0.929 . S
H4501 C4510 0.930 . S
H4502 C4512 0.930 . S
H4503 C4515 0.929 . S
H4504 C4518 0.930 . S
H4505 C4520 0.960 . S
H4506 C4520 0.960 . S
H4507 C4520 0.960 . S
C4508 H4500 0.929 . S
C4508 C4509 1.377 . S
C4508 C4510 1.384 . S
C4509 C4508 1.377 . S
C4509 C4515 1.390 . S
C4510 H4501 0.930 . S
C4510 C4508 1.384 . S
C4510 C4511 1.372 . S
C4511 C4510 1.372 . S
C4511 C4512 1.400 . S
C4511 C4516 1.490 . S
C4512 H4502 0.930 . S
C4512 C4511 1.400 . S
C4512 C4515 1.386 . S
H4513 C4529 0.930 . S
H4514 C4530 0.931 . S
C4515 H4503 0.929 . S
C4515 C4509 1.390 . S
C4515 C4512 1.386 . S
C4516 C4511 1.490 . S
C4516 C4518 1.395 . S
C4516 C4519 1.403 . S
H4517 C4523 0.930 . S
C4518 H4504 0.930 . S
C4518 C4516 1.395 . S
C4518 C4521 1.403 . S
C4519 C4516 1.403 . S
C4519 C4520 1.524 . S
C4519 C4523 1.400 . S
C4520 H4505 0.960 . S
C4520 H4506 0.960 . S
C4520 H4507 0.960 . S
C4520 C4519 1.524 . S
C4521 C4518 1.403 . S
C4521 C4522 1.392 . S
C4521 C4525 1.495 . S
C4522 C4521 1.392 . S
C4522 C4523 1.385 . S
C4522 C4524 1.478 . S
C4523 H4517 0.930 . S
C4523 C4519 1.400 . S
C4523 C4522 1.385 . S
C4524 C4522 1.478 . S
C4524 C4526 1.381 . S
C4524 C4530 1.383 . S
C4525 C4521 1.495 . S
C4525 H4531 0.959 . S
C4525 H4532 0.961 . S
C4525 H4533 0.960 . S
C4526 C4524 1.381 . S
C4526 C4527 1.394 . S
C4526 H4534 0.930 . S
C4527 C4526 1.394 . S
C4527 C4528 1.383 . S
C4527 H4535 0.929 . S
C4528 C4527 1.383 . S
C4528 C4529 1.377 . S
C4529 H4513 0.930 . S
C4529 C4528 1.377 . S
C4529 C4530 1.379 . S
C4530 H4514 0.931 . S
C4530 C4524 1.383 . S
C4530 C4529 1.379 . S
H4531 C4525 0.959 . S
H4532 C4525 0.961 . S
H4533 C4525 0.960 . S
H4534 C4526 0.930 . S
H4535 C4527 0.929 . S
H4536 C4544 0.929 . S
H4537 C4546 0.930 . S
H4538 C4548 0.930 . S
H4539 C4551 0.929 . S
H4540 C4554 0.930 . S
H4541 C4556 0.960 1_565 S
H4542 C4556 0.960 . S
H4543 C4556 0.960 . S
C4544 H4536 0.929 . S
C4544 C4545 1.377 . S
C4544 C4546 1.384 . S
C4545 C4544 1.377 . S
C4545 C4551 1.390 . S
C4546 H4537 0.930 . S
C4546 C4544 1.384 . S
C4546 C4547 1.372 . S
C4547 C4546 1.372 . S
C4547 C4548 1.400 . S
C4547 C4552 1.490 . S
C4548 H4538 0.930 . S
C4548 C4547 1.400 . S
C4548 C4551 1.386 . S
H4549 C4565 0.930 . S
H4550 C4566 0.931 . S
C4551 H4539 0.929 . S
C4551 C4545 1.390 . S
C4551 C4548 1.386 . S
C4552 C4547 1.490 . S
C4552 C4554 1.395 . S
C4552 C4555 1.403 . S
H4553 C4559 0.930 . S
C4554 H4540 0.930 . S
C4554 C4552 1.395 . S
C4554 C4557 1.403 1_545 S
C4555 C4552 1.403 . S
C4555 C4556 1.524 . S
C4555 C4559 1.400 1_545 S
C4556 H4541 0.960 1_545 S
C4556 H4542 0.960 . S
C4556 H4543 0.960 . S
C4556 C4555 1.524 . S
C4557 C4554 1.403 1_565 S
C4557 C4558 1.392 . S
C4557 C4561 1.495 . S
C4558 C4557 1.392 . S
C4558 C4559 1.385 . S
C4558 C4560 1.478 . S
C4559 H4553 0.930 . S
C4559 C4555 1.400 1_565 S
C4559 C4558 1.385 . S
C4560 C4558 1.478 . S
C4560 C4562 1.381 . S
C4560 C4566 1.383 . S
C4561 C4557 1.495 . S
C4561 H4567 0.959 1_565 S
C4561 H4568 0.961 . S
C4561 H4569 0.960 . S
C4562 C4560 1.381 . S
C4562 C4563 1.394 . S
C4562 H4570 0.930 . S
C4563 C4562 1.394 . S
C4563 C4564 1.383 . S
C4563 H4571 0.929 . S
C4564 C4563 1.383 . S
C4564 C4565 1.377 . S
C4565 H4549 0.930 . S
C4565 C4564 1.377 . S
C4565 C4566 1.379 . S
C4566 H4550 0.931 . S
C4566 C4560 1.383 . S
C4566 C4565 1.379 . S
H4567 C4561 0.959 1_545 S
H4568 C4561 0.961 . S
H4569 C4561 0.960 . S
H4570 C4562 0.930 . S
H4571 C4563 0.929 . S
H4572 C4580 0.929 . S
H4573 C4582 0.930 . S
H4574 C4584 0.930 . S
H4575 C4587 0.929 . S
H4576 C4590 0.930 . S
H4577 C4592 0.960 . S
H4578 C4592 0.960 . S
H4579 C4592 0.960 . S
C4580 H4572 0.929 . S
C4580 C4581 1.377 . S
C4580 C4582 1.384 . S
C4581 C4580 1.377 . S
C4581 C4587 1.390 . S
C4582 H4573 0.930 . S
C4582 C4580 1.384 . S
C4582 C4583 1.372 . S
C4583 C4582 1.372 . S
C4583 C4584 1.400 . S
C4583 C4588 1.490 . S
C4584 H4574 0.930 . S
C4584 C4583 1.400 . S
C4584 C4587 1.386 . S
H4585 C4601 0.930 . S
H4586 C4602 0.931 . S
C4587 H4575 0.929 . S
C4587 C4581 1.390 . S
C4587 C4584 1.386 . S
C4588 C4583 1.490 . S
C4588 C4590 1.395 . S
C4588 C4591 1.403 . S
H4589 C4595 0.930 . S
C4590 H4576 0.930 . S
C4590 C4588 1.395 . S
C4590 C4593 1.403 1_545 S
C4591 C4588 1.403 . S
C4591 C4592 1.524 . S
C4591 C4595 1.400 1_545 S
C4592 H4577 0.960 . S
C4592 H4578 0.960 . S
C4592 H4579 0.960 . S
C4592 C4591 1.524 . S
C4593 C4590 1.403 1_565 S
C4593 C4594 1.392 . S
C4593 C4597 1.495 . S
C4594 C4593 1.392 . S
C4594 C4595 1.385 . S
C4594 C4596 1.478 . S
C4595 H4589 0.930 . S
C4595 C4591 1.400 1_565 S
C4595 C4594 1.385 . S
C4596 C4594 1.478 . S
C4596 C4598 1.381 . S
C4596 C4602 1.383 . S
C4597 C4593 1.495 . S
C4597 H4603 0.959 . S
C4597 H4604 0.961 . S
C4597 H4605 0.960 . S
C4598 C4596 1.381 . S
C4598 C4599 1.394 . S
C4598 H4606 0.930 . S
C4599 C4598 1.394 . S
C4599 C4600 1.383 . S
C4599 H4607 0.929 . S
C4600 C4599 1.383 . S
C4600 C4601 1.377 . S
C4601 H4585 0.930 . S
C4601 C4600 1.377 . S
C4601 C4602 1.379 . S
C4602 H4586 0.931 . S
C4602 C4596 1.383 . S
C4602 C4601 1.379 . S
H4603 C4597 0.959 . S
H4604 C4597 0.961 . S
H4605 C4597 0.960 . S
H4606 C4598 0.930 . S
H4607 C4599 0.929 . S
H4608 C4616 0.929 . S
H4609 C4618 0.930 . S
H4610 C4620 0.930 . S
H4611 C4623 0.929 . S
H4612 C4626 0.930 . S
H4613 C4628 0.960 1_655 S
H4614 C4628 0.960 . S
H4615 C4628 0.960 . S
C4616 H4608 0.929 . S
C4616 C4617 1.377 . S
C4616 C4618 1.384 . S
C4617 C4616 1.377 . S
C4617 C4623 1.390 . S
C4618 H4609 0.930 . S
C4618 C4616 1.384 . S
C4618 C4619 1.372 . S
C4619 C4618 1.372 . S
C4619 C4620 1.400 . S
C4619 C4624 1.490 . S
C4620 H4610 0.930 . S
C4620 C4619 1.400 . S
C4620 C4623 1.386 . S
H4621 C4637 0.930 . S
H4622 C4638 0.931 . S
C4623 H4611 0.929 . S
C4623 C4617 1.390 . S
C4623 C4620 1.386 . S
C4624 C4619 1.490 . S
C4624 C4626 1.395 . S
C4624 C4627 1.403 . S
H4625 C4631 0.930 . S
C4626 H4612 0.930 . S
C4626 C4624 1.395 . S
C4626 C4629 1.403 1_455 S
C4627 C4624 1.403 . S
C4627 C4628 1.524 . S
C4627 C4631 1.400 1_455 S
C4628 H4613 0.960 1_455 S
C4628 H4614 0.960 . S
C4628 H4615 0.960 . S
C4628 C4627 1.524 . S
C4629 C4626 1.403 1_655 S
C4629 C4630 1.392 . S
C4629 C4633 1.495 . S
C4630 C4629 1.392 . S
C4630 C4631 1.385 . S
C4630 C4632 1.478 . S
C4631 H4625 0.930 . S
C4631 C4627 1.400 1_655 S
C4631 C4630 1.385 . S
C4632 C4630 1.478 . S
C4632 C4634 1.381 . S
C4632 C4638 1.383 . S
C4633 C4629 1.495 . S
C4633 H4639 0.959 1_655 S
C4633 H4640 0.961 . S
C4633 H4641 0.960 . S
C4634 C4632 1.381 . S
C4634 C4635 1.394 . S
C4634 H4642 0.930 . S
C4635 C4634 1.394 . S
C4635 C4636 1.383 . S
C4635 H4643 0.929 . S
C4636 C4635 1.383 . S
C4636 C4637 1.377 . S
C4637 H4621 0.930 . S
C4637 C4636 1.377 . S
C4637 C4638 1.379 . S
C4638 H4622 0.931 . S
C4638 C4632 1.383 . S
C4638 C4637 1.379 . S
H4639 C4633 0.959 1_455 S
H4640 C4633 0.961 . S
H4641 C4633 0.960 . S
H4642 C4634 0.930 . S
H4643 C4635 0.929 . S
H4644 C4652 0.929 . S
H4645 C4654 0.930 . S
H4646 C4656 0.930 . S
H4647 C4659 0.929 . S
H4648 C4662 0.930 . S
H4649 C4664 0.960 . S
H4650 C4664 0.960 . S
H4651 C4664 0.960 . S
C4652 H4644 0.929 . S
C4652 C4653 1.377 . S
C4652 C4654 1.384 . S
C4653 C4652 1.377 . S
C4653 C4659 1.390 . S
C4654 H4645 0.930 . S
C4654 C4652 1.384 . S
C4654 C4655 1.372 . S
C4655 C4654 1.372 . S
C4655 C4656 1.400 . S
C4655 C4660 1.490 . S
C4656 H4646 0.930 . S
C4656 C4655 1.400 . S
C4656 C4659 1.386 . S
H4657 C4673 0.930 . S
H4658 C4674 0.931 . S
C4659 H4647 0.929 . S
C4659 C4653 1.390 . S
C4659 C4656 1.386 . S
C4660 C4655 1.490 . S
C4660 C4662 1.395 . S
C4660 C4663 1.403 . S
H4661 C4667 0.930 . S
C4662 H4648 0.930 . S
C4662 C4660 1.395 . S
C4662 C4665 1.403 . S
C4663 C4660 1.403 . S
C4663 C4664 1.524 . S
C4663 C4667 1.400 . S
C4664 H4649 0.960 . S
C4664 H4650 0.960 . S
C4664 H4651 0.960 . S
C4664 C4663 1.524 . S
C4665 C4662 1.403 . S
C4665 C4666 1.392 . S
C4665 C4669 1.495 . S
C4666 C4665 1.392 . S
C4666 C4667 1.385 . S
C4666 C4668 1.478 . S
C4667 H4661 0.930 . S
C4667 C4663 1.400 . S
C4667 C4666 1.385 . S
C4668 C4666 1.478 . S
C4668 C4670 1.381 . S
C4668 C4674 1.383 . S
C4669 C4665 1.495 . S
C4669 H4675 0.959 . S
C4669 H4676 0.961 . S
C4669 H4677 0.960 . S
C4670 C4668 1.381 . S
C4670 C4671 1.394 . S
C4670 H4678 0.930 . S
C4671 C4670 1.394 . S
C4671 C4672 1.383 . S
C4671 H4679 0.929 . S
C4672 C4671 1.383 . S
C4672 C4673 1.377 . S
C4673 H4657 0.930 . S
C4673 C4672 1.377 . S
C4673 C4674 1.379 . S
C4674 H4658 0.931 . S
C4674 C4668 1.383 . S
C4674 C4673 1.379 . S
H4675 C4669 0.959 . S
H4676 C4669 0.961 . S
H4677 C4669 0.960 . S
H4678 C4670 0.930 . S
H4679 C4671 0.929 . S
C801 C5 1.114 . S
C820 C158 1.070 . S
C837 C27 1.121 . S
C856 C180 1.136 . S
C873 C49 1.126 . S
C892 C136 1.085 . S
C909 C71 1.116 . S
C928 C246 1.111 . S
C945 C202 1.095 . S
C964 C93 1.119 . S
C981 C224 1.094 . S
C1000 C115 1.091 . S
C1017 C26 1.105 . S
C1036 C138 1.110 . S
C1053 C160 1.114 . S
C1072 C48 1.142 . S
C1089 C182 1.117 . S
C1108 C4 1.126 . S
C1125 C114 1.110 . S
C1144 C204 1.091 . S
C1161 C226 1.127 . S
C1180 C70 1.066 . S
C1197 C248 1.114 . S
C1216 C92 1.138 . S
C1233 C269 1.124 . S
C1252 C422 1.142 . S
C1269 C291 1.127 . S
C1288 C444 1.097 . S
C1305 C400 1.094 . S
C1324 C313 1.095 . S
C1341 C510 1.095 . S
C1360 C335 1.086 . S
C1377 C466 1.095 . S
C1396 C357 1.120 . S
C1413 C379 1.119 . S
C1432 C488 1.059 . S
C1449 C290 1.098 . S
C1468 C402 1.136 . S
C1485 C312 1.103 . S
C1504 C424 1.118 . S
C1521 C268 1.098 . S
C1540 C446 1.138 . S
C1557 C378 1.109 . S
C1576 C468 1.093 . S
C1593 C490 1.123 . S
C1612 C334 1.088 . S
C1629 C356 1.097 . S
C1648 C512 1.141 . S
C1665 C533 1.122 . S
C1684 C686 1.067 . S
C1701 C708 1.096 . S
C1720 C555 1.085 . S
C1737 C577 1.128 . S
C1756 C664 1.135 . S
C1773 C599 1.117 . S
C1792 C774 1.058 . S
C1809 C730 1.094 . S
C1828 C621 1.098 . S
C1845 C752 1.110 . S
C1864 C643 1.151 . S
C1881 C666 1.115 . S
C1900 C554 1.136 . S
C1917 C688 1.127 . S
C1936 C576 1.065 . S
C1953 C710 1.128 . S
C1972 C532 1.058 . S
C1989 C642 1.102 . S
C2008 C732 1.120 . S
C2025 C598 1.095 . S
C2044 C754 1.149 . S
C2061 C620 1.096 . S
C2080 C776 1.146 . S
C2097 C7 0.764 . S
C2116 C52 0.711 . S
C2133 C29 0.764 . S
C2152 C8 0.728 . S
C2169 C30 0.743 . S
C2188 C51 0.777 . S
C2205 C96 0.750 . S
C2224 C73 0.733 . S
C2241 C95 0.761 . S
C2260 C118 0.700 . S
C2277 C74 0.763 . S
C2296 C117 0.694 . S
C2313 C141 0.763 . S
C2332 C184 0.725 . S
C2349 C163 0.744 . S
C2368 C140 0.716 . S
C2385 C185 0.742 . S
C2404 C162 0.731 . S
C2421 C228 0.764 . S
C2440 C207 0.744 . S
C2457 C229 0.752 . S
C2476 C250 0.806 . S
C2493 C206 0.760 . S
C2512 C251 0.796 . S
C2529 C316 0.742 . S
C2548 C271 0.786 . S
C2565 C293 0.759 . S
C2584 C272 0.704 . S
C2601 C315 0.742 . S
C2620 C294 0.777 . S
C2637 C337 0.741 . S
C2656 C360 0.786 . S
C2673 C382 0.742 . S
C2692 C359 0.784 . S
C2709 C381 0.763 . S
C2728 C338 0.735 . S
C2745 C405 0.740 . S
C2764 C448 0.751 . S
C2781 C427 0.763 . S
C2800 C404 0.724 . S
C2817 C426 0.752 . S
C2836 C449 0.810 . S
C2853 C492 0.748 . S
C2872 C471 0.805 . S
C2889 C493 0.761 . S
C2908 C514 0.789 . S
C2925 C515 0.750 . S
C2944 C470 0.805 . S
C2961 C580 0.762 . S
C2980 C535 0.728 . S
C2997 C557 0.759 . S
C3016 C536 0.757 . S
C3033 C579 0.749 . S
C3052 C558 0.795 . S
C3069 C624 0.743 . S
C3088 C601 0.778 . S
C3105 C623 0.762 . S
C3124 C646 0.698 . S
C3141 C645 0.757 . S
C3160 C602 0.766 . S
C3177 C669 0.748 . S
C3196 C712 0.802 . S
C3213 C691 0.748 . S
C3232 C668 0.801 . S
C3249 C690 0.763 . S
C3268 C713 0.775 . S
C3285 C756 0.746 . S
C3304 C735 0.706 . S
C3321 C778 0.750 . S
C3340 C757 0.696 . S
C3357 C734 0.742 . S
C3376 C779 0.761 . S
C3393 C97 1.363 . S
C3412 C9 1.374 . S
C3429 C119 1.365 . S
C3448 C31 1.376 . S
C3465 C75 1.366 . S
C3484 C53 1.373 . S
C3501 C227 1.363 . S
C3520 C139 1.353 . S
C3537 C249 1.364 . S
C3556 C161 1.357 . S
C3573 C183 1.363 . S
C3592 C205 1.353 . S
C3609 C361 1.367 . S
C3628 C273 1.366 . S
C3645 C383 1.366 . S
C3664 C295 1.372 . S
C3681 C317 1.363 . S
C3700 C339 1.373 . S
C3717 C491 1.366 1_554 S
C3736 C403 1.368 . S
C3753 C425 1.368 . S
C3772 C513 1.373 1_554 S
C3789 C469 1.362 1_554 S
C3808 C447 1.349 . S
C3825 C537 1.367 . S
C3844 C625 1.349 1_556 S
C3861 C647 1.365 1_556 S
C3880 C559 1.376 . S
C3897 C603 1.367 1_556 S
C3916 C581 1.364 . S
C3933 C755 1.368 . S
C3952 C667 1.375 . S
C3969 C777 1.363 . S
C3988 C689 1.351 . S
C4005 C733 1.364 . S
C4024 C711 1.357 . S
C4041 C644 1.198 . S
C4060 C6 1.181 . S
C4077 C28 1.204 . S
C4096 C600 1.205 . S
C4113 C50 1.199 . S
C4132 C622 1.213 . S
C4149 C72 1.197 . S
C4168 C292 1.186 . S
C4185 C94 1.200 . S
C4204 C314 1.214 . S
C4221 C116 1.197 . S
C4240 C270 1.186 . S
C4257 C511 1.202 . S
C4276 C137 1.191 . S
C4293 C467 1.197 . S
C4312 C159 1.215 . S
C4329 C489 1.199 . S
C4348 C181 1.197 . S
C4365 C203 1.199 . S
C4384 C687 1.203 . S
C4401 C225 1.201 . S
C4420 C709 1.183 . S
C4437 C665 1.202 . S
C4456 C247 1.196 . S
C4473 C556 1.197 . S
C4492 C336 1.193 . S
C4509 C578 1.203 . S
C4528 C358 1.209 . S
C4545 C380 1.197 . S
C4564 C534 1.183 . S
C4581 C401 1.200 . S
C4600 C775 1.196 . S
C4617 C731 1.200 . S
C4636 C423 1.202 . S
C4653 C753 1.203 . S
C4672 C445 1.179 . S
