# Generated by pormake.
# Topology zfe, (5)-cn, num edge types: 1
# Building blocks:
#     Node 0, Type 0, BuildingBlock: XOMCOT_clean_sbu_1, # of connection points: 5
#     Node 1, Type 0, BuildingBlock: XOMCOT_clean_sbu_1, # of connection points: 5
#     Node 2, Type 0, BuildingBlock: XOMCOT_clean_sbu_1, # of connection points: 5
#     Node 3, Type 0, BuildingBlock: XOMCOT_clean_sbu_1, # of connection points: 5
#     Node 4, Type 0, BuildingBlock: XOMCOT_clean_sbu_1, # of connection points: 5
#     Node 5, Type 0, BuildingBlock: XOMCOT_clean_sbu_1, # of connection points: 5
#     Node 6, Type 0, BuildingBlock: XOMCOT_clean_sbu_1, # of connection points: 5
#     Node 7, Type 0, BuildingBlock: XOMCOT_clean_sbu_1, # of connection points: 5
#     Node 8, Type 0, BuildingBlock: XOMCOT_clean_sbu_1, # of connection points: 5
#     Node 9, Type 0, BuildingBlock: XOMCOT_clean_sbu_1, # of connection points: 5
#     Node 10, Type 0, BuildingBlock: XOMCOT_clean_sbu_1, # of connection points: 5
#     Node 11, Type 0, BuildingBlock: XOMCOT_clean_sbu_1, # of connection points: 5
#     Node 12, Type 0, BuildingBlock: XOMCOT_clean_sbu_1, # of connection points: 5
#     Node 13, Type 0, BuildingBlock: XOMCOT_clean_sbu_1, # of connection points: 5
#     Node 14, Type 0, BuildingBlock: XOMCOT_clean_sbu_1, # of connection points: 5
#     Node 15, Type 0, BuildingBlock: XOMCOT_clean_sbu_1, # of connection points: 5
#     Edge 16, Type (0, 0), BuildingBlock: UVAHIK_clean_linker_0, # of connection points: 2
#     Edge 17, Type (0, 0), BuildingBlock: UVAHIK_clean_linker_0, # of connection points: 2
#     Edge 18, Type (0, 0), BuildingBlock: UVAHIK_clean_linker_0, # of connection points: 2
#     Edge 19, Type (0, 0), BuildingBlock: UVAHIK_clean_linker_0, # of connection points: 2
#     Edge 20, Type (0, 0), BuildingBlock: UVAHIK_clean_linker_0, # of connection points: 2
#     Edge 21, Type (0, 0), BuildingBlock: UVAHIK_clean_linker_0, # of connection points: 2
#     Edge 22, Type (0, 0), BuildingBlock: UVAHIK_clean_linker_0, # of connection points: 2
#     Edge 23, Type (0, 0), BuildingBlock: UVAHIK_clean_linker_0, # of connection points: 2
#     Edge 24, Type (0, 0), BuildingBlock: UVAHIK_clean_linker_0, # of connection points: 2
#     Edge 25, Type (0, 0), BuildingBlock: UVAHIK_clean_linker_0, # of connection points: 2
#     Edge 26, Type (0, 0), BuildingBlock: UVAHIK_clean_linker_0, # of connection points: 2
#     Edge 27, Type (0, 0), BuildingBlock: UVAHIK_clean_linker_0, # of connection points: 2
#     Edge 28, Type (0, 0), BuildingBlock: UVAHIK_clean_linker_0, # of connection points: 2
#     Edge 29, Type (0, 0), BuildingBlock: UVAHIK_clean_linker_0, # of connection points: 2
#     Edge 30, Type (0, 0), BuildingBlock: UVAHIK_clean_linker_0, # of connection points: 2
#     Edge 31, Type (0, 0), BuildingBlock: UVAHIK_clean_linker_0, # of connection points: 2
#     Edge 32, Type (0, 0), BuildingBlock: UVAHIK_clean_linker_0, # of connection points: 2
#     Edge 33, Type (0, 0), BuildingBlock: UVAHIK_clean_linker_0, # of connection points: 2
#     Edge 34, Type (0, 0), BuildingBlock: UVAHIK_clean_linker_0, # of connection points: 2
#     Edge 35, Type (0, 0), BuildingBlock: UVAHIK_clean_linker_0, # of connection points: 2
#     Edge 36, Type (0, 0), BuildingBlock: UVAHIK_clean_linker_0, # of connection points: 2
#     Edge 37, Type (0, 0), BuildingBlock: UVAHIK_clean_linker_0, # of connection points: 2
#     Edge 38, Type (0, 0), BuildingBlock: UVAHIK_clean_linker_0, # of connection points: 2
#     Edge 39, Type (0, 0), BuildingBlock: UVAHIK_clean_linker_0, # of connection points: 2
#     Edge 40, Type (0, 0), BuildingBlock: UVAHIK_clean_linker_0, # of connection points: 2
#     Edge 41, Type (0, 0), BuildingBlock: UVAHIK_clean_linker_0, # of connection points: 2
#     Edge 42, Type (0, 0), BuildingBlock: UVAHIK_clean_linker_0, # of connection points: 2
#     Edge 43, Type (0, 0), BuildingBlock: UVAHIK_clean_linker_0, # of connection points: 2
#     Edge 44, Type (0, 0), BuildingBlock: UVAHIK_clean_linker_0, # of connection points: 2
#     Edge 45, Type (0, 0), BuildingBlock: UVAHIK_clean_linker_0, # of connection points: 2
#     Edge 46, Type (0, 0), BuildingBlock: UVAHIK_clean_linker_0, # of connection points: 2
#     Edge 47, Type (0, 0), BuildingBlock: UVAHIK_clean_linker_0, # of connection points: 2
#     Edge 48, Type (0, 0), BuildingBlock: UVAHIK_clean_linker_0, # of connection points: 2
#     Edge 49, Type (0, 0), BuildingBlock: UVAHIK_clean_linker_0, # of connection points: 2
#     Edge 50, Type (0, 0), BuildingBlock: UVAHIK_clean_linker_0, # of connection points: 2
#     Edge 51, Type (0, 0), BuildingBlock: UVAHIK_clean_linker_0, # of connection points: 2
#     Edge 52, Type (0, 0), BuildingBlock: UVAHIK_clean_linker_0, # of connection points: 2
#     Edge 53, Type (0, 0), BuildingBlock: UVAHIK_clean_linker_0, # of connection points: 2
#     Edge 54, Type (0, 0), BuildingBlock: UVAHIK_clean_linker_0, # of connection points: 2
#     Edge 55, Type (0, 0), BuildingBlock: UVAHIK_clean_linker_0, # of connection points: 2
# Relax obj value: 0.187
# Max RMSD: 0.156
# Mean RMSD: 0.156
data_MOF--net-zfe--node1-XOMCOT_clean_sbu_1--edge1-UVAHIK_clean_linker_0
_symmetry_space_group_name_H-M    P1
_symmetry_Int_Tables_number       1
_symmetry_cell_setting            triclinic
loop_
_symmetry_equiv_pos_as_xyz
'x, y, z'
_cell_length_a     67.82916
_cell_length_b     67.876744
_cell_length_c     36.036144
_cell_angle_alpha  90.042742
_cell_angle_beta   90.016109
_cell_angle_gamma 89.987402
loop_
_atom_site_label
_atom_site_type_symbol
_atom_site_fract_x
_atom_site_fract_y
_atom_site_fract_z
_atom_type_partial_charge
C0 C 0.07823 0.24694 0.9855 0.0
C1 C 0.091 0.26244 0.98072 0.0
N2 N 0.08333 0.27832 0.99775 0.0
N3 N 0.06258 0.2529 1.00577 0.0
C4 C 0.06594 0.27229 0.01209 0.0
H5 H 0.08023 0.23221 0.97473 0.0
Co6 Co 0.04092 0.23662 0.01703 0.0
C7 C 0.04456 0.25901 0.09224 0.0
O8 O 0.06279 0.26526 0.08886 0.0
N9 N 0.01934 0.22023 0.02836 0.0
C10 C 1.00126 0.19901 0.06074 0.0
C11 C 0.01798 0.21026 0.06071 0.0
C12 C 0.00296 0.21493 1.00923 0.0
N13 N 0.99181 0.20192 0.02844 0.0
O14 O 0.02384 0.25519 0.99214 0.0
H15 H 0.02864 0.21097 0.08298 0.0
H16 H 0.99948 0.22008 0.98158 0.0
O17 O 0.03662 0.24884 0.06628 0.0
C18 C 0.02621 0.25061 0.95794 0.0
O19 O 0.03713 0.23517 0.95001 0.0
N20 N 0.05815 0.21728 0.03535 0.0
C21 C 0.08611 0.1874 0.04224 0.0
C22 C 0.08485 0.20239 0.06906 0.0
C23 C 0.07078 0.21744 0.06489 0.0
C24 C 0.05866 0.20225 1.01029 0.0
C25 C 0.07249 0.18724 0.01312 0.0
H26 H 0.07061 0.22935 0.08456 0.0
H27 H 0.04873 0.20242 0.98683 0.0
H28 H 0.0558 0.28189 0.02663 0.0
H29 H 0.1051 0.26197 0.96668 0.0
H30 H 0.99634 0.18943 0.0829 0.0
H31 H 0.09518 0.20294 0.09195 0.0
H32 H 0.07283 0.17581 0.99212 0.0
C33 C 0.75323 0.06824 0.9636 0.0
C34 C 0.73779 0.08124 0.95963 0.0
N35 N 0.72607 0.07967 0.98965 0.0
N36 N 0.75119 0.05841 0.99584 0.0
C37 C 0.73448 0.06567 0.01112 0.0
H38 H 0.76531 0.0662 0.94439 0.0
Co39 Co 0.76874 0.03928 0.01306 0.0
C40 C 0.75728 0.04567 0.09468 0.0
O41 O 0.76965 0.06028 0.09905 0.0
N42 N 0.78615 0.01961 0.03155 0.0
C43 C 0.80789 0.00575 0.06977 0.0
C44 C 0.79616 0.02177 0.06378 0.0
C45 C 0.79194 1.00168 0.01875 0.0
N46 N 0.80532 0.99312 0.0415 0.0
O47 O 0.75144 0.01951 0.99227 0.0
H48 H 0.79558 0.03456 0.08151 0.0
H49 H 0.78689 0.9952 0.99303 0.0
O50 O 0.75532 0.03754 0.06267 0.0
C51 C 0.75749 0.01755 0.95876 0.0
O52 O 0.77409 0.02618 0.94941 0.0
N53 N 0.78711 0.05961 0.02568 0.0
C54 C 0.8156 0.08954 0.02135 0.0
C55 C 0.79685 0.09343 0.03603 0.0
C56 C 0.78261 0.0784 0.03689 0.0
C57 C 0.80524 0.05599 1.01057 0.0
C58 C 0.81972 0.07045 1.00902 0.0
H59 H 0.76775 0.08218 0.04502 0.0
H60 H 0.80836 0.042 0.99752 0.0
H61 H 0.72859 0.0609 0.03751 0.0
H62 H 0.73566 0.09145 0.93693 0.0
H63 H 0.81769 0.00355 0.09313 0.0
H64 H 0.79287 0.10818 0.04474 0.0
H65 H 0.83389 0.06683 0.99693 0.0
C66 C 0.92657 0.76593 0.99335 0.0
C67 C 0.91172 0.75275 0.98637 0.0
N68 N 0.91711 0.73498 0.99968 0.0
N69 N 0.94132 0.75676 0.01146 0.0
C70 C 0.93546 0.73772 0.01365 0.0
H71 H 0.92655 0.78138 0.98603 0.0
Co72 Co 0.96431 0.7699 0.02661 0.0
C73 C 0.95921 0.7427 0.09655 0.0
O74 O 0.94101 0.73657 0.09204 0.0
N75 N 0.98728 0.78328 0.0417 0.0
C76 C 0.00715 0.80021 0.07909 0.0
C77 C 0.99016 0.78942 0.07699 0.0
C78 C 0.00281 0.79073 0.02264 0.0
N79 N 0.0151 0.80097 0.04505 0.0
O80 O 0.97965 0.75147 0.99772 0.0
H81 H 0.97999 0.787 0.09964 0.0
H82 H 0.00463 0.78946 0.99291 0.0
O83 O 0.96704 0.75427 0.07267 0.0
C84 C 0.97804 0.758 0.96456 0.0
O85 O 0.96909 0.77498 0.95959 0.0
N86 N 0.94883 0.78923 0.05009 0.0
C87 C 0.92274 0.81984 0.06614 0.0
C88 C 0.92034 0.80126 0.08263 0.0
C89 C 0.9337 0.78609 0.07438 0.0
C90 C 0.95142 0.80729 0.03433 0.0
C91 C 0.93879 0.82285 0.04243 0.0
H92 H 0.93102 0.77163 0.08549 0.0
H93 H 0.96281 0.8094 0.01373 0.0
H94 H 0.94436 0.72619 0.02579 0.0
H95 H 0.89795 0.75614 0.97264 0.0
H96 H 0.01287 0.80765 0.10342 0.0
H97 H 0.90797 0.79835 0.10081 0.0
H98 H 0.94091 0.83683 0.02848 0.0
C99 C 0.23642 0.92508 0.99804 0.0
C100 C 0.24848 0.90905 0.99304 0.0
N101 N 0.26684 0.91394 1.00398 0.0
N102 N 0.24693 0.94001 0.01283 0.0
C103 C 0.2656 0.933 0.01478 0.0
H104 H 0.2208 0.92567 0.99206 0.0
Co105 Co 0.23627 0.96457 0.02651 0.0
C106 C 0.26242 0.95687 0.0968 0.0
O107 O 0.26592 0.93796 0.0928 0.0
N108 N 0.22563 0.98911 0.04049 0.0
C109 C 0.21454 0.01273 0.07786 0.0
C110 C 0.2221 0.99409 0.07623 0.0
C111 C 0.21945 0.00492 0.02069 0.0
N112 N 0.21286 0.01954 0.04305 0.0
O113 O 0.25613 0.97744 0.99648 0.0
H114 H 0.22443 0.98457 0.09987 0.0
H115 H 0.21972 0.00572 0.99071 0.0
O116 O 0.25228 0.96612 0.07243 0.0
C117 C 0.24929 0.97587 0.96346 0.0
O118 O 0.23174 0.96799 0.95914 0.0
N119 N 0.2153 0.95179 0.05075 0.0
C120 C 0.18213 0.9286 0.06507 0.0
C121 C 0.19993 0.92525 0.08405 0.0
C122 C 0.2164 0.9371 0.07655 0.0
C123 C 0.1979 0.95569 0.0333 0.0
C124 C 0.18114 0.94445 0.04029 0.0
H125 H 0.23019 0.93342 0.08941 0.0
H126 H 0.19734 0.96677 0.0118 0.0
H127 H 0.27789 0.94147 0.02534 0.0
H128 H 0.24398 0.89477 0.98268 0.0
H129 H 0.20998 0.02051 0.10267 0.0
H130 H 0.20132 0.91313 0.10339 0.0
H131 H 0.1679 0.94737 0.02441 0.0
C132 C 0.07936 0.76131 0.56099 0.0
C133 C 0.09397 0.74737 0.56296 0.0
N134 N 0.08644 0.73004 0.55174 0.0
N135 N 0.06275 0.75302 0.54745 0.0
C136 C 0.06735 0.7337 0.5435 0.0
H137 H 0.08102 0.77671 0.56797 0.0
Co138 Co 0.03933 0.76685 0.53668 0.0
C139 C 0.04458 0.74362 0.46277 0.0
O140 O 0.06313 0.73852 0.46678 0.0
N141 N 0.01609 0.78077 0.52575 0.0
C142 C 0.99531 0.7991 0.49275 0.0
C143 C 0.01275 0.78899 0.49216 0.0
C144 C 1.00036 0.78622 0.54654 0.0
N145 N 0.98753 0.79729 0.52679 0.0
O146 O 0.02455 0.74688 0.56253 0.0
H147 H 0.02274 0.78823 0.46883 0.0
H148 H 0.99861 0.78271 0.57564 0.0
O149 O 0.03592 0.75367 0.48807 0.0
C150 C 0.02651 0.75148 0.59677 0.0
O151 O 0.03634 0.76754 0.60521 0.0
N152 N 0.05409 0.78763 0.51672 0.0
C153 C 0.0801 0.81905 0.50901 0.0
C154 C 0.08004 0.80365 0.48294 0.0
C155 C 0.06689 0.78785 0.48747 0.0
C156 C 0.05318 0.80316 0.54064 0.0
C157 C 0.06603 0.81898 0.53733 0.0
H158 H 0.06788 0.7755 0.46885 0.0
H159 H 0.0432 0.80262 0.56402 0.0
H160 H 0.05725 0.72276 0.53268 0.0
H161 H 0.10916 0.74987 0.57095 0.0
H162 H 0.98901 0.80759 0.47026 0.0
H163 H 0.09079 0.80326 0.46075 0.0
H164 H 0.06554 0.83068 0.55778 0.0
C165 C 0.23926 0.07742 0.56252 0.0
C166 C 0.25302 0.09187 0.56883 0.0
N167 N 0.2708 0.08522 0.55765 0.0
N168 N 0.24812 0.06172 0.5468 0.0
C169 C 0.26741 0.06674 0.54502 0.0
H170 H 0.22371 0.07844 0.56872 0.0
Co171 Co 0.23571 0.0382 0.53264 0.0
C172 C 0.26007 0.04655 0.46102 0.0
O173 O 0.26343 0.06545 0.46574 0.0
N174 N 0.22334 0.0147 0.51799 0.0
C175 C 0.21035 0.99234 0.48005 0.0
C176 C 0.21879 0.01059 0.48227 0.0
C177 C 0.21691 0.99881 0.53725 0.0
N178 N 0.20916 0.98497 0.51451 0.0
O179 O 0.25576 0.02365 0.55908 0.0
H180 H 0.22117 0.02039 0.45905 0.0
H181 H 0.21793 0.99736 0.56709 0.0
O182 O 0.25044 0.03688 0.48548 0.0
C183 C 0.25022 0.02386 0.59304 0.0
O184 O 0.23332 0.03223 0.60129 0.0
N185 N 0.21469 0.05252 0.51214 0.0
C186 C 0.18261 0.07794 0.50542 0.0
C187 C 0.19832 0.07889 0.48008 0.0
C188 C 0.21443 0.06604 0.48408 0.0
C189 C 0.19885 0.05053 0.53507 0.0
C190 C 0.18271 0.06308 0.53228 0.0
H191 H 0.22692 0.06784 0.46609 0.0
H192 H 0.19938 0.03998 0.55752 0.0
H193 H 0.2787 0.05699 0.5344 0.0
H194 H 0.24995 0.10638 0.57986 0.0
H195 H 0.20497 0.98519 0.45515 0.0
H196 H 0.19871 0.09022 0.45894 0.0
H197 H 0.17078 0.06172 0.55209 0.0
C198 C 0.92383 0.23918 0.55865 0.0
C199 C 0.90945 0.25301 0.56485 0.0
N200 N 0.91618 0.27073 0.55362 0.0
N201 N 0.93956 0.24787 0.54275 0.0
C202 C 0.9347 0.26721 0.5411 0.0
H203 H 0.92275 0.22364 0.56489 0.0
Co204 Co 0.96282 0.23459 0.52916 0.0
C205 C 0.95722 0.26026 0.45769 0.0
O206 O 0.93906 0.26644 0.46263 0.0
N207 N 0.98609 0.22126 0.51543 0.0
C208 C 0.00751 0.20601 0.47848 0.0
C209 C 0.98947 0.21499 0.48038 0.0
C210 C 0.00221 0.21535 0.53472 0.0
N211 N 0.01547 0.20623 0.51255 0.0
O212 O 0.97775 0.25394 0.55646 0.0
H213 H 0.97927 0.21658 0.45752 0.0
H214 H 0.00421 0.21765 0.5642 0.0
O215 O 0.96537 0.24915 0.48194 0.0
C216 C 0.97661 0.24821 0.5902 0.0
O217 O 0.96781 0.23137 0.59718 0.0
N218 N 0.94779 0.21442 0.50734 0.0
C219 C 0.92083 0.18372 0.49797 0.0
C220 C 0.91903 0.20124 0.47737 0.0
C221 C 0.93275 0.21649 0.48245 0.0
C222 C 0.95037 0.19709 0.52578 0.0
C223 C 0.93732 0.1815 0.52106 0.0
H224 H 0.93025 0.23038 0.46884 0.0
H225 H 0.96195 0.19578 0.54627 0.0
H226 H 0.94459 0.27844 0.53082 0.0
H227 H 0.89492 0.24999 0.57581 0.0
H228 H 0.01411 0.19936 0.45415 0.0
H229 H 0.90648 0.20368 0.4594 0.0
H230 H 0.93967 0.16814 0.53683 0.0
C231 C 0.76465 0.92796 0.56726 0.0
C232 C 0.75215 0.91247 0.57408 0.0
N233 N 0.73496 0.91586 0.55636 0.0
N234 N 0.75561 0.94103 0.54487 0.0
C235 C 0.73731 0.93358 0.53969 0.0
H236 H 0.77959 0.92944 0.5774 0.0
Co237 Co 0.7676 0.96392 0.52685 0.0
C238 C 0.74323 0.95415 0.45421 0.0
O239 O 0.73896 0.9354 0.45821 0.0
N240 N 0.77968 0.98693 0.5081 0.0
C241 C 0.79386 0.00611 0.46583 0.0
C242 C 0.78596 0.98797 0.47255 0.0
C243 C 0.78434 0.00476 0.5227 0.0
N244 N 0.79284 0.01676 0.49724 0.0
O245 O 0.74747 0.97907 0.55165 0.0
H246 H 0.78505 0.97611 0.45258 0.0
H247 H 0.78151 0.00895 0.55118 0.0
O248 O 0.753 0.9632 0.4794 0.0
C249 C 0.75421 0.98148 0.58455 0.0
O250 O 0.77238 0.97588 0.59142 0.0
N251 N 0.78856 0.94875 0.50829 0.0
C252 C 0.82011 0.92242 0.5066 0.0
C253 C 0.80319 0.91895 0.48506 0.0
C254 C 0.78741 0.93232 0.4865 0.0
C255 C 0.80544 0.95293 0.52723 0.0
C256 C 0.8214 0.94008 0.52656 0.0
H257 H 0.77386 0.92855 0.47273 0.0
H258 H 0.80598 0.96562 0.54536 0.0
H259 H 0.72607 0.94081 0.52339 0.0
H260 H 0.75557 0.89962 0.59061 0.0
H261 H 0.80039 0.01093 0.43997 0.0
H262 H 0.80159 0.90539 0.4695 0.0
H263 H 0.83427 0.94344 0.54322 0.0
C264 C 0.57706 0.73589 0.49834 0.0
C265 C 0.59309 0.74793 0.49288 0.0
N266 N 0.58833 0.76628 0.50403 0.0
N267 N 0.5623 0.74643 0.51363 0.0
C268 C 0.56935 0.76507 0.51533 0.0
H269 H 0.57638 0.72029 0.49233 0.0
Co270 Co 0.53767 0.73625 0.52806 0.0
C271 C 0.54716 0.76195 0.59802 0.0
O272 O 0.56615 0.76462 0.59315 0.0
N273 N 0.51295 0.72611 0.54249 0.0
C274 C 0.4883 0.71632 0.57879 0.0
C275 C 0.50662 0.72471 0.57799 0.0
C276 C 0.49829 0.71783 0.52222 0.0
N277 N 0.48308 0.71196 0.54382 0.0
O278 O 0.52499 0.75652 0.49892 0.0
H279 H 0.51506 0.7287 0.60227 0.0
H280 H 0.49891 0.71574 0.49247 0.0
O281 O 0.53711 0.75222 0.57414 0.0
C282 C 0.52594 0.74975 0.46579 0.0
O283 O 0.53322 0.73199 0.46092 0.0
N284 N 0.55025 0.71485 0.55148 0.0
C285 C 0.57447 0.68185 0.56082 0.0
C286 C 0.57791 0.69924 0.58106 0.0
C287 C 0.56557 0.71561 0.57604 0.0
C288 C 0.54592 0.69764 0.53372 0.0
C289 C 0.55759 0.68095 0.53842 0.0
H290 H 0.56954 0.7292 0.58929 0.0
H291 H 0.53424 0.69724 0.51334 0.0
H292 H 0.56097 0.77735 0.52622 0.0
H293 H 0.60727 0.74339 0.4821 0.0
H294 H 0.47985 0.7127 0.60336 0.0
H295 H 0.59082 0.70074 0.59853 0.0
H296 H 0.55397 0.66777 0.52291 0.0
C297 C 0.26432 0.57682 0.49284 0.0
C298 C 0.25033 0.59106 0.48662 0.0
N299 N 0.23265 0.58407 0.49756 0.0
N300 N 0.25571 0.56094 0.50832 0.0
C301 C 0.23633 0.56559 0.50991 0.0
H302 H 0.27989 0.57812 0.48687 0.0
Co303 Co 0.26879 0.53777 0.52224 0.0
C304 C 0.24349 0.54428 0.59389 0.0
O305 O 0.23791 0.56261 0.58879 0.0
N306 N 0.28194 0.51456 0.53661 0.0
C307 C 0.29687 0.49348 0.57464 0.0
C308 C 0.28834 0.51166 0.57174 0.0
C309 C 0.28736 0.49798 0.51826 0.0
N310 N 0.29625 0.48493 0.5411 0.0
O311 O 0.24919 0.52282 0.4955 0.0
H312 H 0.28702 0.52224 0.59406 0.0
H313 H 0.28482 0.49542 0.48903 0.0
O314 O 0.25427 0.5357 0.56963 0.0
C315 C 0.25563 0.5219 0.46217 0.0
O316 O 0.27307 0.52936 0.45486 0.0
N317 N 0.28922 0.55264 0.54325 0.0
C318 C 0.32184 0.57692 0.55555 0.0
C319 C 0.30483 0.57859 0.57777 0.0
C320 C 0.28856 0.56628 0.57108 0.0
C321 C 0.30576 0.5505 0.52226 0.0
C322 C 0.32216 0.56238 0.52792 0.0
H323 H 0.27531 0.56839 0.58704 0.0
H324 H 0.30584 0.54008 0.49955 0.0
H325 H 0.22516 0.55561 0.52019 0.0
H326 H 0.25319 0.60566 0.47591 0.0
H327 H 0.30344 0.48713 0.59927 0.0
H328 H 0.30391 0.58959 0.59947 0.0
H329 H 0.3346 0.56078 0.50934 0.0
C330 C 0.42521 0.26271 0.50176 0.0
C331 C 0.41036 0.24905 0.49921 0.0
N332 N 0.41755 0.2315 0.51 0.0
N333 N 0.44163 0.254 0.51522 0.0
C334 C 0.43667 0.23475 0.51857 0.0
H335 H 0.42388 0.27817 0.49514 0.0
Co336 Co 0.46537 0.26713 0.5264 0.0
C337 C 0.45952 0.24362 0.59987 0.0
O338 O 0.44094 0.23868 0.59569 0.0
N339 N 0.48897 0.28033 0.53773 0.0
C340 C 0.51089 0.2967 0.57183 0.0
C341 C 0.49284 0.2877 0.57184 0.0
C342 C 0.50487 0.28544 0.51709 0.0
N343 N 0.51841 0.29524 0.53753 0.0
O344 O 0.47959 0.24681 0.50038 0.0
H345 H 0.48292 0.28695 0.59528 0.0
H346 H 0.50643 0.28227 0.48781 0.0
O347 O 0.46828 0.25367 0.57474 0.0
C348 C 0.47797 0.25166 0.46623 0.0
O349 O 0.46898 0.26825 0.45805 0.0
N350 N 0.45115 0.28818 0.54673 0.0
C351 C 0.42502 0.3195 0.55403 0.0
C352 C 0.42483 0.30402 0.57983 0.0
C353 C 0.43805 0.28826 0.57553 0.0
C354 C 0.4524 0.30387 0.5233 0.0
C355 C 0.43946 0.31965 0.52638 0.0
H356 H 0.43676 0.27577 0.59368 0.0
H357 H 0.46259 0.30341 0.50023 0.0
H358 H 0.44656 0.22354 0.52908 0.0
H359 H 0.39527 0.25187 0.49101 0.0
H360 H 0.51781 0.30421 0.59494 0.0
H361 H 0.41376 0.30346 0.60145 0.0
H362 H 0.44009 0.33142 0.50612 0.0
C363 C 0.74016 0.42812 0.49191 0.0
C364 C 0.75371 0.4133 0.487 0.0
N365 N 0.77108 0.41933 0.50104 0.0
N366 N 0.74876 0.44328 0.50996 0.0
C367 C 0.76783 0.43776 0.51389 0.0
H368 H 0.72475 0.42749 0.48434 0.0
Co369 Co 0.73538 0.46559 0.52776 0.0
C370 C 0.76105 0.45717 0.59853 0.0
O371 O 0.76561 0.43853 0.59376 0.0
N372 N 0.72196 0.48793 0.54649 0.0
C373 C 0.70718 0.50649 0.5891 0.0
C374 C 0.71645 0.48899 0.58248 0.0
C375 C 0.71546 0.50511 0.53155 0.0
N376 N 0.70656 0.51672 0.5572 0.0
O377 O 0.75415 0.48199 0.50194 0.0
H378 H 0.71876 0.47753 0.60285 0.0
H379 H 0.71723 0.50909 0.50269 0.0
O380 O 0.75066 0.46622 0.57431 0.0
C381 C 0.74635 0.484 0.46981 0.0
O382 O 0.72875 0.47647 0.46418 0.0
N383 N 0.71554 0.44936 0.54747 0.0
C384 C 0.68504 0.42196 0.55197 0.0
C385 C 0.70177 0.42012 0.5747 0.0
C386 C 0.71706 0.43401 0.57181 0.0
C387 C 0.69875 0.45199 0.52731 0.0
C388 C 0.68335 0.43852 0.52914 0.0
H389 H 0.73042 0.43156 0.5871 0.0
H390 H 0.69787 0.46393 0.50754 0.0
H391 H 0.77886 0.44658 0.52786 0.0
H392 H 0.75086 0.39888 0.47528 0.0
H393 H 0.70086 0.51112 0.61528 0.0
H394 H 0.70358 0.40743 0.59258 0.0
H395 H 0.6706 0.44055 0.51144 0.0
C396 C 0.57694 0.25935 0.07319 0.0
C397 C 0.59006 0.24418 0.07837 0.0
N398 N 0.5825 0.22783 0.06274 0.0
N399 N 0.56121 0.25277 0.05391 0.0
C400 C 0.5648 0.23332 0.04886 0.0
H401 H 0.57887 0.27433 0.08274 0.0
Co402 Co 0.5393 0.26842 0.04133 0.0
C403 C 0.54398 0.24517 0.96729 0.0
O404 O 0.56213 0.23885 0.97169 0.0
N405 N 0.51747 0.28422 0.02864 0.0
C406 C 0.49943 0.30499 0.99502 0.0
C407 C 0.5163 0.29395 0.99597 0.0
C408 C 0.50081 0.28942 0.047 0.0
N409 N 0.4897 0.30211 0.02698 0.0
O410 O 0.52247 0.24964 0.06603 0.0
H411 H 0.52724 0.29331 0.97419 0.0
H412 H 0.49713 0.28448 0.07468 0.0
O413 O 0.53579 0.25567 0.99247 0.0
C414 C 0.52437 0.25448 0.10019 0.0
O415 O 0.53452 0.27042 0.10813 0.0
N416 N 0.55625 0.2879 0.02286 0.0
C417 C 0.58423 0.31767 0.01588 0.0
C418 C 0.58339 0.30231 0.98979 0.0
C419 C 0.5693 0.28732 0.99401 0.0
C420 C 0.55631 0.30332 0.04708 0.0
C421 C 0.57018 0.3183 0.04419 0.0
H422 H 0.56953 0.27506 0.97512 0.0
H423 H 0.54608 0.30344 0.07007 0.0
H424 H 0.55468 0.22337 0.03518 0.0
H425 H 0.60438 0.24527 0.09148 0.0
H426 H 0.49465 0.31449 0.97263 0.0
H427 H 0.59411 0.3014 0.96758 0.0
H428 H 0.57027 0.33001 0.06465 0.0
C429 C 0.7423 0.57588 0.06885 0.0
C430 C 0.75541 0.59112 0.07297 0.0
N431 N 0.77273 0.58574 0.05772 0.0
N432 N 0.7511 0.56097 0.05043 0.0
C433 C 0.76988 0.56715 0.0453 0.0
H434 H 0.72715 0.57589 0.07806 0.0
Co435 Co 0.73851 0.53755 0.03597 0.0
C436 C 0.76178 0.54633 0.96319 0.0
O437 O 0.76426 0.5654 0.96738 0.0
N438 N 0.72589 0.5142 0.02121 0.0
C439 C 0.71254 0.49206 0.98326 0.0
C440 C 0.7209 0.51035 0.9856 0.0
C441 C 0.71982 0.49812 0.0403 0.0
N442 N 0.71186 0.48441 0.01756 0.0
O443 O 0.75866 0.52273 0.06154 0.0
H444 H 0.723 0.52031 0.96254 0.0
H445 H 0.7213 0.4964 0.07002 0.0
O446 O 0.7529 0.53637 0.98825 0.0
C447 C 0.75306 0.52261 0.09546 0.0
O448 O 0.73625 0.53108 0.10398 0.0
N449 N 0.71737 0.55208 0.01636 0.0
C450 C 0.68505 0.5772 1.00958 0.0
C451 C 0.7001 0.57735 0.98282 0.0
C452 C 0.71632 0.56465 0.98683 0.0
C453 C 0.70208 0.55079 0.04077 0.0
C454 C 0.68589 0.56327 0.03809 0.0
H455 H 0.72812 0.56566 0.96712 0.0
H456 H 0.70311 0.5408 0.06405 0.0
H457 H 0.781 0.55853 0.03115 0.0
H458 H 0.75229 0.60526 0.08556 0.0
H459 H 0.70695 0.48503 0.9584 0.0
H460 H 0.69985 0.58788 0.96026 0.0
H461 H 0.67443 0.56251 0.05899 0.0
C462 C 0.4323 0.74132 0.07638 0.0
C463 C 0.41623 0.7535 0.08036 0.0
N464 N 0.41816 0.76873 0.05663 0.0
N465 N 0.44433 0.74874 0.05017 0.0
C466 C 0.43543 0.76554 0.03883 0.0
H467 H 0.43494 0.72773 0.09122 0.0
Co468 Co 0.46742 0.73649 0.03416 0.0
C469 C 0.47818 0.76562 0.97585 0.0
O470 O 0.4905 0.77421 0.99883 0.0
N471 N 0.49069 0.72408 0.01748 0.0
C472 C 0.51214 0.71077 0.97801 0.0
C473 C 0.49414 0.71968 0.98146 0.0
C474 C 0.50673 0.71704 0.03565 0.0
N475 N 0.52003 0.70909 0.01201 0.0
O476 O 0.48235 0.75586 0.06138 0.0
H477 H 0.48394 0.72225 0.95899 0.0
H478 H 0.50863 0.7176 0.06543 0.0
O479 O 0.46723 0.75159 0.98751 0.0
C480 C 0.48392 0.74948 0.09462 0.0
O481 O 0.47704 0.73187 0.10234 0.0
N482 N 0.45237 0.71647 0.01285 0.0
C483 C 0.42518 0.68609 1.00305 0.0
C484 C 0.42324 0.70388 0.98331 0.0
C485 C 0.43705 0.71903 0.98875 0.0
C486 C 0.45505 0.69895 0.03049 0.0
C487 C 0.4418 0.68353 0.02567 0.0
H488 H 0.43462 0.73319 0.97583 0.0
H489 H 0.4669 0.69736 0.05036 0.0
H490 H 0.4412 0.77498 0.01725 0.0
H491 H 0.40406 0.75128 0.09932 0.0
H492 H 0.51867 0.70527 0.95261 0.0
H493 H 0.41056 0.70652 0.96575 0.0
H494 H 0.44413 0.66997 0.04089 0.0
C495 C 0.25819 0.43296 0.07769 0.0
C496 C 0.24275 0.42024 0.08393 0.0
N497 N 0.22713 0.42646 0.06405 0.0
N498 N 0.25245 0.44706 0.05364 0.0
C499 C 0.23328 0.44299 0.04667 0.0
H500 H 0.27285 0.43175 0.08927 0.0
Co501 Co 0.26869 0.46734 0.03612 0.0
C502 C 0.24504 0.46021 0.96204 0.0
O503 O 0.23826 0.4423 0.9671 0.0
N504 N 0.28501 0.48782 0.01781 0.0
C505 C 0.30375 0.50348 0.97661 0.0
C506 C 0.29404 0.48635 0.98448 0.0
C507 C 0.28973 0.50618 0.02989 0.0
N508 N 0.30101 0.51602 1.00501 0.0
O509 O 0.25064 0.486 0.05777 0.0
H510 H 0.29325 0.47368 0.96634 0.0
H511 H 0.28461 0.51247 0.05571 0.0
O512 O 0.25554 0.46848 0.98714 0.0
C513 C 0.25717 0.48858 0.09074 0.0
O514 O 0.2742 0.48066 0.09965 0.0
N515 N 0.28744 0.44863 0.02089 0.0
C516 C 0.31639 0.41936 0.02007 0.0
C517 C 0.29975 0.41792 0.99691 0.0
C518 C 0.28525 0.43274 0.99797 0.0
C519 C 0.30389 0.45052 0.04227 0.0
C520 C 0.31856 0.43624 0.04202 0.0
H521 H 0.27197 0.43083 0.98207 0.0
H522 H 0.30521 0.46286 0.0611 0.0
H523 H 0.22396 0.45194 0.02911 0.0
H524 H 0.24325 0.40693 0.10046 0.0
H525 H 0.31222 0.5065 0.95179 0.0
H526 H 0.29747 0.40504 0.9797 0.0
H527 H 0.33127 0.43817 0.05986 0.0
C528 C 0.0946 0.30544 0.03821 0.0
C529 C 0.09315 0.29693 1.00282 0.0
C530 C 0.10681 0.3218 0.04421 0.0
C531 C 0.14942 0.34791 0.99995 0.0
H532 H 0.14123 0.38512 0.08016 0.0
C533 C 0.20033 0.41502 0.02277 0.0
C534 C 0.209 0.41577 0.05819 0.0
C535 C 0.18434 0.40252 0.01578 0.0
C536 C 0.14365 0.37482 0.05764 0.0
H537 H 0.10217 0.29945 0.94557 0.0
H538 H 0.12242 0.32868 0.95515 0.0
H539 H 0.1162 0.36014 0.0672 0.0
H540 H 0.20701 0.40485 0.11448 0.0
H541 H 0.17866 0.38334 0.1025 0.0
H542 H 0.17666 0.36299 0.99002 0.0
C543 C 0.11502 0.32232 0.97889 0.0
C544 C 0.12938 0.36038 0.05029 0.0
C545 C 0.10322 0.3057 0.97316 0.0
C546 C 0.20068 0.40449 0.08691 0.0
C547 C 0.18442 0.39227 0.0801 0.0
C548 C 0.16342 0.36258 1.00683 0.0
C549 C 0.11756 0.33028 0.01474 0.0
C550 C 0.13213 0.34653 0.02153 0.0
C551 C 0.17641 0.3908 0.04424 0.0
C552 C 0.1608 0.37606 0.03594 0.0
H553 H 0.08715 0.29875 0.0616 0.0
H554 H 0.10844 0.32719 0.07231 0.0
H555 H 0.15252 0.33733 0.97825 0.0
H556 H 0.20649 0.42339 1.00003 0.0
H557 H 0.17839 0.40172 0.98792 0.0
C558 C 0.69649 0.09786 0.96903 0.0
C559 C 0.70891 0.09146 0.99778 0.0
C560 C 0.68054 0.11031 0.97643 0.0
C561 C 0.64995 0.13117 0.05375 0.0
H562 H 0.63877 0.17176 0.98106 0.0
C563 C 0.60604 0.20266 0.08482 0.0
C564 C 0.59269 0.20936 0.05779 0.0
C565 C 0.61793 0.1862 0.07812 0.0
C566 C 0.64152 0.16035 1.00142 0.0
H567 H 0.71427 0.09298 0.05691 0.0
H568 H 0.68686 0.11521 0.06989 0.0
H569 H 0.66415 0.14738 0.96826 0.0
H570 H 0.58092 0.20368 1.00296 0.0
H571 H 0.60185 0.17497 0.99101 0.0
H572 H 0.62777 0.14489 0.08751 0.0
C573 C 0.68902 0.11022 0.04164 0.0
C574 C 0.65607 0.14627 0.99407 0.0
C575 C 0.70481 0.0975 0.03426 0.0
C576 C 0.59096 0.19878 0.02441 0.0
C577 C 0.60307 0.18247 0.01746 0.0
C578 C 0.63556 0.14544 0.06129 0.0
C579 C 0.67675 0.11699 0.01276 0.0
C580 C 0.6606 0.13151 0.02019 0.0
C581 C 0.61694 0.17621 0.04399 0.0
C582 C 0.63125 0.16024 0.03527 0.0
H583 H 0.69913 0.09319 0.94073 0.0
H584 H 0.67121 0.11474 0.95352 0.0
H585 H 0.65269 0.11988 0.07431 0.0
H586 H 0.6076 0.21046 0.11087 0.0
H587 H 0.62853 0.18181 0.09904 0.0
C588 C 0.78643 0.6187 0.04488 0.0
C589 C 0.7894 0.59844 0.05074 0.0
C590 C 0.80222 0.63108 0.03659 0.0
C591 C 0.85534 0.63772 0.04582 0.0
H592 H 0.84732 0.67577 0.967 0.0
C593 C 0.91295 0.6987 1.00751 0.0
C594 C 0.90481 0.71757 1.00194 0.0
C595 C 0.9007 0.68208 1.01069 0.0
C596 C 0.84981 0.6653 0.98919 0.0
H597 H 0.81143 0.57538 0.05298 0.0
H598 H 0.83935 0.59729 0.03883 0.0
H599 H 0.82259 0.6505 0.97823 0.0
H600 H 0.87718 0.73354 0.99663 0.0
H601 H 0.85622 0.70498 1.00173 0.0
H602 H 0.88233 0.65308 0.05754 0.0
C603 C 0.82464 0.60343 0.04059 0.0
C604 C 0.83564 0.6508 0.99556 0.0
C605 C 0.80869 0.5909 0.04848 0.0
C606 C 0.88417 0.71933 0.99979 0.0
C607 C 0.87204 0.70284 1.00281 0.0
C608 C 0.86956 0.65239 0.03954 0.0
C609 C 0.82149 0.62363 0.03412 0.0
C610 C 0.83795 0.63719 0.02458 0.0
C611 C 0.88007 0.68399 1.00817 0.0
C612 C 0.86664 0.66671 0.01182 0.0
H613 H 0.77177 0.62498 0.04584 0.0
H614 H 0.79932 0.64661 0.03219 0.0
H615 H 0.8575 0.62744 0.06841 0.0
H616 H 0.92874 0.6967 1.00918 0.0
H617 H 0.90736 0.66775 0.01471 0.0
C618 C 0.28008 0.88063 0.01588 0.0
C619 C 0.28336 0.90067 1.0082 0.0
C620 C 0.29585 0.86775 0.02143 0.0
C621 C 0.34829 0.85962 1.00212 0.0
H622 H 0.34443 0.82323 0.08469 0.0
C623 C 0.41032 0.80318 0.03852 0.0
C624 C 0.40415 0.78447 0.05065 0.0
C625 C 0.39663 0.81848 0.03372 0.0
C626 C 0.3457 0.8331 0.06122 0.0
H627 H 0.30593 0.92279 0.99981 0.0
H628 H 0.33371 0.90007 1.00923 0.0
H629 H 0.31884 0.84784 0.0754 0.0
H630 H 0.37862 0.76704 0.06568 0.0
H631 H 0.35488 0.79338 0.05691 0.0
H632 H 0.37495 0.84452 0.9874 0.0
C633 C 0.3188 0.89445 0.01098 0.0
C634 C 0.33103 0.84728 0.05601 0.0
C635 C 0.30292 0.90746 1.00583 0.0
C636 C 0.38397 0.78135 0.05716 0.0
C637 C 0.37032 0.79654 0.05217 0.0
C638 C 0.36296 0.84528 1.00717 0.0
C639 C 0.3154 0.87447 0.01925 0.0
C640 C 0.33196 0.86051 0.02609 0.0
C641 C 0.37644 0.8154 0.04077 0.0
C642 C 0.36167 0.8316 0.03646 0.0
H643 H 0.26525 0.87491 0.01846 0.0
H644 H 0.29271 0.85242 0.02735 0.0
H645 H 0.34937 0.86956 0.97871 0.0
H646 H 0.42578 0.80611 0.03351 0.0
H647 H 0.40194 0.83283 0.0252 0.0
C648 C 0.09106 0.69386 0.55474 0.0
C649 C 0.09763 0.71256 0.54355 0.0
C650 C 0.10271 0.67711 0.54802 0.0
C651 C 0.14092 0.6577 0.48666 0.0
H652 H 0.16029 0.62754 0.57037 0.0
C653 C 0.21171 0.6118 0.47655 0.0
C654 C 0.21428 0.59493 0.49868 0.0
C655 C 0.1949 0.62353 0.48006 0.0
C656 C 0.15473 0.63544 0.54648 0.0
H657 H 0.1209 0.72843 0.51545 0.0
H658 H 0.14089 0.69925 0.50274 0.0
H659 H 0.13495 0.65263 0.57999 0.0
H660 H 0.20051 0.57688 0.54104 0.0
H661 H 0.17082 0.59693 0.54617 0.0
H662 H 0.16046 0.6407 0.45295 0.0
C663 C 0.12698 0.6975 0.51716 0.0
C664 C 0.14023 0.64986 0.5521 0.0
C665 C 0.11564 0.71418 0.52462 0.0
C666 C 0.19909 0.58967 0.52338 0.0
C667 C 0.18212 0.60136 0.52668 0.0
C668 C 0.15513 0.6431 0.4809 0.0
C669 C 0.12076 0.67882 0.52906 0.0
C670 C 0.13363 0.6615 0.5224 0.0
C671 C 0.17993 0.61865 0.50548 0.0
C672 C 0.16275 0.63219 0.5109 0.0
H673 H 0.07722 0.69233 0.56941 0.0
H674 H 0.09761 0.66285 0.55746 0.0
H675 H 0.1359 0.66635 0.46323 0.0
H676 H 0.22285 0.61621 0.45677 0.0
H677 H 0.19402 0.63682 0.46356 0.0
C678 C 0.3878 0.21574 0.53514 0.0
C679 C 0.4061 0.21408 0.51719 0.0
C680 C 0.37631 0.19909 0.5419 0.0
C681 C 0.3634 0.15152 0.50624 0.0
H682 H 0.3422 0.14221 0.60458 0.0
C683 C 0.30445 0.09117 0.53254 0.0
C684 C 0.28904 0.0963 0.55688 0.0
C685 C 0.32138 0.10294 0.5298 0.0
C686 C 0.3478 0.14465 0.57684 0.0
H687 H 0.42681 0.19379 0.49226 0.0
H688 H 0.40617 0.16438 0.50294 0.0
H689 H 0.36684 0.16787 0.59538 0.0
H690 H 0.28002 0.1175 0.59868 0.0
H691 H 0.30876 0.13826 0.59281 0.0
H692 H 0.34355 0.12923 0.48707 0.0
C693 C 0.40097 0.17865 0.51217 0.0
C694 C 0.36206 0.15926 0.57171 0.0
C695 C 0.41275 0.19536 0.50619 0.0
C696 C 0.29132 0.11317 0.57915 0.0
C697 C 0.30809 0.12499 0.57619 0.0
C698 C 0.34886 0.1371 0.51123 0.0
C699 C 0.38266 0.18041 0.53023 0.0
C700 C 0.3697 0.16311 0.53626 0.0
C701 C 0.32331 0.12021 0.55121 0.0
C702 C 0.3405 0.13378 0.54649 0.0
H703 H 0.38247 0.22999 0.54419 0.0
H704 H 0.36221 0.20087 0.55563 0.0
H705 H 0.36898 0.15432 0.47857 0.0
H706 H 0.30326 0.07838 0.51476 0.0
H707 H 0.33286 0.09858 0.51063 0.0
C708 C 0.78558 0.38785 0.52112 0.0
C709 C 0.78808 0.40711 0.50768 0.0
C710 C 0.80188 0.37585 0.52819 0.0
C711 C 0.85052 0.3636 0.49924 0.0
H712 H 0.8571 0.34117 0.59737 0.0
C713 C 0.9105 0.3045 0.52869 0.0
C714 C 0.90507 0.28898 0.5525 0.0
C715 C 0.89862 0.32135 0.52537 0.0
C716 C 0.85542 0.34707 0.56965 0.0
H717 H 0.80951 0.42894 0.49093 0.0
H718 H 0.83832 0.40746 0.50198 0.0
H719 H 0.83153 0.36574 0.5866 0.0
H720 H 0.88318 0.27978 0.59289 0.0
H721 H 0.86227 0.30825 0.58582 0.0
H722 H 0.87344 0.3441 0.48145 0.0
C723 C 0.82365 0.40189 0.50748 0.0
C724 C 0.84086 0.36131 0.56366 0.0
C725 C 0.80727 0.41413 0.50127 0.0
C726 C 0.88779 0.29112 0.57372 0.0
C727 C 0.87585 0.30778 0.5701 0.0
C728 C 0.86486 0.34903 0.50501 0.0
C729 C 0.82105 0.38268 0.52125 0.0
C730 C 0.83806 0.36947 0.5283 0.0
C731 C 0.88092 0.3231 0.54559 0.0
C732 C 0.86725 0.34022 0.54018 0.0
H733 H 0.77096 0.38218 0.5267 0.0
H734 H 0.7995 0.36109 0.53868 0.0
H735 H 0.84853 0.3696 0.47164 0.0
H736 H 0.92362 0.30347 0.51175 0.0
H737 H 0.90327 0.33292 0.50665 0.0
C738 C 0.62182 0.77949 0.51456 0.0
C739 C 0.60163 0.78278 0.50825 0.0
C740 C 0.63467 0.79522 0.52075 0.0
C741 C 0.64189 0.84831 0.50647 0.0
H742 H 0.67999 0.84221 0.58587 0.0
C743 C 0.69943 0.90908 0.54462 0.0
C744 C 0.71857 0.90235 0.55287 0.0
C745 C 0.68376 0.89573 0.54059 0.0
C746 C 0.66959 0.84412 0.56336 0.0
H747 H 0.57924 0.80537 0.50271 0.0
H748 H 0.60186 0.83303 0.5134 0.0
H749 H 0.65537 0.81675 0.57548 0.0
H750 H 0.73617 0.8761 0.56208 0.0
H751 H 0.70918 0.85308 0.55505 0.0
H752 H 0.65649 0.87554 0.49383 0.0
C753 C 0.60764 0.81815 0.51358 0.0
C754 C 0.65543 0.82951 0.55746 0.0
C755 C 0.59468 0.80232 0.50769 0.0
C756 C 0.72161 0.88195 0.55672 0.0
C757 C 0.70605 0.86868 0.55264 0.0
C758 C 0.65619 0.86294 0.51225 0.0
C759 C 0.62775 0.81473 0.52067 0.0
C760 C 0.64164 0.83122 0.52852 0.0
C761 C 0.68688 0.87533 0.54468 0.0
C762 C 0.67048 0.86083 0.54034 0.0
H763 H 0.6277 0.76469 0.51571 0.0
H764 H 0.65011 0.79207 0.52565 0.0
H765 H 0.6315 0.85002 0.48386 0.0
H766 H 0.6965 0.92467 0.54168 0.0
H767 H 0.66916 0.9014 0.53472 0.0
C768 C 0.18741 0.03902 0.01089 0.0
C769 C 0.20419 0.03815 0.03353 0.0
C770 C 0.17625 0.05639 1.00896 0.0
C771 C 0.16689 0.10149 0.06495 0.0
H772 H 0.13639 0.11729 0.97914 0.0
C773 C 0.10505 0.16032 0.07382 0.0
C774 C 0.10198 0.17238 0.04276 0.0
C775 C 0.1186 0.14474 0.07216 0.0
C776 C 0.14499 0.11328 1.0033 0.0
H777 H 0.22336 0.05478 0.06973 0.0
H778 H 0.20466 0.08537 0.06496 0.0
H779 H 0.15882 0.08944 0.97435 0.0
H780 H 0.11134 0.17843 0.98646 0.0
H781 H 0.13539 0.15184 0.98392 0.0
H782 H 0.15352 0.12565 0.0936 0.0
C783 C 0.19952 0.0726 0.04977 0.0
C784 C 0.15768 0.09708 1.00065 0.0
C785 C 0.21042 0.05521 0.05212 0.0
C786 C 0.11326 0.16915 1.01065 0.0
C787 C 0.12693 0.15379 1.00912 0.0
C788 C 0.15435 0.11778 0.0675 0.0
C789 C 0.18185 0.07324 0.02937 0.0
C790 C 0.16879 0.09092 0.03147 0.0
C791 C 0.12951 0.14109 0.03954 0.0
C792 C 0.14316 0.12388 0.03676 0.0
H793 H 0.18221 0.02591 0.99684 0.0
H794 H 0.16268 0.05622 0.99313 0.0
H795 H 0.17486 0.09701 0.08958 0.0
H796 H 0.09642 0.16245 0.09879 0.0
H797 H 0.12001 0.13518 0.09606 0.0
C798 C 0.95791 0.20304 1.00302 0.0
C799 C 0.9738 0.1923 0.01769 0.0
C800 C 0.9395 0.19395 0.99791 0.0
C801 C 0.91584 0.14521 0.98834 0.0
H802 H 0.86972 0.16951 0.03259 0.0
C803 C 0.84091 0.10664 0.98251 0.0
C804 C 0.83061 0.10528 0.01627 0.0
C805 C 0.85669 0.11964 0.97857 0.0
C806 C 0.88247 0.16257 0.02007 0.0
H807 H 0.98333 0.16366 0.03685 0.0
H808 H 0.95156 0.1477 0.02728 0.0
H809 H 0.90111 0.18744 0.03137 0.0
H810 H 0.82804 0.11737 0.07167 0.0
H811 H 0.85589 0.14014 0.06495 0.0
H812 H 0.89762 0.12014 0.97804 0.0
C813 C 0.9531 0.1631 0.01993 0.0
C814 C 0.90036 0.17291 0.019 0.0
C815 C 0.97127 0.17222 0.02554 0.0
C816 C 0.83572 0.11809 0.04536 0.0
C817 C 0.85164 0.13114 0.04145 0.0
C818 C 0.89801 0.13497 0.98915 0.0
C819 C 0.9369 0.1739 1.00669 0.0
C820 C 0.91733 0.16416 1.00373 0.0
C821 C 0.86264 0.13165 1.0083 0.0
C822 C 0.88115 0.14338 1.00548 0.0
H823 H 0.95951 0.2186 0.99712 0.0
H824 H 0.92728 0.20259 0.98749 0.0
H825 H 0.92863 0.13812 0.97623 0.0
H826 H 0.83701 0.09729 0.95927 0.0
H827 H 0.86452 0.11999 0.95239 0.0
C828 C 0.91417 0.85507 0.07807 0.0
C829 C 0.90795 0.83574 0.07069 0.0
C830 C 0.90077 0.87067 0.07695 0.0
C831 C 0.85453 0.88578 0.03305 0.0
H832 H 0.85793 0.92889 0.10334 0.0
C833 C 0.80566 0.95726 0.02855 0.0
C834 C 0.81566 0.97475 0.03749 0.0
C835 C 0.81529 0.939 0.03171 0.0
C836 C 0.85687 0.91704 0.08329 0.0
H837 H 0.88278 0.81746 0.05717 0.0
H838 H 0.8592 0.84487 0.05525 0.0
H839 H 0.87716 0.89915 0.11375 0.0
H840 H 0.84377 0.98714 0.05357 0.0
H841 H 0.86063 0.95562 0.05829 0.0
H842 H 0.83449 0.90401 1.00219 0.0
C843 C 0.87448 0.8479 0.06185 0.0
C844 C 0.86786 0.89997 0.08936 0.0
C845 C 0.8879 0.83221 0.06338 0.0
C846 C 0.83568 0.97381 0.04713 0.0
C847 C 0.84526 0.95575 0.0501 0.0
C848 C 0.84351 0.90296 0.02691 0.0
C849 C 0.88085 0.86733 0.06812 0.0
C850 C 0.8672 0.88433 0.06389 0.0
C851 C 0.83503 0.93808 0.04376 0.0
C852 C 0.84499 0.91898 0.0515 0.0
H853 H 0.92955 0.8582 0.0837 0.0
H854 H 0.9062 0.88548 0.08156 0.0
H855 H 0.85381 0.874 0.0128 0.0
H856 H 0.79018 0.95767 0.02123 0.0
H857 H 0.80704 0.92562 0.02646 0.0
C858 C 0.16834 0.89422 0.06576 0.0
C859 C 0.16524 0.91469 0.06775 0.0
C860 C 0.15235 0.88126 0.06279 0.0
C861 C 0.09816 0.87787 0.07575 0.0
H862 H 0.10175 0.83549 1.00379 0.0
C863 C 0.0296 0.83354 0.03593 0.0
C864 C 0.03166 0.81301 0.03544 0.0
C865 C 0.04621 0.84569 0.03646 0.0
C866 C 0.10057 0.84716 0.02417 0.0
H867 H 0.14289 0.93748 0.06995 0.0
H868 H 0.11508 0.91498 0.06458 0.0
H869 H 0.13024 0.85677 0.01472 0.0
H870 H 0.05237 0.7889 0.03408 0.0
H871 H 0.08172 0.81009 0.03476 0.0
H872 H 0.06856 0.86835 0.08526 0.0
C873 C 0.12982 0.90888 0.0654 0.0
C874 C 0.11691 0.85932 0.03057 0.0
C875 C 0.14578 0.92181 0.06825 0.0
C876 C 0.05057 0.80475 0.03358 0.0
C877 C 0.06728 0.8169 0.03418 0.0
C878 C 0.08185 0.86577 0.06934 0.0
C879 C 0.1329 0.88846 0.06194 0.0
C880 C 0.11586 0.87491 0.05629 0.0
C881 C 0.06527 0.8375 0.03696 0.0
C882 C 0.08277 0.85035 0.04327 0.0
H883 H 0.18314 0.88827 0.06489 0.0
H884 H 0.15524 0.86561 0.0607 0.0
H885 H 0.09692 0.88949 0.09623 0.0
H886 H 0.01508 0.8401 0.03799 0.0
H887 H 0.04412 0.86149 0.03787 0.0
C888 C 0.18326 0.96587 0.54586 0.0
C889 C 0.20015 0.96649 0.52355 0.0
C890 C 0.17172 0.94876 0.54719 0.0
C891 C 0.16169 0.90425 0.49001 0.0
H892 H 0.1302 0.88882 0.57475 0.0
C893 C 0.09908 0.84644 0.47857 0.0
C894 C 0.09569 0.8343 0.50938 0.0
C895 C 0.11269 0.86193 0.48087 0.0
C896 C 0.13907 0.89272 0.55088 0.0
H897 H 0.21912 0.94974 0.48724 0.0
H898 H 0.19978 0.9195 0.49105 0.0
H899 H 0.15327 0.91604 0.58062 0.0
H900 H 0.10446 0.82802 0.56593 0.0
H901 H 0.12864 0.85441 0.56959 0.0
H902 H 0.14799 0.88054 0.46062 0.0
C903 C 0.19485 0.93229 0.50644 0.0
C904 C 0.15214 0.90857 0.55415 0.0
C905 C 0.20611 0.94945 0.50466 0.0
C906 C 0.10664 0.83739 0.54194 0.0
C907 C 0.12037 0.85263 0.5441 0.0
C908 C 0.14879 0.88828 0.48686 0.0
C909 C 0.17706 0.93193 0.5265 0.0
C910 C 0.16361 0.91459 0.52373 0.0
C911 C 0.12335 0.86537 0.51388 0.0
C912 C 0.13725 0.88232 0.51721 0.0
H913 H 0.17828 0.97902 0.56008 0.0
H914 H 0.15807 0.94914 0.56273 0.0
H915 H 0.16994 0.90865 0.46567 0.0
H916 H 0.09072 0.84437 0.45324 0.0
H917 H 0.11442 0.87153 0.45711 0.0
C918 C 0.05117 0.20362 0.50417 0.0
C919 C 0.03394 0.19723 0.5219 0.0
C920 C 0.0684 0.19238 0.50588 0.0
C921 C 0.09157 0.14853 0.55151 0.0
H922 H 0.12165 0.14703 0.46004 0.0
C923 C 0.1629 0.10287 0.54024 0.0
C924 C 0.16698 0.09322 0.50661 0.0
C925 C 0.14756 0.11652 0.54274 0.0
C926 C 0.11334 0.14707 0.48569 0.0
H927 H 0.02105 0.17448 0.55587 0.0
H928 H 0.05098 0.15436 0.55837 0.0
H929 H 0.09342 0.16882 0.46507 0.0
H930 H 0.15847 0.09049 0.44901 0.0
H931 H 0.13112 0.11393 0.45341 0.0
H932 H 0.11083 0.12598 0.57137 0.0
C933 C 0.05153 0.16833 0.54397 0.0
C934 C 0.09728 0.1599 0.48888 0.0
C935 C 0.03437 0.17983 0.54273 0.0
C936 C 0.15565 0.0978 0.47521 0.0
C937 C 0.14004 0.11129 0.47781 0.0
C938 C 0.10748 0.13553 0.54816 0.0
C939 C 0.06864 0.17418 0.52461 0.0
C940 C 0.08616 0.16087 0.52186 0.0
C941 C 0.13566 0.12071 0.51176 0.0
C942 C 0.11864 0.13462 0.51521 0.0
H943 H 0.05099 0.21695 0.48768 0.0
H944 H 0.08135 0.19771 0.4915 0.0
H945 H 0.08355 0.14891 0.57747 0.0
H946 H 0.17164 0.09984 0.56475 0.0
H947 H 0.1451 0.1238 0.56906 0.0
C948 C 0.80033 0.04938 0.4712 0.0
C949 C 0.80057 0.0364 0.50157 0.0
C950 C 0.81079 0.06704 0.4723 0.0
C951 C 0.83597 0.10298 0.53244 0.0
H952 H 0.86957 0.11035 0.44644 0.0
C953 C 0.90006 0.15881 0.53142 0.0
C954 C 0.90504 0.16844 0.49811 0.0
C955 C 0.88574 0.14406 0.53205 0.0
C956 C 0.86005 0.1088 0.47037 0.0
H957 H 0.81087 0.03237 0.5579 0.0
H958 H 0.8292 0.06357 0.56008 0.0
H959 H 0.84694 0.0826 0.44848 0.0
H960 H 0.89821 0.17042 0.43948 0.0
H961 H 0.87271 0.14503 0.44071 0.0
H962 H 0.84899 0.12926 0.55428 0.0
C963 C 0.82089 0.05994 0.53533 0.0
C964 C 0.84711 0.09281 0.4716 0.0
C965 C 0.81038 0.04213 0.53417 0.0
C966 C 0.8948 0.16332 0.46559 0.0
C967 C 0.88031 0.14859 0.46627 0.0
C968 C 0.8488 0.11913 0.53107 0.0
C969 C 0.82173 0.07223 0.50388 0.0
C970 C 0.835 0.08965 0.5027 0.0
C971 C 0.87574 0.13862 0.49948 0.0
C972 C 0.86115 0.12216 0.50012 0.0
H973 H 0.79253 0.04554 0.446 0.0
H974 H 0.81076 0.07641 0.44798 0.0
H975 H 0.82668 0.10103 0.5566 0.0
H976 H 0.90722 0.16267 0.55727 0.0
H977 H 0.88285 0.13664 0.55807 0.0
C978 C 0.95186 0.79768 0.53784 0.0
C979 C 0.97012 0.80731 0.53891 0.0
C980 C 0.93432 0.80853 0.53983 0.0
C981 C 0.914 0.8583 0.5612 0.0
H982 H 0.87457 0.84448 0.48768 0.0
C983 C 0.84221 0.90266 0.54768 0.0
C984 C 0.83553 0.9071 0.51172 0.0
C985 C 0.85728 0.889 0.55326 0.0
C986 C 0.88547 0.8486 0.50822 0.0
H987 H 0.98469 0.83543 0.54368 0.0
H988 H 0.95424 0.85453 0.54768 0.0
H989 H 0.90339 0.82343 0.49609 0.0
H990 H 0.83896 0.9002 0.45343 0.0
H991 H 0.86573 0.87646 0.46301 0.0
H992 H 0.89661 0.88387 0.57231 0.0
C993 C 0.95323 0.83863 0.5459 0.0
C994 C 0.90187 0.83636 0.51346 0.0
C995 C 0.97069 0.82777 0.54378 0.0
C996 C 0.84385 0.89707 0.48143 0.0
C997 C 0.85912 0.88344 0.487 0.0
C998 C 0.89767 0.87053 0.55593 0.0
C999 C 0.93481 0.82923 0.54281 0.0
C1000 C 0.91645 0.84118 0.53975 0.0
C1001 C 0.86621 0.87944 0.52301 0.0
C1002 C 0.88325 0.86595 0.52917 0.0
H1003 H 0.95123 0.78192 0.53324 0.0
H1004 H 0.92039 0.8008 0.53779 0.0
H1005 H 0.92484 0.8624 0.58188 0.0
H1006 H 0.83574 0.90978 0.57168 0.0
H1007 H 0.86196 0.88594 0.58141 0.0
C1008 C 0.69696 0.54896 0.58266 0.0
C1009 C 0.69718 0.53564 0.55277 0.0
C1010 C 0.68526 0.56583 0.58158 0.0
C1011 C 0.65723 0.59956 0.52158 0.0
H1012 H 0.62518 0.60676 0.60974 0.0
C1013 C 0.59296 0.65536 0.52661 0.0
C1014 C 0.58918 0.66548 0.56 0.0
C1015 C 0.60683 0.64018 0.52512 0.0
C1016 C 0.63422 0.60523 0.58514 0.0
H1017 H 0.68627 0.53026 0.49724 0.0
H1018 H 0.66577 0.56011 0.49506 0.0
H1019 H 0.64863 0.57969 0.60688 0.0
H1020 H 0.59744 0.66756 0.61799 0.0
H1021 H 0.62213 0.64146 0.61519 0.0
H1022 H 0.64299 0.62524 0.49996 0.0
C1023 C 0.67467 0.55732 0.51946 0.0
C1024 C 0.64763 0.58963 0.58345 0.0
C1025 C 0.68643 0.54029 0.52061 0.0
C1026 C 0.59994 0.66015 0.5918 0.0
C1027 C 0.61397 0.64501 0.59024 0.0
C1028 C 0.64391 0.61531 0.52339 0.0
C1029 C 0.6735 0.56991 0.55047 0.0
C1030 C 0.6593 0.5866 0.55169 0.0
C1031 C 0.61756 0.63477 0.55687 0.0
C1032 C 0.63217 0.61833 0.55518 0.0
H1033 H 0.70545 0.54601 0.60749 0.0
H1034 H 0.68508 0.57549 0.60552 0.0
H1035 H 0.66614 0.5977 0.49689 0.0
H1036 H 0.58537 0.6593 0.50124 0.0
H1037 H 0.60896 0.63254 0.49904 0.0
C1038 C 0.35804 0.58462 0.55178 0.0
C1039 C 0.33864 0.59102 0.55855 0.0
C1040 C 0.37348 0.59813 0.54871 0.0
C1041 C 0.3827 0.65144 0.53092 0.0
H1042 H 0.43611 0.63752 0.55899 0.0
C1043 C 0.44745 0.70642 0.5479 0.0
C1044 C 0.46593 0.70073 0.53404 0.0
C1045 C 0.43138 0.69359 0.54605 0.0
C1046 C 0.4213 0.6415 0.55056 0.0
H1047 H 0.32058 0.61675 0.56945 0.0
H1048 H 0.34768 0.64022 0.56621 0.0
H1049 H 0.40943 0.6143 0.57017 0.0
H1050 H 0.48212 0.67758 0.50639 0.0
H1051 H 0.45397 0.65478 0.50355 0.0
H1052 H 0.39471 0.67907 0.51286 0.0
C1053 C 0.35085 0.62476 0.56182 0.0
C1054 C 0.40595 0.62818 0.55695 0.0
C1055 C 0.33531 0.61124 0.56439 0.0
C1056 C 0.4679 0.68234 0.51666 0.0
C1057 C 0.4519 0.66929 0.51546 0.0
C1058 C 0.39804 0.66488 0.52512 0.0
C1059 C 0.37008 0.61845 0.55301 0.0
C1060 C 0.3864 0.63292 0.54717 0.0
C1061 C 0.43362 0.67464 0.53101 0.0
C1062 C 0.41749 0.66002 0.53479 0.0
H1063 H 0.36127 0.56914 0.5478 0.0
H1064 H 0.38797 0.59258 0.54165 0.0
H1065 H 0.36798 0.65553 0.52224 0.0
H1066 H 0.44576 0.72048 0.56177 0.0
H1067 H 0.41754 0.69806 0.55845 0.0
C1068 C 0.3212 0.46468 0.50974 0.0
C1069 C 0.30461 0.46608 0.53271 0.0
C1070 C 0.33235 0.44731 0.509 0.0
C1071 C 0.34225 0.40379 0.56872 0.0
H1072 H 0.37326 0.38681 0.48436 0.0
C1073 C 0.40557 0.34701 0.58295 0.0
C1074 C 0.40916 0.33442 0.55285 0.0
C1075 C 0.39162 0.36216 0.57984 0.0
C1076 C 0.36452 0.39113 0.50813 0.0
H1077 H 0.28578 0.45048 0.57097 0.0
H1078 H 0.3044 0.41973 0.56816 0.0
H1079 H 0.35008 0.41382 0.4772 0.0
H1080 H 0.40045 0.32694 0.49678 0.0
H1081 H 0.37564 0.3527 0.49176 0.0
H1082 H 0.35619 0.38069 0.59934 0.0
C1083 C 0.3094 0.43211 0.55174 0.0
C1084 C 0.35138 0.40686 0.50412 0.0
C1085 C 0.29852 0.44955 0.55295 0.0
C1086 C 0.39809 0.33668 0.52021 0.0
C1087 C 0.384 0.35156 0.51727 0.0
C1088 C 0.3552 0.3879 0.57261 0.0
C1089 C 0.32693 0.43099 0.53096 0.0
C1090 C 0.34015 0.41351 0.53441 0.0
C1091 C 0.38081 0.36478 0.54673 0.0
C1092 C 0.36662 0.38142 0.54246 0.0
H1093 H 0.32628 0.47745 0.49453 0.0
H1094 H 0.34582 0.44715 0.4929 0.0
H1095 H 0.33419 0.40866 0.59296 0.0
H1096 H 0.41402 0.34555 0.60832 0.0
H1097 H 0.38976 0.37215 0.603 0.0
C1098 C 0.53651 0.32324 0.51179 0.0
C1099 C 0.53657 0.30409 0.52618 0.0
C1100 C 0.55399 0.33417 0.51025 0.0
C1101 C 0.6026 0.33667 0.55711 0.0
H1102 H 0.61247 0.37732 0.48408 0.0
C1103 C 0.6603 0.39868 0.58012 0.0
C1104 C 0.67017 0.40603 0.54886 0.0
C1105 C 0.6451 0.38483 0.57597 0.0
C1106 C 0.61016 0.36588 0.50453 0.0
H1107 H 0.55463 0.28092 0.54902 0.0
H1108 H 0.5855 0.2995 0.54474 0.0
H1109 H 0.58475 0.35512 0.47579 0.0
H1110 H 0.67285 0.40385 0.4891 0.0
H1111 H 0.64697 0.37936 0.48188 0.0
H1112 H 0.6283 0.34716 0.58539 0.0
C1113 C 0.57199 0.30638 0.53532 0.0
C1114 C 0.59404 0.35327 0.49998 0.0
C1115 C 0.55446 0.29558 0.53718 0.0
C1116 C 0.6652 0.39868 0.51363 0.0
C1117 C 0.65027 0.38472 0.5095 0.0
C1118 C 0.61884 0.34919 0.5615 0.0
C1119 C 0.57188 0.32608 0.52309 0.0
C1120 C 0.58991 0.3386 0.52638 0.0
C1121 C 0.6397 0.37788 0.54048 0.0
C1122 C 0.62276 0.36408 0.53542 0.0
H1123 H 0.52271 0.33018 0.50419 0.0
H1124 H 0.55319 0.34934 0.50111 0.0
H1125 H 0.59977 0.32579 0.5784 0.0
H1126 H 0.66384 0.40417 0.60756 0.0
H1127 H 0.63721 0.38006 0.60047 0.0
C1128 C 0.68691 0.46449 0.04989 0.0
C1129 C 0.70336 0.46567 0.02651 0.0
C1130 C 0.67585 0.44708 0.05163 0.0
C1131 C 0.66601 0.40252 0.99437 0.0
H1132 H 0.63597 0.3863 0.08044 0.0
C1133 C 0.6035 0.3446 0.98486 0.0
C1134 C 0.60027 0.33244 0.01569 0.0
C1135 C 0.61731 0.35992 0.98678 0.0
C1136 C 0.64445 0.39041 0.05621 0.0
H1137 H 0.72208 0.44961 0.98867 0.0
H1138 H 0.70363 0.41885 0.99317 0.0
H1139 H 0.65869 0.41385 0.08553 0.0
H1140 H 0.6095 0.32592 0.07187 0.0
H1141 H 0.63409 0.352 0.07483 0.0
H1142 H 0.65228 0.37871 0.96536 0.0
C1143 C 0.69863 0.43143 1.00909 0.0
C1144 C 0.65731 0.40645 0.05903 0.0
C1145 C 0.7094 0.4489 1.00688 0.0
C1146 C 0.6116 0.33529 0.04785 0.0
C1147 C 0.62556 0.35036 0.04962 0.0
C1148 C 0.65334 0.38634 0.99167 0.0
C1149 C 0.68124 0.43049 0.03031 0.0
C1150 C 0.6682 0.41281 0.02809 0.0
C1151 C 0.62834 0.36318 0.01943 0.0
C1152 C 0.64228 0.38012 0.02247 0.0
H1153 H 0.68188 0.47743 0.06474 0.0
H1154 H 0.66249 0.44704 0.06806 0.0
H1155 H 0.6738 0.40715 0.96966 0.0
H1156 H 0.59482 0.34274 0.95986 0.0
H1157 H 0.61885 0.36959 0.96307 0.0
C1158 C 0.55518 0.7041 0.9996 0.0
C1159 C 0.53826 0.69924 0.01996 0.0
C1160 C 0.57201 0.6923 1.00142 0.0
C1161 C 0.59508 0.65 0.05199 0.0
H1162 H 0.62306 0.64391 0.95886 0.0
C1163 C 0.66581 0.60322 0.04248 0.0
C1164 C 0.66927 0.59232 1.00998 0.0
C1165 C 0.65048 0.61692 0.04415 0.0
C1166 C 0.61532 0.64521 0.98502 0.0
H1167 H 0.52565 0.67867 0.05895 0.0
H1168 H 0.55484 0.65748 0.06154 0.0
H1169 H 0.59527 0.66627 0.96252 0.0
H1170 H 0.65958 0.58728 0.9536 0.0
H1171 H 0.63224 0.61075 0.95667 0.0
H1172 H 0.61446 0.62809 0.0739 0.0
C1173 C 0.55544 0.67071 0.04483 0.0
C1174 C 0.59953 0.65839 0.98736 0.0
C1175 C 0.53869 0.68282 0.0435 0.0
C1176 C 0.65726 0.59559 0.9789 0.0
C1177 C 0.64166 0.60911 0.98073 0.0
C1178 C 0.61072 0.63661 0.04951 0.0
C1179 C 0.57216 0.67501 0.02298 0.0
C1180 C 0.58921 0.66108 0.02093 0.0
C1181 C 0.63797 0.61989 0.01351 0.0
C1182 C 0.62113 0.63406 0.01601 0.0
H1183 H 0.55508 0.71674 0.98129 0.0
H1184 H 0.58472 0.6965 0.9851 0.0
H1185 H 0.58768 0.65172 0.07841 0.0
H1186 H 0.67507 0.60117 0.06668 0.0
H1187 H 0.64855 0.62525 0.06952 0.0
C1188 C 0.31049 0.54691 0.97411 0.0
C1189 C 0.30868 0.5358 1.00681 0.0
C1190 C 0.32043 0.56489 0.97413 0.0
C1191 C 0.34085 0.60442 0.03385 0.0
H1192 H 0.37751 0.61078 0.95209 0.0
C1193 C 0.40401 0.66139 0.03599 0.0
C1194 C 0.40943 0.67079 1.00272 0.0
C1195 C 0.38989 0.64644 0.03616 0.0
C1196 C 0.36713 0.60946 0.97478 0.0
H1197 H 0.31494 0.5353 0.06565 0.0
H1198 H 0.3326 0.56688 0.06586 0.0
H1199 H 0.35604 0.58213 0.954 0.0
H1200 H 0.40369 0.67222 0.94365 0.0
H1201 H 0.37874 0.64617 0.94393 0.0
H1202 H 0.35219 0.6317 0.05482 0.0
C1203 C 0.32618 0.56166 0.04014 0.0
C1204 C 0.3548 0.59298 0.97594 0.0
C1205 C 0.31608 0.54361 0.04011 0.0
C1206 C 0.39989 0.66526 0.96971 0.0
C1207 C 0.38572 0.65021 0.96986 0.0
C1208 C 0.35319 0.62097 0.03266 0.0
C1209 C 0.32894 0.57223 1.00688 0.0
C1210 C 0.34157 0.59018 1.00555 0.0
C1211 C 0.38069 0.64048 1.00308 0.0
C1212 C 0.3666 0.62361 1.00324 0.0
H1213 H 0.30454 0.54145 0.94819 0.0
H1214 H 0.32179 0.57287 0.94824 0.0
H1215 H 0.33068 0.60285 0.05681 0.0
H1216 H 0.41074 0.66556 0.06209 0.0
H1217 H 0.38658 0.6392 0.06219 0.0
C1218 C 0.47041 0.33234 0.03442 0.0
C1219 C 0.47162 0.31176 0.03685 0.0
C1220 C 0.45228 0.34189 0.03749 0.0
C1221 C 0.40014 0.33483 0.01875 0.0
H1222 H 0.39421 0.3832 0.07497 0.0
C1223 C 0.33909 0.39383 0.99207 0.0
C1224 C 0.33109 0.40317 0.02347 0.0
C1225 C 0.35459 0.38026 0.99591 0.0
C1226 C 0.39552 0.36961 0.05937 0.0
H1227 H 0.45506 0.28492 0.0448 0.0
H1228 H 0.42289 0.30167 0.04981 0.0
H1229 H 0.4245 0.3641 0.08053 0.0
H1230 H 0.3319 0.40433 0.08362 0.0
H1231 H 0.35882 0.3809 0.09021 0.0
H1232 H 0.37125 0.34069 0.99691 0.0
C1233 C 0.4361 0.31039 0.04587 0.0
C1234 C 0.41292 0.35874 0.06243 0.0
C1235 C 0.45441 0.30084 0.04346 0.0
C1236 C 0.3381 0.3978 0.05879 0.0
C1237 C 0.35352 0.38435 0.0626 0.0
C1238 C 0.38275 0.34586 0.01536 0.0
C1239 C 0.43485 0.33102 0.04239 0.0
C1240 C 0.41553 0.34134 0.04191 0.0
C1241 C 0.36231 0.37581 0.03122 0.0
C1242 C 0.38031 0.36345 0.03548 0.0
H1243 H 0.48353 0.34095 0.02889 0.0
H1244 H 0.45179 0.35776 0.03434 0.0
H1245 H 0.40183 0.32157 1.00231 0.0
H1246 H 0.33398 0.39765 0.96452 0.0
H1247 H 0.3611 0.37395 0.97118 0.0
C1248 C 0.95746 0.27361 0.39229 0.0
C1249 C 0.96713 0.26349 0.42118 0.0
C1250 C 0.96592 0.27487 0.35682 0.0
C1251 C 0.99834 0.24776 0.29448 0.0
H1252 H 0.00355 0.29646 0.23907 0.0
C1253 C 0.0178 0.24985 0.13764 0.0
C1254 C 0.03414 0.26164 0.12834 0.0
C1255 C 0.00921 0.25103 0.17297 0.0
C1256 C 0.00215 0.28275 0.25423 0.0
H1257 H 0.99403 0.24796 0.4355 0.0
H1258 H 0.00828 0.24942 0.37342 0.0
H1259 H 0.98977 0.29706 0.30213 0.0
H1260 H 0.05362 0.28458 0.14863 0.0
H1261 H 0.03818 0.28705 0.20986 0.0
H1262 H 0.01032 0.23338 0.24645 0.0
C1263 C 0.99409 0.25626 0.37829 0.0
C1264 C 0.99421 0.28309 0.29021 0.0
C1265 C 0.98584 0.25536 0.4139 0.0
C1266 C 0.04113 0.27521 0.15483 0.0
C1267 C 0.03226 0.27668 0.18989 0.0
C1268 C 0.00585 0.24737 0.25827 0.0
C1269 C 0.98411 0.26579 0.34921 0.0
C1270 C 0.99236 0.2656 0.31084 0.0
C1271 C 0.01644 0.26435 0.1996 0.0
C1272 C 0.00795 0.26486 0.23778 0.0
H1273 H 0.94311 0.28018 0.39678 0.0
H1274 H 0.9579 0.28233 0.33496 0.0
H1275 H 0.99697 0.23403 0.30959 0.0
H1276 H 0.01192 0.23932 0.11801 0.0
H1277 H 0.99693 0.24146 0.17954 0.0
C1278 C 0.74306 0.9843 0.4133 0.0
C1279 C 0.74008 0.96391 0.41753 0.0
C1280 C 0.74214 0.99315 0.37817 0.0
C1281 C 0.72639 0.98482 0.27925 0.0
H1282 H 0.76417 0.02639 0.26023 0.0
C1283 C 0.74502 0.0162 0.13117 0.0
C1284 C 0.7491 0.0365 0.12898 0.0
C1285 C 0.74143 0.00722 0.16577 0.0
C1286 C 0.75333 0.01497 0.26508 0.0
H1287 H 0.73319 0.937 0.38776 0.0
H1288 H 0.73192 0.95229 0.32664 0.0
H1289 H 0.76281 0.0113 0.3212 0.0
H1290 H 0.75117 0.06342 0.16118 0.0
H1291 H 0.74466 0.04796 0.22075 0.0
H1292 H 0.71732 0.98835 0.22243 0.0
C1293 C 0.7347 0.96158 0.35051 0.0
C1294 C 0.75249 0.0063 0.30029 0.0
C1295 C 0.7355 0.95275 0.38572 0.0
C1296 C 0.74827 0.04772 0.16179 0.0
C1297 C 0.74469 0.03881 0.19611 0.0
C1298 C 0.72733 0.99345 0.24379 0.0
C1299 C 0.73834 0.98188 0.34604 0.0
C1300 C 0.73895 0.99115 0.30814 0.0
C1301 C 0.74188 0.01834 0.19885 0.0
C1302 C 0.74073 0.00876 0.2363 0.0
H1303 H 0.74639 0.99344 0.43714 0.0
H1304 H 0.74454 0.00888 0.37626 0.0
H1305 H 0.71561 0.97335 0.2841 0.0
H1306 H 0.74574 0.00708 0.10654 0.0
H1307 H 0.73933 0.99141 0.16677 0.0
C1308 C 0.96024 0.72793 0.16076 0.0
C1309 C 0.96944 0.73899 0.13258 0.0
C1310 C 0.9688 0.72632 0.19609 0.0
C1311 C 0.99894 0.75393 0.26054 0.0
H1312 H 0.00828 0.70467 0.31221 0.0
C1313 C 0.01676 0.74976 0.41774 0.0
C1314 C 0.03461 0.74022 0.42641 0.0
C1315 C 0.00859 0.74835 0.38212 0.0
C1316 C 0.00571 0.71852 0.29808 0.0
H1317 H 0.9957 0.75579 0.11921 0.0
H1318 H 0.01005 0.75378 0.1812 0.0
H1319 H 0.99492 0.70428 0.24874 0.0
H1320 H 0.05716 0.72069 0.40463 0.0
H1321 H 0.04242 0.71769 0.34285 0.0
H1322 H 0.0092 0.76821 0.31006 0.0
C1323 C 0.99617 0.74643 0.17583 0.0
C1324 C 0.99803 0.71829 0.26189 0.0
C1325 C 0.98785 0.74765 0.14031 0.0
C1326 C 0.04348 0.72836 0.39899 0.0
C1327 C 0.03504 0.72659 0.36358 0.0
C1328 C 0.00615 0.75416 0.29696 0.0
C1329 C 0.9866 0.73599 0.20425 0.0
C1330 C 0.99471 0.73601 0.24266 0.0
C1331 C 0.01774 0.73692 0.35454 0.0
C1332 C 0.0097 0.73647 0.31608 0.0
H1333 H 0.94614 0.72091 0.15589 0.0
H1334 H 0.96112 0.71816 0.21747 0.0
H1335 H 0.9964 0.7678 0.24647 0.0
H1336 H 0.0093 0.75875 0.43814 0.0
H1337 H 0.99511 0.75629 0.37603 0.0
C1338 C 0.26334 0.01661 0.42009 0.0
C1339 C 0.26416 0.03719 0.42436 0.0
C1340 C 0.26536 0.00789 0.38498 0.0
C1341 C 0.28001 0.01863 0.28605 0.0
H1342 H 0.24951 0.97149 0.26636 0.0
C1343 C 0.26499 0.98704 0.13765 0.0
C1344 C 0.26643 0.96647 0.1333 0.0
C1345 C 0.26655 0.99575 0.1729 0.0
C1346 C 0.25827 0.98456 0.27147 0.0
H1347 H 0.268 0.0647 0.39474 0.0
H1348 H 0.27088 0.0497 0.33366 0.0
H1349 H 0.24858 0.98633 0.32778 0.0
H1350 H 0.27121 0.93906 0.1629 0.0
H1351 H 0.27374 0.9542 0.22412 0.0
H1352 H 0.28904 0.01708 0.22895 0.0
C1353 C 0.2692 0.04011 0.35743 0.0
C1354 C 0.25785 0.99307 0.30691 0.0
C1355 C 0.26747 0.04879 0.39263 0.0
C1356 C 0.27006 0.95493 0.16502 0.0
C1357 C 0.27135 0.9636 0.20026 0.0
C1358 C 0.28019 0.01025 0.2504 0.0
C1359 C 0.26796 0.0195 0.35289 0.0
C1360 C 0.26875 0.01025 0.31493 0.0
C1361 C 0.26934 0.98408 0.20476 0.0
C1362 C 0.26937 0.99306 0.24268 0.0
H1363 H 0.26094 0.00719 0.44391 0.0
H1364 H 0.26481 0.99199 0.38312 0.0
H1365 H 0.28891 0.03161 0.29095 0.0
H1366 H 0.26226 0.99641 0.11387 0.0
H1367 H 0.26488 0.01157 0.17538 0.0
C1368 C 0.96882 0.74586 0.90232 0.0
C1369 C 0.98279 0.74629 0.93108 0.0
C1370 C 0.9738 0.73895 0.86708 0.0
C1371 C 0.01713 0.73477 0.80626 0.0
H1372 H 0.97864 0.713 0.73793 0.0
C1373 C 0.03439 0.73051 0.65065 0.0
C1374 C 0.01992 0.73899 0.62781 0.0
C1375 C 0.02999 0.72509 0.6872 0.0
C1376 C 0.98957 0.71906 0.75663 0.0
H1377 H 0.01275 0.73894 0.94611 0.0
H1378 H 0.02164 0.72652 0.88409 0.0
H1379 H 0.97132 0.71422 0.80424 0.0
H1380 H 0.98935 0.74777 0.62462 0.0
H1381 H 0.98143 0.738 0.68833 0.0
H1382 H 0.03518 0.74005 0.75861 0.0
C1383 C 0.00676 0.7317 0.88885 0.0
C1384 C 0.98539 0.71979 0.79472 0.0
C1385 C 1.00165 0.73856 0.9245 0.0
C1386 C 1.0006 0.74067 0.64128 0.0
C1387 C 0.99615 0.73523 0.67794 0.0
C1388 C 0.02136 0.73391 0.76823 0.0
C1389 C 0.99301 0.73234 0.85937 0.0
C1390 C 0.99886 0.72822 0.81999 0.0
C1391 C 0.01104 0.72821 0.70189 0.0
C1392 C 0.00744 0.72651 0.74274 0.0
H1393 H 0.95416 0.75181 0.90662 0.0
H1394 H 0.96284 0.73999 0.84533 0.0
H1395 H 0.02778 0.74162 0.82455 0.0
H1396 H 0.04952 0.72949 0.64115 0.0
H1397 H 0.04174 0.71946 0.70458 0.0
C1398 C 0.27142 0.03171 0.6469 0.0
C1399 C 0.26267 0.01731 0.62427 0.0
C1400 C 0.277 0.02732 0.68343 0.0
C1401 C 0.28358 0.98673 0.75242 0.0
H1402 H 0.26298 0.02514 0.82206 0.0
C1403 C 0.26046 0.96621 0.90077 0.0
C1404 C 0.26071 0.98025 0.92942 0.0
C1405 C 0.26645 0.9711 0.86487 0.0
C1406 C 0.26928 0.0144 0.80325 0.0
H1407 H 0.25335 0.98691 0.62165 0.0
H1408 H 0.26347 0.97898 0.68515 0.0
H1409 H 0.2633 0.03259 0.75605 0.0
H1410 H 0.26827 0.01029 0.94334 0.0
H1411 H 0.27917 0.01897 0.88027 0.0
H1412 H 0.2892 0.96837 0.79957 0.0
C1413 C 0.26635 0.99364 0.67464 0.0
C1414 C 0.26942 0.01867 0.76517 0.0
C1415 C 0.26069 0.99809 0.63808 0.0
C1416 C 0.26821 0.9991 0.9219 0.0
C1417 C 0.27416 0.0041 0.88562 0.0
C1418 C 0.28358 0.9825 0.79054 0.0
C1419 C 0.2738 0.00842 0.69832 0.0
C1420 C 0.27612 0.00471 0.7391 0.0
C1421 C 0.27278 0.99029 0.85632 0.0
C1422 C 0.27591 0.99605 0.8165 0.0
H1423 H 0.27259 0.04679 0.63724 0.0
H1424 H 0.28291 0.03901 0.7006 0.0
H1425 H 0.28914 0.97574 0.73328 0.0
H1426 H 0.25456 0.9516 0.90572 0.0
H1427 H 0.26485 0.96007 0.84336 0.0
C1428 C 0.99923 0.26523 0.91878 0.0
C1429 C 0.01934 0.26269 0.9264 0.0
C1430 C 0.99306 0.27095 0.88306 0.0
C1431 C 0.01217 0.28705 0.78894 0.0
H1432 H 0.96807 0.25618 0.75313 0.0
C1433 C 1.00088 0.26218 0.63542 0.0
C1434 C 0.98145 0.26084 0.62226 0.0
C1435 C 0.00458 0.26823 0.67211 0.0
C1436 C 0.98024 0.26519 0.76267 0.0
H1437 H 0.04877 0.26526 0.90381 0.0
H1438 H 0.03828 0.27499 0.84229 0.0
H1439 H 0.97542 0.25676 0.81905 0.0
H1440 H 0.95079 0.26555 0.63617 0.0
H1441 H 0.95719 0.27641 0.69967 0.0
H1442 H 0.01754 0.29448 0.73186 0.0
C1443 C 0.02707 0.27299 0.8633 0.0
C1444 C 0.98443 0.26561 0.80073 0.0
C1445 C 0.03315 0.26736 0.89875 0.0
C1446 C 0.96594 0.26682 0.64549 0.0
C1447 C 0.96959 0.27277 0.68201 0.0
C1448 C 0.00812 0.2864 0.75075 0.0
C1449 C 0.00691 0.27411 0.85432 0.0
C1450 C 1.00071 0.27622 0.81449 0.0
C1451 C 0.98888 0.27277 0.69632 0.0
C1452 C 0.99228 0.2752 0.73707 0.0
H1453 H 0.98828 0.26138 0.93942 0.0
H1454 H 0.9774 0.27201 0.87755 0.0
H1455 H 0.02459 0.29574 0.7983 0.0
H1456 H 0.01302 0.2571 0.6184 0.0
H1457 H 0.0196 0.26793 0.68228 0.0
C1458 C 0.74183 0.00414 0.63383 0.0
C1459 C 0.7416 0.98544 0.61713 0.0
C1460 C 0.73661 0.00643 0.67135 0.0
C1461 C 0.74185 0.97931 0.75705 0.0
H1462 H 0.70944 0.01969 0.80221 0.0
C1463 C 0.74557 0.9912 0.9156 0.0
C1464 C 0.74477 0.01078 0.92794 0.0
C1465 C 0.73972 0.98629 0.87927 0.0
C1466 C 0.7188 0.00845 0.7903 0.0
H1467 H 0.73536 0.95458 0.62626 0.0
H1468 H 0.72636 0.95851 0.69166 0.0
H1469 H 0.70947 0.01572 0.73488 0.0
H1470 H 0.7367 0.04044 0.91238 0.0
H1471 H 0.72714 0.03232 0.84959 0.0
H1472 H 0.75241 0.9728 0.81142 0.0
C1473 C 0.7302 0.97146 0.67569 0.0
C1474 C 0.71865 0.00611 0.75153 0.0
C1475 C 0.73505 0.96926 0.63809 0.0
C1476 C 0.73699 0.02512 0.904 0.0
C1477 C 0.73152 0.02037 0.86762 0.0
C1478 C 0.74239 0.98193 0.79564 0.0
C1479 C 0.7316 0.98995 0.69312 0.0
C1480 C 0.7303 0.99161 0.73442 0.0
C1481 C 0.7335 1.00099 0.85399 0.0
C1482 C 0.73109 0.99674 0.81307 0.0
H1483 H 0.74751 0.01672 0.61872 0.0
H1484 H 0.73801 0.02084 0.68404 0.0
H1485 H 0.75121 0.96815 0.7447 0.0
H1486 H 0.75197 0.97992 0.93313 0.0
H1487 H 0.74099 0.97108 0.8706 0.0
C1488 C 0.49094 0.78562 0.92227 0.0
C1489 C 0.48017 0.76933 0.93522 0.0
C1490 C 0.49566 0.78751 0.88457 0.0
C1491 C 0.48669 0.76495 0.78987 0.0
H1492 H 0.53715 0.7892 0.76906 0.0
C1493 C 0.51772 0.768 0.63942 0.0
C1494 C 0.53826 0.76651 0.63483 0.0
C1495 C 0.50945 0.77053 0.67485 0.0
C1496 C 0.52313 0.7821 0.77416 0.0
H1497 H 0.46489 0.74282 0.9179 0.0
H1498 H 0.474 0.7454 0.85297 0.0
H1499 H 0.52483 0.78885 0.83185 0.0
H1500 H 0.56616 0.76655 0.66414 0.0
H1501 H 0.55195 0.77009 0.72541 0.0
H1502 H 0.48576 0.75692 0.73249 0.0
C1503 C 0.47851 0.75711 0.8715 0.0
C1504 C 0.51576 0.78228 0.81047 0.0
C1505 C 0.47337 0.7555 0.9091 0.0
C1506 C 0.5503 0.76791 0.66647 0.0
C1507 C 0.54205 0.77006 0.70186 0.0
C1508 C 0.49427 0.76441 0.75362 0.0
C1509 C 0.49017 0.77291 0.85865 0.0
C1510 C 0.49745 0.77361 0.81914 0.0
C1511 C 0.52146 0.77131 0.70681 0.0
C1512 C 0.51273 0.77282 0.74515 0.0
H1513 H 0.4962 0.79672 0.94147 0.0
H1514 H 0.50398 0.80032 0.87601 0.0
H1515 H 0.47238 0.75842 0.79481 0.0
H1516 H 0.50802 0.76707 0.6156 0.0
H1517 H 0.49359 0.77182 0.67703 0.0
C1518 C 0.2533 0.48685 0.91573 0.0
C1519 C 0.24227 0.47004 0.92533 0.0
C1520 C 0.25202 0.495 0.88007 0.0
C1521 C 0.22073 0.50032 0.79813 0.0
H1522 H 0.26957 0.50616 0.74321 0.0
C1523 C 0.23009 0.54456 0.65933 0.0
C1524 C 0.24013 0.53463 0.63063 0.0
C1525 C 0.22876 0.53632 0.69499 0.0
C1526 C 0.25581 0.50461 0.7582 0.0
H1527 H 0.22042 0.4493 0.9051 0.0
H1528 H 0.2177 0.46402 0.84326 0.0
H1529 H 0.27027 0.49327 0.80668 0.0
H1530 H 0.25547 0.50754 0.6169 0.0
H1531 H 0.25393 0.49372 0.67929 0.0
H1532 H 0.20635 0.51215 0.74981 0.0
C1533 C 0.22763 0.47061 0.8633 0.0
C1534 C 0.25623 0.49734 0.79458 0.0
C1535 C 0.22924 0.46216 0.89872 0.0
C1536 C 0.24811 0.51592 0.63831 0.0
C1537 C 0.24716 0.50791 0.67411 0.0
C1538 C 0.22037 0.50805 0.76198 0.0
C1539 C 0.23928 0.48689 0.85336 0.0
C1540 C 0.23869 0.495 0.81491 0.0
C1541 C 0.2377 0.51812 0.70298 0.0
C1542 C 0.2379 0.51013 0.74152 0.0
H1543 H 0.26326 0.49353 0.93547 0.0
H1544 H 0.26103 0.50768 0.87334 0.0
H1545 H 0.207 0.49873 0.81318 0.0
H1546 H 0.22363 0.55892 0.65453 0.0
H1547 H 0.22135 0.54452 0.71669 0.0
C1548 C 0.51754 0.25384 0.92095 0.0
C1549 C 0.534 0.24234 0.93082 0.0
C1550 C 0.50937 0.25256 0.88531 0.0
C1551 C 0.50367 0.22096 0.8037 0.0
H1552 H 0.49834 0.26976 0.74862 0.0
C1553 C 0.45964 0.23012 0.66505 0.0
C1554 C 0.46934 0.24038 0.63642 0.0
C1555 C 0.46798 0.2288 0.7006 0.0
C1556 C 0.49977 0.25602 0.76364 0.0
H1557 H 0.55411 0.21977 0.91123 0.0
H1558 H 0.53938 0.21712 0.84939 0.0
H1559 H 0.51117 0.27041 0.81213 0.0
H1560 H 0.49609 0.2563 0.62266 0.0
H1561 H 0.51018 0.25466 0.68488 0.0
H1562 H 0.49184 0.20664 0.75533 0.0
C1563 C 0.53306 0.22734 0.86918 0.0
C1564 C 0.50698 0.2564 0.80005 0.0
C1565 C 0.54151 0.22892 0.90459 0.0
C1566 C 0.48794 0.24866 0.64402 0.0
C1567 C 0.49607 0.2477 0.67971 0.0
C1568 C 0.49603 0.22062 0.76749 0.0
C1569 C 0.51714 0.23943 0.85892 0.0
C1570 C 0.5091 0.23888 0.82045 0.0
C1571 C 0.48607 0.23798 0.70852 0.0
C1572 C 0.49413 0.23815 0.74699 0.0
H1573 H 0.51123 0.26422 0.94038 0.0
H1574 H 0.49698 0.26192 0.8783 0.0
H1575 H 0.5051 0.20724 0.8188 0.0
H1576 H 0.44536 0.22344 0.66028 0.0
H1577 H 0.45994 0.22121 0.72226 0.0
C1578 C 0.76264 0.48727 0.63936 0.0
C1579 C 0.7648 0.46679 0.63506 0.0
C1580 C 0.76442 0.49611 0.6744 0.0
C1581 C 0.7807 0.48627 0.77277 0.0
H1582 H 0.74758 0.53148 0.79368 0.0
C1583 C 0.76486 0.51652 0.92168 0.0
C1584 C 0.7656 0.53711 0.92631 0.0
C1585 C 0.76651 0.50803 0.88627 0.0
C1586 C 0.75706 0.51896 0.78821 0.0
H1587 H 0.77072 0.4396 0.66451 0.0
H1588 H 0.77313 0.45476 0.72548 0.0
H1589 H 0.74697 0.51666 0.7322 0.0
H1590 H 0.76904 0.56482 0.89706 0.0
H1591 H 0.77163 0.55003 0.83549 0.0
H1592 H 0.7901 0.48828 0.8296 0.0
C1593 C 0.77062 0.46422 0.70179 0.0
C1594 C 0.75682 0.51047 0.75274 0.0
C1595 C 0.76915 0.45544 0.66665 0.0
C1596 C 0.76847 0.54893 0.89469 0.0
C1597 C 0.76981 0.54046 0.85929 0.0
C1598 C 0.78067 0.49459 0.80845 0.0
C1599 C 0.76808 0.4847 0.70638 0.0
C1600 C 0.76867 0.49398 0.74431 0.0
C1601 C 0.76863 0.51993 0.85456 0.0
C1602 C 0.76889 0.51108 0.81658 0.0
H1603 H 0.75939 0.49651 0.61563 0.0
H1604 H 0.76283 0.51194 0.67629 0.0
H1605 H 0.79034 0.47387 0.76754 0.0
H1606 H 0.76264 0.50695 0.94536 0.0
H1607 H 0.76546 0.49217 0.88357 0.0
C1608 C 0.5327 0.23795 0.15897 0.0
C1609 C 0.51849 0.24179 0.13158 0.0
C1610 C 0.52719 0.23127 0.19408 0.0
C1611 C 0.48437 0.23414 0.25713 0.0
H1612 H 0.52011 0.20712 0.32405 0.0
C1613 C 0.46783 0.23132 0.41285 0.0
C1614 C 0.4832 0.23859 0.4351 0.0
C1615 C 0.4714 0.22535 0.37631 0.0
C1616 C 0.50994 0.21464 0.3057 0.0
H1617 H 0.48742 0.24056 0.11855 0.0
H1618 H 0.47759 0.22819 0.17992 0.0
H1619 H 0.52672 0.20711 0.25742 0.0
H1620 H 0.51447 0.24455 0.43729 0.0
H1621 H 0.52093 0.23368 0.37349 0.0
H1622 H 0.46773 0.24183 0.30546 0.0
C1623 C 0.49309 0.23067 0.17444 0.0
C1624 C 0.51373 0.21471 0.26742 0.0
C1625 C 0.49868 0.23743 0.13904 0.0
C1626 C 0.50249 0.23843 0.42108 0.0
C1627 C 0.50611 0.23236 0.38441 0.0
C1628 C 0.48045 0.23383 0.29528 0.0
C1629 C 0.50722 0.22826 0.20295 0.0
C1630 C 0.50133 0.225 0.24263 0.0
C1631 C 0.49044 0.22663 0.36107 0.0
C1632 C 0.49344 0.22452 0.32018 0.0
H1633 H 0.54808 0.24139 0.15399 0.0
H1634 H 0.53857 0.22991 0.21497 0.0
H1635 H 0.4746 0.24251 0.23936 0.0
H1636 H 0.45276 0.23171 0.42282 0.0
H1637 H 0.45905 0.22079 0.35929 0.0
C1638 C 0.77365 0.4849 0.42279 0.0
C1639 C 0.75628 0.49307 0.43754 0.0
C1640 C 0.77884 0.48835 0.38547 0.0
C1641 C 0.75269 0.49581 0.29871 0.0
H1642 H 0.8023 0.51009 0.25263 0.0
C1643 C 0.75814 0.49594 0.14111 0.0
C1644 C 0.76448 0.51394 0.12621 0.0
C1645 C 0.76209 0.49118 0.1782 0.0
C1646 C 0.7884 0.50596 0.26515 0.0
H1647 H 0.73162 0.51232 0.42597 0.0
H1648 H 0.7408 0.51864 0.3617 0.0
H1649 H 0.7999 0.50822 0.32081 0.0
H1650 H 0.78074 0.54064 0.13775 0.0
H1651 H 0.78803 0.53222 0.2024 0.0
H1652 H 0.74097 0.49369 0.24386 0.0
C1653 C 0.75033 0.50944 0.37849 0.0
C1654 C 0.78705 0.50486 0.30412 0.0
C1655 C 0.7452 0.50602 0.41545 0.0
C1656 C 0.77625 0.52636 0.1482 0.0
C1657 C 0.78025 0.5216 0.18538 0.0
C1658 C 0.7541 0.4966 0.26008 0.0
C1659 C 0.76663 0.4999 0.36249 0.0
C1660 C 0.76903 0.50013 0.3213 0.0
C1661 C 0.77229 0.50444 0.20138 0.0
C1662 C 0.77187 0.50188 0.24264 0.0
H1663 H 0.78217 0.47446 0.43892 0.0
H1664 H 0.79147 0.48077 0.37388 0.0
H1665 H 0.73866 0.49189 0.31103 0.0
H1666 H 0.74858 0.48637 0.1251 0.0
H1667 H 0.75597 0.47771 0.18945 0.0
C1668 C 0.50329 0.76895 0.42373 0.0
C1669 C 0.52211 0.76163 0.43216 0.0
C1670 C 0.4988 0.77509 0.38734 0.0
C1671 C 0.5218 0.78468 0.29344 0.0
H1672 H 0.47223 0.76426 0.25638 0.0
C1673 C 0.50876 0.75926 0.1419 0.0
C1674 C 0.49004 0.76193 0.12611 0.0
C1675 C 0.51256 0.76541 0.17839 0.0
C1676 C 0.48601 0.7704 0.26626 0.0
H1677 H 0.55122 0.75597 0.41009 0.0
H1678 H 0.54363 0.76652 0.34751 0.0
H1679 H 0.47864 0.76426 0.32283 0.0
H1680 H 0.46073 0.77339 0.13559 0.0
H1681 H 0.46733 0.78432 0.19921 0.0
H1682 H 0.52953 0.78973 0.23646 0.0
C1683 C 0.53224 0.7679 0.36838 0.0
C1684 C 0.48968 0.77047 0.30457 0.0
C1685 C 0.53664 0.76177 0.40441 0.0
C1686 C 0.47547 0.77171 0.14678 0.0
C1687 C 0.47917 0.77766 0.1834 0.0
C1688 C 0.51821 0.7844 0.25511 0.0
C1689 C 0.51308 0.77402 0.35882 0.0
C1690 C 0.50786 0.77711 0.31874 0.0
C1691 C 0.49755 0.77396 0.20013 0.0
C1692 C 0.50044 0.77684 0.24095 0.0
H1693 H 0.49174 0.76868 0.44447 0.0
H1694 H 0.48395 0.77995 0.38126 0.0
H1695 H 0.5358 0.79035 0.30315 0.0
H1696 H 0.52001 0.75115 0.12698 0.0
H1697 H 0.52681 0.76211 0.19045 0.0
C1698 C 0.22943 0.48706 0.13595 0.0
C1699 C 0.24555 0.49739 0.12116 0.0
C1700 C 0.22316 0.49061 0.17254 0.0
C1701 C 0.22935 0.52413 0.25444 0.0
H1702 H 0.22705 0.47584 0.31169 0.0
C1703 C 0.22928 0.52638 0.41476 0.0
C1704 C 0.244 0.51447 0.43049 0.0
C1705 C 0.22334 0.52349 0.37777 0.0
C1706 C 0.22749 0.48948 0.29615 0.0
H1707 H 0.26708 0.52013 0.13215 0.0
H1708 H 0.2558 0.52689 0.1951 0.0
H1709 H 0.22759 0.47427 0.24401 0.0
H1710 H 0.26346 0.48981 0.42062 0.0
H1711 H 0.25273 0.48427 0.35687 0.0
H1712 H 0.23024 0.5393 0.3066 0.0
C1713 C 0.24785 0.5161 0.17876 0.0
C1714 C 0.22761 0.4886 0.25724 0.0
C1715 C 0.25426 0.51235 0.14251 0.0
C1716 C 0.25166 0.49882 0.40951 0.0
C1717 C 0.24557 0.49575 0.37282 0.0
C1718 C 0.22909 0.52502 0.29334 0.0
C1719 C 0.23281 0.50468 0.1949 0.0
C1720 C 0.22913 0.50589 0.23584 0.0
C1721 C 0.23195 0.50857 0.35589 0.0
C1722 C 0.22874 0.50768 0.31478 0.0
H1723 H 0.22286 0.47503 0.1205 0.0
H1724 H 0.21144 0.48164 0.18395 0.0
H1725 H 0.23038 0.53775 0.23892 0.0
H1726 H 0.22359 0.53894 0.42996 0.0
H1727 H 0.21272 0.53355 0.36575 0.0
loop_
_geom_bond_atom_site_label_1
_geom_bond_atom_site_label_2
_geom_bond_distance
_geom_bond_site_symmetry_2
_ccdc_geom_bond_type
C0 C1 1.351 . S
C0 N3 1.368 . S
C0 H5 0.931 . S
C1 C0 1.351 . S
C1 N2 1.373 1_556 S
C1 H29 0.930 . S
N2 C1 1.373 1_554 S
N2 C4 1.340 . S
N3 C0 1.368 . S
N3 C4 1.321 1_556 S
N3 Co6 2.135 1_556 S
C4 N2 1.340 . S
C4 N3 1.321 1_554 S
C4 H28 0.930 . S
H5 C0 0.931 . S
Co6 N3 2.135 1_554 S
Co6 N9 2.121 . S
Co6 O14 2.055 1_554 S
Co6 O17 2.039 . S
Co6 N20 2.140 . S
C7 O8 1.227 . S
C7 O17 1.265 . S
O8 C7 1.227 . S
N9 Co6 2.121 . S
N9 C11 1.375 . S
N9 C12 1.313 1_454 S
C10 C11 1.338 1_655 S
C10 N13 1.377 . S
C10 H30 0.930 . S
C11 N9 1.375 . S
C11 C10 1.338 1_455 S
C11 H15 0.931 . S
C12 N9 1.313 1_656 S
C12 N13 1.344 1_556 S
C12 H16 0.930 . S
N13 C10 1.377 . S
N13 C12 1.344 1_554 S
O14 Co6 2.055 1_556 S
O14 C18 1.253 . S
H15 C11 0.931 . S
H16 C12 0.930 . S
O17 Co6 2.039 . S
O17 C7 1.265 . S
C18 O14 1.253 . S
C18 O19 1.227 . S
O19 C18 1.227 . S
N20 Co6 2.140 . S
N20 C23 1.346 . S
N20 C24 1.345 1_554 S
C21 C22 1.387 . S
C21 C25 1.391 1_554 S
C22 C21 1.387 . S
C22 C23 1.369 . S
C22 H31 0.929 . S
C23 N20 1.346 . S
C23 C22 1.369 . S
C23 H26 0.928 . S
C24 N20 1.345 1_556 S
C24 C25 1.371 . S
C24 H27 0.931 . S
C25 C21 1.391 1_556 S
C25 C24 1.371 . S
C25 H32 0.930 . S
H26 C23 0.928 . S
H27 C24 0.931 . S
H28 C4 0.930 . S
H29 C1 0.930 . S
H30 C10 0.930 . S
H31 C22 0.929 . S
H32 C25 0.930 . S
C33 C34 1.351 . S
C33 N36 1.368 . S
C33 H38 0.931 . S
C34 C33 1.351 . S
C34 N35 1.373 1_556 S
C34 H62 0.930 . S
N35 C34 1.373 1_554 S
N35 C37 1.340 . S
N36 C33 1.368 . S
N36 C37 1.321 1_556 S
N36 Co39 2.135 1_556 S
C37 N35 1.340 . S
C37 N36 1.321 1_554 S
C37 H61 0.930 . S
H38 C33 0.931 . S
Co39 N36 2.135 1_554 S
Co39 N42 2.121 . S
Co39 O47 2.055 1_554 S
Co39 O50 2.039 . S
Co39 N53 2.140 . S
C40 O41 1.227 . S
C40 O50 1.265 . S
O41 C40 1.227 . S
N42 Co39 2.121 . S
N42 C44 1.375 . S
N42 C45 1.313 1_544 S
C43 C44 1.338 1_565 S
C43 N46 1.377 . S
C43 H63 0.930 . S
C44 N42 1.375 . S
C44 C43 1.338 1_545 S
C44 H48 0.931 . S
C45 N42 1.313 1_566 S
C45 N46 1.344 1_556 S
C45 H49 0.930 . S
N46 C43 1.377 . S
N46 C45 1.344 1_554 S
O47 Co39 2.055 1_556 S
O47 C51 1.253 . S
H48 C44 0.931 . S
H49 C45 0.930 . S
O50 Co39 2.039 . S
O50 C40 1.265 . S
C51 O47 1.253 . S
C51 O52 1.227 . S
O52 C51 1.227 . S
N53 Co39 2.140 . S
N53 C56 1.346 . S
N53 C57 1.345 1_554 S
C54 C55 1.387 . S
C54 C58 1.391 1_554 S
C55 C54 1.387 . S
C55 C56 1.369 . S
C55 H64 0.929 . S
C56 N53 1.346 . S
C56 C55 1.369 . S
C56 H59 0.928 . S
C57 N53 1.345 1_556 S
C57 C58 1.371 . S
C57 H60 0.931 . S
C58 C54 1.391 1_556 S
C58 C57 1.371 . S
C58 H65 0.930 . S
H59 C56 0.928 . S
H60 C57 0.931 . S
H61 C37 0.930 . S
H62 C34 0.930 . S
H63 C43 0.930 . S
H64 C55 0.929 . S
H65 C58 0.930 . S
C66 C67 1.351 . S
C66 N69 1.368 . S
C66 H71 0.931 . S
C67 C66 1.351 . S
C67 N68 1.373 1_556 S
C67 H95 0.930 . S
N68 C67 1.373 1_554 S
N68 C70 1.340 . S
N69 C66 1.368 . S
N69 C70 1.321 1_556 S
N69 Co72 2.135 1_556 S
C70 N68 1.340 . S
C70 N69 1.321 1_554 S
C70 H94 0.930 . S
H71 C66 0.931 . S
Co72 N69 2.135 1_554 S
Co72 N75 2.121 . S
Co72 O80 2.055 1_554 S
Co72 O83 2.039 . S
Co72 N86 2.140 . S
C73 O74 1.227 . S
C73 O83 1.265 . S
O74 C73 1.227 . S
N75 Co72 2.121 . S
N75 C77 1.375 . S
N75 C78 1.313 1_654 S
C76 C77 1.338 1_455 S
C76 N79 1.377 . S
C76 H96 0.930 . S
C77 N75 1.375 . S
C77 C76 1.338 1_655 S
C77 H81 0.931 . S
C78 N75 1.313 1_456 S
C78 N79 1.344 1_556 S
C78 H82 0.930 . S
N79 C76 1.377 . S
N79 C78 1.344 1_554 S
O80 Co72 2.055 1_556 S
O80 C84 1.253 . S
H81 C77 0.931 . S
H82 C78 0.930 . S
O83 Co72 2.039 . S
O83 C73 1.265 . S
C84 O80 1.253 . S
C84 O85 1.227 . S
O85 C84 1.227 . S
N86 Co72 2.140 . S
N86 C89 1.346 . S
N86 C90 1.345 1_554 S
C87 C88 1.387 . S
C87 C91 1.391 1_554 S
C88 C87 1.387 . S
C88 C89 1.369 . S
C88 H97 0.929 . S
C89 N86 1.346 . S
C89 C88 1.369 . S
C89 H92 0.928 . S
C90 N86 1.345 1_556 S
C90 C91 1.371 . S
C90 H93 0.931 . S
C91 C87 1.391 1_556 S
C91 C90 1.371 . S
C91 H98 0.930 . S
H92 C89 0.928 . S
H93 C90 0.931 . S
H94 C70 0.930 . S
H95 C67 0.930 . S
H96 C76 0.930 . S
H97 C88 0.929 . S
H98 C91 0.930 . S
C99 C100 1.351 . S
C99 N102 1.368 . S
C99 H104 0.931 . S
C100 C99 1.351 . S
C100 N101 1.373 1_556 S
C100 H128 0.930 . S
N101 C100 1.373 1_554 S
N101 C103 1.340 . S
N102 C99 1.368 . S
N102 C103 1.321 1_556 S
N102 Co105 2.135 1_556 S
C103 N101 1.340 . S
C103 N102 1.321 1_554 S
C103 H127 0.930 . S
H104 C99 0.931 . S
Co105 N102 2.135 1_554 S
Co105 N108 2.121 . S
Co105 O113 2.055 1_554 S
Co105 O116 2.039 . S
Co105 N119 2.140 . S
C106 O107 1.227 . S
C106 O116 1.265 . S
O107 C106 1.227 . S
N108 Co105 2.121 . S
N108 C110 1.375 . S
N108 C111 1.313 1_564 S
C109 C110 1.338 1_545 S
C109 N112 1.377 . S
C109 H129 0.930 . S
C110 N108 1.375 . S
C110 C109 1.338 1_565 S
C110 H114 0.931 . S
C111 N108 1.313 1_546 S
C111 N112 1.344 1_556 S
C111 H115 0.930 . S
N112 C109 1.377 . S
N112 C111 1.344 1_554 S
O113 Co105 2.055 1_556 S
O113 C117 1.253 . S
H114 C110 0.931 . S
H115 C111 0.930 . S
O116 Co105 2.039 . S
O116 C106 1.265 . S
C117 O113 1.253 . S
C117 O118 1.227 . S
O118 C117 1.227 . S
N119 Co105 2.140 . S
N119 C122 1.346 . S
N119 C123 1.345 1_554 S
C120 C121 1.387 . S
C120 C124 1.391 1_554 S
C121 C120 1.387 . S
C121 C122 1.369 . S
C121 H130 0.929 . S
C122 N119 1.346 . S
C122 C121 1.369 . S
C122 H125 0.928 . S
C123 N119 1.345 1_556 S
C123 C124 1.371 . S
C123 H126 0.931 . S
C124 C120 1.391 1_556 S
C124 C123 1.371 . S
C124 H131 0.930 . S
H125 C122 0.928 . S
H126 C123 0.931 . S
H127 C103 0.930 . S
H128 C100 0.930 . S
H129 C109 0.930 . S
H130 C121 0.929 . S
H131 C124 0.930 . S
C132 C133 1.351 . S
C132 N135 1.368 . S
C132 H137 0.931 . S
C133 C132 1.351 . S
C133 N134 1.373 . S
C133 H161 0.930 . S
N134 C133 1.373 . S
N134 C136 1.340 . S
N135 C132 1.368 . S
N135 C136 1.321 . S
N135 Co138 2.135 . S
C136 N134 1.340 . S
C136 N135 1.321 . S
C136 H160 0.930 . S
H137 C132 0.931 . S
Co138 N135 2.135 . S
Co138 N141 2.121 . S
Co138 O146 2.055 . S
Co138 O149 2.039 . S
Co138 N152 2.140 . S
C139 O140 1.227 . S
C139 O149 1.265 . S
O140 C139 1.227 . S
N141 Co138 2.121 . S
N141 C143 1.375 . S
N141 C144 1.313 1_455 S
C142 C143 1.338 1_655 S
C142 N145 1.377 . S
C142 H162 0.930 . S
C143 N141 1.375 . S
C143 C142 1.338 1_455 S
C143 H147 0.931 . S
C144 N141 1.313 1_655 S
C144 N145 1.344 . S
C144 H148 0.930 . S
N145 C142 1.377 . S
N145 C144 1.344 . S
O146 Co138 2.055 . S
O146 C150 1.253 . S
H147 C143 0.931 . S
H148 C144 0.930 . S
O149 Co138 2.039 . S
O149 C139 1.265 . S
C150 O146 1.253 . S
C150 O151 1.227 . S
O151 C150 1.227 . S
N152 Co138 2.140 . S
N152 C155 1.346 . S
N152 C156 1.345 . S
C153 C154 1.387 . S
C153 C157 1.391 . S
C154 C153 1.387 . S
C154 C155 1.369 . S
C154 H163 0.929 . S
C155 N152 1.346 . S
C155 C154 1.369 . S
C155 H158 0.928 . S
C156 N152 1.345 . S
C156 C157 1.371 . S
C156 H159 0.931 . S
C157 C153 1.391 . S
C157 C156 1.371 . S
C157 H164 0.930 . S
H158 C155 0.928 . S
H159 C156 0.931 . S
H160 C136 0.930 . S
H161 C133 0.930 . S
H162 C142 0.930 . S
H163 C154 0.929 . S
H164 C157 0.930 . S
C165 C166 1.351 . S
C165 N168 1.368 . S
C165 H170 0.931 . S
C166 C165 1.351 . S
C166 N167 1.373 . S
C166 H194 0.930 . S
N167 C166 1.373 . S
N167 C169 1.340 . S
N168 C165 1.368 . S
N168 C169 1.321 . S
N168 Co171 2.135 . S
C169 N167 1.340 . S
C169 N168 1.321 . S
C169 H193 0.930 . S
H170 C165 0.931 . S
Co171 N168 2.135 . S
Co171 N174 2.121 . S
Co171 O179 2.055 . S
Co171 O182 2.039 . S
Co171 N185 2.140 . S
C172 O173 1.227 . S
C172 O182 1.265 . S
O173 C172 1.227 . S
N174 Co171 2.121 . S
N174 C176 1.375 . S
N174 C177 1.313 1_545 S
C175 C176 1.338 1_565 S
C175 N178 1.377 . S
C175 H195 0.930 . S
C176 N174 1.375 . S
C176 C175 1.338 1_545 S
C176 H180 0.931 . S
C177 N174 1.313 1_565 S
C177 N178 1.344 . S
C177 H181 0.930 . S
N178 C175 1.377 . S
N178 C177 1.344 . S
O179 Co171 2.055 . S
O179 C183 1.253 . S
H180 C176 0.931 . S
H181 C177 0.930 . S
O182 Co171 2.039 . S
O182 C172 1.265 . S
C183 O179 1.253 . S
C183 O184 1.227 . S
O184 C183 1.227 . S
N185 Co171 2.140 . S
N185 C188 1.346 . S
N185 C189 1.345 . S
C186 C187 1.387 . S
C186 C190 1.391 . S
C187 C186 1.387 . S
C187 C188 1.369 . S
C187 H196 0.929 . S
C188 N185 1.346 . S
C188 C187 1.369 . S
C188 H191 0.928 . S
C189 N185 1.345 . S
C189 C190 1.371 . S
C189 H192 0.931 . S
C190 C186 1.391 . S
C190 C189 1.371 . S
C190 H197 0.930 . S
H191 C188 0.928 . S
H192 C189 0.931 . S
H193 C169 0.930 . S
H194 C166 0.930 . S
H195 C175 0.930 . S
H196 C187 0.929 . S
H197 C190 0.930 . S
C198 C199 1.351 . S
C198 N201 1.368 . S
C198 H203 0.931 . S
C199 C198 1.351 . S
C199 N200 1.373 . S
C199 H227 0.930 . S
N200 C199 1.373 . S
N200 C202 1.340 . S
N201 C198 1.368 . S
N201 C202 1.321 . S
N201 Co204 2.135 . S
C202 N200 1.340 . S
C202 N201 1.321 . S
C202 H226 0.930 . S
H203 C198 0.931 . S
Co204 N201 2.135 . S
Co204 N207 2.121 . S
Co204 O212 2.055 . S
Co204 O215 2.039 . S
Co204 N218 2.140 . S
C205 O206 1.227 . S
C205 O215 1.265 . S
O206 C205 1.227 . S
N207 Co204 2.121 . S
N207 C209 1.375 . S
N207 C210 1.313 1_655 S
C208 C209 1.338 1_455 S
C208 N211 1.377 . S
C208 H228 0.930 . S
C209 N207 1.375 . S
C209 C208 1.338 1_655 S
C209 H213 0.931 . S
C210 N207 1.313 1_455 S
C210 N211 1.344 . S
C210 H214 0.930 . S
N211 C208 1.377 . S
N211 C210 1.344 . S
O212 Co204 2.055 . S
O212 C216 1.253 . S
H213 C209 0.931 . S
H214 C210 0.930 . S
O215 Co204 2.039 . S
O215 C205 1.265 . S
C216 O212 1.253 . S
C216 O217 1.227 . S
O217 C216 1.227 . S
N218 Co204 2.140 . S
N218 C221 1.346 . S
N218 C222 1.345 . S
C219 C220 1.387 . S
C219 C223 1.391 . S
C220 C219 1.387 . S
C220 C221 1.369 . S
C220 H229 0.929 . S
C221 N218 1.346 . S
C221 C220 1.369 . S
C221 H224 0.928 . S
C222 N218 1.345 . S
C222 C223 1.371 . S
C222 H225 0.931 . S
C223 C219 1.391 . S
C223 C222 1.371 . S
C223 H230 0.930 . S
H224 C221 0.928 . S
H225 C222 0.931 . S
H226 C202 0.930 . S
H227 C199 0.930 . S
H228 C208 0.930 . S
H229 C220 0.929 . S
H230 C223 0.930 . S
C231 C232 1.351 . S
C231 N234 1.368 . S
C231 H236 0.931 . S
C232 C231 1.351 . S
C232 N233 1.373 . S
C232 H260 0.930 . S
N233 C232 1.373 . S
N233 C235 1.340 . S
N234 C231 1.368 . S
N234 C235 1.321 . S
N234 Co237 2.135 . S
C235 N233 1.340 . S
C235 N234 1.321 . S
C235 H259 0.930 . S
H236 C231 0.931 . S
Co237 N234 2.135 . S
Co237 N240 2.121 . S
Co237 O245 2.055 . S
Co237 O248 2.039 . S
Co237 N251 2.140 . S
C238 O239 1.227 . S
C238 O248 1.265 . S
O239 C238 1.227 . S
N240 Co237 2.121 . S
N240 C242 1.375 . S
N240 C243 1.313 1_565 S
C241 C242 1.338 1_545 S
C241 N244 1.377 . S
C241 H261 0.930 . S
C242 N240 1.375 . S
C242 C241 1.338 1_565 S
C242 H246 0.931 . S
C243 N240 1.313 1_545 S
C243 N244 1.344 . S
C243 H247 0.930 . S
N244 C241 1.377 . S
N244 C243 1.344 . S
O245 Co237 2.055 . S
O245 C249 1.253 . S
H246 C242 0.931 . S
H247 C243 0.930 . S
O248 Co237 2.039 . S
O248 C238 1.265 . S
C249 O245 1.253 . S
C249 O250 1.227 . S
O250 C249 1.227 . S
N251 Co237 2.140 . S
N251 C254 1.346 . S
N251 C255 1.345 . S
C252 C253 1.387 . S
C252 C256 1.391 . S
C253 C252 1.387 . S
C253 C254 1.369 . S
C253 H262 0.929 . S
C254 N251 1.346 . S
C254 C253 1.369 . S
C254 H257 0.928 . S
C255 N251 1.345 . S
C255 C256 1.371 . S
C255 H258 0.931 . S
C256 C252 1.391 . S
C256 C255 1.371 . S
C256 H263 0.930 . S
H257 C254 0.928 . S
H258 C255 0.931 . S
H259 C235 0.930 . S
H260 C232 0.930 . S
H261 C241 0.930 . S
H262 C253 0.929 . S
H263 C256 0.930 . S
C264 C265 1.351 . S
C264 N267 1.368 . S
C264 H269 0.931 . S
C265 C264 1.351 . S
C265 N266 1.373 . S
C265 H293 0.930 . S
N266 C265 1.373 . S
N266 C268 1.340 . S
N267 C264 1.368 . S
N267 C268 1.321 . S
N267 Co270 2.135 . S
C268 N266 1.340 . S
C268 N267 1.321 . S
C268 H292 0.930 . S
H269 C264 0.931 . S
Co270 N267 2.135 . S
Co270 N273 2.121 . S
Co270 O278 2.055 . S
Co270 O281 2.039 . S
Co270 N284 2.140 . S
C271 O272 1.227 . S
C271 O281 1.265 . S
O272 C271 1.227 . S
N273 Co270 2.121 . S
N273 C275 1.375 . S
N273 C276 1.313 . S
C274 C275 1.338 . S
C274 N277 1.377 . S
C274 H294 0.930 . S
C275 N273 1.375 . S
C275 C274 1.338 . S
C275 H279 0.931 . S
C276 N273 1.313 . S
C276 N277 1.344 . S
C276 H280 0.930 . S
N277 C274 1.377 . S
N277 C276 1.344 . S
O278 Co270 2.055 . S
O278 C282 1.253 . S
H279 C275 0.931 . S
H280 C276 0.930 . S
O281 Co270 2.039 . S
O281 C271 1.265 . S
C282 O278 1.253 . S
C282 O283 1.227 . S
O283 C282 1.227 . S
N284 Co270 2.140 . S
N284 C287 1.346 . S
N284 C288 1.345 . S
C285 C286 1.387 . S
C285 C289 1.391 . S
C286 C285 1.387 . S
C286 C287 1.369 . S
C286 H295 0.929 . S
C287 N284 1.346 . S
C287 C286 1.369 . S
C287 H290 0.928 . S
C288 N284 1.345 . S
C288 C289 1.371 . S
C288 H291 0.931 . S
C289 C285 1.391 . S
C289 C288 1.371 . S
C289 H296 0.930 . S
H290 C287 0.928 . S
H291 C288 0.931 . S
H292 C268 0.930 . S
H293 C265 0.930 . S
H294 C274 0.930 . S
H295 C286 0.929 . S
H296 C289 0.930 . S
C297 C298 1.351 . S
C297 N300 1.368 . S
C297 H302 0.931 . S
C298 C297 1.351 . S
C298 N299 1.373 . S
C298 H326 0.930 . S
N299 C298 1.373 . S
N299 C301 1.340 . S
N300 C297 1.368 . S
N300 C301 1.321 . S
N300 Co303 2.135 . S
C301 N299 1.340 . S
C301 N300 1.321 . S
C301 H325 0.930 . S
H302 C297 0.931 . S
Co303 N300 2.135 . S
Co303 N306 2.121 . S
Co303 O311 2.055 . S
Co303 O314 2.039 . S
Co303 N317 2.140 . S
C304 O305 1.227 . S
C304 O314 1.265 . S
O305 C304 1.227 . S
N306 Co303 2.121 . S
N306 C308 1.375 . S
N306 C309 1.313 . S
C307 C308 1.338 . S
C307 N310 1.377 . S
C307 H327 0.930 . S
C308 N306 1.375 . S
C308 C307 1.338 . S
C308 H312 0.931 . S
C309 N306 1.313 . S
C309 N310 1.344 . S
C309 H313 0.930 . S
N310 C307 1.377 . S
N310 C309 1.344 . S
O311 Co303 2.055 . S
O311 C315 1.253 . S
H312 C308 0.931 . S
H313 C309 0.930 . S
O314 Co303 2.039 . S
O314 C304 1.265 . S
C315 O311 1.253 . S
C315 O316 1.227 . S
O316 C315 1.227 . S
N317 Co303 2.140 . S
N317 C320 1.346 . S
N317 C321 1.345 . S
C318 C319 1.387 . S
C318 C322 1.391 . S
C319 C318 1.387 . S
C319 C320 1.369 . S
C319 H328 0.929 . S
C320 N317 1.346 . S
C320 C319 1.369 . S
C320 H323 0.928 . S
C321 N317 1.345 . S
C321 C322 1.371 . S
C321 H324 0.931 . S
C322 C318 1.391 . S
C322 C321 1.371 . S
C322 H329 0.930 . S
H323 C320 0.928 . S
H324 C321 0.931 . S
H325 C301 0.930 . S
H326 C298 0.930 . S
H327 C307 0.930 . S
H328 C319 0.929 . S
H329 C322 0.930 . S
C330 C331 1.351 . S
C330 N333 1.368 . S
C330 H335 0.931 . S
C331 C330 1.351 . S
C331 N332 1.373 . S
C331 H359 0.930 . S
N332 C331 1.373 . S
N332 C334 1.340 . S
N333 C330 1.368 . S
N333 C334 1.321 . S
N333 Co336 2.135 . S
C334 N332 1.340 . S
C334 N333 1.321 . S
C334 H358 0.930 . S
H335 C330 0.931 . S
Co336 N333 2.135 . S
Co336 N339 2.121 . S
Co336 O344 2.055 . S
Co336 O347 2.039 . S
Co336 N350 2.140 . S
C337 O338 1.227 . S
C337 O347 1.265 . S
O338 C337 1.227 . S
N339 Co336 2.121 . S
N339 C341 1.375 . S
N339 C342 1.313 . S
C340 C341 1.338 . S
C340 N343 1.377 . S
C340 H360 0.930 . S
C341 N339 1.375 . S
C341 C340 1.338 . S
C341 H345 0.931 . S
C342 N339 1.313 . S
C342 N343 1.344 . S
C342 H346 0.930 . S
N343 C340 1.377 . S
N343 C342 1.344 . S
O344 Co336 2.055 . S
O344 C348 1.253 . S
H345 C341 0.931 . S
H346 C342 0.930 . S
O347 Co336 2.039 . S
O347 C337 1.265 . S
C348 O344 1.253 . S
C348 O349 1.227 . S
O349 C348 1.227 . S
N350 Co336 2.140 . S
N350 C353 1.346 . S
N350 C354 1.345 . S
C351 C352 1.387 . S
C351 C355 1.391 . S
C352 C351 1.387 . S
C352 C353 1.369 . S
C352 H361 0.929 . S
C353 N350 1.346 . S
C353 C352 1.369 . S
C353 H356 0.928 . S
C354 N350 1.345 . S
C354 C355 1.371 . S
C354 H357 0.931 . S
C355 C351 1.391 . S
C355 C354 1.371 . S
C355 H362 0.930 . S
H356 C353 0.928 . S
H357 C354 0.931 . S
H358 C334 0.930 . S
H359 C331 0.930 . S
H360 C340 0.930 . S
H361 C352 0.929 . S
H362 C355 0.930 . S
C363 C364 1.351 . S
C363 N366 1.368 . S
C363 H368 0.931 . S
C364 C363 1.351 . S
C364 N365 1.373 . S
C364 H392 0.930 . S
N365 C364 1.373 . S
N365 C367 1.340 . S
N366 C363 1.368 . S
N366 C367 1.321 . S
N366 Co369 2.135 . S
C367 N365 1.340 . S
C367 N366 1.321 . S
C367 H391 0.930 . S
H368 C363 0.931 . S
Co369 N366 2.135 . S
Co369 N372 2.121 . S
Co369 O377 2.055 . S
Co369 O380 2.039 . S
Co369 N383 2.140 . S
C370 O371 1.227 . S
C370 O380 1.265 . S
O371 C370 1.227 . S
N372 Co369 2.121 . S
N372 C374 1.375 . S
N372 C375 1.313 . S
C373 C374 1.338 . S
C373 N376 1.377 . S
C373 H393 0.930 . S
C374 N372 1.375 . S
C374 C373 1.338 . S
C374 H378 0.931 . S
C375 N372 1.313 . S
C375 N376 1.344 . S
C375 H379 0.930 . S
N376 C373 1.377 . S
N376 C375 1.344 . S
O377 Co369 2.055 . S
O377 C381 1.253 . S
H378 C374 0.931 . S
H379 C375 0.930 . S
O380 Co369 2.039 . S
O380 C370 1.265 . S
C381 O377 1.253 . S
C381 O382 1.227 . S
O382 C381 1.227 . S
N383 Co369 2.140 . S
N383 C386 1.346 . S
N383 C387 1.345 . S
C384 C385 1.387 . S
C384 C388 1.391 . S
C385 C384 1.387 . S
C385 C386 1.369 . S
C385 H394 0.929 . S
C386 N383 1.346 . S
C386 C385 1.369 . S
C386 H389 0.928 . S
C387 N383 1.345 . S
C387 C388 1.371 . S
C387 H390 0.931 . S
C388 C384 1.391 . S
C388 C387 1.371 . S
C388 H395 0.930 . S
H389 C386 0.928 . S
H390 C387 0.931 . S
H391 C367 0.930 . S
H392 C364 0.930 . S
H393 C373 0.930 . S
H394 C385 0.929 . S
H395 C388 0.930 . S
C396 C397 1.351 . S
C396 N399 1.368 . S
C396 H401 0.931 . S
C397 C396 1.351 . S
C397 N398 1.373 . S
C397 H425 0.930 . S
N398 C397 1.373 . S
N398 C400 1.340 . S
N399 C396 1.368 . S
N399 C400 1.321 . S
N399 Co402 2.135 . S
C400 N398 1.340 . S
C400 N399 1.321 . S
C400 H424 0.930 1_554 S
H401 C396 0.931 . S
Co402 N399 2.135 . S
Co402 N405 2.121 . S
Co402 O410 2.055 . S
Co402 O413 2.039 1_554 S
Co402 N416 2.140 . S
C403 O404 1.227 . S
C403 O413 1.265 . S
O404 C403 1.227 . S
N405 Co402 2.121 . S
N405 C407 1.375 1_554 S
N405 C408 1.313 . S
C406 C407 1.338 . S
C406 N409 1.377 1_556 S
C406 H426 0.930 . S
C407 N405 1.375 1_556 S
C407 C406 1.338 . S
C407 H411 0.931 . S
C408 N405 1.313 . S
C408 N409 1.344 . S
C408 H412 0.930 . S
N409 C406 1.377 1_554 S
N409 C408 1.344 . S
O410 Co402 2.055 . S
O410 C414 1.253 . S
H411 C407 0.931 . S
H412 C408 0.930 . S
O413 Co402 2.039 1_556 S
O413 C403 1.265 . S
C414 O410 1.253 . S
C414 O415 1.227 . S
O415 C414 1.227 . S
N416 Co402 2.140 . S
N416 C419 1.346 . S
N416 C420 1.345 . S
C417 C418 1.387 . S
C417 C421 1.391 . S
C418 C417 1.387 . S
C418 C419 1.369 . S
C418 H427 0.929 1_554 S
C419 N416 1.346 . S
C419 C418 1.369 . S
C419 H422 0.928 1_554 S
C420 N416 1.345 . S
C420 C421 1.371 . S
C420 H423 0.931 . S
C421 C417 1.391 . S
C421 C420 1.371 . S
C421 H428 0.930 . S
H422 C419 0.928 1_556 S
H423 C420 0.931 . S
H424 C400 0.930 1_556 S
H425 C397 0.930 . S
H426 C406 0.930 . S
H427 C418 0.929 1_556 S
H428 C421 0.930 . S
C429 C430 1.351 . S
C429 N432 1.368 . S
C429 H434 0.931 . S
C430 C429 1.351 . S
C430 N431 1.373 . S
C430 H458 0.930 . S
N431 C430 1.373 . S
N431 C433 1.340 . S
N432 C429 1.368 . S
N432 C433 1.321 . S
N432 Co435 2.135 . S
C433 N431 1.340 . S
C433 N432 1.321 . S
C433 H457 0.930 1_554 S
H434 C429 0.931 . S
Co435 N432 2.135 . S
Co435 N438 2.121 . S
Co435 O443 2.055 . S
Co435 O446 2.039 1_554 S
Co435 N449 2.140 . S
C436 O437 1.227 . S
C436 O446 1.265 . S
O437 C436 1.227 . S
N438 Co435 2.121 . S
N438 C440 1.375 1_554 S
N438 C441 1.313 . S
C439 C440 1.338 . S
C439 N442 1.377 1_556 S
C439 H459 0.930 . S
C440 N438 1.375 1_556 S
C440 C439 1.338 . S
C440 H444 0.931 . S
C441 N438 1.313 . S
C441 N442 1.344 . S
C441 H445 0.930 . S
N442 C439 1.377 1_554 S
N442 C441 1.344 . S
O443 Co435 2.055 . S
O443 C447 1.253 . S
H444 C440 0.931 . S
H445 C441 0.930 . S
O446 Co435 2.039 1_556 S
O446 C436 1.265 . S
C447 O443 1.253 . S
C447 O448 1.227 . S
O448 C447 1.227 . S
N449 Co435 2.140 . S
N449 C452 1.346 . S
N449 C453 1.345 . S
C450 C451 1.387 . S
C450 C454 1.391 . S
C451 C450 1.387 . S
C451 C452 1.369 . S
C451 H460 0.929 1_554 S
C452 N449 1.346 . S
C452 C451 1.369 . S
C452 H455 0.928 1_554 S
C453 N449 1.345 . S
C453 C454 1.371 . S
C453 H456 0.931 . S
C454 C450 1.391 . S
C454 C453 1.371 . S
C454 H461 0.930 . S
H455 C452 0.928 1_556 S
H456 C453 0.931 . S
H457 C433 0.930 1_556 S
H458 C430 0.930 . S
H459 C439 0.930 . S
H460 C451 0.929 1_556 S
H461 C454 0.930 . S
C462 C463 1.351 . S
C462 N465 1.368 . S
C462 H467 0.931 . S
C463 C462 1.351 . S
C463 N464 1.373 . S
C463 H491 0.930 . S
N464 C463 1.373 . S
N464 C466 1.340 . S
N465 C462 1.368 . S
N465 C466 1.321 . S
N465 Co468 2.135 . S
C466 N464 1.340 . S
C466 N465 1.321 . S
C466 H490 0.930 1_554 S
H467 C462 0.931 . S
Co468 N465 2.135 . S
Co468 N471 2.121 . S
Co468 O476 2.055 . S
Co468 O479 2.039 1_554 S
Co468 N482 2.140 . S
C469 O470 1.227 . S
C469 O479 1.265 . S
O470 C469 1.227 . S
N471 Co468 2.121 . S
N471 C473 1.375 1_554 S
N471 C474 1.313 . S
C472 C473 1.338 . S
C472 N475 1.377 1_556 S
C472 H492 0.930 . S
C473 N471 1.375 1_556 S
C473 C472 1.338 . S
C473 H477 0.931 . S
C474 N471 1.313 . S
C474 N475 1.344 . S
C474 H478 0.930 . S
N475 C472 1.377 1_554 S
N475 C474 1.344 . S
O476 Co468 2.055 . S
O476 C480 1.253 . S
H477 C473 0.931 . S
H478 C474 0.930 . S
O479 Co468 2.039 1_556 S
O479 C469 1.265 . S
C480 O476 1.253 . S
C480 O481 1.227 . S
O481 C480 1.227 . S
N482 Co468 2.140 . S
N482 C485 1.346 . S
N482 C486 1.345 . S
C483 C484 1.387 . S
C483 C487 1.391 . S
C484 C483 1.387 . S
C484 C485 1.369 . S
C484 H493 0.929 1_554 S
C485 N482 1.346 . S
C485 C484 1.369 . S
C485 H488 0.928 1_554 S
C486 N482 1.345 . S
C486 C487 1.371 . S
C486 H489 0.931 . S
C487 C483 1.391 . S
C487 C486 1.371 . S
C487 H494 0.930 . S
H488 C485 0.928 1_556 S
H489 C486 0.931 . S
H490 C466 0.930 1_556 S
H491 C463 0.930 . S
H492 C472 0.930 . S
H493 C484 0.929 1_556 S
H494 C487 0.930 . S
C495 C496 1.351 . S
C495 N498 1.368 . S
C495 H500 0.931 . S
C496 C495 1.351 . S
C496 N497 1.373 . S
C496 H524 0.930 . S
N497 C496 1.373 . S
N497 C499 1.340 . S
N498 C495 1.368 . S
N498 C499 1.321 . S
N498 Co501 2.135 . S
C499 N497 1.340 . S
C499 N498 1.321 . S
C499 H523 0.930 1_554 S
H500 C495 0.931 . S
Co501 N498 2.135 . S
Co501 N504 2.121 . S
Co501 O509 2.055 . S
Co501 O512 2.039 1_554 S
Co501 N515 2.140 . S
C502 O503 1.227 . S
C502 O512 1.265 . S
O503 C502 1.227 . S
N504 Co501 2.121 . S
N504 C506 1.375 1_554 S
N504 C507 1.313 . S
C505 C506 1.338 . S
C505 N508 1.377 1_556 S
C505 H525 0.930 . S
C506 N504 1.375 1_556 S
C506 C505 1.338 . S
C506 H510 0.931 . S
C507 N504 1.313 . S
C507 N508 1.344 . S
C507 H511 0.930 . S
N508 C505 1.377 1_554 S
N508 C507 1.344 . S
O509 Co501 2.055 . S
O509 C513 1.253 . S
H510 C506 0.931 . S
H511 C507 0.930 . S
O512 Co501 2.039 1_556 S
O512 C502 1.265 . S
C513 O509 1.253 . S
C513 O514 1.227 . S
O514 C513 1.227 . S
N515 Co501 2.140 . S
N515 C518 1.346 . S
N515 C519 1.345 . S
C516 C517 1.387 . S
C516 C520 1.391 . S
C517 C516 1.387 . S
C517 C518 1.369 . S
C517 H526 0.929 1_554 S
C518 N515 1.346 . S
C518 C517 1.369 . S
C518 H521 0.928 1_554 S
C519 N515 1.345 . S
C519 C520 1.371 . S
C519 H522 0.931 . S
C520 C516 1.391 . S
C520 C519 1.371 . S
C520 H527 0.930 . S
H521 C518 0.928 1_556 S
H522 C519 0.931 . S
H523 C499 0.930 1_556 S
H524 C496 0.930 . S
H525 C505 0.930 . S
H526 C517 0.929 1_556 S
H527 C520 0.930 . S
C528 C529 1.349 . S
C528 C530 1.327 . S
C528 H553 0.950 . S
C529 C528 1.349 . S
C529 C545 1.349 1_554 S
C530 C528 1.327 . S
C530 C549 1.429 . S
C530 H554 0.950 . S
C531 C548 1.574 . S
C531 C550 1.368 1_556 S
C531 H555 0.949 . S
H532 C536 0.949 . S
C533 C534 1.349 1_556 S
C533 C535 1.327 . S
C533 H556 0.950 . S
C534 C533 1.349 1_554 S
C534 C546 1.349 . S
C535 C533 1.327 . S
C535 C551 1.429 1_556 S
C535 H557 0.950 . S
C536 H532 0.949 . S
C536 C544 1.574 . S
C536 C552 1.368 . S
H537 C545 0.950 . S
H538 C543 0.950 . S
H539 C544 0.949 . S
H540 C546 0.950 . S
H541 C547 0.950 . S
H542 C548 0.949 . S
C543 H538 0.950 . S
C543 C545 1.327 . S
C543 C549 1.429 1_556 S
C544 C536 1.574 . S
C544 H539 0.949 . S
C544 C550 1.368 . S
C545 C529 1.349 1_556 S
C545 H537 0.950 . S
C545 C543 1.327 . S
C546 C534 1.349 . S
C546 H540 0.950 . S
C546 C547 1.327 . S
C547 H541 0.950 . S
C547 C546 1.327 . S
C547 C551 1.429 . S
C548 C531 1.574 . S
C548 H542 0.949 . S
C548 C552 1.368 1_556 S
C549 C530 1.429 . S
C549 C543 1.429 1_554 S
C549 C550 1.523 . S
C550 C531 1.368 1_554 S
C550 C544 1.368 . S
C550 C549 1.523 . S
C551 C535 1.429 1_554 S
C551 C547 1.429 . S
C551 C552 1.523 . S
C552 C536 1.368 . S
C552 C548 1.368 1_554 S
C552 C551 1.523 . S
H553 C528 0.950 . S
H554 C530 0.950 . S
H555 C531 0.949 . S
H556 C533 0.950 . S
H557 C535 0.950 . S
C558 C559 1.349 1_556 S
C558 C560 1.327 . S
C558 H583 0.950 . S
C559 C558 1.349 1_554 S
C559 C575 1.349 . S
C560 C558 1.327 . S
C560 C579 1.429 1_556 S
C560 H584 0.950 . S
C561 C578 1.574 . S
C561 C580 1.368 . S
C561 H585 0.949 . S
H562 C566 0.949 . S
C563 C564 1.349 . S
C563 C565 1.327 . S
C563 H586 0.950 . S
C564 C563 1.349 . S
C564 C576 1.349 1_554 S
C565 C563 1.327 . S
C565 C581 1.429 . S
C565 H587 0.950 . S
C566 H562 0.949 . S
C566 C574 1.574 . S
C566 C582 1.368 1_556 S
H567 C575 0.950 . S
H568 C573 0.950 . S
H569 C574 0.949 . S
H570 C576 0.950 . S
H571 C577 0.950 . S
H572 C578 0.949 . S
C573 H568 0.950 . S
C573 C575 1.327 . S
C573 C579 1.429 . S
C574 C566 1.574 . S
C574 H569 0.949 . S
C574 C580 1.368 1_556 S
C575 C559 1.349 . S
C575 H567 0.950 . S
C575 C573 1.327 . S
C576 C564 1.349 1_556 S
C576 H570 0.950 . S
C576 C577 1.327 . S
C577 H571 0.950 . S
C577 C576 1.327 . S
C577 C581 1.429 1_556 S
C578 C561 1.574 . S
C578 H572 0.949 . S
C578 C582 1.368 . S
C579 C560 1.429 1_554 S
C579 C573 1.429 . S
C579 C580 1.523 . S
C580 C561 1.368 . S
C580 C574 1.368 1_554 S
C580 C579 1.523 . S
C581 C565 1.429 . S
C581 C577 1.429 1_554 S
C581 C582 1.523 . S
C582 C566 1.368 1_554 S
C582 C578 1.368 . S
C582 C581 1.523 . S
H583 C558 0.950 . S
H584 C560 0.950 . S
H585 C561 0.949 . S
H586 C563 0.950 . S
H587 C565 0.950 . S
C588 C589 1.349 1_556 S
C588 C590 1.327 . S
C588 H613 0.950 . S
C589 C588 1.349 1_554 S
C589 C605 1.349 . S
C590 C588 1.327 . S
C590 C609 1.429 1_556 S
C590 H614 0.950 . S
C591 C608 1.574 . S
C591 C610 1.368 . S
C591 H615 0.949 . S
H592 C596 0.949 . S
C593 C594 1.349 . S
C593 C595 1.327 . S
C593 H616 0.950 . S
C594 C593 1.349 . S
C594 C606 1.349 1_554 S
C595 C593 1.327 . S
C595 C611 1.429 . S
C595 H617 0.950 . S
C596 H592 0.949 . S
C596 C604 1.574 . S
C596 C612 1.368 1_556 S
H597 C605 0.950 . S
H598 C603 0.950 . S
H599 C604 0.949 . S
H600 C606 0.950 . S
H601 C607 0.950 . S
H602 C608 0.949 . S
C603 H598 0.950 . S
C603 C605 1.327 . S
C603 C609 1.429 . S
C604 C596 1.574 . S
C604 H599 0.949 . S
C604 C610 1.368 1_556 S
C605 C589 1.349 . S
C605 H597 0.950 . S
C605 C603 1.327 . S
C606 C594 1.349 1_556 S
C606 H600 0.950 . S
C606 C607 1.327 . S
C607 H601 0.950 . S
C607 C606 1.327 . S
C607 C611 1.429 1_556 S
C608 C591 1.574 . S
C608 H602 0.949 . S
C608 C612 1.368 . S
C609 C590 1.429 1_554 S
C609 C603 1.429 . S
C609 C610 1.523 . S
C610 C591 1.368 . S
C610 C604 1.368 1_554 S
C610 C609 1.523 . S
C611 C595 1.429 . S
C611 C607 1.429 1_554 S
C611 C612 1.523 . S
C612 C596 1.368 1_554 S
C612 C608 1.368 . S
C612 C611 1.523 . S
H613 C588 0.950 . S
H614 C590 0.950 . S
H615 C591 0.949 . S
H616 C593 0.950 . S
H617 C595 0.950 . S
C618 C619 1.349 . S
C618 C620 1.327 . S
C618 H643 0.950 . S
C619 C618 1.349 . S
C619 C635 1.349 1_554 S
C620 C618 1.327 . S
C620 C639 1.429 . S
C620 H644 0.950 . S
C621 C638 1.574 . S
C621 C640 1.368 1_556 S
C621 H645 0.949 . S
H622 C626 0.949 . S
C623 C624 1.349 1_556 S
C623 C625 1.327 . S
C623 H646 0.950 . S
C624 C623 1.349 1_554 S
C624 C636 1.349 . S
C625 C623 1.327 . S
C625 C641 1.429 1_556 S
C625 H647 0.950 . S
C626 H622 0.949 . S
C626 C634 1.574 . S
C626 C642 1.368 . S
H627 C635 0.950 . S
H628 C633 0.950 . S
H629 C634 0.949 . S
H630 C636 0.950 . S
H631 C637 0.950 . S
H632 C638 0.949 . S
C633 H628 0.950 . S
C633 C635 1.327 . S
C633 C639 1.429 1_556 S
C634 C626 1.574 . S
C634 H629 0.949 . S
C634 C640 1.368 . S
C635 C619 1.349 1_556 S
C635 H627 0.950 . S
C635 C633 1.327 . S
C636 C624 1.349 . S
C636 H630 0.950 . S
C636 C637 1.327 . S
C637 H631 0.950 . S
C637 C636 1.327 . S
C637 C641 1.429 . S
C638 C621 1.574 . S
C638 H632 0.949 . S
C638 C642 1.368 1_556 S
C639 C620 1.429 . S
C639 C633 1.429 1_554 S
C639 C640 1.523 . S
C640 C621 1.368 1_554 S
C640 C634 1.368 . S
C640 C639 1.523 . S
C641 C625 1.429 1_554 S
C641 C637 1.429 . S
C641 C642 1.523 . S
C642 C626 1.368 . S
C642 C638 1.368 1_554 S
C642 C641 1.523 . S
H643 C618 0.950 . S
H644 C620 0.950 . S
H645 C621 0.949 . S
H646 C623 0.950 . S
H647 C625 0.950 . S
C648 C649 1.349 . S
C648 C650 1.327 . S
C648 H673 0.950 . S
C649 C648 1.349 . S
C649 C665 1.349 . S
C650 C648 1.327 . S
C650 C669 1.429 . S
C650 H674 0.950 . S
C651 C668 1.574 . S
C651 C670 1.368 . S
C651 H675 0.949 . S
H652 C656 0.949 . S
C653 C654 1.349 . S
C653 C655 1.327 . S
C653 H676 0.950 . S
C654 C653 1.349 . S
C654 C666 1.349 . S
C655 C653 1.327 . S
C655 C671 1.429 . S
C655 H677 0.950 . S
C656 H652 0.949 . S
C656 C664 1.574 . S
C656 C672 1.368 . S
H657 C665 0.950 . S
H658 C663 0.950 . S
H659 C664 0.949 . S
H660 C666 0.950 . S
H661 C667 0.950 . S
H662 C668 0.949 . S
C663 H658 0.950 . S
C663 C665 1.327 . S
C663 C669 1.429 . S
C664 C656 1.574 . S
C664 H659 0.949 . S
C664 C670 1.368 . S
C665 C649 1.349 . S
C665 H657 0.950 . S
C665 C663 1.327 . S
C666 C654 1.349 . S
C666 H660 0.950 . S
C666 C667 1.327 . S
C667 H661 0.950 . S
C667 C666 1.327 . S
C667 C671 1.429 . S
C668 C651 1.574 . S
C668 H662 0.949 . S
C668 C672 1.368 . S
C669 C650 1.429 . S
C669 C663 1.429 . S
C669 C670 1.523 . S
C670 C651 1.368 . S
C670 C664 1.368 . S
C670 C669 1.523 . S
C671 C655 1.429 . S
C671 C667 1.429 . S
C671 C672 1.523 . S
C672 C656 1.368 . S
C672 C668 1.368 . S
C672 C671 1.523 . S
H673 C648 0.950 . S
H674 C650 0.950 . S
H675 C651 0.949 . S
H676 C653 0.950 . S
H677 C655 0.950 . S
C678 C679 1.349 . S
C678 C680 1.327 . S
C678 H703 0.950 . S
C679 C678 1.349 . S
C679 C695 1.349 . S
C680 C678 1.327 . S
C680 C699 1.429 . S
C680 H704 0.950 . S
C681 C698 1.574 . S
C681 C700 1.368 . S
C681 H705 0.949 . S
H682 C686 0.949 . S
C683 C684 1.349 . S
C683 C685 1.327 . S
C683 H706 0.950 . S
C684 C683 1.349 . S
C684 C696 1.349 . S
C685 C683 1.327 . S
C685 C701 1.429 . S
C685 H707 0.950 . S
C686 H682 0.949 . S
C686 C694 1.574 . S
C686 C702 1.368 . S
H687 C695 0.950 . S
H688 C693 0.950 . S
H689 C694 0.949 . S
H690 C696 0.950 . S
H691 C697 0.950 . S
H692 C698 0.949 . S
C693 H688 0.950 . S
C693 C695 1.327 . S
C693 C699 1.429 . S
C694 C686 1.574 . S
C694 H689 0.949 . S
C694 C700 1.368 . S
C695 C679 1.349 . S
C695 H687 0.950 . S
C695 C693 1.327 . S
C696 C684 1.349 . S
C696 H690 0.950 . S
C696 C697 1.327 . S
C697 H691 0.950 . S
C697 C696 1.327 . S
C697 C701 1.429 . S
C698 C681 1.574 . S
C698 H692 0.949 . S
C698 C702 1.368 . S
C699 C680 1.429 . S
C699 C693 1.429 . S
C699 C700 1.523 . S
C700 C681 1.368 . S
C700 C694 1.368 . S
C700 C699 1.523 . S
C701 C685 1.429 . S
C701 C697 1.429 . S
C701 C702 1.523 . S
C702 C686 1.368 . S
C702 C698 1.368 . S
C702 C701 1.523 . S
H703 C678 0.950 . S
H704 C680 0.950 . S
H705 C681 0.949 . S
H706 C683 0.950 . S
H707 C685 0.950 . S
C708 C709 1.349 . S
C708 C710 1.327 . S
C708 H733 0.950 . S
C709 C708 1.349 . S
C709 C725 1.349 . S
C710 C708 1.327 . S
C710 C729 1.429 . S
C710 H734 0.950 . S
C711 C728 1.574 . S
C711 C730 1.368 . S
C711 H735 0.949 . S
H712 C716 0.949 . S
C713 C714 1.349 . S
C713 C715 1.327 . S
C713 H736 0.950 . S
C714 C713 1.349 . S
C714 C726 1.349 . S
C715 C713 1.327 . S
C715 C731 1.429 . S
C715 H737 0.950 . S
C716 H712 0.949 . S
C716 C724 1.574 . S
C716 C732 1.368 . S
H717 C725 0.950 . S
H718 C723 0.950 . S
H719 C724 0.949 . S
H720 C726 0.950 . S
H721 C727 0.950 . S
H722 C728 0.949 . S
C723 H718 0.950 . S
C723 C725 1.327 . S
C723 C729 1.429 . S
C724 C716 1.574 . S
C724 H719 0.949 . S
C724 C730 1.368 . S
C725 C709 1.349 . S
C725 H717 0.950 . S
C725 C723 1.327 . S
C726 C714 1.349 . S
C726 H720 0.950 . S
C726 C727 1.327 . S
C727 H721 0.950 . S
C727 C726 1.327 . S
C727 C731 1.429 . S
C728 C711 1.574 . S
C728 H722 0.949 . S
C728 C732 1.368 . S
C729 C710 1.429 . S
C729 C723 1.429 . S
C729 C730 1.523 . S
C730 C711 1.368 . S
C730 C724 1.368 . S
C730 C729 1.523 . S
C731 C715 1.429 . S
C731 C727 1.429 . S
C731 C732 1.523 . S
C732 C716 1.368 . S
C732 C728 1.368 . S
C732 C731 1.523 . S
H733 C708 0.950 . S
H734 C710 0.950 . S
H735 C711 0.949 . S
H736 C713 0.950 . S
H737 C715 0.950 . S
C738 C739 1.349 . S
C738 C740 1.327 . S
C738 H763 0.950 . S
C739 C738 1.349 . S
C739 C755 1.349 . S
C740 C738 1.327 . S
C740 C759 1.429 . S
C740 H764 0.950 . S
C741 C758 1.574 . S
C741 C760 1.368 . S
C741 H765 0.949 . S
H742 C746 0.949 . S
C743 C744 1.349 . S
C743 C745 1.327 . S
C743 H766 0.950 . S
C744 C743 1.349 . S
C744 C756 1.349 . S
C745 C743 1.327 . S
C745 C761 1.429 . S
C745 H767 0.950 . S
C746 H742 0.949 . S
C746 C754 1.574 . S
C746 C762 1.368 . S
H747 C755 0.950 . S
H748 C753 0.950 . S
H749 C754 0.949 . S
H750 C756 0.950 . S
H751 C757 0.950 . S
H752 C758 0.949 . S
C753 H748 0.950 . S
C753 C755 1.327 . S
C753 C759 1.429 . S
C754 C746 1.574 . S
C754 H749 0.949 . S
C754 C760 1.368 . S
C755 C739 1.349 . S
C755 H747 0.950 . S
C755 C753 1.327 . S
C756 C744 1.349 . S
C756 H750 0.950 . S
C756 C757 1.327 . S
C757 H751 0.950 . S
C757 C756 1.327 . S
C757 C761 1.429 . S
C758 C741 1.574 . S
C758 H752 0.949 . S
C758 C762 1.368 . S
C759 C740 1.429 . S
C759 C753 1.429 . S
C759 C760 1.523 . S
C760 C741 1.368 . S
C760 C754 1.368 . S
C760 C759 1.523 . S
C761 C745 1.429 . S
C761 C757 1.429 . S
C761 C762 1.523 . S
C762 C746 1.368 . S
C762 C758 1.368 . S
C762 C761 1.523 . S
H763 C738 0.950 . S
H764 C740 0.950 . S
H765 C741 0.949 . S
H766 C743 0.950 . S
H767 C745 0.950 . S
C768 C769 1.349 . S
C768 C770 1.327 . S
C768 H793 0.950 . S
C769 C768 1.349 . S
C769 C785 1.349 1_556 S
C770 C768 1.327 . S
C770 C789 1.429 . S
C770 H794 0.950 . S
C771 C788 1.574 . S
C771 C790 1.373 . S
C771 H795 0.949 . S
H772 C776 0.949 . S
C773 C774 1.349 . S
C773 C775 1.327 . S
C773 H796 0.950 . S
C774 C773 1.349 . S
C774 C786 1.349 1_554 S
C775 C773 1.327 . S
C775 C791 1.429 . S
C775 H797 0.950 . S
C776 H772 0.949 . S
C776 C784 1.574 . S
C776 C792 1.368 1_556 S
H777 C785 0.950 . S
H778 C783 0.950 . S
H779 C784 0.949 . S
H780 C786 0.950 . S
H781 C787 0.950 . S
H782 C788 0.949 . S
C783 H778 0.950 . S
C783 C785 1.327 . S
C783 C789 1.429 1_554 S
C784 C776 1.574 . S
C784 H779 0.949 . S
C784 C790 1.364 1_556 S
C785 C769 1.349 1_554 S
C785 H777 0.950 . S
C785 C783 1.327 . S
C786 C774 1.349 1_556 S
C786 H780 0.950 . S
C786 C787 1.327 . S
C787 H781 0.950 . S
C787 C786 1.327 . S
C787 C791 1.429 1_556 S
C788 C771 1.574 . S
C788 H782 0.949 . S
C788 C792 1.368 . S
C789 C770 1.429 . S
C789 C783 1.429 1_556 S
C789 C790 1.523 1_556 S
C790 C771 1.373 . S
C790 C784 1.364 1_554 S
C790 C789 1.523 1_554 S
C791 C775 1.429 . S
C791 C787 1.429 1_554 S
C791 C792 1.523 . S
C792 C776 1.368 1_554 S
C792 C788 1.368 . S
C792 C791 1.523 . S
H793 C768 0.950 . S
H794 C770 0.950 . S
H795 C771 0.949 . S
H796 C773 0.950 . S
H797 C775 0.950 . S
C798 C799 1.349 1_554 S
C798 C800 1.327 . S
C798 H823 0.950 . S
C799 C798 1.349 1_556 S
C799 C815 1.349 . S
C800 C798 1.327 . S
C800 C819 1.429 1_554 S
C800 H824 0.950 . S
C801 C818 1.574 . S
C801 C820 1.363 1_556 S
C801 H825 0.949 . S
H802 C806 0.949 . S
C803 C804 1.349 1_556 S
C803 C805 1.327 . S
C803 H826 0.950 . S
C804 C803 1.349 1_554 S
C804 C816 1.349 . S
C805 C803 1.327 . S
C805 C821 1.429 1_556 S
C805 H827 0.950 . S
C806 H802 0.949 . S
C806 C814 1.574 . S
C806 C822 1.368 . S
H807 C815 0.950 . S
H808 C813 0.950 . S
H809 C814 0.949 . S
H810 C816 0.950 . S
H811 C817 0.950 . S
H812 C818 0.949 . S
C813 H808 0.950 . S
C813 C815 1.327 . S
C813 C819 1.429 . S
C814 C806 1.574 . S
C814 H809 0.949 . S
C814 C820 1.374 . S
C815 C799 1.349 . S
C815 H807 0.950 . S
C815 C813 1.327 . S
C816 C804 1.349 . S
C816 H810 0.950 . S
C816 C817 1.327 . S
C817 H811 0.950 . S
C817 C816 1.327 . S
C817 C821 1.429 . S
C818 C801 1.574 . S
C818 H812 0.949 . S
C818 C822 1.368 1_556 S
C819 C800 1.429 1_556 S
C819 C813 1.429 . S
C819 C820 1.523 1_556 S
C820 C801 1.363 1_554 S
C820 C814 1.374 . S
C820 C819 1.523 1_554 S
C821 C805 1.429 1_554 S
C821 C817 1.429 . S
C821 C822 1.523 . S
C822 C806 1.368 . S
C822 C818 1.368 1_554 S
C822 C821 1.523 . S
H823 C798 0.950 . S
H824 C800 0.950 . S
H825 C801 0.949 . S
H826 C803 0.950 . S
H827 C805 0.950 . S
C828 C829 1.349 . S
C828 C830 1.327 . S
C828 H853 0.950 . S
C829 C828 1.349 . S
C829 C845 1.349 1_554 S
C830 C828 1.327 . S
C830 C849 1.429 . S
C830 H854 0.950 . S
C831 C848 1.574 . S
C831 C850 1.368 1_556 S
C831 H855 0.949 . S
H832 C836 0.949 . S
C833 C834 1.349 . S
C833 C835 1.327 . S
C833 H856 0.950 . S
C834 C833 1.349 . S
C834 C846 1.349 1_556 S
C835 C833 1.327 . S
C835 C851 1.429 . S
C835 H857 0.950 . S
C836 H832 0.949 . S
C836 C844 1.574 . S
C836 C852 1.373 . S
H837 C845 0.950 . S
H838 C843 0.950 . S
H839 C844 0.949 . S
H840 C846 0.950 . S
H841 C847 0.950 . S
H842 C848 0.949 . S
C843 H838 0.950 . S
C843 C845 1.327 . S
C843 C849 1.429 1_556 S
C844 C836 1.574 . S
C844 H839 0.949 . S
C844 C850 1.368 . S
C845 C829 1.349 1_556 S
C845 H837 0.950 . S
C845 C843 1.327 . S
C846 C834 1.349 1_554 S
C846 H840 0.950 . S
C846 C847 1.327 . S
C847 H841 0.950 . S
C847 C846 1.327 . S
C847 C851 1.429 1_554 S
C848 C831 1.574 . S
C848 H842 0.949 . S
C848 C852 1.363 1_556 S
C849 C830 1.429 . S
C849 C843 1.429 1_554 S
C849 C850 1.523 . S
C850 C831 1.368 1_554 S
C850 C844 1.368 . S
C850 C849 1.523 . S
C851 C835 1.429 . S
C851 C847 1.429 1_556 S
C851 C852 1.523 1_556 S
C852 C836 1.373 . S
C852 C848 1.363 1_554 S
C852 C851 1.523 1_554 S
H853 C828 0.950 . S
H854 C830 0.950 . S
H855 C831 0.949 . S
H856 C833 0.950 . S
H857 C835 0.950 . S
C858 C859 1.349 1_556 S
C858 C860 1.327 . S
C858 H883 0.950 . S
C859 C858 1.349 1_554 S
C859 C875 1.349 . S
C860 C858 1.327 . S
C860 C879 1.429 1_556 S
C860 H884 0.950 . S
C861 C878 1.574 . S
C861 C880 1.368 . S
C861 H885 0.949 . S
H862 C866 0.949 . S
C863 C864 1.349 1_554 S
C863 C865 1.327 . S
C863 H886 0.950 . S
C864 C863 1.349 1_556 S
C864 C876 1.349 . S
C865 C863 1.327 . S
C865 C881 1.429 1_554 S
C865 H887 0.950 . S
C866 H862 0.949 . S
C866 C874 1.574 . S
C866 C882 1.363 1_556 S
H867 C875 0.950 . S
H868 C873 0.950 . S
H869 C874 0.949 . S
H870 C876 0.950 . S
H871 C877 0.950 . S
H872 C878 0.949 . S
C873 H868 0.950 . S
C873 C875 1.327 . S
C873 C879 1.429 . S
C874 C866 1.574 . S
C874 H869 0.949 . S
C874 C880 1.368 1_556 S
C875 C859 1.349 . S
C875 H867 0.950 . S
C875 C873 1.327 . S
C876 C864 1.349 . S
C876 H870 0.950 . S
C876 C877 1.327 . S
C877 H871 0.950 . S
C877 C876 1.327 . S
C877 C881 1.429 . S
C878 C861 1.574 . S
C878 H872 0.949 . S
C878 C882 1.374 . S
C879 C860 1.429 1_554 S
C879 C873 1.429 . S
C879 C880 1.523 . S
C880 C861 1.368 . S
C880 C874 1.368 1_554 S
C880 C879 1.523 . S
C881 C865 1.429 1_556 S
C881 C877 1.429 . S
C881 C882 1.523 1_556 S
C882 C866 1.363 1_554 S
C882 C878 1.374 . S
C882 C881 1.523 1_554 S
H883 C858 0.950 . S
H884 C860 0.950 . S
H885 C861 0.949 . S
H886 C863 0.950 . S
H887 C865 0.950 . S
C888 C889 1.349 . S
C888 C890 1.327 . S
C888 H913 0.950 . S
C889 C888 1.349 . S
C889 C905 1.349 . S
C890 C888 1.327 . S
C890 C909 1.429 . S
C890 H914 0.950 . S
C891 C908 1.574 . S
C891 C910 1.368 . S
C891 H915 0.949 . S
H892 C896 0.949 . S
C893 C894 1.349 . S
C893 C895 1.327 . S
C893 H916 0.950 . S
C894 C893 1.349 . S
C894 C906 1.349 . S
C895 C893 1.327 . S
C895 C911 1.429 . S
C895 H917 0.950 . S
C896 H892 0.949 . S
C896 C904 1.574 . S
C896 C912 1.368 . S
H897 C905 0.950 . S
H898 C903 0.950 . S
H899 C904 0.949 . S
H900 C906 0.950 . S
H901 C907 0.950 . S
H902 C908 0.949 . S
C903 H898 0.950 . S
C903 C905 1.327 . S
C903 C909 1.429 . S
C904 C896 1.574 . S
C904 H899 0.949 . S
C904 C910 1.368 . S
C905 C889 1.349 . S
C905 H897 0.950 . S
C905 C903 1.327 . S
C906 C894 1.349 . S
C906 H900 0.950 . S
C906 C907 1.327 . S
C907 H901 0.950 . S
C907 C906 1.327 . S
C907 C911 1.429 . S
C908 C891 1.574 . S
C908 H902 0.949 . S
C908 C912 1.368 . S
C909 C890 1.429 . S
C909 C903 1.429 . S
C909 C910 1.523 . S
C910 C891 1.368 . S
C910 C904 1.368 . S
C910 C909 1.523 . S
C911 C895 1.429 . S
C911 C907 1.429 . S
C911 C912 1.523 . S
C912 C896 1.368 . S
C912 C908 1.368 . S
C912 C911 1.523 . S
H913 C888 0.950 . S
H914 C890 0.950 . S
H915 C891 0.949 . S
H916 C893 0.950 . S
H917 C895 0.950 . S
C918 C919 1.349 . S
C918 C920 1.327 . S
C918 H943 0.950 . S
C919 C918 1.349 . S
C919 C935 1.349 . S
C920 C918 1.327 . S
C920 C939 1.429 . S
C920 H944 0.950 . S
C921 C938 1.574 . S
C921 C940 1.368 . S
C921 H945 0.949 . S
H922 C926 0.949 . S
C923 C924 1.349 . S
C923 C925 1.327 . S
C923 H946 0.950 . S
C924 C923 1.349 . S
C924 C936 1.349 . S
C925 C923 1.327 . S
C925 C941 1.429 . S
C925 H947 0.950 . S
C926 H922 0.949 . S
C926 C934 1.574 . S
C926 C942 1.368 . S
H927 C935 0.950 . S
H928 C933 0.950 . S
H929 C934 0.949 . S
H930 C936 0.950 . S
H931 C937 0.950 . S
H932 C938 0.949 . S
C933 H928 0.950 . S
C933 C935 1.327 . S
C933 C939 1.429 . S
C934 C926 1.574 . S
C934 H929 0.949 . S
C934 C940 1.368 . S
C935 C919 1.349 . S
C935 H927 0.950 . S
C935 C933 1.327 . S
C936 C924 1.349 . S
C936 H930 0.950 . S
C936 C937 1.327 . S
C937 H931 0.950 . S
C937 C936 1.327 . S
C937 C941 1.429 . S
C938 C921 1.574 . S
C938 H932 0.949 . S
C938 C942 1.368 . S
C939 C920 1.429 . S
C939 C933 1.429 . S
C939 C940 1.523 . S
C940 C921 1.368 . S
C940 C934 1.368 . S
C940 C939 1.523 . S
C941 C925 1.429 . S
C941 C937 1.429 . S
C941 C942 1.523 . S
C942 C926 1.368 . S
C942 C938 1.368 . S
C942 C941 1.523 . S
H943 C918 0.950 . S
H944 C920 0.950 . S
H945 C921 0.949 . S
H946 C923 0.950 . S
H947 C925 0.950 . S
C948 C949 1.349 . S
C948 C950 1.327 . S
C948 H973 0.950 . S
C949 C948 1.349 . S
C949 C965 1.349 . S
C950 C948 1.327 . S
C950 C969 1.429 . S
C950 H974 0.950 . S
C951 C968 1.574 . S
C951 C970 1.368 . S
C951 H975 0.949 . S
H952 C956 0.949 . S
C953 C954 1.349 . S
C953 C955 1.327 . S
C953 H976 0.950 . S
C954 C953 1.349 . S
C954 C966 1.349 . S
C955 C953 1.327 . S
C955 C971 1.429 . S
C955 H977 0.950 . S
C956 H952 0.949 . S
C956 C964 1.574 . S
C956 C972 1.368 . S
H957 C965 0.950 . S
H958 C963 0.950 . S
H959 C964 0.949 . S
H960 C966 0.950 . S
H961 C967 0.950 . S
H962 C968 0.949 . S
C963 H958 0.950 . S
C963 C965 1.327 . S
C963 C969 1.429 . S
C964 C956 1.574 . S
C964 H959 0.949 . S
C964 C970 1.368 . S
C965 C949 1.349 . S
C965 H957 0.950 . S
C965 C963 1.327 . S
C966 C954 1.349 . S
C966 H960 0.950 . S
C966 C967 1.327 . S
C967 H961 0.950 . S
C967 C966 1.327 . S
C967 C971 1.429 . S
C968 C951 1.574 . S
C968 H962 0.949 . S
C968 C972 1.368 . S
C969 C950 1.429 . S
C969 C963 1.429 . S
C969 C970 1.523 . S
C970 C951 1.368 . S
C970 C964 1.368 . S
C970 C969 1.523 . S
C971 C955 1.429 . S
C971 C967 1.429 . S
C971 C972 1.523 . S
C972 C956 1.368 . S
C972 C968 1.368 . S
C972 C971 1.523 . S
H973 C948 0.950 . S
H974 C950 0.950 . S
H975 C951 0.949 . S
H976 C953 0.950 . S
H977 C955 0.950 . S
C978 C979 1.349 . S
C978 C980 1.327 . S
C978 H1003 0.950 . S
C979 C978 1.349 . S
C979 C995 1.349 . S
C980 C978 1.327 . S
C980 C999 1.429 . S
C980 H1004 0.950 . S
C981 C998 1.574 . S
C981 C1000 1.368 . S
C981 H1005 0.949 . S
H982 C986 0.949 . S
C983 C984 1.349 . S
C983 C985 1.327 . S
C983 H1006 0.950 . S
C984 C983 1.349 . S
C984 C996 1.349 . S
C985 C983 1.327 . S
C985 C1001 1.429 . S
C985 H1007 0.950 . S
C986 H982 0.949 . S
C986 C994 1.574 . S
C986 C1002 1.368 . S
H987 C995 0.950 . S
H988 C993 0.950 . S
H989 C994 0.949 . S
H990 C996 0.950 . S
H991 C997 0.950 . S
H992 C998 0.949 . S
C993 H988 0.950 . S
C993 C995 1.327 . S
C993 C999 1.429 . S
C994 C986 1.574 . S
C994 H989 0.949 . S
C994 C1000 1.368 . S
C995 C979 1.349 . S
C995 H987 0.950 . S
C995 C993 1.327 . S
C996 C984 1.349 . S
C996 H990 0.950 . S
C996 C997 1.327 . S
C997 H991 0.950 . S
C997 C996 1.327 . S
C997 C1001 1.429 . S
C998 C981 1.574 . S
C998 H992 0.949 . S
C998 C1002 1.368 . S
C999 C980 1.429 . S
C999 C993 1.429 . S
C999 C1000 1.523 . S
C1000 C981 1.368 . S
C1000 C994 1.368 . S
C1000 C999 1.523 . S
C1001 C985 1.429 . S
C1001 C997 1.429 . S
C1001 C1002 1.523 . S
C1002 C986 1.368 . S
C1002 C998 1.368 . S
C1002 C1001 1.523 . S
H1003 C978 0.950 . S
H1004 C980 0.950 . S
H1005 C981 0.949 . S
H1006 C983 0.950 . S
H1007 C985 0.950 . S
C1008 C1009 1.349 . S
C1008 C1010 1.327 . S
C1008 H1033 0.950 . S
C1009 C1008 1.349 . S
C1009 C1025 1.349 . S
C1010 C1008 1.327 . S
C1010 C1029 1.429 . S
C1010 H1034 0.950 . S
C1011 C1028 1.574 . S
C1011 C1030 1.368 . S
C1011 H1035 0.949 . S
H1012 C1016 0.949 . S
C1013 C1014 1.349 . S
C1013 C1015 1.327 . S
C1013 H1036 0.950 . S
C1014 C1013 1.349 . S
C1014 C1026 1.349 . S
C1015 C1013 1.327 . S
C1015 C1031 1.429 . S
C1015 H1037 0.950 . S
C1016 H1012 0.949 . S
C1016 C1024 1.574 . S
C1016 C1032 1.368 . S
H1017 C1025 0.950 . S
H1018 C1023 0.950 . S
H1019 C1024 0.949 . S
H1020 C1026 0.950 . S
H1021 C1027 0.950 . S
H1022 C1028 0.949 . S
C1023 H1018 0.950 . S
C1023 C1025 1.327 . S
C1023 C1029 1.429 . S
C1024 C1016 1.574 . S
C1024 H1019 0.949 . S
C1024 C1030 1.368 . S
C1025 C1009 1.349 . S
C1025 H1017 0.950 . S
C1025 C1023 1.327 . S
C1026 C1014 1.349 . S
C1026 H1020 0.950 . S
C1026 C1027 1.327 . S
C1027 H1021 0.950 . S
C1027 C1026 1.327 . S
C1027 C1031 1.429 . S
C1028 C1011 1.574 . S
C1028 H1022 0.949 . S
C1028 C1032 1.368 . S
C1029 C1010 1.429 . S
C1029 C1023 1.429 . S
C1029 C1030 1.523 . S
C1030 C1011 1.368 . S
C1030 C1024 1.368 . S
C1030 C1029 1.523 . S
C1031 C1015 1.429 . S
C1031 C1027 1.429 . S
C1031 C1032 1.523 . S
C1032 C1016 1.368 . S
C1032 C1028 1.368 . S
C1032 C1031 1.523 . S
H1033 C1008 0.950 . S
H1034 C1010 0.950 . S
H1035 C1011 0.949 . S
H1036 C1013 0.950 . S
H1037 C1015 0.950 . S
C1038 C1039 1.349 . S
C1038 C1040 1.327 . S
C1038 H1063 0.950 . S
C1039 C1038 1.349 . S
C1039 C1055 1.349 . S
C1040 C1038 1.327 . S
C1040 C1059 1.429 . S
C1040 H1064 0.950 . S
C1041 C1058 1.574 . S
C1041 C1060 1.368 . S
C1041 H1065 0.949 . S
H1042 C1046 0.949 . S
C1043 C1044 1.349 . S
C1043 C1045 1.327 . S
C1043 H1066 0.950 . S
C1044 C1043 1.349 . S
C1044 C1056 1.349 . S
C1045 C1043 1.327 . S
C1045 C1061 1.429 . S
C1045 H1067 0.950 . S
C1046 H1042 0.949 . S
C1046 C1054 1.574 . S
C1046 C1062 1.368 . S
H1047 C1055 0.950 . S
H1048 C1053 0.950 . S
H1049 C1054 0.949 . S
H1050 C1056 0.950 . S
H1051 C1057 0.950 . S
H1052 C1058 0.949 . S
C1053 H1048 0.950 . S
C1053 C1055 1.327 . S
C1053 C1059 1.429 . S
C1054 C1046 1.574 . S
C1054 H1049 0.949 . S
C1054 C1060 1.368 . S
C1055 C1039 1.349 . S
C1055 H1047 0.950 . S
C1055 C1053 1.327 . S
C1056 C1044 1.349 . S
C1056 H1050 0.950 . S
C1056 C1057 1.327 . S
C1057 H1051 0.950 . S
C1057 C1056 1.327 . S
C1057 C1061 1.429 . S
C1058 C1041 1.574 . S
C1058 H1052 0.949 . S
C1058 C1062 1.368 . S
C1059 C1040 1.429 . S
C1059 C1053 1.429 . S
C1059 C1060 1.523 . S
C1060 C1041 1.368 . S
C1060 C1054 1.368 . S
C1060 C1059 1.523 . S
C1061 C1045 1.429 . S
C1061 C1057 1.429 . S
C1061 C1062 1.523 . S
C1062 C1046 1.368 . S
C1062 C1058 1.368 . S
C1062 C1061 1.523 . S
H1063 C1038 0.950 . S
H1064 C1040 0.950 . S
H1065 C1041 0.949 . S
H1066 C1043 0.950 . S
H1067 C1045 0.950 . S
C1068 C1069 1.349 . S
C1068 C1070 1.327 . S
C1068 H1093 0.950 . S
C1069 C1068 1.349 . S
C1069 C1085 1.349 . S
C1070 C1068 1.327 . S
C1070 C1089 1.429 . S
C1070 H1094 0.950 . S
C1071 C1088 1.574 . S
C1071 C1090 1.368 . S
C1071 H1095 0.949 . S
H1072 C1076 0.949 . S
C1073 C1074 1.349 . S
C1073 C1075 1.327 . S
C1073 H1096 0.950 . S
C1074 C1073 1.349 . S
C1074 C1086 1.349 . S
C1075 C1073 1.327 . S
C1075 C1091 1.429 . S
C1075 H1097 0.950 . S
C1076 H1072 0.949 . S
C1076 C1084 1.574 . S
C1076 C1092 1.368 . S
H1077 C1085 0.950 . S
H1078 C1083 0.950 . S
H1079 C1084 0.949 . S
H1080 C1086 0.950 . S
H1081 C1087 0.950 . S
H1082 C1088 0.949 . S
C1083 H1078 0.950 . S
C1083 C1085 1.327 . S
C1083 C1089 1.429 . S
C1084 C1076 1.574 . S
C1084 H1079 0.949 . S
C1084 C1090 1.368 . S
C1085 C1069 1.349 . S
C1085 H1077 0.950 . S
C1085 C1083 1.327 . S
C1086 C1074 1.349 . S
C1086 H1080 0.950 . S
C1086 C1087 1.327 . S
C1087 H1081 0.950 . S
C1087 C1086 1.327 . S
C1087 C1091 1.429 . S
C1088 C1071 1.574 . S
C1088 H1082 0.949 . S
C1088 C1092 1.368 . S
C1089 C1070 1.429 . S
C1089 C1083 1.429 . S
C1089 C1090 1.523 . S
C1090 C1071 1.368 . S
C1090 C1084 1.368 . S
C1090 C1089 1.523 . S
C1091 C1075 1.429 . S
C1091 C1087 1.429 . S
C1091 C1092 1.523 . S
C1092 C1076 1.368 . S
C1092 C1088 1.368 . S
C1092 C1091 1.523 . S
H1093 C1068 0.950 . S
H1094 C1070 0.950 . S
H1095 C1071 0.949 . S
H1096 C1073 0.950 . S
H1097 C1075 0.950 . S
C1098 C1099 1.349 . S
C1098 C1100 1.327 . S
C1098 H1123 0.950 . S
C1099 C1098 1.349 . S
C1099 C1115 1.349 . S
C1100 C1098 1.327 . S
C1100 C1119 1.429 . S
C1100 H1124 0.950 . S
C1101 C1118 1.574 . S
C1101 C1120 1.368 . S
C1101 H1125 0.949 . S
H1102 C1106 0.949 . S
C1103 C1104 1.349 . S
C1103 C1105 1.327 . S
C1103 H1126 0.950 . S
C1104 C1103 1.349 . S
C1104 C1116 1.349 . S
C1105 C1103 1.327 . S
C1105 C1121 1.429 . S
C1105 H1127 0.950 . S
C1106 H1102 0.949 . S
C1106 C1114 1.574 . S
C1106 C1122 1.368 . S
H1107 C1115 0.950 . S
H1108 C1113 0.950 . S
H1109 C1114 0.949 . S
H1110 C1116 0.950 . S
H1111 C1117 0.950 . S
H1112 C1118 0.949 . S
C1113 H1108 0.950 . S
C1113 C1115 1.327 . S
C1113 C1119 1.429 . S
C1114 C1106 1.574 . S
C1114 H1109 0.949 . S
C1114 C1120 1.368 . S
C1115 C1099 1.349 . S
C1115 H1107 0.950 . S
C1115 C1113 1.327 . S
C1116 C1104 1.349 . S
C1116 H1110 0.950 . S
C1116 C1117 1.327 . S
C1117 H1111 0.950 . S
C1117 C1116 1.327 . S
C1117 C1121 1.429 . S
C1118 C1101 1.574 . S
C1118 H1112 0.949 . S
C1118 C1122 1.368 . S
C1119 C1100 1.429 . S
C1119 C1113 1.429 . S
C1119 C1120 1.523 . S
C1120 C1101 1.368 . S
C1120 C1114 1.368 . S
C1120 C1119 1.523 . S
C1121 C1105 1.429 . S
C1121 C1117 1.429 . S
C1121 C1122 1.523 . S
C1122 C1106 1.368 . S
C1122 C1118 1.368 . S
C1122 C1121 1.523 . S
H1123 C1098 0.950 . S
H1124 C1100 0.950 . S
H1125 C1101 0.949 . S
H1126 C1103 0.950 . S
H1127 C1105 0.950 . S
C1128 C1129 1.349 . S
C1128 C1130 1.327 . S
C1128 H1153 0.950 . S
C1129 C1128 1.349 . S
C1129 C1145 1.349 . S
C1130 C1128 1.327 . S
C1130 C1149 1.429 . S
C1130 H1154 0.950 . S
C1131 C1148 1.574 . S
C1131 C1150 1.368 . S
C1131 H1155 0.949 1_554 S
H1132 C1136 0.949 . S
C1133 C1134 1.349 . S
C1133 C1135 1.327 . S
C1133 H1156 0.950 1_554 S
C1134 C1133 1.349 . S
C1134 C1146 1.349 . S
C1135 C1133 1.327 . S
C1135 C1151 1.429 . S
C1135 H1157 0.950 1_554 S
C1136 H1132 0.949 . S
C1136 C1144 1.574 . S
C1136 C1152 1.368 . S
H1137 C1145 0.950 1_556 S
H1138 C1143 0.950 1_556 S
H1139 C1144 0.949 . S
H1140 C1146 0.950 . S
H1141 C1147 0.950 . S
H1142 C1148 0.949 1_556 S
C1143 H1138 0.950 1_554 S
C1143 C1145 1.327 . S
C1143 C1149 1.429 . S
C1144 C1136 1.574 . S
C1144 H1139 0.949 . S
C1144 C1150 1.368 . S
C1145 C1129 1.349 . S
C1145 H1137 0.950 1_554 S
C1145 C1143 1.327 . S
C1146 C1134 1.349 . S
C1146 H1140 0.950 . S
C1146 C1147 1.327 . S
C1147 H1141 0.950 . S
C1147 C1146 1.327 . S
C1147 C1151 1.429 . S
C1148 C1131 1.574 . S
C1148 H1142 0.949 1_554 S
C1148 C1152 1.368 . S
C1149 C1130 1.429 . S
C1149 C1143 1.429 . S
C1149 C1150 1.523 . S
C1150 C1131 1.368 . S
C1150 C1144 1.368 . S
C1150 C1149 1.523 . S
C1151 C1135 1.429 . S
C1151 C1147 1.429 . S
C1151 C1152 1.523 . S
C1152 C1136 1.368 . S
C1152 C1148 1.368 . S
C1152 C1151 1.523 . S
H1153 C1128 0.950 . S
H1154 C1130 0.950 . S
H1155 C1131 0.949 1_556 S
H1156 C1133 0.950 1_556 S
H1157 C1135 0.950 1_556 S
C1158 C1159 1.349 . S
C1158 C1160 1.327 . S
C1158 H1183 0.950 1_554 S
C1159 C1158 1.349 . S
C1159 C1175 1.349 . S
C1160 C1158 1.327 . S
C1160 C1179 1.429 . S
C1160 H1184 0.950 1_554 S
C1161 C1178 1.574 . S
C1161 C1180 1.368 . S
C1161 H1185 0.949 . S
H1162 C1166 0.949 1_556 S
C1163 C1164 1.349 . S
C1163 C1165 1.327 . S
C1163 H1186 0.950 . S
C1164 C1163 1.349 . S
C1164 C1176 1.349 . S
C1165 C1163 1.327 . S
C1165 C1181 1.429 . S
C1165 H1187 0.950 . S
C1166 H1162 0.949 1_554 S
C1166 C1174 1.574 . S
C1166 C1182 1.368 . S
H1167 C1175 0.950 . S
H1168 C1173 0.950 . S
H1169 C1174 0.949 1_556 S
H1170 C1176 0.950 1_556 S
H1171 C1177 0.950 1_556 S
H1172 C1178 0.949 . S
C1173 H1168 0.950 . S
C1173 C1175 1.327 . S
C1173 C1179 1.429 . S
C1174 C1166 1.574 . S
C1174 H1169 0.949 1_554 S
C1174 C1180 1.368 . S
C1175 C1159 1.349 . S
C1175 H1167 0.950 . S
C1175 C1173 1.327 . S
C1176 C1164 1.349 . S
C1176 H1170 0.950 1_554 S
C1176 C1177 1.327 . S
C1177 H1171 0.950 1_554 S
C1177 C1176 1.327 . S
C1177 C1181 1.429 . S
C1178 C1161 1.574 . S
C1178 H1172 0.949 . S
C1178 C1182 1.368 . S
C1179 C1160 1.429 . S
C1179 C1173 1.429 . S
C1179 C1180 1.523 . S
C1180 C1161 1.368 . S
C1180 C1174 1.368 . S
C1180 C1179 1.523 . S
C1181 C1165 1.429 . S
C1181 C1177 1.429 . S
C1181 C1182 1.523 . S
C1182 C1166 1.368 . S
C1182 C1178 1.368 . S
C1182 C1181 1.523 . S
H1183 C1158 0.950 1_556 S
H1184 C1160 0.950 1_556 S
H1185 C1161 0.949 . S
H1186 C1163 0.950 . S
H1187 C1165 0.950 . S
C1188 C1189 1.349 . S
C1188 C1190 1.327 . S
C1188 H1213 0.950 1_554 S
C1189 C1188 1.349 . S
C1189 C1205 1.349 . S
C1190 C1188 1.327 . S
C1190 C1209 1.429 . S
C1190 H1214 0.950 1_554 S
C1191 C1208 1.574 . S
C1191 C1210 1.368 . S
C1191 H1215 0.949 . S
H1192 C1196 0.949 1_556 S
C1193 C1194 1.349 . S
C1193 C1195 1.327 . S
C1193 H1216 0.950 . S
C1194 C1193 1.349 . S
C1194 C1206 1.349 . S
C1195 C1193 1.327 . S
C1195 C1211 1.429 . S
C1195 H1217 0.950 . S
C1196 H1192 0.949 1_554 S
C1196 C1204 1.574 . S
C1196 C1212 1.368 . S
H1197 C1205 0.950 . S
H1198 C1203 0.950 . S
H1199 C1204 0.949 1_556 S
H1200 C1206 0.950 1_556 S
H1201 C1207 0.950 1_556 S
H1202 C1208 0.949 . S
C1203 H1198 0.950 . S
C1203 C1205 1.327 . S
C1203 C1209 1.429 . S
C1204 C1196 1.574 . S
C1204 H1199 0.949 1_554 S
C1204 C1210 1.368 . S
C1205 C1189 1.349 . S
C1205 H1197 0.950 . S
C1205 C1203 1.327 . S
C1206 C1194 1.349 . S
C1206 H1200 0.950 1_554 S
C1206 C1207 1.327 . S
C1207 H1201 0.950 1_554 S
C1207 C1206 1.327 . S
C1207 C1211 1.429 . S
C1208 C1191 1.574 . S
C1208 H1202 0.949 . S
C1208 C1212 1.368 . S
C1209 C1190 1.429 . S
C1209 C1203 1.429 . S
C1209 C1210 1.523 . S
C1210 C1191 1.368 . S
C1210 C1204 1.368 . S
C1210 C1209 1.523 . S
C1211 C1195 1.429 . S
C1211 C1207 1.429 . S
C1211 C1212 1.523 . S
C1212 C1196 1.368 . S
C1212 C1208 1.368 . S
C1212 C1211 1.523 . S
H1213 C1188 0.950 1_556 S
H1214 C1190 0.950 1_556 S
H1215 C1191 0.949 . S
H1216 C1193 0.950 . S
H1217 C1195 0.950 . S
C1218 C1219 1.349 . S
C1218 C1220 1.327 . S
C1218 H1243 0.950 . S
C1219 C1218 1.349 . S
C1219 C1235 1.349 . S
C1220 C1218 1.327 . S
C1220 C1239 1.429 . S
C1220 H1244 0.950 . S
C1221 C1238 1.574 . S
C1221 C1240 1.368 . S
C1221 H1245 0.949 1_554 S
H1222 C1226 0.949 . S
C1223 C1224 1.349 . S
C1223 C1225 1.327 . S
C1223 H1246 0.950 1_554 S
C1224 C1223 1.349 . S
C1224 C1236 1.349 . S
C1225 C1223 1.327 . S
C1225 C1241 1.429 . S
C1225 H1247 0.950 1_554 S
C1226 H1222 0.949 . S
C1226 C1234 1.574 . S
C1226 C1242 1.368 . S
H1227 C1235 0.950 . S
H1228 C1233 0.965 . S
H1229 C1234 0.949 . S
H1230 C1236 0.950 . S
H1231 C1237 0.950 . S
H1232 C1238 0.949 1_556 S
C1233 H1228 0.965 . S
C1233 C1235 1.327 . S
C1233 C1239 1.429 . S
C1234 C1226 1.574 . S
C1234 H1229 0.949 . S
C1234 C1240 1.368 . S
C1235 C1219 1.349 . S
C1235 H1227 0.950 . S
C1235 C1233 1.327 . S
C1236 C1224 1.349 . S
C1236 H1230 0.950 . S
C1236 C1237 1.327 . S
C1237 H1231 0.950 . S
C1237 C1236 1.327 . S
C1237 C1241 1.429 . S
C1238 C1221 1.574 . S
C1238 H1232 0.949 1_554 S
C1238 C1242 1.368 . S
C1239 C1220 1.429 . S
C1239 C1233 1.429 . S
C1239 C1240 1.523 . S
C1240 C1221 1.368 . S
C1240 C1234 1.368 . S
C1240 C1239 1.523 . S
C1241 C1225 1.429 . S
C1241 C1237 1.429 . S
C1241 C1242 1.523 . S
C1242 C1226 1.368 . S
C1242 C1238 1.368 . S
C1242 C1241 1.523 . S
H1243 C1218 0.950 . S
H1244 C1220 0.950 . S
H1245 C1221 0.949 1_556 S
H1246 C1223 0.950 1_556 S
H1247 C1225 0.950 1_556 S
C1248 C1249 1.349 . S
C1248 C1250 1.327 . S
C1248 H1273 0.963 . S
C1249 C1248 1.349 . S
C1249 C1265 1.349 . S
C1250 C1248 1.327 . S
C1250 C1269 1.429 . S
C1250 H1274 0.950 1_655 S
C1251 C1268 1.574 . S
C1251 C1270 1.368 . S
C1251 H1275 0.949 . S
H1252 C1256 0.949 . S
C1253 C1254 1.349 . S
C1253 C1255 1.327 . S
C1253 H1276 0.963 . S
C1254 C1253 1.349 . S
C1254 C1266 1.349 . S
C1255 C1253 1.327 . S
C1255 C1271 1.429 . S
C1255 H1277 0.950 1_455 S
C1256 H1252 0.949 . S
C1256 C1264 1.574 . S
C1256 C1272 1.368 . S
H1257 C1265 0.950 . S
H1258 C1263 0.950 . S
H1259 C1264 0.949 . S
H1260 C1266 0.950 . S
H1261 C1267 0.950 . S
H1262 C1268 0.949 . S
C1263 H1258 0.950 . S
C1263 C1265 1.327 . S
C1263 C1269 1.429 . S
C1264 C1256 1.574 . S
C1264 H1259 0.949 . S
C1264 C1270 1.368 1_455 S
C1265 C1249 1.349 . S
C1265 H1257 0.950 . S
C1265 C1263 1.327 . S
C1266 C1254 1.349 . S
C1266 H1260 0.950 . S
C1266 C1267 1.327 . S
C1267 H1261 0.950 . S
C1267 C1266 1.327 . S
C1267 C1271 1.429 . S
C1268 C1251 1.574 . S
C1268 H1262 0.949 . S
C1268 C1272 1.368 1_655 S
C1269 C1250 1.429 . S
C1269 C1263 1.429 . S
C1269 C1270 1.523 . S
C1270 C1251 1.368 . S
C1270 C1264 1.368 1_655 S
C1270 C1269 1.523 . S
C1271 C1255 1.429 . S
C1271 C1267 1.429 . S
C1271 C1272 1.523 . S
C1272 C1256 1.368 . S
C1272 C1268 1.368 1_455 S
C1272 C1271 1.523 . S
H1273 C1248 0.963 . S
H1274 C1250 0.950 1_455 S
H1275 C1251 0.949 . S
H1276 C1253 0.963 . S
H1277 C1255 0.950 1_655 S
C1278 C1279 1.354 1_545 S
C1278 C1280 1.326 . S
C1278 H1303 0.946 . S
C1279 C1278 1.354 1_565 S
C1279 C1295 1.349 . S
C1280 C1278 1.326 . S
C1280 C1299 1.429 1_545 S
C1280 H1304 0.950 . S
C1281 C1298 1.574 . S
C1281 C1300 1.368 . S
C1281 H1305 0.949 . S
H1282 C1286 0.949 . S
C1283 C1284 1.355 1_565 S
C1283 C1285 1.326 . S
C1283 H1306 0.945 . S
C1284 C1283 1.355 1_545 S
C1284 C1296 1.349 . S
C1285 C1283 1.326 . S
C1285 C1301 1.429 1_565 S
C1285 H1307 0.950 . S
C1286 H1282 0.949 . S
C1286 C1294 1.574 . S
C1286 C1302 1.368 . S
H1287 C1295 0.950 . S
H1288 C1293 0.950 . S
H1289 C1294 0.949 . S
H1290 C1296 0.950 . S
H1291 C1297 0.950 . S
H1292 C1298 0.949 . S
C1293 H1288 0.950 . S
C1293 C1295 1.327 . S
C1293 C1299 1.429 . S
C1294 C1286 1.574 . S
C1294 H1289 0.949 . S
C1294 C1300 1.368 1_545 S
C1295 C1279 1.349 . S
C1295 H1287 0.950 . S
C1295 C1293 1.327 . S
C1296 C1284 1.349 . S
C1296 H1290 0.950 . S
C1296 C1297 1.327 . S
C1297 H1291 0.950 . S
C1297 C1296 1.327 . S
C1297 C1301 1.429 . S
C1298 C1281 1.574 . S
C1298 H1292 0.949 . S
C1298 C1302 1.368 1_565 S
C1299 C1280 1.429 1_565 S
C1299 C1293 1.429 . S
C1299 C1300 1.523 . S
C1300 C1281 1.368 . S
C1300 C1294 1.368 1_565 S
C1300 C1299 1.523 . S
C1301 C1285 1.429 1_545 S
C1301 C1297 1.429 . S
C1301 C1302 1.523 . S
C1302 C1286 1.368 . S
C1302 C1298 1.368 1_545 S
C1302 C1301 1.523 . S
H1303 C1278 0.946 . S
H1304 C1280 0.950 . S
H1305 C1281 0.949 . S
H1306 C1283 0.945 . S
H1307 C1285 0.950 . S
C1308 C1309 1.349 . S
C1308 C1310 1.327 . S
C1308 H1333 0.963 . S
C1309 C1308 1.349 . S
C1309 C1325 1.349 . S
C1310 C1308 1.327 . S
C1310 C1329 1.429 . S
C1310 H1334 0.950 1_655 S
C1311 C1328 1.574 . S
C1311 C1330 1.368 . S
C1311 H1335 0.949 . S
H1312 C1316 0.949 . S
C1313 C1314 1.349 . S
C1313 C1315 1.327 . S
C1313 H1336 0.963 . S
C1314 C1313 1.349 . S
C1314 C1326 1.349 . S
C1315 C1313 1.327 . S
C1315 C1331 1.429 . S
C1315 H1337 0.950 1_455 S
C1316 H1312 0.949 . S
C1316 C1324 1.574 . S
C1316 C1332 1.368 . S
H1317 C1325 0.950 . S
H1318 C1323 0.950 . S
H1319 C1324 0.949 . S
H1320 C1326 0.950 . S
H1321 C1327 0.950 . S
H1322 C1328 0.949 . S
C1323 H1318 0.950 . S
C1323 C1325 1.327 . S
C1323 C1329 1.429 . S
C1324 C1316 1.574 . S
C1324 H1319 0.949 . S
C1324 C1330 1.368 1_455 S
C1325 C1309 1.349 . S
C1325 H1317 0.950 . S
C1325 C1323 1.327 . S
C1326 C1314 1.349 . S
C1326 H1320 0.950 . S
C1326 C1327 1.327 . S
C1327 H1321 0.950 . S
C1327 C1326 1.327 . S
C1327 C1331 1.429 . S
C1328 C1311 1.574 . S
C1328 H1322 0.949 . S
C1328 C1332 1.368 1_655 S
C1329 C1310 1.429 . S
C1329 C1323 1.429 . S
C1329 C1330 1.523 . S
C1330 C1311 1.368 . S
C1330 C1324 1.368 1_655 S
C1330 C1329 1.523 . S
C1331 C1315 1.429 . S
C1331 C1327 1.429 . S
C1331 C1332 1.523 . S
C1332 C1316 1.368 . S
C1332 C1328 1.368 1_455 S
C1332 C1331 1.523 . S
H1333 C1308 0.963 . S
H1334 C1310 0.950 1_455 S
H1335 C1311 0.949 . S
H1336 C1313 0.963 . S
H1337 C1315 0.950 1_655 S
C1338 C1339 1.349 . S
C1338 C1340 1.327 1_545 S
C1338 H1363 0.950 1_545 S
C1339 C1338 1.349 . S
C1339 C1355 1.349 . S
C1340 C1338 1.327 1_565 S
C1340 C1359 1.429 1_565 S
C1340 H1364 0.950 . S
C1341 C1358 1.574 . S
C1341 C1360 1.368 . S
C1341 H1365 0.949 . S
H1342 C1346 0.949 . S
C1343 C1344 1.349 . S
C1343 C1345 1.327 1_565 S
C1343 H1366 0.950 1_565 S
C1344 C1343 1.349 . S
C1344 C1356 1.349 . S
C1345 C1343 1.327 1_545 S
C1345 C1361 1.429 1_545 S
C1345 H1367 0.950 . S
C1346 H1342 0.949 . S
C1346 C1354 1.574 . S
C1346 C1362 1.368 . S
H1347 C1355 0.950 . S
H1348 C1353 0.950 . S
H1349 C1354 0.949 . S
H1350 C1356 0.950 . S
H1351 C1357 0.950 . S
H1352 C1358 0.949 . S
C1353 H1348 0.950 . S
C1353 C1355 1.327 . S
C1353 C1359 1.429 . S
C1354 C1346 1.574 . S
C1354 H1349 0.949 . S
C1354 C1360 1.368 1_565 S
C1355 C1339 1.349 . S
C1355 H1347 0.950 . S
C1355 C1353 1.327 . S
C1356 C1344 1.349 . S
C1356 H1350 0.950 . S
C1356 C1357 1.327 . S
C1357 H1351 0.950 . S
C1357 C1356 1.327 . S
C1357 C1361 1.429 . S
C1358 C1341 1.574 . S
C1358 H1352 0.949 . S
C1358 C1362 1.368 1_545 S
C1359 C1340 1.429 1_545 S
C1359 C1353 1.429 . S
C1359 C1360 1.523 . S
C1360 C1341 1.368 . S
C1360 C1354 1.368 1_545 S
C1360 C1359 1.523 . S
C1361 C1345 1.429 1_565 S
C1361 C1357 1.429 . S
C1361 C1362 1.523 . S
C1362 C1346 1.368 . S
C1362 C1358 1.368 1_565 S
C1362 C1361 1.523 . S
H1363 C1338 0.950 1_565 S
H1364 C1340 0.950 . S
H1365 C1341 0.949 . S
H1366 C1343 0.950 1_545 S
H1367 C1345 0.950 . S
C1368 C1369 1.349 . S
C1368 C1370 1.327 . S
C1368 H1393 0.950 . S
C1369 C1368 1.349 . S
C1369 C1385 1.362 . S
C1370 C1368 1.327 . S
C1370 C1389 1.429 . S
C1370 H1394 0.950 . S
C1371 C1388 1.574 . S
C1371 C1390 1.368 1_455 S
C1371 H1395 0.949 . S
H1372 C1376 0.949 . S
C1373 C1374 1.349 . S
C1373 C1375 1.327 . S
C1373 H1396 0.950 . S
C1374 C1373 1.349 . S
C1374 C1386 1.362 . S
C1375 C1373 1.327 . S
C1375 C1391 1.429 . S
C1375 H1397 0.950 . S
C1376 H1372 0.949 . S
C1376 C1384 1.574 . S
C1376 C1392 1.368 1_655 S
H1377 C1385 0.940 1_455 S
H1378 C1383 0.950 . S
H1379 C1384 0.949 . S
H1380 C1386 0.940 1_655 S
H1381 C1387 0.950 . S
H1382 C1388 0.949 . S
C1383 H1378 0.950 . S
C1383 C1385 1.324 1_455 S
C1383 C1389 1.429 1_455 S
C1384 C1376 1.574 . S
C1384 H1379 0.949 . S
C1384 C1390 1.368 . S
C1385 C1369 1.362 . S
C1385 H1377 0.940 1_655 S
C1385 C1383 1.324 1_655 S
C1386 C1374 1.362 . S
C1386 H1380 0.940 1_455 S
C1386 C1387 1.324 1_455 S
C1387 H1381 0.950 . S
C1387 C1386 1.324 1_655 S
C1387 C1391 1.429 1_655 S
C1388 C1371 1.574 . S
C1388 H1382 0.949 . S
C1388 C1392 1.368 . S
C1389 C1370 1.429 . S
C1389 C1383 1.429 1_655 S
C1389 C1390 1.523 . S
C1390 C1371 1.368 1_655 S
C1390 C1384 1.368 . S
C1390 C1389 1.523 . S
C1391 C1375 1.429 . S
C1391 C1387 1.429 1_455 S
C1391 C1392 1.523 . S
C1392 C1376 1.368 1_455 S
C1392 C1388 1.368 . S
C1392 C1391 1.523 . S
H1393 C1368 0.950 . S
H1394 C1370 0.950 . S
H1395 C1371 0.949 . S
H1396 C1373 0.950 . S
H1397 C1375 0.950 . S
C1398 C1399 1.349 . S
C1398 C1400 1.327 . S
C1398 H1423 0.950 . S
C1399 C1398 1.349 . S
C1399 C1415 1.349 1_545 S
C1400 C1398 1.327 . S
C1400 C1419 1.429 . S
C1400 H1424 0.950 . S
C1401 C1418 1.574 . S
C1401 C1420 1.368 1_565 S
C1401 H1425 0.949 . S
H1402 C1406 0.949 . S
C1403 C1404 1.349 . S
C1403 C1405 1.327 . S
C1403 H1426 0.950 . S
C1404 C1403 1.349 . S
C1404 C1416 1.349 1_565 S
C1405 C1403 1.327 . S
C1405 C1421 1.429 . S
C1405 H1427 0.950 . S
C1406 H1402 0.949 . S
C1406 C1414 1.574 . S
C1406 C1422 1.368 1_545 S
H1407 C1415 0.950 . S
H1408 C1413 0.950 . S
H1409 C1414 0.949 . S
H1410 C1416 0.950 . S
H1411 C1417 0.950 . S
H1412 C1418 0.949 . S
C1413 H1408 0.950 . S
C1413 C1415 1.327 . S
C1413 C1419 1.429 1_565 S
C1414 C1406 1.574 . S
C1414 H1409 0.949 . S
C1414 C1420 1.368 . S
C1415 C1399 1.349 1_565 S
C1415 H1407 0.950 . S
C1415 C1413 1.327 . S
C1416 C1404 1.349 1_545 S
C1416 H1410 0.950 . S
C1416 C1417 1.327 . S
C1417 H1411 0.950 . S
C1417 C1416 1.327 . S
C1417 C1421 1.429 1_545 S
C1418 C1401 1.574 . S
C1418 H1412 0.949 . S
C1418 C1422 1.368 . S
C1419 C1400 1.429 . S
C1419 C1413 1.429 1_545 S
C1419 C1420 1.523 . S
C1420 C1401 1.368 1_545 S
C1420 C1414 1.368 . S
C1420 C1419 1.523 . S
C1421 C1405 1.429 . S
C1421 C1417 1.429 1_565 S
C1421 C1422 1.523 . S
C1422 C1406 1.368 1_565 S
C1422 C1418 1.368 . S
C1422 C1421 1.523 . S
H1423 C1398 0.950 . S
H1424 C1400 0.950 . S
H1425 C1401 0.949 . S
H1426 C1403 0.950 . S
H1427 C1405 0.950 . S
C1428 C1429 1.362 . S
C1428 C1430 1.324 1_455 S
C1428 H1453 0.940 1_455 S
C1429 C1428 1.362 . S
C1429 C1445 1.349 . S
C1430 C1428 1.324 1_655 S
C1430 C1449 1.429 1_655 S
C1430 H1454 0.950 . S
C1431 C1448 1.574 . S
C1431 C1450 1.368 . S
C1431 H1455 0.949 . S
H1432 C1436 0.949 . S
C1433 C1434 1.362 . S
C1433 C1435 1.324 1_655 S
C1433 H1456 0.940 1_655 S
C1434 C1433 1.362 . S
C1434 C1446 1.349 . S
C1435 C1433 1.324 1_455 S
C1435 C1451 1.429 1_455 S
C1435 H1457 0.950 . S
C1436 H1432 0.949 . S
C1436 C1444 1.574 . S
C1436 C1452 1.368 . S
H1437 C1445 0.950 . S
H1438 C1443 0.950 . S
H1439 C1444 0.949 . S
H1440 C1446 0.950 . S
H1441 C1447 0.950 . S
H1442 C1448 0.949 . S
C1443 H1438 0.950 . S
C1443 C1445 1.327 . S
C1443 C1449 1.429 . S
C1444 C1436 1.574 . S
C1444 H1439 0.949 . S
C1444 C1450 1.368 1_655 S
C1445 C1429 1.349 . S
C1445 H1437 0.950 . S
C1445 C1443 1.327 . S
C1446 C1434 1.349 . S
C1446 H1440 0.950 . S
C1446 C1447 1.327 . S
C1447 H1441 0.950 . S
C1447 C1446 1.327 . S
C1447 C1451 1.429 . S
C1448 C1431 1.574 . S
C1448 H1442 0.949 . S
C1448 C1452 1.368 1_455 S
C1449 C1430 1.429 1_455 S
C1449 C1443 1.429 . S
C1449 C1450 1.523 . S
C1450 C1431 1.368 . S
C1450 C1444 1.368 1_455 S
C1450 C1449 1.523 . S
C1451 C1435 1.429 1_655 S
C1451 C1447 1.429 . S
C1451 C1452 1.523 . S
C1452 C1436 1.368 . S
C1452 C1448 1.368 1_655 S
C1452 C1451 1.523 . S
H1453 C1428 0.940 1_655 S
H1454 C1430 0.950 . S
H1455 C1431 0.949 . S
H1456 C1433 0.940 1_455 S
H1457 C1435 0.950 . S
C1458 C1459 1.349 1_545 S
C1458 C1460 1.327 . S
C1458 H1483 0.950 . S
C1459 C1458 1.349 1_565 S
C1459 C1475 1.349 . S
C1460 C1458 1.327 . S
C1460 C1479 1.429 1_545 S
C1460 H1484 0.950 . S
C1461 C1478 1.574 . S
C1461 C1480 1.368 . S
C1461 H1485 0.949 . S
H1462 C1466 0.949 . S
C1463 C1464 1.349 1_565 S
C1463 C1465 1.327 . S
C1463 H1486 0.950 . S
C1464 C1463 1.349 1_545 S
C1464 C1476 1.349 . S
C1465 C1463 1.327 . S
C1465 C1481 1.429 1_565 S
C1465 H1487 0.950 . S
C1466 H1462 0.949 . S
C1466 C1474 1.574 . S
C1466 C1482 1.368 . S
H1467 C1475 0.950 . S
H1468 C1473 0.950 . S
H1469 C1474 0.949 . S
H1470 C1476 0.950 . S
H1471 C1477 0.950 . S
H1472 C1478 0.949 . S
C1473 H1468 0.950 . S
C1473 C1475 1.327 . S
C1473 C1479 1.429 . S
C1474 C1466 1.574 . S
C1474 H1469 0.949 . S
C1474 C1480 1.368 1_545 S
C1475 C1459 1.349 . S
C1475 H1467 0.950 . S
C1475 C1473 1.327 . S
C1476 C1464 1.349 . S
C1476 H1470 0.950 . S
C1476 C1477 1.327 . S
C1477 H1471 0.950 . S
C1477 C1476 1.327 . S
C1477 C1481 1.429 . S
C1478 C1461 1.574 . S
C1478 H1472 0.949 . S
C1478 C1482 1.368 1_565 S
C1479 C1460 1.429 1_565 S
C1479 C1473 1.429 . S
C1479 C1480 1.523 . S
C1480 C1461 1.368 . S
C1480 C1474 1.368 1_565 S
C1480 C1479 1.523 . S
C1481 C1465 1.429 1_545 S
C1481 C1477 1.429 . S
C1481 C1482 1.523 . S
C1482 C1466 1.368 . S
C1482 C1478 1.368 1_545 S
C1482 C1481 1.523 . S
H1483 C1458 0.950 . S
H1484 C1460 0.950 . S
H1485 C1461 0.949 . S
H1486 C1463 0.950 . S
H1487 C1465 0.950 . S
C1488 C1489 1.349 . S
C1488 C1490 1.327 . S
C1488 H1513 0.950 . S
C1489 C1488 1.349 . S
C1489 C1505 1.349 . S
C1490 C1488 1.327 . S
C1490 C1509 1.429 . S
C1490 H1514 0.950 . S
C1491 C1508 1.574 . S
C1491 C1510 1.368 . S
C1491 H1515 0.949 . S
H1492 C1496 0.949 . S
C1493 C1494 1.349 . S
C1493 C1495 1.327 . S
C1493 H1516 0.950 . S
C1494 C1493 1.349 . S
C1494 C1506 1.349 . S
C1495 C1493 1.327 . S
C1495 C1511 1.429 . S
C1495 H1517 0.950 . S
C1496 H1492 0.949 . S
C1496 C1504 1.574 . S
C1496 C1512 1.368 . S
H1497 C1505 0.950 . S
H1498 C1503 0.950 . S
H1499 C1504 0.949 . S
H1500 C1506 0.950 . S
H1501 C1507 0.950 . S
H1502 C1508 0.949 . S
C1503 H1498 0.950 . S
C1503 C1505 1.327 . S
C1503 C1509 1.429 . S
C1504 C1496 1.574 . S
C1504 H1499 0.949 . S
C1504 C1510 1.368 . S
C1505 C1489 1.349 . S
C1505 H1497 0.950 . S
C1505 C1503 1.327 . S
C1506 C1494 1.349 . S
C1506 H1500 0.950 . S
C1506 C1507 1.327 . S
C1507 H1501 0.950 . S
C1507 C1506 1.327 . S
C1507 C1511 1.429 . S
C1508 C1491 1.574 . S
C1508 H1502 0.949 . S
C1508 C1512 1.368 . S
C1509 C1490 1.429 . S
C1509 C1503 1.429 . S
C1509 C1510 1.523 . S
C1510 C1491 1.368 . S
C1510 C1504 1.368 . S
C1510 C1509 1.523 . S
C1511 C1495 1.429 . S
C1511 C1507 1.429 . S
C1511 C1512 1.523 . S
C1512 C1496 1.368 . S
C1512 C1508 1.368 . S
C1512 C1511 1.523 . S
H1513 C1488 0.950 . S
H1514 C1490 0.950 . S
H1515 C1491 0.949 . S
H1516 C1493 0.950 . S
H1517 C1495 0.950 . S
C1518 C1519 1.349 . S
C1518 C1520 1.327 . S
C1518 H1543 0.950 . S
C1519 C1518 1.349 . S
C1519 C1535 1.349 . S
C1520 C1518 1.327 . S
C1520 C1539 1.429 . S
C1520 H1544 0.950 . S
C1521 C1538 1.574 . S
C1521 C1540 1.368 . S
C1521 H1545 0.949 . S
H1522 C1526 0.949 . S
C1523 C1524 1.349 . S
C1523 C1525 1.327 . S
C1523 H1546 0.950 . S
C1524 C1523 1.349 . S
C1524 C1536 1.349 . S
C1525 C1523 1.327 . S
C1525 C1541 1.429 . S
C1525 H1547 0.950 . S
C1526 H1522 0.949 . S
C1526 C1534 1.574 . S
C1526 C1542 1.368 . S
H1527 C1535 0.950 . S
H1528 C1533 0.950 . S
H1529 C1534 0.949 . S
H1530 C1536 0.950 . S
H1531 C1537 0.950 . S
H1532 C1538 0.949 . S
C1533 H1528 0.950 . S
C1533 C1535 1.327 . S
C1533 C1539 1.429 . S
C1534 C1526 1.574 . S
C1534 H1529 0.949 . S
C1534 C1540 1.368 . S
C1535 C1519 1.349 . S
C1535 H1527 0.950 . S
C1535 C1533 1.327 . S
C1536 C1524 1.349 . S
C1536 H1530 0.950 . S
C1536 C1537 1.327 . S
C1537 H1531 0.950 . S
C1537 C1536 1.327 . S
C1537 C1541 1.429 . S
C1538 C1521 1.574 . S
C1538 H1532 0.949 . S
C1538 C1542 1.368 . S
C1539 C1520 1.429 . S
C1539 C1533 1.429 . S
C1539 C1540 1.523 . S
C1540 C1521 1.368 . S
C1540 C1534 1.368 . S
C1540 C1539 1.523 . S
C1541 C1525 1.429 . S
C1541 C1537 1.429 . S
C1541 C1542 1.523 . S
C1542 C1526 1.368 . S
C1542 C1538 1.368 . S
C1542 C1541 1.523 . S
H1543 C1518 0.950 . S
H1544 C1520 0.950 . S
H1545 C1521 0.949 . S
H1546 C1523 0.950 . S
H1547 C1525 0.950 . S
C1548 C1549 1.349 . S
C1548 C1550 1.327 . S
C1548 H1573 0.950 . S
C1549 C1548 1.349 . S
C1549 C1565 1.349 . S
C1550 C1548 1.327 . S
C1550 C1569 1.429 . S
C1550 H1574 0.950 . S
C1551 C1568 1.574 . S
C1551 C1570 1.368 . S
C1551 H1575 0.949 . S
H1552 C1556 0.949 . S
C1553 C1554 1.349 . S
C1553 C1555 1.327 . S
C1553 H1576 0.950 . S
C1554 C1553 1.349 . S
C1554 C1566 1.349 . S
C1555 C1553 1.327 . S
C1555 C1571 1.429 . S
C1555 H1577 0.950 . S
C1556 H1552 0.949 . S
C1556 C1564 1.574 . S
C1556 C1572 1.368 . S
H1557 C1565 0.950 . S
H1558 C1563 0.950 . S
H1559 C1564 0.949 . S
H1560 C1566 0.950 . S
H1561 C1567 0.950 . S
H1562 C1568 0.949 . S
C1563 H1558 0.950 . S
C1563 C1565 1.327 . S
C1563 C1569 1.429 . S
C1564 C1556 1.574 . S
C1564 H1559 0.949 . S
C1564 C1570 1.368 . S
C1565 C1549 1.349 . S
C1565 H1557 0.950 . S
C1565 C1563 1.327 . S
C1566 C1554 1.349 . S
C1566 H1560 0.950 . S
C1566 C1567 1.327 . S
C1567 H1561 0.950 . S
C1567 C1566 1.327 . S
C1567 C1571 1.429 . S
C1568 C1551 1.574 . S
C1568 H1562 0.949 . S
C1568 C1572 1.368 . S
C1569 C1550 1.429 . S
C1569 C1563 1.429 . S
C1569 C1570 1.523 . S
C1570 C1551 1.368 . S
C1570 C1564 1.368 . S
C1570 C1569 1.523 . S
C1571 C1555 1.429 . S
C1571 C1567 1.429 . S
C1571 C1572 1.523 . S
C1572 C1556 1.368 . S
C1572 C1568 1.368 . S
C1572 C1571 1.523 . S
H1573 C1548 0.950 . S
H1574 C1550 0.950 . S
H1575 C1551 0.949 . S
H1576 C1553 0.950 . S
H1577 C1555 0.950 . S
C1578 C1579 1.349 . S
C1578 C1580 1.327 . S
C1578 H1603 0.950 . S
C1579 C1578 1.349 . S
C1579 C1595 1.349 . S
C1580 C1578 1.327 . S
C1580 C1599 1.429 . S
C1580 H1604 0.950 . S
C1581 C1598 1.574 . S
C1581 C1600 1.368 . S
C1581 H1605 0.949 . S
H1582 C1586 0.949 . S
C1583 C1584 1.349 . S
C1583 C1585 1.327 . S
C1583 H1606 0.950 . S
C1584 C1583 1.349 . S
C1584 C1596 1.349 . S
C1585 C1583 1.327 . S
C1585 C1601 1.429 . S
C1585 H1607 0.950 . S
C1586 H1582 0.949 . S
C1586 C1594 1.574 . S
C1586 C1602 1.368 . S
H1587 C1595 0.950 . S
H1588 C1593 0.950 . S
H1589 C1594 0.949 . S
H1590 C1596 0.950 . S
H1591 C1597 0.950 . S
H1592 C1598 0.949 . S
C1593 H1588 0.950 . S
C1593 C1595 1.327 . S
C1593 C1599 1.429 . S
C1594 C1586 1.574 . S
C1594 H1589 0.949 . S
C1594 C1600 1.368 . S
C1595 C1579 1.349 . S
C1595 H1587 0.950 . S
C1595 C1593 1.327 . S
C1596 C1584 1.349 . S
C1596 H1590 0.950 . S
C1596 C1597 1.327 . S
C1597 H1591 0.950 . S
C1597 C1596 1.327 . S
C1597 C1601 1.429 . S
C1598 C1581 1.574 . S
C1598 H1592 0.949 . S
C1598 C1602 1.368 . S
C1599 C1580 1.429 . S
C1599 C1593 1.429 . S
C1599 C1600 1.523 . S
C1600 C1581 1.368 . S
C1600 C1594 1.368 . S
C1600 C1599 1.523 . S
C1601 C1585 1.429 . S
C1601 C1597 1.429 . S
C1601 C1602 1.523 . S
C1602 C1586 1.368 . S
C1602 C1598 1.368 . S
C1602 C1601 1.523 . S
H1603 C1578 0.950 . S
H1604 C1580 0.950 . S
H1605 C1581 0.949 . S
H1606 C1583 0.950 . S
H1607 C1585 0.950 . S
C1608 C1609 1.349 . S
C1608 C1610 1.327 . S
C1608 H1633 0.950 . S
C1609 C1608 1.349 . S
C1609 C1625 1.349 . S
C1610 C1608 1.327 . S
C1610 C1629 1.429 . S
C1610 H1634 0.950 . S
C1611 C1628 1.574 . S
C1611 C1630 1.368 . S
C1611 H1635 0.949 . S
H1612 C1616 0.949 . S
C1613 C1614 1.349 . S
C1613 C1615 1.327 . S
C1613 H1636 0.950 . S
C1614 C1613 1.349 . S
C1614 C1626 1.349 . S
C1615 C1613 1.327 . S
C1615 C1631 1.429 . S
C1615 H1637 0.950 . S
C1616 H1612 0.949 . S
C1616 C1624 1.574 . S
C1616 C1632 1.368 . S
H1617 C1625 0.950 . S
H1618 C1623 0.950 . S
H1619 C1624 0.949 . S
H1620 C1626 0.950 . S
H1621 C1627 0.950 . S
H1622 C1628 0.949 . S
C1623 H1618 0.950 . S
C1623 C1625 1.327 . S
C1623 C1629 1.429 . S
C1624 C1616 1.574 . S
C1624 H1619 0.949 . S
C1624 C1630 1.368 . S
C1625 C1609 1.349 . S
C1625 H1617 0.950 . S
C1625 C1623 1.327 . S
C1626 C1614 1.349 . S
C1626 H1620 0.950 . S
C1626 C1627 1.327 . S
C1627 H1621 0.950 . S
C1627 C1626 1.327 . S
C1627 C1631 1.429 . S
C1628 C1611 1.574 . S
C1628 H1622 0.949 . S
C1628 C1632 1.368 . S
C1629 C1610 1.429 . S
C1629 C1623 1.429 . S
C1629 C1630 1.523 . S
C1630 C1611 1.368 . S
C1630 C1624 1.368 . S
C1630 C1629 1.523 . S
C1631 C1615 1.429 . S
C1631 C1627 1.429 . S
C1631 C1632 1.523 . S
C1632 C1616 1.368 . S
C1632 C1628 1.368 . S
C1632 C1631 1.523 . S
H1633 C1608 0.950 . S
H1634 C1610 0.950 . S
H1635 C1611 0.949 . S
H1636 C1613 0.950 . S
H1637 C1615 0.950 . S
C1638 C1639 1.349 . S
C1638 C1640 1.327 . S
C1638 H1663 0.950 . S
C1639 C1638 1.349 . S
C1639 C1655 1.349 . S
C1640 C1638 1.327 . S
C1640 C1659 1.429 . S
C1640 H1664 0.950 . S
C1641 C1658 1.574 . S
C1641 C1660 1.368 . S
C1641 H1665 0.949 . S
H1642 C1646 0.949 . S
C1643 C1644 1.349 . S
C1643 C1645 1.327 . S
C1643 H1666 0.950 . S
C1644 C1643 1.349 . S
C1644 C1656 1.349 . S
C1645 C1643 1.327 . S
C1645 C1661 1.429 . S
C1645 H1667 0.950 . S
C1646 H1642 0.949 . S
C1646 C1654 1.574 . S
C1646 C1662 1.368 . S
H1647 C1655 0.950 . S
H1648 C1653 0.950 . S
H1649 C1654 0.949 . S
H1650 C1656 0.950 . S
H1651 C1657 0.950 . S
H1652 C1658 0.949 . S
C1653 H1648 0.950 . S
C1653 C1655 1.327 . S
C1653 C1659 1.429 . S
C1654 C1646 1.574 . S
C1654 H1649 0.949 . S
C1654 C1660 1.368 . S
C1655 C1639 1.349 . S
C1655 H1647 0.950 . S
C1655 C1653 1.327 . S
C1656 C1644 1.349 . S
C1656 H1650 0.950 . S
C1656 C1657 1.327 . S
C1657 H1651 0.950 . S
C1657 C1656 1.327 . S
C1657 C1661 1.429 . S
C1658 C1641 1.574 . S
C1658 H1652 0.949 . S
C1658 C1662 1.368 . S
C1659 C1640 1.429 . S
C1659 C1653 1.429 . S
C1659 C1660 1.523 . S
C1660 C1641 1.368 . S
C1660 C1654 1.368 . S
C1660 C1659 1.523 . S
C1661 C1645 1.429 . S
C1661 C1657 1.429 . S
C1661 C1662 1.523 . S
C1662 C1646 1.368 . S
C1662 C1658 1.368 . S
C1662 C1661 1.523 . S
H1663 C1638 0.950 . S
H1664 C1640 0.950 . S
H1665 C1641 0.949 . S
H1666 C1643 0.950 . S
H1667 C1645 0.950 . S
C1668 C1669 1.349 . S
C1668 C1670 1.327 . S
C1668 H1693 0.950 . S
C1669 C1668 1.349 . S
C1669 C1685 1.349 . S
C1670 C1668 1.327 . S
C1670 C1689 1.429 . S
C1670 H1694 0.950 . S
C1671 C1688 1.574 . S
C1671 C1690 1.368 . S
C1671 H1695 0.949 . S
H1672 C1676 0.949 . S
C1673 C1674 1.349 . S
C1673 C1675 1.327 . S
C1673 H1696 0.950 . S
C1674 C1673 1.349 . S
C1674 C1686 1.349 . S
C1675 C1673 1.327 . S
C1675 C1691 1.429 . S
C1675 H1697 0.950 . S
C1676 H1672 0.949 . S
C1676 C1684 1.574 . S
C1676 C1692 1.368 . S
H1677 C1685 0.950 . S
H1678 C1683 0.950 . S
H1679 C1684 0.949 . S
H1680 C1686 0.950 . S
H1681 C1687 0.950 . S
H1682 C1688 0.949 . S
C1683 H1678 0.950 . S
C1683 C1685 1.327 . S
C1683 C1689 1.429 . S
C1684 C1676 1.574 . S
C1684 H1679 0.949 . S
C1684 C1690 1.368 . S
C1685 C1669 1.349 . S
C1685 H1677 0.950 . S
C1685 C1683 1.327 . S
C1686 C1674 1.349 . S
C1686 H1680 0.950 . S
C1686 C1687 1.327 . S
C1687 H1681 0.950 . S
C1687 C1686 1.327 . S
C1687 C1691 1.429 . S
C1688 C1671 1.574 . S
C1688 H1682 0.949 . S
C1688 C1692 1.368 . S
C1689 C1670 1.429 . S
C1689 C1683 1.429 . S
C1689 C1690 1.523 . S
C1690 C1671 1.368 . S
C1690 C1684 1.368 . S
C1690 C1689 1.523 . S
C1691 C1675 1.429 . S
C1691 C1687 1.429 . S
C1691 C1692 1.523 . S
C1692 C1676 1.368 . S
C1692 C1688 1.368 . S
C1692 C1691 1.523 . S
H1693 C1668 0.950 . S
H1694 C1670 0.950 . S
H1695 C1671 0.949 . S
H1696 C1673 0.950 . S
H1697 C1675 0.950 . S
C1698 C1699 1.349 . S
C1698 C1700 1.327 . S
C1698 H1723 0.950 . S
C1699 C1698 1.349 . S
C1699 C1715 1.349 . S
C1700 C1698 1.327 . S
C1700 C1719 1.429 . S
C1700 H1724 0.950 . S
C1701 C1718 1.574 . S
C1701 C1720 1.368 . S
C1701 H1725 0.949 . S
H1702 C1706 0.949 . S
C1703 C1704 1.349 . S
C1703 C1705 1.327 . S
C1703 H1726 0.950 . S
C1704 C1703 1.349 . S
C1704 C1716 1.349 . S
C1705 C1703 1.327 . S
C1705 C1721 1.429 . S
C1705 H1727 0.950 . S
C1706 H1702 0.949 . S
C1706 C1714 1.574 . S
C1706 C1722 1.368 . S
H1707 C1715 0.950 . S
H1708 C1713 0.950 . S
H1709 C1714 0.949 . S
H1710 C1716 0.950 . S
H1711 C1717 0.950 . S
H1712 C1718 0.949 . S
C1713 H1708 0.950 . S
C1713 C1715 1.327 . S
C1713 C1719 1.429 . S
C1714 C1706 1.574 . S
C1714 H1709 0.949 . S
C1714 C1720 1.368 . S
C1715 C1699 1.349 . S
C1715 H1707 0.950 . S
C1715 C1713 1.327 . S
C1716 C1704 1.349 . S
C1716 H1710 0.950 . S
C1716 C1717 1.327 . S
C1717 H1711 0.950 . S
C1717 C1716 1.327 . S
C1717 C1721 1.429 . S
C1718 C1701 1.574 . S
C1718 H1712 0.949 . S
C1718 C1722 1.368 . S
C1719 C1700 1.429 . S
C1719 C1713 1.429 . S
C1719 C1720 1.523 . S
C1720 C1701 1.368 . S
C1720 C1714 1.368 . S
C1720 C1719 1.523 . S
C1721 C1705 1.429 . S
C1721 C1717 1.429 . S
C1721 C1722 1.523 . S
C1722 C1706 1.368 . S
C1722 C1718 1.368 . S
C1722 C1721 1.523 . S
H1723 C1698 0.950 . S
H1724 C1700 0.950 . S
H1725 C1701 0.949 . S
H1726 C1703 0.950 . S
H1727 C1705 0.950 . S
C529 N2 1.265 . S
C534 N497 1.265 . S
C559 N35 1.265 . S
C564 N398 1.265 . S
C589 N431 1.265 . S
C594 N68 1.265 . S
C619 N101 1.265 . S
C624 N464 1.265 . S
C649 N134 1.265 . S
C654 N299 1.265 . S
C679 N332 1.265 . S
C684 N167 1.265 . S
C709 N365 1.265 . S
C714 N200 1.265 . S
C739 N266 1.265 . S
C744 N233 1.265 . S
C769 N112 1.552 1_556 S
C774 C21 1.608 . S
C799 N13 1.552 1_556 S
C804 C54 1.608 . S
C829 C87 1.608 . S
C834 N46 1.552 1_556 S
C859 C120 1.608 . S
C864 N79 1.552 1_556 S
C889 N178 1.552 . S
C894 C153 1.608 . S
C919 N211 1.552 . S
C924 C186 1.608 . S
C949 N244 1.552 . S
C954 C219 1.608 . S
C979 N145 1.552 . S
C984 C252 1.608 . S
C1009 N376 1.552 . S
C1014 C285 1.608 . S
C1039 C318 1.608 . S
C1044 N277 1.552 . S
C1069 N310 1.552 . S
C1074 C351 1.608 . S
C1099 N343 1.552 . S
C1104 C384 1.608 . S
C1129 N442 1.552 . S
C1134 C417 1.608 . S
C1159 N475 1.552 . S
C1164 C450 1.608 . S
C1189 N508 1.552 . S
C1194 C483 1.608 . S
C1219 N409 1.552 . S
C1224 C516 1.608 . S
C1249 C205 1.547 . S
C1254 C7 1.547 . S
C1279 C238 1.547 . S
C1284 C40 1.547 . S
C1309 C73 1.547 . S
C1314 C139 1.547 . S
C1339 C172 1.547 . S
C1344 C106 1.547 . S
C1369 C84 0.748 . S
C1374 C150 0.748 . S
C1399 C183 0.748 . S
C1404 C117 0.748 . S
C1429 C18 0.748 . S
C1434 C216 0.748 . S
C1459 C249 0.748 . S
C1464 C51 0.748 . S
C1489 C469 1.547 . S
C1494 C271 1.547 . S
C1519 C502 1.547 . S
C1524 C304 1.547 . S
C1549 C403 1.547 . S
C1554 C337 1.547 . S
C1579 C370 1.547 . S
C1584 C436 1.547 . S
C1609 C414 0.748 . S
C1614 C348 0.748 . S
C1639 C381 0.748 . S
C1644 C447 0.748 . S
C1669 C282 0.748 . S
C1674 C480 0.748 . S
C1699 C513 0.748 . S
C1704 C315 0.748 . S
