# Generated by pormake.
# Topology vcc, (6)-cn, num edge types: 1
# Building blocks:
#     Node 0, Type 0, BuildingBlock: GEDQOX_clean_sbu_0, # of connection points: 6
#     Node 1, Type 0, BuildingBlock: GEDQOX_clean_sbu_0, # of connection points: 6
#     Node 2, Type 0, BuildingBlock: GEDQOX_clean_sbu_0, # of connection points: 6
#     Node 3, Type 0, BuildingBlock: GEDQOX_clean_sbu_0, # of connection points: 6
#     Node 4, Type 0, BuildingBlock: GEDQOX_clean_sbu_0, # of connection points: 6
#     Node 5, Type 0, BuildingBlock: GEDQOX_clean_sbu_0, # of connection points: 6
#     Node 6, Type 0, BuildingBlock: GEDQOX_clean_sbu_0, # of connection points: 6
#     Node 7, Type 0, BuildingBlock: GEDQOX_clean_sbu_0, # of connection points: 6
#     Node 8, Type 0, BuildingBlock: GEDQOX_clean_sbu_0, # of connection points: 6
#     Node 9, Type 0, BuildingBlock: GEDQOX_clean_sbu_0, # of connection points: 6
#     Node 10, Type 0, BuildingBlock: GEDQOX_clean_sbu_0, # of connection points: 6
#     Node 11, Type 0, BuildingBlock: GEDQOX_clean_sbu_0, # of connection points: 6
#     Node 12, Type 0, BuildingBlock: GEDQOX_clean_sbu_0, # of connection points: 6
#     Node 13, Type 0, BuildingBlock: GEDQOX_clean_sbu_0, # of connection points: 6
#     Node 14, Type 0, BuildingBlock: GEDQOX_clean_sbu_0, # of connection points: 6
#     Node 15, Type 0, BuildingBlock: GEDQOX_clean_sbu_0, # of connection points: 6
#     Node 16, Type 0, BuildingBlock: GEDQOX_clean_sbu_0, # of connection points: 6
#     Node 17, Type 0, BuildingBlock: GEDQOX_clean_sbu_0, # of connection points: 6
#     Node 18, Type 0, BuildingBlock: GEDQOX_clean_sbu_0, # of connection points: 6
#     Node 19, Type 0, BuildingBlock: GEDQOX_clean_sbu_0, # of connection points: 6
#     Node 20, Type 0, BuildingBlock: GEDQOX_clean_sbu_0, # of connection points: 6
#     Node 21, Type 0, BuildingBlock: GEDQOX_clean_sbu_0, # of connection points: 6
#     Node 22, Type 0, BuildingBlock: GEDQOX_clean_sbu_0, # of connection points: 6
#     Node 23, Type 0, BuildingBlock: GEDQOX_clean_sbu_0, # of connection points: 6
#     Node 24, Type 0, BuildingBlock: GEDQOX_clean_sbu_0, # of connection points: 6
#     Node 25, Type 0, BuildingBlock: GEDQOX_clean_sbu_0, # of connection points: 6
#     Node 26, Type 0, BuildingBlock: GEDQOX_clean_sbu_0, # of connection points: 6
#     Node 27, Type 0, BuildingBlock: GEDQOX_clean_sbu_0, # of connection points: 6
#     Node 28, Type 0, BuildingBlock: GEDQOX_clean_sbu_0, # of connection points: 6
#     Node 29, Type 0, BuildingBlock: GEDQOX_clean_sbu_0, # of connection points: 6
#     Node 30, Type 0, BuildingBlock: GEDQOX_clean_sbu_0, # of connection points: 6
#     Node 31, Type 0, BuildingBlock: GEDQOX_clean_sbu_0, # of connection points: 6
#     Edge 32, Type (0, 0), BuildingBlock: TEMPAE_clean_linker_10, # of connection points: 2
#     Edge 33, Type (0, 0), BuildingBlock: TEMPAE_clean_linker_10, # of connection points: 2
#     Edge 34, Type (0, 0), BuildingBlock: TEMPAE_clean_linker_10, # of connection points: 2
#     Edge 35, Type (0, 0), BuildingBlock: TEMPAE_clean_linker_10, # of connection points: 2
#     Edge 36, Type (0, 0), BuildingBlock: TEMPAE_clean_linker_10, # of connection points: 2
#     Edge 37, Type (0, 0), BuildingBlock: TEMPAE_clean_linker_10, # of connection points: 2
#     Edge 38, Type (0, 0), BuildingBlock: TEMPAE_clean_linker_10, # of connection points: 2
#     Edge 39, Type (0, 0), BuildingBlock: TEMPAE_clean_linker_10, # of connection points: 2
#     Edge 40, Type (0, 0), BuildingBlock: TEMPAE_clean_linker_10, # of connection points: 2
#     Edge 41, Type (0, 0), BuildingBlock: TEMPAE_clean_linker_10, # of connection points: 2
#     Edge 42, Type (0, 0), BuildingBlock: TEMPAE_clean_linker_10, # of connection points: 2
#     Edge 43, Type (0, 0), BuildingBlock: TEMPAE_clean_linker_10, # of connection points: 2
#     Edge 44, Type (0, 0), BuildingBlock: TEMPAE_clean_linker_10, # of connection points: 2
#     Edge 45, Type (0, 0), BuildingBlock: TEMPAE_clean_linker_10, # of connection points: 2
#     Edge 46, Type (0, 0), BuildingBlock: TEMPAE_clean_linker_10, # of connection points: 2
#     Edge 47, Type (0, 0), BuildingBlock: TEMPAE_clean_linker_10, # of connection points: 2
#     Edge 48, Type (0, 0), BuildingBlock: TEMPAE_clean_linker_10, # of connection points: 2
#     Edge 49, Type (0, 0), BuildingBlock: TEMPAE_clean_linker_10, # of connection points: 2
#     Edge 50, Type (0, 0), BuildingBlock: TEMPAE_clean_linker_10, # of connection points: 2
#     Edge 51, Type (0, 0), BuildingBlock: TEMPAE_clean_linker_10, # of connection points: 2
#     Edge 52, Type (0, 0), BuildingBlock: TEMPAE_clean_linker_10, # of connection points: 2
#     Edge 53, Type (0, 0), BuildingBlock: TEMPAE_clean_linker_10, # of connection points: 2
#     Edge 54, Type (0, 0), BuildingBlock: TEMPAE_clean_linker_10, # of connection points: 2
#     Edge 55, Type (0, 0), BuildingBlock: TEMPAE_clean_linker_10, # of connection points: 2
#     Edge 56, Type (0, 0), BuildingBlock: TEMPAE_clean_linker_10, # of connection points: 2
#     Edge 57, Type (0, 0), BuildingBlock: TEMPAE_clean_linker_10, # of connection points: 2
#     Edge 58, Type (0, 0), BuildingBlock: TEMPAE_clean_linker_10, # of connection points: 2
#     Edge 59, Type (0, 0), BuildingBlock: TEMPAE_clean_linker_10, # of connection points: 2
#     Edge 60, Type (0, 0), BuildingBlock: TEMPAE_clean_linker_10, # of connection points: 2
#     Edge 61, Type (0, 0), BuildingBlock: TEMPAE_clean_linker_10, # of connection points: 2
#     Edge 62, Type (0, 0), BuildingBlock: TEMPAE_clean_linker_10, # of connection points: 2
#     Edge 63, Type (0, 0), BuildingBlock: TEMPAE_clean_linker_10, # of connection points: 2
#     Edge 64, Type (0, 0), BuildingBlock: TEMPAE_clean_linker_10, # of connection points: 2
#     Edge 65, Type (0, 0), BuildingBlock: TEMPAE_clean_linker_10, # of connection points: 2
#     Edge 66, Type (0, 0), BuildingBlock: TEMPAE_clean_linker_10, # of connection points: 2
#     Edge 67, Type (0, 0), BuildingBlock: TEMPAE_clean_linker_10, # of connection points: 2
#     Edge 68, Type (0, 0), BuildingBlock: TEMPAE_clean_linker_10, # of connection points: 2
#     Edge 69, Type (0, 0), BuildingBlock: TEMPAE_clean_linker_10, # of connection points: 2
#     Edge 70, Type (0, 0), BuildingBlock: TEMPAE_clean_linker_10, # of connection points: 2
#     Edge 71, Type (0, 0), BuildingBlock: TEMPAE_clean_linker_10, # of connection points: 2
#     Edge 72, Type (0, 0), BuildingBlock: TEMPAE_clean_linker_10, # of connection points: 2
#     Edge 73, Type (0, 0), BuildingBlock: TEMPAE_clean_linker_10, # of connection points: 2
#     Edge 74, Type (0, 0), BuildingBlock: TEMPAE_clean_linker_10, # of connection points: 2
#     Edge 75, Type (0, 0), BuildingBlock: TEMPAE_clean_linker_10, # of connection points: 2
#     Edge 76, Type (0, 0), BuildingBlock: TEMPAE_clean_linker_10, # of connection points: 2
#     Edge 77, Type (0, 0), BuildingBlock: TEMPAE_clean_linker_10, # of connection points: 2
#     Edge 78, Type (0, 0), BuildingBlock: TEMPAE_clean_linker_10, # of connection points: 2
#     Edge 79, Type (0, 0), BuildingBlock: TEMPAE_clean_linker_10, # of connection points: 2
#     Edge 80, Type (0, 0), BuildingBlock: TEMPAE_clean_linker_10, # of connection points: 2
#     Edge 81, Type (0, 0), BuildingBlock: TEMPAE_clean_linker_10, # of connection points: 2
#     Edge 82, Type (0, 0), BuildingBlock: TEMPAE_clean_linker_10, # of connection points: 2
#     Edge 83, Type (0, 0), BuildingBlock: TEMPAE_clean_linker_10, # of connection points: 2
#     Edge 84, Type (0, 0), BuildingBlock: TEMPAE_clean_linker_10, # of connection points: 2
#     Edge 85, Type (0, 0), BuildingBlock: TEMPAE_clean_linker_10, # of connection points: 2
#     Edge 86, Type (0, 0), BuildingBlock: TEMPAE_clean_linker_10, # of connection points: 2
#     Edge 87, Type (0, 0), BuildingBlock: TEMPAE_clean_linker_10, # of connection points: 2
#     Edge 88, Type (0, 0), BuildingBlock: TEMPAE_clean_linker_10, # of connection points: 2
#     Edge 89, Type (0, 0), BuildingBlock: TEMPAE_clean_linker_10, # of connection points: 2
#     Edge 90, Type (0, 0), BuildingBlock: TEMPAE_clean_linker_10, # of connection points: 2
#     Edge 91, Type (0, 0), BuildingBlock: TEMPAE_clean_linker_10, # of connection points: 2
#     Edge 92, Type (0, 0), BuildingBlock: TEMPAE_clean_linker_10, # of connection points: 2
#     Edge 93, Type (0, 0), BuildingBlock: TEMPAE_clean_linker_10, # of connection points: 2
#     Edge 94, Type (0, 0), BuildingBlock: TEMPAE_clean_linker_10, # of connection points: 2
#     Edge 95, Type (0, 0), BuildingBlock: TEMPAE_clean_linker_10, # of connection points: 2
#     Edge 96, Type (0, 0), BuildingBlock: TEMPAE_clean_linker_10, # of connection points: 2
#     Edge 97, Type (0, 0), BuildingBlock: TEMPAE_clean_linker_10, # of connection points: 2
#     Edge 98, Type (0, 0), BuildingBlock: TEMPAE_clean_linker_10, # of connection points: 2
#     Edge 99, Type (0, 0), BuildingBlock: TEMPAE_clean_linker_10, # of connection points: 2
#     Edge 100, Type (0, 0), BuildingBlock: TEMPAE_clean_linker_10, # of connection points: 2
#     Edge 101, Type (0, 0), BuildingBlock: TEMPAE_clean_linker_10, # of connection points: 2
#     Edge 102, Type (0, 0), BuildingBlock: TEMPAE_clean_linker_10, # of connection points: 2
#     Edge 103, Type (0, 0), BuildingBlock: TEMPAE_clean_linker_10, # of connection points: 2
#     Edge 104, Type (0, 0), BuildingBlock: TEMPAE_clean_linker_10, # of connection points: 2
#     Edge 105, Type (0, 0), BuildingBlock: TEMPAE_clean_linker_10, # of connection points: 2
#     Edge 106, Type (0, 0), BuildingBlock: TEMPAE_clean_linker_10, # of connection points: 2
#     Edge 107, Type (0, 0), BuildingBlock: TEMPAE_clean_linker_10, # of connection points: 2
#     Edge 108, Type (0, 0), BuildingBlock: TEMPAE_clean_linker_10, # of connection points: 2
#     Edge 109, Type (0, 0), BuildingBlock: TEMPAE_clean_linker_10, # of connection points: 2
#     Edge 110, Type (0, 0), BuildingBlock: TEMPAE_clean_linker_10, # of connection points: 2
#     Edge 111, Type (0, 0), BuildingBlock: TEMPAE_clean_linker_10, # of connection points: 2
#     Edge 112, Type (0, 0), BuildingBlock: TEMPAE_clean_linker_10, # of connection points: 2
#     Edge 113, Type (0, 0), BuildingBlock: TEMPAE_clean_linker_10, # of connection points: 2
#     Edge 114, Type (0, 0), BuildingBlock: TEMPAE_clean_linker_10, # of connection points: 2
#     Edge 115, Type (0, 0), BuildingBlock: TEMPAE_clean_linker_10, # of connection points: 2
#     Edge 116, Type (0, 0), BuildingBlock: TEMPAE_clean_linker_10, # of connection points: 2
#     Edge 117, Type (0, 0), BuildingBlock: TEMPAE_clean_linker_10, # of connection points: 2
#     Edge 118, Type (0, 0), BuildingBlock: TEMPAE_clean_linker_10, # of connection points: 2
#     Edge 119, Type (0, 0), BuildingBlock: TEMPAE_clean_linker_10, # of connection points: 2
#     Edge 120, Type (0, 0), BuildingBlock: TEMPAE_clean_linker_10, # of connection points: 2
#     Edge 121, Type (0, 0), BuildingBlock: TEMPAE_clean_linker_10, # of connection points: 2
#     Edge 122, Type (0, 0), BuildingBlock: TEMPAE_clean_linker_10, # of connection points: 2
#     Edge 123, Type (0, 0), BuildingBlock: TEMPAE_clean_linker_10, # of connection points: 2
#     Edge 124, Type (0, 0), BuildingBlock: TEMPAE_clean_linker_10, # of connection points: 2
#     Edge 125, Type (0, 0), BuildingBlock: TEMPAE_clean_linker_10, # of connection points: 2
#     Edge 126, Type (0, 0), BuildingBlock: TEMPAE_clean_linker_10, # of connection points: 2
#     Edge 127, Type (0, 0), BuildingBlock: TEMPAE_clean_linker_10, # of connection points: 2
# Relax obj value: 0.682
# Max RMSD: 0.267
# Mean RMSD: 0.267
data_MOF--net-vcc--node1-GEDQOX_clean_sbu_0--edge1-TEMPAE_clean_linker_10
_symmetry_space_group_name_H-M    P1
_symmetry_Int_Tables_number       1
_symmetry_cell_setting            triclinic
loop_
_symmetry_equiv_pos_as_xyz
'x, y, z'
_cell_length_a     73.3174
_cell_length_b     58.139635
_cell_length_c     41.098311
_cell_angle_alpha  90.090114
_cell_angle_beta   90.055784
_cell_angle_gamma 90.054688
loop_
_atom_site_label
_atom_site_type_symbol
_atom_site_fract_x
_atom_site_fract_y
_atom_site_fract_z
_atom_type_partial_charge
Nd0 Nd 0.31427 0.98838 0.1972 0.0
Nd1 Nd 0.34063 -0.00278 0.2212 0.0
C2 C 0.2855 0.9757 0.16255 0.0
C3 C 0.27809 0.95859 0.13991 0.0
C4 C 0.2825 0.93513 0.1423 0.0
C5 C 0.27184 0.91863 1.12619 0.0
C6 C 0.25658 0.92542 1.10775 0.0
C7 C 0.25329 0.94916 1.10358 0.0
C8 C 0.26399 0.96549 1.11935 0.0
C9 C 0.31422 0.03669 0.21463 0.0
C10 C 0.3472 -0.00571 0.13841 0.0
C11 C 0.36536 0.01677 0.259 0.0
C12 C 0.36829 0.04044 0.27041 0.0
C13 C 0.36876 0.05898 0.24846 0.0
C14 C 0.37558 0.08028 0.25841 0.0
C15 C 0.38215 0.08312 0.29028 0.0
C16 C 0.37885 0.06564 0.31325 0.0
C17 C 0.37218 0.04433 0.30325 0.0
C18 C 0.34812 0.95076 0.20797 0.0
C19 C 0.30245 0.99062 0.27503 0.0
O20 O 0.28881 0.96868 0.19202 0.0
O21 O 0.29744 0.99052 0.15195 0.0
O22 O 0.30241 0.0215 0.22338 0.0
O23 O 0.3259 0.02618 0.19776 0.0
O24 O 0.33119 0.98415 0.14511 0.0
O25 O 0.35384 0.00398 0.16582 0.0
O26 O 0.36773 0.01311 0.22809 0.0
O27 O 0.35121 0.00601 0.2705 0.0
O28 O 0.35882 0.96793 0.20322 0.0
O29 O 0.33259 0.95834 0.21821 0.0
O30 O 0.31964 -0.00094 0.27115 0.0
O31 O 0.2968 0.98192 0.24686 0.0
H32 H 0.29346 0.9295 0.15809 0.0
H33 H 0.275 0.90061 1.12957 0.0
H34 H 0.24153 0.95536 1.0903 0.0
H35 H 0.26031 0.9835 1.11742 0.0
H36 H 0.36526 0.05657 0.22308 0.0
H37 H 0.37771 0.09358 0.24036 0.0
H38 H 0.38362 0.06727 0.33809 0.0
H39 H 0.37146 0.0304 0.32068 0.0
Nd40 Nd 0.94793 0.25094 0.19784 0.0
Nd41 Nd 0.92074 0.24216 0.22186 0.0
C42 C 0.97672 0.26381 0.16379 0.0
C43 C 0.98384 0.28054 0.14046 0.0
C44 C 0.97942 0.30402 0.14234 0.0
C45 C 0.9899 0.32025 1.1255 0.0
C46 C 1.00497 0.31313 1.10683 0.0
C47 C 0.00818 0.28934 1.10308 0.0
C48 C 0.99767 0.27328 1.1196 0.0
C49 C 0.94815 0.20302 0.2162 0.0
C50 C 0.91505 0.24543 0.13854 0.0
C51 C 0.89382 0.22507 0.25744 0.0
C52 C 0.88889 0.2048 0.27688 0.0
C53 C 0.89231 0.18229 0.26586 0.0
C54 C 0.88357 0.16354 0.2805 0.0
C55 C 0.87124 0.16707 0.30627 0.0
C56 C 0.86939 0.18956 0.31897 0.0
C57 C 0.87812 0.20813 0.30443 0.0
C58 C 0.91438 0.28872 0.20681 0.0
C59 C 0.95913 0.24829 0.27587 0.0
O60 O 0.97292 0.27152 0.19276 0.0
O61 O 0.96533 0.24815 0.15352 0.0
O62 O 0.96027 0.21815 0.22377 0.0
O63 O 0.9362 0.21325 0.19957 0.0
O64 O 0.93141 0.25465 0.1453 0.0
O65 O 0.90777 0.23658 0.16596 0.0
O66 O 0.8955 0.22187 0.2263 0.0
O67 O 0.90587 0.23934 0.26913 0.0
O68 O 0.90373 0.27169 0.20063 0.0
O69 O 0.9294 0.28077 0.21868 0.0
O70 O 0.94199 0.23954 0.27167 0.0
O71 O 0.9648 0.25739 0.24804 0.0
H72 H 0.96864 0.30991 0.1583 0.0
H73 H 0.98683 0.33833 1.12853 0.0
H74 H 0.01979 0.28293 1.0896 0.0
H75 H 1.00131 0.25524 1.11802 0.0
H76 H 0.90076 0.17932 0.24468 0.0
H77 H 0.8856 0.14656 0.27031 0.0
H78 H 0.85988 0.1934 0.33834 0.0
H79 H 0.87532 0.22534 0.31327 0.0
Nd80 Nd 0.31472 0.25192 0.3267 0.0
Nd81 Nd 0.34114 0.24369 0.30289 0.0
C82 C 0.28552 0.26446 0.36033 0.0
C83 C 0.27648 0.28262 0.37912 0.0
C84 C 0.27865 0.30601 0.37141 0.0
C85 C 0.26613 0.32228 0.383 0.0
C86 C 0.25118 0.3153 0.4021 0.0
C87 C 0.25018 0.29205 0.41183 0.0
C88 C 0.26274 0.27599 0.40061 0.0
C89 C 0.31495 0.20366 0.3094 0.0
C90 C 0.34724 0.24552 0.38608 0.0
C91 C 0.36612 0.22432 0.26543 0.0
C92 C 0.3704 0.20053 0.25607 0.0
C93 C 0.37199 0.18311 0.27964 0.0
C94 C 0.38043 0.16232 0.27178 0.0
C95 C 0.38736 0.15883 0.24033 0.0
C96 C 0.38312 0.17482 0.21579 0.0
C97 C 0.37487 0.19568 0.22372 0.0
C98 C 0.34864 0.29013 0.31632 0.0
C99 C 0.30303 0.24998 0.24892 0.0
O100 O 0.28783 0.26844 0.32952 0.0
O101 O 0.29891 0.25297 0.37332 0.0
O102 O 0.30299 0.21866 0.30086 0.0
O103 O 0.32667 0.2143 0.32612 0.0
O104 O 0.33049 0.25371 0.38006 0.0
O105 O 0.35481 0.23801 0.35811 0.0
O106 O 0.36881 0.22967 0.29574 0.0
O107 O 0.35116 0.2331 0.25389 0.0
O108 O 0.35939 0.27298 0.32046 0.0
O109 O 0.33296 0.28256 0.3064 0.0
O110 O 0.32036 0.24207 0.2527 0.0
O111 O 0.29723 0.25831 0.27714 0.0
H112 H 0.28926 0.31145 0.35478 0.0
H113 H 0.26762 0.34002 0.3755 0.0
H114 H 0.23881 0.28557 0.42588 0.0
H115 H 0.26076 0.258 0.40657 0.0
H116 H 0.36814 0.18624 0.30469 0.0
H117 H 0.3834 0.15018 0.29104 0.0
H118 H 0.38827 0.17263 0.19129 0.0
H119 H 0.37339 0.20872 0.20509 0.0
Nd120 Nd 0.94889 0.98856 0.32872 0.0
Nd121 Nd 0.92119 -0.004 0.30297 0.0
C122 C 0.9776 0.97478 0.36234 0.0
C123 C 0.98518 0.96028 0.38817 0.0
C124 C 0.97947 0.93746 0.39301 0.0
C125 C 0.98973 0.92269 0.41279 0.0
C126 C 1.00591 0.93053 0.42767 0.0
C127 C 0.01073 0.9539 0.42417 0.0
C128 C 1.00042 0.96856 0.40484 0.0
C129 C 0.9482 0.03593 0.30942 0.0
C130 C 0.91511 -0.00602 0.38696 0.0
C131 C 0.89343 0.01234 0.26888 0.0
C132 C 0.87386 0.01427 0.27494 0.0
C133 C 0.86261 0.02402 0.25126 0.0
C134 C 0.84404 0.02668 0.25726 0.0
C135 C 0.83646 0.01963 0.28709 0.0
C136 C 0.84783 0.01009 0.31098 0.0
C137 C 0.86644 0.00734 0.30487 0.0
C138 C 0.91535 0.9504 0.32073 0.0
C139 C 0.96023 -0.00919 0.24997 0.0
O140 O 0.97168 0.9645 0.33613 0.0
O141 O 0.96812 -0.00708 0.37033 0.0
O142 O 0.96065 0.02117 0.30199 0.0
O143 O 0.93628 0.02538 0.32587 0.0
O144 O 0.9327 0.98863 0.38185 0.0
O145 O 0.90686 -0.00109 0.35834 0.0
O146 O 0.8998 -0.0084 0.26513 0.0
O147 O 0.90365 0.02494 0.28769 0.0
O148 O 0.90473 0.96747 0.32733 0.0
O149 O 0.93035 0.9582 0.30822 0.0
O150 O 0.94194 -0.00502 0.25251 0.0
O151 O 0.9671 0.98649 0.27928 0.0
H152 H 0.96765 0.93077 0.38029 0.0
H153 H 0.98543 0.90496 0.41525 0.0
H154 H 0.02324 0.9607 0.43435 0.0
H155 H 1.00512 0.98605 0.40114 0.0
H156 H 0.86821 0.02967 0.22822 0.0
H157 H 0.83557 0.03438 0.23861 0.0
H158 H 0.84229 0.00443 0.33405 0.0
H159 H 0.87505 -0.00011 0.32349 0.0
Nd160 Nd 0.66954 -0.00686 1.05163 0.0
Nd161 Nd 0.69726 0.00129 1.07793 0.0
C162 C 0.64284 0.97722 1.01432 0.0
C163 C 0.63831 0.9604 0.98886 0.0
C164 C 0.64445 0.93753 0.99014 0.0
C165 C 0.63668 0.92077 0.9699 0.0
C166 C 0.62265 0.92671 0.94811 0.0
C167 C 0.61775 0.9501 0.94524 0.0
C168 C 0.62551 0.9667 0.96536 0.0
C169 C 0.66329 0.03898 1.06878 0.0
C170 C 0.70912 -0.00114 0.99969 0.0
C171 C 0.72269 0.01522 1.11891 0.0
C172 C 0.72221 0.02236 0.15348 0.0
C173 C 0.71867 0.04525 0.16265 0.0
C174 C 0.71945 0.0518 0.19544 0.0
C175 C 0.72391 0.03562 0.21964 0.0
C176 C 0.72607 0.01244 0.21038 0.0
C177 C 0.72537 0.00597 0.17783 0.0
C178 C 0.6971 0.95405 1.05837 0.0
C179 C 0.6634 -0.00548 0.13551 0.0
O180 O 0.64672 0.96916 1.04302 0.0
O181 O 0.65275 -0.00504 1.00642 0.0
O182 O 0.65265 0.02182 1.07433 0.0
O183 O 0.67853 0.03127 1.05715 0.0
O184 O 0.69121 -0.00753 1.00239 0.0
O185 O 0.71543 0.00553 1.02866 0.0
O186 O 0.71522 0.02892 1.09752 0.0
O187 O 0.71908 -0.00637 1.11324 0.0
O188 O 0.70983 0.96881 1.05203 0.0
O189 O 0.68481 0.96435 1.07429 0.0
O190 O 0.68059 0.0013 1.13026 0.0
O191 O 0.65546 0.98846 1.10703 0.0
H192 H 0.65446 0.93239 1.00796 0.0
H193 H 0.64096 0.90305 0.97256 0.0
H194 H 0.60678 0.95553 0.92938 0.0
H195 H 0.62057 0.98424 0.96404 0.0
H196 H 0.71589 0.05825 0.14447 0.0
H197 H 0.7175 0.06973 0.20164 0.0
H198 H 0.72979 -0.00063 0.22789 0.0
H199 H 0.72801 0.98815 0.1717 0.0
Nd200 Nd 0.09232 0.74649 1.0491 0.0
Nd201 Nd 0.06632 0.74016 1.07732 0.0
C202 C 0.11932 0.76456 1.01548 0.0
C203 C 0.12378 0.78126 0.9899 0.0
C204 C 0.11798 0.80431 0.99163 0.0
C205 C 0.12606 0.82099 0.97176 0.0
C206 C 0.13998 0.81486 0.9499 0.0
C207 C 0.14444 0.79137 0.94645 0.0
C208 C 0.13642 0.77482 0.96622 0.0
C209 C 0.10019 0.70152 1.06888 0.0
C210 C 0.05391 0.74173 0.99764 0.0
C211 C 0.03501 0.72713 1.1035 0.0
C212 C 0.02608 0.70962 1.1236 0.0
C213 C 0.0299 0.68604 1.12006 0.0
C214 C 0.01851 0.66961 1.13452 0.0
C215 C 1.00319 0.67658 0.1526 0.0
C216 C 1.00029 0.70031 0.15761 0.0
C217 C 0.01164 0.71658 0.14336 0.0
C218 C 0.06948 0.78836 1.06253 0.0
C219 C 0.09854 0.74569 1.13394 0.0
O220 O 0.11345 0.77292 1.0431 0.0
O221 O 0.11146 0.7452 1.00708 0.0
O222 O 0.11079 0.71905 1.07089 0.0
O223 O 0.08431 0.70838 1.05919 0.0
O224 O 0.07247 0.74222 0.99862 0.0
O225 O 0.04734 0.7412 1.02794 0.0
O226 O 0.0406 0.72066 1.07484 0.0
O227 O 0.04598 0.74175 1.1176 0.0
O228 O 0.06986 0.78015 1.09193 0.0
O229 O 0.06952 0.77144 1.04398 0.0
O230 O 0.08304 0.73449 1.1282 0.0
O231 O 0.10408 0.75587 1.10589 0.0
H232 H 0.10807 0.80969 1.00962 0.0
H233 H 0.12217 0.83878 0.97487 0.0
H234 H 0.15531 0.78578 0.9305 0.0
H235 H 0.14112 0.75719 0.9646 0.0
H236 H 0.04109 0.68034 1.10488 0.0
H237 H 0.02126 0.65154 1.13043 0.0
H238 H 0.98845 0.70655 0.17064 0.0
H239 H 0.00841 0.73467 0.14613 0.0
Nd240 Nd 0.6716 0.74417 0.97601 0.0
Nd241 Nd 0.69811 0.74046 0.94498 0.0
C242 C 0.64139 0.76304 0.99858 0.0
C243 C 0.63493 0.78029 1.02205 0.0
C244 C 0.6412 0.8032 1.02184 0.0
C245 C 0.63279 0.81977 1.04156 0.0
C246 C 0.61814 0.81361 1.06182 0.0
C247 C 0.61264 0.79038 1.06285 0.0
C248 C 0.62095 0.77398 1.04326 0.0
C249 C 0.67033 0.69694 0.96828 0.0
C250 C 0.71005 0.74182 1.02641 0.0
C251 C 0.72974 0.72624 0.92209 0.0
C252 C 0.73942 0.71039 0.90032 0.0
C253 C 0.73499 0.68687 0.89863 0.0
C254 C 0.74689 0.67138 0.88342 0.0
C255 C 0.76333 0.67924 0.86976 0.0
C256 C 0.76704 0.70304 0.87002 0.0
C257 C 0.75518 0.71839 0.88501 0.0
C258 C 0.69398 0.78759 0.96326 0.0
C259 C 0.66542 0.74347 0.88892 0.0
O260 O 0.65001 0.77052 0.97291 0.0
O261 O 0.6482 0.74404 1.01028 0.0
O262 O 0.66875 0.7076 0.99581 0.0
O263 O 0.67533 0.71123 0.94597 0.0
O264 O 0.69172 0.74496 1.02592 0.0
O265 O 0.71617 0.73855 0.996 0.0
O266 O 0.72164 0.7172 0.94733 0.0
O267 O 0.721 0.74374 0.90958 0.0
O268 O 0.69501 0.78048 0.93327 0.0
O269 O 0.69382 0.77014 0.9811 0.0
O270 O 0.68311 0.73897 0.89217 0.0
O271 O 0.65789 0.74747 0.91876 0.0
H272 H 0.65209 0.80846 1.00569 0.0
H273 H 0.63734 0.83746 1.04015 0.0
H274 H 0.60108 0.78493 1.07732 0.0
H275 H 0.61584 0.75647 1.04361 0.0
H276 H 0.72284 0.68032 0.91038 0.0
H277 H 0.74354 0.65324 0.88337 0.0
H278 H 0.77971 0.7098 0.86048 0.0
H279 H 0.75893 0.73641 0.88641 0.0
Nd280 Nd 0.09297 -0.00756 0.97327 0.0
Nd281 Nd 0.06546 0.00197 0.94808 0.0
C282 C 0.11977 0.97585 1.0096 0.0
C283 C 0.12441 0.95843 1.03409 0.0
C284 C 0.11887 0.93538 1.031 0.0
C285 C 0.12674 0.91832 1.05048 0.0
C286 C 0.14035 0.9241 1.07323 0.0
C287 C 0.14467 0.94757 1.07782 0.0
C288 C 0.13675 0.96447 1.05851 0.0
C289 C 0.10008 0.03839 0.95656 0.0
C290 C 0.05433 -0.00159 1.0265 0.0
C291 C 0.03767 0.01737 0.91332 0.0
C292 C 0.03271 0.03604 0.89094 0.0
C293 C 0.03654 0.0592 0.89832 0.0
C294 C 0.02812 0.07685 0.88077 0.0
C295 C 0.01584 0.07157 0.85555 0.0
C296 C 0.01342 0.04836 0.84653 0.0
C297 C 0.02175 0.03081 0.8641 0.0
C298 C 0.06461 0.95413 0.96605 0.0
C299 C 0.0989 -0.0046 0.88972 0.0
O300 O 0.11593 0.96851 0.98044 0.0
O301 O 0.10977 -0.00673 1.01853 0.0
O302 O 0.11041 0.02093 0.95111 0.0
O303 O 0.08479 0.03115 0.96835 0.0
O304 O 0.07146 0.98966 1.02245 0.0
O305 O 0.04872 0.00773 0.99869 0.0
O306 O 0.0408 0.02323 0.94341 0.0
O307 O 0.04865 0.00136 0.90279 0.0
O308 O 0.05216 0.96913 0.97232 0.0
O309 O 0.07696 0.96434 0.95037 0.0
O310 O 0.08236 0.00431 0.89581 0.0
O311 O 0.10624 0.98711 0.91752 0.0
H312 H 0.10927 0.93039 1.01236 0.0
H313 H 0.12289 0.90056 1.04648 0.0
H314 H 0.15531 0.95295 1.09444 0.0
H315 H 0.14126 0.98214 1.0612 0.0
H316 H 0.04516 0.06366 0.91881 0.0
H317 H 0.03038 0.09453 0.88812 0.0
H318 H 1.00385 0.04351 0.82764 0.0
H319 H 0.01862 0.01308 0.85806 0.0
Nd320 Nd 0.31677 0.48945 0.69675 0.0
Nd321 Nd 0.34438 0.49862 0.72188 0.0
C322 C 0.28927 0.47352 0.66168 0.0
C323 C 0.28512 0.45691 0.63573 0.0
C324 C 0.29091 0.43387 0.6373 0.0
C325 C 0.28366 0.4175 0.61585 0.0
C326 C 0.27056 0.42397 0.59259 0.0
C327 C 0.2661 0.44748 0.58955 0.0
C328 C 0.2733 0.46371 0.61089 0.0
C329 C 0.31603 0.53709 0.71504 0.0
C330 C 0.35038 0.49558 0.63827 0.0
C331 C 0.37114 0.51569 0.75782 0.0
C332 C 0.37537 0.53313 0.78258 0.0
C333 C 0.36986 0.55618 0.7793 0.0
C334 C 0.37748 0.5732 0.79928 0.0
C335 C 0.39069 0.56743 0.82275 0.0
C336 C 0.39488 0.54397 0.82745 0.0
C337 C 0.38729 0.52709 0.80763 0.0
C338 C 0.35091 0.45256 0.70548 0.0
C339 C 0.30557 0.4932 0.77522 0.0
O340 O 0.29402 0.46513 0.68985 0.0
O341 O 0.29837 0.49198 0.6538 0.0
O342 O 0.30368 0.522 0.7218 0.0
O343 O 0.32839 0.52697 0.69918 0.0
O344 O 0.33305 0.48917 0.64373 0.0
O345 O 0.35851 0.50157 0.66656 0.0
O346 O 0.36702 0.52308 0.72884 0.0
O347 O 0.36159 0.49781 0.76658 0.0
O348 O 0.36138 0.46976 0.69918 0.0
O349 O 0.33589 0.46023 0.7178 0.0
O350 O 0.32305 0.50097 0.77147 0.0
O351 O 0.29953 0.48486 0.74702 0.0
H352 H 0.30025 0.42829 0.65612 0.0
H353 H 0.28754 0.39965 0.61865 0.0
H354 H 0.25584 0.45326 0.57247 0.0
H355 H 0.26869 0.48138 0.60928 0.0
H356 H 0.3605 0.56122 0.7602 0.0
H357 H 0.37379 0.59093 0.79509 0.0
H358 H 0.40523 0.53857 0.8446 0.0
H359 H 0.39174 0.50943 0.81046 0.0
Nd360 Nd 0.94804 0.75212 0.69663 0.0
Nd361 Nd 0.92047 0.74253 0.72173 0.0
C362 C 0.97438 0.76822 0.65911 0.0
C363 C 0.97673 0.7732 0.62435 0.0
C364 C 0.96379 0.78566 0.60617 0.0
C365 C 0.96652 0.78948 0.57283 0.0
C366 C 0.98201 0.78046 0.55732 0.0
C367 C 0.99475 0.76791 0.57581 0.0
C368 C 0.99215 0.76439 0.60886 0.0
C369 C 0.94874 0.70458 0.71461 0.0
C370 C 0.91486 0.74429 0.63792 0.0
C371 C 0.89438 0.72379 0.75744 0.0
C372 C 0.89122 0.70497 0.78066 0.0
C373 C 0.89487 0.6819 0.77263 0.0
C374 C 0.88825 0.66409 0.7922 0.0
C375 C 0.87786 0.66902 0.82014 0.0
C376 C 0.87566 0.6923 0.82926 0.0
C377 C 0.88225 0.70998 0.80975 0.0
C378 C 0.9133 0.78866 0.70713 0.0
C379 C 0.95928 0.74921 0.77494 0.0
O380 O 0.96346 0.78146 0.67575 0.0
O381 O 0.9726 0.74656 0.66643 0.0
O382 O 0.96087 0.7198 0.72245 0.0
O383 O 0.93651 0.71466 0.69825 0.0
O384 O 0.93243 0.74939 0.64328 0.0
O385 O 0.90631 0.73997 0.66634 0.0
O386 O 0.89779 0.718 0.72746 0.0
O387 O 0.90395 0.74142 0.76721 0.0
O388 O 0.90292 0.77133 0.70095 0.0
O389 O 0.92865 0.78107 0.71853 0.0
O390 O 0.94201 0.74074 0.77112 0.0
O391 O 0.96508 0.75801 0.74689 0.0
H392 H 0.95164 0.79246 0.61768 0.0
H393 H 0.95662 0.79941 0.55924 0.0
H394 H 0.00714 0.76129 0.56491 0.0
H395 H 1.00227 0.75475 0.62242 0.0
H396 H 0.9019 0.67756 0.75031 0.0
H397 H 0.89038 0.64656 0.78428 0.0
H398 H 0.86746 0.69721 0.85001 0.0
H399 H 0.87924 0.72763 0.81637 0.0
Nd400 Nd 0.31471 0.75198 0.82623 0.0
Nd401 Nd 0.34243 0.74375 0.80157 0.0
C402 C 0.28588 0.76593 0.85948 0.0
C403 C 0.2785 0.7827 0.88267 0.0
C404 C 0.2827 0.80626 0.88067 0.0
C405 C 0.27193 0.82244 0.89706 0.0
C406 C 0.25676 0.81524 0.91542 0.0
C407 C 0.25374 0.79142 0.91932 0.0
C408 C 0.26454 0.7754 0.90324 0.0
C409 C 0.31479 0.70436 0.80732 0.0
C410 C 0.34813 0.74642 0.88522 0.0
C411 C 0.36946 0.72747 0.76571 0.0
C412 C 0.37372 0.70964 0.74155 0.0
C413 C 0.36834 0.68661 0.74575 0.0
C414 C 0.37593 0.66928 0.72636 0.0
C415 C 0.38898 0.67473 0.70248 0.0
C416 C 0.39304 0.69814 0.69684 0.0
C417 C 0.38548 0.71533 0.71613 0.0
C418 C 0.3483 0.78984 0.81858 0.0
C419 C 0.30395 0.74907 0.74761 0.0
O420 O 0.29031 0.77366 0.83083 0.0
O421 O 0.29675 0.74982 0.87001 0.0
O422 O 0.30234 0.7192 0.80039 0.0
O423 O 0.32687 0.71472 0.82358 0.0
O424 O 0.33077 0.75268 0.87957 0.0
O425 O 0.35636 0.74061 0.85702 0.0
O426 O 0.36582 0.72047 0.79506 0.0
O427 O 0.35938 0.74476 0.75658 0.0
O428 O 0.359 0.77288 0.82472 0.0
O429 O 0.33341 0.78193 0.80604 0.0
O430 O 0.32138 0.74127 0.75159 0.0
O431 O 0.29783 0.75729 0.77574 0.0
H432 H 0.29355 0.81223 0.86492 0.0
H433 H 0.27488 0.84055 0.89392 0.0
H434 H 0.24207 0.78493 0.93256 0.0
H435 H 0.26103 0.75732 0.90489 0.0
H436 H 0.3591 0.68185 0.76516 0.0
H437 H 0.37236 0.65161 0.73135 0.0
H438 H 0.40326 0.70332 0.67934 0.0
H439 H 0.38982 0.73297 0.71258 0.0
Nd440 Nd 0.94823 0.48962 0.82483 0.0
Nd441 Nd 0.92088 0.49774 0.80059 0.0
C442 C 0.97624 0.4746 0.85931 0.0
C443 C 0.98134 0.45499 0.87979 0.0
C444 C 0.97789 0.43219 0.86999 0.0
C445 C 0.98653 0.4139 0.88582 0.0
C446 C 0.9986 0.41822 0.91168 0.0
C447 C 1.0005 0.44098 0.9232 0.0
C448 C 0.99197 0.45914 0.90735 0.0
C449 C 0.94845 0.53741 0.80693 0.0
C450 C 0.91514 0.49516 0.88421 0.0
C451 C 0.8937 0.51398 0.76495 0.0
C452 C 0.88896 0.53192 0.7413 0.0
C453 C 0.89404 0.55505 0.74581 0.0
C454 C 0.88597 0.57235 0.72701 0.0
C455 C 0.87273 0.56677 0.70344 0.0
C456 C 0.8689 0.54332 0.69756 0.0
C457 C 0.87695 0.52617 0.71622 0.0
C458 C 0.91497 0.45142 0.81684 0.0
C459 C 0.95943 0.49268 0.7467 0.0
O460 O 0.9739 0.47025 0.82852 0.0
O461 O 0.96442 0.48923 0.87081 0.0
O462 O 0.9609 0.52255 0.80009 0.0
O463 O 0.93625 0.52703 0.82279 0.0
O464 O 0.93249 0.48903 0.87842 0.0
O465 O 0.90686 0.50086 0.85601 0.0
O466 O 0.8973 0.52076 0.79445 0.0
O467 O 0.90403 0.49705 0.75536 0.0
O468 O 0.90433 0.46838 0.82337 0.0
O469 O 0.92981 0.45945 0.80435 0.0
O470 O 0.94201 0.5005 0.75069 0.0
O471 O 0.96543 0.48427 0.77477 0.0
H472 H 0.96947 0.42859 0.84891 0.0
H473 H 0.98465 0.3966 0.87657 0.0
H474 H 0.00989 0.44518 0.94268 0.0
H475 H 0.99475 0.47659 0.91526 0.0
H476 H 0.90345 0.55987 0.76499 0.0
H477 H 0.88938 0.59008 0.73211 0.0
H478 H 0.85854 0.53804 0.68032 0.0
H479 H 0.87281 0.50845 0.71247 0.0
Nd480 Nd 0.67127 0.49343 0.55112 0.0
Nd481 Nd 0.69857 0.50197 0.57578 0.0
C482 C 0.64459 0.4761 0.51507 0.0
C483 C 0.64021 0.45649 0.49385 0.0
C484 C 0.6442 0.43372 0.50296 0.0
C485 C 0.63599 0.41527 0.48661 0.0
C486 C 0.62366 0.41934 0.46099 0.0
C487 C 0.62126 0.44219 0.45017 0.0
C488 C 0.62945 0.46049 0.46644 0.0
C489 C 0.66448 0.53951 0.56729 0.0
C490 C 0.71007 0.49856 0.49744 0.0
C491 C 0.72724 0.51645 0.609 0.0
C492 C 0.73461 0.53317 0.63233 0.0
C493 C 0.7304 0.55673 0.63046 0.0
C494 C 0.74119 0.57291 0.64693 0.0
C495 C 0.75637 0.56572 0.66525 0.0
C496 C 0.75945 0.5419 0.66894 0.0
C497 C 0.74864 0.52588 0.6528 0.0
C498 C 0.69864 0.45414 0.55734 0.0
C499 C 0.66548 0.49604 0.63471 0.0
O500 O 0.64688 0.47162 0.54576 0.0
O501 O 0.65583 0.49168 0.5043 0.0
O502 O 0.65391 0.52229 0.57277 0.0
O503 O 0.67972 0.53196 0.55562 0.0
O504 O 0.69211 0.49263 0.50062 0.0
O505 O 0.71659 0.50491 0.52626 0.0
O506 O 0.72258 0.52432 0.58051 0.0
O507 O 0.71668 0.49994 0.61944 0.0
O508 O 0.71089 0.46913 0.54995 0.0
O509 O 0.68665 0.4645 0.57371 0.0
O510 O 0.68228 0.50417 0.62869 0.0
O511 O 0.65785 0.48842 0.60677 0.0
H512 H 0.65266 0.43023 0.52398 0.0
H513 H 0.6384 0.39801 0.49543 0.0
H514 H 0.61172 0.44639 0.43099 0.0
H515 H 0.62622 0.47791 0.45904 0.0
H516 H 0.71952 0.56271 0.61477 0.0
H517 H 0.7382 0.59101 0.64392 0.0
H518 H 0.77115 0.53542 0.68213 0.0
H519 H 0.75218 0.50781 0.65431 0.0
Nd520 Nd 0.09351 0.2458 0.55044 0.0
Nd521 Nd 0.06597 0.23933 0.57608 0.0
C522 C 0.12047 0.25967 0.51229 0.0
C523 C 0.12411 0.27453 0.48421 0.0
C524 C 0.11555 0.29598 0.48028 0.0
C525 C 0.12153 0.31121 0.45615 0.0
C526 C 0.13604 0.30507 0.4355 0.0
C527 C 0.14357 0.28283 0.43835 0.0
C528 C 0.13766 0.2678 0.46241 0.0
C529 C 0.09873 0.20012 0.56897 0.0
C530 C 0.05419 0.2413 0.49795 0.0
C531 C 0.03706 0.22757 0.61055 0.0
C532 C 0.02896 0.21129 0.63353 0.0
C533 C 0.03274 0.18762 0.63197 0.0
C534 C 0.021 0.17182 0.64689 0.0
C535 C 1.00527 0.17954 0.66321 0.0
C536 C 1.00272 0.20345 0.66713 0.0
C537 C 0.0145 0.21909 0.65258 0.0
C538 C 0.06733 0.28678 0.55627 0.0
C539 C 0.09952 0.24403 0.63432 0.0
O540 O 0.11611 0.26975 0.5395 0.0
O541 O 0.1112 0.24093 0.50703 0.0
O542 O 0.10966 0.21698 0.5748 0.0
O543 O 0.08376 0.2081 0.55664 0.0
O544 O 0.07225 0.24675 0.50062 0.0
O545 O 0.04772 0.23557 0.52699 0.0
O546 O 0.04063 0.21965 0.58157 0.0
O547 O 0.04896 0.24261 0.62096 0.0
O548 O 0.05427 0.27253 0.55043 0.0
O549 O 0.0793 0.27598 0.57212 0.0
O550 O 0.08247 0.23668 0.62864 0.0
O551 O 0.10732 0.25085 0.60608 0.0
H552 H 0.10482 0.3013 0.49664 0.0
H553 H 0.11537 0.32808 0.45458 0.0
H554 H 0.15504 0.27746 0.42362 0.0
H555 H 0.14439 0.25131 0.46506 0.0
H556 H 0.04397 0.18129 0.61737 0.0
H557 H 0.02365 0.15362 0.64393 0.0
H558 H 0.99072 0.21036 0.6789 0.0
H559 H 0.01133 0.23728 0.65385 0.0
Nd560 Nd 0.6736 0.24391 0.46971 0.0
Nd561 Nd 0.70031 0.23935 0.44454 0.0
C562 C 0.64578 0.25168 0.50873 0.0
C563 C 0.62851 0.2392 0.51169 0.0
C564 C 0.62292 0.23166 0.54242 0.0
C565 C 0.60763 0.21761 0.54549 0.0
C566 C 0.59752 0.21111 0.51785 0.0
C567 C 0.60342 0.21821 0.48696 0.0
C568 C 0.61885 0.23207 0.48388 0.0
C569 C 0.66843 0.19838 0.45076 0.0
C570 C 0.71268 0.24047 0.52252 0.0
C571 C 0.72914 0.22874 0.40893 0.0
C572 C 0.73626 0.21385 0.38316 0.0
C573 C 0.72985 0.19129 0.37852 0.0
C574 C 0.7396 0.17595 0.35879 0.0
C575 C 0.75593 0.18297 0.34371 0.0
C576 C 0.76142 0.20613 0.34692 0.0
C577 C 0.75164 0.22136 0.36628 0.0
C578 C 0.69852 0.28637 0.46622 0.0
C579 C 0.6666 0.24379 0.38623 0.0
O580 O 0.65997 0.23975 0.51727 0.0
O581 O 0.64846 0.26337 0.48208 0.0
O582 O 0.65755 0.21518 0.44491 0.0
O583 O 0.6835 0.20652 0.46262 0.0
O584 O 0.69445 0.2447 0.51998 0.0
O585 O 0.71931 0.23615 0.49307 0.0
O586 O 0.72511 0.21883 0.43643 0.0
O587 O 0.71785 0.24514 0.401 0.0
O588 O 0.71144 0.272 0.47232 0.0
O589 O 0.68661 0.27577 0.44979 0.0
O590 O 0.68433 0.23932 0.39116 0.0
O591 O 0.65836 0.24764 0.41515 0.0
H592 H 0.63054 0.23641 0.56403 0.0
H593 H 0.60351 0.21214 0.56957 0.0
H594 H 0.59578 0.2137 0.46529 0.0
H595 H 0.62323 0.23715 0.45977 0.0
H596 H 0.7179 0.18524 0.39143 0.0
H597 H 0.73481 0.1584 0.35655 0.0
H598 H 0.77407 0.21228 0.33652 0.0
H599 H 0.75683 0.23865 0.36981 0.0
Nd600 Nd 0.09302 0.49798 0.47433 0.0
Nd601 Nd 0.06702 0.50031 0.44337 0.0
C602 C 0.12382 0.47946 0.49486 0.0
C603 C 0.13273 0.46237 0.51578 0.0
C604 C 0.12834 0.4388 0.51446 0.0
C605 C 0.1396 0.42261 0.52978 0.0
C606 C 0.15538 0.4298 0.54652 0.0
C607 C 0.159 0.45356 0.54899 0.0
C608 C 0.14777 0.46958 0.53396 0.0
C609 C 0.09435 0.54493 0.46614 0.0
C610 C 0.05436 0.50011 0.52426 0.0
C611 C 0.03777 0.51518 0.413 0.0
C612 C 0.03565 0.52707 0.38145 0.0
C613 C 0.03484 0.55121 0.37986 0.0
C614 C 0.03271 0.5623 0.34992 0.0
C615 C 0.03123 0.54944 0.32104 0.0
C616 C 0.03285 0.52536 0.32264 0.0
C617 C 0.03497 0.51433 0.35242 0.0
C618 C 0.07151 0.45358 0.46263 0.0
C619 C 0.09916 0.49704 0.38701 0.0
O620 O 0.11469 0.47195 0.4697 0.0
O621 O 0.11664 0.49768 0.50838 0.0
O622 O 0.09573 0.5346 0.49396 0.0
O623 O 0.08939 0.5304 0.4439 0.0
O624 O 0.0728 0.49795 0.52413 0.0
O625 O 0.04825 0.50224 0.49359 0.0
O626 O 0.04569 0.52685 0.43633 0.0
O627 O 0.04322 0.4938 0.41169 0.0
O628 O 0.07099 0.46037 0.43247 0.0
O629 O 0.07125 0.47123 0.48026 0.0
O630 O 0.08119 0.49747 0.39023 0.0
O631 O 0.10711 0.4971 0.41706 0.0
H632 H 0.11672 0.43283 0.5005 0.0
H633 H 0.13631 0.40451 0.52758 0.0
H634 H 0.17121 0.45994 0.56077 0.0
H635 H 0.15152 0.48761 0.53492 0.0
H636 H 0.03551 0.56153 0.4018 0.0
H637 H 0.03147 0.58086 0.34951 0.0
H638 H 0.03129 0.51478 0.30109 0.0
H639 H 0.03563 0.49572 0.35266 0.0
Nd640 Nd 0.81466 0.98883 0.69716 0.0
Nd641 Nd 0.84202 -0.0058 0.72507 0.0
C642 C 0.78533 0.97611 0.66448 0.0
C643 C 0.77739 0.96167 0.63885 0.0
C644 C 0.78305 0.93887 0.6337 0.0
C645 C 0.77238 0.92393 0.61479 0.0
C646 C 0.75587 0.9316 0.60106 0.0
C647 C 0.75109 0.95497 0.6047 0.0
C648 C 0.76179 0.9698 0.6232 0.0
C649 C 0.81549 0.03559 0.71986 0.0
C650 C 0.84808 -0.00709 0.63992 0.0
C651 C 0.87254 0.01026 0.75143 0.0
C652 C 0.88005 0.03217 0.76371 0.0
C653 C 0.87546 0.0406 0.79477 0.0
C654 C 0.88515 0.05901 0.80829 0.0
C655 C 0.89944 0.06929 0.79086 0.0
C656 C 0.90311 0.06191 0.75905 0.0
C657 C 0.89349 0.04355 0.74556 0.0
C658 C 0.84213 0.94609 0.72125 0.0
C659 C 0.8039 0.99055 0.77685 0.0
O660 O 0.79131 0.9656 0.69045 0.0
O661 O 0.79502 -0.00592 0.65633 0.0
O662 O 0.80232 0.02122 0.72418 0.0
O663 O 0.82782 0.02515 0.70445 0.0
O664 O 0.82994 -0.00728 0.64399 0.0
O665 O 0.85659 -0.00731 0.66929 0.0
O666 O 0.86993 0.00857 0.72024 0.0
O667 O 0.85958 0.00057 0.7681 0.0
O668 O 0.84368 0.95784 0.74777 0.0
O669 O 0.83737 0.95985 0.69842 0.0
O670 O 0.8206 0.0003 0.77303 0.0
O671 O 0.79917 0.98031 0.74897 0.0
H672 H 0.79514 0.93229 0.64566 0.0
H673 H 0.77665 0.90621 0.61216 0.0
H674 H 0.73835 0.96162 0.59534 0.0
H675 H 0.75712 0.98726 0.62719 0.0
H676 H 0.86516 0.03218 0.80941 0.0
H677 H 0.88241 0.06412 0.83317 0.0
H678 H 0.91465 0.06873 0.74585 0.0
H679 H 0.89744 0.0373 0.72174 0.0
Nd680 Nd 0.44659 0.25001 0.69686 0.0
Nd681 Nd 0.41998 0.24503 0.72244 0.0
C682 C 0.47183 0.25776 0.65263 0.0
C683 C 0.47485 0.24386 0.62335 0.0
C684 C 0.48503 0.25244 0.59741 0.0
C685 C 0.48874 0.23838 0.57067 0.0
C686 C 0.48237 0.21543 0.56953 0.0
C687 C 0.47101 0.20757 0.59463 0.0
C688 C 0.46734 0.22164 0.62136 0.0
C689 C 0.44493 0.20292 0.71652 0.0
C690 C 0.41271 0.24425 0.63933 0.0
C691 C 0.39337 0.23057 0.76088 0.0
C692 C 0.38969 0.21213 0.78433 0.0
C693 C 0.39553 0.18942 0.77882 0.0
C694 C 0.38881 0.17144 0.798 0.0
C695 C 0.37626 0.17593 0.82307 0.0
C696 C 0.37165 0.19904 0.82981 0.0
C697 C 0.3783 0.21688 0.81065 0.0
C698 C 0.41565 0.29117 0.70586 0.0
C699 C 0.45962 0.2505 0.77371 0.0
O700 O 0.45645 0.26893 0.65333 0.0
O701 O 0.47521 0.24733 0.67998 0.0
O702 O 0.45784 0.21721 0.72319 0.0
O703 O 0.43292 0.2137 0.70047 0.0
O704 O 0.43073 0.2451 0.64403 0.0
O705 O 0.40417 0.24392 0.66834 0.0
O706 O 0.39529 0.22425 0.73072 0.0
O707 O 0.40479 0.24667 0.7694 0.0
O708 O 0.40432 0.27482 0.6998 0.0
O709 O 0.4305 0.28245 0.71769 0.0
O710 O 0.44175 0.24403 0.77145 0.0
O711 O 0.46549 0.25709 0.74452 0.0
H712 H 0.49066 0.26967 0.59837 0.0
H713 H 0.4977 0.24509 0.55203 0.0
H714 H 0.46571 0.19018 0.59442 0.0
H715 H 0.45914 0.21485 0.64106 0.0
H716 H 0.40448 0.18542 0.75865 0.0
H717 H 0.39272 0.15402 0.7921 0.0
H718 H 0.36172 0.20343 0.84827 0.0
H719 H 0.37362 0.23427 0.8152 0.0
Nd720 Nd 0.81681 0.25219 0.82557 0.0
Nd721 Nd 0.84418 0.24296 0.80134 0.0
C722 C 0.7889 0.26754 0.86006 0.0
C723 C 0.78397 0.28598 0.88288 0.0
C724 C 0.78853 0.3091 0.87686 0.0
C725 C 0.7803 0.32673 0.89485 0.0
C726 C 0.76747 0.32143 0.91912 0.0
C727 C 0.76428 0.29811 0.92675 0.0
C728 C 0.77244 0.28063 0.90879 0.0
C729 C 0.81613 0.20413 0.80829 0.0
C730 C 0.85003 0.24596 0.88464 0.0
C731 C 0.8709 0.22674 0.76467 0.0
C732 C 0.87453 0.21017 0.73849 0.0
C733 C 0.86841 0.18726 0.7399 0.0
C734 C 0.87518 0.17094 0.71791 0.0
C735 C 0.88814 0.17731 0.69434 0.0
C736 C 0.89285 0.20076 0.69151 0.0
C737 C 0.88611 0.21694 0.71333 0.0
C738 C 0.85062 0.28925 0.81755 0.0
C739 C 0.80583 0.24846 0.74726 0.0
O740 O 0.79227 0.27372 0.83022 0.0
O741 O 0.79969 0.25128 0.87038 0.0
O742 O 0.80392 0.21918 0.80088 0.0
O743 O 0.82834 0.21449 0.82419 0.0
O744 O 0.83346 0.25472 0.87823 0.0
O745 O 0.85755 0.23781 0.85695 0.0
O746 O 0.8667 0.21846 0.79311 0.0
O747 O 0.86166 0.24511 0.75724 0.0
O748 O 0.86095 0.27207 0.82466 0.0
O749 O 0.83576 0.28147 0.80478 0.0
O750 O 0.82298 0.23987 0.75166 0.0
O751 O 0.80002 0.25767 0.77499 0.0
H752 H 0.79761 0.31362 0.85709 0.0
H753 H 0.78321 0.34444 0.88859 0.0
H754 H 0.75427 0.29318 0.94479 0.0
H755 H 0.76876 0.26292 0.91378 0.0
H756 H 0.85921 0.18171 0.75895 0.0
H757 H 0.87109 0.15318 0.7206 0.0
H758 H 0.90301 0.20656 0.67428 0.0
H759 H 0.89094 0.23454 0.71182 0.0
Nd760 Nd 0.44736 0.98824 0.82732 0.0
Nd761 Nd 0.42001 -0.00293 0.80248 0.0
C762 C 0.4761 0.97491 0.86131 0.0
C763 C 0.48362 0.95802 0.88408 0.0
C764 C 0.47963 0.93443 0.88144 0.0
C765 C 0.49064 0.91822 0.89722 0.0
C766 C 0.50585 0.92542 0.91555 0.0
C767 C 0.50863 0.94924 0.92018 0.0
C768 C 0.49757 0.96528 0.90475 0.0
C769 C 0.44742 0.03615 0.80927 0.0
C770 C 0.41395 -0.00597 0.88589 0.0
C771 C 0.39306 0.01344 0.76633 0.0
C772 C 0.38844 0.03157 0.7429 0.0
C773 C 0.39306 0.05475 0.74833 0.0
C774 C 0.38507 0.07211 0.72955 0.0
C775 C 0.37235 0.06657 0.70506 0.0
C776 C 0.369 0.0431 0.69835 0.0
C777 C 0.37698 0.02589 0.717 0.0
C778 C 0.4136 0.9509 0.81882 0.0
C779 C 0.45876 -0.00878 0.74915 0.0
O780 O 0.47227 0.96755 0.83216 0.0
O781 O 0.46467 0.99034 0.87201 0.0
O782 O 0.45974 0.02125 0.8019 0.0
O783 O 0.43543 0.02571 0.82543 0.0
O784 O 0.43056 0.98529 0.87973 0.0
O785 O 0.40658 0.00223 0.85809 0.0
O786 O 0.39632 0.01991 0.79608 0.0
O787 O 0.40361 -0.00327 0.75671 0.0
O788 O 0.40308 0.96804 0.82502 0.0
O789 O 0.4286 0.95861 0.80656 0.0
O790 O 0.44157 -0.00012 0.75311 0.0
O791 O 0.46433 0.98211 0.77709 0.0
H792 H 0.46877 0.9285 0.8656 0.0
H793 H 0.48784 0.90011 0.89356 0.0
H794 H 0.5203 0.95578 0.93342 0.0
H795 H 0.50092 0.98339 0.90689 0.0
H796 H 0.40202 0.05953 0.76818 0.0
H797 H 0.38813 0.0898 0.73546 0.0
H798 H 0.35903 0.03776 0.68044 0.0
H799 H 0.37318 0.00813 0.71255 0.0
Nd800 Nd 0.17038 -0.00746 0.55292 0.0
Nd801 Nd 0.19781 0.0012 0.57741 0.0
C802 C 0.14369 0.97481 0.51725 0.0
C803 C 0.13916 0.9542 0.49814 0.0
C804 C 0.14242 0.9319 0.51007 0.0
C805 C 0.13402 0.91286 0.49549 0.0
C806 C 0.12215 0.91588 0.46889 0.0
C807 C 0.12055 0.93809 0.45527 0.0
C808 C 0.12896 0.95697 0.46976 0.0
C809 C 0.16382 0.03881 0.56832 0.0
C810 C 0.20888 -0.0019 0.49886 0.0
C811 C 0.22658 0.0156 0.6105 0.0
C812 C 0.23409 0.03221 0.63388 0.0
C813 C 0.22984 0.05577 0.63234 0.0
C814 C 0.2407 0.07189 0.64876 0.0
C815 C 0.25602 0.06465 0.66671 0.0
C816 C 0.25915 0.04083 0.67011 0.0
C817 C 0.24826 0.02485 0.654 0.0
C818 C 0.19807 0.95351 0.55832 0.0
C819 C 0.16477 -0.00477 0.6365 0.0
O820 O 0.14523 0.97205 0.54848 0.0
O821 O 0.15567 0.98911 0.50552 0.0
O822 O 0.15312 0.02174 0.57386 0.0
O823 O 0.17903 0.03106 0.55687 0.0
O824 O 0.19096 -0.00796 0.5022 0.0
O825 O 0.21552 0.00442 0.5276 0.0
O826 O 0.2218 0.02361 0.58215 0.0
O827 O 0.21606 -0.00096 0.6209 0.0
O828 O 0.21025 0.96865 0.55119 0.0
O829 O 0.18605 0.96364 0.57494 0.0
O830 O 0.1815 0.00354 0.63032 0.0
O831 O 0.15717 0.98739 0.60867 0.0
H832 H 0.15044 0.92936 0.53189 0.0
H833 H 0.13587 0.89608 0.50637 0.0
H834 H 0.11141 0.94152 0.43517 0.0
H835 H 0.1263 0.974 0.46017 0.0
H836 H 0.21885 0.0618 0.61693 0.0
H837 H 0.23767 0.09 0.646 0.0
H838 H 0.27094 0.03434 0.68304 0.0
H839 H 0.25185 0.00679 0.65525 0.0
Nd840 Nd 0.59058 0.74493 0.55354 0.0
Nd841 Nd 0.56382 0.73833 0.57835 0.0
C842 C 0.61886 0.75502 0.51672 0.0
C843 C 0.63728 0.7453 0.51717 0.0
C844 C 0.64495 0.73745 0.48806 0.0
C845 C 0.66168 0.72613 0.48837 0.0
C846 C 0.67113 0.72275 0.5178 0.0
C847 C 0.6632 0.73015 0.54706 0.0
C848 C 0.64635 0.74124 0.54677 0.0
C849 C 0.59663 0.69925 0.57153 0.0
C850 C 0.55175 0.74052 0.50032 0.0
C851 C 0.535 0.72614 0.6129 0.0
C852 C 0.52741 0.70956 0.63605 0.0
C853 C 0.53174 0.68603 0.63454 0.0
C854 C 0.52075 0.66987 0.65051 0.0
C855 C 0.50524 0.67706 0.66792 0.0
C856 C 0.50205 0.70089 0.67137 0.0
C857 C 0.51307 0.71689 0.65574 0.0
C858 C 0.56465 0.78599 0.55887 0.0
C859 C 0.59731 0.74354 0.63686 0.0
O860 O 0.60621 0.7406 0.50791 0.0
O861 O 0.6141 0.76747 0.54172 0.0
O862 O 0.60706 0.71644 0.57813 0.0
O863 O 0.58156 0.70691 0.55925 0.0
O864 O 0.56971 0.74629 0.5033 0.0
O865 O 0.54536 0.7345 0.52931 0.0
O866 O 0.5386 0.71834 0.58388 0.0
O867 O 0.54673 0.74144 0.62315 0.0
O868 O 0.55209 0.77127 0.55198 0.0
O869 O 0.5766 0.77545 0.57511 0.0
O870 O 0.58034 0.73582 0.63114 0.0
O871 O 0.60485 0.7506 0.60858 0.0
H872 H 0.63789 0.73983 0.46514 0.0
H873 H 0.66735 0.72027 0.46549 0.0
H874 H 0.67025 0.72797 0.57002 0.0
H875 H 0.64042 0.74659 0.5697 0.0
H876 H 0.54287 0.68005 0.61942 0.0
H877 H 0.52385 0.65177 0.64775 0.0
H878 H 0.49012 0.70737 0.68386 0.0
H879 H 0.50944 0.73494 0.65695 0.0
Nd880 Nd 0.1718 0.74871 0.46987 0.0
Nd881 Nd 0.19918 0.7394 0.44428 0.0
C882 C 0.14517 0.76817 0.50355 0.0
C883 C 0.12649 0.77586 0.49662 0.0
C884 C 0.12236 0.78924 0.46902 0.0
C885 C 0.10451 0.79682 0.46353 0.0
C886 C 0.09061 0.79107 0.4855 0.0
C887 C 0.0948 0.77718 0.51255 0.0
C888 C 0.11257 0.7698 0.51814 0.0
C889 C 0.16444 0.70309 0.45307 0.0
C890 C 0.2105 0.74206 0.52315 0.0
C891 C 0.22754 0.72432 0.41088 0.0
C892 C 0.23452 0.70842 0.38611 0.0
C893 C 0.22943 0.6851 0.38529 0.0
C894 C 0.23958 0.66932 0.36693 0.0
C895 C 0.25501 0.67666 0.3494 0.0
C896 C 0.25903 0.7004 0.34855 0.0
C897 C 0.24884 0.71604 0.36656 0.0
C898 C 0.19931 0.7872 0.46188 0.0
C899 C 0.1656 0.74623 0.38622 0.0
O900 O 0.14805 0.74607 0.50343 0.0
O901 O 0.15822 0.77963 0.48957 0.0
O902 O 0.15415 0.72064 0.44712 0.0
O903 O 0.17986 0.7102 0.46489 0.0
O904 O 0.19231 0.74672 0.52051 0.0
O905 O 0.2173 0.73731 0.49391 0.0
O906 O 0.2221 0.7154 0.43831 0.0
O907 O 0.21793 0.74206 0.40171 0.0
O908 O 0.21127 0.77215 0.47053 0.0
O909 O 0.18744 0.77665 0.44526 0.0
O910 O 0.18237 0.73785 0.39186 0.0
O911 O 0.15814 0.75389 0.41433 0.0
H912 H 0.1329 0.79397 0.45184 0.0
H913 H 0.10166 0.80744 0.4425 0.0
H914 H 0.08428 0.77191 0.52948 0.0
H915 H 0.11545 0.75935 0.53935 0.0
H916 H 0.21831 0.67888 0.40022 0.0
H917 H 0.23588 0.65131 0.36778 0.0
H918 H 0.27095 0.70694 0.3361 0.0
H919 H 0.25305 0.73392 0.36708 0.0
Nd920 Nd 0.5934 -0.00766 0.47367 0.0
Nd921 Nd 0.56626 0.00139 0.4492 0.0
C922 C 0.6198 0.97448 0.50971 0.0
C923 C 0.62383 0.95451 0.53035 0.0
C924 C 0.61991 0.93193 0.52016 0.0
C925 C 0.6279 0.91319 0.53601 0.0
C926 C 0.63996 0.91678 0.5622 0.0
C927 C 0.64218 0.9394 0.57418 0.0
C928 C 0.63422 0.958 0.55838 0.0
C929 C 0.60076 0.03833 0.4579 0.0
C930 C 0.55444 -0.00191 0.52729 0.0
C931 C 0.53852 0.01816 0.41719 0.0
C932 C 0.52328 0.02765 0.39916 0.0
C933 C 0.52633 0.04471 0.37582 0.0
C934 C 0.51163 0.05688 0.36285 0.0
C935 C 0.49378 0.0523 0.37355 0.0
C936 C 0.49089 0.03475 0.39655 0.0
C937 C 0.50555 0.02245 0.40913 0.0
C938 C 0.56547 0.95365 0.46754 0.0
C939 C 0.59895 -0.00539 0.38985 0.0
O940 O 0.61773 0.97047 0.47882 0.0
O941 O 0.60855 0.98996 0.52071 0.0
O942 O 0.61109 0.02096 0.45204 0.0
O943 O 0.58554 0.03092 0.46983 0.0
O944 O 0.57242 -0.00786 0.5242 0.0
O945 O 0.54796 0.00418 0.49838 0.0
O946 O 0.54601 0.02915 0.44145 0.0
O947 O 0.54583 -0.0016 0.4095 0.0
O948 O 0.55341 0.96892 0.47507 0.0
O949 O 0.57761 0.96372 0.45107 0.0
O950 O 0.58215 0.00259 0.39595 0.0
O951 O 0.60669 0.98725 0.41782 0.0
H952 H 0.61172 0.92884 0.49866 0.0
H953 H 0.62563 0.89611 0.52631 0.0
H954 H 0.6515 0.94323 0.5939 0.0
H955 H 0.63737 0.97527 0.56663 0.0
H956 H 0.54008 0.04909 0.36841 0.0
H957 H 0.51427 0.07003 0.34482 0.0
H958 H 0.47737 0.03104 0.40575 0.0
H959 H 0.50312 0.00963 0.42775 0.0
Nd960 Nd 0.81609 0.48706 0.19605 0.0
Nd961 Nd 0.844 0.49696 0.22207 0.0
C962 C 0.7908 0.47006 0.15701 0.0
C963 C 0.79104 0.46126 1.12338 0.0
C964 C 0.78221 0.44053 1.11608 0.0
C965 C 0.78075 0.43311 1.08386 0.0
C966 C 0.78814 0.44632 1.05835 0.0
C967 C 0.79846 0.46595 1.06611 0.0
C968 C 0.79969 0.47353 1.09827 0.0
C969 C 0.81577 0.53468 0.21334 0.0
C970 C 0.85024 0.49473 0.13846 0.0
C971 C 0.8716 0.51538 0.25417 0.0
C972 C 0.89084 0.51882 0.24545 0.0
C973 C 0.89808 0.54113 0.24617 0.0
C974 C 0.91592 0.54516 0.23601 0.0
C975 C 0.92687 0.52691 0.22516 0.0
C976 C 0.91957 0.50459 0.22401 0.0
C977 C 0.90162 0.50058 0.2338 0.0
C978 C 0.85021 0.4509 0.20612 0.0
C979 C 0.80473 0.49028 0.27452 0.0
O980 O 0.79931 0.45764 0.17863 0.0
O981 O 0.79364 0.49205 0.1608 0.0
O982 O 0.80345 0.51975 0.22137 0.0
O983 O 0.8279 0.5242 0.19721 0.0
O984 O 0.83286 0.48855 0.14365 0.0
O985 O 0.8584 0.50017 0.16694 0.0
O986 O 0.86603 0.49435 0.25906 0.0
O987 O 0.86014 0.52735 0.23695 0.0
O988 O 0.86061 0.468 0.19848 0.0
O989 O 0.8354 0.45881 0.21904 0.0
O990 O 0.82235 0.49778 0.27134 0.0
O991 O 0.79862 0.48236 0.24604 0.0
H992 H 0.77563 0.43068 1.13512 0.0
H993 H 0.77246 0.41809 1.07882 0.0
H994 H 0.80438 0.47643 1.04706 0.0
H995 H 0.80664 0.48959 1.10311 0.0
H996 H 0.88992 0.55547 0.25466 0.0
H997 H 0.92144 0.56239 0.23795 0.0
H998 H 0.92788 0.49024 0.21605 0.0
H999 H 0.89623 0.48326 0.23235 0.0
Nd1000 Nd 0.44725 0.75219 0.19791 0.0
Nd1001 Nd 0.41961 0.74329 0.22232 0.0
C1002 C 0.47583 0.76724 0.16492 0.0
C1003 C 0.48266 0.78442 0.1418 0.0
C1004 C 0.47864 0.80796 0.14513 0.0
C1005 C 0.48889 0.82439 1.1282 0.0
C1006 C 0.50332 0.81747 1.10788 0.0
C1007 C 0.50613 0.79372 1.10279 0.0
C1008 C 0.49587 0.77745 1.11948 0.0
C1009 C 0.44771 0.70444 0.21601 0.0
C1010 C 0.41396 0.74633 0.13872 0.0
C1011 C 0.39265 0.72614 0.25755 0.0
C1012 C 0.38815 0.70737 0.28005 0.0
C1013 C 0.39302 0.68443 0.27347 0.0
C1014 C 0.38474 0.66641 0.29055 0.0
C1015 C 0.37149 0.6711 0.3144 0.0
C1016 C 0.36812 0.69428 0.3228 0.0
C1017 C 0.37637 0.71214 0.30581 0.0
C1018 C 0.41341 0.78957 0.20652 0.0
C1019 C 0.45803 0.74864 0.27645 0.0
O1020 O 0.47128 0.77465 0.19371 0.0
O1021 O 0.46535 0.75071 0.15427 0.0
O1022 O 0.46003 0.71947 0.22305 0.0
O1023 O 0.43549 0.71465 0.19994 0.0
O1024 O 0.43124 0.75289 0.14453 0.0
O1025 O 0.40577 0.74018 0.1668 0.0
O1026 O 0.39591 0.72035 0.22753 0.0
O1027 O 0.40312 0.74274 0.26795 0.0
O1028 O 0.40279 0.77254 0.20009 0.0
O1029 O 0.42834 0.78167 0.21885 0.0
O1030 O 0.44066 0.74061 0.27226 0.0
O1031 O 0.46409 0.75723 0.24853 0.0
H1032 H 0.46836 0.81371 0.16221 0.0
H1033 H 0.48614 0.84245 1.13235 0.0
H1034 H 0.51728 0.78746 1.08798 0.0
H1035 H 0.49925 0.75939 1.11675 0.0
H1036 H 0.40229 0.68036 0.25379 0.0
H1037 H 0.38788 0.6489 0.28365 0.0
H1038 H 0.35784 0.69891 0.34051 0.0
H1039 H 0.37244 0.72971 0.31121 0.0
Nd1040 Nd 0.81763 0.74949 0.32522 0.0
Nd1041 Nd 0.84439 0.74309 0.30028 0.0
C1042 C 0.79253 0.75885 0.36899 0.0
C1043 C 0.79054 0.74729 0.40049 0.0
C1044 C 0.7825 0.75858 0.42678 0.0
C1045 C 0.78031 0.74713 0.45636 0.0
C1046 C 0.78609 0.72408 0.46007 0.0
C1047 C 0.7955 0.71357 0.4343 0.0
C1048 C 0.79758 0.725 0.40473 0.0
C1049 C 0.81845 0.70203 0.30628 0.0
C1050 C 0.85118 0.74296 0.38339 0.0
C1051 C 0.87098 0.72853 0.26199 0.0
C1052 C 0.87454 0.71139 0.23659 0.0
C1053 C 0.8682 0.68861 0.23903 0.0
C1054 C 0.87487 0.67167 0.21793 0.0
C1055 C 0.88791 0.6773 0.19414 0.0
C1056 C 0.89293 0.7006 0.19038 0.0
C1057 C 0.8863 0.71739 0.21135 0.0
C1058 C 0.84947 0.78929 0.31694 0.0
C1059 C 0.80532 0.74936 0.24827 0.0
O1060 O 0.8073 0.7711 0.36585 0.0
O1061 O 0.78932 0.74607 0.34355 0.0
O1062 O 0.80579 0.71664 0.29935 0.0
O1063 O 0.83056 0.71262 0.32245 0.0
O1064 O 0.83329 0.74532 0.37833 0.0
O1065 O 0.85984 0.7412 0.3546 0.0
O1066 O 0.86054 0.74586 0.25457 0.0
O1067 O 0.86808 0.7207 0.29118 0.0
O1068 O 0.86024 0.77256 0.32398 0.0
O1069 O 0.8347 0.78092 0.30426 0.0
O1070 O 0.82242 0.74044 0.25172 0.0
O1071 O 0.80009 0.75849 0.27651 0.0
H1072 H 0.7774 0.77597 0.42416 0.0
H1073 H 0.77295 0.75592 0.47548 0.0
H1074 H 0.80043 0.69608 0.4364 0.0
H1075 H 0.80432 0.71618 0.38486 0.0
H1076 H 0.8589 0.68368 0.25826 0.0
H1077 H 0.87057 0.65405 0.22139 0.0
H1078 H 0.90319 0.70584 0.17298 0.0
H1079 H 0.89131 0.73487 0.20911 0.0
Nd1080 Nd 0.44987 0.48927 0.32652 0.0
Nd1081 Nd 0.4229 0.49515 0.30183 0.0
C1082 C 0.47904 0.47813 0.36106 0.0
C1083 C 0.48677 0.46261 0.38547 0.0
C1084 C 0.48126 0.43953 0.38806 0.0
C1085 C 0.49165 0.42398 0.40637 0.0
C1086 C 0.50773 0.43134 0.42205 0.0
C1087 C 0.51235 0.45489 0.42082 0.0
C1088 C 0.50192 0.4703 0.40291 0.0
C1089 C 0.44864 0.53669 0.30622 0.0
C1090 C 0.41649 0.49459 0.38519 0.0
C1091 C 0.39409 0.50224 0.26527 0.0
C1092 C 0.37664 0.48973 0.26693 0.0
C1093 C 0.37261 0.47299 0.24333 0.0
C1094 C 0.35727 0.45902 0.24655 0.0
C1095 C 0.34544 0.46182 0.27313 0.0
C1096 C 0.34964 0.47825 0.29707 0.0
C1097 C 0.36511 0.49204 0.29406 0.0
C1098 C 0.41748 0.44955 0.32101 0.0
C1099 C 0.46134 0.49117 0.24834 0.0
O1100 O 0.47502 0.46914 0.33292 0.0
O1101 O 0.46749 0.49385 0.37039 0.0
O1102 O 0.46139 0.52214 0.2998 0.0
O1103 O 0.43668 0.52617 0.32251 0.0
O1104 O 0.43392 0.48864 0.37987 0.0
O1105 O 0.40834 0.49972 0.35662 0.0
O1106 O 0.40788 0.48983 0.25578 0.0
O1107 O 0.3982 0.51555 0.28984 0.0
O1108 O 0.4071 0.46666 0.32789 0.0
O1109 O 0.4323 0.4574 0.30804 0.0
O1110 O 0.44384 0.49858 0.25206 0.0
O1111 O 0.46737 0.48335 0.27673 0.0
H1112 H 0.46952 0.43331 0.37465 0.0
H1113 H 0.48753 0.40611 0.40708 0.0
H1114 H 0.52479 0.46136 0.43169 0.0
H1115 H 0.50645 0.488 0.40091 0.0
H1116 H 0.38147 0.47051 0.22253 0.0
H1117 H 0.35438 0.44643 0.22777 0.0
H1118 H 0.34057 0.48113 0.31746 0.0
H1119 H 0.36799 0.50448 0.31303 0.0
Nd1120 Nd 0.17154 0.49807 1.04652 0.0
Nd1121 Nd 0.19812 0.49889 1.07801 0.0
C1122 C 0.14102 0.4792 1.02522 0.0
C1123 C 0.13479 0.45965 1.00521 0.0
C1124 C 0.13541 0.46025 0.97107 0.0
C1125 C 0.12664 0.44319 0.95284 0.0
C1126 C 0.11694 0.42546 0.96848 0.0
C1127 C 0.11802 0.42368 1.0025 0.0
C1128 C 0.12673 0.44068 1.02067 0.0
C1129 C 0.17148 0.54486 1.05431 0.0
C1130 C 0.21054 0.50096 0.99752 0.0
C1131 C 0.22756 0.50507 1.1139 0.0
C1132 C 0.2301 0.4976 0.14773 0.0
C1133 C 0.24283 0.50842 0.16784 0.0
C1134 C 0.2457 0.50032 0.19942 0.0
C1135 C 0.23567 0.4814 0.21161 0.0
C1136 C 0.22216 0.47154 0.19182 0.0
C1137 C 0.21963 0.47931 0.16008 0.0
C1138 C 0.19133 0.45266 1.05893 0.0
C1139 C 0.1649 0.49644 1.13326 0.0
O1140 O 0.14867 0.47392 1.05291 0.0
O1141 O 0.14879 0.4967 1.0108 0.0
O1142 O 0.16899 0.5344 1.02679 0.0
O1143 O 0.17698 0.5305 1.07639 0.0
O1144 O 0.19228 0.49708 0.99757 0.0
O1145 O 0.21641 0.50488 1.02804 0.0
O1146 O 0.21553 0.52125 1.10932 0.0
O1147 O 0.22593 0.48845 1.09287 0.0
O1148 O 0.19241 0.45946 1.08903 0.0
O1149 O 0.19216 0.47016 1.04114 0.0
O1150 O 0.1828 0.49457 1.13004 0.0
O1151 O 0.15707 0.49853 1.10332 0.0
H1152 H 0.14182 0.47446 0.95845 0.0
H1153 H 0.12632 0.44478 0.92659 0.0
H1154 H 0.1108 0.41031 1.01542 0.0
H1155 H 0.12622 0.43964 1.04698 0.0
H1156 H 0.25099 0.52258 0.15879 0.0
H1157 H 0.25658 0.50812 0.21346 0.0
H1158 H 0.21406 0.45717 0.20029 0.0
H1159 H 0.20984 0.47045 0.14488 0.0
Nd1160 Nd 0.59362 0.2444 1.04609 0.0
Nd1161 Nd 0.56722 0.2421 1.07578 0.0
C1162 C 0.62486 0.26152 1.02549 0.0
C1163 C 0.63322 0.2783 1.00349 0.0
C1164 C 0.6271 0.30118 1.00118 0.0
C1165 C 0.63722 0.31739 0.98352 0.0
C1166 C 0.6535 0.31081 0.96797 0.0
C1167 C 0.659 0.28761 0.96954 0.0
C1168 C 0.64894 0.2716 0.98694 0.0
C1169 C 0.59386 0.19717 1.05346 0.0
C1170 C 0.5556 0.2426 0.99477 0.0
C1171 C 0.53423 0.23091 1.09577 0.0
C1172 C 0.52208 0.21524 1.11296 0.0
C1173 C 0.52657 0.20495 0.14276 0.0
C1174 C 0.51402 0.19025 0.15789 0.0
C1175 C 0.49702 0.18591 0.1432 0.0
C1176 C 0.49302 0.19563 1.11284 0.0
C1177 C 0.50542 0.21021 1.09794 0.0
C1178 C 0.57198 0.289 1.05679 0.0
C1179 C 0.59918 0.24415 1.13325 0.0
O1180 O 0.61602 0.26952 1.05065 0.0
O1181 O 0.61733 0.24331 1.01254 0.0
O1182 O 0.59564 0.20778 1.02594 0.0
O1183 O 0.58886 0.21154 1.07577 0.0
O1184 O 0.57361 0.24786 0.99613 0.0
O1185 O 0.54977 0.23703 1.02459 0.0
O1186 O 0.54177 0.22269 1.06954 0.0
O1187 O 0.54471 0.24508 1.112 0.0
O1188 O 0.57042 0.28222 1.08673 0.0
O1189 O 0.5723 0.27137 1.0393 0.0
O1190 O 0.58121 0.24206 1.12965 0.0
O1191 O 0.60722 0.24595 1.10346 0.0
H1192 H 0.6149 0.30668 1.01385 0.0
H1193 H 0.63261 0.33507 0.98276 0.0
H1194 H 0.6717 0.28189 0.95881 0.0
H1195 H 0.65395 0.2541 0.98872 0.0
H1196 H 0.53954 0.20849 0.1544 0.0
H1197 H 0.51728 0.18296 0.18143 0.0
H1198 H 0.48007 0.19235 1.10096 0.0
H1199 H 0.50189 0.21781 1.07469 0.0
Nd1200 Nd 0.17059 0.24387 0.97501 0.0
Nd1201 Nd 0.198 0.23958 0.94457 0.0
C1202 C 0.14052 0.26358 0.99673 0.0
C1203 C 0.1349 0.28173 1.01966 0.0
C1204 C 0.13906 0.30506 1.0143 0.0
C1205 C 0.13173 0.32212 1.03444 0.0
C1206 C 0.11992 0.31619 1.06006 0.0
C1207 C 0.11651 0.29266 1.06597 0.0
C1208 C 0.12393 0.27572 1.04609 0.0
C1209 C 0.16952 0.19662 0.96791 0.0
C1210 C 0.20899 0.24156 1.02612 0.0
C1211 C 0.22946 0.22393 0.92285 0.0
C1212 C 0.23883 0.2078 0.90103 0.0
C1213 C 0.2347 0.18415 0.90053 0.0
C1214 C 0.24633 0.16866 0.88466 0.0
C1215 C 0.26221 0.17663 0.86914 0.0
C1216 C 0.26558 0.20051 0.86833 0.0
C1217 C 0.254 0.21586 0.88398 0.0
C1218 C 0.19409 0.28677 0.96258 0.0
C1219 C 0.16554 0.24318 0.88779 0.0
O1220 O 0.14901 0.27011 0.9704 0.0
O1221 O 0.14711 0.24464 1.00909 0.0
O1222 O 0.16741 0.20751 0.99514 0.0
O1223 O 0.17478 0.21078 0.94556 0.0
O1224 O 0.19065 0.24485 1.02512 0.0
O1225 O 0.21544 0.23802 0.99603 0.0
O1226 O 0.22082 0.2152 0.94777 0.0
O1227 O 0.22142 0.24193 0.91027 0.0
O1228 O 0.1968 0.27971 0.9329 0.0
O1229 O 0.1929 0.26934 0.98036 0.0
O1230 O 0.18322 0.23864 0.89152 0.0
O1231 O 0.15765 0.2471 0.91734 0.0
H1232 H 0.14745 0.31024 0.99392 0.0
H1233 H 0.13478 0.33993 1.02911 0.0
H1234 H 0.10707 0.28713 1.08462 0.0
H1235 H 0.12038 0.2579 1.05053 0.0
H1236 H 0.223 0.17754 0.9136 0.0
H1237 H 0.24324 0.15046 0.88554 0.0
H1238 H 0.27786 0.2074 0.85742 0.0
H1239 H 0.25753 0.23396 0.88439 0.0
Nd1240 Nd 0.59315 0.49383 0.97127 0.0
Nd1241 Nd 0.56564 0.50279 0.94521 0.0
C1242 C 0.61983 0.47531 1.00588 0.0
C1243 C 0.63846 0.4673 0.99954 0.0
C1244 C 0.64243 0.45235 0.9735 0.0
C1245 C 0.66022 0.44442 0.96871 0.0
C1246 C 0.67422 0.45138 0.98984 0.0
C1247 C 0.67023 0.46685 1.01523 0.0
C1248 C 0.6525 0.47461 1.02012 0.0
C1249 C 0.60011 0.53934 0.95436 0.0
C1250 C 0.55429 0.49953 1.024 0.0
C1251 C 0.53723 0.51808 0.91219 0.0
C1252 C 0.52974 0.53482 0.88911 0.0
C1253 C 0.53374 0.55842 0.89142 0.0
C1254 C 0.52265 0.57455 0.87562 0.0
C1255 C 0.50736 0.56726 0.85759 0.0
C1256 C 0.50456 0.54342 0.85324 0.0
C1257 C 0.51569 0.52745 0.86869 0.0
C1258 C 0.56599 0.45488 0.96154 0.0
C1259 C 0.59932 0.49613 0.88753 0.0
O1260 O 0.61704 0.49739 1.00439 0.0
O1261 O 0.60672 0.4635 0.9926 0.0
O1262 O 0.61049 0.5219 0.94832 0.0
O1263 O 0.58474 0.53213 0.96622 0.0
O1264 O 0.57254 0.49539 1.02155 0.0
O1265 O 0.54746 0.50412 0.99475 0.0
O1266 O 0.54212 0.52587 0.94065 0.0
O1267 O 0.54749 0.50134 0.90153 0.0
O1268 O 0.55347 0.46941 0.96946 0.0
O1269 O 0.578 0.46585 0.94596 0.0
O1270 O 0.58257 0.50462 0.89308 0.0
O1271 O 0.60672 0.48835 0.91566 0.0
H1272 H 0.6318 0.44659 0.95708 0.0
H1273 H 0.66295 0.43252 0.949 0.0
H1274 H 0.68085 0.47294 1.03144 0.0
H1275 H 0.64974 0.48628 1.04011 0.0
H1276 H 0.54465 0.56447 0.90705 0.0
H1277 H 0.52547 0.59268 0.87904 0.0
H1278 H 0.49283 0.53682 0.84022 0.0
H1279 H 0.51231 0.50934 0.86683 0.0
C1280 C 0.39037 0.81924 0.18646 0.0
C1281 C 0.40541 0.8142 0.20689 0.0
C1282 C 0.38081 0.84061 0.18729 0.0
C1283 C 0.38578 0.85829 0.20961 0.0
C1284 C 0.40104 0.85347 0.23034 0.0
C1285 C 0.41061 0.83186 0.22868 0.0
C1286 C 0.3652 0.84424 0.16391 0.0
C1287 C 0.40713 0.87116 0.25487 0.0
C1288 C 0.3721 0.92181 0.18946 0.0
C1289 C 0.35616 0.92614 0.20792 0.0
C1290 C 0.38159 0.90039 0.18992 0.0
C1291 C 0.37558 0.88187 0.20983 0.0
C1292 C 0.3594 0.88595 0.22856 0.0
C1293 C 0.34994 0.90767 0.22729 0.0
C1294 C 0.39824 0.89761 0.16873 0.0
C1295 C 0.35218 0.86734 0.2505 0.0
H1296 H 0.38588 0.80612 0.16946 0.0
H1297 H 0.42186 0.82859 0.24515 0.0
H1298 H 0.35245 0.84762 0.17762 0.0
H1299 H 0.36789 0.85955 0.14856 0.0
H1300 H 0.36295 0.82916 0.14775 0.0
H1301 H 0.41876 0.86503 0.26987 0.0
H1302 H 0.41125 0.88719 0.24223 0.0
H1303 H 0.39561 0.87559 0.27121 0.0
H1304 H 0.37737 0.93553 0.17429 0.0
H1305 H 0.33794 0.91033 0.24219 0.0
H1306 H 0.39626 0.88299 0.1517 0.0
H1307 H 0.41029 0.89355 0.184 0.0
H1308 H 0.40126 0.91331 0.15433 0.0
H1309 H 0.34865 0.8519 0.23591 0.0
H1310 H 0.3399 0.87293 0.26419 0.0
H1311 H 0.3629 0.86216 0.2681 0.0
C1312 C 0.85256 0.40837 0.22753 0.0
C1313 C 0.85831 0.42628 0.20668 0.0
C1314 C 0.86191 0.38658 0.22908 0.0
C1315 C 0.87753 0.38183 0.20919 0.0
C1316 C 0.8831 0.3998 0.18789 0.0
C1317 C 0.87372 0.42132 0.18713 0.0
C1318 C 0.85517 0.36861 0.25252 0.0
C1319 C 0.89916 0.39631 0.16548 0.0
C1320 C 0.91249 0.33153 0.2275 0.0
C1321 C 0.90651 0.31346 0.20704 0.0
C1322 C 0.90322 0.35339 0.22889 0.0
C1323 C 0.88749 0.35806 0.20921 0.0
C1324 C 0.88173 0.33994 0.18823 0.0
C1325 C 0.89101 0.31835 0.18765 0.0
C1326 C 0.91018 0.37153 0.25199 0.0
C1327 C 0.86556 0.34333 0.16602 0.0
H1328 H 0.84098 0.41151 0.24328 0.0
H1329 H 0.87864 0.43459 0.17084 0.0
H1330 H 0.85106 0.35291 0.239 0.0
H1331 H 0.86633 0.36364 0.26934 0.0
H1332 H 0.84336 0.37473 0.26707 0.0
H1333 H 0.90192 0.41165 0.15017 0.0
H1334 H 0.91156 0.39239 0.17992 0.0
H1335 H 0.8966 0.38137 0.14928 0.0
H1336 H 0.92414 0.32845 0.24311 0.0
H1337 H 0.88593 0.30496 0.17164 0.0
H1338 H 0.89916 0.37659 0.26906 0.0
H1339 H 0.91414 0.38715 0.23823 0.0
H1340 H 0.92212 0.36553 0.26627 0.0
H1341 H 0.85324 0.34734 0.18061 0.0
H1342 H 0.86269 0.32791 0.15085 0.0
H1343 H 0.86804 0.35818 0.14969 0.0
C1344 C 0.39357 0.42059 0.34018 0.0
C1345 C 0.4089 0.42514 0.32019 0.0
C1346 C 0.38334 0.39968 0.33876 0.0
C1347 C 0.38789 0.38192 0.3163 0.0
C1348 C 0.4034 0.38626 0.29593 0.0
C1349 C 0.41361 0.40745 0.29811 0.0
C1350 C 0.36743 0.39668 0.36162 0.0
C1351 C 0.40907 0.36853 0.2712 0.0
C1352 C 0.37281 0.31867 0.33568 0.0
C1353 C 0.35686 0.31476 0.31693 0.0
C1354 C 0.38268 0.33985 0.33559 0.0
C1355 C 0.37712 0.35864 0.31578 0.0
C1356 C 0.36089 0.35507 0.29685 0.0
C1357 C 0.35103 0.33354 0.2977 0.0
C1358 C 0.3993 0.34207 0.35707 0.0
C1359 C 0.35403 0.37403 0.27512 0.0
H1360 H 0.38935 0.43376 0.35726 0.0
H1361 H 0.42498 0.41036 0.28182 0.0
H1362 H 0.35465 0.39451 0.34746 0.0
H1363 H 0.36929 0.38088 0.37638 0.0
H1364 H 0.36576 0.41155 0.37834 0.0
H1365 H 0.42087 0.37431 0.25638 0.0
H1366 H 0.41275 0.35226 0.28365 0.0
H1367 H 0.39746 0.36466 0.25471 0.0
H1368 H 0.3778 0.30475 0.35078 0.0
H1369 H 0.33906 0.33128 0.28257 0.0
H1370 H 0.39755 0.35671 0.37413 0.0
H1371 H 0.41149 0.34578 0.34201 0.0
H1372 H 0.40193 0.32625 0.37145 0.0
H1373 H 0.35055 0.38938 0.28992 0.0
H1374 H 0.34179 0.36878 0.261 0.0
H1375 H 0.36493 0.37926 0.25791 0.0
C1376 C 0.87215 0.81902 0.33815 0.0
C1377 C 0.85723 0.81409 0.31732 0.0
C1378 C 0.88177 0.84039 0.33791 0.0
C1379 C 0.87693 0.85827 0.31595 0.0
C1380 C 0.86173 0.85364 0.29491 0.0
C1381 C 0.85216 0.83195 0.29584 0.0
C1382 C 0.89737 0.84372 0.36144 0.0
C1383 C 0.85572 0.8716 0.27084 0.0
C1384 C 0.89118 0.92134 0.33845 0.0
C1385 C 0.90711 0.92584 0.32001 0.0
C1386 C 0.88145 0.90006 0.33709 0.0
C1387 C 0.88725 0.88182 0.31642 0.0
C1388 C 0.90343 0.88606 0.29777 0.0
C1389 C 0.91307 0.90766 0.29977 0.0
C1390 C 0.86474 0.89717 0.3581 0.0
C1391 C 0.91051 0.86771 0.27519 0.0
H1392 H 0.87657 0.80578 0.35494 0.0
H1393 H 0.84103 0.8288 0.27906 0.0
H1394 H 0.91013 0.84731 0.34787 0.0
H1395 H 0.89467 0.85882 0.37726 0.0
H1396 H 0.89959 0.82844 0.37714 0.0
H1397 H 0.84396 0.86576 0.25589 0.0
H1398 H 0.85183 0.88759 0.28387 0.0
H1399 H 0.86722 0.87599 0.25444 0.0
H1400 H 0.88607 0.93482 0.35423 0.0
H1401 H 0.92503 0.91045 0.28485 0.0
H1402 H 0.86665 0.88241 0.37484 0.0
H1403 H 0.85271 0.89325 0.34266 0.0
H1404 H 0.86175 0.91276 0.3728 0.0
H1405 H 0.91387 0.85199 0.28924 0.0
H1406 H 0.92287 0.87335 0.26175 0.0
H1407 H 0.89977 0.86294 0.25735 0.0
C1408 C 0.66402 0.08387 1.05846 0.0
C1409 C 0.65491 0.06351 1.06792 0.0
C1410 C 0.65493 0.10589 1.05755 0.0
C1411 C 0.63599 0.10821 1.06577 0.0
C1412 C 0.62691 0.0877 1.07537 0.0
C1413 C 0.6363 0.06624 1.07656 0.0
C1414 C 0.66565 0.12681 1.04759 0.0
C1415 C 0.6069 0.08824 1.0839 0.0
C1416 C 0.61194 0.16701 1.08785 0.0
C1417 C 0.60352 0.17376 1.05841 0.0
C1418 C 0.62275 0.14643 1.09042 0.0
C1419 C 0.62534 0.1314 1.06317 0.0
C1420 C 0.6166 0.13806 1.03365 0.0
C1421 C 0.60622 0.15883 1.03161 0.0
C1422 C 0.63169 0.14093 1.12249 0.0
C1423 C 0.61815 0.12306 1.00381 0.0
H1424 H 0.67826 0.08269 1.05169 0.0
H1425 H 0.62867 0.05119 1.08405 0.0
H1426 H 0.6601 0.13376 1.0245 0.0
H1427 H 0.66425 0.14049 1.06629 0.0
H1428 H 0.68036 0.12294 1.04415 0.0
H1429 H 0.60161 0.07107 1.09106 0.0
H1430 H 0.60451 0.10043 1.10424 0.0
H1431 H 0.5989 0.09448 1.06275 0.0
H1432 H 0.61055 0.17819 1.10882 0.0
H1433 H 0.60013 0.16348 1.0085 0.0
H1434 H 0.6466 0.13876 1.11899 0.0
H1435 H 0.62633 0.12441 1.132 0.0
H1436 H 0.62935 0.15455 0.141 0.0
H1437 H 0.63269 0.121 0.99701 0.0
H1438 H 0.61064 0.13024 0.98266 0.0
H1439 H 0.6127 0.10565 1.00911 0.0
C1440 C 0.12759 0.67506 1.07717 0.0
C1441 C 0.10882 0.67715 1.06928 0.0
C1442 C 0.13728 0.65381 1.07636 0.0
C1443 C 0.12838 0.63292 1.06787 0.0
C1444 C 0.10928 0.63459 1.06057 0.0
C1445 C 0.09985 0.65638 1.06115 0.0
C1446 C 0.15742 0.65393 1.08397 0.0
C1447 C 0.09874 0.61322 1.05176 0.0
C1448 C 0.15846 0.58288 1.033 0.0
C1449 C 0.1618 0.5682 1.0598 0.0
C1450 C 0.14775 0.60335 1.03528 0.0
C1451 C 0.1394 0.61001 1.06513 0.0
C1452 C 0.14269 0.5953 1.09244 0.0
C1453 C 0.15375 0.57494 1.08956 0.0
C1454 C 0.14539 0.61799 1.00531 0.0
C1455 C 0.13422 0.60089 1.12488 0.0
H1456 H 0.13509 0.69047 1.08366 0.0
H1457 H 0.0855 0.65709 1.05494 0.0
H1458 H 0.16037 0.64192 1.10424 0.0
H1459 H 0.1652 0.64783 1.06247 0.0
H1460 H 0.16249 0.6713 1.09078 0.0
H1461 H 0.0839 0.61662 1.04923 0.0
H1462 H 0.10391 0.60617 1.02844 0.0
H1463 H 0.10081 0.59982 1.07061 0.0
H1464 H 0.16422 0.5782 1.00964 0.0
H1465 H 0.15561 0.56392 1.11054 0.0
H1466 H 0.15065 0.6356 1.01002 0.0
H1467 H 0.1307 0.6196 0.99931 0.0
H1468 H 0.15262 0.61079 0.98386 0.0
H1469 H 0.1393 0.61777 1.13368 0.0
H1470 H 0.13729 0.58765 0.14355 0.0
H1471 H 0.1192 0.60236 1.12219 0.0
C1472 C 0.65239 0.66653 0.93393 0.0
C1473 C 0.66054 0.6736 0.96349 0.0
C1474 C 0.64155 0.64596 0.93147 0.0
C1475 C 0.63863 0.63133 0.95898 0.0
C1476 C 0.64708 0.63832 0.98863 0.0
C1477 C 0.65754 0.65904 0.99052 0.0
C1478 C 0.63293 0.64002 0.89924 0.0
C1479 C 0.64515 0.62374 1.01875 0.0
C1480 C 0.59965 0.58425 0.96364 0.0
C1481 C 0.60874 0.5637 0.95504 0.0
C1482 C 0.60887 0.60619 0.96426 0.0
C1483 C 0.62789 0.60821 0.9566 0.0
C1484 C 0.63695 0.5875 0.94789 0.0
C1485 C 0.62745 0.5661 0.94697 0.0
C1486 C 0.59817 0.62735 0.97328 0.0
C1487 C 0.65706 0.58777 0.94001 0.0
H1488 H 0.65406 0.67742 0.91277 0.0
H1489 H 0.66344 0.66394 1.01371 0.0
H1490 H 0.6382 0.62325 0.89046 0.0
H1491 H 0.61796 0.63817 0.90222 0.0
H1492 H 0.63567 0.65327 0.88041 0.0
H1493 H 0.65245 0.63119 1.04 0.0
H1494 H 0.63053 0.6218 1.02508 0.0
H1495 H 0.6506 0.60624 1.01405 0.0
H1496 H 0.58533 0.58328 0.96991 0.0
H1497 H 0.63505 0.55086 0.94018 0.0
H1498 H 0.5998 0.64068 0.9542 0.0
H1499 H 0.60356 0.63467 0.9963 0.0
H1500 H 0.58342 0.62363 0.97645 0.0
H1501 H 0.65974 0.59965 0.91948 0.0
H1502 H 0.66231 0.57046 0.93343 0.0
H1503 H 0.66488 0.59423 0.96128 0.0
C1504 C 0.15704 0.15872 0.99052 0.0
C1505 C 0.15996 0.17312 0.96328 0.0
C1506 C 0.14669 0.13791 0.98893 0.0
C1507 C 0.13827 0.13064 0.95939 0.0
C1508 C 0.14113 0.14508 0.93165 0.0
C1509 C 0.15187 0.16576 0.93382 0.0
C1510 C 0.14482 0.12355 1.01928 0.0
C1511 C 0.13255 0.13883 0.89952 0.0
C1512 C 0.12734 0.06522 0.94867 0.0
C1513 C 0.10864 0.06279 0.95682 0.0
C1514 C 0.13675 0.08669 0.94911 0.0
C1515 C 0.12761 0.10743 0.95741 0.0
C1516 C 0.1086 0.10537 0.96514 0.0
C1517 C 0.09947 0.08338 0.96498 0.0
C1518 C 0.15685 0.08701 0.94117 0.0
C1519 C 0.09783 0.12655 0.97376 0.0
H1520 H 0.16289 0.16385 1.01364 0.0
H1521 H 0.15347 0.17653 0.91251 0.0
H1522 H 0.1302 0.12159 1.02566 0.0
H1523 H 0.15033 0.10605 1.01484 0.0
H1524 H 0.1521 0.1312 1.0404 0.0
H1525 H 0.13529 0.1519 0.88045 0.0
H1526 H 0.13783 0.12198 0.89107 0.0
H1527 H 0.11757 0.13699 0.90251 0.0
H1528 H 0.13498 0.04996 0.94218 0.0
H1529 H 0.08515 0.08238 0.97127 0.0
H1530 H 0.16467 0.09368 0.96232 0.0
H1531 H 0.15948 0.09875 0.92045 0.0
H1532 H 0.16215 0.06968 0.93484 0.0
H1533 H 0.1032 0.13413 0.99664 0.0
H1534 H 0.08309 0.12278 0.97701 0.0
H1535 H 0.09941 0.13971 0.95442 0.0
C1536 C 0.39364 0.32149 0.68471 0.0
C1537 C 0.40838 0.31614 0.70567 0.0
C1538 C 0.38417 0.34292 0.68546 0.0
C1539 C 0.38901 0.36041 0.70813 0.0
C1540 C 0.40406 0.35538 0.72927 0.0
C1541 C 0.41348 0.33363 0.72782 0.0
C1542 C 0.36873 0.34671 0.66179 0.0
C1543 C 0.41004 0.37294 0.75405 0.0
C1544 C 0.37518 0.42379 0.68753 0.0
C1545 C 0.35917 0.42806 0.70583 0.0
C1546 C 0.38482 0.40248 0.68836 0.0
C1547 C 0.37882 0.38399 0.70832 0.0
C1548 C 0.36256 0.388 0.72684 0.0
C1549 C 0.35302 0.40965 0.72536 0.0
C1550 C 0.40162 0.3998 0.66752 0.0
C1551 C 0.35528 0.36935 0.74865 0.0
H1552 H 0.3892 0.3085 0.66748 0.0
H1553 H 0.42444 0.33011 0.74478 0.0
H1554 H 0.3559 0.3501 0.67528 0.0
H1555 H 0.37156 0.36207 0.64662 0.0
H1556 H 0.36654 0.33172 0.64546 0.0
H1557 H 0.42174 0.36685 0.76889 0.0
H1558 H 0.41399 0.38914 0.74167 0.0
H1559 H 0.3985 0.37706 0.77052 0.0
H1560 H 0.38041 0.43746 0.67223 0.0
H1561 H 0.34095 0.41225 0.7401 0.0
H1562 H 0.39972 0.38533 0.65021 0.0
H1563 H 0.41355 0.39556 0.683 0.0
H1564 H 0.40478 0.4156 0.65343 0.0
H1565 H 0.35186 0.3539 0.73398 0.0
H1566 H 0.34292 0.37488 0.76216 0.0
H1567 H 0.36592 0.36419 0.76642 0.0
C1568 C 0.8561 0.90905 0.7449 0.0
C1569 C 0.85231 0.92287 0.71738 0.0
C1570 C 0.86668 0.88838 0.74327 0.0
C1571 C 0.87448 0.88068 0.71339 0.0
C1572 C 0.87081 0.89463 0.68545 0.0
C1573 C 0.85986 0.91511 0.68767 0.0
C1574 C 0.8694 0.87457 0.77391 0.0
C1575 C 0.87868 0.88801 0.65291 0.0
C1576 C 0.91376 0.83375 0.71633 0.0
C1577 C 0.90456 0.81301 0.70889 0.0
C1578 C 0.90447 0.85565 0.71729 0.0
C1579 C 0.88523 0.85749 0.71121 0.0
C1580 C 0.87604 0.83658 0.70385 0.0
C1581 C 0.88561 0.81523 0.70253 0.0
C1582 C 0.91533 0.877 0.72477 0.0
C1583 C 0.85574 0.83658 0.69769 0.0
H1584 H 0.85069 0.91447 0.76822 0.0
H1585 H 0.85758 0.92537 0.66607 0.0
H1586 H 0.86386 0.85696 0.7705 0.0
H1587 H 0.88418 0.87284 0.77919 0.0
H1588 H 0.86264 0.88253 0.79532 0.0
H1589 H 0.87571 0.90098 0.63381 0.0
H1590 H 0.89369 0.88594 0.65499 0.0
H1591 H 0.87303 0.87119 0.64505 0.0
H1592 H 0.92827 0.83298 0.72123 0.0
H1593 H 0.87788 0.79988 0.69667 0.0
H1594 H 0.91038 0.88484 0.74774 0.0
H1595 H 0.91333 0.88989 0.7052 0.0
H1596 H 0.93014 0.87337 0.72724 0.0
H1597 H 0.8485 0.84364 0.7192 0.0
H1598 H 0.85033 0.8191 0.69253 0.0
H1599 H 0.85249 0.84787 0.67675 0.0
C1600 C 0.41132 0.90818 0.79828 0.0
C1601 C 0.40549 0.92634 0.81863 0.0
C1602 C 0.40181 0.88651 0.79682 0.0
C1603 C 0.38595 0.8822 0.81628 0.0
C1604 C 0.38032 0.9004 0.83714 0.0
C1605 C 0.38988 0.92178 0.83785 0.0
C1606 C 0.40864 0.86819 0.77395 0.0
C1607 C 0.36399 0.89735 0.85904 0.0
C1608 C 0.35072 0.83235 0.79748 0.0
C1609 C 0.35624 0.81449 0.81856 0.0
C1610 C 0.36023 0.85403 0.79607 0.0
C1611 C 0.37576 0.85863 0.81629 0.0
C1612 C 0.38105 0.84074 0.8379 0.0
C1613 C 0.37151 0.81934 0.83855 0.0
C1614 C 0.35378 0.87201 0.77238 0.0
C1615 C 0.397 0.84412 0.86064 0.0
H1616 H 0.42305 0.91105 0.78281 0.0
H1617 H 0.38492 0.93528 0.85376 0.0
H1618 H 0.41233 0.85253 0.78787 0.0
H1619 H 0.39764 0.86328 0.75669 0.0
H1620 H 0.42073 0.87393 0.75986 0.0
H1621 H 0.36119 0.91288 0.87398 0.0
H1622 H 0.35172 0.8934 0.84424 0.0
H1623 H 0.36624 0.88255 0.87559 0.0
H1624 H 0.33928 0.82923 0.78138 0.0
H1625 H 0.37622 0.80606 0.85501 0.0
H1626 H 0.36503 0.87661 0.75556 0.0
H1627 H 0.34992 0.88789 0.78568 0.0
H1628 H 0.34189 0.86608 0.75784 0.0
H1629 H 0.40953 0.84777 0.84643 0.0
H1630 H 0.39951 0.82884 0.87619 0.0
H1631 H 0.39452 0.8592 0.87661 0.0
C1632 C 0.87438 0.31868 0.83632 0.0
C1633 C 0.85876 0.31387 0.81715 0.0
C1634 C 0.88378 0.34021 0.83562 0.0
C1635 C 0.87799 0.35834 0.81478 0.0
C1636 C 0.86215 0.35375 0.79532 0.0
C1637 C 0.8528 0.33194 0.7968 0.0
C1638 C 0.90008 0.34353 0.85756 0.0
C1639 C 0.85515 0.37191 0.77242 0.0
C1640 C 0.89189 0.42165 0.83672 0.0
C1641 C 0.90713 0.42666 0.81678 0.0
C1642 C 0.88256 0.40007 0.83621 0.0
C1643 C 0.88801 0.3821 0.81476 0.0
C1644 C 0.90349 0.38687 0.79456 0.0
C1645 C 0.9128 0.40872 0.79587 0.0
C1646 C 0.86666 0.39655 0.85896 0.0
C1647 C 0.91011 0.36888 0.77098 0.0
H1648 H 0.87945 0.30528 0.85225 0.0
H1649 H 0.84105 0.32893 0.78138 0.0
H1650 H 0.91232 0.34758 0.8428 0.0
H1651 H 0.89772 0.35835 0.87408 0.0
H1652 H 0.903 0.32808 0.87254 0.0
H1653 H 0.84316 0.36593 0.7582 0.0
H1654 H 0.85125 0.38751 0.78635 0.0
H1655 H 0.86612 0.37702 0.75529 0.0
H1656 H 0.88704 0.43495 0.85308 0.0
H1657 H 0.92424 0.4119 0.77982 0.0
H1658 H 0.86927 0.38153 0.87491 0.0
H1659 H 0.85414 0.39274 0.84476 0.0
H1660 H 0.86407 0.41184 0.87453 0.0
H1661 H 0.91417 0.35314 0.78438 0.0
H1662 H 0.92192 0.37494 0.75639 0.0
H1663 H 0.89889 0.36398 0.75419 0.0
C1664 C 0.66169 0.58249 0.54754 0.0
C1665 C 0.65627 0.56408 0.56782 0.0
C1666 C 0.6519 0.60401 0.54666 0.0
C1667 C 0.63616 0.60795 0.56663 0.0
C1668 C 0.631 0.58954 0.58748 0.0
C1669 C 0.6408 0.56832 0.58758 0.0
C1670 C 0.65829 0.62255 0.52378 0.0
C1671 C 0.61492 0.59219 0.61004 0.0
C1672 C 0.6208 0.67043 0.58995 0.0
C1673 C 0.60509 0.67481 0.57083 0.0
C1674 C 0.6308 0.64937 0.58862 0.0
C1675 C 0.62557 0.63129 0.56716 0.0
C1676 C 0.60965 0.63544 0.5477 0.0
C1677 C 0.59969 0.65679 0.54979 0.0
C1678 C 0.64717 0.64655 0.61052 0.0
C1679 C 0.60325 0.61732 0.52408 0.0
H1680 H 0.67328 0.57991 0.53163 0.0
H1681 H 0.63614 0.55466 0.60347 0.0
H1682 H 0.647 0.6275 0.50719 0.0
H1683 H 0.66216 0.63813 0.53778 0.0
H1684 H 0.67017 0.617 0.50897 0.0
H1685 H 0.61256 0.57662 0.6251 0.0
H1686 H 0.61714 0.60709 0.62649 0.0
H1687 H 0.6024 0.59574 0.59574 0.0
H1688 H 0.62551 0.68385 0.60627 0.0
H1689 H 0.58796 0.65953 0.53424 0.0
H1690 H 0.65958 0.64371 0.59564 0.0
H1691 H 0.64538 0.63118 0.62618 0.0
H1692 H 0.64945 0.66178 0.62636 0.0
H1693 H 0.61442 0.61302 0.50691 0.0
H1694 H 0.59115 0.62296 0.50992 0.0
H1695 H 0.59974 0.60134 0.53739 0.0
C1696 C 0.16181 0.08178 0.54851 0.0
C1697 C 0.15579 0.06344 0.56834 0.0
C1698 C 0.15233 0.10348 0.54721 0.0
C1699 C 0.13629 0.10766 0.56629 0.0
C1700 C 0.13047 0.08928 0.58663 0.0
C1701 C 0.14001 0.06789 0.58719 0.0
C1702 C 0.15937 0.12197 0.52489 0.0
C1703 C 0.11396 0.09216 0.60814 0.0
C1704 C 0.12161 0.17039 0.58934 0.0
C1705 C 0.1065 0.17537 0.56904 0.0
C1706 C 0.13116 0.149 0.58855 0.0
C1707 C 0.12608 0.13123 0.56647 0.0
C1708 C 0.11071 0.13596 0.54593 0.0
C1709 C 0.10118 0.15762 0.54749 0.0
C1710 C 0.14692 0.1455 0.61164 0.0
C1711 C 0.10448 0.11815 0.52171 0.0
H1712 H 0.17367 0.07903 0.53331 0.0
H1713 H 0.13489 0.05429 0.60271 0.0
H1714 H 0.14854 0.12696 0.50739 0.0
H1715 H 0.16292 0.13754 0.53919 0.0
H1716 H 0.1716 0.11634 0.51107 0.0
H1717 H 0.11103 0.07652 0.62272 0.0
H1718 H 0.11607 0.10684 0.62501 0.0
H1719 H 0.10182 0.09617 0.59308 0.0
H1720 H 0.1262 0.18358 0.60611 0.0
H1721 H 0.0899 0.16084 0.53108 0.0
H1722 H 0.15957 0.14202 0.5977 0.0
H1723 H 0.14432 0.13029 0.62723 0.0
H1724 H 0.14928 0.16067 0.62757 0.0
H1725 H 0.11586 0.11377 0.50505 0.0
H1726 H 0.09267 0.12413 0.50703 0.0
H1727 H 0.10057 0.10212 0.53457 0.0
C1728 C 0.64487 0.16885 0.43199 0.0
C1729 C 0.6603 0.17376 0.45163 0.0
C1730 C 0.63485 0.1478 0.43378 0.0
C1731 C 0.63975 0.13026 0.45629 0.0
C1732 C 0.65538 0.13495 0.47627 0.0
C1733 C 0.66537 0.15628 0.47371 0.0
C1734 C 0.61878 0.14442 0.41132 0.0
C1735 C 0.66139 0.11746 0.50103 0.0
C1736 C 0.60337 0.08175 0.4763 0.0
C1737 C 0.60912 0.06287 0.45713 0.0
C1738 C 0.61309 0.10336 0.47666 0.0
C1739 C 0.62914 0.1069 0.45734 0.0
C1740 C 0.63464 0.08801 0.4376 0.0
C1741 C 0.62487 0.06674 0.43794 0.0
C1742 C 0.60629 0.12243 0.49835 0.0
C1743 C 0.65104 0.09021 0.41567 0.0
H1744 H 0.64036 0.18188 0.41494 0.0
H1745 H 0.67681 0.15948 0.48978 0.0
H1746 H 0.62069 0.1286 0.39658 0.0
H1747 H 0.60615 0.1421 0.42578 0.0
H1748 H 0.6168 0.15919 0.39457 0.0
H1749 H 0.67337 0.12341 0.51533 0.0
H1750 H 0.65 0.11373 0.51799 0.0
H1751 H 0.66495 0.10109 0.48869 0.0
H1752 H 0.59151 0.07952 0.4917 0.0
H1753 H 0.62978 0.05277 0.42281 0.0
H1754 H 0.6169 0.12675 0.51664 0.0
H1755 H 0.59352 0.11769 0.51123 0.0
H1756 H 0.60377 0.13818 0.48383 0.0
H1757 H 0.64902 0.10466 0.39844 0.0
H1758 H 0.65367 0.07429 0.40146 0.0
H1759 H 0.66334 0.09424 0.43036 0.0
C1760 C 0.16478 0.65813 0.46231 0.0
C1761 C 0.15575 0.67869 0.45353 0.0
C1762 C 0.15556 0.63618 0.46277 0.0
C1763 C 0.13658 0.63408 0.45472 0.0
C1764 C 0.12758 0.6548 0.4458 0.0
C1765 C 0.13708 0.67624 0.4451 0.0
C1766 C 0.16622 0.61506 0.47209 0.0
C1767 C 0.10753 0.6545 0.43746 0.0
C1768 C 0.11234 0.57538 0.43187 0.0
C1769 C 0.10405 0.56838 0.46129 0.0
C1770 C 0.12311 0.59606 0.42949 0.0
C1771 C 0.12582 0.61089 0.45695 0.0
C1772 C 0.11722 0.60397 0.48645 0.0
C1773 C 0.10684 0.58316 0.48826 0.0
C1774 C 0.13187 0.60188 0.39741 0.0
C1775 C 0.11893 0.6187 0.51654 0.0
H1776 H 0.17907 0.65911 0.46889 0.0
H1777 H 0.12953 0.69147 0.43816 0.0
H1778 H 0.16069 0.60781 0.49501 0.0
H1779 H 0.1647 0.60166 0.45301 0.0
H1780 H 0.18095 0.6188 0.47557 0.0
H1781 H 0.10233 0.67178 0.43067 0.0
H1782 H 0.10497 0.64251 0.41694 0.0
H1783 H 0.09958 0.64814 0.45858 0.0
H1784 H 0.11087 0.56436 0.41075 0.0
H1785 H 0.10085 0.57835 0.51136 0.0
H1786 H 0.14682 0.60383 0.40069 0.0
H1787 H 0.12659 0.61858 0.38843 0.0
H1788 H 0.12928 0.58852 0.3786 0.0
H1789 H 0.13351 0.6207 0.52321 0.0
H1790 H 0.11151 0.61134 0.53764 0.0
H1791 H 0.11349 0.63616 0.51161 0.0
C1792 C 0.27398 0.97646 0.31499 0.0
C1793 C 0.28915 -0.00829 0.30852 0.0
C1794 C 0.26176 0.9769 0.34401 0.0
C1795 C 0.26257 -0.00607 0.37023 0.0
C1796 C 0.27766 0.00982 0.36338 0.0
C1797 C 0.29021 0.00826 0.33477 0.0
C1798 C 0.24786 0.95789 0.34608 0.0
C1799 C 0.28081 0.02976 0.38606 0.0
C1800 C 0.21632 -0.00246 0.43163 0.0
C1801 C 0.22209 -0.00325 0.46528 0.0
C1802 C 0.2285 -0.00276 0.4024 0.0
C1803 C 0.24843 -0.00504 0.40319 0.0
C1804 C 0.25421 -0.00643 0.43721 0.0
C1805 C 0.24178 -0.00503 0.46587 0.0
C1806 C 0.21921 4e-05 0.37 0.0
C1807 C 0.2741 0.98999 0.44465 0.0
H1808 H 0.27161 0.96315 0.297 0.0
H1809 H 0.30089 0.02105 0.33275 0.0
H1810 H 0.24276 0.95526 0.37121 0.0
H1811 H 0.23619 0.9621 0.32996 0.0
H1812 H 0.25376 0.94145 0.33722 0.0
H1813 H 0.28436 0.04546 0.37205 0.0
H1814 H 0.26874 0.03357 0.40141 0.0
H1815 H 0.2926 0.02581 0.40204 0.0
H1816 H 0.20177 -0.00094 0.42758 0.0
H1817 H 0.24794 -0.00587 0.4898 0.0
H1818 H 0.21296 0.98339 0.36285 0.0
H1819 H 0.22874 0.00564 0.35062 0.0
H1820 H 0.208 0.01281 0.37183 0.0
H1821 H 0.28175 0.98294 0.42361 0.0
H1822 H 0.27576 0.97806 0.46553 0.0
H1823 H 0.28024 0.00668 0.4519 0.0
C1824 C 0.04623 0.24155 0.4309 0.0
C1825 C 0.04071 0.24248 0.46466 0.0
C1826 C 0.03384 0.24178 0.40192 0.0
C1827 C 0.0139 0.24406 0.40313 0.0
C1828 C 0.00838 0.24554 0.43726 0.0
C1829 C 0.02103 0.24426 0.46565 0.0
C1830 C 0.04287 0.23891 0.36933 0.0
C1831 C 0.98854 0.24909 0.44507 0.0
C1832 C 0.9877 0.26248 0.31557 0.0
C1833 C 0.97253 0.24716 0.30925 0.0
C1834 C 1.00012 0.26207 0.34434 0.0
C1835 C 0.99953 0.24502 0.37046 0.0
C1836 C 0.98444 0.22907 0.3638 0.0
C1837 C 0.9717 0.23057 0.3354 0.0
C1838 C 0.014 0.28111 0.34625 0.0
C1839 C 0.98149 0.20912 0.38646 0.0
H1840 H 0.06074 0.24003 0.42655 0.0
H1841 H 0.01504 0.24519 0.48971 0.0
H1842 H 0.0332 0.23327 0.35014 0.0
H1843 H 0.04908 0.25554 0.36206 0.0
H1844 H 0.0541 0.22614 0.37092 0.0
H1845 H 0.98701 0.26101 0.46604 0.0
H1846 H 0.98074 0.25612 0.4242 0.0
H1847 H 0.98247 0.23238 0.45233 0.0
H1848 H 0.98992 0.27581 0.29762 0.0
H1849 H 0.96105 0.21771 0.33346 0.0
H1850 H 0.02558 0.27693 0.32992 0.0
H1851 H 0.01925 0.28377 0.37129 0.0
H1852 H 0.00802 0.29754 0.33754 0.0
H1853 H 0.97787 0.1934 0.37246 0.0
H1854 H 0.96981 0.21305 0.40268 0.0
H1855 H 0.99367 0.20537 0.40156 0.0
C1856 C 0.21706 0.24013 1.09281 0.0
C1857 C 0.22255 0.24274 1.05923 0.0
C1858 C 0.22935 0.2406 1.12186 0.0
C1859 C 0.24906 0.24487 1.12097 0.0
C1860 C 0.25454 0.24803 1.08706 0.0
C1861 C 0.24205 0.24649 1.05847 0.0
C1862 C 0.22048 0.23579 0.15413 0.0
C1863 C 0.27414 0.25371 1.07975 0.0
C1864 C 0.27386 0.26292 0.20993 0.0
C1865 C 0.28977 0.24875 0.21545 0.0
C1866 C 0.26159 0.26229 0.18098 0.0
C1867 C 0.26323 0.24614 0.15381 0.0
C1868 C 0.2791 0.23137 0.15962 0.0
C1869 C 0.2916 0.2331 0.18829 0.0
C1870 C 0.24671 0.28008 0.18008 0.0
C1871 C 0.28322 0.2125 0.13567 0.0
H1872 H 0.20267 0.23707 1.0969 0.0
H1873 H 0.24796 0.24883 1.03456 0.0
H1874 H 0.23043 0.23044 0.17298 0.0
H1875 H 0.21332 0.25152 0.16252 0.0
H1876 H 0.21002 0.22206 0.15153 0.0
H1877 H 0.275 0.26641 1.05964 0.0
H1878 H 0.28146 0.26077 1.10118 0.0
H1879 H 0.28118 0.23788 1.07142 0.0
H1880 H 0.27088 0.27546 0.2287 0.0
H1881 H 0.30293 0.22119 0.18955 0.0
H1882 H 0.23535 0.27439 0.19596 0.0
H1883 H 0.24139 0.283 0.15515 0.0
H1884 H 0.25175 0.29673 0.1899 0.0
H1885 H 0.28773 0.19673 0.14861 0.0
H1886 H 0.29466 0.21802 1.11984 0.0
H1887 H 0.2713 0.20809 1.12021 0.0
C1888 C 0.99315 -0.00514 0.21708 0.0
C1889 C 0.97354 -0.00801 0.21642 0.0
C1890 C 1.00564 -0.00377 0.18848 0.0
C1891 C 1.00005 -0.00622 0.15447 0.0
C1892 C 0.9802 0.99043 0.15361 0.0
C1893 C 0.96793 0.99009 0.18275 0.0
C1894 C 0.02539 0.00096 0.19593 0.0
C1895 C 0.97112 0.98651 1.12124 0.0
C1896 C 0.02541 0.01188 1.06592 0.0
C1897 C 0.04097 -0.00283 1.05995 0.0
C1898 C 0.01309 0.01138 1.09483 0.0
C1899 C 0.01426 -0.00515 1.12158 0.0
C1900 C 0.02979 0.97954 1.11532 0.0
C1901 C 0.04236 0.98112 1.08671 0.0
C1902 C 0.99866 0.02974 1.09618 0.0
C1903 C 0.03344 0.96022 0.13873 0.0
H1904 H 0.99921 -0.0034 0.24102 0.0
H1905 H 0.95346 0.98772 0.17861 0.0
H1906 H 0.03201 0.98473 0.20377 0.0
H1907 H 0.03288 0.00798 0.17471 0.0
H1908 H 0.02663 0.01335 0.21642 0.0
H1909 H 0.96443 0.00269 1.11339 0.0
H1910 H 0.98089 0.98096 1.10218 0.0
H1911 H 0.96028 0.97325 1.12343 0.0
H1912 H 0.02274 0.02479 1.04755 0.0
H1913 H 0.05338 0.96878 1.08518 0.0
H1914 H 0.99344 0.03261 1.12118 0.0
H1915 H 0.98715 0.02466 1.08017 0.0
H1916 H 1.0041 0.04628 1.08677 0.0
H1917 H 0.04503 0.96508 0.15471 0.0
H1918 H 0.03752 0.94444 1.12534 0.0
H1919 H 0.02143 0.95613 0.15406 0.0
C1920 C 0.7169 -0.00284 0.93256 0.0
C1921 C 0.72257 -0.0025 0.96631 0.0
C1922 C 0.72915 -0.00331 0.9034 0.0
C1923 C 0.74915 -0.0046 0.90437 0.0
C1924 C 0.75485 -0.00482 0.93852 0.0
C1925 C 0.74231 -0.00332 0.96706 0.0
C1926 C 0.71986 -0.00184 0.87084 0.0
C1927 C 0.77482 -0.00721 0.94624 0.0
C1928 C 0.77556 0.97597 0.81716 0.0
C1929 C 0.79027 -0.00819 0.80998 0.0
C1930 C 0.76322 0.97654 0.84608 0.0
C1931 C 0.76341 -0.00576 0.87149 0.0
C1932 C 0.778 0.01068 0.86389 0.0
C1933 C 0.79067 0.00904 0.83543 0.0
C1934 C 0.74991 0.95695 0.84898 0.0
C1935 C 0.78047 0.03132 0.88557 0.0
H1936 H 0.70232 -0.00216 0.92833 0.0
H1937 H 0.74844 -0.00329 0.99105 0.0
H1938 H 0.72924 0.00376 0.85123 0.0
H1939 H 0.71418 0.98103 0.86451 0.0
H1940 H 0.70822 0.01037 0.87194 0.0
H1941 H 0.7768 0.98151 0.96774 0.0
H1942 H 0.78274 0.9856 0.92562 0.0
H1943 H 0.78041 0.00996 0.95265 0.0
H1944 H 0.77368 0.96209 0.79987 0.0
H1945 H 0.80096 0.0223 0.83288 0.0
H1946 H 0.73816 0.96019 0.83259 0.0
H1947 H 0.74482 0.95469 0.87418 0.0
H1948 H 0.75632 0.94059 0.84096 0.0
H1949 H 0.78358 0.04682 0.87081 0.0
H1950 H 0.79232 0.02835 0.90183 0.0
H1951 H 0.76824 0.03491 0.90061 0.0
C1952 C 0.04553 0.7384 0.93099 0.0
C1953 C 0.04033 0.74257 0.96443 0.0
C1954 C 0.03315 0.73878 0.902 0.0
C1955 C 0.01365 0.74439 0.90275 0.0
C1956 C 0.00847 0.74905 0.93648 0.0
C1957 C 0.02102 0.74772 0.96504 0.0
C1958 C 0.04168 0.73244 0.86995 0.0
C1959 C 0.98916 0.75617 0.94359 0.0
C1960 C 0.98905 0.76147 0.81319 0.0
C1961 C 0.97266 0.74797 0.80837 0.0
C1962 C 1.00144 0.76088 0.84201 0.0
C1963 C 0.99939 0.74553 0.86994 0.0
C1964 C 0.98299 0.73146 0.86493 0.0
C1965 C 0.97046 0.73307 0.83625 0.0
C1966 C 0.01697 0.77781 0.8419 0.0
C1967 C 0.97829 0.71353 0.8899 0.0
H1968 H 0.05974 0.73423 0.92696 0.0
H1969 H 0.01531 0.75132 0.9888 0.0
H1970 H 0.03143 0.7271 0.85155 0.0
H1971 H 0.04936 0.74747 0.86054 0.0
H1972 H 0.05162 0.71822 0.87323 0.0
H1973 H 0.98885 0.76944 0.96306 0.0
H1974 H 0.98209 0.76309 0.92183 0.0
H1975 H 0.98148 0.74103 0.95268 0.0
H1976 H 0.99237 0.77341 0.79388 0.0
H1977 H 0.95874 0.72171 0.83567 0.0
H1978 H 0.0281 0.77097 0.82639 0.0
H1979 H 0.02242 0.78117 0.86665 0.0
H1980 H 0.01257 0.79442 0.83113 0.0
H1981 H 0.97311 0.6977 0.87786 0.0
H1982 H 0.96717 0.72018 0.90561 0.0
H1983 H 0.99011 0.70888 0.90541 0.0
C1984 C 0.71846 0.7406 1.09304 0.0
C1985 C 0.72383 0.74283 1.05933 0.0
C1986 C 0.73085 0.741 1.12198 0.0
C1987 C 0.75063 0.74476 1.12086 0.0
C1988 C 0.75602 0.7475 1.08681 0.0
C1989 C 0.7434 0.7461 1.05834 0.0
C1990 C 0.72201 0.73671 0.15442 0.0
C1991 C 0.77569 0.75258 1.0792 0.0
C1992 C 0.77611 0.76283 0.2094 0.0
C1993 C 0.79178 0.74824 0.21505 0.0
C1994 C 0.76372 0.7623 0.18057 0.0
C1995 C 0.76495 0.7459 0.15361 0.0
C1996 C 0.78057 0.73073 0.15954 0.0
C1997 C 0.7932 0.73232 0.18809 0.0
C1998 C 0.74914 0.78049 0.17954 0.0
C1999 C 0.78429 0.71156 0.13584 0.0
H2000 H 0.70404 0.73795 1.09736 0.0
H2001 H 0.74927 0.74813 1.03434 0.0
H2002 H 0.73193 0.73122 0.17324 0.0
H2003 H 0.71519 0.75273 0.16264 0.0
H2004 H 0.71129 0.72329 0.15216 0.0
H2005 H 0.77671 0.76507 1.05886 0.0
H2006 H 0.7832 0.75962 1.10044 0.0
H2007 H 0.78243 0.73649 1.07109 0.0
H2008 H 0.77342 0.77563 0.22796 0.0
H2009 H 0.80431 0.72009 0.1894 0.0
H2010 H 0.73773 0.77522 0.1956 0.0
H2011 H 0.7438 0.78336 0.15461 0.0
H2012 H 0.75449 0.79707 0.18907 0.0
H2013 H 0.77224 0.70736 1.12059 0.0
H2014 H 0.78859 0.69578 0.14897 0.0
H2015 H 0.79575 0.71668 1.11978 0.0
C2016 C 0.21908 0.50239 0.93094 0.0
C2017 C 0.22444 0.5002 0.9647 0.0
C2018 C 0.23148 0.50204 0.90203 0.0
C2019 C 0.25125 0.49828 0.90316 0.0
C2020 C 0.25664 0.49557 0.93726 0.0
C2021 C 0.24401 0.49699 0.96572 0.0
C2022 C 0.22261 0.5064 0.8696 0.0
C2023 C 0.27629 0.49046 0.94494 0.0
C2024 C 0.27644 0.48017 0.8144 0.0
C2025 C 0.29227 0.49452 0.80874 0.0
C2026 C 0.26413 0.48076 0.8433 0.0
C2027 C 0.26555 0.49706 0.87037 0.0
C2028 C 0.28134 0.51203 0.86443 0.0
C2029 C 0.29391 0.51034 0.83582 0.0
C2030 C 0.24942 0.46271 0.84427 0.0
C2031 C 0.28528 0.53111 0.88818 0.0
H2032 H 0.20466 0.50499 0.92657 0.0
H2033 H 0.24988 0.49494 0.98974 0.0
H2034 H 0.23254 0.51182 0.85076 0.0
H2035 H 0.21566 0.49045 0.86139 0.0
H2036 H 0.21199 0.51991 0.87188 0.0
H2037 H 0.27728 0.47798 0.9653 0.0
H2038 H 0.28377 0.4834 0.92373 0.0
H2039 H 0.28307 0.50655 0.95305 0.0
H2040 H 0.27357 0.46748 0.79577 0.0
H2041 H 0.30514 0.52243 0.83453 0.0
H2042 H 0.23805 0.46808 0.82816 0.0
H2043 H 0.24406 0.45986 0.86917 0.0
H2044 H 0.25465 0.44608 0.83474 0.0
H2045 H 0.28967 0.54686 0.87508 0.0
H2046 H 0.29674 0.52585 0.90417 0.0
H2047 H 0.2733 0.53542 0.90349 0.0
C2048 C 0.21809 0.74103 0.59035 0.0
C2049 C 0.22375 0.74312 0.55677 0.0
C2050 C 0.23029 0.74126 0.61959 0.0
C2051 C 0.25012 0.74475 0.61895 0.0
C2052 C 0.25578 0.74742 0.58504 0.0
C2053 C 0.24336 0.7461 0.55631 0.0
C2054 C 0.22117 0.73703 0.6518 0.0
C2055 C 0.27551 0.75236 0.57785 0.0
C2056 C 0.27509 0.76248 0.70809 0.0
C2057 C 0.29077 0.74794 0.71391 0.0
C2058 C 0.26287 0.76206 0.67903 0.0
C2059 C 0.26425 0.74575 0.65199 0.0
C2060 C 0.27988 0.73058 0.65811 0.0
C2061 C 0.29238 0.73212 0.68687 0.0
C2062 C 0.24833 0.78028 0.67785 0.0
C2063 C 0.28371 0.71145 0.63442 0.0
H2064 H 0.20361 0.73855 0.5943 0.0
H2065 H 0.24944 0.748 0.53246 0.0
H2066 H 0.23092 0.73148 0.67088 0.0
H2067 H 0.21433 0.75308 0.65984 0.0
H2068 H 0.21043 0.72366 0.64926 0.0
H2069 H 0.27672 0.76489 0.55759 0.0
H2070 H 0.28293 0.75931 0.59926 0.0
H2071 H 0.28223 0.73623 0.5698 0.0
H2072 H 0.27227 0.77519 0.7267 0.0
H2073 H 0.30349 0.7199 0.68831 0.0
H2074 H 0.23682 0.77499 0.69369 0.0
H2075 H 0.24313 0.78325 0.65286 0.0
H2076 H 0.25365 0.79682 0.68758 0.0
H2077 H 0.28785 0.69562 0.6476 0.0
H2078 H 0.29533 0.71652 0.61869 0.0
H2079 H 0.27178 0.70734 0.61885 0.0
C2080 C 0.02109 0.49483 0.55629 0.0
C2081 C 0.04053 0.49923 0.55716 0.0
C2082 C 0.00849 0.49348 0.58478 0.0
C2083 C 0.01373 0.49745 0.61872 0.0
C2084 C 0.03335 0.50236 0.61969 0.0
C2085 C 0.04576 0.50268 0.59078 0.0
C2086 C 0.98903 0.4871 0.57735 0.0
C2087 C 0.04201 0.50804 0.65191 0.0
C2088 C 0.97069 0.50906 0.68545 0.0
C2089 C 0.97273 0.49393 0.71316 0.0
C2090 C 0.98323 0.51065 0.65678 0.0
C2091 C 0.99943 0.49631 0.65151 0.0
C2092 C 1.00128 0.48072 0.67923 0.0
C2093 C 0.98894 0.48019 0.70809 0.0
C2094 C 0.97876 0.52891 0.63216 0.0
C2095 C 0.01653 0.46341 0.67907 0.0
H2096 H 0.01532 0.49181 0.53239 0.0
H2097 H 0.06006 0.50627 0.59504 0.0
H2098 H 0.98178 0.48016 0.59888 0.0
H2099 H 0.98172 0.50258 0.56853 0.0
H2100 H 0.98847 0.47407 0.55757 0.0
H2101 H 0.0522 0.52204 0.64902 0.0
H2102 H 0.03188 0.51342 0.67044 0.0
H2103 H 0.04943 0.49269 0.66092 0.0
H2104 H 0.95913 0.52063 0.68622 0.0
H2105 H 0.99214 0.46805 0.72723 0.0
H2106 H 0.96752 0.52266 0.61635 0.0
H2107 H 0.99063 0.53346 0.61673 0.0
H2108 H 0.97384 0.54475 0.64451 0.0
H2109 H 0.01182 0.44679 0.68939 0.0
H2110 H 0.02773 0.46977 0.69488 0.0
H2111 H 0.02198 0.46021 0.6543 0.0
C2112 C 0.79257 0.5077 0.33461 0.0
C2113 C 0.79135 0.49145 0.30798 0.0
C2114 C 0.77989 0.50937 0.36308 0.0
C2115 C 0.76445 0.4939 0.36943 0.0
C2116 C 0.76347 0.47715 0.34284 0.0
C2117 C 0.77583 0.47663 0.31397 0.0
C2118 C 0.7833 0.52901 0.38615 0.0
C2119 C 0.74923 0.45853 0.34433 0.0
C2120 C 0.74312 0.49484 0.46484 0.0
C2121 C 0.72345 0.49706 0.464 0.0
C2122 C 0.75569 0.49332 0.43636 0.0
C2123 C 0.75014 0.49505 0.40223 0.0
C2124 C 0.73023 0.49779 0.40119 0.0
C2125 C 0.7179 0.49819 0.43024 0.0
C2126 C 0.77548 0.48921 0.4441 0.0
C2127 C 0.72115 0.50105 0.36869 0.0
H2128 H 0.8035 0.52019 0.33301 0.0
H2129 H 0.77327 0.46358 0.29569 0.0
H2130 H 0.77124 0.53304 0.40138 0.0
H2131 H 0.79494 0.52458 0.40223 0.0
H2132 H 0.78722 0.54473 0.37248 0.0
H2133 H 0.75488 0.442 0.33528 0.0
H2134 H 0.74394 0.45583 0.36931 0.0
H2135 H 0.73773 0.46321 0.32806 0.0
H2136 H 0.74915 0.49372 0.48886 0.0
H2137 H 0.7034 0.50007 0.42595 0.0
H2138 H 0.78182 0.5057 0.45171 0.0
H2139 H 0.78314 0.48214 0.42309 0.0
H2140 H 0.77683 0.47709 0.46483 0.0
H2141 H 0.71013 0.51409 0.37053 0.0
H2142 H 0.71466 0.48461 0.36122 0.0
H2143 H 0.73086 0.50654 0.34953 0.0
C2144 C 0.74558 0.24442 0.55568 0.0
C2145 C 0.72595 0.24167 0.5561 0.0
C2146 C 0.75796 0.24583 0.58446 0.0
C2147 C 0.75221 0.24356 0.61839 0.0
C2148 C 0.73236 0.24031 0.61898 0.0
C2149 C 0.72021 0.23994 0.58968 0.0
C2150 C 0.77775 0.25039 0.57732 0.0
C2151 C 0.72315 0.23655 0.65122 0.0
C2152 C 0.79412 0.23093 0.68695 0.0
C2153 C 0.79266 0.24713 0.71357 0.0
C2154 C 0.78169 0.2293 0.65812 0.0
C2155 C 0.76627 0.24469 0.6515 0.0
C2156 C 0.76503 0.26136 0.67811 0.0
C2157 C 0.77719 0.26192 0.70724 0.0
C2158 C 0.78536 0.20983 0.6349 0.0
C2159 C 0.75069 0.27982 0.67638 0.0
H2160 H 0.75171 0.24603 0.53183 0.0
H2161 H 0.70572 0.23766 0.59359 0.0
H2162 H 0.78517 0.25748 0.59864 0.0
H2163 H 0.78434 0.23407 0.56972 0.0
H2164 H 0.77913 0.26266 0.55677 0.0
H2165 H 0.71228 0.22332 0.64891 0.0
H2166 H 0.73282 0.23104 0.67046 0.0
H2167 H 0.71646 0.25278 0.65891 0.0
H2168 H 0.80508 0.21852 0.68878 0.0
H2169 H 0.77449 0.27493 0.7255 0.0
H2170 H 0.79705 0.21452 0.61911 0.0
H2171 H 0.7734 0.20574 0.61936 0.0
H2172 H 0.7893 0.19408 0.64847 0.0
H2173 H 0.75616 0.29637 0.68578 0.0
H2174 H 0.73908 0.27492 0.69222 0.0
H2175 H 0.7456 0.28259 0.65127 0.0
C2176 C 0.54357 0.25892 0.93428 0.0
C2177 C 0.54184 0.24361 0.96182 0.0
C2178 C 0.53078 0.26062 0.90599 0.0
C2179 C 0.51471 0.246 0.90074 0.0
C2180 C 0.51321 0.23014 0.92827 0.0
C2181 C 0.5257 0.22968 0.95699 0.0
C2182 C 0.5348 0.2794 0.8819 0.0
C2183 C 0.49826 0.21238 0.92798 0.0
C2184 C 0.46801 0.25136 0.8405 0.0
C2185 C 0.47332 0.24923 0.80673 0.0
C2186 C 0.48049 0.25101 0.86936 0.0
C2187 C 0.50027 0.24716 0.86812 0.0
C2188 C 0.50555 0.24436 0.83399 0.0
C2189 C 0.49288 0.24597 0.80563 0.0
C2190 C 0.47173 0.25559 0.9018 0.0
C2191 C 0.52511 0.23889 0.82613 0.0
H2192 H 0.55504 0.27067 0.93499 0.0
H2193 H 0.52275 0.21738 0.97604 0.0
H2194 H 0.54616 0.27382 0.8659 0.0
H2195 H 0.52281 0.28378 0.86666 0.0
H2196 H 0.53941 0.29521 0.89473 0.0
H2197 H 0.4871 0.21815 0.94427 0.0
H2198 H 0.49266 0.20936 0.90326 0.0
H2199 H 0.50337 0.19577 0.93769 0.0
H2200 H 0.45361 0.25406 0.84492 0.0
H2201 H 0.49869 0.24397 0.78157 0.0
H2202 H 0.48174 0.261 0.92057 0.0
H2203 H 0.46469 0.23976 0.9101 0.0
H2204 H 0.4612 0.26921 0.8995 0.0
H2205 H 0.53198 0.25476 0.81752 0.0
H2206 H 0.52585 0.22613 0.80603 0.0
H2207 H 0.53267 0.23196 0.84735 0.0
C2208 C 0.48743 0.97698 0.7096 0.0
C2209 C 0.47229 -0.00766 0.71585 0.0
C2210 C 0.49994 0.97735 0.68091 0.0
C2211 C 0.4995 -0.00559 0.65475 0.0
C2212 C 0.48444 0.0104 0.66135 0.0
C2213 C 0.47162 0.00893 0.68965 0.0
C2214 C 0.51372 0.95824 0.67913 0.0
C2215 C 0.48162 0.0304 0.63873 0.0
C2216 C 0.54639 -0.00245 0.5945 0.0
C2217 C 0.54094 -0.00316 0.56064 0.0
C2218 C 0.53394 -0.00264 0.62342 0.0
C2219 C 0.51397 -0.00468 0.62212 0.0
C2220 C 0.50852 -0.00595 0.58789 0.0
C2221 C 0.52122 -0.0047 0.55957 0.0
C2222 C 0.54297 1e-05 0.65608 0.0
C2223 C 0.48866 -0.00924 0.57986 0.0
H2224 H 0.48958 0.96362 0.72754 0.0
H2225 H 0.46101 0.02183 0.69146 0.0
H2226 H 0.51902 0.95557 0.65414 0.0
H2227 H 0.52528 0.96235 0.69559 0.0
H2228 H 0.50765 0.94184 0.68776 0.0
H2229 H 0.47805 0.04611 0.65274 0.0
H2230 H 0.49384 0.03411 0.62374 0.0
H2231 H 0.46994 0.02656 0.6224 0.0
H2232 H 0.56091 -0.0011 0.59899 0.0
H2233 H 0.51525 -0.00543 0.53548 0.0
H2234 H 0.54902 0.98329 0.66328 0.0
H2235 H 0.53332 0.00569 0.67524 0.0
H2236 H 0.5543 0.01266 0.65465 0.0
H2237 H 0.48707 0.97892 0.5588 0.0
H2238 H 0.48275 0.00756 0.57264 0.0
H2239 H 0.48076 0.98376 0.60061 0.0
C2240 C 0.47002 0.73086 0.33633 0.0
C2241 C 0.47121 0.74735 0.3101 0.0
C2242 C 0.48257 0.7292 0.36499 0.0
C2243 C 0.49779 0.7449 0.37189 0.0
C2244 C 0.49873 0.76188 0.3457 0.0
C2245 C 0.4865 0.76242 0.31666 0.0
C2246 C 0.47926 0.70935 0.38765 0.0
C2247 C 0.51277 0.78072 0.34782 0.0
C2248 C 0.51873 0.74385 0.46752 0.0
C2249 C 0.5384 0.74186 0.46687 0.0
C2250 C 0.50625 0.74531 0.43889 0.0
C2251 C 0.51195 0.74376 0.40485 0.0
C2252 C 0.53187 0.74124 0.40401 0.0
C2253 C 0.54409 0.74088 0.4332 0.0
C2254 C 0.4864 0.74912 0.44635 0.0
C2255 C 0.54107 0.73821 0.3716 0.0
H2256 H 0.45924 0.71819 0.33425 0.0
H2257 H 0.48899 0.77566 0.29869 0.0
H2258 H 0.49131 0.70541 0.40301 0.0
H2259 H 0.46752 0.71349 0.40362 0.0
H2260 H 0.47556 0.69366 0.37364 0.0
H2261 H 0.50699 0.79722 0.33899 0.0
H2262 H 0.51791 0.78332 0.37295 0.0
H2263 H 0.52439 0.77635 0.33169 0.0
H2264 H 0.51262 0.74484 0.49147 0.0
H2265 H 0.55862 0.73919 0.42911 0.0
H2266 H 0.48015 0.7325 0.45355 0.0
H2267 H 0.47877 0.75623 0.42533 0.0
H2268 H 0.48485 0.76108 0.46727 0.0
H2269 H 0.55217 0.72528 0.37342 0.0
H2270 H 0.54747 0.75474 0.36442 0.0
H2271 H 0.53146 0.73269 0.35223 0.0
C2272 C 0.47265 0.50815 0.18771 0.0
C2273 C 0.47453 0.49247 0.21478 0.0
C2274 C 0.48507 0.50987 0.15895 0.0
C2275 C 0.50088 0.49503 0.15285 0.0
C2276 C 0.50255 0.47885 0.17991 0.0
C2277 C 0.49039 0.47826 0.209 0.0
C2278 C 0.48093 0.52885 1.13522 0.0
C2279 C 0.51735 0.46095 0.17874 0.0
C2280 C 0.52155 0.49484 1.05716 0.0
C2281 C 0.5411 0.49828 1.05759 0.0
C2282 C 0.50921 0.49332 1.08592 0.0
C2283 C 0.51491 0.49624 1.11979 0.0
C2284 C 0.53468 0.50021 1.12039 0.0
C2285 C 0.54681 0.50063 1.09112 0.0
C2286 C 0.48954 0.48789 1.07881 0.0
C2287 C 0.5438 0.50477 0.15256 0.0
H2288 H 0.46136 0.52011 0.18913 0.0
H2289 H 0.49341 0.46567 0.22764 0.0
H2290 H 0.49279 0.53317 1.11963 0.0
H2291 H 0.46936 0.52348 1.11953 0.0
H2292 H 0.47661 0.54463 0.14839 0.0
H2293 H 0.51228 0.44433 0.18851 0.0
H2294 H 0.52255 0.45802 0.15374 0.0
H2295 H 0.5288 0.46654 0.19455 0.0
H2296 H 0.51545 0.49272 1.03332 0.0
H2297 H 0.56125 0.50346 1.09502 0.0
H2298 H 0.48257 0.50382 1.07071 0.0
H2299 H 0.48227 0.48086 1.10026 0.0
H2300 H 0.48848 0.47525 1.05859 0.0
H2301 H 0.534 0.51016 0.17165 0.0
H2302 H 0.55434 0.51838 0.14996 0.0
H2303 H 0.55088 0.48891 0.16063 0.0
C2304 C 0.37394 0.00602 1.09267 0.0
C2305 C 0.35714 -0.00551 1.10136 0.0
C2306 C 0.38267 0.00637 1.05981 0.0
C2307 C 0.37565 -0.00547 1.03092 0.0
C2308 C 0.35876 0.98267 1.03968 0.0
C2309 C 0.3502 0.98298 1.07264 0.0
C2310 C 0.39991 0.02022 1.05668 0.0
C2311 C 0.34912 0.9688 1.01395 0.0
C2312 C 0.38655 0.00434 0.93108 0.0
C2313 C 0.40401 -0.00574 0.92294 0.0
C2314 C 0.37781 0.00475 0.96393 0.0
C2315 C 0.38551 -0.00552 0.99339 0.0
C2316 C 0.40308 0.98409 0.98521 0.0
C2317 C 0.41162 0.98431 0.95223 0.0
C2318 C 0.35978 0.01695 0.96639 0.0
C2319 C 0.41351 0.97196 1.01163 0.0
H2320 H 0.38065 0.0154 1.11209 0.0
H2321 H 0.33756 0.97358 1.07576 0.0
H2322 H 0.41156 0.0097 1.06534 0.0
H2323 H 0.40259 0.02555 1.03121 0.0
H2324 H 0.39929 0.03585 1.07222 0.0
H2325 H 0.33805 0.97939 1.00329 0.0
H2326 H 0.35843 0.96332 0.99414 0.0
H2327 H 0.3427 0.95326 1.0247 0.0
H2328 H 0.37931 0.01246 0.91121 0.0
H2329 H 0.42479 0.97611 0.94957 0.0
H2330 H 0.35677 0.0227 0.99157 0.0
H2331 H 0.34881 0.00507 0.9583 0.0
H2332 H 0.35946 0.03214 0.95004 0.0
H2333 H 0.4239 0.98392 1.02169 0.0
H2334 H 0.42087 0.95682 1.00168 0.0
H2335 H 0.40455 0.96615 1.03174 0.0
C2336 C 0.88832 0.23441 1.09237 0.0
C2337 C 0.90536 0.24532 1.10129 0.0
C2338 C 0.87982 0.2341 1.05931 0.0
C2339 C 0.88734 0.24536 1.03045 0.0
C2340 C 0.90447 0.25662 1.03945 0.0
C2341 C 0.9128 0.25624 1.0726 0.0
C2342 C 0.86227 0.22089 1.05593 0.0
C2343 C 0.91462 0.26988 1.0138 0.0
C2344 C 0.87696 0.23522 0.93049 0.0
C2345 C 0.85973 0.2457 0.92188 0.0
C2346 C 0.88547 0.23476 0.96354 0.0
C2347 C 0.87775 0.24545 0.99271 0.0
C2348 C 0.86043 0.25628 0.98403 0.0
C2349 C 0.8521 0.25605 0.95087 0.0
C2350 C 0.90324 0.22204 0.96654 0.0
C2351 C 0.85005 0.26893 1.01004 0.0
H2352 H 0.88125 0.22551 1.11175 0.0
H2353 H 0.92566 0.26514 1.07592 0.0
H2354 H 0.85084 0.2319 1.0643 0.0
H2355 H 0.85959 0.2155 1.03046 0.0
H2356 H 0.86244 0.20534 1.07161 0.0
H2357 H 0.92125 0.28533 1.02452 0.0
H2358 H 0.92558 0.25884 1.00372 0.0
H2359 H 0.90561 0.27544 0.99359 0.0
H2360 H 0.88419 0.22677 0.91086 0.0
H2361 H 0.83909 0.26459 0.94781 0.0
H2362 H 0.90602 0.21645 0.99186 0.0
H2363 H 0.91447 0.23349 0.95848 0.0
H2364 H 0.90334 0.20668 0.95044 0.0
H2365 H 0.83928 0.25744 1.01979 0.0
H2366 H 0.84316 0.28431 0.99976 0.0
H2367 H 0.85896 0.27451 1.03042 0.0
C2368 C 0.34792 0.23884 0.45312 0.0
C2369 C 0.357 0.24495 0.42316 0.0
C2370 C 0.35632 0.2379 0.48617 0.0
C2371 C 0.3751 0.2446 0.4939 0.0
C2372 C 0.38418 0.25151 0.46368 0.0
C2373 C 0.37568 0.25093 0.43066 0.0
C2374 C 0.34436 0.22875 0.51292 0.0
C2375 C 0.40338 0.26058 0.46534 0.0
C2376 C 0.38617 0.25578 0.59348 0.0
C2377 C 0.40277 0.24398 0.60243 0.0
C2378 C 0.37786 0.25668 0.56033 0.0
C2379 C 0.38472 0.24441 0.53166 0.0
C2380 C 0.40128 0.23194 0.54096 0.0
C2381 C 0.40984 0.23251 0.5739 0.0
C2382 C 0.3615 0.27207 0.55668 0.0
C2383 C 0.41048 0.21683 0.51618 0.0
H2384 H 0.33373 0.23388 0.45086 0.0
H2385 H 0.384 0.25617 0.41021 0.0
H2386 H 0.35228 0.22288 0.53435 0.0
H2387 H 0.33472 0.24241 0.52059 0.0
H2388 H 0.33603 0.2141 0.50387 0.0
H2389 H 0.40505 0.27541 0.44858 0.0
H2390 H 0.40729 0.26617 0.4902 0.0
H2391 H 0.41291 0.24697 0.45703 0.0
H2392 H 0.37959 0.26544 0.61271 0.0
H2393 H 0.42237 0.22295 0.57733 0.0
H2394 H 0.34936 0.26321 0.56681 0.0
H2395 H 0.35879 0.27676 0.53098 0.0
H2396 H 0.36342 0.28814 0.57093 0.0
H2397 H 0.41524 0.20064 0.5277 0.0
H2398 H 0.42274 0.2258 0.50675 0.0
H2399 H 0.40139 0.21235 0.49554 0.0
C2400 C 0.91392 0.00024 0.4543 0.0
C2401 C 0.9051 -0.00589 0.42398 0.0
C2402 C 0.90535 0.00078 0.48727 0.0
C2403 C 0.88662 -0.00633 0.49466 0.0
C2404 C 0.8778 0.98679 0.46407 0.0
C2405 C 0.88647 0.98769 0.43116 0.0
C2406 C 0.91709 0.00996 0.51438 0.0
C2407 C 0.85869 0.9774 0.46518 0.0
C2408 C 0.87506 0.98184 0.59417 0.0
C2409 C 0.85827 -0.00671 0.60305 0.0
C2410 C 0.88359 0.98125 0.56112 0.0
C2411 C 0.87677 -0.0065 0.53237 0.0
C2412 C 0.86003 0.00562 0.5416 0.0
C2413 C 0.85131 0.00478 0.57442 0.0
C2414 C 0.90018 0.96624 0.55764 0.0
C2415 C 0.8508 0.02068 0.51683 0.0
H2416 H 0.92805 0.00551 0.45242 0.0
H2417 H 0.87829 0.98241 0.41048 0.0
H2418 H 0.90901 0.0156 0.53574 0.0
H2419 H 0.92681 -0.00361 0.52206 0.0
H2420 H 0.92534 0.02477 0.50572 0.0
H2421 H 0.85726 0.96264 0.44816 0.0
H2422 H 0.8547 0.97162 0.48988 0.0
H2423 H 0.84907 -0.0091 0.45688 0.0
H2424 H 0.88168 0.97222 0.61339 0.0
H2425 H 0.83868 0.01417 0.57769 0.0
H2426 H 0.91214 0.97534 0.56809 0.0
H2427 H 0.90309 0.9617 0.53195 0.0
H2428 H 0.89841 0.95008 0.57169 0.0
H2429 H 0.84574 0.03671 0.52847 0.0
H2430 H 0.83873 0.0115 0.50694 0.0
H2431 H 0.85997 0.02547 0.49649 0.0
C2432 C 0.636 0.98493 0.18111 0.0
C2433 C 0.65369 -0.00579 0.17271 0.0
C2434 C 0.62762 0.98449 0.21425 0.0
C2435 C 0.63592 -0.00587 0.24373 0.0
C2436 C 0.65372 0.00379 0.2352 0.0
C2437 C 0.66192 0.00342 0.20198 0.0
C2438 C 0.60935 0.97287 0.21697 0.0
C2439 C 0.66481 0.01536 0.26137 0.0
C2440 C 0.60121 0.00538 0.32393 0.0
C2441 C 0.60859 -0.00568 0.35257 0.0
C2442 C 0.60949 0.00575 0.29076 0.0
C2443 C 0.62644 -0.00583 0.28158 0.0
C2444 C 0.63387 0.98269 0.3104 0.0
C2445 C 0.62549 0.98318 0.34354 0.0
C2446 C 0.59952 0.01949 0.26538 0.0
C2447 C 0.65114 0.96896 0.30691 0.0
H2448 H 0.62831 0.97737 0.16127 0.0
H2449 H 0.67533 0.011 0.19908 0.0
H2450 H 0.60625 0.96738 0.24221 0.0
H2451 H 0.59861 0.98498 0.20873 0.0
H2452 H 0.60872 0.95757 0.2008 0.0
H2453 H 0.67202 0.03064 0.25147 0.0
H2454 H 0.65636 0.02088 0.28234 0.0
H2455 H 0.6754 0.00321 0.2701 0.0
H2456 H 0.58848 0.01451 0.32733 0.0
H2457 H 0.63251 0.97413 0.36286 0.0
H2458 H 0.58805 0.00903 0.25574 0.0
H2459 H 0.60846 0.02459 0.24487 0.0
H2460 H 0.59355 0.03526 0.2763 0.0
H2461 H 0.65054 0.95322 0.32215 0.0
H2462 H 0.66277 0.97946 0.3158 0.0
H2463 H 0.6538 0.96381 0.28135 0.0
C2464 C 0.12513 0.75881 0.17967 0.0
C2465 C 0.10874 0.74643 0.17077 0.0
C2466 C 0.13389 0.7593 0.21256 0.0
C2467 C 0.12732 0.74679 0.24117 0.0
C2468 C 0.11087 0.7341 0.23215 0.0
C2469 C 0.10227 0.73427 0.19923 0.0
C2470 C 0.15066 0.77403 0.21605 0.0
C2471 C 0.10176 0.71946 0.25755 0.0
C2472 C 0.16352 0.73732 0.31968 0.0
C2473 C 0.15563 0.74659 0.34919 0.0
C2474 C 0.15501 0.73713 0.28666 0.0
C2475 C 0.13718 0.74684 0.2787 0.0
C2476 C 0.12918 0.75642 0.3084 0.0
C2477 C 0.13792 0.75601 0.34127 0.0
C2478 C 0.16578 0.7258 0.25994 0.0
C2479 C 0.11081 0.76782 0.30619 0.0
H2480 H 0.13148 0.76872 0.16047 0.0
H2481 H 0.08998 0.72419 0.1959 0.0
H2482 H 0.1532 0.77919 0.24166 0.0
H2483 H 0.16263 0.76423 0.2071 0.0
H2484 H 0.14948 0.78978 0.20093 0.0
H2485 H 0.09573 0.70378 0.2464 0.0
H2486 H 0.11133 0.71415 0.27707 0.0
H2487 H 0.09045 0.72939 0.26868 0.0
H2488 H 0.1769 0.72966 0.32219 0.0
H2489 H 0.13045 0.76356 0.36134 0.0
H2490 H 0.17566 0.73842 0.25 0.0
H2491 H 0.15694 0.71961 0.23981 0.0
H2492 H 0.17372 0.71103 0.26952 0.0
H2493 H 0.1101 0.78286 0.32284 0.0
H2494 H 0.1002 0.75541 0.31406 0.0
H2495 H 0.10759 0.77362 0.28113 0.0
C2496 C 0.66282 0.73526 0.82238 0.0
C2497 C 0.65487 0.74373 0.85232 0.0
C2498 C 0.6541 0.73487 0.78954 0.0
C2499 C 0.63597 0.74393 0.78199 0.0
C2500 C 0.62792 0.75284 0.81213 0.0
C2501 C 0.63681 0.75232 0.84494 0.0
C2502 C 0.66498 0.7239 0.76268 0.0
C2503 C 0.60936 0.76379 0.81052 0.0
C2504 C 0.62422 0.75522 0.68255 0.0
C2505 C 0.60736 0.74378 0.67389 0.0
C2506 C 0.63294 0.75577 0.71547 0.0
C2507 C 0.626 0.74397 0.74443 0.0
C2508 C 0.6091 0.73205 0.7356 0.0
C2509 C 0.60043 0.73244 0.70268 0.0
C2510 C 0.65002 0.76997 0.71854 0.0
C2511 C 0.59959 0.7179 0.76108 0.0
H2512 H 0.67644 0.72822 0.82444 0.0
H2513 H 0.62925 0.75932 0.8653 0.0
H2514 H 0.65632 0.71827 0.74199 0.0
H2515 H 0.6752 0.73645 0.7537 0.0
H2516 H 0.6726 0.70876 0.77197 0.0
H2517 H 0.60867 0.77892 0.82702 0.0
H2518 H 0.60573 0.7694 0.78555 0.0
H2519 H 0.59903 0.75122 0.81905 0.0
H2520 H 0.63092 0.76453 0.66312 0.0
H2521 H 0.58777 0.72306 0.69959 0.0
H2522 H 0.66168 0.75998 0.70874 0.0
H2523 H 0.65302 0.77485 0.7441 0.0
H2524 H 0.64888 0.7859 0.70379 0.0
H2525 H 0.60883 0.71286 0.78123 0.0
H2526 H 0.59371 0.70206 0.75013 0.0
H2527 H 0.5881 0.72802 0.77125 0.0
C2528 C 0.12585 0.9843 0.84402 0.0
C2529 C 0.10876 -0.00486 0.85261 0.0
C2530 C 0.13446 0.98386 0.81106 0.0
C2531 C 0.12703 -0.00503 0.78198 0.0
C2532 C 0.10986 0.00618 0.79066 0.0
C2533 C 0.1014 0.00589 0.8237 0.0
C2534 C 0.15202 0.97067 0.80806 0.0
C2535 C 0.09978 0.01934 0.7648 0.0
C2536 C 0.16261 0.00528 0.70278 0.0
C2537 C 0.15499 -0.00498 0.67367 0.0
C2538 C 0.15418 0.00561 0.73584 0.0
C2539 C 0.13675 -0.00506 0.74433 0.0
C2540 C 0.12905 0.98432 0.71504 0.0
C2541 C 0.13765 0.98472 0.68209 0.0
C2542 C 0.16457 0.0182 0.76195 0.0
C2543 C 0.11119 0.97173 0.71781 0.0
H2544 H 0.13288 0.97552 0.86358 0.0
H2545 H 0.08852 0.01473 0.82674 0.0
H2546 H 0.15484 0.96528 0.78266 0.0
H2547 H 0.16341 0.98169 0.81669 0.0
H2548 H 0.15174 0.95513 0.82374 0.0
H2549 H 0.0932 0.03486 0.77531 0.0
H2550 H 0.10883 0.02476 0.74458 0.0
H2551 H 0.08878 0.00828 0.75477 0.0
H2552 H 0.17569 0.0137 0.69988 0.0
H2553 H 0.13041 0.97635 0.66237 0.0
H2554 H 0.1753 0.00667 0.77175 0.0
H2555 H 0.15566 0.02379 0.78228 0.0
H2556 H 0.17152 0.03356 0.75174 0.0
H2557 H 0.1111 0.9563 0.70184 0.0
H2558 H 0.10006 0.9832 0.7094 0.0
H2559 H 0.10824 0.96626 0.74311 0.0
C2560 C 0.37814 0.48689 0.59335 0.0
C2561 C 0.36026 0.49573 0.60124 0.0
C2562 C 0.38664 0.48599 0.56033 0.0
C2563 C 0.37853 0.49538 0.53054 0.0
C2564 C 0.36061 0.50493 0.53871 0.0
C2565 C 0.35205 0.50431 0.57165 0.0
C2566 C 0.40468 0.47379 0.55816 0.0
C2567 C 0.34984 0.51693 0.51259 0.0
C2568 C 0.41467 0.50415 0.45159 0.0
C2569 C 0.40657 0.49505 0.42217 0.0
C2570 C 0.40609 0.50502 0.4845 0.0
C2571 C 0.38827 0.49524 0.49283 0.0
C2572 C 0.38026 0.48534 0.46322 0.0
C2573 C 0.38877 0.48599 0.4302 0.0
C2574 C 0.41672 0.51755 0.51037 0.0
C2575 C 0.36234 0.47286 0.46561 0.0
H2576 H 0.38575 0.4796 0.61344 0.0
H2577 H 0.33852 0.51155 0.57417 0.0
H2578 H 0.40806 0.46845 0.53296 0.0
H2579 H 0.41556 0.48534 0.56746 0.0
H2580 H 0.40465 0.45826 0.57387 0.0
H2581 H 0.34313 0.53252 0.52261 0.0
H2582 H 0.35841 0.52214 0.49163 0.0
H2583 H 0.33886 0.50529 0.50393 0.0
H2584 H 0.42814 0.51159 0.44893 0.0
H2585 H 0.38125 0.47831 0.41024 0.0
H2586 H 0.42783 0.50623 0.51927 0.0
H2587 H 0.40809 0.52285 0.53122 0.0
H2588 H 0.42327 0.53314 0.50003 0.0
H2589 H 0.359 0.46776 0.49091 0.0
H2590 H 0.36253 0.45714 0.4502 0.0
H2591 H 0.35135 0.48411 0.45607 0.0
C2592 C 0.88697 0.75082 0.59261 0.0
C2593 C 0.90529 0.74368 0.60072 0.0
C2594 C 0.87874 0.75139 0.55938 0.0
C2595 C 0.88771 0.74334 0.52961 0.0
C2596 C 0.90611 0.73552 0.53798 0.0
C2597 C 0.9143 0.73646 0.57118 0.0
C2598 C 0.86 0.76176 0.55699 0.0
C2599 C 0.91786 0.72516 0.51181 0.0
C2600 C 0.85303 0.73228 0.4492 0.0
C2601 C 0.86085 0.74267 0.4205 0.0
C2602 C 0.86131 0.73172 0.48235 0.0
C2603 C 0.87836 0.74314 0.49165 0.0
C2604 C 0.88599 0.75437 0.46279 0.0
C2605 C 0.8779 0.75343 0.42948 0.0
C2606 C 0.85122 0.71777 0.50736 0.0
C2607 C 0.90299 0.76868 0.46638 0.0
H2608 H 0.87876 0.757 0.6127 0.0
H2609 H 0.92825 0.73063 0.57392 0.0
H2610 H 0.85652 0.76716 0.53187 0.0
H2611 H 0.84981 0.749 0.56548 0.0
H2612 H 0.85889 0.77698 0.57324 0.0
H2613 H 0.92545 0.7101 0.52146 0.0
H2614 H 0.90987 0.71951 0.4903 0.0
H2615 H 0.92817 0.73802 0.50407 0.0
H2616 H 0.84009 0.7236 0.44575 0.0
H2617 H 0.88505 0.76226 0.41011 0.0
H2618 H 0.83931 0.72777 0.51611 0.0
H2619 H 0.85992 0.71306 0.52841 0.0
H2620 H 0.84581 0.70172 0.49624 0.0
H2621 H 0.90574 0.77363 0.49199 0.0
H2622 H 0.90189 0.7846 0.45161 0.0
H2623 H 0.91479 0.75883 0.4568 0.0
C2624 C 0.34977 0.73733 0.95175 0.0
C2625 C 0.35795 0.74619 0.92233 0.0
C2626 C 0.35832 0.73658 0.98472 0.0
C2627 C 0.3762 0.74625 0.99308 0.0
C2628 C 0.38428 0.75591 0.96346 0.0
C2629 C 0.37579 0.75514 0.9304 0.0
C2630 C 0.3476 0.72432 1.01064 0.0
C2631 C 0.40227 0.76825 0.96587 0.0
C2632 C 0.38634 0.75511 1.09356 0.0
C2633 C 0.40416 0.74613 1.1016 0.0
C2634 C 0.37786 0.7559 1.0605 0.0
C2635 C 0.38592 0.74624 1.03083 0.0
C2636 C 0.40377 0.73655 1.03915 0.0
C2637 C 0.41232 0.73727 1.07213 0.0
C2638 C 0.3599 0.76827 1.05814 0.0
C2639 C 0.41447 0.72429 1.01317 0.0
H2640 H 0.33627 0.72998 0.94907 0.0
H2641 H 0.38338 0.76262 0.91043 0.0
H2642 H 0.35619 0.71906 1.03157 0.0
H2643 H 0.33656 0.7358 1.0194 0.0
H2644 H 0.34096 0.70873 1.00039 0.0
H2645 H 0.40218 0.78388 0.95035 0.0
H2646 H 0.40562 0.77347 0.99115 0.0
H2647 H 0.4132 0.75685 0.95648 0.0
H2648 H 0.37876 0.76259 1.11356 0.0
H2649 H 0.4258 0.7299 1.07478 0.0
H2650 H 0.34894 0.75689 1.06747 0.0
H2651 H 0.35657 0.7735 1.03288 0.0
H2652 H 0.36003 0.7839 1.07373 0.0
H2653 H 0.42108 0.70869 1.02334 0.0
H2654 H 0.42553 0.73576 1.00447 0.0
H2655 H 0.40588 0.71904 0.99221 0.0
C2656 C 0.91235 0.50732 0.94973 0.0
C2657 C 0.90543 0.49537 0.92141 0.0
C2658 C 0.90386 0.50798 0.98274 0.0
C2659 C 0.8875 0.4952 0.99243 0.0
C2660 C 0.88077 0.48248 0.96398 0.0
C2661 C 0.88902 0.48326 0.93075 0.0
C2662 C 0.91288 0.52358 1.00718 0.0
C2663 C 0.86462 0.46676 0.96797 0.0
C2664 C 0.87875 0.48958 1.09381 0.0
C2665 C 0.86001 0.49516 1.10133 0.0
C2666 C 0.88719 0.48887 1.06072 0.0
C2667 C 0.87795 0.49515 1.03032 0.0
C2668 C 0.85907 0.50138 1.03806 0.0
C2669 C 0.85078 0.50064 1.07121 0.0
C2670 C 0.90652 0.4803 1.05921 0.0
C2671 C 0.84684 0.50978 1.01118 0.0
H2672 H 0.9247 0.51722 0.94605 0.0
H2673 H 0.8825 0.47326 0.91174 0.0
H2674 H 0.90375 0.52807 1.02772 0.0
H2675 H 0.92526 0.51499 1.01682 0.0
H2676 H 0.91742 0.53975 0.99531 0.0
H2677 H 0.86671 0.45061 0.95398 0.0
H2678 H 0.86204 0.46222 0.99376 0.0
H2679 H 0.85234 0.47525 0.95776 0.0
H2680 H 0.88721 0.48479 1.11433 0.0
H2681 H 0.83651 0.5052 1.07338 0.0
H2682 H 0.91585 0.49425 1.06721 0.0
H2683 H 0.91047 0.47457 1.03445 0.0
H2684 H 0.90845 0.4657 1.07626 0.0
H2685 H 0.83832 0.52433 1.01988 0.0
H2686 H 0.83738 0.49573 1.00407 0.0
H2687 H 0.85456 0.51553 0.98948 0.0
C2688 C 0.60188 0.50637 0.82153 0.0
C2689 C 0.60928 0.49582 0.85054 0.0
C2690 C 0.61038 0.50668 0.78855 0.0
C2691 C 0.62765 0.49565 0.78002 0.0
C2692 C 0.63513 0.48473 0.80922 0.0
C2693 C 0.62648 0.48518 0.84213 0.0
C2694 C 0.60025 0.51968 0.76258 0.0
C2695 C 0.65279 0.47173 0.80639 0.0
C2696 C 0.63835 0.48542 0.68019 0.0
C2697 C 0.65567 0.49579 0.67183 0.0
C2698 C 0.62974 0.48498 0.71313 0.0
C2699 C 0.6374 0.49564 0.74242 0.0
C2700 C 0.6548 0.50639 0.73397 0.0
C2701 C 0.66326 0.50608 0.70094 0.0
C2702 C 0.61193 0.47227 0.71586 0.0
C2703 C 0.66513 0.51906 0.76009 0.0
H2704 H 0.58892 0.51506 0.82445 0.0
H2705 H 0.63354 0.47656 0.86179 0.0
H2706 H 0.60927 0.5251 0.74233 0.0
H2707 H 0.58929 0.50851 0.75264 0.0
H2708 H 0.5936 0.53519 0.77299 0.0
H2709 H 0.65256 0.45619 0.82207 0.0
H2710 H 0.65572 0.46637 0.78102 0.0
H2711 H 0.66407 0.48287 0.81514 0.0
H2712 H 0.63115 0.47702 0.66046 0.0
H2713 H 0.67632 0.51455 0.69806 0.0
H2714 H 0.60077 0.48362 0.70726 0.0
H2715 H 0.60895 0.46686 0.74118 0.0
H2716 H 0.61196 0.45678 0.7 0.0
H2717 H 0.6562 0.52459 0.78041 0.0
H2718 H 0.67201 0.53446 0.74987 0.0
H2719 H 0.67592 0.50761 0.76988 0.0
C2720 C 0.13741 0.25234 0.84311 0.0
C2721 C 0.15534 0.24356 0.85094 0.0
C2722 C 0.12881 0.25299 0.81009 0.0
C2723 C 0.13707 0.244 0.78018 0.0
C2724 C 0.15507 0.23475 0.78818 0.0
C2725 C 0.16351 0.23503 0.82123 0.0
C2726 C 0.11035 0.26416 0.80798 0.0
C2727 C 0.1661 0.22367 0.76159 0.0
C2728 C 0.10212 0.23289 0.70008 0.0
C2729 C 0.10935 0.24416 0.67149 0.0
C2730 C 0.11052 0.2324 0.73319 0.0
C2731 C 0.12741 0.24415 0.74242 0.0
C2732 C 0.13466 0.2559 0.71366 0.0
C2733 C 0.12621 0.25545 0.68054 0.0
C2734 C 0.10073 0.21833 0.75842 0.0
C2735 C 0.15179 0.26995 0.71719 0.0
H2736 H 0.12972 0.2594 0.86328 0.0
H2737 H 0.17707 0.22785 0.82366 0.0
H2738 H 0.10697 0.26979 0.78292 0.0
H2739 H 0.09986 0.25171 0.81626 0.0
H2740 H 0.10964 0.2793 0.82444 0.0
H2741 H 0.17354 0.20845 0.77107 0.0
H2742 H 0.15758 0.21814 0.74068 0.0
H2743 H 0.17648 0.23612 0.7529 0.0
H2744 H 0.08942 0.22365 0.69667 0.0
H2745 H 0.1331 0.26471 0.66129 0.0
H2746 H 0.08921 0.22854 0.76829 0.0
H2747 H 0.10978 0.2132 0.7788 0.0
H2748 H 0.09485 0.20254 0.74731 0.0
H2749 H 0.15087 0.28589 0.70243 0.0
H2750 H 0.16348 0.25986 0.70769 0.0
H2751 H 0.15461 0.27479 0.74283 0.0
C2752 C 0.60222 0.25479 0.1992 0.0
C2753 C 0.60959 0.24447 0.16997 0.0
C2754 C 0.61095 0.25543 0.23205 0.0
C2755 C 0.62819 0.24422 0.24067 0.0
C2756 C 0.63546 0.23313 0.21129 0.0
C2757 C 0.62685 0.23393 0.17826 0.0
C2758 C 0.60116 0.26928 0.25756 0.0
C2759 C 0.65264 0.21915 0.21401 0.0
C2760 C 0.66507 0.25153 0.31924 0.0
C2761 C 0.65654 0.24415 0.3492 0.0
C2762 C 0.65647 0.25227 0.28626 0.0
C2763 C 0.63805 0.24413 0.27842 0.0
C2764 C 0.62955 0.23598 0.30861 0.0
C2765 C 0.63819 0.23668 0.3416 0.0
C2766 C 0.66782 0.26281 0.25968 0.0
C2767 C 0.61085 0.22536 0.30693 0.0
H2768 H 0.5892 0.26337 0.19643 0.0
H2769 H 0.63381 0.22519 0.15857 0.0
H2770 H 0.58949 0.25909 0.26694 0.0
H2771 H 0.61015 0.27417 0.27816 0.0
H2772 H 0.59544 0.28522 0.24675 0.0
H2773 H 0.6642 0.22927 0.20407 0.0
H2774 H 0.65577 0.2142 0.23946 0.0
H2775 H 0.65152 0.20325 0.19913 0.0
H2776 H 0.67897 0.25766 0.32144 0.0
H2777 H 0.63026 0.23038 0.36195 0.0
H2778 H 0.6595 0.26843 0.2386 0.0
H2779 H 0.67804 0.25004 0.25134 0.0
H2780 H 0.67548 0.2779 0.26912 0.0
H2781 H 0.60069 0.238 0.31589 0.0
H2782 H 0.61006 0.21013 0.32317 0.0
H2783 H 0.6071 0.21992 0.28193 0.0
C2784 C 0.16236 0.4861 0.19906 0.0
C2785 C 0.15464 0.49626 0.17003 0.0
C2786 C 0.15402 0.4856 0.23217 0.0
C2787 C 0.13681 0.49665 0.24117 0.0
C2788 C 0.12914 0.50752 0.21198 0.0
C2789 C 0.13744 0.50675 0.17873 0.0
C2790 C 0.16428 0.47222 0.25758 0.0
C2791 C 0.11181 0.52117 0.21514 0.0
C2792 C 0.1009 0.4885 0.32055 0.0
C2793 C 0.1094 0.49662 0.35022 0.0
C2794 C 0.10921 0.48787 0.28742 0.0
C2795 C 0.12731 0.49672 0.27912 0.0
C2796 C 0.13584 0.50553 0.30899 0.0
C2797 C 0.12745 0.5049 0.34217 0.0
C2798 C 0.09789 0.47678 0.26116 0.0
C2799 C 0.1543 0.51674 0.30669 0.0
H2800 H 0.17541 0.47764 0.19597 0.0
H2801 H 0.13026 0.51537 0.15921 0.0
H2802 H 0.17582 0.48281 0.26661 0.0
H2803 H 0.15554 0.46724 0.27844 0.0
H2804 H 0.1702 0.45637 0.2468 0.0
H2805 H 0.10028 0.51077 0.20559 0.0
H2806 H 0.10887 0.52615 0.24066 0.0
H2807 H 0.11257 0.53703 0.20017 0.0
H2808 H 0.08718 0.48182 0.3231 0.0
H2809 H 0.13533 0.51184 0.36223 0.0
H2810 H 0.10618 0.47127 0.23998 0.0
H2811 H 0.08737 0.48917 0.25287 0.0
H2812 H 0.09059 0.46152 0.27089 0.0
H2813 H 0.1648 0.50449 0.31545 0.0
H2814 H 0.15494 0.53211 0.32274 0.0
H2815 H 0.1577 0.52209 0.28152 0.0
C2816 C 0.32873 0.16262 0.30732 0.0
C2817 C 0.3159 0.17894 0.2963 0.0
C2818 C 0.32947 0.13972 0.29442 0.0
C2819 C 0.3173 0.1325 0.2692 0.0
C2820 C 0.3046 0.14913 0.25768 0.0
C2821 C 0.30397 0.17168 0.27132 0.0
C2822 C 0.34345 0.12327 0.30782 0.0
C2823 C 0.29155 0.14313 0.23056 0.0
C2824 C 0.32745 0.07805 0.21563 0.0
C2825 C 0.31539 0.06131 0.2281 0.0
C2826 C 0.32843 0.10087 0.22877 0.0
C2827 C 0.31726 0.10762 0.25559 0.0
C2828 C 0.30539 0.09055 0.26861 0.0
C2829 C 0.3045 0.06806 0.25475 0.0
C2830 C 0.34131 0.11794 0.21348 0.0
C2831 C 0.29355 0.09601 0.2976 0.0
H2832 H 0.33819 0.16768 0.32629 0.0
H2833 H 0.2941 0.18387 0.26199 0.0
H2834 H 0.33704 0.1065 0.3138 0.0
H2835 H 0.35401 0.12001 0.28911 0.0
H2836 H 0.3503 0.13014 0.32992 0.0
H2837 H 0.28318 0.15809 0.22286 0.0
H2838 H 0.29923 0.13665 0.20917 0.0
H2839 H 0.28227 0.12916 0.23853 0.0
H2840 H 0.33606 0.07341 0.19526 0.0
H2841 H 0.29527 0.05553 0.26523 0.0
H2842 H 0.35054 0.12532 0.23219 0.0
H2843 H 0.33341 0.13241 0.20298 0.0
H2844 H 0.34974 0.11007 0.19398 0.0
H2845 H 0.30208 0.10271 0.31783 0.0
H2846 H 0.28589 0.08073 0.30637 0.0
H2847 H 0.28363 0.10966 0.29112 0.0
C2848 C 0.93485 0.07715 0.30813 0.0
C2849 C 0.9474 0.06067 0.29655 0.0
C2850 C 0.93435 0.10015 0.29576 0.0
C2851 C 0.94629 0.10725 0.27022 0.0
C2852 C 0.95872 0.09047 0.25813 0.0
C2853 C 0.95924 0.06785 0.27148 0.0
C2854 C 0.92087 0.11688 0.31012 0.0
C2855 C 0.97151 0.09635 0.23065 0.0
C2856 C 0.93518 0.16165 0.21757 0.0
C2857 C 0.94742 0.1784 0.22948 0.0
C2858 C 0.93457 0.1388 0.23044 0.0
C2859 C 0.94622 0.13207 0.2566 0.0
C2860 C 0.95831 0.14915 0.2691 0.0
C2861 C 0.95888 0.17166 0.25537 0.0
C2862 C 0.92141 0.12175 0.21581 0.0
C2863 C 0.97065 0.14371 0.29742 0.0
H2864 H 0.92548 0.07214 0.32724 0.0
H2865 H 0.96891 0.05554 0.26178 0.0
H2866 H 0.92748 0.1337 0.31513 0.0
H2867 H 0.90972 0.11992 0.29242 0.0
H2868 H 0.91475 0.11032 0.33302 0.0
H2869 H 0.97977 0.08135 0.22273 0.0
H2870 H 0.96361 0.1028 0.20949 0.0
H2871 H 0.9809 0.11032 0.23832 0.0
H2872 H 0.92609 0.16635 0.19787 0.0
H2873 H 0.96826 0.18422 0.26541 0.0
H2874 H 0.91122 0.11658 0.23433 0.0
H2875 H 0.9288 0.10598 0.20819 0.0
H2876 H 0.91408 0.12889 0.19444 0.0
H2877 H 0.96248 0.13704 0.31809 0.0
H2878 H 0.97847 0.15899 0.30582 0.0
H2879 H 0.98044 0.13004 0.29041 0.0
C2880 C 0.6987 0.81663 1.00914 0.0
C2881 C 0.6944 0.81229 0.97621 0.0
C2882 C 0.69907 0.83924 1.02253 0.0
C2883 C 0.69452 0.85868 1.00316 0.0
C2884 C 0.68979 0.85439 0.96998 0.0
C2885 C 0.69004 0.83156 0.95692 0.0
C2886 C 0.70455 0.84229 1.05766 0.0
C2887 C 0.68422 0.87402 0.94821 0.0
C2888 C 0.68085 0.91532 1.0485 0.0
C2889 C 0.69648 0.92931 1.04552 0.0
C2890 C 0.67983 0.89289 1.03432 0.0
C2891 C 0.69504 0.88327 1.01749 0.0
C2892 C 0.711 0.89718 1.01516 0.0
C2893 C 0.71142 0.9198 1.02861 0.0
C2894 C 0.66227 0.87952 1.03722 0.0
C2895 C 0.72783 0.88807 0.99849 0.0
H2896 H 0.70206 0.80217 1.02464 0.0
H2897 H 0.68644 0.82876 0.93164 0.0
H2898 H 0.71619 0.85445 1.05943 0.0
H2899 H 0.69308 0.84984 1.07161 0.0
H2900 H 0.70852 0.82579 1.06926 0.0
H2901 H 0.67987 0.86803 0.92373 0.0
H2902 H 0.67284 0.88373 0.95952 0.0
H2903 H 0.69578 0.88616 0.94532 0.0
H2904 H 0.66913 0.92214 1.06132 0.0
H2905 H 0.72364 0.93011 1.02591 0.0
H2906 H 0.66429 0.86478 1.05391 0.0
H2907 H 0.6582 0.87243 1.01319 0.0
H2908 H 0.65094 0.89027 1.04673 0.0
H2909 H 0.7322 0.87178 1.01019 0.0
H2910 H 0.73935 0.90048 0.99936 0.0
H2911 H 0.72474 0.8841 0.97266 0.0
C2912 C 0.06284 0.81768 1.01822 0.0
C2913 C 0.06851 0.81324 1.05045 0.0
C2914 C 0.06215 0.84025 1.00495 0.0
C2915 C 0.06774 0.85962 1.02365 0.0
C2916 C 0.07375 0.85528 1.05616 0.0
C2917 C 0.07384 0.83244 1.06921 0.0
C2918 C 0.05531 0.84332 0.9706 0.0
C2919 C 0.08045 0.87485 1.07711 0.0
C2920 C 0.08058 0.91527 0.97542 0.0
C2921 C 0.0653 0.92966 0.97972 0.0
C2922 C 0.08179 0.89309 0.99016 0.0
C2923 C 0.06713 0.88413 1.00913 0.0
C2924 C 0.05153 0.89847 1.01297 0.0
C2925 C 0.0509 0.92082 0.99874 0.0
C2926 C 0.09891 0.8792 0.98521 0.0
C2927 C 0.03526 0.89008 1.03198 0.0
H2928 H 0.05873 0.80328 1.00311 0.0
H2929 H 0.0785 0.82957 1.09389 0.0
H2930 H 0.044 0.85598 0.97017 0.0
H2931 H 0.0664 0.85022 0.95509 0.0
H2932 H 0.05039 0.82693 0.95975 0.0
H2933 H 0.08573 0.86883 1.10096 0.0
H2934 H 0.09145 0.88432 1.0643 0.0
H2935 H 0.0692 0.8872 1.08148 0.0
H2936 H 0.09187 0.92156 0.96095 0.0
H2937 H 0.03897 0.93148 1.00254 0.0
H2938 H 0.09611 0.86519 0.96756 0.0
H2939 H 0.10334 0.87114 1.00837 0.0
H2940 H 0.11029 0.88982 0.9756 0.0
H2941 H 0.03005 0.87385 1.02113 0.0
H2942 H 0.02401 0.90286 1.03247 0.0
H2943 H 0.03934 0.88621 1.05738 0.0
C2944 C 0.32847 0.66352 0.80529 0.0
C2945 C 0.31553 0.67969 0.79435 0.0
C2946 C 0.32919 0.64062 0.79269 0.0
C2947 C 0.31693 0.63322 0.76777 0.0
C2948 C 0.30421 0.64976 0.75605 0.0
C2949 C 0.30351 0.67234 0.76958 0.0
C2950 C 0.34357 0.62456 0.80558 0.0
C2951 C 0.29153 0.64379 0.72838 0.0
C2952 C 0.32883 0.57841 0.7164 0.0
C2953 C 0.31642 0.5618 0.72793 0.0
C2954 C 0.32916 0.6014 0.72873 0.0
C2955 C 0.31713 0.60839 0.7542 0.0
C2956 C 0.30496 0.59138 0.76653 0.0
C2957 C 0.30457 0.56876 0.75311 0.0
C2958 C 0.3429 0.61787 0.7146 0.0
C2959 C 0.29252 0.59693 0.79467 0.0
H2960 H 0.33812 0.66877 0.82387 0.0
H2961 H 0.29365 0.68452 0.76016 0.0
H2962 H 0.33818 0.60682 0.80833 0.0
H2963 H 0.355 0.62403 0.78794 0.0
H2964 H 0.34906 0.63045 0.82938 0.0
H2965 H 0.28324 0.65875 0.7204 0.0
H2966 H 0.29955 0.63741 0.70731 0.0
H2967 H 0.28217 0.62977 0.73583 0.0
H2968 H 0.33833 0.57349 0.69744 0.0
H2969 H 0.29511 0.55624 0.76296 0.0
H2970 H 0.35596 0.61577 0.7279 0.0
H2971 H 0.3385 0.63607 0.71668 0.0
H2972 H 0.34554 0.61393 0.68857 0.0
H2973 H 0.30065 0.60376 0.81535 0.0
H2974 H 0.28475 0.58165 0.80311 0.0
H2975 H 0.2827 0.61049 0.78748 0.0
C2976 C 0.9352 0.66361 0.71705 0.0
C2977 C 0.94814 0.67993 0.72771 0.0
C2978 C 0.93453 0.6408 0.72996 0.0
C2979 C 0.94696 0.63359 0.75466 0.0
C2980 C 0.95971 0.65027 0.76605 0.0
C2981 C 0.96027 0.67279 0.75239 0.0
C2982 C 0.92008 0.62453 0.71771 0.0
C2983 C 0.97256 0.64448 0.7935 0.0
C2984 C 0.93562 0.57873 0.80631 0.0
C2985 C 0.94789 0.56214 0.79424 0.0
C2986 C 0.93517 0.60175 0.79415 0.0
C2987 C 0.94691 0.60878 0.76825 0.0
C2988 C 0.95894 0.5918 0.75545 0.0
C2989 C 0.95947 0.56917 0.76872 0.0
C2990 C 0.9217 0.61811 0.80931 0.0
C2991 C 0.97116 0.59741 0.72703 0.0
H2992 H 0.92547 0.66868 0.69855 0.0
H2993 H 0.97014 0.68507 0.76161 0.0
H2994 H 0.92608 0.60748 0.71192 0.0
H2995 H 0.90982 0.622 0.73718 0.0
H2996 H 0.91302 0.63124 0.69577 0.0
H2997 H 0.98094 0.65949 0.80114 0.0
H2998 H 0.96467 0.63827 0.81479 0.0
H2999 H 0.98184 0.63038 0.78599 0.0
H3000 H 0.92636 0.57382 0.82565 0.0
H3001 H 0.96883 0.55669 0.75849 0.0
H3002 H 0.9078 0.61346 0.80083 0.0
H3003 H 0.92439 0.63638 0.80323 0.0
H3004 H 0.9218 0.61623 0.8362 0.0
H3005 H 0.96286 0.60416 0.70655 0.0
H3006 H 0.97893 0.5822 0.71838 0.0
H3007 H 0.98099 0.61107 0.73404 0.0
C3008 C 0.68523 0.32757 0.46707 0.0
C3009 C 0.69776 0.31118 0.47886 0.0
C3010 C 0.68479 0.35068 0.47908 0.0
C3011 C 0.69675 0.35796 0.50458 0.0
C3012 C 0.70912 0.34123 0.51697 0.0
C3013 C 0.70963 0.31852 0.50385 0.0
C3014 C 0.67114 0.36707 0.46446 0.0
C3015 C 0.72179 0.34723 0.54465 0.0
C3016 C 0.70966 0.42231 0.51912 0.0
C3017 C 0.69795 0.42941 0.54443 0.0
C3018 C 0.70909 0.39969 0.50568 0.0
C3019 C 0.69676 0.38286 0.51795 0.0
C3020 C 0.68482 0.38997 0.54346 0.0
C3021 C 0.68544 0.41291 0.55607 0.0
C3022 C 0.72155 0.39391 0.47768 0.0
C3023 C 0.67124 0.37325 0.55749 0.0
H3024 H 0.67581 0.32244 0.44806 0.0
H3025 H 0.71927 0.30625 0.51373 0.0
H3026 H 0.65827 0.366 0.47851 0.0
H3027 H 0.676 0.38515 0.4651 0.0
H3028 H 0.66798 0.36237 0.43886 0.0
H3029 H 0.72991 0.33221 0.55294 0.0
H3030 H 0.73132 0.36103 0.53702 0.0
H3031 H 0.71381 0.35393 0.56555 0.0
H3032 H 0.71923 0.43469 0.50926 0.0
H3033 H 0.67612 0.4179 0.57526 0.0
H3034 H 0.71338 0.38751 0.45678 0.0
H3035 H 0.73103 0.37995 0.48482 0.0
H3036 H 0.72971 0.40897 0.46959 0.0
H3037 H 0.66119 0.36838 0.53849 0.0
H3038 H 0.66377 0.38058 0.57859 0.0
H3039 H 0.67828 0.35729 0.5653 0.0
C3040 C 0.08461 0.32456 0.54434 0.0
C3041 C 0.06834 0.31157 0.5437 0.0
C3042 C 0.08577 0.34707 0.53049 0.0
C3043 C 0.07017 0.35773 0.51619 0.0
C3044 C 0.05366 0.34478 0.51606 0.0
C3045 C 0.05303 0.32211 0.52923 0.0
C3046 C 0.1039 0.35933 0.53062 0.0
C3047 C 0.03647 0.35497 0.50201 0.0
C3048 C 0.06817 0.4246 0.50901 0.0
C3049 C 0.07125 0.42889 0.47566 0.0
C3050 C 0.06779 0.40195 0.52222 0.0
C3051 C 0.07092 0.38238 0.50212 0.0
C3052 C 0.07434 0.38661 0.46845 0.0
C3053 C 0.07429 0.40951 0.45572 0.0
C3054 C 0.06381 0.39897 0.55796 0.0
C3055 C 0.07817 0.36683 0.44572 0.0
H3056 H 0.09667 0.31685 0.55496 0.0
H3057 H 0.04033 0.31257 0.52827 0.0
H3058 H 0.10805 0.36329 0.50528 0.0
H3059 H 0.10272 0.37595 0.54374 0.0
H3060 H 0.11482 0.34895 0.54225 0.0
H3061 H 0.0246 0.34319 0.50427 0.0
H3062 H 0.03321 0.37136 0.51461 0.0
H3063 H 0.03852 0.35902 0.47591 0.0
H3064 H 0.06581 0.43913 0.52502 0.0
H3065 H 0.07685 0.41223 0.43005 0.0
H3066 H 0.07541 0.39022 0.57005 0.0
H3067 H 0.05162 0.38787 0.56115 0.0
H3068 H 0.06134 0.41565 0.57044 0.0
H3069 H 0.08963 0.35639 0.45526 0.0
H3070 H 0.08163 0.37272 0.42077 0.0
H3071 H 0.06607 0.35541 0.44431 0.0
C3072 C 0.8037 0.06807 0.75642 0.0
C3073 C 0.81611 0.06038 0.73256 0.0
C3074 C 0.80423 0.09085 0.76938 0.0
C3075 C 0.81719 0.10724 0.75796 0.0
C3076 C 0.82972 0.09956 0.7337 0.0
C3077 C 0.82923 0.07643 0.72185 0.0
C3078 C 0.79092 0.09729 0.79582 0.0
C3079 C 0.8439 0.11571 0.7202 0.0
C3080 C 0.80531 0.17216 0.76996 0.0
C3081 C 0.81658 0.17923 0.79598 0.0
C3082 C 0.8057 0.14935 0.75714 0.0
C3083 C 0.81729 0.13227 0.77089 0.0
C3084 C 0.8287 0.1393 0.79727 0.0
C3085 C 0.82841 0.16248 0.80903 0.0
C3086 C 0.79381 0.14363 0.72828 0.0
C3087 C 0.84127 0.12223 0.81333 0.0
H3088 H 0.79363 0.05604 0.76551 0.0
H3089 H 0.83908 0.07098 0.70377 0.0
H3090 H 0.79841 0.10416 0.81723 0.0
H3091 H 0.78172 0.11109 0.78705 0.0
H3092 H 0.78248 0.08244 0.80375 0.0
H3093 H 0.84982 0.10919 0.69709 0.0
H3094 H 0.83805 0.13304 0.71584 0.0
H3095 H 0.85512 0.11755 0.73812 0.0
H3096 H 0.79628 0.18473 0.75902 0.0
H3097 H 0.83735 0.16742 0.82885 0.0
H3098 H 0.78375 0.13022 0.73508 0.0
H3099 H 0.8023 0.13651 0.70831 0.0
H3100 H 0.78632 0.15888 0.71901 0.0
H3101 H 0.8336 0.10651 0.82022 0.0
H3102 H 0.84792 0.12943 0.8354 0.0
H3103 H 0.85205 0.11697 0.79595 0.0
C3104 C 0.45615 0.17112 0.75411 0.0
C3105 C 0.4442 0.17818 0.72913 0.0
C3106 C 0.45585 0.1485 0.76732 0.0
C3107 C 0.44362 0.13155 0.75501 0.0
C3108 C 0.43145 0.13859 0.72971 0.0
C3109 C 0.43174 0.16163 0.71753 0.0
C3110 C 0.4685 0.14288 0.79516 0.0
C3111 C 0.41767 0.12218 0.71553 0.0
C3112 C 0.45791 0.0679 0.77052 0.0
C3113 C 0.44628 0.06063 0.79583 0.0
C3114 C 0.45678 0.0903 0.75661 0.0
C3115 C 0.444 0.10673 0.76846 0.0
C3116 C 0.43207 0.09937 0.79383 0.0
C3117 C 0.43324 0.07665 0.80684 0.0
C3118 C 0.46911 0.09623 0.72849 0.0
C3119 C 0.41766 0.11534 0.80686 0.0
H3120 H 0.46571 0.18356 0.76394 0.0
H3121 H 0.4222 0.16658 0.69865 0.0
H3122 H 0.46051 0.13608 0.81598 0.0
H3123 H 0.47823 0.12928 0.78768 0.0
H3124 H 0.47639 0.15811 0.80351 0.0
H3125 H 0.41572 0.12549 0.68914 0.0
H3126 H 0.42154 0.1039 0.71887 0.0
H3127 H 0.40436 0.12521 0.72763 0.0
H3128 H 0.46782 0.05581 0.76103 0.0
H3129 H 0.42386 0.07143 0.82582 0.0
H3130 H 0.47856 0.11027 0.73564 0.0
H3131 H 0.46084 0.10257 0.70771 0.0
H3132 H 0.47731 0.08126 0.72023 0.0
H3133 H 0.42322 0.13292 0.81052 0.0
H3134 H 0.41188 0.10913 0.83023 0.0
H3135 H 0.40642 0.11641 0.78884 0.0
C3136 C 0.1858 0.82832 0.46362 0.0
C3137 C 0.19832 0.81183 0.4752 0.0
C3138 C 0.18506 0.85118 0.47655 0.0
C3139 C 0.19676 0.85812 0.5026 0.0
C3140 C 0.20916 0.84132 0.51467 0.0
C3141 C 0.2099 0.81884 0.50082 0.0
C3142 C 0.17164 0.86798 0.46218 0.0
C3143 C 0.22171 0.84704 0.54266 0.0
C3144 C 0.2091 0.92243 0.51892 0.0
C3145 C 0.19745 0.92897 0.54464 0.0
C3146 C 0.20868 0.90002 0.5048 0.0
C3147 C 0.19654 0.88283 0.51667 0.0
C3148 C 0.18471 0.88934 0.54268 0.0
C3149 C 0.18519 0.91209 0.55601 0.0
C3150 C 0.22126 0.89478 0.47675 0.0
C3151 C 0.17153 0.87212 0.55675 0.0
H3152 H 0.17661 0.82342 0.44413 0.0
H3153 H 0.21955 0.80651 0.51054 0.0
H3154 H 0.16069 0.87149 0.48007 0.0
H3155 H 0.17845 0.88459 0.45673 0.0
H3156 H 0.16526 0.86129 0.43953 0.0
H3157 H 0.22994 0.832 0.55053 0.0
H3158 H 0.23113 0.86109 0.53554 0.0
H3159 H 0.21363 0.8533 0.56371 0.0
H3160 H 0.21853 0.93508 0.50934 0.0
H3161 H 0.176 0.91661 0.57562 0.0
H3162 H 0.21325 0.88837 0.45567 0.0
H3163 H 0.23093 0.88098 0.48373 0.0
H3164 H 0.22922 0.91009 0.46899 0.0
H3165 H 0.16169 0.8666 0.53776 0.0
H3166 H 0.16379 0.87922 0.57768 0.0
H3167 H 0.17901 0.85656 0.56487 0.0
C3168 C 0.55343 0.81824 0.5216 0.0
C3169 C 0.56538 0.81082 0.54638 0.0
C3170 C 0.55403 0.84093 0.50849 0.0
C3171 C 0.56662 0.85756 0.5206 0.0
C3172 C 0.57866 0.85021 0.5459 0.0
C3173 C 0.57809 0.82714 0.55794 0.0
C3174 C 0.54122 0.84701 0.48109 0.0
C3175 C 0.59255 0.86648 0.56021 0.0
C3176 C 0.57815 0.91217 0.46866 0.0
C3177 C 0.56594 0.92894 0.48053 0.0
C3178 C 0.57861 0.88926 0.48133 0.0
C3179 C 0.56679 0.88244 0.50715 0.0
C3180 C 0.55476 0.89952 0.51966 0.0
C3181 C 0.55434 0.92211 0.50617 0.0
C3182 C 0.59188 0.87228 0.46702 0.0
C3183 C 0.54244 0.89404 0.54798 0.0
H3184 H 0.54365 0.80603 0.51187 0.0
H3185 H 0.5876 0.82195 0.57675 0.0
H3186 H 0.53194 0.86103 0.48886 0.0
H3187 H 0.54913 0.85346 0.45995 0.0
H3188 H 0.53285 0.8321 0.47309 0.0
H3189 H 0.59597 0.86171 0.58566 0.0
H3190 H 0.60526 0.86538 0.5457 0.0
H3191 H 0.58777 0.88458 0.55988 0.0
H3192 H 0.58738 0.91693 0.44922 0.0
H3193 H 0.54501 0.93469 0.51623 0.0
H3194 H 0.58458 0.85645 0.4593 0.0
H3195 H 0.60198 0.86723 0.48582 0.0
H3196 H 0.59933 0.87943 0.44579 0.0
H3197 H 0.53277 0.88017 0.54112 0.0
H3198 H 0.5345 0.90925 0.55618 0.0
H3199 H 0.55071 0.88763 0.56872 0.0
C3200 C 0.80536 0.56668 0.25202 0.0
C3201 C 0.81684 0.55936 0.22647 0.0
C3202 C 0.80637 0.58925 0.2656 0.0
C3203 C 0.81891 0.60582 0.25324 0.0
C3204 C 0.83049 0.59854 0.22727 0.0
C3205 C 0.82952 0.5756 0.21471 0.0
C3206 C 0.794 0.59529 0.29362 0.0
C3207 C 0.8442 0.61487 0.21272 0.0
C3208 C 0.80714 0.67043 0.26803 0.0
C3209 C 0.81903 0.67729 0.2933 0.0
C3210 C 0.8073 0.64782 0.25457 0.0
C3211 C 0.81936 0.6307 0.26678 0.0
C3212 C 0.83146 0.63751 0.29231 0.0
C3213 C 0.83131 0.66051 0.30486 0.0
C3214 C 0.79459 0.64235 0.22674 0.0
C3215 C 0.84461 0.62037 0.3066 0.0
H3216 H 0.79564 0.55451 0.26193 0.0
H3217 H 0.83867 0.57045 0.19534 0.0
H3218 H 0.8022 0.60187 0.31437 0.0
H3219 H 0.78452 0.60921 0.28627 0.0
H3220 H 0.78584 0.58033 0.30203 0.0
H3221 H 0.84898 0.60893 0.18849 0.0
H3222 H 0.83842 0.63242 0.21019 0.0
H3223 H 0.85621 0.61598 0.22907 0.0
H3224 H 0.79772 0.683 0.25824 0.0
H3225 H 0.84072 0.66527 0.32407 0.0
H3226 H 0.78485 0.62871 0.2341 0.0
H3227 H 0.80251 0.63563 0.20577 0.0
H3228 H 0.78671 0.65763 0.21864 0.0
H3229 H 0.83717 0.60471 0.31449 0.0
H3230 H 0.8522 0.62752 0.32772 0.0
H3231 H 0.85458 0.61504 0.28777 0.0
C3232 C 0.43543 0.57787 0.30585 0.0
C3233 C 0.44789 0.5615 0.29377 0.0
C3234 C 0.43489 0.60097 0.29396 0.0
C3235 C 0.44667 0.60826 0.26829 0.0
C3236 C 0.45898 0.59156 0.25561 0.0
C3237 C 0.4596 0.56884 0.26861 0.0
C3238 C 0.42131 0.61735 0.30884 0.0
C3239 C 0.47148 0.59759 0.22776 0.0
C3240 C 0.43476 0.66311 0.21728 0.0
C3241 C 0.44724 0.67971 0.22882 0.0
C3242 C 0.43437 0.64015 0.22971 0.0
C3243 C 0.44649 0.63315 0.25502 0.0
C3244 C 0.45877 0.6501 0.26725 0.0
C3245 C 0.45913 0.67272 0.25394 0.0
C3246 C 0.42085 0.62329 0.2157 0.0
C3247 C 0.47141 0.64443 0.29506 0.0
H3248 H 0.42613 0.57272 0.32498 0.0
H3249 H 0.46917 0.55657 0.25848 0.0
H3250 H 0.42637 0.63534 0.30886 0.0
H3251 H 0.40853 0.6167 0.29444 0.0
H3252 H 0.41794 0.61237 0.33422 0.0
H3253 H 0.47953 0.58258 0.21922 0.0
H3254 H 0.46337 0.60433 0.20704 0.0
H3255 H 0.48105 0.61138 0.23535 0.0
H3256 H 0.4253 0.66802 0.19826 0.0
H3257 H 0.46867 0.6852 0.26375 0.0
H3258 H 0.41087 0.61836 0.23472 0.0
H3259 H 0.42796 0.60738 0.20782 0.0
H3260 H 0.41329 0.63053 0.19464 0.0
H3261 H 0.4634 0.63784 0.31599 0.0
H3262 H 0.47945 0.65959 0.30322 0.0
H3263 H 0.48099 0.63063 0.28765 0.0
C3264 C 0.20502 0.41208 1.05505 0.0
C3265 C 0.19145 0.42801 1.04612 0.0
C3266 C 0.20604 0.38969 1.04077 0.0
C3267 C 0.19269 0.38213 1.01779 0.0
C3268 C 0.17871 0.39807 1.00937 0.0
C3269 C 0.17855 0.42069 1.02285 0.0
C3270 C 0.22178 0.37428 1.04975 0.0
C3271 C 0.16348 0.3911 0.9867 0.0
C3272 C 0.20105 0.33031 0.95864 0.0
C3273 C 0.19376 0.31142 0.9757 0.0
C3274 C 0.20115 0.35303 0.97211 0.0
C3275 C 0.19316 0.35765 1.00313 0.0
C3276 C 0.1855 0.33862 1.02006 0.0
C3277 C 0.18625 0.31604 1.00665 0.0
C3278 C 0.21012 0.37214 0.95323 0.0
C3279 C 0.17622 0.34211 1.05244 0.0
H3280 H 0.21531 0.41744 1.07243 0.0
H3281 H 0.16803 0.43266 1.01549 0.0
H3282 H 0.21669 0.35876 1.06249 0.0
H3283 H 0.22886 0.36835 1.0274 0.0
H3284 H 0.23182 0.38308 1.06576 0.0
H3285 H 0.15503 0.40601 0.97918 0.0
H3286 H 0.16892 0.38263 0.96457 0.0
H3287 H 0.15456 0.37844 0.99918 0.0
H3288 H 0.20709 0.32728 0.93498 0.0
H3289 H 0.18056 0.30185 1.0204 0.0
H3290 H 0.22058 0.38072 0.96858 0.0
H3291 H 0.19986 0.38534 0.94662 0.0
H3292 H 0.21672 0.36583 0.93059 0.0
H3293 H 0.18623 0.34824 1.07073 0.0
H3294 H 0.16985 0.32607 1.06169 0.0
H3295 H 0.16556 0.35556 1.05025 0.0
C3296 C 0.56761 0.31745 1.01021 0.0
C3297 C 0.57124 0.31354 1.04348 0.0
C3298 C 0.56687 0.33994 0.99662 0.0
C3299 C 0.57031 0.35969 1.0162 0.0
C3300 C 0.57428 0.35584 1.04977 0.0
C3301 C 0.57448 0.3331 1.06295 0.0
C3302 C 0.56214 0.34253 0.96108 0.0
C3303 C 0.57853 0.37586 1.07187 0.0
C3304 C 0.58334 0.41708 0.97245 0.0
C3305 C 0.56715 0.43014 0.97403 0.0
C3306 C 0.58467 0.39462 0.98633 0.0
C3307 C 0.56933 0.38416 1.00173 0.0
C3308 C 0.55288 0.39714 1.00274 0.0
C3309 C 0.55208 0.41974 0.98945 0.0
C3310 C 0.60269 0.38217 0.98488 0.0
C3311 C 0.53592 0.38707 1.01785 0.0
H3312 H 0.56508 0.30274 0.99459 0.0
H3313 H 0.57747 0.33062 1.08853 0.0
H3314 H 0.55004 0.35382 0.95837 0.0
H3315 H 0.57358 0.35088 0.948 0.0
H3316 H 0.55918 0.32574 0.94922 0.0
H3317 H 0.58217 0.37025 1.09686 0.0
H3318 H 0.59002 0.38601 1.06172 0.0
H3319 H 0.56657 0.38749 1.07332 0.0
H3320 H 0.59519 0.42461 0.96085 0.0
H3321 H 0.53946 0.42935 0.9911 0.0
H3322 H 0.60124 0.36619 0.97034 0.0
H3323 H 0.60698 0.37702 1.00973 0.0
H3324 H 0.61363 0.39288 0.97392 0.0
H3325 H 0.53246 0.37054 1.00578 0.0
H3326 H 0.52402 0.3988 1.01593 0.0
H3327 H 0.5384 0.38331 1.04392 0.0
C3328 C 0.2311 0.91403 1.07081 0.0
C3329 C 0.2423 0.90864 1.09733 0.0
C3330 C 0.21325 0.90566 1.06908 0.0
C3331 C 0.20714 0.88953 1.09265 0.0
C3332 C 0.2199 0.88004 1.11471 0.0
C3333 C 0.23723 0.89023 1.11757 0.0
C3334 C 0.20044 0.91668 1.0448 0.0
C3335 C 0.21498 0.86062 0.13732 0.0
C3336 C 0.16176 0.91127 1.11677 0.0
C3337 C 0.15257 0.90634 1.08766 0.0
C3338 C 0.17939 0.90288 1.12202 0.0
C3339 C 0.18718 0.88777 1.09876 0.0
C3340 C 0.17577 0.87766 1.07499 0.0
C3341 C 0.15868 0.88768 1.06874 0.0
C3342 C 0.19045 0.91292 0.14964 0.0
C3343 C 0.18255 0.85821 1.05399 0.0
H3344 H 0.23549 0.92701 1.0536 0.0
H3345 H 0.24599 0.885 0.13746 0.0
H3346 H 0.194 0.90341 1.0293 0.0
H3347 H 0.18941 0.92598 1.05782 0.0
H3348 H 0.20748 0.92912 1.02859 0.0
H3349 H 0.22523 0.84667 1.13483 0.0
H3350 H 0.21565 0.86663 0.16294 0.0
H3351 H 0.20126 0.85334 1.13234 0.0
H3352 H 0.15631 0.92422 1.13307 0.0
H3353 H 0.15126 0.88252 1.04712 0.0
H3354 H 0.20224 0.92273 0.13991 0.0
H3355 H 0.19581 0.8989 0.16514 0.0
H3356 H 0.18229 0.92464 0.16525 0.0
H3357 H 0.19491 0.86347 1.04039 0.0
H3358 H 0.17202 0.85222 1.03645 0.0
H3359 H 0.1866 0.8436 1.06979 0.0
C3360 C 0.10121 0.3524 1.05929 0.0
C3361 C 0.10851 0.33379 1.07684 0.0
C3362 C 0.08438 0.3619 1.06842 0.0
C3363 C 0.0744 0.35135 1.09364 0.0
C3364 C 0.08362 0.33666 1.11559 0.0
C3365 C 0.10105 0.32872 1.10744 0.0
C3366 C 0.07586 0.38047 1.04809 0.0
C3367 C 0.07414 0.32643 0.14478 0.0
C3368 C 0.02467 0.34804 1.11593 0.0
C3369 C 0.0192 0.32967 1.09586 0.0
C3370 C 0.042 0.35806 1.1124 0.0
C3371 C 0.05437 0.34845 1.08976 0.0
C3372 C 0.04795 0.33202 1.06676 0.0
C3373 C 0.03006 0.32394 1.06907 0.0
C3374 C 0.04729 0.37752 1.13479 0.0
C3375 C 0.06045 0.32049 1.04238 0.0
H3376 H 0.10726 0.35773 1.03649 0.0
H3377 H 0.10753 0.31594 1.12273 0.0
H3378 H 0.06442 0.37314 1.03386 0.0
H3379 H 0.0701 0.39403 1.06411 0.0
H3380 H 0.08575 0.38828 1.03101 0.0
H3381 H 0.08339 0.31547 0.15953 0.0
H3382 H 0.06885 0.34035 0.16057 0.0
H3383 H 0.06238 0.31577 0.13676 0.0
H3384 H 0.01619 0.35341 0.13613 0.0
H3385 H 0.02539 0.31088 1.05214 0.0
H3386 H 0.06073 0.38516 1.12867 0.0
H3387 H 0.04751 0.37134 0.16032 0.0
H3388 H 0.03677 0.39123 1.13351 0.0
H3389 H 0.06657 0.33337 1.02592 0.0
H3390 H 0.05324 0.30757 1.02712 0.0
H3391 H 0.07173 0.31164 1.05529 0.0
C3392 C 0.22362 0.32644 0.43414 0.0
C3393 C 0.23509 0.33058 0.40755 0.0
C3394 C 0.20515 0.33233 0.43291 0.0
C3395 C 0.19842 0.34498 0.40588 0.0
C3396 C 0.2109 0.35359 0.38265 0.0
C3397 C 0.22903 0.3457 0.38312 0.0
C3398 C 0.19263 0.32184 0.45808 0.0
C3399 C 0.20504 0.36946 0.35562 0.0
C3400 C 0.1554 0.315 0.38778 0.0
C3401 C 0.14579 0.3224 0.41534 0.0
C3402 C 0.17214 0.32511 0.37983 0.0
C3403 C 0.17852 0.34388 0.39873 0.0
C3404 C 0.16611 0.35545 0.41935 0.0
C3405 C 0.14995 0.34415 0.42841 0.0
C3406 C 0.18416 0.31326 0.35515 0.0
C3407 C 0.17108 0.3777 0.43593 0.0
H3408 H 0.22853 0.31614 0.45428 0.0
H3409 H 0.23783 0.34995 0.36284 0.0
H3410 H 0.18326 0.33488 0.46819 0.0
H3411 H 0.18418 0.30824 0.44649 0.0
H3412 H 0.20024 0.31398 0.47863 0.0
H3413 H 0.21443 0.38445 0.35464 0.0
H3414 H 0.20622 0.36047 0.33188 0.0
H3415 H 0.19089 0.37586 0.35872 0.0
H3416 H 0.15134 0.29919 0.37575 0.0
H3417 H 0.14206 0.351 0.44849 0.0
H3418 H 0.19619 0.30561 0.36746 0.0
H3419 H 0.18916 0.3259 0.3371 0.0
H3420 H 0.17684 0.29936 0.34189 0.0
H3421 H 0.17322 0.37462 0.46225 0.0
H3422 H 0.15957 0.39002 0.43378 0.0
H3423 H 0.18353 0.38563 0.42542 0.0
C3424 C 0.03121 0.92255 0.46671 0.0
C3425 C 0.01928 0.91439 0.4427 0.0
C3426 C 0.04816 0.91215 0.47175 0.0
C3427 C 0.05252 0.89161 0.45465 0.0
C3428 C 0.03892 0.88082 0.43551 0.0
C3429 C 0.0226 0.89263 0.42897 0.0
C3430 C 0.06199 0.92484 0.49247 0.0
C3431 C 0.04191 0.85778 0.41966 0.0
C3432 C 0.10055 0.89876 0.4286 0.0
C3433 C 0.10854 0.89793 0.45958 0.0
C3434 C 0.08206 0.89343 0.42458 0.0
C3435 C 0.07207 0.88499 0.45159 0.0
C3436 C 0.08171 0.8775 0.47942 0.0
C3437 C 0.09982 0.8848 0.48376 0.0
C3438 C 0.07288 0.89997 0.393 0.0
C3439 C 0.07234 0.86463 0.50645 0.0
H3440 H 0.02815 0.93854 0.47914 0.0
H3441 H 0.01326 0.88553 0.41115 0.0
H3442 H 0.06543 0.9145 0.51421 0.0
H3443 H 0.07473 0.92786 0.47855 0.0
H3444 H 0.05688 0.94178 0.50102 0.0
H3445 H 0.02985 0.84671 0.42399 0.0
H3446 H 0.04298 0.8599 0.39292 0.0
H3447 H 0.05425 0.84887 0.42892 0.0
H3448 H 0.10789 0.9069 0.40882 0.0
H3449 H 0.1061 0.8825 0.50739 0.0
H3450 H 0.06144 0.91205 0.39751 0.0
H3451 H 0.06728 0.88434 0.38121 0.0
H3452 H 0.08246 0.90821 0.37561 0.0
H3453 H 0.07008 0.87622 0.52751 0.0
H3454 H 0.08127 0.85047 0.51505 0.0
H3455 H 0.05904 0.85736 0.49852 0.0
C3456 C 0.80475 0.01457 0.26781 0.0
C3457 C 0.81662 0.0218 0.29236 0.0
C3458 C 0.78611 0.01909 0.26966 0.0
C3459 C 0.7791 0.0313 0.29687 0.0
C3460 C 0.79079 0.03679 0.32321 0.0
C3461 C 0.80953 0.03196 0.32063 0.0
C3462 C 0.77417 0.01167 0.24148 0.0
C3463 C 0.78372 0.04765 0.35405 0.0
C3464 C 0.74309 0.06145 0.25369 0.0
C3465 C 0.73076 0.04298 0.25218 0.0
C3466 C 0.75794 0.0606 0.27512 0.0
C3467 C 0.76033 0.04074 0.29447 0.0
C3468 C 0.74535 0.0259 0.29948 0.0
C3469 C 0.73037 0.02739 0.2783 0.0
C3470 C 0.77287 0.07829 0.27176 0.0
C3471 C 0.74665 0.00592 0.32261 0.0
H3472 H 0.81019 0.00592 0.24654 0.0
H3473 H 0.8187 0.03698 0.3401 0.0
H3474 H 0.76242 0.00151 0.25047 0.0
H3475 H 0.76882 0.027 0.22862 0.0
H3476 H 0.78166 0.00098 0.2235 0.0
H3477 H 0.78015 0.03377 0.37143 0.0
H3478 H 0.79433 0.05852 0.36577 0.0
H3479 H 0.77129 0.05808 0.34988 0.0
H3480 H 0.74309 0.07451 0.23492 0.0
H3481 H 0.72003 0.01406 0.27891 0.0
H3482 H 0.78253 0.07267 0.25255 0.0
H3483 H 0.78059 0.08026 0.29481 0.0
H3484 H 0.76721 0.09526 0.26457 0.0
H3485 H 0.75367 -0.0086 0.31032 0.0
H3486 H 0.73289 -4e-05 0.33019 0.0
H3487 H 0.75468 0.01067 0.34451 0.0
C3488 C 0.97808 0.6649 0.18981 0.0
C3489 C 0.98867 0.66006 0.16234 0.0
C3490 C 0.96015 0.65689 0.19211 0.0
C3491 C 0.95327 0.6418 0.16773 0.0
C3492 C 0.96537 0.63291 0.14401 0.0
C3493 C 0.98284 0.64266 0.14094 0.0
C3494 C 0.94809 0.66725 0.2182 0.0
C3495 C 0.95949 0.61483 1.11985 0.0
C3496 C 0.90541 0.6402 0.19515 0.0
C3497 C 0.89904 0.65933 0.17761 0.0
C3498 C 0.92224 0.63012 0.18717 0.0
C3499 C 0.93316 0.64057 0.163 0.0
C3500 C 0.92494 0.65637 0.14114 0.0
C3501 C 0.90744 0.66462 0.14796 0.0
C3502 C 0.9293 0.61013 0.20677 0.0
C3503 C 0.93533 0.66716 1.1133 0.0
H3504 H 0.98305 0.67722 0.20757 0.0
H3505 H 0.99113 0.63802 1.12014 0.0
H3506 H 0.93634 0.67624 0.20693 0.0
H3507 H 0.94268 0.6536 0.23429 0.0
H3508 H 0.95549 0.67983 0.23374 0.0
H3509 H 0.97073 0.60238 1.11578 0.0
H3510 H 0.94716 0.60538 1.12806 0.0
H3511 H 0.95672 0.62293 1.09597 0.0
H3512 H 0.89849 0.63475 0.2171 0.0
H3513 H 0.90164 0.67795 1.1327 0.0
H3514 H 0.94188 0.61486 0.22018 0.0
H3515 H 0.93297 0.59601 0.18989 0.0
H3516 H 0.91902 0.60376 0.22443 0.0
H3517 H 0.94868 0.67399 1.12159 0.0
H3518 H 0.92768 0.6815 1.10179 0.0
H3519 H 0.93784 0.65402 1.09431 0.0
C3520 C 0.85764 0.63407 0.81705 0.0
C3521 C 0.86624 0.65114 0.83598 0.0
C3522 C 0.84045 0.62555 0.82621 0.0
C3523 C 0.83148 0.63573 0.85294 0.0
C3524 C 0.84195 0.64821 0.87593 0.0
C3525 C 0.85967 0.65501 0.86759 0.0
C3526 C 0.83076 0.60832 0.80499 0.0
C3527 C 0.83361 0.65754 0.9068 0.0
C3528 C 0.78928 0.66964 0.83319 0.0
C3529 C 0.77776 0.66307 0.85863 0.0
C3530 C 0.80644 0.65958 0.82936 0.0
C3531 C 0.81171 0.64121 0.85016 0.0
C3532 C 0.79877 0.63184 0.872 0.0
C3533 C 0.78204 0.64323 0.87657 0.0
C3534 C 0.81945 0.67043 0.80527 0.0
C3535 C 0.80274 0.6108 0.89218 0.0
H3536 H 0.863 0.62935 0.79345 0.0
H3537 H 0.86715 0.66627 0.88387 0.0
H3538 H 0.8401 0.60049 0.78682 0.0
H3539 H 0.82482 0.59454 0.82038 0.0
H3540 H 0.81926 0.61667 0.79209 0.0
H3541 H 0.8438 0.66643 0.9224 0.0
H3542 H 0.8226 0.66993 0.90079 0.0
H3543 H 0.8275 0.64331 0.92099 0.0
H3544 H 0.78555 0.68416 0.81806 0.0
H3545 H 0.77302 0.63747 0.89577 0.0
H3546 H 0.82373 0.65759 0.78691 0.0
H3547 H 0.83183 0.67673 0.81802 0.0
H3548 H 0.81328 0.68518 0.79212 0.0
H3549 H 0.81569 0.60221 0.88529 0.0
H3550 H 0.7914 0.59826 0.88939 0.0
H3551 H 0.80325 0.6156 0.91831 0.0
C3552 C 0.91915 0.10426 0.79741 0.0
C3553 C 0.91365 0.08244 0.80806 0.0
C3554 C 0.936 0.11349 0.80743 0.0
C3555 C 0.94784 0.09984 0.82654 0.0
C3556 C 0.94145 0.07876 0.83971 0.0
C3557 C 0.92424 0.07061 0.83077 0.0
C3558 C 0.94147 0.13726 0.79659 0.0
C3559 C 0.95343 0.06346 0.86043 0.0
C3560 C 0.99639 0.08704 0.81095 0.0
C3561 C 1.00284 0.08899 0.84292 0.0
C3562 C 0.97872 0.09425 0.80304 0.0
C3563 C 0.96775 0.10446 0.82753 0.0
C3564 C 0.97591 0.11141 0.85713 0.0
C3565 C 0.99338 0.10318 0.86486 0.0
C3566 C 0.97089 0.08723 0.77049 0.0
C3567 C 0.9653 0.12429 0.88271 0.0
H3568 H 0.91071 0.11354 0.7802 0.0
H3569 H 0.91989 0.05373 0.83889 0.0
H3570 H 0.94646 0.14737 0.81771 0.0
H3571 H 0.95286 0.1363 0.77894 0.0
H3572 H 0.9299 0.14659 0.78522 0.0
H3573 H 0.94624 0.04767 0.8686 0.0
H3574 H 0.96568 0.05817 0.84647 0.0
H3575 H 0.95812 0.0729 0.88233 0.0
H3576 H 1.00414 0.0771 0.79342 0.0
H3577 H 0.99847 0.10555 0.8894 0.0
H3578 H 0.96384 0.10193 0.75898 0.0
H3579 H 0.96071 0.0733 0.77394 0.0
H3580 H 0.98157 0.08095 0.75349 0.0
H3581 H 0.95385 0.13417 0.87197 0.0
H3582 H 0.9744 0.13626 0.89619 0.0
H3583 H 0.95963 0.11192 0.90059 0.0
C3584 C 0.2515 0.38823 0.59411 0.0
C3585 C 0.25875 0.40665 0.57616 0.0
C3586 C 0.23427 0.37923 0.58624 0.0
C3587 C 0.22399 0.38994 0.56144 0.0
C3588 C 0.23302 0.40456 0.53904 0.0
C3589 C 0.25068 0.41219 0.54626 0.0
C3590 C 0.22614 0.36073 0.60739 0.0
C3591 C 0.22317 0.41513 0.51045 0.0
C3592 C 0.17448 0.39414 0.5389 0.0
C3593 C 0.16948 0.41325 0.55792 0.0
C3594 C 0.19149 0.38344 0.54341 0.0
C3595 C 0.20401 0.39302 0.56582 0.0
C3596 C 0.19792 0.41006 0.58808 0.0
C3597 C 0.1804 0.41916 0.58464 0.0
C3598 C 0.1964 0.36304 0.5226 0.0
C3599 C 0.21046 0.42084 0.61309 0.0
H3600 H 0.258 0.38271 0.61644 0.0
H3601 H 0.25696 0.42517 0.53099 0.0
H3602 H 0.22192 0.36817 0.63107 0.0
H3603 H 0.21412 0.35251 0.5957 0.0
H3604 H 0.23654 0.34735 0.6126 0.0
H3605 H 0.2323 0.42596 0.4953 0.0
H3606 H 0.21738 0.40143 0.49479 0.0
H3607 H 0.21173 0.42601 0.51918 0.0
H3608 H 0.16586 0.3886 0.51895 0.0
H3609 H 0.17604 0.43283 0.60082 0.0
H3610 H 0.20853 0.35372 0.53192 0.0
H3611 H 0.19918 0.36876 0.49738 0.0
H3612 H 0.18469 0.35093 0.52167 0.0
H3613 H 0.21544 0.40759 0.63024 0.0
H3614 H 0.20362 0.4345 0.62752 0.0
H3615 H 0.22249 0.4286 0.60093 0.0
C3616 C 0.06173 0.80609 0.50818 0.0
C3617 C 0.07162 0.79913 0.48091 0.0
C3618 C 0.0428 0.80813 0.50707 0.0
C3619 C 0.03345 0.80385 0.47727 0.0
C3620 C 0.04373 0.80019 0.44849 0.0
C3621 C 0.06277 0.79757 0.45072 0.0
C3622 C 0.033 0.81254 0.53887 0.0
C3623 C 0.03487 0.79755 0.41557 0.0
C3624 C 0.99507 0.76862 0.50451 0.0
C3625 C 0.98656 0.78574 0.52302 0.0
C3626 C 0.00912 0.77442 0.48305 0.0
C3627 C 0.01369 0.79796 0.47893 0.0
C3628 C 1.00115 0.81489 0.48959 0.0
C3629 C 0.98791 0.80868 0.51277 0.0
C3630 C 0.02083 0.7553 0.46956 0.0
C3631 C 1.00348 0.8398 0.4802 0.0
H3632 H 0.06877 0.80848 0.53116 0.0
H3633 H 0.07046 0.79284 0.42921 0.0
H3634 H 0.02488 0.82857 0.53729 0.0
H3635 H 0.02364 0.7981 0.54438 0.0
H3636 H 0.04251 0.81444 0.55976 0.0
H3637 H 0.04174 0.80902 0.3978 0.0
H3638 H 0.03689 0.77975 0.40653 0.0
H3639 H 0.02009 0.80164 0.41588 0.0
H3640 H 0.99296 0.75073 0.51095 0.0
H3641 H 0.98049 0.82198 0.52563 0.0
H3642 H 0.03508 0.75696 0.47844 0.0
H3643 H 0.02097 0.75625 0.44266 0.0
H3644 H 0.01573 0.73799 0.47649 0.0
H3645 H 0.99363 0.85117 0.49293 0.0
H3646 H 1.00131 0.84147 0.45359 0.0
H3647 H 0.01753 0.84591 0.48541 0.0
C3648 C 0.23118 0.82599 0.95238 0.0
C3649 C 0.24229 0.83167 0.92589 0.0
C3650 C 0.21324 0.83397 0.95414 0.0
C3651 C 0.20689 0.84994 0.93056 0.0
C3652 C 0.21948 0.85972 0.90848 0.0
C3653 C 0.23695 0.84997 0.90565 0.0
C3654 C 0.20058 0.8227 0.97842 0.0
C3655 C 0.21425 0.87896 0.88577 0.0
C3656 C 0.1617 0.82716 0.90661 0.0
C3657 C 0.15232 0.83244 0.93537 0.0
C3658 C 0.1793 0.83571 0.90142 0.0
C3659 C 0.18691 0.8512 0.92442 0.0
C3660 C 0.17539 0.86139 0.94789 0.0
C3661 C 0.15829 0.85133 0.95401 0.0
C3662 C 0.19052 0.82549 0.87421 0.0
C3663 C 0.18205 0.88102 0.96874 0.0
H3664 H 0.23574 0.81307 0.96955 0.0
H3665 H 0.24562 0.85539 0.88576 0.0
H3666 H 0.19378 0.83587 0.99356 0.0
H3667 H 0.18981 0.81289 0.96538 0.0
H3668 H 0.20783 0.81068 0.99496 0.0
H3669 H 0.21464 0.87275 0.86023 0.0
H3670 H 0.20055 0.88614 0.89111 0.0
H3671 H 0.22447 0.893 0.88771 0.0
H3672 H 0.1564 0.81391 0.89059 0.0
H3673 H 0.15075 0.85666 0.97537 0.0
H3674 H 0.20227 0.81582 0.88439 0.0
H3675 H 0.19597 0.83938 0.85859 0.0
H3676 H 0.18246 0.81359 0.85864 0.0
H3677 H 0.19441 0.87595 0.98251 0.0
H3678 H 0.17147 0.88701 0.98614 0.0
H3679 H 0.18606 0.89558 0.95283 0.0
C3680 C 0.09048 0.42504 0.93105 0.0
C3681 C 0.1024 0.41263 0.95105 0.0
C3682 C 0.07333 0.41632 0.92291 0.0
C3683 C 0.06805 0.39438 0.9346 0.0
C3684 C 0.08087 0.38054 0.95129 0.0
C3685 C 0.09797 0.3899 0.95949 0.0
C3686 C 0.06018 0.43182 0.9049 0.0
C3687 C 0.07594 0.35671 0.96271 0.0
C3688 C 0.0189 0.40184 0.95407 0.0
C3689 C 0.01209 0.40074 0.9223 0.0
C3690 C 0.03725 0.39699 0.96019 0.0
C3691 C 0.04833 0.38856 0.93449 0.0
C3692 C 0.04 0.38159 0.90504 0.0
C3693 C 0.02196 0.38836 0.89881 0.0
C3694 C 0.04482 0.40472 0.99257 0.0
C3695 C 0.0509 0.3705 0.87819 0.0
H3696 H 0.09372 0.44262 0.92448 0.0
H3697 H 0.10734 0.38005 0.97439 0.0
H3698 H 0.05472 0.42295 0.88309 0.0
H3699 H 0.04846 0.43617 0.92085 0.0
H3700 H 0.06666 0.44813 0.89689 0.0
H3701 H 0.08693 0.34881 0.9776 0.0
H3702 H 0.06321 0.35722 0.97724 0.0
H3703 H 0.07327 0.34556 0.9413 0.0
H3704 H 0.01086 0.41014 0.97286 0.0
H3705 H 0.0166 0.38649 0.87437 0.0
H3706 H 0.04101 0.42294 0.99712 0.0
H3707 H 0.05981 0.40336 0.99446 0.0
H3708 H 0.03846 0.39436 1.0122 0.0
H3709 H 0.0574 0.38403 0.86313 0.0
H3710 H 0.04197 0.36003 0.86207 0.0
H3711 H 0.06183 0.3594 0.88825 0.0
C3712 C 0.78173 0.57648 0.70279 0.0
C3713 C 0.77074 0.58221 0.67614 0.0
C3714 C 0.79956 0.5848 0.7052 0.0
C3715 C 0.80592 0.60119 0.68219 0.0
C3716 C 0.79339 0.61086 0.65986 0.0
C3717 C 0.77606 0.60076 0.65634 0.0
C3718 C 0.8121 0.57363 0.72977 0.0
C3719 C 0.79853 0.63047 0.63773 0.0
C3720 C 0.85404 0.60297 0.70823 0.0
C3721 C 0.86047 0.58456 0.68913 0.0
C3722 C 0.83702 0.61301 0.70143 0.0
C3723 C 0.82596 0.60313 0.67695 0.0
C3724 C 0.8341 0.58834 0.65369 0.0
C3725 C 0.85169 0.57998 0.6595 0.0
C3726 C 0.82997 0.63237 0.72234 0.0
C3727 C 0.82346 0.57863 0.62533 0.0
H3728 H 0.77716 0.56336 0.71963 0.0
H3729 H 0.76747 0.6062 0.63633 0.0
H3730 H 0.8235 0.56481 0.71711 0.0
H3731 H 0.81802 0.58682 0.74602 0.0
H3732 H 0.80498 0.56077 0.74518 0.0
H3733 H 0.78829 0.64444 0.64023 0.0
H3734 H 0.81223 0.63765 0.64317 0.0
H3735 H 0.79803 0.62469 0.612 0.0
H3736 H 0.86117 0.60794 0.73023 0.0
H3737 H 0.85743 0.56733 0.64303 0.0
H3738 H 0.81734 0.62716 0.73517 0.0
H3739 H 0.82629 0.64712 0.70654 0.0
H3740 H 0.84024 0.63814 0.74051 0.0
H3741 H 0.81152 0.56873 0.63425 0.0
H3742 H 0.83185 0.56707 0.60986 0.0
H3743 H 0.81835 0.59283 0.60989 0.0
C3744 C 0.9852 0.14558 0.64996 0.0
C3745 C 0.98994 0.16364 0.67117 0.0
C3746 C 0.96761 0.13594 0.65052 0.0
C3747 C 0.95431 0.14553 0.6714 0.0
C3748 C 0.95976 0.16175 0.69546 0.0
C3749 C 0.97777 0.16959 0.69602 0.0
C3750 C 0.96318 0.11687 0.62688 0.0
C3751 C 0.94621 0.17333 0.71789 0.0
C3752 C 0.90848 0.16577 0.64845 0.0
C3753 C 0.89971 0.15986 0.67761 0.0
C3754 C 0.92622 0.158 0.6423 0.0
C3755 C 0.93449 0.14276 0.66471 0.0
C3756 C 0.92347 0.13155 0.6879 0.0
C3757 C 0.90624 0.14076 0.69504 0.0
C3758 C 0.93694 0.16898 0.61511 0.0
C3759 C 0.93104 0.11251 0.70858 0.0
H3760 H 0.99458 0.14012 0.63112 0.0
H3761 H 0.98172 0.18244 0.71381 0.0
H3762 H 0.94955 0.10915 0.63113 0.0
H3763 H 0.96387 0.12354 0.60162 0.0
H3764 H 0.97364 0.10314 0.62886 0.0
H3765 H 0.95285 0.18529 0.73537 0.0
H3766 H 0.93621 0.18328 0.7033 0.0
H3767 H 0.93853 0.16041 0.73203 0.0
H3768 H 0.90272 0.17914 0.63322 0.0
H3769 H 0.89922 0.13487 0.71666 0.0
H3770 H 0.94339 0.1555 0.59992 0.0
H3771 H 0.94796 0.17991 0.62539 0.0
H3772 H 0.92824 0.17983 0.59918 0.0
H3773 H 0.93991 0.10103 0.69388 0.0
H3774 H 0.91987 0.10236 0.71962 0.0
H3775 H 0.93943 0.11988 0.72842 0.0
C3776 C 0.7717 0.1445 0.34331 0.0
C3777 C 0.76882 0.16612 0.32895 0.0
C3778 C 0.78779 0.13211 0.33721 0.0
C3779 C 0.80164 0.14224 0.31802 0.0
C3780 C 0.79758 0.16243 0.29994 0.0
C3781 C 0.78084 0.17345 0.30463 0.0
C3782 C 0.7903 0.10916 0.3535 0.0
C3783 C 0.81155 0.17416 0.27856 0.0
C3784 C 0.84912 0.15075 0.34619 0.0
C3785 C 0.85757 0.14922 0.31569 0.0
C3786 C 0.83064 0.1452 0.34956 0.0
C3787 C 0.82114 0.13578 0.32253 0.0
C3788 C 0.8313 0.12763 0.29567 0.0
C3789 C 0.84938 0.13522 0.2918 0.0
C3790 C 0.82092 0.1526 0.38023 0.0
C3791 C 0.82253 0.1136 0.26904 0.0
H3792 H 0.76223 0.13799 0.36131 0.0
H3793 H 0.77807 0.18932 0.29174 0.0
H3794 H 0.80214 0.0995 0.34368 0.0
H3795 H 0.792 0.11159 0.38009 0.0
H3796 H 0.77776 0.09873 0.35015 0.0
H3797 H 0.80647 0.1906 0.26823 0.0
H3798 H 0.82412 0.17795 0.29267 0.0
H3799 H 0.81527 0.16278 0.25799 0.0
H3800 H 0.85607 0.15954 0.36591 0.0
H3801 H 0.85605 0.13234 0.26866 0.0
H3802 H 0.81497 0.13736 0.39236 0.0
H3803 H 0.80966 0.16468 0.37442 0.0
H3804 H 0.83021 0.16119 0.39784 0.0
H3805 H 0.80883 0.1072 0.27608 0.0
H3806 H 0.83136 0.09866 0.26313 0.0
H3807 H 0.82136 0.12403 0.24656 0.0
C3808 C 0.95282 0.54912 0.20123 0.0
C3809 C 0.94654 0.53087 0.22043 0.0
C3810 C 0.97083 0.55706 0.2042 0.0
C3811 C 0.98246 0.54676 0.22743 0.0
C3812 C 0.9767 0.52652 0.24389 0.0
C3813 C 0.9588 0.51877 0.23992 0.0
C3814 C 0.97673 0.57732 0.18398 0.0
C3815 C 0.98861 0.51444 0.26861 0.0
C3816 C 0.02883 0.55073 0.26032 0.0
C3817 C 0.02399 0.55988 0.29078 0.0
C3818 C 0.01613 0.55053 0.23477 0.0
C3819 C 0.99849 0.55929 0.24058 0.0
C3820 C 0.99551 0.57368 0.26786 0.0
C3821 C 0.0084 0.57376 0.29298 0.0
C3822 C 0.02049 0.53762 0.20396 0.0
C3823 C 0.97741 0.5854 0.27339 0.0
H3824 H 0.9434 0.5579 0.18518 0.0
H3825 H 0.95391 0.50452 0.25454 0.0
H3826 H 0.96928 0.59292 0.19197 0.0
H3827 H 0.99161 0.58068 0.18541 0.0
H3828 H 0.97302 0.57415 0.15819 0.0
H3829 H 0.9822 0.49849 0.27811 0.0
H3830 H 1.00189 0.50974 0.25765 0.0
H3831 H 0.99131 0.52605 0.28953 0.0
H3832 H 0.04142 0.54111 0.25781 0.0
H3833 H 1.00484 0.58178 0.31592 0.0
H3834 H 0.01241 0.54432 0.18316 0.0
H3835 H 0.01709 0.51916 0.20715 0.0
H3836 H 0.03525 0.53888 0.19818 0.0
H3837 H 0.97292 0.59433 0.25096 0.0
H3838 H 0.97812 0.59816 0.29351 0.0
H3839 H 0.96692 0.57235 0.27963 0.0
C3840 C 0.72994 0.92317 0.56353 0.0
C3841 C 0.74224 0.91529 0.58708 0.0
C3842 C 0.71302 0.9125 0.55921 0.0
C3843 C 0.70899 0.89206 0.57675 0.0
C3844 C 0.72288 0.88156 0.59549 0.0
C3845 C 0.7392 0.89362 0.60124 0.0
C3846 C 0.6989 0.92479 0.53875 0.0
C3847 C 0.72028 0.85847 0.6115 0.0
C3848 C 0.66135 0.90032 0.60329 0.0
C3849 C 0.65323 0.89875 0.57245 0.0
C3850 C 0.67975 0.89456 0.60739 0.0
C3851 C 0.68951 0.88534 0.58064 0.0
C3852 C 0.67967 0.87724 0.55336 0.0
C3853 C 0.66163 0.88472 0.5489 0.0
C3854 C 0.68922 0.90172 0.63844 0.0
C3855 C 0.68883 0.86362 0.52681 0.0
H3856 H 0.73276 0.93911 0.55083 0.0
H3857 H 0.74883 0.88676 0.61872 0.0
H3858 H 0.69485 0.91389 0.51785 0.0
H3859 H 0.68652 0.92841 0.5534 0.0
H3860 H 0.70399 0.94139 0.52893 0.0
H3861 H 0.73188 0.84708 0.60505 0.0
H3862 H 0.72056 0.86053 0.63835 0.0
H3863 H 0.7074 0.84986 0.60416 0.0
H3864 H 0.65427 0.90931 0.62264 0.0
H3865 H 0.65523 0.88191 0.52548 0.0
H3866 H 0.69963 0.91509 0.6332 0.0
H3867 H 0.69627 0.88673 0.64929 0.0
H3868 H 0.67956 0.90871 0.65677 0.0
H3869 H 0.69175 0.87491 0.50572 0.0
H3870 H 0.67956 0.8498 0.51809 0.0
H3871 H 0.70179 0.85576 0.53531 0.0
C3872 C 0.4981 0.17823 0.55849 0.0
C3873 C 0.49091 0.19896 0.54642 0.0
C3874 C 0.51414 0.16912 0.54512 0.0
C3875 C 0.52305 0.1816 0.52038 0.0
C3876 C 0.5131 0.19827 0.50269 0.0
C3877 C 0.49686 0.20678 0.51596 0.0
C3878 C 0.52344 0.14934 0.56194 0.0
C3879 C 0.52135 0.21038 0.47385 0.0
C3880 C 0.56766 0.20835 0.54523 0.0
C3881 C 0.57957 0.19987 0.52162 0.0
C3882 C 0.54954 0.20122 0.54637 0.0
C3883 C 0.54306 0.18499 0.52315 0.0
C3884 C 0.55542 0.17485 0.50091 0.0
C3885 C 0.57357 0.18265 0.50014 0.0
C3886 C 0.5372 0.21256 0.57113 0.0
C3887 C 0.54961 0.15658 0.47699 0.0
H3888 H 0.49312 0.17111 0.58115 0.0
H3889 H 0.49053 0.22181 0.50521 0.0
H3890 H 0.53245 0.13987 0.54486 0.0
H3891 H 0.53195 0.15604 0.58221 0.0
H3892 H 0.51325 0.13728 0.57236 0.0
H3893 H 0.51083 0.21957 0.4594 0.0
H3894 H 0.53153 0.22317 0.4825 0.0
H3895 H 0.52847 0.19792 0.45785 0.0
H3896 H 0.57218 0.22181 0.56165 0.0
H3897 H 0.5829 0.17572 0.48219 0.0
H3898 H 0.5304 0.19942 0.5864 0.0
H3899 H 0.52657 0.22268 0.55846 0.0
H3900 H 0.54469 0.22441 0.58766 0.0
H3901 H 0.53642 0.14847 0.48353 0.0
H3902 H 0.56021 0.14297 0.4754 0.0
H3903 H 0.54837 0.16434 0.45243 0.0
C3904 C 0.74655 0.355 0.91087 0.0
C3905 C 0.75474 0.33911 0.9321 0.0
C3906 C 0.72905 0.36358 0.91753 0.0
C3907 C 0.71944 0.35485 0.94461 0.0
C3908 C 0.72926 0.34321 0.96934 0.0
C3909 C 0.74711 0.336 0.96303 0.0
C3910 C 0.72 0.37949 0.89358 0.0
C3911 C 0.7202 0.33536 1.00038 0.0
C3912 C 0.67038 0.3485 0.96949 0.0
C3913 C 0.6662 0.32785 0.95336 0.0
C3914 C 0.68682 0.36011 0.96302 0.0
C3915 C 0.69959 0.35 0.94149 0.0
C3916 C 0.69413 0.33098 0.92198 0.0
C3917 C 0.67705 0.321 0.92712 0.0
C3918 C 0.69088 0.38199 0.98134 0.0
C3919 C 0.70704 0.31891 0.89882 0.0
H3920 H 0.75267 0.3587 0.88747 0.0
H3921 H 0.75407 0.32518 0.98054 0.0
H3922 H 0.71396 0.36946 0.8733 0.0
H3923 H 0.70898 0.38958 0.9054 0.0
H3924 H 0.73019 0.39141 0.88285 0.0
H3925 H 0.72983 0.32634 1.01688 0.0
H3926 H 0.7146 0.35041 1.01355 0.0
H3927 H 0.70874 0.32351 0.99474 0.0
H3928 H 0.66171 0.35461 0.98902 0.0
H3929 H 0.67322 0.30587 0.91324 0.0
H3930 H 0.704 0.38997 0.97402 0.0
H3931 H 0.69108 0.37856 1.00789 0.0
H3932 H 0.67972 0.39449 0.97695 0.0
H3933 H 0.71103 0.33061 0.87885 0.0
H3934 H 0.70089 0.30332 0.88763 0.0
H3935 H 0.71961 0.31356 0.91182 0.0
C3936 C 0.532 0.91476 0.95131 0.0
C3937 C 0.5206 0.90911 0.92513 0.0
C3938 C 0.55005 0.90712 0.95216 0.0
C3939 C 0.55623 0.89132 0.92816 0.0
C3940 C 0.54346 0.88154 0.90633 0.0
C3941 C 0.52587 0.89108 0.90431 0.0
C3942 C 0.56294 0.91866 0.9759 0.0
C3943 C 0.54855 0.86252 0.8831 0.0
C3944 C 0.60126 0.91429 0.90429 0.0
C3945 C 0.61065 0.90896 0.93303 0.0
C3946 C 0.5837 0.90562 0.89891 0.0
C3947 C 0.57618 0.89 0.9217 0.0
C3948 C 0.58777 0.87971 0.94495 0.0
C3949 C 0.60481 0.88988 0.95129 0.0
C3950 C 0.57239 0.91591 0.87188 0.0
C3951 C 0.58114 0.86004 0.96564 0.0
H3952 H 0.52753 0.92743 0.96895 0.0
H3953 H 0.51702 0.88567 0.88461 0.0
H3954 H 0.57029 0.90566 0.99041 0.0
H3955 H 0.57325 0.92886 0.96239 0.0
H3956 H 0.55578 0.93036 0.99304 0.0
H3957 H 0.53843 0.84836 0.88508 0.0
H3958 H 0.54786 0.86891 0.8577 0.0
H3959 H 0.56234 0.85541 0.88787 0.0
H3960 H 0.60646 0.92772 0.88855 0.0
H3961 H 0.61237 0.88454 0.97264 0.0
H3962 H 0.56071 0.9256 0.88224 0.0
H3963 H 0.56685 0.90205 0.85622 0.0
H3964 H 0.58042 0.9278 0.85633 0.0
H3965 H 0.56903 0.86533 0.97988 0.0
H3966 H 0.59183 0.85373 0.9826 0.0
H3967 H 0.57674 0.84567 0.94962 0.0
C3968 C 0.2756 0.09974 0.65769 0.0
C3969 C 0.27041 0.08114 0.67749 0.0
C3970 C 0.29287 0.11 0.66115 0.0
C3971 C 0.30546 0.10051 0.68353 0.0
C3972 C 0.29921 0.08413 0.70664 0.0
C3973 C 0.28147 0.07548 0.70409 0.0
C3974 C 0.29789 0.12961 0.63893 0.0
C3975 C 0.31179 0.07335 0.73152 0.0
C3976 C 0.35134 0.07964 0.66088 0.0
C3977 C 0.36006 0.08431 0.69056 0.0
C3978 C 0.33369 0.0878 0.65504 0.0
C3979 C 0.32548 0.1026 0.67819 0.0
C3980 C 0.33651 0.11272 0.70249 0.0
C3981 C 0.35356 0.1028 0.70944 0.0
C3982 C 0.3231 0.07791 0.62674 0.0
C3983 C 0.32941 0.13221 0.72305 0.0
H3984 H 0.26696 0.1051 0.6377 0.0
H3985 H 0.27701 0.06227 0.72089 0.0
H3986 H 0.31155 0.13693 0.64433 0.0
H3987 H 0.29744 0.12375 0.61322 0.0
H3988 H 0.28758 0.14348 0.64135 0.0
H3989 H 0.30475 0.06043 0.74696 0.0
H3990 H 0.32334 0.06467 0.7191 0.0
H3991 H 0.31751 0.08673 0.74776 0.0
H3992 H 0.35718 0.0671 0.64437 0.0
H3993 H 0.36065 0.108 0.73135 0.0
H3994 H 0.31792 0.09203 0.61122 0.0
H3995 H 0.31121 0.06795 0.63573 0.0
H3996 H 0.33155 0.06637 0.61135 0.0
H3997 H 0.32501 0.14649 0.70695 0.0
H3998 H 0.3399 0.13874 0.74026 0.0
H3999 H 0.3172 0.12674 0.73693 0.0
C4000 C 0.40744 0.63841 0.7069 0.0
C4001 C 0.40099 0.65679 0.68786 0.0
C4002 C 0.42456 0.6286 0.70033 0.0
C4003 C 0.43565 0.63866 0.67614 0.0
C4004 C 0.42744 0.6532 0.65269 0.0
C4005 C 0.40977 0.66138 0.65827 0.0
C4006 C 0.4318 0.60959 0.72159 0.0
C4007 C 0.43812 0.66296 0.62449 0.0
C4008 C 0.47922 0.66634 0.70389 0.0
C4009 C 0.49072 0.66056 0.67797 0.0
C4010 C 0.46141 0.65785 0.7053 0.0
C4011 C 0.45559 0.64122 0.6821 0.0
C4012 C 0.46854 0.63161 0.66051 0.0
C4013 C 0.48585 0.64188 0.65794 0.0
C4014 C 0.44835 0.66909 0.72897 0.0
C4015 C 0.46392 0.61184 0.63819 0.0
H4016 H 0.40033 0.63342 0.72887 0.0
H4017 H 0.40402 0.67399 0.64181 0.0
H4018 H 0.43609 0.59495 0.70602 0.0
H4019 H 0.4441 0.61543 0.73497 0.0
H4020 H 0.42145 0.60347 0.73933 0.0
H4021 H 0.42963 0.67411 0.60862 0.0
H4022 H 0.44979 0.67331 0.63364 0.0
H4023 H 0.44364 0.64878 0.60943 0.0
H4024 H 0.4834 0.6796 0.72091 0.0
H4025 H 0.49481 0.63643 0.63847 0.0
H4026 H 0.44201 0.65598 0.74477 0.0
H4027 H 0.43728 0.67792 0.71544 0.0
H4028 H 0.45516 0.68196 0.74489 0.0
H4029 H 0.45025 0.60439 0.64307 0.0
H4030 H 0.4743 0.5981 0.64109 0.0
H4031 H 0.46463 0.61759 0.61248 0.0
C4032 C 0.35165 0.63656 0.30397 0.0
C4033 C 0.35853 0.65306 0.32587 0.0
C4034 C 0.33407 0.62741 0.30827 0.0
C4035 C 0.32301 0.63623 0.33353 0.0
C4036 C 0.33138 0.64878 0.35916 0.0
C4037 C 0.34942 0.65621 0.35551 0.0
C4038 C 0.32676 0.6106 0.28354 0.0
C4039 C 0.32069 0.65731 0.38818 0.0
C4040 C 0.27991 0.66668 0.3105 0.0
C4041 C 0.2687 0.66005 0.33642 0.0
C4042 C 0.29739 0.65742 0.30698 0.0
C4043 C 0.30308 0.63944 0.32806 0.0
C4044 C 0.29014 0.62914 0.34902 0.0
C4045 C 0.27323 0.64002 0.35379 0.0
C4046 C 0.3103 0.669 0.28341 0.0
C4047 C 0.29445 0.60788 0.36852 0.0
H4048 H 0.3589 0.63264 0.2817 0.0
H4049 H 0.35539 0.6673 0.37388 0.0
H4050 H 0.3132 0.60365 0.29045 0.0
H4051 H 0.3258 0.61896 0.25935 0.0
H4052 H 0.33646 0.59605 0.28093 0.0
H4053 H 0.32922 0.66754 0.40526 0.0
H4054 H 0.30915 0.66825 0.38006 0.0
H4055 H 0.31501 0.64251 0.40173 0.0
H4056 H 0.27587 0.68102 0.29529 0.0
H4057 H 0.26441 0.63386 0.37303 0.0
H4058 H 0.31475 0.65654 0.26464 0.0
H4059 H 0.3226 0.67536 0.29639 0.0
H4060 H 0.30393 0.68382 0.27074 0.0
H4061 H 0.30796 0.60042 0.36249 0.0
H4062 H 0.28381 0.59468 0.36382 0.0
H4063 H 0.29387 0.6119 0.39491 0.0
C4064 C 0.47963 0.08965 0.35615 0.0
C4065 C 0.47816 0.06583 0.36122 0.0
C4066 C 0.46477 0.10242 0.34454 0.0
C4067 C 0.44809 0.09106 0.33809 0.0
C4068 C 0.44644 0.06711 0.34408 0.0
C4069 C 0.46155 0.05482 0.35506 0.0
C4070 C 0.46733 0.12775 0.33829 0.0
C4071 C 0.42885 0.05414 0.33804 0.0
C4072 C 0.40005 0.10818 0.32779 0.0
C4073 C 0.39756 0.09891 0.29659 0.0
C4074 C 0.41767 0.11017 0.34085 0.0
C4075 C 0.43269 0.10287 0.3219 0.0
C4076 C 0.43035 0.09892 0.28827 0.0
C4077 C 0.41268 0.09697 0.27588 0.0
C4078 C 0.41981 0.1157 0.37646 0.0
C4079 C 0.44617 0.09211 0.26695 0.0
H4080 H 0.49239 0.09836 0.36132 0.0
H4081 H 0.46041 0.03638 0.35831 0.0
H4082 H 0.45431 0.13739 0.33937 0.0
H4083 H 0.477 0.13538 0.35613 0.0
H4084 H 0.47333 0.13 0.31374 0.0
H4085 H 0.42959 0.03598 0.34629 0.0
H4086 H 0.41743 0.0626 0.35104 0.0
H4087 H 0.42559 0.05412 0.31168 0.0
H4088 H 0.38832 0.11041 0.34354 0.0
H4089 H 0.41095 0.09042 0.25135 0.0
H4090 H 0.43297 0.12451 0.38127 0.0
H4091 H 0.41964 0.09944 0.3906 0.0
H4092 H 0.40845 0.1267 0.38526 0.0
H4093 H 0.45828 0.10288 0.27247 0.0
H4094 H 0.44269 0.09365 0.24077 0.0
H4095 H 0.44984 0.07391 0.27176 0.0
C4096 C 0.70262 0.43626 1.01433 0.0
C4097 C 0.69302 0.44253 0.98635 0.0
C4098 C 0.72136 0.43233 1.01332 0.0
C4099 C 0.73069 0.43403 0.98314 0.0
C4100 C 0.72063 0.43734 0.95411 0.0
C4101 C 0.70183 0.44191 0.95607 0.0
C4102 C 0.73122 0.42847 1.04523 0.0
C4103 C 0.72971 0.43743 0.92122 0.0
C4104 C 0.77264 0.46236 1.01013 0.0
C4105 C 0.78073 0.44324 1.02505 0.0
C4106 C 0.75746 0.45954 0.98989 0.0
C4107 C 0.75079 0.43706 0.98403 0.0
C4108 C 0.76186 0.41796 0.99188 0.0
C4109 C 0.77665 0.42118 1.01313 0.0
C4110 C 0.74665 0.48064 0.98058 0.0
C4111 C 0.7563 0.39393 0.98254 0.0
H4112 H 0.69557 0.43566 1.03751 0.0
H4113 H 0.69432 0.44616 0.93417 0.0
H4114 H 0.73886 0.41206 1.0445 0.0
H4115 H 0.74113 0.44257 1.04964 0.0
H4116 H 0.72176 0.4278 1.06631 0.0
H4117 H 0.72019 0.43114 0.90216 0.0
H4118 H 0.73352 0.45524 0.91454 0.0
H4119 H 0.74221 0.42667 0.92102 0.0
H4120 H 0.77609 0.47956 1.01827 0.0
H4121 H 0.78348 0.40632 1.02336 0.0
H4122 H 0.73404 0.48156 0.99549 0.0
H4123 H 0.74255 0.47977 0.9547 0.0
H4124 H 0.75452 0.49675 0.98442 0.0
H4125 H 0.74745 0.38652 1.00175 0.0
H4126 H 0.76843 0.38265 0.97992 0.0
H4127 H 0.74852 0.394 0.9594 0.0
C4128 C 0.59757 0.82511 1.10708 0.0
C4129 C 0.60659 0.83111 1.07827 0.0
C4130 C 0.58047 0.83443 1.11425 0.0
C4131 C 0.57302 0.85128 1.09318 0.0
C4132 C 0.58444 0.86173 1.06979 0.0
C4133 C 0.601 0.851 1.06164 0.0
C4134 C 0.56942 0.82368 0.14126 0.0
C4135 C 0.57817 0.8826 1.05124 0.0
C4136 C 0.52737 0.82889 1.06821 0.0
C4137 C 0.51743 0.83404 1.09636 0.0
C4138 C 0.54534 0.83653 1.06472 0.0
C4139 C 0.55289 0.8515 1.08857 0.0
C4140 C 0.54133 0.86104 1.11257 0.0
C4141 C 0.52381 0.85168 1.11689 0.0
C4142 C 0.55685 0.82565 1.03833 0.0
C4143 C 0.54784 0.87937 0.13583 0.0
H4144 H 0.60264 0.81086 1.12147 0.0
H4145 H 0.6084 0.85674 1.04034 0.0
H4146 H 0.56466 0.83718 0.15829 0.0
H4147 H 0.55722 0.81494 1.13102 0.0
H4148 H 0.57737 0.81086 0.15538 0.0
H4149 H 0.58889 0.88914 1.03456 0.0
H4150 H 0.56572 0.87859 1.03699 0.0
H4151 H 0.57444 0.8964 1.06871 0.0
H4152 H 0.52196 0.81648 1.051 0.0
H4153 H 0.51601 0.85673 0.1381 0.0
H4154 H 0.56745 0.81454 1.04949 0.0
H4155 H 0.56388 0.83903 1.02395 0.0
H4156 H 0.54865 0.81495 1.02132 0.0
H4157 H 0.54841 0.87233 0.16089 0.0
H4158 H 0.53784 0.8937 0.13624 0.0
H4159 H 0.56141 0.88639 1.12915 0.0
C4160 C 0.69645 0.69846 0.54089 0.0
C4161 C 0.69003 0.71398 0.51739 0.0
C4162 C 0.7149 0.69186 0.54157 0.0
C4163 C 0.72708 0.70135 0.51848 0.0
C4164 C 0.72038 0.7165 0.49414 0.0
C4165 C 0.70203 0.7226 0.49408 0.0
C4166 C 0.72117 0.67544 0.56764 0.0
C4167 C 0.73257 0.72725 0.46867 0.0
C4168 C 0.77415 0.72058 0.5168 0.0
C4169 C 0.77851 0.71002 0.48709 0.0
C4170 C 0.75823 0.71418 0.53336 0.0
C4171 C 0.747 0.69693 0.51964 0.0
C4172 C 0.75441 0.68198 0.49604 0.0
C4173 C 0.77022 0.68883 0.47955 0.0
C4174 C 0.7516 0.72897 0.56103 0.0
C4175 C 0.74363 0.66184 0.48318 0.0
H4176 H 0.68711 0.69162 0.55889 0.0
H4177 H 0.69721 0.73497 0.47634 0.0
H4178 H 0.73401 0.66649 0.56111 0.0
H4179 H 0.72347 0.68518 0.59052 0.0
H4180 H 0.71048 0.66235 0.57262 0.0
H4181 H 0.74284 0.73836 0.4807 0.0
H4182 H 0.73979 0.71377 0.45462 0.0
H4183 H 0.7249 0.73805 0.45108 0.0
H4184 H 0.78137 0.73602 0.52421 0.0
H4185 H 0.77399 0.67958 0.45767 0.0
H4186 H 0.74371 0.71859 0.57874 0.0
H4187 H 0.74248 0.74257 0.55127 0.0
H4188 H 0.76315 0.73747 0.5738 0.0
H4189 H 0.75282 0.64846 0.47301 0.0
H4190 H 0.7345 0.66783 0.46335 0.0
H4191 H 0.73505 0.65413 0.50255 0.0
C4192 C 0.53292 0.42191 0.4606 0.0
C4193 C 0.52121 0.41473 0.43566 0.0
C4194 C 0.55 0.41166 0.46479 0.0
C4195 C 0.55474 0.3922 0.4456 0.0
C4196 C 0.54129 0.38195 0.4255 0.0
C4197 C 0.52483 0.39372 0.41994 0.0
C4198 C 0.56355 0.42354 0.48699 0.0
C4199 C 0.54454 0.35957 0.40788 0.0
C4200 C 0.60214 0.40358 0.41944 0.0
C4201 C 0.61045 0.40137 0.45001 0.0
C4202 C 0.58386 0.39723 0.41517 0.0
C4203 C 0.57444 0.38672 0.44134 0.0
C4204 C 0.58459 0.37828 0.46802 0.0
C4205 C 0.60245 0.38638 0.47277 0.0
C4206 C 0.57413 0.40497 0.38468 0.0
C4207 C 0.57597 0.36334 0.49369 0.0
H4208 H 0.52959 0.43718 0.47454 0.0
H4209 H 0.51561 0.38728 0.40143 0.0
H4210 H 0.56743 0.41193 0.50716 0.0
H4211 H 0.57609 0.42813 0.47337 0.0
H4212 H 0.55798 0.43956 0.49791 0.0
H4213 H 0.53327 0.34745 0.41355 0.0
H4214 H 0.54416 0.36247 0.3812 0.0
H4215 H 0.55765 0.35134 0.41463 0.0
H4216 H 0.60895 0.41333 0.40055 0.0
H4217 H 0.60905 0.38308 0.49588 0.0
H4218 H 0.56315 0.41735 0.3909 0.0
H4219 H 0.56778 0.38996 0.37249 0.0
H4220 H 0.58349 0.41336 0.36706 0.0
H4221 H 0.57417 0.37329 0.51651 0.0
H4222 H 0.58519 0.34877 0.49944 0.0
H4223 H 0.56256 0.35639 0.48579 0.0
C4224 C 0.3169 0.45232 0.24432 0.0
C4225 C 0.3272 0.45101 0.27284 0.0
C4226 C 0.29807 0.44913 0.2449 0.0
C4227 C 0.28933 0.44408 0.27495 0.0
C4228 C 0.30004 0.43927 0.30278 0.0
C4229 C 0.31894 0.44317 0.30156 0.0
C4230 C 0.28759 0.454 0.21392 0.0
C4231 C 0.29171 0.43159 0.33446 0.0
C4232 C 0.25065 0.48245 0.26616 0.0
C4233 C 0.24182 0.46968 0.24185 0.0
C4234 C 0.26483 0.47252 0.28411 0.0
C4235 C 0.26959 0.44935 0.2778 0.0
C4236 C 0.25704 0.43511 0.26132 0.0
C4237 C 0.24341 0.44554 0.24247 0.0
C4238 C 0.27674 0.48789 0.30474 0.0
C4239 C 0.26018 0.40959 0.25847 0.0
H4240 H 0.32324 0.45823 0.22202 0.0
H4241 H 0.32705 0.44134 0.32348 0.0
H4242 H 0.27847 0.43943 0.20781 0.0
H4243 H 0.27914 0.46964 0.2171 0.0
H4244 H 0.2967 0.45688 0.19272 0.0
H4245 H 0.29935 0.41654 0.34399 0.0
H4246 H 0.29307 0.44552 0.3528 0.0
H4247 H 0.27712 0.4268 0.33201 0.0
H4248 H 0.24837 0.50084 0.26779 0.0
H4249 H 0.23597 0.43499 0.22523 0.0
H4250 H 0.28975 0.49138 0.29181 0.0
H4251 H 0.28005 0.47931 0.32805 0.0
H4252 H 0.27005 0.50461 0.31012 0.0
H4253 H 0.26845 0.4059 0.23648 0.0
H4254 H 0.247 0.40031 0.25592 0.0
H4255 H 0.26762 0.40291 0.28003 0.0
C4256 C 0.41888 0.14928 0.25521 0.0
C4257 C 0.4037 0.1444 0.23558 0.0
C4258 C 0.43653 0.14702 0.24283 0.0
C4259 C 0.43884 0.13948 0.21039 0.0
C4260 C 0.42386 0.12972 0.19352 0.0
C4261 C 0.40624 0.13254 0.20624 0.0
C4262 C 0.45219 0.15698 0.26207 0.0
C4263 C 0.42595 0.12031 0.15956 0.0
C4264 C 0.46544 0.18366 0.16335 0.0
C4265 C 0.48254 0.17331 0.1604 0.0
C4266 C 0.45106 0.17236 0.17862 0.0
C4267 C 0.45385 0.14997 0.19138 0.0
C4268 C 0.47108 0.1392 0.18804 0.0
C4269 C 0.48538 0.1512 0.17284 0.0
C4270 C 0.43297 0.18475 0.18148 0.0
C4271 C 0.47459 0.1153 0.20068 0.0
H4272 H 0.41702 0.158 0.27831 0.0
H4273 H 0.39449 0.12824 0.19139 0.0
H4274 H 0.46465 0.14645 0.25891 0.0
H4275 H 0.45521 0.17457 0.25309 0.0
H4276 H 0.44888 0.15821 0.28836 0.0
H4277 H 0.41501 0.10768 0.1539 0.0
H4278 H 0.42491 0.13465 0.14186 0.0
H4279 H 0.43943 0.11197 0.1563 0.0
H4280 H 0.46338 0.20089 0.15394 0.0
H4281 H 0.49866 0.14321 0.17024 0.0
H4282 H 0.42929 0.18702 0.20746 0.0
H4283 H 0.42205 0.17449 0.1697 0.0
H4284 H 0.43321 0.202 0.16991 0.0
H4285 H 0.46255 0.10405 0.19701 0.0
H4286 H 0.47752 0.11619 0.22711 0.0
H4287 H 0.48654 0.10727 0.18856 0.0
C4288 C 0.35842 0.13906 0.81915 0.0
C4289 C 0.36529 0.15722 0.83827 0.0
C4290 C 0.34169 0.1287 0.8272 0.0
C4291 C 0.33138 0.13806 0.85303 0.0
C4292 C 0.3403 0.15212 0.87632 0.0
C4293 C 0.3576 0.1609 0.86906 0.0
C4294 C 0.33385 0.11003 0.80592 0.0
C4295 C 0.33059 0.16093 0.90621 0.0
C4296 C 0.28751 0.16724 0.8311 0.0
C4297 C 0.27659 0.16063 0.85736 0.0
C4298 C 0.30508 0.15838 0.82735 0.0
C4299 C 0.31133 0.14098 0.84895 0.0
C4300 C 0.29888 0.13095 0.87109 0.0
C4301 C 0.28174 0.14131 0.87572 0.0
C4302 C 0.31751 0.16988 0.80288 0.0
C4303 C 0.30388 0.11051 0.89175 0.0
H4304 H 0.36478 0.13475 0.79616 0.0
H4305 H 0.36376 0.17339 0.88535 0.0
H4306 H 0.32982 0.0952 0.82131 0.0
H4307 H 0.3213 0.11615 0.79365 0.0
H4308 H 0.34373 0.10408 0.78724 0.0
H4309 H 0.33966 0.17142 0.92204 0.0
H4310 H 0.31876 0.1717 0.89899 0.0
H4311 H 0.32539 0.14628 0.92069 0.0
H4312 H 0.28307 0.18121 0.81555 0.0
H4313 H 0.27315 0.13536 0.89542 0.0
H4314 H 0.32295 0.15701 0.7856 0.0
H4315 H 0.32922 0.17804 0.81555 0.0
H4316 H 0.31042 0.18336 0.78852 0.0
H4317 H 0.31734 0.10308 0.88531 0.0
H4318 H 0.29332 0.09696 0.88883 0.0
H4319 H 0.30387 0.11551 0.91782 0.0
C4320 C 0.48742 0.60173 0.86854 0.0
C4321 C 0.49261 0.58353 0.84793 0.0
C4322 C 0.46994 0.61153 0.86622 0.0
C4323 C 0.45716 0.60192 0.84424 0.0
C4324 C 0.46327 0.58586 0.82052 0.0
C4325 C 0.48122 0.57787 0.82174 0.0
C4326 C 0.46497 0.63076 0.8892 0.0
C4327 C 0.4504 0.57462 0.79647 0.0
C4328 C 0.41163 0.58017 0.86722 0.0
C4329 C 0.40269 0.58521 0.83791 0.0
C4330 C 0.42923 0.58857 0.87305 0.0
C4331 C 0.43719 0.60379 0.8502 0.0
C4332 C 0.42595 0.61408 0.82642 0.0
C4333 C 0.40891 0.60406 0.81954 0.0
C4334 C 0.44009 0.57844 0.90077 0.0
C4335 C 0.43291 0.63365 0.80592 0.0
H4336 H 0.49626 0.60711 0.88826 0.0
H4337 H 0.48563 0.56503 0.80429 0.0
H4338 H 0.45122 0.63796 0.88439 0.0
H4339 H 0.46566 0.62453 0.91469 0.0
H4340 H 0.47516 0.6448 0.887 0.0
H4341 H 0.45743 0.56226 0.78009 0.0
H4342 H 0.43952 0.56519 0.80968 0.0
H4343 H 0.44378 0.58779 0.78115 0.0
H4344 H 0.40605 0.56713 0.88321 0.0
H4345 H 0.40169 0.60936 0.79783 0.0
H4346 H 0.4455 0.59242 0.91639 0.0
H4347 H 0.45186 0.56854 0.89113 0.0
H4348 H 0.43178 0.56679 0.9162 0.0
H4349 H 0.43746 0.64788 0.82206 0.0
H4350 H 0.42231 0.64022 0.78899 0.0
H4351 H 0.44499 0.62818 0.7917 0.0
loop_
_geom_bond_atom_site_label_1
_geom_bond_atom_site_label_2
_geom_bond_distance
_geom_bond_site_symmetry_2
_ccdc_geom_bond_type
Nd0 C2 2.834 1_545 S
Nd0 O20 2.500 1_545 S
Nd0 O21 2.492 . S
Nd0 O22 2.487 . S
Nd0 O23 2.682 . S
Nd0 O24 2.410 . S
Nd0 O29 2.414 1_545 S
Nd0 O31 2.425 . S
Nd1 C11 2.836 . S
Nd1 O23 2.414 . S
Nd1 O25 2.424 . S
Nd1 O26 2.500 . S
Nd1 O27 2.492 1_545 S
Nd1 O28 2.487 1_545 S
Nd1 O29 2.682 1_545 S
Nd1 O30 2.410 1_545 S
C2 Nd0 2.834 1_565 S
C2 C3 1.500 1_554 S
C2 O20 1.280 . S
C2 O21 1.215 1_565 S
C3 C2 1.500 1_556 S
C3 C4 1.366 . S
C3 C8 1.407 1_565 S
C4 C3 1.366 . S
C4 C5 1.392 . S
C4 H32 0.930 . S
C5 C4 1.392 . S
C5 C6 1.398 . S
C5 H33 0.929 . S
C6 C5 1.398 . S
C6 C7 1.352 1_565 S
C7 C6 1.352 1_545 S
C7 C8 1.384 . S
C7 H34 0.930 . S
C8 C3 1.407 1_545 S
C8 C7 1.384 . S
C8 H35 0.929 . S
C9 O22 1.241 . S
C9 O23 1.273 . S
C10 O24 1.251 . S
C10 O25 1.268 . S
C11 Nd1 2.836 . S
C11 C12 1.498 . S
C11 O26 1.258 . S
C11 O27 1.239 1_545 S
C12 C11 1.498 . S
C12 C13 1.366 . S
C12 C17 1.407 1_545 S
C13 C12 1.366 . S
C13 C14 1.392 . S
C13 H36 0.930 . S
C14 C13 1.392 . S
C14 C15 1.398 . S
C14 H37 0.929 . S
C15 C14 1.398 . S
C15 C16 1.352 1_545 S
C16 C15 1.352 1_565 S
C16 C17 1.384 . S
C16 H38 0.930 . S
C17 C12 1.407 1_565 S
C17 C16 1.384 . S
C17 H39 0.929 . S
C18 O28 1.241 . S
C18 O29 1.273 . S
C19 O30 1.251 . S
C19 O31 1.267 1_565 S
O20 Nd0 2.500 1_565 S
O20 C2 1.280 . S
O21 Nd0 2.492 . S
O21 C2 1.215 1_545 S
O22 Nd0 2.487 . S
O22 C9 1.241 . S
O23 Nd0 2.682 . S
O23 Nd1 2.414 . S
O23 C9 1.273 . S
O24 Nd0 2.410 . S
O24 C10 1.251 . S
O25 Nd1 2.424 . S
O25 C10 1.268 . S
O26 Nd1 2.500 . S
O26 C11 1.258 . S
O27 Nd1 2.492 1_565 S
O27 C11 1.239 1_565 S
O28 Nd1 2.487 1_565 S
O28 C18 1.241 . S
O29 Nd0 2.414 1_565 S
O29 Nd1 2.682 1_565 S
O29 C18 1.273 . S
O30 Nd1 2.410 1_565 S
O30 C19 1.251 . S
O31 Nd0 2.425 . S
O31 C19 1.267 1_545 S
H32 C4 0.930 . S
H33 C5 0.929 . S
H34 C7 0.930 . S
H35 C8 0.929 . S
H36 C13 0.930 . S
H37 C14 0.929 . S
H38 C16 0.930 . S
H39 C17 0.929 . S
Nd40 C42 2.836 . S
Nd40 O60 2.500 . S
Nd40 O61 2.492 . S
Nd40 O62 2.487 . S
Nd40 O63 2.682 . S
Nd40 O64 2.410 . S
Nd40 O69 2.414 . S
Nd40 O71 2.424 . S
Nd41 C51 2.836 . S
Nd41 O63 2.414 . S
Nd41 O65 2.424 . S
Nd41 O66 2.500 . S
Nd41 O67 2.492 . S
Nd41 O68 2.487 . S
Nd41 O69 2.682 . S
Nd41 O70 2.410 . S
C42 Nd40 2.836 . S
C42 C43 1.498 1_554 S
C42 O60 1.258 . S
C42 O61 1.239 . S
C43 C42 1.498 1_556 S
C43 C44 1.366 . S
C43 C48 1.407 . S
C44 C43 1.366 . S
C44 C45 1.392 . S
C44 H72 0.930 . S
C45 C44 1.392 . S
C45 C46 1.398 . S
C45 H73 0.929 . S
C46 C45 1.398 . S
C46 C47 1.352 . S
C47 C46 1.352 . S
C47 C48 1.384 . S
C47 H74 0.930 1_655 S
C48 C43 1.407 . S
C48 C47 1.384 . S
C48 H75 0.929 . S
C49 O62 1.241 . S
C49 O63 1.273 . S
C50 O64 1.251 . S
C50 O65 1.268 . S
C51 Nd41 2.836 . S
C51 C52 1.498 . S
C51 O66 1.258 . S
C51 O67 1.239 . S
C52 C51 1.498 . S
C52 C53 1.366 . S
C52 C57 1.407 . S
C53 C52 1.366 . S
C53 C54 1.392 . S
C53 H76 0.930 . S
C54 C53 1.392 . S
C54 C55 1.398 . S
C54 H77 0.929 . S
C55 C54 1.398 . S
C55 C56 1.352 . S
C56 C55 1.352 . S
C56 C57 1.384 . S
C56 H78 0.930 . S
C57 C52 1.407 . S
C57 C56 1.384 . S
C57 H79 0.929 . S
C58 O68 1.241 . S
C58 O69 1.273 . S
C59 O70 1.251 . S
C59 O71 1.268 . S
O60 Nd40 2.500 . S
O60 C42 1.258 . S
O61 Nd40 2.492 . S
O61 C42 1.239 . S
O62 Nd40 2.487 . S
O62 C49 1.241 . S
O63 Nd40 2.682 . S
O63 Nd41 2.414 . S
O63 C49 1.273 . S
O64 Nd40 2.410 . S
O64 C50 1.251 . S
O65 Nd41 2.424 . S
O65 C50 1.268 . S
O66 Nd41 2.500 . S
O66 C51 1.258 . S
O67 Nd41 2.492 . S
O67 C51 1.239 . S
O68 Nd41 2.487 . S
O68 C58 1.241 . S
O69 Nd40 2.414 . S
O69 Nd41 2.682 . S
O69 C58 1.273 . S
O70 Nd41 2.410 . S
O70 C59 1.251 . S
O71 Nd40 2.424 . S
O71 C59 1.268 . S
H72 C44 0.930 . S
H73 C45 0.929 . S
H74 C47 0.930 1_455 S
H75 C48 0.929 . S
H76 C53 0.930 . S
H77 C54 0.929 . S
H78 C56 0.930 . S
H79 C57 0.929 . S
Nd80 C82 2.836 . S
Nd80 O100 2.500 . S
Nd80 O101 2.492 . S
Nd80 O102 2.487 . S
Nd80 O103 2.682 . S
Nd80 O104 2.410 . S
Nd80 O109 2.414 . S
Nd80 O111 2.424 . S
Nd81 C91 2.836 . S
Nd81 O103 2.414 . S
Nd81 O105 2.424 . S
Nd81 O106 2.500 . S
Nd81 O107 2.492 . S
Nd81 O108 2.487 . S
Nd81 O109 2.682 . S
Nd81 O110 2.410 . S
C82 Nd80 2.836 . S
C82 C83 1.498 . S
C82 O100 1.258 . S
C82 O101 1.239 . S
C83 C82 1.498 . S
C83 C84 1.366 . S
C83 C88 1.407 . S
C84 C83 1.366 . S
C84 C85 1.392 . S
C84 H112 0.930 . S
C85 C84 1.392 . S
C85 C86 1.398 . S
C85 H113 0.929 . S
C86 C85 1.398 . S
C86 C87 1.352 . S
C87 C86 1.352 . S
C87 C88 1.384 . S
C87 H114 0.930 . S
C88 C83 1.407 . S
C88 C87 1.384 . S
C88 H115 0.929 . S
C89 O102 1.241 . S
C89 O103 1.273 . S
C90 O104 1.251 . S
C90 O105 1.268 . S
C91 Nd81 2.836 . S
C91 C92 1.498 . S
C91 O106 1.258 . S
C91 O107 1.239 . S
C92 C91 1.498 . S
C92 C93 1.366 . S
C92 C97 1.407 . S
C93 C92 1.366 . S
C93 C94 1.392 . S
C93 H116 0.930 . S
C94 C93 1.392 . S
C94 C95 1.398 . S
C94 H117 0.929 . S
C95 C94 1.398 . S
C95 C96 1.352 . S
C96 C95 1.352 . S
C96 C97 1.384 . S
C96 H118 0.930 . S
C97 C92 1.407 . S
C97 C96 1.384 . S
C97 H119 0.929 . S
C98 O108 1.241 . S
C98 O109 1.273 . S
C99 O110 1.251 . S
C99 O111 1.268 . S
O100 Nd80 2.500 . S
O100 C82 1.258 . S
O101 Nd80 2.492 . S
O101 C82 1.239 . S
O102 Nd80 2.487 . S
O102 C89 1.241 . S
O103 Nd80 2.682 . S
O103 Nd81 2.414 . S
O103 C89 1.273 . S
O104 Nd80 2.410 . S
O104 C90 1.251 . S
O105 Nd81 2.424 . S
O105 C90 1.268 . S
O106 Nd81 2.500 . S
O106 C91 1.258 . S
O107 Nd81 2.492 . S
O107 C91 1.239 . S
O108 Nd81 2.487 . S
O108 C98 1.241 . S
O109 Nd80 2.414 . S
O109 Nd81 2.682 . S
O109 C98 1.273 . S
O110 Nd81 2.410 . S
O110 C99 1.251 . S
O111 Nd80 2.424 . S
O111 C99 1.268 . S
H112 C84 0.930 . S
H113 C85 0.929 . S
H114 C87 0.930 . S
H115 C88 0.929 . S
H116 C93 0.930 . S
H117 C94 0.929 . S
H118 C96 0.930 . S
H119 C97 0.929 . S
Nd120 C122 2.834 1_545 S
Nd120 O140 2.500 1_545 S
Nd120 O141 2.492 . S
Nd120 O142 2.487 . S
Nd120 O143 2.682 . S
Nd120 O144 2.410 . S
Nd120 O149 2.414 1_545 S
Nd120 O151 2.425 . S
Nd121 C131 2.836 . S
Nd121 O143 2.414 . S
Nd121 O145 2.424 . S
Nd121 O146 2.500 . S
Nd121 O147 2.492 1_545 S
Nd121 O148 2.487 1_545 S
Nd121 O149 2.682 1_545 S
Nd121 O150 2.410 1_545 S
C122 Nd120 2.834 1_565 S
C122 C123 1.500 . S
C122 O140 1.280 . S
C122 O141 1.215 1_565 S
C123 C122 1.500 . S
C123 C124 1.366 . S
C123 C128 1.407 1_565 S
C124 C123 1.366 . S
C124 C125 1.392 . S
C124 H152 0.930 . S
C125 C124 1.392 . S
C125 C126 1.398 . S
C125 H153 0.929 . S
C126 C125 1.398 . S
C126 C127 1.352 1_565 S
C127 C126 1.352 1_545 S
C127 C128 1.384 . S
C127 H154 0.930 1_655 S
C128 C123 1.407 1_545 S
C128 C127 1.384 . S
C128 H155 0.929 . S
C129 O142 1.241 . S
C129 O143 1.273 . S
C130 O144 1.251 . S
C130 O145 1.268 . S
C131 Nd121 2.836 . S
C131 C132 1.498 . S
C131 O146 1.258 . S
C131 O147 1.239 1_545 S
C132 C131 1.498 . S
C132 C133 1.366 . S
C132 C137 1.407 1_545 S
C133 C132 1.366 . S
C133 C134 1.392 . S
C133 H156 0.930 . S
C134 C133 1.392 . S
C134 C135 1.398 . S
C134 H157 0.929 . S
C135 C134 1.398 . S
C135 C136 1.352 1_545 S
C136 C135 1.352 1_565 S
C136 C137 1.384 . S
C136 H158 0.930 . S
C137 C132 1.407 1_565 S
C137 C136 1.384 . S
C137 H159 0.929 . S
C138 O148 1.241 . S
C138 O149 1.273 . S
C139 O150 1.251 . S
C139 O151 1.267 1_565 S
O140 Nd120 2.500 1_565 S
O140 C122 1.280 . S
O141 Nd120 2.492 . S
O141 C122 1.215 1_545 S
O142 Nd120 2.487 . S
O142 C129 1.241 . S
O143 Nd120 2.682 . S
O143 Nd121 2.414 . S
O143 C129 1.273 . S
O144 Nd120 2.410 . S
O144 C130 1.251 . S
O145 Nd121 2.424 . S
O145 C130 1.268 . S
O146 Nd121 2.500 . S
O146 C131 1.258 . S
O147 Nd121 2.492 1_565 S
O147 C131 1.239 1_565 S
O148 Nd121 2.487 1_565 S
O148 C138 1.241 . S
O149 Nd120 2.414 1_565 S
O149 Nd121 2.682 1_565 S
O149 C138 1.273 . S
O150 Nd121 2.410 1_565 S
O150 C139 1.251 . S
O151 Nd120 2.425 . S
O151 C139 1.267 1_545 S
H152 C124 0.930 . S
H153 C125 0.929 . S
H154 C127 0.930 1_455 S
H155 C128 0.929 . S
H156 C133 0.930 . S
H157 C134 0.929 . S
H158 C136 0.930 . S
H159 C137 0.929 . S
Nd160 C162 2.836 . S
Nd160 O180 2.500 . S
Nd160 O181 2.492 1_565 S
Nd160 O182 2.487 1_565 S
Nd160 O183 2.682 1_565 S
Nd160 O184 2.410 1_565 S
Nd160 O189 2.414 . S
Nd160 O191 2.424 . S
Nd161 C171 2.834 1_565 S
Nd161 O183 2.414 1_565 S
Nd161 O185 2.425 . S
Nd161 O186 2.500 1_565 S
Nd161 O187 2.492 . S
Nd161 O188 2.487 . S
Nd161 O189 2.682 . S
Nd161 O190 2.410 . S
C162 Nd160 2.836 . S
C162 C163 1.498 . S
C162 O180 1.258 . S
C162 O181 1.239 1_565 S
C163 C162 1.498 . S
C163 C164 1.366 . S
C163 C168 1.407 1_565 S
C164 C163 1.366 . S
C164 C165 1.392 . S
C164 H192 0.930 . S
C165 C164 1.392 . S
C165 C166 1.398 . S
C165 H193 0.929 . S
C166 C165 1.398 . S
C166 C167 1.352 1_565 S
C167 C166 1.352 1_545 S
C167 C168 1.384 . S
C167 H194 0.930 . S
C168 C163 1.407 1_545 S
C168 C167 1.384 . S
C168 H195 0.929 . S
C169 O182 1.241 . S
C169 O183 1.273 . S
C170 O184 1.251 . S
C170 O185 1.267 1_545 S
C171 Nd161 2.834 1_545 S
C171 C172 1.500 1_556 S
C171 O186 1.280 . S
C171 O187 1.215 1_545 S
C172 C171 1.500 1_554 S
C172 C173 1.366 . S
C172 C177 1.407 1_545 S
C173 C172 1.366 . S
C173 C174 1.392 . S
C173 H196 0.930 . S
C174 C173 1.392 . S
C174 C175 1.398 . S
C174 H197 0.929 . S
C175 C174 1.398 . S
C175 C176 1.352 1_545 S
C176 C175 1.352 1_565 S
C176 C177 1.384 . S
C176 H198 0.930 . S
C177 C172 1.407 1_565 S
C177 C176 1.384 . S
C177 H199 0.929 . S
C178 O188 1.241 . S
C178 O189 1.273 . S
C179 O190 1.251 . S
C179 O191 1.268 . S
O180 Nd160 2.500 . S
O180 C162 1.258 . S
O181 Nd160 2.492 1_545 S
O181 C162 1.239 1_545 S
O182 Nd160 2.487 1_545 S
O182 C169 1.241 . S
O183 Nd160 2.682 1_545 S
O183 Nd161 2.414 1_545 S
O183 C169 1.273 . S
O184 Nd160 2.410 1_545 S
O184 C170 1.251 . S
O185 Nd161 2.425 . S
O185 C170 1.267 1_565 S
O186 Nd161 2.500 1_545 S
O186 C171 1.280 . S
O187 Nd161 2.492 . S
O187 C171 1.215 1_565 S
O188 Nd161 2.487 . S
O188 C178 1.241 . S
O189 Nd160 2.414 . S
O189 Nd161 2.682 . S
O189 C178 1.273 . S
O190 Nd161 2.410 . S
O190 C179 1.251 . S
O191 Nd160 2.424 . S
O191 C179 1.268 . S
H192 C164 0.930 . S
H193 C165 0.929 . S
H194 C167 0.930 . S
H195 C168 0.929 . S
H196 C173 0.930 . S
H197 C174 0.929 . S
H198 C176 0.930 . S
H199 C177 0.929 . S
Nd200 C202 2.836 . S
Nd200 O220 2.500 . S
Nd200 O221 2.492 . S
Nd200 O222 2.487 . S
Nd200 O223 2.682 . S
Nd200 O224 2.410 . S
Nd200 O229 2.414 . S
Nd200 O231 2.424 . S
Nd201 C211 2.836 . S
Nd201 O223 2.414 . S
Nd201 O225 2.424 . S
Nd201 O226 2.500 . S
Nd201 O227 2.492 . S
Nd201 O228 2.487 . S
Nd201 O229 2.682 . S
Nd201 O230 2.410 . S
C202 Nd200 2.836 . S
C202 C203 1.498 . S
C202 O220 1.258 . S
C202 O221 1.239 . S
C203 C202 1.498 . S
C203 C204 1.366 . S
C203 C208 1.407 . S
C204 C203 1.366 . S
C204 C205 1.392 . S
C204 H232 0.930 . S
C205 C204 1.392 . S
C205 C206 1.398 . S
C205 H233 0.929 . S
C206 C205 1.398 . S
C206 C207 1.352 . S
C207 C206 1.352 . S
C207 C208 1.384 . S
C207 H234 0.930 . S
C208 C203 1.407 . S
C208 C207 1.384 . S
C208 H235 0.929 . S
C209 O222 1.241 . S
C209 O223 1.273 . S
C210 O224 1.251 . S
C210 O225 1.268 . S
C211 Nd201 2.836 . S
C211 C212 1.498 1_556 S
C211 O226 1.258 . S
C211 O227 1.239 . S
C212 C211 1.498 1_554 S
C212 C213 1.366 . S
C212 C217 1.407 . S
C213 C212 1.366 . S
C213 C214 1.392 . S
C213 H236 0.930 . S
C214 C213 1.392 . S
C214 C215 1.398 . S
C214 H237 0.929 . S
C215 C214 1.398 . S
C215 C216 1.352 . S
C216 C215 1.352 . S
C216 C217 1.384 . S
C216 H238 0.930 1_455 S
C217 C212 1.407 . S
C217 C216 1.384 . S
C217 H239 0.929 . S
C218 O228 1.241 . S
C218 O229 1.273 . S
C219 O230 1.251 . S
C219 O231 1.268 . S
O220 Nd200 2.500 . S
O220 C202 1.258 . S
O221 Nd200 2.492 . S
O221 C202 1.239 . S
O222 Nd200 2.487 . S
O222 C209 1.241 . S
O223 Nd200 2.682 . S
O223 Nd201 2.414 . S
O223 C209 1.273 . S
O224 Nd200 2.410 . S
O224 C210 1.251 . S
O225 Nd201 2.424 . S
O225 C210 1.268 . S
O226 Nd201 2.500 . S
O226 C211 1.258 . S
O227 Nd201 2.492 . S
O227 C211 1.239 . S
O228 Nd201 2.487 . S
O228 C218 1.241 . S
O229 Nd200 2.414 . S
O229 Nd201 2.682 . S
O229 C218 1.273 . S
O230 Nd201 2.410 . S
O230 C219 1.251 . S
O231 Nd200 2.424 . S
O231 C219 1.268 . S
H232 C204 0.930 . S
H233 C205 0.929 . S
H234 C207 0.930 . S
H235 C208 0.929 . S
H236 C213 0.930 . S
H237 C214 0.929 . S
H238 C216 0.930 1_655 S
H239 C217 0.929 . S
Nd240 C242 2.836 . S
Nd240 O260 2.500 . S
Nd240 O261 2.492 . S
Nd240 O262 2.487 . S
Nd240 O263 2.682 . S
Nd240 O264 2.410 . S
Nd240 O269 2.414 . S
Nd240 O271 2.424 . S
Nd241 C251 2.836 . S
Nd241 O263 2.414 . S
Nd241 O265 2.424 . S
Nd241 O266 2.500 . S
Nd241 O267 2.492 . S
Nd241 O268 2.487 . S
Nd241 O269 2.682 . S
Nd241 O270 2.410 . S
C242 Nd240 2.836 . S
C242 C243 1.498 . S
C242 O260 1.258 . S
C242 O261 1.239 . S
C243 C242 1.498 . S
C243 C244 1.366 . S
C243 C248 1.407 . S
C244 C243 1.366 . S
C244 C245 1.392 . S
C244 H272 0.930 . S
C245 C244 1.392 . S
C245 C246 1.398 . S
C245 H273 0.929 . S
C246 C245 1.398 . S
C246 C247 1.352 . S
C247 C246 1.352 . S
C247 C248 1.384 . S
C247 H274 0.930 . S
C248 C243 1.407 . S
C248 C247 1.384 . S
C248 H275 0.929 . S
C249 O262 1.241 . S
C249 O263 1.273 . S
C250 O264 1.251 . S
C250 O265 1.268 . S
C251 Nd241 2.836 . S
C251 C252 1.498 . S
C251 O266 1.258 . S
C251 O267 1.239 . S
C252 C251 1.498 . S
C252 C253 1.366 . S
C252 C257 1.407 . S
C253 C252 1.366 . S
C253 C254 1.392 . S
C253 H276 0.930 . S
C254 C253 1.392 . S
C254 C255 1.398 . S
C254 H277 0.929 . S
C255 C254 1.398 . S
C255 C256 1.352 . S
C256 C255 1.352 . S
C256 C257 1.384 . S
C256 H278 0.930 . S
C257 C252 1.407 . S
C257 C256 1.384 . S
C257 H279 0.929 . S
C258 O268 1.241 . S
C258 O269 1.273 . S
C259 O270 1.251 . S
C259 O271 1.268 . S
O260 Nd240 2.500 . S
O260 C242 1.258 . S
O261 Nd240 2.492 . S
O261 C242 1.239 . S
O262 Nd240 2.487 . S
O262 C249 1.241 . S
O263 Nd240 2.682 . S
O263 Nd241 2.414 . S
O263 C249 1.273 . S
O264 Nd240 2.410 . S
O264 C250 1.251 . S
O265 Nd241 2.424 . S
O265 C250 1.268 . S
O266 Nd241 2.500 . S
O266 C251 1.258 . S
O267 Nd241 2.492 . S
O267 C251 1.239 . S
O268 Nd241 2.487 . S
O268 C258 1.241 . S
O269 Nd240 2.414 . S
O269 Nd241 2.682 . S
O269 C258 1.273 . S
O270 Nd241 2.410 . S
O270 C259 1.251 . S
O271 Nd240 2.424 . S
O271 C259 1.268 . S
H272 C244 0.930 . S
H273 C245 0.929 . S
H274 C247 0.930 . S
H275 C248 0.929 . S
H276 C253 0.930 . S
H277 C254 0.929 . S
H278 C256 0.930 . S
H279 C257 0.929 . S
Nd280 C282 2.836 . S
Nd280 O300 2.500 . S
Nd280 O301 2.492 1_565 S
Nd280 O302 2.487 1_565 S
Nd280 O303 2.682 1_565 S
Nd280 O304 2.410 1_565 S
Nd280 O309 2.414 . S
Nd280 O311 2.424 . S
Nd281 C291 2.834 1_565 S
Nd281 O303 2.414 1_565 S
Nd281 O305 2.425 . S
Nd281 O306 2.500 1_565 S
Nd281 O307 2.492 . S
Nd281 O308 2.487 . S
Nd281 O309 2.682 . S
Nd281 O310 2.410 . S
C282 Nd280 2.836 . S
C282 C283 1.498 . S
C282 O300 1.258 . S
C282 O301 1.239 1_565 S
C283 C282 1.498 . S
C283 C284 1.366 . S
C283 C288 1.407 1_565 S
C284 C283 1.366 . S
C284 C285 1.392 . S
C284 H312 0.930 . S
C285 C284 1.392 . S
C285 C286 1.398 . S
C285 H313 0.929 . S
C286 C285 1.398 . S
C286 C287 1.352 1_565 S
C287 C286 1.352 1_545 S
C287 C288 1.384 . S
C287 H314 0.930 . S
C288 C283 1.407 1_545 S
C288 C287 1.384 . S
C288 H315 0.929 . S
C289 O302 1.241 . S
C289 O303 1.273 . S
C290 O304 1.251 . S
C290 O305 1.267 1_545 S
C291 Nd281 2.834 1_545 S
C291 C292 1.500 . S
C291 O306 1.280 . S
C291 O307 1.215 1_545 S
C292 C291 1.500 . S
C292 C293 1.366 . S
C292 C297 1.407 1_545 S
C293 C292 1.366 . S
C293 C294 1.392 . S
C293 H316 0.930 . S
C294 C293 1.392 . S
C294 C295 1.398 . S
C294 H317 0.929 . S
C295 C294 1.398 . S
C295 C296 1.352 1_545 S
C296 C295 1.352 1_565 S
C296 C297 1.384 . S
C296 H318 0.930 1_455 S
C297 C292 1.407 1_565 S
C297 C296 1.384 . S
C297 H319 0.929 . S
C298 O308 1.241 . S
C298 O309 1.273 . S
C299 O310 1.251 . S
C299 O311 1.268 . S
O300 Nd280 2.500 . S
O300 C282 1.258 . S
O301 Nd280 2.492 1_545 S
O301 C282 1.239 1_545 S
O302 Nd280 2.487 1_545 S
O302 C289 1.241 . S
O303 Nd280 2.682 1_545 S
O303 Nd281 2.414 1_545 S
O303 C289 1.273 . S
O304 Nd280 2.410 1_545 S
O304 C290 1.251 . S
O305 Nd281 2.425 . S
O305 C290 1.267 1_565 S
O306 Nd281 2.500 1_545 S
O306 C291 1.280 . S
O307 Nd281 2.492 . S
O307 C291 1.215 1_565 S
O308 Nd281 2.487 . S
O308 C298 1.241 . S
O309 Nd280 2.414 . S
O309 Nd281 2.682 . S
O309 C298 1.273 . S
O310 Nd281 2.410 . S
O310 C299 1.251 . S
O311 Nd280 2.424 . S
O311 C299 1.268 . S
H312 C284 0.930 . S
H313 C285 0.929 . S
H314 C287 0.930 . S
H315 C288 0.929 . S
H316 C293 0.930 . S
H317 C294 0.929 . S
H318 C296 0.930 1_655 S
H319 C297 0.929 . S
Nd320 C322 2.836 . S
Nd320 O340 2.500 . S
Nd320 O341 2.492 . S
Nd320 O342 2.487 . S
Nd320 O343 2.682 . S
Nd320 O344 2.410 . S
Nd320 O349 2.414 . S
Nd320 O351 2.424 . S
Nd321 C331 2.836 . S
Nd321 O343 2.414 . S
Nd321 O345 2.424 . S
Nd321 O346 2.500 . S
Nd321 O347 2.492 . S
Nd321 O348 2.487 . S
Nd321 O349 2.682 . S
Nd321 O350 2.410 . S
C322 Nd320 2.836 . S
C322 C323 1.498 . S
C322 O340 1.258 . S
C322 O341 1.239 . S
C323 C322 1.498 . S
C323 C324 1.366 . S
C323 C328 1.407 . S
C324 C323 1.366 . S
C324 C325 1.392 . S
C324 H352 0.930 . S
C325 C324 1.392 . S
C325 C326 1.398 . S
C325 H353 0.929 . S
C326 C325 1.398 . S
C326 C327 1.352 . S
C327 C326 1.352 . S
C327 C328 1.384 . S
C327 H354 0.930 . S
C328 C323 1.407 . S
C328 C327 1.384 . S
C328 H355 0.929 . S
C329 O342 1.241 . S
C329 O343 1.273 . S
C330 O344 1.251 . S
C330 O345 1.268 . S
C331 Nd321 2.836 . S
C331 C332 1.498 . S
C331 O346 1.258 . S
C331 O347 1.239 . S
C332 C331 1.498 . S
C332 C333 1.366 . S
C332 C337 1.407 . S
C333 C332 1.366 . S
C333 C334 1.392 . S
C333 H356 0.930 . S
C334 C333 1.392 . S
C334 C335 1.398 . S
C334 H357 0.929 . S
C335 C334 1.398 . S
C335 C336 1.352 . S
C336 C335 1.352 . S
C336 C337 1.384 . S
C336 H358 0.930 . S
C337 C332 1.407 . S
C337 C336 1.384 . S
C337 H359 0.929 . S
C338 O348 1.241 . S
C338 O349 1.273 . S
C339 O350 1.251 . S
C339 O351 1.268 . S
O340 Nd320 2.500 . S
O340 C322 1.258 . S
O341 Nd320 2.492 . S
O341 C322 1.239 . S
O342 Nd320 2.487 . S
O342 C329 1.241 . S
O343 Nd320 2.682 . S
O343 Nd321 2.414 . S
O343 C329 1.273 . S
O344 Nd320 2.410 . S
O344 C330 1.251 . S
O345 Nd321 2.424 . S
O345 C330 1.268 . S
O346 Nd321 2.500 . S
O346 C331 1.258 . S
O347 Nd321 2.492 . S
O347 C331 1.239 . S
O348 Nd321 2.487 . S
O348 C338 1.241 . S
O349 Nd320 2.414 . S
O349 Nd321 2.682 . S
O349 C338 1.273 . S
O350 Nd321 2.410 . S
O350 C339 1.251 . S
O351 Nd320 2.424 . S
O351 C339 1.268 . S
H352 C324 0.930 . S
H353 C325 0.929 . S
H354 C327 0.930 . S
H355 C328 0.929 . S
H356 C333 0.930 . S
H357 C334 0.929 . S
H358 C336 0.930 . S
H359 C337 0.929 . S
Nd360 C362 2.836 . S
Nd360 O380 2.500 . S
Nd360 O381 2.492 . S
Nd360 O382 2.487 . S
Nd360 O383 2.682 . S
Nd360 O384 2.410 . S
Nd360 O389 2.414 . S
Nd360 O391 2.424 . S
Nd361 C371 2.836 . S
Nd361 O383 2.414 . S
Nd361 O385 2.424 . S
Nd361 O386 2.500 . S
Nd361 O387 2.492 . S
Nd361 O388 2.487 . S
Nd361 O389 2.682 . S
Nd361 O390 2.410 . S
C362 Nd360 2.836 . S
C362 C363 1.498 . S
C362 O380 1.258 . S
C362 O381 1.239 . S
C363 C362 1.498 . S
C363 C364 1.366 . S
C363 C368 1.407 . S
C364 C363 1.366 . S
C364 C365 1.392 . S
C364 H392 0.930 . S
C365 C364 1.392 . S
C365 C366 1.398 . S
C365 H393 0.929 . S
C366 C365 1.398 . S
C366 C367 1.352 . S
C367 C366 1.352 . S
C367 C368 1.384 . S
C367 H394 0.930 1_655 S
C368 C363 1.407 . S
C368 C367 1.384 . S
C368 H395 0.929 . S
C369 O382 1.241 . S
C369 O383 1.273 . S
C370 O384 1.251 . S
C370 O385 1.268 . S
C371 Nd361 2.836 . S
C371 C372 1.498 . S
C371 O386 1.258 . S
C371 O387 1.239 . S
C372 C371 1.498 . S
C372 C373 1.366 . S
C372 C377 1.407 . S
C373 C372 1.366 . S
C373 C374 1.392 . S
C373 H396 0.930 . S
C374 C373 1.392 . S
C374 C375 1.398 . S
C374 H397 0.929 . S
C375 C374 1.398 . S
C375 C376 1.352 . S
C376 C375 1.352 . S
C376 C377 1.384 . S
C376 H398 0.930 . S
C377 C372 1.407 . S
C377 C376 1.384 . S
C377 H399 0.929 . S
C378 O388 1.241 . S
C378 O389 1.273 . S
C379 O390 1.251 . S
C379 O391 1.268 . S
O380 Nd360 2.500 . S
O380 C362 1.258 . S
O381 Nd360 2.492 . S
O381 C362 1.239 . S
O382 Nd360 2.487 . S
O382 C369 1.241 . S
O383 Nd360 2.682 . S
O383 Nd361 2.414 . S
O383 C369 1.273 . S
O384 Nd360 2.410 . S
O384 C370 1.251 . S
O385 Nd361 2.424 . S
O385 C370 1.268 . S
O386 Nd361 2.500 . S
O386 C371 1.258 . S
O387 Nd361 2.492 . S
O387 C371 1.239 . S
O388 Nd361 2.487 . S
O388 C378 1.241 . S
O389 Nd360 2.414 . S
O389 Nd361 2.682 . S
O389 C378 1.273 . S
O390 Nd361 2.410 . S
O390 C379 1.251 . S
O391 Nd360 2.424 . S
O391 C379 1.268 . S
H392 C364 0.930 . S
H393 C365 0.929 . S
H394 C367 0.930 1_455 S
H395 C368 0.929 . S
H396 C373 0.930 . S
H397 C374 0.929 . S
H398 C376 0.930 . S
H399 C377 0.929 . S
Nd400 C402 2.836 . S
Nd400 O420 2.500 . S
Nd400 O421 2.492 . S
Nd400 O422 2.487 . S
Nd400 O423 2.682 . S
Nd400 O424 2.410 . S
Nd400 O429 2.414 . S
Nd400 O431 2.424 . S
Nd401 C411 2.836 . S
Nd401 O423 2.414 . S
Nd401 O425 2.424 . S
Nd401 O426 2.500 . S
Nd401 O427 2.492 . S
Nd401 O428 2.487 . S
Nd401 O429 2.682 . S
Nd401 O430 2.410 . S
C402 Nd400 2.836 . S
C402 C403 1.498 . S
C402 O420 1.258 . S
C402 O421 1.239 . S
C403 C402 1.498 . S
C403 C404 1.366 . S
C403 C408 1.407 . S
C404 C403 1.366 . S
C404 C405 1.392 . S
C404 H432 0.930 . S
C405 C404 1.392 . S
C405 C406 1.398 . S
C405 H433 0.929 . S
C406 C405 1.398 . S
C406 C407 1.352 . S
C407 C406 1.352 . S
C407 C408 1.384 . S
C407 H434 0.930 . S
C408 C403 1.407 . S
C408 C407 1.384 . S
C408 H435 0.929 . S
C409 O422 1.241 . S
C409 O423 1.273 . S
C410 O424 1.251 . S
C410 O425 1.268 . S
C411 Nd401 2.836 . S
C411 C412 1.498 . S
C411 O426 1.258 . S
C411 O427 1.239 . S
C412 C411 1.498 . S
C412 C413 1.366 . S
C412 C417 1.407 . S
C413 C412 1.366 . S
C413 C414 1.392 . S
C413 H436 0.930 . S
C414 C413 1.392 . S
C414 C415 1.398 . S
C414 H437 0.929 . S
C415 C414 1.398 . S
C415 C416 1.352 . S
C416 C415 1.352 . S
C416 C417 1.384 . S
C416 H438 0.930 . S
C417 C412 1.407 . S
C417 C416 1.384 . S
C417 H439 0.929 . S
C418 O428 1.241 . S
C418 O429 1.273 . S
C419 O430 1.251 . S
C419 O431 1.268 . S
O420 Nd400 2.500 . S
O420 C402 1.258 . S
O421 Nd400 2.492 . S
O421 C402 1.239 . S
O422 Nd400 2.487 . S
O422 C409 1.241 . S
O423 Nd400 2.682 . S
O423 Nd401 2.414 . S
O423 C409 1.273 . S
O424 Nd400 2.410 . S
O424 C410 1.251 . S
O425 Nd401 2.424 . S
O425 C410 1.268 . S
O426 Nd401 2.500 . S
O426 C411 1.258 . S
O427 Nd401 2.492 . S
O427 C411 1.239 . S
O428 Nd401 2.487 . S
O428 C418 1.241 . S
O429 Nd400 2.414 . S
O429 Nd401 2.682 . S
O429 C418 1.273 . S
O430 Nd401 2.410 . S
O430 C419 1.251 . S
O431 Nd400 2.424 . S
O431 C419 1.268 . S
H432 C404 0.930 . S
H433 C405 0.929 . S
H434 C407 0.930 . S
H435 C408 0.929 . S
H436 C413 0.930 . S
H437 C414 0.929 . S
H438 C416 0.930 . S
H439 C417 0.929 . S
Nd440 C442 2.836 . S
Nd440 O460 2.500 . S
Nd440 O461 2.492 . S
Nd440 O462 2.487 . S
Nd440 O463 2.682 . S
Nd440 O464 2.410 . S
Nd440 O469 2.414 . S
Nd440 O471 2.424 . S
Nd441 C451 2.836 . S
Nd441 O463 2.414 . S
Nd441 O465 2.424 . S
Nd441 O466 2.500 . S
Nd441 O467 2.492 . S
Nd441 O468 2.487 . S
Nd441 O469 2.682 . S
Nd441 O470 2.410 . S
C442 Nd440 2.836 . S
C442 C443 1.498 . S
C442 O460 1.258 . S
C442 O461 1.239 . S
C443 C442 1.498 . S
C443 C444 1.366 . S
C443 C448 1.407 . S
C444 C443 1.366 . S
C444 C445 1.392 . S
C444 H472 0.930 . S
C445 C444 1.392 . S
C445 C446 1.398 . S
C445 H473 0.929 . S
C446 C445 1.398 . S
C446 C447 1.352 . S
C447 C446 1.352 . S
C447 C448 1.384 . S
C447 H474 0.930 1_655 S
C448 C443 1.407 . S
C448 C447 1.384 . S
C448 H475 0.929 . S
C449 O462 1.241 . S
C449 O463 1.273 . S
C450 O464 1.251 . S
C450 O465 1.268 . S
C451 Nd441 2.836 . S
C451 C452 1.498 . S
C451 O466 1.258 . S
C451 O467 1.239 . S
C452 C451 1.498 . S
C452 C453 1.366 . S
C452 C457 1.407 . S
C453 C452 1.366 . S
C453 C454 1.392 . S
C453 H476 0.930 . S
C454 C453 1.392 . S
C454 C455 1.398 . S
C454 H477 0.929 . S
C455 C454 1.398 . S
C455 C456 1.352 . S
C456 C455 1.352 . S
C456 C457 1.384 . S
C456 H478 0.930 . S
C457 C452 1.407 . S
C457 C456 1.384 . S
C457 H479 0.929 . S
C458 O468 1.241 . S
C458 O469 1.273 . S
C459 O470 1.251 . S
C459 O471 1.268 . S
O460 Nd440 2.500 . S
O460 C442 1.258 . S
O461 Nd440 2.492 . S
O461 C442 1.239 . S
O462 Nd440 2.487 . S
O462 C449 1.241 . S
O463 Nd440 2.682 . S
O463 Nd441 2.414 . S
O463 C449 1.273 . S
O464 Nd440 2.410 . S
O464 C450 1.251 . S
O465 Nd441 2.424 . S
O465 C450 1.268 . S
O466 Nd441 2.500 . S
O466 C451 1.258 . S
O467 Nd441 2.492 . S
O467 C451 1.239 . S
O468 Nd441 2.487 . S
O468 C458 1.241 . S
O469 Nd440 2.414 . S
O469 Nd441 2.682 . S
O469 C458 1.273 . S
O470 Nd441 2.410 . S
O470 C459 1.251 . S
O471 Nd440 2.424 . S
O471 C459 1.268 . S
H472 C444 0.930 . S
H473 C445 0.929 . S
H474 C447 0.930 1_455 S
H475 C448 0.929 . S
H476 C453 0.930 . S
H477 C454 0.929 . S
H478 C456 0.930 . S
H479 C457 0.929 . S
Nd480 C482 2.836 . S
Nd480 O500 2.500 . S
Nd480 O501 2.492 . S
Nd480 O502 2.487 . S
Nd480 O503 2.682 . S
Nd480 O504 2.410 . S
Nd480 O509 2.414 . S
Nd480 O511 2.424 . S
Nd481 C491 2.836 . S
Nd481 O503 2.414 . S
Nd481 O505 2.424 . S
Nd481 O506 2.500 . S
Nd481 O507 2.492 . S
Nd481 O508 2.487 . S
Nd481 O509 2.682 . S
Nd481 O510 2.410 . S
C482 Nd480 2.836 . S
C482 C483 1.498 . S
C482 O500 1.258 . S
C482 O501 1.239 . S
C483 C482 1.498 . S
C483 C484 1.366 . S
C483 C488 1.407 . S
C484 C483 1.366 . S
C484 C485 1.392 . S
C484 H512 0.930 . S
C485 C484 1.392 . S
C485 C486 1.398 . S
C485 H513 0.929 . S
C486 C485 1.398 . S
C486 C487 1.352 . S
C487 C486 1.352 . S
C487 C488 1.384 . S
C487 H514 0.930 . S
C488 C483 1.407 . S
C488 C487 1.384 . S
C488 H515 0.929 . S
C489 O502 1.241 . S
C489 O503 1.273 . S
C490 O504 1.251 . S
C490 O505 1.268 . S
C491 Nd481 2.836 . S
C491 C492 1.498 . S
C491 O506 1.258 . S
C491 O507 1.239 . S
C492 C491 1.498 . S
C492 C493 1.366 . S
C492 C497 1.407 . S
C493 C492 1.366 . S
C493 C494 1.392 . S
C493 H516 0.930 . S
C494 C493 1.392 . S
C494 C495 1.398 . S
C494 H517 0.929 . S
C495 C494 1.398 . S
C495 C496 1.352 . S
C496 C495 1.352 . S
C496 C497 1.384 . S
C496 H518 0.930 . S
C497 C492 1.407 . S
C497 C496 1.384 . S
C497 H519 0.929 . S
C498 O508 1.241 . S
C498 O509 1.273 . S
C499 O510 1.251 . S
C499 O511 1.268 . S
O500 Nd480 2.500 . S
O500 C482 1.258 . S
O501 Nd480 2.492 . S
O501 C482 1.239 . S
O502 Nd480 2.487 . S
O502 C489 1.241 . S
O503 Nd480 2.682 . S
O503 Nd481 2.414 . S
O503 C489 1.273 . S
O504 Nd480 2.410 . S
O504 C490 1.251 . S
O505 Nd481 2.424 . S
O505 C490 1.268 . S
O506 Nd481 2.500 . S
O506 C491 1.258 . S
O507 Nd481 2.492 . S
O507 C491 1.239 . S
O508 Nd481 2.487 . S
O508 C498 1.241 . S
O509 Nd480 2.414 . S
O509 Nd481 2.682 . S
O509 C498 1.273 . S
O510 Nd481 2.410 . S
O510 C499 1.251 . S
O511 Nd480 2.424 . S
O511 C499 1.268 . S
H512 C484 0.930 . S
H513 C485 0.929 . S
H514 C487 0.930 . S
H515 C488 0.929 . S
H516 C493 0.930 . S
H517 C494 0.929 . S
H518 C496 0.930 . S
H519 C497 0.929 . S
Nd520 C522 2.836 . S
Nd520 O540 2.500 . S
Nd520 O541 2.492 . S
Nd520 O542 2.487 . S
Nd520 O543 2.682 . S
Nd520 O544 2.410 . S
Nd520 O549 2.414 . S
Nd520 O551 2.424 . S
Nd521 C531 2.836 . S
Nd521 O543 2.414 . S
Nd521 O545 2.424 . S
Nd521 O546 2.500 . S
Nd521 O547 2.492 . S
Nd521 O548 2.487 . S
Nd521 O549 2.682 . S
Nd521 O550 2.410 . S
C522 Nd520 2.836 . S
C522 C523 1.498 . S
C522 O540 1.258 . S
C522 O541 1.239 . S
C523 C522 1.498 . S
C523 C524 1.366 . S
C523 C528 1.407 . S
C524 C523 1.366 . S
C524 C525 1.392 . S
C524 H552 0.930 . S
C525 C524 1.392 . S
C525 C526 1.398 . S
C525 H553 0.929 . S
C526 C525 1.398 . S
C526 C527 1.352 . S
C527 C526 1.352 . S
C527 C528 1.384 . S
C527 H554 0.930 . S
C528 C523 1.407 . S
C528 C527 1.384 . S
C528 H555 0.929 . S
C529 O542 1.241 . S
C529 O543 1.273 . S
C530 O544 1.251 . S
C530 O545 1.268 . S
C531 Nd521 2.836 . S
C531 C532 1.498 . S
C531 O546 1.258 . S
C531 O547 1.239 . S
C532 C531 1.498 . S
C532 C533 1.366 . S
C532 C537 1.407 . S
C533 C532 1.366 . S
C533 C534 1.392 . S
C533 H556 0.930 . S
C534 C533 1.392 . S
C534 C535 1.398 . S
C534 H557 0.929 . S
C535 C534 1.398 . S
C535 C536 1.352 . S
C536 C535 1.352 . S
C536 C537 1.384 . S
C536 H558 0.930 1_455 S
C537 C532 1.407 . S
C537 C536 1.384 . S
C537 H559 0.929 . S
C538 O548 1.241 . S
C538 O549 1.273 . S
C539 O550 1.251 . S
C539 O551 1.268 . S
O540 Nd520 2.500 . S
O540 C522 1.258 . S
O541 Nd520 2.492 . S
O541 C522 1.239 . S
O542 Nd520 2.487 . S
O542 C529 1.241 . S
O543 Nd520 2.682 . S
O543 Nd521 2.414 . S
O543 C529 1.273 . S
O544 Nd520 2.410 . S
O544 C530 1.251 . S
O545 Nd521 2.424 . S
O545 C530 1.268 . S
O546 Nd521 2.500 . S
O546 C531 1.258 . S
O547 Nd521 2.492 . S
O547 C531 1.239 . S
O548 Nd521 2.487 . S
O548 C538 1.241 . S
O549 Nd520 2.414 . S
O549 Nd521 2.682 . S
O549 C538 1.273 . S
O550 Nd521 2.410 . S
O550 C539 1.251 . S
O551 Nd520 2.424 . S
O551 C539 1.268 . S
H552 C524 0.930 . S
H553 C525 0.929 . S
H554 C527 0.930 . S
H555 C528 0.929 . S
H556 C533 0.930 . S
H557 C534 0.929 . S
H558 C536 0.930 1_655 S
H559 C537 0.929 . S
Nd560 C562 2.836 . S
Nd560 O580 2.500 . S
Nd560 O581 2.492 . S
Nd560 O582 2.487 . S
Nd560 O583 2.682 . S
Nd560 O584 2.410 . S
Nd560 O589 2.414 . S
Nd560 O591 2.424 . S
Nd561 C571 2.836 . S
Nd561 O583 2.414 . S
Nd561 O585 2.424 . S
Nd561 O586 2.500 . S
Nd561 O587 2.492 . S
Nd561 O588 2.487 . S
Nd561 O589 2.682 . S
Nd561 O590 2.410 . S
C562 Nd560 2.836 . S
C562 C563 1.498 . S
C562 O580 1.258 . S
C562 O581 1.239 . S
C563 C562 1.498 . S
C563 C564 1.366 . S
C563 C568 1.407 . S
C564 C563 1.366 . S
C564 C565 1.392 . S
C564 H592 0.930 . S
C565 C564 1.392 . S
C565 C566 1.398 . S
C565 H593 0.929 . S
C566 C565 1.398 . S
C566 C567 1.352 . S
C567 C566 1.352 . S
C567 C568 1.384 . S
C567 H594 0.930 . S
C568 C563 1.407 . S
C568 C567 1.384 . S
C568 H595 0.929 . S
C569 O582 1.241 . S
C569 O583 1.273 . S
C570 O584 1.251 . S
C570 O585 1.268 . S
C571 Nd561 2.836 . S
C571 C572 1.498 . S
C571 O586 1.258 . S
C571 O587 1.239 . S
C572 C571 1.498 . S
C572 C573 1.366 . S
C572 C577 1.407 . S
C573 C572 1.366 . S
C573 C574 1.392 . S
C573 H596 0.930 . S
C574 C573 1.392 . S
C574 C575 1.398 . S
C574 H597 0.929 . S
C575 C574 1.398 . S
C575 C576 1.352 . S
C576 C575 1.352 . S
C576 C577 1.384 . S
C576 H598 0.930 . S
C577 C572 1.407 . S
C577 C576 1.384 . S
C577 H599 0.929 . S
C578 O588 1.241 . S
C578 O589 1.273 . S
C579 O590 1.251 . S
C579 O591 1.268 . S
O580 Nd560 2.500 . S
O580 C562 1.258 . S
O581 Nd560 2.492 . S
O581 C562 1.239 . S
O582 Nd560 2.487 . S
O582 C569 1.241 . S
O583 Nd560 2.682 . S
O583 Nd561 2.414 . S
O583 C569 1.273 . S
O584 Nd560 2.410 . S
O584 C570 1.251 . S
O585 Nd561 2.424 . S
O585 C570 1.268 . S
O586 Nd561 2.500 . S
O586 C571 1.258 . S
O587 Nd561 2.492 . S
O587 C571 1.239 . S
O588 Nd561 2.487 . S
O588 C578 1.241 . S
O589 Nd560 2.414 . S
O589 Nd561 2.682 . S
O589 C578 1.273 . S
O590 Nd561 2.410 . S
O590 C579 1.251 . S
O591 Nd560 2.424 . S
O591 C579 1.268 . S
H592 C564 0.930 . S
H593 C565 0.929 . S
H594 C567 0.930 . S
H595 C568 0.929 . S
H596 C573 0.930 . S
H597 C574 0.929 . S
H598 C576 0.930 . S
H599 C577 0.929 . S
Nd600 C602 2.836 . S
Nd600 O620 2.500 . S
Nd600 O621 2.492 . S
Nd600 O622 2.487 . S
Nd600 O623 2.682 . S
Nd600 O624 2.410 . S
Nd600 O629 2.414 . S
Nd600 O631 2.424 . S
Nd601 C611 2.836 . S
Nd601 O623 2.414 . S
Nd601 O625 2.424 . S
Nd601 O626 2.500 . S
Nd601 O627 2.492 . S
Nd601 O628 2.487 . S
Nd601 O629 2.682 . S
Nd601 O630 2.410 . S
C602 Nd600 2.836 . S
C602 C603 1.498 . S
C602 O620 1.258 . S
C602 O621 1.239 . S
C603 C602 1.498 . S
C603 C604 1.366 . S
C603 C608 1.407 . S
C604 C603 1.366 . S
C604 C605 1.392 . S
C604 H632 0.930 . S
C605 C604 1.392 . S
C605 C606 1.398 . S
C605 H633 0.929 . S
C606 C605 1.398 . S
C606 C607 1.352 . S
C607 C606 1.352 . S
C607 C608 1.384 . S
C607 H634 0.930 . S
C608 C603 1.407 . S
C608 C607 1.384 . S
C608 H635 0.929 . S
C609 O622 1.241 . S
C609 O623 1.273 . S
C610 O624 1.251 . S
C610 O625 1.268 . S
C611 Nd601 2.836 . S
C611 C612 1.498 . S
C611 O626 1.258 . S
C611 O627 1.239 . S
C612 C611 1.498 . S
C612 C613 1.366 . S
C612 C617 1.407 . S
C613 C612 1.366 . S
C613 C614 1.392 . S
C613 H636 0.930 . S
C614 C613 1.392 . S
C614 C615 1.398 . S
C614 H637 0.929 . S
C615 C614 1.398 . S
C615 C616 1.352 . S
C616 C615 1.352 . S
C616 C617 1.384 . S
C616 H638 0.930 1_455 S
C617 C612 1.407 . S
C617 C616 1.384 . S
C617 H639 0.929 . S
C618 O628 1.241 . S
C618 O629 1.273 . S
C619 O630 1.251 . S
C619 O631 1.268 . S
O620 Nd600 2.500 . S
O620 C602 1.258 . S
O621 Nd600 2.492 . S
O621 C602 1.239 . S
O622 Nd600 2.487 . S
O622 C609 1.241 . S
O623 Nd600 2.682 . S
O623 Nd601 2.414 . S
O623 C609 1.273 . S
O624 Nd600 2.410 . S
O624 C610 1.251 . S
O625 Nd601 2.424 . S
O625 C610 1.268 . S
O626 Nd601 2.500 . S
O626 C611 1.258 . S
O627 Nd601 2.492 . S
O627 C611 1.239 . S
O628 Nd601 2.487 . S
O628 C618 1.241 . S
O629 Nd600 2.414 . S
O629 Nd601 2.682 . S
O629 C618 1.273 . S
O630 Nd601 2.410 . S
O630 C619 1.251 . S
O631 Nd600 2.424 . S
O631 C619 1.268 . S
H632 C604 0.930 . S
H633 C605 0.929 . S
H634 C607 0.930 . S
H635 C608 0.929 . S
H636 C613 0.930 . S
H637 C614 0.929 . S
H638 C616 0.930 1_655 S
H639 C617 0.929 . S
Nd640 C642 2.834 1_545 S
Nd640 O660 2.500 1_545 S
Nd640 O661 2.492 . S
Nd640 O662 2.487 . S
Nd640 O663 2.682 . S
Nd640 O664 2.410 . S
Nd640 O669 2.414 1_545 S
Nd640 O671 2.425 . S
Nd641 C651 2.836 . S
Nd641 O663 2.414 . S
Nd641 O665 2.424 . S
Nd641 O666 2.500 . S
Nd641 O667 2.492 1_545 S
Nd641 O668 2.487 1_545 S
Nd641 O669 2.682 1_545 S
Nd641 O670 2.410 1_545 S
C642 Nd640 2.834 1_565 S
C642 C643 1.500 . S
C642 O660 1.280 . S
C642 O661 1.215 1_565 S
C643 C642 1.500 . S
C643 C644 1.366 . S
C643 C648 1.407 1_565 S
C644 C643 1.366 . S
C644 C645 1.392 . S
C644 H672 0.930 . S
C645 C644 1.392 . S
C645 C646 1.398 . S
C645 H673 0.929 . S
C646 C645 1.398 . S
C646 C647 1.352 1_565 S
C647 C646 1.352 1_545 S
C647 C648 1.384 . S
C647 H674 0.930 . S
C648 C643 1.407 1_545 S
C648 C647 1.384 . S
C648 H675 0.929 . S
C649 O662 1.241 . S
C649 O663 1.273 . S
C650 O664 1.251 . S
C650 O665 1.268 . S
C651 Nd641 2.836 . S
C651 C652 1.498 . S
C651 O666 1.258 . S
C651 O667 1.239 1_545 S
C652 C651 1.498 . S
C652 C653 1.366 . S
C652 C657 1.407 1_545 S
C653 C652 1.366 . S
C653 C654 1.392 . S
C653 H676 0.930 . S
C654 C653 1.392 . S
C654 C655 1.398 . S
C654 H677 0.929 . S
C655 C654 1.398 . S
C655 C656 1.352 1_545 S
C656 C655 1.352 1_565 S
C656 C657 1.384 . S
C656 H678 0.930 . S
C657 C652 1.407 1_565 S
C657 C656 1.384 . S
C657 H679 0.929 . S
C658 O668 1.241 . S
C658 O669 1.273 . S
C659 O670 1.251 . S
C659 O671 1.267 1_565 S
O660 Nd640 2.500 1_565 S
O660 C642 1.280 . S
O661 Nd640 2.492 . S
O661 C642 1.215 1_545 S
O662 Nd640 2.487 . S
O662 C649 1.241 . S
O663 Nd640 2.682 . S
O663 Nd641 2.414 . S
O663 C649 1.273 . S
O664 Nd640 2.410 . S
O664 C650 1.251 . S
O665 Nd641 2.424 . S
O665 C650 1.268 . S
O666 Nd641 2.500 . S
O666 C651 1.258 . S
O667 Nd641 2.492 1_565 S
O667 C651 1.239 1_565 S
O668 Nd641 2.487 1_565 S
O668 C658 1.241 . S
O669 Nd640 2.414 1_565 S
O669 Nd641 2.682 1_565 S
O669 C658 1.273 . S
O670 Nd641 2.410 1_565 S
O670 C659 1.251 . S
O671 Nd640 2.425 . S
O671 C659 1.267 1_545 S
H672 C644 0.930 . S
H673 C645 0.929 . S
H674 C647 0.930 . S
H675 C648 0.929 . S
H676 C653 0.930 . S
H677 C654 0.929 . S
H678 C656 0.930 . S
H679 C657 0.929 . S
Nd680 C682 2.836 . S
Nd680 O700 2.500 . S
Nd680 O701 2.492 . S
Nd680 O702 2.487 . S
Nd680 O703 2.682 . S
Nd680 O704 2.410 . S
Nd680 O709 2.414 . S
Nd680 O711 2.424 . S
Nd681 C691 2.836 . S
Nd681 O703 2.414 . S
Nd681 O705 2.424 . S
Nd681 O706 2.500 . S
Nd681 O707 2.492 . S
Nd681 O708 2.487 . S
Nd681 O709 2.682 . S
Nd681 O710 2.410 . S
C682 Nd680 2.836 . S
C682 C683 1.498 . S
C682 O700 1.258 . S
C682 O701 1.239 . S
C683 C682 1.498 . S
C683 C684 1.366 . S
C683 C688 1.407 . S
C684 C683 1.366 . S
C684 C685 1.392 . S
C684 H712 0.930 . S
C685 C684 1.392 . S
C685 C686 1.398 . S
C685 H713 0.929 . S
C686 C685 1.398 . S
C686 C687 1.352 . S
C687 C686 1.352 . S
C687 C688 1.384 . S
C687 H714 0.930 . S
C688 C683 1.407 . S
C688 C687 1.384 . S
C688 H715 0.929 . S
C689 O702 1.241 . S
C689 O703 1.273 . S
C690 O704 1.251 . S
C690 O705 1.268 . S
C691 Nd681 2.836 . S
C691 C692 1.498 . S
C691 O706 1.258 . S
C691 O707 1.239 . S
C692 C691 1.498 . S
C692 C693 1.366 . S
C692 C697 1.407 . S
C693 C692 1.366 . S
C693 C694 1.392 . S
C693 H716 0.930 . S
C694 C693 1.392 . S
C694 C695 1.398 . S
C694 H717 0.929 . S
C695 C694 1.398 . S
C695 C696 1.352 . S
C696 C695 1.352 . S
C696 C697 1.384 . S
C696 H718 0.930 . S
C697 C692 1.407 . S
C697 C696 1.384 . S
C697 H719 0.929 . S
C698 O708 1.241 . S
C698 O709 1.273 . S
C699 O710 1.251 . S
C699 O711 1.268 . S
O700 Nd680 2.500 . S
O700 C682 1.258 . S
O701 Nd680 2.492 . S
O701 C682 1.239 . S
O702 Nd680 2.487 . S
O702 C689 1.241 . S
O703 Nd680 2.682 . S
O703 Nd681 2.414 . S
O703 C689 1.273 . S
O704 Nd680 2.410 . S
O704 C690 1.251 . S
O705 Nd681 2.424 . S
O705 C690 1.268 . S
O706 Nd681 2.500 . S
O706 C691 1.258 . S
O707 Nd681 2.492 . S
O707 C691 1.239 . S
O708 Nd681 2.487 . S
O708 C698 1.241 . S
O709 Nd680 2.414 . S
O709 Nd681 2.682 . S
O709 C698 1.273 . S
O710 Nd681 2.410 . S
O710 C699 1.251 . S
O711 Nd680 2.424 . S
O711 C699 1.268 . S
H712 C684 0.930 . S
H713 C685 0.929 . S
H714 C687 0.930 . S
H715 C688 0.929 . S
H716 C693 0.930 . S
H717 C694 0.929 . S
H718 C696 0.930 . S
H719 C697 0.929 . S
Nd720 C722 2.836 . S
Nd720 O740 2.500 . S
Nd720 O741 2.492 . S
Nd720 O742 2.487 . S
Nd720 O743 2.682 . S
Nd720 O744 2.410 . S
Nd720 O749 2.414 . S
Nd720 O751 2.424 . S
Nd721 C731 2.836 . S
Nd721 O743 2.414 . S
Nd721 O745 2.424 . S
Nd721 O746 2.500 . S
Nd721 O747 2.492 . S
Nd721 O748 2.487 . S
Nd721 O749 2.682 . S
Nd721 O750 2.410 . S
C722 Nd720 2.836 . S
C722 C723 1.498 . S
C722 O740 1.258 . S
C722 O741 1.239 . S
C723 C722 1.498 . S
C723 C724 1.366 . S
C723 C728 1.407 . S
C724 C723 1.366 . S
C724 C725 1.392 . S
C724 H752 0.930 . S
C725 C724 1.392 . S
C725 C726 1.398 . S
C725 H753 0.929 . S
C726 C725 1.398 . S
C726 C727 1.352 . S
C727 C726 1.352 . S
C727 C728 1.384 . S
C727 H754 0.930 . S
C728 C723 1.407 . S
C728 C727 1.384 . S
C728 H755 0.929 . S
C729 O742 1.241 . S
C729 O743 1.273 . S
C730 O744 1.251 . S
C730 O745 1.268 . S
C731 Nd721 2.836 . S
C731 C732 1.498 . S
C731 O746 1.258 . S
C731 O747 1.239 . S
C732 C731 1.498 . S
C732 C733 1.366 . S
C732 C737 1.407 . S
C733 C732 1.366 . S
C733 C734 1.392 . S
C733 H756 0.930 . S
C734 C733 1.392 . S
C734 C735 1.398 . S
C734 H757 0.929 . S
C735 C734 1.398 . S
C735 C736 1.352 . S
C736 C735 1.352 . S
C736 C737 1.384 . S
C736 H758 0.930 . S
C737 C732 1.407 . S
C737 C736 1.384 . S
C737 H759 0.929 . S
C738 O748 1.241 . S
C738 O749 1.273 . S
C739 O750 1.251 . S
C739 O751 1.268 . S
O740 Nd720 2.500 . S
O740 C722 1.258 . S
O741 Nd720 2.492 . S
O741 C722 1.239 . S
O742 Nd720 2.487 . S
O742 C729 1.241 . S
O743 Nd720 2.682 . S
O743 Nd721 2.414 . S
O743 C729 1.273 . S
O744 Nd720 2.410 . S
O744 C730 1.251 . S
O745 Nd721 2.424 . S
O745 C730 1.268 . S
O746 Nd721 2.500 . S
O746 C731 1.258 . S
O747 Nd721 2.492 . S
O747 C731 1.239 . S
O748 Nd721 2.487 . S
O748 C738 1.241 . S
O749 Nd720 2.414 . S
O749 Nd721 2.682 . S
O749 C738 1.273 . S
O750 Nd721 2.410 . S
O750 C739 1.251 . S
O751 Nd720 2.424 . S
O751 C739 1.268 . S
H752 C724 0.930 . S
H753 C725 0.929 . S
H754 C727 0.930 . S
H755 C728 0.929 . S
H756 C733 0.930 . S
H757 C734 0.929 . S
H758 C736 0.930 . S
H759 C737 0.929 . S
Nd760 C762 2.834 1_545 S
Nd760 O780 2.500 1_545 S
Nd760 O781 2.492 . S
Nd760 O782 2.487 . S
Nd760 O783 2.682 . S
Nd760 O784 2.410 . S
Nd760 O789 2.414 1_545 S
Nd760 O791 2.425 . S
Nd761 C771 2.836 . S
Nd761 O783 2.414 . S
Nd761 O785 2.424 . S
Nd761 O786 2.500 . S
Nd761 O787 2.492 1_545 S
Nd761 O788 2.487 1_545 S
Nd761 O789 2.682 1_545 S
Nd761 O790 2.410 1_545 S
C762 Nd760 2.834 1_565 S
C762 C763 1.500 . S
C762 O780 1.281 . S
C762 O781 1.215 1_565 S
C763 C762 1.500 . S
C763 C764 1.366 . S
C763 C768 1.407 1_565 S
C764 C763 1.366 . S
C764 C765 1.392 . S
C764 H792 0.930 . S
C765 C764 1.392 . S
C765 C766 1.398 . S
C765 H793 0.929 . S
C766 C765 1.398 . S
C766 C767 1.352 1_565 S
C767 C766 1.352 1_545 S
C767 C768 1.384 . S
C767 H794 0.930 . S
C768 C763 1.407 1_545 S
C768 C767 1.384 . S
C768 H795 0.929 . S
C769 O782 1.241 . S
C769 O783 1.273 . S
C770 O784 1.251 . S
C770 O785 1.268 . S
C771 Nd761 2.836 . S
C771 C772 1.498 . S
C771 O786 1.258 . S
C771 O787 1.239 1_545 S
C772 C771 1.498 . S
C772 C773 1.366 . S
C772 C777 1.407 1_545 S
C773 C772 1.366 . S
C773 C774 1.392 . S
C773 H796 0.930 . S
C774 C773 1.392 . S
C774 C775 1.398 . S
C774 H797 0.929 . S
C775 C774 1.398 . S
C775 C776 1.352 1_545 S
C776 C775 1.352 1_565 S
C776 C777 1.384 . S
C776 H798 0.930 . S
C777 C772 1.407 1_565 S
C777 C776 1.384 . S
C777 H799 0.929 . S
C778 O788 1.241 . S
C778 O789 1.273 . S
C779 O790 1.251 . S
C779 O791 1.267 1_565 S
O780 Nd760 2.500 1_565 S
O780 C762 1.281 . S
O781 Nd760 2.492 . S
O781 C762 1.215 1_545 S
O782 Nd760 2.487 . S
O782 C769 1.241 . S
O783 Nd760 2.682 . S
O783 Nd761 2.414 . S
O783 C769 1.273 . S
O784 Nd760 2.410 . S
O784 C770 1.251 . S
O785 Nd761 2.424 . S
O785 C770 1.268 . S
O786 Nd761 2.500 . S
O786 C771 1.258 . S
O787 Nd761 2.492 1_565 S
O787 C771 1.239 1_565 S
O788 Nd761 2.487 1_565 S
O788 C778 1.241 . S
O789 Nd760 2.414 1_565 S
O789 Nd761 2.682 1_565 S
O789 C778 1.273 . S
O790 Nd761 2.410 1_565 S
O790 C779 1.251 . S
O791 Nd760 2.425 . S
O791 C779 1.267 1_545 S
H792 C764 0.930 . S
H793 C765 0.929 . S
H794 C767 0.930 . S
H795 C768 0.929 . S
H796 C773 0.930 . S
H797 C774 0.929 . S
H798 C776 0.930 . S
H799 C777 0.929 . S
Nd800 C802 2.836 . S
Nd800 O820 2.500 . S
Nd800 O821 2.492 1_565 S
Nd800 O822 2.487 1_565 S
Nd800 O823 2.682 1_565 S
Nd800 O824 2.410 1_565 S
Nd800 O829 2.414 . S
Nd800 O831 2.424 . S
Nd801 C811 2.834 1_565 S
Nd801 O823 2.414 1_565 S
Nd801 O825 2.425 . S
Nd801 O826 2.500 1_565 S
Nd801 O827 2.492 . S
Nd801 O828 2.487 . S
Nd801 O829 2.682 . S
Nd801 O830 2.410 . S
C802 Nd800 2.836 . S
C802 C803 1.498 . S
C802 O820 1.258 . S
C802 O821 1.239 1_565 S
C803 C802 1.498 . S
C803 C804 1.366 . S
C803 C808 1.407 1_565 S
C804 C803 1.366 . S
C804 C805 1.392 . S
C804 H832 0.930 . S
C805 C804 1.392 . S
C805 C806 1.398 . S
C805 H833 0.929 . S
C806 C805 1.398 . S
C806 C807 1.352 1_565 S
C807 C806 1.352 1_545 S
C807 C808 1.384 . S
C807 H834 0.930 . S
C808 C803 1.407 1_545 S
C808 C807 1.384 . S
C808 H835 0.929 . S
C809 O822 1.241 . S
C809 O823 1.273 . S
C810 O824 1.251 . S
C810 O825 1.267 1_545 S
C811 Nd801 2.834 1_545 S
C811 C812 1.500 . S
C811 O826 1.280 . S
C811 O827 1.215 1_545 S
C812 C811 1.500 . S
C812 C813 1.366 . S
C812 C817 1.407 1_545 S
C813 C812 1.366 . S
C813 C814 1.392 . S
C813 H836 0.930 . S
C814 C813 1.392 . S
C814 C815 1.398 . S
C814 H837 0.929 . S
C815 C814 1.398 . S
C815 C816 1.352 1_545 S
C816 C815 1.352 1_565 S
C816 C817 1.384 . S
C816 H838 0.930 . S
C817 C812 1.407 1_565 S
C817 C816 1.384 . S
C817 H839 0.929 . S
C818 O828 1.241 . S
C818 O829 1.273 . S
C819 O830 1.251 . S
C819 O831 1.268 . S
O820 Nd800 2.500 . S
O820 C802 1.258 . S
O821 Nd800 2.492 1_545 S
O821 C802 1.239 1_545 S
O822 Nd800 2.487 1_545 S
O822 C809 1.241 . S
O823 Nd800 2.682 1_545 S
O823 Nd801 2.414 1_545 S
O823 C809 1.273 . S
O824 Nd800 2.410 1_545 S
O824 C810 1.251 . S
O825 Nd801 2.425 . S
O825 C810 1.267 1_565 S
O826 Nd801 2.500 1_545 S
O826 C811 1.280 . S
O827 Nd801 2.492 . S
O827 C811 1.215 1_565 S
O828 Nd801 2.487 . S
O828 C818 1.241 . S
O829 Nd800 2.414 . S
O829 Nd801 2.682 . S
O829 C818 1.273 . S
O830 Nd801 2.410 . S
O830 C819 1.251 . S
O831 Nd800 2.424 . S
O831 C819 1.268 . S
H832 C804 0.930 . S
H833 C805 0.929 . S
H834 C807 0.930 . S
H835 C808 0.929 . S
H836 C813 0.930 . S
H837 C814 0.929 . S
H838 C816 0.930 . S
H839 C817 0.929 . S
Nd840 C842 2.836 . S
Nd840 O860 2.500 . S
Nd840 O861 2.492 . S
Nd840 O862 2.487 . S
Nd840 O863 2.682 . S
Nd840 O864 2.410 . S
Nd840 O869 2.414 . S
Nd840 O871 2.424 . S
Nd841 C851 2.836 . S
Nd841 O863 2.414 . S
Nd841 O865 2.424 . S
Nd841 O866 2.500 . S
Nd841 O867 2.492 . S
Nd841 O868 2.487 . S
Nd841 O869 2.682 . S
Nd841 O870 2.410 . S
C842 Nd840 2.836 . S
C842 C843 1.498 . S
C842 O860 1.258 . S
C842 O861 1.239 . S
C843 C842 1.498 . S
C843 C844 1.366 . S
C843 C848 1.407 . S
C844 C843 1.366 . S
C844 C845 1.392 . S
C844 H872 0.930 . S
C845 C844 1.392 . S
C845 C846 1.398 . S
C845 H873 0.929 . S
C846 C845 1.398 . S
C846 C847 1.352 . S
C847 C846 1.352 . S
C847 C848 1.384 . S
C847 H874 0.930 . S
C848 C843 1.407 . S
C848 C847 1.384 . S
C848 H875 0.929 . S
C849 O862 1.241 . S
C849 O863 1.273 . S
C850 O864 1.251 . S
C850 O865 1.268 . S
C851 Nd841 2.836 . S
C851 C852 1.498 . S
C851 O866 1.258 . S
C851 O867 1.239 . S
C852 C851 1.498 . S
C852 C853 1.366 . S
C852 C857 1.407 . S
C853 C852 1.366 . S
C853 C854 1.392 . S
C853 H876 0.930 . S
C854 C853 1.392 . S
C854 C855 1.398 . S
C854 H877 0.929 . S
C855 C854 1.398 . S
C855 C856 1.352 . S
C856 C855 1.352 . S
C856 C857 1.384 . S
C856 H878 0.930 . S
C857 C852 1.407 . S
C857 C856 1.384 . S
C857 H879 0.929 . S
C858 O868 1.241 . S
C858 O869 1.273 . S
C859 O870 1.251 . S
C859 O871 1.268 . S
O860 Nd840 2.500 . S
O860 C842 1.258 . S
O861 Nd840 2.492 . S
O861 C842 1.239 . S
O862 Nd840 2.487 . S
O862 C849 1.241 . S
O863 Nd840 2.682 . S
O863 Nd841 2.414 . S
O863 C849 1.273 . S
O864 Nd840 2.410 . S
O864 C850 1.251 . S
O865 Nd841 2.424 . S
O865 C850 1.268 . S
O866 Nd841 2.500 . S
O866 C851 1.258 . S
O867 Nd841 2.492 . S
O867 C851 1.239 . S
O868 Nd841 2.487 . S
O868 C858 1.241 . S
O869 Nd840 2.414 . S
O869 Nd841 2.682 . S
O869 C858 1.273 . S
O870 Nd841 2.410 . S
O870 C859 1.251 . S
O871 Nd840 2.424 . S
O871 C859 1.268 . S
H872 C844 0.930 . S
H873 C845 0.929 . S
H874 C847 0.930 . S
H875 C848 0.929 . S
H876 C853 0.930 . S
H877 C854 0.929 . S
H878 C856 0.930 . S
H879 C857 0.929 . S
Nd880 C882 2.836 . S
Nd880 O900 2.500 . S
Nd880 O901 2.492 . S
Nd880 O902 2.487 . S
Nd880 O903 2.682 . S
Nd880 O904 2.410 . S
Nd880 O909 2.414 . S
Nd880 O911 2.424 . S
Nd881 C891 2.836 . S
Nd881 O903 2.414 . S
Nd881 O905 2.424 . S
Nd881 O906 2.500 . S
Nd881 O907 2.492 . S
Nd881 O908 2.487 . S
Nd881 O909 2.682 . S
Nd881 O910 2.410 . S
C882 Nd880 2.836 . S
C882 C883 1.498 . S
C882 O900 1.258 . S
C882 O901 1.239 . S
C883 C882 1.498 . S
C883 C884 1.366 . S
C883 C888 1.407 . S
C884 C883 1.366 . S
C884 C885 1.392 . S
C884 H912 0.930 . S
C885 C884 1.392 . S
C885 C886 1.398 . S
C885 H913 0.929 . S
C886 C885 1.398 . S
C886 C887 1.352 . S
C887 C886 1.352 . S
C887 C888 1.384 . S
C887 H914 0.930 . S
C888 C883 1.407 . S
C888 C887 1.384 . S
C888 H915 0.929 . S
C889 O902 1.241 . S
C889 O903 1.273 . S
C890 O904 1.251 . S
C890 O905 1.268 . S
C891 Nd881 2.836 . S
C891 C892 1.498 . S
C891 O906 1.258 . S
C891 O907 1.239 . S
C892 C891 1.498 . S
C892 C893 1.366 . S
C892 C897 1.407 . S
C893 C892 1.366 . S
C893 C894 1.392 . S
C893 H916 0.930 . S
C894 C893 1.392 . S
C894 C895 1.398 . S
C894 H917 0.929 . S
C895 C894 1.398 . S
C895 C896 1.352 . S
C896 C895 1.352 . S
C896 C897 1.384 . S
C896 H918 0.930 . S
C897 C892 1.407 . S
C897 C896 1.384 . S
C897 H919 0.929 . S
C898 O908 1.241 . S
C898 O909 1.273 . S
C899 O910 1.251 . S
C899 O911 1.268 . S
O900 Nd880 2.500 . S
O900 C882 1.258 . S
O901 Nd880 2.492 . S
O901 C882 1.239 . S
O902 Nd880 2.487 . S
O902 C889 1.241 . S
O903 Nd880 2.682 . S
O903 Nd881 2.414 . S
O903 C889 1.273 . S
O904 Nd880 2.410 . S
O904 C890 1.251 . S
O905 Nd881 2.424 . S
O905 C890 1.268 . S
O906 Nd881 2.500 . S
O906 C891 1.258 . S
O907 Nd881 2.492 . S
O907 C891 1.239 . S
O908 Nd881 2.487 . S
O908 C898 1.241 . S
O909 Nd880 2.414 . S
O909 Nd881 2.682 . S
O909 C898 1.273 . S
O910 Nd881 2.410 . S
O910 C899 1.251 . S
O911 Nd880 2.424 . S
O911 C899 1.268 . S
H912 C884 0.930 . S
H913 C885 0.929 . S
H914 C887 0.930 . S
H915 C888 0.929 . S
H916 C893 0.930 . S
H917 C894 0.929 . S
H918 C896 0.930 . S
H919 C897 0.929 . S
Nd920 C922 2.836 . S
Nd920 O940 2.500 . S
Nd920 O941 2.492 1_565 S
Nd920 O942 2.487 1_565 S
Nd920 O943 2.682 1_565 S
Nd920 O944 2.410 1_565 S
Nd920 O949 2.414 . S
Nd920 O951 2.424 . S
Nd921 C931 2.834 1_565 S
Nd921 O943 2.414 1_565 S
Nd921 O945 2.425 . S
Nd921 O946 2.500 1_565 S
Nd921 O947 2.492 . S
Nd921 O948 2.487 . S
Nd921 O949 2.682 . S
Nd921 O950 2.410 . S
C922 Nd920 2.836 . S
C922 C923 1.498 . S
C922 O940 1.258 . S
C922 O941 1.239 1_565 S
C923 C922 1.498 . S
C923 C924 1.366 . S
C923 C928 1.407 1_565 S
C924 C923 1.366 . S
C924 C925 1.392 . S
C924 H952 0.930 . S
C925 C924 1.392 . S
C925 C926 1.398 . S
C925 H953 0.929 . S
C926 C925 1.398 . S
C926 C927 1.352 1_565 S
C927 C926 1.352 1_545 S
C927 C928 1.384 . S
C927 H954 0.930 . S
C928 C923 1.407 1_545 S
C928 C927 1.384 . S
C928 H955 0.929 . S
C929 O942 1.241 . S
C929 O943 1.273 . S
C930 O944 1.251 . S
C930 O945 1.267 1_545 S
C931 Nd921 2.834 1_545 S
C931 C932 1.500 . S
C931 O946 1.281 . S
C931 O947 1.215 1_545 S
C932 C931 1.500 . S
C932 C933 1.366 . S
C932 C937 1.407 1_545 S
C933 C932 1.366 . S
C933 C934 1.392 . S
C933 H956 0.930 . S
C934 C933 1.392 . S
C934 C935 1.398 . S
C934 H957 0.929 . S
C935 C934 1.398 . S
C935 C936 1.352 1_545 S
C936 C935 1.352 1_565 S
C936 C937 1.384 . S
C936 H958 0.930 . S
C937 C932 1.407 1_565 S
C937 C936 1.384 . S
C937 H959 0.929 . S
C938 O948 1.241 . S
C938 O949 1.273 . S
C939 O950 1.251 . S
C939 O951 1.268 . S
O940 Nd920 2.500 . S
O940 C922 1.258 . S
O941 Nd920 2.492 1_545 S
O941 C922 1.239 1_545 S
O942 Nd920 2.487 1_545 S
O942 C929 1.241 . S
O943 Nd920 2.682 1_545 S
O943 Nd921 2.414 1_545 S
O943 C929 1.273 . S
O944 Nd920 2.410 1_545 S
O944 C930 1.251 . S
O945 Nd921 2.425 . S
O945 C930 1.267 1_565 S
O946 Nd921 2.500 1_545 S
O946 C931 1.281 . S
O947 Nd921 2.492 . S
O947 C931 1.215 1_565 S
O948 Nd921 2.487 . S
O948 C938 1.241 . S
O949 Nd920 2.414 . S
O949 Nd921 2.682 . S
O949 C938 1.273 . S
O950 Nd921 2.410 . S
O950 C939 1.251 . S
O951 Nd920 2.424 . S
O951 C939 1.268 . S
H952 C924 0.930 . S
H953 C925 0.929 . S
H954 C927 0.930 . S
H955 C928 0.929 . S
H956 C933 0.930 . S
H957 C934 0.929 . S
H958 C936 0.930 . S
H959 C937 0.929 . S
Nd960 C962 2.836 . S
Nd960 O980 2.500 . S
Nd960 O981 2.492 . S
Nd960 O982 2.487 . S
Nd960 O983 2.682 . S
Nd960 O984 2.410 . S
Nd960 O989 2.414 . S
Nd960 O991 2.424 . S
Nd961 C971 2.836 . S
Nd961 O983 2.414 . S
Nd961 O985 2.424 . S
Nd961 O986 2.500 . S
Nd961 O987 2.492 . S
Nd961 O988 2.487 . S
Nd961 O989 2.682 . S
Nd961 O990 2.410 . S
C962 Nd960 2.836 . S
C962 C963 1.498 1_554 S
C962 O980 1.258 . S
C962 O981 1.239 . S
C963 C962 1.498 1_556 S
C963 C964 1.366 . S
C963 C968 1.407 . S
C964 C963 1.366 . S
C964 C965 1.392 . S
C964 H992 0.930 . S
C965 C964 1.392 . S
C965 C966 1.398 . S
C965 H993 0.929 . S
C966 C965 1.398 . S
C966 C967 1.352 . S
C967 C966 1.352 . S
C967 C968 1.384 . S
C967 H994 0.930 . S
C968 C963 1.407 . S
C968 C967 1.384 . S
C968 H995 0.929 . S
C969 O982 1.241 . S
C969 O983 1.273 . S
C970 O984 1.251 . S
C970 O985 1.268 . S
C971 Nd961 2.836 . S
C971 C972 1.498 . S
C971 O986 1.258 . S
C971 O987 1.239 . S
C972 C971 1.498 . S
C972 C973 1.366 . S
C972 C977 1.407 . S
C973 C972 1.366 . S
C973 C974 1.392 . S
C973 H996 0.930 . S
C974 C973 1.392 . S
C974 C975 1.398 . S
C974 H997 0.929 . S
C975 C974 1.398 . S
C975 C976 1.352 . S
C976 C975 1.352 . S
C976 C977 1.384 . S
C976 H998 0.930 . S
C977 C972 1.407 . S
C977 C976 1.384 . S
C977 H999 0.929 . S
C978 O988 1.241 . S
C978 O989 1.273 . S
C979 O990 1.251 . S
C979 O991 1.268 . S
O980 Nd960 2.500 . S
O980 C962 1.258 . S
O981 Nd960 2.492 . S
O981 C962 1.239 . S
O982 Nd960 2.487 . S
O982 C969 1.241 . S
O983 Nd960 2.682 . S
O983 Nd961 2.414 . S
O983 C969 1.273 . S
O984 Nd960 2.410 . S
O984 C970 1.251 . S
O985 Nd961 2.424 . S
O985 C970 1.268 . S
O986 Nd961 2.500 . S
O986 C971 1.258 . S
O987 Nd961 2.492 . S
O987 C971 1.239 . S
O988 Nd961 2.487 . S
O988 C978 1.241 . S
O989 Nd960 2.414 . S
O989 Nd961 2.682 . S
O989 C978 1.273 . S
O990 Nd961 2.410 . S
O990 C979 1.251 . S
O991 Nd960 2.424 . S
O991 C979 1.268 . S
H992 C964 0.930 . S
H993 C965 0.929 . S
H994 C967 0.930 . S
H995 C968 0.929 . S
H996 C973 0.930 . S
H997 C974 0.929 . S
H998 C976 0.930 . S
H999 C977 0.929 . S
Nd1000 C1002 2.836 . S
Nd1000 O1020 2.500 . S
Nd1000 O1021 2.492 . S
Nd1000 O1022 2.487 . S
Nd1000 O1023 2.682 . S
Nd1000 O1024 2.410 . S
Nd1000 O1029 2.414 . S
Nd1000 O1031 2.424 . S
Nd1001 C1011 2.836 . S
Nd1001 O1023 2.414 . S
Nd1001 O1025 2.424 . S
Nd1001 O1026 2.500 . S
Nd1001 O1027 2.492 . S
Nd1001 O1028 2.487 . S
Nd1001 O1029 2.682 . S
Nd1001 O1030 2.410 . S
C1002 Nd1000 2.836 . S
C1002 C1003 1.498 1_554 S
C1002 O1020 1.258 . S
C1002 O1021 1.239 . S
C1003 C1002 1.498 1_556 S
C1003 C1004 1.366 . S
C1003 C1008 1.407 . S
C1004 C1003 1.366 . S
C1004 C1005 1.392 . S
C1004 H1032 0.930 . S
C1005 C1004 1.392 . S
C1005 C1006 1.398 . S
C1005 H1033 0.929 . S
C1006 C1005 1.398 . S
C1006 C1007 1.352 . S
C1007 C1006 1.352 . S
C1007 C1008 1.384 . S
C1007 H1034 0.930 . S
C1008 C1003 1.407 . S
C1008 C1007 1.384 . S
C1008 H1035 0.929 . S
C1009 O1022 1.241 . S
C1009 O1023 1.273 . S
C1010 O1024 1.251 . S
C1010 O1025 1.268 . S
C1011 Nd1001 2.836 . S
C1011 C1012 1.498 . S
C1011 O1026 1.258 . S
C1011 O1027 1.239 . S
C1012 C1011 1.498 . S
C1012 C1013 1.366 . S
C1012 C1017 1.407 . S
C1013 C1012 1.366 . S
C1013 C1014 1.392 . S
C1013 H1036 0.930 . S
C1014 C1013 1.392 . S
C1014 C1015 1.398 . S
C1014 H1037 0.929 . S
C1015 C1014 1.398 . S
C1015 C1016 1.352 . S
C1016 C1015 1.352 . S
C1016 C1017 1.384 . S
C1016 H1038 0.930 . S
C1017 C1012 1.407 . S
C1017 C1016 1.384 . S
C1017 H1039 0.929 . S
C1018 O1028 1.241 . S
C1018 O1029 1.273 . S
C1019 O1030 1.251 . S
C1019 O1031 1.268 . S
O1020 Nd1000 2.500 . S
O1020 C1002 1.258 . S
O1021 Nd1000 2.492 . S
O1021 C1002 1.239 . S
O1022 Nd1000 2.487 . S
O1022 C1009 1.241 . S
O1023 Nd1000 2.682 . S
O1023 Nd1001 2.414 . S
O1023 C1009 1.273 . S
O1024 Nd1000 2.410 . S
O1024 C1010 1.251 . S
O1025 Nd1001 2.424 . S
O1025 C1010 1.268 . S
O1026 Nd1001 2.500 . S
O1026 C1011 1.258 . S
O1027 Nd1001 2.492 . S
O1027 C1011 1.239 . S
O1028 Nd1001 2.487 . S
O1028 C1018 1.241 . S
O1029 Nd1000 2.414 . S
O1029 Nd1001 2.682 . S
O1029 C1018 1.273 . S
O1030 Nd1001 2.410 . S
O1030 C1019 1.251 . S
O1031 Nd1000 2.424 . S
O1031 C1019 1.268 . S
H1032 C1004 0.930 . S
H1033 C1005 0.929 . S
H1034 C1007 0.930 . S
H1035 C1008 0.929 . S
H1036 C1013 0.930 . S
H1037 C1014 0.929 . S
H1038 C1016 0.930 . S
H1039 C1017 0.929 . S
Nd1040 C1042 2.836 . S
Nd1040 O1060 2.500 . S
Nd1040 O1061 2.492 . S
Nd1040 O1062 2.487 . S
Nd1040 O1063 2.682 . S
Nd1040 O1064 2.410 . S
Nd1040 O1069 2.414 . S
Nd1040 O1071 2.424 . S
Nd1041 C1051 2.836 . S
Nd1041 O1063 2.414 . S
Nd1041 O1065 2.424 . S
Nd1041 O1066 2.500 . S
Nd1041 O1067 2.492 . S
Nd1041 O1068 2.487 . S
Nd1041 O1069 2.682 . S
Nd1041 O1070 2.410 . S
C1042 Nd1040 2.836 . S
C1042 C1043 1.498 . S
C1042 O1060 1.258 . S
C1042 O1061 1.239 . S
C1043 C1042 1.498 . S
C1043 C1044 1.366 . S
C1043 C1048 1.407 . S
C1044 C1043 1.366 . S
C1044 C1045 1.392 . S
C1044 H1072 0.930 . S
C1045 C1044 1.392 . S
C1045 C1046 1.398 . S
C1045 H1073 0.929 . S
C1046 C1045 1.398 . S
C1046 C1047 1.352 . S
C1047 C1046 1.352 . S
C1047 C1048 1.384 . S
C1047 H1074 0.930 . S
C1048 C1043 1.407 . S
C1048 C1047 1.384 . S
C1048 H1075 0.929 . S
C1049 O1062 1.241 . S
C1049 O1063 1.273 . S
C1050 O1064 1.251 . S
C1050 O1065 1.268 . S
C1051 Nd1041 2.836 . S
C1051 C1052 1.498 . S
C1051 O1066 1.258 . S
C1051 O1067 1.239 . S
C1052 C1051 1.498 . S
C1052 C1053 1.366 . S
C1052 C1057 1.407 . S
C1053 C1052 1.366 . S
C1053 C1054 1.392 . S
C1053 H1076 0.930 . S
C1054 C1053 1.392 . S
C1054 C1055 1.398 . S
C1054 H1077 0.929 . S
C1055 C1054 1.398 . S
C1055 C1056 1.352 . S
C1056 C1055 1.352 . S
C1056 C1057 1.384 . S
C1056 H1078 0.930 . S
C1057 C1052 1.407 . S
C1057 C1056 1.384 . S
C1057 H1079 0.929 . S
C1058 O1068 1.241 . S
C1058 O1069 1.273 . S
C1059 O1070 1.251 . S
C1059 O1071 1.268 . S
O1060 Nd1040 2.500 . S
O1060 C1042 1.258 . S
O1061 Nd1040 2.492 . S
O1061 C1042 1.239 . S
O1062 Nd1040 2.487 . S
O1062 C1049 1.241 . S
O1063 Nd1040 2.682 . S
O1063 Nd1041 2.414 . S
O1063 C1049 1.273 . S
O1064 Nd1040 2.410 . S
O1064 C1050 1.251 . S
O1065 Nd1041 2.424 . S
O1065 C1050 1.268 . S
O1066 Nd1041 2.500 . S
O1066 C1051 1.258 . S
O1067 Nd1041 2.492 . S
O1067 C1051 1.239 . S
O1068 Nd1041 2.487 . S
O1068 C1058 1.241 . S
O1069 Nd1040 2.414 . S
O1069 Nd1041 2.682 . S
O1069 C1058 1.273 . S
O1070 Nd1041 2.410 . S
O1070 C1059 1.251 . S
O1071 Nd1040 2.424 . S
O1071 C1059 1.268 . S
H1072 C1044 0.930 . S
H1073 C1045 0.929 . S
H1074 C1047 0.930 . S
H1075 C1048 0.929 . S
H1076 C1053 0.930 . S
H1077 C1054 0.929 . S
H1078 C1056 0.930 . S
H1079 C1057 0.929 . S
Nd1080 C1082 2.836 . S
Nd1080 O1100 2.500 . S
Nd1080 O1101 2.492 . S
Nd1080 O1102 2.487 . S
Nd1080 O1103 2.682 . S
Nd1080 O1104 2.410 . S
Nd1080 O1109 2.414 . S
Nd1080 O1111 2.424 . S
Nd1081 C1091 2.836 . S
Nd1081 O1103 2.414 . S
Nd1081 O1105 2.424 . S
Nd1081 O1106 2.500 . S
Nd1081 O1107 2.492 . S
Nd1081 O1108 2.487 . S
Nd1081 O1109 2.682 . S
Nd1081 O1110 2.410 . S
C1082 Nd1080 2.836 . S
C1082 C1083 1.498 . S
C1082 O1100 1.258 . S
C1082 O1101 1.239 . S
C1083 C1082 1.498 . S
C1083 C1084 1.366 . S
C1083 C1088 1.407 . S
C1084 C1083 1.366 . S
C1084 C1085 1.392 . S
C1084 H1112 0.930 . S
C1085 C1084 1.392 . S
C1085 C1086 1.398 . S
C1085 H1113 0.929 . S
C1086 C1085 1.398 . S
C1086 C1087 1.352 . S
C1087 C1086 1.352 . S
C1087 C1088 1.384 . S
C1087 H1114 0.930 . S
C1088 C1083 1.407 . S
C1088 C1087 1.384 . S
C1088 H1115 0.929 . S
C1089 O1102 1.241 . S
C1089 O1103 1.273 . S
C1090 O1104 1.251 . S
C1090 O1105 1.268 . S
C1091 Nd1081 2.836 . S
C1091 C1092 1.498 . S
C1091 O1106 1.258 . S
C1091 O1107 1.239 . S
C1092 C1091 1.498 . S
C1092 C1093 1.366 . S
C1092 C1097 1.407 . S
C1093 C1092 1.366 . S
C1093 C1094 1.392 . S
C1093 H1116 0.930 . S
C1094 C1093 1.392 . S
C1094 C1095 1.398 . S
C1094 H1117 0.929 . S
C1095 C1094 1.398 . S
C1095 C1096 1.352 . S
C1096 C1095 1.352 . S
C1096 C1097 1.384 . S
C1096 H1118 0.930 . S
C1097 C1092 1.407 . S
C1097 C1096 1.384 . S
C1097 H1119 0.929 . S
C1098 O1108 1.241 . S
C1098 O1109 1.273 . S
C1099 O1110 1.251 . S
C1099 O1111 1.268 . S
O1100 Nd1080 2.500 . S
O1100 C1082 1.258 . S
O1101 Nd1080 2.492 . S
O1101 C1082 1.239 . S
O1102 Nd1080 2.487 . S
O1102 C1089 1.241 . S
O1103 Nd1080 2.682 . S
O1103 Nd1081 2.414 . S
O1103 C1089 1.273 . S
O1104 Nd1080 2.410 . S
O1104 C1090 1.251 . S
O1105 Nd1081 2.424 . S
O1105 C1090 1.268 . S
O1106 Nd1081 2.500 . S
O1106 C1091 1.258 . S
O1107 Nd1081 2.492 . S
O1107 C1091 1.239 . S
O1108 Nd1081 2.487 . S
O1108 C1098 1.241 . S
O1109 Nd1080 2.414 . S
O1109 Nd1081 2.682 . S
O1109 C1098 1.273 . S
O1110 Nd1081 2.410 . S
O1110 C1099 1.251 . S
O1111 Nd1080 2.424 . S
O1111 C1099 1.268 . S
H1112 C1084 0.930 . S
H1113 C1085 0.929 . S
H1114 C1087 0.930 . S
H1115 C1088 0.929 . S
H1116 C1093 0.930 . S
H1117 C1094 0.929 . S
H1118 C1096 0.930 . S
H1119 C1097 0.929 . S
Nd1120 C1122 2.836 . S
Nd1120 O1140 2.500 . S
Nd1120 O1141 2.492 . S
Nd1120 O1142 2.487 . S
Nd1120 O1143 2.682 . S
Nd1120 O1144 2.410 . S
Nd1120 O1149 2.414 . S
Nd1120 O1151 2.424 . S
Nd1121 C1131 2.836 . S
Nd1121 O1143 2.414 . S
Nd1121 O1145 2.424 . S
Nd1121 O1146 2.500 . S
Nd1121 O1147 2.492 . S
Nd1121 O1148 2.487 . S
Nd1121 O1149 2.682 . S
Nd1121 O1150 2.410 . S
C1122 Nd1120 2.836 . S
C1122 C1123 1.498 . S
C1122 O1140 1.258 . S
C1122 O1141 1.239 . S
C1123 C1122 1.498 . S
C1123 C1124 1.366 . S
C1123 C1128 1.407 . S
C1124 C1123 1.366 . S
C1124 C1125 1.392 . S
C1124 H1152 0.930 . S
C1125 C1124 1.392 . S
C1125 C1126 1.398 . S
C1125 H1153 0.929 . S
C1126 C1125 1.398 . S
C1126 C1127 1.352 . S
C1127 C1126 1.352 . S
C1127 C1128 1.384 . S
C1127 H1154 0.930 . S
C1128 C1123 1.407 . S
C1128 C1127 1.384 . S
C1128 H1155 0.929 . S
C1129 O1142 1.241 . S
C1129 O1143 1.273 . S
C1130 O1144 1.251 . S
C1130 O1145 1.268 . S
C1131 Nd1121 2.836 . S
C1131 C1132 1.498 1_556 S
C1131 O1146 1.258 . S
C1131 O1147 1.239 . S
C1132 C1131 1.498 1_554 S
C1132 C1133 1.366 . S
C1132 C1137 1.407 . S
C1133 C1132 1.366 . S
C1133 C1134 1.392 . S
C1133 H1156 0.930 . S
C1134 C1133 1.392 . S
C1134 C1135 1.398 . S
C1134 H1157 0.929 . S
C1135 C1134 1.398 . S
C1135 C1136 1.352 . S
C1136 C1135 1.352 . S
C1136 C1137 1.384 . S
C1136 H1158 0.930 . S
C1137 C1132 1.407 . S
C1137 C1136 1.384 . S
C1137 H1159 0.929 . S
C1138 O1148 1.241 . S
C1138 O1149 1.273 . S
C1139 O1150 1.251 . S
C1139 O1151 1.268 . S
O1140 Nd1120 2.500 . S
O1140 C1122 1.258 . S
O1141 Nd1120 2.492 . S
O1141 C1122 1.239 . S
O1142 Nd1120 2.487 . S
O1142 C1129 1.241 . S
O1143 Nd1120 2.682 . S
O1143 Nd1121 2.414 . S
O1143 C1129 1.273 . S
O1144 Nd1120 2.410 . S
O1144 C1130 1.251 . S
O1145 Nd1121 2.424 . S
O1145 C1130 1.268 . S
O1146 Nd1121 2.500 . S
O1146 C1131 1.258 . S
O1147 Nd1121 2.492 . S
O1147 C1131 1.239 . S
O1148 Nd1121 2.487 . S
O1148 C1138 1.241 . S
O1149 Nd1120 2.414 . S
O1149 Nd1121 2.682 . S
O1149 C1138 1.273 . S
O1150 Nd1121 2.410 . S
O1150 C1139 1.251 . S
O1151 Nd1120 2.424 . S
O1151 C1139 1.268 . S
H1152 C1124 0.930 . S
H1153 C1125 0.929 . S
H1154 C1127 0.930 . S
H1155 C1128 0.929 . S
H1156 C1133 0.930 . S
H1157 C1134 0.929 . S
H1158 C1136 0.930 . S
H1159 C1137 0.929 . S
Nd1160 C1162 2.836 . S
Nd1160 O1180 2.500 . S
Nd1160 O1181 2.492 . S
Nd1160 O1182 2.487 . S
Nd1160 O1183 2.682 . S
Nd1160 O1184 2.410 . S
Nd1160 O1189 2.414 . S
Nd1160 O1191 2.424 . S
Nd1161 C1171 2.836 . S
Nd1161 O1183 2.414 . S
Nd1161 O1185 2.424 . S
Nd1161 O1186 2.500 . S
Nd1161 O1187 2.492 . S
Nd1161 O1188 2.487 . S
Nd1161 O1189 2.682 . S
Nd1161 O1190 2.410 . S
C1162 Nd1160 2.836 . S
C1162 C1163 1.498 . S
C1162 O1180 1.258 . S
C1162 O1181 1.239 . S
C1163 C1162 1.498 . S
C1163 C1164 1.366 . S
C1163 C1168 1.407 . S
C1164 C1163 1.366 . S
C1164 C1165 1.392 . S
C1164 H1192 0.930 . S
C1165 C1164 1.392 . S
C1165 C1166 1.398 . S
C1165 H1193 0.929 . S
C1166 C1165 1.398 . S
C1166 C1167 1.352 . S
C1167 C1166 1.352 . S
C1167 C1168 1.384 . S
C1167 H1194 0.930 . S
C1168 C1163 1.407 . S
C1168 C1167 1.384 . S
C1168 H1195 0.929 . S
C1169 O1182 1.241 . S
C1169 O1183 1.273 . S
C1170 O1184 1.251 . S
C1170 O1185 1.268 . S
C1171 Nd1161 2.836 . S
C1171 C1172 1.498 1_556 S
C1171 O1186 1.258 . S
C1171 O1187 1.239 . S
C1172 C1171 1.498 1_554 S
C1172 C1173 1.366 . S
C1172 C1177 1.407 . S
C1173 C1172 1.366 . S
C1173 C1174 1.392 . S
C1173 H1196 0.930 . S
C1174 C1173 1.392 . S
C1174 C1175 1.398 . S
C1174 H1197 0.929 . S
C1175 C1174 1.398 . S
C1175 C1176 1.352 . S
C1176 C1175 1.352 . S
C1176 C1177 1.384 . S
C1176 H1198 0.930 . S
C1177 C1172 1.407 . S
C1177 C1176 1.384 . S
C1177 H1199 0.929 . S
C1178 O1188 1.241 . S
C1178 O1189 1.273 . S
C1179 O1190 1.251 . S
C1179 O1191 1.268 . S
O1180 Nd1160 2.500 . S
O1180 C1162 1.258 . S
O1181 Nd1160 2.492 . S
O1181 C1162 1.239 . S
O1182 Nd1160 2.487 . S
O1182 C1169 1.241 . S
O1183 Nd1160 2.682 . S
O1183 Nd1161 2.414 . S
O1183 C1169 1.273 . S
O1184 Nd1160 2.410 . S
O1184 C1170 1.251 . S
O1185 Nd1161 2.424 . S
O1185 C1170 1.268 . S
O1186 Nd1161 2.500 . S
O1186 C1171 1.258 . S
O1187 Nd1161 2.492 . S
O1187 C1171 1.239 . S
O1188 Nd1161 2.487 . S
O1188 C1178 1.241 . S
O1189 Nd1160 2.414 . S
O1189 Nd1161 2.682 . S
O1189 C1178 1.273 . S
O1190 Nd1161 2.410 . S
O1190 C1179 1.251 . S
O1191 Nd1160 2.424 . S
O1191 C1179 1.268 . S
H1192 C1164 0.930 . S
H1193 C1165 0.929 . S
H1194 C1167 0.930 . S
H1195 C1168 0.929 . S
H1196 C1173 0.930 . S
H1197 C1174 0.929 . S
H1198 C1176 0.930 . S
H1199 C1177 0.929 . S
Nd1200 C1202 2.836 . S
Nd1200 O1220 2.500 . S
Nd1200 O1221 2.492 . S
Nd1200 O1222 2.487 . S
Nd1200 O1223 2.682 . S
Nd1200 O1224 2.410 . S
Nd1200 O1229 2.414 . S
Nd1200 O1231 2.424 . S
Nd1201 C1211 2.836 . S
Nd1201 O1223 2.414 . S
Nd1201 O1225 2.424 . S
Nd1201 O1226 2.500 . S
Nd1201 O1227 2.492 . S
Nd1201 O1228 2.487 . S
Nd1201 O1229 2.682 . S
Nd1201 O1230 2.410 . S
C1202 Nd1200 2.836 . S
C1202 C1203 1.498 . S
C1202 O1220 1.258 . S
C1202 O1221 1.239 . S
C1203 C1202 1.498 . S
C1203 C1204 1.366 . S
C1203 C1208 1.407 . S
C1204 C1203 1.366 . S
C1204 C1205 1.392 . S
C1204 H1232 0.930 . S
C1205 C1204 1.392 . S
C1205 C1206 1.398 . S
C1205 H1233 0.929 . S
C1206 C1205 1.398 . S
C1206 C1207 1.352 . S
C1207 C1206 1.352 . S
C1207 C1208 1.384 . S
C1207 H1234 0.930 . S
C1208 C1203 1.407 . S
C1208 C1207 1.384 . S
C1208 H1235 0.929 . S
C1209 O1222 1.241 . S
C1209 O1223 1.273 . S
C1210 O1224 1.251 . S
C1210 O1225 1.268 . S
C1211 Nd1201 2.836 . S
C1211 C1212 1.498 . S
C1211 O1226 1.258 . S
C1211 O1227 1.239 . S
C1212 C1211 1.498 . S
C1212 C1213 1.366 . S
C1212 C1217 1.407 . S
C1213 C1212 1.366 . S
C1213 C1214 1.392 . S
C1213 H1236 0.930 . S
C1214 C1213 1.392 . S
C1214 C1215 1.398 . S
C1214 H1237 0.929 . S
C1215 C1214 1.398 . S
C1215 C1216 1.352 . S
C1216 C1215 1.352 . S
C1216 C1217 1.384 . S
C1216 H1238 0.930 . S
C1217 C1212 1.407 . S
C1217 C1216 1.384 . S
C1217 H1239 0.929 . S
C1218 O1228 1.241 . S
C1218 O1229 1.273 . S
C1219 O1230 1.251 . S
C1219 O1231 1.268 . S
O1220 Nd1200 2.500 . S
O1220 C1202 1.258 . S
O1221 Nd1200 2.492 . S
O1221 C1202 1.239 . S
O1222 Nd1200 2.487 . S
O1222 C1209 1.241 . S
O1223 Nd1200 2.682 . S
O1223 Nd1201 2.414 . S
O1223 C1209 1.273 . S
O1224 Nd1200 2.410 . S
O1224 C1210 1.251 . S
O1225 Nd1201 2.424 . S
O1225 C1210 1.268 . S
O1226 Nd1201 2.500 . S
O1226 C1211 1.258 . S
O1227 Nd1201 2.492 . S
O1227 C1211 1.239 . S
O1228 Nd1201 2.487 . S
O1228 C1218 1.241 . S
O1229 Nd1200 2.414 . S
O1229 Nd1201 2.682 . S
O1229 C1218 1.273 . S
O1230 Nd1201 2.410 . S
O1230 C1219 1.251 . S
O1231 Nd1200 2.424 . S
O1231 C1219 1.268 . S
H1232 C1204 0.930 . S
H1233 C1205 0.929 . S
H1234 C1207 0.930 . S
H1235 C1208 0.929 . S
H1236 C1213 0.930 . S
H1237 C1214 0.929 . S
H1238 C1216 0.930 . S
H1239 C1217 0.929 . S
Nd1240 C1242 2.836 . S
Nd1240 O1260 2.500 . S
Nd1240 O1261 2.492 . S
Nd1240 O1262 2.487 . S
Nd1240 O1263 2.682 . S
Nd1240 O1264 2.410 . S
Nd1240 O1269 2.414 . S
Nd1240 O1271 2.424 . S
Nd1241 C1251 2.836 . S
Nd1241 O1263 2.414 . S
Nd1241 O1265 2.424 . S
Nd1241 O1266 2.500 . S
Nd1241 O1267 2.492 . S
Nd1241 O1268 2.487 . S
Nd1241 O1269 2.682 . S
Nd1241 O1270 2.410 . S
C1242 Nd1240 2.836 . S
C1242 C1243 1.498 . S
C1242 O1260 1.258 . S
C1242 O1261 1.239 . S
C1243 C1242 1.498 . S
C1243 C1244 1.366 . S
C1243 C1248 1.407 . S
C1244 C1243 1.366 . S
C1244 C1245 1.392 . S
C1244 H1272 0.930 . S
C1245 C1244 1.392 . S
C1245 C1246 1.398 . S
C1245 H1273 0.929 . S
C1246 C1245 1.398 . S
C1246 C1247 1.352 . S
C1247 C1246 1.352 . S
C1247 C1248 1.384 . S
C1247 H1274 0.930 . S
C1248 C1243 1.407 . S
C1248 C1247 1.384 . S
C1248 H1275 0.929 . S
C1249 O1262 1.241 . S
C1249 O1263 1.273 . S
C1250 O1264 1.251 . S
C1250 O1265 1.268 . S
C1251 Nd1241 2.836 . S
C1251 C1252 1.498 . S
C1251 O1266 1.258 . S
C1251 O1267 1.239 . S
C1252 C1251 1.498 . S
C1252 C1253 1.366 . S
C1252 C1257 1.407 . S
C1253 C1252 1.366 . S
C1253 C1254 1.392 . S
C1253 H1276 0.930 . S
C1254 C1253 1.392 . S
C1254 C1255 1.398 . S
C1254 H1277 0.929 . S
C1255 C1254 1.398 . S
C1255 C1256 1.352 . S
C1256 C1255 1.352 . S
C1256 C1257 1.384 . S
C1256 H1278 0.930 . S
C1257 C1252 1.407 . S
C1257 C1256 1.384 . S
C1257 H1279 0.929 . S
C1258 O1268 1.241 . S
C1258 O1269 1.273 . S
C1259 O1270 1.251 . S
C1259 O1271 1.268 . S
O1260 Nd1240 2.500 . S
O1260 C1242 1.258 . S
O1261 Nd1240 2.492 . S
O1261 C1242 1.239 . S
O1262 Nd1240 2.487 . S
O1262 C1249 1.241 . S
O1263 Nd1240 2.682 . S
O1263 Nd1241 2.414 . S
O1263 C1249 1.273 . S
O1264 Nd1240 2.410 . S
O1264 C1250 1.251 . S
O1265 Nd1241 2.424 . S
O1265 C1250 1.268 . S
O1266 Nd1241 2.500 . S
O1266 C1251 1.258 . S
O1267 Nd1241 2.492 . S
O1267 C1251 1.239 . S
O1268 Nd1241 2.487 . S
O1268 C1258 1.241 . S
O1269 Nd1240 2.414 . S
O1269 Nd1241 2.682 . S
O1269 C1258 1.273 . S
O1270 Nd1241 2.410 . S
O1270 C1259 1.251 . S
O1271 Nd1240 2.424 . S
O1271 C1259 1.268 . S
H1272 C1244 0.930 . S
H1273 C1245 0.929 . S
H1274 C1247 0.930 . S
H1275 C1248 0.929 . S
H1276 C1253 0.930 . S
H1277 C1254 0.929 . S
H1278 C1256 0.930 . S
H1279 C1257 0.929 . S
C1280 C1281 1.391 . S
C1280 C1282 1.394 . S
C1280 H1296 0.931 . S
C1281 C1280 1.391 . S
C1281 C1285 1.376 . S
C1282 C1280 1.394 . S
C1282 C1283 1.369 . S
C1282 C1286 1.531 . S
C1283 C1282 1.369 . S
C1283 C1284 1.410 . S
C1283 C1291 1.503 . S
C1284 C1283 1.410 . S
C1284 C1285 1.392 . S
C1284 C1287 1.511 . S
C1285 C1281 1.376 . S
C1285 C1284 1.392 . S
C1285 H1297 0.929 . S
C1286 C1282 1.531 . S
C1286 H1298 0.960 . S
C1286 H1299 0.962 . S
C1286 H1300 0.960 . S
C1287 C1284 1.511 . S
C1287 H1301 0.961 . S
C1287 H1302 0.961 . S
C1287 H1303 0.961 . S
C1288 C1289 1.370 . S
C1288 C1290 1.363 . S
C1288 H1304 0.931 . S
C1289 C1288 1.370 . S
C1289 C1293 1.408 . S
C1290 C1288 1.363 . S
C1290 C1291 1.370 . S
C1290 C1294 1.524 . S
C1291 C1283 1.503 . S
C1291 C1290 1.370 . S
C1291 C1292 1.403 . S
C1292 C1291 1.403 . S
C1292 C1293 1.404 . S
C1292 C1295 1.539 . S
C1293 C1289 1.408 . S
C1293 C1292 1.404 . S
C1293 H1305 0.930 . S
C1294 C1290 1.524 . S
C1294 H1306 0.956 . S
C1294 H1307 0.961 . S
C1294 H1308 0.961 . S
C1295 C1292 1.539 . S
C1295 H1309 0.958 . S
C1295 H1310 0.961 . S
C1295 H1311 0.960 . S
H1296 C1280 0.931 . S
H1297 C1285 0.929 . S
H1298 C1286 0.960 . S
H1299 C1286 0.962 . S
H1300 C1286 0.960 . S
H1301 C1287 0.961 . S
H1302 C1287 0.961 . S
H1303 C1287 0.961 . S
H1304 C1288 0.931 . S
H1305 C1293 0.930 . S
H1306 C1294 0.956 . S
H1307 C1294 0.961 . S
H1308 C1294 0.961 . S
H1309 C1295 0.958 . S
H1310 C1295 0.961 . S
H1311 C1295 0.960 . S
C1312 C1313 1.391 . S
C1312 C1314 1.394 . S
C1312 H1328 0.931 . S
C1313 C1312 1.391 . S
C1313 C1317 1.376 . S
C1314 C1312 1.394 . S
C1314 C1315 1.369 . S
C1314 C1318 1.531 . S
C1315 C1314 1.369 . S
C1315 C1316 1.410 . S
C1315 C1323 1.503 . S
C1316 C1315 1.410 . S
C1316 C1317 1.392 . S
C1316 C1319 1.511 . S
C1317 C1313 1.376 . S
C1317 C1316 1.392 . S
C1317 H1329 0.929 . S
C1318 C1314 1.531 . S
C1318 H1330 0.960 . S
C1318 H1331 0.962 . S
C1318 H1332 0.960 . S
C1319 C1316 1.511 . S
C1319 H1333 0.961 . S
C1319 H1334 0.961 . S
C1319 H1335 0.961 . S
C1320 C1321 1.370 . S
C1320 C1322 1.363 . S
C1320 H1336 0.931 . S
C1321 C1320 1.370 . S
C1321 C1325 1.408 . S
C1322 C1320 1.363 . S
C1322 C1323 1.370 . S
C1322 C1326 1.524 . S
C1323 C1315 1.503 . S
C1323 C1322 1.370 . S
C1323 C1324 1.403 . S
C1324 C1323 1.403 . S
C1324 C1325 1.404 . S
C1324 C1327 1.539 . S
C1325 C1321 1.408 . S
C1325 C1324 1.404 . S
C1325 H1337 0.930 . S
C1326 C1322 1.524 . S
C1326 H1338 0.956 . S
C1326 H1339 0.961 . S
C1326 H1340 0.961 . S
C1327 C1324 1.539 . S
C1327 H1341 0.958 . S
C1327 H1342 0.963 . S
C1327 H1343 0.960 . S
H1328 C1312 0.931 . S
H1329 C1317 0.929 . S
H1330 C1318 0.960 . S
H1331 C1318 0.962 . S
H1332 C1318 0.960 . S
H1333 C1319 0.961 . S
H1334 C1319 0.961 . S
H1335 C1319 0.961 . S
H1336 C1320 0.931 . S
H1337 C1325 0.930 . S
H1338 C1326 0.956 . S
H1339 C1326 0.961 . S
H1340 C1326 0.961 . S
H1341 C1327 0.958 . S
H1342 C1327 0.963 . S
H1343 C1327 0.960 . S
C1344 C1345 1.391 . S
C1344 C1346 1.394 . S
C1344 H1360 0.931 . S
C1345 C1344 1.391 . S
C1345 C1349 1.376 . S
C1346 C1344 1.394 . S
C1346 C1347 1.369 . S
C1346 C1350 1.531 . S
C1347 C1346 1.369 . S
C1347 C1348 1.410 . S
C1347 C1355 1.503 . S
C1348 C1347 1.410 . S
C1348 C1349 1.392 . S
C1348 C1351 1.511 . S
C1349 C1345 1.376 . S
C1349 C1348 1.392 . S
C1349 H1361 0.929 . S
C1350 C1346 1.531 . S
C1350 H1362 0.960 . S
C1350 H1363 0.962 . S
C1350 H1364 0.960 . S
C1351 C1348 1.511 . S
C1351 H1365 0.961 . S
C1351 H1366 0.961 . S
C1351 H1367 0.961 . S
C1352 C1353 1.370 . S
C1352 C1354 1.363 . S
C1352 H1368 0.931 . S
C1353 C1352 1.370 . S
C1353 C1357 1.408 . S
C1354 C1352 1.363 . S
C1354 C1355 1.370 . S
C1354 C1358 1.524 . S
C1355 C1347 1.503 . S
C1355 C1354 1.370 . S
C1355 C1356 1.403 . S
C1356 C1355 1.403 . S
C1356 C1357 1.404 . S
C1356 C1359 1.539 . S
C1357 C1353 1.408 . S
C1357 C1356 1.404 . S
C1357 H1369 0.930 . S
C1358 C1354 1.524 . S
C1358 H1370 0.956 . S
C1358 H1371 0.961 . S
C1358 H1372 0.961 . S
C1359 C1356 1.539 . S
C1359 H1373 0.958 . S
C1359 H1374 0.961 . S
C1359 H1375 0.960 . S
H1360 C1344 0.931 . S
H1361 C1349 0.929 . S
H1362 C1350 0.960 . S
H1363 C1350 0.962 . S
H1364 C1350 0.960 . S
H1365 C1351 0.961 . S
H1366 C1351 0.961 . S
H1367 C1351 0.961 . S
H1368 C1352 0.931 . S
H1369 C1357 0.930 . S
H1370 C1358 0.956 . S
H1371 C1358 0.961 . S
H1372 C1358 0.961 . S
H1373 C1359 0.958 . S
H1374 C1359 0.961 . S
H1375 C1359 0.960 . S
C1376 C1377 1.391 . S
C1376 C1378 1.394 . S
C1376 H1392 0.931 . S
C1377 C1376 1.391 . S
C1377 C1381 1.376 . S
C1378 C1376 1.394 . S
C1378 C1379 1.369 . S
C1378 C1382 1.531 . S
C1379 C1378 1.369 . S
C1379 C1380 1.410 . S
C1379 C1387 1.503 . S
C1380 C1379 1.410 . S
C1380 C1381 1.392 . S
C1380 C1383 1.511 . S
C1381 C1377 1.376 . S
C1381 C1380 1.392 . S
C1381 H1393 0.929 . S
C1382 C1378 1.531 . S
C1382 H1394 0.960 . S
C1382 H1395 0.962 . S
C1382 H1396 0.960 . S
C1383 C1380 1.511 . S
C1383 H1397 0.961 . S
C1383 H1398 0.961 . S
C1383 H1399 0.961 . S
C1384 C1385 1.370 . S
C1384 C1386 1.363 . S
C1384 H1400 0.931 . S
C1385 C1384 1.370 . S
C1385 C1389 1.408 . S
C1386 C1384 1.363 . S
C1386 C1387 1.370 . S
C1386 C1390 1.524 . S
C1387 C1379 1.503 . S
C1387 C1386 1.370 . S
C1387 C1388 1.403 . S
C1388 C1387 1.403 . S
C1388 C1389 1.404 . S
C1388 C1391 1.539 . S
C1389 C1385 1.408 . S
C1389 C1388 1.404 . S
C1389 H1401 0.930 . S
C1390 C1386 1.524 . S
C1390 H1402 0.956 . S
C1390 H1403 0.961 . S
C1390 H1404 0.961 . S
C1391 C1388 1.539 . S
C1391 H1405 0.958 . S
C1391 H1406 0.961 . S
C1391 H1407 0.960 . S
H1392 C1376 0.931 . S
H1393 C1381 0.929 . S
H1394 C1382 0.960 . S
H1395 C1382 0.962 . S
H1396 C1382 0.960 . S
H1397 C1383 0.961 . S
H1398 C1383 0.961 . S
H1399 C1383 0.961 . S
H1400 C1384 0.931 . S
H1401 C1389 0.930 . S
H1402 C1390 0.956 . S
H1403 C1390 0.961 . S
H1404 C1390 0.961 . S
H1405 C1391 0.958 . S
H1406 C1391 0.961 . S
H1407 C1391 0.960 . S
C1408 C1409 1.391 . S
C1408 C1410 1.394 . S
C1408 H1424 0.931 . S
C1409 C1408 1.391 . S
C1409 C1413 1.376 . S
C1410 C1408 1.394 . S
C1410 C1411 1.369 . S
C1410 C1414 1.531 . S
C1411 C1410 1.369 . S
C1411 C1412 1.410 . S
C1411 C1419 1.503 . S
C1412 C1411 1.410 . S
C1412 C1413 1.392 . S
C1412 C1415 1.511 . S
C1413 C1409 1.376 . S
C1413 C1412 1.392 . S
C1413 H1425 0.929 . S
C1414 C1410 1.531 . S
C1414 H1426 0.960 . S
C1414 H1427 0.962 . S
C1414 H1428 0.960 . S
C1415 C1412 1.511 . S
C1415 H1429 0.961 . S
C1415 H1430 0.961 . S
C1415 H1431 0.961 . S
C1416 C1417 1.370 . S
C1416 C1418 1.363 . S
C1416 H1432 0.931 . S
C1417 C1416 1.370 . S
C1417 C1421 1.408 . S
C1418 C1416 1.363 . S
C1418 C1419 1.370 . S
C1418 C1422 1.524 . S
C1419 C1411 1.503 . S
C1419 C1418 1.370 . S
C1419 C1420 1.403 . S
C1420 C1419 1.403 . S
C1420 C1421 1.404 . S
C1420 C1423 1.539 . S
C1421 C1417 1.408 . S
C1421 C1420 1.404 . S
C1421 H1433 0.930 . S
C1422 C1418 1.524 . S
C1422 H1434 0.956 . S
C1422 H1435 0.961 . S
C1422 H1436 0.961 . S
C1423 C1420 1.539 . S
C1423 H1437 0.958 . S
C1423 H1438 0.961 . S
C1423 H1439 0.960 . S
H1424 C1408 0.931 . S
H1425 C1413 0.929 . S
H1426 C1414 0.960 . S
H1427 C1414 0.962 . S
H1428 C1414 0.960 . S
H1429 C1415 0.961 . S
H1430 C1415 0.961 . S
H1431 C1415 0.961 . S
H1432 C1416 0.931 . S
H1433 C1421 0.930 . S
H1434 C1422 0.956 . S
H1435 C1422 0.961 . S
H1436 C1422 0.961 . S
H1437 C1423 0.958 . S
H1438 C1423 0.961 . S
H1439 C1423 0.960 . S
C1440 C1441 1.391 . S
C1440 C1442 1.394 . S
C1440 H1456 0.931 . S
C1441 C1440 1.391 . S
C1441 C1445 1.376 . S
C1442 C1440 1.394 . S
C1442 C1443 1.369 . S
C1442 C1446 1.531 . S
C1443 C1442 1.369 . S
C1443 C1444 1.410 . S
C1443 C1451 1.503 . S
C1444 C1443 1.410 . S
C1444 C1445 1.392 . S
C1444 C1447 1.511 . S
C1445 C1441 1.376 . S
C1445 C1444 1.392 . S
C1445 H1457 0.929 . S
C1446 C1442 1.531 . S
C1446 H1458 0.960 . S
C1446 H1459 0.962 . S
C1446 H1460 0.960 . S
C1447 C1444 1.511 . S
C1447 H1461 0.961 . S
C1447 H1462 0.961 . S
C1447 H1463 0.961 . S
C1448 C1449 1.370 . S
C1448 C1450 1.363 . S
C1448 H1464 0.931 . S
C1449 C1448 1.370 . S
C1449 C1453 1.408 . S
C1450 C1448 1.363 . S
C1450 C1451 1.370 . S
C1450 C1454 1.524 . S
C1451 C1443 1.503 . S
C1451 C1450 1.370 . S
C1451 C1452 1.403 . S
C1452 C1451 1.403 . S
C1452 C1453 1.404 . S
C1452 C1455 1.539 . S
C1453 C1449 1.408 . S
C1453 C1452 1.404 . S
C1453 H1465 0.930 . S
C1454 C1450 1.524 . S
C1454 H1466 0.956 . S
C1454 H1467 0.961 . S
C1454 H1468 0.961 . S
C1455 C1452 1.539 . S
C1455 H1469 0.958 . S
C1455 H1470 0.961 . S
C1455 H1471 0.960 . S
H1456 C1440 0.931 . S
H1457 C1445 0.929 . S
H1458 C1446 0.960 . S
H1459 C1446 0.962 . S
H1460 C1446 0.960 . S
H1461 C1447 0.961 . S
H1462 C1447 0.961 . S
H1463 C1447 0.961 . S
H1464 C1448 0.931 . S
H1465 C1453 0.930 . S
H1466 C1454 0.956 . S
H1467 C1454 0.961 . S
H1468 C1454 0.961 . S
H1469 C1455 0.958 . S
H1470 C1455 0.961 . S
H1471 C1455 0.960 . S
C1472 C1473 1.391 . S
C1472 C1474 1.394 . S
C1472 H1488 0.931 . S
C1473 C1472 1.391 . S
C1473 C1477 1.376 . S
C1474 C1472 1.394 . S
C1474 C1475 1.369 . S
C1474 C1478 1.531 . S
C1475 C1474 1.369 . S
C1475 C1476 1.410 . S
C1475 C1483 1.503 . S
C1476 C1475 1.410 . S
C1476 C1477 1.392 . S
C1476 C1479 1.511 . S
C1477 C1473 1.376 . S
C1477 C1476 1.392 . S
C1477 H1489 0.929 . S
C1478 C1474 1.531 . S
C1478 H1490 0.960 . S
C1478 H1491 0.962 . S
C1478 H1492 0.960 . S
C1479 C1476 1.511 . S
C1479 H1493 0.961 . S
C1479 H1494 0.961 . S
C1479 H1495 0.961 . S
C1480 C1481 1.370 . S
C1480 C1482 1.363 . S
C1480 H1496 0.931 . S
C1481 C1480 1.370 . S
C1481 C1485 1.408 . S
C1482 C1480 1.363 . S
C1482 C1483 1.370 . S
C1482 C1486 1.524 . S
C1483 C1475 1.503 . S
C1483 C1482 1.370 . S
C1483 C1484 1.403 . S
C1484 C1483 1.403 . S
C1484 C1485 1.404 . S
C1484 C1487 1.539 . S
C1485 C1481 1.408 . S
C1485 C1484 1.404 . S
C1485 H1497 0.930 . S
C1486 C1482 1.524 . S
C1486 H1498 0.956 . S
C1486 H1499 0.961 . S
C1486 H1500 0.961 . S
C1487 C1484 1.539 . S
C1487 H1501 0.958 . S
C1487 H1502 0.961 . S
C1487 H1503 0.960 . S
H1488 C1472 0.931 . S
H1489 C1477 0.929 . S
H1490 C1478 0.960 . S
H1491 C1478 0.962 . S
H1492 C1478 0.960 . S
H1493 C1479 0.961 . S
H1494 C1479 0.961 . S
H1495 C1479 0.961 . S
H1496 C1480 0.931 . S
H1497 C1485 0.930 . S
H1498 C1486 0.956 . S
H1499 C1486 0.961 . S
H1500 C1486 0.961 . S
H1501 C1487 0.958 . S
H1502 C1487 0.961 . S
H1503 C1487 0.960 . S
C1504 C1505 1.391 . S
C1504 C1506 1.394 . S
C1504 H1520 0.931 . S
C1505 C1504 1.391 . S
C1505 C1509 1.376 . S
C1506 C1504 1.394 . S
C1506 C1507 1.369 . S
C1506 C1510 1.531 . S
C1507 C1506 1.369 . S
C1507 C1508 1.410 . S
C1507 C1515 1.503 . S
C1508 C1507 1.410 . S
C1508 C1509 1.392 . S
C1508 C1511 1.511 . S
C1509 C1505 1.376 . S
C1509 C1508 1.392 . S
C1509 H1521 0.929 . S
C1510 C1506 1.531 . S
C1510 H1522 0.960 . S
C1510 H1523 0.962 . S
C1510 H1524 0.960 . S
C1511 C1508 1.511 . S
C1511 H1525 0.961 . S
C1511 H1526 0.961 . S
C1511 H1527 0.961 . S
C1512 C1513 1.370 . S
C1512 C1514 1.363 . S
C1512 H1528 0.931 . S
C1513 C1512 1.370 . S
C1513 C1517 1.408 . S
C1514 C1512 1.363 . S
C1514 C1515 1.370 . S
C1514 C1518 1.524 . S
C1515 C1507 1.503 . S
C1515 C1514 1.370 . S
C1515 C1516 1.403 . S
C1516 C1515 1.403 . S
C1516 C1517 1.404 . S
C1516 C1519 1.539 . S
C1517 C1513 1.408 . S
C1517 C1516 1.404 . S
C1517 H1529 0.930 . S
C1518 C1514 1.524 . S
C1518 H1530 0.956 . S
C1518 H1531 0.961 . S
C1518 H1532 0.961 . S
C1519 C1516 1.539 . S
C1519 H1533 0.958 . S
C1519 H1534 0.961 . S
C1519 H1535 0.960 . S
H1520 C1504 0.931 . S
H1521 C1509 0.929 . S
H1522 C1510 0.960 . S
H1523 C1510 0.962 . S
H1524 C1510 0.960 . S
H1525 C1511 0.961 . S
H1526 C1511 0.961 . S
H1527 C1511 0.961 . S
H1528 C1512 0.931 . S
H1529 C1517 0.930 . S
H1530 C1518 0.956 . S
H1531 C1518 0.961 . S
H1532 C1518 0.961 . S
H1533 C1519 0.958 . S
H1534 C1519 0.961 . S
H1535 C1519 0.960 . S
C1536 C1537 1.391 . S
C1536 C1538 1.394 . S
C1536 H1552 0.931 . S
C1537 C1536 1.391 . S
C1537 C1541 1.376 . S
C1538 C1536 1.394 . S
C1538 C1539 1.369 . S
C1538 C1542 1.531 . S
C1539 C1538 1.369 . S
C1539 C1540 1.410 . S
C1539 C1547 1.503 . S
C1540 C1539 1.410 . S
C1540 C1541 1.392 . S
C1540 C1543 1.511 . S
C1541 C1537 1.376 . S
C1541 C1540 1.392 . S
C1541 H1553 0.929 . S
C1542 C1538 1.531 . S
C1542 H1554 0.960 . S
C1542 H1555 0.962 . S
C1542 H1556 0.960 . S
C1543 C1540 1.511 . S
C1543 H1557 0.961 . S
C1543 H1558 0.961 . S
C1543 H1559 0.961 . S
C1544 C1545 1.370 . S
C1544 C1546 1.363 . S
C1544 H1560 0.931 . S
C1545 C1544 1.370 . S
C1545 C1549 1.408 . S
C1546 C1544 1.363 . S
C1546 C1547 1.370 . S
C1546 C1550 1.524 . S
C1547 C1539 1.503 . S
C1547 C1546 1.370 . S
C1547 C1548 1.403 . S
C1548 C1547 1.403 . S
C1548 C1549 1.404 . S
C1548 C1551 1.539 . S
C1549 C1545 1.408 . S
C1549 C1548 1.404 . S
C1549 H1561 0.930 . S
C1550 C1546 1.524 . S
C1550 H1562 0.956 . S
C1550 H1563 0.961 . S
C1550 H1564 0.961 . S
C1551 C1548 1.539 . S
C1551 H1565 0.958 . S
C1551 H1566 0.961 . S
C1551 H1567 0.960 . S
H1552 C1536 0.931 . S
H1553 C1541 0.929 . S
H1554 C1542 0.960 . S
H1555 C1542 0.962 . S
H1556 C1542 0.960 . S
H1557 C1543 0.961 . S
H1558 C1543 0.961 . S
H1559 C1543 0.961 . S
H1560 C1544 0.931 . S
H1561 C1549 0.930 . S
H1562 C1550 0.956 . S
H1563 C1550 0.961 . S
H1564 C1550 0.961 . S
H1565 C1551 0.958 . S
H1566 C1551 0.961 . S
H1567 C1551 0.960 . S
C1568 C1569 1.391 . S
C1568 C1570 1.394 . S
C1568 H1584 0.931 . S
C1569 C1568 1.391 . S
C1569 C1573 1.376 . S
C1570 C1568 1.394 . S
C1570 C1571 1.369 . S
C1570 C1574 1.531 . S
C1571 C1570 1.369 . S
C1571 C1572 1.410 . S
C1571 C1579 1.503 . S
C1572 C1571 1.410 . S
C1572 C1573 1.392 . S
C1572 C1575 1.511 . S
C1573 C1569 1.376 . S
C1573 C1572 1.392 . S
C1573 H1585 0.929 . S
C1574 C1570 1.531 . S
C1574 H1586 0.960 . S
C1574 H1587 0.962 . S
C1574 H1588 0.960 . S
C1575 C1572 1.511 . S
C1575 H1589 0.961 . S
C1575 H1590 0.961 . S
C1575 H1591 0.961 . S
C1576 C1577 1.370 . S
C1576 C1578 1.363 . S
C1576 H1592 0.931 . S
C1577 C1576 1.370 . S
C1577 C1581 1.408 . S
C1578 C1576 1.363 . S
C1578 C1579 1.370 . S
C1578 C1582 1.524 . S
C1579 C1571 1.503 . S
C1579 C1578 1.370 . S
C1579 C1580 1.403 . S
C1580 C1579 1.403 . S
C1580 C1581 1.404 . S
C1580 C1583 1.539 . S
C1581 C1577 1.408 . S
C1581 C1580 1.404 . S
C1581 H1593 0.930 . S
C1582 C1578 1.524 . S
C1582 H1594 0.956 . S
C1582 H1595 0.961 . S
C1582 H1596 0.961 . S
C1583 C1580 1.539 . S
C1583 H1597 0.958 . S
C1583 H1598 0.961 . S
C1583 H1599 0.960 . S
H1584 C1568 0.931 . S
H1585 C1573 0.929 . S
H1586 C1574 0.960 . S
H1587 C1574 0.962 . S
H1588 C1574 0.960 . S
H1589 C1575 0.961 . S
H1590 C1575 0.961 . S
H1591 C1575 0.961 . S
H1592 C1576 0.931 . S
H1593 C1581 0.930 . S
H1594 C1582 0.956 . S
H1595 C1582 0.961 . S
H1596 C1582 0.961 . S
H1597 C1583 0.958 . S
H1598 C1583 0.961 . S
H1599 C1583 0.960 . S
C1600 C1601 1.391 . S
C1600 C1602 1.394 . S
C1600 H1616 0.931 . S
C1601 C1600 1.391 . S
C1601 C1605 1.376 . S
C1602 C1600 1.394 . S
C1602 C1603 1.369 . S
C1602 C1606 1.531 . S
C1603 C1602 1.369 . S
C1603 C1604 1.410 . S
C1603 C1611 1.503 . S
C1604 C1603 1.410 . S
C1604 C1605 1.392 . S
C1604 C1607 1.511 . S
C1605 C1601 1.376 . S
C1605 C1604 1.392 . S
C1605 H1617 0.929 . S
C1606 C1602 1.531 . S
C1606 H1618 0.960 . S
C1606 H1619 0.962 . S
C1606 H1620 0.960 . S
C1607 C1604 1.511 . S
C1607 H1621 0.961 . S
C1607 H1622 0.961 . S
C1607 H1623 0.961 . S
C1608 C1609 1.370 . S
C1608 C1610 1.363 . S
C1608 H1624 0.931 . S
C1609 C1608 1.370 . S
C1609 C1613 1.408 . S
C1610 C1608 1.363 . S
C1610 C1611 1.370 . S
C1610 C1614 1.524 . S
C1611 C1603 1.503 . S
C1611 C1610 1.370 . S
C1611 C1612 1.403 . S
C1612 C1611 1.403 . S
C1612 C1613 1.404 . S
C1612 C1615 1.539 . S
C1613 C1609 1.408 . S
C1613 C1612 1.404 . S
C1613 H1625 0.930 . S
C1614 C1610 1.524 . S
C1614 H1626 0.956 . S
C1614 H1627 0.961 . S
C1614 H1628 0.961 . S
C1615 C1612 1.539 . S
C1615 H1629 0.958 . S
C1615 H1630 0.961 . S
C1615 H1631 0.960 . S
H1616 C1600 0.931 . S
H1617 C1605 0.929 . S
H1618 C1606 0.960 . S
H1619 C1606 0.962 . S
H1620 C1606 0.960 . S
H1621 C1607 0.961 . S
H1622 C1607 0.961 . S
H1623 C1607 0.961 . S
H1624 C1608 0.931 . S
H1625 C1613 0.930 . S
H1626 C1614 0.956 . S
H1627 C1614 0.961 . S
H1628 C1614 0.961 . S
H1629 C1615 0.958 . S
H1630 C1615 0.961 . S
H1631 C1615 0.960 . S
C1632 C1633 1.391 . S
C1632 C1634 1.394 . S
C1632 H1648 0.931 . S
C1633 C1632 1.391 . S
C1633 C1637 1.376 . S
C1634 C1632 1.394 . S
C1634 C1635 1.369 . S
C1634 C1638 1.531 . S
C1635 C1634 1.369 . S
C1635 C1636 1.410 . S
C1635 C1643 1.503 . S
C1636 C1635 1.410 . S
C1636 C1637 1.392 . S
C1636 C1639 1.511 . S
C1637 C1633 1.376 . S
C1637 C1636 1.392 . S
C1637 H1649 0.929 . S
C1638 C1634 1.531 . S
C1638 H1650 0.960 . S
C1638 H1651 0.962 . S
C1638 H1652 0.960 . S
C1639 C1636 1.511 . S
C1639 H1653 0.961 . S
C1639 H1654 0.961 . S
C1639 H1655 0.961 . S
C1640 C1641 1.370 . S
C1640 C1642 1.363 . S
C1640 H1656 0.931 . S
C1641 C1640 1.370 . S
C1641 C1645 1.408 . S
C1642 C1640 1.363 . S
C1642 C1643 1.370 . S
C1642 C1646 1.524 . S
C1643 C1635 1.503 . S
C1643 C1642 1.370 . S
C1643 C1644 1.403 . S
C1644 C1643 1.403 . S
C1644 C1645 1.404 . S
C1644 C1647 1.539 . S
C1645 C1641 1.408 . S
C1645 C1644 1.404 . S
C1645 H1657 0.930 . S
C1646 C1642 1.524 . S
C1646 H1658 0.956 . S
C1646 H1659 0.961 . S
C1646 H1660 0.961 . S
C1647 C1644 1.539 . S
C1647 H1661 0.958 . S
C1647 H1662 0.961 . S
C1647 H1663 0.960 . S
H1648 C1632 0.931 . S
H1649 C1637 0.929 . S
H1650 C1638 0.960 . S
H1651 C1638 0.962 . S
H1652 C1638 0.960 . S
H1653 C1639 0.961 . S
H1654 C1639 0.961 . S
H1655 C1639 0.961 . S
H1656 C1640 0.931 . S
H1657 C1645 0.930 . S
H1658 C1646 0.956 . S
H1659 C1646 0.961 . S
H1660 C1646 0.961 . S
H1661 C1647 0.958 . S
H1662 C1647 0.961 . S
H1663 C1647 0.960 . S
C1664 C1665 1.391 . S
C1664 C1666 1.394 . S
C1664 H1680 0.931 . S
C1665 C1664 1.391 . S
C1665 C1669 1.376 . S
C1666 C1664 1.394 . S
C1666 C1667 1.369 . S
C1666 C1670 1.531 . S
C1667 C1666 1.369 . S
C1667 C1668 1.410 . S
C1667 C1675 1.503 . S
C1668 C1667 1.410 . S
C1668 C1669 1.392 . S
C1668 C1671 1.511 . S
C1669 C1665 1.376 . S
C1669 C1668 1.392 . S
C1669 H1681 0.929 . S
C1670 C1666 1.531 . S
C1670 H1682 0.960 . S
C1670 H1683 0.962 . S
C1670 H1684 0.960 . S
C1671 C1668 1.511 . S
C1671 H1685 0.961 . S
C1671 H1686 0.961 . S
C1671 H1687 0.961 . S
C1672 C1673 1.370 . S
C1672 C1674 1.363 . S
C1672 H1688 0.931 . S
C1673 C1672 1.370 . S
C1673 C1677 1.408 . S
C1674 C1672 1.363 . S
C1674 C1675 1.370 . S
C1674 C1678 1.524 . S
C1675 C1667 1.503 . S
C1675 C1674 1.370 . S
C1675 C1676 1.403 . S
C1676 C1675 1.403 . S
C1676 C1677 1.404 . S
C1676 C1679 1.539 . S
C1677 C1673 1.408 . S
C1677 C1676 1.404 . S
C1677 H1689 0.930 . S
C1678 C1674 1.524 . S
C1678 H1690 0.956 . S
C1678 H1691 0.961 . S
C1678 H1692 0.961 . S
C1679 C1676 1.539 . S
C1679 H1693 0.958 . S
C1679 H1694 0.961 . S
C1679 H1695 0.960 . S
H1680 C1664 0.931 . S
H1681 C1669 0.929 . S
H1682 C1670 0.960 . S
H1683 C1670 0.962 . S
H1684 C1670 0.960 . S
H1685 C1671 0.961 . S
H1686 C1671 0.961 . S
H1687 C1671 0.961 . S
H1688 C1672 0.931 . S
H1689 C1677 0.930 . S
H1690 C1678 0.956 . S
H1691 C1678 0.961 . S
H1692 C1678 0.961 . S
H1693 C1679 0.958 . S
H1694 C1679 0.961 . S
H1695 C1679 0.960 . S
C1696 C1697 1.391 . S
C1696 C1698 1.394 . S
C1696 H1712 0.931 . S
C1697 C1696 1.391 . S
C1697 C1701 1.376 . S
C1698 C1696 1.394 . S
C1698 C1699 1.369 . S
C1698 C1702 1.531 . S
C1699 C1698 1.369 . S
C1699 C1700 1.410 . S
C1699 C1707 1.503 . S
C1700 C1699 1.410 . S
C1700 C1701 1.392 . S
C1700 C1703 1.511 . S
C1701 C1697 1.376 . S
C1701 C1700 1.392 . S
C1701 H1713 0.929 . S
C1702 C1698 1.531 . S
C1702 H1714 0.960 . S
C1702 H1715 0.962 . S
C1702 H1716 0.960 . S
C1703 C1700 1.511 . S
C1703 H1717 0.961 . S
C1703 H1718 0.961 . S
C1703 H1719 0.961 . S
C1704 C1705 1.370 . S
C1704 C1706 1.363 . S
C1704 H1720 0.931 . S
C1705 C1704 1.370 . S
C1705 C1709 1.408 . S
C1706 C1704 1.363 . S
C1706 C1707 1.370 . S
C1706 C1710 1.524 . S
C1707 C1699 1.503 . S
C1707 C1706 1.370 . S
C1707 C1708 1.403 . S
C1708 C1707 1.403 . S
C1708 C1709 1.404 . S
C1708 C1711 1.539 . S
C1709 C1705 1.408 . S
C1709 C1708 1.404 . S
C1709 H1721 0.930 . S
C1710 C1706 1.524 . S
C1710 H1722 0.956 . S
C1710 H1723 0.961 . S
C1710 H1724 0.961 . S
C1711 C1708 1.539 . S
C1711 H1725 0.958 . S
C1711 H1726 0.961 . S
C1711 H1727 0.960 . S
H1712 C1696 0.931 . S
H1713 C1701 0.929 . S
H1714 C1702 0.960 . S
H1715 C1702 0.962 . S
H1716 C1702 0.960 . S
H1717 C1703 0.961 . S
H1718 C1703 0.961 . S
H1719 C1703 0.961 . S
H1720 C1704 0.931 . S
H1721 C1709 0.930 . S
H1722 C1710 0.956 . S
H1723 C1710 0.961 . S
H1724 C1710 0.961 . S
H1725 C1711 0.958 . S
H1726 C1711 0.961 . S
H1727 C1711 0.960 . S
C1728 C1729 1.391 . S
C1728 C1730 1.394 . S
C1728 H1744 0.931 . S
C1729 C1728 1.391 . S
C1729 C1733 1.376 . S
C1730 C1728 1.394 . S
C1730 C1731 1.369 . S
C1730 C1734 1.531 . S
C1731 C1730 1.369 . S
C1731 C1732 1.410 . S
C1731 C1739 1.503 . S
C1732 C1731 1.410 . S
C1732 C1733 1.392 . S
C1732 C1735 1.511 . S
C1733 C1729 1.376 . S
C1733 C1732 1.392 . S
C1733 H1745 0.929 . S
C1734 C1730 1.531 . S
C1734 H1746 0.960 . S
C1734 H1747 0.962 . S
C1734 H1748 0.960 . S
C1735 C1732 1.511 . S
C1735 H1749 0.961 . S
C1735 H1750 0.961 . S
C1735 H1751 0.961 . S
C1736 C1737 1.370 . S
C1736 C1738 1.363 . S
C1736 H1752 0.931 . S
C1737 C1736 1.370 . S
C1737 C1741 1.408 . S
C1738 C1736 1.363 . S
C1738 C1739 1.370 . S
C1738 C1742 1.524 . S
C1739 C1731 1.503 . S
C1739 C1738 1.370 . S
C1739 C1740 1.403 . S
C1740 C1739 1.403 . S
C1740 C1741 1.404 . S
C1740 C1743 1.539 . S
C1741 C1737 1.408 . S
C1741 C1740 1.404 . S
C1741 H1753 0.930 . S
C1742 C1738 1.524 . S
C1742 H1754 0.956 . S
C1742 H1755 0.961 . S
C1742 H1756 0.961 . S
C1743 C1740 1.539 . S
C1743 H1757 0.958 . S
C1743 H1758 0.961 . S
C1743 H1759 0.960 . S
H1744 C1728 0.931 . S
H1745 C1733 0.929 . S
H1746 C1734 0.960 . S
H1747 C1734 0.962 . S
H1748 C1734 0.960 . S
H1749 C1735 0.961 . S
H1750 C1735 0.961 . S
H1751 C1735 0.961 . S
H1752 C1736 0.931 . S
H1753 C1741 0.930 . S
H1754 C1742 0.956 . S
H1755 C1742 0.961 . S
H1756 C1742 0.961 . S
H1757 C1743 0.958 . S
H1758 C1743 0.961 . S
H1759 C1743 0.960 . S
C1760 C1761 1.391 . S
C1760 C1762 1.394 . S
C1760 H1776 0.931 . S
C1761 C1760 1.391 . S
C1761 C1765 1.376 . S
C1762 C1760 1.394 . S
C1762 C1763 1.369 . S
C1762 C1766 1.531 . S
C1763 C1762 1.369 . S
C1763 C1764 1.410 . S
C1763 C1771 1.503 . S
C1764 C1763 1.410 . S
C1764 C1765 1.392 . S
C1764 C1767 1.511 . S
C1765 C1761 1.376 . S
C1765 C1764 1.392 . S
C1765 H1777 0.929 . S
C1766 C1762 1.531 . S
C1766 H1778 0.960 . S
C1766 H1779 0.962 . S
C1766 H1780 0.960 . S
C1767 C1764 1.511 . S
C1767 H1781 0.961 . S
C1767 H1782 0.961 . S
C1767 H1783 0.961 . S
C1768 C1769 1.370 . S
C1768 C1770 1.363 . S
C1768 H1784 0.931 . S
C1769 C1768 1.370 . S
C1769 C1773 1.408 . S
C1770 C1768 1.363 . S
C1770 C1771 1.370 . S
C1770 C1774 1.524 . S
C1771 C1763 1.503 . S
C1771 C1770 1.370 . S
C1771 C1772 1.403 . S
C1772 C1771 1.403 . S
C1772 C1773 1.404 . S
C1772 C1775 1.539 . S
C1773 C1769 1.408 . S
C1773 C1772 1.404 . S
C1773 H1785 0.930 . S
C1774 C1770 1.524 . S
C1774 H1786 0.956 . S
C1774 H1787 0.961 . S
C1774 H1788 0.961 . S
C1775 C1772 1.539 . S
C1775 H1789 0.958 . S
C1775 H1790 0.961 . S
C1775 H1791 0.960 . S
H1776 C1760 0.931 . S
H1777 C1765 0.929 . S
H1778 C1766 0.960 . S
H1779 C1766 0.962 . S
H1780 C1766 0.960 . S
H1781 C1767 0.961 . S
H1782 C1767 0.961 . S
H1783 C1767 0.961 . S
H1784 C1768 0.931 . S
H1785 C1773 0.930 . S
H1786 C1774 0.956 . S
H1787 C1774 0.961 . S
H1788 C1774 0.961 . S
H1789 C1775 0.958 . S
H1790 C1775 0.961 . S
H1791 C1775 0.960 . S
C1792 C1793 1.391 . S
C1792 C1794 1.394 . S
C1792 H1808 0.931 . S
C1793 C1792 1.391 . S
C1793 C1797 1.376 1_565 S
C1794 C1792 1.394 . S
C1794 C1795 1.369 . S
C1794 C1798 1.531 . S
C1795 C1794 1.369 . S
C1795 C1796 1.410 1_565 S
C1795 C1803 1.503 . S
C1796 C1795 1.410 1_545 S
C1796 C1797 1.392 . S
C1796 C1799 1.511 . S
C1797 C1793 1.376 1_545 S
C1797 C1796 1.392 . S
C1797 H1809 0.929 . S
C1798 C1794 1.531 . S
C1798 H1810 0.960 . S
C1798 H1811 0.962 . S
C1798 H1812 0.960 . S
C1799 C1796 1.511 . S
C1799 H1813 0.961 . S
C1799 H1814 0.961 . S
C1799 H1815 0.961 . S
C1800 C1801 1.367 1_545 S
C1800 C1802 1.363 . S
C1800 H1816 0.931 . S
C1801 C1800 1.367 1_565 S
C1801 C1805 1.412 . S
C1802 C1800 1.363 . S
C1802 C1803 1.370 1_545 S
C1802 C1806 1.524 . S
C1803 C1795 1.503 . S
C1803 C1802 1.370 1_565 S
C1803 C1804 1.403 . S
C1804 C1803 1.403 . S
C1804 C1805 1.404 . S
C1804 C1807 1.539 . S
C1805 C1801 1.412 . S
C1805 C1804 1.404 . S
C1805 H1817 0.930 . S
C1806 C1802 1.524 . S
C1806 H1818 0.956 . S
C1806 H1819 0.961 . S
C1806 H1820 0.961 . S
C1807 C1804 1.539 . S
C1807 H1821 0.958 . S
C1807 H1822 0.961 . S
C1807 H1823 0.960 . S
H1808 C1792 0.931 . S
H1809 C1797 0.929 . S
H1810 C1798 0.960 . S
H1811 C1798 0.962 . S
H1812 C1798 0.960 . S
H1813 C1799 0.961 . S
H1814 C1799 0.961 . S
H1815 C1799 0.961 . S
H1816 C1800 0.931 . S
H1817 C1805 0.930 . S
H1818 C1806 0.956 . S
H1819 C1806 0.961 . S
H1820 C1806 0.961 . S
H1821 C1807 0.958 . S
H1822 C1807 0.961 . S
H1823 C1807 0.960 . S
C1824 C1825 1.391 . S
C1824 C1826 1.394 . S
C1824 H1840 0.931 . S
C1825 C1824 1.391 . S
C1825 C1829 1.376 . S
C1826 C1824 1.394 . S
C1826 C1827 1.369 . S
C1826 C1830 1.531 . S
C1827 C1826 1.369 . S
C1827 C1828 1.410 . S
C1827 C1835 1.503 1_455 S
C1828 C1827 1.410 . S
C1828 C1829 1.392 . S
C1828 C1831 1.511 1_455 S
C1829 C1825 1.376 . S
C1829 C1828 1.392 . S
C1829 H1841 0.929 . S
C1830 C1826 1.531 . S
C1830 H1842 0.960 . S
C1830 H1843 0.962 . S
C1830 H1844 0.960 . S
C1831 C1828 1.511 1_655 S
C1831 H1845 0.961 . S
C1831 H1846 0.961 . S
C1831 H1847 0.961 . S
C1832 C1833 1.370 . S
C1832 C1834 1.363 . S
C1832 H1848 0.931 . S
C1833 C1832 1.370 . S
C1833 C1837 1.408 . S
C1834 C1832 1.363 . S
C1834 C1835 1.370 . S
C1834 C1838 1.524 1_655 S
C1835 C1827 1.503 1_655 S
C1835 C1834 1.370 . S
C1835 C1836 1.403 . S
C1836 C1835 1.403 . S
C1836 C1837 1.404 . S
C1836 C1839 1.539 . S
C1837 C1833 1.408 . S
C1837 C1836 1.404 . S
C1837 H1849 0.930 . S
C1838 C1834 1.524 1_455 S
C1838 H1850 0.956 . S
C1838 H1851 0.961 . S
C1838 H1852 0.961 . S
C1839 C1836 1.539 . S
C1839 H1853 0.958 . S
C1839 H1854 0.961 . S
C1839 H1855 0.960 . S
H1840 C1824 0.931 . S
H1841 C1829 0.929 . S
H1842 C1830 0.960 . S
H1843 C1830 0.962 . S
H1844 C1830 0.960 . S
H1845 C1831 0.961 . S
H1846 C1831 0.961 . S
H1847 C1831 0.961 . S
H1848 C1832 0.931 . S
H1849 C1837 0.930 . S
H1850 C1838 0.956 . S
H1851 C1838 0.961 . S
H1852 C1838 0.961 . S
H1853 C1839 0.958 . S
H1854 C1839 0.961 . S
H1855 C1839 0.960 . S
C1856 C1857 1.391 . S
C1856 C1858 1.394 . S
C1856 H1872 0.931 . S
C1857 C1856 1.391 . S
C1857 C1861 1.376 . S
C1858 C1856 1.394 . S
C1858 C1859 1.369 . S
C1858 C1862 1.531 1_556 S
C1859 C1858 1.369 . S
C1859 C1860 1.410 . S
C1859 C1867 1.503 1_556 S
C1860 C1859 1.410 . S
C1860 C1861 1.392 . S
C1860 C1863 1.511 . S
C1861 C1857 1.376 . S
C1861 C1860 1.392 . S
C1861 H1873 0.929 . S
C1862 C1858 1.531 1_554 S
C1862 H1874 0.960 . S
C1862 H1875 0.962 . S
C1862 H1876 0.960 . S
C1863 C1860 1.511 . S
C1863 H1877 0.961 . S
C1863 H1878 0.961 . S
C1863 H1879 0.961 . S
C1864 C1865 1.370 . S
C1864 C1866 1.363 . S
C1864 H1880 0.931 . S
C1865 C1864 1.370 . S
C1865 C1869 1.408 . S
C1866 C1864 1.363 . S
C1866 C1867 1.370 . S
C1866 C1870 1.524 . S
C1867 C1859 1.503 1_554 S
C1867 C1866 1.370 . S
C1867 C1868 1.403 . S
C1868 C1867 1.403 . S
C1868 C1869 1.404 . S
C1868 C1871 1.539 1_554 S
C1869 C1865 1.408 . S
C1869 C1868 1.404 . S
C1869 H1881 0.930 . S
C1870 C1866 1.524 . S
C1870 H1882 0.956 . S
C1870 H1883 0.961 . S
C1870 H1884 0.961 . S
C1871 C1868 1.539 1_556 S
C1871 H1885 0.958 . S
C1871 H1886 0.961 . S
C1871 H1887 0.960 . S
H1872 C1856 0.931 . S
H1873 C1861 0.929 . S
H1874 C1862 0.960 . S
H1875 C1862 0.962 . S
H1876 C1862 0.960 . S
H1877 C1863 0.961 . S
H1878 C1863 0.961 . S
H1879 C1863 0.961 . S
H1880 C1864 0.931 . S
H1881 C1869 0.930 . S
H1882 C1870 0.956 . S
H1883 C1870 0.961 . S
H1884 C1870 0.961 . S
H1885 C1871 0.958 . S
H1886 C1871 0.961 . S
H1887 C1871 0.960 . S
C1888 C1889 1.391 1_545 S
C1888 C1890 1.394 . S
C1888 H1904 0.931 . S
C1889 C1888 1.391 1_565 S
C1889 C1893 1.376 . S
C1890 C1888 1.394 . S
C1890 C1891 1.369 1_545 S
C1890 C1894 1.531 1_655 S
C1891 C1890 1.369 1_565 S
C1891 C1892 1.410 . S
C1891 C1899 1.503 1_654 S
C1892 C1891 1.410 . S
C1892 C1893 1.392 . S
C1892 C1895 1.513 1_554 S
C1893 C1889 1.376 . S
C1893 C1892 1.392 . S
C1893 H1905 0.929 . S
C1894 C1890 1.531 1_455 S
C1894 H1906 0.960 . S
C1894 H1907 0.962 . S
C1894 H1908 0.960 . S
C1895 C1892 1.513 1_556 S
C1895 H1909 0.960 . S
C1895 H1910 0.958 . S
C1895 H1911 0.962 1_556 S
C1896 C1897 1.365 1_545 S
C1896 C1898 1.363 . S
C1896 H1912 0.931 . S
C1897 C1896 1.365 1_565 S
C1897 C1901 1.413 . S
C1898 C1896 1.363 . S
C1898 C1899 1.370 1_545 S
C1898 C1902 1.524 1_455 S
C1899 C1891 1.503 1_456 S
C1899 C1898 1.370 1_565 S
C1899 C1900 1.403 . S
C1900 C1899 1.403 . S
C1900 C1901 1.404 . S
C1900 C1903 1.539 1_556 S
C1901 C1897 1.413 . S
C1901 C1900 1.404 . S
C1901 H1913 0.930 . S
C1902 C1898 1.524 1_655 S
C1902 H1914 0.956 . S
C1902 H1915 0.961 . S
C1902 H1916 0.961 . S
C1903 C1900 1.539 1_554 S
C1903 H1917 0.958 . S
C1903 H1918 0.961 . S
C1903 H1919 0.960 . S
H1904 C1888 0.931 . S
H1905 C1893 0.929 . S
H1906 C1894 0.960 . S
H1907 C1894 0.962 . S
H1908 C1894 0.960 . S
H1909 C1895 0.960 . S
H1910 C1895 0.958 . S
H1911 C1895 0.962 1_554 S
H1912 C1896 0.931 . S
H1913 C1901 0.930 . S
H1914 C1902 0.956 . S
H1915 C1902 0.961 . S
H1916 C1902 0.961 . S
H1917 C1903 0.958 . S
H1918 C1903 0.961 . S
H1919 C1903 0.960 . S
C1920 C1921 1.391 . S
C1920 C1922 1.394 . S
C1920 H1936 0.931 . S
C1921 C1920 1.391 . S
C1921 C1925 1.376 1_545 S
C1922 C1920 1.394 . S
C1922 C1923 1.369 . S
C1922 C1926 1.531 . S
C1923 C1922 1.369 . S
C1923 C1924 1.410 1_545 S
C1923 C1931 1.503 . S
C1924 C1923 1.410 1_565 S
C1924 C1925 1.392 . S
C1924 C1927 1.511 . S
C1925 C1921 1.376 1_565 S
C1925 C1924 1.392 . S
C1925 H1937 0.929 . S
C1926 C1922 1.531 . S
C1926 H1938 0.960 . S
C1926 H1939 0.962 . S
C1926 H1940 0.960 . S
C1927 C1924 1.511 . S
C1927 H1941 0.961 . S
C1927 H1942 0.961 . S
C1927 H1943 0.961 . S
C1928 C1929 1.367 1_565 S
C1928 C1930 1.363 . S
C1928 H1944 0.931 . S
C1929 C1928 1.367 1_545 S
C1929 C1933 1.412 . S
C1930 C1928 1.363 . S
C1930 C1931 1.370 1_565 S
C1930 C1934 1.524 . S
C1931 C1923 1.503 . S
C1931 C1930 1.370 1_545 S
C1931 C1932 1.403 . S
C1932 C1931 1.403 . S
C1932 C1933 1.404 . S
C1932 C1935 1.539 . S
C1933 C1929 1.412 . S
C1933 C1932 1.404 . S
C1933 H1945 0.930 . S
C1934 C1930 1.524 . S
C1934 H1946 0.956 . S
C1934 H1947 0.961 . S
C1934 H1948 0.961 . S
C1935 C1932 1.539 . S
C1935 H1949 0.958 . S
C1935 H1950 0.961 . S
C1935 H1951 0.960 . S
H1936 C1920 0.931 . S
H1937 C1925 0.929 . S
H1938 C1926 0.960 . S
H1939 C1926 0.962 . S
H1940 C1926 0.960 . S
H1941 C1927 0.961 . S
H1942 C1927 0.961 . S
H1943 C1927 0.961 . S
H1944 C1928 0.931 . S
H1945 C1933 0.930 . S
H1946 C1934 0.956 . S
H1947 C1934 0.961 . S
H1948 C1934 0.961 . S
H1949 C1935 0.958 . S
H1950 C1935 0.961 . S
H1951 C1935 0.960 . S
C1952 C1953 1.391 . S
C1952 C1954 1.394 . S
C1952 H1968 0.931 . S
C1953 C1952 1.391 . S
C1953 C1957 1.376 . S
C1954 C1952 1.394 . S
C1954 C1955 1.369 . S
C1954 C1958 1.531 . S
C1955 C1954 1.369 . S
C1955 C1956 1.410 . S
C1955 C1963 1.503 1_455 S
C1956 C1955 1.410 . S
C1956 C1957 1.392 . S
C1956 C1959 1.511 1_455 S
C1957 C1953 1.376 . S
C1957 C1956 1.392 . S
C1957 H1969 0.929 . S
C1958 C1954 1.531 . S
C1958 H1970 0.960 . S
C1958 H1971 0.962 . S
C1958 H1972 0.960 . S
C1959 C1956 1.511 1_655 S
C1959 H1973 0.961 . S
C1959 H1974 0.961 . S
C1959 H1975 0.961 . S
C1960 C1961 1.370 . S
C1960 C1962 1.363 . S
C1960 H1976 0.931 . S
C1961 C1960 1.370 . S
C1961 C1965 1.408 . S
C1962 C1960 1.363 . S
C1962 C1963 1.370 . S
C1962 C1966 1.524 . S
C1963 C1955 1.503 1_655 S
C1963 C1962 1.370 . S
C1963 C1964 1.403 . S
C1964 C1963 1.403 . S
C1964 C1965 1.404 . S
C1964 C1967 1.539 . S
C1965 C1961 1.408 . S
C1965 C1964 1.404 . S
C1965 H1977 0.930 . S
C1966 C1962 1.524 . S
C1966 H1978 0.956 1_655 S
C1966 H1979 0.961 . S
C1966 H1980 0.961 . S
C1967 C1964 1.539 . S
C1967 H1981 0.958 1_655 S
C1967 H1982 0.961 . S
C1967 H1983 0.960 . S
H1968 C1952 0.931 . S
H1969 C1957 0.929 . S
H1970 C1958 0.960 . S
H1971 C1958 0.962 . S
H1972 C1958 0.960 . S
H1973 C1959 0.961 . S
H1974 C1959 0.961 . S
H1975 C1959 0.961 . S
H1976 C1960 0.931 . S
H1977 C1965 0.930 . S
H1978 C1966 0.956 1_455 S
H1979 C1966 0.961 . S
H1980 C1966 0.961 . S
H1981 C1967 0.958 1_455 S
H1982 C1967 0.961 . S
H1983 C1967 0.960 . S
C1984 C1985 1.391 . S
C1984 C1986 1.394 . S
C1984 H2000 0.931 . S
C1985 C1984 1.391 . S
C1985 C1989 1.376 . S
C1986 C1984 1.394 . S
C1986 C1987 1.369 . S
C1986 C1990 1.531 1_556 S
C1987 C1986 1.369 . S
C1987 C1988 1.410 . S
C1987 C1995 1.503 1_556 S
C1988 C1987 1.410 . S
C1988 C1989 1.392 . S
C1988 C1991 1.511 . S
C1989 C1985 1.376 . S
C1989 C1988 1.392 . S
C1989 H2001 0.929 . S
C1990 C1986 1.531 1_554 S
C1990 H2002 0.960 . S
C1990 H2003 0.962 . S
C1990 H2004 0.960 . S
C1991 C1988 1.511 . S
C1991 H2005 0.961 . S
C1991 H2006 0.961 . S
C1991 H2007 0.961 . S
C1992 C1993 1.370 . S
C1992 C1994 1.363 . S
C1992 H2008 0.931 . S
C1993 C1992 1.370 . S
C1993 C1997 1.408 . S
C1994 C1992 1.363 . S
C1994 C1995 1.370 . S
C1994 C1998 1.524 . S
C1995 C1987 1.503 1_554 S
C1995 C1994 1.370 . S
C1995 C1996 1.403 . S
C1996 C1995 1.403 . S
C1996 C1997 1.404 . S
C1996 C1999 1.539 . S
C1997 C1993 1.408 . S
C1997 C1996 1.404 . S
C1997 H2009 0.930 . S
C1998 C1994 1.524 . S
C1998 H2010 0.956 . S
C1998 H2011 0.961 1_554 S
C1998 H2012 0.961 . S
C1999 C1996 1.539 . S
C1999 H2013 0.958 . S
C1999 H2014 0.961 . S
C1999 H2015 0.960 . S
H2000 C1984 0.931 . S
H2001 C1989 0.929 . S
H2002 C1990 0.960 . S
H2003 C1990 0.962 . S
H2004 C1990 0.960 . S
H2005 C1991 0.961 . S
H2006 C1991 0.961 . S
H2007 C1991 0.961 . S
H2008 C1992 0.931 . S
H2009 C1997 0.930 . S
H2010 C1998 0.956 . S
H2011 C1998 0.961 1_556 S
H2012 C1998 0.961 . S
H2013 C1999 0.958 . S
H2014 C1999 0.961 . S
H2015 C1999 0.960 . S
C2016 C2017 1.391 . S
C2016 C2018 1.394 . S
C2016 H2032 0.931 . S
C2017 C2016 1.391 . S
C2017 C2021 1.376 . S
C2018 C2016 1.394 . S
C2018 C2019 1.369 . S
C2018 C2022 1.531 . S
C2019 C2018 1.369 . S
C2019 C2020 1.410 . S
C2019 C2027 1.503 . S
C2020 C2019 1.410 . S
C2020 C2021 1.392 . S
C2020 C2023 1.511 . S
C2021 C2017 1.376 . S
C2021 C2020 1.392 . S
C2021 H2033 0.929 . S
C2022 C2018 1.531 . S
C2022 H2034 0.960 . S
C2022 H2035 0.962 . S
C2022 H2036 0.960 . S
C2023 C2020 1.511 . S
C2023 H2037 0.961 . S
C2023 H2038 0.961 . S
C2023 H2039 0.961 . S
C2024 C2025 1.370 . S
C2024 C2026 1.363 . S
C2024 H2040 0.931 . S
C2025 C2024 1.370 . S
C2025 C2029 1.408 . S
C2026 C2024 1.363 . S
C2026 C2027 1.370 . S
C2026 C2030 1.524 . S
C2027 C2019 1.503 . S
C2027 C2026 1.370 . S
C2027 C2028 1.403 . S
C2028 C2027 1.403 . S
C2028 C2029 1.404 . S
C2028 C2031 1.539 . S
C2029 C2025 1.408 . S
C2029 C2028 1.404 . S
C2029 H2041 0.930 . S
C2030 C2026 1.524 . S
C2030 H2042 0.956 . S
C2030 H2043 0.961 . S
C2030 H2044 0.961 . S
C2031 C2028 1.539 . S
C2031 H2045 0.958 . S
C2031 H2046 0.961 . S
C2031 H2047 0.960 . S
H2032 C2016 0.931 . S
H2033 C2021 0.929 . S
H2034 C2022 0.960 . S
H2035 C2022 0.962 . S
H2036 C2022 0.960 . S
H2037 C2023 0.961 . S
H2038 C2023 0.961 . S
H2039 C2023 0.961 . S
H2040 C2024 0.931 . S
H2041 C2029 0.930 . S
H2042 C2030 0.956 . S
H2043 C2030 0.961 . S
H2044 C2030 0.961 . S
H2045 C2031 0.958 . S
H2046 C2031 0.961 . S
H2047 C2031 0.960 . S
C2048 C2049 1.391 . S
C2048 C2050 1.394 . S
C2048 H2064 0.931 . S
C2049 C2048 1.391 . S
C2049 C2053 1.376 . S
C2050 C2048 1.394 . S
C2050 C2051 1.369 . S
C2050 C2054 1.531 . S
C2051 C2050 1.369 . S
C2051 C2052 1.410 . S
C2051 C2059 1.503 . S
C2052 C2051 1.410 . S
C2052 C2053 1.392 . S
C2052 C2055 1.511 . S
C2053 C2049 1.376 . S
C2053 C2052 1.392 . S
C2053 H2065 0.929 . S
C2054 C2050 1.531 . S
C2054 H2066 0.960 . S
C2054 H2067 0.962 . S
C2054 H2068 0.960 . S
C2055 C2052 1.511 . S
C2055 H2069 0.961 . S
C2055 H2070 0.961 . S
C2055 H2071 0.961 . S
C2056 C2057 1.370 . S
C2056 C2058 1.363 . S
C2056 H2072 0.931 . S
C2057 C2056 1.370 . S
C2057 C2061 1.408 . S
C2058 C2056 1.363 . S
C2058 C2059 1.370 . S
C2058 C2062 1.524 . S
C2059 C2051 1.503 . S
C2059 C2058 1.370 . S
C2059 C2060 1.403 . S
C2060 C2059 1.403 . S
C2060 C2061 1.404 . S
C2060 C2063 1.539 . S
C2061 C2057 1.408 . S
C2061 C2060 1.404 . S
C2061 H2073 0.930 . S
C2062 C2058 1.524 . S
C2062 H2074 0.956 . S
C2062 H2075 0.961 . S
C2062 H2076 0.961 . S
C2063 C2060 1.539 . S
C2063 H2077 0.958 . S
C2063 H2078 0.961 . S
C2063 H2079 0.960 . S
H2064 C2048 0.931 . S
H2065 C2053 0.929 . S
H2066 C2054 0.960 . S
H2067 C2054 0.962 . S
H2068 C2054 0.960 . S
H2069 C2055 0.961 . S
H2070 C2055 0.961 . S
H2071 C2055 0.961 . S
H2072 C2056 0.931 . S
H2073 C2061 0.930 . S
H2074 C2062 0.956 . S
H2075 C2062 0.961 . S
H2076 C2062 0.961 . S
H2077 C2063 0.958 . S
H2078 C2063 0.961 . S
H2079 C2063 0.960 . S
C2080 C2081 1.391 . S
C2080 C2082 1.394 . S
C2080 H2096 0.931 . S
C2081 C2080 1.391 . S
C2081 C2085 1.376 . S
C2082 C2080 1.394 . S
C2082 C2083 1.369 . S
C2082 C2086 1.531 1_455 S
C2083 C2082 1.369 . S
C2083 C2084 1.410 . S
C2083 C2091 1.503 1_455 S
C2084 C2083 1.410 . S
C2084 C2085 1.392 . S
C2084 C2087 1.511 . S
C2085 C2081 1.376 . S
C2085 C2084 1.392 . S
C2085 H2097 0.929 . S
C2086 C2082 1.531 1_655 S
C2086 H2098 0.960 . S
C2086 H2099 0.962 . S
C2086 H2100 0.960 1_655 S
C2087 C2084 1.511 . S
C2087 H2101 0.961 . S
C2087 H2102 0.961 . S
C2087 H2103 0.961 . S
C2088 C2089 1.370 . S
C2088 C2090 1.363 . S
C2088 H2104 0.931 . S
C2089 C2088 1.370 . S
C2089 C2093 1.408 . S
C2090 C2088 1.363 . S
C2090 C2091 1.370 . S
C2090 C2094 1.524 . S
C2091 C2083 1.503 1_655 S
C2091 C2090 1.370 . S
C2091 C2092 1.403 . S
C2092 C2091 1.403 . S
C2092 C2093 1.404 . S
C2092 C2095 1.539 1_655 S
C2093 C2089 1.408 . S
C2093 C2092 1.404 . S
C2093 H2105 0.930 . S
C2094 C2090 1.524 . S
C2094 H2106 0.956 . S
C2094 H2107 0.961 . S
C2094 H2108 0.961 . S
C2095 C2092 1.539 1_455 S
C2095 H2109 0.958 . S
C2095 H2110 0.961 . S
C2095 H2111 0.960 . S
H2096 C2080 0.931 . S
H2097 C2085 0.929 . S
H2098 C2086 0.960 . S
H2099 C2086 0.962 . S
H2100 C2086 0.960 1_455 S
H2101 C2087 0.961 . S
H2102 C2087 0.961 . S
H2103 C2087 0.961 . S
H2104 C2088 0.931 . S
H2105 C2093 0.930 . S
H2106 C2094 0.956 . S
H2107 C2094 0.961 . S
H2108 C2094 0.961 . S
H2109 C2095 0.958 . S
H2110 C2095 0.961 . S
H2111 C2095 0.960 . S
C2112 C2113 1.391 . S
C2112 C2114 1.394 . S
C2112 H2128 0.931 . S
C2113 C2112 1.391 . S
C2113 C2117 1.376 . S
C2114 C2112 1.394 . S
C2114 C2115 1.369 . S
C2114 C2118 1.531 . S
C2115 C2114 1.369 . S
C2115 C2116 1.410 . S
C2115 C2123 1.503 . S
C2116 C2115 1.410 . S
C2116 C2117 1.392 . S
C2116 C2119 1.511 . S
C2117 C2113 1.376 . S
C2117 C2116 1.392 . S
C2117 H2129 0.929 . S
C2118 C2114 1.531 . S
C2118 H2130 0.960 . S
C2118 H2131 0.962 . S
C2118 H2132 0.960 . S
C2119 C2116 1.511 . S
C2119 H2133 0.961 . S
C2119 H2134 0.961 . S
C2119 H2135 0.961 . S
C2120 C2121 1.370 . S
C2120 C2122 1.363 . S
C2120 H2136 0.931 . S
C2121 C2120 1.370 . S
C2121 C2125 1.408 . S
C2122 C2120 1.363 . S
C2122 C2123 1.370 . S
C2122 C2126 1.524 . S
C2123 C2115 1.503 . S
C2123 C2122 1.370 . S
C2123 C2124 1.403 . S
C2124 C2123 1.403 . S
C2124 C2125 1.404 . S
C2124 C2127 1.539 . S
C2125 C2121 1.408 . S
C2125 C2124 1.404 . S
C2125 H2137 0.930 . S
C2126 C2122 1.524 . S
C2126 H2138 0.956 . S
C2126 H2139 0.961 . S
C2126 H2140 0.961 . S
C2127 C2124 1.539 . S
C2127 H2141 0.958 . S
C2127 H2142 0.961 . S
C2127 H2143 0.960 . S
H2128 C2112 0.931 . S
H2129 C2117 0.929 . S
H2130 C2118 0.960 . S
H2131 C2118 0.962 . S
H2132 C2118 0.960 . S
H2133 C2119 0.961 . S
H2134 C2119 0.961 . S
H2135 C2119 0.961 . S
H2136 C2120 0.931 . S
H2137 C2125 0.930 . S
H2138 C2126 0.956 . S
H2139 C2126 0.961 . S
H2140 C2126 0.961 . S
H2141 C2127 0.958 . S
H2142 C2127 0.961 . S
H2143 C2127 0.960 . S
C2144 C2145 1.391 . S
C2144 C2146 1.394 . S
C2144 H2160 0.931 . S
C2145 C2144 1.391 . S
C2145 C2149 1.376 . S
C2146 C2144 1.394 . S
C2146 C2147 1.369 . S
C2146 C2150 1.531 . S
C2147 C2146 1.369 . S
C2147 C2148 1.410 . S
C2147 C2155 1.503 . S
C2148 C2147 1.410 . S
C2148 C2149 1.392 . S
C2148 C2151 1.511 . S
C2149 C2145 1.376 . S
C2149 C2148 1.392 . S
C2149 H2161 0.929 . S
C2150 C2146 1.531 . S
C2150 H2162 0.960 . S
C2150 H2163 0.962 . S
C2150 H2164 0.960 . S
C2151 C2148 1.511 . S
C2151 H2165 0.961 . S
C2151 H2166 0.961 . S
C2151 H2167 0.961 . S
C2152 C2153 1.370 . S
C2152 C2154 1.363 . S
C2152 H2168 0.931 . S
C2153 C2152 1.370 . S
C2153 C2157 1.408 . S
C2154 C2152 1.363 . S
C2154 C2155 1.370 . S
C2154 C2158 1.524 . S
C2155 C2147 1.503 . S
C2155 C2154 1.370 . S
C2155 C2156 1.403 . S
C2156 C2155 1.403 . S
C2156 C2157 1.404 . S
C2156 C2159 1.539 . S
C2157 C2153 1.408 . S
C2157 C2156 1.404 . S
C2157 H2169 0.930 . S
C2158 C2154 1.524 . S
C2158 H2170 0.956 . S
C2158 H2171 0.961 . S
C2158 H2172 0.961 . S
C2159 C2156 1.539 . S
C2159 H2173 0.958 . S
C2159 H2174 0.961 . S
C2159 H2175 0.960 . S
H2160 C2144 0.931 . S
H2161 C2149 0.929 . S
H2162 C2150 0.960 . S
H2163 C2150 0.962 . S
H2164 C2150 0.960 . S
H2165 C2151 0.961 . S
H2166 C2151 0.961 . S
H2167 C2151 0.961 . S
H2168 C2152 0.931 . S
H2169 C2157 0.930 . S
H2170 C2158 0.956 . S
H2171 C2158 0.961 . S
H2172 C2158 0.961 . S
H2173 C2159 0.958 . S
H2174 C2159 0.961 . S
H2175 C2159 0.960 . S
C2176 C2177 1.391 . S
C2176 C2178 1.394 . S
C2176 H2192 0.931 . S
C2177 C2176 1.391 . S
C2177 C2181 1.376 . S
C2178 C2176 1.394 . S
C2178 C2179 1.369 . S
C2178 C2182 1.531 . S
C2179 C2178 1.369 . S
C2179 C2180 1.410 . S
C2179 C2187 1.503 . S
C2180 C2179 1.410 . S
C2180 C2181 1.392 . S
C2180 C2183 1.511 . S
C2181 C2177 1.376 . S
C2181 C2180 1.392 . S
C2181 H2193 0.929 . S
C2182 C2178 1.531 . S
C2182 H2194 0.960 . S
C2182 H2195 0.962 . S
C2182 H2196 0.960 . S
C2183 C2180 1.511 . S
C2183 H2197 0.961 . S
C2183 H2198 0.961 . S
C2183 H2199 0.961 . S
C2184 C2185 1.370 . S
C2184 C2186 1.363 . S
C2184 H2200 0.931 . S
C2185 C2184 1.370 . S
C2185 C2189 1.408 . S
C2186 C2184 1.363 . S
C2186 C2187 1.370 . S
C2186 C2190 1.524 . S
C2187 C2179 1.503 . S
C2187 C2186 1.370 . S
C2187 C2188 1.403 . S
C2188 C2187 1.403 . S
C2188 C2189 1.404 . S
C2188 C2191 1.539 . S
C2189 C2185 1.408 . S
C2189 C2188 1.404 . S
C2189 H2201 0.930 . S
C2190 C2186 1.524 . S
C2190 H2202 0.956 . S
C2190 H2203 0.961 . S
C2190 H2204 0.961 . S
C2191 C2188 1.539 . S
C2191 H2205 0.958 . S
C2191 H2206 0.961 . S
C2191 H2207 0.960 . S
H2192 C2176 0.931 . S
H2193 C2181 0.929 . S
H2194 C2182 0.960 . S
H2195 C2182 0.962 . S
H2196 C2182 0.960 . S
H2197 C2183 0.961 . S
H2198 C2183 0.961 . S
H2199 C2183 0.961 . S
H2200 C2184 0.931 . S
H2201 C2189 0.930 . S
H2202 C2190 0.956 . S
H2203 C2190 0.961 . S
H2204 C2190 0.961 . S
H2205 C2191 0.958 . S
H2206 C2191 0.961 . S
H2207 C2191 0.960 . S
C2208 C2209 1.388 1_565 S
C2208 C2210 1.394 . S
C2208 H2224 0.931 . S
C2209 C2208 1.388 1_545 S
C2209 C2213 1.378 . S
C2210 C2208 1.394 . S
C2210 C2211 1.351 1_565 S
C2210 C2214 1.531 . S
C2211 C2210 1.351 1_545 S
C2211 C2212 1.427 . S
C2211 C2219 1.503 . S
C2212 C2211 1.427 . S
C2212 C2213 1.392 . S
C2212 C2215 1.511 . S
C2213 C2209 1.378 . S
C2213 C2212 1.392 . S
C2213 H2225 0.929 . S
C2214 C2210 1.531 . S
C2214 H2226 0.960 . S
C2214 H2227 0.962 . S
C2214 H2228 0.960 . S
C2215 C2212 1.511 . S
C2215 H2229 0.961 . S
C2215 H2230 0.961 . S
C2215 H2231 0.961 . S
C2216 C2217 1.367 1_565 S
C2216 C2218 1.363 . S
C2216 H2232 0.931 . S
C2217 C2216 1.367 1_545 S
C2217 C2221 1.411 . S
C2218 C2216 1.363 . S
C2218 C2219 1.368 1_565 S
C2218 C2222 1.524 . S
C2219 C2211 1.503 . S
C2219 C2218 1.368 1_545 S
C2219 C2220 1.405 . S
C2220 C2219 1.405 . S
C2220 C2221 1.404 . S
C2220 C2223 1.539 . S
C2221 C2217 1.411 . S
C2221 C2220 1.404 . S
C2221 H2233 0.930 . S
C2222 C2218 1.524 . S
C2222 H2234 0.956 . S
C2222 H2235 0.961 1_565 S
C2222 H2236 0.961 . S
C2223 C2220 1.539 . S
C2223 H2237 0.958 1_545 S
C2223 H2238 0.961 . S
C2223 H2239 0.960 . S
H2224 C2208 0.931 . S
H2225 C2213 0.929 . S
H2226 C2214 0.960 . S
H2227 C2214 0.962 . S
H2228 C2214 0.960 . S
H2229 C2215 0.961 . S
H2230 C2215 0.961 . S
H2231 C2215 0.961 . S
H2232 C2216 0.931 . S
H2233 C2221 0.930 . S
H2234 C2222 0.956 . S
H2235 C2222 0.961 1_545 S
H2236 C2222 0.961 . S
H2237 C2223 0.958 1_565 S
H2238 C2223 0.961 . S
H2239 C2223 0.960 . S
C2240 C2241 1.391 . S
C2240 C2242 1.394 . S
C2240 H2256 0.931 . S
C2241 C2240 1.391 . S
C2241 C2245 1.376 . S
C2242 C2240 1.394 . S
C2242 C2243 1.369 . S
C2242 C2246 1.531 . S
C2243 C2242 1.369 . S
C2243 C2244 1.410 . S
C2243 C2251 1.503 . S
C2244 C2243 1.410 . S
C2244 C2245 1.392 . S
C2244 C2247 1.511 . S
C2245 C2241 1.376 . S
C2245 C2244 1.392 . S
C2245 H2257 0.929 . S
C2246 C2242 1.531 . S
C2246 H2258 0.960 . S
C2246 H2259 0.962 . S
C2246 H2260 0.960 . S
C2247 C2244 1.511 . S
C2247 H2261 0.961 . S
C2247 H2262 0.961 . S
C2247 H2263 0.961 . S
C2248 C2249 1.370 . S
C2248 C2250 1.363 . S
C2248 H2264 0.931 . S
C2249 C2248 1.370 . S
C2249 C2253 1.408 . S
C2250 C2248 1.363 . S
C2250 C2251 1.370 . S
C2250 C2254 1.524 . S
C2251 C2243 1.503 . S
C2251 C2250 1.370 . S
C2251 C2252 1.403 . S
C2252 C2251 1.403 . S
C2252 C2253 1.404 . S
C2252 C2255 1.539 . S
C2253 C2249 1.408 . S
C2253 C2252 1.404 . S
C2253 H2265 0.930 . S
C2254 C2250 1.524 . S
C2254 H2266 0.956 . S
C2254 H2267 0.961 . S
C2254 H2268 0.961 . S
C2255 C2252 1.539 . S
C2255 H2269 0.958 . S
C2255 H2270 0.961 . S
C2255 H2271 0.960 . S
H2256 C2240 0.931 . S
H2257 C2245 0.929 . S
H2258 C2246 0.960 . S
H2259 C2246 0.962 . S
H2260 C2246 0.960 . S
H2261 C2247 0.961 . S
H2262 C2247 0.961 . S
H2263 C2247 0.961 . S
H2264 C2248 0.931 . S
H2265 C2253 0.930 . S
H2266 C2254 0.956 . S
H2267 C2254 0.961 . S
H2268 C2254 0.961 . S
H2269 C2255 0.958 . S
H2270 C2255 0.961 . S
H2271 C2255 0.960 . S
C2272 C2273 1.391 . S
C2272 C2274 1.394 . S
C2272 H2288 0.931 . S
C2273 C2272 1.391 . S
C2273 C2277 1.376 . S
C2274 C2272 1.394 . S
C2274 C2275 1.369 . S
C2274 C2278 1.531 . S
C2275 C2274 1.369 . S
C2275 C2276 1.410 . S
C2275 C2283 1.503 1_554 S
C2276 C2275 1.410 . S
C2276 C2277 1.392 . S
C2276 C2279 1.511 . S
C2277 C2273 1.376 . S
C2277 C2276 1.392 . S
C2277 H2289 0.929 . S
C2278 C2274 1.531 . S
C2278 H2290 0.960 . S
C2278 H2291 0.962 . S
C2278 H2292 0.960 . S
C2279 C2276 1.511 . S
C2279 H2293 0.961 . S
C2279 H2294 0.961 1_554 S
C2279 H2295 0.961 . S
C2280 C2281 1.370 . S
C2280 C2282 1.363 . S
C2280 H2296 0.931 . S
C2281 C2280 1.370 . S
C2281 C2285 1.408 . S
C2282 C2280 1.363 . S
C2282 C2283 1.370 . S
C2282 C2286 1.524 . S
C2283 C2275 1.503 1_556 S
C2283 C2282 1.370 . S
C2283 C2284 1.403 . S
C2284 C2283 1.403 . S
C2284 C2285 1.404 . S
C2284 C2287 1.539 1_556 S
C2285 C2281 1.408 . S
C2285 C2284 1.404 . S
C2285 H2297 0.930 . S
C2286 C2282 1.524 . S
C2286 H2298 0.956 . S
C2286 H2299 0.961 . S
C2286 H2300 0.961 . S
C2287 C2284 1.539 1_554 S
C2287 H2301 0.958 . S
C2287 H2302 0.961 . S
C2287 H2303 0.960 . S
H2288 C2272 0.931 . S
H2289 C2277 0.929 . S
H2290 C2278 0.960 . S
H2291 C2278 0.962 . S
H2292 C2278 0.960 . S
H2293 C2279 0.961 . S
H2294 C2279 0.961 1_556 S
H2295 C2279 0.961 . S
H2296 C2280 0.931 . S
H2297 C2285 0.930 . S
H2298 C2286 0.956 . S
H2299 C2286 0.961 . S
H2300 C2286 0.961 . S
H2301 C2287 0.958 . S
H2302 C2287 0.961 . S
H2303 C2287 0.960 . S
C2304 C2305 1.391 . S
C2304 C2306 1.394 . S
C2304 H2320 0.931 . S
C2305 C2304 1.391 . S
C2305 C2309 1.376 . S
C2306 C2304 1.394 . S
C2306 C2307 1.369 . S
C2306 C2310 1.531 . S
C2307 C2306 1.369 . S
C2307 C2308 1.410 . S
C2307 C2315 1.503 . S
C2308 C2307 1.410 . S
C2308 C2309 1.392 . S
C2308 C2311 1.511 . S
C2309 C2305 1.376 . S
C2309 C2308 1.392 . S
C2309 H2321 0.929 . S
C2310 C2306 1.531 . S
C2310 H2322 0.960 1_545 S
C2310 H2323 0.962 . S
C2310 H2324 0.960 1_545 S
C2311 C2308 1.511 . S
C2311 H2325 0.961 . S
C2311 H2326 0.961 . S
C2311 H2327 0.961 1_545 S
C2312 C2313 1.370 . S
C2312 C2314 1.363 . S
C2312 H2328 0.931 . S
C2313 C2312 1.370 . S
C2313 C2317 1.408 1_545 S
C2314 C2312 1.363 . S
C2314 C2315 1.370 . S
C2314 C2318 1.524 . S
C2315 C2307 1.503 . S
C2315 C2314 1.370 . S
C2315 C2316 1.403 1_545 S
C2316 C2315 1.403 1_565 S
C2316 C2317 1.404 . S
C2316 C2319 1.539 . S
C2317 C2313 1.408 1_565 S
C2317 C2316 1.404 . S
C2317 H2329 0.930 . S
C2318 C2314 1.524 . S
C2318 H2330 0.956 . S
C2318 H2331 0.961 . S
C2318 H2332 0.961 . S
C2319 C2316 1.539 . S
C2319 H2333 0.958 . S
C2319 H2334 0.961 . S
C2319 H2335 0.960 . S
H2320 C2304 0.931 . S
H2321 C2309 0.929 . S
H2322 C2310 0.960 1_565 S
H2323 C2310 0.962 . S
H2324 C2310 0.960 1_565 S
H2325 C2311 0.961 . S
H2326 C2311 0.961 . S
H2327 C2311 0.961 1_565 S
H2328 C2312 0.931 . S
H2329 C2317 0.930 . S
H2330 C2318 0.956 . S
H2331 C2318 0.961 . S
H2332 C2318 0.961 . S
H2333 C2319 0.958 . S
H2334 C2319 0.961 . S
H2335 C2319 0.960 . S
C2336 C2337 1.391 . S
C2336 C2338 1.394 . S
C2336 H2352 0.931 . S
C2337 C2336 1.391 . S
C2337 C2341 1.376 . S
C2338 C2336 1.394 . S
C2338 C2339 1.369 . S
C2338 C2342 1.531 . S
C2339 C2338 1.369 . S
C2339 C2340 1.410 . S
C2339 C2347 1.503 . S
C2340 C2339 1.410 . S
C2340 C2341 1.392 . S
C2340 C2343 1.511 . S
C2341 C2337 1.376 . S
C2341 C2340 1.392 . S
C2341 H2353 0.929 . S
C2342 C2338 1.531 . S
C2342 H2354 0.960 . S
C2342 H2355 0.962 . S
C2342 H2356 0.960 . S
C2343 C2340 1.511 . S
C2343 H2357 0.961 . S
C2343 H2358 0.961 . S
C2343 H2359 0.961 . S
C2344 C2345 1.370 . S
C2344 C2346 1.363 . S
C2344 H2360 0.931 . S
C2345 C2344 1.370 . S
C2345 C2349 1.408 . S
C2346 C2344 1.363 . S
C2346 C2347 1.370 . S
C2346 C2350 1.524 . S
C2347 C2339 1.503 . S
C2347 C2346 1.370 . S
C2347 C2348 1.403 . S
C2348 C2347 1.403 . S
C2348 C2349 1.404 . S
C2348 C2351 1.539 . S
C2349 C2345 1.408 . S
C2349 C2348 1.404 . S
C2349 H2361 0.930 . S
C2350 C2346 1.524 . S
C2350 H2362 0.956 . S
C2350 H2363 0.961 . S
C2350 H2364 0.961 . S
C2351 C2348 1.539 . S
C2351 H2365 0.958 . S
C2351 H2366 0.961 . S
C2351 H2367 0.960 . S
H2352 C2336 0.931 . S
H2353 C2341 0.929 . S
H2354 C2342 0.960 . S
H2355 C2342 0.962 . S
H2356 C2342 0.960 . S
H2357 C2343 0.961 . S
H2358 C2343 0.961 . S
H2359 C2343 0.961 . S
H2360 C2344 0.931 . S
H2361 C2349 0.930 . S
H2362 C2350 0.956 . S
H2363 C2350 0.961 . S
H2364 C2350 0.961 . S
H2365 C2351 0.958 . S
H2366 C2351 0.961 . S
H2367 C2351 0.960 . S
C2368 C2369 1.391 . S
C2368 C2370 1.394 . S
C2368 H2384 0.931 . S
C2369 C2368 1.391 . S
C2369 C2373 1.376 . S
C2370 C2368 1.394 . S
C2370 C2371 1.369 . S
C2370 C2374 1.531 . S
C2371 C2370 1.369 . S
C2371 C2372 1.410 . S
C2371 C2379 1.503 . S
C2372 C2371 1.410 . S
C2372 C2373 1.392 . S
C2372 C2375 1.511 . S
C2373 C2369 1.376 . S
C2373 C2372 1.392 . S
C2373 H2385 0.929 . S
C2374 C2370 1.531 . S
C2374 H2386 0.960 . S
C2374 H2387 0.962 . S
C2374 H2388 0.960 . S
C2375 C2372 1.511 . S
C2375 H2389 0.961 . S
C2375 H2390 0.961 . S
C2375 H2391 0.961 . S
C2376 C2377 1.370 . S
C2376 C2378 1.363 . S
C2376 H2392 0.931 . S
C2377 C2376 1.370 . S
C2377 C2381 1.408 . S
C2378 C2376 1.363 . S
C2378 C2379 1.370 . S
C2378 C2382 1.524 . S
C2379 C2371 1.503 . S
C2379 C2378 1.370 . S
C2379 C2380 1.403 . S
C2380 C2379 1.403 . S
C2380 C2381 1.404 . S
C2380 C2383 1.539 . S
C2381 C2377 1.408 . S
C2381 C2380 1.404 . S
C2381 H2393 0.930 . S
C2382 C2378 1.524 . S
C2382 H2394 0.956 . S
C2382 H2395 0.961 . S
C2382 H2396 0.961 . S
C2383 C2380 1.539 . S
C2383 H2397 0.958 . S
C2383 H2398 0.961 . S
C2383 H2399 0.960 . S
H2384 C2368 0.931 . S
H2385 C2373 0.929 . S
H2386 C2374 0.960 . S
H2387 C2374 0.962 . S
H2388 C2374 0.960 . S
H2389 C2375 0.961 . S
H2390 C2375 0.961 . S
H2391 C2375 0.961 . S
H2392 C2376 0.931 . S
H2393 C2381 0.930 . S
H2394 C2382 0.956 . S
H2395 C2382 0.961 . S
H2396 C2382 0.961 . S
H2397 C2383 0.958 . S
H2398 C2383 0.961 . S
H2399 C2383 0.960 . S
C2400 C2401 1.391 . S
C2400 C2402 1.394 . S
C2400 H2416 0.931 . S
C2401 C2400 1.391 . S
C2401 C2405 1.376 1_545 S
C2402 C2400 1.394 . S
C2402 C2403 1.369 . S
C2402 C2406 1.531 . S
C2403 C2402 1.369 . S
C2403 C2404 1.410 1_545 S
C2403 C2411 1.503 . S
C2404 C2403 1.410 1_565 S
C2404 C2405 1.392 . S
C2404 C2407 1.511 . S
C2405 C2401 1.376 1_565 S
C2405 C2404 1.392 . S
C2405 H2417 0.929 . S
C2406 C2402 1.531 . S
C2406 H2418 0.960 . S
C2406 H2419 0.962 . S
C2406 H2420 0.960 . S
C2407 C2404 1.511 . S
C2407 H2421 0.961 . S
C2407 H2422 0.961 . S
C2407 H2423 0.961 . S
C2408 C2409 1.370 1_565 S
C2408 C2410 1.363 . S
C2408 H2424 0.931 . S
C2409 C2408 1.370 1_545 S
C2409 C2413 1.408 . S
C2410 C2408 1.363 . S
C2410 C2411 1.370 1_565 S
C2410 C2414 1.524 . S
C2411 C2403 1.503 . S
C2411 C2410 1.370 1_545 S
C2411 C2412 1.403 . S
C2412 C2411 1.403 . S
C2412 C2413 1.404 . S
C2412 C2415 1.539 . S
C2413 C2409 1.408 . S
C2413 C2412 1.404 . S
C2413 H2425 0.930 . S
C2414 C2410 1.524 . S
C2414 H2426 0.956 . S
C2414 H2427 0.961 . S
C2414 H2428 0.961 . S
C2415 C2412 1.539 . S
C2415 H2429 0.958 . S
C2415 H2430 0.961 . S
C2415 H2431 0.960 . S
H2416 C2400 0.931 . S
H2417 C2405 0.929 . S
H2418 C2406 0.960 . S
H2419 C2406 0.962 . S
H2420 C2406 0.960 . S
H2421 C2407 0.961 . S
H2422 C2407 0.961 . S
H2423 C2407 0.961 . S
H2424 C2408 0.931 . S
H2425 C2413 0.930 . S
H2426 C2414 0.956 . S
H2427 C2414 0.961 . S
H2428 C2414 0.961 . S
H2429 C2415 0.958 . S
H2430 C2415 0.961 . S
H2431 C2415 0.960 . S
C2432 C2433 1.391 . S
C2432 C2434 1.394 . S
C2432 H2448 0.931 . S
C2433 C2432 1.391 . S
C2433 C2437 1.376 1_565 S
C2434 C2432 1.394 . S
C2434 C2435 1.369 . S
C2434 C2438 1.531 . S
C2435 C2434 1.369 . S
C2435 C2436 1.410 1_565 S
C2435 C2443 1.503 . S
C2436 C2435 1.410 1_545 S
C2436 C2437 1.392 . S
C2436 C2439 1.511 . S
C2437 C2433 1.376 1_545 S
C2437 C2436 1.392 . S
C2437 H2449 0.929 . S
C2438 C2434 1.531 . S
C2438 H2450 0.960 . S
C2438 H2451 0.962 . S
C2438 H2452 0.960 . S
C2439 C2436 1.511 . S
C2439 H2453 0.961 . S
C2439 H2454 0.961 . S
C2439 H2455 0.961 . S
C2440 C2441 1.370 1_545 S
C2440 C2442 1.363 . S
C2440 H2456 0.931 . S
C2441 C2440 1.370 1_565 S
C2441 C2445 1.408 . S
C2442 C2440 1.363 . S
C2442 C2443 1.370 1_545 S
C2442 C2446 1.524 . S
C2443 C2435 1.503 . S
C2443 C2442 1.370 1_565 S
C2443 C2444 1.403 . S
C2444 C2443 1.403 . S
C2444 C2445 1.404 . S
C2444 C2447 1.539 . S
C2445 C2441 1.408 . S
C2445 C2444 1.404 . S
C2445 H2457 0.930 . S
C2446 C2442 1.524 . S
C2446 H2458 0.956 . S
C2446 H2459 0.961 . S
C2446 H2460 0.961 . S
C2447 C2444 1.539 . S
C2447 H2461 0.958 . S
C2447 H2462 0.961 . S
C2447 H2463 0.960 . S
H2448 C2432 0.931 . S
H2449 C2437 0.929 . S
H2450 C2438 0.960 . S
H2451 C2438 0.962 . S
H2452 C2438 0.960 . S
H2453 C2439 0.961 . S
H2454 C2439 0.961 . S
H2455 C2439 0.961 . S
H2456 C2440 0.931 . S
H2457 C2445 0.930 . S
H2458 C2446 0.956 . S
H2459 C2446 0.961 . S
H2460 C2446 0.961 . S
H2461 C2447 0.958 . S
H2462 C2447 0.961 . S
H2463 C2447 0.960 . S
C2464 C2465 1.391 . S
C2464 C2466 1.394 . S
C2464 H2480 0.931 . S
C2465 C2464 1.391 . S
C2465 C2469 1.376 . S
C2466 C2464 1.394 . S
C2466 C2467 1.369 . S
C2466 C2470 1.531 . S
C2467 C2466 1.369 . S
C2467 C2468 1.410 . S
C2467 C2475 1.503 . S
C2468 C2467 1.410 . S
C2468 C2469 1.392 . S
C2468 C2471 1.511 . S
C2469 C2465 1.376 . S
C2469 C2468 1.392 . S
C2469 H2481 0.929 . S
C2470 C2466 1.531 . S
C2470 H2482 0.960 . S
C2470 H2483 0.962 . S
C2470 H2484 0.960 . S
C2471 C2468 1.511 . S
C2471 H2485 0.961 . S
C2471 H2486 0.961 . S
C2471 H2487 0.961 . S
C2472 C2473 1.370 . S
C2472 C2474 1.363 . S
C2472 H2488 0.931 . S
C2473 C2472 1.370 . S
C2473 C2477 1.408 . S
C2474 C2472 1.363 . S
C2474 C2475 1.370 . S
C2474 C2478 1.524 . S
C2475 C2467 1.503 . S
C2475 C2474 1.370 . S
C2475 C2476 1.403 . S
C2476 C2475 1.403 . S
C2476 C2477 1.404 . S
C2476 C2479 1.539 . S
C2477 C2473 1.408 . S
C2477 C2476 1.404 . S
C2477 H2489 0.930 . S
C2478 C2474 1.524 . S
C2478 H2490 0.956 . S
C2478 H2491 0.961 . S
C2478 H2492 0.961 . S
C2479 C2476 1.539 . S
C2479 H2493 0.958 . S
C2479 H2494 0.961 . S
C2479 H2495 0.960 . S
H2480 C2464 0.931 . S
H2481 C2469 0.929 . S
H2482 C2470 0.960 . S
H2483 C2470 0.962 . S
H2484 C2470 0.960 . S
H2485 C2471 0.961 . S
H2486 C2471 0.961 . S
H2487 C2471 0.961 . S
H2488 C2472 0.931 . S
H2489 C2477 0.930 . S
H2490 C2478 0.956 . S
H2491 C2478 0.961 . S
H2492 C2478 0.961 . S
H2493 C2479 0.958 . S
H2494 C2479 0.961 . S
H2495 C2479 0.960 . S
C2496 C2497 1.391 . S
C2496 C2498 1.394 . S
C2496 H2512 0.931 . S
C2497 C2496 1.391 . S
C2497 C2501 1.376 . S
C2498 C2496 1.394 . S
C2498 C2499 1.369 . S
C2498 C2502 1.531 . S
C2499 C2498 1.369 . S
C2499 C2500 1.410 . S
C2499 C2507 1.503 . S
C2500 C2499 1.410 . S
C2500 C2501 1.392 . S
C2500 C2503 1.511 . S
C2501 C2497 1.376 . S
C2501 C2500 1.392 . S
C2501 H2513 0.929 . S
C2502 C2498 1.531 . S
C2502 H2514 0.960 . S
C2502 H2515 0.962 . S
C2502 H2516 0.960 . S
C2503 C2500 1.511 . S
C2503 H2517 0.961 . S
C2503 H2518 0.961 . S
C2503 H2519 0.961 . S
C2504 C2505 1.370 . S
C2504 C2506 1.363 . S
C2504 H2520 0.931 . S
C2505 C2504 1.370 . S
C2505 C2509 1.408 . S
C2506 C2504 1.363 . S
C2506 C2507 1.370 . S
C2506 C2510 1.524 . S
C2507 C2499 1.503 . S
C2507 C2506 1.370 . S
C2507 C2508 1.403 . S
C2508 C2507 1.403 . S
C2508 C2509 1.404 . S
C2508 C2511 1.539 . S
C2509 C2505 1.408 . S
C2509 C2508 1.404 . S
C2509 H2521 0.930 . S
C2510 C2506 1.524 . S
C2510 H2522 0.956 . S
C2510 H2523 0.961 . S
C2510 H2524 0.961 . S
C2511 C2508 1.539 . S
C2511 H2525 0.958 . S
C2511 H2526 0.961 . S
C2511 H2527 0.960 . S
H2512 C2496 0.931 . S
H2513 C2501 0.929 . S
H2514 C2502 0.960 . S
H2515 C2502 0.962 . S
H2516 C2502 0.960 . S
H2517 C2503 0.961 . S
H2518 C2503 0.961 . S
H2519 C2503 0.961 . S
H2520 C2504 0.931 . S
H2521 C2509 0.930 . S
H2522 C2510 0.956 . S
H2523 C2510 0.961 . S
H2524 C2510 0.961 . S
H2525 C2511 0.958 . S
H2526 C2511 0.961 . S
H2527 C2511 0.960 . S
C2528 C2529 1.391 . S
C2528 C2530 1.394 . S
C2528 H2544 0.931 . S
C2529 C2528 1.391 . S
C2529 C2533 1.376 1_565 S
C2530 C2528 1.394 . S
C2530 C2531 1.369 . S
C2530 C2534 1.531 . S
C2531 C2530 1.369 . S
C2531 C2532 1.410 1_565 S
C2531 C2539 1.503 . S
C2532 C2531 1.410 1_545 S
C2532 C2533 1.392 . S
C2532 C2535 1.511 . S
C2533 C2529 1.376 1_545 S
C2533 C2532 1.392 . S
C2533 H2545 0.929 . S
C2534 C2530 1.531 . S
C2534 H2546 0.960 . S
C2534 H2547 0.962 . S
C2534 H2548 0.960 . S
C2535 C2532 1.511 . S
C2535 H2549 0.961 . S
C2535 H2550 0.961 . S
C2535 H2551 0.961 . S
C2536 C2537 1.370 1_545 S
C2536 C2538 1.363 . S
C2536 H2552 0.931 . S
C2537 C2536 1.370 1_565 S
C2537 C2541 1.408 . S
C2538 C2536 1.363 . S
C2538 C2539 1.370 1_545 S
C2538 C2542 1.524 . S
C2539 C2531 1.503 . S
C2539 C2538 1.370 1_565 S
C2539 C2540 1.403 . S
C2540 C2539 1.403 . S
C2540 C2541 1.404 . S
C2540 C2543 1.539 . S
C2541 C2537 1.408 . S
C2541 C2540 1.404 . S
C2541 H2553 0.930 . S
C2542 C2538 1.524 . S
C2542 H2554 0.956 . S
C2542 H2555 0.961 . S
C2542 H2556 0.961 . S
C2543 C2540 1.539 . S
C2543 H2557 0.958 . S
C2543 H2558 0.961 . S
C2543 H2559 0.960 . S
H2544 C2528 0.931 . S
H2545 C2533 0.929 . S
H2546 C2534 0.960 . S
H2547 C2534 0.962 . S
H2548 C2534 0.960 . S
H2549 C2535 0.961 . S
H2550 C2535 0.961 . S
H2551 C2535 0.961 . S
H2552 C2536 0.931 . S
H2553 C2541 0.930 . S
H2554 C2542 0.956 . S
H2555 C2542 0.961 . S
H2556 C2542 0.961 . S
H2557 C2543 0.958 . S
H2558 C2543 0.961 . S
H2559 C2543 0.960 . S
C2560 C2561 1.391 . S
C2560 C2562 1.394 . S
C2560 H2576 0.931 . S
C2561 C2560 1.391 . S
C2561 C2565 1.376 . S
C2562 C2560 1.394 . S
C2562 C2563 1.369 . S
C2562 C2566 1.531 . S
C2563 C2562 1.369 . S
C2563 C2564 1.410 . S
C2563 C2571 1.503 . S
C2564 C2563 1.410 . S
C2564 C2565 1.392 . S
C2564 C2567 1.511 . S
C2565 C2561 1.376 . S
C2565 C2564 1.392 . S
C2565 H2577 0.929 . S
C2566 C2562 1.531 . S
C2566 H2578 0.960 . S
C2566 H2579 0.962 . S
C2566 H2580 0.960 . S
C2567 C2564 1.511 . S
C2567 H2581 0.961 . S
C2567 H2582 0.961 . S
C2567 H2583 0.961 . S
C2568 C2569 1.370 . S
C2568 C2570 1.363 . S
C2568 H2584 0.931 . S
C2569 C2568 1.370 . S
C2569 C2573 1.408 . S
C2570 C2568 1.363 . S
C2570 C2571 1.370 . S
C2570 C2574 1.524 . S
C2571 C2563 1.503 . S
C2571 C2570 1.370 . S
C2571 C2572 1.403 . S
C2572 C2571 1.403 . S
C2572 C2573 1.404 . S
C2572 C2575 1.539 . S
C2573 C2569 1.408 . S
C2573 C2572 1.404 . S
C2573 H2585 0.930 . S
C2574 C2570 1.524 . S
C2574 H2586 0.956 . S
C2574 H2587 0.961 . S
C2574 H2588 0.961 . S
C2575 C2572 1.539 . S
C2575 H2589 0.958 . S
C2575 H2590 0.961 . S
C2575 H2591 0.960 . S
H2576 C2560 0.931 . S
H2577 C2565 0.929 . S
H2578 C2566 0.960 . S
H2579 C2566 0.962 . S
H2580 C2566 0.960 . S
H2581 C2567 0.961 . S
H2582 C2567 0.961 . S
H2583 C2567 0.961 . S
H2584 C2568 0.931 . S
H2585 C2573 0.930 . S
H2586 C2574 0.956 . S
H2587 C2574 0.961 . S
H2588 C2574 0.961 . S
H2589 C2575 0.958 . S
H2590 C2575 0.961 . S
H2591 C2575 0.960 . S
C2592 C2593 1.391 . S
C2592 C2594 1.394 . S
C2592 H2608 0.931 . S
C2593 C2592 1.391 . S
C2593 C2597 1.376 . S
C2594 C2592 1.394 . S
C2594 C2595 1.369 . S
C2594 C2598 1.531 . S
C2595 C2594 1.369 . S
C2595 C2596 1.410 . S
C2595 C2603 1.503 . S
C2596 C2595 1.410 . S
C2596 C2597 1.392 . S
C2596 C2599 1.511 . S
C2597 C2593 1.376 . S
C2597 C2596 1.392 . S
C2597 H2609 0.929 . S
C2598 C2594 1.531 . S
C2598 H2610 0.960 . S
C2598 H2611 0.962 . S
C2598 H2612 0.960 . S
C2599 C2596 1.511 . S
C2599 H2613 0.961 . S
C2599 H2614 0.961 . S
C2599 H2615 0.961 . S
C2600 C2601 1.370 . S
C2600 C2602 1.363 . S
C2600 H2616 0.931 . S
C2601 C2600 1.370 . S
C2601 C2605 1.408 . S
C2602 C2600 1.363 . S
C2602 C2603 1.370 . S
C2602 C2606 1.524 . S
C2603 C2595 1.503 . S
C2603 C2602 1.370 . S
C2603 C2604 1.403 . S
C2604 C2603 1.403 . S
C2604 C2605 1.404 . S
C2604 C2607 1.539 . S
C2605 C2601 1.408 . S
C2605 C2604 1.404 . S
C2605 H2617 0.930 . S
C2606 C2602 1.524 . S
C2606 H2618 0.956 . S
C2606 H2619 0.961 . S
C2606 H2620 0.961 . S
C2607 C2604 1.539 . S
C2607 H2621 0.958 . S
C2607 H2622 0.961 . S
C2607 H2623 0.960 . S
H2608 C2592 0.931 . S
H2609 C2597 0.929 . S
H2610 C2598 0.960 . S
H2611 C2598 0.962 . S
H2612 C2598 0.960 . S
H2613 C2599 0.961 . S
H2614 C2599 0.961 . S
H2615 C2599 0.961 . S
H2616 C2600 0.931 . S
H2617 C2605 0.930 . S
H2618 C2606 0.956 . S
H2619 C2606 0.961 . S
H2620 C2606 0.961 . S
H2621 C2607 0.958 . S
H2622 C2607 0.961 . S
H2623 C2607 0.960 . S
C2624 C2625 1.391 . S
C2624 C2626 1.394 . S
C2624 H2640 0.931 . S
C2625 C2624 1.391 . S
C2625 C2629 1.376 . S
C2626 C2624 1.394 . S
C2626 C2627 1.369 . S
C2626 C2630 1.531 . S
C2627 C2626 1.369 . S
C2627 C2628 1.410 . S
C2627 C2635 1.503 . S
C2628 C2627 1.410 . S
C2628 C2629 1.392 . S
C2628 C2631 1.511 . S
C2629 C2625 1.376 . S
C2629 C2628 1.392 . S
C2629 H2641 0.929 . S
C2630 C2626 1.531 . S
C2630 H2642 0.960 . S
C2630 H2643 0.962 . S
C2630 H2644 0.960 . S
C2631 C2628 1.511 . S
C2631 H2645 0.961 . S
C2631 H2646 0.961 . S
C2631 H2647 0.961 . S
C2632 C2633 1.370 . S
C2632 C2634 1.363 . S
C2632 H2648 0.931 . S
C2633 C2632 1.370 . S
C2633 C2637 1.408 . S
C2634 C2632 1.363 . S
C2634 C2635 1.370 . S
C2634 C2638 1.524 . S
C2635 C2627 1.503 . S
C2635 C2634 1.370 . S
C2635 C2636 1.403 . S
C2636 C2635 1.403 . S
C2636 C2637 1.404 . S
C2636 C2639 1.539 . S
C2637 C2633 1.408 . S
C2637 C2636 1.404 . S
C2637 H2649 0.930 . S
C2638 C2634 1.524 . S
C2638 H2650 0.956 . S
C2638 H2651 0.961 . S
C2638 H2652 0.961 . S
C2639 C2636 1.539 . S
C2639 H2653 0.958 . S
C2639 H2654 0.961 . S
C2639 H2655 0.960 . S
H2640 C2624 0.931 . S
H2641 C2629 0.929 . S
H2642 C2630 0.960 . S
H2643 C2630 0.962 . S
H2644 C2630 0.960 . S
H2645 C2631 0.961 . S
H2646 C2631 0.961 . S
H2647 C2631 0.961 . S
H2648 C2632 0.931 . S
H2649 C2637 0.930 . S
H2650 C2638 0.956 . S
H2651 C2638 0.961 . S
H2652 C2638 0.961 . S
H2653 C2639 0.958 . S
H2654 C2639 0.961 . S
H2655 C2639 0.960 . S
C2656 C2657 1.391 . S
C2656 C2658 1.394 . S
C2656 H2672 0.931 . S
C2657 C2656 1.391 . S
C2657 C2661 1.376 . S
C2658 C2656 1.394 . S
C2658 C2659 1.369 . S
C2658 C2662 1.531 . S
C2659 C2658 1.369 . S
C2659 C2660 1.410 . S
C2659 C2667 1.503 . S
C2660 C2659 1.410 . S
C2660 C2661 1.392 . S
C2660 C2663 1.511 . S
C2661 C2657 1.376 . S
C2661 C2660 1.392 . S
C2661 H2673 0.929 . S
C2662 C2658 1.531 . S
C2662 H2674 0.960 . S
C2662 H2675 0.962 . S
C2662 H2676 0.960 . S
C2663 C2660 1.511 . S
C2663 H2677 0.961 . S
C2663 H2678 0.961 . S
C2663 H2679 0.961 . S
C2664 C2665 1.370 . S
C2664 C2666 1.363 . S
C2664 H2680 0.931 . S
C2665 C2664 1.370 . S
C2665 C2669 1.408 . S
C2666 C2664 1.363 . S
C2666 C2667 1.370 . S
C2666 C2670 1.524 . S
C2667 C2659 1.503 . S
C2667 C2666 1.370 . S
C2667 C2668 1.403 . S
C2668 C2667 1.403 . S
C2668 C2669 1.404 . S
C2668 C2671 1.539 . S
C2669 C2665 1.408 . S
C2669 C2668 1.404 . S
C2669 H2681 0.930 . S
C2670 C2666 1.524 . S
C2670 H2682 0.956 . S
C2670 H2683 0.961 . S
C2670 H2684 0.961 . S
C2671 C2668 1.539 . S
C2671 H2685 0.958 . S
C2671 H2686 0.961 . S
C2671 H2687 0.960 . S
H2672 C2656 0.931 . S
H2673 C2661 0.929 . S
H2674 C2662 0.960 . S
H2675 C2662 0.962 . S
H2676 C2662 0.960 . S
H2677 C2663 0.961 . S
H2678 C2663 0.961 . S
H2679 C2663 0.961 . S
H2680 C2664 0.931 . S
H2681 C2669 0.930 . S
H2682 C2670 0.956 . S
H2683 C2670 0.961 . S
H2684 C2670 0.961 . S
H2685 C2671 0.958 . S
H2686 C2671 0.961 . S
H2687 C2671 0.960 . S
C2688 C2689 1.391 . S
C2688 C2690 1.394 . S
C2688 H2704 0.931 . S
C2689 C2688 1.391 . S
C2689 C2693 1.376 . S
C2690 C2688 1.394 . S
C2690 C2691 1.369 . S
C2690 C2694 1.531 . S
C2691 C2690 1.369 . S
C2691 C2692 1.410 . S
C2691 C2699 1.503 . S
C2692 C2691 1.410 . S
C2692 C2693 1.392 . S
C2692 C2695 1.511 . S
C2693 C2689 1.376 . S
C2693 C2692 1.392 . S
C2693 H2705 0.929 . S
C2694 C2690 1.531 . S
C2694 H2706 0.960 . S
C2694 H2707 0.962 . S
C2694 H2708 0.960 . S
C2695 C2692 1.511 . S
C2695 H2709 0.961 . S
C2695 H2710 0.961 . S
C2695 H2711 0.961 . S
C2696 C2697 1.370 . S
C2696 C2698 1.363 . S
C2696 H2712 0.931 . S
C2697 C2696 1.370 . S
C2697 C2701 1.408 . S
C2698 C2696 1.363 . S
C2698 C2699 1.370 . S
C2698 C2702 1.524 . S
C2699 C2691 1.503 . S
C2699 C2698 1.370 . S
C2699 C2700 1.403 . S
C2700 C2699 1.403 . S
C2700 C2701 1.404 . S
C2700 C2703 1.539 . S
C2701 C2697 1.408 . S
C2701 C2700 1.404 . S
C2701 H2713 0.930 . S
C2702 C2698 1.524 . S
C2702 H2714 0.956 . S
C2702 H2715 0.961 . S
C2702 H2716 0.961 . S
C2703 C2700 1.539 . S
C2703 H2717 0.958 . S
C2703 H2718 0.961 . S
C2703 H2719 0.960 . S
H2704 C2688 0.931 . S
H2705 C2693 0.929 . S
H2706 C2694 0.960 . S
H2707 C2694 0.962 . S
H2708 C2694 0.960 . S
H2709 C2695 0.961 . S
H2710 C2695 0.961 . S
H2711 C2695 0.961 . S
H2712 C2696 0.931 . S
H2713 C2701 0.930 . S
H2714 C2702 0.956 . S
H2715 C2702 0.961 . S
H2716 C2702 0.961 . S
H2717 C2703 0.958 . S
H2718 C2703 0.961 . S
H2719 C2703 0.960 . S
C2720 C2721 1.391 . S
C2720 C2722 1.394 . S
C2720 H2736 0.931 . S
C2721 C2720 1.391 . S
C2721 C2725 1.376 . S
C2722 C2720 1.394 . S
C2722 C2723 1.369 . S
C2722 C2726 1.531 . S
C2723 C2722 1.369 . S
C2723 C2724 1.410 . S
C2723 C2731 1.503 . S
C2724 C2723 1.410 . S
C2724 C2725 1.392 . S
C2724 C2727 1.511 . S
C2725 C2721 1.376 . S
C2725 C2724 1.392 . S
C2725 H2737 0.929 . S
C2726 C2722 1.531 . S
C2726 H2738 0.960 . S
C2726 H2739 0.962 . S
C2726 H2740 0.960 . S
C2727 C2724 1.511 . S
C2727 H2741 0.961 . S
C2727 H2742 0.961 . S
C2727 H2743 0.961 . S
C2728 C2729 1.370 . S
C2728 C2730 1.363 . S
C2728 H2744 0.931 . S
C2729 C2728 1.370 . S
C2729 C2733 1.408 . S
C2730 C2728 1.363 . S
C2730 C2731 1.370 . S
C2730 C2734 1.524 . S
C2731 C2723 1.503 . S
C2731 C2730 1.370 . S
C2731 C2732 1.403 . S
C2732 C2731 1.403 . S
C2732 C2733 1.404 . S
C2732 C2735 1.539 . S
C2733 C2729 1.408 . S
C2733 C2732 1.404 . S
C2733 H2745 0.930 . S
C2734 C2730 1.524 . S
C2734 H2746 0.956 . S
C2734 H2747 0.961 . S
C2734 H2748 0.961 . S
C2735 C2732 1.539 . S
C2735 H2749 0.958 . S
C2735 H2750 0.961 . S
C2735 H2751 0.960 . S
H2736 C2720 0.931 . S
H2737 C2725 0.929 . S
H2738 C2726 0.960 . S
H2739 C2726 0.962 . S
H2740 C2726 0.960 . S
H2741 C2727 0.961 . S
H2742 C2727 0.961 . S
H2743 C2727 0.961 . S
H2744 C2728 0.931 . S
H2745 C2733 0.930 . S
H2746 C2734 0.956 . S
H2747 C2734 0.961 . S
H2748 C2734 0.961 . S
H2749 C2735 0.958 . S
H2750 C2735 0.961 . S
H2751 C2735 0.960 . S
C2752 C2753 1.391 . S
C2752 C2754 1.394 . S
C2752 H2768 0.931 . S
C2753 C2752 1.391 . S
C2753 C2757 1.376 . S
C2754 C2752 1.394 . S
C2754 C2755 1.369 . S
C2754 C2758 1.531 . S
C2755 C2754 1.369 . S
C2755 C2756 1.410 . S
C2755 C2763 1.503 . S
C2756 C2755 1.410 . S
C2756 C2757 1.392 . S
C2756 C2759 1.511 . S
C2757 C2753 1.376 . S
C2757 C2756 1.392 . S
C2757 H2769 0.929 . S
C2758 C2754 1.531 . S
C2758 H2770 0.960 . S
C2758 H2771 0.962 . S
C2758 H2772 0.960 . S
C2759 C2756 1.511 . S
C2759 H2773 0.961 . S
C2759 H2774 0.961 . S
C2759 H2775 0.961 . S
C2760 C2761 1.370 . S
C2760 C2762 1.363 . S
C2760 H2776 0.931 . S
C2761 C2760 1.370 . S
C2761 C2765 1.408 . S
C2762 C2760 1.363 . S
C2762 C2763 1.370 . S
C2762 C2766 1.524 . S
C2763 C2755 1.503 . S
C2763 C2762 1.370 . S
C2763 C2764 1.403 . S
C2764 C2763 1.403 . S
C2764 C2765 1.404 . S
C2764 C2767 1.539 . S
C2765 C2761 1.408 . S
C2765 C2764 1.404 . S
C2765 H2777 0.930 . S
C2766 C2762 1.524 . S
C2766 H2778 0.956 . S
C2766 H2779 0.961 . S
C2766 H2780 0.961 . S
C2767 C2764 1.539 . S
C2767 H2781 0.958 . S
C2767 H2782 0.961 . S
C2767 H2783 0.960 . S
H2768 C2752 0.931 . S
H2769 C2757 0.929 . S
H2770 C2758 0.960 . S
H2771 C2758 0.962 . S
H2772 C2758 0.960 . S
H2773 C2759 0.961 . S
H2774 C2759 0.961 . S
H2775 C2759 0.961 . S
H2776 C2760 0.931 . S
H2777 C2765 0.930 . S
H2778 C2766 0.956 . S
H2779 C2766 0.961 . S
H2780 C2766 0.961 . S
H2781 C2767 0.958 . S
H2782 C2767 0.961 . S
H2783 C2767 0.960 . S
C2784 C2785 1.391 . S
C2784 C2786 1.394 . S
C2784 H2800 0.931 . S
C2785 C2784 1.391 . S
C2785 C2789 1.376 . S
C2786 C2784 1.394 . S
C2786 C2787 1.369 . S
C2786 C2790 1.531 . S
C2787 C2786 1.369 . S
C2787 C2788 1.410 . S
C2787 C2795 1.503 . S
C2788 C2787 1.410 . S
C2788 C2789 1.392 . S
C2788 C2791 1.511 . S
C2789 C2785 1.376 . S
C2789 C2788 1.392 . S
C2789 H2801 0.929 . S
C2790 C2786 1.531 . S
C2790 H2802 0.960 . S
C2790 H2803 0.962 . S
C2790 H2804 0.960 . S
C2791 C2788 1.511 . S
C2791 H2805 0.961 . S
C2791 H2806 0.961 . S
C2791 H2807 0.961 . S
C2792 C2793 1.370 . S
C2792 C2794 1.363 . S
C2792 H2808 0.931 . S
C2793 C2792 1.370 . S
C2793 C2797 1.408 . S
C2794 C2792 1.363 . S
C2794 C2795 1.370 . S
C2794 C2798 1.524 . S
C2795 C2787 1.503 . S
C2795 C2794 1.370 . S
C2795 C2796 1.403 . S
C2796 C2795 1.403 . S
C2796 C2797 1.404 . S
C2796 C2799 1.539 . S
C2797 C2793 1.408 . S
C2797 C2796 1.404 . S
C2797 H2809 0.930 . S
C2798 C2794 1.524 . S
C2798 H2810 0.956 . S
C2798 H2811 0.961 . S
C2798 H2812 0.961 . S
C2799 C2796 1.539 . S
C2799 H2813 0.958 . S
C2799 H2814 0.961 . S
C2799 H2815 0.960 . S
H2800 C2784 0.931 . S
H2801 C2789 0.929 . S
H2802 C2790 0.960 . S
H2803 C2790 0.962 . S
H2804 C2790 0.960 . S
H2805 C2791 0.961 . S
H2806 C2791 0.961 . S
H2807 C2791 0.961 . S
H2808 C2792 0.931 . S
H2809 C2797 0.930 . S
H2810 C2798 0.956 . S
H2811 C2798 0.961 . S
H2812 C2798 0.961 . S
H2813 C2799 0.958 . S
H2814 C2799 0.961 . S
H2815 C2799 0.960 . S
C2816 C2817 1.391 . S
C2816 C2818 1.394 . S
C2816 H2832 0.931 . S
C2817 C2816 1.391 . S
C2817 C2821 1.376 . S
C2818 C2816 1.394 . S
C2818 C2819 1.369 . S
C2818 C2822 1.531 . S
C2819 C2818 1.369 . S
C2819 C2820 1.410 . S
C2819 C2827 1.503 . S
C2820 C2819 1.410 . S
C2820 C2821 1.392 . S
C2820 C2823 1.511 . S
C2821 C2817 1.376 . S
C2821 C2820 1.392 . S
C2821 H2833 0.929 . S
C2822 C2818 1.531 . S
C2822 H2834 0.960 . S
C2822 H2835 0.962 . S
C2822 H2836 0.960 . S
C2823 C2820 1.511 . S
C2823 H2837 0.961 . S
C2823 H2838 0.961 . S
C2823 H2839 0.961 . S
C2824 C2825 1.370 . S
C2824 C2826 1.363 . S
C2824 H2840 0.931 . S
C2825 C2824 1.370 . S
C2825 C2829 1.408 . S
C2826 C2824 1.363 . S
C2826 C2827 1.370 . S
C2826 C2830 1.524 . S
C2827 C2819 1.503 . S
C2827 C2826 1.370 . S
C2827 C2828 1.403 . S
C2828 C2827 1.403 . S
C2828 C2829 1.404 . S
C2828 C2831 1.539 . S
C2829 C2825 1.408 . S
C2829 C2828 1.404 . S
C2829 H2841 0.930 . S
C2830 C2826 1.524 . S
C2830 H2842 0.956 . S
C2830 H2843 0.961 . S
C2830 H2844 0.961 . S
C2831 C2828 1.539 . S
C2831 H2845 0.958 . S
C2831 H2846 0.961 . S
C2831 H2847 0.960 . S
H2832 C2816 0.931 . S
H2833 C2821 0.929 . S
H2834 C2822 0.960 . S
H2835 C2822 0.962 . S
H2836 C2822 0.960 . S
H2837 C2823 0.961 . S
H2838 C2823 0.961 . S
H2839 C2823 0.961 . S
H2840 C2824 0.931 . S
H2841 C2829 0.930 . S
H2842 C2830 0.956 . S
H2843 C2830 0.961 . S
H2844 C2830 0.961 . S
H2845 C2831 0.958 . S
H2846 C2831 0.961 . S
H2847 C2831 0.960 . S
C2848 C2849 1.391 . S
C2848 C2850 1.394 . S
C2848 H2864 0.931 . S
C2849 C2848 1.391 . S
C2849 C2853 1.376 . S
C2850 C2848 1.394 . S
C2850 C2851 1.369 . S
C2850 C2854 1.531 . S
C2851 C2850 1.369 . S
C2851 C2852 1.410 . S
C2851 C2859 1.503 . S
C2852 C2851 1.410 . S
C2852 C2853 1.392 . S
C2852 C2855 1.511 . S
C2853 C2849 1.376 . S
C2853 C2852 1.392 . S
C2853 H2865 0.929 . S
C2854 C2850 1.531 . S
C2854 H2866 0.960 . S
C2854 H2867 0.962 . S
C2854 H2868 0.960 . S
C2855 C2852 1.511 . S
C2855 H2869 0.961 . S
C2855 H2870 0.961 . S
C2855 H2871 0.961 . S
C2856 C2857 1.370 . S
C2856 C2858 1.363 . S
C2856 H2872 0.931 . S
C2857 C2856 1.370 . S
C2857 C2861 1.408 . S
C2858 C2856 1.363 . S
C2858 C2859 1.370 . S
C2858 C2862 1.524 . S
C2859 C2851 1.503 . S
C2859 C2858 1.370 . S
C2859 C2860 1.403 . S
C2860 C2859 1.403 . S
C2860 C2861 1.404 . S
C2860 C2863 1.539 . S
C2861 C2857 1.408 . S
C2861 C2860 1.404 . S
C2861 H2873 0.930 . S
C2862 C2858 1.524 . S
C2862 H2874 0.956 . S
C2862 H2875 0.961 . S
C2862 H2876 0.961 . S
C2863 C2860 1.539 . S
C2863 H2877 0.958 . S
C2863 H2878 0.961 . S
C2863 H2879 0.960 . S
H2864 C2848 0.931 . S
H2865 C2853 0.929 . S
H2866 C2854 0.960 . S
H2867 C2854 0.962 . S
H2868 C2854 0.960 . S
H2869 C2855 0.961 . S
H2870 C2855 0.961 . S
H2871 C2855 0.961 . S
H2872 C2856 0.931 . S
H2873 C2861 0.930 . S
H2874 C2862 0.956 . S
H2875 C2862 0.961 . S
H2876 C2862 0.961 . S
H2877 C2863 0.958 . S
H2878 C2863 0.961 . S
H2879 C2863 0.960 . S
C2880 C2881 1.391 . S
C2880 C2882 1.394 . S
C2880 H2896 0.931 . S
C2881 C2880 1.391 . S
C2881 C2885 1.376 . S
C2882 C2880 1.394 . S
C2882 C2883 1.369 . S
C2882 C2886 1.531 . S
C2883 C2882 1.369 . S
C2883 C2884 1.410 . S
C2883 C2891 1.503 . S
C2884 C2883 1.410 . S
C2884 C2885 1.392 . S
C2884 C2887 1.511 . S
C2885 C2881 1.376 . S
C2885 C2884 1.392 . S
C2885 H2897 0.929 . S
C2886 C2882 1.531 . S
C2886 H2898 0.960 . S
C2886 H2899 0.962 . S
C2886 H2900 0.960 . S
C2887 C2884 1.511 . S
C2887 H2901 0.961 . S
C2887 H2902 0.961 . S
C2887 H2903 0.961 . S
C2888 C2889 1.370 . S
C2888 C2890 1.363 . S
C2888 H2904 0.931 . S
C2889 C2888 1.370 . S
C2889 C2893 1.408 . S
C2890 C2888 1.363 . S
C2890 C2891 1.370 . S
C2890 C2894 1.524 . S
C2891 C2883 1.503 . S
C2891 C2890 1.370 . S
C2891 C2892 1.403 . S
C2892 C2891 1.403 . S
C2892 C2893 1.404 . S
C2892 C2895 1.539 . S
C2893 C2889 1.408 . S
C2893 C2892 1.404 . S
C2893 H2905 0.930 . S
C2894 C2890 1.524 . S
C2894 H2906 0.956 . S
C2894 H2907 0.961 . S
C2894 H2908 0.961 . S
C2895 C2892 1.539 . S
C2895 H2909 0.958 . S
C2895 H2910 0.961 . S
C2895 H2911 0.960 . S
H2896 C2880 0.931 . S
H2897 C2885 0.929 . S
H2898 C2886 0.960 . S
H2899 C2886 0.962 . S
H2900 C2886 0.960 . S
H2901 C2887 0.961 . S
H2902 C2887 0.961 . S
H2903 C2887 0.961 . S
H2904 C2888 0.931 . S
H2905 C2893 0.930 . S
H2906 C2894 0.956 . S
H2907 C2894 0.961 . S
H2908 C2894 0.961 . S
H2909 C2895 0.958 . S
H2910 C2895 0.961 . S
H2911 C2895 0.960 . S
C2912 C2913 1.391 . S
C2912 C2914 1.394 . S
C2912 H2928 0.931 . S
C2913 C2912 1.391 . S
C2913 C2917 1.376 . S
C2914 C2912 1.394 . S
C2914 C2915 1.369 . S
C2914 C2918 1.531 . S
C2915 C2914 1.369 . S
C2915 C2916 1.410 . S
C2915 C2923 1.503 . S
C2916 C2915 1.410 . S
C2916 C2917 1.392 . S
C2916 C2919 1.511 . S
C2917 C2913 1.376 . S
C2917 C2916 1.392 . S
C2917 H2929 0.929 . S
C2918 C2914 1.531 . S
C2918 H2930 0.960 . S
C2918 H2931 0.962 . S
C2918 H2932 0.960 . S
C2919 C2916 1.511 . S
C2919 H2933 0.961 . S
C2919 H2934 0.961 . S
C2919 H2935 0.961 . S
C2920 C2921 1.370 . S
C2920 C2922 1.363 . S
C2920 H2936 0.931 . S
C2921 C2920 1.370 . S
C2921 C2925 1.408 . S
C2922 C2920 1.363 . S
C2922 C2923 1.370 . S
C2922 C2926 1.524 . S
C2923 C2915 1.503 . S
C2923 C2922 1.370 . S
C2923 C2924 1.403 . S
C2924 C2923 1.403 . S
C2924 C2925 1.404 . S
C2924 C2927 1.539 . S
C2925 C2921 1.408 . S
C2925 C2924 1.404 . S
C2925 H2937 0.930 . S
C2926 C2922 1.524 . S
C2926 H2938 0.956 . S
C2926 H2939 0.961 . S
C2926 H2940 0.961 . S
C2927 C2924 1.539 . S
C2927 H2941 0.958 . S
C2927 H2942 0.961 . S
C2927 H2943 0.960 . S
H2928 C2912 0.931 . S
H2929 C2917 0.929 . S
H2930 C2918 0.960 . S
H2931 C2918 0.962 . S
H2932 C2918 0.960 . S
H2933 C2919 0.961 . S
H2934 C2919 0.961 . S
H2935 C2919 0.961 . S
H2936 C2920 0.931 . S
H2937 C2925 0.930 . S
H2938 C2926 0.956 . S
H2939 C2926 0.961 . S
H2940 C2926 0.961 . S
H2941 C2927 0.958 . S
H2942 C2927 0.961 . S
H2943 C2927 0.960 . S
C2944 C2945 1.391 . S
C2944 C2946 1.394 . S
C2944 H2960 0.931 . S
C2945 C2944 1.391 . S
C2945 C2949 1.376 . S
C2946 C2944 1.394 . S
C2946 C2947 1.369 . S
C2946 C2950 1.531 . S
C2947 C2946 1.369 . S
C2947 C2948 1.410 . S
C2947 C2955 1.503 . S
C2948 C2947 1.410 . S
C2948 C2949 1.392 . S
C2948 C2951 1.511 . S
C2949 C2945 1.376 . S
C2949 C2948 1.392 . S
C2949 H2961 0.929 . S
C2950 C2946 1.531 . S
C2950 H2962 0.960 . S
C2950 H2963 0.962 . S
C2950 H2964 0.960 . S
C2951 C2948 1.511 . S
C2951 H2965 0.961 . S
C2951 H2966 0.961 . S
C2951 H2967 0.961 . S
C2952 C2953 1.370 . S
C2952 C2954 1.363 . S
C2952 H2968 0.931 . S
C2953 C2952 1.370 . S
C2953 C2957 1.408 . S
C2954 C2952 1.363 . S
C2954 C2955 1.370 . S
C2954 C2958 1.524 . S
C2955 C2947 1.503 . S
C2955 C2954 1.370 . S
C2955 C2956 1.403 . S
C2956 C2955 1.403 . S
C2956 C2957 1.404 . S
C2956 C2959 1.539 . S
C2957 C2953 1.408 . S
C2957 C2956 1.404 . S
C2957 H2969 0.930 . S
C2958 C2954 1.524 . S
C2958 H2970 0.956 . S
C2958 H2971 0.961 . S
C2958 H2972 0.961 . S
C2959 C2956 1.539 . S
C2959 H2973 0.958 . S
C2959 H2974 0.961 . S
C2959 H2975 0.960 . S
H2960 C2944 0.931 . S
H2961 C2949 0.929 . S
H2962 C2950 0.960 . S
H2963 C2950 0.962 . S
H2964 C2950 0.960 . S
H2965 C2951 0.961 . S
H2966 C2951 0.961 . S
H2967 C2951 0.961 . S
H2968 C2952 0.931 . S
H2969 C2957 0.930 . S
H2970 C2958 0.956 . S
H2971 C2958 0.961 . S
H2972 C2958 0.961 . S
H2973 C2959 0.958 . S
H2974 C2959 0.961 . S
H2975 C2959 0.960 . S
C2976 C2977 1.391 . S
C2976 C2978 1.394 . S
C2976 H2992 0.931 . S
C2977 C2976 1.391 . S
C2977 C2981 1.376 . S
C2978 C2976 1.394 . S
C2978 C2979 1.369 . S
C2978 C2982 1.531 . S
C2979 C2978 1.369 . S
C2979 C2980 1.410 . S
C2979 C2987 1.503 . S
C2980 C2979 1.410 . S
C2980 C2981 1.392 . S
C2980 C2983 1.511 . S
C2981 C2977 1.376 . S
C2981 C2980 1.392 . S
C2981 H2993 0.929 . S
C2982 C2978 1.531 . S
C2982 H2994 0.960 . S
C2982 H2995 0.962 . S
C2982 H2996 0.960 . S
C2983 C2980 1.511 . S
C2983 H2997 0.961 . S
C2983 H2998 0.961 . S
C2983 H2999 0.961 . S
C2984 C2985 1.370 . S
C2984 C2986 1.363 . S
C2984 H3000 0.931 . S
C2985 C2984 1.370 . S
C2985 C2989 1.408 . S
C2986 C2984 1.363 . S
C2986 C2987 1.370 . S
C2986 C2990 1.524 . S
C2987 C2979 1.503 . S
C2987 C2986 1.370 . S
C2987 C2988 1.403 . S
C2988 C2987 1.403 . S
C2988 C2989 1.404 . S
C2988 C2991 1.539 . S
C2989 C2985 1.408 . S
C2989 C2988 1.404 . S
C2989 H3001 0.930 . S
C2990 C2986 1.524 . S
C2990 H3002 0.956 . S
C2990 H3003 0.961 . S
C2990 H3004 0.961 . S
C2991 C2988 1.539 . S
C2991 H3005 0.958 . S
C2991 H3006 0.961 . S
C2991 H3007 0.960 . S
H2992 C2976 0.931 . S
H2993 C2981 0.929 . S
H2994 C2982 0.960 . S
H2995 C2982 0.962 . S
H2996 C2982 0.960 . S
H2997 C2983 0.961 . S
H2998 C2983 0.961 . S
H2999 C2983 0.961 . S
H3000 C2984 0.931 . S
H3001 C2989 0.930 . S
H3002 C2990 0.956 . S
H3003 C2990 0.961 . S
H3004 C2990 0.961 . S
H3005 C2991 0.958 . S
H3006 C2991 0.961 . S
H3007 C2991 0.960 . S
C3008 C3009 1.391 . S
C3008 C3010 1.394 . S
C3008 H3024 0.931 . S
C3009 C3008 1.391 . S
C3009 C3013 1.376 . S
C3010 C3008 1.394 . S
C3010 C3011 1.369 . S
C3010 C3014 1.531 . S
C3011 C3010 1.369 . S
C3011 C3012 1.410 . S
C3011 C3019 1.503 . S
C3012 C3011 1.410 . S
C3012 C3013 1.392 . S
C3012 C3015 1.511 . S
C3013 C3009 1.376 . S
C3013 C3012 1.392 . S
C3013 H3025 0.929 . S
C3014 C3010 1.531 . S
C3014 H3026 0.960 . S
C3014 H3027 0.962 . S
C3014 H3028 0.960 . S
C3015 C3012 1.511 . S
C3015 H3029 0.961 . S
C3015 H3030 0.961 . S
C3015 H3031 0.961 . S
C3016 C3017 1.370 . S
C3016 C3018 1.363 . S
C3016 H3032 0.931 . S
C3017 C3016 1.370 . S
C3017 C3021 1.408 . S
C3018 C3016 1.363 . S
C3018 C3019 1.370 . S
C3018 C3022 1.524 . S
C3019 C3011 1.503 . S
C3019 C3018 1.370 . S
C3019 C3020 1.403 . S
C3020 C3019 1.403 . S
C3020 C3021 1.404 . S
C3020 C3023 1.539 . S
C3021 C3017 1.408 . S
C3021 C3020 1.404 . S
C3021 H3033 0.930 . S
C3022 C3018 1.524 . S
C3022 H3034 0.956 . S
C3022 H3035 0.961 . S
C3022 H3036 0.961 . S
C3023 C3020 1.539 . S
C3023 H3037 0.958 . S
C3023 H3038 0.961 . S
C3023 H3039 0.960 . S
H3024 C3008 0.931 . S
H3025 C3013 0.929 . S
H3026 C3014 0.960 . S
H3027 C3014 0.962 . S
H3028 C3014 0.960 . S
H3029 C3015 0.961 . S
H3030 C3015 0.961 . S
H3031 C3015 0.961 . S
H3032 C3016 0.931 . S
H3033 C3021 0.930 . S
H3034 C3022 0.956 . S
H3035 C3022 0.961 . S
H3036 C3022 0.961 . S
H3037 C3023 0.958 . S
H3038 C3023 0.961 . S
H3039 C3023 0.960 . S
C3040 C3041 1.391 . S
C3040 C3042 1.394 . S
C3040 H3056 0.931 . S
C3041 C3040 1.391 . S
C3041 C3045 1.376 . S
C3042 C3040 1.394 . S
C3042 C3043 1.369 . S
C3042 C3046 1.531 . S
C3043 C3042 1.369 . S
C3043 C3044 1.410 . S
C3043 C3051 1.503 . S
C3044 C3043 1.410 . S
C3044 C3045 1.392 . S
C3044 C3047 1.511 . S
C3045 C3041 1.376 . S
C3045 C3044 1.392 . S
C3045 H3057 0.929 . S
C3046 C3042 1.531 . S
C3046 H3058 0.960 . S
C3046 H3059 0.962 . S
C3046 H3060 0.960 . S
C3047 C3044 1.511 . S
C3047 H3061 0.961 . S
C3047 H3062 0.961 . S
C3047 H3063 0.961 . S
C3048 C3049 1.370 . S
C3048 C3050 1.363 . S
C3048 H3064 0.931 . S
C3049 C3048 1.370 . S
C3049 C3053 1.408 . S
C3050 C3048 1.363 . S
C3050 C3051 1.370 . S
C3050 C3054 1.524 . S
C3051 C3043 1.503 . S
C3051 C3050 1.370 . S
C3051 C3052 1.403 . S
C3052 C3051 1.403 . S
C3052 C3053 1.404 . S
C3052 C3055 1.539 . S
C3053 C3049 1.408 . S
C3053 C3052 1.404 . S
C3053 H3065 0.930 . S
C3054 C3050 1.524 . S
C3054 H3066 0.956 . S
C3054 H3067 0.961 . S
C3054 H3068 0.961 . S
C3055 C3052 1.539 . S
C3055 H3069 0.958 . S
C3055 H3070 0.961 . S
C3055 H3071 0.960 . S
H3056 C3040 0.931 . S
H3057 C3045 0.929 . S
H3058 C3046 0.960 . S
H3059 C3046 0.962 . S
H3060 C3046 0.960 . S
H3061 C3047 0.961 . S
H3062 C3047 0.961 . S
H3063 C3047 0.961 . S
H3064 C3048 0.931 . S
H3065 C3053 0.930 . S
H3066 C3054 0.956 . S
H3067 C3054 0.961 . S
H3068 C3054 0.961 . S
H3069 C3055 0.958 . S
H3070 C3055 0.961 . S
H3071 C3055 0.960 . S
C3072 C3073 1.391 . S
C3072 C3074 1.394 . S
C3072 H3088 0.931 . S
C3073 C3072 1.391 . S
C3073 C3077 1.376 . S
C3074 C3072 1.394 . S
C3074 C3075 1.369 . S
C3074 C3078 1.531 . S
C3075 C3074 1.369 . S
C3075 C3076 1.410 . S
C3075 C3083 1.503 . S
C3076 C3075 1.410 . S
C3076 C3077 1.392 . S
C3076 C3079 1.511 . S
C3077 C3073 1.376 . S
C3077 C3076 1.392 . S
C3077 H3089 0.929 . S
C3078 C3074 1.531 . S
C3078 H3090 0.960 . S
C3078 H3091 0.962 . S
C3078 H3092 0.960 . S
C3079 C3076 1.511 . S
C3079 H3093 0.961 . S
C3079 H3094 0.961 . S
C3079 H3095 0.961 . S
C3080 C3081 1.370 . S
C3080 C3082 1.363 . S
C3080 H3096 0.931 . S
C3081 C3080 1.370 . S
C3081 C3085 1.408 . S
C3082 C3080 1.363 . S
C3082 C3083 1.370 . S
C3082 C3086 1.524 . S
C3083 C3075 1.503 . S
C3083 C3082 1.370 . S
C3083 C3084 1.403 . S
C3084 C3083 1.403 . S
C3084 C3085 1.404 . S
C3084 C3087 1.539 . S
C3085 C3081 1.408 . S
C3085 C3084 1.404 . S
C3085 H3097 0.930 . S
C3086 C3082 1.524 . S
C3086 H3098 0.956 . S
C3086 H3099 0.961 . S
C3086 H3100 0.961 . S
C3087 C3084 1.539 . S
C3087 H3101 0.958 . S
C3087 H3102 0.961 . S
C3087 H3103 0.960 . S
H3088 C3072 0.931 . S
H3089 C3077 0.929 . S
H3090 C3078 0.960 . S
H3091 C3078 0.962 . S
H3092 C3078 0.960 . S
H3093 C3079 0.961 . S
H3094 C3079 0.961 . S
H3095 C3079 0.961 . S
H3096 C3080 0.931 . S
H3097 C3085 0.930 . S
H3098 C3086 0.956 . S
H3099 C3086 0.961 . S
H3100 C3086 0.961 . S
H3101 C3087 0.958 . S
H3102 C3087 0.961 . S
H3103 C3087 0.960 . S
C3104 C3105 1.391 . S
C3104 C3106 1.394 . S
C3104 H3120 0.931 . S
C3105 C3104 1.391 . S
C3105 C3109 1.376 . S
C3106 C3104 1.394 . S
C3106 C3107 1.369 . S
C3106 C3110 1.531 . S
C3107 C3106 1.369 . S
C3107 C3108 1.410 . S
C3107 C3115 1.503 . S
C3108 C3107 1.410 . S
C3108 C3109 1.392 . S
C3108 C3111 1.511 . S
C3109 C3105 1.376 . S
C3109 C3108 1.392 . S
C3109 H3121 0.929 . S
C3110 C3106 1.531 . S
C3110 H3122 0.960 . S
C3110 H3123 0.962 . S
C3110 H3124 0.960 . S
C3111 C3108 1.511 . S
C3111 H3125 0.961 . S
C3111 H3126 0.961 . S
C3111 H3127 0.961 . S
C3112 C3113 1.370 . S
C3112 C3114 1.363 . S
C3112 H3128 0.931 . S
C3113 C3112 1.370 . S
C3113 C3117 1.408 . S
C3114 C3112 1.363 . S
C3114 C3115 1.370 . S
C3114 C3118 1.524 . S
C3115 C3107 1.503 . S
C3115 C3114 1.370 . S
C3115 C3116 1.403 . S
C3116 C3115 1.403 . S
C3116 C3117 1.404 . S
C3116 C3119 1.539 . S
C3117 C3113 1.408 . S
C3117 C3116 1.404 . S
C3117 H3129 0.930 . S
C3118 C3114 1.524 . S
C3118 H3130 0.956 . S
C3118 H3131 0.961 . S
C3118 H3132 0.961 . S
C3119 C3116 1.539 . S
C3119 H3133 0.958 . S
C3119 H3134 0.961 . S
C3119 H3135 0.960 . S
H3120 C3104 0.931 . S
H3121 C3109 0.929 . S
H3122 C3110 0.960 . S
H3123 C3110 0.962 . S
H3124 C3110 0.960 . S
H3125 C3111 0.961 . S
H3126 C3111 0.961 . S
H3127 C3111 0.961 . S
H3128 C3112 0.931 . S
H3129 C3117 0.930 . S
H3130 C3118 0.956 . S
H3131 C3118 0.961 . S
H3132 C3118 0.961 . S
H3133 C3119 0.958 . S
H3134 C3119 0.961 . S
H3135 C3119 0.960 . S
C3136 C3137 1.391 . S
C3136 C3138 1.394 . S
C3136 H3152 0.931 . S
C3137 C3136 1.391 . S
C3137 C3141 1.376 . S
C3138 C3136 1.394 . S
C3138 C3139 1.369 . S
C3138 C3142 1.531 . S
C3139 C3138 1.369 . S
C3139 C3140 1.410 . S
C3139 C3147 1.503 . S
C3140 C3139 1.410 . S
C3140 C3141 1.392 . S
C3140 C3143 1.511 . S
C3141 C3137 1.376 . S
C3141 C3140 1.392 . S
C3141 H3153 0.929 . S
C3142 C3138 1.531 . S
C3142 H3154 0.960 . S
C3142 H3155 0.962 . S
C3142 H3156 0.960 . S
C3143 C3140 1.511 . S
C3143 H3157 0.961 . S
C3143 H3158 0.961 . S
C3143 H3159 0.961 . S
C3144 C3145 1.370 . S
C3144 C3146 1.363 . S
C3144 H3160 0.931 . S
C3145 C3144 1.370 . S
C3145 C3149 1.408 . S
C3146 C3144 1.363 . S
C3146 C3147 1.370 . S
C3146 C3150 1.524 . S
C3147 C3139 1.503 . S
C3147 C3146 1.370 . S
C3147 C3148 1.403 . S
C3148 C3147 1.403 . S
C3148 C3149 1.404 . S
C3148 C3151 1.539 . S
C3149 C3145 1.408 . S
C3149 C3148 1.404 . S
C3149 H3161 0.930 . S
C3150 C3146 1.524 . S
C3150 H3162 0.956 . S
C3150 H3163 0.961 . S
C3150 H3164 0.961 . S
C3151 C3148 1.539 . S
C3151 H3165 0.958 . S
C3151 H3166 0.961 . S
C3151 H3167 0.960 . S
H3152 C3136 0.931 . S
H3153 C3141 0.929 . S
H3154 C3142 0.960 . S
H3155 C3142 0.962 . S
H3156 C3142 0.960 . S
H3157 C3143 0.961 . S
H3158 C3143 0.961 . S
H3159 C3143 0.961 . S
H3160 C3144 0.931 . S
H3161 C3149 0.930 . S
H3162 C3150 0.956 . S
H3163 C3150 0.961 . S
H3164 C3150 0.961 . S
H3165 C3151 0.958 . S
H3166 C3151 0.961 . S
H3167 C3151 0.960 . S
C3168 C3169 1.391 . S
C3168 C3170 1.394 . S
C3168 H3184 0.931 . S
C3169 C3168 1.391 . S
C3169 C3173 1.376 . S
C3170 C3168 1.394 . S
C3170 C3171 1.369 . S
C3170 C3174 1.531 . S
C3171 C3170 1.369 . S
C3171 C3172 1.410 . S
C3171 C3179 1.503 . S
C3172 C3171 1.410 . S
C3172 C3173 1.392 . S
C3172 C3175 1.511 . S
C3173 C3169 1.376 . S
C3173 C3172 1.392 . S
C3173 H3185 0.929 . S
C3174 C3170 1.531 . S
C3174 H3186 0.960 . S
C3174 H3187 0.962 . S
C3174 H3188 0.960 . S
C3175 C3172 1.511 . S
C3175 H3189 0.961 . S
C3175 H3190 0.961 . S
C3175 H3191 0.961 . S
C3176 C3177 1.370 . S
C3176 C3178 1.363 . S
C3176 H3192 0.931 . S
C3177 C3176 1.370 . S
C3177 C3181 1.408 . S
C3178 C3176 1.363 . S
C3178 C3179 1.370 . S
C3178 C3182 1.524 . S
C3179 C3171 1.503 . S
C3179 C3178 1.370 . S
C3179 C3180 1.403 . S
C3180 C3179 1.403 . S
C3180 C3181 1.404 . S
C3180 C3183 1.539 . S
C3181 C3177 1.408 . S
C3181 C3180 1.404 . S
C3181 H3193 0.930 . S
C3182 C3178 1.524 . S
C3182 H3194 0.956 . S
C3182 H3195 0.961 . S
C3182 H3196 0.961 . S
C3183 C3180 1.539 . S
C3183 H3197 0.958 . S
C3183 H3198 0.961 . S
C3183 H3199 0.960 . S
H3184 C3168 0.931 . S
H3185 C3173 0.929 . S
H3186 C3174 0.960 . S
H3187 C3174 0.962 . S
H3188 C3174 0.960 . S
H3189 C3175 0.961 . S
H3190 C3175 0.961 . S
H3191 C3175 0.961 . S
H3192 C3176 0.931 . S
H3193 C3181 0.930 . S
H3194 C3182 0.956 . S
H3195 C3182 0.961 . S
H3196 C3182 0.961 . S
H3197 C3183 0.958 . S
H3198 C3183 0.961 . S
H3199 C3183 0.960 . S
C3200 C3201 1.391 . S
C3200 C3202 1.394 . S
C3200 H3216 0.931 . S
C3201 C3200 1.391 . S
C3201 C3205 1.376 . S
C3202 C3200 1.394 . S
C3202 C3203 1.369 . S
C3202 C3206 1.531 . S
C3203 C3202 1.369 . S
C3203 C3204 1.410 . S
C3203 C3211 1.503 . S
C3204 C3203 1.410 . S
C3204 C3205 1.392 . S
C3204 C3207 1.511 . S
C3205 C3201 1.376 . S
C3205 C3204 1.392 . S
C3205 H3217 0.929 . S
C3206 C3202 1.531 . S
C3206 H3218 0.960 . S
C3206 H3219 0.962 . S
C3206 H3220 0.960 . S
C3207 C3204 1.511 . S
C3207 H3221 0.961 . S
C3207 H3222 0.961 . S
C3207 H3223 0.961 . S
C3208 C3209 1.370 . S
C3208 C3210 1.363 . S
C3208 H3224 0.931 . S
C3209 C3208 1.370 . S
C3209 C3213 1.408 . S
C3210 C3208 1.363 . S
C3210 C3211 1.370 . S
C3210 C3214 1.524 . S
C3211 C3203 1.503 . S
C3211 C3210 1.370 . S
C3211 C3212 1.403 . S
C3212 C3211 1.403 . S
C3212 C3213 1.404 . S
C3212 C3215 1.539 . S
C3213 C3209 1.408 . S
C3213 C3212 1.404 . S
C3213 H3225 0.930 . S
C3214 C3210 1.524 . S
C3214 H3226 0.956 . S
C3214 H3227 0.961 . S
C3214 H3228 0.961 . S
C3215 C3212 1.539 . S
C3215 H3229 0.958 . S
C3215 H3230 0.961 . S
C3215 H3231 0.960 . S
H3216 C3200 0.931 . S
H3217 C3205 0.929 . S
H3218 C3206 0.960 . S
H3219 C3206 0.962 . S
H3220 C3206 0.960 . S
H3221 C3207 0.961 . S
H3222 C3207 0.961 . S
H3223 C3207 0.961 . S
H3224 C3208 0.931 . S
H3225 C3213 0.930 . S
H3226 C3214 0.956 . S
H3227 C3214 0.961 . S
H3228 C3214 0.961 . S
H3229 C3215 0.958 . S
H3230 C3215 0.961 . S
H3231 C3215 0.960 . S
C3232 C3233 1.391 . S
C3232 C3234 1.394 . S
C3232 H3248 0.931 . S
C3233 C3232 1.391 . S
C3233 C3237 1.376 . S
C3234 C3232 1.394 . S
C3234 C3235 1.369 . S
C3234 C3238 1.531 . S
C3235 C3234 1.369 . S
C3235 C3236 1.410 . S
C3235 C3243 1.503 . S
C3236 C3235 1.410 . S
C3236 C3237 1.392 . S
C3236 C3239 1.511 . S
C3237 C3233 1.376 . S
C3237 C3236 1.392 . S
C3237 H3249 0.929 . S
C3238 C3234 1.531 . S
C3238 H3250 0.960 . S
C3238 H3251 0.962 . S
C3238 H3252 0.960 . S
C3239 C3236 1.511 . S
C3239 H3253 0.961 . S
C3239 H3254 0.961 . S
C3239 H3255 0.961 . S
C3240 C3241 1.370 . S
C3240 C3242 1.363 . S
C3240 H3256 0.931 . S
C3241 C3240 1.370 . S
C3241 C3245 1.408 . S
C3242 C3240 1.363 . S
C3242 C3243 1.370 . S
C3242 C3246 1.524 . S
C3243 C3235 1.503 . S
C3243 C3242 1.370 . S
C3243 C3244 1.403 . S
C3244 C3243 1.403 . S
C3244 C3245 1.404 . S
C3244 C3247 1.539 . S
C3245 C3241 1.408 . S
C3245 C3244 1.404 . S
C3245 H3257 0.930 . S
C3246 C3242 1.524 . S
C3246 H3258 0.956 . S
C3246 H3259 0.961 . S
C3246 H3260 0.961 . S
C3247 C3244 1.539 . S
C3247 H3261 0.958 . S
C3247 H3262 0.961 . S
C3247 H3263 0.960 . S
H3248 C3232 0.931 . S
H3249 C3237 0.929 . S
H3250 C3238 0.960 . S
H3251 C3238 0.962 . S
H3252 C3238 0.960 . S
H3253 C3239 0.961 . S
H3254 C3239 0.961 . S
H3255 C3239 0.961 . S
H3256 C3240 0.931 . S
H3257 C3245 0.930 . S
H3258 C3246 0.956 . S
H3259 C3246 0.961 . S
H3260 C3246 0.961 . S
H3261 C3247 0.958 . S
H3262 C3247 0.961 . S
H3263 C3247 0.960 . S
C3264 C3265 1.391 . S
C3264 C3266 1.394 . S
C3264 H3280 0.931 . S
C3265 C3264 1.391 . S
C3265 C3269 1.376 . S
C3266 C3264 1.394 . S
C3266 C3267 1.369 . S
C3266 C3270 1.531 . S
C3267 C3266 1.369 . S
C3267 C3268 1.410 . S
C3267 C3275 1.503 . S
C3268 C3267 1.410 . S
C3268 C3269 1.392 . S
C3268 C3271 1.511 . S
C3269 C3265 1.376 . S
C3269 C3268 1.392 . S
C3269 H3281 0.929 . S
C3270 C3266 1.531 . S
C3270 H3282 0.960 . S
C3270 H3283 0.962 . S
C3270 H3284 0.960 . S
C3271 C3268 1.511 . S
C3271 H3285 0.961 . S
C3271 H3286 0.961 . S
C3271 H3287 0.961 . S
C3272 C3273 1.370 . S
C3272 C3274 1.363 . S
C3272 H3288 0.931 . S
C3273 C3272 1.370 . S
C3273 C3277 1.408 . S
C3274 C3272 1.363 . S
C3274 C3275 1.370 . S
C3274 C3278 1.524 . S
C3275 C3267 1.503 . S
C3275 C3274 1.370 . S
C3275 C3276 1.403 . S
C3276 C3275 1.403 . S
C3276 C3277 1.404 . S
C3276 C3279 1.539 . S
C3277 C3273 1.408 . S
C3277 C3276 1.404 . S
C3277 H3289 0.930 . S
C3278 C3274 1.524 . S
C3278 H3290 0.956 . S
C3278 H3291 0.961 . S
C3278 H3292 0.961 . S
C3279 C3276 1.539 . S
C3279 H3293 0.958 . S
C3279 H3294 0.961 . S
C3279 H3295 0.960 . S
H3280 C3264 0.931 . S
H3281 C3269 0.929 . S
H3282 C3270 0.960 . S
H3283 C3270 0.962 . S
H3284 C3270 0.960 . S
H3285 C3271 0.961 . S
H3286 C3271 0.961 . S
H3287 C3271 0.961 . S
H3288 C3272 0.931 . S
H3289 C3277 0.930 . S
H3290 C3278 0.956 . S
H3291 C3278 0.961 . S
H3292 C3278 0.961 . S
H3293 C3279 0.958 . S
H3294 C3279 0.961 . S
H3295 C3279 0.960 . S
C3296 C3297 1.391 . S
C3296 C3298 1.394 . S
C3296 H3312 0.931 . S
C3297 C3296 1.391 . S
C3297 C3301 1.376 . S
C3298 C3296 1.394 . S
C3298 C3299 1.369 . S
C3298 C3302 1.531 . S
C3299 C3298 1.369 . S
C3299 C3300 1.410 . S
C3299 C3307 1.503 . S
C3300 C3299 1.410 . S
C3300 C3301 1.392 . S
C3300 C3303 1.511 . S
C3301 C3297 1.376 . S
C3301 C3300 1.392 . S
C3301 H3313 0.929 . S
C3302 C3298 1.531 . S
C3302 H3314 0.960 . S
C3302 H3315 0.962 . S
C3302 H3316 0.960 . S
C3303 C3300 1.511 . S
C3303 H3317 0.961 . S
C3303 H3318 0.961 . S
C3303 H3319 0.961 . S
C3304 C3305 1.370 . S
C3304 C3306 1.363 . S
C3304 H3320 0.931 . S
C3305 C3304 1.370 . S
C3305 C3309 1.408 . S
C3306 C3304 1.363 . S
C3306 C3307 1.370 . S
C3306 C3310 1.524 . S
C3307 C3299 1.503 . S
C3307 C3306 1.370 . S
C3307 C3308 1.403 . S
C3308 C3307 1.403 . S
C3308 C3309 1.404 . S
C3308 C3311 1.539 . S
C3309 C3305 1.408 . S
C3309 C3308 1.404 . S
C3309 H3321 0.930 . S
C3310 C3306 1.524 . S
C3310 H3322 0.956 . S
C3310 H3323 0.961 . S
C3310 H3324 0.961 . S
C3311 C3308 1.539 . S
C3311 H3325 0.958 . S
C3311 H3326 0.961 . S
C3311 H3327 0.960 . S
H3312 C3296 0.931 . S
H3313 C3301 0.929 . S
H3314 C3302 0.960 . S
H3315 C3302 0.962 . S
H3316 C3302 0.960 . S
H3317 C3303 0.961 . S
H3318 C3303 0.961 . S
H3319 C3303 0.961 . S
H3320 C3304 0.931 . S
H3321 C3309 0.930 . S
H3322 C3310 0.956 . S
H3323 C3310 0.961 . S
H3324 C3310 0.961 . S
H3325 C3311 0.958 . S
H3326 C3311 0.961 . S
H3327 C3311 0.960 . S
C3328 C3329 1.391 . S
C3328 C3330 1.394 . S
C3328 H3344 0.931 . S
C3329 C3328 1.391 . S
C3329 C3333 1.376 . S
C3330 C3328 1.394 . S
C3330 C3331 1.369 . S
C3330 C3334 1.531 . S
C3331 C3330 1.369 . S
C3331 C3332 1.410 . S
C3331 C3339 1.503 . S
C3332 C3331 1.410 . S
C3332 C3333 1.392 . S
C3332 C3335 1.517 . S
C3333 C3329 1.376 . S
C3333 C3332 1.392 . S
C3333 H3345 0.929 1_565 S
C3334 C3330 1.531 . S
C3334 H3346 0.960 . S
C3334 H3347 0.962 . S
C3334 H3348 0.960 . S
C3335 C3332 1.517 . S
C3335 H3349 0.942 1_566 S
C3335 H3350 0.953 1_565 S
C3335 H3351 0.983 1_556 S
C3336 C3337 1.370 1_545 S
C3336 C3338 1.363 . S
C3336 H3352 0.931 . S
C3337 C3336 1.370 1_565 S
C3337 C3341 1.408 . S
C3338 C3336 1.363 . S
C3338 C3339 1.370 1_545 S
C3338 C3342 1.524 . S
C3339 C3331 1.503 . S
C3339 C3338 1.370 1_565 S
C3339 C3340 1.403 . S
C3340 C3339 1.403 . S
C3340 C3341 1.404 . S
C3340 C3343 1.539 . S
C3341 C3337 1.408 . S
C3341 C3340 1.404 . S
C3341 H3353 0.930 . S
C3342 C3338 1.524 . S
C3342 H3354 0.956 . S
C3342 H3355 0.961 . S
C3342 H3356 0.961 . S
C3343 C3340 1.539 . S
C3343 H3357 0.958 . S
C3343 H3358 0.961 . S
C3343 H3359 0.960 . S
H3344 C3328 0.931 . S
H3345 C3333 0.929 1_545 S
H3346 C3334 0.960 . S
H3347 C3334 0.962 . S
H3348 C3334 0.960 . S
H3349 C3335 0.942 1_544 S
H3350 C3335 0.953 1_545 S
H3351 C3335 0.983 1_554 S
H3352 C3336 0.931 . S
H3353 C3341 0.930 . S
H3354 C3342 0.956 . S
H3355 C3342 0.961 . S
H3356 C3342 0.961 . S
H3357 C3343 0.958 . S
H3358 C3343 0.961 . S
H3359 C3343 0.960 . S
C3360 C3361 1.391 . S
C3360 C3362 1.394 . S
C3360 H3376 0.931 . S
C3361 C3360 1.391 . S
C3361 C3365 1.376 . S
C3362 C3360 1.394 . S
C3362 C3363 1.369 . S
C3362 C3366 1.531 . S
C3363 C3362 1.369 . S
C3363 C3364 1.410 . S
C3363 C3371 1.503 . S
C3364 C3363 1.410 . S
C3364 C3365 1.392 . S
C3364 C3367 1.511 . S
C3365 C3361 1.376 . S
C3365 C3364 1.392 . S
C3365 H3377 0.929 . S
C3366 C3362 1.531 . S
C3366 H3378 0.960 . S
C3366 H3379 0.962 . S
C3366 H3380 0.960 . S
C3367 C3364 1.511 . S
C3367 H3381 0.961 . S
C3367 H3382 0.961 . S
C3367 H3383 0.961 . S
C3368 C3369 1.370 1_455 S
C3368 C3370 1.363 . S
C3368 H3384 0.931 1_455 S
C3369 C3368 1.370 1_655 S
C3369 C3373 1.408 1_655 S
C3370 C3368 1.363 . S
C3370 C3371 1.370 . S
C3370 C3374 1.524 . S
C3371 C3363 1.503 . S
C3371 C3370 1.370 . S
C3371 C3372 1.403 . S
C3372 C3371 1.403 . S
C3372 C3373 1.404 . S
C3372 C3375 1.539 . S
C3373 C3369 1.408 1_455 S
C3373 C3372 1.404 . S
C3373 H3385 0.930 . S
C3374 C3370 1.524 . S
C3374 H3386 0.956 . S
C3374 H3387 0.961 . S
C3374 H3388 0.961 . S
C3375 C3372 1.539 . S
C3375 H3389 0.958 . S
C3375 H3390 0.961 . S
C3375 H3391 0.960 . S
H3376 C3360 0.931 . S
H3377 C3365 0.929 . S
H3378 C3366 0.960 . S
H3379 C3366 0.962 . S
H3380 C3366 0.960 . S
H3381 C3367 0.961 . S
H3382 C3367 0.961 . S
H3383 C3367 0.961 . S
H3384 C3368 0.931 1_655 S
H3385 C3373 0.930 . S
H3386 C3374 0.956 . S
H3387 C3374 0.961 . S
H3388 C3374 0.961 . S
H3389 C3375 0.958 . S
H3390 C3375 0.961 . S
H3391 C3375 0.960 . S
C3392 C3393 1.391 . S
C3392 C3394 1.394 . S
C3392 H3408 0.931 . S
C3393 C3392 1.391 . S
C3393 C3397 1.376 . S
C3394 C3392 1.394 . S
C3394 C3395 1.369 . S
C3394 C3398 1.531 . S
C3395 C3394 1.369 . S
C3395 C3396 1.410 . S
C3395 C3403 1.503 . S
C3396 C3395 1.410 . S
C3396 C3397 1.392 . S
C3396 C3399 1.511 . S
C3397 C3393 1.376 . S
C3397 C3396 1.392 . S
C3397 H3409 0.929 . S
C3398 C3394 1.531 . S
C3398 H3410 0.960 . S
C3398 H3411 0.962 . S
C3398 H3412 0.960 . S
C3399 C3396 1.511 . S
C3399 H3413 0.961 . S
C3399 H3414 0.961 . S
C3399 H3415 0.961 . S
C3400 C3401 1.370 . S
C3400 C3402 1.363 . S
C3400 H3416 0.931 . S
C3401 C3400 1.370 . S
C3401 C3405 1.408 . S
C3402 C3400 1.363 . S
C3402 C3403 1.370 . S
C3402 C3406 1.524 . S
C3403 C3395 1.503 . S
C3403 C3402 1.370 . S
C3403 C3404 1.403 . S
C3404 C3403 1.403 . S
C3404 C3405 1.404 . S
C3404 C3407 1.539 . S
C3405 C3401 1.408 . S
C3405 C3404 1.404 . S
C3405 H3417 0.930 . S
C3406 C3402 1.524 . S
C3406 H3418 0.956 . S
C3406 H3419 0.961 . S
C3406 H3420 0.961 . S
C3407 C3404 1.539 . S
C3407 H3421 0.958 . S
C3407 H3422 0.961 . S
C3407 H3423 0.960 . S
H3408 C3392 0.931 . S
H3409 C3397 0.929 . S
H3410 C3398 0.960 . S
H3411 C3398 0.962 . S
H3412 C3398 0.960 . S
H3413 C3399 0.961 . S
H3414 C3399 0.961 . S
H3415 C3399 0.961 . S
H3416 C3400 0.931 . S
H3417 C3405 0.930 . S
H3418 C3406 0.956 . S
H3419 C3406 0.961 . S
H3420 C3406 0.961 . S
H3421 C3407 0.958 . S
H3422 C3407 0.961 . S
H3423 C3407 0.960 . S
C3424 C3425 1.391 1_445 S
C3424 C3426 1.394 . S
C3424 H3440 0.931 . S
C3425 C3424 1.391 1_665 S
C3425 C3429 1.376 1_655 S
C3426 C3424 1.394 . S
C3426 C3427 1.369 1_545 S
C3426 C3430 1.531 . S
C3427 C3426 1.369 1_565 S
C3427 C3428 1.410 . S
C3427 C3435 1.503 . S
C3428 C3427 1.410 . S
C3428 C3429 1.392 . S
C3428 C3431 1.511 . S
C3429 C3425 1.376 1_455 S
C3429 C3428 1.392 . S
C3429 H3441 0.929 1_455 S
C3430 C3426 1.531 . S
C3430 H3442 0.960 . S
C3430 H3443 0.962 . S
C3430 H3444 0.960 . S
C3431 C3428 1.511 . S
C3431 H3445 0.961 . S
C3431 H3446 0.961 . S
C3431 H3447 0.961 . S
C3432 C3433 1.370 . S
C3432 C3434 1.363 . S
C3432 H3448 0.931 . S
C3433 C3432 1.370 . S
C3433 C3437 1.408 . S
C3434 C3432 1.363 . S
C3434 C3435 1.370 . S
C3434 C3438 1.524 . S
C3435 C3427 1.503 . S
C3435 C3434 1.370 . S
C3435 C3436 1.403 . S
C3436 C3435 1.403 . S
C3436 C3437 1.404 . S
C3436 C3439 1.539 . S
C3437 C3433 1.408 . S
C3437 C3436 1.404 . S
C3437 H3449 0.930 . S
C3438 C3434 1.524 . S
C3438 H3450 0.956 1_565 S
C3438 H3451 0.961 . S
C3438 H3452 0.961 . S
C3439 C3436 1.539 . S
C3439 H3453 0.958 . S
C3439 H3454 0.961 . S
C3439 H3455 0.960 . S
H3440 C3424 0.931 . S
H3441 C3429 0.929 1_655 S
H3442 C3430 0.960 . S
H3443 C3430 0.962 . S
H3444 C3430 0.960 . S
H3445 C3431 0.961 . S
H3446 C3431 0.961 . S
H3447 C3431 0.961 . S
H3448 C3432 0.931 . S
H3449 C3437 0.930 . S
H3450 C3438 0.956 1_545 S
H3451 C3438 0.961 . S
H3452 C3438 0.961 . S
H3453 C3439 0.958 . S
H3454 C3439 0.961 . S
H3455 C3439 0.960 . S
C3456 C3457 1.391 . S
C3456 C3458 1.394 . S
C3456 H3472 0.931 . S
C3457 C3456 1.391 . S
C3457 C3461 1.376 . S
C3458 C3456 1.394 . S
C3458 C3459 1.369 . S
C3458 C3462 1.531 . S
C3459 C3458 1.369 . S
C3459 C3460 1.397 1_545 S
C3459 C3467 1.503 . S
C3460 C3459 1.397 1_565 S
C3460 C3461 1.386 1_565 S
C3460 C3463 1.531 . S
C3461 C3457 1.376 . S
C3461 C3460 1.386 1_545 S
C3461 H3473 0.929 1_545 S
C3462 C3458 1.531 . S
C3462 H3474 0.960 . S
C3462 H3475 0.962 . S
C3462 H3476 0.960 1_554 S
C3463 C3460 1.531 . S
C3463 H3477 0.961 . S
C3463 H3478 0.961 . S
C3463 H3479 0.961 . S
C3464 C3465 1.370 . S
C3464 C3466 1.363 . S
C3464 H3480 0.931 . S
C3465 C3464 1.370 . S
C3465 C3469 1.408 1_545 S
C3466 C3464 1.363 . S
C3466 C3467 1.370 . S
C3466 C3470 1.524 . S
C3467 C3459 1.503 . S
C3467 C3466 1.370 . S
C3467 C3468 1.403 1_545 S
C3468 C3467 1.403 1_565 S
C3468 C3469 1.404 . S
C3468 C3471 1.539 . S
C3469 C3465 1.408 1_565 S
C3469 C3468 1.404 . S
C3469 H3481 0.930 . S
C3470 C3466 1.524 . S
C3470 H3482 0.956 . S
C3470 H3483 0.961 . S
C3470 H3484 0.961 . S
C3471 C3468 1.539 . S
C3471 H3485 0.958 . S
C3471 H3486 0.961 . S
C3471 H3487 0.960 . S
H3472 C3456 0.931 . S
H3473 C3461 0.929 1_565 S
H3474 C3462 0.960 . S
H3475 C3462 0.962 . S
H3476 C3462 0.960 1_556 S
H3477 C3463 0.961 . S
H3478 C3463 0.961 . S
H3479 C3463 0.961 . S
H3480 C3464 0.931 . S
H3481 C3469 0.930 . S
H3482 C3470 0.956 . S
H3483 C3470 0.961 . S
H3484 C3470 0.961 . S
H3485 C3471 0.958 . S
H3486 C3471 0.961 . S
H3487 C3471 0.960 . S
C3488 C3489 1.391 1_655 S
C3488 C3490 1.394 . S
C3488 H3504 0.931 . S
C3489 C3488 1.391 1_455 S
C3489 C3493 1.376 1_455 S
C3490 C3488 1.394 . S
C3490 C3491 1.369 . S
C3490 C3494 1.531 . S
C3491 C3490 1.369 . S
C3491 C3492 1.410 . S
C3491 C3499 1.503 . S
C3492 C3491 1.410 . S
C3492 C3493 1.392 . S
C3492 C3495 1.511 . S
C3493 C3489 1.376 1_655 S
C3493 C3492 1.392 . S
C3493 H3505 0.929 1_655 S
C3494 C3490 1.531 . S
C3494 H3506 0.960 . S
C3494 H3507 0.962 . S
C3494 H3508 0.960 . S
C3495 C3492 1.511 . S
C3495 H3509 0.961 . S
C3495 H3510 0.961 . S
C3495 H3511 0.972 . S
C3496 C3497 1.370 . S
C3496 C3498 1.363 . S
C3496 H3512 0.931 . S
C3497 C3496 1.370 . S
C3497 C3501 1.408 . S
C3498 C3496 1.363 . S
C3498 C3499 1.370 . S
C3498 C3502 1.524 . S
C3499 C3491 1.503 . S
C3499 C3498 1.370 . S
C3499 C3500 1.403 . S
C3500 C3499 1.403 . S
C3500 C3501 1.404 . S
C3500 C3503 1.539 . S
C3501 C3497 1.408 . S
C3501 C3500 1.404 . S
C3501 H3513 0.930 . S
C3502 C3498 1.524 . S
C3502 H3514 0.956 . S
C3502 H3515 0.961 . S
C3502 H3516 0.961 . S
C3503 C3500 1.539 . S
C3503 H3517 0.958 . S
C3503 H3518 0.961 1_554 S
C3503 H3519 0.960 . S
H3504 C3488 0.931 . S
H3505 C3493 0.929 1_455 S
H3506 C3494 0.960 . S
H3507 C3494 0.962 . S
H3508 C3494 0.960 . S
H3509 C3495 0.961 . S
H3510 C3495 0.961 . S
H3511 C3495 0.972 . S
H3512 C3496 0.931 . S
H3513 C3501 0.930 . S
H3514 C3502 0.956 . S
H3515 C3502 0.961 . S
H3516 C3502 0.961 . S
H3517 C3503 0.958 . S
H3518 C3503 0.961 1_556 S
H3519 C3503 0.960 . S
C3520 C3521 1.391 . S
C3520 C3522 1.394 . S
C3520 H3536 0.931 . S
C3521 C3520 1.391 . S
C3521 C3525 1.376 . S
C3522 C3520 1.394 . S
C3522 C3523 1.369 . S
C3522 C3526 1.531 . S
C3523 C3522 1.369 . S
C3523 C3524 1.410 . S
C3523 C3531 1.503 . S
C3524 C3523 1.410 . S
C3524 C3525 1.392 . S
C3524 C3527 1.511 . S
C3525 C3521 1.376 . S
C3525 C3524 1.392 . S
C3525 H3537 0.929 . S
C3526 C3522 1.531 . S
C3526 H3538 0.960 . S
C3526 H3539 0.962 . S
C3526 H3540 0.960 . S
C3527 C3524 1.511 . S
C3527 H3541 0.961 . S
C3527 H3542 0.961 . S
C3527 H3543 0.961 . S
C3528 C3529 1.370 . S
C3528 C3530 1.363 . S
C3528 H3544 0.931 . S
C3529 C3528 1.370 . S
C3529 C3533 1.408 . S
C3530 C3528 1.363 . S
C3530 C3531 1.370 . S
C3530 C3534 1.524 . S
C3531 C3523 1.503 . S
C3531 C3530 1.370 . S
C3531 C3532 1.403 . S
C3532 C3531 1.403 . S
C3532 C3533 1.404 . S
C3532 C3535 1.539 . S
C3533 C3529 1.408 . S
C3533 C3532 1.404 . S
C3533 H3545 0.930 . S
C3534 C3530 1.524 . S
C3534 H3546 0.956 . S
C3534 H3547 0.961 . S
C3534 H3548 0.961 . S
C3535 C3532 1.539 . S
C3535 H3549 0.958 . S
C3535 H3550 0.961 . S
C3535 H3551 0.960 . S
H3536 C3520 0.931 . S
H3537 C3525 0.929 . S
H3538 C3526 0.960 . S
H3539 C3526 0.962 . S
H3540 C3526 0.960 . S
H3541 C3527 0.961 . S
H3542 C3527 0.961 . S
H3543 C3527 0.961 . S
H3544 C3528 0.931 . S
H3545 C3533 0.930 . S
H3546 C3534 0.956 . S
H3547 C3534 0.961 . S
H3548 C3534 0.961 . S
H3549 C3535 0.958 . S
H3550 C3535 0.961 . S
H3551 C3535 0.960 . S
C3552 C3553 1.391 . S
C3552 C3554 1.394 . S
C3552 H3568 0.931 . S
C3553 C3552 1.391 . S
C3553 C3557 1.376 . S
C3554 C3552 1.394 . S
C3554 C3555 1.369 . S
C3554 C3558 1.531 . S
C3555 C3554 1.369 . S
C3555 C3556 1.410 . S
C3555 C3563 1.503 . S
C3556 C3555 1.410 . S
C3556 C3557 1.392 . S
C3556 C3559 1.511 1_545 S
C3557 C3553 1.376 . S
C3557 C3556 1.392 . S
C3557 H3569 0.929 1_545 S
C3558 C3554 1.531 . S
C3558 H3570 0.960 . S
C3558 H3571 0.962 . S
C3558 H3572 0.960 . S
C3559 C3556 1.511 1_565 S
C3559 H3573 0.961 . S
C3559 H3574 0.961 . S
C3559 H3575 0.961 1_565 S
C3560 C3561 1.370 1_665 S
C3560 C3562 1.363 . S
C3560 H3576 0.931 . S
C3561 C3560 1.370 1_445 S
C3561 C3565 1.408 1_455 S
C3562 C3560 1.363 . S
C3562 C3563 1.370 1_565 S
C3562 C3566 1.524 . S
C3563 C3555 1.503 . S
C3563 C3562 1.370 1_545 S
C3563 C3564 1.403 . S
C3564 C3563 1.403 . S
C3564 C3565 1.404 . S
C3564 C3567 1.539 . S
C3565 C3561 1.408 1_655 S
C3565 C3564 1.404 . S
C3565 H3577 0.930 1_655 S
C3566 C3562 1.524 . S
C3566 H3578 0.956 . S
C3566 H3579 0.961 . S
C3566 H3580 0.961 . S
C3567 C3564 1.539 . S
C3567 H3581 0.958 . S
C3567 H3582 0.961 . S
C3567 H3583 0.960 . S
H3568 C3552 0.931 . S
H3569 C3557 0.929 1_565 S
H3570 C3558 0.960 . S
H3571 C3558 0.962 . S
H3572 C3558 0.960 . S
H3573 C3559 0.961 . S
H3574 C3559 0.961 . S
H3575 C3559 0.961 1_545 S
H3576 C3560 0.931 . S
H3577 C3565 0.930 1_455 S
H3578 C3566 0.956 . S
H3579 C3566 0.961 . S
H3580 C3566 0.961 . S
H3581 C3567 0.958 . S
H3582 C3567 0.961 . S
H3583 C3567 0.960 . S
C3584 C3585 1.391 . S
C3584 C3586 1.394 . S
C3584 H3600 0.931 . S
C3585 C3584 1.391 . S
C3585 C3589 1.376 . S
C3586 C3584 1.394 . S
C3586 C3587 1.369 . S
C3586 C3590 1.531 . S
C3587 C3586 1.369 . S
C3587 C3588 1.410 . S
C3587 C3595 1.503 . S
C3588 C3587 1.410 . S
C3588 C3589 1.392 . S
C3588 C3591 1.511 . S
C3589 C3585 1.376 . S
C3589 C3588 1.392 . S
C3589 H3601 0.929 . S
C3590 C3586 1.531 . S
C3590 H3602 0.960 . S
C3590 H3603 0.962 . S
C3590 H3604 0.960 . S
C3591 C3588 1.511 . S
C3591 H3605 0.961 . S
C3591 H3606 0.961 . S
C3591 H3607 0.961 . S
C3592 C3593 1.370 . S
C3592 C3594 1.363 . S
C3592 H3608 0.931 . S
C3593 C3592 1.370 . S
C3593 C3597 1.408 . S
C3594 C3592 1.363 . S
C3594 C3595 1.370 . S
C3594 C3598 1.524 . S
C3595 C3587 1.503 . S
C3595 C3594 1.370 . S
C3595 C3596 1.403 . S
C3596 C3595 1.403 . S
C3596 C3597 1.404 . S
C3596 C3599 1.539 . S
C3597 C3593 1.408 . S
C3597 C3596 1.404 . S
C3597 H3609 0.930 . S
C3598 C3594 1.524 . S
C3598 H3610 0.956 . S
C3598 H3611 0.961 . S
C3598 H3612 0.961 . S
C3599 C3596 1.539 . S
C3599 H3613 0.958 . S
C3599 H3614 0.961 . S
C3599 H3615 0.960 . S
H3600 C3584 0.931 . S
H3601 C3589 0.929 . S
H3602 C3590 0.960 . S
H3603 C3590 0.962 . S
H3604 C3590 0.960 . S
H3605 C3591 0.961 . S
H3606 C3591 0.961 . S
H3607 C3591 0.961 . S
H3608 C3592 0.931 . S
H3609 C3597 0.930 . S
H3610 C3598 0.956 . S
H3611 C3598 0.961 . S
H3612 C3598 0.961 . S
H3613 C3599 0.958 . S
H3614 C3599 0.961 . S
H3615 C3599 0.960 . S
C3616 C3617 1.391 . S
C3616 C3618 1.394 . S
C3616 H3632 0.931 . S
C3617 C3616 1.391 . S
C3617 C3621 1.376 . S
C3618 C3616 1.394 . S
C3618 C3619 1.369 . S
C3618 C3622 1.531 . S
C3619 C3618 1.369 . S
C3619 C3620 1.410 . S
C3619 C3627 1.503 . S
C3620 C3619 1.410 . S
C3620 C3621 1.392 . S
C3620 C3623 1.511 . S
C3621 C3617 1.376 . S
C3621 C3620 1.392 . S
C3621 H3633 0.929 . S
C3622 C3618 1.531 . S
C3622 H3634 0.960 . S
C3622 H3635 0.962 . S
C3622 H3636 0.960 . S
C3623 C3620 1.511 . S
C3623 H3637 0.961 . S
C3623 H3638 0.961 . S
C3623 H3639 0.961 . S
C3624 C3625 1.370 1_455 S
C3624 C3626 1.363 . S
C3624 H3640 0.931 . S
C3625 C3624 1.370 1_655 S
C3625 C3629 1.408 1_655 S
C3626 C3624 1.363 . S
C3626 C3627 1.370 . S
C3626 C3630 1.524 . S
C3627 C3619 1.503 . S
C3627 C3626 1.370 . S
C3627 C3628 1.403 . S
C3628 C3627 1.403 . S
C3628 C3629 1.404 . S
C3628 C3631 1.539 . S
C3629 C3625 1.408 1_455 S
C3629 C3628 1.404 . S
C3629 H3641 0.930 1_455 S
C3630 C3626 1.524 . S
C3630 H3642 0.956 . S
C3630 H3643 0.961 . S
C3630 H3644 0.961 . S
C3631 C3628 1.539 . S
C3631 H3645 0.958 . S
C3631 H3646 0.961 . S
C3631 H3647 0.960 . S
H3632 C3616 0.931 . S
H3633 C3621 0.929 . S
H3634 C3622 0.960 . S
H3635 C3622 0.962 . S
H3636 C3622 0.960 . S
H3637 C3623 0.961 . S
H3638 C3623 0.961 . S
H3639 C3623 0.961 . S
H3640 C3624 0.931 . S
H3641 C3629 0.930 1_655 S
H3642 C3630 0.956 . S
H3643 C3630 0.961 . S
H3644 C3630 0.961 . S
H3645 C3631 0.958 . S
H3646 C3631 0.961 . S
H3647 C3631 0.960 . S
C3648 C3649 1.391 . S
C3648 C3650 1.394 . S
C3648 H3664 0.931 . S
C3649 C3648 1.391 . S
C3649 C3653 1.376 . S
C3650 C3648 1.394 . S
C3650 C3651 1.369 . S
C3650 C3654 1.531 . S
C3651 C3650 1.369 . S
C3651 C3652 1.410 . S
C3651 C3659 1.503 . S
C3652 C3651 1.410 . S
C3652 C3653 1.392 . S
C3652 C3655 1.511 . S
C3653 C3649 1.376 . S
C3653 C3652 1.392 . S
C3653 H3665 0.929 . S
C3654 C3650 1.531 . S
C3654 H3666 0.960 . S
C3654 H3667 0.962 . S
C3654 H3668 0.960 . S
C3655 C3652 1.511 . S
C3655 H3669 0.961 . S
C3655 H3670 0.961 . S
C3655 H3671 0.961 . S
C3656 C3657 1.370 . S
C3656 C3658 1.363 . S
C3656 H3672 0.931 . S
C3657 C3656 1.370 . S
C3657 C3661 1.408 . S
C3658 C3656 1.363 . S
C3658 C3659 1.370 . S
C3658 C3662 1.524 . S
C3659 C3651 1.503 . S
C3659 C3658 1.370 . S
C3659 C3660 1.403 . S
C3660 C3659 1.403 . S
C3660 C3661 1.404 . S
C3660 C3663 1.539 . S
C3661 C3657 1.408 . S
C3661 C3660 1.404 . S
C3661 H3673 0.930 . S
C3662 C3658 1.524 . S
C3662 H3674 0.956 . S
C3662 H3675 0.961 . S
C3662 H3676 0.961 . S
C3663 C3660 1.539 . S
C3663 H3677 0.958 . S
C3663 H3678 0.961 . S
C3663 H3679 0.960 . S
H3664 C3648 0.931 . S
H3665 C3653 0.929 . S
H3666 C3654 0.960 . S
H3667 C3654 0.962 . S
H3668 C3654 0.960 . S
H3669 C3655 0.961 . S
H3670 C3655 0.961 . S
H3671 C3655 0.961 . S
H3672 C3656 0.931 . S
H3673 C3661 0.930 . S
H3674 C3662 0.956 . S
H3675 C3662 0.961 . S
H3676 C3662 0.961 . S
H3677 C3663 0.958 . S
H3678 C3663 0.961 . S
H3679 C3663 0.960 . S
C3680 C3681 1.391 . S
C3680 C3682 1.394 . S
C3680 H3696 0.931 . S
C3681 C3680 1.391 . S
C3681 C3685 1.376 . S
C3682 C3680 1.394 . S
C3682 C3683 1.369 . S
C3682 C3686 1.531 . S
C3683 C3682 1.369 . S
C3683 C3684 1.410 . S
C3683 C3691 1.503 . S
C3684 C3683 1.410 . S
C3684 C3685 1.392 . S
C3684 C3687 1.511 . S
C3685 C3681 1.376 . S
C3685 C3684 1.392 . S
C3685 H3697 0.929 . S
C3686 C3682 1.531 . S
C3686 H3698 0.960 . S
C3686 H3699 0.962 . S
C3686 H3700 0.960 . S
C3687 C3684 1.511 . S
C3687 H3701 0.961 . S
C3687 H3702 0.961 . S
C3687 H3703 0.961 . S
C3688 C3689 1.370 1_455 S
C3688 C3690 1.363 . S
C3688 H3704 0.931 . S
C3689 C3688 1.370 1_655 S
C3689 C3693 1.408 1_655 S
C3690 C3688 1.363 . S
C3690 C3691 1.370 . S
C3690 C3694 1.524 . S
C3691 C3683 1.503 . S
C3691 C3690 1.370 . S
C3691 C3692 1.403 . S
C3692 C3691 1.403 . S
C3692 C3693 1.404 . S
C3692 C3695 1.539 . S
C3693 C3689 1.408 1_455 S
C3693 C3692 1.404 . S
C3693 H3705 0.930 1_455 S
C3694 C3690 1.524 . S
C3694 H3706 0.956 . S
C3694 H3707 0.961 . S
C3694 H3708 0.961 . S
C3695 C3692 1.539 . S
C3695 H3709 0.958 . S
C3695 H3710 0.961 . S
C3695 H3711 0.960 . S
H3696 C3680 0.931 . S
H3697 C3685 0.929 . S
H3698 C3686 0.960 . S
H3699 C3686 0.962 . S
H3700 C3686 0.960 . S
H3701 C3687 0.961 . S
H3702 C3687 0.961 . S
H3703 C3687 0.961 . S
H3704 C3688 0.931 . S
H3705 C3693 0.930 1_655 S
H3706 C3694 0.956 . S
H3707 C3694 0.961 . S
H3708 C3694 0.961 . S
H3709 C3695 0.958 . S
H3710 C3695 0.961 . S
H3711 C3695 0.960 . S
C3712 C3713 1.391 . S
C3712 C3714 1.394 . S
C3712 H3728 0.931 . S
C3713 C3712 1.391 . S
C3713 C3717 1.376 . S
C3714 C3712 1.394 . S
C3714 C3715 1.369 . S
C3714 C3718 1.531 . S
C3715 C3714 1.369 . S
C3715 C3716 1.410 . S
C3715 C3723 1.503 . S
C3716 C3715 1.410 . S
C3716 C3717 1.392 . S
C3716 C3719 1.511 . S
C3717 C3713 1.376 . S
C3717 C3716 1.392 . S
C3717 H3729 0.929 . S
C3718 C3714 1.531 . S
C3718 H3730 0.960 . S
C3718 H3731 0.962 . S
C3718 H3732 0.960 . S
C3719 C3716 1.511 . S
C3719 H3733 0.961 . S
C3719 H3734 0.961 . S
C3719 H3735 0.961 . S
C3720 C3721 1.370 . S
C3720 C3722 1.363 . S
C3720 H3736 0.931 . S
C3721 C3720 1.370 . S
C3721 C3725 1.408 . S
C3722 C3720 1.363 . S
C3722 C3723 1.370 . S
C3722 C3726 1.524 . S
C3723 C3715 1.503 . S
C3723 C3722 1.370 . S
C3723 C3724 1.403 . S
C3724 C3723 1.403 . S
C3724 C3725 1.404 . S
C3724 C3727 1.539 . S
C3725 C3721 1.408 . S
C3725 C3724 1.404 . S
C3725 H3737 0.930 . S
C3726 C3722 1.524 . S
C3726 H3738 0.956 . S
C3726 H3739 0.961 . S
C3726 H3740 0.961 . S
C3727 C3724 1.539 . S
C3727 H3741 0.958 . S
C3727 H3742 0.961 . S
C3727 H3743 0.960 . S
H3728 C3712 0.931 . S
H3729 C3717 0.929 . S
H3730 C3718 0.960 . S
H3731 C3718 0.962 . S
H3732 C3718 0.960 . S
H3733 C3719 0.961 . S
H3734 C3719 0.961 . S
H3735 C3719 0.961 . S
H3736 C3720 0.931 . S
H3737 C3725 0.930 . S
H3738 C3726 0.956 . S
H3739 C3726 0.961 . S
H3740 C3726 0.961 . S
H3741 C3727 0.958 . S
H3742 C3727 0.961 . S
H3743 C3727 0.960 . S
C3744 C3745 1.391 1_655 S
C3744 C3746 1.394 . S
C3744 H3760 0.931 1_655 S
C3745 C3744 1.391 1_455 S
C3745 C3749 1.376 1_455 S
C3746 C3744 1.394 . S
C3746 C3747 1.369 . S
C3746 C3750 1.531 . S
C3747 C3746 1.369 . S
C3747 C3748 1.410 . S
C3747 C3755 1.503 . S
C3748 C3747 1.410 . S
C3748 C3749 1.392 . S
C3748 C3751 1.511 . S
C3749 C3745 1.376 1_655 S
C3749 C3748 1.392 . S
C3749 H3761 0.929 . S
C3750 C3746 1.531 . S
C3750 H3762 0.960 . S
C3750 H3763 0.962 . S
C3750 H3764 0.960 . S
C3751 C3748 1.511 . S
C3751 H3765 0.961 . S
C3751 H3766 0.961 . S
C3751 H3767 0.961 . S
C3752 C3753 1.370 . S
C3752 C3754 1.363 . S
C3752 H3768 0.931 . S
C3753 C3752 1.370 . S
C3753 C3757 1.408 . S
C3754 C3752 1.363 . S
C3754 C3755 1.370 . S
C3754 C3758 1.524 . S
C3755 C3747 1.503 . S
C3755 C3754 1.370 . S
C3755 C3756 1.403 . S
C3756 C3755 1.403 . S
C3756 C3757 1.404 . S
C3756 C3759 1.539 . S
C3757 C3753 1.408 . S
C3757 C3756 1.404 . S
C3757 H3769 0.930 . S
C3758 C3754 1.524 . S
C3758 H3770 0.956 . S
C3758 H3771 0.961 . S
C3758 H3772 0.961 . S
C3759 C3756 1.539 . S
C3759 H3773 0.958 . S
C3759 H3774 0.961 . S
C3759 H3775 0.960 . S
H3760 C3744 0.931 1_455 S
H3761 C3749 0.929 . S
H3762 C3750 0.960 . S
H3763 C3750 0.962 . S
H3764 C3750 0.960 . S
H3765 C3751 0.961 . S
H3766 C3751 0.961 . S
H3767 C3751 0.961 . S
H3768 C3752 0.931 . S
H3769 C3757 0.930 . S
H3770 C3758 0.956 . S
H3771 C3758 0.961 . S
H3772 C3758 0.961 . S
H3773 C3759 0.958 . S
H3774 C3759 0.961 . S
H3775 C3759 0.960 . S
C3776 C3777 1.391 . S
C3776 C3778 1.394 . S
C3776 H3792 0.931 . S
C3777 C3776 1.391 . S
C3777 C3781 1.376 . S
C3778 C3776 1.394 . S
C3778 C3779 1.369 . S
C3778 C3782 1.531 . S
C3779 C3778 1.369 . S
C3779 C3780 1.410 . S
C3779 C3787 1.503 . S
C3780 C3779 1.410 . S
C3780 C3781 1.392 . S
C3780 C3783 1.511 . S
C3781 C3777 1.376 . S
C3781 C3780 1.392 . S
C3781 H3793 0.929 . S
C3782 C3778 1.531 . S
C3782 H3794 0.960 . S
C3782 H3795 0.962 . S
C3782 H3796 0.960 . S
C3783 C3780 1.511 . S
C3783 H3797 0.961 . S
C3783 H3798 0.961 . S
C3783 H3799 0.961 . S
C3784 C3785 1.370 . S
C3784 C3786 1.363 . S
C3784 H3800 0.931 . S
C3785 C3784 1.370 . S
C3785 C3789 1.408 . S
C3786 C3784 1.363 . S
C3786 C3787 1.370 . S
C3786 C3790 1.524 . S
C3787 C3779 1.503 . S
C3787 C3786 1.370 . S
C3787 C3788 1.403 . S
C3788 C3787 1.403 . S
C3788 C3789 1.404 . S
C3788 C3791 1.539 . S
C3789 C3785 1.408 . S
C3789 C3788 1.404 . S
C3789 H3801 0.930 . S
C3790 C3786 1.524 . S
C3790 H3802 0.956 . S
C3790 H3803 0.961 . S
C3790 H3804 0.961 . S
C3791 C3788 1.539 . S
C3791 H3805 0.958 . S
C3791 H3806 0.961 . S
C3791 H3807 0.960 . S
H3792 C3776 0.931 . S
H3793 C3781 0.929 . S
H3794 C3782 0.960 . S
H3795 C3782 0.962 . S
H3796 C3782 0.960 . S
H3797 C3783 0.961 . S
H3798 C3783 0.961 . S
H3799 C3783 0.961 . S
H3800 C3784 0.931 . S
H3801 C3789 0.930 . S
H3802 C3790 0.956 . S
H3803 C3790 0.961 . S
H3804 C3790 0.961 . S
H3805 C3791 0.958 . S
H3806 C3791 0.961 . S
H3807 C3791 0.960 . S
C3808 C3809 1.391 . S
C3808 C3810 1.394 . S
C3808 H3824 0.931 . S
C3809 C3808 1.391 . S
C3809 C3813 1.376 . S
C3810 C3808 1.394 . S
C3810 C3811 1.369 . S
C3810 C3814 1.531 . S
C3811 C3810 1.369 . S
C3811 C3812 1.410 . S
C3811 C3819 1.503 . S
C3812 C3811 1.410 . S
C3812 C3813 1.392 . S
C3812 C3815 1.511 . S
C3813 C3809 1.376 . S
C3813 C3812 1.392 . S
C3813 H3825 0.929 . S
C3814 C3810 1.531 . S
C3814 H3826 0.960 . S
C3814 H3827 0.962 . S
C3814 H3828 0.960 . S
C3815 C3812 1.511 . S
C3815 H3829 0.961 . S
C3815 H3830 0.961 . S
C3815 H3831 0.961 . S
C3816 C3817 1.370 1_655 S
C3816 C3818 1.363 . S
C3816 H3832 0.931 . S
C3817 C3816 1.370 1_455 S
C3817 C3821 1.408 1_455 S
C3818 C3816 1.363 . S
C3818 C3819 1.370 . S
C3818 C3822 1.524 . S
C3819 C3811 1.503 . S
C3819 C3818 1.370 . S
C3819 C3820 1.403 . S
C3820 C3819 1.403 . S
C3820 C3821 1.404 . S
C3820 C3823 1.539 . S
C3821 C3817 1.408 1_655 S
C3821 C3820 1.404 . S
C3821 H3833 0.930 1_655 S
C3822 C3818 1.524 . S
C3822 H3834 0.956 . S
C3822 H3835 0.961 . S
C3822 H3836 0.961 . S
C3823 C3820 1.539 . S
C3823 H3837 0.958 . S
C3823 H3838 0.961 . S
C3823 H3839 0.960 . S
H3824 C3808 0.931 . S
H3825 C3813 0.929 . S
H3826 C3814 0.960 . S
H3827 C3814 0.962 . S
H3828 C3814 0.960 . S
H3829 C3815 0.961 . S
H3830 C3815 0.961 . S
H3831 C3815 0.961 . S
H3832 C3816 0.931 . S
H3833 C3821 0.930 1_455 S
H3834 C3822 0.956 . S
H3835 C3822 0.961 . S
H3836 C3822 0.961 . S
H3837 C3823 0.958 . S
H3838 C3823 0.961 . S
H3839 C3823 0.960 . S
C3840 C3841 1.391 . S
C3840 C3842 1.394 . S
C3840 H3856 0.931 . S
C3841 C3840 1.391 . S
C3841 C3845 1.376 . S
C3842 C3840 1.394 . S
C3842 C3843 1.369 . S
C3842 C3846 1.531 . S
C3843 C3842 1.369 . S
C3843 C3844 1.410 . S
C3843 C3851 1.503 . S
C3844 C3843 1.410 . S
C3844 C3845 1.392 . S
C3844 C3847 1.511 . S
C3845 C3841 1.376 . S
C3845 C3844 1.392 . S
C3845 H3857 0.929 . S
C3846 C3842 1.531 . S
C3846 H3858 0.960 . S
C3846 H3859 0.962 1_565 S
C3846 H3860 0.960 . S
C3847 C3844 1.511 . S
C3847 H3861 0.961 . S
C3847 H3862 0.961 . S
C3847 H3863 0.961 . S
C3848 C3849 1.370 1_545 S
C3848 C3850 1.363 . S
C3848 H3864 0.931 . S
C3849 C3848 1.370 1_565 S
C3849 C3853 1.408 . S
C3850 C3848 1.363 . S
C3850 C3851 1.370 1_545 S
C3850 C3854 1.524 . S
C3851 C3843 1.503 . S
C3851 C3850 1.370 1_565 S
C3851 C3852 1.403 . S
C3852 C3851 1.403 . S
C3852 C3853 1.404 . S
C3852 C3855 1.539 . S
C3853 C3849 1.408 . S
C3853 C3852 1.404 . S
C3853 H3865 0.930 . S
C3854 C3850 1.524 . S
C3854 H3866 0.956 . S
C3854 H3867 0.961 . S
C3854 H3868 0.961 . S
C3855 C3852 1.539 . S
C3855 H3869 0.958 . S
C3855 H3870 0.961 . S
C3855 H3871 0.960 . S
H3856 C3840 0.931 . S
H3857 C3845 0.929 . S
H3858 C3846 0.960 . S
H3859 C3846 0.962 1_545 S
H3860 C3846 0.960 . S
H3861 C3847 0.961 . S
H3862 C3847 0.961 . S
H3863 C3847 0.961 . S
H3864 C3848 0.931 . S
H3865 C3853 0.930 . S
H3866 C3854 0.956 . S
H3867 C3854 0.961 . S
H3868 C3854 0.961 . S
H3869 C3855 0.958 . S
H3870 C3855 0.961 . S
H3871 C3855 0.960 . S
C3872 C3873 1.391 . S
C3872 C3874 1.394 . S
C3872 H3888 0.931 . S
C3873 C3872 1.391 . S
C3873 C3877 1.376 . S
C3874 C3872 1.394 . S
C3874 C3875 1.369 . S
C3874 C3878 1.531 . S
C3875 C3874 1.369 . S
C3875 C3876 1.410 . S
C3875 C3883 1.503 . S
C3876 C3875 1.410 . S
C3876 C3877 1.392 . S
C3876 C3879 1.511 . S
C3877 C3873 1.376 . S
C3877 C3876 1.392 . S
C3877 H3889 0.929 . S
C3878 C3874 1.531 . S
C3878 H3890 0.960 . S
C3878 H3891 0.962 . S
C3878 H3892 0.960 . S
C3879 C3876 1.511 . S
C3879 H3893 0.961 . S
C3879 H3894 0.961 . S
C3879 H3895 0.961 . S
C3880 C3881 1.370 . S
C3880 C3882 1.363 . S
C3880 H3896 0.931 . S
C3881 C3880 1.370 . S
C3881 C3885 1.408 . S
C3882 C3880 1.363 . S
C3882 C3883 1.370 . S
C3882 C3886 1.524 . S
C3883 C3875 1.503 . S
C3883 C3882 1.370 . S
C3883 C3884 1.403 . S
C3884 C3883 1.403 . S
C3884 C3885 1.404 . S
C3884 C3887 1.539 . S
C3885 C3881 1.408 . S
C3885 C3884 1.404 . S
C3885 H3897 0.930 . S
C3886 C3882 1.524 . S
C3886 H3898 0.956 . S
C3886 H3899 0.961 . S
C3886 H3900 0.961 . S
C3887 C3884 1.539 . S
C3887 H3901 0.958 . S
C3887 H3902 0.961 . S
C3887 H3903 0.960 . S
H3888 C3872 0.931 . S
H3889 C3877 0.929 . S
H3890 C3878 0.960 . S
H3891 C3878 0.962 . S
H3892 C3878 0.960 . S
H3893 C3879 0.961 . S
H3894 C3879 0.961 . S
H3895 C3879 0.961 . S
H3896 C3880 0.931 . S
H3897 C3885 0.930 . S
H3898 C3886 0.956 . S
H3899 C3886 0.961 . S
H3900 C3886 0.961 . S
H3901 C3887 0.958 . S
H3902 C3887 0.961 . S
H3903 C3887 0.960 . S
C3904 C3905 1.391 . S
C3904 C3906 1.394 . S
C3904 H3920 0.931 . S
C3905 C3904 1.391 . S
C3905 C3909 1.376 . S
C3906 C3904 1.394 . S
C3906 C3907 1.369 . S
C3906 C3910 1.531 . S
C3907 C3906 1.369 . S
C3907 C3908 1.410 . S
C3907 C3915 1.503 . S
C3908 C3907 1.410 . S
C3908 C3909 1.392 . S
C3908 C3911 1.511 . S
C3909 C3905 1.376 . S
C3909 C3908 1.392 . S
C3909 H3921 0.929 . S
C3910 C3906 1.531 . S
C3910 H3922 0.960 . S
C3910 H3923 0.962 . S
C3910 H3924 0.960 . S
C3911 C3908 1.511 . S
C3911 H3925 0.961 . S
C3911 H3926 0.961 . S
C3911 H3927 0.961 . S
C3912 C3913 1.370 . S
C3912 C3914 1.363 . S
C3912 H3928 0.931 . S
C3913 C3912 1.370 . S
C3913 C3917 1.408 . S
C3914 C3912 1.363 . S
C3914 C3915 1.370 . S
C3914 C3918 1.524 . S
C3915 C3907 1.503 . S
C3915 C3914 1.370 . S
C3915 C3916 1.403 . S
C3916 C3915 1.403 . S
C3916 C3917 1.404 . S
C3916 C3919 1.539 . S
C3917 C3913 1.408 . S
C3917 C3916 1.404 . S
C3917 H3929 0.930 . S
C3918 C3914 1.524 . S
C3918 H3930 0.956 . S
C3918 H3931 0.961 . S
C3918 H3932 0.961 . S
C3919 C3916 1.539 . S
C3919 H3933 0.958 . S
C3919 H3934 0.961 . S
C3919 H3935 0.960 . S
H3920 C3904 0.931 . S
H3921 C3909 0.929 . S
H3922 C3910 0.960 . S
H3923 C3910 0.962 . S
H3924 C3910 0.960 . S
H3925 C3911 0.961 . S
H3926 C3911 0.961 . S
H3927 C3911 0.961 . S
H3928 C3912 0.931 . S
H3929 C3917 0.930 . S
H3930 C3918 0.956 . S
H3931 C3918 0.961 . S
H3932 C3918 0.961 . S
H3933 C3919 0.958 . S
H3934 C3919 0.961 . S
H3935 C3919 0.960 . S
C3936 C3937 1.391 . S
C3936 C3938 1.394 . S
C3936 H3952 0.931 . S
C3937 C3936 1.391 . S
C3937 C3941 1.376 . S
C3938 C3936 1.394 . S
C3938 C3939 1.369 . S
C3938 C3942 1.531 . S
C3939 C3938 1.369 . S
C3939 C3940 1.410 . S
C3939 C3947 1.503 . S
C3940 C3939 1.410 . S
C3940 C3941 1.392 . S
C3940 C3943 1.511 . S
C3941 C3937 1.376 . S
C3941 C3940 1.392 . S
C3941 H3953 0.929 1_565 S
C3942 C3938 1.531 . S
C3942 H3954 0.960 . S
C3942 H3955 0.962 . S
C3942 H3956 0.960 . S
C3943 C3940 1.511 . S
C3943 H3957 0.961 1_565 S
C3943 H3958 0.961 1_565 S
C3943 H3959 0.961 . S
C3944 C3945 1.370 1_545 S
C3944 C3946 1.363 . S
C3944 H3960 0.931 . S
C3945 C3944 1.370 1_565 S
C3945 C3949 1.408 . S
C3946 C3944 1.363 . S
C3946 C3947 1.370 1_545 S
C3946 C3950 1.524 . S
C3947 C3939 1.503 . S
C3947 C3946 1.370 1_565 S
C3947 C3948 1.403 . S
C3948 C3947 1.403 . S
C3948 C3949 1.404 . S
C3948 C3951 1.539 . S
C3949 C3945 1.408 . S
C3949 C3948 1.404 . S
C3949 H3961 0.930 . S
C3950 C3946 1.524 . S
C3950 H3962 0.956 . S
C3950 H3963 0.961 . S
C3950 H3964 0.961 . S
C3951 C3948 1.539 . S
C3951 H3965 0.958 . S
C3951 H3966 0.961 . S
C3951 H3967 0.960 . S
H3952 C3936 0.931 . S
H3953 C3941 0.929 1_545 S
H3954 C3942 0.960 . S
H3955 C3942 0.962 . S
H3956 C3942 0.960 . S
H3957 C3943 0.961 1_545 S
H3958 C3943 0.961 1_545 S
H3959 C3943 0.961 . S
H3960 C3944 0.931 . S
H3961 C3949 0.930 . S
H3962 C3950 0.956 . S
H3963 C3950 0.961 . S
H3964 C3950 0.961 . S
H3965 C3951 0.958 . S
H3966 C3951 0.961 . S
H3967 C3951 0.960 . S
C3968 C3969 1.391 . S
C3968 C3970 1.394 . S
C3968 H3984 0.931 1_545 S
C3969 C3968 1.391 . S
C3969 C3973 1.376 . S
C3970 C3968 1.394 . S
C3970 C3971 1.369 . S
C3970 C3974 1.541 . S
C3971 C3970 1.369 . S
C3971 C3972 1.410 . S
C3971 C3979 1.503 . S
C3972 C3971 1.410 . S
C3972 C3973 1.392 . S
C3972 C3975 1.511 . S
C3973 C3969 1.376 . S
C3973 C3972 1.392 . S
C3973 H3985 0.929 . S
C3974 C3970 1.541 . S
C3974 H3986 0.989 . S
C3974 H3987 0.917 1_545 S
C3974 H3988 0.969 . S
C3975 C3972 1.511 . S
C3975 H3989 0.961 . S
C3975 H3990 0.961 . S
C3975 H3991 0.961 . S
C3976 C3977 1.370 1_565 S
C3976 C3978 1.363 . S
C3976 H3992 0.931 . S
C3977 C3976 1.370 1_545 S
C3977 C3981 1.408 . S
C3978 C3976 1.363 . S
C3978 C3979 1.370 1_565 S
C3978 C3982 1.524 . S
C3979 C3971 1.503 . S
C3979 C3978 1.370 1_545 S
C3979 C3980 1.403 . S
C3980 C3979 1.403 . S
C3980 C3981 1.404 . S
C3980 C3983 1.539 . S
C3981 C3977 1.408 . S
C3981 C3980 1.404 . S
C3981 H3993 0.930 . S
C3982 C3978 1.524 . S
C3982 H3994 0.956 . S
C3982 H3995 0.961 . S
C3982 H3996 0.961 . S
C3983 C3980 1.539 . S
C3983 H3997 0.958 . S
C3983 H3998 0.961 . S
C3983 H3999 0.960 . S
H3984 C3968 0.931 1_565 S
H3985 C3973 0.929 . S
H3986 C3974 0.989 . S
H3987 C3974 0.917 1_565 S
H3988 C3974 0.969 . S
H3989 C3975 0.961 . S
H3990 C3975 0.961 . S
H3991 C3975 0.961 . S
H3992 C3976 0.931 . S
H3993 C3981 0.930 . S
H3994 C3982 0.956 . S
H3995 C3982 0.961 . S
H3996 C3982 0.961 . S
H3997 C3983 0.958 . S
H3998 C3983 0.961 . S
H3999 C3983 0.960 . S
C4000 C4001 1.391 . S
C4000 C4002 1.394 . S
C4000 H4016 0.931 . S
C4001 C4000 1.391 . S
C4001 C4005 1.376 . S
C4002 C4000 1.394 . S
C4002 C4003 1.369 . S
C4002 C4006 1.531 . S
C4003 C4002 1.369 . S
C4003 C4004 1.410 . S
C4003 C4011 1.503 . S
C4004 C4003 1.410 . S
C4004 C4005 1.392 . S
C4004 C4007 1.511 . S
C4005 C4001 1.376 . S
C4005 C4004 1.392 . S
C4005 H4017 0.929 . S
C4006 C4002 1.531 . S
C4006 H4018 0.960 . S
C4006 H4019 0.962 . S
C4006 H4020 0.960 . S
C4007 C4004 1.511 . S
C4007 H4021 0.961 . S
C4007 H4022 0.961 . S
C4007 H4023 0.961 . S
C4008 C4009 1.370 . S
C4008 C4010 1.363 . S
C4008 H4024 0.931 . S
C4009 C4008 1.370 . S
C4009 C4013 1.408 . S
C4010 C4008 1.363 . S
C4010 C4011 1.370 . S
C4010 C4014 1.524 . S
C4011 C4003 1.503 . S
C4011 C4010 1.370 . S
C4011 C4012 1.403 . S
C4012 C4011 1.403 . S
C4012 C4013 1.404 . S
C4012 C4015 1.539 . S
C4013 C4009 1.408 . S
C4013 C4012 1.404 . S
C4013 H4025 0.930 . S
C4014 C4010 1.524 . S
C4014 H4026 0.956 . S
C4014 H4027 0.961 . S
C4014 H4028 0.961 . S
C4015 C4012 1.539 . S
C4015 H4029 0.958 . S
C4015 H4030 0.961 . S
C4015 H4031 0.960 . S
H4016 C4000 0.931 . S
H4017 C4005 0.929 . S
H4018 C4006 0.960 . S
H4019 C4006 0.962 . S
H4020 C4006 0.960 . S
H4021 C4007 0.961 . S
H4022 C4007 0.961 . S
H4023 C4007 0.961 . S
H4024 C4008 0.931 . S
H4025 C4013 0.930 . S
H4026 C4014 0.956 . S
H4027 C4014 0.961 . S
H4028 C4014 0.961 . S
H4029 C4015 0.958 . S
H4030 C4015 0.961 . S
H4031 C4015 0.960 . S
C4032 C4033 1.391 . S
C4032 C4034 1.394 . S
C4032 H4048 0.931 . S
C4033 C4032 1.391 . S
C4033 C4037 1.376 . S
C4034 C4032 1.394 . S
C4034 C4035 1.369 . S
C4034 C4038 1.531 . S
C4035 C4034 1.369 . S
C4035 C4036 1.410 . S
C4035 C4043 1.503 . S
C4036 C4035 1.410 . S
C4036 C4037 1.392 . S
C4036 C4039 1.511 . S
C4037 C4033 1.376 . S
C4037 C4036 1.392 . S
C4037 H4049 0.929 . S
C4038 C4034 1.531 . S
C4038 H4050 0.960 . S
C4038 H4051 0.962 . S
C4038 H4052 0.960 . S
C4039 C4036 1.511 . S
C4039 H4053 0.961 . S
C4039 H4054 0.961 . S
C4039 H4055 0.961 . S
C4040 C4041 1.370 . S
C4040 C4042 1.363 . S
C4040 H4056 0.931 . S
C4041 C4040 1.370 . S
C4041 C4045 1.408 . S
C4042 C4040 1.363 . S
C4042 C4043 1.370 . S
C4042 C4046 1.524 . S
C4043 C4035 1.503 . S
C4043 C4042 1.370 . S
C4043 C4044 1.403 . S
C4044 C4043 1.403 . S
C4044 C4045 1.404 . S
C4044 C4047 1.539 . S
C4045 C4041 1.408 . S
C4045 C4044 1.404 . S
C4045 H4057 0.930 . S
C4046 C4042 1.524 . S
C4046 H4058 0.956 . S
C4046 H4059 0.961 . S
C4046 H4060 0.961 . S
C4047 C4044 1.539 . S
C4047 H4061 0.958 . S
C4047 H4062 0.961 . S
C4047 H4063 0.960 . S
H4048 C4032 0.931 . S
H4049 C4037 0.929 . S
H4050 C4038 0.960 . S
H4051 C4038 0.962 . S
H4052 C4038 0.960 . S
H4053 C4039 0.961 . S
H4054 C4039 0.961 . S
H4055 C4039 0.961 . S
H4056 C4040 0.931 . S
H4057 C4045 0.930 . S
H4058 C4046 0.956 . S
H4059 C4046 0.961 . S
H4060 C4046 0.961 . S
H4061 C4047 0.958 . S
H4062 C4047 0.961 . S
H4063 C4047 0.960 . S
C4064 C4065 1.391 . S
C4064 C4066 1.394 . S
C4064 H4080 0.931 . S
C4065 C4064 1.391 . S
C4065 C4069 1.376 1_545 S
C4066 C4064 1.394 . S
C4066 C4067 1.369 . S
C4066 C4070 1.531 . S
C4067 C4066 1.369 . S
C4067 C4068 1.410 1_545 S
C4067 C4075 1.503 . S
C4068 C4067 1.410 1_565 S
C4068 C4069 1.392 . S
C4068 C4071 1.511 . S
C4069 C4065 1.376 1_565 S
C4069 C4068 1.392 . S
C4069 H4081 0.929 . S
C4070 C4066 1.531 . S
C4070 H4082 0.960 . S
C4070 H4083 0.962 . S
C4070 H4084 0.960 . S
C4071 C4068 1.511 . S
C4071 H4085 0.961 . S
C4071 H4086 0.961 . S
C4071 H4087 0.961 . S
C4072 C4073 1.370 . S
C4072 C4074 1.363 . S
C4072 H4088 0.931 1_545 S
C4073 C4072 1.370 . S
C4073 C4077 1.408 . S
C4074 C4072 1.363 . S
C4074 C4075 1.370 . S
C4074 C4078 1.524 1_545 S
C4075 C4067 1.503 . S
C4075 C4074 1.370 . S
C4075 C4076 1.403 . S
C4076 C4075 1.403 . S
C4076 C4077 1.404 . S
C4076 C4079 1.539 . S
C4077 C4073 1.408 . S
C4077 C4076 1.404 . S
C4077 H4089 0.930 . S
C4078 C4074 1.524 1_565 S
C4078 H4090 0.956 . S
C4078 H4091 0.961 . S
C4078 H4092 0.961 . S
C4079 C4076 1.539 . S
C4079 H4093 0.958 . S
C4079 H4094 0.961 . S
C4079 H4095 0.960 . S
H4080 C4064 0.931 . S
H4081 C4069 0.929 . S
H4082 C4070 0.960 . S
H4083 C4070 0.962 . S
H4084 C4070 0.960 . S
H4085 C4071 0.961 . S
H4086 C4071 0.961 . S
H4087 C4071 0.961 . S
H4088 C4072 0.931 1_565 S
H4089 C4077 0.930 . S
H4090 C4078 0.956 . S
H4091 C4078 0.961 . S
H4092 C4078 0.961 . S
H4093 C4079 0.958 . S
H4094 C4079 0.961 . S
H4095 C4079 0.960 . S
C4096 C4097 1.391 . S
C4096 C4098 1.394 . S
C4096 H4112 0.931 . S
C4097 C4096 1.391 . S
C4097 C4101 1.376 . S
C4098 C4096 1.394 . S
C4098 C4099 1.369 . S
C4098 C4102 1.531 . S
C4099 C4098 1.369 . S
C4099 C4100 1.410 . S
C4099 C4107 1.503 . S
C4100 C4099 1.410 . S
C4100 C4101 1.392 . S
C4100 C4103 1.511 . S
C4101 C4097 1.376 . S
C4101 C4100 1.392 . S
C4101 H4113 0.929 . S
C4102 C4098 1.531 . S
C4102 H4114 0.960 . S
C4102 H4115 0.962 . S
C4102 H4116 0.960 . S
C4103 C4100 1.511 . S
C4103 H4117 0.961 . S
C4103 H4118 0.961 . S
C4103 H4119 0.961 . S
C4104 C4105 1.370 . S
C4104 C4106 1.363 . S
C4104 H4120 0.931 . S
C4105 C4104 1.370 . S
C4105 C4109 1.408 . S
C4106 C4104 1.363 . S
C4106 C4107 1.370 . S
C4106 C4110 1.524 . S
C4107 C4099 1.503 . S
C4107 C4106 1.370 . S
C4107 C4108 1.403 . S
C4108 C4107 1.403 . S
C4108 C4109 1.404 . S
C4108 C4111 1.539 . S
C4109 C4105 1.408 . S
C4109 C4108 1.404 . S
C4109 H4121 0.930 . S
C4110 C4106 1.524 . S
C4110 H4122 0.956 . S
C4110 H4123 0.961 . S
C4110 H4124 0.961 . S
C4111 C4108 1.539 . S
C4111 H4125 0.958 . S
C4111 H4126 0.961 . S
C4111 H4127 0.960 . S
H4112 C4096 0.931 . S
H4113 C4101 0.929 . S
H4114 C4102 0.960 . S
H4115 C4102 0.962 . S
H4116 C4102 0.960 . S
H4117 C4103 0.961 . S
H4118 C4103 0.961 . S
H4119 C4103 0.961 . S
H4120 C4104 0.931 . S
H4121 C4109 0.930 . S
H4122 C4110 0.956 . S
H4123 C4110 0.961 . S
H4124 C4110 0.961 . S
H4125 C4111 0.958 . S
H4126 C4111 0.961 . S
H4127 C4111 0.960 . S
C4128 C4129 1.391 . S
C4128 C4130 1.394 . S
C4128 H4144 0.931 . S
C4129 C4128 1.391 . S
C4129 C4133 1.376 . S
C4130 C4128 1.394 . S
C4130 C4131 1.369 . S
C4130 C4134 1.531 . S
C4131 C4130 1.369 . S
C4131 C4132 1.410 . S
C4131 C4139 1.503 . S
C4132 C4131 1.410 . S
C4132 C4133 1.392 . S
C4132 C4135 1.511 . S
C4133 C4129 1.376 . S
C4133 C4132 1.392 . S
C4133 H4145 0.929 . S
C4134 C4130 1.531 . S
C4134 H4146 0.960 . S
C4134 H4147 0.962 . S
C4134 H4148 0.960 . S
C4135 C4132 1.511 . S
C4135 H4149 0.961 . S
C4135 H4150 0.961 . S
C4135 H4151 0.961 . S
C4136 C4137 1.370 . S
C4136 C4138 1.363 . S
C4136 H4152 0.931 . S
C4137 C4136 1.370 . S
C4137 C4141 1.408 . S
C4138 C4136 1.363 . S
C4138 C4139 1.370 . S
C4138 C4142 1.524 . S
C4139 C4131 1.503 . S
C4139 C4138 1.370 . S
C4139 C4140 1.403 . S
C4140 C4139 1.403 . S
C4140 C4141 1.404 . S
C4140 C4143 1.539 . S
C4141 C4137 1.408 . S
C4141 C4140 1.404 . S
C4141 H4153 0.930 . S
C4142 C4138 1.524 . S
C4142 H4154 0.956 . S
C4142 H4155 0.961 . S
C4142 H4156 0.961 . S
C4143 C4140 1.539 . S
C4143 H4157 0.958 . S
C4143 H4158 0.961 1_556 S
C4143 H4159 0.959 1_556 S
H4144 C4128 0.931 . S
H4145 C4133 0.929 . S
H4146 C4134 0.960 . S
H4147 C4134 0.962 . S
H4148 C4134 0.960 . S
H4149 C4135 0.961 . S
H4150 C4135 0.961 . S
H4151 C4135 0.961 . S
H4152 C4136 0.931 . S
H4153 C4141 0.930 . S
H4154 C4142 0.956 . S
H4155 C4142 0.961 . S
H4156 C4142 0.961 . S
H4157 C4143 0.958 . S
H4158 C4143 0.961 1_554 S
H4159 C4143 0.959 1_554 S
C4160 C4161 1.391 . S
C4160 C4162 1.394 . S
C4160 H4176 0.931 . S
C4161 C4160 1.391 . S
C4161 C4165 1.376 . S
C4162 C4160 1.394 . S
C4162 C4163 1.369 . S
C4162 C4166 1.531 . S
C4163 C4162 1.369 . S
C4163 C4164 1.410 . S
C4163 C4171 1.503 . S
C4164 C4163 1.410 . S
C4164 C4165 1.392 . S
C4164 C4167 1.511 . S
C4165 C4161 1.376 . S
C4165 C4164 1.392 . S
C4165 H4177 0.929 . S
C4166 C4162 1.531 . S
C4166 H4178 0.960 . S
C4166 H4179 0.962 . S
C4166 H4180 0.960 . S
C4167 C4164 1.511 . S
C4167 H4181 0.961 . S
C4167 H4182 0.961 . S
C4167 H4183 0.961 . S
C4168 C4169 1.370 . S
C4168 C4170 1.363 . S
C4168 H4184 0.931 . S
C4169 C4168 1.370 . S
C4169 C4173 1.408 . S
C4170 C4168 1.363 . S
C4170 C4171 1.370 . S
C4170 C4174 1.524 . S
C4171 C4163 1.503 . S
C4171 C4170 1.370 . S
C4171 C4172 1.403 . S
C4172 C4171 1.403 . S
C4172 C4173 1.404 . S
C4172 C4175 1.539 . S
C4173 C4169 1.408 . S
C4173 C4172 1.404 . S
C4173 H4185 0.930 . S
C4174 C4170 1.524 . S
C4174 H4186 0.956 . S
C4174 H4187 0.961 . S
C4174 H4188 0.961 . S
C4175 C4172 1.539 . S
C4175 H4189 0.958 . S
C4175 H4190 0.961 . S
C4175 H4191 0.960 . S
H4176 C4160 0.931 . S
H4177 C4165 0.929 . S
H4178 C4166 0.960 . S
H4179 C4166 0.962 . S
H4180 C4166 0.960 . S
H4181 C4167 0.961 . S
H4182 C4167 0.961 . S
H4183 C4167 0.961 . S
H4184 C4168 0.931 . S
H4185 C4173 0.930 . S
H4186 C4174 0.956 . S
H4187 C4174 0.961 . S
H4188 C4174 0.961 . S
H4189 C4175 0.958 . S
H4190 C4175 0.961 . S
H4191 C4175 0.960 . S
C4192 C4193 1.391 . S
C4192 C4194 1.394 . S
C4192 H4208 0.931 . S
C4193 C4192 1.391 . S
C4193 C4197 1.376 . S
C4194 C4192 1.394 . S
C4194 C4195 1.369 . S
C4194 C4198 1.531 . S
C4195 C4194 1.369 . S
C4195 C4196 1.410 . S
C4195 C4203 1.503 . S
C4196 C4195 1.410 . S
C4196 C4197 1.392 . S
C4196 C4199 1.511 . S
C4197 C4193 1.376 . S
C4197 C4196 1.392 . S
C4197 H4209 0.929 . S
C4198 C4194 1.531 . S
C4198 H4210 0.960 . S
C4198 H4211 0.962 . S
C4198 H4212 0.960 . S
C4199 C4196 1.511 . S
C4199 H4213 0.961 . S
C4199 H4214 0.961 . S
C4199 H4215 0.961 . S
C4200 C4201 1.370 . S
C4200 C4202 1.363 . S
C4200 H4216 0.931 . S
C4201 C4200 1.370 . S
C4201 C4205 1.408 . S
C4202 C4200 1.363 . S
C4202 C4203 1.370 . S
C4202 C4206 1.524 . S
C4203 C4195 1.503 . S
C4203 C4202 1.370 . S
C4203 C4204 1.403 . S
C4204 C4203 1.403 . S
C4204 C4205 1.404 . S
C4204 C4207 1.539 . S
C4205 C4201 1.408 . S
C4205 C4204 1.404 . S
C4205 H4217 0.930 . S
C4206 C4202 1.524 . S
C4206 H4218 0.956 . S
C4206 H4219 0.961 . S
C4206 H4220 0.961 . S
C4207 C4204 1.539 . S
C4207 H4221 0.958 . S
C4207 H4222 0.961 . S
C4207 H4223 0.960 . S
H4208 C4192 0.931 . S
H4209 C4197 0.929 . S
H4210 C4198 0.960 . S
H4211 C4198 0.962 . S
H4212 C4198 0.960 . S
H4213 C4199 0.961 . S
H4214 C4199 0.961 . S
H4215 C4199 0.961 . S
H4216 C4200 0.931 . S
H4217 C4205 0.930 . S
H4218 C4206 0.956 . S
H4219 C4206 0.961 . S
H4220 C4206 0.961 . S
H4221 C4207 0.958 . S
H4222 C4207 0.961 . S
H4223 C4207 0.960 . S
C4224 C4225 1.391 . S
C4224 C4226 1.394 . S
C4224 H4240 0.931 . S
C4225 C4224 1.391 . S
C4225 C4229 1.376 . S
C4226 C4224 1.394 . S
C4226 C4227 1.369 . S
C4226 C4230 1.531 . S
C4227 C4226 1.369 . S
C4227 C4228 1.410 . S
C4227 C4235 1.503 . S
C4228 C4227 1.410 . S
C4228 C4229 1.392 . S
C4228 C4231 1.511 . S
C4229 C4225 1.376 . S
C4229 C4228 1.392 . S
C4229 H4241 0.929 . S
C4230 C4226 1.531 . S
C4230 H4242 0.960 . S
C4230 H4243 0.962 . S
C4230 H4244 0.960 . S
C4231 C4228 1.511 . S
C4231 H4245 0.961 . S
C4231 H4246 0.961 . S
C4231 H4247 0.961 . S
C4232 C4233 1.370 . S
C4232 C4234 1.363 . S
C4232 H4248 0.931 . S
C4233 C4232 1.370 . S
C4233 C4237 1.408 . S
C4234 C4232 1.363 . S
C4234 C4235 1.370 . S
C4234 C4238 1.524 . S
C4235 C4227 1.503 . S
C4235 C4234 1.370 . S
C4235 C4236 1.403 . S
C4236 C4235 1.403 . S
C4236 C4237 1.404 . S
C4236 C4239 1.539 . S
C4237 C4233 1.408 . S
C4237 C4236 1.404 . S
C4237 H4249 0.930 . S
C4238 C4234 1.524 . S
C4238 H4250 0.956 . S
C4238 H4251 0.961 . S
C4238 H4252 0.961 . S
C4239 C4236 1.539 . S
C4239 H4253 0.958 1_554 S
C4239 H4254 0.961 . S
C4239 H4255 0.960 . S
H4240 C4224 0.931 . S
H4241 C4229 0.929 . S
H4242 C4230 0.960 . S
H4243 C4230 0.962 . S
H4244 C4230 0.960 . S
H4245 C4231 0.961 . S
H4246 C4231 0.961 . S
H4247 C4231 0.961 . S
H4248 C4232 0.931 . S
H4249 C4237 0.930 . S
H4250 C4238 0.956 . S
H4251 C4238 0.961 . S
H4252 C4238 0.961 . S
H4253 C4239 0.958 1_556 S
H4254 C4239 0.961 . S
H4255 C4239 0.960 . S
C4256 C4257 1.391 . S
C4256 C4258 1.394 . S
C4256 H4272 0.931 . S
C4257 C4256 1.391 . S
C4257 C4261 1.376 . S
C4258 C4256 1.394 . S
C4258 C4259 1.369 . S
C4258 C4262 1.531 . S
C4259 C4258 1.369 . S
C4259 C4260 1.410 . S
C4259 C4267 1.503 . S
C4260 C4259 1.410 . S
C4260 C4261 1.392 . S
C4260 C4263 1.511 . S
C4261 C4257 1.376 . S
C4261 C4260 1.392 . S
C4261 H4273 0.929 . S
C4262 C4258 1.531 . S
C4262 H4274 0.960 . S
C4262 H4275 0.962 . S
C4262 H4276 0.960 . S
C4263 C4260 1.511 . S
C4263 H4277 0.961 1_554 S
C4263 H4278 0.961 . S
C4263 H4279 0.961 . S
C4264 C4265 1.370 . S
C4264 C4266 1.363 . S
C4264 H4280 0.931 . S
C4265 C4264 1.370 . S
C4265 C4269 1.408 . S
C4266 C4264 1.363 . S
C4266 C4267 1.370 . S
C4266 C4270 1.524 . S
C4267 C4259 1.503 . S
C4267 C4266 1.370 . S
C4267 C4268 1.403 . S
C4268 C4267 1.403 . S
C4268 C4269 1.404 . S
C4268 C4271 1.539 . S
C4269 C4265 1.408 . S
C4269 C4268 1.404 . S
C4269 H4281 0.930 . S
C4270 C4266 1.524 . S
C4270 H4282 0.956 . S
C4270 H4283 0.961 . S
C4270 H4284 0.961 . S
C4271 C4268 1.539 . S
C4271 H4285 0.958 . S
C4271 H4286 0.961 . S
C4271 H4287 0.960 . S
H4272 C4256 0.931 . S
H4273 C4261 0.929 . S
H4274 C4262 0.960 . S
H4275 C4262 0.962 . S
H4276 C4262 0.960 . S
H4277 C4263 0.961 1_556 S
H4278 C4263 0.961 . S
H4279 C4263 0.961 . S
H4280 C4264 0.931 . S
H4281 C4269 0.930 . S
H4282 C4270 0.956 . S
H4283 C4270 0.961 . S
H4284 C4270 0.961 . S
H4285 C4271 0.958 . S
H4286 C4271 0.961 . S
H4287 C4271 0.960 . S
C4288 C4289 1.391 . S
C4288 C4290 1.394 . S
C4288 H4304 0.931 . S
C4289 C4288 1.391 . S
C4289 C4293 1.376 . S
C4290 C4288 1.394 . S
C4290 C4291 1.369 . S
C4290 C4294 1.531 . S
C4291 C4290 1.369 . S
C4291 C4292 1.410 . S
C4291 C4299 1.503 . S
C4292 C4291 1.410 . S
C4292 C4293 1.392 . S
C4292 C4295 1.511 . S
C4293 C4289 1.376 . S
C4293 C4292 1.392 . S
C4293 H4305 0.929 . S
C4294 C4290 1.531 . S
C4294 H4306 0.960 . S
C4294 H4307 0.962 . S
C4294 H4308 0.960 . S
C4295 C4292 1.511 . S
C4295 H4309 0.961 . S
C4295 H4310 0.961 . S
C4295 H4311 0.961 . S
C4296 C4297 1.370 . S
C4296 C4298 1.363 . S
C4296 H4312 0.931 . S
C4297 C4296 1.370 . S
C4297 C4301 1.408 . S
C4298 C4296 1.363 . S
C4298 C4299 1.370 . S
C4298 C4302 1.524 . S
C4299 C4291 1.503 . S
C4299 C4298 1.370 . S
C4299 C4300 1.403 . S
C4300 C4299 1.403 . S
C4300 C4301 1.404 . S
C4300 C4303 1.539 . S
C4301 C4297 1.408 . S
C4301 C4300 1.404 . S
C4301 H4313 0.930 . S
C4302 C4298 1.524 . S
C4302 H4314 0.956 . S
C4302 H4315 0.961 . S
C4302 H4316 0.961 . S
C4303 C4300 1.539 . S
C4303 H4317 0.958 . S
C4303 H4318 0.961 . S
C4303 H4319 0.960 . S
H4304 C4288 0.931 . S
H4305 C4293 0.929 . S
H4306 C4294 0.960 . S
H4307 C4294 0.962 . S
H4308 C4294 0.960 . S
H4309 C4295 0.961 . S
H4310 C4295 0.961 . S
H4311 C4295 0.961 . S
H4312 C4296 0.931 . S
H4313 C4301 0.930 . S
H4314 C4302 0.956 . S
H4315 C4302 0.961 . S
H4316 C4302 0.961 . S
H4317 C4303 0.958 . S
H4318 C4303 0.961 . S
H4319 C4303 0.960 . S
C4320 C4321 1.391 . S
C4320 C4322 1.394 . S
C4320 H4336 0.931 . S
C4321 C4320 1.391 . S
C4321 C4325 1.376 . S
C4322 C4320 1.394 . S
C4322 C4323 1.369 . S
C4322 C4326 1.531 . S
C4323 C4322 1.369 . S
C4323 C4324 1.410 . S
C4323 C4331 1.503 . S
C4324 C4323 1.410 . S
C4324 C4325 1.392 . S
C4324 C4327 1.511 . S
C4325 C4321 1.376 . S
C4325 C4324 1.392 . S
C4325 H4337 0.929 . S
C4326 C4322 1.531 . S
C4326 H4338 0.960 . S
C4326 H4339 0.962 . S
C4326 H4340 0.960 . S
C4327 C4324 1.511 . S
C4327 H4341 0.961 . S
C4327 H4342 0.961 . S
C4327 H4343 0.961 . S
C4328 C4329 1.370 . S
C4328 C4330 1.363 . S
C4328 H4344 0.931 . S
C4329 C4328 1.370 . S
C4329 C4333 1.408 . S
C4330 C4328 1.363 . S
C4330 C4331 1.370 . S
C4330 C4334 1.524 . S
C4331 C4323 1.503 . S
C4331 C4330 1.370 . S
C4331 C4332 1.403 . S
C4332 C4331 1.403 . S
C4332 C4333 1.404 . S
C4332 C4335 1.539 . S
C4333 C4329 1.408 . S
C4333 C4332 1.404 . S
C4333 H4345 0.930 . S
C4334 C4330 1.524 . S
C4334 H4346 0.956 . S
C4334 H4347 0.961 . S
C4334 H4348 0.961 . S
C4335 C4332 1.539 . S
C4335 H4349 0.958 . S
C4335 H4350 0.961 . S
C4335 H4351 0.960 . S
H4336 C4320 0.931 . S
H4337 C4325 0.929 . S
H4338 C4326 0.960 . S
H4339 C4326 0.962 . S
H4340 C4326 0.960 . S
H4341 C4327 0.961 . S
H4342 C4327 0.961 . S
H4343 C4327 0.961 . S
H4344 C4328 0.931 . S
H4345 C4333 0.930 . S
H4346 C4334 0.956 . S
H4347 C4334 0.961 . S
H4348 C4334 0.961 . S
H4349 C4335 0.958 . S
H4350 C4335 0.961 . S
H4351 C4335 0.960 . S
C1281 C1018 2.009 . S
C1289 C18 1.996 . S
C1313 C978 2.013 . S
C1321 C58 2.019 . S
C1345 C1098 2.009 . S
C1353 C98 1.996 . S
C1377 C1058 2.001 . S
C1385 C138 1.998 . S
C1409 C169 1.968 . S
C1417 C1169 2.023 . S
C1441 C209 2.040 . S
C1449 C1129 1.994 . S
C1473 C249 2.018 . S
C1481 C1249 2.013 . S
C1505 C1209 1.974 . S
C1513 C289 2.015 . S
C1537 C698 2.009 . S
C1545 C338 1.996 . S
C1569 C658 2.023 . S
C1577 C378 2.015 . S
C1601 C778 2.031 . S
C1609 C418 2.011 . S
C1633 C738 1.980 . S
C1641 C458 2.007 . S
C1665 C489 1.981 . S
C1673 C849 2.011 . S
C1697 C809 1.970 . S
C1705 C529 2.019 . S
C1729 C569 2.029 . S
C1737 C929 1.994 . S
C1761 C889 1.969 . S
C1769 C609 2.019 . S
C1793 C19 5.007 . S
C1801 C810 5.003 1_565 S
C1825 C530 4.990 . S
C1833 C59 5.011 . S
C1857 C1210 4.992 . S
C1865 C99 5.010 . S
C1889 C139 4.990 . S
C1897 C290 5.010 1_565 S
C1921 C170 4.990 . S
C1929 C659 5.011 1_545 S
C1953 C210 4.998 . S
C1961 C379 5.008 . S
C1985 C250 5.000 . S
C1993 C1059 5.007 . S
C2017 C1130 4.991 . S
C2025 C339 5.011 . S
C2049 C890 4.994 . S
C2057 C419 5.010 . S
C2081 C610 5.010 . S
C2089 C459 5.002 . S
C2113 C979 4.995 . S
C2121 C490 5.009 . S
C2145 C570 5.009 . S
C2153 C739 5.002 . S
C2177 C1170 5.002 . S
C2185 C699 5.007 . S
C2209 C779 5.010 1_545 S
C2217 C930 5.003 . S
C2241 C1019 4.994 . S
C2249 C850 5.010 . S
C2273 C1099 4.990 . S
C2281 C1250 5.011 . S
C2305 C10 4.609 1_556 S
C2313 C770 4.614 . S
C2337 C50 4.609 1_556 S
C2345 C730 4.613 . S
C2369 C90 4.602 . S
C2377 C690 4.613 . S
C2401 C130 4.602 . S
C2409 C650 4.614 . S
C2433 C179 4.608 1_554 S
C2441 C939 4.611 . S
C2465 C219 4.610 1_554 S
C2473 C899 4.611 . S
C2497 C259 4.606 . S
C2505 C859 4.615 . S
C2529 C299 4.607 . S
C2537 C819 4.611 . S
C2561 C330 4.611 . S
C2569 C1090 4.611 . S
C2593 C370 4.610 . S
C2601 C1050 4.613 . S
C2625 C410 4.602 . S
C2633 C1010 4.613 1_556 S
C2657 C450 4.602 . S
C2665 C970 4.614 1_556 S
C2689 C1259 4.606 . S
C2697 C499 4.615 . S
C2721 C1219 4.609 . S
C2729 C539 4.611 . S
C2753 C1179 4.611 1_554 S
C2761 C579 4.613 . S
C2785 C1139 4.611 1_554 S
C2793 C619 4.613 . S
C2817 C89 1.501 . S
C2825 C9 1.488 . S
C2849 C129 1.489 . S
C2857 C49 1.484 . S
C2881 C258 1.473 . S
C2889 C178 1.484 . S
C2913 C218 1.467 . S
C2921 C298 1.485 . S
C2945 C409 1.478 . S
C2953 C329 1.484 . S
C2977 C369 1.499 . S
C2985 C449 1.487 . S
C3009 C578 1.508 . S
C3017 C498 1.502 . S
C3041 C538 1.478 . S
C3049 C618 1.496 . S
C3073 C649 1.491 . S
C3081 C729 1.502 . S
C3105 C689 1.512 . S
C3113 C769 1.499 . S
C3137 C898 1.512 . S
C3145 C818 1.501 . S
C3169 C858 1.510 . S
C3177 C938 1.496 . S
C3201 C969 1.511 . S
C3209 C1049 1.500 . S
C3233 C1089 1.467 . S
C3241 C1009 1.487 . S
C3265 C1138 1.509 . S
C3273 C1218 1.495 . S
C3297 C1178 1.470 . S
C3305 C1258 1.492 . S
C3329 C6 0.653 . S
C3337 C286 0.712 . S
C3361 C1206 0.567 . S
C3369 C46 0.719 . S
C3393 C86 0.667 . S
C3401 C526 0.707 . S
C3425 C126 0.795 . S
C3433 C806 0.637 . S
C3457 C135 0.720 . S
C3465 C175 0.667 . S
C3489 C215 0.590 . S
C3497 C1055 0.720 . S
C3521 C375 0.742 . S
C3529 C255 0.657 . S
C3553 C655 0.766 . S
C3561 C295 0.646 . S
C3585 C326 0.573 . S
C3593 C606 0.730 . S
C3617 C886 0.681 . S
C3625 C366 0.700 . S
C3649 C406 0.616 . S
C3657 C206 0.722 . S
C3681 C1126 0.794 . S
C3689 C446 0.639 . S
C3713 C495 0.617 . S
C3721 C455 0.711 . S
C3745 C535 0.682 . S
C3753 C735 0.686 . S
C3777 C575 0.780 . S
C3785 C55 0.640 . S
C3809 C975 0.686 . S
C3817 C615 0.682 . S
C3841 C646 0.716 . S
C3849 C926 0.687 . S
C3873 C686 0.710 . S
C3881 C566 0.658 . S
C3905 C726 0.657 . S
C3913 C1166 0.679 . S
C3937 C766 0.658 . S
C3945 C166 0.710 . S
C3969 C815 0.657 . S
C3977 C775 0.696 . S
C4001 C415 0.750 . S
C4009 C855 0.653 . S
C4033 C1015 0.781 . S
C4041 C895 0.638 . S
C4065 C935 0.779 . S
C4073 C15 0.641 . S
C4097 C1246 0.629 . S
C4105 C966 0.716 . S
C4129 C246 0.789 . S
C4137 C1006 0.628 . S
C4161 C846 0.757 . S
C4169 C1046 0.637 . S
C4193 C1086 0.796 . S
C4201 C486 0.636 . S
C4225 C1095 0.783 . S
C4233 C1135 0.637 . S
C4257 C95 0.665 . S
C4265 C1175 0.690 . S
C4289 C695 0.711 . S
C4297 C1215 0.671 . S
C4321 C1255 0.677 . S
C4329 C335 0.688 . S
