# Generated by pormake.
# Topology wjg, (4)-cn, num edge types: 1
# Building blocks:
#     Node 0, Type 0, BuildingBlock: CEKHIL_clean_sbu_0, # of connection points: 4
#     Node 1, Type 0, BuildingBlock: CEKHIL_clean_sbu_0, # of connection points: 4
#     Node 2, Type 0, BuildingBlock: CEKHIL_clean_sbu_0, # of connection points: 4
#     Node 3, Type 0, BuildingBlock: CEKHIL_clean_sbu_0, # of connection points: 4
#     Node 4, Type 0, BuildingBlock: CEKHIL_clean_sbu_0, # of connection points: 4
#     Node 5, Type 0, BuildingBlock: CEKHIL_clean_sbu_0, # of connection points: 4
#     Node 6, Type 0, BuildingBlock: CEKHIL_clean_sbu_0, # of connection points: 4
#     Node 7, Type 0, BuildingBlock: CEKHIL_clean_sbu_0, # of connection points: 4
#     Node 8, Type 0, BuildingBlock: CEKHIL_clean_sbu_0, # of connection points: 4
#     Node 9, Type 0, BuildingBlock: CEKHIL_clean_sbu_0, # of connection points: 4
#     Node 10, Type 0, BuildingBlock: CEKHIL_clean_sbu_0, # of connection points: 4
#     Node 11, Type 0, BuildingBlock: CEKHIL_clean_sbu_0, # of connection points: 4
#     Edge 12, Type (0, 0), BuildingBlock: MIFKUJ_clean_linker_0, # of connection points: 2
#     Edge 13, Type (0, 0), BuildingBlock: MIFKUJ_clean_linker_0, # of connection points: 2
#     Edge 14, Type (0, 0), BuildingBlock: MIFKUJ_clean_linker_0, # of connection points: 2
#     Edge 15, Type (0, 0), BuildingBlock: MIFKUJ_clean_linker_0, # of connection points: 2
#     Edge 16, Type (0, 0), BuildingBlock: MIFKUJ_clean_linker_0, # of connection points: 2
#     Edge 17, Type (0, 0), BuildingBlock: MIFKUJ_clean_linker_0, # of connection points: 2
#     Edge 18, Type (0, 0), BuildingBlock: MIFKUJ_clean_linker_0, # of connection points: 2
#     Edge 19, Type (0, 0), BuildingBlock: MIFKUJ_clean_linker_0, # of connection points: 2
#     Edge 20, Type (0, 0), BuildingBlock: MIFKUJ_clean_linker_0, # of connection points: 2
#     Edge 21, Type (0, 0), BuildingBlock: MIFKUJ_clean_linker_0, # of connection points: 2
#     Edge 22, Type (0, 0), BuildingBlock: MIFKUJ_clean_linker_0, # of connection points: 2
#     Edge 23, Type (0, 0), BuildingBlock: MIFKUJ_clean_linker_0, # of connection points: 2
#     Edge 24, Type (0, 0), BuildingBlock: MIFKUJ_clean_linker_0, # of connection points: 2
#     Edge 25, Type (0, 0), BuildingBlock: MIFKUJ_clean_linker_0, # of connection points: 2
#     Edge 26, Type (0, 0), BuildingBlock: MIFKUJ_clean_linker_0, # of connection points: 2
#     Edge 27, Type (0, 0), BuildingBlock: MIFKUJ_clean_linker_0, # of connection points: 2
#     Edge 28, Type (0, 0), BuildingBlock: MIFKUJ_clean_linker_0, # of connection points: 2
#     Edge 29, Type (0, 0), BuildingBlock: MIFKUJ_clean_linker_0, # of connection points: 2
#     Edge 30, Type (0, 0), BuildingBlock: MIFKUJ_clean_linker_0, # of connection points: 2
#     Edge 31, Type (0, 0), BuildingBlock: MIFKUJ_clean_linker_0, # of connection points: 2
#     Edge 32, Type (0, 0), BuildingBlock: MIFKUJ_clean_linker_0, # of connection points: 2
#     Edge 33, Type (0, 0), BuildingBlock: MIFKUJ_clean_linker_0, # of connection points: 2
#     Edge 34, Type (0, 0), BuildingBlock: MIFKUJ_clean_linker_0, # of connection points: 2
#     Edge 35, Type (0, 0), BuildingBlock: MIFKUJ_clean_linker_0, # of connection points: 2
# Relax obj value: 0.339
# Max RMSD: 0.121
# Mean RMSD: 0.111
data_MOF--net-wjg--node1-CEKHIL_clean_sbu_0--edge1-MIFKUJ_clean_linker_0
_symmetry_space_group_name_H-M    P1
_symmetry_Int_Tables_number       1
_symmetry_cell_setting            triclinic
loop_
_symmetry_equiv_pos_as_xyz
'x, y, z'
_cell_length_a     39.745207
_cell_length_b     39.555494
_cell_length_c     52.340647
_cell_angle_alpha  89.987006
_cell_angle_beta   90.009982
_cell_angle_gamma 120.11163
loop_
_atom_site_label
_atom_site_type_symbol
_atom_site_fract_x
_atom_site_fract_y
_atom_site_fract_z
_atom_type_partial_charge
Co0 Co 0.15064 0.42301 0.31773 0.0
O1 O 0.14087 0.43137 0.28344 0.0
O2 O 0.09629 0.38676 0.30885 0.0
C3 C 0.18396 0.48664 0.32857 0.0
O4 O 0.15393 0.40848 0.35494 0.0
Co5 Co 0.23957 0.45726 0.32868 0.0
O6 O 0.2185 0.43809 0.36333 0.0
C7 C 0.19582 0.38213 0.30223 0.0
C8 C 0.1056 0.40311 0.2863 0.0
C9 C 0.18295 0.4169 0.36999 0.0
O10 O 0.16433 0.38298 0.30601 0.0
O11 O 0.22958 0.41086 0.30754 0.0
O12 O 0.1462 0.46792 0.32928 0.0
O13 O 0.19914 0.46765 0.31859 0.0
Co14 Co 0.7409 0.15538 0.6457 0.0
O15 O 0.73885 0.1462 0.60994 0.0
O16 O 0.72625 0.10103 0.63934 0.0
C17 C 0.70795 0.18785 0.6446 0.0
O18 O 0.74132 0.15762 0.68487 0.0
Co19 Co 0.78709 0.24355 0.66164 0.0
O20 O 0.76159 0.22063 0.69474 0.0
C21 C 0.82937 0.20307 0.64709 0.0
C22 C 0.72996 0.11079 0.61524 0.0
C23 C 0.74789 0.18493 0.70108 0.0
O24 O 0.7972 0.17046 0.646 0.0
O25 O 0.83127 0.23598 0.65083 0.0
O26 O 0.68901 0.14989 0.64511 0.0
O27 O 0.74505 0.20387 0.6419 0.0
Co28 Co 0.58106 0.73309 0.98127 0.0
O29 O 0.58885 0.73339 0.94531 0.0
O30 O 0.6191 0.71704 0.97418 0.0
C31 C 0.51578 0.70201 0.97869 0.0
O32 O 0.57969 0.73073 0.02033 0.0
Co33 Co 0.53969 0.77686 0.00213 0.0
O34 O 0.5367 0.74816 0.03387 0.0
C35 C 0.62374 0.82085 0.98911 0.0
C36 C 0.61391 0.72256 0.95028 0.0
C37 C 0.55992 0.73538 0.03813 0.0
O38 O 0.62344 0.78914 0.98336 0.0
O39 O 0.59321 0.82208 0.99542 0.0
O40 O 0.53339 0.68185 0.97919 0.0
O41 O 0.53798 0.7394 0.97804 0.0
Co42 Co 0.8559 0.58035 0.31435 0.0
O43 O 0.87801 0.5868 0.28118 0.0
O44 O 0.9117 0.61671 0.31605 0.0
C45 C 0.81887 0.51479 0.31213 0.0
O46 O 0.8406 0.57899 0.35184 0.0
Co47 Co 0.76589 0.54556 0.31663 0.0
O48 O 0.77508 0.54322 0.3537 0.0
C49 C 0.81694 0.62796 0.3023 0.0
C50 C 0.91103 0.611 0.29148 0.0
C51 C 0.80833 0.56194 0.36447 0.0
O52 O 0.84697 0.62535 0.30805 0.0
O53 O 0.78232 0.59853 0.30201 0.0
O54 O 0.85517 0.53065 0.31884 0.0
O55 O 0.80798 0.53887 0.30477 0.0
Co56 Co 0.2634 0.8444 0.64841 0.0
O57 O 0.27633 0.85851 0.61354 0.0
O58 O 0.28166 0.9 0.64385 0.0
C59 C 0.29377 0.80949 0.65122 0.0
O60 O 0.25275 0.83735 0.68699 0.0
Co61 Co 0.20983 0.75497 0.65844 0.0
O62 O 0.22598 0.77256 0.69411 0.0
C63 C 0.17554 0.80075 0.63928 0.0
C64 C 0.28578 0.89373 0.61987 0.0
C65 C 0.24036 0.8076 0.70214 0.0
O66 O 0.20849 0.83222 0.6421 0.0
O67 O 0.1708 0.76653 0.6425 0.0
O68 O 0.31353 0.84721 0.65387 0.0
O69 O 0.25807 0.79535 0.64427 0.0
Co70 Co 0.40011 0.26444 0.98358 0.0
O71 O 0.39294 0.27738 0.94974 0.0
O72 O 0.36383 0.28405 0.984 0.0
C73 C 0.46528 0.29338 0.98131 0.0
O74 O 0.40272 0.25362 0.02151 0.0
Co75 Co 0.43513 0.20935 0.98759 0.0
O76 O 0.43983 0.22528 0.02404 0.0
C77 C 0.35283 0.17673 0.97433 0.0
C78 C 0.36924 0.28733 0.95934 0.0
C79 C 0.42132 0.24035 0.03442 0.0
O80 O 0.35538 0.20972 0.97925 0.0
O81 O 0.38207 0.17147 0.9739 0.0
O82 O 0.44917 0.31405 0.98686 0.0
O83 O 0.44164 0.25779 0.97465 0.0
Co84 Co 0.58903 0.85118 0.35025 0.0
O85 O 0.58795 0.85738 0.3862 0.0
O86 O 0.62577 0.90522 0.35985 0.0
C87 C 0.52387 0.81703 0.3461 0.0
O88 O 0.59554 0.85261 0.31136 0.0
Co89 Co 0.55288 0.76483 0.3313 0.0
O90 O 0.55622 0.79046 0.29807 0.0
C91 C 0.63109 0.80498 0.35429 0.0
C92 C 0.61414 0.89361 0.3832 0.0
C93 C 0.57852 0.82681 0.29361 0.0
O94 O 0.63097 0.83739 0.35431 0.0
O95 O 0.60147 0.77216 0.34813 0.0
O96 O 0.54186 0.85497 0.34637 0.0
O97 O 0.54536 0.80186 0.35053 0.0
Co98 Co 0.7284 0.58489 0.68471 0.0
O99 O 0.71869 0.58472 0.72029 0.0
O100 O 0.708 0.61971 0.69183 0.0
C101 C 0.70042 0.51944 0.68207 0.0
O102 O 0.73529 0.59009 0.64592 0.0
Co103 Co 0.78244 0.55224 0.6687 0.0
O104 O 0.76297 0.55456 0.63419 0.0
C105 C 0.81646 0.63202 0.68959 0.0
C106 C 0.70666 0.60893 0.71555 0.0
C107 C 0.74703 0.57476 0.62886 0.0
O108 O 0.78299 0.62958 0.68914 0.0
O109 O 0.82165 0.60325 0.6846 0.0
O110 O 0.6791 0.53573 0.68058 0.0
O111 O 0.73663 0.54276 0.68708 0.0
Co112 Co 0.12941 0.7188 0.01972 0.0
O113 O 0.11855 0.7024 0.05447 0.0
O114 O 0.0741 0.69677 0.02646 0.0
C115 C 0.16786 0.69323 0.01232 0.0
O116 O 0.13235 0.73256 0.98178 0.0
Co117 Co 0.21681 0.77864 0.00751 0.0
O118 O 0.19624 0.77062 0.97211 0.0
C119 C 0.16919 0.80489 0.03405 0.0
C120 C 0.08264 0.69151 0.04965 0.0
C121 C 0.16036 0.75222 0.96588 0.0
O122 O 0.13849 0.77215 0.02901 0.0
O123 O 0.20368 0.81125 0.03014 0.0
O124 O 0.13033 0.67088 0.01094 0.0
O125 O 0.17984 0.72799 0.02074 0.0
Co126 Co 0.40566 0.14968 0.35668 0.0
O127 O 0.39885 0.14107 0.39264 0.0
O128 O 0.36854 0.09483 0.36343 0.0
C129 C 0.4711 0.18539 0.35728 0.0
O130 O 0.4069 0.15046 0.31754 0.0
Co131 Co 0.44288 0.23673 0.33894 0.0
O132 O 0.44599 0.21357 0.30603 0.0
C133 C 0.36063 0.19314 0.35447 0.0
C134 C 0.37411 0.10497 0.38745 0.0
C135 C 0.42576 0.17729 0.30067 0.0
O136 O 0.36207 0.1615 0.35586 0.0
O137 O 0.39052 0.22679 0.35043 0.0
O138 O 0.45388 0.14749 0.35755 0.0
O139 O 0.44841 0.1997 0.3597 0.0
Co140 Co 0.28209 0.41115 0.68673 0.0
O141 O 0.29607 0.41246 0.72168 0.0
O142 O 0.30317 0.37649 0.692 0.0
C143 C 0.30873 0.4764 0.68334 0.0
O144 O 0.27054 0.40463 0.64835 0.0
Co145 Co 0.22537 0.44233 0.67453 0.0
O146 O 0.24134 0.43962 0.63897 0.0
C147 C 0.19522 0.36402 0.69688 0.0
C148 C 0.30694 0.38768 0.71579 0.0
C149 C 0.2568 0.41946 0.6323 0.0
O150 O 0.22836 0.36637 0.69368 0.0
O151 O 0.18925 0.39255 0.69297 0.0
O152 O 0.33051 0.46077 0.68053 0.0
O153 O 0.27341 0.45269 0.6901 0.0
Co154 Co 0.84747 0.26956 0.01913 0.0
O155 O 0.85255 0.27321 0.0553 0.0
O156 O 0.90193 0.29053 0.02881 0.0
C157 C 0.80895 0.29597 0.01643 0.0
O158 O 0.84957 0.26827 0.97999 0.0
Co159 Co 0.76235 0.21364 1.00006 0.0
O160 O 0.78672 0.23884 0.96711 0.0
C161 C 0.80897 0.18099 0.02033 0.0
C162 C 0.88926 0.28621 0.05228 0.0
C163 C 0.82316 0.25721 0.96247 0.0
O164 O 0.83918 0.21522 0.0205 0.0
O165 O 0.77467 0.17449 0.01534 0.0
O166 O 0.84642 0.31859 0.01774 0.0
O167 O 0.79656 0.25928 0.01964 0.0
H168 H 0.25806 0.52079 0.34557 0.0
H169 H 0.30099 0.58946 0.35573 0.0
H170 H 0.20785 0.61304 0.34116 0.0
H171 H 0.16405 0.5434 0.33142 0.0
H172 H 0.2777 0.65988 0.31262 0.0
H173 H 0.24103 0.63375 0.39905 0.0
H174 H 0.22327 0.59899 0.4403 0.0
H175 H 0.33536 0.60805 0.44474 0.0
H176 H 0.35378 0.64267 0.40347 0.0
H177 H 0.4692 0.84003 0.34241 0.0
H178 H 0.39794 0.79701 0.34351 0.0
H179 H 0.41262 0.69617 0.34552 0.0
H180 H 0.48282 0.73821 0.34413 0.0
H181 H 0.36568 0.70715 0.38768 0.0
H182 H 0.3873 0.70933 0.29375 0.0
H183 H 0.40609 0.74425 0.25251 0.0
H184 H 0.32158 0.78035 0.26319 0.0
H185 H 0.30269 0.74601 0.30469 0.0
C186 C 0.24647 0.5404 0.34499 0.0
C187 C 0.20794 0.52702 0.3376 0.0
C188 C 0.27091 0.57956 0.35099 0.0
C189 C 0.25742 0.60618 0.3494 0.0
C190 C 0.21856 0.59278 0.34272 0.0
C191 C 0.19372 0.55317 0.33719 0.0
C192 C 0.286 0.64823 0.3517 0.0
C193 C 0.29618 0.67098 0.32938 0.0
C194 C 0.30991 0.66271 0.37357 0.0
C195 C 0.29882 0.64101 0.39816 0.0
C196 C 0.26183 0.62815 0.40874 0.0
C197 C 0.25168 0.60854 0.43217 0.0
C198 C 0.27823 0.60146 0.44518 0.0
C199 C 0.31491 0.61376 0.43472 0.0
C200 C 0.32527 0.63351 0.41134 0.0
C201 C 0.45704 0.80864 0.34269 0.0
C202 C 0.48145 0.79239 0.34345 0.0
C203 C 0.41653 0.78428 0.34339 0.0
C204 C 0.40043 0.74367 0.34494 0.0
C205 C 0.42476 0.72756 0.3446 0.0
C206 C 0.46485 0.75163 0.34373 0.0
C207 C 0.35844 0.71686 0.34814 0.0
C208 C 0.34596 0.69708 0.37149 0.0
C209 C 0.33256 0.7051 0.32727 0.0
C210 C 0.34404 0.72569 0.30243 0.0
C211 C 0.37306 0.72509 0.28742 0.0
C212 C 0.38364 0.74467 0.26398 0.0
C213 C 0.36515 0.76465 0.25528 0.0
C214 C 0.33596 0.76497 0.26998 0.0
C215 C 0.32532 0.74548 0.29346 0.0
H216 H 0.37336 0.77976 0.23712 0.0
H217 H 0.27034 0.58634 0.46335 0.0
H218 H 0.7441 0.26615 0.65126 0.0
H219 H 0.71471 0.30574 0.6607 0.0
H220 H 0.60042 0.20347 0.65743 0.0
H221 H 0.62995 0.16278 0.64847 0.0
H222 H 0.62812 0.28846 0.62659 0.0
H223 H 0.60274 0.22304 0.70737 0.0
H224 H 0.61783 0.19269 0.74343 0.0
H225 H 0.72029 0.30219 0.76028 0.0
H226 H 0.70617 0.33309 0.72409 0.0
H227 H 0.62653 0.46329 0.66819 0.0
H228 H 0.60113 0.39244 0.66506 0.0
H229 H 0.71314 0.41002 0.6879 0.0
H230 H 0.73848 0.48 0.69091 0.0
H231 H 0.6518 0.34759 0.71301 0.0
H232 H 0.6905 0.40293 0.62656 0.0
H233 H 0.68459 0.43662 0.58861 0.0
H234 H 0.56419 0.34869 0.58123 0.0
H235 H 0.56932 0.31483 0.61941 0.0
C236 C 0.71273 0.25186 0.65255 0.0
C237 C 0.68931 0.21134 0.64928 0.0
C238 C 0.69601 0.27455 0.65793 0.0
C239 C 0.65557 0.25733 0.65986 0.0
C240 C 0.63175 0.21702 0.65607 0.0
C241 C 0.64862 0.19399 0.65099 0.0
C242 C 0.63973 0.28285 0.66607 0.0
C243 C 0.63139 0.30044 0.64568 0.0
C244 C 0.64482 0.29859 0.69091 0.0
C245 C 0.65332 0.28038 0.71298 0.0
C246 C 0.6286 0.24061 0.71867 0.0
C247 C 0.63696 0.22332 0.73916 0.0
C248 C 0.66993 0.24553 0.75418 0.0
C249 C 0.69467 0.28507 0.7487 0.0
C250 C 0.68644 0.30251 0.72822 0.0
C251 C 0.64557 0.45185 0.67257 0.0
C252 C 0.68448 0.47704 0.67969 0.0
C253 C 0.63101 0.41152 0.67089 0.0
C254 C 0.6552 0.39612 0.67651 0.0
C255 C 0.69387 0.42132 0.68383 0.0
C256 C 0.70842 0.46136 0.6853 0.0
C257 C 0.64211 0.35426 0.6733 0.0
C258 C 0.64561 0.3341 0.69426 0.0
C259 C 0.63312 0.33644 0.64893 0.0
C260 C 0.63011 0.35672 0.62601 0.0
C261 C 0.66269 0.391 0.61696 0.0
C262 C 0.6595 0.41008 0.59541 0.0
C263 C 0.62399 0.39488 0.58257 0.0
C264 C 0.59163 0.3605 0.59124 0.0
C265 C 0.59465 0.34137 0.61284 0.0
H266 H 0.62158 0.40967 0.56587 0.0
H267 H 0.67634 0.23208 0.77003 0.0
H268 H 0.47455 0.73391 0.96102 0.0
H269 H 0.4059 0.71109 0.96776 0.0
H270 H 0.39217 0.60858 0.00638 0.0
H271 H 0.4617 0.6312 0.99918 0.0
H272 H 0.32492 0.60415 0.9686 0.0
H273 H 0.39651 0.66158 0.0472 0.0
H274 H 0.45423 0.71003 0.07101 0.0
H275 H 0.44416 0.80327 0.03691 0.0
H276 H 0.38611 0.7553 0.01304 0.0
H277 H 0.15753 0.61947 0.01558 0.0
H278 H 0.20842 0.60169 0.01096 0.0
H279 H 0.29035 0.7203 0.98875 0.0
H280 H 0.24051 0.73816 0.99405 0.0
H281 H 0.31637 0.69692 0.02838 0.0
H282 H 0.25251 0.64314 0.94619 0.0
H283 H 0.19676 0.59771 0.91957 0.0
H284 H 0.19317 0.49986 0.95778 0.0
H285 H 0.24865 0.54478 0.98485 0.0
C286 C 0.45684 0.70612 0.97052 0.0
C287 C 0.47335 0.6845 0.9799 0.0
C288 C 0.41762 0.69302 0.97419 0.0
C289 C 0.39426 0.65835 0.98765 0.0
C290 C 0.40991 0.6353 0.9958 0.0
C291 C 0.44945 0.64829 0.99179 0.0
C292 C 0.35555 0.65042 0.9959 0.0
C293 C 0.3225 0.62346 0.98226 0.0
C294 C 0.3528 0.67595 0.0135 0.0
C295 C 0.38704 0.70486 0.02835 0.0
C296 C 0.40666 0.69242 0.04476 0.0
C297 C 0.43945 0.7198 0.05826 0.0
C298 C 0.45304 0.75972 0.05537 0.0
C299 C 0.43362 0.77234 0.03914 0.0
C300 C 0.40064 0.74506 0.02573 0.0
C301 C 0.1863 0.64139 0.00927 0.0
C302 C 0.19544 0.68028 0.00552 0.0
C303 C 0.21523 0.63125 0.00666 0.0
C304 C 0.25322 0.65983 0.99983 0.0
C305 C 0.26137 0.69795 0.99442 0.0
C306 C 0.23287 0.70814 0.99742 0.0
C307 C 0.28587 0.65199 1.00015 0.0
C308 C 0.31796 0.67624 0.01552 0.0
C309 C 0.28751 0.62408 0.98409 0.0
C310 C 0.25434 0.59727 0.96774 0.0
C311 C 0.2396 0.61194 0.94906 0.0
C312 C 0.20811 0.58628 0.93386 0.0
C313 C 0.19134 0.54592 0.93704 0.0
C314 C 0.20612 0.53113 0.95538 0.0
C315 C 0.23759 0.55666 0.97064 0.0
H316 H 0.16696 0.52611 0.92526 0.0
H317 H 0.47856 0.78085 0.06575 0.0
H318 H 0.52778 0.16513 0.35746 0.0
H319 H 0.59721 0.20769 0.34718 0.0
H320 H 0.57692 0.30345 0.33331 0.0
H321 H 0.50865 0.2621 0.34427 0.0
H322 H 0.62136 0.28244 0.29293 0.0
H323 H 0.61118 0.31002 0.38514 0.0
H324 H 0.59666 0.28731 0.42983 0.0
H325 H 0.67788 0.24597 0.42544 0.0
H326 H 0.69249 0.26808 0.38059 0.0
H327 H 0.74306 0.47777 0.29855 0.0
H328 H 0.69529 0.40904 0.30284 0.0
H329 H 0.78286 0.38661 0.33384 0.0
H330 H 0.8314 0.45658 0.32999 0.0
H331 H 0.71734 0.35184 0.36195 0.0
H332 H 0.74524 0.34994 0.27515 0.0
H333 H 0.76026 0.37276 0.23057 0.0
H334 H 0.64779 0.36205 0.22269 0.0
H335 H 0.63227 0.33982 0.26733 0.0
C336 C 0.5383 0.19531 0.35227 0.0
C337 C 0.51284 0.21032 0.3516 0.0
C338 C 0.57776 0.21941 0.34637 0.0
C339 C 0.59179 0.25842 0.33932 0.0
C340 C 0.56637 0.27325 0.33854 0.0
C341 C 0.52739 0.24959 0.34489 0.0
C342 C 0.63304 0.28503 0.33319 0.0
C343 C 0.64276 0.29738 0.30783 0.0
C344 C 0.66113 0.30311 0.35261 0.0
C345 C 0.65254 0.2902 0.37952 0.0
C346 C 0.62567 0.29578 0.39367 0.0
C347 C 0.61748 0.2831 0.41902 0.0
C348 C 0.63624 0.26508 0.43044 0.0
C349 C 0.66331 0.25984 0.41656 0.0
C350 C 0.67156 0.27244 0.39118 0.0
C351 C 0.75242 0.45833 0.30611 0.0
C352 C 0.79098 0.47255 0.31394 0.0
C353 C 0.72508 0.41886 0.30833 0.0
C354 C 0.73568 0.39249 0.31811 0.0
C355 C 0.77424 0.40645 0.32595 0.0
C356 C 0.80184 0.4463 0.32376 0.0
C357 C 0.70502 0.35118 0.32173 0.0
C358 C 0.69709 0.33597 0.34664 0.0
C359 C 0.67873 0.33012 0.30175 0.0
C360 C 0.68757 0.34309 0.27467 0.0
C361 C 0.72374 0.35258 0.26396 0.0
C362 C 0.73235 0.36544 0.23866 0.0
C363 C 0.70498 0.36882 0.2238 0.0
C364 C 0.66893 0.35932 0.23421 0.0
C365 C 0.66017 0.34648 0.25951 0.0
H366 H 0.71172 0.37881 0.20423 0.0
H367 H 0.62987 0.25529 0.45007 0.0
H368 H 0.37057 0.83039 0.65355 0.0
H369 H 0.39722 0.78699 0.66159 0.0
H370 H 0.28075 0.68936 0.66993 0.0
H371 H 0.25409 0.73181 0.66119 0.0
H372 H 0.34234 0.70344 0.71077 0.0
H373 H 0.31275 0.69156 0.61743 0.0
H374 H 0.32389 0.72107 0.57449 0.0
H375 H 0.4461 0.76201 0.58122 0.0
H376 H 0.43563 0.73307 0.62437 0.0
H377 H 0.26637 0.51211 0.68812 0.0
H378 H 0.28865 0.58136 0.68565 0.0
H379 H 0.40508 0.60593 0.66896 0.0
H380 H 0.38268 0.53546 0.6714 0.0
H381 H 0.37606 0.64673 0.63728 0.0
H382 H 0.39652 0.63299 0.72447 0.0
H383 H 0.3826 0.60111 0.76668 0.0
H384 H 0.27924 0.60936 0.77278 0.0
H385 H 0.29213 0.64072 0.73045 0.0
C386 C 0.35079 0.79966 0.65719 0.0
C387 C 0.31029 0.78434 0.65675 0.0
C388 C 0.36602 0.77508 0.66176 0.0
C389 C 0.34083 0.73524 0.66644 0.0
C390 C 0.30053 0.72017 0.66647 0.0
C391 C 0.28536 0.7444 0.66138 0.0
C392 C 0.35538 0.70804 0.67063 0.0
C393 C 0.35052 0.6914 0.69491 0.0
C394 C 0.36736 0.69354 0.65003 0.0
C395 C 0.37351 0.71068 0.62416 0.0
C396 C 0.34202 0.70717 0.60982 0.0
C397 C 0.3482 0.72371 0.58544 0.0
C398 C 0.3857 0.74353 0.57517 0.0
C399 C 0.41709 0.74674 0.58923 0.0
C400 C 0.41105 0.73029 0.61363 0.0
C401 C 0.29673 0.53202 0.68385 0.0
C402 C 0.32286 0.5184 0.68011 0.0
C403 C 0.30946 0.57167 0.68258 0.0
C404 C 0.34863 0.59869 0.67767 0.0
C405 C 0.37481 0.58538 0.67306 0.0
C406 C 0.362 0.54529 0.67441 0.0
C407 C 0.3607 0.64056 0.67719 0.0
C408 C 0.37027 0.65996 0.65359 0.0
C409 C 0.35324 0.65778 0.69853 0.0
C410 C 0.34542 0.63936 0.72424 0.0
C411 C 0.37074 0.6279 0.73476 0.0
C412 C 0.36302 0.6099 0.75872 0.0
C413 C 0.33008 0.60325 0.77241 0.0
C414 C 0.30481 0.61463 0.76218 0.0
C415 C 0.31237 0.63262 0.73822 0.0
H416 H 0.32414 0.58928 0.79095 0.0
H417 H 0.39044 0.75631 0.55629 0.0
H418 H 0.73617 0.25571 0.9968 0.0
H419 H 0.69029 0.27888 0.99048 0.0
H420 H 0.77457 0.39223 0.01968 0.0
H421 H 0.82161 0.36954 0.02521 0.0
H422 H 0.6842 0.33647 0.04213 0.0
H423 H 0.76465 0.4116 0.97216 0.0
H424 H 0.80602 0.42286 0.93439 0.0
H425 H 0.70983 0.32877 0.89503 0.0
H426 H 0.66802 0.31653 0.93274 0.0
H427 H 0.51826 0.35721 0.00848 0.0
H428 H 0.58739 0.37868 0.01512 0.0
H429 H 0.5752 0.28417 0.9675 0.0
H430 H 0.50647 0.26238 0.96113 0.0
H431 H 0.64273 0.35693 0.95687 0.0
H432 H 0.57832 0.26696 0.0298 0.0
H433 H 0.5364 0.24419 0.06805 0.0
H434 H 0.5992 0.35946 0.10027 0.0
H435 H 0.64226 0.38254 0.06242 0.0
C436 C 0.74518 0.28569 0.0016 0.0
C437 C 0.78234 0.31087 0.01149 0.0
C438 C 0.71902 0.29888 0.99793 0.0
C439 C 0.72931 0.33719 0.00454 0.0
C440 C 0.76643 0.36264 0.01433 0.0
C441 C 0.79311 0.34968 0.01744 0.0
C442 C 0.69955 0.34874 0.0024 0.0
C443 C 0.67591 0.34272 0.02373 0.0
C444 C 0.68846 0.35569 0.97823 0.0
C445 C 0.71327 0.36302 0.95536 0.0
C446 C 0.7524 0.39309 0.95554 0.0
C447 C 0.77592 0.3997 0.93412 0.0
C448 C 0.76059 0.3765 0.91234 0.0
C449 C 0.72167 0.34671 0.91192 0.0
C450 C 0.69803 0.33998 0.9333 0.0
C451 C 0.53055 0.34133 0.99928 0.0
C452 C 0.50718 0.30816 0.9843 0.0
C453 C 0.56987 0.35355 0.00312 0.0
C454 C 0.58624 0.33304 0.9917 0.0
C455 C 0.56308 0.30051 0.9763 0.0
C456 C 0.52383 0.288 0.97278 0.0
C457 C 0.62698 0.34375 0.99652 0.0
C458 C 0.6522 0.35325 0.97558 0.0
C459 C 0.63944 0.33963 0.021 0.0
C460 C 0.61303 0.32651 0.04327 0.0
C461 C 0.58295 0.28744 0.045 0.0
C462 C 0.55915 0.27447 0.06663 0.0
C463 C 0.56485 0.30046 0.08647 0.0
C464 C 0.5947 0.33941 0.08483 0.0
C465 C 0.61896 0.3524 0.06337 0.0
H466 H 0.54629 0.2904 0.10317 0.0
H467 H 0.77884 0.38165 0.89577 0.0
H468 H 0.12923 0.31049 0.29833 0.0
H469 H 0.12542 0.24699 0.30145 0.0
H470 H 0.25034 0.30369 0.29635 0.0
H471 H 0.25458 0.36697 0.29267 0.0
H472 H 0.20333 0.2223 0.27351 0.0
H473 H 0.22949 0.28846 0.36983 0.0
H474 H 0.2065 0.31994 0.40029 0.0
H475 H 0.08932 0.24726 0.37377 0.0
H476 H 0.11161 0.21432 0.34378 0.0
H477 H 0.344 0.24985 0.3669 0.0
H478 H 0.28447 0.25039 0.357 0.0
H479 H 0.23088 0.13097 0.33089 0.0
H480 H 0.29074 0.13017 0.3409 0.0
H481 H 0.20522 0.20805 0.36759 0.0
H482 H 0.18518 0.13173 0.27573 0.0
H483 H 0.21738 0.10679 0.24722 0.0
H484 H 0.32876 0.20562 0.26566 0.0
H485 H 0.29705 0.23122 0.29411 0.0
C486 C 0.15586 0.3094 0.29695 0.0
C487 C 0.19238 0.34401 0.29599 0.0
C488 C 0.15353 0.27301 0.29887 0.0
C489 C 0.18763 0.27091 0.29984 0.0
C490 C 0.22366 0.30482 0.29578 0.0
C491 C 0.22605 0.34108 0.2938 0.0
C492 C 0.18777 0.2361 0.30985 0.0
C493 C 0.20192 0.21745 0.29399 0.0
C494 C 0.18598 0.22984 0.33656 0.0
C495 C 0.17227 0.24948 0.35432 0.0
C496 C 0.19883 0.27927 0.37051 0.0
C497 C 0.18591 0.29732 0.38771 0.0
C498 C 0.14651 0.286 0.38877 0.0
C499 C 0.11987 0.25622 0.37281 0.0
C500 C 0.13262 0.23777 0.35576 0.0
C501 C 0.31922 0.22334 0.35974 0.0
C502 C 0.32218 0.19022 0.35432 0.0
C503 C 0.28508 0.22354 0.35425 0.0
C504 C 0.25344 0.1908 0.34299 0.0
C505 C 0.25505 0.1565 0.33952 0.0
C506 C 0.28923 0.15614 0.34529 0.0
C507 C 0.2225 0.19602 0.33135 0.0
C508 C 0.20322 0.2096 0.34698 0.0
C509 C 0.21952 0.19756 0.30449 0.0
C510 C 0.23882 0.18314 0.28706 0.0
C511 C 0.21651 0.14814 0.27358 0.0
C512 C 0.23465 0.13391 0.25748 0.0
C513 C 0.27508 0.15459 0.25466 0.0
C514 C 0.29745 0.18964 0.26787 0.0
C515 C 0.27942 0.20404 0.28396 0.0
H516 H 0.289 0.14344 0.24222 0.0
H517 H 0.1366 0.30012 0.40205 0.0
H518 H 0.83906 0.13924 0.65117 0.0
H519 H 0.90052 0.13989 0.65726 0.0
H520 H 0.96333 0.26535 0.6487 0.0
H521 H 0.90273 0.26499 0.64227 0.0
H522 H 0.00063 0.23387 0.6259 0.0
H523 H 0.93367 0.2206 0.70813 0.0
H524 H 0.8793 0.18414 0.73819 0.0
H525 H 0.89868 0.0867 0.73544 0.0
H526 H 0.95294 0.12254 0.70516 0.0
H527 H 0.12982 0.34561 0.72396 0.0
H528 H 0.06608 0.28806 0.71675 0.0
H529 H 0.11841 0.23851 0.66864 0.0
H530 H 0.18248 0.29553 0.67644 0.0
H531 H 0.02228 0.20434 0.71452 0.0
H532 H 0.07302 0.23223 0.60984 0.0
H533 H 0.12016 0.28395 0.58108 0.0
H534 H 0.12916 0.37197 0.63317 0.0
H535 H 0.08163 0.32092 0.66185 0.0
C536 C 0.86608 0.16687 0.65001 0.0
C537 C 0.86605 0.2022 0.64653 0.0
C538 C 0.90107 0.16711 0.65359 0.0
C539 C 0.93635 0.20264 0.65364 0.0
C540 C 0.93639 0.23753 0.64864 0.0
C541 C 0.90166 0.23735 0.64511 0.0
C542 C 0.97339 0.20521 0.66111 0.0
C543 C 0.00532 0.22607 0.64493 0.0
C544 C 0.97938 0.19536 0.68604 0.0
C545 C 0.94691 0.17396 0.7042 0.0
C546 C 0.92613 0.1913 0.71384 0.0
C547 C 0.89539 0.17078 0.73092 0.0
C548 C 0.88546 0.13308 0.73865 0.0
C549 C 0.90633 0.11586 0.72938 0.0
C550 C 0.93705 0.13624 0.71226 0.0
C551 C 0.12793 0.32153 0.71294 0.0
C552 C 0.16078 0.32516 0.70041 0.0
C553 C 0.09158 0.28853 0.70896 0.0
C554 C 0.08763 0.25942 0.69187 0.0
C555 C 0.121 0.26072 0.68191 0.0
C556 C 0.15755 0.29336 0.68637 0.0
C557 C 0.04943 0.23487 0.67969 0.0
C558 C 0.0175 0.2097 0.69489 0.0
C559 C 0.04325 0.24234 0.65417 0.0
C560 C 0.07457 0.27277 0.63823 0.0
C561 C 0.08553 0.26262 0.61526 0.0
C562 C 0.11208 0.29182 0.59891 0.0
C563 C 0.12754 0.33119 0.60532 0.0
C564 C 0.11719 0.34147 0.62828 0.0
C565 C 0.09056 0.31243 0.64461 0.0
H566 H 0.14713 0.35381 0.59237 0.0
H567 H 0.86167 0.11725 0.75188 0.0
H568 H 0.75898 0.11114 0.04202 0.0
H569 H 0.76285 0.05161 0.04038 0.0
H570 H 0.87439 0.11429 0.00288 0.0
H571 H 0.87109 0.17456 0.00511 0.0
H572 H 0.8163 0.05106 0.97481 0.0
H573 H 0.87642 0.06718 0.05386 0.0
H574 H 0.8931 0.08668 0.09889 0.0
H575 H 0.77627 0.00366 0.12142 0.0
H576 H 0.75866 0.98422 0.07651 0.0
H577 H 0.69447 0.83628 0.96973 0.0
H578 H 0.7578 0.89594 0.9763 0.0
H579 H 0.70154 0.94588 0.02009 0.0
H580 H 0.63888 0.88749 0.01356 0.0
H581 H 0.77317 0.95068 0.04293 0.0
H582 H 0.71837 0.97705 0.96163 0.0
H583 H 0.69733 0.95849 0.91689 0.0
H584 H 0.80409 0.96041 0.90019 0.0
H585 H 0.82553 0.9788 0.9449 0.0
C586 C 0.78482 0.11248 0.03412 0.0
C587 C 0.81454 0.14719 0.02353 0.0
C588 C 0.78726 0.07861 0.0334 0.0
C589 C 0.81914 0.07872 0.02171 0.0
C590 C 0.84987 0.11383 0.01227 0.0
C591 C 0.84785 0.14808 0.01353 0.0
C592 C 0.8156 0.04075 0.01535 0.0
C593 C 0.80874 0.02921 0.98963 0.0
C594 C 0.80622 0.01236 0.03459 0.0
C595 C 0.81633 0.02392 0.06176 0.0
C596 C 0.85423 0.05314 0.0684 0.0
C597 C 0.86385 0.06423 0.09391 0.0
C598 C 0.8358 0.04633 0.11301 0.0
C599 C 0.79803 0.01737 0.10662 0.0
C600 C 0.78825 0.0062 0.08113 0.0
C601 C 0.69572 0.86012 0.98068 0.0
C602 C 0.66164 0.85726 0.99103 0.0
C603 C 0.73184 0.89388 0.98453 0.0
C604 C 0.73416 0.92468 0.99911 0.0
C605 C 0.70024 0.92195 0.0092 0.0
C606 C 0.66436 0.88873 0.00513 0.0
C607 C 0.7709 0.96159 0.0029 0.0
C608 C 0.78382 0.97275 0.02806 0.0
C609 C 0.78599 0.98967 0.98322 0.0
C610 C 0.77341 0.9791 0.95644 0.0
C611 C 0.73726 0.97346 0.94835 0.0
C612 C 0.72527 0.96296 0.92305 0.0
C613 C 0.74935 0.95824 0.90571 0.0
C614 C 0.78547 0.96405 0.91364 0.0
C615 C 0.79755 0.9745 0.93894 0.0
H616 H 0.74003 0.9501 0.88613 0.0
H617 H 0.84331 0.05495 0.13276 0.0
H618 H 0.70461 0.8678 0.34935 0.0
H619 H 0.76458 0.86523 0.34483 0.0
H620 H 0.70157 0.74228 0.36309 0.0
H621 H 0.64185 0.74457 0.36767 0.0
H622 H 0.77792 0.77793 0.37943 0.0
H623 H 0.70178 0.77107 0.30212 0.0
H624 H 0.67487 0.80083 0.2731 0.0
H625 H 0.78924 0.89945 0.26171 0.0
H626 H 0.81668 0.87046 0.29099 0.0
H627 H 0.76592 0.64704 0.2813 0.0
H628 H 0.76345 0.7061 0.28999 0.0
H629 H 0.87513 0.75701 0.32736 0.0
H630 H 0.87777 0.69761 0.31884 0.0
H631 H 0.80263 0.78571 0.28605 0.0
H632 H 0.86121 0.79115 0.38489 0.0
H633 H 0.87831 0.75299 0.41408 0.0
H634 H 0.78785 0.64613 0.38156 0.0
H635 H 0.76991 0.68373 0.35245 0.0
C636 C 0.70384 0.84054 0.3533 0.0
C637 C 0.66838 0.80612 0.35829 0.0
C638 C 0.73815 0.83919 0.35072 0.0
C639 C 0.73731 0.80348 0.35325 0.0
C640 C 0.70282 0.77016 0.36104 0.0
C641 C 0.66859 0.77141 0.36343 0.0
C642 C 0.76905 0.79812 0.34323 0.0
C643 C 0.7846 0.7809 0.35916 0.0
C644 C 0.77757 0.80188 0.31677 0.0
C645 C 0.76118 0.81887 0.29888 0.0
C646 C 0.72112 0.79916 0.29347 0.0
C647 C 0.70578 0.81587 0.277 0.0
C648 C 0.73033 0.85202 0.26561 0.0
C649 C 0.77026 0.87148 0.2706 0.0
C650 C 0.78572 0.85496 0.28714 0.0
C651 C 0.79061 0.67126 0.29059 0.0
C652 C 0.82146 0.66723 0.30004 0.0
C653 C 0.78933 0.70522 0.29538 0.0
C654 C 0.81874 0.73555 0.30981 0.0
C655 C 0.85198 0.7337 0.31642 0.0
C656 C 0.85338 0.69968 0.31151 0.0
C657 C 0.80993 0.76387 0.32209 0.0
C658 C 0.79852 0.78526 0.30657 0.0
C659 C 0.80442 0.76316 0.34888 0.0
C660 C 0.81467 0.74023 0.36632 0.0
C661 C 0.84501 0.75952 0.38401 0.0
C662 C 0.85479 0.73801 0.40054 0.0
C663 C 0.83426 0.69719 0.39961 0.0
C664 C 0.80377 0.67775 0.38221 0.0
C665 C 0.79378 0.69914 0.36571 0.0
H666 H 0.84191 0.68065 0.41242 0.0
H667 H 0.71844 0.86495 0.25288 0.0
H668 H 0.10349 0.7442 0.62363 0.0
H669 H 0.04305 0.74504 0.62833 0.0
H670 H 0.10709 0.86546 0.65256 0.0
H671 H 0.16802 0.8649 0.64791 0.0
H672 H 0.05547 0.82036 0.68782 0.0
H673 H 0.04861 0.84299 0.60062 0.0
H674 H 0.05402 0.83735 0.55409 0.0
H675 H 0.96441 0.71668 0.55687 0.0
H676 H 0.95886 0.72132 0.60345 0.0
H677 H 0.82522 0.7015 0.67355 0.0
H678 H 0.88716 0.76135 0.66542 0.0
H679 H 0.94824 0.70979 0.70166 0.0
H680 H 0.88675 0.64994 0.70939 0.0
H681 H 0.93768 0.75491 0.63336 0.0
H682 H 0.02994 0.77468 0.72523 0.0
H683 H 0.02333 0.7798 0.7717 0.0
H684 H 0.94201 0.81938 0.75881 0.0
H685 H 0.94817 0.81463 0.71226 0.0
C686 C 0.10489 0.77124 0.62921 0.0
C687 C 0.14049 0.80424 0.63578 0.0
C688 C 0.07028 0.77182 0.6317 0.0
C689 C 0.07057 0.80537 0.64079 0.0
C690 C 0.10627 0.83934 0.64545 0.0
C691 C 0.14104 0.83892 0.64273 0.0
C692 C 0.03361 0.80198 0.64959 0.0
C693 C 0.02977 0.80691 0.67581 0.0
C694 C 0.00029 0.78574 0.63376 0.0
C695 C 0.00328 0.7826 0.60563 0.0
C696 C 0.03016 0.81518 0.59136 0.0
C697 C 0.03326 0.81215 0.56495 0.0
C698 C 0.00955 0.77669 0.55254 0.0
C699 C 0.98269 0.74417 0.56651 0.0
C700 C 0.97949 0.74702 0.59292 0.0
C701 C 0.85177 0.70359 0.68071 0.0
C702 C 0.85137 0.67099 0.69183 0.0
C703 C 0.88709 0.73776 0.67599 0.0
C704 C 0.92223 0.74001 0.68293 0.0
C705 C 0.92143 0.70891 0.69642 0.0
C706 C 0.88631 0.67458 0.7007 0.0
C707 C 0.95955 0.77009 0.67179 0.0
C708 C 0.96351 0.77012 0.64514 0.0
C709 C 0.99294 0.79105 0.68716 0.0
C710 C 0.98964 0.79441 0.7152 0.0
C711 C 0.01089 0.78479 0.73227 0.0
C712 C 0.00712 0.7875 0.75864 0.0
C713 C 0.98236 0.80001 0.76819 0.0
C714 C 0.96119 0.80969 0.75139 0.0
C715 C 0.96472 0.80688 0.72501 0.0
H716 H 0.97955 0.80215 0.78861 0.0
H717 H 0.012 0.77441 0.53209 0.0
H718 H 0.32119 0.11801 0.93915 0.0
H719 H 0.26477 0.05292 0.94605 0.0
H720 H 0.24552 0.09068 0.01937 0.0
H721 H 0.29905 0.1562 0.01114 0.0
H722 H 0.26854 0.01036 0.97731 0.0
H723 H 0.16496 0.02804 0.04918 0.0
H724 H 0.13255 0.06702 0.05318 0.0
H725 H 0.14064 0.08567 0.97207 0.0
H726 H 0.1726 0.04633 0.96749 0.0
H727 H 0.21782 0.8699 0.06139 0.0
H728 H 0.22701 0.93465 0.05304 0.0
H729 H 0.12268 0.88342 0.00738 0.0
H730 H 0.11263 0.81839 0.01627 0.0
H731 H 0.1481 0.96341 0.02852 0.0
H732 H 0.19067 0.89215 0.97525 0.0
H733 H 0.21932 0.85019 0.96816 0.0
H734 H 0.32558 0.93605 0.00359 0.0
H735 H 0.29739 0.97836 0.01119 0.0
C736 C 0.3035 0.11264 0.95607 0.0
C737 C 0.31414 0.14174 0.97462 0.0
C738 C 0.27143 0.07548 0.96014 0.0
C739 C 0.2508 0.06644 0.98339 0.0
C740 C 0.25993 0.09664 1.00101 0.0
C741 C 0.29089 0.13418 0.99641 0.0
C742 C 0.22626 0.02497 0.99147 0.0
C743 C 0.24177 0.00027 0.98796 0.0
C744 C 0.19111 0.01103 0.00547 0.0
C745 C 0.17138 0.03432 0.00802 0.0
C746 C 0.15958 0.04019 0.03216 0.0
C747 C 0.14135 0.06243 0.03454 0.0
C748 C 0.1346 0.07886 0.0129 0.0
C749 C 0.14599 0.07302 0.98883 0.0
C750 C 0.16422 0.05079 0.98633 0.0
C751 C 0.19565 0.87226 0.0508 0.0
C752 C 0.16517 0.83937 0.03887 0.0
C753 C 0.20085 0.90925 0.0461 0.0
C754 C 0.17609 0.91366 0.02901 0.0
C755 C 0.14215 0.88051 0.02052 0.0
C756 C 0.13654 0.84332 0.02559 0.0
C757 C 0.19149 0.9507 0.01475 0.0
C758 C 0.17434 0.974 0.0172 0.0
C759 C 0.22446 0.9632 0.99895 0.0
C760 C 0.24183 0.93824 0.99396 0.0
C761 C 0.22007 0.90197 0.98165 0.0
C762 C 0.23621 0.87814 0.97753 0.0
C763 C 0.27418 0.89037 0.98548 0.0
C764 C 0.29615 0.92658 0.99747 0.0
C765 C 0.28014 0.95053 0.00166 0.0
H766 H 0.28658 0.87184 0.98228 0.0
H767 H 0.1205 0.0961 0.01479 0.0
H768 H 0.96876 0.33477 0.05776 0.0
H769 H 0.00553 0.35137 0.09818 0.0
H770 H 0.90083 0.27069 0.13848 0.0
H771 H 0.8644 0.25476 0.09885 0.0
H772 H 0.93482 0.33823 0.16204 0.0
H773 H 0.97431 0.25084 0.12792 0.0
H774 H 0.00212 0.22597 0.09596 0.0
H775 H 0.11146 0.33327 0.10011 0.0
H776 H 0.08412 0.359 0.13186 0.0
H777 H 0.02921 0.34251 0.28253 0.0
H778 H 0.99023 0.31883 0.24302 0.0
H779 H 0.08567 0.40874 0.19991 0.0
H780 H 0.12391 0.43272 0.23857 0.0
H781 H 0.05518 0.33353 0.17878 0.0
H782 H 0.01422 0.42161 0.21105 0.0
H783 H 0.98617 0.44681 0.2426 0.0
H784 H 0.87903 0.33703 0.24184 0.0
H785 H 0.90666 0.31101 0.21049 0.0
C786 C 0.95392 0.32034 0.07524 0.0
C787 C 0.91371 0.29388 0.07521 0.0
C788 C 0.97483 0.32976 0.09829 0.0
C789 C 0.9558 0.31237 0.12141 0.0
C790 C 0.91604 0.28482 0.12101 0.0
C791 C 0.89529 0.27573 0.09826 0.0
C792 C 0.9763 0.32385 0.14636 0.0
C793 C 0.96083 0.33662 0.16578 0.0
C794 C 0.01053 0.32235 0.15117 0.0
C795 C 0.02703 0.307 0.13206 0.0
C796 C 0.00418 0.26926 0.12185 0.0
C797 C 0.01988 0.25498 0.10381 0.0
C798 C 0.0585 0.27807 0.09595 0.0
C799 C 0.08153 0.31545 0.10618 0.0
C800 C 0.06595 0.32988 0.12422 0.0
C801 C 0.04155 0.35735 0.26465 0.0
C802 C 0.07964 0.38939 0.26374 0.0
C803 C 0.01941 0.3438 0.24214 0.0
C804 C 0.03536 0.36192 0.21857 0.0
C805 C 0.073 0.39414 0.21783 0.0
C806 C 0.09474 0.40788 0.2401 0.0
C807 C 0.01355 0.34769 0.19431 0.0
C808 C 0.0289 0.33463 0.17503 0.0
C809 C 0.97915 0.34879 0.18962 0.0
C810 C 0.96269 0.36419 0.20872 0.0
C811 C 0.98484 0.40269 0.21784 0.0
C812 C 0.96898 0.41717 0.23562 0.0
C813 C 0.93089 0.39349 0.2443 0.0
C814 C 0.90856 0.3553 0.23516 0.0
C815 C 0.9243 0.34068 0.21738 0.0
H816 H 0.91864 0.40477 0.25804 0.0
H817 H 0.07061 0.26696 0.08199 0.0
H818 H 0.67926 0.03155 0.61039 0.0
H819 H 0.66567 0.99345 0.57063 0.0
H820 H 0.75835 0.09412 0.53279 0.0
H821 H 0.77138 0.13193 0.57189 0.0
H822 H 0.69233 0.06668 0.50691 0.0
H823 H 0.76576 0.01371 0.54526 0.0
H824 H 0.78269 0.98091 0.57873 0.0
H825 H 0.66996 0.8783 0.57166 0.0
H826 H 0.65215 0.9107 0.53838 0.0
H827 H 0.67645 0.96912 0.38705 0.0
H828 H 0.70275 0.00708 0.42671 0.0
H829 H 0.61287 0.91191 0.47016 0.0
H830 H 0.58691 0.87437 0.43136 0.0
H831 H 0.68228 0.93811 0.49231 0.0
H832 H 0.60682 0.99179 0.45718 0.0
H833 H 0.58781 0.02399 0.42452 0.0
H834 H 0.70254 0.12464 0.42638 0.0
H835 H 0.72239 0.09277 0.45884 0.0
C836 C 0.69723 0.045 0.59372 0.0
C837 C 0.72603 0.08464 0.59402 0.0
C838 C 0.68948 0.02337 0.57104 0.0
C839 C 0.71084 0.04115 0.54868 0.0
C840 C 0.74124 0.07996 0.54968 0.0
C841 C 0.74869 0.10147 0.57206 0.0
C842 C 0.6997 0.02096 0.52363 0.0
C843 C 0.69077 0.03885 0.50361 0.0
C844 C 0.69686 0.98432 0.51948 0.0
C845 C 0.70749 0.96478 0.5395 0.0
C846 C 0.74446 0.98427 0.551 0.0
C847 C 0.75424 0.96573 0.5699 0.0
C848 C 0.72738 0.92758 0.57736 0.0
C849 C 0.69072 0.90787 0.56589 0.0
C850 C 0.68078 0.9263 0.54698 0.0
C851 C 0.6623 0.95658 0.40508 0.0
C852 C 0.62974 0.91876 0.40605 0.0
C853 C 0.67732 0.97816 0.42768 0.0
C854 C 0.65982 0.96212 0.45139 0.0
C855 C 0.62709 0.92467 0.45217 0.0
C856 C 0.6122 0.90333 0.42984 0.0
C857 C 0.67488 0.98384 0.47568 0.0
C858 C 0.68436 0.96619 0.49557 0.0
C859 C 0.67803 0.02061 0.47979 0.0
C860 C 0.66623 0.03969 0.46017 0.0
C861 C 0.6281 0.02063 0.45043 0.0
C862 C 0.61715 0.03885 0.432 0.0
C863 C 0.64399 0.07628 0.42331 0.0
C864 C 0.68182 0.09561 0.43308 0.0
C865 C 0.69293 0.07748 0.4515 0.0
H866 H 0.63545 0.09036 0.40905 0.0
H867 H 0.73502 0.91327 0.592 0.0
H868 H 0.62698 0.66193 0.94131 0.0
H869 H 0.64851 0.64811 0.90064 0.0
H870 H 0.66972 0.75894 0.87082 0.0
H871 H 0.64666 0.77174 0.91085 0.0
H872 H 0.62694 0.70503 0.83906 0.0
H873 H 0.74482 0.73795 0.88373 0.0
H874 H 0.78505 0.73474 0.91847 0.0
H875 H 0.74084 0.61308 0.9028 0.0
H876 H 0.69995 0.61542 0.86817 0.0
H877 H 0.70943 0.67971 0.7211 0.0
H878 H 0.69738 0.70515 0.76099 0.0
H879 H 0.66195 0.5948 0.79802 0.0
H880 H 0.67403 0.56972 0.75883 0.0
H881 H 0.71757 0.6551 0.825 0.0
H882 H 0.59625 0.62127 0.78303 0.0
H883 H 0.55528 0.62386 0.74857 0.0
H884 H 0.60656 0.74765 0.7594 0.0
H885 H 0.64822 0.74586 0.79373 0.0
C886 C 0.63736 0.68368 0.92627 0.0
C887 C 0.63525 0.71781 0.92902 0.0
C888 C 0.64962 0.67585 0.90303 0.0
C889 C 0.66072 0.70252 0.88258 0.0
C890 C 0.66101 0.73779 0.88616 0.0
C891 C 0.64809 0.74519 0.90907 0.0
C892 C 0.66844 0.69233 0.85677 0.0
C893 C 0.64738 0.69485 0.83595 0.0
C894 C 0.69444 0.67827 0.85269 0.0
C895 C 0.71909 0.67681 0.87348 0.0
C896 C 0.74347 0.71045 0.88781 0.0
C897 C 0.76643 0.70879 0.90746 0.0
C898 C 0.76544 0.67371 0.91287 0.0
C899 C 0.74156 0.64023 0.8986 0.0
C900 C 0.71852 0.64172 0.87893 0.0
C901 C 0.69823 0.66079 0.73764 0.0
C902 C 0.69299 0.62296 0.73702 0.0
C903 C 0.69154 0.67531 0.76039 0.0
C904 C 0.67927 0.65194 0.78253 0.0
C905 C 0.67196 0.6135 0.7813 0.0
C906 C 0.67874 0.59919 0.75884 0.0
C907 C 0.67579 0.66746 0.80754 0.0
C908 C 0.69761 0.66587 0.82816 0.0
C909 C 0.65055 0.68239 0.81144 0.0
C910 C 0.6257 0.68351 0.79071 0.0
C911 C 0.59907 0.64911 0.77788 0.0
C912 C 0.57566 0.65041 0.75842 0.0
C913 C 0.57841 0.68592 0.75174 0.0
C914 C 0.60452 0.72018 0.76456 0.0
C915 C 0.62803 0.71904 0.78402 0.0
H916 H 0.56023 0.68687 0.73668 0.0
H917 H 0.78323 0.67249 0.9281 0.0
H918 H 0.03267 0.716 0.06493 0.0
H919 H 0.00216 0.70446 0.1074 0.0
H920 H 0.04168 0.62345 0.12479 0.0
H921 H 0.07242 0.63534 0.08281 0.0
H922 H 0.96796 0.60024 0.1447 0.0
H923 H 0.09688 0.71488 0.14077 0.0
H924 H 0.14566 0.77902 0.12345 0.0
H925 H 0.07416 0.82717 0.14528 0.0
H926 H 0.02462 0.76305 0.16235 0.0
H927 H 0.96232 0.58937 0.2758 0.0
H928 H 0.99608 0.60813 0.23461 0.0
H929 H 0.96311 0.69607 0.22551 0.0
H930 H 0.93044 0.67802 0.26702 0.0
H931 H 0.03088 0.71735 0.20066 0.0
H932 H 0.90285 0.60456 0.20563 0.0
H933 H 0.85283 0.54065 0.22251 0.0
H934 H 0.92024 0.48919 0.19799 0.0
H935 H 0.971 0.55301 0.18132 0.0
C936 C 0.03334 0.69457 0.07749 0.0
C937 C 0.05451 0.67628 0.07072 0.0
C938 C 0.01637 0.68834 0.10178 0.0
C939 C 0.02019 0.6635 0.11932 0.0
C940 C 0.03844 0.64272 0.11159 0.0
C941 C 0.05583 0.6494 0.08759 0.0
C942 C 0.00905 0.66192 0.14649 0.0
C943 C 0.98182 0.62577 0.15697 0.0
C944 C 0.0268 0.6954 0.16238 0.0
C945 C 0.05686 0.73409 0.15256 0.0
C946 C 0.09144 0.73907 0.1417 0.0
C947 C 0.11923 0.77542 0.13195 0.0
C948 C 0.11296 0.80712 0.13319 0.0
C949 C 0.07894 0.80256 0.14428 0.0
C950 C 0.05099 0.76623 0.154 0.0
C951 C 0.96444 0.61429 0.2657 0.0
C952 C 0.94446 0.63275 0.27461 0.0
C953 C 0.98315 0.6246 0.24199 0.0
C954 C 0.9811 0.65274 0.22668 0.0
C955 C 0.96491 0.67418 0.23693 0.0
C956 C 0.94657 0.66412 0.26075 0.0
C957 C 0.99015 0.6555 0.19898 0.0
C958 C 0.01686 0.69184 0.18839 0.0
C959 C 0.97169 0.62222 0.18289 0.0
C960 C 0.94087 0.58363 0.19243 0.0
C961 C 0.9071 0.57966 0.20395 0.0
C962 C 0.87862 0.54346 0.21348 0.0
C963 C 0.88339 0.51089 0.21136 0.0
C964 C 0.91661 0.51445 0.19964 0.0
C965 C 0.94524 0.55063 0.19014 0.0
H966 H 0.86131 0.48289 0.21876 0.0
H967 H 0.1345 0.83524 0.12562 0.0
H968 H 0.33747 0.11811 0.42589 0.0
H969 H 0.31545 0.08223 0.46611 0.0
H970 H 0.34489 0.99771 0.43803 0.0
H971 H 0.3654 0.03295 0.3971 0.0
H972 H 0.28254 0.963 0.46806 0.0
H973 H 0.4094 0.07782 0.47439 0.0
H974 H 0.45722 0.14812 0.4705 0.0
H975 H 0.39143 0.17496 0.52346 0.0
H976 H 0.3429 0.10481 0.52739 0.0
H977 H 0.32652 0.89709 0.57815 0.0
H978 H 0.3366 0.93568 0.53974 0.0
H979 H 0.28421 0.99559 0.57645 0.0
H980 H 0.274 0.95657 0.61552 0.0
H981 H 0.35197 0.0438 0.54375 0.0
H982 H 0.22817 0.9256 0.54005 0.0
H983 H 0.18403 0.85456 0.54437 0.0
H984 H 0.24794 0.83344 0.48656 0.0
H985 H 0.29286 0.90437 0.48219 0.0
C986 C 0.33815 0.09121 0.42809 0.0
C987 C 0.35312 0.07817 0.40859 0.0
C988 C 0.32591 0.07095 0.45112 0.0
C989 C 0.32965 0.03798 0.4554 0.0
C990 C 0.34203 0.02328 0.43521 0.0
C991 C 0.35357 0.04323 0.41184 0.0
C992 C 0.32353 0.02082 0.48141 0.0
C993 C 0.29789 0.98065 0.48454 0.0
C994 C 0.34298 0.04398 0.50312 0.0
C995 C 0.37233 0.08612 0.50098 0.0
C996 C 0.40501 0.09874 0.48508 0.0
C997 C 0.43225 0.13855 0.48288 0.0
C998 C 0.42731 0.166 0.49667 0.0
C999 C 0.39518 0.15367 0.51276 0.0
C1000 C 0.36781 0.1139 0.51499 0.0
C1001 C 0.31782 0.91904 0.57829 0.0
C1002 C 0.29917 0.92368 0.59969 0.0
C1003 C 0.32349 0.94094 0.55629 0.0
C1004 C 0.31032 0.96775 0.55509 0.0
C1005 C 0.29428 0.97474 0.57703 0.0
C1006 C 0.28868 0.9527 0.59932 0.0
C1007 C 0.31135 0.98609 0.53023 0.0
C1008 C 0.33615 0.02637 0.5273 0.0
C1009 C 0.29145 0.963 0.50868 0.0
C1010 C 0.26402 0.92032 0.5109 0.0
C1011 C 0.23295 0.90581 0.52837 0.0
C1012 C 0.20778 0.86555 0.53082 0.0
C1013 C 0.21321 0.8395 0.51577 0.0
C1014 C 0.24377 0.85366 0.4982 0.0
C1015 C 0.26906 0.89389 0.4957 0.0
H1016 H 0.19371 0.80834 0.51771 0.0
H1017 H 0.44843 0.1968 0.49494 0.0
H1018 H 0.39487 0.36012 0.94138 0.0
H1019 H 0.37705 0.37474 0.8998 0.0
H1020 H 0.28337 0.25537 0.89376 0.0
H1021 H 0.30146 0.24087 0.93539 0.0
H1022 H 0.33366 0.27543 0.85447 0.0
H1023 H 0.26408 0.33011 0.89483 0.0
H1024 H 0.25352 0.37171 0.92504 0.0
H1025 H 0.3483 0.47436 0.89137 0.0
H1026 H 0.35981 0.43336 0.86117 0.0
H1027 H 0.27556 0.31192 0.73103 0.0
H1028 H 0.2823 0.29119 0.77405 0.0
H1029 H 0.37298 0.409 0.79088 0.0
H1030 H 0.36541 0.42969 0.74835 0.0
H1031 H 0.31711 0.38527 0.82496 0.0
H1032 H 0.39056 0.3318 0.78734 0.0
H1033 H 0.40329 0.29132 0.75747 0.0
H1034 H 0.30368 0.18783 0.78624 0.0
H1035 H 0.29004 0.22778 0.81607 0.0
C1036 C 0.36907 0.33772 0.93183 0.0
C1037 C 0.34885 0.2997 0.94176 0.0
C1038 C 0.35911 0.34592 0.90794 0.0
C1039 C 0.32893 0.31608 0.89359 0.0
C1040 C 0.30672 0.27882 0.9045 0.0
C1041 C 0.31662 0.27071 0.92844 0.0
C1042 C 0.32441 0.32243 0.86613 0.0
C1043 C 0.3292 0.29895 0.84799 0.0
C1044 C 0.31981 0.35381 0.8577 0.0
C1045 C 0.31299 0.3786 0.87585 0.0
C1046 C 0.28289 0.36153 0.89399 0.0
C1047 C 0.27668 0.38502 0.91109 0.0
C1048 C 0.30027 0.42564 0.91015 0.0
C1049 C 0.33006 0.44288 0.89208 0.0
C1050 C 0.3364 0.41953 0.87494 0.0
C1051 C 0.29814 0.3328 0.74355 0.0
C1052 C 0.32036 0.37221 0.73642 0.0
C1053 C 0.30175 0.32109 0.76821 0.0
C1054 C 0.3279 0.34867 0.78582 0.0
C1055 C 0.35237 0.3873 0.77775 0.0
C1056 C 0.34845 0.399 0.75335 0.0
C1057 C 0.32706 0.33872 0.81329 0.0
C1058 C 0.32121 0.36151 0.83142 0.0
C1059 C 0.33096 0.30689 0.82171 0.0
C1060 C 0.33901 0.28284 0.80372 0.0
C1061 C 0.37115 0.30045 0.78713 0.0
C1062 C 0.37858 0.27759 0.77024 0.0
C1063 C 0.35423 0.23704 0.7699 0.0
C1064 C 0.32246 0.21925 0.78649 0.0
C1065 C 0.31489 0.24199 0.80341 0.0
H1066 H 0.36005 0.21939 0.75682 0.0
H1067 H 0.29541 0.44377 0.92341 0.0
H1068 H 0.12523 0.40311 0.40534 0.0
H1069 H 0.12589 0.38795 0.45104 0.0
H1070 H 0.22891 0.37975 0.43858 0.0
H1071 H 0.22786 0.39383 0.39371 0.0
H1072 H 0.18792 0.33037 0.47407 0.0
H1073 H 0.23159 0.46602 0.45399 0.0
H1074 H 0.22159 0.51842 0.43702 0.0
H1075 H 0.13236 0.49118 0.49284 0.0
H1076 H 0.14082 0.43749 0.5095 0.0
H1077 H 0.28948 0.46973 0.59284 0.0
H1078 H 0.27042 0.45655 0.54797 0.0
H1079 H 0.19305 0.33491 0.56624 0.0
H1080 H 0.2147 0.34789 0.61066 0.0
H1081 H 0.20796 0.44054 0.52948 0.0
H1082 H 0.15776 0.27831 0.51441 0.0
H1083 H 0.17409 0.2286 0.52822 0.0
H1084 H 0.29294 0.31812 0.53986 0.0
H1085 H 0.27735 0.36831 0.52591 0.0
C1086 C 0.14722 0.39692 0.41236 0.0
C1087 C 0.17691 0.40041 0.3961 0.0
C1088 C 0.14772 0.38841 0.43844 0.0
C1089 C 0.17792 0.38336 0.4484 0.0
C1090 C 0.20539 0.38359 0.43156 0.0
C1091 C 0.20495 0.39209 0.40585 0.0
C1092 C 0.185 0.38319 0.47635 0.0
C1093 C 0.19188 0.35421 0.48634 0.0
C1094 C 0.19086 0.41458 0.49229 0.0
C1095 C 0.18643 0.44741 0.48273 0.0
C1096 C 0.20965 0.47104 0.46253 0.0
C1097 C 0.20424 0.50095 0.45295 0.0
C1098 C 0.17639 0.50819 0.46387 0.0
C1099 C 0.15386 0.48548 0.48437 0.0
C1100 C 0.15882 0.45518 0.49381 0.0
C1101 C 0.26978 0.4399 0.58691 0.0
C1102 C 0.25405 0.40969 0.60498 0.0
C1103 C 0.2583 0.43238 0.56134 0.0
C1104 C 0.22979 0.3947 0.55341 0.0
C1105 C 0.21562 0.36408 0.57138 0.0
C1106 C 0.22805 0.37145 0.59688 0.0
C1107 C 0.21304 0.38875 0.52705 0.0
C1108 C 0.20376 0.41637 0.51748 0.0
C1109 C 0.20639 0.35686 0.51123 0.0
C1110 C 0.21629 0.32703 0.51936 0.0
C1111 C 0.18739 0.28733 0.51984 0.0
C1112 C 0.19651 0.2591 0.52771 0.0
C1113 C 0.2345 0.27021 0.53499 0.0
C1114 C 0.2635 0.30957 0.53431 0.0
C1115 C 0.25453 0.33793 0.52645 0.0
H1116 H 0.2415 0.24831 0.5411 0.0
H1117 H 0.17224 0.53138 0.45645 0.0
H1118 H 0.85688 0.22195 0.93724 0.0
H1119 H 0.84674 0.20436 0.89181 0.0
H1120 H 0.7979 0.27923 0.88108 0.0
H1121 H 0.80706 0.29581 0.92648 0.0
H1122 H 0.74749 0.20623 0.86767 0.0
H1123 H 0.88429 0.29608 0.8521 0.0
H1124 H 0.95471 0.32293 0.85818 0.0
H1125 H 0.94265 0.21248 0.83706 0.0
H1126 H 0.87203 0.1848 0.8312 0.0
H1127 H 0.72399 0.2175 0.73668 0.0
H1128 H 0.73804 0.2227 0.78213 0.0
H1129 H 0.78149 0.14276 0.77419 0.0
H1130 H 0.76822 0.13836 0.72802 0.0
H1131 H 0.83301 0.20669 0.79858 0.0
H1132 H 0.69814 0.11815 0.81046 0.0
H1133 H 0.62781 0.09061 0.80342 0.0
H1134 H 0.63575 0.19636 0.83151 0.0
H1135 H 0.7062 0.2247 0.8385 0.0
C1136 C 0.84597 0.23623 0.92483 0.0
C1137 C 0.83326 0.26066 0.9352 0.0
C1138 C 0.83976 0.22584 0.89891 0.0
C1139 C 0.82112 0.24011 0.88303 0.0
C1140 C 0.81203 0.26757 0.89296 0.0
C1141 C 0.81783 0.27756 0.91882 0.0
C1142 C 0.80632 0.22298 0.85729 0.0
C1143 C 0.76634 0.20675 0.8525 0.0
C1144 C 0.83038 0.22162 0.83786 0.0
C1145 C 0.87279 0.23823 0.84153 0.0
C1146 C 0.89658 0.2774 0.84901 0.0
C1147 C 0.93655 0.29279 0.85236 0.0
C1148 C 0.95312 0.26939 0.8481 0.0
C1149 C 0.92977 0.23055 0.84041 0.0
C1150 C 0.88977 0.21501 0.83706 0.0
C1151 C 0.73523 0.19991 0.74475 0.0
C1152 C 0.74478 0.17735 0.72886 0.0
C1153 C 0.74329 0.20289 0.77082 0.0
C1154 C 0.76071 0.183 0.78175 0.0
C1155 C 0.768 0.15835 0.7662 0.0
C1156 C 0.75987 0.15535 0.73992 0.0
C1157 C 0.77449 0.19145 0.80872 0.0
C1158 C 0.81411 0.20574 0.81386 0.0
C1159 C 0.75008 0.19079 0.82862 0.0
C1160 C 0.70752 0.17359 0.82494 0.0
C1161 C 0.68492 0.13559 0.81506 0.0
C1162 C 0.64502 0.11983 0.81109 0.0
C1163 C 0.62733 0.14173 0.81699 0.0
C1164 C 0.64948 0.1794 0.82698 0.0
C1165 C 0.68938 0.19529 0.83102 0.0
H1166 H 0.59646 0.12951 0.81386 0.0
H1167 H 0.98408 0.28137 0.85068 0.0
H1168 H 0.52693 0.80942 0.25549 0.0
H1169 H 0.53856 0.80179 0.21065 0.0
H1170 H 0.66149 0.85574 0.2255 0.0
H1171 H 0.6499 0.86354 0.27075 0.0
H1172 H 0.63068 0.86659 0.17071 0.0
H1173 H 0.6321 0.7737 0.22988 0.0
H1174 H 0.60843 0.73217 0.26834 0.0
H1175 H 0.49438 0.66749 0.23533 0.0
H1176 H 0.51727 0.70914 0.19684 0.0
H1177 H 0.63244 0.76665 0.05848 0.0
H1178 H 0.64958 0.78685 0.10314 0.0
H1179 H 0.52784 0.72634 0.12306 0.0
H1180 H 0.51082 0.70608 0.07858 0.0
H1181 H 0.57377 0.72304 0.16174 0.0
H1182 H 0.5723 0.82023 0.10445 0.0
H1183 H 0.59527 0.86372 0.06684 0.0
H1184 H 0.71168 0.92136 0.09657 0.0
H1185 H 0.68947 0.87788 0.13416 0.0
C1186 C 0.55665 0.82152 0.24894 0.0
C1187 C 0.58753 0.83722 0.26648 0.0
C1188 C 0.56326 0.81698 0.22335 0.0
C1189 C 0.60081 0.82778 0.2149 0.0
C1190 C 0.63236 0.84743 0.2317 0.0
C1191 C 0.62574 0.85212 0.25747 0.0
C1192 C 0.60504 0.81147 0.19042 0.0
C1193 C 0.61926 0.8354 0.16878 0.0
C1194 C 0.58993 0.77074 0.18796 0.0
C1195 C 0.57633 0.74466 0.21058 0.0
C1196 C 0.60193 0.75074 0.2309 0.0
C1197 C 0.58867 0.7272 0.25269 0.0
C1198 C 0.54991 0.69725 0.2543 0.0
C1199 C 0.52439 0.6907 0.23406 0.0
C1200 C 0.53751 0.71423 0.21223 0.0
C1201 C 0.60948 0.75617 0.07263 0.0
C1202 C 0.57024 0.73492 0.06514 0.0
C1203 C 0.61928 0.76816 0.09807 0.0
C1204 C 0.58995 0.7588 0.1163 0.0
C1205 C 0.55096 0.73413 0.10929 0.0
C1206 C 0.54119 0.72249 0.0839 0.0
C1207 C 0.59887 0.77799 0.14175 0.0
C1208 C 0.58658 0.75443 0.16366 0.0
C1209 C 0.61622 0.81912 0.14439 0.0
C1210 C 0.62933 0.84557 0.12196 0.0
C1211 C 0.60284 0.84204 0.10287 0.0
C1212 C 0.61571 0.86671 0.08157 0.0
C1213 C 0.65492 0.89529 0.07931 0.0
C1214 C 0.68133 0.89926 0.09833 0.0
C1215 C 0.66862 0.87461 0.11964 0.0
H1216 H 0.66482 0.91446 0.06287 0.0
H1217 H 0.53966 0.67909 0.2712 0.0
H1218 H 0.86372 0.62055 0.39463 0.0
H1219 H 0.85703 0.63278 0.43985 0.0
H1220 H 0.7458 0.52637 0.44263 0.0
H1221 H 0.75212 0.51421 0.39782 0.0
H1222 H 0.73989 0.58564 0.46123 0.0
H1223 H 0.82865 0.53591 0.47144 0.0
H1224 H 0.88977 0.53537 0.46461 0.0
H1225 H 0.95492 0.65108 0.49587 0.0
H1226 H 0.89418 0.6525 0.50257 0.0
H1227 H 0.70185 0.52617 0.59124 0.0
H1228 H 0.71495 0.53611 0.54523 0.0
H1229 H 0.80959 0.65281 0.55964 0.0
H1230 H 0.79562 0.64323 0.60567 0.0
H1231 H 0.83014 0.60305 0.53201 0.0
H1232 H 0.74101 0.64905 0.52733 0.0
H1233 H 0.6801 0.6496 0.53495 0.0
H1234 H 0.61603 0.54172 0.49379 0.0
H1235 H 0.6765 0.54018 0.48623 0.0
C1236 C 0.8383 0.59935 0.40508 0.0
C1237 C 0.80839 0.56649 0.39259 0.0
C1238 C 0.8344 0.60646 0.43089 0.0
C1239 C 0.80069 0.58067 0.44459 0.0
C1240 C 0.77181 0.54698 0.4324 0.0
C1241 C 0.77559 0.53997 0.40677 0.0
C1242 C 0.79408 0.58897 0.47128 0.0
C1243 C 0.75955 0.58919 0.47672 0.0
C1244 C 0.82044 0.59529 0.49137 0.0
C1245 C 0.85694 0.59452 0.48717 0.0
C1246 C 0.85604 0.56139 0.47662 0.0
C1247 C 0.89061 0.56089 0.47282 0.0
C1248 C 0.92622 0.59323 0.4797 0.0
C1249 C 0.92733 0.6261 0.49047 0.0
C1250 C 0.89285 0.62676 0.49428 0.0
C1251 C 0.72423 0.55449 0.58441 0.0
C1252 C 0.74713 0.58429 0.60175 0.0
C1253 C 0.73193 0.56009 0.55821 0.0
C1254 C 0.76327 0.5952 0.54907 0.0
C1255 C 0.78518 0.62561 0.56632 0.0
C1256 C 0.77692 0.6203 0.5925 0.0
C1257 C 0.7753 0.59812 0.52196 0.0
C1258 C 0.81083 0.60012 0.51644 0.0
C1259 C 0.74988 0.59381 0.50177 0.0
C1260 C 0.7133 0.59435 0.5064 0.0
C1261 C 0.71389 0.62522 0.52011 0.0
C1262 C 0.67945 0.62576 0.52437 0.0
C1263 C 0.6442 0.59567 0.51491 0.0
C1264 C 0.64335 0.565 0.50113 0.0
C1265 C 0.67772 0.5643 0.49682 0.0
H1266 H 0.61757 0.59616 0.51821 0.0
H1267 H 0.95294 0.59277 0.47677 0.0
H1268 H 0.14862 0.7006 0.92821 0.0
H1269 H 0.15869 0.71612 0.88251 0.0
H1270 H 0.16856 0.82802 0.89726 0.0
H1271 H 0.15793 0.81219 0.94294 0.0
H1272 H 0.13517 0.79577 0.84807 0.0
H1273 H 0.24742 0.8265 0.89907 0.0
H1274 H 0.28334 0.81114 0.93106 0.0
H1275 H 0.27627 0.72004 0.88276 0.0
H1276 H 0.23964 0.73441 0.85067 0.0
H1277 H 0.23854 0.86652 0.72954 0.0
H1278 H 0.22531 0.86585 0.77555 0.0
H1279 H 0.22494 0.75704 0.78343 0.0
H1280 H 0.23946 0.75836 0.73839 0.0
H1281 H 0.25742 0.79925 0.82325 0.0
H1282 H 0.13892 0.76454 0.77435 0.0
H1283 H 0.10254 0.77993 0.74264 0.0
H1284 H 0.12216 0.87961 0.78688 0.0
H1285 H 0.15899 0.86502 0.81871 0.0
C1286 C 0.15095 0.72759 0.92147 0.0
C1287 C 0.15209 0.75504 0.93888 0.0
C1288 C 0.15706 0.73664 0.89543 0.0
C1289 C 0.16496 0.77349 0.88657 0.0
C1290 C 0.16246 0.79945 0.90367 0.0
C1291 C 0.15631 0.79036 0.92972 0.0
C1292 C 0.18179 0.787 0.8607 0.0
C1293 C 0.16208 0.79695 0.84265 0.0
C1294 C 0.21718 0.78905 0.85376 0.0
C1295 C 0.24056 0.78136 0.87255 0.0
C1296 C 0.2534 0.8031 0.89531 0.0
C1297 C 0.27386 0.79455 0.91347 0.0
C1298 C 0.28203 0.76458 0.90896 0.0
C1299 C 0.26991 0.74323 0.88623 0.0
C1300 C 0.24932 0.75159 0.86803 0.0
C1301 C 0.2366 0.84307 0.7413 0.0
C1302 C 0.23959 0.81228 0.73023 0.0
C1303 C 0.22858 0.84244 0.76752 0.0
C1304 C 0.2232 0.81088 0.78293 0.0
C1305 C 0.22868 0.7816 0.77207 0.0
C1306 C 0.23685 0.78234 0.74616 0.0
C1307 C 0.20997 0.80636 0.81001 0.0
C1308 C 0.23063 0.79842 0.82856 0.0
C1309 C 0.17551 0.80623 0.81731 0.0
C1310 C 0.15207 0.81398 0.79871 0.0
C1311 C 0.13553 0.78978 0.77726 0.0
C1312 C 0.11488 0.79838 0.75927 0.0
C1313 C 0.11034 0.83091 0.76265 0.0
C1314 C 0.12591 0.85456 0.78422 0.0
C1315 C 0.14662 0.84612 0.80225 0.0
H1316 H 0.09468 0.83776 0.7486 0.0
H1317 H 0.29778 0.75793 0.92307 0.0
H1318 H 0.35805 0.14549 0.2742 0.0
H1319 H 0.35228 0.15294 0.22823 0.0
H1320 H 0.47564 0.19854 0.21948 0.0
H1321 H 0.48156 0.19283 0.26557 0.0
H1322 H 0.45872 0.24705 0.19987 0.0
H1323 H 0.40134 0.10759 0.1925 0.0
H1324 H 0.35515 0.03852 0.20261 0.0
H1325 H 0.25951 0.05423 0.18139 0.0
H1326 H 0.30513 0.12355 0.17142 0.0
H1327 H 0.4781 0.24914 0.06652 0.0
H1328 H 0.47332 0.23624 0.1123 0.0
H1329 H 0.35582 0.21526 0.11208 0.0
H1330 H 0.36062 0.22803 0.06574 0.0
H1331 H 0.36361 0.15594 0.13656 0.0
H1332 H 0.42393 0.2955 0.14108 0.0
H1333 H 0.47214 0.36306 0.12889 0.0
H1334 H 0.56476 0.34504 0.15416 0.0
H1335 H 0.5171 0.27725 0.16632 0.0
C1336 C 0.38354 0.15538 0.26223 0.0
C1337 C 0.42016 0.16801 0.27325 0.0
C1338 C 0.3803 0.15992 0.23595 0.0
C1339 C 0.41353 0.17649 0.22027 0.0
C1340 C 0.44959 0.186 0.23112 0.0
C1341 C 0.45293 0.1822 0.25739 0.0
C1342 C 0.41183 0.18814 0.1934 0.0
C1343 C 0.43819 0.22682 0.18602 0.0
C1344 C 0.3841 0.16246 0.17543 0.0
C1345 C 0.35663 0.12084 0.18146 0.0
C1346 C 0.37044 0.09639 0.19019 0.0
C1347 C 0.34437 0.05718 0.19584 0.0
C1348 C 0.30442 0.04202 0.19271 0.0
C1349 C 0.29046 0.06602 0.18384 0.0
C1350 C 0.31641 0.10526 0.17815 0.0
C1351 C 0.45153 0.24247 0.07632 0.0
C1352 C 0.41985 0.23966 0.06264 0.0
C1353 C 0.44879 0.23514 0.10248 0.0
C1354 C 0.41424 0.22485 0.11564 0.0
C1355 C 0.38276 0.22317 0.10225 0.0
C1356 C 0.38566 0.23089 0.07591 0.0
C1357 C 0.41112 0.21427 0.14311 0.0
C1358 C 0.38383 0.17603 0.15061 0.0
C1359 C 0.43822 0.24016 0.16119 0.0
C1360 C 0.46693 0.28125 0.15453 0.0
C1361 C 0.45458 0.30592 0.14398 0.0
C1362 C 0.48181 0.34426 0.13709 0.0
C1363 C 0.52149 0.35832 0.14073 0.0
C1364 C 0.53401 0.33413 0.15139 0.0
C1365 C 0.50689 0.29578 0.15835 0.0
H1366 H 0.54253 0.38798 0.13531 0.0
H1367 H 0.28428 0.01165 0.19709 0.0
loop_
_geom_bond_atom_site_label_1
_geom_bond_atom_site_label_2
_geom_bond_distance
_geom_bond_site_symmetry_2
_ccdc_geom_bond_type
Co0 O1 2.216 . S
Co0 O2 2.091 . S
Co0 O4 2.004 . S
Co0 O10 2.021 . S
Co0 O12 2.137 . S
Co0 O13 2.244 . S
O1 Co0 2.216 . S
O1 C8 1.247 . S
O2 Co0 2.091 . S
O2 C8 1.261 . S
C3 O12 1.247 . S
C3 O13 1.272 . S
O4 Co0 2.004 . S
O4 C9 1.259 . S
Co5 O6 2.061 . S
Co5 O11 2.052 . S
Co5 O13 2.135 . S
O6 Co5 2.061 . S
O6 C9 1.235 . S
C7 O10 1.238 . S
C7 O11 1.241 . S
C8 O1 1.247 . S
C8 O2 1.261 . S
C9 O4 1.259 . S
C9 O6 1.235 . S
O10 Co0 2.021 . S
O10 C7 1.238 . S
O11 Co5 2.052 . S
O11 C7 1.241 . S
O12 Co0 2.137 . S
O12 C3 1.247 . S
O13 Co0 2.244 . S
O13 C3 1.272 . S
O13 Co5 2.135 . S
Co14 O15 2.216 . S
Co14 O16 2.091 . S
Co14 O18 2.004 . S
Co14 O24 2.021 . S
Co14 O26 2.137 . S
Co14 O27 2.244 . S
O15 Co14 2.216 . S
O15 C22 1.247 . S
O16 Co14 2.091 . S
O16 C22 1.261 . S
C17 O26 1.247 . S
C17 O27 1.272 . S
O18 Co14 2.004 . S
O18 C23 1.259 . S
Co19 O20 2.061 . S
Co19 O25 2.052 . S
Co19 O27 2.135 . S
O20 Co19 2.061 . S
O20 C23 1.235 . S
C21 O24 1.238 . S
C21 O25 1.241 . S
C22 O15 1.247 . S
C22 O16 1.261 . S
C23 O18 1.259 . S
C23 O20 1.235 . S
O24 Co14 2.021 . S
O24 C21 1.238 . S
O25 Co19 2.052 . S
O25 C21 1.241 . S
O26 Co14 2.137 . S
O26 C17 1.247 . S
O27 Co14 2.244 . S
O27 C17 1.272 . S
O27 Co19 2.135 . S
Co28 O29 2.216 . S
Co28 O30 2.091 . S
Co28 O32 2.004 1_556 S
Co28 O38 2.021 . S
Co28 O40 2.137 . S
Co28 O41 2.244 . S
O29 Co28 2.216 . S
O29 C36 1.247 . S
O30 Co28 2.091 . S
O30 C36 1.261 . S
C31 O40 1.247 . S
C31 O41 1.272 . S
O32 Co28 2.004 1_554 S
O32 C37 1.259 . S
Co33 O34 2.061 . S
Co33 O39 2.052 . S
Co33 O41 2.134 1_554 S
O34 Co33 2.061 . S
O34 C37 1.235 . S
C35 O38 1.238 . S
C35 O39 1.241 1_556 S
C36 O29 1.247 . S
C36 O30 1.261 . S
C37 O32 1.259 . S
C37 O34 1.235 . S
O38 Co28 2.021 . S
O38 C35 1.238 . S
O39 Co33 2.052 . S
O39 C35 1.241 1_554 S
O40 Co28 2.137 . S
O40 C31 1.247 . S
O41 Co28 2.244 . S
O41 C31 1.272 . S
O41 Co33 2.134 1_556 S
Co42 O43 2.216 . S
Co42 O44 2.091 . S
Co42 O46 2.004 . S
Co42 O52 2.021 . S
Co42 O54 2.137 . S
Co42 O55 2.244 . S
O43 Co42 2.216 . S
O43 C50 1.247 . S
O44 Co42 2.091 . S
O44 C50 1.261 . S
C45 O54 1.247 . S
C45 O55 1.272 . S
O46 Co42 2.004 . S
O46 C51 1.259 . S
Co47 O48 2.061 . S
Co47 O53 2.052 . S
Co47 O55 2.135 . S
O48 Co47 2.061 . S
O48 C51 1.235 . S
C49 O52 1.238 . S
C49 O53 1.241 . S
C50 O43 1.247 . S
C50 O44 1.261 . S
C51 O46 1.259 . S
C51 O48 1.235 . S
O52 Co42 2.021 . S
O52 C49 1.238 . S
O53 Co47 2.052 . S
O53 C49 1.241 . S
O54 Co42 2.137 . S
O54 C45 1.247 . S
O55 Co42 2.244 . S
O55 C45 1.272 . S
O55 Co47 2.135 . S
Co56 O57 2.216 . S
Co56 O58 2.091 . S
Co56 O60 2.004 . S
Co56 O66 2.021 . S
Co56 O68 2.137 . S
Co56 O69 2.244 . S
O57 Co56 2.216 . S
O57 C64 1.247 . S
O58 Co56 2.091 . S
O58 C64 1.261 . S
C59 O68 1.247 . S
C59 O69 1.272 . S
O60 Co56 2.004 . S
O60 C65 1.259 . S
Co61 O62 2.061 . S
Co61 O67 2.052 . S
Co61 O69 2.135 . S
O62 Co61 2.061 . S
O62 C65 1.235 . S
C63 O66 1.238 . S
C63 O67 1.241 . S
C64 O57 1.247 . S
C64 O58 1.261 . S
C65 O60 1.259 . S
C65 O62 1.235 . S
O66 Co56 2.021 . S
O66 C63 1.238 . S
O67 Co61 2.052 . S
O67 C63 1.241 . S
O68 Co56 2.137 . S
O68 C59 1.247 . S
O69 Co56 2.244 . S
O69 C59 1.272 . S
O69 Co61 2.135 . S
Co70 O71 2.216 . S
Co70 O72 2.091 . S
Co70 O74 2.004 1_556 S
Co70 O80 2.021 . S
Co70 O82 2.137 . S
Co70 O83 2.244 . S
O71 Co70 2.216 . S
O71 C78 1.247 . S
O72 Co70 2.091 . S
O72 C78 1.261 . S
C73 O82 1.247 . S
C73 O83 1.272 . S
O74 Co70 2.004 1_554 S
O74 C79 1.259 . S
Co75 O76 2.061 . S
Co75 O81 2.052 . S
Co75 O83 2.134 1_554 S
O76 Co75 2.061 . S
O76 C79 1.235 . S
C77 O80 1.238 . S
C77 O81 1.241 1_556 S
C78 O71 1.247 . S
C78 O72 1.261 . S
C79 O74 1.259 . S
C79 O76 1.235 . S
O80 Co70 2.021 . S
O80 C77 1.238 . S
O81 Co75 2.052 . S
O81 C77 1.241 1_554 S
O82 Co70 2.137 . S
O82 C73 1.247 . S
O83 Co70 2.244 . S
O83 C73 1.272 . S
O83 Co75 2.134 1_556 S
Co84 O85 2.216 . S
Co84 O86 2.091 . S
Co84 O88 2.004 . S
Co84 O94 2.021 . S
Co84 O96 2.137 . S
Co84 O97 2.244 . S
O85 Co84 2.216 . S
O85 C92 1.247 . S
O86 Co84 2.091 . S
O86 C92 1.261 . S
C87 O96 1.247 . S
C87 O97 1.272 . S
O88 Co84 2.004 . S
O88 C93 1.259 . S
Co89 O90 2.061 . S
Co89 O95 2.052 . S
Co89 O97 2.135 . S
O90 Co89 2.061 . S
O90 C93 1.235 . S
C91 O94 1.238 . S
C91 O95 1.241 . S
C92 O85 1.247 . S
C92 O86 1.261 . S
C93 O88 1.259 . S
C93 O90 1.235 . S
O94 Co84 2.021 . S
O94 C91 1.238 . S
O95 Co89 2.052 . S
O95 C91 1.241 . S
O96 Co84 2.137 . S
O96 C87 1.247 . S
O97 Co84 2.244 . S
O97 C87 1.272 . S
O97 Co89 2.135 . S
Co98 O99 2.216 . S
Co98 O100 2.091 . S
Co98 O102 2.004 . S
Co98 O108 2.021 . S
Co98 O110 2.137 . S
Co98 O111 2.244 . S
O99 Co98 2.216 . S
O99 C106 1.247 . S
O100 Co98 2.091 . S
O100 C106 1.261 . S
C101 O110 1.247 . S
C101 O111 1.272 . S
O102 Co98 2.004 . S
O102 C107 1.259 . S
Co103 O104 2.061 . S
Co103 O109 2.052 . S
Co103 O111 2.135 . S
O104 Co103 2.061 . S
O104 C107 1.235 . S
C105 O108 1.238 . S
C105 O109 1.241 . S
C106 O99 1.247 . S
C106 O100 1.261 . S
C107 O102 1.259 . S
C107 O104 1.235 . S
O108 Co98 2.021 . S
O108 C105 1.238 . S
O109 Co103 2.052 . S
O109 C105 1.241 . S
O110 Co98 2.137 . S
O110 C101 1.247 . S
O111 Co98 2.244 . S
O111 C101 1.272 . S
O111 Co103 2.135 . S
Co112 O113 2.216 . S
Co112 O114 2.091 . S
Co112 O116 2.004 1_554 S
Co112 O122 2.021 . S
Co112 O124 2.137 . S
Co112 O125 2.244 . S
O113 Co112 2.216 . S
O113 C120 1.247 . S
O114 Co112 2.091 . S
O114 C120 1.261 . S
C115 O124 1.247 . S
C115 O125 1.272 . S
O116 Co112 2.004 1_556 S
O116 C121 1.259 . S
Co117 O118 2.061 . S
Co117 O123 2.052 . S
Co117 O125 2.134 1_556 S
O118 Co117 2.061 . S
O118 C121 1.235 . S
C119 O122 1.238 . S
C119 O123 1.241 1_554 S
C120 O113 1.247 . S
C120 O114 1.261 . S
C121 O116 1.259 . S
C121 O118 1.235 . S
O122 Co112 2.021 . S
O122 C119 1.238 . S
O123 Co117 2.052 . S
O123 C119 1.241 1_556 S
O124 Co112 2.137 . S
O124 C115 1.247 . S
O125 Co112 2.244 . S
O125 C115 1.272 . S
O125 Co117 2.134 1_554 S
Co126 O127 2.216 . S
Co126 O128 2.091 . S
Co126 O130 2.004 . S
Co126 O136 2.021 . S
Co126 O138 2.137 . S
Co126 O139 2.244 . S
O127 Co126 2.216 . S
O127 C134 1.247 . S
O128 Co126 2.091 . S
O128 C134 1.261 . S
C129 O138 1.247 . S
C129 O139 1.272 . S
O130 Co126 2.004 . S
O130 C135 1.259 . S
Co131 O132 2.061 . S
Co131 O137 2.052 . S
Co131 O139 2.135 . S
O132 Co131 2.061 . S
O132 C135 1.235 . S
C133 O136 1.238 . S
C133 O137 1.241 . S
C134 O127 1.247 . S
C134 O128 1.261 . S
C135 O130 1.259 . S
C135 O132 1.235 . S
O136 Co126 2.021 . S
O136 C133 1.238 . S
O137 Co131 2.052 . S
O137 C133 1.241 . S
O138 Co126 2.137 . S
O138 C129 1.247 . S
O139 Co126 2.244 . S
O139 C129 1.272 . S
O139 Co131 2.135 . S
Co140 O141 2.216 . S
Co140 O142 2.091 . S
Co140 O144 2.004 . S
Co140 O150 2.021 . S
Co140 O152 2.137 . S
Co140 O153 2.244 . S
O141 Co140 2.216 . S
O141 C148 1.247 . S
O142 Co140 2.091 . S
O142 C148 1.261 . S
C143 O152 1.247 . S
C143 O153 1.272 . S
O144 Co140 2.004 . S
O144 C149 1.259 . S
Co145 O146 2.061 . S
Co145 O151 2.052 . S
Co145 O153 2.135 . S
O146 Co145 2.061 . S
O146 C149 1.235 . S
C147 O150 1.238 . S
C147 O151 1.241 . S
C148 O141 1.247 . S
C148 O142 1.261 . S
C149 O144 1.259 . S
C149 O146 1.235 . S
O150 Co140 2.021 . S
O150 C147 1.238 . S
O151 Co145 2.052 . S
O151 C147 1.241 . S
O152 Co140 2.137 . S
O152 C143 1.247 . S
O153 Co140 2.244 . S
O153 C143 1.272 . S
O153 Co145 2.135 . S
Co154 O155 2.216 . S
Co154 O156 2.091 . S
Co154 O158 2.004 1_554 S
Co154 O164 2.021 . S
Co154 O166 2.137 . S
Co154 O167 2.244 . S
O155 Co154 2.216 . S
O155 C162 1.247 . S
O156 Co154 2.091 . S
O156 C162 1.261 . S
C157 O166 1.247 . S
C157 O167 1.272 . S
O158 Co154 2.004 1_556 S
O158 C163 1.259 . S
Co159 O160 2.061 . S
Co159 O165 2.052 . S
Co159 O167 2.134 1_556 S
O160 Co159 2.061 . S
O160 C163 1.235 . S
C161 O164 1.238 . S
C161 O165 1.241 1_554 S
C162 O155 1.247 . S
C162 O156 1.261 . S
C163 O158 1.259 . S
C163 O160 1.235 . S
O164 Co154 2.021 . S
O164 C161 1.238 . S
O165 Co159 2.052 . S
O165 C161 1.241 1_556 S
O166 Co154 2.137 . S
O166 C157 1.247 . S
O167 Co154 2.244 . S
O167 C157 1.272 . S
O167 Co159 2.134 1_554 S
H168 C186 0.951 . S
H169 C188 0.951 . S
H170 C190 0.950 . S
H171 C191 0.950 . S
H172 C193 0.950 . S
H173 C196 0.950 . S
H174 C197 0.950 . S
H175 C199 0.950 . S
H176 C200 0.950 . S
H177 C201 0.951 . S
H178 C203 0.951 . S
H179 C205 0.950 . S
H180 C206 0.950 . S
H181 C208 0.950 . S
H182 C211 0.950 . S
H183 C212 0.950 . S
H184 C214 0.950 . S
H185 C215 0.950 . S
C186 H168 0.951 . S
C186 C187 1.366 . S
C186 C188 1.388 . S
C187 C186 1.366 . S
C187 C191 1.385 . S
C188 H169 0.951 . S
C188 C186 1.388 . S
C188 C189 1.366 . S
C189 C188 1.366 . S
C189 C190 1.414 . S
C189 C192 1.499 . S
C190 H170 0.950 . S
C190 C189 1.414 . S
C190 C191 1.374 . S
C191 H171 0.950 . S
C191 C187 1.385 . S
C191 C190 1.374 . S
C192 C189 1.499 . S
C192 C193 1.373 . S
C192 C194 1.389 . S
C193 H172 0.950 . S
C193 C192 1.373 . S
C193 C209 1.377 . S
C194 C192 1.389 . S
C194 C195 1.524 . S
C194 C208 1.377 . S
C195 C194 1.524 . S
C195 C196 1.397 . S
C195 C200 1.363 . S
C196 H173 0.950 . S
C196 C195 1.397 . S
C196 C197 1.334 . S
C197 H174 0.950 . S
C197 C196 1.334 . S
C197 C198 1.287 . S
C198 C197 1.287 . S
C198 C199 1.524 . S
C198 H217 0.913 . S
C199 H175 0.950 . S
C199 C198 1.524 . S
C199 C200 1.415 . S
C200 H176 0.950 . S
C200 C195 1.363 . S
C200 C199 1.415 . S
C201 H177 0.951 . S
C201 C202 1.366 . S
C201 C203 1.388 . S
C202 C201 1.366 . S
C202 C206 1.385 . S
C203 H178 0.951 . S
C203 C201 1.388 . S
C203 C204 1.366 . S
C204 C203 1.366 . S
C204 C205 1.414 . S
C204 C207 1.499 . S
C205 H179 0.950 . S
C205 C204 1.414 . S
C205 C206 1.374 . S
C206 H180 0.950 . S
C206 C202 1.385 . S
C206 C205 1.374 . S
C207 C204 1.499 . S
C207 C208 1.373 . S
C207 C209 1.389 . S
C208 H181 0.950 . S
C208 C194 1.377 . S
C208 C207 1.373 . S
C209 C193 1.377 . S
C209 C207 1.389 . S
C209 C210 1.524 . S
C210 C209 1.524 . S
C210 C211 1.397 . S
C210 C215 1.363 . S
C211 H182 0.950 . S
C211 C210 1.397 . S
C211 C212 1.334 . S
C212 H183 0.950 . S
C212 C211 1.334 . S
C212 C213 1.287 . S
C213 C212 1.287 . S
C213 C214 1.524 . S
C213 H216 0.999 . S
C214 H184 0.950 . S
C214 C213 1.524 . S
C214 C215 1.415 . S
C215 H185 0.950 . S
C215 C210 1.363 . S
C215 C214 1.415 . S
H216 C213 0.999 . S
H217 C198 0.913 . S
H218 C236 0.951 . S
H219 C238 0.951 . S
H220 C240 0.950 . S
H221 C241 0.950 . S
H222 C243 0.950 . S
H223 C246 0.950 . S
H224 C247 0.950 . S
H225 C249 0.950 . S
H226 C250 0.950 . S
H227 C251 0.951 . S
H228 C253 0.951 . S
H229 C255 0.950 . S
H230 C256 0.950 . S
H231 C258 0.950 . S
H232 C261 0.950 . S
H233 C262 0.950 . S
H234 C264 0.950 . S
H235 C265 0.950 . S
C236 H218 0.951 . S
C236 C237 1.366 . S
C236 C238 1.388 . S
C237 C236 1.366 . S
C237 C241 1.385 . S
C238 H219 0.951 . S
C238 C236 1.388 . S
C238 C239 1.366 . S
C239 C238 1.366 . S
C239 C240 1.414 . S
C239 C242 1.499 . S
C240 H220 0.950 . S
C240 C239 1.414 . S
C240 C241 1.374 . S
C241 H221 0.950 . S
C241 C237 1.385 . S
C241 C240 1.374 . S
C242 C239 1.499 . S
C242 C243 1.373 . S
C242 C244 1.389 . S
C243 H222 0.950 . S
C243 C242 1.373 . S
C243 C259 1.377 . S
C244 C242 1.389 . S
C244 C245 1.524 . S
C244 C258 1.377 . S
C245 C244 1.524 . S
C245 C246 1.397 . S
C245 C250 1.363 . S
C246 H223 0.950 . S
C246 C245 1.397 . S
C246 C247 1.334 . S
C247 H224 0.950 . S
C247 C246 1.334 . S
C247 C248 1.287 . S
C248 C247 1.287 . S
C248 C249 1.524 . S
C248 H267 0.913 . S
C249 H225 0.950 . S
C249 C248 1.524 . S
C249 C250 1.415 . S
C250 H226 0.950 . S
C250 C245 1.363 . S
C250 C249 1.415 . S
C251 H227 0.951 . S
C251 C252 1.366 . S
C251 C253 1.388 . S
C252 C251 1.366 . S
C252 C256 1.385 . S
C253 H228 0.951 . S
C253 C251 1.388 . S
C253 C254 1.366 . S
C254 C253 1.366 . S
C254 C255 1.414 . S
C254 C257 1.499 . S
C255 H229 0.950 . S
C255 C254 1.414 . S
C255 C256 1.374 . S
C256 H230 0.950 . S
C256 C252 1.385 . S
C256 C255 1.374 . S
C257 C254 1.499 . S
C257 C258 1.373 . S
C257 C259 1.389 . S
C258 H231 0.950 . S
C258 C244 1.377 . S
C258 C257 1.373 . S
C259 C243 1.377 . S
C259 C257 1.389 . S
C259 C260 1.524 . S
C260 C259 1.524 . S
C260 C261 1.397 . S
C260 C265 1.363 . S
C261 H232 0.950 . S
C261 C260 1.397 . S
C261 C262 1.334 . S
C262 H233 0.950 . S
C262 C261 1.334 . S
C262 C263 1.287 . S
C263 C262 1.287 . S
C263 C264 1.524 . S
C263 H266 0.999 . S
C264 H234 0.950 . S
C264 C263 1.524 . S
C264 C265 1.415 . S
C265 H235 0.950 . S
C265 C260 1.363 . S
C265 C264 1.415 . S
H266 C263 0.999 . S
H267 C248 0.913 . S
H268 C286 0.951 . S
H269 C288 0.951 . S
H270 C290 0.950 . S
H271 C291 0.950 . S
H272 C293 0.950 . S
H273 C296 0.950 . S
H274 C297 0.950 . S
H275 C299 0.950 . S
H276 C300 0.950 . S
H277 C301 0.951 . S
H278 C303 0.951 . S
H279 C305 0.950 . S
H280 C306 0.950 . S
H281 C308 0.950 . S
H282 C311 0.950 . S
H283 C312 0.950 . S
H284 C314 0.975 . S
H285 C315 0.950 . S
C286 H268 0.951 . S
C286 C287 1.366 . S
C286 C288 1.388 . S
C287 C286 1.366 . S
C287 C291 1.385 1_556 S
C288 H269 0.951 . S
C288 C286 1.388 . S
C288 C289 1.366 . S
C289 C288 1.366 . S
C289 C290 1.414 1_556 S
C289 C292 1.498 1_556 S
C290 H270 0.950 . S
C290 C289 1.414 1_554 S
C290 C291 1.374 . S
C291 H271 0.950 . S
C291 C287 1.385 1_554 S
C291 C290 1.374 . S
C292 C289 1.498 1_554 S
C292 C293 1.372 1_554 S
C292 C294 1.391 . S
C293 H272 0.950 . S
C293 C292 1.372 1_556 S
C293 C309 1.377 . S
C294 C292 1.391 . S
C294 C295 1.524 . S
C294 C308 1.377 . S
C295 C294 1.524 . S
C295 C296 1.397 . S
C295 C300 1.363 1_554 S
C296 H273 0.950 . S
C296 C295 1.397 . S
C296 C297 1.334 . S
C297 H274 0.950 . S
C297 C296 1.334 . S
C297 C298 1.287 . S
C298 C297 1.287 . S
C298 C299 1.524 1_554 S
C298 H317 0.913 . S
C299 H275 0.950 . S
C299 C298 1.524 1_556 S
C299 C300 1.415 . S
C300 H276 0.950 . S
C300 C295 1.363 1_556 S
C300 C299 1.415 . S
C301 H277 0.951 . S
C301 C302 1.366 . S
C301 C303 1.388 . S
C302 C301 1.366 . S
C302 C306 1.385 1_554 S
C303 H278 0.951 . S
C303 C301 1.388 . S
C303 C304 1.366 . S
C304 C303 1.366 . S
C304 C305 1.414 1_554 S
C304 C307 1.497 1_554 S
C305 H279 0.950 . S
C305 C304 1.414 1_556 S
C305 C306 1.374 . S
C306 H280 0.950 . S
C306 C302 1.385 1_556 S
C306 C305 1.374 . S
C307 C304 1.497 1_556 S
C307 C308 1.371 1_556 S
C307 C309 1.392 . S
C308 H281 0.950 . S
C308 C294 1.377 . S
C308 C307 1.371 1_554 S
C309 C293 1.377 . S
C309 C307 1.392 . S
C309 C310 1.524 . S
C310 C309 1.524 . S
C310 C311 1.397 . S
C310 C315 1.363 1_556 S
C311 H282 0.950 . S
C311 C310 1.397 . S
C311 C312 1.334 . S
C312 H283 0.950 . S
C312 C311 1.334 . S
C312 C313 1.287 . S
C313 C312 1.287 . S
C313 C314 1.487 1_556 S
C313 H316 0.999 . S
C314 H284 0.975 . S
C314 C313 1.487 1_554 S
C314 C315 1.425 . S
C315 H285 0.950 . S
C315 C310 1.363 1_554 S
C315 C314 1.425 . S
H316 C313 0.999 . S
H317 C298 0.913 . S
H318 C336 0.951 . S
H319 C338 0.951 . S
H320 C340 0.950 . S
H321 C341 0.950 . S
H322 C343 0.950 . S
H323 C346 0.950 . S
H324 C347 0.950 . S
H325 C349 0.950 . S
H326 C350 0.950 . S
H327 C351 0.951 . S
H328 C353 0.951 . S
H329 C355 0.950 . S
H330 C356 0.950 . S
H331 C358 0.950 . S
H332 C361 0.950 . S
H333 C362 0.950 . S
H334 C364 0.950 . S
H335 C365 0.950 . S
C336 H318 0.951 . S
C336 C337 1.366 . S
C336 C338 1.388 . S
C337 C336 1.366 . S
C337 C341 1.385 . S
C338 H319 0.951 . S
C338 C336 1.388 . S
C338 C339 1.366 . S
C339 C338 1.366 . S
C339 C340 1.414 . S
C339 C342 1.499 . S
C340 H320 0.950 . S
C340 C339 1.414 . S
C340 C341 1.374 . S
C341 H321 0.950 . S
C341 C337 1.385 . S
C341 C340 1.374 . S
C342 C339 1.499 . S
C342 C343 1.373 . S
C342 C344 1.389 . S
C343 H322 0.950 . S
C343 C342 1.373 . S
C343 C359 1.377 . S
C344 C342 1.389 . S
C344 C345 1.524 . S
C344 C358 1.377 . S
C345 C344 1.524 . S
C345 C346 1.397 . S
C345 C350 1.363 . S
C346 H323 0.950 . S
C346 C345 1.397 . S
C346 C347 1.334 . S
C347 H324 0.950 . S
C347 C346 1.334 . S
C347 C348 1.287 . S
C348 C347 1.287 . S
C348 C349 1.524 . S
C348 H367 0.913 . S
C349 H325 0.950 . S
C349 C348 1.524 . S
C349 C350 1.415 . S
C350 H326 0.950 . S
C350 C345 1.363 . S
C350 C349 1.415 . S
C351 H327 0.951 . S
C351 C352 1.366 . S
C351 C353 1.388 . S
C352 C351 1.366 . S
C352 C356 1.385 . S
C353 H328 0.951 . S
C353 C351 1.388 . S
C353 C354 1.366 . S
C354 C353 1.366 . S
C354 C355 1.414 . S
C354 C357 1.499 . S
C355 H329 0.950 . S
C355 C354 1.414 . S
C355 C356 1.374 . S
C356 H330 0.950 . S
C356 C352 1.385 . S
C356 C355 1.374 . S
C357 C354 1.499 . S
C357 C358 1.373 . S
C357 C359 1.389 . S
C358 H331 0.950 . S
C358 C344 1.377 . S
C358 C357 1.373 . S
C359 C343 1.377 . S
C359 C357 1.389 . S
C359 C360 1.524 . S
C360 C359 1.524 . S
C360 C361 1.397 . S
C360 C365 1.363 . S
C361 H332 0.950 . S
C361 C360 1.397 . S
C361 C362 1.334 . S
C362 H333 0.950 . S
C362 C361 1.334 . S
C362 C363 1.287 . S
C363 C362 1.287 . S
C363 C364 1.524 . S
C363 H366 0.999 . S
C364 H334 0.950 . S
C364 C363 1.524 . S
C364 C365 1.415 . S
C365 H335 0.950 . S
C365 C360 1.363 . S
C365 C364 1.415 . S
H366 C363 0.999 . S
H367 C348 0.913 . S
H368 C386 0.951 . S
H369 C388 0.951 . S
H370 C390 0.950 . S
H371 C391 0.950 . S
H372 C393 0.950 . S
H373 C396 0.950 . S
H374 C397 0.950 . S
H375 C399 0.950 . S
H376 C400 0.950 . S
H377 C401 0.951 . S
H378 C403 0.951 . S
H379 C405 0.950 . S
H380 C406 0.950 . S
H381 C408 0.950 . S
H382 C411 0.950 . S
H383 C412 0.950 . S
H384 C414 0.950 . S
H385 C415 0.950 . S
C386 H368 0.951 . S
C386 C387 1.366 . S
C386 C388 1.388 . S
C387 C386 1.366 . S
C387 C391 1.385 . S
C388 H369 0.951 . S
C388 C386 1.388 . S
C388 C389 1.366 . S
C389 C388 1.366 . S
C389 C390 1.414 . S
C389 C392 1.499 . S
C390 H370 0.950 . S
C390 C389 1.414 . S
C390 C391 1.374 . S
C391 H371 0.950 . S
C391 C387 1.385 . S
C391 C390 1.374 . S
C392 C389 1.499 . S
C392 C393 1.373 . S
C392 C394 1.389 . S
C393 H372 0.950 . S
C393 C392 1.373 . S
C393 C409 1.377 . S
C394 C392 1.389 . S
C394 C395 1.524 . S
C394 C408 1.377 . S
C395 C394 1.524 . S
C395 C396 1.397 . S
C395 C400 1.363 . S
C396 H373 0.950 . S
C396 C395 1.397 . S
C396 C397 1.334 . S
C397 H374 0.950 . S
C397 C396 1.334 . S
C397 C398 1.287 . S
C398 C397 1.287 . S
C398 C399 1.524 . S
C398 H417 0.913 . S
C399 H375 0.950 . S
C399 C398 1.524 . S
C399 C400 1.415 . S
C400 H376 0.950 . S
C400 C395 1.363 . S
C400 C399 1.415 . S
C401 H377 0.951 . S
C401 C402 1.366 . S
C401 C403 1.388 . S
C402 C401 1.366 . S
C402 C406 1.385 . S
C403 H378 0.951 . S
C403 C401 1.388 . S
C403 C404 1.366 . S
C404 C403 1.366 . S
C404 C405 1.414 . S
C404 C407 1.499 . S
C405 H379 0.950 . S
C405 C404 1.414 . S
C405 C406 1.374 . S
C406 H380 0.950 . S
C406 C402 1.385 . S
C406 C405 1.374 . S
C407 C404 1.499 . S
C407 C408 1.373 . S
C407 C409 1.389 . S
C408 H381 0.950 . S
C408 C394 1.377 . S
C408 C407 1.373 . S
C409 C393 1.377 . S
C409 C407 1.389 . S
C409 C410 1.524 . S
C410 C409 1.524 . S
C410 C411 1.397 . S
C410 C415 1.363 . S
C411 H382 0.950 . S
C411 C410 1.397 . S
C411 C412 1.334 . S
C412 H383 0.950 . S
C412 C411 1.334 . S
C412 C413 1.287 . S
C413 C412 1.287 . S
C413 C414 1.524 . S
C413 H416 0.999 . S
C414 H384 0.950 . S
C414 C413 1.524 . S
C414 C415 1.415 . S
C415 H385 0.950 . S
C415 C410 1.363 . S
C415 C414 1.415 . S
H416 C413 0.999 . S
H417 C398 0.913 . S
H418 C436 0.951 . S
H419 C438 0.951 . S
H420 C440 0.950 . S
H421 C441 0.950 . S
H422 C443 0.950 . S
H423 C446 0.950 . S
H424 C447 0.950 . S
H425 C449 0.950 . S
H426 C450 0.950 . S
H427 C451 0.951 . S
H428 C453 0.951 . S
H429 C455 0.950 . S
H430 C456 0.950 . S
H431 C458 0.950 . S
H432 C461 0.950 . S
H433 C462 0.950 . S
H434 C464 0.950 . S
H435 C465 0.950 . S
C436 H418 0.951 . S
C436 C437 1.366 1_556 S
C436 C438 1.388 . S
C437 C436 1.366 1_554 S
C437 C441 1.385 . S
C438 H419 0.951 . S
C438 C436 1.388 . S
C438 C439 1.366 1_556 S
C439 C438 1.366 1_554 S
C439 C440 1.414 . S
C439 C442 1.499 . S
C440 H420 0.950 . S
C440 C439 1.414 . S
C440 C441 1.374 . S
C441 H421 0.950 . S
C441 C437 1.385 . S
C441 C440 1.374 . S
C442 C439 1.499 . S
C442 C443 1.373 . S
C442 C444 1.389 1_554 S
C443 H422 0.950 . S
C443 C442 1.373 . S
C443 C459 1.377 . S
C444 C442 1.389 1_556 S
C444 C445 1.524 . S
C444 C458 1.377 . S
C445 C444 1.524 . S
C445 C446 1.397 . S
C445 C450 1.363 . S
C446 H423 0.950 . S
C446 C445 1.397 . S
C446 C447 1.334 . S
C447 H424 0.950 . S
C447 C446 1.334 . S
C447 C448 1.287 . S
C448 C447 1.287 . S
C448 C449 1.524 . S
C448 H467 0.913 . S
C449 H425 0.950 . S
C449 C448 1.524 . S
C449 C450 1.415 . S
C450 H426 0.950 . S
C450 C445 1.363 . S
C450 C449 1.415 . S
C451 H427 0.951 . S
C451 C452 1.366 1_554 S
C451 C453 1.388 . S
C452 C451 1.366 1_556 S
C452 C456 1.385 . S
C453 H428 0.951 . S
C453 C451 1.388 . S
C453 C454 1.366 1_554 S
C454 C453 1.366 1_556 S
C454 C455 1.414 . S
C454 C457 1.499 . S
C455 H429 0.950 . S
C455 C454 1.414 . S
C455 C456 1.374 . S
C456 H430 0.950 . S
C456 C452 1.385 . S
C456 C455 1.374 . S
C457 C454 1.499 . S
C457 C458 1.373 . S
C457 C459 1.389 1_556 S
C458 H431 0.950 . S
C458 C444 1.377 . S
C458 C457 1.373 . S
C459 C443 1.377 . S
C459 C457 1.389 1_554 S
C459 C460 1.524 . S
C460 C459 1.524 . S
C460 C461 1.397 . S
C460 C465 1.363 . S
C461 H432 0.950 . S
C461 C460 1.397 . S
C461 C462 1.334 . S
C462 H433 0.950 . S
C462 C461 1.334 . S
C462 C463 1.287 . S
C463 C462 1.287 . S
C463 C464 1.524 . S
C463 H466 0.999 . S
C464 H434 0.950 . S
C464 C463 1.524 . S
C464 C465 1.415 . S
C465 H435 0.950 . S
C465 C460 1.363 . S
C465 C464 1.415 . S
H466 C463 0.999 . S
H467 C448 0.913 . S
H468 C486 0.951 . S
H469 C488 0.951 . S
H470 C490 0.950 . S
H471 C491 0.950 . S
H472 C493 0.950 . S
H473 C496 0.950 . S
H474 C497 0.950 . S
H475 C499 0.950 . S
H476 C500 0.950 . S
H477 C501 0.951 . S
H478 C503 0.951 . S
H479 C505 0.950 . S
H480 C506 0.950 . S
H481 C508 0.950 . S
H482 C511 0.950 . S
H483 C512 0.950 . S
H484 C514 0.950 . S
H485 C515 0.950 . S
C486 H468 0.951 . S
C486 C487 1.366 . S
C486 C488 1.388 . S
C487 C486 1.366 . S
C487 C491 1.385 . S
C488 H469 0.951 . S
C488 C486 1.388 . S
C488 C489 1.366 . S
C489 C488 1.366 . S
C489 C490 1.414 . S
C489 C492 1.499 . S
C490 H470 0.950 . S
C490 C489 1.414 . S
C490 C491 1.374 . S
C491 H471 0.950 . S
C491 C487 1.385 . S
C491 C490 1.374 . S
C492 C489 1.499 . S
C492 C493 1.373 . S
C492 C494 1.389 . S
C493 H472 0.950 . S
C493 C492 1.373 . S
C493 C509 1.377 . S
C494 C492 1.389 . S
C494 C495 1.524 . S
C494 C508 1.377 . S
C495 C494 1.524 . S
C495 C496 1.397 . S
C495 C500 1.363 . S
C496 H473 0.950 . S
C496 C495 1.397 . S
C496 C497 1.334 . S
C497 H474 0.950 . S
C497 C496 1.334 . S
C497 C498 1.287 . S
C498 C497 1.287 . S
C498 C499 1.524 . S
C498 H517 0.913 . S
C499 H475 0.950 . S
C499 C498 1.524 . S
C499 C500 1.415 . S
C500 H476 0.950 . S
C500 C495 1.363 . S
C500 C499 1.415 . S
C501 H477 0.951 . S
C501 C502 1.366 . S
C501 C503 1.388 . S
C502 C501 1.366 . S
C502 C506 1.385 . S
C503 H478 0.951 . S
C503 C501 1.388 . S
C503 C504 1.366 . S
C504 C503 1.366 . S
C504 C505 1.414 . S
C504 C507 1.499 . S
C505 H479 0.950 . S
C505 C504 1.414 . S
C505 C506 1.374 . S
C506 H480 0.950 . S
C506 C502 1.385 . S
C506 C505 1.374 . S
C507 C504 1.499 . S
C507 C508 1.373 . S
C507 C509 1.389 . S
C508 H481 0.950 . S
C508 C494 1.377 . S
C508 C507 1.373 . S
C509 C493 1.377 . S
C509 C507 1.389 . S
C509 C510 1.524 . S
C510 C509 1.524 . S
C510 C511 1.397 . S
C510 C515 1.363 . S
C511 H482 0.950 . S
C511 C510 1.397 . S
C511 C512 1.334 . S
C512 H483 0.950 . S
C512 C511 1.334 . S
C512 C513 1.287 . S
C513 C512 1.287 . S
C513 C514 1.524 . S
C513 H516 0.999 . S
C514 H484 0.950 . S
C514 C513 1.524 . S
C514 C515 1.415 . S
C515 H485 0.950 . S
C515 C510 1.363 . S
C515 C514 1.415 . S
H516 C513 0.999 . S
H517 C498 0.913 . S
H518 C536 0.951 . S
H519 C538 0.951 . S
H520 C540 0.950 . S
H521 C541 0.950 . S
H522 C543 0.950 . S
H523 C546 0.950 . S
H524 C547 0.950 . S
H525 C549 0.950 . S
H526 C550 0.950 . S
H527 C551 0.951 . S
H528 C553 0.951 . S
H529 C555 0.950 . S
H530 C556 0.950 . S
H531 C558 0.950 . S
H532 C561 0.950 . S
H533 C562 0.950 . S
H534 C564 0.950 . S
H535 C565 0.950 . S
C536 H518 0.951 . S
C536 C537 1.366 . S
C536 C538 1.388 . S
C537 C536 1.366 . S
C537 C541 1.385 . S
C538 H519 0.951 . S
C538 C536 1.388 . S
C538 C539 1.366 . S
C539 C538 1.366 . S
C539 C540 1.414 . S
C539 C542 1.499 . S
C540 H520 0.950 . S
C540 C539 1.414 . S
C540 C541 1.374 . S
C541 H521 0.950 . S
C541 C537 1.385 . S
C541 C540 1.374 . S
C542 C539 1.499 . S
C542 C543 1.373 . S
C542 C544 1.389 . S
C543 H522 0.950 . S
C543 C542 1.373 . S
C543 C559 1.377 1_655 S
C544 C542 1.389 . S
C544 C545 1.524 . S
C544 C558 1.377 1_655 S
C545 C544 1.524 . S
C545 C546 1.397 . S
C545 C550 1.363 . S
C546 H523 0.950 . S
C546 C545 1.397 . S
C546 C547 1.334 . S
C547 H524 0.950 . S
C547 C546 1.334 . S
C547 C548 1.287 . S
C548 C547 1.287 . S
C548 C549 1.524 . S
C548 H567 0.913 . S
C549 H525 0.950 . S
C549 C548 1.524 . S
C549 C550 1.415 . S
C550 H526 0.950 . S
C550 C545 1.363 . S
C550 C549 1.415 . S
C551 H527 0.951 . S
C551 C552 1.366 . S
C551 C553 1.388 . S
C552 C551 1.366 . S
C552 C556 1.385 . S
C553 H528 0.951 . S
C553 C551 1.388 . S
C553 C554 1.366 . S
C554 C553 1.366 . S
C554 C555 1.414 . S
C554 C557 1.499 . S
C555 H529 0.950 . S
C555 C554 1.414 . S
C555 C556 1.374 . S
C556 H530 0.950 . S
C556 C552 1.385 . S
C556 C555 1.374 . S
C557 C554 1.499 . S
C557 C558 1.373 . S
C557 C559 1.389 . S
C558 H531 0.950 . S
C558 C544 1.377 1_455 S
C558 C557 1.373 . S
C559 C543 1.377 1_455 S
C559 C557 1.389 . S
C559 C560 1.524 . S
C560 C559 1.524 . S
C560 C561 1.397 . S
C560 C565 1.363 . S
C561 H532 0.950 . S
C561 C560 1.397 . S
C561 C562 1.334 . S
C562 H533 0.950 . S
C562 C561 1.334 . S
C562 C563 1.287 . S
C563 C562 1.287 . S
C563 C564 1.524 . S
C563 H566 0.999 . S
C564 H534 0.950 . S
C564 C563 1.524 . S
C564 C565 1.415 . S
C565 H535 0.950 . S
C565 C560 1.363 . S
C565 C564 1.415 . S
H566 C563 0.999 . S
H567 C548 0.913 . S
H568 C586 0.951 . S
H569 C588 0.951 . S
H570 C590 0.950 . S
H571 C591 0.950 . S
H572 C593 0.950 . S
H573 C596 0.950 . S
H574 C597 0.950 . S
H575 C599 0.950 . S
H576 C600 0.950 . S
H577 C601 0.951 . S
H578 C603 0.951 . S
H579 C605 0.950 . S
H580 C606 0.950 . S
H581 C608 0.950 . S
H582 C611 0.950 . S
H583 C612 0.950 . S
H584 C614 0.950 . S
H585 C615 0.950 . S
C586 H568 0.951 . S
C586 C587 1.366 . S
C586 C588 1.388 . S
C587 C586 1.366 . S
C587 C591 1.385 1_554 S
C588 H569 0.951 . S
C588 C586 1.388 . S
C588 C589 1.366 . S
C589 C588 1.366 . S
C589 C590 1.414 1_554 S
C589 C592 1.499 . S
C590 H570 0.950 . S
C590 C589 1.414 1_556 S
C590 C591 1.374 . S
C591 H571 0.950 . S
C591 C587 1.385 1_556 S
C591 C590 1.374 . S
C592 C589 1.499 . S
C592 C593 1.373 1_554 S
C592 C594 1.389 . S
C593 H572 0.950 . S
C593 C592 1.373 1_556 S
C593 C609 1.377 1_545 S
C594 C592 1.389 . S
C594 C595 1.524 . S
C594 C608 1.377 1_545 S
C595 C594 1.524 . S
C595 C596 1.397 . S
C595 C600 1.363 . S
C596 H573 0.950 . S
C596 C595 1.397 . S
C596 C597 1.334 . S
C597 H574 0.950 . S
C597 C596 1.334 . S
C597 C598 1.287 . S
C598 C597 1.287 . S
C598 C599 1.524 . S
C598 H617 0.913 . S
C599 H575 0.950 . S
C599 C598 1.524 . S
C599 C600 1.415 . S
C600 H576 0.950 . S
C600 C595 1.363 . S
C600 C599 1.415 . S
C601 H577 0.951 . S
C601 C602 1.366 . S
C601 C603 1.388 . S
C602 C601 1.366 . S
C602 C606 1.385 1_556 S
C603 H578 0.951 . S
C603 C601 1.388 . S
C603 C604 1.366 . S
C604 C603 1.366 . S
C604 C605 1.414 1_556 S
C604 C607 1.499 . S
C605 H579 0.950 . S
C605 C604 1.414 1_554 S
C605 C606 1.374 . S
C606 H580 0.950 . S
C606 C602 1.385 1_554 S
C606 C605 1.374 . S
C607 C604 1.499 . S
C607 C608 1.373 1_556 S
C607 C609 1.389 . S
C608 H581 0.950 . S
C608 C594 1.377 1_565 S
C608 C607 1.373 1_554 S
C609 C593 1.377 1_565 S
C609 C607 1.389 . S
C609 C610 1.524 . S
C610 C609 1.524 . S
C610 C611 1.397 . S
C610 C615 1.363 . S
C611 H582 0.950 . S
C611 C610 1.397 . S
C611 C612 1.334 . S
C612 H583 0.950 . S
C612 C611 1.334 . S
C612 C613 1.287 . S
C613 C612 1.287 . S
C613 C614 1.524 . S
C613 H616 0.999 . S
C614 H584 0.950 . S
C614 C613 1.524 . S
C614 C615 1.415 . S
C615 H585 0.950 . S
C615 C610 1.363 . S
C615 C614 1.415 . S
H616 C613 0.999 . S
H617 C598 0.913 . S
H618 C636 0.951 . S
H619 C638 0.951 . S
H620 C640 0.950 . S
H621 C641 0.950 . S
H622 C643 0.950 . S
H623 C646 0.950 . S
H624 C647 0.950 . S
H625 C649 0.950 . S
H626 C650 0.950 . S
H627 C651 0.951 . S
H628 C653 0.951 . S
H629 C655 0.950 . S
H630 C656 0.950 . S
H631 C658 0.950 . S
H632 C661 0.950 . S
H633 C662 0.950 . S
H634 C664 0.950 . S
H635 C665 0.950 . S
C636 H618 0.951 . S
C636 C637 1.366 . S
C636 C638 1.388 . S
C637 C636 1.366 . S
C637 C641 1.385 . S
C638 H619 0.951 . S
C638 C636 1.388 . S
C638 C639 1.366 . S
C639 C638 1.366 . S
C639 C640 1.414 . S
C639 C642 1.499 . S
C640 H620 0.950 . S
C640 C639 1.414 . S
C640 C641 1.374 . S
C641 H621 0.950 . S
C641 C637 1.385 . S
C641 C640 1.374 . S
C642 C639 1.499 . S
C642 C643 1.373 . S
C642 C644 1.389 . S
C643 H622 0.950 . S
C643 C642 1.373 . S
C643 C659 1.377 . S
C644 C642 1.389 . S
C644 C645 1.524 . S
C644 C658 1.377 . S
C645 C644 1.524 . S
C645 C646 1.397 . S
C645 C650 1.363 . S
C646 H623 0.950 . S
C646 C645 1.397 . S
C646 C647 1.334 . S
C647 H624 0.950 . S
C647 C646 1.334 . S
C647 C648 1.287 . S
C648 C647 1.287 . S
C648 C649 1.524 . S
C648 H667 0.913 . S
C649 H625 0.950 . S
C649 C648 1.524 . S
C649 C650 1.415 . S
C650 H626 0.950 . S
C650 C645 1.363 . S
C650 C649 1.415 . S
C651 H627 0.951 . S
C651 C652 1.366 . S
C651 C653 1.388 . S
C652 C651 1.366 . S
C652 C656 1.385 . S
C653 H628 0.951 . S
C653 C651 1.388 . S
C653 C654 1.366 . S
C654 C653 1.366 . S
C654 C655 1.414 . S
C654 C657 1.499 . S
C655 H629 0.950 . S
C655 C654 1.414 . S
C655 C656 1.374 . S
C656 H630 0.950 . S
C656 C652 1.385 . S
C656 C655 1.374 . S
C657 C654 1.499 . S
C657 C658 1.373 . S
C657 C659 1.389 . S
C658 H631 0.950 . S
C658 C644 1.377 . S
C658 C657 1.373 . S
C659 C643 1.377 . S
C659 C657 1.389 . S
C659 C660 1.524 . S
C660 C659 1.524 . S
C660 C661 1.397 . S
C660 C665 1.363 . S
C661 H632 0.950 . S
C661 C660 1.397 . S
C661 C662 1.334 . S
C662 H633 0.950 . S
C662 C661 1.334 . S
C662 C663 1.287 . S
C663 C662 1.287 . S
C663 C664 1.524 . S
C663 H666 0.999 . S
C664 H634 0.950 . S
C664 C663 1.524 . S
C664 C665 1.415 . S
C665 H635 0.950 . S
C665 C660 1.363 . S
C665 C664 1.415 . S
H666 C663 0.999 . S
H667 C648 0.913 . S
H668 C686 0.951 . S
H669 C688 0.951 . S
H670 C690 0.950 . S
H671 C691 0.950 . S
H672 C693 0.950 . S
H673 C696 0.950 . S
H674 C697 0.950 . S
H675 C699 0.950 . S
H676 C700 0.950 . S
H677 C701 0.951 . S
H678 C703 0.951 . S
H679 C705 0.950 . S
H680 C706 0.950 . S
H681 C708 0.950 . S
H682 C711 0.950 . S
H683 C712 0.950 . S
H684 C714 0.950 . S
H685 C715 0.950 . S
C686 H668 0.951 . S
C686 C687 1.366 . S
C686 C688 1.388 . S
C687 C686 1.366 . S
C687 C691 1.385 . S
C688 H669 0.951 . S
C688 C686 1.388 . S
C688 C689 1.366 . S
C689 C688 1.366 . S
C689 C690 1.414 . S
C689 C692 1.499 . S
C690 H670 0.950 . S
C690 C689 1.414 . S
C690 C691 1.374 . S
C691 H671 0.950 . S
C691 C687 1.385 . S
C691 C690 1.374 . S
C692 C689 1.499 . S
C692 C693 1.373 . S
C692 C694 1.389 . S
C693 H672 0.950 . S
C693 C692 1.373 . S
C693 C709 1.377 1_455 S
C694 C692 1.389 . S
C694 C695 1.524 . S
C694 C708 1.377 1_455 S
C695 C694 1.524 . S
C695 C696 1.397 . S
C695 C700 1.363 . S
C696 H673 0.950 . S
C696 C695 1.397 . S
C696 C697 1.334 . S
C697 H674 0.950 . S
C697 C696 1.334 . S
C697 C698 1.287 . S
C698 C697 1.287 . S
C698 C699 1.524 . S
C698 H717 0.913 . S
C699 H675 0.950 . S
C699 C698 1.524 . S
C699 C700 1.415 . S
C700 H676 0.950 . S
C700 C695 1.363 . S
C700 C699 1.415 . S
C701 H677 0.951 . S
C701 C702 1.366 . S
C701 C703 1.388 . S
C702 C701 1.366 . S
C702 C706 1.385 . S
C703 H678 0.951 . S
C703 C701 1.388 . S
C703 C704 1.366 . S
C704 C703 1.366 . S
C704 C705 1.414 . S
C704 C707 1.499 . S
C705 H679 0.950 . S
C705 C704 1.414 . S
C705 C706 1.374 . S
C706 H680 0.950 . S
C706 C702 1.385 . S
C706 C705 1.374 . S
C707 C704 1.499 . S
C707 C708 1.373 . S
C707 C709 1.389 . S
C708 H681 0.950 . S
C708 C694 1.377 1_655 S
C708 C707 1.373 . S
C709 C693 1.377 1_655 S
C709 C707 1.389 . S
C709 C710 1.524 . S
C710 C709 1.524 . S
C710 C711 1.397 . S
C710 C715 1.363 . S
C711 H682 0.950 . S
C711 C710 1.397 . S
C711 C712 1.334 . S
C712 H683 0.950 . S
C712 C711 1.334 . S
C712 C713 1.287 . S
C713 C712 1.287 . S
C713 C714 1.524 . S
C713 H716 0.999 . S
C714 H684 0.950 . S
C714 C713 1.524 . S
C714 C715 1.415 . S
C715 H685 0.950 . S
C715 C710 1.363 . S
C715 C714 1.415 . S
H716 C713 0.999 . S
H717 C698 0.913 . S
H718 C736 0.951 . S
H719 C738 0.951 . S
H720 C740 0.950 . S
H721 C741 0.950 . S
H722 C743 0.950 . S
H723 C746 0.950 . S
H724 C747 0.950 . S
H725 C749 0.950 . S
H726 C750 0.950 1_556 S
H727 C751 0.951 . S
H728 C753 0.951 . S
H729 C755 0.950 . S
H730 C756 0.950 . S
H731 C758 0.950 . S
H732 C761 0.950 . S
H733 C762 0.950 . S
H734 C764 0.950 . S
H735 C765 0.950 1_554 S
C736 H718 0.951 . S
C736 C737 1.366 . S
C736 C738 1.388 . S
C737 C736 1.366 . S
C737 C741 1.385 1_556 S
C738 H719 0.951 . S
C738 C736 1.388 . S
C738 C739 1.366 . S
C739 C738 1.366 . S
C739 C740 1.414 1_556 S
C739 C742 1.499 1_556 S
C740 H720 0.950 . S
C740 C739 1.414 1_554 S
C740 C741 1.374 . S
C741 H721 0.950 . S
C741 C737 1.385 1_554 S
C741 C740 1.374 . S
C742 C739 1.499 1_554 S
C742 C743 1.374 1_554 S
C742 C744 1.388 . S
C743 H722 0.950 . S
C743 C742 1.374 1_556 S
C743 C759 1.377 1_545 S
C744 C742 1.388 . S
C744 C745 1.524 . S
C744 C758 1.377 1_545 S
C745 C744 1.524 . S
C745 C746 1.397 . S
C745 C750 1.363 . S
C746 H723 0.950 . S
C746 C745 1.397 . S
C746 C747 1.334 . S
C747 H724 0.950 . S
C747 C746 1.334 . S
C747 C748 1.287 . S
C748 C747 1.287 . S
C748 C749 1.524 . S
C748 H767 0.913 . S
C749 H725 0.950 . S
C749 C748 1.524 . S
C749 C750 1.415 . S
C750 H726 0.950 1_554 S
C750 C745 1.363 . S
C750 C749 1.415 . S
C751 H727 0.951 . S
C751 C752 1.366 . S
C751 C753 1.388 . S
C752 C751 1.366 . S
C752 C756 1.385 1_554 S
C753 H728 0.951 . S
C753 C751 1.388 . S
C753 C754 1.366 . S
C754 C753 1.366 . S
C754 C755 1.414 1_554 S
C754 C757 1.498 1_554 S
C755 H729 0.950 . S
C755 C754 1.414 1_556 S
C755 C756 1.374 . S
C756 H730 0.950 . S
C756 C752 1.385 1_556 S
C756 C755 1.374 . S
C757 C754 1.498 1_556 S
C757 C758 1.372 1_556 S
C757 C759 1.391 . S
C758 H731 0.950 . S
C758 C744 1.377 1_565 S
C758 C757 1.372 1_554 S
C759 C743 1.377 1_565 S
C759 C757 1.391 . S
C759 C760 1.524 . S
C760 C759 1.524 . S
C760 C761 1.397 . S
C760 C765 1.363 . S
C761 H732 0.950 . S
C761 C760 1.397 . S
C761 C762 1.334 . S
C762 H733 0.950 . S
C762 C761 1.334 . S
C762 C763 1.287 . S
C763 C762 1.287 . S
C763 C764 1.524 . S
C763 H766 0.999 . S
C764 H734 0.950 . S
C764 C763 1.524 . S
C764 C765 1.415 . S
C765 H735 0.950 1_556 S
C765 C760 1.363 . S
C765 C764 1.415 . S
H766 C763 0.999 . S
H767 C748 0.913 . S
H768 C786 0.951 . S
H769 C788 0.951 1_455 S
H770 C790 0.950 . S
H771 C791 0.950 . S
H772 C793 0.950 . S
H773 C796 0.950 1_655 S
H774 C797 0.950 . S
H775 C799 0.950 . S
H776 C800 0.950 . S
H777 C801 0.951 1_655 S
H778 C803 0.951 1_655 S
H779 C805 0.950 . S
H780 C806 0.950 . S
H781 C808 0.950 . S
H782 C811 0.950 1_455 S
H783 C812 0.950 . S
H784 C814 0.950 . S
H785 C815 0.950 . S
C786 H768 0.951 . S
C786 C787 1.366 . S
C786 C788 1.388 . S
C787 C786 1.366 . S
C787 C791 1.385 . S
C788 H769 0.951 1_655 S
C788 C786 1.388 . S
C788 C789 1.366 . S
C789 C788 1.366 . S
C789 C790 1.414 . S
C789 C792 1.499 . S
C790 H770 0.950 . S
C790 C789 1.414 . S
C790 C791 1.374 . S
C791 H771 0.950 . S
C791 C787 1.385 . S
C791 C790 1.374 . S
C792 C789 1.499 . S
C792 C793 1.373 . S
C792 C794 1.389 1_655 S
C793 H772 0.950 . S
C793 C792 1.373 . S
C793 C809 1.377 . S
C794 C792 1.389 1_455 S
C794 C795 1.524 . S
C794 C808 1.377 . S
C795 C794 1.524 . S
C795 C796 1.397 . S
C795 C800 1.363 . S
C796 H773 0.950 1_455 S
C796 C795 1.397 . S
C796 C797 1.334 . S
C797 H774 0.950 . S
C797 C796 1.334 . S
C797 C798 1.287 . S
C798 C797 1.287 . S
C798 C799 1.524 . S
C798 H817 0.913 . S
C799 H775 0.950 . S
C799 C798 1.524 . S
C799 C800 1.415 . S
C800 H776 0.950 . S
C800 C795 1.363 . S
C800 C799 1.415 . S
C801 H777 0.951 1_455 S
C801 C802 1.366 . S
C801 C803 1.388 . S
C802 C801 1.366 . S
C802 C806 1.385 . S
C803 H778 0.951 1_455 S
C803 C801 1.388 . S
C803 C804 1.366 . S
C804 C803 1.366 . S
C804 C805 1.414 . S
C804 C807 1.499 . S
C805 H779 0.950 . S
C805 C804 1.414 . S
C805 C806 1.374 . S
C806 H780 0.950 . S
C806 C802 1.385 . S
C806 C805 1.374 . S
C807 C804 1.499 . S
C807 C808 1.373 . S
C807 C809 1.389 1_455 S
C808 H781 0.950 . S
C808 C794 1.377 . S
C808 C807 1.373 . S
C809 C793 1.377 . S
C809 C807 1.389 1_655 S
C809 C810 1.524 . S
C810 C809 1.524 . S
C810 C811 1.397 . S
C810 C815 1.363 . S
C811 H782 0.950 1_655 S
C811 C810 1.397 . S
C811 C812 1.334 . S
C812 H783 0.950 . S
C812 C811 1.334 . S
C812 C813 1.287 . S
C813 C812 1.287 . S
C813 C814 1.524 . S
C813 H816 0.999 . S
C814 H784 0.950 . S
C814 C813 1.524 . S
C814 C815 1.415 . S
C815 H785 0.950 . S
C815 C810 1.363 . S
C815 C814 1.415 . S
H816 C813 0.999 . S
H817 C798 0.913 . S
H818 C836 0.951 1_565 S
H819 C838 0.951 1_565 S
H820 C840 0.950 . S
H821 C841 0.950 . S
H822 C843 0.950 . S
H823 C846 0.950 1_545 S
H824 C847 0.950 . S
H825 C849 0.950 . S
H826 C850 0.950 . S
H827 C851 0.951 1_545 S
H828 C853 0.951 1_545 S
H829 C855 0.950 . S
H830 C856 0.950 . S
H831 C858 0.950 . S
H832 C861 0.950 1_565 S
H833 C862 0.950 . S
H834 C864 0.950 . S
H835 C865 0.950 . S
C836 H818 0.951 1_545 S
C836 C837 1.366 . S
C836 C838 1.388 . S
C837 C836 1.366 . S
C837 C841 1.385 . S
C838 H819 0.951 1_545 S
C838 C836 1.388 . S
C838 C839 1.366 . S
C839 C838 1.366 . S
C839 C840 1.414 . S
C839 C842 1.499 . S
C840 H820 0.950 . S
C840 C839 1.414 . S
C840 C841 1.374 . S
C841 H821 0.950 . S
C841 C837 1.385 . S
C841 C840 1.374 . S
C842 C839 1.499 . S
C842 C843 1.373 . S
C842 C844 1.389 1_545 S
C843 H822 0.950 . S
C843 C842 1.373 . S
C843 C859 1.377 . S
C844 C842 1.389 1_565 S
C844 C845 1.524 . S
C844 C858 1.377 . S
C845 C844 1.524 . S
C845 C846 1.397 . S
C845 C850 1.363 . S
C846 H823 0.950 1_565 S
C846 C845 1.397 . S
C846 C847 1.334 . S
C847 H824 0.950 . S
C847 C846 1.334 . S
C847 C848 1.287 . S
C848 C847 1.287 . S
C848 C849 1.524 . S
C848 H867 0.913 . S
C849 H825 0.950 . S
C849 C848 1.524 . S
C849 C850 1.415 . S
C850 H826 0.950 . S
C850 C845 1.363 . S
C850 C849 1.415 . S
C851 H827 0.951 1_565 S
C851 C852 1.366 . S
C851 C853 1.388 . S
C852 C851 1.366 . S
C852 C856 1.385 . S
C853 H828 0.951 1_565 S
C853 C851 1.388 . S
C853 C854 1.366 . S
C854 C853 1.366 . S
C854 C855 1.414 . S
C854 C857 1.499 . S
C855 H829 0.950 . S
C855 C854 1.414 . S
C855 C856 1.374 . S
C856 H830 0.950 . S
C856 C852 1.385 . S
C856 C855 1.374 . S
C857 C854 1.499 . S
C857 C858 1.373 . S
C857 C859 1.389 1_565 S
C858 H831 0.950 . S
C858 C844 1.377 . S
C858 C857 1.373 . S
C859 C843 1.377 . S
C859 C857 1.389 1_545 S
C859 C860 1.524 . S
C860 C859 1.524 . S
C860 C861 1.397 . S
C860 C865 1.363 . S
C861 H832 0.950 1_545 S
C861 C860 1.397 . S
C861 C862 1.334 . S
C862 H833 0.950 . S
C862 C861 1.334 . S
C862 C863 1.287 . S
C863 C862 1.287 . S
C863 C864 1.524 . S
C863 H866 0.999 . S
C864 H834 0.950 . S
C864 C863 1.524 . S
C864 C865 1.415 . S
C865 H835 0.950 . S
C865 C860 1.363 . S
C865 C864 1.415 . S
H866 C863 0.999 . S
H867 C848 0.913 . S
H868 C886 0.951 . S
H869 C888 0.951 . S
H870 C890 0.950 . S
H871 C891 0.950 . S
H872 C893 0.950 . S
H873 C896 0.950 . S
H874 C897 0.950 . S
H875 C899 0.950 . S
H876 C900 0.950 . S
H877 C901 0.951 . S
H878 C903 0.951 . S
H879 C905 0.950 . S
H880 C906 0.950 . S
H881 C908 0.950 . S
H882 C911 0.950 . S
H883 C912 0.950 . S
H884 C914 0.950 . S
H885 C915 0.950 . S
C886 H868 0.951 . S
C886 C887 1.366 . S
C886 C888 1.388 . S
C887 C886 1.366 . S
C887 C891 1.385 . S
C888 H869 0.951 . S
C888 C886 1.388 . S
C888 C889 1.366 . S
C889 C888 1.366 . S
C889 C890 1.414 . S
C889 C892 1.499 . S
C890 H870 0.950 . S
C890 C889 1.414 . S
C890 C891 1.374 . S
C891 H871 0.950 . S
C891 C887 1.385 . S
C891 C890 1.374 . S
C892 C889 1.499 . S
C892 C893 1.373 . S
C892 C894 1.389 . S
C893 H872 0.950 . S
C893 C892 1.373 . S
C893 C909 1.377 . S
C894 C892 1.389 . S
C894 C895 1.524 . S
C894 C908 1.377 . S
C895 C894 1.524 . S
C895 C896 1.397 . S
C895 C900 1.363 . S
C896 H873 0.950 . S
C896 C895 1.397 . S
C896 C897 1.334 . S
C897 H874 0.950 . S
C897 C896 1.334 . S
C897 C898 1.287 . S
C898 C897 1.287 . S
C898 C899 1.524 . S
C898 H917 0.913 . S
C899 H875 0.950 . S
C899 C898 1.524 . S
C899 C900 1.415 . S
C900 H876 0.950 . S
C900 C895 1.363 . S
C900 C899 1.415 . S
C901 H877 0.951 . S
C901 C902 1.366 . S
C901 C903 1.388 . S
C902 C901 1.366 . S
C902 C906 1.385 . S
C903 H878 0.951 . S
C903 C901 1.388 . S
C903 C904 1.366 . S
C904 C903 1.366 . S
C904 C905 1.414 . S
C904 C907 1.499 . S
C905 H879 0.950 . S
C905 C904 1.414 . S
C905 C906 1.374 . S
C906 H880 0.950 . S
C906 C902 1.385 . S
C906 C905 1.374 . S
C907 C904 1.499 . S
C907 C908 1.373 . S
C907 C909 1.389 . S
C908 H881 0.950 . S
C908 C894 1.377 . S
C908 C907 1.373 . S
C909 C893 1.377 . S
C909 C907 1.389 . S
C909 C910 1.524 . S
C910 C909 1.524 . S
C910 C911 1.397 . S
C910 C915 1.363 . S
C911 H882 0.950 . S
C911 C910 1.397 . S
C911 C912 1.334 . S
C912 H883 0.950 . S
C912 C911 1.334 . S
C912 C913 1.287 . S
C913 C912 1.287 . S
C913 C914 1.524 . S
C913 H916 0.999 . S
C914 H884 0.950 . S
C914 C913 1.524 . S
C914 C915 1.415 . S
C915 H885 0.950 . S
C915 C910 1.363 . S
C915 C914 1.415 . S
H916 C913 0.999 . S
H917 C898 0.913 . S
H918 C936 0.951 . S
H919 C938 0.951 . S
H920 C940 0.950 . S
H921 C941 0.950 . S
H922 C943 0.950 . S
H923 C946 0.950 . S
H924 C947 0.950 . S
H925 C949 0.950 . S
H926 C950 0.950 . S
H927 C951 0.951 . S
H928 C953 0.951 . S
H929 C955 0.950 . S
H930 C956 0.950 . S
H931 C958 0.950 . S
H932 C961 0.950 . S
H933 C962 0.950 . S
H934 C964 0.950 . S
H935 C965 0.950 . S
C936 H918 0.951 . S
C936 C937 1.366 . S
C936 C938 1.388 . S
C937 C936 1.366 . S
C937 C941 1.385 . S
C938 H919 0.951 . S
C938 C936 1.388 . S
C938 C939 1.366 . S
C939 C938 1.366 . S
C939 C940 1.414 . S
C939 C942 1.499 . S
C940 H920 0.950 . S
C940 C939 1.414 . S
C940 C941 1.374 . S
C941 H921 0.950 . S
C941 C937 1.385 . S
C941 C940 1.374 . S
C942 C939 1.499 . S
C942 C943 1.373 1_455 S
C942 C944 1.389 . S
C943 H922 0.950 . S
C943 C942 1.373 1_655 S
C943 C959 1.377 . S
C944 C942 1.389 . S
C944 C945 1.524 . S
C944 C958 1.377 . S
C945 C944 1.524 . S
C945 C946 1.397 . S
C945 C950 1.363 . S
C946 H923 0.950 . S
C946 C945 1.397 . S
C946 C947 1.334 . S
C947 H924 0.950 . S
C947 C946 1.334 . S
C947 C948 1.287 . S
C948 C947 1.287 . S
C948 C949 1.524 . S
C948 H967 0.913 . S
C949 H925 0.950 . S
C949 C948 1.524 . S
C949 C950 1.415 . S
C950 H926 0.950 . S
C950 C945 1.363 . S
C950 C949 1.415 . S
C951 H927 0.951 . S
C951 C952 1.366 . S
C951 C953 1.388 . S
C952 C951 1.366 . S
C952 C956 1.385 . S
C953 H928 0.951 . S
C953 C951 1.388 . S
C953 C954 1.366 . S
C954 C953 1.366 . S
C954 C955 1.414 . S
C954 C957 1.499 . S
C955 H929 0.950 . S
C955 C954 1.414 . S
C955 C956 1.374 . S
C956 H930 0.950 . S
C956 C952 1.385 . S
C956 C955 1.374 . S
C957 C954 1.499 . S
C957 C958 1.373 1_655 S
C957 C959 1.389 . S
C958 H931 0.950 . S
C958 C944 1.377 . S
C958 C957 1.373 1_455 S
C959 C943 1.377 . S
C959 C957 1.389 . S
C959 C960 1.524 . S
C960 C959 1.524 . S
C960 C961 1.397 . S
C960 C965 1.363 . S
C961 H932 0.950 . S
C961 C960 1.397 . S
C961 C962 1.334 . S
C962 H933 0.950 . S
C962 C961 1.334 . S
C962 C963 1.287 . S
C963 C962 1.287 . S
C963 C964 1.524 . S
C963 H966 0.999 . S
C964 H934 0.950 . S
C964 C963 1.524 . S
C964 C965 1.415 . S
C965 H935 0.950 . S
C965 C960 1.363 . S
C965 C964 1.415 . S
H966 C963 0.999 . S
H967 C948 0.913 . S
H968 C986 0.951 . S
H969 C988 0.951 . S
H970 C990 0.972 . S
H971 C991 0.950 . S
H972 C993 0.950 . S
H973 C996 0.950 . S
H974 C997 0.950 . S
H975 C999 0.950 . S
H976 C1000 0.950 . S
H977 C1001 0.951 . S
H978 C1003 0.951 . S
H979 C1005 0.972 . S
H980 C1006 0.950 . S
H981 C1008 0.950 . S
H982 C1011 0.950 . S
H983 C1012 0.950 . S
H984 C1014 0.950 . S
H985 C1015 0.950 . S
C986 H968 0.951 . S
C986 C987 1.366 . S
C986 C988 1.388 . S
C987 C986 1.366 . S
C987 C991 1.385 . S
C988 H969 0.951 . S
C988 C986 1.388 . S
C988 C989 1.366 . S
C989 C988 1.366 . S
C989 C990 1.414 . S
C989 C992 1.499 . S
C990 H970 0.972 . S
C990 C989 1.414 . S
C990 C991 1.374 . S
C991 H971 0.950 . S
C991 C987 1.385 . S
C991 C990 1.374 . S
C992 C989 1.499 . S
C992 C993 1.373 1_545 S
C992 C994 1.389 . S
C993 H972 0.950 . S
C993 C992 1.373 1_565 S
C993 C1009 1.377 . S
C994 C992 1.389 . S
C994 C995 1.524 . S
C994 C1008 1.377 . S
C995 C994 1.524 . S
C995 C996 1.397 . S
C995 C1000 1.363 . S
C996 H973 0.950 . S
C996 C995 1.397 . S
C996 C997 1.334 . S
C997 H974 0.950 . S
C997 C996 1.334 . S
C997 C998 1.287 . S
C998 C997 1.287 . S
C998 C999 1.524 . S
C998 H1017 0.913 . S
C999 H975 0.950 . S
C999 C998 1.524 . S
C999 C1000 1.415 . S
C1000 H976 0.950 . S
C1000 C995 1.363 . S
C1000 C999 1.415 . S
C1001 H977 0.951 . S
C1001 C1002 1.366 . S
C1001 C1003 1.388 . S
C1002 C1001 1.366 . S
C1002 C1006 1.385 . S
C1003 H978 0.951 . S
C1003 C1001 1.388 . S
C1003 C1004 1.366 . S
C1004 C1003 1.366 . S
C1004 C1005 1.414 . S
C1004 C1007 1.499 . S
C1005 H979 0.972 . S
C1005 C1004 1.414 . S
C1005 C1006 1.374 . S
C1006 H980 0.950 . S
C1006 C1002 1.385 . S
C1006 C1005 1.374 . S
C1007 C1004 1.499 . S
C1007 C1008 1.373 1_565 S
C1007 C1009 1.389 . S
C1008 H981 0.950 . S
C1008 C994 1.377 . S
C1008 C1007 1.373 1_545 S
C1009 C993 1.377 . S
C1009 C1007 1.389 . S
C1009 C1010 1.524 . S
C1010 C1009 1.524 . S
C1010 C1011 1.397 . S
C1010 C1015 1.363 . S
C1011 H982 0.950 . S
C1011 C1010 1.397 . S
C1011 C1012 1.334 . S
C1012 H983 0.950 . S
C1012 C1011 1.334 . S
C1012 C1013 1.287 . S
C1013 C1012 1.287 . S
C1013 C1014 1.524 . S
C1013 H1016 0.999 . S
C1014 H984 0.950 . S
C1014 C1013 1.524 . S
C1014 C1015 1.415 . S
C1015 H985 0.950 . S
C1015 C1010 1.363 . S
C1015 C1014 1.415 . S
H1016 C1013 0.999 . S
H1017 C998 0.913 . S
H1018 C1036 0.951 . S
H1019 C1038 0.951 . S
H1020 C1040 0.950 . S
H1021 C1041 0.950 . S
H1022 C1043 0.950 . S
H1023 C1046 0.950 . S
H1024 C1047 0.950 . S
H1025 C1049 0.950 . S
H1026 C1050 0.950 . S
H1027 C1051 0.951 . S
H1028 C1053 0.951 . S
H1029 C1055 0.950 . S
H1030 C1056 0.950 . S
H1031 C1058 0.950 . S
H1032 C1061 0.950 . S
H1033 C1062 0.950 . S
H1034 C1064 0.950 . S
H1035 C1065 0.950 . S
C1036 H1018 0.951 . S
C1036 C1037 1.366 . S
C1036 C1038 1.388 . S
C1037 C1036 1.366 . S
C1037 C1041 1.385 . S
C1038 H1019 0.951 . S
C1038 C1036 1.388 . S
C1038 C1039 1.366 . S
C1039 C1038 1.366 . S
C1039 C1040 1.414 . S
C1039 C1042 1.499 . S
C1040 H1020 0.950 . S
C1040 C1039 1.414 . S
C1040 C1041 1.374 . S
C1041 H1021 0.950 . S
C1041 C1037 1.385 . S
C1041 C1040 1.374 . S
C1042 C1039 1.499 . S
C1042 C1043 1.373 . S
C1042 C1044 1.389 . S
C1043 H1022 0.950 . S
C1043 C1042 1.373 . S
C1043 C1059 1.377 . S
C1044 C1042 1.389 . S
C1044 C1045 1.524 . S
C1044 C1058 1.377 . S
C1045 C1044 1.524 . S
C1045 C1046 1.397 . S
C1045 C1050 1.363 . S
C1046 H1023 0.950 . S
C1046 C1045 1.397 . S
C1046 C1047 1.334 . S
C1047 H1024 0.950 . S
C1047 C1046 1.334 . S
C1047 C1048 1.287 . S
C1048 C1047 1.287 . S
C1048 C1049 1.524 . S
C1048 H1067 0.913 . S
C1049 H1025 0.950 . S
C1049 C1048 1.524 . S
C1049 C1050 1.415 . S
C1050 H1026 0.950 . S
C1050 C1045 1.363 . S
C1050 C1049 1.415 . S
C1051 H1027 0.951 . S
C1051 C1052 1.366 . S
C1051 C1053 1.388 . S
C1052 C1051 1.366 . S
C1052 C1056 1.385 . S
C1053 H1028 0.951 . S
C1053 C1051 1.388 . S
C1053 C1054 1.366 . S
C1054 C1053 1.366 . S
C1054 C1055 1.414 . S
C1054 C1057 1.499 . S
C1055 H1029 0.950 . S
C1055 C1054 1.414 . S
C1055 C1056 1.374 . S
C1056 H1030 0.950 . S
C1056 C1052 1.385 . S
C1056 C1055 1.374 . S
C1057 C1054 1.499 . S
C1057 C1058 1.373 . S
C1057 C1059 1.389 . S
C1058 H1031 0.950 . S
C1058 C1044 1.377 . S
C1058 C1057 1.373 . S
C1059 C1043 1.377 . S
C1059 C1057 1.389 . S
C1059 C1060 1.524 . S
C1060 C1059 1.524 . S
C1060 C1061 1.397 . S
C1060 C1065 1.363 . S
C1061 H1032 0.950 . S
C1061 C1060 1.397 . S
C1061 C1062 1.334 . S
C1062 H1033 0.950 . S
C1062 C1061 1.334 . S
C1062 C1063 1.287 . S
C1063 C1062 1.287 . S
C1063 C1064 1.524 . S
C1063 H1066 0.999 . S
C1064 H1034 0.950 . S
C1064 C1063 1.524 . S
C1064 C1065 1.415 . S
C1065 H1035 0.950 . S
C1065 C1060 1.363 . S
C1065 C1064 1.415 . S
H1066 C1063 0.999 . S
H1067 C1048 0.913 . S
H1068 C1086 0.951 . S
H1069 C1088 0.951 . S
H1070 C1090 0.950 . S
H1071 C1091 0.950 . S
H1072 C1093 0.950 . S
H1073 C1096 0.950 . S
H1074 C1097 0.950 . S
H1075 C1099 0.950 . S
H1076 C1100 0.950 . S
H1077 C1101 0.951 . S
H1078 C1103 0.951 . S
H1079 C1105 0.950 . S
H1080 C1106 0.950 . S
H1081 C1108 0.950 . S
H1082 C1111 0.950 . S
H1083 C1112 0.950 . S
H1084 C1114 0.950 . S
H1085 C1115 0.950 . S
C1086 H1068 0.951 . S
C1086 C1087 1.366 . S
C1086 C1088 1.388 . S
C1087 C1086 1.366 . S
C1087 C1091 1.385 . S
C1088 H1069 0.951 . S
C1088 C1086 1.388 . S
C1088 C1089 1.366 . S
C1089 C1088 1.366 . S
C1089 C1090 1.414 . S
C1089 C1092 1.499 . S
C1090 H1070 0.950 . S
C1090 C1089 1.414 . S
C1090 C1091 1.374 . S
C1091 H1071 0.950 . S
C1091 C1087 1.385 . S
C1091 C1090 1.374 . S
C1092 C1089 1.499 . S
C1092 C1093 1.373 . S
C1092 C1094 1.389 . S
C1093 H1072 0.950 . S
C1093 C1092 1.373 . S
C1093 C1109 1.377 . S
C1094 C1092 1.389 . S
C1094 C1095 1.524 . S
C1094 C1108 1.377 . S
C1095 C1094 1.524 . S
C1095 C1096 1.397 . S
C1095 C1100 1.363 . S
C1096 H1073 0.950 . S
C1096 C1095 1.397 . S
C1096 C1097 1.334 . S
C1097 H1074 0.950 . S
C1097 C1096 1.334 . S
C1097 C1098 1.287 . S
C1098 C1097 1.287 . S
C1098 C1099 1.524 . S
C1098 H1117 0.913 . S
C1099 H1075 0.950 . S
C1099 C1098 1.524 . S
C1099 C1100 1.415 . S
C1100 H1076 0.950 . S
C1100 C1095 1.363 . S
C1100 C1099 1.415 . S
C1101 H1077 0.951 . S
C1101 C1102 1.366 . S
C1101 C1103 1.388 . S
C1102 C1101 1.366 . S
C1102 C1106 1.385 . S
C1103 H1078 0.951 . S
C1103 C1101 1.388 . S
C1103 C1104 1.366 . S
C1104 C1103 1.366 . S
C1104 C1105 1.414 . S
C1104 C1107 1.499 . S
C1105 H1079 0.950 . S
C1105 C1104 1.414 . S
C1105 C1106 1.374 . S
C1106 H1080 0.950 . S
C1106 C1102 1.385 . S
C1106 C1105 1.374 . S
C1107 C1104 1.499 . S
C1107 C1108 1.373 . S
C1107 C1109 1.389 . S
C1108 H1081 0.950 . S
C1108 C1094 1.377 . S
C1108 C1107 1.373 . S
C1109 C1093 1.377 . S
C1109 C1107 1.389 . S
C1109 C1110 1.524 . S
C1110 C1109 1.524 . S
C1110 C1111 1.397 . S
C1110 C1115 1.363 . S
C1111 H1082 0.950 . S
C1111 C1110 1.397 . S
C1111 C1112 1.334 . S
C1112 H1083 0.950 . S
C1112 C1111 1.334 . S
C1112 C1113 1.287 . S
C1113 C1112 1.287 . S
C1113 C1114 1.524 . S
C1113 H1116 0.999 . S
C1114 H1084 0.950 . S
C1114 C1113 1.524 . S
C1114 C1115 1.415 . S
C1115 H1085 0.950 . S
C1115 C1110 1.363 . S
C1115 C1114 1.415 . S
H1116 C1113 0.999 . S
H1117 C1098 0.913 . S
H1118 C1136 0.951 . S
H1119 C1138 0.951 . S
H1120 C1140 0.950 . S
H1121 C1141 0.950 . S
H1122 C1143 0.950 . S
H1123 C1146 0.950 . S
H1124 C1147 0.950 . S
H1125 C1149 0.950 . S
H1126 C1150 0.950 . S
H1127 C1151 0.951 . S
H1128 C1153 0.951 . S
H1129 C1155 0.950 . S
H1130 C1156 0.950 . S
H1131 C1158 0.950 . S
H1132 C1161 0.950 . S
H1133 C1162 0.950 . S
H1134 C1164 0.950 . S
H1135 C1165 0.950 . S
C1136 H1118 0.951 . S
C1136 C1137 1.366 . S
C1136 C1138 1.388 . S
C1137 C1136 1.366 . S
C1137 C1141 1.385 . S
C1138 H1119 0.951 . S
C1138 C1136 1.388 . S
C1138 C1139 1.366 . S
C1139 C1138 1.366 . S
C1139 C1140 1.414 . S
C1139 C1142 1.499 . S
C1140 H1120 0.950 . S
C1140 C1139 1.414 . S
C1140 C1141 1.374 . S
C1141 H1121 0.950 . S
C1141 C1137 1.385 . S
C1141 C1140 1.374 . S
C1142 C1139 1.499 . S
C1142 C1143 1.373 . S
C1142 C1144 1.389 . S
C1143 H1122 0.950 . S
C1143 C1142 1.373 . S
C1143 C1159 1.377 . S
C1144 C1142 1.389 . S
C1144 C1145 1.524 . S
C1144 C1158 1.377 . S
C1145 C1144 1.524 . S
C1145 C1146 1.397 . S
C1145 C1150 1.363 . S
C1146 H1123 0.950 . S
C1146 C1145 1.397 . S
C1146 C1147 1.334 . S
C1147 H1124 0.950 . S
C1147 C1146 1.334 . S
C1147 C1148 1.287 . S
C1148 C1147 1.287 . S
C1148 C1149 1.524 . S
C1148 H1167 0.913 . S
C1149 H1125 0.950 . S
C1149 C1148 1.524 . S
C1149 C1150 1.415 . S
C1150 H1126 0.950 . S
C1150 C1145 1.363 . S
C1150 C1149 1.415 . S
C1151 H1127 0.951 . S
C1151 C1152 1.366 . S
C1151 C1153 1.388 . S
C1152 C1151 1.366 . S
C1152 C1156 1.385 . S
C1153 H1128 0.951 . S
C1153 C1151 1.388 . S
C1153 C1154 1.366 . S
C1154 C1153 1.366 . S
C1154 C1155 1.414 . S
C1154 C1157 1.499 . S
C1155 H1129 0.950 . S
C1155 C1154 1.414 . S
C1155 C1156 1.374 . S
C1156 H1130 0.950 . S
C1156 C1152 1.385 . S
C1156 C1155 1.374 . S
C1157 C1154 1.499 . S
C1157 C1158 1.373 . S
C1157 C1159 1.389 . S
C1158 H1131 0.950 . S
C1158 C1144 1.377 . S
C1158 C1157 1.373 . S
C1159 C1143 1.377 . S
C1159 C1157 1.389 . S
C1159 C1160 1.524 . S
C1160 C1159 1.524 . S
C1160 C1161 1.397 . S
C1160 C1165 1.363 . S
C1161 H1132 0.950 . S
C1161 C1160 1.397 . S
C1161 C1162 1.334 . S
C1162 H1133 0.950 . S
C1162 C1161 1.334 . S
C1162 C1163 1.287 . S
C1163 C1162 1.287 . S
C1163 C1164 1.524 . S
C1163 H1166 0.999 . S
C1164 H1134 0.950 . S
C1164 C1163 1.524 . S
C1164 C1165 1.415 . S
C1165 H1135 0.950 . S
C1165 C1160 1.363 . S
C1165 C1164 1.415 . S
H1166 C1163 0.999 . S
H1167 C1148 0.913 . S
H1168 C1186 0.951 . S
H1169 C1188 0.951 . S
H1170 C1190 0.950 . S
H1171 C1191 0.950 . S
H1172 C1193 0.950 . S
H1173 C1196 0.950 . S
H1174 C1197 0.950 . S
H1175 C1199 0.950 . S
H1176 C1200 0.950 . S
H1177 C1201 0.951 . S
H1178 C1203 0.951 . S
H1179 C1205 0.950 . S
H1180 C1206 0.950 . S
H1181 C1208 0.950 . S
H1182 C1211 0.950 . S
H1183 C1212 0.950 . S
H1184 C1214 0.950 . S
H1185 C1215 0.950 . S
C1186 H1168 0.951 . S
C1186 C1187 1.366 . S
C1186 C1188 1.388 . S
C1187 C1186 1.366 . S
C1187 C1191 1.385 . S
C1188 H1169 0.951 . S
C1188 C1186 1.388 . S
C1188 C1189 1.366 . S
C1189 C1188 1.366 . S
C1189 C1190 1.414 . S
C1189 C1192 1.499 . S
C1190 H1170 0.950 . S
C1190 C1189 1.414 . S
C1190 C1191 1.374 . S
C1191 H1171 0.950 . S
C1191 C1187 1.385 . S
C1191 C1190 1.374 . S
C1192 C1189 1.499 . S
C1192 C1193 1.373 . S
C1192 C1194 1.389 . S
C1193 H1172 0.950 . S
C1193 C1192 1.373 . S
C1193 C1209 1.377 . S
C1194 C1192 1.389 . S
C1194 C1195 1.524 . S
C1194 C1208 1.377 . S
C1195 C1194 1.524 . S
C1195 C1196 1.397 . S
C1195 C1200 1.363 . S
C1196 H1173 0.950 . S
C1196 C1195 1.397 . S
C1196 C1197 1.334 . S
C1197 H1174 0.950 . S
C1197 C1196 1.334 . S
C1197 C1198 1.287 . S
C1198 C1197 1.287 . S
C1198 C1199 1.524 . S
C1198 H1217 0.913 . S
C1199 H1175 0.950 . S
C1199 C1198 1.524 . S
C1199 C1200 1.415 . S
C1200 H1176 0.950 . S
C1200 C1195 1.363 . S
C1200 C1199 1.415 . S
C1201 H1177 0.951 . S
C1201 C1202 1.366 . S
C1201 C1203 1.388 . S
C1202 C1201 1.366 . S
C1202 C1206 1.385 . S
C1203 H1178 0.951 . S
C1203 C1201 1.388 . S
C1203 C1204 1.366 . S
C1204 C1203 1.366 . S
C1204 C1205 1.414 . S
C1204 C1207 1.499 . S
C1205 H1179 0.950 . S
C1205 C1204 1.414 . S
C1205 C1206 1.374 . S
C1206 H1180 0.950 . S
C1206 C1202 1.385 . S
C1206 C1205 1.374 . S
C1207 C1204 1.499 . S
C1207 C1208 1.373 . S
C1207 C1209 1.389 . S
C1208 H1181 0.950 . S
C1208 C1194 1.377 . S
C1208 C1207 1.373 . S
C1209 C1193 1.377 . S
C1209 C1207 1.389 . S
C1209 C1210 1.524 . S
C1210 C1209 1.524 . S
C1210 C1211 1.397 . S
C1210 C1215 1.363 . S
C1211 H1182 0.950 . S
C1211 C1210 1.397 . S
C1211 C1212 1.334 . S
C1212 H1183 0.950 . S
C1212 C1211 1.334 . S
C1212 C1213 1.287 . S
C1213 C1212 1.287 . S
C1213 C1214 1.524 . S
C1213 H1216 0.999 . S
C1214 H1184 0.950 . S
C1214 C1213 1.524 . S
C1214 C1215 1.415 . S
C1215 H1185 0.950 . S
C1215 C1210 1.363 . S
C1215 C1214 1.415 . S
H1216 C1213 0.999 . S
H1217 C1198 0.913 . S
H1218 C1236 0.951 . S
H1219 C1238 0.951 . S
H1220 C1240 0.950 . S
H1221 C1241 0.950 . S
H1222 C1243 0.950 . S
H1223 C1246 0.950 . S
H1224 C1247 0.950 . S
H1225 C1249 0.950 . S
H1226 C1250 0.950 . S
H1227 C1251 0.951 . S
H1228 C1253 0.951 . S
H1229 C1255 0.950 . S
H1230 C1256 0.950 . S
H1231 C1258 0.950 . S
H1232 C1261 0.950 . S
H1233 C1262 0.950 . S
H1234 C1264 0.950 . S
H1235 C1265 0.950 . S
C1236 H1218 0.951 . S
C1236 C1237 1.366 . S
C1236 C1238 1.388 . S
C1237 C1236 1.366 . S
C1237 C1241 1.385 . S
C1238 H1219 0.951 . S
C1238 C1236 1.388 . S
C1238 C1239 1.366 . S
C1239 C1238 1.366 . S
C1239 C1240 1.414 . S
C1239 C1242 1.499 . S
C1240 H1220 0.950 . S
C1240 C1239 1.414 . S
C1240 C1241 1.374 . S
C1241 H1221 0.950 . S
C1241 C1237 1.385 . S
C1241 C1240 1.374 . S
C1242 C1239 1.499 . S
C1242 C1243 1.373 . S
C1242 C1244 1.389 . S
C1243 H1222 0.950 . S
C1243 C1242 1.373 . S
C1243 C1259 1.377 . S
C1244 C1242 1.389 . S
C1244 C1245 1.524 . S
C1244 C1258 1.377 . S
C1245 C1244 1.524 . S
C1245 C1246 1.397 . S
C1245 C1250 1.363 . S
C1246 H1223 0.950 . S
C1246 C1245 1.397 . S
C1246 C1247 1.334 . S
C1247 H1224 0.950 . S
C1247 C1246 1.334 . S
C1247 C1248 1.287 . S
C1248 C1247 1.287 . S
C1248 C1249 1.524 . S
C1248 H1267 0.913 . S
C1249 H1225 0.950 . S
C1249 C1248 1.524 . S
C1249 C1250 1.415 . S
C1250 H1226 0.950 . S
C1250 C1245 1.363 . S
C1250 C1249 1.415 . S
C1251 H1227 0.951 . S
C1251 C1252 1.366 . S
C1251 C1253 1.388 . S
C1252 C1251 1.366 . S
C1252 C1256 1.385 . S
C1253 H1228 0.951 . S
C1253 C1251 1.388 . S
C1253 C1254 1.366 . S
C1254 C1253 1.366 . S
C1254 C1255 1.414 . S
C1254 C1257 1.499 . S
C1255 H1229 0.950 . S
C1255 C1254 1.414 . S
C1255 C1256 1.374 . S
C1256 H1230 0.950 . S
C1256 C1252 1.385 . S
C1256 C1255 1.374 . S
C1257 C1254 1.499 . S
C1257 C1258 1.373 . S
C1257 C1259 1.389 . S
C1258 H1231 0.950 . S
C1258 C1244 1.377 . S
C1258 C1257 1.373 . S
C1259 C1243 1.377 . S
C1259 C1257 1.389 . S
C1259 C1260 1.524 . S
C1260 C1259 1.524 . S
C1260 C1261 1.397 . S
C1260 C1265 1.363 . S
C1261 H1232 0.950 . S
C1261 C1260 1.397 . S
C1261 C1262 1.334 . S
C1262 H1233 0.950 . S
C1262 C1261 1.334 . S
C1262 C1263 1.287 . S
C1263 C1262 1.287 . S
C1263 C1264 1.524 . S
C1263 H1266 0.999 . S
C1264 H1234 0.950 . S
C1264 C1263 1.524 . S
C1264 C1265 1.415 . S
C1265 H1235 0.950 . S
C1265 C1260 1.363 . S
C1265 C1264 1.415 . S
H1266 C1263 0.999 . S
H1267 C1248 0.913 . S
H1268 C1286 0.951 . S
H1269 C1288 0.951 . S
H1270 C1290 0.950 . S
H1271 C1291 0.950 . S
H1272 C1293 0.950 . S
H1273 C1296 0.950 . S
H1274 C1297 0.950 . S
H1275 C1299 0.950 . S
H1276 C1300 0.950 . S
H1277 C1301 0.951 . S
H1278 C1303 0.951 . S
H1279 C1305 0.950 . S
H1280 C1306 0.950 . S
H1281 C1308 0.950 . S
H1282 C1311 0.950 . S
H1283 C1312 0.950 . S
H1284 C1314 0.950 . S
H1285 C1315 0.950 . S
C1286 H1268 0.951 . S
C1286 C1287 1.366 . S
C1286 C1288 1.388 . S
C1287 C1286 1.366 . S
C1287 C1291 1.385 . S
C1288 H1269 0.951 . S
C1288 C1286 1.388 . S
C1288 C1289 1.366 . S
C1289 C1288 1.366 . S
C1289 C1290 1.414 . S
C1289 C1292 1.499 . S
C1290 H1270 0.950 . S
C1290 C1289 1.414 . S
C1290 C1291 1.374 . S
C1291 H1271 0.950 . S
C1291 C1287 1.385 . S
C1291 C1290 1.374 . S
C1292 C1289 1.499 . S
C1292 C1293 1.373 . S
C1292 C1294 1.389 . S
C1293 H1272 0.950 . S
C1293 C1292 1.373 . S
C1293 C1309 1.377 . S
C1294 C1292 1.389 . S
C1294 C1295 1.524 . S
C1294 C1308 1.377 . S
C1295 C1294 1.524 . S
C1295 C1296 1.397 . S
C1295 C1300 1.363 . S
C1296 H1273 0.950 . S
C1296 C1295 1.397 . S
C1296 C1297 1.334 . S
C1297 H1274 0.950 . S
C1297 C1296 1.334 . S
C1297 C1298 1.287 . S
C1298 C1297 1.287 . S
C1298 C1299 1.524 . S
C1298 H1317 0.913 . S
C1299 H1275 0.950 . S
C1299 C1298 1.524 . S
C1299 C1300 1.415 . S
C1300 H1276 0.950 . S
C1300 C1295 1.363 . S
C1300 C1299 1.415 . S
C1301 H1277 0.951 . S
C1301 C1302 1.366 . S
C1301 C1303 1.388 . S
C1302 C1301 1.366 . S
C1302 C1306 1.385 . S
C1303 H1278 0.951 . S
C1303 C1301 1.388 . S
C1303 C1304 1.366 . S
C1304 C1303 1.366 . S
C1304 C1305 1.414 . S
C1304 C1307 1.499 . S
C1305 H1279 0.950 . S
C1305 C1304 1.414 . S
C1305 C1306 1.374 . S
C1306 H1280 0.950 . S
C1306 C1302 1.385 . S
C1306 C1305 1.374 . S
C1307 C1304 1.499 . S
C1307 C1308 1.373 . S
C1307 C1309 1.389 . S
C1308 H1281 0.950 . S
C1308 C1294 1.377 . S
C1308 C1307 1.373 . S
C1309 C1293 1.377 . S
C1309 C1307 1.389 . S
C1309 C1310 1.524 . S
C1310 C1309 1.524 . S
C1310 C1311 1.397 . S
C1310 C1315 1.363 . S
C1311 H1282 0.950 . S
C1311 C1310 1.397 . S
C1311 C1312 1.334 . S
C1312 H1283 0.950 . S
C1312 C1311 1.334 . S
C1312 C1313 1.287 . S
C1313 C1312 1.287 . S
C1313 C1314 1.524 . S
C1313 H1316 0.999 . S
C1314 H1284 0.950 . S
C1314 C1313 1.524 . S
C1314 C1315 1.415 . S
C1315 H1285 0.950 . S
C1315 C1310 1.363 . S
C1315 C1314 1.415 . S
H1316 C1313 0.999 . S
H1317 C1298 0.913 . S
H1318 C1336 0.951 . S
H1319 C1338 0.951 . S
H1320 C1340 0.950 . S
H1321 C1341 0.950 . S
H1322 C1343 0.950 . S
H1323 C1346 0.950 . S
H1324 C1347 0.950 . S
H1325 C1349 0.950 . S
H1326 C1350 0.950 . S
H1327 C1351 0.951 . S
H1328 C1353 0.951 . S
H1329 C1355 0.950 . S
H1330 C1356 0.950 . S
H1331 C1358 0.950 . S
H1332 C1361 0.950 . S
H1333 C1362 0.950 . S
H1334 C1364 0.950 . S
H1335 C1365 0.950 . S
C1336 H1318 0.951 . S
C1336 C1337 1.366 . S
C1336 C1338 1.388 . S
C1337 C1336 1.366 . S
C1337 C1341 1.385 . S
C1338 H1319 0.951 . S
C1338 C1336 1.388 . S
C1338 C1339 1.366 . S
C1339 C1338 1.366 . S
C1339 C1340 1.414 . S
C1339 C1342 1.499 . S
C1340 H1320 0.950 . S
C1340 C1339 1.414 . S
C1340 C1341 1.374 . S
C1341 H1321 0.950 . S
C1341 C1337 1.385 . S
C1341 C1340 1.374 . S
C1342 C1339 1.499 . S
C1342 C1343 1.373 . S
C1342 C1344 1.389 . S
C1343 H1322 0.950 . S
C1343 C1342 1.373 . S
C1343 C1359 1.377 . S
C1344 C1342 1.389 . S
C1344 C1345 1.524 . S
C1344 C1358 1.377 . S
C1345 C1344 1.524 . S
C1345 C1346 1.397 . S
C1345 C1350 1.363 . S
C1346 H1323 0.950 . S
C1346 C1345 1.397 . S
C1346 C1347 1.334 . S
C1347 H1324 0.950 . S
C1347 C1346 1.334 . S
C1347 C1348 1.287 . S
C1348 C1347 1.287 . S
C1348 C1349 1.524 . S
C1348 H1367 0.913 . S
C1349 H1325 0.950 . S
C1349 C1348 1.524 . S
C1349 C1350 1.415 . S
C1350 H1326 0.950 . S
C1350 C1345 1.363 . S
C1350 C1349 1.415 . S
C1351 H1327 0.951 . S
C1351 C1352 1.366 . S
C1351 C1353 1.388 . S
C1352 C1351 1.366 . S
C1352 C1356 1.385 . S
C1353 H1328 0.951 . S
C1353 C1351 1.388 . S
C1353 C1354 1.366 . S
C1354 C1353 1.366 . S
C1354 C1355 1.414 . S
C1354 C1357 1.499 . S
C1355 H1329 0.950 . S
C1355 C1354 1.414 . S
C1355 C1356 1.374 . S
C1356 H1330 0.950 . S
C1356 C1352 1.385 . S
C1356 C1355 1.374 . S
C1357 C1354 1.499 . S
C1357 C1358 1.373 . S
C1357 C1359 1.389 . S
C1358 H1331 0.950 . S
C1358 C1344 1.377 . S
C1358 C1357 1.373 . S
C1359 C1343 1.377 . S
C1359 C1357 1.389 . S
C1359 C1360 1.524 . S
C1360 C1359 1.524 . S
C1360 C1361 1.397 . S
C1360 C1365 1.363 . S
C1361 H1332 0.950 . S
C1361 C1360 1.397 . S
C1361 C1362 1.334 . S
C1362 H1333 0.950 . S
C1362 C1361 1.334 . S
C1362 C1363 1.287 . S
C1363 C1362 1.287 . S
C1363 C1364 1.524 . S
C1363 H1366 0.999 . S
C1364 H1334 0.950 . S
C1364 C1363 1.524 . S
C1364 C1365 1.415 . S
C1365 H1335 0.950 . S
C1365 C1360 1.363 . S
C1365 C1364 1.415 . S
H1366 C1363 0.999 . S
H1367 C1348 0.913 . S
C187 C3 1.543 . S
C202 C87 1.546 . S
C237 C17 1.546 . S
C252 C101 1.543 . S
C287 C31 1.431 . S
C302 C115 1.430 . S
C337 C129 1.546 . S
C352 C45 1.543 . S
C387 C59 1.546 . S
C402 C143 1.543 . S
C437 C157 1.430 . S
C452 C73 1.430 . S
C487 C7 0.887 . S
C502 C133 0.889 . S
C537 C21 0.889 . S
C552 C147 0.888 . S
C587 C161 0.826 . S
C602 C35 0.824 . S
C637 C91 0.889 . S
C652 C49 0.888 . S
C687 C63 0.888 . S
C702 C105 0.886 . S
C737 C77 0.827 . S
C752 C119 0.825 . S
C787 C162 1.748 . S
C802 C8 1.739 . S
C837 C22 1.966 . S
C852 C92 1.966 . S
C887 C36 1.748 . S
C902 C106 1.739 . S
C937 C120 1.748 . S
C952 C50 1.740 . S
C987 C134 1.966 . S
C1002 C64 1.966 . S
C1037 C78 1.748 . S
C1052 C148 1.739 . S
C1087 C9 0.707 . S
C1102 C149 0.707 . S
C1137 C163 0.839 . S
C1152 C23 0.845 . S
C1187 C93 0.843 . S
C1202 C37 0.847 . S
C1237 C51 0.706 . S
C1252 C107 0.705 . S
C1287 C121 0.841 . S
C1302 C65 0.846 . S
C1337 C135 0.840 . S
C1352 C79 0.844 . S
