# Generated by pormake.
# Topology ukk, (4)-cn, num edge types: 1
# Building blocks:
#     Node 0, Type 0, BuildingBlock: QUQFOY_clean_sbu_3, # of connection points: 4
#     Node 1, Type 0, BuildingBlock: QUQFOY_clean_sbu_3, # of connection points: 4
#     Node 2, Type 0, BuildingBlock: QUQFOY_clean_sbu_3, # of connection points: 4
#     Node 3, Type 0, BuildingBlock: QUQFOY_clean_sbu_3, # of connection points: 4
#     Node 4, Type 0, BuildingBlock: QUQFOY_clean_sbu_3, # of connection points: 4
#     Node 5, Type 0, BuildingBlock: QUQFOY_clean_sbu_3, # of connection points: 4
#     Node 6, Type 0, BuildingBlock: QUQFOY_clean_sbu_3, # of connection points: 4
#     Node 7, Type 0, BuildingBlock: QUQFOY_clean_sbu_3, # of connection points: 4
#     Node 8, Type 0, BuildingBlock: QUQFOY_clean_sbu_3, # of connection points: 4
#     Node 9, Type 0, BuildingBlock: QUQFOY_clean_sbu_3, # of connection points: 4
#     Node 10, Type 0, BuildingBlock: QUQFOY_clean_sbu_3, # of connection points: 4
#     Node 11, Type 0, BuildingBlock: QUQFOY_clean_sbu_3, # of connection points: 4
#     Node 12, Type 0, BuildingBlock: QUQFOY_clean_sbu_3, # of connection points: 4
#     Node 13, Type 0, BuildingBlock: QUQFOY_clean_sbu_3, # of connection points: 4
#     Node 14, Type 0, BuildingBlock: QUQFOY_clean_sbu_3, # of connection points: 4
#     Node 15, Type 0, BuildingBlock: QUQFOY_clean_sbu_3, # of connection points: 4
#     Edge 16, Type (0, 0), None
#     Edge 17, Type (0, 0), None
#     Edge 18, Type (0, 0), None
#     Edge 19, Type (0, 0), None
#     Edge 20, Type (0, 0), None
#     Edge 21, Type (0, 0), None
#     Edge 22, Type (0, 0), None
#     Edge 23, Type (0, 0), None
#     Edge 24, Type (0, 0), None
#     Edge 25, Type (0, 0), None
#     Edge 26, Type (0, 0), None
#     Edge 27, Type (0, 0), None
#     Edge 28, Type (0, 0), None
#     Edge 29, Type (0, 0), None
#     Edge 30, Type (0, 0), None
#     Edge 31, Type (0, 0), None
#     Edge 32, Type (0, 0), None
#     Edge 33, Type (0, 0), None
#     Edge 34, Type (0, 0), None
#     Edge 35, Type (0, 0), None
#     Edge 36, Type (0, 0), None
#     Edge 37, Type (0, 0), None
#     Edge 38, Type (0, 0), None
#     Edge 39, Type (0, 0), None
#     Edge 40, Type (0, 0), None
#     Edge 41, Type (0, 0), None
#     Edge 42, Type (0, 0), None
#     Edge 43, Type (0, 0), None
#     Edge 44, Type (0, 0), None
#     Edge 45, Type (0, 0), None
#     Edge 46, Type (0, 0), None
#     Edge 47, Type (0, 0), None
# Relax obj value: 0.120
# Max RMSD: 0.286
# Mean RMSD: 0.286
data_MOF--net-ukk--node1-QUQFOY_clean_sbu_3--edge1-none
_symmetry_space_group_name_H-M    P1
_symmetry_Int_Tables_number       1
_symmetry_cell_setting            triclinic
loop_
_symmetry_equiv_pos_as_xyz
'x, y, z'
_cell_length_a     25.439755
_cell_length_b     25.440992
_cell_length_c     8.8928332
_cell_angle_alpha  89.986966
_cell_angle_beta   90.004429
_cell_angle_gamma 89.999166
loop_
_atom_site_label
_atom_site_type_symbol
_atom_site_fract_x
_atom_site_fract_y
_atom_site_fract_z
_atom_type_partial_charge
C0 C 0.35206 0.02128 0.37569 0.0
O1 O 0.35924 0.047 0.49578 0.0
Cd2 Cd 0.36904 0.13795 0.38581 0.0
O3 O 0.34706 0.04696 0.2555 0.0
Cd4 Cd 0.33762 0.09406 0.03017 0.0
C5 C 0.4637 0.10724 0.09735 0.0
O6 O 0.30785 0.1642 0.18718 0.0
O7 O 0.32441 0.18544 0.95574 0.0
O8 O 0.25613 0.04697 0.03418 0.0
C9 C 0.3123 0.2 0.08776 0.0
O10 O 0.44501 0.12265 0.22306 0.0
C11 C 0.25363 0.04161 0.89287 0.0
O12 O 0.43379 0.09068 -0.0079 0.0
O13 O 0.2939 0.05484 0.81635 0.0
C14 C 0.02115 0.60404 0.58898 0.0
O15 O 0.04725 0.59694 0.46951 0.0
Cd16 Cd 0.13813 0.58703 0.57871 0.0
O17 O 0.04634 0.60912 0.70997 0.0
Cd18 Cd 0.09413 0.61846 0.93399 0.0
C19 C 0.1073 0.49234 0.86676 0.0
O20 O 0.16425 0.64824 0.77691 0.0
O21 O 0.18548 0.63169 0.00836 0.0
O22 O 0.04707 0.69997 0.93002 0.0
C23 C 0.20005 0.64381 0.87633 0.0
O24 O 0.12275 0.51099 0.74104 0.0
C25 C 0.04168 0.70245 0.07133 0.0
O26 O 0.09077 0.52228 0.97196 0.0
O27 O 0.05493 0.66218 0.14786 0.0
C28 C 0.60408 0.93496 0.37519 0.0
O29 O 0.59692 0.90881 0.49459 0.0
Cd30 Cd 0.58705 0.81794 0.38549 0.0
O31 O 0.60917 0.90983 0.25413 0.0
Cd32 Cd 0.61853 0.86195 0.03032 0.0
C33 C 0.4924 0.84878 0.09742 0.0
O34 O 0.6483 0.79181 0.18739 0.0
O35 O 0.63173 0.77061 0.95594 0.0
O36 O 0.70004 0.90898 0.03414 0.0
C37 C 0.64385 0.75603 0.08795 0.0
O38 O 0.51104 0.83331 0.22315 0.0
C39 C 0.70249 0.91438 0.89283 0.0
O40 O 0.52235 0.86531 -0.00776 0.0
O41 O 0.66221 0.90114 0.81638 0.0
C42 C 0.93499 0.352 0.58899 0.0
O43 O 0.90886 0.35911 0.46955 0.0
Cd44 Cd 0.81799 0.36903 0.57867 0.0
O45 O 0.90985 0.34692 0.71004 0.0
Cd46 Cd 0.86196 0.33758 0.93388 0.0
C47 C 0.84881 0.46366 0.86681 0.0
O48 O 0.79183 0.30781 0.77681 0.0
O49 O 0.77061 0.32439 0.00822 0.0
O50 O 0.909 0.25607 0.93 0.0
C51 C 0.75604 0.31226 0.87622 0.0
O52 O 0.83337 0.44498 0.74114 0.0
C53 C 0.91441 0.25361 0.07131 0.0
O54 O 0.86535 0.43374 0.97207 0.0
O55 O 0.90116 0.29388 0.14778 0.0
C56 C 0.35202 0.43481 0.83918 0.0
O57 O 0.35906 0.40867 0.71977 0.0
Cd58 Cd 0.36901 0.31784 0.82914 0.0
O59 O 0.347 0.40968 0.96031 0.0
Cd60 Cd 0.33778 0.36175 0.18423 0.0
C61 C 0.4638 0.34873 0.11687 0.0
O62 O 0.30783 0.29161 0.02735 0.0
O63 O 0.32469 0.27036 0.25862 0.0
O64 O 0.25629 0.40882 0.18029 0.0
C65 C 0.31239 0.25581 0.12673 0.0
O66 O 0.44502 0.33329 -0.00868 0.0
C67 C 0.25385 0.4143 0.32157 0.0
O68 O 0.43395 0.36524 0.22231 0.0
O69 O 0.2941 0.401 0.39809 0.0
C70 C 0.4348 0.60405 0.12504 0.0
O71 O 0.40864 0.59699 0.24446 0.0
Cd72 Cd 0.31783 0.58705 0.135 0.0
O73 O 0.40966 0.60908 0.00392 0.0
Cd74 Cd 0.36179 0.61831 0.77993 0.0
C75 C 0.34874 0.4923 0.84723 0.0
O76 O 0.29164 0.64825 0.93676 0.0
O77 O 0.27041 0.63142 0.70549 0.0
O78 O 0.40888 0.69979 0.78385 0.0
C79 C 0.25585 0.64371 0.83737 0.0
O80 O 0.33329 0.51106 0.97279 0.0
C81 C 0.41435 0.70224 0.64257 0.0
O82 O 0.36526 0.52216 0.74182 0.0
O83 O 0.40105 0.662 0.56606 0.0
C84 C 0.60406 0.52126 0.83924 0.0
O85 O 0.59699 0.54744 0.71987 0.0
Cd86 Cd 0.58706 0.63827 0.82932 0.0
O87 O 0.60908 0.54637 0.96039 0.0
Cd88 Cd 0.61831 0.59429 0.18432 0.0
C89 C 0.49228 0.60735 0.117 0.0
O90 O 0.64828 0.66445 0.02749 0.0
O91 O 0.63142 0.68565 0.25876 0.0
O92 O 0.6998 0.54722 0.18034 0.0
C93 C 0.64374 0.70022 0.12689 0.0
O94 O 0.51104 0.62282 -0.00857 0.0
C95 C 0.70226 0.54174 0.32162 0.0
O96 O 0.52214 0.59081 0.22239 0.0
O97 O 0.66202 0.55503 0.39817 0.0
C98 C 0.52129 0.35201 0.12488 0.0
O99 O 0.54746 0.35904 0.24428 0.0
Cd100 Cd 0.63829 0.36895 0.13494 0.0
O101 O 0.5464 0.34699 0.00374 0.0
Cd102 Cd 0.59429 0.33777 0.77978 0.0
C103 C 0.60733 0.46377 0.8472 0.0
O104 O 0.66444 0.30781 0.93664 0.0
O105 O 0.68567 0.32468 0.70537 0.0
O106 O 0.54722 0.25628 0.7838 0.0
C107 C 0.70023 0.31237 0.83726 0.0
O108 O 0.62278 0.44495 0.97271 0.0
C109 C 0.54175 0.25382 0.64252 0.0
O110 O 0.5908 0.43395 0.74172 0.0
O111 O 0.55504 0.29407 0.56595 0.0
C112 C 0.85205 0.52114 0.8752 0.0
O113 O 0.85919 0.5472 -0.00529 0.0
Cd114 Cd 0.86903 0.63809 0.8855 0.0
O115 O 0.84697 0.54637 0.75427 0.0
Cd116 Cd 0.8376 0.5941 0.53014 0.0
C117 C 0.96366 0.60726 0.59725 0.0
O118 O 0.80783 0.66422 0.68721 0.0
O119 O 0.82438 0.68546 0.45577 0.0
O120 O 0.7561 0.54702 0.53418 0.0
C121 C 0.81228 0.70002 0.58778 0.0
O122 O 0.94494 0.62269 0.72289 0.0
C123 C 0.75365 0.54164 0.39287 0.0
O124 O 0.93377 0.5907 0.49195 0.0
O125 O 0.7939 0.55489 0.31631 0.0
C126 C 0.5212 0.10403 0.08887 0.0
O127 O 0.54724 0.09691 0.9693 0.0
Cd128 Cd 0.63814 0.08708 0.07863 0.0
O129 O 0.54646 0.1091 0.20973 0.0
Cd130 Cd 0.59411 0.11848 0.43404 0.0
C131 C 0.60731 -0.00755 0.36704 0.0
O132 O 0.66424 0.14826 0.27693 0.0
O133 O 0.68547 0.13171 0.50837 0.0
O134 O 0.54703 0.19999 0.42998 0.0
C135 C 0.70004 0.14382 0.37634 0.0
O136 O 0.62274 0.0112 0.24142 0.0
C137 C 0.54165 0.20244 0.5713 0.0
O138 O 0.59073 0.02231 0.47235 0.0
O139 O 0.5549 0.16219 0.64788 0.0
C140 C 0.10407 0.43485 0.87545 0.0
O141 O 0.09693 0.40886 -0.00488 0.0
Cd142 Cd 0.0871 0.31797 0.88568 0.0
O143 O 0.10913 0.40953 0.75471 0.0
Cd144 Cd 0.11852 0.36199 0.53025 0.0
C145 C -0.00752 0.34878 0.5972 0.0
O146 O 0.14829 0.29183 0.68735 0.0
O147 O 0.13173 0.27063 0.45591 0.0
O148 O 0.20003 0.40904 0.53419 0.0
C149 C 0.14384 0.25605 0.58792 0.0
O150 O 0.01122 0.33337 0.72285 0.0
C151 C 0.20248 0.41442 0.39287 0.0
O152 O 0.02235 0.36537 0.49188 0.0
O153 O 0.1622 0.40119 0.31635 0.0
C154 C 0.43491 0.85201 0.08873 0.0
O155 O 0.40893 0.85916 0.96906 0.0
Cd156 Cd 0.31803 0.86904 0.07844 0.0
O157 O 0.40958 0.84695 0.20947 0.0
Cd158 Cd 0.36198 0.83756 0.43379 0.0
C159 C 0.34884 0.96379 0.36619 0.0
O160 O 0.29184 0.80781 0.27681 0.0
O161 O 0.27063 0.82436 0.50825 0.0
O162 O 0.40906 0.75607 0.42993 0.0
C163 C 0.25605 0.81226 0.37623 0.0
O164 O 0.33336 0.94527 0.24032 0.0
C165 C 0.41445 0.75362 0.57125 0.0
O166 O 0.36531 0.93373 0.47126 0.0
O167 O 0.40121 0.79388 0.64776 0.0
C168 C 0.85202 0.93481 0.33919 0.0
O169 O 0.85906 0.90867 0.21978 0.0
Cd170 Cd 0.86901 0.81783 0.32913 0.0
O171 O 0.84699 0.90968 0.46031 0.0
Cd172 Cd 0.83778 0.86175 0.68422 0.0
C173 C 0.9638 0.84873 0.61686 0.0
O174 O 0.80783 0.79162 0.52735 0.0
O175 O 0.82469 0.77037 0.75863 0.0
O176 O 0.75628 0.90882 0.68023 0.0
C177 C 0.81239 0.75582 0.62674 0.0
O178 O 0.94501 0.83329 0.49131 0.0
C179 C 0.75386 0.91429 0.82152 0.0
O180 O 0.93395 0.86524 0.7223 0.0
O181 O 0.79411 0.901 0.89809 0.0
C182 C 0.93481 0.10405 0.62502 0.0
O183 O 0.90864 0.09699 0.74442 0.0
Cd184 Cd 0.81782 0.08705 0.63498 0.0
O185 O 0.90969 0.10908 0.50388 0.0
Cd186 Cd 0.86178 0.11832 0.27993 0.0
C187 C 0.84873 -0.0077 0.34724 0.0
O188 O 0.79164 0.14826 0.43677 0.0
O189 O 0.7704 0.13142 0.2055 0.0
O190 O 0.90887 0.1998 0.2839 0.0
C191 C 0.75585 0.14372 0.33738 0.0
O192 O 0.83329 0.01106 0.4728 0.0
C193 C 0.91433 0.20223 0.14261 0.0
O194 O 0.86526 0.02216 0.24183 0.0
O195 O 0.90104 0.162 0.06604 0.0
C196 C 0.10405 0.02126 0.33928 0.0
O197 O 0.09699 0.04745 0.21993 0.0
Cd198 Cd 0.08707 0.13828 0.32933 0.0
O199 O 0.10909 0.04634 0.46045 0.0
Cd200 Cd 0.11832 0.0943 0.68433 0.0
C201 C -0.00771 0.10736 0.61701 0.0
O202 O 0.14828 0.16446 0.52748 0.0
O203 O 0.13143 0.18567 0.75875 0.0
O204 O 0.19981 0.04722 0.68032 0.0
C205 C 0.14374 0.20024 0.62687 0.0
O206 O 0.01106 0.12283 0.49146 0.0
C207 C 0.20225 0.04175 0.82161 0.0
O208 O 0.02215 0.09081 0.72241 0.0
O209 O 0.16202 0.05504 0.89821 0.0
C210 C 0.02129 0.85201 0.62487 0.0
O211 O 0.04746 0.85904 0.74427 0.0
Cd212 Cd 0.13829 0.86894 0.63494 0.0
O213 O 0.0464 0.84699 0.50372 0.0
Cd214 Cd 0.09429 0.83777 0.27976 0.0
C215 C 0.10733 0.96376 0.34718 0.0
O216 O 0.16445 0.80781 0.43664 0.0
O217 O 0.18568 0.82468 0.20538 0.0
O218 O 0.04722 0.75627 0.28384 0.0
C219 C 0.20024 0.81237 0.33727 0.0
O220 O 0.12278 0.94493 0.47268 0.0
C221 C 0.04176 0.75383 0.14255 0.0
O222 O 0.0908 0.93395 0.24167 0.0
O223 O 0.05504 0.79406 0.06593 0.0
loop_
_geom_bond_atom_site_label_1
_geom_bond_atom_site_label_2
_geom_bond_distance
_geom_bond_site_symmetry_2
_ccdc_geom_bond_type
C0 O1 1.306 . S
C0 O3 1.160 . S
O1 C0 1.306 . S
O1 Cd2 2.228 . S
Cd2 O1 2.228 . S
Cd2 O6 2.273 . S
Cd2 O10 2.277 . S
O3 C0 1.160 . S
O3 Cd4 2.203 . S
Cd4 O3 2.203 . S
Cd4 O6 2.411 . S
Cd4 O7 2.333 . S
Cd4 O8 2.352 . S
Cd4 O12 2.277 . S
Cd4 O13 2.356 1_554 S
C5 O10 1.209 . S
C5 O12 1.226 . S
O6 Cd2 2.273 . S
O6 Cd4 2.411 . S
O6 C9 1.320 . S
O7 Cd4 2.333 . S
O7 C9 1.214 . S
O8 Cd4 2.352 . S
O8 C11 1.258 1_554 S
C9 O6 1.320 . S
C9 O7 1.214 . S
O10 Cd2 2.277 . S
O10 C5 1.209 . S
C11 O8 1.258 1_556 S
C11 O13 1.282 . S
O12 Cd4 2.277 . S
O12 C5 1.226 . S
O13 Cd4 2.356 1_556 S
O13 C11 1.282 . S
C14 O15 1.306 . S
C14 O17 1.160 . S
O15 C14 1.306 . S
O15 Cd16 2.228 . S
Cd16 O15 2.228 . S
Cd16 O20 2.273 . S
Cd16 O24 2.277 . S
O17 C14 1.160 . S
O17 Cd18 2.203 . S
Cd18 O17 2.203 . S
Cd18 O20 2.411 . S
Cd18 O21 2.333 . S
Cd18 O22 2.352 . S
Cd18 O26 2.277 . S
Cd18 O27 2.356 1_556 S
C19 O24 1.209 . S
C19 O26 1.226 . S
O20 Cd16 2.273 . S
O20 Cd18 2.411 . S
O20 C23 1.320 . S
O21 Cd18 2.333 . S
O21 C23 1.214 . S
O22 Cd18 2.352 . S
O22 C25 1.258 1_556 S
C23 O20 1.320 . S
C23 O21 1.214 . S
O24 Cd16 2.277 . S
O24 C19 1.209 . S
C25 O22 1.258 1_554 S
C25 O27 1.282 . S
O26 Cd18 2.277 . S
O26 C19 1.226 . S
O27 Cd18 2.356 1_554 S
O27 C25 1.282 . S
C28 O29 1.306 . S
C28 O31 1.160 . S
O29 C28 1.306 . S
O29 Cd30 2.228 . S
Cd30 O29 2.228 . S
Cd30 O34 2.273 . S
Cd30 O38 2.277 . S
O31 C28 1.160 . S
O31 Cd32 2.203 . S
Cd32 O31 2.203 . S
Cd32 O34 2.411 . S
Cd32 O35 2.333 . S
Cd32 O36 2.352 . S
Cd32 O40 2.277 . S
Cd32 O41 2.356 1_554 S
C33 O38 1.209 . S
C33 O40 1.226 . S
O34 Cd30 2.273 . S
O34 Cd32 2.411 . S
O34 C37 1.320 . S
O35 Cd32 2.333 . S
O35 C37 1.214 . S
O36 Cd32 2.352 . S
O36 C39 1.258 1_554 S
C37 O34 1.320 . S
C37 O35 1.214 . S
O38 Cd30 2.277 . S
O38 C33 1.209 . S
C39 O36 1.258 1_556 S
C39 O41 1.282 . S
O40 Cd32 2.277 . S
O40 C33 1.226 . S
O41 Cd32 2.356 1_556 S
O41 C39 1.282 . S
C42 O43 1.306 . S
C42 O45 1.160 . S
O43 C42 1.306 . S
O43 Cd44 2.228 . S
Cd44 O43 2.228 . S
Cd44 O48 2.273 . S
Cd44 O52 2.277 . S
O45 C42 1.160 . S
O45 Cd46 2.203 . S
Cd46 O45 2.203 . S
Cd46 O48 2.411 . S
Cd46 O49 2.333 . S
Cd46 O50 2.352 . S
Cd46 O54 2.277 . S
Cd46 O55 2.356 1_556 S
C47 O52 1.209 . S
C47 O54 1.226 . S
O48 Cd44 2.273 . S
O48 Cd46 2.411 . S
O48 C51 1.320 . S
O49 Cd46 2.333 . S
O49 C51 1.214 . S
O50 Cd46 2.352 . S
O50 C53 1.258 1_556 S
C51 O48 1.320 . S
C51 O49 1.214 . S
O52 Cd44 2.277 . S
O52 C47 1.209 . S
C53 O50 1.258 1_554 S
C53 O55 1.282 . S
O54 Cd46 2.277 . S
O54 C47 1.226 . S
O55 Cd46 2.356 1_554 S
O55 C53 1.282 . S
C56 O57 1.306 . S
C56 O59 1.160 1_556 S
O57 C56 1.306 . S
O57 Cd58 2.228 . S
Cd58 O57 2.228 . S
Cd58 O62 2.273 . S
Cd58 O66 2.277 . S
O59 C56 1.160 1_554 S
O59 Cd60 2.203 . S
Cd60 O59 2.203 . S
Cd60 O62 2.411 1_554 S
Cd60 O63 2.333 . S
Cd60 O64 2.352 . S
Cd60 O68 2.277 . S
Cd60 O69 2.356 . S
C61 O66 1.209 1_554 S
C61 O68 1.226 . S
O62 Cd58 2.273 . S
O62 Cd60 2.411 1_556 S
O62 C65 1.320 1_556 S
O63 Cd60 2.333 . S
O63 C65 1.214 . S
O64 Cd60 2.352 . S
O64 C67 1.258 . S
C65 O62 1.320 1_554 S
C65 O63 1.214 . S
O66 Cd58 2.277 . S
O66 C61 1.209 1_556 S
C67 O64 1.258 . S
C67 O69 1.282 . S
O68 Cd60 2.277 . S
O68 C61 1.226 . S
O69 Cd60 2.356 . S
O69 C67 1.282 . S
C70 O71 1.306 . S
C70 O73 1.160 1_554 S
O71 C70 1.306 . S
O71 Cd72 2.228 . S
Cd72 O71 2.228 . S
Cd72 O76 2.273 . S
Cd72 O80 2.277 . S
O73 C70 1.160 1_556 S
O73 Cd74 2.203 . S
Cd74 O73 2.203 . S
Cd74 O76 2.411 1_556 S
Cd74 O77 2.333 . S
Cd74 O78 2.352 . S
Cd74 O82 2.277 . S
Cd74 O83 2.356 . S
C75 O80 1.209 1_556 S
C75 O82 1.226 . S
O76 Cd72 2.273 . S
O76 Cd74 2.411 1_554 S
O76 C79 1.320 1_554 S
O77 Cd74 2.333 . S
O77 C79 1.214 . S
O78 Cd74 2.352 . S
O78 C81 1.258 . S
C79 O76 1.320 1_556 S
C79 O77 1.214 . S
O80 Cd72 2.277 . S
O80 C75 1.209 1_554 S
C81 O78 1.258 . S
C81 O83 1.282 . S
O82 Cd74 2.277 . S
O82 C75 1.226 . S
O83 Cd74 2.356 . S
O83 C81 1.282 . S
C84 O85 1.306 . S
C84 O87 1.160 1_556 S
O85 C84 1.306 . S
O85 Cd86 2.228 . S
Cd86 O85 2.228 . S
Cd86 O90 2.273 . S
Cd86 O94 2.277 . S
O87 C84 1.160 1_554 S
O87 Cd88 2.203 . S
Cd88 O87 2.203 . S
Cd88 O90 2.411 1_554 S
Cd88 O91 2.333 . S
Cd88 O92 2.352 . S
Cd88 O96 2.277 . S
Cd88 O97 2.356 . S
C89 O94 1.209 1_554 S
C89 O96 1.226 . S
O90 Cd86 2.273 . S
O90 Cd88 2.411 1_556 S
O90 C93 1.320 1_556 S
O91 Cd88 2.333 . S
O91 C93 1.214 . S
O92 Cd88 2.352 . S
O92 C95 1.258 . S
C93 O90 1.320 1_554 S
C93 O91 1.214 . S
O94 Cd86 2.277 . S
O94 C89 1.209 1_556 S
C95 O92 1.258 . S
C95 O97 1.282 . S
O96 Cd88 2.277 . S
O96 C89 1.226 . S
O97 Cd88 2.356 . S
O97 C95 1.282 . S
C98 O99 1.306 . S
C98 O101 1.160 1_554 S
O99 C98 1.306 . S
O99 Cd100 2.228 . S
Cd100 O99 2.228 . S
Cd100 O104 2.273 . S
Cd100 O108 2.277 . S
O101 C98 1.160 1_556 S
O101 Cd102 2.203 . S
Cd102 O101 2.203 . S
Cd102 O104 2.411 1_556 S
Cd102 O105 2.333 . S
Cd102 O106 2.352 . S
Cd102 O110 2.277 . S
Cd102 O111 2.356 . S
C103 O108 1.209 1_556 S
C103 O110 1.226 . S
O104 Cd100 2.273 . S
O104 Cd102 2.411 1_554 S
O104 C107 1.320 1_554 S
O105 Cd102 2.333 . S
O105 C107 1.214 . S
O106 Cd102 2.352 . S
O106 C109 1.258 . S
C107 O104 1.320 1_556 S
C107 O105 1.214 . S
O108 Cd100 2.277 . S
O108 C103 1.209 1_554 S
C109 O106 1.258 . S
C109 O111 1.282 . S
O110 Cd102 2.277 . S
O110 C103 1.226 . S
O111 Cd102 2.356 . S
O111 C109 1.282 . S
C112 O113 1.306 . S
C112 O115 1.160 . S
O113 C112 1.306 . S
O113 Cd114 2.228 . S
Cd114 O113 2.228 . S
Cd114 O118 2.273 . S
Cd114 O122 2.277 . S
O115 C112 1.160 . S
O115 Cd116 2.203 . S
Cd116 O115 2.203 . S
Cd116 O118 2.411 . S
Cd116 O119 2.333 . S
Cd116 O120 2.352 . S
Cd116 O124 2.277 . S
Cd116 O125 2.356 . S
C117 O122 1.209 . S
C117 O124 1.226 . S
O118 Cd114 2.273 . S
O118 Cd116 2.411 . S
O118 C121 1.320 . S
O119 Cd116 2.333 . S
O119 C121 1.214 . S
O120 Cd116 2.352 . S
O120 C123 1.258 . S
C121 O118 1.320 . S
C121 O119 1.214 . S
O122 Cd114 2.277 . S
O122 C117 1.209 . S
C123 O120 1.258 . S
C123 O125 1.282 . S
O124 Cd116 2.277 . S
O124 C117 1.226 . S
O125 Cd116 2.356 . S
O125 C123 1.282 . S
C126 O127 1.306 . S
C126 O129 1.160 . S
O127 C126 1.306 . S
O127 Cd128 2.228 . S
Cd128 O127 2.228 . S
Cd128 O132 2.273 . S
Cd128 O136 2.277 . S
O129 C126 1.160 . S
O129 Cd130 2.203 . S
Cd130 O129 2.203 . S
Cd130 O132 2.411 . S
Cd130 O133 2.333 . S
Cd130 O134 2.352 . S
Cd130 O138 2.277 . S
Cd130 O139 2.356 . S
C131 O136 1.209 . S
C131 O138 1.226 . S
O132 Cd128 2.273 . S
O132 Cd130 2.411 . S
O132 C135 1.320 . S
O133 Cd130 2.333 . S
O133 C135 1.214 . S
O134 Cd130 2.352 . S
O134 C137 1.258 . S
C135 O132 1.320 . S
C135 O133 1.214 . S
O136 Cd128 2.277 . S
O136 C131 1.209 . S
C137 O134 1.258 . S
C137 O139 1.282 . S
O138 Cd130 2.277 . S
O138 C131 1.226 . S
O139 Cd130 2.356 . S
O139 C137 1.282 . S
C140 O141 1.306 . S
C140 O143 1.160 . S
O141 C140 1.306 . S
O141 Cd142 2.228 . S
Cd142 O141 2.228 . S
Cd142 O146 2.273 . S
Cd142 O150 2.277 . S
O143 C140 1.160 . S
O143 Cd144 2.203 . S
Cd144 O143 2.203 . S
Cd144 O146 2.411 . S
Cd144 O147 2.333 . S
Cd144 O148 2.352 . S
Cd144 O152 2.277 . S
Cd144 O153 2.356 . S
C145 O150 1.209 . S
C145 O152 1.226 . S
O146 Cd142 2.273 . S
O146 Cd144 2.411 . S
O146 C149 1.320 . S
O147 Cd144 2.333 . S
O147 C149 1.214 . S
O148 Cd144 2.352 . S
O148 C151 1.258 . S
C149 O146 1.320 . S
C149 O147 1.214 . S
O150 Cd142 2.277 . S
O150 C145 1.209 . S
C151 O148 1.258 . S
C151 O153 1.282 . S
O152 Cd144 2.277 . S
O152 C145 1.226 . S
O153 Cd144 2.356 . S
O153 C151 1.282 . S
C154 O155 1.306 . S
C154 O157 1.160 . S
O155 C154 1.306 . S
O155 Cd156 2.228 . S
Cd156 O155 2.228 . S
Cd156 O160 2.273 . S
Cd156 O164 2.277 . S
O157 C154 1.160 . S
O157 Cd158 2.203 . S
Cd158 O157 2.203 . S
Cd158 O160 2.411 . S
Cd158 O161 2.333 . S
Cd158 O162 2.352 . S
Cd158 O166 2.277 . S
Cd158 O167 2.356 . S
C159 O164 1.209 . S
C159 O166 1.226 . S
O160 Cd156 2.273 . S
O160 Cd158 2.411 . S
O160 C163 1.320 . S
O161 Cd158 2.333 . S
O161 C163 1.214 . S
O162 Cd158 2.352 . S
O162 C165 1.258 . S
C163 O160 1.320 . S
C163 O161 1.214 . S
O164 Cd156 2.277 . S
O164 C159 1.209 . S
C165 O162 1.258 . S
C165 O167 1.282 . S
O166 Cd158 2.277 . S
O166 C159 1.226 . S
O167 Cd158 2.356 . S
O167 C165 1.282 . S
C168 O169 1.306 . S
C168 O171 1.160 . S
O169 C168 1.306 . S
O169 Cd170 2.228 . S
Cd170 O169 2.228 . S
Cd170 O174 2.273 . S
Cd170 O178 2.277 . S
O171 C168 1.160 . S
O171 Cd172 2.203 . S
Cd172 O171 2.203 . S
Cd172 O174 2.411 . S
Cd172 O175 2.333 . S
Cd172 O176 2.352 . S
Cd172 O180 2.277 . S
Cd172 O181 2.356 . S
C173 O178 1.209 . S
C173 O180 1.226 . S
O174 Cd170 2.273 . S
O174 Cd172 2.411 . S
O174 C177 1.320 . S
O175 Cd172 2.333 . S
O175 C177 1.214 . S
O176 Cd172 2.352 . S
O176 C179 1.258 . S
C177 O174 1.320 . S
C177 O175 1.214 . S
O178 Cd170 2.277 . S
O178 C173 1.209 . S
C179 O176 1.258 . S
C179 O181 1.282 . S
O180 Cd172 2.277 . S
O180 C173 1.226 . S
O181 Cd172 2.356 . S
O181 C179 1.282 . S
C182 O183 1.306 . S
C182 O185 1.160 . S
O183 C182 1.306 . S
O183 Cd184 2.228 . S
Cd184 O183 2.228 . S
Cd184 O188 2.273 . S
Cd184 O192 2.277 . S
O185 C182 1.160 . S
O185 Cd186 2.203 . S
Cd186 O185 2.203 . S
Cd186 O188 2.411 . S
Cd186 O189 2.333 . S
Cd186 O190 2.352 . S
Cd186 O194 2.277 . S
Cd186 O195 2.356 . S
C187 O192 1.209 . S
C187 O194 1.226 . S
O188 Cd184 2.273 . S
O188 Cd186 2.411 . S
O188 C191 1.320 . S
O189 Cd186 2.333 . S
O189 C191 1.214 . S
O190 Cd186 2.352 . S
O190 C193 1.258 . S
C191 O188 1.320 . S
C191 O189 1.214 . S
O192 Cd184 2.277 . S
O192 C187 1.209 . S
C193 O190 1.258 . S
C193 O195 1.282 . S
O194 Cd186 2.277 . S
O194 C187 1.226 . S
O195 Cd186 2.356 . S
O195 C193 1.282 . S
C196 O197 1.306 . S
C196 O199 1.160 . S
O197 C196 1.306 . S
O197 Cd198 2.228 . S
Cd198 O197 2.228 . S
Cd198 O202 2.273 . S
Cd198 O206 2.277 . S
O199 C196 1.160 . S
O199 Cd200 2.203 . S
Cd200 O199 2.203 . S
Cd200 O202 2.411 . S
Cd200 O203 2.333 . S
Cd200 O204 2.352 . S
Cd200 O208 2.277 . S
Cd200 O209 2.356 . S
C201 O206 1.209 . S
C201 O208 1.226 . S
O202 Cd198 2.273 . S
O202 Cd200 2.411 . S
O202 C205 1.320 . S
O203 Cd200 2.333 . S
O203 C205 1.214 . S
O204 Cd200 2.352 . S
O204 C207 1.258 . S
C205 O202 1.320 . S
C205 O203 1.214 . S
O206 Cd198 2.277 . S
O206 C201 1.209 . S
C207 O204 1.258 . S
C207 O209 1.282 . S
O208 Cd200 2.277 . S
O208 C201 1.226 . S
O209 Cd200 2.356 . S
O209 C207 1.282 . S
C210 O211 1.306 . S
C210 O213 1.160 . S
O211 C210 1.306 . S
O211 Cd212 2.228 . S
Cd212 O211 2.228 . S
Cd212 O216 2.273 . S
Cd212 O220 2.277 . S
O213 C210 1.160 . S
O213 Cd214 2.203 . S
Cd214 O213 2.203 . S
Cd214 O216 2.411 . S
Cd214 O217 2.333 . S
Cd214 O218 2.352 . S
Cd214 O222 2.277 . S
Cd214 O223 2.356 . S
C215 O220 1.209 . S
C215 O222 1.226 . S
O216 Cd212 2.273 . S
O216 Cd214 2.411 . S
O216 C219 1.320 . S
O217 Cd214 2.333 . S
O217 C219 1.214 . S
O218 Cd214 2.352 . S
O218 C221 1.258 . S
C219 O216 1.320 . S
C219 O217 1.214 . S
O220 Cd212 2.277 . S
O220 C215 1.209 . S
C221 O218 1.258 . S
C221 O223 1.282 . S
O222 Cd214 2.277 . S
O222 C215 1.226 . S
O223 Cd214 2.356 . S
O223 C221 1.282 . S
C159 C0 1.531 1_565 S
C14 C117 1.530 1_455 S
C28 C131 1.531 1_565 S
C145 C42 1.531 1_455 S
C56 C75 1.531 . S
C70 C89 1.531 . S
C103 C84 1.530 . S
C61 C98 1.531 . S
C47 C112 1.531 . S
C126 C5 1.530 . S
C19 C140 1.531 . S
C154 C33 1.531 . S
C168 C187 1.531 1_565 S
C182 C201 1.531 1_655 S
C215 C196 1.530 1_565 S
C173 C210 1.531 1_655 S
C65 C9 1.956 . S
C23 C79 1.955 . S
C37 C93 1.955 . S
C107 C51 1.956 . S
C121 C177 1.956 . S
C191 C135 1.955 . S
C149 C205 1.955 . S
C219 C163 1.956 . S
C207 C11 1.869 . S
C221 C25 1.869 . S
C39 C179 1.868 . S
C193 C53 1.868 . S
C151 C67 1.868 . S
C165 C81 1.868 . S
C95 C123 1.869 . S
C137 C109 1.869 . S
