# Generated by pormake.
# Topology fcu, (12)-cn, num edge types: 1
# Building blocks:
#     Node 0, Type 0, BuildingBlock: QEWDON_clean_sbu_0, # of connection points: 12
#     Node 1, Type 0, BuildingBlock: QEWDON_clean_sbu_0, # of connection points: 12
#     Node 2, Type 0, BuildingBlock: QEWDON_clean_sbu_0, # of connection points: 12
#     Node 3, Type 0, BuildingBlock: QEWDON_clean_sbu_0, # of connection points: 12
#     Edge 4, Type (0, 0), BuildingBlock: OJICUG_clean_linker_0, # of connection points: 2
#     Edge 5, Type (0, 0), BuildingBlock: OJICUG_clean_linker_0, # of connection points: 2
#     Edge 6, Type (0, 0), BuildingBlock: OJICUG_clean_linker_0, # of connection points: 2
#     Edge 7, Type (0, 0), BuildingBlock: OJICUG_clean_linker_0, # of connection points: 2
#     Edge 8, Type (0, 0), BuildingBlock: OJICUG_clean_linker_0, # of connection points: 2
#     Edge 9, Type (0, 0), BuildingBlock: OJICUG_clean_linker_0, # of connection points: 2
#     Edge 10, Type (0, 0), BuildingBlock: OJICUG_clean_linker_0, # of connection points: 2
#     Edge 11, Type (0, 0), BuildingBlock: OJICUG_clean_linker_0, # of connection points: 2
#     Edge 12, Type (0, 0), BuildingBlock: OJICUG_clean_linker_0, # of connection points: 2
#     Edge 13, Type (0, 0), BuildingBlock: OJICUG_clean_linker_0, # of connection points: 2
#     Edge 14, Type (0, 0), BuildingBlock: OJICUG_clean_linker_0, # of connection points: 2
#     Edge 15, Type (0, 0), BuildingBlock: OJICUG_clean_linker_0, # of connection points: 2
#     Edge 16, Type (0, 0), BuildingBlock: OJICUG_clean_linker_0, # of connection points: 2
#     Edge 17, Type (0, 0), BuildingBlock: OJICUG_clean_linker_0, # of connection points: 2
#     Edge 18, Type (0, 0), BuildingBlock: OJICUG_clean_linker_0, # of connection points: 2
#     Edge 19, Type (0, 0), BuildingBlock: OJICUG_clean_linker_0, # of connection points: 2
#     Edge 20, Type (0, 0), BuildingBlock: OJICUG_clean_linker_0, # of connection points: 2
#     Edge 21, Type (0, 0), BuildingBlock: OJICUG_clean_linker_0, # of connection points: 2
#     Edge 22, Type (0, 0), BuildingBlock: OJICUG_clean_linker_0, # of connection points: 2
#     Edge 23, Type (0, 0), BuildingBlock: OJICUG_clean_linker_0, # of connection points: 2
#     Edge 24, Type (0, 0), BuildingBlock: OJICUG_clean_linker_0, # of connection points: 2
#     Edge 25, Type (0, 0), BuildingBlock: OJICUG_clean_linker_0, # of connection points: 2
#     Edge 26, Type (0, 0), BuildingBlock: OJICUG_clean_linker_0, # of connection points: 2
#     Edge 27, Type (0, 0), BuildingBlock: OJICUG_clean_linker_0, # of connection points: 2
# Relax obj value: 0.046
# Max RMSD: 0.119
# Mean RMSD: 0.111
data_MOF--net-fcu--node1-QEWDON_clean_sbu_0--edge1-OJICUG_clean_linker_0
_symmetry_space_group_name_H-M    P1
_symmetry_Int_Tables_number       1
_symmetry_cell_setting            triclinic
loop_
_symmetry_equiv_pos_as_xyz
'x, y, z'
_cell_length_a     22.102365
_cell_length_b     22.215651
_cell_length_c     21.201852
_cell_angle_alpha  90.503422
_cell_angle_beta   90.040887
_cell_angle_gamma 88.934193
loop_
_atom_site_label
_atom_site_type_symbol
_atom_site_fract_x
_atom_site_fract_y
_atom_site_fract_z
_atom_type_partial_charge
Zn0 Zn 0.86569 0.84378 0.95005 0.0
Zn1 Zn 0.89689 0.84276 0.10507 0.0
O2 O 0.87367 0.89532 0.02998 0.0
H3 H 0.85912 0.93655 0.03118 0.0
C4 C 0.00289 0.8131 0.86093 0.0
O5 O 0.95964 0.85404 0.85525 0.0
Zn6 Zn 0.04697 0.12806 0.10254 0.0
Zn7 Zn 0.05865 0.12856 0.94703 0.0
O8 O 0.05681 0.07562 0.02498 0.0
H9 H 0.06371 0.03261 0.02353 0.0
Zn10 Zn 0.07371 0.89743 0.9518 0.0
O11 O 0.03249 0.9164 0.03557 0.0
Zn12 Zn 0.09595 0.92068 0.10401 0.0
H13 H 0.04774 0.90763 0.99377 0.0
Zn14 Zn 0.87908 0.0543 0.97012 0.0
O15 O 0.92112 0.0346 0.05237 0.0
H16 H 0.95867 0.012 0.05577 0.0
Zn17 Zn 0.85782 0.03655 0.11906 0.0
C18 C 0.94267 0.1167 0.86811 0.0
O19 O 0.94805 0.06214 0.84409 0.0
O20 O 0.87705 0.75436 0.97336 0.0
O21 O 0.89158 0.75546 0.07771 0.0
O22 O 0.065 0.21708 0.97247 0.0
O23 O 0.06459 0.21517 0.07753 0.0
O24 O 0.16651 0.89788 0.96181 0.0
O25 O 0.17861 0.90066 0.06612 0.0
C26 C 0.82957 0.91682 0.18677 0.0
O27 O 0.78625 0.05973 0.97761 0.0
O28 O 0.77665 0.05785 0.08179 0.0
O29 O 0.11863 0.1037 0.8745 0.0
C30 C 0.8855 0.72695 0.02547 0.0
O31 O 0.80201 0.86731 0.87783 0.0
C32 C 0.11939 0.04384 0.17504 0.0
O33 O 0.04787 0.82327 0.89683 0.0
C34 C 0.06962 0.24373 0.02565 0.0
O35 O 0.91603 0.12426 0.92066 0.0
C36 C 0.02066 0.84022 0.17237 0.0
O37 O 0.83975 0.86085 0.17896 0.0
O38 O 0.85405 0.95165 0.14771 0.0
C39 C 0.20043 0.89601 1.0104 0.0
O40 O 0.10564 0.09955 0.17013 0.0
O41 O 0.09718 0.00772 0.13452 0.0
C42 C 0.92701 0.1271 0.18293 0.0
O43 O 0.07432 0.86016 0.1724 0.0
O44 O -0.01656 0.86074 0.13148 0.0
C45 C 0.75357 0.06299 0.02701 0.0
O46 O 0.87809 0.09798 0.18658 0.0
O47 O 0.96328 0.11324 0.13814 0.0
C48 C 0.12997 0.04827 0.8642 0.0
O49 O 0.10155 0.00823 0.8978 0.0
C50 C 0.79545 0.92231 0.86236 0.0
O51 O 0.82889 0.96238 0.89114 0.0
Zn52 Zn 0.86788 0.43658 0.41206 0.0
Zn53 Zn 0.8567 0.58236 0.40615 0.0
O54 O 0.91566 0.51273 0.39668 0.0
H55 H 0.89791 0.47391 0.40323 0.0
C56 C 0.80961 0.38007 0.55835 0.0
O57 O 0.8072 0.43187 0.52906 0.0
Zn58 Zn 0.10139 0.53093 0.61279 0.0
Zn59 Zn 0.09084 0.39016 0.63696 0.0
O60 O 0.04121 0.46548 0.61989 0.0
H61 H 0.00475 0.46494 0.59502 0.0
Zn62 Zn 0.90581 0.4378 0.62708 0.0
O63 O 0.90154 0.50982 0.56888 0.0
Zn64 Zn 0.89981 0.57506 0.63296 0.0
H65 H 0.92019 0.5109 0.52776 0.0
Zn66 Zn 0.0674 0.42578 0.37796 0.0
O67 O 0.03442 0.4937 0.43352 0.0
H68 H 0.01446 0.48939 0.47368 0.0
Zn69 Zn 0.05311 0.5706 0.3889 0.0
C70 C 0.08473 0.33076 0.47376 0.0
O71 O 0.07962 0.37698 0.51252 0.0
O72 O 0.77945 0.45294 0.38671 0.0
O73 O 0.77445 0.55262 0.37499 0.0
O74 O 0.1761 0.40843 0.66725 0.0
O75 O 0.18511 0.50278 0.63523 0.0
O76 O 0.88049 0.45516 0.71884 0.0
O77 O 0.84775 0.54921 0.70666 0.0
C78 C 0.94096 0.65258 0.33959 0.0
O79 O 0.13138 0.45571 0.31504 0.0
O80 O 0.11069 0.55426 0.31707 0.0
O81 O 0.05081 0.3172 0.67847 0.0
C82 C 0.7507 0.50057 0.37057 0.0
O83 O 0.89811 0.35214 0.3778 0.0
C84 C 0.02783 0.61252 0.68676 0.0
O85 O 0.85093 0.36984 0.59866 0.0
C86 C 0.20716 0.4556 0.66076 0.0
O87 O 0.07972 0.33958 0.41478 0.0
C88 C 0.85128 0.6532 0.53522 0.0
O89 O 0.8845 0.65031 0.35043 0.0
O90 O 0.97466 0.61262 0.36512 0.0
C91 C 0.84822 0.49994 0.73724 0.0
O92 O 0.08221 0.59655 0.67587 0.0
O93 O -0.01312 0.58672 0.65503 0.0
C94 C 0.11196 0.61212 0.50287 0.0
O95 O 0.86452 0.64881 0.59345 0.0
O96 O 0.86082 0.60777 0.49907 0.0
C97 C 0.14081 0.50893 0.29574 0.0
O98 O 0.09781 0.62547 0.44665 0.0
O99 O 0.09558 0.56217 0.52501 0.0
C100 C 0.03169 0.32273 0.7347 0.0
O101 O 0.0352 0.3753 0.76325 0.0
C102 C 0.93748 0.34312 0.33477 0.0
O103 O 0.96631 0.38926 0.3119 0.0
Zn104 Zn 0.32875 0.88989 0.47863 0.0
Zn105 Zn 0.37742 0.86581 0.62087 0.0
O106 O 0.38722 0.92099 0.5454 0.0
H107 H 0.41275 0.95568 0.54287 0.0
C108 C 0.52433 0.79919 0.37267 0.0
O109 O 0.538 0.77504 0.42736 0.0
Zn110 Zn 0.55934 0.10414 0.60646 0.0
Zn111 Zn 0.59257 0.09351 0.45535 0.0
O112 O 0.55855 0.04859 0.53043 0.0
H113 H 0.5342 0.01312 0.52677 0.0
Zn114 Zn 0.56991 0.89506 0.44355 0.0
O115 O 0.52346 0.897 0.52618 0.0
Zn116 Zn 0.58727 0.89663 0.59269 0.0
H117 H 0.48847 0.87201 0.53019 0.0
Zn118 Zn 0.33896 0.08155 0.45443 0.0
O119 O 0.39206 0.07351 0.53122 0.0
H120 H 0.43517 0.06592 0.53033 0.0
Zn121 Zn 0.33959 0.08167 0.60749 0.0
C122 C 0.4004 0.11913 0.33444 0.0
O123 O 0.4119 0.06166 0.32404 0.0
O124 O 0.27509 0.82548 0.5139 0.0
O125 O 0.32295 0.7936 0.60047 0.0
O126 O 0.62651 0.17485 0.48212 0.0
O127 O 0.60133 0.18122 0.5839 0.0
O128 O 0.65367 0.855 0.45398 0.0
O129 O 0.66577 0.861 0.55794 0.0
C130 C 0.31345 0.9656 0.68611 0.0
O131 O 0.254 0.1117 0.4788 0.0
O132 O 0.2569 0.11876 0.58349 0.0
O133 O 0.6402 0.04972 0.38223 0.0
C134 C 0.28018 0.78952 0.56004 0.0
O135 O 0.30184 0.92789 0.39185 0.0
C136 C 0.62274 0.01024 0.67416 0.0
O137 O 0.529 0.85575 0.3667 0.0
C138 C 0.62653 0.20257 0.53492 0.0
O139 O 0.37254 0.1354 0.38426 0.0
C140 C 0.51102 0.8232 0.68173 0.0
O141 O 0.32812 0.91001 0.68751 0.0
O142 O 0.33673 -0.00232 0.64339 0.0
C143 C 0.68498 0.84543 0.50328 0.0
O144 O 0.61049 0.06636 0.67534 0.0
O145 O 0.59805 0.97928 0.63061 0.0
C146 C 0.43642 0.14967 0.66828 0.0
O147 O 0.56053 0.8426 0.6601 0.0
O148 O 0.46031 0.83995 0.65792 0.0
C149 C 0.22952 0.12692 0.53099 0.0
O150 O 0.37984 0.14016 0.66643 0.0
O151 O 0.47176 0.11658 0.63478 0.0
C152 C 0.67761 0.00637 0.39097 0.0
O153 O 0.68519 -0.01469 0.44818 0.0
C154 C 0.25873 0.96661 0.39247 0.0
O155 O 0.23688 -0.01502 0.44707 0.0
Zn156 Zn 0.42852 0.63227 0.07199 0.0
Zn157 Zn 0.42475 0.62321 0.92286 0.0
O158 O 0.41878 0.57327 0.99985 0.0
H159 H 0.43182 0.53167 1.0032 0.0
C160 C 0.54372 0.65079 0.15127 0.0
O161 O 0.54571 0.67563 0.0953 0.0
Zn162 Zn 0.55935 0.34574 0.93114 0.0
Zn163 Zn 0.53735 0.34861 0.08324 0.0
O164 O 0.55521 0.40036 1.00683 0.0
H165 H 0.54583 0.44295 1.00566 0.0
Zn166 Zn 0.59875 0.55113 0.08052 0.0
O167 O 0.55416 0.5617 0.9989 0.0
Zn168 Zn 0.61432 0.54782 0.93048 0.0
H169 H 0.5711 0.55741 0.0406 0.0
Zn170 Zn 0.38168 0.40651 0.0774 0.0
O171 O 0.42842 0.40054 0.99517 0.0
H172 H 0.41086 0.4024 0.03682 0.0
Zn173 Zn 0.36904 0.41636 0.92635 0.0
C174 C 0.41985 0.29514 0.13834 0.0
O175 O 0.42037 0.27643 0.07938 0.0
O176 O 0.4155 0.72005 0.04477 0.0
O177 O 0.40005 0.70982 0.94164 0.0
O178 O 0.55621 0.25902 0.06396 0.0
O179 O 0.57356 0.26103 0.96045 0.0
O180 O 0.69179 0.55154 0.06908 0.0
O181 O 0.69882 0.55331 0.96462 0.0
C182 C 0.36426 0.53284 0.85339 0.0
O183 O 0.28943 0.4073 0.06447 0.0
O184 O 0.28358 0.40213 0.95994 0.0
O185 O 0.56298 0.38297 0.17158 0.0
C186 C 0.40023 0.7422 0.99175 0.0
O187 O 0.36926 0.61216 0.14256 0.0
C188 C 0.6386 0.42765 0.87408 0.0
O189 O 0.56273 0.59691 0.15759 0.0
C190 C 0.57031 0.23246 1.01227 0.0
O191 O 0.4076 0.35018 0.15026 0.0
C192 C 0.54889 0.63528 0.86291 0.0
O193 O 0.37625 0.58839 0.8522 0.0
O194 O 0.37837 0.50309 0.90232 0.0
C195 C 0.72351 0.55327 0.01899 0.0
O196 O 0.62831 0.37158 0.87487 0.0
O197 O 0.60135 0.46308 0.90169 0.0
C198 C 0.44149 0.33933 0.84697 0.0
O199 O 0.60201 0.61291 0.86505 0.0
O200 O 0.50992 0.61286 0.8988 0.0
C201 C 0.25842 0.40206 1.0142 0.0
O202 O 0.3884 0.36181 0.85109 0.0
O203 O 0.47858 0.35287 0.8902 0.0
C204 C 0.59977 0.42621 0.16986 0.0
O205 O 0.61905 0.44408 0.11473 0.0
C206 C 0.35571 0.55781 0.15247 0.0
O207 O 0.38613 0.5146 0.12332 0.0
C208 C 0.89808 0.18615 0.27967 0.0
C209 C 0.93818 0.17676 0.22881 0.0
H210 H 0.86704 0.24513 0.35347 0.0
C211 C -0.01628 0.21892 0.21906 0.0
H212 H 0.86286 0.15426 0.28939 0.0
C213 C -0.01429 0.27186 0.25557 0.0
C214 C 0.9427 0.28313 0.30338 0.0
H215 H 0.016 0.21248 0.18148 0.0
H216 H 0.01947 0.30493 0.24469 0.0
C217 C 0.9005 0.23843 0.31664 0.0
C218 C 0.7816 0.90487 0.29275 0.0
C219 C 0.78969 0.93943 0.23826 0.0
H220 H 0.74135 0.89951 0.38427 0.0
C221 C 0.76006 -0.0043 0.23417 0.0
H222 H 0.8043 0.86151 0.2976 0.0
C223 C 0.72246 0.01669 0.28301 0.0
C224 C 0.71505 -0.0174 0.33794 0.0
H225 H 0.76551 0.02344 0.19315 0.0
H226 H 0.70021 0.06028 0.27822 0.0
C227 C 0.74541 0.92662 0.34242 0.0
C228 C 0.03938 0.74155 0.22735 0.0
C229 C 0.00295 0.79332 0.21774 0.0
H230 H 0.04857 0.65601 0.27371 0.0
C231 C 0.94944 0.80034 0.25245 0.0
H232 H 0.08161 0.73554 0.20195 0.0
C233 C 0.9301 0.75491 0.29247 0.0
C234 C 0.96494 0.70184 0.30032 0.0
H235 H 0.92331 0.8417 0.24977 0.0
H236 H 0.88781 0.76159 0.31762 0.0
C237 C 0.02058 0.69616 0.26843 0.0
C238 C 0.22165 0.94803 0.28143 0.0
C239 C 0.22921 -0.01287 0.33337 0.0
H240 H 0.18 0.93452 0.19073 0.0
C241 C 0.20323 0.04506 0.33092 0.0
H242 H 0.24092 0.90285 0.28219 0.0
C243 C 0.16913 0.06329 0.27882 0.0
C244 C 0.15917 0.02371 0.2278 0.0
H245 H 0.20881 0.07629 0.36975 0.0
H246 H 0.14916 0.1082 0.27947 0.0
C247 C 0.18638 0.96595 0.22931 0.0
C248 C 0.05441 0.71875 0.82304 0.0
C249 C 0.00395 0.758 0.82057 0.0
H250 H 0.10081 0.6426 0.78331 0.0
C251 C 0.95761 0.7457 0.77679 0.0
H252 H 0.0908 0.7262 0.8563 0.0
C253 C 0.96323 0.6966 0.7346 0.0
C254 C 0.01557 0.65966 0.73524 0.0
H255 H 0.91792 0.77488 0.77391 0.0
H256 H 0.92804 0.68915 0.70002 0.0
C257 C 0.06023 0.67062 0.7809 0.0
C258 C 0.1922 0.96739 0.81197 0.0
C259 C 0.17669 0.02869 0.81769 0.0
H260 H 0.24739 0.90013 0.76735 0.0
C261 C 0.20711 0.07025 0.77975 0.0
H262 H 0.1697 0.93403 0.84 0.0
C263 C 0.25205 0.05057 0.73699 0.0
C264 C 0.26763 -0.01093 0.73184 0.0
H265 H 0.1962 0.1179 0.78302 0.0
H266 H 0.27453 0.08338 0.7083 0.0
C267 C 0.23713 0.94796 0.77008 0.0
C268 C 0.01422 0.21195 0.74207 0.0
C269 C 0.00846 0.27006 0.76848 0.0
H270 H -0.00141 0.11782 0.75309 0.0
C271 C -0.01849 0.2772 0.8281 0.0
H272 H 0.03526 0.20491 0.69639 0.0
C273 C 0.96036 0.22735 0.86044 0.0
C274 C 0.966 0.16921 0.83404 0.0
H275 H -0.02344 0.32134 0.8498 0.0
H276 H 0.93959 0.23448 0.90623 0.0
C277 C -0.00662 0.162 0.77462 0.0
C278 C 0.69295 0.02452 0.76547 0.0
C279 C 0.66546 -0.01517 0.7224 0.0
H280 H 0.75523 0.03634 0.84135 0.0
C281 C 0.68098 0.92314 0.7259 0.0
H282 H 0.68277 0.07239 0.76454 0.0
C283 C 0.72237 0.90199 0.77182 0.0
C284 C 0.75011 0.94234 0.81419 0.0
H285 H 0.66171 0.89137 0.69304 0.0
H286 H 0.73341 0.85433 0.7734 0.0
C287 C 0.73481 0.00378 0.80998 0.0
C288 C 0.17188 0.36568 0.07853 0.0
C289 C 0.19482 0.38291 0.01956 0.0
H290 H 0.11158 0.30807 0.12724 0.0
C291 C 0.16148 0.3694 0.96499 0.0
H292 H 0.19535 0.37694 0.12181 0.0
C293 C 0.11274 0.3305 0.96828 0.0
C294 C 0.09742 0.30388 0.02603 0.0
H295 H 0.17673 0.3836 0.91899 0.0
H296 H 0.09213 0.31581 0.92451 0.0
C297 C 0.12346 0.32628 0.08175 0.0
C298 C 0.33625 0.81966 0.93743 0.0
C299 C 0.36685 0.80058 0.99204 0.0
H300 H 0.25912 0.86647 0.90027 0.0
C301 C 0.35228 0.82859 0.05004 0.0
H302 H 0.34732 0.80024 0.89172 0.0
C303 C 0.30113 0.86609 0.05513 0.0
C304 C 0.26439 0.87667 1.00215 0.0
H305 H 0.37602 0.81628 0.09289 0.0
H306 H 0.28729 0.88173 0.10157 0.0
C307 C 0.28535 0.85755 0.94245 0.0
C308 C 0.61171 0.14545 0.07278 0.0
C309 C 0.59667 0.17108 1.01437 0.0
H310 H 0.67392 0.08882 0.12268 0.0
C311 C 0.62051 0.14484 0.95893 0.0
H312 H 0.59261 0.16329 0.11629 0.0
C313 C 0.66746 0.10232 0.96259 0.0
C314 C 0.69059 0.08547 0.02168 0.0
H315 H 0.60813 0.16208 0.91295 0.0
H316 H 0.68978 0.08813 0.9194 0.0
C317 C 0.65855 0.10274 0.07642 0.0
C318 C 0.86115 0.63139 0.97012 0.0
C319 C 0.87227 0.66213 0.02706 0.0
H320 H 0.80447 0.56868 0.92293 0.0
C321 C 0.85245 0.63685 0.08379 0.0
H322 H 0.87818 0.64814 0.92581 0.0
C323 C 0.80979 0.59138 0.08216 0.0
C324 C 0.78732 0.57122 0.02379 0.0
H325 H 0.86237 0.65791 0.12882 0.0
H326 H 0.78832 0.57893 0.12596 0.0
C327 C 0.81875 0.58574 0.96851 0.0
C328 C 0.74884 0.41567 0.84947 0.0
C329 C 0.6951 0.45017 0.84663 0.0
H330 H 0.84083 0.40572 0.81908 0.0
C331 C 0.69508 0.50521 0.81485 0.0
H332 H 0.75014 0.37312 0.87405 0.0
C333 C 0.74717 0.52472 0.78449 0.0
C334 C 0.80008 0.4886 0.78401 0.0
H335 H 0.65367 0.53109 0.80971 0.0
H336 H 0.74437 0.56577 0.75736 0.0
C337 C 0.80091 0.43477 0.81862 0.0
C338 C 0.26491 0.43133 0.75694 0.0
C339 C 0.26127 0.46289 0.70001 0.0
H340 H 0.29587 0.43202 0.85133 0.0
C341 C 0.29907 0.51215 0.69061 0.0
H342 H 0.23577 0.39371 0.76611 0.0
C343 C 0.3354 0.53289 0.73973 0.0
C344 C 0.33391 0.50503 0.79896 0.0
H345 H 0.29704 0.53739 0.64713 0.0
H346 H 0.36202 0.5727 0.73238 0.0
C347 C 0.29967 0.45325 0.80633 0.0
C348 C 0.23161 0.47267 0.23407 0.0
C349 C 0.19323 0.52015 0.25453 0.0
H350 H 0.31396 0.44736 0.18672 0.0
C351 C 0.20889 0.57967 0.24086 0.0
H352 H 0.22106 0.42633 0.24417 0.0
C353 C 0.26219 0.59161 0.20884 0.0
C354 C 0.30098 0.54438 0.1891 0.0
H355 H 0.18066 0.61744 0.2561 0.0
H356 H 0.27279 0.63809 0.19942 0.0
C357 C 0.28503 0.48471 0.20158 0.0
C358 C 0.656 0.5074 0.22542 0.0
C359 C 0.62588 0.45233 0.2281 0.0
H360 H 0.71641 0.56804 0.27055 0.0
C361 C 0.62681 0.42017 0.28485 0.0
H362 H 0.65634 0.53321 0.18258 0.0
C363 C 0.6627 0.43957 0.33533 0.0
C364 C 0.69692 0.49217 0.33029 0.0
H365 H 0.60381 0.37772 0.28853 0.0
H366 H 0.66723 0.41113 0.37638 0.0
C367 C 0.69018 0.52774 0.27634 0.0
C368 C 0.17375 0.75996 0.54935 0.0
C369 C 0.23342 0.74359 0.56549 0.0
H370 H 0.08732 0.72987 0.51854 0.0
C371 C 0.24826 0.68271 0.57551 0.0
H372 H 0.16107 0.80677 0.54211 0.0
C373 C 0.20552 0.63841 0.56206 0.0
C374 C 0.14791 0.65507 0.53923 0.0
H375 H 0.29409 0.66915 0.58772 0.0
H376 H 0.21958 0.59152 0.56307 0.0
C377 C 0.13142 0.7161 0.53628 0.0
C378 C 0.10707 0.22097 0.45682 0.0
C379 C 0.10714 0.27166 0.49685 0.0
H380 H 0.14393 0.13302 0.43813 0.0
C381 C 0.136 0.26714 0.55582 0.0
H382 H 0.0842 0.22252 0.41163 0.0
C383 C 0.16989 0.21553 0.57131 0.0
C384 C 0.17608 0.16792 0.52762 0.0
H385 H 0.13715 0.3053 0.58768 0.0
H386 H 0.19629 0.21586 0.61438 0.0
C387 C 0.14106 0.1695 0.4722 0.0
C388 C 0.82412 0.76059 0.55391 0.0
C389 C 0.82194 0.70971 0.51395 0.0
H390 H 0.78212 0.84416 0.58159 0.0
C391 C 0.7832 0.71092 0.46153 0.0
H392 H 0.85453 0.76162 0.59402 0.0
C393 C 0.74228 0.75924 0.45379 0.0
C394 C 0.73933 0.80618 0.49889 0.0
H395 H 0.78066 0.67251 0.42993 0.0
H396 H 0.70925 0.75684 0.41611 0.0
C397 C 0.78282 0.80809 0.54683 0.0
C398 C 0.68402 0.28766 0.48919 0.0
C399 C 0.66625 0.25456 0.54209 0.0
H400 H 0.74383 0.35405 0.45305 0.0
C401 C 0.69392 0.26548 0.60059 0.0
H402 H 0.66356 0.27984 0.44347 0.0
C403 C 0.74073 0.30626 0.60544 0.0
C404 C 0.7597 0.33793 0.55226 0.0
H405 H 0.68168 0.24024 0.64203 0.0
H406 H 0.76234 0.31278 0.65083 0.0
C407 C 0.73 0.32972 0.49448 0.0
C408 C 0.42562 0.30389 0.73729 0.0
C409 C 0.45604 0.29665 0.7949 0.0
H410 H 0.39802 0.26286 0.65075 0.0
C411 C 0.49175 0.24431 0.80427 0.0
H412 H 0.39821 0.34393 0.72851 0.0
C413 C 0.49158 0.19733 0.75918 0.0
C414 C 0.45627 0.20288 0.70428 0.0
H415 H 0.51537 0.23753 0.84845 0.0
H416 H 0.5145 0.15508 0.76975 0.0
C417 C 0.42588 0.25765 0.69253 0.0
C418 C 0.57222 0.77183 0.76393 0.0
C419 C 0.51571 0.77983 0.7341 0.0
H420 H 0.62652 0.71992 0.82715 0.0
C421 C 0.46768 0.74298 0.75153 0.0
H422 H 0.61013 0.80008 0.75285 0.0
C423 C 0.47733 0.69689 0.79552 0.0
C424 C 0.5351 0.68688 0.82182 0.0
H425 H 0.42367 0.74817 0.72953 0.0
H426 H 0.44049 0.6677 0.80666 0.0
C427 C 0.58187 0.72572 0.80665 0.0
C428 C 0.51486 0.74919 0.20228 0.0
C429 C 0.52764 0.68724 0.20755 0.0
H430 H 0.50303 0.83351 0.25075 0.0
C431 C 0.53031 0.66144 0.26777 0.0
H432 H 0.51175 0.77027 0.15648 0.0
C433 C 0.52491 0.69755 0.32168 0.0
C434 C 0.517 0.76022 0.31647 0.0
H435 H 0.53943 0.6137 0.27345 0.0
H436 H 0.53025 0.67661 0.36734 0.0
C437 C 0.50971 0.78542 0.2563 0.0
C438 C 0.40154 0.22597 0.29893 0.0
C439 C 0.41368 0.16471 0.28615 0.0
H440 H 0.39469 0.31517 0.26261 0.0
C441 C 0.43437 0.14764 0.22582 0.0
H442 H 0.38603 0.24082 0.34506 0.0
C443 C 0.43925 0.19056 0.17822 0.0
C444 C 0.42382 0.25128 0.19028 0.0
H445 H 0.44458 0.10089 0.21464 0.0
H446 H 0.4532 0.17584 0.13151 0.0
C447 C 0.40672 0.26876 0.25163 0.0
loop_
_geom_bond_atom_site_label_1
_geom_bond_atom_site_label_2
_geom_bond_distance
_geom_bond_site_symmetry_2
_ccdc_geom_bond_type
Zn0 O2 1.933 1_556 S
Zn0 O20 1.985 . S
Zn0 O31 1.955 . S
Zn1 O2 1.911 . S
Zn1 O21 1.970 . S
Zn1 O37 1.945 . S
Zn1 O44 1.981 . S
O2 Zn0 1.933 1_554 S
O2 Zn1 1.911 . S
O2 H3 0.841 1_554 S
H3 O2 0.841 1_556 S
C4 O5 1.246 . S
C4 O33 1.276 1_655 S
O5 C4 1.246 . S
Zn6 O8 1.911 . S
Zn6 O23 1.970 . S
Zn6 O40 1.945 . S
Zn6 O47 1.981 . S
Zn7 O8 1.933 1_556 S
Zn7 O22 1.985 . S
Zn7 O29 1.955 . S
O8 Zn6 1.911 . S
O8 Zn7 1.933 1_554 S
O8 H9 0.841 1_554 S
H9 O8 0.841 1_556 S
Zn10 O11 1.933 1_556 S
Zn10 O24 1.985 . S
Zn10 O33 1.955 . S
O11 Zn10 1.933 1_554 S
O11 Zn12 1.911 . S
O11 H13 0.841 1_554 S
Zn12 O11 1.911 . S
Zn12 O25 1.970 . S
Zn12 O41 1.981 . S
Zn12 O43 1.945 . S
H13 O11 0.841 1_556 S
Zn14 O15 1.933 1_556 S
Zn14 O27 1.985 . S
Zn14 O35 1.955 . S
O15 Zn14 1.933 1_554 S
O15 H16 0.841 1_554 S
O15 Zn17 1.911 . S
H16 O15 0.841 1_556 S
Zn17 O15 1.911 . S
Zn17 O28 1.970 . S
Zn17 O38 1.981 . S
Zn17 O46 1.945 . S
C18 O19 1.246 . S
C18 O35 1.276 1_455 S
O19 C18 1.246 . S
O20 Zn0 1.985 . S
O20 C30 1.245 1_556 S
O21 Zn1 1.970 . S
O21 C30 1.263 . S
O22 Zn7 1.985 . S
O22 C34 1.245 1_556 S
O23 Zn6 1.970 . S
O23 C34 1.263 . S
O24 Zn10 1.985 . S
O24 C39 1.245 1_556 S
O25 Zn12 1.970 . S
O25 C39 1.263 . S
C26 O37 1.262 1_545 S
C26 O38 1.245 . S
O27 Zn14 1.985 . S
O27 C45 1.245 1_556 S
O28 Zn17 1.970 . S
O28 C45 1.263 . S
O29 Zn7 1.955 . S
O29 C48 1.276 1_545 S
C30 O20 1.245 1_554 S
C30 O21 1.263 . S
O31 Zn0 1.955 . S
O31 C50 1.276 1_565 S
C32 O40 1.262 . S
C32 O41 1.245 1_545 S
O33 C4 1.276 1_455 S
O33 Zn10 1.955 . S
C34 O22 1.245 1_554 S
C34 O23 1.263 . S
O35 Zn14 1.955 . S
O35 C18 1.276 1_655 S
C36 O43 1.268 . S
C36 O44 1.241 1_455 S
O37 Zn1 1.945 . S
O37 C26 1.262 1_565 S
O38 Zn17 1.981 . S
O38 C26 1.245 . S
C39 O24 1.245 1_554 S
C39 O25 1.263 . S
O40 Zn6 1.945 . S
O40 C32 1.262 . S
O41 Zn12 1.981 . S
O41 C32 1.245 1_565 S
C42 O46 1.263 1_455 S
C42 O47 1.244 . S
O43 Zn12 1.945 . S
O43 C36 1.268 . S
O44 Zn1 1.981 . S
O44 C36 1.241 1_655 S
C45 O27 1.245 1_554 S
C45 O28 1.263 . S
O46 Zn17 1.945 . S
O46 C42 1.263 1_655 S
O47 Zn6 1.981 . S
O47 C42 1.244 . S
C48 O29 1.276 1_565 S
C48 O49 1.246 . S
O49 C48 1.246 . S
C50 O31 1.276 1_545 S
C50 O51 1.246 . S
O51 C50 1.246 . S
Zn52 O54 1.933 . S
Zn52 O72 1.985 . S
Zn52 O83 1.955 . S
Zn53 O54 1.911 . S
Zn53 O73 1.970 . S
Zn53 O89 1.945 . S
Zn53 O96 1.981 . S
O54 Zn52 1.933 . S
O54 Zn53 1.911 . S
O54 H55 0.841 . S
H55 O54 0.841 . S
C56 O57 1.246 . S
C56 O85 1.276 . S
O57 C56 1.246 . S
Zn58 O60 1.911 . S
Zn58 O75 1.970 . S
Zn58 O92 1.945 . S
Zn58 O99 1.981 . S
Zn59 O60 1.933 . S
Zn59 O74 1.985 . S
Zn59 O81 1.955 . S
O60 Zn58 1.911 . S
O60 Zn59 1.933 . S
O60 H61 0.841 . S
H61 O60 0.841 . S
Zn62 O63 1.933 . S
Zn62 O76 1.985 . S
Zn62 O85 1.955 . S
O63 Zn62 1.933 . S
O63 Zn64 1.911 . S
O63 H65 0.841 . S
Zn64 O63 1.911 . S
Zn64 O77 1.970 . S
Zn64 O93 1.981 . S
Zn64 O95 1.945 . S
H65 O63 0.841 . S
Zn66 O67 1.933 . S
Zn66 O79 1.985 . S
Zn66 O87 1.955 . S
O67 Zn66 1.933 . S
O67 H68 0.841 . S
O67 Zn69 1.911 . S
H68 O67 0.841 . S
Zn69 O67 1.911 . S
Zn69 O80 1.970 . S
Zn69 O90 1.981 . S
Zn69 O98 1.945 . S
C70 O71 1.246 . S
C70 O87 1.276 . S
O71 C70 1.246 . S
O72 Zn52 1.985 . S
O72 C82 1.245 . S
O73 Zn53 1.970 . S
O73 C82 1.263 . S
O74 Zn59 1.985 . S
O74 C86 1.245 . S
O75 Zn58 1.970 . S
O75 C86 1.263 . S
O76 Zn62 1.985 . S
O76 C91 1.245 . S
O77 Zn64 1.970 . S
O77 C91 1.263 . S
C78 O89 1.262 . S
C78 O90 1.245 1_655 S
O79 Zn66 1.985 . S
O79 C97 1.245 . S
O80 Zn69 1.970 . S
O80 C97 1.263 . S
O81 Zn59 1.955 . S
O81 C100 1.276 1_455 S
C82 O72 1.245 . S
C82 O73 1.263 . S
O83 Zn52 1.955 . S
O83 C102 1.276 1_655 S
C84 O92 1.268 . S
C84 O93 1.242 1_455 S
O85 C56 1.276 . S
O85 Zn62 1.955 . S
C86 O74 1.245 . S
C86 O75 1.263 . S
O87 Zn66 1.955 . S
O87 C70 1.276 . S
C88 O95 1.262 . S
C88 O96 1.245 . S
O89 Zn53 1.945 . S
O89 C78 1.262 . S
O90 Zn69 1.981 . S
O90 C78 1.245 1_455 S
C91 O76 1.245 . S
C91 O77 1.263 . S
O92 Zn58 1.945 . S
O92 C84 1.268 . S
O93 Zn64 1.981 . S
O93 C84 1.242 1_655 S
C94 O98 1.262 . S
C94 O99 1.245 . S
O95 Zn64 1.945 . S
O95 C88 1.262 . S
O96 Zn53 1.981 . S
O96 C88 1.245 . S
C97 O79 1.245 . S
C97 O80 1.263 . S
O98 Zn69 1.945 . S
O98 C94 1.262 . S
O99 Zn58 1.981 . S
O99 C94 1.245 . S
C100 O81 1.276 1_655 S
C100 O101 1.246 . S
O101 C100 1.246 . S
C102 O83 1.276 1_455 S
C102 O103 1.246 . S
O103 C102 1.246 . S
Zn104 O106 1.933 . S
Zn104 O124 1.985 . S
Zn104 O135 1.955 . S
Zn105 O106 1.911 . S
Zn105 O125 1.970 . S
Zn105 O141 1.945 . S
Zn105 O148 1.981 . S
O106 Zn104 1.933 . S
O106 Zn105 1.911 . S
O106 H107 0.841 . S
H107 O106 0.841 . S
C108 O109 1.246 . S
C108 O137 1.276 . S
O109 C108 1.246 . S
Zn110 O112 1.911 . S
Zn110 O127 1.970 . S
Zn110 O144 1.945 . S
Zn110 O151 1.981 . S
Zn111 O112 1.933 . S
Zn111 O126 1.985 . S
Zn111 O133 1.955 . S
O112 Zn110 1.911 . S
O112 Zn111 1.933 . S
O112 H113 0.841 . S
H113 O112 0.841 . S
Zn114 O115 1.933 . S
Zn114 O128 1.985 . S
Zn114 O137 1.955 . S
O115 Zn114 1.933 . S
O115 Zn116 1.911 . S
O115 H117 0.841 . S
Zn116 O115 1.911 . S
Zn116 O129 1.970 . S
Zn116 O145 1.981 . S
Zn116 O147 1.945 . S
H117 O115 0.841 . S
Zn118 O119 1.933 . S
Zn118 O131 1.985 . S
Zn118 O139 1.955 . S
O119 Zn118 1.933 . S
O119 H120 0.841 . S
O119 Zn121 1.911 . S
H120 O119 0.841 . S
Zn121 O119 1.911 . S
Zn121 O132 1.970 . S
Zn121 O142 1.981 . S
Zn121 O150 1.945 . S
C122 O123 1.246 . S
C122 O139 1.276 . S
O123 C122 1.246 . S
O124 Zn104 1.985 . S
O124 C134 1.245 . S
O125 Zn105 1.970 . S
O125 C134 1.263 . S
O126 Zn111 1.985 . S
O126 C138 1.245 . S
O127 Zn110 1.970 . S
O127 C138 1.263 . S
O128 Zn114 1.985 . S
O128 C143 1.245 . S
O129 Zn116 1.970 . S
O129 C143 1.263 . S
C130 O141 1.262 1_545 S
C130 O142 1.245 . S
O131 Zn118 1.985 . S
O131 C149 1.245 . S
O132 Zn121 1.970 . S
O132 C149 1.263 . S
O133 Zn111 1.955 . S
O133 C152 1.276 1_545 S
C134 O124 1.245 . S
C134 O125 1.263 . S
O135 Zn104 1.955 . S
O135 C154 1.276 1_565 S
C136 O144 1.262 . S
C136 O145 1.245 1_545 S
O137 C108 1.276 . S
O137 Zn114 1.955 . S
C138 O126 1.245 . S
C138 O127 1.263 . S
O139 Zn118 1.955 . S
O139 C122 1.276 . S
C140 O147 1.262 . S
C140 O148 1.245 . S
O141 Zn105 1.945 . S
O141 C130 1.262 1_565 S
O142 Zn121 1.981 . S
O142 C130 1.245 . S
C143 O128 1.245 . S
C143 O129 1.263 . S
O144 Zn110 1.945 . S
O144 C136 1.262 . S
O145 Zn116 1.981 . S
O145 C136 1.245 1_565 S
C146 O150 1.262 . S
C146 O151 1.245 . S
O147 Zn116 1.945 . S
O147 C140 1.262 . S
O148 Zn105 1.981 . S
O148 C140 1.245 . S
C149 O131 1.245 . S
C149 O132 1.263 . S
O150 Zn121 1.945 . S
O150 C146 1.262 . S
O151 Zn110 1.981 . S
O151 C146 1.245 . S
C152 O133 1.276 1_565 S
C152 O153 1.246 . S
O153 C152 1.246 . S
C154 O135 1.276 1_545 S
C154 O155 1.246 . S
O155 C154 1.246 . S
Zn156 O158 1.924 1_554 S
Zn156 O176 1.985 . S
Zn156 O187 1.955 . S
Zn157 O158 1.921 . S
Zn157 O177 1.970 . S
Zn157 O193 1.945 . S
Zn157 O200 1.981 . S
O158 Zn156 1.924 1_556 S
O158 Zn157 1.921 . S
O158 H159 0.839 1_556 S
H159 O158 0.839 1_554 S
C160 O161 1.246 . S
C160 O189 1.276 . S
O161 C160 1.246 . S
Zn162 O164 1.922 . S
Zn162 O179 1.970 . S
Zn162 O196 1.945 . S
Zn162 O203 1.981 . S
Zn163 O164 1.923 1_554 S
Zn163 O178 1.985 . S
Zn163 O185 1.955 . S
O164 Zn162 1.922 . S
O164 Zn163 1.923 1_556 S
O164 H165 0.839 1_556 S
H165 O164 0.839 1_554 S
Zn166 O167 1.923 1_554 S
Zn166 O180 1.985 . S
Zn166 O189 1.955 . S
O167 Zn166 1.923 1_556 S
O167 Zn168 1.921 . S
O167 H169 0.839 1_556 S
Zn168 O167 1.921 . S
Zn168 O181 1.970 . S
Zn168 O197 1.981 . S
Zn168 O199 1.945 . S
H169 O167 0.839 1_554 S
Zn170 O171 1.924 1_554 S
Zn170 O183 1.985 . S
Zn170 O191 1.955 . S
O171 Zn170 1.924 1_556 S
O171 H172 0.839 1_556 S
O171 Zn173 1.921 . S
H172 O171 0.839 1_554 S
Zn173 O171 1.921 . S
Zn173 O184 1.970 . S
Zn173 O194 1.981 . S
Zn173 O202 1.945 . S
C174 O175 1.246 . S
C174 O191 1.276 . S
O175 C174 1.246 . S
O176 Zn156 1.985 . S
O176 C186 1.261 . S
O177 Zn157 1.970 . S
O177 C186 1.247 1_556 S
O178 Zn163 1.985 . S
O178 C190 1.258 . S
O179 Zn162 1.970 . S
O179 C190 1.249 1_556 S
O180 Zn166 1.985 . S
O180 C195 1.258 . S
O181 Zn168 1.970 . S
O181 C195 1.250 1_556 S
C182 O193 1.262 . S
C182 O194 1.245 . S
O183 Zn170 1.985 . S
O183 C201 1.261 . S
O184 Zn173 1.970 . S
O184 C201 1.247 1_556 S
O185 Zn163 1.955 . S
O185 C204 1.276 . S
C186 O176 1.261 . S
C186 O177 1.247 1_554 S
O187 Zn156 1.955 . S
O187 C206 1.276 . S
C188 O196 1.262 . S
C188 O197 1.245 . S
O189 C160 1.276 . S
O189 Zn166 1.955 . S
C190 O178 1.258 . S
C190 O179 1.249 1_554 S
O191 Zn170 1.955 . S
O191 C174 1.276 . S
C192 O199 1.262 . S
C192 O200 1.245 . S
O193 Zn157 1.945 . S
O193 C182 1.262 . S
O194 Zn173 1.981 . S
O194 C182 1.245 . S
C195 O180 1.258 . S
C195 O181 1.250 1_554 S
O196 Zn162 1.945 . S
O196 C188 1.262 . S
O197 Zn168 1.981 . S
O197 C188 1.245 . S
C198 O202 1.262 . S
C198 O203 1.245 . S
O199 Zn168 1.945 . S
O199 C192 1.262 . S
O200 Zn157 1.981 . S
O200 C192 1.245 . S
C201 O183 1.261 . S
C201 O184 1.247 1_554 S
O202 Zn173 1.945 . S
O202 C198 1.262 . S
O203 Zn162 1.981 . S
O203 C198 1.245 . S
C204 O185 1.276 . S
C204 O205 1.246 . S
O205 C204 1.246 . S
C206 O187 1.276 . S
C206 O207 1.246 . S
O207 C206 1.246 . S
C208 C209 1.387 1_655 S
C208 H212 0.950 . S
C208 C217 1.390 . S
C209 C208 1.387 1_455 S
C209 C211 1.387 . S
H210 C217 0.950 . S
C211 C209 1.387 . S
C211 C213 1.390 . S
C211 H215 0.950 . S
H212 C208 0.950 . S
C213 C211 1.390 . S
C213 C214 1.387 . S
C213 H216 0.950 . S
C214 C213 1.387 . S
C214 C217 1.387 1_455 S
H215 C211 0.950 . S
H216 C213 0.950 . S
C217 C208 1.390 . S
C217 H210 0.950 . S
C217 C214 1.387 1_655 S
C218 C219 1.387 1_565 S
C218 H222 0.950 . S
C218 C227 1.390 . S
C219 C218 1.387 1_545 S
C219 C221 1.387 . S
H220 C227 0.950 . S
C221 C219 1.387 . S
C221 C223 1.390 . S
C221 H225 0.950 . S
H222 C218 0.950 . S
C223 C221 1.390 . S
C223 C224 1.387 1_545 S
C223 H226 0.950 . S
C224 C223 1.387 1_565 S
C224 C227 1.387 . S
H225 C221 0.950 . S
H226 C223 0.950 . S
C227 C218 1.390 . S
C227 H220 0.950 . S
C227 C224 1.387 . S
C228 C229 1.387 1_455 S
C228 H232 0.950 . S
C228 C237 1.390 . S
C229 C228 1.387 1_655 S
C229 C231 1.387 . S
H230 C237 0.950 . S
C231 C229 1.387 . S
C231 C233 1.390 . S
C231 H235 0.950 . S
H232 C228 0.950 . S
C233 C231 1.390 . S
C233 C234 1.387 1_655 S
C233 H236 0.950 . S
C234 C233 1.387 1_455 S
C234 C237 1.387 . S
H235 C231 0.950 . S
H236 C233 0.950 . S
C237 C228 1.390 . S
C237 H230 0.950 . S
C237 C234 1.387 . S
C238 C239 1.387 1_565 S
C238 H242 0.950 . S
C238 C247 1.390 . S
C239 C238 1.387 1_545 S
C239 C241 1.387 . S
H240 C247 0.950 . S
C241 C239 1.387 . S
C241 C243 1.390 . S
C241 H245 0.950 . S
H242 C238 0.950 . S
C243 C241 1.390 . S
C243 C244 1.387 1_545 S
C243 H246 0.950 . S
C244 C243 1.387 1_565 S
C244 C247 1.387 . S
H245 C241 0.950 . S
H246 C243 0.950 . S
C247 C238 1.390 . S
C247 H240 0.950 . S
C247 C244 1.387 . S
C248 C249 1.387 1_455 S
C248 H252 0.950 . S
C248 C257 1.390 . S
C249 C248 1.387 1_655 S
C249 C251 1.387 . S
H250 C257 0.950 . S
C251 C249 1.387 . S
C251 C253 1.390 . S
C251 H255 0.950 . S
H252 C248 0.950 . S
C253 C251 1.390 . S
C253 C254 1.387 . S
C253 H256 0.950 . S
C254 C253 1.387 . S
C254 C257 1.387 1_655 S
H255 C251 0.950 . S
H256 C253 0.950 . S
C257 C248 1.390 . S
C257 H250 0.950 . S
C257 C254 1.387 1_455 S
C258 C259 1.387 . S
C258 H262 0.950 . S
C258 C267 1.390 . S
C259 C258 1.387 . S
C259 C261 1.387 1_565 S
H260 C267 0.950 . S
C261 C259 1.387 1_545 S
C261 C263 1.390 . S
C261 H265 0.950 . S
H262 C258 0.950 . S
C263 C261 1.390 . S
C263 C264 1.387 . S
C263 H266 0.950 . S
C264 C263 1.387 . S
C264 C267 1.387 1_545 S
H265 C261 0.950 . S
H266 C263 0.950 . S
C267 C258 1.390 . S
C267 H260 0.950 . S
C267 C264 1.387 1_565 S
C268 C269 1.387 1_455 S
C268 H272 0.950 . S
C268 C277 1.390 . S
C269 C268 1.387 1_655 S
C269 C271 1.387 . S
H270 C277 0.950 . S
C271 C269 1.387 . S
C271 C273 1.390 . S
C271 H275 0.950 . S
H272 C268 0.950 . S
C273 C271 1.390 . S
C273 C274 1.387 1_655 S
C273 H276 0.950 . S
C274 C273 1.387 1_455 S
C274 C277 1.387 . S
H275 C271 0.950 . S
H276 C273 0.950 . S
C277 C268 1.390 . S
C277 H270 0.950 . S
C277 C274 1.387 . S
C278 C279 1.387 1_545 S
C278 H282 0.950 . S
C278 C287 1.390 . S
C279 C278 1.387 1_565 S
C279 C281 1.387 . S
H280 C287 0.950 . S
C281 C279 1.387 . S
C281 C283 1.390 . S
C281 H285 0.950 . S
H282 C278 0.950 . S
C283 C281 1.390 . S
C283 C284 1.387 1_565 S
C283 H286 0.950 . S
C284 C283 1.387 1_545 S
C284 C287 1.387 . S
H285 C281 0.950 . S
H286 C283 0.950 . S
C287 C278 1.390 . S
C287 H280 0.950 . S
C287 C284 1.387 . S
C288 C289 1.402 . S
C288 H292 0.950 . S
C288 C297 1.390 . S
C289 C288 1.402 . S
C289 C291 1.374 1_554 S
H290 C297 0.950 . S
C291 C289 1.374 1_556 S
C291 C293 1.390 . S
C291 H295 0.950 . S
H292 C288 0.950 . S
C293 C291 1.390 . S
C293 C294 1.387 1_556 S
C293 H296 0.950 . S
C294 C293 1.387 1_554 S
C294 C297 1.387 . S
H295 C291 0.950 . S
H296 C293 0.950 . S
C297 C288 1.390 . S
C297 H290 0.950 . S
C297 C294 1.387 . S
C298 C299 1.374 1_556 S
C298 H302 0.950 . S
C298 C307 1.390 . S
C299 C298 1.374 1_554 S
C299 C301 1.401 . S
H300 C307 0.950 . S
C301 C299 1.401 . S
C301 C303 1.390 . S
C301 H305 0.950 . S
H302 C298 0.950 . S
C303 C301 1.390 . S
C303 C304 1.387 . S
C303 H306 0.950 . S
C304 C303 1.387 . S
C304 C307 1.387 1_554 S
H305 C301 0.950 . S
H306 C303 0.950 . S
C307 C298 1.390 . S
C307 H300 0.950 . S
C307 C304 1.387 1_556 S
C308 C309 1.399 . S
C308 H312 0.950 . S
C308 C317 1.390 . S
C309 C308 1.399 . S
C309 C311 1.376 1_554 S
H310 C317 0.950 . S
C311 C309 1.376 1_556 S
C311 C313 1.390 . S
C311 H315 0.950 . S
H312 C308 0.950 . S
C313 C311 1.390 . S
C313 C314 1.387 1_556 S
C313 H316 0.950 . S
C314 C313 1.387 1_554 S
C314 C317 1.387 . S
H315 C311 0.950 . S
H316 C313 0.950 . S
C317 C308 1.390 . S
C317 H310 0.950 . S
C317 C314 1.387 . S
C318 C319 1.387 1_556 S
C318 H322 0.950 . S
C318 C327 1.390 . S
C319 C318 1.387 1_554 S
C319 C321 1.387 . S
H320 C327 0.950 . S
C321 C319 1.387 . S
C321 C323 1.390 . S
C321 H325 0.950 . S
H322 C318 0.950 . S
C323 C321 1.390 . S
C323 C324 1.398 . S
C323 H326 0.950 . S
C324 C323 1.398 . S
C324 C327 1.377 1_554 S
H325 C321 0.950 . S
H326 C323 0.950 . S
C327 C318 1.390 . S
C327 H320 0.950 . S
C327 C324 1.377 1_556 S
C328 C329 1.387 . S
C328 H332 0.950 . S
C328 C337 1.390 . S
C329 C328 1.387 . S
C329 C331 1.387 . S
H330 C337 0.950 . S
C331 C329 1.387 . S
C331 C333 1.390 . S
C331 H335 0.950 . S
H332 C328 0.950 . S
C333 C331 1.390 . S
C333 C334 1.387 . S
C333 H336 0.950 . S
C334 C333 1.387 . S
C334 C337 1.387 . S
H335 C331 0.950 . S
H336 C333 0.950 . S
C337 C328 1.390 . S
C337 H330 0.950 . S
C337 C334 1.387 . S
C338 C339 1.387 . S
C338 H342 0.950 . S
C338 C347 1.390 . S
C339 C338 1.387 . S
C339 C341 1.387 . S
H340 C347 0.950 . S
C341 C339 1.387 . S
C341 C343 1.390 . S
C341 H345 0.950 . S
H342 C338 0.950 . S
C343 C341 1.390 . S
C343 C344 1.387 . S
C343 H346 0.950 . S
C344 C343 1.387 . S
C344 C347 1.387 . S
H345 C341 0.950 . S
H346 C343 0.950 . S
C347 C338 1.390 . S
C347 H340 0.950 . S
C347 C344 1.387 . S
C348 C349 1.387 . S
C348 H352 0.950 . S
C348 C357 1.390 . S
C349 C348 1.387 . S
C349 C351 1.387 . S
H350 C357 0.950 . S
C351 C349 1.387 . S
C351 C353 1.390 . S
C351 H355 0.950 . S
H352 C348 0.950 . S
C353 C351 1.390 . S
C353 C354 1.387 . S
C353 H356 0.950 . S
C354 C353 1.387 . S
C354 C357 1.387 . S
H355 C351 0.950 . S
H356 C353 0.950 . S
C357 C348 1.390 . S
C357 H350 0.950 . S
C357 C354 1.387 . S
C358 C359 1.387 . S
C358 H362 0.950 . S
C358 C367 1.390 . S
C359 C358 1.387 . S
C359 C361 1.387 . S
H360 C367 0.950 . S
C361 C359 1.387 . S
C361 C363 1.390 . S
C361 H365 0.950 . S
H362 C358 0.950 . S
C363 C361 1.390 . S
C363 C364 1.387 . S
C363 H366 0.950 . S
C364 C363 1.387 . S
C364 C367 1.387 . S
H365 C361 0.950 . S
H366 C363 0.950 . S
C367 C358 1.390 . S
C367 H360 0.950 . S
C367 C364 1.387 . S
C368 C369 1.387 . S
C368 H372 0.950 . S
C368 C377 1.390 . S
C369 C368 1.387 . S
C369 C371 1.387 . S
H370 C377 0.950 . S
C371 C369 1.387 . S
C371 C373 1.390 . S
C371 H375 0.950 . S
H372 C368 0.950 . S
C373 C371 1.390 . S
C373 C374 1.387 . S
C373 H376 0.950 . S
C374 C373 1.387 . S
C374 C377 1.387 . S
H375 C371 0.950 . S
H376 C373 0.950 . S
C377 C368 1.390 . S
C377 H370 0.950 . S
C377 C374 1.387 . S
C378 C379 1.387 . S
C378 H382 0.950 . S
C378 C387 1.390 . S
C379 C378 1.387 . S
C379 C381 1.387 . S
H380 C387 0.950 . S
C381 C379 1.387 . S
C381 C383 1.390 . S
C381 H385 0.950 . S
H382 C378 0.950 . S
C383 C381 1.390 . S
C383 C384 1.387 . S
C383 H386 0.950 . S
C384 C383 1.387 . S
C384 C387 1.387 . S
H385 C381 0.950 . S
H386 C383 0.950 . S
C387 C378 1.390 . S
C387 H380 0.950 . S
C387 C384 1.387 . S
C388 C389 1.387 . S
C388 H392 0.950 . S
C388 C397 1.390 . S
C389 C388 1.387 . S
C389 C391 1.387 . S
H390 C397 0.950 . S
C391 C389 1.387 . S
C391 C393 1.390 . S
C391 H395 0.950 . S
H392 C388 0.950 . S
C393 C391 1.390 . S
C393 C394 1.387 . S
C393 H396 0.950 . S
C394 C393 1.387 . S
C394 C397 1.387 . S
H395 C391 0.950 . S
H396 C393 0.950 . S
C397 C388 1.390 . S
C397 H390 0.950 . S
C397 C394 1.387 . S
C398 C399 1.387 . S
C398 H402 0.950 . S
C398 C407 1.390 . S
C399 C398 1.387 . S
C399 C401 1.387 . S
H400 C407 0.950 . S
C401 C399 1.387 . S
C401 C403 1.390 . S
C401 H405 0.950 . S
H402 C398 0.950 . S
C403 C401 1.390 . S
C403 C404 1.387 . S
C403 H406 0.950 . S
C404 C403 1.387 . S
C404 C407 1.387 . S
H405 C401 0.950 . S
H406 C403 0.950 . S
C407 C398 1.390 . S
C407 H400 0.950 . S
C407 C404 1.387 . S
C408 C409 1.387 . S
C408 H412 0.950 . S
C408 C417 1.390 . S
C409 C408 1.387 . S
C409 C411 1.387 . S
H410 C417 0.950 . S
C411 C409 1.387 . S
C411 C413 1.390 . S
C411 H415 0.950 . S
H412 C408 0.950 . S
C413 C411 1.390 . S
C413 C414 1.387 . S
C413 H416 0.950 . S
C414 C413 1.387 . S
C414 C417 1.387 . S
H415 C411 0.950 . S
H416 C413 0.950 . S
C417 C408 1.390 . S
C417 H410 0.950 . S
C417 C414 1.387 . S
C418 C419 1.387 . S
C418 H422 0.950 . S
C418 C427 1.390 . S
C419 C418 1.387 . S
C419 C421 1.387 . S
H420 C427 0.950 . S
C421 C419 1.387 . S
C421 C423 1.390 . S
C421 H425 0.950 . S
H422 C418 0.950 . S
C423 C421 1.390 . S
C423 C424 1.387 . S
C423 H426 0.950 . S
C424 C423 1.387 . S
C424 C427 1.387 . S
H425 C421 0.950 . S
H426 C423 0.950 . S
C427 C418 1.390 . S
C427 H420 0.950 . S
C427 C424 1.387 . S
C428 C429 1.387 . S
C428 H432 0.950 . S
C428 C437 1.390 . S
C429 C428 1.387 . S
C429 C431 1.387 . S
H430 C437 0.950 . S
C431 C429 1.387 . S
C431 C433 1.390 . S
C431 H435 0.950 . S
H432 C428 0.950 . S
C433 C431 1.390 . S
C433 C434 1.387 . S
C433 H436 0.950 . S
C434 C433 1.387 . S
C434 C437 1.387 . S
H435 C431 0.950 . S
H436 C433 0.950 . S
C437 C428 1.390 . S
C437 H430 0.950 . S
C437 C434 1.387 . S
C438 C439 1.387 . S
C438 H442 0.950 . S
C438 C447 1.390 . S
C439 C438 1.387 . S
C439 C441 1.387 . S
H440 C447 0.950 . S
C441 C439 1.387 . S
C441 C443 1.390 . S
C441 H445 0.950 . S
H442 C438 0.950 . S
C443 C441 1.390 . S
C443 C444 1.387 . S
C443 H446 0.950 . S
C444 C443 1.387 . S
C444 C447 1.387 . S
H445 C441 0.950 . S
H446 C443 0.950 . S
C447 C438 1.390 . S
C447 H440 0.950 . S
C447 C444 1.387 . S
C209 C42 1.845 . S
C214 C102 1.790 . S
C219 C26 1.731 . S
C224 C152 1.715 . S
C229 C36 1.741 1_655 S
C234 C78 1.726 1_455 S
C239 C154 1.722 . S
C244 C32 1.739 1_565 S
C249 C4 1.782 . S
C254 C84 1.802 1_655 S
C259 C48 1.707 . S
C264 C130 1.724 . S
C269 C100 1.850 . S
C274 C18 1.864 . S
C279 C136 1.730 1_565 S
C284 C50 1.713 . S
C289 C201 0.780 . S
C294 C34 0.785 . S
C299 C186 0.771 . S
C304 C39 0.766 . S
C309 C190 0.776 . S
C314 C45 0.780 . S
C319 C30 0.773 . S
C324 C195 0.776 . S
C329 C188 1.240 . S
C334 C91 1.296 . S
C339 C86 1.299 . S
C344 C182 1.288 . S
C349 C97 1.386 . S
C354 C206 1.305 . S
C359 C204 1.332 . S
C364 C82 1.378 . S
C369 C134 1.215 . S
C374 C94 1.162 . S
C379 C70 1.224 . S
C384 C149 1.274 . S
C389 C88 1.167 . S
C394 C143 1.195 . S
C399 C138 1.308 . S
C404 C56 1.229 . S
C409 C198 1.731 . S
C414 C146 1.732 . S
C419 C140 1.722 . S
C424 C192 1.722 . S
C429 C160 1.855 . S
C434 C108 1.856 . S
C439 C122 1.868 . S
C444 C174 1.868 . S
