# Generated by pormake.
# Topology qtz-x, (6)-cn, num edge types: 1
# Building blocks:
#     Node 0, Type 0, BuildingBlock: BETDIP_clean_sbu_0, # of connection points: 6
#     Node 1, Type 0, BuildingBlock: BETDIP_clean_sbu_0, # of connection points: 6
#     Node 2, Type 0, BuildingBlock: BETDIP_clean_sbu_0, # of connection points: 6
#     Edge 3, Type (0, 0), BuildingBlock: XIVTED_clean_linker_0, # of connection points: 2
#     Edge 4, Type (0, 0), BuildingBlock: XIVTED_clean_linker_0, # of connection points: 2
#     Edge 5, Type (0, 0), BuildingBlock: XIVTED_clean_linker_0, # of connection points: 2
#     Edge 6, Type (0, 0), BuildingBlock: XIVTED_clean_linker_0, # of connection points: 2
#     Edge 7, Type (0, 0), BuildingBlock: XIVTED_clean_linker_0, # of connection points: 2
#     Edge 8, Type (0, 0), BuildingBlock: XIVTED_clean_linker_0, # of connection points: 2
#     Edge 9, Type (0, 0), BuildingBlock: XIVTED_clean_linker_0, # of connection points: 2
#     Edge 10, Type (0, 0), BuildingBlock: XIVTED_clean_linker_0, # of connection points: 2
#     Edge 11, Type (0, 0), BuildingBlock: XIVTED_clean_linker_0, # of connection points: 2
# Relax obj value: 0.238
# Max RMSD: 0.259
# Mean RMSD: 0.240
data_MOF--net-qtz-x--node1-BETDIP_clean_sbu_0--edge1-XIVTED_clean_linker_0
_symmetry_space_group_name_H-M    P1
_symmetry_Int_Tables_number       1
_symmetry_cell_setting            triclinic
loop_
_symmetry_equiv_pos_as_xyz
'x, y, z'
_cell_length_a     14.542181
_cell_length_b     14.636152
_cell_length_c     52.840515
_cell_angle_alpha  68.488341
_cell_angle_beta   113.52293
_cell_angle_gamma 120.90302
loop_
_atom_site_label
_atom_site_type_symbol
_atom_site_fract_x
_atom_site_fract_y
_atom_site_fract_z
_atom_type_partial_charge
Tb0 Tb 1.03374 0.63549 0.19669 0.0
Tb1 Tb 0.26149 0.77952 0.19196 0.0
C2 C 0.86803 0.48209 0.21376 0.0
C3 C 0.84117 0.44624 0.24095 0.0
C4 C 0.76198 0.34054 0.24853 0.0
C5 C 0.74041 0.30485 0.27495 0.0
C6 C 0.79828 0.37415 0.29438 0.0
C7 C 0.8769 0.48056 0.28644 0.0
C8 C 0.89773 0.51623 0.26 0.0
C9 C 0.08701 0.8447 0.18783 0.0
C10 C 0.2378 0.69963 0.25183 0.0
C11 C 0.42599 0.92616 0.17418 0.0
C12 C 0.45631 0.93445 0.14962 0.0
C13 C 0.47667 0.02959 0.12853 0.0
C14 C 0.49126 0.03241 0.10354 0.0
C15 C 0.48652 0.94028 0.09943 0.0
C16 C 0.46767 0.84584 0.12075 0.0
C17 C 0.45213 0.84269 0.14548 0.0
C18 C 0.2069 0.56969 0.20022 0.0
C19 C 0.06382 0.72066 0.13618 0.0
O20 O 0.95234 0.47017 0.21453 0.0
O21 O 0.87136 0.57709 0.19903 0.0
O22 O 0.14842 0.79757 0.20367 0.0
O23 O 0.98999 0.77287 0.17756 0.0
O24 O 0.13744 0.62773 0.24103 0.0
O25 O 0.29694 0.78291 0.23527 0.0
O26 O 0.33468 0.93612 0.16813 0.0
O27 O 0.43149 0.84554 0.19544 0.0
O28 O 0.14641 0.61789 0.18474 0.0
O29 O 0.30443 0.64133 0.21013 0.0
O30 O 0.16351 0.78916 0.14802 0.0
O31 O 0.99753 0.64017 0.15184 0.0
H32 H 0.71736 0.28531 0.23411 0.0
H33 H 0.67816 0.22299 0.28009 0.0
H34 H 0.92463 0.53583 0.30089 0.0
H35 H 0.9594 0.59822 0.25461 0.0
H36 H 0.47848 0.10068 0.13108 0.0
H37 H 0.50607 0.10639 0.08745 0.0
H38 H 0.4616 0.77299 0.11798 0.0
H39 H 0.43372 0.76708 0.16098 0.0
Tb40 Tb 0.84021 0.16892 0.55477 0.0
Tb41 Tb 0.74958 0.93716 0.55285 0.0
C42 C 0.88432 0.33939 0.56736 0.0
C43 C 0.90947 0.3655 0.59447 0.0
C44 C 0.85648 0.28703 0.61538 0.0
C45 C 0.88712 0.30951 0.64181 0.0
C46 C 0.97089 0.41123 0.64789 0.0
C47 C 1.02305 0.49005 0.62679 0.0
C48 C 0.99268 0.4672 0.60034 0.0
C49 C 0.98086 0.11779 0.55006 0.0
C50 C 0.83614 -0.0139 0.61211 0.0
C51 C 0.7023 0.76467 0.54059 0.0
C52 C 0.66952 0.73469 0.51345 0.0
C53 C 0.72496 0.8061 0.49246 0.0
C54 C 0.68224 0.78533 0.46531 0.0
C55 C 0.5833 0.69247 0.45853 0.0
C56 C 0.53138 0.61811 0.48006 0.0
C57 C 0.57402 0.63923 0.50722 0.0
C58 C 0.6093 -0.01085 0.55755 0.0
C59 C 0.7548 0.12159 0.49545 0.0
O60 O 0.78292 0.26876 0.55794 0.0
O61 O 0.95892 0.32085 0.56491 0.0
O62 O 0.91331 0.05965 0.56523 0.0
O63 O 0.97492 0.21005 0.53819 0.0
O64 O 0.84393 0.08497 0.59889 0.0
O65 O 0.8109 0.91334 0.59842 0.0
O66 O 0.80439 0.8371 0.5486 0.0
O67 O 0.6302 0.78333 0.54425 0.0
O68 O 0.67663 0.04634 0.54235 0.0
O69 O 0.615 0.89689 0.56944 0.0
O70 O 0.74819 0.02271 0.50864 0.0
O71 O 0.7777 0.19265 0.50936 0.0
H72 H 0.79226 0.20765 0.61147 0.0
H73 H 0.84633 0.24633 0.65766 0.0
H74 H 0.08683 0.56968 0.63064 0.0
H75 H 1.03496 0.52861 0.58455 0.0
H76 H 0.79854 0.88072 0.49659 0.0
H77 H 0.724 0.84533 0.44931 0.0
H78 H 0.45641 0.54467 0.47581 0.0
H79 H 0.53003 0.58289 0.52312 0.0
Tb80 Tb 0.81496 0.85701 0.86323 0.0
Tb81 Tb 0.99124 0.78098 0.88191 0.0
C82 C 0.6478 0.87909 0.85837 0.0
C83 C 0.5992 0.87057 0.87933 0.0
C84 C 0.58425 0.78294 0.90258 0.0
C85 C 0.55626 0.78468 0.9247 0.0
C86 C 0.54364 0.87444 0.92421 0.0
C87 C 0.55149 0.95875 0.90009 0.0
C88 C 0.57909 0.95674 0.87784 0.0
C89 C 1.01739 0.01292 0.8635 0.0
C90 C 0.93172 0.79997 0.92876 0.0
C91 C 0.15638 0.75541 0.88695 0.0
C92 C 0.17322 0.70534 0.87034 0.0
C93 C 0.2391 0.77141 0.85124 0.0
C94 C 0.23737 0.72764 0.83145 0.0
C95 C 0.17015 0.61683 0.83053 0.0
C96 C 0.11278 0.54916 0.85137 0.0
C97 C 0.11405 0.59285 0.87102 0.0
C98 C 0.78774 0.62384 0.88029 0.0
C99 C 0.87629 0.84045 0.81577 0.0
O100 O 0.64252 0.78905 0.8569 0.0
O101 O 0.74567 0.96031 0.85786 0.0
O102 O 0.99132 0.92615 0.88177 0.0
O103 O 0.92806 0.01764 0.84495 0.0
O104 O 0.83916 0.79997 0.90942 0.0
O105 O 1.01556 0.81376 0.92142 0.0
O106 O 0.14553 0.84587 0.87364 0.0
O107 O 0.08393 0.68979 0.90176 0.0
O108 O 0.81566 0.71265 0.86293 0.0
O109 O 0.87661 0.61644 0.89821 0.0
O110 O 0.96135 0.82533 0.83569 0.0
O111 O 0.7976 0.84238 0.82189 0.0
H112 H 0.59882 0.71509 0.9043 0.0
H113 H 0.54839 0.7173 0.9427 0.0
H114 H 0.54263 0.02921 0.89906 0.0
H115 H 0.59017 0.02514 0.86009 0.0
H116 H 0.28683 0.8581 0.85053 0.0
H117 H 0.28282 0.78205 0.81574 0.0
H118 H 0.06259 0.46294 0.85169 0.0
H119 H 0.06392 0.53896 0.88577 0.0
H120 H 0.27492 -0.00586 0.21628 0.0
H121 H 1.01881 0.42178 0.17114 0.0
H122 H 0.94684 0.94351 0.1616 0.0
H123 H 0.34582 0.47002 0.22621 0.0
H124 H 0.98998 0.24609 0.16744 0.0
H125 H 0.30324 0.1698 0.21969 0.0
C126 C 0.20907 0.02032 0.20488 0.0
C127 C 0.10829 0.95408 0.1887 0.0
C128 C 0.06799 0.29497 0.18038 0.0
C129 C 0.13965 0.15483 0.1926 0.0
C130 C 0.08427 0.39508 0.18255 0.0
C131 C 0.18492 0.46057 0.19896 0.0
C132 C 0.15303 0.26008 0.19473 0.0
C133 C 0.26701 0.42214 0.21329 0.0
C134 C 0.22508 0.12048 0.20689 0.0
C135 C 1.02578 -0.008 0.17435 0.0
N136 N 0.24939 0.32473 0.2108 0.0
N137 N 1.04313 0.08958 0.17669 0.0
H138 H 0.45759 0.86522 0.58832 0.0
H139 H 0.13374 0.24309 0.51959 0.0
H140 H 0.55566 0.16063 0.52582 0.0
H141 H 1.03382 0.94574 0.58141 0.0
H142 H 0.28793 0.21426 0.5215 0.0
H143 H 0.30354 0.89425 0.58638 0.0
C144 C 0.44686 0.93656 0.57422 0.0
C145 C 0.51953 0.0106 0.55716 0.0
C146 C 0.23236 0.15506 0.53463 0.0
C147 C 0.34251 0.04432 0.55477 0.0
C148 C 0.14409 0.17138 0.53353 0.0
C149 C 0.07086 0.09672 0.55041 0.0
C150 C 0.24804 0.06327 0.55279 0.0
C151 C 0.08817 0.00522 0.56801 0.0
C152 C 0.35866 0.95299 0.57311 0.0
C153 C 0.50176 0.10167 0.53937 0.0
N154 N 0.17508 -0.0088 0.56879 0.0
N155 N 0.41494 0.11584 0.53859 0.0
H156 H 0.08098 0.21134 0.82774 0.0
H157 H 0.72077 0.42862 0.91669 0.0
H158 H 0.21099 0.01952 0.9033 0.0
H159 H 0.59686 0.61475 0.83848 0.0
H160 H 0.5338 0.27942 0.91252 0.0
H161 H 0.26783 0.36128 0.83159 0.0
C162 C 0.14902 0.20071 0.8451 0.0
C163 C 0.13053 0.10291 0.86525 0.0
C164 C 0.54718 0.3529 0.89627 0.0
C165 C 0.34477 0.27415 0.86982 0.0
C166 C 0.65398 0.43814 0.89866 0.0
C167 C 0.67419 0.53435 0.87797 0.0
C168 C 0.45952 0.36378 0.873 0.0
C169 C 0.58466 0.54233 0.85504 0.0
C170 C 0.2557 0.28635 0.8473 0.0
C171 C 0.22158 0.09356 0.88732 0.0
N172 N 0.48123 0.45822 0.85318 0.0
N173 N 0.32462 0.17804 0.88902 0.0
H174 H 0.6535 0.82234 0.97889 0.0
H175 H 0.38842 0.01528 0.0449 0.0
H176 H 0.41326 0.95255 0.92797 0.0
H177 H 0.61181 0.86409 0.09369 0.0
H178 H 0.40143 0.00217 1.00153 0.0
H179 H 0.64168 0.843 1.02089 0.0
C180 C 0.597 0.85403 0.97654 0.0
C181 C 0.5332 0.88444 0.94982 0.0
C182 C 0.44787 -0.02768 1.02174 0.0
C183 C 0.52113 0.91082 0.9981 0.0
C184 C 0.44113 -0.01949 0.04645 0.0
C185 C 0.49899 0.94048 0.0729 0.0
C186 C 0.51342 0.92431 1.02358 0.0
C187 C 0.56489 0.89488 0.07375 0.0
C188 C 0.59107 0.86681 1.00059 0.0
C189 C 0.46416 0.9283 0.94813 0.0
N190 N 0.57016 0.88798 0.0495 0.0
N191 N 0.4598 0.94004 0.97197 0.0
H192 H 0.68958 -0.00586 0.4588 0.0
H193 H 0.79674 0.48845 0.32556 0.0
H194 H 0.7949 0.32548 0.46156 0.0
H195 H 0.75637 0.17092 0.32893 0.0
H196 H 0.77576 0.42594 0.37347 0.0
H197 H 0.69109 0.05278 0.40932 0.0
C198 C 0.71292 0.07921 0.44903 0.0
C199 C 0.7438 0.15497 0.46461 0.0
C200 C 0.7711 0.36988 0.36367 0.0
C201 C 0.74462 0.22308 0.4076 0.0
C202 C 0.78371 0.40566 0.33631 0.0
C203 C 0.77917 0.3353 0.32304 0.0
C204 C 0.75314 0.26258 0.37798 0.0
C205 C 0.75936 0.22805 0.33799 0.0
C206 C 0.71356 0.11272 0.42069 0.0
C207 C 0.77089 0.26405 0.4505 0.0
N208 N 0.74744 0.19524 0.36461 0.0
N209 N 0.77119 0.29487 0.42287 0.0
H210 H 0.69024 0.77833 0.77194 0.0
H211 H 0.98295 0.11575 0.65009 0.0
H212 H 1.0483 0.93541 0.792 0.0
H213 H 0.72043 0.79324 0.64379 0.0
H214 H 0.99506 0.07402 0.70043 0.0
H215 H 0.68405 0.80514 0.72255 0.0
C216 C 0.76733 0.8186 0.76593 0.0
C217 C 0.86994 0.85479 0.78601 0.0
C218 C 0.93572 0.01218 0.68804 0.0
C219 C 0.86319 0.88721 0.72983 0.0
C220 C 0.92875 0.03574 0.65942 0.0
C221 C 0.85151 0.95721 0.64293 0.0
C222 C 0.86231 0.91078 0.70003 0.0
C223 C 0.78223 0.85526 0.65594 0.0
C224 C 0.76369 0.8331 0.7379 0.0
C225 C 0.9675 0.90596 0.77718 0.0
N226 N 0.78795 0.83539 0.6837 0.0
N227 N 0.96178 0.92216 0.74964 0.0
H228 H 0.77016 0.73674 0.95461 0.0
H229 H 0.20847 0.83436 0.10363 0.0
H230 H 0.12059 0.83286 0.97199 0.0
H231 H 0.85936 0.62999 0.09809 0.0
H232 H 0.17139 0.85252 0.05367 0.0
H233 H 0.7951 0.71405 1.00513 0.0
C234 C 0.85218 0.75329 0.96895 0.0
C235 C 0.94347 0.78688 0.95897 0.0
C236 C 0.10241 0.80361 0.0632 0.0
C237 C 0.97223 0.76135 1.01656 0.0
C238 C 0.12332 0.79344 0.09191 0.0
C239 C 1.03669 0.73052 0.10529 0.0
C240 C 0.99363 0.75157 0.04722 0.0
C241 C 0.92858 0.67905 0.08868 0.0
C242 C 0.86607 0.73971 0.99776 0.0
C243 C 1.04764 0.80666 0.97857 0.0
N244 N 0.90984 0.69113 0.06038 0.0
N245 N 1.05903 0.79408 1.00625 0.0
H246 H 0.13066 0.56758 0.29375 0.0
H247 H 0.68651 0.74209 0.41839 0.0
H248 H 0.45264 0.80544 0.28039 0.0
H249 H 0.36095 0.61029 0.43044 0.0
H250 H 0.60072 0.73627 0.36848 0.0
H251 H 0.21289 0.55452 0.34482 0.0
C252 C 0.21839 0.61693 0.3015 0.0
C253 C 0.28457 0.68852 0.28274 0.0
C254 C 0.54812 0.70811 0.38212 0.0
C255 C 0.37925 0.67237 0.34096 0.0
C256 C 0.59704 0.71172 0.41064 0.0
C257 C 0.53129 0.67782 0.42877 0.0
C258 C 0.43232 0.66932 0.37154 0.0
C259 C 0.41526 0.63644 0.41746 0.0
C260 C 0.26519 0.6094 0.33062 0.0
C261 C 0.39809 0.74993 0.29401 0.0
N262 N 0.36951 0.63374 0.38955 0.0
N263 N 0.44178 0.74019 0.32233 0.0
H264 H 0.31822 0.66004 0.80276 0.0
H265 H 0.83418 0.35358 0.68015 0.0
H266 H 0.97139 0.48023 0.80191 0.0
H267 H 0.17981 0.52288 0.67989 0.0
H268 H 0.88655 0.39258 0.7262 0.0
H269 H 0.27319 0.6039 0.75924 0.0
C270 C 0.23291 0.60824 0.79356 0.0
C271 C 0.14853 0.57488 0.80604 0.0
C272 C 0.95123 0.42102 0.71617 0.0
C273 C 0.09642 0.51084 0.7563 0.0
C274 C 0.92132 0.39825 0.68987 0.0
C275 C 1.00262 0.4349 0.67605 0.0
C276 C 0.06342 0.48141 0.72889 0.0
C277 C 0.11411 0.49429 0.68956 0.0
C278 C 0.20728 0.57607 0.76877 0.0
C279 C 1.03958 0.5068 0.79336 0.0
N280 N 0.14123 0.5159 0.71521 0.0
N281 N 1.01674 0.4778 0.76917 0.0
loop_
_geom_bond_atom_site_label_1
_geom_bond_atom_site_label_2
_geom_bond_distance
_geom_bond_site_symmetry_2
_ccdc_geom_bond_type
Tb0 C2 2.809 . S
Tb0 O20 2.484 . S
Tb0 O21 2.440 . S
Tb0 O22 2.658 1_655 S
Tb0 O23 2.409 . S
Tb0 O24 2.378 1_655 S
Tb0 O28 2.325 . S
Tb0 O31 2.341 . S
Tb1 C11 2.809 . S
Tb1 O22 2.325 . S
Tb1 O25 2.341 . S
Tb1 O26 2.484 . S
Tb1 O27 2.440 . S
Tb1 O28 2.658 1_455 S
Tb1 O29 2.409 . S
Tb1 O30 2.378 1_455 S
C2 Tb0 2.809 . S
C2 C3 1.514 . S
C2 O20 1.248 . S
C2 O21 1.266 . S
C3 C2 1.514 . S
C3 C4 1.359 . S
C3 C8 1.348 . S
C4 C3 1.359 . S
C4 C5 1.380 . S
C4 H32 0.929 . S
C5 C4 1.380 . S
C5 C6 1.347 . S
C5 H33 0.931 . S
C6 C5 1.347 . S
C6 C7 1.369 . S
C7 C6 1.369 . S
C7 C8 1.408 . S
C7 H34 0.930 . S
C8 C3 1.348 . S
C8 C7 1.408 . S
C8 H35 0.930 . S
C9 O22 1.281 1_655 S
C9 O23 1.254 . S
C10 O24 1.236 . S
C10 O25 1.266 . S
C11 Tb1 2.809 . S
C11 C12 1.514 . S
C11 O26 1.248 . S
C11 O27 1.266 . S
C12 C11 1.514 . S
C12 C13 1.359 . S
C12 C17 1.348 . S
C13 C12 1.359 . S
C13 C14 1.380 1_565 S
C13 H36 0.929 1_565 S
C14 C13 1.380 1_545 S
C14 C15 1.347 1_545 S
C14 H37 0.931 . S
C15 C14 1.347 1_565 S
C15 C16 1.369 . S
C16 C15 1.369 . S
C16 C17 1.408 . S
C16 H38 0.930 . S
C17 C12 1.348 . S
C17 C16 1.408 . S
C17 H39 0.930 . S
C18 O28 1.281 1_455 S
C18 O29 1.254 . S
C19 O30 1.236 . S
C19 O31 1.266 . S
O20 Tb0 2.484 . S
O20 C2 1.248 . S
O21 Tb0 2.440 . S
O21 C2 1.266 . S
O22 Tb0 2.658 1_455 S
O22 Tb1 2.325 . S
O22 C9 1.281 1_455 S
O23 Tb0 2.409 . S
O23 C9 1.254 . S
O24 Tb0 2.378 1_455 S
O24 C10 1.236 . S
O25 Tb1 2.341 . S
O25 C10 1.266 . S
O26 Tb1 2.484 . S
O26 C11 1.248 . S
O27 Tb1 2.440 . S
O27 C11 1.266 . S
O28 Tb0 2.325 . S
O28 Tb1 2.658 1_655 S
O28 C18 1.281 1_655 S
O29 Tb1 2.409 . S
O29 C18 1.254 . S
O30 Tb1 2.378 1_655 S
O30 C19 1.236 . S
O31 Tb0 2.341 . S
O31 C19 1.266 . S
H32 C4 0.929 . S
H33 C5 0.931 . S
H34 C7 0.930 . S
H35 C8 0.930 . S
H36 C13 0.929 1_545 S
H37 C14 0.931 . S
H38 C16 0.930 . S
H39 C17 0.930 . S
Tb40 C42 2.809 . S
Tb40 O60 2.484 . S
Tb40 O61 2.440 . S
Tb40 O62 2.658 1_545 S
Tb40 O63 2.409 . S
Tb40 O64 2.378 . S
Tb40 O68 2.325 . S
Tb40 O71 2.341 . S
Tb41 C51 2.809 . S
Tb41 O62 2.325 . S
Tb41 O65 2.341 . S
Tb41 O66 2.484 . S
Tb41 O67 2.440 . S
Tb41 O68 2.658 1_565 S
Tb41 O69 2.409 . S
Tb41 O70 2.378 1_565 S
C42 Tb40 2.809 . S
C42 C43 1.514 . S
C42 O60 1.248 . S
C42 O61 1.266 . S
C43 C42 1.514 . S
C43 C44 1.359 . S
C43 C48 1.348 1_655 S
C44 C43 1.359 . S
C44 C45 1.380 . S
C44 H72 0.929 . S
C45 C44 1.380 . S
C45 C46 1.347 . S
C45 H73 0.931 . S
C46 C45 1.347 . S
C46 C47 1.369 1_655 S
C47 C46 1.369 1_455 S
C47 C48 1.408 . S
C47 H74 0.930 . S
C48 C43 1.348 1_455 S
C48 C47 1.408 . S
C48 H75 0.930 . S
C49 O62 1.281 1_545 S
C49 O63 1.254 . S
C50 O64 1.236 1_565 S
C50 O65 1.266 . S
C51 Tb41 2.809 . S
C51 C52 1.514 . S
C51 O66 1.248 . S
C51 O67 1.266 . S
C52 C51 1.514 . S
C52 C53 1.359 . S
C52 C57 1.348 . S
C53 C52 1.359 . S
C53 C54 1.380 . S
C53 H76 0.929 . S
C54 C53 1.380 . S
C54 C55 1.347 . S
C54 H77 0.931 . S
C55 C54 1.347 . S
C55 C56 1.369 . S
C56 C55 1.369 . S
C56 C57 1.408 . S
C56 H78 0.930 . S
C57 C52 1.348 . S
C57 C56 1.408 . S
C57 H79 0.930 . S
C58 O68 1.281 1_565 S
C58 O69 1.254 . S
C59 O70 1.236 . S
C59 O71 1.266 . S
O60 Tb40 2.484 . S
O60 C42 1.248 . S
O61 Tb40 2.440 . S
O61 C42 1.266 . S
O62 Tb40 2.658 1_565 S
O62 Tb41 2.325 . S
O62 C49 1.281 1_565 S
O63 Tb40 2.409 . S
O63 C49 1.254 . S
O64 Tb40 2.378 . S
O64 C50 1.236 1_545 S
O65 Tb41 2.341 . S
O65 C50 1.266 . S
O66 Tb41 2.484 . S
O66 C51 1.248 . S
O67 Tb41 2.440 . S
O67 C51 1.266 . S
O68 Tb40 2.325 . S
O68 Tb41 2.658 1_545 S
O68 C58 1.281 1_545 S
O69 Tb41 2.409 . S
O69 C58 1.254 . S
O70 Tb41 2.378 1_545 S
O70 C59 1.236 . S
O71 Tb40 2.341 . S
O71 C59 1.266 . S
H72 C44 0.929 . S
H73 C45 0.931 . S
H74 C47 0.930 . S
H75 C48 0.930 . S
H76 C53 0.929 . S
H77 C54 0.931 . S
H78 C56 0.930 . S
H79 C57 0.930 . S
Tb80 C82 2.809 . S
Tb80 O100 2.484 1_545 S
Tb80 O101 2.440 . S
Tb80 O102 2.658 1_655 S
Tb80 O103 2.409 1_655 S
Tb80 O104 2.378 1_545 S
Tb80 O108 2.325 1_545 S
Tb80 O111 2.341 1_545 S
Tb81 C91 2.809 1_655 S
Tb81 O102 2.325 1_665 S
Tb81 O105 2.341 . S
Tb81 O106 2.484 1_655 S
Tb81 O107 2.440 . S
Tb81 O108 2.658 . S
Tb81 O109 2.409 . S
Tb81 O110 2.378 . S
C82 Tb80 2.809 . S
C82 C83 1.514 . S
C82 O100 1.248 1_545 S
C82 O101 1.266 . S
C83 C82 1.514 . S
C83 C84 1.359 1_545 S
C83 C88 1.348 . S
C84 C83 1.359 1_565 S
C84 C85 1.380 . S
C84 H112 0.929 . S
C85 C84 1.380 . S
C85 C86 1.347 1_565 S
C85 H113 0.931 . S
C86 C85 1.347 1_545 S
C86 C87 1.369 . S
C87 C86 1.369 . S
C87 C88 1.408 . S
C87 H114 0.930 . S
C88 C83 1.348 . S
C88 C87 1.408 . S
C88 H115 0.930 . S
C89 O102 1.281 . S
C89 O103 1.254 . S
C90 O104 1.236 . S
C90 O105 1.266 . S
C91 Tb81 2.809 1_455 S
C91 C92 1.514 . S
C91 O106 1.248 . S
C91 O107 1.266 1_455 S
C92 C91 1.514 . S
C92 C93 1.359 . S
C92 C97 1.348 . S
C93 C92 1.359 . S
C93 C94 1.380 . S
C93 H116 0.929 . S
C94 C93 1.380 . S
C94 C95 1.347 . S
C94 H117 0.931 . S
C95 C94 1.347 . S
C95 C96 1.369 . S
C96 C95 1.369 . S
C96 C97 1.408 . S
C96 H118 0.930 . S
C97 C92 1.348 . S
C97 C96 1.408 . S
C97 H119 0.930 1_455 S
C98 O108 1.281 . S
C98 O109 1.254 . S
C99 O110 1.236 . S
C99 O111 1.266 . S
O100 Tb80 2.484 1_565 S
O100 C82 1.248 1_565 S
O101 Tb80 2.440 . S
O101 C82 1.266 . S
O102 Tb80 2.658 1_455 S
O102 Tb81 2.325 1_445 S
O102 C89 1.281 . S
O103 Tb80 2.409 1_455 S
O103 C89 1.254 . S
O104 Tb80 2.378 1_565 S
O104 C90 1.236 . S
O105 Tb81 2.341 . S
O105 C90 1.266 . S
O106 Tb81 2.484 1_455 S
O106 C91 1.248 . S
O107 Tb81 2.440 . S
O107 C91 1.266 1_655 S
O108 Tb80 2.325 1_565 S
O108 Tb81 2.658 . S
O108 C98 1.281 . S
O109 Tb81 2.409 . S
O109 C98 1.254 . S
O110 Tb81 2.378 . S
O110 C99 1.236 . S
O111 Tb80 2.341 1_565 S
O111 C99 1.266 . S
H112 C84 0.929 . S
H113 C85 0.931 . S
H114 C87 0.930 . S
H115 C88 0.930 . S
H116 C93 0.929 . S
H117 C94 0.931 . S
H118 C96 0.930 . S
H119 C97 0.930 1_655 S
H120 C126 0.930 . S
H121 C130 0.930 . S
H122 C135 0.929 . S
H123 C133 0.929 . S
H124 C128 0.929 . S
H125 C134 0.929 . S
C126 H120 0.930 . S
C126 C127 1.367 . S
C126 C134 1.378 1_565 S
C127 C126 1.367 . S
C127 C135 1.433 1_465 S
C128 H124 0.929 . S
C128 C130 1.378 . S
C128 C132 1.350 . S
C129 C132 1.463 1_455 S
C129 C134 1.350 . S
C129 N137 1.427 1_455 S
C130 H121 0.930 . S
C130 C128 1.378 . S
C130 C131 1.367 . S
C131 C130 1.367 . S
C131 C133 1.433 1_655 S
C132 C128 1.350 . S
C132 C129 1.463 1_655 S
C132 N136 1.427 1_655 S
C133 H123 0.929 . S
C133 C131 1.433 1_455 S
C133 N136 1.384 . S
C134 H125 0.929 . S
C134 C126 1.378 1_545 S
C134 C129 1.350 . S
C135 H122 0.929 . S
C135 C127 1.433 1_645 S
C135 N137 1.384 . S
N136 C132 1.427 1_455 S
N136 C133 1.384 . S
N137 C129 1.427 1_655 S
N137 C135 1.384 . S
H138 C144 0.930 . S
H139 C148 0.930 . S
H140 C153 0.929 . S
H141 C151 0.929 . S
H142 C146 0.929 . S
H143 C152 0.929 . S
C144 H138 0.930 . S
C144 C145 1.367 1_565 S
C144 C152 1.378 . S
C145 C144 1.367 1_545 S
C145 C153 1.433 . S
C146 H142 0.929 . S
C146 C148 1.378 . S
C146 C150 1.350 . S
C147 C150 1.463 . S
C147 C152 1.350 1_545 S
C147 N155 1.427 . S
C148 H139 0.930 . S
C148 C146 1.378 . S
C148 C149 1.367 . S
C149 C148 1.367 . S
C149 C151 1.433 1_545 S
C150 C146 1.350 . S
C150 C147 1.463 . S
C150 N154 1.427 1_545 S
C151 H141 0.929 . S
C151 C149 1.433 1_565 S
C151 N154 1.384 . S
C152 H143 0.929 . S
C152 C144 1.378 . S
C152 C147 1.350 1_565 S
C153 H140 0.929 . S
C153 C145 1.433 . S
C153 N155 1.384 . S
N154 C150 1.427 1_565 S
N154 C151 1.384 . S
N155 C147 1.427 . S
N155 C153 1.384 . S
H156 C162 0.930 . S
H157 C166 0.930 . S
H158 C171 0.929 . S
H159 C169 0.929 . S
H160 C164 0.929 . S
H161 C170 0.929 . S
C162 H156 0.930 . S
C162 C163 1.367 . S
C162 C170 1.378 . S
C163 C162 1.367 . S
C163 C171 1.433 . S
C164 H160 0.929 . S
C164 C166 1.378 . S
C164 C168 1.350 . S
C165 C168 1.463 . S
C165 C170 1.350 . S
C165 N173 1.427 . S
C166 H157 0.930 . S
C166 C164 1.378 . S
C166 C167 1.367 . S
C167 C166 1.367 . S
C167 C169 1.433 . S
C168 C164 1.350 . S
C168 C165 1.463 . S
C168 N172 1.427 . S
C169 H159 0.929 . S
C169 C167 1.433 . S
C169 N172 1.384 . S
C170 H161 0.929 . S
C170 C162 1.378 . S
C170 C165 1.350 . S
C171 H158 0.929 . S
C171 C163 1.433 . S
C171 N173 1.384 . S
N172 C168 1.427 . S
N172 C169 1.384 . S
N173 C165 1.427 . S
N173 C171 1.384 . S
H174 C180 0.930 . S
H175 C184 0.930 . S
H176 C189 0.929 . S
H177 C187 0.929 . S
H178 C182 0.929 . S
H179 C188 0.929 1_565 S
C180 H174 0.930 . S
C180 C181 1.367 . S
C180 C188 1.378 . S
C181 C180 1.367 . S
C181 C189 1.433 . S
C182 H178 0.929 . S
C182 C184 1.378 . S
C182 C186 1.350 . S
C183 C186 1.463 . S
C183 C188 1.350 . S
C183 N191 1.427 . S
C184 H175 0.930 . S
C184 C182 1.378 . S
C184 C185 1.367 1_556 S
C185 C184 1.367 1_554 S
C185 C187 1.433 1_545 S
C186 C182 1.350 . S
C186 C183 1.463 . S
C186 N190 1.427 1_546 S
C187 H177 0.929 . S
C187 C185 1.433 1_565 S
C187 N190 1.384 . S
C188 H179 0.929 1_545 S
C188 C180 1.378 . S
C188 C183 1.350 . S
C189 H176 0.929 . S
C189 C181 1.433 . S
C189 N191 1.384 . S
N190 C186 1.427 1_564 S
N190 C187 1.384 . S
N191 C183 1.427 . S
N191 C189 1.384 . S
H192 C198 0.930 . S
H193 C202 0.930 . S
H194 C207 0.929 . S
H195 C205 0.929 . S
H196 C200 0.929 . S
H197 C206 0.929 . S
C198 H192 0.930 . S
C198 C199 1.367 . S
C198 C206 1.378 . S
C199 C198 1.367 . S
C199 C207 1.433 . S
C200 H196 0.929 . S
C200 C202 1.378 . S
C200 C204 1.350 . S
C201 C204 1.463 . S
C201 C206 1.350 . S
C201 N209 1.427 . S
C202 H193 0.930 . S
C202 C200 1.378 . S
C202 C203 1.367 . S
C203 C202 1.367 . S
C203 C205 1.433 . S
C204 C200 1.350 . S
C204 C201 1.463 . S
C204 N208 1.427 . S
C205 H195 0.929 . S
C205 C203 1.433 . S
C205 N208 1.384 . S
C206 H197 0.929 . S
C206 C198 1.378 . S
C206 C201 1.350 . S
C207 H194 0.929 . S
C207 C199 1.433 . S
C207 N209 1.384 . S
N208 C204 1.427 . S
N208 C205 1.384 . S
N209 C201 1.427 . S
N209 C207 1.384 . S
H210 C216 0.930 . S
H211 C220 0.927 1_545 S
H212 C225 0.929 . S
H213 C223 0.929 . S
H214 C218 0.929 . S
H215 C224 0.929 . S
C216 H210 0.930 . S
C216 C217 1.367 . S
C216 C224 1.378 . S
C217 C216 1.367 . S
C217 C225 1.433 1_565 S
C218 H214 0.929 . S
C218 C220 1.373 1_545 S
C218 C222 1.350 1_545 S
C219 C222 1.463 . S
C219 C224 1.350 . S
C219 N227 1.427 1_565 S
C220 H211 0.927 1_565 S
C220 C218 1.373 1_565 S
C220 C221 1.376 . S
C221 C220 1.376 . S
C221 C223 1.433 . S
C222 C218 1.350 1_565 S
C222 C219 1.463 . S
C222 N226 1.427 . S
C223 H213 0.929 . S
C223 C221 1.433 . S
C223 N226 1.384 . S
C224 H215 0.929 . S
C224 C216 1.378 . S
C224 C219 1.350 . S
C225 H212 0.929 . S
C225 C217 1.433 1_545 S
C225 N227 1.384 . S
N226 C222 1.427 . S
N226 C223 1.384 . S
N227 C219 1.427 1_545 S
N227 C225 1.384 . S
H228 C234 0.930 . S
H229 C238 0.930 . S
H230 C243 0.929 1_455 S
H231 C241 0.929 . S
H232 C236 0.929 . S
H233 C242 0.929 . S
C234 H228 0.930 . S
C234 C235 1.367 . S
C234 C242 1.378 . S
C235 C234 1.367 . S
C235 C243 1.433 . S
C236 H232 0.929 . S
C236 C238 1.378 . S
C236 C240 1.350 . S
C237 C240 1.463 1_556 S
C237 C242 1.350 . S
C237 N245 1.427 . S
C238 H229 0.930 . S
C238 C236 1.378 . S
C238 C239 1.367 . S
C239 C238 1.367 . S
C239 C241 1.433 . S
C240 C236 1.350 . S
C240 C237 1.463 1_554 S
C240 N244 1.427 . S
C241 H231 0.929 . S
C241 C239 1.433 . S
C241 N244 1.384 . S
C242 H233 0.929 . S
C242 C234 1.378 . S
C242 C237 1.350 . S
C243 H230 0.929 1_655 S
C243 C235 1.433 . S
C243 N245 1.384 . S
N244 C240 1.427 . S
N244 C241 1.384 . S
N245 C237 1.427 . S
N245 C243 1.384 . S
H246 C252 0.930 . S
H247 C256 0.930 . S
H248 C261 0.929 . S
H249 C259 0.929 . S
H250 C254 0.929 . S
H251 C260 0.929 . S
C252 H246 0.930 . S
C252 C253 1.367 . S
C252 C260 1.378 . S
C253 C252 1.367 . S
C253 C261 1.433 . S
C254 H250 0.929 . S
C254 C256 1.378 . S
C254 C258 1.350 . S
C255 C258 1.463 . S
C255 C260 1.350 . S
C255 N263 1.427 . S
C256 H247 0.930 . S
C256 C254 1.378 . S
C256 C257 1.367 . S
C257 C256 1.367 . S
C257 C259 1.433 . S
C258 C254 1.350 . S
C258 C255 1.463 . S
C258 N262 1.427 . S
C259 H249 0.929 . S
C259 C257 1.433 . S
C259 N262 1.384 . S
C260 H251 0.929 . S
C260 C252 1.378 . S
C260 C255 1.350 . S
C261 H248 0.929 . S
C261 C253 1.433 . S
C261 N263 1.384 . S
N262 C258 1.427 . S
N262 C259 1.384 . S
N263 C255 1.427 . S
N263 C261 1.384 . S
H264 C270 0.930 . S
H265 C274 0.930 . S
H266 C279 0.929 1_655 S
H267 C277 0.929 . S
H268 C272 0.929 . S
H269 C278 0.929 . S
C270 H264 0.930 . S
C270 C271 1.367 . S
C270 C278 1.378 . S
C271 C270 1.367 . S
C271 C279 1.433 . S
C272 H268 0.929 . S
C272 C274 1.378 . S
C272 C276 1.350 1_655 S
C273 C276 1.463 . S
C273 C278 1.350 . S
C273 N281 1.414 1_455 S
C274 H265 0.930 . S
C274 C272 1.378 . S
C274 C275 1.367 1_655 S
C275 C274 1.367 1_455 S
C275 C277 1.433 . S
C276 C272 1.350 1_455 S
C276 C273 1.463 . S
C276 N280 1.427 . S
C277 H267 0.929 . S
C277 C275 1.433 . S
C277 N280 1.384 . S
C278 H269 0.929 . S
C278 C270 1.378 . S
C278 C273 1.350 . S
C279 H266 0.929 1_455 S
C279 C271 1.433 . S
C279 N281 1.389 1_455 S
N280 C276 1.427 . S
N280 C277 1.384 . S
N281 C273 1.414 1_655 S
N281 C279 1.389 1_655 S
C127 C9 1.548 1_455 S
C131 C18 1.548 1_655 S
C145 C58 1.614 1_545 S
C149 C49 1.614 1_455 S
C163 C89 1.328 . S
C167 C98 1.328 . S
C181 C86 0.976 . S
C185 C15 0.979 1_545 S
C199 C59 1.883 . S
C203 C6 1.834 . S
C217 C99 2.429 . S
C221 C50 2.426 . S
C235 C90 2.397 . S
C239 C19 2.336 . S
C253 C10 1.850 . S
C257 C55 1.743 . S
C271 C95 1.015 . S
C275 C46 1.029 1_455 S
