# Generated by pormake.
# Topology pcl, (4)-cn, num edge types: 1
# Building blocks:
#     Node 0, Type 0, BuildingBlock: QUQFOY_clean_sbu_3, # of connection points: 4
#     Node 1, Type 0, BuildingBlock: QUQFOY_clean_sbu_3, # of connection points: 4
#     Node 2, Type 0, BuildingBlock: QUQFOY_clean_sbu_3, # of connection points: 4
#     Node 3, Type 0, BuildingBlock: QUQFOY_clean_sbu_3, # of connection points: 4
#     Node 4, Type 0, BuildingBlock: QUQFOY_clean_sbu_3, # of connection points: 4
#     Node 5, Type 0, BuildingBlock: QUQFOY_clean_sbu_3, # of connection points: 4
#     Node 6, Type 0, BuildingBlock: QUQFOY_clean_sbu_3, # of connection points: 4
#     Node 7, Type 0, BuildingBlock: QUQFOY_clean_sbu_3, # of connection points: 4
#     Node 8, Type 0, BuildingBlock: QUQFOY_clean_sbu_3, # of connection points: 4
#     Node 9, Type 0, BuildingBlock: QUQFOY_clean_sbu_3, # of connection points: 4
#     Node 10, Type 0, BuildingBlock: QUQFOY_clean_sbu_3, # of connection points: 4
#     Node 11, Type 0, BuildingBlock: QUQFOY_clean_sbu_3, # of connection points: 4
#     Node 12, Type 0, BuildingBlock: QUQFOY_clean_sbu_3, # of connection points: 4
#     Node 13, Type 0, BuildingBlock: QUQFOY_clean_sbu_3, # of connection points: 4
#     Node 14, Type 0, BuildingBlock: QUQFOY_clean_sbu_3, # of connection points: 4
#     Node 15, Type 0, BuildingBlock: QUQFOY_clean_sbu_3, # of connection points: 4
#     Edge 16, Type (0, 0), BuildingBlock: UVAHIK_clean_linker_0, # of connection points: 2
#     Edge 17, Type (0, 0), BuildingBlock: UVAHIK_clean_linker_0, # of connection points: 2
#     Edge 18, Type (0, 0), BuildingBlock: UVAHIK_clean_linker_0, # of connection points: 2
#     Edge 19, Type (0, 0), BuildingBlock: UVAHIK_clean_linker_0, # of connection points: 2
#     Edge 20, Type (0, 0), BuildingBlock: UVAHIK_clean_linker_0, # of connection points: 2
#     Edge 21, Type (0, 0), BuildingBlock: UVAHIK_clean_linker_0, # of connection points: 2
#     Edge 22, Type (0, 0), BuildingBlock: UVAHIK_clean_linker_0, # of connection points: 2
#     Edge 23, Type (0, 0), BuildingBlock: UVAHIK_clean_linker_0, # of connection points: 2
#     Edge 24, Type (0, 0), BuildingBlock: UVAHIK_clean_linker_0, # of connection points: 2
#     Edge 25, Type (0, 0), BuildingBlock: UVAHIK_clean_linker_0, # of connection points: 2
#     Edge 26, Type (0, 0), BuildingBlock: UVAHIK_clean_linker_0, # of connection points: 2
#     Edge 27, Type (0, 0), BuildingBlock: UVAHIK_clean_linker_0, # of connection points: 2
#     Edge 28, Type (0, 0), BuildingBlock: UVAHIK_clean_linker_0, # of connection points: 2
#     Edge 29, Type (0, 0), BuildingBlock: UVAHIK_clean_linker_0, # of connection points: 2
#     Edge 30, Type (0, 0), BuildingBlock: UVAHIK_clean_linker_0, # of connection points: 2
#     Edge 31, Type (0, 0), BuildingBlock: UVAHIK_clean_linker_0, # of connection points: 2
#     Edge 32, Type (0, 0), BuildingBlock: UVAHIK_clean_linker_0, # of connection points: 2
#     Edge 33, Type (0, 0), BuildingBlock: UVAHIK_clean_linker_0, # of connection points: 2
#     Edge 34, Type (0, 0), BuildingBlock: UVAHIK_clean_linker_0, # of connection points: 2
#     Edge 35, Type (0, 0), BuildingBlock: UVAHIK_clean_linker_0, # of connection points: 2
#     Edge 36, Type (0, 0), BuildingBlock: UVAHIK_clean_linker_0, # of connection points: 2
#     Edge 37, Type (0, 0), BuildingBlock: UVAHIK_clean_linker_0, # of connection points: 2
#     Edge 38, Type (0, 0), BuildingBlock: UVAHIK_clean_linker_0, # of connection points: 2
#     Edge 39, Type (0, 0), BuildingBlock: UVAHIK_clean_linker_0, # of connection points: 2
#     Edge 40, Type (0, 0), BuildingBlock: UVAHIK_clean_linker_0, # of connection points: 2
#     Edge 41, Type (0, 0), BuildingBlock: UVAHIK_clean_linker_0, # of connection points: 2
#     Edge 42, Type (0, 0), BuildingBlock: UVAHIK_clean_linker_0, # of connection points: 2
#     Edge 43, Type (0, 0), BuildingBlock: UVAHIK_clean_linker_0, # of connection points: 2
#     Edge 44, Type (0, 0), BuildingBlock: UVAHIK_clean_linker_0, # of connection points: 2
#     Edge 45, Type (0, 0), BuildingBlock: UVAHIK_clean_linker_0, # of connection points: 2
#     Edge 46, Type (0, 0), BuildingBlock: UVAHIK_clean_linker_0, # of connection points: 2
#     Edge 47, Type (0, 0), BuildingBlock: UVAHIK_clean_linker_0, # of connection points: 2
# Relax obj value: 0.064
# Max RMSD: 0.050
# Mean RMSD: 0.047
data_MOF--net-pcl--node1-QUQFOY_clean_sbu_3--edge1-UVAHIK_clean_linker_0
_symmetry_space_group_name_H-M    P1
_symmetry_Int_Tables_number       1
_symmetry_cell_setting            triclinic
loop_
_symmetry_equiv_pos_as_xyz
'x, y, z'
_cell_length_a     69.931101
_cell_length_b     55.678723
_cell_length_c     57.74957
_cell_angle_alpha  89.999178
_cell_angle_beta   90.112199
_cell_angle_gamma 89.994212
loop_
_atom_site_label
_atom_site_type_symbol
_atom_site_fract_x
_atom_site_fract_y
_atom_site_fract_z
_atom_type_partial_charge
C0 C 0.12145 0.38943 0.06229 0.0
O1 O 0.11659 0.3911 0.08339 0.0
Cd2 Cd 0.11393 0.3566 0.10781 0.0
O3 O 0.12622 0.36921 0.05372 0.0
Cd4 Cd 0.13113 0.3269 0.06562 0.0
C5 C 0.08382 0.32181 0.07392 0.0
O6 O 0.14313 0.335 0.10378 0.0
O7 O 0.13383 0.29856 0.09864 0.0
O8 O 0.16153 0.32912 0.04608 0.0
C9 C 0.14174 0.31393 0.11175 0.0
O10 O 0.08681 0.33385 0.09235 0.0
C11 C 0.15922 0.31054 0.0337 0.0
O12 O 0.09733 0.31767 0.0597 0.0
O13 O 0.14347 0.29936 0.03588 0.0
C14 C 0.84406 0.59448 0.5602 0.0
O15 O 0.84704 0.59125 0.58166 0.0
Cd16 Cd 0.85412 0.62366 0.60714 0.0
O17 O 0.84298 0.61566 0.55186 0.0
Cd18 Cd 0.84287 0.65844 0.56443 0.0
C19 C 0.88979 0.65154 0.57461 0.0
O20 O 0.82904 0.65192 0.60177 0.0
O21 O 0.84247 0.68643 0.5979 0.0
O22 O 0.81312 0.66166 0.54374 0.0
C23 C 0.83279 0.67223 0.61044 0.0
O24 O 0.88437 0.63883 0.59174 0.0
C25 C 0.81769 0.67965 0.53149 0.0
O26 O 0.87766 0.66094 0.56082 0.0
O27 O 0.83444 0.6881 0.53433 0.0
C28 C 0.12207 0.59914 0.91672 0.0
O29 O 0.1185 0.59701 0.89525 0.0
Cd30 Cd 0.11686 0.63086 0.86986 0.0
O31 O 0.12608 0.61958 0.9254 0.0
Cd32 Cd 0.13125 0.66194 0.91367 0.0
C33 C 0.08449 0.66566 0.90069 0.0
O34 O 0.14543 0.65271 0.877 0.0
O35 O 0.13752 0.68981 0.88094 0.0
O36 O 0.1598 0.65921 0.93687 0.0
C37 C 0.14538 0.67371 0.86867 0.0
O38 O 0.08879 0.65308 0.883 0.0
C39 C 0.15719 0.67847 0.94814 0.0
O40 O 0.09705 0.67076 0.91593 0.0
O41 O 0.14199 0.6902 0.94377 0.0
C42 C 0.84473 0.38623 0.41304 0.0
O43 O 0.8487 0.38808 0.39167 0.0
Cd44 Cd 0.8539 0.35334 0.368 0.0
O45 O 0.84216 0.36567 0.42219 0.0
Cd46 Cd 0.84064 0.32248 0.41244 0.0
C47 C 0.88786 0.32406 0.40184 0.0
O48 O 0.82751 0.32714 0.37426 0.0
O49 O 0.83898 0.29202 0.38139 0.0
O50 O 0.8107 0.32182 0.43288 0.0
C51 C 0.83036 0.30586 0.36737 0.0
O52 O 0.88319 0.33546 0.38353 0.0
C53 C 0.81504 0.30497 0.44669 0.0
O54 O 0.87526 0.31793 0.41662 0.0
O55 O 0.83168 0.29596 0.44473 0.0
C56 C 0.84763 0.63753 0.85369 0.0
O57 O 0.85386 0.61682 0.859 0.0
Cd58 Cd 0.85568 0.60194 0.89791 0.0
O59 O 0.84169 0.65183 0.86931 0.0
Cd60 Cd 0.83762 0.65277 0.91176 0.0
C61 C 0.88491 0.64546 0.92115 0.0
O62 O 0.82609 0.61188 0.91567 0.0
O63 O 0.83233 0.63 0.94774 0.0
O64 O 0.80758 0.67253 0.90363 0.0
C65 C 0.82602 0.61142 0.93758 0.0
O66 O 0.88198 0.62357 0.91586 0.0
C67 C 0.81003 0.68983 0.91762 0.0
O68 O 0.87158 0.66099 0.9195 0.0
O69 O 0.82579 0.69038 0.92862 0.0
C70 C 0.12288 0.34718 0.35385 0.0
O71 O 0.11611 0.36781 0.35841 0.0
Cd72 Cd 0.1153 0.38518 0.39634 0.0
O73 O 0.12974 0.33403 0.36989 0.0
Cd74 Cd 0.13472 0.3357 0.41222 0.0
C75 C 0.08761 0.34261 0.42329 0.0
O76 O 0.14568 0.37689 0.41287 0.0
O77 O 0.14085 0.36126 0.44643 0.0
O78 O 0.16499 0.31643 0.40436 0.0
C79 C 0.14657 0.37907 0.43464 0.0
O80 O 0.09009 0.36428 0.41692 0.0
C81 C 0.16317 0.29986 0.41926 0.0
O82 O 0.10102 0.32721 0.42161 0.0
O83 O 0.14764 0.29942 0.43067 0.0
C84 C 0.84914 0.3443 0.1301 0.0
O85 O 0.85717 0.36462 0.12777 0.0
Cd86 Cd 0.86072 0.3848 0.09122 0.0
O87 O 0.84247 0.33323 0.11258 0.0
Cd88 Cd 0.8398 0.33861 0.07038 0.0
C89 C 0.88779 0.34265 0.06304 0.0
O90 O 0.83087 0.38076 0.07148 0.0
O91 O 0.83642 0.36611 0.03755 0.0
O92 O 0.80815 0.32114 0.07293 0.0
C93 C 0.83094 0.38376 0.04973 0.0
O94 O 0.88632 0.36383 0.07116 0.0
C95 C 0.81118 0.30442 0.05848 0.0
O96 O 0.87336 0.32871 0.06227 0.0
O97 O 0.8278 0.30328 0.04967 0.0
C98 C 0.13868 0.63873 0.63052 0.0
O99 O 0.13436 0.61675 0.62789 0.0
Cd100 Cd 0.1266 0.5992 0.59127 0.0
O101 O 0.14023 0.65262 0.61311 0.0
Cd102 Cd 0.13922 0.65049 0.5703 0.0
C103 C 0.09193 0.63878 0.57127 0.0
O104 O 0.15218 0.61026 0.56654 0.0
O105 O 0.1413 0.62587 0.53503 0.0
O106 O 0.16913 0.67184 0.57196 0.0
C107 C 0.14948 0.60833 0.54495 0.0
O108 O 0.09696 0.61817 0.57869 0.0
C109 C 0.16445 0.6885 0.5581 0.0
O110 O 0.10434 0.65511 0.56759 0.0
O111 O 0.1475 0.68799 0.55007 0.0
C112 C 0.62209 0.88797 0.06072 0.0
O113 O 0.61709 0.88937 0.0818 0.0
Cd114 Cd 0.61421 0.85453 0.10591 0.0
O115 O 0.62675 0.86783 0.05192 0.0
Cd116 Cd 0.63099 0.82527 0.063 0.0
C117 C 0.58365 0.82038 0.0722 0.0
O118 O 0.64311 0.83227 0.10145 0.0
O119 O 0.6341 0.79593 0.09493 0.0
O120 O 0.66131 0.82587 0.04299 0.0
C121 C 0.64173 0.81089 0.1087 0.0
O122 O 0.58675 0.83224 0.09071 0.0
C123 C 0.65764 0.80843 0.02956 0.0
O124 O 0.59708 0.81637 0.05784 0.0
O125 O 0.64132 0.7986 0.03159 0.0
C126 C 0.34641 0.09845 0.56223 0.0
O127 O 0.34961 0.09593 0.58374 0.0
Cd128 Cd 0.35401 0.12981 0.60877 0.0
O129 O 0.34395 0.11926 0.55358 0.0
Cd130 Cd 0.34149 0.16196 0.56506 0.0
C131 C 0.38844 0.16058 0.57708 0.0
O132 O 0.32761 0.15601 0.60273 0.0
O133 O 0.33945 0.19122 0.5971 0.0
O134 O 0.31179 0.16277 0.54402 0.0
C135 C 0.33045 0.17702 0.61037 0.0
O136 O 0.38343 0.1486 0.59489 0.0
C137 C 0.31598 0.18034 0.53101 0.0
O138 O 0.37614 0.16701 0.56198 0.0
O139 O 0.33245 0.18965 0.53363 0.0
C140 C 0.6254 0.09878 0.91668 0.0
O141 O 0.62253 0.09665 0.89506 0.0
Cd142 Cd 0.6202 0.13066 0.86997 0.0
O143 O 0.62848 0.11935 0.92562 0.0
Cd144 Cd 0.63272 0.16192 0.91415 0.0
C145 C 0.58621 0.16353 0.9004 0.0
O146 O 0.64757 0.15467 0.87738 0.0
O147 O 0.63636 0.19038 0.88144 0.0
O148 O 0.66159 0.16045 0.93674 0.0
C149 C 0.6456 0.17555 0.86909 0.0
O150 O 0.5913 0.15159 0.8826 0.0
C151 C 0.65848 0.17933 0.94841 0.0
O152 O 0.59821 0.16878 0.91625 0.0
O153 O 0.64283 0.19031 0.94454 0.0
C154 C 0.35253 0.88964 0.41575 0.0
O155 O 0.35777 0.89131 0.39478 0.0
Cd156 Cd 0.3618 0.85644 0.3709 0.0
O157 O 0.34814 0.86931 0.42434 0.0
Cd158 Cd 0.34453 0.82675 0.41308 0.0
C159 C 0.39207 0.82275 0.40563 0.0
O160 O 0.33329 0.83323 0.37406 0.0
O161 O 0.34268 0.79716 0.38137 0.0
O162 O 0.31354 0.82869 0.43117 0.0
C163 C 0.33515 0.81178 0.36718 0.0
O164 O 0.38905 0.83464 0.38712 0.0
C165 C 0.31587 0.8108 0.44446 0.0
O166 O 0.3785 0.81836 0.41972 0.0
O167 O 0.33193 0.80012 0.44349 0.0
C168 C 0.34303 0.1394 0.84996 0.0
O169 O 0.34935 0.11828 0.85323 0.0
Cd170 Cd 0.35348 0.10029 0.89073 0.0
O171 O 0.33831 0.1526 0.86702 0.0
Cd172 Cd 0.33723 0.15078 0.90968 0.0
C173 C 0.38495 0.14154 0.91367 0.0
O174 O 0.32577 0.10969 0.91274 0.0
O175 O 0.33436 0.12649 0.94479 0.0
O176 O 0.3067 0.17088 0.90695 0.0
C177 C 0.32734 0.10835 0.93457 0.0
O178 O 0.38127 0.12019 0.90711 0.0
C179 C 0.31085 0.18795 0.92062 0.0
O180 O 0.37182 0.15741 0.91459 0.0
O181 O 0.32769 0.18818 0.92894 0.0
C182 C 0.62679 0.84493 0.34837 0.0
O183 O 0.61878 0.86511 0.35172 0.0
Cd184 Cd 0.61531 0.88332 0.38925 0.0
O185 O 0.63351 0.83294 0.36529 0.0
Cd186 Cd 0.63648 0.83609 0.40769 0.0
C187 C 0.58855 0.83953 0.41571 0.0
O188 O 0.6451 0.87846 0.40888 0.0
O189 O 0.63976 0.86154 0.44188 0.0
O190 O 0.66821 0.81945 0.40301 0.0
C191 C 0.64502 0.88003 0.43078 0.0
O192 O 0.59006 0.86107 0.40854 0.0
C193 C 0.66612 0.80248 0.41743 0.0
O194 O 0.60292 0.82543 0.41565 0.0
O195 O 0.64986 0.80063 0.42708 0.0
C196 C 0.35008 0.8422 0.12812 0.0
O197 O 0.35831 0.86231 0.12514 0.0
Cd198 Cd 0.36157 0.88177 0.08821 0.0
O199 O 0.34305 0.83078 0.11102 0.0
Cd200 Cd 0.34007 0.83519 0.06872 0.0
C201 C 0.38799 0.83861 0.06055 0.0
O202 O 0.33156 0.87747 0.06897 0.0
O203 O 0.33674 0.86198 0.0353 0.0
O204 O 0.30828 0.8182 0.07173 0.0
C205 C 0.33156 0.88 0.04717 0.0
O206 O 0.38672 0.86002 0.06814 0.0
C207 C 0.31117 0.80112 0.05763 0.0
O208 O 0.3735 0.82474 0.06043 0.0
O209 O 0.32777 0.79955 0.04884 0.0
C210 C 0.62727 0.13677 0.62775 0.0
O211 O 0.62095 0.11587 0.62337 0.0
Cd212 Cd 0.61885 0.09936 0.58511 0.0
O213 O 0.63298 0.1504 0.61147 0.0
Cd214 Cd 0.63648 0.1496 0.56896 0.0
C215 C 0.58921 0.14146 0.56026 0.0
O216 O 0.64827 0.10875 0.56669 0.0
O217 O 0.64153 0.12514 0.53392 0.0
O218 O 0.66656 0.16955 0.57617 0.0
C219 C 0.64815 0.1072 0.54483 0.0
O220 O 0.59236 0.11985 0.56636 0.0
C221 C 0.66411 0.1863 0.56159 0.0
O222 O 0.60238 0.15726 0.56129 0.0
O223 O 0.64832 0.18651 0.55063 0.0
C224 C 0.0586 0.30838 0.04574 0.0
C225 C 0.06409 0.314 0.06854 0.0
C226 C 0.03937 0.30409 0.04038 0.0
C227 C -0.00256 0.31832 0.03389 0.0
H228 H 0.96261 0.28641 0.07606 0.0
C229 C 0.92146 0.35063 0.05117 0.0
C230 C 0.90685 0.33401 0.05578 0.0
C231 C 0.94009 0.34286 0.04701 0.0
C232 C 0.97212 0.29498 0.0638 0.0
H233 H 0.05396 0.31796 0.10382 0.0
H234 H 0.0206 0.31044 0.09452 0.0
H235 H -0.00298 0.28052 0.08035 0.0
H236 H 0.90012 0.2961 0.05858 0.0
H237 H 0.93293 0.28248 0.05162 0.0
H238 H 0.97257 0.33366 0.01802 0.0
C239 C 0.03106 0.30932 0.08076 0.0
C240 C -0.00818 0.29177 0.06638 0.0
C241 C 0.05018 0.31386 0.08605 0.0
C242 C 0.91109 0.30933 0.05509 0.0
C243 C 0.92986 0.30154 0.0512 0.0
C244 C 0.97774 0.32163 0.03138 0.0
C245 C 0.02536 0.30499 0.05779 0.0
C246 C 0.00469 0.30413 0.05201 0.0
C247 C 0.9446 0.31828 0.04756 0.0
C248 C 0.96493 0.31072 0.04687 0.0
H249 H 0.069 0.30832 0.03187 0.0
H250 H 0.03537 0.30068 0.02255 0.0
H251 H 0.00699 0.32817 0.0226 0.0
H252 H 0.91863 0.36976 0.05142 0.0
H253 H 0.95115 0.35623 0.04455 0.0
C254 C 0.91782 0.67261 0.55625 0.0
C255 C 0.91052 0.65403 0.5702 0.0
C256 C 0.93753 0.67427 0.55205 0.0
C257 C 0.97984 0.63739 0.54752 0.0
H258 H 0.01023 0.69057 0.57056 0.0
C259 C 0.05796 0.62511 0.57136 0.0
C260 C 0.07134 0.64338 0.56702 0.0
C261 C 0.03855 0.62892 0.56754 0.0
C262 C 0.00194 0.67584 0.56353 0.0
H263 H 0.9181 0.62259 0.59049 0.0
H264 H 0.95219 0.62521 0.58267 0.0
H265 H 0.97521 0.69319 0.57111 0.0
H266 H 0.07469 0.68014 0.55521 0.0
H267 H 0.04047 0.68679 0.54841 0.0
H268 H 0.00626 0.61973 0.54031 0.0
C269 C 0.94275 0.63857 0.5752 0.0
C270 C 0.98194 0.67735 0.56389 0.0
C271 C 0.92324 0.63718 0.57976 0.0
C272 C 0.06475 0.66568 0.55873 0.0
C273 C 0.04518 0.66952 0.5549 0.0
C274 C -0.00028 0.63597 0.54692 0.0
C275 C 0.95006 0.65703 0.56129 0.0
C276 C 0.9708 0.65775 0.55668 0.0
C277 C 0.03188 0.65109 0.55917 0.0
C278 C 0.01101 0.65474 0.55582 0.0
H279 H 0.90834 0.68588 0.54872 0.0
H280 H 0.94293 0.68868 0.5413 0.0
H281 H 0.97148 0.62217 0.54164 0.0
H282 H 0.06243 0.60774 0.57787 0.0
H283 H 0.02869 0.61452 0.57158 0.0
C284 C 0.9111 0.6763 0.923 0.0
C285 C 0.9046 0.6528 0.92719 0.0
C286 C 0.93066 0.68162 0.92431 0.0
C287 C 0.97503 0.64992 0.9139 0.0
H288 H 0.00087 0.70694 0.93657 0.0
C289 C 0.05746 0.67917 0.92626 0.0
C290 C 0.06421 0.67224 0.90431 0.0
C291 C 0.03778 0.68121 0.93035 0.0
C292 C -0.00623 0.69095 0.93022 0.0
H293 H 0.9131 0.6172 0.93848 0.0
H294 H 0.947 0.62655 0.94103 0.0
H295 H 0.96647 0.70146 0.94406 0.0
H296 H 0.05573 0.66428 0.86895 0.0
H297 H 0.02162 0.6679 0.87609 0.0
H298 H 0.00196 0.63931 0.89999 0.0
C299 C 0.93714 0.64069 0.93615 0.0
C300 C 0.97416 0.68786 0.93442 0.0
C301 C 0.91772 0.63535 0.93471 0.0
C302 C 0.05102 0.66922 0.88616 0.0
C303 C 0.03147 0.67128 0.89023 0.0
C304 C -0.0056 0.65311 0.90953 0.0
C305 C 0.9439 0.66353 0.92993 0.0
C306 C 0.96467 0.66721 0.92636 0.0
C307 C 0.02463 0.67634 0.91254 0.0
C308 C 0.00398 0.67366 0.91751 0.0
H309 H 0.90128 0.69012 0.91723 0.0
H310 H 0.93551 0.69938 0.91942 0.0
H311 H 0.96807 0.634 0.90715 0.0
H312 H 0.06728 0.68171 0.94058 0.0
H313 H 0.03285 0.68513 0.94771 0.0
C314 C 0.06102 0.31245 0.42519 0.0
C315 C 0.06822 0.33535 0.43052 0.0
C316 C 0.0414 0.30775 0.42714 0.0
C317 C -0.00243 0.34224 0.42123 0.0
H318 H 0.97122 0.28331 0.43744 0.0
C319 C 0.91475 0.31085 0.42801 0.0
C320 C 0.90839 0.31948 0.40641 0.0
C321 C 0.93435 0.30939 0.43293 0.0
C322 C 0.97845 0.29988 0.43299 0.0
H323 H 0.06111 0.37032 0.44457 0.0
H324 H 0.02713 0.36198 0.44851 0.0
H325 H 0.00569 0.28726 0.44534 0.0
H326 H 0.91768 0.33166 0.37251 0.0
H327 H 0.95161 0.32913 0.38112 0.0
H328 H 0.97069 0.35488 0.40866 0.0
C329 C 0.03641 0.34789 0.44214 0.0
C330 C -0.00189 0.3021 0.4374 0.0
C331 C 0.05588 0.35264 0.43995 0.0
C332 C 0.92202 0.32529 0.38945 0.0
C333 C 0.94148 0.32388 0.39437 0.0
C334 C 0.97813 0.33996 0.41668 0.0
C335 C 0.02881 0.32587 0.43463 0.0
C336 C 0.00785 0.32334 0.43151 0.0
C337 C 0.94785 0.31661 0.41634 0.0
C338 C 0.96839 0.31871 0.42225 0.0
H339 H 0.07026 0.2988 0.41788 0.0
H340 H 0.03594 0.29061 0.42122 0.0
H341 H 0.00468 0.35869 0.4161 0.0
H342 H 0.90462 0.30611 0.44142 0.0
H343 H 0.93892 0.30374 0.45001 0.0
C344 C 0.4112 0.80497 0.05357 0.0
C345 C 0.40692 0.82964 0.05322 0.0
C346 C 0.42994 0.79705 0.04976 0.0
C347 C 0.47225 0.79146 0.06246 0.0
H348 H 0.5069 0.82304 0.01985 0.0
C349 C 0.54993 0.81282 0.08434 0.0
C350 C 0.56394 0.81238 0.06694 0.0
C351 C 0.53089 0.80771 0.07909 0.0
C352 C 0.49742 0.81362 0.03155 0.0
H353 H 0.41856 0.86517 0.047 0.0
H354 H 0.45103 0.85142 0.04027 0.0
H355 H 0.47245 0.82766 0.01483 0.0
H356 H 0.5691 0.80511 0.03058 0.0
H357 H 0.53564 0.79645 0.02135 0.0
H358 H 0.49724 0.77833 0.07981 0.0
C359 C 0.44002 0.83815 0.04349 0.0
C360 C 0.4777 0.81643 0.02878 0.0
C361 C 0.42143 0.84606 0.04757 0.0
C362 C 0.55863 0.80567 0.04435 0.0
C363 C 0.53948 0.80078 0.03904 0.0
C364 C 0.49197 0.78873 0.06529 0.0
C365 C 0.4446 0.81364 0.04516 0.0
C366 C 0.46495 0.80618 0.04476 0.0
C367 C 0.52537 0.80219 0.0563 0.0
C368 C 0.50476 0.80058 0.05041 0.0
H369 H 0.40029 0.7919 0.05787 0.0
H370 H 0.43307 0.77804 0.05105 0.0
H371 H 0.46279 0.78341 0.07511 0.0
H372 H 0.55356 0.81776 0.10195 0.0
H373 H 0.52034 0.80927 0.09272 0.0
C374 C 0.56236 0.17134 0.55799 0.0
C375 C 0.56948 0.14814 0.55376 0.0
C376 C 0.5427 0.17595 0.55615 0.0
C377 C 0.49859 0.14232 0.56391 0.0
H378 H 0.47262 0.20004 0.5432 0.0
C379 C 0.41601 0.17322 0.55187 0.0
C380 C 0.40903 0.16542 0.57345 0.0
C381 C 0.43574 0.17458 0.54787 0.0
C382 C 0.47974 0.18381 0.54894 0.0
H383 H 0.56207 0.11238 0.5419 0.0
H384 H 0.52804 0.12054 0.53824 0.0
H385 H 0.50718 0.19548 0.53651 0.0
H386 H 0.41729 0.1548 0.60824 0.0
H387 H 0.45146 0.15726 0.60126 0.0
H388 H 0.47148 0.13058 0.57642 0.0
C389 C 0.53744 0.13496 0.54366 0.0
C390 C 0.49946 0.18126 0.54522 0.0
C391 C 0.55693 0.13031 0.5457 0.0
C392 C 0.42214 0.16048 0.5913 0.0
C393 C 0.44173 0.16185 0.58731 0.0
C394 C 0.47908 0.14494 0.56775 0.0
C395 C 0.52999 0.15747 0.5499 0.0
C396 C 0.50904 0.16043 0.55268 0.0
C397 C 0.44875 0.16814 0.56538 0.0
C398 C 0.46945 0.16576 0.56051 0.0
H399 H 0.57173 0.18543 0.5642 0.0
H400 H 0.53736 0.19348 0.56108 0.0
H401 H 0.50557 0.12623 0.57022 0.0
H402 H 0.40627 0.17725 0.53779 0.0
H403 H 0.44079 0.17948 0.53079 0.0
C404 C 0.55353 0.16846 0.88381 0.0
C405 C 0.56574 0.16953 0.90312 0.0
C406 C 0.5338 0.17027 0.88653 0.0
C407 C 0.49431 0.1853 0.92647 0.0
H408 H 0.469 0.13333 0.89382 0.0
C409 C 0.41849 0.12952 0.92239 0.0
C410 C 0.40508 0.14791 0.91861 0.0
C411 C 0.43794 0.13469 0.92354 0.0
C412 C 0.47584 0.14786 0.90318 0.0
H413 H 0.56692 0.1751 0.94027 0.0
H414 H 0.53219 0.17786 0.94508 0.0
H415 H 0.5031 0.13923 0.88898 0.0
H416 H 0.40146 0.18639 0.91476 0.0
H417 H 0.43577 0.19542 0.91651 0.0
H418 H 0.46673 0.19359 0.94084 0.0
C419 C 0.53799 0.17579 0.92782 0.0
C420 C 0.49536 0.15144 0.90016 0.0
C421 C 0.55785 0.17413 0.92507 0.0
C422 C 0.41148 0.17184 0.9176 0.0
C423 C 0.43108 0.17702 0.91866 0.0
C424 C 0.47459 0.18178 0.92938 0.0
C425 C 0.52577 0.17298 0.90864 0.0
C426 C 0.50484 0.17016 0.91174 0.0
C427 C 0.4445 0.15834 0.92081 0.0
C428 C 0.46525 0.16284 0.9179 0.0
H429 H 0.55918 0.16537 0.8666 0.0
H430 H 0.52475 0.1686 0.87136 0.0
H431 H 0.50127 0.19989 0.93558 0.0
H432 H 0.41402 0.11094 0.92367 0.0
H433 H 0.44794 0.12 0.92575 0.0
C434 C 0.42573 0.81506 0.39345 0.0
C435 C 0.41183 0.815 0.41099 0.0
C436 C 0.44481 0.81009 0.39858 0.0
C437 C 0.48375 0.79114 0.4121 0.0
H438 H 0.50412 0.83052 0.46171 0.0
C439 C 0.56488 0.80627 0.4225 0.0
C440 C 0.56949 0.83084 0.42296 0.0
C441 C 0.54605 0.79872 0.42643 0.0
C442 C 0.49864 0.81918 0.44797 0.0
H443 H 0.40694 0.80867 0.44756 0.0
H444 H 0.44053 0.80025 0.45661 0.0
H445 H 0.46958 0.82633 0.45727 0.0
H446 H 0.55831 0.86656 0.42944 0.0
H447 H 0.52572 0.85347 0.43629 0.0
H448 H 0.51277 0.78526 0.4019 0.0
C449 C 0.43654 0.80416 0.43887 0.0
C450 C 0.47886 0.81661 0.44555 0.0
C451 C 0.41733 0.8089 0.43368 0.0
C452 C 0.5552 0.84752 0.42877 0.0
C453 C 0.53652 0.83998 0.43293 0.0
C454 C 0.50353 0.79364 0.41458 0.0
C455 C 0.45052 0.80509 0.42142 0.0
C456 C 0.4712 0.80337 0.427 0.0
C457 C 0.53161 0.81558 0.43124 0.0
C458 C 0.51115 0.80851 0.43195 0.0
H459 H 0.42196 0.81953 0.37576 0.0
H460 H 0.45524 0.8113 0.38478 0.0
H461 H 0.47825 0.78055 0.39783 0.0
H462 H 0.5756 0.793 0.41809 0.0
H463 H 0.54267 0.77978 0.42511 0.0
C464 C 0.13288 0.29324 0.14866 0.0
C465 C 0.14441 0.30974 0.13671 0.0
C466 C 0.1325 0.29331 0.17289 0.0
C467 C 0.13744 0.29395 0.22565 0.0
H468 H 0.13621 0.35922 0.24908 0.0
C469 C 0.13478 0.31878 0.32341 0.0
C470 C 0.12382 0.33899 0.32953 0.0
C471 C 0.1372 0.31255 0.30015 0.0
C472 C 0.13634 0.34088 0.24282 0.0
H473 H 0.16601 0.33736 0.14038 0.0
H474 H 0.16592 0.33686 0.18253 0.0
H475 H 0.14225 0.35225 0.20837 0.0
H476 H 0.10585 0.36759 0.31615 0.0
H477 H 0.10979 0.35648 0.27572 0.0
H478 H 0.13088 0.28278 0.2603 0.0
C479 C 0.15663 0.32453 0.17336 0.0
C480 C 0.14015 0.33684 0.21952 0.0
C481 C 0.15679 0.32471 0.14924 0.0
C482 C 0.1146 0.35212 0.31201 0.0
C483 C 0.11693 0.34582 0.28883 0.0
C484 C 0.13358 0.29802 0.24911 0.0
C485 C 0.14381 0.30968 0.18544 0.0
C486 C 0.14074 0.31336 0.21061 0.0
C487 C 0.12865 0.32636 0.2826 0.0
C488 C 0.13284 0.32158 0.25787 0.0
H489 H 0.12318 0.28153 0.13935 0.0
H490 H 0.12245 0.28167 0.18167 0.0
H491 H 0.13785 0.27565 0.21931 0.0
H492 H 0.14205 0.30825 0.33652 0.0
H493 H 0.14639 0.29753 0.2959 0.0
C494 C 0.81681 0.66247 0.64759 0.0
C495 C 0.83039 0.67608 0.6355 0.0
C496 C 0.81676 0.66223 0.67171 0.0
C497 C 0.83132 0.64779 0.7184 0.0
H498 H 0.84413 0.70044 0.75952 0.0
C499 C 0.85452 0.6301 0.81181 0.0
C500 C 0.84658 0.64477 0.82908 0.0
C501 C 0.85254 0.63613 0.78849 0.0
C502 C 0.84041 0.68561 0.74825 0.0
H503 H 0.85371 0.70147 0.63897 0.0
H504 H 0.85399 0.70059 0.68128 0.0
H505 H 0.83853 0.70837 0.71837 0.0
H506 H 0.83083 0.67773 0.83542 0.0
H507 H 0.82711 0.68802 0.79461 0.0
H508 H 0.83288 0.62506 0.74808 0.0
C509 C 0.84319 0.69035 0.67215 0.0
C510 C 0.83735 0.69012 0.72469 0.0
C511 C 0.84307 0.69083 0.64792 0.0
C512 C 0.8371 0.66601 0.82253 0.0
C513 C 0.83505 0.67199 0.79915 0.0
C514 C 0.83433 0.64331 0.74184 0.0
C515 C 0.8305 0.6753 0.68425 0.0
C516 C 0.83281 0.67121 0.7095 0.0
C517 C 0.84248 0.6569 0.78188 0.0
C518 C 0.83907 0.66209 0.75702 0.0
H519 H 0.80671 0.65119 0.63839 0.0
H520 H 0.80644 0.65099 0.68053 0.0
H521 H 0.82821 0.63271 0.70716 0.0
H522 H 0.86209 0.61376 0.81626 0.0
H523 H 0.85878 0.62439 0.77561 0.0
C524 C 0.15926 0.65909 0.83169 0.0
C525 C 0.15072 0.67777 0.84428 0.0
C526 C 0.16213 0.66126 0.80794 0.0
C527 C 0.1413 0.6916 0.75788 0.0
H528 H 0.18145 0.65673 0.72606 0.0
C529 C 0.14167 0.67283 0.65865 0.0
C530 C 0.14263 0.64807 0.65396 0.0
C531 C 0.14541 0.68148 0.68094 0.0
C532 C 0.17027 0.66675 0.73472 0.0
H533 H 0.13955 0.71404 0.84216 0.0
H534 H 0.14472 0.71796 0.8004 0.0
H535 H 0.18438 0.66453 0.7675 0.0
H536 H 0.1486 0.61303 0.66875 0.0
H537 H 0.15545 0.6282 0.70748 0.0
H538 H 0.12704 0.69325 0.72501 0.0
C539 C 0.14895 0.70148 0.80895 0.0
C540 C 0.17189 0.67115 0.75841 0.0
C541 C 0.14607 0.69928 0.83285 0.0
C542 C 0.14766 0.63219 0.67185 0.0
C543 C 0.15174 0.64086 0.69395 0.0
C544 C 0.13982 0.68746 0.73407 0.0
C545 C 0.15659 0.68224 0.79616 0.0
C546 C 0.15702 0.68265 0.77046 0.0
C547 C 0.15058 0.66554 0.69871 0.0
C548 C 0.15392 0.67413 0.72255 0.0
H549 H 0.16309 0.64232 0.84002 0.0
H550 H 0.16777 0.64592 0.79867 0.0
H551 H 0.12952 0.70035 0.76662 0.0
H552 H 0.13779 0.68547 0.64517 0.0
H553 H 0.14437 0.70058 0.6843 0.0
C554 C 0.83478 0.31401 0.15701 0.0
C555 C 0.84717 0.33355 0.15337 0.0
C556 C 0.8323 0.30451 0.17919 0.0
C557 C 0.85433 0.30124 0.23697 0.0
H558 H 0.80228 0.29716 0.25976 0.0
C559 C 0.81667 0.31435 0.32845 0.0
C560 C 0.82816 0.29983 0.34267 0.0
C561 C 0.81706 0.31163 0.30447 0.0
C562 C 0.81687 0.29791 0.25353 0.0
H563 H 0.86707 0.35799 0.17002 0.0
H564 H 0.86282 0.34128 0.20868 0.0
H565 H 0.80802 0.30599 0.21887 0.0
H566 H 0.84809 0.26999 0.34314 0.0
H567 H 0.84897 0.26545 0.30099 0.0
H568 H 0.86322 0.29425 0.27177 0.0
C569 C 0.85507 0.33331 0.19436 0.0
C570 C 0.82016 0.30284 0.23016 0.0
C571 C 0.85738 0.34299 0.17226 0.0
C572 C 0.83911 0.28146 0.33257 0.0
C573 C 0.83969 0.27893 0.30849 0.0
C574 C 0.85105 0.29609 0.26027 0.0
C575 C 0.84237 0.31415 0.19807 0.0
C576 C 0.83892 0.30531 0.22185 0.0
C577 C 0.82909 0.29447 0.29422 0.0
C578 C 0.8323 0.29512 0.26891 0.0
H579 H 0.8267 0.30633 0.1428 0.0
H580 H 0.82247 0.28969 0.18161 0.0
H581 H 0.86893 0.30282 0.23092 0.0
H582 H 0.80802 0.32857 0.33581 0.0
H583 H 0.80886 0.324 0.2939 0.0
C584 C 0.61797 0.84536 0.30636 0.0
C585 C 0.62867 0.83541 0.3246 0.0
C586 C 0.62011 0.83675 0.28382 0.0
C587 C 0.65487 0.80912 0.24579 0.0
H588 H 0.61107 0.7989 0.20566 0.0
C589 C 0.63454 0.78656 0.14406 0.0
C590 C 0.64447 0.80553 0.13347 0.0
C591 C 0.63447 0.78434 0.16818 0.0
C592 C 0.62345 0.80125 0.21674 0.0
H593 H 0.64993 0.80851 0.33353 0.0
H594 H 0.65389 0.79381 0.29395 0.0
H595 H 0.60614 0.80657 0.24686 0.0
H596 H 0.66328 0.83585 0.13947 0.0
H597 H 0.66338 0.83177 0.18148 0.0
H598 H 0.67213 0.80487 0.21543 0.0
C599 C 0.64378 0.80815 0.29722 0.0
C600 C 0.62061 0.80588 0.24023 0.0
C601 C 0.64145 0.81653 0.31984 0.0
C602 C 0.65543 0.82113 0.14722 0.0
C603 C 0.65558 0.81871 0.17125 0.0
C604 C 0.6577 0.80478 0.22222 0.0
C605 C 0.63316 0.81823 0.27901 0.0
C606 C 0.63626 0.8104 0.25485 0.0
C607 C 0.64459 0.8008 0.18199 0.0
C608 C 0.64198 0.80133 0.2074 0.0
H609 H 0.60797 0.85986 0.30947 0.0
H610 H 0.61192 0.84502 0.27002 0.0
H611 H 0.66717 0.81265 0.25669 0.0
H612 H 0.62597 0.77428 0.13385 0.0
H613 H 0.62597 0.7703 0.17609 0.0
C614 C 0.35075 0.1376 0.80774 0.0
C615 C 0.34115 0.14881 0.82614 0.0
C616 C 0.34896 0.14644 0.78523 0.0
C617 C 0.31639 0.17817 0.74734 0.0
H618 H 0.36089 0.18446 0.70778 0.0
C619 C 0.33873 0.20009 0.64619 0.0
C620 C 0.32776 0.18229 0.63516 0.0
C621 C 0.33871 0.20196 0.67034 0.0
C622 C 0.34834 0.18322 0.7187 0.0
H623 H 0.32211 0.17806 0.8354 0.0
H624 H 0.31867 0.19316 0.79582 0.0
H625 H 0.36512 0.17573 0.74892 0.0
H626 H 0.30707 0.15384 0.64043 0.0
H627 H 0.30684 0.15734 0.68249 0.0
H628 H 0.2996 0.18456 0.71685 0.0
C629 C 0.3277 0.17768 0.79897 0.0
C630 C 0.35077 0.17799 0.74215 0.0
C631 C 0.32972 0.16906 0.82157 0.0
C632 C 0.31573 0.16764 0.64852 0.0
C633 C 0.31551 0.16974 0.67258 0.0
C634 C 0.31395 0.18309 0.72379 0.0
C635 C 0.33734 0.16646 0.78063 0.0
C636 C 0.33481 0.17489 0.75655 0.0
C637 C 0.32749 0.18634 0.68375 0.0
C638 C 0.32991 0.18515 0.70917 0.0
H639 H 0.35971 0.12203 0.81072 0.0
H640 H 0.35636 0.1373 0.77132 0.0
H641 H 0.30386 0.17577 0.75809 0.0
H642 H 0.34813 0.21164 0.63631 0.0
H643 H 0.34799 0.21501 0.67858 0.0
C644 C 0.63672 0.1949 0.83153 0.0
C645 C 0.64875 0.17955 0.8442 0.0
C646 C 0.63679 0.19426 0.80731 0.0
C647 C 0.64215 0.19266 0.75482 0.0
H648 H 0.64456 0.12692 0.7328 0.0
C649 C 0.63899 0.166 0.6576 0.0
C650 C 0.62891 0.1449 0.65205 0.0
C651 C 0.64186 0.17258 0.6807 0.0
C652 C 0.64369 0.14536 0.73866 0.0
H653 H 0.67165 0.15349 0.84181 0.0
H654 H 0.67237 0.15307 0.79965 0.0
H655 H 0.65029 0.13534 0.77335 0.0
H656 H 0.61311 0.11484 0.66636 0.0
H657 H 0.61779 0.12655 0.70654 0.0
H658 H 0.63478 0.2024 0.72001 0.0
C659 C 0.66235 0.1649 0.80826 0.0
C660 C 0.64733 0.15028 0.76188 0.0
C661 C 0.66206 0.16526 0.83239 0.0
C662 C 0.62113 0.13104 0.67003 0.0
C663 C 0.62391 0.13769 0.69308 0.0
C664 C 0.63844 0.1877 0.73148 0.0
C665 C 0.64906 0.17846 0.79547 0.0
C666 C 0.64653 0.17394 0.77031 0.0
C667 C 0.63464 0.15824 0.69869 0.0
C668 C 0.63897 0.16394 0.72323 0.0
H669 H 0.62628 0.20605 0.84025 0.0
H670 H 0.62635 0.2049 0.798 0.0
H671 H 0.6415 0.21109 0.76076 0.0
H672 H 0.64516 0.17709 0.64414 0.0
H673 H 0.65028 0.18844 0.68446 0.0
C674 C 0.33536 0.81345 0.15629 0.0
C675 C 0.34835 0.83214 0.1517 0.0
C676 C 0.33309 0.80474 0.1788 0.0
C677 C 0.35632 0.8017 0.23586 0.0
H678 H 0.30483 0.80276 0.26071 0.0
C679 C 0.32185 0.82108 0.32821 0.0
C680 C 0.33257 0.80576 0.34252 0.0
C681 C 0.32165 0.81772 0.3043 0.0
C682 C 0.31925 0.80207 0.25391 0.0
H683 H 0.36957 0.85579 0.16695 0.0
H684 H 0.3657 0.84041 0.20619 0.0
H685 H 0.30988 0.80955 0.21932 0.0
H686 H 0.35062 0.77409 0.34327 0.0
H687 H 0.35055 0.76847 0.30121 0.0
H688 H 0.36578 0.79526 0.27055 0.0
C689 C 0.3573 0.83253 0.19236 0.0
C690 C 0.32213 0.80583 0.23026 0.0
C691 C 0.35939 0.84146 0.16994 0.0
C692 C 0.34225 0.78618 0.33262 0.0
C693 C 0.34227 0.78302 0.3086 0.0
C694 C 0.35343 0.79768 0.25944 0.0
C695 C 0.34398 0.81429 0.19705 0.0
C696 C 0.34075 0.80646 0.22119 0.0
C697 C 0.33235 0.79913 0.29421 0.0
C698 C 0.33491 0.7986 0.2688 0.0
H699 H 0.32664 0.8059 0.14258 0.0
H700 H 0.32276 0.79063 0.18199 0.0
H701 H 0.3708 0.80189 0.22921 0.0
H702 H 0.31418 0.83624 0.33542 0.0
H703 H 0.31403 0.83055 0.29361 0.0
C704 C 0.277 0.20197 0.92153 0.0
C705 C 0.29623 0.20561 0.92765 0.0
C706 C 0.26275 0.21702 0.93013 0.0
C707 C 0.25368 0.25756 0.97931 0.0
H708 H 0.20665 0.27058 0.94585 0.0
C709 C 0.19268 0.313 0.01902 0.0
C710 C 0.1746 0.30199 0.01828 0.0
C711 C 0.20773 0.3041 0.00574 0.0
C712 C 0.21972 0.26703 0.95536 0.0
H713 H 0.31577 0.22867 0.94652 0.0
H714 H 0.29091 0.25548 0.96105 0.0
H715 H 0.23324 0.25101 0.92598 0.0
H716 H 0.15791 0.27357 0.00243 0.0
H717 H 0.1843 0.25806 0.97901 0.0
H718 H 0.24013 0.27361 0.00865 0.0
C719 C 0.28677 0.24056 0.9501 0.0
C720 C 0.23493 0.25579 0.94404 0.0
C721 C 0.30104 0.22531 0.94168 0.0
C722 C 0.1717 0.28237 0.00339 0.0
C723 C 0.18675 0.27359 -0.01009 0.0
C724 C 0.23858 0.26904 -0.00949 0.0
C725 C 0.2674 0.23625 0.94487 0.0
C726 C 0.25198 0.25052 0.95601 0.0
C727 C 0.20498 0.28414 -0.00871 0.0
C728 C 0.22135 0.27353 0.97875 0.0
H729 H 0.27282 0.18691 0.91077 0.0
H730 H 0.248 0.21289 0.92597 0.0
H731 H 0.26641 0.25341 -0.01077 0.0
H732 H 0.19537 0.32821 0.03026 0.0
H733 H 0.2216 0.31268 0.00695 0.0
C734 C 0.78477 0.68214 0.51511 0.0
C735 C 0.80375 0.69039 0.51526 0.0
C736 C 0.77117 0.69269 0.50068 0.0
C737 C 0.7613 0.74884 0.46916 0.0
H738 H 0.71938 0.71143 0.44382 0.0
C739 C 0.70082 0.79205 0.41573 0.0
C740 C 0.68231 0.78675 0.42373 0.0
C741 C 0.71651 0.77878 0.42344 0.0
C742 C 0.73101 0.72206 0.4508 0.0
H743 H 0.82353 0.71574 0.4999 0.0
H744 H 0.79978 0.73396 0.47419 0.0
H745 H 0.74591 0.69103 0.46304 0.0
H746 H 0.66563 0.76271 0.44525 0.0
H747 H 0.69312 0.73931 0.45856 0.0
H748 H 0.7463 0.77987 0.45691 0.0
C749 C 0.79534 0.71959 0.48561 0.0
C750 C 0.74618 0.71043 0.46187 0.0
C751 C 0.80897 0.70911 0.50025 0.0
C752 C 0.67972 0.76724 0.43882 0.0
C753 C 0.69542 0.75379 0.44635 0.0
C754 C 0.74623 0.76043 0.45786 0.0
C755 C 0.77623 0.71164 0.48584 0.0
C756 C 0.76129 0.72372 0.47166 0.0
C757 C 0.714 0.75976 0.43909 0.0
C758 C 0.73077 0.74719 0.44899 0.0
H759 H 0.78025 0.6678 0.52654 0.0
H760 H 0.75655 0.6864 0.50171 0.0
H761 H 0.77252 0.75969 0.47676 0.0
H762 H 0.70328 0.80695 0.40404 0.0
H763 H 0.73067 0.78359 0.41742 0.0
C764 C 0.29944 0.7637 0.03828 0.0
C765 C 0.29558 0.78469 0.05088 0.0
C766 C 0.28447 0.74916 0.0305 0.0
C767 C 0.2319 0.73862 0.03638 0.0
H768 H 0.23736 0.71361 0.97409 0.0
C769 C 0.16914 0.70865 0.97701 0.0
C770 C 0.17191 0.68737 0.96437 0.0
C771 C 0.18396 0.71809 -0.00947 0.0
C772 C 0.23572 0.72024 -0.00839 0.0
H773 H 0.27312 0.80665 0.06574 0.0
H774 H 0.24704 0.78188 0.05149 0.0
H775 H 0.26404 0.73438 -0.00786 0.0
H776 H 0.19204 0.65874 0.95679 0.0
H777 H 0.21786 0.67539 0.98014 0.0
H778 H 0.20314 0.72525 0.03517 0.0
C779 C 0.26157 0.77619 0.04806 0.0
C780 C 0.25105 0.73204 0.00204 0.0
C781 C 0.27653 0.79052 0.05611 0.0
C782 C 0.18948 0.67525 0.96622 0.0
C783 C 0.20429 0.68478 0.97951 0.0
C784 C 0.21645 0.72706 0.02578 0.0
C785 C 0.26532 0.75551 0.03486 0.0
C786 C 0.24933 0.74153 0.02451 0.0
C787 C 0.2018 0.70651 -0.00858 0.0
C788 C 0.21823 0.71786 0.00327 0.0
H789 H 0.314 0.75864 0.0342 0.0
H790 H 0.28792 0.73308 0.02082 0.0
H791 H 0.23015 0.74536 0.05384 0.0
H792 H 0.15573 0.71834 0.97596 0.0
H793 H 0.18174 0.73495 -0.00051 0.0
C794 C 0.67707 0.22172 0.53994 0.0
C795 C 0.67964 0.20341 0.55639 0.0
C796 C 0.69255 0.23585 0.533 0.0
C797 C 0.74377 0.23078 0.52569 0.0
H798 H 0.74191 0.29928 0.51393 0.0
C799 C 0.80626 0.27929 0.48074 0.0
C800 C 0.80102 0.29602 0.46369 0.0
C801 C 0.79258 0.27027 0.49609 0.0
C802 C 0.74262 0.28011 0.51698 0.0
H803 H 0.70018 0.18643 0.57941 0.0
H804 H 0.72717 0.21095 0.56707 0.0
H805 H 0.71523 0.27973 0.53361 0.0
H806 H 0.77745 0.31675 0.44956 0.0
H807 H 0.7536 0.30053 0.47561 0.0
H808 H 0.77058 0.23071 0.50809 0.0
C809 C 0.71322 0.21426 0.5595 0.0
C810 C 0.72738 0.26899 0.52833 0.0
C811 C 0.69775 0.2003 0.56658 0.0
C812 C 0.78196 0.30391 0.46255 0.0
C813 C 0.76829 0.29475 0.47768 0.0
C814 C 0.75889 0.24182 0.51411 0.0
C815 C 0.71086 0.23177 0.54226 0.0
C816 C 0.7277 0.24417 0.53245 0.0
C817 C 0.77336 0.27765 0.49451 0.0
C818 C 0.75835 0.26654 0.50921 0.0
H819 H 0.66327 0.22457 0.53184 0.0
H820 H 0.69038 0.24915 0.51956 0.0
H821 H 0.74427 0.21154 0.5284 0.0
H822 H 0.82089 0.27304 0.48213 0.0
H823 H 0.79704 0.25738 0.50906 0.0
C824 C 0.66715 0.78275 -0.00412 0.0
C825 C 0.67201 0.79971 0.01289 0.0
C826 C 0.68109 0.77385 0.98084 0.0
C827 C 0.7312 0.78405 0.96068 0.0
H828 H 0.72989 0.71541 0.94957 0.0
C829 C 0.79703 0.72577 0.93839 0.0
C830 C 0.79453 0.70716 0.92225 0.0
C831 C 0.78152 0.74001 0.94502 0.0
C832 C 0.7303 0.73467 0.95218 0.0
H833 H 0.69515 0.82099 0.02724 0.0
H834 H 0.71951 0.80492 0.0017 0.0
H835 H 0.70342 0.7345 0.96959 0.0
H836 H 0.7741 0.68979 0.89936 0.0
H837 H 0.74706 0.71454 0.91112 0.0
H838 H 0.75867 0.78376 0.94422 0.0
C839 C 0.70491 0.79888 -0.00055 0.0
C840 C 0.71509 0.74566 0.96361 0.0
C841 C 0.69095 0.80796 0.01427 0.0
C842 C 0.77647 0.70389 0.91197 0.0
C843 C 0.76097 0.71799 0.91872 0.0
C844 C 0.74654 0.77297 0.94948 0.0
C845 C 0.70022 0.78152 0.98269 0.0
C846 C 0.71548 0.77042 0.96836 0.0
C847 C 0.76324 0.73575 0.93574 0.0
C848 C 0.74633 0.74812 0.94543 0.0
H849 H 0.65261 0.77624 -0.00572 0.0
H850 H 0.6769 0.76079 0.96789 0.0
H851 H 0.73181 0.80324 0.96364 0.0
H852 H 0.81079 0.72875 0.94655 0.0
H853 H 0.78363 0.75352 0.95829 0.0
C854 C 0.30692 0.20744 0.49803 0.0
C855 C 0.30189 0.18975 0.51424 0.0
C856 C 0.29314 0.21688 0.48297 0.0
C857 C 0.24337 0.20678 0.46122 0.0
H858 H 0.24394 0.27583 0.45263 0.0
C859 C 0.17688 0.26446 0.44029 0.0
C860 C 0.17909 0.28322 0.42426 0.0
C861 C 0.19262 0.25058 0.44692 0.0
C862 C 0.24374 0.25647 0.45457 0.0
H863 H 0.2786 0.1678 0.52717 0.0
H864 H 0.25459 0.18471 0.50166 0.0
H865 H 0.27055 0.25641 0.47231 0.0
H866 H 0.19928 0.30143 0.40178 0.0
H867 H 0.22675 0.27738 0.41364 0.0
H868 H 0.21597 0.20724 0.44448 0.0
C869 C 0.26919 0.19094 0.49999 0.0
C870 C 0.25904 0.2453 0.46577 0.0
C871 C 0.28296 0.18137 0.51481 0.0
C872 C 0.19713 0.28716 0.41425 0.0
C873 C 0.21287 0.27347 0.42106 0.0
C874 C 0.22795 0.21803 0.45027 0.0
C875 C 0.27403 0.20896 0.484 0.0
C876 C 0.25888 0.22037 0.46965 0.0
C877 C 0.21084 0.2554 0.4378 0.0
C878 C 0.22788 0.24302 0.44719 0.0
H879 H 0.32145 0.2141 0.49708 0.0
H880 H 0.29743 0.23049 0.47064 0.0
H881 H 0.24295 0.18748 0.46345 0.0
H882 H 0.16314 0.26097 0.44824 0.0
H883 H 0.19071 0.23683 0.45998 0.0
C884 C 0.79979 0.26722 0.03845 0.0
C885 C 0.79575 0.28789 0.05145 0.0
C886 C 0.78496 0.25256 0.0305 0.0
C887 C 0.73257 0.24086 0.03661 0.0
H888 H 0.73805 0.2169 0.97394 0.0
C889 C 0.66996 0.20966 0.97745 0.0
C890 C 0.6731 0.18863 0.96457 0.0
C891 C 0.68467 0.21947 -0.00908 0.0
C892 C 0.7364 0.22324 -0.00844 0.0
H893 H 0.77309 0.30917 0.06681 0.0
H894 H 0.74724 0.28419 0.05227 0.0
H895 H 0.76451 0.23806 -0.00795 0.0
H896 H 0.69381 0.16078 0.95652 0.0
H897 H 0.7194 0.17805 0.97977 0.0
H898 H 0.70402 0.22677 0.03546 0.0
C899 C 0.76182 0.27884 0.04866 0.0
C900 C 0.75161 0.23527 0.00202 0.0
C901 C 0.77665 0.29329 0.05687 0.0
C902 C 0.69095 0.1771 0.96612 0.0
C903 C 0.70564 0.18699 0.97936 0.0
C904 C 0.71724 0.22907 0.02598 0.0
C905 C 0.76576 0.25847 0.03509 0.0
C906 C 0.74988 0.24435 0.02464 0.0
C907 C 0.70276 0.20849 -0.00849 0.0
C908 C 0.71903 0.22024 0.00333 0.0
H909 H 0.8144 0.2625 0.03421 0.0
H910 H 0.78856 0.23672 0.02053 0.0
H911 H 0.73083 0.24727 0.05417 0.0
H912 H 0.65634 0.21889 0.97664 0.0
H913 H 0.68215 0.23614 8e-05 0.0
C914 C 0.19785 0.70406 0.5574 0.0
C915 C 0.17865 0.7065 0.55058 0.0
C916 C 0.21183 0.7193 0.54852 0.0
C917 C 0.22094 0.75761 0.49779 0.0
H918 H 0.26681 0.77418 0.53216 0.0
C919 C 0.28192 0.81277 0.45748 0.0
C920 C 0.3002 0.80248 0.45957 0.0
C921 C 0.26667 0.80409 0.47055 0.0
C922 C 0.25407 0.76964 0.5224 0.0
H923 H 0.15886 0.72765 0.53008 0.0
H924 H 0.18327 0.75482 0.51497 0.0
H925 H 0.24016 0.75483 0.55208 0.0
H926 H 0.317 0.77556 0.47756 0.0
H927 H 0.29024 0.76044 0.50063 0.0
H928 H 0.23491 0.77245 0.46813 0.0
C929 C 0.18758 0.74068 0.52675 0.0
C930 C 0.23883 0.75853 0.53374 0.0
C931 C 0.17357 0.72523 0.5355 0.0
C932 C 0.30306 0.7838 0.47555 0.0
C933 C 0.2878 0.77525 0.48883 0.0
C934 C 0.23609 0.76897 0.48653 0.0
C935 C 0.20695 0.73755 0.53277 0.0
C936 C 0.22222 0.75193 0.52147 0.0
C937 C 0.26941 0.78508 0.48615 0.0
C938 C 0.25291 0.7747 0.49863 0.0
H939 H 0.20224 0.68977 0.56898 0.0
H940 H 0.22659 0.71606 0.55329 0.0
H941 H 0.20857 0.75244 0.48766 0.0
H942 H 0.27925 0.82725 0.44537 0.0
H943 H 0.25267 0.81211 0.46832 0.0
C944 C 0.1209 0.55454 0.92211 0.0
C945 C 0.12179 0.57767 0.93178 0.0
C946 C 0.12085 0.53426 0.93633 0.0
C947 C 0.13274 0.51431 -0.00414 0.0
H948 H 0.1013 0.4595 0.97941 0.0
C949 C 0.11964 0.43407 0.0573 0.0
C950 C 0.12156 0.41109 0.04748 0.0
C951 C 0.11975 0.4545 0.04327 0.0
C952 C 0.11025 0.47462 0.9841 0.0
H953 H 0.12308 0.59766 0.964 0.0
H954 H 0.1225 0.56234 0.98881 0.0
H955 H 0.10103 0.49512 0.95485 0.0
H956 H 0.12503 0.39154 0.01524 0.0
H957 H 0.12505 0.42726 -0.00922 0.0
H958 H 0.14166 0.49382 0.02536 0.0
C959 C 0.12229 0.55981 0.97022 0.0
C960 C 0.11016 0.495 0.97002 0.0
C961 C 0.12251 0.58009 0.95599 0.0
C962 C 0.12354 0.40898 0.02335 0.0
C963 C 0.12345 0.4294 0.00932 0.0
C964 C 0.13269 0.494 0.01005 0.0
C965 C 0.12152 0.53665 0.96056 0.0
C966 C 0.12146 0.51506 0.97568 0.0
C967 C 0.12158 0.45234 0.01915 0.0
C968 C 0.12149 0.47395 0.00425 0.0
H969 H 0.12046 0.55205 0.90351 0.0
H970 H 0.12057 0.5167 0.92828 0.0
H971 H 0.14187 0.52926 0.00054 0.0
H972 H 0.11812 0.43631 0.07584 0.0
H973 H 0.11814 0.47199 0.05126 0.0
C974 C 0.84207 0.57637 0.52052 0.0
C975 C 0.84231 0.57345 0.5447 0.0
C976 C 0.84142 0.55636 0.50593 0.0
C977 C 0.85204 0.4914 0.50574 0.0
H978 H 0.8222 0.49133 0.44905 0.0
C979 C 0.84084 0.40592 0.45167 0.0
C980 C 0.84333 0.40801 0.42761 0.0
C981 C 0.84009 0.42634 0.46562 0.0
C982 C 0.83072 0.4912 0.46474 0.0
H983 H 0.84142 0.54727 0.57252 0.0
H984 H 0.8399 0.51248 0.54713 0.0
H985 H 0.82168 0.52659 0.47422 0.0
H986 H 0.84666 0.43328 0.39928 0.0
H987 H 0.84534 0.46902 0.42375 0.0
H988 H 0.86095 0.45598 0.49636 0.0
C989 C 0.84067 0.53018 0.5394 0.0
C990 C 0.83045 0.51138 0.47913 0.0
C991 C 0.84143 0.55015 0.55397 0.0
C992 C 0.84476 0.43104 0.41776 0.0
C993 C 0.8439 0.45151 0.43173 0.0
C994 C 0.85222 0.47123 0.49143 0.0
C995 C 0.8409 0.53303 0.51522 0.0
C996 C 0.84108 0.51167 0.49983 0.0
C997 C 0.84173 0.44933 0.45582 0.0
C998 C 0.84154 0.47089 0.47082 0.0
H999 H 0.84278 0.59408 0.51282 0.0
H1000 H 0.84181 0.55917 0.48738 0.0
H1001 H 0.86071 0.49122 0.52129 0.0
H1002 H 0.83963 0.38847 0.45983 0.0
H1003 H 0.83817 0.42415 0.48411 0.0
C1004 C 0.82349 0.42748 0.05349 0.0
C1005 C 0.82649 0.40732 0.03932 0.0
C1006 C 0.82029 0.45004 0.04368 0.0
C1007 C 0.80575 0.48078 -0.00997 0.0
H1008 H 0.83731 0.5328 0.01319 0.0
C1009 C 0.81905 0.56746 0.93832 0.0
C1010 C 0.82175 0.58911 0.95036 0.0
C1011 C 0.81674 0.54592 0.95033 0.0
C1012 C 0.82808 0.51866 0.00679 0.0
H1013 H 0.8279 0.3948 0.0038 0.0
H1014 H 0.82227 0.43427 0.98666 0.0
H1015 H 0.83845 0.49379 0.03209 0.0
H1016 H 0.82319 0.60542 0.98441 0.0
H1017 H 0.81869 0.56785 0.00545 0.0
H1018 H 0.79545 0.5056 0.96462 0.0
C1019 C 0.82234 0.43258 0.00535 0.0
C1020 C 0.82879 0.49627 0.01759 0.0
C1021 C 0.82569 0.41003 0.01515 0.0
C1022 C 0.82131 0.58896 0.97467 0.0
C1023 C 0.81884 0.56742 0.98671 0.0
C1024 C 0.80491 0.50326 0.97932 0.0
C1025 C 0.81987 0.45285 0.01952 0.0
C1026 C 0.81787 0.47702 0.00911 0.0
C1027 C 0.81691 0.54557 0.97468 0.0
C1028 C 0.81631 0.52236 0.98733 0.0
H1029 H 0.82396 0.42594 0.07218 0.0
H1030 H 0.81825 0.46534 0.05501 0.0
H1031 H 0.79699 0.46631 0.98333 0.0
H1032 H 0.81935 0.56699 0.91957 0.0
H1033 H 0.81556 0.52943 0.94049 0.0
C1034 C 0.15355 0.42288 0.43151 0.0
C1035 C 0.15109 0.40242 0.44544 0.0
C1036 C 0.15622 0.4454 0.44157 0.0
C1037 C 0.17024 0.47667 0.49486 0.0
H1038 H 0.13604 0.52651 0.4727 0.0
C1039 C 0.15716 0.56454 0.5452 0.0
C1040 C 0.15326 0.5856 0.53267 0.0
C1041 C 0.15924 0.54262 0.53376 0.0
C1042 C 0.14599 0.51301 0.47882 0.0
H1043 H 0.15031 0.3893 0.48078 0.0
H1044 H 0.15513 0.42881 0.49841 0.0
H1045 H 0.13581 0.48728 0.45423 0.0
H1046 H 0.14937 0.6005 0.49831 0.0
H1047 H 0.15359 0.56236 0.47823 0.0
H1048 H 0.1805 0.50242 0.51941 0.0
C1049 C 0.15495 0.42733 0.4797 0.0
C1050 C 0.14578 0.49049 0.46827 0.0
C1051 C 0.1521 0.40478 0.46963 0.0
C1052 C 0.15218 0.5845 0.50842 0.0
C1053 C 0.15449 0.56261 0.49695 0.0
C1054 C 0.17061 0.49933 0.50528 0.0
C1055 C 0.15666 0.44789 0.46575 0.0
C1056 C 0.15776 0.47205 0.47632 0.0
C1057 C 0.15767 0.54132 0.50951 0.0
C1058 C 0.15833 0.5177 0.49754 0.0
H1059 H 0.15293 0.42163 0.41281 0.0
H1060 H 0.15771 0.46094 0.43043 0.0
H1061 H 0.17974 0.46279 0.50123 0.0
H1062 H 0.15801 0.56483 0.56393 0.0
H1063 H 0.16141 0.52658 0.54404 0.0
C1064 C 0.62523 0.07952 0.95586 0.0
C1065 C 0.62519 0.07722 0.93162 0.0
C1066 C 0.62483 0.05917 0.96998 0.0
C1067 C 0.61296 -0.00565 0.96897 0.0
H1068 H 0.64286 -0.00707 0.0256 0.0
C1069 C 0.62496 0.90798 0.02209 0.0
C1070 C 0.62248 0.90982 0.04618 0.0
C1071 C 0.62517 0.92853 0.00827 0.0
C1072 C 0.63432 -0.00682 0.00993 0.0
H1073 H 0.62494 0.05172 0.9032 0.0
H1074 H 0.62471 0.01625 0.92781 0.0
H1075 H 0.6437 0.02852 0.00099 0.0
H1076 H 0.61844 0.93472 0.07467 0.0
H1077 H 0.61896 0.97067 0.05045 0.0
H1078 H 0.60387 0.9588 0.97779 0.0
C1079 C 0.62461 0.03378 0.93594 0.0
C1080 C 0.63475 0.01356 -0.00415 0.0
C1081 C 0.62486 0.05413 0.92182 0.0
C1082 C 0.62035 0.93269 0.05617 0.0
C1083 C 0.62075 0.95327 0.04234 0.0
C1084 C 0.61267 0.9739 0.98294 0.0
C1085 C 0.62453 0.03605 0.96019 0.0
C1086 C 0.62407 0.01439 0.9752 0.0
C1087 C 0.62309 0.95137 0.01826 0.0
C1088 C 0.62333 0.97313 0.00355 0.0
H1089 H 0.62537 0.09706 0.96397 0.0
H1090 H 0.62448 0.0616 0.98858 0.0
H1091 H 0.60429 -0.00547 0.95341 0.0
H1092 H 0.62663 0.89063 0.01384 0.0
H1093 H 0.62718 0.92659 -0.01023 0.0
C1094 C 0.35301 0.93438 0.42057 0.0
C1095 C 0.35136 0.91138 0.43038 0.0
C1096 C 0.35176 0.95486 0.43447 0.0
C1097 C 0.33506 0.97545 0.49211 0.0
H1098 H 0.36861 0.02944 0.48 0.0
C1099 C 0.346 0.05384 0.55634 0.0
C1100 C 0.34586 0.07714 0.54695 0.0
C1101 C 0.34591 0.03377 0.54183 0.0
C1102 C 0.35903 0.01458 0.48344 0.0
H1103 H 0.34731 0.89184 0.46252 0.0
H1104 H 0.34563 0.92745 0.48677 0.0
H1105 H 0.3701 -0.00593 0.45519 0.0
H1106 H 0.34541 0.09761 0.51495 0.0
H1107 H 0.34539 0.06253 0.48968 0.0
H1108 H 0.32432 -0.00412 0.52069 0.0
C1109 C 0.34742 0.92974 0.46828 0.0
C1110 C 0.35984 -0.00566 0.4692 0.0
C1111 C 0.34852 0.9093 0.45438 0.0
C1112 C 0.34553 0.07992 0.52275 0.0
C1113 C 0.34562 0.05985 0.50826 0.0
C1114 C 0.33438 -0.00439 0.50646 0.0
C1115 C 0.34899 0.95278 0.45851 0.0
C1116 C 0.34789 0.9745 0.47339 0.0
C1117 C 0.34587 0.0366 0.51766 0.0
C1118 C 0.34638 0.01535 0.50227 0.0
H1119 H 0.35509 0.9366 0.40211 0.0
H1120 H 0.35275 0.97233 0.42631 0.0
H1121 H 0.32541 0.96068 0.49558 0.0
H1122 H 0.34623 0.05108 0.57491 0.0
H1123 H 0.34626 0.01603 0.54951 0.0
C1124 C 0.32676 0.90579 0.01214 0.0
C1125 C 0.32763 0.90351 0.03635 0.0
C1126 C 0.32395 0.92828 0.00196 0.0
C1127 C 0.33205 0.9919 0.01308 0.0
H1128 H 0.29792 0.00193 0.96096 0.0
C1129 C 0.3241 0.08503 0.97134 0.0
C1130 C 0.32372 0.08568 0.94704 0.0
C1131 C 0.32206 0.06326 0.98309 0.0
C1132 C 0.30763 -0.00062 0.97538 0.0
H1133 H 0.32578 0.92285 0.06889 0.0
H1134 H 0.32101 0.96212 0.05106 0.0
H1135 H 0.29916 0.96266 0.97976 0.0
H1136 H 0.32041 0.06418 0.91597 0.0
H1137 H 0.31738 0.02615 0.93639 0.0
H1138 H 0.34105 0.0282 0.00837 0.0
C1139 C 0.32258 0.94654 0.04 0.0
C1140 C 0.30829 0.97692 0.98615 0.0
C1141 C 0.32524 0.92405 0.05018 0.0
C1142 C 0.32072 0.06425 0.93472 0.0
C1143 C 0.31886 0.04245 0.94645 0.0
C1144 C 0.33151 0.01426 0.00221 0.0
C1145 C 0.3221 0.9489 0.01579 0.0
C1146 C 0.3206 0.97294 0.00501 0.0
C1147 C 0.31978 0.04165 0.97077 0.0
C1148 C 0.3194 0.01824 0.98312 0.0
H1149 H 0.32851 0.89026 0.00105 0.0
H1150 H 0.3238 0.92963 0.98325 0.0
H1151 H 0.34188 0.98923 0.02737 0.0
H1152 H 0.32621 0.1013 0.9813 0.0
H1153 H 0.32246 0.06335 0.00183 0.0
C1154 C 0.65667 0.0637 0.54622 0.0
C1155 C 0.65248 0.0843 0.5331 0.0
C1156 C 0.65897 0.04149 0.53542 0.0
C1157 C 0.66794 0.0117 0.47959 0.0
H1158 H 0.63763 0.96025 0.50601 0.0
C1159 C 0.65069 0.92434 0.43001 0.0
C1160 C 0.64918 0.90289 0.44267 0.0
C1161 C 0.6535 0.94618 0.4414 0.0
C1162 C 0.64649 0.97423 0.49862 0.0
H1163 H 0.6483 0.09802 0.49831 0.0
H1164 H 0.65235 0.05908 0.4794 0.0
H1165 H 0.63877 -0.00096 0.52524 0.0
H1166 H 0.65024 0.88727 0.47704 0.0
H1167 H 0.65562 0.92529 0.4969 0.0
H1168 H 0.67564 0.98686 0.4529 0.0
C1169 C 0.65387 0.06019 0.49804 0.0
C1170 C 0.64709 -0.00351 0.50963 0.0
C1171 C 0.65145 0.08243 0.50887 0.0
C1172 C 0.65114 0.90357 0.46685 0.0
C1173 C 0.65413 0.92537 0.47823 0.0
C1174 C 0.66748 0.98931 0.46864 0.0
C1175 C 0.65724 0.03944 0.51127 0.0
C1176 C 0.65767 0.0155 0.50013 0.0
C1177 C 0.65503 0.947 0.46568 0.0
C1178 C 0.65658 0.97038 0.47792 0.0
H1179 H 0.65767 0.06458 0.56492 0.0
H1180 H 0.6618 0.02581 0.546 0.0
H1181 H 0.67635 0.02601 0.47202 0.0
H1182 H 0.6492 0.92436 0.41134 0.0
H1183 H 0.65386 0.9625 0.43121 0.0
loop_
_geom_bond_atom_site_label_1
_geom_bond_atom_site_label_2
_geom_bond_distance
_geom_bond_site_symmetry_2
_ccdc_geom_bond_type
C0 O1 1.306 . S
C0 O3 1.160 . S
O1 C0 1.306 . S
O1 Cd2 2.228 . S
Cd2 O1 2.228 . S
Cd2 O6 2.273 . S
Cd2 O10 2.277 . S
O3 C0 1.160 . S
O3 Cd4 2.203 . S
Cd4 O3 2.203 . S
Cd4 O6 2.411 . S
Cd4 O7 2.333 . S
Cd4 O8 2.352 . S
Cd4 O12 2.277 . S
Cd4 O13 2.356 . S
C5 O10 1.209 . S
C5 O12 1.226 . S
O6 Cd2 2.273 . S
O6 Cd4 2.411 . S
O6 C9 1.320 . S
O7 Cd4 2.333 . S
O7 C9 1.214 . S
O8 Cd4 2.352 . S
O8 C11 1.258 . S
C9 O6 1.320 . S
C9 O7 1.214 . S
O10 Cd2 2.277 . S
O10 C5 1.209 . S
C11 O8 1.258 . S
C11 O13 1.282 . S
O12 Cd4 2.277 . S
O12 C5 1.226 . S
O13 Cd4 2.356 . S
O13 C11 1.282 . S
C14 O15 1.306 . S
C14 O17 1.160 . S
O15 C14 1.306 . S
O15 Cd16 2.228 . S
Cd16 O15 2.228 . S
Cd16 O20 2.273 . S
Cd16 O24 2.277 . S
O17 C14 1.160 . S
O17 Cd18 2.203 . S
Cd18 O17 2.203 . S
Cd18 O20 2.411 . S
Cd18 O21 2.333 . S
Cd18 O22 2.352 . S
Cd18 O26 2.277 . S
Cd18 O27 2.356 . S
C19 O24 1.209 . S
C19 O26 1.226 . S
O20 Cd16 2.273 . S
O20 Cd18 2.411 . S
O20 C23 1.320 . S
O21 Cd18 2.333 . S
O21 C23 1.214 . S
O22 Cd18 2.352 . S
O22 C25 1.258 . S
C23 O20 1.320 . S
C23 O21 1.214 . S
O24 Cd16 2.277 . S
O24 C19 1.209 . S
C25 O22 1.258 . S
C25 O27 1.282 . S
O26 Cd18 2.277 . S
O26 C19 1.226 . S
O27 Cd18 2.356 . S
O27 C25 1.282 . S
C28 O29 1.306 . S
C28 O31 1.160 . S
O29 C28 1.306 . S
O29 Cd30 2.228 . S
Cd30 O29 2.228 . S
Cd30 O34 2.273 . S
Cd30 O38 2.277 . S
O31 C28 1.160 . S
O31 Cd32 2.203 . S
Cd32 O31 2.203 . S
Cd32 O34 2.411 . S
Cd32 O35 2.333 . S
Cd32 O36 2.352 . S
Cd32 O40 2.277 . S
Cd32 O41 2.356 . S
C33 O38 1.209 . S
C33 O40 1.226 . S
O34 Cd30 2.273 . S
O34 Cd32 2.411 . S
O34 C37 1.320 . S
O35 Cd32 2.333 . S
O35 C37 1.214 . S
O36 Cd32 2.352 . S
O36 C39 1.258 . S
C37 O34 1.320 . S
C37 O35 1.214 . S
O38 Cd30 2.277 . S
O38 C33 1.209 . S
C39 O36 1.258 . S
C39 O41 1.282 . S
O40 Cd32 2.277 . S
O40 C33 1.226 . S
O41 Cd32 2.356 . S
O41 C39 1.282 . S
C42 O43 1.306 . S
C42 O45 1.160 . S
O43 C42 1.306 . S
O43 Cd44 2.228 . S
Cd44 O43 2.228 . S
Cd44 O48 2.273 . S
Cd44 O52 2.277 . S
O45 C42 1.160 . S
O45 Cd46 2.203 . S
Cd46 O45 2.203 . S
Cd46 O48 2.411 . S
Cd46 O49 2.333 . S
Cd46 O50 2.352 . S
Cd46 O54 2.277 . S
Cd46 O55 2.356 . S
C47 O52 1.209 . S
C47 O54 1.226 . S
O48 Cd44 2.273 . S
O48 Cd46 2.411 . S
O48 C51 1.320 . S
O49 Cd46 2.333 . S
O49 C51 1.214 . S
O50 Cd46 2.352 . S
O50 C53 1.258 . S
C51 O48 1.320 . S
C51 O49 1.214 . S
O52 Cd44 2.277 . S
O52 C47 1.209 . S
C53 O50 1.258 . S
C53 O55 1.282 . S
O54 Cd46 2.277 . S
O54 C47 1.226 . S
O55 Cd46 2.356 . S
O55 C53 1.282 . S
C56 O57 1.306 . S
C56 O59 1.160 . S
O57 C56 1.306 . S
O57 Cd58 2.228 . S
Cd58 O57 2.228 . S
Cd58 O62 2.273 . S
Cd58 O66 2.277 . S
O59 C56 1.160 . S
O59 Cd60 2.203 . S
Cd60 O59 2.203 . S
Cd60 O62 2.411 . S
Cd60 O63 2.333 . S
Cd60 O64 2.352 . S
Cd60 O68 2.277 . S
Cd60 O69 2.356 . S
C61 O66 1.209 . S
C61 O68 1.226 . S
O62 Cd58 2.273 . S
O62 Cd60 2.411 . S
O62 C65 1.320 . S
O63 Cd60 2.333 . S
O63 C65 1.214 . S
O64 Cd60 2.352 . S
O64 C67 1.258 . S
C65 O62 1.320 . S
C65 O63 1.214 . S
O66 Cd58 2.277 . S
O66 C61 1.209 . S
C67 O64 1.258 . S
C67 O69 1.282 . S
O68 Cd60 2.277 . S
O68 C61 1.226 . S
O69 Cd60 2.356 . S
O69 C67 1.282 . S
C70 O71 1.306 . S
C70 O73 1.160 . S
O71 C70 1.306 . S
O71 Cd72 2.228 . S
Cd72 O71 2.228 . S
Cd72 O76 2.273 . S
Cd72 O80 2.277 . S
O73 C70 1.160 . S
O73 Cd74 2.203 . S
Cd74 O73 2.203 . S
Cd74 O76 2.411 . S
Cd74 O77 2.333 . S
Cd74 O78 2.352 . S
Cd74 O82 2.277 . S
Cd74 O83 2.356 . S
C75 O80 1.209 . S
C75 O82 1.226 . S
O76 Cd72 2.273 . S
O76 Cd74 2.411 . S
O76 C79 1.320 . S
O77 Cd74 2.333 . S
O77 C79 1.214 . S
O78 Cd74 2.352 . S
O78 C81 1.258 . S
C79 O76 1.320 . S
C79 O77 1.214 . S
O80 Cd72 2.277 . S
O80 C75 1.209 . S
C81 O78 1.258 . S
C81 O83 1.282 . S
O82 Cd74 2.277 . S
O82 C75 1.226 . S
O83 Cd74 2.356 . S
O83 C81 1.282 . S
C84 O85 1.306 . S
C84 O87 1.160 . S
O85 C84 1.306 . S
O85 Cd86 2.228 . S
Cd86 O85 2.228 . S
Cd86 O90 2.273 . S
Cd86 O94 2.277 . S
O87 C84 1.160 . S
O87 Cd88 2.203 . S
Cd88 O87 2.203 . S
Cd88 O90 2.411 . S
Cd88 O91 2.333 . S
Cd88 O92 2.352 . S
Cd88 O96 2.277 . S
Cd88 O97 2.356 . S
C89 O94 1.209 . S
C89 O96 1.226 . S
O90 Cd86 2.273 . S
O90 Cd88 2.411 . S
O90 C93 1.320 . S
O91 Cd88 2.333 . S
O91 C93 1.214 . S
O92 Cd88 2.352 . S
O92 C95 1.258 . S
C93 O90 1.320 . S
C93 O91 1.214 . S
O94 Cd86 2.277 . S
O94 C89 1.209 . S
C95 O92 1.258 . S
C95 O97 1.282 . S
O96 Cd88 2.277 . S
O96 C89 1.226 . S
O97 Cd88 2.356 . S
O97 C95 1.282 . S
C98 O99 1.306 . S
C98 O101 1.160 . S
O99 C98 1.306 . S
O99 Cd100 2.228 . S
Cd100 O99 2.228 . S
Cd100 O104 2.273 . S
Cd100 O108 2.277 . S
O101 C98 1.160 . S
O101 Cd102 2.203 . S
Cd102 O101 2.203 . S
Cd102 O104 2.411 . S
Cd102 O105 2.333 . S
Cd102 O106 2.352 . S
Cd102 O110 2.277 . S
Cd102 O111 2.356 . S
C103 O108 1.209 . S
C103 O110 1.226 . S
O104 Cd100 2.273 . S
O104 Cd102 2.411 . S
O104 C107 1.320 . S
O105 Cd102 2.333 . S
O105 C107 1.214 . S
O106 Cd102 2.352 . S
O106 C109 1.258 . S
C107 O104 1.320 . S
C107 O105 1.214 . S
O108 Cd100 2.277 . S
O108 C103 1.209 . S
C109 O106 1.258 . S
C109 O111 1.282 . S
O110 Cd102 2.277 . S
O110 C103 1.226 . S
O111 Cd102 2.356 . S
O111 C109 1.282 . S
C112 O113 1.306 . S
C112 O115 1.160 . S
O113 C112 1.306 . S
O113 Cd114 2.228 . S
Cd114 O113 2.228 . S
Cd114 O118 2.273 . S
Cd114 O122 2.277 . S
O115 C112 1.160 . S
O115 Cd116 2.203 . S
Cd116 O115 2.203 . S
Cd116 O118 2.411 . S
Cd116 O119 2.333 . S
Cd116 O120 2.352 . S
Cd116 O124 2.277 . S
Cd116 O125 2.356 . S
C117 O122 1.209 . S
C117 O124 1.226 . S
O118 Cd114 2.273 . S
O118 Cd116 2.411 . S
O118 C121 1.320 . S
O119 Cd116 2.333 . S
O119 C121 1.214 . S
O120 Cd116 2.352 . S
O120 C123 1.258 . S
C121 O118 1.320 . S
C121 O119 1.214 . S
O122 Cd114 2.277 . S
O122 C117 1.209 . S
C123 O120 1.258 . S
C123 O125 1.282 . S
O124 Cd116 2.277 . S
O124 C117 1.226 . S
O125 Cd116 2.356 . S
O125 C123 1.282 . S
C126 O127 1.306 . S
C126 O129 1.160 . S
O127 C126 1.306 . S
O127 Cd128 2.228 . S
Cd128 O127 2.228 . S
Cd128 O132 2.273 . S
Cd128 O136 2.277 . S
O129 C126 1.160 . S
O129 Cd130 2.203 . S
Cd130 O129 2.203 . S
Cd130 O132 2.411 . S
Cd130 O133 2.333 . S
Cd130 O134 2.352 . S
Cd130 O138 2.277 . S
Cd130 O139 2.356 . S
C131 O136 1.209 . S
C131 O138 1.226 . S
O132 Cd128 2.273 . S
O132 Cd130 2.411 . S
O132 C135 1.320 . S
O133 Cd130 2.333 . S
O133 C135 1.214 . S
O134 Cd130 2.352 . S
O134 C137 1.258 . S
C135 O132 1.320 . S
C135 O133 1.214 . S
O136 Cd128 2.277 . S
O136 C131 1.209 . S
C137 O134 1.258 . S
C137 O139 1.282 . S
O138 Cd130 2.277 . S
O138 C131 1.226 . S
O139 Cd130 2.356 . S
O139 C137 1.282 . S
C140 O141 1.306 . S
C140 O143 1.160 . S
O141 C140 1.306 . S
O141 Cd142 2.228 . S
Cd142 O141 2.228 . S
Cd142 O146 2.273 . S
Cd142 O150 2.277 . S
O143 C140 1.160 . S
O143 Cd144 2.203 . S
Cd144 O143 2.203 . S
Cd144 O146 2.411 . S
Cd144 O147 2.333 . S
Cd144 O148 2.352 . S
Cd144 O152 2.277 . S
Cd144 O153 2.356 . S
C145 O150 1.209 . S
C145 O152 1.226 . S
O146 Cd142 2.273 . S
O146 Cd144 2.411 . S
O146 C149 1.320 . S
O147 Cd144 2.333 . S
O147 C149 1.214 . S
O148 Cd144 2.352 . S
O148 C151 1.258 . S
C149 O146 1.320 . S
C149 O147 1.214 . S
O150 Cd142 2.277 . S
O150 C145 1.209 . S
C151 O148 1.258 . S
C151 O153 1.282 . S
O152 Cd144 2.277 . S
O152 C145 1.226 . S
O153 Cd144 2.356 . S
O153 C151 1.282 . S
C154 O155 1.306 . S
C154 O157 1.160 . S
O155 C154 1.306 . S
O155 Cd156 2.228 . S
Cd156 O155 2.228 . S
Cd156 O160 2.273 . S
Cd156 O164 2.277 . S
O157 C154 1.160 . S
O157 Cd158 2.203 . S
Cd158 O157 2.203 . S
Cd158 O160 2.411 . S
Cd158 O161 2.333 . S
Cd158 O162 2.352 . S
Cd158 O166 2.277 . S
Cd158 O167 2.356 . S
C159 O164 1.209 . S
C159 O166 1.226 . S
O160 Cd156 2.273 . S
O160 Cd158 2.411 . S
O160 C163 1.320 . S
O161 Cd158 2.333 . S
O161 C163 1.214 . S
O162 Cd158 2.352 . S
O162 C165 1.258 . S
C163 O160 1.320 . S
C163 O161 1.214 . S
O164 Cd156 2.277 . S
O164 C159 1.209 . S
C165 O162 1.258 . S
C165 O167 1.282 . S
O166 Cd158 2.277 . S
O166 C159 1.226 . S
O167 Cd158 2.356 . S
O167 C165 1.282 . S
C168 O169 1.306 . S
C168 O171 1.160 . S
O169 C168 1.306 . S
O169 Cd170 2.228 . S
Cd170 O169 2.228 . S
Cd170 O174 2.273 . S
Cd170 O178 2.277 . S
O171 C168 1.160 . S
O171 Cd172 2.203 . S
Cd172 O171 2.203 . S
Cd172 O174 2.411 . S
Cd172 O175 2.333 . S
Cd172 O176 2.352 . S
Cd172 O180 2.277 . S
Cd172 O181 2.356 . S
C173 O178 1.209 . S
C173 O180 1.226 . S
O174 Cd170 2.273 . S
O174 Cd172 2.411 . S
O174 C177 1.320 . S
O175 Cd172 2.333 . S
O175 C177 1.214 . S
O176 Cd172 2.352 . S
O176 C179 1.258 . S
C177 O174 1.320 . S
C177 O175 1.214 . S
O178 Cd170 2.277 . S
O178 C173 1.209 . S
C179 O176 1.258 . S
C179 O181 1.282 . S
O180 Cd172 2.277 . S
O180 C173 1.226 . S
O181 Cd172 2.356 . S
O181 C179 1.282 . S
C182 O183 1.306 . S
C182 O185 1.160 . S
O183 C182 1.306 . S
O183 Cd184 2.228 . S
Cd184 O183 2.228 . S
Cd184 O188 2.273 . S
Cd184 O192 2.277 . S
O185 C182 1.160 . S
O185 Cd186 2.203 . S
Cd186 O185 2.203 . S
Cd186 O188 2.411 . S
Cd186 O189 2.333 . S
Cd186 O190 2.352 . S
Cd186 O194 2.277 . S
Cd186 O195 2.356 . S
C187 O192 1.209 . S
C187 O194 1.226 . S
O188 Cd184 2.273 . S
O188 Cd186 2.411 . S
O188 C191 1.320 . S
O189 Cd186 2.333 . S
O189 C191 1.214 . S
O190 Cd186 2.352 . S
O190 C193 1.258 . S
C191 O188 1.320 . S
C191 O189 1.214 . S
O192 Cd184 2.277 . S
O192 C187 1.209 . S
C193 O190 1.258 . S
C193 O195 1.282 . S
O194 Cd186 2.277 . S
O194 C187 1.226 . S
O195 Cd186 2.356 . S
O195 C193 1.282 . S
C196 O197 1.306 . S
C196 O199 1.160 . S
O197 C196 1.306 . S
O197 Cd198 2.228 . S
Cd198 O197 2.228 . S
Cd198 O202 2.273 . S
Cd198 O206 2.277 . S
O199 C196 1.160 . S
O199 Cd200 2.203 . S
Cd200 O199 2.203 . S
Cd200 O202 2.411 . S
Cd200 O203 2.333 . S
Cd200 O204 2.352 . S
Cd200 O208 2.277 . S
Cd200 O209 2.356 . S
C201 O206 1.209 . S
C201 O208 1.226 . S
O202 Cd198 2.273 . S
O202 Cd200 2.411 . S
O202 C205 1.320 . S
O203 Cd200 2.333 . S
O203 C205 1.214 . S
O204 Cd200 2.352 . S
O204 C207 1.258 . S
C205 O202 1.320 . S
C205 O203 1.214 . S
O206 Cd198 2.277 . S
O206 C201 1.209 . S
C207 O204 1.258 . S
C207 O209 1.282 . S
O208 Cd200 2.277 . S
O208 C201 1.226 . S
O209 Cd200 2.356 . S
O209 C207 1.282 . S
C210 O211 1.306 . S
C210 O213 1.160 . S
O211 C210 1.306 . S
O211 Cd212 2.228 . S
Cd212 O211 2.228 . S
Cd212 O216 2.273 . S
Cd212 O220 2.277 . S
O213 C210 1.160 . S
O213 Cd214 2.203 . S
Cd214 O213 2.203 . S
Cd214 O216 2.411 . S
Cd214 O217 2.333 . S
Cd214 O218 2.352 . S
Cd214 O222 2.277 . S
Cd214 O223 2.356 . S
C215 O220 1.209 . S
C215 O222 1.226 . S
O216 Cd212 2.273 . S
O216 Cd214 2.411 . S
O216 C219 1.320 . S
O217 Cd214 2.333 . S
O217 C219 1.214 . S
O218 Cd214 2.352 . S
O218 C221 1.258 . S
C219 O216 1.320 . S
C219 O217 1.214 . S
O220 Cd212 2.277 . S
O220 C215 1.209 . S
C221 O218 1.258 . S
C221 O223 1.282 . S
O222 Cd214 2.277 . S
O222 C215 1.226 . S
O223 Cd214 2.356 . S
O223 C221 1.282 . S
C224 C225 1.349 . S
C224 C226 1.327 . S
C224 H249 0.950 . S
C225 C224 1.349 . S
C225 C241 1.349 . S
C226 C224 1.327 . S
C226 C245 1.429 . S
C226 H250 0.950 . S
C227 C244 1.574 1_455 S
C227 C246 1.368 . S
C227 H251 0.949 . S
H228 C232 0.949 . S
C229 C230 1.349 . S
C229 C231 1.327 . S
C229 H252 0.950 . S
C230 C229 1.349 . S
C230 C242 1.349 . S
C231 C229 1.327 . S
C231 C247 1.429 . S
C231 H253 0.950 . S
C232 H228 0.949 . S
C232 C240 1.574 1_655 S
C232 C248 1.368 . S
H233 C241 0.950 . S
H234 C239 0.950 . S
H235 C240 0.949 . S
H236 C242 0.950 . S
H237 C243 0.950 . S
H238 C244 0.949 . S
C239 H234 0.950 . S
C239 C241 1.327 . S
C239 C245 1.429 . S
C240 C232 1.574 1_455 S
C240 H235 0.949 . S
C240 C246 1.368 . S
C241 C225 1.349 . S
C241 H233 0.950 . S
C241 C239 1.327 . S
C242 C230 1.349 . S
C242 H236 0.950 . S
C242 C243 1.327 . S
C243 H237 0.950 . S
C243 C242 1.327 . S
C243 C247 1.429 . S
C244 C227 1.574 1_655 S
C244 H238 0.949 . S
C244 C248 1.368 . S
C245 C226 1.429 . S
C245 C239 1.429 . S
C245 C246 1.523 . S
C246 C227 1.368 . S
C246 C240 1.368 . S
C246 C245 1.523 . S
C247 C231 1.429 . S
C247 C243 1.429 . S
C247 C248 1.523 . S
C248 C232 1.368 . S
C248 C244 1.368 . S
C248 C247 1.523 . S
H249 C224 0.950 . S
H250 C226 0.950 . S
H251 C227 0.949 . S
H252 C229 0.950 . S
H253 C231 0.950 . S
C254 C255 1.349 . S
C254 C256 1.327 . S
C254 H279 0.950 . S
C255 C254 1.349 . S
C255 C271 1.349 . S
C256 C254 1.327 . S
C256 C275 1.429 . S
C256 H280 0.950 . S
C257 C274 1.574 1_655 S
C257 C276 1.368 . S
C257 H281 0.949 . S
H258 C262 0.949 . S
C259 C260 1.349 . S
C259 C261 1.327 . S
C259 H282 0.950 . S
C260 C259 1.349 . S
C260 C272 1.349 . S
C261 C259 1.327 . S
C261 C277 1.429 . S
C261 H283 0.950 . S
C262 H258 0.949 . S
C262 C270 1.574 1_455 S
C262 C278 1.368 . S
H263 C271 0.950 . S
H264 C269 0.950 . S
H265 C270 0.949 . S
H266 C272 0.950 . S
H267 C273 0.950 . S
H268 C274 0.949 . S
C269 H264 0.950 . S
C269 C271 1.327 . S
C269 C275 1.429 . S
C270 C262 1.574 1_655 S
C270 H265 0.949 . S
C270 C276 1.368 . S
C271 C255 1.349 . S
C271 H263 0.950 . S
C271 C269 1.327 . S
C272 C260 1.349 . S
C272 H266 0.950 . S
C272 C273 1.327 . S
C273 H267 0.950 . S
C273 C272 1.327 . S
C273 C277 1.429 . S
C274 C257 1.574 1_455 S
C274 H268 0.949 . S
C274 C278 1.368 . S
C275 C256 1.429 . S
C275 C269 1.429 . S
C275 C276 1.523 . S
C276 C257 1.368 . S
C276 C270 1.368 . S
C276 C275 1.523 . S
C277 C261 1.429 . S
C277 C273 1.429 . S
C277 C278 1.523 . S
C278 C262 1.368 . S
C278 C274 1.368 . S
C278 C277 1.523 . S
H279 C254 0.950 . S
H280 C256 0.950 . S
H281 C257 0.949 . S
H282 C259 0.950 . S
H283 C261 0.950 . S
C284 C285 1.349 . S
C284 C286 1.327 . S
C284 H309 0.950 . S
C285 C284 1.349 . S
C285 C301 1.349 . S
C286 C284 1.327 . S
C286 C305 1.429 . S
C286 H310 0.950 . S
C287 C304 1.574 1_655 S
C287 C306 1.368 . S
C287 H311 0.949 . S
H288 C292 0.949 . S
C289 C290 1.349 . S
C289 C291 1.327 . S
C289 H312 0.950 . S
C290 C289 1.349 . S
C290 C302 1.349 . S
C291 C289 1.327 . S
C291 C307 1.429 . S
C291 H313 0.950 . S
C292 H288 0.949 . S
C292 C300 1.574 1_455 S
C292 C308 1.368 . S
H293 C301 0.950 . S
H294 C299 0.950 . S
H295 C300 0.949 . S
H296 C302 0.950 . S
H297 C303 0.950 . S
H298 C304 0.949 . S
C299 H294 0.950 . S
C299 C301 1.327 . S
C299 C305 1.429 . S
C300 C292 1.574 1_655 S
C300 H295 0.949 . S
C300 C306 1.368 . S
C301 C285 1.349 . S
C301 H293 0.950 . S
C301 C299 1.327 . S
C302 C290 1.349 . S
C302 H296 0.950 . S
C302 C303 1.327 . S
C303 H297 0.950 . S
C303 C302 1.327 . S
C303 C307 1.429 . S
C304 C287 1.574 1_455 S
C304 H298 0.949 . S
C304 C308 1.368 . S
C305 C286 1.429 . S
C305 C299 1.429 . S
C305 C306 1.523 . S
C306 C287 1.368 . S
C306 C300 1.368 . S
C306 C305 1.523 . S
C307 C291 1.429 . S
C307 C303 1.429 . S
C307 C308 1.523 . S
C308 C292 1.368 . S
C308 C304 1.368 . S
C308 C307 1.523 . S
H309 C284 0.950 . S
H310 C286 0.950 . S
H311 C287 0.949 . S
H312 C289 0.950 . S
H313 C291 0.950 . S
C314 C315 1.349 . S
C314 C316 1.327 . S
C314 H339 0.950 . S
C315 C314 1.349 . S
C315 C331 1.349 . S
C316 C314 1.327 . S
C316 C335 1.429 . S
C316 H340 0.950 . S
C317 C334 1.574 1_455 S
C317 C336 1.368 . S
C317 H341 0.949 . S
H318 C322 0.949 . S
C319 C320 1.349 . S
C319 C321 1.327 . S
C319 H342 0.950 . S
C320 C319 1.349 . S
C320 C332 1.349 . S
C321 C319 1.327 . S
C321 C337 1.429 . S
C321 H343 0.950 . S
C322 H318 0.949 . S
C322 C330 1.574 1_655 S
C322 C338 1.368 . S
H323 C331 0.950 . S
H324 C329 0.950 . S
H325 C330 0.949 . S
H326 C332 0.950 . S
H327 C333 0.950 . S
H328 C334 0.949 . S
C329 H324 0.950 . S
C329 C331 1.327 . S
C329 C335 1.429 . S
C330 C322 1.574 1_455 S
C330 H325 0.949 . S
C330 C336 1.368 . S
C331 C315 1.349 . S
C331 H323 0.950 . S
C331 C329 1.327 . S
C332 C320 1.349 . S
C332 H326 0.950 . S
C332 C333 1.327 . S
C333 H327 0.950 . S
C333 C332 1.327 . S
C333 C337 1.429 . S
C334 C317 1.574 1_655 S
C334 H328 0.949 . S
C334 C338 1.368 . S
C335 C316 1.429 . S
C335 C329 1.429 . S
C335 C336 1.523 . S
C336 C317 1.368 . S
C336 C330 1.368 . S
C336 C335 1.523 . S
C337 C321 1.429 . S
C337 C333 1.429 . S
C337 C338 1.523 . S
C338 C322 1.368 . S
C338 C334 1.368 . S
C338 C337 1.523 . S
H339 C314 0.950 . S
H340 C316 0.950 . S
H341 C317 0.949 . S
H342 C319 0.950 . S
H343 C321 0.950 . S
C344 C345 1.349 . S
C344 C346 1.327 . S
C344 H369 0.950 . S
C345 C344 1.349 . S
C345 C361 1.349 . S
C346 C344 1.327 . S
C346 C365 1.429 . S
C346 H370 0.950 . S
C347 C364 1.574 . S
C347 C366 1.368 . S
C347 H371 0.949 . S
H348 C352 0.949 . S
C349 C350 1.349 . S
C349 C351 1.327 . S
C349 H372 0.950 . S
C350 C349 1.349 . S
C350 C362 1.349 . S
C351 C349 1.327 . S
C351 C367 1.429 . S
C351 H373 0.950 . S
C352 H348 0.949 . S
C352 C360 1.574 . S
C352 C368 1.368 . S
H353 C361 0.950 . S
H354 C359 0.950 . S
H355 C360 0.949 . S
H356 C362 0.950 . S
H357 C363 0.950 . S
H358 C364 0.949 . S
C359 H354 0.950 . S
C359 C361 1.327 . S
C359 C365 1.429 . S
C360 C352 1.574 . S
C360 H355 0.949 . S
C360 C366 1.368 . S
C361 C345 1.349 . S
C361 H353 0.950 . S
C361 C359 1.327 . S
C362 C350 1.349 . S
C362 H356 0.950 . S
C362 C363 1.327 . S
C363 H357 0.950 . S
C363 C362 1.327 . S
C363 C367 1.429 . S
C364 C347 1.574 . S
C364 H358 0.949 . S
C364 C368 1.368 . S
C365 C346 1.429 . S
C365 C359 1.429 . S
C365 C366 1.523 . S
C366 C347 1.368 . S
C366 C360 1.368 . S
C366 C365 1.523 . S
C367 C351 1.429 . S
C367 C363 1.429 . S
C367 C368 1.523 . S
C368 C352 1.368 . S
C368 C364 1.368 . S
C368 C367 1.523 . S
H369 C344 0.950 . S
H370 C346 0.950 . S
H371 C347 0.949 . S
H372 C349 0.950 . S
H373 C351 0.950 . S
C374 C375 1.349 . S
C374 C376 1.327 . S
C374 H399 0.950 . S
C375 C374 1.349 . S
C375 C391 1.349 . S
C376 C374 1.327 . S
C376 C395 1.429 . S
C376 H400 0.950 . S
C377 C394 1.574 . S
C377 C396 1.368 . S
C377 H401 0.949 . S
H378 C382 0.949 . S
C379 C380 1.349 . S
C379 C381 1.327 . S
C379 H402 0.950 . S
C380 C379 1.349 . S
C380 C392 1.349 . S
C381 C379 1.327 . S
C381 C397 1.429 . S
C381 H403 0.950 . S
C382 H378 0.949 . S
C382 C390 1.574 . S
C382 C398 1.368 . S
H383 C391 0.950 . S
H384 C389 0.950 . S
H385 C390 0.949 . S
H386 C392 0.950 . S
H387 C393 0.950 . S
H388 C394 0.949 . S
C389 H384 0.950 . S
C389 C391 1.327 . S
C389 C395 1.429 . S
C390 C382 1.574 . S
C390 H385 0.949 . S
C390 C396 1.368 . S
C391 C375 1.349 . S
C391 H383 0.950 . S
C391 C389 1.327 . S
C392 C380 1.349 . S
C392 H386 0.950 . S
C392 C393 1.327 . S
C393 H387 0.950 . S
C393 C392 1.327 . S
C393 C397 1.429 . S
C394 C377 1.574 . S
C394 H388 0.949 . S
C394 C398 1.368 . S
C395 C376 1.429 . S
C395 C389 1.429 . S
C395 C396 1.523 . S
C396 C377 1.368 . S
C396 C390 1.368 . S
C396 C395 1.523 . S
C397 C381 1.429 . S
C397 C393 1.429 . S
C397 C398 1.523 . S
C398 C382 1.368 . S
C398 C394 1.368 . S
C398 C397 1.523 . S
H399 C374 0.950 . S
H400 C376 0.950 . S
H401 C377 0.949 . S
H402 C379 0.950 . S
H403 C381 0.950 . S
C404 C405 1.349 . S
C404 C406 1.327 . S
C404 H429 0.950 . S
C405 C404 1.349 . S
C405 C421 1.349 . S
C406 C404 1.327 . S
C406 C425 1.429 . S
C406 H430 0.950 . S
C407 C424 1.574 . S
C407 C426 1.368 . S
C407 H431 0.949 . S
H408 C412 0.949 . S
C409 C410 1.349 . S
C409 C411 1.327 . S
C409 H432 0.950 . S
C410 C409 1.349 . S
C410 C422 1.349 . S
C411 C409 1.327 . S
C411 C427 1.429 . S
C411 H433 0.950 . S
C412 H408 0.949 . S
C412 C420 1.574 . S
C412 C428 1.368 . S
H413 C421 0.950 . S
H414 C419 0.950 . S
H415 C420 0.949 . S
H416 C422 0.950 . S
H417 C423 0.950 . S
H418 C424 0.949 . S
C419 H414 0.950 . S
C419 C421 1.327 . S
C419 C425 1.429 . S
C420 C412 1.574 . S
C420 H415 0.949 . S
C420 C426 1.368 . S
C421 C405 1.349 . S
C421 H413 0.950 . S
C421 C419 1.327 . S
C422 C410 1.349 . S
C422 H416 0.950 . S
C422 C423 1.327 . S
C423 H417 0.950 . S
C423 C422 1.327 . S
C423 C427 1.429 . S
C424 C407 1.574 . S
C424 H418 0.949 . S
C424 C428 1.368 . S
C425 C406 1.429 . S
C425 C419 1.429 . S
C425 C426 1.523 . S
C426 C407 1.368 . S
C426 C420 1.368 . S
C426 C425 1.523 . S
C427 C411 1.429 . S
C427 C423 1.429 . S
C427 C428 1.523 . S
C428 C412 1.368 . S
C428 C424 1.368 . S
C428 C427 1.523 . S
H429 C404 0.950 . S
H430 C406 0.950 . S
H431 C407 0.949 . S
H432 C409 0.950 . S
H433 C411 0.950 . S
C434 C435 1.349 . S
C434 C436 1.327 . S
C434 H459 0.950 . S
C435 C434 1.349 . S
C435 C451 1.349 . S
C436 C434 1.327 . S
C436 C455 1.429 . S
C436 H460 0.950 . S
C437 C454 1.574 . S
C437 C456 1.368 . S
C437 H461 0.949 . S
H438 C442 0.949 . S
C439 C440 1.349 . S
C439 C441 1.327 . S
C439 H462 0.950 . S
C440 C439 1.349 . S
C440 C452 1.349 . S
C441 C439 1.327 . S
C441 C457 1.429 . S
C441 H463 0.950 . S
C442 H438 0.949 . S
C442 C450 1.574 . S
C442 C458 1.368 . S
H443 C451 0.950 . S
H444 C449 0.950 . S
H445 C450 0.949 . S
H446 C452 0.950 . S
H447 C453 0.950 . S
H448 C454 0.949 . S
C449 H444 0.950 . S
C449 C451 1.327 . S
C449 C455 1.429 . S
C450 C442 1.574 . S
C450 H445 0.949 . S
C450 C456 1.368 . S
C451 C435 1.349 . S
C451 H443 0.950 . S
C451 C449 1.327 . S
C452 C440 1.349 . S
C452 H446 0.950 . S
C452 C453 1.327 . S
C453 H447 0.950 . S
C453 C452 1.327 . S
C453 C457 1.429 . S
C454 C437 1.574 . S
C454 H448 0.949 . S
C454 C458 1.368 . S
C455 C436 1.429 . S
C455 C449 1.429 . S
C455 C456 1.523 . S
C456 C437 1.368 . S
C456 C450 1.368 . S
C456 C455 1.523 . S
C457 C441 1.429 . S
C457 C453 1.429 . S
C457 C458 1.523 . S
C458 C442 1.368 . S
C458 C454 1.368 . S
C458 C457 1.523 . S
H459 C434 0.950 . S
H460 C436 0.950 . S
H461 C437 0.949 . S
H462 C439 0.950 . S
H463 C441 0.950 . S
C464 C465 1.349 . S
C464 C466 1.327 . S
C464 H489 0.950 . S
C465 C464 1.349 . S
C465 C481 1.349 . S
C466 C464 1.327 . S
C466 C485 1.429 . S
C466 H490 0.950 . S
C467 C484 1.574 . S
C467 C486 1.368 . S
C467 H491 0.949 . S
H468 C472 0.949 . S
C469 C470 1.349 . S
C469 C471 1.327 . S
C469 H492 0.950 . S
C470 C469 1.349 . S
C470 C482 1.349 . S
C471 C469 1.327 . S
C471 C487 1.429 . S
C471 H493 0.950 . S
C472 H468 0.949 . S
C472 C480 1.574 . S
C472 C488 1.368 . S
H473 C481 0.950 . S
H474 C479 0.950 . S
H475 C480 0.949 . S
H476 C482 0.950 . S
H477 C483 0.950 . S
H478 C484 0.949 . S
C479 H474 0.950 . S
C479 C481 1.327 . S
C479 C485 1.429 . S
C480 C472 1.574 . S
C480 H475 0.949 . S
C480 C486 1.368 . S
C481 C465 1.349 . S
C481 H473 0.950 . S
C481 C479 1.327 . S
C482 C470 1.349 . S
C482 H476 0.950 . S
C482 C483 1.327 . S
C483 H477 0.950 . S
C483 C482 1.327 . S
C483 C487 1.429 . S
C484 C467 1.574 . S
C484 H478 0.949 . S
C484 C488 1.368 . S
C485 C466 1.429 . S
C485 C479 1.429 . S
C485 C486 1.523 . S
C486 C467 1.368 . S
C486 C480 1.368 . S
C486 C485 1.523 . S
C487 C471 1.429 . S
C487 C483 1.429 . S
C487 C488 1.523 . S
C488 C472 1.368 . S
C488 C484 1.368 . S
C488 C487 1.523 . S
H489 C464 0.950 . S
H490 C466 0.950 . S
H491 C467 0.949 . S
H492 C469 0.950 . S
H493 C471 0.950 . S
C494 C495 1.349 . S
C494 C496 1.327 . S
C494 H519 0.950 . S
C495 C494 1.349 . S
C495 C511 1.349 . S
C496 C494 1.327 . S
C496 C515 1.429 . S
C496 H520 0.950 . S
C497 C514 1.574 . S
C497 C516 1.368 . S
C497 H521 0.949 . S
H498 C502 0.949 . S
C499 C500 1.349 . S
C499 C501 1.327 . S
C499 H522 0.950 . S
C500 C499 1.349 . S
C500 C512 1.349 . S
C501 C499 1.327 . S
C501 C517 1.429 . S
C501 H523 0.950 . S
C502 H498 0.949 . S
C502 C510 1.574 . S
C502 C518 1.368 . S
H503 C511 0.950 . S
H504 C509 0.950 . S
H505 C510 0.949 . S
H506 C512 0.950 . S
H507 C513 0.950 . S
H508 C514 0.949 . S
C509 H504 0.950 . S
C509 C511 1.327 . S
C509 C515 1.429 . S
C510 C502 1.574 . S
C510 H505 0.949 . S
C510 C516 1.368 . S
C511 C495 1.349 . S
C511 H503 0.950 . S
C511 C509 1.327 . S
C512 C500 1.349 . S
C512 H506 0.950 . S
C512 C513 1.327 . S
C513 H507 0.950 . S
C513 C512 1.327 . S
C513 C517 1.429 . S
C514 C497 1.574 . S
C514 H508 0.949 . S
C514 C518 1.368 . S
C515 C496 1.429 . S
C515 C509 1.429 . S
C515 C516 1.523 . S
C516 C497 1.368 . S
C516 C510 1.368 . S
C516 C515 1.523 . S
C517 C501 1.429 . S
C517 C513 1.429 . S
C517 C518 1.523 . S
C518 C502 1.368 . S
C518 C514 1.368 . S
C518 C517 1.523 . S
H519 C494 0.950 . S
H520 C496 0.950 . S
H521 C497 0.949 . S
H522 C499 0.950 . S
H523 C501 0.950 . S
C524 C525 1.349 . S
C524 C526 1.327 . S
C524 H549 0.950 . S
C525 C524 1.349 . S
C525 C541 1.349 . S
C526 C524 1.327 . S
C526 C545 1.429 . S
C526 H550 0.950 . S
C527 C544 1.574 . S
C527 C546 1.368 . S
C527 H551 0.949 . S
H528 C532 0.949 . S
C529 C530 1.349 . S
C529 C531 1.327 . S
C529 H552 0.950 . S
C530 C529 1.349 . S
C530 C542 1.349 . S
C531 C529 1.327 . S
C531 C547 1.429 . S
C531 H553 0.950 . S
C532 H528 0.949 . S
C532 C540 1.574 . S
C532 C548 1.368 . S
H533 C541 0.950 . S
H534 C539 0.950 . S
H535 C540 0.949 . S
H536 C542 0.950 . S
H537 C543 0.950 . S
H538 C544 0.949 . S
C539 H534 0.950 . S
C539 C541 1.327 . S
C539 C545 1.429 . S
C540 C532 1.574 . S
C540 H535 0.949 . S
C540 C546 1.368 . S
C541 C525 1.349 . S
C541 H533 0.950 . S
C541 C539 1.327 . S
C542 C530 1.349 . S
C542 H536 0.950 . S
C542 C543 1.327 . S
C543 H537 0.950 . S
C543 C542 1.327 . S
C543 C547 1.429 . S
C544 C527 1.574 . S
C544 H538 0.949 . S
C544 C548 1.368 . S
C545 C526 1.429 . S
C545 C539 1.429 . S
C545 C546 1.523 . S
C546 C527 1.368 . S
C546 C540 1.368 . S
C546 C545 1.523 . S
C547 C531 1.429 . S
C547 C543 1.429 . S
C547 C548 1.523 . S
C548 C532 1.368 . S
C548 C544 1.368 . S
C548 C547 1.523 . S
H549 C524 0.950 . S
H550 C526 0.950 . S
H551 C527 0.949 . S
H552 C529 0.950 . S
H553 C531 0.950 . S
C554 C555 1.349 . S
C554 C556 1.327 . S
C554 H579 0.950 . S
C555 C554 1.349 . S
C555 C571 1.349 . S
C556 C554 1.327 . S
C556 C575 1.429 . S
C556 H580 0.950 . S
C557 C574 1.574 . S
C557 C576 1.368 . S
C557 H581 0.949 . S
H558 C562 0.949 . S
C559 C560 1.349 . S
C559 C561 1.327 . S
C559 H582 0.950 . S
C560 C559 1.349 . S
C560 C572 1.349 . S
C561 C559 1.327 . S
C561 C577 1.429 . S
C561 H583 0.950 . S
C562 H558 0.949 . S
C562 C570 1.574 . S
C562 C578 1.368 . S
H563 C571 0.950 . S
H564 C569 0.950 . S
H565 C570 0.949 . S
H566 C572 0.950 . S
H567 C573 0.950 . S
H568 C574 0.949 . S
C569 H564 0.950 . S
C569 C571 1.327 . S
C569 C575 1.429 . S
C570 C562 1.574 . S
C570 H565 0.949 . S
C570 C576 1.368 . S
C571 C555 1.349 . S
C571 H563 0.950 . S
C571 C569 1.327 . S
C572 C560 1.349 . S
C572 H566 0.950 . S
C572 C573 1.327 . S
C573 H567 0.950 . S
C573 C572 1.327 . S
C573 C577 1.429 . S
C574 C557 1.574 . S
C574 H568 0.949 . S
C574 C578 1.368 . S
C575 C556 1.429 . S
C575 C569 1.429 . S
C575 C576 1.523 . S
C576 C557 1.368 . S
C576 C570 1.368 . S
C576 C575 1.523 . S
C577 C561 1.429 . S
C577 C573 1.429 . S
C577 C578 1.523 . S
C578 C562 1.368 . S
C578 C574 1.368 . S
C578 C577 1.523 . S
H579 C554 0.950 . S
H580 C556 0.950 . S
H581 C557 0.949 . S
H582 C559 0.950 . S
H583 C561 0.950 . S
C584 C585 1.349 . S
C584 C586 1.327 . S
C584 H609 0.950 . S
C585 C584 1.349 . S
C585 C601 1.349 . S
C586 C584 1.327 . S
C586 C605 1.429 . S
C586 H610 0.950 . S
C587 C604 1.574 . S
C587 C606 1.368 . S
C587 H611 0.949 . S
H588 C592 0.949 . S
C589 C590 1.349 . S
C589 C591 1.327 . S
C589 H612 0.950 . S
C590 C589 1.349 . S
C590 C602 1.349 . S
C591 C589 1.327 . S
C591 C607 1.429 . S
C591 H613 0.950 . S
C592 H588 0.949 . S
C592 C600 1.574 . S
C592 C608 1.368 . S
H593 C601 0.950 . S
H594 C599 0.950 . S
H595 C600 0.949 . S
H596 C602 0.950 . S
H597 C603 0.950 . S
H598 C604 0.949 . S
C599 H594 0.950 . S
C599 C601 1.327 . S
C599 C605 1.429 . S
C600 C592 1.574 . S
C600 H595 0.949 . S
C600 C606 1.368 . S
C601 C585 1.349 . S
C601 H593 0.950 . S
C601 C599 1.327 . S
C602 C590 1.349 . S
C602 H596 0.950 . S
C602 C603 1.327 . S
C603 H597 0.950 . S
C603 C602 1.327 . S
C603 C607 1.429 . S
C604 C587 1.574 . S
C604 H598 0.949 . S
C604 C608 1.368 . S
C605 C586 1.429 . S
C605 C599 1.429 . S
C605 C606 1.523 . S
C606 C587 1.368 . S
C606 C600 1.368 . S
C606 C605 1.523 . S
C607 C591 1.429 . S
C607 C603 1.429 . S
C607 C608 1.523 . S
C608 C592 1.368 . S
C608 C604 1.368 . S
C608 C607 1.523 . S
H609 C584 0.950 . S
H610 C586 0.950 . S
H611 C587 0.949 . S
H612 C589 0.950 . S
H613 C591 0.950 . S
C614 C615 1.349 . S
C614 C616 1.327 . S
C614 H639 0.950 . S
C615 C614 1.349 . S
C615 C631 1.349 . S
C616 C614 1.327 . S
C616 C635 1.429 . S
C616 H640 0.950 . S
C617 C634 1.574 . S
C617 C636 1.368 . S
C617 H641 0.949 . S
H618 C622 0.949 . S
C619 C620 1.349 . S
C619 C621 1.327 . S
C619 H642 0.950 . S
C620 C619 1.349 . S
C620 C632 1.349 . S
C621 C619 1.327 . S
C621 C637 1.429 . S
C621 H643 0.950 . S
C622 H618 0.949 . S
C622 C630 1.574 . S
C622 C638 1.368 . S
H623 C631 0.950 . S
H624 C629 0.950 . S
H625 C630 0.949 . S
H626 C632 0.950 . S
H627 C633 0.950 . S
H628 C634 0.949 . S
C629 H624 0.950 . S
C629 C631 1.327 . S
C629 C635 1.429 . S
C630 C622 1.574 . S
C630 H625 0.949 . S
C630 C636 1.368 . S
C631 C615 1.349 . S
C631 H623 0.950 . S
C631 C629 1.327 . S
C632 C620 1.349 . S
C632 H626 0.950 . S
C632 C633 1.327 . S
C633 H627 0.950 . S
C633 C632 1.327 . S
C633 C637 1.429 . S
C634 C617 1.574 . S
C634 H628 0.949 . S
C634 C638 1.368 . S
C635 C616 1.429 . S
C635 C629 1.429 . S
C635 C636 1.523 . S
C636 C617 1.368 . S
C636 C630 1.368 . S
C636 C635 1.523 . S
C637 C621 1.429 . S
C637 C633 1.429 . S
C637 C638 1.523 . S
C638 C622 1.368 . S
C638 C634 1.368 . S
C638 C637 1.523 . S
H639 C614 0.950 . S
H640 C616 0.950 . S
H641 C617 0.949 . S
H642 C619 0.950 . S
H643 C621 0.950 . S
C644 C645 1.349 . S
C644 C646 1.327 . S
C644 H669 0.950 . S
C645 C644 1.349 . S
C645 C661 1.349 . S
C646 C644 1.327 . S
C646 C665 1.429 . S
C646 H670 0.950 . S
C647 C664 1.574 . S
C647 C666 1.368 . S
C647 H671 0.949 . S
H648 C652 0.949 . S
C649 C650 1.349 . S
C649 C651 1.327 . S
C649 H672 0.950 . S
C650 C649 1.349 . S
C650 C662 1.349 . S
C651 C649 1.327 . S
C651 C667 1.429 . S
C651 H673 0.950 . S
C652 H648 0.949 . S
C652 C660 1.574 . S
C652 C668 1.368 . S
H653 C661 0.950 . S
H654 C659 0.950 . S
H655 C660 0.949 . S
H656 C662 0.950 . S
H657 C663 0.950 . S
H658 C664 0.949 . S
C659 H654 0.950 . S
C659 C661 1.327 . S
C659 C665 1.429 . S
C660 C652 1.574 . S
C660 H655 0.949 . S
C660 C666 1.368 . S
C661 C645 1.349 . S
C661 H653 0.950 . S
C661 C659 1.327 . S
C662 C650 1.349 . S
C662 H656 0.950 . S
C662 C663 1.327 . S
C663 H657 0.950 . S
C663 C662 1.327 . S
C663 C667 1.429 . S
C664 C647 1.574 . S
C664 H658 0.949 . S
C664 C668 1.368 . S
C665 C646 1.429 . S
C665 C659 1.429 . S
C665 C666 1.523 . S
C666 C647 1.368 . S
C666 C660 1.368 . S
C666 C665 1.523 . S
C667 C651 1.429 . S
C667 C663 1.429 . S
C667 C668 1.523 . S
C668 C652 1.368 . S
C668 C664 1.368 . S
C668 C667 1.523 . S
H669 C644 0.950 . S
H670 C646 0.950 . S
H671 C647 0.949 . S
H672 C649 0.950 . S
H673 C651 0.950 . S
C674 C675 1.349 . S
C674 C676 1.327 . S
C674 H699 0.950 . S
C675 C674 1.349 . S
C675 C691 1.349 . S
C676 C674 1.327 . S
C676 C695 1.429 . S
C676 H700 0.950 . S
C677 C694 1.574 . S
C677 C696 1.368 . S
C677 H701 0.949 . S
H678 C682 0.949 . S
C679 C680 1.349 . S
C679 C681 1.327 . S
C679 H702 0.950 . S
C680 C679 1.349 . S
C680 C692 1.349 . S
C681 C679 1.327 . S
C681 C697 1.429 . S
C681 H703 0.950 . S
C682 H678 0.949 . S
C682 C690 1.574 . S
C682 C698 1.368 . S
H683 C691 0.950 . S
H684 C689 0.950 . S
H685 C690 0.949 . S
H686 C692 0.950 . S
H687 C693 0.950 . S
H688 C694 0.949 . S
C689 H684 0.950 . S
C689 C691 1.327 . S
C689 C695 1.429 . S
C690 C682 1.574 . S
C690 H685 0.949 . S
C690 C696 1.368 . S
C691 C675 1.349 . S
C691 H683 0.950 . S
C691 C689 1.327 . S
C692 C680 1.349 . S
C692 H686 0.950 . S
C692 C693 1.327 . S
C693 H687 0.950 . S
C693 C692 1.327 . S
C693 C697 1.429 . S
C694 C677 1.574 . S
C694 H688 0.949 . S
C694 C698 1.368 . S
C695 C676 1.429 . S
C695 C689 1.429 . S
C695 C696 1.523 . S
C696 C677 1.368 . S
C696 C690 1.368 . S
C696 C695 1.523 . S
C697 C681 1.429 . S
C697 C693 1.429 . S
C697 C698 1.523 . S
C698 C682 1.368 . S
C698 C694 1.368 . S
C698 C697 1.523 . S
H699 C674 0.950 . S
H700 C676 0.950 . S
H701 C677 0.949 . S
H702 C679 0.950 . S
H703 C681 0.950 . S
C704 C705 1.349 . S
C704 C706 1.327 . S
C704 H729 0.950 . S
C705 C704 1.349 . S
C705 C721 1.349 . S
C706 C704 1.327 . S
C706 C725 1.429 . S
C706 H730 0.950 . S
C707 C724 1.574 . S
C707 C726 1.368 1_554 S
C707 H731 0.949 . S
H708 C712 0.949 . S
C709 C710 1.349 . S
C709 C711 1.327 . S
C709 H732 0.950 . S
C710 C709 1.349 . S
C710 C722 1.349 . S
C711 C709 1.327 . S
C711 C727 1.429 . S
C711 H733 0.950 . S
C712 H708 0.949 . S
C712 C720 1.574 . S
C712 C728 1.368 1_556 S
H713 C721 0.950 . S
H714 C719 0.950 1_554 S
H715 C720 0.949 . S
H716 C722 0.950 . S
H717 C723 0.950 1_556 S
H718 C724 0.949 . S
C719 H714 0.950 1_556 S
C719 C721 1.327 . S
C719 C725 1.429 . S
C720 C712 1.574 . S
C720 H715 0.949 . S
C720 C726 1.368 . S
C721 C705 1.349 . S
C721 H713 0.950 . S
C721 C719 1.327 . S
C722 C710 1.349 . S
C722 H716 0.950 . S
C722 C723 1.327 . S
C723 H717 0.950 1_554 S
C723 C722 1.327 . S
C723 C727 1.429 . S
C724 C707 1.574 . S
C724 H718 0.949 . S
C724 C728 1.368 . S
C725 C706 1.429 . S
C725 C719 1.429 . S
C725 C726 1.523 . S
C726 C707 1.368 1_556 S
C726 C720 1.368 . S
C726 C725 1.523 . S
C727 C711 1.429 . S
C727 C723 1.429 . S
C727 C728 1.523 . S
C728 C712 1.368 1_554 S
C728 C724 1.368 . S
C728 C727 1.523 . S
H729 C704 0.950 . S
H730 C706 0.950 . S
H731 C707 0.949 . S
H732 C709 0.950 . S
H733 C711 0.950 . S
C734 C735 1.349 . S
C734 C736 1.327 . S
C734 H759 0.950 . S
C735 C734 1.349 . S
C735 C751 1.349 . S
C736 C734 1.327 . S
C736 C755 1.429 . S
C736 H760 0.950 . S
C737 C754 1.574 . S
C737 C756 1.368 . S
C737 H761 0.949 . S
H738 C742 0.949 . S
C739 C740 1.349 . S
C739 C741 1.327 . S
C739 H762 0.950 . S
C740 C739 1.349 . S
C740 C752 1.349 . S
C741 C739 1.327 . S
C741 C757 1.429 . S
C741 H763 0.950 . S
C742 H738 0.949 . S
C742 C750 1.574 . S
C742 C758 1.368 . S
H743 C751 0.950 . S
H744 C749 0.950 . S
H745 C750 0.949 . S
H746 C752 0.950 . S
H747 C753 0.950 . S
H748 C754 0.949 . S
C749 H744 0.950 . S
C749 C751 1.327 . S
C749 C755 1.429 . S
C750 C742 1.574 . S
C750 H745 0.949 . S
C750 C756 1.368 . S
C751 C735 1.349 . S
C751 H743 0.950 . S
C751 C749 1.327 . S
C752 C740 1.349 . S
C752 H746 0.950 . S
C752 C753 1.327 . S
C753 H747 0.950 . S
C753 C752 1.327 . S
C753 C757 1.429 . S
C754 C737 1.574 . S
C754 H748 0.949 . S
C754 C758 1.368 . S
C755 C736 1.429 . S
C755 C749 1.429 . S
C755 C756 1.523 . S
C756 C737 1.368 . S
C756 C750 1.368 . S
C756 C755 1.523 . S
C757 C741 1.429 . S
C757 C753 1.429 . S
C757 C758 1.523 . S
C758 C742 1.368 . S
C758 C754 1.368 . S
C758 C757 1.523 . S
H759 C734 0.950 . S
H760 C736 0.950 . S
H761 C737 0.949 . S
H762 C739 0.950 . S
H763 C741 0.950 . S
C764 C765 1.349 . S
C764 C766 1.327 . S
C764 H789 0.950 . S
C765 C764 1.349 . S
C765 C781 1.349 . S
C766 C764 1.327 . S
C766 C785 1.429 . S
C766 H790 0.950 1_554 S
C767 C784 1.574 . S
C767 C786 1.368 . S
C767 H791 0.949 . S
H768 C772 0.949 . S
C769 C770 1.349 . S
C769 C771 1.327 . S
C769 H792 0.950 . S
C770 C769 1.349 . S
C770 C782 1.349 . S
C771 C769 1.327 . S
C771 C787 1.429 . S
C771 H793 0.950 1_556 S
C772 H768 0.949 . S
C772 C780 1.574 . S
C772 C788 1.368 . S
H773 C781 0.950 . S
H774 C779 0.950 . S
H775 C780 0.949 . S
H776 C782 0.950 . S
H777 C783 0.950 . S
H778 C784 0.949 . S
C779 H774 0.950 . S
C779 C781 1.327 . S
C779 C785 1.429 . S
C780 C772 1.574 . S
C780 H775 0.949 . S
C780 C786 1.368 1_556 S
C781 C765 1.349 . S
C781 H773 0.950 . S
C781 C779 1.327 . S
C782 C770 1.349 . S
C782 H776 0.950 . S
C782 C783 1.327 . S
C783 H777 0.950 . S
C783 C782 1.327 . S
C783 C787 1.429 . S
C784 C767 1.574 . S
C784 H778 0.949 . S
C784 C788 1.368 1_554 S
C785 C766 1.429 . S
C785 C779 1.429 . S
C785 C786 1.523 . S
C786 C767 1.368 . S
C786 C780 1.368 1_554 S
C786 C785 1.523 . S
C787 C771 1.429 . S
C787 C783 1.429 . S
C787 C788 1.523 . S
C788 C772 1.368 . S
C788 C784 1.368 1_556 S
C788 C787 1.523 . S
H789 C764 0.950 . S
H790 C766 0.950 1_556 S
H791 C767 0.949 . S
H792 C769 0.950 . S
H793 C771 0.950 1_554 S
C794 C795 1.349 . S
C794 C796 1.327 . S
C794 H819 0.950 . S
C795 C794 1.349 . S
C795 C811 1.349 . S
C796 C794 1.327 . S
C796 C815 1.429 . S
C796 H820 0.950 . S
C797 C814 1.574 . S
C797 C816 1.368 . S
C797 H821 0.949 . S
H798 C802 0.949 . S
C799 C800 1.349 . S
C799 C801 1.327 . S
C799 H822 0.950 . S
C800 C799 1.349 . S
C800 C812 1.349 . S
C801 C799 1.327 . S
C801 C817 1.429 . S
C801 H823 0.950 . S
C802 H798 0.949 . S
C802 C810 1.574 . S
C802 C818 1.368 . S
H803 C811 0.950 . S
H804 C809 0.950 . S
H805 C810 0.949 . S
H806 C812 0.950 . S
H807 C813 0.950 . S
H808 C814 0.949 . S
C809 H804 0.950 . S
C809 C811 1.327 . S
C809 C815 1.429 . S
C810 C802 1.574 . S
C810 H805 0.949 . S
C810 C816 1.368 . S
C811 C795 1.349 . S
C811 H803 0.950 . S
C811 C809 1.327 . S
C812 C800 1.349 . S
C812 H806 0.950 . S
C812 C813 1.327 . S
C813 H807 0.950 . S
C813 C812 1.327 . S
C813 C817 1.429 . S
C814 C797 1.574 . S
C814 H808 0.949 . S
C814 C818 1.368 . S
C815 C796 1.429 . S
C815 C809 1.429 . S
C815 C816 1.523 . S
C816 C797 1.368 . S
C816 C810 1.368 . S
C816 C815 1.523 . S
C817 C801 1.429 . S
C817 C813 1.429 . S
C817 C818 1.523 . S
C818 C802 1.368 . S
C818 C814 1.368 . S
C818 C817 1.523 . S
H819 C794 0.950 . S
H820 C796 0.950 . S
H821 C797 0.949 . S
H822 C799 0.950 . S
H823 C801 0.950 . S
C824 C825 1.349 . S
C824 C826 1.327 . S
C824 H849 0.950 . S
C825 C824 1.349 . S
C825 C841 1.349 . S
C826 C824 1.327 . S
C826 C845 1.429 . S
C826 H850 0.950 . S
C827 C844 1.574 1_554 S
C827 C846 1.368 . S
C827 H851 0.949 . S
H828 C832 0.949 . S
C829 C830 1.349 . S
C829 C831 1.327 . S
C829 H852 0.950 . S
C830 C829 1.349 . S
C830 C842 1.349 . S
C831 C829 1.327 . S
C831 C847 1.429 . S
C831 H853 0.950 . S
C832 H828 0.949 . S
C832 C840 1.574 1_556 S
C832 C848 1.368 . S
H833 C841 0.950 . S
H834 C839 0.950 . S
H835 C840 0.949 . S
H836 C842 0.950 . S
H837 C843 0.950 . S
H838 C844 0.949 . S
C839 H834 0.950 . S
C839 C841 1.327 . S
C839 C845 1.429 . S
C840 C832 1.574 1_554 S
C840 H835 0.949 . S
C840 C846 1.368 . S
C841 C825 1.349 . S
C841 H833 0.950 . S
C841 C839 1.327 . S
C842 C830 1.349 . S
C842 H836 0.950 . S
C842 C843 1.327 . S
C843 H837 0.950 . S
C843 C842 1.327 . S
C843 C847 1.429 . S
C844 C827 1.574 1_556 S
C844 H838 0.949 . S
C844 C848 1.368 . S
C845 C826 1.429 . S
C845 C839 1.429 . S
C845 C846 1.523 . S
C846 C827 1.368 . S
C846 C840 1.368 . S
C846 C845 1.523 . S
C847 C831 1.429 . S
C847 C843 1.429 . S
C847 C848 1.523 . S
C848 C832 1.368 . S
C848 C844 1.368 . S
C848 C847 1.523 . S
H849 C824 0.950 . S
H850 C826 0.950 . S
H851 C827 0.949 . S
H852 C829 0.950 . S
H853 C831 0.950 . S
C854 C855 1.349 . S
C854 C856 1.327 . S
C854 H879 0.950 . S
C855 C854 1.349 . S
C855 C871 1.349 . S
C856 C854 1.327 . S
C856 C875 1.429 . S
C856 H880 0.950 . S
C857 C874 1.574 . S
C857 C876 1.368 . S
C857 H881 0.949 . S
H858 C862 0.949 . S
C859 C860 1.349 . S
C859 C861 1.327 . S
C859 H882 0.950 . S
C860 C859 1.349 . S
C860 C872 1.349 . S
C861 C859 1.327 . S
C861 C877 1.429 . S
C861 H883 0.950 . S
C862 H858 0.949 . S
C862 C870 1.574 . S
C862 C878 1.368 . S
H863 C871 0.950 . S
H864 C869 0.950 . S
H865 C870 0.949 . S
H866 C872 0.950 . S
H867 C873 0.950 . S
H868 C874 0.949 . S
C869 H864 0.950 . S
C869 C871 1.327 . S
C869 C875 1.429 . S
C870 C862 1.574 . S
C870 H865 0.949 . S
C870 C876 1.368 . S
C871 C855 1.349 . S
C871 H863 0.950 . S
C871 C869 1.327 . S
C872 C860 1.349 . S
C872 H866 0.950 . S
C872 C873 1.327 . S
C873 H867 0.950 . S
C873 C872 1.327 . S
C873 C877 1.429 . S
C874 C857 1.574 . S
C874 H868 0.949 . S
C874 C878 1.368 . S
C875 C856 1.429 . S
C875 C869 1.429 . S
C875 C876 1.523 . S
C876 C857 1.368 . S
C876 C870 1.368 . S
C876 C875 1.523 . S
C877 C861 1.429 . S
C877 C873 1.429 . S
C877 C878 1.523 . S
C878 C862 1.368 . S
C878 C874 1.368 . S
C878 C877 1.523 . S
H879 C854 0.950 . S
H880 C856 0.950 . S
H881 C857 0.949 . S
H882 C859 0.950 . S
H883 C861 0.950 . S
C884 C885 1.349 . S
C884 C886 1.327 . S
C884 H909 0.950 . S
C885 C884 1.349 . S
C885 C901 1.349 . S
C886 C884 1.327 . S
C886 C905 1.429 . S
C886 H910 0.950 . S
C887 C904 1.574 . S
C887 C906 1.368 . S
C887 H911 0.949 . S
H888 C892 0.949 . S
C889 C890 1.349 . S
C889 C891 1.327 . S
C889 H912 0.950 . S
C890 C889 1.349 . S
C890 C902 1.349 . S
C891 C889 1.327 . S
C891 C907 1.429 . S
C891 H913 0.950 . S
C892 H888 0.949 . S
C892 C900 1.574 . S
C892 C908 1.368 . S
H893 C901 0.950 . S
H894 C899 0.950 . S
H895 C900 0.949 . S
H896 C902 0.950 . S
H897 C903 0.950 . S
H898 C904 0.949 . S
C899 H894 0.950 . S
C899 C901 1.327 . S
C899 C905 1.429 . S
C900 C892 1.574 . S
C900 H895 0.949 . S
C900 C906 1.368 1_556 S
C901 C885 1.349 . S
C901 H893 0.950 . S
C901 C899 1.327 . S
C902 C890 1.349 . S
C902 H896 0.950 . S
C902 C903 1.327 . S
C903 H897 0.950 . S
C903 C902 1.327 . S
C903 C907 1.429 . S
C904 C887 1.574 . S
C904 H898 0.949 . S
C904 C908 1.368 1_554 S
C905 C886 1.429 . S
C905 C899 1.429 . S
C905 C906 1.523 . S
C906 C887 1.368 . S
C906 C900 1.368 1_554 S
C906 C905 1.523 . S
C907 C891 1.429 . S
C907 C903 1.429 . S
C907 C908 1.523 . S
C908 C892 1.368 . S
C908 C904 1.368 1_556 S
C908 C907 1.523 . S
H909 C884 0.950 . S
H910 C886 0.950 . S
H911 C887 0.949 . S
H912 C889 0.950 . S
H913 C891 0.950 . S
C914 C915 1.349 . S
C914 C916 1.327 . S
C914 H939 0.950 . S
C915 C914 1.349 . S
C915 C931 1.349 . S
C916 C914 1.327 . S
C916 C935 1.429 . S
C916 H940 0.950 . S
C917 C934 1.574 . S
C917 C936 1.368 . S
C917 H941 0.949 . S
H918 C922 0.949 . S
C919 C920 1.349 . S
C919 C921 1.327 . S
C919 H942 0.950 . S
C920 C919 1.349 . S
C920 C932 1.349 . S
C921 C919 1.327 . S
C921 C937 1.429 . S
C921 H943 0.950 . S
C922 H918 0.949 . S
C922 C930 1.574 . S
C922 C938 1.368 . S
H923 C931 0.950 . S
H924 C929 0.950 . S
H925 C930 0.949 . S
H926 C932 0.950 . S
H927 C933 0.950 . S
H928 C934 0.949 . S
C929 H924 0.950 . S
C929 C931 1.327 . S
C929 C935 1.429 . S
C930 C922 1.574 . S
C930 H925 0.949 . S
C930 C936 1.368 . S
C931 C915 1.349 . S
C931 H923 0.950 . S
C931 C929 1.327 . S
C932 C920 1.349 . S
C932 H926 0.950 . S
C932 C933 1.327 . S
C933 H927 0.950 . S
C933 C932 1.327 . S
C933 C937 1.429 . S
C934 C917 1.574 . S
C934 H928 0.949 . S
C934 C938 1.368 . S
C935 C916 1.429 . S
C935 C929 1.429 . S
C935 C936 1.523 . S
C936 C917 1.368 . S
C936 C930 1.368 . S
C936 C935 1.523 . S
C937 C921 1.429 . S
C937 C933 1.429 . S
C937 C938 1.523 . S
C938 C922 1.368 . S
C938 C934 1.368 . S
C938 C937 1.523 . S
H939 C914 0.950 . S
H940 C916 0.950 . S
H941 C917 0.949 . S
H942 C919 0.950 . S
H943 C921 0.950 . S
C944 C945 1.349 . S
C944 C946 1.327 . S
C944 H969 0.950 . S
C945 C944 1.349 . S
C945 C961 1.349 . S
C946 C944 1.327 . S
C946 C965 1.429 . S
C946 H970 0.950 . S
C947 C964 1.574 . S
C947 C966 1.368 1_554 S
C947 H971 0.949 . S
H948 C952 0.949 . S
C949 C950 1.349 . S
C949 C951 1.327 . S
C949 H972 0.950 . S
C950 C949 1.349 . S
C950 C962 1.349 . S
C951 C949 1.327 . S
C951 C967 1.429 . S
C951 H973 0.950 . S
C952 H948 0.949 . S
C952 C960 1.574 . S
C952 C968 1.368 1_556 S
H953 C961 0.950 . S
H954 C959 0.950 1_554 S
H955 C960 0.949 . S
H956 C962 0.950 . S
H957 C963 0.950 1_556 S
H958 C964 0.949 . S
C959 H954 0.950 1_556 S
C959 C961 1.327 . S
C959 C965 1.429 . S
C960 C952 1.574 . S
C960 H955 0.949 . S
C960 C966 1.368 . S
C961 C945 1.349 . S
C961 H953 0.950 . S
C961 C959 1.327 . S
C962 C950 1.349 . S
C962 H956 0.950 . S
C962 C963 1.327 . S
C963 H957 0.950 1_554 S
C963 C962 1.327 . S
C963 C967 1.429 . S
C964 C947 1.574 . S
C964 H958 0.949 . S
C964 C968 1.368 . S
C965 C946 1.429 . S
C965 C959 1.429 . S
C965 C966 1.523 . S
C966 C947 1.368 1_556 S
C966 C960 1.368 . S
C966 C965 1.523 . S
C967 C951 1.429 . S
C967 C963 1.429 . S
C967 C968 1.523 . S
C968 C952 1.368 1_554 S
C968 C964 1.368 . S
C968 C967 1.523 . S
H969 C944 0.950 . S
H970 C946 0.950 . S
H971 C947 0.949 . S
H972 C949 0.950 . S
H973 C951 0.950 . S
C974 C975 1.349 . S
C974 C976 1.327 . S
C974 H999 0.950 . S
C975 C974 1.349 . S
C975 C991 1.349 . S
C976 C974 1.327 . S
C976 C995 1.429 . S
C976 H1000 0.950 . S
C977 C994 1.574 . S
C977 C996 1.368 . S
C977 H1001 0.949 . S
H978 C982 0.949 . S
C979 C980 1.349 . S
C979 C981 1.327 . S
C979 H1002 0.950 . S
C980 C979 1.349 . S
C980 C992 1.349 . S
C981 C979 1.327 . S
C981 C997 1.429 . S
C981 H1003 0.950 . S
C982 H978 0.949 . S
C982 C990 1.574 . S
C982 C998 1.368 . S
H983 C991 0.950 . S
H984 C989 0.950 . S
H985 C990 0.949 . S
H986 C992 0.950 . S
H987 C993 0.950 . S
H988 C994 0.949 . S
C989 H984 0.950 . S
C989 C991 1.327 . S
C989 C995 1.429 . S
C990 C982 1.574 . S
C990 H985 0.949 . S
C990 C996 1.368 . S
C991 C975 1.349 . S
C991 H983 0.950 . S
C991 C989 1.327 . S
C992 C980 1.349 . S
C992 H986 0.950 . S
C992 C993 1.327 . S
C993 H987 0.950 . S
C993 C992 1.327 . S
C993 C997 1.429 . S
C994 C977 1.574 . S
C994 H988 0.949 . S
C994 C998 1.368 . S
C995 C976 1.429 . S
C995 C989 1.429 . S
C995 C996 1.523 . S
C996 C977 1.368 . S
C996 C990 1.368 . S
C996 C995 1.523 . S
C997 C981 1.429 . S
C997 C993 1.429 . S
C997 C998 1.523 . S
C998 C982 1.368 . S
C998 C994 1.368 . S
C998 C997 1.523 . S
H999 C974 0.950 . S
H1000 C976 0.950 . S
H1001 C977 0.949 . S
H1002 C979 0.950 . S
H1003 C981 0.950 . S
C1004 C1005 1.349 . S
C1004 C1006 1.327 . S
C1004 H1029 0.950 . S
C1005 C1004 1.349 . S
C1005 C1021 1.349 . S
C1006 C1004 1.327 . S
C1006 C1025 1.429 . S
C1006 H1030 0.950 . S
C1007 C1024 1.574 . S
C1007 C1026 1.368 1_556 S
C1007 H1031 0.949 . S
H1008 C1012 0.949 . S
C1009 C1010 1.349 . S
C1009 C1011 1.327 . S
C1009 H1032 0.950 . S
C1010 C1009 1.349 . S
C1010 C1022 1.349 . S
C1011 C1009 1.327 . S
C1011 C1027 1.429 . S
C1011 H1033 0.950 . S
C1012 H1008 0.949 . S
C1012 C1020 1.574 . S
C1012 C1028 1.368 1_554 S
H1013 C1021 0.950 . S
H1014 C1019 0.950 1_556 S
H1015 C1020 0.949 . S
H1016 C1022 0.950 . S
H1017 C1023 0.950 1_554 S
H1018 C1024 0.949 . S
C1019 H1014 0.950 1_554 S
C1019 C1021 1.327 . S
C1019 C1025 1.429 . S
C1020 C1012 1.574 . S
C1020 H1015 0.949 . S
C1020 C1026 1.368 . S
C1021 C1005 1.349 . S
C1021 H1013 0.950 . S
C1021 C1019 1.327 . S
C1022 C1010 1.349 . S
C1022 H1016 0.950 . S
C1022 C1023 1.327 . S
C1023 H1017 0.950 1_556 S
C1023 C1022 1.327 . S
C1023 C1027 1.429 . S
C1024 C1007 1.574 . S
C1024 H1018 0.949 . S
C1024 C1028 1.368 . S
C1025 C1006 1.429 . S
C1025 C1019 1.429 . S
C1025 C1026 1.523 . S
C1026 C1007 1.368 1_554 S
C1026 C1020 1.368 . S
C1026 C1025 1.523 . S
C1027 C1011 1.429 . S
C1027 C1023 1.429 . S
C1027 C1028 1.523 . S
C1028 C1012 1.368 1_556 S
C1028 C1024 1.368 . S
C1028 C1027 1.523 . S
H1029 C1004 0.950 . S
H1030 C1006 0.950 . S
H1031 C1007 0.949 . S
H1032 C1009 0.950 . S
H1033 C1011 0.950 . S
C1034 C1035 1.349 . S
C1034 C1036 1.327 . S
C1034 H1059 0.950 . S
C1035 C1034 1.349 . S
C1035 C1051 1.349 . S
C1036 C1034 1.327 . S
C1036 C1055 1.429 . S
C1036 H1060 0.950 . S
C1037 C1054 1.574 . S
C1037 C1056 1.368 . S
C1037 H1061 0.949 . S
H1038 C1042 0.949 . S
C1039 C1040 1.349 . S
C1039 C1041 1.327 . S
C1039 H1062 0.950 . S
C1040 C1039 1.349 . S
C1040 C1052 1.349 . S
C1041 C1039 1.327 . S
C1041 C1057 1.429 . S
C1041 H1063 0.950 . S
C1042 H1038 0.949 . S
C1042 C1050 1.574 . S
C1042 C1058 1.368 . S
H1043 C1051 0.950 . S
H1044 C1049 0.950 . S
H1045 C1050 0.949 . S
H1046 C1052 0.950 . S
H1047 C1053 0.950 . S
H1048 C1054 0.949 . S
C1049 H1044 0.950 . S
C1049 C1051 1.327 . S
C1049 C1055 1.429 . S
C1050 C1042 1.574 . S
C1050 H1045 0.949 . S
C1050 C1056 1.368 . S
C1051 C1035 1.349 . S
C1051 H1043 0.950 . S
C1051 C1049 1.327 . S
C1052 C1040 1.349 . S
C1052 H1046 0.950 . S
C1052 C1053 1.327 . S
C1053 H1047 0.950 . S
C1053 C1052 1.327 . S
C1053 C1057 1.429 . S
C1054 C1037 1.574 . S
C1054 H1048 0.949 . S
C1054 C1058 1.368 . S
C1055 C1036 1.429 . S
C1055 C1049 1.429 . S
C1055 C1056 1.523 . S
C1056 C1037 1.368 . S
C1056 C1050 1.368 . S
C1056 C1055 1.523 . S
C1057 C1041 1.429 . S
C1057 C1053 1.429 . S
C1057 C1058 1.523 . S
C1058 C1042 1.368 . S
C1058 C1054 1.368 . S
C1058 C1057 1.523 . S
H1059 C1034 0.950 . S
H1060 C1036 0.950 . S
H1061 C1037 0.949 . S
H1062 C1039 0.950 . S
H1063 C1041 0.950 . S
C1064 C1065 1.349 . S
C1064 C1066 1.327 . S
C1064 H1089 0.950 . S
C1065 C1064 1.349 . S
C1065 C1081 1.349 . S
C1066 C1064 1.327 . S
C1066 C1085 1.429 . S
C1066 H1090 0.950 . S
C1067 C1084 1.574 1_545 S
C1067 C1086 1.368 . S
C1067 H1091 0.949 . S
H1068 C1072 0.949 . S
C1069 C1070 1.349 . S
C1069 C1071 1.327 . S
C1069 H1092 0.950 . S
C1070 C1069 1.349 . S
C1070 C1082 1.349 . S
C1071 C1069 1.327 . S
C1071 C1087 1.429 . S
C1071 H1093 0.950 . S
C1072 H1068 0.949 . S
C1072 C1080 1.574 1_565 S
C1072 C1088 1.368 . S
H1073 C1081 0.950 . S
H1074 C1079 0.950 . S
H1075 C1080 0.949 . S
H1076 C1082 0.950 . S
H1077 C1083 0.950 . S
H1078 C1084 0.949 . S
C1079 H1074 0.950 . S
C1079 C1081 1.327 . S
C1079 C1085 1.429 . S
C1080 C1072 1.574 1_545 S
C1080 H1075 0.949 . S
C1080 C1086 1.368 1_554 S
C1081 C1065 1.349 . S
C1081 H1073 0.950 . S
C1081 C1079 1.327 . S
C1082 C1070 1.349 . S
C1082 H1076 0.950 . S
C1082 C1083 1.327 . S
C1083 H1077 0.950 . S
C1083 C1082 1.327 . S
C1083 C1087 1.429 . S
C1084 C1067 1.574 1_565 S
C1084 H1078 0.949 . S
C1084 C1088 1.368 1_556 S
C1085 C1066 1.429 . S
C1085 C1079 1.429 . S
C1085 C1086 1.523 . S
C1086 C1067 1.368 . S
C1086 C1080 1.368 1_556 S
C1086 C1085 1.523 . S
C1087 C1071 1.429 . S
C1087 C1083 1.429 . S
C1087 C1088 1.523 . S
C1088 C1072 1.368 . S
C1088 C1084 1.368 1_554 S
C1088 C1087 1.523 . S
H1089 C1064 0.950 . S
H1090 C1066 0.950 . S
H1091 C1067 0.949 . S
H1092 C1069 0.950 . S
H1093 C1071 0.950 . S
C1094 C1095 1.349 . S
C1094 C1096 1.327 . S
C1094 H1119 0.950 . S
C1095 C1094 1.349 . S
C1095 C1111 1.349 . S
C1096 C1094 1.327 . S
C1096 C1115 1.429 . S
C1096 H1120 0.950 . S
C1097 C1114 1.574 1_565 S
C1097 C1116 1.368 . S
C1097 H1121 0.949 . S
H1098 C1102 0.949 . S
C1099 C1100 1.349 . S
C1099 C1101 1.327 . S
C1099 H1122 0.950 . S
C1100 C1099 1.349 . S
C1100 C1112 1.349 . S
C1101 C1099 1.327 . S
C1101 C1117 1.429 . S
C1101 H1123 0.950 . S
C1102 H1098 0.949 . S
C1102 C1110 1.574 1_545 S
C1102 C1118 1.368 . S
H1103 C1111 0.950 . S
H1104 C1109 0.950 . S
H1105 C1110 0.949 . S
H1106 C1112 0.950 . S
H1107 C1113 0.950 . S
H1108 C1114 0.949 . S
C1109 H1104 0.950 . S
C1109 C1111 1.327 . S
C1109 C1115 1.429 . S
C1110 C1102 1.574 1_565 S
C1110 H1105 0.949 . S
C1110 C1116 1.368 . S
C1111 C1095 1.349 . S
C1111 H1103 0.950 . S
C1111 C1109 1.327 . S
C1112 C1100 1.349 . S
C1112 H1106 0.950 . S
C1112 C1113 1.327 . S
C1113 H1107 0.950 . S
C1113 C1112 1.327 . S
C1113 C1117 1.429 . S
C1114 C1097 1.574 1_545 S
C1114 H1108 0.949 . S
C1114 C1118 1.368 . S
C1115 C1096 1.429 . S
C1115 C1109 1.429 . S
C1115 C1116 1.523 . S
C1116 C1097 1.368 . S
C1116 C1110 1.368 . S
C1116 C1115 1.523 . S
C1117 C1101 1.429 . S
C1117 C1113 1.429 . S
C1117 C1118 1.523 . S
C1118 C1102 1.368 . S
C1118 C1114 1.368 . S
C1118 C1117 1.523 . S
H1119 C1094 0.950 . S
H1120 C1096 0.950 . S
H1121 C1097 0.949 . S
H1122 C1099 0.950 . S
H1123 C1101 0.950 . S
C1124 C1125 1.349 . S
C1124 C1126 1.327 . S
C1124 H1149 0.950 . S
C1125 C1124 1.349 . S
C1125 C1141 1.349 . S
C1126 C1124 1.327 . S
C1126 C1145 1.429 . S
C1126 H1150 0.950 1_554 S
C1127 C1144 1.574 1_565 S
C1127 C1146 1.368 . S
C1127 H1151 0.949 . S
H1128 C1132 0.949 . S
C1129 C1130 1.349 . S
C1129 C1131 1.327 . S
C1129 H1152 0.950 . S
C1130 C1129 1.349 . S
C1130 C1142 1.349 . S
C1131 C1129 1.327 . S
C1131 C1147 1.429 . S
C1131 H1153 0.950 1_556 S
C1132 H1128 0.949 . S
C1132 C1140 1.574 1_545 S
C1132 C1148 1.368 . S
H1133 C1141 0.950 . S
H1134 C1139 0.950 . S
H1135 C1140 0.949 . S
H1136 C1142 0.950 . S
H1137 C1143 0.950 . S
H1138 C1144 0.949 . S
C1139 H1134 0.950 . S
C1139 C1141 1.327 . S
C1139 C1145 1.429 . S
C1140 C1132 1.574 1_565 S
C1140 H1135 0.949 . S
C1140 C1146 1.368 1_556 S
C1141 C1125 1.349 . S
C1141 H1133 0.950 . S
C1141 C1139 1.327 . S
C1142 C1130 1.349 . S
C1142 H1136 0.950 . S
C1142 C1143 1.327 . S
C1143 H1137 0.950 . S
C1143 C1142 1.327 . S
C1143 C1147 1.429 . S
C1144 C1127 1.574 1_545 S
C1144 H1138 0.949 . S
C1144 C1148 1.368 1_554 S
C1145 C1126 1.429 . S
C1145 C1139 1.429 . S
C1145 C1146 1.523 . S
C1146 C1127 1.368 . S
C1146 C1140 1.368 1_554 S
C1146 C1145 1.523 . S
C1147 C1131 1.429 . S
C1147 C1143 1.429 . S
C1147 C1148 1.523 . S
C1148 C1132 1.368 . S
C1148 C1144 1.368 1_556 S
C1148 C1147 1.523 . S
H1149 C1124 0.950 . S
H1150 C1126 0.950 1_556 S
H1151 C1127 0.949 . S
H1152 C1129 0.950 . S
H1153 C1131 0.950 1_554 S
C1154 C1155 1.349 . S
C1154 C1156 1.327 . S
C1154 H1179 0.950 . S
C1155 C1154 1.349 . S
C1155 C1171 1.349 . S
C1156 C1154 1.327 . S
C1156 C1175 1.429 . S
C1156 H1180 0.950 . S
C1157 C1174 1.574 1_545 S
C1157 C1176 1.368 . S
C1157 H1181 0.949 . S
H1158 C1162 0.949 . S
C1159 C1160 1.349 . S
C1159 C1161 1.327 . S
C1159 H1182 0.950 . S
C1160 C1159 1.349 . S
C1160 C1172 1.349 . S
C1161 C1159 1.327 . S
C1161 C1177 1.429 . S
C1161 H1183 0.950 . S
C1162 H1158 0.949 . S
C1162 C1170 1.574 1_565 S
C1162 C1178 1.368 . S
H1163 C1171 0.950 . S
H1164 C1169 0.950 . S
H1165 C1170 0.949 . S
H1166 C1172 0.950 . S
H1167 C1173 0.950 . S
H1168 C1174 0.949 . S
C1169 H1164 0.950 . S
C1169 C1171 1.327 . S
C1169 C1175 1.429 . S
C1170 C1162 1.574 1_545 S
C1170 H1165 0.949 . S
C1170 C1176 1.368 . S
C1171 C1155 1.349 . S
C1171 H1163 0.950 . S
C1171 C1169 1.327 . S
C1172 C1160 1.349 . S
C1172 H1166 0.950 . S
C1172 C1173 1.327 . S
C1173 H1167 0.950 . S
C1173 C1172 1.327 . S
C1173 C1177 1.429 . S
C1174 C1157 1.574 1_565 S
C1174 H1168 0.949 . S
C1174 C1178 1.368 . S
C1175 C1156 1.429 . S
C1175 C1169 1.429 . S
C1175 C1176 1.523 . S
C1176 C1157 1.368 . S
C1176 C1170 1.368 . S
C1176 C1175 1.523 . S
C1177 C1161 1.429 . S
C1177 C1173 1.429 . S
C1177 C1178 1.523 . S
C1178 C1162 1.368 . S
C1178 C1174 1.368 . S
C1178 C1177 1.523 . S
H1179 C1154 0.950 . S
H1180 C1156 0.950 . S
H1181 C1157 0.949 . S
H1182 C1159 0.950 . S
H1183 C1161 0.950 . S
C225 C5 1.430 . S
C230 C89 1.430 . S
C255 C19 1.430 . S
C260 C103 1.430 . S
C285 C61 1.430 . S
C290 C33 1.430 . S
C315 C75 1.430 . S
C320 C47 1.430 . S
C345 C201 1.430 . S
C350 C117 1.430 . S
C375 C215 1.430 . S
C380 C131 1.430 . S
C405 C145 1.430 . S
C410 C173 1.430 . S
C435 C159 1.430 . S
C440 C187 1.430 . S
C465 C9 1.473 . S
C470 C70 1.449 . S
C495 C23 1.473 . S
C500 C56 1.449 . S
C525 C37 1.473 . S
C530 C98 1.449 . S
C555 C84 1.449 . S
C560 C51 1.473 . S
C585 C182 1.449 . S
C590 C121 1.473 . S
C615 C168 1.449 . S
C620 C135 1.473 . S
C645 C149 1.473 . S
C650 C210 1.449 . S
C675 C196 1.449 . S
C680 C163 1.473 . S
C705 C179 1.364 . S
C710 C11 1.369 . S
C735 C25 1.369 . S
C740 C193 1.364 . S
C765 C207 1.364 . S
C770 C39 1.369 . S
C795 C221 1.364 . S
C800 C53 1.369 . S
C825 C123 1.369 . S
C830 C67 1.364 . S
C855 C137 1.369 . S
C860 C81 1.364 . S
C885 C95 1.364 . S
C890 C151 1.369 . S
C915 C109 1.364 . S
C920 C165 1.369 . S
C945 C28 1.436 . S
C950 C0 1.436 . S
C975 C14 1.436 . S
C980 C42 1.436 . S
C1005 C93 1.490 . S
C1010 C65 1.490 . S
C1035 C79 1.490 . S
C1040 C107 1.490 . S
C1065 C140 1.436 . S
C1070 C112 1.436 . S
C1095 C154 1.436 . S
C1100 C126 1.436 . S
C1125 C205 1.490 . S
C1130 C177 1.490 . S
C1155 C219 1.490 . S
C1160 C191 1.490 . S
