# Generated by pormake.
# Topology twf-e, (6)-cn, num edge types: 1
# Building blocks:
#     Node 0, Type 0, BuildingBlock: KUMBUR_clean_sbu_1, # of connection points: 6
#     Node 1, Type 0, BuildingBlock: KUMBUR_clean_sbu_1, # of connection points: 6
#     Node 2, Type 0, BuildingBlock: KUMBUR_clean_sbu_1, # of connection points: 6
#     Node 3, Type 0, BuildingBlock: KUMBUR_clean_sbu_1, # of connection points: 6
#     Node 4, Type 0, BuildingBlock: KUMBUR_clean_sbu_1, # of connection points: 6
#     Node 5, Type 0, BuildingBlock: KUMBUR_clean_sbu_1, # of connection points: 6
#     Node 6, Type 0, BuildingBlock: KUMBUR_clean_sbu_1, # of connection points: 6
#     Node 7, Type 0, BuildingBlock: KUMBUR_clean_sbu_1, # of connection points: 6
#     Node 8, Type 0, BuildingBlock: KUMBUR_clean_sbu_1, # of connection points: 6
#     Node 9, Type 0, BuildingBlock: KUMBUR_clean_sbu_1, # of connection points: 6
#     Node 10, Type 0, BuildingBlock: KUMBUR_clean_sbu_1, # of connection points: 6
#     Node 11, Type 0, BuildingBlock: KUMBUR_clean_sbu_1, # of connection points: 6
#     Node 12, Type 0, BuildingBlock: KUMBUR_clean_sbu_1, # of connection points: 6
#     Node 13, Type 0, BuildingBlock: KUMBUR_clean_sbu_1, # of connection points: 6
#     Node 14, Type 0, BuildingBlock: KUMBUR_clean_sbu_1, # of connection points: 6
#     Node 15, Type 0, BuildingBlock: KUMBUR_clean_sbu_1, # of connection points: 6
#     Node 16, Type 0, BuildingBlock: KUMBUR_clean_sbu_1, # of connection points: 6
#     Node 17, Type 0, BuildingBlock: KUMBUR_clean_sbu_1, # of connection points: 6
#     Node 18, Type 0, BuildingBlock: KUMBUR_clean_sbu_1, # of connection points: 6
#     Node 19, Type 0, BuildingBlock: KUMBUR_clean_sbu_1, # of connection points: 6
#     Node 20, Type 0, BuildingBlock: KUMBUR_clean_sbu_1, # of connection points: 6
#     Node 21, Type 0, BuildingBlock: KUMBUR_clean_sbu_1, # of connection points: 6
#     Node 22, Type 0, BuildingBlock: KUMBUR_clean_sbu_1, # of connection points: 6
#     Node 23, Type 0, BuildingBlock: KUMBUR_clean_sbu_1, # of connection points: 6
#     Node 24, Type 0, BuildingBlock: KUMBUR_clean_sbu_1, # of connection points: 6
#     Node 25, Type 0, BuildingBlock: KUMBUR_clean_sbu_1, # of connection points: 6
#     Node 26, Type 0, BuildingBlock: KUMBUR_clean_sbu_1, # of connection points: 6
#     Node 27, Type 0, BuildingBlock: KUMBUR_clean_sbu_1, # of connection points: 6
#     Node 28, Type 0, BuildingBlock: KUMBUR_clean_sbu_1, # of connection points: 6
#     Node 29, Type 0, BuildingBlock: KUMBUR_clean_sbu_1, # of connection points: 6
#     Node 30, Type 0, BuildingBlock: KUMBUR_clean_sbu_1, # of connection points: 6
#     Node 31, Type 0, BuildingBlock: KUMBUR_clean_sbu_1, # of connection points: 6
#     Node 32, Type 0, BuildingBlock: KUMBUR_clean_sbu_1, # of connection points: 6
#     Node 33, Type 0, BuildingBlock: KUMBUR_clean_sbu_1, # of connection points: 6
#     Node 34, Type 0, BuildingBlock: KUMBUR_clean_sbu_1, # of connection points: 6
#     Node 35, Type 0, BuildingBlock: KUMBUR_clean_sbu_1, # of connection points: 6
#     Node 36, Type 0, BuildingBlock: KUMBUR_clean_sbu_1, # of connection points: 6
#     Node 37, Type 0, BuildingBlock: KUMBUR_clean_sbu_1, # of connection points: 6
#     Node 38, Type 0, BuildingBlock: KUMBUR_clean_sbu_1, # of connection points: 6
#     Node 39, Type 0, BuildingBlock: KUMBUR_clean_sbu_1, # of connection points: 6
#     Node 40, Type 0, BuildingBlock: KUMBUR_clean_sbu_1, # of connection points: 6
#     Node 41, Type 0, BuildingBlock: KUMBUR_clean_sbu_1, # of connection points: 6
#     Node 42, Type 0, BuildingBlock: KUMBUR_clean_sbu_1, # of connection points: 6
#     Node 43, Type 0, BuildingBlock: KUMBUR_clean_sbu_1, # of connection points: 6
#     Node 44, Type 0, BuildingBlock: KUMBUR_clean_sbu_1, # of connection points: 6
#     Node 45, Type 0, BuildingBlock: KUMBUR_clean_sbu_1, # of connection points: 6
#     Node 46, Type 0, BuildingBlock: KUMBUR_clean_sbu_1, # of connection points: 6
#     Node 47, Type 0, BuildingBlock: KUMBUR_clean_sbu_1, # of connection points: 6
#     Edge 48, Type (0, 0), BuildingBlock: CIFDUS_clean_linker_0, # of connection points: 2
#     Edge 49, Type (0, 0), BuildingBlock: CIFDUS_clean_linker_0, # of connection points: 2
#     Edge 50, Type (0, 0), BuildingBlock: CIFDUS_clean_linker_0, # of connection points: 2
#     Edge 51, Type (0, 0), BuildingBlock: CIFDUS_clean_linker_0, # of connection points: 2
#     Edge 52, Type (0, 0), BuildingBlock: CIFDUS_clean_linker_0, # of connection points: 2
#     Edge 53, Type (0, 0), BuildingBlock: CIFDUS_clean_linker_0, # of connection points: 2
#     Edge 54, Type (0, 0), BuildingBlock: CIFDUS_clean_linker_0, # of connection points: 2
#     Edge 55, Type (0, 0), BuildingBlock: CIFDUS_clean_linker_0, # of connection points: 2
#     Edge 56, Type (0, 0), BuildingBlock: CIFDUS_clean_linker_0, # of connection points: 2
#     Edge 57, Type (0, 0), BuildingBlock: CIFDUS_clean_linker_0, # of connection points: 2
#     Edge 58, Type (0, 0), BuildingBlock: CIFDUS_clean_linker_0, # of connection points: 2
#     Edge 59, Type (0, 0), BuildingBlock: CIFDUS_clean_linker_0, # of connection points: 2
#     Edge 60, Type (0, 0), BuildingBlock: CIFDUS_clean_linker_0, # of connection points: 2
#     Edge 61, Type (0, 0), BuildingBlock: CIFDUS_clean_linker_0, # of connection points: 2
#     Edge 62, Type (0, 0), BuildingBlock: CIFDUS_clean_linker_0, # of connection points: 2
#     Edge 63, Type (0, 0), BuildingBlock: CIFDUS_clean_linker_0, # of connection points: 2
#     Edge 64, Type (0, 0), BuildingBlock: CIFDUS_clean_linker_0, # of connection points: 2
#     Edge 65, Type (0, 0), BuildingBlock: CIFDUS_clean_linker_0, # of connection points: 2
#     Edge 66, Type (0, 0), BuildingBlock: CIFDUS_clean_linker_0, # of connection points: 2
#     Edge 67, Type (0, 0), BuildingBlock: CIFDUS_clean_linker_0, # of connection points: 2
#     Edge 68, Type (0, 0), BuildingBlock: CIFDUS_clean_linker_0, # of connection points: 2
#     Edge 69, Type (0, 0), BuildingBlock: CIFDUS_clean_linker_0, # of connection points: 2
#     Edge 70, Type (0, 0), BuildingBlock: CIFDUS_clean_linker_0, # of connection points: 2
#     Edge 71, Type (0, 0), BuildingBlock: CIFDUS_clean_linker_0, # of connection points: 2
#     Edge 72, Type (0, 0), BuildingBlock: CIFDUS_clean_linker_0, # of connection points: 2
#     Edge 73, Type (0, 0), BuildingBlock: CIFDUS_clean_linker_0, # of connection points: 2
#     Edge 74, Type (0, 0), BuildingBlock: CIFDUS_clean_linker_0, # of connection points: 2
#     Edge 75, Type (0, 0), BuildingBlock: CIFDUS_clean_linker_0, # of connection points: 2
#     Edge 76, Type (0, 0), BuildingBlock: CIFDUS_clean_linker_0, # of connection points: 2
#     Edge 77, Type (0, 0), BuildingBlock: CIFDUS_clean_linker_0, # of connection points: 2
#     Edge 78, Type (0, 0), BuildingBlock: CIFDUS_clean_linker_0, # of connection points: 2
#     Edge 79, Type (0, 0), BuildingBlock: CIFDUS_clean_linker_0, # of connection points: 2
#     Edge 80, Type (0, 0), BuildingBlock: CIFDUS_clean_linker_0, # of connection points: 2
#     Edge 81, Type (0, 0), BuildingBlock: CIFDUS_clean_linker_0, # of connection points: 2
#     Edge 82, Type (0, 0), BuildingBlock: CIFDUS_clean_linker_0, # of connection points: 2
#     Edge 83, Type (0, 0), BuildingBlock: CIFDUS_clean_linker_0, # of connection points: 2
#     Edge 84, Type (0, 0), BuildingBlock: CIFDUS_clean_linker_0, # of connection points: 2
#     Edge 85, Type (0, 0), BuildingBlock: CIFDUS_clean_linker_0, # of connection points: 2
#     Edge 86, Type (0, 0), BuildingBlock: CIFDUS_clean_linker_0, # of connection points: 2
#     Edge 87, Type (0, 0), BuildingBlock: CIFDUS_clean_linker_0, # of connection points: 2
#     Edge 88, Type (0, 0), BuildingBlock: CIFDUS_clean_linker_0, # of connection points: 2
#     Edge 89, Type (0, 0), BuildingBlock: CIFDUS_clean_linker_0, # of connection points: 2
#     Edge 90, Type (0, 0), BuildingBlock: CIFDUS_clean_linker_0, # of connection points: 2
#     Edge 91, Type (0, 0), BuildingBlock: CIFDUS_clean_linker_0, # of connection points: 2
#     Edge 92, Type (0, 0), BuildingBlock: CIFDUS_clean_linker_0, # of connection points: 2
#     Edge 93, Type (0, 0), BuildingBlock: CIFDUS_clean_linker_0, # of connection points: 2
#     Edge 94, Type (0, 0), BuildingBlock: CIFDUS_clean_linker_0, # of connection points: 2
#     Edge 95, Type (0, 0), BuildingBlock: CIFDUS_clean_linker_0, # of connection points: 2
#     Edge 96, Type (0, 0), BuildingBlock: CIFDUS_clean_linker_0, # of connection points: 2
#     Edge 97, Type (0, 0), BuildingBlock: CIFDUS_clean_linker_0, # of connection points: 2
#     Edge 98, Type (0, 0), BuildingBlock: CIFDUS_clean_linker_0, # of connection points: 2
#     Edge 99, Type (0, 0), BuildingBlock: CIFDUS_clean_linker_0, # of connection points: 2
#     Edge 100, Type (0, 0), BuildingBlock: CIFDUS_clean_linker_0, # of connection points: 2
#     Edge 101, Type (0, 0), BuildingBlock: CIFDUS_clean_linker_0, # of connection points: 2
#     Edge 102, Type (0, 0), BuildingBlock: CIFDUS_clean_linker_0, # of connection points: 2
#     Edge 103, Type (0, 0), BuildingBlock: CIFDUS_clean_linker_0, # of connection points: 2
#     Edge 104, Type (0, 0), BuildingBlock: CIFDUS_clean_linker_0, # of connection points: 2
#     Edge 105, Type (0, 0), BuildingBlock: CIFDUS_clean_linker_0, # of connection points: 2
#     Edge 106, Type (0, 0), BuildingBlock: CIFDUS_clean_linker_0, # of connection points: 2
#     Edge 107, Type (0, 0), BuildingBlock: CIFDUS_clean_linker_0, # of connection points: 2
#     Edge 108, Type (0, 0), BuildingBlock: CIFDUS_clean_linker_0, # of connection points: 2
#     Edge 109, Type (0, 0), BuildingBlock: CIFDUS_clean_linker_0, # of connection points: 2
#     Edge 110, Type (0, 0), BuildingBlock: CIFDUS_clean_linker_0, # of connection points: 2
#     Edge 111, Type (0, 0), BuildingBlock: CIFDUS_clean_linker_0, # of connection points: 2
#     Edge 112, Type (0, 0), BuildingBlock: CIFDUS_clean_linker_0, # of connection points: 2
#     Edge 113, Type (0, 0), BuildingBlock: CIFDUS_clean_linker_0, # of connection points: 2
#     Edge 114, Type (0, 0), BuildingBlock: CIFDUS_clean_linker_0, # of connection points: 2
#     Edge 115, Type (0, 0), BuildingBlock: CIFDUS_clean_linker_0, # of connection points: 2
#     Edge 116, Type (0, 0), BuildingBlock: CIFDUS_clean_linker_0, # of connection points: 2
#     Edge 117, Type (0, 0), BuildingBlock: CIFDUS_clean_linker_0, # of connection points: 2
#     Edge 118, Type (0, 0), BuildingBlock: CIFDUS_clean_linker_0, # of connection points: 2
#     Edge 119, Type (0, 0), BuildingBlock: CIFDUS_clean_linker_0, # of connection points: 2
#     Edge 120, Type (0, 0), BuildingBlock: CIFDUS_clean_linker_0, # of connection points: 2
#     Edge 121, Type (0, 0), BuildingBlock: CIFDUS_clean_linker_0, # of connection points: 2
#     Edge 122, Type (0, 0), BuildingBlock: CIFDUS_clean_linker_0, # of connection points: 2
#     Edge 123, Type (0, 0), BuildingBlock: CIFDUS_clean_linker_0, # of connection points: 2
#     Edge 124, Type (0, 0), BuildingBlock: CIFDUS_clean_linker_0, # of connection points: 2
#     Edge 125, Type (0, 0), BuildingBlock: CIFDUS_clean_linker_0, # of connection points: 2
#     Edge 126, Type (0, 0), BuildingBlock: CIFDUS_clean_linker_0, # of connection points: 2
#     Edge 127, Type (0, 0), BuildingBlock: CIFDUS_clean_linker_0, # of connection points: 2
#     Edge 128, Type (0, 0), BuildingBlock: CIFDUS_clean_linker_0, # of connection points: 2
#     Edge 129, Type (0, 0), BuildingBlock: CIFDUS_clean_linker_0, # of connection points: 2
#     Edge 130, Type (0, 0), BuildingBlock: CIFDUS_clean_linker_0, # of connection points: 2
#     Edge 131, Type (0, 0), BuildingBlock: CIFDUS_clean_linker_0, # of connection points: 2
#     Edge 132, Type (0, 0), BuildingBlock: CIFDUS_clean_linker_0, # of connection points: 2
#     Edge 133, Type (0, 0), BuildingBlock: CIFDUS_clean_linker_0, # of connection points: 2
#     Edge 134, Type (0, 0), BuildingBlock: CIFDUS_clean_linker_0, # of connection points: 2
#     Edge 135, Type (0, 0), BuildingBlock: CIFDUS_clean_linker_0, # of connection points: 2
#     Edge 136, Type (0, 0), BuildingBlock: CIFDUS_clean_linker_0, # of connection points: 2
#     Edge 137, Type (0, 0), BuildingBlock: CIFDUS_clean_linker_0, # of connection points: 2
#     Edge 138, Type (0, 0), BuildingBlock: CIFDUS_clean_linker_0, # of connection points: 2
#     Edge 139, Type (0, 0), BuildingBlock: CIFDUS_clean_linker_0, # of connection points: 2
#     Edge 140, Type (0, 0), BuildingBlock: CIFDUS_clean_linker_0, # of connection points: 2
#     Edge 141, Type (0, 0), BuildingBlock: CIFDUS_clean_linker_0, # of connection points: 2
#     Edge 142, Type (0, 0), BuildingBlock: CIFDUS_clean_linker_0, # of connection points: 2
#     Edge 143, Type (0, 0), BuildingBlock: CIFDUS_clean_linker_0, # of connection points: 2
#     Edge 144, Type (0, 0), BuildingBlock: CIFDUS_clean_linker_0, # of connection points: 2
#     Edge 145, Type (0, 0), BuildingBlock: CIFDUS_clean_linker_0, # of connection points: 2
#     Edge 146, Type (0, 0), BuildingBlock: CIFDUS_clean_linker_0, # of connection points: 2
#     Edge 147, Type (0, 0), BuildingBlock: CIFDUS_clean_linker_0, # of connection points: 2
#     Edge 148, Type (0, 0), BuildingBlock: CIFDUS_clean_linker_0, # of connection points: 2
#     Edge 149, Type (0, 0), BuildingBlock: CIFDUS_clean_linker_0, # of connection points: 2
#     Edge 150, Type (0, 0), BuildingBlock: CIFDUS_clean_linker_0, # of connection points: 2
#     Edge 151, Type (0, 0), BuildingBlock: CIFDUS_clean_linker_0, # of connection points: 2
#     Edge 152, Type (0, 0), BuildingBlock: CIFDUS_clean_linker_0, # of connection points: 2
#     Edge 153, Type (0, 0), BuildingBlock: CIFDUS_clean_linker_0, # of connection points: 2
#     Edge 154, Type (0, 0), BuildingBlock: CIFDUS_clean_linker_0, # of connection points: 2
#     Edge 155, Type (0, 0), BuildingBlock: CIFDUS_clean_linker_0, # of connection points: 2
#     Edge 156, Type (0, 0), BuildingBlock: CIFDUS_clean_linker_0, # of connection points: 2
#     Edge 157, Type (0, 0), BuildingBlock: CIFDUS_clean_linker_0, # of connection points: 2
#     Edge 158, Type (0, 0), BuildingBlock: CIFDUS_clean_linker_0, # of connection points: 2
#     Edge 159, Type (0, 0), BuildingBlock: CIFDUS_clean_linker_0, # of connection points: 2
#     Edge 160, Type (0, 0), BuildingBlock: CIFDUS_clean_linker_0, # of connection points: 2
#     Edge 161, Type (0, 0), BuildingBlock: CIFDUS_clean_linker_0, # of connection points: 2
#     Edge 162, Type (0, 0), BuildingBlock: CIFDUS_clean_linker_0, # of connection points: 2
#     Edge 163, Type (0, 0), BuildingBlock: CIFDUS_clean_linker_0, # of connection points: 2
#     Edge 164, Type (0, 0), BuildingBlock: CIFDUS_clean_linker_0, # of connection points: 2
#     Edge 165, Type (0, 0), BuildingBlock: CIFDUS_clean_linker_0, # of connection points: 2
#     Edge 166, Type (0, 0), BuildingBlock: CIFDUS_clean_linker_0, # of connection points: 2
#     Edge 167, Type (0, 0), BuildingBlock: CIFDUS_clean_linker_0, # of connection points: 2
#     Edge 168, Type (0, 0), BuildingBlock: CIFDUS_clean_linker_0, # of connection points: 2
#     Edge 169, Type (0, 0), BuildingBlock: CIFDUS_clean_linker_0, # of connection points: 2
#     Edge 170, Type (0, 0), BuildingBlock: CIFDUS_clean_linker_0, # of connection points: 2
#     Edge 171, Type (0, 0), BuildingBlock: CIFDUS_clean_linker_0, # of connection points: 2
#     Edge 172, Type (0, 0), BuildingBlock: CIFDUS_clean_linker_0, # of connection points: 2
#     Edge 173, Type (0, 0), BuildingBlock: CIFDUS_clean_linker_0, # of connection points: 2
#     Edge 174, Type (0, 0), BuildingBlock: CIFDUS_clean_linker_0, # of connection points: 2
#     Edge 175, Type (0, 0), BuildingBlock: CIFDUS_clean_linker_0, # of connection points: 2
#     Edge 176, Type (0, 0), BuildingBlock: CIFDUS_clean_linker_0, # of connection points: 2
#     Edge 177, Type (0, 0), BuildingBlock: CIFDUS_clean_linker_0, # of connection points: 2
#     Edge 178, Type (0, 0), BuildingBlock: CIFDUS_clean_linker_0, # of connection points: 2
#     Edge 179, Type (0, 0), BuildingBlock: CIFDUS_clean_linker_0, # of connection points: 2
#     Edge 180, Type (0, 0), BuildingBlock: CIFDUS_clean_linker_0, # of connection points: 2
#     Edge 181, Type (0, 0), BuildingBlock: CIFDUS_clean_linker_0, # of connection points: 2
#     Edge 182, Type (0, 0), BuildingBlock: CIFDUS_clean_linker_0, # of connection points: 2
#     Edge 183, Type (0, 0), BuildingBlock: CIFDUS_clean_linker_0, # of connection points: 2
#     Edge 184, Type (0, 0), BuildingBlock: CIFDUS_clean_linker_0, # of connection points: 2
#     Edge 185, Type (0, 0), BuildingBlock: CIFDUS_clean_linker_0, # of connection points: 2
#     Edge 186, Type (0, 0), BuildingBlock: CIFDUS_clean_linker_0, # of connection points: 2
#     Edge 187, Type (0, 0), BuildingBlock: CIFDUS_clean_linker_0, # of connection points: 2
#     Edge 188, Type (0, 0), BuildingBlock: CIFDUS_clean_linker_0, # of connection points: 2
#     Edge 189, Type (0, 0), BuildingBlock: CIFDUS_clean_linker_0, # of connection points: 2
#     Edge 190, Type (0, 0), BuildingBlock: CIFDUS_clean_linker_0, # of connection points: 2
#     Edge 191, Type (0, 0), BuildingBlock: CIFDUS_clean_linker_0, # of connection points: 2
# Relax obj value: 0.895
# Max RMSD: 0.304
# Mean RMSD: 0.260
data_MOF--net-twf-e--node1-KUMBUR_clean_sbu_1--edge1-CIFDUS_clean_linker_0
_symmetry_space_group_name_H-M    P1
_symmetry_Int_Tables_number       1
_symmetry_cell_setting            triclinic
loop_
_symmetry_equiv_pos_as_xyz
'x, y, z'
_cell_length_a     59.30444
_cell_length_b     59.122764
_cell_length_c     59.26635
_cell_angle_alpha  91.819427
_cell_angle_beta   88.149801
_cell_angle_gamma 92.401206
loop_
_atom_site_label
_atom_site_type_symbol
_atom_site_fract_x
_atom_site_fract_y
_atom_site_fract_z
_atom_type_partial_charge
Tb0 Tb 0.1166 0.26183 0.44006 0.0
C1 C 1.01701 0.26226 0.43817 0.0
N2 N 0.03732 0.27006 0.42958 0.0
C3 C 1.0237 0.26489 0.39186 0.0
C4 C 0.99955 0.25468 0.4238 0.0
C5 C 0.04075 0.27162 0.40665 0.0
C6 C 1.00296 0.25652 0.40046 0.0
C7 C 0.99534 0.24824 0.47052 0.0
C8 C 1.01469 0.25969 0.46136 0.0
C9 C 0.97772 0.24105 0.45634 0.0
C10 C 0.97967 0.24461 0.4331 0.0
Tb11 Tb 0.06124 0.28573 0.45605 0.0
N12 N 1.03194 0.26715 0.47469 0.0
C13 C 0.99449 0.24383 0.49357 0.0
C14 C 1.03087 0.26337 0.49735 0.0
C15 C 1.01239 0.2513 0.50699 0.0
H16 H 0.05673 0.27744 0.39951 0.0
H17 H 1.01182 0.24801 0.52486 0.0
H18 H 0.11622 0.22215 0.47961 0.0
H19 H 0.18494 0.30519 0.39528 0.0
H20 H 0.04389 0.26979 0.50835 0.0
H21 H 0.98014 0.23462 0.50115 0.0
H22 H 0.14583 0.29908 0.40875 0.0
H23 H 1.02665 0.26604 0.3738 0.0
H24 H 0.96264 0.23243 0.46314 0.0
H25 H 0.96607 0.2387 0.42235 0.0
H26 H 0.14357 0.19972 0.49775 0.0
H27 H 0.9899 0.25099 0.3889 0.0
H28 H 0.21481 0.28171 0.40916 0.0
N29 N 0.14091 0.24257 0.46143 0.0
C30 C 0.16316 0.2453 0.45582 0.0
C31 C 0.14934 0.21247 0.48594 0.0
C32 C 0.17912 0.23082 0.46384 0.0
C33 C 0.13383 0.22554 0.47559 0.0
C34 C 0.17214 0.21517 0.48009 0.0
N35 N 0.15324 0.27396 0.4323 0.0
C36 C 0.15863 0.28951 0.4161 0.0
C37 C 0.19207 0.26339 0.43205 0.0
C38 C 0.16961 0.26151 0.44053 0.0
C39 C 0.1977 0.27964 0.41597 0.0
C40 C 0.1809 0.29287 0.40807 0.0
H41 H 0.18409 0.2043 0.48732 0.0
H42 H 0.21351 0.22006 0.4599 0.0
H43 H 0.225 0.24889 0.43224 0.0
O44 O 0.13608 0.24601 0.41452 0.0
O45 O 0.11687 0.29812 0.44161 0.0
O46 O 0.09148 0.30167 0.47004 0.0
O47 O 0.10135 0.23599 0.41868 0.0
O48 O 0.10679 0.28857 0.41266 0.0
O49 O 0.07417 0.30488 0.42538 0.0
O50 O 0.03891 0.30729 0.47345 0.0
O51 O 0.06099 0.2518 0.44029 0.0
O52 O 0.09045 0.23939 0.45718 0.0
O53 O 0.05088 0.31373 0.43927 0.0
O54 O 0.07864 0.27687 0.49034 0.0
O55 O 0.11464 0.26493 0.48011 0.0
C56 C 0.1084 0.31026 0.4582 0.0
C57 C 0.12833 0.20683 0.40943 0.0
C58 C 0.15852 0.17914 0.41073 0.0
C59 C 0.14252 0.16179 0.40548 0.0
C60 C 0.11286 0.18891 0.40454 0.0
C61 C 0.11993 0.16663 0.4026 0.0
C62 C 0.15128 0.20169 0.41275 0.0
C63 C 0.09078 0.30419 0.40974 0.0
C64 C 0.12083 0.23076 0.40951 0.0
C65 C 0.20124 0.23176 0.45468 0.0
C66 C 0.20779 0.24818 0.43897 0.0
C67 C 0.0697 0.23551 0.45065 0.0
C68 C 0.05273 0.34387 0.46403 0.0
C69 C 0.06058 0.36157 0.49868 0.0
C70 C 0.0554 0.38276 0.49026 0.0
C71 C 0.04686 0.36416 0.45465 0.0
C72 C 0.06599 0.3448 0.48304 0.0
C73 C 0.05054 0.38428 0.46734 0.0
C74 C 0.09882 0.26906 0.49701 0.0
C75 C 0.04193 0.32223 0.45757 0.0
H76 H 0.14743 0.14434 0.40415 0.0
H77 H 0.09531 0.19216 0.40191 0.0
H78 H 0.10778 0.15298 0.39881 0.0
H79 H 0.16367 0.21513 0.41652 0.0
H80 H 0.05194 0.39699 0.50149 0.0
H81 H 0.03825 0.36426 0.43881 0.0
H82 H 0.07114 0.32914 0.48981 0.0
H83 H 0.04642 0.40032 0.46061 0.0
Tb84 Tb 0.90007 0.06867 0.47507 0.0
C85 C 0.86892 0.9691 0.46258 0.0
N86 N 0.8652 0.98988 0.45474 0.0
C87 C 0.86441 0.97414 0.41672 0.0
C88 C 0.87064 0.95002 0.44769 0.0
C89 C 0.86306 0.99254 0.43197 0.0
C90 C 0.86795 0.95272 0.42461 0.0
C91 C 0.88123 0.94692 0.49306 0.0
C92 C 0.87352 0.96747 0.48516 0.0
C93 C 0.88178 0.92766 0.47865 0.0
C94 C 0.87626 0.92916 0.45604 0.0
Tb95 Tb 0.86012 1.01834 0.48163 0.0
N96 N 0.87241 0.98641 0.49881 0.0
C97 C 0.88933 0.94651 0.51483 0.0
C98 C 0.88045 0.98575 0.52028 0.0
C99 C 0.88951 0.96619 0.52823 0.0
H100 H 0.86112 1.00881 0.42497 0.0
H101 H 0.89574 0.96608 0.5452 0.0
H102 H 0.94503 0.06085 0.5049 0.0
H103 H 0.85496 0.14494 0.46214 0.0
H104 H 0.87994 0.99961 0.53223 0.0
H105 H 0.89576 0.9312 0.52135 0.0
H106 H 0.86675 0.1062 0.45329 0.0
H107 H 0.86298 0.97659 0.39881 0.0
H108 H 0.88708 0.9117 0.4847 0.0
H109 H 0.87731 0.91432 0.44494 0.0
H110 H 0.96663 0.08123 0.53483 0.0
H111 H 0.86941 0.93855 0.41268 0.0
H112 H 0.87167 0.16704 0.49405 0.0
N113 N 0.92106 0.08643 0.50287 0.0
C114 C 0.916 0.10802 0.50888 0.0
C115 C 0.95224 0.08887 0.52785 0.0
C116 C 0.9277 0.1203 0.52589 0.0
C117 C 0.93998 0.07737 0.51093 0.0
C118 C 0.94573 0.11022 0.53576 0.0
N119 N 0.88898 0.10545 0.48087 0.0
C120 C 0.87394 0.11538 0.46755 0.0
C121 C 0.89337 0.14033 0.50288 0.0
C122 C 0.89928 0.11791 0.49749 0.0
C123 C 0.87683 0.14992 0.49034 0.0
C124 C 0.86732 0.13748 0.47237 0.0
H125 H 0.95517 0.11905 0.54894 0.0
H126 H 0.92993 0.15199 0.5453 0.0
H127 H 0.89971 0.1695 0.52519 0.0
O128 O 0.92562 0.06201 0.44998 0.0
O129 O 0.86397 0.07178 0.477 0.0
O130 O 0.85426 0.04739 0.50309 0.0
O131 O 0.91824 0.09594 0.45975 0.0
O132 O 0.87313 0.06532 0.44421 0.0
O133 O 0.84792 1.03539 0.45038 0.0
O134 O 0.83143 0.99901 0.49131 0.0
O135 O 0.89289 1.01276 0.46239 0.0
O136 O 0.91867 1.03581 0.47908 0.0
O137 O 0.82911 1.02606 0.46823 0.0
O138 O 0.8695 1.03175 0.51887 0.0
O139 O 0.89943 0.05777 0.5141 0.0
C140 C 0.85306 0.06748 0.49567 0.0
C141 C 0.95707 0.08984 0.45349 0.0
C142 C 0.98975 0.11837 0.45616 0.0
C143 C 1.00259 0.10042 0.46336 0.0
C144 C 0.97092 0.07333 0.46119 0.0
C145 C 0.99327 0.07862 0.46611 0.0
C146 C 0.96651 0.11254 0.45122 0.0
C147 C 0.85411 0.05256 0.43721 0.0
C148 C 0.93262 0.08336 0.44924 0.0
C149 C 0.92138 0.14237 0.53202 0.0
C150 C 0.90422 0.15236 0.52053 0.0
C151 C 0.91367 1.01551 0.46986 0.0
C152 C 0.79936 1.02196 0.49434 0.0
C153 C 0.79034 1.01951 0.53318 0.0
C154 C 0.76727 1.01567 0.52868 0.0
C155 C 0.77684 1.01701 0.48877 0.0
C156 C 0.80366 1.02986 0.51638 0.0
C157 C 0.76034 1.01587 0.50624 0.0
C158 C 0.88607 0.04515 0.52895 0.0
C159 C 0.81787 1.01184 0.48084 0.0
H160 H 1.02028 0.10249 0.46675 0.0
H161 H 0.96446 0.05614 0.46363 0.0
H162 H 1.00366 0.06552 0.47198 0.0
H163 H 0.95558 0.12536 0.44582 0.0
H164 H 0.75572 1.00868 0.54135 0.0
H165 H 0.77246 1.01202 0.47167 0.0
H166 H 0.82088 1.03409 0.52061 0.0
H167 H 0.74292 1.01199 0.50236 0.0
Tb168 Tb 1.00861 0.85632 0.44712 0.0
C169 C 0.10528 0.91281 0.46204 0.0
N170 N 0.08245 0.91352 0.46368 0.0
C171 C 0.08606 0.94374 0.49179 0.0
C172 C 0.11936 0.92655 0.47605 0.0
C173 C 0.07287 0.92972 0.47757 0.0
C174 C 0.1094 0.94192 0.4913 0.0
C175 C 0.13809 0.89597 0.44442 0.0
C176 C 0.11448 0.89801 0.4464 0.0
C177 C 0.15223 0.90942 0.45838 0.0
C178 C 0.14287 0.92464 0.47427 0.0
Tb179 Tb 0.06121 0.88907 0.44032 0.0
N180 N 0.10008 0.88516 0.43351 0.0
C181 C 0.14679 0.88036 0.42864 0.0
C182 C 0.10877 0.87002 0.41781 0.0
C183 C 0.13204 0.86741 0.41521 0.0
H184 H 0.05489 0.93154 0.47849 0.0
H185 H 0.13857 0.85535 0.40277 0.0
H186 H 1.02447 0.87744 0.39657 0.0
H187 H 0.93532 0.86962 0.50113 0.0
H188 H 0.09828 0.85986 0.40677 0.0
H189 H 0.16481 0.8782 0.42666 0.0
H190 H 0.97486 0.8592 0.49251 0.0
H191 H 0.07815 0.95594 0.50317 0.0
H192 H 0.1704 0.90817 0.45701 0.0
H193 H 0.15395 0.93492 0.48499 0.0
H194 H 1.00574 0.89557 0.36604 0.0
H195 H 0.11959 0.95272 0.50242 0.0
H196 H 0.91221 0.88334 0.4707 0.0
N197 N 0.99565 0.87711 0.41885 0.0
C198 C 0.97287 0.88018 0.42079 0.0
C199 C 0.9964 0.89166 0.38151 0.0
C200 C 0.96145 0.89054 0.40367 0.0
C201 C 1.00713 0.88168 0.39911 0.0
C202 C 0.97353 0.89627 0.38385 0.0
N203 N 0.97329 0.86609 0.45777 0.0
C204 C 0.96455 0.86474 0.47925 0.0
C205 C 0.93893 0.88094 0.44507 0.0
C206 C 0.96133 0.87462 0.44099 0.0
C207 C 0.92934 0.87852 0.46685 0.0
C208 C 0.94234 0.87078 0.4841 0.0
H209 H 0.96535 0.90417 0.37023 0.0
H210 H 0.92951 0.90332 0.39409 0.0
H211 H 0.91008 0.89548 0.43045 0.0
O212 O 0.98786 0.82891 0.45738 0.0
O213 O 0.99954 0.89225 0.45512 0.0
O214 O 0.03267 0.91303 0.45063 0.0
O215 O 0.99791 0.83223 0.42258 0.0
O216 O 1.02059 0.86449 0.48476 0.0
O217 O 0.05235 0.88861 0.48024 0.0
O218 O 0.07858 0.90703 0.41492 0.0
O219 O 0.06075 0.85251 0.4416 0.0
O220 O 0.03478 0.84284 0.4671 0.0
O221 O 0.0423 0.90772 0.41852 0.0
O222 O 0.06058 0.85785 0.41219 0.0
O223 O 1.0262 0.83975 0.41536 0.0
C224 C 1.01031 0.91217 0.4551 0.0
C225 C 0.99793 0.79608 0.43596 0.0
C226 C 1.01269 0.77514 0.46456 0.0
C227 C 1.00239 0.75502 0.4558 0.0
C228 C 0.98499 0.77725 0.42801 0.0
C229 C 0.98893 0.75597 0.43669 0.0
C230 C 1.01649 0.79205 0.449 0.0
C231 C 0.03724 0.87798 0.4948 0.0
C232 C 0.98883 0.81884 0.4374 0.0
C233 C 0.93856 0.89534 0.40708 0.0
C234 C 0.9274 0.89074 0.42777 0.0
C235 C 0.0555 0.84145 0.45963 0.0
C236 C 0.06354 0.94218 0.41068 0.0
C237 C 0.08845 0.97587 0.40654 0.0
C238 C 0.07275 0.98855 0.41925 0.0
C239 C 0.04763 0.95552 0.42234 0.0
C240 C 0.08395 0.9526 0.4026 0.0
C241 C 0.05244 0.97844 0.42698 0.0
C242 C 0.04612 0.84084 0.40393 0.0
C243 C 0.06064 0.91719 0.40941 0.0
H244 H 1.00282 0.73961 0.46499 0.0
H245 H 0.97122 0.77918 0.41676 0.0
H246 H 0.9797 0.741 0.43049 0.0
H247 H 1.02726 0.80614 0.45393 0.0
H248 H 0.07615 1.0064 0.42303 0.0
H249 H 1.03161 0.9483 0.42828 0.0
H250 H 0.09634 0.94263 0.39338 0.0
H251 H 0.04037 0.98841 0.43658 0.0
Tb252 Tb 0.2937 0.07391 0.4292 0.0
C253 C 0.29989 0.17075 0.4138 0.0
N254 N 0.31169 0.15252 0.40669 0.0
C255 C 0.30828 0.16328 0.36808 0.0
C256 C 0.29108 0.18547 0.39827 0.0
C257 C 0.31653 0.14908 0.38404 0.0
C258 C 0.29539 0.18148 0.37521 0.0
C259 C 0.28249 0.19204 0.44467 0.0
C260 C 0.29597 0.17411 0.43668 0.0
C261 C 0.27394 0.20691 0.42937 0.0
C262 C 0.27831 0.20368 0.40621 0.0
Tb263 Tb 0.32582 0.13067 0.43432 0.0
N264 N 0.30459 0.15934 0.45101 0.0
C265 C 0.2774 0.19418 0.46774 0.0
C266 C 0.29993 0.16198 0.47373 0.0
C267 C 0.28591 0.17888 0.48226 0.0
H268 H 0.32663 0.13532 0.37805 0.0
H269 H 0.28226 0.18051 0.50023 0.0
H270 H 0.24703 0.07845 0.4605 0.0
H271 H 0.33816 0.99972 0.40204 0.0
H272 H 0.30733 0.15188 0.48597 0.0
H273 H 0.26694 0.20754 0.4745 0.0
H274 H 0.32773 0.03943 0.40135 0.0
H275 H 0.31199 0.16022 0.35027 0.0
H276 H 0.26371 0.22081 0.43527 0.0
H277 H 0.27152 0.21521 0.39455 0.0
H278 H 0.22388 0.05529 0.48707 0.0
H279 H 0.28901 0.19245 0.36279 0.0
H280 H 0.32044 0.97447 0.43065 0.0
N281 N 0.27198 0.05385 0.45494 0.0
C282 C 0.27755 1.03226 0.45825 0.0
C283 C 0.23901 0.0486 0.47917 0.0
C284 C 0.26433 1.01804 0.47253 0.0
C285 C 0.25221 0.06169 0.46413 0.0
C286 C 0.2453 1.02677 0.48369 0.0
N287 N 0.3056 0.03759 0.43011 0.0
C288 C 0.32036 1.02893 0.41424 0.0
C289 C 0.29997 1.00066 0.44597 0.0
C290 C 0.29502 1.02374 0.44522 0.0
C291 C 0.31615 0.9921 0.43065 0.0
C292 C 0.32617 1.00628 0.4145 0.0
H293 H 0.23485 1.01648 0.49504 0.0
H294 H 0.25958 0.98393 0.48465 0.0
H295 H 0.29138 0.96891 0.46206 0.0
O296 O 0.27169 0.04995 0.41333 0.0
O297 O 0.33045 0.07244 0.43092 0.0
O298 O 0.33725 0.10347 0.45315 0.0
O299 O 0.27462 0.08395 0.40188 0.0
O300 O 0.3197 0.07921 0.39906 0.0
O301 O 0.34243 0.11155 0.40501 0.0
O302 O 0.34825 0.15391 0.44868 0.0
O303 O 0.29599 0.12345 0.4152 0.0
O304 O 0.27579 0.10469 0.44013 0.0
O305 O 0.35694 0.13838 0.41685 0.0
O306 O 0.31452 0.11782 0.47113 0.0
O307 O 0.29129 0.0854 0.46691 0.0
C308 C 0.34399 0.08453 0.44411 0.0
C309 C 0.23792 0.0658 0.40394 0.0
C310 C 0.20043 0.04776 0.40024 0.0
C311 C 0.19106 0.06619 0.41226 0.0
C312 C 0.22809 0.0832 0.41703 0.0
C313 C 0.20488 0.08377 0.42064 0.0
C314 C 0.22391 0.04774 0.39585 0.0
C315 C 0.33721 0.09327 0.39225 0.0
C316 C 0.26278 0.06489 0.40125 0.0
C317 C 0.26974 0.99526 0.4741 0.0
C318 C 0.28773 0.98665 0.46107 0.0
C319 C 0.27748 0.12209 0.42721 0.0
C320 C 0.36653 0.17761 0.42253 0.0
C321 C 0.35321 0.20898 0.44417 0.0
C322 C 0.34173 0.21643 0.4255 0.0
C323 C 0.35613 0.1848 0.40323 0.0
C324 C 0.3703 0.1936 0.43957 0.0
C325 C 0.34481 0.20525 0.40441 0.0
C326 C 0.30001 0.10184 0.4808 0.0
C327 C 0.36202 0.15463 0.43117 0.0
H328 H 0.17309 0.06645 0.41616 0.0
H329 H 0.23823 0.09582 0.42552 0.0
H330 H 0.19769 0.09743 0.43072 0.0
H331 H 0.23125 1.03348 0.3868 0.0
H332 H 0.32911 0.22908 0.42737 0.0
H333 H 0.355 0.17388 0.38831 0.0
H334 H 0.38054 0.18818 0.4529 0.0
H335 H 0.33594 0.21059 0.38996 0.0
Tb336 Tb 0.10123 0.85535 0.68523 0.0
C337 C 0.99986 0.90149 0.68749 0.0
N338 N 1.02186 0.90279 0.68054 0.0
C339 C 1.01399 0.93426 0.65751 0.0
C340 C 0.98421 0.9169 0.68041 0.0
C341 C 1.02916 0.91959 0.66624 0.0
C342 C 0.99138 0.93297 0.66467 0.0
C343 C 0.97162 0.88511 0.71315 0.0
C344 C 0.99344 0.88546 0.70293 0.0
C345 C 0.95598 0.90062 0.70648 0.0
C346 C 0.96219 0.91627 0.68987 0.0
Tb347 Tb 0.04619 0.88168 0.7002 0.0
N348 N 1.00937 0.87133 0.70929 0.0
C349 C 0.96611 0.86886 0.72928 0.0
C350 C 1.00401 0.85543 0.7251 0.0
C351 C 0.98233 0.85379 0.73508 0.0
H352 H 0.04676 0.92206 0.66149 0.0
H353 H 0.97828 0.84118 0.74758 0.0
H354 H 0.10829 0.85978 0.74141 0.0
H355 H 0.14945 0.89294 0.61581 0.0
H356 H 1.01652 0.84436 0.73073 0.0
H357 H 0.94942 0.86774 0.73724 0.0
H358 H 0.12057 0.86708 0.63296 0.0
H359 H 1.01994 0.94712 0.64589 0.0
H360 H 0.939 0.90043 0.7138 0.0
H361 H 0.94996 0.92797 0.68462 0.0
H362 H 0.13736 0.87422 0.76701 0.0
H363 H 0.97979 0.94487 0.65851 0.0
H364 H 0.17816 0.91243 0.63971 0.0
N365 N 0.12548 0.87138 0.71147 0.0
C366 C 0.14468 0.88171 0.70293 0.0
C367 C 0.13958 0.87659 0.74902 0.0
C368 C 0.16148 0.89104 0.71724 0.0
C369 C 0.12303 0.86831 0.73428 0.0
C370 C 0.15886 0.88807 0.74049 0.0
N371 N 0.13044 0.87441 0.66659 0.0
C372 C 0.13197 0.87658 0.64373 0.0
C373 C 0.16449 0.89796 0.67059 0.0
C374 C 0.14658 0.8844 0.67984 0.0
C375 C 0.16505 0.90162 0.64739 0.0
C376 C 0.1488 0.89073 0.63388 0.0
H377 H 0.17146 0.89481 0.75202 0.0
H378 H 0.19279 0.91121 0.71871 0.0
H379 H 0.19498 0.91804 0.67795 0.0
O380 O 0.12431 0.83395 0.66891 0.0
O381 O 0.09991 0.88847 0.7016 0.0
O382 O 0.07299 0.90175 0.68184 0.0
O383 O 0.1096 0.8265 0.702 0.0
O384 O 0.08437 0.86534 0.65092 0.0
O385 O 0.04887 0.87979 0.65964 0.0
O386 O 0.06407 0.90403 0.72295 0.0
O387 O 0.04516 0.84515 0.69785 0.0
O388 O 0.07081 0.8413 0.66971 0.0
O389 O 1.02849 0.90042 0.72547 0.0
O390 O 0.05603 0.8557 0.72781 0.0
O391 O 0.08674 0.83589 0.71503 0.0
C392 C 0.09355 0.90435 0.68899 0.0
C393 C 0.10799 0.79783 0.67561 0.0
C394 C 0.10137 0.78318 0.63944 0.0
C395 C 0.10564 0.76119 0.64654 0.0
C396 C 0.11229 0.7766 0.68384 0.0
C397 C 0.10869 0.75764 0.66952 0.0
C398 C 0.09587 0.79899 0.65596 0.0
C399 C 0.06503 0.87446 0.6433 0.0
C400 C 0.11941 0.81843 0.6839 0.0
C401 C 0.17984 0.90374 0.70798 0.0
C402 C 0.18109 0.90761 0.68477 0.0
C403 C 0.05197 0.83427 0.67968 0.0
C404 C 0.04242 0.93758 0.72697 0.0
C405 C 1.01779 0.97019 0.72677 0.0
C406 C 1.03007 0.9773 0.70719 0.0
C407 C 0.0558 0.94771 0.70998 0.0
C408 C 1.02343 0.9493 0.73602 0.0
C409 C 0.04935 0.96684 0.69962 0.0
C410 C 0.07073 0.8389 0.73089 0.0
C411 C 0.04565 0.91317 0.73083 0.0
H412 H 0.10963 0.74772 0.63463 0.0
H413 H 0.11984 0.77493 0.70007 0.0
H414 H 0.11186 0.74091 0.67522 0.0
H415 H 0.09192 0.81539 0.65003 0.0
H416 H 1.02512 0.9914 0.69754 0.0
H417 H 0.07046 0.93988 0.70346 0.0
H418 H 1.0131 0.94201 0.74955 0.0
H419 H 0.05904 0.97326 0.68524 0.0
Tb420 Tb 0.28834 0.12259 0.6819 0.0
C421 C 0.25476 1.03052 0.64382 0.0
N422 N 0.24498 0.05042 0.64926 0.0
C423 C 0.22085 0.0451 0.61764 0.0
C424 C 0.24904 1.01782 0.6242 0.0
C425 C 0.22687 0.05687 0.63757 0.0
C426 C 0.23241 1.02582 0.61061 0.0
C427 C 0.2765 0.99972 0.65623 0.0
C428 C 0.26834 1.02164 0.6595 0.0
C429 C 0.27272 0.98785 0.63571 0.0
C430 C 0.259 0.99691 0.61967 0.0
Tb431 Tb 0.25817 0.06943 0.68079 0.0
N432 N 0.27091 1.03336 0.67931 0.0
C433 C 0.28695 0.98991 0.67417 0.0
C434 C 0.27963 1.02325 0.69742 0.0
C435 C 0.28807 1.00155 0.69502 0.0
H436 H 0.21807 0.07186 0.64296 0.0
H437 H 0.29547 0.99387 0.70921 0.0
H438 H 0.28856 0.12427 0.7385 0.0
H439 H 0.22365 0.163 0.63457 0.0
H440 H 0.28042 1.0321 0.71362 0.0
H441 H 0.29342 0.97306 0.67237 0.0
H442 H 0.24789 0.13187 0.64322 0.0
H443 H 0.20729 0.05084 0.60776 0.0
H444 H 0.2793 0.97118 0.63261 0.0
H445 H 0.2552 0.98706 0.60445 0.0
H446 H 0.2844 0.15328 0.76851 0.0
H447 H 0.22752 1.01658 0.59534 0.0
H448 H 0.22412 0.19809 0.65866 0.0
N449 N 0.27764 0.14467 0.71246 0.0
C450 C 0.26953 0.16495 0.70741 0.0
C451 C 0.28025 0.15688 0.75137 0.0
C452 C 0.26662 0.18213 0.72415 0.0
C453 C 0.28257 0.14032 0.73422 0.0
C454 C 0.2727 0.17809 0.74623 0.0
N455 N 0.26388 0.14961 0.6708 0.0
C456 C 0.24923 0.14733 0.6533 0.0
C457 C 0.24824 0.1857 0.68149 0.0
C458 C 0.26129 0.16707 0.68605 0.0
C459 C 0.235 0.1845 0.66235 0.0
C460 C 0.23477 0.16476 0.64869 0.0
H461 H 0.27074 0.19086 0.75959 0.0
H462 H 0.25445 0.21572 0.73107 0.0
H463 H 0.23736 0.2182 0.69384 0.0
O464 O 0.31055 0.14891 0.67045 0.0
O465 O 0.25354 0.12181 0.69975 0.0
O466 O 0.23598 0.0996 0.67495 0.0
O467 O 0.31744 0.13097 0.69999 0.0
O468 O 0.28342 0.11339 0.6437 0.0
O469 O 0.26552 0.07847 0.64179 0.0
O470 O 0.23296 0.07485 0.70653 0.0
O471 O 0.29337 0.06491 0.68361 0.0
O472 O 0.30348 0.09369 0.6619 0.0
O473 O 0.23706 0.0421 0.69085 0.0
O474 O 0.28299 0.0741 0.7131 0.0
O475 O 0.30728 0.10437 0.70723 0.0
C476 C 0.23448 0.11757 0.68898 0.0
C477 C 0.34865 0.14053 0.67761 0.0
C478 C 0.3636 0.13127 0.64171 0.0
C479 C 0.38337 0.14492 0.64588 0.0
C480 C 0.36701 0.15532 0.68244 0.0
C481 C 0.3854 0.15636 0.66693 0.0
C482 C 0.35202 0.12377 0.66099 0.0
C483 C 0.27507 0.09629 0.63025 0.0
C484 C 0.32549 0.14522 0.68555 0.0
C485 C 0.25653 0.20216 0.71856 0.0
C486 C 0.24706 0.20377 0.69732 0.0
C487 C 0.30717 0.0732 0.66864 0.0
C488 C 0.20008 0.04937 0.7028 0.0
C489 C 0.16793 1.02165 0.69942 0.0
C490 C 0.15345 0.03986 0.69895 0.0
C491 C 0.1851 0.06706 0.70221 0.0
C492 C 0.19133 1.02665 0.70155 0.0
C493 C 0.16197 0.06227 0.70037 0.0
C494 C 0.30198 0.0869 0.71968 0.0
C495 C 0.22479 0.054 0.70467 0.0
H496 H 0.39558 0.14911 0.63256 0.0
H497 H 0.36663 0.16639 0.6973 0.0
H498 H 0.39973 0.16785 0.67003 0.0
H499 H 0.33985 0.10998 0.65934 0.0
H500 H 0.13538 0.03681 0.69788 0.0
H501 H 0.19121 0.08457 0.70319 0.0
H502 H 0.20281 1.01288 0.70196 0.0
H503 H 0.15051 0.07603 0.7001 0.0
Tb504 Tb 0.10137 0.26005 0.69871 0.0
C505 C 0.19303 0.27064 0.72063 0.0
N506 N 0.17038 0.27347 0.72417 0.0
C507 C 0.17379 0.26693 0.76358 0.0
C508 C 0.20667 0.2649 0.73836 0.0
C509 C 0.1608 0.27243 0.74541 0.0
C510 C 0.1968 0.2632 0.76007 0.0
C511 C 0.22393 0.26464 0.69348 0.0
C512 C 0.20166 0.2708 0.69841 0.0
C513 C 0.23807 0.26038 0.71133 0.0
C514 C 0.22945 0.2604 0.73368 0.0
Tb515 Tb 0.15413 0.28906 0.69436 0.0
N516 N 0.18753 0.2754 0.68159 0.0
C517 C 0.231 0.26218 0.67076 0.0
C518 C 0.19403 0.27257 0.65943 0.0
C519 C 0.21586 0.26577 0.65369 0.0
H520 H 0.14325 0.276 0.74839 0.0
H521 H 0.22112 0.2636 0.63612 0.0
H522 H 0.10451 0.21192 0.66613 0.0
H523 H 1.02529 0.2975 0.73325 0.0
H524 H 0.18266 0.27605 0.64623 0.0
H525 H 0.2479 0.25701 0.66623 0.0
H526 H 0.06387 0.28536 0.73438 0.0
H527 H 0.16611 0.26584 0.78035 0.0
H528 H 0.25548 0.25613 0.70794 0.0
H529 H 0.24035 0.2562 0.74712 0.0
H530 H 0.08156 0.19131 0.63842 0.0
H531 H 0.20674 0.25881 0.7742 0.0
H532 H 1.00059 0.2831 0.70277 0.0
N533 N 0.08 0.23669 0.67474 0.0
C534 C 0.05836 0.2423 0.672 0.0
C535 C 0.07483 0.20574 0.64765 0.0
C536 C 0.04416 0.23009 0.65687 0.0
C537 C 0.08794 0.2178 0.66353 0.0
C538 C 0.05294 0.21213 0.64403 0.0
N539 N 0.06355 0.26782 0.70217 0.0
C540 C 0.05446 0.28059 0.71968 0.0
C541 C 1.02674 0.26359 0.68612 0.0
C542 C 0.04982 0.25874 0.68624 0.0
C543 C 1.01817 0.27875 0.70245 0.0
C544 C 1.03204 0.28693 0.71961 0.0
H545 H 0.04266 0.20247 0.63207 0.0
H546 H 1.01006 0.22583 0.64487 0.0
H547 H 0.99473 0.25484 0.6712 0.0
O548 O 0.1185 0.24698 0.72575 0.0
O549 O 0.09903 0.29605 0.69413 0.0
O550 O 0.13049 0.30334 0.67267 0.0
O551 O 0.0825 0.24024 0.72138 0.0
O552 O 0.10031 0.29238 0.72406 0.0
O553 O 0.13527 0.30912 0.72411 0.0
O554 O 0.18012 0.31187 0.68353 0.0
O555 O 0.15802 0.25263 0.70229 0.0
O556 O 0.12916 0.23531 0.68544 0.0
O557 O 0.16288 0.31642 0.7158 0.0
O558 O 0.14176 0.27958 0.65592 0.0
O559 O 0.10688 0.26079 0.6602 0.0
C560 C 0.11038 0.30857 0.67967 0.0
C561 C 0.10126 0.21176 0.73798 0.0
C562 C 0.08254 0.17848 0.7543 0.0
C563 C 0.09851 0.16478 0.74315 0.0
C564 C 0.11708 0.19783 0.7273 0.0
C565 C 0.11584 0.17451 0.72988 0.0
C566 C 0.08415 0.202 0.75176 0.0
C567 C 0.11417 0.30895 0.73337 0.0
C568 C 0.10012 0.23583 0.73286 0.0
C569 C 1.02132 0.23524 0.65613 0.0
C570 C 1.01261 0.2519 0.67087 0.0
C571 C 0.15047 0.23409 0.69203 0.0
C572 C 0.17424 0.34847 0.69757 0.0
C573 C 0.16197 0.36563 0.66542 0.0
C574 C 0.17795 0.38352 0.66839 0.0
C575 C 0.19142 0.36503 0.7007 0.0
C576 C 0.15639 0.35291 0.68402 0.0
C577 C 0.19172 0.38404 0.6873 0.0
C578 C 0.12324 0.26851 0.64583 0.0
C579 C 0.17772 0.32495 0.70162 0.0
H580 H 0.09724 0.1465 0.74414 0.0
H581 H 0.12995 0.20479 0.71653 0.0
H582 H 0.12797 0.16393 0.7211 0.0
H583 H 0.07165 0.21269 0.75989 0.0
H584 H 0.18072 0.39546 0.65531 0.0
H585 H 0.20491 0.3627 0.71219 0.0
H586 H 0.14273 0.34056 0.68272 0.0
H587 H 0.20403 0.39756 0.69027 0.0
Tb588 Tb 0.85607 1.02101 0.73245 0.0
C589 C 0.90221 0.12468 0.70936 0.0
N590 N 0.90528 0.10201 0.7088 0.0
C591 C 0.93751 0.10738 0.68355 0.0
C592 C 0.91732 0.13969 0.69787 0.0
C593 C 0.92295 0.09329 0.69635 0.0
C594 C 0.93481 0.13072 0.68446 0.0
C595 C 0.88183 0.1565 0.72524 0.0
C596 C 0.8845 0.13297 0.7226 0.0
C597 C 0.89664 0.17149 0.71361 0.0
C598 C 0.91447 0.16313 0.70016 0.0
Tb599 Tb 0.88335 0.08166 0.73426 0.0
N600 N 0.87172 0.11807 0.73507 0.0
C601 C 0.86531 0.16433 0.7406 0.0
C602 C 0.85628 0.12581 0.75085 0.0
C603 C 0.85264 0.14891 0.75361 0.0
H604 H 0.92568 0.07531 0.69605 0.0
H605 H 0.84032 0.15481 0.76607 0.0
H606 H 0.84045 1.01617 0.7881 0.0
H607 H 0.92804 0.98209 0.68816 0.0
H608 H 0.84691 0.11444 0.76186 0.0
H609 H 0.86278 0.18228 0.74314 0.0
H610 H 0.90181 1.01263 0.69618 0.0
H611 H 0.95111 0.10026 0.67339 0.0
H612 H 0.89485 0.18962 0.71542 0.0
H613 H 0.92596 0.17495 0.69155 0.0
H614 H 0.84258 0.98774 0.81638 0.0
H615 H 0.94643 0.14167 0.67493 0.0
H616 H 0.92679 0.94844 0.71198 0.0
N617 N 0.86126 0.99911 0.76318 0.0
C618 C 0.87305 0.98017 0.75858 0.0
C619 C 0.85121 0.98536 0.80015 0.0
C620 C 0.8741 0.96298 0.77449 0.0
C621 C 0.85033 1.00178 0.78379 0.0
C622 C 0.8628 0.9657 0.79537 0.0
N623 N 0.88499 0.99635 0.72411 0.0
C624 C 0.90096 0.9982 0.70687 0.0
C625 C 0.90033 0.96092 0.73439 0.0
C626 C 0.88572 0.97896 0.73861 0.0
C627 C 0.91527 0.96187 0.71568 0.0
C628 C 0.91601 0.98087 0.70224 0.0
H629 H 0.8633 0.95296 0.80807 0.0
H630 H 0.88753 0.93039 0.78115 0.0
H631 H 0.9107 0.92866 0.74602 0.0
O632 O 0.84015 0.98906 0.7226 0.0
O633 O 0.88355 1.02954 0.75482 0.0
O634 O 0.90157 0.04973 0.72831 0.0
O635 O 0.82089 1.01631 0.73772 0.0
O636 O 0.86883 1.03506 0.69567 0.0
O637 O 0.88313 0.07189 0.69494 0.0
O638 O 0.90067 0.07342 0.76363 0.0
O639 O 0.84719 0.08264 0.73209 0.0
O640 O 0.84645 0.04962 0.71372 0.0
O641 O 0.90403 0.10633 0.75083 0.0
O642 O 0.85637 0.07608 0.7632 0.0
O643 O 0.83786 0.04074 0.75982 0.0
C644 C 0.9026 1.03488 0.74441 0.0
C645 C 0.79934 0.98148 0.72878 0.0
C646 C 0.77356 0.97953 0.69795 0.0
C647 C 0.756 0.98625 0.7128 0.0
C648 C 0.78173 0.98737 0.74386 0.0
C649 C 0.75993 0.98895 0.73597 0.0
C650 C 0.79356 0.97223 0.70751 0.0
C651 C 0.87773 0.05258 0.68274 0.0
C652 C 0.82048 0.99568 0.72959 0.0
C653 C 0.88696 0.94398 0.76935 0.0
C654 C 0.90012 0.94297 0.74935 0.0
C655 C 0.8353 0.06618 0.72268 0.0
C656 C 0.93685 0.09175 0.76213 0.0
C657 C 0.97363 0.1096 0.76859 0.0
C658 C 0.98295 0.09643 0.75075 0.0
C659 C 0.94625 0.0801 0.74349 0.0
C660 C 0.95062 0.10698 0.77459 0.0
C661 C 0.96912 0.08206 0.73796 0.0
C662 C 0.84027 0.06077 0.77039 0.0
C663 C 0.91224 0.09246 0.76428 0.0
H664 H 0.74048 0.99212 0.70632 0.0
H665 H 0.78537 0.99397 0.76068 0.0
H666 H 0.74721 0.99563 0.74733 0.0
H667 H 0.80733 0.96759 0.69603 0.0
H668 H 1.00051 0.09891 0.74537 0.0
H669 H 0.93546 0.07112 0.73211 0.0
H670 H 0.94322 0.11797 0.78754 0.0
H671 H 0.97576 0.07388 0.72275 0.0
Tb672 Tb 0.47163 0.08567 0.23592 0.0
C673 C 0.43776 0.99944 0.25415 0.0
N674 N 0.43877 1.02254 0.25364 0.0
C675 C 0.40071 1.02212 0.24103 0.0
C676 C 0.41812 0.98684 0.24803 0.0
C677 C 0.42082 1.03389 0.24649 0.0
C678 C 0.39919 0.99854 0.24223 0.0
C679 C 0.45952 0.96584 0.24916 0.0
C680 C 0.45821 0.98879 0.25541 0.0
C681 C 0.43954 0.95261 0.24647 0.0
C682 C 0.41878 0.96314 0.24576 0.0
Tb683 Tb 0.47125 0.03799 0.26885 0.0
N684 N 0.47731 1.00234 0.2565 0.0
C685 C 0.48072 0.95802 0.24237 0.0
C686 C 0.49681 0.99587 0.2459 0.0
C687 C 0.49845 0.97358 0.23774 0.0
H688 H 0.42177 0.05194 0.24491 0.0
H689 H 0.51414 0.96798 0.23006 0.0
H690 H 0.50921 0.07857 0.19352 0.0
H691 H 0.44203 0.16555 0.27067 0.0
H692 H 0.51097 1.00782 0.24388 0.0
H693 H 0.48353 0.94044 0.23939 0.0
H694 H 0.43804 0.12573 0.25778 0.0
H695 H 0.38648 1.03124 0.23565 0.0
H696 H 0.44017 0.93466 0.24276 0.0
H697 H 0.40376 0.95304 0.24151 0.0
H698 H 0.54311 0.09905 0.17809 0.0
H699 H 0.38377 0.98948 0.23732 0.0
H700 H 0.478 0.1873 0.26366 0.0
N701 N 0.50167 0.10439 0.21816 0.0
C702 C 0.50671 0.12587 0.22565 0.0
C703 C 0.53308 0.10674 0.19161 0.0
C704 C 0.52573 0.13834 0.21724 0.0
C705 C 0.51377 0.09522 0.20032 0.0
C706 C 0.53936 0.12821 0.20043 0.0
N707 N 0.47206 0.12401 0.24495 0.0
C708 C 0.45404 0.13473 0.255 0.0
C709 C 0.49413 0.15915 0.24636 0.0
C710 C 0.49125 0.13609 0.23983 0.0
C711 C 0.47648 0.16962 0.2583 0.0
C712 C 0.45614 0.15745 0.26221 0.0
H713 H 0.55417 0.13719 0.19348 0.0
H714 H 0.54444 0.17065 0.21897 0.0
H715 H 0.51666 0.1889 0.24465 0.0
O716 O 0.44517 0.07198 0.21574 0.0
O717 O 0.46736 0.0953 0.27058 0.0
O718 O 0.48987 0.06912 0.27878 0.0
O719 O 0.45609 0.1074 0.21541 0.0
O720 O 0.44178 0.08615 0.26452 0.0
O721 O 0.44107 0.05388 0.2844 0.0
O722 O 0.48267 1.01996 0.29536 0.0
O723 O 0.46692 1.02574 0.23271 0.0
O724 O 0.47866 0.05503 0.2115 0.0
O725 O 0.4502 1.03416 0.29799 0.0
O726 O 0.51021 0.04676 0.26417 0.0
O727 O 0.51043 0.07733 0.24082 0.0
C728 C 0.48114 0.08821 0.28449 0.0
C729 C 0.4404 0.09381 0.18271 0.0
C730 C 0.43724 0.12102 0.15264 0.0
C731 C 0.44475 0.10389 0.13716 0.0
C732 C 0.44815 0.07749 0.16716 0.0
C733 C 0.44979 0.08243 0.14437 0.0
C734 C 0.43392 0.11484 0.1753 0.0
C735 C 0.4321 0.0733 0.28141 0.0
C736 C 0.4425 0.09178 0.20703 0.0
C737 C 0.52974 0.16085 0.22498 0.0
C738 C 0.51394 0.17125 0.2396 0.0
C739 C 0.4727 1.03294 0.21262 0.0
C740 C 0.47269 0.04088 0.32882 0.0
C741 C 0.50758 0.05241 0.34502 0.0
C742 C 0.49754 0.04968 0.36686 0.0
C743 C 0.46229 0.03761 0.35002 0.0
C744 C 0.4927 0.05434 0.32763 0.0
C745 C 0.47446 0.04367 0.36929 0.0
C746 C 0.52269 0.06248 0.25227 0.0
C747 C 0.46637 1.02646 0.30907 0.0
H748 H 0.44752 0.10657 0.11941 0.0
H749 H 0.45351 0.06131 0.17262 0.0
H750 H 0.45593 0.06986 0.13226 0.0
H751 H 0.42783 0.12666 0.18807 0.0
H752 H 0.50716 0.05056 0.38195 0.0
H753 H 0.44593 1.02888 0.35165 0.0
H754 H 0.50079 0.05658 0.31144 0.0
H755 H 0.46693 0.04093 0.38591 0.0
Tb756 Tb 0.06192 0.44687 0.29115 0.0
C757 C 0.16266 0.47232 0.25282 0.0
N758 N 0.14131 0.47009 0.24542 0.0
C759 C 0.1505 0.49769 0.21723 0.0
C760 C 0.17867 0.48782 0.24327 0.0
C761 C 0.13542 0.48176 0.22702 0.0
C762 C 0.17214 0.50101 0.22562 0.0
C763 C 0.19164 0.45695 0.27479 0.0
C764 C 0.16899 0.45726 0.26827 0.0
C765 C 0.20742 0.47328 0.26655 0.0
C766 C 0.20093 0.48873 0.25078 0.0
Tb767 Tb 0.11703 0.44445 0.26324 0.0
N768 N 0.15344 0.44121 0.27483 0.0
C769 C 0.19802 0.43941 0.2882 0.0
C770 C 0.16017 0.42302 0.28632 0.0
C771 C 0.18228 0.42211 0.29359 0.0
H772 H 0.11873 0.47957 0.22041 0.0
H773 H 0.18727 0.40779 0.30293 0.0
H774 H 0.07441 0.39162 0.27773 0.0
H775 H 1.01152 0.4908 0.23455 0.0
H776 H 0.14892 0.40872 0.28959 0.0
H777 H 0.21528 0.43844 0.29345 0.0
H778 H 0.03978 0.48818 0.26348 0.0
H779 H 0.14543 0.50734 0.20317 0.0
H780 H 0.22487 0.47343 0.27145 0.0
H781 H 0.21347 0.50061 0.24377 0.0
H782 H 0.05317 0.35681 0.26826 0.0
H783 H 0.18392 0.51312 0.2178 0.0
H784 H 0.98417 0.45898 0.22739 0.0
N785 N 0.04633 0.41303 0.27682 0.0
C786 C 1.02467 0.41417 0.26993 0.0
C787 C 0.04477 0.37274 0.26916 0.0
C788 C 1.01244 0.39452 0.26225 0.0
C789 C 0.05669 0.39269 0.27542 0.0
C790 C 1.02236 0.37356 0.26309 0.0
N791 N 1.03067 0.45396 0.27118 0.0
C792 C 1.02852 0.47377 0.26037 0.0
C793 C 0.9989 0.43725 0.25111 0.0
C794 C 1.01707 0.43551 0.26572 0.0
C795 C 0.99694 0.45742 0.23986 0.0
C796 C 1.01249 0.47535 0.24372 0.0
H797 H 1.01351 0.35814 0.25732 0.0
H798 H 0.98216 0.38172 0.24585 0.0
H799 H 0.97093 0.41921 0.23497 0.0
O800 O 0.03612 0.45948 0.31195 0.0
O801 O 0.06304 0.43417 0.2558 0.0
O802 O 0.08896 0.45921 0.2446 0.0
O803 O 0.05586 0.43237 0.32284 0.0
O804 O 0.07334 0.48475 0.2823 0.0
O805 O 0.10815 0.48333 0.26325 0.0
O806 O 0.10198 0.41685 0.24466 0.0
O807 O 0.12012 0.44737 0.29911 0.0
O808 O 0.08982 0.46841 0.30296 0.0
O809 O 0.13679 0.42717 0.23889 0.0
O810 O 0.11139 0.41614 0.29135 0.0
O811 O 0.07742 0.41964 0.31019 0.0
C812 C 0.06992 0.44797 0.24027 0.0
C813 C 0.04979 0.46146 0.34924 0.0
C814 C 0.04691 0.50044 0.35725 0.0
C815 C 0.04039 0.49634 0.37986 0.0
C816 C 0.04143 0.4561 0.37095 0.0
C817 C 0.03845 0.47381 0.38701 0.0
C818 C 0.05875 0.48347 0.34596 0.0
C819 C 0.09067 0.49614 0.27082 0.0
C820 C 0.04236 0.44811 0.32919 0.0
C821 C 0.99189 0.39661 0.2516 0.0
C822 C 0.98538 0.41798 0.24553 0.0
C823 C 0.10889 0.46231 0.31053 0.0
C824 C 0.11713 0.416 0.20675 0.0
C825 C 0.12951 0.4056 0.168 0.0
C826 C 0.11799 0.42426 0.16043 0.0
C827 C 0.10662 0.43454 0.19823 0.0
C828 C 0.12849 0.40129 0.19146 0.0
C829 C 0.10644 0.43829 0.17539 0.0
C830 C 0.09652 0.40907 0.30816 0.0
C831 C 0.11989 0.41474 0.23143 0.0
H832 H 0.03339 0.50971 0.39047 0.0
H833 H 0.03535 0.43905 0.37469 0.0
H834 H 1.03164 0.47019 0.40373 0.0
H835 H 0.06558 0.48749 0.32939 0.0
H836 H 0.119 0.42936 0.14307 0.0
H837 H 0.09981 0.44729 0.20895 0.0
H838 H 0.13741 0.38746 0.19805 0.0
H839 H 0.09852 0.45305 0.16938 0.0
Tb840 Tb 0.71952 0.04692 0.27754 0.0
C841 C 0.75626 0.13363 0.28651 0.0
N842 N 0.75459 0.11119 0.29158 0.0
C843 C 0.79484 0.10901 0.28613 0.0
C844 C 0.77718 0.14425 0.28029 0.0
C845 C 0.77368 0.09891 0.29141 0.0
C846 C 0.79665 0.13181 0.28079 0.0
C847 C 0.73693 0.1652 0.27227 0.0
C848 C 0.73633 0.14447 0.28348 0.0
C849 C 0.75769 0.17673 0.26793 0.0
C850 C 0.77783 0.16635 0.27219 0.0
Tb851 Tb 0.71929 0.09948 0.30553 0.0
N852 N 0.71653 0.13236 0.28698 0.0
C853 C 0.71712 0.17215 0.26305 0.0
C854 C 0.69793 0.13779 0.27592 0.0
C855 C 0.69806 0.15764 0.26369 0.0
H856 H 0.77289 0.08124 0.2947 0.0
H857 H 0.6838 0.16124 0.254 0.0
H858 H 0.68389 0.04237 0.23533 0.0
H859 H 0.76196 0.97726 0.31254 0.0
H860 H 0.68349 0.1262 0.27528 0.0
H861 H 0.71698 0.18741 0.25341 0.0
H862 H 0.75916 1.01512 0.29817 0.0
H863 H 0.80976 0.09907 0.28593 0.0
H864 H 0.7584 0.19289 0.25976 0.0
H865 H 0.79377 0.17485 0.26754 0.0
H866 H 0.65475 1.01516 0.22101 0.0
H867 H 0.81303 0.13936 0.27611 0.0
H868 H 0.73083 0.94866 0.30713 0.0
N869 N 0.69411 1.021 0.26118 0.0
C870 C 0.69234 0.99994 0.26934 0.0
C871 C 0.66505 1.01067 0.2348 0.0
C872 C 0.67643 0.98351 0.26124 0.0
C873 C 0.68159 1.02606 0.24305 0.0
C874 C 0.66213 0.9894 0.24427 0.0
N875 N 0.72488 1.01022 0.28811 0.0
C876 C 0.74441 1.0039 0.29754 0.0
C877 C 0.71004 0.97166 0.29018 0.0
C878 C 0.70863 0.99421 0.28348 0.0
C879 C 0.72896 0.96583 0.30182 0.0
C880 C 0.7465 0.98192 0.30499 0.0
H881 H 0.64964 0.9773 0.23758 0.0
H882 H 0.6642 0.94854 0.26347 0.0
H883 H 0.69394 0.93806 0.28884 0.0
O884 O 0.7533 0.05514 0.26616 0.0
O885 O 0.71199 0.04166 0.31267 0.0
O886 O 0.69374 0.07376 0.31704 0.0
O887 O 0.72915 0.03808 0.24475 0.0
O888 O 0.74631 0.04956 0.30845 0.0
O889 O 0.74236 0.08211 0.32883 0.0
O890 O 0.70878 0.12624 0.32651 0.0
O891 O 0.73286 0.09895 0.26998 0.0
O892 O 0.7076 0.07529 0.25611 0.0
O893 O 0.73713 0.10716 0.33494 0.0
O894 O 0.68052 0.09146 0.29508 0.0
O895 O 0.68205 0.05734 0.27537 0.0
C896 C 0.69559 0.05246 0.32212 0.0
C897 C 0.76515 1.02668 0.23863 0.0
C898 C 0.7893 1.01324 0.20729 0.0
C899 C 0.78322 0.99073 0.21311 0.0
C900 C 0.75881 1.00401 0.243 0.0
C901 C 0.76829 0.98627 0.23094 0.0
C902 C 0.78092 1.03121 0.22102 0.0
C903 C 0.75279 0.06284 0.32704 0.0
C904 C 0.75007 0.04449 0.24679 0.0
C905 C 0.67642 0.96139 0.26924 0.0
C906 C 0.69334 0.95542 0.28366 0.0
C907 C 0.71969 0.09416 0.25321 0.0
C908 C 0.71308 0.11631 0.36456 0.0
C909 C 0.6753 0.11189 0.37719 0.0
C910 C 0.68073 0.12129 0.39854 0.0
C911 C 0.71881 0.12912 0.38405 0.0
C912 C 0.69331 0.10258 0.3653 0.0
C913 C 0.70288 0.12997 0.4021 0.0
C914 C 0.66935 0.07484 0.2821 0.0
C915 C 0.72285 0.12175 0.34226 0.0
H916 H 0.78815 0.97629 0.20272 0.0
H917 H 0.74468 0.99971 0.25381 0.0
H918 H 0.76247 0.96902 0.23414 0.0
H919 H 0.78469 0.04864 0.21662 0.0
H920 H 0.66773 0.12307 0.41157 0.0
H921 H 0.73446 0.1392 0.38475 0.0
H922 H 0.68915 0.0926 0.3506 0.0
H923 H 0.70692 0.13899 0.41772 0.0
Tb924 Tb 0.12102 0.69271 0.28208 0.0
C925 C 0.03424 0.66221 0.2334 0.0
N926 N 0.05567 0.66856 0.22679 0.0
C927 C 0.05425 0.64039 0.19658 0.0
C928 C 1.02257 0.64366 0.22295 0.0
C929 C 0.06509 0.65896 0.20749 0.0
C930 C 0.03312 0.63237 0.20468 0.0
C931 C 1.00059 0.6708 0.25571 0.0
C932 C 1.02336 0.67567 0.24928 0.0
C933 C 0.98942 0.65129 0.24674 0.0
C934 C 1.00038 0.63777 0.2303 0.0
Tb935 Tb 0.07238 0.69875 0.24667 0.0
N936 N 0.0346 0.69463 0.257 0.0
C937 C 0.98954 0.68609 0.27028 0.0
C938 C 1.02335 0.71033 0.2701 0.0
C939 C 1.00087 0.70615 0.27717 0.0
H940 H 0.08174 0.66458 0.20158 0.0
H941 H 0.99227 0.71847 0.28785 0.0
H942 H 0.10134 0.73815 0.25514 0.0
H943 H 0.202 0.65683 0.26159 0.0
H944 H 1.03161 0.72616 0.27524 0.0
H945 H 0.97209 0.68294 0.27567 0.0
H946 H 0.16074 0.655 0.2705 0.0
H947 H 0.06225 0.63223 0.182 0.0
H948 H 0.97206 0.64703 0.25174 0.0
H949 H 0.99126 0.62332 0.22277 0.0
H950 H 0.11709 0.77478 0.2433 0.0
H951 H 1.02472 0.61806 0.19613 0.0
H952 H 0.2222 0.69384 0.25797 0.0
N953 N 0.1323 0.72568 0.26488 0.0
C954 C 0.15515 0.7295 0.26471 0.0
C955 C 0.128 0.76232 0.24956 0.0
C956 C 0.16517 0.7502 0.2574 0.0
C957 C 0.11892 0.7414 0.25649 0.0
C958 C 0.15118 0.76696 0.25049 0.0
N959 N 0.15816 0.69075 0.27161 0.0
C960 C 0.16968 0.6712 0.26901 0.0
C961 C 0.19207 0.71301 0.26322 0.0
C962 C 0.16864 0.71121 0.26795 0.0
C963 C 0.20425 0.6932 0.2619 0.0
C964 C 0.19288 0.67219 0.26405 0.0
H965 H 0.15821 0.783 0.2446 0.0
H966 H 0.19674 0.76854 0.24967 0.0
H967 H 0.22024 0.73588 0.25443 0.0
O968 O 0.14142 0.67688 0.30483 0.0
O969 O 0.13449 0.68669 0.24649 0.0
O970 O 0.10588 0.69756 0.22472 0.0
O971 O 0.12815 0.7089 0.31337 0.0
O972 O 0.1105 0.65583 0.27074 0.0
O973 O 0.0807 0.65957 0.2472 0.0
O974 O 0.08202 0.72441 0.22365 0.0
O975 O 0.06636 0.69932 0.28218 0.0
O976 O 0.08965 0.67316 0.29148 0.0
O977 O 0.04753 0.71333 0.22767 0.0
O978 O 0.07177 0.72746 0.27829 0.0
O979 O 0.10365 0.72385 0.29879 0.0
C980 C 0.12735 0.69106 0.22619 0.0
C981 C 0.12772 0.68314 0.34177 0.0
C982 C 0.10148 0.65489 0.35769 0.0
C983 C 0.10538 0.66389 0.37945 0.0
C984 C 0.13126 0.69278 0.3633 0.0
C985 C 0.11951 0.6835 0.38204 0.0
C986 C 0.11219 0.66529 0.3393 0.0
C987 C 0.09516 0.64554 0.25679 0.0
C988 C 0.13818 0.69187 0.32095 0.0
C989 C 0.18879 0.75272 0.25513 0.0
C990 C 0.2022 0.73412 0.25788 0.0
C991 C 0.06962 0.68147 0.29316 0.0
C992 C 0.05985 0.72023 0.19058 0.0
C993 C 0.03746 0.71875 0.15592 0.0
C994 C 0.05178 0.70173 0.14736 0.0
C995 C 0.07512 0.70572 0.17973 0.0
C996 C 0.0412 0.72732 0.17836 0.0
C997 C 0.0707 0.696 0.15871 0.0
C998 C 0.08467 0.73523 0.29655 0.0
C999 C 0.0619 0.72487 0.21533 0.0
H1000 H 0.09793 0.65572 0.39416 0.0
H1001 H 0.14274 0.70735 0.36556 0.0
H1002 H 0.12175 0.69129 0.3986 0.0
H1003 H 0.1099 0.65811 0.3226 0.0
H1004 H 0.04863 0.69249 0.13169 0.0
H1005 H 0.08999 0.70071 0.1879 0.0
H1006 H 1.0298 0.73911 0.18643 0.0
H1007 H 0.08184 0.68355 0.1513 0.0
Tb1008 Tb 0.44993 0.04253 0.83557 0.0
C1009 C 0.46652 0.14093 0.87824 0.0
N1010 N 0.46145 0.1201 0.88624 0.0
C1011 C 0.48559 0.12854 0.91752 0.0
C1012 C 0.48192 0.1562 0.88898 0.0
C1013 C 0.46974 0.11426 0.90647 0.0
C1014 C 0.4921 0.14942 0.90845 0.0
C1015 C 0.45711 0.1698 0.85273 0.0
C1016 C 0.45471 0.14744 0.86032 0.0
C1017 C 0.47324 0.18487 0.86248 0.0
C1018 C 0.48588 0.17796 0.88043 0.0
Tb1019 Tb 0.4407 0.09545 0.86328 0.0
N1020 N 0.43967 0.13216 0.85132 0.0
C1021 C 0.44296 0.17639 0.83593 0.0
C1022 C 0.42491 0.13899 0.8358 0.0
C1023 C 0.42647 0.16102 0.82777 0.0
H1024 H 0.46498 0.09822 0.91375 0.0
H1025 H 0.41494 0.16609 0.81526 0.0
H1026 H 0.39383 0.04844 0.84472 0.0
H1027 H 0.49465 0.98747 0.8876 0.0
H1028 H 0.41183 0.12777 0.82925 0.0
H1029 H 0.44422 0.1934 0.82961 0.0
H1030 H 0.49046 1.02187 0.86721 0.0
H1031 H 0.49279 0.12341 0.93301 0.0
H1032 H 0.47576 0.20196 0.85653 0.0
H1033 H 0.49795 0.18984 0.88815 0.0
H1034 H 0.36084 1.02229 0.84912 0.0
H1035 H 0.50425 0.16051 0.91709 0.0
H1036 H 0.46893 0.95421 0.88162 0.0
N1037 N 0.41784 1.0229 0.84695 0.0
C1038 C 0.42104 1.00039 0.84922 0.0
C1039 C 0.37769 1.01593 0.84918 0.0
C1040 C 0.40257 0.98495 0.85251 0.0
C1041 C 0.39649 1.03077 0.84664 0.0
C1042 C 0.38072 0.9929 0.8519 0.0
N1043 N 0.45975 1.01022 0.85197 0.0
C1044 C 0.47828 1.00815 0.86468 0.0
C1045 C 0.4463 0.97258 0.86168 0.0
C1046 C 0.44293 0.99384 0.85244 0.0
C1047 C 0.46624 0.9697 0.87296 0.0
C1048 C 0.48125 0.98821 0.87597 0.0
H1049 H 0.36608 0.98156 0.8544 0.0
H1050 H 0.39252 0.95035 0.86036 0.0
H1051 H 0.43074 0.93984 0.86944 0.0
O1052 O 0.46345 1.01962 0.81185 0.0
O1053 O 0.4351 0.03999 0.86995 0.0
O1054 O 0.45216 0.06935 0.88753 0.0
O1055 O 0.43094 1.03353 0.8074 0.0
O1056 O 0.4861 0.05498 0.84914 0.0
O1057 O 0.47861 0.08845 0.86879 0.0
O1058 O 0.41187 0.07691 0.87496 0.0
O1059 O 0.45091 0.09862 0.82814 0.0
O1060 O 0.47353 0.06908 0.82439 0.0
O1061 O 0.41748 0.11297 0.88317 0.0
O1062 O 0.41341 0.08979 0.83504 0.0
O1063 O 0.42591 0.06034 0.81359 0.0
C1064 C 0.44465 0.048 0.8882 0.0
C1065 C 0.45187 1.02751 0.77484 0.0
C1066 C 0.48707 1.03175 0.75647 0.0
C1067 C 0.47882 1.02043 0.73687 0.0
C1068 C 0.44327 1.01383 0.75706 0.0
C1069 C 0.45637 1.01175 0.73703 0.0
C1070 C 0.4708 0.04171 0.7705 0.0
C1071 C 0.49382 0.07263 0.8629 0.0
C1072 C 0.44662 1.02154 0.79822 0.0
C1073 C 0.40648 0.96254 0.85799 0.0
C1074 C 0.42832 0.95644 0.86289 0.0
C1075 C 0.46935 0.08998 0.82008 0.0
C1076 C 0.39669 0.09205 0.90967 0.0
C1077 C 0.38042 0.11082 0.94276 0.0
C1078 C 0.38662 0.09285 0.956 0.0
C1079 C 0.40194 0.07371 0.92267 0.0
C1080 C 0.38513 0.10999 0.9196 0.0
C1081 C 0.39706 0.0742 0.94587 0.0
C1082 C 0.41088 0.07627 0.81636 0.0
C1083 C 0.40468 0.09469 0.88636 0.0
H1084 H 0.49003 1.01638 0.72275 0.0
H1085 H 0.42786 1.00355 0.7593 0.0
H1086 H 0.45023 1.00141 0.72295 0.0
H1087 H 0.47664 0.0528 0.78419 0.0
H1088 H 0.3839 0.09347 0.97417 0.0
H1089 H 0.40985 0.05924 0.91506 0.0
H1090 H 0.38073 0.12395 0.90935 0.0
H1091 H 0.4018 0.06037 0.95604 0.0
Tb1092 Tb 0.08238 0.44724 0.89332 0.0
C1093 C 1.00193 0.42111 0.87947 0.0
N1094 N 1.02478 0.42255 0.87516 0.0
C1095 C 1.02696 0.38371 0.88609 0.0
C1096 C 0.99109 0.40111 0.88774 0.0
C1097 C 0.037 0.4038 0.87811 0.0
C1098 C 1.00392 0.38231 0.8909 0.0
C1099 C 0.96605 0.43968 0.88264 0.0
C1100 C 0.98922 0.43997 0.87638 0.0
C1101 C 0.95535 0.41971 0.89044 0.0
C1102 C 0.9678 0.40044 0.89283 0.0
Tb1103 Tb 0.03709 0.45577 0.85785 0.0
N1104 N 1.00003 0.45925 0.86912 0.0
C1105 C 0.95443 0.45969 0.88167 0.0
C1106 C 0.98877 0.47902 0.86854 0.0
C1107 C 0.96592 0.47951 0.87501 0.0
H1108 H 0.05466 0.40381 0.87538 0.0
H1109 H 0.95717 0.49517 0.87515 0.0
H1110 H 0.0777 0.48112 0.94003 0.0
H1111 H 0.15955 0.41217 0.85849 0.0
H1112 H 0.99773 0.49455 0.86384 0.0
H1113 H 0.93671 0.46016 0.88663 0.0
H1114 H 0.11986 0.41024 0.87155 0.0
H1115 H 0.03714 0.36927 0.88859 0.0
H1116 H 0.93751 0.41911 0.89503 0.0
H1117 H 0.95933 0.38519 0.89907 0.0
H1118 H 0.1009 0.51136 0.9589 0.0
H1119 H 0.99622 0.3667 0.89717 0.0
H1120 H 0.18402 0.44573 0.86836 0.0
N1121 N 0.10327 0.47296 0.91543 0.0
C1122 C 0.12537 0.47614 0.90923 0.0
C1123 C 0.10798 0.50162 0.94483 0.0
C1124 C 0.13919 0.4934 0.91916 0.0
C1125 C 0.095 0.4842 0.93433 0.0
C1126 C 0.12999 0.50666 0.93679 0.0
N1127 N 0.12072 0.44349 0.88686 0.0
C1128 C 0.1299 0.42543 0.87531 0.0
C1129 C 0.15748 0.46251 0.8875 0.0
C1130 C 0.13438 0.46096 0.89392 0.0
C1131 C 0.16639 0.44518 0.87377 0.0
C1132 C 0.15264 0.42623 0.86817 0.0
H1133 H 0.13996 0.52021 0.94485 0.0
H1134 H 0.17267 0.50974 0.91868 0.0
H1135 H 0.18869 0.48263 0.89069 0.0
O1136 O 0.06359 0.42207 0.91081 0.0
O1137 O 0.09332 0.45027 0.85861 0.0
O1138 O 0.06896 0.47526 0.84847 0.0
O1139 O 0.09966 0.42637 0.91402 0.0
O1140 O 0.0854 0.4222 0.85974 0.0
O1141 O 0.05523 0.4263 0.83771 0.0
O1142 O 1.02042 0.47459 0.83465 0.0
O1143 O 1.02352 0.46621 0.89228 0.0
O1144 O 0.04861 0.45076 0.91473 0.0
O1145 O 1.02411 0.43935 0.82866 0.0
O1146 O 0.0486 0.49206 0.87116 0.0
O1147 O 0.07604 0.48613 0.89623 0.0
C1148 C 0.08971 0.46816 0.84768 0.0
C1149 C 0.07939 0.41599 0.94623 0.0
C1150 C 0.09588 0.40231 0.98001 0.0
C1151 C 0.08712 0.42082 0.99248 0.0
C1152 C 0.07049 0.43413 0.95903 0.0
C1153 C 0.07414 0.43634 0.98208 0.0
C1154 C 0.09111 0.39965 0.95698 0.0
C1155 C 0.07437 0.41526 0.84029 0.0
C1156 C 0.0812 0.41622 0.92153 0.0
C1157 C 0.16187 0.49623 0.91168 0.0
C1158 C 0.171 0.48081 0.89575 0.0
C1159 C 1.02825 0.45967 0.91262 0.0
C1160 C 0.03339 0.46252 0.79872 0.0
C1161 C 0.06233 0.48726 0.78186 0.0
C1162 C 0.06744 0.47062 0.76538 0.0
C1163 C 0.03895 0.44526 0.78288 0.0
C1164 C 0.04479 0.48334 0.79745 0.0
C1165 C 0.0556 0.44953 0.76593 0.0
C1166 C 0.06322 0.50127 0.88654 0.0
C1167 C 1.0201 0.45824 0.81954 0.0
H1168 H 0.09101 0.42394 1.01005 0.0
H1169 H 0.06153 0.44715 0.9514 0.0
H1170 H 0.06778 0.45073 0.99168 0.0
H1171 H 0.09776 0.38567 0.94694 0.0
H1172 H 0.08019 0.47393 0.75228 0.0
H1173 H 1.03073 0.42859 0.7838 0.0
H1174 H 0.04039 0.49703 0.80922 0.0
H1175 H 0.05952 0.43639 0.75346 0.0
Tb1176 Tb 0.68598 0.11821 0.87356 0.0
C1177 C 0.66044 1.02554 0.91057 0.0
N1178 N 0.66364 0.04634 0.92078 0.0
C1179 C 0.63216 0.03844 0.94614 0.0
C1180 C 0.64196 1.01103 0.91666 0.0
C1181 C 0.65103 0.05207 0.93972 0.0
C1182 C 0.62724 1.01814 0.93415 0.0
C1183 C 0.67613 0.99539 0.88705 0.0
C1184 C 0.67724 1.0178 0.896 0.0
C1185 C 0.65673 0.9816 0.89135 0.0
C1186 C 0.63963 0.98942 0.90613 0.0
Tb1187 Tb 0.69315 0.06833 0.90622 0.0
N1188 N 0.69595 1.03141 0.89292 0.0
C1189 C 0.69504 0.98713 0.87524 0.0
C1190 C 0.71507 1.02282 0.88277 0.0
C1191 C 0.71477 1.00075 0.87356 0.0
H1192 H 0.65472 0.06791 0.94875 0.0
H1193 H 0.72979 0.99425 0.86526 0.0
H1194 H 0.73264 0.10274 0.90291 0.0
H1195 H 0.64217 0.19504 0.89236 0.0
H1196 H 0.7306 1.03296 0.88166 0.0
H1197 H 0.69491 0.96997 0.86824 0.0
H1198 H 0.64469 0.15358 0.88457 0.0
H1199 H 0.6214 0.04357 0.96032 0.0
H1200 H 0.65533 0.96448 0.88428 0.0
H1201 H 0.62529 0.97818 0.91025 0.0
H1202 H 0.76723 0.12196 0.9154 0.0
H1203 H 0.61276 1.00754 0.9393 0.0
H1204 H 0.677 0.21883 0.89717 0.0
N1205 N 0.71735 0.1323 0.89243 0.0
C1206 C 0.71877 0.1554 0.89334 0.0
C1207 C 0.75387 0.13161 0.90893 0.0
C1208 C 0.73818 0.16737 0.90128 0.0
C1209 C 0.73411 0.12055 0.90138 0.0
C1210 C 0.75617 0.15511 0.90834 0.0
N1211 N 0.68037 0.15472 0.88429 0.0
C1212 C 0.65981 0.16421 0.88609 0.0
C1213 C 0.69901 0.19055 0.89346 0.0
C1214 C 0.69952 0.16703 0.88916 0.0
C1215 C 0.67817 0.20085 0.89348 0.0
C1216 C 0.65841 0.18747 0.89064 0.0
H1217 H 0.77137 0.16366 0.91452 0.0
H1218 H 0.75339 0.20059 0.90887 0.0
H1219 H 0.71906 0.22081 0.90204 0.0
O1220 O 0.67038 0.13639 0.84894 0.0
O1221 O 0.67869 0.12968 0.90917 0.0
O1222 O 0.69276 0.10098 0.92892 0.0
O1223 O 0.70483 0.12786 0.84449 0.0
O1224 O 0.649 0.10495 0.88154 0.0
O1225 O 0.65393 0.07325 0.90233 0.0
O1226 O 0.717 0.07883 0.93057 0.0
O1227 O 0.69769 0.06236 0.8709 0.0
O1228 O 0.6713 0.08531 0.861 0.0
O1229 O 0.70743 0.04377 0.92507 0.0
O1230 O 0.72316 0.07237 0.87909 0.0
O1231 O 0.71852 0.10423 0.85895 0.0
C1232 C 0.68601 0.12244 0.92831 0.0
C1233 C 0.68283 0.12197 0.81335 0.0
C1234 C 0.65821 0.09496 0.79349 0.0
C1235 C 0.6709 0.09819 0.77342 0.0
C1236 C 0.69666 0.12404 0.79384 0.0
C1237 C 0.69071 0.11204 0.77388 0.0
C1238 C 0.66498 0.10613 0.81332 0.0
C1239 C 0.63934 0.08728 0.89302 0.0
C1240 C 0.68733 0.13452 0.83459 0.0
C1241 C 0.73849 0.1911 0.90319 0.0
C1242 C 0.71891 0.20266 0.89933 0.0
C1243 C 0.6825 0.06689 0.8571 0.0
C1244 C 0.72103 0.05331 0.96056 0.0
C1245 C 0.72416 1.02547 0.98937 0.0
C1246 C 0.72193 0.04263 1.00617 0.0
C1247 C 0.71965 0.07032 0.97741 0.0
C1248 C 0.72392 1.03095 0.96663 0.0
C1249 C 0.71976 0.065 1.00014 0.0
C1250 C 0.73103 0.08678 0.86287 0.0
C1251 C 0.71984 0.05814 0.93655 0.0
H1252 H 0.66527 0.09066 0.75759 0.0
H1253 H 0.71166 0.13513 0.79399 0.0
H1254 H 0.70089 0.11427 0.75856 0.0
H1255 H 0.65452 0.10422 0.82851 0.0
H1256 H 0.72181 0.03869 1.0239 0.0
H1257 H 0.71891 0.08762 0.97294 0.0
H1258 H 0.72514 1.01766 0.95365 0.0
H1259 H 0.71818 0.07822 1.01308 0.0
Tb1260 Tb 0.05926 0.70369 0.87908 0.0
C1261 C 0.15261 0.7257 0.86058 0.0
N1262 N 0.13024 0.7286 0.85735 0.0
C1263 C 0.13734 0.76903 0.85768 0.0
C1264 C 0.16809 0.74442 0.86248 0.0
C1265 C 0.12246 0.7501 0.85661 0.0
C1266 C 0.16033 0.76618 0.86008 0.0
C1267 C 0.17996 0.7018 0.87603 0.0
C1268 C 0.15892 0.70421 0.86611 0.0
C1269 C 0.19617 0.71978 0.87575 0.0
C1270 C 0.19032 0.74103 0.86862 0.0
Tb1271 Tb 0.11122 0.69493 0.84763 0.0
N1272 N 0.14257 0.68728 0.8668 0.0
C1273 C 0.18258 0.68305 0.88925 0.0
C1274 C 0.14457 0.66972 0.8808 0.0
C1275 C 0.16411 0.66823 0.89313 0.0
H1276 H 0.10485 0.75312 0.85638 0.0
H1277 H 0.16443 0.65677 0.90677 0.0
H1278 H 0.04328 0.66032 0.91296 0.0
H1279 H 1.00319 0.76714 0.85403 0.0
H1280 H 0.13053 0.65818 0.88429 0.0
H1281 H 0.1977 0.68147 0.89877 0.0
H1282 H 0.03814 0.75343 0.86917 0.0
H1283 H 0.13098 0.78589 0.85707 0.0
H1284 H 0.2126 0.71798 0.8828 0.0
H1285 H 0.20251 0.75515 0.86988 0.0
H1286 H 1.01093 0.63277 0.91585 0.0
H1287 H 0.17169 0.78096 0.86149 0.0
H1288 H 0.97023 0.74063 0.84835 0.0
N1289 N 1.02833 0.67993 0.88823 0.0
C1290 C 1.00884 0.68414 0.87825 0.0
C1291 C 1.01017 0.64704 0.90494 0.0
C1292 C 0.98972 0.66926 0.87969 0.0
C1293 C 1.02849 0.66271 0.90321 0.0
C1294 C 0.99093 0.64993 0.8925 0.0
N1295 N 1.02568 0.71916 0.87096 0.0
C1296 C 1.02406 0.74156 0.86646 0.0
C1297 C 0.98689 0.71197 0.86111 0.0
C1298 C 1.00736 0.70496 0.86937 0.0
C1299 C 0.98564 0.73448 0.85481 0.0
C1300 C 1.00418 0.74948 0.85802 0.0
H1301 H 0.97668 0.63794 0.89401 0.0
H1302 H 0.9549 0.66366 0.87001 0.0
H1303 H 0.95246 0.70127 0.85352 0.0
O1304 O 0.06977 0.73446 0.8956 0.0
O1305 O 0.05096 0.70215 0.84486 0.0
O1306 O 0.07919 0.67867 0.83523 0.0
O1307 O 0.05091 0.70771 0.91298 0.0
O1308 O 0.06762 0.73222 0.85117 0.0
O1309 O 0.09348 0.71809 0.82578 0.0
O1310 O 0.1317 0.67558 0.82494 0.0
O1311 O 0.11244 0.71276 0.881 0.0
O1312 O 0.0877 0.69004 0.89753 0.0
O1313 O 0.12828 0.71114 0.82111 0.0
O1314 O 0.09933 0.65861 0.86143 0.0
O1315 O 0.06393 0.66498 0.87679 0.0
C1316 C 0.05861 0.68601 0.83234 0.0
C1317 C 0.04084 0.74385 0.92236 0.0
C1318 C 1.0306 0.77839 0.9418 0.0
C1319 C 1.00765 0.77118 0.94113 0.0
C1320 C 1.01782 0.7367 0.92201 0.0
C1321 C 1.00134 0.75042 0.93121 0.0
C1322 C 0.04723 0.76466 0.93242 0.0
C1323 C 0.0789 0.73392 0.83059 0.0
C1324 C 0.05802 0.72872 0.91378 0.0
C1325 C 0.96968 0.67505 0.8696 0.0
C1326 C 0.96826 0.69649 0.86029 0.0
C1327 C 0.10638 0.70233 0.8993 0.0
C1328 C 0.13191 0.69093 0.78822 0.0
C1329 C 0.11113 0.66907 0.76156 0.0
C1330 C 0.12454 0.67808 0.74358 0.0
C1331 C 0.14807 0.69731 0.77153 0.0
C1332 C 0.11089 0.68237 0.78145 0.0
C1333 C 0.14346 0.69223 0.74878 0.0
C1334 C 0.08005 0.65004 0.87218 0.0
C1335 C 0.13646 0.69301 0.81225 0.0
H1336 H 0.99465 0.78127 0.94917 0.0
H1337 H 1.01244 0.72027 0.9151 0.0
H1338 H 0.98376 0.74469 0.9312 0.0
H1339 H 0.06494 0.76978 0.93363 0.0
H1340 H 0.12351 0.67047 0.72677 0.0
H1341 H 0.16398 0.70566 0.77601 0.0
H1342 H 0.09796 0.67909 0.7944 0.0
H1343 H 0.15553 0.6972 0.73558 0.0
Tb1344 Tb 0.26935 0.42866 0.06627 0.0
C1345 C 0.28174 0.38707 0.1572 0.0
N1346 N 0.27009 0.40613 0.15359 0.0
C1347 C 0.24541 0.39813 0.18561 0.0
C1348 C 0.27485 0.37251 0.17482 0.0
C1349 C 0.25285 0.41232 0.16825 0.0
C1350 C 0.25612 0.37794 0.18859 0.0
C1351 C 0.31609 0.36586 0.15132 0.0
C1352 C 0.30226 0.38346 0.14524 0.0
C1353 C 0.3083 0.35065 0.16774 0.0
C1354 C 0.28773 0.35386 0.17932 0.0
Tb1355 Tb 0.28684 0.42867 0.12672 0.0
N1356 N 0.30989 0.3987 0.12954 0.0
C1357 C 0.33809 0.365 0.14204 0.0
C1358 C 0.33198 0.39856 0.12142 0.0
C1359 C 0.34613 0.3815 0.12719 0.0
H1360 H 0.24496 0.42834 0.16665 0.0
H1361 H 0.36332 0.38136 0.1205 0.0
H1362 H 0.29952 0.43789 1.0186 0.0
H1363 H 0.1922 0.46521 0.09979 0.0
H1364 H 0.33851 0.41172 0.11044 0.0
H1365 H 0.34927 0.35204 0.14675 0.0
H1366 H 0.23025 0.4517 0.10386 0.0
H1367 H 0.23152 0.40288 0.19683 0.0
H1368 H 0.31862 0.33694 0.1724 0.0
H1369 H 0.28253 0.34249 0.19268 0.0
H1370 H 0.28794 0.44244 0.97915 0.0
H1371 H 0.25045 0.36717 0.20229 0.0
H1372 H 0.17791 0.47112 0.06178 0.0
N1373 N 0.26712 0.445 1.03266 0.0
C1374 C 0.24572 0.45115 1.02903 0.0
C1375 C 0.27595 0.44494 0.99306 0.0
C1376 C 0.23806 0.4528 1.00695 0.0
C1377 C 0.28269 0.44311 1.01533 0.0
C1378 C 0.2534 0.44913 0.98882 0.0
N1379 N 0.23845 0.45075 0.06854 0.0
C1380 C 0.22461 0.45435 0.08718 0.0
C1381 C 0.20902 0.46173 0.04445 0.0
C1382 C 0.23114 0.45484 0.04758 0.0
C1383 C 0.19497 0.46566 0.06348 0.0
C1384 C 0.20295 0.46228 0.08495 0.0
H1385 H 0.2482 0.45026 0.97156 0.0
H1386 H 0.20959 0.46051 0.98688 0.0
H1387 H 0.18438 0.46875 1.01966 0.0
O1388 O 0.24011 0.4079 0.06329 0.0
O1389 O 0.26848 0.46704 0.07886 0.0
O1390 O 0.27574 0.46702 0.11781 0.0
O1391 O 0.26666 0.40723 0.03711 0.0
O1392 O 0.25516 0.40603 0.09261 0.0
O1393 O 0.25081 0.42573 0.12524 0.0
O1394 O 0.31777 0.44268 0.13601 0.0
O1395 O 0.29291 0.39621 0.1043 0.0
O1396 O 0.29861 0.40485 0.06704 0.0
O1397 O 0.29083 0.4384 0.16108 0.0
O1398 O 0.29612 0.44683 0.09932 0.0
O1399 O 0.30656 0.43678 0.06647 0.0
C1400 C 0.27036 0.47924 0.09884 0.0
C1401 C 0.23815 0.37711 0.03716 0.0
C1402 C 0.20757 0.35429 1.02064 0.0
C1403 C 0.22023 0.33491 1.02194 0.0
C1404 C 0.25069 0.35773 0.03903 0.0
C1405 C 0.24162 0.33662 1.03147 0.0
C1406 C 0.21652 0.37518 1.02851 0.0
C1407 C 0.24256 0.41139 0.1103 0.0
C1408 C 0.24643 0.39997 0.04345 0.0
C1409 C 0.21577 0.45897 1.00374 0.0
C1410 C 0.20142 0.46376 1.02243 0.0
C1411 C 0.30296 0.39155 0.084 0.0
C1412 C 0.32694 0.42361 0.16819 0.0
C1413 C 0.36538 0.41452 0.1737 0.0
C1414 C 0.35785 0.39699 0.18829 0.0
C1415 C 0.31992 0.41102 0.18705 0.0
C1416 C 0.349 0.42128 0.15945 0.0
C1417 C 0.33504 0.39617 0.19587 0.0
C1418 C 0.31317 0.4432 0.0866 0.0
C1419 C 0.31253 0.43939 0.15702 0.0
H1420 H 0.21365 0.31867 1.01555 0.0
H1421 H 0.26736 0.35896 0.04602 0.0
H1422 H 0.25134 0.32164 1.03262 0.0
H1423 H 0.20684 0.39025 1.0271 0.0
H1424 H 0.36994 0.3883 0.19779 0.0
H1425 H 0.30299 0.41208 0.1943 0.0
H1426 H 0.35459 0.43065 0.1447 0.0
H1427 H 0.32957 0.38533 0.20953 0.0
Tb1428 Tb 0.26356 0.68408 0.07383 0.0
C1429 C 0.27092 0.71099 0.16564 0.0
N1430 N 0.27498 0.71516 0.14322 0.0
C1431 C 0.26939 0.75471 0.15066 0.0
C1432 C 0.26566 0.72863 0.18123 0.0
C1433 C 0.27365 0.73663 0.13557 0.0
C1434 C 0.26576 0.75076 0.17361 0.0
C1435 C 0.25889 0.68338 0.19356 0.0
C1436 C 0.26799 0.68851 0.1719 0.0
C1437 C 0.25526 0.70093 0.20955 0.0
C1438 C 0.25884 0.7235 0.20347 0.0
Tb1439 Tb 0.28675 0.68441 0.12187 0.0
N1440 N 0.27123 0.67186 0.15577 0.0
C1441 C 0.25222 0.66097 0.19802 0.0
C1442 C 0.26421 0.65011 0.16015 0.0
C1443 C 0.25438 0.64438 0.18102 0.0
H1444 H 0.27515 0.73987 0.11782 0.0
H1445 H 0.24894 0.62701 0.18411 0.0
H1446 H 0.22665 0.64079 0.0852 0.0
H1447 H 0.30842 0.70489 0.99606 0.0
H1448 H 0.26659 0.63696 0.14812 0.0
H1449 H 0.24476 0.65643 0.21427 0.0
H1450 H 0.29477 0.7113 0.03538 0.0
H1451 H 0.26851 0.77167 0.1445 0.0
H1452 H 0.24871 0.69726 0.22635 0.0
H1453 H 0.25493 0.73687 0.21573 0.0
H1454 H 0.21341 0.60519 0.06691 0.0
H1455 H 0.26187 0.76477 0.1851 0.0
H1456 H 0.29918 0.66854 0.97601 0.0
N1457 N 0.25105 0.64916 0.05913 0.0
C1458 C 0.25944 0.64309 0.03832 0.0
C1459 C 0.22651 0.6156 0.05873 0.0
C1460 C 0.25214 0.62277 1.02715 0.0
C1461 C 0.23417 0.63596 0.06906 0.0
C1462 C 0.23578 0.60879 0.03783 0.0
N1463 N 0.27899 0.67838 0.03813 0.0
C1464 C 0.2912 0.69512 1.02704 0.0
C1465 C 0.28085 0.65415 1.00469 0.0
C1466 C 0.2738 0.65833 1.02732 0.0
C1467 C 0.29347 0.67112 0.99341 0.0
C1468 C 0.29874 0.69164 1.00467 0.0
H1469 H 0.2297 0.59308 1.02979 0.0
H1470 H 0.25532 0.60201 0.99649 0.0
H1471 H 0.28035 0.62965 0.97671 0.0
O1472 O 0.23494 0.70543 0.07436 0.0
O1473 O 0.30039 0.68048 0.06884 0.0
O1474 O 0.30693 0.6619 0.10018 0.0
O1475 O 0.24784 0.6919 0.04363 0.0
O1476 O 0.28921 0.71895 0.07665 0.0
O1477 O 0.30781 0.71539 0.10855 0.0
O1478 O 0.3052 0.67089 0.14635 0.0
O1479 O 0.25129 0.69488 0.13003 0.0
O1480 O 0.23451 0.67831 0.10074 0.0
O1481 O 0.31944 0.69854 0.12588 0.0
O1482 O 0.27111 0.65256 0.09992 0.0
O1483 O 0.26881 0.65087 0.09583 0.0
C1484 C 0.31148 0.665 0.07882 0.0
C1485 C 0.20825 0.69337 0.04444 0.0
C1486 C 0.17799 0.68678 1.01527 0.0
C1487 C 0.17206 0.66655 1.02648 0.0
C1488 C 0.19867 0.67485 0.05589 0.0
C1489 C 0.18157 0.66119 0.04664 0.0
C1490 C 0.19743 0.69976 1.02389 0.0
C1491 C 0.30687 0.72756 0.09014 0.0
C1492 C 0.23122 0.70251 0.05264 0.0
C1493 C 0.26048 0.61767 1.00521 0.0
C1494 C 0.27466 0.63343 0.99392 0.0
C1495 C 0.23254 0.68606 0.12208 0.0
C1496 C 0.345 0.67242 0.13851 0.0
C1497 C 0.33835 0.6478 0.16808 0.0
C1498 C 0.34927 0.66387 0.18254 0.0
C1499 C 0.36132 0.68534 0.15019 0.0
C1500 C 0.34261 0.64998 0.14472 0.0
C1501 C 0.36241 0.68179 0.17331 0.0
C1502 C 0.27187 0.63164 0.10862 0.0
C1503 C 0.32322 0.68351 0.14075 0.0
H1504 H 0.15926 0.6547 1.01998 0.0
H1505 H 0.20523 0.67009 0.0717 0.0
H1506 H 0.17563 0.64606 0.0552 0.0
H1507 H 0.20395 0.71444 1.01496 0.0
H1508 H 0.3459 0.66393 0.20041 0.0
H1509 H 0.36784 0.7013 0.14365 0.0
H1510 H 0.33432 0.63872 0.13262 0.0
H1511 H 0.37076 0.6944 0.18406 0.0
Tb1512 Tb 0.44823 0.26332 0.05408 0.0
C1513 C 0.434 0.26798 0.15461 0.0
N1514 N 0.42903 0.2726 0.13296 0.0
C1515 C 0.39129 0.25705 0.13911 0.0
C1516 C 0.41773 0.2575 0.16923 0.0
C1517 C 0.40819 0.26652 0.12491 0.0
C1518 C 0.39597 0.25278 0.16144 0.0
C1519 C 0.46291 0.2631 0.182 0.0
C1520 C 0.45625 0.27131 0.16127 0.0
C1521 C 0.4466 0.25325 0.19679 0.0
C1522 C 0.42402 0.25077 0.19056 0.0
Tb1523 Tb 0.45769 0.29236 0.11413 0.0
N1524 N 0.47176 0.2806 0.14649 0.0
C1525 C 0.48592 0.26412 0.18675 0.0
C1526 C 0.49417 0.28143 0.15079 0.0
C1527 C 0.50163 0.27301 0.17094 0.0
H1528 H 0.40432 0.26841 0.10751 0.0
H1529 H 0.51947 0.27346 0.17432 0.0
H1530 H 0.4899 0.22726 0.04513 0.0
H1531 H 0.40329 0.31132 0.99451 0.0
H1532 H 0.50626 0.28836 0.13857 0.0
H1533 H 0.49177 0.2576 0.20232 0.0
H1534 H 0.42146 0.30662 1.03039 0.0
H1535 H 0.37475 0.25267 0.13268 0.0
H1536 H 0.45138 0.24696 0.21286 0.0
H1537 H 0.41176 0.24263 0.20194 0.0
H1538 H 0.49746 0.1978 1.01592 0.0
H1539 H 0.38298 0.24491 0.1722 0.0
H1540 H 0.4076 0.28269 0.96347 0.0
N1541 N 0.46629 0.24387 1.02561 0.0
C1542 C 0.45525 0.24377 1.0059 0.0
C1543 C 0.48562 0.21071 1.01285 0.0
C1544 C 0.45821 0.22664 0.98919 0.0
C1545 C 0.48186 0.22796 1.02909 0.0
C1546 C 0.47348 0.20982 0.99297 0.0
N1547 N 0.43674 0.27561 1.02015 0.0
C1548 C 0.42374 0.29388 1.01723 0.0
C1549 C 0.42961 0.26229 0.98214 0.0
C1550 C 0.44047 0.26073 1.00278 0.0
C1551 C 0.41604 0.2807 0.97918 0.0
C1552 C 0.41348 0.29682 0.99668 0.0
H1553 H 0.47633 0.19638 0.9805 0.0
H1554 H 0.44818 0.21406 0.95608 0.0
H1555 H 0.42385 0.24585 0.94953 0.0
O1556 O 0.41625 0.24723 0.04624 0.0
O1557 O 0.46144 0.2964 0.04546 0.0
O1558 O 0.45781 0.29316 0.07992 0.0
O1559 O 0.44527 0.22879 0.05643 0.0
O1560 O 0.41895 0.28726 0.06386 0.0
O1561 O 0.42462 0.30346 0.09981 0.0
O1562 O 0.47193 0.32501 0.11613 0.0
O1563 O 0.46705 0.25764 0.11575 0.0
O1564 O 0.44238 0.25425 0.08926 0.0
O1565 O 0.44309 0.31502 0.13773 0.0
O1566 O 0.49377 0.28647 0.09697 0.0
O1567 O 0.48764 0.26491 0.06287 0.0
C1568 C 0.46342 0.30725 0.0644 0.0
C1569 C 0.41278 0.20555 0.04751 0.0
C1570 C 0.37989 0.18238 0.03696 0.0
C1571 C 0.39143 0.16284 0.04198 0.0
C1572 C 0.42464 0.18578 0.05024 0.0
C1573 C 0.41376 0.16461 0.04843 0.0
C1574 C 0.39036 0.20381 0.04078 0.0
C1575 C 0.41255 0.30152 0.081 0.0
C1576 C 0.42468 0.22762 0.04976 0.0
C1577 C 0.44619 0.22712 0.96914 0.0
C1578 C 0.43238 0.24524 0.96538 0.0
C1579 C 0.4571 0.24426 0.10125 0.0
C1580 C 0.44032 0.34962 0.11869 0.0
C1581 C 0.45846 0.38353 0.12826 0.0
C1582 C 0.43899 0.39187 0.1395 0.0
C1583 C 0.42057 0.35537 0.13122 0.0
C1584 C 0.45325 0.36807 0.11066 0.0
C1585 C 0.41937 0.37753 0.14061 0.0
C1586 C 0.50248 0.27448 0.07843 0.0
C1587 C 0.45391 0.3314 0.12751 0.0
H1588 H 0.38408 0.14604 0.03863 0.0
H1589 H 0.44254 0.18657 0.05305 0.0
H1590 H 0.42303 0.1495 0.05073 0.0
H1591 H 0.38177 0.21888 0.03656 0.0
H1592 H 0.44 0.40702 0.15009 0.0
H1593 H 0.40817 0.34245 0.13644 0.0
H1594 H 0.46642 0.36443 0.09821 0.0
H1595 H 0.40488 0.38234 0.15097 0.0
Tb1596 Tb 0.86915 0.47242 1.02255 0.0
C1597 C 0.90845 0.4958 0.11433 0.0
N1598 N 0.91708 0.49262 0.09289 0.0
C1599 C 0.94656 0.52087 0.10038 0.0
C1600 C 0.91768 0.51284 0.12896 0.0
C1601 C 0.93718 0.50351 0.08667 0.0
C1602 C 0.93645 0.52593 0.12139 0.0
C1603 C 0.88484 0.48154 0.14554 0.0
C1604 C 0.89234 0.48013 0.1227 0.0
C1605 C 0.89262 0.49964 0.15946 0.0
C1606 C 0.90903 0.51522 0.15121 0.0
Tb1607 Tb 0.90093 0.46231 0.07295 0.0
N1608 N 0.88604 0.46203 0.10919 0.0
C1609 C 0.87051 0.46419 0.15404 0.0
C1610 C 0.87283 0.4445 0.11782 0.0
C1611 C 0.86466 0.44551 0.14017 0.0
H1612 H 0.94501 0.49973 0.07033 0.0
H1613 H 0.85406 0.43175 0.14675 0.0
H1614 H 0.89068 0.4209 1.0282 0.0
H1615 H 0.89467 0.53335 0.96041 0.0
H1616 H 0.86868 0.42962 0.10757 0.0
H1617 H 0.86439 0.46474 0.17146 0.0
H1618 H 0.87831 0.52101 0.99708 0.0
H1619 H 0.96171 0.5302 0.0948 0.0
H1620 H 0.8868 0.50115 0.17694 0.0
H1621 H 0.91573 0.5284 0.16255 0.0
H1622 H 0.90548 0.39117 1.00266 0.0
H1623 H 0.94401 0.53913 0.13215 0.0
H1624 H 0.90285 0.50519 0.93004 0.0
N1625 N 0.88551 0.44375 1.00204 0.0
C1626 C 0.88905 0.44813 0.97967 0.0
C1627 C 0.9006 0.40699 0.99595 0.0
C1628 C 0.89859 0.43196 0.96465 0.0
C1629 C 0.8917 0.42375 1.01039 0.0
C1630 C 0.90376 0.41097 0.97294 0.0
N1631 N 0.8794 0.4859 0.98816 0.0
C1632 C 0.88243 0.50846 0.98414 0.0
C1633 C 0.89418 0.47648 0.95091 0.0
C1634 C 0.88628 0.47008 0.97257 0.0
C1635 C 0.89616 0.49954 0.94623 0.0
C1636 C 0.89135 0.51555 0.96329 0.0
H1637 H 0.91119 0.39813 0.96194 0.0
H1638 H 0.91125 0.42541 0.93045 0.0
H1639 H 0.90781 0.46452 0.9186 0.0
O1640 O 0.84464 0.48359 1.00088 0.0
O1641 O 0.90657 0.4775 1.01327 0.0
O1642 O 0.92185 0.45599 0.03943 0.0
O1643 O 0.83706 0.45611 1.02303 0.0
O1644 O 0.87733 0.50969 0.03637 0.0
O1645 O 0.90197 0.50273 0.06436 0.0
O1646 O 0.91659 0.44764 0.10095 0.0
O1647 O 0.86478 0.46684 0.08011 0.0
O1648 O 0.85942 0.49086 0.0528 0.0
O1649 O 0.93212 0.44555 0.06883 0.0
O1650 O 0.87262 0.42998 0.06729 0.0
O1651 O 0.85283 0.43885 0.03649 0.0
C1652 C 0.92415 0.46627 1.01941 0.0
C1653 C 0.81084 0.48374 1.02268 0.0
C1654 C 0.80276 0.52215 1.03172 0.0
C1655 C 0.77951 0.51671 1.03024 0.0
C1656 C 0.78787 0.4774 1.02237 0.0
C1657 C 0.77204 0.49392 1.02774 0.0
C1658 C 0.81731 0.50456 1.03227 0.0
C1659 C 0.89208 0.51876 0.05168 0.0
C1660 C 0.82867 0.47121 1.01081 0.0
C1661 C 0.9041 0.43771 0.94225 0.0
C1662 C 0.90205 0.45997 0.93545 0.0
C1663 C 0.85523 0.48478 0.07335 0.0
C1664 C 0.95762 0.45181 0.10073 0.0
C1665 C 0.98671 0.45641 0.13154 0.0
C1666 C 0.99947 0.47051 0.11677 0.0
C1667 C 0.97225 0.4653 0.08718 0.0
C1668 C 0.9653 0.44701 0.12319 0.0
C1669 C 0.99238 0.47484 0.09523 0.0
C1670 C 0.85432 0.42421 0.05336 0.0
C1671 C 0.93514 0.44305 0.09036 0.0
H1672 H 0.7675 0.52974 1.02854 0.0
H1673 H 0.7823 0.46062 1.01649 0.0
H1674 H 0.75418 0.48964 1.0266 0.0
H1675 H 0.835 0.50929 1.0315 0.0
H1676 H 1.01579 0.47775 0.12137 0.0
H1677 H 0.96812 0.46876 0.07001 0.0
H1678 H 0.95478 0.43617 0.13393 0.0
H1679 H 1.00297 0.48549 0.08437 0.0
Tb1680 Tb 0.70752 0.8557 1.02787 0.0
C1681 C 0.70107 0.90328 0.13669 0.0
N1682 N 0.69346 0.90321 0.11532 0.0
C1683 C 0.66753 0.93198 0.12669 0.0
C1684 C 0.69289 0.91837 0.15365 0.0
C1685 C 0.67765 0.91824 0.10996 0.0
C1686 C 0.67508 0.93195 0.14872 0.0
C1687 C 0.7324 0.89529 0.15977 0.0
C1688 C 0.71952 0.89074 0.1404 0.0
C1689 C 0.72431 0.91006 0.17687 0.0
C1690 C 0.7041 0.92096 0.17415 0.0
Tb1691 Tb 0.71403 0.88361 0.08816 0.0
N1692 N 0.72682 0.87671 0.12339 0.0
C1693 C 0.7533 0.88532 0.16105 0.0
C1694 C 0.74603 0.86505 0.12591 0.0
C1695 C 0.75995 0.86982 0.14418 0.0
H1696 H 0.67324 0.92043 0.09266 0.0
H1697 H 0.77558 0.86118 0.14542 0.0
H1698 H 0.76456 0.86882 1.0229 0.0
H1699 H 0.63901 0.88023 0.97716 0.0
H1700 H 0.75145 0.85245 0.11373 0.0
H1701 H 0.76396 0.88879 0.17536 0.0
H1702 H 0.65563 0.86075 1.00813 0.0
H1703 H 0.65472 0.94346 0.12232 0.0
H1704 H 0.73366 0.91333 0.19212 0.0
H1705 H 0.69818 0.93257 0.18734 0.0
H1706 H 0.79064 0.88175 0.99336 0.0
H1707 H 0.6681 0.94354 0.16137 0.0
H1708 H 0.66353 0.89691 0.94702 0.0
N1709 N 0.73458 0.87228 1.00401 0.0
C1710 C 0.72659 0.87944 0.98432 0.0
C1711 C 0.77267 0.88123 0.99058 0.0
C1712 C 0.74135 0.88841 0.96734 0.0
C1713 C 0.75747 0.87338 1.00733 0.0
C1714 C 0.76461 0.88873 0.97048 0.0
N1715 N 0.68967 0.86911 0.99777 0.0
C1716 C 0.66677 0.86915 0.99606 0.0
C1717 C 0.69448 0.8884 0.96251 0.0
C1718 C 0.70343 0.87868 0.98156 0.0
C1719 C 0.67106 0.8892 0.96116 0.0
C1720 C 0.65717 0.8799 0.97821 0.0
H1721 H 0.77646 0.89514 0.95768 0.0
H1722 H 0.74357 0.90412 0.93478 0.0
H1723 H 0.70249 0.90482 0.93087 0.0
O1724 O 0.70019 0.82856 1.00523 0.0
O1725 O 0.72109 0.88952 1.03165 0.0
O1726 O 0.69826 0.90095 0.06079 0.0
O1727 O 0.7203 0.82458 0.03428 0.0
O1728 O 0.67019 0.86296 0.04421 0.0
O1729 O 0.67437 0.88225 0.07975 0.0
O1730 O 0.74135 0.89865 0.06863 0.0
O1731 O 0.70725 0.84764 0.09371 0.0
O1732 O 0.69945 0.85629 0.061 0.0
O1733 O 0.73232 0.91114 0.10196 0.0
O1734 O 0.74297 0.85912 0.07785 0.0
O1735 O 0.74053 0.84413 0.04122 0.0
C1736 C 0.70752 0.90423 0.04064 0.0
C1737 C 0.73181 0.8043 1.00316 0.0
C1738 C 0.72362 0.77222 0.98179 0.0
C1739 C 0.7393 0.77889 0.96444 0.0
C1740 C 0.74388 0.81453 0.98504 0.0
C1741 C 0.74963 0.80075 0.96614 0.0
C1742 C 0.72988 0.78073 1.00292 0.0
C1743 C 0.66018 0.87379 0.06311 0.0
C1744 C 0.71364 0.8156 1.01568 0.0
C1745 C 0.73249 0.89712 0.94792 0.0
C1746 C 0.7091 0.89745 0.94567 0.0
C1747 C 0.70035 0.83994 0.07446 0.0
C1748 C 0.75096 0.93753 0.07961 0.0
C1749 C 0.77413 0.97118 0.09102 0.0
C1750 C 0.75764 0.98467 0.08191 0.0
C1751 C 0.73391 0.95149 0.07356 0.0
C1752 C 0.7712 0.9474 0.08767 0.0
C1753 C 0.73773 0.97485 0.07342 0.0
C1754 C 0.75155 0.84613 0.0606 0.0
C1755 C 0.74582 0.91368 0.08464 0.0
H1756 H 0.74044 0.76966 0.94852 0.0
H1757 H 0.74677 0.83263 0.98448 0.0
H1758 H 0.75921 0.80772 0.95196 0.0
H1759 H 0.72215 0.77288 1.01775 0.0
H1760 H 0.75894 1.0029 0.08239 0.0
H1761 H 0.71727 0.94443 0.07048 0.0
H1762 H 0.78324 0.93595 0.09356 0.0
H1763 H 0.72455 0.98552 0.06824 0.0
Tb1764 Tb 0.90568 0.72464 0.04824 0.0
C1765 C 0.87528 0.76072 0.1372 0.0
N1766 N 0.8865 0.74148 0.13181 0.0
C1767 C 0.90629 0.7463 0.16692 0.0
C1768 C 0.88043 0.77419 0.15672 0.0
C1769 C 0.90111 0.73374 0.14726 0.0
C1770 C 0.89655 0.76702 0.17124 0.0
C1771 C 0.84291 0.78364 0.13184 0.0
C1772 C 0.85668 0.76553 0.12488 0.0
C1773 C 0.84931 0.79812 0.14987 0.0
C1774 C 0.8681 0.79345 0.16224 0.0
Tb1775 Tb 0.87312 0.72018 0.10067 0.0
N1776 N 0.85068 0.75107 0.10746 0.0
C1777 C 0.82227 0.78581 0.12158 0.0
C1778 C 0.83004 0.75298 0.09785 0.0
C1779 C 0.81559 0.77013 0.10489 0.0
H1780 H 0.90899 0.71765 0.1446 0.0
H1781 H 0.79958 0.77161 0.0969 0.0
H1782 H 0.89569 0.72619 0.99394 0.0
H1783 H 0.96129 0.67002 0.09308 0.0
H1784 H 0.82526 0.74182 0.08404 0.0
H1785 H 0.81113 0.79922 0.12675 0.0
H1786 H 0.92662 0.68951 0.08955 0.0
H1787 H 0.91808 0.74008 0.17859 0.0
H1788 H 0.83917 0.8123 0.15512 0.0
H1789 H 0.87214 0.80411 0.1769 0.0
H1790 H 0.9205 0.7248 0.95976 0.0
H1791 H 0.9007 0.77675 0.18646 0.0
H1792 H 0.98794 0.66635 0.06043 0.0
N1793 N 0.91921 0.71139 1.01458 0.0
C1794 C 0.93958 0.70191 1.01578 0.0
C1795 C 0.92596 0.71806 0.97535 0.0
C1796 C 0.95406 0.70022 0.99658 0.0
C1797 C 0.91166 0.71814 0.99449 0.0
C1798 C 0.94749 0.70952 0.97654 0.0
N1799 N 0.93305 0.69899 0.05525 0.0
C1800 C 0.93794 0.68931 0.07521 0.0
C1801 C 0.9669 0.68376 0.038 0.0
C1802 C 0.94646 0.69494 0.03658 0.0
C1803 C 0.97248 0.67518 0.0587 0.0
C1804 C 0.95759 0.67738 0.07719 0.0
H1805 H 0.95856 0.70946 0.96164 0.0
H1806 H 0.98626 0.68867 0.98356 0.0
H1807 H 0.99707 0.67335 1.01961 0.0
O1808 O 0.93652 0.74313 0.04541 0.0
O1809 O 0.8996 0.68528 0.04977 0.0
O1810 O 0.88215 0.68373 0.08497 0.0
O1811 O 0.90839 0.75075 1.02501 0.0
O1812 O 0.915 0.74504 0.07822 0.0
O1813 O 0.9092 0.71958 0.10408 0.0
O1814 O 0.84328 0.70858 0.11435 0.0
O1815 O 0.87146 0.7547 0.08329 0.0
O1816 O 0.87488 0.74661 0.04598 0.0
O1817 O 0.87227 0.70282 0.13201 0.0
O1818 O 0.85189 0.70895 0.07225 0.0
O1819 O 0.87227 0.71379 0.03852 0.0
C1820 C 0.89088 0.67201 0.0664 0.0
C1821 C 0.93538 0.78038 1.03312 0.0
C1822 C 0.96578 0.80924 1.0304 0.0
C1823 C 0.94981 0.82614 1.0325 0.0
C1824 C 0.91952 0.79732 0.03568 0.0
C1825 C 0.92682 0.82014 0.03546 0.0
C1826 C 0.95829 0.78645 1.03101 0.0
C1827 C 0.92197 0.73578 0.09598 0.0
C1828 C 0.92905 0.75626 1.03033 0.0
C1829 C 0.9749 0.6901 0.99818 0.0
C1830 C 0.98112 0.68151 1.01874 0.0
C1831 C 0.86537 0.7593 0.06237 0.0
C1832 C 0.83922 0.71377 0.15322 0.0
C1833 C 0.80014 0.71948 0.15283 0.0
C1834 C 0.79765 0.71058 0.17456 0.0
C1835 C 0.8373 0.70262 0.17369 0.0
C1836 C 0.82173 0.72815 0.14884 0.0
C1837 C 0.81645 0.70265 0.18553 0.0
C1838 C 0.85383 0.70747 0.05006 0.0
C1839 C 0.85063 0.70299 0.13338 0.0
H1840 H 0.95505 0.84384 1.03133 0.0
H1841 H 0.90163 0.79297 0.03726 0.0
H1842 H 0.91456 0.83321 0.0369 0.0
H1843 H 0.97023 0.77315 1.02816 0.0
H1844 H 0.78156 0.7097 0.1825 0.0
H1845 H 0.85095 0.69317 0.17968 0.0
H1846 H 0.82321 0.73875 0.13518 0.0
H1847 H 0.81444 0.69486 0.20178 0.0
Tb1848 Tb 0.46239 0.86635 0.12116 0.0
C1849 C 0.48137 0.89722 1.02032 0.0
N1850 N 0.48311 0.9061 0.04172 0.0
C1851 C 0.51289 0.93209 1.02894 0.0
C1852 C 0.49524 0.90568 1.00243 0.0
C1853 C 0.49831 0.92381 0.04597 0.0
C1854 C 0.51113 0.92321 1.00702 0.0
C1855 C 0.46046 0.8734 0.99339 0.0
C1856 C 0.46389 0.88145 1.01575 0.0
C1857 C 0.47502 0.88091 0.97585 0.0
C1858 C 0.49201 0.89735 0.98029 0.0
Tb1859 Tb 0.45552 0.8936 0.06733 0.0
N1860 N 0.44865 0.87618 1.03275 0.0
C1861 C 0.44179 0.85891 0.98902 0.0
C1862 C 0.42974 0.86291 1.02812 0.0
C1863 C 0.42634 0.85376 1.00644 0.0
H1864 H 0.49942 0.93131 0.0628 0.0
H1865 H 0.4114 0.84321 1.00306 0.0
H1866 H 0.40585 0.86587 0.12988 0.0
H1867 H 0.52713 0.92255 0.15888 0.0
H1868 H 0.41653 0.85978 0.04051 0.0
H1869 H 0.43873 0.85226 0.9721 0.0
H1870 H 0.51109 0.89992 0.12767 0.0
H1871 H 0.52504 0.94577 1.03262 0.0
H1872 H 0.47259 0.87492 0.9586 0.0
H1873 H 0.50198 0.90411 0.96628 0.0
H1874 H 0.38069 0.87349 0.1628 0.0
H1875 H 0.52189 0.93028 0.99366 0.0
H1876 H 0.50564 0.92666 0.19518 0.0
N1877 N 0.43553 0.87873 0.146 0.0
C1878 C 0.44448 0.88804 0.16518 0.0
C1879 C 0.39859 0.87765 0.16365 0.0
C1880 C 0.43069 0.89225 0.18446 0.0
C1881 C 0.41292 0.87346 0.14493 0.0
C1882 C 0.40755 0.88679 0.18361 0.0
N1883 N 0.47998 0.89162 0.14543 0.0
C1884 C 0.50114 0.9016 0.14303 0.0
C1885 C 0.47637 0.90716 0.18332 0.0
C1886 C 0.46726 0.89526 0.16466 0.0
C1887 C 0.49825 0.91688 0.1813 0.0
C1888 C 0.51043 0.9146 0.16084 0.0
H1889 H 0.39642 0.88989 0.19814 0.0
H1890 H 0.43028 0.90431 0.21918 0.0
H1891 H 0.47035 0.91589 0.21833 0.0
O1892 O 0.48192 0.85314 0.14619 0.0
O1893 O 0.4464 0.90059 0.12181 0.0
O1894 O 0.46698 0.91871 0.09616 0.0
O1895 O 0.44887 0.83904 0.13986 0.0
O1896 O 0.4988 0.86994 0.1039 0.0
O1897 O 0.4951 0.89069 0.07212 0.0
O1898 O 0.43898 0.9097 0.04073 0.0
O1899 O 0.47058 0.86197 0.06001 0.0
O1900 O 0.46549 0.84201 0.09254 0.0
O1901 O 0.44136 0.92624 0.07226 0.0
O1902 O 0.42346 0.8651 0.07743 0.0
O1903 O 0.43322 0.84402 0.10713 0.0
C1904 C 0.4574 0.91982 0.11676 0.0
C1905 C 0.47757 0.8145 0.14188 0.0
C1906 C 0.51022 0.80135 0.12241 0.0
C1907 C 0.50808 0.78088 0.134 0.0
C1908 C 0.47504 0.7948 0.15419 0.0
C1909 C 0.48942 0.77712 0.14878 0.0
C1910 C 0.49242 0.8153 0.12332 0.0
C1911 C 0.50921 0.88068 0.08613 0.0
C1912 C 0.46796 0.83578 0.14879 0.0
C1913 C 0.44036 0.90203 0.2038 0.0
C1914 C 0.46314 0.90917 0.20322 0.0
C1915 C 0.47007 0.84317 0.0709 0.0
C1916 C 0.44827 0.95009 0.03894 0.0
C1917 C 0.45515 0.97791 1.00708 0.0
C1918 C 0.47533 0.98468 1.01773 0.0
C1919 C 0.46638 0.96133 0.04981 0.0
C1920 C 0.442 0.95922 1.01737 0.0
C1921 C 0.48032 0.97727 0.0389 0.0
C1922 C 0.41847 0.8457 0.09069 0.0
C1923 C 0.43743 0.92911 0.05092 0.0
H1924 H 0.52142 0.7689 0.13322 0.0
H1925 H 0.46268 0.79335 0.16797 0.0
H1926 H 0.48714 0.76146 0.15737 0.0
H1927 H 0.49444 0.83043 0.11383 0.0
H1928 H 0.48696 0.99712 1.01018 0.0
H1929 H 0.47085 0.9568 0.06658 0.0
H1930 H 0.42705 0.95236 1.0092 0.0
H1931 H 0.49528 0.98414 0.0471 0.0
Tb1932 Tb 0.70709 0.25674 0.07501 0.0
C1933 C 0.72294 0.26901 0.98337 0.0
N1934 N 0.72561 0.2721 1.00608 0.0
C1935 C 0.76216 0.25633 1.00255 0.0
C1936 C 0.74012 0.25988 0.96934 0.0
C1937 C 0.74448 0.26509 1.01587 0.0
C1938 C 0.76018 0.25415 0.97914 0.0
C1939 C 0.69752 0.26681 0.95186 0.0
C1940 C 0.70199 0.27287 0.9745 0.0
C1941 C 0.71513 0.25931 0.93753 0.0
C1942 C 0.73641 0.25591 0.94621 0.0
Tb1943 Tb 0.69709 0.29127 1.02367 0.0
N1944 N 0.68524 0.27993 0.98884 0.0
C1945 C 0.67523 0.26721 0.9447 0.0
C1946 C 0.66318 0.27883 0.9825 0.0
C1947 C 0.65791 0.27273 0.96023 0.0
H1948 H 0.7459 0.26575 0.03385 0.0
H1949 H 0.64055 0.27226 0.95507 0.0
H1950 H 0.67228 0.2119 0.07063 0.0
H1951 H 0.73304 0.30779 0.1481 0.0
H1952 H 0.64985 0.28331 0.99452 0.0
H1953 H 0.67109 0.26231 0.92751 0.0
H1954 H 0.73422 0.29507 0.10835 0.0
H1955 H 0.77726 0.2511 1.01036 0.0
H1956 H 0.71221 0.25542 0.91988 0.0
H1957 H 0.74958 0.24932 0.93507 0.0
H1958 H 0.64592 0.18967 0.09549 0.0
H1959 H 0.77385 0.2472 0.96893 0.0
H1960 H 0.70533 0.29018 0.17497 0.0
N1961 N 0.67997 0.23697 0.09603 0.0
C1962 C 0.67846 0.24251 0.11856 0.0
C1963 C 0.65475 0.20471 0.10211 0.0
C1964 C 0.66389 0.23029 0.13341 0.0
C1965 C 0.66944 0.21746 0.08802 0.0
C1966 C 0.65172 0.21133 0.12483 0.0
N1967 N 0.70639 0.27115 0.11182 0.0
C1968 C 0.72152 0.28758 0.11955 0.0
C1969 C 0.69072 0.26723 0.1497 0.0
C1970 C 0.6917 0.26066 0.12666 0.0
C1971 C 0.70546 0.28471 0.15735 0.0
C1972 C 0.72109 0.29473 0.14224 0.0
H1973 H 0.64031 0.20146 0.13567 0.0
H1974 H 0.65082 0.22828 0.16792 0.0
H1975 H 0.67434 0.26062 0.18215 0.0
O1976 O 0.72479 0.24293 0.10242 0.0
O1977 O 0.70319 0.2937 0.079 0.0
O1978 O 0.67869 0.30258 0.05323 0.0
O1979 O 0.72532 0.22613 0.07078 0.0
O1980 O 0.73837 0.28624 0.06844 0.0
O1981 O 0.72961 0.30818 0.03865 0.0
O1982 O 0.6844 0.31403 1.00121 0.0
O1983 O 0.68853 0.25454 1.01638 0.0
O1984 O 0.70791 0.23477 0.0417 0.0
O1985 O 0.71413 0.32284 1.01949 0.0
O1986 O 0.66089 0.28315 0.0387 0.0
O1987 O 0.66735 0.25521 0.06463 0.0
C1988 C 0.68542 0.30477 0.07371 0.0
C1989 C 0.72474 0.20079 0.10431 0.0
C1990 C 0.72165 0.17292 0.13738 0.0
C1991 C 0.72206 0.15542 0.12087 0.0
C1992 C 0.72462 0.18155 0.08979 0.0
C1993 C 0.72332 0.1596 0.09784 0.0
C1994 C 0.7229 0.19621 0.12878 0.0
C1995 C 0.74393 0.30555 0.05541 0.0
C1996 C 0.72931 0.2241 0.09227 0.0
C1997 C 0.66217 0.23725 0.15629 0.0
C1998 C 0.67553 0.25571 0.1644 0.0
C1999 C 0.69672 0.23512 1.02226 0.0
C2000 C 0.6873 0.34997 1.01793 0.0
C2001 C 0.65113 0.36216 1.031 0.0
C2002 C 0.6581 0.38476 1.02735 0.0
C2003 C 0.69446 0.37219 1.01318 0.0
C2004 C 0.66723 0.34595 1.03031 0.0
C2005 C 0.68021 0.38985 1.01922 0.0
C2006 C 0.65198 0.26707 0.05271 0.0
C2007 C 0.69819 0.33035 1.00773 0.0
H2008 H 0.72111 0.13791 0.12586 0.0
H2009 H 0.72609 0.18335 0.07166 0.0
H2010 H 0.72353 0.14538 0.08587 0.0
H2011 H 0.72291 0.21038 0.14078 0.0
H2012 H 0.64591 0.39789 1.02848 0.0
H2013 H 0.71033 0.37569 1.00415 0.0
H2014 H 0.66109 0.32874 1.03269 0.0
H2015 H 0.68541 0.40711 1.01544 0.0
Tb2016 Tb 0.61764 0.76301 0.94197 0.0
C2017 C 0.52116 0.76298 0.93659 0.0
N2018 N 0.54196 0.77087 0.92919 0.0
C2019 C 0.53185 0.76227 0.89075 0.0
C2020 C 0.50528 0.75363 0.92131 0.0
C2021 C 0.54732 0.77079 0.90648 0.0
C2022 C 0.5107 0.75378 0.89816 0.0
C2023 C 0.49749 0.75004 0.96811 0.0
C2024 C 0.51709 0.76168 0.95978 0.0
C2025 C 0.48136 0.74123 0.95296 0.0
C2026 C 0.4851 0.74331 0.92965 0.0
Tb2027 Tb 0.56314 0.78887 0.95684 0.0
N2028 N 0.53311 0.77029 0.97404 0.0
C2029 C 0.49501 0.74696 0.99138 0.0
C2030 C 0.53066 0.76751 0.99678 0.0
C2031 C 0.51172 0.75561 1.00573 0.0
H2032 H 0.56373 0.77649 0.90034 0.0
H2033 H 0.50992 0.75326 1.02375 0.0
H2034 H 0.61844 0.72461 0.98354 0.0
H2035 H 0.68575 0.80355 0.89447 0.0
H2036 H 0.54303 0.77465 1.0082 0.0
H2037 H 0.48038 0.73776 0.9984 0.0
H2038 H 0.64781 0.80089 0.9118 0.0
H2039 H 0.53636 0.76204 0.8729 0.0
H2040 H 0.46612 0.73237 0.95909 0.0
H2041 H 0.47272 0.73601 0.91818 0.0
H2042 H 0.64609 0.70218 1.00104 0.0
H2043 H 0.49893 0.74678 0.88591 0.0
H2044 H 0.71407 0.77594 0.90361 0.0
N2045 N 0.64247 0.74269 0.9622 0.0
C2046 C 0.66423 0.74344 0.95457 0.0
C2047 C 0.65151 0.71382 0.98802 0.0
C2048 C 0.68029 0.72896 0.96257 0.0
C2049 C 0.63581 0.72702 0.97802 0.0
C2050 C 0.67398 0.71499 0.98046 0.0
N2051 N 0.65453 0.77316 0.93255 0.0
C2052 C 0.66003 0.78931 0.91699 0.0
C2053 C 0.69193 0.75884 0.92794 0.0
C2054 C 0.67036 0.75883 0.93854 0.0
C2055 C 0.69751 0.7751 0.91186 0.0
C2056 C 0.68161 0.79074 0.90675 0.0
H2057 H 0.68599 0.70415 0.98763 0.0
H2058 H 0.71432 0.71726 0.95753 0.0
H2059 H 0.72353 0.74203 0.92541 0.0
O2060 O 0.59964 0.73858 0.92098 0.0
O2061 O 0.61805 0.79925 0.9434 0.0
O2062 O 0.59326 0.80502 0.97206 0.0
O2063 O 0.63464 0.74605 0.91537 0.0
O2064 O 0.6088 0.79056 0.9144 0.0
O2065 O 0.57663 0.80796 0.92659 0.0
O2066 O 0.53923 0.80967 0.97296 0.0
O2067 O 0.5634 0.75384 0.94379 0.0
O2068 O 0.59246 0.74143 0.96105 0.0
O2069 O 0.55233 0.81614 0.93924 0.0
O2070 O 0.57974 0.78168 0.9916 0.0
O2071 O 0.61432 0.76565 0.98252 0.0
C2072 C 0.61182 0.81117 0.96102 0.0
C2073 C 0.62402 0.70751 0.91035 0.0
C2074 C 0.65225 0.67768 0.91069 0.0
C2075 C 0.63498 0.66145 0.90596 0.0
C2076 C 0.60726 0.69068 0.90593 0.0
C2077 C 0.61273 0.6679 0.90377 0.0
C2078 C 0.64662 0.70075 0.91282 0.0
C2079 C 0.59324 0.80672 0.91107 0.0
C2080 C 0.6182 0.73198 0.91092 0.0
C2081 C 0.70185 0.7286 0.95205 0.0
C2082 C 0.70723 0.74282 0.934 0.0
C2083 C 0.57142 0.73812 0.95555 0.0
C2084 C 0.55036 0.84687 0.96337 0.0
C2085 C 0.55766 0.86585 0.99769 0.0
C2086 C 0.55184 0.88655 0.98883 0.0
C2087 C 0.54272 0.86648 0.95394 0.0
C2088 C 0.56371 0.849 0.98228 0.0
C2089 C 0.54559 0.88706 0.96614 0.0
C2090 C 0.59865 0.77194 0.99904 0.0
C2091 C 0.54174 0.82433 0.95681 0.0
H2092 H 0.63859 0.64364 0.90456 0.0
H2093 H 0.58993 0.69517 0.90391 0.0
H2094 H 0.59959 0.6551 0.90039 0.0
H2095 H 0.65998 0.71333 0.91608 0.0
H2096 H 0.54984 0.90122 0.99991 0.0
H2097 H 0.53384 0.86571 0.93823 0.0
H2098 H 0.57025 0.83387 0.98899 0.0
H2099 H 0.54049 0.90265 0.95914 0.0
Tb2100 Tb 0.39971 0.57221 0.97591 0.0
C2101 C 0.37595 0.47204 0.95713 0.0
N2102 N 0.37193 0.49276 0.94926 0.0
C2103 C 0.37124 0.47694 0.91133 0.0
C2104 C 0.37766 0.45293 0.94238 0.0
C2105 C 0.36996 0.49543 0.9265 0.0
C2106 C 0.37474 0.45551 0.91932 0.0
C2107 C 0.38945 0.45046 0.98754 0.0
C2108 C 0.38118 0.4707 0.97957 0.0
C2109 C 0.38938 0.43094 0.97346 0.0
C2110 C 0.38339 0.43215 0.95091 0.0
Tb2111 Tb 0.36483 0.52033 0.97654 0.0
N2112 N 0.38163 0.49015 0.99242 0.0
C2113 C 0.39943 0.45096 1.00857 0.0
C2114 C 0.39466 0.49127 1.01115 0.0
C2115 C 0.40292 0.47169 1.01996 0.0
H2116 H 0.36787 0.5117 0.91947 0.0
H2117 H 0.4126 0.47276 0.03517 0.0
H2118 H 0.44231 0.56687 1.00993 0.0
H2119 H 0.36281 0.65092 0.95552 0.0
H2120 H 0.40018 0.50707 1.01882 0.0
H2121 H 0.40623 0.43587 1.01518 0.0
H2122 H 0.37596 0.61229 0.94777 0.0
H2123 H 0.36965 0.47928 0.89342 0.0
H2124 H 0.39512 0.41517 0.97952 0.0
H2125 H 0.38436 0.41723 0.93992 0.0
H2126 H 0.45638 0.58542 0.04519 0.0
H2127 H 0.37602 0.44127 0.90746 0.0
H2128 H 0.36794 0.66934 0.99322 0.0
N2129 N 0.415 0.58886 1.00773 0.0
C2130 C 0.40617 0.60865 1.01518 0.0
C2131 C 0.44198 0.5919 0.03711 0.0
C2132 C 0.41364 0.61994 0.03499 0.0
C2133 C 0.43407 0.5815 1.01717 0.0
C2134 C 0.43125 0.61081 0.04646 0.0
N2135 N 0.38767 0.6085 0.98101 0.0
C2136 C 0.37812 0.62009 0.96433 0.0
C2137 C 0.38467 0.64092 1.00643 0.0
C2138 C 0.39186 0.6189 1.00121 0.0
C2139 C 0.37367 0.65235 0.98992 0.0
C2140 C 0.3708 0.64204 0.96861 0.0
H2141 H 0.43757 0.61899 0.06174 0.0
H2142 H 0.40955 0.64948 0.05716 0.0
H2143 H 0.38404 0.6679 1.03204 0.0
O2144 O 0.42658 0.56715 0.95174 0.0
O2145 O 0.3642 0.57619 0.97222 0.0
O2146 O 0.35656 0.55045 0.99692 0.0
O2147 O 0.42028 0.60012 0.96539 0.0
O2148 O 0.37407 0.5696 0.94366 0.0
O2149 O 0.35264 0.53662 0.94528 0.0
O2150 O 0.33842 0.49697 0.98353 0.0
O2151 O 0.39879 0.51608 0.95908 0.0
O2152 O 0.41941 0.54 0.98068 0.0
O2153 O 0.33295 0.52549 0.9635 0.0
O2154 O 0.37028 0.52981 1.01553 0.0
O2155 O 0.39427 0.56178 1.01521 0.0
C2156 C 0.35147 0.5696 0.98889 0.0
C2157 C 0.45867 0.59396 0.95688 0.0
C2158 C 0.49168 0.62177 0.95866 0.0
C2159 C 0.50496 0.60358 0.96412 0.0
C2160 C 0.47275 0.57689 0.96302 0.0
C2161 C 0.49559 0.58169 0.96651 0.0
C2162 C 0.46823 0.61654 0.95488 0.0
C2163 C 0.35724 0.55537 0.93412 0.0
C2164 C 0.43404 0.58834 0.95312 0.0
C2165 C 0.40448 0.64075 0.04168 0.0
C2166 C 0.38998 0.65126 1.02736 0.0
C2167 C 0.41819 0.52034 0.96898 0.0
C2168 C 0.30431 0.51551 0.989 0.0
C2169 C 0.30278 0.51438 1.02848 0.0
C2170 C 0.28225 0.50186 1.02767 0.0
C2171 C 0.28313 0.5044 0.98735 0.0
C2172 C 0.30952 0.52617 1.0096 0.0
C2173 C 0.27079 0.50017 1.00739 0.0
C2174 C 0.38287 0.54556 1.02794 0.0
C2175 C 0.32334 0.50887 0.97429 0.0
H2176 H 0.52295 0.60593 0.96622 0.0
H2177 H 0.46614 0.5597 0.96507 0.0
H2178 H 0.50625 0.5682 0.97095 0.0
H2179 H 0.45732 0.6299 0.95064 0.0
H2180 H 0.2774 0.49039 0.04088 0.0
H2181 H 0.27728 0.49732 0.97142 0.0
H2182 H 0.32457 0.53626 1.01113 0.0
H2183 H 0.25414 0.49254 1.00688 0.0
Tb2184 Tb 0.50948 0.35522 0.94616 0.0
C2185 C 0.60346 0.40453 0.96786 0.0
N2186 N 0.58156 0.40955 0.96572 0.0
C2187 C 0.5861 0.43958 0.99388 0.0
C2188 C 0.61743 0.41646 0.98339 0.0
C2189 C 0.5732 0.42783 0.97764 0.0
C2190 C 0.60824 0.43363 0.99703 0.0
C2191 C 0.63565 0.38481 0.95257 0.0
C2192 C 0.6124 0.3891 0.95274 0.0
C2193 C 0.64948 0.39577 0.96863 0.0
C2194 C 0.64041 0.4118 0.98385 0.0
Tb2195 Tb 0.56082 0.38776 0.93997 0.0
N2196 N 0.59874 0.38016 0.93664 0.0
C2197 C 0.64456 0.37071 0.93547 0.0
C2198 C 0.60787 0.36762 0.91899 0.0
C2199 C 0.63064 0.36236 0.9184 0.0
H2200 H 0.55634 0.43318 0.97539 0.0
H2201 H 0.63749 0.35214 0.90454 0.0
H2202 H 0.52117 0.3764 0.89456 0.0
H2203 H 0.44035 0.37612 1.00326 0.0
H2204 H 0.59802 0.36179 0.9049 0.0
H2205 H 0.6623 0.36693 0.93478 0.0
H2206 H 0.47988 0.36706 0.99315 0.0
H2207 H 0.57903 0.45342 1.00377 0.0
H2208 H 0.66736 0.39271 0.96879 0.0
H2209 H 0.65146 0.42116 0.9953 0.0
H2210 H 0.49888 0.3883 0.86301 0.0
H2211 H 0.61835 0.44304 1.00932 0.0
H2212 H 0.41316 0.38066 0.97307 0.0
N2213 N 0.49255 0.37085 0.91658 0.0
C2214 C 0.46954 0.37137 0.91923 0.0
C2215 C 0.49046 0.38355 0.87873 0.0
C2216 C 0.45629 0.37886 0.90186 0.0
C2217 C 0.50309 0.3768 0.89669 0.0
C2218 C 0.46699 0.38442 0.88125 0.0
N2219 N 0.47435 0.36495 0.95796 0.0
C2220 C 0.46789 0.36849 0.98001 0.0
C2221 C 0.43772 0.37474 0.94592 0.0
C2222 C 0.46017 0.36895 0.94102 0.0
C2223 C 0.43032 0.37636 0.96859 0.0
C2224 C 0.44563 0.37382 0.98571 0.0
H2225 H 0.45741 0.39032 0.86749 0.0
H2226 H 0.42279 0.3882 0.89311 0.0
H2227 H 0.40662 0.38466 0.93162 0.0
O2228 O 0.48723 0.32979 0.95863 0.0
O2229 O 0.50041 0.39126 0.94364 0.0
O2230 O 0.53189 0.41104 0.95352 0.0
O2231 O 0.50506 0.32507 0.92693 0.0
O2232 O 0.5217 0.36566 0.98367 0.0
O2233 O 0.55627 0.38518 0.97934 0.0
O2234 O 0.58098 0.40792 0.91868 0.0
O2235 O 0.56482 0.35195 0.9386 0.0
O2236 O 0.53825 0.34573 0.96441 0.0
O2237 O 0.54453 0.40661 0.91607 0.0
O2238 O 0.55994 0.35732 0.91113 0.0
O2239 O 0.52548 0.33921 0.91346 0.0
C2240 C 0.5095 0.41069 0.95051 0.0
C2241 C 0.50178 0.29413 0.94952 0.0
C2242 C 0.51159 0.28315 0.98537 0.0
C2243 C 0.50302 0.2611 0.98095 0.0
C2244 C 0.4914 0.27295 0.94457 0.0
C2245 C 0.49443 0.25545 0.95949 0.0
C2246 C 0.51726 0.29558 0.9667 0.0
C2247 C 0.5398 0.37715 0.99372 0.0
C2248 C 0.49272 0.31531 0.94244 0.0
C2249 C 0.43327 0.38248 0.90626 0.0
C2250 C 0.42404 0.38052 0.92825 0.0
C2251 C 0.55675 0.33941 0.95449 0.0
C2252 C 0.56546 0.44193 0.9115 0.0
C2253 C 0.5893 0.47605 0.90637 0.0
C2254 C 0.57434 0.48821 0.92053 0.0
C2255 C 0.55033 0.45455 0.925 0.0
C2256 C 0.58486 0.45289 0.90206 0.0
C2257 C 0.55492 0.47751 0.92967 0.0
C2258 C 0.54561 0.34042 0.90256 0.0
C2259 C 0.56372 0.41703 0.91013 0.0
H2260 H 0.50227 0.24913 0.99418 0.0
H2261 H 0.48054 0.27031 0.9303 0.0
H2262 H 0.48828 0.23846 0.95534 0.0
H2263 H 0.5256 0.31124 0.97031 0.0
H2264 H 0.57778 0.50599 0.92464 0.0
H2265 H 0.53528 0.44674 0.93242 0.0
H2266 H 0.59675 0.44326 0.89176 0.0
H2267 H 0.54349 0.48698 0.9406 0.0
Tb2268 Tb 0.79502 0.57476 0.92872 0.0
C2269 C 0.78769 0.67072 0.90851 0.0
N2270 N 0.79993 0.65316 0.90055 0.0
C2271 C 0.79117 0.6618 0.86251 0.0
C2272 C 0.77538 0.68358 0.89393 0.0
C2273 C 0.80298 0.64947 0.87769 0.0
C2274 C 0.77698 0.67867 0.87068 0.0
C2275 C 0.77576 0.69427 0.94041 0.0
C2276 C 0.78821 0.67617 0.9313 0.0
C2277 C 0.76264 0.70654 0.92619 0.0
C2278 C 0.76249 0.70129 0.90296 0.0
Tb2279 Tb 0.8193 0.63442 0.92679 0.0
N2280 N 0.8017 0.66435 0.94434 0.0
C2281 C 0.77726 0.69979 0.96344 0.0
C2282 C 0.80433 0.67067 0.96651 0.0
C2283 C 0.79176 0.68805 0.9765 0.0
H2284 H 0.81395 0.63647 0.87126 0.0
H2285 H 0.7934 0.69252 0.99423 0.0
H2286 H 0.75143 0.58009 0.96522 0.0
H2287 H 0.84584 0.5035 0.90567 0.0
H2288 H 0.81616 0.66238 0.97658 0.0
H2289 H 0.76775 0.71344 0.97114 0.0
H2290 H 0.83473 0.5427 0.90474 0.0
H2291 H 0.79308 0.65833 0.84452 0.0
H2292 H 0.75315 0.72054 0.93297 0.0
H2293 H 0.75277 0.71131 0.89211 0.0
H2294 H 0.72886 0.55597 0.99103 0.0
H2295 H 0.7679 0.68825 0.85889 0.0
H2296 H 0.82651 0.47711 0.9322 0.0
N2297 N 0.77535 0.55504 0.95638 0.0
C2298 C 0.781 0.5333 0.95884 0.0
C2299 C 0.74345 0.54933 0.98205 0.0
C2300 C 0.76789 0.51858 0.97271 0.0
C2301 C 0.75636 0.56296 0.96731 0.0
C2302 C 0.74914 0.52696 0.98464 0.0
N2303 N 0.80955 0.53962 0.93115 0.0
C2304 C 0.82613 0.53184 0.91667 0.0
C2305 C 0.80433 0.50236 0.94645 0.0
C2306 C 0.79876 0.52529 0.94575 0.0
C2307 C 0.82169 0.49458 0.93211 0.0
C2308 C 0.83259 0.5094 0.91709 0.0
H2309 H 0.73873 0.51622 0.99559 0.0
H2310 H 0.76287 0.48394 0.98317 0.0
H2311 H 0.79564 0.47004 0.96136 0.0
O2312 O 0.77434 0.54859 0.9143 0.0
O2313 O 0.83145 0.58116 0.92935 0.0
O2314 O 0.83503 0.61374 0.95012 0.0
O2315 O 0.77465 0.58184 0.90128 0.0
O2316 O 0.82109 0.57796 0.89794 0.0
O2317 O 0.83707 0.61422 0.89779 0.0
O2318 O 0.83984 0.66408 0.93075 0.0
O2319 O 0.78917 0.62298 0.91041 0.0
O2320 O 0.77417 0.6042 0.93844 0.0
O2321 O 0.8479 0.63816 0.90577 0.0
O2322 O 0.80735 0.62413 0.9653 0.0
O2323 O 0.7949 0.58625 0.96644 0.0
C2324 C 0.84229 0.59389 0.9443 0.0
C2325 C 0.73914 0.5618 0.90538 0.0
C2326 C 0.70196 0.54382 0.89984 0.0
C2327 C 0.69241 0.55998 0.9148 0.0
C2328 C 0.7291 0.57683 0.92116 0.0
C2329 C 0.70598 0.57636 0.92542 0.0
C2330 C 0.72538 0.54482 0.89499 0.0
C2331 C 0.83589 0.59334 0.8882 0.0
C2332 C 0.764 0.56218 0.90185 0.0
C2333 C 0.77327 0.49573 0.97338 0.0
C2334 C 0.79173 0.48773 0.96067 0.0
C2335 C 0.77217 0.62035 0.92425 0.0
C2336 C 0.87764 0.65788 0.92106 0.0
C2337 C 0.8971 0.66103 0.95483 0.0
C2338 C 0.91549 0.67217 0.94371 0.0
C2339 C 0.89394 0.6717 0.90993 0.0
C2340 C 0.88256 0.64827 0.94132 0.0
C2341 C 0.91402 0.6774 0.92088 0.0
C2342 C 0.79833 0.60609 0.97789 0.0
C2343 C 0.85429 0.65735 0.91501 0.0
H2344 H 0.67449 0.55928 0.9191 0.0
H2345 H 0.73888 0.58868 0.9309 0.0
H2346 H 0.69868 0.58827 0.93754 0.0
H2347 H 0.73284 0.53221 0.88373 0.0
H2348 H 0.92996 0.67789 0.95292 0.0
H2349 H 0.89082 0.67858 0.89365 0.0
H2350 H 0.86963 0.63771 0.94954 0.0
H2351 H 0.92733 0.68742 0.91256 0.0
Tb2352 Tb 0.60667 0.35842 0.18229 0.0
C2353 C 0.50165 0.40218 0.18334 0.0
N2354 N 0.52347 0.40343 0.1757 0.0
C2355 C 0.51479 0.43466 0.15277 0.0
C2356 C 0.48579 0.41767 0.17694 0.0
C2357 C 0.53027 0.41994 0.16095 0.0
C2358 C 0.49247 0.43367 0.16096 0.0
C2359 C 0.47389 0.38502 0.20907 0.0
C2360 C 0.49567 0.38604 0.19879 0.0
C2361 C 0.45811 0.40077 0.20328 0.0
C2362 C 0.46408 0.41708 0.18724 0.0
Tb2363 Tb 0.54862 0.38405 0.19606 0.0
N2364 N 0.51201 0.37223 0.20483 0.0
C2365 C 0.46872 0.36818 0.22468 0.0
C2366 C 0.507 0.35581 0.22016 0.0
C2367 C 0.48529 0.35329 0.22999 0.0
H2368 H 0.54781 0.42244 0.15586 0.0
H2369 H 0.48154 0.3402 0.24207 0.0
H2370 H 0.61221 0.36247 0.23878 0.0
H2371 H 0.65398 0.39945 0.11429 0.0
H2372 H 0.51973 0.34482 0.2253 0.0
H2373 H 0.45207 0.36652 0.23266 0.0
H2374 H 0.62634 0.37195 0.13086 0.0
H2375 H 0.52035 0.44745 0.14092 0.0
H2376 H 0.44127 0.40037 0.21095 0.0
H2377 H 0.45182 0.42918 0.18294 0.0
H2378 H 0.63668 0.38297 0.26564 0.0
H2379 H 0.48071 0.44565 0.15527 0.0
H2380 H 0.67917 0.42267 0.1391 0.0
N2381 N 0.62768 0.37759 0.20956 0.0
C2382 C 0.6452 0.39108 0.20172 0.0
C2383 C 0.63915 0.38555 0.24771 0.0
C2384 C 0.65953 0.40335 0.21668 0.0
C2385 C 0.62521 0.37392 0.23229 0.0
C2386 C 0.65626 0.40049 0.2399 0.0
N2387 N 0.63364 0.38135 0.16477 0.0
C2388 C 0.63621 0.38289 0.14189 0.0
C2389 C 0.66484 0.40848 0.16985 0.0
C2390 C 0.64793 0.39339 0.1786 0.0
C2391 C 0.66666 0.41099 0.14647 0.0
C2392 C 0.65236 0.39803 0.13243 0.0
H2393 H 0.66694 0.40958 0.25193 0.0
H2394 H 0.68763 0.42784 0.21924 0.0
H2395 H 0.69209 0.43259 0.17824 0.0
O2396 O 0.63282 0.34067 0.16556 0.0
O2397 O 0.59971 0.38926 0.20031 0.0
O2398 O 0.5759 0.40517 0.17953 0.0
O2399 O 0.62033 0.33164 0.19868 0.0
O2400 O 0.5895 0.36744 0.14809 0.0
O2401 O 0.55342 0.38159 0.15597 0.0
O2402 O 0.52947 0.40231 0.22096 0.0
O2403 O 0.5497 0.34765 0.19379 0.0
O2404 O 0.57696 0.34149 0.1669 0.0
O2405 O 0.56452 0.40739 0.21923 0.0
O2406 O 0.559 0.35722 0.22253 0.0
O2407 O 0.59154 0.33873 0.21139 0.0
C2408 C 0.596 0.40617 0.18786 0.0
C2409 C 0.62187 0.30299 0.17277 0.0
C2410 C 0.59511 0.28365 0.14788 0.0
C2411 C 0.59562 0.26432 0.16133 0.0
C2412 C 0.62364 0.28339 0.18506 0.0
C2413 C 0.60992 0.26427 0.17975 0.0
C2414 C 0.60625 0.30333 0.15589 0.0
C2415 C 0.57008 0.37614 0.14026 0.0
C2416 C 0.63102 0.32485 0.18053 0.0
C2417 C 0.67651 0.4182 0.20801 0.0
C2418 C 0.67908 0.42086 0.18466 0.0
C2419 C 0.55696 0.33629 0.17602 0.0
C2420 C 0.54177 0.44027 0.2211 0.0
C2421 C 0.51712 0.47313 0.2207 0.0
C2422 C 0.52875 0.47939 0.20045 0.0
C2423 C 0.55406 0.44947 0.20277 0.0
C2424 C 0.52323 0.45256 0.23057 0.0
C2425 C 0.54747 0.46843 0.19236 0.0
C2426 C 0.57452 0.34126 0.2263 0.0
C2427 C 0.54575 0.41614 0.22624 0.0
H2428 H 0.58661 0.24872 0.15646 0.0
H2429 H 0.63469 0.28328 0.19926 0.0
H2430 H 0.61088 0.24916 0.18945 0.0
H2431 H 0.60448 0.31899 0.1474 0.0
H2432 H 0.52348 0.49289 0.19021 0.0
H2433 H 0.56778 0.44114 0.19481 0.0
H2434 H 0.51352 0.44591 0.24483 0.0
H2435 H 0.5564 0.47411 0.17721 0.0
Tb2436 Tb 0.79135 0.6233 0.17828 0.0
C2437 C 0.75532 0.53072 0.14519 0.0
N2438 N 0.74481 0.55036 0.15011 0.0
C2439 C 0.71996 0.5426 0.11938 0.0
C2440 C 0.74959 0.51701 0.12621 0.0
C2441 C 0.72583 0.55524 0.13885 0.0
C2442 C 0.73233 0.52377 0.11266 0.0
C2443 C 0.77778 0.50096 0.15874 0.0
C2444 C 0.76932 0.52285 0.16112 0.0
C2445 C 0.77403 0.48816 0.13875 0.0
C2446 C 0.76 0.49623 0.12243 0.0
Tb2447 Tb 0.75824 0.57106 0.18068 0.0
N2448 N 0.77182 0.53539 0.18047 0.0
C2449 C 0.78835 0.49206 0.1771 0.0
C2450 C 0.78052 0.52611 0.19905 0.0
C2451 C 0.78923 0.50449 0.19753 0.0
H2452 H 0.71639 0.56989 0.14404 0.0
H2453 H 0.79656 0.49743 0.2121 0.0
H2454 H 0.8049 0.63233 0.23253 0.0
H2455 H 0.72686 0.66178 0.13012 0.0
H2456 H 0.78103 0.53553 0.21495 0.0
H2457 H 0.79496 0.47524 0.17602 0.0
H2458 H 0.7495 0.63043 0.14095 0.0
H2459 H 0.70585 0.54729 0.10965 0.0
H2460 H 0.78081 0.47149 0.13635 0.0
H2461 H 0.75617 0.48561 0.1077 0.0
H2462 H 0.79854 0.66084 0.26231 0.0
H2463 H 0.72751 0.51378 0.09781 0.0
H2464 H 0.72428 0.69586 0.15517 0.0
N2465 N 0.78456 0.64754 0.20849 0.0
C2466 C 0.77229 0.66578 0.20425 0.0
C2467 C 0.7909 0.66236 0.24611 0.0
C2468 C 0.76803 0.68251 0.22119 0.0
C2469 C 0.79422 0.64592 0.22902 0.0
C2470 C 0.77774 0.68073 0.24221 0.0
N2471 N 0.76485 0.64861 0.16854 0.0
C2472 C 0.7507 0.646 0.15072 0.0
C2473 C 0.74685 0.68348 0.17952 0.0
C2474 C 0.762 0.66632 0.1836 0.0
C2475 C 0.73555 0.6827 0.15916 0.0
C2476 C 0.73705 0.66355 0.14494 0.0
H2477 H 0.77495 0.69328 0.25562 0.0
H2478 H 0.74984 0.71262 0.22996 0.0
H2479 H 0.73087 0.71322 0.19349 0.0
O2480 O 0.80983 0.65101 0.16485 0.0
O2481 O 0.7584 0.62193 0.19973 0.0
O2482 O 0.73645 0.60179 0.17678 0.0
O2483 O 0.82447 0.63056 0.18908 0.0
O2484 O 0.78548 0.61149 0.14064 0.0
O2485 O 0.76199 0.58012 0.14144 0.0
O2486 O 0.73403 0.57621 0.20747 0.0
O2487 O 0.79379 0.56631 0.18172 0.0
O2488 O 0.80363 0.5938 0.1583 0.0
O2489 O 0.737 0.54385 0.19068 0.0
O2490 O 0.78342 0.57729 0.21247 0.0
O2491 O 0.81016 0.60484 0.20366 0.0
C2492 C 0.73786 0.61945 0.1911 0.0
C2493 C 0.84769 0.64242 0.1591 0.0
C2494 C 0.85098 0.63973 0.11902 0.0
C2495 C 0.8728 0.64992 0.11997 0.0
C2496 C 0.86852 0.65426 0.1606 0.0
C2497 C 0.88217 0.65606 0.14094 0.0
C2498 C 0.84309 0.63034 0.13929 0.0
C2499 C 0.77293 0.596 0.12838 0.0
C2500 C 0.82839 0.64624 0.17459 0.0
C2501 C 0.75346 0.69989 0.217 0.0
C2502 C 0.74274 0.70029 0.19626 0.0
C2503 C 0.80712 0.57376 0.16585 0.0
C2504 C 0.70086 0.55083 0.20618 0.0
C2505 C 0.66839 0.52366 0.20267 0.0
C2506 C 0.65454 0.54001 0.21294 0.0
C2507 C 0.68647 0.56675 0.21623 0.0
C2508 C 0.69159 0.52928 0.19916 0.0
C2509 C 0.66348 0.56136 0.21946 0.0
C2510 C 0.80351 0.58897 0.21772 0.0
C2511 C 0.7257 0.55546 0.20558 0.0
H2512 H 0.88301 0.65207 0.10521 0.0
H2513 H 0.87384 0.66228 0.17632 0.0
H2514 H 0.89885 0.66417 0.14161 0.0
H2515 H 0.82858 0.61902 0.1396 0.0
H2516 H 0.63666 0.53628 0.21585 0.0
H2517 H 0.69305 0.58321 0.22206 0.0
H2518 H 0.70251 0.51657 0.19181 0.0
H2519 H 0.65256 0.57371 0.22739 0.0
Tb2520 Tb 0.60094 0.75703 0.20004 0.0
C2521 C 0.69307 0.76785 0.22187 0.0
N2522 N 0.6705 0.77109 0.22559 0.0
C2523 C 0.67369 0.7624 0.26455 0.0
C2524 C 0.70656 0.76107 0.23929 0.0
C2525 C 0.66081 0.76892 0.24669 0.0
C2526 C 0.69665 0.75858 0.26088 0.0
C2527 C 0.72361 0.76138 0.19442 0.0
C2528 C 0.70164 0.76835 0.19965 0.0
C2529 C 0.73774 0.75642 0.21202 0.0
C2530 C 0.72922 0.75622 0.2344 0.0
Tb2531 Tb 0.65393 0.78687 0.19597 0.0
N2532 N 0.68759 0.77372 0.18302 0.0
C2533 C 0.73017 0.75824 0.17166 0.0
C2534 C 0.69341 0.76972 0.16086 0.0
C2535 C 0.7147 0.76158 0.1549 0.0
H2536 H 0.64316 0.77191 0.24975 0.0
H2537 H 0.71929 0.7581 0.13736 0.0
H2538 H 0.60591 0.71079 0.16481 0.0
H2539 H 0.52522 0.80093 0.227 0.0
H2540 H 0.68186 0.77286 0.14776 0.0
H2541 H 0.74673 0.75224 0.16691 0.0
H2542 H 0.56532 0.7967 0.22173 0.0
H2543 H 0.6659 0.76038 0.28117 0.0
H2544 H 0.75493 0.75157 0.20838 0.0
H2545 H 0.74003 0.75135 0.24766 0.0
H2546 H 0.5821 0.68601 0.14178 0.0
H2547 H 0.70646 0.7533 0.27474 0.0
H2548 H 0.49819 0.77322 0.20965 0.0
N2549 N 0.5793 0.73161 0.17785 0.0
C2550 C 0.55661 0.73361 0.17861 0.0
C2551 C 0.57462 0.69934 0.15208 0.0
C2552 C 0.54204 0.71852 0.16643 0.0
C2553 C 0.58822 0.71393 0.16534 0.0
C2554 C 0.5514 0.70168 0.15253 0.0
N2555 N 0.56281 0.76564 0.2019 0.0
C2556 C 0.55456 0.78384 0.21409 0.0
C2557 C 0.52441 0.753 0.19419 0.0
C2558 C 0.54799 0.75089 0.19165 0.0
C2559 C 0.51617 0.77101 0.2073 0.0
C2560 C 0.53136 0.78665 0.21707 0.0
H2561 H 0.54084 0.6901 0.14255 0.0
H2562 H 0.50714 0.70865 0.16015 0.0
H2563 H 0.49169 0.73773 0.18616 0.0
O2564 O 0.58178 0.73863 0.22363 0.0
O2565 O 0.60174 0.79345 0.1969 0.0
O2566 O 0.63056 0.80088 0.17339 0.0
O2567 O 0.61807 0.74164 0.22596 0.0
O2568 O 0.60084 0.78766 0.22824 0.0
O2569 O 0.63569 0.80488 0.22616 0.0
O2570 O 0.68182 0.80859 0.1906 0.0
O2571 O 0.65781 0.74981 0.2038 0.0
O2572 O 0.62894 0.73427 0.18544 0.0
O2573 O 0.65495 0.81812 0.21386 0.0
O2574 O 0.64253 0.77968 0.15751 0.0
O2575 O 0.61233 0.75395 0.16141 0.0
C2576 C 0.6095 0.80372 0.17917 0.0
C2577 C 0.59817 0.70687 0.23551 0.0
C2578 C 0.57687 0.6742 0.25035 0.0
C2579 C 0.58729 0.66029 0.23376 0.0
C2580 C 0.60828 0.69267 0.21904 0.0
C2581 C 0.60297 0.6695 0.21828 0.0
C2582 C 0.58244 0.69749 0.25119 0.0
C2583 C 0.61528 0.80445 0.23656 0.0
C2584 C 0.59933 0.73155 0.2334 0.0
C2585 C 0.5186 0.72034 0.16899 0.0
C2586 C 0.50982 0.73702 0.18358 0.0
C2587 C 0.64962 0.73184 0.19288 0.0
C2588 C 0.67627 0.84781 0.19716 0.0
C2589 C 0.69719 0.8427 0.16327 0.0
C2590 C 0.71695 0.84862 0.17537 0.0
C2591 C 0.69408 0.85956 0.20777 0.0
C2592 C 0.67653 0.84874 0.17382 0.0
C2593 C 0.71524 0.8592 0.19682 0.0
C2594 C 0.62657 0.76558 0.14709 0.0
C2595 C 0.67412 0.82434 0.20454 0.0
H2596 H 0.58271 0.64237 0.2323 0.0
H2597 H 0.61939 0.69941 0.20606 0.0
H2598 H 0.61047 0.65879 0.20517 0.0
H2599 H 0.57373 0.70845 0.26331 0.0
H2600 H 0.7335 0.84445 0.16923 0.0
H2601 H 0.69305 0.86353 0.22573 0.0
H2602 H 0.66046 0.84482 0.16637 0.0
H2603 H 0.73025 0.86469 0.20571 0.0
Tb2604 Tb 0.35256 0.5211 0.23315 0.0
C2605 C 0.39435 0.62323 0.204 0.0
N2606 N 0.3973 0.60057 0.20377 0.0
C2607 C 0.42819 0.60523 0.17671 0.0
C2608 C 0.40903 0.63789 0.19158 0.0
C2609 C 0.41471 0.59164 0.19104 0.0
C2610 C 0.42531 0.62852 0.17693 0.0
C2611 C 0.37875 0.65535 0.22439 0.0
C2612 C 0.37849 0.63194 0.21911 0.0
C2613 C 0.39396 0.66997 0.21278 0.0
C2614 C 0.40835 0.66137 0.19567 0.0
Tb2615 Tb 0.37713 0.58075 0.23115 0.0
N2616 N 0.36525 0.61713 0.23122 0.0
C2617 C 0.36365 0.6634 0.24111 0.0
C2618 C 0.34979 0.62506 0.24689 0.0
C2619 C 0.34869 0.64821 0.25194 0.0
H2620 H 0.41814 0.57386 0.19173 0.0
H2621 H 0.33676 0.65423 0.26474 0.0
H2622 H 0.34315 0.51875 0.28925 0.0
H2623 H 0.42279 0.4843 0.18455 0.0
H2624 H 0.33865 0.61385 0.25637 0.0
H2625 H 0.36315 0.68131 0.24546 0.0
H2626 H 0.3922 0.50967 0.19093 0.0
H2627 H 0.44142 0.59787 0.16622 0.0
H2628 H 0.39433 0.68803 0.21652 0.0
H2629 H 0.41966 0.67292 0.18652 0.0
H2630 H 0.3501 0.49311 0.31914 0.0
H2631 H 0.43655 0.6392 0.1667 0.0
H2632 H 0.42951 0.45477 0.21175 0.0
N2633 N 0.36176 0.50049 0.2635 0.0
C2634 C 0.37423 0.48212 0.25898 0.0
C2635 C 0.35695 0.48972 0.30228 0.0
C2636 C 0.37883 0.46696 0.27608 0.0
C2637 C 0.35317 0.50445 0.28496 0.0
C2638 C 0.36953 0.47068 0.29776 0.0
N2639 N 0.37983 0.49528 0.222 0.0
C2640 C 0.39382 0.49696 0.20313 0.0
C2641 C 0.40212 0.46468 0.23443 0.0
C2642 C 0.38469 0.48019 0.23794 0.0
C2643 C 0.41577 0.46608 0.21488 0.0
C2644 C 0.41192 0.48265 0.19948 0.0
H2645 H 0.37265 0.45944 0.3113 0.0
H2646 H 0.39704 0.4374 0.28416 0.0
H2647 H 0.41824 0.43592 0.24785 0.0
O2648 O 0.33192 0.49204 0.22999 0.0
O2649 O 0.38199 0.53098 0.25242 0.0
O2650 O 0.39736 0.55021 0.22408 0.0
O2651 O 0.31908 0.5214 0.24632 0.0
O2652 O 0.36118 0.53047 0.19325 0.0
O2653 O 0.37661 0.56765 0.19323 0.0
O2654 O 0.39467 0.57348 0.26085 0.0
O2655 O 0.34047 0.57905 0.22785 0.0
O2656 O 0.34163 0.54504 0.21112 0.0
O2657 O 0.39918 0.60537 0.24587 0.0
O2658 O 0.35046 0.5778 0.26052 0.0
O2659 O 0.3352 0.54152 0.26054 0.0
C2660 C 0.39998 0.53562 0.24002 0.0
C2661 C 0.29406 0.50042 0.2242 0.0
C2662 C 0.2934 0.49497 0.18462 0.0
C2663 C 0.27363 0.48095 0.18664 0.0
C2664 C 0.27597 0.48467 0.22741 0.0
C2665 C 0.26449 0.47621 0.20833 0.0
C2666 C 0.29761 0.50949 0.20294 0.0
C2667 C 0.37121 0.54843 0.18085 0.0
C2668 C 0.31384 0.50129 0.23852 0.0
C2669 C 0.39366 0.44944 0.27141 0.0
C2670 C 0.4057 0.4486 0.25076 0.0
C2671 C 0.3298 0.56173 0.21811 0.0
C2672 C 0.43156 0.59129 0.25933 0.0
C2673 C 0.46869 0.60752 0.2688 0.0
C2674 C 0.47842 0.59453 0.25103 0.0
C2675 C 0.44166 0.58021 0.24068 0.0
C2676 C 0.44518 0.60554 0.27324 0.0
C2677 C 0.46486 0.58133 0.23682 0.0
C2678 C 0.33578 0.56225 0.26944 0.0
C2679 C 0.40675 0.5923 0.26049 0.0
H2680 H 0.26726 0.47154 0.1721 0.0
H2681 H 0.27211 0.4777 0.24383 0.0
H2682 H 0.25048 0.46402 0.21025 0.0
H2683 H 0.3124 0.5201 0.20125 0.0
H2684 H 0.4963 0.5963 0.24675 0.0
H2685 H 0.43141 0.57213 0.22812 0.0
H2686 H 0.43745 0.61618 0.28628 0.0
H2687 H 0.47219 0.57338 0.22184 0.0
Tb2688 Tb 0.97349 0.58231 0.73226 0.0
C2689 C 0.94031 0.49923 0.74581 0.0
N2690 N 0.94448 0.52213 0.74614 0.0
C2691 C 0.90682 0.5271 0.73368 0.0
C2692 C 0.919 0.48957 0.74017 0.0
C2693 C 0.92806 0.53593 0.73974 0.0
C2694 C 0.90213 0.50385 0.7342 0.0
C2695 C 0.95482 0.46158 0.74834 0.0
C2696 C 0.95809 0.48521 0.74946 0.0
C2697 C 0.93309 0.45206 0.74497 0.0
C2698 C 0.91534 0.46596 0.74033 0.0
Tb2699 Tb 0.97823 0.53193 0.76289 0.0
N2700 N 0.97901 0.49489 0.75237 0.0
C2701 C 0.97365 0.44828 0.74994 0.0
C2702 C 0.99776 0.48217 0.75129 0.0
C2703 C 0.99528 0.45859 0.7499 0.0
H2704 H 0.93056 0.55375 0.73986 0.0
H2705 H 1.0099 0.44831 0.74914 0.0
H2706 H 1.00808 0.57961 0.68715 0.0
H2707 H 0.94242 0.65888 0.77358 0.0
H2708 H 1.0144 0.49023 0.75257 0.0
H2709 H 0.97181 0.42998 0.74999 0.0
H2710 H 0.93946 0.61965 0.75898 0.0
H2711 H 0.89392 0.53834 0.72897 0.0
H2712 H 0.93 0.43395 0.74536 0.0
H2713 H 0.89893 0.45826 0.7366 0.0
H2714 H 0.04026 0.60261 0.6709 0.0
H2715 H 0.88557 0.49709 0.72966 0.0
H2716 H 0.97688 0.6826 0.76545 0.0
N2717 N 1.00193 0.60312 0.7143 0.0
C2718 C 1.00636 0.6244 0.72282 0.0
C2719 C 1.03098 0.60883 0.68568 0.0
C2720 C 1.02424 0.63825 0.71405 0.0
C2721 C 1.01274 0.59593 0.69478 0.0
C2722 C 0.03712 0.62984 0.69571 0.0
N2723 N 0.97277 0.62 0.74396 0.0
C2724 C 0.955 0.62933 0.75589 0.0
C2725 C 0.99336 0.65602 0.746 0.0
C2726 C 0.99118 0.63318 0.73842 0.0
C2727 C 0.9759 0.66512 0.75939 0.0
C2728 C 0.95643 0.65181 0.76397 0.0
H2729 H 0.05106 0.6399 0.68847 0.0
H2730 H 0.04157 0.67125 0.71662 0.0
H2731 H 1.01444 0.68682 0.74475 0.0
O2732 O 0.94859 0.57016 0.70957 0.0
O2733 O 0.97249 0.5881 0.76771 0.0
O2734 O 0.99741 0.56265 0.7744 0.0
O2735 O 0.95595 0.60573 0.71514 0.0
O2736 O 0.94623 0.58108 0.76352 0.0
O2737 O 0.94785 0.54774 0.7817 0.0
O2738 O 0.9947 0.51221 0.78568 0.0
O2739 O 0.98118 0.51869 0.7275 0.0
O2740 O 0.97457 0.55044 0.70784 0.0
O2741 O 0.9608 0.52212 0.79256 0.0
O2742 O 1.01574 0.54208 0.75078 0.0
O2743 O 1.01278 0.57592 0.73314 0.0
C2744 C 0.98937 0.58262 0.77883 0.0
C2745 C 0.94135 0.59547 0.68012 0.0
C2746 C 0.93638 0.62354 0.65178 0.0
C2747 C 0.93297 0.60616 0.63548 0.0
C2748 C 0.93798 0.57812 0.6637 0.0
C2749 C 0.93386 0.58352 0.64144 0.0
C2750 C 0.94052 0.61818 0.67397 0.0
C2751 C 0.9377 0.56731 0.78036 0.0
C2752 C 0.94404 0.59061 0.70401 0.0
C2753 C 1.0277 0.66045 0.72288 0.0
C2754 C 1.01225 0.66934 0.73888 0.0
C2755 C 0.97726 0.52781 0.70816 0.0
C2756 C 0.98501 0.52686 0.82164 0.0
C2757 C 1.01316 0.55117 0.83985 0.0
C2758 C 0.99984 0.55035 0.86005 0.0
C2759 C 0.97126 0.52693 0.84122 0.0
C2760 C 1.00436 0.54077 0.82068 0.0
C2761 C 0.97856 0.53914 0.86038 0.0
C2762 C 1.02663 0.55968 0.73982 0.0
C2763 C 0.97869 0.51458 0.80102 0.0
H2764 H 0.92981 0.61012 0.61817 0.0
H2765 H 0.9383 0.56049 0.66807 0.0
H2766 H 0.93126 0.57012 0.62881 0.0
H2767 H 0.9428 0.63182 0.68648 0.0
H2768 H 1.00559 0.55722 0.87585 0.0
H2769 H 0.95522 0.51748 0.8417 0.0
H2770 H 1.01433 0.54102 0.80528 0.0
H2771 H 0.96836 0.53881 0.87586 0.0
Tb2772 Tb 0.56065 0.94598 0.78846 0.0
C2773 C 0.66193 0.97185 0.75194 0.0
N2774 N 0.64093 0.96893 0.74384 0.0
C2775 C 0.65026 0.99633 0.71551 0.0
C2776 C 0.67768 0.98781 0.74283 0.0
C2777 C 0.63527 0.98023 0.72513 0.0
C2778 C 0.67146 1.00045 0.72466 0.0
C2779 C 0.69055 0.95797 0.77541 0.0
C2780 C 0.6682 0.95728 0.76794 0.0
C2781 C 0.70593 0.97489 0.76768 0.0
C2782 C 0.69939 0.98993 0.75148 0.0
Tb2783 Tb 0.61687 0.94322 0.76157 0.0
N2784 N 0.65286 0.94107 0.77459 0.0
C2785 C 0.69697 0.94114 0.78966 0.0
C2786 C 0.65954 0.92375 0.78736 0.0
C2787 C 0.68146 0.92372 0.79533 0.0
H2788 H 0.61882 0.97761 0.71808 0.0
H2789 H 0.68644 0.91008 0.80562 0.0
H2790 H 0.57276 0.89068 0.77736 0.0
H2791 H 0.51344 0.99031 0.72965 0.0
H2792 H 0.64834 0.90962 0.79138 0.0
H2793 H 0.71404 0.94095 0.79563 0.0
H2794 H 0.54108 0.98751 0.75847 0.0
H2795 H 0.64541 1.00561 0.70111 0.0
H2796 H 0.72302 0.97601 0.77364 0.0
H2797 H 0.71125 1.00276 0.74517 0.0
H2798 H 0.55174 0.85622 0.76572 0.0
H2799 H 0.68315 1.01281 0.7171 0.0
H2800 H 0.48356 0.96031 0.7244 0.0
N2801 N 0.54578 0.91266 0.77282 0.0
C2802 C 0.52433 0.91409 0.76539 0.0
C2803 C 0.54374 0.87234 0.7658 0.0
C2804 C 0.51214 0.89466 0.75725 0.0
C2805 C 0.55558 0.89208 0.77288 0.0
C2806 C 0.52181 0.87357 0.75828 0.0
N2807 N 0.53067 0.95381 0.76714 0.0
C2808 C 0.52923 0.97351 0.756 0.0
C2809 C 0.49845 0.93782 0.74734 0.0
C2810 C 0.51684 0.93559 0.76157 0.0
C2811 C 0.49644 0.95833 0.73667 0.0
C2812 C 0.513 0.97547 0.73972 0.0
H2813 H 0.51301 0.85829 0.75211 0.0
H2814 H 0.48202 0.88232 0.74028 0.0
H2815 H 0.47058 0.92015 0.73068 0.0
O2816 O 0.53348 0.95728 0.80875 0.0
O2817 O 0.56346 0.93305 0.75322 0.0
O2818 O 0.58943 0.95806 0.74227 0.0
O2819 O 0.55088 0.92792 0.81737 0.0
O2820 O 0.57219 0.98447 0.77996 0.0
O2821 O 0.60727 0.98148 0.76135 0.0
O2822 O 0.60298 0.91578 0.74189 0.0
O2823 O 0.61954 0.94861 0.79737 0.0
O2824 O 0.58775 0.96815 0.80129 0.0
O2825 O 0.63802 0.92634 0.73816 0.0
O2826 O 0.61039 0.91446 0.78853 0.0
O2827 O 0.57823 0.92127 0.80945 0.0
C2828 C 0.5704 0.94697 0.73779 0.0
C2829 C 0.54214 0.95252 0.84699 0.0
C2830 C 0.54927 0.99021 0.8603 0.0
C2831 C 0.53876 0.98524 0.88128 0.0
C2832 C 0.52991 0.94706 0.86683 0.0
C2833 C 0.53015 0.96296 0.885 0.0
C2834 C 0.55651 0.97168 0.84742 0.0
C2835 C 0.59014 0.99501 0.76837 0.0
C2836 C 0.53677 0.94279 0.82452 0.0
C2837 C 0.4917 0.89706 0.74646 0.0
C2838 C 0.48503 0.91864 0.74118 0.0
C2839 C 0.6082 0.96441 0.80747 0.0
C2840 C 0.62018 0.91603 0.70471 0.0
C2841 C 0.63576 0.90856 0.66641 0.0
C2842 C 0.62369 0.92694 0.65901 0.0
C2843 C 0.60865 0.9339 0.69621 0.0
C2844 C 0.63364 0.90305 0.68957 0.0
C2845 C 0.60997 0.93908 0.67369 0.0
C2846 C 0.59641 0.9092 0.80654 0.0
C2847 C 0.62158 0.91406 0.72952 0.0
H2848 H 0.53434 0.99881 0.89308 0.0
H2849 H 0.5194 0.93168 0.86774 0.0
H2850 H 0.52083 0.95919 0.90053 0.0
H2851 H 0.56481 0.97513 0.83175 0.0
H2852 H 0.6256 0.93316 0.64209 0.0
H2853 H 0.59987 0.94519 0.70692 0.0
H2854 H 0.64306 0.88955 0.69612 0.0
H2855 H 0.60133 0.95348 0.66786 0.0
Tb2856 Tb 0.22796 0.54615 0.77304 0.0
C2857 C 0.25368 0.6367 0.79613 0.0
N2858 N 0.25326 0.61353 0.79578 0.0
C2859 C 0.29391 0.6148 0.79225 0.0
C2860 C 0.27421 0.64962 0.79441 0.0
C2861 C 0.2732 0.60265 0.79322 0.0
C2862 C 0.29446 0.63836 0.79324 0.0
C2863 C 0.23332 0.67012 0.788 0.0
C2864 C 0.23338 0.64709 0.79372 0.0
C2865 C 0.25344 0.68341 0.78866 0.0
C2866 C 0.27388 0.67317 0.792 0.0
Tb2867 Tb 0.2175 0.59728 0.80323 0.0
N2868 N 0.21472 0.6333 0.79109 0.0
C2869 C 0.21401 0.67805 0.77834 0.0
C2870 C 0.19864 0.63973 0.77715 0.0
C2871 C 0.19712 0.66237 0.7716 0.0
H2872 H 0.27364 0.58468 0.79155 0.0
H2873 H 0.1842 0.66725 0.76046 0.0
H2874 H 0.20898 0.54666 0.72086 0.0
H2875 H 0.24374 0.47363 0.82381 0.0
H2876 H 0.19029 0.62707 0.76709 0.0
H2877 H 0.21346 0.6954 0.77308 0.0
H2878 H 0.24934 0.51241 0.81173 0.0
H2879 H 0.30948 0.6059 0.79041 0.0
H2880 H 0.25368 0.70117 0.78461 0.0
H2881 H 0.28949 0.68332 0.79085 0.0
H2882 H 0.18475 0.52222 0.69652 0.0
H2883 H 0.31055 0.64766 0.79183 0.0
H2884 H 0.21807 0.44676 0.80331 0.0
N2885 N 0.21029 0.52255 0.74674 0.0
C2886 C 0.20541 0.50087 0.75239 0.0
C2887 C 0.19037 0.51599 0.71228 0.0
C2888 C 0.19172 0.48617 0.73898 0.0
C2889 C 0.20414 0.52982 0.72619 0.0
C2890 C 0.18374 0.49419 0.71892 0.0
N2891 N 0.22689 0.50874 0.78409 0.0
C2892 C 0.23817 0.50136 0.80216 0.0
C2893 C 0.21015 0.47107 0.77849 0.0
C2894 C 0.21421 0.49361 0.77182 0.0
C2895 C 0.22063 0.46395 0.79764 0.0
C2896 C 0.23507 0.47907 0.80925 0.0
H2897 H 0.17295 0.48355 0.70823 0.0
H2898 H 0.17584 0.45251 0.73615 0.0
H2899 H 0.19229 0.43916 0.77076 0.0
O2900 O 0.25636 0.56482 0.76094 0.0
O2901 O 0.21678 0.54201 0.80778 0.0
O2902 O 0.1928 0.56913 0.80715 0.0
O2903 O 0.25257 0.52855 0.7546 0.0
O2904 O 0.25292 0.55022 0.80458 0.0
O2905 O 0.24361 0.58152 0.82553 0.0
O2906 O 0.20226 0.62176 0.8245 0.0
O2907 O 0.2327 0.60399 0.76974 0.0
O2908 O 0.21719 0.57456 0.75054 0.0
O2909 O 0.22443 0.59762 0.83759 0.0
O2910 O 0.18265 0.58571 0.784 0.0
O2911 O 0.19009 0.55249 0.76422 0.0
C2912 C 0.19713 0.54905 0.8137 0.0
C2913 C 0.26927 0.54952 0.72558 0.0
C2914 C 0.28439 0.53299 0.6908 0.0
C2915 C 0.27402 0.54934 0.67845 0.0
C2916 C 0.25982 0.56632 0.71312 0.0
C2917 C 0.2618 0.56604 0.68966 0.0
C2918 C 0.28178 0.53293 0.71429 0.0
C2919 C 0.25666 0.56366 0.82364 0.0
C2920 C 0.26402 0.54718 0.74975 0.0
C2921 C 0.18661 0.46401 0.74601 0.0
C2922 C 0.19593 0.45642 0.76571 0.0
C2923 C 0.22414 0.59628 0.75093 0.0
C2924 C 0.1932 0.60602 0.85952 0.0
C2925 C 0.15382 0.60454 0.85725 0.0
C2926 C 0.15196 0.61354 0.8796 0.0
C2927 C 0.19253 0.61505 0.88156 0.0
C2928 C 0.17398 0.59487 0.85152 0.0
C2929 C 0.17141 0.61582 0.89274 0.0
C2930 C 0.1747 0.5685 0.76929 0.0
C2931 C 0.21011 0.61309 0.84264 0.0
H2932 H 0.27499 0.54883 0.66015 0.0
H2933 H 0.25075 0.57947 0.72137 0.0
H2934 H 0.25369 0.57862 0.6802 0.0
H2935 H 0.2888 0.51954 0.72365 0.0
H2936 H 0.13686 0.62063 0.88633 0.0
H2937 H 0.20754 0.62231 0.88938 0.0
H2938 H 0.17482 0.58485 0.83646 0.0
H2939 H 0.17025 0.62137 0.91027 0.0
Tb2940 Tb 0.62028 0.19039 0.7805 0.0
C2941 C 0.53453 0.16211 0.73266 0.0
N2942 N 0.55618 0.16853 0.72692 0.0
C2943 C 0.55626 0.14028 0.69688 0.0
C2944 C 0.52343 0.14344 0.72186 0.0
C2945 C 0.56639 0.15918 0.70795 0.0
C2946 C 0.53492 0.13201 0.70425 0.0
C2947 C 0.49983 0.17115 0.75291 0.0
C2948 C 0.52294 0.17573 0.74783 0.0
C2949 C 0.4891 0.15152 0.74368 0.0
C2950 C 0.5009 0.13766 0.72814 0.0
Tb2951 Tb 0.57216 0.1982 0.74785 0.0
N2952 N 0.53382 0.19481 0.75572 0.0
C2953 C 0.488 0.18699 0.76615 0.0
C2954 C 0.522 0.21089 0.76777 0.0
C2955 C 0.49905 0.20716 0.77324 0.0
H2956 H 0.58295 0.16545 0.70236 0.0
H2957 H 0.48994 0.21981 0.783 0.0
H2958 H 0.59865 0.23824 0.75771 0.0
H2959 H 0.70301 0.15743 0.76353 0.0
H2960 H 0.53031 0.22662 0.77326 0.0
H2961 H 0.47021 0.18416 0.77038 0.0
H2962 H 0.66258 0.1553 0.77553 0.0
H2963 H 0.56488 0.13213 0.68267 0.0
H2964 H 0.47145 0.14748 0.74765 0.0
H2965 H 0.49215 0.12314 0.72032 0.0
H2966 H 0.61258 0.27275 0.74135 0.0
H2967 H 0.52703 0.11752 0.69553 0.0
H2968 H 0.72072 0.19301 0.75081 0.0
N2969 N 0.63024 0.22387 0.76195 0.0
C2970 C 0.65283 0.22707 0.7573 0.0
C2971 C 0.62425 0.2602 0.74598 0.0
C2972 C 0.6618 0.24696 0.74701 0.0
C2973 C 0.61618 0.24022 0.75587 0.0
C2974 C 0.6472 0.26373 0.74173 0.0
N2975 N 0.65754 0.18999 0.76915 0.0
C2976 C 0.67023 0.17125 0.77022 0.0
C2977 C 0.68995 0.21133 0.75433 0.0
C2978 C 0.66691 0.20958 0.76105 0.0
C2979 C 0.70306 0.19244 0.75601 0.0
C2980 C 0.69306 0.17224 0.76349 0.0
H2981 H 0.65339 0.27913 0.73376 0.0
H2982 H 0.69201 0.26438 0.73372 0.0
H2983 H 0.71669 0.23306 0.74009 0.0
O2984 O 0.63405 0.16831 0.80269 0.0
O2985 O 0.63259 0.1803 0.74563 0.0
O2986 O 0.6059 0.19739 0.72599 0.0
O2987 O 0.63626 0.20366 0.80979 0.0
O2988 O 0.6117 0.15394 0.76617 0.0
O2989 O 0.57779 0.1587 0.7496 0.0
O2990 O 0.58379 0.22318 0.7251 0.0
O2991 O 0.56338 0.19983 0.78271 0.0
O2992 O 0.58728 0.17406 0.79158 0.0
O2993 O 0.54858 0.21462 0.7292 0.0
O2994 O 0.5714 0.22584 0.78026 0.0
O2995 O 0.60398 0.22138 0.79938 0.0
C2996 C 0.6264 0.18806 0.72625 0.0
C2997 C 0.62812 0.17957 0.84041 0.0
C2998 C 0.60559 0.15036 0.85941 0.0
C2999 C 0.59414 0.16698 0.87213 0.0
C3000 C 0.61669 0.1963 0.85309 0.0
C3001 C 0.60042 0.18992 0.86964 0.0
C3002 C 0.62447 0.15697 0.84605 0.0
C3003 C 0.59389 0.14424 0.7552 0.0
C3004 C 0.63858 0.18388 0.81791 0.0
C3005 C 0.68494 0.2492 0.74149 0.0
C3006 C 0.69899 0.2314 0.74511 0.0
C3007 C 0.56726 0.18267 0.79434 0.0
C3008 C 0.56092 0.22528 0.69295 0.0
C3009 C 0.53669 0.22333 0.66039 0.0
C3010 C 0.5559 0.22401 0.64598 0.0
C3011 C 0.57985 0.22701 0.67819 0.0
C3012 C 0.53917 0.2237 0.68388 0.0
C3013 C 0.57738 0.22582 0.65487 0.0
C3014 C 0.58501 0.23318 0.79805 0.0
C3015 C 0.56371 0.22606 0.71767 0.0
H3016 H 0.57918 0.1624 0.88219 0.0
H3017 H 0.61934 0.21404 0.84939 0.0
H3018 H 0.5912 0.2028 0.87894 0.0
H3019 H 0.63262 0.14413 0.8356 0.0
H3020 H 0.55421 0.22389 0.62782 0.0
H3021 H 0.59652 0.2298 0.68473 0.0
H3022 H 0.52426 0.22338 0.69497 0.0
H3023 H 0.59213 0.22692 0.64366 0.0
Tb3024 Tb 0.95106 0.54765 0.33599 0.0
C3025 C 0.96593 0.64604 0.37927 0.0
N3026 N 0.96208 0.62484 0.38672 0.0
C3027 C 0.98537 0.63407 0.41849 0.0
C3028 C 0.9808 0.66174 0.39012 0.0
C3029 C 0.97053 0.61911 0.40691 0.0
C3030 C 0.99112 0.65524 0.40964 0.0
C3031 C 0.95482 0.6749 0.35455 0.0
C3032 C 0.95317 0.65248 0.36203 0.0
C3033 C 0.9708 0.69031 0.36403 0.0
C3034 C 0.98391 0.68368 0.38177 0.0
Tb3035 Tb 0.94131 0.59993 0.36406 0.0
N3036 N 0.93819 0.63692 0.35343 0.0
C3037 C 0.93995 0.68123 0.33829 0.0
C3038 C 0.92231 0.64368 0.33903 0.0
C3039 C 0.92322 0.66569 0.33096 0.0
H3040 H 0.96685 0.60259 0.4136 0.0
H3041 H 0.91087 0.67067 0.31921 0.0
H3042 H 0.89392 0.5525 0.34712 0.0
H3043 H 0.99447 0.49393 0.39085 0.0
H3044 H 0.9086 0.63256 0.33366 0.0
H3045 H 0.94062 0.69827 0.33203 0.0
H3046 H 0.99044 0.5275 0.36874 0.0
H3047 H 0.99268 0.62909 0.43398 0.0
H3048 H 0.97271 0.70749 0.35819 0.0
H3049 H 0.99566 0.69589 0.3895 0.0
H3050 H 0.86139 0.52618 0.35067 0.0
H3051 H 1.00272 0.66675 0.4185 0.0
H3052 H 0.96832 0.46086 0.38626 0.0
N3053 N 0.91839 0.52684 0.34518 0.0
C3054 C 0.92176 0.50457 0.3488 0.0
C3055 C 0.87824 0.51979 0.34965 0.0
C3056 C 0.90332 0.48907 0.35252 0.0
C3057 C 0.89692 0.5347 0.34697 0.0
C3058 C 0.88141 0.49677 0.3518 0.0
N3059 N 0.96039 0.51499 0.35271 0.0
C3060 C 0.9782 0.51376 0.36667 0.0
C3061 C 0.94655 0.47798 0.36433 0.0
C3062 C 0.94352 0.49858 0.35356 0.0
C3063 C 0.96586 0.47591 0.37681 0.0
C3064 C 0.98073 0.49455 0.37941 0.0
H3065 H 0.86686 0.4854 0.35468 0.0
H3066 H 0.89326 0.45489 0.36183 0.0
H3067 H 0.93107 0.44546 0.37305 0.0
O3068 O 0.96145 0.52225 0.31326 0.0
O3069 O 0.93633 0.54352 0.3704 0.0
O3070 O 0.95537 0.57281 0.38542 0.0
O3071 O 0.94704 0.55291 0.30171 0.0
O3072 O 0.98684 0.56043 0.35021 0.0
O3073 O 0.9796 0.59433 0.36915 0.0
O3074 O 0.91344 0.58068 0.37699 0.0
O3075 O 0.95004 0.6033 0.32855 0.0
O3076 O 0.97425 0.57518 0.32672 0.0
O3077 O 0.91861 0.61632 0.38603 0.0
O3078 O 0.91653 0.59539 0.33331 0.0
O3079 O 0.92124 0.5604 0.31736 0.0
C3080 C 0.9471 0.55181 0.38769 0.0
C3081 C 0.94186 0.5206 0.27856 0.0
C3082 C 0.96057 0.49228 0.25934 0.0
C3083 C 0.94124 0.47749 0.25963 0.0
C3084 C 0.92369 0.50555 0.2843 0.0
C3085 C 0.92239 0.48424 0.27296 0.0
C3086 C 0.95501 0.51496 0.25944 0.0
C3087 C 0.99474 0.57839 0.36344 0.0
C3088 C 0.95446 0.5332 0.29604 0.0
C3089 C 0.9072 0.46706 0.35922 0.0
C3090 C 0.92879 0.4616 0.36545 0.0
C3091 C 0.96826 0.59468 0.31989 0.0
C3092 C 0.90311 0.59334 0.41419 0.0
C3093 C 0.8821 0.60135 0.44905 0.0
C3094 C 0.89781 0.58969 0.46107 0.0
C3095 C 0.91952 0.58351 0.42681 0.0
C3096 C 0.88441 0.60252 0.4255 0.0
C3097 C 0.91652 0.58084 0.44991 0.0
C3098 C 0.90994 0.57934 0.31765 0.0
C3099 C 0.90701 0.5976 0.3901 0.0
H3100 H 0.94259 0.45982 0.25462 0.0
H3101 H 0.91229 0.50923 0.29844 0.0
H3102 H 0.90862 0.47223 0.27668 0.0
H3103 H 0.96774 0.52738 0.25375 0.0
H3104 H 0.89671 0.58921 0.47934 0.0
H3105 H 0.93529 0.57921 0.4194 0.0
H3106 H 0.87269 0.61207 0.4163 0.0
H3107 H 0.92943 0.57324 0.45934 0.0
Tb3108 Tb 0.58688 0.94985 0.38818 0.0
C3109 C 0.50236 0.92054 0.37536 0.0
N3110 N 0.52555 0.92149 0.37459 0.0
C3111 C 0.52531 0.88301 0.38669 0.0
C3112 C 0.49004 0.90127 0.38319 0.0
C3113 C 0.53685 0.90252 0.37906 0.0
C3114 C 0.50184 0.88242 0.38891 0.0
C3115 C 0.46742 0.94059 0.37385 0.0
C3116 C 0.49088 0.93971 0.36975 0.0
C3117 C 0.45513 0.92115 0.3809 0.0
C3118 C 0.46639 0.9015 0.38538 0.0
Tb3119 Tb 0.54018 0.95244 0.35581 0.0
N3120 N 0.50336 0.95866 0.36399 0.0
C3121 C 0.45734 0.96148 0.37265 0.0
C3122 C 0.49415 0.97935 0.36524 0.0
C3123 C 0.47089 0.98103 0.36918 0.0
H3124 H 0.55475 0.90183 0.37642 0.0
H3125 H 0.46344 0.99732 0.37039 0.0
H3126 H 0.58122 0.98657 0.43254 0.0
H3127 H 0.66553 0.91565 0.35655 0.0
H3128 H 0.505 0.99436 0.36478 0.0
H3129 H 0.4394 0.96296 0.37607 0.0
H3130 H 0.62586 0.91308 0.36957 0.0
H3131 H 0.53455 0.86826 0.39046 0.0
H3132 H 0.43702 0.92142 0.38385 0.0
H3133 H 0.4567 0.88679 0.39129 0.0
H3134 H 0.60254 1.02016 0.44758 0.0
H3135 H 0.49299 0.86725 0.39489 0.0
H3136 H 0.6884 0.95115 0.36291 0.0
N3137 N 0.60684 0.97789 0.40808 0.0
C3138 C 0.62838 0.98225 0.40073 0.0
C3139 C 0.60999 1.00966 0.43428 0.0
C3140 C 0.64122 1.00123 0.40867 0.0
C3141 C 0.59804 0.99041 0.42588 0.0
C3142 C 0.63146 1.01544 0.42522 0.0
N3143 N 0.62531 0.94739 0.38208 0.0
C3144 C 0.63524 0.92894 0.37205 0.0
C3145 C 0.66101 0.96841 0.38018 0.0
C3146 C 0.63804 0.96625 0.38692 0.0
C3147 C 0.6708 0.95022 0.36845 0.0
C3148 C 0.65796 0.93017 0.36485 0.0
H3149 H 0.64067 1.03031 0.43175 0.0
H3150 H 0.67368 1.01947 0.40597 0.0
H3151 H 0.69107 0.99056 0.38081 0.0
O3152 O 0.56673 0.92619 0.40601 0.0
O3153 O 0.59481 0.94951 0.35287 0.0
O3154 O 0.56962 0.97345 0.34284 0.0
O3155 O 0.60316 0.92901 0.40943 0.0
O3156 O 0.59003 0.92108 0.35791 0.0
O3157 O 0.55765 0.92166 0.33928 0.0
O3158 O 0.52495 0.96103 0.32614 0.0
O3159 O 0.52499 0.95777 0.39141 0.0
O3160 O 0.55621 0.95912 0.4125 0.0
O3161 O 0.53168 0.92658 0.33214 0.0
O3162 O 0.55092 0.99145 0.3634 0.0
O3163 O 0.58225 0.9886 0.38504 0.0
C3164 C 0.59026 0.96642 0.34105 0.0
C3165 C 0.58246 0.9164 0.44046 0.0
C3166 C 0.60074 0.8988 0.47086 0.0
C3167 C 0.59347 0.9162 0.48586 0.0
C3168 C 0.57568 0.93393 0.4553 0.0
C3169 C 0.58046 0.93335 0.47814 0.0
C3170 C 0.59348 0.8982 0.44864 0.0
C3171 C 0.57728 0.91182 0.34069 0.0
C3172 C 0.5842 0.91901 0.41616 0.0
C3173 C 0.66362 1.0047 0.40054 0.0
C3174 C 0.67353 0.98825 0.38624 0.0
C3175 C 0.53342 0.95968 0.41179 0.0
C3176 C 0.53964 0.93725 0.29557 0.0
C3177 C 0.56195 0.96082 0.27117 0.0
C3178 C 0.55482 0.94777 0.25211 0.0
C3179 C 0.53051 0.92495 0.2771 0.0
C3180 C 0.55992 0.94982 0.29174 0.0
C3181 C 0.5394 0.92921 0.25525 0.0
C3182 C 0.56771 1.00232 0.37572 0.0
C3183 C 0.52648 0.94057 0.31712 0.0
H3184 H 0.59894 0.91744 0.50311 0.0
H3185 H 0.56794 0.94859 0.44924 0.0
H3186 H 0.57553 0.94708 0.48952 0.0
H3187 H 0.5987 0.88484 0.43688 0.0
H3188 H 0.5575 0.95431 0.23533 0.0
H3189 H 0.51576 0.91373 0.2793 0.0
H3190 H 0.56736 0.95841 0.30589 0.0
H3191 H 0.53218 0.92035 0.24076 0.0
Tb3192 Tb 0.18865 0.61878 0.37514 0.0
C3193 C 0.16593 0.52053 0.41455 0.0
N3194 N 0.16153 0.54203 0.4214 0.0
C3195 C 0.12552 0.52878 0.43691 0.0
C3196 C 0.14986 0.5025 0.41726 0.0
C3197 C 0.14231 0.54594 0.43422 0.0
C3198 C 0.12908 0.50707 0.42787 0.0
C3199 C 0.19392 0.49411 0.40171 0.0
C3200 C 0.18746 0.51639 0.40694 0.0
C3201 C 0.17758 0.47622 0.40257 0.0
C3202 C 0.15551 0.48043 0.41032 0.0
Tb3203 Tb 0.18878 0.56965 0.41177 0.0
N3204 N 0.20265 0.53407 0.40699 0.0
C3205 C 0.21675 0.49042 0.39693 0.0
C3206 C 0.22519 0.53029 0.40422 0.0
C3207 C 0.23253 0.50855 0.39872 0.0
H3208 H 0.13946 0.56268 0.4414 0.0
H3209 H 0.25035 0.50577 0.39604 0.0
H3210 H 0.24601 0.62045 0.37663 0.0
H3211 H 0.13202 0.66519 0.4308 0.0
H3212 H 0.23766 0.54398 0.40622 0.0
H3213 H 0.22247 0.47356 0.3929 0.0
H3214 H 0.1417 0.63417 0.40486 0.0
H3215 H 0.1099 0.5323 0.44604 0.0
H3216 H 0.18207 0.459 0.39827 0.0
H3217 H 0.14327 0.46639 0.41186 0.0
H3218 H 0.27554 0.64944 0.38308 0.0
H3219 H 0.11617 0.49375 0.43016 0.0
H3220 H 0.15898 0.69738 0.43699 0.0
N3221 N 0.21871 0.64158 0.38571 0.0
C3222 C 0.2128 0.66249 0.39341 0.0
C3223 C 0.25799 0.65338 0.386 0.0
C3224 C 0.22958 0.67928 0.39869 0.0
C3225 C 0.24099 0.63682 0.38222 0.0
C3226 C 0.25228 0.67482 0.39403 0.0
N3227 N 0.17468 0.648 0.39628 0.0
C3228 C 0.15385 0.648 0.40683 0.0
C3229 C 0.18466 0.68391 0.41416 0.0
C3230 C 0.19016 0.6654 0.39994 0.0
C3231 C 0.16342 0.68391 0.4251 0.0
C3232 C 0.1482 0.66565 0.42182 0.0
H3233 H 0.26558 0.68737 0.3978 0.0
H3234 H 0.23621 0.71145 0.41599 0.0
H3235 H 0.19777 0.71275 0.43241 0.0
O3236 O 0.17225 0.64036 0.35369 0.0
O3237 O 0.20325 0.6225 0.41032 0.0
O3238 O 0.17686 0.60242 0.42801 0.0
O3239 O 0.20669 0.63273 0.34769 0.0
O3240 O 0.15134 0.60517 0.38022 0.0
O3241 O 0.15175 0.57424 0.40277 0.0
O3242 O 0.2165 0.58138 0.43136 0.0
O3243 O 0.19247 0.55757 0.37778 0.0
O3244 O 0.17549 0.58599 0.35995 0.0
O3245 O 0.18889 0.56015 0.44502 0.0
O3246 O 0.22072 0.57272 0.38619 0.0
O3247 O 0.21578 0.59877 0.35881 0.0
C3248 C 0.19084 0.62039 0.42908 0.0
C3249 C 0.186 0.63535 0.31558 0.0
C3250 C 0.16087 0.61258 0.292 0.0
C3251 C 0.17908 0.60602 0.27801 0.0
C3252 C 0.20432 0.62955 0.3011 0.0
C3253 C 0.20071 0.61541 0.282 0.0
C3254 C 0.16429 0.62914 0.30912 0.0
C3255 C 0.13961 0.58839 0.39135 0.0
C3256 C 0.18951 0.64189 0.3395 0.0
C3257 C 0.22348 0.69879 0.41091 0.0
C3258 C 0.20138 0.70033 0.41952 0.0
C3259 C 0.18149 0.56473 0.36105 0.0
C3260 C 0.22354 0.55739 0.46206 0.0
C3261 C 0.2319 0.52268 0.48066 0.0
C3262 C 0.24794 0.53498 0.49359 0.0
C3263 C 0.23958 0.56937 0.47512 0.0
C3264 C 0.21981 0.5339 0.46479 0.0
C3265 C 0.25175 0.55817 0.49078 0.0
C3266 C 0.22796 0.58279 0.36655 0.0
C3267 C 0.20835 0.57025 0.4488 0.0
H3268 H 0.17678 0.59292 0.265 0.0
H3269 H 0.22147 0.63457 0.3054 0.0
H3270 H 0.21493 0.61035 0.27138 0.0
H3271 H 0.15018 0.6337 0.32019 0.0
H3272 H 0.25718 0.52671 0.50625 0.0
H3273 H 0.2421 0.58754 0.47375 0.0
H3274 H 0.20716 0.52444 0.45513 0.0
H3275 H 0.26381 0.56759 0.50113 0.0
Tb3276 Tb 0.55886 0.2037 0.3677 0.0
C3277 C 0.65495 0.22823 0.36533 0.0
N3278 N 0.63352 0.23128 0.35879 0.0
C3279 C 0.63972 0.27162 0.36295 0.0
C3280 C 0.6694 0.24683 0.37139 0.0
C3281 C 0.62562 0.25269 0.35809 0.0
C3282 C 0.66186 0.26871 0.3692 0.0
C3283 C 0.67868 0.20335 0.38436 0.0
C3284 C 0.66044 0.2064 0.37018 0.0
C3285 C 0.69443 0.22129 0.38831 0.0
C3286 C 0.69001 0.24302 0.38135 0.0
Tb3287 Tb 0.61571 0.19904 0.34426 0.0
N3288 N 0.64462 0.18946 0.3663 0.0
C3289 C 0.67809 0.18413 0.39747 0.0
C3290 C 0.64332 0.17135 0.38009 0.0
C3291 C 0.65926 0.16928 0.39667 0.0
H3292 H 0.6084 0.25546 0.3542 0.0
H3293 H 0.65642 0.15683 0.40937 0.0
H3294 H 0.55182 0.16807 0.41029 0.0
H3295 H 0.49194 0.24849 0.33138 0.0
H3296 H 0.62927 0.15929 0.37982 0.0
H3297 H 0.69059 0.18205 0.4101 0.0
H3298 H 0.5292 0.24487 0.34736 0.0
H3299 H 0.63338 0.28847 0.36218 0.0
H3300 H 0.70894 0.21902 0.39854 0.0
H3301 H 0.7015 0.25705 0.38583 0.0
H3302 H 0.524 0.13798 0.42183 0.0
H3303 H 0.6725 0.28343 0.37361 0.0
H3304 H 0.46338 0.2168 0.33365 0.0
N3305 N 0.53232 0.17867 0.38327 0.0
C3306 C 0.51202 0.17696 0.3735 0.0
C3307 C 0.52045 0.14876 0.40807 0.0
C3308 C 0.49537 0.16048 0.37976 0.0
C3309 C 0.53613 0.16589 0.40154 0.0
C3310 C 0.50018 0.14567 0.39673 0.0
N3311 N 0.52309 0.21043 0.3565 0.0
C3312 C 0.51748 0.23042 0.34754 0.0
C3313 C 0.4852 0.19532 0.35129 0.0
C3314 C 0.5071 0.19382 0.3595 0.0
C3315 C 0.48003 0.21486 0.34014 0.0
C3316 C 0.49609 0.23276 0.33882 0.0
H3317 H 0.48793 0.13262 0.402 0.0
H3318 H 0.46113 0.14763 0.37416 0.0
H3319 H 0.45212 0.17846 0.34926 0.0
O3320 O 0.57616 0.23206 0.38226 0.0
O3321 O 0.55867 0.19935 0.33183 0.0
O3322 O 0.58895 0.17789 0.32979 0.0
O3323 O 0.54161 0.22247 0.39253 0.0
O3324 O 0.56395 0.22964 0.33822 0.0
O3325 O 0.60044 0.22676 0.3259 0.0
O3326 O 0.64162 0.18748 0.32257 0.0
O3327 O 0.61352 0.2121 0.37938 0.0
O3328 O 0.58477 0.18927 0.38993 0.0
O3329 O 0.62474 0.21737 0.31551 0.0
O3330 O 0.6025 0.16102 0.3525 0.0
O3331 O 0.56637 0.16526 0.36807 0.0
C3332 C 0.56925 0.18277 0.32243 0.0
C3333 C 0.56424 0.23904 0.42033 0.0
C3334 C 0.55366 0.25856 0.45498 0.0
C3335 C 0.56536 0.24337 0.46745 0.0
C3336 C 0.57238 0.22176 0.43319 0.0
C3337 C 0.57493 0.22487 0.45637 0.0
C3338 C 0.55545 0.25789 0.43144 0.0
C3339 C 0.58128 0.23713 0.32463 0.0
C3340 C 0.5593 0.23568 0.39648 0.0
C3341 C 0.47409 0.16039 0.36993 0.0
C3342 C 0.46895 0.17793 0.35577 0.0
C3343 C 0.60435 0.19948 0.39499 0.0
C3344 C 0.63398 0.19511 0.28423 0.0
C3345 C 0.62628 0.15875 0.26823 0.0
C3346 C 0.63961 0.16396 0.24886 0.0
C3347 C 0.64865 0.20083 0.26605 0.0
C3348 C 0.61829 0.17715 0.28092 0.0
C3349 C 0.64973 0.18588 0.24715 0.0
C3350 C 0.58337 0.15121 0.36271 0.0
C3351 C 0.6387 0.20282 0.3076 0.0
H3352 H 0.56413 0.24388 0.48574 0.0
H3353 H 0.57454 0.20516 0.42608 0.0
H3354 H 0.58178 0.21165 0.46602 0.0
H3355 H 0.54622 0.26972 0.42198 0.0
H3356 H 0.64499 0.15059 0.23724 0.0
H3357 H 0.66022 0.21546 0.26718 0.0
H3358 H 0.60654 0.17342 0.29449 0.0
H3359 H 0.66118 0.18975 0.23307 0.0
Tb3360 Tb 0.76919 0.92854 0.56286 0.0
C3361 C 0.77781 0.89694 0.66026 0.0
N3362 N 0.76938 0.915 0.64962 0.0
C3363 C 0.73878 0.91669 0.67681 0.0
C3364 C 0.76672 0.88824 0.67971 0.0
C3365 C 0.74993 0.92452 0.6572 0.0
C3366 C 0.74716 0.8985 0.68804 0.0
C3367 C 0.80775 0.87016 0.66409 0.0
C3368 C 0.79827 0.8877 0.65232 0.0
C3369 C 0.79593 0.86084 0.68266 0.0
C3370 C 0.77555 0.86983 0.69044 0.0
Tb3371 Tb 0.79131 0.92652 0.61978 0.0
N3372 N 0.80971 0.89707 0.63435 0.0
C3373 C 0.82941 0.86321 0.65767 0.0
C3374 C 0.83163 0.89126 0.62909 0.0
C3375 C 0.8416 0.87422 0.6405 0.0
H3376 H 0.74281 0.93776 0.6479 0.0
H3377 H 0.85868 0.8696 0.63601 0.0
H3378 H 0.79549 0.92617 0.51311 0.0
H3379 H 0.69699 0.97424 0.59519 0.0
H3380 H 0.84137 0.89986 0.61592 0.0
H3381 H 0.83724 0.84996 0.66648 0.0
H3382 H 0.73114 0.95359 0.59908 0.0
H3383 H 0.72343 0.92434 0.683 0.0
H3384 H 0.8028 0.84712 0.69161 0.0
H3385 H 0.76697 0.86271 0.70516 0.0
H3386 H 0.78728 0.93683 0.47425 0.0
H3387 H 0.73826 0.89235 0.70303 0.0
H3388 H 0.68547 0.98526 0.55754 0.0
N3389 N 0.76778 0.94335 0.52813 0.0
C3390 C 0.74891 0.95486 0.5247 0.0
C3391 C 0.77642 0.94212 0.48829 0.0
C3392 C 0.74276 0.95999 0.50275 0.0
C3393 C 0.78136 0.93662 0.51029 0.0
C3394 C 0.75699 0.95381 0.48449 0.0
N3395 N 0.7409 0.95397 0.56385 0.0
C3396 C 0.72725 0.95874 0.58244 0.0
C3397 C 0.7148 0.97151 0.54018 0.0
C3398 C 0.73503 0.96038 0.54315 0.0
C3399 C 0.70113 0.97673 0.55915 0.0
C3400 C 0.70754 0.97051 0.5804 0.0
H3401 H 0.75289 0.95759 0.46737 0.0
H3402 H 0.71707 0.97415 0.48285 0.0
H3403 H 0.69274 0.98447 0.51565 0.0
O3404 O 0.73889 0.90884 0.56204 0.0
O3405 O 0.77579 0.96673 0.57246 0.0
O3406 O 0.77179 0.96097 0.61052 0.0
O3407 O 0.76458 0.90479 0.53608 0.0
O3408 O 0.75125 0.92103 0.59465 0.0
O3409 O 0.77005 0.89697 0.6121 0.0
O3410 O 0.82368 0.9374 0.62444 0.0
O3411 O 0.80129 0.89526 0.6002 0.0
O3412 O 0.79709 0.90207 0.56281 0.0
O3413 O 0.79919 0.93738 0.65323 0.0
O3414 O 0.81003 0.94666 0.59573 0.0
O3415 O 0.80621 0.93025 0.56154 0.0
C3416 C 0.77397 0.97672 0.59327 0.0
C3417 C 0.73651 0.8752 0.53953 0.0
C3418 C 0.70457 0.85158 0.52738 0.0
C3419 C 0.71902 0.83398 0.52165 0.0
C3420 C 0.751 0.85747 0.53441 0.0
C3421 C 0.74213 0.83676 0.52575 0.0
C3422 C 0.71337 0.87183 0.53684 0.0
C3423 C 0.75119 0.90133 0.60381 0.0
C3424 C 0.74453 0.89861 0.54323 0.0
C3425 C 0.72229 0.97044 0.49964 0.0
C3426 C 0.70844 0.97636 0.51832 0.0
C3427 C 0.8063 0.89008 0.57893 0.0
C3428 C 0.83844 0.93072 0.65911 0.0
C3429 C 0.86452 0.95958 0.66659 0.0
C3430 C 0.8642 0.95333 0.68956 0.0
C3431 C 0.83455 0.92585 0.68193 0.0
C3432 C 0.85905 0.94131 0.65256 0.0
C3433 C 0.84919 0.93614 0.69737 0.0
C3434 C 0.81953 0.93818 0.57762 0.0
C3435 C 0.82035 0.93888 0.64627 0.0
H3436 H 0.71254 0.81846 0.5136 0.0
H3437 H 0.76907 0.85992 0.53618 0.0
H3438 H 0.75331 0.82323 0.52124 0.0
H3439 H 0.70235 0.8859 0.54004 0.0
H3440 H 0.87118 0.96415 0.70192 0.0
H3441 H 0.81919 0.91708 0.68785 0.0
H3442 H 0.86301 0.94322 0.63477 0.0
H3443 H 0.8467 0.9335 0.71529 0.0
Tb3444 Tb 0.76039 0.18556 0.57439 0.0
C3445 C 0.76797 0.20968 0.66162 0.0
N3446 N 0.77172 0.21024 0.63874 0.0
C3447 C 0.75246 0.24506 0.63774 0.0
C3448 C 0.75656 0.22715 0.67334 0.0
C3449 C 0.7632 0.22707 0.62669 0.0
C3450 C 0.74949 0.24531 0.66119 0.0
C3451 C 0.76516 0.18727 0.69549 0.0
C3452 C 0.7728 0.1901 0.67295 0.0
C3453 C 0.75543 0.20538 0.7075 0.0
C3454 C 0.75128 0.22532 0.6965 0.0
Tb3455 Tb 0.79138 0.18012 0.62481 0.0
N3456 N 0.78187 0.17256 0.66091 0.0
C3457 C 0.76539 0.16568 0.70452 0.0
C3458 C 0.78062 0.15118 0.66893 0.0
C3459 C 0.77202 0.1474 0.69077 0.0
H3460 H 0.76394 0.22646 0.60857 0.0
H3461 H 0.76976 0.13039 0.69679 0.0
H3462 H 0.7139 0.15283 0.58065 0.0
H3463 H 0.81811 0.19646 0.50207 0.0
H3464 H 0.7852 0.13709 0.65799 0.0
H3465 H 0.75877 0.16263 0.72146 0.0
H3466 H 0.80069 0.20687 0.53888 0.0
H3467 H 0.74601 0.25849 0.6281 0.0
H3468 H 0.75001 0.20372 0.72499 0.0
H3469 H 0.74279 0.23874 0.70577 0.0
H3470 H 0.69432 0.12125 0.55969 0.0
H3471 H 0.74067 0.25904 0.66961 0.0
H3472 H 0.80359 0.16276 0.48048 0.0
N3473 N 0.74133 0.15555 0.55676 0.0
C3474 C 0.74915 0.14933 0.5357 0.0
C3475 C 0.7099 0.12883 0.55288 0.0
C3476 C 0.73891 0.13113 0.52338 0.0
C3477 C 0.72098 0.14669 0.56468 0.0
C3478 C 0.71923 0.12062 0.53242 0.0
N3479 N 0.77697 0.17865 0.53911 0.0
C3480 C 0.79422 0.19195 0.52991 0.0
C3481 C 0.77722 0.1546 0.50539 0.0
C3482 C 0.76791 0.16097 0.52674 0.0
C3483 C 0.79582 0.16722 0.49672 0.0
C3484 C 0.80411 0.1862 0.50889 0.0
H3485 H 0.71082 0.10655 0.5235 0.0
H3486 H 0.74112 0.10996 0.49287 0.0
H3487 H 0.7748 0.13045 0.47722 0.0
O3488 O 0.73241 0.20729 0.57493 0.0
O3489 O 0.79681 0.18193 0.57355 0.0
O3490 O 0.80328 0.15682 0.5991 0.0
O3491 O 0.74821 0.19838 0.54386 0.0
O3492 O 0.78952 0.21784 0.57753 0.0
O3493 O 0.8058 0.21424 0.61153 0.0
O3494 O 0.81502 0.17948 0.65012 0.0
O3495 O 0.75509 0.17013 0.63278 0.0
O3496 O 0.73664 0.18917 0.60669 0.0
O3497 O 0.82486 0.18964 0.61622 0.0
O3498 O 0.78334 0.14162 0.61514 0.0
O3499 O 0.75783 0.14619 0.58704 0.0
C3500 C 0.80556 0.16285 0.57845 0.0
C3501 C 0.70753 0.19975 0.54252 0.0
C3502 C 0.6794 0.19474 0.51073 0.0
C3503 C 0.66419 0.18516 0.5269 0.0
C3504 C 0.69096 0.18993 0.55696 0.0
C3505 C 0.66992 0.18263 0.54925 0.0
C3506 C 0.70154 0.2022 0.51899 0.0
C3507 C 0.80601 0.22622 0.59267 0.0
C3508 C 0.73041 0.20696 0.55292 0.0
C3509 C 0.7485 0.1242 0.5024 0.0
C3510 C 0.76766 0.13587 0.49346 0.0
C3511 C 0.73618 0.17926 0.62697 0.0
C3512 C 0.84933 0.16815 0.63471 0.0
C3513 C 0.85031 0.1364 0.6569 0.0
C3514 C 0.8724 0.14234 0.66286 0.0
C3515 C 0.87138 0.17515 0.64009 0.0
C3516 C 0.84177 0.14602 0.63829 0.0
C3517 C 0.88371 0.16104 0.65305 0.0
C3518 C 0.76845 0.13124 0.60066 0.0
C3519 C 0.83175 0.18429 0.63584 0.0
H3520 H 0.64709 0.18004 0.52268 0.0
H3521 H 0.6942 0.18778 0.57463 0.0
H3522 H 0.65759 0.17516 0.56098 0.0
H3523 H 0.71391 0.20975 0.50739 0.0
H3524 H 0.87979 0.13337 0.67584 0.0
H3525 H 0.87798 0.19204 0.63641 0.0
H3526 H 0.82483 0.14082 0.63333 0.0
H3527 H 0.90069 0.16612 0.65761 0.0
Tb3528 Tb 0.94957 0.76468 0.55437 0.0
C3529 C 0.94541 0.7603 0.65337 0.0
N3530 N 0.93612 0.77249 0.63738 0.0
C3531 C 0.89896 0.76257 0.65271 0.0
C3532 C 0.93175 0.74741 0.66863 0.0
C3533 C 0.91315 0.77454 0.63768 0.0
C3534 C 0.90827 0.74853 0.66799 0.0
C3535 C 0.97895 0.74796 0.67055 0.0
C3536 C 0.9687 0.76089 0.65445 0.0
C3537 C 0.9655 0.73413 0.68498 0.0
C3538 C 0.94194 0.73398 0.6841 0.0
Tb3539 Tb 0.96126 0.79035 0.61249 0.0
N3540 N 0.98122 0.77434 0.64003 0.0
C3541 C 1.00244 0.74943 0.67181 0.0
C3542 C 1.00405 0.77663 0.64203 0.0
C3543 C 1.015 0.76407 0.65774 0.0
H3544 H 0.90543 0.78506 0.62632 0.0
H3545 H 0.03317 0.76566 0.65895 0.0
H3546 H 0.98951 0.72662 0.55019 0.0
H3547 H 0.90034 0.80172 0.49129 0.0
H3548 H 1.014 0.78788 0.63134 0.0
H3549 H 1.01098 0.73968 0.68387 0.0
H3550 H 0.91908 0.80198 0.52697 0.0
H3551 H 0.88085 0.76414 0.65238 0.0
H3552 H 0.97314 0.72381 0.69719 0.0
H3553 H 0.93175 0.72363 0.69563 0.0
H3554 H 1.00326 0.69918 0.52181 0.0
H3555 H 0.89722 0.73902 0.67949 0.0
H3556 H 0.90915 0.77308 0.46138 0.0
N3557 N 0.96862 0.74316 0.52759 0.0
C3558 C 0.96056 0.74278 0.50643 0.0
C3559 C 0.99121 0.71137 0.51723 0.0
C3560 C 0.96631 0.72586 0.49029 0.0
C3561 C 0.98365 0.72745 0.53321 0.0
C3562 C 0.98224 0.71032 0.49576 0.0
N3563 N 0.93933 0.77344 0.51853 0.0
C3564 C 0.92356 0.78912 0.51465 0.0
C3565 C 0.93401 0.75733 0.48098 0.0
C3566 C 0.94485 0.75826 0.50184 0.0
C3567 C 0.91782 0.77316 0.47719 0.0
C3568 C 0.91278 0.78928 0.49403 0.0
H3569 H 0.98747 0.6973 0.48366 0.0
H3570 H 0.95961 0.71166 0.4569 0.0
H3571 H 0.93136 0.7394 0.44866 0.0
O3572 O 0.92126 0.75126 0.57386 0.0
O3573 O 0.95382 0.8013 0.55546 0.0
O3574 O 0.97862 0.80516 0.58381 0.0
O3575 O 0.92769 0.74043 0.53971 0.0
O3576 O 0.92406 0.79206 0.56274 0.0
O3577 O 0.92806 0.80202 0.60009 0.0
O3578 O 0.96926 0.82506 0.61182 0.0
O3579 O 0.94382 0.7595 0.60544 0.0
O3580 O 0.96513 0.74377 0.57897 0.0
O3581 O 0.95156 0.81074 0.64082 0.0
O3582 O 0.99662 0.77836 0.59641 0.0
O3583 O 0.98928 0.76736 0.5588 0.0
C3584 C 0.9695 0.81323 0.5662 0.0
C3585 C 0.90618 0.71502 0.56076 0.0
C3586 C 0.88376 0.68452 0.54321 0.0
C3587 C 0.89494 0.66876 0.55571 0.0
C3588 C 0.91884 0.69909 0.57119 0.0
C3589 C 0.91225 0.67614 0.56994 0.0
C3590 C 0.88802 0.70763 0.54761 0.0
C3591 C 0.91644 0.80295 0.58138 0.0
C3592 C 0.91457 0.73822 0.55726 0.0
C3593 C 0.95556 0.72467 0.46948 0.0
C3594 C 0.93948 0.74045 0.46479 0.0
C3595 C 0.95685 0.7434 0.59945 0.0
C3596 C 0.9374 0.84474 0.62545 0.0
C3597 C 0.94873 0.87963 0.64031 0.0
C3598 C 0.92782 0.88249 0.652 0.0
C3599 C 0.91766 0.84407 0.63945 0.0
C3600 C 0.94613 0.86642 0.62047 0.0
C3601 C 0.91178 0.86411 0.65144 0.0
C3602 C 1.0048 0.77105 0.57545 0.0
C3603 C 0.95535 0.82847 0.62868 0.0
H3604 H 0.89207 0.65072 0.55271 0.0
H3605 H 0.93459 0.70406 0.57868 0.0
H3606 H 0.92195 0.66389 0.57824 0.0
H3607 H 0.87945 0.71983 0.53797 0.0
H3608 H 0.92596 0.89584 0.66472 0.0
H3609 H 0.9088 0.82818 0.64317 0.0
H3610 H 0.9595 0.86757 0.60759 0.0
H3611 H 0.89689 0.86428 0.66248 0.0
Tb3612 Tb 0.37202 0.97048 0.52522 0.0
C3613 C 0.40243 1.00115 0.61112 0.0
N3614 N 0.41132 0.99831 0.5897 0.0
C3615 C 0.4353 1.03162 0.59515 0.0
C3616 C 0.40904 1.0199 0.62503 0.0
C3617 C 0.42813 1.01277 0.58191 0.0
C3618 C 0.42544 1.03543 0.61663 0.0
C3619 C 0.38306 0.98383 0.6434 0.0
C3620 C 0.38985 0.98321 0.62037 0.0
C3621 C 0.38751 1.00355 0.65658 0.0
C3622 C 0.4005 1.02157 0.64742 0.0
Tb3623 Tb 0.40155 0.96493 0.57091 0.0
N3624 N 0.38722 0.96385 0.60744 0.0
C3625 C 0.37319 0.96419 0.65276 0.0
C3626 C 0.37932 0.94415 0.61707 0.0
C3627 C 0.37165 0.94419 0.63962 0.0
H3628 H 0.43609 1.00961 0.5655 0.0
H3629 H 0.36498 0.92867 0.64697 0.0
H3630 H 0.37096 0.91445 0.51092 0.0
H3631 H 0.42309 1.03434 0.47923 0.0
H3632 H 0.37892 0.92841 0.60734 0.0
H3633 H 0.36768 0.96401 0.67036 0.0
H3634 H 0.4125 1.01313 0.51254 0.0
H3635 H 0.44842 0.04322 0.58879 0.0
H3636 H 0.38202 1.00454 0.67419 0.0
H3637 H 0.40494 1.03612 0.65818 0.0
H3638 H 0.3692 0.89192 0.4756 0.0
H3639 H 0.43113 0.04995 0.62685 0.0
H3640 H 0.4124 1.0191 0.44164 0.0
N3641 N 0.37606 0.94611 0.49475 0.0
C3642 C 0.37946 0.95656 0.47469 0.0
C3643 C 0.37185 0.91012 0.47511 0.0
C3644 C 0.37899 0.94411 0.45402 0.0
C3645 C 0.37265 0.92309 0.49521 0.0
C3646 C 0.37462 0.92069 0.45443 0.0
N3647 N 0.38991 0.98954 0.49575 0.0
C3648 C 0.40459 1.008 0.49718 0.0
C3649 C 0.39452 0.98956 0.4551 0.0
C3650 C 0.38691 0.97913 0.4752 0.0
C3651 C 0.40613 1.01059 0.45664 0.0
C3652 C 0.412 1.01937 0.47783 0.0
H3653 H 0.3743 0.9105 0.43892 0.0
H3654 H 0.38385 0.94588 0.41771 0.0
H3655 H 0.39759 0.98569 0.41868 0.0
O3656 O 0.3522 0.99138 0.50675 0.0
O3657 O 0.40471 0.95455 0.51342 0.0
O3658 O 0.42745 0.96944 0.53977 0.0
O3659 O 0.33857 0.95943 0.51937 0.0
O3660 O 0.39075 0.99871 0.54875 0.0
O3661 O 0.39244 0.99888 0.55139 0.0
O3662 O 0.42832 0.94089 0.57013 0.0
O3663 O 0.36591 0.96739 0.58214 0.0
O3664 O 0.35434 0.98753 0.55377 0.0
O3665 O 0.42299 0.96268 0.59831 0.0
O3666 O 0.37589 0.93045 0.56636 0.0
O3667 O 0.35299 0.9382 0.53816 0.0
C3668 C 0.42562 0.96164 0.51816 0.0
C3669 C 0.31528 0.99025 0.52356 0.0
C3670 C 0.30429 1.02775 0.53293 0.0
C3671 C 0.28142 1.02092 0.53164 0.0
C3672 C 0.29265 0.98266 0.52222 0.0
C3673 C 0.27558 0.99784 0.52793 0.0
C3674 C 0.32006 1.01116 0.53407 0.0
C3675 C 0.389 1.02111 0.54459 0.0
C3676 C 0.3339 0.97884 0.51136 0.0
C3677 C 0.38438 0.95512 0.43377 0.0
C3678 C 0.39214 0.97782 0.43431 0.0
C3679 C 0.35339 0.98332 0.57521 0.0
C3680 C 0.45991 0.9496 0.59687 0.0
C3681 C 0.4908 0.95183 0.62581 0.0
C3682 C 0.50552 0.9597 0.6084 0.0
C3683 C 0.47579 0.95759 0.58078 0.0
C3684 C 0.46764 0.94659 0.61965 0.0
C3685 C 0.49819 0.96244 0.58647 0.0
C3686 C 0.35665 0.92363 0.55421 0.0
C3687 C 0.43511 0.94672 0.59054 0.0
H3688 H 0.2686 1.03337 0.53094 0.0
H3689 H 0.28826 0.96587 0.51549 0.0
H3690 H 0.25803 0.99241 0.52647 0.0
H3691 H 0.33756 1.017 0.53403 0.0
H3692 H 0.52318 0.96345 0.61156 0.0
H3693 H 0.47079 0.96047 0.56373 0.0
H3694 H 0.45559 0.94075 0.63252 0.0
H3695 H 0.51014 0.96857 0.57365 0.0
Tb3696 Tb 0.20662 0.35618 0.52069 0.0
C3697 C 0.20826 0.41113 0.62304 0.0
N3698 N 0.19612 0.40723 0.60446 0.0
C3699 C 0.17279 0.43814 0.61567 0.0
C3700 C 0.20397 0.42906 0.63851 0.0
C3701 C 0.17826 0.42031 0.60061 0.0
C3702 C 0.186 0.44284 0.63452 0.0
C3703 C 0.23528 0.39651 0.64745 0.0
C3704 C 0.22341 0.39548 0.62728 0.0
C3705 C 0.23263 0.41518 0.66245 0.0
C3706 C 0.21682 0.43148 0.65804 0.0
Tb3707 Tb 0.21131 0.38417 0.57672 0.0
N3708 N 0.22483 0.37806 0.61219 0.0
C3709 C 0.2487 0.37847 0.65213 0.0
C3710 C 0.23687 0.35971 0.61736 0.0
C3711 C 0.24908 0.35973 0.63721 0.0
H3712 H 0.16864 0.41768 0.58554 0.0
H3713 H 0.2589 0.34533 0.64086 0.0
H3714 H 0.26117 0.37397 0.52382 0.0
H3715 H 0.14095 0.37996 0.46585 0.0
H3716 H 0.23758 0.34497 0.60625 0.0
H3717 H 0.25816 0.37852 0.66746 0.0
H3718 H 0.156 0.36135 0.49835 0.0
H3719 H 0.15869 0.4485 0.61247 0.0
H3720 H 0.24186 0.4166 0.67794 0.0
H3721 H 0.21403 0.44521 0.6702 0.0
H3722 H 0.28891 0.39501 0.50003 0.0
H3723 H 0.18179 0.45664 0.64615 0.0
H3724 H 0.16683 0.40026 0.43918 0.0
N3725 N 0.23324 0.37964 0.50313 0.0
C3726 C 0.22688 0.38735 0.48297 0.0
C3727 C 0.27146 0.39328 0.49521 0.0
C3728 C 0.24231 0.39957 0.46885 0.0
C3729 C 0.25555 0.38161 0.50886 0.0
C3730 C 0.2648 0.40242 0.47519 0.0
N3731 N 0.19004 0.37199 0.49112 0.0
C3732 C 0.16749 0.37059 0.48731 0.0
C3733 C 0.19662 0.39425 0.45789 0.0
C3734 C 0.20442 0.38411 0.47723 0.0
C3735 C 0.17355 0.39249 0.45371 0.0
C3736 C 0.15889 0.38105 0.46875 0.0
H3737 H 0.27716 0.41159 0.46472 0.0
H3738 H 0.24633 0.41828 0.43804 0.0
H3739 H 0.20624 0.41408 0.42869 0.0
O3740 O 0.20179 0.33188 0.49454 0.0
O3741 O 0.21494 0.3907 0.52724 0.0
O3742 O 0.19024 0.40092 0.55279 0.0
O3743 O 0.23442 0.33867 0.50841 0.0
O3744 O 0.16822 0.36098 0.53582 0.0
O3745 O 0.17261 0.37692 0.57213 0.0
O3746 O 0.24177 0.39248 0.5581 0.0
O3747 O 0.20578 0.34787 0.57863 0.0
O3748 O 0.18871 0.33579 0.54574 0.0
O3749 O 0.22175 0.41814 0.57407 0.0
O3750 O 0.24181 0.36099 0.57084 0.0
O3751 O 0.23509 0.34011 0.53828 0.0
C3752 C 0.19891 0.40394 0.53272 0.0
C3753 C 0.22638 0.30192 0.50003 0.0
C3754 C 0.20107 0.27513 0.51506 0.0
C3755 C 0.21081 0.2578 0.50167 0.0
C3756 C 0.23524 0.28639 0.48413 0.0
C3757 C 0.22925 0.26339 0.48688 0.0
C3758 C 0.21564 0.29344 0.51942 0.0
C3759 C 0.15819 0.36961 0.55571 0.0
C3760 C 0.22274 0.32545 0.49516 0.0
C3761 C 0.23475 0.40881 0.44907 0.0
C3762 C 0.21193 0.40634 0.44372 0.0
C3763 C 0.19572 0.33211 0.56595 0.0
C3764 C 0.25917 0.42923 0.56615 0.0
C3765 C 0.28145 0.45056 0.59408 0.0
C3766 C 0.28587 0.46755 0.57811 0.0
C3767 C 0.26477 0.44588 0.5504 0.0
C3768 C 0.26824 0.4311 0.5877 0.0
C3769 C 0.27798 0.46493 0.55635 0.0
C3770 C 0.24798 0.34448 0.5559 0.0
C3771 C 0.23954 0.41411 0.56161 0.0
H3772 H 0.20356 0.2408 0.50198 0.0
H3773 H 0.24549 0.29186 0.46971 0.0
H3774 H 0.2371 0.2506 0.47623 0.0
H3775 H 0.21075 0.30513 0.53263 0.0
H3776 H 0.29451 0.48347 0.58255 0.0
H3777 H 0.25787 0.445 0.53386 0.0
H3778 H 0.26369 0.41815 0.59972 0.0
H3779 H 0.28118 0.47824 0.54438 0.0
Tb3780 Tb 0.40217 0.22305 0.54382 0.0
C3781 C 0.37595 0.27205 0.6248 0.0
N3782 N 0.39203 0.25679 0.61865 0.0
C3783 C 0.4193 0.2794 0.64034 0.0
C3784 C 0.38141 0.29165 0.63835 0.0
C3785 C 0.41314 0.2599 0.62782 0.0
C3786 C 0.40349 0.29553 0.64532 0.0
C3787 C 0.33653 0.28232 0.6267 0.0
C3788 C 0.35354 0.26755 0.61888 0.0
C3789 C 0.3422 0.30164 0.63993 0.0
C3790 C 0.36456 0.30642 0.6455 0.0
Tb3791 Tb 0.37807 0.2237 0.59988 0.0
N3792 N 0.34849 0.24919 0.60484 0.0
C3793 C 0.31424 0.27773 0.62057 0.0
C3794 C 0.32643 0.24593 0.5976 0.0
C3795 C 0.30925 0.25969 0.60577 0.0
H3796 H 0.42485 0.24658 0.62783 0.0
H3797 H 0.29214 0.25657 0.60028 0.0
H3798 H 0.38403 0.23055 0.49309 0.0
H3799 H 0.49154 0.23389 0.5601 0.0
H3800 H 0.32161 0.2327 0.58563 0.0
H3801 H 0.30086 0.2886 0.62646 0.0
H3802 H 0.4515 0.24421 0.56385 0.0
H3803 H 0.43601 0.28135 0.64719 0.0
H3804 H 0.32938 0.31317 0.64579 0.0
H3805 H 0.3686 0.3214 0.65584 0.0
H3806 H 0.39923 0.2253 0.45376 0.0
H3807 H 0.40819 0.31031 0.65568 0.0
H3808 H 0.50336 0.20675 0.52966 0.0
N3809 N 0.41156 0.21496 0.50717 0.0
C3810 C 0.43188 0.20563 0.50322 0.0
C3811 C 0.40761 0.21812 0.46758 0.0
C3812 C 0.43931 0.19895 0.48138 0.0
C3813 C 0.39934 0.22154 0.48975 0.0
C3814 C 0.4265 0.20498 0.4633 0.0
N3815 N 0.44058 0.22091 0.53806 0.0
C3816 C 0.45654 0.23187 0.5511 0.0
C3817 C 0.46981 0.20264 0.51623 0.0
C3818 C 0.44711 0.20823 0.52 0.0
C3819 C 0.48573 0.21071 0.53182 0.0
C3820 C 0.47918 0.22618 0.54887 0.0
H3821 H 0.43221 0.20153 0.44603 0.0
H3822 H 0.4666 0.18388 0.46162 0.0
H3823 H 0.49331 0.18648 0.49273 0.0
O3824 O 0.40679 0.25162 0.56587 0.0
O3825 O 0.39572 0.18483 0.54818 0.0
O3826 O 0.38808 0.18516 0.58666 0.0
O3827 O 0.40457 0.25451 0.52931 0.0
O3828 O 0.42354 0.20569 0.56755 0.0
O3829 O 0.41367 0.22787 0.59621 0.0
O3830 O 0.36406 0.19896 0.62178 0.0
O3831 O 0.36568 0.25277 0.57879 0.0
O3832 O 0.36905 0.2422 0.54129 0.0
O3833 O 0.38239 0.22656 0.63527 0.0
O3834 O 0.35251 0.21113 0.5771 0.0
O3835 O 0.36875 0.20658 0.54115 0.0
C3836 C 0.39242 0.17237 0.56674 0.0
C3837 C 0.4215 0.28547 0.54872 0.0
C3838 C 0.45369 0.30453 0.53034 0.0
C3839 C 0.44579 0.32556 0.53792 0.0
C3840 C 0.41339 0.30647 0.55609 0.0
C3841 C 0.42571 0.32647 0.55093 0.0
C3842 C 0.44181 0.28466 0.53654 0.0
C3843 C 0.42642 0.21249 0.58837 0.0
C3844 C 0.40655 0.2653 0.54895 0.0
C3845 C 0.46085 0.18999 0.47815 0.0
C3846 C 0.47612 0.19158 0.49583 0.0
C3847 C 0.35916 0.25532 0.5576 0.0
C3848 C 0.35077 0.2145 0.65647 0.0
C3849 C 0.31199 0.20768 0.65049 0.0
C3850 C 0.30936 0.19865 0.67212 0.0
C3851 C 0.34928 0.20534 0.67788 0.0
C3852 C 0.33095 0.22154 0.64784 0.0
C3853 C 0.32776 0.19893 0.68666 0.0
C3854 C 0.35166 0.20445 0.55596 0.0
C3855 C 0.36939 0.20969 0.64025 0.0
H3856 H 0.45463 0.34117 0.53317 0.0
H3857 H 0.39715 0.30743 0.56491 0.0
H3858 H 0.41927 0.3427 0.55628 0.0
H3859 H 0.44752 0.26844 0.53037 0.0
H3860 H 0.29438 0.18967 0.67679 0.0
H3861 H 0.36436 0.20227 0.68686 0.0
H3862 H 0.33178 0.23103 0.63378 0.0
H3863 H 0.32587 0.19149 0.7031 0.0
Tb3864 Tb 0.96086 0.3645 0.61951 0.0
C3865 C 0.98443 0.39372 0.51916 0.0
N3866 N 0.98277 0.40331 0.5403 0.0
C3867 C 1.00953 0.43302 0.5294 0.0
C3868 C 0.9991 0.40323 0.50247 0.0
C3869 C 0.99397 0.42362 0.54502 0.0
C3870 C 1.01233 0.4226 0.50811 0.0
C3871 C 0.96736 0.36877 0.4906 0.0
C3872 C 0.96857 0.37692 0.51319 0.0
C3873 C 0.98302 0.37701 0.47434 0.0
C3874 C 0.99844 0.39457 0.48016 0.0
Tb3875 Tb 0.95366 0.38982 0.56326 0.0
N3876 N 0.95194 0.37153 0.52864 0.0
C3877 C 0.9493 0.35408 0.48456 0.0
C3878 C 0.93343 0.35846 0.52231 0.0
C3879 C 0.93216 0.34907 0.50046 0.0
H3880 H 0.99112 0.43236 0.56108 0.0
H3881 H 0.91763 0.33848 0.49575 0.0
H3882 H 0.90486 0.36671 0.62759 0.0
H3883 H 1.02834 0.41636 0.65877 0.0
H3884 H 0.91939 0.35544 0.53397 0.0
H3885 H 0.94788 0.34739 0.46741 0.0
H3886 H 1.0128 0.39156 0.62945 0.0
H3887 H 1.01893 0.4486 0.53358 0.0
H3888 H 0.98228 0.37106 0.45689 0.0
H3889 H 1.00865 0.40238 0.46691 0.0
H3890 H 0.8791 0.37773 0.65887 0.0
H3891 H 1.02385 0.43033 0.49576 0.0
H3892 H 1.00498 0.42722 0.69227 0.0
N3893 N 0.93459 0.37901 0.64402 0.0
C3894 C 0.94328 0.38904 0.66298 0.0
C3895 C 0.8971 0.38098 0.66024 0.0
C3896 C 0.92898 0.39589 0.68113 0.0
C3897 C 0.91183 0.37474 0.64248 0.0
C3898 C 0.90571 0.39141 0.67975 0.0
N3899 N 0.97959 0.38814 0.64498 0.0
C3900 C 1.00172 0.39589 0.6434 0.0
C3901 C 0.9752 0.40841 0.68075 0.0
C3902 C 0.96634 0.39464 0.66306 0.0
C3903 C 0.99774 0.41621 0.67919 0.0
C3904 C 1.01094 0.41015 0.6603 0.0
H3905 H 0.89421 0.39648 0.69338 0.0
H3906 H 0.92731 0.41337 0.71345 0.0
H3907 H 0.96764 0.4254 0.71242 0.0
O3908 O 0.97508 0.34836 0.6465 0.0
O3909 O 0.9455 0.39849 0.61843 0.0
O3910 O 0.96551 0.41551 0.59151 0.0
O3911 O 0.94512 0.3344 0.63086 0.0
O3912 O 0.99788 0.36929 0.60186 0.0
O3913 O 0.99302 0.38642 0.56774 0.0
O3914 O 0.93974 0.40487 0.53477 0.0
O3915 O 0.95168 0.35288 0.56374 0.0
O3916 O 0.97648 0.34808 0.59076 0.0
O3917 O 0.93329 0.41897 0.56731 0.0
O3918 O 0.92162 0.36249 0.57393 0.0
O3919 O 0.93007 0.34303 0.60556 0.0
C3920 C 0.95695 0.41707 0.61252 0.0
C3921 C 0.97334 0.31013 0.63566 0.0
C3922 C 1.00769 0.29655 0.61918 0.0
C3923 C 1.00019 0.27416 0.62282 0.0
C3924 C 0.96552 0.28804 0.64022 0.0
C3925 C 0.9785 0.26987 0.63249 0.0
C3926 C 0.99259 0.31353 0.62212 0.0
C3927 C 1.00774 0.3787 0.58274 0.0
C3928 C 0.9619 0.33032 0.64332 0.0
C3929 C 0.93814 0.4081 0.69946 0.0
C3930 C 0.96106 0.41474 0.69902 0.0
C3931 C 0.96657 0.34049 0.57272 0.0
C3932 C 0.93823 0.4459 0.53546 0.0
C3933 C 0.94316 0.47473 0.5038 0.0
C3934 C 0.94718 0.4912 0.5211 0.0
C3935 C 0.94324 0.46374 0.55087 0.0
C3936 C 0.93823 0.45162 0.51147 0.0
C3937 C 0.94745 0.4858 0.54382 0.0
C3938 C 0.91569 0.34448 0.58855 0.0
C3939 C 0.9322 0.4223 0.54549 0.0
H3940 H 1.01157 0.26049 0.61989 0.0
H3941 H 0.94979 0.28495 0.64962 0.0
H3942 H 0.97267 0.25267 0.63578 0.0
H3943 H 0.9988 0.33059 0.61872 0.0
H3944 H 0.94971 0.50891 0.51731 0.0
H3945 H 0.94354 0.46078 0.5688 0.0
H3946 H 0.93448 0.4383 0.49905 0.0
H3947 H 0.95074 0.49917 0.55635 0.0
Tb3948 Tb 0.20963 0.75721 0.57591 0.0
C3949 C 0.22205 0.76419 0.47507 0.0
N3950 N 0.23012 0.77061 0.49562 0.0
C3951 C 0.26792 0.77181 0.47989 0.0
C3952 C 0.23645 0.7628 0.45582 0.0
C3953 C 0.25281 0.77443 0.49831 0.0
C3954 C 0.25968 0.76644 0.45846 0.0
C3955 C 0.18997 0.75244 0.45261 0.0
C3956 C 0.19917 0.75859 0.47353 0.0
C3957 C 0.20372 0.7542 0.43292 0.0
C3958 C 0.22706 0.75845 0.43458 0.0
Tb3959 Tb 0.20236 0.78311 0.51981 0.0
N3960 N 0.18582 0.76013 0.49256 0.0
C3961 C 0.16741 0.74446 0.45221 0.0
C3962 C 0.16423 0.75092 0.49263 0.0
C3963 C 0.15487 0.74261 0.47248 0.0
H3964 H 0.25936 0.77938 0.51454 0.0
H3965 H 0.13774 0.73554 0.4725 0.0
H3966 H 0.16822 0.71673 0.57338 0.0
H3967 H 0.2418 0.80597 0.64707 0.0
H3968 H 0.15376 0.74993 0.50773 0.0
H3969 H 0.15979 0.73903 0.43648 0.0
H3970 H 0.24174 0.79094 0.60791 0.0
H3971 H 0.28587 0.77467 0.48209 0.0
H3972 H 0.19674 0.75059 0.41646 0.0
H3973 H 0.2377 0.75818 0.41938 0.0
H3974 H 0.13964 0.69945 0.59922 0.0
H3975 H 0.27138 0.76519 0.44409 0.0
H3976 H 0.21079 0.79498 0.67387 0.0
N3977 N 0.17881 0.74289 0.59689 0.0
C3978 C 0.17683 0.75093 0.61862 0.0
C3979 C 0.14993 0.71395 0.60489 0.0
C3980 C 0.16123 0.74088 0.63419 0.0
C3981 C 0.16624 0.7238 0.59032 0.0
C3982 C 0.14741 0.72252 0.62692 0.0
N3983 N 0.20963 0.77361 0.61151 0.0
C3984 C 0.22748 0.78693 0.61904 0.0
C3985 C 0.19268 0.77435 0.64902 0.0
C3986 C 0.19255 0.7672 0.62606 0.0
C3987 C 0.21021 0.78903 0.65641 0.0
C3988 C 0.22776 0.79523 0.64137 0.0
H3989 H 0.13522 0.71441 0.63839 0.0
H3990 H 0.15012 0.74002 0.66931 0.0
H3991 H 0.17625 0.77056 0.68192 0.0
O3992 O 0.22411 0.74198 0.60406 0.0
O3993 O 0.21191 0.794 0.57624 0.0
O3994 O 0.18676 0.79848 0.54954 0.0
O3995 O 0.22911 0.72734 0.57183 0.0
O3996 O 0.24138 0.78631 0.56653 0.0
O3997 O 0.23282 0.80455 0.53412 0.0
O3998 O 0.18691 0.79792 0.49282 0.0
O3999 O 0.2187 0.74994 0.51971 0.0
O4000 O 0.19907 0.73213 0.54649 0.0
O4001 O 0.21483 0.81486 0.50903 0.0
O4002 O 0.16529 0.77483 0.53539 0.0
O4003 O 0.17041 0.76121 0.57094 0.0
C4004 C 0.19677 0.80624 0.56756 0.0
C4005 C 0.22065 0.70113 0.60358 0.0
C4006 C 0.21364 0.671 0.63369 0.0
C4007 C 0.19445 0.66397 0.62142 0.0
C4008 C 0.20359 0.68985 0.5913 0.0
C4009 C 0.1901 0.6725 0.6005 0.0
C4010 C 0.22627 0.69101 0.62505 0.0
C4011 C 0.24708 0.80421 0.55145 0.0
C4012 C 0.23027 0.7238 0.59359 0.0
C4013 C 0.16109 0.74828 0.65692 0.0
C4014 C 0.17635 0.76538 0.66422 0.0
C4015 C 0.20772 0.73118 0.52543 0.0
C4016 C 0.18471 0.83585 0.50096 0.0
C4017 C 0.15132 0.84775 0.52189 0.0
C4018 C 0.1559 0.86994 0.51376 0.0
C4019 C 0.18897 0.85739 0.49258 0.0
C4020 C 0.16688 0.83169 0.51617 0.0
C4021 C 0.17474 0.87463 0.49952 0.0
C4022 C 0.15559 0.76626 0.55484 0.0
C4023 C 0.19853 0.81687 0.49531 0.0
H4024 H 0.18288 0.65073 0.62757 0.0
H4025 H 0.1997 0.69527 0.57468 0.0
H4026 H 0.17591 0.66547 0.59118 0.0
H4027 H 0.24026 0.69827 0.63448 0.0
H4028 H 0.14489 0.88375 0.51731 0.0
H4029 H 0.20315 0.86083 0.48106 0.0
H4030 H 0.16445 0.81498 0.52237 0.0
H4031 H 0.17799 0.89155 0.49348 0.0
H4032 H 0.14952 0.26612 0.59911 0.0
H4033 H 0.08114 0.2635 0.62551 0.0
H4034 H 0.06748 0.26321 0.58706 0.0
H4035 H 0.07326 0.27057 0.5435 0.0
H4036 H 0.13928 0.2565 0.51664 0.0
H4037 H 0.15346 0.25693 0.5552 0.0
C4038 C 0.13146 0.26639 0.59716 0.0
C4039 C 0.1171 0.26711 0.61814 0.0
C4040 C 0.12267 0.26512 0.57336 0.0
C4041 C 0.09382 0.26476 0.612 0.0
C4042 C 0.08553 0.26486 0.58908 0.0
C4043 C 0.0911 0.26827 0.54538 0.0
C4044 C 0.1053 0.26643 0.52435 0.0
C4045 C 0.09954 0.26656 0.56911 0.0
C4046 C 0.1275 0.2606 0.53031 0.0
C4047 C 0.13595 0.26078 0.55326 0.0
H4048 H 0.91104 0.06521 0.642 0.0
H4049 H 0.84311 0.03904 0.65206 0.0
H4050 H 0.84042 1.03188 0.61168 0.0
H4051 H 0.85498 1.03407 0.5698 0.0
H4052 H 0.92097 0.06452 0.55797 0.0
H4053 H 0.92526 0.06949 0.59897 0.0
C4054 C 0.8953 0.05773 0.63601 0.0
C4055 C 0.87776 0.05104 0.6537 0.0
C4056 C 0.89296 0.05478 0.61037 0.0
C4057 C 0.85818 0.04243 0.64206 0.0
C4058 C 0.85618 0.03905 0.61765 0.0
C4059 C 0.87071 0.04156 0.57557 0.0
C4060 C 0.88771 0.04815 0.55767 0.0
C4061 C 0.87323 0.0449 0.60095 0.0
C4062 C 0.90703 0.05853 0.56868 0.0
C4063 C 0.90961 0.06151 0.59329 0.0
H4064 H 1.02562 0.88163 0.61104 0.0
H4065 H 0.09756 0.87752 0.60696 0.0
H4066 H 0.0966 0.88253 0.56675 0.0
H4067 H 0.0755 0.88693 0.52894 0.0
H4068 H 1.00356 0.87698 0.53085 0.0
H4069 H 1.00425 0.87884 0.57238 0.0
C4070 C 0.04129 0.87985 0.60174 0.0
C4071 C 0.06184 0.87743 0.61516 0.0
C4072 C 0.04049 0.87994 0.57619 0.0
C4073 C 0.0811 0.87815 0.59992 0.0
C4074 C 0.08053 0.88077 0.57557 0.0
C4075 C 0.0598 0.88256 0.53739 0.0
C4076 C 0.03944 0.87968 0.52338 0.0
C4077 C 0.06041 0.88095 0.56276 0.0
C4078 C 1.01994 0.87842 0.53842 0.0
C4079 C 1.02035 0.87943 0.56322 0.0
H4080 H 0.2493 0.08714 0.58524 0.0
H4081 H 0.31681 0.1021 0.60557 0.0
H4082 H 0.32836 0.1124 0.56808 0.0
H4083 H 0.3215 0.11598 0.52558 0.0
H4084 H 0.25858 0.08735 0.50196 0.0
H4085 H 0.24466 0.08328 0.54094 0.0
C4086 C 0.2667 0.09272 0.58211 0.0
C4087 C 0.28102 0.09672 0.60207 0.0
C4088 C 0.27474 0.09576 0.55776 0.0
C4089 C 0.30354 0.10237 0.59402 0.0
C4090 C 0.31077 0.10737 0.57112 0.0
C4091 C 0.30472 0.10849 0.52832 0.0
C4092 C 0.29205 0.1015 0.50816 0.0
C4093 C 0.29672 0.10446 0.55225 0.0
C4094 C 0.27011 0.09245 0.51502 0.0
C4095 C 0.26172 0.09015 0.53829 0.0
H4096 H 0.6386 0.06829 0.24111 0.0
H4097 H 0.63264 0.07699 0.31293 0.0
H4098 H 0.59185 0.07442 0.31114 0.0
H4099 H 0.55477 0.06895 0.29003 0.0
H4100 H 0.55848 0.06209 0.21791 0.0
H4101 H 0.60007 0.0643 0.21915 0.0
C4102 C 0.62875 0.06965 0.25675 0.0
C4103 C 0.64143 0.07327 0.27794 0.0
C4104 C 0.60324 0.06808 0.25543 0.0
C4105 C 0.62585 0.07396 0.29658 0.0
C4106 C 0.60147 0.07253 0.29541 0.0
C4107 C 0.56414 0.06765 0.27429 0.0
C4108 C 0.55087 0.06481 0.25379 0.0
C4109 C 0.58939 0.06941 0.2751 0.0
C4110 C 0.56593 0.06409 0.23433 0.0
C4111 C 0.59066 0.06538 0.23507 0.0
H4112 H 0.06598 0.60603 0.27569 0.0
H4113 H 0.12291 0.61566 0.22986 0.0
H4114 H 0.12712 0.57435 0.22838 0.0
H4115 H 0.11659 0.53275 0.24231 0.0
H4116 H 0.06472 0.52673 0.29349 0.0
H4117 H 0.05823 0.56745 0.292 0.0
C4118 C 0.0797 0.60018 0.26528 0.0
C4119 C 0.09404 0.61711 0.25298 0.0
C4120 C 0.08342 0.57537 0.26598 0.0
C4121 C 0.11096 0.60547 0.23977 0.0
C4122 C 0.1137 0.58092 0.23918 0.0
C4123 C 0.10362 0.5399 0.25328 0.0
C4124 C 0.09018 0.52415 0.26799 0.0
C4125 C 0.10041 0.56512 0.2526 0.0
C4126 C 0.07445 0.5364 0.2815 0.0
C4127 C 0.07091 0.56041 0.28058 0.0
H4128 H 0.59653 0.11403 0.89651 0.0
H4129 H 0.61447 0.04447 0.89002 0.0
H4130 H 0.57518 1.03359 0.88182 0.0
H4131 H 0.53333 0.04321 0.87271 0.0
H4132 H 0.51767 0.11344 0.8741 0.0
H4133 H 0.55575 0.12353 0.88667 0.0
C4134 C 0.59248 0.09629 0.89287 0.0
C4135 C 0.61146 0.08079 0.89233 0.0
C4136 C 0.56881 0.0899 0.88605 0.0
C4137 C 0.60279 0.05796 0.88918 0.0
C4138 C 0.57942 0.05148 0.8841 0.0
C4139 C 0.53823 0.06091 0.87438 0.0
C4140 C 0.52055 0.07715 0.87063 0.0
C4141 C 0.56199 0.06719 0.88128 0.0
C4142 C 0.52897 0.09972 0.87584 0.0
C4143 C 0.55161 0.10576 0.8833 0.0
H4144 H 0.10381 0.61071 0.89411 0.0
H4145 H 0.03921 0.62413 0.8686 0.0
H4146 H 1.02693 0.58604 0.87745 0.0
H4147 H 0.03489 0.5431 0.88895 0.0
H4148 H 0.10358 0.52825 0.89865 0.0
H4149 H 0.11405 0.56845 0.89727 0.0
C4150 C 0.08776 0.6053 0.88772 0.0
C4151 C 0.07394 0.62272 0.87797 0.0
C4152 C 0.08144 0.58062 0.88915 0.0
C4153 C 0.05172 0.61323 0.87479 0.0
C4154 C 0.04447 0.59007 0.87964 0.0
C4155 C 0.05247 0.54817 0.88924 0.0
C4156 C 0.06826 0.52952 0.89049 0.0
C4157 C 0.05915 0.57274 0.88608 0.0
C4158 C 0.0904 0.53928 0.89461 0.0
C4159 C 0.09662 0.56338 0.8942 0.0
H4160 H 0.26658 0.59116 0.06937 0.0
H4161 H 0.26872 0.60162 0.14152 0.0
H4162 H 0.26788 0.56159 0.14638 0.0
H4163 H 0.27351 0.52053 0.13239 0.0
H4164 H 0.25583 0.50709 0.06403 0.0
H4165 H 0.25917 0.54755 0.05626 0.0
C4166 C 0.26697 0.58546 0.08649 0.0
C4167 C 0.26822 0.60316 0.10502 0.0
C4168 C 0.2666 0.55989 0.09005 0.0
C4169 C 0.26841 0.59161 0.12608 0.0
C4170 C 0.26852 0.56745 0.12927 0.0
C4171 C 0.27056 0.52576 0.11543 0.0
C4172 C 0.26798 0.50767 0.09788 0.0
C4173 C 0.26887 0.55083 0.11164 0.0
C4174 C 0.26221 0.5181 0.07729 0.0
C4175 C 0.26287 0.54244 0.07308 0.0
H4176 H 0.61432 0.29973 0.05704 0.0
H4177 H 0.62109 0.22766 0.05706 0.0
H4178 H 0.57972 0.22266 0.0618 0.0
H4179 H 0.53828 0.23851 0.06673 0.0
H4180 H 0.53601 0.3093 0.08358 0.0
H4181 H 0.5754 0.31469 0.07097 0.0
C4182 C 0.60734 0.28261 0.05822 0.0
C4183 C 0.62361 0.26424 0.05626 0.0
C4184 C 0.58232 0.27963 0.06331 0.0
C4185 C 0.6114 0.24279 0.05815 0.0
C4186 C 0.58675 0.23983 0.06106 0.0
C4187 C 0.54593 0.25544 0.06766 0.0
C4188 C 0.53071 0.2743 0.0737 0.0
C4189 C 0.57137 0.25804 0.06385 0.0
C4190 C 0.54412 0.2948 0.07611 0.0
C4191 C 0.56786 0.29775 0.0695 0.0
H4192 H 0.92494 0.63275 0.06421 0.0
H4193 H 0.85341 0.64059 0.06314 0.0
H4194 H 0.84736 0.59981 0.06176 0.0
H4195 H 0.86111 0.55905 0.05354 0.0
H4196 H 0.93176 0.54866 0.05957 0.0
H4197 H 0.93849 0.59002 0.06308 0.0
C4198 C 0.90772 0.62611 0.06296 0.0
C4199 C 0.88958 0.64308 0.06371 0.0
C4200 C 0.90399 0.60038 0.06099 0.0
C4201 C 0.86826 0.63086 0.06276 0.0
C4202 C 0.86467 0.60633 0.06107 0.0
C4203 C 0.87822 0.56496 0.05591 0.0
C4204 C 0.89558 0.54746 0.05576 0.0
C4205 C 0.88217 0.59032 0.05918 0.0
C4206 C 0.91718 0.55901 0.05911 0.0
C4207 C 0.92121 0.58379 0.06116 0.0
H4208 H 0.61848 0.84686 0.07929 0.0
H4209 H 0.63465 0.91276 0.05391 0.0
H4210 H 0.59451 0.92184 0.05767 0.0
H4211 H 0.55105 0.91168 0.06848 0.0
H4212 H 0.53581 0.84439 0.08891 0.0
H4213 H 0.57599 0.83613 0.08661 0.0
C4214 C 0.61364 0.86313 0.07381 0.0
C4215 C 0.63221 0.87836 0.06539 0.0
C4216 C 0.58896 0.86863 0.07595 0.0
C4217 C 0.62296 0.89964 0.06006 0.0
C4218 C 0.59898 0.90509 0.06235 0.0
C4219 C 0.55597 0.89501 0.0729 0.0
C4220 C 0.5376 0.87889 0.08127 0.0
C4221 C 0.58104 0.88987 0.07035 0.0
C4222 C 0.54757 0.85813 0.08548 0.0
C4223 C 0.57142 0.85314 0.08327 0.0
H4224 H 0.61113 0.73745 0.03459 0.0
H4225 H 0.59676 0.80804 1.03163 0.0
H4226 H 0.60431 0.81265 0.07177 0.0
H4227 H 0.61554 0.79849 0.11081 0.0
H4228 H 0.62451 0.72732 0.11598 0.0
H4229 H 0.61827 0.72216 0.07526 0.0
C4230 C 0.60983 0.75426 0.04215 0.0
C4231 C 0.60378 0.77259 1.027 0.0
C4232 C 0.61365 0.75715 0.06734 0.0
C4233 C 0.60174 0.79322 0.04019 0.0
C4234 C 0.60628 0.79609 0.06416 0.0
C4235 C 0.61717 0.78172 0.10336 0.0
C4236 C 0.62264 0.76371 0.11891 0.0
C4237 C 0.6126 0.77851 0.07847 0.0
C4238 C 0.62189 0.74236 0.1066 0.0
C4239 C 0.61806 0.73926 0.08233 0.0
H4240 H 0.37614 0.57897 0.06914 0.0
H4241 H 0.3906 0.50895 0.05676 0.0
H4242 H 0.38951 0.50316 0.09729 0.0
H4243 H 0.3834 0.51641 0.13969 0.0
H4244 H 0.36761 0.58586 0.15252 0.0
H4245 H 0.37048 0.5923 0.1119 0.0
C4246 C 0.37878 0.56206 0.07468 0.0
C4247 C 0.38304 0.5444 0.05666 0.0
C4248 C 0.37741 0.55822 0.10002 0.0
C4249 C 0.387 0.52354 0.06746 0.0
C4250 C 0.38632 0.52 0.09183 0.0
C4251 C 0.37915 0.53282 0.13417 0.0
C4252 C 0.37341 0.54996 0.15218 0.0
C4253 C 0.38088 0.53682 0.10892 0.0
C4254 C 0.37108 0.57132 0.14158 0.0
C4255 C 0.37283 0.57524 0.11725 0.0
H4256 H 0.57932 0.37945 1.02489 0.0
H4257 H 0.50704 0.38176 1.03006 0.0
H4258 H 0.50917 0.38483 0.07144 0.0
H4259 H 0.53204 0.38703 0.10926 0.0
H4260 H 0.60251 0.37601 0.1035 0.0
H4261 H 0.60099 0.38043 0.06293 0.0
C4262 C 0.56361 0.37969 0.03465 0.0
C4263 C 0.54261 0.37919 1.0218 0.0
C4264 C 0.56477 0.38005 0.06003 0.0
C4265 C 0.52359 0.3813 0.03718 0.0
C4266 C 0.52485 0.38314 0.06179 0.0
C4267 C 0.54677 0.3828 0.09941 0.0
C4268 C 0.56712 0.37864 0.11224 0.0
C4269 C 0.54527 0.38186 0.07401 0.0
C4270 C 0.58605 0.37745 0.0967 0.0
C4271 C 0.58512 0.37927 0.0723 0.0
H4272 H 0.78238 0.57197 1.01303 0.0
H4273 H 0.79616 0.64376 1.01035 0.0
H4274 H 0.78575 0.64723 0.05076 0.0
H4275 H 0.7694 0.63011 0.08791 0.0
H4276 H 0.77367 0.55852 0.09573 0.0
H4277 H 0.77667 0.55504 0.05472 0.0
C4278 C 0.78441 0.58857 1.02102 0.0
C4279 C 0.79171 0.60746 1.00596 0.0
C4280 C 0.78047 0.59045 0.04647 0.0
C4281 C 0.79174 0.6283 1.01902 0.0
C4282 C 0.78558 0.63035 0.04313 0.0
C4283 C 0.77443 0.61358 0.08251 0.0
C4284 C 0.77371 0.59496 0.09928 0.0
C4285 C 0.78023 0.6116 0.05759 0.0
C4286 C 0.77464 0.57402 0.08645 0.0
C4287 C 0.77676 0.57192 0.06172 0.0
H4288 H 0.06927 0.53021 0.73455 0.0
H4289 H 0.05488 0.60074 0.74006 0.0
H4290 H 0.09513 0.60934 0.74495 0.0
H4291 H 0.13741 0.59617 0.74762 0.0
H4292 H 0.14738 0.52766 0.76139 0.0
H4293 H 0.10898 0.51865 0.74891 0.0
C4294 C 0.07378 0.54767 0.73898 0.0
C4295 C 0.05534 0.56412 0.73929 0.0
C4296 C 0.09777 0.55284 0.74608 0.0
C4297 C 0.06569 0.58652 0.74107 0.0
C4298 C 0.0897 0.59172 0.74456 0.0
C4299 C 0.13076 0.58032 0.75331 0.0
C4300 C 0.14742 0.56424 0.76087 0.0
C4301 C 0.10621 0.5752 0.74842 0.0
C4302 C 0.13715 0.54182 0.75818 0.0
C4303 C 0.11414 0.53638 0.75065 0.0
H4304 H 0.55883 1.0342 0.76831 0.0
H4305 H 0.62862 1.02191 0.75508 0.0
H4306 H 0.63561 0.06179 0.74644 0.0
H4307 H 0.62347 0.10366 0.74472 0.0
H4308 H 0.55326 0.11588 0.75677 0.0
H4309 H 0.54586 0.07578 0.76309 0.0
C4310 C 0.57575 0.04003 0.76436 0.0
C4311 C 0.5929 1.02271 0.76356 0.0
C4312 C 0.58009 0.06468 0.75945 0.0
C4313 C 0.61435 1.03272 0.75659 0.0
C4314 C 0.61855 0.05647 0.75147 0.0
C4315 C 0.60632 0.09811 0.74915 0.0
C4316 C 0.58966 0.11593 0.75311 0.0
C4317 C 0.6018 0.07325 0.75309 0.0
C4318 C 0.56771 0.10534 0.75645 0.0
C4319 C 0.56321 0.08129 0.75992 0.0
H4320 H 0.03607 0.55178 0.35836 0.0
H4321 H 1.01585 0.61388 0.3895 0.0
H4322 H 0.0541 0.62112 0.40313 0.0
H4323 H 0.09653 0.61177 0.40479 0.0
H4324 H 0.11692 0.551 0.36951 0.0
H4325 H 0.07851 0.54286 0.35822 0.0
C4326 C 0.03997 0.56743 0.36692 0.0
C4327 C 1.02112 0.58214 0.37145 0.0
C4328 C 0.06355 0.57223 0.37419 0.0
C4329 C 1.02819 0.60154 0.38489 0.0
C4330 C 0.0509 0.60593 0.39285 0.0
C4331 C 0.09297 0.59642 0.39489 0.0
C4332 C 0.11225 0.58257 0.38801 0.0
C4333 C 0.06928 0.59161 0.3876 0.0
C4334 C 0.10469 0.5628 0.37541 0.0
C4335 C 0.08179 0.558 0.36856 0.0
H4336 H 0.611 0.1114 0.37491 0.0
H4337 H 0.54235 0.12567 0.36306 0.0
H4338 H 0.53137 0.08621 0.36975 0.0
H4339 H 0.54084 0.04371 0.37697 0.0
H4340 H 0.60958 1.02782 0.38007 0.0
H4341 H 0.62056 0.06835 0.37877 0.0
C4342 C 0.594 0.10583 0.3714 0.0
C4343 C 0.57842 0.1236 0.36625 0.0
C4344 C 0.58746 0.08115 0.37386 0.0
C4345 C 0.55573 0.11434 0.36613 0.0
C4346 C 0.54918 0.09083 0.37 0.0
C4347 C 0.55817 0.04881 0.37577 0.0
C4348 C 0.57363 1.03026 0.37632 0.0
C4349 C 0.56473 0.07344 0.37336 0.0
C4350 C 0.59625 0.03953 0.37831 0.0
C4351 C 0.60281 0.06361 0.37745 0.0
H4352 H 0.74396 1.01627 0.57881 0.0
H4353 H 0.80653 1.00973 0.61138 0.0
H4354 H 0.80805 0.05021 0.62059 0.0
H4355 H 0.7951 0.09147 0.61675 0.0
H4356 H 0.73719 0.10008 0.5767 0.0
H4357 H 0.73267 0.05872 0.57168 0.0
C4358 C 0.75831 1.02299 0.58804 0.0
C4359 C 0.77382 1.00593 0.59668 0.0
C4360 C 0.76087 0.04887 0.59101 0.0
C4361 C 0.79197 1.01876 0.60733 0.0
C4362 C 0.79372 0.04338 0.61142 0.0
C4363 C 0.78106 0.08498 0.60692 0.0
C4364 C 0.7663 0.1022 0.59777 0.0
C4365 C 0.77854 0.05933 0.6034 0.0
C4366 C 0.74921 0.09008 0.58482 0.0
C4367 C 0.7465 0.06522 0.58181 0.0
H4368 H 0.11213 0.76581 0.52747 0.0
H4369 H 0.13009 0.75558 0.59531 0.0
H4370 H 0.08937 0.75288 0.606 0.0
H4371 H 0.04811 0.7638 0.60153 0.0
H4372 H 1.02811 0.76892 0.5332 0.0
H4373 H 0.06764 0.76815 0.52018 0.0
C4374 C 0.10785 0.76558 0.54528 0.0
C4375 C 0.12724 0.764 0.56038 0.0
C4376 C 0.08304 0.76597 0.55272 0.0
C4377 C 0.11824 0.75871 0.58245 0.0
C4378 C 0.09424 0.75781 0.58925 0.0
C4379 C 0.05185 0.76529 0.58363 0.0
C4380 C 1.03253 0.7685 0.56898 0.0
C4381 C 0.0762 0.76341 0.57545 0.0
C4382 C 0.04063 0.76847 0.54593 0.0
C4383 C 0.06427 0.76776 0.5382 0.0
H4384 H 0.39237 0.06376 0.52276 0.0
H4385 H 0.38967 0.04337 0.59143 0.0
H4386 H 0.39379 0.08359 0.6039 0.0
H4387 H 0.39892 0.12734 0.5956 0.0
H4388 H 0.39045 0.14621 0.52663 0.0
H4389 H 0.39187 0.10648 0.51519 0.0
C4390 C 0.39317 0.06748 0.54073 0.0
C4391 C 0.3931 0.04761 0.55548 0.0
C4392 C 0.39348 0.09208 0.54811 0.0
C4393 C 0.39245 0.05572 0.57857 0.0
C4394 C 0.39399 0.07983 0.5859 0.0
C4395 C 0.39558 0.1238 0.57802 0.0
C4396 C 0.39323 0.14346 0.56273 0.0
C4397 C 0.3945 0.09882 0.57097 0.0
C4398 C 0.39192 0.13437 0.54001 0.0
C4399 C 0.39256 0.11052 0.53309 0.0
H4400 H 0.11414 0.3836 0.53221 0.0
H4401 H 0.13518 0.36638 0.59687 0.0
H4402 H 0.09564 0.36205 0.61065 0.0
H4403 H 0.05165 0.36443 0.60523 0.0
H4404 H 0.03285 0.39624 0.54478 0.0
H4405 H 0.07266 0.39781 0.53195 0.0
C4406 C 0.11063 0.37824 0.5493 0.0
C4407 C 0.13012 0.37092 0.5621 0.0
C4408 C 0.08652 0.37985 0.55877 0.0
C4409 C 0.12228 0.36745 0.58483 0.0
C4410 C 0.0988 0.3663 0.59318 0.0
C4411 C 0.0554 0.37129 0.58875 0.0
C4412 C 0.03597 0.37933 0.57625 0.0
C4413 C 0.07993 0.37198 0.58032 0.0
C4414 C 0.04475 0.38912 0.55565 0.0
C4415 C 0.06841 0.38963 0.54761 0.0
H4416 H 0.1237 0.32175 0.37254 0.0
H4417 H 0.0573 0.33381 0.40117 0.0
H4418 H 0.05346 0.36438 0.37561 0.0
H4419 H 0.06743 0.38978 0.34387 0.0
H4420 H 0.13316 0.37903 0.31361 0.0
H4421 H 0.1379 0.34794 0.33954 0.0
C4422 C 0.10814 0.33071 0.37342 0.0
C4423 C 0.0908 0.32365 0.39039 0.0
C4424 C 0.1056 0.34963 0.35753 0.0
C4425 C 0.07142 0.3372 0.38961 0.0
C4426 C 0.06901 0.35538 0.37442 0.0
C4427 C 0.08304 0.38089 0.34252 0.0
C4428 C 0.09984 0.38831 0.32538 0.0
C4429 C 0.08581 0.36211 0.35809 0.0
C4430 C 0.11949 0.37516 0.32556 0.0
C4431 C 0.12226 0.35676 0.34088 0.0
H4432 H 0.83261 1.02485 0.39815 0.0
H4433 H 0.8307 0.09274 0.42628 0.0
H4434 H 0.80188 0.10105 0.39915 0.0
H4435 H 0.77499 0.09037 0.36541 0.0
H4436 H 0.7789 1.0233 0.33555 0.0
H4437 H 0.80723 1.01482 0.36313 0.0
C4438 C 0.82662 0.0419 0.39857 0.0
C4439 C 0.83648 0.05803 0.41598 0.0
C4440 C 0.80917 0.04717 0.38138 0.0
C4441 C 0.82594 0.07937 0.41425 0.0
C4442 C 0.80855 0.08427 0.39812 0.0
C4443 C 0.78176 0.07364 0.36433 0.0
C4444 C 0.77269 0.05778 0.34626 0.0
C4445 C 0.79963 0.06857 0.38115 0.0
C4446 C 0.78363 0.03666 0.34758 0.0
C4447 C 0.80058 1.03161 0.36411 0.0
H4448 H 0.0883 0.82102 0.37829 0.0
H4449 H 1.01595 0.81173 0.37921 0.0
H4450 H 1.0191 0.78244 0.34933 0.0
H4451 H 0.04196 0.75671 0.3202 0.0
H4452 H 0.11438 0.7641 0.32154 0.0
H4453 H 0.11108 0.79412 0.35061 0.0
C4454 C 0.07277 0.81311 0.37222 0.0
C4455 C 0.05132 0.82116 0.38291 0.0
C4456 C 0.07469 0.79451 0.35392 0.0
C4457 C 0.03283 0.80815 0.37301 0.0
C4458 C 0.03467 0.79055 0.35511 0.0
C4459 C 0.05746 0.76473 0.32622 0.0
C4460 C 0.07902 0.75634 0.31599 0.0
C4461 C 0.05547 0.7831 0.3448 0.0
C4462 C 0.09745 0.7685 0.32685 0.0
C4463 C 0.09552 0.78646 0.34433 0.0
H4464 H 0.40046 0.0479 0.30946 0.0
H4465 H 0.42191 0.11727 0.29883 0.0
H4466 H 0.397 0.12928 0.33067 0.0
H4467 H 0.36832 0.12056 0.36343 0.0
H4468 H 0.3442 0.05128 0.37004 0.0
H4469 H 0.36997 0.03966 0.33948 0.0
C4470 C 0.39965 0.06583 0.3136 0.0
C4471 C 0.41379 0.08137 0.30026 0.0
C4472 C 0.38433 0.07295 0.33221 0.0
C4473 C 0.41168 0.1044 0.3074 0.0
C4474 C 0.3972 0.11139 0.32618 0.0
C4475 C 0.36837 0.10281 0.35833 0.0
C4476 C 0.35342 0.08702 0.37074 0.0
C4477 C 0.38324 0.09594 0.33904 0.0
C4478 C 0.35477 0.06433 0.36236 0.0
C4479 C 0.36986 0.0575 0.34426 0.0
H4480 H 0.06051 0.78158 0.82799 0.0
H4481 H 0.09207 0.73049 0.78563 0.0
H4482 H 0.09265 0.75542 0.75392 0.0
H4483 H 0.08565 0.79285 0.73577 0.0
H4484 H 0.05283 0.84431 0.77608 0.0
H4485 H 0.05194 0.81946 0.80873 0.0
C4486 C 0.06746 0.77545 0.81194 0.0
C4487 C 0.07638 0.7526 0.81092 0.0
C4488 C 0.06783 0.79076 0.79226 0.0
C4489 C 0.08512 0.74698 0.78874 0.0
C4490 C 0.08551 0.76169 0.76986 0.0
C4491 C 0.07805 0.799 0.75153 0.0
C4492 C 0.06918 0.8217 0.75199 0.0
C4493 C 0.07715 0.78386 0.77103 0.0
C4494 C 0.05969 0.8277 0.77368 0.0
C4495 C 0.05923 0.81305 0.79294 0.0
H4496 H 0.36409 0.09594 0.81387 0.0
H4497 H 0.41124 0.05862 0.77205 0.0
H4498 H 0.3848 0.0572 0.74132 0.0
H4499 H 0.34725 0.06695 0.72338 0.0
H4500 H 0.29841 0.10092 0.76604 0.0
H4501 H 0.3253 0.10339 0.79655 0.0
C4502 C 0.36909 0.08748 0.79815 0.0
C4503 C 0.39153 0.07765 0.79688 0.0
C4504 C 0.35259 0.08602 0.77939 0.0
C4505 C 0.39539 0.06676 0.77522 0.0
C4506 C 0.3797 0.06584 0.75693 0.0
C4507 C 0.34173 0.07441 0.73944 0.0
C4508 C 0.31881 0.08316 0.7409 0.0
C4509 C 0.35793 0.07531 0.75837 0.0
C4510 C 0.31451 0.09334 0.76277 0.0
C4511 C 0.33049 0.09488 0.78091 0.0
H4512 H 0.05445 0.38386 0.8022 0.0
H4513 H 0.11921 0.39943 0.83081 0.0
H4514 H 0.13628 0.37235 0.80387 0.0
H4515 H 0.13495 0.34175 0.77026 0.0
H4516 H 0.06977 0.32497 0.74307 0.0
H4517 H 0.05295 0.35265 0.7694 0.0
C4518 C 0.07242 0.38173 0.80316 0.0
C4519 C 0.08446 0.39574 0.82088 0.0
C4520 C 0.08299 0.36454 0.78668 0.0
C4521 C 0.10798 0.39046 0.81927 0.0
C4522 C 0.11826 0.37426 0.80305 0.0
C4523 C 0.11691 0.34362 0.76961 0.0
C4524 C 0.10461 0.32887 0.75262 0.0
C4525 C 0.10633 0.36066 0.78629 0.0
C4526 C 0.08107 0.33397 0.75451 0.0
C4527 C 0.07096 0.35068 0.77023 0.0
H4528 H 0.79188 0.0557 0.77274 0.0
H4529 H 0.84718 0.0795 0.81361 0.0
H4530 H 0.82047 0.08775 0.84509 0.0
H4531 H 0.78035 0.08948 0.86216 0.0
H4532 H 0.72508 0.0693 0.81966 0.0
H4533 H 0.75186 0.05897 0.78908 0.0
C4534 C 0.79832 0.06281 0.78845 0.0
C4535 C 0.82245 0.06688 0.78992 0.0
C4536 C 0.7823 0.06836 0.80689 0.0
C4537 C 0.82934 0.07622 0.81102 0.0
C4538 C 0.81375 0.08095 0.8294 0.0
C4539 C 0.77393 0.08264 0.84635 0.0
C4540 C 0.74972 0.0798 0.84436 0.0
C4541 C 0.79 0.07729 0.82778 0.0
C4542 C 0.74294 0.07133 0.82283 0.0
C4543 C 0.75857 0.06549 0.8049 0.0
H4544 H 0.36683 0.3048 0.10139 0.0
H4545 H 0.41194 0.33914 0.05424 0.0
H4546 H 0.38402 0.36784 0.04962 0.0
H4547 H 0.34628 0.38569 0.05973 0.0
H4548 H 0.29979 0.34966 0.10434 0.0
H4549 H 0.32739 0.32049 0.10837 0.0
C4550 C 0.37072 0.3183 0.08978 0.0
C4551 C 0.3926 0.31864 0.078 0.0
C4552 C 0.35363 0.33522 0.08654 0.0
C4553 C 0.39601 0.33723 0.06349 0.0
C4554 C 0.37967 0.35412 0.06085 0.0
C4555 C 0.34168 0.37127 0.06995 0.0
C4556 C 0.31982 0.37094 0.08168 0.0
C4557 C 0.35823 0.35364 0.07225 0.0
C4558 C 0.31562 0.35136 0.09481 0.0
C4559 C 0.33186 0.33431 0.0973 0.0
H4560 H 0.37247 0.82788 0.0632 0.0
H4561 H 0.41174 0.80732 0.11821 0.0
H4562 H 0.38621 0.7746 0.12303 0.0
H4563 H 0.35048 0.74773 0.11359 0.0
H4564 H 0.31054 0.76647 0.05854 0.0
H4565 H 0.33605 0.79997 0.0533 0.0
C4566 C 0.3762 0.81677 0.07662 0.0
C4567 C 0.39702 0.82366 0.09027 0.0
C4568 C 0.35976 0.79555 0.0798 0.0
C4569 C 0.39794 0.80588 0.10667 0.0
C4570 C 0.3824 0.78582 0.1097 0.0
C4571 C 0.34654 0.75867 0.10008 0.0
C4572 C 0.32583 0.75133 0.08675 0.0
C4573 C 0.36274 0.7797 0.09667 0.0
C4574 C 0.32442 0.76856 0.06992 0.0
C4575 C 0.33995 0.78895 0.06675 0.0
H4576 H 0.84424 0.37338 0.07436 0.0
H4577 H 0.81082 0.42012 0.03391 0.0
H4578 H 0.77888 0.39325 1.03089 0.0
H4579 H 0.75641 0.35419 0.03802 0.0
H4580 H 0.78828 0.3066 0.07859 0.0
H4581 H 0.82092 0.33352 0.08201 0.0
C4582 C 0.8303 0.37859 0.06471 0.0
C4583 C 0.83318 0.40198 0.05441 0.0
C4584 C 0.80972 0.36126 0.0626 0.0
C4585 C 0.81241 0.4044 0.04244 0.0
C4586 C 0.79285 0.38806 0.04056 0.0
C4587 C 0.77013 0.34886 0.04794 0.0
C4588 C 0.7668 0.32557 0.05798 0.0
C4589 C 0.79057 0.36592 0.05028 0.0
C4590 C 0.78722 0.32253 0.07026 0.0
C4591 C 0.80706 0.33888 0.0723 0.0
H4592 H 0.85099 0.8032 0.08321 0.0
H4593 H 0.83147 0.75506 1.03094 0.0
H4594 H 0.79708 0.77537 1.02562 0.0
H4595 H 0.76987 0.80676 0.0362 0.0
H4596 H 0.78781 0.85388 0.09017 0.0
H4597 H 0.82339 0.83476 0.09407 0.0
C4598 C 0.83956 0.79704 0.07031 0.0
C4599 C 0.84521 0.77631 0.05762 0.0
C4600 C 0.81839 0.80909 0.06763 0.0
C4601 C 0.82891 0.77007 0.04125 0.0
C4602 C 0.80857 0.78196 0.03829 0.0
C4603 C 0.78135 0.81318 0.04894 0.0
C4604 C 0.77463 0.8327 0.06284 0.0
C4605 C 0.80262 0.80145 0.05148 0.0
C4606 C 0.79103 0.83942 0.07905 0.0
C4607 C 0.81203 0.82827 0.08124 0.0
H4608 H 0.62289 0.82001 0.8691 0.0
H4609 H 0.56325 0.84086 0.90654 0.0
H4610 H 0.55913 0.87106 0.88095 0.0
H4611 H 0.57084 0.89409 0.8468 0.0
H4612 H 0.62981 0.87509 0.80776 0.0
H4613 H 0.6349 0.84399 0.83359 0.0
C4614 C 0.6088 0.8309 0.87203 0.0
C4615 C 0.59343 0.82618 0.89153 0.0
C4616 C 0.60606 0.84982 0.85608 0.0
C4617 C 0.57582 0.84211 0.89302 0.0
C4618 C 0.57324 0.86022 0.87781 0.0
C4619 C 0.58504 0.88341 0.8435 0.0
C4620 C 0.59986 0.88859 0.82397 0.0
C4621 C 0.58805 0.86463 0.85906 0.0
C4622 C 0.61776 0.87311 0.82172 0.0
C4623 C 0.62073 0.85468 0.83698 0.0
H4624 H 0.26574 0.5808 0.87213 0.0
H4625 H 0.29789 0.53926 0.82067 0.0
H4626 H 0.32925 0.53444 0.84594 0.0
H4627 H 0.34978 0.54011 0.88462 0.0
H4628 H 0.31754 0.58136 0.93617 0.0
H4629 H 0.28644 0.58674 0.91075 0.0
C4630 C 0.27936 0.57047 0.86585 0.0
C4631 C 0.27726 0.56041 0.8425 0.0
C4632 C 0.2987 0.56737 0.88157 0.0
C4633 C 0.29677 0.54741 0.83726 0.0
C4634 C 0.31555 0.54459 0.85235 0.0
C4635 C 0.3365 0.55098 0.89067 0.0
C4636 C 0.33874 0.56112 0.91394 0.0
C4637 C 0.31724 0.55428 0.87489 0.0
C4638 C 0.31901 0.57384 0.91932 0.0
C4639 C 0.30028 0.57684 0.9042 0.0
H4640 H 0.54469 0.26369 0.81238 0.0
H4641 H 0.61194 0.25177 0.83313 0.0
H4642 H 0.60789 0.28038 0.86345 0.0
H4643 H 0.58596 0.31144 0.88671 0.0
H4644 H 0.51795 0.32206 0.86765 0.0
H4645 H 0.5221 0.29389 0.83669 0.0
C4646 C 0.55893 0.26701 0.82314 0.0
C4647 C 0.57934 0.25358 0.81811 0.0
C4648 C 0.55641 0.28475 0.84218 0.0
C4649 C 0.59606 0.26016 0.83441 0.0
C4650 C 0.5937 0.27732 0.85257 0.0
C4651 C 0.57174 0.30824 0.8759 0.0
C4652 C 0.55128 0.32141 0.88125 0.0
C4653 C 0.57407 0.29033 0.85707 0.0
C4654 C 0.53409 0.3142 0.86568 0.0
C4655 C 0.53651 0.29729 0.84721 0.0
H4656 H 0.8717 0.61831 0.86063 0.0
H4657 H 0.84222 0.55082 0.86617 0.0
H4658 H 0.86875 0.53735 0.83681 0.0
H4659 H 0.90196 0.54309 0.80801 0.0
H4660 H 0.92963 0.6109 0.79992 0.0
H4661 H 0.90371 0.6245 0.83005 0.0
C4662 C 0.87068 0.60053 0.85567 0.0
C4663 C 0.85364 0.58602 0.8675 0.0
C4664 C 0.88654 0.59238 0.83731 0.0
C4665 C 0.85419 0.56315 0.85907 0.0
C4666 C 0.86984 0.55517 0.84162 0.0
C4667 C 0.90256 0.56101 0.8124 0.0
C4668 C 0.91907 0.57545 0.79992 0.0
C4669 C 0.88642 0.56934 0.83034 0.0
C4670 C 0.91799 0.59858 0.80757 0.0
C4671 C 0.90273 0.60662 0.82547 0.0
H4672 H 0.5464 0.2683 0.30814 0.0
H4673 H 0.6164 0.25267 0.29671 0.0
H4674 H 0.6203 0.28024 0.26775 0.0
H4675 H 0.60539 0.31024 0.24371 0.0
H4676 H 0.53671 0.32932 0.25539 0.0
H4677 H 0.53151 0.30045 0.28421 0.0
C4678 C 0.56266 0.27067 0.29953 0.0
C4679 C 0.58096 0.25663 0.30594 0.0
C4680 C 0.56536 0.28804 0.28192 0.0
C4681 C 0.60144 0.2616 0.29337 0.0
C4682 C 0.60393 0.27803 0.27623 0.0
C4683 C 0.5891 0.30847 0.25244 0.0
C4684 C 0.57153 0.32316 0.24611 0.0
C4685 C 0.58619 0.29157 0.27006 0.0
C4686 C 0.55094 0.31927 0.25873 0.0
C4687 C 0.5479 0.30229 0.27572 0.0
H4688 H 0.85325 0.59172 0.22159 0.0
H4689 H 0.79464 0.57734 0.26421 0.0
H4690 H 0.8193 0.57474 0.29661 0.0
H4691 H 0.85884 0.57631 0.31522 0.0
H4692 H 0.91726 0.5877 0.27147 0.0
H4693 H 0.89255 0.59089 0.23943 0.0
C4694 C 0.84536 0.58774 0.2378 0.0
C4695 C 0.82051 0.58463 0.23873 0.0
C4696 C 0.86044 0.58572 0.25735 0.0
C4697 C 0.81266 0.5796 0.26113 0.0
C4698 C 0.82729 0.57823 0.28034 0.0
C4699 C 0.86661 0.57991 0.29889 0.0
C4700 C 0.8915 0.58265 0.29762 0.0
C4701 C 0.85146 0.5813 0.27916 0.0
C4702 C 0.89921 0.58622 0.27484 0.0
C4703 C 0.88458 0.58795 0.25583 0.0
H4704 H 0.57832 0.81451 0.27405 0.0
H4705 H 0.63857 0.84642 0.24498 0.0
H4706 H 0.63429 0.8788 0.27094 0.0
H4707 H 0.61411 0.9011 0.3042 0.0
H4708 H 0.55342 0.86999 0.33296 0.0
H4709 H 0.55774 0.83721 0.30701 0.0
C4710 C 0.59092 0.82824 0.27295 0.0
C4711 C 0.60945 0.8256 0.25564 0.0
C4712 C 0.58844 0.84842 0.28927 0.0
C4713 C 0.62428 0.84553 0.25676 0.0
C4714 C 0.62178 0.865 0.2723 0.0
C4715 C 0.60168 0.88723 0.30554 0.0
C4716 C 0.5833 0.88978 0.32297 0.0
C4717 C 0.60409 0.86713 0.28919 0.0
C4718 C 0.56802 0.87031 0.32151 0.0
C4719 C 0.57051 0.85079 0.30594 0.0
H4720 H 0.2944 0.53894 0.2855 0.0
H4721 H 0.33489 0.59962 0.29976 0.0
H4722 H 0.30785 0.61015 0.33007 0.0
H4723 H 0.27133 0.60379 0.35278 0.0
H4724 H 0.23055 0.54321 0.33929 0.0
H4725 H 0.25789 0.53198 0.30933 0.0
C4726 C 0.29762 0.55455 0.29512 0.0
C4727 C 0.31775 0.56833 0.28919 0.0
C4728 C 0.28132 0.56085 0.31326 0.0
C4729 C 0.32029 0.58839 0.30277 0.0
C4730 C 0.30447 0.59451 0.32053 0.0
C4731 C 0.26827 0.58778 0.34389 0.0
C4732 C 0.24811 0.57426 0.35006 0.0
C4733 C 0.2847 0.58111 0.3261 0.0
C4734 C 0.24555 0.554 0.33663 0.0
C4735 C 0.26145 0.54755 0.31892 0.0
H4736 H 0.8197 0.85177 0.60273 0.0
H4737 H 0.8399 0.89009 0.54446 0.0
H4738 H 0.87402 0.86795 0.53955 0.0
H4739 H 0.90039 0.83779 0.55256 0.0
H4740 H 0.87877 0.8003 0.6111 0.0
H4741 H 0.84509 0.82176 0.61513 0.0
C4742 C 0.83144 0.85551 0.58883 0.0
C4743 C 0.82623 0.87337 0.57406 0.0
C4744 C 0.85185 0.84266 0.58626 0.0
C4745 C 0.84235 0.8768 0.55618 0.0
C4746 C 0.86239 0.86402 0.55346 0.0
C4747 C 0.88841 0.83403 0.56623 0.0
C4748 C 0.89387 0.81685 0.58186 0.0
C4749 C 0.86772 0.84686 0.56848 0.0
C4750 C 0.87702 0.81329 0.59913 0.0
C4751 C 0.8569 0.82567 0.60133 0.0
H4752 H 0.90051 0.29925 0.6118 0.0
H4753 H 0.8757 0.33913 0.55934 0.0
H4754 H 0.84388 0.31138 0.55503 0.0
H4755 H 0.81944 0.273 0.56525 0.0
H4756 H 0.84557 0.23411 0.61797 0.0
H4757 H 0.87688 0.26162 0.62164 0.0
C4758 C 0.88849 0.30269 0.59911 0.0
C4759 C 0.89333 0.32411 0.58611 0.0
C4760 C 0.86858 0.28518 0.59631 0.0
C4761 C 0.87521 0.32482 0.5703 0.0
C4762 C 0.85593 0.30798 0.56769 0.0
C4763 C 0.83161 0.26971 0.57783 0.0
C4764 C 0.82701 0.24836 0.59129 0.0
C4765 C 0.85167 0.28747 0.58041 0.0
C4766 C 0.84555 0.2482 0.60676 0.0
C4767 C 0.86467 0.26491 0.60908 0.0
H4768 H 0.29166 0.82291 0.58012 0.0
H4769 H 0.25379 0.84249 0.52372 0.0
H4770 H 0.27899 0.87559 0.51947 0.0
H4771 H 0.31393 0.90299 0.52988 0.0
H4772 H 0.35301 0.88474 0.58576 0.0
H4773 H 0.32759 0.85112 0.59074 0.0
C4774 C 0.2882 0.8339 0.56652 0.0
C4775 C 0.26793 0.8267 0.55226 0.0
C4776 C 0.30449 0.8552 0.56361 0.0
C4777 C 0.26721 0.84425 0.53566 0.0
C4778 C 0.28254 0.8645 0.53299 0.0
C4779 C 0.31773 0.89209 0.54346 0.0
C4780 C 0.33815 0.89953 0.5571 0.0
C4781 C 0.30174 0.87091 0.54656 0.0
C4782 C 0.33942 0.88241 0.57405 0.0
C4783 C 0.32395 0.862 0.57709 0.0
H4784 H 0.26964 0.31006 0.52703 0.0
H4785 H 0.27919 0.34531 0.59098 0.0
H4786 H 0.31294 0.32378 0.59647 0.0
H4787 H 0.34139 0.29415 0.58359 0.0
H4788 H 0.33404 0.26109 0.5192 0.0
H4789 H 0.29964 0.28208 0.51334 0.0
C4790 C 0.27879 0.31322 0.5424 0.0
C4791 C 0.27023 0.33003 0.5587 0.0
C4792 C 0.29925 0.30043 0.54556 0.0
C4793 C 0.28388 0.33299 0.57796 0.0
C4794 C 0.30374 0.32039 0.58116 0.0
C4795 C 0.33185 0.29054 0.56865 0.0
C4796 C 0.33978 0.27295 0.55296 0.0
C4797 C 0.31177 0.30377 0.56527 0.0
C4798 C 0.32781 0.27193 0.53269 0.0
C4799 C 0.30805 0.28463 0.52922 0.0
H4800 H 0.19007 0.1581 0.38301 0.0
H4801 H 0.17891 0.18426 0.45041 0.0
H4802 H 0.21564 0.17162 0.46151 0.0
H4803 H 0.24888 0.14826 0.45306 0.0
H4804 H 0.26083 0.12289 0.38501 0.0
H4805 H 0.22566 0.13861 0.37334 0.0
C4806 C 0.1959 0.16131 0.40001 0.0
C4807 C 0.1821 0.17307 0.41587 0.0
C4808 C 0.21685 0.15309 0.40631 0.0
C4809 C 0.1898 0.17664 0.43783 0.0
C4810 C 0.21054 0.16875 0.44422 0.0
C4811 C 0.24384 0.14639 0.43565 0.0
C4812 C 0.25717 0.13387 0.42008 0.0
C4813 C 0.22396 0.15634 0.42879 0.0
C4814 C 0.25074 0.13215 0.39742 0.0
C4815 C 0.2306 0.14119 0.39071 0.0
H4816 H 1.02742 0.22008 0.43509 0.0
H4817 H 0.08499 0.19716 0.46902 0.0
H4818 H 0.06574 0.16029 0.47372 0.0
H4819 H 1.03238 0.13562 0.47077 0.0
H4820 H 0.97385 0.15756 0.43681 0.0
H4821 H 0.99294 0.19445 0.4319 0.0
C4822 C 0.03554 0.20749 0.44426 0.0
C4823 C 0.05758 0.21235 0.45254 0.0
C4824 C 1.02395 0.18613 0.44746 0.0
C4825 C 0.06805 0.19464 0.4629 0.0
C4826 C 0.05692 0.17337 0.46566 0.0
C4827 C 1.02341 0.14767 0.46163 0.0
C4828 C 1.0012 0.14229 0.45372 0.0
C4829 C 0.03475 0.16899 0.45831 0.0
C4830 C 0.99067 0.16005 0.44314 0.0
C4831 C 1.00177 0.18148 0.44014 0.0
H4832 H 0.96598 0.92221 0.44221 0.0
H4833 H 1.0212 0.95428 0.47776 0.0
H4834 H 0.99826 0.98755 0.48599 0.0
H4835 H 0.96064 1.00857 0.48414 0.0
H4836 H 0.90925 0.97722 0.44261 0.0
H4837 H 0.93135 0.94388 0.43684 0.0
C4838 C 0.97328 0.93616 0.45197 0.0
C4839 C 0.99598 0.93429 0.45952 0.0
C4840 C 0.95987 0.95608 0.45617 0.0
C4841 C 1.00423 0.95398 0.47155 0.0
C4842 C 0.99078 0.97344 0.47639 0.0
C4843 C 0.95403 0.99456 0.47379 0.0
C4844 C 0.9314 0.99596 0.46521 0.0
C4845 C 0.96825 0.97494 0.46897 0.0
C4846 C 0.92492 0.97704 0.45122 0.0
C4847 C 0.93817 0.95768 0.44735 0.0
H4848 H 0.16201 0.04819 0.37769 0.0
H4849 H 0.20482 1.00362 0.41113 0.0
H4850 H 0.17408 0.97454 0.41266 0.0
H4851 H 0.13267 0.9656 0.41158 0.0
H4852 H 0.09011 1.01242 0.38062 0.0
H4853 H 0.12289 0.03684 0.37111 0.0
C4854 C 0.16474 1.03181 0.38469 0.0
C4855 C 0.18535 1.02806 0.39455 0.0
C4856 C 0.14679 1.01583 0.38649 0.0
C4857 C 0.18898 1.0068 0.40342 0.0
C4858 C 0.17131 0.99034 0.40459 0.0
C4859 C 0.13077 0.98086 0.40223 0.0
C4860 C 0.10904 0.98754 0.39714 0.0
C4861 C 0.14976 0.9952 0.39729 0.0
C4862 C 0.10668 1.00725 0.385 0.0
C4863 C 0.12539 1.02118 0.37954 0.0
H4864 H 0.13508 1.00357 0.6719 0.0
H4865 H 0.17896 0.98556 0.72453 0.0
H4866 H 0.16005 0.94799 0.72601 0.0
H4867 H 0.12818 0.92184 0.71507 0.0
H4868 H 0.08799 0.93771 0.65889 0.0
H4869 H 0.10704 0.97517 0.65728 0.0
C4870 C 0.1406 0.99142 0.68367 0.0
C4871 C 0.15823 0.99772 0.69839 0.0
C4872 C 0.12987 0.96963 0.68416 0.0
C4873 C 0.16544 0.9814 0.71307 0.0
C4874 C 0.1545 0.95989 0.71402 0.0
C4875 C 0.12446 0.93282 0.70158 0.0
C4876 C 0.10705 0.92635 0.68664 0.0
C4877 C 0.13641 0.95394 0.69992 0.0
C4878 C 0.10146 0.94188 0.6704 0.0
C4879 C 0.11238 0.96338 0.66948 0.0
H4880 H 0.15443 0.18959 0.66523 0.0
H4881 H 0.18142 0.22501 0.72368 0.0
H4882 H 0.20621 0.19436 0.72935 0.0
H4883 H 0.22303 0.1568 0.71817 0.0
H4884 H 0.19796 0.12052 0.65954 0.0
H4885 H 0.17078 0.15017 0.6547 0.0
C4886 C 0.16564 0.19095 0.6793 0.0
C4887 C 0.16528 0.21157 0.69362 0.0
C4888 C 0.18095 0.17211 0.68283 0.0
C4889 C 0.1807 0.21103 0.71154 0.0
C4890 C 0.19516 0.19278 0.71514 0.0
C4891 C 0.21183 0.15501 0.70413 0.0
C4892 C 0.21429 0.13546 0.68887 0.0
C4893 C 0.19594 0.17312 0.70091 0.0
C4894 C 0.19787 0.13455 0.67172 0.0
C4895 C 0.18202 0.15212 0.66873 0.0
H4896 H 0.03852 0.18922 0.75308 0.0
H4897 H 0.08323 0.1438 0.78325 0.0
H4898 H 0.05094 0.12053 0.79658 0.0
H4899 H 1.01132 0.109 0.79206 0.0
H4900 H 0.96692 0.15323 0.76033 0.0
H4901 H 0.99757 0.18186 0.75626 0.0
C4902 C 0.04118 0.17474 0.76333 0.0
C4903 C 0.06318 0.16786 0.76676 0.0
C4904 C 1.02256 0.16134 0.77074 0.0
C4905 C 0.06639 0.149 0.77992 0.0
C4906 C 0.04797 0.13578 0.78764 0.0
C4907 C 1.0082 0.12547 0.78547 0.0
C4908 C 0.98722 0.12922 0.7765 0.0
C4909 C 1.02612 0.14118 0.78214 0.0
C4910 C 0.98305 0.1503 0.7676 0.0
C4911 C 1.00066 0.16643 0.76485 0.0
H4912 H 0.9771 0.96092 0.75322 0.0
H4913 H 1.01795 1.01604 0.72504 0.0
H4914 H 0.9852 0.03781 0.72183 0.0
H4915 H 0.94357 0.03808 0.72175 0.0
H4916 H 0.90943 1.00098 0.77505 0.0
H4917 H 0.93981 0.97371 0.77306 0.0
C4918 C 0.97909 0.97797 0.74706 0.0
C4919 C 0.9995 0.98534 0.73582 0.0
C4920 C 0.96085 0.99296 0.74936 0.0
C4921 C 1.00187 1.00842 0.73054 0.0
C4922 C 0.98316 1.02139 0.72923 0.0
C4923 C 0.94305 1.0257 0.73474 0.0
C4924 C 0.92336 1.02161 0.74789 0.0
C4925 C 0.96231 1.01335 0.7376 0.0
C4926 C 0.92354 1.00387 0.76339 0.0
C4927 C 0.94124 0.98853 0.76273 0.0
H4928 H 0.44386 0.13948 0.11022 0.0
H4929 H 0.42634 0.16017 0.17942 0.0
H4930 H 0.42942 0.19897 0.16901 0.0
H4931 H 0.44031 0.22756 0.1411 0.0
H4932 H 0.46925 0.20645 0.077 0.0
H4933 H 0.45905 0.16714 0.08494 0.0
C4934 C 0.44103 0.15185 0.12361 0.0
C4935 C 0.43555 0.14546 0.14594 0.0
C4936 C 0.44467 0.17459 0.1182 0.0
C4937 C 0.43093 0.16319 0.16202 0.0
C4938 C 0.43278 0.18595 0.15617 0.0
C4939 C 0.444 0.21456 0.12871 0.0
C4940 C 0.45328 0.22027 0.10738 0.0
C4941 C 0.44019 0.19182 0.13441 0.0
C4942 C 0.45974 0.20281 0.09239 0.0
C4943 C 0.45447 0.18025 0.09723 0.0
H4944 H 0.03813 0.4192 0.2176 0.0
H4945 H 0.06843 0.48673 0.21618 0.0
H4946 H 0.04389 0.4958 0.1856 0.0
H4947 H 1.01387 0.48517 0.15889 0.0
H4948 H 0.98546 0.41681 0.15676 0.0
H4949 H 1.00809 0.40806 0.18927 0.0
C4950 C 0.03956 0.43588 0.2105 0.0
C4951 C 0.05551 0.45226 0.21973 0.0
C4952 C 1.0253 0.44102 0.19224 0.0
C4953 C 0.05679 0.47363 0.20978 0.0
C4954 C 0.04248 0.47891 0.19223 0.0
C4955 C 1.0126 0.46811 0.16508 0.0
C4956 C 0.99766 0.45166 0.15437 0.0
C4957 C 1.02665 0.46282 0.18324 0.0
C4958 C 0.99627 0.4301 0.16409 0.0
C4959 C 1.00963 0.42496 0.1827 0.0
H4960 H 0.81936 0.98745 0.18308 0.0
H4961 H 0.7819 0.04816 0.17861 0.0
H4962 H 0.78191 0.04336 0.13792 0.0
H4963 H 0.78052 1.01612 0.1069 0.0
H4964 H 0.80832 0.95005 0.11409 0.0
H4965 H 0.82273 0.96221 0.14995 0.0
C4966 C 0.81127 0.99975 0.1732 0.0
C4967 C 0.79923 1.01714 0.18423 0.0
C4968 C 0.80826 0.99516 0.15016 0.0
C4969 C 0.79071 1.03404 0.171 0.0
C4970 C 0.79025 1.03106 0.14756 0.0
C4971 C 0.78954 1.00393 0.11583 0.0
C4972 C 0.79084 0.98115 0.10788 0.0
C4973 C 0.79688 1.01053 0.13739 0.0
C4974 C 0.80491 0.9671 0.11973 0.0
C4975 C 0.81366 0.97414 0.1405 0.0
H4976 H 0.13403 0.66857 0.17986 0.0
H4977 H 0.16621 0.7178 0.2242 0.0
H4978 H 0.1995 0.71923 0.19993 0.0
H4979 H 0.22155 0.7078 0.16491 0.0
H4980 H 0.19011 0.66167 0.11678 0.0
H4981 H 0.15618 0.65871 0.14194 0.0
C4982 C 0.14807 0.67993 0.18437 0.0
C4983 C 0.14647 0.69264 0.20595 0.0
C4984 C 0.16819 0.68154 0.16868 0.0
C4985 C 0.16596 0.70682 0.20964 0.0
C4986 C 0.1855 0.708 0.19498 0.0
C4987 C 0.20749 0.69696 0.1595 0.0
C4988 C 0.20981 0.685 0.13789 0.0
C4989 C 0.18722 0.69547 0.17436 0.0
C4990 C 0.19012 0.67142 0.13256 0.0
C4991 C 0.17021 0.66964 0.14737 0.0
H4992 H 0.45699 0.05735 0.93428 0.0
H4993 H 0.42769 1.00429 0.89235 0.0
H4994 H 0.42968 0.97743 0.9219 0.0
H4995 H 0.43969 0.96787 0.96166 0.0
H4996 H 0.45744 1.02401 1.00678 0.0
H4997 H 0.45882 0.04974 0.97567 0.0
C4998 C 0.45117 0.03992 0.9314 0.0
C4999 C 0.44432 1.03286 0.90934 0.0
C5000 C 0.44975 1.0246 0.95003 0.0
C5001 C 0.43553 1.01023 0.90749 0.0
C5002 C 0.43589 0.9947 0.9251 0.0
C5003 C 0.4434 0.98574 0.96498 0.0
C5004 C 0.44928 0.9932 0.98725 0.0
C5005 C 0.44309 1.00145 0.9467 0.0
C5006 C 0.45356 1.01695 0.9902 0.0
C5007 C 0.45443 1.03204 0.97216 0.0
H5008 H 0.16624 0.35842 0.04016 0.0
H5009 H 0.20149 0.35202 0.97577 0.0
H5010 H 0.16847 0.36462 0.95668 0.0
H5011 H 0.1328 0.3835 0.95948 0.0
H5012 H 0.09619 0.38819 1.02364 0.0
H5013 H 0.12689 0.37044 0.04185 0.0
C5014 C 0.16621 0.35887 1.02187 0.0
C5015 C 0.18595 0.3541 1.00923 0.0
C5016 C 0.14733 0.36643 1.01115 0.0
C5017 C 0.18619 0.35521 0.98564 0.0
C5018 C 0.16747 0.36271 0.97482 0.0
C5019 C 0.13091 0.3799 0.97727 0.0
C5020 C 0.11226 0.38763 0.99022 0.0
C5021 C 0.14833 0.36923 0.98754 0.0
C5022 C 0.11063 0.38309 1.01336 0.0
C5023 C 0.1281 0.37276 1.02378 0.0
H5024 H 0.70934 0.18633 1.02001 0.0
H5025 H 0.67533 0.2347 0.9819 0.0
H5026 H 0.67121 0.20777 0.95094 0.0
H5027 H 0.67491 0.16912 0.93326 0.0
H5028 H 0.70291 0.11793 0.97188 0.0
H5029 H 0.71057 0.14556 1.00259 0.0
C5030 C 0.701 0.19128 1.00507 0.0
C5031 C 0.69381 0.21443 1.00414 0.0
C5032 C 0.69704 0.17427 0.98665 0.0
C5033 C 0.68254 0.21858 0.98392 0.0
C5034 C 0.67962 0.20255 0.96577 0.0
C5035 C 0.68285 0.16366 0.94819 0.0
C5036 C 0.68887 0.14034 0.9489 0.0
C5037 C 0.6866 0.18016 0.96668 0.0
C5038 C 0.69862 0.135 0.96951 0.0
C5039 C 0.70286 0.15127 0.98758 0.0
H5040 H 0.04901 0.77907 0.98248 0.0
H5041 H 1.02366 0.82219 0.933 0.0
H5042 H 1.00284 0.84309 0.9623 0.0
H5043 H 0.98072 0.83706 0.99734 0.0
H5044 H 1.00393 0.79173 0.04637 0.0
H5045 H 0.03685 0.78372 1.02223 0.0
C5046 C 0.04029 0.79416 0.97847 0.0
C5047 C 0.03639 0.79843 0.95583 0.0
C5048 C 1.02706 0.80484 0.99529 0.0
C5049 C 1.02605 0.81836 0.9505 0.0
C5050 C 1.01367 0.8299 0.96723 0.0
C5051 C 0.9937 0.82661 1.00344 0.0
C5052 C 0.98952 0.81425 1.02308 0.0
C5053 C 1.01219 0.82158 0.98914 0.0
C5054 C 1.00658 0.80091 1.03091 0.0
C5055 C 1.02535 0.79621 1.01704 0.0
H5056 H 0.20045 0.40894 0.09313 0.0
H5057 H 0.24057 0.37679 0.14059 0.0
H5058 H 0.20724 0.36963 0.16537 0.0
H5059 H 0.1687 0.38291 0.17619 0.0
H5060 H 0.12603 0.39939 0.12175 0.0
H5061 H 0.15866 0.40143 0.09601 0.0
C5062 C 0.20184 0.39962 0.10846 0.0
C5063 C 0.22308 0.39649 0.11717 0.0
C5064 C 0.18235 0.39317 0.12114 0.0
C5065 C 0.22451 0.38253 0.13573 0.0
C5066 C 0.20541 0.37779 0.14945 0.0
C5067 C 0.16598 0.38593 0.15857 0.0
C5068 C 0.14532 0.39397 0.15163 0.0
C5069 C 0.1844 0.38491 0.14308 0.0
C5070 C 0.14231 0.39584 0.12823 0.0
C5071 C 0.16091 0.39671 0.11328 0.0
H5072 H 0.18608 0.70866 0.97231 0.0
H5073 H 0.13214 0.67946 1.01414 0.0
H5074 H 0.10692 0.67873 0.98303 0.0
H5075 H 0.09923 0.68443 0.94261 0.0
H5076 H 0.14742 0.72561 0.905 0.0
H5077 H 0.17486 0.72324 0.93438 0.0
C5078 C 0.1688 0.70237 0.97488 0.0
C5079 C 0.16218 0.69253 0.99592 0.0
C5080 C 0.15299 0.70354 0.95687 0.0
C5081 C 0.13897 0.68561 0.99822 0.0
C5082 C 0.12406 0.68537 0.98025 0.0
C5083 C 0.11571 0.69292 0.9407 0.0
C5084 C 0.12159 0.7034 0.92001 0.0
C5085 C 0.13086 0.69375 0.95919 0.0
C5086 C 0.14275 0.71543 0.91924 0.0
C5087 C 0.1585 0.71462 0.93663 0.0
H5088 H 0.37888 0.20029 0.99615 0.0
H5089 H 0.33996 0.15718 0.04122 0.0
H5090 H 0.33114 0.13088 1.00996 0.0
H5091 H 0.34774 0.11393 0.97534 0.0
H5092 H 0.39353 0.15441 0.93356 0.0
H5093 H 0.38675 0.18765 0.95753 0.0
C5094 C 0.36731 0.18583 0.99885 0.0
C5095 C 0.3614 0.17959 1.02099 0.0
C5096 C 0.36476 0.1696 0.98139 0.0
C5097 C 0.34541 0.16171 1.02427 0.0
C5098 C 0.34094 0.14634 1.00649 0.0
C5099 C 0.35568 0.13021 0.97124 0.0
C5100 C 0.3716 0.13162 0.95333 0.0
C5101 C 0.3527 0.14895 0.98579 0.0
C5102 C 0.38137 0.15285 0.94752 0.0
C5103 C 0.37756 0.1719 0.96127 0.0
H5104 H 1.01501 0.43619 0.95585 0.0
H5105 H 0.99553 0.49172 0.91638 0.0
H5106 H 0.96403 0.49846 0.94283 0.0
H5107 H 0.93963 0.48929 0.97802 0.0
H5108 H 0.95874 0.43449 1.01849 0.0
H5109 H 0.99061 0.42745 0.99201 0.0
C5110 C 1.00422 0.45005 0.95285 0.0
C5111 C 1.00917 0.46331 0.93272 0.0
C5112 C 0.98494 0.45419 0.969 0.0
C5113 C 0.99346 0.48069 0.9306 0.0
C5114 C 0.97486 0.48474 0.94621 0.0
C5115 C 0.95064 0.47575 0.9815 0.0
C5116 C 0.94546 0.46274 1.0017 0.0
C5117 C 0.96999 0.47168 0.96563 0.0
C5118 C 0.96112 0.4454 1.00421 0.0
C5119 C 0.97987 0.44122 0.98858 0.0
H5120 H 0.69521 1.00498 1.01812 0.0
H5121 H 0.75219 0.99253 0.97309 0.0
H5122 H 0.75089 0.95259 0.98347 0.0
H5123 H 0.73497 0.92245 1.00777 0.0
H5124 H 0.67602 0.9351 0.05032 0.0
H5125 H 0.67692 0.97424 0.03871 0.0
C5126 C 0.70751 0.99357 1.01081 0.0
C5127 C 0.72413 1.0016 0.99549 0.0
C5128 C 0.70633 0.97088 1.01643 0.0
C5129 C 0.73948 0.9866 0.98532 0.0
C5130 C 0.7387 0.96387 0.99117 0.0
C5131 C 0.72195 0.93357 1.014 0.0
C5132 C 0.70566 0.92613 1.03018 0.0
C5133 C 0.72232 0.95594 1.00697 0.0
C5134 C 0.68883 0.94064 0.03804 0.0
C5135 C 0.6894 0.96299 1.03152 0.0
H5136 H 0.99731 0.74149 0.16708 0.0
H5137 H 0.0365 0.71651 0.10931 0.0
H5138 H 1.00501 0.71995 0.08545 0.0
H5139 H 0.96488 0.7267 0.08101 0.0
H5140 H 0.93008 0.7644 0.13294 0.0
H5141 H 0.96132 0.76043 0.15877 0.0
C5142 C 0.99929 0.737 0.1493 0.0
C5143 C 1.01902 0.72635 0.14097 0.0
C5144 C 0.98158 0.74116 0.13457 0.0
C5145 C 1.02106 0.72225 0.11731 0.0
C5146 C 1.00311 0.72482 0.10318 0.0
C5147 C 0.96407 0.73393 0.098 0.0
C5148 C 0.94382 0.74261 0.10659 0.0
C5149 C 0.98298 0.73343 0.11175 0.0
C5150 C 0.94421 0.75448 0.12748 0.0
C5151 C 0.96239 0.75281 0.14192 0.0
H5152 H 0.4463 0.99132 0.20519 0.0
H5153 H 0.49761 1.03159 0.1704 0.0
H5154 H 0.49855 1.00265 0.1395 0.0
H5155 H 0.48544 0.96361 0.12118 0.0
H5156 H 0.42937 0.92818 0.15419 0.0
H5157 H 0.43048 0.95577 0.18547 0.0
C5158 C 0.45786 0.99418 0.19099 0.0
C5159 C 0.47211 1.01482 0.19152 0.0
C5160 C 0.45784 0.9772 0.17223 0.0
C5161 C 0.4863 1.01682 0.17175 0.0
C5162 C 0.48687 0.99975 0.15363 0.0
C5163 C 0.47323 0.96166 0.13502 0.0
C5164 C 0.45803 0.94144 0.13465 0.0
C5165 C 0.47282 0.97947 0.15338 0.0
C5166 C 0.44242 0.94144 0.15343 0.0
C5167 C 0.44272 0.95799 0.17166 0.0
H5168 H 0.7513 0.14748 0.16171 0.0
H5169 H 0.68553 0.17527 0.1693 0.0
H5170 H 0.67788 0.1528 0.20324 0.0
H5171 H 0.68887 0.12231 0.23042 0.0
H5172 H 0.75655 0.09853 0.22448 0.0
H5173 H 0.76372 0.12107 0.19087 0.0
C5174 C 0.73546 0.14937 0.17105 0.0
C5175 C 0.71943 0.16429 0.16235 0.0
C5176 C 0.73106 0.13605 0.19102 0.0
C5177 C 0.69881 0.16509 0.17514 0.0
C5178 C 0.69422 0.15165 0.19466 0.0
C5179 C 0.70533 0.12202 0.22199 0.0
C5180 C 0.72205 0.10772 0.2307 0.0
C5181 C 0.71 0.13655 0.20272 0.0
C5182 C 0.74305 0.1085 0.21875 0.0
C5183 C 0.74729 0.12178 0.19932 0.0
H5184 H 0.67994 0.65026 0.88429 0.0
H5185 H 0.67577 0.68593 0.94803 0.0
H5186 H 0.71288 0.6732 0.95801 0.0
H5187 H 0.74533 0.64873 0.94964 0.0
H5188 H 0.74974 0.61324 0.88519 0.0
H5189 H 0.71348 0.6275 0.87493 0.0
C5190 C 0.68729 0.65538 0.90026 0.0
C5191 C 0.67554 0.67012 0.91523 0.0
C5192 C 0.70836 0.64703 0.90605 0.0
C5193 C 0.68523 0.6761 0.9359 0.0
C5194 C 0.70614 0.66817 0.94175 0.0
C5195 C 0.73824 0.64406 0.93342 0.0
C5196 C 0.74988 0.62926 0.91855 0.0
C5197 C 0.71774 0.65324 0.92714 0.0
C5198 C 0.74091 0.62414 0.8972 0.0
C5199 C 0.72019 0.63244 0.89123 0.0
H5200 H 0.5295 0.64051 0.98026 0.0
H5201 H 0.47983 0.65775 0.93258 0.0
H5202 H 0.49988 0.69427 0.9272 0.0
H5203 H 0.53319 0.72045 0.93398 0.0
H5204 H 0.58237 0.70285 0.98162 0.0
H5205 H 0.56208 0.66651 0.98715 0.0
C5206 C 0.52303 0.65181 0.96825 0.0
C5207 C 0.50299 0.64546 0.95654 0.0
C5208 C 0.53503 0.67276 0.96474 0.0
C5209 C 0.49491 0.66155 0.942 0.0
C5210 C 0.50661 0.68257 0.9387 0.0
C5211 C 0.53909 0.70919 0.94622 0.0
C5212 C 0.55907 0.71525 0.958 0.0
C5213 C 0.52686 0.6883 0.94979 0.0
C5214 C 0.56705 0.6992 0.97251 0.0
C5215 C 0.55529 0.67832 0.97579 0.0
H5216 H 0.42297 0.47741 0.94473 0.0
H5217 H 0.46068 0.5218 0.9898 0.0
H5218 H 0.49139 0.49497 0.98871 0.0
H5219 H 0.50884 0.45668 0.97541 0.0
H5220 H 0.46993 0.41486 0.92897 0.0
H5221 H 0.44008 0.44117 0.93103 0.0
C5222 C 0.43768 0.48152 0.9546 0.0
C5223 C 0.43822 0.50267 0.96757 0.0
C5224 C 0.45597 0.46549 0.95396 0.0
C5225 C 0.45858 0.5064 0.97958 0.0
C5226 C 0.47661 0.49062 0.97897 0.0
C5227 C 0.49402 0.45307 0.96551 0.0
C5228 C 0.49269 0.43176 0.95232 0.0
C5229 C 0.47582 0.46972 0.96624 0.0
C5230 C 0.47243 0.42935 0.94005 0.0
C5231 C 0.45485 0.44511 0.94095 0.0
H5232 H 0.6331 0.46369 0.90756 0.0
H5233 H 0.59072 0.51469 0.88333 0.0
H5234 H 0.62394 0.53817 0.87291 0.0
H5235 H 0.66385 0.54725 0.87756 0.0
H5236 H 0.70629 0.49869 0.90561 0.0
H5237 H 0.67468 0.4706 0.90644 0.0
C5238 C 0.63127 0.47967 0.89943 0.0
C5239 C 0.60959 0.48777 0.89654 0.0
C5240 C 0.6505 0.4934 0.89406 0.0
C5241 C 0.6073 0.50844 0.88605 0.0
C5242 C 0.62625 0.52179 0.88002 0.0
C5243 C 0.6663 0.53018 0.883 0.0
C5244 C 0.68705 0.52498 0.89174 0.0
C5245 C 0.6478 0.5149 0.88488 0.0
C5246 C 0.69034 0.50293 0.89875 0.0
C5247 C 0.67217 0.48706 0.8996 0.0
H5248 H 0.62142 0.4342 0.15962 0.0
H5249 H 0.59956 0.42708 0.22923 0.0
H5250 H 0.61885 0.46261 0.2395 0.0
H5251 H 0.64279 0.49568 0.22935 0.0
H5252 H 0.67158 0.50002 0.16193 0.0
H5253 H 0.65041 0.46503 0.15059 0.0
C5254 C 0.62081 0.44058 0.17696 0.0
C5255 C 0.6079 0.42843 0.19332 0.0
C5256 C 0.63391 0.46025 0.18334 0.0
C5257 C 0.60821 0.43644 0.21596 0.0
C5258 C 0.61968 0.45668 0.22201 0.0
C5259 C 0.64445 0.48897 0.21215 0.0
C5260 C 0.65827 0.5008 0.19637 0.0
C5261 C 0.63264 0.46871 0.20592 0.0
C5262 C 0.66082 0.49144 0.17435 0.0
C5263 C 0.64855 0.47152 0.16782 0.0
H5264 H 0.68189 0.7112 0.22145 0.0
H5265 H 0.64895 0.69769 0.15852 0.0
H5266 H 0.67008 0.66295 0.15272 0.0
H5267 H 0.70006 0.63536 0.1644 0.0
H5268 H 0.73059 0.64801 0.22874 0.0
H5269 H 0.70771 0.68123 0.23527 0.0
C5270 C 0.67893 0.70077 0.2064 0.0
C5271 C 0.66309 0.7086 0.1904 0.0
C5272 C 0.69091 0.67943 0.2034 0.0
C5273 C 0.66045 0.69345 0.17142 0.0
C5274 C 0.67281 0.67302 0.16805 0.0
C5275 C 0.70191 0.64512 0.18004 0.0
C5276 C 0.71889 0.63833 0.19554 0.0
C5277 C 0.68843 0.66556 0.18375 0.0
C5278 C 0.71906 0.65197 0.21577 0.0
C5279 C 0.70564 0.67153 0.21962 0.0
H5280 H 0.50783 0.60457 0.29013 0.0
H5281 H 0.46191 0.65239 0.26647 0.0
H5282 H 0.49269 0.68098 0.2631 0.0
H5283 H 0.53377 0.68778 0.25644 0.0
H5284 H 0.57958 0.63803 0.27673 0.0
H5285 H 0.54802 0.61486 0.29197 0.0
C5286 C 0.50445 0.62167 0.28544 0.0
C5287 C 0.48287 0.62636 0.27825 0.0
C5288 C 0.52247 0.63741 0.28212 0.0
C5289 C 0.47846 0.64847 0.27213 0.0
C5290 C 0.49618 0.66467 0.26974 0.0
C5291 C 0.53682 0.6723 0.26502 0.0
C5292 C 0.55881 0.66427 0.26514 0.0
C5293 C 0.51847 0.65869 0.27306 0.0
C5294 C 0.56268 0.64423 0.2762 0.0
C5295 C 0.54466 0.631 0.28487 0.0
H5296 H 0.43953 0.53877 0.21457 0.0
H5297 H 0.41061 0.50539 0.27285 0.0
H5298 H 0.44212 0.47949 0.27161 0.0
H5299 H 0.47815 0.46556 0.25039 0.0
H5300 H 0.5151 0.51875 0.21485 0.0
H5301 H 0.48112 0.53836 0.2106 0.0
C5302 C 0.44025 0.52691 0.22802 0.0
C5303 C 0.42157 0.52335 0.24279 0.0
C5304 C 0.46018 0.51529 0.23045 0.0
C5305 C 0.42371 0.50747 0.25991 0.0
C5306 C 0.44208 0.49294 0.25961 0.0
C5307 C 0.47908 0.48178 0.24234 0.0
C5308 C 0.49859 0.48851 0.22923 0.0
C5309 C 0.46042 0.49634 0.24432 0.0
C5310 C 0.4996 0.51095 0.22162 0.0
C5311 C 0.4802 0.52291 0.2199 0.0
H5312 H 0.97262 0.65149 0.64517 0.0
H5313 H 0.89995 0.64849 0.64514 0.0
H5314 H 0.90003 0.68778 0.63289 0.0
H5315 H 0.92106 0.72126 0.61851 0.0
H5316 H 0.99355 0.72119 0.61139 0.0
H5317 H 0.99365 0.68539 0.63131 0.0
C5318 C 0.95689 0.65962 0.64255 0.0
C5319 C 0.93633 0.64739 0.64567 0.0
C5320 C 0.95717 0.68164 0.63449 0.0
C5321 C 0.9159 0.65778 0.64252 0.0
C5322 C 0.91598 0.68015 0.63563 0.0
C5323 C 0.93684 0.71332 0.62143 0.0
C5324 C 0.95725 0.72315 0.613 0.0
C5325 C 0.93654 0.69199 0.631 0.0
C5326 C 0.97767 0.71325 0.61709 0.0
C5327 C 0.97769 0.69291 0.62845 0.0
H5328 H 0.52212 0.97988 0.64895 0.0
H5329 H 0.48359 0.917 0.65653 0.0
H5330 H 0.50461 0.90957 0.69047 0.0
H5331 H 0.53618 0.91959 0.71712 0.0
H5332 H 0.57322 0.98335 0.70983 0.0
H5333 H 0.55143 0.99107 0.67675 0.0
C5334 C 0.51811 0.96446 0.6579 0.0
C5335 C 0.501 0.94895 0.64933 0.0
C5336 C 0.53058 0.96013 0.67756 0.0
C5337 C 0.49626 0.92946 0.66214 0.0
C5338 C 0.50861 0.92505 0.68162 0.0
C5339 C 0.53943 0.93531 0.70849 0.0
C5340 C 0.5567 0.95086 0.71659 0.0
C5341 C 0.5262 0.94001 0.68934 0.0
C5342 C 0.56045 0.97088 0.70444 0.0
C5343 C 0.54775 0.97541 0.6854 0.0
H5344 H 0.31767 0.47548 0.61028 0.0
H5345 H 0.25816 0.43694 0.63212 0.0
H5346 H 0.26001 0.45493 0.66949 0.0
H5347 H 0.26987 0.48976 0.69029 0.0
H5348 H 0.32173 0.53537 0.66345 0.0
H5349 H 0.33111 0.50757 0.63355 0.0
C5350 C 0.30513 0.47085 0.62322 0.0
C5351 C 0.28723 0.45539 0.61804 0.0
C5352 C 0.30454 0.48331 0.64363 0.0
C5353 C 0.27208 0.44865 0.6355 0.0
C5354 C 0.27285 0.45929 0.65679 0.0
C5355 C 0.28387 0.49304 0.67841 0.0
C5356 C 0.2951 0.51431 0.67863 0.0
C5357 C 0.28774 0.47789 0.66029 0.0
C5358 C 0.31301 0.51889 0.66328 0.0
C5359 C 0.3182 0.5031 0.64618 0.0
H5360 H 0.66979 0.16735 0.71878 0.0
H5361 H 0.62527 0.20828 0.68357 0.0
H5362 H 0.65248 0.21029 0.6516 0.0
H5363 H 0.69086 0.20078 0.63191 0.0
H5364 H 0.7329 0.15664 0.66691 0.0
H5365 H 0.70631 0.15622 0.6988 0.0
C5366 C 0.66566 0.17685 0.70426 0.0
C5367 C 0.64423 0.18795 0.70499 0.0
C5368 C 0.68191 0.17759 0.68493 0.0
C5369 C 0.64071 0.19963 0.68486 0.0
C5370 C 0.65676 0.20074 0.66604 0.0
C5371 C 0.69446 0.19085 0.6463 0.0
C5372 C 0.71566 0.17914 0.64581 0.0
C5373 C 0.67776 0.18985 0.66551 0.0
C5374 C 0.71817 0.16657 0.66566 0.0
C5375 C 0.70238 0.16607 0.68443 0.0
H5376 H 0.96878 0.51101 0.48447 0.0
H5377 H 0.91909 0.45924 0.46517 0.0
H5378 H 0.91648 0.47705 0.42832 0.0
H5379 H 0.92581 0.50995 0.40203 0.0
H5380 H 0.97508 0.56133 0.42328 0.0
H5381 H 0.9792 0.54184 0.45852 0.0
C5382 C 0.95688 0.50348 0.47266 0.0
C5383 C 0.94361 0.48357 0.47896 0.0
C5384 C 0.95496 0.51434 0.45144 0.0
C5385 C 0.92953 0.4743 0.46185 0.0
C5386 C 0.92786 0.4848 0.44053 0.0
C5387 C 0.93756 0.51696 0.41427 0.0
C5388 C 0.94983 0.5379 0.40939 0.0
C5389 C 0.94006 0.50525 0.43517 0.0
C5390 C 0.96505 0.54586 0.42596 0.0
C5391 C 0.9675 0.53451 0.44639 0.0
H5392 H 0.60725 0.88055 0.51159 0.0
H5393 H 0.63594 0.88434 0.44373 0.0
H5394 H 0.66842 0.86439 0.45466 0.0
H5395 H 0.69172 0.85169 0.48468 0.0
H5396 H 0.6664 0.85419 0.55356 0.0
H5397 H 0.62984 0.86611 0.54126 0.0
C5398 C 0.62053 0.8769 0.49918 0.0
C5399 C 0.61891 0.88388 0.47693 0.0
C5400 C 0.63997 0.86661 0.50584 0.0
C5401 C 0.63623 0.87871 0.46093 0.0
C5402 C 0.6551 0.86752 0.46719 0.0
C5403 C 0.67779 0.85385 0.49679 0.0
C5404 C 0.68126 0.85142 0.51983 0.0
C5405 C 0.65746 0.86202 0.48974 0.0
C5406 C 0.66363 0.85529 0.53566 0.0
C5407 C 0.64293 0.8624 0.52866 0.0
H5408 H 0.22238 0.65754 0.44017 0.0
H5409 H 0.16141 0.62547 0.4671 0.0
H5410 H 0.16077 0.65384 0.49836 0.0
H5411 H 0.17668 0.69031 0.5188 0.0
H5412 H 0.23711 0.72213 0.48976 0.0
H5413 H 0.23781 0.69321 0.45976 0.0
C5414 C 0.20855 0.65671 0.45248 0.0
C5415 C 0.19158 0.6386 0.44979 0.0
C5416 C 0.20793 0.674 0.47079 0.0
C5417 C 0.17475 0.63855 0.46745 0.0
C5418 C 0.17432 0.65524 0.48574 0.0
C5419 C 0.19025 0.69109 0.50615 0.0
C5420 C 0.20693 0.70985 0.50773 0.0
C5421 C 0.19069 0.67348 0.4878 0.0
C5422 C 0.22374 0.70913 0.49006 0.0
C5423 C 0.22428 0.69206 0.47244 0.0
H5424 H 0.54921 0.29471 0.48351 0.0
H5425 H 0.51238 0.24026 0.44905 0.0
H5426 H 0.4771 0.25175 0.46738 0.0
H5427 H 0.45739 0.27644 0.49387 0.0
H5428 H 0.49432 0.32809 0.53236 0.0
H5429 H 0.52885 0.31979 0.51042 0.0
C5430 C 0.53332 0.28577 0.47993 0.0
C5431 C 0.53295 0.26712 0.46498 0.0
C5432 C 0.51324 0.29227 0.49074 0.0
C5433 C 0.51261 0.25505 0.46037 0.0
C5434 C 0.49257 0.26155 0.47078 0.0
C5435 C 0.47303 0.28582 0.49763 0.0
C5436 C 0.47355 0.30252 0.51501 0.0
C5437 C 0.49279 0.28004 0.48609 0.0
C5438 C 0.49362 0.31516 0.51904 0.0
C5439 C 0.51334 0.31023 0.50673 0.0
H5440 H 0.67475 0.88549 0.67505 0.0
H5441 H 0.63415 0.90486 0.61995 0.0
H5442 H 0.66697 0.90479 0.59474 0.0
H5443 H 0.70824 0.90667 0.59104 0.0
H5444 H 0.74579 0.87196 0.63932 0.0
H5445 H 0.71225 0.86937 0.66458 0.0
C5446 C 0.67254 0.88888 0.65744 0.0
C5447 C 0.65242 0.89797 0.6502 0.0
C5448 C 0.69091 0.88631 0.64203 0.0
C5449 C 0.65003 0.9005 0.6268 0.0
C5450 C 0.6687 0.90003 0.61209 0.0
C5451 C 0.70918 0.89789 0.6067 0.0
C5452 C 0.73005 0.89175 0.61445 0.0
C5453 C 0.68954 0.89441 0.62 0.0
C5454 C 0.73033 0.8789 0.63405 0.0
C5455 C 0.71109 0.87711 0.64835 0.0
H5456 H 0.64102 0.22443 0.41455 0.0
H5457 H 0.59668 0.16598 0.42604 0.0
H5458 H 0.61664 0.15859 0.46036 0.0
H5459 H 0.6467 0.16793 0.4873 0.0
H5460 H 0.69124 0.22661 0.47737 0.0
H5461 H 0.67262 0.23324 0.44178 0.0
C5462 C 0.63563 0.21002 0.42449 0.0
C5463 C 0.61684 0.19586 0.41712 0.0
C5464 C 0.6477 0.20552 0.44452 0.0
C5465 C 0.61063 0.17737 0.43078 0.0
C5466 C 0.62229 0.17302 0.45054 0.0
C5467 C 0.6523 0.18267 0.47797 0.0
C5468 C 0.67037 0.1972 0.48644 0.0
C5469 C 0.64084 0.18692 0.45769 0.0
C5470 C 0.67755 0.21508 0.47227 0.0
C5471 C 0.66656 0.21908 0.45178 0.0
H5472 H 0.88326 0.64637 0.44667 0.0
H5473 H 0.8501 0.59061 0.48116 0.0
H5474 H 0.84136 0.61554 0.51361 0.0
H5475 H 0.85397 0.64917 0.53558 0.0
H5476 H 0.892 0.70293 0.50211 0.0
H5477 H 0.88753 0.68333 0.46591 0.0
C5478 C 0.87297 0.64006 0.46079 0.0
C5479 C 0.86752 0.6168 0.46193 0.0
C5480 C 0.86951 0.6541 0.47989 0.0
C5481 C 0.85442 0.60855 0.4802 0.0
C5482 C 0.84977 0.62273 0.49884 0.0
C5483 C 0.86047 0.65692 0.52021 0.0
C5484 C 0.87361 0.67712 0.52161 0.0
C5485 C 0.85889 0.64497 0.49952 0.0
C5486 C 0.88174 0.68732 0.50159 0.0
C5487 C 0.87944 0.67599 0.4808 0.0
H5488 H 0.47676 0.97438 0.51285 0.0
H5489 H 0.42218 0.94511 0.47402 0.0
H5490 H 0.44663 0.94386 0.4406 0.0
H5491 H 0.48467 0.94937 0.41969 0.0
H5492 H 0.54113 0.97558 0.45756 0.0
H5493 H 0.51639 0.97851 0.49151 0.0
C5494 C 0.46975 0.9676 0.49729 0.0
C5495 C 0.44551 0.96057 0.49772 0.0
C5496 C 0.48524 0.96581 0.47669 0.0
C5497 C 0.43919 0.95175 0.47597 0.0
C5498 C 0.45383 0.95064 0.45609 0.0
C5499 C 0.49209 0.95585 0.43515 0.0
C5500 C 0.51632 0.96195 0.43428 0.0
C5501 C 0.47708 0.9575 0.45576 0.0
C5502 C 0.52362 0.97011 0.45597 0.0
C5503 C 0.50889 0.97202 0.47607 0.0
H5504 H 0.19159 0.50104 0.49183 0.0
H5505 H 0.2624 0.49017 0.47884 0.0
H5506 H 0.25743 0.45172 0.49226 0.0
H5507 H 0.23466 0.42398 0.51224 0.0
H5508 H 0.1643 0.43333 0.52792 0.0
H5509 H 0.1672 0.47006 0.50902 0.0
C5510 C 0.20575 0.49001 0.49163 0.0
C5511 C 0.22744 0.49837 0.4847 0.0
C5512 C 0.20293 0.46814 0.50034 0.0
C5513 C 0.24569 0.48407 0.48434 0.0
C5514 C 0.24286 0.46219 0.4921 0.0
C5515 C 0.21981 0.43382 0.51148 0.0
C5516 C 0.19944 0.42618 0.52194 0.0
C5517 C 0.22182 0.45452 0.50097 0.0
C5518 C 0.18037 0.43924 0.52063 0.0
C5519 C 0.18205 0.46005 0.50967 0.0
H5520 H 0.4556 0.24549 0.60188 0.0
H5521 H 0.44273 0.17335 0.60375 0.0
H5522 H 0.47429 0.17038 0.62942 0.0
H5523 H 0.50668 0.18874 0.64996 0.0
H5524 H 0.5178 0.26115 0.64778 0.0
H5525 H 0.48517 0.26384 0.62398 0.0
C5526 C 0.46 0.22899 0.60744 0.0
C5527 C 0.44752 0.20952 0.60023 0.0
C5528 C 0.47748 0.22766 0.62249 0.0
C5529 C 0.4528 0.18842 0.60832 0.0
C5530 C 0.47053 0.18682 0.62327 0.0
C5531 C 0.50157 0.20505 0.64453 0.0
C5532 C 0.51442 0.22475 0.65042 0.0
C5533 C 0.4831 0.20636 0.63035 0.0
C5534 C 0.50794 0.24587 0.64342 0.0
C5535 C 0.48951 0.24736 0.62966 0.0
H5536 H 0.98783 0.45875 0.61727 0.0
H5537 H 0.92759 0.42811 0.64767 0.0
H5538 H 0.92922 0.45588 0.67876 0.0
H5539 H 0.94724 0.48956 0.69928 0.0
H5540 H 1.00303 0.52572 0.6669 0.0
H5541 H 1.00296 0.4969 0.63584 0.0
C5542 C 0.9748 0.45795 0.63047 0.0
C5543 C 0.95816 0.439 0.62967 0.0
C5544 C 0.97486 0.47586 0.64862 0.0
C5545 C 0.9416 0.44039 0.64749 0.0
C5546 C 0.94225 0.45699 0.66555 0.0
C5547 C 0.95944 0.49159 0.68549 0.0
C5548 C 0.97522 0.51091 0.68657 0.0
C5549 C 0.95886 0.47482 0.66674 0.0
C5550 C 0.99041 0.51195 0.66753 0.0
C5551 C 0.99044 0.49497 0.64941 0.0
H5552 H 0.21086 0.58919 0.7048 0.0
H5553 H 0.24001 0.64078 0.74892 0.0
H5554 H 0.23897 0.66842 0.71962 0.0
H5555 H 0.22935 0.67937 0.67986 0.0
H5556 H 0.21009 0.62463 0.63357 0.0
H5557 H 0.20836 0.59824 0.66393 0.0
C5558 C 0.21696 0.60644 0.70823 0.0
C5559 C 0.22421 0.61251 0.73045 0.0
C5560 C 0.21827 0.62242 0.69012 0.0
C5561 C 0.23285 0.63518 0.73315 0.0
C5562 C 0.23271 0.65128 0.71588 0.0
C5563 C 0.22512 0.66168 0.6761 0.0
C5564 C 0.21876 0.65507 0.65361 0.0
C5565 C 0.22536 0.64536 0.69403 0.0
C5566 C 0.21401 0.63138 0.65025 0.0
C5567 C 0.21309 0.61578 0.66788 0.0
H5568 H 0.11191 0.32677 0.50312 0.0
H5569 H 0.14344 0.33656 0.4382 0.0
H5570 H 0.1771 0.31765 0.44974 0.0
H5571 H 0.18956 0.28694 0.47368 0.0
H5572 H 0.16852 0.29099 0.54312 0.0
H5573 H 0.1364 0.31383 0.53397 0.0
C5574 C 0.12637 0.3251 0.49161 0.0
C5575 C 0.12402 0.32739 0.46835 0.0
C5576 C 0.14526 0.3139 0.49836 0.0
C5577 C 0.14408 0.33088 0.45538 0.0
C5578 C 0.16275 0.31906 0.46137 0.0
C5579 C 0.17713 0.29148 0.48657 0.0
C5580 C 0.17913 0.28415 0.50878 0.0
C5581 C 0.16173 0.30779 0.48187 0.0
C5582 C 0.16543 0.29408 0.52578 0.0
C5583 C 0.1478 0.30786 0.52063 0.0
H5584 H 0.84692 0.14958 0.5653 0.0
H5585 H 0.77715 0.13096 0.55788 0.0
H5586 H 0.78494 0.10344 0.52936 0.0
H5587 H 0.81257 0.08387 0.50514 0.0
H5588 H 0.88075 0.08872 0.52695 0.0
H5589 H 0.87351 0.12116 0.55072 0.0
C5590 C 0.83351 0.13998 0.55682 0.0
C5591 C 0.81107 0.14519 0.56128 0.0
C5592 C 0.83839 0.12141 0.54246 0.0
C5593 C 0.79417 0.13032 0.5526 0.0
C5594 C 0.79873 0.11369 0.53645 0.0
C5595 C 0.82586 0.09238 0.51479 0.0
C5596 C 0.84793 0.08568 0.51202 0.0
C5597 C 0.8209 0.10944 0.53076 0.0
C5598 C 0.86432 0.09499 0.52658 0.0
C5599 C 0.86006 0.11354 0.54071 0.0
H5600 H 0.03393 0.79247 0.50211 0.0
H5601 H 0.96931 0.78488 0.47129 0.0
H5602 H 0.95499 0.81513 0.49498 0.0
H5603 H 0.9571 0.83653 0.53007 0.0
H5604 H 1.0141 0.82984 0.57105 0.0
H5605 H 0.03646 0.81635 0.53814 0.0
C5606 C 1.01641 0.79661 0.50145 0.0
C5607 C 1.0026 0.78552 0.48543 0.0
C5608 C 1.00724 0.81239 0.517 0.0
C5609 C 0.97996 0.79169 0.48447 0.0
C5610 C 0.97176 0.80943 0.49769 0.0
C5611 C 0.97473 0.83257 0.5315 0.0
C5612 C 0.98291 0.82992 0.55297 0.0
C5613 C 0.98486 0.81921 0.51458 0.0
C5614 C 1.00643 0.82874 0.55468 0.0
C5615 C 1.01892 0.82006 0.53617 0.0
H5616 H 0.36843 0.09674 0.48311 0.0
H5617 H 0.36485 0.04261 0.43434 0.0
H5618 H 0.34204 1.01923 0.46074 0.0
H5619 H 0.3111 1.0229 0.48973 0.0
H5620 H 0.32482 0.06789 0.54629 0.0
H5621 H 0.35184 0.09028 0.52248 0.0
C5622 C 0.36303 0.0795 0.47856 0.0
C5623 C 0.36173 0.07277 0.45562 0.0
C5624 C 0.34884 0.06726 0.49355 0.0
C5625 C 0.36108 0.04933 0.45119 0.0
C5626 C 0.34721 0.03636 0.46567 0.0
C5627 C 0.31933 0.03818 0.49656 0.0
C5628 C 0.31383 0.04577 0.51874 0.0
C5629 C 0.33842 0.04692 0.4854 0.0
C5630 C 0.3269 0.06359 0.52849 0.0
C5631 C 0.34332 0.07533 0.51541 0.0
H5632 H 0.14473 0.79373 0.64463 0.0
H5633 H 0.08989 0.80396 0.60085 0.0
H5634 H 0.11604 0.82359 0.57435 0.0
H5635 H 0.15683 0.82595 0.56093 0.0
H5636 H 0.20855 0.82574 0.60932 0.0
H5637 H 0.17985 0.81788 0.63926 0.0
C5638 C 0.13858 0.79987 0.62903 0.0
C5639 C 0.1164 0.79422 0.62253 0.0
C5640 C 0.15266 0.81368 0.61579 0.0
C5641 C 0.10773 0.80533 0.60427 0.0
C5642 C 0.12247 0.81716 0.5896 0.0
C5643 C 0.16181 0.82527 0.57806 0.0
C5644 C 0.18453 0.82218 0.58267 0.0
C5645 C 0.14541 0.81978 0.59457 0.0
C5646 C 0.19092 0.8245 0.60519 0.0
C5647 C 0.17474 0.81956 0.62207 0.0
H5648 H 0.31777 0.12602 0.63789 0.0
H5649 H 0.37501 0.15186 0.60291 0.0
H5650 H 0.35113 0.17327 0.58117 0.0
H5651 H 0.32974 0.20469 0.60663 0.0
H5652 H 0.27156 0.18378 0.64033 0.0
H5653 H 0.27687 0.14411 0.62169 0.0
C5654 C 0.32501 0.13674 0.62574 0.0
C5655 C 0.34872 0.13728 0.62289 0.0
C5656 C 0.31165 0.15217 0.61517 0.0
C5657 C 0.35738 0.14978 0.60522 0.0
C5658 C 0.34377 0.16391 0.59407 0.0
C5659 C 0.31819 0.19157 0.61074 0.0
C5660 C 0.30343 0.19521 0.62955 0.0
C5661 C 0.32307 0.16922 0.60379 0.0
C5662 C 0.28631 0.17892 0.63147 0.0
C5663 C 0.29 0.15688 0.62301 0.0
H5664 H 0.10826 0.31052 0.63489 0.0
H5665 H 0.08226 0.3397 0.69723 0.0
H5666 H 0.04505 0.34089 0.68126 0.0
H5667 H 1.0203 0.31963 0.65577 0.0
H5668 H 0.04551 0.29448 0.59123 0.0
H5669 H 0.08411 0.30871 0.60108 0.0
C5670 C 0.09522 0.31932 0.64416 0.0
C5671 C 0.09745 0.32408 0.66729 0.0
C5672 C 0.07398 0.31967 0.63492 0.0
C5673 C 0.08039 0.33525 0.67948 0.0
C5674 C 0.05909 0.33551 0.67052 0.0
C5675 C 0.03424 0.3171 0.64373 0.0
C5676 C 1.03086 0.30441 0.62354 0.0
C5677 C 0.05556 0.32515 0.64931 0.0
C5678 C 0.0485 0.30251 0.60757 0.0
C5679 C 0.07016 0.31072 0.6131 0.0
H5680 H 0.7922 1.01906 0.6955 0.0
H5681 H 0.76539 0.9679 0.65193 0.0
H5682 H 0.80131 0.97207 0.62766 0.0
H5683 H 0.84065 0.97461 0.62843 0.0
H5684 H 0.86407 0.99746 0.69102 0.0
H5685 H 0.83135 1.01921 0.69734 0.0
C5686 C 0.79342 1.00985 0.67943 0.0
C5687 C 0.77753 0.99209 0.67668 0.0
C5688 C 0.81491 1.00648 0.66938 0.0
C5689 C 0.7783 0.98049 0.65582 0.0
C5690 C 0.79817 0.9824 0.64207 0.0
C5691 C 0.83892 0.98435 0.6438 0.0
C5692 C 0.85455 0.98205 0.66096 0.0
C5693 C 0.81747 0.99284 0.65018 0.0
C5694 C 0.85264 0.99777 0.67818 0.0
C5695 C 0.83348 1.01024 0.682 0.0
H5696 H 0.52492 0.08972 0.29334 0.0
H5697 H 0.46445 0.1268 0.3031 0.0
H5698 H 0.48681 0.16137 0.31216 0.0
H5699 H 0.52391 0.18109 0.31526 0.0
H5700 H 0.5835 0.14251 0.30901 0.0
H5701 H 0.56161 0.10862 0.29889 0.0
C5702 C 0.51676 0.1052 0.29797 0.0
C5703 C 0.49343 0.10598 0.29714 0.0
C5704 C 0.52963 0.12485 0.30263 0.0
C5705 C 0.48265 0.12604 0.30347 0.0
C5706 C 0.49536 0.1458 0.30838 0.0
C5707 C 0.53206 0.16528 0.31147 0.0
C5708 C 0.5556 0.16422 0.31223 0.0
C5709 C 0.51894 0.1455 0.30737 0.0
C5710 C 0.56577 0.14372 0.30724 0.0
C5711 C 0.55307 0.12424 0.30218 0.0
H5712 H 1.00833 0.478 0.34942 0.0
H5713 H 0.04926 0.53528 0.32756 0.0
H5714 H 1.02619 0.53724 0.29399 0.0
H5715 H 0.99935 0.5184 0.26867 0.0
H5716 H 0.96206 0.45761 0.29007 0.0
H5717 H 0.98173 0.45951 0.32505 0.0
C5718 C 1.01163 0.49173 0.33799 0.0
C5719 C 1.02942 0.50766 0.34206 0.0
C5720 C 1.00063 0.49066 0.31769 0.0
C5721 C 0.03461 0.52391 0.32581 0.0
C5722 C 1.02216 0.52432 0.30619 0.0
C5723 C 0.99515 0.50559 0.28095 0.0
C5724 C 0.97794 0.48861 0.27677 0.0
C5725 C 1.00607 0.50694 0.30148 0.0
C5726 C 0.97439 0.47138 0.29257 0.0
C5727 C 0.98542 0.47258 0.31289 0.0
H5728 H 0.68858 1.00608 0.32275 0.0
H5729 H 0.65613 0.06818 0.33934 0.0
H5730 H 0.6192 0.04813 0.33876 0.0
H5731 H 0.59622 1.01243 0.3375 0.0
H5732 H 0.62938 0.94983 0.32432 0.0
H5733 H 0.66572 0.97035 0.32032 0.0
C5734 C 0.67345 1.01526 0.3264 0.0
C5735 C 0.67493 0.03902 0.32944 0.0
C5736 C 0.65235 1.00336 0.32738 0.0
C5737 C 0.6553 0.05015 0.3359 0.0
C5738 C 0.63422 0.0386 0.33608 0.0
C5739 C 0.61129 1.00338 0.33325 0.0
C5740 C 0.61 0.97966 0.33153 0.0
C5741 C 0.63244 1.01522 0.33188 0.0
C5742 C 0.62982 0.96815 0.32581 0.0
C5743 C 0.65072 0.97985 0.32373 0.0
H5744 H 0.12025 0.61791 0.3651 0.0
H5745 H 0.06368 0.64274 0.33435 0.0
H5746 H 0.08038 0.62991 0.2991 0.0
H5747 H 0.1201 0.6221 0.28333 0.0
H5748 H 0.15799 0.57436 0.31339 0.0
H5749 H 0.13602 0.57937 0.34769 0.0
C5750 C 0.1077 0.61537 0.35277 0.0
C5751 C 0.09164 0.63202 0.35255 0.0
C5752 C 0.11263 0.60182 0.33354 0.0
C5753 C 0.07684 0.63066 0.33462 0.0
C5754 C 0.08562 0.6223 0.31396 0.0
C5755 C 0.12006 0.60874 0.29464 0.0
C5756 C 0.14044 0.598 0.29548 0.0
C5757 C 0.10482 0.60917 0.31325 0.0
C5758 C 0.1425 0.58289 0.3127 0.0
C5759 C 0.13007 0.58645 0.33276 0.0
H5760 H 0.52407 0.04818 0.7783 0.0
H5761 H 0.47968 0.98902 0.77105 0.0
H5762 H 0.49072 0.97594 0.8069 0.0
H5763 H 0.51042 0.9825 0.84106 0.0
H5764 H 0.56648 1.03097 0.84273 0.0
H5765 H 0.55236 0.04891 0.80941 0.0
C5766 C 0.51814 1.03171 0.78381 0.0
C5767 C 0.50179 1.01943 0.77125 0.0
C5768 C 0.52532 1.0236 0.80431 0.0
C5769 C 0.49301 0.99859 0.77956 0.0
C5770 C 0.49889 0.99128 0.80045 0.0
C5771 C 0.51939 0.99736 0.83457 0.0
C5772 C 0.53865 1.0062 0.84543 0.0
C5773 C 0.51427 1.00423 0.81326 0.0
C5774 C 0.55087 1.02452 0.83566 0.0
C5775 C 0.54324 1.03423 0.81612 0.0
H5776 H 0.11971 0.47113 0.81073 0.0
H5777 H 0.10732 0.49874 0.87708 0.0
H5778 H 0.1386 0.52558 0.87369 0.0
H5779 H 0.16966 0.54279 0.851 0.0
H5780 H 0.18032 0.5184 0.78302 0.0
H5781 H 0.15059 0.48938 0.78719 0.0
C5782 C 0.12377 0.48319 0.82431 0.0
C5783 C 0.10973 0.484 0.84389 0.0
C5784 C 0.14202 0.4993 0.82171 0.0
C5785 C 0.11616 0.49905 0.86142 0.0
C5786 C 0.13455 0.51427 0.85951 0.0
C5787 C 0.16551 0.53106 0.83717 0.0
C5788 C 0.17815 0.53207 0.81687 0.0
C5789 C 0.14742 0.51495 0.83955 0.0
C5790 C 0.17207 0.51703 0.79911 0.0
C5791 C 0.15459 0.5006 0.80145 0.0
H5792 H 0.62488 0.11896 0.78313 0.0
H5793 H 0.6392 0.0551 0.80984 0.0
H5794 H 0.61413 0.06505 0.84302 0.0
H5795 H 0.61725 0.1074 0.86022 0.0
H5796 H 0.57369 0.15151 0.83081 0.0
H5797 H 0.59009 0.13601 0.79603 0.0
C5798 C 0.61985 0.10461 0.7933 0.0
C5799 C 0.63459 0.08682 0.79434 0.0
C5800 C 0.60292 0.10747 0.8098 0.0
C5801 C 0.62889 0.06969 0.80959 0.0
C5802 C 0.61498 0.07517 0.82841 0.0
C5803 C 0.60384 0.10935 0.84915 0.0
C5804 C 0.59327 0.13025 0.84993 0.0
C5805 C 0.60449 0.09581 0.82946 0.0
C5806 C 0.58167 0.13543 0.83088 0.0
C5807 C 0.58994 0.12634 0.81043 0.0
H5808 H 0.06474 0.64639 0.81545 0.0
H5809 H 1.01334 0.69396 0.82412 0.0
H5810 H 0.9851 0.66479 0.81134 0.0
H5811 H 0.97682 0.62351 0.79854 0.0
H5812 H 0.03359 0.58762 0.77289 0.0
H5813 H 0.05934 0.61348 0.79059 0.0
C5814 C 0.0481 0.65096 0.81274 0.0
C5815 C 0.04166 0.67185 0.82038 0.0
C5816 C 0.03321 0.6356 0.8029 0.0
C5817 C 1.01884 0.67738 0.81882 0.0
C5818 C 1.00277 0.66085 0.8113 0.0
C5819 C 0.9949 0.62169 0.79676 0.0
C5820 C 1.0037 0.60153 0.78731 0.0
C5821 C 1.00993 0.63948 0.80362 0.0
C5822 C 1.02673 0.60068 0.78302 0.0
C5823 C 0.04151 0.61643 0.79221 0.0
H5824 H 0.38773 0.45585 0.15482 0.0
H5825 H 0.37648 0.42569 0.21843 0.0
H5826 H 0.34318 0.4476 0.22613 0.0
H5827 H 0.31131 0.46211 0.20641 0.0
H5828 H 0.32484 0.50479 0.14959 0.0
H5829 H 0.3616 0.48628 0.14322 0.0
C5830 C 0.37854 0.45501 0.17089 0.0
C5831 C 0.37876 0.43467 0.18342 0.0
C5832 C 0.35929 0.46839 0.17454 0.0
C5833 C 0.37215 0.43785 0.20614 0.0
C5834 C 0.35286 0.4501 0.21053 0.0
C5835 C 0.32271 0.46914 0.19355 0.0
C5836 C 0.31489 0.4842 0.17802 0.0
C5837 C 0.34517 0.46352 0.19349 0.0
C5838 C 0.33003 0.49229 0.16111 0.0
C5839 C 0.35158 0.48302 0.15836 0.0
H5840 H 0.3212 0.66168 1.03323 0.0
H5841 H 0.32642 0.62525 0.09448 0.0
H5842 H 0.33768 0.59177 0.07269 0.0
H5843 H 0.3454 0.57226 0.03553 0.0
H5844 H 0.33282 0.60703 0.97466 0.0
H5845 H 0.32498 0.64115 0.99667 0.0
C5846 C 0.32431 0.64637 0.04183 0.0
C5847 C 0.32234 0.64619 0.0655 0.0
C5848 C 0.32928 0.62655 1.02912 0.0
C5849 C 0.32776 0.62624 0.07629 0.0
C5850 C 0.334 0.60684 0.06378 0.0
C5851 C 0.34042 0.58717 1.02713 0.0
C5852 C 0.34075 0.58742 1.00331 0.0
C5853 C 0.3345 0.60665 0.0401 0.0
C5854 C 0.33342 0.60661 0.99289 0.0
C5855 C 0.32857 0.62615 1.00555 0.0
H5856 H 0.45073 0.34539 0.04325 0.0
H5857 H 0.50126 0.33099 0.08815 0.0
H5858 H 0.52957 0.33092 0.05636 0.0
H5859 H 0.53048 0.30506 1.02162 0.0
H5860 H 0.46899 0.29697 0.98494 0.0
H5861 H 0.45346 0.32927 1.00529 0.0
C5862 C 0.46819 0.34179 0.04599 0.0
C5863 C 0.4728 0.33103 0.06602 0.0
C5864 C 0.48153 0.33406 1.02744 0.0
C5865 C 0.49579 0.33292 0.07126 0.0
C5866 C 0.51181 0.33178 0.05336 0.0
C5867 C 0.51363 0.31031 1.01831 0.0
C5868 C 0.50057 0.29791 1.00262 0.0
C5869 C 0.50363 0.32719 1.03185 0.0
C5870 C 0.47889 0.30531 0.99803 0.0
C5871 C 0.47037 0.32449 1.00891 0.0
H5872 H 0.81698 0.52003 0.98983 0.0
H5873 H 0.8188 0.56401 0.04877 0.0
H5874 H 0.83884 0.59371 1.02612 0.0
H5875 H 0.8534 0.60594 0.98839 0.0
H5876 H 0.86488 0.55473 0.93691 0.0
H5877 H 0.84594 0.52627 0.9605 0.0
C5878 C 0.82164 0.53619 0.99787 0.0
C5879 C 0.81361 0.54137 1.01985 0.0
C5880 C 0.83746 0.5503 0.98725 0.0
C5881 C 0.82241 0.56088 1.03105 0.0
C5882 C 0.83512 0.57713 1.01877 0.0
C5883 C 0.85294 0.58828 0.9828 0.0
C5884 C 0.85631 0.58238 0.95982 0.0
C5885 C 0.84246 0.57198 0.99665 0.0
C5886 C 0.8594 0.55962 0.95393 0.0
C5887 C 0.84786 0.54353 0.96689 0.0
H5888 H 0.70594 0.80248 0.95329 0.0
H5889 H 0.68681 0.75693 1.00709 0.0
H5890 H 0.65204 0.77688 1.014 0.0
H5891 H 0.62677 0.80663 1.00367 0.0
H5892 H 0.64154 0.84338 0.94377 0.0
H5893 H 0.68063 0.83172 0.94349 0.0
C5894 C 0.6941 0.7962 0.96611 0.0
C5895 C 0.69927 0.7777 0.97936 0.0
C5896 C 0.67412 0.80756 0.96997 0.0
C5897 C 0.68325 0.77062 0.99619 0.0
C5898 C 0.66362 0.78239 1.00058 0.0
C5899 C 0.63848 0.81162 0.99039 0.0
C5900 C 0.63066 0.82314 0.9722 0.0
C5901 C 0.65894 0.80083 0.98753 0.0
C5902 C 0.64682 0.8331 0.95731 0.0
C5903 C 0.66882 0.82553 0.95644 0.0
H5904 H 0.7841 0.67686 0.14871 0.0
H5905 H 0.79087 0.73269 0.10682 0.0
H5906 H 0.81085 0.70805 0.07757 0.0
H5907 H 0.84468 0.67466 0.08554 0.0
H5908 H 0.81172 0.61612 0.10707 0.0
H5909 H 0.77905 0.64045 0.12072 0.0
C5910 C 0.78723 0.68395 0.13294 0.0
C5911 C 0.78995 0.70733 0.13223 0.0
C5912 C 0.79653 0.6702 0.11578 0.0
C5913 C 0.79395 0.71536 0.11012 0.0
C5914 C 0.80522 0.70144 0.09357 0.0
C5915 C 0.83074 0.66739 0.09425 0.0
C5916 C 0.833 0.64538 0.10254 0.0
C5917 C 0.81062 0.67952 0.09958 0.0
C5918 C 0.81227 0.63432 0.10613 0.0
C5919 C 0.79497 0.64724 0.11586 0.0
H5920 H 0.54546 0.78372 0.10099 0.0
H5921 H 0.52466 0.84515 0.13501 0.0
H5922 H 0.56362 0.85655 0.1418 0.0
H5923 H 0.59942 0.84048 0.15472 0.0
H5924 H 0.58005 0.77152 0.16538 0.0
H5925 H 0.56559 0.76613 0.12873 0.0
C5926 C 0.54976 0.79983 0.10948 0.0
C5927 C 0.53236 0.81267 0.11793 0.0
C5928 C 0.56883 0.80193 0.12221 0.0
C5929 C 0.53762 0.834 0.12882 0.0
C5930 C 0.55997 0.84045 0.13312 0.0
C5931 C 0.59219 0.82443 0.14843 0.0
C5932 C 0.59423 0.80498 0.16071 0.0
C5933 C 0.57556 0.82344 0.13217 0.0
C5934 C 0.58187 0.78533 0.15458 0.0
C5935 C 0.57307 0.78258 0.13359 0.0
H5936 H 0.66643 0.27478 0.09858 0.0
H5937 H 0.6589 0.34234 0.08035 0.0
H5938 H 0.61935 0.34011 0.09505 0.0
H5939 H 0.58725 0.31616 0.1117 0.0
H5940 H 0.59403 0.24565 0.11743 0.0
H5941 H 0.63363 0.24945 0.10506 0.0
C5942 C 0.65696 0.28911 0.09961 0.0
C5943 C 0.66637 0.30849 0.09005 0.0
C5944 C 0.63414 0.28625 0.10465 0.0
C5945 C 0.65254 0.32718 0.08859 0.0
C5946 C 0.62979 0.32567 0.09631 0.0
C5947 C 0.59754 0.3016 0.11069 0.0
C5948 C 0.5914 0.28178 0.12291 0.0
C5949 C 0.62037 0.30489 0.10393 0.0
C5950 C 0.60127 0.26232 0.11386 0.0
C5951 C 0.62415 0.26449 0.10782 0.0
H5952 H 1.00989 0.81651 0.69278 0.0
H5953 H 0.05124 0.82541 0.63291 0.0
H5954 H 1.02029 0.84442 0.61568 0.0
H5955 H 0.99217 0.87509 0.62614 0.0
H5956 H 0.94581 0.85833 0.6813 0.0
H5957 H 0.97113 0.83081 0.69391 0.0
C5958 C 1.01231 0.82291 0.67589 0.0
C5959 C 0.03402 0.82385 0.66572 0.0
C5960 C 0.99622 0.83679 0.66744 0.0
C5961 C 0.03565 0.82793 0.64254 0.0
C5962 C 1.01893 0.84035 0.63325 0.0
C5963 C 0.98822 0.86634 0.64158 0.0
C5964 C 0.96762 0.87053 0.6534 0.0
C5965 C 1.00129 0.84824 0.64735 0.0
C5966 C 0.96187 0.85707 0.6723 0.0
C5967 C 0.97604 0.84059 0.67928 0.0
H5968 H 0.32193 0.07399 0.62472 0.0
H5969 H 0.32386 1.03396 0.6833 0.0
H5970 H 0.3352 1.00118 0.65994 0.0
H5971 H 0.34132 0.98291 0.62143 0.0
H5972 H 0.34901 1.02766 0.56559 0.0
H5973 H 0.33546 0.05856 0.58816 0.0
C5974 C 0.32508 0.05834 0.63228 0.0
C5975 C 0.32073 0.05628 0.6554 0.0
C5976 C 0.33224 0.03979 0.61878 0.0
C5977 C 0.32592 1.03579 0.66524 0.0
C5978 C 0.33244 1.01697 0.65187 0.0
C5979 C 0.34035 0.99944 0.61426 0.0
C5980 C 0.345 1.00198 0.59095 0.0
C5981 C 0.33493 1.0185 0.62836 0.0
C5982 C 0.34361 1.02392 0.58246 0.0
C5983 C 0.33661 0.04223 0.59579 0.0
H5984 H 0.19714 0.34173 0.64994 0.0
H5985 H 0.12768 0.3541 0.63783 0.0
H5986 H 0.12848 0.32705 0.6052 0.0
H5987 H 0.15304 0.31359 0.57416 0.0
H5988 H 0.22152 0.30014 0.58632 0.0
H5989 H 0.21666 0.31201 0.62609 0.0
C5990 C 0.18227 0.33887 0.63987 0.0
C5991 C 0.1629 0.35148 0.64459 0.0
C5992 C 0.18263 0.32316 0.62177 0.0
C5993 C 0.14315 0.34581 0.63315 0.0
C5994 C 0.14347 0.33012 0.61501 0.0
C5995 C 0.16656 0.31208 0.58586 0.0
C5996 C 0.18878 0.31118 0.57745 0.0
C5997 C 0.16365 0.32058 0.608 0.0
C5998 C 0.20485 0.30453 0.5926 0.0
C5999 C 0.20237 0.31207 0.61515 0.0
H6000 H 0.80703 0.09744 0.74046 0.0
H6001 H 0.81349 0.04795 0.68728 0.0
H6002 H 0.79744 0.07066 0.66158 0.0
H6003 H 0.81993 0.10296 0.64997 0.0
H6004 H 0.84083 0.15372 0.69924 0.0
H6005 H 0.81584 0.136 0.72813 0.0
C6006 C 0.80436 0.09175 0.7231 0.0
C6007 C 0.81221 0.0706 0.71602 0.0
C6008 C 0.806 0.10768 0.70617 0.0
C6009 C 0.80583 0.06229 0.69465 0.0
C6010 C 0.79891 0.07704 0.67887 0.0
C6011 C 0.81857 0.11029 0.66697 0.0
C6012 C 0.83366 0.12773 0.67349 0.0
C6013 C 0.80511 0.09961 0.68332 0.0
C6014 C 0.83101 0.13846 0.6949 0.0
C6015 C 0.81636 0.12882 0.71111 0.0
H6016 H 1.01688 0.35127 0.49486 0.0
H6017 H 0.07284 0.34167 0.53726 0.0
H6018 H 0.04715 0.32413 0.56564 0.0
H6019 H 1.0071 0.32096 0.57962 0.0
H6020 H 0.95407 0.31975 0.53198 0.0
H6021 H 0.98215 0.32696 0.50141 0.0
C6022 C 1.02344 0.34559 0.51046 0.0
C6023 C 0.04582 0.35134 0.51628 0.0
C6024 C 1.00974 0.33204 0.52431 0.0
C6025 C 0.05487 0.34068 0.53459 0.0
C6026 C 0.04047 0.32954 0.55005 0.0
C6027 C 1.00149 0.32128 0.56252 0.0
C6028 C 0.97859 0.32402 0.55813 0.0
C6029 C 1.01747 0.32658 0.54557 0.0
C6030 C 0.97179 0.32106 0.53579 0.0
C6031 C 0.98761 0.32575 0.51854 0.0
H6032 H 0.81865 1.01787 0.5691 0.0
H6033 H 0.79273 0.98026 0.51168 0.0
H6034 H 0.82336 0.95448 0.5123 0.0
H6035 H 0.84501 0.93375 0.53746 0.0
H6036 H 0.8608 0.95937 0.60079 0.0
H6037 H 0.84799 0.99796 0.5924 0.0
C6038 C 0.81887 1.00322 0.55773 0.0
C6039 C 0.80259 1.00029 0.5411 0.0
C6040 C 0.8344 0.98628 0.5601 0.0
C6041 C 0.80388 0.98176 0.5257 0.0
C6042 C 0.82167 0.96741 0.52552 0.0
C6043 C 0.84579 0.9483 0.54911 0.0
C6044 C 0.84375 0.94439 0.57196 0.0
C6045 C 0.83569 0.96827 0.54357 0.0
C6046 C 0.85281 0.96247 0.5852 0.0
C6047 C 0.84631 0.98426 0.58005 0.0
H6048 H 0.06699 0.80731 0.48855 0.0
H6049 H 0.08546 0.87298 0.46693 0.0
H6050 H 0.10529 0.883 0.50001 0.0
H6051 H 0.11627 0.87254 0.53651 0.0
H6052 H 0.13227 0.80291 0.53202 0.0
H6053 H 0.09668 0.79386 0.51339 0.0
C6054 C 0.07456 0.82398 0.49193 0.0
C6055 C 0.07268 0.8411 0.47655 0.0
C6056 C 0.08932 0.82827 0.50978 0.0
C6057 C 0.08618 0.86062 0.4788 0.0
C6058 C 0.0967 0.86651 0.49829 0.0
C6059 C 0.11212 0.85511 0.53183 0.0
C6060 C 0.12883 0.8397 0.53181 0.0
C6061 C 0.09714 0.85072 0.5148 0.0
C6062 C 0.12136 0.81652 0.52926 0.0
C6063 C 0.10081 0.81097 0.51887 0.0
H6064 H 0.31325 0.22603 0.54246 0.0
H6065 H 0.33671 0.15929 0.54881 0.0
H6066 H 0.34457 0.15601 0.50866 0.0
H6067 H 0.35727 0.17855 0.47786 0.0
H6068 H 0.32452 0.24076 0.4644 0.0
H6069 H 0.30694 0.23942 0.50243 0.0
C6070 C 0.31908 0.2104 0.53471 0.0
C6071 C 0.33003 0.19504 0.54783 0.0
C6072 C 0.32312 0.20892 0.51127 0.0
C6073 C 0.33228 0.17314 0.53858 0.0
C6074 C 0.33732 0.17135 0.51566 0.0
C6075 C 0.34601 0.19189 0.48187 0.0
C6076 C 0.34299 0.21007 0.46755 0.0
C6077 C 0.33515 0.19047 0.5026 0.0
C6078 C 0.32808 0.22688 0.47501 0.0
C6079 C 0.31806 0.2262 0.49678 0.0
H6080 H 0.64083 0.0516 0.86134 0.0
H6081 H 0.70455 1.03505 0.83105 0.0
H6082 H 0.68825 0.99866 0.81653 0.0
H6083 H 0.65415 0.97299 0.81082 0.0
H6084 H 0.58967 1.0 0.82957 0.0
H6085 H 0.60696 1.02937 0.85135 0.0
C6086 C 0.65059 0.04071 0.85034 0.0
C6087 C 0.67287 0.04686 0.84535 0.0
C6088 C 0.64087 1.02091 0.84112 0.0
C6089 C 0.68664 1.03133 0.83352 0.0
C6090 C 0.67744 1.01045 0.82556 0.0
C6091 C 0.64395 0.9854 0.8196 0.0
C6092 C 0.62022 0.98272 0.8202 0.0
C6093 C 0.65428 1.00528 0.82886 0.0
C6094 C 0.6075 0.99956 0.83097 0.0
C6095 C 0.61763 1.0174 0.84269 0.0
H6096 H 0.08499 0.64161 0.7879 0.0
H6097 H 0.14513 0.64066 0.74709 0.0
H6098 H 0.15975 0.6147 0.77302 0.0
H6099 H 0.1653 0.60881 0.8122 0.0
H6100 H 0.11147 0.61795 0.85829 0.0
H6101 H 0.08597 0.62458 0.82862 0.0
C6102 C 0.10159 0.63581 0.78549 0.0
C6103 C 0.11415 0.64498 0.76707 0.0
C6104 C 0.11262 0.62478 0.80258 0.0
C6105 C 0.13534 0.63631 0.76218 0.0
C6106 C 0.14518 0.62334 0.77785 0.0
C6107 C 0.14778 0.61122 0.81586 0.0
C6108 C 0.13899 0.60975 0.83809 0.0
C6109 C 0.13509 0.61933 0.79867 0.0
C6110 C 0.11696 0.61572 0.84169 0.0
C6111 C 0.10319 0.62143 0.82424 0.0
H6112 H 0.47164 0.13658 0.81874 0.0
H6113 H 0.51054 0.07723 0.80526 0.0
H6114 H 0.54358 0.10117 0.79683 0.0
H6115 H 0.55807 0.1389 0.78563 0.0
H6116 H 0.52774 0.19734 0.81475 0.0
H6117 H 0.49226 0.1747 0.82005 0.0
C6118 C 0.4873 0.12887 0.81403 0.0
C6119 C 0.48832 0.10504 0.81228 0.0
C6120 C 0.50685 0.14269 0.8103 0.0
C6121 C 0.50886 0.0954 0.80588 0.0
C6122 C 0.52778 0.10904 0.80082 0.0
C6123 C 0.54528 0.14615 0.796 0.0
C6124 C 0.54689 0.1691 0.80172 0.0
C6125 C 0.5267 0.13257 0.8024 0.0
C6126 C 0.52754 0.17927 0.81108 0.0
C6127 C 0.50731 0.1663 0.81435 0.0
H6128 H 0.09375 0.50482 0.80813 0.0
H6129 H 0.04404 0.51942 0.76291 0.0
H6130 H 0.03988 0.55569 0.78076 0.0
H6131 H 0.04019 0.57856 0.8149 0.0
H6132 H 0.03846 0.5227 0.85528 0.0
H6133 H 0.07807 0.51489 0.84434 0.0
C6134 C 0.0844 0.51768 0.80095 0.0
C6135 C 0.07149 0.51063 0.78245 0.0
C6136 C 0.07597 0.53501 0.81538 0.0
C6137 C 0.05601 0.52544 0.7753 0.0
C6138 C 0.05382 0.54669 0.78558 0.0
C6139 C 0.04929 0.56505 0.8213 0.0
C6140 C 0.03819 0.55327 0.83876 0.0
C6141 C 0.06287 0.55183 0.80643 0.0
C6142 C 0.0486 0.53416 0.8454 0.0
C6143 C 0.07015 0.5288 0.83729 0.0
H6144 H 0.63787 0.10015 0.35266 0.0
H6145 H 0.68853 0.1537 0.36269 0.0
H6146 H 0.68254 0.16706 0.32566 0.0
H6147 H 0.66359 0.16338 0.2907 0.0
H6148 H 0.60393 0.12083 0.2844 0.0
H6149 H 0.60869 0.10839 0.32347 0.0
C6150 C 0.64601 0.11607 0.34798 0.0
C6151 C 0.6633 0.12583 0.36122 0.0
C6152 C 0.64093 0.12565 0.3274 0.0
C6153 C 0.67495 0.14556 0.35336 0.0
C6154 C 0.67185 0.15312 0.33186 0.0
C6155 C 0.65296 0.14933 0.29647 0.0
C6156 C 0.6343 0.14193 0.28381 0.0
C6157 C 0.6557 0.14228 0.31832 0.0
C6158 C 0.61902 0.12604 0.2933 0.0
C6159 C 0.62172 0.11895 0.31547 0.0
H6160 H 0.05416 0.64132 0.275 0.0
H6161 H 0.03701 0.69393 0.32328 0.0
H6162 H 1.00127 0.67341 0.33222 0.0
H6163 H 0.97722 0.63888 0.3288 0.0
H6164 H 0.99797 0.58312 0.286 0.0
H6165 H 1.02965 0.60651 0.27126 0.0
C6166 C 0.04345 0.64754 0.28852 0.0
C6167 C 0.04925 0.668 0.29997 0.0
C6168 C 1.02359 0.63518 0.2942 0.0
C6169 C 0.03356 0.67744 0.31533 0.0
C6170 C 1.0131 0.66584 0.32029 0.0
C6171 C 0.98879 0.63184 0.31654 0.0
C6172 C 0.98539 0.60942 0.30869 0.0
C6173 C 1.00829 0.64444 0.31027 0.0
C6174 C 1.00039 0.60041 0.29238 0.0
C6175 C 1.01884 0.6136 0.28443 0.0
H6176 H 0.50257 1.01 0.33298 0.0
H6177 H 0.55286 0.06417 0.33186 0.0
H6178 H 0.57873 0.03825 0.31078 0.0
H6179 H 0.58196 1.00356 0.28421 0.0
H6180 H 0.51916 0.96707 0.27131 0.0
H6181 H 0.5009 0.98591 0.30056 0.0
C6182 C 0.51928 1.01659 0.32843 0.0
C6183 C 0.52641 0.03803 0.33663 0.0
C6184 C 0.52986 1.00722 0.30948 0.0
C6185 C 0.54749 0.0468 0.32837 0.0
C6186 C 0.56155 1.03301 0.31465 0.0
C6187 C 0.56385 1.00111 0.28664 0.0
C6188 C 0.55209 0.98335 0.27481 0.0
C6189 C 0.55212 1.01389 0.30349 0.0
C6190 C 0.52856 0.98147 0.27798 0.0
C6191 C 0.51792 0.99188 0.29595 0.0
H6192 H 0.14269 0.48912 0.29461 0.0
H6193 H 0.10351 0.4731 0.35491 0.0
H6194 H 0.12287 0.50434 0.37557 0.0
H6195 H 0.1503 0.53604 0.37592 0.0
H6196 H 0.19158 0.55116 0.31705 0.0
H6197 H 0.17249 0.51965 0.29588 0.0
C6198 C 0.13887 0.49224 0.31239 0.0
C6199 C 0.12195 0.47911 0.32348 0.0
C6200 C 0.15025 0.50989 0.32405 0.0
C6201 C 0.11647 0.48332 0.34627 0.0
C6202 C 0.12757 0.50098 0.358 0.0
C6203 C 0.15482 0.53256 0.35838 0.0
C6204 C 0.17084 0.54662 0.3474 0.0
C6205 C 0.14426 0.51442 0.34694 0.0
C6206 C 0.17819 0.54113 0.32527 0.0
C6207 C 0.16742 0.52317 0.31334 0.0
H6208 H 0.83238 0.72276 1.01181 0.0
H6209 H 0.82605 0.66535 0.05198 0.0
H6210 H 0.84761 0.64276 1.02356 0.0
H6211 H 0.87849 0.64505 0.99364 0.0
H6212 H 0.88093 0.7028 0.95086 0.0
H6213 H 0.85209 0.72083 0.97465 0.0
C6214 C 0.83579 0.70526 1.01442 0.0
C6215 C 0.83524 0.69716 0.03646 0.0
C6216 C 0.84921 0.69371 0.99831 0.0
C6217 C 0.83356 0.67349 0.03751 0.0
C6218 C 0.84559 0.66065 1.02133 0.0
C6219 C 0.87332 0.66191 0.99006 0.0
C6220 C 0.88362 0.67363 0.972 0.0
C6221 C 0.85606 0.67177 1.00307 0.0
C6222 C 0.8748 0.69439 0.96595 0.0
C6223 C 0.85777 0.70439 0.97903 0.0
H6224 H 0.8454 0.48472 0.12014 0.0
H6225 H 0.84377 0.52675 0.06232 0.0
H6226 H 0.83066 0.55772 0.08515 0.0
H6227 H 0.81893 0.57385 0.1213 0.0
H6228 H 0.82491 0.53543 0.1811 0.0
H6229 H 0.83817 0.50309 0.15828 0.0
C6230 C 0.84276 0.50072 0.11262 0.0
C6231 C 0.84588 0.5028 0.0891 0.0
C6232 C 0.83615 0.51957 0.12636 0.0
C6233 C 0.84125 0.5238 0.07993 0.0
C6234 C 0.83394 0.542 0.09311 0.0
C6235 C 0.82354 0.55859 0.12942 0.0
C6236 C 0.82024 0.55679 0.15273 0.0
C6237 C 0.83137 0.54018 0.11631 0.0
C6238 C 0.82663 0.53694 0.16297 0.0
C6239 C 0.83424 0.5184 0.14993 0.0
H6240 H 0.72329 0.79865 0.07455 0.0
H6241 H 0.65859 0.82005 0.06098 0.0
H6242 H 0.64656 0.81751 0.10011 0.0
H6243 H 0.66217 0.82843 0.13544 0.0
H6244 H 0.73194 0.81489 0.14845 0.0
H6245 H 0.73486 0.79427 0.11315 0.0
C6246 C 0.70602 0.80099 0.08052 0.0
C6247 C 0.69325 0.81601 0.06909 0.0
C6248 C 0.70084 0.8004 0.10369 0.0
C6249 C 0.66997 0.81312 0.07266 0.0
C6250 C 0.66282 0.81109 0.0952 0.0
C6251 C 0.67789 0.8204 0.13167 0.0
C6252 C 0.69747 0.82568 0.14408 0.0
C6253 C 0.67943 0.80824 0.11127 0.0
C6254 C 0.71715 0.81381 0.13832 0.0
C6255 C 0.71866 0.80086 0.11842 0.0
H6256 H 0.31915 0.60999 0.14795 0.0
H6257 H 0.30923 0.65603 0.20505 0.0
H6258 H 0.28804 0.62662 0.22513 0.0
H6259 H 0.29505 0.58711 0.23221 0.0
H6260 H 0.31839 0.54498 0.17632 0.0
H6261 H 0.30883 0.57159 0.15038 0.0
C6262 C 0.31178 0.61417 0.16441 0.0
C6263 C 0.31858 0.63395 0.17631 0.0
C6264 C 0.30075 0.59692 0.17616 0.0
C6265 C 0.30701 0.63956 0.19678 0.0
C6266 C 0.29417 0.62297 0.20802 0.0
C6267 C 0.29622 0.58338 0.21415 0.0
C6268 C 0.30906 0.56536 0.20638 0.0
C6269 C 0.29429 0.60083 0.1992 0.0
C6270 C 0.30907 0.55907 0.18325 0.0
C6271 C 0.30405 0.57495 0.16796 0.0
H6272 H 0.49977 0.37234 0.1142 0.0
H6273 H 0.45288 0.36575 0.17043 0.0
H6274 H 0.47537 0.33703 0.18586 0.0
H6275 H 0.51349 0.32133 0.18812 0.0
H6276 H 0.55813 0.32504 0.13043 0.0
H6277 H 0.53023 0.34401 0.10985 0.0
C6278 C 0.496 0.36663 0.13104 0.0
C6279 C 0.47618 0.37391 0.14232 0.0
C6280 C 0.50833 0.34921 0.13944 0.0
C6281 C 0.46912 0.36277 0.16233 0.0
C6282 C 0.48153 0.34554 0.17083 0.0
C6283 C 0.51706 0.32645 0.17093 0.0
C6284 C 0.53919 0.32572 0.16188 0.0
C6285 C 0.50195 0.3399 0.16035 0.0
C6286 C 0.54212 0.32796 0.13858 0.0
C6287 C 0.52667 0.34015 0.12726 0.0
H6288 H 0.35413 0.44204 0.06506 0.0
H6289 H 0.31993 0.4773 0.11915 0.0
H6290 H 0.33097 0.5127 0.10474 0.0
H6291 H 0.32155 0.52714 0.0683 0.0
H6292 H 0.32379 0.47763 1.01377 0.0
H6293 H 0.35382 0.45903 1.03005 0.0
C6294 C 0.35016 0.45788 0.07383 0.0
C6295 C 0.3341 0.45686 0.09121 0.0
C6296 C 0.34986 0.47763 0.06166 0.0
C6297 C 0.33161 0.47675 0.10492 0.0
C6298 C 0.33687 0.49767 0.09576 0.0
C6299 C 0.32918 0.5125 0.06016 0.0
C6300 C 0.3215 0.50443 0.0394 0.0
C6301 C 0.3412 0.49762 0.07255 0.0
C6302 C 0.33107 0.48545 1.02867 0.0
C6303 C 0.34787 0.47426 0.03857 0.0
H6304 H 0.6461 0.35018 0.98847 0.0
H6305 H 0.61249 0.34652 0.0534 0.0
H6306 H 0.57736 0.33208 0.03541 0.0
H6307 H 0.55631 0.32931 0.99932 0.0
H6308 H 0.59477 0.32098 0.93684 0.0
H6309 H 0.62974 0.32846 0.95665 0.0
C6310 C 0.6309 0.34657 0.99866 0.0
C6311 C 0.62995 0.35312 1.02163 0.0
C6312 C 0.61271 0.33504 0.98892 0.0
C6313 C 0.61174 0.34526 0.03523 0.0
C6314 C 0.59239 0.33576 1.02513 0.0
C6315 C 0.57233 0.32781 0.99022 0.0
C6316 C 0.57327 0.32708 0.96651 0.0
C6317 C 0.59237 0.33205 1.00166 0.0
C6318 C 0.59393 0.32325 0.95506 0.0
C6319 C 0.61385 0.32803 0.96621 0.0
H6320 H 0.50742 0.81658 0.07661 0.0
H6321 H 0.45207 0.82111 1.03304 0.0
H6322 H 0.47801 0.83296 1.0021 0.0
H6323 H 0.5132 0.85719 0.99539 0.0
H6324 H 0.57086 0.84452 0.03449 0.0
H6325 H 0.54701 0.81934 0.05867 0.0
C6326 C 0.50102 0.81955 0.06017 0.0
C6327 C 0.47795 0.82321 0.0579 0.0
C6328 C 0.51604 0.82699 0.0429 0.0
C6329 C 0.47005 0.82196 0.03578 0.0
C6330 C 0.4846 0.82968 1.0184 0.0
C6331 C 0.52032 0.85032 1.01018 0.0
C6332 C 0.54305 0.85555 1.01547 0.0
C6333 C 0.50709 0.83546 1.02335 0.0
C6334 C 0.5528 0.84322 1.03223 0.0
C6335 C 0.53938 0.82852 0.04557 0.0
loop_
_geom_bond_atom_site_label_1
_geom_bond_atom_site_label_2
_geom_bond_distance
_geom_bond_site_symmetry_2
_ccdc_geom_bond_type
Tb0 N29 2.617 . S
Tb0 N35 2.572 . S
Tb0 O44 2.465 . S
Tb0 O45 2.387 . S
Tb0 O47 2.428 . S
Tb0 O48 2.308 . S
Tb0 O52 2.349 . S
Tb0 O55 2.393 . S
Tb0 C64 2.802 . S
C1 N2 1.379 . S
C1 C4 1.416 . S
C1 C8 1.424 . S
N2 C1 1.379 . S
N2 C5 1.334 1_655 S
N2 Tb11 2.617 1_655 S
C3 C5 1.371 1_655 S
C3 C6 1.339 . S
C3 H23 0.930 . S
C4 C1 1.416 . S
C4 C6 1.416 . S
C4 C10 1.448 . S
C5 N2 1.334 1_455 S
C5 C3 1.371 1_455 S
C5 H16 0.951 . S
C6 C3 1.339 . S
C6 C4 1.416 . S
C6 H27 0.930 . S
C7 C8 1.413 . S
C7 C9 1.427 . S
C7 C13 1.416 . S
C8 C1 1.424 . S
C8 C7 1.413 . S
C8 N12 1.361 . S
C9 C7 1.427 . S
C9 C10 1.328 . S
C9 H24 0.929 . S
C10 C4 1.448 . S
C10 C9 1.328 . S
C10 H25 0.930 . S
Tb11 N2 2.617 1_455 S
Tb11 N12 2.572 1_455 S
Tb11 O46 2.349 . S
Tb11 O49 2.393 . S
Tb11 O50 2.465 . S
Tb11 O51 2.387 . S
Tb11 O53 2.428 . S
Tb11 O54 2.308 . S
Tb11 C75 2.802 . S
N12 C8 1.361 . S
N12 Tb11 2.572 1_655 S
N12 C14 1.340 . S
C13 C7 1.416 . S
C13 C15 1.332 . S
C13 H21 0.931 . S
C14 N12 1.340 . S
C14 C15 1.407 . S
C14 H20 0.930 1_655 S
C15 C13 1.332 . S
C15 C14 1.407 . S
C15 H17 0.929 . S
H16 C5 0.951 . S
H17 C15 0.929 . S
H18 C33 0.930 . S
H19 C40 0.929 . S
H20 C14 0.930 1_455 S
H21 C13 0.931 . S
H22 C36 0.930 . S
H23 C3 0.930 . S
H24 C9 0.929 . S
H25 C10 0.930 . S
H26 C31 0.930 . S
H27 C6 0.930 . S
H28 C39 0.931 . S
N29 Tb0 2.617 . S
N29 C30 1.379 . S
N29 C33 1.334 . S
C30 N29 1.379 . S
C30 C32 1.416 . S
C30 C38 1.424 . S
C31 H26 0.930 . S
C31 C33 1.390 . S
C31 C34 1.339 . S
C32 C30 1.416 . S
C32 C34 1.416 . S
C32 C65 1.448 . S
C33 H18 0.930 . S
C33 N29 1.334 . S
C33 C31 1.390 . S
C34 C31 1.339 . S
C34 C32 1.416 . S
C34 H41 0.930 . S
N35 Tb0 2.572 . S
N35 C36 1.340 . S
N35 C38 1.361 . S
C36 H22 0.930 . S
C36 N35 1.340 . S
C36 C40 1.407 . S
C37 C38 1.413 . S
C37 C39 1.416 . S
C37 C66 1.427 . S
C38 C30 1.424 . S
C38 N35 1.361 . S
C38 C37 1.413 . S
C39 H28 0.931 . S
C39 C37 1.416 . S
C39 C40 1.332 . S
C40 H19 0.929 . S
C40 C36 1.407 . S
C40 C39 1.332 . S
H41 C34 0.930 . S
H42 C65 0.930 . S
H43 C66 0.929 . S
O44 Tb0 2.465 . S
O44 C64 1.264 . S
O45 Tb0 2.387 . S
O45 C56 1.264 . S
O46 Tb11 2.349 . S
O46 C56 1.243 . S
O47 Tb0 2.428 . S
O47 C64 1.256 . S
O48 Tb0 2.308 . S
O48 C63 1.266 . S
O49 Tb11 2.393 . S
O49 C63 1.248 . S
O50 Tb11 2.465 . S
O50 C75 1.264 . S
O51 Tb11 2.387 . S
O51 C67 1.264 . S
O52 Tb0 2.349 . S
O52 C67 1.243 . S
O53 Tb11 2.428 . S
O53 C75 1.256 . S
O54 Tb11 2.308 . S
O54 C74 1.266 . S
O55 Tb0 2.393 . S
O55 C74 1.248 . S
C56 O45 1.264 . S
C56 O46 1.243 . S
C57 C60 1.399 . S
C57 C62 1.383 . S
C57 C64 1.496 . S
C58 C59 1.399 . S
C58 C62 1.389 . S
C59 C58 1.399 . S
C59 C61 1.380 . S
C59 H76 0.929 . S
C60 C57 1.399 . S
C60 C61 1.392 . S
C60 H77 0.929 . S
C61 C59 1.380 . S
C61 C60 1.392 . S
C61 H78 0.929 . S
C62 C57 1.383 . S
C62 C58 1.389 . S
C62 H79 0.931 . S
C63 O48 1.266 . S
C63 O49 1.248 . S
C64 Tb0 2.802 . S
C64 O44 1.264 . S
C64 O47 1.256 . S
C64 C57 1.496 . S
C65 C32 1.448 . S
C65 H42 0.930 . S
C65 C66 1.328 . S
C66 C37 1.427 . S
C66 H43 0.929 . S
C66 C65 1.328 . S
C67 O51 1.264 . S
C67 O52 1.243 . S
C68 C71 1.394 1_455 S
C68 C72 1.383 . S
C68 C75 1.496 . S
C69 C70 1.399 . S
C69 C72 1.389 1_655 S
C70 C69 1.399 . S
C70 C73 1.380 . S
C70 H80 0.929 . S
C71 C68 1.394 1_655 S
C71 C73 1.398 . S
C71 H81 0.929 1_655 S
C72 C68 1.383 . S
C72 C69 1.389 1_455 S
C72 H82 0.931 . S
C73 C70 1.380 . S
C73 C71 1.398 . S
C73 H83 0.929 . S
C74 O54 1.266 . S
C74 O55 1.248 . S
C75 Tb11 2.802 . S
C75 O50 1.264 . S
C75 O53 1.256 . S
C75 C68 1.496 . S
H76 C59 0.929 . S
H77 C60 0.929 . S
H78 C61 0.929 . S
H79 C62 0.931 . S
H80 C70 0.929 . S
H81 C71 0.929 1_455 S
H82 C72 0.931 . S
H83 C73 0.929 . S
Tb84 N113 2.617 . S
Tb84 N119 2.572 . S
Tb84 O128 2.465 . S
Tb84 O129 2.387 . S
Tb84 O131 2.428 . S
Tb84 O132 2.308 . S
Tb84 O136 2.386 . S
Tb84 O139 2.393 . S
Tb84 C148 2.802 . S
C85 N86 1.379 . S
C85 C88 1.416 . S
C85 C92 1.424 . S
N86 C85 1.379 . S
N86 C89 1.334 . S
N86 Tb95 2.617 . S
C87 C89 1.390 . S
C87 C90 1.339 . S
C87 H107 0.930 . S
C88 C85 1.416 . S
C88 C90 1.416 . S
C88 C94 1.448 . S
C89 N86 1.334 . S
C89 C87 1.390 . S
C89 H100 0.930 . S
C90 C87 1.339 . S
C90 C88 1.416 . S
C90 H111 0.930 . S
C91 C92 1.413 . S
C91 C93 1.427 . S
C91 C97 1.416 . S
C92 C85 1.424 . S
C92 C91 1.413 . S
C92 N96 1.361 . S
C93 C91 1.427 . S
C93 C94 1.328 . S
C93 H108 0.929 . S
C94 C88 1.448 . S
C94 C93 1.328 . S
C94 H109 0.930 . S
Tb95 N86 2.617 . S
Tb95 N96 2.572 . S
Tb95 O130 2.349 1_565 S
Tb95 O133 2.393 . S
Tb95 O134 2.465 . S
Tb95 O135 2.387 . S
Tb95 O137 2.428 . S
Tb95 O138 2.308 . S
Tb95 C159 2.802 . S
N96 C92 1.361 . S
N96 Tb95 2.572 . S
N96 C98 1.340 . S
C97 C91 1.416 . S
C97 C99 1.332 . S
C97 H105 0.931 . S
C98 N96 1.340 . S
C98 C99 1.407 . S
C98 H104 0.930 . S
C99 C97 1.332 . S
C99 C98 1.407 . S
C99 H101 0.929 . S
H100 C89 0.930 . S
H101 C99 0.929 . S
H102 C117 0.930 . S
H103 C124 0.929 . S
H104 C98 0.930 . S
H105 C97 0.931 . S
H106 C120 0.930 . S
H107 C87 0.930 . S
H108 C93 0.929 . S
H109 C94 0.930 . S
H110 C115 0.930 . S
H111 C90 0.930 . S
H112 C123 0.931 . S
N113 Tb84 2.617 . S
N113 C114 1.379 . S
N113 C117 1.334 . S
C114 N113 1.379 . S
C114 C116 1.416 . S
C114 C122 1.424 . S
C115 H110 0.930 . S
C115 C117 1.390 . S
C115 C118 1.339 . S
C116 C114 1.416 . S
C116 C118 1.416 . S
C116 C149 1.448 . S
C117 H102 0.930 . S
C117 N113 1.334 . S
C117 C115 1.390 . S
C118 C115 1.339 . S
C118 C116 1.416 . S
C118 H125 0.930 . S
N119 Tb84 2.572 . S
N119 C120 1.340 . S
N119 C122 1.361 . S
C120 H106 0.930 . S
C120 N119 1.340 . S
C120 C124 1.407 . S
C121 C122 1.413 . S
C121 C123 1.416 . S
C121 C150 1.427 . S
C122 C114 1.424 . S
C122 N119 1.361 . S
C122 C121 1.413 . S
C123 H112 0.931 . S
C123 C121 1.416 . S
C123 C124 1.332 . S
C124 H103 0.929 . S
C124 C120 1.407 . S
C124 C123 1.332 . S
H125 C118 0.930 . S
H126 C149 0.930 . S
H127 C150 0.929 . S
O128 Tb84 2.465 . S
O128 C148 1.264 . S
O129 Tb84 2.387 . S
O129 C140 1.264 . S
O130 Tb95 2.349 1_545 S
O130 C140 1.243 . S
O131 Tb84 2.428 . S
O131 C148 1.256 . S
O132 Tb84 2.308 . S
O132 C147 1.266 . S
O133 Tb95 2.393 . S
O133 C147 1.248 1_565 S
O134 Tb95 2.465 . S
O134 C159 1.264 . S
O135 Tb95 2.387 . S
O135 C151 1.264 . S
O136 Tb84 2.386 . S
O136 C151 1.201 1_545 S
O137 Tb95 2.428 . S
O137 C159 1.256 . S
O138 Tb95 2.308 . S
O138 C158 1.266 . S
O139 Tb84 2.393 . S
O139 C158 1.248 1_545 S
C140 O129 1.264 . S
C140 O130 1.243 . S
C141 C144 1.399 . S
C141 C146 1.383 . S
C141 C148 1.496 . S
C142 C143 1.399 . S
C142 C146 1.389 . S
C143 C142 1.399 . S
C143 C145 1.380 . S
C143 H160 0.929 . S
C144 C141 1.399 . S
C144 C145 1.392 . S
C144 H161 0.929 . S
C145 C143 1.380 . S
C145 C144 1.392 . S
C145 H162 0.929 . S
C146 C141 1.383 . S
C146 C142 1.389 . S
C146 H163 0.931 . S
C147 O132 1.266 . S
C147 O133 1.248 1_545 S
C148 Tb84 2.802 . S
C148 O128 1.264 . S
C148 O131 1.256 . S
C148 C141 1.496 . S
C149 C116 1.448 . S
C149 H126 0.930 . S
C149 C150 1.328 . S
C150 C121 1.427 . S
C150 H127 0.929 . S
C150 C149 1.328 . S
C151 O135 1.264 . S
C151 O136 1.201 1_565 S
C152 C155 1.399 . S
C152 C156 1.383 . S
C152 C159 1.496 . S
C153 C154 1.399 . S
C153 C156 1.389 . S
C154 C153 1.399 . S
C154 C157 1.380 . S
C154 H164 0.929 . S
C155 C152 1.399 . S
C155 C157 1.392 . S
C155 H165 0.929 . S
C156 C152 1.383 . S
C156 C153 1.389 . S
C156 H166 0.931 . S
C157 C154 1.380 . S
C157 C155 1.392 . S
C157 H167 0.929 . S
C158 O138 1.266 . S
C158 O139 1.248 1_565 S
C159 Tb95 2.802 . S
C159 O134 1.264 . S
C159 O137 1.256 . S
C159 C152 1.496 . S
H160 C143 0.929 . S
H161 C144 0.929 . S
H162 C145 0.929 . S
H163 C146 0.931 . S
H164 C154 0.929 . S
H165 C155 0.929 . S
H166 C156 0.931 . S
H167 C157 0.929 . S
Tb168 N197 2.617 . S
Tb168 N203 2.572 . S
Tb168 O212 2.465 . S
Tb168 O213 2.387 . S
Tb168 O215 2.428 . S
Tb168 O216 2.308 . S
Tb168 O220 2.349 1_655 S
Tb168 O223 2.393 . S
Tb168 C232 2.802 . S
C169 N170 1.379 . S
C169 C172 1.416 . S
C169 C176 1.424 . S
N170 C169 1.379 . S
N170 C173 1.334 . S
N170 Tb179 2.617 . S
C171 C173 1.390 . S
C171 C174 1.339 . S
C171 H191 0.930 . S
C172 C169 1.416 . S
C172 C174 1.416 . S
C172 C178 1.448 . S
C173 N170 1.334 . S
C173 C171 1.390 . S
C173 H184 0.930 . S
C174 C171 1.339 . S
C174 C172 1.416 . S
C174 H195 0.930 . S
C175 C176 1.413 . S
C175 C177 1.427 . S
C175 C181 1.416 . S
C176 C169 1.424 . S
C176 C175 1.413 . S
C176 N180 1.361 . S
C177 C175 1.427 . S
C177 C178 1.328 . S
C177 H192 0.929 . S
C178 C172 1.448 . S
C178 C177 1.328 . S
C178 H193 0.930 . S
Tb179 N170 2.617 . S
Tb179 N180 2.572 . S
Tb179 O214 2.349 1_455 S
Tb179 O217 2.393 . S
Tb179 O218 2.465 . S
Tb179 O219 2.387 . S
Tb179 O221 2.428 . S
Tb179 O222 2.308 . S
Tb179 C243 2.802 . S
N180 C176 1.361 . S
N180 Tb179 2.572 . S
N180 C182 1.340 . S
C181 C175 1.416 . S
C181 C183 1.332 . S
C181 H189 0.931 . S
C182 N180 1.340 . S
C182 C183 1.407 . S
C182 H188 0.930 . S
C183 C181 1.332 . S
C183 C182 1.407 . S
C183 H185 0.929 . S
H184 C173 0.930 . S
H185 C183 0.929 . S
H186 C201 0.930 . S
H187 C208 0.929 . S
H188 C182 0.930 . S
H189 C181 0.931 . S
H190 C204 0.930 . S
H191 C171 0.930 . S
H192 C177 0.929 . S
H193 C178 0.930 . S
H194 C199 0.930 . S
H195 C174 0.930 . S
H196 C207 0.931 . S
N197 Tb168 2.617 . S
N197 C198 1.379 . S
N197 C201 1.334 . S
C198 N197 1.379 . S
C198 C200 1.416 . S
C198 C206 1.424 . S
C199 H194 0.930 . S
C199 C201 1.390 . S
C199 C202 1.339 . S
C200 C198 1.416 . S
C200 C202 1.416 . S
C200 C233 1.448 . S
C201 H186 0.930 . S
C201 N197 1.334 . S
C201 C199 1.390 . S
C202 C199 1.339 . S
C202 C200 1.416 . S
C202 H209 0.930 . S
N203 Tb168 2.572 . S
N203 C204 1.340 . S
N203 C206 1.361 . S
C204 H190 0.930 . S
C204 N203 1.340 . S
C204 C208 1.407 . S
C205 C206 1.413 . S
C205 C207 1.416 . S
C205 C234 1.427 . S
C206 C198 1.424 . S
C206 N203 1.361 . S
C206 C205 1.413 . S
C207 H196 0.931 . S
C207 C205 1.416 . S
C207 C208 1.332 . S
C208 H187 0.929 . S
C208 C204 1.407 . S
C208 C207 1.332 . S
H209 C202 0.930 . S
H210 C233 0.930 . S
H211 C234 0.929 . S
O212 Tb168 2.465 . S
O212 C232 1.264 . S
O213 Tb168 2.387 . S
O213 C224 1.264 . S
O214 Tb179 2.349 1_655 S
O214 C224 1.243 . S
O215 Tb168 2.428 . S
O215 C232 1.256 . S
O216 Tb168 2.308 . S
O216 C231 1.266 . S
O217 Tb179 2.393 . S
O217 C231 1.248 1_455 S
O218 Tb179 2.465 . S
O218 C243 1.264 . S
O219 Tb179 2.387 . S
O219 C235 1.264 . S
O220 Tb168 2.349 1_455 S
O220 C235 1.243 . S
O221 Tb179 2.428 . S
O221 C243 1.256 . S
O222 Tb179 2.308 . S
O222 C242 1.266 . S
O223 Tb168 2.393 . S
O223 C242 1.248 1_655 S
C224 O213 1.264 . S
C224 O214 1.243 . S
C225 C228 1.399 . S
C225 C230 1.383 . S
C225 C232 1.496 . S
C226 C227 1.399 . S
C226 C230 1.389 . S
C227 C226 1.399 . S
C227 C229 1.380 . S
C227 H244 0.929 . S
C228 C225 1.399 . S
C228 C229 1.392 . S
C228 H245 0.929 . S
C229 C227 1.380 . S
C229 C228 1.392 . S
C229 H246 0.929 . S
C230 C225 1.383 . S
C230 C226 1.389 . S
C230 H247 0.931 . S
C231 O216 1.266 . S
C231 O217 1.248 1_655 S
C232 Tb168 2.802 . S
C232 O212 1.264 . S
C232 O215 1.256 . S
C232 C225 1.496 . S
C233 C200 1.448 . S
C233 H210 0.930 . S
C233 C234 1.328 . S
C234 C205 1.427 . S
C234 H211 0.929 . S
C234 C233 1.328 . S
C235 O219 1.264 . S
C235 O220 1.243 . S
C236 C239 1.399 . S
C236 C240 1.383 . S
C236 C243 1.496 . S
C237 C238 1.399 . S
C237 C240 1.389 . S
C238 C237 1.399 . S
C238 C241 1.380 . S
C238 H248 0.929 . S
C239 C236 1.399 . S
C239 C241 1.392 . S
C239 H249 0.929 . S
C240 C236 1.383 . S
C240 C237 1.389 . S
C240 H250 0.931 . S
C241 C238 1.380 . S
C241 C239 1.392 . S
C241 H251 0.929 . S
C242 O222 1.266 . S
C242 O223 1.248 1_455 S
C243 Tb179 2.802 . S
C243 O218 1.264 . S
C243 O221 1.256 . S
C243 C236 1.496 . S
H244 C227 0.929 . S
H245 C228 0.929 . S
H246 C229 0.929 . S
H247 C230 0.931 . S
H248 C238 0.929 . S
H249 C239 0.929 . S
H250 C240 0.931 . S
H251 C241 0.929 . S
Tb252 N281 2.617 . S
Tb252 N287 2.572 . S
Tb252 O296 2.465 . S
Tb252 O297 2.387 . S
Tb252 O299 2.428 . S
Tb252 O300 2.308 . S
Tb252 O304 2.349 . S
Tb252 O307 2.393 . S
Tb252 C316 2.802 . S
C253 N254 1.379 . S
C253 C256 1.416 . S
C253 C260 1.424 . S
N254 C253 1.379 . S
N254 C257 1.334 . S
N254 Tb263 2.617 . S
C255 C257 1.390 . S
C255 C258 1.339 . S
C255 H275 0.930 . S
C256 C253 1.416 . S
C256 C258 1.416 . S
C256 C262 1.448 . S
C257 N254 1.334 . S
C257 C255 1.390 . S
C257 H268 0.930 . S
C258 C255 1.339 . S
C258 C256 1.416 . S
C258 H279 0.930 . S
C259 C260 1.413 . S
C259 C261 1.427 . S
C259 C265 1.416 . S
C260 C253 1.424 . S
C260 C259 1.413 . S
C260 N264 1.361 . S
C261 C259 1.427 . S
C261 C262 1.328 . S
C261 H276 0.929 . S
C262 C256 1.448 . S
C262 C261 1.328 . S
C262 H277 0.930 . S
Tb263 N254 2.617 . S
Tb263 N264 2.572 . S
Tb263 O298 2.349 . S
Tb263 O301 2.393 . S
Tb263 O302 2.465 . S
Tb263 O303 2.387 . S
Tb263 O305 2.428 . S
Tb263 O306 2.308 . S
Tb263 C327 2.802 . S
N264 C260 1.361 . S
N264 Tb263 2.572 . S
N264 C266 1.340 . S
C265 C259 1.416 . S
C265 C267 1.332 . S
C265 H273 0.931 . S
C266 N264 1.340 . S
C266 C267 1.407 . S
C266 H272 0.930 . S
C267 C265 1.332 . S
C267 C266 1.407 . S
C267 H269 0.929 . S
H268 C257 0.930 . S
H269 C267 0.929 . S
H270 C285 0.930 . S
H271 C292 0.929 1_565 S
H272 C266 0.930 . S
H273 C265 0.931 . S
H274 C288 0.930 . S
H275 C255 0.930 . S
H276 C261 0.929 . S
H277 C262 0.930 . S
H278 C283 0.930 . S
H279 C258 0.930 . S
H280 C291 0.931 . S
N281 Tb252 2.617 . S
N281 C282 1.379 . S
N281 C285 1.334 . S
C282 N281 1.379 . S
C282 C284 1.399 1_545 S
C282 C290 1.424 . S
C283 H278 0.930 . S
C283 C285 1.390 . S
C283 C286 1.339 . S
C284 C282 1.399 1_565 S
C284 C286 1.411 1_565 S
C284 C317 1.471 . S
C285 H270 0.930 . S
C285 N281 1.334 . S
C285 C283 1.390 . S
C286 C283 1.339 . S
C286 C284 1.411 1_545 S
C286 H293 0.930 1_545 S
N287 Tb252 2.572 . S
N287 C288 1.340 . S
N287 C290 1.361 . S
C288 H274 0.930 . S
C288 N287 1.340 . S
C288 C292 1.407 . S
C289 C290 1.413 1_565 S
C289 C291 1.416 . S
C289 C318 1.427 . S
C290 C282 1.424 . S
C290 N287 1.361 . S
C290 C289 1.413 1_545 S
C291 H280 0.931 . S
C291 C289 1.416 . S
C291 C292 1.332 1_565 S
C292 H271 0.929 1_545 S
C292 C288 1.407 . S
C292 C291 1.332 1_545 S
H293 C286 0.930 1_565 S
H294 C317 0.930 . S
H295 C318 0.929 . S
O296 Tb252 2.465 . S
O296 C316 1.264 . S
O297 Tb252 2.387 . S
O297 C308 1.264 . S
O298 Tb263 2.349 . S
O298 C308 1.243 . S
O299 Tb252 2.428 . S
O299 C316 1.256 . S
O300 Tb252 2.308 . S
O300 C315 1.266 . S
O301 Tb263 2.393 . S
O301 C315 1.248 . S
O302 Tb263 2.465 . S
O302 C327 1.264 . S
O303 Tb263 2.387 . S
O303 C319 1.264 . S
O304 Tb252 2.349 . S
O304 C319 1.243 . S
O305 Tb263 2.428 . S
O305 C327 1.256 . S
O306 Tb263 2.308 . S
O306 C326 1.266 . S
O307 Tb252 2.393 . S
O307 C326 1.248 . S
C308 O297 1.264 . S
C308 O298 1.243 . S
C309 C312 1.399 . S
C309 C314 1.383 . S
C309 C316 1.496 . S
C310 C311 1.399 . S
C310 C314 1.389 . S
C311 C310 1.399 . S
C311 C313 1.380 . S
C311 H328 0.929 . S
C312 C309 1.399 . S
C312 C313 1.392 . S
C312 H329 0.929 . S
C313 C311 1.380 . S
C313 C312 1.392 . S
C313 H330 0.929 . S
C314 C309 1.383 . S
C314 C310 1.389 . S
C314 H331 0.931 . S
C315 O300 1.266 . S
C315 O301 1.248 . S
C316 Tb252 2.802 . S
C316 O296 1.264 . S
C316 O299 1.256 . S
C316 C309 1.496 . S
C317 C284 1.471 . S
C317 H294 0.930 . S
C317 C318 1.328 . S
C318 C289 1.427 . S
C318 H295 0.929 . S
C318 C317 1.328 . S
C319 O303 1.264 . S
C319 O304 1.243 . S
C320 C323 1.399 . S
C320 C324 1.383 . S
C320 C327 1.496 . S
C321 C322 1.399 . S
C321 C324 1.389 . S
C322 C321 1.399 . S
C322 C325 1.380 . S
C322 H332 0.929 . S
C323 C320 1.399 . S
C323 C325 1.392 . S
C323 H333 0.929 . S
C324 C320 1.383 . S
C324 C321 1.389 . S
C324 H334 0.931 . S
C325 C322 1.380 . S
C325 C323 1.392 . S
C325 H335 0.929 . S
C326 O306 1.266 . S
C326 O307 1.248 . S
C327 Tb263 2.802 . S
C327 O302 1.264 . S
C327 O305 1.256 . S
C327 C320 1.496 . S
H328 C311 0.929 . S
H329 C312 0.929 . S
H330 C313 0.929 . S
H331 C314 0.931 . S
H332 C322 0.929 . S
H333 C323 0.929 . S
H334 C324 0.931 . S
H335 C325 0.929 . S
Tb336 N365 2.617 . S
Tb336 N371 2.572 . S
Tb336 O380 2.465 . S
Tb336 O381 2.387 . S
Tb336 O383 2.428 . S
Tb336 O384 2.308 . S
Tb336 O388 2.349 . S
Tb336 O391 2.393 . S
Tb336 C400 2.802 . S
C337 N338 1.379 . S
C337 C340 1.416 . S
C337 C344 1.424 . S
N338 C337 1.379 . S
N338 C341 1.334 . S
N338 Tb347 2.617 1_655 S
C339 C341 1.390 . S
C339 C342 1.339 . S
C339 H359 0.930 . S
C340 C337 1.416 . S
C340 C342 1.416 . S
C340 C346 1.448 . S
C341 N338 1.334 . S
C341 C339 1.390 . S
C341 H352 0.930 . S
C342 C339 1.339 . S
C342 C340 1.416 . S
C342 H363 0.930 . S
C343 C344 1.413 . S
C343 C345 1.427 . S
C343 C349 1.416 . S
C344 C337 1.424 . S
C344 C343 1.413 . S
C344 N348 1.361 . S
C345 C343 1.427 . S
C345 C346 1.328 . S
C345 H360 0.929 . S
C346 C340 1.448 . S
C346 C345 1.328 . S
C346 H361 0.930 . S
Tb347 N338 2.617 1_455 S
Tb347 N348 2.572 1_455 S
Tb347 O382 2.349 . S
Tb347 O385 2.393 . S
Tb347 O386 2.460 1_455 S
Tb347 O387 2.387 . S
Tb347 O389 2.428 1_455 S
Tb347 O390 2.308 . S
Tb347 C411 2.802 1_455 S
N348 C344 1.361 . S
N348 Tb347 2.572 1_655 S
N348 C350 1.340 . S
C349 C343 1.416 . S
C349 C351 1.332 . S
C349 H357 0.931 . S
C350 N348 1.340 . S
C350 C351 1.407 . S
C350 H356 0.930 . S
C351 C349 1.332 . S
C351 C350 1.407 . S
C351 H353 0.929 . S
H352 C341 0.930 . S
H353 C351 0.929 . S
H354 C369 0.930 . S
H355 C376 0.929 . S
H356 C350 0.930 . S
H357 C349 0.931 . S
H358 C372 0.930 . S
H359 C339 0.930 . S
H360 C345 0.929 . S
H361 C346 0.930 . S
H362 C367 0.930 . S
H363 C342 0.930 . S
H364 C375 0.931 . S
N365 Tb336 2.617 . S
N365 C366 1.379 . S
N365 C369 1.334 . S
C366 N365 1.379 . S
C366 C368 1.416 . S
C366 C374 1.424 . S
C367 H362 0.930 . S
C367 C369 1.390 . S
C367 C370 1.339 . S
C368 C366 1.416 . S
C368 C370 1.416 . S
C368 C401 1.448 . S
C369 H354 0.930 . S
C369 N365 1.334 . S
C369 C367 1.390 . S
C370 C367 1.339 . S
C370 C368 1.416 . S
C370 H377 0.930 . S
N371 Tb336 2.572 . S
N371 C372 1.340 . S
N371 C374 1.361 . S
C372 H358 0.930 . S
C372 N371 1.340 . S
C372 C376 1.407 . S
C373 C374 1.413 . S
C373 C375 1.416 . S
C373 C402 1.427 . S
C374 C366 1.424 . S
C374 N371 1.361 . S
C374 C373 1.413 . S
C375 H364 0.931 . S
C375 C373 1.416 . S
C375 C376 1.332 . S
C376 H355 0.929 . S
C376 C372 1.407 . S
C376 C375 1.332 . S
H377 C370 0.930 . S
H378 C401 0.930 . S
H379 C402 0.929 . S
O380 Tb336 2.465 . S
O380 C400 1.264 . S
O381 Tb336 2.387 . S
O381 C392 1.264 . S
O382 Tb347 2.349 . S
O382 C392 1.243 . S
O383 Tb336 2.428 . S
O383 C400 1.256 . S
O384 Tb336 2.308 . S
O384 C399 1.266 . S
O385 Tb347 2.393 . S
O385 C399 1.248 . S
O386 Tb347 2.460 1_655 S
O386 C411 1.270 . S
O387 Tb347 2.387 . S
O387 C403 1.264 . S
O388 Tb336 2.349 . S
O388 C403 1.243 . S
O389 Tb347 2.428 1_655 S
O389 C411 1.256 . S
O390 Tb347 2.308 . S
O390 C410 1.266 . S
O391 Tb336 2.393 . S
O391 C410 1.248 . S
C392 O381 1.264 . S
C392 O382 1.243 . S
C393 C396 1.399 . S
C393 C398 1.383 . S
C393 C400 1.496 . S
C394 C395 1.399 . S
C394 C398 1.389 . S
C395 C394 1.399 . S
C395 C397 1.380 . S
C395 H412 0.929 . S
C396 C393 1.399 . S
C396 C397 1.392 . S
C396 H413 0.929 . S
C397 C395 1.380 . S
C397 C396 1.392 . S
C397 H414 0.929 . S
C398 C393 1.383 . S
C398 C394 1.389 . S
C398 H415 0.931 . S
C399 O384 1.266 . S
C399 O385 1.248 . S
C400 Tb336 2.802 . S
C400 O380 1.264 . S
C400 O383 1.256 . S
C400 C393 1.496 . S
C401 C368 1.448 . S
C401 H378 0.930 . S
C401 C402 1.328 . S
C402 C373 1.427 . S
C402 H379 0.929 . S
C402 C401 1.328 . S
C403 O387 1.264 . S
C403 O388 1.243 . S
C404 C407 1.399 . S
C404 C408 1.383 . S
C404 C411 1.496 . S
C405 C406 1.399 . S
C405 C408 1.389 . S
C406 C405 1.399 . S
C406 C409 1.380 . S
C406 H416 0.929 . S
C407 C404 1.399 . S
C407 C409 1.392 . S
C407 H417 0.929 . S
C408 C404 1.383 . S
C408 C405 1.389 . S
C408 H418 0.931 . S
C409 C406 1.380 . S
C409 C407 1.392 . S
C409 H419 0.929 . S
C410 O390 1.266 . S
C410 O391 1.248 . S
C411 Tb347 2.802 1_655 S
C411 O386 1.270 . S
C411 O389 1.256 . S
C411 C404 1.496 . S
H412 C395 0.929 . S
H413 C396 0.929 . S
H414 C397 0.929 . S
H415 C398 0.931 . S
H416 C406 0.929 . S
H417 C407 0.929 . S
H418 C408 0.931 . S
H419 C409 0.929 . S
Tb420 N449 2.617 . S
Tb420 N455 2.572 . S
Tb420 O464 2.465 . S
Tb420 O465 2.387 . S
Tb420 O467 2.428 . S
Tb420 O468 2.308 . S
Tb420 O472 2.349 . S
Tb420 O475 2.393 . S
Tb420 C484 2.802 . S
C421 N422 1.379 1_565 S
C421 C424 1.416 . S
C421 C428 1.424 . S
N422 C421 1.379 1_545 S
N422 C425 1.334 . S
N422 Tb431 2.617 . S
C423 C425 1.390 1_565 S
C423 C426 1.339 . S
C423 H443 0.930 . S
C424 C421 1.416 . S
C424 C426 1.416 . S
C424 C430 1.448 . S
C425 N422 1.334 . S
C425 C423 1.390 1_545 S
C425 H436 0.930 . S
C426 C423 1.339 . S
C426 C424 1.416 . S
C426 H447 0.930 . S
C427 C428 1.413 . S
C427 C429 1.427 . S
C427 C433 1.416 . S
C428 C421 1.424 . S
C428 C427 1.413 . S
C428 N432 1.361 . S
C429 C427 1.427 . S
C429 C430 1.328 . S
C429 H444 0.929 . S
C430 C424 1.448 . S
C430 C429 1.328 . S
C430 H445 0.930 . S
Tb431 N422 2.617 . S
Tb431 N432 2.572 1_545 S
Tb431 O466 2.349 . S
Tb431 O469 2.393 . S
Tb431 O470 2.465 . S
Tb431 O471 2.387 . S
Tb431 O473 2.428 . S
Tb431 O474 2.308 . S
Tb431 C495 2.802 . S
N432 C428 1.361 . S
N432 Tb431 2.572 1_565 S
N432 C434 1.340 . S
C433 C427 1.416 . S
C433 C435 1.332 . S
C433 H441 0.931 . S
C434 N432 1.340 . S
C434 C435 1.407 . S
C434 H440 0.930 . S
C435 C433 1.332 . S
C435 C434 1.407 . S
C435 H437 0.929 . S
H436 C425 0.930 . S
H437 C435 0.929 . S
H438 C453 0.930 . S
H439 C460 0.929 . S
H440 C434 0.930 . S
H441 C433 0.931 . S
H442 C456 0.930 . S
H443 C423 0.930 . S
H444 C429 0.929 . S
H445 C430 0.930 . S
H446 C451 0.930 . S
H447 C426 0.930 . S
H448 C459 0.931 . S
N449 Tb420 2.617 . S
N449 C450 1.379 . S
N449 C453 1.334 . S
C450 N449 1.379 . S
C450 C452 1.416 . S
C450 C458 1.424 . S
C451 H446 0.930 . S
C451 C453 1.390 . S
C451 C454 1.339 . S
C452 C450 1.416 . S
C452 C454 1.416 . S
C452 C485 1.448 . S
C453 H438 0.930 . S
C453 N449 1.334 . S
C453 C451 1.390 . S
C454 C451 1.339 . S
C454 C452 1.416 . S
C454 H461 0.930 . S
N455 Tb420 2.572 . S
N455 C456 1.340 . S
N455 C458 1.361 . S
C456 H442 0.930 . S
C456 N455 1.340 . S
C456 C460 1.407 . S
C457 C458 1.413 . S
C457 C459 1.416 . S
C457 C486 1.427 . S
C458 C450 1.424 . S
C458 N455 1.361 . S
C458 C457 1.413 . S
C459 H448 0.931 . S
C459 C457 1.416 . S
C459 C460 1.332 . S
C460 H439 0.929 . S
C460 C456 1.407 . S
C460 C459 1.332 . S
H461 C454 0.930 . S
H462 C485 0.930 . S
H463 C486 0.929 . S
O464 Tb420 2.465 . S
O464 C484 1.264 . S
O465 Tb420 2.387 . S
O465 C476 1.264 . S
O466 Tb431 2.349 . S
O466 C476 1.243 . S
O467 Tb420 2.428 . S
O467 C484 1.256 . S
O468 Tb420 2.308 . S
O468 C483 1.266 . S
O469 Tb431 2.393 . S
O469 C483 1.248 . S
O470 Tb431 2.465 . S
O470 C495 1.264 . S
O471 Tb431 2.387 . S
O471 C487 1.264 . S
O472 Tb420 2.349 . S
O472 C487 1.243 . S
O473 Tb431 2.428 . S
O473 C495 1.256 . S
O474 Tb431 2.308 . S
O474 C494 1.266 . S
O475 Tb420 2.393 . S
O475 C494 1.248 . S
C476 O465 1.264 . S
C476 O466 1.243 . S
C477 C480 1.399 . S
C477 C482 1.383 . S
C477 C484 1.496 . S
C478 C479 1.399 . S
C478 C482 1.389 . S
C479 C478 1.399 . S
C479 C481 1.380 . S
C479 H496 0.929 . S
C480 C477 1.399 . S
C480 C481 1.392 . S
C480 H497 0.929 . S
C481 C479 1.380 . S
C481 C480 1.392 . S
C481 H498 0.929 . S
C482 C477 1.383 . S
C482 C478 1.389 . S
C482 H499 0.931 . S
C483 O468 1.266 . S
C483 O469 1.248 . S
C484 Tb420 2.802 . S
C484 O464 1.264 . S
C484 O467 1.256 . S
C484 C477 1.496 . S
C485 C452 1.448 . S
C485 H462 0.930 . S
C485 C486 1.328 . S
C486 C457 1.427 . S
C486 H463 0.929 . S
C486 C485 1.328 . S
C487 O471 1.264 . S
C487 O472 1.243 . S
C488 C491 1.399 . S
C488 C492 1.383 . S
C488 C495 1.496 1_565 S
C489 C490 1.399 . S
C489 C492 1.389 . S
C490 C489 1.399 . S
C490 C493 1.380 . S
C490 H500 0.929 . S
C491 C488 1.399 . S
C491 C493 1.392 . S
C491 H501 0.929 . S
C492 C488 1.383 . S
C492 C489 1.389 . S
C492 H502 0.931 . S
C493 C490 1.380 . S
C493 C491 1.392 . S
C493 H503 0.929 . S
C494 O474 1.266 . S
C494 O475 1.248 . S
C495 Tb431 2.802 . S
C495 O470 1.264 . S
C495 O473 1.256 . S
C495 C488 1.496 1_545 S
H496 C479 0.929 . S
H497 C480 0.929 . S
H498 C481 0.929 . S
H499 C482 0.931 . S
H500 C490 0.929 . S
H501 C491 0.929 . S
H502 C492 0.931 . S
H503 C493 0.929 . S
Tb504 N533 2.617 . S
Tb504 N539 2.572 . S
Tb504 O548 2.465 . S
Tb504 O549 2.387 . S
Tb504 O551 2.428 . S
Tb504 O552 2.308 . S
Tb504 O556 2.349 . S
Tb504 O559 2.393 . S
Tb504 C568 2.802 . S
C505 N506 1.379 . S
C505 C508 1.416 . S
C505 C512 1.424 . S
N506 C505 1.379 . S
N506 C509 1.334 . S
N506 Tb515 2.617 . S
C507 C509 1.390 . S
C507 C510 1.339 . S
C507 H527 0.930 . S
C508 C505 1.416 . S
C508 C510 1.416 . S
C508 C514 1.448 . S
C509 N506 1.334 . S
C509 C507 1.390 . S
C509 H520 0.930 . S
C510 C507 1.339 . S
C510 C508 1.416 . S
C510 H531 0.930 . S
C511 C512 1.413 . S
C511 C513 1.427 . S
C511 C517 1.416 . S
C512 C505 1.424 . S
C512 C511 1.413 . S
C512 N516 1.361 . S
C513 C511 1.427 . S
C513 C514 1.328 . S
C513 H528 0.929 . S
C514 C508 1.448 . S
C514 C513 1.328 . S
C514 H529 0.930 . S
Tb515 N506 2.617 . S
Tb515 N516 2.572 . S
Tb515 O550 2.349 . S
Tb515 O553 2.393 . S
Tb515 O554 2.465 . S
Tb515 O555 2.387 . S
Tb515 O557 2.428 . S
Tb515 O558 2.308 . S
Tb515 C579 2.802 . S
N516 C512 1.361 . S
N516 Tb515 2.572 . S
N516 C518 1.340 . S
C517 C511 1.416 . S
C517 C519 1.332 . S
C517 H525 0.931 . S
C518 N516 1.340 . S
C518 C519 1.407 . S
C518 H524 0.930 . S
C519 C517 1.332 . S
C519 C518 1.407 . S
C519 H521 0.929 . S
H520 C509 0.930 . S
H521 C519 0.929 . S
H522 C537 0.930 . S
H523 C544 0.929 . S
H524 C518 0.930 . S
H525 C517 0.931 . S
H526 C540 0.930 . S
H527 C507 0.930 . S
H528 C513 0.929 . S
H529 C514 0.930 . S
H530 C535 0.930 . S
H531 C510 0.930 . S
H532 C543 0.931 1_655 S
N533 Tb504 2.617 . S
N533 C534 1.379 . S
N533 C537 1.334 . S
C534 N533 1.379 . S
C534 C536 1.416 . S
C534 C542 1.424 . S
C535 H530 0.930 . S
C535 C537 1.390 . S
C535 C538 1.339 . S
C536 C534 1.416 . S
C536 C538 1.416 . S
C536 C569 1.448 1_455 S
C537 H522 0.930 . S
C537 N533 1.334 . S
C537 C535 1.390 . S
C538 C535 1.339 . S
C538 C536 1.416 . S
C538 H545 0.930 . S
N539 Tb504 2.572 . S
N539 C540 1.340 . S
N539 C542 1.361 . S
C540 H526 0.930 . S
C540 N539 1.340 . S
C540 C544 1.407 . S
C541 C542 1.413 . S
C541 C543 1.416 . S
C541 C570 1.427 1_455 S
C542 C534 1.424 . S
C542 N539 1.361 . S
C542 C541 1.413 . S
C543 H532 0.931 1_455 S
C543 C541 1.416 . S
C543 C544 1.332 . S
C544 H523 0.929 . S
C544 C540 1.407 . S
C544 C543 1.332 . S
H545 C538 0.930 . S
H546 C569 0.930 . S
H547 C570 0.929 . S
O548 Tb504 2.465 . S
O548 C568 1.264 . S
O549 Tb504 2.387 . S
O549 C560 1.264 . S
O550 Tb515 2.349 . S
O550 C560 1.243 . S
O551 Tb504 2.428 . S
O551 C568 1.256 . S
O552 Tb504 2.308 . S
O552 C567 1.266 . S
O553 Tb515 2.393 . S
O553 C567 1.248 . S
O554 Tb515 2.465 . S
O554 C579 1.264 . S
O555 Tb515 2.387 . S
O555 C571 1.264 . S
O556 Tb504 2.349 . S
O556 C571 1.243 . S
O557 Tb515 2.428 . S
O557 C579 1.256 . S
O558 Tb515 2.308 . S
O558 C578 1.266 . S
O559 Tb504 2.393 . S
O559 C578 1.248 . S
C560 O549 1.264 . S
C560 O550 1.243 . S
C561 C564 1.399 . S
C561 C566 1.383 . S
C561 C568 1.496 . S
C562 C563 1.399 . S
C562 C566 1.389 . S
C563 C562 1.399 . S
C563 C565 1.380 . S
C563 H580 0.929 . S
C564 C561 1.399 . S
C564 C565 1.392 . S
C564 H581 0.929 . S
C565 C563 1.380 . S
C565 C564 1.392 . S
C565 H582 0.929 . S
C566 C561 1.383 . S
C566 C562 1.389 . S
C566 H583 0.931 . S
C567 O552 1.266 . S
C567 O553 1.248 . S
C568 Tb504 2.802 . S
C568 O548 1.264 . S
C568 O551 1.256 . S
C568 C561 1.496 . S
C569 C536 1.448 1_655 S
C569 H546 0.930 . S
C569 C570 1.328 . S
C570 C541 1.427 1_655 S
C570 H547 0.929 . S
C570 C569 1.328 . S
C571 O555 1.264 . S
C571 O556 1.243 . S
C572 C575 1.399 . S
C572 C576 1.383 . S
C572 C579 1.496 . S
C573 C574 1.399 . S
C573 C576 1.389 . S
C574 C573 1.399 . S
C574 C577 1.380 . S
C574 H584 0.929 . S
C575 C572 1.399 . S
C575 C577 1.392 . S
C575 H585 0.929 . S
C576 C572 1.383 . S
C576 C573 1.389 . S
C576 H586 0.931 . S
C577 C574 1.380 . S
C577 C575 1.392 . S
C577 H587 0.929 . S
C578 O558 1.266 . S
C578 O559 1.248 . S
C579 Tb515 2.802 . S
C579 O554 1.264 . S
C579 O557 1.256 . S
C579 C572 1.496 . S
H580 C563 0.929 . S
H581 C564 0.929 . S
H582 C565 0.929 . S
H583 C566 0.931 . S
H584 C574 0.929 . S
H585 C575 0.929 . S
H586 C576 0.931 . S
H587 C577 0.929 . S
Tb588 N617 2.617 . S
Tb588 N623 2.572 . S
Tb588 O632 2.465 . S
Tb588 O633 2.387 . S
Tb588 O635 2.428 . S
Tb588 O636 2.308 . S
Tb588 O640 2.349 1_565 S
Tb588 O643 2.375 1_565 S
Tb588 C652 2.802 . S
C589 N590 1.379 . S
C589 C592 1.416 . S
C589 C596 1.424 . S
N590 C589 1.379 . S
N590 C593 1.334 . S
N590 Tb599 2.617 . S
C591 C593 1.390 . S
C591 C594 1.339 . S
C591 H611 0.930 . S
C592 C589 1.416 . S
C592 C594 1.416 . S
C592 C598 1.448 . S
C593 N590 1.334 . S
C593 C591 1.390 . S
C593 H604 0.930 . S
C594 C591 1.339 . S
C594 C592 1.416 . S
C594 H615 0.930 . S
C595 C596 1.413 . S
C595 C597 1.427 . S
C595 C601 1.416 . S
C596 C589 1.424 . S
C596 C595 1.413 . S
C596 N600 1.361 . S
C597 C595 1.427 . S
C597 C598 1.328 . S
C597 H612 0.929 . S
C598 C592 1.448 . S
C598 C597 1.328 . S
C598 H613 0.930 . S
Tb599 N590 2.617 . S
Tb599 N600 2.572 . S
Tb599 O634 2.349 . S
Tb599 O637 2.393 . S
Tb599 O638 2.465 . S
Tb599 O639 2.387 . S
Tb599 O641 2.428 . S
Tb599 O642 2.308 . S
Tb599 C663 2.802 . S
N600 C596 1.361 . S
N600 Tb599 2.572 . S
N600 C602 1.340 . S
C601 C595 1.416 . S
C601 C603 1.332 . S
C601 H609 0.931 . S
C602 N600 1.340 . S
C602 C603 1.407 . S
C602 H608 0.930 . S
C603 C601 1.332 . S
C603 C602 1.407 . S
C603 H605 0.929 . S
H604 C593 0.930 . S
H605 C603 0.929 . S
H606 C621 0.930 . S
H607 C628 0.929 . S
H608 C602 0.930 . S
H609 C601 0.931 . S
H610 C624 0.930 . S
H611 C591 0.930 . S
H612 C597 0.929 . S
H613 C598 0.930 . S
H614 C619 0.930 . S
H615 C594 0.930 . S
H616 C627 0.931 . S
N617 Tb588 2.617 . S
N617 C618 1.379 . S
N617 C621 1.334 . S
C618 N617 1.379 . S
C618 C620 1.416 . S
C618 C626 1.424 . S
C619 H614 0.930 . S
C619 C621 1.390 . S
C619 C622 1.339 . S
C620 C618 1.416 . S
C620 C622 1.416 . S
C620 C653 1.448 . S
C621 H606 0.930 . S
C621 N617 1.334 . S
C621 C619 1.390 . S
C622 C619 1.339 . S
C622 C620 1.416 . S
C622 H629 0.930 . S
N623 Tb588 2.572 . S
N623 C624 1.340 . S
N623 C626 1.361 . S
C624 H610 0.930 . S
C624 N623 1.340 . S
C624 C628 1.407 . S
C625 C626 1.413 . S
C625 C627 1.416 . S
C625 C654 1.427 . S
C626 C618 1.424 . S
C626 N623 1.361 . S
C626 C625 1.413 . S
C627 H616 0.931 . S
C627 C625 1.416 . S
C627 C628 1.332 . S
C628 H607 0.929 . S
C628 C624 1.407 . S
C628 C627 1.332 . S
H629 C622 0.930 . S
H630 C653 0.930 . S
H631 C654 0.929 . S
O632 Tb588 2.465 . S
O632 C652 1.264 . S
O633 Tb588 2.387 . S
O633 C644 1.264 . S
O634 Tb599 2.349 . S
O634 C644 1.243 1_545 S
O635 Tb588 2.428 . S
O635 C652 1.256 . S
O636 Tb588 2.308 . S
O636 C651 1.254 1_565 S
O637 Tb599 2.393 . S
O637 C651 1.268 . S
O638 Tb599 2.465 . S
O638 C663 1.264 . S
O639 Tb599 2.387 . S
O639 C655 1.264 . S
O640 Tb588 2.349 1_545 S
O640 C655 1.243 . S
O641 Tb599 2.428 . S
O641 C663 1.256 . S
O642 Tb599 2.308 . S
O642 C662 1.266 . S
O643 Tb588 2.375 1_545 S
O643 C662 1.274 . S
C644 O633 1.264 . S
C644 O634 1.243 1_565 S
C645 C648 1.399 . S
C645 C650 1.383 . S
C645 C652 1.496 . S
C646 C647 1.399 . S
C646 C650 1.389 . S
C647 C646 1.399 . S
C647 C649 1.380 . S
C647 H664 0.929 . S
C648 C645 1.399 . S
C648 C649 1.392 . S
C648 H665 0.929 . S
C649 C647 1.380 . S
C649 C648 1.392 . S
C649 H666 0.929 . S
C650 C645 1.383 . S
C650 C646 1.389 . S
C650 H667 0.931 . S
C651 O636 1.254 1_545 S
C651 O637 1.268 . S
C652 Tb588 2.802 . S
C652 O632 1.264 . S
C652 O635 1.256 . S
C652 C645 1.496 . S
C653 C620 1.448 . S
C653 H630 0.930 . S
C653 C654 1.328 . S
C654 C625 1.427 . S
C654 H631 0.929 . S
C654 C653 1.328 . S
C655 O639 1.264 . S
C655 O640 1.243 . S
C656 C659 1.399 . S
C656 C660 1.383 . S
C656 C663 1.496 . S
C657 C658 1.399 . S
C657 C660 1.389 . S
C658 C657 1.399 . S
C658 C661 1.380 . S
C658 H668 0.929 . S
C659 C656 1.399 . S
C659 C661 1.392 . S
C659 H669 0.929 . S
C660 C656 1.383 . S
C660 C657 1.389 . S
C660 H670 0.931 . S
C661 C658 1.380 . S
C661 C659 1.392 . S
C661 H671 0.929 . S
C662 O642 1.266 . S
C662 O643 1.274 . S
C663 Tb599 2.802 . S
C663 O638 1.264 . S
C663 O641 1.256 . S
C663 C656 1.496 . S
H664 C647 0.929 . S
H665 C648 0.929 . S
H666 C649 0.929 . S
H667 C650 0.931 . S
H668 C658 0.929 . S
H669 C659 0.929 . S
H670 C660 0.931 . S
H671 C661 0.929 . S
Tb672 N701 2.617 . S
Tb672 N707 2.572 . S
Tb672 O716 2.465 . S
Tb672 O717 2.387 . S
Tb672 O719 2.428 . S
Tb672 O720 2.308 . S
Tb672 O724 2.349 . S
Tb672 O727 2.393 . S
Tb672 C736 2.802 . S
C673 N674 1.379 . S
C673 C676 1.416 . S
C673 C680 1.424 . S
N674 C673 1.379 . S
N674 C677 1.334 1_565 S
N674 Tb683 2.617 1_565 S
C675 C677 1.390 1_565 S
C675 C678 1.339 . S
C675 H695 0.930 . S
C676 C673 1.416 . S
C676 C678 1.416 . S
C676 C682 1.448 . S
C677 N674 1.334 1_545 S
C677 C675 1.390 1_545 S
C677 H688 0.930 . S
C678 C675 1.339 . S
C678 C676 1.416 . S
C678 H699 0.930 . S
C679 C680 1.413 . S
C679 C681 1.427 . S
C679 C685 1.416 . S
C680 C673 1.424 . S
C680 C679 1.413 . S
C680 N684 1.361 . S
C681 C679 1.427 . S
C681 C682 1.328 . S
C681 H696 0.929 . S
C682 C676 1.448 . S
C682 C681 1.328 . S
C682 H697 0.930 . S
Tb683 N674 2.617 1_545 S
Tb683 N684 2.572 1_545 S
Tb683 O718 2.349 . S
Tb683 O721 2.393 . S
Tb683 O722 2.465 . S
Tb683 O723 2.387 . S
Tb683 O725 2.428 . S
Tb683 O726 2.308 . S
Tb683 C747 2.802 . S
N684 C680 1.361 . S
N684 Tb683 2.572 1_565 S
N684 C686 1.340 . S
C685 C679 1.416 . S
C685 C687 1.332 . S
C685 H693 0.931 . S
C686 N684 1.340 . S
C686 C687 1.407 . S
C686 H692 0.930 . S
C687 C685 1.332 . S
C687 C686 1.407 . S
C687 H689 0.929 . S
H688 C677 0.930 . S
H689 C687 0.929 . S
H690 C705 0.930 . S
H691 C712 0.929 . S
H692 C686 0.930 . S
H693 C685 0.931 . S
H694 C708 0.930 . S
H695 C675 0.930 . S
H696 C681 0.929 . S
H697 C682 0.930 . S
H698 C703 0.930 . S
H699 C678 0.930 . S
H700 C711 0.931 . S
N701 Tb672 2.617 . S
N701 C702 1.379 . S
N701 C705 1.334 . S
C702 N701 1.379 . S
C702 C704 1.416 . S
C702 C710 1.424 . S
C703 H698 0.930 . S
C703 C705 1.390 . S
C703 C706 1.339 . S
C704 C702 1.416 . S
C704 C706 1.416 . S
C704 C737 1.448 . S
C705 H690 0.930 . S
C705 N701 1.334 . S
C705 C703 1.390 . S
C706 C703 1.339 . S
C706 C704 1.416 . S
C706 H713 0.930 . S
N707 Tb672 2.572 . S
N707 C708 1.340 . S
N707 C710 1.361 . S
C708 H694 0.930 . S
C708 N707 1.340 . S
C708 C712 1.407 . S
C709 C710 1.413 . S
C709 C711 1.416 . S
C709 C738 1.427 . S
C710 C702 1.424 . S
C710 N707 1.361 . S
C710 C709 1.413 . S
C711 H700 0.931 . S
C711 C709 1.416 . S
C711 C712 1.332 . S
C712 H691 0.929 . S
C712 C708 1.407 . S
C712 C711 1.332 . S
H713 C706 0.930 . S
H714 C737 0.930 . S
H715 C738 0.929 . S
O716 Tb672 2.465 . S
O716 C736 1.264 . S
O717 Tb672 2.387 . S
O717 C728 1.264 . S
O718 Tb683 2.349 . S
O718 C728 1.243 . S
O719 Tb672 2.428 . S
O719 C736 1.256 . S
O720 Tb672 2.308 . S
O720 C735 1.266 . S
O721 Tb683 2.393 . S
O721 C735 1.248 . S
O722 Tb683 2.465 . S
O722 C747 1.264 . S
O723 Tb683 2.387 . S
O723 C739 1.264 . S
O724 Tb672 2.349 . S
O724 C739 1.243 . S
O725 Tb683 2.428 . S
O725 C747 1.256 . S
O726 Tb683 2.308 . S
O726 C746 1.266 . S
O727 Tb672 2.393 . S
O727 C746 1.248 . S
C728 O717 1.264 . S
C728 O718 1.243 . S
C729 C732 1.399 . S
C729 C734 1.383 . S
C729 C736 1.496 . S
C730 C731 1.399 . S
C730 C734 1.389 . S
C731 C730 1.399 . S
C731 C733 1.380 . S
C731 H748 0.929 . S
C732 C729 1.399 . S
C732 C733 1.392 . S
C732 H749 0.929 . S
C733 C731 1.380 . S
C733 C732 1.392 . S
C733 H750 0.929 . S
C734 C729 1.383 . S
C734 C730 1.389 . S
C734 H751 0.931 . S
C735 O720 1.266 . S
C735 O721 1.248 . S
C736 Tb672 2.802 . S
C736 O716 1.264 . S
C736 O719 1.256 . S
C736 C729 1.496 . S
C737 C704 1.448 . S
C737 H714 0.930 . S
C737 C738 1.328 . S
C738 C709 1.427 . S
C738 H715 0.929 . S
C738 C737 1.328 . S
C739 O723 1.264 . S
C739 O724 1.243 . S
C740 C743 1.399 1_545 S
C740 C744 1.383 1_545 S
C740 C747 1.496 . S
C741 C742 1.399 . S
C741 C744 1.389 . S
C742 C741 1.399 . S
C742 C745 1.380 . S
C742 H752 0.929 . S
C743 C740 1.399 1_565 S
C743 C745 1.392 . S
C743 H753 0.942 . S
C744 C740 1.383 1_565 S
C744 C741 1.389 . S
C744 H754 0.931 1_565 S
C745 C742 1.380 . S
C745 C743 1.392 . S
C745 H755 0.929 . S
C746 O726 1.266 . S
C746 O727 1.248 . S
C747 Tb683 2.802 . S
C747 O722 1.264 . S
C747 O725 1.256 . S
C747 C740 1.496 . S
H748 C731 0.929 . S
H749 C732 0.929 . S
H750 C733 0.929 . S
H751 C734 0.931 . S
H752 C742 0.929 . S
H753 C743 0.942 . S
H754 C744 0.931 1_545 S
H755 C745 0.929 . S
Tb756 N785 2.617 . S
Tb756 N791 2.572 . S
Tb756 O800 2.465 . S
Tb756 O801 2.387 . S
Tb756 O803 2.428 . S
Tb756 O804 2.308 . S
Tb756 O808 2.349 . S
Tb756 O811 2.393 . S
Tb756 C820 2.802 . S
C757 N758 1.379 . S
C757 C760 1.416 . S
C757 C764 1.424 . S
N758 C757 1.379 . S
N758 C761 1.334 . S
N758 Tb767 2.617 . S
C759 C761 1.390 . S
C759 C762 1.339 . S
C759 H779 0.930 . S
C760 C757 1.416 . S
C760 C762 1.416 . S
C760 C766 1.448 . S
C761 N758 1.334 . S
C761 C759 1.390 . S
C761 H772 0.930 . S
C762 C759 1.339 . S
C762 C760 1.416 . S
C762 H783 0.930 . S
C763 C764 1.413 . S
C763 C765 1.427 . S
C763 C769 1.416 . S
C764 C757 1.424 . S
C764 C763 1.413 . S
C764 N768 1.361 . S
C765 C763 1.427 . S
C765 C766 1.328 . S
C765 H780 0.929 . S
C766 C760 1.448 . S
C766 C765 1.328 . S
C766 H781 0.930 . S
Tb767 N758 2.617 . S
Tb767 N768 2.572 . S
Tb767 O802 2.349 . S
Tb767 O805 2.393 . S
Tb767 O806 2.465 . S
Tb767 O807 2.387 . S
Tb767 O809 2.428 . S
Tb767 O810 2.308 . S
Tb767 C831 2.802 . S
N768 C764 1.361 . S
N768 Tb767 2.572 . S
N768 C770 1.340 . S
C769 C763 1.416 . S
C769 C771 1.332 . S
C769 H777 0.931 . S
C770 N768 1.340 . S
C770 C771 1.407 . S
C770 H776 0.930 . S
C771 C769 1.332 . S
C771 C770 1.407 . S
C771 H773 0.929 . S
H772 C761 0.930 . S
H773 C771 0.929 . S
H774 C789 0.930 . S
H775 C796 0.929 . S
H776 C770 0.930 . S
H777 C769 0.931 . S
H778 C792 0.938 . S
H779 C759 0.930 . S
H780 C765 0.929 . S
H781 C766 0.930 . S
H782 C787 0.930 . S
H783 C762 0.930 . S
H784 C795 0.931 . S
N785 Tb756 2.617 . S
N785 C786 1.379 1_455 S
N785 C789 1.334 . S
C786 N785 1.379 1_655 S
C786 C788 1.416 . S
C786 C794 1.424 . S
C787 H782 0.930 . S
C787 C789 1.390 1_655 S
C787 C790 1.339 . S
C788 C786 1.416 . S
C788 C790 1.416 . S
C788 C821 1.448 . S
C789 H774 0.930 . S
C789 N785 1.334 . S
C789 C787 1.390 1_455 S
C790 C787 1.339 . S
C790 C788 1.416 . S
C790 H797 0.930 . S
N791 Tb756 2.572 . S
N791 C792 1.342 . S
N791 C794 1.361 1_455 S
C792 H778 0.938 . S
C792 N791 1.342 . S
C792 C796 1.398 1_455 S
C793 C794 1.413 . S
C793 C795 1.416 . S
C793 C822 1.427 . S
C794 C786 1.424 . S
C794 N791 1.361 1_655 S
C794 C793 1.413 . S
C795 H784 0.931 . S
C795 C793 1.416 . S
C795 C796 1.332 . S
C796 H775 0.929 . S
C796 C792 1.398 1_655 S
C796 C795 1.332 . S
H797 C790 0.930 . S
H798 C821 0.930 . S
H799 C822 0.929 . S
O800 Tb756 2.465 . S
O800 C820 1.264 . S
O801 Tb756 2.387 . S
O801 C812 1.264 . S
O802 Tb767 2.349 . S
O802 C812 1.243 . S
O803 Tb756 2.428 . S
O803 C820 1.256 . S
O804 Tb756 2.308 . S
O804 C819 1.266 . S
O805 Tb767 2.393 . S
O805 C819 1.248 . S
O806 Tb767 2.465 . S
O806 C831 1.264 . S
O807 Tb767 2.387 . S
O807 C823 1.264 . S
O808 Tb756 2.349 . S
O808 C823 1.243 . S
O809 Tb767 2.428 . S
O809 C831 1.256 . S
O810 Tb767 2.308 . S
O810 C830 1.266 . S
O811 Tb756 2.393 . S
O811 C830 1.248 . S
C812 O801 1.264 . S
C812 O802 1.243 . S
C813 C816 1.399 . S
C813 C818 1.383 . S
C813 C820 1.496 . S
C814 C815 1.399 . S
C814 C818 1.389 1_655 S
C815 C814 1.399 . S
C815 C817 1.380 . S
C815 H832 0.929 . S
C816 C813 1.399 . S
C816 C817 1.392 1_455 S
C816 H833 0.929 . S
C817 C815 1.380 . S
C817 C816 1.392 1_655 S
C817 H834 0.929 . S
C818 C813 1.383 . S
C818 C814 1.389 1_455 S
C818 H835 0.931 . S
C819 O804 1.266 . S
C819 O805 1.248 . S
C820 Tb756 2.802 . S
C820 O800 1.264 . S
C820 O803 1.256 . S
C820 C813 1.496 . S
C821 C788 1.448 . S
C821 H798 0.930 . S
C821 C822 1.328 . S
C822 C793 1.427 . S
C822 H799 0.929 . S
C822 C821 1.328 . S
C823 O807 1.264 . S
C823 O808 1.243 . S
C824 C827 1.399 . S
C824 C828 1.383 . S
C824 C831 1.496 . S
C825 C826 1.399 . S
C825 C828 1.389 . S
C826 C825 1.399 . S
C826 C829 1.380 . S
C826 H836 0.929 . S
C827 C824 1.399 . S
C827 C829 1.392 . S
C827 H837 0.929 . S
C828 C824 1.383 . S
C828 C825 1.389 . S
C828 H838 0.931 . S
C829 C826 1.380 . S
C829 C827 1.392 . S
C829 H839 0.929 . S
C830 O810 1.266 . S
C830 O811 1.248 . S
C831 Tb767 2.802 . S
C831 O806 1.264 . S
C831 O809 1.256 . S
C831 C824 1.496 . S
H832 C815 0.929 . S
H833 C816 0.929 . S
H834 C817 0.929 . S
H835 C818 0.931 . S
H836 C826 0.929 . S
H837 C827 0.929 . S
H838 C828 0.931 . S
H839 C829 0.929 . S
Tb840 N869 2.617 1_545 S
Tb840 N875 2.572 1_545 S
Tb840 O884 2.465 1_545 S
Tb840 O885 2.387 . S
Tb840 O887 2.428 1_545 S
Tb840 O888 2.308 . S
Tb840 O892 2.349 . S
Tb840 O895 2.393 . S
Tb840 C904 2.802 1_545 S
C841 N842 1.379 . S
C841 C844 1.416 . S
C841 C848 1.424 . S
N842 C841 1.379 . S
N842 C845 1.334 . S
N842 Tb851 2.617 . S
C843 C845 1.390 . S
C843 C846 1.339 . S
C843 H863 0.930 . S
C844 C841 1.416 . S
C844 C846 1.416 . S
C844 C850 1.448 . S
C845 N842 1.334 . S
C845 C843 1.390 . S
C845 H856 0.930 . S
C846 C843 1.339 . S
C846 C844 1.416 . S
C846 H867 0.930 . S
C847 C848 1.413 . S
C847 C849 1.427 . S
C847 C853 1.416 . S
C848 C841 1.424 . S
C848 C847 1.413 . S
C848 N852 1.361 . S
C849 C847 1.427 . S
C849 C850 1.328 . S
C849 H864 0.929 . S
C850 C844 1.448 . S
C850 C849 1.328 . S
C850 H865 0.930 . S
Tb851 N842 2.617 . S
Tb851 N852 2.572 . S
Tb851 O886 2.349 . S
Tb851 O889 2.393 . S
Tb851 O890 2.465 . S
Tb851 O891 2.387 . S
Tb851 O893 2.428 . S
Tb851 O894 2.308 . S
Tb851 C915 2.802 . S
N852 C848 1.361 . S
N852 Tb851 2.572 . S
N852 C854 1.340 . S
C853 C847 1.416 . S
C853 C855 1.332 . S
C853 H861 0.931 . S
C854 N852 1.340 . S
C854 C855 1.407 . S
C854 H860 0.930 . S
C855 C853 1.332 . S
C855 C854 1.407 . S
C855 H857 0.929 . S
H856 C845 0.930 . S
H857 C855 0.929 . S
H858 C873 0.930 . S
H859 C880 0.929 . S
H860 C854 0.930 . S
H861 C853 0.931 . S
H862 C876 0.930 . S
H863 C843 0.930 . S
H864 C849 0.929 . S
H865 C850 0.930 . S
H866 C871 0.930 . S
H867 C846 0.930 . S
H868 C879 0.931 . S
N869 Tb840 2.617 1_565 S
N869 C870 1.379 . S
N869 C873 1.334 . S
C870 N869 1.379 . S
C870 C872 1.416 . S
C870 C878 1.424 . S
C871 H866 0.930 . S
C871 C873 1.390 . S
C871 C874 1.339 . S
C872 C870 1.416 . S
C872 C874 1.416 . S
C872 C905 1.448 . S
C873 H858 0.930 . S
C873 N869 1.334 . S
C873 C871 1.390 . S
C874 C871 1.339 . S
C874 C872 1.416 . S
C874 H881 0.930 . S
N875 Tb840 2.572 1_565 S
N875 C876 1.340 . S
N875 C878 1.361 . S
C876 H862 0.930 . S
C876 N875 1.340 . S
C876 C880 1.407 . S
C877 C878 1.413 . S
C877 C879 1.416 . S
C877 C906 1.427 . S
C878 C870 1.424 . S
C878 N875 1.361 . S
C878 C877 1.413 . S
C879 H868 0.931 . S
C879 C877 1.416 . S
C879 C880 1.332 . S
C880 H859 0.929 . S
C880 C876 1.407 . S
C880 C879 1.332 . S
H881 C874 0.930 . S
H882 C905 0.930 . S
H883 C906 0.929 . S
O884 Tb840 2.465 1_565 S
O884 C904 1.264 . S
O885 Tb840 2.387 . S
O885 C896 1.264 . S
O886 Tb851 2.349 . S
O886 C896 1.243 . S
O887 Tb840 2.428 1_565 S
O887 C904 1.256 . S
O888 Tb840 2.308 . S
O888 C903 1.266 . S
O889 Tb851 2.393 . S
O889 C903 1.248 . S
O890 Tb851 2.465 . S
O890 C915 1.264 . S
O891 Tb851 2.387 . S
O891 C907 1.264 . S
O892 Tb840 2.349 . S
O892 C907 1.243 . S
O893 Tb851 2.428 . S
O893 C915 1.256 . S
O894 Tb851 2.308 . S
O894 C914 1.266 . S
O895 Tb840 2.393 . S
O895 C914 1.248 . S
C896 O885 1.264 . S
C896 O886 1.243 . S
C897 C900 1.399 . S
C897 C902 1.383 . S
C897 C904 1.496 . S
C898 C899 1.399 . S
C898 C902 1.389 . S
C899 C898 1.399 . S
C899 C901 1.380 . S
C899 H916 0.929 . S
C900 C897 1.399 . S
C900 C901 1.392 . S
C900 H917 0.929 . S
C901 C899 1.380 . S
C901 C900 1.392 . S
C901 H918 0.929 . S
C902 C897 1.383 . S
C902 C898 1.389 . S
C902 H919 0.931 . S
C903 O888 1.266 . S
C903 O889 1.248 . S
C904 Tb840 2.802 1_565 S
C904 O884 1.264 . S
C904 O887 1.256 . S
C904 C897 1.496 . S
C905 C872 1.448 . S
C905 H882 0.930 . S
C905 C906 1.328 . S
C906 C877 1.427 . S
C906 H883 0.929 . S
C906 C905 1.328 . S
C907 O891 1.264 . S
C907 O892 1.243 . S
C908 C911 1.399 . S
C908 C912 1.383 . S
C908 C915 1.496 . S
C909 C910 1.399 . S
C909 C912 1.389 . S
C910 C909 1.399 . S
C910 C913 1.380 . S
C910 H920 0.929 . S
C911 C908 1.399 . S
C911 C913 1.392 . S
C911 H921 0.929 . S
C912 C908 1.383 . S
C912 C909 1.389 . S
C912 H922 0.931 . S
C913 C910 1.380 . S
C913 C911 1.392 . S
C913 H923 0.929 . S
C914 O894 1.266 . S
C914 O895 1.248 . S
C915 Tb851 2.802 . S
C915 O890 1.264 . S
C915 O893 1.256 . S
C915 C908 1.496 . S
H916 C899 0.929 . S
H917 C900 0.929 . S
H918 C901 0.929 . S
H919 C902 0.931 . S
H920 C910 0.929 . S
H921 C911 0.929 . S
H922 C912 0.931 . S
H923 C913 0.929 . S
Tb924 N953 2.617 . S
Tb924 N959 2.572 . S
Tb924 O968 2.465 . S
Tb924 O969 2.387 . S
Tb924 O971 2.428 . S
Tb924 O972 2.308 . S
Tb924 O976 2.349 . S
Tb924 O979 2.393 . S
Tb924 C988 2.802 . S
C925 N926 1.379 . S
C925 C928 1.416 . S
C925 C932 1.424 . S
N926 C925 1.379 . S
N926 C929 1.334 . S
N926 Tb935 2.617 1_655 S
C927 C929 1.390 . S
C927 C930 1.339 . S
C927 H947 0.930 . S
C928 C925 1.416 . S
C928 C930 1.416 . S
C928 C934 1.448 . S
C929 N926 1.334 . S
C929 C927 1.390 . S
C929 H940 0.930 1_655 S
C930 C927 1.339 . S
C930 C928 1.416 . S
C930 H951 0.930 . S
C931 C932 1.413 . S
C931 C933 1.427 . S
C931 C937 1.416 . S
C932 C925 1.424 . S
C932 C931 1.413 . S
C932 N936 1.361 . S
C933 C931 1.427 . S
C933 C934 1.328 . S
C933 H948 0.929 . S
C934 C928 1.448 . S
C934 C933 1.328 . S
C934 H949 0.930 . S
Tb935 N926 2.617 1_455 S
Tb935 N936 2.572 1_455 S
Tb935 O970 2.349 . S
Tb935 O973 2.393 . S
Tb935 O974 2.465 . S
Tb935 O975 2.387 . S
Tb935 O977 2.428 . S
Tb935 O978 2.308 . S
Tb935 C999 2.802 . S
N936 C932 1.361 . S
N936 Tb935 2.572 1_655 S
N936 C938 1.340 . S
C937 C931 1.416 . S
C937 C939 1.332 . S
C937 H945 0.931 . S
C938 N936 1.340 . S
C938 C939 1.407 . S
C938 H944 0.930 . S
C939 C937 1.332 . S
C939 C938 1.407 . S
C939 H941 0.929 . S
H940 C929 0.930 1_455 S
H941 C939 0.929 . S
H942 C957 0.930 . S
H943 C964 0.929 . S
H944 C938 0.930 . S
H945 C937 0.931 . S
H946 C960 0.930 . S
H947 C927 0.930 . S
H948 C933 0.929 . S
H949 C934 0.930 . S
H950 C955 0.930 . S
H951 C930 0.930 . S
H952 C963 0.931 . S
N953 Tb924 2.617 . S
N953 C954 1.379 . S
N953 C957 1.334 . S
C954 N953 1.379 . S
C954 C956 1.416 . S
C954 C962 1.424 . S
C955 H950 0.930 . S
C955 C957 1.390 . S
C955 C958 1.339 . S
C956 C954 1.416 . S
C956 C958 1.416 . S
C956 C989 1.448 . S
C957 H942 0.930 . S
C957 N953 1.334 . S
C957 C955 1.390 . S
C958 C955 1.339 . S
C958 C956 1.416 . S
C958 H965 0.930 . S
N959 Tb924 2.572 . S
N959 C960 1.340 . S
N959 C962 1.361 . S
C960 H946 0.930 . S
C960 N959 1.340 . S
C960 C964 1.407 . S
C961 C962 1.413 . S
C961 C963 1.416 . S
C961 C990 1.427 . S
C962 C954 1.424 . S
C962 N959 1.361 . S
C962 C961 1.413 . S
C963 H952 0.931 . S
C963 C961 1.416 . S
C963 C964 1.332 . S
C964 H943 0.929 . S
C964 C960 1.407 . S
C964 C963 1.332 . S
H965 C958 0.930 . S
H966 C989 0.930 . S
H967 C990 0.929 . S
O968 Tb924 2.465 . S
O968 C988 1.264 . S
O969 Tb924 2.387 . S
O969 C980 1.264 . S
O970 Tb935 2.349 . S
O970 C980 1.243 . S
O971 Tb924 2.428 . S
O971 C988 1.256 . S
O972 Tb924 2.308 . S
O972 C987 1.266 . S
O973 Tb935 2.393 . S
O973 C987 1.248 . S
O974 Tb935 2.465 . S
O974 C999 1.264 . S
O975 Tb935 2.387 . S
O975 C991 1.264 . S
O976 Tb924 2.349 . S
O976 C991 1.243 . S
O977 Tb935 2.428 . S
O977 C999 1.256 . S
O978 Tb935 2.308 . S
O978 C998 1.266 . S
O979 Tb924 2.393 . S
O979 C998 1.248 . S
C980 O969 1.264 . S
C980 O970 1.243 . S
C981 C984 1.399 . S
C981 C986 1.383 . S
C981 C988 1.496 . S
C982 C983 1.399 . S
C982 C986 1.389 . S
C983 C982 1.399 . S
C983 C985 1.380 . S
C983 H1000 0.929 . S
C984 C981 1.399 . S
C984 C985 1.392 . S
C984 H1001 0.929 . S
C985 C983 1.380 . S
C985 C984 1.392 . S
C985 H1002 0.929 . S
C986 C981 1.383 . S
C986 C982 1.389 . S
C986 H1003 0.931 . S
C987 O972 1.266 . S
C987 O973 1.248 . S
C988 Tb924 2.802 . S
C988 O968 1.264 . S
C988 O971 1.256 . S
C988 C981 1.496 . S
C989 C956 1.448 . S
C989 H966 0.930 . S
C989 C990 1.328 . S
C990 C961 1.427 . S
C990 H967 0.929 . S
C990 C989 1.328 . S
C991 O975 1.264 . S
C991 O976 1.243 . S
C992 C995 1.399 . S
C992 C996 1.383 . S
C992 C999 1.496 1_655 S
C993 C994 1.399 . S
C993 C996 1.389 . S
C994 C993 1.399 . S
C994 C997 1.380 . S
C994 H1004 0.929 . S
C995 C992 1.399 . S
C995 C997 1.392 . S
C995 H1005 0.929 . S
C996 C992 1.383 . S
C996 C993 1.389 . S
C996 H1006 0.931 . S
C997 C994 1.380 . S
C997 C995 1.392 . S
C997 H1007 0.929 . S
C998 O978 1.266 . S
C998 O979 1.248 . S
C999 Tb935 2.802 . S
C999 O974 1.264 . S
C999 O977 1.256 . S
C999 C992 1.496 1_455 S
H1000 C983 0.929 . S
H1001 C984 0.929 . S
H1002 C985 0.929 . S
H1003 C986 0.931 . S
H1004 C994 0.929 . S
H1005 C995 0.929 . S
H1006 C996 0.931 . S
H1007 C997 0.929 . S
Tb1008 N1037 2.620 1_545 S
Tb1008 N1043 2.576 1_545 S
Tb1008 O1052 2.467 1_545 S
Tb1008 O1053 2.387 1_545 S
Tb1008 O1055 2.429 1_545 S
Tb1008 O1056 2.306 . S
Tb1008 O1060 2.345 . S
Tb1008 O1063 2.390 . S
Tb1008 C1072 2.804 1_545 S
C1009 N1010 1.379 . S
C1009 C1012 1.416 . S
C1009 C1016 1.424 . S
N1010 C1009 1.379 . S
N1010 C1013 1.334 . S
N1010 Tb1019 2.617 . S
C1011 C1013 1.390 . S
C1011 C1014 1.339 . S
C1011 H1031 0.930 . S
C1012 C1009 1.416 . S
C1012 C1014 1.416 . S
C1012 C1018 1.448 . S
C1013 N1010 1.334 . S
C1013 C1011 1.390 . S
C1013 H1024 0.930 . S
C1014 C1011 1.339 . S
C1014 C1012 1.416 . S
C1014 H1035 0.930 . S
C1015 C1016 1.413 . S
C1015 C1017 1.427 . S
C1015 C1021 1.416 . S
C1016 C1009 1.424 . S
C1016 C1015 1.413 . S
C1016 N1020 1.361 . S
C1017 C1015 1.427 . S
C1017 C1018 1.328 . S
C1017 H1032 0.929 . S
C1018 C1012 1.448 . S
C1018 C1017 1.328 . S
C1018 H1033 0.930 . S
Tb1019 N1010 2.617 . S
Tb1019 N1020 2.572 . S
Tb1019 O1054 2.349 . S
Tb1019 O1057 2.393 . S
Tb1019 O1058 2.465 . S
Tb1019 O1059 2.387 . S
Tb1019 O1061 2.428 . S
Tb1019 O1062 2.308 . S
Tb1019 C1083 2.802 . S
N1020 C1016 1.361 . S
N1020 Tb1019 2.572 . S
N1020 C1022 1.340 . S
C1021 C1015 1.416 . S
C1021 C1023 1.332 . S
C1021 H1029 0.931 . S
C1022 N1020 1.340 . S
C1022 C1023 1.407 . S
C1022 H1028 0.930 . S
C1023 C1021 1.332 . S
C1023 C1022 1.407 . S
C1023 H1025 0.929 . S
H1024 C1013 0.930 . S
H1025 C1023 0.929 . S
H1026 C1041 0.930 . S
H1027 C1048 0.929 . S
H1028 C1022 0.930 . S
H1029 C1021 0.931 . S
H1030 C1044 0.930 . S
H1031 C1011 0.930 . S
H1032 C1017 0.929 . S
H1033 C1018 0.930 . S
H1034 C1039 0.930 . S
H1035 C1014 0.930 . S
H1036 C1047 0.931 . S
N1037 Tb1008 2.620 1_565 S
N1037 C1038 1.379 . S
N1037 C1041 1.334 . S
C1038 N1037 1.379 . S
C1038 C1040 1.416 . S
C1038 C1046 1.424 . S
C1039 H1034 0.930 . S
C1039 C1041 1.390 . S
C1039 C1042 1.339 . S
C1040 C1038 1.416 . S
C1040 C1042 1.416 . S
C1040 C1073 1.448 . S
C1041 H1026 0.930 . S
C1041 N1037 1.334 . S
C1041 C1039 1.390 . S
C1042 C1039 1.339 . S
C1042 C1040 1.416 . S
C1042 H1049 0.930 . S
N1043 Tb1008 2.576 1_565 S
N1043 C1044 1.340 . S
N1043 C1046 1.361 . S
C1044 H1030 0.930 . S
C1044 N1043 1.340 . S
C1044 C1048 1.407 . S
C1045 C1046 1.413 . S
C1045 C1047 1.416 . S
C1045 C1074 1.427 . S
C1046 C1038 1.424 . S
C1046 N1043 1.361 . S
C1046 C1045 1.413 . S
C1047 H1036 0.931 . S
C1047 C1045 1.416 . S
C1047 C1048 1.332 . S
C1048 H1027 0.929 . S
C1048 C1044 1.407 . S
C1048 C1047 1.332 . S
H1049 C1042 0.930 . S
H1050 C1073 0.930 . S
H1051 C1074 0.929 . S
O1052 Tb1008 2.467 1_565 S
O1052 C1072 1.264 . S
O1053 Tb1008 2.387 1_565 S
O1053 C1064 1.264 1_565 S
O1054 Tb1019 2.349 . S
O1054 C1064 1.243 . S
O1055 Tb1008 2.429 1_565 S
O1055 C1072 1.256 . S
O1056 Tb1008 2.306 . S
O1056 C1071 1.266 . S
O1057 Tb1019 2.393 . S
O1057 C1071 1.248 . S
O1058 Tb1019 2.465 . S
O1058 C1083 1.264 . S
O1059 Tb1019 2.387 . S
O1059 C1075 1.264 . S
O1060 Tb1008 2.345 . S
O1060 C1075 1.243 . S
O1061 Tb1019 2.428 . S
O1061 C1083 1.256 . S
O1062 Tb1019 2.308 . S
O1062 C1082 1.266 . S
O1063 Tb1008 2.390 . S
O1063 C1082 1.248 . S
C1064 O1053 1.264 1_545 S
C1064 O1054 1.243 . S
C1065 C1068 1.399 . S
C1065 C1070 1.383 . S
C1065 C1072 1.496 . S
C1066 C1067 1.399 . S
C1066 C1070 1.389 . S
C1067 C1066 1.399 . S
C1067 C1069 1.380 . S
C1067 H1084 0.929 . S
C1068 C1065 1.399 . S
C1068 C1069 1.392 . S
C1068 H1085 0.929 . S
C1069 C1067 1.380 . S
C1069 C1068 1.392 . S
C1069 H1086 0.929 . S
C1070 C1065 1.383 . S
C1070 C1066 1.389 . S
C1070 H1087 0.931 . S
C1071 O1056 1.266 . S
C1071 O1057 1.248 . S
C1072 Tb1008 2.804 1_565 S
C1072 O1052 1.264 . S
C1072 O1055 1.256 . S
C1072 C1065 1.496 . S
C1073 C1040 1.448 . S
C1073 H1050 0.930 . S
C1073 C1074 1.328 . S
C1074 C1045 1.427 . S
C1074 H1051 0.929 . S
C1074 C1073 1.328 . S
C1075 O1059 1.264 . S
C1075 O1060 1.243 . S
C1076 C1079 1.399 . S
C1076 C1080 1.383 . S
C1076 C1083 1.496 . S
C1077 C1078 1.399 . S
C1077 C1080 1.389 . S
C1078 C1077 1.399 . S
C1078 C1081 1.380 . S
C1078 H1088 0.929 . S
C1079 C1076 1.399 . S
C1079 C1081 1.392 . S
C1079 H1089 0.929 . S
C1080 C1076 1.383 . S
C1080 C1077 1.389 . S
C1080 H1090 0.931 . S
C1081 C1078 1.380 . S
C1081 C1079 1.392 . S
C1081 H1091 0.929 . S
C1082 O1062 1.266 . S
C1082 O1063 1.248 . S
C1083 Tb1019 2.802 . S
C1083 O1058 1.264 . S
C1083 O1061 1.256 . S
C1083 C1076 1.496 . S
H1084 C1067 0.929 . S
H1085 C1068 0.929 . S
H1086 C1069 0.929 . S
H1087 C1070 0.931 . S
H1088 C1078 0.929 . S
H1089 C1079 0.929 . S
H1090 C1080 0.931 . S
H1091 C1081 0.929 . S
Tb1092 N1121 2.617 . S
Tb1092 N1127 2.572 . S
Tb1092 O1136 2.465 . S
Tb1092 O1137 2.387 . S
Tb1092 O1139 2.428 . S
Tb1092 O1140 2.308 . S
Tb1092 O1144 2.349 . S
Tb1092 O1147 2.393 . S
Tb1092 C1156 2.802 . S
C1093 N1094 1.379 . S
C1093 C1096 1.416 . S
C1093 C1100 1.424 . S
N1094 C1093 1.379 . S
N1094 C1097 1.334 . S
N1094 Tb1103 2.617 1_655 S
C1095 C1097 1.390 . S
C1095 C1098 1.339 . S
C1095 H1115 0.930 . S
C1096 C1093 1.416 . S
C1096 C1098 1.416 . S
C1096 C1102 1.448 . S
C1097 N1094 1.334 . S
C1097 C1095 1.390 . S
C1097 H1108 0.930 1_655 S
C1098 C1095 1.339 . S
C1098 C1096 1.416 . S
C1098 H1119 0.930 . S
C1099 C1100 1.413 . S
C1099 C1101 1.427 . S
C1099 C1105 1.416 . S
C1100 C1093 1.424 . S
C1100 C1099 1.413 . S
C1100 N1104 1.361 . S
C1101 C1099 1.427 . S
C1101 C1102 1.328 . S
C1101 H1116 0.929 . S
C1102 C1096 1.448 . S
C1102 C1101 1.328 . S
C1102 H1117 0.930 . S
Tb1103 N1094 2.617 1_455 S
Tb1103 N1104 2.572 1_455 S
Tb1103 O1138 2.349 . S
Tb1103 O1141 2.393 . S
Tb1103 O1142 2.465 . S
Tb1103 O1143 2.387 . S
Tb1103 O1145 2.428 . S
Tb1103 O1146 2.308 . S
Tb1103 C1167 2.802 . S
N1104 C1100 1.361 . S
N1104 Tb1103 2.572 1_655 S
N1104 C1106 1.340 . S
C1105 C1099 1.416 . S
C1105 C1107 1.332 . S
C1105 H1113 0.931 . S
C1106 N1104 1.340 . S
C1106 C1107 1.407 . S
C1106 H1112 0.930 . S
C1107 C1105 1.332 . S
C1107 C1106 1.407 . S
C1107 H1109 0.929 . S
H1108 C1097 0.930 1_455 S
H1109 C1107 0.929 . S
H1110 C1125 0.930 . S
H1111 C1132 0.929 . S
H1112 C1106 0.930 . S
H1113 C1105 0.931 . S
H1114 C1128 0.930 . S
H1115 C1095 0.930 . S
H1116 C1101 0.929 . S
H1117 C1102 0.930 . S
H1118 C1123 0.930 . S
H1119 C1098 0.930 . S
H1120 C1131 0.931 . S
N1121 Tb1092 2.617 . S
N1121 C1122 1.379 . S
N1121 C1125 1.334 . S
C1122 N1121 1.379 . S
C1122 C1124 1.416 . S
C1122 C1130 1.424 . S
C1123 H1118 0.930 . S
C1123 C1125 1.390 . S
C1123 C1126 1.339 . S
C1124 C1122 1.416 . S
C1124 C1126 1.416 . S
C1124 C1157 1.448 . S
C1125 H1110 0.930 . S
C1125 N1121 1.334 . S
C1125 C1123 1.390 . S
C1126 C1123 1.339 . S
C1126 C1124 1.416 . S
C1126 H1133 0.930 . S
N1127 Tb1092 2.572 . S
N1127 C1128 1.340 . S
N1127 C1130 1.361 . S
C1128 H1114 0.930 . S
C1128 N1127 1.340 . S
C1128 C1132 1.407 . S
C1129 C1130 1.413 . S
C1129 C1131 1.416 . S
C1129 C1158 1.427 . S
C1130 C1122 1.424 . S
C1130 N1127 1.361 . S
C1130 C1129 1.413 . S
C1131 H1120 0.931 . S
C1131 C1129 1.416 . S
C1131 C1132 1.332 . S
C1132 H1111 0.929 . S
C1132 C1128 1.407 . S
C1132 C1131 1.332 . S
H1133 C1126 0.930 . S
H1134 C1157 0.930 . S
H1135 C1158 0.929 . S
O1136 Tb1092 2.465 . S
O1136 C1156 1.264 . S
O1137 Tb1092 2.387 . S
O1137 C1148 1.264 . S
O1138 Tb1103 2.349 . S
O1138 C1148 1.243 . S
O1139 Tb1092 2.428 . S
O1139 C1156 1.256 . S
O1140 Tb1092 2.308 . S
O1140 C1155 1.266 . S
O1141 Tb1103 2.393 . S
O1141 C1155 1.248 . S
O1142 Tb1103 2.465 . S
O1142 C1167 1.264 . S
O1143 Tb1103 2.387 . S
O1143 C1159 1.264 . S
O1144 Tb1092 2.349 . S
O1144 C1159 1.243 . S
O1145 Tb1103 2.428 . S
O1145 C1167 1.256 . S
O1146 Tb1103 2.308 . S
O1146 C1166 1.266 . S
O1147 Tb1092 2.393 . S
O1147 C1166 1.248 . S
C1148 O1137 1.264 . S
C1148 O1138 1.243 . S
C1149 C1152 1.399 . S
C1149 C1154 1.383 . S
C1149 C1156 1.496 . S
C1150 C1151 1.399 . S
C1150 C1154 1.389 . S
C1151 C1150 1.399 . S
C1151 C1153 1.380 . S
C1151 H1168 0.929 . S
C1152 C1149 1.399 . S
C1152 C1153 1.392 . S
C1152 H1169 0.929 . S
C1153 C1151 1.380 . S
C1153 C1152 1.392 . S
C1153 H1170 0.929 . S
C1154 C1149 1.383 . S
C1154 C1150 1.389 . S
C1154 H1171 0.931 . S
C1155 O1140 1.266 . S
C1155 O1141 1.248 . S
C1156 Tb1092 2.802 . S
C1156 O1136 1.264 . S
C1156 O1139 1.256 . S
C1156 C1149 1.496 . S
C1157 C1124 1.448 . S
C1157 H1134 0.930 . S
C1157 C1158 1.328 . S
C1158 C1129 1.427 . S
C1158 H1135 0.929 . S
C1158 C1157 1.328 . S
C1159 O1143 1.264 . S
C1159 O1144 1.243 . S
C1160 C1163 1.399 . S
C1160 C1164 1.383 . S
C1160 C1167 1.496 1_655 S
C1161 C1162 1.399 . S
C1161 C1164 1.389 . S
C1162 C1161 1.399 . S
C1162 C1165 1.380 . S
C1162 H1172 0.929 . S
C1163 C1160 1.399 . S
C1163 C1165 1.392 . S
C1163 H1173 0.929 . S
C1164 C1160 1.383 . S
C1164 C1161 1.389 . S
C1164 H1174 0.931 . S
C1165 C1162 1.380 . S
C1165 C1163 1.392 . S
C1165 H1175 0.929 . S
C1166 O1146 1.266 . S
C1166 O1147 1.248 . S
C1167 Tb1103 2.802 . S
C1167 O1142 1.264 . S
C1167 O1145 1.256 . S
C1167 C1160 1.496 1_455 S
H1168 C1151 0.929 . S
H1169 C1152 0.929 . S
H1170 C1153 0.929 . S
H1171 C1154 0.931 . S
H1172 C1162 0.929 . S
H1173 C1163 0.929 . S
H1174 C1164 0.931 . S
H1175 C1165 0.929 . S
Tb1176 N1205 2.617 . S
Tb1176 N1211 2.572 . S
Tb1176 O1220 2.465 . S
Tb1176 O1221 2.387 . S
Tb1176 O1223 2.428 . S
Tb1176 O1224 2.308 . S
Tb1176 O1228 2.349 . S
Tb1176 O1231 2.393 . S
Tb1176 C1240 2.802 . S
C1177 N1178 1.379 . S
C1177 C1180 1.416 . S
C1177 C1184 1.424 . S
N1178 C1177 1.379 . S
N1178 C1181 1.334 . S
N1178 Tb1187 2.605 1_565 S
C1179 C1181 1.390 . S
C1179 C1182 1.339 . S
C1179 H1199 0.930 . S
C1180 C1177 1.416 . S
C1180 C1182 1.416 . S
C1180 C1186 1.448 . S
C1181 N1178 1.334 . S
C1181 C1179 1.390 . S
C1181 H1192 0.930 . S
C1182 C1179 1.339 . S
C1182 C1180 1.416 . S
C1182 H1203 0.930 . S
C1183 C1184 1.413 . S
C1183 C1185 1.427 . S
C1183 C1189 1.416 . S
C1184 C1177 1.424 . S
C1184 C1183 1.413 . S
C1184 N1188 1.361 . S
C1185 C1183 1.427 . S
C1185 C1186 1.328 . S
C1185 H1200 0.929 . S
C1186 C1180 1.448 . S
C1186 C1185 1.328 . S
C1186 H1201 0.930 . S
Tb1187 N1178 2.605 1_545 S
Tb1187 N1188 2.555 1_545 S
Tb1187 O1222 2.364 . S
Tb1187 O1225 2.402 . S
Tb1187 O1226 2.459 1_545 S
Tb1187 O1227 2.386 1_545 S
Tb1187 O1229 2.421 1_545 S
Tb1187 O1230 2.313 . S
Tb1187 C1251 2.795 1_545 S
N1188 C1184 1.361 . S
N1188 Tb1187 2.555 1_565 S
N1188 C1190 1.340 . S
C1189 C1183 1.416 . S
C1189 C1191 1.332 . S
C1189 H1197 0.931 . S
C1190 N1188 1.340 . S
C1190 C1191 1.407 . S
C1190 H1196 0.930 . S
C1191 C1189 1.332 . S
C1191 C1190 1.407 . S
C1191 H1193 0.929 . S
H1192 C1181 0.930 . S
H1193 C1191 0.929 . S
H1194 C1209 0.930 . S
H1195 C1216 0.929 . S
H1196 C1190 0.930 . S
H1197 C1189 0.931 . S
H1198 C1212 0.930 . S
H1199 C1179 0.930 . S
H1200 C1185 0.929 . S
H1201 C1186 0.930 . S
H1202 C1207 0.930 . S
H1203 C1182 0.930 . S
H1204 C1215 0.931 . S
N1205 Tb1176 2.617 . S
N1205 C1206 1.379 . S
N1205 C1209 1.334 . S
C1206 N1205 1.379 . S
C1206 C1208 1.416 . S
C1206 C1214 1.424 . S
C1207 H1202 0.930 . S
C1207 C1209 1.390 . S
C1207 C1210 1.339 . S
C1208 C1206 1.416 . S
C1208 C1210 1.416 . S
C1208 C1241 1.448 . S
C1209 H1194 0.930 . S
C1209 N1205 1.334 . S
C1209 C1207 1.390 . S
C1210 C1207 1.339 . S
C1210 C1208 1.416 . S
C1210 H1217 0.930 . S
N1211 Tb1176 2.572 . S
N1211 C1212 1.340 . S
N1211 C1214 1.361 . S
C1212 H1198 0.930 . S
C1212 N1211 1.340 . S
C1212 C1216 1.407 . S
C1213 C1214 1.413 . S
C1213 C1215 1.416 . S
C1213 C1242 1.427 . S
C1214 C1206 1.424 . S
C1214 N1211 1.361 . S
C1214 C1213 1.413 . S
C1215 H1204 0.931 . S
C1215 C1213 1.416 . S
C1215 C1216 1.332 . S
C1216 H1195 0.929 . S
C1216 C1212 1.407 . S
C1216 C1215 1.332 . S
H1217 C1210 0.930 . S
H1218 C1241 0.930 . S
H1219 C1242 0.929 . S
O1220 Tb1176 2.465 . S
O1220 C1240 1.264 . S
O1221 Tb1176 2.387 . S
O1221 C1232 1.264 . S
O1222 Tb1187 2.364 . S
O1222 C1232 1.243 . S
O1223 Tb1176 2.428 . S
O1223 C1240 1.256 . S
O1224 Tb1176 2.308 . S
O1224 C1239 1.266 . S
O1225 Tb1187 2.402 . S
O1225 C1239 1.248 . S
O1226 Tb1187 2.459 1_565 S
O1226 C1251 1.264 . S
O1227 Tb1187 2.386 1_565 S
O1227 C1243 1.264 1_565 S
O1228 Tb1176 2.349 . S
O1228 C1243 1.243 . S
O1229 Tb1187 2.421 1_565 S
O1229 C1251 1.256 . S
O1230 Tb1187 2.313 . S
O1230 C1250 1.266 . S
O1231 Tb1176 2.393 . S
O1231 C1250 1.248 . S
C1232 O1221 1.264 . S
C1232 O1222 1.243 . S
C1233 C1236 1.399 . S
C1233 C1238 1.383 . S
C1233 C1240 1.496 . S
C1234 C1235 1.399 . S
C1234 C1238 1.389 . S
C1235 C1234 1.399 . S
C1235 C1237 1.380 . S
C1235 H1252 0.929 . S
C1236 C1233 1.399 . S
C1236 C1237 1.392 . S
C1236 H1253 0.929 . S
C1237 C1235 1.380 . S
C1237 C1236 1.392 . S
C1237 H1254 0.929 . S
C1238 C1233 1.383 . S
C1238 C1234 1.389 . S
C1238 H1255 0.931 . S
C1239 O1224 1.266 . S
C1239 O1225 1.248 . S
C1240 Tb1176 2.802 . S
C1240 O1220 1.264 . S
C1240 O1223 1.256 . S
C1240 C1233 1.496 . S
C1241 C1208 1.448 . S
C1241 H1218 0.930 . S
C1241 C1242 1.328 . S
C1242 C1213 1.427 . S
C1242 H1219 0.929 . S
C1242 C1241 1.328 . S
C1243 O1227 1.264 1_545 S
C1243 O1228 1.243 . S
C1244 C1247 1.399 . S
C1244 C1248 1.383 . S
C1244 C1251 1.496 . S
C1245 C1246 1.399 . S
C1245 C1248 1.389 . S
C1246 C1245 1.399 . S
C1246 C1249 1.380 . S
C1246 H1256 0.929 . S
C1247 C1244 1.399 . S
C1247 C1249 1.392 . S
C1247 H1257 0.929 . S
C1248 C1244 1.383 . S
C1248 C1245 1.389 . S
C1248 H1258 0.931 . S
C1249 C1246 1.380 . S
C1249 C1247 1.392 . S
C1249 H1259 0.929 . S
C1250 O1230 1.266 . S
C1250 O1231 1.248 . S
C1251 Tb1187 2.795 1_565 S
C1251 O1226 1.264 . S
C1251 O1229 1.256 . S
C1251 C1244 1.496 . S
H1252 C1235 0.929 . S
H1253 C1236 0.929 . S
H1254 C1237 0.929 . S
H1255 C1238 0.931 . S
H1256 C1246 0.929 . S
H1257 C1247 0.929 . S
H1258 C1248 0.931 . S
H1259 C1249 0.929 . S
Tb1260 N1289 2.617 1_455 S
Tb1260 N1295 2.572 1_455 S
Tb1260 O1304 2.465 . S
Tb1260 O1305 2.387 . S
Tb1260 O1307 2.428 . S
Tb1260 O1308 2.308 . S
Tb1260 O1312 2.349 . S
Tb1260 O1315 2.393 . S
Tb1260 C1324 2.802 . S
C1261 N1262 1.379 . S
C1261 C1264 1.416 . S
C1261 C1268 1.424 . S
N1262 C1261 1.379 . S
N1262 C1265 1.334 . S
N1262 Tb1271 2.617 . S
C1263 C1265 1.390 . S
C1263 C1266 1.339 . S
C1263 H1283 0.930 . S
C1264 C1261 1.416 . S
C1264 C1266 1.416 . S
C1264 C1270 1.448 . S
C1265 N1262 1.334 . S
C1265 C1263 1.390 . S
C1265 H1276 0.930 . S
C1266 C1263 1.339 . S
C1266 C1264 1.416 . S
C1266 H1287 0.930 . S
C1267 C1268 1.413 . S
C1267 C1269 1.427 . S
C1267 C1273 1.416 . S
C1268 C1261 1.424 . S
C1268 C1267 1.413 . S
C1268 N1272 1.361 . S
C1269 C1267 1.427 . S
C1269 C1270 1.328 . S
C1269 H1284 0.929 . S
C1270 C1264 1.448 . S
C1270 C1269 1.328 . S
C1270 H1285 0.930 . S
Tb1271 N1262 2.617 . S
Tb1271 N1272 2.572 . S
Tb1271 O1306 2.349 . S
Tb1271 O1309 2.393 . S
Tb1271 O1310 2.465 . S
Tb1271 O1311 2.387 . S
Tb1271 O1313 2.428 . S
Tb1271 O1314 2.308 . S
Tb1271 C1335 2.802 . S
N1272 C1268 1.361 . S
N1272 Tb1271 2.572 . S
N1272 C1274 1.340 . S
C1273 C1267 1.416 . S
C1273 C1275 1.332 . S
C1273 H1281 0.931 . S
C1274 N1272 1.340 . S
C1274 C1275 1.407 . S
C1274 H1280 0.930 . S
C1275 C1273 1.332 . S
C1275 C1274 1.407 . S
C1275 H1277 0.929 . S
H1276 C1265 0.930 . S
H1277 C1275 0.929 . S
H1278 C1293 0.930 1_455 S
H1279 C1300 0.929 . S
H1280 C1274 0.930 . S
H1281 C1273 0.931 . S
H1282 C1296 0.930 . S
H1283 C1263 0.930 . S
H1284 C1269 0.929 . S
H1285 C1270 0.930 . S
H1286 C1291 0.930 . S
H1287 C1266 0.930 . S
H1288 C1299 0.931 . S
N1289 Tb1260 2.617 1_655 S
N1289 C1290 1.379 . S
N1289 C1293 1.334 . S
C1290 N1289 1.379 . S
C1290 C1292 1.416 . S
C1290 C1298 1.424 . S
C1291 H1286 0.930 . S
C1291 C1293 1.390 . S
C1291 C1294 1.339 . S
C1292 C1290 1.416 . S
C1292 C1294 1.416 . S
C1292 C1325 1.448 . S
C1293 H1278 0.930 1_655 S
C1293 N1289 1.334 . S
C1293 C1291 1.390 . S
C1294 C1291 1.339 . S
C1294 C1292 1.416 . S
C1294 H1301 0.930 . S
N1295 Tb1260 2.572 1_655 S
N1295 C1296 1.340 . S
N1295 C1298 1.361 . S
C1296 H1282 0.930 . S
C1296 N1295 1.340 . S
C1296 C1300 1.407 . S
C1297 C1298 1.413 . S
C1297 C1299 1.416 . S
C1297 C1326 1.427 . S
C1298 C1290 1.424 . S
C1298 N1295 1.361 . S
C1298 C1297 1.413 . S
C1299 H1288 0.931 . S
C1299 C1297 1.416 . S
C1299 C1300 1.332 . S
C1300 H1279 0.929 . S
C1300 C1296 1.407 . S
C1300 C1299 1.332 . S
H1301 C1294 0.930 . S
H1302 C1325 0.930 . S
H1303 C1326 0.929 . S
O1304 Tb1260 2.465 . S
O1304 C1324 1.264 . S
O1305 Tb1260 2.387 . S
O1305 C1316 1.264 . S
O1306 Tb1271 2.349 . S
O1306 C1316 1.243 . S
O1307 Tb1260 2.428 . S
O1307 C1324 1.256 . S
O1308 Tb1260 2.308 . S
O1308 C1323 1.266 . S
O1309 Tb1271 2.393 . S
O1309 C1323 1.248 . S
O1310 Tb1271 2.465 . S
O1310 C1335 1.264 . S
O1311 Tb1271 2.387 . S
O1311 C1327 1.264 . S
O1312 Tb1260 2.349 . S
O1312 C1327 1.243 . S
O1313 Tb1271 2.428 . S
O1313 C1335 1.256 . S
O1314 Tb1271 2.308 . S
O1314 C1334 1.266 . S
O1315 Tb1260 2.393 . S
O1315 C1334 1.248 . S
C1316 O1305 1.264 . S
C1316 O1306 1.243 . S
C1317 C1320 1.399 . S
C1317 C1322 1.383 . S
C1317 C1324 1.496 1_655 S
C1318 C1319 1.399 . S
C1318 C1322 1.389 . S
C1319 C1318 1.399 . S
C1319 C1321 1.380 . S
C1319 H1336 0.929 . S
C1320 C1317 1.399 . S
C1320 C1321 1.392 . S
C1320 H1337 0.929 . S
C1321 C1319 1.380 . S
C1321 C1320 1.392 . S
C1321 H1338 0.929 . S
C1322 C1317 1.383 . S
C1322 C1318 1.389 . S
C1322 H1339 0.926 1_655 S
C1323 O1308 1.266 . S
C1323 O1309 1.248 . S
C1324 Tb1260 2.802 . S
C1324 O1304 1.264 . S
C1324 O1307 1.256 . S
C1324 C1317 1.496 1_455 S
C1325 C1292 1.448 . S
C1325 H1302 0.930 . S
C1325 C1326 1.328 . S
C1326 C1297 1.427 . S
C1326 H1303 0.929 . S
C1326 C1325 1.328 . S
C1327 O1311 1.264 . S
C1327 O1312 1.243 . S
C1328 C1331 1.399 . S
C1328 C1332 1.383 . S
C1328 C1335 1.496 . S
C1329 C1330 1.399 . S
C1329 C1332 1.389 . S
C1330 C1329 1.399 . S
C1330 C1333 1.380 . S
C1330 H1340 0.929 . S
C1331 C1328 1.399 . S
C1331 C1333 1.392 . S
C1331 H1341 0.929 . S
C1332 C1328 1.383 . S
C1332 C1329 1.389 . S
C1332 H1342 0.931 . S
C1333 C1330 1.380 . S
C1333 C1331 1.392 . S
C1333 H1343 0.929 . S
C1334 O1314 1.266 . S
C1334 O1315 1.248 . S
C1335 Tb1271 2.802 . S
C1335 O1310 1.264 . S
C1335 O1313 1.256 . S
C1335 C1328 1.496 . S
H1336 C1319 0.929 . S
H1337 C1320 0.929 . S
H1338 C1321 0.929 . S
H1339 C1322 0.926 1_455 S
H1340 C1330 0.929 . S
H1341 C1331 0.929 . S
H1342 C1332 0.931 . S
H1343 C1333 0.929 . S
Tb1344 N1373 2.617 . S
Tb1344 N1379 2.572 . S
Tb1344 O1388 2.465 . S
Tb1344 O1389 2.387 . S
Tb1344 O1391 2.428 . S
Tb1344 O1392 2.308 . S
Tb1344 O1396 2.349 . S
Tb1344 O1399 2.393 . S
Tb1344 C1408 2.802 . S
C1345 N1346 1.379 . S
C1345 C1348 1.416 . S
C1345 C1352 1.424 . S
N1346 C1345 1.379 . S
N1346 C1349 1.334 . S
N1346 Tb1355 2.617 . S
C1347 C1349 1.390 . S
C1347 C1350 1.339 . S
C1347 H1367 0.930 . S
C1348 C1345 1.416 . S
C1348 C1350 1.416 . S
C1348 C1354 1.448 . S
C1349 N1346 1.334 . S
C1349 C1347 1.390 . S
C1349 H1360 0.930 . S
C1350 C1347 1.339 . S
C1350 C1348 1.416 . S
C1350 H1371 0.930 . S
C1351 C1352 1.413 . S
C1351 C1353 1.427 . S
C1351 C1357 1.416 . S
C1352 C1345 1.424 . S
C1352 C1351 1.413 . S
C1352 N1356 1.361 . S
C1353 C1351 1.427 . S
C1353 C1354 1.328 . S
C1353 H1368 0.929 . S
C1354 C1348 1.448 . S
C1354 C1353 1.328 . S
C1354 H1369 0.930 . S
Tb1355 N1346 2.617 . S
Tb1355 N1356 2.572 . S
Tb1355 O1390 2.349 . S
Tb1355 O1393 2.393 . S
Tb1355 O1394 2.465 . S
Tb1355 O1395 2.387 . S
Tb1355 O1397 2.428 . S
Tb1355 O1398 2.308 . S
Tb1355 C1419 2.802 . S
N1356 C1352 1.361 . S
N1356 Tb1355 2.572 . S
N1356 C1358 1.340 . S
C1357 C1351 1.416 . S
C1357 C1359 1.332 . S
C1357 H1365 0.931 . S
C1358 N1356 1.340 . S
C1358 C1359 1.407 . S
C1358 H1364 0.930 . S
C1359 C1357 1.332 . S
C1359 C1358 1.407 . S
C1359 H1361 0.929 . S
H1360 C1349 0.930 . S
H1361 C1359 0.929 . S
H1362 C1377 0.930 . S
H1363 C1384 0.929 . S
H1364 C1358 0.930 . S
H1365 C1357 0.931 . S
H1366 C1380 0.930 . S
H1367 C1347 0.930 . S
H1368 C1353 0.929 . S
H1369 C1354 0.930 . S
H1370 C1375 0.930 . S
H1371 C1350 0.930 . S
H1372 C1383 0.931 . S
N1373 Tb1344 2.617 . S
N1373 C1374 1.379 . S
N1373 C1377 1.334 1_554 S
C1374 N1373 1.379 . S
C1374 C1376 1.416 1_554 S
C1374 C1382 1.424 . S
C1375 H1370 0.930 . S
C1375 C1377 1.390 . S
C1375 C1378 1.339 . S
C1376 C1374 1.416 1_556 S
C1376 C1378 1.416 . S
C1376 C1409 1.448 . S
C1377 H1362 0.930 . S
C1377 N1373 1.334 1_556 S
C1377 C1375 1.390 . S
C1378 C1375 1.339 . S
C1378 C1376 1.416 . S
C1378 H1385 0.930 . S
N1379 Tb1344 2.572 . S
N1379 C1380 1.340 . S
N1379 C1382 1.361 . S
C1380 H1366 0.930 . S
C1380 N1379 1.340 . S
C1380 C1384 1.407 . S
C1381 C1382 1.413 . S
C1381 C1383 1.416 . S
C1381 C1410 1.427 . S
C1382 C1374 1.424 . S
C1382 N1379 1.361 . S
C1382 C1381 1.413 . S
C1383 H1372 0.931 . S
C1383 C1381 1.416 . S
C1383 C1384 1.332 . S
C1384 H1363 0.929 . S
C1384 C1380 1.407 . S
C1384 C1383 1.332 . S
H1385 C1378 0.930 . S
H1386 C1409 0.930 . S
H1387 C1410 0.929 . S
O1388 Tb1344 2.465 . S
O1388 C1408 1.264 . S
O1389 Tb1344 2.387 . S
O1389 C1400 1.264 . S
O1390 Tb1355 2.349 . S
O1390 C1400 1.243 . S
O1391 Tb1344 2.428 . S
O1391 C1408 1.256 . S
O1392 Tb1344 2.308 . S
O1392 C1407 1.266 . S
O1393 Tb1355 2.393 . S
O1393 C1407 1.248 . S
O1394 Tb1355 2.465 . S
O1394 C1419 1.264 . S
O1395 Tb1355 2.387 . S
O1395 C1411 1.264 . S
O1396 Tb1344 2.349 . S
O1396 C1411 1.243 . S
O1397 Tb1355 2.428 . S
O1397 C1419 1.256 . S
O1398 Tb1355 2.308 . S
O1398 C1418 1.266 . S
O1399 Tb1344 2.393 . S
O1399 C1418 1.248 . S
C1400 O1389 1.264 . S
C1400 O1390 1.243 . S
C1401 C1404 1.399 . S
C1401 C1406 1.383 . S
C1401 C1408 1.496 1_556 S
C1402 C1403 1.399 . S
C1402 C1406 1.389 . S
C1403 C1402 1.399 . S
C1403 C1405 1.380 . S
C1403 H1420 0.929 . S
C1404 C1401 1.399 . S
C1404 C1405 1.392 . S
C1404 H1421 0.929 . S
C1405 C1403 1.380 . S
C1405 C1404 1.392 . S
C1405 H1422 0.929 . S
C1406 C1401 1.383 . S
C1406 C1402 1.389 . S
C1406 H1423 0.931 1_556 S
C1407 O1392 1.266 . S
C1407 O1393 1.248 . S
C1408 Tb1344 2.802 . S
C1408 O1388 1.264 . S
C1408 O1391 1.256 . S
C1408 C1401 1.496 1_554 S
C1409 C1376 1.448 . S
C1409 H1386 0.930 . S
C1409 C1410 1.328 1_556 S
C1410 C1381 1.427 . S
C1410 H1387 0.929 . S
C1410 C1409 1.328 1_554 S
C1411 O1395 1.264 . S
C1411 O1396 1.243 . S
C1412 C1415 1.399 . S
C1412 C1416 1.383 . S
C1412 C1419 1.496 . S
C1413 C1414 1.399 . S
C1413 C1416 1.389 . S
C1414 C1413 1.399 . S
C1414 C1417 1.380 . S
C1414 H1424 0.929 . S
C1415 C1412 1.399 . S
C1415 C1417 1.392 . S
C1415 H1425 0.929 . S
C1416 C1412 1.383 . S
C1416 C1413 1.389 . S
C1416 H1426 0.931 . S
C1417 C1414 1.380 . S
C1417 C1415 1.392 . S
C1417 H1427 0.929 . S
C1418 O1398 1.266 . S
C1418 O1399 1.248 . S
C1419 Tb1355 2.802 . S
C1419 O1394 1.264 . S
C1419 O1397 1.256 . S
C1419 C1412 1.496 . S
H1420 C1403 0.929 . S
H1421 C1404 0.929 . S
H1422 C1405 0.929 . S
H1423 C1406 0.931 1_554 S
H1424 C1414 0.929 . S
H1425 C1415 0.929 . S
H1426 C1416 0.931 . S
H1427 C1417 0.929 . S
Tb1428 N1457 2.617 . S
Tb1428 N1463 2.572 . S
Tb1428 O1472 2.465 . S
Tb1428 O1473 2.387 . S
Tb1428 O1475 2.428 . S
Tb1428 O1476 2.308 . S
Tb1428 O1480 2.349 . S
Tb1428 O1483 2.393 . S
Tb1428 C1492 2.802 . S
C1429 N1430 1.379 . S
C1429 C1432 1.416 . S
C1429 C1436 1.424 . S
N1430 C1429 1.379 . S
N1430 C1433 1.334 . S
N1430 Tb1439 2.617 . S
C1431 C1433 1.390 . S
C1431 C1434 1.339 . S
C1431 H1451 0.930 . S
C1432 C1429 1.416 . S
C1432 C1434 1.416 . S
C1432 C1438 1.448 . S
C1433 N1430 1.334 . S
C1433 C1431 1.390 . S
C1433 H1444 0.930 . S
C1434 C1431 1.339 . S
C1434 C1432 1.416 . S
C1434 H1455 0.930 . S
C1435 C1436 1.413 . S
C1435 C1437 1.427 . S
C1435 C1441 1.416 . S
C1436 C1429 1.424 . S
C1436 C1435 1.413 . S
C1436 N1440 1.361 . S
C1437 C1435 1.427 . S
C1437 C1438 1.328 . S
C1437 H1452 0.929 . S
C1438 C1432 1.448 . S
C1438 C1437 1.328 . S
C1438 H1453 0.930 . S
Tb1439 N1430 2.617 . S
Tb1439 N1440 2.572 . S
Tb1439 O1474 2.349 . S
Tb1439 O1477 2.393 . S
Tb1439 O1478 2.465 . S
Tb1439 O1479 2.387 . S
Tb1439 O1481 2.428 . S
Tb1439 O1482 2.308 . S
Tb1439 C1503 2.802 . S
N1440 C1436 1.361 . S
N1440 Tb1439 2.572 . S
N1440 C1442 1.340 . S
C1441 C1435 1.416 . S
C1441 C1443 1.332 . S
C1441 H1449 0.931 . S
C1442 N1440 1.340 . S
C1442 C1443 1.407 . S
C1442 H1448 0.930 . S
C1443 C1441 1.332 . S
C1443 C1442 1.407 . S
C1443 H1445 0.929 . S
H1444 C1433 0.930 . S
H1445 C1443 0.929 . S
H1446 C1461 0.930 . S
H1447 C1468 0.929 . S
H1448 C1442 0.930 . S
H1449 C1441 0.931 . S
H1450 C1464 0.930 1_554 S
H1451 C1431 0.930 . S
H1452 C1437 0.929 . S
H1453 C1438 0.930 . S
H1454 C1459 0.931 1_554 S
H1455 C1434 0.930 . S
H1456 C1467 0.931 . S
N1457 Tb1428 2.617 . S
N1457 C1458 1.379 1_554 S
N1457 C1461 1.334 . S
C1458 N1457 1.379 1_556 S
C1458 C1460 1.416 . S
C1458 C1466 1.424 . S
C1459 H1454 0.931 1_556 S
C1459 C1461 1.392 1_556 S
C1459 C1462 1.336 . S
C1460 C1458 1.416 . S
C1460 C1462 1.416 . S
C1460 C1493 1.448 . S
C1461 H1446 0.930 . S
C1461 N1457 1.334 . S
C1461 C1459 1.392 1_554 S
C1462 C1459 1.336 . S
C1462 C1460 1.416 . S
C1462 H1469 0.930 . S
N1463 Tb1428 2.572 . S
N1463 C1464 1.340 1_554 S
N1463 C1466 1.361 1_554 S
C1464 H1450 0.930 1_556 S
C1464 N1463 1.340 1_556 S
C1464 C1468 1.407 . S
C1465 C1466 1.413 . S
C1465 C1467 1.416 . S
C1465 C1494 1.427 . S
C1466 C1458 1.424 . S
C1466 N1463 1.361 1_556 S
C1466 C1465 1.413 . S
C1467 H1456 0.931 . S
C1467 C1465 1.416 . S
C1467 C1468 1.332 . S
C1468 H1447 0.929 . S
C1468 C1464 1.407 . S
C1468 C1467 1.332 . S
H1469 C1462 0.930 . S
H1470 C1493 0.930 . S
H1471 C1494 0.929 . S
O1472 Tb1428 2.465 . S
O1472 C1492 1.264 . S
O1473 Tb1428 2.387 . S
O1473 C1484 1.264 . S
O1474 Tb1439 2.349 . S
O1474 C1484 1.243 . S
O1475 Tb1428 2.428 . S
O1475 C1492 1.256 . S
O1476 Tb1428 2.308 . S
O1476 C1491 1.266 . S
O1477 Tb1439 2.393 . S
O1477 C1491 1.248 . S
O1478 Tb1439 2.465 . S
O1478 C1503 1.264 . S
O1479 Tb1439 2.387 . S
O1479 C1495 1.264 . S
O1480 Tb1428 2.349 . S
O1480 C1495 1.243 . S
O1481 Tb1439 2.428 . S
O1481 C1503 1.256 . S
O1482 Tb1439 2.308 . S
O1482 C1502 1.266 . S
O1483 Tb1428 2.393 . S
O1483 C1502 1.248 . S
C1484 O1473 1.264 . S
C1484 O1474 1.243 . S
C1485 C1488 1.392 1_554 S
C1485 C1490 1.383 . S
C1485 C1492 1.496 . S
C1486 C1487 1.399 . S
C1486 C1490 1.389 1_556 S
C1487 C1486 1.399 . S
C1487 C1489 1.380 . S
C1487 H1504 0.929 . S
C1488 C1485 1.392 1_556 S
C1488 C1489 1.404 . S
C1488 H1505 0.925 1_556 S
C1489 C1487 1.380 . S
C1489 C1488 1.404 . S
C1489 H1506 0.929 . S
C1490 C1485 1.383 . S
C1490 C1486 1.389 1_554 S
C1490 H1507 0.931 . S
C1491 O1476 1.266 . S
C1491 O1477 1.248 . S
C1492 Tb1428 2.802 . S
C1492 O1472 1.264 . S
C1492 O1475 1.256 . S
C1492 C1485 1.496 . S
C1493 C1460 1.448 . S
C1493 H1470 0.930 . S
C1493 C1494 1.328 . S
C1494 C1465 1.427 . S
C1494 H1471 0.929 . S
C1494 C1493 1.328 . S
C1495 O1479 1.264 . S
C1495 O1480 1.243 . S
C1496 C1499 1.399 . S
C1496 C1500 1.383 . S
C1496 C1503 1.496 . S
C1497 C1498 1.399 . S
C1497 C1500 1.389 . S
C1498 C1497 1.399 . S
C1498 C1501 1.380 . S
C1498 H1508 0.929 . S
C1499 C1496 1.399 . S
C1499 C1501 1.392 . S
C1499 H1509 0.929 . S
C1500 C1496 1.383 . S
C1500 C1497 1.389 . S
C1500 H1510 0.931 . S
C1501 C1498 1.380 . S
C1501 C1499 1.392 . S
C1501 H1511 0.929 . S
C1502 O1482 1.266 . S
C1502 O1483 1.248 . S
C1503 Tb1439 2.802 . S
C1503 O1478 1.264 . S
C1503 O1481 1.256 . S
C1503 C1496 1.496 . S
H1504 C1487 0.929 . S
H1505 C1488 0.925 1_554 S
H1506 C1489 0.929 . S
H1507 C1490 0.931 . S
H1508 C1498 0.929 . S
H1509 C1499 0.929 . S
H1510 C1500 0.931 . S
H1511 C1501 0.929 . S
Tb1512 N1541 2.617 1_554 S
Tb1512 N1547 2.572 1_554 S
Tb1512 O1556 2.465 . S
Tb1512 O1557 2.387 . S
Tb1512 O1559 2.428 . S
Tb1512 O1560 2.308 . S
Tb1512 O1564 2.349 . S
Tb1512 O1567 2.393 . S
Tb1512 C1576 2.802 . S
C1513 N1514 1.379 . S
C1513 C1516 1.416 . S
C1513 C1520 1.424 . S
N1514 C1513 1.379 . S
N1514 C1517 1.334 . S
N1514 Tb1523 2.617 . S
C1515 C1517 1.390 . S
C1515 C1518 1.339 . S
C1515 H1535 0.930 . S
C1516 C1513 1.416 . S
C1516 C1518 1.416 . S
C1516 C1522 1.448 . S
C1517 N1514 1.334 . S
C1517 C1515 1.390 . S
C1517 H1528 0.930 . S
C1518 C1515 1.339 . S
C1518 C1516 1.416 . S
C1518 H1539 0.930 . S
C1519 C1520 1.413 . S
C1519 C1521 1.427 . S
C1519 C1525 1.416 . S
C1520 C1513 1.424 . S
C1520 C1519 1.413 . S
C1520 N1524 1.361 . S
C1521 C1519 1.427 . S
C1521 C1522 1.328 . S
C1521 H1536 0.929 . S
C1522 C1516 1.448 . S
C1522 C1521 1.328 . S
C1522 H1537 0.930 . S
Tb1523 N1514 2.617 . S
Tb1523 N1524 2.572 . S
Tb1523 O1558 2.349 . S
Tb1523 O1561 2.393 . S
Tb1523 O1562 2.465 . S
Tb1523 O1563 2.387 . S
Tb1523 O1565 2.428 . S
Tb1523 O1566 2.308 . S
Tb1523 C1587 2.802 . S
N1524 C1520 1.361 . S
N1524 Tb1523 2.572 . S
N1524 C1526 1.340 . S
C1525 C1519 1.416 . S
C1525 C1527 1.332 . S
C1525 H1533 0.931 . S
C1526 N1524 1.340 . S
C1526 C1527 1.407 . S
C1526 H1532 0.930 . S
C1527 C1525 1.332 . S
C1527 C1526 1.407 . S
C1527 H1529 0.929 . S
H1528 C1517 0.930 . S
H1529 C1527 0.929 . S
H1530 C1545 0.930 1_554 S
H1531 C1552 0.929 . S
H1532 C1526 0.930 . S
H1533 C1525 0.931 . S
H1534 C1548 0.922 1_554 S
H1535 C1515 0.930 . S
H1536 C1521 0.929 . S
H1537 C1522 0.930 . S
H1538 C1543 0.930 . S
H1539 C1518 0.930 . S
H1540 C1551 0.931 . S
N1541 Tb1512 2.617 1_556 S
N1541 C1542 1.379 . S
N1541 C1545 1.334 . S
C1542 N1541 1.379 . S
C1542 C1544 1.416 . S
C1542 C1550 1.424 . S
C1543 H1538 0.930 . S
C1543 C1545 1.390 . S
C1543 C1546 1.339 . S
C1544 C1542 1.416 . S
C1544 C1546 1.416 . S
C1544 C1577 1.448 . S
C1545 H1530 0.930 1_556 S
C1545 N1541 1.334 . S
C1545 C1543 1.390 . S
C1546 C1543 1.339 . S
C1546 C1544 1.416 . S
C1546 H1553 0.930 . S
N1547 Tb1512 2.572 1_556 S
N1547 C1548 1.340 . S
N1547 C1550 1.361 . S
C1548 H1534 0.922 1_556 S
C1548 N1547 1.340 . S
C1548 C1552 1.407 . S
C1549 C1550 1.413 . S
C1549 C1551 1.416 . S
C1549 C1578 1.427 . S
C1550 C1542 1.424 . S
C1550 N1547 1.361 . S
C1550 C1549 1.413 . S
C1551 H1540 0.931 . S
C1551 C1549 1.416 . S
C1551 C1552 1.332 . S
C1552 H1531 0.929 . S
C1552 C1548 1.407 . S
C1552 C1551 1.332 . S
H1553 C1546 0.930 . S
H1554 C1577 0.930 . S
H1555 C1578 0.929 . S
O1556 Tb1512 2.465 . S
O1556 C1576 1.264 . S
O1557 Tb1512 2.387 . S
O1557 C1568 1.264 . S
O1558 Tb1523 2.349 . S
O1558 C1568 1.243 . S
O1559 Tb1512 2.428 . S
O1559 C1576 1.256 . S
O1560 Tb1512 2.308 . S
O1560 C1575 1.266 . S
O1561 Tb1523 2.393 . S
O1561 C1575 1.248 . S
O1562 Tb1523 2.465 . S
O1562 C1587 1.264 . S
O1563 Tb1523 2.387 . S
O1563 C1579 1.264 . S
O1564 Tb1512 2.349 . S
O1564 C1579 1.243 . S
O1565 Tb1523 2.428 . S
O1565 C1587 1.256 . S
O1566 Tb1523 2.308 . S
O1566 C1586 1.266 . S
O1567 Tb1512 2.393 . S
O1567 C1586 1.248 . S
C1568 O1557 1.264 . S
C1568 O1558 1.243 . S
C1569 C1572 1.388 1_554 S
C1569 C1574 1.378 1_554 S
C1569 C1576 1.511 . S
C1570 C1571 1.399 . S
C1570 C1574 1.407 . S
C1571 C1570 1.399 . S
C1571 C1573 1.380 . S
C1571 H1588 0.929 . S
C1572 C1569 1.388 1_556 S
C1572 C1573 1.392 . S
C1572 H1589 0.929 . S
C1573 C1571 1.380 . S
C1573 C1572 1.392 . S
C1573 H1590 0.929 . S
C1574 C1569 1.378 1_556 S
C1574 C1570 1.407 . S
C1574 H1591 0.918 1_556 S
C1575 O1560 1.266 . S
C1575 O1561 1.248 . S
C1576 Tb1512 2.802 . S
C1576 O1556 1.264 . S
C1576 O1559 1.256 . S
C1576 C1569 1.511 . S
C1577 C1544 1.448 . S
C1577 H1554 0.930 . S
C1577 C1578 1.328 . S
C1578 C1549 1.427 . S
C1578 H1555 0.929 . S
C1578 C1577 1.328 . S
C1579 O1563 1.264 . S
C1579 O1564 1.243 . S
C1580 C1583 1.399 . S
C1580 C1584 1.383 . S
C1580 C1587 1.496 . S
C1581 C1582 1.399 . S
C1581 C1584 1.389 . S
C1582 C1581 1.399 . S
C1582 C1585 1.380 . S
C1582 H1592 0.929 . S
C1583 C1580 1.399 . S
C1583 C1585 1.392 . S
C1583 H1593 0.929 . S
C1584 C1580 1.383 . S
C1584 C1581 1.389 . S
C1584 H1594 0.931 . S
C1585 C1582 1.380 . S
C1585 C1583 1.392 . S
C1585 H1595 0.929 . S
C1586 O1566 1.266 . S
C1586 O1567 1.248 . S
C1587 Tb1523 2.802 . S
C1587 O1562 1.264 . S
C1587 O1565 1.256 . S
C1587 C1580 1.496 . S
H1588 C1571 0.929 . S
H1589 C1572 0.929 . S
H1590 C1573 0.929 . S
H1591 C1574 0.918 1_554 S
H1592 C1582 0.929 . S
H1593 C1583 0.929 . S
H1594 C1584 0.931 . S
H1595 C1585 0.929 . S
Tb1596 N1625 2.617 1_554 S
Tb1596 N1631 2.572 1_554 S
Tb1596 O1640 2.465 1_554 S
Tb1596 O1641 2.387 . S
Tb1596 O1643 2.428 1_554 S
Tb1596 O1644 2.308 . S
Tb1596 O1648 2.349 . S
Tb1596 O1651 2.393 . S
Tb1596 C1660 2.802 1_554 S
C1597 N1598 1.379 . S
C1597 C1600 1.416 . S
C1597 C1604 1.424 . S
N1598 C1597 1.379 . S
N1598 C1601 1.334 . S
N1598 Tb1607 2.617 . S
C1599 C1601 1.390 . S
C1599 C1602 1.339 . S
C1599 H1619 0.930 . S
C1600 C1597 1.416 . S
C1600 C1602 1.416 . S
C1600 C1606 1.448 . S
C1601 N1598 1.334 . S
C1601 C1599 1.390 . S
C1601 H1612 0.930 . S
C1602 C1599 1.339 . S
C1602 C1600 1.416 . S
C1602 H1623 0.930 . S
C1603 C1604 1.413 . S
C1603 C1605 1.427 . S
C1603 C1609 1.416 . S
C1604 C1597 1.424 . S
C1604 C1603 1.413 . S
C1604 N1608 1.361 . S
C1605 C1603 1.427 . S
C1605 C1606 1.328 . S
C1605 H1620 0.929 . S
C1606 C1600 1.448 . S
C1606 C1605 1.328 . S
C1606 H1621 0.930 . S
Tb1607 N1598 2.617 . S
Tb1607 N1608 2.572 . S
Tb1607 O1642 2.349 . S
Tb1607 O1645 2.393 . S
Tb1607 O1646 2.465 . S
Tb1607 O1647 2.387 . S
Tb1607 O1649 2.428 . S
Tb1607 O1650 2.308 . S
Tb1607 C1671 2.802 . S
N1608 C1604 1.361 . S
N1608 Tb1607 2.572 . S
N1608 C1610 1.340 . S
C1609 C1603 1.416 . S
C1609 C1611 1.332 . S
C1609 H1617 0.931 . S
C1610 N1608 1.340 . S
C1610 C1611 1.407 . S
C1610 H1616 0.930 . S
C1611 C1609 1.332 . S
C1611 C1610 1.407 . S
C1611 H1613 0.929 . S
H1612 C1601 0.930 . S
H1613 C1611 0.929 . S
H1614 C1629 0.930 . S
H1615 C1636 0.929 . S
H1616 C1610 0.930 . S
H1617 C1609 0.931 . S
H1618 C1632 0.930 . S
H1619 C1599 0.930 . S
H1620 C1605 0.929 . S
H1621 C1606 0.930 . S
H1622 C1627 0.930 . S
H1623 C1602 0.930 . S
H1624 C1635 0.931 . S
N1625 Tb1596 2.617 1_556 S
N1625 C1626 1.379 . S
N1625 C1629 1.334 . S
C1626 N1625 1.379 . S
C1626 C1628 1.416 . S
C1626 C1634 1.424 . S
C1627 H1622 0.930 . S
C1627 C1629 1.390 . S
C1627 C1630 1.339 . S
C1628 C1626 1.416 . S
C1628 C1630 1.416 . S
C1628 C1661 1.448 . S
C1629 H1614 0.930 . S
C1629 N1625 1.334 . S
C1629 C1627 1.390 . S
C1630 C1627 1.339 . S
C1630 C1628 1.416 . S
C1630 H1637 0.930 . S
N1631 Tb1596 2.572 1_556 S
N1631 C1632 1.340 . S
N1631 C1634 1.361 . S
C1632 H1618 0.930 . S
C1632 N1631 1.340 . S
C1632 C1636 1.407 . S
C1633 C1634 1.413 . S
C1633 C1635 1.416 . S
C1633 C1662 1.427 . S
C1634 C1626 1.424 . S
C1634 N1631 1.361 . S
C1634 C1633 1.413 . S
C1635 H1624 0.931 . S
C1635 C1633 1.416 . S
C1635 C1636 1.332 . S
C1636 H1615 0.929 . S
C1636 C1632 1.407 . S
C1636 C1635 1.332 . S
H1637 C1630 0.930 . S
H1638 C1661 0.930 . S
H1639 C1662 0.929 . S
O1640 Tb1596 2.465 1_556 S
O1640 C1660 1.264 . S
O1641 Tb1596 2.387 . S
O1641 C1652 1.264 . S
O1642 Tb1607 2.349 . S
O1642 C1652 1.243 . S
O1643 Tb1596 2.428 1_556 S
O1643 C1660 1.256 . S
O1644 Tb1596 2.308 . S
O1644 C1659 1.266 . S
O1645 Tb1607 2.393 . S
O1645 C1659 1.248 . S
O1646 Tb1607 2.465 . S
O1646 C1671 1.264 . S
O1647 Tb1607 2.387 . S
O1647 C1663 1.264 . S
O1648 Tb1596 2.349 . S
O1648 C1663 1.243 . S
O1649 Tb1607 2.428 . S
O1649 C1671 1.256 . S
O1650 Tb1607 2.308 . S
O1650 C1670 1.266 . S
O1651 Tb1596 2.393 . S
O1651 C1670 1.248 . S
C1652 O1641 1.264 . S
C1652 O1642 1.243 . S
C1653 C1656 1.399 . S
C1653 C1658 1.383 . S
C1653 C1660 1.496 . S
C1654 C1655 1.399 . S
C1654 C1658 1.389 . S
C1655 C1654 1.399 . S
C1655 C1657 1.380 . S
C1655 H1672 0.929 . S
C1656 C1653 1.399 . S
C1656 C1657 1.392 . S
C1656 H1673 0.929 . S
C1657 C1655 1.380 . S
C1657 C1656 1.392 . S
C1657 H1674 0.929 . S
C1658 C1653 1.383 . S
C1658 C1654 1.389 . S
C1658 H1675 0.931 . S
C1659 O1644 1.266 . S
C1659 O1645 1.248 . S
C1660 Tb1596 2.802 1_556 S
C1660 O1640 1.264 . S
C1660 O1643 1.256 . S
C1660 C1653 1.496 . S
C1661 C1628 1.448 . S
C1661 H1638 0.930 . S
C1661 C1662 1.328 . S
C1662 C1633 1.427 . S
C1662 H1639 0.929 . S
C1662 C1661 1.328 . S
C1663 O1647 1.264 . S
C1663 O1648 1.243 . S
C1664 C1667 1.399 . S
C1664 C1668 1.383 . S
C1664 C1671 1.496 . S
C1665 C1666 1.399 . S
C1665 C1668 1.389 . S
C1666 C1665 1.399 . S
C1666 C1669 1.380 . S
C1666 H1676 0.929 . S
C1667 C1664 1.399 . S
C1667 C1669 1.392 . S
C1667 H1677 0.929 . S
C1668 C1664 1.383 . S
C1668 C1665 1.389 . S
C1668 H1678 0.931 . S
C1669 C1666 1.380 . S
C1669 C1667 1.392 . S
C1669 H1679 0.929 . S
C1670 O1650 1.266 . S
C1670 O1651 1.248 . S
C1671 Tb1607 2.802 . S
C1671 O1646 1.264 . S
C1671 O1649 1.256 . S
C1671 C1664 1.496 . S
H1672 C1655 0.929 . S
H1673 C1656 0.929 . S
H1674 C1657 0.929 . S
H1675 C1658 0.931 . S
H1676 C1666 0.929 . S
H1677 C1667 0.929 . S
H1678 C1668 0.931 . S
H1679 C1669 0.929 . S
Tb1680 N1709 2.617 . S
Tb1680 N1715 2.572 . S
Tb1680 O1724 2.465 . S
Tb1680 O1725 2.387 . S
Tb1680 O1727 2.428 . S
Tb1680 O1728 2.308 . S
Tb1680 O1732 2.349 1_556 S
Tb1680 O1735 2.393 . S
Tb1680 C1744 2.802 . S
C1681 N1682 1.379 . S
C1681 C1684 1.416 . S
C1681 C1688 1.424 . S
N1682 C1681 1.379 . S
N1682 C1685 1.334 . S
N1682 Tb1691 2.617 . S
C1683 C1685 1.390 . S
C1683 C1686 1.339 . S
C1683 H1703 0.930 . S
C1684 C1681 1.416 . S
C1684 C1686 1.416 . S
C1684 C1690 1.448 . S
C1685 N1682 1.334 . S
C1685 C1683 1.390 . S
C1685 H1696 0.930 . S
C1686 C1683 1.339 . S
C1686 C1684 1.416 . S
C1686 H1707 0.930 . S
C1687 C1688 1.413 . S
C1687 C1689 1.427 . S
C1687 C1693 1.416 . S
C1688 C1681 1.424 . S
C1688 C1687 1.413 . S
C1688 N1692 1.361 . S
C1689 C1687 1.427 . S
C1689 C1690 1.328 . S
C1689 H1704 0.929 . S
C1690 C1684 1.448 . S
C1690 C1689 1.328 . S
C1690 H1705 0.930 . S
Tb1691 N1682 2.617 . S
Tb1691 N1692 2.572 . S
Tb1691 O1726 2.349 1_554 S
Tb1691 O1729 2.393 . S
Tb1691 O1730 2.465 . S
Tb1691 O1731 2.387 . S
Tb1691 O1733 2.428 . S
Tb1691 O1734 2.308 . S
Tb1691 C1755 2.802 . S
N1692 C1688 1.361 . S
N1692 Tb1691 2.572 . S
N1692 C1694 1.340 . S
C1693 C1687 1.416 . S
C1693 C1695 1.332 . S
C1693 H1701 0.931 . S
C1694 N1692 1.340 . S
C1694 C1695 1.407 . S
C1694 H1700 0.930 . S
C1695 C1693 1.332 . S
C1695 C1694 1.407 . S
C1695 H1697 0.929 . S
H1696 C1685 0.930 . S
H1697 C1695 0.929 . S
H1698 C1713 0.930 . S
H1699 C1720 0.929 . S
H1700 C1694 0.930 . S
H1701 C1693 0.931 . S
H1702 C1716 0.930 . S
H1703 C1683 0.930 . S
H1704 C1689 0.929 . S
H1705 C1690 0.930 . S
H1706 C1711 0.930 . S
H1707 C1686 0.930 . S
H1708 C1719 0.931 . S
N1709 Tb1680 2.617 . S
N1709 C1710 1.379 . S
N1709 C1713 1.334 . S
C1710 N1709 1.379 . S
C1710 C1712 1.416 . S
C1710 C1718 1.424 . S
C1711 H1706 0.930 . S
C1711 C1713 1.390 . S
C1711 C1714 1.339 . S
C1712 C1710 1.416 . S
C1712 C1714 1.416 . S
C1712 C1745 1.448 . S
C1713 H1698 0.930 . S
C1713 N1709 1.334 . S
C1713 C1711 1.390 . S
C1714 C1711 1.339 . S
C1714 C1712 1.416 . S
C1714 H1721 0.930 . S
N1715 Tb1680 2.572 . S
N1715 C1716 1.340 . S
N1715 C1718 1.361 . S
C1716 H1702 0.930 . S
C1716 N1715 1.340 . S
C1716 C1720 1.407 . S
C1717 C1718 1.413 . S
C1717 C1719 1.416 . S
C1717 C1746 1.427 . S
C1718 C1710 1.424 . S
C1718 N1715 1.361 . S
C1718 C1717 1.413 . S
C1719 H1708 0.931 . S
C1719 C1717 1.416 . S
C1719 C1720 1.332 . S
C1720 H1699 0.929 . S
C1720 C1716 1.407 . S
C1720 C1719 1.332 . S
H1721 C1714 0.930 . S
H1722 C1745 0.930 . S
H1723 C1746 0.929 . S
O1724 Tb1680 2.465 . S
O1724 C1744 1.264 . S
O1725 Tb1680 2.387 . S
O1725 C1736 1.264 . S
O1726 Tb1691 2.349 1_556 S
O1726 C1736 1.243 . S
O1727 Tb1680 2.428 . S
O1727 C1744 1.256 . S
O1728 Tb1680 2.308 . S
O1728 C1743 1.266 . S
O1729 Tb1691 2.393 . S
O1729 C1743 1.248 1_554 S
O1730 Tb1691 2.465 . S
O1730 C1755 1.264 . S
O1731 Tb1691 2.387 . S
O1731 C1747 1.264 . S
O1732 Tb1680 2.349 1_554 S
O1732 C1747 1.243 . S
O1733 Tb1691 2.428 . S
O1733 C1755 1.256 . S
O1734 Tb1691 2.308 . S
O1734 C1754 1.266 . S
O1735 Tb1680 2.393 . S
O1735 C1754 1.248 1_556 S
C1736 O1725 1.264 . S
C1736 O1726 1.243 . S
C1737 C1740 1.399 . S
C1737 C1742 1.383 . S
C1737 C1744 1.496 . S
C1738 C1739 1.399 . S
C1738 C1742 1.389 . S
C1739 C1738 1.399 . S
C1739 C1741 1.380 . S
C1739 H1756 0.929 . S
C1740 C1737 1.399 . S
C1740 C1741 1.392 . S
C1740 H1757 0.929 . S
C1741 C1739 1.380 . S
C1741 C1740 1.392 . S
C1741 H1758 0.929 . S
C1742 C1737 1.383 . S
C1742 C1738 1.389 . S
C1742 H1759 0.931 . S
C1743 O1728 1.266 . S
C1743 O1729 1.248 1_556 S
C1744 Tb1680 2.802 . S
C1744 O1724 1.264 . S
C1744 O1727 1.256 . S
C1744 C1737 1.496 . S
C1745 C1712 1.448 . S
C1745 H1722 0.930 . S
C1745 C1746 1.328 . S
C1746 C1717 1.427 . S
C1746 H1723 0.929 . S
C1746 C1745 1.328 . S
C1747 O1731 1.264 . S
C1747 O1732 1.243 . S
C1748 C1751 1.399 . S
C1748 C1752 1.383 . S
C1748 C1755 1.496 . S
C1749 C1750 1.399 . S
C1749 C1752 1.389 . S
C1750 C1749 1.399 . S
C1750 C1753 1.380 . S
C1750 H1760 0.929 . S
C1751 C1748 1.399 . S
C1751 C1753 1.392 . S
C1751 H1761 0.929 . S
C1752 C1748 1.383 . S
C1752 C1749 1.389 . S
C1752 H1762 0.931 . S
C1753 C1750 1.380 . S
C1753 C1751 1.392 . S
C1753 H1763 0.929 . S
C1754 O1734 1.266 . S
C1754 O1735 1.248 1_554 S
C1755 Tb1691 2.802 . S
C1755 O1730 1.264 . S
C1755 O1733 1.256 . S
C1755 C1748 1.496 . S
H1756 C1739 0.929 . S
H1757 C1740 0.929 . S
H1758 C1741 0.929 . S
H1759 C1742 0.931 . S
H1760 C1750 0.929 . S
H1761 C1751 0.929 . S
H1762 C1752 0.931 . S
H1763 C1753 0.929 . S
Tb1764 N1793 2.617 1_554 S
Tb1764 N1799 2.572 . S
Tb1764 O1808 2.465 . S
Tb1764 O1809 2.387 . S
Tb1764 O1811 2.428 1_554 S
Tb1764 O1812 2.308 . S
Tb1764 O1816 2.349 . S
Tb1764 O1819 2.393 . S
Tb1764 C1828 2.802 1_554 S
C1765 N1766 1.379 . S
C1765 C1768 1.416 . S
C1765 C1772 1.424 . S
N1766 C1765 1.379 . S
N1766 C1769 1.334 . S
N1766 Tb1775 2.617 . S
C1767 C1769 1.390 . S
C1767 C1770 1.339 . S
C1767 H1787 0.930 . S
C1768 C1765 1.416 . S
C1768 C1770 1.416 . S
C1768 C1774 1.448 . S
C1769 N1766 1.334 . S
C1769 C1767 1.390 . S
C1769 H1780 0.930 . S
C1770 C1767 1.339 . S
C1770 C1768 1.416 . S
C1770 H1791 0.930 . S
C1771 C1772 1.413 . S
C1771 C1773 1.427 . S
C1771 C1777 1.416 . S
C1772 C1765 1.424 . S
C1772 C1771 1.413 . S
C1772 N1776 1.361 . S
C1773 C1771 1.427 . S
C1773 C1774 1.328 . S
C1773 H1788 0.929 . S
C1774 C1768 1.448 . S
C1774 C1773 1.328 . S
C1774 H1789 0.930 . S
Tb1775 N1766 2.617 . S
Tb1775 N1776 2.572 . S
Tb1775 O1810 2.349 . S
Tb1775 O1813 2.393 . S
Tb1775 O1814 2.465 . S
Tb1775 O1815 2.387 . S
Tb1775 O1817 2.428 . S
Tb1775 O1818 2.308 . S
Tb1775 C1839 2.802 . S
N1776 C1772 1.361 . S
N1776 Tb1775 2.572 . S
N1776 C1778 1.340 . S
C1777 C1771 1.416 . S
C1777 C1779 1.332 . S
C1777 H1785 0.931 . S
C1778 N1776 1.340 . S
C1778 C1779 1.407 . S
C1778 H1784 0.930 . S
C1779 C1777 1.332 . S
C1779 C1778 1.407 . S
C1779 H1781 0.929 . S
H1780 C1769 0.930 . S
H1781 C1779 0.929 . S
H1782 C1797 0.930 . S
H1783 C1804 0.929 . S
H1784 C1778 0.930 . S
H1785 C1777 0.931 . S
H1786 C1800 0.930 . S
H1787 C1767 0.930 . S
H1788 C1773 0.929 . S
H1789 C1774 0.930 . S
H1790 C1795 0.930 . S
H1791 C1770 0.930 . S
H1792 C1803 0.931 . S
N1793 Tb1764 2.617 1_556 S
N1793 C1794 1.379 . S
N1793 C1797 1.334 . S
C1794 N1793 1.379 . S
C1794 C1796 1.416 . S
C1794 C1802 1.410 1_556 S
C1795 H1790 0.930 . S
C1795 C1797 1.390 . S
C1795 C1798 1.339 . S
C1796 C1794 1.416 . S
C1796 C1798 1.416 . S
C1796 C1829 1.448 . S
C1797 H1782 0.930 . S
C1797 N1793 1.334 . S
C1797 C1795 1.390 . S
C1798 C1795 1.339 . S
C1798 C1796 1.416 . S
C1798 H1805 0.930 . S
N1799 Tb1764 2.572 . S
N1799 C1800 1.340 . S
N1799 C1802 1.374 . S
C1800 H1786 0.930 . S
C1800 N1799 1.340 . S
C1800 C1804 1.407 . S
C1801 C1802 1.413 . S
C1801 C1803 1.416 . S
C1801 C1830 1.427 1_554 S
C1802 C1794 1.410 1_554 S
C1802 N1799 1.374 . S
C1802 C1801 1.413 . S
C1803 H1792 0.931 . S
C1803 C1801 1.416 . S
C1803 C1804 1.332 . S
C1804 H1783 0.929 . S
C1804 C1800 1.407 . S
C1804 C1803 1.332 . S
H1805 C1798 0.930 . S
H1806 C1829 0.930 . S
H1807 C1830 0.929 . S
O1808 Tb1764 2.465 . S
O1808 C1828 1.264 1_554 S
O1809 Tb1764 2.387 . S
O1809 C1820 1.264 . S
O1810 Tb1775 2.349 . S
O1810 C1820 1.243 . S
O1811 Tb1764 2.428 1_556 S
O1811 C1828 1.256 . S
O1812 Tb1764 2.308 . S
O1812 C1827 1.266 . S
O1813 Tb1775 2.393 . S
O1813 C1827 1.248 . S
O1814 Tb1775 2.465 . S
O1814 C1839 1.264 . S
O1815 Tb1775 2.387 . S
O1815 C1831 1.264 . S
O1816 Tb1764 2.349 . S
O1816 C1831 1.243 . S
O1817 Tb1775 2.428 . S
O1817 C1839 1.256 . S
O1818 Tb1775 2.308 . S
O1818 C1838 1.266 . S
O1819 Tb1764 2.393 . S
O1819 C1838 1.248 . S
C1820 O1809 1.264 . S
C1820 O1810 1.243 . S
C1821 C1824 1.399 . S
C1821 C1826 1.383 . S
C1821 C1828 1.496 . S
C1822 C1823 1.399 . S
C1822 C1826 1.389 . S
C1823 C1822 1.399 . S
C1823 C1825 1.380 . S
C1823 H1840 0.929 . S
C1824 C1821 1.399 . S
C1824 C1825 1.392 . S
C1824 H1841 0.929 . S
C1825 C1823 1.380 . S
C1825 C1824 1.392 . S
C1825 H1842 0.929 . S
C1826 C1821 1.383 . S
C1826 C1822 1.389 . S
C1826 H1843 0.962 . S
C1827 O1812 1.266 . S
C1827 O1813 1.248 . S
C1828 Tb1764 2.802 1_556 S
C1828 O1808 1.264 1_556 S
C1828 O1811 1.256 . S
C1828 C1821 1.496 . S
C1829 C1796 1.448 . S
C1829 H1806 0.930 . S
C1829 C1830 1.328 . S
C1830 C1801 1.427 1_556 S
C1830 H1807 0.929 . S
C1830 C1829 1.328 . S
C1831 O1815 1.264 . S
C1831 O1816 1.243 . S
C1832 C1835 1.399 . S
C1832 C1836 1.383 . S
C1832 C1839 1.496 . S
C1833 C1834 1.399 . S
C1833 C1836 1.389 . S
C1834 C1833 1.399 . S
C1834 C1837 1.380 . S
C1834 H1844 0.929 . S
C1835 C1832 1.399 . S
C1835 C1837 1.392 . S
C1835 H1845 0.929 . S
C1836 C1832 1.383 . S
C1836 C1833 1.389 . S
C1836 H1846 0.931 . S
C1837 C1834 1.380 . S
C1837 C1835 1.392 . S
C1837 H1847 0.929 . S
C1838 O1818 1.266 . S
C1838 O1819 1.248 . S
C1839 Tb1775 2.802 . S
C1839 O1814 1.264 . S
C1839 O1817 1.256 . S
C1839 C1832 1.496 . S
H1840 C1823 0.929 . S
H1841 C1824 0.929 . S
H1842 C1825 0.929 . S
H1843 C1826 0.962 . S
H1844 C1834 0.929 . S
H1845 C1835 0.929 . S
H1846 C1836 0.931 . S
H1847 C1837 0.929 . S
Tb1848 N1877 2.617 . S
Tb1848 N1883 2.572 . S
Tb1848 O1892 2.465 . S
Tb1848 O1893 2.387 . S
Tb1848 O1895 2.428 . S
Tb1848 O1896 2.308 . S
Tb1848 O1900 2.349 . S
Tb1848 O1903 2.393 . S
Tb1848 C1912 2.802 . S
C1849 N1850 1.379 . S
C1849 C1852 1.416 . S
C1849 C1856 1.424 . S
N1850 C1849 1.379 . S
N1850 C1853 1.334 . S
N1850 Tb1859 2.617 1_556 S
C1851 C1853 1.390 . S
C1851 C1854 1.339 . S
C1851 H1871 0.930 . S
C1852 C1849 1.416 . S
C1852 C1854 1.416 . S
C1852 C1858 1.448 . S
C1853 N1850 1.334 . S
C1853 C1851 1.390 . S
C1853 H1864 0.930 . S
C1854 C1851 1.339 . S
C1854 C1852 1.416 . S
C1854 H1875 0.930 . S
C1855 C1856 1.413 . S
C1855 C1857 1.427 . S
C1855 C1861 1.416 . S
C1856 C1849 1.424 . S
C1856 C1855 1.413 . S
C1856 N1860 1.361 . S
C1857 C1855 1.427 . S
C1857 C1858 1.328 . S
C1857 H1872 0.929 . S
C1858 C1852 1.448 . S
C1858 C1857 1.328 . S
C1858 H1873 0.930 . S
Tb1859 N1850 2.617 1_554 S
Tb1859 N1860 2.572 1_554 S
Tb1859 O1894 2.349 . S
Tb1859 O1897 2.393 . S
Tb1859 O1898 2.465 . S
Tb1859 O1899 2.387 . S
Tb1859 O1901 2.428 1_554 S
Tb1859 O1902 2.308 . S
Tb1859 C1923 2.802 1_554 S
N1860 C1856 1.361 . S
N1860 Tb1859 2.572 1_556 S
N1860 C1862 1.340 . S
C1861 C1855 1.416 . S
C1861 C1863 1.332 . S
C1861 H1869 0.931 . S
C1862 N1860 1.340 . S
C1862 C1863 1.407 . S
C1862 H1868 0.930 . S
C1863 C1861 1.332 . S
C1863 C1862 1.407 . S
C1863 H1865 0.929 . S
H1864 C1853 0.930 . S
H1865 C1863 0.929 . S
H1866 C1881 0.930 . S
H1867 C1888 0.929 . S
H1868 C1862 0.930 . S
H1869 C1861 0.931 . S
H1870 C1884 0.930 . S
H1871 C1851 0.930 . S
H1872 C1857 0.929 . S
H1873 C1858 0.930 . S
H1874 C1879 0.930 . S
H1875 C1854 0.930 . S
H1876 C1887 0.931 . S
N1877 Tb1848 2.617 . S
N1877 C1878 1.379 . S
N1877 C1881 1.334 . S
C1878 N1877 1.379 . S
C1878 C1880 1.416 . S
C1878 C1886 1.424 . S
C1879 H1874 0.930 . S
C1879 C1881 1.390 . S
C1879 C1882 1.339 . S
C1880 C1878 1.416 . S
C1880 C1882 1.416 . S
C1880 C1913 1.448 . S
C1881 H1866 0.930 . S
C1881 N1877 1.334 . S
C1881 C1879 1.390 . S
C1882 C1879 1.339 . S
C1882 C1880 1.416 . S
C1882 H1889 0.930 . S
N1883 Tb1848 2.572 . S
N1883 C1884 1.340 . S
N1883 C1886 1.361 . S
C1884 H1870 0.930 . S
C1884 N1883 1.340 . S
C1884 C1888 1.407 . S
C1885 C1886 1.413 . S
C1885 C1887 1.416 . S
C1885 C1914 1.427 . S
C1886 C1878 1.424 . S
C1886 N1883 1.361 . S
C1886 C1885 1.413 . S
C1887 H1876 0.931 . S
C1887 C1885 1.416 . S
C1887 C1888 1.332 . S
C1888 H1867 0.929 . S
C1888 C1884 1.407 . S
C1888 C1887 1.332 . S
H1889 C1882 0.930 . S
H1890 C1913 0.930 . S
H1891 C1914 0.929 . S
O1892 Tb1848 2.465 . S
O1892 C1912 1.264 . S
O1893 Tb1848 2.387 . S
O1893 C1904 1.264 . S
O1894 Tb1859 2.349 . S
O1894 C1904 1.243 . S
O1895 Tb1848 2.428 . S
O1895 C1912 1.256 . S
O1896 Tb1848 2.308 . S
O1896 C1911 1.266 . S
O1897 Tb1859 2.393 . S
O1897 C1911 1.248 . S
O1898 Tb1859 2.465 . S
O1898 C1923 1.264 1_554 S
O1899 Tb1859 2.387 . S
O1899 C1915 1.264 . S
O1900 Tb1848 2.349 . S
O1900 C1915 1.243 . S
O1901 Tb1859 2.428 1_556 S
O1901 C1923 1.256 . S
O1902 Tb1859 2.308 . S
O1902 C1922 1.266 . S
O1903 Tb1848 2.393 . S
O1903 C1922 1.248 . S
C1904 O1893 1.264 . S
C1904 O1894 1.243 . S
C1905 C1908 1.399 . S
C1905 C1910 1.383 . S
C1905 C1912 1.496 . S
C1906 C1907 1.399 . S
C1906 C1910 1.389 . S
C1907 C1906 1.399 . S
C1907 C1909 1.380 . S
C1907 H1924 0.929 . S
C1908 C1905 1.399 . S
C1908 C1909 1.392 . S
C1908 H1925 0.929 . S
C1909 C1907 1.380 . S
C1909 C1908 1.392 . S
C1909 H1926 0.929 . S
C1910 C1905 1.383 . S
C1910 C1906 1.389 . S
C1910 H1927 0.931 . S
C1911 O1896 1.266 . S
C1911 O1897 1.248 . S
C1912 Tb1848 2.802 . S
C1912 O1892 1.264 . S
C1912 O1895 1.256 . S
C1912 C1905 1.496 . S
C1913 C1880 1.448 . S
C1913 H1890 0.930 . S
C1913 C1914 1.328 . S
C1914 C1885 1.427 . S
C1914 H1891 0.929 . S
C1914 C1913 1.328 . S
C1915 O1899 1.264 . S
C1915 O1900 1.243 . S
C1916 C1919 1.399 . S
C1916 C1920 1.383 . S
C1916 C1923 1.496 . S
C1917 C1918 1.399 . S
C1917 C1920 1.389 . S
C1918 C1917 1.399 . S
C1918 C1921 1.380 . S
C1918 H1928 0.929 . S
C1919 C1916 1.399 . S
C1919 C1921 1.392 . S
C1919 H1929 0.929 . S
C1920 C1916 1.383 . S
C1920 C1917 1.389 . S
C1920 H1930 0.931 . S
C1921 C1918 1.380 . S
C1921 C1919 1.392 . S
C1921 H1931 0.929 . S
C1922 O1902 1.266 . S
C1922 O1903 1.248 . S
C1923 Tb1859 2.802 1_556 S
C1923 O1898 1.264 1_556 S
C1923 O1901 1.256 . S
C1923 C1916 1.496 . S
H1924 C1907 0.929 . S
H1925 C1908 0.929 . S
H1926 C1909 0.929 . S
H1927 C1910 0.931 . S
H1928 C1918 0.929 . S
H1929 C1919 0.929 . S
H1930 C1920 0.931 . S
H1931 C1921 0.929 . S
Tb1932 N1961 2.617 . S
Tb1932 N1967 2.572 . S
Tb1932 O1976 2.465 . S
Tb1932 O1977 2.387 . S
Tb1932 O1979 2.428 . S
Tb1932 O1980 2.308 . S
Tb1932 O1984 2.349 . S
Tb1932 O1987 2.393 . S
Tb1932 C1996 2.802 . S
C1933 N1934 1.379 . S
C1933 C1936 1.416 . S
C1933 C1940 1.424 . S
N1934 C1933 1.379 . S
N1934 C1937 1.334 . S
N1934 Tb1943 2.617 . S
C1935 C1937 1.390 . S
C1935 C1938 1.339 . S
C1935 H1955 0.930 . S
C1936 C1933 1.416 . S
C1936 C1938 1.416 . S
C1936 C1942 1.448 . S
C1937 N1934 1.334 . S
C1937 C1935 1.390 . S
C1937 H1948 0.930 . S
C1938 C1935 1.339 . S
C1938 C1936 1.416 . S
C1938 H1959 0.930 . S
C1939 C1940 1.413 . S
C1939 C1941 1.427 . S
C1939 C1945 1.416 . S
C1940 C1933 1.424 . S
C1940 C1939 1.413 . S
C1940 N1944 1.361 . S
C1941 C1939 1.427 . S
C1941 C1942 1.328 . S
C1941 H1956 0.929 . S
C1942 C1936 1.448 . S
C1942 C1941 1.328 . S
C1942 H1957 0.930 . S
Tb1943 N1934 2.617 . S
Tb1943 N1944 2.572 . S
Tb1943 O1978 2.349 1_556 S
Tb1943 O1981 2.393 1_556 S
Tb1943 O1982 2.465 . S
Tb1943 O1983 2.387 . S
Tb1943 O1985 2.428 . S
Tb1943 O1986 2.308 1_556 S
Tb1943 C2007 2.802 . S
N1944 C1940 1.361 . S
N1944 Tb1943 2.572 . S
N1944 C1946 1.340 . S
C1945 C1939 1.416 . S
C1945 C1947 1.332 . S
C1945 H1953 0.931 . S
C1946 N1944 1.340 . S
C1946 C1947 1.407 . S
C1946 H1952 0.930 . S
C1947 C1945 1.332 . S
C1947 C1946 1.407 . S
C1947 H1949 0.929 . S
H1948 C1937 0.930 . S
H1949 C1947 0.929 . S
H1950 C1965 0.930 . S
H1951 C1972 0.929 . S
H1952 C1946 0.930 . S
H1953 C1945 0.931 . S
H1954 C1968 0.930 . S
H1955 C1935 0.930 . S
H1956 C1941 0.929 . S
H1957 C1942 0.930 . S
H1958 C1963 0.930 . S
H1959 C1938 0.930 . S
H1960 C1971 0.931 . S
N1961 Tb1932 2.617 . S
N1961 C1962 1.379 . S
N1961 C1965 1.334 . S
C1962 N1961 1.379 . S
C1962 C1964 1.416 . S
C1962 C1970 1.424 . S
C1963 H1958 0.930 . S
C1963 C1965 1.390 . S
C1963 C1966 1.339 . S
C1964 C1962 1.416 . S
C1964 C1966 1.416 . S
C1964 C1997 1.448 . S
C1965 H1950 0.930 . S
C1965 N1961 1.334 . S
C1965 C1963 1.390 . S
C1966 C1963 1.339 . S
C1966 C1964 1.416 . S
C1966 H1973 0.930 . S
N1967 Tb1932 2.572 . S
N1967 C1968 1.340 . S
N1967 C1970 1.361 . S
C1968 H1954 0.930 . S
C1968 N1967 1.340 . S
C1968 C1972 1.407 . S
C1969 C1970 1.413 . S
C1969 C1971 1.416 . S
C1969 C1998 1.427 . S
C1970 C1962 1.424 . S
C1970 N1967 1.361 . S
C1970 C1969 1.413 . S
C1971 H1960 0.931 . S
C1971 C1969 1.416 . S
C1971 C1972 1.332 . S
C1972 H1951 0.929 . S
C1972 C1968 1.407 . S
C1972 C1971 1.332 . S
H1973 C1966 0.930 . S
H1974 C1997 0.930 . S
H1975 C1998 0.929 . S
O1976 Tb1932 2.465 . S
O1976 C1996 1.264 . S
O1977 Tb1932 2.387 . S
O1977 C1988 1.264 . S
O1978 Tb1943 2.349 1_554 S
O1978 C1988 1.243 . S
O1979 Tb1932 2.428 . S
O1979 C1996 1.256 . S
O1980 Tb1932 2.308 . S
O1980 C1995 1.266 . S
O1981 Tb1943 2.393 1_554 S
O1981 C1995 1.248 . S
O1982 Tb1943 2.465 . S
O1982 C2007 1.264 . S
O1983 Tb1943 2.387 . S
O1983 C1999 1.264 1_556 S
O1984 Tb1932 2.349 . S
O1984 C1999 1.243 . S
O1985 Tb1943 2.428 . S
O1985 C2007 1.256 . S
O1986 Tb1943 2.308 1_554 S
O1986 C2006 1.266 . S
O1987 Tb1932 2.393 . S
O1987 C2006 1.248 . S
C1988 O1977 1.264 . S
C1988 O1978 1.243 . S
C1989 C1992 1.399 . S
C1989 C1994 1.383 . S
C1989 C1996 1.496 . S
C1990 C1991 1.399 . S
C1990 C1994 1.389 . S
C1991 C1990 1.399 . S
C1991 C1993 1.380 . S
C1991 H2008 0.929 . S
C1992 C1989 1.399 . S
C1992 C1993 1.392 . S
C1992 H2009 0.929 . S
C1993 C1991 1.380 . S
C1993 C1992 1.392 . S
C1993 H2010 0.929 . S
C1994 C1989 1.383 . S
C1994 C1990 1.389 . S
C1994 H2011 0.931 . S
C1995 O1980 1.266 . S
C1995 O1981 1.248 . S
C1996 Tb1932 2.802 . S
C1996 O1976 1.264 . S
C1996 O1979 1.256 . S
C1996 C1989 1.496 . S
C1997 C1964 1.448 . S
C1997 H1974 0.930 . S
C1997 C1998 1.328 . S
C1998 C1969 1.427 . S
C1998 H1975 0.929 . S
C1998 C1997 1.328 . S
C1999 O1983 1.264 1_554 S
C1999 O1984 1.243 . S
C2000 C2003 1.399 . S
C2000 C2004 1.383 . S
C2000 C2007 1.496 . S
C2001 C2002 1.399 . S
C2001 C2004 1.389 . S
C2002 C2001 1.399 . S
C2002 C2005 1.380 . S
C2002 H2012 0.929 . S
C2003 C2000 1.399 . S
C2003 C2005 1.392 . S
C2003 H2013 0.929 . S
C2004 C2000 1.383 . S
C2004 C2001 1.389 . S
C2004 H2014 0.931 . S
C2005 C2002 1.380 . S
C2005 C2003 1.392 . S
C2005 H2015 0.929 . S
C2006 O1986 1.266 . S
C2006 O1987 1.248 . S
C2007 Tb1943 2.802 . S
C2007 O1982 1.264 . S
C2007 O1985 1.256 . S
C2007 C2000 1.496 . S
H2008 C1991 0.929 . S
H2009 C1992 0.929 . S
H2010 C1993 0.929 . S
H2011 C1994 0.931 . S
H2012 C2002 0.929 . S
H2013 C2003 0.929 . S
H2014 C2004 0.931 . S
H2015 C2005 0.929 . S
Tb2016 N2045 2.617 . S
Tb2016 N2051 2.572 . S
Tb2016 O2060 2.465 . S
Tb2016 O2061 2.387 . S
Tb2016 O2063 2.428 . S
Tb2016 O2064 2.308 . S
Tb2016 O2068 2.349 . S
Tb2016 O2071 2.393 . S
Tb2016 C2080 2.802 . S
C2017 N2018 1.379 . S
C2017 C2020 1.416 . S
C2017 C2024 1.424 . S
N2018 C2017 1.379 . S
N2018 C2021 1.334 . S
N2018 Tb2027 2.617 . S
C2019 C2021 1.390 . S
C2019 C2022 1.339 . S
C2019 H2039 0.930 . S
C2020 C2017 1.416 . S
C2020 C2022 1.416 . S
C2020 C2026 1.448 . S
C2021 N2018 1.334 . S
C2021 C2019 1.390 . S
C2021 H2032 0.930 . S
C2022 C2019 1.339 . S
C2022 C2020 1.416 . S
C2022 H2043 0.930 . S
C2023 C2024 1.413 . S
C2023 C2025 1.427 . S
C2023 C2029 1.416 . S
C2024 C2017 1.424 . S
C2024 C2023 1.413 . S
C2024 N2028 1.361 . S
C2025 C2023 1.427 . S
C2025 C2026 1.328 . S
C2025 H2040 0.929 . S
C2026 C2020 1.448 . S
C2026 C2025 1.328 . S
C2026 H2041 0.930 . S
Tb2027 N2018 2.617 . S
Tb2027 N2028 2.572 . S
Tb2027 O2062 2.349 . S
Tb2027 O2065 2.393 . S
Tb2027 O2066 2.465 . S
Tb2027 O2067 2.387 . S
Tb2027 O2069 2.428 . S
Tb2027 O2070 2.308 . S
Tb2027 C2091 2.802 . S
N2028 C2024 1.361 . S
N2028 Tb2027 2.572 . S
N2028 C2030 1.340 . S
C2029 C2023 1.416 . S
C2029 C2031 1.332 . S
C2029 H2037 0.931 . S
C2030 N2028 1.340 . S
C2030 C2031 1.407 . S
C2030 H2036 0.930 . S
C2031 C2029 1.332 . S
C2031 C2030 1.407 . S
C2031 H2033 0.929 . S
H2032 C2021 0.930 . S
H2033 C2031 0.929 . S
H2034 C2049 0.930 . S
H2035 C2056 0.929 . S
H2036 C2030 0.930 . S
H2037 C2029 0.931 . S
H2038 C2052 0.930 . S
H2039 C2019 0.930 . S
H2040 C2025 0.929 . S
H2041 C2026 0.930 . S
H2042 C2047 0.930 . S
H2043 C2022 0.930 . S
H2044 C2055 0.931 . S
N2045 Tb2016 2.617 . S
N2045 C2046 1.379 . S
N2045 C2049 1.334 . S
C2046 N2045 1.379 . S
C2046 C2048 1.416 . S
C2046 C2054 1.424 . S
C2047 H2042 0.930 . S
C2047 C2049 1.390 . S
C2047 C2050 1.339 . S
C2048 C2046 1.416 . S
C2048 C2050 1.416 . S
C2048 C2081 1.448 . S
C2049 H2034 0.930 . S
C2049 N2045 1.334 . S
C2049 C2047 1.390 . S
C2050 C2047 1.339 . S
C2050 C2048 1.416 . S
C2050 H2057 0.930 . S
N2051 Tb2016 2.572 . S
N2051 C2052 1.340 . S
N2051 C2054 1.361 . S
C2052 H2038 0.930 . S
C2052 N2051 1.340 . S
C2052 C2056 1.407 . S
C2053 C2054 1.413 . S
C2053 C2055 1.416 . S
C2053 C2082 1.427 . S
C2054 C2046 1.424 . S
C2054 N2051 1.361 . S
C2054 C2053 1.413 . S
C2055 H2044 0.931 . S
C2055 C2053 1.416 . S
C2055 C2056 1.332 . S
C2056 H2035 0.929 . S
C2056 C2052 1.407 . S
C2056 C2055 1.332 . S
H2057 C2050 0.930 . S
H2058 C2081 0.930 . S
H2059 C2082 0.929 . S
O2060 Tb2016 2.465 . S
O2060 C2080 1.264 . S
O2061 Tb2016 2.387 . S
O2061 C2072 1.264 . S
O2062 Tb2027 2.349 . S
O2062 C2072 1.243 . S
O2063 Tb2016 2.428 . S
O2063 C2080 1.256 . S
O2064 Tb2016 2.308 . S
O2064 C2079 1.266 . S
O2065 Tb2027 2.393 . S
O2065 C2079 1.248 . S
O2066 Tb2027 2.465 . S
O2066 C2091 1.264 . S
O2067 Tb2027 2.387 . S
O2067 C2083 1.264 . S
O2068 Tb2016 2.349 . S
O2068 C2083 1.243 . S
O2069 Tb2027 2.428 . S
O2069 C2091 1.256 . S
O2070 Tb2027 2.308 . S
O2070 C2090 1.266 . S
O2071 Tb2016 2.393 . S
O2071 C2090 1.248 . S
C2072 O2061 1.264 . S
C2072 O2062 1.243 . S
C2073 C2076 1.399 . S
C2073 C2078 1.383 . S
C2073 C2080 1.496 . S
C2074 C2075 1.399 . S
C2074 C2078 1.389 . S
C2075 C2074 1.399 . S
C2075 C2077 1.380 . S
C2075 H2092 0.929 . S
C2076 C2073 1.399 . S
C2076 C2077 1.392 . S
C2076 H2093 0.929 . S
C2077 C2075 1.380 . S
C2077 C2076 1.392 . S
C2077 H2094 0.929 . S
C2078 C2073 1.383 . S
C2078 C2074 1.389 . S
C2078 H2095 0.931 . S
C2079 O2064 1.266 . S
C2079 O2065 1.248 . S
C2080 Tb2016 2.802 . S
C2080 O2060 1.264 . S
C2080 O2063 1.256 . S
C2080 C2073 1.496 . S
C2081 C2048 1.448 . S
C2081 H2058 0.930 . S
C2081 C2082 1.328 . S
C2082 C2053 1.427 . S
C2082 H2059 0.929 . S
C2082 C2081 1.328 . S
C2083 O2067 1.264 . S
C2083 O2068 1.243 . S
C2084 C2087 1.399 . S
C2084 C2088 1.383 . S
C2084 C2091 1.496 . S
C2085 C2086 1.399 . S
C2085 C2088 1.389 . S
C2086 C2085 1.399 . S
C2086 C2089 1.380 . S
C2086 H2096 0.929 . S
C2087 C2084 1.399 . S
C2087 C2089 1.392 . S
C2087 H2097 0.929 . S
C2088 C2084 1.383 . S
C2088 C2085 1.389 . S
C2088 H2098 0.931 . S
C2089 C2086 1.380 . S
C2089 C2087 1.392 . S
C2089 H2099 0.929 . S
C2090 O2070 1.266 . S
C2090 O2071 1.248 . S
C2091 Tb2027 2.802 . S
C2091 O2066 1.264 . S
C2091 O2069 1.256 . S
C2091 C2084 1.496 . S
H2092 C2075 0.929 . S
H2093 C2076 0.929 . S
H2094 C2077 0.929 . S
H2095 C2078 0.931 . S
H2096 C2086 0.929 . S
H2097 C2087 0.929 . S
H2098 C2088 0.931 . S
H2099 C2089 0.929 . S
Tb2100 N2129 2.617 . S
Tb2100 N2135 2.572 . S
Tb2100 O2144 2.465 . S
Tb2100 O2145 2.387 . S
Tb2100 O2147 2.428 . S
Tb2100 O2148 2.308 . S
Tb2100 O2152 2.349 . S
Tb2100 O2155 2.393 . S
Tb2100 C2164 2.802 . S
C2101 N2102 1.379 . S
C2101 C2104 1.416 . S
C2101 C2108 1.424 . S
N2102 C2101 1.379 . S
N2102 C2105 1.334 . S
N2102 Tb2111 2.617 . S
C2103 C2105 1.390 . S
C2103 C2106 1.339 . S
C2103 H2123 0.930 . S
C2104 C2101 1.416 . S
C2104 C2106 1.416 . S
C2104 C2110 1.448 . S
C2105 N2102 1.334 . S
C2105 C2103 1.390 . S
C2105 H2116 0.930 . S
C2106 C2103 1.339 . S
C2106 C2104 1.416 . S
C2106 H2127 0.930 . S
C2107 C2108 1.413 . S
C2107 C2109 1.427 . S
C2107 C2113 1.416 . S
C2108 C2101 1.424 . S
C2108 C2107 1.413 . S
C2108 N2112 1.361 . S
C2109 C2107 1.427 . S
C2109 C2110 1.328 . S
C2109 H2124 0.929 . S
C2110 C2104 1.448 . S
C2110 C2109 1.328 . S
C2110 H2125 0.930 . S
Tb2111 N2102 2.617 . S
Tb2111 N2112 2.572 . S
Tb2111 O2146 2.349 . S
Tb2111 O2149 2.393 . S
Tb2111 O2150 2.465 . S
Tb2111 O2151 2.387 . S
Tb2111 O2153 2.428 . S
Tb2111 O2154 2.308 . S
Tb2111 C2175 2.802 . S
N2112 C2108 1.361 . S
N2112 Tb2111 2.572 . S
N2112 C2114 1.340 . S
C2113 C2107 1.416 . S
C2113 C2115 1.332 . S
C2113 H2121 0.931 . S
C2114 N2112 1.340 . S
C2114 C2115 1.407 . S
C2114 H2120 0.930 . S
C2115 C2113 1.332 . S
C2115 C2114 1.407 . S
C2115 H2117 0.929 . S
H2116 C2105 0.930 . S
H2117 C2115 0.929 . S
H2118 C2133 0.930 . S
H2119 C2140 0.929 . S
H2120 C2114 0.930 . S
H2121 C2113 0.931 . S
H2122 C2136 0.930 . S
H2123 C2103 0.930 . S
H2124 C2109 0.929 . S
H2125 C2110 0.930 . S
H2126 C2131 0.930 . S
H2127 C2106 0.930 . S
H2128 C2139 0.931 . S
N2129 Tb2100 2.617 . S
N2129 C2130 1.379 . S
N2129 C2133 1.334 . S
C2130 N2129 1.379 . S
C2130 C2132 1.416 . S
C2130 C2138 1.424 . S
C2131 H2126 0.930 . S
C2131 C2133 1.390 1_554 S
C2131 C2134 1.339 . S
C2132 C2130 1.416 . S
C2132 C2134 1.416 1_556 S
C2132 C2165 1.448 . S
C2133 H2118 0.930 . S
C2133 N2129 1.334 . S
C2133 C2131 1.390 1_556 S
C2134 C2131 1.339 . S
C2134 C2132 1.416 1_554 S
C2134 H2141 0.930 . S
N2135 Tb2100 2.572 . S
N2135 C2136 1.340 . S
N2135 C2138 1.361 . S
C2136 H2122 0.930 . S
C2136 N2135 1.340 . S
C2136 C2140 1.407 . S
C2137 C2138 1.413 . S
C2137 C2139 1.416 . S
C2137 C2166 1.427 . S
C2138 C2130 1.424 . S
C2138 N2135 1.361 . S
C2138 C2137 1.413 . S
C2139 H2128 0.931 . S
C2139 C2137 1.416 . S
C2139 C2140 1.332 . S
C2140 H2119 0.929 . S
C2140 C2136 1.407 . S
C2140 C2139 1.332 . S
H2141 C2134 0.930 . S
H2142 C2165 0.896 1_554 S
H2143 C2166 0.929 . S
O2144 Tb2100 2.465 . S
O2144 C2164 1.264 . S
O2145 Tb2100 2.387 . S
O2145 C2156 1.264 . S
O2146 Tb2111 2.349 . S
O2146 C2156 1.243 . S
O2147 Tb2100 2.428 . S
O2147 C2164 1.256 . S
O2148 Tb2100 2.308 . S
O2148 C2163 1.266 . S
O2149 Tb2111 2.393 . S
O2149 C2163 1.248 . S
O2150 Tb2111 2.465 . S
O2150 C2175 1.264 . S
O2151 Tb2111 2.387 . S
O2151 C2167 1.264 . S
O2152 Tb2100 2.349 . S
O2152 C2167 1.243 . S
O2153 Tb2111 2.428 . S
O2153 C2175 1.256 . S
O2154 Tb2111 2.308 . S
O2154 C2174 1.266 . S
O2155 Tb2100 2.393 . S
O2155 C2174 1.248 . S
C2156 O2145 1.264 . S
C2156 O2146 1.243 . S
C2157 C2160 1.399 . S
C2157 C2162 1.383 . S
C2157 C2164 1.496 . S
C2158 C2159 1.399 . S
C2158 C2162 1.389 . S
C2159 C2158 1.399 . S
C2159 C2161 1.380 . S
C2159 H2176 0.929 . S
C2160 C2157 1.399 . S
C2160 C2161 1.392 . S
C2160 H2177 0.929 . S
C2161 C2159 1.380 . S
C2161 C2160 1.392 . S
C2161 H2178 0.929 . S
C2162 C2157 1.383 . S
C2162 C2158 1.389 . S
C2162 H2179 0.931 . S
C2163 O2148 1.266 . S
C2163 O2149 1.248 . S
C2164 Tb2100 2.802 . S
C2164 O2144 1.264 . S
C2164 O2147 1.256 . S
C2164 C2157 1.496 . S
C2165 C2132 1.448 . S
C2165 H2142 0.896 1_556 S
C2165 C2166 1.328 . S
C2166 C2137 1.427 . S
C2166 H2143 0.929 . S
C2166 C2165 1.328 . S
C2167 O2151 1.264 . S
C2167 O2152 1.243 . S
C2168 C2171 1.399 . S
C2168 C2172 1.383 . S
C2168 C2175 1.496 . S
C2169 C2170 1.399 1_554 S
C2169 C2172 1.389 1_554 S
C2170 C2169 1.399 1_556 S
C2170 C2173 1.380 . S
C2170 H2180 0.929 . S
C2171 C2168 1.399 . S
C2171 C2173 1.392 . S
C2171 H2181 0.929 . S
C2172 C2168 1.383 . S
C2172 C2169 1.389 1_556 S
C2172 H2182 0.907 1_556 S
C2173 C2170 1.380 . S
C2173 C2171 1.392 . S
C2173 H2183 0.929 . S
C2174 O2154 1.266 . S
C2174 O2155 1.248 . S
C2175 Tb2111 2.802 . S
C2175 O2150 1.264 . S
C2175 O2153 1.256 . S
C2175 C2168 1.496 . S
H2176 C2159 0.929 . S
H2177 C2160 0.929 . S
H2178 C2161 0.929 . S
H2179 C2162 0.931 . S
H2180 C2170 0.929 . S
H2181 C2171 0.929 . S
H2182 C2172 0.907 1_554 S
H2183 C2173 0.929 . S
Tb2184 N2213 2.617 . S
Tb2184 N2219 2.572 . S
Tb2184 O2228 2.465 . S
Tb2184 O2229 2.387 . S
Tb2184 O2231 2.428 . S
Tb2184 O2232 2.308 . S
Tb2184 O2236 2.349 . S
Tb2184 O2239 2.393 . S
Tb2184 C2248 2.802 . S
C2185 N2186 1.379 . S
C2185 C2188 1.416 . S
C2185 C2192 1.424 . S
N2186 C2185 1.379 . S
N2186 C2189 1.334 . S
N2186 Tb2195 2.617 . S
C2187 C2189 1.390 . S
C2187 C2190 1.339 . S
C2187 H2207 0.930 . S
C2188 C2185 1.416 . S
C2188 C2190 1.416 . S
C2188 C2194 1.448 . S
C2189 N2186 1.334 . S
C2189 C2187 1.390 . S
C2189 H2200 0.930 . S
C2190 C2187 1.339 . S
C2190 C2188 1.416 . S
C2190 H2211 0.930 . S
C2191 C2192 1.413 . S
C2191 C2193 1.427 . S
C2191 C2197 1.416 . S
C2192 C2185 1.424 . S
C2192 C2191 1.413 . S
C2192 N2196 1.361 . S
C2193 C2191 1.427 . S
C2193 C2194 1.328 . S
C2193 H2208 0.929 . S
C2194 C2188 1.448 . S
C2194 C2193 1.328 . S
C2194 H2209 0.930 . S
Tb2195 N2186 2.617 . S
Tb2195 N2196 2.572 . S
Tb2195 O2230 2.349 . S
Tb2195 O2233 2.393 . S
Tb2195 O2234 2.465 . S
Tb2195 O2235 2.387 . S
Tb2195 O2237 2.428 . S
Tb2195 O2238 2.308 . S
Tb2195 C2259 2.802 . S
N2196 C2192 1.361 . S
N2196 Tb2195 2.572 . S
N2196 C2198 1.340 . S
C2197 C2191 1.416 . S
C2197 C2199 1.332 . S
C2197 H2205 0.931 . S
C2198 N2196 1.340 . S
C2198 C2199 1.407 . S
C2198 H2204 0.930 . S
C2199 C2197 1.332 . S
C2199 C2198 1.407 . S
C2199 H2201 0.929 . S
H2200 C2189 0.930 . S
H2201 C2199 0.929 . S
H2202 C2217 0.930 . S
H2203 C2224 0.929 . S
H2204 C2198 0.930 . S
H2205 C2197 0.931 . S
H2206 C2220 0.930 . S
H2207 C2187 0.930 . S
H2208 C2193 0.929 . S
H2209 C2194 0.930 . S
H2210 C2215 0.930 . S
H2211 C2190 0.930 . S
H2212 C2223 0.931 . S
N2213 Tb2184 2.617 . S
N2213 C2214 1.379 . S
N2213 C2217 1.334 . S
C2214 N2213 1.379 . S
C2214 C2216 1.416 . S
C2214 C2222 1.424 . S
C2215 H2210 0.930 . S
C2215 C2217 1.390 . S
C2215 C2218 1.339 . S
C2216 C2214 1.416 . S
C2216 C2218 1.416 . S
C2216 C2249 1.448 . S
C2217 H2202 0.930 . S
C2217 N2213 1.334 . S
C2217 C2215 1.390 . S
C2218 C2215 1.339 . S
C2218 C2216 1.416 . S
C2218 H2225 0.930 . S
N2219 Tb2184 2.572 . S
N2219 C2220 1.340 . S
N2219 C2222 1.361 . S
C2220 H2206 0.930 . S
C2220 N2219 1.340 . S
C2220 C2224 1.407 . S
C2221 C2222 1.413 . S
C2221 C2223 1.416 . S
C2221 C2250 1.427 . S
C2222 C2214 1.424 . S
C2222 N2219 1.361 . S
C2222 C2221 1.413 . S
C2223 H2212 0.931 . S
C2223 C2221 1.416 . S
C2223 C2224 1.332 . S
C2224 H2203 0.929 . S
C2224 C2220 1.407 . S
C2224 C2223 1.332 . S
H2225 C2218 0.930 . S
H2226 C2249 0.930 . S
H2227 C2250 0.929 . S
O2228 Tb2184 2.465 . S
O2228 C2248 1.264 . S
O2229 Tb2184 2.387 . S
O2229 C2240 1.264 . S
O2230 Tb2195 2.349 . S
O2230 C2240 1.243 . S
O2231 Tb2184 2.428 . S
O2231 C2248 1.256 . S
O2232 Tb2184 2.308 . S
O2232 C2247 1.266 . S
O2233 Tb2195 2.393 . S
O2233 C2247 1.248 . S
O2234 Tb2195 2.465 . S
O2234 C2259 1.264 . S
O2235 Tb2195 2.387 . S
O2235 C2251 1.264 . S
O2236 Tb2184 2.349 . S
O2236 C2251 1.243 . S
O2237 Tb2195 2.428 . S
O2237 C2259 1.256 . S
O2238 Tb2195 2.308 . S
O2238 C2258 1.266 . S
O2239 Tb2184 2.393 . S
O2239 C2258 1.248 . S
C2240 O2229 1.264 . S
C2240 O2230 1.243 . S
C2241 C2244 1.399 . S
C2241 C2246 1.383 . S
C2241 C2248 1.496 . S
C2242 C2243 1.399 . S
C2242 C2246 1.389 . S
C2243 C2242 1.399 . S
C2243 C2245 1.380 . S
C2243 H2260 0.929 . S
C2244 C2241 1.399 . S
C2244 C2245 1.392 . S
C2244 H2261 0.929 . S
C2245 C2243 1.380 . S
C2245 C2244 1.392 . S
C2245 H2262 0.929 . S
C2246 C2241 1.383 . S
C2246 C2242 1.389 . S
C2246 H2263 0.931 . S
C2247 O2232 1.266 . S
C2247 O2233 1.248 . S
C2248 Tb2184 2.802 . S
C2248 O2228 1.264 . S
C2248 O2231 1.256 . S
C2248 C2241 1.496 . S
C2249 C2216 1.448 . S
C2249 H2226 0.930 . S
C2249 C2250 1.328 . S
C2250 C2221 1.427 . S
C2250 H2227 0.929 . S
C2250 C2249 1.328 . S
C2251 O2235 1.264 . S
C2251 O2236 1.243 . S
C2252 C2255 1.399 . S
C2252 C2256 1.383 . S
C2252 C2259 1.496 . S
C2253 C2254 1.399 . S
C2253 C2256 1.389 . S
C2254 C2253 1.399 . S
C2254 C2257 1.380 . S
C2254 H2264 0.929 . S
C2255 C2252 1.399 . S
C2255 C2257 1.392 . S
C2255 H2265 0.929 . S
C2256 C2252 1.383 . S
C2256 C2253 1.389 . S
C2256 H2266 0.931 . S
C2257 C2254 1.380 . S
C2257 C2255 1.392 . S
C2257 H2267 0.929 . S
C2258 O2238 1.266 . S
C2258 O2239 1.248 . S
C2259 Tb2195 2.802 . S
C2259 O2234 1.264 . S
C2259 O2237 1.256 . S
C2259 C2252 1.496 . S
H2260 C2243 0.929 . S
H2261 C2244 0.929 . S
H2262 C2245 0.929 . S
H2263 C2246 0.931 . S
H2264 C2254 0.929 . S
H2265 C2255 0.929 . S
H2266 C2256 0.931 . S
H2267 C2257 0.929 . S
Tb2268 N2297 2.617 . S
Tb2268 N2303 2.572 . S
Tb2268 O2312 2.465 . S
Tb2268 O2313 2.387 . S
Tb2268 O2315 2.428 . S
Tb2268 O2316 2.308 . S
Tb2268 O2320 2.349 . S
Tb2268 O2323 2.393 . S
Tb2268 C2332 2.802 . S
C2269 N2270 1.379 . S
C2269 C2272 1.416 . S
C2269 C2276 1.424 . S
N2270 C2269 1.379 . S
N2270 C2273 1.334 . S
N2270 Tb2279 2.617 . S
C2271 C2273 1.390 . S
C2271 C2274 1.339 . S
C2271 H2291 0.930 . S
C2272 C2269 1.416 . S
C2272 C2274 1.416 . S
C2272 C2278 1.448 . S
C2273 N2270 1.334 . S
C2273 C2271 1.390 . S
C2273 H2284 0.930 . S
C2274 C2271 1.339 . S
C2274 C2272 1.416 . S
C2274 H2295 0.930 . S
C2275 C2276 1.413 . S
C2275 C2277 1.427 . S
C2275 C2281 1.416 . S
C2276 C2269 1.424 . S
C2276 C2275 1.413 . S
C2276 N2280 1.361 . S
C2277 C2275 1.427 . S
C2277 C2278 1.328 . S
C2277 H2292 0.929 . S
C2278 C2272 1.448 . S
C2278 C2277 1.328 . S
C2278 H2293 0.930 . S
Tb2279 N2270 2.617 . S
Tb2279 N2280 2.572 . S
Tb2279 O2314 2.349 . S
Tb2279 O2317 2.393 . S
Tb2279 O2318 2.465 . S
Tb2279 O2319 2.387 . S
Tb2279 O2321 2.428 . S
Tb2279 O2322 2.308 . S
Tb2279 C2343 2.802 . S
N2280 C2276 1.361 . S
N2280 Tb2279 2.572 . S
N2280 C2282 1.340 . S
C2281 C2275 1.416 . S
C2281 C2283 1.332 . S
C2281 H2289 0.931 . S
C2282 N2280 1.340 . S
C2282 C2283 1.407 . S
C2282 H2288 0.930 . S
C2283 C2281 1.332 . S
C2283 C2282 1.407 . S
C2283 H2285 0.929 . S
H2284 C2273 0.930 . S
H2285 C2283 0.929 . S
H2286 C2301 0.930 . S
H2287 C2308 0.929 . S
H2288 C2282 0.930 . S
H2289 C2281 0.931 . S
H2290 C2304 0.930 . S
H2291 C2271 0.930 . S
H2292 C2277 0.929 . S
H2293 C2278 0.930 . S
H2294 C2299 0.930 . S
H2295 C2274 0.930 . S
H2296 C2307 0.931 . S
N2297 Tb2268 2.617 . S
N2297 C2298 1.379 . S
N2297 C2301 1.334 . S
C2298 N2297 1.379 . S
C2298 C2300 1.416 . S
C2298 C2306 1.424 . S
C2299 H2294 0.930 . S
C2299 C2301 1.390 . S
C2299 C2302 1.339 . S
C2300 C2298 1.416 . S
C2300 C2302 1.416 . S
C2300 C2333 1.448 . S
C2301 H2286 0.930 . S
C2301 N2297 1.334 . S
C2301 C2299 1.390 . S
C2302 C2299 1.339 . S
C2302 C2300 1.416 . S
C2302 H2309 0.930 . S
N2303 Tb2268 2.572 . S
N2303 C2304 1.340 . S
N2303 C2306 1.361 . S
C2304 H2290 0.930 . S
C2304 N2303 1.340 . S
C2304 C2308 1.407 . S
C2305 C2306 1.413 . S
C2305 C2307 1.416 . S
C2305 C2334 1.427 . S
C2306 C2298 1.424 . S
C2306 N2303 1.361 . S
C2306 C2305 1.413 . S
C2307 H2296 0.931 . S
C2307 C2305 1.416 . S
C2307 C2308 1.332 . S
C2308 H2287 0.929 . S
C2308 C2304 1.407 . S
C2308 C2307 1.332 . S
H2309 C2302 0.930 . S
H2310 C2333 0.930 . S
H2311 C2334 0.929 . S
O2312 Tb2268 2.465 . S
O2312 C2332 1.264 . S
O2313 Tb2268 2.387 . S
O2313 C2324 1.264 . S
O2314 Tb2279 2.349 . S
O2314 C2324 1.243 . S
O2315 Tb2268 2.428 . S
O2315 C2332 1.256 . S
O2316 Tb2268 2.308 . S
O2316 C2331 1.266 . S
O2317 Tb2279 2.393 . S
O2317 C2331 1.248 . S
O2318 Tb2279 2.465 . S
O2318 C2343 1.264 . S
O2319 Tb2279 2.387 . S
O2319 C2335 1.264 . S
O2320 Tb2268 2.349 . S
O2320 C2335 1.243 . S
O2321 Tb2279 2.428 . S
O2321 C2343 1.256 . S
O2322 Tb2279 2.308 . S
O2322 C2342 1.266 . S
O2323 Tb2268 2.393 . S
O2323 C2342 1.248 . S
C2324 O2313 1.264 . S
C2324 O2314 1.243 . S
C2325 C2328 1.399 . S
C2325 C2330 1.383 . S
C2325 C2332 1.496 . S
C2326 C2327 1.399 . S
C2326 C2330 1.389 . S
C2327 C2326 1.399 . S
C2327 C2329 1.380 . S
C2327 H2344 0.929 . S
C2328 C2325 1.399 . S
C2328 C2329 1.392 . S
C2328 H2345 0.929 . S
C2329 C2327 1.380 . S
C2329 C2328 1.392 . S
C2329 H2346 0.929 . S
C2330 C2325 1.383 . S
C2330 C2326 1.389 . S
C2330 H2347 0.931 . S
C2331 O2316 1.266 . S
C2331 O2317 1.248 . S
C2332 Tb2268 2.802 . S
C2332 O2312 1.264 . S
C2332 O2315 1.256 . S
C2332 C2325 1.496 . S
C2333 C2300 1.448 . S
C2333 H2310 0.930 . S
C2333 C2334 1.328 . S
C2334 C2305 1.427 . S
C2334 H2311 0.929 . S
C2334 C2333 1.328 . S
C2335 O2319 1.264 . S
C2335 O2320 1.243 . S
C2336 C2339 1.399 . S
C2336 C2340 1.383 . S
C2336 C2343 1.496 . S
C2337 C2338 1.399 . S
C2337 C2340 1.389 . S
C2338 C2337 1.399 . S
C2338 C2341 1.380 . S
C2338 H2348 0.929 . S
C2339 C2336 1.399 . S
C2339 C2341 1.392 . S
C2339 H2349 0.929 . S
C2340 C2336 1.383 . S
C2340 C2337 1.389 . S
C2340 H2350 0.931 . S
C2341 C2338 1.380 . S
C2341 C2339 1.392 . S
C2341 H2351 0.929 . S
C2342 O2322 1.266 . S
C2342 O2323 1.248 . S
C2343 Tb2279 2.802 . S
C2343 O2318 1.264 . S
C2343 O2321 1.256 . S
C2343 C2336 1.496 . S
H2344 C2327 0.929 . S
H2345 C2328 0.929 . S
H2346 C2329 0.929 . S
H2347 C2330 0.931 . S
H2348 C2338 0.929 . S
H2349 C2339 0.929 . S
H2350 C2340 0.931 . S
H2351 C2341 0.929 . S
Tb2352 N2381 2.617 . S
Tb2352 N2387 2.572 . S
Tb2352 O2396 2.465 . S
Tb2352 O2397 2.387 . S
Tb2352 O2399 2.428 . S
Tb2352 O2400 2.308 . S
Tb2352 O2404 2.349 . S
Tb2352 O2407 2.393 . S
Tb2352 C2416 2.802 . S
C2353 N2354 1.379 . S
C2353 C2356 1.416 . S
C2353 C2360 1.424 . S
N2354 C2353 1.379 . S
N2354 C2357 1.334 . S
N2354 Tb2363 2.617 . S
C2355 C2357 1.390 . S
C2355 C2358 1.339 . S
C2355 H2375 0.930 . S
C2356 C2353 1.416 . S
C2356 C2358 1.416 . S
C2356 C2362 1.448 . S
C2357 N2354 1.334 . S
C2357 C2355 1.390 . S
C2357 H2368 0.930 . S
C2358 C2355 1.339 . S
C2358 C2356 1.416 . S
C2358 H2379 0.930 . S
C2359 C2360 1.413 . S
C2359 C2361 1.427 . S
C2359 C2365 1.416 . S
C2360 C2353 1.424 . S
C2360 C2359 1.413 . S
C2360 N2364 1.361 . S
C2361 C2359 1.427 . S
C2361 C2362 1.328 . S
C2361 H2376 0.929 . S
C2362 C2356 1.448 . S
C2362 C2361 1.328 . S
C2362 H2377 0.930 . S
Tb2363 N2354 2.617 . S
Tb2363 N2364 2.572 . S
Tb2363 O2398 2.349 . S
Tb2363 O2401 2.393 . S
Tb2363 O2402 2.465 . S
Tb2363 O2403 2.387 . S
Tb2363 O2405 2.428 . S
Tb2363 O2406 2.308 . S
Tb2363 C2427 2.802 . S
N2364 C2360 1.361 . S
N2364 Tb2363 2.572 . S
N2364 C2366 1.340 . S
C2365 C2359 1.416 . S
C2365 C2367 1.332 . S
C2365 H2373 0.931 . S
C2366 N2364 1.340 . S
C2366 C2367 1.407 . S
C2366 H2372 0.930 . S
C2367 C2365 1.332 . S
C2367 C2366 1.407 . S
C2367 H2369 0.929 . S
H2368 C2357 0.930 . S
H2369 C2367 0.929 . S
H2370 C2385 0.930 . S
H2371 C2392 0.929 . S
H2372 C2366 0.930 . S
H2373 C2365 0.931 . S
H2374 C2388 0.930 . S
H2375 C2355 0.930 . S
H2376 C2361 0.929 . S
H2377 C2362 0.930 . S
H2378 C2383 0.930 . S
H2379 C2358 0.930 . S
H2380 C2391 0.931 . S
N2381 Tb2352 2.617 . S
N2381 C2382 1.379 . S
N2381 C2385 1.334 . S
C2382 N2381 1.379 . S
C2382 C2384 1.416 . S
C2382 C2390 1.424 . S
C2383 H2378 0.930 . S
C2383 C2385 1.390 . S
C2383 C2386 1.339 . S
C2384 C2382 1.416 . S
C2384 C2386 1.416 . S
C2384 C2417 1.448 . S
C2385 H2370 0.930 . S
C2385 N2381 1.334 . S
C2385 C2383 1.390 . S
C2386 C2383 1.339 . S
C2386 C2384 1.416 . S
C2386 H2393 0.930 . S
N2387 Tb2352 2.572 . S
N2387 C2388 1.340 . S
N2387 C2390 1.361 . S
C2388 H2374 0.930 . S
C2388 N2387 1.340 . S
C2388 C2392 1.407 . S
C2389 C2390 1.413 . S
C2389 C2391 1.416 . S
C2389 C2418 1.427 . S
C2390 C2382 1.424 . S
C2390 N2387 1.361 . S
C2390 C2389 1.413 . S
C2391 H2380 0.931 . S
C2391 C2389 1.416 . S
C2391 C2392 1.332 . S
C2392 H2371 0.929 . S
C2392 C2388 1.407 . S
C2392 C2391 1.332 . S
H2393 C2386 0.930 . S
H2394 C2417 0.930 . S
H2395 C2418 0.929 . S
O2396 Tb2352 2.465 . S
O2396 C2416 1.264 . S
O2397 Tb2352 2.387 . S
O2397 C2408 1.264 . S
O2398 Tb2363 2.349 . S
O2398 C2408 1.243 . S
O2399 Tb2352 2.428 . S
O2399 C2416 1.256 . S
O2400 Tb2352 2.308 . S
O2400 C2415 1.266 . S
O2401 Tb2363 2.393 . S
O2401 C2415 1.248 . S
O2402 Tb2363 2.465 . S
O2402 C2427 1.264 . S
O2403 Tb2363 2.387 . S
O2403 C2419 1.264 . S
O2404 Tb2352 2.349 . S
O2404 C2419 1.243 . S
O2405 Tb2363 2.428 . S
O2405 C2427 1.256 . S
O2406 Tb2363 2.308 . S
O2406 C2426 1.266 . S
O2407 Tb2352 2.393 . S
O2407 C2426 1.248 . S
C2408 O2397 1.264 . S
C2408 O2398 1.243 . S
C2409 C2412 1.399 . S
C2409 C2414 1.383 . S
C2409 C2416 1.496 . S
C2410 C2411 1.399 . S
C2410 C2414 1.389 . S
C2411 C2410 1.399 . S
C2411 C2413 1.380 . S
C2411 H2428 0.929 . S
C2412 C2409 1.399 . S
C2412 C2413 1.392 . S
C2412 H2429 0.929 . S
C2413 C2411 1.380 . S
C2413 C2412 1.392 . S
C2413 H2430 0.929 . S
C2414 C2409 1.383 . S
C2414 C2410 1.389 . S
C2414 H2431 0.931 . S
C2415 O2400 1.266 . S
C2415 O2401 1.248 . S
C2416 Tb2352 2.802 . S
C2416 O2396 1.264 . S
C2416 O2399 1.256 . S
C2416 C2409 1.496 . S
C2417 C2384 1.448 . S
C2417 H2394 0.930 . S
C2417 C2418 1.328 . S
C2418 C2389 1.427 . S
C2418 H2395 0.929 . S
C2418 C2417 1.328 . S
C2419 O2403 1.264 . S
C2419 O2404 1.243 . S
C2420 C2423 1.399 . S
C2420 C2424 1.383 . S
C2420 C2427 1.496 . S
C2421 C2422 1.399 . S
C2421 C2424 1.389 . S
C2422 C2421 1.399 . S
C2422 C2425 1.380 . S
C2422 H2432 0.929 . S
C2423 C2420 1.399 . S
C2423 C2425 1.392 . S
C2423 H2433 0.929 . S
C2424 C2420 1.383 . S
C2424 C2421 1.389 . S
C2424 H2434 0.931 . S
C2425 C2422 1.380 . S
C2425 C2423 1.392 . S
C2425 H2435 0.929 . S
C2426 O2406 1.266 . S
C2426 O2407 1.248 . S
C2427 Tb2363 2.802 . S
C2427 O2402 1.264 . S
C2427 O2405 1.256 . S
C2427 C2420 1.496 . S
H2428 C2411 0.929 . S
H2429 C2412 0.929 . S
H2430 C2413 0.929 . S
H2431 C2414 0.931 . S
H2432 C2422 0.929 . S
H2433 C2423 0.929 . S
H2434 C2424 0.931 . S
H2435 C2425 0.929 . S
Tb2436 N2465 2.617 . S
Tb2436 N2471 2.572 . S
Tb2436 O2480 2.465 . S
Tb2436 O2481 2.387 . S
Tb2436 O2483 2.428 . S
Tb2436 O2484 2.308 . S
Tb2436 O2488 2.349 . S
Tb2436 O2491 2.393 . S
Tb2436 C2500 2.802 . S
C2437 N2438 1.379 . S
C2437 C2440 1.416 . S
C2437 C2444 1.424 . S
N2438 C2437 1.379 . S
N2438 C2441 1.334 . S
N2438 Tb2447 2.617 . S
C2439 C2441 1.390 . S
C2439 C2442 1.339 . S
C2439 H2459 0.930 . S
C2440 C2437 1.416 . S
C2440 C2442 1.416 . S
C2440 C2446 1.448 . S
C2441 N2438 1.334 . S
C2441 C2439 1.390 . S
C2441 H2452 0.930 . S
C2442 C2439 1.339 . S
C2442 C2440 1.416 . S
C2442 H2463 0.930 . S
C2443 C2444 1.413 . S
C2443 C2445 1.427 . S
C2443 C2449 1.416 . S
C2444 C2437 1.424 . S
C2444 C2443 1.413 . S
C2444 N2448 1.361 . S
C2445 C2443 1.427 . S
C2445 C2446 1.328 . S
C2445 H2460 0.929 . S
C2446 C2440 1.448 . S
C2446 C2445 1.328 . S
C2446 H2461 0.930 . S
Tb2447 N2438 2.617 . S
Tb2447 N2448 2.572 . S
Tb2447 O2482 2.349 . S
Tb2447 O2485 2.393 . S
Tb2447 O2486 2.465 . S
Tb2447 O2487 2.387 . S
Tb2447 O2489 2.428 . S
Tb2447 O2490 2.308 . S
Tb2447 C2511 2.802 . S
N2448 C2444 1.361 . S
N2448 Tb2447 2.572 . S
N2448 C2450 1.340 . S
C2449 C2443 1.416 . S
C2449 C2451 1.332 . S
C2449 H2457 0.931 . S
C2450 N2448 1.340 . S
C2450 C2451 1.407 . S
C2450 H2456 0.930 . S
C2451 C2449 1.332 . S
C2451 C2450 1.407 . S
C2451 H2453 0.929 . S
H2452 C2441 0.930 . S
H2453 C2451 0.929 . S
H2454 C2469 0.930 . S
H2455 C2476 0.929 . S
H2456 C2450 0.930 . S
H2457 C2449 0.931 . S
H2458 C2472 0.930 . S
H2459 C2439 0.930 . S
H2460 C2445 0.929 . S
H2461 C2446 0.930 . S
H2462 C2467 0.930 . S
H2463 C2442 0.930 . S
H2464 C2475 0.931 . S
N2465 Tb2436 2.617 . S
N2465 C2466 1.379 . S
N2465 C2469 1.334 . S
C2466 N2465 1.379 . S
C2466 C2468 1.416 . S
C2466 C2474 1.424 . S
C2467 H2462 0.930 . S
C2467 C2469 1.390 . S
C2467 C2470 1.339 . S
C2468 C2466 1.416 . S
C2468 C2470 1.416 . S
C2468 C2501 1.448 . S
C2469 H2454 0.930 . S
C2469 N2465 1.334 . S
C2469 C2467 1.390 . S
C2470 C2467 1.339 . S
C2470 C2468 1.416 . S
C2470 H2477 0.930 . S
N2471 Tb2436 2.572 . S
N2471 C2472 1.340 . S
N2471 C2474 1.361 . S
C2472 H2458 0.930 . S
C2472 N2471 1.340 . S
C2472 C2476 1.407 . S
C2473 C2474 1.413 . S
C2473 C2475 1.416 . S
C2473 C2502 1.427 . S
C2474 C2466 1.424 . S
C2474 N2471 1.361 . S
C2474 C2473 1.413 . S
C2475 H2464 0.931 . S
C2475 C2473 1.416 . S
C2475 C2476 1.332 . S
C2476 H2455 0.929 . S
C2476 C2472 1.407 . S
C2476 C2475 1.332 . S
H2477 C2470 0.930 . S
H2478 C2501 0.930 . S
H2479 C2502 0.929 . S
O2480 Tb2436 2.465 . S
O2480 C2500 1.264 . S
O2481 Tb2436 2.387 . S
O2481 C2492 1.264 . S
O2482 Tb2447 2.349 . S
O2482 C2492 1.243 . S
O2483 Tb2436 2.428 . S
O2483 C2500 1.256 . S
O2484 Tb2436 2.308 . S
O2484 C2499 1.266 . S
O2485 Tb2447 2.393 . S
O2485 C2499 1.248 . S
O2486 Tb2447 2.465 . S
O2486 C2511 1.264 . S
O2487 Tb2447 2.387 . S
O2487 C2503 1.264 . S
O2488 Tb2436 2.349 . S
O2488 C2503 1.243 . S
O2489 Tb2447 2.428 . S
O2489 C2511 1.256 . S
O2490 Tb2447 2.308 . S
O2490 C2510 1.266 . S
O2491 Tb2436 2.393 . S
O2491 C2510 1.248 . S
C2492 O2481 1.264 . S
C2492 O2482 1.243 . S
C2493 C2496 1.399 . S
C2493 C2498 1.383 . S
C2493 C2500 1.496 . S
C2494 C2495 1.399 . S
C2494 C2498 1.389 . S
C2495 C2494 1.399 . S
C2495 C2497 1.380 . S
C2495 H2512 0.929 . S
C2496 C2493 1.399 . S
C2496 C2497 1.392 . S
C2496 H2513 0.929 . S
C2497 C2495 1.380 . S
C2497 C2496 1.392 . S
C2497 H2514 0.929 . S
C2498 C2493 1.383 . S
C2498 C2494 1.389 . S
C2498 H2515 0.931 . S
C2499 O2484 1.266 . S
C2499 O2485 1.248 . S
C2500 Tb2436 2.802 . S
C2500 O2480 1.264 . S
C2500 O2483 1.256 . S
C2500 C2493 1.496 . S
C2501 C2468 1.448 . S
C2501 H2478 0.930 . S
C2501 C2502 1.328 . S
C2502 C2473 1.427 . S
C2502 H2479 0.929 . S
C2502 C2501 1.328 . S
C2503 O2487 1.264 . S
C2503 O2488 1.243 . S
C2504 C2507 1.399 . S
C2504 C2508 1.383 . S
C2504 C2511 1.496 . S
C2505 C2506 1.399 . S
C2505 C2508 1.389 . S
C2506 C2505 1.399 . S
C2506 C2509 1.380 . S
C2506 H2516 0.929 . S
C2507 C2504 1.399 . S
C2507 C2509 1.392 . S
C2507 H2517 0.929 . S
C2508 C2504 1.383 . S
C2508 C2505 1.389 . S
C2508 H2518 0.931 . S
C2509 C2506 1.380 . S
C2509 C2507 1.392 . S
C2509 H2519 0.929 . S
C2510 O2490 1.266 . S
C2510 O2491 1.248 . S
C2511 Tb2447 2.802 . S
C2511 O2486 1.264 . S
C2511 O2489 1.256 . S
C2511 C2504 1.496 . S
H2512 C2495 0.929 . S
H2513 C2496 0.929 . S
H2514 C2497 0.929 . S
H2515 C2498 0.931 . S
H2516 C2506 0.929 . S
H2517 C2507 0.929 . S
H2518 C2508 0.931 . S
H2519 C2509 0.929 . S
Tb2520 N2549 2.617 . S
Tb2520 N2555 2.572 . S
Tb2520 O2564 2.465 . S
Tb2520 O2565 2.387 . S
Tb2520 O2567 2.428 . S
Tb2520 O2568 2.308 . S
Tb2520 O2572 2.349 . S
Tb2520 O2575 2.393 . S
Tb2520 C2584 2.802 . S
C2521 N2522 1.379 . S
C2521 C2524 1.416 . S
C2521 C2528 1.424 . S
N2522 C2521 1.379 . S
N2522 C2525 1.334 . S
N2522 Tb2531 2.617 . S
C2523 C2525 1.390 . S
C2523 C2526 1.339 . S
C2523 H2543 0.930 . S
C2524 C2521 1.416 . S
C2524 C2526 1.416 . S
C2524 C2530 1.448 . S
C2525 N2522 1.334 . S
C2525 C2523 1.390 . S
C2525 H2536 0.930 . S
C2526 C2523 1.339 . S
C2526 C2524 1.416 . S
C2526 H2547 0.930 . S
C2527 C2528 1.413 . S
C2527 C2529 1.427 . S
C2527 C2533 1.416 . S
C2528 C2521 1.424 . S
C2528 C2527 1.413 . S
C2528 N2532 1.361 . S
C2529 C2527 1.427 . S
C2529 C2530 1.328 . S
C2529 H2544 0.929 . S
C2530 C2524 1.448 . S
C2530 C2529 1.328 . S
C2530 H2545 0.930 . S
Tb2531 N2522 2.617 . S
Tb2531 N2532 2.572 . S
Tb2531 O2566 2.349 . S
Tb2531 O2569 2.393 . S
Tb2531 O2570 2.465 . S
Tb2531 O2571 2.387 . S
Tb2531 O2573 2.428 . S
Tb2531 O2574 2.308 . S
Tb2531 C2595 2.802 . S
N2532 C2528 1.361 . S
N2532 Tb2531 2.572 . S
N2532 C2534 1.340 . S
C2533 C2527 1.416 . S
C2533 C2535 1.332 . S
C2533 H2541 0.931 . S
C2534 N2532 1.340 . S
C2534 C2535 1.407 . S
C2534 H2540 0.930 . S
C2535 C2533 1.332 . S
C2535 C2534 1.407 . S
C2535 H2537 0.929 . S
H2536 C2525 0.930 . S
H2537 C2535 0.929 . S
H2538 C2553 0.930 . S
H2539 C2560 0.929 . S
H2540 C2534 0.930 . S
H2541 C2533 0.931 . S
H2542 C2556 0.930 . S
H2543 C2523 0.930 . S
H2544 C2529 0.929 . S
H2545 C2530 0.930 . S
H2546 C2551 0.930 . S
H2547 C2526 0.930 . S
H2548 C2559 0.931 . S
N2549 Tb2520 2.617 . S
N2549 C2550 1.379 . S
N2549 C2553 1.334 . S
C2550 N2549 1.379 . S
C2550 C2552 1.416 . S
C2550 C2558 1.424 . S
C2551 H2546 0.930 . S
C2551 C2553 1.390 . S
C2551 C2554 1.339 . S
C2552 C2550 1.416 . S
C2552 C2554 1.416 . S
C2552 C2585 1.448 . S
C2553 H2538 0.930 . S
C2553 N2549 1.334 . S
C2553 C2551 1.390 . S
C2554 C2551 1.339 . S
C2554 C2552 1.416 . S
C2554 H2561 0.930 . S
N2555 Tb2520 2.572 . S
N2555 C2556 1.340 . S
N2555 C2558 1.361 . S
C2556 H2542 0.930 . S
C2556 N2555 1.340 . S
C2556 C2560 1.407 . S
C2557 C2558 1.413 . S
C2557 C2559 1.416 . S
C2557 C2586 1.427 . S
C2558 C2550 1.424 . S
C2558 N2555 1.361 . S
C2558 C2557 1.413 . S
C2559 H2548 0.931 . S
C2559 C2557 1.416 . S
C2559 C2560 1.332 . S
C2560 H2539 0.929 . S
C2560 C2556 1.407 . S
C2560 C2559 1.332 . S
H2561 C2554 0.930 . S
H2562 C2585 0.930 . S
H2563 C2586 0.929 . S
O2564 Tb2520 2.465 . S
O2564 C2584 1.264 . S
O2565 Tb2520 2.387 . S
O2565 C2576 1.264 . S
O2566 Tb2531 2.349 . S
O2566 C2576 1.243 . S
O2567 Tb2520 2.428 . S
O2567 C2584 1.256 . S
O2568 Tb2520 2.308 . S
O2568 C2583 1.266 . S
O2569 Tb2531 2.393 . S
O2569 C2583 1.248 . S
O2570 Tb2531 2.465 . S
O2570 C2595 1.264 . S
O2571 Tb2531 2.387 . S
O2571 C2587 1.264 . S
O2572 Tb2520 2.349 . S
O2572 C2587 1.243 . S
O2573 Tb2531 2.428 . S
O2573 C2595 1.256 . S
O2574 Tb2531 2.308 . S
O2574 C2594 1.266 . S
O2575 Tb2520 2.393 . S
O2575 C2594 1.248 . S
C2576 O2565 1.264 . S
C2576 O2566 1.243 . S
C2577 C2580 1.399 . S
C2577 C2582 1.383 . S
C2577 C2584 1.496 . S
C2578 C2579 1.399 . S
C2578 C2582 1.389 . S
C2579 C2578 1.399 . S
C2579 C2581 1.380 . S
C2579 H2596 0.929 . S
C2580 C2577 1.399 . S
C2580 C2581 1.392 . S
C2580 H2597 0.929 . S
C2581 C2579 1.380 . S
C2581 C2580 1.392 . S
C2581 H2598 0.929 . S
C2582 C2577 1.383 . S
C2582 C2578 1.389 . S
C2582 H2599 0.931 . S
C2583 O2568 1.266 . S
C2583 O2569 1.248 . S
C2584 Tb2520 2.802 . S
C2584 O2564 1.264 . S
C2584 O2567 1.256 . S
C2584 C2577 1.496 . S
C2585 C2552 1.448 . S
C2585 H2562 0.930 . S
C2585 C2586 1.328 . S
C2586 C2557 1.427 . S
C2586 H2563 0.929 . S
C2586 C2585 1.328 . S
C2587 O2571 1.264 . S
C2587 O2572 1.243 . S
C2588 C2591 1.399 . S
C2588 C2592 1.383 . S
C2588 C2595 1.496 . S
C2589 C2590 1.399 . S
C2589 C2592 1.389 . S
C2590 C2589 1.399 . S
C2590 C2593 1.380 . S
C2590 H2600 0.929 . S
C2591 C2588 1.399 . S
C2591 C2593 1.392 . S
C2591 H2601 0.929 . S
C2592 C2588 1.383 . S
C2592 C2589 1.389 . S
C2592 H2602 0.931 . S
C2593 C2590 1.380 . S
C2593 C2591 1.392 . S
C2593 H2603 0.929 . S
C2594 O2574 1.266 . S
C2594 O2575 1.248 . S
C2595 Tb2531 2.802 . S
C2595 O2570 1.264 . S
C2595 O2573 1.256 . S
C2595 C2588 1.496 . S
H2596 C2579 0.929 . S
H2597 C2580 0.929 . S
H2598 C2581 0.929 . S
H2599 C2582 0.931 . S
H2600 C2590 0.929 . S
H2601 C2591 0.929 . S
H2602 C2592 0.931 . S
H2603 C2593 0.929 . S
Tb2604 N2633 2.617 . S
Tb2604 N2639 2.572 . S
Tb2604 O2648 2.465 . S
Tb2604 O2649 2.387 . S
Tb2604 O2651 2.428 . S
Tb2604 O2652 2.308 . S
Tb2604 O2656 2.349 . S
Tb2604 O2659 2.393 . S
Tb2604 C2668 2.802 . S
C2605 N2606 1.379 . S
C2605 C2608 1.416 . S
C2605 C2612 1.424 . S
N2606 C2605 1.379 . S
N2606 C2609 1.334 . S
N2606 Tb2615 2.617 . S
C2607 C2609 1.390 . S
C2607 C2610 1.339 . S
C2607 H2627 0.930 . S
C2608 C2605 1.416 . S
C2608 C2610 1.416 . S
C2608 C2614 1.448 . S
C2609 N2606 1.334 . S
C2609 C2607 1.390 . S
C2609 H2620 0.930 . S
C2610 C2607 1.339 . S
C2610 C2608 1.416 . S
C2610 H2631 0.930 . S
C2611 C2612 1.413 . S
C2611 C2613 1.427 . S
C2611 C2617 1.416 . S
C2612 C2605 1.424 . S
C2612 C2611 1.413 . S
C2612 N2616 1.361 . S
C2613 C2611 1.427 . S
C2613 C2614 1.328 . S
C2613 H2628 0.929 . S
C2614 C2608 1.448 . S
C2614 C2613 1.328 . S
C2614 H2629 0.930 . S
Tb2615 N2606 2.617 . S
Tb2615 N2616 2.572 . S
Tb2615 O2650 2.349 . S
Tb2615 O2653 2.393 . S
Tb2615 O2654 2.465 . S
Tb2615 O2655 2.387 . S
Tb2615 O2657 2.428 . S
Tb2615 O2658 2.308 . S
Tb2615 C2679 2.802 . S
N2616 C2612 1.361 . S
N2616 Tb2615 2.572 . S
N2616 C2618 1.340 . S
C2617 C2611 1.416 . S
C2617 C2619 1.332 . S
C2617 H2625 0.931 . S
C2618 N2616 1.340 . S
C2618 C2619 1.407 . S
C2618 H2624 0.930 . S
C2619 C2617 1.332 . S
C2619 C2618 1.407 . S
C2619 H2621 0.929 . S
H2620 C2609 0.930 . S
H2621 C2619 0.929 . S
H2622 C2637 0.930 . S
H2623 C2644 0.929 . S
H2624 C2618 0.930 . S
H2625 C2617 0.931 . S
H2626 C2640 0.930 . S
H2627 C2607 0.930 . S
H2628 C2613 0.929 . S
H2629 C2614 0.930 . S
H2630 C2635 0.930 . S
H2631 C2610 0.930 . S
H2632 C2643 0.931 . S
N2633 Tb2604 2.617 . S
N2633 C2634 1.379 . S
N2633 C2637 1.334 . S
C2634 N2633 1.379 . S
C2634 C2636 1.416 . S
C2634 C2642 1.424 . S
C2635 H2630 0.930 . S
C2635 C2637 1.390 . S
C2635 C2638 1.339 . S
C2636 C2634 1.416 . S
C2636 C2638 1.416 . S
C2636 C2669 1.448 . S
C2637 H2622 0.930 . S
C2637 N2633 1.334 . S
C2637 C2635 1.390 . S
C2638 C2635 1.339 . S
C2638 C2636 1.416 . S
C2638 H2645 0.930 . S
N2639 Tb2604 2.572 . S
N2639 C2640 1.340 . S
N2639 C2642 1.361 . S
C2640 H2626 0.930 . S
C2640 N2639 1.340 . S
C2640 C2644 1.407 . S
C2641 C2642 1.413 . S
C2641 C2643 1.416 . S
C2641 C2670 1.427 . S
C2642 C2634 1.424 . S
C2642 N2639 1.361 . S
C2642 C2641 1.413 . S
C2643 H2632 0.931 . S
C2643 C2641 1.416 . S
C2643 C2644 1.332 . S
C2644 H2623 0.929 . S
C2644 C2640 1.407 . S
C2644 C2643 1.332 . S
H2645 C2638 0.930 . S
H2646 C2669 0.930 . S
H2647 C2670 0.929 . S
O2648 Tb2604 2.465 . S
O2648 C2668 1.264 . S
O2649 Tb2604 2.387 . S
O2649 C2660 1.264 . S
O2650 Tb2615 2.349 . S
O2650 C2660 1.243 . S
O2651 Tb2604 2.428 . S
O2651 C2668 1.256 . S
O2652 Tb2604 2.308 . S
O2652 C2667 1.266 . S
O2653 Tb2615 2.393 . S
O2653 C2667 1.248 . S
O2654 Tb2615 2.465 . S
O2654 C2679 1.264 . S
O2655 Tb2615 2.387 . S
O2655 C2671 1.264 . S
O2656 Tb2604 2.349 . S
O2656 C2671 1.243 . S
O2657 Tb2615 2.428 . S
O2657 C2679 1.256 . S
O2658 Tb2615 2.308 . S
O2658 C2678 1.266 . S
O2659 Tb2604 2.393 . S
O2659 C2678 1.248 . S
C2660 O2649 1.264 . S
C2660 O2650 1.243 . S
C2661 C2664 1.399 . S
C2661 C2666 1.383 . S
C2661 C2668 1.496 . S
C2662 C2663 1.399 . S
C2662 C2666 1.389 . S
C2663 C2662 1.399 . S
C2663 C2665 1.380 . S
C2663 H2680 0.929 . S
C2664 C2661 1.399 . S
C2664 C2665 1.392 . S
C2664 H2681 0.929 . S
C2665 C2663 1.380 . S
C2665 C2664 1.392 . S
C2665 H2682 0.929 . S
C2666 C2661 1.383 . S
C2666 C2662 1.389 . S
C2666 H2683 0.931 . S
C2667 O2652 1.266 . S
C2667 O2653 1.248 . S
C2668 Tb2604 2.802 . S
C2668 O2648 1.264 . S
C2668 O2651 1.256 . S
C2668 C2661 1.496 . S
C2669 C2636 1.448 . S
C2669 H2646 0.930 . S
C2669 C2670 1.328 . S
C2670 C2641 1.427 . S
C2670 H2647 0.929 . S
C2670 C2669 1.328 . S
C2671 O2655 1.264 . S
C2671 O2656 1.243 . S
C2672 C2675 1.399 . S
C2672 C2676 1.383 . S
C2672 C2679 1.496 . S
C2673 C2674 1.399 . S
C2673 C2676 1.389 . S
C2674 C2673 1.399 . S
C2674 C2677 1.380 . S
C2674 H2684 0.929 . S
C2675 C2672 1.399 . S
C2675 C2677 1.392 . S
C2675 H2685 0.929 . S
C2676 C2672 1.383 . S
C2676 C2673 1.389 . S
C2676 H2686 0.931 . S
C2677 C2674 1.380 . S
C2677 C2675 1.392 . S
C2677 H2687 0.929 . S
C2678 O2658 1.266 . S
C2678 O2659 1.248 . S
C2679 Tb2615 2.802 . S
C2679 O2654 1.264 . S
C2679 O2657 1.256 . S
C2679 C2672 1.496 . S
H2680 C2663 0.929 . S
H2681 C2664 0.929 . S
H2682 C2665 0.929 . S
H2683 C2666 0.931 . S
H2684 C2674 0.929 . S
H2685 C2675 0.929 . S
H2686 C2676 0.931 . S
H2687 C2677 0.929 . S
Tb2688 N2717 2.617 . S
Tb2688 N2723 2.572 . S
Tb2688 O2732 2.465 . S
Tb2688 O2733 2.387 . S
Tb2688 O2735 2.428 . S
Tb2688 O2736 2.308 . S
Tb2688 O2740 2.349 . S
Tb2688 O2743 2.393 . S
Tb2688 C2752 2.802 . S
C2689 N2690 1.379 . S
C2689 C2692 1.416 . S
C2689 C2696 1.424 . S
N2690 C2689 1.379 . S
N2690 C2693 1.334 . S
N2690 Tb2699 2.617 . S
C2691 C2693 1.390 . S
C2691 C2694 1.339 . S
C2691 H2711 0.930 . S
C2692 C2689 1.416 . S
C2692 C2694 1.416 . S
C2692 C2698 1.448 . S
C2693 N2690 1.334 . S
C2693 C2691 1.390 . S
C2693 H2704 0.930 . S
C2694 C2691 1.339 . S
C2694 C2692 1.416 . S
C2694 H2715 0.930 . S
C2695 C2696 1.413 . S
C2695 C2697 1.427 . S
C2695 C2701 1.416 . S
C2696 C2689 1.424 . S
C2696 C2695 1.413 . S
C2696 N2700 1.361 . S
C2697 C2695 1.427 . S
C2697 C2698 1.328 . S
C2697 H2712 0.929 . S
C2698 C2692 1.448 . S
C2698 C2697 1.328 . S
C2698 H2713 0.930 . S
Tb2699 N2690 2.617 . S
Tb2699 N2700 2.572 . S
Tb2699 O2734 2.349 . S
Tb2699 O2737 2.393 . S
Tb2699 O2738 2.465 . S
Tb2699 O2739 2.387 . S
Tb2699 O2741 2.428 . S
Tb2699 O2742 2.308 . S
Tb2699 C2763 2.802 . S
N2700 C2696 1.361 . S
N2700 Tb2699 2.572 . S
N2700 C2702 1.340 . S
C2701 C2695 1.416 . S
C2701 C2703 1.332 . S
C2701 H2709 0.931 . S
C2702 N2700 1.340 . S
C2702 C2703 1.407 . S
C2702 H2708 0.930 . S
C2703 C2701 1.332 . S
C2703 C2702 1.407 . S
C2703 H2705 0.929 . S
H2704 C2693 0.930 . S
H2705 C2703 0.929 . S
H2706 C2721 0.930 . S
H2707 C2728 0.929 . S
H2708 C2702 0.930 . S
H2709 C2701 0.931 . S
H2710 C2724 0.930 . S
H2711 C2691 0.930 . S
H2712 C2697 0.929 . S
H2713 C2698 0.930 . S
H2714 C2719 0.930 1_455 S
H2715 C2694 0.930 . S
H2716 C2727 0.931 . S
N2717 Tb2688 2.617 . S
N2717 C2718 1.379 . S
N2717 C2721 1.334 . S
C2718 N2717 1.379 . S
C2718 C2720 1.416 . S
C2718 C2726 1.424 . S
C2719 H2714 0.930 1_655 S
C2719 C2721 1.390 . S
C2719 C2722 1.339 . S
C2720 C2718 1.416 . S
C2720 C2722 1.416 . S
C2720 C2753 1.448 . S
C2721 H2706 0.930 . S
C2721 N2717 1.334 . S
C2721 C2719 1.390 . S
C2722 C2719 1.339 . S
C2722 C2720 1.416 . S
C2722 H2729 0.930 1_655 S
N2723 Tb2688 2.572 . S
N2723 C2724 1.340 . S
N2723 C2726 1.361 . S
C2724 H2710 0.930 . S
C2724 N2723 1.340 . S
C2724 C2728 1.407 . S
C2725 C2726 1.413 . S
C2725 C2727 1.416 . S
C2725 C2754 1.427 . S
C2726 C2718 1.424 . S
C2726 N2723 1.361 . S
C2726 C2725 1.413 . S
C2727 H2716 0.931 . S
C2727 C2725 1.416 . S
C2727 C2728 1.332 . S
C2728 H2707 0.929 . S
C2728 C2724 1.407 . S
C2728 C2727 1.332 . S
H2729 C2722 0.930 1_455 S
H2730 C2753 0.930 . S
H2731 C2754 0.929 . S
O2732 Tb2688 2.465 . S
O2732 C2752 1.264 . S
O2733 Tb2688 2.387 . S
O2733 C2744 1.264 . S
O2734 Tb2699 2.349 . S
O2734 C2744 1.243 . S
O2735 Tb2688 2.428 . S
O2735 C2752 1.256 . S
O2736 Tb2688 2.308 . S
O2736 C2751 1.266 . S
O2737 Tb2699 2.393 . S
O2737 C2751 1.248 . S
O2738 Tb2699 2.465 . S
O2738 C2763 1.264 . S
O2739 Tb2699 2.387 . S
O2739 C2755 1.264 . S
O2740 Tb2688 2.349 . S
O2740 C2755 1.243 . S
O2741 Tb2699 2.428 . S
O2741 C2763 1.256 . S
O2742 Tb2699 2.308 . S
O2742 C2762 1.266 . S
O2743 Tb2688 2.393 . S
O2743 C2762 1.248 . S
C2744 O2733 1.264 . S
C2744 O2734 1.243 . S
C2745 C2748 1.399 . S
C2745 C2750 1.383 . S
C2745 C2752 1.496 . S
C2746 C2747 1.399 . S
C2746 C2750 1.389 . S
C2747 C2746 1.399 . S
C2747 C2749 1.380 . S
C2747 H2764 0.929 . S
C2748 C2745 1.399 . S
C2748 C2749 1.392 . S
C2748 H2765 0.929 . S
C2749 C2747 1.380 . S
C2749 C2748 1.392 . S
C2749 H2766 0.929 . S
C2750 C2745 1.383 . S
C2750 C2746 1.389 . S
C2750 H2767 0.931 . S
C2751 O2736 1.266 . S
C2751 O2737 1.248 . S
C2752 Tb2688 2.802 . S
C2752 O2732 1.264 . S
C2752 O2735 1.256 . S
C2752 C2745 1.496 . S
C2753 C2720 1.448 . S
C2753 H2730 0.930 . S
C2753 C2754 1.328 . S
C2754 C2725 1.427 . S
C2754 H2731 0.929 . S
C2754 C2753 1.328 . S
C2755 O2739 1.264 . S
C2755 O2740 1.243 . S
C2756 C2759 1.399 . S
C2756 C2760 1.383 . S
C2756 C2763 1.496 . S
C2757 C2758 1.399 . S
C2757 C2760 1.389 . S
C2758 C2757 1.399 . S
C2758 C2761 1.380 . S
C2758 H2768 0.929 . S
C2759 C2756 1.399 . S
C2759 C2761 1.392 . S
C2759 H2769 0.929 . S
C2760 C2756 1.383 . S
C2760 C2757 1.389 . S
C2760 H2770 0.931 . S
C2761 C2758 1.380 . S
C2761 C2759 1.392 . S
C2761 H2771 0.929 . S
C2762 O2742 1.266 . S
C2762 O2743 1.248 . S
C2763 Tb2699 2.802 . S
C2763 O2738 1.264 . S
C2763 O2741 1.256 . S
C2763 C2756 1.496 . S
H2764 C2747 0.929 . S
H2765 C2748 0.929 . S
H2766 C2749 0.929 . S
H2767 C2750 0.931 . S
H2768 C2758 0.929 . S
H2769 C2759 0.929 . S
H2770 C2760 0.931 . S
H2771 C2761 0.929 . S
Tb2772 N2801 2.617 . S
Tb2772 N2807 2.572 . S
Tb2772 O2816 2.465 . S
Tb2772 O2817 2.387 . S
Tb2772 O2819 2.428 . S
Tb2772 O2820 2.308 . S
Tb2772 O2824 2.349 . S
Tb2772 O2827 2.393 . S
Tb2772 C2836 2.802 . S
C2773 N2774 1.379 . S
C2773 C2776 1.416 . S
C2773 C2780 1.424 . S
N2774 C2773 1.379 . S
N2774 C2777 1.334 . S
N2774 Tb2783 2.617 . S
C2775 C2777 1.390 . S
C2775 C2778 1.339 . S
C2775 H2795 0.930 . S
C2776 C2773 1.416 . S
C2776 C2778 1.416 . S
C2776 C2782 1.448 . S
C2777 N2774 1.334 . S
C2777 C2775 1.390 . S
C2777 H2788 0.930 . S
C2778 C2775 1.339 . S
C2778 C2776 1.416 . S
C2778 H2799 0.930 . S
C2779 C2780 1.413 . S
C2779 C2781 1.427 . S
C2779 C2785 1.416 . S
C2780 C2773 1.424 . S
C2780 C2779 1.413 . S
C2780 N2784 1.361 . S
C2781 C2779 1.427 . S
C2781 C2782 1.328 . S
C2781 H2796 0.929 . S
C2782 C2776 1.448 . S
C2782 C2781 1.328 . S
C2782 H2797 0.930 . S
Tb2783 N2774 2.617 . S
Tb2783 N2784 2.572 . S
Tb2783 O2818 2.349 . S
Tb2783 O2821 2.393 . S
Tb2783 O2822 2.465 . S
Tb2783 O2823 2.387 . S
Tb2783 O2825 2.428 . S
Tb2783 O2826 2.308 . S
Tb2783 C2847 2.802 . S
N2784 C2780 1.361 . S
N2784 Tb2783 2.572 . S
N2784 C2786 1.340 . S
C2785 C2779 1.416 . S
C2785 C2787 1.332 . S
C2785 H2793 0.931 . S
C2786 N2784 1.340 . S
C2786 C2787 1.407 . S
C2786 H2792 0.930 . S
C2787 C2785 1.332 . S
C2787 C2786 1.407 . S
C2787 H2789 0.929 . S
H2788 C2777 0.930 . S
H2789 C2787 0.929 . S
H2790 C2805 0.930 . S
H2791 C2812 0.929 . S
H2792 C2786 0.930 . S
H2793 C2785 0.931 . S
H2794 C2808 0.930 . S
H2795 C2775 0.930 . S
H2796 C2781 0.929 . S
H2797 C2782 0.930 . S
H2798 C2803 0.930 . S
H2799 C2778 0.930 . S
H2800 C2811 0.931 . S
N2801 Tb2772 2.617 . S
N2801 C2802 1.379 . S
N2801 C2805 1.334 . S
C2802 N2801 1.379 . S
C2802 C2804 1.416 . S
C2802 C2810 1.424 . S
C2803 H2798 0.930 . S
C2803 C2805 1.390 . S
C2803 C2806 1.339 . S
C2804 C2802 1.416 . S
C2804 C2806 1.416 . S
C2804 C2837 1.448 . S
C2805 H2790 0.930 . S
C2805 N2801 1.334 . S
C2805 C2803 1.390 . S
C2806 C2803 1.339 . S
C2806 C2804 1.416 . S
C2806 H2813 0.930 . S
N2807 Tb2772 2.572 . S
N2807 C2808 1.340 . S
N2807 C2810 1.361 . S
C2808 H2794 0.930 . S
C2808 N2807 1.340 . S
C2808 C2812 1.407 . S
C2809 C2810 1.413 . S
C2809 C2811 1.416 . S
C2809 C2838 1.427 . S
C2810 C2802 1.424 . S
C2810 N2807 1.361 . S
C2810 C2809 1.413 . S
C2811 H2800 0.931 . S
C2811 C2809 1.416 . S
C2811 C2812 1.332 . S
C2812 H2791 0.929 . S
C2812 C2808 1.407 . S
C2812 C2811 1.332 . S
H2813 C2806 0.930 . S
H2814 C2837 0.930 . S
H2815 C2838 0.929 . S
O2816 Tb2772 2.465 . S
O2816 C2836 1.264 . S
O2817 Tb2772 2.387 . S
O2817 C2828 1.264 . S
O2818 Tb2783 2.349 . S
O2818 C2828 1.243 . S
O2819 Tb2772 2.428 . S
O2819 C2836 1.256 . S
O2820 Tb2772 2.308 . S
O2820 C2835 1.266 . S
O2821 Tb2783 2.393 . S
O2821 C2835 1.248 . S
O2822 Tb2783 2.465 . S
O2822 C2847 1.264 . S
O2823 Tb2783 2.387 . S
O2823 C2839 1.264 . S
O2824 Tb2772 2.349 . S
O2824 C2839 1.243 . S
O2825 Tb2783 2.428 . S
O2825 C2847 1.256 . S
O2826 Tb2783 2.308 . S
O2826 C2846 1.266 . S
O2827 Tb2772 2.393 . S
O2827 C2846 1.248 . S
C2828 O2817 1.264 . S
C2828 O2818 1.243 . S
C2829 C2832 1.399 . S
C2829 C2834 1.383 . S
C2829 C2836 1.496 . S
C2830 C2831 1.399 . S
C2830 C2834 1.389 . S
C2831 C2830 1.399 . S
C2831 C2833 1.380 . S
C2831 H2848 0.929 . S
C2832 C2829 1.399 . S
C2832 C2833 1.392 . S
C2832 H2849 0.929 . S
C2833 C2831 1.380 . S
C2833 C2832 1.392 . S
C2833 H2850 0.929 . S
C2834 C2829 1.383 . S
C2834 C2830 1.389 . S
C2834 H2851 0.931 . S
C2835 O2820 1.266 . S
C2835 O2821 1.248 . S
C2836 Tb2772 2.802 . S
C2836 O2816 1.264 . S
C2836 O2819 1.256 . S
C2836 C2829 1.496 . S
C2837 C2804 1.448 . S
C2837 H2814 0.930 . S
C2837 C2838 1.328 . S
C2838 C2809 1.427 . S
C2838 H2815 0.929 . S
C2838 C2837 1.328 . S
C2839 O2823 1.264 . S
C2839 O2824 1.243 . S
C2840 C2843 1.399 . S
C2840 C2844 1.383 . S
C2840 C2847 1.496 . S
C2841 C2842 1.399 . S
C2841 C2844 1.389 . S
C2842 C2841 1.399 . S
C2842 C2845 1.380 . S
C2842 H2852 0.929 . S
C2843 C2840 1.399 . S
C2843 C2845 1.392 . S
C2843 H2853 0.929 . S
C2844 C2840 1.383 . S
C2844 C2841 1.389 . S
C2844 H2854 0.931 . S
C2845 C2842 1.380 . S
C2845 C2843 1.392 . S
C2845 H2855 0.929 . S
C2846 O2826 1.266 . S
C2846 O2827 1.248 . S
C2847 Tb2783 2.802 . S
C2847 O2822 1.264 . S
C2847 O2825 1.256 . S
C2847 C2840 1.496 . S
H2848 C2831 0.929 . S
H2849 C2832 0.929 . S
H2850 C2833 0.929 . S
H2851 C2834 0.931 . S
H2852 C2842 0.929 . S
H2853 C2843 0.929 . S
H2854 C2844 0.931 . S
H2855 C2845 0.929 . S
Tb2856 N2885 2.617 . S
Tb2856 N2891 2.572 . S
Tb2856 O2900 2.465 . S
Tb2856 O2901 2.387 . S
Tb2856 O2903 2.428 . S
Tb2856 O2904 2.308 . S
Tb2856 O2908 2.349 . S
Tb2856 O2911 2.393 . S
Tb2856 C2920 2.802 . S
C2857 N2858 1.379 . S
C2857 C2860 1.416 . S
C2857 C2864 1.424 . S
N2858 C2857 1.379 . S
N2858 C2861 1.334 . S
N2858 Tb2867 2.617 . S
C2859 C2861 1.390 . S
C2859 C2862 1.339 . S
C2859 H2879 0.930 . S
C2860 C2857 1.416 . S
C2860 C2862 1.416 . S
C2860 C2866 1.448 . S
C2861 N2858 1.334 . S
C2861 C2859 1.390 . S
C2861 H2872 0.930 . S
C2862 C2859 1.339 . S
C2862 C2860 1.416 . S
C2862 H2883 0.930 . S
C2863 C2864 1.413 . S
C2863 C2865 1.427 . S
C2863 C2869 1.416 . S
C2864 C2857 1.424 . S
C2864 C2863 1.413 . S
C2864 N2868 1.361 . S
C2865 C2863 1.427 . S
C2865 C2866 1.328 . S
C2865 H2880 0.929 . S
C2866 C2860 1.448 . S
C2866 C2865 1.328 . S
C2866 H2881 0.930 . S
Tb2867 N2858 2.617 . S
Tb2867 N2868 2.572 . S
Tb2867 O2902 2.349 . S
Tb2867 O2905 2.393 . S
Tb2867 O2906 2.465 . S
Tb2867 O2907 2.387 . S
Tb2867 O2909 2.428 . S
Tb2867 O2910 2.308 . S
Tb2867 C2931 2.802 . S
N2868 C2864 1.361 . S
N2868 Tb2867 2.572 . S
N2868 C2870 1.340 . S
C2869 C2863 1.416 . S
C2869 C2871 1.332 . S
C2869 H2877 0.931 . S
C2870 N2868 1.340 . S
C2870 C2871 1.407 . S
C2870 H2876 0.930 . S
C2871 C2869 1.332 . S
C2871 C2870 1.407 . S
C2871 H2873 0.929 . S
H2872 C2861 0.930 . S
H2873 C2871 0.929 . S
H2874 C2889 0.930 . S
H2875 C2896 0.929 . S
H2876 C2870 0.930 . S
H2877 C2869 0.931 . S
H2878 C2892 0.930 . S
H2879 C2859 0.930 . S
H2880 C2865 0.929 . S
H2881 C2866 0.930 . S
H2882 C2887 0.930 . S
H2883 C2862 0.930 . S
H2884 C2895 0.931 . S
N2885 Tb2856 2.617 . S
N2885 C2886 1.379 . S
N2885 C2889 1.334 . S
C2886 N2885 1.379 . S
C2886 C2888 1.416 . S
C2886 C2894 1.424 . S
C2887 H2882 0.930 . S
C2887 C2889 1.390 . S
C2887 C2890 1.339 . S
C2888 C2886 1.416 . S
C2888 C2890 1.416 . S
C2888 C2921 1.448 . S
C2889 H2874 0.930 . S
C2889 N2885 1.334 . S
C2889 C2887 1.390 . S
C2890 C2887 1.339 . S
C2890 C2888 1.416 . S
C2890 H2897 0.930 . S
N2891 Tb2856 2.572 . S
N2891 C2892 1.340 . S
N2891 C2894 1.361 . S
C2892 H2878 0.930 . S
C2892 N2891 1.340 . S
C2892 C2896 1.407 . S
C2893 C2894 1.413 . S
C2893 C2895 1.416 . S
C2893 C2922 1.427 . S
C2894 C2886 1.424 . S
C2894 N2891 1.361 . S
C2894 C2893 1.413 . S
C2895 H2884 0.931 . S
C2895 C2893 1.416 . S
C2895 C2896 1.332 . S
C2896 H2875 0.929 . S
C2896 C2892 1.407 . S
C2896 C2895 1.332 . S
H2897 C2890 0.930 . S
H2898 C2921 0.930 . S
H2899 C2922 0.929 . S
O2900 Tb2856 2.465 . S
O2900 C2920 1.264 . S
O2901 Tb2856 2.387 . S
O2901 C2912 1.264 . S
O2902 Tb2867 2.349 . S
O2902 C2912 1.243 . S
O2903 Tb2856 2.428 . S
O2903 C2920 1.256 . S
O2904 Tb2856 2.308 . S
O2904 C2919 1.266 . S
O2905 Tb2867 2.393 . S
O2905 C2919 1.248 . S
O2906 Tb2867 2.465 . S
O2906 C2931 1.264 . S
O2907 Tb2867 2.387 . S
O2907 C2923 1.264 . S
O2908 Tb2856 2.349 . S
O2908 C2923 1.243 . S
O2909 Tb2867 2.428 . S
O2909 C2931 1.256 . S
O2910 Tb2867 2.308 . S
O2910 C2930 1.266 . S
O2911 Tb2856 2.393 . S
O2911 C2930 1.248 . S
C2912 O2901 1.264 . S
C2912 O2902 1.243 . S
C2913 C2916 1.399 . S
C2913 C2918 1.383 . S
C2913 C2920 1.496 . S
C2914 C2915 1.399 . S
C2914 C2918 1.389 . S
C2915 C2914 1.399 . S
C2915 C2917 1.380 . S
C2915 H2932 0.929 . S
C2916 C2913 1.399 . S
C2916 C2917 1.392 . S
C2916 H2933 0.929 . S
C2917 C2915 1.380 . S
C2917 C2916 1.392 . S
C2917 H2934 0.929 . S
C2918 C2913 1.383 . S
C2918 C2914 1.389 . S
C2918 H2935 0.931 . S
C2919 O2904 1.266 . S
C2919 O2905 1.248 . S
C2920 Tb2856 2.802 . S
C2920 O2900 1.264 . S
C2920 O2903 1.256 . S
C2920 C2913 1.496 . S
C2921 C2888 1.448 . S
C2921 H2898 0.930 . S
C2921 C2922 1.328 . S
C2922 C2893 1.427 . S
C2922 H2899 0.929 . S
C2922 C2921 1.328 . S
C2923 O2907 1.264 . S
C2923 O2908 1.243 . S
C2924 C2927 1.399 . S
C2924 C2928 1.383 . S
C2924 C2931 1.496 . S
C2925 C2926 1.399 . S
C2925 C2928 1.389 . S
C2926 C2925 1.399 . S
C2926 C2929 1.380 . S
C2926 H2936 0.929 . S
C2927 C2924 1.399 . S
C2927 C2929 1.392 . S
C2927 H2937 0.929 . S
C2928 C2924 1.383 . S
C2928 C2925 1.389 . S
C2928 H2938 0.931 . S
C2929 C2926 1.380 . S
C2929 C2927 1.392 . S
C2929 H2939 0.929 . S
C2930 O2910 1.266 . S
C2930 O2911 1.248 . S
C2931 Tb2867 2.802 . S
C2931 O2906 1.264 . S
C2931 O2909 1.256 . S
C2931 C2924 1.496 . S
H2932 C2915 0.929 . S
H2933 C2916 0.929 . S
H2934 C2917 0.929 . S
H2935 C2918 0.931 . S
H2936 C2926 0.929 . S
H2937 C2927 0.929 . S
H2938 C2928 0.931 . S
H2939 C2929 0.929 . S
Tb2940 N2969 2.617 . S
Tb2940 N2975 2.572 . S
Tb2940 O2984 2.465 . S
Tb2940 O2985 2.387 . S
Tb2940 O2987 2.428 . S
Tb2940 O2988 2.308 . S
Tb2940 O2992 2.349 . S
Tb2940 O2995 2.393 . S
Tb2940 C3004 2.802 . S
C2941 N2942 1.379 . S
C2941 C2944 1.416 . S
C2941 C2948 1.424 . S
N2942 C2941 1.379 . S
N2942 C2945 1.334 . S
N2942 Tb2951 2.617 . S
C2943 C2945 1.390 . S
C2943 C2946 1.339 . S
C2943 H2963 0.930 . S
C2944 C2941 1.416 . S
C2944 C2946 1.416 . S
C2944 C2950 1.448 . S
C2945 N2942 1.334 . S
C2945 C2943 1.390 . S
C2945 H2956 0.930 . S
C2946 C2943 1.339 . S
C2946 C2944 1.416 . S
C2946 H2967 0.930 . S
C2947 C2948 1.413 . S
C2947 C2949 1.427 . S
C2947 C2953 1.416 . S
C2948 C2941 1.424 . S
C2948 C2947 1.413 . S
C2948 N2952 1.361 . S
C2949 C2947 1.427 . S
C2949 C2950 1.328 . S
C2949 H2964 0.929 . S
C2950 C2944 1.448 . S
C2950 C2949 1.328 . S
C2950 H2965 0.930 . S
Tb2951 N2942 2.617 . S
Tb2951 N2952 2.572 . S
Tb2951 O2986 2.349 . S
Tb2951 O2989 2.393 . S
Tb2951 O2990 2.465 . S
Tb2951 O2991 2.387 . S
Tb2951 O2993 2.428 . S
Tb2951 O2994 2.308 . S
Tb2951 C3015 2.802 . S
N2952 C2948 1.361 . S
N2952 Tb2951 2.572 . S
N2952 C2954 1.340 . S
C2953 C2947 1.416 . S
C2953 C2955 1.332 . S
C2953 H2961 0.931 . S
C2954 N2952 1.340 . S
C2954 C2955 1.407 . S
C2954 H2960 0.930 . S
C2955 C2953 1.332 . S
C2955 C2954 1.407 . S
C2955 H2957 0.929 . S
H2956 C2945 0.930 . S
H2957 C2955 0.929 . S
H2958 C2973 0.930 . S
H2959 C2980 0.929 . S
H2960 C2954 0.930 . S
H2961 C2953 0.931 . S
H2962 C2976 0.930 . S
H2963 C2943 0.930 . S
H2964 C2949 0.929 . S
H2965 C2950 0.930 . S
H2966 C2971 0.930 . S
H2967 C2946 0.930 . S
H2968 C2979 0.931 . S
N2969 Tb2940 2.617 . S
N2969 C2970 1.379 . S
N2969 C2973 1.334 . S
C2970 N2969 1.379 . S
C2970 C2972 1.416 . S
C2970 C2978 1.424 . S
C2971 H2966 0.930 . S
C2971 C2973 1.390 . S
C2971 C2974 1.339 . S
C2972 C2970 1.416 . S
C2972 C2974 1.416 . S
C2972 C3005 1.448 . S
C2973 H2958 0.930 . S
C2973 N2969 1.334 . S
C2973 C2971 1.390 . S
C2974 C2971 1.339 . S
C2974 C2972 1.416 . S
C2974 H2981 0.930 . S
N2975 Tb2940 2.572 . S
N2975 C2976 1.340 . S
N2975 C2978 1.361 . S
C2976 H2962 0.930 . S
C2976 N2975 1.340 . S
C2976 C2980 1.407 . S
C2977 C2978 1.413 . S
C2977 C2979 1.416 . S
C2977 C3006 1.427 . S
C2978 C2970 1.424 . S
C2978 N2975 1.361 . S
C2978 C2977 1.413 . S
C2979 H2968 0.931 . S
C2979 C2977 1.416 . S
C2979 C2980 1.332 . S
C2980 H2959 0.929 . S
C2980 C2976 1.407 . S
C2980 C2979 1.332 . S
H2981 C2974 0.930 . S
H2982 C3005 0.930 . S
H2983 C3006 0.929 . S
O2984 Tb2940 2.465 . S
O2984 C3004 1.264 . S
O2985 Tb2940 2.387 . S
O2985 C2996 1.264 . S
O2986 Tb2951 2.349 . S
O2986 C2996 1.243 . S
O2987 Tb2940 2.428 . S
O2987 C3004 1.256 . S
O2988 Tb2940 2.308 . S
O2988 C3003 1.266 . S
O2989 Tb2951 2.393 . S
O2989 C3003 1.248 . S
O2990 Tb2951 2.465 . S
O2990 C3015 1.264 . S
O2991 Tb2951 2.387 . S
O2991 C3007 1.264 . S
O2992 Tb2940 2.349 . S
O2992 C3007 1.243 . S
O2993 Tb2951 2.428 . S
O2993 C3015 1.256 . S
O2994 Tb2951 2.308 . S
O2994 C3014 1.266 . S
O2995 Tb2940 2.393 . S
O2995 C3014 1.248 . S
C2996 O2985 1.264 . S
C2996 O2986 1.243 . S
C2997 C3000 1.399 . S
C2997 C3002 1.383 . S
C2997 C3004 1.496 . S
C2998 C2999 1.399 . S
C2998 C3002 1.389 . S
C2999 C2998 1.399 . S
C2999 C3001 1.380 . S
C2999 H3016 0.929 . S
C3000 C2997 1.399 . S
C3000 C3001 1.392 . S
C3000 H3017 0.929 . S
C3001 C2999 1.380 . S
C3001 C3000 1.392 . S
C3001 H3018 0.929 . S
C3002 C2997 1.383 . S
C3002 C2998 1.389 . S
C3002 H3019 0.931 . S
C3003 O2988 1.266 . S
C3003 O2989 1.248 . S
C3004 Tb2940 2.802 . S
C3004 O2984 1.264 . S
C3004 O2987 1.256 . S
C3004 C2997 1.496 . S
C3005 C2972 1.448 . S
C3005 H2982 0.930 . S
C3005 C3006 1.328 . S
C3006 C2977 1.427 . S
C3006 H2983 0.929 . S
C3006 C3005 1.328 . S
C3007 O2991 1.264 . S
C3007 O2992 1.243 . S
C3008 C3011 1.399 . S
C3008 C3012 1.383 . S
C3008 C3015 1.496 . S
C3009 C3010 1.399 . S
C3009 C3012 1.389 . S
C3010 C3009 1.399 . S
C3010 C3013 1.380 . S
C3010 H3020 0.929 . S
C3011 C3008 1.399 . S
C3011 C3013 1.392 . S
C3011 H3021 0.929 . S
C3012 C3008 1.383 . S
C3012 C3009 1.389 . S
C3012 H3022 0.931 . S
C3013 C3010 1.380 . S
C3013 C3011 1.392 . S
C3013 H3023 0.929 . S
C3014 O2994 1.266 . S
C3014 O2995 1.248 . S
C3015 Tb2951 2.802 . S
C3015 O2990 1.264 . S
C3015 O2993 1.256 . S
C3015 C3008 1.496 . S
H3016 C2999 0.929 . S
H3017 C3000 0.929 . S
H3018 C3001 0.929 . S
H3019 C3002 0.931 . S
H3020 C3010 0.929 . S
H3021 C3011 0.929 . S
H3022 C3012 0.931 . S
H3023 C3013 0.929 . S
Tb3024 N3053 2.617 . S
Tb3024 N3059 2.572 . S
Tb3024 O3068 2.465 . S
Tb3024 O3069 2.387 . S
Tb3024 O3071 2.428 . S
Tb3024 O3072 2.308 . S
Tb3024 O3076 2.349 . S
Tb3024 O3079 2.393 . S
Tb3024 C3088 2.802 . S
C3025 N3026 1.379 . S
C3025 C3028 1.416 . S
C3025 C3032 1.424 . S
N3026 C3025 1.379 . S
N3026 C3029 1.334 . S
N3026 Tb3035 2.617 . S
C3027 C3029 1.390 . S
C3027 C3030 1.339 . S
C3027 H3047 0.930 . S
C3028 C3025 1.416 . S
C3028 C3030 1.416 . S
C3028 C3034 1.448 . S
C3029 N3026 1.334 . S
C3029 C3027 1.390 . S
C3029 H3040 0.930 . S
C3030 C3027 1.339 . S
C3030 C3028 1.416 . S
C3030 H3051 0.930 . S
C3031 C3032 1.413 . S
C3031 C3033 1.427 . S
C3031 C3037 1.416 . S
C3032 C3025 1.424 . S
C3032 C3031 1.413 . S
C3032 N3036 1.361 . S
C3033 C3031 1.427 . S
C3033 C3034 1.328 . S
C3033 H3048 0.929 . S
C3034 C3028 1.448 . S
C3034 C3033 1.328 . S
C3034 H3049 0.930 . S
Tb3035 N3026 2.617 . S
Tb3035 N3036 2.572 . S
Tb3035 O3070 2.349 . S
Tb3035 O3073 2.393 . S
Tb3035 O3074 2.465 . S
Tb3035 O3075 2.387 . S
Tb3035 O3077 2.428 . S
Tb3035 O3078 2.308 . S
Tb3035 C3099 2.802 . S
N3036 C3032 1.361 . S
N3036 Tb3035 2.572 . S
N3036 C3038 1.340 . S
C3037 C3031 1.416 . S
C3037 C3039 1.332 . S
C3037 H3045 0.931 . S
C3038 N3036 1.340 . S
C3038 C3039 1.407 . S
C3038 H3044 0.930 . S
C3039 C3037 1.332 . S
C3039 C3038 1.407 . S
C3039 H3041 0.929 . S
H3040 C3029 0.930 . S
H3041 C3039 0.929 . S
H3042 C3057 0.930 . S
H3043 C3064 0.929 . S
H3044 C3038 0.930 . S
H3045 C3037 0.931 . S
H3046 C3060 0.930 . S
H3047 C3027 0.930 . S
H3048 C3033 0.929 . S
H3049 C3034 0.930 . S
H3050 C3055 0.930 . S
H3051 C3030 0.930 . S
H3052 C3063 0.931 . S
N3053 Tb3024 2.617 . S
N3053 C3054 1.379 . S
N3053 C3057 1.334 . S
C3054 N3053 1.379 . S
C3054 C3056 1.416 . S
C3054 C3062 1.424 . S
C3055 H3050 0.930 . S
C3055 C3057 1.390 . S
C3055 C3058 1.339 . S
C3056 C3054 1.416 . S
C3056 C3058 1.416 . S
C3056 C3089 1.448 . S
C3057 H3042 0.930 . S
C3057 N3053 1.334 . S
C3057 C3055 1.390 . S
C3058 C3055 1.339 . S
C3058 C3056 1.416 . S
C3058 H3065 0.930 . S
N3059 Tb3024 2.572 . S
N3059 C3060 1.340 . S
N3059 C3062 1.361 . S
C3060 H3046 0.930 . S
C3060 N3059 1.340 . S
C3060 C3064 1.407 . S
C3061 C3062 1.413 . S
C3061 C3063 1.416 . S
C3061 C3090 1.427 . S
C3062 C3054 1.424 . S
C3062 N3059 1.361 . S
C3062 C3061 1.413 . S
C3063 H3052 0.931 . S
C3063 C3061 1.416 . S
C3063 C3064 1.332 . S
C3064 H3043 0.929 . S
C3064 C3060 1.407 . S
C3064 C3063 1.332 . S
H3065 C3058 0.930 . S
H3066 C3089 0.930 . S
H3067 C3090 0.929 . S
O3068 Tb3024 2.465 . S
O3068 C3088 1.264 . S
O3069 Tb3024 2.387 . S
O3069 C3080 1.264 . S
O3070 Tb3035 2.349 . S
O3070 C3080 1.243 . S
O3071 Tb3024 2.428 . S
O3071 C3088 1.256 . S
O3072 Tb3024 2.308 . S
O3072 C3087 1.266 . S
O3073 Tb3035 2.393 . S
O3073 C3087 1.248 . S
O3074 Tb3035 2.465 . S
O3074 C3099 1.264 . S
O3075 Tb3035 2.387 . S
O3075 C3091 1.264 . S
O3076 Tb3024 2.349 . S
O3076 C3091 1.243 . S
O3077 Tb3035 2.428 . S
O3077 C3099 1.256 . S
O3078 Tb3035 2.308 . S
O3078 C3098 1.266 . S
O3079 Tb3024 2.393 . S
O3079 C3098 1.248 . S
C3080 O3069 1.264 . S
C3080 O3070 1.243 . S
C3081 C3084 1.399 . S
C3081 C3086 1.383 . S
C3081 C3088 1.496 . S
C3082 C3083 1.399 . S
C3082 C3086 1.389 . S
C3083 C3082 1.399 . S
C3083 C3085 1.380 . S
C3083 H3100 0.929 . S
C3084 C3081 1.399 . S
C3084 C3085 1.392 . S
C3084 H3101 0.929 . S
C3085 C3083 1.380 . S
C3085 C3084 1.392 . S
C3085 H3102 0.929 . S
C3086 C3081 1.383 . S
C3086 C3082 1.389 . S
C3086 H3103 0.931 . S
C3087 O3072 1.266 . S
C3087 O3073 1.248 . S
C3088 Tb3024 2.802 . S
C3088 O3068 1.264 . S
C3088 O3071 1.256 . S
C3088 C3081 1.496 . S
C3089 C3056 1.448 . S
C3089 H3066 0.930 . S
C3089 C3090 1.328 . S
C3090 C3061 1.427 . S
C3090 H3067 0.929 . S
C3090 C3089 1.328 . S
C3091 O3075 1.264 . S
C3091 O3076 1.243 . S
C3092 C3095 1.399 . S
C3092 C3096 1.383 . S
C3092 C3099 1.496 . S
C3093 C3094 1.399 . S
C3093 C3096 1.389 . S
C3094 C3093 1.399 . S
C3094 C3097 1.380 . S
C3094 H3104 0.929 . S
C3095 C3092 1.399 . S
C3095 C3097 1.392 . S
C3095 H3105 0.929 . S
C3096 C3092 1.383 . S
C3096 C3093 1.389 . S
C3096 H3106 0.931 . S
C3097 C3094 1.380 . S
C3097 C3095 1.392 . S
C3097 H3107 0.929 . S
C3098 O3078 1.266 . S
C3098 O3079 1.248 . S
C3099 Tb3035 2.802 . S
C3099 O3074 1.264 . S
C3099 O3077 1.256 . S
C3099 C3092 1.496 . S
H3100 C3083 0.929 . S
H3101 C3084 0.929 . S
H3102 C3085 0.929 . S
H3103 C3086 0.931 . S
H3104 C3094 0.929 . S
H3105 C3095 0.929 . S
H3106 C3096 0.931 . S
H3107 C3097 0.929 . S
Tb3108 N3137 2.617 . S
Tb3108 N3143 2.572 . S
Tb3108 O3152 2.465 . S
Tb3108 O3153 2.387 . S
Tb3108 O3155 2.428 . S
Tb3108 O3156 2.308 . S
Tb3108 O3160 2.349 . S
Tb3108 O3163 2.393 . S
Tb3108 C3172 2.802 . S
C3109 N3110 1.379 . S
C3109 C3112 1.416 . S
C3109 C3116 1.424 . S
N3110 C3109 1.379 . S
N3110 C3113 1.334 . S
N3110 Tb3119 2.617 . S
C3111 C3113 1.390 . S
C3111 C3114 1.339 . S
C3111 H3131 0.930 . S
C3112 C3109 1.416 . S
C3112 C3114 1.416 . S
C3112 C3118 1.448 . S
C3113 N3110 1.334 . S
C3113 C3111 1.390 . S
C3113 H3124 0.930 . S
C3114 C3111 1.339 . S
C3114 C3112 1.416 . S
C3114 H3135 0.930 . S
C3115 C3116 1.413 . S
C3115 C3117 1.427 . S
C3115 C3121 1.416 . S
C3116 C3109 1.424 . S
C3116 C3115 1.413 . S
C3116 N3120 1.361 . S
C3117 C3115 1.427 . S
C3117 C3118 1.328 . S
C3117 H3132 0.929 . S
C3118 C3112 1.448 . S
C3118 C3117 1.328 . S
C3118 H3133 0.930 . S
Tb3119 N3110 2.617 . S
Tb3119 N3120 2.572 . S
Tb3119 O3154 2.349 . S
Tb3119 O3157 2.393 . S
Tb3119 O3158 2.465 . S
Tb3119 O3159 2.387 . S
Tb3119 O3161 2.428 . S
Tb3119 O3162 2.308 . S
Tb3119 C3183 2.802 . S
N3120 C3116 1.361 . S
N3120 Tb3119 2.572 . S
N3120 C3122 1.340 . S
C3121 C3115 1.416 . S
C3121 C3123 1.332 . S
C3121 H3129 0.931 . S
C3122 N3120 1.340 . S
C3122 C3123 1.407 . S
C3122 H3128 0.930 . S
C3123 C3121 1.332 . S
C3123 C3122 1.407 . S
C3123 H3125 0.929 . S
H3124 C3113 0.930 . S
H3125 C3123 0.929 . S
H3126 C3141 0.930 . S
H3127 C3148 0.929 . S
H3128 C3122 0.930 . S
H3129 C3121 0.931 . S
H3130 C3144 0.930 . S
H3131 C3111 0.930 . S
H3132 C3117 0.929 . S
H3133 C3118 0.930 . S
H3134 C3139 0.930 . S
H3135 C3114 0.930 . S
H3136 C3147 0.931 . S
N3137 Tb3108 2.617 . S
N3137 C3138 1.379 . S
N3137 C3141 1.334 . S
C3138 N3137 1.379 . S
C3138 C3140 1.416 . S
C3138 C3146 1.424 . S
C3139 H3134 0.930 . S
C3139 C3141 1.390 . S
C3139 C3142 1.339 . S
C3140 C3138 1.416 . S
C3140 C3142 1.416 . S
C3140 C3173 1.448 . S
C3141 H3126 0.930 . S
C3141 N3137 1.334 . S
C3141 C3139 1.390 . S
C3142 C3139 1.339 . S
C3142 C3140 1.416 . S
C3142 H3149 0.930 . S
N3143 Tb3108 2.572 . S
N3143 C3144 1.340 . S
N3143 C3146 1.361 . S
C3144 H3130 0.930 . S
C3144 N3143 1.340 . S
C3144 C3148 1.407 . S
C3145 C3146 1.413 . S
C3145 C3147 1.416 . S
C3145 C3174 1.427 . S
C3146 C3138 1.424 . S
C3146 N3143 1.361 . S
C3146 C3145 1.413 . S
C3147 H3136 0.931 . S
C3147 C3145 1.416 . S
C3147 C3148 1.332 . S
C3148 H3127 0.929 . S
C3148 C3144 1.407 . S
C3148 C3147 1.332 . S
H3149 C3142 0.930 . S
H3150 C3173 0.930 . S
H3151 C3174 0.929 . S
O3152 Tb3108 2.465 . S
O3152 C3172 1.264 . S
O3153 Tb3108 2.387 . S
O3153 C3164 1.264 . S
O3154 Tb3119 2.349 . S
O3154 C3164 1.243 . S
O3155 Tb3108 2.428 . S
O3155 C3172 1.256 . S
O3156 Tb3108 2.308 . S
O3156 C3171 1.266 . S
O3157 Tb3119 2.393 . S
O3157 C3171 1.248 . S
O3158 Tb3119 2.465 . S
O3158 C3183 1.264 . S
O3159 Tb3119 2.387 . S
O3159 C3175 1.264 . S
O3160 Tb3108 2.349 . S
O3160 C3175 1.243 . S
O3161 Tb3119 2.428 . S
O3161 C3183 1.256 . S
O3162 Tb3119 2.308 . S
O3162 C3182 1.266 . S
O3163 Tb3108 2.393 . S
O3163 C3182 1.248 . S
C3164 O3153 1.264 . S
C3164 O3154 1.243 . S
C3165 C3168 1.399 . S
C3165 C3170 1.383 . S
C3165 C3172 1.496 . S
C3166 C3167 1.399 . S
C3166 C3170 1.389 . S
C3167 C3166 1.399 . S
C3167 C3169 1.380 . S
C3167 H3184 0.929 . S
C3168 C3165 1.399 . S
C3168 C3169 1.392 . S
C3168 H3185 0.929 . S
C3169 C3167 1.380 . S
C3169 C3168 1.392 . S
C3169 H3186 0.929 . S
C3170 C3165 1.383 . S
C3170 C3166 1.389 . S
C3170 H3187 0.931 . S
C3171 O3156 1.266 . S
C3171 O3157 1.248 . S
C3172 Tb3108 2.802 . S
C3172 O3152 1.264 . S
C3172 O3155 1.256 . S
C3172 C3165 1.496 . S
C3173 C3140 1.448 . S
C3173 H3150 0.930 . S
C3173 C3174 1.328 . S
C3174 C3145 1.427 . S
C3174 H3151 0.929 . S
C3174 C3173 1.328 . S
C3175 O3159 1.264 . S
C3175 O3160 1.243 . S
C3176 C3179 1.399 . S
C3176 C3180 1.383 . S
C3176 C3183 1.496 . S
C3177 C3178 1.399 . S
C3177 C3180 1.389 . S
C3178 C3177 1.399 . S
C3178 C3181 1.380 . S
C3178 H3188 0.929 . S
C3179 C3176 1.399 . S
C3179 C3181 1.392 . S
C3179 H3189 0.929 . S
C3180 C3176 1.383 . S
C3180 C3177 1.389 . S
C3180 H3190 0.931 . S
C3181 C3178 1.380 . S
C3181 C3179 1.392 . S
C3181 H3191 0.929 . S
C3182 O3162 1.266 . S
C3182 O3163 1.248 . S
C3183 Tb3119 2.802 . S
C3183 O3158 1.264 . S
C3183 O3161 1.256 . S
C3183 C3176 1.496 . S
H3184 C3167 0.929 . S
H3185 C3168 0.929 . S
H3186 C3169 0.929 . S
H3187 C3170 0.931 . S
H3188 C3178 0.929 . S
H3189 C3179 0.929 . S
H3190 C3180 0.931 . S
H3191 C3181 0.929 . S
Tb3192 N3221 2.617 . S
Tb3192 N3227 2.572 . S
Tb3192 O3236 2.465 . S
Tb3192 O3237 2.387 . S
Tb3192 O3239 2.428 . S
Tb3192 O3240 2.308 . S
Tb3192 O3244 2.349 . S
Tb3192 O3247 2.393 . S
Tb3192 C3256 2.802 . S
C3193 N3194 1.379 . S
C3193 C3196 1.416 . S
C3193 C3200 1.424 . S
N3194 C3193 1.379 . S
N3194 C3197 1.334 . S
N3194 Tb3203 2.617 . S
C3195 C3197 1.390 . S
C3195 C3198 1.339 . S
C3195 H3215 0.930 . S
C3196 C3193 1.416 . S
C3196 C3198 1.416 . S
C3196 C3202 1.448 . S
C3197 N3194 1.334 . S
C3197 C3195 1.390 . S
C3197 H3208 0.930 . S
C3198 C3195 1.339 . S
C3198 C3196 1.416 . S
C3198 H3219 0.930 . S
C3199 C3200 1.413 . S
C3199 C3201 1.427 . S
C3199 C3205 1.416 . S
C3200 C3193 1.424 . S
C3200 C3199 1.413 . S
C3200 N3204 1.361 . S
C3201 C3199 1.427 . S
C3201 C3202 1.328 . S
C3201 H3216 0.929 . S
C3202 C3196 1.448 . S
C3202 C3201 1.328 . S
C3202 H3217 0.930 . S
Tb3203 N3194 2.617 . S
Tb3203 N3204 2.572 . S
Tb3203 O3238 2.349 . S
Tb3203 O3241 2.393 . S
Tb3203 O3242 2.465 . S
Tb3203 O3243 2.387 . S
Tb3203 O3245 2.428 . S
Tb3203 O3246 2.308 . S
Tb3203 C3267 2.802 . S
N3204 C3200 1.361 . S
N3204 Tb3203 2.572 . S
N3204 C3206 1.340 . S
C3205 C3199 1.416 . S
C3205 C3207 1.332 . S
C3205 H3213 0.931 . S
C3206 N3204 1.340 . S
C3206 C3207 1.407 . S
C3206 H3212 0.930 . S
C3207 C3205 1.332 . S
C3207 C3206 1.407 . S
C3207 H3209 0.929 . S
H3208 C3197 0.930 . S
H3209 C3207 0.929 . S
H3210 C3225 0.930 . S
H3211 C3232 0.929 . S
H3212 C3206 0.930 . S
H3213 C3205 0.931 . S
H3214 C3228 0.930 . S
H3215 C3195 0.930 . S
H3216 C3201 0.929 . S
H3217 C3202 0.930 . S
H3218 C3223 0.930 . S
H3219 C3198 0.930 . S
H3220 C3231 0.931 . S
N3221 Tb3192 2.617 . S
N3221 C3222 1.379 . S
N3221 C3225 1.334 . S
C3222 N3221 1.379 . S
C3222 C3224 1.416 . S
C3222 C3230 1.424 . S
C3223 H3218 0.930 . S
C3223 C3225 1.390 . S
C3223 C3226 1.339 . S
C3224 C3222 1.416 . S
C3224 C3226 1.416 . S
C3224 C3257 1.448 . S
C3225 H3210 0.930 . S
C3225 N3221 1.334 . S
C3225 C3223 1.390 . S
C3226 C3223 1.339 . S
C3226 C3224 1.416 . S
C3226 H3233 0.930 . S
N3227 Tb3192 2.572 . S
N3227 C3228 1.340 . S
N3227 C3230 1.361 . S
C3228 H3214 0.930 . S
C3228 N3227 1.340 . S
C3228 C3232 1.407 . S
C3229 C3230 1.413 . S
C3229 C3231 1.416 . S
C3229 C3258 1.427 . S
C3230 C3222 1.424 . S
C3230 N3227 1.361 . S
C3230 C3229 1.413 . S
C3231 H3220 0.931 . S
C3231 C3229 1.416 . S
C3231 C3232 1.332 . S
C3232 H3211 0.929 . S
C3232 C3228 1.407 . S
C3232 C3231 1.332 . S
H3233 C3226 0.930 . S
H3234 C3257 0.930 . S
H3235 C3258 0.929 . S
O3236 Tb3192 2.465 . S
O3236 C3256 1.264 . S
O3237 Tb3192 2.387 . S
O3237 C3248 1.264 . S
O3238 Tb3203 2.349 . S
O3238 C3248 1.243 . S
O3239 Tb3192 2.428 . S
O3239 C3256 1.256 . S
O3240 Tb3192 2.308 . S
O3240 C3255 1.266 . S
O3241 Tb3203 2.393 . S
O3241 C3255 1.248 . S
O3242 Tb3203 2.465 . S
O3242 C3267 1.264 . S
O3243 Tb3203 2.387 . S
O3243 C3259 1.264 . S
O3244 Tb3192 2.349 . S
O3244 C3259 1.243 . S
O3245 Tb3203 2.428 . S
O3245 C3267 1.256 . S
O3246 Tb3203 2.308 . S
O3246 C3266 1.266 . S
O3247 Tb3192 2.393 . S
O3247 C3266 1.248 . S
C3248 O3237 1.264 . S
C3248 O3238 1.243 . S
C3249 C3252 1.399 . S
C3249 C3254 1.383 . S
C3249 C3256 1.496 . S
C3250 C3251 1.399 . S
C3250 C3254 1.389 . S
C3251 C3250 1.399 . S
C3251 C3253 1.380 . S
C3251 H3268 0.929 . S
C3252 C3249 1.399 . S
C3252 C3253 1.392 . S
C3252 H3269 0.929 . S
C3253 C3251 1.380 . S
C3253 C3252 1.392 . S
C3253 H3270 0.929 . S
C3254 C3249 1.383 . S
C3254 C3250 1.389 . S
C3254 H3271 0.931 . S
C3255 O3240 1.266 . S
C3255 O3241 1.248 . S
C3256 Tb3192 2.802 . S
C3256 O3236 1.264 . S
C3256 O3239 1.256 . S
C3256 C3249 1.496 . S
C3257 C3224 1.448 . S
C3257 H3234 0.930 . S
C3257 C3258 1.328 . S
C3258 C3229 1.427 . S
C3258 H3235 0.929 . S
C3258 C3257 1.328 . S
C3259 O3243 1.264 . S
C3259 O3244 1.243 . S
C3260 C3263 1.399 . S
C3260 C3264 1.383 . S
C3260 C3267 1.496 . S
C3261 C3262 1.399 . S
C3261 C3264 1.389 . S
C3262 C3261 1.399 . S
C3262 C3265 1.380 . S
C3262 H3272 0.929 . S
C3263 C3260 1.399 . S
C3263 C3265 1.392 . S
C3263 H3273 0.929 . S
C3264 C3260 1.383 . S
C3264 C3261 1.389 . S
C3264 H3274 0.931 . S
C3265 C3262 1.380 . S
C3265 C3263 1.392 . S
C3265 H3275 0.929 . S
C3266 O3246 1.266 . S
C3266 O3247 1.248 . S
C3267 Tb3203 2.802 . S
C3267 O3242 1.264 . S
C3267 O3245 1.256 . S
C3267 C3260 1.496 . S
H3268 C3251 0.929 . S
H3269 C3252 0.929 . S
H3270 C3253 0.929 . S
H3271 C3254 0.931 . S
H3272 C3262 0.929 . S
H3273 C3263 0.929 . S
H3274 C3264 0.931 . S
H3275 C3265 0.929 . S
Tb3276 N3305 2.617 . S
Tb3276 N3311 2.572 . S
Tb3276 O3320 2.465 . S
Tb3276 O3321 2.387 . S
Tb3276 O3323 2.428 . S
Tb3276 O3324 2.308 . S
Tb3276 O3328 2.349 . S
Tb3276 O3331 2.393 . S
Tb3276 C3340 2.802 . S
C3277 N3278 1.379 . S
C3277 C3280 1.416 . S
C3277 C3284 1.424 . S
N3278 C3277 1.379 . S
N3278 C3281 1.334 . S
N3278 Tb3287 2.617 . S
C3279 C3281 1.390 . S
C3279 C3282 1.339 . S
C3279 H3299 0.930 . S
C3280 C3277 1.416 . S
C3280 C3282 1.416 . S
C3280 C3286 1.448 . S
C3281 N3278 1.334 . S
C3281 C3279 1.390 . S
C3281 H3292 0.930 . S
C3282 C3279 1.339 . S
C3282 C3280 1.416 . S
C3282 H3303 0.930 . S
C3283 C3284 1.413 . S
C3283 C3285 1.427 . S
C3283 C3289 1.416 . S
C3284 C3277 1.424 . S
C3284 C3283 1.413 . S
C3284 N3288 1.361 . S
C3285 C3283 1.427 . S
C3285 C3286 1.328 . S
C3285 H3300 0.929 . S
C3286 C3280 1.448 . S
C3286 C3285 1.328 . S
C3286 H3301 0.930 . S
Tb3287 N3278 2.617 . S
Tb3287 N3288 2.572 . S
Tb3287 O3322 2.349 . S
Tb3287 O3325 2.393 . S
Tb3287 O3326 2.465 . S
Tb3287 O3327 2.387 . S
Tb3287 O3329 2.428 . S
Tb3287 O3330 2.308 . S
Tb3287 C3351 2.802 . S
N3288 C3284 1.361 . S
N3288 Tb3287 2.572 . S
N3288 C3290 1.340 . S
C3289 C3283 1.416 . S
C3289 C3291 1.332 . S
C3289 H3297 0.931 . S
C3290 N3288 1.340 . S
C3290 C3291 1.407 . S
C3290 H3296 0.930 . S
C3291 C3289 1.332 . S
C3291 C3290 1.407 . S
C3291 H3293 0.929 . S
H3292 C3281 0.930 . S
H3293 C3291 0.929 . S
H3294 C3309 0.930 . S
H3295 C3316 0.929 . S
H3296 C3290 0.930 . S
H3297 C3289 0.931 . S
H3298 C3312 0.930 . S
H3299 C3279 0.930 . S
H3300 C3285 0.929 . S
H3301 C3286 0.930 . S
H3302 C3307 0.930 . S
H3303 C3282 0.930 . S
H3304 C3315 0.931 . S
N3305 Tb3276 2.617 . S
N3305 C3306 1.379 . S
N3305 C3309 1.334 . S
C3306 N3305 1.379 . S
C3306 C3308 1.416 . S
C3306 C3314 1.424 . S
C3307 H3302 0.930 . S
C3307 C3309 1.390 . S
C3307 C3310 1.339 . S
C3308 C3306 1.416 . S
C3308 C3310 1.416 . S
C3308 C3341 1.448 . S
C3309 H3294 0.930 . S
C3309 N3305 1.334 . S
C3309 C3307 1.390 . S
C3310 C3307 1.339 . S
C3310 C3308 1.416 . S
C3310 H3317 0.930 . S
N3311 Tb3276 2.572 . S
N3311 C3312 1.340 . S
N3311 C3314 1.361 . S
C3312 H3298 0.930 . S
C3312 N3311 1.340 . S
C3312 C3316 1.407 . S
C3313 C3314 1.413 . S
C3313 C3315 1.416 . S
C3313 C3342 1.427 . S
C3314 C3306 1.424 . S
C3314 N3311 1.361 . S
C3314 C3313 1.413 . S
C3315 H3304 0.931 . S
C3315 C3313 1.416 . S
C3315 C3316 1.332 . S
C3316 H3295 0.929 . S
C3316 C3312 1.407 . S
C3316 C3315 1.332 . S
H3317 C3310 0.930 . S
H3318 C3341 0.930 . S
H3319 C3342 0.929 . S
O3320 Tb3276 2.465 . S
O3320 C3340 1.264 . S
O3321 Tb3276 2.387 . S
O3321 C3332 1.264 . S
O3322 Tb3287 2.349 . S
O3322 C3332 1.243 . S
O3323 Tb3276 2.428 . S
O3323 C3340 1.256 . S
O3324 Tb3276 2.308 . S
O3324 C3339 1.266 . S
O3325 Tb3287 2.393 . S
O3325 C3339 1.248 . S
O3326 Tb3287 2.465 . S
O3326 C3351 1.264 . S
O3327 Tb3287 2.387 . S
O3327 C3343 1.264 . S
O3328 Tb3276 2.349 . S
O3328 C3343 1.243 . S
O3329 Tb3287 2.428 . S
O3329 C3351 1.256 . S
O3330 Tb3287 2.308 . S
O3330 C3350 1.266 . S
O3331 Tb3276 2.393 . S
O3331 C3350 1.248 . S
C3332 O3321 1.264 . S
C3332 O3322 1.243 . S
C3333 C3336 1.399 . S
C3333 C3338 1.383 . S
C3333 C3340 1.496 . S
C3334 C3335 1.399 . S
C3334 C3338 1.389 . S
C3335 C3334 1.399 . S
C3335 C3337 1.380 . S
C3335 H3352 0.929 . S
C3336 C3333 1.399 . S
C3336 C3337 1.392 . S
C3336 H3353 0.929 . S
C3337 C3335 1.380 . S
C3337 C3336 1.392 . S
C3337 H3354 0.929 . S
C3338 C3333 1.383 . S
C3338 C3334 1.389 . S
C3338 H3355 0.931 . S
C3339 O3324 1.266 . S
C3339 O3325 1.248 . S
C3340 Tb3276 2.802 . S
C3340 O3320 1.264 . S
C3340 O3323 1.256 . S
C3340 C3333 1.496 . S
C3341 C3308 1.448 . S
C3341 H3318 0.930 . S
C3341 C3342 1.328 . S
C3342 C3313 1.427 . S
C3342 H3319 0.929 . S
C3342 C3341 1.328 . S
C3343 O3327 1.264 . S
C3343 O3328 1.243 . S
C3344 C3347 1.399 . S
C3344 C3348 1.383 . S
C3344 C3351 1.496 . S
C3345 C3346 1.399 . S
C3345 C3348 1.389 . S
C3346 C3345 1.399 . S
C3346 C3349 1.380 . S
C3346 H3356 0.929 . S
C3347 C3344 1.399 . S
C3347 C3349 1.392 . S
C3347 H3357 0.929 . S
C3348 C3344 1.383 . S
C3348 C3345 1.389 . S
C3348 H3358 0.931 . S
C3349 C3346 1.380 . S
C3349 C3347 1.392 . S
C3349 H3359 0.929 . S
C3350 O3330 1.266 . S
C3350 O3331 1.248 . S
C3351 Tb3287 2.802 . S
C3351 O3326 1.264 . S
C3351 O3329 1.256 . S
C3351 C3344 1.496 . S
H3352 C3335 0.929 . S
H3353 C3336 0.929 . S
H3354 C3337 0.929 . S
H3355 C3338 0.931 . S
H3356 C3346 0.929 . S
H3357 C3347 0.929 . S
H3358 C3348 0.931 . S
H3359 C3349 0.929 . S
Tb3360 N3389 2.617 . S
Tb3360 N3395 2.572 . S
Tb3360 O3404 2.465 . S
Tb3360 O3405 2.387 . S
Tb3360 O3407 2.428 . S
Tb3360 O3408 2.308 . S
Tb3360 O3412 2.349 . S
Tb3360 O3415 2.393 . S
Tb3360 C3424 2.802 . S
C3361 N3362 1.379 . S
C3361 C3364 1.416 . S
C3361 C3368 1.424 . S
N3362 C3361 1.379 . S
N3362 C3365 1.334 . S
N3362 Tb3371 2.617 . S
C3363 C3365 1.390 . S
C3363 C3366 1.339 . S
C3363 H3383 0.930 . S
C3364 C3361 1.416 . S
C3364 C3366 1.416 . S
C3364 C3370 1.448 . S
C3365 N3362 1.334 . S
C3365 C3363 1.390 . S
C3365 H3376 0.930 . S
C3366 C3363 1.339 . S
C3366 C3364 1.416 . S
C3366 H3387 0.930 . S
C3367 C3368 1.413 . S
C3367 C3369 1.427 . S
C3367 C3373 1.416 . S
C3368 C3361 1.424 . S
C3368 C3367 1.413 . S
C3368 N3372 1.361 . S
C3369 C3367 1.427 . S
C3369 C3370 1.328 . S
C3369 H3384 0.929 . S
C3370 C3364 1.448 . S
C3370 C3369 1.328 . S
C3370 H3385 0.930 . S
Tb3371 N3362 2.617 . S
Tb3371 N3372 2.572 . S
Tb3371 O3406 2.349 . S
Tb3371 O3409 2.393 . S
Tb3371 O3410 2.465 . S
Tb3371 O3411 2.387 . S
Tb3371 O3413 2.428 . S
Tb3371 O3414 2.308 . S
Tb3371 C3435 2.802 . S
N3372 C3368 1.361 . S
N3372 Tb3371 2.572 . S
N3372 C3374 1.340 . S
C3373 C3367 1.416 . S
C3373 C3375 1.332 . S
C3373 H3381 0.931 . S
C3374 N3372 1.340 . S
C3374 C3375 1.407 . S
C3374 H3380 0.930 . S
C3375 C3373 1.332 . S
C3375 C3374 1.407 . S
C3375 H3377 0.929 . S
H3376 C3365 0.930 . S
H3377 C3375 0.929 . S
H3378 C3393 0.930 . S
H3379 C3400 0.929 . S
H3380 C3374 0.930 . S
H3381 C3373 0.931 . S
H3382 C3396 0.930 . S
H3383 C3363 0.930 . S
H3384 C3369 0.929 . S
H3385 C3370 0.930 . S
H3386 C3391 0.930 . S
H3387 C3366 0.930 . S
H3388 C3399 0.931 . S
N3389 Tb3360 2.617 . S
N3389 C3390 1.379 . S
N3389 C3393 1.334 . S
C3390 N3389 1.379 . S
C3390 C3392 1.416 . S
C3390 C3398 1.424 . S
C3391 H3386 0.930 . S
C3391 C3393 1.390 . S
C3391 C3394 1.339 . S
C3392 C3390 1.416 . S
C3392 C3394 1.416 . S
C3392 C3425 1.448 . S
C3393 H3378 0.930 . S
C3393 N3389 1.334 . S
C3393 C3391 1.390 . S
C3394 C3391 1.339 . S
C3394 C3392 1.416 . S
C3394 H3401 0.930 . S
N3395 Tb3360 2.572 . S
N3395 C3396 1.340 . S
N3395 C3398 1.361 . S
C3396 H3382 0.930 . S
C3396 N3395 1.340 . S
C3396 C3400 1.407 . S
C3397 C3398 1.413 . S
C3397 C3399 1.416 . S
C3397 C3426 1.427 . S
C3398 C3390 1.424 . S
C3398 N3395 1.361 . S
C3398 C3397 1.413 . S
C3399 H3388 0.931 . S
C3399 C3397 1.416 . S
C3399 C3400 1.332 . S
C3400 H3379 0.929 . S
C3400 C3396 1.407 . S
C3400 C3399 1.332 . S
H3401 C3394 0.930 . S
H3402 C3425 0.930 . S
H3403 C3426 0.929 . S
O3404 Tb3360 2.465 . S
O3404 C3424 1.264 . S
O3405 Tb3360 2.387 . S
O3405 C3416 1.264 . S
O3406 Tb3371 2.349 . S
O3406 C3416 1.243 . S
O3407 Tb3360 2.428 . S
O3407 C3424 1.256 . S
O3408 Tb3360 2.308 . S
O3408 C3423 1.266 . S
O3409 Tb3371 2.393 . S
O3409 C3423 1.248 . S
O3410 Tb3371 2.465 . S
O3410 C3435 1.264 . S
O3411 Tb3371 2.387 . S
O3411 C3427 1.264 . S
O3412 Tb3360 2.349 . S
O3412 C3427 1.243 . S
O3413 Tb3371 2.428 . S
O3413 C3435 1.256 . S
O3414 Tb3371 2.308 . S
O3414 C3434 1.266 . S
O3415 Tb3360 2.393 . S
O3415 C3434 1.248 . S
C3416 O3405 1.264 . S
C3416 O3406 1.243 . S
C3417 C3420 1.399 . S
C3417 C3422 1.383 . S
C3417 C3424 1.496 . S
C3418 C3419 1.399 . S
C3418 C3422 1.389 . S
C3419 C3418 1.399 . S
C3419 C3421 1.380 . S
C3419 H3436 0.929 . S
C3420 C3417 1.399 . S
C3420 C3421 1.392 . S
C3420 H3437 0.929 . S
C3421 C3419 1.380 . S
C3421 C3420 1.392 . S
C3421 H3438 0.929 . S
C3422 C3417 1.383 . S
C3422 C3418 1.389 . S
C3422 H3439 0.931 . S
C3423 O3408 1.266 . S
C3423 O3409 1.248 . S
C3424 Tb3360 2.802 . S
C3424 O3404 1.264 . S
C3424 O3407 1.256 . S
C3424 C3417 1.496 . S
C3425 C3392 1.448 . S
C3425 H3402 0.930 . S
C3425 C3426 1.328 . S
C3426 C3397 1.427 . S
C3426 H3403 0.929 . S
C3426 C3425 1.328 . S
C3427 O3411 1.264 . S
C3427 O3412 1.243 . S
C3428 C3431 1.399 . S
C3428 C3432 1.383 . S
C3428 C3435 1.496 . S
C3429 C3430 1.399 . S
C3429 C3432 1.389 . S
C3430 C3429 1.399 . S
C3430 C3433 1.380 . S
C3430 H3440 0.929 . S
C3431 C3428 1.399 . S
C3431 C3433 1.392 . S
C3431 H3441 0.929 . S
C3432 C3428 1.383 . S
C3432 C3429 1.389 . S
C3432 H3442 0.931 . S
C3433 C3430 1.380 . S
C3433 C3431 1.392 . S
C3433 H3443 0.929 . S
C3434 O3414 1.266 . S
C3434 O3415 1.248 . S
C3435 Tb3371 2.802 . S
C3435 O3410 1.264 . S
C3435 O3413 1.256 . S
C3435 C3428 1.496 . S
H3436 C3419 0.929 . S
H3437 C3420 0.929 . S
H3438 C3421 0.929 . S
H3439 C3422 0.931 . S
H3440 C3430 0.929 . S
H3441 C3431 0.929 . S
H3442 C3432 0.931 . S
H3443 C3433 0.929 . S
Tb3444 N3473 2.617 . S
Tb3444 N3479 2.572 . S
Tb3444 O3488 2.465 . S
Tb3444 O3489 2.387 . S
Tb3444 O3491 2.428 . S
Tb3444 O3492 2.308 . S
Tb3444 O3496 2.349 . S
Tb3444 O3499 2.393 . S
Tb3444 C3508 2.802 . S
C3445 N3446 1.379 . S
C3445 C3448 1.416 . S
C3445 C3452 1.424 . S
N3446 C3445 1.379 . S
N3446 C3449 1.334 . S
N3446 Tb3455 2.617 . S
C3447 C3449 1.390 . S
C3447 C3450 1.339 . S
C3447 H3467 0.930 . S
C3448 C3445 1.416 . S
C3448 C3450 1.416 . S
C3448 C3454 1.448 . S
C3449 N3446 1.334 . S
C3449 C3447 1.390 . S
C3449 H3460 0.930 . S
C3450 C3447 1.339 . S
C3450 C3448 1.416 . S
C3450 H3471 0.930 . S
C3451 C3452 1.413 . S
C3451 C3453 1.427 . S
C3451 C3457 1.416 . S
C3452 C3445 1.424 . S
C3452 C3451 1.413 . S
C3452 N3456 1.361 . S
C3453 C3451 1.427 . S
C3453 C3454 1.328 . S
C3453 H3468 0.929 . S
C3454 C3448 1.448 . S
C3454 C3453 1.328 . S
C3454 H3469 0.930 . S
Tb3455 N3446 2.617 . S
Tb3455 N3456 2.572 . S
Tb3455 O3490 2.349 . S
Tb3455 O3493 2.393 . S
Tb3455 O3494 2.465 . S
Tb3455 O3495 2.387 . S
Tb3455 O3497 2.428 . S
Tb3455 O3498 2.308 . S
Tb3455 C3519 2.802 . S
N3456 C3452 1.361 . S
N3456 Tb3455 2.572 . S
N3456 C3458 1.340 . S
C3457 C3451 1.416 . S
C3457 C3459 1.332 . S
C3457 H3465 0.931 . S
C3458 N3456 1.340 . S
C3458 C3459 1.407 . S
C3458 H3464 0.930 . S
C3459 C3457 1.332 . S
C3459 C3458 1.407 . S
C3459 H3461 0.929 . S
H3460 C3449 0.930 . S
H3461 C3459 0.929 . S
H3462 C3477 0.930 . S
H3463 C3484 0.929 . S
H3464 C3458 0.930 . S
H3465 C3457 0.931 . S
H3466 C3480 0.930 . S
H3467 C3447 0.930 . S
H3468 C3453 0.929 . S
H3469 C3454 0.930 . S
H3470 C3475 0.930 . S
H3471 C3450 0.930 . S
H3472 C3483 0.931 . S
N3473 Tb3444 2.617 . S
N3473 C3474 1.379 . S
N3473 C3477 1.334 . S
C3474 N3473 1.379 . S
C3474 C3476 1.416 . S
C3474 C3482 1.424 . S
C3475 H3470 0.930 . S
C3475 C3477 1.390 . S
C3475 C3478 1.339 . S
C3476 C3474 1.416 . S
C3476 C3478 1.416 . S
C3476 C3509 1.448 . S
C3477 H3462 0.930 . S
C3477 N3473 1.334 . S
C3477 C3475 1.390 . S
C3478 C3475 1.339 . S
C3478 C3476 1.416 . S
C3478 H3485 0.930 . S
N3479 Tb3444 2.572 . S
N3479 C3480 1.340 . S
N3479 C3482 1.361 . S
C3480 H3466 0.930 . S
C3480 N3479 1.340 . S
C3480 C3484 1.407 . S
C3481 C3482 1.413 . S
C3481 C3483 1.416 . S
C3481 C3510 1.427 . S
C3482 C3474 1.424 . S
C3482 N3479 1.361 . S
C3482 C3481 1.413 . S
C3483 H3472 0.931 . S
C3483 C3481 1.416 . S
C3483 C3484 1.332 . S
C3484 H3463 0.929 . S
C3484 C3480 1.407 . S
C3484 C3483 1.332 . S
H3485 C3478 0.930 . S
H3486 C3509 0.930 . S
H3487 C3510 0.929 . S
O3488 Tb3444 2.465 . S
O3488 C3508 1.264 . S
O3489 Tb3444 2.387 . S
O3489 C3500 1.264 . S
O3490 Tb3455 2.349 . S
O3490 C3500 1.243 . S
O3491 Tb3444 2.428 . S
O3491 C3508 1.256 . S
O3492 Tb3444 2.308 . S
O3492 C3507 1.266 . S
O3493 Tb3455 2.393 . S
O3493 C3507 1.248 . S
O3494 Tb3455 2.465 . S
O3494 C3519 1.264 . S
O3495 Tb3455 2.387 . S
O3495 C3511 1.264 . S
O3496 Tb3444 2.349 . S
O3496 C3511 1.243 . S
O3497 Tb3455 2.428 . S
O3497 C3519 1.256 . S
O3498 Tb3455 2.308 . S
O3498 C3518 1.266 . S
O3499 Tb3444 2.393 . S
O3499 C3518 1.248 . S
C3500 O3489 1.264 . S
C3500 O3490 1.243 . S
C3501 C3504 1.399 . S
C3501 C3506 1.383 . S
C3501 C3508 1.496 . S
C3502 C3503 1.399 . S
C3502 C3506 1.389 . S
C3503 C3502 1.399 . S
C3503 C3505 1.380 . S
C3503 H3520 0.929 . S
C3504 C3501 1.399 . S
C3504 C3505 1.392 . S
C3504 H3521 0.929 . S
C3505 C3503 1.380 . S
C3505 C3504 1.392 . S
C3505 H3522 0.929 . S
C3506 C3501 1.383 . S
C3506 C3502 1.389 . S
C3506 H3523 0.931 . S
C3507 O3492 1.266 . S
C3507 O3493 1.248 . S
C3508 Tb3444 2.802 . S
C3508 O3488 1.264 . S
C3508 O3491 1.256 . S
C3508 C3501 1.496 . S
C3509 C3476 1.448 . S
C3509 H3486 0.930 . S
C3509 C3510 1.328 . S
C3510 C3481 1.427 . S
C3510 H3487 0.929 . S
C3510 C3509 1.328 . S
C3511 O3495 1.264 . S
C3511 O3496 1.243 . S
C3512 C3515 1.399 . S
C3512 C3516 1.383 . S
C3512 C3519 1.496 . S
C3513 C3514 1.399 . S
C3513 C3516 1.389 . S
C3514 C3513 1.399 . S
C3514 C3517 1.380 . S
C3514 H3524 0.929 . S
C3515 C3512 1.399 . S
C3515 C3517 1.392 . S
C3515 H3525 0.929 . S
C3516 C3512 1.383 . S
C3516 C3513 1.389 . S
C3516 H3526 0.931 . S
C3517 C3514 1.380 . S
C3517 C3515 1.392 . S
C3517 H3527 0.929 . S
C3518 O3498 1.266 . S
C3518 O3499 1.248 . S
C3519 Tb3455 2.802 . S
C3519 O3494 1.264 . S
C3519 O3497 1.256 . S
C3519 C3512 1.496 . S
H3520 C3503 0.929 . S
H3521 C3504 0.929 . S
H3522 C3505 0.929 . S
H3523 C3506 0.931 . S
H3524 C3514 0.929 . S
H3525 C3515 0.929 . S
H3526 C3516 0.931 . S
H3527 C3517 0.929 . S
Tb3528 N3557 2.617 . S
Tb3528 N3563 2.572 . S
Tb3528 O3572 2.465 . S
Tb3528 O3573 2.387 . S
Tb3528 O3575 2.428 . S
Tb3528 O3576 2.308 . S
Tb3528 O3580 2.349 . S
Tb3528 O3583 2.393 . S
Tb3528 C3592 2.802 . S
C3529 N3530 1.379 . S
C3529 C3532 1.416 . S
C3529 C3536 1.424 . S
N3530 C3529 1.379 . S
N3530 C3533 1.334 . S
N3530 Tb3539 2.617 . S
C3531 C3533 1.390 . S
C3531 C3534 1.339 . S
C3531 H3551 0.930 . S
C3532 C3529 1.416 . S
C3532 C3534 1.416 . S
C3532 C3538 1.448 . S
C3533 N3530 1.334 . S
C3533 C3531 1.390 . S
C3533 H3544 0.930 . S
C3534 C3531 1.339 . S
C3534 C3532 1.416 . S
C3534 H3555 0.930 . S
C3535 C3536 1.413 . S
C3535 C3537 1.427 . S
C3535 C3541 1.416 . S
C3536 C3529 1.424 . S
C3536 C3535 1.413 . S
C3536 N3540 1.361 . S
C3537 C3535 1.427 . S
C3537 C3538 1.328 . S
C3537 H3552 0.929 . S
C3538 C3532 1.448 . S
C3538 C3537 1.328 . S
C3538 H3553 0.930 . S
Tb3539 N3530 2.617 . S
Tb3539 N3540 2.572 . S
Tb3539 O3574 2.349 . S
Tb3539 O3577 2.393 . S
Tb3539 O3578 2.465 . S
Tb3539 O3579 2.387 . S
Tb3539 O3581 2.428 . S
Tb3539 O3582 2.308 . S
Tb3539 C3603 2.802 . S
N3540 C3536 1.361 . S
N3540 Tb3539 2.572 . S
N3540 C3542 1.340 . S
C3541 C3535 1.416 . S
C3541 C3543 1.332 . S
C3541 H3549 0.931 . S
C3542 N3540 1.340 . S
C3542 C3543 1.407 . S
C3542 H3548 0.930 . S
C3543 C3541 1.332 . S
C3543 C3542 1.407 . S
C3543 H3545 0.929 . S
H3544 C3533 0.930 . S
H3545 C3543 0.929 . S
H3546 C3561 0.930 . S
H3547 C3568 0.929 . S
H3548 C3542 0.930 . S
H3549 C3541 0.931 . S
H3550 C3564 0.930 . S
H3551 C3531 0.930 . S
H3552 C3537 0.929 . S
H3553 C3538 0.930 . S
H3554 C3559 0.930 . S
H3555 C3534 0.930 . S
H3556 C3567 0.931 . S
N3557 Tb3528 2.617 . S
N3557 C3558 1.379 . S
N3557 C3561 1.334 . S
C3558 N3557 1.379 . S
C3558 C3560 1.416 . S
C3558 C3566 1.424 . S
C3559 H3554 0.930 . S
C3559 C3561 1.390 . S
C3559 C3562 1.339 . S
C3560 C3558 1.416 . S
C3560 C3562 1.416 . S
C3560 C3593 1.448 . S
C3561 H3546 0.930 . S
C3561 N3557 1.334 . S
C3561 C3559 1.390 . S
C3562 C3559 1.339 . S
C3562 C3560 1.416 . S
C3562 H3569 0.930 . S
N3563 Tb3528 2.572 . S
N3563 C3564 1.340 . S
N3563 C3566 1.361 . S
C3564 H3550 0.930 . S
C3564 N3563 1.340 . S
C3564 C3568 1.407 . S
C3565 C3566 1.413 . S
C3565 C3567 1.416 . S
C3565 C3594 1.427 . S
C3566 C3558 1.424 . S
C3566 N3563 1.361 . S
C3566 C3565 1.413 . S
C3567 H3556 0.931 . S
C3567 C3565 1.416 . S
C3567 C3568 1.332 . S
C3568 H3547 0.929 . S
C3568 C3564 1.407 . S
C3568 C3567 1.332 . S
H3569 C3562 0.930 . S
H3570 C3593 0.930 . S
H3571 C3594 0.929 . S
O3572 Tb3528 2.465 . S
O3572 C3592 1.264 . S
O3573 Tb3528 2.387 . S
O3573 C3584 1.264 . S
O3574 Tb3539 2.349 . S
O3574 C3584 1.243 . S
O3575 Tb3528 2.428 . S
O3575 C3592 1.256 . S
O3576 Tb3528 2.308 . S
O3576 C3591 1.266 . S
O3577 Tb3539 2.393 . S
O3577 C3591 1.248 . S
O3578 Tb3539 2.465 . S
O3578 C3603 1.264 . S
O3579 Tb3539 2.387 . S
O3579 C3595 1.264 . S
O3580 Tb3528 2.349 . S
O3580 C3595 1.243 . S
O3581 Tb3539 2.428 . S
O3581 C3603 1.256 . S
O3582 Tb3539 2.308 . S
O3582 C3602 1.266 . S
O3583 Tb3528 2.393 . S
O3583 C3602 1.248 . S
C3584 O3573 1.264 . S
C3584 O3574 1.243 . S
C3585 C3588 1.399 . S
C3585 C3590 1.383 . S
C3585 C3592 1.496 . S
C3586 C3587 1.399 . S
C3586 C3590 1.389 . S
C3587 C3586 1.399 . S
C3587 C3589 1.380 . S
C3587 H3604 0.929 . S
C3588 C3585 1.399 . S
C3588 C3589 1.392 . S
C3588 H3605 0.929 . S
C3589 C3587 1.380 . S
C3589 C3588 1.392 . S
C3589 H3606 0.929 . S
C3590 C3585 1.383 . S
C3590 C3586 1.389 . S
C3590 H3607 0.931 . S
C3591 O3576 1.266 . S
C3591 O3577 1.248 . S
C3592 Tb3528 2.802 . S
C3592 O3572 1.264 . S
C3592 O3575 1.256 . S
C3592 C3585 1.496 . S
C3593 C3560 1.448 . S
C3593 H3570 0.930 . S
C3593 C3594 1.328 . S
C3594 C3565 1.427 . S
C3594 H3571 0.929 . S
C3594 C3593 1.328 . S
C3595 O3579 1.264 . S
C3595 O3580 1.243 . S
C3596 C3599 1.399 . S
C3596 C3600 1.383 . S
C3596 C3603 1.496 . S
C3597 C3598 1.399 . S
C3597 C3600 1.389 . S
C3598 C3597 1.399 . S
C3598 C3601 1.380 . S
C3598 H3608 0.929 . S
C3599 C3596 1.399 . S
C3599 C3601 1.392 . S
C3599 H3609 0.929 . S
C3600 C3596 1.383 . S
C3600 C3597 1.389 . S
C3600 H3610 0.931 . S
C3601 C3598 1.380 . S
C3601 C3599 1.392 . S
C3601 H3611 0.929 . S
C3602 O3582 1.266 . S
C3602 O3583 1.248 . S
C3603 Tb3539 2.802 . S
C3603 O3578 1.264 . S
C3603 O3581 1.256 . S
C3603 C3596 1.496 . S
H3604 C3587 0.929 . S
H3605 C3588 0.929 . S
H3606 C3589 0.929 . S
H3607 C3590 0.931 . S
H3608 C3598 0.929 . S
H3609 C3599 0.929 . S
H3610 C3600 0.931 . S
H3611 C3601 0.929 . S
Tb3612 N3641 2.617 . S
Tb3612 N3647 2.572 . S
Tb3612 O3656 2.465 . S
Tb3612 O3657 2.387 . S
Tb3612 O3659 2.428 . S
Tb3612 O3660 2.308 . S
Tb3612 O3664 2.349 . S
Tb3612 O3667 2.393 . S
Tb3612 C3676 2.802 . S
C3613 N3614 1.379 . S
C3613 C3616 1.416 . S
C3613 C3620 1.424 . S
N3614 C3613 1.379 . S
N3614 C3617 1.334 . S
N3614 Tb3623 2.617 . S
C3615 C3617 1.391 1_545 S
C3615 C3618 1.339 1_545 S
C3615 H3635 0.929 . S
C3616 C3613 1.416 . S
C3616 C3618 1.416 . S
C3616 C3622 1.448 . S
C3617 N3614 1.334 . S
C3617 C3615 1.391 1_565 S
C3617 H3628 0.930 . S
C3618 C3615 1.339 1_565 S
C3618 C3616 1.416 . S
C3618 H3639 0.930 1_565 S
C3619 C3620 1.413 . S
C3619 C3621 1.427 . S
C3619 C3625 1.416 . S
C3620 C3613 1.424 . S
C3620 C3619 1.413 . S
C3620 N3624 1.361 . S
C3621 C3619 1.427 . S
C3621 C3622 1.328 . S
C3621 H3636 0.929 . S
C3622 C3616 1.448 . S
C3622 C3621 1.328 . S
C3622 H3637 0.930 . S
Tb3623 N3614 2.617 . S
Tb3623 N3624 2.572 . S
Tb3623 O3658 2.349 . S
Tb3623 O3661 2.393 . S
Tb3623 O3662 2.465 . S
Tb3623 O3663 2.387 . S
Tb3623 O3665 2.428 . S
Tb3623 O3666 2.308 . S
Tb3623 C3687 2.802 . S
N3624 C3620 1.361 . S
N3624 Tb3623 2.572 . S
N3624 C3626 1.340 . S
C3625 C3619 1.416 . S
C3625 C3627 1.332 . S
C3625 H3633 0.931 . S
C3626 N3624 1.340 . S
C3626 C3627 1.407 . S
C3626 H3632 0.930 . S
C3627 C3625 1.332 . S
C3627 C3626 1.407 . S
C3627 H3629 0.929 . S
H3628 C3617 0.930 . S
H3629 C3627 0.929 . S
H3630 C3645 0.930 . S
H3631 C3652 0.929 . S
H3632 C3626 0.930 . S
H3633 C3625 0.931 . S
H3634 C3648 0.930 . S
H3635 C3615 0.929 . S
H3636 C3621 0.929 . S
H3637 C3622 0.930 . S
H3638 C3643 0.930 . S
H3639 C3618 0.930 1_545 S
H3640 C3651 0.931 . S
N3641 Tb3612 2.617 . S
N3641 C3642 1.379 . S
N3641 C3645 1.334 . S
C3642 N3641 1.379 . S
C3642 C3644 1.416 . S
C3642 C3650 1.424 . S
C3643 H3638 0.930 . S
C3643 C3645 1.390 . S
C3643 C3646 1.339 . S
C3644 C3642 1.416 . S
C3644 C3646 1.416 . S
C3644 C3677 1.448 . S
C3645 H3630 0.930 . S
C3645 N3641 1.334 . S
C3645 C3643 1.390 . S
C3646 C3643 1.339 . S
C3646 C3644 1.416 . S
C3646 H3653 0.930 . S
N3647 Tb3612 2.572 . S
N3647 C3648 1.340 . S
N3647 C3650 1.361 . S
C3648 H3634 0.930 . S
C3648 N3647 1.340 . S
C3648 C3652 1.407 . S
C3649 C3650 1.413 . S
C3649 C3651 1.416 . S
C3649 C3678 1.427 . S
C3650 C3642 1.424 . S
C3650 N3647 1.361 . S
C3650 C3649 1.413 . S
C3651 H3640 0.931 . S
C3651 C3649 1.416 . S
C3651 C3652 1.332 . S
C3652 H3631 0.929 . S
C3652 C3648 1.407 . S
C3652 C3651 1.332 . S
H3653 C3646 0.930 . S
H3654 C3677 0.930 . S
H3655 C3678 0.929 . S
O3656 Tb3612 2.465 . S
O3656 C3676 1.264 . S
O3657 Tb3612 2.387 . S
O3657 C3668 1.264 . S
O3658 Tb3623 2.349 . S
O3658 C3668 1.243 . S
O3659 Tb3612 2.428 . S
O3659 C3676 1.256 . S
O3660 Tb3612 2.308 . S
O3660 C3675 1.266 . S
O3661 Tb3623 2.393 . S
O3661 C3675 1.248 . S
O3662 Tb3623 2.465 . S
O3662 C3687 1.264 . S
O3663 Tb3623 2.387 . S
O3663 C3679 1.264 . S
O3664 Tb3612 2.349 . S
O3664 C3679 1.243 . S
O3665 Tb3623 2.428 . S
O3665 C3687 1.256 . S
O3666 Tb3623 2.308 . S
O3666 C3686 1.266 . S
O3667 Tb3612 2.393 . S
O3667 C3686 1.248 . S
C3668 O3657 1.264 . S
C3668 O3658 1.243 . S
C3669 C3672 1.399 . S
C3669 C3674 1.383 . S
C3669 C3676 1.496 . S
C3670 C3671 1.399 1_545 S
C3670 C3674 1.389 1_545 S
C3671 C3670 1.399 1_565 S
C3671 C3673 1.380 . S
C3671 H3688 0.929 . S
C3672 C3669 1.399 . S
C3672 C3673 1.392 . S
C3672 H3689 0.929 . S
C3673 C3671 1.380 . S
C3673 C3672 1.392 . S
C3673 H3690 0.929 . S
C3674 C3669 1.383 . S
C3674 C3670 1.389 1_565 S
C3674 H3691 0.914 1_565 S
C3675 O3660 1.266 . S
C3675 O3661 1.248 . S
C3676 Tb3612 2.802 . S
C3676 O3656 1.264 . S
C3676 O3659 1.256 . S
C3676 C3669 1.496 . S
C3677 C3644 1.448 . S
C3677 H3654 0.930 . S
C3677 C3678 1.328 . S
C3678 C3649 1.427 . S
C3678 H3655 0.929 . S
C3678 C3677 1.328 . S
C3679 O3663 1.264 . S
C3679 O3664 1.243 . S
C3680 C3683 1.399 . S
C3680 C3684 1.383 . S
C3680 C3687 1.496 . S
C3681 C3682 1.399 . S
C3681 C3684 1.389 . S
C3682 C3681 1.399 . S
C3682 C3685 1.380 . S
C3682 H3692 0.929 . S
C3683 C3680 1.399 . S
C3683 C3685 1.392 . S
C3683 H3693 0.929 . S
C3684 C3680 1.383 . S
C3684 C3681 1.389 . S
C3684 H3694 0.931 . S
C3685 C3682 1.380 . S
C3685 C3683 1.392 . S
C3685 H3695 0.929 . S
C3686 O3666 1.266 . S
C3686 O3667 1.248 . S
C3687 Tb3623 2.802 . S
C3687 O3662 1.264 . S
C3687 O3665 1.256 . S
C3687 C3680 1.496 . S
H3688 C3671 0.929 . S
H3689 C3672 0.929 . S
H3690 C3673 0.929 . S
H3691 C3674 0.914 1_545 S
H3692 C3682 0.929 . S
H3693 C3683 0.929 . S
H3694 C3684 0.931 . S
H3695 C3685 0.929 . S
Tb3696 N3725 2.617 . S
Tb3696 N3731 2.572 . S
Tb3696 O3740 2.465 . S
Tb3696 O3741 2.387 . S
Tb3696 O3743 2.428 . S
Tb3696 O3744 2.308 . S
Tb3696 O3748 2.349 . S
Tb3696 O3751 2.393 . S
Tb3696 C3760 2.802 . S
C3697 N3698 1.379 . S
C3697 C3700 1.416 . S
C3697 C3704 1.424 . S
N3698 C3697 1.379 . S
N3698 C3701 1.334 . S
N3698 Tb3707 2.617 . S
C3699 C3701 1.390 . S
C3699 C3702 1.339 . S
C3699 H3719 0.930 . S
C3700 C3697 1.416 . S
C3700 C3702 1.416 . S
C3700 C3706 1.448 . S
C3701 N3698 1.334 . S
C3701 C3699 1.390 . S
C3701 H3712 0.930 . S
C3702 C3699 1.339 . S
C3702 C3700 1.416 . S
C3702 H3723 0.930 . S
C3703 C3704 1.413 . S
C3703 C3705 1.427 . S
C3703 C3709 1.416 . S
C3704 C3697 1.424 . S
C3704 C3703 1.413 . S
C3704 N3708 1.361 . S
C3705 C3703 1.427 . S
C3705 C3706 1.328 . S
C3705 H3720 0.929 . S
C3706 C3700 1.448 . S
C3706 C3705 1.328 . S
C3706 H3721 0.930 . S
Tb3707 N3698 2.617 . S
Tb3707 N3708 2.572 . S
Tb3707 O3742 2.349 . S
Tb3707 O3745 2.393 . S
Tb3707 O3746 2.465 . S
Tb3707 O3747 2.387 . S
Tb3707 O3749 2.428 . S
Tb3707 O3750 2.308 . S
Tb3707 C3771 2.802 . S
N3708 C3704 1.361 . S
N3708 Tb3707 2.572 . S
N3708 C3710 1.340 . S
C3709 C3703 1.416 . S
C3709 C3711 1.332 . S
C3709 H3717 0.931 . S
C3710 N3708 1.340 . S
C3710 C3711 1.407 . S
C3710 H3716 0.930 . S
C3711 C3709 1.332 . S
C3711 C3710 1.407 . S
C3711 H3713 0.929 . S
H3712 C3701 0.930 . S
H3713 C3711 0.929 . S
H3714 C3729 0.930 . S
H3715 C3736 0.929 . S
H3716 C3710 0.930 . S
H3717 C3709 0.931 . S
H3718 C3732 0.930 . S
H3719 C3699 0.930 . S
H3720 C3705 0.929 . S
H3721 C3706 0.930 . S
H3722 C3727 0.930 . S
H3723 C3702 0.930 . S
H3724 C3735 0.931 . S
N3725 Tb3696 2.617 . S
N3725 C3726 1.379 . S
N3725 C3729 1.334 . S
C3726 N3725 1.379 . S
C3726 C3728 1.416 . S
C3726 C3734 1.424 . S
C3727 H3722 0.930 . S
C3727 C3729 1.390 . S
C3727 C3730 1.339 . S
C3728 C3726 1.416 . S
C3728 C3730 1.416 . S
C3728 C3761 1.448 . S
C3729 H3714 0.930 . S
C3729 N3725 1.334 . S
C3729 C3727 1.390 . S
C3730 C3727 1.339 . S
C3730 C3728 1.416 . S
C3730 H3737 0.930 . S
N3731 Tb3696 2.572 . S
N3731 C3732 1.340 . S
N3731 C3734 1.361 . S
C3732 H3718 0.930 . S
C3732 N3731 1.340 . S
C3732 C3736 1.407 . S
C3733 C3734 1.413 . S
C3733 C3735 1.416 . S
C3733 C3762 1.427 . S
C3734 C3726 1.424 . S
C3734 N3731 1.361 . S
C3734 C3733 1.413 . S
C3735 H3724 0.931 . S
C3735 C3733 1.416 . S
C3735 C3736 1.332 . S
C3736 H3715 0.929 . S
C3736 C3732 1.407 . S
C3736 C3735 1.332 . S
H3737 C3730 0.930 . S
H3738 C3761 0.930 . S
H3739 C3762 0.929 . S
O3740 Tb3696 2.465 . S
O3740 C3760 1.264 . S
O3741 Tb3696 2.387 . S
O3741 C3752 1.264 . S
O3742 Tb3707 2.349 . S
O3742 C3752 1.243 . S
O3743 Tb3696 2.428 . S
O3743 C3760 1.256 . S
O3744 Tb3696 2.308 . S
O3744 C3759 1.266 . S
O3745 Tb3707 2.393 . S
O3745 C3759 1.248 . S
O3746 Tb3707 2.465 . S
O3746 C3771 1.264 . S
O3747 Tb3707 2.387 . S
O3747 C3763 1.264 . S
O3748 Tb3696 2.349 . S
O3748 C3763 1.243 . S
O3749 Tb3707 2.428 . S
O3749 C3771 1.256 . S
O3750 Tb3707 2.308 . S
O3750 C3770 1.266 . S
O3751 Tb3696 2.393 . S
O3751 C3770 1.248 . S
C3752 O3741 1.264 . S
C3752 O3742 1.243 . S
C3753 C3756 1.399 . S
C3753 C3758 1.383 . S
C3753 C3760 1.496 . S
C3754 C3755 1.399 . S
C3754 C3758 1.389 . S
C3755 C3754 1.399 . S
C3755 C3757 1.380 . S
C3755 H3772 0.929 . S
C3756 C3753 1.399 . S
C3756 C3757 1.392 . S
C3756 H3773 0.929 . S
C3757 C3755 1.380 . S
C3757 C3756 1.392 . S
C3757 H3774 0.929 . S
C3758 C3753 1.383 . S
C3758 C3754 1.389 . S
C3758 H3775 0.931 . S
C3759 O3744 1.266 . S
C3759 O3745 1.248 . S
C3760 Tb3696 2.802 . S
C3760 O3740 1.264 . S
C3760 O3743 1.256 . S
C3760 C3753 1.496 . S
C3761 C3728 1.448 . S
C3761 H3738 0.930 . S
C3761 C3762 1.328 . S
C3762 C3733 1.427 . S
C3762 H3739 0.929 . S
C3762 C3761 1.328 . S
C3763 O3747 1.264 . S
C3763 O3748 1.243 . S
C3764 C3767 1.399 . S
C3764 C3768 1.383 . S
C3764 C3771 1.496 . S
C3765 C3766 1.399 . S
C3765 C3768 1.389 . S
C3766 C3765 1.399 . S
C3766 C3769 1.380 . S
C3766 H3776 0.929 . S
C3767 C3764 1.399 . S
C3767 C3769 1.392 . S
C3767 H3777 0.929 . S
C3768 C3764 1.383 . S
C3768 C3765 1.389 . S
C3768 H3778 0.931 . S
C3769 C3766 1.380 . S
C3769 C3767 1.392 . S
C3769 H3779 0.929 . S
C3770 O3750 1.266 . S
C3770 O3751 1.248 . S
C3771 Tb3707 2.802 . S
C3771 O3746 1.264 . S
C3771 O3749 1.256 . S
C3771 C3764 1.496 . S
H3772 C3755 0.929 . S
H3773 C3756 0.929 . S
H3774 C3757 0.929 . S
H3775 C3758 0.931 . S
H3776 C3766 0.929 . S
H3777 C3767 0.929 . S
H3778 C3768 0.931 . S
H3779 C3769 0.929 . S
Tb3780 N3809 2.617 . S
Tb3780 N3815 2.572 . S
Tb3780 O3824 2.465 . S
Tb3780 O3825 2.387 . S
Tb3780 O3827 2.428 . S
Tb3780 O3828 2.308 . S
Tb3780 O3832 2.349 . S
Tb3780 O3835 2.393 . S
Tb3780 C3844 2.802 . S
C3781 N3782 1.379 . S
C3781 C3784 1.416 . S
C3781 C3788 1.424 . S
N3782 C3781 1.379 . S
N3782 C3785 1.334 . S
N3782 Tb3791 2.617 . S
C3783 C3785 1.390 . S
C3783 C3786 1.339 . S
C3783 H3803 0.930 . S
C3784 C3781 1.416 . S
C3784 C3786 1.416 . S
C3784 C3790 1.448 . S
C3785 N3782 1.334 . S
C3785 C3783 1.390 . S
C3785 H3796 0.930 . S
C3786 C3783 1.339 . S
C3786 C3784 1.416 . S
C3786 H3807 0.930 . S
C3787 C3788 1.413 . S
C3787 C3789 1.427 . S
C3787 C3793 1.416 . S
C3788 C3781 1.424 . S
C3788 C3787 1.413 . S
C3788 N3792 1.361 . S
C3789 C3787 1.427 . S
C3789 C3790 1.328 . S
C3789 H3804 0.929 . S
C3790 C3784 1.448 . S
C3790 C3789 1.328 . S
C3790 H3805 0.930 . S
Tb3791 N3782 2.617 . S
Tb3791 N3792 2.572 . S
Tb3791 O3826 2.349 . S
Tb3791 O3829 2.393 . S
Tb3791 O3830 2.465 . S
Tb3791 O3831 2.387 . S
Tb3791 O3833 2.428 . S
Tb3791 O3834 2.308 . S
Tb3791 C3855 2.802 . S
N3792 C3788 1.361 . S
N3792 Tb3791 2.572 . S
N3792 C3794 1.340 . S
C3793 C3787 1.416 . S
C3793 C3795 1.332 . S
C3793 H3801 0.931 . S
C3794 N3792 1.340 . S
C3794 C3795 1.407 . S
C3794 H3800 0.930 . S
C3795 C3793 1.332 . S
C3795 C3794 1.407 . S
C3795 H3797 0.929 . S
H3796 C3785 0.930 . S
H3797 C3795 0.929 . S
H3798 C3813 0.930 . S
H3799 C3820 0.929 . S
H3800 C3794 0.930 . S
H3801 C3793 0.931 . S
H3802 C3816 0.930 . S
H3803 C3783 0.930 . S
H3804 C3789 0.929 . S
H3805 C3790 0.930 . S
H3806 C3811 0.930 . S
H3807 C3786 0.930 . S
H3808 C3819 0.931 . S
N3809 Tb3780 2.617 . S
N3809 C3810 1.379 . S
N3809 C3813 1.334 . S
C3810 N3809 1.379 . S
C3810 C3812 1.416 . S
C3810 C3818 1.424 . S
C3811 H3806 0.930 . S
C3811 C3813 1.390 . S
C3811 C3814 1.339 . S
C3812 C3810 1.416 . S
C3812 C3814 1.416 . S
C3812 C3845 1.448 . S
C3813 H3798 0.930 . S
C3813 N3809 1.334 . S
C3813 C3811 1.390 . S
C3814 C3811 1.339 . S
C3814 C3812 1.416 . S
C3814 H3821 0.930 . S
N3815 Tb3780 2.572 . S
N3815 C3816 1.340 . S
N3815 C3818 1.361 . S
C3816 H3802 0.930 . S
C3816 N3815 1.340 . S
C3816 C3820 1.407 . S
C3817 C3818 1.413 . S
C3817 C3819 1.416 . S
C3817 C3846 1.427 . S
C3818 C3810 1.424 . S
C3818 N3815 1.361 . S
C3818 C3817 1.413 . S
C3819 H3808 0.931 . S
C3819 C3817 1.416 . S
C3819 C3820 1.332 . S
C3820 H3799 0.929 . S
C3820 C3816 1.407 . S
C3820 C3819 1.332 . S
H3821 C3814 0.930 . S
H3822 C3845 0.930 . S
H3823 C3846 0.929 . S
O3824 Tb3780 2.465 . S
O3824 C3844 1.264 . S
O3825 Tb3780 2.387 . S
O3825 C3836 1.264 . S
O3826 Tb3791 2.349 . S
O3826 C3836 1.243 . S
O3827 Tb3780 2.428 . S
O3827 C3844 1.256 . S
O3828 Tb3780 2.308 . S
O3828 C3843 1.266 . S
O3829 Tb3791 2.393 . S
O3829 C3843 1.248 . S
O3830 Tb3791 2.465 . S
O3830 C3855 1.264 . S
O3831 Tb3791 2.387 . S
O3831 C3847 1.264 . S
O3832 Tb3780 2.349 . S
O3832 C3847 1.243 . S
O3833 Tb3791 2.428 . S
O3833 C3855 1.256 . S
O3834 Tb3791 2.308 . S
O3834 C3854 1.266 . S
O3835 Tb3780 2.393 . S
O3835 C3854 1.248 . S
C3836 O3825 1.264 . S
C3836 O3826 1.243 . S
C3837 C3840 1.399 . S
C3837 C3842 1.383 . S
C3837 C3844 1.496 . S
C3838 C3839 1.399 . S
C3838 C3842 1.389 . S
C3839 C3838 1.399 . S
C3839 C3841 1.380 . S
C3839 H3856 0.929 . S
C3840 C3837 1.399 . S
C3840 C3841 1.392 . S
C3840 H3857 0.929 . S
C3841 C3839 1.380 . S
C3841 C3840 1.392 . S
C3841 H3858 0.929 . S
C3842 C3837 1.383 . S
C3842 C3838 1.389 . S
C3842 H3859 0.931 . S
C3843 O3828 1.266 . S
C3843 O3829 1.248 . S
C3844 Tb3780 2.802 . S
C3844 O3824 1.264 . S
C3844 O3827 1.256 . S
C3844 C3837 1.496 . S
C3845 C3812 1.448 . S
C3845 H3822 0.930 . S
C3845 C3846 1.328 . S
C3846 C3817 1.427 . S
C3846 H3823 0.929 . S
C3846 C3845 1.328 . S
C3847 O3831 1.264 . S
C3847 O3832 1.243 . S
C3848 C3851 1.399 . S
C3848 C3852 1.383 . S
C3848 C3855 1.496 . S
C3849 C3850 1.399 . S
C3849 C3852 1.389 . S
C3850 C3849 1.399 . S
C3850 C3853 1.380 . S
C3850 H3860 0.929 . S
C3851 C3848 1.399 . S
C3851 C3853 1.392 . S
C3851 H3861 0.929 . S
C3852 C3848 1.383 . S
C3852 C3849 1.389 . S
C3852 H3862 0.931 . S
C3853 C3850 1.380 . S
C3853 C3851 1.392 . S
C3853 H3863 0.929 . S
C3854 O3834 1.266 . S
C3854 O3835 1.248 . S
C3855 Tb3791 2.802 . S
C3855 O3830 1.264 . S
C3855 O3833 1.256 . S
C3855 C3848 1.496 . S
H3856 C3839 0.929 . S
H3857 C3840 0.929 . S
H3858 C3841 0.929 . S
H3859 C3842 0.931 . S
H3860 C3850 0.929 . S
H3861 C3851 0.929 . S
H3862 C3852 0.931 . S
H3863 C3853 0.929 . S
Tb3864 N3893 2.617 . S
Tb3864 N3899 2.572 . S
Tb3864 O3908 2.465 . S
Tb3864 O3909 2.387 . S
Tb3864 O3911 2.428 . S
Tb3864 O3912 2.308 . S
Tb3864 O3916 2.349 . S
Tb3864 O3919 2.393 . S
Tb3864 C3928 2.802 . S
C3865 N3866 1.379 . S
C3865 C3868 1.416 . S
C3865 C3872 1.424 . S
N3866 C3865 1.379 . S
N3866 C3869 1.334 . S
N3866 Tb3875 2.617 . S
C3867 C3869 1.390 . S
C3867 C3870 1.339 . S
C3867 H3887 0.930 1_655 S
C3868 C3865 1.416 . S
C3868 C3870 1.416 . S
C3868 C3874 1.448 . S
C3869 N3866 1.334 . S
C3869 C3867 1.390 . S
C3869 H3880 0.930 . S
C3870 C3867 1.339 . S
C3870 C3868 1.416 . S
C3870 H3891 0.909 1_655 S
C3871 C3872 1.413 . S
C3871 C3873 1.427 . S
C3871 C3877 1.416 . S
C3872 C3865 1.424 . S
C3872 C3871 1.413 . S
C3872 N3876 1.361 . S
C3873 C3871 1.427 . S
C3873 C3874 1.328 . S
C3873 H3888 0.929 . S
C3874 C3868 1.448 . S
C3874 C3873 1.328 . S
C3874 H3889 0.930 . S
Tb3875 N3866 2.617 . S
Tb3875 N3876 2.572 . S
Tb3875 O3910 2.349 . S
Tb3875 O3913 2.393 . S
Tb3875 O3914 2.465 . S
Tb3875 O3915 2.387 . S
Tb3875 O3917 2.428 . S
Tb3875 O3918 2.308 . S
Tb3875 C3939 2.802 . S
N3876 C3872 1.361 . S
N3876 Tb3875 2.572 . S
N3876 C3878 1.340 . S
C3877 C3871 1.416 . S
C3877 C3879 1.332 . S
C3877 H3885 0.931 . S
C3878 N3876 1.340 . S
C3878 C3879 1.407 . S
C3878 H3884 0.930 . S
C3879 C3877 1.332 . S
C3879 C3878 1.407 . S
C3879 H3881 0.929 . S
H3880 C3869 0.930 . S
H3881 C3879 0.929 . S
H3882 C3897 0.930 . S
H3883 C3904 0.929 . S
H3884 C3878 0.930 . S
H3885 C3877 0.931 . S
H3886 C3900 0.930 . S
H3887 C3867 0.930 1_455 S
H3888 C3873 0.929 . S
H3889 C3874 0.930 . S
H3890 C3895 0.930 . S
H3891 C3870 0.909 1_455 S
H3892 C3903 0.931 . S
N3893 Tb3864 2.617 . S
N3893 C3894 1.379 . S
N3893 C3897 1.334 . S
C3894 N3893 1.379 . S
C3894 C3896 1.416 . S
C3894 C3902 1.424 . S
C3895 H3890 0.930 . S
C3895 C3897 1.390 . S
C3895 C3898 1.339 . S
C3896 C3894 1.416 . S
C3896 C3898 1.416 . S
C3896 C3929 1.448 . S
C3897 H3882 0.930 . S
C3897 N3893 1.334 . S
C3897 C3895 1.390 . S
C3898 C3895 1.339 . S
C3898 C3896 1.416 . S
C3898 H3905 0.930 . S
N3899 Tb3864 2.572 . S
N3899 C3900 1.340 . S
N3899 C3902 1.361 . S
C3900 H3886 0.930 . S
C3900 N3899 1.340 . S
C3900 C3904 1.407 . S
C3901 C3902 1.413 . S
C3901 C3903 1.416 . S
C3901 C3930 1.427 . S
C3902 C3894 1.424 . S
C3902 N3899 1.361 . S
C3902 C3901 1.413 . S
C3903 H3892 0.931 . S
C3903 C3901 1.416 . S
C3903 C3904 1.332 . S
C3904 H3883 0.929 . S
C3904 C3900 1.407 . S
C3904 C3903 1.332 . S
H3905 C3898 0.930 . S
H3906 C3929 0.930 . S
H3907 C3930 0.929 . S
O3908 Tb3864 2.465 . S
O3908 C3928 1.264 . S
O3909 Tb3864 2.387 . S
O3909 C3920 1.264 . S
O3910 Tb3875 2.349 . S
O3910 C3920 1.243 . S
O3911 Tb3864 2.428 . S
O3911 C3928 1.256 . S
O3912 Tb3864 2.308 . S
O3912 C3927 1.266 . S
O3913 Tb3875 2.393 . S
O3913 C3927 1.248 . S
O3914 Tb3875 2.465 . S
O3914 C3939 1.264 . S
O3915 Tb3875 2.387 . S
O3915 C3931 1.264 . S
O3916 Tb3864 2.349 . S
O3916 C3931 1.243 . S
O3917 Tb3875 2.428 . S
O3917 C3939 1.256 . S
O3918 Tb3875 2.308 . S
O3918 C3938 1.266 . S
O3919 Tb3864 2.393 . S
O3919 C3938 1.248 . S
C3920 O3909 1.264 . S
C3920 O3910 1.243 . S
C3921 C3924 1.399 . S
C3921 C3926 1.383 . S
C3921 C3928 1.496 . S
C3922 C3923 1.380 1_455 S
C3922 C3926 1.369 1_455 S
C3923 C3922 1.380 1_655 S
C3923 C3925 1.380 . S
C3923 H3940 0.929 . S
C3924 C3921 1.399 . S
C3924 C3925 1.392 . S
C3924 H3941 0.929 . S
C3925 C3923 1.380 . S
C3925 C3924 1.392 . S
C3925 H3942 0.929 . S
C3926 C3921 1.383 . S
C3926 C3922 1.369 1_655 S
C3926 H3943 0.931 . S
C3927 O3912 1.266 . S
C3927 O3913 1.248 . S
C3928 Tb3864 2.802 . S
C3928 O3908 1.264 . S
C3928 O3911 1.256 . S
C3928 C3921 1.496 . S
C3929 C3896 1.448 . S
C3929 H3906 0.930 . S
C3929 C3930 1.328 . S
C3930 C3901 1.427 . S
C3930 H3907 0.929 . S
C3930 C3929 1.328 . S
C3931 O3915 1.264 . S
C3931 O3916 1.243 . S
C3932 C3935 1.399 . S
C3932 C3936 1.383 . S
C3932 C3939 1.496 . S
C3933 C3934 1.399 . S
C3933 C3936 1.389 . S
C3934 C3933 1.399 . S
C3934 C3937 1.380 . S
C3934 H3944 0.929 . S
C3935 C3932 1.399 . S
C3935 C3937 1.392 . S
C3935 H3945 0.929 . S
C3936 C3932 1.383 . S
C3936 C3933 1.389 . S
C3936 H3946 0.931 . S
C3937 C3934 1.380 . S
C3937 C3935 1.392 . S
C3937 H3947 0.929 . S
C3938 O3918 1.266 . S
C3938 O3919 1.248 . S
C3939 Tb3875 2.802 . S
C3939 O3914 1.264 . S
C3939 O3917 1.256 . S
C3939 C3932 1.496 . S
H3940 C3923 0.929 . S
H3941 C3924 0.929 . S
H3942 C3925 0.929 . S
H3943 C3926 0.931 . S
H3944 C3934 0.929 . S
H3945 C3935 0.929 . S
H3946 C3936 0.931 . S
H3947 C3937 0.929 . S
Tb3948 N3977 2.617 . S
Tb3948 N3983 2.572 . S
Tb3948 O3992 2.465 . S
Tb3948 O3993 2.387 . S
Tb3948 O3995 2.428 . S
Tb3948 O3996 2.308 . S
Tb3948 O4000 2.349 . S
Tb3948 O4003 2.393 . S
Tb3948 C4012 2.802 . S
C3949 N3950 1.379 . S
C3949 C3952 1.416 . S
C3949 C3956 1.424 . S
N3950 C3949 1.379 . S
N3950 C3953 1.334 . S
N3950 Tb3959 2.617 . S
C3951 C3953 1.390 . S
C3951 C3954 1.339 . S
C3951 H3971 0.930 . S
C3952 C3949 1.416 . S
C3952 C3954 1.416 . S
C3952 C3958 1.448 . S
C3953 N3950 1.334 . S
C3953 C3951 1.390 . S
C3953 H3964 0.930 . S
C3954 C3951 1.339 . S
C3954 C3952 1.416 . S
C3954 H3975 0.930 . S
C3955 C3956 1.413 . S
C3955 C3957 1.427 . S
C3955 C3961 1.416 . S
C3956 C3949 1.424 . S
C3956 C3955 1.413 . S
C3956 N3960 1.361 . S
C3957 C3955 1.427 . S
C3957 C3958 1.328 . S
C3957 H3972 0.929 . S
C3958 C3952 1.448 . S
C3958 C3957 1.328 . S
C3958 H3973 0.930 . S
Tb3959 N3950 2.617 . S
Tb3959 N3960 2.572 . S
Tb3959 O3994 2.349 . S
Tb3959 O3997 2.393 . S
Tb3959 O3998 2.465 . S
Tb3959 O3999 2.387 . S
Tb3959 O4001 2.428 . S
Tb3959 O4002 2.308 . S
Tb3959 C4023 2.802 . S
N3960 C3956 1.361 . S
N3960 Tb3959 2.572 . S
N3960 C3962 1.340 . S
C3961 C3955 1.416 . S
C3961 C3963 1.332 . S
C3961 H3969 0.931 . S
C3962 N3960 1.340 . S
C3962 C3963 1.407 . S
C3962 H3968 0.930 . S
C3963 C3961 1.332 . S
C3963 C3962 1.407 . S
C3963 H3965 0.929 . S
H3964 C3953 0.930 . S
H3965 C3963 0.929 . S
H3966 C3981 0.930 . S
H3967 C3988 0.929 . S
H3968 C3962 0.930 . S
H3969 C3961 0.931 . S
H3970 C3984 0.930 . S
H3971 C3951 0.930 . S
H3972 C3957 0.929 . S
H3973 C3958 0.930 . S
H3974 C3979 0.930 . S
H3975 C3954 0.930 . S
H3976 C3987 0.931 . S
N3977 Tb3948 2.617 . S
N3977 C3978 1.379 . S
N3977 C3981 1.334 . S
C3978 N3977 1.379 . S
C3978 C3980 1.416 . S
C3978 C3986 1.424 . S
C3979 H3974 0.930 . S
C3979 C3981 1.390 . S
C3979 C3982 1.339 . S
C3980 C3978 1.416 . S
C3980 C3982 1.416 . S
C3980 C4013 1.448 . S
C3981 H3966 0.930 . S
C3981 N3977 1.334 . S
C3981 C3979 1.390 . S
C3982 C3979 1.339 . S
C3982 C3980 1.416 . S
C3982 H3989 0.930 . S
N3983 Tb3948 2.572 . S
N3983 C3984 1.340 . S
N3983 C3986 1.361 . S
C3984 H3970 0.930 . S
C3984 N3983 1.340 . S
C3984 C3988 1.407 . S
C3985 C3986 1.413 . S
C3985 C3987 1.416 . S
C3985 C4014 1.427 . S
C3986 C3978 1.424 . S
C3986 N3983 1.361 . S
C3986 C3985 1.413 . S
C3987 H3976 0.931 . S
C3987 C3985 1.416 . S
C3987 C3988 1.332 . S
C3988 H3967 0.929 . S
C3988 C3984 1.407 . S
C3988 C3987 1.332 . S
H3989 C3982 0.930 . S
H3990 C4013 0.930 . S
H3991 C4014 0.929 . S
O3992 Tb3948 2.465 . S
O3992 C4012 1.264 . S
O3993 Tb3948 2.387 . S
O3993 C4004 1.264 . S
O3994 Tb3959 2.349 . S
O3994 C4004 1.243 . S
O3995 Tb3948 2.428 . S
O3995 C4012 1.256 . S
O3996 Tb3948 2.308 . S
O3996 C4011 1.266 . S
O3997 Tb3959 2.393 . S
O3997 C4011 1.248 . S
O3998 Tb3959 2.465 . S
O3998 C4023 1.264 . S
O3999 Tb3959 2.387 . S
O3999 C4015 1.264 . S
O4000 Tb3948 2.349 . S
O4000 C4015 1.243 . S
O4001 Tb3959 2.428 . S
O4001 C4023 1.256 . S
O4002 Tb3959 2.308 . S
O4002 C4022 1.266 . S
O4003 Tb3948 2.393 . S
O4003 C4022 1.248 . S
C4004 O3993 1.264 . S
C4004 O3994 1.243 . S
C4005 C4008 1.399 . S
C4005 C4010 1.383 . S
C4005 C4012 1.496 . S
C4006 C4007 1.399 . S
C4006 C4010 1.389 . S
C4007 C4006 1.399 . S
C4007 C4009 1.380 . S
C4007 H4024 0.929 . S
C4008 C4005 1.399 . S
C4008 C4009 1.392 . S
C4008 H4025 0.929 . S
C4009 C4007 1.380 . S
C4009 C4008 1.392 . S
C4009 H4026 0.929 . S
C4010 C4005 1.383 . S
C4010 C4006 1.389 . S
C4010 H4027 0.931 . S
C4011 O3996 1.266 . S
C4011 O3997 1.248 . S
C4012 Tb3948 2.802 . S
C4012 O3992 1.264 . S
C4012 O3995 1.256 . S
C4012 C4005 1.496 . S
C4013 C3980 1.448 . S
C4013 H3990 0.930 . S
C4013 C4014 1.328 . S
C4014 C3985 1.427 . S
C4014 H3991 0.929 . S
C4014 C4013 1.328 . S
C4015 O3999 1.264 . S
C4015 O4000 1.243 . S
C4016 C4019 1.399 . S
C4016 C4020 1.383 . S
C4016 C4023 1.496 . S
C4017 C4018 1.399 . S
C4017 C4020 1.389 . S
C4018 C4017 1.399 . S
C4018 C4021 1.380 . S
C4018 H4028 0.929 . S
C4019 C4016 1.399 . S
C4019 C4021 1.392 . S
C4019 H4029 0.929 . S
C4020 C4016 1.383 . S
C4020 C4017 1.389 . S
C4020 H4030 0.931 . S
C4021 C4018 1.380 . S
C4021 C4019 1.392 . S
C4021 H4031 0.929 . S
C4022 O4002 1.266 . S
C4022 O4003 1.248 . S
C4023 Tb3959 2.802 . S
C4023 O3998 1.264 . S
C4023 O4001 1.256 . S
C4023 C4016 1.496 . S
H4024 C4007 0.929 . S
H4025 C4008 0.929 . S
H4026 C4009 0.929 . S
H4027 C4010 0.931 . S
H4028 C4018 0.929 . S
H4029 C4019 0.929 . S
H4030 C4020 0.931 . S
H4031 C4021 0.929 . S
H4032 C4038 0.930 . S
H4033 C4041 0.930 . S
H4034 C4042 0.930 . S
H4035 C4043 0.930 . S
H4036 C4046 0.930 . S
H4037 C4047 0.930 . S
C4038 H4032 0.930 . S
C4038 C4039 1.355 . S
C4038 C4040 1.415 . S
C4039 C4038 1.355 . S
C4039 C4041 1.419 . S
C4040 C4038 1.415 . S
C4040 C4045 1.425 . S
C4040 C4047 1.409 . S
C4041 H4033 0.930 . S
C4041 C4039 1.419 . S
C4041 C4042 1.362 . S
C4042 H4034 0.930 . S
C4042 C4041 1.362 . S
C4042 C4045 1.409 . S
C4043 H4035 0.930 . S
C4043 C4044 1.355 . S
C4043 C4045 1.415 . S
C4044 C4043 1.355 . S
C4044 C4046 1.419 . S
C4045 C4040 1.425 . S
C4045 C4042 1.409 . S
C4045 C4043 1.415 . S
C4046 H4036 0.930 . S
C4046 C4044 1.419 . S
C4046 C4047 1.362 . S
C4047 H4037 0.930 . S
C4047 C4040 1.409 . S
C4047 C4046 1.362 . S
H4048 C4054 0.930 . S
H4049 C4057 0.930 . S
H4050 C4058 0.930 . S
H4051 C4059 0.924 1_545 S
H4052 C4062 0.930 . S
H4053 C4063 0.930 . S
C4054 H4048 0.930 . S
C4054 C4055 1.355 . S
C4054 C4056 1.415 . S
C4055 C4054 1.355 . S
C4055 C4057 1.419 1_565 S
C4056 C4054 1.415 . S
C4056 C4061 1.425 . S
C4056 C4063 1.409 . S
C4057 H4049 0.930 . S
C4057 C4055 1.419 1_545 S
C4057 C4058 1.362 . S
C4058 H4050 0.930 . S
C4058 C4057 1.362 . S
C4058 C4061 1.409 1_545 S
C4059 H4051 0.924 1_565 S
C4059 C4060 1.355 . S
C4059 C4061 1.415 . S
C4060 C4059 1.355 . S
C4060 C4062 1.419 . S
C4061 C4056 1.425 . S
C4061 C4058 1.409 1_565 S
C4061 C4059 1.415 . S
C4062 H4052 0.930 . S
C4062 C4060 1.419 . S
C4062 C4063 1.362 . S
C4063 H4053 0.930 . S
C4063 C4056 1.409 . S
C4063 C4062 1.362 . S
H4064 C4070 0.930 1_655 S
H4065 C4073 0.930 . S
H4066 C4074 0.930 . S
H4067 C4075 0.930 . S
H4068 C4078 0.930 . S
H4069 C4079 0.930 . S
C4070 H4064 0.930 1_455 S
C4070 C4071 1.355 . S
C4070 C4072 1.415 . S
C4071 C4070 1.355 . S
C4071 C4073 1.419 . S
C4072 C4070 1.415 . S
C4072 C4077 1.425 . S
C4072 C4079 1.409 1_455 S
C4073 H4065 0.930 . S
C4073 C4071 1.419 . S
C4073 C4074 1.362 . S
C4074 H4066 0.930 . S
C4074 C4073 1.362 . S
C4074 C4077 1.409 . S
C4075 H4067 0.930 . S
C4075 C4076 1.355 . S
C4075 C4077 1.415 . S
C4076 C4075 1.355 . S
C4076 C4078 1.419 1_455 S
C4077 C4072 1.425 . S
C4077 C4074 1.409 . S
C4077 C4075 1.415 . S
C4078 H4068 0.930 . S
C4078 C4076 1.419 1_655 S
C4078 C4079 1.362 . S
C4079 H4069 0.930 . S
C4079 C4072 1.409 1_655 S
C4079 C4078 1.362 . S
H4080 C4086 0.930 . S
H4081 C4089 0.930 . S
H4082 C4090 0.930 . S
H4083 C4091 0.930 . S
H4084 C4094 0.930 . S
H4085 C4095 0.930 . S
C4086 H4080 0.930 . S
C4086 C4087 1.355 . S
C4086 C4088 1.415 . S
C4087 C4086 1.355 . S
C4087 C4089 1.419 . S
C4088 C4086 1.415 . S
C4088 C4093 1.425 . S
C4088 C4095 1.409 . S
C4089 H4081 0.930 . S
C4089 C4087 1.419 . S
C4089 C4090 1.362 . S
C4090 H4082 0.930 . S
C4090 C4089 1.362 . S
C4090 C4093 1.409 . S
C4091 H4083 0.930 . S
C4091 C4092 1.355 . S
C4091 C4093 1.415 . S
C4092 C4091 1.355 . S
C4092 C4094 1.419 . S
C4093 C4088 1.425 . S
C4093 C4090 1.409 . S
C4093 C4091 1.415 . S
C4094 H4084 0.930 . S
C4094 C4092 1.419 . S
C4094 C4095 1.362 . S
C4095 H4085 0.930 . S
C4095 C4088 1.409 . S
C4095 C4094 1.362 . S
H4096 C4102 0.930 . S
H4097 C4105 0.930 . S
H4098 C4106 0.930 . S
H4099 C4107 0.930 . S
H4100 C4110 0.930 . S
H4101 C4111 0.930 . S
C4102 H4096 0.930 . S
C4102 C4103 1.355 . S
C4102 C4104 1.415 . S
C4103 C4102 1.355 . S
C4103 C4105 1.419 . S
C4104 C4102 1.415 . S
C4104 C4109 1.425 . S
C4104 C4111 1.409 . S
C4105 H4097 0.930 . S
C4105 C4103 1.419 . S
C4105 C4106 1.362 . S
C4106 H4098 0.930 . S
C4106 C4105 1.362 . S
C4106 C4109 1.409 . S
C4107 H4099 0.930 . S
C4107 C4108 1.355 . S
C4107 C4109 1.415 . S
C4108 C4107 1.355 . S
C4108 C4110 1.419 . S
C4109 C4104 1.425 . S
C4109 C4106 1.409 . S
C4109 C4107 1.415 . S
C4110 H4100 0.930 . S
C4110 C4108 1.419 . S
C4110 C4111 1.362 . S
C4111 H4101 0.930 . S
C4111 C4104 1.409 . S
C4111 C4110 1.362 . S
H4112 C4118 0.930 . S
H4113 C4121 0.930 . S
H4114 C4122 0.930 . S
H4115 C4123 0.930 . S
H4116 C4126 0.930 . S
H4117 C4127 0.930 . S
C4118 H4112 0.930 . S
C4118 C4119 1.355 . S
C4118 C4120 1.415 . S
C4119 C4118 1.355 . S
C4119 C4121 1.419 . S
C4120 C4118 1.415 . S
C4120 C4125 1.425 . S
C4120 C4127 1.409 . S
C4121 H4113 0.930 . S
C4121 C4119 1.419 . S
C4121 C4122 1.362 . S
C4122 H4114 0.930 . S
C4122 C4121 1.362 . S
C4122 C4125 1.409 . S
C4123 H4115 0.930 . S
C4123 C4124 1.355 . S
C4123 C4125 1.415 . S
C4124 C4123 1.355 . S
C4124 C4126 1.419 . S
C4125 C4120 1.425 . S
C4125 C4122 1.409 . S
C4125 C4123 1.415 . S
C4126 H4116 0.930 . S
C4126 C4124 1.419 . S
C4126 C4127 1.362 . S
C4127 H4117 0.930 . S
C4127 C4120 1.409 . S
C4127 C4126 1.362 . S
H4128 C4134 0.930 . S
H4129 C4137 0.930 . S
H4130 C4138 0.930 . S
H4131 C4139 0.930 . S
H4132 C4142 0.930 . S
H4133 C4143 0.930 . S
C4134 H4128 0.930 . S
C4134 C4135 1.355 . S
C4134 C4136 1.415 . S
C4135 C4134 1.355 . S
C4135 C4137 1.419 . S
C4136 C4134 1.415 . S
C4136 C4141 1.425 . S
C4136 C4143 1.409 . S
C4137 H4129 0.930 . S
C4137 C4135 1.419 . S
C4137 C4138 1.362 . S
C4138 H4130 0.930 . S
C4138 C4137 1.362 . S
C4138 C4141 1.409 . S
C4139 H4131 0.930 . S
C4139 C4140 1.355 . S
C4139 C4141 1.415 . S
C4140 C4139 1.355 . S
C4140 C4142 1.419 . S
C4141 C4136 1.425 . S
C4141 C4138 1.409 . S
C4141 C4139 1.415 . S
C4142 H4132 0.930 . S
C4142 C4140 1.419 . S
C4142 C4143 1.362 . S
C4143 H4133 0.930 . S
C4143 C4136 1.409 . S
C4143 C4142 1.362 . S
H4144 C4150 0.930 . S
H4145 C4153 0.930 . S
H4146 C4154 0.930 . S
H4147 C4155 0.930 . S
H4148 C4158 0.930 . S
H4149 C4159 0.930 . S
C4150 H4144 0.930 . S
C4150 C4151 1.355 . S
C4150 C4152 1.415 . S
C4151 C4150 1.355 . S
C4151 C4153 1.419 . S
C4152 C4150 1.415 . S
C4152 C4157 1.425 . S
C4152 C4159 1.409 . S
C4153 H4145 0.930 . S
C4153 C4151 1.419 . S
C4153 C4154 1.362 . S
C4154 H4146 0.930 . S
C4154 C4153 1.362 . S
C4154 C4157 1.409 . S
C4155 H4147 0.930 . S
C4155 C4156 1.355 . S
C4155 C4157 1.415 . S
C4156 C4155 1.355 . S
C4156 C4158 1.419 . S
C4157 C4152 1.425 . S
C4157 C4154 1.409 . S
C4157 C4155 1.415 . S
C4158 H4148 0.930 . S
C4158 C4156 1.419 . S
C4158 C4159 1.362 . S
C4159 H4149 0.930 . S
C4159 C4152 1.409 . S
C4159 C4158 1.362 . S
H4160 C4166 0.930 . S
H4161 C4169 0.930 . S
H4162 C4170 0.930 . S
H4163 C4171 0.930 . S
H4164 C4174 0.930 . S
H4165 C4175 0.930 . S
C4166 H4160 0.930 . S
C4166 C4167 1.355 . S
C4166 C4168 1.415 . S
C4167 C4166 1.355 . S
C4167 C4169 1.419 . S
C4168 C4166 1.415 . S
C4168 C4173 1.425 . S
C4168 C4175 1.409 . S
C4169 H4161 0.930 . S
C4169 C4167 1.419 . S
C4169 C4170 1.362 . S
C4170 H4162 0.930 . S
C4170 C4169 1.362 . S
C4170 C4173 1.409 . S
C4171 H4163 0.930 . S
C4171 C4172 1.355 . S
C4171 C4173 1.415 . S
C4172 C4171 1.355 . S
C4172 C4174 1.419 . S
C4173 C4168 1.425 . S
C4173 C4170 1.409 . S
C4173 C4171 1.415 . S
C4174 H4164 0.930 . S
C4174 C4172 1.419 . S
C4174 C4175 1.362 . S
C4175 H4165 0.930 . S
C4175 C4168 1.409 . S
C4175 C4174 1.362 . S
H4176 C4182 0.930 . S
H4177 C4185 0.930 . S
H4178 C4186 0.930 . S
H4179 C4187 0.930 . S
H4180 C4190 0.930 . S
H4181 C4191 0.930 . S
C4182 H4176 0.930 . S
C4182 C4183 1.355 . S
C4182 C4184 1.415 . S
C4183 C4182 1.355 . S
C4183 C4185 1.419 . S
C4184 C4182 1.415 . S
C4184 C4189 1.425 . S
C4184 C4191 1.409 . S
C4185 H4177 0.930 . S
C4185 C4183 1.419 . S
C4185 C4186 1.362 . S
C4186 H4178 0.930 . S
C4186 C4185 1.362 . S
C4186 C4189 1.409 . S
C4187 H4179 0.930 . S
C4187 C4188 1.355 . S
C4187 C4189 1.415 . S
C4188 C4187 1.355 . S
C4188 C4190 1.419 . S
C4189 C4184 1.425 . S
C4189 C4186 1.409 . S
C4189 C4187 1.415 . S
C4190 H4180 0.930 . S
C4190 C4188 1.419 . S
C4190 C4191 1.362 . S
C4191 H4181 0.930 . S
C4191 C4184 1.409 . S
C4191 C4190 1.362 . S
H4192 C4198 0.930 . S
H4193 C4201 0.930 . S
H4194 C4202 0.930 . S
H4195 C4203 0.930 . S
H4196 C4206 0.930 . S
H4197 C4207 0.930 . S
C4198 H4192 0.930 . S
C4198 C4199 1.355 . S
C4198 C4200 1.415 . S
C4199 C4198 1.355 . S
C4199 C4201 1.419 . S
C4200 C4198 1.415 . S
C4200 C4205 1.425 . S
C4200 C4207 1.409 . S
C4201 H4193 0.930 . S
C4201 C4199 1.419 . S
C4201 C4202 1.362 . S
C4202 H4194 0.930 . S
C4202 C4201 1.362 . S
C4202 C4205 1.409 . S
C4203 H4195 0.930 . S
C4203 C4204 1.355 . S
C4203 C4205 1.415 . S
C4204 C4203 1.355 . S
C4204 C4206 1.419 . S
C4205 C4200 1.425 . S
C4205 C4202 1.409 . S
C4205 C4203 1.415 . S
C4206 H4196 0.930 . S
C4206 C4204 1.419 . S
C4206 C4207 1.362 . S
C4207 H4197 0.930 . S
C4207 C4200 1.409 . S
C4207 C4206 1.362 . S
H4208 C4214 0.930 . S
H4209 C4217 0.930 . S
H4210 C4218 0.930 . S
H4211 C4219 0.930 . S
H4212 C4222 0.930 . S
H4213 C4223 0.930 . S
C4214 H4208 0.930 . S
C4214 C4215 1.355 . S
C4214 C4216 1.415 . S
C4215 C4214 1.355 . S
C4215 C4217 1.419 . S
C4216 C4214 1.415 . S
C4216 C4221 1.425 . S
C4216 C4223 1.409 . S
C4217 H4209 0.930 . S
C4217 C4215 1.419 . S
C4217 C4218 1.362 . S
C4218 H4210 0.930 . S
C4218 C4217 1.362 . S
C4218 C4221 1.409 . S
C4219 H4211 0.930 . S
C4219 C4220 1.355 . S
C4219 C4221 1.415 . S
C4220 C4219 1.355 . S
C4220 C4222 1.419 . S
C4221 C4216 1.425 . S
C4221 C4218 1.409 . S
C4221 C4219 1.415 . S
C4222 H4212 0.930 . S
C4222 C4220 1.419 . S
C4222 C4223 1.362 . S
C4223 H4213 0.930 . S
C4223 C4216 1.409 . S
C4223 C4222 1.362 . S
H4224 C4230 0.930 . S
H4225 C4233 0.910 1_556 S
H4226 C4234 0.930 . S
H4227 C4235 0.930 . S
H4228 C4238 0.930 . S
H4229 C4239 0.930 . S
C4230 H4224 0.930 . S
C4230 C4231 1.355 1_554 S
C4230 C4232 1.415 . S
C4231 C4230 1.355 1_556 S
C4231 C4233 1.415 1_556 S
C4232 C4230 1.415 . S
C4232 C4237 1.425 . S
C4232 C4239 1.409 . S
C4233 H4225 0.910 1_554 S
C4233 C4231 1.415 1_554 S
C4233 C4234 1.386 . S
C4234 H4226 0.930 . S
C4234 C4233 1.386 . S
C4234 C4237 1.409 . S
C4235 H4227 0.930 . S
C4235 C4236 1.355 . S
C4235 C4237 1.415 . S
C4236 C4235 1.355 . S
C4236 C4238 1.419 . S
C4237 C4232 1.425 . S
C4237 C4234 1.409 . S
C4237 C4235 1.415 . S
C4238 H4228 0.930 . S
C4238 C4236 1.419 . S
C4238 C4239 1.362 . S
C4239 H4229 0.930 . S
C4239 C4232 1.409 . S
C4239 C4238 1.362 . S
H4240 C4246 0.930 . S
H4241 C4249 0.930 . S
H4242 C4250 0.930 . S
H4243 C4251 0.930 . S
H4244 C4254 0.930 . S
H4245 C4255 0.930 . S
C4246 H4240 0.930 . S
C4246 C4247 1.355 . S
C4246 C4248 1.415 . S
C4247 C4246 1.355 . S
C4247 C4249 1.419 . S
C4248 C4246 1.415 . S
C4248 C4253 1.425 . S
C4248 C4255 1.409 . S
C4249 H4241 0.930 . S
C4249 C4247 1.419 . S
C4249 C4250 1.362 . S
C4250 H4242 0.930 . S
C4250 C4249 1.362 . S
C4250 C4253 1.409 . S
C4251 H4243 0.930 . S
C4251 C4252 1.355 . S
C4251 C4253 1.415 . S
C4252 C4251 1.355 . S
C4252 C4254 1.419 . S
C4253 C4248 1.425 . S
C4253 C4250 1.409 . S
C4253 C4251 1.415 . S
C4254 H4244 0.930 . S
C4254 C4252 1.419 . S
C4254 C4255 1.362 . S
C4255 H4245 0.930 . S
C4255 C4248 1.409 . S
C4255 C4254 1.362 . S
H4256 C4262 0.930 . S
H4257 C4265 0.930 . S
H4258 C4266 0.930 . S
H4259 C4267 0.930 . S
H4260 C4270 0.930 . S
H4261 C4271 0.930 . S
C4262 H4256 0.930 . S
C4262 C4263 1.355 . S
C4262 C4264 1.415 . S
C4263 C4262 1.355 . S
C4263 C4265 1.419 . S
C4264 C4262 1.415 . S
C4264 C4269 1.425 . S
C4264 C4271 1.409 . S
C4265 H4257 0.930 . S
C4265 C4263 1.419 . S
C4265 C4266 1.362 . S
C4266 H4258 0.930 . S
C4266 C4265 1.362 . S
C4266 C4269 1.409 . S
C4267 H4259 0.930 . S
C4267 C4268 1.355 . S
C4267 C4269 1.415 . S
C4268 C4267 1.355 . S
C4268 C4270 1.419 . S
C4269 C4264 1.425 . S
C4269 C4266 1.409 . S
C4269 C4267 1.415 . S
C4270 H4260 0.930 . S
C4270 C4268 1.419 . S
C4270 C4271 1.362 . S
C4271 H4261 0.930 . S
C4271 C4264 1.409 . S
C4271 C4270 1.362 . S
H4272 C4278 0.930 . S
H4273 C4281 0.930 1_556 S
H4274 C4282 0.930 . S
H4275 C4283 0.930 . S
H4276 C4286 0.930 . S
H4277 C4287 0.930 . S
C4278 H4272 0.930 . S
C4278 C4279 1.355 1_554 S
C4278 C4280 1.415 . S
C4279 C4278 1.355 1_556 S
C4279 C4281 1.419 1_556 S
C4280 C4278 1.415 . S
C4280 C4285 1.425 . S
C4280 C4287 1.409 . S
C4281 H4273 0.930 1_554 S
C4281 C4279 1.419 1_554 S
C4281 C4282 1.362 . S
C4282 H4274 0.930 . S
C4282 C4281 1.362 . S
C4282 C4285 1.409 . S
C4283 H4275 0.930 . S
C4283 C4284 1.355 . S
C4283 C4285 1.415 . S
C4284 C4283 1.355 . S
C4284 C4286 1.419 . S
C4285 C4280 1.425 . S
C4285 C4282 1.409 . S
C4285 C4283 1.415 . S
C4286 H4276 0.930 . S
C4286 C4284 1.419 . S
C4286 C4287 1.362 . S
C4287 H4277 0.930 . S
C4287 C4280 1.409 . S
C4287 C4286 1.362 . S
H4288 C4294 0.930 . S
H4289 C4297 0.930 . S
H4290 C4298 0.930 . S
H4291 C4299 0.930 . S
H4292 C4302 0.930 . S
H4293 C4303 0.930 . S
C4294 H4288 0.930 . S
C4294 C4295 1.355 . S
C4294 C4296 1.415 . S
C4295 C4294 1.355 . S
C4295 C4297 1.419 . S
C4296 C4294 1.415 . S
C4296 C4301 1.425 . S
C4296 C4303 1.409 . S
C4297 H4289 0.930 . S
C4297 C4295 1.419 . S
C4297 C4298 1.362 . S
C4298 H4290 0.930 . S
C4298 C4297 1.362 . S
C4298 C4301 1.409 . S
C4299 H4291 0.930 . S
C4299 C4300 1.355 . S
C4299 C4301 1.415 . S
C4300 C4299 1.355 . S
C4300 C4302 1.419 . S
C4301 C4296 1.425 . S
C4301 C4298 1.409 . S
C4301 C4299 1.415 . S
C4302 H4292 0.930 . S
C4302 C4300 1.419 . S
C4302 C4303 1.362 . S
C4303 H4293 0.930 . S
C4303 C4296 1.409 . S
C4303 C4302 1.362 . S
H4304 C4310 0.932 . S
H4305 C4313 0.930 . S
H4306 C4314 0.930 . S
H4307 C4315 0.930 . S
H4308 C4318 0.930 . S
H4309 C4319 0.930 . S
C4310 H4304 0.932 . S
C4310 C4311 1.355 1_545 S
C4310 C4312 1.415 . S
C4311 C4310 1.355 1_565 S
C4311 C4313 1.419 . S
C4312 C4310 1.415 . S
C4312 C4317 1.425 . S
C4312 C4319 1.409 . S
C4313 H4305 0.930 . S
C4313 C4311 1.419 . S
C4313 C4314 1.362 1_565 S
C4314 H4306 0.930 . S
C4314 C4313 1.362 1_545 S
C4314 C4317 1.409 . S
C4315 H4307 0.930 . S
C4315 C4316 1.355 . S
C4315 C4317 1.415 . S
C4316 C4315 1.355 . S
C4316 C4318 1.419 . S
C4317 C4312 1.425 . S
C4317 C4314 1.409 . S
C4317 C4315 1.415 . S
C4318 H4308 0.930 . S
C4318 C4316 1.419 . S
C4318 C4319 1.362 . S
C4319 H4309 0.930 . S
C4319 C4312 1.409 . S
C4319 C4318 1.362 . S
H4320 C4326 0.930 . S
H4321 C4329 0.930 1_655 S
H4322 C4330 0.930 . S
H4323 C4331 0.930 . S
H4324 C4334 0.930 . S
H4325 C4335 0.930 . S
C4326 H4320 0.930 . S
C4326 C4327 1.355 1_455 S
C4326 C4328 1.415 . S
C4327 C4326 1.355 1_655 S
C4327 C4329 1.419 1_655 S
C4328 C4326 1.415 . S
C4328 C4333 1.425 . S
C4328 C4335 1.409 . S
C4329 H4321 0.930 1_455 S
C4329 C4327 1.419 1_455 S
C4329 C4330 1.362 . S
C4330 H4322 0.930 . S
C4330 C4329 1.362 . S
C4330 C4333 1.409 . S
C4331 H4323 0.930 . S
C4331 C4332 1.355 . S
C4331 C4333 1.415 . S
C4332 C4331 1.355 . S
C4332 C4334 1.419 . S
C4333 C4328 1.425 . S
C4333 C4330 1.409 . S
C4333 C4331 1.415 . S
C4334 H4324 0.930 . S
C4334 C4332 1.419 . S
C4334 C4335 1.362 . S
C4335 H4325 0.930 . S
C4335 C4328 1.409 . S
C4335 C4334 1.362 . S
H4336 C4342 0.930 . S
H4337 C4345 0.930 . S
H4338 C4346 0.930 . S
H4339 C4347 0.930 . S
H4340 C4350 0.930 . S
H4341 C4351 0.930 . S
C4342 H4336 0.930 . S
C4342 C4343 1.355 . S
C4342 C4344 1.415 . S
C4343 C4342 1.355 . S
C4343 C4345 1.419 . S
C4344 C4342 1.415 . S
C4344 C4349 1.425 . S
C4344 C4351 1.409 . S
C4345 H4337 0.930 . S
C4345 C4343 1.419 . S
C4345 C4346 1.362 . S
C4346 H4338 0.930 . S
C4346 C4345 1.362 . S
C4346 C4349 1.409 . S
C4347 H4339 0.930 . S
C4347 C4348 1.355 . S
C4347 C4349 1.415 . S
C4348 C4347 1.355 . S
C4348 C4350 1.419 . S
C4349 C4344 1.425 . S
C4349 C4346 1.409 . S
C4349 C4347 1.415 . S
C4350 H4340 0.930 . S
C4350 C4348 1.419 . S
C4350 C4351 1.362 . S
C4351 H4341 0.930 . S
C4351 C4344 1.409 . S
C4351 C4350 1.362 . S
H4352 C4358 0.930 . S
H4353 C4361 0.930 . S
H4354 C4362 0.930 . S
H4355 C4363 0.930 . S
H4356 C4366 0.930 . S
H4357 C4367 0.922 1_565 S
C4358 H4352 0.930 . S
C4358 C4359 1.355 . S
C4358 C4360 1.415 . S
C4359 C4358 1.355 . S
C4359 C4361 1.419 . S
C4360 C4358 1.415 . S
C4360 C4365 1.415 1_565 S
C4360 C4367 1.409 1_565 S
C4361 H4353 0.930 . S
C4361 C4359 1.419 . S
C4361 C4362 1.362 . S
C4362 H4354 0.930 . S
C4362 C4361 1.362 . S
C4362 C4365 1.390 1_565 S
C4363 H4355 0.930 . S
C4363 C4364 1.355 . S
C4363 C4365 1.444 . S
C4364 C4363 1.355 . S
C4364 C4366 1.419 . S
C4365 C4360 1.415 1_545 S
C4365 C4362 1.390 1_545 S
C4365 C4363 1.444 . S
C4366 H4356 0.930 . S
C4366 C4364 1.419 . S
C4366 C4367 1.362 . S
C4367 H4357 0.922 1_545 S
C4367 C4360 1.409 1_545 S
C4367 C4366 1.362 . S
H4368 C4374 0.930 . S
H4369 C4377 0.930 . S
H4370 C4378 0.930 . S
H4371 C4379 0.930 . S
H4372 C4382 0.930 . S
H4373 C4383 0.930 . S
C4374 H4368 0.930 . S
C4374 C4375 1.355 . S
C4374 C4376 1.415 . S
C4375 C4374 1.355 . S
C4375 C4377 1.419 . S
C4376 C4374 1.415 . S
C4376 C4381 1.425 . S
C4376 C4383 1.409 . S
C4377 H4369 0.930 . S
C4377 C4375 1.419 . S
C4377 C4378 1.362 . S
C4378 H4370 0.930 . S
C4378 C4377 1.362 . S
C4378 C4381 1.409 . S
C4379 H4371 0.930 . S
C4379 C4380 1.355 1_455 S
C4379 C4381 1.415 . S
C4380 C4379 1.355 1_655 S
C4380 C4382 1.419 . S
C4381 C4376 1.425 . S
C4381 C4378 1.409 . S
C4381 C4379 1.415 . S
C4382 H4372 0.930 . S
C4382 C4380 1.419 . S
C4382 C4383 1.362 1_655 S
C4383 H4373 0.930 . S
C4383 C4376 1.409 . S
C4383 C4382 1.362 1_455 S
H4384 C4390 0.930 . S
H4385 C4393 0.930 . S
H4386 C4394 0.930 . S
H4387 C4395 0.930 . S
H4388 C4398 0.930 . S
H4389 C4399 0.930 . S
C4390 H4384 0.930 . S
C4390 C4391 1.355 . S
C4390 C4392 1.415 . S
C4391 C4390 1.355 . S
C4391 C4393 1.419 . S
C4392 C4390 1.415 . S
C4392 C4397 1.425 . S
C4392 C4399 1.409 . S
C4393 H4385 0.930 . S
C4393 C4391 1.419 . S
C4393 C4394 1.362 . S
C4394 H4386 0.930 . S
C4394 C4393 1.362 . S
C4394 C4397 1.409 . S
C4395 H4387 0.930 . S
C4395 C4396 1.355 . S
C4395 C4397 1.415 . S
C4396 C4395 1.355 . S
C4396 C4398 1.419 . S
C4397 C4392 1.425 . S
C4397 C4394 1.409 . S
C4397 C4395 1.415 . S
C4398 H4388 0.930 . S
C4398 C4396 1.419 . S
C4398 C4399 1.362 . S
C4399 H4389 0.930 . S
C4399 C4392 1.409 . S
C4399 C4398 1.362 . S
H4400 C4406 0.930 . S
H4401 C4409 0.930 . S
H4402 C4410 0.930 . S
H4403 C4411 0.930 . S
H4404 C4414 0.930 . S
H4405 C4415 0.930 . S
C4406 H4400 0.930 . S
C4406 C4407 1.355 . S
C4406 C4408 1.415 . S
C4407 C4406 1.355 . S
C4407 C4409 1.419 . S
C4408 C4406 1.415 . S
C4408 C4413 1.425 . S
C4408 C4415 1.409 . S
C4409 H4401 0.930 . S
C4409 C4407 1.419 . S
C4409 C4410 1.362 . S
C4410 H4402 0.930 . S
C4410 C4409 1.362 . S
C4410 C4413 1.409 . S
C4411 H4403 0.930 . S
C4411 C4412 1.355 . S
C4411 C4413 1.415 . S
C4412 C4411 1.355 . S
C4412 C4414 1.419 . S
C4413 C4408 1.425 . S
C4413 C4410 1.409 . S
C4413 C4411 1.415 . S
C4414 H4404 0.930 . S
C4414 C4412 1.419 . S
C4414 C4415 1.362 . S
C4415 H4405 0.930 . S
C4415 C4408 1.409 . S
C4415 C4414 1.362 . S
H4416 C4422 0.930 . S
H4417 C4425 0.930 . S
H4418 C4426 0.930 . S
H4419 C4427 0.930 . S
H4420 C4430 0.930 . S
H4421 C4431 0.930 . S
C4422 H4416 0.930 . S
C4422 C4423 1.355 . S
C4422 C4424 1.415 . S
C4423 C4422 1.355 . S
C4423 C4425 1.419 . S
C4424 C4422 1.415 . S
C4424 C4429 1.425 . S
C4424 C4431 1.409 . S
C4425 H4417 0.930 . S
C4425 C4423 1.419 . S
C4425 C4426 1.362 . S
C4426 H4418 0.930 . S
C4426 C4425 1.362 . S
C4426 C4429 1.409 . S
C4427 H4419 0.930 . S
C4427 C4428 1.355 . S
C4427 C4429 1.415 . S
C4428 C4427 1.355 . S
C4428 C4430 1.419 . S
C4429 C4424 1.425 . S
C4429 C4426 1.409 . S
C4429 C4427 1.415 . S
C4430 H4420 0.930 . S
C4430 C4428 1.419 . S
C4430 C4431 1.362 . S
C4431 H4421 0.930 . S
C4431 C4424 1.409 . S
C4431 C4430 1.362 . S
H4432 C4438 0.930 . S
H4433 C4441 0.930 . S
H4434 C4442 0.930 . S
H4435 C4443 0.930 . S
H4436 C4446 0.930 . S
H4437 C4447 0.930 1_565 S
C4438 H4432 0.930 . S
C4438 C4439 1.355 . S
C4438 C4440 1.415 . S
C4439 C4438 1.355 . S
C4439 C4441 1.419 . S
C4440 C4438 1.415 . S
C4440 C4445 1.425 . S
C4440 C4447 1.409 . S
C4441 H4433 0.930 . S
C4441 C4439 1.419 . S
C4441 C4442 1.362 . S
C4442 H4434 0.930 . S
C4442 C4441 1.362 . S
C4442 C4445 1.409 . S
C4443 H4435 0.930 . S
C4443 C4444 1.355 . S
C4443 C4445 1.415 . S
C4444 C4443 1.355 . S
C4444 C4446 1.419 . S
C4445 C4440 1.425 . S
C4445 C4442 1.409 . S
C4445 C4443 1.415 . S
C4446 H4436 0.930 . S
C4446 C4444 1.419 . S
C4446 C4447 1.362 . S
C4447 H4437 0.930 1_545 S
C4447 C4440 1.409 . S
C4447 C4446 1.362 . S
H4448 C4454 0.930 . S
H4449 C4457 0.930 . S
H4450 C4458 0.930 . S
H4451 C4459 0.930 1_655 S
H4452 C4462 0.930 . S
H4453 C4463 0.930 . S
C4454 H4448 0.930 . S
C4454 C4455 1.355 . S
C4454 C4456 1.415 . S
C4455 C4454 1.355 . S
C4455 C4457 1.419 1_455 S
C4456 C4454 1.415 . S
C4456 C4461 1.425 . S
C4456 C4463 1.409 . S
C4457 H4449 0.930 . S
C4457 C4455 1.419 1_655 S
C4457 C4458 1.362 . S
C4458 H4450 0.930 . S
C4458 C4457 1.362 . S
C4458 C4461 1.409 1_655 S
C4459 H4451 0.930 1_455 S
C4459 C4460 1.355 . S
C4459 C4461 1.415 . S
C4460 C4459 1.355 . S
C4460 C4462 1.419 . S
C4461 C4456 1.425 . S
C4461 C4458 1.409 1_455 S
C4461 C4459 1.415 . S
C4462 H4452 0.930 . S
C4462 C4460 1.419 . S
C4462 C4463 1.362 . S
C4463 H4453 0.930 . S
C4463 C4456 1.409 . S
C4463 C4462 1.362 . S
H4464 C4470 0.930 . S
H4465 C4473 0.930 . S
H4466 C4474 0.930 . S
H4467 C4475 0.930 . S
H4468 C4478 0.930 . S
H4469 C4479 0.930 . S
C4470 H4464 0.930 . S
C4470 C4471 1.355 . S
C4470 C4472 1.415 . S
C4471 C4470 1.355 . S
C4471 C4473 1.419 . S
C4472 C4470 1.415 . S
C4472 C4477 1.425 . S
C4472 C4479 1.409 . S
C4473 H4465 0.930 . S
C4473 C4471 1.419 . S
C4473 C4474 1.362 . S
C4474 H4466 0.930 . S
C4474 C4473 1.362 . S
C4474 C4477 1.409 . S
C4475 H4467 0.930 . S
C4475 C4476 1.355 . S
C4475 C4477 1.415 . S
C4476 C4475 1.355 . S
C4476 C4478 1.419 . S
C4477 C4472 1.425 . S
C4477 C4474 1.409 . S
C4477 C4475 1.415 . S
C4478 H4468 0.930 . S
C4478 C4476 1.419 . S
C4478 C4479 1.362 . S
C4479 H4469 0.930 . S
C4479 C4472 1.409 . S
C4479 C4478 1.362 . S
H4480 C4486 0.930 . S
H4481 C4489 0.930 . S
H4482 C4490 0.930 . S
H4483 C4491 0.930 . S
H4484 C4494 0.930 . S
H4485 C4495 0.930 . S
C4486 H4480 0.930 . S
C4486 C4487 1.355 . S
C4486 C4488 1.415 . S
C4487 C4486 1.355 . S
C4487 C4489 1.419 . S
C4488 C4486 1.415 . S
C4488 C4493 1.425 . S
C4488 C4495 1.409 . S
C4489 H4481 0.930 . S
C4489 C4487 1.419 . S
C4489 C4490 1.362 . S
C4490 H4482 0.930 . S
C4490 C4489 1.362 . S
C4490 C4493 1.409 . S
C4491 H4483 0.930 . S
C4491 C4492 1.355 . S
C4491 C4493 1.415 . S
C4492 C4491 1.355 . S
C4492 C4494 1.419 . S
C4493 C4488 1.425 . S
C4493 C4490 1.409 . S
C4493 C4491 1.415 . S
C4494 H4484 0.930 . S
C4494 C4492 1.419 . S
C4494 C4495 1.362 . S
C4495 H4485 0.930 . S
C4495 C4488 1.409 . S
C4495 C4494 1.362 . S
H4496 C4502 0.930 . S
H4497 C4505 0.930 . S
H4498 C4506 0.930 . S
H4499 C4507 0.930 . S
H4500 C4510 0.930 . S
H4501 C4511 0.930 . S
C4502 H4496 0.930 . S
C4502 C4503 1.355 . S
C4502 C4504 1.415 . S
C4503 C4502 1.355 . S
C4503 C4505 1.419 . S
C4504 C4502 1.415 . S
C4504 C4509 1.425 . S
C4504 C4511 1.409 . S
C4505 H4497 0.930 . S
C4505 C4503 1.419 . S
C4505 C4506 1.362 . S
C4506 H4498 0.930 . S
C4506 C4505 1.362 . S
C4506 C4509 1.409 . S
C4507 H4499 0.930 . S
C4507 C4508 1.355 . S
C4507 C4509 1.415 . S
C4508 C4507 1.355 . S
C4508 C4510 1.419 . S
C4509 C4504 1.425 . S
C4509 C4506 1.409 . S
C4509 C4507 1.415 . S
C4510 H4500 0.930 . S
C4510 C4508 1.419 . S
C4510 C4511 1.362 . S
C4511 H4501 0.930 . S
C4511 C4504 1.409 . S
C4511 C4510 1.362 . S
H4512 C4518 0.930 . S
H4513 C4521 0.930 . S
H4514 C4522 0.930 . S
H4515 C4523 0.930 . S
H4516 C4526 0.930 . S
H4517 C4527 0.930 . S
C4518 H4512 0.930 . S
C4518 C4519 1.355 . S
C4518 C4520 1.415 . S
C4519 C4518 1.355 . S
C4519 C4521 1.419 . S
C4520 C4518 1.415 . S
C4520 C4525 1.425 . S
C4520 C4527 1.409 . S
C4521 H4513 0.930 . S
C4521 C4519 1.419 . S
C4521 C4522 1.362 . S
C4522 H4514 0.930 . S
C4522 C4521 1.362 . S
C4522 C4525 1.409 . S
C4523 H4515 0.930 . S
C4523 C4524 1.355 . S
C4523 C4525 1.415 . S
C4524 C4523 1.355 . S
C4524 C4526 1.419 . S
C4525 C4520 1.425 . S
C4525 C4522 1.409 . S
C4525 C4523 1.415 . S
C4526 H4516 0.930 . S
C4526 C4524 1.419 . S
C4526 C4527 1.362 . S
C4527 H4517 0.930 . S
C4527 C4520 1.409 . S
C4527 C4526 1.362 . S
H4528 C4534 0.930 . S
H4529 C4537 0.930 . S
H4530 C4538 0.930 . S
H4531 C4539 0.930 . S
H4532 C4542 0.930 . S
H4533 C4543 0.930 . S
C4534 H4528 0.930 . S
C4534 C4535 1.355 . S
C4534 C4536 1.415 . S
C4535 C4534 1.355 . S
C4535 C4537 1.419 . S
C4536 C4534 1.415 . S
C4536 C4541 1.425 . S
C4536 C4543 1.409 . S
C4537 H4529 0.930 . S
C4537 C4535 1.419 . S
C4537 C4538 1.362 . S
C4538 H4530 0.930 . S
C4538 C4537 1.362 . S
C4538 C4541 1.409 . S
C4539 H4531 0.930 . S
C4539 C4540 1.355 . S
C4539 C4541 1.415 . S
C4540 C4539 1.355 . S
C4540 C4542 1.419 . S
C4541 C4536 1.425 . S
C4541 C4538 1.409 . S
C4541 C4539 1.415 . S
C4542 H4532 0.930 . S
C4542 C4540 1.419 . S
C4542 C4543 1.362 . S
C4543 H4533 0.930 . S
C4543 C4536 1.409 . S
C4543 C4542 1.362 . S
H4544 C4550 0.930 . S
H4545 C4553 0.930 . S
H4546 C4554 0.930 . S
H4547 C4555 0.930 . S
H4548 C4558 0.930 . S
H4549 C4559 0.930 . S
C4550 H4544 0.930 . S
C4550 C4551 1.355 . S
C4550 C4552 1.415 . S
C4551 C4550 1.355 . S
C4551 C4553 1.419 . S
C4552 C4550 1.415 . S
C4552 C4557 1.425 . S
C4552 C4559 1.409 . S
C4553 H4545 0.930 . S
C4553 C4551 1.419 . S
C4553 C4554 1.362 . S
C4554 H4546 0.930 . S
C4554 C4553 1.362 . S
C4554 C4557 1.409 . S
C4555 H4547 0.930 . S
C4555 C4556 1.355 . S
C4555 C4557 1.415 . S
C4556 C4555 1.355 . S
C4556 C4558 1.419 . S
C4557 C4552 1.425 . S
C4557 C4554 1.409 . S
C4557 C4555 1.415 . S
C4558 H4548 0.930 . S
C4558 C4556 1.419 . S
C4558 C4559 1.362 . S
C4559 H4549 0.930 . S
C4559 C4552 1.409 . S
C4559 C4558 1.362 . S
H4560 C4566 0.930 . S
H4561 C4569 0.930 . S
H4562 C4570 0.930 . S
H4563 C4571 0.930 . S
H4564 C4574 0.930 . S
H4565 C4575 0.930 . S
C4566 H4560 0.930 . S
C4566 C4567 1.355 . S
C4566 C4568 1.415 . S
C4567 C4566 1.355 . S
C4567 C4569 1.419 . S
C4568 C4566 1.415 . S
C4568 C4573 1.425 . S
C4568 C4575 1.409 . S
C4569 H4561 0.930 . S
C4569 C4567 1.419 . S
C4569 C4570 1.362 . S
C4570 H4562 0.930 . S
C4570 C4569 1.362 . S
C4570 C4573 1.409 . S
C4571 H4563 0.930 . S
C4571 C4572 1.355 . S
C4571 C4573 1.415 . S
C4572 C4571 1.355 . S
C4572 C4574 1.419 . S
C4573 C4568 1.425 . S
C4573 C4570 1.409 . S
C4573 C4571 1.415 . S
C4574 H4564 0.930 . S
C4574 C4572 1.419 . S
C4574 C4575 1.362 . S
C4575 H4565 0.930 . S
C4575 C4568 1.409 . S
C4575 C4574 1.362 . S
H4576 C4582 0.930 . S
H4577 C4585 0.930 . S
H4578 C4586 0.930 . S
H4579 C4587 0.930 . S
H4580 C4590 0.930 . S
H4581 C4591 0.930 . S
C4582 H4576 0.930 . S
C4582 C4583 1.355 . S
C4582 C4584 1.415 . S
C4583 C4582 1.355 . S
C4583 C4585 1.419 . S
C4584 C4582 1.415 . S
C4584 C4589 1.425 . S
C4584 C4591 1.409 . S
C4585 H4577 0.930 . S
C4585 C4583 1.419 . S
C4585 C4586 1.362 . S
C4586 H4578 0.930 . S
C4586 C4585 1.362 . S
C4586 C4589 1.409 . S
C4587 H4579 0.930 . S
C4587 C4588 1.355 . S
C4587 C4589 1.415 . S
C4588 C4587 1.355 . S
C4588 C4590 1.419 . S
C4589 C4584 1.425 . S
C4589 C4586 1.409 . S
C4589 C4587 1.415 . S
C4590 H4580 0.930 . S
C4590 C4588 1.419 . S
C4590 C4591 1.362 . S
C4591 H4581 0.930 . S
C4591 C4584 1.409 . S
C4591 C4590 1.362 . S
H4592 C4598 0.930 . S
H4593 C4601 0.930 . S
H4594 C4602 0.930 . S
H4595 C4603 0.930 . S
H4596 C4606 0.930 . S
H4597 C4607 0.930 . S
C4598 H4592 0.930 . S
C4598 C4599 1.355 . S
C4598 C4600 1.415 . S
C4599 C4598 1.355 . S
C4599 C4601 1.419 . S
C4600 C4598 1.415 . S
C4600 C4605 1.425 . S
C4600 C4607 1.409 . S
C4601 H4593 0.930 . S
C4601 C4599 1.419 . S
C4601 C4602 1.362 . S
C4602 H4594 0.930 . S
C4602 C4601 1.362 . S
C4602 C4605 1.409 . S
C4603 H4595 0.930 . S
C4603 C4604 1.355 . S
C4603 C4605 1.415 . S
C4604 C4603 1.355 . S
C4604 C4606 1.419 . S
C4605 C4600 1.425 . S
C4605 C4602 1.409 . S
C4605 C4603 1.415 . S
C4606 H4596 0.930 . S
C4606 C4604 1.419 . S
C4606 C4607 1.362 . S
C4607 H4597 0.930 . S
C4607 C4600 1.409 . S
C4607 C4606 1.362 . S
H4608 C4614 0.930 . S
H4609 C4617 0.930 . S
H4610 C4618 0.930 . S
H4611 C4619 0.930 . S
H4612 C4622 0.930 . S
H4613 C4623 0.930 . S
C4614 H4608 0.930 . S
C4614 C4615 1.355 . S
C4614 C4616 1.415 . S
C4615 C4614 1.355 . S
C4615 C4617 1.419 . S
C4616 C4614 1.415 . S
C4616 C4621 1.425 . S
C4616 C4623 1.409 . S
C4617 H4609 0.930 . S
C4617 C4615 1.419 . S
C4617 C4618 1.362 . S
C4618 H4610 0.930 . S
C4618 C4617 1.362 . S
C4618 C4621 1.409 . S
C4619 H4611 0.930 . S
C4619 C4620 1.355 . S
C4619 C4621 1.415 . S
C4620 C4619 1.355 . S
C4620 C4622 1.419 . S
C4621 C4616 1.425 . S
C4621 C4618 1.409 . S
C4621 C4619 1.415 . S
C4622 H4612 0.930 . S
C4622 C4620 1.419 . S
C4622 C4623 1.362 . S
C4623 H4613 0.930 . S
C4623 C4616 1.409 . S
C4623 C4622 1.362 . S
H4624 C4630 0.930 . S
H4625 C4633 0.930 . S
H4626 C4634 0.930 . S
H4627 C4635 0.930 . S
H4628 C4638 0.930 . S
H4629 C4639 0.930 . S
C4630 H4624 0.930 . S
C4630 C4631 1.355 . S
C4630 C4632 1.415 . S
C4631 C4630 1.355 . S
C4631 C4633 1.419 . S
C4632 C4630 1.415 . S
C4632 C4637 1.425 . S
C4632 C4639 1.409 . S
C4633 H4625 0.930 . S
C4633 C4631 1.419 . S
C4633 C4634 1.362 . S
C4634 H4626 0.930 . S
C4634 C4633 1.362 . S
C4634 C4637 1.409 . S
C4635 H4627 0.930 . S
C4635 C4636 1.355 . S
C4635 C4637 1.415 . S
C4636 C4635 1.355 . S
C4636 C4638 1.419 . S
C4637 C4632 1.425 . S
C4637 C4634 1.409 . S
C4637 C4635 1.415 . S
C4638 H4628 0.930 . S
C4638 C4636 1.419 . S
C4638 C4639 1.362 . S
C4639 H4629 0.930 . S
C4639 C4632 1.409 . S
C4639 C4638 1.362 . S
H4640 C4646 0.930 . S
H4641 C4649 0.930 . S
H4642 C4650 0.930 . S
H4643 C4651 0.930 . S
H4644 C4654 0.930 . S
H4645 C4655 0.930 . S
C4646 H4640 0.930 . S
C4646 C4647 1.355 . S
C4646 C4648 1.415 . S
C4647 C4646 1.355 . S
C4647 C4649 1.419 . S
C4648 C4646 1.415 . S
C4648 C4653 1.425 . S
C4648 C4655 1.409 . S
C4649 H4641 0.930 . S
C4649 C4647 1.419 . S
C4649 C4650 1.362 . S
C4650 H4642 0.930 . S
C4650 C4649 1.362 . S
C4650 C4653 1.409 . S
C4651 H4643 0.930 . S
C4651 C4652 1.355 . S
C4651 C4653 1.415 . S
C4652 C4651 1.355 . S
C4652 C4654 1.419 . S
C4653 C4648 1.425 . S
C4653 C4650 1.409 . S
C4653 C4651 1.415 . S
C4654 H4644 0.930 . S
C4654 C4652 1.419 . S
C4654 C4655 1.362 . S
C4655 H4645 0.930 . S
C4655 C4648 1.409 . S
C4655 C4654 1.362 . S
H4656 C4662 0.930 . S
H4657 C4665 0.930 . S
H4658 C4666 0.930 . S
H4659 C4667 0.930 . S
H4660 C4670 0.930 . S
H4661 C4671 0.930 . S
C4662 H4656 0.930 . S
C4662 C4663 1.355 . S
C4662 C4664 1.415 . S
C4663 C4662 1.355 . S
C4663 C4665 1.419 . S
C4664 C4662 1.415 . S
C4664 C4669 1.425 . S
C4664 C4671 1.409 . S
C4665 H4657 0.930 . S
C4665 C4663 1.419 . S
C4665 C4666 1.362 . S
C4666 H4658 0.930 . S
C4666 C4665 1.362 . S
C4666 C4669 1.409 . S
C4667 H4659 0.930 . S
C4667 C4668 1.355 . S
C4667 C4669 1.415 . S
C4668 C4667 1.355 . S
C4668 C4670 1.419 . S
C4669 C4664 1.425 . S
C4669 C4666 1.409 . S
C4669 C4667 1.415 . S
C4670 H4660 0.930 . S
C4670 C4668 1.419 . S
C4670 C4671 1.362 . S
C4671 H4661 0.930 . S
C4671 C4664 1.409 . S
C4671 C4670 1.362 . S
H4672 C4678 0.930 . S
H4673 C4681 0.930 . S
H4674 C4682 0.930 . S
H4675 C4683 0.930 . S
H4676 C4686 0.930 . S
H4677 C4687 0.930 . S
C4678 H4672 0.930 . S
C4678 C4679 1.355 . S
C4678 C4680 1.415 . S
C4679 C4678 1.355 . S
C4679 C4681 1.419 . S
C4680 C4678 1.415 . S
C4680 C4685 1.425 . S
C4680 C4687 1.409 . S
C4681 H4673 0.930 . S
C4681 C4679 1.419 . S
C4681 C4682 1.362 . S
C4682 H4674 0.930 . S
C4682 C4681 1.362 . S
C4682 C4685 1.409 . S
C4683 H4675 0.930 . S
C4683 C4684 1.355 . S
C4683 C4685 1.415 . S
C4684 C4683 1.355 . S
C4684 C4686 1.419 . S
C4685 C4680 1.425 . S
C4685 C4682 1.409 . S
C4685 C4683 1.415 . S
C4686 H4676 0.930 . S
C4686 C4684 1.419 . S
C4686 C4687 1.362 . S
C4687 H4677 0.930 . S
C4687 C4680 1.409 . S
C4687 C4686 1.362 . S
H4688 C4694 0.930 . S
H4689 C4697 0.930 . S
H4690 C4698 0.930 . S
H4691 C4699 0.930 . S
H4692 C4702 0.930 . S
H4693 C4703 0.930 . S
C4694 H4688 0.930 . S
C4694 C4695 1.355 . S
C4694 C4696 1.415 . S
C4695 C4694 1.355 . S
C4695 C4697 1.419 . S
C4696 C4694 1.415 . S
C4696 C4701 1.425 . S
C4696 C4703 1.409 . S
C4697 H4689 0.930 . S
C4697 C4695 1.419 . S
C4697 C4698 1.362 . S
C4698 H4690 0.930 . S
C4698 C4697 1.362 . S
C4698 C4701 1.409 . S
C4699 H4691 0.930 . S
C4699 C4700 1.355 . S
C4699 C4701 1.415 . S
C4700 C4699 1.355 . S
C4700 C4702 1.419 . S
C4701 C4696 1.425 . S
C4701 C4698 1.409 . S
C4701 C4699 1.415 . S
C4702 H4692 0.930 . S
C4702 C4700 1.419 . S
C4702 C4703 1.362 . S
C4703 H4693 0.930 . S
C4703 C4696 1.409 . S
C4703 C4702 1.362 . S
H4704 C4710 0.930 . S
H4705 C4713 0.930 . S
H4706 C4714 0.930 . S
H4707 C4715 0.930 . S
H4708 C4718 0.930 . S
H4709 C4719 0.930 . S
C4710 H4704 0.930 . S
C4710 C4711 1.355 . S
C4710 C4712 1.415 . S
C4711 C4710 1.355 . S
C4711 C4713 1.419 . S
C4712 C4710 1.415 . S
C4712 C4717 1.425 . S
C4712 C4719 1.409 . S
C4713 H4705 0.930 . S
C4713 C4711 1.419 . S
C4713 C4714 1.362 . S
C4714 H4706 0.930 . S
C4714 C4713 1.362 . S
C4714 C4717 1.409 . S
C4715 H4707 0.930 . S
C4715 C4716 1.355 . S
C4715 C4717 1.415 . S
C4716 C4715 1.355 . S
C4716 C4718 1.419 . S
C4717 C4712 1.425 . S
C4717 C4714 1.409 . S
C4717 C4715 1.415 . S
C4718 H4708 0.930 . S
C4718 C4716 1.419 . S
C4718 C4719 1.362 . S
C4719 H4709 0.930 . S
C4719 C4712 1.409 . S
C4719 C4718 1.362 . S
H4720 C4726 0.930 . S
H4721 C4729 0.930 . S
H4722 C4730 0.930 . S
H4723 C4731 0.930 . S
H4724 C4734 0.930 . S
H4725 C4735 0.930 . S
C4726 H4720 0.930 . S
C4726 C4727 1.355 . S
C4726 C4728 1.415 . S
C4727 C4726 1.355 . S
C4727 C4729 1.419 . S
C4728 C4726 1.415 . S
C4728 C4733 1.425 . S
C4728 C4735 1.409 . S
C4729 H4721 0.930 . S
C4729 C4727 1.419 . S
C4729 C4730 1.362 . S
C4730 H4722 0.930 . S
C4730 C4729 1.362 . S
C4730 C4733 1.409 . S
C4731 H4723 0.930 . S
C4731 C4732 1.355 . S
C4731 C4733 1.415 . S
C4732 C4731 1.355 . S
C4732 C4734 1.419 . S
C4733 C4728 1.425 . S
C4733 C4730 1.409 . S
C4733 C4731 1.415 . S
C4734 H4724 0.930 . S
C4734 C4732 1.419 . S
C4734 C4735 1.362 . S
C4735 H4725 0.930 . S
C4735 C4728 1.409 . S
C4735 C4734 1.362 . S
H4736 C4742 0.930 . S
H4737 C4745 0.930 . S
H4738 C4746 0.930 . S
H4739 C4747 0.930 . S
H4740 C4750 0.930 . S
H4741 C4751 0.930 . S
C4742 H4736 0.930 . S
C4742 C4743 1.355 . S
C4742 C4744 1.415 . S
C4743 C4742 1.355 . S
C4743 C4745 1.419 . S
C4744 C4742 1.415 . S
C4744 C4749 1.425 . S
C4744 C4751 1.409 . S
C4745 H4737 0.930 . S
C4745 C4743 1.419 . S
C4745 C4746 1.362 . S
C4746 H4738 0.930 . S
C4746 C4745 1.362 . S
C4746 C4749 1.409 . S
C4747 H4739 0.930 . S
C4747 C4748 1.355 . S
C4747 C4749 1.415 . S
C4748 C4747 1.355 . S
C4748 C4750 1.419 . S
C4749 C4744 1.425 . S
C4749 C4746 1.409 . S
C4749 C4747 1.415 . S
C4750 H4740 0.930 . S
C4750 C4748 1.419 . S
C4750 C4751 1.362 . S
C4751 H4741 0.930 . S
C4751 C4744 1.409 . S
C4751 C4750 1.362 . S
H4752 C4758 0.930 . S
H4753 C4761 0.930 . S
H4754 C4762 0.930 . S
H4755 C4763 0.930 . S
H4756 C4766 0.930 . S
H4757 C4767 0.930 . S
C4758 H4752 0.930 . S
C4758 C4759 1.355 . S
C4758 C4760 1.415 . S
C4759 C4758 1.355 . S
C4759 C4761 1.419 . S
C4760 C4758 1.415 . S
C4760 C4765 1.425 . S
C4760 C4767 1.409 . S
C4761 H4753 0.930 . S
C4761 C4759 1.419 . S
C4761 C4762 1.362 . S
C4762 H4754 0.930 . S
C4762 C4761 1.362 . S
C4762 C4765 1.409 . S
C4763 H4755 0.930 . S
C4763 C4764 1.355 . S
C4763 C4765 1.415 . S
C4764 C4763 1.355 . S
C4764 C4766 1.419 . S
C4765 C4760 1.425 . S
C4765 C4762 1.409 . S
C4765 C4763 1.415 . S
C4766 H4756 0.930 . S
C4766 C4764 1.419 . S
C4766 C4767 1.362 . S
C4767 H4757 0.930 . S
C4767 C4760 1.409 . S
C4767 C4766 1.362 . S
H4768 C4774 0.930 . S
H4769 C4777 0.930 . S
H4770 C4778 0.930 . S
H4771 C4779 0.930 . S
H4772 C4782 0.930 . S
H4773 C4783 0.930 . S
C4774 H4768 0.930 . S
C4774 C4775 1.355 . S
C4774 C4776 1.415 . S
C4775 C4774 1.355 . S
C4775 C4777 1.419 . S
C4776 C4774 1.415 . S
C4776 C4781 1.425 . S
C4776 C4783 1.409 . S
C4777 H4769 0.930 . S
C4777 C4775 1.419 . S
C4777 C4778 1.362 . S
C4778 H4770 0.930 . S
C4778 C4777 1.362 . S
C4778 C4781 1.409 . S
C4779 H4771 0.930 . S
C4779 C4780 1.355 . S
C4779 C4781 1.415 . S
C4780 C4779 1.355 . S
C4780 C4782 1.419 . S
C4781 C4776 1.425 . S
C4781 C4778 1.409 . S
C4781 C4779 1.415 . S
C4782 H4772 0.930 . S
C4782 C4780 1.419 . S
C4782 C4783 1.362 . S
C4783 H4773 0.930 . S
C4783 C4776 1.409 . S
C4783 C4782 1.362 . S
H4784 C4790 0.930 . S
H4785 C4793 0.930 . S
H4786 C4794 0.930 . S
H4787 C4795 0.930 . S
H4788 C4798 0.930 . S
H4789 C4799 0.930 . S
C4790 H4784 0.930 . S
C4790 C4791 1.355 . S
C4790 C4792 1.415 . S
C4791 C4790 1.355 . S
C4791 C4793 1.419 . S
C4792 C4790 1.415 . S
C4792 C4797 1.425 . S
C4792 C4799 1.409 . S
C4793 H4785 0.930 . S
C4793 C4791 1.419 . S
C4793 C4794 1.362 . S
C4794 H4786 0.930 . S
C4794 C4793 1.362 . S
C4794 C4797 1.409 . S
C4795 H4787 0.930 . S
C4795 C4796 1.355 . S
C4795 C4797 1.415 . S
C4796 C4795 1.355 . S
C4796 C4798 1.419 . S
C4797 C4792 1.425 . S
C4797 C4794 1.409 . S
C4797 C4795 1.415 . S
C4798 H4788 0.930 . S
C4798 C4796 1.419 . S
C4798 C4799 1.362 . S
C4799 H4789 0.930 . S
C4799 C4792 1.409 . S
C4799 C4798 1.362 . S
H4800 C4806 0.930 . S
H4801 C4809 0.930 . S
H4802 C4810 0.930 . S
H4803 C4811 0.930 . S
H4804 C4814 0.930 . S
H4805 C4815 0.930 . S
C4806 H4800 0.930 . S
C4806 C4807 1.355 . S
C4806 C4808 1.415 . S
C4807 C4806 1.355 . S
C4807 C4809 1.419 . S
C4808 C4806 1.415 . S
C4808 C4813 1.425 . S
C4808 C4815 1.409 . S
C4809 H4801 0.930 . S
C4809 C4807 1.419 . S
C4809 C4810 1.362 . S
C4810 H4802 0.930 . S
C4810 C4809 1.362 . S
C4810 C4813 1.409 . S
C4811 H4803 0.930 . S
C4811 C4812 1.355 . S
C4811 C4813 1.415 . S
C4812 C4811 1.355 . S
C4812 C4814 1.419 . S
C4813 C4808 1.425 . S
C4813 C4810 1.409 . S
C4813 C4811 1.415 . S
C4814 H4804 0.930 . S
C4814 C4812 1.419 . S
C4814 C4815 1.362 . S
C4815 H4805 0.930 . S
C4815 C4808 1.409 . S
C4815 C4814 1.362 . S
H4816 C4822 0.930 1_655 S
H4817 C4825 0.930 . S
H4818 C4826 0.930 . S
H4819 C4827 0.930 . S
H4820 C4830 0.930 . S
H4821 C4831 0.930 . S
C4822 H4816 0.930 1_455 S
C4822 C4823 1.355 . S
C4822 C4824 1.415 1_455 S
C4823 C4822 1.355 . S
C4823 C4825 1.419 . S
C4824 C4822 1.415 1_655 S
C4824 C4829 1.425 1_655 S
C4824 C4831 1.409 . S
C4825 H4817 0.930 . S
C4825 C4823 1.419 . S
C4825 C4826 1.362 . S
C4826 H4818 0.930 . S
C4826 C4825 1.362 . S
C4826 C4829 1.409 . S
C4827 H4819 0.930 . S
C4827 C4828 1.355 . S
C4827 C4829 1.415 1_655 S
C4828 C4827 1.355 . S
C4828 C4830 1.419 . S
C4829 C4824 1.425 1_455 S
C4829 C4826 1.409 . S
C4829 C4827 1.415 1_455 S
C4830 H4820 0.930 . S
C4830 C4828 1.419 . S
C4830 C4831 1.362 . S
C4831 H4821 0.930 . S
C4831 C4824 1.409 . S
C4831 C4830 1.362 . S
H4832 C4838 0.930 . S
H4833 C4841 0.930 . S
H4834 C4842 0.930 . S
H4835 C4843 0.930 . S
H4836 C4846 0.930 . S
H4837 C4847 0.930 . S
C4838 H4832 0.930 . S
C4838 C4839 1.355 . S
C4838 C4840 1.415 . S
C4839 C4838 1.355 . S
C4839 C4841 1.419 . S
C4840 C4838 1.415 . S
C4840 C4845 1.425 . S
C4840 C4847 1.409 . S
C4841 H4833 0.930 . S
C4841 C4839 1.419 . S
C4841 C4842 1.362 . S
C4842 H4834 0.930 . S
C4842 C4841 1.362 . S
C4842 C4845 1.409 . S
C4843 H4835 0.930 . S
C4843 C4844 1.355 . S
C4843 C4845 1.415 . S
C4844 C4843 1.355 . S
C4844 C4846 1.419 . S
C4845 C4840 1.425 . S
C4845 C4842 1.409 . S
C4845 C4843 1.415 . S
C4846 H4836 0.930 . S
C4846 C4844 1.419 . S
C4846 C4847 1.362 . S
C4847 H4837 0.930 . S
C4847 C4840 1.409 . S
C4847 C4846 1.362 . S
H4848 C4854 0.930 . S
H4849 C4857 0.930 . S
H4850 C4858 0.930 . S
H4851 C4859 0.930 . S
H4852 C4862 0.930 . S
H4853 C4863 0.930 . S
C4854 H4848 0.930 . S
C4854 C4855 1.355 . S
C4854 C4856 1.415 1_545 S
C4855 C4854 1.355 . S
C4855 C4857 1.419 1_545 S
C4856 C4854 1.415 1_565 S
C4856 C4861 1.425 . S
C4856 C4863 1.409 1_565 S
C4857 H4849 0.930 . S
C4857 C4855 1.419 1_565 S
C4857 C4858 1.362 . S
C4858 H4850 0.930 . S
C4858 C4857 1.362 . S
C4858 C4861 1.409 . S
C4859 H4851 0.930 . S
C4859 C4860 1.355 . S
C4859 C4861 1.415 . S
C4860 C4859 1.355 . S
C4860 C4862 1.419 . S
C4861 C4856 1.425 . S
C4861 C4858 1.409 . S
C4861 C4859 1.415 . S
C4862 H4852 0.930 . S
C4862 C4860 1.419 . S
C4862 C4863 1.362 1_565 S
C4863 H4853 0.930 . S
C4863 C4856 1.409 1_545 S
C4863 C4862 1.362 1_545 S
H4864 C4870 0.930 . S
H4865 C4873 0.930 . S
H4866 C4874 0.930 . S
H4867 C4875 0.930 . S
H4868 C4878 0.930 . S
H4869 C4879 0.930 . S
C4870 H4864 0.930 . S
C4870 C4871 1.355 . S
C4870 C4872 1.415 . S
C4871 C4870 1.355 . S
C4871 C4873 1.419 . S
C4872 C4870 1.415 . S
C4872 C4877 1.425 . S
C4872 C4879 1.409 . S
C4873 H4865 0.930 . S
C4873 C4871 1.419 . S
C4873 C4874 1.362 . S
C4874 H4866 0.930 . S
C4874 C4873 1.362 . S
C4874 C4877 1.409 . S
C4875 H4867 0.930 . S
C4875 C4876 1.355 . S
C4875 C4877 1.415 . S
C4876 C4875 1.355 . S
C4876 C4878 1.419 . S
C4877 C4872 1.425 . S
C4877 C4874 1.409 . S
C4877 C4875 1.415 . S
C4878 H4868 0.930 . S
C4878 C4876 1.419 . S
C4878 C4879 1.362 . S
C4879 H4869 0.930 . S
C4879 C4872 1.409 . S
C4879 C4878 1.362 . S
H4880 C4886 0.930 . S
H4881 C4889 0.930 . S
H4882 C4890 0.930 . S
H4883 C4891 0.930 . S
H4884 C4894 0.930 . S
H4885 C4895 0.930 . S
C4886 H4880 0.930 . S
C4886 C4887 1.355 . S
C4886 C4888 1.415 . S
C4887 C4886 1.355 . S
C4887 C4889 1.419 . S
C4888 C4886 1.415 . S
C4888 C4893 1.425 . S
C4888 C4895 1.409 . S
C4889 H4881 0.930 . S
C4889 C4887 1.419 . S
C4889 C4890 1.362 . S
C4890 H4882 0.930 . S
C4890 C4889 1.362 . S
C4890 C4893 1.409 . S
C4891 H4883 0.930 . S
C4891 C4892 1.355 . S
C4891 C4893 1.415 . S
C4892 C4891 1.355 . S
C4892 C4894 1.419 . S
C4893 C4888 1.425 . S
C4893 C4890 1.409 . S
C4893 C4891 1.415 . S
C4894 H4884 0.930 . S
C4894 C4892 1.419 . S
C4894 C4895 1.362 . S
C4895 H4885 0.930 . S
C4895 C4888 1.409 . S
C4895 C4894 1.362 . S
H4896 C4902 0.930 . S
H4897 C4905 0.930 . S
H4898 C4906 0.930 . S
H4899 C4907 0.930 . S
H4900 C4910 0.930 . S
H4901 C4911 0.930 . S
C4902 H4896 0.930 . S
C4902 C4903 1.355 . S
C4902 C4904 1.415 1_455 S
C4903 C4902 1.355 . S
C4903 C4905 1.419 . S
C4904 C4902 1.415 1_655 S
C4904 C4909 1.425 1_655 S
C4904 C4911 1.409 . S
C4905 H4897 0.930 . S
C4905 C4903 1.419 . S
C4905 C4906 1.362 . S
C4906 H4898 0.930 . S
C4906 C4905 1.362 . S
C4906 C4909 1.409 . S
C4907 H4899 0.930 . S
C4907 C4908 1.355 . S
C4907 C4909 1.415 1_655 S
C4908 C4907 1.355 . S
C4908 C4910 1.419 . S
C4909 C4904 1.425 1_455 S
C4909 C4906 1.409 . S
C4909 C4907 1.415 1_455 S
C4910 H4900 0.930 . S
C4910 C4908 1.419 . S
C4910 C4911 1.362 . S
C4911 H4901 0.930 . S
C4911 C4904 1.409 . S
C4911 C4910 1.362 . S
H4912 C4918 0.930 . S
H4913 C4921 0.930 . S
H4914 C4922 0.930 1_545 S
H4915 C4923 0.930 1_545 S
H4916 C4926 0.930 . S
H4917 C4927 0.930 . S
C4918 H4912 0.930 . S
C4918 C4919 1.355 . S
C4918 C4920 1.415 . S
C4919 C4918 1.355 . S
C4919 C4921 1.419 . S
C4920 C4918 1.415 . S
C4920 C4925 1.425 . S
C4920 C4927 1.409 . S
C4921 H4913 0.930 . S
C4921 C4919 1.419 . S
C4921 C4922 1.362 . S
C4922 H4914 0.930 1_565 S
C4922 C4921 1.362 . S
C4922 C4925 1.409 . S
C4923 H4915 0.930 1_565 S
C4923 C4924 1.355 . S
C4923 C4925 1.415 . S
C4924 C4923 1.355 . S
C4924 C4926 1.419 . S
C4925 C4920 1.425 . S
C4925 C4922 1.409 . S
C4925 C4923 1.415 . S
C4926 H4916 0.930 . S
C4926 C4924 1.419 . S
C4926 C4927 1.362 . S
C4927 H4917 0.930 . S
C4927 C4920 1.409 . S
C4927 C4926 1.362 . S
H4928 C4934 0.930 . S
H4929 C4937 0.930 . S
H4930 C4938 0.930 . S
H4931 C4939 0.930 . S
H4932 C4942 0.930 . S
H4933 C4943 0.930 . S
C4934 H4928 0.930 . S
C4934 C4935 1.355 . S
C4934 C4936 1.415 . S
C4935 C4934 1.355 . S
C4935 C4937 1.419 . S
C4936 C4934 1.415 . S
C4936 C4941 1.425 . S
C4936 C4943 1.409 . S
C4937 H4929 0.930 . S
C4937 C4935 1.419 . S
C4937 C4938 1.362 . S
C4938 H4930 0.930 . S
C4938 C4937 1.362 . S
C4938 C4941 1.409 . S
C4939 H4931 0.930 . S
C4939 C4940 1.355 . S
C4939 C4941 1.415 . S
C4940 C4939 1.355 . S
C4940 C4942 1.419 . S
C4941 C4936 1.425 . S
C4941 C4938 1.409 . S
C4941 C4939 1.415 . S
C4942 H4932 0.930 . S
C4942 C4940 1.419 . S
C4942 C4943 1.362 . S
C4943 H4933 0.930 . S
C4943 C4936 1.409 . S
C4943 C4942 1.362 . S
H4944 C4950 0.930 . S
H4945 C4953 0.930 . S
H4946 C4954 0.930 . S
H4947 C4955 0.930 . S
H4948 C4958 0.930 . S
H4949 C4959 0.930 . S
C4950 H4944 0.930 . S
C4950 C4951 1.355 . S
C4950 C4952 1.415 . S
C4951 C4950 1.355 . S
C4951 C4953 1.419 . S
C4952 C4950 1.415 . S
C4952 C4957 1.425 1_455 S
C4952 C4959 1.409 . S
C4953 H4945 0.930 . S
C4953 C4951 1.419 . S
C4953 C4954 1.362 1_455 S
C4954 H4946 0.930 . S
C4954 C4953 1.362 1_655 S
C4954 C4957 1.409 . S
C4955 H4947 0.930 . S
C4955 C4956 1.355 . S
C4955 C4957 1.415 . S
C4956 C4955 1.355 . S
C4956 C4958 1.419 . S
C4957 C4952 1.425 1_655 S
C4957 C4954 1.409 . S
C4957 C4955 1.415 . S
C4958 H4948 0.930 . S
C4958 C4956 1.419 . S
C4958 C4959 1.362 1_655 S
C4959 H4949 0.930 . S
C4959 C4952 1.409 . S
C4959 C4958 1.362 1_455 S
H4960 C4966 0.930 . S
H4961 C4969 0.930 . S
H4962 C4970 0.930 . S
H4963 C4971 0.930 . S
H4964 C4974 0.930 . S
H4965 C4975 0.930 . S
C4966 H4960 0.930 . S
C4966 C4967 1.355 . S
C4966 C4968 1.415 . S
C4967 C4966 1.355 . S
C4967 C4969 1.419 . S
C4968 C4966 1.415 . S
C4968 C4973 1.425 . S
C4968 C4975 1.409 . S
C4969 H4961 0.930 . S
C4969 C4967 1.419 . S
C4969 C4970 1.362 . S
C4970 H4962 0.930 . S
C4970 C4969 1.362 . S
C4970 C4973 1.409 . S
C4971 H4963 0.930 . S
C4971 C4972 1.355 . S
C4971 C4973 1.415 . S
C4972 C4971 1.355 . S
C4972 C4974 1.419 . S
C4973 C4968 1.425 . S
C4973 C4970 1.409 . S
C4973 C4971 1.415 . S
C4974 H4964 0.930 . S
C4974 C4972 1.419 . S
C4974 C4975 1.362 . S
C4975 H4965 0.930 . S
C4975 C4968 1.409 . S
C4975 C4974 1.362 . S
H4976 C4982 0.930 . S
H4977 C4985 0.930 . S
H4978 C4986 0.930 . S
H4979 C4987 0.930 . S
H4980 C4990 0.930 . S
H4981 C4991 0.930 . S
C4982 H4976 0.930 . S
C4982 C4983 1.355 . S
C4982 C4984 1.415 . S
C4983 C4982 1.355 . S
C4983 C4985 1.419 . S
C4984 C4982 1.415 . S
C4984 C4989 1.425 . S
C4984 C4991 1.409 . S
C4985 H4977 0.930 . S
C4985 C4983 1.419 . S
C4985 C4986 1.362 . S
C4986 H4978 0.930 . S
C4986 C4985 1.362 . S
C4986 C4989 1.409 . S
C4987 H4979 0.930 . S
C4987 C4988 1.355 . S
C4987 C4989 1.415 . S
C4988 C4987 1.355 . S
C4988 C4990 1.419 . S
C4989 C4984 1.425 . S
C4989 C4986 1.409 . S
C4989 C4987 1.415 . S
C4990 H4980 0.930 . S
C4990 C4988 1.419 . S
C4990 C4991 1.362 . S
C4991 H4981 0.930 . S
C4991 C4984 1.409 . S
C4991 C4990 1.362 . S
H4992 C4998 0.930 1_545 S
H4993 C5001 0.930 . S
H4994 C5002 0.930 . S
H4995 C5003 0.930 . S
H4996 C5006 0.930 . S
H4997 C5007 0.930 1_545 S
C4998 H4992 0.930 1_565 S
C4998 C4999 1.355 . S
C4998 C5000 1.415 . S
C4999 C4998 1.355 . S
C4999 C5001 1.419 . S
C5000 C4998 1.415 . S
C5000 C5005 1.425 . S
C5000 C5007 1.409 . S
C5001 H4993 0.930 . S
C5001 C4999 1.419 . S
C5001 C5002 1.362 . S
C5002 H4994 0.930 . S
C5002 C5001 1.362 . S
C5002 C5005 1.409 . S
C5003 H4995 0.930 . S
C5003 C5004 1.355 . S
C5003 C5005 1.415 . S
C5004 C5003 1.355 . S
C5004 C5006 1.419 . S
C5005 C5000 1.425 . S
C5005 C5002 1.409 . S
C5005 C5003 1.415 . S
C5006 H4996 0.930 . S
C5006 C5004 1.419 . S
C5006 C5007 1.362 . S
C5007 H4997 0.930 1_565 S
C5007 C5000 1.409 . S
C5007 C5006 1.362 . S
H5008 C5014 0.930 1_554 S
H5009 C5017 0.930 . S
H5010 C5018 0.930 . S
H5011 C5019 0.930 . S
H5012 C5022 0.930 . S
H5013 C5023 0.930 . S
C5014 H5008 0.930 1_556 S
C5014 C5015 1.355 . S
C5014 C5016 1.415 . S
C5015 C5014 1.355 . S
C5015 C5017 1.419 . S
C5016 C5014 1.415 . S
C5016 C5021 1.425 . S
C5016 C5023 1.409 . S
C5017 H5009 0.930 . S
C5017 C5015 1.419 . S
C5017 C5018 1.362 . S
C5018 H5010 0.930 . S
C5018 C5017 1.362 . S
C5018 C5021 1.409 . S
C5019 H5011 0.930 . S
C5019 C5020 1.355 . S
C5019 C5021 1.415 . S
C5020 C5019 1.355 . S
C5020 C5022 1.419 . S
C5021 C5016 1.425 . S
C5021 C5018 1.409 . S
C5021 C5019 1.415 . S
C5022 H5012 0.930 . S
C5022 C5020 1.419 . S
C5022 C5023 1.362 . S
C5023 H5013 0.930 . S
C5023 C5016 1.409 . S
C5023 C5022 1.362 . S
H5024 C5030 0.930 . S
H5025 C5033 0.930 . S
H5026 C5034 0.930 . S
H5027 C5035 0.930 . S
H5028 C5038 0.930 . S
H5029 C5039 0.930 . S
C5030 H5024 0.930 . S
C5030 C5031 1.355 . S
C5030 C5032 1.415 . S
C5031 C5030 1.355 . S
C5031 C5033 1.419 . S
C5032 C5030 1.415 . S
C5032 C5037 1.425 . S
C5032 C5039 1.409 . S
C5033 H5025 0.930 . S
C5033 C5031 1.419 . S
C5033 C5034 1.362 . S
C5034 H5026 0.930 . S
C5034 C5033 1.362 . S
C5034 C5037 1.409 . S
C5035 H5027 0.930 . S
C5035 C5036 1.355 . S
C5035 C5037 1.415 . S
C5036 C5035 1.355 . S
C5036 C5038 1.419 . S
C5037 C5032 1.425 . S
C5037 C5034 1.409 . S
C5037 C5035 1.415 . S
C5038 H5028 0.930 . S
C5038 C5036 1.419 . S
C5038 C5039 1.362 . S
C5039 H5029 0.930 . S
C5039 C5032 1.409 . S
C5039 C5038 1.362 . S
H5040 C5046 0.930 . S
H5041 C5049 0.930 . S
H5042 C5050 0.930 . S
H5043 C5051 0.930 . S
H5044 C5054 0.930 1_554 S
H5045 C5055 0.943 . S
C5046 H5040 0.930 . S
C5046 C5047 1.355 . S
C5046 C5048 1.415 . S
C5047 C5046 1.355 . S
C5047 C5049 1.419 . S
C5048 C5046 1.415 . S
C5048 C5053 1.425 . S
C5048 C5055 1.409 . S
C5049 H5041 0.930 . S
C5049 C5047 1.419 . S
C5049 C5050 1.362 . S
C5050 H5042 0.930 . S
C5050 C5049 1.362 . S
C5050 C5053 1.409 . S
C5051 H5043 0.930 . S
C5051 C5052 1.355 . S
C5051 C5053 1.415 . S
C5052 C5051 1.355 . S
C5052 C5054 1.419 . S
C5053 C5048 1.425 . S
C5053 C5050 1.409 . S
C5053 C5051 1.415 . S
C5054 H5044 0.930 1_556 S
C5054 C5052 1.419 . S
C5054 C5055 1.362 . S
C5055 H5045 0.943 . S
C5055 C5048 1.409 . S
C5055 C5054 1.362 . S
H5056 C5062 0.930 . S
H5057 C5065 0.930 . S
H5058 C5066 0.930 . S
H5059 C5067 0.930 . S
H5060 C5070 0.930 . S
H5061 C5071 0.930 . S
C5062 H5056 0.930 . S
C5062 C5063 1.355 . S
C5062 C5064 1.415 . S
C5063 C5062 1.355 . S
C5063 C5065 1.419 . S
C5064 C5062 1.415 . S
C5064 C5069 1.425 . S
C5064 C5071 1.409 . S
C5065 H5057 0.930 . S
C5065 C5063 1.419 . S
C5065 C5066 1.362 . S
C5066 H5058 0.930 . S
C5066 C5065 1.362 . S
C5066 C5069 1.409 . S
C5067 H5059 0.930 . S
C5067 C5068 1.355 . S
C5067 C5069 1.415 . S
C5068 C5067 1.355 . S
C5068 C5070 1.419 . S
C5069 C5064 1.425 . S
C5069 C5066 1.409 . S
C5069 C5067 1.415 . S
C5070 H5060 0.930 . S
C5070 C5068 1.419 . S
C5070 C5071 1.362 . S
C5071 H5061 0.930 . S
C5071 C5064 1.409 . S
C5071 C5070 1.362 . S
H5072 C5078 0.930 . S
H5073 C5081 0.930 . S
H5074 C5082 0.930 . S
H5075 C5083 0.930 . S
H5076 C5086 0.930 . S
H5077 C5087 0.930 . S
C5078 H5072 0.930 . S
C5078 C5079 1.355 . S
C5078 C5080 1.415 . S
C5079 C5078 1.355 . S
C5079 C5081 1.419 . S
C5080 C5078 1.415 . S
C5080 C5085 1.425 . S
C5080 C5087 1.409 . S
C5081 H5073 0.930 . S
C5081 C5079 1.419 . S
C5081 C5082 1.362 . S
C5082 H5074 0.930 . S
C5082 C5081 1.362 . S
C5082 C5085 1.409 . S
C5083 H5075 0.930 . S
C5083 C5084 1.355 . S
C5083 C5085 1.415 . S
C5084 C5083 1.355 . S
C5084 C5086 1.419 . S
C5085 C5080 1.425 . S
C5085 C5082 1.409 . S
C5085 C5083 1.415 . S
C5086 H5076 0.930 . S
C5086 C5084 1.419 . S
C5086 C5087 1.362 . S
C5087 H5077 0.930 . S
C5087 C5080 1.409 . S
C5087 C5086 1.362 . S
H5088 C5094 0.930 . S
H5089 C5097 0.930 . S
H5090 C5098 0.930 . S
H5091 C5099 0.930 . S
H5092 C5102 0.930 . S
H5093 C5103 0.930 . S
C5094 H5088 0.930 . S
C5094 C5095 1.355 . S
C5094 C5096 1.415 . S
C5095 C5094 1.355 . S
C5095 C5097 1.419 . S
C5096 C5094 1.415 . S
C5096 C5101 1.425 . S
C5096 C5103 1.409 . S
C5097 H5089 0.930 . S
C5097 C5095 1.419 . S
C5097 C5098 1.362 . S
C5098 H5090 0.930 . S
C5098 C5097 1.362 . S
C5098 C5101 1.409 . S
C5099 H5091 0.930 . S
C5099 C5100 1.355 . S
C5099 C5101 1.415 . S
C5100 C5099 1.355 . S
C5100 C5102 1.419 . S
C5101 C5096 1.425 . S
C5101 C5098 1.409 . S
C5101 C5099 1.415 . S
C5102 H5092 0.930 . S
C5102 C5100 1.419 . S
C5102 C5103 1.362 . S
C5103 H5093 0.930 . S
C5103 C5096 1.409 . S
C5103 C5102 1.362 . S
H5104 C5110 0.930 . S
H5105 C5113 0.930 . S
H5106 C5114 0.930 . S
H5107 C5115 0.930 . S
H5108 C5118 0.930 . S
H5109 C5119 0.930 . S
C5110 H5104 0.930 . S
C5110 C5111 1.355 . S
C5110 C5112 1.415 . S
C5111 C5110 1.355 . S
C5111 C5113 1.419 . S
C5112 C5110 1.415 . S
C5112 C5117 1.425 . S
C5112 C5119 1.409 . S
C5113 H5105 0.930 . S
C5113 C5111 1.419 . S
C5113 C5114 1.362 . S
C5114 H5106 0.930 . S
C5114 C5113 1.362 . S
C5114 C5117 1.409 . S
C5115 H5107 0.930 . S
C5115 C5116 1.355 . S
C5115 C5117 1.415 . S
C5116 C5115 1.355 . S
C5116 C5118 1.419 . S
C5117 C5112 1.425 . S
C5117 C5114 1.409 . S
C5117 C5115 1.415 . S
C5118 H5108 0.930 . S
C5118 C5116 1.419 . S
C5118 C5119 1.362 . S
C5119 H5109 0.930 . S
C5119 C5112 1.409 . S
C5119 C5118 1.362 . S
H5120 C5126 0.930 . S
H5121 C5129 0.930 . S
H5122 C5130 0.930 . S
H5123 C5131 0.930 . S
H5124 C5134 0.930 . S
H5125 C5135 0.930 . S
C5126 H5120 0.930 . S
C5126 C5127 1.355 . S
C5126 C5128 1.415 . S
C5127 C5126 1.355 . S
C5127 C5129 1.419 . S
C5128 C5126 1.415 . S
C5128 C5133 1.425 . S
C5128 C5135 1.409 . S
C5129 H5121 0.930 . S
C5129 C5127 1.419 . S
C5129 C5130 1.362 . S
C5130 H5122 0.930 . S
C5130 C5129 1.362 . S
C5130 C5133 1.409 . S
C5131 H5123 0.930 . S
C5131 C5132 1.355 . S
C5131 C5133 1.415 . S
C5132 C5131 1.355 . S
C5132 C5134 1.419 . S
C5133 C5128 1.425 . S
C5133 C5130 1.409 . S
C5133 C5131 1.415 . S
C5134 H5124 0.930 . S
C5134 C5132 1.419 . S
C5134 C5135 1.362 . S
C5135 H5125 0.930 . S
C5135 C5128 1.409 . S
C5135 C5134 1.362 . S
H5136 C5142 0.930 . S
H5137 C5145 0.930 1_455 S
H5138 C5146 0.930 . S
H5139 C5147 0.930 . S
H5140 C5150 0.930 . S
H5141 C5151 0.930 . S
C5142 H5136 0.930 . S
C5142 C5143 1.355 . S
C5142 C5144 1.415 . S
C5143 C5142 1.355 . S
C5143 C5145 1.419 . S
C5144 C5142 1.415 . S
C5144 C5149 1.425 . S
C5144 C5151 1.409 . S
C5145 H5137 0.930 1_655 S
C5145 C5143 1.419 . S
C5145 C5146 1.362 . S
C5146 H5138 0.930 . S
C5146 C5145 1.362 . S
C5146 C5149 1.409 . S
C5147 H5139 0.930 . S
C5147 C5148 1.355 . S
C5147 C5149 1.415 . S
C5148 C5147 1.355 . S
C5148 C5150 1.419 . S
C5149 C5144 1.425 . S
C5149 C5146 1.409 . S
C5149 C5147 1.415 . S
C5150 H5140 0.930 . S
C5150 C5148 1.419 . S
C5150 C5151 1.362 . S
C5151 H5141 0.930 . S
C5151 C5144 1.409 . S
C5151 C5150 1.362 . S
H5152 C5158 0.930 . S
H5153 C5161 0.943 . S
H5154 C5162 0.930 . S
H5155 C5163 0.930 . S
H5156 C5166 0.930 . S
H5157 C5167 0.930 . S
C5158 H5152 0.930 . S
C5158 C5159 1.370 . S
C5158 C5160 1.415 . S
C5159 C5158 1.370 . S
C5159 C5161 1.420 1_565 S
C5160 C5158 1.415 . S
C5160 C5165 1.425 . S
C5160 C5167 1.409 . S
C5161 H5153 0.943 . S
C5161 C5159 1.420 1_545 S
C5161 C5162 1.349 1_545 S
C5162 H5154 0.930 . S
C5162 C5161 1.349 1_565 S
C5162 C5165 1.409 . S
C5163 H5155 0.930 . S
C5163 C5164 1.355 . S
C5163 C5165 1.415 . S
C5164 C5163 1.355 . S
C5164 C5166 1.419 . S
C5165 C5160 1.425 . S
C5165 C5162 1.409 . S
C5165 C5163 1.415 . S
C5166 H5156 0.930 . S
C5166 C5164 1.419 . S
C5166 C5167 1.362 . S
C5167 H5157 0.930 . S
C5167 C5160 1.409 . S
C5167 C5166 1.362 . S
H5168 C5174 0.930 . S
H5169 C5177 0.930 . S
H5170 C5178 0.930 . S
H5171 C5179 0.930 . S
H5172 C5182 0.930 . S
H5173 C5183 0.930 . S
C5174 H5168 0.930 . S
C5174 C5175 1.355 . S
C5174 C5176 1.415 . S
C5175 C5174 1.355 . S
C5175 C5177 1.419 . S
C5176 C5174 1.415 . S
C5176 C5181 1.425 . S
C5176 C5183 1.409 . S
C5177 H5169 0.930 . S
C5177 C5175 1.419 . S
C5177 C5178 1.362 . S
C5178 H5170 0.930 . S
C5178 C5177 1.362 . S
C5178 C5181 1.409 . S
C5179 H5171 0.930 . S
C5179 C5180 1.355 . S
C5179 C5181 1.415 . S
C5180 C5179 1.355 . S
C5180 C5182 1.419 . S
C5181 C5176 1.425 . S
C5181 C5178 1.409 . S
C5181 C5179 1.415 . S
C5182 H5172 0.930 . S
C5182 C5180 1.419 . S
C5182 C5183 1.362 . S
C5183 H5173 0.930 . S
C5183 C5176 1.409 . S
C5183 C5182 1.362 . S
H5184 C5190 0.930 . S
H5185 C5193 0.930 . S
H5186 C5194 0.930 . S
H5187 C5195 0.930 . S
H5188 C5198 0.930 . S
H5189 C5199 0.930 . S
C5190 H5184 0.930 . S
C5190 C5191 1.355 . S
C5190 C5192 1.415 . S
C5191 C5190 1.355 . S
C5191 C5193 1.419 . S
C5192 C5190 1.415 . S
C5192 C5197 1.425 . S
C5192 C5199 1.409 . S
C5193 H5185 0.930 . S
C5193 C5191 1.419 . S
C5193 C5194 1.362 . S
C5194 H5186 0.930 . S
C5194 C5193 1.362 . S
C5194 C5197 1.409 . S
C5195 H5187 0.930 . S
C5195 C5196 1.355 . S
C5195 C5197 1.415 . S
C5196 C5195 1.355 . S
C5196 C5198 1.419 . S
C5197 C5192 1.425 . S
C5197 C5194 1.409 . S
C5197 C5195 1.415 . S
C5198 H5188 0.930 . S
C5198 C5196 1.419 . S
C5198 C5199 1.362 . S
C5199 H5189 0.930 . S
C5199 C5192 1.409 . S
C5199 C5198 1.362 . S
H5200 C5206 0.930 . S
H5201 C5209 0.930 . S
H5202 C5210 0.930 . S
H5203 C5211 0.930 . S
H5204 C5214 0.930 . S
H5205 C5215 0.930 . S
C5206 H5200 0.930 . S
C5206 C5207 1.355 . S
C5206 C5208 1.415 . S
C5207 C5206 1.355 . S
C5207 C5209 1.419 . S
C5208 C5206 1.415 . S
C5208 C5213 1.425 . S
C5208 C5215 1.409 . S
C5209 H5201 0.930 . S
C5209 C5207 1.419 . S
C5209 C5210 1.362 . S
C5210 H5202 0.930 . S
C5210 C5209 1.362 . S
C5210 C5213 1.409 . S
C5211 H5203 0.930 . S
C5211 C5212 1.355 . S
C5211 C5213 1.415 . S
C5212 C5211 1.355 . S
C5212 C5214 1.419 . S
C5213 C5208 1.425 . S
C5213 C5210 1.409 . S
C5213 C5211 1.415 . S
C5214 H5204 0.930 . S
C5214 C5212 1.419 . S
C5214 C5215 1.362 . S
C5215 H5205 0.930 . S
C5215 C5208 1.409 . S
C5215 C5214 1.362 . S
H5216 C5222 0.930 . S
H5217 C5225 0.930 . S
H5218 C5226 0.930 . S
H5219 C5227 0.930 . S
H5220 C5230 0.930 . S
H5221 C5231 0.930 . S
C5222 H5216 0.930 . S
C5222 C5223 1.355 . S
C5222 C5224 1.415 . S
C5223 C5222 1.355 . S
C5223 C5225 1.419 . S
C5224 C5222 1.415 . S
C5224 C5229 1.425 . S
C5224 C5231 1.409 . S
C5225 H5217 0.930 . S
C5225 C5223 1.419 . S
C5225 C5226 1.362 . S
C5226 H5218 0.930 . S
C5226 C5225 1.362 . S
C5226 C5229 1.409 . S
C5227 H5219 0.930 . S
C5227 C5228 1.355 . S
C5227 C5229 1.415 . S
C5228 C5227 1.355 . S
C5228 C5230 1.419 . S
C5229 C5224 1.425 . S
C5229 C5226 1.409 . S
C5229 C5227 1.415 . S
C5230 H5220 0.930 . S
C5230 C5228 1.419 . S
C5230 C5231 1.362 . S
C5231 H5221 0.930 . S
C5231 C5224 1.409 . S
C5231 C5230 1.362 . S
H5232 C5238 0.930 . S
H5233 C5241 0.930 . S
H5234 C5242 0.930 . S
H5235 C5243 0.930 . S
H5236 C5246 0.930 . S
H5237 C5247 0.930 . S
C5238 H5232 0.930 . S
C5238 C5239 1.355 . S
C5238 C5240 1.415 . S
C5239 C5238 1.355 . S
C5239 C5241 1.419 . S
C5240 C5238 1.415 . S
C5240 C5245 1.425 . S
C5240 C5247 1.409 . S
C5241 H5233 0.930 . S
C5241 C5239 1.419 . S
C5241 C5242 1.362 . S
C5242 H5234 0.930 . S
C5242 C5241 1.362 . S
C5242 C5245 1.409 . S
C5243 H5235 0.930 . S
C5243 C5244 1.355 . S
C5243 C5245 1.415 . S
C5244 C5243 1.355 . S
C5244 C5246 1.419 . S
C5245 C5240 1.425 . S
C5245 C5242 1.409 . S
C5245 C5243 1.415 . S
C5246 H5236 0.930 . S
C5246 C5244 1.419 . S
C5246 C5247 1.362 . S
C5247 H5237 0.930 . S
C5247 C5240 1.409 . S
C5247 C5246 1.362 . S
H5248 C5254 0.930 . S
H5249 C5257 0.930 . S
H5250 C5258 0.930 . S
H5251 C5259 0.930 . S
H5252 C5262 0.930 . S
H5253 C5263 0.930 . S
C5254 H5248 0.930 . S
C5254 C5255 1.355 . S
C5254 C5256 1.415 . S
C5255 C5254 1.355 . S
C5255 C5257 1.419 . S
C5256 C5254 1.415 . S
C5256 C5261 1.425 . S
C5256 C5263 1.409 . S
C5257 H5249 0.930 . S
C5257 C5255 1.419 . S
C5257 C5258 1.362 . S
C5258 H5250 0.930 . S
C5258 C5257 1.362 . S
C5258 C5261 1.409 . S
C5259 H5251 0.930 . S
C5259 C5260 1.355 . S
C5259 C5261 1.415 . S
C5260 C5259 1.355 . S
C5260 C5262 1.419 . S
C5261 C5256 1.425 . S
C5261 C5258 1.409 . S
C5261 C5259 1.415 . S
C5262 H5252 0.930 . S
C5262 C5260 1.419 . S
C5262 C5263 1.362 . S
C5263 H5253 0.930 . S
C5263 C5256 1.409 . S
C5263 C5262 1.362 . S
H5264 C5270 0.930 . S
H5265 C5273 0.930 . S
H5266 C5274 0.930 . S
H5267 C5275 0.930 . S
H5268 C5278 0.930 . S
H5269 C5279 0.930 . S
C5270 H5264 0.930 . S
C5270 C5271 1.355 . S
C5270 C5272 1.415 . S
C5271 C5270 1.355 . S
C5271 C5273 1.419 . S
C5272 C5270 1.415 . S
C5272 C5277 1.425 . S
C5272 C5279 1.409 . S
C5273 H5265 0.930 . S
C5273 C5271 1.419 . S
C5273 C5274 1.362 . S
C5274 H5266 0.930 . S
C5274 C5273 1.362 . S
C5274 C5277 1.409 . S
C5275 H5267 0.930 . S
C5275 C5276 1.355 . S
C5275 C5277 1.415 . S
C5276 C5275 1.355 . S
C5276 C5278 1.419 . S
C5277 C5272 1.425 . S
C5277 C5274 1.409 . S
C5277 C5275 1.415 . S
C5278 H5268 0.930 . S
C5278 C5276 1.419 . S
C5278 C5279 1.362 . S
C5279 H5269 0.930 . S
C5279 C5272 1.409 . S
C5279 C5278 1.362 . S
H5280 C5286 0.930 . S
H5281 C5289 0.930 . S
H5282 C5290 0.930 . S
H5283 C5291 0.930 . S
H5284 C5294 0.930 . S
H5285 C5295 0.930 . S
C5286 H5280 0.930 . S
C5286 C5287 1.355 . S
C5286 C5288 1.415 . S
C5287 C5286 1.355 . S
C5287 C5289 1.419 . S
C5288 C5286 1.415 . S
C5288 C5293 1.425 . S
C5288 C5295 1.409 . S
C5289 H5281 0.930 . S
C5289 C5287 1.419 . S
C5289 C5290 1.362 . S
C5290 H5282 0.930 . S
C5290 C5289 1.362 . S
C5290 C5293 1.409 . S
C5291 H5283 0.930 . S
C5291 C5292 1.355 . S
C5291 C5293 1.415 . S
C5292 C5291 1.355 . S
C5292 C5294 1.419 . S
C5293 C5288 1.425 . S
C5293 C5290 1.409 . S
C5293 C5291 1.415 . S
C5294 H5284 0.930 . S
C5294 C5292 1.419 . S
C5294 C5295 1.362 . S
C5295 H5285 0.930 . S
C5295 C5288 1.409 . S
C5295 C5294 1.362 . S
H5296 C5302 0.930 . S
H5297 C5305 0.930 . S
H5298 C5306 0.930 . S
H5299 C5307 0.930 . S
H5300 C5310 0.930 . S
H5301 C5311 0.930 . S
C5302 H5296 0.930 . S
C5302 C5303 1.355 . S
C5302 C5304 1.415 . S
C5303 C5302 1.355 . S
C5303 C5305 1.419 . S
C5304 C5302 1.415 . S
C5304 C5309 1.425 . S
C5304 C5311 1.409 . S
C5305 H5297 0.930 . S
C5305 C5303 1.419 . S
C5305 C5306 1.362 . S
C5306 H5298 0.930 . S
C5306 C5305 1.362 . S
C5306 C5309 1.409 . S
C5307 H5299 0.930 . S
C5307 C5308 1.355 . S
C5307 C5309 1.415 . S
C5308 C5307 1.355 . S
C5308 C5310 1.419 . S
C5309 C5304 1.425 . S
C5309 C5306 1.409 . S
C5309 C5307 1.415 . S
C5310 H5300 0.930 . S
C5310 C5308 1.419 . S
C5310 C5311 1.362 . S
C5311 H5301 0.930 . S
C5311 C5304 1.409 . S
C5311 C5310 1.362 . S
H5312 C5318 0.930 . S
H5313 C5321 0.930 . S
H5314 C5322 0.930 . S
H5315 C5323 0.930 . S
H5316 C5326 0.930 . S
H5317 C5327 0.930 . S
C5318 H5312 0.930 . S
C5318 C5319 1.355 . S
C5318 C5320 1.415 . S
C5319 C5318 1.355 . S
C5319 C5321 1.419 . S
C5320 C5318 1.415 . S
C5320 C5325 1.425 . S
C5320 C5327 1.409 . S
C5321 H5313 0.930 . S
C5321 C5319 1.419 . S
C5321 C5322 1.362 . S
C5322 H5314 0.930 . S
C5322 C5321 1.362 . S
C5322 C5325 1.409 . S
C5323 H5315 0.930 . S
C5323 C5324 1.355 . S
C5323 C5325 1.415 . S
C5324 C5323 1.355 . S
C5324 C5326 1.419 . S
C5325 C5320 1.425 . S
C5325 C5322 1.409 . S
C5325 C5323 1.415 . S
C5326 H5316 0.930 . S
C5326 C5324 1.419 . S
C5326 C5327 1.362 . S
C5327 H5317 0.930 . S
C5327 C5320 1.409 . S
C5327 C5326 1.362 . S
H5328 C5334 0.930 . S
H5329 C5337 0.930 . S
H5330 C5338 0.930 . S
H5331 C5339 0.930 . S
H5332 C5342 0.930 . S
H5333 C5343 0.930 . S
C5334 H5328 0.930 . S
C5334 C5335 1.355 . S
C5334 C5336 1.415 . S
C5335 C5334 1.355 . S
C5335 C5337 1.419 . S
C5336 C5334 1.415 . S
C5336 C5341 1.425 . S
C5336 C5343 1.409 . S
C5337 H5329 0.930 . S
C5337 C5335 1.419 . S
C5337 C5338 1.362 . S
C5338 H5330 0.930 . S
C5338 C5337 1.362 . S
C5338 C5341 1.409 . S
C5339 H5331 0.930 . S
C5339 C5340 1.355 . S
C5339 C5341 1.415 . S
C5340 C5339 1.355 . S
C5340 C5342 1.419 . S
C5341 C5336 1.425 . S
C5341 C5338 1.409 . S
C5341 C5339 1.415 . S
C5342 H5332 0.930 . S
C5342 C5340 1.419 . S
C5342 C5343 1.362 . S
C5343 H5333 0.930 . S
C5343 C5336 1.409 . S
C5343 C5342 1.362 . S
H5344 C5350 0.930 . S
H5345 C5353 0.930 . S
H5346 C5354 0.930 . S
H5347 C5355 0.930 . S
H5348 C5358 0.930 . S
H5349 C5359 0.930 . S
C5350 H5344 0.930 . S
C5350 C5351 1.355 . S
C5350 C5352 1.415 . S
C5351 C5350 1.355 . S
C5351 C5353 1.419 . S
C5352 C5350 1.415 . S
C5352 C5357 1.425 . S
C5352 C5359 1.409 . S
C5353 H5345 0.930 . S
C5353 C5351 1.419 . S
C5353 C5354 1.362 . S
C5354 H5346 0.930 . S
C5354 C5353 1.362 . S
C5354 C5357 1.409 . S
C5355 H5347 0.930 . S
C5355 C5356 1.355 . S
C5355 C5357 1.415 . S
C5356 C5355 1.355 . S
C5356 C5358 1.419 . S
C5357 C5352 1.425 . S
C5357 C5354 1.409 . S
C5357 C5355 1.415 . S
C5358 H5348 0.930 . S
C5358 C5356 1.419 . S
C5358 C5359 1.362 . S
C5359 H5349 0.930 . S
C5359 C5352 1.409 . S
C5359 C5358 1.362 . S
H5360 C5366 0.930 . S
H5361 C5369 0.930 . S
H5362 C5370 0.930 . S
H5363 C5371 0.930 . S
H5364 C5374 0.930 . S
H5365 C5375 0.930 . S
C5366 H5360 0.930 . S
C5366 C5367 1.355 . S
C5366 C5368 1.415 . S
C5367 C5366 1.355 . S
C5367 C5369 1.419 . S
C5368 C5366 1.415 . S
C5368 C5373 1.425 . S
C5368 C5375 1.409 . S
C5369 H5361 0.930 . S
C5369 C5367 1.419 . S
C5369 C5370 1.362 . S
C5370 H5362 0.930 . S
C5370 C5369 1.362 . S
C5370 C5373 1.409 . S
C5371 H5363 0.930 . S
C5371 C5372 1.355 . S
C5371 C5373 1.415 . S
C5372 C5371 1.355 . S
C5372 C5374 1.419 . S
C5373 C5368 1.425 . S
C5373 C5370 1.409 . S
C5373 C5371 1.415 . S
C5374 H5364 0.930 . S
C5374 C5372 1.419 . S
C5374 C5375 1.362 . S
C5375 H5365 0.930 . S
C5375 C5368 1.409 . S
C5375 C5374 1.362 . S
H5376 C5382 0.930 . S
H5377 C5385 0.930 . S
H5378 C5386 0.930 . S
H5379 C5387 0.930 . S
H5380 C5390 0.930 . S
H5381 C5391 0.930 . S
C5382 H5376 0.930 . S
C5382 C5383 1.355 . S
C5382 C5384 1.415 . S
C5383 C5382 1.355 . S
C5383 C5385 1.419 . S
C5384 C5382 1.415 . S
C5384 C5389 1.425 . S
C5384 C5391 1.409 . S
C5385 H5377 0.930 . S
C5385 C5383 1.419 . S
C5385 C5386 1.362 . S
C5386 H5378 0.930 . S
C5386 C5385 1.362 . S
C5386 C5389 1.409 . S
C5387 H5379 0.930 . S
C5387 C5388 1.355 . S
C5387 C5389 1.415 . S
C5388 C5387 1.355 . S
C5388 C5390 1.419 . S
C5389 C5384 1.425 . S
C5389 C5386 1.409 . S
C5389 C5387 1.415 . S
C5390 H5380 0.930 . S
C5390 C5388 1.419 . S
C5390 C5391 1.362 . S
C5391 H5381 0.930 . S
C5391 C5384 1.409 . S
C5391 C5390 1.362 . S
H5392 C5398 0.930 . S
H5393 C5401 0.930 . S
H5394 C5402 0.930 . S
H5395 C5403 0.930 . S
H5396 C5406 0.930 . S
H5397 C5407 0.930 . S
C5398 H5392 0.930 . S
C5398 C5399 1.355 . S
C5398 C5400 1.415 . S
C5399 C5398 1.355 . S
C5399 C5401 1.419 . S
C5400 C5398 1.415 . S
C5400 C5405 1.425 . S
C5400 C5407 1.409 . S
C5401 H5393 0.930 . S
C5401 C5399 1.419 . S
C5401 C5402 1.362 . S
C5402 H5394 0.930 . S
C5402 C5401 1.362 . S
C5402 C5405 1.409 . S
C5403 H5395 0.930 . S
C5403 C5404 1.355 . S
C5403 C5405 1.415 . S
C5404 C5403 1.355 . S
C5404 C5406 1.419 . S
C5405 C5400 1.425 . S
C5405 C5402 1.409 . S
C5405 C5403 1.415 . S
C5406 H5396 0.930 . S
C5406 C5404 1.419 . S
C5406 C5407 1.362 . S
C5407 H5397 0.930 . S
C5407 C5400 1.409 . S
C5407 C5406 1.362 . S
H5408 C5414 0.930 . S
H5409 C5417 0.930 . S
H5410 C5418 0.930 . S
H5411 C5419 0.930 . S
H5412 C5422 0.930 . S
H5413 C5423 0.930 . S
C5414 H5408 0.930 . S
C5414 C5415 1.355 . S
C5414 C5416 1.415 . S
C5415 C5414 1.355 . S
C5415 C5417 1.419 . S
C5416 C5414 1.415 . S
C5416 C5421 1.425 . S
C5416 C5423 1.409 . S
C5417 H5409 0.930 . S
C5417 C5415 1.419 . S
C5417 C5418 1.362 . S
C5418 H5410 0.930 . S
C5418 C5417 1.362 . S
C5418 C5421 1.409 . S
C5419 H5411 0.930 . S
C5419 C5420 1.355 . S
C5419 C5421 1.415 . S
C5420 C5419 1.355 . S
C5420 C5422 1.419 . S
C5421 C5416 1.425 . S
C5421 C5418 1.409 . S
C5421 C5419 1.415 . S
C5422 H5412 0.930 . S
C5422 C5420 1.419 . S
C5422 C5423 1.362 . S
C5423 H5413 0.930 . S
C5423 C5416 1.409 . S
C5423 C5422 1.362 . S
H5424 C5430 0.930 . S
H5425 C5433 0.930 . S
H5426 C5434 0.930 . S
H5427 C5435 0.930 . S
H5428 C5438 0.930 . S
H5429 C5439 0.930 . S
C5430 H5424 0.930 . S
C5430 C5431 1.355 . S
C5430 C5432 1.415 . S
C5431 C5430 1.355 . S
C5431 C5433 1.419 . S
C5432 C5430 1.415 . S
C5432 C5437 1.425 . S
C5432 C5439 1.409 . S
C5433 H5425 0.930 . S
C5433 C5431 1.419 . S
C5433 C5434 1.362 . S
C5434 H5426 0.930 . S
C5434 C5433 1.362 . S
C5434 C5437 1.409 . S
C5435 H5427 0.930 . S
C5435 C5436 1.355 . S
C5435 C5437 1.415 . S
C5436 C5435 1.355 . S
C5436 C5438 1.419 . S
C5437 C5432 1.425 . S
C5437 C5434 1.409 . S
C5437 C5435 1.415 . S
C5438 H5428 0.930 . S
C5438 C5436 1.419 . S
C5438 C5439 1.362 . S
C5439 H5429 0.930 . S
C5439 C5432 1.409 . S
C5439 C5438 1.362 . S
H5440 C5446 0.930 . S
H5441 C5449 0.930 . S
H5442 C5450 0.930 . S
H5443 C5451 0.930 . S
H5444 C5454 0.930 . S
H5445 C5455 0.930 . S
C5446 H5440 0.930 . S
C5446 C5447 1.355 . S
C5446 C5448 1.415 . S
C5447 C5446 1.355 . S
C5447 C5449 1.419 . S
C5448 C5446 1.415 . S
C5448 C5453 1.425 . S
C5448 C5455 1.409 . S
C5449 H5441 0.930 . S
C5449 C5447 1.419 . S
C5449 C5450 1.362 . S
C5450 H5442 0.930 . S
C5450 C5449 1.362 . S
C5450 C5453 1.409 . S
C5451 H5443 0.930 . S
C5451 C5452 1.355 . S
C5451 C5453 1.415 . S
C5452 C5451 1.355 . S
C5452 C5454 1.419 . S
C5453 C5448 1.425 . S
C5453 C5450 1.409 . S
C5453 C5451 1.415 . S
C5454 H5444 0.930 . S
C5454 C5452 1.419 . S
C5454 C5455 1.362 . S
C5455 H5445 0.930 . S
C5455 C5448 1.409 . S
C5455 C5454 1.362 . S
H5456 C5462 0.930 . S
H5457 C5465 0.930 . S
H5458 C5466 0.930 . S
H5459 C5467 0.930 . S
H5460 C5470 0.930 . S
H5461 C5471 0.930 . S
C5462 H5456 0.930 . S
C5462 C5463 1.355 . S
C5462 C5464 1.415 . S
C5463 C5462 1.355 . S
C5463 C5465 1.419 . S
C5464 C5462 1.415 . S
C5464 C5469 1.425 . S
C5464 C5471 1.409 . S
C5465 H5457 0.930 . S
C5465 C5463 1.419 . S
C5465 C5466 1.362 . S
C5466 H5458 0.930 . S
C5466 C5465 1.362 . S
C5466 C5469 1.409 . S
C5467 H5459 0.930 . S
C5467 C5468 1.355 . S
C5467 C5469 1.415 . S
C5468 C5467 1.355 . S
C5468 C5470 1.419 . S
C5469 C5464 1.425 . S
C5469 C5466 1.409 . S
C5469 C5467 1.415 . S
C5470 H5460 0.930 . S
C5470 C5468 1.419 . S
C5470 C5471 1.362 . S
C5471 H5461 0.930 . S
C5471 C5464 1.409 . S
C5471 C5470 1.362 . S
H5472 C5478 0.930 . S
H5473 C5481 0.930 . S
H5474 C5482 0.930 . S
H5475 C5483 0.930 . S
H5476 C5486 0.930 . S
H5477 C5487 0.930 . S
C5478 H5472 0.930 . S
C5478 C5479 1.355 . S
C5478 C5480 1.415 . S
C5479 C5478 1.355 . S
C5479 C5481 1.419 . S
C5480 C5478 1.415 . S
C5480 C5485 1.425 . S
C5480 C5487 1.409 . S
C5481 H5473 0.930 . S
C5481 C5479 1.419 . S
C5481 C5482 1.362 . S
C5482 H5474 0.930 . S
C5482 C5481 1.362 . S
C5482 C5485 1.409 . S
C5483 H5475 0.930 . S
C5483 C5484 1.355 . S
C5483 C5485 1.415 . S
C5484 C5483 1.355 . S
C5484 C5486 1.419 . S
C5485 C5480 1.425 . S
C5485 C5482 1.409 . S
C5485 C5483 1.415 . S
C5486 H5476 0.930 . S
C5486 C5484 1.419 . S
C5486 C5487 1.362 . S
C5487 H5477 0.930 . S
C5487 C5480 1.409 . S
C5487 C5486 1.362 . S
H5488 C5494 0.930 . S
H5489 C5497 0.930 . S
H5490 C5498 0.930 . S
H5491 C5499 0.930 . S
H5492 C5502 0.930 . S
H5493 C5503 0.930 . S
C5494 H5488 0.930 . S
C5494 C5495 1.355 . S
C5494 C5496 1.415 . S
C5495 C5494 1.355 . S
C5495 C5497 1.419 . S
C5496 C5494 1.415 . S
C5496 C5501 1.425 . S
C5496 C5503 1.409 . S
C5497 H5489 0.930 . S
C5497 C5495 1.419 . S
C5497 C5498 1.362 . S
C5498 H5490 0.930 . S
C5498 C5497 1.362 . S
C5498 C5501 1.409 . S
C5499 H5491 0.930 . S
C5499 C5500 1.355 . S
C5499 C5501 1.415 . S
C5500 C5499 1.355 . S
C5500 C5502 1.419 . S
C5501 C5496 1.425 . S
C5501 C5498 1.409 . S
C5501 C5499 1.415 . S
C5502 H5492 0.930 . S
C5502 C5500 1.419 . S
C5502 C5503 1.362 . S
C5503 H5493 0.930 . S
C5503 C5496 1.409 . S
C5503 C5502 1.362 . S
H5504 C5510 0.930 . S
H5505 C5513 0.930 . S
H5506 C5514 0.930 . S
H5507 C5515 0.930 . S
H5508 C5518 0.930 . S
H5509 C5519 0.930 . S
C5510 H5504 0.930 . S
C5510 C5511 1.355 . S
C5510 C5512 1.415 . S
C5511 C5510 1.355 . S
C5511 C5513 1.419 . S
C5512 C5510 1.415 . S
C5512 C5517 1.425 . S
C5512 C5519 1.409 . S
C5513 H5505 0.930 . S
C5513 C5511 1.419 . S
C5513 C5514 1.362 . S
C5514 H5506 0.930 . S
C5514 C5513 1.362 . S
C5514 C5517 1.409 . S
C5515 H5507 0.930 . S
C5515 C5516 1.355 . S
C5515 C5517 1.415 . S
C5516 C5515 1.355 . S
C5516 C5518 1.419 . S
C5517 C5512 1.425 . S
C5517 C5514 1.409 . S
C5517 C5515 1.415 . S
C5518 H5508 0.930 . S
C5518 C5516 1.419 . S
C5518 C5519 1.362 . S
C5519 H5509 0.930 . S
C5519 C5512 1.409 . S
C5519 C5518 1.362 . S
H5520 C5526 0.930 . S
H5521 C5529 0.930 . S
H5522 C5530 0.930 . S
H5523 C5531 0.930 . S
H5524 C5534 0.930 . S
H5525 C5535 0.930 . S
C5526 H5520 0.930 . S
C5526 C5527 1.355 . S
C5526 C5528 1.415 . S
C5527 C5526 1.355 . S
C5527 C5529 1.419 . S
C5528 C5526 1.415 . S
C5528 C5533 1.425 . S
C5528 C5535 1.409 . S
C5529 H5521 0.930 . S
C5529 C5527 1.419 . S
C5529 C5530 1.362 . S
C5530 H5522 0.930 . S
C5530 C5529 1.362 . S
C5530 C5533 1.409 . S
C5531 H5523 0.930 . S
C5531 C5532 1.355 . S
C5531 C5533 1.415 . S
C5532 C5531 1.355 . S
C5532 C5534 1.419 . S
C5533 C5528 1.425 . S
C5533 C5530 1.409 . S
C5533 C5531 1.415 . S
C5534 H5524 0.930 . S
C5534 C5532 1.419 . S
C5534 C5535 1.362 . S
C5535 H5525 0.930 . S
C5535 C5528 1.409 . S
C5535 C5534 1.362 . S
H5536 C5542 0.930 . S
H5537 C5545 0.930 . S
H5538 C5546 0.930 . S
H5539 C5547 0.930 . S
H5540 C5550 0.930 . S
H5541 C5551 0.930 . S
C5542 H5536 0.930 . S
C5542 C5543 1.355 . S
C5542 C5544 1.415 . S
C5543 C5542 1.355 . S
C5543 C5545 1.419 . S
C5544 C5542 1.415 . S
C5544 C5549 1.425 . S
C5544 C5551 1.409 . S
C5545 H5537 0.930 . S
C5545 C5543 1.419 . S
C5545 C5546 1.362 . S
C5546 H5538 0.930 . S
C5546 C5545 1.362 . S
C5546 C5549 1.409 . S
C5547 H5539 0.930 . S
C5547 C5548 1.355 . S
C5547 C5549 1.415 . S
C5548 C5547 1.355 . S
C5548 C5550 1.419 . S
C5549 C5544 1.425 . S
C5549 C5546 1.409 . S
C5549 C5547 1.415 . S
C5550 H5540 0.930 . S
C5550 C5548 1.419 . S
C5550 C5551 1.362 . S
C5551 H5541 0.930 . S
C5551 C5544 1.409 . S
C5551 C5550 1.362 . S
H5552 C5558 0.930 . S
H5553 C5561 0.930 . S
H5554 C5562 0.930 . S
H5555 C5563 0.930 . S
H5556 C5566 0.930 . S
H5557 C5567 0.930 . S
C5558 H5552 0.930 . S
C5558 C5559 1.355 . S
C5558 C5560 1.415 . S
C5559 C5558 1.355 . S
C5559 C5561 1.419 . S
C5560 C5558 1.415 . S
C5560 C5565 1.425 . S
C5560 C5567 1.409 . S
C5561 H5553 0.930 . S
C5561 C5559 1.419 . S
C5561 C5562 1.362 . S
C5562 H5554 0.930 . S
C5562 C5561 1.362 . S
C5562 C5565 1.409 . S
C5563 H5555 0.930 . S
C5563 C5564 1.355 . S
C5563 C5565 1.415 . S
C5564 C5563 1.355 . S
C5564 C5566 1.419 . S
C5565 C5560 1.425 . S
C5565 C5562 1.409 . S
C5565 C5563 1.415 . S
C5566 H5556 0.930 . S
C5566 C5564 1.419 . S
C5566 C5567 1.362 . S
C5567 H5557 0.930 . S
C5567 C5560 1.409 . S
C5567 C5566 1.362 . S
H5568 C5574 0.930 . S
H5569 C5577 0.930 . S
H5570 C5578 0.930 . S
H5571 C5579 0.930 . S
H5572 C5582 0.930 . S
H5573 C5583 0.930 . S
C5574 H5568 0.930 . S
C5574 C5575 1.355 . S
C5574 C5576 1.415 . S
C5575 C5574 1.355 . S
C5575 C5577 1.419 . S
C5576 C5574 1.415 . S
C5576 C5581 1.425 . S
C5576 C5583 1.409 . S
C5577 H5569 0.930 . S
C5577 C5575 1.419 . S
C5577 C5578 1.362 . S
C5578 H5570 0.930 . S
C5578 C5577 1.362 . S
C5578 C5581 1.409 . S
C5579 H5571 0.930 . S
C5579 C5580 1.355 . S
C5579 C5581 1.415 . S
C5580 C5579 1.355 . S
C5580 C5582 1.419 . S
C5581 C5576 1.425 . S
C5581 C5578 1.409 . S
C5581 C5579 1.415 . S
C5582 H5572 0.930 . S
C5582 C5580 1.419 . S
C5582 C5583 1.362 . S
C5583 H5573 0.930 . S
C5583 C5576 1.409 . S
C5583 C5582 1.362 . S
H5584 C5590 0.930 . S
H5585 C5593 0.930 . S
H5586 C5594 0.930 . S
H5587 C5595 0.930 . S
H5588 C5598 0.930 . S
H5589 C5599 0.930 . S
C5590 H5584 0.930 . S
C5590 C5591 1.355 . S
C5590 C5592 1.415 . S
C5591 C5590 1.355 . S
C5591 C5593 1.419 . S
C5592 C5590 1.415 . S
C5592 C5597 1.425 . S
C5592 C5599 1.409 . S
C5593 H5585 0.930 . S
C5593 C5591 1.419 . S
C5593 C5594 1.362 . S
C5594 H5586 0.930 . S
C5594 C5593 1.362 . S
C5594 C5597 1.409 . S
C5595 H5587 0.930 . S
C5595 C5596 1.355 . S
C5595 C5597 1.415 . S
C5596 C5595 1.355 . S
C5596 C5598 1.419 . S
C5597 C5592 1.425 . S
C5597 C5594 1.409 . S
C5597 C5595 1.415 . S
C5598 H5588 0.930 . S
C5598 C5596 1.419 . S
C5598 C5599 1.362 . S
C5599 H5589 0.930 . S
C5599 C5592 1.409 . S
C5599 C5598 1.362 . S
H5600 C5606 0.930 . S
H5601 C5609 0.930 . S
H5602 C5610 0.930 . S
H5603 C5611 0.930 . S
H5604 C5614 0.930 . S
H5605 C5615 0.930 . S
C5606 H5600 0.930 . S
C5606 C5607 1.355 . S
C5606 C5608 1.415 . S
C5607 C5606 1.355 . S
C5607 C5609 1.419 . S
C5608 C5606 1.415 . S
C5608 C5613 1.425 . S
C5608 C5615 1.409 . S
C5609 H5601 0.930 . S
C5609 C5607 1.419 . S
C5609 C5610 1.362 . S
C5610 H5602 0.930 . S
C5610 C5609 1.362 . S
C5610 C5613 1.409 . S
C5611 H5603 0.930 . S
C5611 C5612 1.355 . S
C5611 C5613 1.415 . S
C5612 C5611 1.355 . S
C5612 C5614 1.419 . S
C5613 C5608 1.425 . S
C5613 C5610 1.409 . S
C5613 C5611 1.415 . S
C5614 H5604 0.930 . S
C5614 C5612 1.419 . S
C5614 C5615 1.362 . S
C5615 H5605 0.930 . S
C5615 C5608 1.409 . S
C5615 C5614 1.362 . S
H5616 C5622 0.930 . S
H5617 C5625 0.930 . S
H5618 C5626 0.930 . S
H5619 C5627 0.930 1_565 S
H5620 C5630 0.930 . S
H5621 C5631 0.930 . S
C5622 H5616 0.930 . S
C5622 C5623 1.355 . S
C5622 C5624 1.415 . S
C5623 C5622 1.355 . S
C5623 C5625 1.419 . S
C5624 C5622 1.415 . S
C5624 C5629 1.425 . S
C5624 C5631 1.409 . S
C5625 H5617 0.930 . S
C5625 C5623 1.419 . S
C5625 C5626 1.362 . S
C5626 H5618 0.930 . S
C5626 C5625 1.362 . S
C5626 C5629 1.409 . S
C5627 H5619 0.930 1_545 S
C5627 C5628 1.355 . S
C5627 C5629 1.415 . S
C5628 C5627 1.355 . S
C5628 C5630 1.419 . S
C5629 C5624 1.425 . S
C5629 C5626 1.409 . S
C5629 C5627 1.415 . S
C5630 H5620 0.930 . S
C5630 C5628 1.419 . S
C5630 C5631 1.362 . S
C5631 H5621 0.930 . S
C5631 C5624 1.409 . S
C5631 C5630 1.362 . S
H5632 C5638 0.930 . S
H5633 C5641 0.930 . S
H5634 C5642 0.930 . S
H5635 C5643 0.930 . S
H5636 C5646 0.930 . S
H5637 C5647 0.930 . S
C5638 H5632 0.930 . S
C5638 C5639 1.355 . S
C5638 C5640 1.415 . S
C5639 C5638 1.355 . S
C5639 C5641 1.419 . S
C5640 C5638 1.415 . S
C5640 C5645 1.425 . S
C5640 C5647 1.409 . S
C5641 H5633 0.930 . S
C5641 C5639 1.419 . S
C5641 C5642 1.362 . S
C5642 H5634 0.930 . S
C5642 C5641 1.362 . S
C5642 C5645 1.409 . S
C5643 H5635 0.930 . S
C5643 C5644 1.355 . S
C5643 C5645 1.415 . S
C5644 C5643 1.355 . S
C5644 C5646 1.419 . S
C5645 C5640 1.425 . S
C5645 C5642 1.409 . S
C5645 C5643 1.415 . S
C5646 H5636 0.930 . S
C5646 C5644 1.419 . S
C5646 C5647 1.362 . S
C5647 H5637 0.930 . S
C5647 C5640 1.409 . S
C5647 C5646 1.362 . S
H5648 C5654 0.930 . S
H5649 C5657 0.930 . S
H5650 C5658 0.930 . S
H5651 C5659 0.930 . S
H5652 C5662 0.930 . S
H5653 C5663 0.930 . S
C5654 H5648 0.930 . S
C5654 C5655 1.355 . S
C5654 C5656 1.415 . S
C5655 C5654 1.355 . S
C5655 C5657 1.419 . S
C5656 C5654 1.415 . S
C5656 C5661 1.425 . S
C5656 C5663 1.409 . S
C5657 H5649 0.930 . S
C5657 C5655 1.419 . S
C5657 C5658 1.362 . S
C5658 H5650 0.930 . S
C5658 C5657 1.362 . S
C5658 C5661 1.409 . S
C5659 H5651 0.930 . S
C5659 C5660 1.355 . S
C5659 C5661 1.415 . S
C5660 C5659 1.355 . S
C5660 C5662 1.419 . S
C5661 C5656 1.425 . S
C5661 C5658 1.409 . S
C5661 C5659 1.415 . S
C5662 H5652 0.930 . S
C5662 C5660 1.419 . S
C5662 C5663 1.362 . S
C5663 H5653 0.930 . S
C5663 C5656 1.409 . S
C5663 C5662 1.362 . S
H5664 C5670 0.930 . S
H5665 C5673 0.930 . S
H5666 C5674 0.930 . S
H5667 C5675 0.930 . S
H5668 C5678 0.930 . S
H5669 C5679 0.930 . S
C5670 H5664 0.930 . S
C5670 C5671 1.355 . S
C5670 C5672 1.415 . S
C5671 C5670 1.355 . S
C5671 C5673 1.419 . S
C5672 C5670 1.415 . S
C5672 C5677 1.425 . S
C5672 C5679 1.409 . S
C5673 H5665 0.930 . S
C5673 C5671 1.419 . S
C5673 C5674 1.362 . S
C5674 H5666 0.930 . S
C5674 C5673 1.362 . S
C5674 C5677 1.409 . S
C5675 H5667 0.930 . S
C5675 C5676 1.355 . S
C5675 C5677 1.415 . S
C5676 C5675 1.355 . S
C5676 C5678 1.419 . S
C5677 C5672 1.425 . S
C5677 C5674 1.409 . S
C5677 C5675 1.415 . S
C5678 H5668 0.930 . S
C5678 C5676 1.419 . S
C5678 C5679 1.362 . S
C5679 H5669 0.930 . S
C5679 C5672 1.409 . S
C5679 C5678 1.362 . S
H5680 C5686 0.930 . S
H5681 C5689 0.930 . S
H5682 C5690 0.930 . S
H5683 C5691 0.930 . S
H5684 C5694 0.930 . S
H5685 C5695 0.930 . S
C5686 H5680 0.930 . S
C5686 C5687 1.355 . S
C5686 C5688 1.415 . S
C5687 C5686 1.355 . S
C5687 C5689 1.419 . S
C5688 C5686 1.415 . S
C5688 C5693 1.425 . S
C5688 C5695 1.409 . S
C5689 H5681 0.930 . S
C5689 C5687 1.419 . S
C5689 C5690 1.362 . S
C5690 H5682 0.930 . S
C5690 C5689 1.362 . S
C5690 C5693 1.409 . S
C5691 H5683 0.930 . S
C5691 C5692 1.355 . S
C5691 C5693 1.415 . S
C5692 C5691 1.355 . S
C5692 C5694 1.419 . S
C5693 C5688 1.425 . S
C5693 C5690 1.409 . S
C5693 C5691 1.415 . S
C5694 H5684 0.930 . S
C5694 C5692 1.419 . S
C5694 C5695 1.362 . S
C5695 H5685 0.930 . S
C5695 C5688 1.409 . S
C5695 C5694 1.362 . S
H5696 C5702 0.930 . S
H5697 C5705 0.930 . S
H5698 C5706 0.930 . S
H5699 C5707 0.930 . S
H5700 C5710 0.930 . S
H5701 C5711 0.930 . S
C5702 H5696 0.930 . S
C5702 C5703 1.355 . S
C5702 C5704 1.415 . S
C5703 C5702 1.355 . S
C5703 C5705 1.419 . S
C5704 C5702 1.415 . S
C5704 C5709 1.425 . S
C5704 C5711 1.409 . S
C5705 H5697 0.930 . S
C5705 C5703 1.419 . S
C5705 C5706 1.362 . S
C5706 H5698 0.930 . S
C5706 C5705 1.362 . S
C5706 C5709 1.409 . S
C5707 H5699 0.930 . S
C5707 C5708 1.355 . S
C5707 C5709 1.415 . S
C5708 C5707 1.355 . S
C5708 C5710 1.419 . S
C5709 C5704 1.425 . S
C5709 C5706 1.409 . S
C5709 C5707 1.415 . S
C5710 H5700 0.930 . S
C5710 C5708 1.419 . S
C5710 C5711 1.362 . S
C5711 H5701 0.930 . S
C5711 C5704 1.409 . S
C5711 C5710 1.362 . S
H5712 C5718 0.930 . S
H5713 C5721 0.930 . S
H5714 C5722 0.929 1_455 S
H5715 C5723 0.930 . S
H5716 C5726 0.930 . S
H5717 C5727 0.930 . S
C5718 H5712 0.930 . S
C5718 C5719 1.355 1_655 S
C5718 C5720 1.415 . S
C5719 C5718 1.355 1_455 S
C5719 C5721 1.419 . S
C5720 C5718 1.415 . S
C5720 C5725 1.425 . S
C5720 C5727 1.409 . S
C5721 H5713 0.930 . S
C5721 C5719 1.419 . S
C5721 C5722 1.362 1_455 S
C5722 H5714 0.929 1_655 S
C5722 C5721 1.362 1_655 S
C5722 C5725 1.409 . S
C5723 H5715 0.930 . S
C5723 C5724 1.355 . S
C5723 C5725 1.415 . S
C5724 C5723 1.355 . S
C5724 C5726 1.419 . S
C5725 C5720 1.425 . S
C5725 C5722 1.409 . S
C5725 C5723 1.415 . S
C5726 H5716 0.930 . S
C5726 C5724 1.419 . S
C5726 C5727 1.362 . S
C5727 H5717 0.930 . S
C5727 C5720 1.409 . S
C5727 C5726 1.362 . S
H5728 C5734 0.930 . S
H5729 C5737 0.930 1_545 S
H5730 C5738 0.930 . S
H5731 C5739 0.930 . S
H5732 C5742 0.930 . S
H5733 C5743 0.930 . S
C5734 H5728 0.930 . S
C5734 C5735 1.355 . S
C5734 C5736 1.415 . S
C5735 C5734 1.355 . S
C5735 C5737 1.419 . S
C5736 C5734 1.415 . S
C5736 C5741 1.425 . S
C5736 C5743 1.409 . S
C5737 H5729 0.930 1_565 S
C5737 C5735 1.419 . S
C5737 C5738 1.362 . S
C5738 H5730 0.930 . S
C5738 C5737 1.362 . S
C5738 C5741 1.409 . S
C5739 H5731 0.930 . S
C5739 C5740 1.355 . S
C5739 C5741 1.415 . S
C5740 C5739 1.355 . S
C5740 C5742 1.419 . S
C5741 C5736 1.425 . S
C5741 C5738 1.409 . S
C5741 C5739 1.415 . S
C5742 H5732 0.930 . S
C5742 C5740 1.419 . S
C5742 C5743 1.362 . S
C5743 H5733 0.930 . S
C5743 C5736 1.409 . S
C5743 C5742 1.362 . S
H5744 C5750 0.930 . S
H5745 C5753 0.930 . S
H5746 C5754 0.930 . S
H5747 C5755 0.930 . S
H5748 C5758 0.930 . S
H5749 C5759 0.930 . S
C5750 H5744 0.930 . S
C5750 C5751 1.355 . S
C5750 C5752 1.415 . S
C5751 C5750 1.355 . S
C5751 C5753 1.419 . S
C5752 C5750 1.415 . S
C5752 C5757 1.425 . S
C5752 C5759 1.409 . S
C5753 H5745 0.930 . S
C5753 C5751 1.419 . S
C5753 C5754 1.362 . S
C5754 H5746 0.930 . S
C5754 C5753 1.362 . S
C5754 C5757 1.409 . S
C5755 H5747 0.930 . S
C5755 C5756 1.355 . S
C5755 C5757 1.415 . S
C5756 C5755 1.355 . S
C5756 C5758 1.419 . S
C5757 C5752 1.425 . S
C5757 C5754 1.409 . S
C5757 C5755 1.415 . S
C5758 H5748 0.930 . S
C5758 C5756 1.419 . S
C5758 C5759 1.362 . S
C5759 H5749 0.930 . S
C5759 C5752 1.409 . S
C5759 C5758 1.362 . S
H5760 C5766 0.930 . S
H5761 C5769 0.930 . S
H5762 C5770 0.930 . S
H5763 C5771 0.930 . S
H5764 C5774 0.930 . S
H5765 C5775 0.930 . S
C5766 H5760 0.930 . S
C5766 C5767 1.355 . S
C5766 C5768 1.415 . S
C5767 C5766 1.355 . S
C5767 C5769 1.419 . S
C5768 C5766 1.415 . S
C5768 C5773 1.425 . S
C5768 C5775 1.409 . S
C5769 H5761 0.930 . S
C5769 C5767 1.419 . S
C5769 C5770 1.362 . S
C5770 H5762 0.930 . S
C5770 C5769 1.362 . S
C5770 C5773 1.409 . S
C5771 H5763 0.930 . S
C5771 C5772 1.355 . S
C5771 C5773 1.415 . S
C5772 C5771 1.355 . S
C5772 C5774 1.419 . S
C5773 C5768 1.425 . S
C5773 C5770 1.409 . S
C5773 C5771 1.415 . S
C5774 H5764 0.930 . S
C5774 C5772 1.419 . S
C5774 C5775 1.362 . S
C5775 H5765 0.930 . S
C5775 C5768 1.409 . S
C5775 C5774 1.362 . S
H5776 C5782 0.930 . S
H5777 C5785 0.930 . S
H5778 C5786 0.930 . S
H5779 C5787 0.930 . S
H5780 C5790 0.930 . S
H5781 C5791 0.930 . S
C5782 H5776 0.930 . S
C5782 C5783 1.355 . S
C5782 C5784 1.415 . S
C5783 C5782 1.355 . S
C5783 C5785 1.419 . S
C5784 C5782 1.415 . S
C5784 C5789 1.425 . S
C5784 C5791 1.409 . S
C5785 H5777 0.930 . S
C5785 C5783 1.419 . S
C5785 C5786 1.362 . S
C5786 H5778 0.930 . S
C5786 C5785 1.362 . S
C5786 C5789 1.409 . S
C5787 H5779 0.930 . S
C5787 C5788 1.355 . S
C5787 C5789 1.415 . S
C5788 C5787 1.355 . S
C5788 C5790 1.419 . S
C5789 C5784 1.425 . S
C5789 C5786 1.409 . S
C5789 C5787 1.415 . S
C5790 H5780 0.930 . S
C5790 C5788 1.419 . S
C5790 C5791 1.362 . S
C5791 H5781 0.930 . S
C5791 C5784 1.409 . S
C5791 C5790 1.362 . S
H5792 C5798 0.930 . S
H5793 C5801 0.930 . S
H5794 C5802 0.930 . S
H5795 C5803 0.930 . S
H5796 C5806 0.930 . S
H5797 C5807 0.930 . S
C5798 H5792 0.930 . S
C5798 C5799 1.355 . S
C5798 C5800 1.415 . S
C5799 C5798 1.355 . S
C5799 C5801 1.419 . S
C5800 C5798 1.415 . S
C5800 C5805 1.425 . S
C5800 C5807 1.409 . S
C5801 H5793 0.930 . S
C5801 C5799 1.419 . S
C5801 C5802 1.362 . S
C5802 H5794 0.930 . S
C5802 C5801 1.362 . S
C5802 C5805 1.409 . S
C5803 H5795 0.930 . S
C5803 C5804 1.355 . S
C5803 C5805 1.415 . S
C5804 C5803 1.355 . S
C5804 C5806 1.419 . S
C5805 C5800 1.425 . S
C5805 C5802 1.409 . S
C5805 C5803 1.415 . S
C5806 H5796 0.930 . S
C5806 C5804 1.419 . S
C5806 C5807 1.362 . S
C5807 H5797 0.930 . S
C5807 C5800 1.409 . S
C5807 C5806 1.362 . S
H5808 C5814 0.930 . S
H5809 C5817 0.930 . S
H5810 C5818 0.930 . S
H5811 C5819 0.930 . S
H5812 C5822 0.930 . S
H5813 C5823 0.930 1_455 S
C5814 H5808 0.930 . S
C5814 C5815 1.355 . S
C5814 C5816 1.415 1_455 S
C5815 C5814 1.355 . S
C5815 C5817 1.419 1_455 S
C5816 C5814 1.415 1_655 S
C5816 C5821 1.425 . S
C5816 C5823 1.409 . S
C5817 H5809 0.930 . S
C5817 C5815 1.419 1_655 S
C5817 C5818 1.362 . S
C5818 H5810 0.930 . S
C5818 C5817 1.362 . S
C5818 C5821 1.409 . S
C5819 H5811 0.930 . S
C5819 C5820 1.355 . S
C5819 C5821 1.415 . S
C5820 C5819 1.355 . S
C5820 C5822 1.419 . S
C5821 C5816 1.425 . S
C5821 C5818 1.409 . S
C5821 C5819 1.415 . S
C5822 H5812 0.930 . S
C5822 C5820 1.419 . S
C5822 C5823 1.362 . S
C5823 H5813 0.930 1_655 S
C5823 C5816 1.409 . S
C5823 C5822 1.362 . S
H5824 C5830 0.930 . S
H5825 C5833 0.930 . S
H5826 C5834 0.930 . S
H5827 C5835 0.930 . S
H5828 C5838 0.930 . S
H5829 C5839 0.930 . S
C5830 H5824 0.930 . S
C5830 C5831 1.355 . S
C5830 C5832 1.415 . S
C5831 C5830 1.355 . S
C5831 C5833 1.419 . S
C5832 C5830 1.415 . S
C5832 C5837 1.425 . S
C5832 C5839 1.409 . S
C5833 H5825 0.930 . S
C5833 C5831 1.419 . S
C5833 C5834 1.362 . S
C5834 H5826 0.930 . S
C5834 C5833 1.362 . S
C5834 C5837 1.409 . S
C5835 H5827 0.930 . S
C5835 C5836 1.355 . S
C5835 C5837 1.415 . S
C5836 C5835 1.355 . S
C5836 C5838 1.419 . S
C5837 C5832 1.425 . S
C5837 C5834 1.409 . S
C5837 C5835 1.415 . S
C5838 H5828 0.930 . S
C5838 C5836 1.419 . S
C5838 C5839 1.362 . S
C5839 H5829 0.930 . S
C5839 C5832 1.409 . S
C5839 C5838 1.362 . S
H5840 C5846 0.930 1_556 S
H5841 C5849 0.930 . S
H5842 C5850 0.930 . S
H5843 C5851 0.901 1_554 S
H5844 C5854 0.930 . S
H5845 C5855 0.930 . S
C5846 H5840 0.930 1_554 S
C5846 C5847 1.355 . S
C5846 C5848 1.415 1_554 S
C5847 C5846 1.355 . S
C5847 C5849 1.419 . S
C5848 C5846 1.415 1_556 S
C5848 C5853 1.425 1_556 S
C5848 C5855 1.409 . S
C5849 H5841 0.930 . S
C5849 C5847 1.419 . S
C5849 C5850 1.362 . S
C5850 H5842 0.930 . S
C5850 C5849 1.362 . S
C5850 C5853 1.409 . S
C5851 H5843 0.901 1_556 S
C5851 C5852 1.405 . S
C5851 C5853 1.394 1_556 S
C5852 C5851 1.405 . S
C5852 C5854 1.419 . S
C5853 C5848 1.425 1_554 S
C5853 C5850 1.409 . S
C5853 C5851 1.394 1_554 S
C5854 H5844 0.930 . S
C5854 C5852 1.419 . S
C5854 C5855 1.362 . S
C5855 H5845 0.930 . S
C5855 C5848 1.409 . S
C5855 C5854 1.362 . S
H5856 C5862 0.930 . S
H5857 C5865 0.930 . S
H5858 C5866 0.930 . S
H5859 C5867 0.930 . S
H5860 C5870 0.930 . S
H5861 C5871 0.930 . S
C5862 H5856 0.930 . S
C5862 C5863 1.355 . S
C5862 C5864 1.415 1_554 S
C5863 C5862 1.355 . S
C5863 C5865 1.419 . S
C5864 C5862 1.415 1_556 S
C5864 C5869 1.425 1_556 S
C5864 C5871 1.409 . S
C5865 H5857 0.930 . S
C5865 C5863 1.419 . S
C5865 C5866 1.362 . S
C5866 H5858 0.930 . S
C5866 C5865 1.362 . S
C5866 C5869 1.409 . S
C5867 H5859 0.930 . S
C5867 C5868 1.355 . S
C5867 C5869 1.415 1_556 S
C5868 C5867 1.355 . S
C5868 C5870 1.419 . S
C5869 C5864 1.425 1_554 S
C5869 C5866 1.409 . S
C5869 C5867 1.415 1_554 S
C5870 H5860 0.930 . S
C5870 C5868 1.419 . S
C5870 C5871 1.362 . S
C5871 H5861 0.930 . S
C5871 C5864 1.409 . S
C5871 C5870 1.362 . S
H5872 C5878 0.930 . S
H5873 C5881 0.930 . S
H5874 C5882 0.930 . S
H5875 C5883 0.930 . S
H5876 C5886 0.930 . S
H5877 C5887 0.930 . S
C5878 H5872 0.930 . S
C5878 C5879 1.355 . S
C5878 C5880 1.415 . S
C5879 C5878 1.355 . S
C5879 C5881 1.419 . S
C5880 C5878 1.415 . S
C5880 C5885 1.425 . S
C5880 C5887 1.409 . S
C5881 H5873 0.930 . S
C5881 C5879 1.419 . S
C5881 C5882 1.362 . S
C5882 H5874 0.930 . S
C5882 C5881 1.362 . S
C5882 C5885 1.409 . S
C5883 H5875 0.930 . S
C5883 C5884 1.355 . S
C5883 C5885 1.415 . S
C5884 C5883 1.355 . S
C5884 C5886 1.419 . S
C5885 C5880 1.425 . S
C5885 C5882 1.409 . S
C5885 C5883 1.415 . S
C5886 H5876 0.930 . S
C5886 C5884 1.419 . S
C5886 C5887 1.362 . S
C5887 H5877 0.930 . S
C5887 C5880 1.409 . S
C5887 C5886 1.362 . S
H5888 C5894 0.930 . S
H5889 C5897 0.930 . S
H5890 C5898 0.930 . S
H5891 C5899 0.930 . S
H5892 C5902 0.930 . S
H5893 C5903 0.930 . S
C5894 H5888 0.930 . S
C5894 C5895 1.355 . S
C5894 C5896 1.415 . S
C5895 C5894 1.355 . S
C5895 C5897 1.419 . S
C5896 C5894 1.415 . S
C5896 C5901 1.425 . S
C5896 C5903 1.409 . S
C5897 H5889 0.930 . S
C5897 C5895 1.419 . S
C5897 C5898 1.362 . S
C5898 H5890 0.930 . S
C5898 C5897 1.362 . S
C5898 C5901 1.409 . S
C5899 H5891 0.930 . S
C5899 C5900 1.355 . S
C5899 C5901 1.415 . S
C5900 C5899 1.355 . S
C5900 C5902 1.419 . S
C5901 C5896 1.425 . S
C5901 C5898 1.409 . S
C5901 C5899 1.415 . S
C5902 H5892 0.930 . S
C5902 C5900 1.419 . S
C5902 C5903 1.362 . S
C5903 H5893 0.930 . S
C5903 C5896 1.409 . S
C5903 C5902 1.362 . S
H5904 C5910 0.930 . S
H5905 C5913 0.930 . S
H5906 C5914 0.930 . S
H5907 C5915 0.930 . S
H5908 C5918 0.930 . S
H5909 C5919 0.930 . S
C5910 H5904 0.930 . S
C5910 C5911 1.355 . S
C5910 C5912 1.415 . S
C5911 C5910 1.355 . S
C5911 C5913 1.419 . S
C5912 C5910 1.415 . S
C5912 C5917 1.425 . S
C5912 C5919 1.409 . S
C5913 H5905 0.930 . S
C5913 C5911 1.419 . S
C5913 C5914 1.362 . S
C5914 H5906 0.930 . S
C5914 C5913 1.362 . S
C5914 C5917 1.409 . S
C5915 H5907 0.930 . S
C5915 C5916 1.355 . S
C5915 C5917 1.415 . S
C5916 C5915 1.355 . S
C5916 C5918 1.419 . S
C5917 C5912 1.425 . S
C5917 C5914 1.409 . S
C5917 C5915 1.415 . S
C5918 H5908 0.930 . S
C5918 C5916 1.419 . S
C5918 C5919 1.362 . S
C5919 H5909 0.930 . S
C5919 C5912 1.409 . S
C5919 C5918 1.362 . S
H5920 C5926 0.930 . S
H5921 C5929 0.930 . S
H5922 C5930 0.930 . S
H5923 C5931 0.930 . S
H5924 C5934 0.930 . S
H5925 C5935 0.930 . S
C5926 H5920 0.930 . S
C5926 C5927 1.355 . S
C5926 C5928 1.415 . S
C5927 C5926 1.355 . S
C5927 C5929 1.419 . S
C5928 C5926 1.415 . S
C5928 C5933 1.425 . S
C5928 C5935 1.409 . S
C5929 H5921 0.930 . S
C5929 C5927 1.419 . S
C5929 C5930 1.362 . S
C5930 H5922 0.930 . S
C5930 C5929 1.362 . S
C5930 C5933 1.409 . S
C5931 H5923 0.930 . S
C5931 C5932 1.355 . S
C5931 C5933 1.415 . S
C5932 C5931 1.355 . S
C5932 C5934 1.419 . S
C5933 C5928 1.425 . S
C5933 C5930 1.409 . S
C5933 C5931 1.415 . S
C5934 H5924 0.930 . S
C5934 C5932 1.419 . S
C5934 C5935 1.362 . S
C5935 H5925 0.930 . S
C5935 C5928 1.409 . S
C5935 C5934 1.362 . S
H5936 C5942 0.930 . S
H5937 C5945 0.930 . S
H5938 C5946 0.930 . S
H5939 C5947 0.930 . S
H5940 C5950 0.930 . S
H5941 C5951 0.930 . S
C5942 H5936 0.930 . S
C5942 C5943 1.355 . S
C5942 C5944 1.415 . S
C5943 C5942 1.355 . S
C5943 C5945 1.419 . S
C5944 C5942 1.415 . S
C5944 C5949 1.425 . S
C5944 C5951 1.409 . S
C5945 H5937 0.930 . S
C5945 C5943 1.419 . S
C5945 C5946 1.362 . S
C5946 H5938 0.930 . S
C5946 C5945 1.362 . S
C5946 C5949 1.409 . S
C5947 H5939 0.930 . S
C5947 C5948 1.355 . S
C5947 C5949 1.415 . S
C5948 C5947 1.355 . S
C5948 C5950 1.419 . S
C5949 C5944 1.425 . S
C5949 C5946 1.409 . S
C5949 C5947 1.415 . S
C5950 H5940 0.930 . S
C5950 C5948 1.419 . S
C5950 C5951 1.362 . S
C5951 H5941 0.930 . S
C5951 C5944 1.409 . S
C5951 C5950 1.362 . S
H5952 C5958 0.930 . S
H5953 C5961 0.930 . S
H5954 C5962 0.929 1_455 S
H5955 C5963 0.930 . S
H5956 C5966 0.930 . S
H5957 C5967 0.930 . S
C5958 H5952 0.930 . S
C5958 C5959 1.355 1_655 S
C5958 C5960 1.415 . S
C5959 C5958 1.355 1_455 S
C5959 C5961 1.419 . S
C5960 C5958 1.415 . S
C5960 C5965 1.425 . S
C5960 C5967 1.409 . S
C5961 H5953 0.930 . S
C5961 C5959 1.419 . S
C5961 C5962 1.353 1_455 S
C5962 H5954 0.929 1_655 S
C5962 C5961 1.353 1_655 S
C5962 C5965 1.421 . S
C5963 H5955 0.930 . S
C5963 C5964 1.355 . S
C5963 C5965 1.415 . S
C5964 C5963 1.355 . S
C5964 C5966 1.419 . S
C5965 C5960 1.425 . S
C5965 C5962 1.421 . S
C5965 C5963 1.415 . S
C5966 H5956 0.930 . S
C5966 C5964 1.419 . S
C5966 C5967 1.362 . S
C5967 H5957 0.930 . S
C5967 C5960 1.409 . S
C5967 C5966 1.362 . S
H5968 C5974 0.930 . S
H5969 C5977 0.930 . S
H5970 C5978 0.930 . S
H5971 C5979 0.930 . S
H5972 C5982 0.930 . S
H5973 C5983 0.930 . S
C5974 H5968 0.930 . S
C5974 C5975 1.355 . S
C5974 C5976 1.415 . S
C5975 C5974 1.355 . S
C5975 C5977 1.419 1_545 S
C5976 C5974 1.415 . S
C5976 C5981 1.425 1_545 S
C5976 C5983 1.409 . S
C5977 H5969 0.930 . S
C5977 C5975 1.419 1_565 S
C5977 C5978 1.362 . S
C5978 H5970 0.930 . S
C5978 C5977 1.362 . S
C5978 C5981 1.409 . S
C5979 H5971 0.930 . S
C5979 C5980 1.355 . S
C5979 C5981 1.415 . S
C5980 C5979 1.355 . S
C5980 C5982 1.419 . S
C5981 C5976 1.425 1_565 S
C5981 C5978 1.409 . S
C5981 C5979 1.415 . S
C5982 H5972 0.930 . S
C5982 C5980 1.419 . S
C5982 C5983 1.362 1_565 S
C5983 H5973 0.930 . S
C5983 C5976 1.409 . S
C5983 C5982 1.362 1_545 S
H5984 C5990 0.930 . S
H5985 C5993 0.930 . S
H5986 C5994 0.930 . S
H5987 C5995 0.930 . S
H5988 C5998 0.930 . S
H5989 C5999 0.930 . S
C5990 H5984 0.930 . S
C5990 C5991 1.355 . S
C5990 C5992 1.415 . S
C5991 C5990 1.355 . S
C5991 C5993 1.419 . S
C5992 C5990 1.415 . S
C5992 C5997 1.425 . S
C5992 C5999 1.409 . S
C5993 H5985 0.930 . S
C5993 C5991 1.419 . S
C5993 C5994 1.362 . S
C5994 H5986 0.930 . S
C5994 C5993 1.362 . S
C5994 C5997 1.409 . S
C5995 H5987 0.930 . S
C5995 C5996 1.355 . S
C5995 C5997 1.415 . S
C5996 C5995 1.355 . S
C5996 C5998 1.419 . S
C5997 C5992 1.425 . S
C5997 C5994 1.409 . S
C5997 C5995 1.415 . S
C5998 H5988 0.930 . S
C5998 C5996 1.419 . S
C5998 C5999 1.362 . S
C5999 H5989 0.930 . S
C5999 C5992 1.409 . S
C5999 C5998 1.362 . S
H6000 C6006 0.930 . S
H6001 C6009 0.930 . S
H6002 C6010 0.930 . S
H6003 C6011 0.930 . S
H6004 C6014 0.930 . S
H6005 C6015 0.930 . S
C6006 H6000 0.930 . S
C6006 C6007 1.355 . S
C6006 C6008 1.415 . S
C6007 C6006 1.355 . S
C6007 C6009 1.419 . S
C6008 C6006 1.415 . S
C6008 C6013 1.425 . S
C6008 C6015 1.409 . S
C6009 H6001 0.930 . S
C6009 C6007 1.419 . S
C6009 C6010 1.362 . S
C6010 H6002 0.930 . S
C6010 C6009 1.362 . S
C6010 C6013 1.409 . S
C6011 H6003 0.930 . S
C6011 C6012 1.355 . S
C6011 C6013 1.415 . S
C6012 C6011 1.355 . S
C6012 C6014 1.419 . S
C6013 C6008 1.425 . S
C6013 C6010 1.409 . S
C6013 C6011 1.415 . S
C6014 H6004 0.930 . S
C6014 C6012 1.419 . S
C6014 C6015 1.362 . S
C6015 H6005 0.930 . S
C6015 C6008 1.409 . S
C6015 C6014 1.362 . S
H6016 C6022 0.930 . S
H6017 C6025 0.930 . S
H6018 C6026 0.908 1_455 S
H6019 C6027 0.930 . S
H6020 C6030 0.930 . S
H6021 C6031 0.930 . S
C6022 H6016 0.930 . S
C6022 C6023 1.355 1_655 S
C6022 C6024 1.415 . S
C6023 C6022 1.355 1_455 S
C6023 C6025 1.419 . S
C6024 C6022 1.415 . S
C6024 C6029 1.425 . S
C6024 C6031 1.409 . S
C6025 H6017 0.930 . S
C6025 C6023 1.419 . S
C6025 C6026 1.336 1_455 S
C6026 H6018 0.908 1_655 S
C6026 C6025 1.336 1_655 S
C6026 C6029 1.459 . S
C6027 H6019 0.930 . S
C6027 C6028 1.355 . S
C6027 C6029 1.415 . S
C6028 C6027 1.355 . S
C6028 C6030 1.419 . S
C6029 C6024 1.425 . S
C6029 C6026 1.459 . S
C6029 C6027 1.415 . S
C6030 H6020 0.930 . S
C6030 C6028 1.419 . S
C6030 C6031 1.362 . S
C6031 H6021 0.930 . S
C6031 C6024 1.409 . S
C6031 C6030 1.362 . S
H6032 C6038 0.930 . S
H6033 C6041 0.930 . S
H6034 C6042 0.930 . S
H6035 C6043 0.930 . S
H6036 C6046 0.930 . S
H6037 C6047 0.930 . S
C6038 H6032 0.930 . S
C6038 C6039 1.355 . S
C6038 C6040 1.415 . S
C6039 C6038 1.355 . S
C6039 C6041 1.419 . S
C6040 C6038 1.415 . S
C6040 C6045 1.425 . S
C6040 C6047 1.409 . S
C6041 H6033 0.930 . S
C6041 C6039 1.419 . S
C6041 C6042 1.362 . S
C6042 H6034 0.930 . S
C6042 C6041 1.362 . S
C6042 C6045 1.409 . S
C6043 H6035 0.930 . S
C6043 C6044 1.355 . S
C6043 C6045 1.415 . S
C6044 C6043 1.355 . S
C6044 C6046 1.419 . S
C6045 C6040 1.425 . S
C6045 C6042 1.409 . S
C6045 C6043 1.415 . S
C6046 H6036 0.930 . S
C6046 C6044 1.419 . S
C6046 C6047 1.362 . S
C6047 H6037 0.930 . S
C6047 C6040 1.409 . S
C6047 C6046 1.362 . S
H6048 C6054 0.930 . S
H6049 C6057 0.930 . S
H6050 C6058 0.930 . S
H6051 C6059 0.930 . S
H6052 C6062 0.930 . S
H6053 C6063 0.930 . S
C6054 H6048 0.930 . S
C6054 C6055 1.355 . S
C6054 C6056 1.415 . S
C6055 C6054 1.355 . S
C6055 C6057 1.419 . S
C6056 C6054 1.415 . S
C6056 C6061 1.425 . S
C6056 C6063 1.409 . S
C6057 H6049 0.930 . S
C6057 C6055 1.419 . S
C6057 C6058 1.362 . S
C6058 H6050 0.930 . S
C6058 C6057 1.362 . S
C6058 C6061 1.409 . S
C6059 H6051 0.930 . S
C6059 C6060 1.355 . S
C6059 C6061 1.415 . S
C6060 C6059 1.355 . S
C6060 C6062 1.419 . S
C6061 C6056 1.425 . S
C6061 C6058 1.409 . S
C6061 C6059 1.415 . S
C6062 H6052 0.930 . S
C6062 C6060 1.419 . S
C6062 C6063 1.362 . S
C6063 H6053 0.930 . S
C6063 C6056 1.409 . S
C6063 C6062 1.362 . S
H6064 C6070 0.930 . S
H6065 C6073 0.930 . S
H6066 C6074 0.930 . S
H6067 C6075 0.930 . S
H6068 C6078 0.930 . S
H6069 C6079 0.930 . S
C6070 H6064 0.930 . S
C6070 C6071 1.355 . S
C6070 C6072 1.415 . S
C6071 C6070 1.355 . S
C6071 C6073 1.419 . S
C6072 C6070 1.415 . S
C6072 C6077 1.425 . S
C6072 C6079 1.409 . S
C6073 H6065 0.930 . S
C6073 C6071 1.419 . S
C6073 C6074 1.362 . S
C6074 H6066 0.930 . S
C6074 C6073 1.362 . S
C6074 C6077 1.409 . S
C6075 H6067 0.930 . S
C6075 C6076 1.355 . S
C6075 C6077 1.415 . S
C6076 C6075 1.355 . S
C6076 C6078 1.419 . S
C6077 C6072 1.425 . S
C6077 C6074 1.409 . S
C6077 C6075 1.415 . S
C6078 H6068 0.930 . S
C6078 C6076 1.419 . S
C6078 C6079 1.362 . S
C6079 H6069 0.930 . S
C6079 C6072 1.409 . S
C6079 C6078 1.362 . S
H6080 C6086 0.930 . S
H6081 C6089 0.930 . S
H6082 C6090 0.930 . S
H6083 C6091 0.930 . S
H6084 C6094 0.930 . S
H6085 C6095 0.930 . S
C6086 H6080 0.930 . S
C6086 C6087 1.355 . S
C6086 C6088 1.415 . S
C6087 C6086 1.355 . S
C6087 C6089 1.419 . S
C6088 C6086 1.415 . S
C6088 C6093 1.425 . S
C6088 C6095 1.409 . S
C6089 H6081 0.930 . S
C6089 C6087 1.419 . S
C6089 C6090 1.362 . S
C6090 H6082 0.930 . S
C6090 C6089 1.362 . S
C6090 C6093 1.409 . S
C6091 H6083 0.930 . S
C6091 C6092 1.355 . S
C6091 C6093 1.415 . S
C6092 C6091 1.355 . S
C6092 C6094 1.419 . S
C6093 C6088 1.425 . S
C6093 C6090 1.409 . S
C6093 C6091 1.415 . S
C6094 H6084 0.930 . S
C6094 C6092 1.419 . S
C6094 C6095 1.362 . S
C6095 H6085 0.930 . S
C6095 C6088 1.409 . S
C6095 C6094 1.362 . S
H6096 C6102 0.930 . S
H6097 C6105 0.930 . S
H6098 C6106 0.930 . S
H6099 C6107 0.930 . S
H6100 C6110 0.930 . S
H6101 C6111 0.930 . S
C6102 H6096 0.930 . S
C6102 C6103 1.355 . S
C6102 C6104 1.415 . S
C6103 C6102 1.355 . S
C6103 C6105 1.419 . S
C6104 C6102 1.415 . S
C6104 C6109 1.425 . S
C6104 C6111 1.409 . S
C6105 H6097 0.930 . S
C6105 C6103 1.419 . S
C6105 C6106 1.362 . S
C6106 H6098 0.930 . S
C6106 C6105 1.362 . S
C6106 C6109 1.409 . S
C6107 H6099 0.930 . S
C6107 C6108 1.355 . S
C6107 C6109 1.415 . S
C6108 C6107 1.355 . S
C6108 C6110 1.419 . S
C6109 C6104 1.425 . S
C6109 C6106 1.409 . S
C6109 C6107 1.415 . S
C6110 H6100 0.930 . S
C6110 C6108 1.419 . S
C6110 C6111 1.362 . S
C6111 H6101 0.930 . S
C6111 C6104 1.409 . S
C6111 C6110 1.362 . S
H6112 C6118 0.930 . S
H6113 C6121 0.930 . S
H6114 C6122 0.930 . S
H6115 C6123 0.930 . S
H6116 C6126 0.930 . S
H6117 C6127 0.930 . S
C6118 H6112 0.930 . S
C6118 C6119 1.355 . S
C6118 C6120 1.415 . S
C6119 C6118 1.355 . S
C6119 C6121 1.419 . S
C6120 C6118 1.415 . S
C6120 C6125 1.425 . S
C6120 C6127 1.409 . S
C6121 H6113 0.930 . S
C6121 C6119 1.419 . S
C6121 C6122 1.362 . S
C6122 H6114 0.930 . S
C6122 C6121 1.362 . S
C6122 C6125 1.409 . S
C6123 H6115 0.930 . S
C6123 C6124 1.355 . S
C6123 C6125 1.415 . S
C6124 C6123 1.355 . S
C6124 C6126 1.419 . S
C6125 C6120 1.425 . S
C6125 C6122 1.409 . S
C6125 C6123 1.415 . S
C6126 H6116 0.930 . S
C6126 C6124 1.419 . S
C6126 C6127 1.362 . S
C6127 H6117 0.930 . S
C6127 C6120 1.409 . S
C6127 C6126 1.362 . S
H6128 C6134 0.929 1_455 S
H6129 C6137 0.930 . S
H6130 C6138 0.930 . S
H6131 C6139 0.930 . S
H6132 C6142 0.933 . S
H6133 C6143 0.930 . S
C6134 H6128 0.929 1_655 S
C6134 C6135 1.355 . S
C6134 C6136 1.415 . S
C6135 C6134 1.355 . S
C6135 C6137 1.419 . S
C6136 C6134 1.415 . S
C6136 C6141 1.425 . S
C6136 C6143 1.409 1_655 S
C6137 H6129 0.930 . S
C6137 C6135 1.419 . S
C6137 C6138 1.362 . S
C6138 H6130 0.930 . S
C6138 C6137 1.362 . S
C6138 C6141 1.409 . S
C6139 H6131 0.930 . S
C6139 C6140 1.355 . S
C6139 C6141 1.415 . S
C6140 C6139 1.355 . S
C6140 C6142 1.416 1_655 S
C6141 C6136 1.425 . S
C6141 C6138 1.409 . S
C6141 C6139 1.415 . S
C6142 H6132 0.933 . S
C6142 C6140 1.416 1_455 S
C6142 C6143 1.363 . S
C6143 H6133 0.930 . S
C6143 C6136 1.409 1_455 S
C6143 C6142 1.363 . S
H6144 C6150 0.930 . S
H6145 C6153 0.930 . S
H6146 C6154 0.930 . S
H6147 C6155 0.930 . S
H6148 C6158 0.930 . S
H6149 C6159 0.930 . S
C6150 H6144 0.930 . S
C6150 C6151 1.355 . S
C6150 C6152 1.415 . S
C6151 C6150 1.355 . S
C6151 C6153 1.419 . S
C6152 C6150 1.415 . S
C6152 C6157 1.425 . S
C6152 C6159 1.409 . S
C6153 H6145 0.930 . S
C6153 C6151 1.419 . S
C6153 C6154 1.362 . S
C6154 H6146 0.930 . S
C6154 C6153 1.362 . S
C6154 C6157 1.409 . S
C6155 H6147 0.930 . S
C6155 C6156 1.355 . S
C6155 C6157 1.415 . S
C6156 C6155 1.355 . S
C6156 C6158 1.419 . S
C6157 C6152 1.425 . S
C6157 C6154 1.409 . S
C6157 C6155 1.415 . S
C6158 H6148 0.930 . S
C6158 C6156 1.419 . S
C6158 C6159 1.362 . S
C6159 H6149 0.930 . S
C6159 C6152 1.409 . S
C6159 C6158 1.362 . S
H6160 C6166 0.930 . S
H6161 C6169 0.930 . S
H6162 C6170 0.930 . S
H6163 C6171 0.930 . S
H6164 C6174 0.930 . S
H6165 C6175 0.930 . S
C6166 H6160 0.930 . S
C6166 C6167 1.355 . S
C6166 C6168 1.415 . S
C6167 C6166 1.355 . S
C6167 C6169 1.419 . S
C6168 C6166 1.415 . S
C6168 C6173 1.425 . S
C6168 C6175 1.409 . S
C6169 H6161 0.930 . S
C6169 C6167 1.419 . S
C6169 C6170 1.362 . S
C6170 H6162 0.930 . S
C6170 C6169 1.362 . S
C6170 C6173 1.409 . S
C6171 H6163 0.930 . S
C6171 C6172 1.355 . S
C6171 C6173 1.415 . S
C6172 C6171 1.355 . S
C6172 C6174 1.419 . S
C6173 C6168 1.425 . S
C6173 C6170 1.409 . S
C6173 C6171 1.415 . S
C6174 H6164 0.930 . S
C6174 C6172 1.419 . S
C6174 C6175 1.362 . S
C6175 H6165 0.930 . S
C6175 C6168 1.409 . S
C6175 C6174 1.362 . S
H6176 C6182 0.930 . S
H6177 C6185 0.930 . S
H6178 C6186 0.930 . S
H6179 C6187 0.930 . S
H6180 C6190 0.930 . S
H6181 C6191 0.930 . S
C6182 H6176 0.930 . S
C6182 C6183 1.355 . S
C6182 C6184 1.415 . S
C6183 C6182 1.355 . S
C6183 C6185 1.419 1_565 S
C6184 C6182 1.415 . S
C6184 C6189 1.425 . S
C6184 C6191 1.409 . S
C6185 H6177 0.930 . S
C6185 C6183 1.419 1_545 S
C6185 C6186 1.362 . S
C6186 H6178 0.930 . S
C6186 C6185 1.362 . S
C6186 C6189 1.409 1_545 S
C6187 H6179 0.930 . S
C6187 C6188 1.355 . S
C6187 C6189 1.415 . S
C6188 C6187 1.355 . S
C6188 C6190 1.419 . S
C6189 C6184 1.425 . S
C6189 C6186 1.409 1_565 S
C6189 C6187 1.415 . S
C6190 H6180 0.930 . S
C6190 C6188 1.419 . S
C6190 C6191 1.362 . S
C6191 H6181 0.930 . S
C6191 C6184 1.409 . S
C6191 C6190 1.362 . S
H6192 C6198 0.930 . S
H6193 C6201 0.930 . S
H6194 C6202 0.930 . S
H6195 C6203 0.930 . S
H6196 C6206 0.930 . S
H6197 C6207 0.930 . S
C6198 H6192 0.930 . S
C6198 C6199 1.355 . S
C6198 C6200 1.415 . S
C6199 C6198 1.355 . S
C6199 C6201 1.419 . S
C6200 C6198 1.415 . S
C6200 C6205 1.425 . S
C6200 C6207 1.409 . S
C6201 H6193 0.930 . S
C6201 C6199 1.419 . S
C6201 C6202 1.362 . S
C6202 H6194 0.930 . S
C6202 C6201 1.362 . S
C6202 C6205 1.409 . S
C6203 H6195 0.930 . S
C6203 C6204 1.355 . S
C6203 C6205 1.415 . S
C6204 C6203 1.355 . S
C6204 C6206 1.419 . S
C6205 C6200 1.425 . S
C6205 C6202 1.409 . S
C6205 C6203 1.415 . S
C6206 H6196 0.930 . S
C6206 C6204 1.419 . S
C6206 C6207 1.362 . S
C6207 H6197 0.930 . S
C6207 C6200 1.409 . S
C6207 C6206 1.362 . S
H6208 C6214 0.930 1_556 S
H6209 C6217 0.930 . S
H6210 C6218 0.930 . S
H6211 C6219 0.930 . S
H6212 C6222 0.930 . S
H6213 C6223 0.930 . S
C6214 H6208 0.930 1_554 S
C6214 C6215 1.355 . S
C6214 C6216 1.415 1_554 S
C6215 C6214 1.355 . S
C6215 C6217 1.419 . S
C6216 C6214 1.415 1_556 S
C6216 C6221 1.425 . S
C6216 C6223 1.409 . S
C6217 H6209 0.930 . S
C6217 C6215 1.419 . S
C6217 C6218 1.362 . S
C6218 H6210 0.930 . S
C6218 C6217 1.362 . S
C6218 C6221 1.409 1_554 S
C6219 H6211 0.930 . S
C6219 C6220 1.355 . S
C6219 C6221 1.415 . S
C6220 C6219 1.355 . S
C6220 C6222 1.419 . S
C6221 C6216 1.425 . S
C6221 C6218 1.409 1_556 S
C6221 C6219 1.415 . S
C6222 H6212 0.930 . S
C6222 C6220 1.419 . S
C6222 C6223 1.362 . S
C6223 H6213 0.930 . S
C6223 C6216 1.409 . S
C6223 C6222 1.362 . S
H6224 C6230 0.930 . S
H6225 C6233 0.930 . S
H6226 C6234 0.930 . S
H6227 C6235 0.930 . S
H6228 C6238 0.930 . S
H6229 C6239 0.930 . S
C6230 H6224 0.930 . S
C6230 C6231 1.355 . S
C6230 C6232 1.415 . S
C6231 C6230 1.355 . S
C6231 C6233 1.419 . S
C6232 C6230 1.415 . S
C6232 C6237 1.425 . S
C6232 C6239 1.409 . S
C6233 H6225 0.930 . S
C6233 C6231 1.419 . S
C6233 C6234 1.362 . S
C6234 H6226 0.930 . S
C6234 C6233 1.362 . S
C6234 C6237 1.409 . S
C6235 H6227 0.930 . S
C6235 C6236 1.355 . S
C6235 C6237 1.415 . S
C6236 C6235 1.355 . S
C6236 C6238 1.419 . S
C6237 C6232 1.425 . S
C6237 C6234 1.409 . S
C6237 C6235 1.415 . S
C6238 H6228 0.930 . S
C6238 C6236 1.419 . S
C6238 C6239 1.362 . S
C6239 H6229 0.930 . S
C6239 C6232 1.409 . S
C6239 C6238 1.362 . S
H6240 C6246 0.930 . S
H6241 C6249 0.930 . S
H6242 C6250 0.930 . S
H6243 C6251 0.930 . S
H6244 C6254 0.930 . S
H6245 C6255 0.930 . S
C6246 H6240 0.930 . S
C6246 C6247 1.355 . S
C6246 C6248 1.415 . S
C6247 C6246 1.355 . S
C6247 C6249 1.419 . S
C6248 C6246 1.415 . S
C6248 C6253 1.425 . S
C6248 C6255 1.409 . S
C6249 H6241 0.930 . S
C6249 C6247 1.419 . S
C6249 C6250 1.362 . S
C6250 H6242 0.930 . S
C6250 C6249 1.362 . S
C6250 C6253 1.409 . S
C6251 H6243 0.930 . S
C6251 C6252 1.355 . S
C6251 C6253 1.415 . S
C6252 C6251 1.355 . S
C6252 C6254 1.419 . S
C6253 C6248 1.425 . S
C6253 C6250 1.409 . S
C6253 C6251 1.415 . S
C6254 H6244 0.930 . S
C6254 C6252 1.419 . S
C6254 C6255 1.362 . S
C6255 H6245 0.930 . S
C6255 C6248 1.409 . S
C6255 C6254 1.362 . S
H6256 C6262 0.930 . S
H6257 C6265 0.930 . S
H6258 C6266 0.930 . S
H6259 C6267 0.930 . S
H6260 C6270 0.930 . S
H6261 C6271 0.930 . S
C6262 H6256 0.930 . S
C6262 C6263 1.355 . S
C6262 C6264 1.415 . S
C6263 C6262 1.355 . S
C6263 C6265 1.419 . S
C6264 C6262 1.415 . S
C6264 C6269 1.425 . S
C6264 C6271 1.409 . S
C6265 H6257 0.930 . S
C6265 C6263 1.419 . S
C6265 C6266 1.362 . S
C6266 H6258 0.930 . S
C6266 C6265 1.362 . S
C6266 C6269 1.409 . S
C6267 H6259 0.930 . S
C6267 C6268 1.355 . S
C6267 C6269 1.415 . S
C6268 C6267 1.355 . S
C6268 C6270 1.419 . S
C6269 C6264 1.425 . S
C6269 C6266 1.409 . S
C6269 C6267 1.415 . S
C6270 H6260 0.930 . S
C6270 C6268 1.419 . S
C6270 C6271 1.362 . S
C6271 H6261 0.930 . S
C6271 C6264 1.409 . S
C6271 C6270 1.362 . S
H6272 C6278 0.930 . S
H6273 C6281 0.930 . S
H6274 C6282 0.930 . S
H6275 C6283 0.930 . S
H6276 C6286 0.930 . S
H6277 C6287 0.930 . S
C6278 H6272 0.930 . S
C6278 C6279 1.355 . S
C6278 C6280 1.415 . S
C6279 C6278 1.355 . S
C6279 C6281 1.419 . S
C6280 C6278 1.415 . S
C6280 C6285 1.425 . S
C6280 C6287 1.409 . S
C6281 H6273 0.930 . S
C6281 C6279 1.419 . S
C6281 C6282 1.362 . S
C6282 H6274 0.930 . S
C6282 C6281 1.362 . S
C6282 C6285 1.409 . S
C6283 H6275 0.930 . S
C6283 C6284 1.355 . S
C6283 C6285 1.415 . S
C6284 C6283 1.355 . S
C6284 C6286 1.419 . S
C6285 C6280 1.425 . S
C6285 C6282 1.409 . S
C6285 C6283 1.415 . S
C6286 H6276 0.930 . S
C6286 C6284 1.419 . S
C6286 C6287 1.362 . S
C6287 H6277 0.930 . S
C6287 C6280 1.409 . S
C6287 C6286 1.362 . S
H6288 C6294 0.930 . S
H6289 C6297 0.930 . S
H6290 C6298 0.930 . S
H6291 C6299 0.930 . S
H6292 C6302 0.930 . S
H6293 C6303 0.930 . S
C6294 H6288 0.930 . S
C6294 C6295 1.355 . S
C6294 C6296 1.415 . S
C6295 C6294 1.355 . S
C6295 C6297 1.419 . S
C6296 C6294 1.415 . S
C6296 C6301 1.425 . S
C6296 C6303 1.409 . S
C6297 H6289 0.930 . S
C6297 C6295 1.419 . S
C6297 C6298 1.362 . S
C6298 H6290 0.930 . S
C6298 C6297 1.362 . S
C6298 C6301 1.409 . S
C6299 H6291 0.930 . S
C6299 C6300 1.355 . S
C6299 C6301 1.415 . S
C6300 C6299 1.355 . S
C6300 C6302 1.419 . S
C6301 C6296 1.425 . S
C6301 C6298 1.409 . S
C6301 C6299 1.415 . S
C6302 H6292 0.930 . S
C6302 C6300 1.419 . S
C6302 C6303 1.362 . S
C6303 H6293 0.930 . S
C6303 C6296 1.409 . S
C6303 C6302 1.362 . S
H6304 C6310 0.930 . S
H6305 C6313 0.930 . S
H6306 C6314 0.930 . S
H6307 C6315 0.930 . S
H6308 C6318 0.930 . S
H6309 C6319 0.930 . S
C6310 H6304 0.930 . S
C6310 C6311 1.355 . S
C6310 C6312 1.415 . S
C6311 C6310 1.355 . S
C6311 C6313 1.419 . S
C6312 C6310 1.415 . S
C6312 C6317 1.425 . S
C6312 C6319 1.409 . S
C6313 H6305 0.930 . S
C6313 C6311 1.419 . S
C6313 C6314 1.362 . S
C6314 H6306 0.930 . S
C6314 C6313 1.362 . S
C6314 C6317 1.409 . S
C6315 H6307 0.930 . S
C6315 C6316 1.355 . S
C6315 C6317 1.415 . S
C6316 C6315 1.355 . S
C6316 C6318 1.419 . S
C6317 C6312 1.425 . S
C6317 C6314 1.409 . S
C6317 C6315 1.415 . S
C6318 H6308 0.930 . S
C6318 C6316 1.419 . S
C6318 C6319 1.362 . S
C6319 H6309 0.930 . S
C6319 C6312 1.409 . S
C6319 C6318 1.362 . S
H6320 C6326 0.930 . S
H6321 C6329 0.930 . S
H6322 C6330 0.930 . S
H6323 C6331 0.930 . S
H6324 C6334 0.930 . S
H6325 C6335 0.930 . S
C6326 H6320 0.930 . S
C6326 C6327 1.355 . S
C6326 C6328 1.415 . S
C6327 C6326 1.355 . S
C6327 C6329 1.419 1_554 S
C6328 C6326 1.415 . S
C6328 C6333 1.425 1_554 S
C6328 C6335 1.409 . S
C6329 H6321 0.930 . S
C6329 C6327 1.419 1_556 S
C6329 C6330 1.362 . S
C6330 H6322 0.930 . S
C6330 C6329 1.362 . S
C6330 C6333 1.409 . S
C6331 H6323 0.930 . S
C6331 C6332 1.355 . S
C6331 C6333 1.415 . S
C6332 C6331 1.355 . S
C6332 C6334 1.419 . S
C6333 C6328 1.425 1_556 S
C6333 C6330 1.409 . S
C6333 C6331 1.415 . S
C6334 H6324 0.930 . S
C6334 C6332 1.419 . S
C6334 C6335 1.362 1_556 S
C6335 H6325 0.930 . S
C6335 C6328 1.409 . S
C6335 C6334 1.362 1_554 S
C4039 C578 4.018 . S
C4044 C74 4.039 . S
C4055 C651 4.116 1_565 S
C4060 C158 4.119 . S
C4071 C399 4.008 . S
C4076 C231 3.982 1_455 S
C4087 C483 4.078 . S
C4092 C326 4.018 . S
C4103 C914 4.153 . S
C4108 C746 4.164 . S
C4119 C987 4.017 . S
C4124 C819 4.019 . S
C4135 C1239 4.020 . S
C4140 C1071 3.993 . S
C4151 C1334 4.029 . S
C4156 C1166 4.032 . S
C4167 C1502 4.183 . S
C4172 C1400 4.140 . S
C4183 C2006 4.063 . S
C4188 C1586 4.044 . S
C4199 C1820 4.136 . S
C4204 C1659 4.183 . S
C4215 C1743 4.067 1_554 S
C4220 C1911 4.113 . S
C4231 C2090 4.048 . S
C4236 C2594 4.026 . S
C4247 C2174 4.122 1_554 S
C4252 C2667 4.112 . S
C4263 C2247 3.981 1_554 S
C4268 C2415 4.008 . S
C4279 C2342 4.020 . S
C4284 C2499 4.077 . S
C4295 C2762 4.151 1_455 S
C4300 C2930 4.137 . S
C4311 C2835 4.012 . S
C4316 C3003 4.016 . S
C4327 C3087 3.999 . S
C4332 C3255 4.025 . S
C4343 C3350 4.037 . S
C4348 C3182 4.035 1_545 S
C4359 C3416 4.140 . S
C4364 C3518 4.179 . S
C4375 C4022 4.051 . S
C4380 C3602 4.025 . S
C4391 C3675 4.177 1_545 S
C4396 C3836 4.134 . S
C4407 C3759 4.060 . S
C4412 C3927 4.108 1_455 S
C4423 C63 3.775 . S
C4428 C830 3.810 . S
C4439 C147 4.245 . S
C4444 C903 4.074 . S
C4455 C242 4.146 . S
C4460 C998 4.138 . S
C4471 C735 3.662 . S
C4476 C315 3.729 . S
C4487 C1323 2.819 . S
C4492 C410 2.830 . S
C4503 C1082 3.291 . S
C4508 C494 3.234 . S
C4519 C1155 3.420 . S
C4524 C567 3.417 . S
C4535 C662 2.732 . S
C4540 C1250 2.893 . S
C4551 C1575 2.198 . S
C4556 C1411 2.245 . S
C4567 C1922 4.662 . S
C4572 C1491 4.758 . S
C4583 C1670 4.727 . S
C4588 C1995 4.707 . S
C4599 C1831 2.212 . S
C4604 C1754 2.257 . S
C4615 C2079 3.767 . S
C4620 C2846 3.816 . S
C4631 C2919 4.077 . S
C4636 C2163 4.235 . S
C4647 C3014 4.131 . S
C4652 C2258 4.154 . S
C4663 C2331 3.744 . S
C4668 C2751 3.635 . S
C4679 C3339 2.834 . S
C4684 C2426 2.820 . S
C4695 C2510 3.265 . S
C4700 C3098 3.278 . S
C4711 C2583 3.408 . S
C4716 C3171 3.427 . S
C4727 C2678 2.731 . S
C4732 C3266 2.899 . S
C4743 C3427 2.225 . S
C4748 C3591 2.232 . S
C4759 C3938 4.695 . S
C4764 C3507 4.729 . S
C4775 C4011 4.674 . S
C4780 C3686 4.756 . S
C4791 C3770 2.261 . S
C4796 C3847 2.213 . S
C4807 C58 0.509 . S
C4812 C319 1.132 . S
C4823 C67 1.515 . S
C4828 C142 1.122 . S
C4839 C224 1.398 . S
C4844 C151 1.397 . S
C4855 C310 0.853 . S
C4860 C237 0.939 . S
C4871 C489 0.890 . S
C4876 C392 1.280 . S
C4887 C571 1.617 . S
C4892 C476 1.575 . S
C4903 C562 0.918 . S
C4908 C657 0.646 . S
C4919 C405 0.771 . S
C4924 C644 0.640 . S
C4935 C730 0.994 . S
C4940 C1579 0.232 . S
C4951 C812 1.351 . S
C4956 C1665 1.053 . S
C4967 C898 0.743 . S
C4972 C1749 0.990 . S
C4983 C980 2.007 . S
C4988 C1495 2.103 . S
C4999 C1064 1.640 1_565 S
C5004 C1917 1.082 . S
C5015 C1402 0.796 . S
C5020 C1150 0.502 . S
C5031 C1999 2.504 1_556 S
C5036 C1232 2.481 . S
C5047 C1318 0.662 . S
C5052 C1822 1.405 . S
C5063 C1407 0.568 . S
C5068 C825 1.598 . S
C5079 C1486 1.567 . S
C5084 C1327 2.007 . S
C5095 C1570 1.154 . S
C5100 C1077 0.715 . S
C5111 C1159 2.910 1_655 S
C5116 C1652 2.937 1_556 S
C5127 C1245 0.928 . S
C5132 C1736 0.560 . S
C5143 C993 0.650 . S
C5148 C1827 0.582 . S
C5159 C739 2.544 1_565 S
C5164 C1904 2.630 . S
C5175 C1990 1.012 . S
C5180 C907 1.571 . S
C5191 C2074 0.516 . S
C5196 C2335 1.125 . S
C5207 C2158 1.114 . S
C5212 C2083 1.515 . S
C5223 C2167 1.434 . S
C5228 C2240 1.384 . S
C5239 C2253 0.849 . S
C5244 C2326 0.942 . S
C5255 C2408 1.250 . S
C5260 C2505 0.725 . S
C5271 C2587 1.594 . S
C5276 C2492 1.521 . S
C5287 C2673 0.840 . S
C5292 C2578 0.770 . S
C5303 C2660 0.654 . S
C5308 C2421 0.846 . S
C5319 C2746 1.047 . S
C5324 C3595 0.377 . S
C5335 C3681 1.008 . S
C5340 C2828 1.349 . S
C5351 C3765 0.788 . S
C5356 C2914 0.955 . S
C5367 C2996 2.048 . S
C5372 C3511 2.098 . S
C5383 C3933 1.179 . S
C5388 C3080 1.639 . S
C5399 C3166 0.532 . S
C5404 C3418 0.958 . S
C5415 C3248 2.477 . S
C5420 C4015 2.505 . S
C5431 C3334 0.559 . S
C5436 C3838 1.427 . S
C5447 C2841 1.575 . S
C5452 C3423 0.598 . S
C5463 C3343 2.007 . S
C5468 C3502 1.608 . S
C5479 C3093 0.871 . S
C5484 C3586 1.021 . S
C5495 C3668 2.927 . S
C5500 C3175 2.915 . S
C5511 C3261 0.913 . S
C5516 C3752 0.606 . S
C5527 C3843 0.433 . S
C5532 C3009 0.876 . S
C5543 C3920 2.630 . S
C5548 C2755 2.569 . S
C5559 C2923 1.566 . S
C5564 C4006 1.072 . S
C5575 C56 0.592 . S
C5580 C3754 0.430 . S
C5591 C3500 2.420 . S
C5596 C140 2.448 . S
C5607 C226 0.324 . S
C5612 C3584 0.695 . S
C5623 C308 0.871 . S
C5628 C3670 0.922 . S
C5639 C394 0.728 . S
C5644 C4004 0.557 . S
C5655 C478 1.315 . S
C5660 C3849 1.507 . S
C5671 C560 0.946 . S
C5676 C3922 0.884 . S
C5687 C646 1.066 . S
C5692 C3429 1.736 . S
C5703 C728 2.575 . S
C5708 C3332 2.523 . S
C5719 C814 1.165 1_455 S
C5724 C3082 0.747 . S
C5735 C896 2.654 1_565 S
C5740 C3164 2.688 . S
C5751 C982 1.647 . S
C5756 C3250 1.462 . S
C5767 C1066 0.722 . S
C5772 C2830 1.145 . S
C5783 C1148 2.677 . S
C5788 C2912 2.652 . S
C5799 C1234 1.432 . S
C5804 C2998 1.691 . S
C5815 C1316 2.525 . S
C5820 C2744 2.543 . S
C5831 C1413 1.749 . S
C5836 C2662 1.055 . S
C5847 C1484 2.433 . S
C5852 C2156 2.474 . S
C5863 C1568 0.680 . S
C5868 C2242 0.316 . S
C5879 C1654 0.892 . S
C5884 C2324 0.760 . S
C5895 C1738 0.469 . S
C5900 C2072 0.662 . S
C5911 C1833 1.381 . S
C5916 C2494 1.278 . S
C5927 C1906 0.905 . S
C5932 C2576 0.813 . S
C5943 C1988 0.595 . S
C5948 C2410 0.486 . S
C5959 C403 0.576 . S
C5964 C3597 0.447 . S
C5975 C487 2.577 . S
C5980 C3679 2.565 . S
C5991 C573 0.536 . S
C5996 C3763 0.743 . S
C6007 C655 0.847 . S
C6012 C3513 0.803 . S
C6023 C69 0.665 1_455 S
C6028 C3931 0.666 . S
C6039 C153 0.543 . S
C6044 C3434 0.511 . S
C6055 C235 0.787 . S
C6060 C4017 0.903 . S
C6071 C3854 0.537 . S
C6076 C321 0.609 . S
C6087 C1243 2.658 1_565 S
C6092 C2839 2.618 . S
C6103 C1329 0.865 . S
C6108 C2925 0.912 . S
C6119 C1075 2.768 . S
C6124 C3007 2.813 . S
C6135 C1161 1.324 . S
C6140 C2757 1.559 . S
C6151 C909 0.798 . S
C6156 C3345 0.934 . S
C6167 C991 2.811 1_655 S
C6172 C3091 2.763 . S
C6183 C741 1.546 . S
C6188 C3177 1.244 . S
C6199 C823 2.656 . S
C6204 C3259 2.661 . S
C6215 C1838 0.788 . S
C6220 C2337 0.561 . S
C6231 C1663 2.575 . S
C6236 C2503 2.586 . S
C6247 C1747 0.590 . S
C6252 C2589 0.435 . S
C6263 C1497 0.883 . S
C6268 C2671 0.804 . S
C6279 C1581 0.448 . S
C6284 C2419 0.575 . S
C6295 C1418 0.501 . S
C6300 C2169 0.555 . S
C6311 C2001 0.898 . S
C6316 C2251 0.922 . S
C6327 C1915 0.502 . S
C6332 C2085 0.647 . S
