# Generated by pormake.
# Topology sxh, (6)-cn, num edge types: 1
# Building blocks:
#     Node 0, Type 0, BuildingBlock: IZENUY_clean_sbu_0, # of connection points: 6
#     Node 1, Type 0, BuildingBlock: IZENUY_clean_sbu_0, # of connection points: 6
#     Node 2, Type 0, BuildingBlock: IZENUY_clean_sbu_0, # of connection points: 6
#     Node 3, Type 0, BuildingBlock: IZENUY_clean_sbu_0, # of connection points: 6
#     Node 4, Type 0, BuildingBlock: IZENUY_clean_sbu_0, # of connection points: 6
#     Node 5, Type 0, BuildingBlock: IZENUY_clean_sbu_0, # of connection points: 6
#     Node 6, Type 0, BuildingBlock: IZENUY_clean_sbu_0, # of connection points: 6
#     Node 7, Type 0, BuildingBlock: IZENUY_clean_sbu_0, # of connection points: 6
#     Node 8, Type 0, BuildingBlock: IZENUY_clean_sbu_0, # of connection points: 6
#     Node 9, Type 0, BuildingBlock: IZENUY_clean_sbu_0, # of connection points: 6
#     Node 10, Type 0, BuildingBlock: IZENUY_clean_sbu_0, # of connection points: 6
#     Node 11, Type 0, BuildingBlock: IZENUY_clean_sbu_0, # of connection points: 6
#     Node 12, Type 0, BuildingBlock: IZENUY_clean_sbu_0, # of connection points: 6
#     Node 13, Type 0, BuildingBlock: IZENUY_clean_sbu_0, # of connection points: 6
#     Node 14, Type 0, BuildingBlock: IZENUY_clean_sbu_0, # of connection points: 6
#     Node 15, Type 0, BuildingBlock: IZENUY_clean_sbu_0, # of connection points: 6
#     Node 16, Type 0, BuildingBlock: IZENUY_clean_sbu_0, # of connection points: 6
#     Node 17, Type 0, BuildingBlock: IZENUY_clean_sbu_0, # of connection points: 6
#     Node 18, Type 0, BuildingBlock: IZENUY_clean_sbu_0, # of connection points: 6
#     Node 19, Type 0, BuildingBlock: IZENUY_clean_sbu_0, # of connection points: 6
#     Node 20, Type 0, BuildingBlock: IZENUY_clean_sbu_0, # of connection points: 6
#     Node 21, Type 0, BuildingBlock: IZENUY_clean_sbu_0, # of connection points: 6
#     Node 22, Type 0, BuildingBlock: IZENUY_clean_sbu_0, # of connection points: 6
#     Node 23, Type 0, BuildingBlock: IZENUY_clean_sbu_0, # of connection points: 6
#     Node 24, Type 0, BuildingBlock: IZENUY_clean_sbu_0, # of connection points: 6
#     Node 25, Type 0, BuildingBlock: IZENUY_clean_sbu_0, # of connection points: 6
#     Node 26, Type 0, BuildingBlock: IZENUY_clean_sbu_0, # of connection points: 6
#     Node 27, Type 0, BuildingBlock: IZENUY_clean_sbu_0, # of connection points: 6
#     Node 28, Type 0, BuildingBlock: IZENUY_clean_sbu_0, # of connection points: 6
#     Node 29, Type 0, BuildingBlock: IZENUY_clean_sbu_0, # of connection points: 6
#     Node 30, Type 0, BuildingBlock: IZENUY_clean_sbu_0, # of connection points: 6
#     Node 31, Type 0, BuildingBlock: IZENUY_clean_sbu_0, # of connection points: 6
#     Node 32, Type 0, BuildingBlock: IZENUY_clean_sbu_0, # of connection points: 6
#     Node 33, Type 0, BuildingBlock: IZENUY_clean_sbu_0, # of connection points: 6
#     Node 34, Type 0, BuildingBlock: IZENUY_clean_sbu_0, # of connection points: 6
#     Node 35, Type 0, BuildingBlock: IZENUY_clean_sbu_0, # of connection points: 6
#     Node 36, Type 0, BuildingBlock: IZENUY_clean_sbu_0, # of connection points: 6
#     Node 37, Type 0, BuildingBlock: IZENUY_clean_sbu_0, # of connection points: 6
#     Node 38, Type 0, BuildingBlock: IZENUY_clean_sbu_0, # of connection points: 6
#     Node 39, Type 0, BuildingBlock: IZENUY_clean_sbu_0, # of connection points: 6
#     Node 40, Type 0, BuildingBlock: IZENUY_clean_sbu_0, # of connection points: 6
#     Node 41, Type 0, BuildingBlock: IZENUY_clean_sbu_0, # of connection points: 6
#     Node 42, Type 0, BuildingBlock: IZENUY_clean_sbu_0, # of connection points: 6
#     Node 43, Type 0, BuildingBlock: IZENUY_clean_sbu_0, # of connection points: 6
#     Node 44, Type 0, BuildingBlock: IZENUY_clean_sbu_0, # of connection points: 6
#     Node 45, Type 0, BuildingBlock: IZENUY_clean_sbu_0, # of connection points: 6
#     Node 46, Type 0, BuildingBlock: IZENUY_clean_sbu_0, # of connection points: 6
#     Node 47, Type 0, BuildingBlock: IZENUY_clean_sbu_0, # of connection points: 6
#     Edge 48, Type (0, 0), None
#     Edge 49, Type (0, 0), None
#     Edge 50, Type (0, 0), None
#     Edge 51, Type (0, 0), None
#     Edge 52, Type (0, 0), None
#     Edge 53, Type (0, 0), None
#     Edge 54, Type (0, 0), None
#     Edge 55, Type (0, 0), None
#     Edge 56, Type (0, 0), None
#     Edge 57, Type (0, 0), None
#     Edge 58, Type (0, 0), None
#     Edge 59, Type (0, 0), None
#     Edge 60, Type (0, 0), None
#     Edge 61, Type (0, 0), None
#     Edge 62, Type (0, 0), None
#     Edge 63, Type (0, 0), None
#     Edge 64, Type (0, 0), None
#     Edge 65, Type (0, 0), None
#     Edge 66, Type (0, 0), None
#     Edge 67, Type (0, 0), None
#     Edge 68, Type (0, 0), None
#     Edge 69, Type (0, 0), None
#     Edge 70, Type (0, 0), None
#     Edge 71, Type (0, 0), None
#     Edge 72, Type (0, 0), None
#     Edge 73, Type (0, 0), None
#     Edge 74, Type (0, 0), None
#     Edge 75, Type (0, 0), None
#     Edge 76, Type (0, 0), None
#     Edge 77, Type (0, 0), None
#     Edge 78, Type (0, 0), None
#     Edge 79, Type (0, 0), None
#     Edge 80, Type (0, 0), None
#     Edge 81, Type (0, 0), None
#     Edge 82, Type (0, 0), None
#     Edge 83, Type (0, 0), None
#     Edge 84, Type (0, 0), None
#     Edge 85, Type (0, 0), None
#     Edge 86, Type (0, 0), None
#     Edge 87, Type (0, 0), None
#     Edge 88, Type (0, 0), None
#     Edge 89, Type (0, 0), None
#     Edge 90, Type (0, 0), None
#     Edge 91, Type (0, 0), None
#     Edge 92, Type (0, 0), None
#     Edge 93, Type (0, 0), None
#     Edge 94, Type (0, 0), None
#     Edge 95, Type (0, 0), None
#     Edge 96, Type (0, 0), None
#     Edge 97, Type (0, 0), None
#     Edge 98, Type (0, 0), None
#     Edge 99, Type (0, 0), None
#     Edge 100, Type (0, 0), None
#     Edge 101, Type (0, 0), None
#     Edge 102, Type (0, 0), None
#     Edge 103, Type (0, 0), None
#     Edge 104, Type (0, 0), None
#     Edge 105, Type (0, 0), None
#     Edge 106, Type (0, 0), None
#     Edge 107, Type (0, 0), None
#     Edge 108, Type (0, 0), None
#     Edge 109, Type (0, 0), None
#     Edge 110, Type (0, 0), None
#     Edge 111, Type (0, 0), None
#     Edge 112, Type (0, 0), None
#     Edge 113, Type (0, 0), None
#     Edge 114, Type (0, 0), None
#     Edge 115, Type (0, 0), None
#     Edge 116, Type (0, 0), None
#     Edge 117, Type (0, 0), None
#     Edge 118, Type (0, 0), None
#     Edge 119, Type (0, 0), None
#     Edge 120, Type (0, 0), None
#     Edge 121, Type (0, 0), None
#     Edge 122, Type (0, 0), None
#     Edge 123, Type (0, 0), None
#     Edge 124, Type (0, 0), None
#     Edge 125, Type (0, 0), None
#     Edge 126, Type (0, 0), None
#     Edge 127, Type (0, 0), None
#     Edge 128, Type (0, 0), None
#     Edge 129, Type (0, 0), None
#     Edge 130, Type (0, 0), None
#     Edge 131, Type (0, 0), None
#     Edge 132, Type (0, 0), None
#     Edge 133, Type (0, 0), None
#     Edge 134, Type (0, 0), None
#     Edge 135, Type (0, 0), None
#     Edge 136, Type (0, 0), None
#     Edge 137, Type (0, 0), None
#     Edge 138, Type (0, 0), None
#     Edge 139, Type (0, 0), None
#     Edge 140, Type (0, 0), None
#     Edge 141, Type (0, 0), None
#     Edge 142, Type (0, 0), None
#     Edge 143, Type (0, 0), None
#     Edge 144, Type (0, 0), None
#     Edge 145, Type (0, 0), None
#     Edge 146, Type (0, 0), None
#     Edge 147, Type (0, 0), None
#     Edge 148, Type (0, 0), None
#     Edge 149, Type (0, 0), None
#     Edge 150, Type (0, 0), None
#     Edge 151, Type (0, 0), None
#     Edge 152, Type (0, 0), None
#     Edge 153, Type (0, 0), None
#     Edge 154, Type (0, 0), None
#     Edge 155, Type (0, 0), None
#     Edge 156, Type (0, 0), None
#     Edge 157, Type (0, 0), None
#     Edge 158, Type (0, 0), None
#     Edge 159, Type (0, 0), None
#     Edge 160, Type (0, 0), None
#     Edge 161, Type (0, 0), None
#     Edge 162, Type (0, 0), None
#     Edge 163, Type (0, 0), None
#     Edge 164, Type (0, 0), None
#     Edge 165, Type (0, 0), None
#     Edge 166, Type (0, 0), None
#     Edge 167, Type (0, 0), None
#     Edge 168, Type (0, 0), None
#     Edge 169, Type (0, 0), None
#     Edge 170, Type (0, 0), None
#     Edge 171, Type (0, 0), None
#     Edge 172, Type (0, 0), None
#     Edge 173, Type (0, 0), None
#     Edge 174, Type (0, 0), None
#     Edge 175, Type (0, 0), None
#     Edge 176, Type (0, 0), None
#     Edge 177, Type (0, 0), None
#     Edge 178, Type (0, 0), None
#     Edge 179, Type (0, 0), None
#     Edge 180, Type (0, 0), None
#     Edge 181, Type (0, 0), None
#     Edge 182, Type (0, 0), None
#     Edge 183, Type (0, 0), None
#     Edge 184, Type (0, 0), None
#     Edge 185, Type (0, 0), None
#     Edge 186, Type (0, 0), None
#     Edge 187, Type (0, 0), None
#     Edge 188, Type (0, 0), None
#     Edge 189, Type (0, 0), None
#     Edge 190, Type (0, 0), None
#     Edge 191, Type (0, 0), None
# Relax obj value: 0.254
# Max RMSD: 0.280
# Mean RMSD: 0.278
data_MOF--net-sxh--node1-IZENUY_clean_sbu_0--edge1-none
_symmetry_space_group_name_H-M    P1
_symmetry_Int_Tables_number       1
_symmetry_cell_setting            triclinic
loop_
_symmetry_equiv_pos_as_xyz
'x, y, z'
_cell_length_a     24.696697
_cell_length_b     24.864622
_cell_length_c     24.682342
_cell_angle_alpha  88.683167
_cell_angle_beta   89.846315
_cell_angle_gamma 91.757767
loop_
_atom_site_label
_atom_site_type_symbol
_atom_site_fract_x
_atom_site_fract_y
_atom_site_fract_z
_atom_type_partial_charge
Fe0 Fe 0.07063 0.17511 0.30669 0.0
Fe1 Fe 0.17206 0.22931 0.35717 0.0
O2 O 0.1246 0.17507 0.35258 0.0
Fe3 Fe 0.13152 0.11664 0.3954 0.0
O4 O 0.09149 0.07014 0.35799 0.0
O5 O 0.09374 0.11067 0.27818 0.0
O6 O 0.10187 0.22125 0.25143 0.0
C7 C 0.14281 0.25421 0.25331 0.0
C8 C 1.02621 0.14673 0.4057 0.0
O9 O 0.18039 0.24178 0.28515 0.0
C10 C 0.16653 0.19158 0.46444 0.0
O11 O 1.04547 0.23293 0.33603 0.0
O12 O 0.12052 0.2776 0.36058 0.0
O13 O 0.06881 0.13605 0.43363 0.0
O14 O 1.0273 0.13853 0.35515 0.0
C15 C 0.22128 0.13785 0.32757 0.0
O16 O 0.16685 0.22929 0.43025 0.0
O17 O 0.17359 0.14542 0.44813 0.0
C18 C 0.06981 0.27064 0.35964 0.0
O19 O 0.22715 0.18218 0.35251 0.0
O20 O 0.1908 0.10073 0.35036 0.0
C21 C 0.09297 0.06724 0.30825 0.0
Fe22 Fe 0.96639 0.43869 0.39016 0.0
Fe23 Fe 1.02111 0.40455 0.29278 0.0
O24 O 0.97472 0.40008 0.34053 0.0
Fe25 Fe 0.93735 0.34647 0.36638 0.0
O26 O 0.87646 0.3765 0.33744 0.0
O27 O 0.90251 0.45971 0.35299 0.0
O28 O 0.9966 0.50119 0.36709 0.0
C29 C 0.99982 0.51357 0.31786 0.0
C30 C 0.9369 0.41638 0.47081 0.0
O31 O 0.99884 0.47618 0.28037 0.0
C32 C 1.04048 0.31598 0.3578 0.0
O33 O 1.0346 0.42037 0.41797 0.0
O34 O 0.07361 0.43232 0.33729 0.0
O35 O 0.9302 0.37657 0.43709 0.0
O36 O 0.94951 0.46418 0.45338 0.0
C37 C 0.953 0.31754 0.25794 0.0
O38 O 1.04545 0.3404 0.31203 0.0
O39 O 0.99911 0.31753 0.38873 0.0
C40 C 0.07756 0.42245 0.38796 0.0
O41 O 0.97283 0.36609 0.24492 0.0
O42 O 0.94061 0.30655 0.30633 0.0
C43 C 0.87525 0.42613 0.32313 0.0
Fe44 Fe 0.07693 0.90283 0.28749 0.0
Fe45 Fe 0.16935 0.85513 0.22658 0.0
O46 O 0.12528 0.9076 0.23667 0.0
Fe47 Fe 0.13101 0.96758 0.19853 0.0
O48 O 0.09428 1.01102 0.23863 0.0
O49 O 0.09783 0.96921 0.31666 0.0
O50 O 0.11735 0.86324 0.33963 0.0
C51 C 0.13638 0.81679 0.33 0.0
C52 C 1.0251 0.93296 0.19227 0.0
O53 O 0.15619 0.81094 0.28451 0.0
C54 C 0.18281 0.90648 0.12456 0.0
O55 O 0.05397 0.84198 0.25769 0.0
O56 O 0.11457 0.81907 0.19376 0.0
O57 O 0.06619 0.9492 0.16357 0.0
O58 O 1.02814 0.93478 0.24362 0.0
C59 C 0.21807 0.94586 0.27539 0.0
O60 O 0.19768 0.87484 0.16112 0.0
O61 O 0.16314 0.94911 0.13693 0.0
C62 C 0.06754 0.81581 0.21601 0.0
O63 O 0.21928 0.89514 0.26472 0.0
O64 O 0.19466 0.98017 0.24177 0.0
C65 C 0.09523 1.01293 0.28793 0.0
Fe66 Fe 0.938 0.7309 0.23314 0.0
Fe67 Fe 0.976 0.61902 0.21289 0.0
O68 O 0.98068 0.67829 0.24829 0.0
Fe69 Fe 1.02667 0.68297 0.30071 0.0
O70 O 0.98323 0.724 0.34826 0.0
O71 O 0.95269 0.77771 0.28722 0.0
O72 O 0.887 0.69313 0.27437 0.0
C73 C 0.88472 0.64176 0.28522 0.0
C74 C 1.04064 0.76603 0.21987 0.0
O75 O 0.90948 0.60734 0.25382 0.0
C76 C 0.08301 0.65188 0.21016 0.0
O77 O 0.90942 0.70739 0.17014 0.0
O78 O 0.94866 0.63688 0.14822 0.0
O79 O 0.05112 0.74399 0.26653 0.0
O80 O 0.9941 0.76271 0.19708 0.0
C81 C 1.00497 0.5717 0.30342 0.0
O82 O 1.04222 0.63683 0.18124 0.0
O83 O 0.07921 0.65157 0.26149 0.0
C84 C 0.9314 0.68056 0.13459 0.0
O85 O 1.01209 0.57715 0.25525 0.0
O86 O 1.00322 0.61466 0.33235 0.0
C87 C 0.96812 0.77184 0.33473 0.0
Fe88 Fe 0.36062 0.16112 0.23542 0.0
Fe89 Fe 0.38243 0.1161 0.12466 0.0
O90 O 0.34554 0.11492 0.18473 0.0
Fe91 Fe 0.29152 0.06861 0.19171 0.0
O92 O 0.2445 0.11001 0.2329 0.0
O93 O 0.30429 0.14997 0.28207 0.0
O94 O 0.32295 0.20939 0.19485 0.0
C95 C 0.31332 0.20771 0.14348 0.0
C96 C 0.36947 0.06151 0.27657 0.0
O97 O 0.34587 0.18242 0.11049 0.0
C98 C 0.37925 1.0108 0.15987 0.0
O99 O 0.42646 0.1885 0.2129 0.0
O100 O 0.44757 0.14259 0.14492 0.0
O101 O 0.32521 0.04711 0.25249 0.0
O102 O 0.39313 0.10788 0.27149 0.0
C103 C 0.28791 0.08959 0.08126 0.0
O104 O 0.4105 0.05026 0.14398 0.0
O105 O 0.3284 1.01579 0.15941 0.0
C106 C 0.46203 0.16821 0.18443 0.0
O107 O 0.33591 0.08086 0.08502 0.0
O108 O 0.25946 0.09079 0.12506 0.0
C109 C 0.25814 0.12917 0.27876 0.0
Fe110 Fe 0.70468 0.45583 0.15051 0.0
Fe111 Fe 0.80133 0.51047 0.19119 0.0
O112 O 0.75427 0.46233 0.19101 0.0
Fe113 Fe 0.72869 0.42023 0.24106 0.0
O114 O 0.75911 0.36427 0.20658 0.0
O115 O 0.74114 0.39476 0.12493 0.0
O116 O 0.72902 0.49013 0.09095 0.0
C117 C 0.77844 0.49287 0.08023 0.0
C118 C 0.62436 0.42321 0.16777 0.0
O119 O 0.81555 0.49166 0.11892 0.0
C120 C 0.73423 0.51954 0.28032 0.0
O121 O 0.67702 0.52155 0.17314 0.0
O122 O 0.75758 0.56194 0.16376 0.0
O123 O 0.65791 0.41199 0.20778 0.0
O124 O 0.64218 0.44015 0.12139 0.0
C125 C 0.83674 0.44158 0.27646 0.0
O126 O 0.77916 0.53 0.25588 0.0
O127 O 0.70435 0.47748 0.27467 0.0
C128 C 0.70729 0.56474 0.17335 0.0
O129 O 0.84979 0.46423 0.22933 0.0
O130 O 0.78892 0.42358 0.28377 0.0
C131 C 0.77222 0.36703 0.15657 0.0
Fe132 Fe 0.29245 1.01917 0.41208 0.0
Fe133 Fe 0.35791 0.93429 0.35923 0.0
O134 O 0.34507 0.97524 0.41417 0.0
Fe135 Fe 0.38383 0.97048 0.47193 0.0
O136 O 0.34173 0.99866 0.51822 0.0
O137 O 0.26288 0.99359 0.47951 0.0
O138 O 0.24427 0.97568 0.36983 0.0
C139 C 0.25633 0.96321 0.32091 0.0
C140 C 0.38178 0.07837 0.44554 0.0
O141 O 0.30356 0.95021 0.31311 0.0
C142 C 0.45784 0.92507 0.40644 0.0
O143 O 0.32542 0.04607 0.35146 0.0
O144 O 0.39413 0.99124 0.32964 0.0
O145 O 0.41269 1.03942 0.458 0.0
O146 O 0.33096 0.07095 0.44681 0.0
C147 C 0.31031 0.87806 0.44652 0.0
O148 O 0.42006 0.90337 0.38092 0.0
O149 O 0.44683 0.9509 0.44586 0.0
C150 C 0.37051 1.03649 0.32711 0.0
O151 O 0.31678 0.8828 0.39469 0.0
O152 O 0.34551 0.90115 0.48037 0.0
C153 C 0.29298 0.99439 0.52253 0.0
Fe154 Fe 0.70258 0.62797 0.44682 0.0
Fe155 Fe 0.79567 0.56592 0.41761 0.0
O156 O 0.75346 0.61541 0.40979 0.0
Fe157 Fe 0.73291 0.64957 0.3531 0.0
O158 O 0.76503 0.71054 0.37957 0.0
O159 O 0.74185 0.69185 0.46435 0.0
O160 O 0.72339 0.60125 0.51203 0.0
C161 C 0.7725 0.59549 0.52395 0.0
C162 C 0.6266 0.65954 0.4214 0.0
O163 O 0.80996 0.59261 0.48623 0.0
C164 C 0.73193 0.54533 0.32806 0.0
O165 O 0.66922 0.56082 0.43054 0.0
O166 O 0.74499 0.5204 0.44968 0.0
O167 O 0.66226 0.663 0.38169 0.0
O168 O 0.64042 0.64857 0.47051 0.0
C169 C 0.84172 0.62475 0.32785 0.0
O170 O 0.77504 0.53821 0.35527 0.0
O171 O 0.70517 0.58806 0.32771 0.0
C172 C 0.69517 0.51728 0.43675 0.0
O173 O 0.85006 0.60681 0.37749 0.0
O174 O 0.79504 0.63972 0.3148 0.0
C175 C 0.77408 0.71666 0.42982 0.0
Fe176 Fe 0.24153 0.3514 0.15291 0.0
Fe177 Fe 0.12588 0.37443 0.1224 0.0
O178 O 0.18383 0.33798 0.11415 0.0
Fe179 Fe 0.18203 0.2868 0.06778 0.0
O180 O 0.22159 0.23688 0.1105 0.0
O181 O 0.28197 0.29396 0.13846 0.0
O182 O 0.2061 0.31469 0.20865 0.0
C183 C 0.15492 0.30185 0.2132 0.0
C184 C 0.26995 0.36102 0.04854 0.0
O185 O 0.11744 0.32999 0.18764 0.0
C186 C 0.15329 0.38072 1.01416 0.0
O187 O 0.2256 0.4164 0.17759 0.0
O188 O 0.14727 0.43522 0.15419 0.0
O189 O 0.24416 0.31615 1.04042 0.0
O190 O 0.27119 0.38407 0.09413 0.0
C191 C 0.07161 0.2884 0.09116 0.0
O192 O 0.14168 0.40891 0.05589 0.0
O193 O 0.1498 0.32961 1.01726 0.0
C194 C 0.19509 0.44928 0.15602 0.0
O195 O 0.07865 0.33656 0.0864 0.0
O196 O 0.11354 0.25845 0.09296 0.0
C197 C 0.27103 0.24735 0.12442 0.0
Fe198 Fe 0.12364 0.69413 0.45788 0.0
Fe199 Fe 0.17819 0.78486 0.51575 0.0
O200 O 0.18144 0.73559 0.46774 0.0
Fe201 Fe 0.24 0.72933 0.42864 0.0
O202 O 0.20326 0.76472 0.37436 0.0
O203 O 0.11567 0.73836 0.39354 0.0
O204 O 0.07424 0.72957 0.49137 0.0
C205 C 0.06997 0.7781 0.48845 0.0
C206 C 0.19716 0.62811 0.42503 0.0
O207 O 0.11249 0.80932 0.48935 0.0
C208 C 0.26744 0.71917 0.53311 0.0
O209 O 0.13792 0.65849 0.52427 0.0
O210 O 0.14314 0.73792 0.56228 0.0
O211 O 0.22651 0.66341 0.40261 0.0
O212 O 0.1489 0.6372 0.4252 0.0
C213 C 0.26848 0.83392 0.46284 0.0
O214 O 0.23874 0.75948 0.54388 0.0
O215 O 0.27074 0.69833 0.48651 0.0
C216 C 0.14842 0.68722 0.56605 0.0
O217 O 0.21896 0.83983 0.47736 0.0
O218 O 0.27926 0.78962 0.44428 0.0
C219 C 0.15163 0.77264 0.37102 0.0
Fe220 Fe 0.90495 0.79224 0.50861 0.0
Fe221 Fe 0.85784 0.86116 0.4191 0.0
O222 O 0.90971 0.84777 0.46517 0.0
Fe223 Fe 0.96931 0.8867 0.46525 0.0
O224 O 1.01216 0.84344 0.49931 0.0
O225 O 0.97165 0.76645 0.48623 0.0
O226 O 0.86589 0.74559 0.46275 0.0
C227 C 0.8188 0.75665 0.44485 0.0
C228 C 0.93649 0.87893 0.57161 0.0
O229 O 0.81256 0.80301 0.42737 0.0
C230 C 0.90854 0.9642 0.41362 0.0
O231 O 0.84335 0.8195 0.53166 0.0
O232 O 0.82143 0.88889 0.47462 0.0
O233 O 0.95025 0.91252 0.53308 0.0
O234 O 0.93693 0.8288 0.56342 0.0
C235 C 0.94971 0.81718 0.37205 0.0
O236 O 0.87786 0.92857 0.39454 0.0
O237 O 0.94852 0.95065 0.43917 0.0
C238 C 0.81802 0.86254 0.51996 0.0
O239 O 0.89863 0.82703 0.36875 0.0
O240 O 0.98305 0.85064 0.39795 0.0
C241 C 1.01513 0.79588 0.49039 0.0
Fe242 Fe 0.40316 0.79388 0.57402 0.0
Fe243 Fe 0.44104 0.70094 0.63441 0.0
O244 O 0.40158 0.74914 0.6239 0.0
Fe245 Fe 0.34996 0.7247 0.66446 0.0
O246 O 0.318 0.69651 0.60606 0.0
O247 O 0.33868 0.76916 0.55197 0.0
O248 O 0.43167 0.74892 0.52552 0.0
C249 C 0.42151 0.69875 0.52404 0.0
C250 C 0.31676 0.82988 0.63845 0.0
O251 O 0.41991 0.67026 0.56837 0.0
C252 C 0.43369 0.77263 0.72023 0.0
O253 O 0.47536 0.81033 0.59489 0.0
O254 O 0.50195 0.72471 0.60183 0.0
O255 O 0.30802 0.78263 0.65599 0.0
O256 O 0.36465 0.84307 0.61782 0.0
C257 C 0.42104 0.62236 0.66996 0.0
O258 O 0.46527 0.74022 0.69558 0.0
O259 O 0.38327 0.75928 0.72105 0.0
C260 C 0.51341 0.77385 0.59566 0.0
O261 O 0.46816 0.63977 0.6543 0.0
O262 O 0.38159 0.65565 0.67806 0.0
C263 C 0.31459 0.72353 0.56178 0.0
Fe264 Fe 0.9235 0.85485 0.73651 0.0
Fe265 Fe 1.02492 0.90906 0.78701 0.0
O266 O 0.97095 0.9091 0.7411 0.0
Fe267 Fe 0.96404 0.96753 0.69829 0.0
O268 O 0.90475 0.98344 0.74334 0.0
O269 O 0.8684 0.90198 0.7412 0.0
O270 O 0.91518 0.84235 0.80853 0.0
C271 C 0.95276 0.82993 0.84035 0.0
C272 C 0.92901 0.8926 0.62924 0.0
O273 O 0.99367 0.86293 0.84227 0.0
C274 C 0.06933 0.9374 0.68798 0.0
O275 O 0.97505 0.80657 0.73307 0.0
O276 O 0.05009 0.85124 0.75768 0.0
O277 O 0.92197 0.93877 0.64555 0.0
O278 O 0.92869 0.85489 0.66343 0.0
C279 C 1.00258 1.01693 0.78544 0.0
O280 O 0.06826 0.94563 0.73854 0.0
O281 O 1.02675 0.94812 0.66005 0.0
C282 C 1.02576 0.81353 0.73406 0.0
O283 O 1.00181 0.9735 0.81551 0.0
O284 O 1.00407 1.01403 0.7357 0.0
C285 C 0.87427 0.94632 0.76612 0.0
Fe286 Fe 0.15819 0.7377 0.72731 0.0
Fe287 Fe 0.07444 0.67961 0.80091 0.0
O288 O 0.12083 0.68408 0.75315 0.0
Fe289 Fe 0.12916 0.64548 0.70352 0.0
O290 O 0.19304 0.62446 0.74068 0.0
O291 O 0.21909 0.70767 0.75626 0.0
O292 O 0.15493 0.77762 0.78736 0.0
C293 C 0.14252 0.76664 0.83574 0.0
C294 C 0.15863 0.6678 0.62289 0.0
O295 O 0.12273 0.71808 0.84877 0.0
C296 C 1.01799 0.66171 0.70573 0.0
O297 O 0.09643 0.76663 0.70496 0.0
O298 O 0.05009 0.74375 0.78166 0.0
O299 O 0.14603 0.61999 0.64029 0.0
O300 O 0.16536 0.70761 0.65661 0.0
C301 C 0.09575 0.5706 0.77582 0.0
O302 O 1.02194 0.65183 0.75641 0.0
O303 O 0.06095 0.6638 0.67572 0.0
C304 C 0.05506 0.76818 0.7359 0.0
O305 O 0.09673 0.60799 0.81332 0.0
O306 O 0.09895 0.58298 0.72659 0.0
C307 C 0.22031 0.65803 0.77054 0.0
Fe308 Fe 0.96455 0.11658 0.89517 0.0
Fe309 Fe 0.9262 0.22902 0.8671 0.0
O310 O 0.97028 0.17656 0.85701 0.0
Fe311 Fe 1.01863 0.18133 0.8062 0.0
O312 O 0.99773 0.11495 0.77703 0.0
O313 O 1.00128 0.07315 0.85506 0.0
O314 O 0.9009 0.10399 0.85194 0.0
C315 C 0.87747 0.13828 0.81831 0.0
C316 C 0.07045 0.15124 0.90142 0.0
O317 O 0.87628 0.189 0.82895 0.0
C318 C 1.028 0.26836 0.87766 0.0
O319 O 0.93243 0.13508 0.95676 0.0
O320 O 0.89785 0.20931 0.93255 0.0
O321 O 0.06742 0.14938 0.85007 0.0
O322 O 1.02938 0.13496 0.93012 0.0
C323 C 0.95922 0.26739 0.76369 0.0
O324 O 0.98098 0.26509 0.89992 0.0
O325 O 1.0416 0.24217 0.836 0.0
C326 C 0.91274 0.17769 0.96912 0.0
O327 O 0.93936 0.27321 0.80916 0.0
O328 O 0.97821 0.22092 0.75406 0.0
C329 C 1.00032 0.07123 0.80576 0.0
Fe330 Fe 0.15753 0.35325 0.86054 0.0
Fe331 Fe 0.06887 0.40122 0.79298 0.0
O332 O 0.11486 0.40588 0.8454 0.0
Fe333 Fe 0.11956 0.46515 0.8808 0.0
O334 O 0.18607 0.47682 0.83987 0.0
O335 O 0.20854 0.39103 0.81932 0.0
O336 O 0.14284 0.30645 0.80645 0.0
C337 C 0.12736 0.31231 0.75895 0.0
C338 C 0.16413 0.40359 0.95909 0.0
O339 O 0.11231 0.36017 0.74543 0.0
C340 C 1.01255 0.43229 0.88354 0.0
O341 O 0.10141 0.32146 0.8966 0.0
O342 O 1.0444 0.3402 0.82715 0.0
O343 O 0.14691 0.44728 0.94547 0.0
O344 O 0.1861 0.37675 0.92355 0.0
C345 C 0.0906 0.51247 0.79027 0.0
O346 O 1.01634 0.43263 0.8322 0.0
O347 O 0.05334 0.44735 0.91246 0.0
C348 C 0.05488 0.31815 0.8738 0.0
O349 O 0.09234 0.46951 0.76134 0.0
O350 O 0.08348 0.50703 0.83844 0.0
C351 C 0.21084 0.4424 0.80848 0.0
Fe352 Fe 0.71311 0.96807 0.96903 0.0
Fe353 Fe 0.73493 0.92304 0.85828 0.0
O354 O 0.75001 0.96925 0.90897 0.0
Fe355 Fe 0.80402 1.01556 0.90199 0.0
O356 O 0.83609 0.99337 0.96864 0.0
O357 O 0.75963 1.0033 1.00868 0.0
O358 O 0.74966 0.90175 0.98321 0.0
C359 C 0.78221 0.87644 0.95024 0.0
C360 C 0.71629 0.07336 0.93381 0.0
O361 O 0.77261 0.87478 0.89886 0.0
C362 C 0.7261 1.02266 0.81713 0.0
O363 O 0.64798 0.94158 0.94876 0.0
O364 O 0.66909 0.89566 0.8808 0.0
O365 O 0.76714 0.06838 0.9343 0.0
O366 O 0.68504 1.0339 0.94972 0.0
C367 C 0.83741 0.95503 0.81493 0.0
O368 O 0.70243 0.97629 0.8222 0.0
O369 O 0.77034 1.03707 0.84122 0.0
C370 C 0.63352 0.91594 0.90927 0.0
O371 O 0.79127 0.93419 0.81163 0.0
O372 O 0.85105 0.97416 0.8608 0.0
C373 C 0.80763 0.99458 1.01244 0.0
Fe374 Fe 0.29421 0.57371 0.9025 0.0
Fe375 Fe 0.39087 0.62835 0.94317 0.0
O376 O 0.34127 0.62184 0.90267 0.0
Fe377 Fe 0.36685 0.66393 0.85261 0.0
O378 O 0.30663 0.66058 0.80991 0.0
O379 O 0.24575 0.61994 0.86435 0.0
O380 O 0.28 0.59253 0.97477 0.0
C381 C 0.31711 0.59132 1.01345 0.0
C382 C 0.36131 0.56461 0.81336 0.0
O383 O 0.36652 0.59406 1.00273 0.0
C384 C 0.47118 0.66094 0.9259 0.0
O385 O 0.33797 0.52224 0.92995 0.0
O386 O 0.41853 0.56262 0.92055 0.0
O387 O 0.3912 0.60667 0.81902 0.0
O388 O 0.31639 0.55415 0.83782 0.0
C389 C 0.32334 0.71716 0.9371 0.0
O390 O 0.45338 0.64403 0.97229 0.0
O391 O 0.43764 0.67219 0.8859 0.0
C392 C 0.38826 0.51944 0.92034 0.0
O393 O 0.35441 0.68942 0.96874 0.0
O394 O 0.33644 0.71989 0.88708 0.0
C395 C 0.25881 0.64257 0.81721 0.0
Fe396 Fe 0.71171 0.11367 0.62176 0.0
Fe397 Fe 0.73766 0.14985 0.73446 0.0
O398 O 0.75048 0.10891 0.67952 0.0
Fe399 Fe 0.80311 0.06499 0.68159 0.0
O400 O 0.83267 0.09058 0.61418 0.0
O401 O 0.75381 0.0855 0.57547 0.0
O402 O 0.75003 0.183 0.61332 0.0
C403 C 0.78522 0.20612 0.64717 0.0
C404 C 0.71377 1.00578 0.64815 0.0
O405 O 0.77879 0.20135 0.699 0.0
C406 C 0.72506 0.04765 0.76658 0.0
O407 O 0.64872 0.13324 0.64786 0.0
O408 O 0.6755 0.1808 0.71277 0.0
O409 O 0.76459 1.01321 0.64686 0.0
O410 O 0.68286 0.04473 0.63568 0.0
C411 C 0.83923 0.12088 0.7728 0.0
O412 O 0.70143 0.09291 0.76405 0.0
O413 O 0.77014 1.03807 0.74221 0.0
C414 C 0.63772 0.15911 0.68726 0.0
O415 O 0.792 0.13394 0.78058 0.0
O416 O 0.85128 0.10847 0.72386 0.0
C417 C 0.80257 0.08977 0.57116 0.0
Fe418 Fe 0.36264 0.43459 0.74059 0.0
Fe419 Fe 0.29987 0.51823 0.67607 0.0
O420 O 0.34209 0.46874 0.6839 0.0
Fe421 Fe 0.39297 0.45619 0.64687 0.0
O422 O 0.35372 0.39231 0.62933 0.0
O423 O 0.33052 0.37362 0.71411 0.0
O424 O 0.3005 0.44443 0.77888 0.0
C425 C 0.25383 0.45942 0.76584 0.0
C426 C 0.46896 0.42466 0.67229 0.0
O427 O 0.24549 0.47732 0.7162 0.0
C428 C 0.40036 0.56688 0.65693 0.0
O429 O 0.39037 0.4961 0.76598 0.0
O430 O 0.3205 0.54595 0.73841 0.0
O431 O 0.45514 0.43561 0.62318 0.0
O432 O 0.43329 0.42116 0.712 0.0
C433 C 0.32304 0.48865 0.56974 0.0
O434 O 0.35054 0.56376 0.644 0.0
O435 O 0.42632 0.52335 0.66315 0.0
C436 C 0.3636 0.53883 0.76562 0.0
O437 O 0.28558 0.49153 0.60746 0.0
O438 O 0.37215 0.48291 0.58166 0.0
C439 C 0.32148 0.36749 0.66386 0.0
Fe440 Fe 0.96967 0.70973 0.97129 0.0
Fe441 Fe 0.85402 0.73278 0.9408 0.0
O442 O 0.91173 0.74619 0.97956 0.0
Fe443 Fe 0.91353 0.79737 1.02592 0.0
O444 O 0.98202 0.82572 1.00073 0.0
O445 O 1.01691 0.74761 1.00728 0.0
O446 O 0.97811 0.75416 0.90605 0.0
C447 C 0.94063 0.78231 0.88049 0.0
C448 C 0.94225 0.70344 0.07953 0.0
O449 O 0.88946 0.76949 0.88505 0.0
C450 C 0.82561 0.72316 1.04517 0.0
O451 O 0.94828 0.64893 0.93952 0.0
O452 O 0.86994 0.66777 0.91611 0.0
O453 O 0.94577 0.75456 0.07643 0.0
O454 O 0.95387 0.67526 1.03781 0.0
C455 C 0.82451 0.83682 0.96934 0.0
O456 O 0.82436 0.70011 0.99958 0.0
O457 O 0.85141 0.76802 0.05329 0.0
C458 C 0.90046 0.63487 0.93764 0.0
O459 O 0.81359 0.79022 0.95525 0.0
O460 O 0.87396 0.84729 0.9832 0.0
C461 C 1.02394 0.79577 1.00251 0.0
Fe462 Fe 0.97191 0.39004 0.63581 0.0
Fe463 Fe 0.85554 0.35482 0.66505 0.0
O464 O 0.91411 0.34857 0.62594 0.0
Fe465 Fe 0.91736 0.2993 0.57793 0.0
O466 O 0.98306 0.27486 0.60434 0.0
O467 O 1.0213 0.3546 0.60231 0.0
O468 O 0.97989 0.34581 0.70015 0.0
C469 C 0.94394 0.31153 0.72268 0.0
C470 C 0.9471 0.39695 0.52764 0.0
O471 O 0.8923 0.31943 0.71932 0.0
C472 C 0.8281 0.36496 0.56057 0.0
O473 O 0.94663 0.44697 0.66848 0.0
O474 O 0.86903 0.42073 0.69109 0.0
O475 O 0.9524 0.34625 0.53141 0.0
O476 O 0.95762 0.42567 0.56942 0.0
C477 C 0.82705 0.25024 0.63079 0.0
O478 O 0.8248 0.38582 0.60718 0.0
O479 O 0.85681 0.32467 0.5498 0.0
C480 C 0.89838 0.45605 0.66866 0.0
O481 O 0.81629 0.29452 0.64941 0.0
O482 O 0.8766 0.24433 0.61633 0.0
C483 C 1.02558 0.30608 0.60522 0.0
Fe484 Fe 0.19058 0.29194 0.58507 0.0
Fe485 Fe 0.12623 0.19746 0.62842 0.0
O486 O 0.18583 0.2364 0.62851 0.0
Fe487 Fe 0.2377 0.22302 0.67458 0.0
O488 O 0.28299 0.28116 0.66631 0.0
O489 O 0.22966 0.33857 0.63094 0.0
O490 O 0.1239 0.31772 0.60746 0.0
C491 C 0.08042 0.28829 0.60329 0.0
C492 C 0.27752 0.22164 0.57373 0.0
O493 O 0.08338 0.24073 0.59438 0.0
C494 C 0.187 0.11998 0.68008 0.0
O495 O 0.1586 0.25538 0.53026 0.0
O496 O 0.14529 0.17165 0.56059 0.0
O497 O 0.2741 0.19527 0.61906 0.0
O498 O 0.25218 0.26466 0.56202 0.0
C499 C 0.14581 0.26697 0.72164 0.0
O500 O 0.14705 0.13351 0.65448 0.0
O501 O 0.21765 0.15562 0.69917 0.0
C502 C 0.15907 0.20525 0.52207 0.0
O503 O 0.11249 0.23351 0.69573 0.0
O504 O 0.19691 0.25717 0.72492 0.0
C505 C 0.27677 0.32751 0.64879 0.0
Fe506 Fe 0.69239 0.2903 0.51965 0.0
Fe507 Fe 0.6545 0.38324 0.45927 0.0
O508 O 0.69397 0.33505 0.46978 0.0
Fe509 Fe 0.74559 0.35948 0.42922 0.0
O510 O 0.78753 0.30156 0.43769 0.0
O511 O 0.7309 0.24111 0.47585 0.0
O512 O 0.62019 0.27384 0.49877 0.0
C513 C 0.58213 0.31032 0.49801 0.0
C514 C 0.78094 0.36065 0.53192 0.0
O515 O 0.5936 0.35946 0.49185 0.0
C516 C 0.67449 0.46181 0.42369 0.0
O517 O 0.66386 0.33526 0.56815 0.0
O518 O 0.67563 0.41392 0.52531 0.0
O519 O 0.77755 0.38767 0.48762 0.0
O520 O 0.75685 0.31503 0.54171 0.0
C521 C 0.66185 0.31155 0.37345 0.0
O522 O 0.62738 0.44442 0.43938 0.0
O523 O 0.71395 0.42853 0.41562 0.0
C524 C 0.67403 0.38543 0.56964 0.0
O525 O 0.63027 0.34397 0.3981 0.0
O526 O 0.71228 0.32489 0.37263 0.0
C527 C 0.77879 0.25431 0.45523 0.0
Fe528 Fe 0.67204 0.72936 0.85719 0.0
Fe529 Fe 0.63146 0.61669 0.89539 0.0
O530 O 0.62457 0.67513 0.85258 0.0
Fe531 Fe 0.57063 0.67518 0.80665 0.0
O532 O 0.60192 0.72131 0.75141 0.0
O533 O 0.68041 0.74186 0.78518 0.0
O534 O 0.72712 0.6822 0.85254 0.0
C535 C 0.72124 0.63789 0.82758 0.0
C536 C 0.5698 0.77071 0.85959 0.0
O537 O 0.69075 0.60076 0.85036 0.0
C538 C 0.52616 0.64679 0.90566 0.0
O539 O 0.66679 0.72932 0.93027 0.0
O540 O 0.67352 0.64544 0.94813 0.0
O541 O 0.54547 0.733 0.83597 0.0
O542 O 0.62051 0.77766 0.86059 0.0
C543 C 0.59295 0.5673 0.80823 0.0
O544 O 0.56874 0.63611 0.9336 0.0
O545 O 0.52725 0.63862 0.85509 0.0
C546 C 0.66645 0.6916 0.96445 0.0
O547 O 0.59142 0.57021 0.85796 0.0
O548 O 0.59375 0.61073 0.77816 0.0
C549 C 0.64285 0.75427 0.75332 0.0
Fe550 Fe 0.43732 0.84649 0.86632 0.0
Fe551 Fe 0.46631 0.93872 0.89013 0.0
O552 O 0.47466 0.90013 0.84049 0.0
Fe553 Fe 0.52106 0.90462 0.79275 0.0
O554 O 0.47279 0.86617 0.74487 0.0
O555 O 0.4406 0.80659 0.80627 0.0
O556 O 0.37641 0.8765 0.83738 0.0
C557 C 0.37518 0.92614 0.82309 0.0
C558 C 0.54046 0.81605 0.85776 0.0
O559 O 0.40243 0.95972 0.85296 0.0
C560 C 0.57749 0.92251 0.88794 0.0
O561 O 0.43013 0.87656 0.93703 0.0
O562 O 0.44941 0.96417 0.95337 0.0
O563 O 0.54541 0.84047 0.81199 0.0
O564 O 0.49908 0.81758 0.88868 0.0
C565 C 0.49975 1.01363 0.81787 0.0
O566 O 0.53453 0.92041 0.91794 0.0
O567 O 0.57355 0.9324 0.83727 0.0
C568 C 0.43682 0.91636 0.97078 0.0
O569 O 0.4965 1.00123 0.86709 0.0
O570 O 0.49878 0.97625 0.78036 0.0
C571 C 0.45297 0.81761 0.75788 0.0
Fe572 Fe 0.6311 0.46761 0.69853 0.0
Fe573 Fe 0.57699 0.40289 0.7875 0.0
O574 O 0.62533 0.40764 0.73669 0.0
Fe575 Fe 0.66939 0.35515 0.72661 0.0
O576 O 0.71932 0.39514 0.76477 0.0
O577 O 0.69475 0.48017 0.74176 0.0
O578 O 0.5944 0.51108 0.73862 0.0
C579 C 0.59531 0.513 0.78792 0.0
C580 C 0.68291 0.40647 0.6246 0.0
O581 O 0.59789 0.46928 0.81666 0.0
C582 C 0.56757 0.31587 0.71603 0.0
O583 O 0.56626 0.44925 0.66358 0.0
O584 O 0.5282 0.43485 0.74364 0.0
O585 O 0.69776 0.37484 0.66117 0.0
O586 O 0.66319 0.44908 0.63693 0.0
C587 C 0.63641 0.31684 0.83004 0.0
O588 O 0.55401 0.34205 0.75771 0.0
O589 O 0.61459 0.31912 0.69378 0.0
C590 C 0.52517 0.43304 0.69229 0.0
O591 O 0.6174 0.36331 0.83966 0.0
O592 O 0.65618 0.31097 0.78454 0.0
C593 C 0.71813 0.44587 0.77542 0.0
Fe594 Fe 0.43803 0.23093 0.73313 0.0
Fe595 Fe 0.47608 0.11905 0.71292 0.0
O596 O 0.48072 0.17833 0.74829 0.0
Fe597 Fe 0.52669 0.18304 0.80073 0.0
O598 O 0.48322 0.22406 0.84827 0.0
O599 O 0.45265 0.27774 0.78722 0.0
O600 O 0.38702 0.19312 0.77433 0.0
C601 C 0.38477 0.14175 0.78521 0.0
C602 C 0.54066 0.2661 0.7199 0.0
O603 O 0.40957 0.10733 0.75385 0.0
C604 C 0.58307 0.15197 0.71019 0.0
O605 O 0.40951 0.2074 0.67011 0.0
O606 O 0.4487 0.13685 0.64824 0.0
O607 O 0.55113 0.24407 0.76657 0.0
O608 O 0.49413 0.26276 0.69709 0.0
C609 C 0.50501 0.07176 0.80345 0.0
O610 O 0.54229 0.1369 0.68126 0.0
O611 O 0.57927 0.15167 0.76153 0.0
C612 C 0.43153 0.18056 0.63459 0.0
O613 O 0.51222 0.07723 0.7553 0.0
O614 O 0.50323 0.11473 0.83238 0.0
C615 C 0.46808 0.27189 0.83472 0.0
Fe616 Fe 0.86056 0.66119 0.7354 0.0
Fe617 Fe 0.88238 0.61612 0.62465 0.0
O618 O 0.84549 0.61495 0.68473 0.0
Fe619 Fe 0.79149 0.56863 0.69173 0.0
O620 O 0.74446 0.61003 0.73292 0.0
O621 O 0.80424 0.65004 0.78206 0.0
O622 O 0.82286 0.70942 0.6948 0.0
C623 C 0.81323 0.70771 0.64343 0.0
C624 C 0.86945 0.56159 0.77658 0.0
O625 O 0.8458 0.68243 0.61046 0.0
C626 C 0.87923 0.51083 0.65988 0.0
O627 O 0.92639 0.68857 0.71286 0.0
O628 O 0.94751 0.64263 0.6449 0.0
O629 O 0.8252 0.54716 0.75251 0.0
O630 O 0.89309 0.60797 0.77149 0.0
C631 C 0.78786 0.58958 0.58128 0.0
O632 O 0.91047 0.5503 0.64398 0.0
O633 O 0.82837 0.5158 0.65945 0.0
C634 C 0.96195 0.66826 0.6844 0.0
O635 O 0.83586 0.58085 0.58504 0.0
O636 O 0.75941 0.59078 0.62508 0.0
C637 C 0.7581 0.62921 0.77877 0.0
Fe638 Fe 0.22861 0.92027 0.74104 0.0
Fe639 Fe 0.2046 0.95587 0.65047 0.0
O640 O 0.25419 0.96236 0.69098 0.0
Fe641 Fe 0.30126 1.01048 0.69116 0.0
O642 O 0.34972 0.96424 0.72929 0.0
O643 O 0.28884 0.9236 0.78374 0.0
O644 O 0.259 0.8643 0.70656 0.0
C645 C 0.2721 0.86704 0.65654 0.0
C646 C 0.23418 1.01959 0.7803 0.0
O647 O 0.24105 0.8948 0.6249 0.0
C648 C 0.20722 0.06477 0.67332 0.0
O649 O 0.15783 0.91204 0.70776 0.0
O650 O 0.14209 0.9402 0.62135 0.0
O651 O 0.2791 1.03004 0.75584 0.0
O652 O 0.20428 0.97754 0.77465 0.0
C653 C 0.27837 0.99289 0.5802 0.0
O654 O 0.17694 1.02159 0.67311 0.0
O655 O 0.25752 0.06196 0.66372 0.0
C656 C 0.1243 0.92323 0.66772 0.0
O657 O 0.22895 0.99017 0.59092 0.0
O658 O 0.31548 0.99167 0.61889 0.0
C659 C 0.33666 0.94159 0.77643 0.0
Fe660 Fe 0.79249 0.5192 0.91211 0.0
Fe661 Fe 0.85798 0.43437 0.85924 0.0
O662 O 0.84514 0.4753 0.91419 0.0
Fe663 Fe 0.8839 0.47055 0.97196 0.0
O664 O 0.84179 0.49874 1.01824 0.0
O665 O 0.76294 0.4936 0.97954 0.0
O666 O 0.74432 0.47569 0.86986 0.0
C667 C 0.75639 0.46323 0.82093 0.0
C668 C 0.88181 0.57843 0.94557 0.0
O669 O 0.80363 0.45026 0.81312 0.0
C670 C 0.9579 0.42517 0.90646 0.0
O671 O 0.82544 0.54612 0.85148 0.0
O672 O 0.89417 0.49133 0.82965 0.0
O673 O 0.91274 0.53949 0.95802 0.0
O674 O 0.831 0.571 0.94683 0.0
C675 C 0.8104 0.3781 0.94653 0.0
O676 O 0.92015 0.40347 0.88092 0.0
O677 O 0.9469 0.45096 0.94592 0.0
C678 C 0.87052 0.53657 0.82712 0.0
O679 O 0.81688 0.38285 0.8947 0.0
O680 O 0.84557 0.40122 0.9804 0.0
C681 C 0.79305 0.49442 1.02255 0.0
Fe682 Fe 0.20262 0.128 0.94682 0.0
Fe683 Fe 0.29568 0.06591 0.91759 0.0
O684 O 0.2535 0.11543 0.90978 0.0
Fe685 Fe 0.23296 0.14962 0.8531 0.0
O686 O 0.26513 0.21056 0.8796 0.0
O687 O 0.24191 0.19187 0.96437 0.0
O688 O 0.22344 0.10126 1.01202 0.0
C689 C 0.27255 0.09549 1.02393 0.0
C690 C 0.12667 0.15964 0.92142 0.0
O691 O 0.30999 0.09259 0.98621 0.0
C692 C 0.23191 0.04539 0.82804 0.0
O693 O 0.16923 0.06087 0.93052 0.0
O694 O 0.24499 1.02041 0.94966 0.0
O695 O 0.16232 0.16309 0.8817 0.0
O696 O 0.14047 0.14861 0.97052 0.0
C697 C 0.34176 0.12475 0.82784 0.0
O698 O 0.27502 1.03824 0.85524 0.0
O699 O 0.20518 0.08814 0.8277 0.0
C700 C 0.19517 1.01732 0.93672 0.0
O701 O 0.35009 0.10679 0.87747 0.0
O702 O 0.29509 0.13975 0.8148 0.0
C703 C 0.27417 0.21667 0.92985 0.0
Fe704 Fe 0.74153 0.85142 0.65282 0.0
Fe705 Fe 0.62587 0.87448 0.62243 0.0
O706 O 0.68378 0.83801 0.61412 0.0
Fe707 Fe 0.68191 0.78683 0.56776 0.0
O708 O 0.72149 0.7369 0.61048 0.0
O709 O 0.78194 0.79398 0.63831 0.0
O710 O 0.70615 0.81471 0.7086 0.0
C711 C 0.65497 0.80191 0.7132 0.0
C712 C 0.76974 0.86107 0.54841 0.0
O713 O 0.61748 0.83008 0.68768 0.0
C714 C 0.65315 0.88074 0.51416 0.0
O715 O 0.72566 0.91643 0.67754 0.0
O716 O 0.64729 0.93531 0.65414 0.0
O717 O 0.74402 0.81615 0.54034 0.0
O718 O 0.77115 0.88409 0.59401 0.0
C719 C 0.57151 0.78847 0.5912 0.0
O720 O 0.6416 0.90894 0.55589 0.0
O721 O 0.64964 0.82963 0.51727 0.0
C722 C 0.69511 0.94936 0.65611 0.0
O723 O 0.57854 0.83664 0.58653 0.0
O724 O 0.61342 0.75851 0.59298 0.0
C725 C 0.77095 0.74735 0.62434 0.0
Fe726 Fe 0.6237 0.1942 0.95793 0.0
Fe727 Fe 0.6783 0.2849 1.01579 0.0
O728 O 0.68152 0.23564 0.96777 0.0
Fe729 Fe 0.74006 0.22937 0.92864 0.0
O730 O 0.70329 0.26476 0.87437 0.0
O731 O 0.6157 0.23844 0.8936 0.0
O732 O 0.57434 0.22964 0.99147 0.0
C733 C 0.57007 0.27817 0.9885 0.0
C734 C 0.69715 0.12813 0.92495 0.0
O735 O 0.6126 0.30938 0.9894 0.0
C736 C 0.76754 0.21921 1.0331 0.0
O737 O 0.63801 0.15854 1.02431 0.0
O738 O 0.64327 0.23796 0.06233 0.0
O739 O 0.72657 0.16345 0.90262 0.0
O740 O 0.64891 0.13727 0.92523 0.0
C741 C 0.76857 0.33396 0.96284 0.0
O742 O 0.73886 0.25951 1.04389 0.0
O743 O 0.77082 0.19837 0.98649 0.0
C744 C 0.64853 0.18725 0.06609 0.0
O745 O 0.71906 0.33988 0.9774 0.0
O746 O 0.77932 0.28967 0.94425 0.0
C747 C 0.65166 0.2727 0.87106 0.0
Fe748 Fe 0.40508 0.29226 1.0086 0.0
Fe749 Fe 0.35783 0.36118 0.91916 0.0
O750 O 0.40977 0.34781 0.96517 0.0
Fe751 Fe 0.46934 0.38677 0.96521 0.0
O752 O 0.51226 0.34353 0.99919 0.0
O753 O 0.47176 0.26651 0.98617 0.0
O754 O 0.36599 0.24563 0.96274 0.0
C755 C 0.31886 0.25667 0.94491 0.0
C756 C 0.43661 0.37894 0.0716 0.0
O757 O 0.31256 0.30304 0.9275 0.0
C758 C 0.4085 0.46423 0.91361 0.0
O759 O 0.34349 0.31951 1.03171 0.0
O760 O 0.32148 0.38893 0.97472 0.0
O761 O 0.45033 0.41255 1.03307 0.0
O762 O 0.43709 0.32881 0.06339 0.0
C763 C 0.44968 0.31724 0.87203 0.0
O764 O 0.37784 0.42859 0.89454 0.0
O765 O 0.44846 0.45072 0.9392 0.0
C766 C 0.31823 0.36261 1.02009 0.0
O767 O 0.39858 0.32704 0.86878 0.0
O768 O 0.48302 0.35074 0.89789 0.0
C769 C 0.51523 0.29596 0.99031 0.0
Fe770 Fe 0.85002 0.22467 0.16446 0.0
Fe771 Fe 0.90327 0.29385 0.07407 0.0
O772 O 0.90167 0.2491 0.12393 0.0
Fe773 Fe 0.94111 0.20089 0.13446 0.0
O774 O 0.9682 0.13971 0.15436 0.0
O775 O 0.88163 0.15561 0.17808 0.0
O776 O 0.81809 0.19649 0.10605 0.0
C777 C 0.8147 0.22353 0.06177 0.0
C778 C 0.93373 0.27254 0.22031 0.0
O779 O 0.8388 0.26915 0.05198 0.0
C780 C 1.01352 0.27378 0.09572 0.0
O781 O 0.8081 0.2826 0.15598 0.0
O782 O 0.86476 0.34304 0.11786 0.0
O783 O 0.96532 0.24015 0.19564 0.0
O784 O 0.8833 0.25923 0.22108 0.0
C785 C 0.92162 0.19872 1.02408 0.0
O786 O 0.97547 0.31028 0.09495 0.0
O787 O 1.00204 0.22465 0.10191 0.0
C788 C 0.81687 0.32986 0.13847 0.0
O789 O 0.9318 0.24888 1.02557 0.0
O790 O 0.92 0.17022 0.06841 0.0
C791 C 0.92107 0.12231 0.16999 0.0
Fe792 Fe 0.4641 0.46748 0.1983 0.0
Fe793 Fe 0.42352 0.3548 0.23648 0.0
O794 O 0.47098 0.40904 0.24111 0.0
Fe795 Fe 0.52492 0.40899 0.28705 0.0
O796 O 0.5018 0.47344 0.31553 0.0
O797 O 0.50414 0.51396 0.23573 0.0
O798 O 0.40481 0.4834 0.24334 0.0
C799 C 0.37431 0.44628 0.26611 0.0
C800 C 0.56938 0.43734 0.18803 0.0
O801 O 0.36844 0.40195 0.24117 0.0
C802 C 0.52578 0.31346 0.23411 0.0
O803 O 0.42203 0.43874 0.14555 0.0
O804 O 0.42876 0.35486 0.16341 0.0
O805 O 0.5683 0.44553 0.23859 0.0
O806 O 0.52681 0.44806 0.16009 0.0
C807 C 0.45272 0.32986 0.34035 0.0
O808 O 0.47507 0.30651 0.23306 0.0
O809 O 0.55009 0.35117 0.25775 0.0
C810 C 0.42909 0.39258 0.12923 0.0
O811 O 0.41516 0.34227 0.30849 0.0
O812 O 0.49362 0.36288 0.34229 0.0
C813 C 0.5026 0.51687 0.28546 0.0
Fe814 Fe 0.5745 0.17953 0.30094 0.0
Fe815 Fe 0.62924 0.14545 0.20355 0.0
O816 O 0.62089 0.18404 0.25319 0.0
Fe817 Fe 0.65823 0.23767 0.22737 0.0
O818 O 0.65494 0.27758 0.28742 0.0
O819 O 0.62277 0.218 0.34881 0.0
O820 O 0.59679 0.10791 0.31333 0.0
C821 C 0.59582 0.07053 0.27582 0.0
C822 C 0.55508 0.26811 0.23595 0.0
O823 O 0.59906 0.08293 0.22659 0.0
C824 C 0.65872 0.16782 0.12292 0.0
O825 O 0.52201 0.15175 0.25643 0.0
O826 O 0.56102 0.16375 0.17575 0.0
O827 O 0.59646 0.26658 0.20501 0.0
O828 O 0.55013 0.24368 0.28171 0.0
C829 C 0.72038 0.15802 0.27058 0.0
O830 O 0.64613 0.11999 0.14031 0.0
O831 O 0.66543 0.20761 0.15666 0.0
C832 C 0.51806 0.16165 0.20576 0.0
O833 O 0.69313 0.12445 0.24071 0.0
O834 O 0.71914 0.20766 0.25632 0.0
C835 C 0.64255 0.26657 0.33581 0.0
Fe836 Fe 0.42617 0.729 0.36706 0.0
Fe837 Fe 0.51857 0.68126 0.30618 0.0
O838 O 0.47022 0.67651 0.35699 0.0
Fe839 Fe 0.46446 0.61655 0.39517 0.0
O840 O 0.40081 0.60398 0.35194 0.0
O841 O 0.37624 0.689 0.32888 0.0
O842 O 0.43937 0.77319 0.30913 0.0
C843 C 0.4592 0.76734 0.26365 0.0
C844 C 0.41264 0.6777 0.46908 0.0
O845 O 0.47816 0.72085 0.25403 0.0
C846 C 0.57038 0.65115 0.4014 0.0
O847 O 0.48096 0.76504 0.3999 0.0
O848 O 0.54156 0.7421 0.33598 0.0
O849 O 0.43239 0.6351 0.45676 0.0
O850 O 0.39777 0.70931 0.4325 0.0
C851 C 0.50025 0.57116 0.30577 0.0
O852 O 0.56736 0.6493 0.35006 0.0
O853 O 0.5293 0.6349 0.43011 0.0
C854 C 0.52798 0.76829 0.37764 0.0
O855 O 0.49767 0.61488 0.27702 0.0
O856 O 0.50115 0.57308 0.35507 0.0
C857 C 0.37741 0.63827 0.31828 0.0
Fe858 Fe 0.6575 0.85323 0.36056 0.0
Fe859 Fe 0.56885 0.90114 0.29295 0.0
O860 O 0.61482 0.90583 0.3454 0.0
Fe861 Fe 0.61947 0.96512 0.38077 0.0
O862 O 0.68598 0.97683 0.33984 0.0
O863 O 0.70852 0.89103 0.31936 0.0
O864 O 0.64288 0.80642 0.30646 0.0
C865 C 0.6274 0.81226 0.25897 0.0
C866 C 0.664 0.90359 0.45909 0.0
O867 O 0.61233 0.86011 0.24543 0.0
C868 C 0.51249 0.9322 0.38351 0.0
O869 O 0.60139 0.8214 0.39658 0.0
O870 O 0.54439 0.84012 0.32711 0.0
O871 O 0.64686 0.94731 0.44545 0.0
O872 O 0.68602 0.87675 0.42358 0.0
C873 C 0.59056 1.01241 0.29024 0.0
O874 O 0.51628 0.93252 0.33217 0.0
O875 O 0.55326 0.94728 0.41243 0.0
C876 C 0.55486 0.81808 0.37377 0.0
O877 O 0.59233 0.96945 0.26131 0.0
O878 O 0.58334 1.00694 0.33839 0.0
C879 C 0.71079 0.9424 0.30849 0.0
Fe880 Fe 0.23499 0.42298 0.3583 0.0
Fe881 Fe 0.30405 0.51553 0.40197 0.0
O882 O 0.25006 0.46922 0.40897 0.0
Fe883 Fe 0.21317 0.46804 0.46904 0.0
O884 O 0.24973 0.40174 0.48325 0.0
O885 O 0.27269 0.37475 0.3989 0.0
O886 O 0.29132 0.43412 0.31164 0.0
C887 C 0.33745 0.45498 0.31492 0.0
C888 C 0.13359 0.41588 0.4093 0.0
O889 O 0.35109 0.47414 0.36078 0.0
C890 C 0.21631 0.57333 0.4338 0.0
O891 O 0.20247 0.4762 0.3222 0.0
O892 O 0.27035 0.53701 0.34119 0.0
O893 O 0.14804 0.44153 0.44879 0.0
O894 O 0.16916 0.39559 0.38083 0.0
C895 C 0.30768 0.49459 0.51242 0.0
O896 O 0.26716 0.56836 0.43426 0.0
O897 O 0.18507 0.53386 0.44971 0.0
C898 C 0.22611 0.52258 0.31711 0.0
O899 O 0.33613 0.49338 0.46862 0.0
O900 O 0.25968 0.50331 0.50866 0.0
C901 C 0.2823 0.37643 0.45029 0.0
Fe902 Fe 0.89095 0.12831 0.44321 0.0
Fe903 Fe 0.86693 0.16389 0.35264 0.0
O904 O 0.84135 0.12182 0.4027 0.0
Fe905 Fe 0.79428 0.07369 0.40254 0.0
O906 O 0.78007 0.09252 0.4748 0.0
O907 O 0.8666 0.09402 0.50277 0.0
O908 O 0.85451 0.18939 0.46877 0.0
C909 C 0.82346 0.21715 0.43713 0.0
C910 C 0.88832 1.01941 0.42037 0.0
O911 O 0.83654 0.21987 0.3871 0.0
C912 C 0.86136 0.06456 0.31339 0.0
O913 O 0.95346 0.14398 0.47233 0.0
O914 O 0.93772 0.17214 0.38592 0.0
O915 O 0.83803 1.02222 0.42998 0.0
O916 O 0.9186 0.06259 0.42058 0.0
C917 C 0.75889 0.14255 0.31724 0.0
O918 O 0.89126 0.10661 0.31904 0.0
O919 O 0.81644 0.05412 0.33786 0.0
C920 C 0.97125 0.16092 0.42595 0.0
O921 O 0.80671 0.16055 0.30993 0.0
O922 O 0.74583 0.11994 0.36439 0.0
C923 C 0.81718 0.09131 0.51348 0.0
Fe924 Fe 0.21165 0.61361 0.12174 0.0
Fe925 Fe 0.23759 0.64978 0.23445 0.0
O926 O 0.25042 0.60885 0.1795 0.0
Fe927 Fe 0.30306 0.56495 0.18156 0.0
O928 O 0.3326 0.59057 0.11414 0.0
O929 O 0.25375 0.58543 0.07545 0.0
O930 O 0.24996 0.68294 0.11329 0.0
C931 C 0.28513 0.70607 0.14715 0.0
C932 C 0.21374 0.50572 0.14812 0.0
O933 O 0.27869 0.7013 0.19898 0.0
C934 C 0.22505 0.54757 0.26656 0.0
O935 O 0.14865 0.63318 0.14781 0.0
O936 O 0.17542 0.6807 0.21278 0.0
O937 O 0.26456 0.51316 0.14684 0.0
O938 O 0.18281 0.54466 0.13566 0.0
C939 C 0.33917 0.62086 0.27277 0.0
O940 O 0.20139 0.59281 0.26404 0.0
O941 O 0.27012 0.53801 0.24218 0.0
C942 C 0.13765 0.65902 0.18723 0.0
O943 O 0.29194 0.63389 0.28056 0.0
O944 O 0.35123 0.60846 0.22382 0.0
C945 C 0.3025 0.58974 0.07113 0.0
Fe946 Fe 0.86258 0.93453 0.24059 0.0
Fe947 Fe 0.79986 1.01823 0.1761 0.0
O948 O 0.84205 0.96872 0.18391 0.0
Fe949 Fe 0.89293 0.95616 0.14687 0.0
O950 O 0.85365 0.89229 0.12931 0.0
O951 O 0.83042 0.8736 0.21408 0.0
O952 O 0.80046 0.9444 0.27889 0.0
C953 C 0.75378 0.95942 0.26586 0.0
C954 C 0.96888 0.92456 0.17228 0.0
O955 O 0.74545 0.97735 0.21622 0.0
C956 C 0.90037 0.06684 0.15695 0.0
O957 O 0.89035 0.99603 0.266 0.0
O958 O 0.82051 0.04592 0.23844 0.0
O959 O 0.95508 0.93556 0.12317 0.0
O960 O 0.93322 0.92107 0.21199 0.0
C961 C 0.823 0.98866 0.06976 0.0
O962 O 0.85054 0.06374 0.14403 0.0
O963 O 0.92631 1.0233 0.16317 0.0
C964 C 0.86361 1.03877 0.26565 0.0
O965 O 0.78555 0.99155 0.10748 0.0
O966 O 0.87211 0.9829 0.08167 0.0
C967 C 0.82139 0.86748 0.16383 0.0
Fe968 Fe 0.35402 0.23275 0.44089 0.0
Fe969 Fe 0.41365 0.29734 0.52594 0.0
O970 O 0.41177 0.24615 0.47959 0.0
Fe971 Fe 0.46968 0.20968 0.47127 0.0
O972 O 0.47807 0.25407 0.40601 0.0
O973 O 0.38941 0.26946 0.38511 0.0
O974 O 0.31361 0.29019 0.4554 0.0
C975 C 0.32458 0.33681 0.46942 0.0
C976 C 0.40045 0.1348 0.43756 0.0
O977 O 0.37406 0.34726 0.48322 0.0
C978 C 0.4424 0.20342 0.57954 0.0
O979 O 0.3244 0.20008 0.49971 0.0
O980 O 0.35155 0.26802 0.55338 0.0
O981 O 0.44826 0.14885 0.43958 0.0
O982 O 0.36988 0.16774 0.41616 0.0
C983 C 0.52404 0.2957 0.50247 0.0
O984 O 0.44593 0.25453 0.57642 0.0
O985 O 0.45395 0.17523 0.53781 0.0
C986 C 0.32582 0.22312 0.54531 0.0
O987 O 0.48213 0.32566 0.50071 0.0
O988 O 0.51701 0.24753 0.50717 0.0
C989 C 0.44059 0.28225 0.38049 0.0
Fe990 Fe 0.47185 0.88997 0.13575 0.0
Fe991 Fe 0.35549 0.85477 0.16505 0.0
O992 O 0.41403 0.84852 0.12592 0.0
Fe993 Fe 0.41725 0.79926 0.0779 0.0
O994 O 0.48295 0.77479 0.10429 0.0
O995 O 0.52121 0.85453 0.10222 0.0
O996 O 0.47986 0.84574 0.20008 0.0
C997 C 0.44391 0.81147 0.22264 0.0
C998 C 0.447 0.89691 1.0276 0.0
O999 O 0.39227 0.81939 0.21931 0.0
C1000 C 0.328 0.86493 0.06059 0.0
O1001 O 0.44663 0.9469 0.16845 0.0
O1002 O 0.36897 0.9207 0.19107 0.0
O1003 O 0.45228 0.84621 1.03136 0.0
O1004 O 0.45754 0.92562 0.06938 0.0
C1005 C 0.32697 0.7502 0.13079 0.0
O1006 O 0.32472 0.88577 0.1072 0.0
O1007 O 0.3567 0.82464 0.04979 0.0
C1008 C 0.39838 0.95602 0.16874 0.0
O1009 O 0.31623 0.79447 0.14944 0.0
O1010 O 0.3765 0.74429 0.11629 0.0
C1011 C 0.52548 0.80601 0.10517 0.0
Fe1012 Fe 0.69046 0.79191 0.08508 0.0
Fe1013 Fe 0.62621 0.69739 0.12846 0.0
O1014 O 0.68577 0.73636 0.12851 0.0
Fe1015 Fe 0.7377 0.72299 0.17452 0.0
O1016 O 0.78298 0.78113 0.16618 0.0
O1017 O 0.72956 0.83853 0.13095 0.0
O1018 O 0.62378 0.81766 0.10752 0.0
C1019 C 0.58032 0.78821 0.10337 0.0
C1020 C 0.77732 0.72157 0.0736 0.0
O1021 O 0.58328 0.74064 0.0945 0.0
C1022 C 0.68705 0.61994 0.18008 0.0
O1023 O 0.65844 0.75537 1.03029 0.0
O1024 O 0.64521 0.67162 0.0606 0.0
O1025 O 0.77405 0.69524 0.11896 0.0
O1026 O 0.75205 0.76466 0.06197 0.0
C1027 C 0.64584 0.76691 0.22166 0.0
O1028 O 0.6471 0.63344 0.15445 0.0
O1029 O 0.71769 0.65559 0.19917 0.0
C1030 C 0.65894 0.70524 1.02208 0.0
O1031 O 0.61252 0.73341 0.19579 0.0
O1032 O 0.69695 0.75715 0.22489 0.0
C1033 C 0.7767 0.82749 0.14874 0.0
Fe1034 Fe 0.19227 0.79033 1.01961 0.0
Fe1035 Fe 0.15443 0.88329 0.95922 0.0
O1036 O 0.19388 0.83508 0.96975 0.0
Fe1037 Fe 0.24553 0.85951 0.92922 0.0
O1038 O 0.28746 0.80158 0.9377 0.0
O1039 O 0.23079 0.74114 0.97582 0.0
O1040 O 0.12008 0.7739 0.99872 0.0
C1041 C 0.08203 0.81039 0.99796 0.0
C1042 C 0.28084 0.86065 1.03193 0.0
O1043 O 0.0935 0.85952 0.99177 0.0
C1044 C 0.17446 0.96185 0.92366 0.0
O1045 O 0.16374 0.8353 0.0681 0.0
O1046 O 0.17555 0.91396 1.02528 0.0
O1047 O 0.27747 0.88769 0.98764 0.0
O1048 O 0.25674 0.81503 1.0417 0.0
C1049 C 0.16181 0.81164 0.87338 0.0
O1050 O 0.12734 0.94448 0.93933 0.0
O1051 O 0.21392 0.92857 0.9156 0.0
C1052 C 0.17392 0.88546 0.0696 0.0
O1053 O 0.13022 0.84403 0.89804 0.0
O1054 O 0.21225 0.82494 0.87261 0.0
C1055 C 0.27868 0.75433 0.9552 0.0
loop_
_geom_bond_atom_site_label_1
_geom_bond_atom_site_label_2
_geom_bond_distance
_geom_bond_site_symmetry_2
_ccdc_geom_bond_type
Fe0 O2 1.918 1_655 S
Fe0 O5 1.997 1_655 S
Fe0 O6 2.002 1_655 S
Fe0 O11 1.976 . S
Fe0 O14 1.996 . S
Fe1 O2 1.918 . S
Fe1 O9 1.997 . S
Fe1 O12 1.996 . S
Fe1 O16 1.976 . S
Fe1 O19 2.002 . S
O2 Fe0 1.918 1_455 S
O2 Fe1 1.918 . S
O2 Fe3 1.918 . S
Fe3 O2 1.918 . S
Fe3 O4 2.002 . S
Fe3 O13 1.988 . S
Fe3 O17 1.996 . S
Fe3 O20 1.997 . S
O4 Fe3 2.002 . S
O4 C21 1.295 . S
O5 Fe0 1.997 1_455 S
O5 C21 1.235 . S
O6 Fe0 2.002 1_455 S
O6 C7 1.295 . S
C7 O6 1.295 . S
C7 O9 1.235 . S
C8 O13 1.275 1_655 S
C8 O14 1.255 . S
O9 Fe1 1.997 . S
O9 C7 1.235 . S
C10 O16 1.287 . S
C10 O17 1.255 . S
O11 Fe0 1.976 . S
O11 C18 1.287 1_655 S
O12 Fe1 1.996 . S
O12 C18 1.255 . S
O13 Fe3 1.988 . S
O13 C8 1.275 1_455 S
O14 Fe0 1.996 . S
O14 C8 1.255 . S
C15 O19 1.295 . S
C15 O20 1.235 . S
O16 Fe1 1.976 . S
O16 C10 1.287 . S
O17 Fe3 1.996 . S
O17 C10 1.255 . S
C18 O11 1.287 1_455 S
C18 O12 1.255 . S
O19 Fe1 2.002 . S
O19 C15 1.295 . S
O20 Fe3 1.997 . S
O20 C15 1.235 . S
C21 O4 1.295 . S
C21 O5 1.235 . S
Fe22 O24 1.918 . S
Fe22 O27 1.997 . S
Fe22 O28 2.002 . S
Fe22 O33 1.991 . S
Fe22 O36 1.996 . S
Fe23 O24 1.918 1_455 S
Fe23 O31 1.997 1_455 S
Fe23 O34 1.996 . S
Fe23 O38 1.976 . S
Fe23 O41 2.002 1_455 S
O24 Fe22 1.918 . S
O24 Fe23 1.918 1_655 S
O24 Fe25 1.918 . S
Fe25 O24 1.918 . S
Fe25 O26 2.002 . S
Fe25 O35 1.976 . S
Fe25 O39 1.996 . S
Fe25 O42 1.997 . S
O26 Fe25 2.002 . S
O26 C43 1.295 . S
O27 Fe22 1.997 . S
O27 C43 1.235 . S
O28 Fe22 2.002 . S
O28 C29 1.295 . S
C29 O28 1.295 . S
C29 O31 1.235 . S
C30 O35 1.287 . S
C30 O36 1.255 . S
O31 Fe23 1.997 1_655 S
O31 C29 1.235 . S
C32 O38 1.287 1_655 S
C32 O39 1.255 . S
O33 Fe22 1.991 . S
O33 C40 1.272 1_655 S
O34 Fe23 1.996 . S
O34 C40 1.255 . S
O35 Fe25 1.976 . S
O35 C30 1.287 . S
O36 Fe22 1.996 . S
O36 C30 1.255 . S
C37 O41 1.295 . S
C37 O42 1.235 . S
O38 Fe23 1.976 . S
O38 C32 1.287 1_455 S
O39 Fe25 1.996 . S
O39 C32 1.255 . S
C40 O33 1.272 1_455 S
C40 O34 1.255 . S
O41 Fe23 2.002 1_655 S
O41 C37 1.295 . S
O42 Fe25 1.997 . S
O42 C37 1.235 . S
C43 O26 1.295 . S
C43 O27 1.235 . S
Fe44 O46 1.918 1_655 S
Fe44 O49 1.997 1_655 S
Fe44 O50 2.002 1_655 S
Fe44 O55 1.976 . S
Fe44 O58 1.996 . S
Fe45 O46 1.918 . S
Fe45 O53 1.997 . S
Fe45 O56 1.996 . S
Fe45 O60 1.976 . S
Fe45 O63 2.002 . S
O46 Fe44 1.918 1_455 S
O46 Fe45 1.918 . S
O46 Fe47 1.918 . S
Fe47 O46 1.918 . S
Fe47 O48 2.002 . S
Fe47 O57 1.991 . S
Fe47 O61 1.996 . S
Fe47 O64 1.997 . S
O48 Fe47 2.002 . S
O48 C65 1.295 . S
O49 Fe44 1.997 1_455 S
O49 C65 1.235 . S
O50 Fe44 2.002 1_455 S
O50 C51 1.295 . S
C51 O50 1.295 . S
C51 O53 1.235 . S
C52 O57 1.272 1_655 S
C52 O58 1.255 . S
O53 Fe45 1.997 . S
O53 C51 1.235 . S
C54 O60 1.287 . S
C54 O61 1.255 . S
O55 Fe44 1.976 . S
O55 C62 1.287 1_655 S
O56 Fe45 1.996 . S
O56 C62 1.255 . S
O57 Fe47 1.991 . S
O57 C52 1.272 1_455 S
O58 Fe44 1.996 . S
O58 C52 1.255 . S
C59 O63 1.295 . S
C59 O64 1.235 . S
O60 Fe45 1.976 . S
O60 C54 1.287 . S
O61 Fe47 1.996 . S
O61 C54 1.255 . S
C62 O55 1.287 1_455 S
C62 O56 1.255 . S
O63 Fe45 2.002 . S
O63 C59 1.295 . S
O64 Fe47 1.997 . S
O64 C59 1.235 . S
C65 O48 1.295 . S
C65 O49 1.235 . S
Fe66 O68 1.918 . S
Fe66 O71 1.997 . S
Fe66 O72 2.002 . S
Fe66 O77 1.976 . S
Fe66 O80 1.996 . S
Fe67 O68 1.918 . S
Fe67 O75 1.997 . S
Fe67 O78 1.996 . S
Fe67 O82 1.989 . S
Fe67 O85 2.002 . S
O68 Fe66 1.918 . S
O68 Fe67 1.918 . S
O68 Fe69 1.918 1_655 S
Fe69 O68 1.918 1_455 S
Fe69 O70 2.002 1_455 S
Fe69 O79 1.976 . S
Fe69 O83 1.996 . S
Fe69 O86 1.997 1_455 S
O70 Fe69 2.002 1_655 S
O70 C87 1.295 . S
O71 Fe66 1.997 . S
O71 C87 1.235 . S
O72 Fe66 2.002 . S
O72 C73 1.295 . S
C73 O72 1.295 . S
C73 O75 1.235 . S
C74 O79 1.287 1_655 S
C74 O80 1.255 . S
O75 Fe67 1.997 . S
O75 C73 1.235 . S
C76 O82 1.274 1_455 S
C76 O83 1.255 . S
O77 Fe66 1.976 . S
O77 C84 1.287 . S
O78 Fe67 1.996 . S
O78 C84 1.255 . S
O79 Fe69 1.976 . S
O79 C74 1.287 1_455 S
O80 Fe66 1.996 . S
O80 C74 1.255 . S
C81 O85 1.295 . S
C81 O86 1.235 . S
O82 Fe67 1.989 . S
O82 C76 1.274 1_655 S
O83 Fe69 1.996 . S
O83 C76 1.255 . S
C84 O77 1.287 . S
C84 O78 1.255 . S
O85 Fe67 2.002 . S
O85 C81 1.295 . S
O86 Fe69 1.997 1_655 S
O86 C81 1.235 . S
C87 O70 1.295 . S
C87 O71 1.235 . S
Fe88 O90 1.918 . S
Fe88 O93 1.997 . S
Fe88 O94 2.002 . S
Fe88 O99 1.976 . S
Fe88 O102 1.996 . S
Fe89 O90 1.918 . S
Fe89 O97 1.997 . S
Fe89 O100 1.996 . S
Fe89 O104 1.982 . S
Fe89 O107 2.002 . S
O90 Fe88 1.918 . S
O90 Fe89 1.918 . S
O90 Fe91 1.918 1_545 S
Fe91 O90 1.918 1_565 S
Fe91 O92 2.002 1_565 S
Fe91 O101 1.976 . S
Fe91 O105 1.996 . S
Fe91 O108 1.997 1_565 S
O92 Fe91 2.002 1_545 S
O92 C109 1.295 . S
O93 Fe88 1.997 . S
O93 C109 1.235 . S
O94 Fe88 2.002 . S
O94 C95 1.295 . S
C95 O94 1.295 . S
C95 O97 1.235 . S
C96 O101 1.287 1_545 S
C96 O102 1.255 . S
O97 Fe89 1.997 . S
O97 C95 1.235 . S
C98 O104 1.281 1_565 S
C98 O105 1.255 . S
O99 Fe88 1.976 . S
O99 C106 1.287 . S
O100 Fe89 1.996 . S
O100 C106 1.255 . S
O101 Fe91 1.976 . S
O101 C96 1.287 1_565 S
O102 Fe88 1.996 . S
O102 C96 1.255 . S
C103 O107 1.295 . S
C103 O108 1.235 . S
O104 Fe89 1.982 . S
O104 C98 1.281 1_545 S
O105 Fe91 1.996 . S
O105 C98 1.255 . S
C106 O99 1.287 . S
C106 O100 1.255 . S
O107 Fe89 2.002 . S
O107 C103 1.295 . S
O108 Fe91 1.997 1_545 S
O108 C103 1.235 . S
C109 O92 1.295 . S
C109 O93 1.235 . S
Fe110 O112 1.918 . S
Fe110 O115 1.997 . S
Fe110 O116 2.002 . S
Fe110 O121 1.976 . S
Fe110 O124 1.996 . S
Fe111 O112 1.918 . S
Fe111 O119 1.997 . S
Fe111 O122 1.996 . S
Fe111 O126 1.976 . S
Fe111 O129 2.002 . S
O112 Fe110 1.918 . S
O112 Fe111 1.918 . S
O112 Fe113 1.918 . S
Fe113 O112 1.918 . S
Fe113 O114 2.002 . S
Fe113 O123 1.976 . S
Fe113 O127 1.996 . S
Fe113 O130 1.997 . S
O114 Fe113 2.002 . S
O114 C131 1.295 . S
O115 Fe110 1.997 . S
O115 C131 1.235 . S
O116 Fe110 2.002 . S
O116 C117 1.295 . S
C117 O116 1.295 . S
C117 O119 1.235 . S
C118 O123 1.287 . S
C118 O124 1.255 . S
O119 Fe111 1.997 . S
O119 C117 1.235 . S
C120 O126 1.287 . S
C120 O127 1.255 . S
O121 Fe110 1.976 . S
O121 C128 1.287 . S
O122 Fe111 1.996 . S
O122 C128 1.255 . S
O123 Fe113 1.976 . S
O123 C118 1.287 . S
O124 Fe110 1.996 . S
O124 C118 1.255 . S
C125 O129 1.295 . S
C125 O130 1.235 . S
O126 Fe111 1.976 . S
O126 C120 1.287 . S
O127 Fe113 1.996 . S
O127 C120 1.255 . S
C128 O121 1.287 . S
C128 O122 1.255 . S
O129 Fe111 2.002 . S
O129 C125 1.295 . S
O130 Fe113 1.997 . S
O130 C125 1.235 . S
C131 O114 1.295 . S
C131 O115 1.235 . S
Fe132 O134 1.918 1_545 S
Fe132 O137 1.997 1_545 S
Fe132 O138 2.002 1_545 S
Fe132 O143 1.976 . S
Fe132 O146 1.996 . S
Fe133 O134 1.918 . S
Fe133 O141 1.997 . S
Fe133 O144 1.996 . S
Fe133 O148 1.976 . S
Fe133 O151 2.002 . S
O134 Fe132 1.918 1_565 S
O134 Fe133 1.918 . S
O134 Fe135 1.918 . S
Fe135 O134 1.918 . S
Fe135 O136 2.002 . S
Fe135 O145 1.980 . S
Fe135 O149 1.996 . S
Fe135 O152 1.997 . S
O136 Fe135 2.002 . S
O136 C153 1.295 . S
O137 Fe132 1.997 1_565 S
O137 C153 1.235 . S
O138 Fe132 2.002 1_565 S
O138 C139 1.295 . S
C139 O138 1.295 . S
C139 O141 1.235 . S
C140 O145 1.282 1_545 S
C140 O146 1.255 . S
O141 Fe133 1.997 . S
O141 C139 1.235 . S
C142 O148 1.287 . S
C142 O149 1.255 . S
O143 Fe132 1.976 . S
O143 C150 1.287 1_545 S
O144 Fe133 1.996 . S
O144 C150 1.255 . S
O145 Fe135 1.980 . S
O145 C140 1.282 1_565 S
O146 Fe132 1.996 . S
O146 C140 1.255 . S
C147 O151 1.295 . S
C147 O152 1.235 . S
O148 Fe133 1.976 . S
O148 C142 1.287 . S
O149 Fe135 1.996 . S
O149 C142 1.255 . S
C150 O143 1.287 1_565 S
C150 O144 1.255 . S
O151 Fe133 2.002 . S
O151 C147 1.295 . S
O152 Fe135 1.997 . S
O152 C147 1.235 . S
C153 O136 1.295 . S
C153 O137 1.235 . S
Fe154 O156 1.918 . S
Fe154 O159 1.997 . S
Fe154 O160 2.002 . S
Fe154 O165 1.976 . S
Fe154 O168 1.996 . S
Fe155 O156 1.918 . S
Fe155 O163 1.997 . S
Fe155 O166 1.996 . S
Fe155 O170 1.976 . S
Fe155 O173 2.002 . S
O156 Fe154 1.918 . S
O156 Fe155 1.918 . S
O156 Fe157 1.918 . S
Fe157 O156 1.918 . S
Fe157 O158 2.002 . S
Fe157 O167 1.976 . S
Fe157 O171 1.996 . S
Fe157 O174 1.997 . S
O158 Fe157 2.002 . S
O158 C175 1.295 . S
O159 Fe154 1.997 . S
O159 C175 1.235 . S
O160 Fe154 2.002 . S
O160 C161 1.295 . S
C161 O160 1.295 . S
C161 O163 1.235 . S
C162 O167 1.287 . S
C162 O168 1.255 . S
O163 Fe155 1.997 . S
O163 C161 1.235 . S
C164 O170 1.287 . S
C164 O171 1.255 . S
O165 Fe154 1.976 . S
O165 C172 1.287 . S
O166 Fe155 1.996 . S
O166 C172 1.255 . S
O167 Fe157 1.976 . S
O167 C162 1.287 . S
O168 Fe154 1.996 . S
O168 C162 1.255 . S
C169 O173 1.295 . S
C169 O174 1.235 . S
O170 Fe155 1.976 . S
O170 C164 1.287 . S
O171 Fe157 1.996 . S
O171 C164 1.255 . S
C172 O165 1.287 . S
C172 O166 1.255 . S
O173 Fe155 2.002 . S
O173 C169 1.295 . S
O174 Fe157 1.997 . S
O174 C169 1.235 . S
C175 O158 1.295 . S
C175 O159 1.235 . S
Fe176 O178 1.918 . S
Fe176 O181 1.997 . S
Fe176 O182 2.002 . S
Fe176 O187 1.976 . S
Fe176 O190 1.996 . S
Fe177 O178 1.918 . S
Fe177 O185 1.997 . S
Fe177 O188 1.996 . S
Fe177 O192 1.972 1_554 S
Fe177 O195 2.002 . S
O178 Fe176 1.918 . S
O178 Fe177 1.918 . S
O178 Fe179 1.918 1_554 S
Fe179 O178 1.918 1_556 S
Fe179 O180 2.002 1_556 S
Fe179 O189 1.976 . S
Fe179 O193 1.996 . S
Fe179 O196 1.997 1_556 S
O180 Fe179 2.002 1_554 S
O180 C197 1.295 . S
O181 Fe176 1.997 . S
O181 C197 1.235 . S
O182 Fe176 2.002 . S
O182 C183 1.295 . S
C183 O182 1.295 . S
C183 O185 1.235 . S
C184 O189 1.287 1_554 S
C184 O190 1.255 . S
O185 Fe177 1.997 . S
O185 C183 1.235 . S
C186 O192 1.290 . S
C186 O193 1.255 . S
O187 Fe176 1.976 . S
O187 C194 1.287 . S
O188 Fe177 1.996 . S
O188 C194 1.255 . S
O189 Fe179 1.976 . S
O189 C184 1.287 1_556 S
O190 Fe176 1.996 . S
O190 C184 1.255 . S
C191 O195 1.295 . S
C191 O196 1.235 . S
O192 Fe177 1.972 1_556 S
O192 C186 1.290 . S
O193 Fe179 1.996 . S
O193 C186 1.255 . S
C194 O187 1.287 . S
C194 O188 1.255 . S
O195 Fe177 2.002 . S
O195 C191 1.295 . S
O196 Fe179 1.997 1_554 S
O196 C191 1.235 . S
C197 O180 1.295 . S
C197 O181 1.235 . S
Fe198 O200 1.918 . S
Fe198 O203 1.997 . S
Fe198 O204 2.002 . S
Fe198 O209 1.976 . S
Fe198 O212 1.996 . S
Fe199 O200 1.918 . S
Fe199 O207 1.997 . S
Fe199 O210 1.996 . S
Fe199 O214 1.976 . S
Fe199 O217 2.002 . S
O200 Fe198 1.918 . S
O200 Fe199 1.918 . S
O200 Fe201 1.918 . S
Fe201 O200 1.918 . S
Fe201 O202 2.002 . S
Fe201 O211 1.976 . S
Fe201 O215 1.996 . S
Fe201 O218 1.997 . S
O202 Fe201 2.002 . S
O202 C219 1.295 . S
O203 Fe198 1.997 . S
O203 C219 1.235 . S
O204 Fe198 2.002 . S
O204 C205 1.295 . S
C205 O204 1.295 . S
C205 O207 1.235 . S
C206 O211 1.287 . S
C206 O212 1.255 . S
O207 Fe199 1.997 . S
O207 C205 1.235 . S
C208 O214 1.287 . S
C208 O215 1.255 . S
O209 Fe198 1.976 . S
O209 C216 1.287 . S
O210 Fe199 1.996 . S
O210 C216 1.255 . S
O211 Fe201 1.976 . S
O211 C206 1.287 . S
O212 Fe198 1.996 . S
O212 C206 1.255 . S
C213 O217 1.295 . S
C213 O218 1.235 . S
O214 Fe199 1.976 . S
O214 C208 1.287 . S
O215 Fe201 1.996 . S
O215 C208 1.255 . S
C216 O209 1.287 . S
C216 O210 1.255 . S
O217 Fe199 2.002 . S
O217 C213 1.295 . S
O218 Fe201 1.997 . S
O218 C213 1.235 . S
C219 O202 1.295 . S
C219 O203 1.235 . S
Fe220 O222 1.918 . S
Fe220 O225 1.997 . S
Fe220 O226 2.002 . S
Fe220 O231 1.976 . S
Fe220 O234 1.996 . S
Fe221 O222 1.918 . S
Fe221 O229 1.997 . S
Fe221 O232 1.996 . S
Fe221 O236 1.976 . S
Fe221 O239 2.002 . S
O222 Fe220 1.918 . S
O222 Fe221 1.918 . S
O222 Fe223 1.918 . S
Fe223 O222 1.918 . S
Fe223 O224 2.002 . S
Fe223 O233 1.976 . S
Fe223 O237 1.996 . S
Fe223 O240 1.997 . S
O224 Fe223 2.002 . S
O224 C241 1.295 . S
O225 Fe220 1.997 . S
O225 C241 1.235 . S
O226 Fe220 2.002 . S
O226 C227 1.295 . S
C227 O226 1.295 . S
C227 O229 1.235 . S
C228 O233 1.287 . S
C228 O234 1.255 . S
O229 Fe221 1.997 . S
O229 C227 1.235 . S
C230 O236 1.287 . S
C230 O237 1.255 . S
O231 Fe220 1.976 . S
O231 C238 1.287 . S
O232 Fe221 1.996 . S
O232 C238 1.255 . S
O233 Fe223 1.976 . S
O233 C228 1.287 . S
O234 Fe220 1.996 . S
O234 C228 1.255 . S
C235 O239 1.295 . S
C235 O240 1.235 . S
O236 Fe221 1.976 . S
O236 C230 1.287 . S
O237 Fe223 1.996 . S
O237 C230 1.255 . S
C238 O231 1.287 . S
C238 O232 1.255 . S
O239 Fe221 2.002 . S
O239 C235 1.295 . S
O240 Fe223 1.997 . S
O240 C235 1.235 . S
C241 O224 1.295 . S
C241 O225 1.235 . S
Fe242 O244 1.918 . S
Fe242 O247 1.997 . S
Fe242 O248 2.002 . S
Fe242 O253 1.976 . S
Fe242 O256 1.996 . S
Fe243 O244 1.918 . S
Fe243 O251 1.997 . S
Fe243 O254 1.996 . S
Fe243 O258 1.976 . S
Fe243 O261 2.002 . S
O244 Fe242 1.918 . S
O244 Fe243 1.918 . S
O244 Fe245 1.918 . S
Fe245 O244 1.918 . S
Fe245 O246 2.002 . S
Fe245 O255 1.976 . S
Fe245 O259 1.996 . S
Fe245 O262 1.997 . S
O246 Fe245 2.002 . S
O246 C263 1.295 . S
O247 Fe242 1.997 . S
O247 C263 1.235 . S
O248 Fe242 2.002 . S
O248 C249 1.295 . S
C249 O248 1.295 . S
C249 O251 1.235 . S
C250 O255 1.287 . S
C250 O256 1.255 . S
O251 Fe243 1.997 . S
O251 C249 1.235 . S
C252 O258 1.287 . S
C252 O259 1.255 . S
O253 Fe242 1.976 . S
O253 C260 1.287 . S
O254 Fe243 1.996 . S
O254 C260 1.255 . S
O255 Fe245 1.976 . S
O255 C250 1.287 . S
O256 Fe242 1.996 . S
O256 C250 1.255 . S
C257 O261 1.295 . S
C257 O262 1.235 . S
O258 Fe243 1.976 . S
O258 C252 1.287 . S
O259 Fe245 1.996 . S
O259 C252 1.255 . S
C260 O253 1.287 . S
C260 O254 1.255 . S
O261 Fe243 2.002 . S
O261 C257 1.295 . S
O262 Fe245 1.997 . S
O262 C257 1.235 . S
C263 O246 1.295 . S
C263 O247 1.235 . S
Fe264 O266 1.918 . S
Fe264 O269 1.997 . S
Fe264 O270 2.002 . S
Fe264 O275 1.976 . S
Fe264 O278 1.996 . S
Fe265 O266 1.918 1_455 S
Fe265 O273 1.997 1_455 S
Fe265 O276 1.996 . S
Fe265 O280 1.976 . S
Fe265 O283 2.002 1_455 S
O266 Fe264 1.918 . S
O266 Fe265 1.918 1_655 S
O266 Fe267 1.918 . S
Fe267 O266 1.918 . S
Fe267 O268 2.002 . S
Fe267 O277 1.976 . S
Fe267 O281 2.001 . S
Fe267 O284 1.997 . S
O268 Fe267 2.002 . S
O268 C285 1.295 . S
O269 Fe264 1.997 . S
O269 C285 1.235 . S
O270 Fe264 2.002 . S
O270 C271 1.295 . S
C271 O270 1.295 . S
C271 O273 1.235 . S
C272 O277 1.287 . S
C272 O278 1.255 . S
O273 Fe265 1.997 1_655 S
O273 C271 1.235 . S
C274 O280 1.287 . S
C274 O281 1.250 1_455 S
O275 Fe264 1.976 . S
O275 C282 1.299 . S
O276 Fe265 1.996 . S
O276 C282 1.248 1_455 S
O277 Fe267 1.976 . S
O277 C272 1.287 . S
O278 Fe264 1.996 . S
O278 C272 1.255 . S
C279 O283 1.295 . S
C279 O284 1.235 . S
O280 Fe265 1.976 . S
O280 C274 1.287 . S
O281 Fe267 2.001 . S
O281 C274 1.250 1_655 S
C282 O275 1.299 . S
C282 O276 1.248 1_655 S
O283 Fe265 2.002 1_655 S
O283 C279 1.295 . S
O284 Fe267 1.997 . S
O284 C279 1.235 . S
C285 O268 1.295 . S
C285 O269 1.235 . S
Fe286 O288 1.918 . S
Fe286 O291 1.997 . S
Fe286 O292 2.002 . S
Fe286 O297 1.976 . S
Fe286 O300 1.996 . S
Fe287 O288 1.918 1_655 S
Fe287 O295 1.997 1_655 S
Fe287 O298 1.996 . S
Fe287 O302 1.976 . S
Fe287 O305 2.002 1_655 S
O288 Fe286 1.918 . S
O288 Fe287 1.918 1_455 S
O288 Fe289 1.918 . S
Fe289 O288 1.918 . S
Fe289 O290 2.002 . S
Fe289 O299 1.976 . S
Fe289 O303 2.001 . S
Fe289 O306 1.997 . S
O290 Fe289 2.002 . S
O290 C307 1.295 . S
O291 Fe286 1.997 . S
O291 C307 1.235 . S
O292 Fe286 2.002 . S
O292 C293 1.295 . S
C293 O292 1.295 . S
C293 O295 1.235 . S
C294 O299 1.287 . S
C294 O300 1.255 . S
O295 Fe287 1.997 1_455 S
O295 C293 1.235 . S
C296 O302 1.287 . S
C296 O303 1.250 1_655 S
O297 Fe286 1.976 . S
O297 C304 1.302 . S
O298 Fe287 1.996 . S
O298 C304 1.246 1_655 S
O299 Fe289 1.976 . S
O299 C294 1.287 . S
O300 Fe286 1.996 . S
O300 C294 1.255 . S
C301 O305 1.295 . S
C301 O306 1.235 . S
O302 Fe287 1.976 . S
O302 C296 1.287 . S
O303 Fe289 2.001 . S
O303 C296 1.250 1_455 S
C304 O297 1.302 . S
C304 O298 1.246 1_455 S
O305 Fe287 2.002 1_455 S
O305 C301 1.295 . S
O306 Fe289 1.997 . S
O306 C301 1.235 . S
C307 O290 1.295 . S
C307 O291 1.235 . S
Fe308 O310 1.918 . S
Fe308 O313 1.997 . S
Fe308 O314 2.002 . S
Fe308 O319 1.976 . S
Fe308 O322 1.996 . S
Fe309 O310 1.918 . S
Fe309 O317 1.997 . S
Fe309 O320 1.996 . S
Fe309 O324 1.976 . S
Fe309 O327 2.002 . S
O310 Fe308 1.918 . S
O310 Fe309 1.918 . S
O310 Fe311 1.918 1_655 S
Fe311 O310 1.918 1_455 S
Fe311 O312 2.002 1_455 S
Fe311 O321 1.976 . S
Fe311 O325 1.996 . S
Fe311 O328 1.997 1_455 S
O312 Fe311 2.002 1_655 S
O312 C329 1.295 . S
O313 Fe308 1.997 . S
O313 C329 1.235 . S
O314 Fe308 2.002 . S
O314 C315 1.295 . S
C315 O314 1.295 . S
C315 O317 1.235 . S
C316 O321 1.287 . S
C316 O322 1.255 1_455 S
O317 Fe309 1.997 . S
O317 C315 1.235 . S
C318 O324 1.287 . S
C318 O325 1.255 1_655 S
O319 Fe308 1.976 . S
O319 C326 1.287 . S
O320 Fe309 1.996 . S
O320 C326 1.255 . S
O321 Fe311 1.976 . S
O321 C316 1.287 . S
O322 Fe308 1.996 . S
O322 C316 1.255 1_655 S
C323 O327 1.295 . S
C323 O328 1.235 . S
O324 Fe309 1.976 . S
O324 C318 1.287 . S
O325 Fe311 1.996 . S
O325 C318 1.255 1_455 S
C326 O319 1.287 . S
C326 O320 1.255 . S
O327 Fe309 2.002 . S
O327 C323 1.295 . S
O328 Fe311 1.997 1_655 S
O328 C323 1.235 . S
C329 O312 1.295 . S
C329 O313 1.235 . S
Fe330 O332 1.918 . S
Fe330 O335 1.997 . S
Fe330 O336 2.002 . S
Fe330 O341 1.976 . S
Fe330 O344 1.996 . S
Fe331 O332 1.918 1_655 S
Fe331 O339 1.997 1_655 S
Fe331 O342 1.996 . S
Fe331 O346 1.976 . S
Fe331 O349 2.002 1_655 S
O332 Fe330 1.918 . S
O332 Fe331 1.918 1_455 S
O332 Fe333 1.918 . S
Fe333 O332 1.918 . S
Fe333 O334 2.002 . S
Fe333 O343 1.976 . S
Fe333 O347 2.004 . S
Fe333 O350 1.997 . S
O334 Fe333 2.002 . S
O334 C351 1.295 . S
O335 Fe330 1.997 . S
O335 C351 1.235 . S
O336 Fe330 2.002 . S
O336 C337 1.295 . S
C337 O336 1.295 . S
C337 O339 1.235 . S
C338 O343 1.287 . S
C338 O344 1.255 . S
O339 Fe331 1.997 1_455 S
O339 C337 1.235 . S
C340 O346 1.287 . S
C340 O347 1.247 1_655 S
O341 Fe330 1.976 . S
O341 C348 1.299 . S
O342 Fe331 1.996 . S
O342 C348 1.248 1_655 S
O343 Fe333 1.976 . S
O343 C338 1.287 . S
O344 Fe330 1.996 . S
O344 C338 1.255 . S
C345 O349 1.295 . S
C345 O350 1.235 . S
O346 Fe331 1.976 . S
O346 C340 1.287 . S
O347 Fe333 2.004 . S
O347 C340 1.247 1_455 S
C348 O341 1.299 . S
C348 O342 1.248 1_455 S
O349 Fe331 2.002 1_455 S
O349 C345 1.295 . S
O350 Fe333 1.997 . S
O350 C345 1.235 . S
C351 O334 1.295 . S
C351 O335 1.235 . S
Fe352 O354 1.918 . S
Fe352 O357 1.997 . S
Fe352 O358 2.002 . S
Fe352 O363 1.976 . S
Fe352 O366 1.998 . S
Fe353 O354 1.918 . S
Fe353 O361 1.997 . S
Fe353 O364 1.996 . S
Fe353 O368 1.976 . S
Fe353 O371 2.002 . S
O354 Fe352 1.918 . S
O354 Fe353 1.918 . S
O354 Fe355 1.918 1_565 S
Fe355 O354 1.918 1_545 S
Fe355 O356 2.002 1_545 S
Fe355 O365 1.976 . S
Fe355 O369 1.996 . S
Fe355 O372 1.997 1_545 S
O356 Fe355 2.002 1_565 S
O356 C373 1.295 . S
O357 Fe352 1.997 . S
O357 C373 1.235 . S
O358 Fe352 2.002 . S
O358 C359 1.295 . S
C359 O358 1.295 . S
C359 O361 1.235 . S
C360 O365 1.287 . S
C360 O366 1.252 1_545 S
O361 Fe353 1.997 . S
O361 C359 1.235 . S
C362 O368 1.304 . S
C362 O369 1.245 1_565 S
O363 Fe352 1.976 . S
O363 C370 1.287 . S
O364 Fe353 1.996 . S
O364 C370 1.255 . S
O365 Fe355 1.976 . S
O365 C360 1.287 . S
O366 Fe352 1.998 . S
O366 C360 1.252 1_565 S
C367 O371 1.295 . S
C367 O372 1.235 . S
O368 Fe353 1.976 . S
O368 C362 1.304 . S
O369 Fe355 1.996 . S
O369 C362 1.245 1_545 S
C370 O363 1.287 . S
C370 O364 1.255 . S
O371 Fe353 2.002 . S
O371 C367 1.295 . S
O372 Fe355 1.997 1_565 S
O372 C367 1.235 . S
C373 O356 1.295 . S
C373 O357 1.235 . S
Fe374 O376 1.918 . S
Fe374 O379 1.997 . S
Fe374 O380 2.002 . S
Fe374 O385 1.976 . S
Fe374 O388 1.996 . S
Fe375 O376 1.918 . S
Fe375 O383 1.997 . S
Fe375 O386 1.996 . S
Fe375 O390 1.976 . S
Fe375 O393 2.002 . S
O376 Fe374 1.918 . S
O376 Fe375 1.918 . S
O376 Fe377 1.918 . S
Fe377 O376 1.918 . S
Fe377 O378 2.002 . S
Fe377 O387 1.976 . S
Fe377 O391 1.996 . S
Fe377 O394 1.997 . S
O378 Fe377 2.002 . S
O378 C395 1.295 . S
O379 Fe374 1.997 . S
O379 C395 1.235 . S
O380 Fe374 2.002 . S
O380 C381 1.295 . S
C381 O380 1.295 . S
C381 O383 1.235 . S
C382 O387 1.287 . S
C382 O388 1.255 . S
O383 Fe375 1.997 . S
O383 C381 1.235 . S
C384 O390 1.287 . S
C384 O391 1.255 . S
O385 Fe374 1.976 . S
O385 C392 1.287 . S
O386 Fe375 1.996 . S
O386 C392 1.255 . S
O387 Fe377 1.976 . S
O387 C382 1.287 . S
O388 Fe374 1.996 . S
O388 C382 1.255 . S
C389 O393 1.295 . S
C389 O394 1.235 . S
O390 Fe375 1.976 . S
O390 C384 1.287 . S
O391 Fe377 1.996 . S
O391 C384 1.255 . S
C392 O385 1.287 . S
C392 O386 1.255 . S
O393 Fe375 2.002 . S
O393 C389 1.295 . S
O394 Fe377 1.997 . S
O394 C389 1.235 . S
C395 O378 1.295 . S
C395 O379 1.235 . S
Fe396 O398 1.918 . S
Fe396 O401 1.997 . S
Fe396 O402 2.002 . S
Fe396 O407 1.976 . S
Fe396 O410 1.996 1_545 S
Fe397 O398 1.918 . S
Fe397 O405 1.997 . S
Fe397 O408 1.996 . S
Fe397 O412 1.976 . S
Fe397 O415 2.002 . S
O398 Fe396 1.918 . S
O398 Fe397 1.918 . S
O398 Fe399 1.918 1_545 S
Fe399 O398 1.918 1_565 S
Fe399 O400 2.002 1_565 S
Fe399 O409 1.976 . S
Fe399 O413 1.996 . S
Fe399 O416 1.997 1_565 S
O400 Fe399 2.002 1_545 S
O400 C417 1.295 . S
O401 Fe396 1.997 . S
O401 C417 1.235 . S
O402 Fe396 2.002 . S
O402 C403 1.295 . S
C403 O402 1.295 . S
C403 O405 1.235 . S
C404 O409 1.287 . S
C404 O410 1.255 . S
O405 Fe397 1.997 . S
O405 C403 1.235 . S
C406 O412 1.288 . S
C406 O413 1.254 1_545 S
O407 Fe396 1.976 . S
O407 C414 1.287 . S
O408 Fe397 1.996 . S
O408 C414 1.255 . S
O409 Fe399 1.976 . S
O409 C404 1.287 . S
O410 Fe396 1.996 1_565 S
O410 C404 1.255 . S
C411 O415 1.295 . S
C411 O416 1.235 . S
O412 Fe397 1.976 . S
O412 C406 1.288 . S
O413 Fe399 1.996 . S
O413 C406 1.254 1_565 S
C414 O407 1.287 . S
C414 O408 1.255 . S
O415 Fe397 2.002 . S
O415 C411 1.295 . S
O416 Fe399 1.997 1_545 S
O416 C411 1.235 . S
C417 O400 1.295 . S
C417 O401 1.235 . S
Fe418 O420 1.918 . S
Fe418 O423 1.997 . S
Fe418 O424 2.002 . S
Fe418 O429 1.976 . S
Fe418 O432 1.996 . S
Fe419 O420 1.918 . S
Fe419 O427 1.997 . S
Fe419 O430 1.996 . S
Fe419 O434 1.976 . S
Fe419 O437 2.002 . S
O420 Fe418 1.918 . S
O420 Fe419 1.918 . S
O420 Fe421 1.918 . S
Fe421 O420 1.918 . S
Fe421 O422 2.002 . S
Fe421 O431 1.976 . S
Fe421 O435 1.996 . S
Fe421 O438 1.997 . S
O422 Fe421 2.002 . S
O422 C439 1.295 . S
O423 Fe418 1.997 . S
O423 C439 1.235 . S
O424 Fe418 2.002 . S
O424 C425 1.295 . S
C425 O424 1.295 . S
C425 O427 1.235 . S
C426 O431 1.287 . S
C426 O432 1.255 . S
O427 Fe419 1.997 . S
O427 C425 1.235 . S
C428 O434 1.287 . S
C428 O435 1.255 . S
O429 Fe418 1.976 . S
O429 C436 1.287 . S
O430 Fe419 1.996 . S
O430 C436 1.255 . S
O431 Fe421 1.976 . S
O431 C426 1.287 . S
O432 Fe418 1.996 . S
O432 C426 1.255 . S
C433 O437 1.295 . S
C433 O438 1.235 . S
O434 Fe419 1.976 . S
O434 C428 1.287 . S
O435 Fe421 1.996 . S
O435 C428 1.255 . S
C436 O429 1.287 . S
C436 O430 1.255 . S
O437 Fe419 2.002 . S
O437 C433 1.295 . S
O438 Fe421 1.997 . S
O438 C433 1.235 . S
C439 O422 1.295 . S
C439 O423 1.235 . S
Fe440 O442 1.918 . S
Fe440 O445 1.997 . S
Fe440 O446 2.002 . S
Fe440 O451 1.976 . S
Fe440 O454 1.996 1_556 S
Fe441 O442 1.918 . S
Fe441 O449 1.997 . S
Fe441 O452 1.996 . S
Fe441 O456 1.976 . S
Fe441 O459 2.002 . S
O442 Fe440 1.918 . S
O442 Fe441 1.918 . S
O442 Fe443 1.918 1_556 S
Fe443 O442 1.918 1_554 S
Fe443 O444 2.002 1_554 S
Fe443 O453 1.976 . S
Fe443 O457 1.996 . S
Fe443 O460 1.997 1_554 S
O444 Fe443 2.002 1_556 S
O444 C461 1.295 . S
O445 Fe440 1.997 . S
O445 C461 1.235 . S
O446 Fe440 2.002 . S
O446 C447 1.295 . S
C447 O446 1.295 . S
C447 O449 1.235 . S
C448 O453 1.287 . S
C448 O454 1.255 . S
O449 Fe441 1.997 . S
O449 C447 1.235 . S
C450 O456 1.294 . S
C450 O457 1.251 1_556 S
O451 Fe440 1.976 . S
O451 C458 1.287 . S
O452 Fe441 1.996 . S
O452 C458 1.255 . S
O453 Fe443 1.976 . S
O453 C448 1.287 . S
O454 Fe440 1.996 1_554 S
O454 C448 1.255 . S
C455 O459 1.295 . S
C455 O460 1.235 . S
O456 Fe441 1.976 . S
O456 C450 1.294 . S
O457 Fe443 1.996 . S
O457 C450 1.251 1_554 S
C458 O451 1.287 . S
C458 O452 1.255 . S
O459 Fe441 2.002 . S
O459 C455 1.295 . S
O460 Fe443 1.997 1_556 S
O460 C455 1.235 . S
C461 O444 1.295 . S
C461 O445 1.235 . S
Fe462 O464 1.918 . S
Fe462 O467 1.997 . S
Fe462 O468 2.002 . S
Fe462 O473 1.976 . S
Fe462 O476 1.996 . S
Fe463 O464 1.918 . S
Fe463 O471 1.997 . S
Fe463 O474 1.996 . S
Fe463 O478 1.976 . S
Fe463 O481 2.002 . S
O464 Fe462 1.918 . S
O464 Fe463 1.918 . S
O464 Fe465 1.918 . S
Fe465 O464 1.918 . S
Fe465 O466 2.002 . S
Fe465 O475 1.976 . S
Fe465 O479 1.996 . S
Fe465 O482 1.997 . S
O466 Fe465 2.002 . S
O466 C483 1.295 . S
O467 Fe462 1.997 . S
O467 C483 1.235 . S
O468 Fe462 2.002 . S
O468 C469 1.295 . S
C469 O468 1.295 . S
C469 O471 1.235 . S
C470 O475 1.287 . S
C470 O476 1.255 . S
O471 Fe463 1.997 . S
O471 C469 1.235 . S
C472 O478 1.287 . S
C472 O479 1.255 . S
O473 Fe462 1.976 . S
O473 C480 1.287 . S
O474 Fe463 1.996 . S
O474 C480 1.255 . S
O475 Fe465 1.976 . S
O475 C470 1.287 . S
O476 Fe462 1.996 . S
O476 C470 1.255 . S
C477 O481 1.295 . S
C477 O482 1.235 . S
O478 Fe463 1.976 . S
O478 C472 1.287 . S
O479 Fe465 1.996 . S
O479 C472 1.255 . S
C480 O473 1.287 . S
C480 O474 1.255 . S
O481 Fe463 2.002 . S
O481 C477 1.295 . S
O482 Fe465 1.997 . S
O482 C477 1.235 . S
C483 O466 1.295 . S
C483 O467 1.235 . S
Fe484 O486 1.918 . S
Fe484 O489 1.997 . S
Fe484 O490 2.002 . S
Fe484 O495 1.976 . S
Fe484 O498 1.996 . S
Fe485 O486 1.918 . S
Fe485 O493 1.997 . S
Fe485 O496 1.996 . S
Fe485 O500 1.976 . S
Fe485 O503 2.002 . S
O486 Fe484 1.918 . S
O486 Fe485 1.918 . S
O486 Fe487 1.918 . S
Fe487 O486 1.918 . S
Fe487 O488 2.002 . S
Fe487 O497 1.976 . S
Fe487 O501 1.996 . S
Fe487 O504 1.997 . S
O488 Fe487 2.002 . S
O488 C505 1.295 . S
O489 Fe484 1.997 . S
O489 C505 1.235 . S
O490 Fe484 2.002 . S
O490 C491 1.295 . S
C491 O490 1.295 . S
C491 O493 1.235 . S
C492 O497 1.287 . S
C492 O498 1.255 . S
O493 Fe485 1.997 . S
O493 C491 1.235 . S
C494 O500 1.287 . S
C494 O501 1.255 . S
O495 Fe484 1.976 . S
O495 C502 1.287 . S
O496 Fe485 1.996 . S
O496 C502 1.255 . S
O497 Fe487 1.976 . S
O497 C492 1.287 . S
O498 Fe484 1.996 . S
O498 C492 1.255 . S
C499 O503 1.295 . S
C499 O504 1.235 . S
O500 Fe485 1.976 . S
O500 C494 1.287 . S
O501 Fe487 1.996 . S
O501 C494 1.255 . S
C502 O495 1.287 . S
C502 O496 1.255 . S
O503 Fe485 2.002 . S
O503 C499 1.295 . S
O504 Fe487 1.997 . S
O504 C499 1.235 . S
C505 O488 1.295 . S
C505 O489 1.235 . S
Fe506 O508 1.918 . S
Fe506 O511 1.997 . S
Fe506 O512 2.002 . S
Fe506 O517 1.976 . S
Fe506 O520 1.996 . S
Fe507 O508 1.918 . S
Fe507 O515 1.997 . S
Fe507 O518 1.996 . S
Fe507 O522 1.976 . S
Fe507 O525 2.002 . S
O508 Fe506 1.918 . S
O508 Fe507 1.918 . S
O508 Fe509 1.918 . S
Fe509 O508 1.918 . S
Fe509 O510 2.002 . S
Fe509 O519 1.976 . S
Fe509 O523 1.996 . S
Fe509 O526 1.997 . S
O510 Fe509 2.002 . S
O510 C527 1.295 . S
O511 Fe506 1.997 . S
O511 C527 1.235 . S
O512 Fe506 2.002 . S
O512 C513 1.295 . S
C513 O512 1.295 . S
C513 O515 1.235 . S
C514 O519 1.287 . S
C514 O520 1.255 . S
O515 Fe507 1.997 . S
O515 C513 1.235 . S
C516 O522 1.287 . S
C516 O523 1.255 . S
O517 Fe506 1.976 . S
O517 C524 1.287 . S
O518 Fe507 1.996 . S
O518 C524 1.255 . S
O519 Fe509 1.976 . S
O519 C514 1.287 . S
O520 Fe506 1.996 . S
O520 C514 1.255 . S
C521 O525 1.295 . S
C521 O526 1.235 . S
O522 Fe507 1.976 . S
O522 C516 1.287 . S
O523 Fe509 1.996 . S
O523 C516 1.255 . S
C524 O517 1.287 . S
C524 O518 1.255 . S
O525 Fe507 2.002 . S
O525 C521 1.295 . S
O526 Fe509 1.997 . S
O526 C521 1.235 . S
C527 O510 1.295 . S
C527 O511 1.235 . S
Fe528 O530 1.918 . S
Fe528 O533 1.997 . S
Fe528 O534 2.002 . S
Fe528 O539 1.976 . S
Fe528 O542 1.996 . S
Fe529 O530 1.918 . S
Fe529 O537 1.997 . S
Fe529 O540 1.996 . S
Fe529 O544 1.976 . S
Fe529 O547 2.002 . S
O530 Fe528 1.918 . S
O530 Fe529 1.918 . S
O530 Fe531 1.918 . S
Fe531 O530 1.918 . S
Fe531 O532 2.002 . S
Fe531 O541 1.976 . S
Fe531 O545 1.996 . S
Fe531 O548 1.997 . S
O532 Fe531 2.002 . S
O532 C549 1.295 . S
O533 Fe528 1.997 . S
O533 C549 1.235 . S
O534 Fe528 2.002 . S
O534 C535 1.295 . S
C535 O534 1.295 . S
C535 O537 1.235 . S
C536 O541 1.287 . S
C536 O542 1.255 . S
O537 Fe529 1.997 . S
O537 C535 1.235 . S
C538 O544 1.287 . S
C538 O545 1.255 . S
O539 Fe528 1.976 . S
O539 C546 1.287 . S
O540 Fe529 1.996 . S
O540 C546 1.255 . S
O541 Fe531 1.976 . S
O541 C536 1.287 . S
O542 Fe528 1.996 . S
O542 C536 1.255 . S
C543 O547 1.295 . S
C543 O548 1.235 . S
O544 Fe529 1.976 . S
O544 C538 1.287 . S
O545 Fe531 1.996 . S
O545 C538 1.255 . S
C546 O539 1.287 . S
C546 O540 1.255 . S
O547 Fe529 2.002 . S
O547 C543 1.295 . S
O548 Fe531 1.997 . S
O548 C543 1.235 . S
C549 O532 1.295 . S
C549 O533 1.235 . S
Fe550 O552 1.918 . S
Fe550 O555 1.997 . S
Fe550 O556 2.002 . S
Fe550 O561 1.976 . S
Fe550 O564 1.996 . S
Fe551 O552 1.918 . S
Fe551 O559 1.997 . S
Fe551 O562 1.996 . S
Fe551 O566 1.976 . S
Fe551 O569 2.002 . S
O552 Fe550 1.918 . S
O552 Fe551 1.918 . S
O552 Fe553 1.918 . S
Fe553 O552 1.918 . S
Fe553 O554 2.002 . S
Fe553 O563 1.976 . S
Fe553 O567 1.996 . S
Fe553 O570 1.997 . S
O554 Fe553 2.002 . S
O554 C571 1.295 . S
O555 Fe550 1.997 . S
O555 C571 1.235 . S
O556 Fe550 2.002 . S
O556 C557 1.295 . S
C557 O556 1.295 . S
C557 O559 1.235 . S
C558 O563 1.287 . S
C558 O564 1.255 . S
O559 Fe551 1.997 . S
O559 C557 1.235 . S
C560 O566 1.287 . S
C560 O567 1.255 . S
O561 Fe550 1.976 . S
O561 C568 1.287 . S
O562 Fe551 1.996 . S
O562 C568 1.255 . S
O563 Fe553 1.976 . S
O563 C558 1.287 . S
O564 Fe550 1.996 . S
O564 C558 1.255 . S
C565 O569 1.295 . S
C565 O570 1.235 . S
O566 Fe551 1.976 . S
O566 C560 1.287 . S
O567 Fe553 1.996 . S
O567 C560 1.255 . S
C568 O561 1.287 . S
C568 O562 1.255 . S
O569 Fe551 2.002 . S
O569 C565 1.295 . S
O570 Fe553 1.997 . S
O570 C565 1.235 . S
C571 O554 1.295 . S
C571 O555 1.235 . S
Fe572 O574 1.918 . S
Fe572 O577 1.997 . S
Fe572 O578 2.002 . S
Fe572 O583 1.976 . S
Fe572 O586 1.996 . S
Fe573 O574 1.918 . S
Fe573 O581 1.997 . S
Fe573 O584 1.996 . S
Fe573 O588 1.976 . S
Fe573 O591 2.002 . S
O574 Fe572 1.918 . S
O574 Fe573 1.918 . S
O574 Fe575 1.918 . S
Fe575 O574 1.918 . S
Fe575 O576 2.002 . S
Fe575 O585 1.976 . S
Fe575 O589 1.996 . S
Fe575 O592 1.997 . S
O576 Fe575 2.002 . S
O576 C593 1.295 . S
O577 Fe572 1.997 . S
O577 C593 1.235 . S
O578 Fe572 2.002 . S
O578 C579 1.295 . S
C579 O578 1.295 . S
C579 O581 1.235 . S
C580 O585 1.287 . S
C580 O586 1.255 . S
O581 Fe573 1.997 . S
O581 C579 1.235 . S
C582 O588 1.287 . S
C582 O589 1.255 . S
O583 Fe572 1.976 . S
O583 C590 1.287 . S
O584 Fe573 1.996 . S
O584 C590 1.255 . S
O585 Fe575 1.976 . S
O585 C580 1.287 . S
O586 Fe572 1.996 . S
O586 C580 1.255 . S
C587 O591 1.295 . S
C587 O592 1.235 . S
O588 Fe573 1.976 . S
O588 C582 1.287 . S
O589 Fe575 1.996 . S
O589 C582 1.255 . S
C590 O583 1.287 . S
C590 O584 1.255 . S
O591 Fe573 2.002 . S
O591 C587 1.295 . S
O592 Fe575 1.997 . S
O592 C587 1.235 . S
C593 O576 1.295 . S
C593 O577 1.235 . S
Fe594 O596 1.918 . S
Fe594 O599 1.997 . S
Fe594 O600 2.002 . S
Fe594 O605 1.976 . S
Fe594 O608 1.996 . S
Fe595 O596 1.918 . S
Fe595 O603 1.997 . S
Fe595 O606 1.996 . S
Fe595 O610 1.976 . S
Fe595 O613 2.002 . S
O596 Fe594 1.918 . S
O596 Fe595 1.918 . S
O596 Fe597 1.918 . S
Fe597 O596 1.918 . S
Fe597 O598 2.002 . S
Fe597 O607 1.976 . S
Fe597 O611 1.996 . S
Fe597 O614 1.997 . S
O598 Fe597 2.002 . S
O598 C615 1.295 . S
O599 Fe594 1.997 . S
O599 C615 1.235 . S
O600 Fe594 2.002 . S
O600 C601 1.295 . S
C601 O600 1.295 . S
C601 O603 1.235 . S
C602 O607 1.287 . S
C602 O608 1.255 . S
O603 Fe595 1.997 . S
O603 C601 1.235 . S
C604 O610 1.287 . S
C604 O611 1.255 . S
O605 Fe594 1.976 . S
O605 C612 1.287 . S
O606 Fe595 1.996 . S
O606 C612 1.255 . S
O607 Fe597 1.976 . S
O607 C602 1.287 . S
O608 Fe594 1.996 . S
O608 C602 1.255 . S
C609 O613 1.295 . S
C609 O614 1.235 . S
O610 Fe595 1.976 . S
O610 C604 1.287 . S
O611 Fe597 1.996 . S
O611 C604 1.255 . S
C612 O605 1.287 . S
C612 O606 1.255 . S
O613 Fe595 2.002 . S
O613 C609 1.295 . S
O614 Fe597 1.997 . S
O614 C609 1.235 . S
C615 O598 1.295 . S
C615 O599 1.235 . S
Fe616 O618 1.918 . S
Fe616 O621 1.997 . S
Fe616 O622 2.002 . S
Fe616 O627 1.976 . S
Fe616 O630 1.996 . S
Fe617 O618 1.918 . S
Fe617 O625 1.997 . S
Fe617 O628 1.996 . S
Fe617 O632 1.976 . S
Fe617 O635 2.002 . S
O618 Fe616 1.918 . S
O618 Fe617 1.918 . S
O618 Fe619 1.918 . S
Fe619 O618 1.918 . S
Fe619 O620 2.002 . S
Fe619 O629 1.976 . S
Fe619 O633 1.996 . S
Fe619 O636 1.997 . S
O620 Fe619 2.002 . S
O620 C637 1.295 . S
O621 Fe616 1.997 . S
O621 C637 1.235 . S
O622 Fe616 2.002 . S
O622 C623 1.295 . S
C623 O622 1.295 . S
C623 O625 1.235 . S
C624 O629 1.287 . S
C624 O630 1.255 . S
O625 Fe617 1.997 . S
O625 C623 1.235 . S
C626 O632 1.287 . S
C626 O633 1.255 . S
O627 Fe616 1.976 . S
O627 C634 1.287 . S
O628 Fe617 1.996 . S
O628 C634 1.255 . S
O629 Fe619 1.976 . S
O629 C624 1.287 . S
O630 Fe616 1.996 . S
O630 C624 1.255 . S
C631 O635 1.295 . S
C631 O636 1.235 . S
O632 Fe617 1.976 . S
O632 C626 1.287 . S
O633 Fe619 1.996 . S
O633 C626 1.255 . S
C634 O627 1.287 . S
C634 O628 1.255 . S
O635 Fe617 2.002 . S
O635 C631 1.295 . S
O636 Fe619 1.997 . S
O636 C631 1.235 . S
C637 O620 1.295 . S
C637 O621 1.235 . S
Fe638 O640 1.918 . S
Fe638 O643 1.997 . S
Fe638 O644 2.002 . S
Fe638 O649 1.976 . S
Fe638 O652 1.996 . S
Fe639 O640 1.918 . S
Fe639 O647 1.997 . S
Fe639 O650 1.996 . S
Fe639 O654 1.972 1_565 S
Fe639 O657 2.002 . S
O640 Fe638 1.918 . S
O640 Fe639 1.918 . S
O640 Fe641 1.918 1_565 S
Fe641 O640 1.918 1_545 S
Fe641 O642 2.002 1_545 S
Fe641 O651 1.976 . S
Fe641 O655 1.996 . S
Fe641 O658 1.997 1_545 S
O642 Fe641 2.002 1_565 S
O642 C659 1.295 . S
O643 Fe638 1.997 . S
O643 C659 1.235 . S
O644 Fe638 2.002 . S
O644 C645 1.295 . S
C645 O644 1.295 . S
C645 O647 1.235 . S
C646 O651 1.287 1_565 S
C646 O652 1.255 . S
O647 Fe639 1.997 . S
O647 C645 1.235 . S
C648 O654 1.290 . S
C648 O655 1.255 . S
O649 Fe638 1.976 . S
O649 C656 1.287 . S
O650 Fe639 1.996 . S
O650 C656 1.255 . S
O651 Fe641 1.976 . S
O651 C646 1.287 1_545 S
O652 Fe638 1.996 . S
O652 C646 1.255 . S
C653 O657 1.295 . S
C653 O658 1.235 . S
O654 Fe639 1.972 1_545 S
O654 C648 1.290 . S
O655 Fe641 1.996 . S
O655 C648 1.255 . S
C656 O649 1.287 . S
C656 O650 1.255 . S
O657 Fe639 2.002 . S
O657 C653 1.295 . S
O658 Fe641 1.997 1_565 S
O658 C653 1.235 . S
C659 O642 1.295 . S
C659 O643 1.235 . S
Fe660 O662 1.918 . S
Fe660 O665 1.997 . S
Fe660 O666 2.002 . S
Fe660 O671 1.976 . S
Fe660 O674 1.996 . S
Fe661 O662 1.918 . S
Fe661 O669 1.997 . S
Fe661 O672 1.996 . S
Fe661 O676 1.976 . S
Fe661 O679 2.002 . S
O662 Fe660 1.918 . S
O662 Fe661 1.918 . S
O662 Fe663 1.918 . S
Fe663 O662 1.918 . S
Fe663 O664 2.002 . S
Fe663 O673 1.976 . S
Fe663 O677 1.996 . S
Fe663 O680 1.997 . S
O664 Fe663 2.002 . S
O664 C681 1.295 . S
O665 Fe660 1.997 . S
O665 C681 1.235 . S
O666 Fe660 2.002 . S
O666 C667 1.295 . S
C667 O666 1.295 . S
C667 O669 1.235 . S
C668 O673 1.287 . S
C668 O674 1.255 . S
O669 Fe661 1.997 . S
O669 C667 1.235 . S
C670 O676 1.287 . S
C670 O677 1.255 . S
O671 Fe660 1.976 . S
O671 C678 1.287 . S
O672 Fe661 1.996 . S
O672 C678 1.255 . S
O673 Fe663 1.976 . S
O673 C668 1.287 . S
O674 Fe660 1.996 . S
O674 C668 1.255 . S
C675 O679 1.295 . S
C675 O680 1.235 . S
O676 Fe661 1.976 . S
O676 C670 1.287 . S
O677 Fe663 1.996 . S
O677 C670 1.255 . S
C678 O671 1.287 . S
C678 O672 1.255 . S
O679 Fe661 2.002 . S
O679 C675 1.295 . S
O680 Fe663 1.997 . S
O680 C675 1.235 . S
C681 O664 1.295 . S
C681 O665 1.235 . S
Fe682 O684 1.918 . S
Fe682 O687 1.997 . S
Fe682 O688 2.002 . S
Fe682 O693 1.987 . S
Fe682 O696 1.996 . S
Fe683 O684 1.918 1_565 S
Fe683 O691 1.997 1_565 S
Fe683 O694 1.996 . S
Fe683 O698 1.976 . S
Fe683 O701 2.002 1_565 S
O684 Fe682 1.918 . S
O684 Fe683 1.918 1_545 S
O684 Fe685 1.918 . S
Fe685 O684 1.918 . S
Fe685 O686 2.002 . S
Fe685 O695 1.976 . S
Fe685 O699 1.996 . S
Fe685 O702 1.997 . S
O686 Fe685 2.002 . S
O686 C703 1.295 . S
O687 Fe682 1.997 . S
O687 C703 1.235 . S
O688 Fe682 2.002 . S
O688 C689 1.295 . S
C689 O688 1.295 . S
C689 O691 1.235 . S
C690 O695 1.287 . S
C690 O696 1.255 . S
O691 Fe683 1.997 1_545 S
O691 C689 1.235 . S
C692 O698 1.287 1_545 S
C692 O699 1.255 . S
O693 Fe682 1.987 . S
O693 C700 1.276 1_545 S
O694 Fe683 1.996 . S
O694 C700 1.255 . S
O695 Fe685 1.976 . S
O695 C690 1.287 . S
O696 Fe682 1.996 . S
O696 C690 1.255 . S
C697 O701 1.295 . S
C697 O702 1.235 . S
O698 Fe683 1.976 . S
O698 C692 1.287 1_565 S
O699 Fe685 1.996 . S
O699 C692 1.255 . S
C700 O693 1.276 1_565 S
C700 O694 1.255 . S
O701 Fe683 2.002 1_545 S
O701 C697 1.295 . S
O702 Fe685 1.997 . S
O702 C697 1.235 . S
C703 O686 1.295 . S
C703 O687 1.235 . S
Fe704 O706 1.918 . S
Fe704 O709 1.997 . S
Fe704 O710 2.002 . S
Fe704 O715 1.976 . S
Fe704 O718 1.996 . S
Fe705 O706 1.918 . S
Fe705 O713 1.997 . S
Fe705 O716 1.996 . S
Fe705 O720 1.976 . S
Fe705 O723 2.002 . S
O706 Fe704 1.918 . S
O706 Fe705 1.918 . S
O706 Fe707 1.918 . S
Fe707 O706 1.918 . S
Fe707 O708 2.002 . S
Fe707 O717 1.976 . S
Fe707 O721 1.996 . S
Fe707 O724 1.997 . S
O708 Fe707 2.002 . S
O708 C725 1.295 . S
O709 Fe704 1.997 . S
O709 C725 1.235 . S
O710 Fe704 2.002 . S
O710 C711 1.295 . S
C711 O710 1.295 . S
C711 O713 1.235 . S
C712 O717 1.287 . S
C712 O718 1.255 . S
O713 Fe705 1.997 . S
O713 C711 1.235 . S
C714 O720 1.287 . S
C714 O721 1.255 . S
O715 Fe704 1.976 . S
O715 C722 1.287 . S
O716 Fe705 1.996 . S
O716 C722 1.255 . S
O717 Fe707 1.976 . S
O717 C712 1.287 . S
O718 Fe704 1.996 . S
O718 C712 1.255 . S
C719 O723 1.295 . S
C719 O724 1.235 . S
O720 Fe705 1.976 . S
O720 C714 1.287 . S
O721 Fe707 1.996 . S
O721 C714 1.255 . S
C722 O715 1.287 . S
C722 O716 1.255 . S
O723 Fe705 2.002 . S
O723 C719 1.295 . S
O724 Fe707 1.997 . S
O724 C719 1.235 . S
C725 O708 1.295 . S
C725 O709 1.235 . S
Fe726 O728 1.918 . S
Fe726 O731 1.997 . S
Fe726 O732 2.002 . S
Fe726 O737 1.986 . S
Fe726 O740 1.996 . S
Fe727 O728 1.918 1_554 S
Fe727 O735 1.997 1_554 S
Fe727 O738 1.996 . S
Fe727 O742 1.976 . S
Fe727 O745 2.002 1_554 S
O728 Fe726 1.918 . S
O728 Fe727 1.918 1_556 S
O728 Fe729 1.918 . S
Fe729 O728 1.918 . S
Fe729 O730 2.002 . S
Fe729 O739 1.976 . S
Fe729 O743 1.996 . S
Fe729 O746 1.997 . S
O730 Fe729 2.002 . S
O730 C747 1.295 . S
O731 Fe726 1.997 . S
O731 C747 1.235 . S
O732 Fe726 2.002 . S
O732 C733 1.295 . S
C733 O732 1.295 . S
C733 O735 1.235 . S
C734 O739 1.287 . S
C734 O740 1.255 . S
O735 Fe727 1.997 1_556 S
O735 C733 1.235 . S
C736 O742 1.287 1_556 S
C736 O743 1.255 . S
O737 Fe726 1.986 . S
O737 C744 1.277 1_556 S
O738 Fe727 1.996 . S
O738 C744 1.255 . S
O739 Fe729 1.976 . S
O739 C734 1.287 . S
O740 Fe726 1.996 . S
O740 C734 1.255 . S
C741 O745 1.295 . S
C741 O746 1.235 . S
O742 Fe727 1.976 . S
O742 C736 1.287 1_554 S
O743 Fe729 1.996 . S
O743 C736 1.255 . S
C744 O737 1.277 1_554 S
C744 O738 1.255 . S
O745 Fe727 2.002 1_556 S
O745 C741 1.295 . S
O746 Fe729 1.997 . S
O746 C741 1.235 . S
C747 O730 1.295 . S
C747 O731 1.235 . S
Fe748 O750 1.918 1_554 S
Fe748 O753 1.997 1_554 S
Fe748 O754 2.002 1_554 S
Fe748 O759 1.976 . S
Fe748 O762 1.996 . S
Fe749 O750 1.918 . S
Fe749 O757 1.997 . S
Fe749 O760 1.996 . S
Fe749 O764 1.976 . S
Fe749 O767 2.002 . S
O750 Fe748 1.918 1_556 S
O750 Fe749 1.918 . S
O750 Fe751 1.918 . S
Fe751 O750 1.918 . S
Fe751 O752 2.002 . S
Fe751 O761 1.987 . S
Fe751 O765 1.996 . S
Fe751 O768 1.997 . S
O752 Fe751 2.002 . S
O752 C769 1.295 . S
O753 Fe748 1.997 1_556 S
O753 C769 1.235 . S
O754 Fe748 2.002 1_556 S
O754 C755 1.295 . S
C755 O754 1.295 . S
C755 O757 1.235 . S
C756 O761 1.276 1_554 S
C756 O762 1.255 . S
O757 Fe749 1.997 . S
O757 C755 1.235 . S
C758 O764 1.287 . S
C758 O765 1.255 . S
O759 Fe748 1.976 . S
O759 C766 1.287 1_554 S
O760 Fe749 1.996 . S
O760 C766 1.255 . S
O761 Fe751 1.987 . S
O761 C756 1.276 1_556 S
O762 Fe748 1.996 . S
O762 C756 1.255 . S
C763 O767 1.295 . S
C763 O768 1.235 . S
O764 Fe749 1.976 . S
O764 C758 1.287 . S
O765 Fe751 1.996 . S
O765 C758 1.255 . S
C766 O759 1.287 1_556 S
C766 O760 1.255 . S
O767 Fe749 2.002 . S
O767 C763 1.295 . S
O768 Fe751 1.997 . S
O768 C763 1.235 . S
C769 O752 1.295 . S
C769 O753 1.235 . S
Fe770 O772 1.918 . S
Fe770 O775 1.997 . S
Fe770 O776 2.002 . S
Fe770 O781 1.976 . S
Fe770 O784 1.996 . S
Fe771 O772 1.918 1_556 S
Fe771 O779 1.997 . S
Fe771 O782 1.996 1_556 S
Fe771 O786 1.976 1_556 S
Fe771 O789 2.002 . S
O772 Fe770 1.918 . S
O772 Fe771 1.918 1_554 S
O772 Fe773 1.918 . S
Fe773 O772 1.918 . S
Fe773 O774 2.002 . S
Fe773 O783 1.976 . S
Fe773 O787 1.996 . S
Fe773 O790 2.011 . S
O774 Fe773 2.002 . S
O774 C791 1.295 . S
O775 Fe770 1.997 . S
O775 C791 1.235 . S
O776 Fe770 2.002 . S
O776 C777 1.295 . S
C777 O776 1.295 . S
C777 O779 1.235 1_554 S
C778 O783 1.287 . S
C778 O784 1.255 . S
O779 Fe771 1.997 . S
O779 C777 1.235 1_556 S
C780 O786 1.287 . S
C780 O787 1.255 . S
O781 Fe770 1.976 . S
O781 C788 1.287 . S
O782 Fe771 1.996 1_554 S
O782 C788 1.255 . S
O783 Fe773 1.976 . S
O783 C778 1.287 . S
O784 Fe770 1.996 . S
O784 C778 1.255 . S
C785 O789 1.295 . S
C785 O790 1.221 1_556 S
O786 Fe771 1.976 1_554 S
O786 C780 1.287 . S
O787 Fe773 1.996 . S
O787 C780 1.255 . S
C788 O781 1.287 . S
C788 O782 1.255 . S
O789 Fe771 2.002 . S
O789 C785 1.295 . S
O790 Fe773 2.011 . S
O790 C785 1.221 1_554 S
C791 O774 1.295 . S
C791 O775 1.235 . S
Fe792 O794 1.918 . S
Fe792 O797 1.997 . S
Fe792 O798 2.002 . S
Fe792 O803 1.976 . S
Fe792 O806 1.996 . S
Fe793 O794 1.918 . S
Fe793 O801 1.997 . S
Fe793 O804 1.996 . S
Fe793 O808 1.976 . S
Fe793 O811 2.002 . S
O794 Fe792 1.918 . S
O794 Fe793 1.918 . S
O794 Fe795 1.918 . S
Fe795 O794 1.918 . S
Fe795 O796 2.002 . S
Fe795 O805 1.976 . S
Fe795 O809 1.996 . S
Fe795 O812 1.997 . S
O796 Fe795 2.002 . S
O796 C813 1.295 . S
O797 Fe792 1.997 . S
O797 C813 1.235 . S
O798 Fe792 2.002 . S
O798 C799 1.295 . S
C799 O798 1.295 . S
C799 O801 1.235 . S
C800 O805 1.287 . S
C800 O806 1.255 . S
O801 Fe793 1.997 . S
O801 C799 1.235 . S
C802 O808 1.287 . S
C802 O809 1.255 . S
O803 Fe792 1.976 . S
O803 C810 1.287 . S
O804 Fe793 1.996 . S
O804 C810 1.255 . S
O805 Fe795 1.976 . S
O805 C800 1.287 . S
O806 Fe792 1.996 . S
O806 C800 1.255 . S
C807 O811 1.295 . S
C807 O812 1.235 . S
O808 Fe793 1.976 . S
O808 C802 1.287 . S
O809 Fe795 1.996 . S
O809 C802 1.255 . S
C810 O803 1.287 . S
C810 O804 1.255 . S
O811 Fe793 2.002 . S
O811 C807 1.295 . S
O812 Fe795 1.997 . S
O812 C807 1.235 . S
C813 O796 1.295 . S
C813 O797 1.235 . S
Fe814 O816 1.918 . S
Fe814 O819 1.997 . S
Fe814 O820 2.002 . S
Fe814 O825 1.976 . S
Fe814 O828 1.996 . S
Fe815 O816 1.918 . S
Fe815 O823 1.997 . S
Fe815 O826 1.996 . S
Fe815 O830 1.976 . S
Fe815 O833 2.002 . S
O816 Fe814 1.918 . S
O816 Fe815 1.918 . S
O816 Fe817 1.918 . S
Fe817 O816 1.918 . S
Fe817 O818 2.002 . S
Fe817 O827 1.976 . S
Fe817 O831 1.996 . S
Fe817 O834 1.997 . S
O818 Fe817 2.002 . S
O818 C835 1.295 . S
O819 Fe814 1.997 . S
O819 C835 1.235 . S
O820 Fe814 2.002 . S
O820 C821 1.295 . S
C821 O820 1.295 . S
C821 O823 1.235 . S
C822 O827 1.287 . S
C822 O828 1.255 . S
O823 Fe815 1.997 . S
O823 C821 1.235 . S
C824 O830 1.287 . S
C824 O831 1.255 . S
O825 Fe814 1.976 . S
O825 C832 1.287 . S
O826 Fe815 1.996 . S
O826 C832 1.255 . S
O827 Fe817 1.976 . S
O827 C822 1.287 . S
O828 Fe814 1.996 . S
O828 C822 1.255 . S
C829 O833 1.295 . S
C829 O834 1.235 . S
O830 Fe815 1.976 . S
O830 C824 1.287 . S
O831 Fe817 1.996 . S
O831 C824 1.255 . S
C832 O825 1.287 . S
C832 O826 1.255 . S
O833 Fe815 2.002 . S
O833 C829 1.295 . S
O834 Fe817 1.997 . S
O834 C829 1.235 . S
C835 O818 1.295 . S
C835 O819 1.235 . S
Fe836 O838 1.918 . S
Fe836 O841 1.997 . S
Fe836 O842 2.002 . S
Fe836 O847 1.976 . S
Fe836 O850 1.996 . S
Fe837 O838 1.918 . S
Fe837 O845 1.997 . S
Fe837 O848 1.996 . S
Fe837 O852 1.976 . S
Fe837 O855 2.002 . S
O838 Fe836 1.918 . S
O838 Fe837 1.918 . S
O838 Fe839 1.918 . S
Fe839 O838 1.918 . S
Fe839 O840 2.002 . S
Fe839 O849 1.976 . S
Fe839 O853 1.996 . S
Fe839 O856 1.997 . S
O840 Fe839 2.002 . S
O840 C857 1.295 . S
O841 Fe836 1.997 . S
O841 C857 1.235 . S
O842 Fe836 2.002 . S
O842 C843 1.295 . S
C843 O842 1.295 . S
C843 O845 1.235 . S
C844 O849 1.287 . S
C844 O850 1.255 . S
O845 Fe837 1.997 . S
O845 C843 1.235 . S
C846 O852 1.287 . S
C846 O853 1.255 . S
O847 Fe836 1.976 . S
O847 C854 1.287 . S
O848 Fe837 1.996 . S
O848 C854 1.255 . S
O849 Fe839 1.976 . S
O849 C844 1.287 . S
O850 Fe836 1.996 . S
O850 C844 1.255 . S
C851 O855 1.295 . S
C851 O856 1.235 . S
O852 Fe837 1.976 . S
O852 C846 1.287 . S
O853 Fe839 1.996 . S
O853 C846 1.255 . S
C854 O847 1.287 . S
C854 O848 1.255 . S
O855 Fe837 2.002 . S
O855 C851 1.295 . S
O856 Fe839 1.997 . S
O856 C851 1.235 . S
C857 O840 1.295 . S
C857 O841 1.235 . S
Fe858 O860 1.918 . S
Fe858 O863 1.997 . S
Fe858 O864 2.002 . S
Fe858 O869 1.976 . S
Fe858 O872 1.996 . S
Fe859 O860 1.918 . S
Fe859 O867 1.997 . S
Fe859 O870 1.996 . S
Fe859 O874 1.976 . S
Fe859 O877 2.002 . S
O860 Fe858 1.918 . S
O860 Fe859 1.918 . S
O860 Fe861 1.918 . S
Fe861 O860 1.918 . S
Fe861 O862 2.002 . S
Fe861 O871 1.976 . S
Fe861 O875 1.996 . S
Fe861 O878 1.997 . S
O862 Fe861 2.002 . S
O862 C879 1.295 . S
O863 Fe858 1.997 . S
O863 C879 1.235 . S
O864 Fe858 2.002 . S
O864 C865 1.295 . S
C865 O864 1.295 . S
C865 O867 1.235 . S
C866 O871 1.287 . S
C866 O872 1.255 . S
O867 Fe859 1.997 . S
O867 C865 1.235 . S
C868 O874 1.287 . S
C868 O875 1.255 . S
O869 Fe858 1.976 . S
O869 C876 1.287 . S
O870 Fe859 1.996 . S
O870 C876 1.255 . S
O871 Fe861 1.976 . S
O871 C866 1.287 . S
O872 Fe858 1.996 . S
O872 C866 1.255 . S
C873 O877 1.295 . S
C873 O878 1.235 . S
O874 Fe859 1.976 . S
O874 C868 1.287 . S
O875 Fe861 1.996 . S
O875 C868 1.255 . S
C876 O869 1.287 . S
C876 O870 1.255 . S
O877 Fe859 2.002 . S
O877 C873 1.295 . S
O878 Fe861 1.997 . S
O878 C873 1.235 . S
C879 O862 1.295 . S
C879 O863 1.235 . S
Fe880 O882 1.918 . S
Fe880 O885 1.997 . S
Fe880 O886 2.002 . S
Fe880 O891 1.976 . S
Fe880 O894 1.996 . S
Fe881 O882 1.918 . S
Fe881 O889 1.997 . S
Fe881 O892 1.996 . S
Fe881 O896 1.976 . S
Fe881 O899 2.002 . S
O882 Fe880 1.918 . S
O882 Fe881 1.918 . S
O882 Fe883 1.918 . S
Fe883 O882 1.918 . S
Fe883 O884 2.002 . S
Fe883 O893 1.976 . S
Fe883 O897 1.996 . S
Fe883 O900 1.997 . S
O884 Fe883 2.002 . S
O884 C901 1.295 . S
O885 Fe880 1.997 . S
O885 C901 1.235 . S
O886 Fe880 2.002 . S
O886 C887 1.295 . S
C887 O886 1.295 . S
C887 O889 1.235 . S
C888 O893 1.287 . S
C888 O894 1.255 . S
O889 Fe881 1.997 . S
O889 C887 1.235 . S
C890 O896 1.287 . S
C890 O897 1.255 . S
O891 Fe880 1.976 . S
O891 C898 1.287 . S
O892 Fe881 1.996 . S
O892 C898 1.255 . S
O893 Fe883 1.976 . S
O893 C888 1.287 . S
O894 Fe880 1.996 . S
O894 C888 1.255 . S
C895 O899 1.295 . S
C895 O900 1.235 . S
O896 Fe881 1.976 . S
O896 C890 1.287 . S
O897 Fe883 1.996 . S
O897 C890 1.255 . S
C898 O891 1.287 . S
C898 O892 1.255 . S
O899 Fe881 2.002 . S
O899 C895 1.295 . S
O900 Fe883 1.997 . S
O900 C895 1.235 . S
C901 O884 1.295 . S
C901 O885 1.235 . S
Fe902 O904 1.918 . S
Fe902 O907 1.997 . S
Fe902 O908 2.002 . S
Fe902 O913 1.976 . S
Fe902 O916 1.996 . S
Fe903 O904 1.918 . S
Fe903 O911 1.997 . S
Fe903 O914 1.996 . S
Fe903 O918 1.976 . S
Fe903 O921 2.002 . S
O904 Fe902 1.918 . S
O904 Fe903 1.918 . S
O904 Fe905 1.918 1_545 S
Fe905 O904 1.918 1_565 S
Fe905 O906 2.002 1_565 S
Fe905 O915 1.976 . S
Fe905 O919 1.996 . S
Fe905 O922 1.997 1_565 S
O906 Fe905 2.002 1_545 S
O906 C923 1.295 . S
O907 Fe902 1.997 . S
O907 C923 1.235 . S
O908 Fe902 2.002 . S
O908 C909 1.295 . S
C909 O908 1.295 . S
C909 O911 1.235 . S
C910 O915 1.287 . S
C910 O916 1.254 1_565 S
O911 Fe903 1.997 . S
O911 C909 1.235 . S
C912 O918 1.306 . S
C912 O919 1.244 1_545 S
O913 Fe902 1.976 . S
O913 C920 1.287 . S
O914 Fe903 1.996 . S
O914 C920 1.255 . S
O915 Fe905 1.976 . S
O915 C910 1.287 . S
O916 Fe902 1.996 . S
O916 C910 1.254 1_545 S
C917 O921 1.295 . S
C917 O922 1.235 . S
O918 Fe903 1.976 . S
O918 C912 1.306 . S
O919 Fe905 1.996 . S
O919 C912 1.244 1_565 S
C920 O913 1.287 . S
C920 O914 1.255 . S
O921 Fe903 2.002 . S
O921 C917 1.295 . S
O922 Fe905 1.997 1_545 S
O922 C917 1.235 . S
C923 O906 1.295 . S
C923 O907 1.235 . S
Fe924 O926 1.918 . S
Fe924 O929 1.997 . S
Fe924 O930 2.002 . S
Fe924 O935 1.976 . S
Fe924 O938 1.996 . S
Fe925 O926 1.918 . S
Fe925 O933 1.997 . S
Fe925 O936 1.996 . S
Fe925 O940 1.976 . S
Fe925 O943 2.002 . S
O926 Fe924 1.918 . S
O926 Fe925 1.918 . S
O926 Fe927 1.918 . S
Fe927 O926 1.918 . S
Fe927 O928 2.002 . S
Fe927 O937 1.976 . S
Fe927 O941 1.996 . S
Fe927 O944 1.997 . S
O928 Fe927 2.002 . S
O928 C945 1.295 . S
O929 Fe924 1.997 . S
O929 C945 1.235 . S
O930 Fe924 2.002 . S
O930 C931 1.295 . S
C931 O930 1.295 . S
C931 O933 1.235 . S
C932 O937 1.287 . S
C932 O938 1.255 . S
O933 Fe925 1.997 . S
O933 C931 1.235 . S
C934 O940 1.287 . S
C934 O941 1.255 . S
O935 Fe924 1.976 . S
O935 C942 1.287 . S
O936 Fe925 1.996 . S
O936 C942 1.255 . S
O937 Fe927 1.976 . S
O937 C932 1.287 . S
O938 Fe924 1.996 . S
O938 C932 1.255 . S
C939 O943 1.295 . S
C939 O944 1.235 . S
O940 Fe925 1.976 . S
O940 C934 1.287 . S
O941 Fe927 1.996 . S
O941 C934 1.255 . S
C942 O935 1.287 . S
C942 O936 1.255 . S
O943 Fe925 2.002 . S
O943 C939 1.295 . S
O944 Fe927 1.997 . S
O944 C939 1.235 . S
C945 O928 1.295 . S
C945 O929 1.235 . S
Fe946 O948 1.918 . S
Fe946 O951 1.997 . S
Fe946 O952 2.002 . S
Fe946 O957 1.976 . S
Fe946 O960 1.996 . S
Fe947 O948 1.918 1_545 S
Fe947 O955 1.997 1_545 S
Fe947 O958 1.996 . S
Fe947 O962 1.976 . S
Fe947 O965 2.002 1_545 S
O948 Fe946 1.918 . S
O948 Fe947 1.918 1_565 S
O948 Fe949 1.918 . S
Fe949 O948 1.918 . S
Fe949 O950 2.002 . S
Fe949 O959 1.976 . S
Fe949 O963 1.980 1_565 S
Fe949 O966 1.997 . S
O950 Fe949 2.002 . S
O950 C967 1.295 . S
O951 Fe946 1.997 . S
O951 C967 1.235 . S
O952 Fe946 2.002 . S
O952 C953 1.295 . S
C953 O952 1.295 . S
C953 O955 1.235 . S
C954 O959 1.287 . S
C954 O960 1.255 . S
O955 Fe947 1.997 1_565 S
O955 C953 1.235 . S
C956 O962 1.287 . S
C956 O963 1.269 . S
O957 Fe946 1.976 . S
O957 C964 1.279 1_565 S
O958 Fe947 1.996 . S
O958 C964 1.259 . S
O959 Fe949 1.976 . S
O959 C954 1.287 . S
O960 Fe946 1.996 . S
O960 C954 1.255 . S
C961 O965 1.295 . S
C961 O966 1.235 . S
O962 Fe947 1.976 . S
O962 C956 1.287 . S
O963 Fe949 1.980 1_545 S
O963 C956 1.269 . S
C964 O957 1.279 1_545 S
C964 O958 1.259 . S
O965 Fe947 2.002 1_565 S
O965 C961 1.295 . S
O966 Fe949 1.997 . S
O966 C961 1.235 . S
C967 O950 1.295 . S
C967 O951 1.235 . S
Fe968 O970 1.918 . S
Fe968 O973 1.997 . S
Fe968 O974 2.002 . S
Fe968 O979 1.976 . S
Fe968 O982 1.996 . S
Fe969 O970 1.918 . S
Fe969 O977 1.997 . S
Fe969 O980 1.996 . S
Fe969 O984 1.976 . S
Fe969 O987 2.002 . S
O970 Fe968 1.918 . S
O970 Fe969 1.918 . S
O970 Fe971 1.918 . S
Fe971 O970 1.918 . S
Fe971 O972 2.002 . S
Fe971 O981 1.976 . S
Fe971 O985 1.996 . S
Fe971 O988 1.997 . S
O972 Fe971 2.002 . S
O972 C989 1.295 . S
O973 Fe968 1.997 . S
O973 C989 1.235 . S
O974 Fe968 2.002 . S
O974 C975 1.295 . S
C975 O974 1.295 . S
C975 O977 1.235 . S
C976 O981 1.287 . S
C976 O982 1.255 . S
O977 Fe969 1.997 . S
O977 C975 1.235 . S
C978 O984 1.287 . S
C978 O985 1.255 . S
O979 Fe968 1.976 . S
O979 C986 1.287 . S
O980 Fe969 1.996 . S
O980 C986 1.255 . S
O981 Fe971 1.976 . S
O981 C976 1.287 . S
O982 Fe968 1.996 . S
O982 C976 1.255 . S
C983 O987 1.295 . S
C983 O988 1.235 . S
O984 Fe969 1.976 . S
O984 C978 1.287 . S
O985 Fe971 1.996 . S
O985 C978 1.255 . S
C986 O979 1.287 . S
C986 O980 1.255 . S
O987 Fe969 2.002 . S
O987 C983 1.295 . S
O988 Fe971 1.997 . S
O988 C983 1.235 . S
C989 O972 1.295 . S
C989 O973 1.235 . S
Fe990 O992 1.918 . S
Fe990 O995 1.997 . S
Fe990 O996 2.002 . S
Fe990 O1001 1.976 . S
Fe990 O1004 2.009 . S
Fe991 O992 1.918 . S
Fe991 O999 1.997 . S
Fe991 O1002 1.996 . S
Fe991 O1006 1.976 . S
Fe991 O1009 2.002 . S
O992 Fe990 1.918 . S
O992 Fe991 1.918 . S
O992 Fe993 1.918 1_554 S
Fe993 O992 1.918 1_556 S
Fe993 O994 2.002 1_556 S
Fe993 O1003 1.976 . S
Fe993 O1007 1.996 . S
Fe993 O1010 1.997 1_556 S
O994 Fe993 2.002 1_554 S
O994 C1011 1.295 . S
O995 Fe990 1.997 . S
O995 C1011 1.235 . S
O996 Fe990 2.002 . S
O996 C997 1.295 . S
C997 O996 1.295 . S
C997 O999 1.235 . S
C998 O1003 1.287 . S
C998 O1004 1.242 1_556 S
O999 Fe991 1.997 . S
O999 C997 1.235 . S
C1000 O1006 1.308 . S
C1000 O1007 1.243 1_554 S
O1001 Fe990 1.976 . S
O1001 C1008 1.287 . S
O1002 Fe991 1.996 . S
O1002 C1008 1.255 . S
O1003 Fe993 1.976 . S
O1003 C998 1.287 . S
O1004 Fe990 2.009 . S
O1004 C998 1.242 1_554 S
C1005 O1009 1.295 . S
C1005 O1010 1.235 . S
O1006 Fe991 1.976 . S
O1006 C1000 1.308 . S
O1007 Fe993 1.996 . S
O1007 C1000 1.243 1_556 S
C1008 O1001 1.287 . S
C1008 O1002 1.255 . S
O1009 Fe991 2.002 . S
O1009 C1005 1.295 . S
O1010 Fe993 1.997 1_554 S
O1010 C1005 1.235 . S
C1011 O994 1.295 . S
C1011 O995 1.235 . S
Fe1012 O1014 1.918 1_556 S
Fe1012 O1017 1.997 1_556 S
Fe1012 O1018 2.002 1_556 S
Fe1012 O1023 1.976 . S
Fe1012 O1026 1.996 . S
Fe1013 O1014 1.918 . S
Fe1013 O1021 1.997 . S
Fe1013 O1024 1.996 . S
Fe1013 O1028 1.976 . S
Fe1013 O1031 2.002 . S
O1014 Fe1012 1.918 1_554 S
O1014 Fe1013 1.918 . S
O1014 Fe1015 1.918 . S
Fe1015 O1014 1.918 . S
Fe1015 O1016 2.002 . S
Fe1015 O1025 1.976 . S
Fe1015 O1029 1.996 . S
Fe1015 O1032 1.997 . S
O1016 Fe1015 2.002 . S
O1016 C1033 1.295 . S
O1017 Fe1012 1.997 1_554 S
O1017 C1033 1.235 . S
O1018 Fe1012 2.002 1_554 S
O1018 C1019 1.295 . S
C1019 O1018 1.295 . S
C1019 O1021 1.235 . S
C1020 O1025 1.293 . S
C1020 O1026 1.251 1_554 S
O1021 Fe1013 1.997 . S
O1021 C1019 1.235 . S
C1022 O1028 1.287 . S
C1022 O1029 1.255 . S
O1023 Fe1012 1.976 . S
O1023 C1030 1.287 . S
O1024 Fe1013 1.996 . S
O1024 C1030 1.254 1_554 S
O1025 Fe1015 1.976 . S
O1025 C1020 1.293 . S
O1026 Fe1012 1.996 . S
O1026 C1020 1.251 1_556 S
C1027 O1031 1.295 . S
C1027 O1032 1.235 . S
O1028 Fe1013 1.976 . S
O1028 C1022 1.287 . S
O1029 Fe1015 1.996 . S
O1029 C1022 1.255 . S
C1030 O1023 1.287 . S
C1030 O1024 1.254 1_556 S
O1031 Fe1013 2.002 . S
O1031 C1027 1.295 . S
O1032 Fe1015 1.997 . S
O1032 C1027 1.235 . S
C1033 O1016 1.295 . S
C1033 O1017 1.235 . S
Fe1034 O1036 1.918 1_554 S
Fe1034 O1039 1.997 1_554 S
Fe1034 O1040 2.002 1_554 S
Fe1034 O1045 1.976 . S
Fe1034 O1048 1.996 . S
Fe1035 O1036 1.918 . S
Fe1035 O1043 1.997 . S
Fe1035 O1046 1.998 1_556 S
Fe1035 O1050 1.976 . S
Fe1035 O1053 2.002 . S
O1036 Fe1034 1.918 1_556 S
O1036 Fe1035 1.918 . S
O1036 Fe1037 1.918 . S
Fe1037 O1036 1.918 . S
Fe1037 O1038 2.002 . S
Fe1037 O1047 1.976 . S
Fe1037 O1051 1.996 . S
Fe1037 O1054 1.997 . S
O1038 Fe1037 2.002 . S
O1038 C1055 1.295 . S
O1039 Fe1034 1.997 1_556 S
O1039 C1055 1.235 . S
O1040 Fe1034 2.002 1_556 S
O1040 C1041 1.295 . S
C1041 O1040 1.295 . S
C1041 O1043 1.235 . S
C1042 O1047 1.293 . S
C1042 O1048 1.251 1_556 S
O1043 Fe1035 1.997 . S
O1043 C1041 1.235 . S
C1044 O1050 1.287 . S
C1044 O1051 1.255 . S
O1045 Fe1034 1.976 . S
O1045 C1052 1.287 . S
O1046 Fe1035 1.998 1_554 S
O1046 C1052 1.253 . S
O1047 Fe1037 1.976 . S
O1047 C1042 1.293 . S
O1048 Fe1034 1.996 . S
O1048 C1042 1.251 1_554 S
C1049 O1053 1.295 . S
C1049 O1054 1.235 . S
O1050 Fe1035 1.976 . S
O1050 C1044 1.287 . S
O1051 Fe1037 1.996 . S
O1051 C1044 1.255 . S
C1052 O1045 1.287 . S
C1052 O1046 1.253 . S
O1053 Fe1035 2.002 . S
O1053 C1049 1.295 . S
O1054 Fe1037 1.997 . S
O1054 C1049 1.235 . S
C1055 O1038 1.295 . S
C1055 O1039 1.235 . S
C18 C32 0.244 1_455 S
C74 C62 0.239 1_655 S
C96 C150 0.229 1_545 S
C164 C120 0.233 . S
C766 C184 0.215 1_556 S
C263 C208 0.276 . S
C238 C712 0.215 . S
C282 C304 0.243 1_655 S
C318 C348 0.252 1_655 S
C362 C406 0.235 1_565 S
C436 C382 0.259 . S
C1020 C450 0.243 1_554 S
C472 C514 0.239 . S
C492 C986 0.243 . S
C558 C536 0.244 . S
C602 C582 0.239 . S
C624 C678 0.229 . S
C646 C692 0.233 1_565 S
C777 C736 0.276 1_554 S
C802 C822 0.245 . S
C876 C854 0.255 . S
C934 C898 0.236 . S
C964 C912 0.259 . S
C1000 C1042 0.237 1_554 S
C65 C21 2.163 1_565 S
C81 C29 2.154 . S
C103 C689 2.159 1_554 S
C681 C117 2.150 1_556 S
C153 C653 2.150 . S
C161 C631 2.159 . S
C191 C780 2.157 1_455 S
C205 C241 2.166 1_455 S
C719 C260 2.157 . S
C279 C329 2.260 1_565 S
C301 C345 2.270 . S
C961 C373 2.256 1_554 S
C945 C381 2.273 1_554 S
C923 C417 2.273 . S
C433 C895 2.256 . S
C1041 C461 2.277 1_455 S
C491 C483 2.274 1_455 S
C513 C983 2.277 . S
C543 C579 2.163 . S
C565 C609 2.154 1_565 S
C769 C733 2.166 . S
C813 C851 2.260 . S
C821 C873 2.270 1_545 S
C1011 C1019 2.274 . S
C7 C183 2.798 . S
C778 C37 2.793 . S
C219 C51 2.819 . S
C87 C235 2.802 . S
C15 C109 2.804 . S
C125 C43 2.822 . S
C139 C59 2.807 . S
C169 C73 2.799 . S
C197 C95 2.789 . S
C213 C147 2.781 . S
C227 C175 2.816 . S
C645 C250 2.801 . S
C271 C447 2.752 . S
C293 C1049 2.757 . S
C323 C469 2.753 . S
C499 C337 2.751 . S
C285 C367 2.747 . S
C395 C307 2.748 . S
C411 C315 2.776 . S
C351 C425 2.771 . S
C359 C455 2.760 . S
C477 C403 2.749 . S
C505 C439 2.755 . S
C527 C909 2.762 . S
C711 C549 2.798 . S
C571 C252 2.793 . S
C747 C587 2.819 . S
C615 C763 2.802 . S
C535 C637 2.804 . S
C659 C557 2.822 . S
C667 C593 2.807 . S
C697 C601 2.799 . S
C725 C623 2.789 . S
C675 C741 2.781 . S
C703 C755 2.816 . S
C788 C131 2.801 . S
C807 C989 2.752 . S
C835 C521 2.757 . S
C997 C843 2.753 . S
C865 C1027 2.751 . S
C887 C799 2.747 . S
C917 C829 2.748 . S
C939 C857 2.776 . S
C953 C879 2.771 . S
C975 C901 2.760 . S
C1005 C931 2.749 . S
C1033 C967 2.755 . S
C1055 C389 2.762 . S
C10 C502 1.845 . S
C470 C30 1.840 . S
C54 C1052 1.839 . S
C84 C448 1.836 . S
C832 C106 1.844 . S
C800 C118 1.822 . S
C142 C868 1.849 . S
C162 C846 1.865 . S
C932 C194 1.846 . S
C890 C206 1.833 . S
C230 C910 1.847 . S
C257 C428 1.889 . S
C228 C272 1.814 . S
C294 C216 1.808 . S
C326 C785 1.834 . S
C186 C338 1.788 . S
C370 C560 1.813 . S
C384 C538 1.806 . S
C414 C604 1.811 . S
C426 C590 1.809 . S
C458 C668 1.802 . S
C626 C480 1.805 . S
C494 C648 1.804 . S
C516 C172 1.811 . S
C1030 C546 1.845 . S
C998 C568 1.840 . S
C580 C524 1.839 . S
C978 C612 1.836 . S
C296 C634 1.844 . S
C274 C656 1.822 . S
C670 C340 1.849 . S
C690 C316 1.865 . S
C404 C722 1.846 . S
C360 C734 1.833 . S
C392 C758 1.847 . S
C791 C956 1.889 . S
C810 C756 1.814 . S
C744 C824 1.808 . S
C844 C249 1.834 . S
C866 C714 1.788 . S
C40 C888 1.813 . S
C8 C920 1.806 . S
C942 C76 1.811 . S
C52 C954 1.809 . S
C140 C976 1.802 . S
C1008 C98 1.805 . S
C1022 C128 1.804 . S
C700 C1044 1.811 . S
