# Generated by pormake.
# Topology uns, (4)-cn, num edge types: 1
# Building blocks:
#     Node 0, Type 0, BuildingBlock: QUQFOY_clean_sbu_1, # of connection points: 4
#     Node 1, Type 0, BuildingBlock: QUQFOY_clean_sbu_1, # of connection points: 4
#     Node 2, Type 0, BuildingBlock: QUQFOY_clean_sbu_1, # of connection points: 4
#     Node 3, Type 0, BuildingBlock: QUQFOY_clean_sbu_1, # of connection points: 4
#     Node 4, Type 0, BuildingBlock: QUQFOY_clean_sbu_1, # of connection points: 4
#     Node 5, Type 0, BuildingBlock: QUQFOY_clean_sbu_1, # of connection points: 4
#     Node 6, Type 0, BuildingBlock: QUQFOY_clean_sbu_1, # of connection points: 4
#     Node 7, Type 0, BuildingBlock: QUQFOY_clean_sbu_1, # of connection points: 4
#     Node 8, Type 0, BuildingBlock: QUQFOY_clean_sbu_1, # of connection points: 4
#     Node 9, Type 0, BuildingBlock: QUQFOY_clean_sbu_1, # of connection points: 4
#     Node 10, Type 0, BuildingBlock: QUQFOY_clean_sbu_1, # of connection points: 4
#     Node 11, Type 0, BuildingBlock: QUQFOY_clean_sbu_1, # of connection points: 4
#     Node 12, Type 0, BuildingBlock: QUQFOY_clean_sbu_1, # of connection points: 4
#     Node 13, Type 0, BuildingBlock: QUQFOY_clean_sbu_1, # of connection points: 4
#     Node 14, Type 0, BuildingBlock: QUQFOY_clean_sbu_1, # of connection points: 4
#     Node 15, Type 0, BuildingBlock: QUQFOY_clean_sbu_1, # of connection points: 4
#     Node 16, Type 0, BuildingBlock: QUQFOY_clean_sbu_1, # of connection points: 4
#     Node 17, Type 0, BuildingBlock: QUQFOY_clean_sbu_1, # of connection points: 4
#     Node 18, Type 0, BuildingBlock: QUQFOY_clean_sbu_1, # of connection points: 4
#     Node 19, Type 0, BuildingBlock: QUQFOY_clean_sbu_1, # of connection points: 4
#     Node 20, Type 0, BuildingBlock: QUQFOY_clean_sbu_1, # of connection points: 4
#     Node 21, Type 0, BuildingBlock: QUQFOY_clean_sbu_1, # of connection points: 4
#     Node 22, Type 0, BuildingBlock: QUQFOY_clean_sbu_1, # of connection points: 4
#     Node 23, Type 0, BuildingBlock: QUQFOY_clean_sbu_1, # of connection points: 4
#     Node 24, Type 0, BuildingBlock: QUQFOY_clean_sbu_1, # of connection points: 4
#     Node 25, Type 0, BuildingBlock: QUQFOY_clean_sbu_1, # of connection points: 4
#     Node 26, Type 0, BuildingBlock: QUQFOY_clean_sbu_1, # of connection points: 4
#     Node 27, Type 0, BuildingBlock: QUQFOY_clean_sbu_1, # of connection points: 4
#     Node 28, Type 0, BuildingBlock: QUQFOY_clean_sbu_1, # of connection points: 4
#     Node 29, Type 0, BuildingBlock: QUQFOY_clean_sbu_1, # of connection points: 4
#     Node 30, Type 0, BuildingBlock: QUQFOY_clean_sbu_1, # of connection points: 4
#     Node 31, Type 0, BuildingBlock: QUQFOY_clean_sbu_1, # of connection points: 4
#     Node 32, Type 0, BuildingBlock: QUQFOY_clean_sbu_1, # of connection points: 4
#     Node 33, Type 0, BuildingBlock: QUQFOY_clean_sbu_1, # of connection points: 4
#     Node 34, Type 0, BuildingBlock: QUQFOY_clean_sbu_1, # of connection points: 4
#     Node 35, Type 0, BuildingBlock: QUQFOY_clean_sbu_1, # of connection points: 4
#     Edge 36, Type (0, 0), BuildingBlock: AJUNOK_clean_linker_0, # of connection points: 2
#     Edge 37, Type (0, 0), BuildingBlock: AJUNOK_clean_linker_0, # of connection points: 2
#     Edge 38, Type (0, 0), BuildingBlock: AJUNOK_clean_linker_0, # of connection points: 2
#     Edge 39, Type (0, 0), BuildingBlock: AJUNOK_clean_linker_0, # of connection points: 2
#     Edge 40, Type (0, 0), BuildingBlock: AJUNOK_clean_linker_0, # of connection points: 2
#     Edge 41, Type (0, 0), BuildingBlock: AJUNOK_clean_linker_0, # of connection points: 2
#     Edge 42, Type (0, 0), BuildingBlock: AJUNOK_clean_linker_0, # of connection points: 2
#     Edge 43, Type (0, 0), BuildingBlock: AJUNOK_clean_linker_0, # of connection points: 2
#     Edge 44, Type (0, 0), BuildingBlock: AJUNOK_clean_linker_0, # of connection points: 2
#     Edge 45, Type (0, 0), BuildingBlock: AJUNOK_clean_linker_0, # of connection points: 2
#     Edge 46, Type (0, 0), BuildingBlock: AJUNOK_clean_linker_0, # of connection points: 2
#     Edge 47, Type (0, 0), BuildingBlock: AJUNOK_clean_linker_0, # of connection points: 2
#     Edge 48, Type (0, 0), BuildingBlock: AJUNOK_clean_linker_0, # of connection points: 2
#     Edge 49, Type (0, 0), BuildingBlock: AJUNOK_clean_linker_0, # of connection points: 2
#     Edge 50, Type (0, 0), BuildingBlock: AJUNOK_clean_linker_0, # of connection points: 2
#     Edge 51, Type (0, 0), BuildingBlock: AJUNOK_clean_linker_0, # of connection points: 2
#     Edge 52, Type (0, 0), BuildingBlock: AJUNOK_clean_linker_0, # of connection points: 2
#     Edge 53, Type (0, 0), BuildingBlock: AJUNOK_clean_linker_0, # of connection points: 2
#     Edge 54, Type (0, 0), BuildingBlock: AJUNOK_clean_linker_0, # of connection points: 2
#     Edge 55, Type (0, 0), BuildingBlock: AJUNOK_clean_linker_0, # of connection points: 2
#     Edge 56, Type (0, 0), BuildingBlock: AJUNOK_clean_linker_0, # of connection points: 2
#     Edge 57, Type (0, 0), BuildingBlock: AJUNOK_clean_linker_0, # of connection points: 2
#     Edge 58, Type (0, 0), BuildingBlock: AJUNOK_clean_linker_0, # of connection points: 2
#     Edge 59, Type (0, 0), BuildingBlock: AJUNOK_clean_linker_0, # of connection points: 2
#     Edge 60, Type (0, 0), BuildingBlock: AJUNOK_clean_linker_0, # of connection points: 2
#     Edge 61, Type (0, 0), BuildingBlock: AJUNOK_clean_linker_0, # of connection points: 2
#     Edge 62, Type (0, 0), BuildingBlock: AJUNOK_clean_linker_0, # of connection points: 2
#     Edge 63, Type (0, 0), BuildingBlock: AJUNOK_clean_linker_0, # of connection points: 2
#     Edge 64, Type (0, 0), BuildingBlock: AJUNOK_clean_linker_0, # of connection points: 2
#     Edge 65, Type (0, 0), BuildingBlock: AJUNOK_clean_linker_0, # of connection points: 2
#     Edge 66, Type (0, 0), BuildingBlock: AJUNOK_clean_linker_0, # of connection points: 2
#     Edge 67, Type (0, 0), BuildingBlock: AJUNOK_clean_linker_0, # of connection points: 2
#     Edge 68, Type (0, 0), BuildingBlock: AJUNOK_clean_linker_0, # of connection points: 2
#     Edge 69, Type (0, 0), BuildingBlock: AJUNOK_clean_linker_0, # of connection points: 2
#     Edge 70, Type (0, 0), BuildingBlock: AJUNOK_clean_linker_0, # of connection points: 2
#     Edge 71, Type (0, 0), BuildingBlock: AJUNOK_clean_linker_0, # of connection points: 2
#     Edge 72, Type (0, 0), BuildingBlock: AJUNOK_clean_linker_0, # of connection points: 2
#     Edge 73, Type (0, 0), BuildingBlock: AJUNOK_clean_linker_0, # of connection points: 2
#     Edge 74, Type (0, 0), BuildingBlock: AJUNOK_clean_linker_0, # of connection points: 2
#     Edge 75, Type (0, 0), BuildingBlock: AJUNOK_clean_linker_0, # of connection points: 2
#     Edge 76, Type (0, 0), BuildingBlock: AJUNOK_clean_linker_0, # of connection points: 2
#     Edge 77, Type (0, 0), BuildingBlock: AJUNOK_clean_linker_0, # of connection points: 2
#     Edge 78, Type (0, 0), BuildingBlock: AJUNOK_clean_linker_0, # of connection points: 2
#     Edge 79, Type (0, 0), BuildingBlock: AJUNOK_clean_linker_0, # of connection points: 2
#     Edge 80, Type (0, 0), BuildingBlock: AJUNOK_clean_linker_0, # of connection points: 2
#     Edge 81, Type (0, 0), BuildingBlock: AJUNOK_clean_linker_0, # of connection points: 2
#     Edge 82, Type (0, 0), BuildingBlock: AJUNOK_clean_linker_0, # of connection points: 2
#     Edge 83, Type (0, 0), BuildingBlock: AJUNOK_clean_linker_0, # of connection points: 2
#     Edge 84, Type (0, 0), BuildingBlock: AJUNOK_clean_linker_0, # of connection points: 2
#     Edge 85, Type (0, 0), BuildingBlock: AJUNOK_clean_linker_0, # of connection points: 2
#     Edge 86, Type (0, 0), BuildingBlock: AJUNOK_clean_linker_0, # of connection points: 2
#     Edge 87, Type (0, 0), BuildingBlock: AJUNOK_clean_linker_0, # of connection points: 2
#     Edge 88, Type (0, 0), BuildingBlock: AJUNOK_clean_linker_0, # of connection points: 2
#     Edge 89, Type (0, 0), BuildingBlock: AJUNOK_clean_linker_0, # of connection points: 2
#     Edge 90, Type (0, 0), BuildingBlock: AJUNOK_clean_linker_0, # of connection points: 2
#     Edge 91, Type (0, 0), BuildingBlock: AJUNOK_clean_linker_0, # of connection points: 2
#     Edge 92, Type (0, 0), BuildingBlock: AJUNOK_clean_linker_0, # of connection points: 2
#     Edge 93, Type (0, 0), BuildingBlock: AJUNOK_clean_linker_0, # of connection points: 2
#     Edge 94, Type (0, 0), BuildingBlock: AJUNOK_clean_linker_0, # of connection points: 2
#     Edge 95, Type (0, 0), BuildingBlock: AJUNOK_clean_linker_0, # of connection points: 2
#     Edge 96, Type (0, 0), BuildingBlock: AJUNOK_clean_linker_0, # of connection points: 2
#     Edge 97, Type (0, 0), BuildingBlock: AJUNOK_clean_linker_0, # of connection points: 2
#     Edge 98, Type (0, 0), BuildingBlock: AJUNOK_clean_linker_0, # of connection points: 2
#     Edge 99, Type (0, 0), BuildingBlock: AJUNOK_clean_linker_0, # of connection points: 2
#     Edge 100, Type (0, 0), BuildingBlock: AJUNOK_clean_linker_0, # of connection points: 2
#     Edge 101, Type (0, 0), BuildingBlock: AJUNOK_clean_linker_0, # of connection points: 2
#     Edge 102, Type (0, 0), BuildingBlock: AJUNOK_clean_linker_0, # of connection points: 2
#     Edge 103, Type (0, 0), BuildingBlock: AJUNOK_clean_linker_0, # of connection points: 2
#     Edge 104, Type (0, 0), BuildingBlock: AJUNOK_clean_linker_0, # of connection points: 2
#     Edge 105, Type (0, 0), BuildingBlock: AJUNOK_clean_linker_0, # of connection points: 2
#     Edge 106, Type (0, 0), BuildingBlock: AJUNOK_clean_linker_0, # of connection points: 2
#     Edge 107, Type (0, 0), BuildingBlock: AJUNOK_clean_linker_0, # of connection points: 2
# Relax obj value: 0.035
# Max RMSD: 0.162
# Mean RMSD: 0.162
data_MOF--net-uns--node1-QUQFOY_clean_sbu_1--edge1-AJUNOK_clean_linker_0
_symmetry_space_group_name_H-M    P1
_symmetry_Int_Tables_number       1
_symmetry_cell_setting            triclinic
loop_
_symmetry_equiv_pos_as_xyz
'x, y, z'
_cell_length_a     38.493996
_cell_length_b     38.486041
_cell_length_c     49.003854
_cell_angle_alpha  90.016741
_cell_angle_beta   89.959685
_cell_angle_gamma 120.01634
loop_
_atom_site_label
_atom_site_type_symbol
_atom_site_fract_x
_atom_site_fract_y
_atom_site_fract_z
_atom_type_partial_charge
O0 O 0.29499 0.23377 0.06162 0.0
Cd1 Cd 0.3315 0.20976 0.06993 0.0
Cd2 Cd 0.30964 0.21539 0.12039 0.0
O3 O 0.26516 0.22264 0.10175 0.0
O4 O 0.32821 0.17523 1.0383 0.0
O5 O 0.30368 0.1512 0.07924 0.0
C6 C 0.30859 0.14451 0.05406 0.0
C7 C 0.31091 0.1841 0.16049 0.0
C8 C 0.26856 0.23428 0.07701 0.0
C9 C 0.39502 0.27048 0.10396 0.0
O10 O 0.36522 0.2639 0.11857 0.0
O11 O 0.39015 0.24969 0.08261 0.0
O12 O 0.30321 0.2131 0.16079 0.0
O13 O 0.31077 0.16844 0.13711 0.0
O14 O 0.79894 0.06546 0.06001 0.0
Cd15 Cd 0.82302 0.12571 0.06996 0.0
Cd16 Cd 0.81397 0.09405 0.11854 0.0
O17 O 0.81153 0.0452 0.09898 0.0
O18 O 0.857 0.15849 1.03849 0.0
O19 O 0.88183 0.1553 0.0785 0.0
C20 C 0.88804 0.16826 0.05363 0.0
C21 C 0.84343 0.1287 0.15823 0.0
C22 C 0.80006 0.03828 0.07418 0.0
C23 C 0.7603 0.12451 0.10425 0.0
O24 O 0.76321 0.0967 0.11581 0.0
O25 O 0.78444 0.14493 0.08521 0.0
O26 O 0.81669 0.09104 0.15893 0.0
O27 O 0.8583 0.14444 0.13472 0.0
O28 O 0.96687 0.73344 0.06159 0.0
Cd29 Cd 0.90641 0.69634 0.07007 0.0
Cd30 Cd 0.93364 0.71942 0.12003 0.0
O31 O 0.98457 0.76468 0.10128 0.0
O32 O 0.87439 0.69871 1.03858 0.0
O33 O 0.87573 0.72417 0.0793 0.0
C34 C 0.86357 0.71864 0.05427 0.0
C35 C 0.89912 0.7174 0.15919 0.0
C36 C 0.99323 0.76083 0.07674 0.0
C37 C 0.90493 0.63427 0.1051 0.0
O38 O 0.92867 0.6647 0.11902 0.0
O39 O 0.88813 0.63821 0.08391 0.0
O40 O 0.93628 0.72665 0.16033 0.0
O41 O 0.88411 0.71648 0.13542 0.0
O42 O 0.23814 0.28596 0.52436 0.0
Cd43 Cd 0.21353 0.32123 0.51314 0.0
Cd44 Cd 0.22526 0.29875 0.46561 0.0
O45 O 0.22619 0.25214 0.48586 0.0
O46 O 0.17859 0.32003 0.54387 0.0
O47 O 0.15498 0.29094 0.50391 0.0
C48 C 0.14804 0.29804 0.52851 0.0
C49 C 0.19854 0.30415 0.42467 0.0
C50 C 0.23717 0.25725 0.51078 0.0
C51 C 0.27724 0.38275 0.47979 0.0
O52 O 0.27603 0.35205 0.46947 0.0
O53 O 0.25137 0.37893 0.49749 0.0
O54 O 0.2252 0.29315 0.42528 0.0
O55 O 0.18215 0.30503 0.44754 0.0
O56 O 0.74083 0.95765 0.51748 0.0
Cd57 Cd 0.70558 0.89672 0.50903 0.0
Cd58 Cd 0.72774 0.92567 0.45965 0.0
O59 O 0.7732 0.97635 0.47825 0.0
O60 O 0.70708 0.86659 0.54194 0.0
O61 O 0.73493 0.86656 0.50246 0.0
C62 C 0.72836 0.85573 0.52779 0.0
C63 C 0.72365 0.89106 0.42017 0.0
C64 C 0.76836 0.98458 0.50268 0.0
C65 C 0.64307 0.89443 0.47415 0.0
O66 O 0.67348 0.92126 0.4617 0.0
O67 O 0.64735 0.87596 0.49424 0.0
O68 O 0.73358 0.92843 0.41928 0.0
O69 O 0.72342 0.87582 0.44375 0.0
O70 O 0.07284 0.7885 0.51975 0.0
Cd71 Cd 0.13293 0.81221 0.50996 0.0
Cd72 Cd 0.10245 0.80514 0.46109 0.0
O73 O 0.0528 0.80125 0.48076 0.0
O74 O 0.16505 0.84522 0.54186 0.0
O75 O 0.1635 0.87123 0.50193 0.0
C76 C 0.17562 0.87668 0.52698 0.0
C77 C 0.13806 0.83715 0.42214 0.0
C78 C 0.04572 0.7896 0.50555 0.0
C79 C 0.13209 0.74997 0.47542 0.0
O80 O 0.10613 0.75474 0.46276 0.0
O81 O 0.15127 0.77273 0.49536 0.0
O82 O 0.10056 0.81007 0.42075 0.0
O83 O 0.15297 0.8508 0.44602 0.0
O84 O 0.74219 0.78647 1.02354 0.0
Cd85 Cd 0.70641 0.81085 1.01355 0.0
Cd86 Cd 0.72835 0.80135 0.96453 0.0
O87 O 0.7739 0.79738 0.9842 0.0
O88 O 0.70905 0.84587 0.04465 0.0
O89 O 0.73567 0.8694 1.00406 0.0
C90 C 0.72995 0.87641 1.02899 0.0
C91 C 0.72574 0.82971 0.92346 0.0
C92 C 0.76983 0.78662 1.00915 0.0
C93 C 0.64339 0.74837 0.98026 0.0
O94 O 0.67355 0.75198 0.96744 0.0
O95 O 0.64792 0.77194 0.99988 0.0
O96 O 0.73457 0.80151 0.92423 0.0
O97 O 0.72537 0.84638 0.94632 0.0
O98 O 0.24245 0.95596 1.02267 0.0
Cd99 Cd 0.21853 0.89577 1.01285 0.0
Cd100 Cd 0.2256 0.92659 0.96424 0.0
O101 O 0.22869 0.97573 0.98396 0.0
O102 O 0.18668 0.86408 0.04521 0.0
O103 O 0.1592 0.86509 1.00579 0.0
C104 C 0.1547 0.85349 1.03095 0.0
C105 C 0.19401 0.89146 0.92509 0.0
C106 C 0.24072 0.9829 1.00865 0.0
C107 C 0.28044 0.89667 0.97796 0.0
O108 O 0.2763 0.92345 0.96589 0.0
O109 O 0.25729 0.8769 0.99759 0.0
O110 O 0.22093 0.92904 0.92395 0.0
O111 O 0.18029 0.87609 0.94887 0.0
O112 O 0.07615 0.29006 1.02171 0.0
Cd113 Cd 0.13625 0.32721 1.0125 0.0
Cd114 Cd 0.10571 0.30496 0.96258 0.0
O115 O 0.05581 0.25908 0.98209 0.0
O116 O 0.16681 0.32606 0.04519 0.0
O117 O 0.16821 0.29986 1.00531 0.0
C118 C 0.17849 0.3057 1.03076 0.0
C119 C 0.13655 0.30788 0.92125 0.0
C120 C 0.04894 0.26255 1.00713 0.0
C121 C 0.13574 0.38986 0.97926 0.0
O122 O 0.11092 0.3597 0.96556 0.0
O123 O 0.15409 0.38556 0.99941 0.0
O124 O 0.09949 0.29892 0.92225 0.0
O125 O 0.15378 0.30826 0.944 0.0
O126 O 0.79589 0.73576 0.55886 0.0
Cd127 Cd 0.81889 0.69833 0.56708 0.0
Cd128 Cd 0.81408 0.7207 0.61751 0.0
O129 O 0.80831 0.76607 0.59887 0.0
O130 O 0.85324 0.70111 0.53542 0.0
O131 O 0.87742 0.72571 0.57629 0.0
C132 C 0.88402 0.7207 0.55111 0.0
C133 C 0.84532 0.71852 0.65739 0.0
C134 C 0.79647 0.76277 0.5742 0.0
C135 C 0.75769 0.63564 0.60149 0.0
O136 O 0.76463 0.66576 0.61585 0.0
O137 O 0.77846 0.63994 0.58021 0.0
O138 O 0.81701 0.72722 0.65791 0.0
O139 O 0.86043 0.7181 0.63389 0.0
O140 O 0.29499 0.0642 0.56324 0.0
Cd141 Cd 0.32891 0.12409 0.5751 0.0
Cd142 Cd 0.30613 0.08858 0.62186 0.0
O143 O 0.26005 0.04121 0.6012 0.0
O144 O 0.32845 0.15767 0.54406 0.0
O145 O 0.29749 0.1516 0.58333 0.0
C146 C 0.30553 0.16577 0.55878 0.0
C147 C 0.31067 0.12122 0.66238 0.0
C148 C 0.26606 0.03592 0.57635 0.0
C149 C 0.3903 0.12247 0.60892 0.0
O150 O 0.35974 0.0917 0.61822 0.0
O151 O 0.38623 0.14506 0.59184 0.0
O152 O 0.29996 0.08361 0.66215 0.0
O153 O 0.31183 0.13811 0.63929 0.0
O154 O 0.95969 0.23221 0.55845 0.0
Cd155 Cd 0.89959 0.20976 0.56734 0.0
Cd156 Cd 0.92875 0.21642 0.61702 0.0
O157 O 0.97863 0.21985 0.59804 0.0
O158 O 0.86902 0.17814 0.53462 0.0
O159 O 0.86735 0.15049 0.57453 0.0
C160 C 0.85719 0.14608 0.54906 0.0
C161 C 0.89457 0.18596 0.65679 0.0
C162 C 0.98624 0.23091 0.57317 0.0
C163 C 0.90062 0.27277 0.60106 0.0
O164 O 0.92506 0.26684 0.61472 0.0
O165 O 0.88225 0.25053 0.58074 0.0
O166 O 0.93196 0.2134 0.6574 0.0
O167 O 0.87888 0.17115 0.63327 0.0
O168 O 0.95851 0.56656 0.39295 0.0
Cd169 Cd 0.99509 0.54242 0.40153 0.0
Cd170 Cd 0.97262 0.5488 0.45101 0.0
O171 O 0.92633 0.55243 0.43229 0.0
O172 O 0.9943 0.51043 0.36901 0.0
O173 O 0.96669 0.48316 0.40869 0.0
C174 C 0.97348 0.4785 0.38348 0.0
C175 C 0.97749 0.51867 0.49052 0.0
C176 C 0.93063 0.56514 0.40779 0.0
C177 C 0.05691 0.60342 0.4365 0.0
O178 O 0.02629 0.59946 0.44887 0.0
O179 O 0.05304 0.58067 0.4165 0.0
O180 O 0.9668 0.54555 0.49142 0.0
O181 O 0.9782 0.50397 0.46691 0.0
O182 O 0.4631 0.40006 0.39595 0.0
Cd183 Cd 0.48585 0.46007 0.4055 0.0
Cd184 Cd 0.47927 0.43 0.45444 0.0
O185 O 0.47628 0.38053 0.435 0.0
O186 O 0.51665 0.49117 0.37268 0.0
O187 O 0.54531 0.49212 0.412 0.0
C188 C 0.54906 0.50275 0.38666 0.0
C189 C 0.51155 0.46677 0.49297 0.0
C190 C 0.46481 0.37329 0.41019 0.0
C191 C 0.42304 0.45825 0.43996 0.0
O192 O 0.42828 0.43266 0.45275 0.0
O193 O 0.44573 0.47761 0.42003 0.0
O194 O 0.48498 0.42913 0.49477 0.0
O195 O 0.5246 0.48132 0.46891 0.0
O196 O 0.63167 0.06867 0.39897 0.0
Cd197 Cd 0.57088 0.03214 0.40678 0.0
Cd198 Cd 0.59887 0.05223 0.45788 0.0
O199 O 0.65065 0.09705 0.43949 0.0
O200 O 0.54189 0.03478 0.37369 0.0
O201 O 0.53878 0.05948 0.41377 0.0
C202 C 0.52937 0.05438 0.38816 0.0
C203 C 0.56963 0.05044 0.4997 0.0
C204 C 0.65874 0.09446 0.41458 0.0
C205 C 0.56704 0.96712 0.43969 0.0
O206 O 0.5906 0.9963 0.45462 0.0
O207 O 0.55136 0.973 0.41862 0.0
O208 O 0.60592 0.0572 0.49819 0.0
O209 O 0.55257 0.05163 0.47725 0.0
O210 O 0.90776 0.62306 0.85332 0.0
Cd211 Cd 0.88146 0.6574 0.84352 0.0
Cd212 Cd 0.89252 0.63637 0.7949 0.0
O213 O 0.89587 0.59046 0.8143 0.0
O214 O 0.84749 0.65488 0.8753 0.0
O215 O 0.82243 0.62658 0.83538 0.0
C216 C 0.81638 0.63298 0.86039 0.0
C217 C 0.86638 0.64101 0.75341 0.0
C218 C 0.9078 0.59542 0.83901 0.0
C219 C 0.94335 0.72062 0.81005 0.0
O220 O 0.94221 0.69049 0.79882 0.0
O221 O 0.91817 0.71585 0.82858 0.0
O222 O 0.89409 0.63151 0.75458 0.0
O223 O 0.84875 0.64077 0.77597 0.0
O224 O 0.40573 0.29053 0.85446 0.0
Cd225 Cd 0.3684 0.23035 0.8455 0.0
Cd226 Cd 0.39178 0.25834 0.79587 0.0
O227 O 0.43754 0.30865 0.81498 0.0
O228 O 0.37028 0.19798 0.87693 0.0
O229 O 0.39617 0.19957 0.83631 0.0
C230 C 0.39044 0.18732 0.86133 0.0
C231 C 0.38889 0.22279 0.75703 0.0
C232 C 0.43354 0.31695 0.83958 0.0
C233 C 0.30697 0.23059 0.81072 0.0
O234 O 0.33759 0.25455 0.79704 0.0
O235 O 0.3105 0.21287 0.83157 0.0
O236 O 0.39897 0.26018 0.75555 0.0
O237 O 0.38751 0.20799 0.78095 0.0
O238 O 0.7401 0.12791 0.85316 0.0
Cd239 Cd 0.80029 0.15325 0.84237 0.0
Cd240 Cd 0.76611 0.14112 0.79445 0.0
O241 O 0.71795 0.13912 0.81453 0.0
O242 O 0.83259 0.18621 0.87421 0.0
O243 O 0.82929 0.2125 0.83483 0.0
C244 C 0.84204 0.21778 0.85974 0.0
C245 C 0.79694 0.16716 0.753 0.0
C246 C 0.71213 0.12822 0.83947 0.0
C247 C 0.7994 0.09022 0.80878 0.0
O248 O 0.76974 0.09098 0.79838 0.0
O249 O 0.82092 0.11602 0.82667 0.0
O250 O 0.75951 0.13996 0.75419 0.0
O251 O 0.81464 0.18444 0.77556 0.0
O252 O 0.40942 0.12208 0.35608 0.0
Cd253 Cd 0.37365 0.14711 0.34717 0.0
Cd254 Cd 0.39412 0.13716 0.29795 0.0
O255 O 0.44109 0.13494 0.31661 0.0
O256 O 0.37652 0.18142 0.37888 0.0
O257 O 0.40324 0.20599 0.33851 0.0
C258 C 0.39749 0.21237 0.36358 0.0
C259 C 0.38822 0.16282 0.25652 0.0
C260 C 0.43703 0.12287 0.34125 0.0
C261 C 0.31048 0.0845 0.31408 0.0
O262 O 0.3407 0.08669 0.30225 0.0
O263 O 0.31504 0.10931 0.33283 0.0
O264 O 0.39832 0.13554 0.25756 0.0
O265 O 0.38839 0.18031 0.27913 0.0
O266 O 0.90581 0.29005 0.35552 0.0
Cd267 Cd 0.88344 0.2293 0.34907 0.0
Cd268 Cd 0.88932 0.25508 0.29673 0.0
O269 O 0.89613 0.30723 0.31441 0.0
O270 O 0.85223 0.20086 0.38252 0.0
O271 O 0.82418 0.19547 0.34221 0.0
C272 C 0.82003 0.187 0.36798 0.0
C273 C 0.86284 0.22618 0.25459 0.0
C274 C 0.90661 0.31626 0.33927 0.0
C275 C 0.945 0.22612 0.31609 0.0
O276 O 0.93725 0.24729 0.30025 0.0
O277 O 0.92481 0.21171 0.33787 0.0
O278 O 0.89236 0.26243 0.25641 0.0
O279 O 0.84406 0.2089 0.27685 0.0
O280 O 0.73616 0.62122 0.35243 0.0
Cd281 Cd 0.79686 0.65631 0.34282 0.0
Cd282 Cd 0.76554 0.63367 0.29455 0.0
O283 O 0.71666 0.58735 0.31384 0.0
O284 O 0.8281 0.65566 0.3753 0.0
O285 O 0.8265 0.62643 0.33608 0.0
C286 C 0.83821 0.63372 0.36122 0.0
C287 C 0.79811 0.63847 0.25393 0.0
C288 C 0.70906 0.59281 0.33827 0.0
C289 C 0.79674 0.71784 0.3083 0.0
O290 O 0.76808 0.68705 0.29742 0.0
O291 O 0.81757 0.71414 0.327 0.0
O292 O 0.76054 0.62774 0.25428 0.0
O293 O 0.81502 0.63934 0.27694 0.0
O294 O 0.46057 0.06807 0.89326 0.0
Cd295 Cd 0.48667 0.03376 0.90379 0.0
Cd296 Cd 0.47315 0.0541 0.95152 0.0
O297 O 0.47159 0.10086 0.93211 0.0
O298 O 0.52092 0.03585 0.87235 0.0
O299 O 0.54557 0.0647 0.91221 0.0
C300 C 0.55186 0.05795 0.88735 0.0
C301 C 0.49936 0.04825 0.99259 0.0
C302 C 0.46064 0.09608 0.90719 0.0
C303 C 0.42332 0.97045 0.93619 0.0
O304 O 0.42311 1.00045 0.94653 0.0
O305 O 0.45013 0.97545 0.91895 0.0
O306 O 0.47192 0.05818 0.99191 0.0
O307 O 0.51653 0.04848 0.96981 0.0
O308 O 0.96277 0.40396 0.89674 0.0
Cd309 Cd 0.99847 0.46383 0.90778 0.0
Cd310 Cd 0.97464 0.42952 0.95552 0.0
O311 O 0.92825 0.38189 0.93496 0.0
O312 O 0.99984 0.49579 0.87519 0.0
O313 O 0.9694 0.49444 0.91382 0.0
C314 C 0.97759 0.50609 0.8887 0.0
C315 C 0.9795 0.46163 0.99644 0.0
C316 C 0.93371 0.37622 0.91006 0.0
C317 C 0.059 0.46092 0.94193 0.0
O318 O 0.02796 0.43189 0.95233 0.0
O319 O 0.05576 0.48285 0.92384 0.0
O320 O 0.96827 0.42391 0.9958 0.0
O321 O 0.98086 0.47904 0.97353 0.0
O322 O 0.62899 0.56491 0.89543 0.0
Cd323 Cd 0.56889 0.54046 0.90606 0.0
Cd324 Cd 0.60231 0.55049 0.95395 0.0
O325 O 0.65041 0.55217 0.9338 0.0
O326 O 0.53703 0.50935 0.87357 0.0
O327 O 0.53855 0.48089 0.91243 0.0
C328 C 0.52675 0.47702 0.88734 0.0
C329 C 0.56931 0.52262 0.99451 0.0
C330 C 0.65655 0.56361 0.90897 0.0
C331 C 0.57095 0.60337 0.94035 0.0
O332 O 0.59993 0.60143 0.95085 0.0
O333 O 0.54932 0.57832 0.92212 0.0
O334 O 0.60701 0.54918 0.99427 0.0
O335 O 0.55244 0.50687 0.97142 0.0
O336 O 0.62985 0.90394 0.73045 0.0
Cd337 Cd 0.66772 0.88117 0.73775 0.0
Cd338 Cd 0.64668 0.88564 0.7885 0.0
O339 O 0.60069 0.89131 0.77088 0.0
O340 O 0.66464 0.84768 0.70548 0.0
O341 O 0.64101 0.82237 0.74632 0.0
C342 C 0.64558 0.81647 0.72091 0.0
C343 C 0.64989 0.85401 0.82784 0.0
C344 C 0.60328 0.90326 0.74629 0.0
C345 C 0.73111 0.94271 0.77159 0.0
O346 O 0.70136 0.93536 0.78651 0.0
O347 O 0.72634 0.92205 0.75018 0.0
O348 O 0.64099 0.88217 0.82893 0.0
O349 O 0.64998 0.83929 0.80413 0.0
O350 O 0.12546 0.73264 0.72809 0.0
Cd351 Cd 0.15005 0.79298 0.73768 0.0
Cd352 Cd 0.14184 0.76289 0.7873 0.0
O353 O 0.13634 0.71256 0.76772 0.0
O354 O 0.18585 0.82527 0.70681 0.0
O355 O 0.20839 0.82206 0.74771 0.0
C356 C 0.216 0.83482 0.7228 0.0
C357 C 0.17036 0.79281 0.82864 0.0
C358 C 0.1251 0.70524 0.74288 0.0
C359 C 0.08859 0.79496 0.77142 0.0
O360 O 0.09314 0.7695 0.78492 0.0
O361 O 0.11105 0.81266 0.75104 0.0
O362 O 0.14161 0.75604 0.82755 0.0
O363 O 0.1874 0.81008 0.80593 0.0
O364 O 0.29723 0.4063 0.7273 0.0
Cd365 Cd 0.2372 0.37082 0.73819 0.0
Cd366 Cd 0.2711 0.39274 0.78596 0.0
O367 O 0.31923 0.43947 0.76602 0.0
O368 O 0.20442 0.37126 0.70657 0.0
O369 O 0.20784 0.40054 0.74612 0.0
C370 C 0.19484 0.39307 0.72128 0.0
C371 C 0.23559 0.38657 0.82545 0.0
C372 C 0.32508 0.43469 0.74102 0.0
C373 C 0.23897 0.30891 0.77167 0.0
O374 O 0.26845 0.3394 0.78221 0.0
O375 O 0.2173 0.31307 0.75385 0.0
O376 O 0.27331 0.39771 0.82644 0.0
O377 O 0.22027 0.38595 0.80182 0.0
O378 O 0.5737 0.95398 0.18534 0.0
Cd379 Cd 0.55093 0.99157 0.17699 0.0
Cd380 Cd 0.55468 0.96838 0.12684 0.0
O381 O 0.56045 0.92306 0.14554 0.0
O382 O 0.5175 0.98982 0.20894 0.0
O383 O 0.49218 0.96452 0.16842 0.0
C384 C 0.4863 0.97019 0.19361 0.0
C385 C 0.52204 0.97031 0.08768 0.0
C386 C 0.57273 0.92668 0.17012 0.0
C387 C 0.61201 0.05345 0.14196 0.0
O388 O 0.60458 0.02306 0.12773 0.0
O389 O 0.59158 0.04958 0.16334 0.0
O390 O 0.54994 0.96106 0.08653 0.0
O391 O 0.50807 0.9714 0.11147 0.0
O392 O 0.07796 0.62434 0.18935 0.0
Cd393 Cd 0.04247 0.56392 0.17941 0.0
Cd394 Cd 0.06532 0.59631 0.13102 0.0
O395 O 0.11138 0.64542 0.15062 0.0
O396 O 0.04197 0.53283 0.21231 0.0
O397 O 0.07167 0.53344 0.17351 0.0
C398 C 0.06387 0.52217 0.19871 0.0
C399 C 0.06028 0.56106 0.09163 0.0
C400 C 0.1063 0.65192 0.17543 0.0
C401 C 0.98099 0.56447 0.14481 0.0
O402 O 1.01165 0.59314 0.13376 0.0
O403 O 0.98485 0.54377 0.16355 0.0
O404 O 0.07108 0.59869 0.09062 0.0
O405 O 0.0595 0.54574 0.11529 0.0
O406 O 0.40284 0.45357 0.18652 0.0
Cd407 Cd 0.46324 0.47868 0.1766 0.0
Cd408 Cd 0.4322 0.47056 0.1279 0.0
O409 O 0.38268 0.46656 0.14765 0.0
O410 O 0.49594 0.51281 0.20801 0.0
O411 O 0.49199 0.53747 0.16811 0.0
C412 C 0.50527 0.54378 0.19288 0.0
C413 C 0.46766 0.50192 0.0888 0.0
C414 C 0.37548 0.45426 0.17229 0.0
C415 C 0.46395 0.41768 0.14146 0.0
O416 O 0.43606 0.42038 0.12985 0.0
O417 O 0.48354 0.44123 0.16094 0.0
O418 O 0.43014 0.47486 0.08752 0.0
O419 O 0.48261 0.51602 0.1126 0.0
O420 O 0.07356 0.45858 0.68557 0.0
Cd421 Cd 0.0379 0.48287 0.67464 0.0
Cd422 Cd 0.06239 0.47328 0.62689 0.0
O423 O 0.10854 0.47187 0.6475 0.0
O424 O 0.03617 0.51333 0.70722 0.0
O425 O 0.06687 0.54255 0.66869 0.0
C426 C 0.05835 0.54594 0.69373 0.0
C427 C 0.05813 0.50075 0.58595 0.0
C428 C 0.10278 0.4602 0.67227 0.0
C429 C 0.97788 0.42003 0.63986 0.0
O430 O 1.00907 0.42221 0.6296 0.0
O431 O 0.98086 0.44487 0.65813 0.0
O432 O 0.06937 0.47429 0.58667 0.0
O433 O 0.05644 0.51667 0.60883 0.0
O434 O 0.57568 0.62789 0.6863 0.0
Cd435 Cd 0.54958 0.56767 0.67522 0.0
Cd436 Cd 0.56195 0.60217 0.62772 0.0
O437 O 0.5641 0.65037 0.64798 0.0
O438 O 0.5159 0.53485 0.70674 0.0
O439 O 0.49047 0.53967 0.66741 0.0
C440 C 0.48465 0.52619 0.69214 0.0
C441 C 0.53413 0.56923 0.58716 0.0
C442 C 0.57541 0.65608 0.67283 0.0
C443 C 0.61235 0.56847 0.64137 0.0
O444 O 0.61221 0.59875 0.63147 0.0
O445 O 0.58611 0.54656 0.65893 0.0
O446 O 0.56115 0.6068 0.58734 0.0
O447 O 0.51807 0.55259 0.61025 0.0
O448 O 0.40572 0.95567 0.69416 0.0
Cd449 Cd 0.46607 0.99281 0.68513 0.0
Cd450 Cd 0.43655 0.97046 0.63573 0.0
O451 O 0.38664 0.92411 0.65465 0.0
O452 O 0.49741 0.99171 0.71741 0.0
O453 O 0.49752 0.96513 0.67741 0.0
C454 C 0.50873 0.97132 0.70267 0.0
C455 C 0.47134 0.9746 0.59619 0.0
C456 C 0.379 0.92784 0.67946 0.0
C457 C 0.46569 0.05491 0.65114 0.0
O458 O 0.44008 0.02443 0.63808 0.0
O459 O 0.48451 0.05098 0.67114 0.0
O460 O 0.43391 0.96446 0.59533 0.0
O461 O 0.48671 0.97541 0.61981 0.0
O462 O 0.12966 0.40196 0.23364 0.0
Cd463 Cd 0.15429 0.36602 0.24288 0.0
Cd464 Cd 0.14892 0.39064 0.29147 0.0
O465 O 0.14555 0.43656 0.272 0.0
O466 O 0.18407 0.3649 0.20963 0.0
O467 O 0.2141 0.39493 0.2481 0.0
C468 C 0.21698 0.38681 0.22287 0.0
C469 C 0.18059 0.38626 0.33017 0.0
C470 C 0.13187 0.43084 0.24773 0.0
C471 C 0.0939 0.30607 0.27937 0.0
O472 O 0.09768 0.33738 0.29059 0.0
O473 O 0.11666 0.30892 0.2596 0.0
O474 O 0.15451 0.39799 0.33166 0.0
O475 O 0.19384 0.38439 0.30625 0.0
O476 O 0.6271 0.73205 0.22468 0.0
Cd477 Cd 0.66361 0.79228 0.23425 0.0
Cd478 Cd 0.64113 0.7609 0.28345 0.0
O479 O 0.59508 0.71157 0.26395 0.0
O480 O 0.66273 0.82329 0.20173 0.0
O481 O 0.6354 0.82343 0.24143 0.0
C482 C 0.64181 0.83437 0.2161 0.0
C483 C 0.6445 0.79193 0.32466 0.0
C484 C 0.59916 0.70478 0.23902 0.0
C485 C 0.72588 0.79173 0.26782 0.0
O486 O 0.69544 0.76526 0.28047 0.0
O487 O 0.72183 0.81121 0.24829 0.0
O488 O 0.63498 0.7547 0.32373 0.0
O489 O 0.6451 0.80926 0.30189 0.0
O490 O 0.29816 0.90341 0.22752 0.0
Cd491 Cd 0.23809 0.87832 0.23842 0.0
Cd492 Cd 0.27143 0.88871 0.28631 0.0
O493 O 0.31975 0.89108 0.26597 0.0
O494 O 0.20501 0.8438 0.20728 0.0
O495 O 0.20975 0.81946 0.2471 0.0
C496 C 0.19632 0.81294 0.22235 0.0
C497 C 0.23908 0.86036 0.32701 0.0
C498 C 0.3259 0.90256 0.24114 0.0
C499 C 0.23947 0.94125 0.27242 0.0
O500 O 0.26815 0.9392 0.28334 0.0
O501 O 0.21819 0.91621 0.25406 0.0
O502 O 0.2766 0.88745 0.32663 0.0
O503 O 0.22212 0.84457 0.30395 0.0
C504 C 0.33418 0.19845 0.20906 0.0
C505 C 0.32719 0.17504 0.18538 0.0
C506 C 0.35526 0.19542 0.23144 0.0
C507 C 0.37042 0.16888 0.23121 0.0
H508 H 0.32403 0.22006 0.21022 0.0
H509 H 0.35937 0.21392 0.24916 0.0
S510 S 0.35907 0.09953 0.17461 0.0
N511 N 0.33632 0.12347 0.16344 0.0
N512 N 0.37589 0.11776 0.20533 0.0
C513 C 0.36329 0.1449 0.20777 0.0
C514 C 0.34163 0.14788 0.18499 0.0
C515 C 0.82784 0.13722 0.20661 0.0
C516 C 0.85097 0.15418 0.18289 0.0
C517 C 0.83027 0.16098 0.22907 0.0
C518 C 0.85602 0.20284 0.22891 0.0
H519 H 0.8071 0.10523 0.20782 0.0
H520 H 0.81232 0.14614 0.24692 0.0
S521 S 0.92263 0.26255 0.17164 0.0
N522 N 0.90018 0.21581 0.16054 0.0
N523 N 0.90486 0.26042 0.20263 0.0
C524 C 0.87911 0.22034 0.20522 0.0
C525 C 0.87665 0.19607 0.18233 0.0
C526 C 0.86456 0.67328 0.23001 0.0
C527 C 0.82262 0.65631 0.22888 0.0
C528 C 0.88913 0.69485 0.20793 0.0
C529 C 0.87296 0.70051 0.18366 0.0
H530 H 0.87876 0.67032 0.24824 0.0
H531 H 0.92111 0.70648 0.20981 0.0
S532 S 0.765 0.66333 0.17032 0.0
N533 N 0.76599 0.64744 0.20143 0.0
N534 N 0.81216 0.68797 0.16008 0.0
C535 C 0.83109 0.68415 0.18232 0.0
C536 C 0.80598 0.66198 0.20479 0.0
C537 C 0.16844 0.3403 0.40065 0.0
C538 C 0.19253 0.32235 0.39956 0.0
C539 C 0.16648 0.36258 0.37865 0.0
C540 C 0.18849 0.36798 0.35447 0.0
H541 H 0.15125 0.33766 0.41882 0.0
H542 H 0.14684 0.37504 0.38054 0.0
S543 S 0.2566 0.3276 0.34107 0.0
N544 N 0.23925 0.31181 0.37212 0.0
N545 N 0.23547 0.35356 0.33088 0.0
C546 C 0.21284 0.35032 0.35308 0.0
C547 C 0.21478 0.32748 0.3755 0.0
C548 C 0.67868 0.85781 0.34935 0.0
C549 C 0.6616 0.81583 0.35005 0.0
C550 C 0.70023 0.88189 0.37162 0.0
C551 C 0.70577 0.86516 0.39568 0.0
H552 H 0.67602 0.87246 0.33125 0.0
H553 H 0.71215 0.91395 0.37 0.0
S554 S 0.6668 0.75668 0.40831 0.0
N555 N 0.65151 0.75845 0.37715 0.0
N556 N 0.69191 0.80366 0.41888 0.0
C557 C 0.68876 0.82319 0.39674 0.0
C558 C 0.66666 0.79859 0.37406 0.0
C559 C 0.14809 0.82525 0.3732 0.0
C560 C 0.1644 0.84627 0.39774 0.0
C561 C 0.17259 0.82857 0.35097 0.0
C562 C 0.2146 0.85306 0.3522 0.0
H563 H 0.11604 0.80542 0.37117 0.0
H564 H 0.15826 0.81213 0.33252 0.0
S565 S 0.27268 0.91482 0.41168 0.0
N566 N 0.22551 0.89273 0.42183 0.0
N567 N 0.27149 0.89902 0.38019 0.0
C568 C 0.2314 0.87434 0.37662 0.0
C569 C 0.20637 0.87103 0.39926 0.0
C570 C 0.67159 0.86599 0.87677 0.0
C571 C 0.66669 0.84469 0.85233 0.0
C572 C 0.69237 0.86242 0.89911 0.0
C573 C 0.70923 0.83735 0.89812 0.0
H574 H 0.6598 0.88621 0.87864 0.0
H575 H 0.69461 0.87907 0.91749 0.0
S576 S 0.70504 0.77487 0.83893 0.0
N577 N 0.68061 0.79749 0.82853 0.0
N578 N 0.71953 0.7907 0.87042 0.0
C579 C 0.70462 0.81583 0.87379 0.0
C580 C 0.68332 0.81941 0.85101 0.0
C581 C 0.20602 0.88256 0.87597 0.0
C582 C 0.18505 0.86564 0.90045 0.0
C583 C 0.20265 0.8586 0.85341 0.0
C584 C 0.17811 0.81658 0.8542 0.0
H585 H 0.22578 0.91467 0.87423 0.0
H586 H 0.21896 0.8734 0.835 0.0
S587 S 0.11692 0.75696 0.91344 0.0
N588 N 0.13893 0.8039 0.9241 0.0
N589 N 0.13251 0.75896 0.88179 0.0
C590 C 0.15703 0.79915 0.87859 0.0
C591 C 0.16042 0.82361 0.90159 0.0
C592 C 0.20247 0.34209 0.8965 0.0
C593 C 0.16045 0.32462 0.89577 0.0
C594 C 0.2265 0.36346 0.87413 0.0
C595 C 0.20967 0.3684 0.84992 0.0
H596 H 0.2172 0.33995 0.91473 0.0
H597 H 0.2586 0.37577 0.87581 0.0
S598 S 0.10102 0.32799 0.83706 0.0
N599 N 0.10293 0.31335 0.8684 0.0
N600 N 0.14799 0.35338 0.8265 0.0
C601 C 0.16764 0.35088 0.84879 0.0
C602 C 0.14311 0.32899 0.87158 0.0
C603 C 0.83088 0.69511 0.70594 0.0
C604 C 0.85416 0.70191 0.6822 0.0
C605 C 0.83381 0.67396 0.7283 0.0
C606 C 0.86014 0.65855 0.72803 0.0
H607 H 0.80948 0.70552 0.70716 0.0
H608 H 0.81547 0.67007 0.74608 0.0
S609 S 0.92889 0.66909 0.67121 0.0
N610 N 0.90523 0.69215 0.6601 0.0
N611 N 0.91078 0.65246 0.70199 0.0
C612 C 0.88391 0.66539 0.70451 0.0
C613 C 0.88101 0.68711 0.68173 0.0
C614 C 0.36724 0.21252 0.70808 0.0
C615 C 0.37186 0.19634 0.7327 0.0
C616 C 0.34589 0.18788 0.68599 0.0
C617 C 0.32809 0.14586 0.68744 0.0
H618 H 0.37961 0.24459 0.70591 0.0
H619 H 0.34382 0.20211 0.66747 0.0
S620 S 0.33193 0.08812 0.74705 0.0
N621 N 0.35723 0.13538 0.75701 0.0
N622 N 0.31709 0.08911 0.71562 0.0
C623 C 0.33258 0.12918 0.7119 0.0
C624 C 0.35454 0.15436 0.7344 0.0
C625 C 0.88622 0.20042 0.70547 0.0
C626 C 0.86917 0.17777 0.68159 0.0
C627 C 0.86247 0.19812 0.72789 0.0
C628 C 0.82051 0.17306 0.72755 0.0
H629 H 0.91826 0.22081 0.70678 0.0
H630 H 0.87735 0.21587 0.7458 0.0
S631 S 0.76074 0.10661 0.67026 0.0
N632 N 0.8075 0.12883 0.6592 0.0
N633 N 0.76289 0.12444 0.70123 0.0
C634 C 0.80299 0.15 0.70385 0.0
C635 C 0.82726 0.15227 0.681 0.0
C636 C 1.00095 0.53332 0.53906 0.0
C637 C 0.99562 0.51104 0.51503 0.0
C638 C 0.02282 0.53129 0.5613 0.0
C639 C 0.04047 0.50691 0.5606 0.0
H640 H 0.98867 0.55315 0.54066 0.0
H641 H 0.02535 0.54864 0.57936 0.0
S642 S 0.03548 0.44225 0.50257 0.0
N643 N 1.00992 0.4636 0.49198 0.0
N644 N 0.05096 0.45976 0.53362 0.0
C645 C 0.03549 0.48448 0.53666 0.0
C646 C 1.01303 0.48644 0.51402 0.0
C647 C 0.49969 0.47753 0.54177 0.0
C648 C 0.52066 0.49351 0.51715 0.0
C649 C 0.50284 0.50235 0.56375 0.0
C650 C 0.52711 0.54437 0.5622 0.0
H651 H 0.47998 0.44549 0.54404 0.0
H652 H 0.48641 0.48826 0.58226 0.0
S653 S 0.58907 0.60163 0.50253 0.0
N654 N 0.56711 0.5543 0.49273 0.0
N655 N 0.57307 0.60088 0.5339 0.0
C656 C 0.54844 0.56084 0.53773 0.0
C657 C 0.54531 0.53548 0.51534 0.0
C658 C 0.50404 0.01733 0.52475 0.0
C659 C 0.54599 0.03425 0.5253 0.0
C660 C 0.48014 0.99654 0.54729 0.0
C661 C 0.49704 0.99173 0.57151 0.0
H662 H 0.48925 0.0194 0.50653 0.0
H663 H 0.44808 0.98462 0.54575 0.0
S664 S 0.60557 0.0307 0.58383 0.0
N665 N 0.60355 0.04499 0.5524 0.0
N666 N 0.5587 1.0061 0.59468 0.0
C667 C 0.539 1.00859 0.57242 0.0
C668 C 0.56341 0.02985 0.54943 0.0
C669 C 0.53143 0.0141 1.01676 0.0
C670 C 0.50595 0.03048 1.01771 0.0
C671 C 0.53467 0.99283 1.03892 0.0
C672 C 0.51259 0.98691 0.06314 0.0
H673 H 0.54886 0.01731 0.9986 0.0
H674 H 0.55542 0.98167 1.03716 0.0
S675 S 0.44034 0.02241 0.07598 0.0
N676 N 0.45734 0.0384 0.04489 0.0
N677 N 0.46347 0.99849 0.08643 0.0
C678 C 0.48655 1.00266 0.06429 0.0
C679 C 0.48333 0.0245 0.04171 0.0
C680 C 1.01451 0.52767 1.02098 0.0
C681 C 0.99735 0.48567 1.02171 0.0
C682 C 0.03638 0.5518 0.04316 0.0
C683 C 0.04219 0.53514 0.06715 0.0
H684 H 1.01154 0.54227 1.00296 0.0
H685 H 0.04823 0.58385 0.04155 0.0
S686 S 1.00397 0.42675 0.07958 0.0
N687 N 0.98804 0.42842 0.04862 0.0
N688 N 0.02904 0.47373 0.09014 0.0
C689 C 0.02534 0.49318 0.06816 0.0
C690 C 1.0029 0.46852 0.04558 0.0
C691 C 0.50276 0.49074 1.01844 0.0
C692 C 0.54467 0.51598 1.01954 0.0
C693 C 0.47805 0.48798 1.0404 0.0
C694 C 0.49405 0.51038 0.06451 0.0
H695 H 0.48867 0.4732 1.00031 0.0
H696 H 0.44611 0.46744 1.03854 0.0
S697 S 0.60191 0.58159 0.07786 0.0
N698 N 0.6011 0.56425 0.04692 0.0
N699 N 0.55471 0.55909 0.088 0.0
C700 C 0.53591 0.53594 0.06588 0.0
C701 C 0.56115 0.53862 0.04354 0.0
C702 C 0.27085 0.05749 1.00373 0.0
C703 C 0.2557 0.02348 1.02069 0.0
C704 C 0.28828 0.09637 1.01472 0.0
C705 C 0.29082 0.10291 0.04314 0.0
H706 H 0.27014 0.05418 0.98175 0.0
H707 H 0.29969 0.1215 1.00073 0.0
S708 S 0.25386 0.02381 0.0965 0.0
N709 N 0.2434 0.99887 0.06744 0.0
N710 N 0.27559 0.07168 0.08801 0.0
C711 C 0.27507 0.06909 0.06033 0.0
C712 C 0.2577 0.02951 0.04915 0.0
C713 C 0.97405 0.21958 1.0026 0.0
C714 C 1.00846 0.23658 1.01922 0.0
C715 C 0.93535 0.19805 1.01392 0.0
C716 C 0.92943 0.19213 0.04233 0.0
H717 H 0.97692 0.22377 0.98068 0.0
H718 H 0.90989 0.18582 1.00021 0.0
S719 S 1.00976 0.22879 0.09476 0.0
N720 N 0.03408 0.24492 0.06557 0.0
N721 N 0.96168 0.20424 0.08674 0.0
C722 C 0.96365 0.20829 0.05914 0.0
C723 C 1.00301 0.23053 0.04763 0.0
C724 C 0.83502 0.73826 1.01503 0.0
C725 C 0.8395 0.73615 0.04343 0.0
C726 C 0.81356 0.75569 1.00412 0.0
C727 C 0.79518 0.77132 1.02114 0.0
H728 H 0.84841 0.72655 1.001 0.0
H729 H 0.81066 0.75612 0.98215 0.0
S730 S 0.79851 0.7741 0.09694 0.0
N731 N 0.82429 0.75205 0.08835 0.0
N732 N 0.7837 0.78431 0.06793 0.0
C733 C 0.79962 0.76965 0.04958 0.0
C734 C 0.82181 0.75223 0.06068 0.0
C735 C 0.06092 0.26298 0.57854 0.0
C736 C 0.02691 0.24532 0.56156 0.0
C737 C 0.09985 0.2803 0.56763 0.0
C738 C 0.10639 0.28018 0.53932 0.0
H739 H 0.05754 0.26443 0.60039 0.0
H740 H 0.12501 0.2938 0.58159 0.0
S741 S 0.02724 0.23564 0.48615 0.0
N742 N 1.00226 0.22755 0.51504 0.0
N743 N 0.07516 0.25949 0.49463 0.0
C744 C 0.07256 0.26176 0.52218 0.0
C745 C 0.03296 0.24453 0.53325 0.0
C746 C 0.77898 0.79275 0.5348 0.0
C747 C 0.781 0.78858 0.56325 0.0
C748 C 0.76207 0.81451 0.52362 0.0
C749 C 0.74582 0.83258 0.54034 0.0
H750 H 0.7905 0.77898 0.52095 0.0
H751 H 0.76136 0.81675 0.50161 0.0
S752 S 0.74353 0.83079 0.61619 0.0
N753 N 0.76548 0.80476 0.60795 0.0
N754 N 0.73333 0.84521 0.58701 0.0
C755 C 0.74776 0.82882 0.56886 0.0
C756 C 0.76548 0.80705 0.58027 0.0
C757 C 0.22254 0.96104 0.57932 0.0
C758 C 0.24169 0.99594 0.5632 0.0
C759 C 0.20193 0.92274 0.56741 0.0
C760 C 0.19906 0.91769 0.53885 0.0
H761 H 0.22416 0.96319 0.60138 0.0
H762 H 0.18784 0.89689 0.58078 0.0
S763 S 0.24271 0.99948 0.48743 0.0
N764 N 0.25579 0.02296 0.51708 0.0
N765 N 0.21663 0.95118 0.49475 0.0
C766 C 0.21755 0.95237 0.52248 0.0
C767 C 0.23895 0.99138 0.53461 0.0
C768 C 0.74955 0.92461 0.06822 0.0
C769 C 0.7483 0.91809 1.03984 0.0
C770 C 0.76757 0.96353 0.0792 0.0
C771 C 0.78462 0.9976 0.06224 0.0
H772 H 0.73663 0.89944 0.0822 0.0
H773 H 0.76722 0.96683 0.10114 0.0
S774 S 0.79044 0.99736 0.98659 0.0
N775 N 0.76684 0.94941 0.99504 0.0
N776 N 0.80007 0.02232 1.0156 0.0
C777 C 0.78391 0.9916 1.03384 0.0
C778 C 0.76596 0.95197 1.02267 0.0
C779 C 0.0799 0.81162 1.02641 0.0
C780 C 0.11399 0.83011 0.04329 0.0
C781 C 0.0411 0.78996 1.03744 0.0
C782 C 0.0346 0.78637 0.06587 0.0
H783 H 0.08313 0.81351 1.00441 0.0
H784 H 1.01596 0.77586 1.0235 0.0
S785 S 0.11365 0.82987 0.11914 0.0
N786 N 0.1386 0.84376 0.09005 0.0
N787 N 0.06578 0.80352 0.11071 0.0
C788 C 0.06838 0.80522 0.08302 0.0
C789 C 0.10799 0.82687 0.07178 0.0
C790 C 0.21948 0.27175 1.02647 0.0
C791 C 0.20138 0.2879 0.04324 0.0
C792 C 0.2404 0.25392 1.03761 0.0
C793 C 0.2437 0.25087 0.06606 0.0
H794 H 0.21778 0.2731 1.00446 0.0
H795 H 0.25416 0.24244 1.02371 0.0
S796 S 0.20103 0.28769 0.11912 0.0
N797 N 0.1878 0.29924 0.08996 0.0
N798 N 0.22671 0.26542 0.11081 0.0
C799 C 0.22529 0.26641 0.08312 0.0
C800 C 0.20434 0.28504 0.07176 0.0
C801 C 0.93209 0.74074 0.51169 0.0
C802 C 0.92559 0.73851 0.54012 0.0
C803 C 0.97098 0.75849 0.50066 0.0
C804 C 1.00506 0.7743 0.51758 0.0
H805 H 0.90692 0.72885 0.49773 0.0
H806 H 0.97426 0.75895 0.47868 0.0
S807 S 1.00482 0.77698 0.59338 0.0
N808 N 0.95692 0.7546 0.58495 0.0
N809 N 0.02973 0.78741 0.5643 0.0
C810 C 0.99904 0.77254 0.54604 0.0
C811 C 0.95947 0.75483 0.55727 0.0
C812 C 0.26908 0.21435 0.50711 0.0
C813 C 0.25222 0.23218 0.52348 0.0
C814 C 0.28666 0.19349 0.51874 0.0
C815 C 0.28757 0.189 0.54723 0.0
H816 H 0.26962 0.21734 0.48511 0.0
H817 H 0.29944 0.18056 0.50521 0.0
S818 S 0.24594 0.22852 0.59916 0.0
N819 N 0.23671 0.24315 0.56971 0.0
N820 N 0.26907 0.20342 0.59151 0.0
C821 C 0.2701 0.206 0.56383 0.0
C822 C 0.25265 0.22771 0.55199 0.0
C823 C 0.79489 0.03239 0.54218 0.0
C824 C 0.79272 0.02602 0.51375 0.0
C825 C 0.81553 0.07117 0.55334 0.0
C826 C 0.83441 0.1054 0.53657 0.0
H827 H 0.78051 1.00714 0.55604 0.0
H828 H 0.81643 0.07428 0.57534 0.0
S829 S 0.83763 0.10544 0.46075 0.0
N830 N 0.81148 0.05749 0.46903 0.0
N831 N 0.84983 0.13027 0.4899 0.0
C832 C 0.83248 0.09954 0.50807 0.0
C833 C 0.81185 0.05995 0.49672 0.0
C834 C 0.93891 0.40366 0.38847 0.0
C835 C 0.95664 0.43764 0.37141 0.0
C836 C 0.92224 0.36473 0.37779 0.0
C837 C 0.92202 0.35789 0.34952 0.0
H838 H 0.93812 0.40707 0.41037 0.0
H839 H 0.90943 0.33972 0.39192 0.0
S840 S 0.96433 0.43641 0.29582 0.0
N841 N 0.97281 0.46174 0.3246 0.0
N842 N 0.94114 0.38859 0.3046 0.0
C843 C 0.93921 0.39152 0.33214 0.0
C844 C 0.95665 0.43131 0.34305 0.0
C845 C 0.62398 0.54538 0.39008 0.0
C846 C 0.58938 0.5258 0.37373 0.0
C847 C 0.66244 0.56641 0.37844 0.0
C848 C 0.66806 0.5682 0.34994 0.0
H849 H 0.6214 0.54476 0.41211 0.0
H850 H 0.68802 0.58136 0.39196 0.0
S851 S 0.58739 0.5215 0.29794 0.0
N852 N 0.56334 0.50936 0.3274 0.0
N853 N 0.63549 0.54838 0.30562 0.0
C854 C 0.63375 0.54836 0.33334 0.0
C855 C 0.5945 0.52739 0.34517 0.0
C856 C 0.4871 0.08705 0.39225 0.0
C857 C 0.50617 0.07178 0.37559 0.0
C858 C 0.46546 0.10404 0.38096 0.0
C859 C 0.46242 0.1071 0.3525 0.0
H860 H 0.48855 0.08559 0.41427 0.0
H861 H 0.45094 0.11486 0.39474 0.0
S862 S 0.50725 0.07214 0.29972 0.0
N863 N 0.52075 0.06113 0.32897 0.0
N864 N 0.48055 0.09338 0.30787 0.0
C865 C 0.48178 0.09243 0.33557 0.0
C866 C 0.50344 0.07466 0.34706 0.0
C867 C 0.73149 0.59599 0.91245 0.0
C868 C 0.69669 0.57867 0.89623 0.0
C869 C 0.76991 0.61378 0.90066 0.0
C870 C 0.77517 0.6145 0.87214 0.0
H871 H 0.72915 0.59679 0.93445 0.0
H872 H 0.79569 0.62699 0.91409 0.0
S873 S 0.69356 0.57117 0.8206 0.0
N874 N 0.66992 0.56217 0.85013 0.0
N875 N 0.74186 0.59494 0.82803 0.0
C876 C 0.74054 0.59643 0.8557 0.0
C877 C 0.70144 0.57873 0.86771 0.0
C878 C 0.41084 0.15984 0.90074 0.0
C879 C 0.40827 0.16364 0.87232 0.0
C880 C 0.42888 0.13905 0.91181 0.0
C881 C 0.44466 0.12067 0.89494 0.0
H882 H 0.39911 0.17333 0.91467 0.0
H883 H 0.42969 0.1367 0.9338 0.0
S884 S 0.44623 0.12221 0.81912 0.0
N885 N 0.42381 0.14772 0.82751 0.0
N886 N 0.45716 0.1083 0.84824 0.0
C887 C 0.44246 0.12435 0.86646 0.0
C888 C 0.42445 0.14589 0.85519 0.0
C889 C 0.89066 0.30122 0.91272 0.0
C890 C 0.90845 0.33645 0.8969 0.0
C891 C 0.86976 0.26313 0.90049 0.0
C892 C 0.86523 0.25864 0.87193 0.0
H893 H 0.89374 0.30298 0.93473 0.0
H894 H 0.8569 0.23699 0.91362 0.0
S895 S 0.90436 0.34161 0.82136 0.0
N896 N 0.91911 0.36446 0.85114 0.0
N897 N 0.8794 0.29312 0.82824 0.0
C898 C 0.88214 0.2937 0.8559 0.0
C899 C 0.90383 0.33247 0.86834 0.0
C900 C 0.41599 0.25974 0.40335 0.0
C901 C 0.41556 0.25383 0.3749 0.0
C902 C 0.4333 0.29844 0.4147 0.0
C903 C 0.45045 0.33286 0.39807 0.0
H904 H 0.40285 0.23426 0.41706 0.0
H905 H 0.43223 0.30129 0.43663 0.0
S906 S 0.45884 0.33431 0.3225 0.0
N907 N 0.43536 0.28618 0.33048 0.0
N908 N 0.46729 0.35858 0.35172 0.0
C909 C 0.45078 0.32746 0.36965 0.0
C910 C 0.43353 0.2881 0.35811 0.0
C911 C 0.70644 0.12344 0.37513 0.0
C912 C 0.70017 0.11974 0.40358 0.0
C913 C 0.74512 0.14499 0.36391 0.0
C914 C 0.77943 0.1635 0.3806 0.0
H915 H 0.68118 0.10951 0.36127 0.0
H916 H 0.74806 0.14694 0.3419 0.0
S917 S 0.77981 0.16284 0.45649 0.0
N918 N 0.73186 0.13661 0.44826 0.0
N919 N 0.80447 0.17681 0.42729 0.0
C920 C 0.77369 0.1601 0.40914 0.0
C921 C 0.73416 0.13842 0.42058 0.0
C922 C 0.9013 0.58316 0.36823 0.0
C923 C 0.9051 0.58084 0.39668 0.0
C924 C 0.87961 0.60015 0.35701 0.0
C925 C 0.86136 0.61624 0.37372 0.0
H926 H 0.91524 0.57177 0.35442 0.0
H927 H 0.87755 0.60105 0.335 0.0
S928 S 0.8624 0.61788 0.44957 0.0
N929 N 0.88849 0.59599 0.44136 0.0
N930 N 0.84828 0.62834 0.42036 0.0
C931 C 0.86486 0.61408 0.40224 0.0
C932 C 0.88649 0.59624 0.41367 0.0
C933 C 0.59868 0.07697 0.84735 0.0
C934 C 0.59316 0.07635 0.87583 0.0
C935 C 0.63719 0.09497 0.83574 0.0
C936 C 0.67185 0.1126 0.85211 0.0
H937 H 0.57302 0.0636 0.83381 0.0
H938 H 0.63973 0.09418 0.81375 0.0
S939 S 0.67423 0.11994 0.92773 0.0
N940 N 0.626 0.09595 0.92009 0.0
N941 N 0.69818 0.12912 0.89832 0.0
C942 C 0.66684 0.11244 0.8806 0.0
C943 C 0.62761 0.09453 0.89242 0.0
C944 C 0.9442 0.54777 0.8915 0.0
C945 C 0.96032 0.52891 0.87545 0.0
C946 C 0.92686 0.56866 0.87953 0.0
C947 C 0.92422 0.57101 0.85097 0.0
H948 H 0.94523 0.54671 0.91357 0.0
H949 H 0.91537 0.58305 0.89285 0.0
S950 S 0.96104 0.52596 0.79964 0.0
N951 N 0.97206 0.51358 0.82932 0.0
N952 N 0.93908 0.55229 0.80692 0.0
C953 C 0.93974 0.55182 0.83465 0.0
C954 C 0.95793 0.53101 0.84684 0.0
C955 C 0.48477 0.40208 0.89095 0.0
C956 C 0.50343 0.43666 0.87451 0.0
C957 C 0.46296 0.36363 0.87943 0.0
C958 C 0.45941 0.35795 0.85093 0.0
H959 H 0.48658 0.40468 0.91298 0.0
H960 H 0.44867 0.33809 0.89305 0.0
S961 S 0.50354 0.43849 0.79867 0.0
N962 N 0.51742 0.4626 0.82806 0.0
N963 N 0.47691 0.39039 0.80649 0.0
C964 C 0.47851 0.3922 0.8342 0.0
C965 C 0.50029 0.43148 0.84594 0.0
C966 C 0.60696 0.73101 0.66923 0.0
C967 C 0.59141 0.69639 0.68563 0.0
C968 C 0.62495 0.76956 0.68082 0.0
C969 C 0.62773 0.7752 0.70934 0.0
H970 H 0.606 0.72845 0.64719 0.0
H971 H 0.63652 0.79514 0.66722 0.0
S972 S 0.59046 0.69434 0.76145 0.0
N973 N 0.57939 0.6703 0.732 0.0
N974 N 0.61265 0.7425 0.75371 0.0
C975 C 0.61182 0.74079 0.726 0.0
C976 C 0.59385 0.70154 0.71419 0.0
C977 C 0.26519 0.86407 0.68409 0.0
C978 C 0.25796 0.85825 0.7124 0.0
C979 C 0.30438 0.88529 0.67356 0.0
C980 C 0.33803 0.90209 0.69088 0.0
H981 H 0.24038 0.85204 0.66984 0.0
H982 H 0.30823 0.88942 0.65167 0.0
S983 S 0.3359 0.89434 0.76649 0.0
N984 N 0.28818 0.8701 0.75751 0.0
N985 N 0.36156 0.91033 0.73777 0.0
C986 C 0.3313 0.89613 0.7192 0.0
C987 C 0.29141 0.87415 0.72992 0.0
C988 C 0.1678 0.41211 0.68091 0.0
C989 C 0.17131 0.41054 0.70945 0.0
C990 C 0.1468 0.42941 0.66904 0.0
C991 C 0.12788 0.44534 0.68523 0.0
H992 H 0.18162 0.40009 0.66751 0.0
H993 H 0.1446 0.42942 0.647 0.0
S994 S 0.12868 0.4496 0.76098 0.0
N995 N 0.15473 0.42738 0.75359 0.0
N996 N 0.11483 0.45925 0.73137 0.0
C997 C 0.13136 0.44423 0.7138 0.0
C998 C 0.15317 0.42704 0.72587 0.0
C999 C 0.40066 0.93321 0.24503 0.0
C1000 C 0.3662 0.91791 0.22851 0.0
C1001 C 0.43925 0.9506 0.23355 0.0
C1002 C 0.44505 0.95297 0.20506 0.0
H1003 H 0.39794 0.93253 0.26706 0.0
H1004 H 0.46473 0.96202 0.24722 0.0
S1005 S 0.36463 0.91612 0.15269 0.0
N1006 N 0.34042 0.90568 0.18207 0.0
N1007 N 0.41269 0.9378 0.16058 0.0
C1008 C 0.4108 0.93728 0.18829 0.0
C1009 C 0.37151 0.91995 0.19997 0.0
C1010 C 0.11338 0.45844 0.20745 0.0
C1011 C 0.11612 0.45593 0.23598 0.0
C1012 C 0.0965 0.47985 0.19564 0.0
C1013 C 0.08092 0.49907 0.21184 0.0
H1014 H 0.12443 0.44374 0.19403 0.0
H1015 H 0.09533 0.48096 0.17359 0.0
S1016 S 0.0804 0.50148 0.28767 0.0
N1017 N 0.10183 0.47472 0.28018 0.0
N1018 N 0.06961 0.51439 0.2581 0.0
C1019 C 0.08338 0.49678 0.24044 0.0
C1020 C 0.10115 0.47545 0.25246 0.0
C1021 C 0.55636 0.62997 0.24366 0.0
C1022 C 0.57347 0.66429 0.22694 0.0
C1023 C 0.53488 0.59123 0.23245 0.0
C1024 C 0.52911 0.58519 0.20405 0.0
H1025 H 0.56038 0.63294 0.26559 0.0
H1026 H 0.52256 0.56582 0.24623 0.0
S1027 S 0.56636 0.66527 0.15137 0.0
N1028 N 0.5823 0.68974 0.18051 0.0
N1029 N 0.54162 0.61722 0.15951 0.0
C1030 C 0.54545 0.61933 0.18713 0.0
C1031 C 0.56769 0.65875 0.19853 0.0
C1032 C 0.1074 0.65917 0.70258 0.0
C1033 C 0.10944 0.66435 0.73113 0.0
C1034 C 0.09085 0.62091 0.69073 0.0
C1035 C 0.07496 0.58605 0.70689 0.0
H1036 H 0.11876 0.68493 0.68916 0.0
H1037 H 0.09022 0.61869 0.66868 0.0
S1038 S 0.073 0.58286 0.78271 0.0
N1039 N 0.09435 0.63108 0.77529 0.0
N1040 N 0.06284 0.55928 0.7531 0.0
C1041 C 0.07679 0.59072 0.73549 0.0
C1042 C 0.09417 0.62978 0.74756 0.0
C1043 C 0.40009 0.47698 0.74434 0.0
C1044 C 0.36518 0.45986 0.72821 0.0
C1045 C 0.43845 0.49784 0.73247 0.0
C1046 C 0.44354 0.50301 0.70397 0.0
H1047 H 0.39788 0.47341 0.76632 0.0
H1048 H 0.46432 0.51016 0.74582 0.0
S1049 S 0.36166 0.46557 0.65268 0.0
N1050 N 0.33817 0.45038 0.68222 0.0
N1051 N 0.41 0.49001 0.66 0.0
C1052 C 0.40882 0.48671 0.68764 0.0
C1053 C 0.36978 0.46505 0.69971 0.0
C1054 C 0.57223 0.92107 0.70774 0.0
C1055 C 0.57721 0.91885 0.73606 0.0
C1056 C 0.55017 0.93805 0.69722 0.0
C1057 C 0.53256 0.95415 0.71452 0.0
H1058 H 0.58558 0.90961 0.69347 0.0
H1059 H 0.54724 0.93884 0.67528 0.0
S1060 S 0.53675 0.95616 0.79032 0.0
N1061 N 0.56248 0.93422 0.78127 0.0
N1062 N 0.52141 0.96647 0.76158 0.0
C1063 C 0.53721 0.9521 0.74292 0.0
C1064 C 0.55932 0.93433 0.75365 0.0
C1065 C 0.29203 0.41972 0.22516 0.0
C1066 C 0.25687 0.40358 0.20932 0.0
C1067 C 0.33009 0.43647 0.21299 0.0
C1068 C 0.33479 0.43849 0.1844 0.0
H1069 H 0.29021 0.41914 0.24724 0.0
H1070 H 0.35611 0.448 0.22617 0.0
S1071 S 0.2524 0.40115 0.13353 0.0
N1072 N 0.22931 0.391 0.16333 0.0
N1073 N 0.30076 0.42293 0.14053 0.0
C1074 C 0.29993 0.42293 0.16827 0.0
C1075 C 0.26105 0.40532 0.18067 0.0
C1076 C 0.59123 0.89743 0.20945 0.0
C1077 C 0.58844 0.90105 0.18102 0.0
C1078 C 0.60845 0.87589 0.22054 0.0
C1079 C 0.62426 0.85753 0.20371 0.0
H1080 H 0.58006 0.91145 0.22337 0.0
H1081 H 0.6097 0.87402 0.24254 0.0
S1082 S 0.62448 0.85781 0.12784 0.0
N1083 N 0.60277 0.884 0.13622 0.0
N1084 N 0.63549 0.84397 0.15696 0.0
C1085 C 0.62158 0.86074 0.1752 0.0
C1086 C 0.60354 0.88228 0.16391 0.0
C1087 C 0.16793 0.76562 0.18259 0.0
C1088 C 0.17333 0.77149 0.21103 0.0
C1089 C 0.1475 0.72694 0.17118 0.0
C1090 C 0.13106 0.69244 0.18773 0.0
H1091 H 0.17976 0.79114 0.16892 0.0
H1092 H 0.14372 0.72411 0.14923 0.0
S1093 S 0.13761 0.69094 0.2633 0.0
N1094 N 0.16127 0.7391 0.2554 0.0
N1095 N 0.12243 0.66665 0.23403 0.0
C1096 C 0.13645 0.69781 0.21617 0.0
C1097 C 0.15767 0.73719 0.22777 0.0
C1098 C 0.44195 0.31347 0.13942 0.0
C1099 C 0.43348 0.30598 0.1113 0.0
C1100 C 0.45999 0.35264 0.1498 0.0
C1101 C 0.47033 0.385 0.13216 0.0
H1102 H 0.4289 0.28877 0.1538 0.0
H1103 H 0.45998 0.35673 0.17168 0.0
S1104 S 0.4677 0.3822 0.0566 0.0
N1105 N 0.44656 0.33459 0.06581 0.0
N1106 N 0.48147 0.40838 0.08521 0.0
C1107 C 0.46973 0.3784 0.10386 0.0
C1108 C 0.45101 0.33857 0.09333 0.0
C1109 C 0.65511 0.09905 0.10582 0.0
C1110 C 0.64772 0.09145 0.13403 0.0
C1111 C 0.69432 0.11797 0.09546 0.0
C1112 C 0.72687 0.12991 0.11317 0.0
H1113 H 0.63045 0.08507 0.09145 0.0
H1114 H 0.69852 0.11753 0.07362 0.0
S1115 S 0.72398 0.12897 0.18875 0.0
N1116 N 0.67632 0.10635 0.17952 0.0
N1117 N 0.75016 0.14269 0.16012 0.0
C1118 C 0.72011 0.12968 0.14144 0.0
C1119 C 0.68024 0.11015 0.15196 0.0
C1120 C 0.90062 0.5886 0.14165 0.0
C1121 C 0.90161 0.59597 0.11336 0.0
C1122 C 0.9208 0.56996 0.15262 0.0
C1123 C 0.94198 0.55801 0.13543 0.0
H1124 H 0.88963 0.60277 0.15564 0.0
H1125 H 0.925 0.57076 0.17452 0.0
S1126 S 0.94169 0.55792 0.05984 0.0
N1127 N 0.91635 0.58055 0.06833 0.0
N1128 N 0.95355 0.54461 0.08887 0.0
C1129 C 0.936 0.55775 0.10707 0.0
C1130 C 0.91583 0.57706 0.09593 0.0
C1131 C 0.34303 0.4427 0.48754 0.0
C1132 C 0.30983 0.42173 0.47038 0.0
C1133 C 0.38187 0.46265 0.47656 0.0
C1134 C 0.38822 0.46175 0.44827 0.0
H1135 H 0.33958 0.43848 0.50945 0.0
H1136 H 0.40701 0.47342 0.49052 0.0
S1137 S 0.31015 0.42166 0.39479 0.0
N1138 N 0.28494 0.41001 0.42382 0.0
N1139 N 0.35811 0.4469 0.40326 0.0
C1140 C 0.35511 0.44756 0.43086 0.0
C1141 C 0.31561 0.42757 0.44201 0.0
C1142 C 0.56266 0.91894 0.47432 0.0
C1143 C 0.56328 0.92811 0.44636 0.0
C1144 C 0.58308 0.89974 0.4839 0.0
C1145 C 0.60406 0.88899 0.46561 0.0
H1146 H 0.55192 0.93222 0.48921 0.0
H1147 H 0.58762 0.8992 0.50569 0.0
S1148 S 0.60207 0.89301 0.39012 0.0
N1149 N 0.57701 0.9152 0.4003 0.0
N1150 N 0.61448 0.87806 0.41819 0.0
C1151 C 0.59742 0.89024 0.43745 0.0
C1152 C 0.57706 0.91016 0.42774 0.0
C1153 C 0.13621 0.70875 0.43877 0.0
C1154 C 0.13601 0.71541 0.46709 0.0
C1155 C 0.11612 0.66976 0.42803 0.0
C1156 C 0.09575 0.63678 0.44547 0.0
H1157 H 0.14645 0.73372 0.4247 0.0
H1158 H 0.11133 0.66604 0.40618 0.0
S1159 S 0.0982 0.63798 0.52105 0.0
N1160 N 0.12282 0.68586 0.51227 0.0
N1161 N 0.0858 0.61243 0.49216 0.0
C1162 C 0.10251 0.64291 0.47376 0.0
C1163 C 0.12261 0.68254 0.48466 0.0
C1164 C 0.57745 0.66952 0.93284 0.0
C1165 C 0.56499 0.63618 0.94992 0.0
C1166 C 0.59675 0.70832 0.94392 0.0
C1167 C 0.60429 0.71446 0.97219 0.0
H1168 H 0.57811 0.66617 0.91092 0.0
H1169 H 0.61139 0.7335 0.92999 0.0
S1170 S 0.56543 0.6361 1.02551 0.0
N1171 N 0.55155 0.61104 0.99644 0.0
N1172 N 0.58873 0.68413 1.01713 0.0
C1173 C 0.585 0.68129 0.98954 0.0
C1174 C 0.56503 0.64184 0.97831 0.0
C1175 C 0.31931 0.89086 0.94042 0.0
C1176 C 0.31409 0.89173 0.96886 0.0
C1177 C 0.35775 0.91041 0.92879 0.0
C1178 C 0.39163 0.9309 0.94544 0.0
H1179 H 0.29371 0.88069 0.92693 0.0
H1180 H 0.3604 0.91496 0.90689 0.0
S1181 S 0.39405 0.92987 1.02098 0.0
N1182 N 0.34578 0.90547 1.01331 0.0
N1183 N 0.4182 0.9415 0.99152 0.0
C1184 C 0.38684 0.92457 0.97382 0.0
C1185 C 0.34775 0.90507 0.98564 0.0
C1186 C 0.1398 0.43692 0.9439 0.0
C1187 C 0.13878 0.42836 0.97199 0.0
C1188 C 0.11929 0.45564 0.93361 0.0
C1189 C 0.09768 0.46646 0.95129 0.0
H1190 H 0.15116 0.42365 0.92945 0.0
H1191 H 0.11534 0.45592 0.91173 0.0
S1192 S 0.09692 0.46248 1.02684 0.0
N1193 N 0.12302 0.441 1.01752 0.0
N1194 N 0.08508 0.47696 0.9983 0.0
C1195 C 0.10324 0.4652 0.9796 0.0
C1196 C 0.12383 0.4459 0.99003 0.0
C1197 C 0.71572 0.58917 0.6375 0.0
C1198 C 0.72226 0.59737 0.6093 0.0
C1199 C 0.67694 0.57132 0.64854 0.0
C1200 C 0.64397 0.56088 0.63151 0.0
H1201 H 0.74092 0.60227 0.65148 0.0
H1202 H 0.67364 0.57159 0.6705 0.0
S1203 S 0.64419 0.56322 0.55594 0.0
N1204 N 0.69208 0.5842 0.56433 0.0
N1205 N 0.619 0.54969 0.58498 0.0
C1206 C 0.64959 0.56132 0.60309 0.0
C1207 C 0.68904 0.57986 0.59189 0.0
C1208 C 0.45189 0.11911 0.60281 0.0
C1209 C 0.42933 0.13027 0.61926 0.0
C1210 C 0.47226 0.10114 0.61453 0.0
C1211 C 0.46998 0.09355 0.64284 0.0
H1212 H 0.44868 0.11833 0.58082 0.0
H1213 H 0.48423 0.08737 0.60101 0.0
S1214 S 0.4258 0.12953 0.6948 0.0
N1215 N 0.41491 0.14268 0.66534 0.0
N1216 N 0.45242 0.10793 0.68725 0.0
C1217 C 0.45428 0.11173 0.65965 0.0
C1218 C 0.43395 0.13039 0.64776 0.0
C1219 C 0.9172 0.35442 0.64741 0.0
C1220 C 0.93932 0.38714 0.63006 0.0
C1221 C 0.89658 0.31539 0.63675 0.0
C1222 C 0.89798 0.30836 0.6086 0.0
H1223 H 0.92078 0.35822 0.66933 0.0
H1224 H 0.88477 0.29047 0.65096 0.0
S1225 S 0.94137 0.38538 0.55449 0.0
N1226 N 0.95294 0.41116 0.58327 0.0
N1227 N 0.91476 0.33764 0.56335 0.0
C1228 C 0.91352 0.34122 0.59087 0.0
C1229 C 0.93425 0.38091 0.60168 0.0
C1230 C 1.00872 0.78083 0.81842 0.0
C1231 C 0.97572 0.76006 0.80107 0.0
C1232 C 0.0477 0.8007 0.80764 0.0
C1233 C 0.05436 0.79975 0.77938 0.0
H1234 H 1.00502 0.77636 0.84029 0.0
H1235 H 0.07263 0.81114 0.82175 0.0
S1236 S 0.97693 0.76111 0.72547 0.0
N1237 N 0.95139 0.74934 0.75437 0.0
N1238 N 0.0248 0.7858 0.73421 0.0
C1239 C 0.0215 0.78618 0.7618 0.0
C1240 C 0.98186 0.76642 0.77274 0.0
C1241 C 0.24345 0.24819 0.76362 0.0
C1242 C 0.2321 0.2697 0.78096 0.0
C1243 C 0.26151 0.22733 0.7744 0.0
C1244 C 0.26894 0.228 0.80265 0.0
H1245 H 0.24418 0.25251 0.74173 0.0
H1246 H 0.27524 0.21603 0.76029 0.0
S1247 S 0.23266 0.26925 0.85654 0.0
N1248 N 0.21953 0.28161 0.82764 0.0
N1249 N 0.25438 0.24314 0.84783 0.0
C1250 C 0.2507 0.24276 0.82024 0.0
C1251 C 0.23198 0.26362 0.80929 0.0
C1252 C 0.7781 0.9864 0.80684 0.0
C1253 C 0.7693 0.97871 0.77877 0.0
C1254 C 0.79622 0.02563 0.81713 0.0
C1255 C 0.80631 0.0579 0.79947 0.0
H1256 H 0.76537 0.96178 0.8213 0.0
H1257 H 0.79649 0.02984 0.83901 0.0
S1258 S 0.80233 0.0546 0.72392 0.0
N1259 N 0.78151 1.00706 0.73323 0.0
N1260 N 0.8165 0.08096 0.75246 0.0
C1261 C 0.80521 0.05112 0.77115 0.0
C1262 C 0.78641 1.01122 0.76072 0.0
C1263 C 0.23318 0.9792 0.31036 0.0
C1264 C 0.23332 0.97404 0.28185 0.0
C1265 C 0.2521 0.01767 0.32197 0.0
C1266 C 0.27122 0.05166 0.30524 0.0
H1267 H 0.22418 0.95372 0.32381 0.0
H1268 H 0.25731 0.02045 0.3438 0.0
S1269 S 0.26786 0.05387 0.22974 0.0
N1270 N 0.24496 1.00561 0.23745 0.0
N1271 N 0.27967 0.07802 0.25919 0.0
C1272 C 0.26409 0.04666 0.27693 0.0
C1273 C 0.24528 1.00756 0.26514 0.0
C1274 C 0.98967 0.2226 0.28169 0.0
C1275 C 0.98146 0.22438 0.3096 0.0
C1276 C 0.02896 0.24426 0.27156 0.0
C1277 C 0.06079 0.26761 0.28925 0.0
H1278 H 0.96524 0.20967 0.26711 0.0
H1279 H 0.03343 0.24741 0.24967 0.0
S1280 S 0.0565 0.27026 0.36473 0.0
N1281 N 1.00918 0.24239 0.35524 0.0
N1282 N 0.08323 0.28226 0.33635 0.0
C1283 C 0.05371 0.26274 0.31757 0.0
C1284 C 1.01374 0.24106 0.32783 0.0
C1285 C 0.79087 0.77794 0.31559 0.0
C1286 C 0.8031 0.75673 0.29864 0.0
C1287 C 0.77201 0.79777 0.30437 0.0
C1288 C 0.7647 0.79641 0.27606 0.0
H1289 H 0.79002 0.77398 0.33752 0.0
H1290 H 0.75753 0.80861 0.3182 0.0
S1291 S 0.80301 0.75591 0.22304 0.0
N1292 N 0.81653 0.74464 0.25221 0.0
N1293 N 0.78015 0.78113 0.23124 0.0
C1294 C 0.78375 0.78212 0.25885 0.0
C1295 C 0.80329 0.76232 0.27022 0.0
loop_
_geom_bond_atom_site_label_1
_geom_bond_atom_site_label_2
_geom_bond_distance
_geom_bond_site_symmetry_2
_ccdc_geom_bond_type
O0 Cd1 2.223 . S
O0 C8 1.315 . S
Cd1 O0 2.223 . S
Cd1 O4 2.291 1_554 S
Cd1 O5 2.439 . S
Cd1 O11 2.240 . S
Cd2 O3 2.240 . S
Cd2 O10 2.223 . S
Cd2 O12 2.297 . S
Cd2 O13 2.439 . S
O3 Cd2 2.240 . S
O3 C8 1.279 . S
O4 Cd1 2.291 1_556 S
O4 C6 1.241 1_556 S
O5 Cd1 2.439 . S
O5 C6 1.208 . S
C6 O4 1.241 1_554 S
C6 O5 1.208 . S
C7 O12 1.247 . S
C7 O13 1.208 . S
C8 O0 1.315 . S
C8 O3 1.279 . S
C9 O10 1.315 . S
C9 O11 1.279 . S
O10 Cd2 2.223 . S
O10 C9 1.315 . S
O11 Cd1 2.240 . S
O11 C9 1.279 . S
O12 Cd2 2.297 . S
O12 C7 1.247 . S
O13 Cd2 2.439 . S
O13 C7 1.208 . S
O14 Cd15 2.223 . S
O14 C22 1.315 . S
Cd15 O14 2.223 . S
Cd15 O18 2.291 1_554 S
Cd15 O19 2.439 . S
Cd15 O25 2.240 . S
Cd16 O17 2.240 . S
Cd16 O24 2.223 . S
Cd16 O26 2.297 . S
Cd16 O27 2.439 . S
O17 Cd16 2.240 . S
O17 C22 1.279 . S
O18 Cd15 2.291 1_556 S
O18 C20 1.241 1_556 S
O19 Cd15 2.439 . S
O19 C20 1.208 . S
C20 O18 1.241 1_554 S
C20 O19 1.208 . S
C21 O26 1.247 . S
C21 O27 1.208 . S
C22 O14 1.315 . S
C22 O17 1.279 . S
C23 O24 1.315 . S
C23 O25 1.279 . S
O24 Cd16 2.223 . S
O24 C23 1.315 . S
O25 Cd15 2.240 . S
O25 C23 1.279 . S
O26 Cd16 2.297 . S
O26 C21 1.247 . S
O27 Cd16 2.439 . S
O27 C21 1.208 . S
O28 Cd29 2.223 . S
O28 C36 1.315 . S
Cd29 O28 2.223 . S
Cd29 O32 2.291 1_554 S
Cd29 O33 2.439 . S
Cd29 O39 2.240 . S
Cd30 O31 2.240 . S
Cd30 O38 2.223 . S
Cd30 O40 2.297 . S
Cd30 O41 2.439 . S
O31 Cd30 2.240 . S
O31 C36 1.279 . S
O32 Cd29 2.291 1_556 S
O32 C34 1.241 1_556 S
O33 Cd29 2.439 . S
O33 C34 1.208 . S
C34 O32 1.241 1_554 S
C34 O33 1.208 . S
C35 O40 1.247 . S
C35 O41 1.208 . S
C36 O28 1.315 . S
C36 O31 1.279 . S
C37 O38 1.315 . S
C37 O39 1.279 . S
O38 Cd30 2.223 . S
O38 C37 1.315 . S
O39 Cd29 2.240 . S
O39 C37 1.279 . S
O40 Cd30 2.297 . S
O40 C35 1.247 . S
O41 Cd30 2.439 . S
O41 C35 1.208 . S
O42 Cd43 2.223 . S
O42 C50 1.315 . S
Cd43 O42 2.223 . S
Cd43 O46 2.297 . S
Cd43 O47 2.439 . S
Cd43 O53 2.240 . S
Cd44 O45 2.240 . S
Cd44 O52 2.223 . S
Cd44 O54 2.297 . S
Cd44 O55 2.439 . S
O45 Cd44 2.240 . S
O45 C50 1.279 . S
O46 Cd43 2.297 . S
O46 C48 1.247 . S
O47 Cd43 2.439 . S
O47 C48 1.208 . S
C48 O46 1.247 . S
C48 O47 1.208 . S
C49 O54 1.247 . S
C49 O55 1.208 . S
C50 O42 1.315 . S
C50 O45 1.279 . S
C51 O52 1.315 . S
C51 O53 1.279 . S
O52 Cd44 2.223 . S
O52 C51 1.315 . S
O53 Cd43 2.240 . S
O53 C51 1.279 . S
O54 Cd44 2.297 . S
O54 C49 1.247 . S
O55 Cd44 2.439 . S
O55 C49 1.208 . S
O56 Cd57 2.223 . S
O56 C64 1.315 . S
Cd57 O56 2.223 . S
Cd57 O60 2.297 . S
Cd57 O61 2.439 . S
Cd57 O67 2.240 . S
Cd58 O59 2.240 . S
Cd58 O66 2.223 . S
Cd58 O68 2.297 . S
Cd58 O69 2.439 . S
O59 Cd58 2.240 . S
O59 C64 1.279 . S
O60 Cd57 2.297 . S
O60 C62 1.247 . S
O61 Cd57 2.439 . S
O61 C62 1.208 . S
C62 O60 1.247 . S
C62 O61 1.208 . S
C63 O68 1.247 . S
C63 O69 1.208 . S
C64 O56 1.315 . S
C64 O59 1.279 . S
C65 O66 1.315 . S
C65 O67 1.279 . S
O66 Cd58 2.223 . S
O66 C65 1.315 . S
O67 Cd57 2.240 . S
O67 C65 1.279 . S
O68 Cd58 2.297 . S
O68 C63 1.247 . S
O69 Cd58 2.439 . S
O69 C63 1.208 . S
O70 Cd71 2.223 . S
O70 C78 1.315 . S
Cd71 O70 2.223 . S
Cd71 O74 2.297 . S
Cd71 O75 2.439 . S
Cd71 O81 2.240 . S
Cd72 O73 2.240 . S
Cd72 O80 2.223 . S
Cd72 O82 2.297 . S
Cd72 O83 2.439 . S
O73 Cd72 2.240 . S
O73 C78 1.279 . S
O74 Cd71 2.297 . S
O74 C76 1.247 . S
O75 Cd71 2.439 . S
O75 C76 1.208 . S
C76 O74 1.247 . S
C76 O75 1.208 . S
C77 O82 1.247 . S
C77 O83 1.208 . S
C78 O70 1.315 . S
C78 O73 1.279 . S
C79 O80 1.315 . S
C79 O81 1.279 . S
O80 Cd72 2.223 . S
O80 C79 1.315 . S
O81 Cd71 2.240 . S
O81 C79 1.279 . S
O82 Cd72 2.297 . S
O82 C77 1.247 . S
O83 Cd72 2.439 . S
O83 C77 1.208 . S
O84 Cd85 2.223 . S
O84 C92 1.315 . S
Cd85 O84 2.223 . S
Cd85 O88 2.291 1_556 S
Cd85 O89 2.439 . S
Cd85 O95 2.240 . S
Cd86 O87 2.240 . S
Cd86 O94 2.223 . S
Cd86 O96 2.297 . S
Cd86 O97 2.439 . S
O87 Cd86 2.240 . S
O87 C92 1.279 . S
O88 Cd85 2.291 1_554 S
O88 C90 1.241 1_554 S
O89 Cd85 2.439 . S
O89 C90 1.208 . S
C90 O88 1.241 1_556 S
C90 O89 1.208 . S
C91 O96 1.247 . S
C91 O97 1.208 . S
C92 O84 1.315 . S
C92 O87 1.279 . S
C93 O94 1.315 . S
C93 O95 1.279 . S
O94 Cd86 2.223 . S
O94 C93 1.315 . S
O95 Cd85 2.240 . S
O95 C93 1.279 . S
O96 Cd86 2.297 . S
O96 C91 1.247 . S
O97 Cd86 2.439 . S
O97 C91 1.208 . S
O98 Cd99 2.223 . S
O98 C106 1.315 . S
Cd99 O98 2.223 . S
Cd99 O102 2.291 1_556 S
Cd99 O103 2.439 . S
Cd99 O109 2.240 . S
Cd100 O101 2.240 . S
Cd100 O108 2.223 . S
Cd100 O110 2.297 . S
Cd100 O111 2.439 . S
O101 Cd100 2.240 . S
O101 C106 1.279 . S
O102 Cd99 2.291 1_554 S
O102 C104 1.241 1_554 S
O103 Cd99 2.439 . S
O103 C104 1.208 . S
C104 O102 1.241 1_556 S
C104 O103 1.208 . S
C105 O110 1.247 . S
C105 O111 1.208 . S
C106 O98 1.315 . S
C106 O101 1.279 . S
C107 O108 1.315 . S
C107 O109 1.279 . S
O108 Cd100 2.223 . S
O108 C107 1.315 . S
O109 Cd99 2.240 . S
O109 C107 1.279 . S
O110 Cd100 2.297 . S
O110 C105 1.247 . S
O111 Cd100 2.439 . S
O111 C105 1.208 . S
O112 Cd113 2.223 . S
O112 C120 1.315 . S
Cd113 O112 2.223 . S
Cd113 O116 2.291 1_556 S
Cd113 O117 2.439 . S
Cd113 O123 2.240 . S
Cd114 O115 2.240 . S
Cd114 O122 2.223 . S
Cd114 O124 2.297 . S
Cd114 O125 2.439 . S
O115 Cd114 2.240 . S
O115 C120 1.279 . S
O116 Cd113 2.291 1_554 S
O116 C118 1.241 1_554 S
O117 Cd113 2.439 . S
O117 C118 1.208 . S
C118 O116 1.241 1_556 S
C118 O117 1.208 . S
C119 O124 1.247 . S
C119 O125 1.208 . S
C120 O112 1.315 . S
C120 O115 1.279 . S
C121 O122 1.315 . S
C121 O123 1.279 . S
O122 Cd114 2.223 . S
O122 C121 1.315 . S
O123 Cd113 2.240 . S
O123 C121 1.279 . S
O124 Cd114 2.297 . S
O124 C119 1.247 . S
O125 Cd114 2.439 . S
O125 C119 1.208 . S
O126 Cd127 2.223 . S
O126 C134 1.315 . S
Cd127 O126 2.223 . S
Cd127 O130 2.297 . S
Cd127 O131 2.439 . S
Cd127 O137 2.240 . S
Cd128 O129 2.240 . S
Cd128 O136 2.223 . S
Cd128 O138 2.297 . S
Cd128 O139 2.439 . S
O129 Cd128 2.240 . S
O129 C134 1.279 . S
O130 Cd127 2.297 . S
O130 C132 1.247 . S
O131 Cd127 2.439 . S
O131 C132 1.208 . S
C132 O130 1.247 . S
C132 O131 1.208 . S
C133 O138 1.247 . S
C133 O139 1.208 . S
C134 O126 1.315 . S
C134 O129 1.279 . S
C135 O136 1.315 . S
C135 O137 1.279 . S
O136 Cd128 2.223 . S
O136 C135 1.315 . S
O137 Cd127 2.240 . S
O137 C135 1.279 . S
O138 Cd128 2.297 . S
O138 C133 1.247 . S
O139 Cd128 2.439 . S
O139 C133 1.208 . S
O140 Cd141 2.223 . S
O140 C148 1.315 . S
Cd141 O140 2.223 . S
Cd141 O144 2.297 . S
Cd141 O145 2.439 . S
Cd141 O151 2.240 . S
Cd142 O143 2.240 . S
Cd142 O150 2.223 . S
Cd142 O152 2.297 . S
Cd142 O153 2.439 . S
O143 Cd142 2.240 . S
O143 C148 1.279 . S
O144 Cd141 2.297 . S
O144 C146 1.247 . S
O145 Cd141 2.439 . S
O145 C146 1.208 . S
C146 O144 1.247 . S
C146 O145 1.208 . S
C147 O152 1.247 . S
C147 O153 1.208 . S
C148 O140 1.315 . S
C148 O143 1.279 . S
C149 O150 1.315 . S
C149 O151 1.279 . S
O150 Cd142 2.223 . S
O150 C149 1.315 . S
O151 Cd141 2.240 . S
O151 C149 1.279 . S
O152 Cd142 2.297 . S
O152 C147 1.247 . S
O153 Cd142 2.439 . S
O153 C147 1.208 . S
O154 Cd155 2.223 . S
O154 C162 1.315 . S
Cd155 O154 2.223 . S
Cd155 O158 2.297 . S
Cd155 O159 2.439 . S
Cd155 O165 2.240 . S
Cd156 O157 2.240 . S
Cd156 O164 2.223 . S
Cd156 O166 2.297 . S
Cd156 O167 2.439 . S
O157 Cd156 2.240 . S
O157 C162 1.279 . S
O158 Cd155 2.297 . S
O158 C160 1.247 . S
O159 Cd155 2.439 . S
O159 C160 1.208 . S
C160 O158 1.247 . S
C160 O159 1.208 . S
C161 O166 1.247 . S
C161 O167 1.208 . S
C162 O154 1.315 . S
C162 O157 1.279 . S
C163 O164 1.315 . S
C163 O165 1.279 . S
O164 Cd156 2.223 . S
O164 C163 1.315 . S
O165 Cd155 2.240 . S
O165 C163 1.279 . S
O166 Cd156 2.297 . S
O166 C161 1.247 . S
O167 Cd156 2.439 . S
O167 C161 1.208 . S
O168 Cd169 2.223 . S
O168 C176 1.315 . S
Cd169 O168 2.223 . S
Cd169 O172 2.297 . S
Cd169 O173 2.439 . S
Cd169 O179 2.240 . S
Cd170 O171 2.240 . S
Cd170 O178 2.223 . S
Cd170 O180 2.297 . S
Cd170 O181 2.439 . S
O171 Cd170 2.240 . S
O171 C176 1.279 . S
O172 Cd169 2.297 . S
O172 C174 1.247 . S
O173 Cd169 2.439 . S
O173 C174 1.208 . S
C174 O172 1.247 . S
C174 O173 1.208 . S
C175 O180 1.247 . S
C175 O181 1.208 . S
C176 O168 1.315 . S
C176 O171 1.279 . S
C177 O178 1.315 . S
C177 O179 1.279 . S
O178 Cd170 2.223 . S
O178 C177 1.315 . S
O179 Cd169 2.240 . S
O179 C177 1.279 . S
O180 Cd170 2.297 . S
O180 C175 1.247 . S
O181 Cd170 2.439 . S
O181 C175 1.208 . S
O182 Cd183 2.223 . S
O182 C190 1.315 . S
Cd183 O182 2.223 . S
Cd183 O186 2.297 . S
Cd183 O187 2.439 . S
Cd183 O193 2.240 . S
Cd184 O185 2.240 . S
Cd184 O192 2.223 . S
Cd184 O194 2.297 . S
Cd184 O195 2.439 . S
O185 Cd184 2.240 . S
O185 C190 1.279 . S
O186 Cd183 2.297 . S
O186 C188 1.247 . S
O187 Cd183 2.439 . S
O187 C188 1.208 . S
C188 O186 1.247 . S
C188 O187 1.208 . S
C189 O194 1.247 . S
C189 O195 1.208 . S
C190 O182 1.315 . S
C190 O185 1.279 . S
C191 O192 1.315 . S
C191 O193 1.279 . S
O192 Cd184 2.223 . S
O192 C191 1.315 . S
O193 Cd183 2.240 . S
O193 C191 1.279 . S
O194 Cd184 2.297 . S
O194 C189 1.247 . S
O195 Cd184 2.439 . S
O195 C189 1.208 . S
O196 Cd197 2.223 . S
O196 C204 1.315 . S
Cd197 O196 2.223 . S
Cd197 O200 2.297 . S
Cd197 O201 2.439 . S
Cd197 O207 2.240 . S
Cd198 O199 2.240 . S
Cd198 O206 2.223 . S
Cd198 O208 2.297 . S
Cd198 O209 2.439 . S
O199 Cd198 2.240 . S
O199 C204 1.279 . S
O200 Cd197 2.297 . S
O200 C202 1.247 . S
O201 Cd197 2.439 . S
O201 C202 1.208 . S
C202 O200 1.247 . S
C202 O201 1.208 . S
C203 O208 1.247 . S
C203 O209 1.208 . S
C204 O196 1.315 . S
C204 O199 1.279 . S
C205 O206 1.315 . S
C205 O207 1.279 . S
O206 Cd198 2.223 . S
O206 C205 1.315 . S
O207 Cd197 2.240 . S
O207 C205 1.279 . S
O208 Cd198 2.297 . S
O208 C203 1.247 . S
O209 Cd198 2.439 . S
O209 C203 1.208 . S
O210 Cd211 2.223 . S
O210 C218 1.315 . S
Cd211 O210 2.223 . S
Cd211 O214 2.297 . S
Cd211 O215 2.439 . S
Cd211 O221 2.240 . S
Cd212 O213 2.240 . S
Cd212 O220 2.223 . S
Cd212 O222 2.297 . S
Cd212 O223 2.439 . S
O213 Cd212 2.240 . S
O213 C218 1.279 . S
O214 Cd211 2.297 . S
O214 C216 1.247 . S
O215 Cd211 2.439 . S
O215 C216 1.208 . S
C216 O214 1.247 . S
C216 O215 1.208 . S
C217 O222 1.247 . S
C217 O223 1.208 . S
C218 O210 1.315 . S
C218 O213 1.279 . S
C219 O220 1.315 . S
C219 O221 1.279 . S
O220 Cd212 2.223 . S
O220 C219 1.315 . S
O221 Cd211 2.240 . S
O221 C219 1.279 . S
O222 Cd212 2.297 . S
O222 C217 1.247 . S
O223 Cd212 2.439 . S
O223 C217 1.208 . S
O224 Cd225 2.223 . S
O224 C232 1.315 . S
Cd225 O224 2.223 . S
Cd225 O228 2.297 . S
Cd225 O229 2.439 . S
Cd225 O235 2.240 . S
Cd226 O227 2.240 . S
Cd226 O234 2.223 . S
Cd226 O236 2.297 . S
Cd226 O237 2.439 . S
O227 Cd226 2.240 . S
O227 C232 1.279 . S
O228 Cd225 2.297 . S
O228 C230 1.247 . S
O229 Cd225 2.439 . S
O229 C230 1.208 . S
C230 O228 1.247 . S
C230 O229 1.208 . S
C231 O236 1.247 . S
C231 O237 1.208 . S
C232 O224 1.315 . S
C232 O227 1.279 . S
C233 O234 1.315 . S
C233 O235 1.279 . S
O234 Cd226 2.223 . S
O234 C233 1.315 . S
O235 Cd225 2.240 . S
O235 C233 1.279 . S
O236 Cd226 2.297 . S
O236 C231 1.247 . S
O237 Cd226 2.439 . S
O237 C231 1.208 . S
O238 Cd239 2.223 . S
O238 C246 1.315 . S
Cd239 O238 2.223 . S
Cd239 O242 2.297 . S
Cd239 O243 2.439 . S
Cd239 O249 2.240 . S
Cd240 O241 2.240 . S
Cd240 O248 2.223 . S
Cd240 O250 2.297 . S
Cd240 O251 2.439 . S
O241 Cd240 2.240 . S
O241 C246 1.279 . S
O242 Cd239 2.297 . S
O242 C244 1.247 . S
O243 Cd239 2.439 . S
O243 C244 1.208 . S
C244 O242 1.247 . S
C244 O243 1.208 . S
C245 O250 1.247 . S
C245 O251 1.208 . S
C246 O238 1.315 . S
C246 O241 1.279 . S
C247 O248 1.315 . S
C247 O249 1.279 . S
O248 Cd240 2.223 . S
O248 C247 1.315 . S
O249 Cd239 2.240 . S
O249 C247 1.279 . S
O250 Cd240 2.297 . S
O250 C245 1.247 . S
O251 Cd240 2.439 . S
O251 C245 1.208 . S
O252 Cd253 2.223 . S
O252 C260 1.315 . S
Cd253 O252 2.223 . S
Cd253 O256 2.297 . S
Cd253 O257 2.439 . S
Cd253 O263 2.240 . S
Cd254 O255 2.240 . S
Cd254 O262 2.223 . S
Cd254 O264 2.297 . S
Cd254 O265 2.439 . S
O255 Cd254 2.240 . S
O255 C260 1.279 . S
O256 Cd253 2.297 . S
O256 C258 1.247 . S
O257 Cd253 2.439 . S
O257 C258 1.208 . S
C258 O256 1.247 . S
C258 O257 1.208 . S
C259 O264 1.247 . S
C259 O265 1.208 . S
C260 O252 1.315 . S
C260 O255 1.279 . S
C261 O262 1.315 . S
C261 O263 1.279 . S
O262 Cd254 2.223 . S
O262 C261 1.315 . S
O263 Cd253 2.240 . S
O263 C261 1.279 . S
O264 Cd254 2.297 . S
O264 C259 1.247 . S
O265 Cd254 2.439 . S
O265 C259 1.208 . S
O266 Cd267 2.223 . S
O266 C274 1.315 . S
Cd267 O266 2.223 . S
Cd267 O270 2.297 . S
Cd267 O271 2.439 . S
Cd267 O277 2.240 . S
Cd268 O269 2.240 . S
Cd268 O276 2.223 . S
Cd268 O278 2.297 . S
Cd268 O279 2.439 . S
O269 Cd268 2.240 . S
O269 C274 1.279 . S
O270 Cd267 2.297 . S
O270 C272 1.247 . S
O271 Cd267 2.439 . S
O271 C272 1.208 . S
C272 O270 1.247 . S
C272 O271 1.208 . S
C273 O278 1.247 . S
C273 O279 1.208 . S
C274 O266 1.315 . S
C274 O269 1.279 . S
C275 O276 1.315 . S
C275 O277 1.279 . S
O276 Cd268 2.223 . S
O276 C275 1.315 . S
O277 Cd267 2.240 . S
O277 C275 1.279 . S
O278 Cd268 2.297 . S
O278 C273 1.247 . S
O279 Cd268 2.439 . S
O279 C273 1.208 . S
O280 Cd281 2.223 . S
O280 C288 1.315 . S
Cd281 O280 2.223 . S
Cd281 O284 2.297 . S
Cd281 O285 2.439 . S
Cd281 O291 2.240 . S
Cd282 O283 2.240 . S
Cd282 O290 2.223 . S
Cd282 O292 2.297 . S
Cd282 O293 2.439 . S
O283 Cd282 2.240 . S
O283 C288 1.279 . S
O284 Cd281 2.297 . S
O284 C286 1.247 . S
O285 Cd281 2.439 . S
O285 C286 1.208 . S
C286 O284 1.247 . S
C286 O285 1.208 . S
C287 O292 1.247 . S
C287 O293 1.208 . S
C288 O280 1.315 . S
C288 O283 1.279 . S
C289 O290 1.315 . S
C289 O291 1.279 . S
O290 Cd282 2.223 . S
O290 C289 1.315 . S
O291 Cd281 2.240 . S
O291 C289 1.279 . S
O292 Cd282 2.297 . S
O292 C287 1.247 . S
O293 Cd282 2.439 . S
O293 C287 1.208 . S
O294 Cd295 2.223 . S
O294 C302 1.315 . S
Cd295 O294 2.223 . S
Cd295 O298 2.297 . S
Cd295 O299 2.439 . S
Cd295 O305 2.240 . S
Cd296 O297 2.240 . S
Cd296 O304 2.223 . S
Cd296 O306 2.297 . S
Cd296 O307 2.439 . S
O297 Cd296 2.240 . S
O297 C302 1.279 . S
O298 Cd295 2.297 . S
O298 C300 1.247 . S
O299 Cd295 2.439 . S
O299 C300 1.208 . S
C300 O298 1.247 . S
C300 O299 1.208 . S
C301 O306 1.247 . S
C301 O307 1.208 . S
C302 O294 1.315 . S
C302 O297 1.279 . S
C303 O304 1.315 . S
C303 O305 1.279 . S
O304 Cd296 2.223 . S
O304 C303 1.315 . S
O305 Cd295 2.240 . S
O305 C303 1.279 . S
O306 Cd296 2.297 . S
O306 C301 1.247 . S
O307 Cd296 2.439 . S
O307 C301 1.208 . S
O308 Cd309 2.223 . S
O308 C316 1.315 . S
Cd309 O308 2.223 . S
Cd309 O312 2.297 . S
Cd309 O313 2.439 . S
Cd309 O319 2.240 . S
Cd310 O311 2.240 . S
Cd310 O318 2.223 . S
Cd310 O320 2.297 . S
Cd310 O321 2.439 . S
O311 Cd310 2.240 . S
O311 C316 1.279 . S
O312 Cd309 2.297 . S
O312 C314 1.247 . S
O313 Cd309 2.439 . S
O313 C314 1.208 . S
C314 O312 1.247 . S
C314 O313 1.208 . S
C315 O320 1.247 . S
C315 O321 1.208 . S
C316 O308 1.315 . S
C316 O311 1.279 . S
C317 O318 1.315 . S
C317 O319 1.279 . S
O318 Cd310 2.223 . S
O318 C317 1.315 . S
O319 Cd309 2.240 . S
O319 C317 1.279 . S
O320 Cd310 2.297 . S
O320 C315 1.247 . S
O321 Cd310 2.439 . S
O321 C315 1.208 . S
O322 Cd323 2.223 . S
O322 C330 1.315 . S
Cd323 O322 2.223 . S
Cd323 O326 2.297 . S
Cd323 O327 2.439 . S
Cd323 O333 2.240 . S
Cd324 O325 2.240 . S
Cd324 O332 2.223 . S
Cd324 O334 2.297 . S
Cd324 O335 2.439 . S
O325 Cd324 2.240 . S
O325 C330 1.279 . S
O326 Cd323 2.297 . S
O326 C328 1.247 . S
O327 Cd323 2.439 . S
O327 C328 1.208 . S
C328 O326 1.247 . S
C328 O327 1.208 . S
C329 O334 1.247 . S
C329 O335 1.208 . S
C330 O322 1.315 . S
C330 O325 1.279 . S
C331 O332 1.315 . S
C331 O333 1.279 . S
O332 Cd324 2.223 . S
O332 C331 1.315 . S
O333 Cd323 2.240 . S
O333 C331 1.279 . S
O334 Cd324 2.297 . S
O334 C329 1.247 . S
O335 Cd324 2.439 . S
O335 C329 1.208 . S
O336 Cd337 2.223 . S
O336 C344 1.315 . S
Cd337 O336 2.223 . S
Cd337 O340 2.297 . S
Cd337 O341 2.439 . S
Cd337 O347 2.240 . S
Cd338 O339 2.240 . S
Cd338 O346 2.223 . S
Cd338 O348 2.297 . S
Cd338 O349 2.439 . S
O339 Cd338 2.240 . S
O339 C344 1.279 . S
O340 Cd337 2.297 . S
O340 C342 1.247 . S
O341 Cd337 2.439 . S
O341 C342 1.208 . S
C342 O340 1.247 . S
C342 O341 1.208 . S
C343 O348 1.247 . S
C343 O349 1.208 . S
C344 O336 1.315 . S
C344 O339 1.279 . S
C345 O346 1.315 . S
C345 O347 1.279 . S
O346 Cd338 2.223 . S
O346 C345 1.315 . S
O347 Cd337 2.240 . S
O347 C345 1.279 . S
O348 Cd338 2.297 . S
O348 C343 1.247 . S
O349 Cd338 2.439 . S
O349 C343 1.208 . S
O350 Cd351 2.223 . S
O350 C358 1.315 . S
Cd351 O350 2.223 . S
Cd351 O354 2.297 . S
Cd351 O355 2.439 . S
Cd351 O361 2.240 . S
Cd352 O353 2.240 . S
Cd352 O360 2.223 . S
Cd352 O362 2.297 . S
Cd352 O363 2.439 . S
O353 Cd352 2.240 . S
O353 C358 1.279 . S
O354 Cd351 2.297 . S
O354 C356 1.247 . S
O355 Cd351 2.439 . S
O355 C356 1.208 . S
C356 O354 1.247 . S
C356 O355 1.208 . S
C357 O362 1.247 . S
C357 O363 1.208 . S
C358 O350 1.315 . S
C358 O353 1.279 . S
C359 O360 1.315 . S
C359 O361 1.279 . S
O360 Cd352 2.223 . S
O360 C359 1.315 . S
O361 Cd351 2.240 . S
O361 C359 1.279 . S
O362 Cd352 2.297 . S
O362 C357 1.247 . S
O363 Cd352 2.439 . S
O363 C357 1.208 . S
O364 Cd365 2.223 . S
O364 C372 1.315 . S
Cd365 O364 2.223 . S
Cd365 O368 2.297 . S
Cd365 O369 2.439 . S
Cd365 O375 2.240 . S
Cd366 O367 2.240 . S
Cd366 O374 2.223 . S
Cd366 O376 2.297 . S
Cd366 O377 2.439 . S
O367 Cd366 2.240 . S
O367 C372 1.279 . S
O368 Cd365 2.297 . S
O368 C370 1.247 . S
O369 Cd365 2.439 . S
O369 C370 1.208 . S
C370 O368 1.247 . S
C370 O369 1.208 . S
C371 O376 1.247 . S
C371 O377 1.208 . S
C372 O364 1.315 . S
C372 O367 1.279 . S
C373 O374 1.315 . S
C373 O375 1.279 . S
O374 Cd366 2.223 . S
O374 C373 1.315 . S
O375 Cd365 2.240 . S
O375 C373 1.279 . S
O376 Cd366 2.297 . S
O376 C371 1.247 . S
O377 Cd366 2.439 . S
O377 C371 1.208 . S
O378 Cd379 2.223 . S
O378 C386 1.315 . S
Cd379 O378 2.223 . S
Cd379 O382 2.297 . S
Cd379 O383 2.439 . S
Cd379 O389 2.240 . S
Cd380 O381 2.240 . S
Cd380 O388 2.223 . S
Cd380 O390 2.297 . S
Cd380 O391 2.439 . S
O381 Cd380 2.240 . S
O381 C386 1.279 . S
O382 Cd379 2.297 . S
O382 C384 1.247 . S
O383 Cd379 2.439 . S
O383 C384 1.208 . S
C384 O382 1.247 . S
C384 O383 1.208 . S
C385 O390 1.247 . S
C385 O391 1.208 . S
C386 O378 1.315 . S
C386 O381 1.279 . S
C387 O388 1.315 . S
C387 O389 1.279 . S
O388 Cd380 2.223 . S
O388 C387 1.315 . S
O389 Cd379 2.240 . S
O389 C387 1.279 . S
O390 Cd380 2.297 . S
O390 C385 1.247 . S
O391 Cd380 2.439 . S
O391 C385 1.208 . S
O392 Cd393 2.223 . S
O392 C400 1.315 . S
Cd393 O392 2.223 . S
Cd393 O396 2.297 . S
Cd393 O397 2.439 . S
Cd393 O403 2.240 . S
Cd394 O395 2.240 . S
Cd394 O402 2.223 . S
Cd394 O404 2.297 . S
Cd394 O405 2.439 . S
O395 Cd394 2.240 . S
O395 C400 1.279 . S
O396 Cd393 2.297 . S
O396 C398 1.247 . S
O397 Cd393 2.439 . S
O397 C398 1.208 . S
C398 O396 1.247 . S
C398 O397 1.208 . S
C399 O404 1.247 . S
C399 O405 1.208 . S
C400 O392 1.315 . S
C400 O395 1.279 . S
C401 O402 1.315 . S
C401 O403 1.279 . S
O402 Cd394 2.223 . S
O402 C401 1.315 . S
O403 Cd393 2.240 . S
O403 C401 1.279 . S
O404 Cd394 2.297 . S
O404 C399 1.247 . S
O405 Cd394 2.439 . S
O405 C399 1.208 . S
O406 Cd407 2.223 . S
O406 C414 1.315 . S
Cd407 O406 2.223 . S
Cd407 O410 2.297 . S
Cd407 O411 2.439 . S
Cd407 O417 2.240 . S
Cd408 O409 2.240 . S
Cd408 O416 2.223 . S
Cd408 O418 2.297 . S
Cd408 O419 2.439 . S
O409 Cd408 2.240 . S
O409 C414 1.279 . S
O410 Cd407 2.297 . S
O410 C412 1.247 . S
O411 Cd407 2.439 . S
O411 C412 1.208 . S
C412 O410 1.247 . S
C412 O411 1.208 . S
C413 O418 1.247 . S
C413 O419 1.208 . S
C414 O406 1.315 . S
C414 O409 1.279 . S
C415 O416 1.315 . S
C415 O417 1.279 . S
O416 Cd408 2.223 . S
O416 C415 1.315 . S
O417 Cd407 2.240 . S
O417 C415 1.279 . S
O418 Cd408 2.297 . S
O418 C413 1.247 . S
O419 Cd408 2.439 . S
O419 C413 1.208 . S
O420 Cd421 2.223 . S
O420 C428 1.315 . S
Cd421 O420 2.223 . S
Cd421 O424 2.297 . S
Cd421 O425 2.439 . S
Cd421 O431 2.240 . S
Cd422 O423 2.240 . S
Cd422 O430 2.223 . S
Cd422 O432 2.297 . S
Cd422 O433 2.439 . S
O423 Cd422 2.240 . S
O423 C428 1.279 . S
O424 Cd421 2.297 . S
O424 C426 1.247 . S
O425 Cd421 2.439 . S
O425 C426 1.208 . S
C426 O424 1.247 . S
C426 O425 1.208 . S
C427 O432 1.247 . S
C427 O433 1.208 . S
C428 O420 1.315 . S
C428 O423 1.279 . S
C429 O430 1.315 . S
C429 O431 1.279 . S
O430 Cd422 2.223 . S
O430 C429 1.315 . S
O431 Cd421 2.240 . S
O431 C429 1.279 . S
O432 Cd422 2.297 . S
O432 C427 1.247 . S
O433 Cd422 2.439 . S
O433 C427 1.208 . S
O434 Cd435 2.223 . S
O434 C442 1.315 . S
Cd435 O434 2.223 . S
Cd435 O438 2.297 . S
Cd435 O439 2.439 . S
Cd435 O445 2.240 . S
Cd436 O437 2.240 . S
Cd436 O444 2.223 . S
Cd436 O446 2.297 . S
Cd436 O447 2.439 . S
O437 Cd436 2.240 . S
O437 C442 1.279 . S
O438 Cd435 2.297 . S
O438 C440 1.247 . S
O439 Cd435 2.439 . S
O439 C440 1.208 . S
C440 O438 1.247 . S
C440 O439 1.208 . S
C441 O446 1.247 . S
C441 O447 1.208 . S
C442 O434 1.315 . S
C442 O437 1.279 . S
C443 O444 1.315 . S
C443 O445 1.279 . S
O444 Cd436 2.223 . S
O444 C443 1.315 . S
O445 Cd435 2.240 . S
O445 C443 1.279 . S
O446 Cd436 2.297 . S
O446 C441 1.247 . S
O447 Cd436 2.439 . S
O447 C441 1.208 . S
O448 Cd449 2.223 . S
O448 C456 1.315 . S
Cd449 O448 2.223 . S
Cd449 O452 2.297 . S
Cd449 O453 2.439 . S
Cd449 O459 2.240 . S
Cd450 O451 2.240 . S
Cd450 O458 2.223 . S
Cd450 O460 2.297 . S
Cd450 O461 2.439 . S
O451 Cd450 2.240 . S
O451 C456 1.279 . S
O452 Cd449 2.297 . S
O452 C454 1.247 . S
O453 Cd449 2.439 . S
O453 C454 1.208 . S
C454 O452 1.247 . S
C454 O453 1.208 . S
C455 O460 1.247 . S
C455 O461 1.208 . S
C456 O448 1.315 . S
C456 O451 1.279 . S
C457 O458 1.315 . S
C457 O459 1.279 . S
O458 Cd450 2.223 . S
O458 C457 1.315 . S
O459 Cd449 2.240 . S
O459 C457 1.279 . S
O460 Cd450 2.297 . S
O460 C455 1.247 . S
O461 Cd450 2.439 . S
O461 C455 1.208 . S
O462 Cd463 2.223 . S
O462 C470 1.315 . S
Cd463 O462 2.223 . S
Cd463 O466 2.297 . S
Cd463 O467 2.439 . S
Cd463 O473 2.240 . S
Cd464 O465 2.240 . S
Cd464 O472 2.223 . S
Cd464 O474 2.297 . S
Cd464 O475 2.439 . S
O465 Cd464 2.240 . S
O465 C470 1.279 . S
O466 Cd463 2.297 . S
O466 C468 1.247 . S
O467 Cd463 2.439 . S
O467 C468 1.208 . S
C468 O466 1.247 . S
C468 O467 1.208 . S
C469 O474 1.247 . S
C469 O475 1.208 . S
C470 O462 1.315 . S
C470 O465 1.279 . S
C471 O472 1.315 . S
C471 O473 1.279 . S
O472 Cd464 2.223 . S
O472 C471 1.315 . S
O473 Cd463 2.240 . S
O473 C471 1.279 . S
O474 Cd464 2.297 . S
O474 C469 1.247 . S
O475 Cd464 2.439 . S
O475 C469 1.208 . S
O476 Cd477 2.223 . S
O476 C484 1.315 . S
Cd477 O476 2.223 . S
Cd477 O480 2.297 . S
Cd477 O481 2.439 . S
Cd477 O487 2.240 . S
Cd478 O479 2.240 . S
Cd478 O486 2.223 . S
Cd478 O488 2.297 . S
Cd478 O489 2.439 . S
O479 Cd478 2.240 . S
O479 C484 1.279 . S
O480 Cd477 2.297 . S
O480 C482 1.247 . S
O481 Cd477 2.439 . S
O481 C482 1.208 . S
C482 O480 1.247 . S
C482 O481 1.208 . S
C483 O488 1.247 . S
C483 O489 1.208 . S
C484 O476 1.315 . S
C484 O479 1.279 . S
C485 O486 1.315 . S
C485 O487 1.279 . S
O486 Cd478 2.223 . S
O486 C485 1.315 . S
O487 Cd477 2.240 . S
O487 C485 1.279 . S
O488 Cd478 2.297 . S
O488 C483 1.247 . S
O489 Cd478 2.439 . S
O489 C483 1.208 . S
O490 Cd491 2.223 . S
O490 C498 1.315 . S
Cd491 O490 2.223 . S
Cd491 O494 2.297 . S
Cd491 O495 2.439 . S
Cd491 O501 2.240 . S
Cd492 O493 2.240 . S
Cd492 O500 2.223 . S
Cd492 O502 2.297 . S
Cd492 O503 2.439 . S
O493 Cd492 2.240 . S
O493 C498 1.279 . S
O494 Cd491 2.297 . S
O494 C496 1.247 . S
O495 Cd491 2.439 . S
O495 C496 1.208 . S
C496 O494 1.247 . S
C496 O495 1.208 . S
C497 O502 1.247 . S
C497 O503 1.208 . S
C498 O490 1.315 . S
C498 O493 1.279 . S
C499 O500 1.315 . S
C499 O501 1.279 . S
O500 Cd492 2.223 . S
O500 C499 1.315 . S
O501 Cd491 2.240 . S
O501 C499 1.279 . S
O502 Cd492 2.297 . S
O502 C497 1.247 . S
O503 Cd492 2.439 . S
O503 C497 1.208 . S
C504 C505 1.369 . S
C504 C506 1.419 . S
C504 H508 0.930 . S
C505 C504 1.369 . S
C505 C514 1.429 . S
C506 C504 1.419 . S
C506 C507 1.363 . S
C506 H509 0.929 . S
C507 C506 1.363 . S
C507 C513 1.428 . S
H508 C504 0.930 . S
H509 C506 0.929 . S
S510 N511 1.613 . S
S510 N512 1.610 . S
N511 S510 1.613 . S
N511 C514 1.350 . S
N512 S510 1.610 . S
N512 C513 1.351 . S
C513 C507 1.428 . S
C513 N512 1.351 . S
C513 C514 1.434 . S
C514 C505 1.429 . S
C514 N511 1.350 . S
C514 C513 1.434 . S
C515 C516 1.369 . S
C515 C517 1.419 . S
C515 H519 0.930 . S
C516 C515 1.369 . S
C516 C525 1.429 . S
C517 C515 1.419 . S
C517 C518 1.363 . S
C517 H520 0.929 . S
C518 C517 1.363 . S
C518 C524 1.428 . S
H519 C515 0.930 . S
H520 C517 0.929 . S
S521 N522 1.613 . S
S521 N523 1.610 . S
N522 S521 1.613 . S
N522 C525 1.350 . S
N523 S521 1.610 . S
N523 C524 1.351 . S
C524 C518 1.428 . S
C524 N523 1.351 . S
C524 C525 1.434 . S
C525 C516 1.429 . S
C525 N522 1.350 . S
C525 C524 1.434 . S
C526 C527 1.369 . S
C526 C528 1.419 . S
C526 H530 0.930 . S
C527 C526 1.369 . S
C527 C536 1.429 . S
C528 C526 1.419 . S
C528 C529 1.363 . S
C528 H531 0.929 . S
C529 C528 1.363 . S
C529 C535 1.428 . S
H530 C526 0.930 . S
H531 C528 0.929 . S
S532 N533 1.613 . S
S532 N534 1.610 . S
N533 S532 1.613 . S
N533 C536 1.350 . S
N534 S532 1.610 . S
N534 C535 1.351 . S
C535 C529 1.428 . S
C535 N534 1.351 . S
C535 C536 1.434 . S
C536 C527 1.429 . S
C536 N533 1.350 . S
C536 C535 1.434 . S
C537 C538 1.369 . S
C537 C539 1.419 . S
C537 H541 0.930 . S
C538 C537 1.369 . S
C538 C547 1.429 . S
C539 C537 1.419 . S
C539 C540 1.363 . S
C539 H542 0.929 . S
C540 C539 1.363 . S
C540 C546 1.428 . S
H541 C537 0.930 . S
H542 C539 0.929 . S
S543 N544 1.613 . S
S543 N545 1.610 . S
N544 S543 1.613 . S
N544 C547 1.350 . S
N545 S543 1.610 . S
N545 C546 1.351 . S
C546 C540 1.428 . S
C546 N545 1.351 . S
C546 C547 1.434 . S
C547 C538 1.429 . S
C547 N544 1.350 . S
C547 C546 1.434 . S
C548 C549 1.369 . S
C548 C550 1.419 . S
C548 H552 0.930 . S
C549 C548 1.369 . S
C549 C558 1.429 . S
C550 C548 1.419 . S
C550 C551 1.363 . S
C550 H553 0.929 . S
C551 C550 1.363 . S
C551 C557 1.428 . S
H552 C548 0.930 . S
H553 C550 0.929 . S
S554 N555 1.613 . S
S554 N556 1.610 . S
N555 S554 1.613 . S
N555 C558 1.350 . S
N556 S554 1.610 . S
N556 C557 1.351 . S
C557 C551 1.428 . S
C557 N556 1.351 . S
C557 C558 1.434 . S
C558 C549 1.429 . S
C558 N555 1.350 . S
C558 C557 1.434 . S
C559 C560 1.369 . S
C559 C561 1.419 . S
C559 H563 0.930 . S
C560 C559 1.369 . S
C560 C569 1.429 . S
C561 C559 1.419 . S
C561 C562 1.363 . S
C561 H564 0.929 . S
C562 C561 1.363 . S
C562 C568 1.428 . S
H563 C559 0.930 . S
H564 C561 0.929 . S
S565 N566 1.613 . S
S565 N567 1.610 . S
N566 S565 1.613 . S
N566 C569 1.350 . S
N567 S565 1.610 . S
N567 C568 1.351 . S
C568 C562 1.428 . S
C568 N567 1.351 . S
C568 C569 1.434 . S
C569 C560 1.429 . S
C569 N566 1.350 . S
C569 C568 1.434 . S
C570 C571 1.369 . S
C570 C572 1.419 . S
C570 H574 0.930 . S
C571 C570 1.369 . S
C571 C580 1.429 . S
C572 C570 1.419 . S
C572 C573 1.363 . S
C572 H575 0.929 . S
C573 C572 1.363 . S
C573 C579 1.428 . S
H574 C570 0.930 . S
H575 C572 0.929 . S
S576 N577 1.613 . S
S576 N578 1.610 . S
N577 S576 1.613 . S
N577 C580 1.350 . S
N578 S576 1.610 . S
N578 C579 1.351 . S
C579 C573 1.428 . S
C579 N578 1.351 . S
C579 C580 1.434 . S
C580 C571 1.429 . S
C580 N577 1.350 . S
C580 C579 1.434 . S
C581 C582 1.369 . S
C581 C583 1.419 . S
C581 H585 0.930 . S
C582 C581 1.369 . S
C582 C591 1.429 . S
C583 C581 1.419 . S
C583 C584 1.363 . S
C583 H586 0.929 . S
C584 C583 1.363 . S
C584 C590 1.428 . S
H585 C581 0.930 . S
H586 C583 0.929 . S
S587 N588 1.613 . S
S587 N589 1.610 . S
N588 S587 1.613 . S
N588 C591 1.350 . S
N589 S587 1.610 . S
N589 C590 1.351 . S
C590 C584 1.428 . S
C590 N589 1.351 . S
C590 C591 1.434 . S
C591 C582 1.429 . S
C591 N588 1.350 . S
C591 C590 1.434 . S
C592 C593 1.369 . S
C592 C594 1.419 . S
C592 H596 0.930 . S
C593 C592 1.369 . S
C593 C602 1.429 . S
C594 C592 1.419 . S
C594 C595 1.363 . S
C594 H597 0.929 . S
C595 C594 1.363 . S
C595 C601 1.428 . S
H596 C592 0.930 . S
H597 C594 0.929 . S
S598 N599 1.613 . S
S598 N600 1.610 . S
N599 S598 1.613 . S
N599 C602 1.350 . S
N600 S598 1.610 . S
N600 C601 1.351 . S
C601 C595 1.428 . S
C601 N600 1.351 . S
C601 C602 1.434 . S
C602 C593 1.429 . S
C602 N599 1.350 . S
C602 C601 1.434 . S
C603 C604 1.369 . S
C603 C605 1.419 . S
C603 H607 0.930 . S
C604 C603 1.369 . S
C604 C613 1.429 . S
C605 C603 1.419 . S
C605 C606 1.363 . S
C605 H608 0.929 . S
C606 C605 1.363 . S
C606 C612 1.428 . S
H607 C603 0.930 . S
H608 C605 0.929 . S
S609 N610 1.613 . S
S609 N611 1.610 . S
N610 S609 1.613 . S
N610 C613 1.350 . S
N611 S609 1.610 . S
N611 C612 1.351 . S
C612 C606 1.428 . S
C612 N611 1.351 . S
C612 C613 1.434 . S
C613 C604 1.429 . S
C613 N610 1.350 . S
C613 C612 1.434 . S
C614 C615 1.369 . S
C614 C616 1.419 . S
C614 H618 0.930 . S
C615 C614 1.369 . S
C615 C624 1.429 . S
C616 C614 1.419 . S
C616 C617 1.363 . S
C616 H619 0.929 . S
C617 C616 1.363 . S
C617 C623 1.428 . S
H618 C614 0.930 . S
H619 C616 0.929 . S
S620 N621 1.613 . S
S620 N622 1.610 . S
N621 S620 1.613 . S
N621 C624 1.350 . S
N622 S620 1.610 . S
N622 C623 1.351 . S
C623 C617 1.428 . S
C623 N622 1.351 . S
C623 C624 1.434 . S
C624 C615 1.429 . S
C624 N621 1.350 . S
C624 C623 1.434 . S
C625 C626 1.369 . S
C625 C627 1.419 . S
C625 H629 0.930 . S
C626 C625 1.369 . S
C626 C635 1.429 . S
C627 C625 1.419 . S
C627 C628 1.363 . S
C627 H630 0.929 . S
C628 C627 1.363 . S
C628 C634 1.428 . S
H629 C625 0.930 . S
H630 C627 0.929 . S
S631 N632 1.613 . S
S631 N633 1.610 . S
N632 S631 1.613 . S
N632 C635 1.350 . S
N633 S631 1.610 . S
N633 C634 1.351 . S
C634 C628 1.428 . S
C634 N633 1.351 . S
C634 C635 1.434 . S
C635 C626 1.429 . S
C635 N632 1.350 . S
C635 C634 1.434 . S
C636 C637 1.369 . S
C636 C638 1.419 . S
C636 H640 0.930 . S
C637 C636 1.369 . S
C637 C646 1.429 1_655 S
C638 C636 1.419 . S
C638 C639 1.363 1_655 S
C638 H641 0.929 . S
C639 C638 1.363 1_455 S
C639 C645 1.428 . S
H640 C636 0.930 . S
H641 C638 0.929 . S
S642 N643 1.613 . S
S642 N644 1.610 . S
N643 S642 1.613 . S
N643 C646 1.350 . S
N644 S642 1.610 . S
N644 C645 1.351 . S
C645 C639 1.428 . S
C645 N644 1.351 . S
C645 C646 1.434 . S
C646 C637 1.429 1_455 S
C646 N643 1.350 . S
C646 C645 1.434 . S
C647 C648 1.369 . S
C647 C649 1.419 . S
C647 H651 0.930 . S
C648 C647 1.369 . S
C648 C657 1.429 . S
C649 C647 1.419 . S
C649 C650 1.363 . S
C649 H652 0.929 . S
C650 C649 1.363 . S
C650 C656 1.428 . S
H651 C647 0.930 . S
H652 C649 0.929 . S
S653 N654 1.613 . S
S653 N655 1.610 . S
N654 S653 1.613 . S
N654 C657 1.350 . S
N655 S653 1.610 . S
N655 C656 1.351 . S
C656 C650 1.428 . S
C656 N655 1.351 . S
C656 C657 1.434 . S
C657 C648 1.429 . S
C657 N654 1.350 . S
C657 C656 1.434 . S
C658 C659 1.369 . S
C658 C660 1.427 . S
C658 H662 0.930 . S
C659 C658 1.369 . S
C659 C668 1.429 1_545 S
C660 C658 1.427 . S
C660 C661 1.343 1_545 S
C660 H663 0.942 . S
C661 C660 1.343 1_565 S
C661 C667 1.428 . S
H662 C658 0.930 . S
H663 C660 0.942 . S
S664 N665 1.613 . S
S664 N666 1.610 . S
N665 S664 1.613 . S
N665 C668 1.350 . S
N666 S664 1.610 . S
N666 C667 1.351 . S
C667 C661 1.428 . S
C667 N666 1.351 . S
C667 C668 1.434 . S
C668 C659 1.429 1_565 S
C668 N665 1.350 . S
C668 C667 1.434 . S
C669 C670 1.369 . S
C669 C671 1.419 1_556 S
C669 H673 0.930 . S
C670 C669 1.369 . S
C670 C679 1.429 1_545 S
C671 C669 1.419 1_554 S
C671 C672 1.363 1_545 S
C671 H674 0.929 . S
C672 C671 1.363 1_565 S
C672 C678 1.428 . S
H673 C669 0.930 . S
H674 C671 0.929 . S
S675 N676 1.613 . S
S675 N677 1.610 1_556 S
N676 S675 1.613 . S
N676 C679 1.350 . S
N677 S675 1.610 1_554 S
N677 C678 1.351 . S
C678 C672 1.428 . S
C678 N677 1.351 . S
C678 C679 1.434 1_554 S
C679 C670 1.429 1_565 S
C679 N676 1.350 . S
C679 C678 1.434 1_556 S
C680 C681 1.369 . S
C680 C682 1.403 1_656 S
C680 H684 0.930 . S
C681 C680 1.369 . S
C681 C690 1.402 1_556 S
C682 C680 1.403 1_454 S
C682 C683 1.380 . S
C682 H685 0.929 1_554 S
C683 C682 1.380 . S
C683 C689 1.428 . S
H684 C680 0.930 . S
H685 C682 0.929 1_556 S
S686 N687 1.613 . S
S686 N688 1.610 1_655 S
N687 S686 1.613 . S
N687 C690 1.355 . S
N688 S686 1.610 1_455 S
N688 C689 1.351 . S
C689 C683 1.428 . S
C689 N688 1.351 . S
C689 C690 1.459 1_455 S
C690 C681 1.402 1_554 S
C690 N687 1.355 . S
C690 C689 1.459 1_655 S
C691 C692 1.369 . S
C691 C693 1.419 1_556 S
C691 H695 0.930 . S
C692 C691 1.369 . S
C692 C701 1.429 . S
C693 C691 1.419 1_554 S
C693 C694 1.363 . S
C693 H696 0.929 . S
C694 C693 1.363 . S
C694 C700 1.428 . S
H695 C691 0.930 . S
H696 C693 0.929 . S
S697 N698 1.613 1_554 S
S697 N699 1.610 . S
N698 S697 1.613 1_556 S
N698 C701 1.350 . S
N699 S697 1.610 . S
N699 C700 1.351 . S
C700 C694 1.428 . S
C700 N699 1.351 . S
C700 C701 1.434 1_554 S
C701 C692 1.429 . S
C701 N698 1.350 . S
C701 C700 1.434 1_556 S
C702 C703 1.369 . S
C702 C704 1.419 . S
C702 H706 0.930 . S
C703 C702 1.369 . S
C703 C712 1.429 . S
C704 C702 1.419 . S
C704 C705 1.363 1_556 S
C704 H707 0.929 . S
C705 C704 1.363 1_554 S
C705 C711 1.428 . S
H706 C702 0.930 . S
H707 C704 0.929 . S
S708 N709 1.613 1_545 S
S708 N710 1.610 . S
N709 S708 1.613 1_565 S
N709 C712 1.350 1_564 S
N710 S708 1.610 . S
N710 C711 1.351 . S
C711 C705 1.428 . S
C711 N710 1.351 . S
C711 C712 1.434 1_554 S
C712 C703 1.429 . S
C712 N709 1.350 1_546 S
C712 C711 1.434 1_556 S
C713 C714 1.369 . S
C713 C715 1.419 . S
C713 H717 0.930 . S
C714 C713 1.369 . S
C714 C723 1.435 . S
C715 C713 1.419 . S
C715 C716 1.363 1_556 S
C715 H718 0.929 . S
C716 C715 1.363 1_554 S
C716 C722 1.428 . S
H717 C713 0.930 . S
H718 C715 0.929 . S
S719 N720 1.613 . S
S719 N721 1.610 1_455 S
N720 S719 1.613 . S
N720 C723 1.347 1_454 S
N721 S719 1.610 1_655 S
N721 C722 1.351 . S
C722 C716 1.428 . S
C722 N721 1.351 . S
C722 C723 1.430 1_554 S
C723 C714 1.435 . S
C723 N720 1.347 1_656 S
C723 C722 1.430 1_556 S
C724 C725 1.369 1_556 S
C724 C726 1.419 . S
C724 H728 0.930 . S
C725 C724 1.369 1_554 S
C725 C734 1.429 . S
C726 C724 1.419 . S
C726 C727 1.363 . S
C726 H729 0.929 . S
C727 C726 1.363 . S
C727 C733 1.398 1_556 S
H728 C724 0.930 . S
H729 C726 0.929 . S
S730 N731 1.613 . S
S730 N732 1.610 . S
N731 S730 1.613 . S
N731 C734 1.350 . S
N732 S730 1.610 . S
N732 C733 1.368 . S
C733 C727 1.398 1_554 S
C733 N732 1.368 . S
C733 C734 1.451 . S
C734 C725 1.429 . S
C734 N731 1.350 . S
C734 C733 1.451 . S
C735 C736 1.369 . S
C735 C737 1.419 . S
C735 H739 0.930 . S
C736 C735 1.369 . S
C736 C745 1.429 . S
C737 C735 1.419 . S
C737 C738 1.363 . S
C737 H740 0.929 . S
C738 C737 1.363 . S
C738 C744 1.428 . S
H739 C735 0.930 . S
H740 C737 0.929 . S
S741 N742 1.624 . S
S741 N743 1.597 1_655 S
N742 S741 1.624 . S
N742 C745 1.350 1_655 S
N743 S741 1.597 1_455 S
N743 C744 1.351 . S
C744 C738 1.428 . S
C744 N743 1.351 . S
C744 C745 1.434 . S
C745 C736 1.429 . S
C745 N742 1.350 1_455 S
C745 C744 1.434 . S
C746 C747 1.369 . S
C746 C748 1.419 . S
C746 H750 0.930 . S
C747 C746 1.369 . S
C747 C756 1.429 . S
C748 C746 1.419 . S
C748 C749 1.363 . S
C748 H751 0.929 . S
C749 C748 1.363 . S
C749 C755 1.428 . S
H750 C746 0.930 . S
H751 C748 0.929 . S
S752 N753 1.613 . S
S752 N754 1.610 . S
N753 S752 1.613 . S
N753 C756 1.350 . S
N754 S752 1.610 . S
N754 C755 1.351 . S
C755 C749 1.428 . S
C755 N754 1.351 . S
C755 C756 1.434 . S
C756 C747 1.429 . S
C756 N753 1.350 . S
C756 C755 1.434 . S
C757 C758 1.369 . S
C757 C759 1.419 . S
C757 H761 0.930 . S
C758 C757 1.369 . S
C758 C767 1.429 . S
C759 C757 1.419 . S
C759 C760 1.363 . S
C759 H762 0.929 . S
C760 C759 1.363 . S
C760 C766 1.428 . S
H761 C757 0.930 . S
H762 C759 0.929 . S
S763 N764 1.613 . S
S763 N765 1.610 1_545 S
N764 S763 1.613 . S
N764 C767 1.350 1_545 S
N765 S763 1.610 1_565 S
N765 C766 1.351 . S
C766 C760 1.428 . S
C766 N765 1.351 . S
C766 C767 1.434 . S
C767 C758 1.429 . S
C767 N764 1.350 1_565 S
C767 C766 1.434 . S
C768 C769 1.369 1_554 S
C768 C770 1.419 . S
C768 H772 0.930 . S
C769 C768 1.369 1_556 S
C769 C778 1.429 1_556 S
C770 C768 1.419 . S
C770 C771 1.363 . S
C770 H773 0.929 . S
C771 C770 1.363 . S
C771 C777 1.428 . S
H772 C768 0.930 . S
H773 C770 0.929 . S
S774 N775 1.613 1_554 S
S774 N776 1.610 . S
N775 S774 1.613 1_556 S
N775 C778 1.350 1_556 S
N776 S774 1.610 . S
N776 C777 1.351 . S
C777 C771 1.428 . S
C777 N776 1.351 . S
C777 C778 1.434 . S
C778 C769 1.429 1_554 S
C778 N775 1.350 1_554 S
C778 C777 1.434 . S
C779 C780 1.369 . S
C779 C781 1.419 1_556 S
C779 H783 0.930 . S
C780 C779 1.369 . S
C780 C789 1.429 1_556 S
C781 C779 1.419 1_554 S
C781 C782 1.363 . S
C781 H784 0.929 1_454 S
C782 C781 1.363 . S
C782 C788 1.428 . S
H783 C779 0.930 . S
H784 C781 0.929 1_656 S
S785 N786 1.613 . S
S785 N787 1.610 . S
N786 S785 1.613 . S
N786 C789 1.350 . S
N787 S785 1.610 . S
N787 C788 1.351 . S
C788 C782 1.428 . S
C788 N787 1.351 . S
C788 C789 1.434 . S
C789 C780 1.429 1_554 S
C789 N786 1.350 . S
C789 C788 1.434 . S
C790 C791 1.369 . S
C790 C792 1.419 1_556 S
C790 H794 0.930 . S
C791 C790 1.369 . S
C791 C800 1.429 1_556 S
C792 C790 1.419 1_554 S
C792 C793 1.363 . S
C792 H795 0.929 . S
C793 C792 1.363 . S
C793 C799 1.428 . S
H794 C790 0.930 . S
H795 C792 0.929 . S
S796 N797 1.613 . S
S796 N798 1.610 . S
N797 S796 1.613 . S
N797 C800 1.350 . S
N798 S796 1.610 . S
N798 C799 1.351 . S
C799 C793 1.428 . S
C799 N798 1.351 . S
C799 C800 1.434 . S
C800 C791 1.429 1_554 S
C800 N797 1.350 . S
C800 C799 1.434 . S
C801 C802 1.369 . S
C801 C803 1.419 . S
C801 H805 0.930 . S
C802 C801 1.369 . S
C802 C811 1.429 . S
C803 C801 1.419 . S
C803 C804 1.363 . S
C803 H806 0.929 . S
C804 C803 1.363 . S
C804 C810 1.428 . S
H805 C801 0.930 . S
H806 C803 0.929 . S
S807 N808 1.613 . S
S807 N809 1.610 . S
N808 S807 1.613 . S
N808 C811 1.350 . S
N809 S807 1.610 . S
N809 C810 1.351 . S
C810 C804 1.428 . S
C810 N809 1.351 . S
C810 C811 1.434 . S
C811 C802 1.429 . S
C811 N808 1.350 . S
C811 C810 1.434 . S
C812 C813 1.369 . S
C812 C814 1.419 . S
C812 H816 0.930 . S
C813 C812 1.369 . S
C813 C822 1.429 . S
C814 C812 1.419 . S
C814 C815 1.363 . S
C814 H817 0.929 . S
C815 C814 1.363 . S
C815 C821 1.428 . S
H816 C812 0.930 . S
H817 C814 0.929 . S
S818 N819 1.613 . S
S818 N820 1.610 . S
N819 S818 1.613 . S
N819 C822 1.350 . S
N820 S818 1.610 . S
N820 C821 1.351 . S
C821 C815 1.428 . S
C821 N820 1.351 . S
C821 C822 1.434 . S
C822 C813 1.429 . S
C822 N819 1.350 . S
C822 C821 1.434 . S
C823 C824 1.369 . S
C823 C825 1.419 . S
C823 H827 0.930 1_545 S
C824 C823 1.369 . S
C824 C833 1.429 . S
C825 C823 1.419 . S
C825 C826 1.363 . S
C825 H828 0.929 . S
C826 C825 1.363 . S
C826 C832 1.428 . S
H827 C823 0.930 1_565 S
H828 C825 0.929 . S
S829 N830 1.613 . S
S829 N831 1.610 . S
N830 S829 1.613 . S
N830 C833 1.350 . S
N831 S829 1.610 . S
N831 C832 1.351 . S
C832 C826 1.428 . S
C832 N831 1.351 . S
C832 C833 1.434 . S
C833 C824 1.429 . S
C833 N830 1.350 . S
C833 C832 1.434 . S
C834 C835 1.369 . S
C834 C836 1.419 . S
C834 H838 0.930 . S
C835 C834 1.369 . S
C835 C844 1.429 . S
C836 C834 1.419 . S
C836 C837 1.363 . S
C836 H839 0.929 . S
C837 C836 1.363 . S
C837 C843 1.428 . S
H838 C834 0.930 . S
H839 C836 0.929 . S
S840 N841 1.613 . S
S840 N842 1.610 . S
N841 S840 1.613 . S
N841 C844 1.350 . S
N842 S840 1.610 . S
N842 C843 1.351 . S
C843 C837 1.428 . S
C843 N842 1.351 . S
C843 C844 1.434 . S
C844 C835 1.429 . S
C844 N841 1.350 . S
C844 C843 1.434 . S
C845 C846 1.369 . S
C845 C847 1.419 . S
C845 H849 0.930 . S
C846 C845 1.369 . S
C846 C855 1.429 . S
C847 C845 1.419 . S
C847 C848 1.363 . S
C847 H850 0.929 . S
C848 C847 1.363 . S
C848 C854 1.428 . S
H849 C845 0.930 . S
H850 C847 0.929 . S
S851 N852 1.613 . S
S851 N853 1.610 . S
N852 S851 1.613 . S
N852 C855 1.350 . S
N853 S851 1.610 . S
N853 C854 1.351 . S
C854 C848 1.428 . S
C854 N853 1.351 . S
C854 C855 1.434 . S
C855 C846 1.429 . S
C855 N852 1.350 . S
C855 C854 1.434 . S
C856 C857 1.369 . S
C856 C858 1.419 . S
C856 H860 0.930 . S
C857 C856 1.369 . S
C857 C866 1.429 . S
C858 C856 1.419 . S
C858 C859 1.363 . S
C858 H861 0.929 . S
C859 C858 1.363 . S
C859 C865 1.428 . S
H860 C856 0.930 . S
H861 C858 0.929 . S
S862 N863 1.613 . S
S862 N864 1.610 . S
N863 S862 1.613 . S
N863 C866 1.350 . S
N864 S862 1.610 . S
N864 C865 1.351 . S
C865 C859 1.428 . S
C865 N864 1.351 . S
C865 C866 1.434 . S
C866 C857 1.429 . S
C866 N863 1.350 . S
C866 C865 1.434 . S
C867 C868 1.369 . S
C867 C869 1.419 . S
C867 H871 0.930 . S
C868 C867 1.369 . S
C868 C877 1.429 . S
C869 C867 1.419 . S
C869 C870 1.363 . S
C869 H872 0.929 . S
C870 C869 1.363 . S
C870 C876 1.428 . S
H871 C867 0.930 . S
H872 C869 0.929 . S
S873 N874 1.613 . S
S873 N875 1.610 . S
N874 S873 1.613 . S
N874 C877 1.350 . S
N875 S873 1.610 . S
N875 C876 1.351 . S
C876 C870 1.428 . S
C876 N875 1.351 . S
C876 C877 1.434 . S
C877 C868 1.429 . S
C877 N874 1.350 . S
C877 C876 1.434 . S
C878 C879 1.369 . S
C878 C880 1.419 . S
C878 H882 0.930 . S
C879 C878 1.369 . S
C879 C888 1.429 . S
C880 C878 1.419 . S
C880 C881 1.363 . S
C880 H883 0.929 . S
C881 C880 1.363 . S
C881 C887 1.428 . S
H882 C878 0.930 . S
H883 C880 0.929 . S
S884 N885 1.613 . S
S884 N886 1.610 . S
N885 S884 1.613 . S
N885 C888 1.350 . S
N886 S884 1.610 . S
N886 C887 1.351 . S
C887 C881 1.428 . S
C887 N886 1.351 . S
C887 C888 1.434 . S
C888 C879 1.429 . S
C888 N885 1.350 . S
C888 C887 1.434 . S
C889 C890 1.369 . S
C889 C891 1.419 . S
C889 H893 0.930 . S
C890 C889 1.369 . S
C890 C899 1.429 . S
C891 C889 1.419 . S
C891 C892 1.363 . S
C891 H894 0.929 . S
C892 C891 1.363 . S
C892 C898 1.428 . S
H893 C889 0.930 . S
H894 C891 0.929 . S
S895 N896 1.613 . S
S895 N897 1.610 . S
N896 S895 1.613 . S
N896 C899 1.350 . S
N897 S895 1.610 . S
N897 C898 1.351 . S
C898 C892 1.428 . S
C898 N897 1.351 . S
C898 C899 1.434 . S
C899 C890 1.429 . S
C899 N896 1.350 . S
C899 C898 1.434 . S
C900 C901 1.369 . S
C900 C902 1.419 . S
C900 H904 0.930 . S
C901 C900 1.369 . S
C901 C910 1.429 . S
C902 C900 1.419 . S
C902 C903 1.363 . S
C902 H905 0.929 . S
C903 C902 1.363 . S
C903 C909 1.428 . S
H904 C900 0.930 . S
H905 C902 0.929 . S
S906 N907 1.613 . S
S906 N908 1.610 . S
N907 S906 1.613 . S
N907 C910 1.350 . S
N908 S906 1.610 . S
N908 C909 1.351 . S
C909 C903 1.428 . S
C909 N908 1.351 . S
C909 C910 1.434 . S
C910 C901 1.429 . S
C910 N907 1.350 . S
C910 C909 1.434 . S
C911 C912 1.369 . S
C911 C913 1.419 . S
C911 H915 0.930 . S
C912 C911 1.369 . S
C912 C921 1.429 . S
C913 C911 1.419 . S
C913 C914 1.363 . S
C913 H916 0.929 . S
C914 C913 1.363 . S
C914 C920 1.428 . S
H915 C911 0.930 . S
H916 C913 0.929 . S
S917 N918 1.613 . S
S917 N919 1.610 . S
N918 S917 1.613 . S
N918 C921 1.350 . S
N919 S917 1.610 . S
N919 C920 1.351 . S
C920 C914 1.428 . S
C920 N919 1.351 . S
C920 C921 1.434 . S
C921 C912 1.429 . S
C921 N918 1.350 . S
C921 C920 1.434 . S
C922 C923 1.369 . S
C922 C924 1.419 . S
C922 H926 0.930 . S
C923 C922 1.369 . S
C923 C932 1.429 . S
C924 C922 1.419 . S
C924 C925 1.363 . S
C924 H927 0.929 . S
C925 C924 1.363 . S
C925 C931 1.428 . S
H926 C922 0.930 . S
H927 C924 0.929 . S
S928 N929 1.613 . S
S928 N930 1.610 . S
N929 S928 1.613 . S
N929 C932 1.350 . S
N930 S928 1.610 . S
N930 C931 1.351 . S
C931 C925 1.428 . S
C931 N930 1.351 . S
C931 C932 1.434 . S
C932 C923 1.429 . S
C932 N929 1.350 . S
C932 C931 1.434 . S
C933 C934 1.369 . S
C933 C935 1.419 . S
C933 H937 0.930 . S
C934 C933 1.369 . S
C934 C943 1.429 . S
C935 C933 1.419 . S
C935 C936 1.363 . S
C935 H938 0.929 . S
C936 C935 1.363 . S
C936 C942 1.428 . S
H937 C933 0.930 . S
H938 C935 0.929 . S
S939 N940 1.613 . S
S939 N941 1.610 . S
N940 S939 1.613 . S
N940 C943 1.350 . S
N941 S939 1.610 . S
N941 C942 1.351 . S
C942 C936 1.428 . S
C942 N941 1.351 . S
C942 C943 1.434 . S
C943 C934 1.429 . S
C943 N940 1.350 . S
C943 C942 1.434 . S
C944 C945 1.369 . S
C944 C946 1.419 . S
C944 H948 0.930 . S
C945 C944 1.369 . S
C945 C954 1.429 . S
C946 C944 1.419 . S
C946 C947 1.363 . S
C946 H949 0.929 . S
C947 C946 1.363 . S
C947 C953 1.428 . S
H948 C944 0.930 . S
H949 C946 0.929 . S
S950 N951 1.613 . S
S950 N952 1.610 . S
N951 S950 1.613 . S
N951 C954 1.350 . S
N952 S950 1.610 . S
N952 C953 1.351 . S
C953 C947 1.428 . S
C953 N952 1.351 . S
C953 C954 1.434 . S
C954 C945 1.429 . S
C954 N951 1.350 . S
C954 C953 1.434 . S
C955 C956 1.369 . S
C955 C957 1.419 . S
C955 H959 0.930 . S
C956 C955 1.369 . S
C956 C965 1.429 . S
C957 C955 1.419 . S
C957 C958 1.363 . S
C957 H960 0.929 . S
C958 C957 1.363 . S
C958 C964 1.428 . S
H959 C955 0.930 . S
H960 C957 0.929 . S
S961 N962 1.613 . S
S961 N963 1.610 . S
N962 S961 1.613 . S
N962 C965 1.350 . S
N963 S961 1.610 . S
N963 C964 1.351 . S
C964 C958 1.428 . S
C964 N963 1.351 . S
C964 C965 1.434 . S
C965 C956 1.429 . S
C965 N962 1.350 . S
C965 C964 1.434 . S
C966 C967 1.369 . S
C966 C968 1.419 . S
C966 H970 0.930 . S
C967 C966 1.369 . S
C967 C976 1.429 . S
C968 C966 1.419 . S
C968 C969 1.363 . S
C968 H971 0.929 . S
C969 C968 1.363 . S
C969 C975 1.428 . S
H970 C966 0.930 . S
H971 C968 0.929 . S
S972 N973 1.613 . S
S972 N974 1.610 . S
N973 S972 1.613 . S
N973 C976 1.350 . S
N974 S972 1.610 . S
N974 C975 1.351 . S
C975 C969 1.428 . S
C975 N974 1.351 . S
C975 C976 1.434 . S
C976 C967 1.429 . S
C976 N973 1.350 . S
C976 C975 1.434 . S
C977 C978 1.369 . S
C977 C979 1.419 . S
C977 H981 0.930 . S
C978 C977 1.369 . S
C978 C987 1.429 . S
C979 C977 1.419 . S
C979 C980 1.363 . S
C979 H982 0.929 . S
C980 C979 1.363 . S
C980 C986 1.428 . S
H981 C977 0.930 . S
H982 C979 0.929 . S
S983 N984 1.613 . S
S983 N985 1.610 . S
N984 S983 1.613 . S
N984 C987 1.350 . S
N985 S983 1.610 . S
N985 C986 1.351 . S
C986 C980 1.428 . S
C986 N985 1.351 . S
C986 C987 1.434 . S
C987 C978 1.429 . S
C987 N984 1.350 . S
C987 C986 1.434 . S
C988 C989 1.369 . S
C988 C990 1.419 . S
C988 H992 0.930 . S
C989 C988 1.369 . S
C989 C998 1.429 . S
C990 C988 1.419 . S
C990 C991 1.363 . S
C990 H993 0.929 . S
C991 C990 1.363 . S
C991 C997 1.428 . S
H992 C988 0.930 . S
H993 C990 0.929 . S
S994 N995 1.613 . S
S994 N996 1.610 . S
N995 S994 1.613 . S
N995 C998 1.350 . S
N996 S994 1.610 . S
N996 C997 1.351 . S
C997 C991 1.428 . S
C997 N996 1.351 . S
C997 C998 1.434 . S
C998 C989 1.429 . S
C998 N995 1.350 . S
C998 C997 1.434 . S
C999 C1000 1.369 . S
C999 C1001 1.419 . S
C999 H1003 0.930 . S
C1000 C999 1.369 . S
C1000 C1009 1.429 . S
C1001 C999 1.419 . S
C1001 C1002 1.363 . S
C1001 H1004 0.929 . S
C1002 C1001 1.363 . S
C1002 C1008 1.428 . S
H1003 C999 0.930 . S
H1004 C1001 0.929 . S
S1005 N1006 1.613 . S
S1005 N1007 1.610 . S
N1006 S1005 1.613 . S
N1006 C1009 1.350 . S
N1007 S1005 1.610 . S
N1007 C1008 1.351 . S
C1008 C1002 1.428 . S
C1008 N1007 1.351 . S
C1008 C1009 1.434 . S
C1009 C1000 1.429 . S
C1009 N1006 1.350 . S
C1009 C1008 1.434 . S
C1010 C1011 1.369 . S
C1010 C1012 1.419 . S
C1010 H1014 0.930 . S
C1011 C1010 1.369 . S
C1011 C1020 1.429 . S
C1012 C1010 1.419 . S
C1012 C1013 1.363 . S
C1012 H1015 0.929 . S
C1013 C1012 1.363 . S
C1013 C1019 1.428 . S
H1014 C1010 0.930 . S
H1015 C1012 0.929 . S
S1016 N1017 1.613 . S
S1016 N1018 1.610 . S
N1017 S1016 1.613 . S
N1017 C1020 1.350 . S
N1018 S1016 1.610 . S
N1018 C1019 1.351 . S
C1019 C1013 1.428 . S
C1019 N1018 1.351 . S
C1019 C1020 1.434 . S
C1020 C1011 1.429 . S
C1020 N1017 1.350 . S
C1020 C1019 1.434 . S
C1021 C1022 1.369 . S
C1021 C1023 1.419 . S
C1021 H1025 0.930 . S
C1022 C1021 1.369 . S
C1022 C1031 1.429 . S
C1023 C1021 1.419 . S
C1023 C1024 1.363 . S
C1023 H1026 0.929 . S
C1024 C1023 1.363 . S
C1024 C1030 1.428 . S
H1025 C1021 0.930 . S
H1026 C1023 0.929 . S
S1027 N1028 1.613 . S
S1027 N1029 1.610 . S
N1028 S1027 1.613 . S
N1028 C1031 1.350 . S
N1029 S1027 1.610 . S
N1029 C1030 1.351 . S
C1030 C1024 1.428 . S
C1030 N1029 1.351 . S
C1030 C1031 1.434 . S
C1031 C1022 1.429 . S
C1031 N1028 1.350 . S
C1031 C1030 1.434 . S
C1032 C1033 1.369 . S
C1032 C1034 1.419 . S
C1032 H1036 0.930 . S
C1033 C1032 1.369 . S
C1033 C1042 1.429 . S
C1034 C1032 1.419 . S
C1034 C1035 1.363 . S
C1034 H1037 0.929 . S
C1035 C1034 1.363 . S
C1035 C1041 1.428 . S
H1036 C1032 0.930 . S
H1037 C1034 0.929 . S
S1038 N1039 1.613 . S
S1038 N1040 1.610 . S
N1039 S1038 1.613 . S
N1039 C1042 1.350 . S
N1040 S1038 1.610 . S
N1040 C1041 1.351 . S
C1041 C1035 1.428 . S
C1041 N1040 1.351 . S
C1041 C1042 1.434 . S
C1042 C1033 1.429 . S
C1042 N1039 1.350 . S
C1042 C1041 1.434 . S
C1043 C1044 1.369 . S
C1043 C1045 1.419 . S
C1043 H1047 0.930 . S
C1044 C1043 1.369 . S
C1044 C1053 1.429 . S
C1045 C1043 1.419 . S
C1045 C1046 1.363 . S
C1045 H1048 0.929 . S
C1046 C1045 1.363 . S
C1046 C1052 1.428 . S
H1047 C1043 0.930 . S
H1048 C1045 0.929 . S
S1049 N1050 1.613 . S
S1049 N1051 1.610 . S
N1050 S1049 1.613 . S
N1050 C1053 1.350 . S
N1051 S1049 1.610 . S
N1051 C1052 1.351 . S
C1052 C1046 1.428 . S
C1052 N1051 1.351 . S
C1052 C1053 1.434 . S
C1053 C1044 1.429 . S
C1053 N1050 1.350 . S
C1053 C1052 1.434 . S
C1054 C1055 1.369 . S
C1054 C1056 1.419 . S
C1054 H1058 0.930 . S
C1055 C1054 1.369 . S
C1055 C1064 1.429 . S
C1056 C1054 1.419 . S
C1056 C1057 1.363 . S
C1056 H1059 0.929 . S
C1057 C1056 1.363 . S
C1057 C1063 1.428 . S
H1058 C1054 0.930 . S
H1059 C1056 0.929 . S
S1060 N1061 1.613 . S
S1060 N1062 1.610 . S
N1061 S1060 1.613 . S
N1061 C1064 1.350 . S
N1062 S1060 1.610 . S
N1062 C1063 1.351 . S
C1063 C1057 1.428 . S
C1063 N1062 1.351 . S
C1063 C1064 1.434 . S
C1064 C1055 1.429 . S
C1064 N1061 1.350 . S
C1064 C1063 1.434 . S
C1065 C1066 1.369 . S
C1065 C1067 1.419 . S
C1065 H1069 0.930 . S
C1066 C1065 1.369 . S
C1066 C1075 1.429 . S
C1067 C1065 1.419 . S
C1067 C1068 1.363 . S
C1067 H1070 0.929 . S
C1068 C1067 1.363 . S
C1068 C1074 1.428 . S
H1069 C1065 0.930 . S
H1070 C1067 0.929 . S
S1071 N1072 1.613 . S
S1071 N1073 1.610 . S
N1072 S1071 1.613 . S
N1072 C1075 1.350 . S
N1073 S1071 1.610 . S
N1073 C1074 1.351 . S
C1074 C1068 1.428 . S
C1074 N1073 1.351 . S
C1074 C1075 1.434 . S
C1075 C1066 1.429 . S
C1075 N1072 1.350 . S
C1075 C1074 1.434 . S
C1076 C1077 1.369 . S
C1076 C1078 1.419 . S
C1076 H1080 0.930 . S
C1077 C1076 1.369 . S
C1077 C1086 1.429 . S
C1078 C1076 1.419 . S
C1078 C1079 1.363 . S
C1078 H1081 0.929 . S
C1079 C1078 1.363 . S
C1079 C1085 1.428 . S
H1080 C1076 0.930 . S
H1081 C1078 0.929 . S
S1082 N1083 1.613 . S
S1082 N1084 1.610 . S
N1083 S1082 1.613 . S
N1083 C1086 1.350 . S
N1084 S1082 1.610 . S
N1084 C1085 1.351 . S
C1085 C1079 1.428 . S
C1085 N1084 1.351 . S
C1085 C1086 1.434 . S
C1086 C1077 1.429 . S
C1086 N1083 1.350 . S
C1086 C1085 1.434 . S
C1087 C1088 1.369 . S
C1087 C1089 1.419 . S
C1087 H1091 0.930 . S
C1088 C1087 1.369 . S
C1088 C1097 1.429 . S
C1089 C1087 1.419 . S
C1089 C1090 1.363 . S
C1089 H1092 0.929 . S
C1090 C1089 1.363 . S
C1090 C1096 1.428 . S
H1091 C1087 0.930 . S
H1092 C1089 0.929 . S
S1093 N1094 1.613 . S
S1093 N1095 1.610 . S
N1094 S1093 1.613 . S
N1094 C1097 1.350 . S
N1095 S1093 1.610 . S
N1095 C1096 1.351 . S
C1096 C1090 1.428 . S
C1096 N1095 1.351 . S
C1096 C1097 1.434 . S
C1097 C1088 1.429 . S
C1097 N1094 1.350 . S
C1097 C1096 1.434 . S
C1098 C1099 1.369 . S
C1098 C1100 1.419 . S
C1098 H1102 0.930 . S
C1099 C1098 1.369 . S
C1099 C1108 1.429 . S
C1100 C1098 1.419 . S
C1100 C1101 1.363 . S
C1100 H1103 0.929 . S
C1101 C1100 1.363 . S
C1101 C1107 1.428 . S
H1102 C1098 0.930 . S
H1103 C1100 0.929 . S
S1104 N1105 1.613 . S
S1104 N1106 1.610 . S
N1105 S1104 1.613 . S
N1105 C1108 1.350 . S
N1106 S1104 1.610 . S
N1106 C1107 1.351 . S
C1107 C1101 1.428 . S
C1107 N1106 1.351 . S
C1107 C1108 1.434 . S
C1108 C1099 1.429 . S
C1108 N1105 1.350 . S
C1108 C1107 1.434 . S
C1109 C1110 1.369 1_565 S
C1109 C1111 1.419 1_565 S
C1109 H1113 0.930 . S
C1110 C1109 1.369 1_545 S
C1110 C1119 1.429 . S
C1111 C1109 1.419 1_545 S
C1111 C1112 1.363 . S
C1111 H1114 0.929 1_545 S
C1112 C1111 1.363 . S
C1112 C1118 1.428 . S
H1113 C1109 0.930 . S
H1114 C1111 0.929 1_565 S
S1115 N1116 1.613 . S
S1115 N1117 1.610 . S
N1116 S1115 1.613 . S
N1116 C1119 1.350 . S
N1117 S1115 1.610 . S
N1117 C1118 1.351 . S
C1118 C1112 1.428 . S
C1118 N1117 1.351 . S
C1118 C1119 1.434 . S
C1119 C1110 1.429 . S
C1119 N1116 1.350 . S
C1119 C1118 1.434 . S
C1120 C1121 1.369 . S
C1120 C1122 1.419 1_655 S
C1120 H1124 0.928 . S
C1121 C1120 1.369 . S
C1121 C1130 1.429 . S
C1122 C1120 1.419 1_455 S
C1122 C1123 1.363 1_455 S
C1122 H1125 0.929 . S
C1123 C1122 1.363 1_655 S
C1123 C1129 1.428 . S
H1124 C1120 0.928 . S
H1125 C1122 0.929 . S
S1126 N1127 1.613 . S
S1126 N1128 1.610 . S
N1127 S1126 1.613 . S
N1127 C1130 1.350 . S
N1128 S1126 1.610 . S
N1128 C1129 1.351 . S
C1129 C1123 1.428 . S
C1129 N1128 1.351 . S
C1129 C1130 1.434 . S
C1130 C1121 1.429 . S
C1130 N1127 1.350 . S
C1130 C1129 1.434 . S
C1131 C1132 1.369 . S
C1131 C1133 1.419 . S
C1131 H1135 0.930 . S
C1132 C1131 1.369 . S
C1132 C1141 1.429 . S
C1133 C1131 1.419 . S
C1133 C1134 1.363 . S
C1133 H1136 0.929 . S
C1134 C1133 1.363 . S
C1134 C1140 1.428 . S
H1135 C1131 0.930 . S
H1136 C1133 0.929 . S
S1137 N1138 1.613 . S
S1137 N1139 1.610 . S
N1138 S1137 1.613 . S
N1138 C1141 1.350 . S
N1139 S1137 1.610 . S
N1139 C1140 1.351 . S
C1140 C1134 1.428 . S
C1140 N1139 1.351 . S
C1140 C1141 1.434 . S
C1141 C1132 1.429 . S
C1141 N1138 1.350 . S
C1141 C1140 1.434 . S
C1142 C1143 1.369 1_545 S
C1142 C1144 1.419 1_545 S
C1142 H1146 0.930 . S
C1143 C1142 1.369 1_565 S
C1143 C1152 1.429 . S
C1144 C1142 1.419 1_565 S
C1144 C1145 1.363 . S
C1144 H1147 0.929 . S
C1145 C1144 1.363 . S
C1145 C1151 1.428 . S
H1146 C1142 0.930 . S
H1147 C1144 0.929 . S
S1148 N1149 1.613 . S
S1148 N1150 1.610 . S
N1149 S1148 1.613 . S
N1149 C1152 1.350 . S
N1150 S1148 1.610 . S
N1150 C1151 1.351 . S
C1151 C1145 1.428 . S
C1151 N1150 1.351 . S
C1151 C1152 1.434 . S
C1152 C1143 1.429 . S
C1152 N1149 1.350 . S
C1152 C1151 1.434 . S
C1153 C1154 1.369 . S
C1153 C1155 1.419 . S
C1153 H1157 0.930 . S
C1154 C1153 1.369 . S
C1154 C1163 1.429 . S
C1155 C1153 1.419 . S
C1155 C1156 1.363 . S
C1155 H1158 0.929 . S
C1156 C1155 1.363 . S
C1156 C1162 1.428 1_455 S
H1157 C1153 0.930 . S
H1158 C1155 0.929 . S
S1159 N1160 1.613 . S
S1159 N1161 1.610 . S
N1160 S1159 1.613 . S
N1160 C1163 1.350 1_655 S
N1161 S1159 1.610 . S
N1161 C1162 1.351 . S
C1162 C1156 1.428 1_655 S
C1162 N1161 1.351 . S
C1162 C1163 1.434 1_655 S
C1163 C1154 1.429 . S
C1163 N1160 1.350 1_455 S
C1163 C1162 1.434 1_455 S
C1164 C1165 1.369 . S
C1164 C1166 1.419 . S
C1164 H1168 0.930 . S
C1165 C1164 1.369 . S
C1165 C1174 1.429 . S
C1166 C1164 1.419 . S
C1166 C1167 1.363 . S
C1166 H1169 0.929 . S
C1167 C1166 1.363 . S
C1167 C1173 1.428 . S
H1168 C1164 0.930 . S
H1169 C1166 0.929 . S
S1170 N1171 1.613 . S
S1170 N1172 1.610 . S
N1171 S1170 1.613 . S
N1171 C1174 1.350 . S
N1172 S1170 1.610 . S
N1172 C1173 1.351 . S
C1173 C1167 1.428 . S
C1173 N1172 1.351 . S
C1173 C1174 1.434 . S
C1174 C1165 1.429 . S
C1174 N1171 1.350 . S
C1174 C1173 1.434 . S
C1175 C1176 1.369 . S
C1175 C1177 1.419 1_565 S
C1175 H1179 0.930 . S
C1176 C1175 1.369 . S
C1176 C1185 1.429 . S
C1177 C1175 1.419 1_545 S
C1177 C1178 1.363 1_545 S
C1177 H1180 0.929 . S
C1178 C1177 1.363 1_565 S
C1178 C1184 1.428 . S
H1179 C1175 0.930 . S
H1180 C1177 0.929 . S
S1181 N1182 1.613 . S
S1181 N1183 1.610 . S
N1182 S1181 1.613 . S
N1182 C1185 1.350 . S
N1183 S1181 1.610 . S
N1183 C1184 1.351 . S
C1184 C1178 1.428 . S
C1184 N1183 1.351 . S
C1184 C1185 1.434 . S
C1185 C1176 1.429 . S
C1185 N1182 1.350 . S
C1185 C1184 1.434 . S
C1186 C1187 1.369 . S
C1186 C1188 1.419 . S
C1186 H1190 0.930 . S
C1187 C1186 1.369 . S
C1187 C1196 1.429 . S
C1188 C1186 1.419 . S
C1188 C1189 1.363 . S
C1188 H1191 0.929 . S
C1189 C1188 1.363 . S
C1189 C1195 1.428 1_455 S
H1190 C1186 0.930 . S
H1191 C1188 0.929 . S
S1192 N1193 1.613 . S
S1192 N1194 1.610 . S
N1193 S1192 1.613 . S
N1193 C1196 1.350 1_655 S
N1194 S1192 1.610 . S
N1194 C1195 1.351 . S
C1195 C1189 1.428 1_655 S
C1195 N1194 1.351 . S
C1195 C1196 1.434 1_655 S
C1196 C1187 1.429 . S
C1196 N1193 1.350 1_455 S
C1196 C1195 1.434 1_455 S
C1197 C1198 1.369 . S
C1197 C1199 1.419 . S
C1197 H1201 0.930 . S
C1198 C1197 1.369 . S
C1198 C1207 1.429 . S
C1199 C1197 1.419 . S
C1199 C1200 1.363 . S
C1199 H1202 0.929 . S
C1200 C1199 1.363 . S
C1200 C1206 1.428 . S
H1201 C1197 0.930 . S
H1202 C1199 0.929 . S
S1203 N1204 1.613 . S
S1203 N1205 1.610 . S
N1204 S1203 1.613 . S
N1204 C1207 1.350 . S
N1205 S1203 1.610 . S
N1205 C1206 1.351 . S
C1206 C1200 1.428 . S
C1206 N1205 1.351 . S
C1206 C1207 1.434 . S
C1207 C1198 1.429 . S
C1207 N1204 1.350 . S
C1207 C1206 1.434 . S
C1208 C1209 1.369 . S
C1208 C1210 1.419 . S
C1208 H1212 0.930 . S
C1209 C1208 1.369 . S
C1209 C1218 1.429 . S
C1210 C1208 1.419 . S
C1210 C1211 1.363 . S
C1210 H1213 0.929 . S
C1211 C1210 1.363 . S
C1211 C1217 1.428 1_545 S
H1212 C1208 0.930 . S
H1213 C1210 0.929 . S
S1214 N1215 1.624 . S
S1214 N1216 1.610 . S
N1215 S1214 1.624 . S
N1215 C1218 1.352 1_565 S
N1216 S1214 1.610 . S
N1216 C1217 1.351 . S
C1217 C1211 1.428 1_565 S
C1217 N1216 1.351 . S
C1217 C1218 1.434 1_565 S
C1218 C1209 1.429 . S
C1218 N1215 1.352 1_545 S
C1218 C1217 1.434 1_545 S
C1219 C1220 1.369 . S
C1219 C1221 1.419 . S
C1219 H1223 0.930 . S
C1220 C1219 1.369 . S
C1220 C1229 1.429 1_655 S
C1221 C1219 1.419 . S
C1221 C1222 1.363 . S
C1221 H1224 0.929 . S
C1222 C1221 1.363 . S
C1222 C1228 1.428 . S
H1223 C1219 0.930 . S
H1224 C1221 0.929 . S
S1225 N1226 1.613 . S
S1225 N1227 1.610 . S
N1226 S1225 1.613 . S
N1226 C1229 1.350 . S
N1227 S1225 1.610 . S
N1227 C1228 1.351 1_455 S
C1228 C1222 1.428 . S
C1228 N1227 1.351 1_655 S
C1228 C1229 1.434 1_655 S
C1229 C1220 1.429 1_455 S
C1229 N1226 1.350 . S
C1229 C1228 1.434 1_455 S
C1230 C1231 1.369 . S
C1230 C1232 1.419 1_655 S
C1230 H1234 0.930 . S
C1231 C1230 1.369 . S
C1231 C1240 1.429 . S
C1232 C1230 1.419 1_455 S
C1232 C1233 1.363 . S
C1232 H1235 0.929 . S
C1233 C1232 1.363 . S
C1233 C1239 1.428 . S
H1234 C1230 0.930 . S
H1235 C1232 0.929 . S
S1236 N1237 1.613 . S
S1236 N1238 1.610 1_655 S
N1237 S1236 1.613 . S
N1237 C1240 1.350 . S
N1238 S1236 1.610 1_455 S
N1238 C1239 1.351 . S
C1239 C1233 1.428 . S
C1239 N1238 1.351 . S
C1239 C1240 1.434 1_455 S
C1240 C1231 1.429 . S
C1240 N1237 1.350 . S
C1240 C1239 1.434 1_655 S
C1241 C1242 1.369 . S
C1241 C1243 1.419 . S
C1241 H1245 0.930 . S
C1242 C1241 1.369 . S
C1242 C1251 1.429 . S
C1243 C1241 1.419 . S
C1243 C1244 1.363 . S
C1243 H1246 0.929 . S
C1244 C1243 1.363 . S
C1244 C1250 1.428 . S
H1245 C1241 0.930 . S
H1246 C1243 0.929 . S
S1247 N1248 1.613 . S
S1247 N1249 1.610 . S
N1248 S1247 1.613 . S
N1248 C1251 1.350 . S
N1249 S1247 1.610 . S
N1249 C1250 1.351 . S
C1250 C1244 1.428 . S
C1250 N1249 1.351 . S
C1250 C1251 1.434 . S
C1251 C1242 1.429 . S
C1251 N1248 1.350 . S
C1251 C1250 1.434 . S
C1252 C1253 1.369 . S
C1252 C1254 1.419 1_565 S
C1252 H1256 0.930 . S
C1253 C1252 1.369 . S
C1253 C1262 1.429 . S
C1254 C1252 1.419 1_545 S
C1254 C1255 1.363 . S
C1254 H1257 0.929 . S
C1255 C1254 1.363 . S
C1255 C1261 1.428 . S
H1256 C1252 0.930 . S
H1257 C1254 0.929 . S
S1258 N1259 1.613 1_545 S
S1258 N1260 1.610 . S
N1259 S1258 1.613 1_565 S
N1259 C1262 1.350 . S
N1260 S1258 1.610 . S
N1260 C1261 1.351 . S
C1261 C1255 1.428 . S
C1261 N1260 1.351 . S
C1261 C1262 1.434 1_545 S
C1262 C1253 1.429 . S
C1262 N1259 1.350 . S
C1262 C1261 1.434 1_565 S
C1263 C1264 1.369 . S
C1263 C1265 1.419 1_565 S
C1263 H1267 0.930 . S
C1264 C1263 1.369 . S
C1264 C1273 1.429 . S
C1265 C1263 1.419 1_545 S
C1265 C1266 1.363 . S
C1265 H1268 0.929 . S
C1266 C1265 1.363 . S
C1266 C1272 1.428 . S
H1267 C1263 0.930 . S
H1268 C1265 0.929 . S
S1269 N1270 1.613 1_545 S
S1269 N1271 1.610 . S
N1270 S1269 1.613 1_565 S
N1270 C1273 1.350 . S
N1271 S1269 1.610 . S
N1271 C1272 1.351 . S
C1272 C1266 1.428 . S
C1272 N1271 1.351 . S
C1272 C1273 1.434 1_545 S
C1273 C1264 1.429 . S
C1273 N1270 1.350 . S
C1273 C1272 1.434 1_565 S
C1274 C1275 1.369 . S
C1274 C1276 1.419 1_655 S
C1274 H1278 0.930 . S
C1275 C1274 1.369 . S
C1275 C1284 1.429 . S
C1276 C1274 1.419 1_455 S
C1276 C1277 1.363 . S
C1276 H1279 0.929 . S
C1277 C1276 1.363 . S
C1277 C1283 1.428 . S
H1278 C1274 0.930 . S
H1279 C1276 0.929 . S
S1280 N1281 1.611 . S
S1280 N1282 1.610 . S
N1281 S1280 1.611 . S
N1281 C1284 1.350 1_455 S
N1282 S1280 1.610 . S
N1282 C1283 1.351 . S
C1283 C1277 1.428 . S
C1283 N1282 1.351 . S
C1283 C1284 1.434 1_455 S
C1284 C1275 1.429 . S
C1284 N1281 1.350 1_655 S
C1284 C1283 1.434 1_655 S
C1285 C1286 1.369 . S
C1285 C1287 1.419 . S
C1285 H1289 0.930 . S
C1286 C1285 1.369 . S
C1286 C1295 1.429 . S
C1287 C1285 1.419 . S
C1287 C1288 1.363 . S
C1287 H1290 0.929 . S
C1288 C1287 1.363 . S
C1288 C1294 1.428 . S
H1289 C1285 0.930 . S
H1290 C1287 0.929 . S
S1291 N1292 1.613 . S
S1291 N1293 1.610 . S
N1292 S1291 1.613 . S
N1292 C1295 1.350 . S
N1293 S1291 1.610 . S
N1293 C1294 1.351 . S
C1294 C1288 1.428 . S
C1294 N1293 1.351 . S
C1294 C1295 1.434 . S
C1295 C1286 1.429 . S
C1295 N1292 1.350 . S
C1295 C1294 1.434 . S
C505 C7 1.421 . S
C507 C259 1.416 . S
C516 C21 1.420 . S
C518 C273 1.416 . S
C527 C287 1.418 . S
C529 C35 1.418 . S
C538 C49 1.418 . S
C540 C469 1.417 . S
C549 C483 1.415 . S
C551 C63 1.420 . S
C560 C77 1.416 . S
C562 C497 1.419 . S
C571 C343 1.415 . S
C573 C91 1.420 . S
C582 C105 1.420 . S
C584 C357 1.416 . S
C593 C119 1.418 . S
C595 C371 1.418 . S
C604 C133 1.415 . S
C606 C217 1.420 . S
C615 C231 1.420 . S
C617 C147 1.417 . S
C626 C161 1.417 . S
C628 C245 1.418 . S
C637 C175 1.420 . S
C639 C427 1.416 . S
C648 C189 1.421 . S
C650 C441 1.415 . S
C659 C203 1.415 . S
C661 C455 1.420 . S
C670 C301 1.415 . S
C672 C385 1.420 . S
C681 C315 1.417 . S
C683 C399 1.419 . S
C692 C329 1.421 . S
C694 C413 1.415 . S
C703 C106 1.444 1_545 S
C705 C6 1.491 . S
C714 C120 1.448 1_655 S
C716 C20 1.489 . S
C725 C34 1.491 . S
C727 C92 1.445 . S
C736 C162 1.449 1_455 S
C738 C48 1.489 . S
C747 C134 1.453 . S
C749 C62 1.487 . S
C758 C148 1.445 1_565 S
C760 C76 1.490 . S
C769 C90 1.487 . S
C771 C22 1.452 1_565 S
C780 C104 1.489 . S
C782 C36 1.450 1_455 S
C791 C118 1.490 . S
C793 C8 1.448 . S
C802 C132 1.491 . S
C804 C78 1.446 1_655 S
C813 C50 1.445 . S
C815 C146 1.491 . S
C824 C64 1.453 1_545 S
C826 C160 1.487 . S
C835 C174 1.489 . S
C837 C274 1.448 . S
C846 C188 1.489 . S
C848 C288 1.449 . S
C857 C202 1.488 . S
C859 C260 1.449 . S
C868 C330 1.451 . S
C870 C216 1.488 . S
C879 C230 1.491 . S
C881 C302 1.445 . S
C890 C316 1.453 . S
C892 C244 1.487 . S
C901 C258 1.491 . S
C903 C190 1.445 . S
C912 C204 1.452 . S
C914 C272 1.488 . S
C923 C176 1.453 . S
C925 C286 1.487 . S
C934 C300 1.489 . S
C936 C246 1.448 . S
C945 C314 1.490 . S
C947 C218 1.448 . S
C956 C328 1.487 . S
C958 C232 1.451 . S
C967 C442 1.444 . S
C969 C342 1.491 . S
C978 C356 1.491 . S
C980 C456 1.445 . S
C989 C370 1.490 . S
C991 C428 1.447 . S
C1000 C498 1.444 . S
C1002 C384 1.491 . S
C1011 C470 1.454 . S
C1013 C398 1.487 . S
C1022 C484 1.453 . S
C1024 C412 1.487 . S
C1033 C358 1.452 . S
C1035 C426 1.488 . S
C1044 C372 1.444 . S
C1046 C440 1.491 . S
C1055 C344 1.453 . S
C1057 C454 1.487 . S
C1066 C468 1.490 . S
C1068 C414 1.448 . S
C1077 C386 1.450 . S
C1079 C482 1.489 . S
C1088 C496 1.490 . S
C1090 C400 1.448 . S
C1099 C9 1.234 . S
C1101 C415 1.222 . S
C1110 C387 1.229 1_545 S
C1112 C23 1.229 . S
C1121 C37 1.229 . S
C1123 C401 1.228 1_655 S
C1132 C51 1.225 . S
C1134 C191 1.223 . S
C1143 C205 1.232 1_565 S
C1145 C65 1.225 . S
C1154 C79 1.230 . S
C1156 C177 1.221 1_455 S
C1165 C331 1.219 . S
C1167 C93 1.231 . S
C1176 C107 1.233 . S
C1178 C303 1.224 1_565 S
C1187 C121 1.224 . S
C1189 C317 1.223 1_455 S
C1198 C135 1.234 . S
C1200 C443 1.222 . S
C1209 C149 1.219 . S
C1211 C457 1.229 1_545 S
C1220 C429 1.220 1_655 S
C1222 C163 1.227 . S
C1231 C219 1.223 . S
C1233 C359 1.232 . S
C1242 C373 1.224 . S
C1244 C233 1.225 . S
C1253 C345 1.233 . S
C1255 C247 1.221 . S
C1264 C499 1.232 . S
C1266 C261 1.226 . S
C1275 C275 1.232 . S
C1277 C471 1.221 . S
C1286 C289 1.222 . S
C1288 C485 1.225 . S
