# Generated by pormake.
# Topology smw, (6)-cn, num edge types: 1
# Building blocks:
#     Node 0, Type 0, BuildingBlock: IZENUY_clean_sbu_0, # of connection points: 6
#     Node 1, Type 0, BuildingBlock: IZENUY_clean_sbu_0, # of connection points: 6
#     Node 2, Type 0, BuildingBlock: IZENUY_clean_sbu_0, # of connection points: 6
#     Node 3, Type 0, BuildingBlock: IZENUY_clean_sbu_0, # of connection points: 6
#     Node 4, Type 0, BuildingBlock: IZENUY_clean_sbu_0, # of connection points: 6
#     Node 5, Type 0, BuildingBlock: IZENUY_clean_sbu_0, # of connection points: 6
#     Node 6, Type 0, BuildingBlock: IZENUY_clean_sbu_0, # of connection points: 6
#     Node 7, Type 0, BuildingBlock: IZENUY_clean_sbu_0, # of connection points: 6
#     Node 8, Type 0, BuildingBlock: IZENUY_clean_sbu_0, # of connection points: 6
#     Node 9, Type 0, BuildingBlock: IZENUY_clean_sbu_0, # of connection points: 6
#     Node 10, Type 0, BuildingBlock: IZENUY_clean_sbu_0, # of connection points: 6
#     Node 11, Type 0, BuildingBlock: IZENUY_clean_sbu_0, # of connection points: 6
#     Edge 12, Type (0, 0), BuildingBlock: MIFKUJ_clean_linker_0, # of connection points: 2
#     Edge 13, Type (0, 0), BuildingBlock: MIFKUJ_clean_linker_0, # of connection points: 2
#     Edge 14, Type (0, 0), BuildingBlock: MIFKUJ_clean_linker_0, # of connection points: 2
#     Edge 15, Type (0, 0), BuildingBlock: MIFKUJ_clean_linker_0, # of connection points: 2
#     Edge 16, Type (0, 0), BuildingBlock: MIFKUJ_clean_linker_0, # of connection points: 2
#     Edge 17, Type (0, 0), BuildingBlock: MIFKUJ_clean_linker_0, # of connection points: 2
#     Edge 18, Type (0, 0), BuildingBlock: MIFKUJ_clean_linker_0, # of connection points: 2
#     Edge 19, Type (0, 0), BuildingBlock: MIFKUJ_clean_linker_0, # of connection points: 2
#     Edge 20, Type (0, 0), BuildingBlock: MIFKUJ_clean_linker_0, # of connection points: 2
#     Edge 21, Type (0, 0), BuildingBlock: MIFKUJ_clean_linker_0, # of connection points: 2
#     Edge 22, Type (0, 0), BuildingBlock: MIFKUJ_clean_linker_0, # of connection points: 2
#     Edge 23, Type (0, 0), BuildingBlock: MIFKUJ_clean_linker_0, # of connection points: 2
#     Edge 24, Type (0, 0), BuildingBlock: MIFKUJ_clean_linker_0, # of connection points: 2
#     Edge 25, Type (0, 0), BuildingBlock: MIFKUJ_clean_linker_0, # of connection points: 2
#     Edge 26, Type (0, 0), BuildingBlock: MIFKUJ_clean_linker_0, # of connection points: 2
#     Edge 27, Type (0, 0), BuildingBlock: MIFKUJ_clean_linker_0, # of connection points: 2
#     Edge 28, Type (0, 0), BuildingBlock: MIFKUJ_clean_linker_0, # of connection points: 2
#     Edge 29, Type (0, 0), BuildingBlock: MIFKUJ_clean_linker_0, # of connection points: 2
#     Edge 30, Type (0, 0), BuildingBlock: MIFKUJ_clean_linker_0, # of connection points: 2
#     Edge 31, Type (0, 0), BuildingBlock: MIFKUJ_clean_linker_0, # of connection points: 2
#     Edge 32, Type (0, 0), BuildingBlock: MIFKUJ_clean_linker_0, # of connection points: 2
#     Edge 33, Type (0, 0), BuildingBlock: MIFKUJ_clean_linker_0, # of connection points: 2
#     Edge 34, Type (0, 0), BuildingBlock: MIFKUJ_clean_linker_0, # of connection points: 2
#     Edge 35, Type (0, 0), BuildingBlock: MIFKUJ_clean_linker_0, # of connection points: 2
#     Edge 36, Type (0, 0), BuildingBlock: MIFKUJ_clean_linker_0, # of connection points: 2
#     Edge 37, Type (0, 0), BuildingBlock: MIFKUJ_clean_linker_0, # of connection points: 2
#     Edge 38, Type (0, 0), BuildingBlock: MIFKUJ_clean_linker_0, # of connection points: 2
#     Edge 39, Type (0, 0), BuildingBlock: MIFKUJ_clean_linker_0, # of connection points: 2
#     Edge 40, Type (0, 0), BuildingBlock: MIFKUJ_clean_linker_0, # of connection points: 2
#     Edge 41, Type (0, 0), BuildingBlock: MIFKUJ_clean_linker_0, # of connection points: 2
#     Edge 42, Type (0, 0), BuildingBlock: MIFKUJ_clean_linker_0, # of connection points: 2
#     Edge 43, Type (0, 0), BuildingBlock: MIFKUJ_clean_linker_0, # of connection points: 2
#     Edge 44, Type (0, 0), BuildingBlock: MIFKUJ_clean_linker_0, # of connection points: 2
#     Edge 45, Type (0, 0), BuildingBlock: MIFKUJ_clean_linker_0, # of connection points: 2
#     Edge 46, Type (0, 0), BuildingBlock: MIFKUJ_clean_linker_0, # of connection points: 2
#     Edge 47, Type (0, 0), BuildingBlock: MIFKUJ_clean_linker_0, # of connection points: 2
# Relax obj value: 0.142
# Max RMSD: 0.113
# Mean RMSD: 0.113
data_MOF--net-smw--node1-IZENUY_clean_sbu_0--edge1-MIFKUJ_clean_linker_0
_symmetry_space_group_name_H-M    P1
_symmetry_Int_Tables_number       1
_symmetry_cell_setting            triclinic
loop_
_symmetry_equiv_pos_as_xyz
'x, y, z'
_cell_length_a     73.324917
_cell_length_b     73.324439
_cell_length_c     25.664002
_cell_angle_alpha  90.021068
_cell_angle_beta   90.008699
_cell_angle_gamma 119.99402
loop_
_atom_site_label
_atom_site_type_symbol
_atom_site_fract_x
_atom_site_fract_y
_atom_site_fract_z
_atom_type_partial_charge
Fe0 Fe 0.4774 0.14841 0.99521 0.0
Fe1 Fe 0.46105 0.1011 0.99756 0.0
O2 O 0.45598 0.12227 0.99806 0.0
Fe3 Fe 0.42967 0.1172 0.00152 0.0
O4 O 0.43454 0.13982 0.9606 0.0
O5 O 0.46754 0.15347 0.93545 0.0
O6 O 0.49399 0.14191 0.9545 0.0
C7 C 0.48928 0.12641 0.92459 0.0
C8 C 0.44944 0.15148 0.06631 0.0
O9 O 0.4734 0.10865 0.93393 0.0
C10 C 0.43038 0.08748 0.07176 0.0
O11 O 0.48871 0.14506 0.0553 0.0
O12 O 0.48642 0.11539 0.03071 0.0
O13 O 0.43501 0.13257 0.06104 0.0
O14 O 0.46474 0.15969 0.03482 0.0
C15 C 0.42429 0.08544 0.93593 0.0
O16 O 0.44908 0.0924 0.061 0.0
O17 O 0.42037 0.09372 0.04336 0.0
C18 C 0.49354 0.13091 0.0614 0.0
O19 O 0.43665 0.08265 0.9647 0.0
O20 O 0.4222 0.10138 0.94207 0.0
C21 C 0.44943 0.15122 0.92961 0.0
Fe22 Fe 0.33041 0.47477 0.00164 0.0
Fe23 Fe 0.35964 0.45634 0.00469 0.0
O24 O 0.33392 0.4526 0.0028 0.0
Fe25 Fe 0.31189 0.42669 0.00166 0.0
O26 O 0.29535 0.43357 0.96165 0.0
O27 O 0.31653 0.46665 0.93995 0.0
O28 O 0.35437 0.49138 0.96391 0.0
C29 C 0.36517 0.48656 0.93436 0.0
C30 C 0.29738 0.44588 0.06766 0.0
O31 O 0.36636 0.47024 0.94291 0.0
C32 C 0.34005 0.42378 0.07286 0.0
O33 O 0.34423 0.48459 0.0635 0.0
O34 O 0.3711 0.48095 0.04129 0.0
O35 O 0.30146 0.43117 0.06172 0.0
O36 O 0.30572 0.46199 0.03859 0.0
C37 C 0.33873 0.42229 0.93557 0.0
O38 O 0.3544 0.44265 0.06642 0.0
O39 O 0.32452 0.4152 0.0418 0.0
C40 C 0.36292 0.48864 0.07095 0.0
O41 O 0.35312 0.43248 0.96839 0.0
O42 O 0.32078 0.4205 0.94111 0.0
C43 C 0.30011 0.44916 0.9321 0.0
Fe44 Fe 0.88598 0.31118 0.99948 0.0
Fe45 Fe 0.85444 0.32734 0.00012 0.0
O46 O 0.88066 0.33227 0.99829 0.0
Fe47 Fe 0.90164 0.35851 0.99524 0.0
O48 O 0.91023 0.35368 0.93344 0.0
O49 O 0.90946 0.32446 0.95711 0.0
O50 O 0.87058 0.29965 0.94063 0.0
C51 C 0.8515 0.29459 0.93531 0.0
C52 C 0.91741 0.33941 0.0631 0.0
O53 O 0.84323 0.30229 0.96481 0.0
C54 C 0.87642 0.36317 0.06523 0.0
O55 O 0.86344 0.29434 0.04187 0.0
O56 O 0.84984 0.31422 0.06238 0.0
O57 O 0.92029 0.35365 0.03099 0.0
O58 O 0.90173 0.32112 0.05863 0.0
C59 C 0.87137 0.35901 0.92856 0.0
O60 O 0.86084 0.35148 0.03639 0.0
O61 O 0.89419 0.3649 0.05704 0.0
C62 C 0.85218 0.29861 0.07142 0.0
O63 O 0.85736 0.3402 0.93746 0.0
O64 O 0.88704 0.36838 0.95859 0.0
C65 C 0.91543 0.33989 0.92598 0.0
Fe66 Fe 0.54065 0.9007 0.00014 0.0
Fe67 Fe 0.57147 0.88394 0.00148 0.0
O68 O 0.54524 0.8792 0.00054 0.0
Fe69 Fe 0.52345 0.85318 0.00039 0.0
O70 O 0.51352 0.85736 0.9394 0.0
O71 O 0.51587 0.88709 0.96358 0.0
O72 O 0.55401 0.90978 0.93853 0.0
C73 C 0.57294 0.91474 0.93084 0.0
C74 C 0.51096 0.87502 0.06982 0.0
O75 O 0.58207 0.9079 0.96059 0.0
C76 C 0.5495 0.84887 0.06971 0.0
O77 O 0.56451 0.9187 0.03612 0.0
O78 O 0.57749 0.89904 0.06182 0.0
O79 O 0.50631 0.85968 0.03935 0.0
O80 O 0.52712 0.89272 0.06215 0.0
C81 C 0.55305 0.85055 0.93365 0.0
O82 O 0.56535 0.86082 0.04191 0.0
O83 O 0.53171 0.84698 0.06102 0.0
C84 C 0.57586 0.91527 0.06698 0.0
O85 O 0.56759 0.8692 0.94175 0.0
O86 O 0.53666 0.8421 0.96175 0.0
C87 C 0.50873 0.87148 0.93303 0.0
Fe88 Fe 0.64354 0.54485 0.00273 0.0
Fe89 Fe 0.69118 0.57541 0.00132 0.0
O90 O 0.66951 0.54928 0.00168 0.0
Fe91 Fe 0.67364 0.52748 0.0008 0.0
O92 O 0.64976 0.51029 0.96308 0.0
O93 O 0.63736 0.53096 0.94112 0.0
O94 O 0.64955 0.56853 0.96599 0.0
C95 C 0.66429 0.5794 0.93452 0.0
C96 C 0.64129 0.51343 0.0703 0.0
O97 O 0.68234 0.58161 0.94099 0.0
C98 C 0.70627 0.55673 0.06711 0.0
O99 O 0.64814 0.55843 0.06422 0.0
O100 O 0.67798 0.58634 0.04164 0.0
O101 O 0.66001 0.51768 0.0626 0.0
O102 O 0.63261 0.52035 0.03981 0.0
C103 C 0.70357 0.55344 0.93129 0.0
O104 O 0.70166 0.57106 0.0614 0.0
O105 O 0.69836 0.54072 0.03767 0.0
C106 C 0.66208 0.57737 0.07153 0.0
O107 O 0.70805 0.56902 0.96089 0.0
O108 O 0.68743 0.53578 0.93937 0.0
C109 C 0.63877 0.51474 0.93318 0.0
Fe110 Fe 0.10188 0.64209 0.99607 0.0
Fe111 Fe 0.11647 0.68918 0.00146 0.0
O112 O 0.12246 0.66855 0.99885 0.0
Fe113 Fe 0.14899 0.67426 0.99884 0.0
O114 O 0.14589 0.66154 0.93593 0.0
O115 O 0.11647 0.63291 0.95677 0.0
O116 O 0.09214 0.64668 0.9357 0.0
C117 C 0.08618 0.65998 0.93002 0.0
C118 C 0.12843 0.63815 0.06356 0.0
O119 O 0.09242 0.67544 0.96113 0.0
C120 C 0.1514 0.70284 0.07062 0.0
O121 O 0.08339 0.64632 0.03456 0.0
O122 O 0.10153 0.67904 0.06163 0.0
O123 O 0.14368 0.65031 0.03445 0.0
O124 O 0.11035 0.63578 0.0564 0.0
C125 C 0.15006 0.70628 0.93492 0.0
O126 O 0.13944 0.70658 0.04225 0.0
O127 O 0.15386 0.68731 0.06128 0.0
C128 C 0.08619 0.66056 0.06668 0.0
O129 O 0.13092 0.7007 0.94149 0.0
O130 O 0.1592 0.69933 0.96381 0.0
C131 C 0.13193 0.64276 0.92641 0.0
Fe132 Fe 0.88613 0.57133 0.50098 0.0
Fe133 Fe 0.85461 0.52365 0.50027 0.0
O134 O 0.88088 0.54491 0.50115 0.0
Fe135 Fe 0.90185 0.53959 0.50219 0.0
O136 O 0.91949 0.56278 0.54057 0.0
O137 O 0.90058 0.57721 0.56229 0.0
O138 O 0.86264 0.56551 0.5396 0.0
C139 C 0.85091 0.55007 0.56884 0.0
C140 C 0.91748 0.57242 0.43364 0.0
O141 O 0.84889 0.53212 0.56146 0.0
C142 C 0.87299 0.5091 0.43208 0.0
O143 O 0.87198 0.56745 0.43976 0.0
O144 O 0.84417 0.53766 0.46288 0.0
O145 O 0.91214 0.55343 0.44149 0.0
O146 O 0.91057 0.58171 0.46243 0.0
C147 C 0.87496 0.50914 0.56874 0.0
O148 O 0.85878 0.51384 0.43868 0.0
O149 O 0.88815 0.51543 0.46382 0.0
C150 C 0.85287 0.55365 0.43358 0.0
O151 O 0.86006 0.50564 0.53798 0.0
O152 O 0.89286 0.52526 0.56308 0.0
C153 C 0.91586 0.57423 0.57067 0.0
Fe154 Fe 0.31318 0.88723 0.50077 0.0
Fe155 Fe 0.32932 0.85567 0.50296 0.0
O156 O 0.33423 0.88193 0.506 0.0
Fe157 Fe 0.36023 0.90298 0.51418 0.0
O158 O 0.35339 0.91093 0.57449 0.0
O159 O 0.32526 0.91054 0.54364 0.0
O160 O 0.30054 0.87152 0.55834 0.0
C161 C 0.29545 0.85243 0.5636 0.0
C162 C 0.343 0.91902 0.44109 0.0
O163 O 0.30345 0.84418 0.5349 0.0
C164 C 0.36684 0.87874 0.44446 0.0
O165 O 0.29722 0.86492 0.45695 0.0
O166 O 0.31769 0.85185 0.43879 0.0
O167 O 0.35631 0.92181 0.47607 0.0
O168 O 0.32457 0.90336 0.44282 0.0
C169 C 0.35894 0.87142 0.58017 0.0
O170 O 0.35433 0.86253 0.47036 0.0
O171 O 0.36864 0.8964 0.45426 0.0
C172 C 0.30208 0.85397 0.42803 0.0
O173 O 0.34062 0.85747 0.56704 0.0
O174 O 0.36906 0.8881 0.55379 0.0
C175 C 0.33957 0.9163 0.57789 0.0
Fe176 Fe 0.47793 0.33166 0.50062 0.0
Fe177 Fe 0.46089 0.36212 0.50044 0.0
O178 O 0.45625 0.33604 0.50061 0.0
Fe179 Fe 0.43001 0.31451 0.50079 0.0
O180 O 0.43427 0.30434 0.56149 0.0
O181 O 0.46468 0.30749 0.5393 0.0
O182 O 0.4881 0.34599 0.56155 0.0
C183 C 0.49248 0.36481 0.56823 0.0
C184 C 0.45158 0.30096 0.43265 0.0
O185 O 0.48541 0.37324 0.53747 0.0
C186 C 0.4257 0.34103 0.43347 0.0
O187 O 0.49512 0.35506 0.46162 0.0
O188 O 0.47482 0.36782 0.43889 0.0
O189 O 0.43606 0.29714 0.46166 0.0
O190 O 0.46938 0.31707 0.44002 0.0
C191 C 0.42835 0.34421 0.56938 0.0
O192 O 0.43724 0.35605 0.46361 0.0
O193 O 0.42372 0.32305 0.4399 0.0
C194 C 0.49099 0.36624 0.43162 0.0
O195 O 0.44732 0.35806 0.56188 0.0
O196 O 0.41933 0.32812 0.54014 0.0
C197 C 0.44874 0.30005 0.56887 0.0
Fe198 Fe 0.11628 0.42996 0.50061 0.0
Fe199 Fe 0.14844 0.47745 0.50048 0.0
O200 O 0.12199 0.45653 0.4993 0.0
Fe201 Fe 0.10131 0.46226 0.49675 0.0
O202 O 0.0829 0.43932 0.53483 0.0
O203 O 0.10103 0.42451 0.5605 0.0
O204 O 0.1392 0.43547 0.54131 0.0
C205 C 0.15057 0.45082 0.57116 0.0
C206 C 0.08598 0.42898 0.42966 0.0
O207 O 0.15292 0.46885 0.56302 0.0
C208 C 0.13159 0.49221 0.42817 0.0
O209 O 0.13104 0.43348 0.44079 0.0
O210 O 0.15897 0.46298 0.46517 0.0
O211 O 0.09172 0.44815 0.43596 0.0
O212 O 0.09234 0.41973 0.46019 0.0
C213 C 0.12754 0.49258 0.56505 0.0
O214 O 0.14561 0.48746 0.43779 0.0
O215 O 0.11588 0.4862 0.45796 0.0
C216 C 0.15027 0.44707 0.4355 0.0
O217 O 0.14288 0.4958 0.53629 0.0
O218 O 0.10952 0.47684 0.55747 0.0
C219 C 0.08561 0.42752 0.56594 0.0
Fe220 Fe 0.67153 0.14468 0.49751 0.0
Fe221 Fe 0.64123 0.09713 0.49694 0.0
O222 O 0.66732 0.11866 0.49777 0.0
Fe223 Fe 0.68902 0.11426 0.49906 0.0
O224 O 0.69914 0.12916 0.5593 0.0
O225 O 0.69612 0.1562 0.53474 0.0
O226 O 0.65751 0.14045 0.55887 0.0
C227 C 0.63868 0.12598 0.56548 0.0
C228 C 0.70179 0.1487 0.42892 0.0
O229 O 0.63017 0.1106 0.53418 0.0
C230 C 0.66288 0.08319 0.43159 0.0
O231 O 0.64784 0.13822 0.45954 0.0
O232 O 0.63562 0.10546 0.43519 0.0
O233 O 0.70598 0.13738 0.45849 0.0
O234 O 0.68572 0.15045 0.43657 0.0
C235 C 0.65927 0.08314 0.56792 0.0
O236 O 0.64742 0.07949 0.46024 0.0
O237 O 0.68077 0.09908 0.43897 0.0
C238 C 0.63684 0.12311 0.42891 0.0
O239 O 0.64508 0.08758 0.55833 0.0
O240 O 0.67566 0.09031 0.53972 0.0
C241 C 0.7039 0.14814 0.56453 0.0
Fe242 Fe 0.57377 0.6885 0.50233 0.0
Fe243 Fe 0.52569 0.67071 0.50549 0.0
O244 O 0.54763 0.66676 0.50357 0.0
Fe245 Fe 0.5433 0.6408 0.50265 0.0
O246 O 0.55732 0.64501 0.56335 0.0
O247 O 0.58497 0.67516 0.54102 0.0
O248 O 0.57003 0.69888 0.56338 0.0
C249 C 0.55535 0.70274 0.57226 0.0
C250 C 0.57755 0.66194 0.43375 0.0
O251 O 0.53901 0.6949 0.54404 0.0
C252 C 0.51267 0.63651 0.43537 0.0
O253 O 0.56706 0.70548 0.46367 0.0
O254 O 0.53343 0.68528 0.4449 0.0
O255 O 0.56674 0.64709 0.46488 0.0
O256 O 0.57958 0.67991 0.44082 0.0
C257 C 0.51229 0.63766 0.57281 0.0
O258 O 0.50837 0.64718 0.46676 0.0
O259 O 0.52901 0.63513 0.44159 0.0
C260 C 0.5511 0.70134 0.436 0.0
O261 O 0.51634 0.65639 0.56666 0.0
O262 O 0.51902 0.62938 0.54065 0.0
C263 C 0.57627 0.65904 0.5703 0.0
H264 H 0.47873 0.19196 0.0901 0.0
H265 H 0.47652 0.21491 0.15509 0.0
H266 H 0.41486 0.16526 0.20035 0.0
H267 H 0.41682 0.14196 0.13453 0.0
H268 H 0.41705 0.20421 0.18908 0.0
H269 H 0.45521 0.17646 0.27775 0.0
H270 H 0.48281 0.16686 0.2875 0.0
H271 H 0.53061 0.23182 0.27217 0.0
H272 H 0.50329 0.24178 0.26149 0.0
H273 H 0.4175 0.26178 0.41517 0.0
H274 H 0.41511 0.23471 0.35542 0.0
H275 H 0.47844 0.2768 0.30257 0.0
H276 H 0.48112 0.30385 0.3627 0.0
H277 H 0.47295 0.23862 0.32299 0.0
H278 H 0.43546 0.26616 0.22765 0.0
H279 H 0.40831 0.27621 0.21479 0.0
H280 H 0.35975 0.21223 0.24098 0.0
H281 H 0.38663 0.20185 0.25468 0.0
C282 C 0.46465 0.18579 0.1138 0.0
C283 C 0.44795 0.16504 0.10706 0.0
C284 C 0.46347 0.19897 0.15113 0.0
C285 C 0.44563 0.19174 0.18293 0.0
C286 C 0.4288 0.17111 0.17624 0.0
C287 C 0.42998 0.15781 0.13879 0.0
C288 C 0.44479 0.20598 0.22276 0.0
C289 C 0.42902 0.21144 0.21905 0.0
C290 C 0.46068 0.21573 0.26111 0.0
C291 C 0.47718 0.20985 0.26846 0.0
C292 C 0.4716 0.18868 0.27614 0.0
C293 C 0.4872 0.18318 0.28187 0.0
C294 C 0.50845 0.19871 0.28036 0.0
C295 C 0.51414 0.2198 0.27331 0.0
C296 C 0.4986 0.22539 0.26749 0.0
C297 C 0.43089 0.26537 0.39056 0.0
C298 C 0.44952 0.28502 0.39384 0.0
C299 C 0.42946 0.24986 0.35631 0.0
C300 C 0.44656 0.25374 0.32429 0.0
C301 C 0.46507 0.27342 0.32702 0.0
C302 C 0.46654 0.28891 0.36133 0.0
C303 C 0.44542 0.23718 0.2888 0.0
C304 C 0.46084 0.23126 0.2934 0.0
C305 C 0.42925 0.22708 0.25121 0.0
C306 C 0.41306 0.23328 0.24275 0.0
C307 C 0.419 0.25427 0.23108 0.0
C308 C 0.40366 0.26002 0.22356 0.0
C309 C 0.38232 0.24488 0.22722 0.0
C310 C 0.37628 0.22395 0.23824 0.0
C311 C 0.39156 0.21812 0.24584 0.0
H312 H 0.37046 0.24937 0.2214 0.0
H313 H 0.5205 0.19441 0.28472 0.0
H314 H 0.1925 0.46292 0.44126 0.0
H315 H 0.21531 0.45925 0.37841 0.0
H316 H 0.1615 0.42013 0.28182 0.0
H317 H 0.13828 0.42318 0.34608 0.0
H318 H 0.18886 0.40602 0.27973 0.0
H319 H 0.1929 0.47231 0.25447 0.0
H320 H 0.19731 0.50667 0.28053 0.0
H321 H 0.26033 0.5269 0.33195 0.0
H322 H 0.25618 0.49252 0.30696 0.0
H323 H 0.2741 0.46523 0.06278 0.0
H324 H 0.24692 0.462 0.12248 0.0
H325 H 0.25601 0.41839 0.21661 0.0
H326 H 0.28286 0.42094 0.15518 0.0
H327 H 0.24894 0.47306 0.21584 0.0
H328 H 0.21112 0.38623 0.2846 0.0
H329 H 0.20387 0.35181 0.25025 0.0
H330 H 0.2036 0.3727 0.09411 0.0
H331 H 0.21057 0.40713 0.12755 0.0
C332 C 0.18545 0.45345 0.40676 0.0
C333 C 0.16361 0.4436 0.39819 0.0
C334 C 0.19853 0.45137 0.37083 0.0
C335 C 0.1902 0.43981 0.3248 0.0
C336 C 0.16829 0.42921 0.31698 0.0
C337 C 0.15506 0.43102 0.35355 0.0
C338 C 0.20463 0.43986 0.28406 0.0
C339 C 0.20199 0.42065 0.26563 0.0
C340 C 0.22149 0.45896 0.2647 0.0
C341 C 0.22416 0.47977 0.27921 0.0
C342 C 0.20765 0.48404 0.27162 0.0
C343 C 0.21011 0.50352 0.28618 0.0
C344 C 0.22908 0.51894 0.30797 0.0
C345 C 0.24564 0.51493 0.31511 0.0
C346 C 0.24325 0.49546 0.30071 0.0
C347 C 0.27031 0.45487 0.09609 0.0
C348 C 0.28072 0.4434 0.1044 0.0
C349 C 0.25472 0.45305 0.13028 0.0
C350 C 0.24928 0.43991 0.17411 0.0
C351 C 0.25962 0.42836 0.18261 0.0
C352 C 0.27505 0.42991 0.14769 0.0
C353 C 0.23341 0.43918 0.21158 0.0
C354 C 0.23582 0.45835 0.22966 0.0
C355 C 0.21599 0.42006 0.22907 0.0
C356 C 0.21159 0.39933 0.20859 0.0
C357 C 0.20944 0.38345 0.24295 0.0
C358 C 0.20539 0.36394 0.22364 0.0
C359 C 0.20335 0.36009 0.17002 0.0
C360 C 0.20527 0.37572 0.13561 0.0
C361 C 0.2093 0.39525 0.15473 0.0
H362 H 0.20023 0.34499 0.15515 0.0
H363 H 0.23094 0.53401 0.31923 0.0
H364 H 0.85158 0.26237 0.10111 0.0
H365 H 0.82815 0.23626 0.16454 0.0
H366 H 0.79999 0.27443 0.19809 0.0
H367 H 0.82358 0.30077 0.1358 0.0
H368 H 0.80471 0.25795 0.28523 0.0
H369 H 0.77679 0.23235 0.11436 0.0
H370 H 0.77788 0.22191 0.02357 0.0
H371 H 0.79057 0.17389 0.07725 0.0
H372 H 0.78988 0.18427 0.16841 0.0
H373 H 0.70445 0.1831 0.38041 0.0
H374 H 0.73197 0.20745 0.3213 0.0
H375 H 0.76202 0.16982 0.32873 0.0
H376 H 0.73464 0.1454 0.3888 0.0
H377 H 0.75816 0.18467 0.22392 0.0
H378 H 0.78304 0.20963 0.39719 0.0
H379 H 0.77963 0.21991 0.48656 0.0
H380 H 0.77059 0.26944 0.42622 0.0
H381 H 0.7735 0.25916 0.33638 0.0
C382 C 0.84053 0.26531 0.12232 0.0
C383 C 0.83932 0.28358 0.11289 0.0
C384 C 0.82709 0.25032 0.15843 0.0
C385 C 0.81206 0.25321 0.18541 0.0
C386 C 0.81141 0.27182 0.17762 0.0
C387 C 0.82489 0.28685 0.14178 0.0
C388 C 0.79644 0.23658 0.2203 0.0
C389 C 0.79447 0.24197 0.27167 0.0
C390 C 0.78326 0.21562 0.20291 0.0
C391 C 0.78353 0.20925 0.14817 0.0
C392 C 0.77997 0.21967 0.10679 0.0
C393 C 0.7805 0.21375 0.05526 0.0
C394 C 0.78435 0.19729 0.04464 0.0
C395 C 0.78763 0.18667 0.08554 0.0
C396 C 0.78717 0.19256 0.13714 0.0
C397 C 0.71677 0.17984 0.36918 0.0
C398 C 0.71743 0.16237 0.38958 0.0
C399 C 0.73251 0.19381 0.3355 0.0
C400 C 0.74905 0.19047 0.32111 0.0
C401 C 0.74936 0.17263 0.33959 0.0
C402 C 0.73377 0.15877 0.37397 0.0
C403 C 0.76641 0.20616 0.28835 0.0
C404 C 0.76863 0.2006 0.23749 0.0
C405 C 0.77965 0.22701 0.30597 0.0
C406 C 0.77829 0.23349 0.36 0.0
C407 C 0.78014 0.2226 0.40294 0.0
C408 C 0.77832 0.22844 0.45369 0.0
C409 C 0.77485 0.24529 0.46206 0.0
C410 C 0.77325 0.25637 0.41968 0.0
C411 C 0.775 0.25055 0.36882 0.0
H412 H 0.77344 0.24978 0.50139 0.0
H413 H 0.78475 0.19273 0.00472 0.0
H414 H 0.5192 0.70024 0.37821 0.0
H415 H 0.52143 0.72607 0.31506 0.0
H416 H 0.58858 0.76286 0.33894 0.0
H417 H 0.58643 0.73725 0.40335 0.0
H418 H 0.57217 0.7878 0.33726 0.0
H419 H 0.56778 0.73336 0.22775 0.0
H420 H 0.55361 0.69708 0.19541 0.0
H421 H 0.49482 0.69367 0.15905 0.0
H422 H 0.50853 0.72983 0.19191 0.0
H423 H 0.58538 0.85148 0.11016 0.0
H424 H 0.58782 0.82727 0.17193 0.0
H425 H 0.52007 0.79057 0.1791 0.0
H426 H 0.51744 0.81467 0.11806 0.0
H427 H 0.53992 0.76647 0.16175 0.0
H428 H 0.54486 0.82096 0.27689 0.0
H429 H 0.56012 0.85753 0.30804 0.0
H430 H 0.61984 0.86111 0.33095 0.0
H431 H 0.605 0.82463 0.29916 0.0
C432 C 0.53449 0.71375 0.36994 0.0
C433 C 0.55265 0.71662 0.39587 0.0
C434 C 0.53575 0.72849 0.33358 0.0
C435 C 0.55522 0.7463 0.32168 0.0
C436 C 0.57339 0.74923 0.34742 0.0
C437 C 0.57214 0.73453 0.38411 0.0
C438 C 0.5564 0.76201 0.28321 0.0
C439 C 0.56546 0.78318 0.29855 0.0
C440 C 0.54743 0.75599 0.23285 0.0
C441 C 0.53914 0.73426 0.21271 0.0
C442 C 0.55178 0.72482 0.21321 0.0
C443 C 0.54383 0.70428 0.19473 0.0
C444 C 0.52331 0.69306 0.1753 0.0
C445 C 0.51071 0.70238 0.17417 0.0
C446 C 0.51856 0.7229 0.19266 0.0
C447 C 0.571 0.83833 0.12513 0.0
C448 C 0.55122 0.83503 0.10914 0.0
C449 C 0.57243 0.82454 0.16043 0.0
C450 C 0.55411 0.80714 0.17998 0.0
C451 C 0.53438 0.80387 0.16432 0.0
C452 C 0.53293 0.81775 0.12962 0.0
C453 C 0.55537 0.79207 0.21621 0.0
C454 C 0.5468 0.77105 0.20032 0.0
C455 C 0.56498 0.79827 0.26575 0.0
C456 C 0.57389 0.82016 0.28506 0.0
C457 C 0.5613 0.82961 0.2881 0.0
C458 C 0.56986 0.85031 0.30597 0.0
C459 C 0.59095 0.86166 0.3213 0.0
C460 C 0.60351 0.85231 0.31896 0.0
C461 C 0.59503 0.83162 0.30105 0.0
H462 H 0.59755 0.87768 0.33513 0.0
H463 H 0.51718 0.67716 0.16102 0.0
H464 H 0.72908 0.53678 0.06604 0.0
H465 H 0.75548 0.53988 0.12834 0.0
H466 H 0.74736 0.58551 0.21617 0.0
H467 H 0.72116 0.58296 0.15243 0.0
H468 H 0.78822 0.5962 0.21448 0.0
H469 H 0.72332 0.53437 0.25504 0.0
H470 H 0.69102 0.50063 0.23705 0.0
H471 H 0.72829 0.47326 0.19001 0.0
H472 H 0.76082 0.50694 0.20693 0.0
H473 H 0.81107 0.53907 0.44325 0.0
H474 H 0.78781 0.5434 0.38353 0.0
H475 H 0.84022 0.57996 0.28059 0.0
H476 H 0.86395 0.57638 0.34211 0.0
H477 H 0.77634 0.52935 0.2932 0.0
H478 H 0.82984 0.61217 0.2046 0.0
H479 H 0.85983 0.64654 0.23057 0.0
H480 H 0.84132 0.63301 0.391 0.0
H481 H 0.81108 0.59869 0.36594 0.0
C482 C 0.73288 0.54753 0.09851 0.0
C483 C 0.72278 0.55941 0.10469 0.0
C484 C 0.74802 0.54929 0.13413 0.0
C485 C 0.75313 0.56261 0.17752 0.0
C486 C 0.74362 0.57507 0.18305 0.0
C487 C 0.72859 0.57353 0.14679 0.0
C488 C 0.76763 0.5626 0.21801 0.0
C489 C 0.78564 0.58162 0.23185 0.0
C490 C 0.76405 0.54363 0.24153 0.0
C491 C 0.74451 0.52324 0.23187 0.0
C492 C 0.72463 0.52119 0.24056 0.0
C493 C 0.70628 0.50208 0.23058 0.0
C494 C 0.70761 0.48483 0.21231 0.0
C495 C 0.72729 0.48664 0.20412 0.0
C496 C 0.74569 0.50574 0.21394 0.0
C497 C 0.81773 0.54814 0.40802 0.0
C498 C 0.83934 0.55725 0.39714 0.0
C499 C 0.80437 0.5506 0.37382 0.0
C500 C 0.81215 0.56199 0.32738 0.0
C501 C 0.83383 0.57137 0.31652 0.0
C502 C 0.84738 0.56923 0.35149 0.0
C503 C 0.79717 0.56296 0.28975 0.0
C504 C 0.77902 0.54402 0.27614 0.0
C505 C 0.80033 0.58208 0.26796 0.0
C506 C 0.81834 0.60277 0.2834 0.0
C507 C 0.83214 0.61657 0.24539 0.0
C508 C 0.84918 0.63603 0.25996 0.0
C509 C 0.85252 0.64193 0.31242 0.0
C510 C 0.83877 0.6284 0.35041 0.0
C511 C 0.82169 0.60892 0.33605 0.0
H512 H 0.86573 0.65699 0.32361 0.0
H513 H 0.69338 0.47004 0.20459 0.0
H514 H 0.26856 0.85613 0.38792 0.0
H515 H 0.24276 0.83254 0.32412 0.0
H516 H 0.27625 0.7983 0.31055 0.0
H517 H 0.30243 0.82218 0.3729 0.0
H518 H 0.26302 0.80162 0.21872 0.0
H519 H 0.23144 0.78113 0.38851 0.0
H520 H 0.21973 0.78674 0.47412 0.0
H521 H 0.17834 0.8041 0.39877 0.0
H522 H 0.19004 0.7989 0.31266 0.0
H523 H 0.18351 0.70334 0.12601 0.0
H524 H 0.2083 0.73078 0.1845 0.0
H525 H 0.17563 0.76545 0.16345 0.0
H526 H 0.15065 0.73803 0.10432 0.0
H527 H 0.18756 0.76372 0.26908 0.0
H528 H 0.21825 0.7809 0.09775 0.0
H529 H 0.22979 0.77324 0.01436 0.0
H530 H 0.27292 0.75988 0.09588 0.0
H531 H 0.26137 0.76709 0.17982 0.0
C532 C 0.27055 0.8437 0.37099 0.0
C533 C 0.28748 0.84094 0.38595 0.0
C534 C 0.25571 0.83014 0.33469 0.0
C535 C 0.25728 0.81334 0.31328 0.0
C536 C 0.27462 0.81108 0.32662 0.0
C537 C 0.28959 0.82475 0.36244 0.0
C538 C 0.24061 0.7977 0.27825 0.0
C539 C 0.24656 0.79324 0.22999 0.0
C540 C 0.21903 0.78696 0.29242 0.0
C541 C 0.21179 0.78985 0.34415 0.0
C542 C 0.21994 0.78628 0.3902 0.0
C543 C 0.2133 0.78937 0.4388 0.0
C544 C 0.19835 0.79583 0.44184 0.0
C545 C 0.18995 0.79913 0.39632 0.0
C546 C 0.19657 0.79611 0.34761 0.0
C547 C 0.1814 0.71667 0.13403 0.0
C548 C 0.16514 0.71853 0.11005 0.0
C549 C 0.19566 0.73239 0.1674 0.0
C550 C 0.19395 0.75025 0.17773 0.0
C551 C 0.17725 0.7518 0.15575 0.0
C552 C 0.16303 0.73614 0.12192 0.0
C553 C 0.21008 0.76756 0.21013 0.0
C554 C 0.20402 0.77228 0.25777 0.0
C555 C 0.23159 0.77835 0.19574 0.0
C556 C 0.23881 0.77437 0.14515 0.0
C557 C 0.23009 0.77619 0.09793 0.0
C558 C 0.23664 0.77194 0.05055 0.0
C559 C 0.25204 0.76604 0.04987 0.0
C560 C 0.26098 0.76444 0.0965 0.0
C561 C 0.25445 0.76862 0.14398 0.0
H562 H 0.25709 0.76273 0.01324 0.0
H563 H 0.19325 0.79824 0.47945 0.0
H564 H 0.52463 0.70896 0.61258 0.0
H565 H 0.52839 0.73625 0.67277 0.0
H566 H 0.59515 0.75949 0.68351 0.0
H567 H 0.59145 0.73173 0.62336 0.0
H568 H 0.57869 0.76025 0.77798 0.0
H569 H 0.57766 0.78505 0.60807 0.0
H570 H 0.56508 0.78346 0.51819 0.0
H571 H 0.50629 0.77458 0.57637 0.0
H572 H 0.51838 0.77577 0.66665 0.0
H573 H 0.58994 0.85569 0.89309 0.0
H574 H 0.59411 0.83266 0.83057 0.0
H575 H 0.52663 0.79336 0.82102 0.0
H576 H 0.52233 0.81596 0.88407 0.0
H577 H 0.54901 0.80487 0.72177 0.0
H578 H 0.55017 0.77664 0.89225 0.0
H579 H 0.56395 0.77912 0.98119 0.0
H580 H 0.62491 0.79661 0.91904 0.0
H581 H 0.61155 0.79456 0.82968 0.0
C582 C 0.54015 0.71979 0.62778 0.0
C583 C 0.5578 0.71832 0.61255 0.0
C584 C 0.54227 0.73545 0.66215 0.0
C585 C 0.56212 0.75024 0.68169 0.0
C586 C 0.5797 0.74834 0.66852 0.0
C587 C 0.57756 0.73248 0.63418 0.0
C588 C 0.56423 0.76782 0.71488 0.0
C589 C 0.57259 0.77028 0.76529 0.0
C590 C 0.55621 0.78091 0.69846 0.0
C591 C 0.54889 0.78036 0.64419 0.0
C592 C 0.56199 0.78262 0.60172 0.0
C593 C 0.55496 0.7818 0.55069 0.0
C594 C 0.53489 0.77889 0.54157 0.0
C595 C 0.52183 0.77683 0.58349 0.0
C596 C 0.52878 0.7776 0.63462 0.0
C597 C 0.576 0.84222 0.87739 0.0
C598 C 0.5558 0.83758 0.89361 0.0
C599 C 0.57842 0.82906 0.84188 0.0
C600 C 0.56067 0.8113 0.82142 0.0
C601 C 0.54051 0.807 0.83642 0.0
C602 C 0.53809 0.81988 0.87256 0.0
C603 C 0.56291 0.79684 0.78506 0.0
C604 C 0.55539 0.79503 0.73403 0.0
C605 C 0.57195 0.78459 0.80069 0.0
C606 C 0.57994 0.78572 0.85434 0.0
C607 C 0.56657 0.78122 0.89757 0.0
C608 C 0.57429 0.78251 0.94805 0.0
C609 C 0.59532 0.78809 0.95578 0.0
C610 C 0.60864 0.79234 0.91301 0.0
C611 C 0.60101 0.79111 0.86244 0.0
H612 H 0.60126 0.78907 0.99489 0.0
H613 H 0.52946 0.77826 0.50203 0.0
H614 H 0.7428 0.58696 0.91083 0.0
H615 H 0.76848 0.5886 0.84733 0.0
H616 H 0.72464 0.5252 0.79793 0.0
H617 H 0.69882 0.52348 0.86056 0.0
H618 H 0.78698 0.56427 0.84106 0.0
H619 H 0.7315 0.52037 0.66984 0.0
H620 H 0.69745 0.51391 0.63467 0.0
H621 H 0.70865 0.57298 0.69703 0.0
H622 H 0.74288 0.57992 0.732 0.0
H623 H 0.83091 0.52487 0.65263 0.0
H624 H 0.80672 0.52782 0.71341 0.0
H625 H 0.81495 0.58276 0.6315 0.0
H626 H 0.83938 0.58017 0.5711 0.0
H627 H 0.77161 0.55088 0.65209 0.0
H628 H 0.83845 0.59159 0.73925 0.0
H629 H 0.87201 0.59739 0.77601 0.0
H630 H 0.83834 0.54584 0.88182 0.0
H631 H 0.80456 0.53953 0.84513 0.0
C632 C 0.73854 0.57343 0.88612 0.0
C633 C 0.71874 0.55509 0.89084 0.0
C634 C 0.75328 0.57436 0.85006 0.0
C635 C 0.74843 0.55707 0.81777 0.0
C636 C 0.72862 0.53883 0.82202 0.0
C637 C 0.7139 0.53786 0.85802 0.0
C638 C 0.76422 0.55787 0.78038 0.0
C639 C 0.78364 0.56143 0.79972 0.0
C640 C 0.75987 0.55419 0.72644 0.0
C641 C 0.7397 0.55059 0.70379 0.0
C642 C 0.72677 0.53206 0.67568 0.0
C643 C 0.70742 0.52828 0.6559 0.0
C644 C 0.70087 0.54299 0.66373 0.0
C645 C 0.71372 0.56157 0.69111 0.0
C646 C 0.73309 0.56542 0.71095 0.0
C647 C 0.82766 0.53765 0.64775 0.0
C648 C 0.8371 0.55232 0.60718 0.0
C649 C 0.81386 0.5393 0.68246 0.0
C650 C 0.80908 0.55549 0.67677 0.0
C651 C 0.81844 0.57015 0.63636 0.0
C652 C 0.83249 0.56871 0.60216 0.0
C653 C 0.79422 0.55709 0.71295 0.0
C654 C 0.77496 0.55386 0.69339 0.0
C655 C 0.79871 0.56109 0.76666 0.0
C656 C 0.81899 0.56498 0.78912 0.0
C657 C 0.83821 0.58139 0.77007 0.0
C658 C 0.85727 0.58479 0.79095 0.0
C659 C 0.85731 0.57196 0.83115 0.0
C660 C 0.83829 0.55575 0.85065 0.0
C661 C 0.81918 0.55227 0.82986 0.0
H662 H 0.87209 0.57462 0.84725 0.0
H663 H 0.68585 0.54001 0.64854 0.0
H664 H 0.26865 0.81008 0.55763 0.0
H665 H 0.2421 0.78743 0.62145 0.0
H666 H 0.25864 0.84134 0.71907 0.0
H667 H 0.28487 0.86432 0.65454 0.0
H668 H 0.25753 0.79607 0.75514 0.0
H669 H 0.2198 0.83139 0.69023 0.0
H670 H 0.20549 0.84281 0.61836 0.0
H671 H 0.16889 0.77886 0.56553 0.0
H672 H 0.18331 0.76714 0.63661 0.0
H673 H 0.18553 0.74302 0.95573 0.0
H674 H 0.20843 0.77019 0.89377 0.0
H675 H 0.16714 0.73367 0.76781 0.0
H676 H 0.14334 0.7073 0.83084 0.0
H677 H 0.18112 0.77159 0.74504 0.0
H678 H 0.21562 0.73451 0.80205 0.0
H679 H 0.2301 0.71966 0.86502 0.0
H680 H 0.27304 0.78171 0.92218 0.0
H681 H 0.2586 0.79691 0.86007 0.0
C682 C 0.26653 0.81716 0.5925 0.0
C683 C 0.27884 0.83897 0.60119 0.0
C684 C 0.25134 0.80421 0.62874 0.0
C685 C 0.24841 0.81278 0.67464 0.0
C686 C 0.26061 0.83452 0.68355 0.0
C687 C 0.27553 0.84759 0.64673 0.0
C688 C 0.23336 0.79871 0.71436 0.0
C689 C 0.24086 0.79098 0.75375 0.0
C690 C 0.21158 0.79141 0.71071 0.0
C691 C 0.20282 0.79844 0.66831 0.0
C692 C 0.2089 0.81981 0.66293 0.0
C693 C 0.20072 0.82633 0.62243 0.0
C694 C 0.18633 0.81158 0.58732 0.0
C695 C 0.18005 0.79027 0.59273 0.0
C696 C 0.18822 0.78369 0.6331 0.0
C697 C 0.18128 0.74101 0.91482 0.0
C698 C 0.16284 0.72313 0.89771 0.0
C699 C 0.19445 0.75642 0.87932 0.0
C700 C 0.18996 0.75376 0.82565 0.0
C701 C 0.17108 0.73613 0.80885 0.0
C702 C 0.15751 0.72103 0.84472 0.0
C703 C 0.20522 0.76899 0.78715 0.0
C704 C 0.19778 0.77679 0.74736 0.0
C705 C 0.22708 0.7759 0.78953 0.0
C706 C 0.23589 0.76683 0.82674 0.0
C707 C 0.22806 0.74497 0.82828 0.0
C708 C 0.23627 0.73649 0.8638 0.0
C709 C 0.25245 0.74973 0.89766 0.0
C710 C 0.26049 0.77148 0.89598 0.0
C711 C 0.25231 0.78004 0.86061 0.0
H712 H 0.25878 0.74313 0.92513 0.0
H713 H 0.18002 0.81665 0.55597 0.0
H714 H 0.47742 0.28839 0.59545 0.0
H715 H 0.47319 0.26114 0.65623 0.0
H716 H 0.41063 0.24852 0.69395 0.0
H717 H 0.41475 0.27613 0.63286 0.0
H718 H 0.43335 0.24887 0.78132 0.0
H719 H 0.41557 0.21572 0.61482 0.0
H720 H 0.42024 0.21223 0.52091 0.0
H721 H 0.47746 0.21164 0.55219 0.0
H722 H 0.47335 0.21549 0.64626 0.0
H723 H 0.41467 0.15545 0.91472 0.0
H724 H 0.41059 0.17849 0.85269 0.0
H725 H 0.47286 0.19916 0.79272 0.0
H726 H 0.47705 0.1761 0.85416 0.0
H727 H 0.44479 0.19178 0.71486 0.0
H728 H 0.46441 0.2288 0.87952 0.0
H729 H 0.4603 0.23297 0.97342 0.0
H730 H 0.39952 0.22627 0.94517 0.0
H731 H 0.40314 0.22174 0.85113 0.0
C732 C 0.46272 0.27992 0.61662 0.0
C733 C 0.44632 0.28433 0.60874 0.0
C734 C 0.46033 0.26427 0.65133 0.0
C735 C 0.44146 0.25253 0.67886 0.0
C736 C 0.42527 0.25732 0.67274 0.0
C737 C 0.42765 0.27307 0.63781 0.0
C738 C 0.43883 0.2351 0.71325 0.0
C739 C 0.4354 0.23612 0.76669 0.0
C740 C 0.4418 0.21865 0.69418 0.0
C741 C 0.44421 0.21603 0.63763 0.0
C742 C 0.42923 0.21498 0.60167 0.0
C743 C 0.43177 0.21293 0.54839 0.0
C744 C 0.44915 0.21175 0.53059 0.0
C745 C 0.46401 0.21256 0.56604 0.0
C746 C 0.46157 0.21466 0.61936 0.0
C747 C 0.42745 0.16477 0.88808 0.0
C748 C 0.44626 0.16403 0.88974 0.0
C749 C 0.42511 0.17799 0.85278 0.0
C750 C 0.44152 0.19073 0.81851 0.0
C751 C 0.46001 0.1895 0.81889 0.0
C752 C 0.4624 0.17635 0.85421 0.0
C753 C 0.4398 0.20581 0.78309 0.0
C754 C 0.4424 0.20432 0.7294 0.0
C755 C 0.43605 0.2218 0.80196 0.0
C756 C 0.43393 0.22468 0.8584 0.0
C757 C 0.45009 0.22804 0.89339 0.0
C758 C 0.44787 0.2305 0.94663 0.0
C759 C 0.42963 0.22982 0.96527 0.0
C760 C 0.41362 0.22675 0.93069 0.0
C761 C 0.41575 0.22424 0.87742 0.0
H762 H 0.42794 0.23172 0.0065 0.0
H763 H 0.4511 0.21017 0.48932 0.0
H764 H 0.1644 0.47153 0.66382 0.0
H765 H 0.18888 0.46953 0.72527 0.0
H766 H 0.19313 0.4244 0.62531 0.0
H767 H 0.16763 0.42536 0.56582 0.0
H768 H 0.19439 0.41349 0.71625 0.0
H769 H 0.23194 0.47971 0.62992 0.0
H770 H 0.23884 0.51437 0.59847 0.0
H771 H 0.24067 0.5348 0.75618 0.0
H772 H 0.23351 0.50015 0.78856 0.0
H773 H 0.30831 0.47124 0.84125 0.0
H774 H 0.28282 0.46975 0.77733 0.0
H775 H 0.23195 0.42385 0.87241 0.0
H776 H 0.25742 0.42439 0.93449 0.0
H777 H 0.25527 0.48014 0.77913 0.0
H778 H 0.18881 0.39279 0.80427 0.0
H779 H 0.18535 0.3582 0.82301 0.0
H780 H 0.24779 0.38008 0.76471 0.0
H781 H 0.25153 0.41469 0.74498 0.0
C782 C 0.17042 0.46102 0.65542 0.0
C783 C 0.16417 0.44863 0.61011 0.0
C784 C 0.18455 0.46001 0.69028 0.0
C785 C 0.19335 0.44721 0.67946 0.0
C786 C 0.18665 0.43442 0.63474 0.0
C787 C 0.17207 0.43498 0.60067 0.0
C788 C 0.20978 0.44737 0.71404 0.0
C789 C 0.20771 0.42809 0.72991 0.0
C790 C 0.22756 0.46636 0.73089 0.0
C791 C 0.232 0.48727 0.71163 0.0
C792 C 0.23369 0.49155 0.65788 0.0
C793 C 0.23766 0.5112 0.63989 0.0
C794 C 0.24014 0.52676 0.6753 0.0
C795 C 0.23872 0.52272 0.7288 0.0
C796 C 0.23473 0.50309 0.74699 0.0
C797 C 0.29168 0.46064 0.84802 0.0
C798 C 0.28484 0.44778 0.8925 0.0
C799 C 0.2771 0.45986 0.81163 0.0
C800 C 0.25537 0.44648 0.81947 0.0
C801 C 0.24857 0.43384 0.86442 0.0
C802 C 0.26316 0.43423 0.90009 0.0
C803 C 0.23983 0.44625 0.78159 0.0
C804 C 0.24202 0.46553 0.76529 0.0
C805 C 0.2227 0.42726 0.76238 0.0
C806 C 0.22051 0.4064 0.77364 0.0
C807 C 0.20177 0.39019 0.79525 0.0
C808 C 0.19976 0.37058 0.80609 0.0
C809 C 0.21636 0.36696 0.79521 0.0
C810 C 0.23498 0.38292 0.7733 0.0
C811 C 0.23705 0.40255 0.76234 0.0
H812 H 0.21479 0.35178 0.80367 0.0
H813 H 0.2432 0.54195 0.6613 0.0
H814 H 0.86348 0.2789 0.85286 0.0
H815 H 0.84048 0.25327 0.7873 0.0
H816 H 0.78598 0.24741 0.86683 0.0
H817 H 0.80866 0.27313 0.93127 0.0
H818 H 0.80906 0.21276 0.78823 0.0
H819 H 0.75033 0.24427 0.78099 0.0
H820 H 0.75087 0.2779 0.79374 0.0
H821 H 0.81662 0.31211 0.75502 0.0
H822 H 0.8164 0.27872 0.74115 0.0
H823 H 0.71457 0.13822 0.65867 0.0
H824 H 0.74165 0.16246 0.71974 0.0
H825 H 0.75918 0.21358 0.61117 0.0
H826 H 0.73158 0.18976 0.55186 0.0
H827 H 0.75755 0.22714 0.69896 0.0
H828 H 0.79009 0.18903 0.63621 0.0
H829 H 0.79297 0.15772 0.6155 0.0
H830 H 0.78556 0.14069 0.77738 0.0
H831 H 0.78236 0.17177 0.79898 0.0
C832 C 0.84659 0.27207 0.8564 0.0
C833 C 0.83794 0.27829 0.8969 0.0
C834 C 0.83347 0.25738 0.81905 0.0
C835 C 0.81152 0.24867 0.82169 0.0
C836 C 0.80288 0.25423 0.86334 0.0
C837 C 0.81591 0.26897 0.90022 0.0
C838 C 0.79751 0.23444 0.7801 0.0
C839 C 0.79782 0.21588 0.76854 0.0
C840 C 0.78321 0.23878 0.75341 0.0
C841 C 0.78337 0.25897 0.76051 0.0
C842 C 0.76487 0.25897 0.77489 0.0
C843 C 0.76513 0.27799 0.78235 0.0
C844 C 0.78378 0.29712 0.77534 0.0
C845 C 0.8022 0.29728 0.76059 0.0
C846 C 0.80201 0.27831 0.75295 0.0
C847 C 0.72429 0.15463 0.64799 0.0
C848 C 0.72085 0.16214 0.60081 0.0
C849 C 0.73986 0.16847 0.68269 0.0
C850 C 0.75266 0.18992 0.67008 0.0
C851 C 0.74947 0.19721 0.62225 0.0
C852 C 0.73367 0.18355 0.58828 0.0
C853 C 0.76873 0.2051 0.70728 0.0
C854 C 0.7688 0.22392 0.71825 0.0
C855 C 0.78382 0.20129 0.73193 0.0
C856 C 0.7858 0.18263 0.71914 0.0
C857 C 0.78893 0.17853 0.66734 0.0
C858 C 0.79064 0.16084 0.65545 0.0
C859 C 0.78939 0.1472 0.69508 0.0
C860 C 0.78649 0.15125 0.74671 0.0
C861 C 0.78475 0.16892 0.75881 0.0
H862 H 0.79072 0.1335 0.6858 0.0
H863 H 0.78395 0.31183 0.78125 0.0
H864 H 0.31737 0.92705 0.37783 0.0
H865 H 0.32855 0.95639 0.31621 0.0
H866 H 0.39358 0.97725 0.35203 0.0
H867 H 0.38262 0.94854 0.41381 0.0
H868 H 0.3874 0.00942 0.3538 0.0
H869 H 0.36928 0.95085 0.23743 0.0
H870 H 0.34565 0.916 0.19882 0.0
H871 H 0.30311 0.93698 0.15036 0.0
H872 H 0.32638 0.97189 0.18931 0.0
H873 H 0.44746 0.07321 0.14458 0.0
H874 H 0.42893 0.04549 0.2089 0.0
H875 H 0.36966 0.03855 0.15859 0.0
H876 H 0.38808 0.06622 0.09342 0.0
H877 H 0.36814 1.00061 0.16653 0.0
H878 H 0.39038 0.06152 0.27315 0.0
H879 H 0.41549 0.09627 0.30987 0.0
H880 H 0.45176 0.07074 0.376 0.0
H881 H 0.42711 0.03593 0.33885 0.0
C882 C 0.33403 0.93784 0.37221 0.0
C883 C 0.3491 0.93558 0.401 0.0
C884 C 0.34041 0.95459 0.337 0.0
C885 C 0.36194 0.96907 0.32955 0.0
C886 C 0.3769 0.96645 0.35748 0.0
C887 C 0.37058 0.94996 0.39276 0.0
C888 C 0.36926 0.98726 0.29348 0.0
C889 C 0.38327 0.00747 0.31277 0.0
C890 C 0.3634 0.98483 0.24029 0.0
C891 C 0.34943 0.96387 0.21685 0.0
C892 C 0.3548 0.94797 0.21893 0.0
C893 C 0.34149 0.92822 0.19691 0.0
C894 C 0.32286 0.92426 0.17231 0.0
C895 C 0.31753 0.94006 0.16954 0.0
C896 C 0.33077 0.95983 0.19155 0.0
C897 C 0.43049 0.06593 0.14733 0.0
C898 C 0.41925 0.07191 0.11368 0.0
C899 C 0.41993 0.05014 0.18435 0.0
C900 C 0.39793 0.04006 0.18879 0.0
C901 C 0.38665 0.04615 0.15582 0.0
C902 C 0.39722 0.06204 0.11879 0.0
C903 C 0.38679 0.02262 0.2266 0.0
C904 C 0.37202 0.0026 0.2077 0.0
C905 C 0.39213 0.02517 0.28012 0.0
C906 C 0.40693 0.04611 0.30289 0.0
C907 C 0.40379 0.06334 0.2952 0.0
C908 C 0.41794 0.08305 0.31614 0.0
C909 C 0.4352 0.08571 0.34525 0.0
C910 C 0.43834 0.06865 0.35357 0.0
C911 C 0.42428 0.04892 0.33256 0.0
H912 H 0.44616 0.101 0.36136 0.0
H913 H 0.31258 0.90896 0.15528 0.0
H914 H 0.39789 0.3134 0.36006 0.0
H915 H 0.37675 0.32048 0.29735 0.0
H916 H 0.40373 0.38384 0.35653 0.0
H917 H 0.42452 0.37705 0.41845 0.0
H918 H 0.3616 0.36575 0.34592 0.0
H919 H 0.4213 0.37359 0.2444 0.0
H920 H 0.44369 0.3606 0.20705 0.0
H921 H 0.3903 0.31171 0.12621 0.0
H922 H 0.36754 0.3243 0.16363 0.0
H923 H 0.36496 0.43725 0.15931 0.0
H924 H 0.37265 0.41615 0.21958 0.0
H925 H 0.33099 0.35993 0.13361 0.0
H926 H 0.32294 0.38094 0.07335 0.0
H927 H 0.3722 0.3655 0.15506 0.0
H928 H 0.31438 0.36345 0.24446 0.0
H929 H 0.29323 0.37792 0.28144 0.0
H930 H 0.34379 0.41684 0.38552 0.0
H931 H 0.3654 0.40286 0.34858 0.0
C932 C 0.39925 0.3288 0.35961 0.0
C933 C 0.4129 0.34462 0.3944 0.0
C934 C 0.38719 0.33283 0.32381 0.0
C935 C 0.38862 0.35268 0.32246 0.0
C936 C 0.40221 0.36835 0.35716 0.0
C937 C 0.41421 0.36442 0.39247 0.0
C938 C 0.37653 0.35783 0.28469 0.0
C939 C 0.36385 0.36562 0.30417 0.0
C940 C 0.37899 0.35712 0.23018 0.0
C941 C 0.39269 0.3497 0.2073 0.0
C942 C 0.41432 0.35997 0.21896 0.0
C943 C 0.42708 0.35271 0.19773 0.0
C944 C 0.41841 0.33529 0.16443 0.0
C945 C 0.39698 0.32516 0.15211 0.0
C946 C 0.38414 0.33236 0.17329 0.0
C947 C 0.35727 0.42038 0.1535 0.0
C948 C 0.34332 0.41076 0.11166 0.0
C949 C 0.36165 0.40834 0.18797 0.0
C950 C 0.35235 0.38649 0.18103 0.0
C951 C 0.3383 0.37677 0.13958 0.0
C952 C 0.33363 0.38878 0.10547 0.0
C953 C 0.35799 0.37417 0.21657 0.0
C954 C 0.36945 0.36506 0.19669 0.0
C955 C 0.35453 0.37379 0.27083 0.0
C956 C 0.34156 0.38217 0.2935 0.0
C957 C 0.32106 0.37521 0.27497 0.0
C958 C 0.30897 0.38331 0.29596 0.0
C959 C 0.31717 0.39831 0.33575 0.0
C960 C 0.33746 0.40521 0.35469 0.0
C961 C 0.34963 0.39718 0.33378 0.0
H962 H 0.30779 0.40456 0.35196 0.0
H963 H 0.4283 0.32967 0.14805 0.0
H964 H 0.06096 0.38604 0.42323 0.0
H965 H 0.03052 0.36618 0.3662 0.0
H966 H 0.0424 0.42405 0.29284 0.0
H967 H 0.07247 0.44399 0.35027 0.0
H968 H 0.00235 0.40128 0.31854 0.0
H969 H 0.05332 0.38791 0.23285 0.0
H970 H 0.07889 0.37543 0.22787 0.0
H971 H 0.03063 0.31322 0.27138 0.0
H972 H 0.00483 0.32542 0.27728 0.0
H973 H 0.95237 0.37731 0.0803 0.0
H974 H 0.97855 0.38696 0.1483 0.0
H975 H 0.94584 0.32347 0.20763 0.0
H976 H 0.91912 0.31339 0.1386 0.0
H977 H 0.99181 0.34313 0.20065 0.0
H978 H 0.9397 0.35663 0.27309 0.0
H979 H 0.91476 0.36993 0.27149 0.0
H980 H 0.96596 0.43293 0.24908 0.0
H981 H 0.9912 0.41998 0.24958 0.0
C982 C 0.05725 0.39451 0.39448 0.0
C983 C 0.06909 0.41662 0.39144 0.0
C984 C 0.03984 0.38312 0.36189 0.0
C985 C 0.03415 0.39362 0.32523 0.0
C986 C 0.04637 0.41562 0.32112 0.0
C987 C 0.06363 0.427 0.35386 0.0
C988 C 0.01509 0.38201 0.2922 0.0
C989 C 1.00012 0.38862 0.29267 0.0
C990 C 0.01173 0.36496 0.25976 0.0
C991 C 0.02722 0.35763 0.25613 0.0
C992 C 0.04821 0.37161 0.24179 0.0
C993 C 0.06273 0.36458 0.23871 0.0
C994 C 0.05641 0.34356 0.24947 0.0
C995 C 0.03552 0.32951 0.26317 0.0
C996 C 0.02094 0.33647 0.26636 0.0
C997 C 0.95063 0.36523 0.10747 0.0
C998 C 0.93352 0.34454 0.10404 0.0
C999 C 0.96566 0.37085 0.14645 0.0
C1000 C 0.96399 0.356 0.18325 0.0
C1001 C 0.94732 0.33515 0.17952 0.0
C1002 C 0.93207 0.32945 0.14026 0.0
C1003 C 0.97962 0.36295 0.22596 0.0
C1004 C 0.99387 0.35547 0.22743 0.0
C1005 C 0.98243 0.37932 0.26006 0.0
C1006 C 0.96735 0.38729 0.26118 0.0
C1007 C 0.94565 0.37331 0.26758 0.0
C1008 C 0.93145 0.38079 0.26685 0.0
C1009 C 0.93877 0.40226 0.26014 0.0
C1010 C 0.96032 0.4163 0.2543 0.0
C1011 C 0.97458 0.4089 0.25488 0.0
H1012 H 0.92775 0.40801 0.25954 0.0
H1013 H 0.06767 0.33815 0.24706 0.0
H1014 H 0.58614 0.95634 0.0651 0.0
H1015 H 0.60621 0.98365 0.12902 0.0
H1016 H 0.61492 0.93934 0.22082 0.0
H1017 H 0.59477 0.91161 0.15611 0.0
H1018 H 0.60038 0.96334 0.2777 0.0
H1019 H 0.65597 0.97539 0.16056 0.0
H1020 H 0.67287 0.98039 0.07465 0.0
H1021 H 0.66849 0.03597 0.04952 0.0
H1022 H 0.65128 0.03113 0.13497 0.0
H1023 H 0.66116 0.04627 0.45263 0.0
H1024 H 0.65185 0.01696 0.39224 0.0
H1025 H 0.64769 0.0539 0.26666 0.0
H1026 H 0.65786 0.08348 0.32692 0.0
H1027 H 0.66352 0.03127 0.23089 0.0
H1028 H 0.60364 0.01703 0.33705 0.0
H1029 H 0.58444 0.01226 0.41943 0.0
H1030 H 0.59444 0.96123 0.46144 0.0
H1031 H 0.61395 0.96589 0.37954 0.0
C1032 C 0.59237 0.95232 0.0987 0.0
C1033 C 0.58883 0.93176 0.10556 0.0
C1034 C 0.60396 0.96803 0.13508 0.0
C1035 C 0.61222 0.96358 0.17937 0.0
C1036 C 0.60876 0.94309 0.18665 0.0
C1037 C 0.59732 0.92732 0.14967 0.0
C1038 C 0.6236 0.98036 0.21868 0.0
C1039 C 0.61451 0.97801 0.26804 0.0
C1040 C 0.64164 0.9997 0.20533 0.0
C1041 C 0.65222 0.00282 0.15411 0.0
C1042 C 0.65848 0.9886 0.13659 0.0
C1043 C 0.66814 0.99142 0.08798 0.0
C1044 C 0.67172 0.00847 0.05661 0.0
C1045 C 0.66571 0.02277 0.07386 0.0
C1046 C 0.65603 0.02001 0.12242 0.0
C1047 C 0.65871 0.04818 0.41181 0.0
C1048 C 0.66031 0.067 0.39397 0.0
C1049 C 0.65322 0.03142 0.37746 0.0
C1050 C 0.64865 0.03303 0.32503 0.0
C1051 C 0.65112 0.05225 0.30687 0.0
C1052 C 0.65692 0.06913 0.34114 0.0
C1053 C 0.64011 0.01441 0.28981 0.0
C1054 C 0.64967 0.01646 0.2411 0.0
C1055 C 0.62228 0.99487 0.30341 0.0
C1056 C 0.61046 0.99197 0.3525 0.0
C1057 C 0.60187 0.00489 0.36404 0.0
C1058 C 0.59091 0.00219 0.41061 0.0
C1059 C 0.58828 0.9865 0.44573 0.0
C1060 C 0.59653 0.97342 0.43425 0.0
C1061 C 0.60753 0.97607 0.38776 0.0
H1062 H 0.57979 0.98443 0.48176 0.0
H1063 H 0.67919 0.01061 0.01898 0.0
H1064 H 0.68101 0.62044 0.07991 0.0
H1065 H 0.66993 0.64041 0.13534 0.0
H1066 H 0.62187 0.58244 0.20392 0.0
H1067 H 0.63261 0.56247 0.14862 0.0
H1068 H 0.6058 0.60626 0.17243 0.0
H1069 H 0.66669 0.61652 0.27009 0.0
H1070 H 0.70426 0.62796 0.2823 0.0
H1071 H 0.72106 0.69131 0.24205 0.0
H1072 H 0.68356 0.68016 0.22893 0.0
H1073 H 0.57388 0.6244 0.40833 0.0
H1074 H 0.59171 0.61659 0.34011 0.0
H1075 H 0.62465 0.68182 0.29357 0.0
H1076 H 0.60672 0.69006 0.36329 0.0
H1077 H 0.65037 0.66153 0.30034 0.0
H1078 H 0.58726 0.65069 0.21802 0.0
H1079 H 0.54914 0.63788 0.2143 0.0
H1080 H 0.536 0.57417 0.23074 0.0
H1081 H 0.57404 0.5866 0.23536 0.0
C1082 C 0.6683 0.61199 0.10738 0.0
C1083 C 0.6576 0.58985 0.10955 0.0
C1084 C 0.66196 0.62343 0.13897 0.0
C1085 C 0.64497 0.61291 0.17352 0.0
C1086 C 0.63486 0.59088 0.17712 0.0
C1087 C 0.64109 0.57949 0.14558 0.0
C1088 C 0.63697 0.62448 0.20481 0.0
C1089 C 0.61557 0.61835 0.20035 0.0
C1090 C 0.64985 0.64077 0.24001 0.0
C1091 C 0.67236 0.64746 0.24785 0.0
C1092 C 0.67841 0.63285 0.26337 0.0
C1093 C 0.69969 0.63929 0.27055 0.0
C1094 C 0.71505 0.66033 0.26277 0.0
C1095 C 0.70915 0.675 0.24794 0.0
C1096 C 0.68789 0.66863 0.24064 0.0
C1097 C 0.58493 0.63725 0.38393 0.0
C1098 C 0.58882 0.65791 0.39137 0.0
C1099 C 0.59509 0.63268 0.34473 0.0
C1100 C 0.60931 0.64856 0.31148 0.0
C1101 C 0.61364 0.66935 0.31888 0.0
C1102 C 0.60334 0.67399 0.35847 0.0
C1103 C 0.61913 0.64275 0.26902 0.0
C1104 C 0.64079 0.6499 0.27129 0.0
C1105 C 0.60648 0.62726 0.23194 0.0
C1106 C 0.58355 0.61961 0.22713 0.0
C1107 C 0.57625 0.63395 0.22096 0.0
C1108 C 0.55465 0.62676 0.21873 0.0
C1109 C 0.54016 0.60523 0.22233 0.0
C1110 C 0.54725 0.59084 0.2279 0.0
C1111 C 0.56884 0.59795 0.2302 0.0
H1112 H 0.52344 0.5997 0.22078 0.0
H1113 H 0.73151 0.66529 0.26837 0.0
H1114 H 0.94247 0.61533 0.42532 0.0
H1115 H 0.97276 0.63473 0.36749 0.0
H1116 H 0.9607 0.57625 0.29723 0.0
H1117 H 0.93081 0.55681 0.35535 0.0
H1118 H 1.00084 0.59927 0.32275 0.0
H1119 H 0.94974 0.61157 0.23462 0.0
H1120 H 0.92398 0.62374 0.22776 0.0
H1121 H 0.97196 0.6865 0.26815 0.0
H1122 H 0.99796 0.67462 0.27593 0.0
H1123 H 0.05193 0.62229 0.08546 0.0
H1124 H 0.02551 0.61259 0.15283 0.0
H1125 H 0.05692 0.67652 0.20945 0.0
H1126 H 0.08383 0.68664 0.141 0.0
H1127 H 0.01126 0.65642 0.20156 0.0
H1128 H 0.06342 0.64366 0.27745 0.0
H1129 H 0.08844 0.63045 0.27766 0.0
H1130 H 0.03741 0.56728 0.25606 0.0
H1131 H 0.0121 0.58013 0.25485 0.0
C1132 C 0.94613 0.60665 0.39708 0.0
C1133 C 0.93431 0.58452 0.39513 0.0
C1134 C 0.96344 0.61776 0.36404 0.0
C1135 C 0.96904 0.60695 0.32805 0.0
C1136 C 0.95682 0.58493 0.32499 0.0
C1137 C 0.93967 0.57383 0.35816 0.0
C1138 C 0.98804 0.61828 0.29475 0.0
C1139 C 0.00304 0.61171 0.29615 0.0
C1140 C 0.99132 0.635 0.26126 0.0
C1141 C 0.97573 0.64215 0.25649 0.0
C1142 C 0.95475 0.62792 0.24248 0.0
C1143 C 0.94012 0.63477 0.23834 0.0
C1144 C 0.94631 0.65586 0.24769 0.0
C1145 C 0.96718 0.67016 0.26104 0.0
C1146 C 0.98187 0.66338 0.26529 0.0
C1147 C 0.05336 0.63443 0.11197 0.0
C1148 C 0.07014 0.65528 0.10788 0.0
C1149 C 0.03818 0.6288 0.15059 0.0
C1150 C 0.0394 0.64377 0.18642 0.0
C1151 C 0.05579 0.66474 0.18212 0.0
C1152 C 0.07116 0.67046 0.14321 0.0
C1153 C 0.02356 0.63691 0.22863 0.0
C1154 C 0.00922 0.6443 0.22902 0.0
C1155 C 0.02074 0.6208 0.2636 0.0
C1156 C 0.03586 0.6129 0.26584 0.0
C1157 C 0.05753 0.62696 0.27253 0.0
C1158 C 0.07177 0.61953 0.27281 0.0
C1159 C 0.06452 0.59804 0.26679 0.0
C1160 C 0.04301 0.58392 0.26072 0.0
C1161 C 0.0287 0.59127 0.26032 0.0
H1162 H 0.07558 0.59233 0.26688 0.0
H1163 H 0.93496 0.66114 0.24445 0.0
H1164 H 0.62608 0.06532 0.635 0.0
H1165 H 0.61816 0.03827 0.69981 0.0
H1166 H 0.67543 0.03831 0.66106 0.0
H1167 H 0.68338 0.06536 0.59458 0.0
H1168 H 0.64278 0.99867 0.6692 0.0
H1169 H 0.67192 0.05929 0.77613 0.0
H1170 H 0.67786 0.09335 0.80962 0.0
H1171 H 0.6133 0.06425 0.85838 0.0
H1172 H 0.60686 0.03006 0.82448 0.0
H1173 H 0.61348 0.92883 0.89705 0.0
H1174 H 0.63432 0.95844 0.8378 0.0
H1175 H 0.58137 0.96819 0.81945 0.0
H1176 H 0.56045 0.93872 0.87732 0.0
H1177 H 0.62061 0.00508 0.84772 0.0
H1178 H 0.59144 0.9461 0.72557 0.0
H1179 H 0.58619 0.91229 0.69198 0.0
H1180 H 0.65303 0.93924 0.67464 0.0
H1181 H 0.65867 0.97316 0.70886 0.0
C1182 C 0.63714 0.05975 0.64024 0.0
C1183 C 0.6554 0.06757 0.60948 0.0
C1184 C 0.63262 0.04432 0.67768 0.0
C1185 C 0.64635 0.03647 0.68591 0.0
C1186 C 0.66467 0.04423 0.65553 0.0
C1187 C 0.66922 0.05974 0.61773 0.0
C1188 C 0.6408 0.01959 0.72506 0.0
C1189 C 0.63845 1.00024 0.70867 0.0
C1190 C 0.6351 0.02159 0.77657 0.0
C1191 C 0.6389 0.0421 0.79753 0.0
C1192 C 0.65895 0.06017 0.79372 0.0
C1193 C 0.66241 0.0795 0.81281 0.0
C1194 C 0.64597 0.08097 0.83607 0.0
C1195 C 0.62603 0.06308 0.84038 0.0
C1196 C 0.62248 0.04371 0.82131 0.0
C1197 C 0.60624 0.93717 0.87998 0.0
C1198 C 0.58531 0.93142 0.89211 0.0
C1199 C 0.61816 0.95406 0.84623 0.0
C1200 C 0.60937 0.96553 0.82466 0.0
C1201 C 0.58845 0.95959 0.83602 0.0
C1202 C 0.57649 0.94265 0.86898 0.0
C1203 C 0.62183 0.98409 0.79104 0.0
C1204 C 0.62549 0.00375 0.80867 0.0
C1205 C 0.62892 0.98241 0.74102 0.0
C1206 C 0.62549 0.96205 0.72045 0.0
C1207 C 0.60502 0.94475 0.71511 0.0
C1208 C 0.60197 0.92558 0.69584 0.0
C1209 C 0.61927 0.92359 0.68137 0.0
C1210 C 0.63965 0.94079 0.68599 0.0
C1211 C 0.64278 0.95998 0.7053 0.0
H1212 H 0.61688 0.90875 0.66644 0.0
H1213 H 0.64867 0.09595 0.8508 0.0
H1214 H 0.6261 0.57218 0.90205 0.0
H1215 H 0.61811 0.58953 0.83261 0.0
H1216 H 0.68432 0.62869 0.79968 0.0
H1217 H 0.69266 0.61117 0.87012 0.0
H1218 H 0.65971 0.65042 0.80533 0.0
H1219 H 0.65955 0.59344 0.71609 0.0
H1220 H 0.65146 0.55671 0.70562 0.0
H1221 H 0.58527 0.53549 0.70822 0.0
H1222 H 0.59294 0.57207 0.71948 0.0
H1223 H 0.61928 0.68083 0.58322 0.0
H1224 H 0.64029 0.67089 0.63813 0.0
H1225 H 0.58336 0.6174 0.69542 0.0
H1226 H 0.56235 0.62703 0.64079 0.0
H1227 H 0.61159 0.60621 0.6642 0.0
H1228 H 0.61168 0.66138 0.76931 0.0
H1229 H 0.61885 0.69749 0.78615 0.0
H1230 H 0.68463 0.72169 0.75641 0.0
H1231 H 0.67778 0.68571 0.73873 0.0
C1232 C 0.63908 0.58451 0.88035 0.0
C1233 C 0.66005 0.59031 0.89175 0.0
C1234 C 0.63444 0.59437 0.84047 0.0
C1235 C 0.65061 0.61025 0.81085 0.0
C1236 C 0.67165 0.6164 0.82219 0.0
C1237 C 0.67635 0.60634 0.86218 0.0
C1238 C 0.64491 0.62003 0.76816 0.0
C1239 C 0.64969 0.641 0.77348 0.0
C1240 C 0.63159 0.60755 0.72723 0.0
C1241 C 0.62684 0.58554 0.71879 0.0
C1242 C 0.64326 0.58094 0.71461 0.0
C1243 C 0.63875 0.56014 0.70855 0.0
C1244 C 0.61786 0.54377 0.70633 0.0
C1245 C 0.60144 0.54819 0.70991 0.0
C1246 C 0.60587 0.56897 0.71601 0.0
C1247 C 0.61124 0.66709 0.60798 0.0
C1248 C 0.58912 0.65466 0.60736 0.0
C1249 C 0.62328 0.66142 0.63926 0.0
C1250 C 0.61339 0.64333 0.67063 0.0
C1251 C 0.59133 0.6313 0.67111 0.0
C1252 C 0.57934 0.6369 0.63998 0.0
C1253 C 0.62573 0.63641 0.70244 0.0
C1254 C 0.62214 0.6159 0.69498 0.0
C1255 C 0.64009 0.64931 0.74138 0.0
C1256 C 0.64418 0.67091 0.75202 0.0
C1257 C 0.62764 0.67442 0.7659 0.0
C1258 C 0.63165 0.69486 0.77569 0.0
C1259 C 0.65217 0.71189 0.77216 0.0
C1260 C 0.66873 0.7085 0.759 0.0
C1261 C 0.6648 0.68809 0.74911 0.0
H1262 H 0.65524 0.7277 0.77978 0.0
H1263 H 0.6144 0.52767 0.7018 0.0
H1264 H 0.92315 0.60979 0.62513 0.0
H1265 H 0.95002 0.62828 0.69286 0.0
H1266 H 0.96903 0.58147 0.68073 0.0
H1267 H 0.94256 0.56312 0.61389 0.0
H1268 H 0.96575 0.59093 0.78206 0.0
H1269 H 0.99619 0.62778 0.61923 0.0
H1270 H 0.99736 0.64821 0.54169 0.0
H1271 H 0.99936 0.69661 0.6399 0.0
H1272 H 0.9979 0.67629 0.71806 0.0
H1273 H 0.06851 0.62754 0.86034 0.0
H1274 H 0.0378 0.61722 0.80537 0.0
H1275 H 0.03412 0.67114 0.85787 0.0
H1276 H 0.06505 0.68171 0.91363 0.0
H1277 H 0.02627 0.66232 0.748 0.0
H1278 H 0.00187 0.62756 0.91125 0.0
H1279 H 0.00174 0.60712 0.98764 0.0
H1280 H 0.9884 0.55462 0.88877 0.0
H1281 H 0.98882 0.57489 0.81163 0.0
C1282 C 0.93297 0.60341 0.63733 0.0
C1283 C 0.93086 0.58511 0.61383 0.0
C1284 C 0.94834 0.61401 0.67581 0.0
C1285 C 0.96159 0.60629 0.6916 0.0
C1286 C 0.95899 0.5877 0.66923 0.0
C1287 C 0.9439 0.5773 0.63073 0.0
C1288 C 0.97873 0.61756 0.73019 0.0
C1289 C 0.97894 0.60656 0.77469 0.0
C1290 C 0.99569 0.63819 0.72133 0.0
C1291 C 0.99664 0.6504 0.67442 0.0
C1292 C 0.99669 0.64269 0.62426 0.0
C1293 C 0.99744 0.65426 0.58022 0.0
C1294 C 0.99836 0.67366 0.58586 0.0
C1295 C 0.9986 0.68156 0.63559 0.0
C1296 C 0.9978 0.67002 0.67976 0.0
C1297 C 0.06137 0.63739 0.86003 0.0
C1298 C 0.06913 0.65535 0.89201 0.0
C1299 C 0.04377 0.63142 0.82856 0.0
C1300 C 0.0335 0.64322 0.82823 0.0
C1301 C 0.04178 0.66177 0.85784 0.0
C1302 C 0.05943 0.66776 0.88968 0.0
C1303 C 0.01355 0.63532 0.7987 0.0
C1304 C 0.01282 0.64692 0.75609 0.0
C1305 C 0.99606 0.6152 0.80921 0.0
C1306 C 0.99549 0.60281 0.85559 0.0
C1307 C 0.99904 0.61171 0.90574 0.0
C1308 C 0.9989 0.60014 0.94918 0.0
C1309 C 0.99508 0.57959 0.94305 0.0
C1310 C 0.99135 0.57055 0.89346 0.0
C1311 C 0.99151 0.58206 0.84986 0.0
H1312 H 0.99499 0.57067 0.97673 0.0
H1313 H 0.99896 0.6826 0.55172 0.0
H1314 H 0.3628 0.92655 0.66723 0.0
H1315 H 0.36995 0.955 0.72807 0.0
H1316 H 0.33029 0.97103 0.63803 0.0
H1317 H 0.32286 0.94239 0.57699 0.0
H1318 H 0.37046 0.00579 0.66126 0.0
H1319 H 0.31268 0.94999 0.75089 0.0
H1320 H 0.29174 0.91446 0.78845 0.0
H1321 H 0.34228 0.9269 0.8934 0.0
H1322 H 0.36368 0.9624 0.85592 0.0
H1323 H 0.39616 0.08457 0.8626 0.0
H1324 H 0.37481 0.05583 0.80129 0.0
H1325 H 0.40138 0.01962 0.86401 0.0
H1326 H 0.42232 0.04769 0.92466 0.0
H1327 H 0.3596 0.99548 0.85215 0.0
H1328 H 0.41938 0.04706 0.75119 0.0
H1329 H 0.44201 0.08211 0.71249 0.0
H1330 H 0.38901 0.07718 0.62874 0.0
H1331 H 0.366 0.04219 0.66755 0.0
C1332 C 0.35539 0.93596 0.66065 0.0
C1333 C 0.34227 0.93221 0.61729 0.0
C1334 C 0.35945 0.95217 0.69551 0.0
C1335 C 0.35058 0.96506 0.68761 0.0
C1336 C 0.33724 0.96122 0.64481 0.0
C1337 C 0.33294 0.94479 0.6102 0.0
C1338 C 0.3562 0.98308 0.72304 0.0
C1339 C 0.36764 0.00359 0.70289 0.0
C1340 C 0.35271 0.98014 0.77732 0.0
C1341 C 0.33983 0.95885 0.80036 0.0
C1342 C 0.3194 0.94511 0.78173 0.0
C1343 C 0.30743 0.92497 0.80305 0.0
C1344 C 0.31568 0.91842 0.84324 0.0
C1345 C 0.33591 0.932 0.86227 0.0
C1346 C 0.34795 0.95215 0.84105 0.0
C1347 C 0.39734 0.07043 0.86332 0.0
C1348 C 0.41099 0.0685 0.89855 0.0
C1349 C 0.38517 0.05406 0.82829 0.0
C1350 C 0.3865 0.03556 0.82817 0.0
C1351 C 0.39995 0.03363 0.86363 0.0
C1352 C 0.41205 0.04986 0.89819 0.0
C1353 C 0.37456 0.01817 0.79063 0.0
C1354 C 0.36191 0.99774 0.81038 0.0
C1355 C 0.37712 0.02117 0.73608 0.0
C1356 C 0.39093 0.04217 0.71281 0.0
C1357 C 0.41252 0.05354 0.72489 0.0
C1358 C 0.42542 0.07338 0.70287 0.0
C1359 C 0.41694 0.08191 0.66833 0.0
C1360 C 0.39555 0.07058 0.65562 0.0
C1361 C 0.38257 0.05075 0.67761 0.0
H1362 H 0.42695 0.09726 0.6513 0.0
H1363 H 0.30639 0.90282 0.85969 0.0
H1364 H 0.37685 0.42744 0.91033 0.0
H1365 H 0.38574 0.41108 0.84053 0.0
H1366 H 0.32074 0.37692 0.79215 0.0
H1367 H 0.31142 0.39343 0.86329 0.0
H1368 H 0.34263 0.35245 0.7984 0.0
H1369 H 0.35083 0.41494 0.71886 0.0
H1370 H 0.36217 0.45275 0.7157 0.0
H1371 H 0.42673 0.46847 0.73059 0.0
H1372 H 0.41578 0.43076 0.73475 0.0
H1373 H 0.38534 0.3244 0.57851 0.0
H1374 H 0.36486 0.33477 0.63385 0.0
H1375 H 0.42237 0.38462 0.70013 0.0
H1376 H 0.4429 0.37464 0.64449 0.0
H1377 H 0.39718 0.39913 0.6716 0.0
H1378 H 0.38953 0.33884 0.76716 0.0
H1379 H 0.37961 0.30161 0.77844 0.0
H1380 H 0.31559 0.28235 0.73871 0.0
H1381 H 0.32521 0.3195 0.72653 0.0
C1382 C 0.36428 0.41641 0.88522 0.0
C1383 C 0.34335 0.41174 0.89255 0.0
C1384 C 0.36947 0.40712 0.84509 0.0
C1385 C 0.35395 0.39299 0.81093 0.0
C1386 C 0.33293 0.38789 0.81818 0.0
C1387 C 0.32766 0.39735 0.85861 0.0
C1388 C 0.36037 0.38394 0.76797 0.0
C1389 C 0.3541 0.36247 0.76957 0.0
C1390 C 0.3757 0.39721 0.73132 0.0
C1391 C 0.38245 0.41996 0.72726 0.0
C1392 C 0.36744 0.42645 0.72168 0.0
C1393 C 0.3738 0.44788 0.71972 0.0
C1394 C 0.39515 0.46301 0.723 0.0
C1395 C 0.41019 0.45673 0.72802 0.0
C1396 C 0.40392 0.43532 0.73008 0.0
C1397 C 0.39362 0.3374 0.60535 0.0
C1398 C 0.41577 0.34875 0.60689 0.0
C1399 C 0.38187 0.34332 0.63693 0.0
C1400 C 0.39207 0.36052 0.67105 0.0
C1401 C 0.41415 0.37143 0.67375 0.0
C1402 C 0.42588 0.36563 0.64206 0.0
C1403 C 0.38 0.36772 0.70307 0.0
C1404 C 0.38527 0.38891 0.69933 0.0
C1405 C 0.36392 0.35422 0.73799 0.0
C1406 C 0.35814 0.33192 0.74526 0.0
C1407 C 0.37338 0.32666 0.76037 0.0
C1408 C 0.3678 0.30557 0.76702 0.0
C1409 C 0.34699 0.28962 0.75911 0.0
C1410 C 0.33171 0.29473 0.74469 0.0
C1411 C 0.33721 0.31579 0.73793 0.0
H1412 H 0.3427 0.27331 0.7643 0.0
H1413 H 0.40004 0.47959 0.7216 0.0
H1414 H 0.92823 0.36872 0.84743 0.0
H1415 H 0.95627 0.3775 0.78458 0.0
H1416 H 0.96642 0.32876 0.84765 0.0
H1417 H 0.93836 0.31996 0.9116 0.0
H1418 H 0.00325 0.36567 0.83608 0.0
H1419 H 0.9441 0.32249 0.72926 0.0
H1420 H 0.90896 0.30974 0.69081 0.0
H1421 H 0.93061 0.36975 0.61763 0.0
H1422 H 0.96577 0.38302 0.65643 0.0
H1423 H 0.07971 0.39396 0.62712 0.0
H1424 H 0.05025 0.37331 0.68696 0.0
H1425 H 0.02473 0.41376 0.65285 0.0
H1426 H 0.05364 0.43412 0.59342 0.0
H1427 H 0.99477 0.37321 0.64693 0.0
H1428 H 0.05098 0.41789 0.76647 0.0
H1429 H 0.08594 0.4318 0.80713 0.0
H1430 H 0.06957 0.36948 0.85644 0.0
H1431 H 0.03459 0.35517 0.81544 0.0
C1432 C 0.93626 0.35969 0.8478 0.0
C1433 C 0.93108 0.34366 0.88473 0.0
C1434 C 0.95225 0.36468 0.81158 0.0
C1435 C 0.96335 0.35368 0.81111 0.0
C1436 C 0.95802 0.33741 0.84728 0.0
C1437 C 0.94192 0.33234 0.88359 0.0
C1438 C 0.98114 0.36004 0.77426 0.0
C1439 C 0.00134 0.36685 0.79451 0.0
C1440 C 0.97868 0.3618 0.72013 0.0
C1441 C 0.95759 0.35379 0.69603 0.0
C1442 C 0.94135 0.33302 0.70524 0.0
C1443 C 0.92142 0.3257 0.68336 0.0
C1444 C 0.91755 0.33893 0.65184 0.0
C1445 C 0.93363 0.3595 0.64199 0.0
C1446 C 0.95358 0.36693 0.6639 0.0
C1447 C 0.06788 0.39849 0.63273 0.0
C1448 C 0.06898 0.41561 0.60517 0.0
C1449 C 0.05106 0.38669 0.66687 0.0
C1450 C 0.03522 0.39194 0.67415 0.0
C1451 C 0.03661 0.40925 0.64744 0.0
C1452 C 0.05325 0.42094 0.61352 0.0
C1453 C 0.01694 0.37959 0.70905 0.0
C1454 C 0.99662 0.37158 0.68833 0.0
C1455 C 0.01931 0.37683 0.76269 0.0
C1456 C 0.0403 0.38543 0.78731 0.0
C1457 C 0.05491 0.40713 0.78558 0.0
C1458 C 0.07471 0.41509 0.80876 0.0
C1459 C 0.08 0.40152 0.83418 0.0
C1460 C 0.06547 0.37997 0.83662 0.0
C1461 C 0.04566 0.37193 0.81343 0.0
H1462 H 0.09534 0.40771 0.85212 0.0
H1463 H 0.9021 0.33325 0.63502 0.0
H1464 H 0.50671 0.10297 0.08109 0.0
H1465 H 0.53098 0.10469 0.14763 0.0
H1466 H 0.53941 0.1642 0.201 0.0
H1467 H 0.51485 0.16271 0.13341 0.0
H1468 H 0.57756 0.1627 0.19111 0.0
H1469 H 0.50994 0.12319 0.27018 0.0
H1470 H 0.47251 0.09567 0.27257 0.0
H1471 H 0.48964 0.04785 0.25714 0.0
H1472 H 0.52718 0.07511 0.25315 0.0
H1473 H 0.6316 0.15714 0.41555 0.0
H1474 H 0.60731 0.16054 0.35709 0.0
H1475 H 0.58616 0.09808 0.29749 0.0
H1476 H 0.61022 0.09432 0.35694 0.0
H1477 H 0.55346 0.1038 0.31729 0.0
H1478 H 0.61977 0.14242 0.2278 0.0
H1479 H 0.65727 0.16934 0.21894 0.0
H1480 H 0.64259 0.21805 0.2511 0.0
H1481 H 0.60502 0.19139 0.26087 0.0
C1482 C 0.51367 0.11652 0.10672 0.0
C1483 C 0.50875 0.13271 0.1019 0.0
C1484 C 0.52753 0.11741 0.14492 0.0
C1485 C 0.53677 0.13442 0.17958 0.0
C1486 C 0.53233 0.15089 0.17459 0.0
C1487 C 0.5183 0.15 0.13613 0.0
C1488 C 0.55094 0.13453 0.22083 0.0
C1489 C 0.57225 0.15011 0.21954 0.0
C1490 C 0.54399 0.11776 0.25695 0.0
C1491 C 0.52143 0.10125 0.26104 0.0
C1492 C 0.50575 0.10682 0.26699 0.0
C1493 C 0.48449 0.09126 0.26862 0.0
C1494 C 0.4787 0.07003 0.26502 0.0
C1495 C 0.49416 0.06431 0.25992 0.0
C1496 C 0.51544 0.07982 0.25796 0.0
C1497 C 0.6219 0.14412 0.38984 0.0
C1498 C 0.62291 0.12544 0.39092 0.0
C1499 C 0.60803 0.14614 0.35631 0.0
C1500 C 0.59504 0.12965 0.32257 0.0
C1501 C 0.59604 0.11101 0.32328 0.0
C1502 C 0.60986 0.10892 0.35708 0.0
C1503 C 0.58024 0.13177 0.28699 0.0
C1504 C 0.55876 0.11657 0.28942 0.0
C1505 C 0.58706 0.14883 0.25176 0.0
C1506 C 0.60962 0.16489 0.24563 0.0
C1507 C 0.62456 0.15886 0.23339 0.0
C1508 C 0.64583 0.17408 0.22813 0.0
C1509 C 0.65232 0.19539 0.23461 0.0
C1510 C 0.63755 0.20154 0.24619 0.0
C1511 C 0.61627 0.18638 0.25155 0.0
H1512 H 0.66879 0.20714 0.23053 0.0
H1513 H 0.46225 0.058 0.26619 0.0
H1514 H 0.3526 0.5096 0.14444 0.0
H1515 H 0.37632 0.53545 0.20883 0.0
H1516 H 0.42784 0.52884 0.15 0.0
H1517 H 0.40453 0.50306 0.08713 0.0
H1518 H 0.42773 0.528 0.25222 0.0
H1519 H 0.42236 0.57166 0.11903 0.0
H1520 H 0.4035 0.58386 0.0621 0.0
H1521 H 0.37869 0.59899 0.19642 0.0
H1522 H 0.39722 0.58664 0.25416 0.0
H1523 H 0.51792 0.61563 0.35346 0.0
H1524 H 0.49109 0.5917 0.29209 0.0
H1525 H 0.44491 0.6029 0.36695 0.0
H1526 H 0.47174 0.62727 0.42758 0.0
H1527 H 0.43989 0.60082 0.26267 0.0
H1528 H 0.44779 0.55865 0.39557 0.0
H1529 H 0.46827 0.54754 0.44997 0.0
H1530 H 0.48954 0.53015 0.3128 0.0
H1531 H 0.46943 0.54143 0.25753 0.0
C1532 C 0.36897 0.51367 0.1454 0.0
C1533 C 0.37661 0.50422 0.11059 0.0
C1534 C 0.38252 0.52849 0.18202 0.0
C1535 C 0.4039 0.53415 0.18405 0.0
C1536 C 0.41142 0.52467 0.14941 0.0
C1537 C 0.39799 0.50991 0.11327 0.0
C1538 C 0.41872 0.54981 0.22213 0.0
C1539 C 0.43045 0.54395 0.25423 0.0
C1540 C 0.42204 0.57052 0.22553 0.0
C1541 C 0.41097 0.57801 0.19088 0.0
C1542 C 0.41275 0.57744 0.13641 0.0
C1543 C 0.40215 0.58441 0.104 0.0
C1544 C 0.38985 0.59214 0.12563 0.0
C1545 C 0.38819 0.59297 0.17972 0.0
C1546 C 0.39874 0.586 0.21231 0.0
C1547 C 0.50209 0.61311 0.35668 0.0
C1548 C 0.49691 0.62317 0.3958 0.0
C1549 C 0.48675 0.59939 0.32165 0.0
C1550 C 0.46589 0.59519 0.32562 0.0
C1551 C 0.46088 0.60584 0.3633 0.0
C1552 C 0.47624 0.61973 0.39802 0.0
C1553 C 0.44913 0.57907 0.29187 0.0
C1554 C 0.43701 0.58481 0.26088 0.0
C1555 C 0.44553 0.55825 0.28912 0.0
C1556 C 0.45719 0.55097 0.32242 0.0
C1557 C 0.45688 0.55251 0.37701 0.0
C1558 C 0.46842 0.54618 0.408 0.0
C1559 C 0.48018 0.53814 0.38485 0.0
C1560 C 0.4804 0.53636 0.33067 0.0
C1561 C 0.46892 0.54269 0.2995 0.0
H1562 H 0.48912 0.53328 0.4089 0.0
H1563 H 0.38165 0.59752 0.10048 0.0
H1564 H 0.90206 0.49794 0.40726 0.0
H1565 H 0.89995 0.47334 0.34117 0.0
H1566 H 0.83866 0.46222 0.29494 0.0
H1567 H 0.84047 0.48694 0.36244 0.0
H1568 H 0.84059 0.4253 0.30498 0.0
H1569 H 0.87989 0.49167 0.21897 0.0
H1570 H 0.90778 0.52887 0.2118 0.0
H1571 H 0.95507 0.5111 0.22895 0.0
H1572 H 0.92746 0.47381 0.23712 0.0
H1573 H 0.84252 0.36848 0.08146 0.0
H1574 H 0.84002 0.39322 0.14042 0.0
H1575 H 0.90311 0.41432 0.19517 0.0
H1576 H 0.90594 0.38984 0.1355 0.0
H1577 H 0.89777 0.44701 0.17466 0.0
H1578 H 0.8596 0.38195 0.26883 0.0
H1579 H 0.83247 0.34471 0.28098 0.0
H1580 H 0.78392 0.3599 0.25182 0.0
H1581 H 0.81079 0.39721 0.23876 0.0
C1582 C 0.88806 0.49036 0.38319 0.0
C1583 C 0.8714 0.49444 0.39025 0.0
C1584 C 0.88696 0.47633 0.34514 0.0
C1585 C 0.86929 0.46617 0.31271 0.0
C1586 C 0.85249 0.47002 0.31953 0.0
C1587 C 0.85358 0.48417 0.3579 0.0
C1588 C 0.86859 0.45131 0.2725 0.0
C1589 C 0.85281 0.43009 0.27567 0.0
C1590 C 0.88488 0.45754 0.23525 0.0
C1591 C 0.90157 0.47993 0.22895 0.0
C1592 C 0.89623 0.4957 0.22147 0.0
C1593 C 0.91199 0.51681 0.21722 0.0
C1594 C 0.93318 0.52235 0.22001 0.0
C1595 C 0.93865 0.50678 0.22681 0.0
C1596 C 0.92294 0.48565 0.23117 0.0
C1597 C 0.85585 0.37826 0.10627 0.0
C1598 C 0.87447 0.37719 0.10362 0.0
C1599 C 0.85435 0.39238 0.14009 0.0
C1600 C 0.87132 0.40554 0.17247 0.0
C1601 C 0.88984 0.40435 0.17042 0.0
C1602 C 0.8914 0.39029 0.1364 0.0
C1603 C 0.86995 0.42089 0.20763 0.0
C1604 C 0.88538 0.44223 0.20346 0.0
C1605 C 0.8534 0.41474 0.24414 0.0
C1606 C 0.83722 0.39233 0.25226 0.0
C1607 C 0.84315 0.37733 0.2646 0.0
C1608 C 0.82782 0.35621 0.27172 0.0
C1609 C 0.80649 0.34993 0.26702 0.0
C1610 C 0.80045 0.36478 0.25536 0.0
C1611 C 0.81572 0.38591 0.24812 0.0
H1612 H 0.79464 0.33358 0.27255 0.0
H1613 H 0.94536 0.53871 0.21685 0.0
H1614 H 0.38471 0.90419 0.36043 0.0
H1615 H 0.40787 0.90211 0.29517 0.0
H1616 H 0.40479 0.84907 0.37639 0.0
H1617 H 0.38074 0.85045 0.44016 0.0
H1618 H 0.44449 0.90763 0.29768 0.0
H1619 H 0.41161 0.81707 0.29568 0.0
H1620 H 0.37764 0.78427 0.30719 0.0
H1621 H 0.34457 0.81634 0.26228 0.0
H1622 H 0.37834 0.84924 0.24981 0.0
H1623 H 0.51935 0.89155 0.16748 0.0
H1624 H 0.49415 0.89036 0.23183 0.0
H1625 H 0.44322 0.855 0.12378 0.0
H1626 H 0.4683 0.85488 0.06109 0.0
H1627 H 0.42944 0.84082 0.21234 0.0
H1628 H 0.46683 0.91096 0.14598 0.0
H1629 H 0.49798 0.94493 0.12296 0.0
H1630 H 0.5166 0.95586 0.28377 0.0
H1631 H 0.48568 0.92182 0.30767 0.0
C1632 C 0.38889 0.89201 0.36411 0.0
C1633 C 0.38083 0.8774 0.40514 0.0
C1634 C 0.40217 0.89086 0.32689 0.0
C1635 C 0.40794 0.87528 0.33033 0.0
C1636 C 0.40018 0.8609 0.37195 0.0
C1637 C 0.38651 0.86175 0.40856 0.0
C1638 C 0.42239 0.8744 0.29095 0.0
C1639 C 0.44114 0.89301 0.27898 0.0
C1640 C 0.41791 0.85545 0.26549 0.0
C1641 C 0.39752 0.83567 0.27236 0.0
C1642 C 0.3971 0.81709 0.28808 0.0
C1643 C 0.37787 0.79849 0.29479 0.0
C1644 C 0.35896 0.79824 0.28564 0.0
C1645 C 0.35923 0.81658 0.26955 0.0
C1646 C 0.37841 0.83521 0.26271 0.0
C1647 C 0.50273 0.88335 0.15791 0.0
C1648 C 0.4957 0.87334 0.10952 0.0
C1649 C 0.48834 0.88281 0.19444 0.0
C1650 C 0.46676 0.87305 0.18234 0.0
C1651 C 0.45974 0.86265 0.13423 0.0
C1652 C 0.47406 0.8626 0.09837 0.0
C1653 C 0.45159 0.87404 0.21924 0.0
C1654 C 0.43275 0.85545 0.23092 0.0
C1655 C 0.45553 0.89319 0.24267 0.0
C1656 C 0.47404 0.91377 0.22854 0.0
C1657 C 0.47763 0.92057 0.17639 0.0
C1658 C 0.49524 0.93983 0.16319 0.0
C1659 C 0.50928 0.95252 0.20186 0.0
C1660 C 0.50571 0.946 0.25385 0.0
C1661 C 0.48814 0.92674 0.26726 0.0
H1662 H 0.52292 0.96743 0.19156 0.0
H1663 H 0.3441 0.78383 0.29091 0.0
H1664 H 0.60205 0.50409 0.1 0.0
H1665 H 0.57953 0.47897 0.16523 0.0
H1666 H 0.62798 0.46391 0.20089 0.0
H1667 H 0.65088 0.48915 0.13442 0.0
H1668 H 0.58793 0.42835 0.1892 0.0
H1669 H 0.61917 0.49278 0.28501 0.0
H1670 H 0.63082 0.53028 0.2994 0.0
H1671 H 0.56682 0.51684 0.28941 0.0
H1672 H 0.5548 0.47929 0.27411 0.0
H1673 H 0.52896 0.36921 0.41092 0.0
H1674 H 0.5565 0.39386 0.35246 0.0
H1675 H 0.51693 0.41905 0.30605 0.0
H1676 H 0.48933 0.39463 0.3651 0.0
H1677 H 0.5561 0.44995 0.32958 0.0
H1678 H 0.5252 0.38687 0.22571 0.0
H1679 H 0.51293 0.34949 0.20738 0.0
H1680 H 0.57564 0.36042 0.23017 0.0
H1681 H 0.58823 0.39784 0.24939 0.0
C1682 C 0.60806 0.49553 0.12161 0.0
C1683 C 0.62829 0.49862 0.11184 0.0
C1684 C 0.59514 0.48122 0.15915 0.0
C1685 C 0.60216 0.46975 0.18824 0.0
C1686 C 0.62233 0.47269 0.17884 0.0
C1687 C 0.6354 0.48715 0.14107 0.0
C1688 C 0.58796 0.45448 0.22757 0.0
C1689 C 0.5813 0.43307 0.22068 0.0
C1690 C 0.57898 0.46068 0.26775 0.0
C1691 C 0.5861 0.48321 0.27812 0.0
C1692 C 0.60758 0.49783 0.28561 0.0
C1693 C 0.61426 0.5191 0.29394 0.0
C1694 C 0.59958 0.52595 0.29523 0.0
C1695 C 0.57818 0.51151 0.28839 0.0
C1696 C 0.57142 0.49022 0.27997 0.0
C1697 C 0.526 0.37986 0.38802 0.0
C1698 C 0.50693 0.37998 0.39287 0.0
C1699 C 0.54177 0.39392 0.35449 0.0
C1700 C 0.53874 0.40824 0.32479 0.0
C1701 C 0.51961 0.40816 0.3288 0.0
C1702 C 0.50382 0.39413 0.3624 0.0
C1703 C 0.55574 0.42374 0.29064 0.0
C1704 C 0.56293 0.44522 0.2986 0.0
C1705 C 0.56513 0.41757 0.25136 0.0
C1706 C 0.55761 0.39511 0.23958 0.0
C1707 C 0.53634 0.38127 0.22725 0.0
C1708 C 0.52933 0.36008 0.21662 0.0
C1709 C 0.54349 0.35257 0.21777 0.0
C1710 C 0.56469 0.36625 0.22939 0.0
C1711 C 0.57177 0.38746 0.24013 0.0
H1712 H 0.53803 0.33616 0.20953 0.0
H1713 H 0.60478 0.54243 0.30158 0.0
H1714 H 0.1677 0.52018 0.37544 0.0
H1715 H 0.1709 0.54557 0.30825 0.0
H1716 H 0.10393 0.52155 0.31604 0.0
H1717 H 0.10063 0.49641 0.38247 0.0
H1718 H 0.11818 0.52814 0.21561 0.0
H1719 H 0.13672 0.56512 0.38081 0.0
H1720 H 0.15754 0.5784 0.46156 0.0
H1721 H 0.2139 0.6138 0.37156 0.0
H1722 H 0.19346 0.60045 0.29021 0.0
H1723 H 0.09822 0.60656 0.12346 0.0
H1724 H 0.10251 0.58252 0.1813 0.0
H1725 H 0.16906 0.61466 0.14823 0.0
H1726 H 0.16498 0.63886 0.09015 0.0
H1727 H 0.15964 0.60462 0.2544 0.0
H1728 H 0.13983 0.57039 0.08854 0.0
H1729 H 0.11836 0.55732 0.00872 0.0
H1730 H 0.06397 0.51676 0.10038 0.0
H1731 H 0.08503 0.52983 0.18086 0.0
C1732 C 0.15368 0.52022 0.36235 0.0
C1733 C 0.13396 0.50647 0.38463 0.0
C1734 C 0.15553 0.53475 0.32419 0.0
C1735 C 0.13765 0.53553 0.30751 0.0
C1736 C 0.11791 0.52124 0.32832 0.0
C1737 C 0.11609 0.50695 0.36655 0.0
C1738 C 0.13923 0.55165 0.26998 0.0
C1739 C 0.12722 0.54486 0.22412 0.0
C1740 C 0.15136 0.57348 0.28061 0.0
C1741 C 0.16362 0.58158 0.32946 0.0
C1742 C 0.15359 0.57559 0.37824 0.0
C1743 C 0.1653 0.58315 0.42412 0.0
C1744 C 0.18703 0.59688 0.42169 0.0
C1745 C 0.19708 0.60312 0.37337 0.0
C1746 C 0.18544 0.59556 0.32737 0.0
C1747 C 0.11381 0.60864 0.12861 0.0
C1748 C 0.13122 0.62453 0.10167 0.0
C1749 C 0.11622 0.59484 0.16161 0.0
C1750 C 0.13606 0.59664 0.16843 0.0
C1751 C 0.15361 0.61296 0.14328 0.0
C1752 C 0.15121 0.62672 0.10999 0.0
C1753 C 0.13822 0.58105 0.20068 0.0
C1754 C 0.1509 0.58793 0.24545 0.0
C1755 C 0.12666 0.55927 0.18916 0.0
C1756 C 0.11398 0.55121 0.14078 0.0
C1757 C 0.12325 0.5588 0.09172 0.0
C1758 C 0.11117 0.55137 0.04635 0.0
C1759 C 0.08981 0.53625 0.04949 0.0
C1760 C 0.08051 0.52848 0.09802 0.0
C1761 C 0.09252 0.53587 0.14352 0.0
H1762 H 0.08048 0.53053 0.01432 0.0
H1763 H 0.19607 0.60273 0.45724 0.0
H1764 H 0.49732 0.90013 0.9045 0.0
H1765 H 0.46863 0.89487 0.84727 0.0
H1766 H 0.45396 0.83104 0.81761 0.0
H1767 H 0.48307 0.83628 0.87466 0.0
H1768 H 0.45115 0.85009 0.72915 0.0
H1769 H 0.42412 0.83966 0.901 0.0
H1770 H 0.42411 0.84764 0.99432 0.0
H1771 H 0.4241 0.90459 0.95551 0.0
H1772 H 0.42453 0.89718 0.86191 0.0
H1773 H 0.35462 0.83374 0.6118 0.0
H1774 H 0.37659 0.82855 0.67584 0.0
H1775 H 0.40992 0.89514 0.70886 0.0
H1776 H 0.38847 0.90048 0.64437 0.0
H1777 H 0.39867 0.86757 0.79968 0.0
H1778 H 0.43134 0.87954 0.62818 0.0
H1779 H 0.43127 0.8711 0.53513 0.0
H1780 H 0.41924 0.80922 0.5755 0.0
H1781 H 0.41887 0.81719 0.66885 0.0
C1782 C 0.4881 0.88496 0.88572 0.0
C1783 C 0.49235 0.86854 0.8947 0.0
C1784 C 0.47162 0.88196 0.85311 0.0
C1785 C 0.45884 0.86241 0.82912 0.0
C1786 C 0.46353 0.8462 0.83613 0.0
C1787 C 0.48015 0.84922 0.86874 0.0
C1788 C 0.44048 0.85911 0.79752 0.0
C1789 C 0.4394 0.85345 0.74489 0.0
C1790 C 0.42515 0.86354 0.81801 0.0
C1791 C 0.42449 0.86791 0.87433 0.0
C1792 C 0.42424 0.85395 0.91233 0.0
C1793 C 0.42416 0.85837 0.9653 0.0
C1794 C 0.42413 0.87662 0.98083 0.0
C1795 C 0.42413 0.89046 0.94341 0.0
C1796 C 0.42427 0.88614 0.89037 0.0
C1797 C 0.36641 0.84718 0.6334 0.0
C1798 C 0.36997 0.86753 0.62304 0.0
C1799 C 0.37895 0.84421 0.66975 0.0
C1800 C 0.39489 0.8615 0.69681 0.0
C1801 C 0.39768 0.88162 0.6884 0.0
C1802 C 0.38549 0.88465 0.65144 0.0
C1803 C 0.40976 0.85913 0.73129 0.0
C1804 C 0.41016 0.86376 0.78441 0.0
C1805 C 0.4243 0.85354 0.71141 0.0
C1806 C 0.42479 0.84886 0.6554 0.0
C1807 C 0.42848 0.86406 0.61718 0.0
C1808 C 0.42856 0.85938 0.5644 0.0
C1809 C 0.42518 0.83961 0.5494 0.0
C1810 C 0.4218 0.82451 0.58717 0.0
C1811 C 0.42165 0.8291 0.64002 0.0
H1812 H 0.42524 0.83601 0.50851 0.0
H1813 H 0.42409 0.88002 0.02186 0.0
H1814 H 0.63756 0.47815 0.90526 0.0
H1815 H 0.61364 0.45156 0.84348 0.0
H1816 H 0.58558 0.48969 0.80858 0.0
H1817 H 0.60937 0.51637 0.87043 0.0
H1818 H 0.55607 0.44868 0.82962 0.0
H1819 H 0.61708 0.48608 0.72202 0.0
H1820 H 0.65467 0.50197 0.69952 0.0
H1821 H 0.64978 0.44118 0.70736 0.0
H1822 H 0.61219 0.42496 0.73068 0.0
H1823 H 0.49981 0.40306 0.60093 0.0
H1824 H 0.52547 0.42641 0.66437 0.0
H1825 H 0.54529 0.38088 0.69168 0.0
H1826 H 0.51944 0.35714 0.62718 0.0
H1827 H 0.57911 0.42312 0.67818 0.0
H1828 H 0.51636 0.38583 0.78073 0.0
H1829 H 0.47861 0.37122 0.79962 0.0
H1830 H 0.48685 0.43345 0.79807 0.0
H1831 H 0.5246 0.44843 0.77839 0.0
C1832 C 0.62639 0.48097 0.88424 0.0
C1833 C 0.62529 0.49934 0.8931 0.0
C1834 C 0.61278 0.46577 0.84882 0.0
C1835 C 0.59785 0.46867 0.8215 0.0
C1836 C 0.59694 0.48713 0.8295 0.0
C1837 C 0.6106 0.50238 0.86475 0.0
C1838 C 0.58267 0.4521 0.78592 0.0
C1839 C 0.5611 0.44322 0.79625 0.0
C1840 C 0.58931 0.44466 0.74318 0.0
C1841 C 0.61186 0.45433 0.72869 0.0
C1842 C 0.62405 0.47612 0.71938 0.0
C1843 C 0.64536 0.48519 0.7064 0.0
C1844 C 0.65462 0.4726 0.70218 0.0
C1845 C 0.64258 0.45091 0.71074 0.0
C1846 C 0.62127 0.44177 0.7238 0.0
C1847 C 0.50956 0.39788 0.62033 0.0
C1848 C 0.50758 0.3782 0.60891 0.0
C1849 C 0.5242 0.41127 0.65676 0.0
C1850 C 0.53717 0.40532 0.68293 0.0
C1851 C 0.53537 0.38572 0.67181 0.0
C1852 C 0.52054 0.37215 0.63528 0.0
C1853 C 0.55253 0.41986 0.7217 0.0
C1854 C 0.57412 0.42839 0.71197 0.0
C1855 C 0.54594 0.42716 0.76481 0.0
C1856 C 0.5233 0.41824 0.77775 0.0
C1857 C 0.51011 0.3964 0.78413 0.0
C1858 C 0.48871 0.38805 0.795 0.0
C1859 C 0.48033 0.40139 0.79994 0.0
C1860 C 0.49336 0.42313 0.79422 0.0
C1861 C 0.51477 0.43156 0.78329 0.0
H1862 H 0.46375 0.3949 0.80827 0.0
H1863 H 0.67112 0.47965 0.69218 0.0
H1864 H 0.09691 0.49529 0.61983 0.0
H1865 H 0.10134 0.52396 0.67672 0.0
H1866 H 0.16851 0.55575 0.6527 0.0
H1867 H 0.16429 0.52713 0.59578 0.0
H1868 H 0.15764 0.55669 0.75606 0.0
H1869 H 0.14152 0.57266 0.58771 0.0
H1870 H 0.12148 0.56539 0.50577 0.0
H1871 H 0.06649 0.55404 0.59145 0.0
H1872 H 0.08609 0.56089 0.67403 0.0
H1873 H 0.16808 0.65027 0.8753 0.0
H1874 H 0.17106 0.62801 0.80792 0.0
H1875 H 0.10372 0.58672 0.81159 0.0
H1876 H 0.10065 0.60864 0.87834 0.0
H1877 H 0.11945 0.59458 0.7116 0.0
H1878 H 0.13429 0.57434 0.87935 0.0
H1879 H 0.15383 0.58094 0.96194 0.0
H1880 H 0.21108 0.60018 0.8771 0.0
H1881 H 0.19192 0.59401 0.79394 0.0
C1882 C 0.11265 0.50828 0.6269 0.0
C1883 C 0.13023 0.509 0.60286 0.0
C1884 C 0.11514 0.5247 0.65924 0.0
C1885 C 0.13523 0.5421 0.66823 0.0
C1886 C 0.15288 0.5425 0.646 0.0
C1887 C 0.1504 0.52615 0.61339 0.0
C1888 C 0.13764 0.56005 0.69999 0.0
C1889 C 0.14962 0.56526 0.74588 0.0
C1890 C 0.12705 0.57109 0.68679 0.0
C1891 C 0.11525 0.56714 0.63713 0.0
C1892 C 0.12511 0.56846 0.58913 0.0
C1893 C 0.11384 0.56444 0.54256 0.0
C1894 C 0.09273 0.55922 0.54342 0.0
C1895 C 0.08285 0.55807 0.59085 0.0
C1896 C 0.09404 0.56204 0.63756 0.0
C1897 C 0.15394 0.63659 0.86115 0.0
C1898 C 0.13417 0.63105 0.88241 0.0
C1899 C 0.15566 0.62388 0.8229 0.0
C1900 C 0.1376 0.60564 0.80516 0.0
C1901 C 0.11783 0.6007 0.82474 0.0
C1902 C 0.11613 0.61318 0.86313 0.0
C1903 C 0.13905 0.5909 0.76823 0.0
C1904 C 0.12777 0.58627 0.72129 0.0
C1905 C 0.15027 0.5804 0.78051 0.0
C1906 C 0.16174 0.58398 0.83046 0.0
C1907 C 0.15108 0.58016 0.87831 0.0
C1908 C 0.16207 0.58378 0.92522 0.0
C1909 C 0.18369 0.59103 0.92476 0.0
C1910 C 0.19434 0.59461 0.87738 0.0
C1911 C 0.18343 0.59106 0.83036 0.0
H1912 H 0.19217 0.59382 0.96112 0.0
H1913 H 0.08403 0.55611 0.50732 0.0
H1914 H 0.5993 0.09602 0.59431 0.0
H1915 H 0.57559 0.09939 0.65456 0.0
H1916 H 0.62335 0.16339 0.68833 0.0
H1917 H 0.64753 0.16014 0.62767 0.0
H1918 H 0.60174 0.14076 0.77687 0.0
H1919 H 0.58503 0.15557 0.60827 0.0
H1920 H 0.57684 0.14956 0.51452 0.0
H1921 H 0.52046 0.09136 0.54873 0.0
H1922 H 0.52851 0.09684 0.64269 0.0
H1923 H 0.52733 0.16095 0.9021 0.0
H1924 H 0.55364 0.16351 0.83981 0.0
H1925 H 0.51215 0.09931 0.79201 0.0
H1926 H 0.48558 0.09655 0.85422 0.0
H1927 H 0.53224 0.12594 0.70885 0.0
H1928 H 0.55056 0.10985 0.87625 0.0
H1929 H 0.55884 0.11549 0.97003 0.0
H1930 H 0.61228 0.17624 0.93763 0.0
H1931 H 0.6041 0.17109 0.84365 0.0
C1932 C 0.60489 0.11086 0.61452 0.0
C1933 C 0.62525 0.12794 0.60558 0.0
C1934 C 0.59126 0.11274 0.64893 0.0
C1935 C 0.59756 0.13176 0.67503 0.0
C1936 C 0.61816 0.14862 0.66813 0.0
C1937 C 0.63192 0.14674 0.63351 0.0
C1938 C 0.58228 0.13385 0.70863 0.0
C1939 C 0.58671 0.13795 0.76187 0.0
C1940 C 0.56253 0.12979 0.68906 0.0
C1941 C 0.55747 0.12655 0.63256 0.0
C1942 C 0.57096 0.14142 0.59581 0.0
C1943 C 0.56634 0.13811 0.54262 0.0
C1944 C 0.54816 0.12007 0.52568 0.0
C1945 C 0.53455 0.10532 0.56191 0.0
C1946 C 0.53912 0.10853 0.61516 0.0
C1947 C 0.52367 0.14738 0.87812 0.0
C1948 C 0.5044 0.12845 0.88358 0.0
C1949 C 0.53878 0.14889 0.84263 0.0
C1950 C 0.53495 0.13151 0.8119 0.0
C1951 C 0.51542 0.11287 0.81559 0.0
C1952 C 0.50029 0.11131 0.85125 0.0
C1953 C 0.55157 0.13254 0.77718 0.0
C1954 C 0.54737 0.12901 0.72372 0.0
C1955 C 0.57153 0.13715 0.79654 0.0
C1956 C 0.57658 0.14018 0.85298 0.0
C1957 C 0.56397 0.12448 0.88916 0.0
C1958 C 0.56866 0.12758 0.94234 0.0
C1959 C 0.58604 0.14624 0.9598 0.0
C1960 C 0.5988 0.16181 0.92406 0.0
C1961 C 0.59415 0.15881 0.87083 0.0
H1962 H 0.58964 0.14861 0.00099 0.0
H1963 H 0.54461 0.11754 0.48448 0.0
H1964 H 0.5063 0.59992 0.60557 0.0
H1965 H 0.48022 0.57558 0.66689 0.0
H1966 H 0.45868 0.61976 0.6946 0.0
H1967 H 0.48517 0.64459 0.63305 0.0
H1968 H 0.46088 0.6003 0.78501 0.0
H1969 H 0.43141 0.57938 0.61472 0.0
H1970 H 0.43074 0.57005 0.52216 0.0
H1971 H 0.43725 0.51704 0.56557 0.0
H1972 H 0.43833 0.52626 0.65841 0.0
H1973 H 0.36764 0.52385 0.90864 0.0
H1974 H 0.39127 0.55001 0.8461 0.0
H1975 H 0.41672 0.51007 0.80553 0.0
H1976 H 0.39285 0.48354 0.8677 0.0
H1977 H 0.4108 0.52845 0.72014 0.0
H1978 H 0.44263 0.55073 0.88949 0.0
H1979 H 0.44309 0.55973 0.98226 0.0
H1980 H 0.43186 0.60997 0.94041 0.0
H1981 H 0.43102 0.60105 0.84735 0.0
C1982 C 0.4961 0.60458 0.62473 0.0
C1983 C 0.49759 0.62408 0.61382 0.0
C1984 C 0.48117 0.5906 0.65976 0.0
C1985 C 0.46722 0.59566 0.68436 0.0
C1986 C 0.46922 0.6155 0.67559 0.0
C1987 C 0.48432 0.62965 0.64048 0.0
C1988 C 0.4503 0.57983 0.71809 0.0
C1989 C 0.44967 0.58472 0.77066 0.0
C1990 C 0.43596 0.55936 0.69945 0.0
C1991 C 0.43512 0.55363 0.64359 0.0
C1992 C 0.43286 0.56583 0.60455 0.0
C1993 C 0.43239 0.56054 0.55202 0.0
C1994 C 0.43397 0.54298 0.538 0.0
C1995 C 0.43603 0.53065 0.5765 0.0
C1996 C 0.43656 0.53589 0.62909 0.0
C1997 C 0.37817 0.52052 0.88631 0.0
C1998 C 0.37855 0.5017 0.89376 0.0
C1999 C 0.39172 0.53555 0.85065 0.0
C2000 C 0.40603 0.53217 0.82196 0.0
C2001 C 0.40589 0.51305 0.82763 0.0
C2002 C 0.39229 0.49794 0.8633 0.0
C2003 C 0.42154 0.54884 0.78715 0.0
C2004 C 0.42189 0.54409 0.73437 0.0
C2005 C 0.43561 0.56941 0.8056 0.0
C2006 C 0.43656 0.57509 0.86147 0.0
C2007 C 0.44014 0.56362 0.90008 0.0
C2008 C 0.44048 0.56871 0.95272 0.0
C2009 C 0.43746 0.58538 0.96723 0.0
C2010 C 0.43417 0.59704 0.92911 0.0
C2011 C 0.43378 0.59199 0.87641 0.0
H2012 H 0.43771 0.58928 0.008 0.0
H2013 H 0.43353 0.53888 0.49733 0.0
H2014 H 0.83991 0.47059 0.58323 0.0
H2015 H 0.83627 0.44196 0.63875 0.0
H2016 H 0.89993 0.48108 0.69369 0.0
H2017 H 0.90388 0.50976 0.6375 0.0
H2018 H 0.89269 0.44261 0.66721 0.0
H2019 H 0.85742 0.47101 0.76903 0.0
H2020 H 0.83136 0.48227 0.78505 0.0
H2021 H 0.78104 0.41955 0.75382 0.0
H2022 H 0.80683 0.40798 0.73688 0.0
H2023 H 0.89977 0.39884 0.89959 0.0
H2024 H 0.89648 0.42012 0.83221 0.0
H2025 H 0.83478 0.36895 0.79256 0.0
H2026 H 0.8378 0.34723 0.86142 0.0
H2027 H 0.83699 0.40844 0.80162 0.0
H2028 H 0.8739 0.37954 0.71226 0.0
H2029 H 0.90115 0.36938 0.70367 0.0
H2030 H 0.94957 0.43422 0.71601 0.0
H2031 H 0.92265 0.44476 0.72559 0.0
C2032 C 0.85312 0.47321 0.60739 0.0
C2033 C 0.87223 0.49248 0.6058 0.0
C2034 C 0.85097 0.4568 0.63918 0.0
C2035 C 0.8678 0.4594 0.67045 0.0
C2036 C 0.88677 0.47872 0.66965 0.0
C2037 C 0.88897 0.49513 0.63772 0.0
C2038 C 0.86582 0.44189 0.70335 0.0
C2039 C 0.88058 0.43521 0.69677 0.0
C2040 C 0.84958 0.43177 0.74072 0.0
C2041 C 0.83406 0.43869 0.75107 0.0
C2042 C 0.8408 0.45966 0.76514 0.0
C2043 C 0.82608 0.46609 0.77447 0.0
C2044 C 0.80456 0.45165 0.77029 0.0
C2045 C 0.79771 0.43073 0.75693 0.0
C2046 C 0.81238 0.42422 0.74749 0.0
C2047 C 0.88543 0.39195 0.87672 0.0
C2048 C 0.869 0.37129 0.88606 0.0
C2049 C 0.88366 0.40417 0.83793 0.0
C2050 C 0.86553 0.39602 0.807 0.0
C2051 C 0.84895 0.37545 0.816 0.0
C2052 C 0.85072 0.36307 0.85516 0.0
C2053 C 0.86418 0.40959 0.7663 0.0
C2054 C 0.84881 0.41553 0.77129 0.0
C2055 C 0.87996 0.41915 0.72767 0.0
C2056 C 0.89622 0.41294 0.71986 0.0
C2057 C 0.89036 0.39164 0.7133 0.0
C2058 C 0.90575 0.3858 0.70828 0.0
C2059 C 0.92707 0.40114 0.70942 0.0
C2060 C 0.93305 0.42235 0.71516 0.0
C2061 C 0.91772 0.42827 0.72028 0.0
H2062 H 0.93898 0.39661 0.7059 0.0
H2063 H 0.79318 0.45666 0.77753 0.0
loop_
_geom_bond_atom_site_label_1
_geom_bond_atom_site_label_2
_geom_bond_distance
_geom_bond_site_symmetry_2
_ccdc_geom_bond_type
Fe0 O2 1.918 . S
Fe0 O5 1.997 1_554 S
Fe0 O6 2.002 1_554 S
Fe0 O11 1.976 . S
Fe0 O14 1.996 . S
Fe1 O2 1.918 . S
Fe1 O9 1.997 1_554 S
Fe1 O12 1.996 . S
Fe1 O16 1.976 . S
Fe1 O19 2.002 1_554 S
O2 Fe0 1.918 . S
O2 Fe1 1.918 . S
O2 Fe3 1.918 . S
Fe3 O2 1.918 . S
Fe3 O4 2.002 1_554 S
Fe3 O13 1.976 . S
Fe3 O17 1.996 . S
Fe3 O20 1.997 1_554 S
O4 Fe3 2.002 1_556 S
O4 C21 1.295 . S
O5 Fe0 1.997 1_556 S
O5 C21 1.235 . S
O6 Fe0 2.002 1_556 S
O6 C7 1.295 . S
C7 O6 1.295 . S
C7 O9 1.235 . S
C8 O13 1.287 . S
C8 O14 1.255 . S
O9 Fe1 1.997 1_556 S
O9 C7 1.235 . S
C10 O16 1.287 . S
C10 O17 1.255 . S
O11 Fe0 1.976 . S
O11 C18 1.287 . S
O12 Fe1 1.996 . S
O12 C18 1.255 . S
O13 Fe3 1.976 . S
O13 C8 1.287 . S
O14 Fe0 1.996 . S
O14 C8 1.255 . S
C15 O19 1.295 . S
C15 O20 1.235 . S
O16 Fe1 1.976 . S
O16 C10 1.287 . S
O17 Fe3 1.996 . S
O17 C10 1.255 . S
C18 O11 1.287 . S
C18 O12 1.255 . S
O19 Fe1 2.002 1_556 S
O19 C15 1.295 . S
O20 Fe3 1.997 1_556 S
O20 C15 1.235 . S
C21 O4 1.295 . S
C21 O5 1.235 . S
Fe22 O24 1.918 . S
Fe22 O27 1.997 1_554 S
Fe22 O28 2.002 1_554 S
Fe22 O33 1.976 . S
Fe22 O36 1.996 . S
Fe23 O24 1.918 . S
Fe23 O31 1.997 1_554 S
Fe23 O34 1.996 . S
Fe23 O38 1.976 . S
Fe23 O41 2.002 1_554 S
O24 Fe22 1.918 . S
O24 Fe23 1.918 . S
O24 Fe25 1.918 . S
Fe25 O24 1.918 . S
Fe25 O26 2.002 1_554 S
Fe25 O35 1.976 . S
Fe25 O39 1.996 . S
Fe25 O42 1.997 1_554 S
O26 Fe25 2.002 1_556 S
O26 C43 1.295 . S
O27 Fe22 1.997 1_556 S
O27 C43 1.235 . S
O28 Fe22 2.002 1_556 S
O28 C29 1.295 . S
C29 O28 1.295 . S
C29 O31 1.235 . S
C30 O35 1.287 . S
C30 O36 1.255 . S
O31 Fe23 1.997 1_556 S
O31 C29 1.235 . S
C32 O38 1.287 . S
C32 O39 1.255 . S
O33 Fe22 1.976 . S
O33 C40 1.287 . S
O34 Fe23 1.996 . S
O34 C40 1.255 . S
O35 Fe25 1.976 . S
O35 C30 1.287 . S
O36 Fe22 1.996 . S
O36 C30 1.255 . S
C37 O41 1.295 . S
C37 O42 1.235 . S
O38 Fe23 1.976 . S
O38 C32 1.287 . S
O39 Fe25 1.996 . S
O39 C32 1.255 . S
C40 O33 1.287 . S
C40 O34 1.255 . S
O41 Fe23 2.002 1_556 S
O41 C37 1.295 . S
O42 Fe25 1.997 1_556 S
O42 C37 1.235 . S
C43 O26 1.295 . S
C43 O27 1.235 . S
Fe44 O46 1.918 . S
Fe44 O49 1.997 1_554 S
Fe44 O50 2.002 1_554 S
Fe44 O55 1.976 . S
Fe44 O58 1.996 . S
Fe45 O46 1.918 . S
Fe45 O53 1.997 1_554 S
Fe45 O56 1.996 . S
Fe45 O60 1.976 . S
Fe45 O63 2.002 1_554 S
O46 Fe44 1.918 . S
O46 Fe45 1.918 . S
O46 Fe47 1.918 . S
Fe47 O46 1.918 . S
Fe47 O48 2.002 1_554 S
Fe47 O57 1.976 . S
Fe47 O61 1.996 . S
Fe47 O64 1.997 1_554 S
O48 Fe47 2.002 1_556 S
O48 C65 1.295 . S
O49 Fe44 1.997 1_556 S
O49 C65 1.235 . S
O50 Fe44 2.002 1_556 S
O50 C51 1.295 . S
C51 O50 1.295 . S
C51 O53 1.235 . S
C52 O57 1.287 . S
C52 O58 1.255 . S
O53 Fe45 1.997 1_556 S
O53 C51 1.235 . S
C54 O60 1.287 . S
C54 O61 1.255 . S
O55 Fe44 1.976 . S
O55 C62 1.287 . S
O56 Fe45 1.996 . S
O56 C62 1.255 . S
O57 Fe47 1.976 . S
O57 C52 1.287 . S
O58 Fe44 1.996 . S
O58 C52 1.255 . S
C59 O63 1.295 . S
C59 O64 1.235 . S
O60 Fe45 1.976 . S
O60 C54 1.287 . S
O61 Fe47 1.996 . S
O61 C54 1.255 . S
C62 O55 1.287 . S
C62 O56 1.255 . S
O63 Fe45 2.002 1_556 S
O63 C59 1.295 . S
O64 Fe47 1.997 1_556 S
O64 C59 1.235 . S
C65 O48 1.295 . S
C65 O49 1.235 . S
Fe66 O68 1.918 . S
Fe66 O71 1.997 1_554 S
Fe66 O72 2.002 1_554 S
Fe66 O77 1.976 . S
Fe66 O80 1.996 . S
Fe67 O68 1.918 . S
Fe67 O75 1.997 1_554 S
Fe67 O78 1.996 . S
Fe67 O82 1.976 . S
Fe67 O85 2.002 1_554 S
O68 Fe66 1.918 . S
O68 Fe67 1.918 . S
O68 Fe69 1.918 . S
Fe69 O68 1.918 . S
Fe69 O70 2.002 1_554 S
Fe69 O79 1.976 . S
Fe69 O83 1.996 . S
Fe69 O86 1.997 1_554 S
O70 Fe69 2.002 1_556 S
O70 C87 1.295 . S
O71 Fe66 1.997 1_556 S
O71 C87 1.235 . S
O72 Fe66 2.002 1_556 S
O72 C73 1.295 . S
C73 O72 1.295 . S
C73 O75 1.235 . S
C74 O79 1.287 . S
C74 O80 1.255 . S
O75 Fe67 1.997 1_556 S
O75 C73 1.235 . S
C76 O82 1.287 . S
C76 O83 1.255 . S
O77 Fe66 1.976 . S
O77 C84 1.287 . S
O78 Fe67 1.996 . S
O78 C84 1.255 . S
O79 Fe69 1.976 . S
O79 C74 1.287 . S
O80 Fe66 1.996 . S
O80 C74 1.255 . S
C81 O85 1.295 . S
C81 O86 1.235 . S
O82 Fe67 1.976 . S
O82 C76 1.287 . S
O83 Fe69 1.996 . S
O83 C76 1.255 . S
C84 O77 1.287 . S
C84 O78 1.255 . S
O85 Fe67 2.002 1_556 S
O85 C81 1.295 . S
O86 Fe69 1.997 1_556 S
O86 C81 1.235 . S
C87 O70 1.295 . S
C87 O71 1.235 . S
Fe88 O90 1.918 . S
Fe88 O93 1.997 1_554 S
Fe88 O94 2.002 1_554 S
Fe88 O99 1.976 . S
Fe88 O102 1.996 . S
Fe89 O90 1.918 . S
Fe89 O97 1.997 1_554 S
Fe89 O100 1.996 . S
Fe89 O104 1.976 . S
Fe89 O107 2.002 1_554 S
O90 Fe88 1.918 . S
O90 Fe89 1.918 . S
O90 Fe91 1.918 . S
Fe91 O90 1.918 . S
Fe91 O92 2.002 1_554 S
Fe91 O101 1.976 . S
Fe91 O105 1.996 . S
Fe91 O108 1.997 1_554 S
O92 Fe91 2.002 1_556 S
O92 C109 1.295 . S
O93 Fe88 1.997 1_556 S
O93 C109 1.235 . S
O94 Fe88 2.002 1_556 S
O94 C95 1.295 . S
C95 O94 1.295 . S
C95 O97 1.235 . S
C96 O101 1.287 . S
C96 O102 1.255 . S
O97 Fe89 1.997 1_556 S
O97 C95 1.235 . S
C98 O104 1.287 . S
C98 O105 1.255 . S
O99 Fe88 1.976 . S
O99 C106 1.287 . S
O100 Fe89 1.996 . S
O100 C106 1.255 . S
O101 Fe91 1.976 . S
O101 C96 1.287 . S
O102 Fe88 1.996 . S
O102 C96 1.255 . S
C103 O107 1.295 . S
C103 O108 1.235 . S
O104 Fe89 1.976 . S
O104 C98 1.287 . S
O105 Fe91 1.996 . S
O105 C98 1.255 . S
C106 O99 1.287 . S
C106 O100 1.255 . S
O107 Fe89 2.002 1_556 S
O107 C103 1.295 . S
O108 Fe91 1.997 1_556 S
O108 C103 1.235 . S
C109 O92 1.295 . S
C109 O93 1.235 . S
Fe110 O112 1.918 . S
Fe110 O115 1.997 1_554 S
Fe110 O116 2.002 1_554 S
Fe110 O121 1.976 . S
Fe110 O124 1.996 . S
Fe111 O112 1.918 . S
Fe111 O119 1.997 1_554 S
Fe111 O122 1.996 . S
Fe111 O126 1.976 . S
Fe111 O129 2.002 1_554 S
O112 Fe110 1.918 . S
O112 Fe111 1.918 . S
O112 Fe113 1.918 . S
Fe113 O112 1.918 . S
Fe113 O114 2.002 1_554 S
Fe113 O123 1.976 . S
Fe113 O127 1.996 . S
Fe113 O130 1.997 1_554 S
O114 Fe113 2.002 1_556 S
O114 C131 1.295 . S
O115 Fe110 1.997 1_556 S
O115 C131 1.235 . S
O116 Fe110 2.002 1_556 S
O116 C117 1.295 . S
C117 O116 1.295 . S
C117 O119 1.235 . S
C118 O123 1.287 . S
C118 O124 1.255 . S
O119 Fe111 1.997 1_556 S
O119 C117 1.235 . S
C120 O126 1.287 . S
C120 O127 1.255 . S
O121 Fe110 1.976 . S
O121 C128 1.287 . S
O122 Fe111 1.996 . S
O122 C128 1.255 . S
O123 Fe113 1.976 . S
O123 C118 1.287 . S
O124 Fe110 1.996 . S
O124 C118 1.255 . S
C125 O129 1.295 . S
C125 O130 1.235 . S
O126 Fe111 1.976 . S
O126 C120 1.287 . S
O127 Fe113 1.996 . S
O127 C120 1.255 . S
C128 O121 1.287 . S
C128 O122 1.255 . S
O129 Fe111 2.002 1_556 S
O129 C125 1.295 . S
O130 Fe113 1.997 1_556 S
O130 C125 1.235 . S
C131 O114 1.295 . S
C131 O115 1.235 . S
Fe132 O134 1.918 . S
Fe132 O137 1.997 . S
Fe132 O138 2.002 . S
Fe132 O143 1.976 . S
Fe132 O146 1.996 . S
Fe133 O134 1.918 . S
Fe133 O141 1.997 . S
Fe133 O144 1.996 . S
Fe133 O148 1.976 . S
Fe133 O151 2.002 . S
O134 Fe132 1.918 . S
O134 Fe133 1.918 . S
O134 Fe135 1.918 . S
Fe135 O134 1.918 . S
Fe135 O136 2.002 . S
Fe135 O145 1.976 . S
Fe135 O149 1.996 . S
Fe135 O152 1.997 . S
O136 Fe135 2.002 . S
O136 C153 1.295 . S
O137 Fe132 1.997 . S
O137 C153 1.235 . S
O138 Fe132 2.002 . S
O138 C139 1.295 . S
C139 O138 1.295 . S
C139 O141 1.235 . S
C140 O145 1.287 . S
C140 O146 1.255 . S
O141 Fe133 1.997 . S
O141 C139 1.235 . S
C142 O148 1.287 . S
C142 O149 1.255 . S
O143 Fe132 1.976 . S
O143 C150 1.287 . S
O144 Fe133 1.996 . S
O144 C150 1.255 . S
O145 Fe135 1.976 . S
O145 C140 1.287 . S
O146 Fe132 1.996 . S
O146 C140 1.255 . S
C147 O151 1.295 . S
C147 O152 1.235 . S
O148 Fe133 1.976 . S
O148 C142 1.287 . S
O149 Fe135 1.996 . S
O149 C142 1.255 . S
C150 O143 1.287 . S
C150 O144 1.255 . S
O151 Fe133 2.002 . S
O151 C147 1.295 . S
O152 Fe135 1.997 . S
O152 C147 1.235 . S
C153 O136 1.295 . S
C153 O137 1.235 . S
Fe154 O156 1.918 . S
Fe154 O159 1.997 . S
Fe154 O160 2.002 . S
Fe154 O165 1.976 . S
Fe154 O168 1.996 . S
Fe155 O156 1.918 . S
Fe155 O163 1.997 . S
Fe155 O166 1.996 . S
Fe155 O170 1.976 . S
Fe155 O173 2.002 . S
O156 Fe154 1.918 . S
O156 Fe155 1.918 . S
O156 Fe157 1.918 . S
Fe157 O156 1.918 . S
Fe157 O158 2.002 . S
Fe157 O167 1.976 . S
Fe157 O171 1.996 . S
Fe157 O174 1.997 . S
O158 Fe157 2.002 . S
O158 C175 1.295 . S
O159 Fe154 1.997 . S
O159 C175 1.235 . S
O160 Fe154 2.002 . S
O160 C161 1.295 . S
C161 O160 1.295 . S
C161 O163 1.235 . S
C162 O167 1.287 . S
C162 O168 1.255 . S
O163 Fe155 1.997 . S
O163 C161 1.235 . S
C164 O170 1.287 . S
C164 O171 1.255 . S
O165 Fe154 1.976 . S
O165 C172 1.287 . S
O166 Fe155 1.996 . S
O166 C172 1.255 . S
O167 Fe157 1.976 . S
O167 C162 1.287 . S
O168 Fe154 1.996 . S
O168 C162 1.255 . S
C169 O173 1.295 . S
C169 O174 1.235 . S
O170 Fe155 1.976 . S
O170 C164 1.287 . S
O171 Fe157 1.996 . S
O171 C164 1.255 . S
C172 O165 1.287 . S
C172 O166 1.255 . S
O173 Fe155 2.002 . S
O173 C169 1.295 . S
O174 Fe157 1.997 . S
O174 C169 1.235 . S
C175 O158 1.295 . S
C175 O159 1.235 . S
Fe176 O178 1.918 . S
Fe176 O181 1.997 . S
Fe176 O182 2.002 . S
Fe176 O187 1.976 . S
Fe176 O190 1.996 . S
Fe177 O178 1.918 . S
Fe177 O185 1.997 . S
Fe177 O188 1.996 . S
Fe177 O192 1.976 . S
Fe177 O195 2.002 . S
O178 Fe176 1.918 . S
O178 Fe177 1.918 . S
O178 Fe179 1.918 . S
Fe179 O178 1.918 . S
Fe179 O180 2.002 . S
Fe179 O189 1.976 . S
Fe179 O193 1.996 . S
Fe179 O196 1.997 . S
O180 Fe179 2.002 . S
O180 C197 1.295 . S
O181 Fe176 1.997 . S
O181 C197 1.235 . S
O182 Fe176 2.002 . S
O182 C183 1.295 . S
C183 O182 1.295 . S
C183 O185 1.235 . S
C184 O189 1.287 . S
C184 O190 1.255 . S
O185 Fe177 1.997 . S
O185 C183 1.235 . S
C186 O192 1.287 . S
C186 O193 1.255 . S
O187 Fe176 1.976 . S
O187 C194 1.287 . S
O188 Fe177 1.996 . S
O188 C194 1.255 . S
O189 Fe179 1.976 . S
O189 C184 1.287 . S
O190 Fe176 1.996 . S
O190 C184 1.255 . S
C191 O195 1.295 . S
C191 O196 1.235 . S
O192 Fe177 1.976 . S
O192 C186 1.287 . S
O193 Fe179 1.996 . S
O193 C186 1.255 . S
C194 O187 1.287 . S
C194 O188 1.255 . S
O195 Fe177 2.002 . S
O195 C191 1.295 . S
O196 Fe179 1.997 . S
O196 C191 1.235 . S
C197 O180 1.295 . S
C197 O181 1.235 . S
Fe198 O200 1.918 . S
Fe198 O203 1.997 . S
Fe198 O204 2.002 . S
Fe198 O209 1.976 . S
Fe198 O212 1.996 . S
Fe199 O200 1.918 . S
Fe199 O207 1.997 . S
Fe199 O210 1.996 . S
Fe199 O214 1.976 . S
Fe199 O217 2.002 . S
O200 Fe198 1.918 . S
O200 Fe199 1.918 . S
O200 Fe201 1.918 . S
Fe201 O200 1.918 . S
Fe201 O202 2.002 . S
Fe201 O211 1.976 . S
Fe201 O215 1.996 . S
Fe201 O218 1.997 . S
O202 Fe201 2.002 . S
O202 C219 1.295 . S
O203 Fe198 1.997 . S
O203 C219 1.235 . S
O204 Fe198 2.002 . S
O204 C205 1.295 . S
C205 O204 1.295 . S
C205 O207 1.235 . S
C206 O211 1.287 . S
C206 O212 1.255 . S
O207 Fe199 1.997 . S
O207 C205 1.235 . S
C208 O214 1.287 . S
C208 O215 1.255 . S
O209 Fe198 1.976 . S
O209 C216 1.287 . S
O210 Fe199 1.996 . S
O210 C216 1.255 . S
O211 Fe201 1.976 . S
O211 C206 1.287 . S
O212 Fe198 1.996 . S
O212 C206 1.255 . S
C213 O217 1.295 . S
C213 O218 1.235 . S
O214 Fe199 1.976 . S
O214 C208 1.287 . S
O215 Fe201 1.996 . S
O215 C208 1.255 . S
C216 O209 1.287 . S
C216 O210 1.255 . S
O217 Fe199 2.002 . S
O217 C213 1.295 . S
O218 Fe201 1.997 . S
O218 C213 1.235 . S
C219 O202 1.295 . S
C219 O203 1.235 . S
Fe220 O222 1.918 . S
Fe220 O225 1.997 . S
Fe220 O226 2.002 . S
Fe220 O231 1.976 . S
Fe220 O234 1.996 . S
Fe221 O222 1.918 . S
Fe221 O229 1.997 . S
Fe221 O232 1.996 . S
Fe221 O236 1.976 . S
Fe221 O239 2.002 . S
O222 Fe220 1.918 . S
O222 Fe221 1.918 . S
O222 Fe223 1.918 . S
Fe223 O222 1.918 . S
Fe223 O224 2.002 . S
Fe223 O233 1.976 . S
Fe223 O237 1.996 . S
Fe223 O240 1.997 . S
O224 Fe223 2.002 . S
O224 C241 1.295 . S
O225 Fe220 1.997 . S
O225 C241 1.235 . S
O226 Fe220 2.002 . S
O226 C227 1.295 . S
C227 O226 1.295 . S
C227 O229 1.235 . S
C228 O233 1.287 . S
C228 O234 1.255 . S
O229 Fe221 1.997 . S
O229 C227 1.235 . S
C230 O236 1.287 . S
C230 O237 1.255 . S
O231 Fe220 1.976 . S
O231 C238 1.287 . S
O232 Fe221 1.996 . S
O232 C238 1.255 . S
O233 Fe223 1.976 . S
O233 C228 1.287 . S
O234 Fe220 1.996 . S
O234 C228 1.255 . S
C235 O239 1.295 . S
C235 O240 1.235 . S
O236 Fe221 1.976 . S
O236 C230 1.287 . S
O237 Fe223 1.996 . S
O237 C230 1.255 . S
C238 O231 1.287 . S
C238 O232 1.255 . S
O239 Fe221 2.002 . S
O239 C235 1.295 . S
O240 Fe223 1.997 . S
O240 C235 1.235 . S
C241 O224 1.295 . S
C241 O225 1.235 . S
Fe242 O244 1.918 . S
Fe242 O247 1.997 . S
Fe242 O248 2.002 . S
Fe242 O253 1.976 . S
Fe242 O256 1.996 . S
Fe243 O244 1.918 . S
Fe243 O251 1.997 . S
Fe243 O254 1.996 . S
Fe243 O258 1.976 . S
Fe243 O261 2.002 . S
O244 Fe242 1.918 . S
O244 Fe243 1.918 . S
O244 Fe245 1.918 . S
Fe245 O244 1.918 . S
Fe245 O246 2.002 . S
Fe245 O255 1.976 . S
Fe245 O259 1.996 . S
Fe245 O262 1.997 . S
O246 Fe245 2.002 . S
O246 C263 1.295 . S
O247 Fe242 1.997 . S
O247 C263 1.235 . S
O248 Fe242 2.002 . S
O248 C249 1.295 . S
C249 O248 1.295 . S
C249 O251 1.235 . S
C250 O255 1.287 . S
C250 O256 1.255 . S
O251 Fe243 1.997 . S
O251 C249 1.235 . S
C252 O258 1.287 . S
C252 O259 1.255 . S
O253 Fe242 1.976 . S
O253 C260 1.287 . S
O254 Fe243 1.996 . S
O254 C260 1.255 . S
O255 Fe245 1.976 . S
O255 C250 1.287 . S
O256 Fe242 1.996 . S
O256 C250 1.255 . S
C257 O261 1.295 . S
C257 O262 1.235 . S
O258 Fe243 1.976 . S
O258 C252 1.287 . S
O259 Fe245 1.996 . S
O259 C252 1.255 . S
C260 O253 1.287 . S
C260 O254 1.255 . S
O261 Fe243 2.002 . S
O261 C257 1.295 . S
O262 Fe245 1.997 . S
O262 C257 1.235 . S
C263 O246 1.295 . S
C263 O247 1.235 . S
H264 C282 0.951 . S
H265 C284 0.951 . S
H266 C286 0.950 . S
H267 C287 0.950 . S
H268 C289 0.950 . S
H269 C292 0.950 . S
H270 C293 0.950 . S
H271 C295 0.950 . S
H272 C296 0.950 . S
H273 C297 0.951 . S
H274 C299 0.951 . S
H275 C301 0.950 . S
H276 C302 0.950 . S
H277 C304 0.950 . S
H278 C307 0.950 . S
H279 C308 0.950 . S
H280 C310 0.950 . S
H281 C311 0.950 . S
C282 H264 0.951 . S
C282 C283 1.366 . S
C282 C284 1.388 . S
C283 C282 1.366 . S
C283 C287 1.385 . S
C284 H265 0.951 . S
C284 C282 1.388 . S
C284 C285 1.366 . S
C285 C284 1.366 . S
C285 C286 1.414 . S
C285 C288 1.499 . S
C286 H266 0.950 . S
C286 C285 1.414 . S
C286 C287 1.374 . S
C287 H267 0.950 . S
C287 C283 1.385 . S
C287 C286 1.374 . S
C288 C285 1.499 . S
C288 C289 1.373 . S
C288 C290 1.389 . S
C289 H268 0.950 . S
C289 C288 1.373 . S
C289 C305 1.377 . S
C290 C288 1.389 . S
C290 C291 1.524 . S
C290 C304 1.377 . S
C291 C290 1.524 . S
C291 C292 1.397 . S
C291 C296 1.363 . S
C292 H269 0.950 . S
C292 C291 1.397 . S
C292 C293 1.334 . S
C293 H270 0.950 . S
C293 C292 1.334 . S
C293 C294 1.287 . S
C294 C293 1.287 . S
C294 C295 1.524 . S
C294 H313 0.913 . S
C295 H271 0.950 . S
C295 C294 1.524 . S
C295 C296 1.415 . S
C296 H272 0.950 . S
C296 C291 1.363 . S
C296 C295 1.415 . S
C297 H273 0.951 . S
C297 C298 1.366 . S
C297 C299 1.388 . S
C298 C297 1.366 . S
C298 C302 1.385 . S
C299 H274 0.951 . S
C299 C297 1.388 . S
C299 C300 1.366 . S
C300 C299 1.366 . S
C300 C301 1.414 . S
C300 C303 1.499 . S
C301 H275 0.950 . S
C301 C300 1.414 . S
C301 C302 1.374 . S
C302 H276 0.950 . S
C302 C298 1.385 . S
C302 C301 1.374 . S
C303 C300 1.499 . S
C303 C304 1.373 . S
C303 C305 1.389 . S
C304 H277 0.950 . S
C304 C290 1.377 . S
C304 C303 1.373 . S
C305 C289 1.377 . S
C305 C303 1.389 . S
C305 C306 1.524 . S
C306 C305 1.524 . S
C306 C307 1.397 . S
C306 C311 1.363 . S
C307 H278 0.950 . S
C307 C306 1.397 . S
C307 C308 1.334 . S
C308 H279 0.950 . S
C308 C307 1.334 . S
C308 C309 1.287 . S
C309 C308 1.287 . S
C309 C310 1.524 . S
C309 H312 0.999 . S
C310 H280 0.950 . S
C310 C309 1.524 . S
C310 C311 1.415 . S
C311 H281 0.950 . S
C311 C306 1.363 . S
C311 C310 1.415 . S
H312 C309 0.999 . S
H313 C294 0.913 . S
H314 C332 0.951 . S
H315 C334 0.951 . S
H316 C336 0.950 . S
H317 C337 0.950 . S
H318 C339 0.950 . S
H319 C342 0.950 . S
H320 C343 0.950 . S
H321 C345 0.950 . S
H322 C346 0.950 . S
H323 C347 0.951 . S
H324 C349 0.951 . S
H325 C351 0.950 . S
H326 C352 0.950 . S
H327 C354 0.950 . S
H328 C357 0.950 . S
H329 C358 0.950 . S
H330 C360 0.950 . S
H331 C361 0.950 . S
C332 H314 0.951 . S
C332 C333 1.366 . S
C332 C334 1.388 . S
C333 C332 1.366 . S
C333 C337 1.385 . S
C334 H315 0.951 . S
C334 C332 1.388 . S
C334 C335 1.366 . S
C335 C334 1.366 . S
C335 C336 1.414 . S
C335 C338 1.499 . S
C336 H316 0.950 . S
C336 C335 1.414 . S
C336 C337 1.374 . S
C337 H317 0.950 . S
C337 C333 1.385 . S
C337 C336 1.374 . S
C338 C335 1.499 . S
C338 C339 1.373 . S
C338 C340 1.389 . S
C339 H318 0.950 . S
C339 C338 1.373 . S
C339 C355 1.377 . S
C340 C338 1.389 . S
C340 C341 1.524 . S
C340 C354 1.377 . S
C341 C340 1.524 . S
C341 C342 1.397 . S
C341 C346 1.363 . S
C342 H319 0.950 . S
C342 C341 1.397 . S
C342 C343 1.334 . S
C343 H320 0.950 . S
C343 C342 1.334 . S
C343 C344 1.287 . S
C344 C343 1.287 . S
C344 C345 1.524 . S
C344 H363 0.913 . S
C345 H321 0.950 . S
C345 C344 1.524 . S
C345 C346 1.415 . S
C346 H322 0.950 . S
C346 C341 1.363 . S
C346 C345 1.415 . S
C347 H323 0.951 . S
C347 C348 1.366 . S
C347 C349 1.388 . S
C348 C347 1.366 . S
C348 C352 1.385 . S
C349 H324 0.951 . S
C349 C347 1.388 . S
C349 C350 1.366 . S
C350 C349 1.366 . S
C350 C351 1.414 . S
C350 C353 1.499 . S
C351 H325 0.950 . S
C351 C350 1.414 . S
C351 C352 1.374 . S
C352 H326 0.950 . S
C352 C348 1.385 . S
C352 C351 1.374 . S
C353 C350 1.499 . S
C353 C354 1.373 . S
C353 C355 1.389 . S
C354 H327 0.950 . S
C354 C340 1.377 . S
C354 C353 1.373 . S
C355 C339 1.377 . S
C355 C353 1.389 . S
C355 C356 1.524 . S
C356 C355 1.524 . S
C356 C357 1.397 . S
C356 C361 1.363 . S
C357 H328 0.950 . S
C357 C356 1.397 . S
C357 C358 1.334 . S
C358 H329 0.950 . S
C358 C357 1.334 . S
C358 C359 1.287 . S
C359 C358 1.287 . S
C359 C360 1.524 . S
C359 H362 0.999 . S
C360 H330 0.950 . S
C360 C359 1.524 . S
C360 C361 1.415 . S
C361 H331 0.950 . S
C361 C356 1.363 . S
C361 C360 1.415 . S
H362 C359 0.999 . S
H363 C344 0.913 . S
H364 C382 0.951 . S
H365 C384 0.951 . S
H366 C386 0.950 . S
H367 C387 0.950 . S
H368 C389 0.950 . S
H369 C392 0.950 . S
H370 C393 0.950 . S
H371 C395 0.950 . S
H372 C396 0.950 . S
H373 C397 0.951 . S
H374 C399 0.951 . S
H375 C401 0.950 . S
H376 C402 0.950 . S
H377 C404 0.950 . S
H378 C407 0.950 . S
H379 C408 0.950 . S
H380 C410 0.950 . S
H381 C411 0.950 . S
C382 H364 0.951 . S
C382 C383 1.366 . S
C382 C384 1.388 . S
C383 C382 1.366 . S
C383 C387 1.385 . S
C384 H365 0.951 . S
C384 C382 1.388 . S
C384 C385 1.366 . S
C385 C384 1.366 . S
C385 C386 1.414 . S
C385 C388 1.499 . S
C386 H366 0.950 . S
C386 C385 1.414 . S
C386 C387 1.374 . S
C387 H367 0.950 . S
C387 C383 1.385 . S
C387 C386 1.374 . S
C388 C385 1.499 . S
C388 C389 1.373 . S
C388 C390 1.389 . S
C389 H368 0.950 . S
C389 C388 1.373 . S
C389 C405 1.377 . S
C390 C388 1.389 . S
C390 C391 1.524 . S
C390 C404 1.377 . S
C391 C390 1.524 . S
C391 C392 1.397 . S
C391 C396 1.363 . S
C392 H369 0.950 . S
C392 C391 1.397 . S
C392 C393 1.334 . S
C393 H370 0.950 . S
C393 C392 1.334 . S
C393 C394 1.287 . S
C394 C393 1.287 . S
C394 C395 1.524 . S
C394 H413 0.913 . S
C395 H371 0.950 . S
C395 C394 1.524 . S
C395 C396 1.415 . S
C396 H372 0.950 . S
C396 C391 1.363 . S
C396 C395 1.415 . S
C397 H373 0.951 . S
C397 C398 1.366 . S
C397 C399 1.388 . S
C398 C397 1.366 . S
C398 C402 1.385 . S
C399 H374 0.951 . S
C399 C397 1.388 . S
C399 C400 1.366 . S
C400 C399 1.366 . S
C400 C401 1.414 . S
C400 C403 1.499 . S
C401 H375 0.950 . S
C401 C400 1.414 . S
C401 C402 1.374 . S
C402 H376 0.950 . S
C402 C398 1.385 . S
C402 C401 1.374 . S
C403 C400 1.499 . S
C403 C404 1.373 . S
C403 C405 1.389 . S
C404 H377 0.950 . S
C404 C390 1.377 . S
C404 C403 1.373 . S
C405 C389 1.377 . S
C405 C403 1.389 . S
C405 C406 1.524 . S
C406 C405 1.524 . S
C406 C407 1.397 . S
C406 C411 1.363 . S
C407 H378 0.950 . S
C407 C406 1.397 . S
C407 C408 1.334 . S
C408 H379 0.950 . S
C408 C407 1.334 . S
C408 C409 1.287 . S
C409 C408 1.287 . S
C409 C410 1.524 . S
C409 H412 0.999 . S
C410 H380 0.950 . S
C410 C409 1.524 . S
C410 C411 1.415 . S
C411 H381 0.950 . S
C411 C406 1.363 . S
C411 C410 1.415 . S
H412 C409 0.999 . S
H413 C394 0.913 . S
H414 C432 0.951 . S
H415 C434 0.951 . S
H416 C436 0.950 . S
H417 C437 0.950 . S
H418 C439 0.950 . S
H419 C442 0.950 . S
H420 C443 0.950 . S
H421 C445 0.950 . S
H422 C446 0.950 . S
H423 C447 0.951 . S
H424 C449 0.951 . S
H425 C451 0.950 . S
H426 C452 0.950 . S
H427 C454 0.950 . S
H428 C457 0.950 . S
H429 C458 0.950 . S
H430 C460 0.950 . S
H431 C461 0.950 . S
C432 H414 0.951 . S
C432 C433 1.366 . S
C432 C434 1.388 . S
C433 C432 1.366 . S
C433 C437 1.385 . S
C434 H415 0.951 . S
C434 C432 1.388 . S
C434 C435 1.366 . S
C435 C434 1.366 . S
C435 C436 1.414 . S
C435 C438 1.499 . S
C436 H416 0.950 . S
C436 C435 1.414 . S
C436 C437 1.374 . S
C437 H417 0.950 . S
C437 C433 1.385 . S
C437 C436 1.374 . S
C438 C435 1.499 . S
C438 C439 1.373 . S
C438 C440 1.389 . S
C439 H418 0.950 . S
C439 C438 1.373 . S
C439 C455 1.377 . S
C440 C438 1.389 . S
C440 C441 1.524 . S
C440 C454 1.377 . S
C441 C440 1.524 . S
C441 C442 1.397 . S
C441 C446 1.363 . S
C442 H419 0.950 . S
C442 C441 1.397 . S
C442 C443 1.334 . S
C443 H420 0.950 . S
C443 C442 1.334 . S
C443 C444 1.287 . S
C444 C443 1.287 . S
C444 C445 1.524 . S
C444 H463 0.913 . S
C445 H421 0.950 . S
C445 C444 1.524 . S
C445 C446 1.415 . S
C446 H422 0.950 . S
C446 C441 1.363 . S
C446 C445 1.415 . S
C447 H423 0.951 . S
C447 C448 1.366 . S
C447 C449 1.388 . S
C448 C447 1.366 . S
C448 C452 1.385 . S
C449 H424 0.951 . S
C449 C447 1.388 . S
C449 C450 1.366 . S
C450 C449 1.366 . S
C450 C451 1.414 . S
C450 C453 1.499 . S
C451 H425 0.950 . S
C451 C450 1.414 . S
C451 C452 1.374 . S
C452 H426 0.950 . S
C452 C448 1.385 . S
C452 C451 1.374 . S
C453 C450 1.499 . S
C453 C454 1.373 . S
C453 C455 1.389 . S
C454 H427 0.950 . S
C454 C440 1.377 . S
C454 C453 1.373 . S
C455 C439 1.377 . S
C455 C453 1.389 . S
C455 C456 1.524 . S
C456 C455 1.524 . S
C456 C457 1.397 . S
C456 C461 1.363 . S
C457 H428 0.950 . S
C457 C456 1.397 . S
C457 C458 1.334 . S
C458 H429 0.950 . S
C458 C457 1.334 . S
C458 C459 1.287 . S
C459 C458 1.287 . S
C459 C460 1.524 . S
C459 H462 0.999 . S
C460 H430 0.950 . S
C460 C459 1.524 . S
C460 C461 1.415 . S
C461 H431 0.950 . S
C461 C456 1.363 . S
C461 C460 1.415 . S
H462 C459 0.999 . S
H463 C444 0.913 . S
H464 C482 0.951 . S
H465 C484 0.951 . S
H466 C486 0.950 . S
H467 C487 0.950 . S
H468 C489 0.950 . S
H469 C492 0.950 . S
H470 C493 0.950 . S
H471 C495 0.950 . S
H472 C496 0.950 . S
H473 C497 0.951 . S
H474 C499 0.951 . S
H475 C501 0.950 . S
H476 C502 0.950 . S
H477 C504 0.950 . S
H478 C507 0.950 . S
H479 C508 0.950 . S
H480 C510 0.950 . S
H481 C511 0.950 . S
C482 H464 0.951 . S
C482 C483 1.366 . S
C482 C484 1.388 . S
C483 C482 1.366 . S
C483 C487 1.385 . S
C484 H465 0.951 . S
C484 C482 1.388 . S
C484 C485 1.366 . S
C485 C484 1.366 . S
C485 C486 1.414 . S
C485 C488 1.499 . S
C486 H466 0.950 . S
C486 C485 1.414 . S
C486 C487 1.374 . S
C487 H467 0.950 . S
C487 C483 1.385 . S
C487 C486 1.374 . S
C488 C485 1.499 . S
C488 C489 1.373 . S
C488 C490 1.389 . S
C489 H468 0.950 . S
C489 C488 1.373 . S
C489 C505 1.377 . S
C490 C488 1.389 . S
C490 C491 1.524 . S
C490 C504 1.377 . S
C491 C490 1.524 . S
C491 C492 1.397 . S
C491 C496 1.363 . S
C492 H469 0.950 . S
C492 C491 1.397 . S
C492 C493 1.334 . S
C493 H470 0.950 . S
C493 C492 1.334 . S
C493 C494 1.287 . S
C494 C493 1.287 . S
C494 C495 1.524 . S
C494 H513 0.913 . S
C495 H471 0.950 . S
C495 C494 1.524 . S
C495 C496 1.415 . S
C496 H472 0.950 . S
C496 C491 1.363 . S
C496 C495 1.415 . S
C497 H473 0.951 . S
C497 C498 1.366 . S
C497 C499 1.388 . S
C498 C497 1.366 . S
C498 C502 1.385 . S
C499 H474 0.951 . S
C499 C497 1.388 . S
C499 C500 1.366 . S
C500 C499 1.366 . S
C500 C501 1.414 . S
C500 C503 1.499 . S
C501 H475 0.950 . S
C501 C500 1.414 . S
C501 C502 1.374 . S
C502 H476 0.950 . S
C502 C498 1.385 . S
C502 C501 1.374 . S
C503 C500 1.499 . S
C503 C504 1.373 . S
C503 C505 1.389 . S
C504 H477 0.950 . S
C504 C490 1.377 . S
C504 C503 1.373 . S
C505 C489 1.377 . S
C505 C503 1.389 . S
C505 C506 1.524 . S
C506 C505 1.524 . S
C506 C507 1.397 . S
C506 C511 1.363 . S
C507 H478 0.950 . S
C507 C506 1.397 . S
C507 C508 1.334 . S
C508 H479 0.950 . S
C508 C507 1.334 . S
C508 C509 1.287 . S
C509 C508 1.287 . S
C509 C510 1.524 . S
C509 H512 0.999 . S
C510 H480 0.950 . S
C510 C509 1.524 . S
C510 C511 1.415 . S
C511 H481 0.950 . S
C511 C506 1.363 . S
C511 C510 1.415 . S
H512 C509 0.999 . S
H513 C494 0.913 . S
H514 C532 0.951 . S
H515 C534 0.951 . S
H516 C536 0.950 . S
H517 C537 0.950 . S
H518 C539 0.950 . S
H519 C542 0.950 . S
H520 C543 0.950 . S
H521 C545 0.950 . S
H522 C546 0.950 . S
H523 C547 0.951 . S
H524 C549 0.951 . S
H525 C551 0.950 . S
H526 C552 0.950 . S
H527 C554 0.950 . S
H528 C557 0.950 . S
H529 C558 0.950 . S
H530 C560 0.950 . S
H531 C561 0.950 . S
C532 H514 0.951 . S
C532 C533 1.366 . S
C532 C534 1.388 . S
C533 C532 1.366 . S
C533 C537 1.385 . S
C534 H515 0.951 . S
C534 C532 1.388 . S
C534 C535 1.366 . S
C535 C534 1.366 . S
C535 C536 1.414 . S
C535 C538 1.499 . S
C536 H516 0.950 . S
C536 C535 1.414 . S
C536 C537 1.374 . S
C537 H517 0.950 . S
C537 C533 1.385 . S
C537 C536 1.374 . S
C538 C535 1.499 . S
C538 C539 1.373 . S
C538 C540 1.389 . S
C539 H518 0.950 . S
C539 C538 1.373 . S
C539 C555 1.377 . S
C540 C538 1.389 . S
C540 C541 1.524 . S
C540 C554 1.377 . S
C541 C540 1.524 . S
C541 C542 1.397 . S
C541 C546 1.363 . S
C542 H519 0.950 . S
C542 C541 1.397 . S
C542 C543 1.334 . S
C543 H520 0.950 . S
C543 C542 1.334 . S
C543 C544 1.287 . S
C544 C543 1.287 . S
C544 C545 1.524 . S
C544 H563 0.913 . S
C545 H521 0.950 . S
C545 C544 1.524 . S
C545 C546 1.415 . S
C546 H522 0.950 . S
C546 C541 1.363 . S
C546 C545 1.415 . S
C547 H523 0.951 . S
C547 C548 1.366 . S
C547 C549 1.388 . S
C548 C547 1.366 . S
C548 C552 1.385 . S
C549 H524 0.951 . S
C549 C547 1.388 . S
C549 C550 1.366 . S
C550 C549 1.366 . S
C550 C551 1.414 . S
C550 C553 1.499 . S
C551 H525 0.950 . S
C551 C550 1.414 . S
C551 C552 1.374 . S
C552 H526 0.950 . S
C552 C548 1.385 . S
C552 C551 1.374 . S
C553 C550 1.499 . S
C553 C554 1.373 . S
C553 C555 1.389 . S
C554 H527 0.950 . S
C554 C540 1.377 . S
C554 C553 1.373 . S
C555 C539 1.377 . S
C555 C553 1.389 . S
C555 C556 1.524 . S
C556 C555 1.524 . S
C556 C557 1.397 . S
C556 C561 1.363 . S
C557 H528 0.950 . S
C557 C556 1.397 . S
C557 C558 1.334 . S
C558 H529 0.950 . S
C558 C557 1.334 . S
C558 C559 1.287 . S
C559 C558 1.287 . S
C559 C560 1.524 . S
C559 H562 0.999 . S
C560 H530 0.950 . S
C560 C559 1.524 . S
C560 C561 1.415 . S
C561 H531 0.950 . S
C561 C556 1.363 . S
C561 C560 1.415 . S
H562 C559 0.999 . S
H563 C544 0.913 . S
H564 C582 0.951 . S
H565 C584 0.951 . S
H566 C586 0.950 . S
H567 C587 0.950 . S
H568 C589 0.950 . S
H569 C592 0.950 . S
H570 C593 0.950 . S
H571 C595 0.950 . S
H572 C596 0.950 . S
H573 C597 0.951 . S
H574 C599 0.951 . S
H575 C601 0.950 . S
H576 C602 0.950 . S
H577 C604 0.950 . S
H578 C607 0.950 . S
H579 C608 0.950 . S
H580 C610 0.950 . S
H581 C611 0.950 . S
C582 H564 0.951 . S
C582 C583 1.366 . S
C582 C584 1.388 . S
C583 C582 1.366 . S
C583 C587 1.385 . S
C584 H565 0.951 . S
C584 C582 1.388 . S
C584 C585 1.366 . S
C585 C584 1.366 . S
C585 C586 1.414 . S
C585 C588 1.499 . S
C586 H566 0.950 . S
C586 C585 1.414 . S
C586 C587 1.374 . S
C587 H567 0.950 . S
C587 C583 1.385 . S
C587 C586 1.374 . S
C588 C585 1.499 . S
C588 C589 1.373 . S
C588 C590 1.389 . S
C589 H568 0.950 . S
C589 C588 1.373 . S
C589 C605 1.377 . S
C590 C588 1.389 . S
C590 C591 1.524 . S
C590 C604 1.377 . S
C591 C590 1.524 . S
C591 C592 1.397 . S
C591 C596 1.363 . S
C592 H569 0.950 . S
C592 C591 1.397 . S
C592 C593 1.334 . S
C593 H570 0.950 . S
C593 C592 1.334 . S
C593 C594 1.287 . S
C594 C593 1.287 . S
C594 C595 1.524 . S
C594 H613 0.913 . S
C595 H571 0.950 . S
C595 C594 1.524 . S
C595 C596 1.415 . S
C596 H572 0.950 . S
C596 C591 1.363 . S
C596 C595 1.415 . S
C597 H573 0.951 . S
C597 C598 1.366 . S
C597 C599 1.388 . S
C598 C597 1.366 . S
C598 C602 1.385 . S
C599 H574 0.951 . S
C599 C597 1.388 . S
C599 C600 1.366 . S
C600 C599 1.366 . S
C600 C601 1.414 . S
C600 C603 1.499 . S
C601 H575 0.950 . S
C601 C600 1.414 . S
C601 C602 1.374 . S
C602 H576 0.950 . S
C602 C598 1.385 . S
C602 C601 1.374 . S
C603 C600 1.499 . S
C603 C604 1.373 . S
C603 C605 1.389 . S
C604 H577 0.950 . S
C604 C590 1.377 . S
C604 C603 1.373 . S
C605 C589 1.377 . S
C605 C603 1.389 . S
C605 C606 1.524 . S
C606 C605 1.524 . S
C606 C607 1.397 . S
C606 C611 1.363 . S
C607 H578 0.950 . S
C607 C606 1.397 . S
C607 C608 1.334 . S
C608 H579 0.950 . S
C608 C607 1.334 . S
C608 C609 1.287 . S
C609 C608 1.287 . S
C609 C610 1.524 . S
C609 H612 0.999 . S
C610 H580 0.950 . S
C610 C609 1.524 . S
C610 C611 1.415 . S
C611 H581 0.950 . S
C611 C606 1.363 . S
C611 C610 1.415 . S
H612 C609 0.999 . S
H613 C594 0.913 . S
H614 C632 0.951 . S
H615 C634 0.951 . S
H616 C636 0.950 . S
H617 C637 0.950 . S
H618 C639 0.950 . S
H619 C642 0.950 . S
H620 C643 0.950 . S
H621 C645 0.950 . S
H622 C646 0.950 . S
H623 C647 0.951 . S
H624 C649 0.951 . S
H625 C651 0.950 . S
H626 C652 0.950 . S
H627 C654 0.950 . S
H628 C657 0.950 . S
H629 C658 0.950 . S
H630 C660 0.950 . S
H631 C661 0.950 . S
C632 H614 0.951 . S
C632 C633 1.366 . S
C632 C634 1.388 . S
C633 C632 1.366 . S
C633 C637 1.385 . S
C634 H615 0.951 . S
C634 C632 1.388 . S
C634 C635 1.366 . S
C635 C634 1.366 . S
C635 C636 1.414 . S
C635 C638 1.499 . S
C636 H616 0.950 . S
C636 C635 1.414 . S
C636 C637 1.374 . S
C637 H617 0.950 . S
C637 C633 1.385 . S
C637 C636 1.374 . S
C638 C635 1.499 . S
C638 C639 1.373 . S
C638 C640 1.389 . S
C639 H618 0.950 . S
C639 C638 1.373 . S
C639 C655 1.377 . S
C640 C638 1.389 . S
C640 C641 1.524 . S
C640 C654 1.377 . S
C641 C640 1.524 . S
C641 C642 1.397 . S
C641 C646 1.363 . S
C642 H619 0.950 . S
C642 C641 1.397 . S
C642 C643 1.334 . S
C643 H620 0.950 . S
C643 C642 1.334 . S
C643 C644 1.287 . S
C644 C643 1.287 . S
C644 C645 1.524 . S
C644 H663 0.913 . S
C645 H621 0.950 . S
C645 C644 1.524 . S
C645 C646 1.415 . S
C646 H622 0.950 . S
C646 C641 1.363 . S
C646 C645 1.415 . S
C647 H623 0.951 . S
C647 C648 1.366 . S
C647 C649 1.388 . S
C648 C647 1.366 . S
C648 C652 1.385 . S
C649 H624 0.951 . S
C649 C647 1.388 . S
C649 C650 1.366 . S
C650 C649 1.366 . S
C650 C651 1.414 . S
C650 C653 1.499 . S
C651 H625 0.950 . S
C651 C650 1.414 . S
C651 C652 1.374 . S
C652 H626 0.950 . S
C652 C648 1.385 . S
C652 C651 1.374 . S
C653 C650 1.499 . S
C653 C654 1.373 . S
C653 C655 1.389 . S
C654 H627 0.950 . S
C654 C640 1.377 . S
C654 C653 1.373 . S
C655 C639 1.377 . S
C655 C653 1.389 . S
C655 C656 1.524 . S
C656 C655 1.524 . S
C656 C657 1.397 . S
C656 C661 1.363 . S
C657 H628 0.950 . S
C657 C656 1.397 . S
C657 C658 1.334 . S
C658 H629 0.950 . S
C658 C657 1.334 . S
C658 C659 1.287 . S
C659 C658 1.287 . S
C659 C660 1.524 . S
C659 H662 0.999 . S
C660 H630 0.950 . S
C660 C659 1.524 . S
C660 C661 1.415 . S
C661 H631 0.950 . S
C661 C656 1.363 . S
C661 C660 1.415 . S
H662 C659 0.999 . S
H663 C644 0.913 . S
H664 C682 0.951 . S
H665 C684 0.951 . S
H666 C686 0.950 . S
H667 C687 0.950 . S
H668 C689 0.950 . S
H669 C692 0.950 . S
H670 C693 0.950 . S
H671 C695 0.950 . S
H672 C696 0.950 . S
H673 C697 0.951 . S
H674 C699 0.951 . S
H675 C701 0.950 . S
H676 C702 0.950 . S
H677 C704 0.950 . S
H678 C707 0.950 . S
H679 C708 0.950 . S
H680 C710 0.950 . S
H681 C711 0.950 . S
C682 H664 0.951 . S
C682 C683 1.366 . S
C682 C684 1.388 . S
C683 C682 1.366 . S
C683 C687 1.385 . S
C684 H665 0.951 . S
C684 C682 1.388 . S
C684 C685 1.366 . S
C685 C684 1.366 . S
C685 C686 1.414 . S
C685 C688 1.499 . S
C686 H666 0.950 . S
C686 C685 1.414 . S
C686 C687 1.374 . S
C687 H667 0.950 . S
C687 C683 1.385 . S
C687 C686 1.374 . S
C688 C685 1.499 . S
C688 C689 1.373 . S
C688 C690 1.389 . S
C689 H668 0.950 . S
C689 C688 1.373 . S
C689 C705 1.377 . S
C690 C688 1.389 . S
C690 C691 1.524 . S
C690 C704 1.377 . S
C691 C690 1.524 . S
C691 C692 1.397 . S
C691 C696 1.363 . S
C692 H669 0.950 . S
C692 C691 1.397 . S
C692 C693 1.334 . S
C693 H670 0.950 . S
C693 C692 1.334 . S
C693 C694 1.287 . S
C694 C693 1.287 . S
C694 C695 1.524 . S
C694 H713 0.913 . S
C695 H671 0.950 . S
C695 C694 1.524 . S
C695 C696 1.415 . S
C696 H672 0.950 . S
C696 C691 1.363 . S
C696 C695 1.415 . S
C697 H673 0.951 . S
C697 C698 1.366 . S
C697 C699 1.388 . S
C698 C697 1.366 . S
C698 C702 1.385 . S
C699 H674 0.951 . S
C699 C697 1.388 . S
C699 C700 1.366 . S
C700 C699 1.366 . S
C700 C701 1.414 . S
C700 C703 1.499 . S
C701 H675 0.950 . S
C701 C700 1.414 . S
C701 C702 1.374 . S
C702 H676 0.950 . S
C702 C698 1.385 . S
C702 C701 1.374 . S
C703 C700 1.499 . S
C703 C704 1.373 . S
C703 C705 1.389 . S
C704 H677 0.950 . S
C704 C690 1.377 . S
C704 C703 1.373 . S
C705 C689 1.377 . S
C705 C703 1.389 . S
C705 C706 1.524 . S
C706 C705 1.524 . S
C706 C707 1.397 . S
C706 C711 1.363 . S
C707 H678 0.950 . S
C707 C706 1.397 . S
C707 C708 1.334 . S
C708 H679 0.950 . S
C708 C707 1.334 . S
C708 C709 1.287 . S
C709 C708 1.287 . S
C709 C710 1.524 . S
C709 H712 0.999 . S
C710 H680 0.950 . S
C710 C709 1.524 . S
C710 C711 1.415 . S
C711 H681 0.950 . S
C711 C706 1.363 . S
C711 C710 1.415 . S
H712 C709 0.999 . S
H713 C694 0.913 . S
H714 C732 0.951 . S
H715 C734 0.951 . S
H716 C736 0.950 . S
H717 C737 0.950 . S
H718 C739 0.950 . S
H719 C742 0.950 . S
H720 C743 0.950 . S
H721 C745 0.950 . S
H722 C746 0.950 . S
H723 C747 0.951 . S
H724 C749 0.951 . S
H725 C751 0.950 . S
H726 C752 0.950 . S
H727 C754 0.950 . S
H728 C757 0.950 . S
H729 C758 0.950 . S
H730 C760 0.950 . S
H731 C761 0.950 . S
C732 H714 0.951 . S
C732 C733 1.366 . S
C732 C734 1.388 . S
C733 C732 1.366 . S
C733 C737 1.385 . S
C734 H715 0.951 . S
C734 C732 1.388 . S
C734 C735 1.366 . S
C735 C734 1.366 . S
C735 C736 1.414 . S
C735 C738 1.499 . S
C736 H716 0.950 . S
C736 C735 1.414 . S
C736 C737 1.374 . S
C737 H717 0.950 . S
C737 C733 1.385 . S
C737 C736 1.374 . S
C738 C735 1.499 . S
C738 C739 1.373 . S
C738 C740 1.389 . S
C739 H718 0.950 . S
C739 C738 1.373 . S
C739 C755 1.377 . S
C740 C738 1.389 . S
C740 C741 1.524 . S
C740 C754 1.377 . S
C741 C740 1.524 . S
C741 C742 1.397 . S
C741 C746 1.363 . S
C742 H719 0.950 . S
C742 C741 1.397 . S
C742 C743 1.334 . S
C743 H720 0.950 . S
C743 C742 1.334 . S
C743 C744 1.287 . S
C744 C743 1.287 . S
C744 C745 1.524 . S
C744 H763 0.913 . S
C745 H721 0.950 . S
C745 C744 1.524 . S
C745 C746 1.415 . S
C746 H722 0.950 . S
C746 C741 1.363 . S
C746 C745 1.415 . S
C747 H723 0.951 . S
C747 C748 1.366 . S
C747 C749 1.388 . S
C748 C747 1.366 . S
C748 C752 1.385 . S
C749 H724 0.951 . S
C749 C747 1.388 . S
C749 C750 1.366 . S
C750 C749 1.366 . S
C750 C751 1.414 . S
C750 C753 1.499 . S
C751 H725 0.950 . S
C751 C750 1.414 . S
C751 C752 1.374 . S
C752 H726 0.950 . S
C752 C748 1.385 . S
C752 C751 1.374 . S
C753 C750 1.499 . S
C753 C754 1.373 . S
C753 C755 1.389 . S
C754 H727 0.950 . S
C754 C740 1.377 . S
C754 C753 1.373 . S
C755 C739 1.377 . S
C755 C753 1.389 . S
C755 C756 1.524 . S
C756 C755 1.524 . S
C756 C757 1.397 . S
C756 C761 1.363 . S
C757 H728 0.950 . S
C757 C756 1.397 . S
C757 C758 1.334 . S
C758 H729 0.950 . S
C758 C757 1.334 . S
C758 C759 1.287 . S
C759 C758 1.287 . S
C759 C760 1.524 . S
C759 H762 0.999 . S
C760 H730 0.950 . S
C760 C759 1.524 . S
C760 C761 1.415 . S
C761 H731 0.950 . S
C761 C756 1.363 . S
C761 C760 1.415 . S
H762 C759 0.999 . S
H763 C744 0.913 . S
H764 C782 0.951 . S
H765 C784 0.951 . S
H766 C786 0.950 . S
H767 C787 0.950 . S
H768 C789 0.950 . S
H769 C792 0.950 . S
H770 C793 0.950 . S
H771 C795 0.950 . S
H772 C796 0.950 . S
H773 C797 0.951 . S
H774 C799 0.951 . S
H775 C801 0.950 . S
H776 C802 0.950 . S
H777 C804 0.950 . S
H778 C807 0.950 . S
H779 C808 0.950 . S
H780 C810 0.950 . S
H781 C811 0.950 . S
C782 H764 0.951 . S
C782 C783 1.366 . S
C782 C784 1.388 . S
C783 C782 1.366 . S
C783 C787 1.385 . S
C784 H765 0.951 . S
C784 C782 1.388 . S
C784 C785 1.366 . S
C785 C784 1.366 . S
C785 C786 1.414 . S
C785 C788 1.499 . S
C786 H766 0.950 . S
C786 C785 1.414 . S
C786 C787 1.374 . S
C787 H767 0.950 . S
C787 C783 1.385 . S
C787 C786 1.374 . S
C788 C785 1.499 . S
C788 C789 1.373 . S
C788 C790 1.389 . S
C789 H768 0.950 . S
C789 C788 1.373 . S
C789 C805 1.377 . S
C790 C788 1.389 . S
C790 C791 1.524 . S
C790 C804 1.377 . S
C791 C790 1.524 . S
C791 C792 1.397 . S
C791 C796 1.363 . S
C792 H769 0.950 . S
C792 C791 1.397 . S
C792 C793 1.334 . S
C793 H770 0.950 . S
C793 C792 1.334 . S
C793 C794 1.287 . S
C794 C793 1.287 . S
C794 C795 1.524 . S
C794 H813 0.913 . S
C795 H771 0.950 . S
C795 C794 1.524 . S
C795 C796 1.415 . S
C796 H772 0.950 . S
C796 C791 1.363 . S
C796 C795 1.415 . S
C797 H773 0.951 . S
C797 C798 1.366 . S
C797 C799 1.388 . S
C798 C797 1.366 . S
C798 C802 1.385 . S
C799 H774 0.951 . S
C799 C797 1.388 . S
C799 C800 1.366 . S
C800 C799 1.366 . S
C800 C801 1.414 . S
C800 C803 1.499 . S
C801 H775 0.950 . S
C801 C800 1.414 . S
C801 C802 1.374 . S
C802 H776 0.950 . S
C802 C798 1.385 . S
C802 C801 1.374 . S
C803 C800 1.499 . S
C803 C804 1.373 . S
C803 C805 1.389 . S
C804 H777 0.950 . S
C804 C790 1.377 . S
C804 C803 1.373 . S
C805 C789 1.377 . S
C805 C803 1.389 . S
C805 C806 1.524 . S
C806 C805 1.524 . S
C806 C807 1.397 . S
C806 C811 1.363 . S
C807 H778 0.950 . S
C807 C806 1.397 . S
C807 C808 1.334 . S
C808 H779 0.950 . S
C808 C807 1.334 . S
C808 C809 1.287 . S
C809 C808 1.287 . S
C809 C810 1.524 . S
C809 H812 0.999 . S
C810 H780 0.950 . S
C810 C809 1.524 . S
C810 C811 1.415 . S
C811 H781 0.950 . S
C811 C806 1.363 . S
C811 C810 1.415 . S
H812 C809 0.999 . S
H813 C794 0.913 . S
H814 C832 0.951 . S
H815 C834 0.951 . S
H816 C836 0.950 . S
H817 C837 0.950 . S
H818 C839 0.950 . S
H819 C842 0.950 . S
H820 C843 0.950 . S
H821 C845 0.950 . S
H822 C846 0.950 . S
H823 C847 0.951 . S
H824 C849 0.951 . S
H825 C851 0.950 . S
H826 C852 0.950 . S
H827 C854 0.950 . S
H828 C857 0.950 . S
H829 C858 0.950 . S
H830 C860 0.950 . S
H831 C861 0.950 . S
C832 H814 0.951 . S
C832 C833 1.366 . S
C832 C834 1.388 . S
C833 C832 1.366 . S
C833 C837 1.385 . S
C834 H815 0.951 . S
C834 C832 1.388 . S
C834 C835 1.366 . S
C835 C834 1.366 . S
C835 C836 1.414 . S
C835 C838 1.499 . S
C836 H816 0.950 . S
C836 C835 1.414 . S
C836 C837 1.374 . S
C837 H817 0.950 . S
C837 C833 1.385 . S
C837 C836 1.374 . S
C838 C835 1.499 . S
C838 C839 1.373 . S
C838 C840 1.389 . S
C839 H818 0.950 . S
C839 C838 1.373 . S
C839 C855 1.377 . S
C840 C838 1.389 . S
C840 C841 1.524 . S
C840 C854 1.377 . S
C841 C840 1.524 . S
C841 C842 1.397 . S
C841 C846 1.363 . S
C842 H819 0.950 . S
C842 C841 1.397 . S
C842 C843 1.334 . S
C843 H820 0.950 . S
C843 C842 1.334 . S
C843 C844 1.287 . S
C844 C843 1.287 . S
C844 C845 1.524 . S
C844 H863 0.913 . S
C845 H821 0.950 . S
C845 C844 1.524 . S
C845 C846 1.415 . S
C846 H822 0.950 . S
C846 C841 1.363 . S
C846 C845 1.415 . S
C847 H823 0.951 . S
C847 C848 1.366 . S
C847 C849 1.388 . S
C848 C847 1.366 . S
C848 C852 1.385 . S
C849 H824 0.951 . S
C849 C847 1.388 . S
C849 C850 1.366 . S
C850 C849 1.366 . S
C850 C851 1.414 . S
C850 C853 1.499 . S
C851 H825 0.950 . S
C851 C850 1.414 . S
C851 C852 1.374 . S
C852 H826 0.950 . S
C852 C848 1.385 . S
C852 C851 1.374 . S
C853 C850 1.499 . S
C853 C854 1.373 . S
C853 C855 1.389 . S
C854 H827 0.950 . S
C854 C840 1.377 . S
C854 C853 1.373 . S
C855 C839 1.377 . S
C855 C853 1.389 . S
C855 C856 1.524 . S
C856 C855 1.524 . S
C856 C857 1.397 . S
C856 C861 1.363 . S
C857 H828 0.950 . S
C857 C856 1.397 . S
C857 C858 1.334 . S
C858 H829 0.950 . S
C858 C857 1.334 . S
C858 C859 1.287 . S
C859 C858 1.287 . S
C859 C860 1.524 . S
C859 H862 0.999 . S
C860 H830 0.950 . S
C860 C859 1.524 . S
C860 C861 1.415 . S
C861 H831 0.950 . S
C861 C856 1.363 . S
C861 C860 1.415 . S
H862 C859 0.999 . S
H863 C844 0.913 . S
H864 C882 0.951 . S
H865 C884 0.951 . S
H866 C886 0.950 . S
H867 C887 0.950 . S
H868 C889 0.950 . S
H869 C892 0.950 . S
H870 C893 0.950 . S
H871 C895 0.950 . S
H872 C896 0.950 . S
H873 C897 0.951 . S
H874 C899 0.951 . S
H875 C901 0.950 . S
H876 C902 0.950 . S
H877 C904 0.950 . S
H878 C907 0.950 . S
H879 C908 0.950 . S
H880 C910 0.950 . S
H881 C911 0.950 . S
C882 H864 0.951 . S
C882 C883 1.366 . S
C882 C884 1.388 . S
C883 C882 1.366 . S
C883 C887 1.385 . S
C884 H865 0.951 . S
C884 C882 1.388 . S
C884 C885 1.366 . S
C885 C884 1.366 . S
C885 C886 1.414 . S
C885 C888 1.499 . S
C886 H866 0.950 . S
C886 C885 1.414 . S
C886 C887 1.374 . S
C887 H867 0.950 . S
C887 C883 1.385 . S
C887 C886 1.374 . S
C888 C885 1.499 . S
C888 C889 1.373 . S
C888 C890 1.389 . S
C889 H868 0.950 . S
C889 C888 1.373 . S
C889 C905 1.377 1_565 S
C890 C888 1.389 . S
C890 C891 1.524 . S
C890 C904 1.377 1_565 S
C891 C890 1.524 . S
C891 C892 1.397 . S
C891 C896 1.363 . S
C892 H869 0.950 . S
C892 C891 1.397 . S
C892 C893 1.334 . S
C893 H870 0.950 . S
C893 C892 1.334 . S
C893 C894 1.287 . S
C894 C893 1.287 . S
C894 C895 1.524 . S
C894 H913 0.913 . S
C895 H871 0.950 . S
C895 C894 1.524 . S
C895 C896 1.415 . S
C896 H872 0.950 . S
C896 C891 1.363 . S
C896 C895 1.415 . S
C897 H873 0.951 . S
C897 C898 1.366 . S
C897 C899 1.388 . S
C898 C897 1.366 . S
C898 C902 1.385 . S
C899 H874 0.951 . S
C899 C897 1.388 . S
C899 C900 1.366 . S
C900 C899 1.366 . S
C900 C901 1.414 . S
C900 C903 1.499 . S
C901 H875 0.950 . S
C901 C900 1.414 . S
C901 C902 1.374 . S
C902 H876 0.950 . S
C902 C898 1.385 . S
C902 C901 1.374 . S
C903 C900 1.499 . S
C903 C904 1.373 . S
C903 C905 1.389 . S
C904 H877 0.950 . S
C904 C890 1.377 1_545 S
C904 C903 1.373 . S
C905 C889 1.377 1_545 S
C905 C903 1.389 . S
C905 C906 1.524 . S
C906 C905 1.524 . S
C906 C907 1.397 . S
C906 C911 1.363 . S
C907 H878 0.950 . S
C907 C906 1.397 . S
C907 C908 1.334 . S
C908 H879 0.950 . S
C908 C907 1.334 . S
C908 C909 1.287 . S
C909 C908 1.287 . S
C909 C910 1.524 . S
C909 H912 0.999 . S
C910 H880 0.950 . S
C910 C909 1.524 . S
C910 C911 1.415 . S
C911 H881 0.950 . S
C911 C906 1.363 . S
C911 C910 1.415 . S
H912 C909 0.999 . S
H913 C894 0.913 . S
H914 C932 0.951 . S
H915 C934 0.951 . S
H916 C936 0.950 . S
H917 C937 0.950 . S
H918 C939 0.950 . S
H919 C942 0.950 . S
H920 C943 0.950 . S
H921 C945 0.950 . S
H922 C946 0.950 . S
H923 C947 0.951 . S
H924 C949 0.951 . S
H925 C951 0.950 . S
H926 C952 0.950 . S
H927 C954 0.950 . S
H928 C957 0.950 . S
H929 C958 0.950 . S
H930 C960 0.950 . S
H931 C961 0.950 . S
C932 H914 0.951 . S
C932 C933 1.366 . S
C932 C934 1.388 . S
C933 C932 1.366 . S
C933 C937 1.385 . S
C934 H915 0.951 . S
C934 C932 1.388 . S
C934 C935 1.366 . S
C935 C934 1.366 . S
C935 C936 1.414 . S
C935 C938 1.499 . S
C936 H916 0.950 . S
C936 C935 1.414 . S
C936 C937 1.374 . S
C937 H917 0.950 . S
C937 C933 1.385 . S
C937 C936 1.374 . S
C938 C935 1.499 . S
C938 C939 1.373 . S
C938 C940 1.389 . S
C939 H918 0.950 . S
C939 C938 1.373 . S
C939 C955 1.377 . S
C940 C938 1.389 . S
C940 C941 1.524 . S
C940 C954 1.377 . S
C941 C940 1.524 . S
C941 C942 1.397 . S
C941 C946 1.363 . S
C942 H919 0.950 . S
C942 C941 1.397 . S
C942 C943 1.334 . S
C943 H920 0.950 . S
C943 C942 1.334 . S
C943 C944 1.287 . S
C944 C943 1.287 . S
C944 C945 1.524 . S
C944 H963 0.913 . S
C945 H921 0.950 . S
C945 C944 1.524 . S
C945 C946 1.415 . S
C946 H922 0.950 . S
C946 C941 1.363 . S
C946 C945 1.415 . S
C947 H923 0.951 . S
C947 C948 1.366 . S
C947 C949 1.388 . S
C948 C947 1.366 . S
C948 C952 1.385 . S
C949 H924 0.951 . S
C949 C947 1.388 . S
C949 C950 1.366 . S
C950 C949 1.366 . S
C950 C951 1.414 . S
C950 C953 1.499 . S
C951 H925 0.950 . S
C951 C950 1.414 . S
C951 C952 1.374 . S
C952 H926 0.950 . S
C952 C948 1.385 . S
C952 C951 1.374 . S
C953 C950 1.499 . S
C953 C954 1.373 . S
C953 C955 1.389 . S
C954 H927 0.950 . S
C954 C940 1.377 . S
C954 C953 1.373 . S
C955 C939 1.377 . S
C955 C953 1.389 . S
C955 C956 1.524 . S
C956 C955 1.524 . S
C956 C957 1.397 . S
C956 C961 1.363 . S
C957 H928 0.950 . S
C957 C956 1.397 . S
C957 C958 1.334 . S
C958 H929 0.950 . S
C958 C957 1.334 . S
C958 C959 1.287 . S
C959 C958 1.287 . S
C959 C960 1.524 . S
C959 H962 0.999 . S
C960 H930 0.950 . S
C960 C959 1.524 . S
C960 C961 1.415 . S
C961 H931 0.950 . S
C961 C956 1.363 . S
C961 C960 1.415 . S
H962 C959 0.999 . S
H963 C944 0.913 . S
H964 C982 0.951 . S
H965 C984 0.951 . S
H966 C986 0.950 . S
H967 C987 0.950 . S
H968 C989 0.950 . S
H969 C992 0.950 . S
H970 C993 0.950 . S
H971 C995 0.950 . S
H972 C996 0.950 . S
H973 C997 0.951 . S
H974 C999 0.951 . S
H975 C1001 0.950 . S
H976 C1002 0.950 . S
H977 C1004 0.950 . S
H978 C1007 0.950 . S
H979 C1008 0.950 . S
H980 C1010 0.950 . S
H981 C1011 0.950 . S
C982 H964 0.951 . S
C982 C983 1.366 . S
C982 C984 1.388 . S
C983 C982 1.366 . S
C983 C987 1.385 . S
C984 H965 0.951 . S
C984 C982 1.388 . S
C984 C985 1.366 . S
C985 C984 1.366 . S
C985 C986 1.414 . S
C985 C988 1.499 . S
C986 H966 0.950 . S
C986 C985 1.414 . S
C986 C987 1.374 . S
C987 H967 0.950 . S
C987 C983 1.385 . S
C987 C986 1.374 . S
C988 C985 1.499 . S
C988 C989 1.373 . S
C988 C990 1.389 . S
C989 H968 0.950 . S
C989 C988 1.373 . S
C989 C1005 1.377 1_455 S
C990 C988 1.389 . S
C990 C991 1.524 . S
C990 C1004 1.377 1_455 S
C991 C990 1.524 . S
C991 C992 1.397 . S
C991 C996 1.363 1_455 S
C992 H969 0.950 . S
C992 C991 1.397 . S
C992 C993 1.334 . S
C993 H970 0.950 . S
C993 C992 1.334 . S
C993 C994 1.287 . S
C994 C993 1.287 . S
C994 C995 1.524 1_455 S
C994 H1013 0.913 . S
C995 H971 0.950 . S
C995 C994 1.524 1_655 S
C995 C996 1.415 . S
C996 H972 0.950 . S
C996 C991 1.363 1_655 S
C996 C995 1.415 . S
C997 H973 0.951 . S
C997 C998 1.366 . S
C997 C999 1.388 . S
C998 C997 1.366 . S
C998 C1002 1.385 . S
C999 H974 0.951 . S
C999 C997 1.388 . S
C999 C1000 1.366 . S
C1000 C999 1.366 . S
C1000 C1001 1.414 . S
C1000 C1003 1.499 . S
C1001 H975 0.950 . S
C1001 C1000 1.414 . S
C1001 C1002 1.374 . S
C1002 H976 0.950 . S
C1002 C998 1.385 . S
C1002 C1001 1.374 . S
C1003 C1000 1.499 . S
C1003 C1004 1.373 . S
C1003 C1005 1.389 . S
C1004 H977 0.950 . S
C1004 C990 1.377 1_655 S
C1004 C1003 1.373 . S
C1005 C989 1.377 1_655 S
C1005 C1003 1.389 . S
C1005 C1006 1.524 . S
C1006 C1005 1.524 . S
C1006 C1007 1.397 . S
C1006 C1011 1.363 1_655 S
C1007 H978 0.950 . S
C1007 C1006 1.397 . S
C1007 C1008 1.334 . S
C1008 H979 0.950 . S
C1008 C1007 1.334 . S
C1008 C1009 1.287 . S
C1009 C1008 1.287 . S
C1009 C1010 1.524 1_655 S
C1009 H1012 0.999 . S
C1010 H980 0.950 . S
C1010 C1009 1.524 1_455 S
C1010 C1011 1.415 . S
C1011 H981 0.950 . S
C1011 C1006 1.363 1_455 S
C1011 C1010 1.415 . S
H1012 C1009 0.999 . S
H1013 C994 0.913 . S
H1014 C1032 0.951 . S
H1015 C1034 0.951 . S
H1016 C1036 0.950 . S
H1017 C1037 0.950 . S
H1018 C1039 0.950 . S
H1019 C1042 0.950 . S
H1020 C1043 0.950 . S
H1021 C1045 0.950 . S
H1022 C1046 0.950 . S
H1023 C1047 0.951 . S
H1024 C1049 0.951 . S
H1025 C1051 0.950 . S
H1026 C1052 0.950 . S
H1027 C1054 0.950 . S
H1028 C1057 0.950 . S
H1029 C1058 0.950 . S
H1030 C1060 0.950 . S
H1031 C1061 0.950 . S
C1032 H1014 0.951 . S
C1032 C1033 1.366 . S
C1032 C1034 1.388 . S
C1033 C1032 1.366 . S
C1033 C1037 1.385 . S
C1034 H1015 0.951 . S
C1034 C1032 1.388 . S
C1034 C1035 1.366 . S
C1035 C1034 1.366 . S
C1035 C1036 1.414 . S
C1035 C1038 1.499 . S
C1036 H1016 0.950 . S
C1036 C1035 1.414 . S
C1036 C1037 1.374 . S
C1037 H1017 0.950 . S
C1037 C1033 1.385 . S
C1037 C1036 1.374 . S
C1038 C1035 1.499 . S
C1038 C1039 1.373 . S
C1038 C1040 1.389 1_565 S
C1039 H1018 0.950 . S
C1039 C1038 1.373 . S
C1039 C1055 1.377 . S
C1040 C1038 1.389 1_545 S
C1040 C1041 1.524 . S
C1040 C1054 1.377 . S
C1041 C1040 1.524 . S
C1041 C1042 1.397 1_545 S
C1041 C1046 1.363 . S
C1042 H1019 0.950 . S
C1042 C1041 1.397 1_565 S
C1042 C1043 1.334 . S
C1043 H1020 0.950 . S
C1043 C1042 1.334 . S
C1043 C1044 1.287 1_565 S
C1044 C1043 1.287 1_545 S
C1044 C1045 1.524 . S
C1044 H1063 0.913 . S
C1045 H1021 0.950 . S
C1045 C1044 1.524 . S
C1045 C1046 1.415 . S
C1046 H1022 0.950 . S
C1046 C1041 1.363 . S
C1046 C1045 1.415 . S
C1047 H1023 0.951 . S
C1047 C1048 1.366 . S
C1047 C1049 1.388 . S
C1048 C1047 1.366 . S
C1048 C1052 1.385 . S
C1049 H1024 0.951 . S
C1049 C1047 1.388 . S
C1049 C1050 1.366 . S
C1050 C1049 1.366 . S
C1050 C1051 1.414 . S
C1050 C1053 1.499 . S
C1051 H1025 0.950 . S
C1051 C1050 1.414 . S
C1051 C1052 1.374 . S
C1052 H1026 0.950 . S
C1052 C1048 1.385 . S
C1052 C1051 1.374 . S
C1053 C1050 1.499 . S
C1053 C1054 1.373 . S
C1053 C1055 1.389 1_545 S
C1054 H1027 0.950 . S
C1054 C1040 1.377 . S
C1054 C1053 1.373 . S
C1055 C1039 1.377 . S
C1055 C1053 1.389 1_565 S
C1055 C1056 1.524 . S
C1056 C1055 1.524 . S
C1056 C1057 1.397 1_565 S
C1056 C1061 1.363 . S
C1057 H1028 0.950 . S
C1057 C1056 1.397 1_545 S
C1057 C1058 1.334 . S
C1058 H1029 0.950 . S
C1058 C1057 1.334 . S
C1058 C1059 1.287 1_545 S
C1059 C1058 1.287 1_565 S
C1059 C1060 1.524 . S
C1059 H1062 0.999 . S
C1060 H1030 0.950 . S
C1060 C1059 1.524 . S
C1060 C1061 1.415 . S
C1061 H1031 0.950 . S
C1061 C1056 1.363 . S
C1061 C1060 1.415 . S
H1062 C1059 0.999 . S
H1063 C1044 0.913 . S
H1064 C1082 0.951 . S
H1065 C1084 0.951 . S
H1066 C1086 0.950 . S
H1067 C1087 0.950 . S
H1068 C1089 0.950 . S
H1069 C1092 0.950 . S
H1070 C1093 0.950 . S
H1071 C1095 0.950 . S
H1072 C1096 0.950 . S
H1073 C1097 0.951 . S
H1074 C1099 0.951 . S
H1075 C1101 0.950 . S
H1076 C1102 0.950 . S
H1077 C1104 0.950 . S
H1078 C1107 0.950 . S
H1079 C1108 0.950 . S
H1080 C1110 0.950 . S
H1081 C1111 0.950 . S
C1082 H1064 0.951 . S
C1082 C1083 1.366 . S
C1082 C1084 1.388 . S
C1083 C1082 1.366 . S
C1083 C1087 1.385 . S
C1084 H1065 0.951 . S
C1084 C1082 1.388 . S
C1084 C1085 1.366 . S
C1085 C1084 1.366 . S
C1085 C1086 1.414 . S
C1085 C1088 1.499 . S
C1086 H1066 0.950 . S
C1086 C1085 1.414 . S
C1086 C1087 1.374 . S
C1087 H1067 0.950 . S
C1087 C1083 1.385 . S
C1087 C1086 1.374 . S
C1088 C1085 1.499 . S
C1088 C1089 1.373 . S
C1088 C1090 1.389 . S
C1089 H1068 0.950 . S
C1089 C1088 1.373 . S
C1089 C1105 1.377 . S
C1090 C1088 1.389 . S
C1090 C1091 1.524 . S
C1090 C1104 1.377 . S
C1091 C1090 1.524 . S
C1091 C1092 1.397 . S
C1091 C1096 1.363 . S
C1092 H1069 0.950 . S
C1092 C1091 1.397 . S
C1092 C1093 1.334 . S
C1093 H1070 0.950 . S
C1093 C1092 1.334 . S
C1093 C1094 1.287 . S
C1094 C1093 1.287 . S
C1094 C1095 1.524 . S
C1094 H1113 0.913 . S
C1095 H1071 0.950 . S
C1095 C1094 1.524 . S
C1095 C1096 1.415 . S
C1096 H1072 0.950 . S
C1096 C1091 1.363 . S
C1096 C1095 1.415 . S
C1097 H1073 0.951 . S
C1097 C1098 1.366 . S
C1097 C1099 1.388 . S
C1098 C1097 1.366 . S
C1098 C1102 1.385 . S
C1099 H1074 0.951 . S
C1099 C1097 1.388 . S
C1099 C1100 1.366 . S
C1100 C1099 1.366 . S
C1100 C1101 1.414 . S
C1100 C1103 1.499 . S
C1101 H1075 0.950 . S
C1101 C1100 1.414 . S
C1101 C1102 1.374 . S
C1102 H1076 0.950 . S
C1102 C1098 1.385 . S
C1102 C1101 1.374 . S
C1103 C1100 1.499 . S
C1103 C1104 1.373 . S
C1103 C1105 1.389 . S
C1104 H1077 0.950 . S
C1104 C1090 1.377 . S
C1104 C1103 1.373 . S
C1105 C1089 1.377 . S
C1105 C1103 1.389 . S
C1105 C1106 1.524 . S
C1106 C1105 1.524 . S
C1106 C1107 1.397 . S
C1106 C1111 1.363 . S
C1107 H1078 0.950 . S
C1107 C1106 1.397 . S
C1107 C1108 1.334 . S
C1108 H1079 0.950 . S
C1108 C1107 1.334 . S
C1108 C1109 1.287 . S
C1109 C1108 1.287 . S
C1109 C1110 1.524 . S
C1109 H1112 0.999 . S
C1110 H1080 0.950 . S
C1110 C1109 1.524 . S
C1110 C1111 1.415 . S
C1111 H1081 0.950 . S
C1111 C1106 1.363 . S
C1111 C1110 1.415 . S
H1112 C1109 0.999 . S
H1113 C1094 0.913 . S
H1114 C1132 0.951 . S
H1115 C1134 0.951 . S
H1116 C1136 0.950 . S
H1117 C1137 0.950 . S
H1118 C1139 0.950 . S
H1119 C1142 0.950 . S
H1120 C1143 0.950 . S
H1121 C1145 0.950 . S
H1122 C1146 0.950 . S
H1123 C1147 0.951 . S
H1124 C1149 0.951 . S
H1125 C1151 0.950 . S
H1126 C1152 0.950 . S
H1127 C1154 0.950 . S
H1128 C1157 0.950 . S
H1129 C1158 0.950 . S
H1130 C1160 0.950 . S
H1131 C1161 0.950 . S
C1132 H1114 0.951 . S
C1132 C1133 1.366 . S
C1132 C1134 1.388 . S
C1133 C1132 1.366 . S
C1133 C1137 1.385 . S
C1134 H1115 0.951 . S
C1134 C1132 1.388 . S
C1134 C1135 1.366 . S
C1135 C1134 1.366 . S
C1135 C1136 1.414 . S
C1135 C1138 1.499 . S
C1136 H1116 0.950 . S
C1136 C1135 1.414 . S
C1136 C1137 1.374 . S
C1137 H1117 0.950 . S
C1137 C1133 1.385 . S
C1137 C1136 1.374 . S
C1138 C1135 1.499 . S
C1138 C1139 1.373 . S
C1138 C1140 1.389 . S
C1139 H1118 0.950 . S
C1139 C1138 1.373 . S
C1139 C1155 1.377 1_655 S
C1140 C1138 1.389 . S
C1140 C1141 1.524 . S
C1140 C1154 1.377 1_655 S
C1141 C1140 1.524 . S
C1141 C1142 1.397 . S
C1141 C1146 1.363 . S
C1142 H1119 0.950 . S
C1142 C1141 1.397 . S
C1142 C1143 1.334 . S
C1143 H1120 0.950 . S
C1143 C1142 1.334 . S
C1143 C1144 1.287 . S
C1144 C1143 1.287 . S
C1144 C1145 1.524 . S
C1144 H1163 0.913 . S
C1145 H1121 0.950 . S
C1145 C1144 1.524 . S
C1145 C1146 1.415 . S
C1146 H1122 0.950 . S
C1146 C1141 1.363 . S
C1146 C1145 1.415 . S
C1147 H1123 0.951 . S
C1147 C1148 1.366 . S
C1147 C1149 1.388 . S
C1148 C1147 1.366 . S
C1148 C1152 1.385 . S
C1149 H1124 0.951 . S
C1149 C1147 1.388 . S
C1149 C1150 1.366 . S
C1150 C1149 1.366 . S
C1150 C1151 1.414 . S
C1150 C1153 1.499 . S
C1151 H1125 0.950 . S
C1151 C1150 1.414 . S
C1151 C1152 1.374 . S
C1152 H1126 0.950 . S
C1152 C1148 1.385 . S
C1152 C1151 1.374 . S
C1153 C1150 1.499 . S
C1153 C1154 1.373 . S
C1153 C1155 1.389 . S
C1154 H1127 0.950 . S
C1154 C1140 1.377 1_455 S
C1154 C1153 1.373 . S
C1155 C1139 1.377 1_455 S
C1155 C1153 1.389 . S
C1155 C1156 1.524 . S
C1156 C1155 1.524 . S
C1156 C1157 1.397 . S
C1156 C1161 1.363 . S
C1157 H1128 0.950 . S
C1157 C1156 1.397 . S
C1157 C1158 1.334 . S
C1158 H1129 0.950 . S
C1158 C1157 1.334 . S
C1158 C1159 1.287 . S
C1159 C1158 1.287 . S
C1159 C1160 1.524 . S
C1159 H1162 0.999 . S
C1160 H1130 0.950 . S
C1160 C1159 1.524 . S
C1160 C1161 1.415 . S
C1161 H1131 0.950 . S
C1161 C1156 1.363 . S
C1161 C1160 1.415 . S
H1162 C1159 0.999 . S
H1163 C1144 0.913 . S
H1164 C1182 0.951 . S
H1165 C1184 0.951 . S
H1166 C1186 0.950 . S
H1167 C1187 0.950 . S
H1168 C1189 0.950 . S
H1169 C1192 0.950 . S
H1170 C1193 0.950 . S
H1171 C1195 0.950 . S
H1172 C1196 0.950 . S
H1173 C1197 0.951 . S
H1174 C1199 0.951 . S
H1175 C1201 0.950 . S
H1176 C1202 0.950 . S
H1177 C1204 0.950 . S
H1178 C1207 0.950 . S
H1179 C1208 0.950 . S
H1180 C1210 0.950 . S
H1181 C1211 0.950 . S
C1182 H1164 0.951 . S
C1182 C1183 1.366 . S
C1182 C1184 1.388 . S
C1183 C1182 1.366 . S
C1183 C1187 1.385 . S
C1184 H1165 0.951 . S
C1184 C1182 1.388 . S
C1184 C1185 1.366 . S
C1185 C1184 1.366 . S
C1185 C1186 1.414 . S
C1185 C1188 1.499 . S
C1186 H1166 0.950 . S
C1186 C1185 1.414 . S
C1186 C1187 1.374 . S
C1187 H1167 0.950 . S
C1187 C1183 1.385 . S
C1187 C1186 1.374 . S
C1188 C1185 1.499 . S
C1188 C1189 1.373 1_545 S
C1188 C1190 1.389 . S
C1189 H1168 0.950 . S
C1189 C1188 1.373 1_565 S
C1189 C1205 1.377 . S
C1190 C1188 1.389 . S
C1190 C1191 1.524 . S
C1190 C1204 1.377 . S
C1191 C1190 1.524 . S
C1191 C1192 1.397 . S
C1191 C1196 1.363 . S
C1192 H1169 0.950 . S
C1192 C1191 1.397 . S
C1192 C1193 1.334 . S
C1193 H1170 0.950 . S
C1193 C1192 1.334 . S
C1193 C1194 1.287 . S
C1194 C1193 1.287 . S
C1194 C1195 1.524 . S
C1194 H1213 0.913 . S
C1195 H1171 0.950 . S
C1195 C1194 1.524 . S
C1195 C1196 1.415 . S
C1196 H1172 0.950 . S
C1196 C1191 1.363 . S
C1196 C1195 1.415 . S
C1197 H1173 0.951 . S
C1197 C1198 1.366 . S
C1197 C1199 1.388 . S
C1198 C1197 1.366 . S
C1198 C1202 1.385 . S
C1199 H1174 0.951 . S
C1199 C1197 1.388 . S
C1199 C1200 1.366 . S
C1200 C1199 1.366 . S
C1200 C1201 1.414 . S
C1200 C1203 1.499 . S
C1201 H1175 0.950 . S
C1201 C1200 1.414 . S
C1201 C1202 1.374 . S
C1202 H1176 0.950 . S
C1202 C1198 1.385 . S
C1202 C1201 1.374 . S
C1203 C1200 1.499 . S
C1203 C1204 1.373 1_565 S
C1203 C1205 1.389 . S
C1204 H1177 0.950 . S
C1204 C1190 1.377 . S
C1204 C1203 1.373 1_545 S
C1205 C1189 1.377 . S
C1205 C1203 1.389 . S
C1205 C1206 1.524 . S
C1206 C1205 1.524 . S
C1206 C1207 1.397 . S
C1206 C1211 1.363 . S
C1207 H1178 0.950 . S
C1207 C1206 1.397 . S
C1207 C1208 1.334 . S
C1208 H1179 0.950 . S
C1208 C1207 1.334 . S
C1208 C1209 1.287 . S
C1209 C1208 1.287 . S
C1209 C1210 1.524 . S
C1209 H1212 0.999 . S
C1210 H1180 0.950 . S
C1210 C1209 1.524 . S
C1210 C1211 1.415 . S
C1211 H1181 0.950 . S
C1211 C1206 1.363 . S
C1211 C1210 1.415 . S
H1212 C1209 0.999 . S
H1213 C1194 0.913 . S
H1214 C1232 0.951 . S
H1215 C1234 0.951 . S
H1216 C1236 0.950 . S
H1217 C1237 0.950 . S
H1218 C1239 0.950 . S
H1219 C1242 0.950 . S
H1220 C1243 0.950 . S
H1221 C1245 0.950 . S
H1222 C1246 0.950 . S
H1223 C1247 0.951 . S
H1224 C1249 0.951 . S
H1225 C1251 0.950 . S
H1226 C1252 0.950 . S
H1227 C1254 0.950 . S
H1228 C1257 0.950 . S
H1229 C1258 0.950 . S
H1230 C1260 0.950 . S
H1231 C1261 0.950 . S
C1232 H1214 0.951 . S
C1232 C1233 1.366 . S
C1232 C1234 1.388 . S
C1233 C1232 1.366 . S
C1233 C1237 1.385 . S
C1234 H1215 0.951 . S
C1234 C1232 1.388 . S
C1234 C1235 1.366 . S
C1235 C1234 1.366 . S
C1235 C1236 1.414 . S
C1235 C1238 1.499 . S
C1236 H1216 0.950 . S
C1236 C1235 1.414 . S
C1236 C1237 1.374 . S
C1237 H1217 0.950 . S
C1237 C1233 1.385 . S
C1237 C1236 1.374 . S
C1238 C1235 1.499 . S
C1238 C1239 1.373 . S
C1238 C1240 1.389 . S
C1239 H1218 0.950 . S
C1239 C1238 1.373 . S
C1239 C1255 1.377 . S
C1240 C1238 1.389 . S
C1240 C1241 1.524 . S
C1240 C1254 1.377 . S
C1241 C1240 1.524 . S
C1241 C1242 1.397 . S
C1241 C1246 1.363 . S
C1242 H1219 0.950 . S
C1242 C1241 1.397 . S
C1242 C1243 1.334 . S
C1243 H1220 0.950 . S
C1243 C1242 1.334 . S
C1243 C1244 1.287 . S
C1244 C1243 1.287 . S
C1244 C1245 1.524 . S
C1244 H1263 0.913 . S
C1245 H1221 0.950 . S
C1245 C1244 1.524 . S
C1245 C1246 1.415 . S
C1246 H1222 0.950 . S
C1246 C1241 1.363 . S
C1246 C1245 1.415 . S
C1247 H1223 0.951 . S
C1247 C1248 1.366 . S
C1247 C1249 1.388 . S
C1248 C1247 1.366 . S
C1248 C1252 1.385 . S
C1249 H1224 0.951 . S
C1249 C1247 1.388 . S
C1249 C1250 1.366 . S
C1250 C1249 1.366 . S
C1250 C1251 1.414 . S
C1250 C1253 1.499 . S
C1251 H1225 0.950 . S
C1251 C1250 1.414 . S
C1251 C1252 1.374 . S
C1252 H1226 0.950 . S
C1252 C1248 1.385 . S
C1252 C1251 1.374 . S
C1253 C1250 1.499 . S
C1253 C1254 1.373 . S
C1253 C1255 1.389 . S
C1254 H1227 0.950 . S
C1254 C1240 1.377 . S
C1254 C1253 1.373 . S
C1255 C1239 1.377 . S
C1255 C1253 1.389 . S
C1255 C1256 1.524 . S
C1256 C1255 1.524 . S
C1256 C1257 1.397 . S
C1256 C1261 1.363 . S
C1257 H1228 0.950 . S
C1257 C1256 1.397 . S
C1257 C1258 1.334 . S
C1258 H1229 0.950 . S
C1258 C1257 1.334 . S
C1258 C1259 1.287 . S
C1259 C1258 1.287 . S
C1259 C1260 1.524 . S
C1259 H1262 0.999 . S
C1260 H1230 0.950 . S
C1260 C1259 1.524 . S
C1260 C1261 1.415 . S
C1261 H1231 0.950 . S
C1261 C1256 1.363 . S
C1261 C1260 1.415 . S
H1262 C1259 0.999 . S
H1263 C1244 0.913 . S
H1264 C1282 0.951 . S
H1265 C1284 0.951 . S
H1266 C1286 0.950 . S
H1267 C1287 0.950 . S
H1268 C1289 0.950 . S
H1269 C1292 0.958 . S
H1270 C1293 0.950 . S
H1271 C1295 0.950 . S
H1272 C1296 0.950 . S
H1273 C1297 0.951 . S
H1274 C1299 0.951 . S
H1275 C1301 0.950 . S
H1276 C1302 0.950 . S
H1277 C1304 0.950 . S
H1278 C1307 0.958 . S
H1279 C1308 0.950 . S
H1280 C1310 0.950 . S
H1281 C1311 0.950 . S
C1282 H1264 0.951 . S
C1282 C1283 1.366 . S
C1282 C1284 1.388 . S
C1283 C1282 1.366 . S
C1283 C1287 1.385 . S
C1284 H1265 0.951 . S
C1284 C1282 1.388 . S
C1284 C1285 1.366 . S
C1285 C1284 1.366 . S
C1285 C1286 1.414 . S
C1285 C1288 1.499 . S
C1286 H1266 0.950 . S
C1286 C1285 1.414 . S
C1286 C1287 1.374 . S
C1287 H1267 0.950 . S
C1287 C1283 1.385 . S
C1287 C1286 1.374 . S
C1288 C1285 1.499 . S
C1288 C1289 1.373 . S
C1288 C1290 1.389 . S
C1289 H1268 0.950 . S
C1289 C1288 1.373 . S
C1289 C1305 1.377 1_655 S
C1290 C1288 1.389 . S
C1290 C1291 1.517 . S
C1290 C1304 1.377 1_655 S
C1291 C1290 1.517 . S
C1291 C1292 1.385 1_655 S
C1291 C1296 1.372 1_655 S
C1292 H1269 0.958 . S
C1292 C1291 1.385 1_455 S
C1292 C1293 1.321 . S
C1293 H1270 0.950 . S
C1293 C1292 1.321 . S
C1293 C1294 1.287 . S
C1294 C1293 1.287 . S
C1294 C1295 1.524 . S
C1294 H1313 0.913 . S
C1295 H1271 0.950 . S
C1295 C1294 1.524 . S
C1295 C1296 1.415 . S
C1296 H1272 0.950 . S
C1296 C1291 1.372 1_455 S
C1296 C1295 1.415 . S
C1297 H1273 0.951 . S
C1297 C1298 1.366 . S
C1297 C1299 1.388 . S
C1298 C1297 1.366 . S
C1298 C1302 1.385 . S
C1299 H1274 0.951 . S
C1299 C1297 1.388 . S
C1299 C1300 1.366 . S
C1300 C1299 1.366 . S
C1300 C1301 1.414 . S
C1300 C1303 1.499 . S
C1301 H1275 0.950 . S
C1301 C1300 1.414 . S
C1301 C1302 1.374 . S
C1302 H1276 0.950 . S
C1302 C1298 1.385 . S
C1302 C1301 1.374 . S
C1303 C1300 1.499 . S
C1303 C1304 1.373 . S
C1303 C1305 1.389 . S
C1304 H1277 0.950 . S
C1304 C1290 1.377 1_455 S
C1304 C1303 1.373 . S
C1305 C1289 1.377 1_455 S
C1305 C1303 1.389 . S
C1305 C1306 1.517 . S
C1306 C1305 1.517 . S
C1306 C1307 1.385 1_455 S
C1306 C1311 1.372 1_455 S
C1307 H1278 0.958 . S
C1307 C1306 1.385 1_655 S
C1307 C1308 1.321 . S
C1308 H1279 0.950 . S
C1308 C1307 1.321 . S
C1308 C1309 1.287 . S
C1309 C1308 1.287 . S
C1309 C1310 1.524 . S
C1309 H1312 0.999 . S
C1310 H1280 0.950 . S
C1310 C1309 1.524 . S
C1310 C1311 1.415 . S
C1311 H1281 0.950 . S
C1311 C1306 1.372 1_655 S
C1311 C1310 1.415 . S
H1312 C1309 0.999 . S
H1313 C1294 0.913 . S
H1314 C1332 0.951 . S
H1315 C1334 0.951 . S
H1316 C1336 0.950 . S
H1317 C1337 0.950 . S
H1318 C1339 0.950 . S
H1319 C1342 0.950 . S
H1320 C1343 0.950 . S
H1321 C1345 0.950 . S
H1322 C1346 0.950 . S
H1323 C1347 0.951 . S
H1324 C1349 0.951 . S
H1325 C1351 0.950 . S
H1326 C1352 0.950 . S
H1327 C1354 0.950 . S
H1328 C1357 0.950 . S
H1329 C1358 0.950 . S
H1330 C1360 0.950 . S
H1331 C1361 0.950 . S
C1332 H1314 0.951 . S
C1332 C1333 1.366 . S
C1332 C1334 1.388 . S
C1333 C1332 1.366 . S
C1333 C1337 1.385 . S
C1334 H1315 0.951 . S
C1334 C1332 1.388 . S
C1334 C1335 1.366 . S
C1335 C1334 1.366 . S
C1335 C1336 1.414 . S
C1335 C1338 1.499 . S
C1336 H1316 0.950 . S
C1336 C1335 1.414 . S
C1336 C1337 1.374 . S
C1337 H1317 0.950 . S
C1337 C1333 1.385 . S
C1337 C1336 1.374 . S
C1338 C1335 1.499 . S
C1338 C1339 1.373 1_565 S
C1338 C1340 1.389 . S
C1339 H1318 0.950 . S
C1339 C1338 1.373 1_545 S
C1339 C1355 1.377 . S
C1340 C1338 1.389 . S
C1340 C1341 1.524 . S
C1340 C1354 1.377 . S
C1341 C1340 1.524 . S
C1341 C1342 1.397 . S
C1341 C1346 1.363 . S
C1342 H1319 0.950 . S
C1342 C1341 1.397 . S
C1342 C1343 1.334 . S
C1343 H1320 0.950 . S
C1343 C1342 1.334 . S
C1343 C1344 1.287 . S
C1344 C1343 1.287 . S
C1344 C1345 1.524 . S
C1344 H1363 0.913 . S
C1345 H1321 0.950 . S
C1345 C1344 1.524 . S
C1345 C1346 1.415 . S
C1346 H1322 0.950 . S
C1346 C1341 1.363 . S
C1346 C1345 1.415 . S
C1347 H1323 0.951 . S
C1347 C1348 1.366 . S
C1347 C1349 1.388 . S
C1348 C1347 1.366 . S
C1348 C1352 1.385 . S
C1349 H1324 0.951 . S
C1349 C1347 1.388 . S
C1349 C1350 1.366 . S
C1350 C1349 1.366 . S
C1350 C1351 1.414 . S
C1350 C1353 1.499 . S
C1351 H1325 0.950 . S
C1351 C1350 1.414 . S
C1351 C1352 1.374 . S
C1352 H1326 0.950 . S
C1352 C1348 1.385 . S
C1352 C1351 1.374 . S
C1353 C1350 1.499 . S
C1353 C1354 1.373 1_545 S
C1353 C1355 1.389 . S
C1354 H1327 0.950 . S
C1354 C1340 1.377 . S
C1354 C1353 1.373 1_565 S
C1355 C1339 1.377 . S
C1355 C1353 1.389 . S
C1355 C1356 1.524 . S
C1356 C1355 1.524 . S
C1356 C1357 1.397 . S
C1356 C1361 1.363 . S
C1357 H1328 0.950 . S
C1357 C1356 1.397 . S
C1357 C1358 1.334 . S
C1358 H1329 0.950 . S
C1358 C1357 1.334 . S
C1358 C1359 1.287 . S
C1359 C1358 1.287 . S
C1359 C1360 1.524 . S
C1359 H1362 0.999 . S
C1360 H1330 0.950 . S
C1360 C1359 1.524 . S
C1360 C1361 1.415 . S
C1361 H1331 0.950 . S
C1361 C1356 1.363 . S
C1361 C1360 1.415 . S
H1362 C1359 0.999 . S
H1363 C1344 0.913 . S
H1364 C1382 0.951 . S
H1365 C1384 0.951 . S
H1366 C1386 0.950 . S
H1367 C1387 0.950 . S
H1368 C1389 0.950 . S
H1369 C1392 0.950 . S
H1370 C1393 0.950 . S
H1371 C1395 0.950 . S
H1372 C1396 0.950 . S
H1373 C1397 0.951 . S
H1374 C1399 0.951 . S
H1375 C1401 0.950 . S
H1376 C1402 0.950 . S
H1377 C1404 0.950 . S
H1378 C1407 0.950 . S
H1379 C1408 0.950 . S
H1380 C1410 0.950 . S
H1381 C1411 0.950 . S
C1382 H1364 0.951 . S
C1382 C1383 1.366 . S
C1382 C1384 1.388 . S
C1383 C1382 1.366 . S
C1383 C1387 1.385 . S
C1384 H1365 0.951 . S
C1384 C1382 1.388 . S
C1384 C1385 1.366 . S
C1385 C1384 1.366 . S
C1385 C1386 1.414 . S
C1385 C1388 1.499 . S
C1386 H1366 0.950 . S
C1386 C1385 1.414 . S
C1386 C1387 1.374 . S
C1387 H1367 0.950 . S
C1387 C1383 1.385 . S
C1387 C1386 1.374 . S
C1388 C1385 1.499 . S
C1388 C1389 1.373 . S
C1388 C1390 1.389 . S
C1389 H1368 0.950 . S
C1389 C1388 1.373 . S
C1389 C1405 1.377 . S
C1390 C1388 1.389 . S
C1390 C1391 1.524 . S
C1390 C1404 1.377 . S
C1391 C1390 1.524 . S
C1391 C1392 1.397 . S
C1391 C1396 1.363 . S
C1392 H1369 0.950 . S
C1392 C1391 1.397 . S
C1392 C1393 1.334 . S
C1393 H1370 0.950 . S
C1393 C1392 1.334 . S
C1393 C1394 1.287 . S
C1394 C1393 1.287 . S
C1394 C1395 1.524 . S
C1394 H1413 0.913 . S
C1395 H1371 0.950 . S
C1395 C1394 1.524 . S
C1395 C1396 1.415 . S
C1396 H1372 0.950 . S
C1396 C1391 1.363 . S
C1396 C1395 1.415 . S
C1397 H1373 0.951 . S
C1397 C1398 1.366 . S
C1397 C1399 1.388 . S
C1398 C1397 1.366 . S
C1398 C1402 1.385 . S
C1399 H1374 0.951 . S
C1399 C1397 1.388 . S
C1399 C1400 1.366 . S
C1400 C1399 1.366 . S
C1400 C1401 1.414 . S
C1400 C1403 1.499 . S
C1401 H1375 0.950 . S
C1401 C1400 1.414 . S
C1401 C1402 1.374 . S
C1402 H1376 0.950 . S
C1402 C1398 1.385 . S
C1402 C1401 1.374 . S
C1403 C1400 1.499 . S
C1403 C1404 1.373 . S
C1403 C1405 1.389 . S
C1404 H1377 0.950 . S
C1404 C1390 1.377 . S
C1404 C1403 1.373 . S
C1405 C1389 1.377 . S
C1405 C1403 1.389 . S
C1405 C1406 1.524 . S
C1406 C1405 1.524 . S
C1406 C1407 1.397 . S
C1406 C1411 1.363 . S
C1407 H1378 0.950 . S
C1407 C1406 1.397 . S
C1407 C1408 1.334 . S
C1408 H1379 0.950 . S
C1408 C1407 1.334 . S
C1408 C1409 1.287 . S
C1409 C1408 1.287 . S
C1409 C1410 1.524 . S
C1409 H1412 0.999 . S
C1410 H1380 0.950 . S
C1410 C1409 1.524 . S
C1410 C1411 1.415 . S
C1411 H1381 0.950 . S
C1411 C1406 1.363 . S
C1411 C1410 1.415 . S
H1412 C1409 0.999 . S
H1413 C1394 0.913 . S
H1414 C1432 0.951 . S
H1415 C1434 0.951 . S
H1416 C1436 0.950 . S
H1417 C1437 0.950 . S
H1418 C1439 0.950 . S
H1419 C1442 0.950 . S
H1420 C1443 0.950 . S
H1421 C1445 0.950 . S
H1422 C1446 0.950 . S
H1423 C1447 0.951 . S
H1424 C1449 0.951 . S
H1425 C1451 0.950 . S
H1426 C1452 0.950 . S
H1427 C1454 0.950 . S
H1428 C1457 0.950 . S
H1429 C1458 0.950 . S
H1430 C1460 0.950 . S
H1431 C1461 0.950 . S
C1432 H1414 0.951 . S
C1432 C1433 1.366 . S
C1432 C1434 1.388 . S
C1433 C1432 1.366 . S
C1433 C1437 1.385 . S
C1434 H1415 0.951 . S
C1434 C1432 1.388 . S
C1434 C1435 1.366 . S
C1435 C1434 1.366 . S
C1435 C1436 1.414 . S
C1435 C1438 1.499 . S
C1436 H1416 0.950 . S
C1436 C1435 1.414 . S
C1436 C1437 1.374 . S
C1437 H1417 0.950 . S
C1437 C1433 1.385 . S
C1437 C1436 1.374 . S
C1438 C1435 1.499 . S
C1438 C1439 1.373 1_655 S
C1438 C1440 1.389 . S
C1439 H1418 0.950 . S
C1439 C1438 1.373 1_455 S
C1439 C1455 1.377 . S
C1440 C1438 1.389 . S
C1440 C1441 1.524 . S
C1440 C1454 1.377 . S
C1441 C1440 1.524 . S
C1441 C1442 1.397 . S
C1441 C1446 1.363 . S
C1442 H1419 0.950 . S
C1442 C1441 1.397 . S
C1442 C1443 1.334 . S
C1443 H1420 0.950 . S
C1443 C1442 1.334 . S
C1443 C1444 1.287 . S
C1444 C1443 1.287 . S
C1444 C1445 1.524 . S
C1444 H1463 0.913 . S
C1445 H1421 0.950 . S
C1445 C1444 1.524 . S
C1445 C1446 1.415 . S
C1446 H1422 0.950 . S
C1446 C1441 1.363 . S
C1446 C1445 1.415 . S
C1447 H1423 0.951 . S
C1447 C1448 1.366 . S
C1447 C1449 1.388 . S
C1448 C1447 1.366 . S
C1448 C1452 1.385 . S
C1449 H1424 0.951 . S
C1449 C1447 1.388 . S
C1449 C1450 1.366 . S
C1450 C1449 1.366 . S
C1450 C1451 1.414 . S
C1450 C1453 1.499 . S
C1451 H1425 0.950 . S
C1451 C1450 1.414 . S
C1451 C1452 1.374 . S
C1452 H1426 0.950 . S
C1452 C1448 1.385 . S
C1452 C1451 1.374 . S
C1453 C1450 1.499 . S
C1453 C1454 1.373 1_455 S
C1453 C1455 1.389 . S
C1454 H1427 0.950 . S
C1454 C1440 1.377 . S
C1454 C1453 1.373 1_655 S
C1455 C1439 1.377 . S
C1455 C1453 1.389 . S
C1455 C1456 1.524 . S
C1456 C1455 1.524 . S
C1456 C1457 1.397 . S
C1456 C1461 1.363 . S
C1457 H1428 0.950 . S
C1457 C1456 1.397 . S
C1457 C1458 1.334 . S
C1458 H1429 0.950 . S
C1458 C1457 1.334 . S
C1458 C1459 1.287 . S
C1459 C1458 1.287 . S
C1459 C1460 1.524 . S
C1459 H1462 0.999 . S
C1460 H1430 0.950 . S
C1460 C1459 1.524 . S
C1460 C1461 1.415 . S
C1461 H1431 0.950 . S
C1461 C1456 1.363 . S
C1461 C1460 1.415 . S
H1462 C1459 0.999 . S
H1463 C1444 0.913 . S
H1464 C1482 0.951 . S
H1465 C1484 0.951 . S
H1466 C1486 0.950 . S
H1467 C1487 0.950 . S
H1468 C1489 0.950 . S
H1469 C1492 0.950 . S
H1470 C1493 0.950 . S
H1471 C1495 0.950 . S
H1472 C1496 0.950 . S
H1473 C1497 0.951 . S
H1474 C1499 0.951 . S
H1475 C1501 0.950 . S
H1476 C1502 0.950 . S
H1477 C1504 0.950 . S
H1478 C1507 0.950 . S
H1479 C1508 0.950 . S
H1480 C1510 0.950 . S
H1481 C1511 0.950 . S
C1482 H1464 0.951 . S
C1482 C1483 1.366 . S
C1482 C1484 1.388 . S
C1483 C1482 1.366 . S
C1483 C1487 1.385 . S
C1484 H1465 0.951 . S
C1484 C1482 1.388 . S
C1484 C1485 1.366 . S
C1485 C1484 1.366 . S
C1485 C1486 1.414 . S
C1485 C1488 1.499 . S
C1486 H1466 0.950 . S
C1486 C1485 1.414 . S
C1486 C1487 1.374 . S
C1487 H1467 0.950 . S
C1487 C1483 1.385 . S
C1487 C1486 1.374 . S
C1488 C1485 1.499 . S
C1488 C1489 1.373 . S
C1488 C1490 1.389 . S
C1489 H1468 0.950 . S
C1489 C1488 1.373 . S
C1489 C1505 1.377 . S
C1490 C1488 1.389 . S
C1490 C1491 1.524 . S
C1490 C1504 1.377 . S
C1491 C1490 1.524 . S
C1491 C1492 1.397 . S
C1491 C1496 1.363 . S
C1492 H1469 0.950 . S
C1492 C1491 1.397 . S
C1492 C1493 1.334 . S
C1493 H1470 0.950 . S
C1493 C1492 1.334 . S
C1493 C1494 1.287 . S
C1494 C1493 1.287 . S
C1494 C1495 1.524 . S
C1494 H1513 0.913 . S
C1495 H1471 0.950 . S
C1495 C1494 1.524 . S
C1495 C1496 1.415 . S
C1496 H1472 0.950 . S
C1496 C1491 1.363 . S
C1496 C1495 1.415 . S
C1497 H1473 0.951 . S
C1497 C1498 1.366 . S
C1497 C1499 1.388 . S
C1498 C1497 1.366 . S
C1498 C1502 1.385 . S
C1499 H1474 0.951 . S
C1499 C1497 1.388 . S
C1499 C1500 1.366 . S
C1500 C1499 1.366 . S
C1500 C1501 1.414 . S
C1500 C1503 1.499 . S
C1501 H1475 0.950 . S
C1501 C1500 1.414 . S
C1501 C1502 1.374 . S
C1502 H1476 0.950 . S
C1502 C1498 1.385 . S
C1502 C1501 1.374 . S
C1503 C1500 1.499 . S
C1503 C1504 1.373 . S
C1503 C1505 1.389 . S
C1504 H1477 0.950 . S
C1504 C1490 1.377 . S
C1504 C1503 1.373 . S
C1505 C1489 1.377 . S
C1505 C1503 1.389 . S
C1505 C1506 1.524 . S
C1506 C1505 1.524 . S
C1506 C1507 1.397 . S
C1506 C1511 1.363 . S
C1507 H1478 0.950 . S
C1507 C1506 1.397 . S
C1507 C1508 1.334 . S
C1508 H1479 0.950 . S
C1508 C1507 1.334 . S
C1508 C1509 1.287 . S
C1509 C1508 1.287 . S
C1509 C1510 1.524 . S
C1509 H1512 0.999 . S
C1510 H1480 0.950 . S
C1510 C1509 1.524 . S
C1510 C1511 1.415 . S
C1511 H1481 0.950 . S
C1511 C1506 1.363 . S
C1511 C1510 1.415 . S
H1512 C1509 0.999 . S
H1513 C1494 0.913 . S
H1514 C1532 0.951 . S
H1515 C1534 0.951 . S
H1516 C1536 0.950 . S
H1517 C1537 0.950 . S
H1518 C1539 0.950 . S
H1519 C1542 0.950 . S
H1520 C1543 0.950 . S
H1521 C1545 0.950 . S
H1522 C1546 0.950 . S
H1523 C1547 0.951 . S
H1524 C1549 0.951 . S
H1525 C1551 0.950 . S
H1526 C1552 0.950 . S
H1527 C1554 0.950 . S
H1528 C1557 0.950 . S
H1529 C1558 0.950 . S
H1530 C1560 0.950 . S
H1531 C1561 0.950 . S
C1532 H1514 0.951 . S
C1532 C1533 1.366 . S
C1532 C1534 1.388 . S
C1533 C1532 1.366 . S
C1533 C1537 1.385 . S
C1534 H1515 0.951 . S
C1534 C1532 1.388 . S
C1534 C1535 1.366 . S
C1535 C1534 1.366 . S
C1535 C1536 1.414 . S
C1535 C1538 1.499 . S
C1536 H1516 0.950 . S
C1536 C1535 1.414 . S
C1536 C1537 1.374 . S
C1537 H1517 0.950 . S
C1537 C1533 1.385 . S
C1537 C1536 1.374 . S
C1538 C1535 1.499 . S
C1538 C1539 1.373 . S
C1538 C1540 1.389 . S
C1539 H1518 0.950 . S
C1539 C1538 1.373 . S
C1539 C1555 1.377 . S
C1540 C1538 1.389 . S
C1540 C1541 1.524 . S
C1540 C1554 1.377 . S
C1541 C1540 1.524 . S
C1541 C1542 1.397 . S
C1541 C1546 1.363 . S
C1542 H1519 0.950 . S
C1542 C1541 1.397 . S
C1542 C1543 1.334 . S
C1543 H1520 0.950 . S
C1543 C1542 1.334 . S
C1543 C1544 1.287 . S
C1544 C1543 1.287 . S
C1544 C1545 1.524 . S
C1544 H1563 0.913 . S
C1545 H1521 0.950 . S
C1545 C1544 1.524 . S
C1545 C1546 1.415 . S
C1546 H1522 0.950 . S
C1546 C1541 1.363 . S
C1546 C1545 1.415 . S
C1547 H1523 0.951 . S
C1547 C1548 1.366 . S
C1547 C1549 1.388 . S
C1548 C1547 1.366 . S
C1548 C1552 1.385 . S
C1549 H1524 0.951 . S
C1549 C1547 1.388 . S
C1549 C1550 1.366 . S
C1550 C1549 1.366 . S
C1550 C1551 1.414 . S
C1550 C1553 1.499 . S
C1551 H1525 0.950 . S
C1551 C1550 1.414 . S
C1551 C1552 1.374 . S
C1552 H1526 0.950 . S
C1552 C1548 1.385 . S
C1552 C1551 1.374 . S
C1553 C1550 1.499 . S
C1553 C1554 1.373 . S
C1553 C1555 1.389 . S
C1554 H1527 0.950 . S
C1554 C1540 1.377 . S
C1554 C1553 1.373 . S
C1555 C1539 1.377 . S
C1555 C1553 1.389 . S
C1555 C1556 1.524 . S
C1556 C1555 1.524 . S
C1556 C1557 1.397 . S
C1556 C1561 1.363 . S
C1557 H1528 0.950 . S
C1557 C1556 1.397 . S
C1557 C1558 1.334 . S
C1558 H1529 0.950 . S
C1558 C1557 1.334 . S
C1558 C1559 1.287 . S
C1559 C1558 1.287 . S
C1559 C1560 1.524 . S
C1559 H1562 0.999 . S
C1560 H1530 0.950 . S
C1560 C1559 1.524 . S
C1560 C1561 1.415 . S
C1561 H1531 0.950 . S
C1561 C1556 1.363 . S
C1561 C1560 1.415 . S
H1562 C1559 0.999 . S
H1563 C1544 0.913 . S
H1564 C1582 0.951 . S
H1565 C1584 0.951 . S
H1566 C1586 0.950 . S
H1567 C1587 0.950 . S
H1568 C1589 0.950 . S
H1569 C1592 0.950 . S
H1570 C1593 0.950 . S
H1571 C1595 0.950 . S
H1572 C1596 0.950 . S
H1573 C1597 0.951 . S
H1574 C1599 0.951 . S
H1575 C1601 0.950 . S
H1576 C1602 0.950 . S
H1577 C1604 0.950 . S
H1578 C1607 0.950 . S
H1579 C1608 0.950 . S
H1580 C1610 0.950 . S
H1581 C1611 0.950 . S
C1582 H1564 0.951 . S
C1582 C1583 1.366 . S
C1582 C1584 1.388 . S
C1583 C1582 1.366 . S
C1583 C1587 1.385 . S
C1584 H1565 0.951 . S
C1584 C1582 1.388 . S
C1584 C1585 1.366 . S
C1585 C1584 1.366 . S
C1585 C1586 1.414 . S
C1585 C1588 1.499 . S
C1586 H1566 0.950 . S
C1586 C1585 1.414 . S
C1586 C1587 1.374 . S
C1587 H1567 0.950 . S
C1587 C1583 1.385 . S
C1587 C1586 1.374 . S
C1588 C1585 1.499 . S
C1588 C1589 1.373 . S
C1588 C1590 1.389 . S
C1589 H1568 0.950 . S
C1589 C1588 1.373 . S
C1589 C1605 1.377 . S
C1590 C1588 1.389 . S
C1590 C1591 1.524 . S
C1590 C1604 1.377 . S
C1591 C1590 1.524 . S
C1591 C1592 1.397 . S
C1591 C1596 1.363 . S
C1592 H1569 0.950 . S
C1592 C1591 1.397 . S
C1592 C1593 1.334 . S
C1593 H1570 0.950 . S
C1593 C1592 1.334 . S
C1593 C1594 1.287 . S
C1594 C1593 1.287 . S
C1594 C1595 1.524 . S
C1594 H1613 0.913 . S
C1595 H1571 0.950 . S
C1595 C1594 1.524 . S
C1595 C1596 1.415 . S
C1596 H1572 0.950 . S
C1596 C1591 1.363 . S
C1596 C1595 1.415 . S
C1597 H1573 0.951 . S
C1597 C1598 1.366 . S
C1597 C1599 1.388 . S
C1598 C1597 1.366 . S
C1598 C1602 1.385 . S
C1599 H1574 0.951 . S
C1599 C1597 1.388 . S
C1599 C1600 1.366 . S
C1600 C1599 1.366 . S
C1600 C1601 1.414 . S
C1600 C1603 1.499 . S
C1601 H1575 0.950 . S
C1601 C1600 1.414 . S
C1601 C1602 1.374 . S
C1602 H1576 0.950 . S
C1602 C1598 1.385 . S
C1602 C1601 1.374 . S
C1603 C1600 1.499 . S
C1603 C1604 1.373 . S
C1603 C1605 1.389 . S
C1604 H1577 0.950 . S
C1604 C1590 1.377 . S
C1604 C1603 1.373 . S
C1605 C1589 1.377 . S
C1605 C1603 1.389 . S
C1605 C1606 1.524 . S
C1606 C1605 1.524 . S
C1606 C1607 1.397 . S
C1606 C1611 1.363 . S
C1607 H1578 0.950 . S
C1607 C1606 1.397 . S
C1607 C1608 1.334 . S
C1608 H1579 0.950 . S
C1608 C1607 1.334 . S
C1608 C1609 1.287 . S
C1609 C1608 1.287 . S
C1609 C1610 1.524 . S
C1609 H1612 0.999 . S
C1610 H1580 0.950 . S
C1610 C1609 1.524 . S
C1610 C1611 1.415 . S
C1611 H1581 0.950 . S
C1611 C1606 1.363 . S
C1611 C1610 1.415 . S
H1612 C1609 0.999 . S
H1613 C1594 0.913 . S
H1614 C1632 0.951 . S
H1615 C1634 0.951 . S
H1616 C1636 0.950 . S
H1617 C1637 0.950 . S
H1618 C1639 0.950 . S
H1619 C1642 0.950 . S
H1620 C1643 0.950 . S
H1621 C1645 0.950 . S
H1622 C1646 0.950 . S
H1623 C1647 0.951 . S
H1624 C1649 0.951 . S
H1625 C1651 0.950 . S
H1626 C1652 0.950 . S
H1627 C1654 0.950 . S
H1628 C1657 0.950 . S
H1629 C1658 0.950 . S
H1630 C1660 0.950 . S
H1631 C1661 0.950 . S
C1632 H1614 0.951 . S
C1632 C1633 1.366 . S
C1632 C1634 1.388 . S
C1633 C1632 1.366 . S
C1633 C1637 1.385 . S
C1634 H1615 0.951 . S
C1634 C1632 1.388 . S
C1634 C1635 1.366 . S
C1635 C1634 1.366 . S
C1635 C1636 1.414 . S
C1635 C1638 1.499 . S
C1636 H1616 0.950 . S
C1636 C1635 1.414 . S
C1636 C1637 1.374 . S
C1637 H1617 0.950 . S
C1637 C1633 1.385 . S
C1637 C1636 1.374 . S
C1638 C1635 1.499 . S
C1638 C1639 1.373 . S
C1638 C1640 1.389 . S
C1639 H1618 0.950 . S
C1639 C1638 1.373 . S
C1639 C1655 1.377 . S
C1640 C1638 1.389 . S
C1640 C1641 1.524 . S
C1640 C1654 1.377 . S
C1641 C1640 1.524 . S
C1641 C1642 1.397 . S
C1641 C1646 1.363 . S
C1642 H1619 0.950 . S
C1642 C1641 1.397 . S
C1642 C1643 1.334 . S
C1643 H1620 0.950 . S
C1643 C1642 1.334 . S
C1643 C1644 1.287 . S
C1644 C1643 1.287 . S
C1644 C1645 1.524 . S
C1644 H1663 0.913 . S
C1645 H1621 0.950 . S
C1645 C1644 1.524 . S
C1645 C1646 1.415 . S
C1646 H1622 0.950 . S
C1646 C1641 1.363 . S
C1646 C1645 1.415 . S
C1647 H1623 0.951 . S
C1647 C1648 1.366 . S
C1647 C1649 1.388 . S
C1648 C1647 1.366 . S
C1648 C1652 1.385 . S
C1649 H1624 0.951 . S
C1649 C1647 1.388 . S
C1649 C1650 1.366 . S
C1650 C1649 1.366 . S
C1650 C1651 1.414 . S
C1650 C1653 1.499 . S
C1651 H1625 0.950 . S
C1651 C1650 1.414 . S
C1651 C1652 1.374 . S
C1652 H1626 0.950 . S
C1652 C1648 1.385 . S
C1652 C1651 1.374 . S
C1653 C1650 1.499 . S
C1653 C1654 1.373 . S
C1653 C1655 1.389 . S
C1654 H1627 0.950 . S
C1654 C1640 1.377 . S
C1654 C1653 1.373 . S
C1655 C1639 1.377 . S
C1655 C1653 1.389 . S
C1655 C1656 1.524 . S
C1656 C1655 1.524 . S
C1656 C1657 1.397 . S
C1656 C1661 1.363 . S
C1657 H1628 0.950 . S
C1657 C1656 1.397 . S
C1657 C1658 1.334 . S
C1658 H1629 0.950 . S
C1658 C1657 1.334 . S
C1658 C1659 1.287 . S
C1659 C1658 1.287 . S
C1659 C1660 1.524 . S
C1659 H1662 0.999 . S
C1660 H1630 0.950 . S
C1660 C1659 1.524 . S
C1660 C1661 1.415 . S
C1661 H1631 0.950 . S
C1661 C1656 1.363 . S
C1661 C1660 1.415 . S
H1662 C1659 0.999 . S
H1663 C1644 0.913 . S
H1664 C1682 0.951 . S
H1665 C1684 0.951 . S
H1666 C1686 0.950 . S
H1667 C1687 0.950 . S
H1668 C1689 0.950 . S
H1669 C1692 0.950 . S
H1670 C1693 0.950 . S
H1671 C1695 0.950 . S
H1672 C1696 0.950 . S
H1673 C1697 0.951 . S
H1674 C1699 0.951 . S
H1675 C1701 0.950 . S
H1676 C1702 0.950 . S
H1677 C1704 0.950 . S
H1678 C1707 0.950 . S
H1679 C1708 0.950 . S
H1680 C1710 0.950 . S
H1681 C1711 0.950 . S
C1682 H1664 0.951 . S
C1682 C1683 1.366 . S
C1682 C1684 1.388 . S
C1683 C1682 1.366 . S
C1683 C1687 1.385 . S
C1684 H1665 0.951 . S
C1684 C1682 1.388 . S
C1684 C1685 1.366 . S
C1685 C1684 1.366 . S
C1685 C1686 1.414 . S
C1685 C1688 1.499 . S
C1686 H1666 0.950 . S
C1686 C1685 1.414 . S
C1686 C1687 1.374 . S
C1687 H1667 0.950 . S
C1687 C1683 1.385 . S
C1687 C1686 1.374 . S
C1688 C1685 1.499 . S
C1688 C1689 1.373 . S
C1688 C1690 1.389 . S
C1689 H1668 0.950 . S
C1689 C1688 1.373 . S
C1689 C1705 1.377 . S
C1690 C1688 1.389 . S
C1690 C1691 1.524 . S
C1690 C1704 1.377 . S
C1691 C1690 1.524 . S
C1691 C1692 1.397 . S
C1691 C1696 1.363 . S
C1692 H1669 0.950 . S
C1692 C1691 1.397 . S
C1692 C1693 1.334 . S
C1693 H1670 0.950 . S
C1693 C1692 1.334 . S
C1693 C1694 1.287 . S
C1694 C1693 1.287 . S
C1694 C1695 1.524 . S
C1694 H1713 0.913 . S
C1695 H1671 0.950 . S
C1695 C1694 1.524 . S
C1695 C1696 1.415 . S
C1696 H1672 0.950 . S
C1696 C1691 1.363 . S
C1696 C1695 1.415 . S
C1697 H1673 0.951 . S
C1697 C1698 1.366 . S
C1697 C1699 1.388 . S
C1698 C1697 1.366 . S
C1698 C1702 1.385 . S
C1699 H1674 0.951 . S
C1699 C1697 1.388 . S
C1699 C1700 1.366 . S
C1700 C1699 1.366 . S
C1700 C1701 1.414 . S
C1700 C1703 1.499 . S
C1701 H1675 0.950 . S
C1701 C1700 1.414 . S
C1701 C1702 1.374 . S
C1702 H1676 0.950 . S
C1702 C1698 1.385 . S
C1702 C1701 1.374 . S
C1703 C1700 1.499 . S
C1703 C1704 1.373 . S
C1703 C1705 1.389 . S
C1704 H1677 0.950 . S
C1704 C1690 1.377 . S
C1704 C1703 1.373 . S
C1705 C1689 1.377 . S
C1705 C1703 1.389 . S
C1705 C1706 1.524 . S
C1706 C1705 1.524 . S
C1706 C1707 1.397 . S
C1706 C1711 1.363 . S
C1707 H1678 0.950 . S
C1707 C1706 1.397 . S
C1707 C1708 1.334 . S
C1708 H1679 0.950 . S
C1708 C1707 1.334 . S
C1708 C1709 1.287 . S
C1709 C1708 1.287 . S
C1709 C1710 1.524 . S
C1709 H1712 0.999 . S
C1710 H1680 0.950 . S
C1710 C1709 1.524 . S
C1710 C1711 1.415 . S
C1711 H1681 0.950 . S
C1711 C1706 1.363 . S
C1711 C1710 1.415 . S
H1712 C1709 0.999 . S
H1713 C1694 0.913 . S
H1714 C1732 0.951 . S
H1715 C1734 0.951 . S
H1716 C1736 0.950 . S
H1717 C1737 0.950 . S
H1718 C1739 0.950 . S
H1719 C1742 0.950 . S
H1720 C1743 0.950 . S
H1721 C1745 0.950 . S
H1722 C1746 0.950 . S
H1723 C1747 0.951 . S
H1724 C1749 0.951 . S
H1725 C1751 0.950 . S
H1726 C1752 0.950 . S
H1727 C1754 0.950 . S
H1728 C1757 0.950 . S
H1729 C1758 0.950 . S
H1730 C1760 0.950 . S
H1731 C1761 0.950 . S
C1732 H1714 0.951 . S
C1732 C1733 1.366 . S
C1732 C1734 1.388 . S
C1733 C1732 1.366 . S
C1733 C1737 1.385 . S
C1734 H1715 0.951 . S
C1734 C1732 1.388 . S
C1734 C1735 1.366 . S
C1735 C1734 1.366 . S
C1735 C1736 1.414 . S
C1735 C1738 1.499 . S
C1736 H1716 0.950 . S
C1736 C1735 1.414 . S
C1736 C1737 1.374 . S
C1737 H1717 0.950 . S
C1737 C1733 1.385 . S
C1737 C1736 1.374 . S
C1738 C1735 1.499 . S
C1738 C1739 1.373 . S
C1738 C1740 1.389 . S
C1739 H1718 0.950 . S
C1739 C1738 1.373 . S
C1739 C1755 1.377 . S
C1740 C1738 1.389 . S
C1740 C1741 1.524 . S
C1740 C1754 1.377 . S
C1741 C1740 1.524 . S
C1741 C1742 1.397 . S
C1741 C1746 1.363 . S
C1742 H1719 0.950 . S
C1742 C1741 1.397 . S
C1742 C1743 1.334 . S
C1743 H1720 0.950 . S
C1743 C1742 1.334 . S
C1743 C1744 1.287 . S
C1744 C1743 1.287 . S
C1744 C1745 1.524 . S
C1744 H1763 0.913 . S
C1745 H1721 0.950 . S
C1745 C1744 1.524 . S
C1745 C1746 1.415 . S
C1746 H1722 0.950 . S
C1746 C1741 1.363 . S
C1746 C1745 1.415 . S
C1747 H1723 0.951 . S
C1747 C1748 1.366 . S
C1747 C1749 1.388 . S
C1748 C1747 1.366 . S
C1748 C1752 1.385 . S
C1749 H1724 0.951 . S
C1749 C1747 1.388 . S
C1749 C1750 1.366 . S
C1750 C1749 1.366 . S
C1750 C1751 1.414 . S
C1750 C1753 1.499 . S
C1751 H1725 0.950 . S
C1751 C1750 1.414 . S
C1751 C1752 1.374 . S
C1752 H1726 0.950 . S
C1752 C1748 1.385 . S
C1752 C1751 1.374 . S
C1753 C1750 1.499 . S
C1753 C1754 1.373 . S
C1753 C1755 1.389 . S
C1754 H1727 0.950 . S
C1754 C1740 1.377 . S
C1754 C1753 1.373 . S
C1755 C1739 1.377 . S
C1755 C1753 1.389 . S
C1755 C1756 1.524 . S
C1756 C1755 1.524 . S
C1756 C1757 1.397 . S
C1756 C1761 1.363 . S
C1757 H1728 0.950 . S
C1757 C1756 1.397 . S
C1757 C1758 1.334 . S
C1758 H1729 0.950 . S
C1758 C1757 1.334 . S
C1758 C1759 1.287 . S
C1759 C1758 1.287 . S
C1759 C1760 1.524 . S
C1759 H1762 0.999 . S
C1760 H1730 0.950 . S
C1760 C1759 1.524 . S
C1760 C1761 1.415 . S
C1761 H1731 0.950 . S
C1761 C1756 1.363 . S
C1761 C1760 1.415 . S
H1762 C1759 0.999 . S
H1763 C1744 0.913 . S
H1764 C1782 0.951 . S
H1765 C1784 0.951 . S
H1766 C1786 0.950 . S
H1767 C1787 0.950 . S
H1768 C1789 0.950 . S
H1769 C1792 0.950 . S
H1770 C1793 0.950 . S
H1771 C1795 0.950 . S
H1772 C1796 0.950 . S
H1773 C1797 0.951 . S
H1774 C1799 0.951 . S
H1775 C1801 0.950 . S
H1776 C1802 0.950 . S
H1777 C1804 0.950 . S
H1778 C1807 0.950 . S
H1779 C1808 0.950 . S
H1780 C1810 0.950 . S
H1781 C1811 0.950 . S
C1782 H1764 0.951 . S
C1782 C1783 1.366 . S
C1782 C1784 1.388 . S
C1783 C1782 1.366 . S
C1783 C1787 1.385 . S
C1784 H1765 0.951 . S
C1784 C1782 1.388 . S
C1784 C1785 1.366 . S
C1785 C1784 1.366 . S
C1785 C1786 1.414 . S
C1785 C1788 1.499 . S
C1786 H1766 0.950 . S
C1786 C1785 1.414 . S
C1786 C1787 1.374 . S
C1787 H1767 0.950 . S
C1787 C1783 1.385 . S
C1787 C1786 1.374 . S
C1788 C1785 1.499 . S
C1788 C1789 1.373 . S
C1788 C1790 1.389 . S
C1789 H1768 0.950 . S
C1789 C1788 1.373 . S
C1789 C1805 1.377 . S
C1790 C1788 1.389 . S
C1790 C1791 1.524 . S
C1790 C1804 1.377 . S
C1791 C1790 1.524 . S
C1791 C1792 1.397 . S
C1791 C1796 1.363 . S
C1792 H1769 0.950 . S
C1792 C1791 1.397 . S
C1792 C1793 1.334 . S
C1793 H1770 0.950 . S
C1793 C1792 1.334 . S
C1793 C1794 1.287 . S
C1794 C1793 1.287 . S
C1794 C1795 1.524 . S
C1794 H1813 0.913 . S
C1795 H1771 0.950 . S
C1795 C1794 1.524 . S
C1795 C1796 1.415 . S
C1796 H1772 0.950 . S
C1796 C1791 1.363 . S
C1796 C1795 1.415 . S
C1797 H1773 0.951 . S
C1797 C1798 1.366 . S
C1797 C1799 1.388 . S
C1798 C1797 1.366 . S
C1798 C1802 1.385 . S
C1799 H1774 0.951 . S
C1799 C1797 1.388 . S
C1799 C1800 1.366 . S
C1800 C1799 1.366 . S
C1800 C1801 1.414 . S
C1800 C1803 1.499 . S
C1801 H1775 0.950 . S
C1801 C1800 1.414 . S
C1801 C1802 1.374 . S
C1802 H1776 0.950 . S
C1802 C1798 1.385 . S
C1802 C1801 1.374 . S
C1803 C1800 1.499 . S
C1803 C1804 1.373 . S
C1803 C1805 1.389 . S
C1804 H1777 0.950 . S
C1804 C1790 1.377 . S
C1804 C1803 1.373 . S
C1805 C1789 1.377 . S
C1805 C1803 1.389 . S
C1805 C1806 1.524 . S
C1806 C1805 1.524 . S
C1806 C1807 1.397 . S
C1806 C1811 1.363 . S
C1807 H1778 0.950 . S
C1807 C1806 1.397 . S
C1807 C1808 1.334 . S
C1808 H1779 0.950 . S
C1808 C1807 1.334 . S
C1808 C1809 1.287 . S
C1809 C1808 1.287 . S
C1809 C1810 1.524 . S
C1809 H1812 0.999 . S
C1810 H1780 0.950 . S
C1810 C1809 1.524 . S
C1810 C1811 1.415 . S
C1811 H1781 0.950 . S
C1811 C1806 1.363 . S
C1811 C1810 1.415 . S
H1812 C1809 0.999 . S
H1813 C1794 0.913 . S
H1814 C1832 0.951 . S
H1815 C1834 0.951 . S
H1816 C1836 0.950 . S
H1817 C1837 0.950 . S
H1818 C1839 0.950 . S
H1819 C1842 0.950 . S
H1820 C1843 0.950 . S
H1821 C1845 0.950 . S
H1822 C1846 0.950 . S
H1823 C1847 0.951 . S
H1824 C1849 0.951 . S
H1825 C1851 0.950 . S
H1826 C1852 0.950 . S
H1827 C1854 0.950 . S
H1828 C1857 0.950 . S
H1829 C1858 0.950 . S
H1830 C1860 0.950 . S
H1831 C1861 0.950 . S
C1832 H1814 0.951 . S
C1832 C1833 1.366 . S
C1832 C1834 1.388 . S
C1833 C1832 1.366 . S
C1833 C1837 1.385 . S
C1834 H1815 0.951 . S
C1834 C1832 1.388 . S
C1834 C1835 1.366 . S
C1835 C1834 1.366 . S
C1835 C1836 1.414 . S
C1835 C1838 1.499 . S
C1836 H1816 0.950 . S
C1836 C1835 1.414 . S
C1836 C1837 1.374 . S
C1837 H1817 0.950 . S
C1837 C1833 1.385 . S
C1837 C1836 1.374 . S
C1838 C1835 1.499 . S
C1838 C1839 1.373 . S
C1838 C1840 1.389 . S
C1839 H1818 0.950 . S
C1839 C1838 1.373 . S
C1839 C1855 1.377 . S
C1840 C1838 1.389 . S
C1840 C1841 1.524 . S
C1840 C1854 1.377 . S
C1841 C1840 1.524 . S
C1841 C1842 1.397 . S
C1841 C1846 1.363 . S
C1842 H1819 0.950 . S
C1842 C1841 1.397 . S
C1842 C1843 1.334 . S
C1843 H1820 0.950 . S
C1843 C1842 1.334 . S
C1843 C1844 1.287 . S
C1844 C1843 1.287 . S
C1844 C1845 1.524 . S
C1844 H1863 0.913 . S
C1845 H1821 0.950 . S
C1845 C1844 1.524 . S
C1845 C1846 1.415 . S
C1846 H1822 0.950 . S
C1846 C1841 1.363 . S
C1846 C1845 1.415 . S
C1847 H1823 0.951 . S
C1847 C1848 1.366 . S
C1847 C1849 1.388 . S
C1848 C1847 1.366 . S
C1848 C1852 1.385 . S
C1849 H1824 0.951 . S
C1849 C1847 1.388 . S
C1849 C1850 1.366 . S
C1850 C1849 1.366 . S
C1850 C1851 1.414 . S
C1850 C1853 1.499 . S
C1851 H1825 0.950 . S
C1851 C1850 1.414 . S
C1851 C1852 1.374 . S
C1852 H1826 0.950 . S
C1852 C1848 1.385 . S
C1852 C1851 1.374 . S
C1853 C1850 1.499 . S
C1853 C1854 1.373 . S
C1853 C1855 1.389 . S
C1854 H1827 0.950 . S
C1854 C1840 1.377 . S
C1854 C1853 1.373 . S
C1855 C1839 1.377 . S
C1855 C1853 1.389 . S
C1855 C1856 1.524 . S
C1856 C1855 1.524 . S
C1856 C1857 1.397 . S
C1856 C1861 1.363 . S
C1857 H1828 0.950 . S
C1857 C1856 1.397 . S
C1857 C1858 1.334 . S
C1858 H1829 0.950 . S
C1858 C1857 1.334 . S
C1858 C1859 1.287 . S
C1859 C1858 1.287 . S
C1859 C1860 1.524 . S
C1859 H1862 0.999 . S
C1860 H1830 0.950 . S
C1860 C1859 1.524 . S
C1860 C1861 1.415 . S
C1861 H1831 0.950 . S
C1861 C1856 1.363 . S
C1861 C1860 1.415 . S
H1862 C1859 0.999 . S
H1863 C1844 0.913 . S
H1864 C1882 0.951 . S
H1865 C1884 0.951 . S
H1866 C1886 0.950 . S
H1867 C1887 0.950 . S
H1868 C1889 0.950 . S
H1869 C1892 0.950 . S
H1870 C1893 0.950 . S
H1871 C1895 0.950 . S
H1872 C1896 0.950 . S
H1873 C1897 0.951 . S
H1874 C1899 0.951 . S
H1875 C1901 0.950 . S
H1876 C1902 0.950 . S
H1877 C1904 0.950 . S
H1878 C1907 0.950 . S
H1879 C1908 0.950 . S
H1880 C1910 0.950 . S
H1881 C1911 0.950 . S
C1882 H1864 0.951 . S
C1882 C1883 1.366 . S
C1882 C1884 1.388 . S
C1883 C1882 1.366 . S
C1883 C1887 1.385 . S
C1884 H1865 0.951 . S
C1884 C1882 1.388 . S
C1884 C1885 1.366 . S
C1885 C1884 1.366 . S
C1885 C1886 1.414 . S
C1885 C1888 1.499 . S
C1886 H1866 0.950 . S
C1886 C1885 1.414 . S
C1886 C1887 1.374 . S
C1887 H1867 0.950 . S
C1887 C1883 1.385 . S
C1887 C1886 1.374 . S
C1888 C1885 1.499 . S
C1888 C1889 1.373 . S
C1888 C1890 1.389 . S
C1889 H1868 0.950 . S
C1889 C1888 1.373 . S
C1889 C1905 1.377 . S
C1890 C1888 1.389 . S
C1890 C1891 1.524 . S
C1890 C1904 1.377 . S
C1891 C1890 1.524 . S
C1891 C1892 1.397 . S
C1891 C1896 1.363 . S
C1892 H1869 0.950 . S
C1892 C1891 1.397 . S
C1892 C1893 1.334 . S
C1893 H1870 0.950 . S
C1893 C1892 1.334 . S
C1893 C1894 1.287 . S
C1894 C1893 1.287 . S
C1894 C1895 1.524 . S
C1894 H1913 0.913 . S
C1895 H1871 0.950 . S
C1895 C1894 1.524 . S
C1895 C1896 1.415 . S
C1896 H1872 0.950 . S
C1896 C1891 1.363 . S
C1896 C1895 1.415 . S
C1897 H1873 0.951 . S
C1897 C1898 1.366 . S
C1897 C1899 1.388 . S
C1898 C1897 1.366 . S
C1898 C1902 1.385 . S
C1899 H1874 0.951 . S
C1899 C1897 1.388 . S
C1899 C1900 1.366 . S
C1900 C1899 1.366 . S
C1900 C1901 1.414 . S
C1900 C1903 1.499 . S
C1901 H1875 0.950 . S
C1901 C1900 1.414 . S
C1901 C1902 1.374 . S
C1902 H1876 0.950 . S
C1902 C1898 1.385 . S
C1902 C1901 1.374 . S
C1903 C1900 1.499 . S
C1903 C1904 1.373 . S
C1903 C1905 1.389 . S
C1904 H1877 0.950 . S
C1904 C1890 1.377 . S
C1904 C1903 1.373 . S
C1905 C1889 1.377 . S
C1905 C1903 1.389 . S
C1905 C1906 1.524 . S
C1906 C1905 1.524 . S
C1906 C1907 1.397 . S
C1906 C1911 1.363 . S
C1907 H1878 0.950 . S
C1907 C1906 1.397 . S
C1907 C1908 1.334 . S
C1908 H1879 0.950 . S
C1908 C1907 1.334 . S
C1908 C1909 1.287 . S
C1909 C1908 1.287 . S
C1909 C1910 1.524 . S
C1909 H1912 0.999 . S
C1910 H1880 0.950 . S
C1910 C1909 1.524 . S
C1910 C1911 1.415 . S
C1911 H1881 0.950 . S
C1911 C1906 1.363 . S
C1911 C1910 1.415 . S
H1912 C1909 0.999 . S
H1913 C1894 0.913 . S
H1914 C1932 0.951 . S
H1915 C1934 0.951 . S
H1916 C1936 0.950 . S
H1917 C1937 0.950 . S
H1918 C1939 0.950 . S
H1919 C1942 0.950 . S
H1920 C1943 0.950 . S
H1921 C1945 0.950 . S
H1922 C1946 0.950 . S
H1923 C1947 0.951 . S
H1924 C1949 0.951 . S
H1925 C1951 0.950 . S
H1926 C1952 0.950 . S
H1927 C1954 0.950 . S
H1928 C1957 0.950 . S
H1929 C1958 0.950 . S
H1930 C1960 0.950 . S
H1931 C1961 0.950 . S
C1932 H1914 0.951 . S
C1932 C1933 1.366 . S
C1932 C1934 1.388 . S
C1933 C1932 1.366 . S
C1933 C1937 1.385 . S
C1934 H1915 0.951 . S
C1934 C1932 1.388 . S
C1934 C1935 1.366 . S
C1935 C1934 1.366 . S
C1935 C1936 1.414 . S
C1935 C1938 1.499 . S
C1936 H1916 0.950 . S
C1936 C1935 1.414 . S
C1936 C1937 1.374 . S
C1937 H1917 0.950 . S
C1937 C1933 1.385 . S
C1937 C1936 1.374 . S
C1938 C1935 1.499 . S
C1938 C1939 1.373 . S
C1938 C1940 1.389 . S
C1939 H1918 0.950 . S
C1939 C1938 1.373 . S
C1939 C1955 1.377 . S
C1940 C1938 1.389 . S
C1940 C1941 1.524 . S
C1940 C1954 1.377 . S
C1941 C1940 1.524 . S
C1941 C1942 1.397 . S
C1941 C1946 1.363 . S
C1942 H1919 0.950 . S
C1942 C1941 1.397 . S
C1942 C1943 1.334 . S
C1943 H1920 0.950 . S
C1943 C1942 1.334 . S
C1943 C1944 1.287 . S
C1944 C1943 1.287 . S
C1944 C1945 1.524 . S
C1944 H1963 0.913 . S
C1945 H1921 0.950 . S
C1945 C1944 1.524 . S
C1945 C1946 1.415 . S
C1946 H1922 0.950 . S
C1946 C1941 1.363 . S
C1946 C1945 1.415 . S
C1947 H1923 0.951 . S
C1947 C1948 1.366 . S
C1947 C1949 1.388 . S
C1948 C1947 1.366 . S
C1948 C1952 1.385 . S
C1949 H1924 0.951 . S
C1949 C1947 1.388 . S
C1949 C1950 1.366 . S
C1950 C1949 1.366 . S
C1950 C1951 1.414 . S
C1950 C1953 1.499 . S
C1951 H1925 0.950 . S
C1951 C1950 1.414 . S
C1951 C1952 1.374 . S
C1952 H1926 0.950 . S
C1952 C1948 1.385 . S
C1952 C1951 1.374 . S
C1953 C1950 1.499 . S
C1953 C1954 1.373 . S
C1953 C1955 1.389 . S
C1954 H1927 0.950 . S
C1954 C1940 1.377 . S
C1954 C1953 1.373 . S
C1955 C1939 1.377 . S
C1955 C1953 1.389 . S
C1955 C1956 1.524 . S
C1956 C1955 1.524 . S
C1956 C1957 1.397 . S
C1956 C1961 1.363 . S
C1957 H1928 0.950 . S
C1957 C1956 1.397 . S
C1957 C1958 1.334 . S
C1958 H1929 0.950 . S
C1958 C1957 1.334 . S
C1958 C1959 1.287 . S
C1959 C1958 1.287 . S
C1959 C1960 1.524 . S
C1959 H1962 0.999 . S
C1960 H1930 0.950 . S
C1960 C1959 1.524 . S
C1960 C1961 1.415 . S
C1961 H1931 0.950 . S
C1961 C1956 1.363 . S
C1961 C1960 1.415 . S
H1962 C1959 0.999 . S
H1963 C1944 0.913 . S
H1964 C1982 0.951 . S
H1965 C1984 0.951 . S
H1966 C1986 0.950 . S
H1967 C1987 0.950 . S
H1968 C1989 0.950 . S
H1969 C1992 0.950 . S
H1970 C1993 0.950 . S
H1971 C1995 0.950 . S
H1972 C1996 0.950 . S
H1973 C1997 0.951 . S
H1974 C1999 0.951 . S
H1975 C2001 0.950 . S
H1976 C2002 0.950 . S
H1977 C2004 0.950 . S
H1978 C2007 0.950 . S
H1979 C2008 0.950 . S
H1980 C2010 0.950 . S
H1981 C2011 0.950 . S
C1982 H1964 0.951 . S
C1982 C1983 1.366 . S
C1982 C1984 1.388 . S
C1983 C1982 1.366 . S
C1983 C1987 1.385 . S
C1984 H1965 0.951 . S
C1984 C1982 1.388 . S
C1984 C1985 1.366 . S
C1985 C1984 1.366 . S
C1985 C1986 1.414 . S
C1985 C1988 1.499 . S
C1986 H1966 0.950 . S
C1986 C1985 1.414 . S
C1986 C1987 1.374 . S
C1987 H1967 0.950 . S
C1987 C1983 1.385 . S
C1987 C1986 1.374 . S
C1988 C1985 1.499 . S
C1988 C1989 1.373 . S
C1988 C1990 1.389 . S
C1989 H1968 0.950 . S
C1989 C1988 1.373 . S
C1989 C2005 1.377 . S
C1990 C1988 1.389 . S
C1990 C1991 1.524 . S
C1990 C2004 1.377 . S
C1991 C1990 1.524 . S
C1991 C1992 1.397 . S
C1991 C1996 1.363 . S
C1992 H1969 0.950 . S
C1992 C1991 1.397 . S
C1992 C1993 1.334 . S
C1993 H1970 0.950 . S
C1993 C1992 1.334 . S
C1993 C1994 1.287 . S
C1994 C1993 1.287 . S
C1994 C1995 1.524 . S
C1994 H2013 0.913 . S
C1995 H1971 0.950 . S
C1995 C1994 1.524 . S
C1995 C1996 1.415 . S
C1996 H1972 0.950 . S
C1996 C1991 1.363 . S
C1996 C1995 1.415 . S
C1997 H1973 0.951 . S
C1997 C1998 1.366 . S
C1997 C1999 1.388 . S
C1998 C1997 1.366 . S
C1998 C2002 1.385 . S
C1999 H1974 0.951 . S
C1999 C1997 1.388 . S
C1999 C2000 1.366 . S
C2000 C1999 1.366 . S
C2000 C2001 1.414 . S
C2000 C2003 1.499 . S
C2001 H1975 0.950 . S
C2001 C2000 1.414 . S
C2001 C2002 1.374 . S
C2002 H1976 0.950 . S
C2002 C1998 1.385 . S
C2002 C2001 1.374 . S
C2003 C2000 1.499 . S
C2003 C2004 1.373 . S
C2003 C2005 1.389 . S
C2004 H1977 0.950 . S
C2004 C1990 1.377 . S
C2004 C2003 1.373 . S
C2005 C1989 1.377 . S
C2005 C2003 1.389 . S
C2005 C2006 1.524 . S
C2006 C2005 1.524 . S
C2006 C2007 1.397 . S
C2006 C2011 1.363 . S
C2007 H1978 0.950 . S
C2007 C2006 1.397 . S
C2007 C2008 1.334 . S
C2008 H1979 0.950 . S
C2008 C2007 1.334 . S
C2008 C2009 1.287 . S
C2009 C2008 1.287 . S
C2009 C2010 1.524 . S
C2009 H2012 0.999 . S
C2010 H1980 0.950 . S
C2010 C2009 1.524 . S
C2010 C2011 1.415 . S
C2011 H1981 0.950 . S
C2011 C2006 1.363 . S
C2011 C2010 1.415 . S
H2012 C2009 0.999 . S
H2013 C1994 0.913 . S
H2014 C2032 0.951 . S
H2015 C2034 0.951 . S
H2016 C2036 0.950 . S
H2017 C2037 0.950 . S
H2018 C2039 0.950 . S
H2019 C2042 0.950 . S
H2020 C2043 0.950 . S
H2021 C2045 0.950 . S
H2022 C2046 0.950 . S
H2023 C2047 0.951 . S
H2024 C2049 0.951 . S
H2025 C2051 0.950 . S
H2026 C2052 0.950 . S
H2027 C2054 0.950 . S
H2028 C2057 0.950 . S
H2029 C2058 0.950 . S
H2030 C2060 0.950 . S
H2031 C2061 0.950 . S
C2032 H2014 0.951 . S
C2032 C2033 1.366 . S
C2032 C2034 1.388 . S
C2033 C2032 1.366 . S
C2033 C2037 1.385 . S
C2034 H2015 0.951 . S
C2034 C2032 1.388 . S
C2034 C2035 1.366 . S
C2035 C2034 1.366 . S
C2035 C2036 1.414 . S
C2035 C2038 1.499 . S
C2036 H2016 0.950 . S
C2036 C2035 1.414 . S
C2036 C2037 1.374 . S
C2037 H2017 0.950 . S
C2037 C2033 1.385 . S
C2037 C2036 1.374 . S
C2038 C2035 1.499 . S
C2038 C2039 1.373 . S
C2038 C2040 1.389 . S
C2039 H2018 0.950 . S
C2039 C2038 1.373 . S
C2039 C2055 1.377 . S
C2040 C2038 1.389 . S
C2040 C2041 1.524 . S
C2040 C2054 1.377 . S
C2041 C2040 1.524 . S
C2041 C2042 1.397 . S
C2041 C2046 1.363 . S
C2042 H2019 0.950 . S
C2042 C2041 1.397 . S
C2042 C2043 1.334 . S
C2043 H2020 0.950 . S
C2043 C2042 1.334 . S
C2043 C2044 1.287 . S
C2044 C2043 1.287 . S
C2044 C2045 1.524 . S
C2044 H2063 0.913 . S
C2045 H2021 0.950 . S
C2045 C2044 1.524 . S
C2045 C2046 1.415 . S
C2046 H2022 0.950 . S
C2046 C2041 1.363 . S
C2046 C2045 1.415 . S
C2047 H2023 0.951 . S
C2047 C2048 1.366 . S
C2047 C2049 1.388 . S
C2048 C2047 1.366 . S
C2048 C2052 1.385 . S
C2049 H2024 0.951 . S
C2049 C2047 1.388 . S
C2049 C2050 1.366 . S
C2050 C2049 1.366 . S
C2050 C2051 1.414 . S
C2050 C2053 1.499 . S
C2051 H2025 0.950 . S
C2051 C2050 1.414 . S
C2051 C2052 1.374 . S
C2052 H2026 0.950 . S
C2052 C2048 1.385 . S
C2052 C2051 1.374 . S
C2053 C2050 1.499 . S
C2053 C2054 1.373 . S
C2053 C2055 1.389 . S
C2054 H2027 0.950 . S
C2054 C2040 1.377 . S
C2054 C2053 1.373 . S
C2055 C2039 1.377 . S
C2055 C2053 1.389 . S
C2055 C2056 1.524 . S
C2056 C2055 1.524 . S
C2056 C2057 1.397 . S
C2056 C2061 1.363 . S
C2057 H2028 0.950 . S
C2057 C2056 1.397 . S
C2057 C2058 1.334 . S
C2058 H2029 0.950 . S
C2058 C2057 1.334 . S
C2058 C2059 1.287 . S
C2059 C2058 1.287 . S
C2059 C2060 1.524 . S
C2059 H2062 0.999 . S
C2060 H2030 0.950 . S
C2060 C2059 1.524 . S
C2060 C2061 1.415 . S
C2061 H2031 0.950 . S
C2061 C2056 1.363 . S
C2061 C2060 1.415 . S
H2062 C2059 0.999 . S
H2063 C2044 0.913 . S
C283 C8 1.070 . S
C298 C184 1.070 . S
C333 C216 1.070 . S
C348 C30 1.070 . S
C383 C62 1.071 . S
C398 C228 1.070 . S
C433 C260 1.070 . S
C448 C76 1.070 . S
C483 C98 1.070 . S
C498 C150 1.070 . S
C533 C172 1.070 . S
C548 C120 1.071 . S
C583 C249 1.202 . S
C598 C81 1.202 . S
C633 C103 1.202 . S
C648 C139 1.201 . S
C683 C161 1.201 . S
C698 C125 1.202 . S
C733 C197 1.202 . S
C748 C21 1.202 . S
C783 C205 1.202 . S
C798 C43 1.201 . S
C833 C51 1.201 . S
C848 C241 1.201 . S
C883 C162 1.142 . S
C898 C10 1.143 . S
C933 C186 1.143 . S
C948 C32 1.142 . S
C983 C206 1.142 . S
C998 C52 1.143 . S
C1033 C84 1.142 . S
C1048 C230 1.143 . S
C1083 C106 1.142 . S
C1098 C250 1.142 . S
C1133 C140 1.142 . S
C1148 C128 1.143 . S
C1183 C235 1.251 . S
C1198 C73 1.251 . S
C1233 C95 1.251 . S
C1248 C263 1.250 . S
C1283 C153 1.251 . S
C1298 C117 1.251 . S
C1333 C175 1.250 . S
C1348 C15 1.251 . S
C1383 C37 1.251 . S
C1398 C191 1.250 . S
C1433 C65 1.251 . S
C1448 C219 1.251 . S
C1483 C18 1.520 . S
C1498 C238 1.520 . S
C1533 C40 1.520 . S
C1548 C252 1.520 . S
C1583 C142 1.520 . S
C1598 C54 1.520 . S
C1633 C164 1.520 . S
C1648 C74 1.520 . S
C1683 C96 1.520 . S
C1698 C194 1.520 . S
C1733 C208 1.520 . S
C1748 C118 1.520 . S
C1783 C87 1.651 . S
C1798 C169 1.651 . S
C1833 C109 1.650 . S
C1848 C183 1.650 . S
C1883 C213 1.651 . S
C1898 C131 1.651 . S
C1933 C227 1.651 . S
C1948 C7 1.651 . S
C1983 C257 1.651 . S
C1998 C29 1.651 . S
C2033 C147 1.650 . S
C2048 C59 1.650 . S
