# Generated by pormake.
# Topology hal, (4)-cn, num edge types: 1
# Building blocks:
#     Node 0, Type 0, BuildingBlock: QUQFOY_clean_sbu_3, # of connection points: 4
#     Node 1, Type 0, BuildingBlock: QUQFOY_clean_sbu_3, # of connection points: 4
#     Node 2, Type 0, BuildingBlock: QUQFOY_clean_sbu_3, # of connection points: 4
#     Node 3, Type 0, BuildingBlock: QUQFOY_clean_sbu_3, # of connection points: 4
#     Node 4, Type 0, BuildingBlock: QUQFOY_clean_sbu_3, # of connection points: 4
#     Node 5, Type 0, BuildingBlock: QUQFOY_clean_sbu_3, # of connection points: 4
#     Node 6, Type 0, BuildingBlock: QUQFOY_clean_sbu_3, # of connection points: 4
#     Node 7, Type 0, BuildingBlock: QUQFOY_clean_sbu_3, # of connection points: 4
#     Node 8, Type 0, BuildingBlock: QUQFOY_clean_sbu_3, # of connection points: 4
#     Node 9, Type 0, BuildingBlock: QUQFOY_clean_sbu_3, # of connection points: 4
#     Node 10, Type 0, BuildingBlock: QUQFOY_clean_sbu_3, # of connection points: 4
#     Node 11, Type 0, BuildingBlock: QUQFOY_clean_sbu_3, # of connection points: 4
#     Node 12, Type 0, BuildingBlock: QUQFOY_clean_sbu_3, # of connection points: 4
#     Node 13, Type 0, BuildingBlock: QUQFOY_clean_sbu_3, # of connection points: 4
#     Node 14, Type 0, BuildingBlock: QUQFOY_clean_sbu_3, # of connection points: 4
#     Node 15, Type 0, BuildingBlock: QUQFOY_clean_sbu_3, # of connection points: 4
#     Node 16, Type 0, BuildingBlock: QUQFOY_clean_sbu_3, # of connection points: 4
#     Node 17, Type 0, BuildingBlock: QUQFOY_clean_sbu_3, # of connection points: 4
#     Node 18, Type 0, BuildingBlock: QUQFOY_clean_sbu_3, # of connection points: 4
#     Node 19, Type 0, BuildingBlock: QUQFOY_clean_sbu_3, # of connection points: 4
#     Node 20, Type 0, BuildingBlock: QUQFOY_clean_sbu_3, # of connection points: 4
#     Node 21, Type 0, BuildingBlock: QUQFOY_clean_sbu_3, # of connection points: 4
#     Node 22, Type 0, BuildingBlock: QUQFOY_clean_sbu_3, # of connection points: 4
#     Node 23, Type 0, BuildingBlock: QUQFOY_clean_sbu_3, # of connection points: 4
#     Node 24, Type 0, BuildingBlock: QUQFOY_clean_sbu_3, # of connection points: 4
#     Node 25, Type 0, BuildingBlock: QUQFOY_clean_sbu_3, # of connection points: 4
#     Node 26, Type 0, BuildingBlock: QUQFOY_clean_sbu_3, # of connection points: 4
#     Node 27, Type 0, BuildingBlock: QUQFOY_clean_sbu_3, # of connection points: 4
#     Node 28, Type 0, BuildingBlock: QUQFOY_clean_sbu_3, # of connection points: 4
#     Node 29, Type 0, BuildingBlock: QUQFOY_clean_sbu_3, # of connection points: 4
#     Node 30, Type 0, BuildingBlock: QUQFOY_clean_sbu_3, # of connection points: 4
#     Node 31, Type 0, BuildingBlock: QUQFOY_clean_sbu_3, # of connection points: 4
#     Node 32, Type 0, BuildingBlock: QUQFOY_clean_sbu_3, # of connection points: 4
#     Node 33, Type 0, BuildingBlock: QUQFOY_clean_sbu_3, # of connection points: 4
#     Node 34, Type 0, BuildingBlock: QUQFOY_clean_sbu_3, # of connection points: 4
#     Node 35, Type 0, BuildingBlock: QUQFOY_clean_sbu_3, # of connection points: 4
#     Node 36, Type 0, BuildingBlock: QUQFOY_clean_sbu_3, # of connection points: 4
#     Node 37, Type 0, BuildingBlock: QUQFOY_clean_sbu_3, # of connection points: 4
#     Node 38, Type 0, BuildingBlock: QUQFOY_clean_sbu_3, # of connection points: 4
#     Node 39, Type 0, BuildingBlock: QUQFOY_clean_sbu_3, # of connection points: 4
#     Node 40, Type 0, BuildingBlock: QUQFOY_clean_sbu_3, # of connection points: 4
#     Node 41, Type 0, BuildingBlock: QUQFOY_clean_sbu_3, # of connection points: 4
#     Node 42, Type 0, BuildingBlock: QUQFOY_clean_sbu_3, # of connection points: 4
#     Node 43, Type 0, BuildingBlock: QUQFOY_clean_sbu_3, # of connection points: 4
#     Node 44, Type 0, BuildingBlock: QUQFOY_clean_sbu_3, # of connection points: 4
#     Node 45, Type 0, BuildingBlock: QUQFOY_clean_sbu_3, # of connection points: 4
#     Node 46, Type 0, BuildingBlock: QUQFOY_clean_sbu_3, # of connection points: 4
#     Node 47, Type 0, BuildingBlock: QUQFOY_clean_sbu_3, # of connection points: 4
#     Node 48, Type 0, BuildingBlock: QUQFOY_clean_sbu_3, # of connection points: 4
#     Node 49, Type 0, BuildingBlock: QUQFOY_clean_sbu_3, # of connection points: 4
#     Node 50, Type 0, BuildingBlock: QUQFOY_clean_sbu_3, # of connection points: 4
#     Node 51, Type 0, BuildingBlock: QUQFOY_clean_sbu_3, # of connection points: 4
#     Node 52, Type 0, BuildingBlock: QUQFOY_clean_sbu_3, # of connection points: 4
#     Node 53, Type 0, BuildingBlock: QUQFOY_clean_sbu_3, # of connection points: 4
#     Node 54, Type 0, BuildingBlock: QUQFOY_clean_sbu_3, # of connection points: 4
#     Node 55, Type 0, BuildingBlock: QUQFOY_clean_sbu_3, # of connection points: 4
#     Node 56, Type 0, BuildingBlock: QUQFOY_clean_sbu_3, # of connection points: 4
#     Node 57, Type 0, BuildingBlock: QUQFOY_clean_sbu_3, # of connection points: 4
#     Node 58, Type 0, BuildingBlock: QUQFOY_clean_sbu_3, # of connection points: 4
#     Node 59, Type 0, BuildingBlock: QUQFOY_clean_sbu_3, # of connection points: 4
#     Node 60, Type 0, BuildingBlock: QUQFOY_clean_sbu_3, # of connection points: 4
#     Node 61, Type 0, BuildingBlock: QUQFOY_clean_sbu_3, # of connection points: 4
#     Node 62, Type 0, BuildingBlock: QUQFOY_clean_sbu_3, # of connection points: 4
#     Node 63, Type 0, BuildingBlock: QUQFOY_clean_sbu_3, # of connection points: 4
#     Node 64, Type 0, BuildingBlock: QUQFOY_clean_sbu_3, # of connection points: 4
#     Node 65, Type 0, BuildingBlock: QUQFOY_clean_sbu_3, # of connection points: 4
#     Node 66, Type 0, BuildingBlock: QUQFOY_clean_sbu_3, # of connection points: 4
#     Node 67, Type 0, BuildingBlock: QUQFOY_clean_sbu_3, # of connection points: 4
#     Node 68, Type 0, BuildingBlock: QUQFOY_clean_sbu_3, # of connection points: 4
#     Node 69, Type 0, BuildingBlock: QUQFOY_clean_sbu_3, # of connection points: 4
#     Node 70, Type 0, BuildingBlock: QUQFOY_clean_sbu_3, # of connection points: 4
#     Node 71, Type 0, BuildingBlock: QUQFOY_clean_sbu_3, # of connection points: 4
#     Node 72, Type 0, BuildingBlock: QUQFOY_clean_sbu_3, # of connection points: 4
#     Node 73, Type 0, BuildingBlock: QUQFOY_clean_sbu_3, # of connection points: 4
#     Node 74, Type 0, BuildingBlock: QUQFOY_clean_sbu_3, # of connection points: 4
#     Node 75, Type 0, BuildingBlock: QUQFOY_clean_sbu_3, # of connection points: 4
#     Node 76, Type 0, BuildingBlock: QUQFOY_clean_sbu_3, # of connection points: 4
#     Node 77, Type 0, BuildingBlock: QUQFOY_clean_sbu_3, # of connection points: 4
#     Node 78, Type 0, BuildingBlock: QUQFOY_clean_sbu_3, # of connection points: 4
#     Node 79, Type 0, BuildingBlock: QUQFOY_clean_sbu_3, # of connection points: 4
#     Node 80, Type 0, BuildingBlock: QUQFOY_clean_sbu_3, # of connection points: 4
#     Node 81, Type 0, BuildingBlock: QUQFOY_clean_sbu_3, # of connection points: 4
#     Node 82, Type 0, BuildingBlock: QUQFOY_clean_sbu_3, # of connection points: 4
#     Node 83, Type 0, BuildingBlock: QUQFOY_clean_sbu_3, # of connection points: 4
#     Node 84, Type 0, BuildingBlock: QUQFOY_clean_sbu_3, # of connection points: 4
#     Node 85, Type 0, BuildingBlock: QUQFOY_clean_sbu_3, # of connection points: 4
#     Node 86, Type 0, BuildingBlock: QUQFOY_clean_sbu_3, # of connection points: 4
#     Node 87, Type 0, BuildingBlock: QUQFOY_clean_sbu_3, # of connection points: 4
#     Node 88, Type 0, BuildingBlock: QUQFOY_clean_sbu_3, # of connection points: 4
#     Node 89, Type 0, BuildingBlock: QUQFOY_clean_sbu_3, # of connection points: 4
#     Node 90, Type 0, BuildingBlock: QUQFOY_clean_sbu_3, # of connection points: 4
#     Node 91, Type 0, BuildingBlock: QUQFOY_clean_sbu_3, # of connection points: 4
#     Node 92, Type 0, BuildingBlock: QUQFOY_clean_sbu_3, # of connection points: 4
#     Node 93, Type 0, BuildingBlock: QUQFOY_clean_sbu_3, # of connection points: 4
#     Node 94, Type 0, BuildingBlock: QUQFOY_clean_sbu_3, # of connection points: 4
#     Node 95, Type 0, BuildingBlock: QUQFOY_clean_sbu_3, # of connection points: 4
#     Edge 96, Type (0, 0), BuildingBlock: XUDNAN_clean_linker_2, # of connection points: 2
#     Edge 97, Type (0, 0), BuildingBlock: XUDNAN_clean_linker_2, # of connection points: 2
#     Edge 98, Type (0, 0), BuildingBlock: XUDNAN_clean_linker_2, # of connection points: 2
#     Edge 99, Type (0, 0), BuildingBlock: XUDNAN_clean_linker_2, # of connection points: 2
#     Edge 100, Type (0, 0), BuildingBlock: XUDNAN_clean_linker_2, # of connection points: 2
#     Edge 101, Type (0, 0), BuildingBlock: XUDNAN_clean_linker_2, # of connection points: 2
#     Edge 102, Type (0, 0), BuildingBlock: XUDNAN_clean_linker_2, # of connection points: 2
#     Edge 103, Type (0, 0), BuildingBlock: XUDNAN_clean_linker_2, # of connection points: 2
#     Edge 104, Type (0, 0), BuildingBlock: XUDNAN_clean_linker_2, # of connection points: 2
#     Edge 105, Type (0, 0), BuildingBlock: XUDNAN_clean_linker_2, # of connection points: 2
#     Edge 106, Type (0, 0), BuildingBlock: XUDNAN_clean_linker_2, # of connection points: 2
#     Edge 107, Type (0, 0), BuildingBlock: XUDNAN_clean_linker_2, # of connection points: 2
#     Edge 108, Type (0, 0), BuildingBlock: XUDNAN_clean_linker_2, # of connection points: 2
#     Edge 109, Type (0, 0), BuildingBlock: XUDNAN_clean_linker_2, # of connection points: 2
#     Edge 110, Type (0, 0), BuildingBlock: XUDNAN_clean_linker_2, # of connection points: 2
#     Edge 111, Type (0, 0), BuildingBlock: XUDNAN_clean_linker_2, # of connection points: 2
#     Edge 112, Type (0, 0), BuildingBlock: XUDNAN_clean_linker_2, # of connection points: 2
#     Edge 113, Type (0, 0), BuildingBlock: XUDNAN_clean_linker_2, # of connection points: 2
#     Edge 114, Type (0, 0), BuildingBlock: XUDNAN_clean_linker_2, # of connection points: 2
#     Edge 115, Type (0, 0), BuildingBlock: XUDNAN_clean_linker_2, # of connection points: 2
#     Edge 116, Type (0, 0), BuildingBlock: XUDNAN_clean_linker_2, # of connection points: 2
#     Edge 117, Type (0, 0), BuildingBlock: XUDNAN_clean_linker_2, # of connection points: 2
#     Edge 118, Type (0, 0), BuildingBlock: XUDNAN_clean_linker_2, # of connection points: 2
#     Edge 119, Type (0, 0), BuildingBlock: XUDNAN_clean_linker_2, # of connection points: 2
#     Edge 120, Type (0, 0), BuildingBlock: XUDNAN_clean_linker_2, # of connection points: 2
#     Edge 121, Type (0, 0), BuildingBlock: XUDNAN_clean_linker_2, # of connection points: 2
#     Edge 122, Type (0, 0), BuildingBlock: XUDNAN_clean_linker_2, # of connection points: 2
#     Edge 123, Type (0, 0), BuildingBlock: XUDNAN_clean_linker_2, # of connection points: 2
#     Edge 124, Type (0, 0), BuildingBlock: XUDNAN_clean_linker_2, # of connection points: 2
#     Edge 125, Type (0, 0), BuildingBlock: XUDNAN_clean_linker_2, # of connection points: 2
#     Edge 126, Type (0, 0), BuildingBlock: XUDNAN_clean_linker_2, # of connection points: 2
#     Edge 127, Type (0, 0), BuildingBlock: XUDNAN_clean_linker_2, # of connection points: 2
#     Edge 128, Type (0, 0), BuildingBlock: XUDNAN_clean_linker_2, # of connection points: 2
#     Edge 129, Type (0, 0), BuildingBlock: XUDNAN_clean_linker_2, # of connection points: 2
#     Edge 130, Type (0, 0), BuildingBlock: XUDNAN_clean_linker_2, # of connection points: 2
#     Edge 131, Type (0, 0), BuildingBlock: XUDNAN_clean_linker_2, # of connection points: 2
#     Edge 132, Type (0, 0), BuildingBlock: XUDNAN_clean_linker_2, # of connection points: 2
#     Edge 133, Type (0, 0), BuildingBlock: XUDNAN_clean_linker_2, # of connection points: 2
#     Edge 134, Type (0, 0), BuildingBlock: XUDNAN_clean_linker_2, # of connection points: 2
#     Edge 135, Type (0, 0), BuildingBlock: XUDNAN_clean_linker_2, # of connection points: 2
#     Edge 136, Type (0, 0), BuildingBlock: XUDNAN_clean_linker_2, # of connection points: 2
#     Edge 137, Type (0, 0), BuildingBlock: XUDNAN_clean_linker_2, # of connection points: 2
#     Edge 138, Type (0, 0), BuildingBlock: XUDNAN_clean_linker_2, # of connection points: 2
#     Edge 139, Type (0, 0), BuildingBlock: XUDNAN_clean_linker_2, # of connection points: 2
#     Edge 140, Type (0, 0), BuildingBlock: XUDNAN_clean_linker_2, # of connection points: 2
#     Edge 141, Type (0, 0), BuildingBlock: XUDNAN_clean_linker_2, # of connection points: 2
#     Edge 142, Type (0, 0), BuildingBlock: XUDNAN_clean_linker_2, # of connection points: 2
#     Edge 143, Type (0, 0), BuildingBlock: XUDNAN_clean_linker_2, # of connection points: 2
#     Edge 144, Type (0, 0), BuildingBlock: XUDNAN_clean_linker_2, # of connection points: 2
#     Edge 145, Type (0, 0), BuildingBlock: XUDNAN_clean_linker_2, # of connection points: 2
#     Edge 146, Type (0, 0), BuildingBlock: XUDNAN_clean_linker_2, # of connection points: 2
#     Edge 147, Type (0, 0), BuildingBlock: XUDNAN_clean_linker_2, # of connection points: 2
#     Edge 148, Type (0, 0), BuildingBlock: XUDNAN_clean_linker_2, # of connection points: 2
#     Edge 149, Type (0, 0), BuildingBlock: XUDNAN_clean_linker_2, # of connection points: 2
#     Edge 150, Type (0, 0), BuildingBlock: XUDNAN_clean_linker_2, # of connection points: 2
#     Edge 151, Type (0, 0), BuildingBlock: XUDNAN_clean_linker_2, # of connection points: 2
#     Edge 152, Type (0, 0), BuildingBlock: XUDNAN_clean_linker_2, # of connection points: 2
#     Edge 153, Type (0, 0), BuildingBlock: XUDNAN_clean_linker_2, # of connection points: 2
#     Edge 154, Type (0, 0), BuildingBlock: XUDNAN_clean_linker_2, # of connection points: 2
#     Edge 155, Type (0, 0), BuildingBlock: XUDNAN_clean_linker_2, # of connection points: 2
#     Edge 156, Type (0, 0), BuildingBlock: XUDNAN_clean_linker_2, # of connection points: 2
#     Edge 157, Type (0, 0), BuildingBlock: XUDNAN_clean_linker_2, # of connection points: 2
#     Edge 158, Type (0, 0), BuildingBlock: XUDNAN_clean_linker_2, # of connection points: 2
#     Edge 159, Type (0, 0), BuildingBlock: XUDNAN_clean_linker_2, # of connection points: 2
#     Edge 160, Type (0, 0), BuildingBlock: XUDNAN_clean_linker_2, # of connection points: 2
#     Edge 161, Type (0, 0), BuildingBlock: XUDNAN_clean_linker_2, # of connection points: 2
#     Edge 162, Type (0, 0), BuildingBlock: XUDNAN_clean_linker_2, # of connection points: 2
#     Edge 163, Type (0, 0), BuildingBlock: XUDNAN_clean_linker_2, # of connection points: 2
#     Edge 164, Type (0, 0), BuildingBlock: XUDNAN_clean_linker_2, # of connection points: 2
#     Edge 165, Type (0, 0), BuildingBlock: XUDNAN_clean_linker_2, # of connection points: 2
#     Edge 166, Type (0, 0), BuildingBlock: XUDNAN_clean_linker_2, # of connection points: 2
#     Edge 167, Type (0, 0), BuildingBlock: XUDNAN_clean_linker_2, # of connection points: 2
#     Edge 168, Type (0, 0), BuildingBlock: XUDNAN_clean_linker_2, # of connection points: 2
#     Edge 169, Type (0, 0), BuildingBlock: XUDNAN_clean_linker_2, # of connection points: 2
#     Edge 170, Type (0, 0), BuildingBlock: XUDNAN_clean_linker_2, # of connection points: 2
#     Edge 171, Type (0, 0), BuildingBlock: XUDNAN_clean_linker_2, # of connection points: 2
#     Edge 172, Type (0, 0), BuildingBlock: XUDNAN_clean_linker_2, # of connection points: 2
#     Edge 173, Type (0, 0), BuildingBlock: XUDNAN_clean_linker_2, # of connection points: 2
#     Edge 174, Type (0, 0), BuildingBlock: XUDNAN_clean_linker_2, # of connection points: 2
#     Edge 175, Type (0, 0), BuildingBlock: XUDNAN_clean_linker_2, # of connection points: 2
#     Edge 176, Type (0, 0), BuildingBlock: XUDNAN_clean_linker_2, # of connection points: 2
#     Edge 177, Type (0, 0), BuildingBlock: XUDNAN_clean_linker_2, # of connection points: 2
#     Edge 178, Type (0, 0), BuildingBlock: XUDNAN_clean_linker_2, # of connection points: 2
#     Edge 179, Type (0, 0), BuildingBlock: XUDNAN_clean_linker_2, # of connection points: 2
#     Edge 180, Type (0, 0), BuildingBlock: XUDNAN_clean_linker_2, # of connection points: 2
#     Edge 181, Type (0, 0), BuildingBlock: XUDNAN_clean_linker_2, # of connection points: 2
#     Edge 182, Type (0, 0), BuildingBlock: XUDNAN_clean_linker_2, # of connection points: 2
#     Edge 183, Type (0, 0), BuildingBlock: XUDNAN_clean_linker_2, # of connection points: 2
#     Edge 184, Type (0, 0), BuildingBlock: XUDNAN_clean_linker_2, # of connection points: 2
#     Edge 185, Type (0, 0), BuildingBlock: XUDNAN_clean_linker_2, # of connection points: 2
#     Edge 186, Type (0, 0), BuildingBlock: XUDNAN_clean_linker_2, # of connection points: 2
#     Edge 187, Type (0, 0), BuildingBlock: XUDNAN_clean_linker_2, # of connection points: 2
#     Edge 188, Type (0, 0), BuildingBlock: XUDNAN_clean_linker_2, # of connection points: 2
#     Edge 189, Type (0, 0), BuildingBlock: XUDNAN_clean_linker_2, # of connection points: 2
#     Edge 190, Type (0, 0), BuildingBlock: XUDNAN_clean_linker_2, # of connection points: 2
#     Edge 191, Type (0, 0), BuildingBlock: XUDNAN_clean_linker_2, # of connection points: 2
#     Edge 192, Type (0, 0), BuildingBlock: XUDNAN_clean_linker_2, # of connection points: 2
#     Edge 193, Type (0, 0), BuildingBlock: XUDNAN_clean_linker_2, # of connection points: 2
#     Edge 194, Type (0, 0), BuildingBlock: XUDNAN_clean_linker_2, # of connection points: 2
#     Edge 195, Type (0, 0), BuildingBlock: XUDNAN_clean_linker_2, # of connection points: 2
#     Edge 196, Type (0, 0), BuildingBlock: XUDNAN_clean_linker_2, # of connection points: 2
#     Edge 197, Type (0, 0), BuildingBlock: XUDNAN_clean_linker_2, # of connection points: 2
#     Edge 198, Type (0, 0), BuildingBlock: XUDNAN_clean_linker_2, # of connection points: 2
#     Edge 199, Type (0, 0), BuildingBlock: XUDNAN_clean_linker_2, # of connection points: 2
#     Edge 200, Type (0, 0), BuildingBlock: XUDNAN_clean_linker_2, # of connection points: 2
#     Edge 201, Type (0, 0), BuildingBlock: XUDNAN_clean_linker_2, # of connection points: 2
#     Edge 202, Type (0, 0), BuildingBlock: XUDNAN_clean_linker_2, # of connection points: 2
#     Edge 203, Type (0, 0), BuildingBlock: XUDNAN_clean_linker_2, # of connection points: 2
#     Edge 204, Type (0, 0), BuildingBlock: XUDNAN_clean_linker_2, # of connection points: 2
#     Edge 205, Type (0, 0), BuildingBlock: XUDNAN_clean_linker_2, # of connection points: 2
#     Edge 206, Type (0, 0), BuildingBlock: XUDNAN_clean_linker_2, # of connection points: 2
#     Edge 207, Type (0, 0), BuildingBlock: XUDNAN_clean_linker_2, # of connection points: 2
#     Edge 208, Type (0, 0), BuildingBlock: XUDNAN_clean_linker_2, # of connection points: 2
#     Edge 209, Type (0, 0), BuildingBlock: XUDNAN_clean_linker_2, # of connection points: 2
#     Edge 210, Type (0, 0), BuildingBlock: XUDNAN_clean_linker_2, # of connection points: 2
#     Edge 211, Type (0, 0), BuildingBlock: XUDNAN_clean_linker_2, # of connection points: 2
#     Edge 212, Type (0, 0), BuildingBlock: XUDNAN_clean_linker_2, # of connection points: 2
#     Edge 213, Type (0, 0), BuildingBlock: XUDNAN_clean_linker_2, # of connection points: 2
#     Edge 214, Type (0, 0), BuildingBlock: XUDNAN_clean_linker_2, # of connection points: 2
#     Edge 215, Type (0, 0), BuildingBlock: XUDNAN_clean_linker_2, # of connection points: 2
#     Edge 216, Type (0, 0), BuildingBlock: XUDNAN_clean_linker_2, # of connection points: 2
#     Edge 217, Type (0, 0), BuildingBlock: XUDNAN_clean_linker_2, # of connection points: 2
#     Edge 218, Type (0, 0), BuildingBlock: XUDNAN_clean_linker_2, # of connection points: 2
#     Edge 219, Type (0, 0), BuildingBlock: XUDNAN_clean_linker_2, # of connection points: 2
#     Edge 220, Type (0, 0), BuildingBlock: XUDNAN_clean_linker_2, # of connection points: 2
#     Edge 221, Type (0, 0), BuildingBlock: XUDNAN_clean_linker_2, # of connection points: 2
#     Edge 222, Type (0, 0), BuildingBlock: XUDNAN_clean_linker_2, # of connection points: 2
#     Edge 223, Type (0, 0), BuildingBlock: XUDNAN_clean_linker_2, # of connection points: 2
#     Edge 224, Type (0, 0), BuildingBlock: XUDNAN_clean_linker_2, # of connection points: 2
#     Edge 225, Type (0, 0), BuildingBlock: XUDNAN_clean_linker_2, # of connection points: 2
#     Edge 226, Type (0, 0), BuildingBlock: XUDNAN_clean_linker_2, # of connection points: 2
#     Edge 227, Type (0, 0), BuildingBlock: XUDNAN_clean_linker_2, # of connection points: 2
#     Edge 228, Type (0, 0), BuildingBlock: XUDNAN_clean_linker_2, # of connection points: 2
#     Edge 229, Type (0, 0), BuildingBlock: XUDNAN_clean_linker_2, # of connection points: 2
#     Edge 230, Type (0, 0), BuildingBlock: XUDNAN_clean_linker_2, # of connection points: 2
#     Edge 231, Type (0, 0), BuildingBlock: XUDNAN_clean_linker_2, # of connection points: 2
#     Edge 232, Type (0, 0), BuildingBlock: XUDNAN_clean_linker_2, # of connection points: 2
#     Edge 233, Type (0, 0), BuildingBlock: XUDNAN_clean_linker_2, # of connection points: 2
#     Edge 234, Type (0, 0), BuildingBlock: XUDNAN_clean_linker_2, # of connection points: 2
#     Edge 235, Type (0, 0), BuildingBlock: XUDNAN_clean_linker_2, # of connection points: 2
#     Edge 236, Type (0, 0), BuildingBlock: XUDNAN_clean_linker_2, # of connection points: 2
#     Edge 237, Type (0, 0), BuildingBlock: XUDNAN_clean_linker_2, # of connection points: 2
#     Edge 238, Type (0, 0), BuildingBlock: XUDNAN_clean_linker_2, # of connection points: 2
#     Edge 239, Type (0, 0), BuildingBlock: XUDNAN_clean_linker_2, # of connection points: 2
#     Edge 240, Type (0, 0), BuildingBlock: XUDNAN_clean_linker_2, # of connection points: 2
#     Edge 241, Type (0, 0), BuildingBlock: XUDNAN_clean_linker_2, # of connection points: 2
#     Edge 242, Type (0, 0), BuildingBlock: XUDNAN_clean_linker_2, # of connection points: 2
#     Edge 243, Type (0, 0), BuildingBlock: XUDNAN_clean_linker_2, # of connection points: 2
#     Edge 244, Type (0, 0), BuildingBlock: XUDNAN_clean_linker_2, # of connection points: 2
#     Edge 245, Type (0, 0), BuildingBlock: XUDNAN_clean_linker_2, # of connection points: 2
#     Edge 246, Type (0, 0), BuildingBlock: XUDNAN_clean_linker_2, # of connection points: 2
#     Edge 247, Type (0, 0), BuildingBlock: XUDNAN_clean_linker_2, # of connection points: 2
#     Edge 248, Type (0, 0), BuildingBlock: XUDNAN_clean_linker_2, # of connection points: 2
#     Edge 249, Type (0, 0), BuildingBlock: XUDNAN_clean_linker_2, # of connection points: 2
#     Edge 250, Type (0, 0), BuildingBlock: XUDNAN_clean_linker_2, # of connection points: 2
#     Edge 251, Type (0, 0), BuildingBlock: XUDNAN_clean_linker_2, # of connection points: 2
#     Edge 252, Type (0, 0), BuildingBlock: XUDNAN_clean_linker_2, # of connection points: 2
#     Edge 253, Type (0, 0), BuildingBlock: XUDNAN_clean_linker_2, # of connection points: 2
#     Edge 254, Type (0, 0), BuildingBlock: XUDNAN_clean_linker_2, # of connection points: 2
#     Edge 255, Type (0, 0), BuildingBlock: XUDNAN_clean_linker_2, # of connection points: 2
#     Edge 256, Type (0, 0), BuildingBlock: XUDNAN_clean_linker_2, # of connection points: 2
#     Edge 257, Type (0, 0), BuildingBlock: XUDNAN_clean_linker_2, # of connection points: 2
#     Edge 258, Type (0, 0), BuildingBlock: XUDNAN_clean_linker_2, # of connection points: 2
#     Edge 259, Type (0, 0), BuildingBlock: XUDNAN_clean_linker_2, # of connection points: 2
#     Edge 260, Type (0, 0), BuildingBlock: XUDNAN_clean_linker_2, # of connection points: 2
#     Edge 261, Type (0, 0), BuildingBlock: XUDNAN_clean_linker_2, # of connection points: 2
#     Edge 262, Type (0, 0), BuildingBlock: XUDNAN_clean_linker_2, # of connection points: 2
#     Edge 263, Type (0, 0), BuildingBlock: XUDNAN_clean_linker_2, # of connection points: 2
#     Edge 264, Type (0, 0), BuildingBlock: XUDNAN_clean_linker_2, # of connection points: 2
#     Edge 265, Type (0, 0), BuildingBlock: XUDNAN_clean_linker_2, # of connection points: 2
#     Edge 266, Type (0, 0), BuildingBlock: XUDNAN_clean_linker_2, # of connection points: 2
#     Edge 267, Type (0, 0), BuildingBlock: XUDNAN_clean_linker_2, # of connection points: 2
#     Edge 268, Type (0, 0), BuildingBlock: XUDNAN_clean_linker_2, # of connection points: 2
#     Edge 269, Type (0, 0), BuildingBlock: XUDNAN_clean_linker_2, # of connection points: 2
#     Edge 270, Type (0, 0), BuildingBlock: XUDNAN_clean_linker_2, # of connection points: 2
#     Edge 271, Type (0, 0), BuildingBlock: XUDNAN_clean_linker_2, # of connection points: 2
#     Edge 272, Type (0, 0), BuildingBlock: XUDNAN_clean_linker_2, # of connection points: 2
#     Edge 273, Type (0, 0), BuildingBlock: XUDNAN_clean_linker_2, # of connection points: 2
#     Edge 274, Type (0, 0), BuildingBlock: XUDNAN_clean_linker_2, # of connection points: 2
#     Edge 275, Type (0, 0), BuildingBlock: XUDNAN_clean_linker_2, # of connection points: 2
#     Edge 276, Type (0, 0), BuildingBlock: XUDNAN_clean_linker_2, # of connection points: 2
#     Edge 277, Type (0, 0), BuildingBlock: XUDNAN_clean_linker_2, # of connection points: 2
#     Edge 278, Type (0, 0), BuildingBlock: XUDNAN_clean_linker_2, # of connection points: 2
#     Edge 279, Type (0, 0), BuildingBlock: XUDNAN_clean_linker_2, # of connection points: 2
#     Edge 280, Type (0, 0), BuildingBlock: XUDNAN_clean_linker_2, # of connection points: 2
#     Edge 281, Type (0, 0), BuildingBlock: XUDNAN_clean_linker_2, # of connection points: 2
#     Edge 282, Type (0, 0), BuildingBlock: XUDNAN_clean_linker_2, # of connection points: 2
#     Edge 283, Type (0, 0), BuildingBlock: XUDNAN_clean_linker_2, # of connection points: 2
#     Edge 284, Type (0, 0), BuildingBlock: XUDNAN_clean_linker_2, # of connection points: 2
#     Edge 285, Type (0, 0), BuildingBlock: XUDNAN_clean_linker_2, # of connection points: 2
#     Edge 286, Type (0, 0), BuildingBlock: XUDNAN_clean_linker_2, # of connection points: 2
#     Edge 287, Type (0, 0), BuildingBlock: XUDNAN_clean_linker_2, # of connection points: 2
# Relax obj value: 0.329
# Max RMSD: 0.267
# Mean RMSD: 0.267
data_MOF--net-hal--node1-QUQFOY_clean_sbu_3--edge1-XUDNAN_clean_linker_2
_symmetry_space_group_name_H-M    P1
_symmetry_Int_Tables_number       1
_symmetry_cell_setting            triclinic
loop_
_symmetry_equiv_pos_as_xyz
'x, y, z'
_cell_length_a     91.624179
_cell_length_b     91.245887
_cell_length_c     91.318304
_cell_angle_alpha  89.998774
_cell_angle_beta   89.975837
_cell_angle_gamma 89.942752
loop_
_atom_site_label
_atom_site_type_symbol
_atom_site_fract_x
_atom_site_fract_y
_atom_site_fract_z
_atom_type_partial_charge
C0 C 0.09969 0.19397 0.30837 0.0
O1 O 0.10619 0.19829 0.29684 0.0
Cd2 Cd 0.09934 0.19236 0.27227 0.0
O3 O 0.08845 0.18576 0.30772 0.0
Cd4 Cd 0.0723 0.17549 0.2885 0.0
C5 C 0.09906 0.15453 0.27347 0.0
O6 O 0.07434 0.19761 0.27499 0.0
O7 O 0.06043 0.18187 0.26447 0.0
O8 O 0.05307 0.18298 0.30487 0.0
C9 C 0.06561 0.19476 0.26473 0.0
O10 O 0.10422 0.16636 0.2682 0.0
C11 C 0.04585 0.17117 0.30424 0.0
O12 O 0.08808 0.15464 0.28203 0.0
O13 O 0.05133 0.16073 0.29683 0.0
C14 C 0.79141 0.09181 0.31417 0.0
O15 O 0.78092 0.09292 0.3052 0.0
Cd16 Cd 0.78421 0.08182 0.28254 0.0
O17 O 0.80159 0.08239 0.31213 0.0
Cd18 Cd 0.80544 0.06093 0.29436 0.0
C19 C 0.82144 0.0874 0.27793 0.0
O20 O 0.78025 0.05658 0.28896 0.0
O21 O 0.79444 0.05081 0.2713 0.0
O22 O 0.81001 0.04253 0.31326 0.0
C23 C 0.78183 0.05001 0.27694 0.0
O24 O 0.80861 0.09273 0.27813 0.0
C25 C 0.82102 0.03704 0.30677 0.0
O26 O 0.82357 0.07424 0.28153 0.0
O27 O 0.82478 0.04292 0.29479 0.0
C28 C 0.88874 0.7808 0.31069 0.0
O29 O 0.88204 0.77574 0.2996 0.0
Cd30 Cd 0.88711 0.78407 0.27527 0.0
O31 O 0.89894 0.79018 0.3093 0.0
Cd32 Cd 0.91336 0.80273 0.29016 0.0
C33 C 0.88312 0.8214 0.27981 0.0
O34 O 0.91301 0.78107 0.27601 0.0
O35 O 0.92443 0.79862 0.2653 0.0
O36 O 0.9332 0.79922 0.30724 0.0
C37 C 0.92065 0.78525 0.26533 0.0
O38 O 0.87797 0.80954 0.27457 0.0
C39 C 0.93833 0.81207 0.30593 0.0
O40 O 0.8955 0.82155 0.28603 0.0
O41 O 0.9317 0.82071 0.29729 0.0
C42 C 0.18468 0.90439 0.32108 0.0
O43 O 0.19068 0.91668 0.31935 0.0
Cd44 Cd 0.17774 0.92147 0.29598 0.0
O45 O 0.17505 0.90093 0.31182 0.0
Cd46 Cd 0.17333 0.92286 0.29371 0.0
C47 C 0.15206 0.90265 0.28341 0.0
O48 O 0.19808 0.92407 0.28143 0.0
O49 O 0.18038 0.91845 0.2672 0.0
O50 O 0.17679 0.94136 0.31339 0.0
C51 C 0.194 0.92038 0.26876 0.0
O52 O 0.16507 0.89875 0.2859 0.0
C53 C 0.16777 0.95049 0.30817 0.0
O54 O 0.14877 0.91585 0.28589 0.0
O55 O 0.16204 0.94735 0.29589 0.0
C56 C 0.09258 0.78429 0.66666 0.0
O57 O 0.09602 0.77263 0.67345 0.0
Cd58 Cd 0.09028 0.77363 0.69861 0.0
O59 O 0.08404 0.7937 0.6725 0.0
Cd60 Cd 0.06721 0.79788 0.69353 0.0
C61 C 0.0972 0.81099 0.70408 0.0
O62 O 0.06424 0.7721 0.69645 0.0
O63 O 0.05592 0.78492 0.71442 0.0
O64 O 0.0515 0.8038 0.67317 0.0
C65 C 0.05713 0.77251 0.70828 0.0
O66 O 0.10136 0.7981 0.70082 0.0
C67 C 0.04402 0.81327 0.68003 0.0
O68 O 0.0838 0.81367 0.70599 0.0
O69 O 0.04746 0.8157 0.69327 0.0
C70 C 0.19702 0.07561 0.66777 0.0
O71 O 0.2088 0.07735 0.67487 0.0
Cd72 Cd 0.20525 0.0783 0.70046 0.0
O73 O 0.18569 0.07054 0.67412 0.0
Cd74 Cd 0.17618 0.05875 0.6968 0.0
C75 C 0.16995 0.0939 0.69943 0.0
O76 O 0.19931 0.05373 0.70678 0.0
O77 O 0.18254 0.05518 0.72311 0.0
O78 O 0.17392 0.03868 0.68066 0.0
C79 C 0.19589 0.0529 0.72013 0.0
O80 O 0.18383 0.095 0.69949 0.0
C81 C 0.16111 0.03491 0.68433 0.0
O82 O 0.1637 0.08149 0.69969 0.0
O83 O 0.15511 0.04202 0.69472 0.0
C84 C 0.88602 0.19832 0.67671 0.0
O85 O 0.88168 0.20113 0.68968 0.0
Cd86 Cd 0.89196 0.19326 0.71265 0.0
O87 O 0.8973 0.19039 0.67431 0.0
Cd88 Cd 0.91643 0.17715 0.68861 0.0
C89 C 0.89016 0.15638 0.7061 0.0
O90 O 0.91632 0.19643 0.70518 0.0
O91 O 0.93442 0.18212 0.70926 0.0
O92 O 0.93352 0.1802 0.66842 0.0
C93 C 0.92719 0.19335 0.71298 0.0
O94 O 0.88567 0.16706 0.71388 0.0
C95 C 0.9384 0.16715 0.66915 0.0
O96 O 0.90017 0.15797 0.6966 0.0
O97 O 0.93243 0.15866 0.67842 0.0
C98 C 0.78635 0.87982 0.6725 0.0
O99 O 0.78702 0.87295 0.68457 0.0
Cd100 Cd 0.79549 0.88443 0.70654 0.0
O101 O 0.79084 0.89301 0.67154 0.0
Cd102 Cd 0.80171 0.91204 0.68752 0.0
C103 C 0.83082 0.89241 0.69671 0.0
O104 O 0.7841 0.90793 0.70635 0.0
O105 O 0.80209 0.92162 0.71315 0.0
O106 O 0.78751 0.92865 0.67277 0.0
C107 C 0.78946 0.91657 0.71569 0.0
O108 O 0.82203 0.88565 0.70514 0.0
C109 C 0.7973 0.93838 0.67161 0.0
O110 O 0.82617 0.90194 0.68771 0.0
O111 O 0.80961 0.93556 0.67734 0.0
C112 C 0.30503 0.10146 0.18926 0.0
O113 O 0.29401 0.10906 0.19303 0.0
Cd114 Cd 0.2695 0.10163 0.18682 0.0
O115 O 0.30343 0.0898 0.1818 0.0
Cd116 Cd 0.2849 0.07355 0.17131 0.0
C117 C 0.27109 0.09852 0.14891 0.0
O118 O 0.27101 0.07654 0.19295 0.0
O119 O 0.26128 0.06141 0.17774 0.0
O120 O 0.30441 0.05842 0.17942 0.0
C121 C 0.26086 0.06764 0.19013 0.0
O122 O 0.26613 0.10453 0.16049 0.0
C123 C 0.30215 0.04817 0.17037 0.0
O124 O 0.27943 0.08742 0.14954 0.0
O125 O 0.29247 0.05034 0.16062 0.0
C126 C 0.88866 0.3142 0.19759 0.0
O127 O 0.88501 0.30264 0.2044 0.0
Cd128 Cd 0.89432 0.27934 0.19724 0.0
O129 O 0.89818 0.31388 0.18741 0.0
Cd130 Cd 0.91604 0.29728 0.17554 0.0
C131 C 0.88796 0.28041 0.15943 0.0
O132 O 0.91965 0.28438 0.19776 0.0
O133 O 0.92849 0.27284 0.17935 0.0
O134 O 0.93048 0.31881 0.18003 0.0
C135 C 0.92681 0.27355 0.19313 0.0
O136 O 0.88539 0.27507 0.17209 0.0
C137 C 0.93832 0.31795 0.16864 0.0
O138 O 0.89816 0.28966 0.15746 0.0
O139 O 0.93569 0.30736 0.15996 0.0
C140 C 0.66577 0.90012 0.20278 0.0
O141 O 0.67625 0.89343 0.20907 0.0
Cd142 Cd 0.70119 0.89334 0.20163 0.0
O143 O 0.66807 0.90859 0.19184 0.0
Cd144 Cd 0.68833 0.91918 0.1767 0.0
C145 C 0.69444 0.88433 0.16528 0.0
O146 O 0.70226 0.91875 0.1977 0.0
O147 O 0.7124 0.93225 0.18145 0.0
O148 O 0.67104 0.93875 0.17445 0.0
C149 C 0.71306 0.92639 0.194 0.0
O150 O 0.69776 0.88039 0.17826 0.0
C151 C 0.67458 0.94223 0.16144 0.0
O152 O 0.6916 0.89758 0.16213 0.0
O153 O 0.68461 0.93474 0.15537 0.0
C154 C 0.08635 0.66922 0.19182 0.0
O155 O 0.0929 0.68018 0.19735 0.0
Cd156 Cd 0.08549 0.70488 0.19299 0.0
O157 O 0.07536 0.67103 0.18344 0.0
Cd158 Cd 0.06047 0.69157 0.17373 0.0
C159 C 0.08996 0.70586 0.15605 0.0
O160 O 0.05963 0.70185 0.19777 0.0
O161 O 0.0489 0.71521 0.18153 0.0
O162 O 0.04148 0.67306 0.17269 0.0
C163 C 0.05143 0.71257 0.19492 0.0
O164 O 0.09502 0.71043 0.1682 0.0
C165 C 0.03654 0.67698 0.1603 0.0
O166 O 0.07807 0.69876 0.15571 0.0
O167 O 0.04266 0.68787 0.15422 0.0
C168 C 0.3148 0.90399 0.78364 0.0
O169 O 0.30612 0.90323 0.77285 0.0
Cd170 Cd 0.28086 0.90419 0.77807 0.0
O171 O 0.3104 0.90852 0.79614 0.0
Cd172 Cd 0.28844 0.92107 0.80738 0.0
C173 C 0.28038 0.88646 0.8122 0.0
O174 O 0.2775 0.92917 0.78478 0.0
O175 O 0.26274 0.92779 0.80299 0.0
O176 O 0.30528 0.93993 0.81484 0.0
C177 C 0.26477 0.93127 0.7897 0.0
O178 O 0.27959 0.88595 0.79826 0.0
C179 C 0.29893 0.94284 0.82685 0.0
O180 O 0.28278 0.89843 0.8188 0.0
O181 O 0.28761 0.93549 0.83 0.0
C182 C 0.09169 0.31874 0.78766 0.0
O183 O 0.09937 0.30784 0.78372 0.0
Cd184 Cd 0.09259 0.28323 0.79009 0.0
O185 O 0.07984 0.3168 0.79466 0.0
Cd186 Cd 0.06419 0.29625 0.80268 0.0
C187 C 0.08848 0.28543 0.82761 0.0
O188 O 0.06809 0.28114 0.78124 0.0
O189 O 0.05697 0.27026 0.799 0.0
O190 O 0.04623 0.31288 0.79301 0.0
C191 C 0.06109 0.27008 0.78574 0.0
O192 O 0.09542 0.2802 0.8167 0.0
C193 C 0.03733 0.31169 0.80356 0.0
O194 O 0.0769 0.29287 0.8257 0.0
O195 O 0.04083 0.30301 0.81388 0.0
C196 C 0.67359 0.09455 0.781 0.0
O197 O 0.68575 0.09865 0.77582 0.0
Cd198 Cd 0.70617 0.09165 0.7899 0.0
O199 O 0.67297 0.08489 0.7911 0.0
Cd200 Cd 0.68886 0.06685 0.80419 0.0
C201 C 0.69168 0.09512 0.8252 0.0
O202 O 0.70684 0.06577 0.78607 0.0
O203 O 0.71561 0.06084 0.80733 0.0
O204 O 0.67207 0.0491 0.79467 0.0
C205 C 0.71734 0.06092 0.79354 0.0
O206 O 0.69878 0.10057 0.81451 0.0
C207 C 0.67237 0.04082 0.80582 0.0
O208 O 0.6867 0.08222 0.82472 0.0
O209 O 0.68035 0.04477 0.81648 0.0
C210 C 0.88609 0.66935 0.80198 0.0
O211 O 0.87596 0.67711 0.79639 0.0
Cd212 Cd 0.87911 0.70272 0.79493 0.0
O213 O 0.89752 0.67516 0.80746 0.0
Cd214 Cd 0.91206 0.69726 0.81451 0.0
C215 C 0.88736 0.70799 0.83309 0.0
O216 O 0.90416 0.70017 0.78969 0.0
O217 O 0.91769 0.71787 0.79754 0.0
O218 O 0.92656 0.67663 0.82314 0.0
C219 C 0.91106 0.71177 0.78693 0.0
O220 O 0.88449 0.70615 0.81973 0.0
C221 C 0.93856 0.68183 0.8187 0.0
O222 O 0.90068 0.70823 0.83672 0.0
O223 O 0.93838 0.69464 0.81331 0.0
C224 C 0.18815 0.32094 0.09455 0.0
O225 O 0.19202 0.31284 0.10523 0.0
Cd226 Cd 0.19028 0.28669 0.10704 0.0
O227 O 0.1821 0.31572 0.08312 0.0
Cd228 Cd 0.17457 0.29162 0.07311 0.0
C229 C 0.15333 0.28179 0.10248 0.0
O230 O 0.19687 0.28407 0.08216 0.0
O231 O 0.19011 0.26987 0.06486 0.0
O232 O 0.17422 0.30756 0.05223 0.0
C233 C 0.19955 0.27289 0.07458 0.0
O234 O 0.16426 0.28169 0.11107 0.0
C235 C 0.16344 0.30133 0.0461 0.0
O236 O 0.15461 0.28493 0.08901 0.0
O237 O 0.15826 0.28999 0.05229 0.0
C238 C 0.18253 0.66417 0.8914 0.0
O239 O 0.1945 0.66954 0.887 0.0
Cd240 Cd 0.19539 0.69516 0.88818 0.0
O241 O 0.17395 0.67165 0.89947 0.0
Cd242 Cd 0.17708 0.69386 0.91558 0.0
C243 C 0.15876 0.70559 0.88774 0.0
O244 O 0.203 0.69649 0.91301 0.0
O245 O 0.19242 0.71575 0.9215 0.0
O246 O 0.17606 0.67663 0.93554 0.0
C247 C 0.20423 0.70918 0.91833 0.0
O248 O 0.16996 0.70113 0.88077 0.0
C249 C 0.16581 0.68308 0.94233 0.0
O250 O 0.15887 0.70634 0.90157 0.0
O251 O 0.16118 0.69506 0.93695 0.0
C252 C 0.33021 0.17395 0.90426 0.0
O253 O 0.32835 0.1847 0.91267 0.0
Cd254 Cd 0.30859 0.19232 0.89665 0.0
O255 O 0.31876 0.1675 0.89986 0.0
Cd256 Cd 0.29495 0.17479 0.9121 0.0
C257 C 0.28934 0.16337 0.88069 0.0
O258 O 0.29402 0.20184 0.91509 0.0
O259 O 0.2745 0.19179 0.9067 0.0
O260 O 0.303 0.16773 0.93612 0.0
C261 C 0.2808 0.20317 0.91155 0.0
O262 O 0.29743 0.17454 0.87844 0.0
C263 C 0.29137 0.16092 0.93948 0.0
O264 O 0.28571 0.15991 0.89358 0.0
O265 O 0.28134 0.16041 0.92992 0.0
C266 C 0.78325 0.30938 0.89019 0.0
O267 O 0.78124 0.29634 0.88568 0.0
Cd268 Cd 0.78988 0.27415 0.89635 0.0
O269 O 0.79107 0.31197 0.90151 0.0
Cd270 Cd 0.80501 0.29659 0.91962 0.0
C271 C 0.8264 0.28092 0.89321 0.0
O272 O 0.78435 0.28084 0.9209 0.0
O273 O 0.80119 0.27454 0.93598 0.0
O274 O 0.80357 0.31731 0.93675 0.0
C275 C 0.78845 0.27253 0.93106 0.0
O276 O 0.81569 0.27299 0.8892 0.0
C277 C 0.81568 0.31428 0.94285 0.0
O278 O 0.82485 0.29029 0.90337 0.0
O279 O 0.8229 0.30363 0.93763 0.0
C280 C 0.68463 0.79567 0.88419 0.0
O281 O 0.69765 0.79165 0.8814 0.0
Cd282 Cd 0.7188 0.80432 0.89128 0.0
O283 O 0.68192 0.80446 0.89468 0.0
Cd284 Cd 0.69532 0.81207 0.91653 0.0
C285 C 0.70761 0.8394 0.89722 0.0
O286 O 0.71843 0.79936 0.91699 0.0
O287 O 0.70071 0.7886 0.92814 0.0
O288 O 0.67099 0.81212 0.92666 0.0
C289 C 0.7136 0.78792 0.92321 0.0
O290 O 0.71149 0.82996 0.88772 0.0
C291 C 0.67424 0.82026 0.93744 0.0
O292 O 0.70547 0.83554 0.91035 0.0
O293 O 0.68743 0.82451 0.93845 0.0
C294 C 0.77202 0.66859 0.08462 0.0
O295 O 0.76636 0.68095 0.08761 0.0
Cd296 Cd 0.77775 0.70323 0.08101 0.0
O297 O 0.78355 0.66773 0.07678 0.0
Cd298 Cd 0.80035 0.68416 0.0627 0.0
C299 C 0.81097 0.69467 0.09612 0.0
O300 O 0.78064 0.69894 0.05528 0.0
O301 O 0.80105 0.70993 0.05239 0.0
O302 O 0.80226 0.6639 0.04572 0.0
C303 C 0.78737 0.70985 0.05024 0.0
O304 O 0.79953 0.70255 0.09721 0.0
C305 C 0.81527 0.66666 0.04178 0.0
O306 O 0.81339 0.68698 0.08483 0.0
O307 O 0.82147 0.67761 0.04768 0.0
C308 C 0.30872 0.78716 0.10034 0.0
O309 O 0.30012 0.78528 0.11111 0.0
Cd310 Cd 0.27594 0.79478 0.10993 0.0
O311 O 0.30437 0.79327 0.08858 0.0
Cd312 Cd 0.2817 0.80201 0.0768 0.0
C313 C 0.28268 0.8304 0.09944 0.0
O314 O 0.27079 0.78119 0.08801 0.0
O315 O 0.25707 0.79161 0.07196 0.0
O316 O 0.29819 0.79396 0.05796 0.0
C317 C 0.25934 0.78074 0.08035 0.0
O318 O 0.28176 0.82098 0.10963 0.0
C319 C 0.29379 0.803 0.04838 0.0
O320 O 0.28138 0.82664 0.08618 0.0
O321 O 0.28298 0.81105 0.05175 0.0
C322 C 0.66973 0.18689 0.08794 0.0
O323 O 0.67366 0.19331 0.07639 0.0
Cd324 Cd 0.69263 0.17413 0.07124 0.0
O325 O 0.67577 0.17474 0.09049 0.0
Cd326 Cd 0.69205 0.17122 0.06719 0.0
C327 C 0.70331 0.14657 0.08558 0.0
O328 O 0.71253 0.18967 0.07097 0.0
O329 O 0.70229 0.19037 0.04998 0.0
O330 O 0.66871 0.17406 0.0546 0.0
C331 C 0.71186 0.19557 0.05849 0.0
O332 O 0.69708 0.1572 0.09181 0.0
C333 C 0.67172 0.16503 0.04447 0.0
O334 O 0.70518 0.14746 0.0719 0.0
O335 O 0.6839 0.15836 0.04534 0.0
C336 C 0.89813 0.81736 0.69464 0.0
O337 O 0.89176 0.80902 0.70379 0.0
Cd338 Cd 0.89098 0.78327 0.70022 0.0
O339 O 0.906 0.81207 0.68441 0.0
Cd340 Cd 0.91716 0.78915 0.67514 0.0
C341 C 0.88329 0.78476 0.6627 0.0
O342 O 0.91617 0.77869 0.69811 0.0
O343 O 0.92187 0.76276 0.6817 0.0
O344 O 0.93767 0.80395 0.6793 0.0
C345 C 0.91964 0.76567 0.69513 0.0
O346 O 0.87927 0.78313 0.67597 0.0
C347 C 0.94397 0.80172 0.66715 0.0
O348 O 0.89653 0.78701 0.65926 0.0
O349 O 0.93772 0.79313 0.65812 0.0
C350 C 0.16611 0.88725 0.6888 0.0
O351 O 0.17519 0.88212 0.69799 0.0
Cd352 Cd 0.19953 0.89078 0.69967 0.0
O353 O 0.16925 0.89803 0.68055 0.0
Cd354 Cd 0.18833 0.91667 0.67692 0.0
C355 C 0.20841 0.88902 0.66257 0.0
O356 O 0.19277 0.91567 0.7022 0.0
O357 O 0.20791 0.93002 0.69151 0.0
O358 O 0.16577 0.92998 0.67574 0.0
C359 C 0.20306 0.9247 0.7034 0.0
O360 O 0.20984 0.88408 0.67556 0.0
C361 C 0.16975 0.93908 0.66606 0.0
O362 O 0.20105 0.90059 0.66005 0.0
O363 O 0.18269 0.93775 0.66113 0.0
C364 C 0.09675 0.16921 0.68415 0.0
O365 O 0.10081 0.1793 0.69279 0.0
Cd366 Cd 0.0875 0.2009 0.69813 0.0
O367 O 0.0845 0.16974 0.67754 0.0
Cd368 Cd 0.06389 0.18766 0.67697 0.0
C369 C 0.08758 0.21222 0.66258 0.0
O370 O 0.06375 0.19126 0.7031 0.0
O371 O 0.05226 0.20791 0.69123 0.0
O372 O 0.04701 0.16721 0.67328 0.0
C373 C 0.05531 0.20217 0.7035 0.0
O374 O 0.09153 0.21514 0.67563 0.0
C375 C 0.03925 0.17385 0.66384 0.0
O376 O 0.07823 0.20224 0.66012 0.0
O377 O 0.04326 0.18668 0.66027 0.0
C378 C 0.81904 0.0817 0.68437 0.0
O379 O 0.81617 0.06833 0.68665 0.0
Cd380 Cd 0.79048 0.07299 0.68058 0.0
O381 O 0.8087 0.08986 0.68002 0.0
Cd382 Cd 0.78462 0.07424 0.67969 0.0
C383 C 0.77856 0.09071 0.65337 0.0
O384 O 0.78511 0.08209 0.70508 0.0
O385 O 0.76421 0.07519 0.69714 0.0
O386 O 0.77576 0.04904 0.67892 0.0
C387 C 0.77182 0.07975 0.70778 0.0
O388 O 0.79156 0.08783 0.657 0.0
C389 C 0.78639 0.04294 0.67252 0.0
O390 O 0.76872 0.08623 0.66187 0.0
O391 O 0.79722 0.05097 0.66938 0.0
C392 C 0.88909 0.16449 0.29567 0.0
O393 O 0.88011 0.17381 0.29063 0.0
Cd394 Cd 0.88531 0.19894 0.28655 0.0
O395 O 0.90168 0.16826 0.30018 0.0
Cd396 Cd 0.91369 0.19237 0.30364 0.0
C397 C 0.8852 0.20734 0.32239 0.0
O398 O 0.90999 0.19677 0.27776 0.0
O399 O 0.92023 0.2146 0.28918 0.0
O400 O 0.93367 0.17516 0.30702 0.0
C401 C 0.91678 0.20877 0.27706 0.0
O402 O 0.87916 0.20994 0.31015 0.0
C403 C 0.94191 0.18401 0.31381 0.0
O404 O 0.89715 0.20033 0.32308 0.0
O405 O 0.93697 0.19681 0.31613 0.0
C406 C 0.80055 0.88676 0.29368 0.0
O407 O 0.78924 0.88084 0.28816 0.0
Cd408 Cd 0.7653 0.89107 0.29165 0.0
O409 O 0.79967 0.89874 0.30082 0.0
Cd410 Cd 0.78362 0.91867 0.30921 0.0
C411 C 0.76621 0.89295 0.32982 0.0
O412 O 0.77199 0.91568 0.28678 0.0
O413 O 0.76463 0.93513 0.29778 0.0
O414 O 0.80675 0.93077 0.30522 0.0
C415 C 0.76373 0.92672 0.28676 0.0
O416 O 0.76223 0.88668 0.31799 0.0
C417 C 0.80538 0.93973 0.31576 0.0
O418 O 0.77348 0.90483 0.32954 0.0
O419 O 0.7938 0.93878 0.32341 0.0
C420 C 0.09231 0.81539 0.28487 0.0
O421 O 0.0983 0.80404 0.27951 0.0
Cd422 Cd 0.08971 0.7798 0.28407 0.0
O423 O 0.08114 0.81452 0.29315 0.0
Cd424 Cd 0.06494 0.79493 0.30246 0.0
C425 C 0.09225 0.77943 0.32133 0.0
O426 O 0.06453 0.78399 0.27859 0.0
O427 O 0.05319 0.77129 0.29474 0.0
O428 O 0.04641 0.81413 0.30361 0.0
C429 C 0.05631 0.77329 0.28136 0.0
O430 O 0.09664 0.77362 0.30945 0.0
C431 C 0.03996 0.80857 0.3146 0.0
O432 O 0.08164 0.78831 0.32146 0.0
O433 O 0.0454 0.79701 0.32004 0.0
C434 C 0.17952 0.08809 0.27967 0.0
O435 O 0.19109 0.09073 0.27241 0.0
Cd436 Cd 0.2146 0.09038 0.28475 0.0
O437 O 0.18007 0.08143 0.29189 0.0
Cd438 Cd 0.19729 0.06733 0.30649 0.0
C439 C 0.2047 0.10052 0.31919 0.0
O440 O 0.21975 0.06624 0.29357 0.0
O441 O 0.20548 0.04815 0.28925 0.0
O442 O 0.17522 0.05493 0.31153 0.0
C443 C 0.21709 0.05493 0.28601 0.0
O444 O 0.2072 0.10467 0.30611 0.0
C445 C 0.17984 0.04799 0.32265 0.0
O446 O 0.2042 0.08701 0.3225 0.0
O447 O 0.19288 0.05052 0.32682 0.0
C448 C 0.67299 0.88892 0.81825 0.0
O449 O 0.67142 0.878 0.80981 0.0
Cd450 Cd 0.68105 0.88003 0.78509 0.0
O451 O 0.67685 0.9012 0.81309 0.0
Cd452 Cd 0.67639 0.90797 0.78742 0.0
C453 C 0.65109 0.88659 0.77128 0.0
O454 O 0.70098 0.89749 0.78431 0.0
O455 O 0.69295 0.91101 0.76664 0.0
O456 O 0.67797 0.93128 0.79981 0.0
C457 C 0.70368 0.90481 0.77286 0.0
O458 O 0.66186 0.87905 0.7669 0.0
C459 C 0.66949 0.93779 0.79094 0.0
O460 O 0.65332 0.89664 0.78057 0.0
O461 O 0.66481 0.93049 0.78009 0.0
C462 C 0.07579 0.69656 0.8245 0.0
O463 O 0.07697 0.70708 0.81549 0.0
Cd464 Cd 0.07646 0.7018 0.7902 0.0
O465 O 0.07115 0.68403 0.82036 0.0
Cd466 Cd 0.05913 0.67288 0.79821 0.0
C467 C 0.09369 0.66774 0.79 0.0
O468 O 0.0516 0.69521 0.78681 0.0
O469 O 0.05273 0.67685 0.77216 0.0
O470 O 0.03901 0.66668 0.81393 0.0
C471 C 0.04933 0.69016 0.77413 0.0
O472 O 0.09461 0.68163 0.78879 0.0
C473 C 0.03596 0.65471 0.80756 0.0
O474 O 0.08169 0.66149 0.79296 0.0
O475 O 0.04428 0.65069 0.7972 0.0
C476 C 0.29546 0.08459 0.81186 0.0
O477 O 0.28795 0.07563 0.80454 0.0
Cd478 Cd 0.30899 0.06529 0.79054 0.0
O479 O 0.30914 0.0842 0.81014 0.0
Cd480 Cd 0.3111 0.06411 0.79163 0.0
C481 C 0.33507 0.08271 0.78157 0.0
O482 O 0.29633 0.05602 0.76985 0.0
O483 O 0.2931 0.07859 0.77559 0.0
O484 O 0.30043 0.0479 0.81065 0.0
C485 C 0.28948 0.0679 0.76753 0.0
O486 O 0.32213 0.08744 0.78179 0.0
C487 C 0.31083 0.03869 0.80998 0.0
O488 O 0.33687 0.0694 0.78494 0.0
O489 O 0.32061 0.04081 0.80035 0.0
C490 C 0.89063 0.28638 0.81024 0.0
O491 O 0.88495 0.27795 0.8007 0.0
Cd492 Cd 0.88751 0.28073 0.77499 0.0
O493 O 0.8994 0.29666 0.80652 0.0
Cd494 Cd 0.9119 0.3069 0.78418 0.0
C495 C 0.87794 0.31769 0.77556 0.0
O496 O 0.91315 0.28271 0.77602 0.0
O497 O 0.92476 0.29719 0.76165 0.0
O498 O 0.93142 0.31178 0.80126 0.0
C499 C 0.9209 0.28424 0.76476 0.0
O500 O 0.87463 0.30418 0.7745 0.0
C501 C 0.93601 0.32313 0.79465 0.0
O502 O 0.89106 0.32171 0.77749 0.0
O503 O 0.92884 0.32733 0.78351 0.0
C504 C 0.69604 0.09229 0.17336 0.0
O505 O 0.70025 0.09882 0.18492 0.0
Cd506 Cd 0.69294 0.09116 0.20905 0.0
O507 O 0.68783 0.08105 0.17395 0.0
Cd508 Cd 0.67631 0.06414 0.19147 0.0
C509 C 0.65536 0.0913 0.20543 0.0
O510 O 0.69781 0.0658 0.20569 0.0
O511 O 0.68253 0.05049 0.21474 0.0
O512 O 0.68015 0.04803 0.17069 0.0
C513 C 0.69489 0.05668 0.21562 0.0
O514 O 0.66664 0.09671 0.21153 0.0
C515 C 0.66855 0.0407 0.17265 0.0
O516 O 0.65619 0.08014 0.19718 0.0
O517 O 0.66063 0.04421 0.18353 0.0
C518 C 0.88535 0.69167 0.17248 0.0
O519 O 0.88386 0.70137 0.18232 0.0
Cd520 Cd 0.89942 0.70033 0.20311 0.0
O521 O 0.89617 0.68286 0.17256 0.0
Cd522 Cd 0.91906 0.67797 0.18601 0.0
C523 C 0.89505 0.66318 0.20925 0.0
O524 O 0.92318 0.70297 0.19216 0.0
O525 O 0.93434 0.68796 0.20635 0.0
O526 O 0.93187 0.67596 0.16271 0.0
C527 C 0.93263 0.70106 0.202 0.0
O528 O 0.89192 0.6762 0.21324 0.0
C529 C 0.93937 0.66486 0.16648 0.0
O530 O 0.90466 0.66087 0.19952 0.0
O531 O 0.93698 0.65966 0.17916 0.0
C532 C 0.30473 0.90801 0.15785 0.0
O533 O 0.29351 0.91514 0.16145 0.0
Cd534 Cd 0.29849 0.91199 0.18794 0.0
O535 O 0.31294 0.90398 0.16819 0.0
Cd536 Cd 0.30138 0.91442 0.19199 0.0
C537 C 0.3276 0.89901 0.19959 0.0
O538 O 0.27715 0.9013 0.19519 0.0
O539 O 0.29048 0.903 0.21446 0.0
O540 O 0.29256 0.93787 0.18174 0.0
C541 C 0.2784 0.89918 0.20879 0.0
O542 O 0.31689 0.89233 0.19397 0.0
C543 C 0.29758 0.94523 0.19242 0.0
O544 O 0.3263 0.9126 0.20157 0.0
O545 O 0.30355 0.93818 0.20277 0.0
C546 C 0.07245 0.28268 0.16706 0.0
O547 O 0.07284 0.27156 0.17538 0.0
Cd548 Cd 0.07327 0.27774 0.2002 0.0
O549 O 0.06889 0.29527 0.1721 0.0
Cd550 Cd 0.05792 0.30697 0.19463 0.0
C551 C 0.09285 0.31101 0.19847 0.0
O552 O 0.04828 0.28447 0.20296 0.0
O553 O 0.05236 0.29922 0.22064 0.0
O554 O 0.03929 0.31346 0.17749 0.0
C555 C 0.04678 0.28723 0.21636 0.0
O556 O 0.09236 0.29705 0.19883 0.0
C557 C 0.03556 0.32544 0.18344 0.0
O558 O 0.08118 0.31849 0.19844 0.0
O559 O 0.04248 0.32921 0.1949 0.0
C560 C 0.81107 0.69434 0.90521 0.0
O561 O 0.80542 0.70702 0.90589 0.0
Cd562 Cd 0.7796 0.70434 0.90357 0.0
O563 O 0.8038 0.68312 0.90911 0.0
Cd564 Cd 0.78224 0.67408 0.92241 0.0
C565 C 0.77994 0.66904 0.88697 0.0
O566 O 0.77098 0.69669 0.92672 0.0
O567 O 0.75565 0.67885 0.92577 0.0
O568 O 0.79885 0.67523 0.94212 0.0
C569 C 0.75783 0.69254 0.92712 0.0
O570 O 0.77979 0.68305 0.88656 0.0
C571 C 0.79744 0.66205 0.94628 0.0
O572 O 0.77991 0.66218 0.89911 0.0
O573 O 0.78798 0.6542 0.93967 0.0
C574 C 0.80532 0.28604 0.09487 0.0
O575 O 0.79335 0.28153 0.10037 0.0
Cd576 Cd 0.76913 0.28822 0.09355 0.0
O577 O 0.8056 0.29488 0.084 0.0
Cd578 Cd 0.78812 0.30705 0.06664 0.0
C579 C 0.77307 0.32589 0.09544 0.0
O580 O 0.77392 0.28603 0.06835 0.0
O581 O 0.76655 0.29949 0.05067 0.0
O582 O 0.80755 0.30553 0.04847 0.0
C583 C 0.76482 0.288 0.05825 0.0
O584 O 0.76846 0.31402 0.10114 0.0
C585 C 0.80548 0.31839 0.0435 0.0
O586 O 0.77996 0.32599 0.08336 0.0
O587 O 0.79553 0.32598 0.04956 0.0
C588 C 0.6857 0.81683 0.08661 0.0
O589 O 0.6963 0.80935 0.09152 0.0
Cd590 Cd 0.70149 0.78539 0.08311 0.0
O591 O 0.67828 0.81252 0.07567 0.0
Cd592 Cd 0.67945 0.79236 0.05765 0.0
C593 C 0.66581 0.77424 0.08647 0.0
O594 O 0.70562 0.78982 0.05767 0.0
O595 O 0.69441 0.77148 0.04818 0.0
O596 O 0.67491 0.81068 0.03926 0.0
C597 C 0.70645 0.77789 0.05073 0.0
O598 O 0.6788 0.77331 0.09137 0.0
C599 C 0.66463 0.8037 0.03304 0.0
O600 O 0.66317 0.78065 0.07445 0.0
O601 O 0.66146 0.79115 0.03815 0.0
C602 C 0.16945 0.69944 0.08597 0.0
O603 O 0.17986 0.70819 0.08877 0.0
Cd604 Cd 0.2036 0.70189 0.08027 0.0
O605 O 0.1714 0.68845 0.07754 0.0
Cd606 Cd 0.18851 0.67508 0.06105 0.0
C607 C 0.20218 0.66532 0.09304 0.0
O608 O 0.19992 0.69728 0.05489 0.0
O609 O 0.21298 0.67865 0.04936 0.0
O610 O 0.16685 0.67561 0.04646 0.0
C611 C 0.21161 0.6925 0.0494 0.0
O612 O 0.20561 0.67884 0.09413 0.0
C613 C 0.16913 0.66363 0.03982 0.0
O614 O 0.196 0.66037 0.0816 0.0
O615 O 0.18057 0.65653 0.04331 0.0
C616 C 0.29446 0.18185 0.09499 0.0
O617 O 0.29528 0.19318 0.10308 0.0
Cd618 Cd 0.30564 0.21587 0.09457 0.0
O619 O 0.2982 0.18208 0.08159 0.0
Cd620 Cd 0.30712 0.19774 0.06195 0.0
C621 C 0.33795 0.20009 0.08256 0.0
O622 O 0.29266 0.21596 0.07236 0.0
O623 O 0.30133 0.22276 0.05157 0.0
O624 O 0.29036 0.18183 0.04908 0.0
C625 C 0.29357 0.22574 0.06271 0.0
O626 O 0.33098 0.20833 0.09139 0.0
C627 C 0.29896 0.17948 0.03844 0.0
O628 O 0.33185 0.19482 0.07122 0.0
O629 O 0.31128 0.18592 0.03866 0.0
C630 C 0.16537 0.28576 0.89616 0.0
O631 O 0.17542 0.27989 0.88856 0.0
Cd632 Cd 0.20039 0.28619 0.89266 0.0
O633 O 0.16845 0.29404 0.90694 0.0
Cd634 Cd 0.18877 0.30357 0.92179 0.0
C635 C 0.19523 0.32386 0.89231 0.0
O636 O 0.20203 0.2819 0.91834 0.0
O637 O 0.21488 0.29872 0.9286 0.0
O638 O 0.17104 0.29866 0.94025 0.0
C639 C 0.21402 0.28563 0.92398 0.0
O640 O 0.19988 0.31241 0.88581 0.0
C641 C 0.17319 0.31045 0.94729 0.0
O642 O 0.19049 0.32339 0.90532 0.0
O643 O 0.18343 0.31877 0.94292 0.0
C644 C 0.68404 0.17019 0.89594 0.0
O645 O 0.69547 0.17632 0.89108 0.0
Cd646 Cd 0.6957 0.20223 0.89295 0.0
O647 O 0.67529 0.17705 0.90433 0.0
Cd648 Cd 0.67507 0.1998 0.91936 0.0
C649 C 0.65867 0.21012 0.88939 0.0
O650 O 0.70097 0.20534 0.91843 0.0
O651 O 0.68721 0.22243 0.92734 0.0
O652 O 0.67405 0.1828 0.93938 0.0
C653 C 0.69996 0.21768 0.92469 0.0
O654 O 0.67094 0.2073 0.88348 0.0
C655 C 0.66334 0.18886 0.9458 0.0
O656 O 0.65714 0.20984 0.90316 0.0
O657 O 0.65808 0.20033 0.93992 0.0
C658 C 0.29694 0.81311 0.88766 0.0
O659 O 0.29215 0.8007 0.88369 0.0
Cd660 Cd 0.29478 0.77866 0.89685 0.0
O661 O 0.30346 0.81475 0.89989 0.0
Cd662 Cd 0.3092 0.79657 0.91966 0.0
C663 C 0.33191 0.78041 0.89638 0.0
O664 O 0.28604 0.78447 0.92097 0.0
O665 O 0.30411 0.7701 0.92491 0.0
O666 O 0.30626 0.8128 0.94078 0.0
C667 C 0.29039 0.77204 0.92515 0.0
O668 O 0.32077 0.77316 0.89226 0.0
C669 C 0.31783 0.80834 0.94707 0.0
O670 O 0.33057 0.79047 0.90586 0.0
O671 O 0.32563 0.79921 0.94011 0.0
C672 C 0.80175 0.60241 0.80761 0.0
O673 O 0.79245 0.60659 0.7983 0.0
Cd674 Cd 0.80043 0.59983 0.77441 0.0
O675 O 0.81091 0.59257 0.80414 0.0
Cd676 Cd 0.80755 0.57344 0.78483 0.0
C677 C 0.83675 0.58932 0.7756 0.0
O678 O 0.78622 0.57898 0.76928 0.0
O679 O 0.8012 0.56263 0.76084 0.0
O680 O 0.79257 0.56111 0.80225 0.0
C681 C 0.78889 0.56899 0.76001 0.0
O682 O 0.82724 0.59933 0.7738 0.0
C683 C 0.80086 0.55002 0.8031 0.0
O684 O 0.83288 0.57651 0.77913 0.0
O685 O 0.81264 0.55011 0.79575 0.0
C686 C 0.18372 0.38498 0.80881 0.0
O687 O 0.18959 0.37727 0.79884 0.0
Cd688 Cd 0.1916 0.38654 0.77448 0.0
O689 O 0.17983 0.39814 0.8065 0.0
Cd690 Cd 0.18085 0.41683 0.7874 0.0
C691 C 0.15546 0.39653 0.77017 0.0
O692 O 0.20458 0.40872 0.77977 0.0
O693 O 0.1953 0.42569 0.76619 0.0
O694 O 0.1875 0.43116 0.80866 0.0
C695 C 0.20634 0.41802 0.76969 0.0
O696 O 0.16588 0.3878 0.76713 0.0
C697 C 0.17895 0.44171 0.80581 0.0
O698 O 0.15787 0.40814 0.77745 0.0
O699 O 0.17145 0.44081 0.79413 0.0
C700 C 0.18337 0.59592 0.1723 0.0
O701 O 0.18677 0.6005 0.185 0.0
Cd702 Cd 0.1868 0.58953 0.20847 0.0
O703 O 0.1785 0.58296 0.17024 0.0
Cd704 Cd 0.17211 0.56353 0.18874 0.0
C705 C 0.15012 0.5879 0.2074 0.0
O706 O 0.19499 0.56606 0.20105 0.0
O707 O 0.18118 0.55016 0.21123 0.0
O708 O 0.17251 0.54318 0.17117 0.0
C709 C 0.1935 0.55642 0.21077 0.0
O710 O 0.16099 0.59299 0.21443 0.0
C711 C 0.1604 0.53794 0.17562 0.0
O712 O 0.15195 0.57808 0.19773 0.0
O713 O 0.15367 0.54512 0.18542 0.0
C714 C 0.79321 0.40384 0.16565 0.0
O715 O 0.78528 0.41426 0.16995 0.0
Cd716 Cd 0.79988 0.41662 0.19282 0.0
O717 O 0.80419 0.40091 0.17348 0.0
Cd718 Cd 0.80438 0.42087 0.19461 0.0
C719 C 0.82655 0.39909 0.20406 0.0
O720 O 0.78103 0.41469 0.20903 0.0
O721 O 0.79267 0.43377 0.216 0.0
O722 O 0.79902 0.4394 0.17564 0.0
C723 C 0.78171 0.42547 0.21765 0.0
O724 O 0.81524 0.39445 0.1977 0.0
C725 C 0.80992 0.44735 0.1788 0.0
O726 O 0.82726 0.41265 0.20662 0.0
O727 O 0.81804 0.44305 0.1892 0.0
C728 C 0.30251 0.58559 0.69776 0.0
O729 O 0.29104 0.5913 0.70319 0.0
Cd730 Cd 0.26679 0.586 0.69592 0.0
O731 O 0.30182 0.57512 0.68844 0.0
Cd732 Cd 0.28334 0.55929 0.6755 0.0
C733 C 0.27572 0.5914 0.65928 0.0
O734 O 0.26919 0.56036 0.69646 0.0
O735 O 0.259 0.5467 0.68035 0.0
O736 O 0.30154 0.54001 0.67663 0.0
C737 C 0.25852 0.55245 0.69298 0.0
O738 O 0.27098 0.59605 0.67154 0.0
C739 C 0.29949 0.53576 0.66352 0.0
O740 O 0.27958 0.57817 0.65758 0.0
O741 O 0.28977 0.54241 0.65615 0.0
C742 C 0.67229 0.39378 0.6956 0.0
O743 O 0.68401 0.38691 0.69872 0.0
Cd744 Cd 0.70878 0.39172 0.69054 0.0
O745 O 0.6725 0.40523 0.68756 0.0
Cd746 Cd 0.68946 0.42183 0.67454 0.0
C747 C 0.70252 0.3935 0.65314 0.0
O748 O 0.70866 0.41723 0.69049 0.0
O749 O 0.70487 0.44016 0.68889 0.0
O750 O 0.66794 0.43661 0.67593 0.0
C751 C 0.7118 0.42983 0.69504 0.0
O752 O 0.70689 0.38654 0.66443 0.0
C753 C 0.67049 0.44382 0.66428 0.0
O754 O 0.6967 0.40615 0.65402 0.0
O755 O 0.68207 0.44067 0.6572 0.0
C756 C 0.30827 0.38532 0.29067 0.0
O757 O 0.29659 0.38295 0.28362 0.0
Cd758 Cd 0.27512 0.39703 0.28838 0.0
O759 O 0.30942 0.39619 0.29934 0.0
Cd760 Cd 0.29531 0.41818 0.30678 0.0
C761 C 0.27603 0.39389 0.32608 0.0
O762 O 0.28214 0.42195 0.28446 0.0
O763 O 0.27158 0.43116 0.30328 0.0
O764 O 0.31701 0.4328 0.30266 0.0
C765 C 0.27189 0.42973 0.28946 0.0
O766 O 0.26953 0.39059 0.31419 0.0
C767 C 0.31595 0.44007 0.31447 0.0
O768 O 0.28642 0.40309 0.32629 0.0
O769 O 0.30535 0.43692 0.32289 0.0
C770 C 0.67377 0.5897 0.27879 0.0
O771 O 0.6858 0.59282 0.27251 0.0
Cd772 Cd 0.71073 0.58884 0.28129 0.0
O773 O 0.67338 0.5814 0.29 0.0
Cd774 Cd 0.69143 0.56625 0.30271 0.0
C775 C 0.70494 0.59975 0.31571 0.0
O776 O 0.71377 0.56422 0.2894 0.0
O777 O 0.69746 0.54871 0.28278 0.0
O778 O 0.67195 0.55065 0.31089 0.0
C779 C 0.71012 0.55392 0.28089 0.0
O780 O 0.71008 0.60342 0.3033 0.0
C781 C 0.67882 0.5452 0.32168 0.0
O782 O 0.69882 0.58737 0.31764 0.0
O783 O 0.6916 0.55008 0.32413 0.0
C784 C 0.20597 0.81718 0.58575 0.0
O785 O 0.20934 0.80407 0.58898 0.0
Cd786 Cd 0.1977 0.78357 0.57816 0.0
O787 O 0.19649 0.81983 0.57584 0.0
Cd788 Cd 0.18166 0.80397 0.55916 0.0
C789 C 0.16318 0.79317 0.5879 0.0
O790 O 0.20096 0.78805 0.55227 0.0
O791 O 0.18058 0.77682 0.55436 0.0
O792 O 0.18133 0.82235 0.53983 0.0
C793 C 0.19391 0.7763 0.5506 0.0
O794 O 0.17291 0.78328 0.58928 0.0
C795 C 0.16877 0.81882 0.53511 0.0
O796 O 0.16445 0.80303 0.57826 0.0
O797 O 0.16217 0.80858 0.54175 0.0
C798 C 0.17546 0.1579 0.3985 0.0
O799 O 0.18913 0.15857 0.39995 0.0
Cd800 Cd 0.19325 0.18363 0.39424 0.0
O801 O 0.168 0.1692 0.40165 0.0
Cd802 Cd 0.17706 0.18883 0.41871 0.0
C803 C 0.15944 0.20168 0.39212 0.0
O804 O 0.20368 0.19046 0.41647 0.0
O805 O 0.19273 0.211 0.42048 0.0
O806 O 0.17625 0.17074 0.43789 0.0
C807 C 0.20464 0.204 0.4191 0.0
O808 O 0.17026 0.19554 0.38583 0.0
C809 C 0.16858 0.17855 0.44645 0.0
O810 O 0.15864 0.20217 0.40596 0.0
O811 O 0.16513 0.19134 0.44213 0.0
C812 C 0.30735 0.69999 0.38699 0.0
O813 O 0.29485 0.70561 0.38487 0.0
Cd814 Cd 0.2736 0.6966 0.39657 0.0
O815 O 0.30917 0.68987 0.3965 0.0
Cd816 Cd 0.29437 0.67693 0.4156 0.0
C817 C 0.27682 0.65978 0.38859 0.0
O818 O 0.2801 0.69771 0.422 0.0
O819 O 0.27034 0.67742 0.42856 0.0
O820 O 0.31363 0.67995 0.43346 0.0
C821 C 0.27032 0.69129 0.42928 0.0
O822 O 0.27056 0.67193 0.38579 0.0
C823 C 0.31276 0.66703 0.43856 0.0
O824 O 0.28626 0.65868 0.39868 0.0
O825 O 0.30412 0.65831 0.43208 0.0
C826 C 0.79685 0.81987 0.39958 0.0
O827 O 0.79785 0.81938 0.41337 0.0
Cd828 Cd 0.80472 0.79338 0.41242 0.0
O829 O 0.80005 0.80827 0.39261 0.0
Cd830 Cd 0.805 0.7887 0.41304 0.0
C831 C 0.8315 0.78129 0.39649 0.0
O832 O 0.78124 0.78072 0.40729 0.0
O833 O 0.79546 0.76319 0.41414 0.0
O834 O 0.79679 0.80035 0.43654 0.0
C835 C 0.78299 0.76718 0.40958 0.0
O836 O 0.82525 0.79342 0.39433 0.0
C837 C 0.80955 0.80274 0.44138 0.0
O838 O 0.82588 0.77301 0.40595 0.0
O839 O 0.82017 0.79784 0.43393 0.0
C840 C 0.66791 0.29023 0.38857 0.0
O841 O 0.67477 0.27885 0.38443 0.0
Cd842 Cd 0.69979 0.2766 0.39034 0.0
O843 O 0.67343 0.29918 0.39775 0.0
Cd844 Cd 0.6939 0.30273 0.41509 0.0
C845 C 0.70823 0.31391 0.38349 0.0
O846 O 0.69689 0.27716 0.41584 0.0
O847 O 0.71438 0.288 0.42699 0.0
O848 O 0.6725 0.30534 0.42986 0.0
C849 C 0.70837 0.27601 0.42331 0.0
O850 O 0.70751 0.30033 0.38022 0.0
C851 C 0.67768 0.31476 0.43862 0.0
O852 O 0.70458 0.31836 0.39619 0.0
O853 O 0.69066 0.31914 0.43618 0.0
C854 C 0.78367 0.1701 0.5856 0.0
O855 O 0.77671 0.18185 0.58827 0.0
Cd856 Cd 0.78472 0.20512 0.57981 0.0
O857 O 0.79522 0.17021 0.57778 0.0
Cd858 Cd 0.81021 0.18734 0.56287 0.0
C859 C 0.81993 0.20505 0.59375 0.0
O860 O 0.78885 0.19919 0.55473 0.0
O861 O 0.80805 0.21154 0.54961 0.0
O862 O 0.81174 0.16681 0.5462 0.0
C863 C 0.79439 0.20992 0.54813 0.0
O864 O 0.8071 0.21046 0.594 0.0
C865 C 0.8248 0.16906 0.54218 0.0
O866 O 0.82363 0.19584 0.58397 0.0
O867 O 0.83144 0.17965 0.54827 0.0
C868 C 0.29938 0.29634 0.59702 0.0
O869 O 0.28896 0.28815 0.60122 0.0
Cd870 Cd 0.26618 0.28691 0.58857 0.0
O871 O 0.29876 0.30348 0.58502 0.0
Cd872 Cd 0.28381 0.30769 0.56291 0.0
C873 C 0.26077 0.32469 0.58691 0.0
O874 O 0.27581 0.28369 0.56487 0.0
O875 O 0.26597 0.29426 0.54632 0.0
O876 O 0.30672 0.3051 0.55004 0.0
C877 C 0.26738 0.28276 0.55403 0.0
O878 O 0.25758 0.31212 0.59212 0.0
C879 C 0.30512 0.31647 0.54219 0.0
O880 O 0.26983 0.32604 0.5764 0.0
O881 O 0.29365 0.32407 0.54424 0.0
C882 C 0.66864 0.68208 0.60396 0.0
O883 O 0.67688 0.68088 0.61507 0.0
Cd884 Cd 0.70303 0.68333 0.61176 0.0
O885 O 0.67403 0.68224 0.59119 0.0
Cd886 Cd 0.69824 0.6783 0.58122 0.0
C887 C 0.71065 0.65003 0.60115 0.0
O888 O 0.70651 0.70094 0.59253 0.0
O889 O 0.72209 0.69018 0.57833 0.0
O890 O 0.68363 0.68867 0.56233 0.0
C891 C 0.71798 0.70178 0.58483 0.0
O892 O 0.71514 0.65991 0.60979 0.0
C893 C 0.68846 0.68082 0.55198 0.0
O894 O 0.70226 0.65331 0.59058 0.0
O895 O 0.69811 0.67132 0.55517 0.0
C896 C 0.17641 0.37562 0.18058 0.0
O897 O 0.18944 0.37091 0.17974 0.0
Cd898 Cd 0.21072 0.38558 0.18444 0.0
O899 O 0.17387 0.38924 0.18243 0.0
Cd900 Cd 0.1912 0.41009 0.18125 0.0
C901 C 0.21033 0.39759 0.1516 0.0
O902 O 0.20279 0.40221 0.20375 0.0
O903 O 0.21187 0.42194 0.19462 0.0
O904 O 0.17036 0.42638 0.18628 0.0
C905 C 0.21051 0.41352 0.20558 0.0
O906 O 0.21991 0.39229 0.16012 0.0
C907 C 0.17444 0.43583 0.17687 0.0
O908 O 0.19892 0.40326 0.157 0.0
O909 O 0.18615 0.43317 0.16995 0.0
C910 C 0.81185 0.59939 0.20006 0.0
O911 O 0.79963 0.60336 0.20536 0.0
Cd912 Cd 0.77591 0.594 0.19975 0.0
O913 O 0.81267 0.58934 0.19031 0.0
Cd914 Cd 0.79526 0.57231 0.17759 0.0
C915 C 0.77452 0.59943 0.16246 0.0
O916 O 0.7821 0.56891 0.19957 0.0
O917 O 0.77328 0.55611 0.18201 0.0
O918 O 0.8142 0.55379 0.17717 0.0
C919 C 0.77265 0.55984 0.19533 0.0
O920 O 0.76923 0.60224 0.17506 0.0
C921 C 0.81131 0.54932 0.16431 0.0
O922 O 0.78455 0.58991 0.16084 0.0
O923 O 0.80182 0.55651 0.15717 0.0
C924 C 0.81569 0.39807 0.80757 0.0
O925 O 0.81442 0.40769 0.79773 0.0
Cd926 Cd 0.78968 0.41396 0.80636 0.0
O927 O 0.80569 0.39759 0.81709 0.0
Cd928 Cd 0.78612 0.41748 0.81187 0.0
C929 C 0.77295 0.3938 0.82867 0.0
O930 O 0.77832 0.41609 0.78471 0.0
O931 O 0.76151 0.42134 0.80031 0.0
O932 O 0.80135 0.43967 0.80969 0.0
C933 C 0.76523 0.41971 0.78702 0.0
O934 O 0.77741 0.39118 0.81581 0.0
C935 C 0.79345 0.44658 0.81883 0.0
O936 O 0.77462 0.40666 0.83345 0.0
O937 O 0.78357 0.43947 0.82541 0.0
C938 C 0.1614 0.58631 0.79392 0.0
O939 O 0.16586 0.58513 0.78081 0.0
Cd940 Cd 0.19121 0.58122 0.78049 0.0
O941 O 0.16871 0.58068 0.80443 0.0
Cd942 Cd 0.1898 0.5635 0.80847 0.0
C943 C 0.19902 0.59626 0.81518 0.0
O944 O 0.19199 0.55532 0.78383 0.0
O945 O 0.21223 0.55516 0.79568 0.0
O946 O 0.17278 0.54548 0.8169 0.0
C947 C 0.20515 0.55133 0.78437 0.0
O948 O 0.19563 0.59762 0.80171 0.0
C949 C 0.18082 0.54042 0.82703 0.0
O950 O 0.2007 0.58363 0.82069 0.0
O951 O 0.19297 0.54679 0.82914 0.0
C952 C 0.68511 0.38615 0.30808 0.0
O953 O 0.68493 0.38353 0.29437 0.0
Cd954 Cd 0.68161 0.3987 0.27321 0.0
O955 O 0.68199 0.3989 0.31307 0.0
Cd956 Cd 0.67368 0.42187 0.30024 0.0
C957 C 0.6464 0.40478 0.28039 0.0
O958 O 0.69358 0.41874 0.28394 0.0
O959 O 0.68386 0.43986 0.28143 0.0
O960 O 0.6779 0.43686 0.32223 0.0
C961 C 0.69368 0.43091 0.27757 0.0
O962 O 0.65526 0.40074 0.27046 0.0
C963 C 0.66683 0.44501 0.31988 0.0
O964 O 0.65088 0.41118 0.29188 0.0
O965 O 0.65883 0.44174 0.30902 0.0
C966 C 0.29657 0.58122 0.31947 0.0
O967 O 0.29377 0.56771 0.31935 0.0
Cd968 Cd 0.30378 0.56441 0.29428 0.0
O969 O 0.30328 0.58613 0.30845 0.0
Cd970 Cd 0.30671 0.56393 0.29088 0.0
C971 C 0.32389 0.58593 0.27659 0.0
O972 O 0.2835 0.55195 0.28419 0.0
O973 O 0.29115 0.56668 0.26772 0.0
O974 O 0.31152 0.54468 0.31 0.0
C975 C 0.28155 0.5575 0.27174 0.0
O976 O 0.3116 0.58892 0.2822 0.0
C977 C 0.32174 0.53864 0.30277 0.0
O978 O 0.32767 0.57266 0.27689 0.0
O979 O 0.32471 0.54411 0.29033 0.0
C980 C 0.69683 0.58295 0.67678 0.0
O981 O 0.70142 0.58865 0.68866 0.0
Cd982 Cd 0.69028 0.58724 0.71312 0.0
O983 O 0.68626 0.57395 0.67666 0.0
Cd984 Cd 0.6719 0.56102 0.69464 0.0
C985 C 0.65569 0.59485 0.70322 0.0
O986 O 0.68468 0.56215 0.71771 0.0
O987 O 0.69151 0.54465 0.70357 0.0
O988 O 0.66603 0.54676 0.67363 0.0
C989 C 0.6936 0.5518 0.71526 0.0
O990 O 0.66681 0.5997 0.71002 0.0
C991 C 0.65577 0.5395 0.6795 0.0
O992 O 0.65565 0.58207 0.69764 0.0
O993 O 0.65277 0.54231 0.69286 0.0
C994 C 0.27906 0.38779 0.66733 0.0
O995 O 0.27521 0.38437 0.68025 0.0
Cd996 Cd 0.28425 0.39586 0.70184 0.0
O997 O 0.28873 0.39761 0.66515 0.0
Cd998 Cd 0.30337 0.4145 0.68093 0.0
C999 C 0.321 0.3889 0.69964 0.0
O1000 O 0.2826 0.42116 0.69546 0.0
O1001 O 0.3029 0.42637 0.70569 0.0
O1002 O 0.30285 0.43167 0.66049 0.0
C1003 C 0.28912 0.42746 0.70583 0.0
O1004 O 0.30941 0.38778 0.70727 0.0
C1005 C 0.31534 0.43707 0.66313 0.0
O1006 O 0.3212 0.39663 0.68808 0.0
O1007 O 0.32245 0.43154 0.67367 0.0
C1008 C 0.81313 0.20214 0.40029 0.0
O1009 O 0.8024 0.2109 0.39957 0.0
Cd1010 Cd 0.77924 0.20146 0.40589 0.0
O1011 O 0.81203 0.18988 0.40697 0.0
Cd1012 Cd 0.79499 0.17604 0.42364 0.0
C1013 C 0.78291 0.1659 0.39117 0.0
O1014 O 0.78161 0.19716 0.43148 0.0
O1015 O 0.76952 0.17723 0.43361 0.0
O1016 O 0.81571 0.17563 0.44005 0.0
C1017 C 0.77007 0.19096 0.43576 0.0
O1018 O 0.77875 0.17923 0.39022 0.0
C1019 C 0.81336 0.16292 0.44517 0.0
O1020 O 0.78897 0.16115 0.40275 0.0
O1021 O 0.80232 0.1561 0.44025 0.0
C1022 C 0.8088 0.79141 0.58693 0.0
O1023 O 0.80075 0.78019 0.58845 0.0
Cd1024 Cd 0.77642 0.78094 0.5795 0.0
O1025 O 0.8052 0.80183 0.57834 0.0
Cd1026 Cd 0.78735 0.80901 0.55936 0.0
C1027 C 0.76875 0.8173 0.58964 0.0
O1028 O 0.77935 0.78503 0.55403 0.0
O1029 O 0.76426 0.80162 0.54721 0.0
O1030 O 0.80756 0.81164 0.5428 0.0
C1031 C 0.76719 0.78806 0.54829 0.0
O1032 O 0.76793 0.80353 0.59204 0.0
C1033 C 0.80368 0.82404 0.53781 0.0
O1034 O 0.7751 0.82232 0.57832 0.0
O1035 O 0.79222 0.82974 0.54326 0.0
C1036 C 0.69586 0.31208 0.58845 0.0
O1037 O 0.70101 0.30275 0.59738 0.0
Cd1038 Cd 0.69888 0.27694 0.59407 0.0
O1039 O 0.68935 0.30813 0.5768 0.0
Cd1040 Cd 0.68333 0.28487 0.56434 0.0
C1041 C 0.6616 0.27658 0.59267 0.0
O1042 O 0.7073 0.27473 0.56911 0.0
O1043 O 0.69301 0.26117 0.55608 0.0
O1044 O 0.68481 0.30061 0.54329 0.0
C1045 C 0.70564 0.26339 0.5613 0.0
O1046 O 0.67301 0.27491 0.60039 0.0
C1047 C 0.67309 0.29598 0.53748 0.0
O1048 O 0.66248 0.27971 0.57922 0.0
O1049 O 0.66645 0.28565 0.54395 0.0
C1050 C 0.1695 0.20209 0.60162 0.0
O1051 O 0.18162 0.20315 0.60834 0.0
Cd1052 Cd 0.20442 0.19211 0.60091 0.0
O1053 O 0.16833 0.19453 0.58993 0.0
Cd1054 Cd 0.18482 0.18 0.57415 0.0
C1055 C 0.195 0.15617 0.60104 0.0
O1056 O 0.2031 0.19856 0.57561 0.0
O1057 O 0.20813 0.18184 0.55981 0.0
O1058 O 0.16797 0.18473 0.55427 0.0
C1059 C 0.21164 0.1938 0.56588 0.0
O1060 O 0.20335 0.16574 0.60673 0.0
C1061 C 0.16839 0.17166 0.54943 0.0
O1062 O 0.18715 0.15925 0.59005 0.0
O1063 O 0.17601 0.16248 0.55654 0.0
C1064 C 0.30088 0.67097 0.59778 0.0
O1065 O 0.29817 0.68199 0.60581 0.0
Cd1066 Cd 0.29119 0.70565 0.59701 0.0
O1067 O 0.3013 0.67206 0.58392 0.0
Cd1068 Cd 0.3012 0.69378 0.56814 0.0
C1069 C 0.32546 0.71268 0.58952 0.0
O1070 O 0.27654 0.70035 0.57562 0.0
O1071 O 0.28649 0.71498 0.56003 0.0
O1072 O 0.29947 0.67476 0.5495 0.0
C1073 C 0.27505 0.71076 0.56662 0.0
O1074 O 0.31464 0.7182 0.59627 0.0
C1075 C 0.30802 0.68118 0.54064 0.0
O1076 O 0.32329 0.70314 0.57965 0.0
O1077 O 0.31304 0.69356 0.54452 0.0
C1078 C 0.17235 0.78637 0.38577 0.0
O1079 O 0.18253 0.7801 0.37865 0.0
Cd1080 Cd 0.20776 0.78288 0.38317 0.0
O1081 O 0.17492 0.79473 0.39668 0.0
Cd1082 Cd 0.19618 0.80236 0.41191 0.0
C1083 C 0.20995 0.82059 0.38244 0.0
O1084 O 0.20335 0.77823 0.40838 0.0
O1085 O 0.21655 0.7884 0.42485 0.0
O1086 O 0.17698 0.80309 0.43018 0.0
C1087 C 0.21319 0.77685 0.41786 0.0
O1088 O 0.21115 0.80847 0.37565 0.0
C1089 C 0.18141 0.81479 0.43623 0.0
O1090 O 0.20571 0.82102 0.39566 0.0
O1091 O 0.19297 0.82054 0.43114 0.0
C1092 C 0.67089 0.65617 0.39911 0.0
O1093 O 0.68132 0.65697 0.40808 0.0
Cd1094 Cd 0.67517 0.68261 0.41372 0.0
O1095 O 0.66177 0.66656 0.39938 0.0
Cd1096 Cd 0.67101 0.68751 0.41635 0.0
C1097 C 0.65126 0.69972 0.3954 0.0
O1098 O 0.69785 0.69142 0.40966 0.0
O1099 O 0.68437 0.71071 0.40968 0.0
O1100 O 0.67476 0.67496 0.44023 0.0
C1101 C 0.69689 0.70507 0.40778 0.0
O1102 O 0.66277 0.69325 0.39133 0.0
C1103 C 0.66802 0.68493 0.44726 0.0
O1104 O 0.64869 0.70029 0.40896 0.0
O1105 O 0.66261 0.69536 0.43986 0.0
C1106 C 0.28019 0.31766 0.3995 0.0
O1107 O 0.2721 0.30714 0.39549 0.0
Cd1108 Cd 0.28069 0.2828 0.39825 0.0
O1109 O 0.29179 0.31537 0.40691 0.0
Cd1110 Cd 0.30452 0.29486 0.41994 0.0
C1111 C 0.31615 0.28825 0.38627 0.0
O1112 O 0.28308 0.2809 0.42425 0.0
O1113 O 0.30253 0.26783 0.42425 0.0
O1114 O 0.30694 0.31172 0.44019 0.0
C1115 C 0.28889 0.26858 0.42652 0.0
O1116 O 0.30357 0.28301 0.38346 0.0
C1117 C 0.3192 0.30686 0.4445 0.0
O1118 O 0.31916 0.29356 0.39872 0.0
O1119 O 0.32472 0.29624 0.43744 0.0
C1120 C 0.58501 0.19701 0.81541 0.0
O1121 O 0.58844 0.20502 0.80459 0.0
Cd1122 Cd 0.58175 0.19952 0.78004 0.0
O1123 O 0.57674 0.1859 0.81391 0.0
Cd1124 Cd 0.56156 0.17457 0.79443 0.0
C1125 C 0.59252 0.16308 0.77893 0.0
O1126 O 0.55615 0.19708 0.78238 0.0
O1127 O 0.55208 0.17837 0.76886 0.0
O1128 O 0.54308 0.17465 0.81296 0.0
C1129 C 0.55138 0.19217 0.77041 0.0
O1130 O 0.59402 0.1761 0.77409 0.0
C1131 C 0.53813 0.16193 0.81039 0.0
O1132 O 0.58209 0.15967 0.78745 0.0
O1133 O 0.54437 0.15463 0.8003 0.0
C1134 C 0.39219 0.79154 0.81219 0.0
O1135 O 0.38443 0.78624 0.80192 0.0
Cd1136 Cd 0.38828 0.78971 0.77626 0.0
O1137 O 0.40336 0.79945 0.80943 0.0
Cd1138 Cd 0.41766 0.80866 0.78805 0.0
C1139 C 0.38769 0.82757 0.77573 0.0
O1140 O 0.41383 0.78537 0.7772 0.0
O1141 O 0.42984 0.79801 0.76564 0.0
O1142 O 0.43698 0.80803 0.8062 0.0
C1143 C 0.42261 0.78622 0.76662 0.0
O1144 O 0.3812 0.81549 0.77328 0.0
C1145 C 0.44335 0.81957 0.80177 0.0
O1146 O 0.40062 0.82792 0.78075 0.0
O1147 O 0.4377 0.82614 0.79088 0.0
C1148 C 0.60349 0.7918 0.16868 0.0
O1149 O 0.61041 0.79004 0.18061 0.0
Cd1150 Cd 0.59998 0.79248 0.20426 0.0
O1151 O 0.5904 0.79663 0.16862 0.0
Cd1152 Cd 0.57334 0.80385 0.18897 0.0
C1153 C 0.59443 0.82886 0.20656 0.0
O1154 O 0.57798 0.77948 0.19794 0.0
O1155 O 0.56236 0.79122 0.21096 0.0
O1156 O 0.55496 0.80324 0.16938 0.0
C1157 C 0.56811 0.77907 0.20752 0.0
O1158 O 0.6013 0.81815 0.21218 0.0
C1159 C 0.54598 0.81132 0.17629 0.0
O1160 O 0.58454 0.82649 0.19716 0.0
O1161 O 0.55001 0.81611 0.18866 0.0
C1162 C 0.38615 0.18376 0.17041 0.0
O1163 O 0.37986 0.19186 0.1798 0.0
Cd1164 Cd 0.38917 0.19265 0.20457 0.0
O1165 O 0.39792 0.17709 0.17342 0.0
Cd1166 Cd 0.41594 0.17404 0.19285 0.0
C1167 C 0.38983 0.15543 0.21099 0.0
O1168 O 0.41465 0.19881 0.20238 0.0
O1169 O 0.42724 0.18343 0.21526 0.0
O1170 O 0.43326 0.17786 0.17327 0.0
C1171 C 0.42315 0.19656 0.21312 0.0
O1172 O 0.38395 0.16784 0.21351 0.0
C1173 C 0.44018 0.16597 0.17527 0.0
O1174 O 0.40152 0.15458 0.20353 0.0
O1175 O 0.43592 0.15781 0.18572 0.0
C1176 C 0.39427 0.31666 0.70206 0.0
O1177 O 0.3883 0.30552 0.70791 0.0
Cd1178 Cd 0.39119 0.28108 0.69966 0.0
O1179 O 0.40324 0.31539 0.6914 0.0
Cd1180 Cd 0.41607 0.29586 0.67714 0.0
C1181 C 0.38256 0.28821 0.66354 0.0
O1182 O 0.41685 0.28291 0.69877 0.0
O1183 O 0.42647 0.27023 0.68158 0.0
O1184 O 0.4358 0.31318 0.67755 0.0
C1185 C 0.42345 0.27144 0.69509 0.0
O1186 O 0.37882 0.28239 0.67565 0.0
C1187 C 0.44068 0.31004 0.66491 0.0
O1188 O 0.39516 0.29369 0.66171 0.0
O1189 O 0.43375 0.30041 0.65765 0.0
C1190 C 0.59131 0.67907 0.69016 0.0
O1191 O 0.59708 0.68953 0.69732 0.0
Cd1192 Cd 0.58849 0.71426 0.69507 0.0
O1193 O 0.57957 0.68092 0.68285 0.0
Cd1194 Cd 0.56028 0.69959 0.67789 0.0
C1195 C 0.58632 0.71431 0.65699 0.0
O1196 O 0.56371 0.7099 0.70145 0.0
O1197 O 0.54669 0.7206 0.68921 0.0
O1198 O 0.54316 0.67946 0.68017 0.0
C1199 C 0.55397 0.71966 0.70098 0.0
O1200 O 0.59332 0.71673 0.66878 0.0
C1201 C 0.53633 0.68253 0.66844 0.0
O1202 O 0.57345 0.70925 0.65734 0.0
O1203 O 0.54067 0.6936 0.66124 0.0
C1204 C 0.58242 0.3252 0.28269 0.0
O1205 O 0.58892 0.31713 0.27343 0.0
Cd1206 Cd 0.58834 0.29152 0.27642 0.0
O1207 O 0.57405 0.31983 0.29248 0.0
Cd1208 Cd 0.56192 0.2962 0.29929 0.0
C1209 C 0.5942 0.28996 0.31409 0.0
O1210 O 0.56248 0.2898 0.2744 0.0
O1211 O 0.55447 0.27209 0.28763 0.0
O1212 O 0.54205 0.31315 0.30051 0.0
C1213 C 0.55693 0.27721 0.27493 0.0
O1214 O 0.59915 0.29068 0.30109 0.0
C1215 C 0.53638 0.30815 0.31214 0.0
O1216 O 0.58062 0.29035 0.31662 0.0
O1217 O 0.54235 0.29691 0.31779 0.0
C1218 C 0.39254 0.66668 0.28523 0.0
O1219 O 0.38809 0.67816 0.27878 0.0
Cd1220 Cd 0.39767 0.70219 0.28147 0.0
O1221 O 0.40288 0.66711 0.29459 0.0
Cd1222 Cd 0.41802 0.68705 0.30567 0.0
C1223 C 0.38764 0.70468 0.31731 0.0
O1224 O 0.42339 0.69869 0.2828 0.0
O1225 O 0.42735 0.71233 0.30142 0.0
O1226 O 0.4383 0.67008 0.3086 0.0
C1227 C 0.42828 0.71064 0.28767 0.0
O1228 O 0.38654 0.71016 0.30453 0.0
C1229 C 0.44202 0.67455 0.32123 0.0
O1230 O 0.39739 0.69516 0.32023 0.0
O1231 O 0.43406 0.68439 0.327 0.0
C1232 C 0.38671 0.81595 0.18574 0.0
O1233 O 0.37821 0.80563 0.18957 0.0
Cd1234 Cd 0.38437 0.7803 0.1901 0.0
O1235 O 0.39941 0.81326 0.18072 0.0
Cd1236 Cd 0.41411 0.7909 0.17661 0.0
C1237 C 0.39024 0.77389 0.1539 0.0
O1238 O 0.40779 0.78371 0.20087 0.0
O1239 O 0.42205 0.76829 0.19032 0.0
O1240 O 0.43497 0.80686 0.18037 0.0
C1241 C 0.41581 0.77258 0.20198 0.0
O1242 O 0.38267 0.77084 0.16517 0.0
C1243 C 0.44192 0.80236 0.16923 0.0
O1244 O 0.4016 0.78174 0.15505 0.0
O1245 O 0.43587 0.79256 0.16147 0.0
C1246 C 0.58338 0.16526 0.19492 0.0
O1247 O 0.58764 0.17589 0.2028 0.0
Cd1248 Cd 0.58323 0.20077 0.19743 0.0
O1249 O 0.57534 0.16731 0.18367 0.0
Cd1250 Cd 0.56167 0.18813 0.17185 0.0
C1251 C 0.5938 0.20205 0.16083 0.0
O1252 O 0.55747 0.19903 0.19526 0.0
O1253 O 0.55088 0.21271 0.17743 0.0
O1254 O 0.54399 0.16872 0.16854 0.0
C1255 C 0.55164 0.21083 0.19116 0.0
O1256 O 0.59658 0.20469 0.17425 0.0
C1257 C 0.5381 0.17406 0.15716 0.0
O1258 O 0.58192 0.19605 0.15693 0.0
O1259 O 0.5434 0.18594 0.15226 0.0
C1260 C 0.38838 0.17302 0.79304 0.0
O1261 O 0.38176 0.18334 0.78644 0.0
Cd1262 Cd 0.39073 0.20767 0.78886 0.0
O1263 O 0.39983 0.17559 0.80052 0.0
Cd1264 Cd 0.41714 0.19497 0.80754 0.0
C1265 C 0.38989 0.21058 0.82644 0.0
O1266 O 0.41594 0.20217 0.78262 0.0
O1267 O 0.43003 0.2158 0.79584 0.0
O1268 O 0.4318 0.17292 0.8085 0.0
C1269 C 0.42547 0.21211 0.78326 0.0
O1270 O 0.38323 0.21248 0.81436 0.0
C1271 C 0.4402 0.17741 0.81857 0.0
O1272 O 0.40266 0.20525 0.82664 0.0
O1273 O 0.43796 0.19026 0.82343 0.0
C1274 C 0.58857 0.81039 0.79082 0.0
O1275 O 0.59483 0.79929 0.78513 0.0
Cd1276 Cd 0.58992 0.77424 0.79096 0.0
O1277 O 0.57898 0.80894 0.80087 0.0
Cd1278 Cd 0.56503 0.79075 0.81551 0.0
C1279 C 0.59678 0.7756 0.8287 0.0
O1280 O 0.56501 0.77841 0.79346 0.0
O1281 O 0.54872 0.76934 0.80753 0.0
O1282 O 0.55112 0.81316 0.81451 0.0
C1283 C 0.55537 0.76885 0.79536 0.0
O1284 O 0.59963 0.77147 0.81567 0.0
C1285 C 0.54226 0.8099 0.82467 0.0
O1286 O 0.58532 0.78303 0.83169 0.0
O1287 O 0.54453 0.7979 0.83141 0.0
C1288 C 0.59338 0.69738 0.30747 0.0
O1289 O 0.59735 0.70354 0.29566 0.0
Cd1290 Cd 0.58718 0.69633 0.2728 0.0
O1291 O 0.58337 0.68768 0.30753 0.0
Cd1292 Cd 0.56542 0.67574 0.29117 0.0
C1293 C 0.5934 0.65872 0.27436 0.0
O1294 O 0.56187 0.69815 0.27843 0.0
O1295 O 0.55312 0.67978 0.26678 0.0
O1296 O 0.55 0.67968 0.31244 0.0
C1297 C 0.55446 0.69359 0.26776 0.0
O1298 O 0.59596 0.6711 0.26841 0.0
C1299 C 0.54237 0.6682 0.31093 0.0
O1300 O 0.58334 0.6573 0.28388 0.0
O1301 O 0.54572 0.6598 0.30033 0.0
C1302 C 0.39408 0.28767 0.31339 0.0
O1303 O 0.39403 0.2753 0.30701 0.0
Cd1304 Cd 0.40114 0.27772 0.28218 0.0
O1305 O 0.4011 0.29842 0.30793 0.0
Cd1306 Cd 0.41877 0.30656 0.28903 0.0
C1307 C 0.38612 0.31317 0.27725 0.0
O1308 O 0.42676 0.2824 0.28356 0.0
O1309 O 0.43001 0.2975 0.26577 0.0
O1310 O 0.43273 0.31048 0.31085 0.0
C1311 C 0.43213 0.2848 0.27106 0.0
O1312 O 0.3853 0.29925 0.27809 0.0
C1313 C 0.43945 0.3218 0.30648 0.0
O1314 O 0.39822 0.31968 0.27912 0.0
O1315 O 0.43635 0.32645 0.29371 0.0
C1316 C 0.38788 0.69356 0.66881 0.0
O1317 O 0.38081 0.69869 0.67968 0.0
Cd1318 Cd 0.38558 0.69341 0.70493 0.0
O1319 O 0.39853 0.68471 0.6707 0.0
Cd1320 Cd 0.41276 0.673 0.6909 0.0
C1321 C 0.38268 0.65543 0.70416 0.0
O1322 O 0.41122 0.69592 0.70314 0.0
O1323 O 0.42665 0.6814 0.71323 0.0
O1324 O 0.42978 0.67294 0.6706 0.0
C1325 C 0.42023 0.6937 0.71331 0.0
O1326 O 0.37753 0.66794 0.70763 0.0
C1327 C 0.43745 0.66238 0.67538 0.0
O1328 O 0.39514 0.65428 0.69811 0.0
O1329 O 0.43336 0.65643 0.68727 0.0
C1330 C 0.5942 0.29756 0.66638 0.0
O1331 O 0.60318 0.29241 0.67565 0.0
Cd1332 Cd 0.59721 0.2894 0.70091 0.0
O1333 O 0.58166 0.30207 0.67021 0.0
Cd1334 Cd 0.56762 0.30513 0.69293 0.0
C1335 C 0.59441 0.32573 0.70883 0.0
O1336 O 0.57289 0.27989 0.69833 0.0
O1337 O 0.55909 0.29031 0.71435 0.0
O1338 O 0.55027 0.30403 0.67318 0.0
C1339 C 0.56488 0.27862 0.70951 0.0
O1340 O 0.60136 0.31383 0.71082 0.0
C1341 C 0.54126 0.31306 0.67861 0.0
O1342 O 0.58216 0.32565 0.70228 0.0
O1343 O 0.54433 0.31835 0.69112 0.0
H1344 H 0.06565 0.27694 0.23672 0.0
H1345 H 0.02387 0.26855 0.2163 0.0
H1346 H 0.02389 0.24339 0.22644 0.0
H1347 H 0.08054 0.24357 0.22763 0.0
H1348 H 0.09116 0.24116 0.24406 0.0
H1349 H 0.08676 0.25932 0.23776 0.0
H1350 H 0.07468 0.26562 0.26265 0.0
H1351 H 0.07958 0.24767 0.26924 0.0
H1352 H 0.06084 0.25365 0.26999 0.0
H1353 H 0.03001 0.21814 0.23647 0.0
H1354 H 0.04041 0.19595 0.24826 0.0
H1355 H 0.0788 0.22091 0.26048 0.0
C1356 C 0.05617 0.27005 0.23509 0.0
C1357 C 0.04452 0.27474 0.22619 0.0
C1358 C 0.03266 0.26519 0.2235 0.0
C1359 C 0.03267 0.25086 0.22906 0.0
C1360 C 0.04474 0.24624 0.23711 0.0
C1361 C 0.05618 0.25564 0.24031 0.0
C1362 C 0.06846 0.24767 0.248 0.0
C1363 C 0.08256 0.24795 0.23881 0.0
C1364 C 0.07103 0.25403 0.26338 0.0
C1365 C 0.06211 0.2324 0.2487 0.0
C1366 C 0.04847 0.23171 0.24233 0.0
C1367 C 0.04064 0.21859 0.24161 0.0
C1368 C 0.04667 0.20602 0.24817 0.0
C1369 C 0.06034 0.20677 0.25532 0.0
C1370 C 0.06827 0.22003 0.25517 0.0
H1371 H 0.71949 0.07205 0.2214 0.0
H1372 H 0.69505 0.03386 0.23551 0.0
H1373 H 0.71506 0.02749 0.25272 0.0
H1374 H 0.75399 0.0562 0.22084 0.0
H1375 H 0.76345 0.07207 0.22775 0.0
H1376 H 0.74674 0.07429 0.21766 0.0
H1377 H 0.73527 0.08875 0.23919 0.0
H1378 H 0.75207 0.08689 0.24924 0.0
H1379 H 0.73516 0.0808 0.25726 0.0
H1380 H 0.7384 0.0252 0.26793 0.0
H1381 H 0.76241 0.02771 0.28033 0.0
H1382 H 0.77153 0.0666 0.25479 0.0
C1383 C 0.71824 0.06239 0.22819 0.0
C1384 C 0.70577 0.05338 0.22708 0.0
C1385 C 0.70452 0.04092 0.23623 0.0
C1386 C 0.71584 0.03721 0.24597 0.0
C1387 C 0.72822 0.04614 0.24643 0.0
C1388 C 0.72935 0.05858 0.23787 0.0
C1389 C 0.74378 0.06629 0.24011 0.0
C1390 C 0.7525 0.06725 0.22573 0.0
C1391 C 0.74143 0.08158 0.24685 0.0
C1392 C 0.75089 0.05597 0.2509 0.0
C1393 C 0.74169 0.04453 0.25463 0.0
C1394 C 0.74572 0.03402 0.26497 0.0
C1395 C 0.75937 0.03543 0.27185 0.0
C1396 C 0.76885 0.04703 0.26807 0.0
C1397 C 0.76462 0.05733 0.25741 0.0
H1398 H 0.92373 0.70623 0.22958 0.0
H1399 H 0.9488 0.72466 0.19391 0.0
H1400 H 0.95008 0.74844 0.20701 0.0
H1401 H 0.90165 0.73655 0.23339 0.0
H1402 H 0.89953 0.73526 0.25296 0.0
H1403 H 0.90313 0.71903 0.24238 0.0
H1404 H 0.92595 0.71335 0.25816 0.0
H1405 H 0.9222 0.72937 0.26905 0.0
H1406 H 0.9398 0.72719 0.26047 0.0
H1407 H 0.94619 0.77098 0.22311 0.0
H1408 H 0.93797 0.78983 0.24093 0.0
H1409 H 0.91394 0.75639 0.2646 0.0
C1410 C 0.9301 0.71509 0.22493 0.0
C1411 C 0.93667 0.71361 0.2111 0.0
C1412 C 0.94413 0.7256 0.20477 0.0
C1413 C 0.94482 0.73912 0.21208 0.0
C1414 C 0.93771 0.74044 0.22553 0.0
C1415 C 0.93053 0.7287 0.23189 0.0
C1416 C 0.92218 0.73331 0.24539 0.0
C1417 C 0.90565 0.73089 0.2434 0.0
C1418 C 0.92789 0.72534 0.25908 0.0
C1419 C 0.92587 0.74943 0.24572 0.0
C1420 C 0.93486 0.75342 0.23426 0.0
C1421 C 0.93926 0.76794 0.23221 0.0
C1422 C 0.9345 0.77857 0.24231 0.0
C1423 C 0.92537 0.77457 0.25415 0.0
C1424 C 0.92098 0.75983 0.25572 0.0
H1425 H 0.27344 0.90854 0.23643 0.0
H1426 H 0.25379 0.88426 0.20074 0.0
H1427 H 0.22974 0.88598 0.21296 0.0
H1428 H 0.24918 0.89575 0.2669 0.0
H1429 H 0.24896 0.91383 0.27485 0.0
H1430 H 0.26481 0.90759 0.26497 0.0
H1431 H 0.26306 0.93057 0.24842 0.0
H1432 H 0.24688 0.93662 0.2578 0.0
H1433 H 0.24654 0.93397 0.23825 0.0
H1434 H 0.20735 0.89396 0.22707 0.0
H1435 H 0.18885 0.90487 0.24356 0.0
H1436 H 0.22336 0.92513 0.269 0.0
C1437 C 0.26422 0.90295 0.23155 0.0
C1438 C 0.26544 0.8961 0.21778 0.0
C1439 C 0.25304 0.88941 0.21141 0.0
C1440 C 0.23935 0.89042 0.21822 0.0
C1441 C 0.23831 0.89823 0.23131 0.0
C1442 C 0.25047 0.90418 0.23802 0.0
C1443 C 0.2463 0.91357 0.25102 0.0
C1444 C 0.25268 0.9073 0.26528 0.0
C1445 C 0.25097 0.92963 0.24872 0.0
C1446 C 0.22989 0.91206 0.25055 0.0
C1447 C 0.22545 0.90319 0.23912 0.0
C1448 C 0.21072 0.90075 0.23617 0.0
C1449 C 0.20029 0.90714 0.24547 0.0
C1450 C 0.20469 0.91584 0.25754 0.0
C1451 C 0.21967 0.9185 0.25988 0.0
H1452 H 0.04532 0.71964 0.77555 0.0
H1453 H 0.0475 0.68335 0.74489 0.0
H1454 H 0.0464 0.70087 0.72426 0.0
H1455 H 0.02155 0.74426 0.75343 0.0
H1456 H 0.03159 0.76026 0.75911 0.0
H1457 H 0.02999 0.74478 0.77126 0.0
H1458 H 0.05817 0.74353 0.77339 0.0
H1459 H 0.05987 0.75889 0.76119 0.0
H1460 H 0.06901 0.74191 0.75699 0.0
H1461 H 0.04874 0.72228 0.70734 0.0
H1462 H 0.0539 0.7459 0.69528 0.0
H1463 H 0.05016 0.76819 0.73709 0.0
C1464 C 0.04514 0.71532 0.7645 0.0
C1465 C 0.04644 0.70015 0.76179 0.0
C1466 C 0.04642 0.69494 0.74719 0.0
C1467 C 0.04578 0.70481 0.73543 0.0
C1468 C 0.04502 0.71977 0.73851 0.0
C1469 C 0.04458 0.72499 0.7527 0.0
C1470 C 0.04535 0.74155 0.75316 0.0
C1471 C 0.03128 0.74809 0.75962 0.0
C1472 C 0.0589 0.74676 0.76168 0.0
C1473 C 0.04668 0.74485 0.73701 0.0
C1474 C 0.04634 0.73215 0.72872 0.0
C1475 C 0.04871 0.73231 0.71367 0.0
C1476 C 0.05169 0.74576 0.70694 0.0
C1477 C 0.0523 0.75884 0.71528 0.0
C1478 C 0.04946 0.75839 0.73043 0.0
H1479 H 0.2765 0.04615 0.75109 0.0
H1480 H 0.27205 0.09173 0.76412 0.0
H1481 H 0.24685 0.09197 0.75497 0.0
H1482 H 0.25404 0.05014 0.71706 0.0
H1483 H 0.24659 0.03197 0.71902 0.0
H1484 H 0.26469 0.0359 0.72561 0.0
H1485 H 0.25709 0.02619 0.75116 0.0
H1486 H 0.23878 0.02282 0.74484 0.0
H1487 H 0.24182 0.03444 0.76051 0.0
H1488 H 0.22122 0.08638 0.74788 0.0
H1489 H 0.19844 0.07736 0.73653 0.0
H1490 H 0.21972 0.03621 0.72617 0.0
C1491 C 0.27035 0.05628 0.75162 0.0
C1492 C 0.27616 0.06883 0.75852 0.0
C1493 C 0.2678 0.08192 0.75899 0.0
C1494 C 0.25341 0.08216 0.75393 0.0
C1495 C 0.24766 0.06933 0.74811 0.0
C1496 C 0.25601 0.05681 0.74635 0.0
C1497 C 0.24715 0.04463 0.73941 0.0
C1498 C 0.25349 0.04042 0.72438 0.0
C1499 C 0.24616 0.03123 0.74959 0.0
C1500 C 0.23249 0.05218 0.73793 0.0
C1501 C 0.23298 0.06633 0.74329 0.0
C1502 C 0.22071 0.07537 0.7435 0.0
C1503 C 0.20777 0.07008 0.7373 0.0
C1504 C 0.20737 0.05603 0.73079 0.0
C1505 C 0.21976 0.04687 0.73138 0.0
H1506 H 0.9093 0.20498 0.73296 0.0
H1507 H 0.95411 0.20532 0.71799 0.0
H1508 H 0.95822 0.22876 0.73113 0.0
H1509 H 0.90251 0.24012 0.72618 0.0
H1510 H 0.89081 0.24376 0.74163 0.0
H1511 H 0.89225 0.22547 0.73449 0.0
H1512 H 0.90016 0.21546 0.75981 0.0
H1513 H 0.89809 0.23361 0.76727 0.0
H1514 H 0.91513 0.22396 0.76938 0.0
H1515 H 0.95544 0.25478 0.74125 0.0
H1516 H 0.94742 0.27864 0.75173 0.0
H1517 H 0.90445 0.26048 0.7596 0.0
C1518 C 0.92018 0.20963 0.73312 0.0
C1519 C 0.93144 0.20343 0.72468 0.0
C1520 C 0.94546 0.20985 0.72471 0.0
C1521 C 0.94781 0.22323 0.73199 0.0
C1522 C 0.93606 0.22974 0.73926 0.0
C1523 C 0.92263 0.22286 0.74026 0.0
C1524 C 0.91128 0.2326 0.74728 0.0
C1525 C 0.89847 0.23566 0.73676 0.0
C1526 C 0.90586 0.22602 0.7618 0.0
C1527 C 0.92027 0.24619 0.74977 0.0
C1528 C 0.93451 0.24447 0.74505 0.0
C1529 C 0.94441 0.25612 0.74528 0.0
C1530 C 0.93973 0.26966 0.751 0.0
C1531 C 0.92536 0.27125 0.75644 0.0
C1532 C 0.91555 0.25944 0.75561 0.0
H1533 H 0.7129 0.9221 0.75027 0.0
H1534 H 0.72867 0.89286 0.78424 0.0
H1535 H 0.75402 0.8972 0.77612 0.0
H1536 H 0.73615 0.9103 0.72305 0.0
H1537 H 0.73861 0.92812 0.71488 0.0
H1538 H 0.72222 0.92416 0.72488 0.0
H1539 H 0.72714 0.94677 0.74143 0.0
H1540 H 0.74381 0.9505 0.73162 0.0
H1541 H 0.74417 0.94812 0.75121 0.0
H1542 H 0.77725 0.9024 0.76246 0.0
H1543 H 0.79553 0.90564 0.74272 0.0
H1544 H 0.76463 0.93169 0.71815 0.0
C1545 C 0.7217 0.91675 0.75613 0.0
C1546 C 0.71883 0.90719 0.7679 0.0
C1547 C 0.73063 0.90028 0.7752 0.0
C1548 C 0.74507 0.9028 0.77077 0.0
C1549 C 0.74754 0.91238 0.75914 0.0
C1550 C 0.73614 0.91919 0.75189 0.0
C1551 C 0.74147 0.92773 0.73876 0.0
C1552 C 0.73419 0.92224 0.72457 0.0
C1553 C 0.739 0.94426 0.74089 0.0
C1554 C 0.75754 0.92398 0.73924 0.0
C1555 C 0.76095 0.91548 0.75133 0.0
C1556 C 0.77482 0.90936 0.75318 0.0
C1557 C 0.78518 0.91135 0.74202 0.0
C1558 C 0.78147 0.91924 0.72926 0.0
C1559 C 0.76777 0.92609 0.72813 0.0
H1560 H 0.25378 0.08394 0.21357 0.0
H1561 H 0.24576 0.0417 0.1934 0.0
H1562 H 0.23333 0.03336 0.2161 0.0
H1563 H 0.2638 0.07112 0.24718 0.0
H1564 H 0.25539 0.08558 0.25767 0.0
H1565 H 0.26127 0.08902 0.23921 0.0
H1566 H 0.23526 0.09751 0.23193 0.0
H1567 H 0.22938 0.09458 0.25052 0.0
H1568 H 0.21989 0.08577 0.23566 0.0
H1569 H 0.22354 0.02936 0.24217 0.0
H1570 H 0.21576 0.03073 0.26817 0.0
H1571 H 0.23286 0.07496 0.27083 0.0
C1572 C 0.24909 0.07305 0.21378 0.0
C1573 C 0.25068 0.06344 0.20183 0.0
C1574 C 0.24447 0.04926 0.20245 0.0
C1575 C 0.23751 0.04442 0.21532 0.0
C1576 C 0.23687 0.05398 0.22726 0.0
C1577 C 0.24231 0.06808 0.22645 0.0
C1578 C 0.24119 0.07603 0.24089 0.0
C1579 C 0.25631 0.0807 0.24656 0.0
C1580 C 0.23081 0.08924 0.23967 0.0
C1581 C 0.2347 0.06405 0.25018 0.0
C1582 C 0.23201 0.05148 0.24216 0.0
C1583 C 0.22558 0.03917 0.24851 0.0
C1584 C 0.22132 0.03999 0.26328 0.0
C1585 C 0.22377 0.05293 0.27149 0.0
C1586 C 0.23093 0.06488 0.26491 0.0
H1587 H 0.93071 0.27492 0.22235 0.0
H1588 H 0.92738 0.2441 0.18639 0.0
H1589 H 0.92604 0.2236 0.2042 0.0
H1590 H 0.95216 0.25138 0.24753 0.0
H1591 H 0.94242 0.25816 0.26329 0.0
H1592 H 0.94511 0.26984 0.24761 0.0
H1593 H 0.91718 0.27411 0.24616 0.0
H1594 H 0.91436 0.26225 0.26162 0.0
H1595 H 0.90514 0.25858 0.24458 0.0
H1596 H 0.92147 0.20712 0.22618 0.0
H1597 H 0.91666 0.19566 0.25022 0.0
H1598 H 0.92361 0.23751 0.27163 0.0
C1599 C 0.93014 0.26381 0.21821 0.0
C1600 C 0.92924 0.26103 0.20304 0.0
C1601 C 0.92832 0.2464 0.19799 0.0
C1602 C 0.92745 0.23474 0.20803 0.0
C1603 C 0.92774 0.23795 0.223 0.0
C1604 C 0.92935 0.25214 0.22804 0.0
C1605 C 0.92845 0.25292 0.24457 0.0
C1606 C 0.9429 0.25839 0.25114 0.0
C1607 C 0.91552 0.26253 0.24951 0.0
C1608 C 0.92585 0.23697 0.24813 0.0
C1609 C 0.92542 0.2285 0.23556 0.0
C1610 C 0.9221 0.21361 0.23608 0.0
C1611 C 0.9193 0.20722 0.24978 0.0
C1612 C 0.91992 0.21569 0.26278 0.0
C1613 C 0.92331 0.23073 0.2619 0.0
H1614 H 0.7257 0.90677 0.21184 0.0
H1615 H 0.72499 0.95296 0.20102 0.0
H1616 H 0.73813 0.95854 0.22413 0.0
H1617 H 0.71786 0.91004 0.24792 0.0
H1618 H 0.72968 0.89564 0.25443 0.0
H1619 H 0.72258 0.89494 0.23609 0.0
H1620 H 0.74868 0.89331 0.2253 0.0
H1621 H 0.75588 0.89334 0.24365 0.0
H1622 H 0.76215 0.9067 0.23055 0.0
H1623 H 0.7477 0.95901 0.25052 0.0
H1624 H 0.75747 0.95393 0.27539 0.0
H1625 H 0.75186 0.90736 0.26798 0.0
C1626 C 0.72885 0.91799 0.21409 0.0
C1627 C 0.7245 0.92945 0.20476 0.0
C1628 C 0.72852 0.94405 0.20801 0.0
C1629 C 0.73581 0.9473 0.22117 0.0
C1630 C 0.73913 0.93576 0.23066 0.0
C1631 C 0.73619 0.92134 0.22701 0.0
C1632 C 0.74019 0.91093 0.23922 0.0
C1633 C 0.72678 0.9024 0.24473 0.0
C1634 C 0.75246 0.90046 0.23439 0.0
C1635 C 0.74548 0.92175 0.25052 0.0
C1636 C 0.74474 0.93603 0.24551 0.0
C1637 C 0.74855 0.94785 0.25444 0.0
C1638 C 0.75388 0.94491 0.26859 0.0
C1639 C 0.7554 0.93027 0.27348 0.0
C1640 C 0.75085 0.91865 0.26444 0.0
H1641 H 0.05944 0.74058 0.20093 0.0
H1642 H 0.03312 0.70448 0.21658 0.0
H1643 H 0.02915 0.71743 0.24006 0.0
H1644 H 0.07818 0.74504 0.23286 0.0
H1645 H 0.07975 0.76471 0.23214 0.0
H1646 H 0.07788 0.7544 0.21548 0.0
H1647 H 0.05512 0.76961 0.20823 0.0
H1648 H 0.05711 0.78023 0.22475 0.0
H1649 H 0.04007 0.77116 0.22087 0.0
H1650 H 0.03123 0.73251 0.26305 0.0
H1651 H 0.03833 0.74917 0.28327 0.0
H1652 H 0.06399 0.77487 0.25267 0.0
C1653 C 0.05225 0.73582 0.20906 0.0
C1654 C 0.04617 0.72183 0.20692 0.0
C1655 C 0.0375 0.71541 0.21801 0.0
C1656 C 0.03525 0.72265 0.23136 0.0
C1657 C 0.04189 0.73622 0.23345 0.0
C1658 C 0.05012 0.74282 0.22254 0.0
C1659 C 0.05761 0.75648 0.22815 0.0
C1660 C 0.07434 0.75506 0.2271 0.0
C1661 C 0.05214 0.77018 0.22002 0.0
C1662 C 0.05253 0.75637 0.24393 0.0
C1663 C 0.0434 0.74469 0.24679 0.0
C1664 C 0.03816 0.74186 0.26088 0.0
C1665 C 0.0423 0.75131 0.2723 0.0
C1666 C 0.05163 0.76333 0.26952 0.0
C1667 C 0.05671 0.76585 0.25513 0.0
H1668 H 0.22966 0.93746 0.71033 0.0
H1669 H 0.19094 0.91782 0.72948 0.0
H1670 H 0.20152 0.92039 0.75401 0.0
H1671 H 0.25487 0.91977 0.73289 0.0
H1672 H 0.26716 0.93508 0.73477 0.0
H1673 H 0.25586 0.93353 0.71875 0.0
H1674 H 0.24534 0.95942 0.72375 0.0
H1675 H 0.25656 0.96098 0.73989 0.0
H1676 H 0.23708 0.96336 0.74123 0.0
H1677 H 0.21652 0.92329 0.77621 0.0
H1678 H 0.23617 0.9245 0.79461 0.0
H1679 H 0.26571 0.9416 0.7616 0.0
C1680 C 0.22332 0.93403 0.71973 0.0
C1681 C 0.20943 0.92756 0.71799 0.0
C1682 C 0.20158 0.92287 0.73053 0.0
C1683 C 0.20745 0.92436 0.74455 0.0
C1684 C 0.22119 0.93062 0.74595 0.0
C1685 C 0.2291 0.93535 0.73393 0.0
C1686 C 0.24415 0.94054 0.73851 0.0
C1687 C 0.25621 0.93169 0.73078 0.0
C1688 C 0.24588 0.95706 0.73568 0.0
C1689 C 0.24362 0.93729 0.75481 0.0
C1690 C 0.23012 0.93196 0.7589 0.0
C1691 C 0.2271 0.92762 0.77322 0.0
C1692 C 0.23831 0.92839 0.78361 0.0
C1693 C 0.25243 0.93316 0.77952 0.0
C1694 C 0.25498 0.93799 0.76502 0.0
H1695 H 0.05389 0.23171 0.70802 0.0
H1696 H 0.05252 0.18991 0.73051 0.0
H1697 H 0.05206 0.20275 0.75439 0.0
H1698 H 0.0788 0.24777 0.73204 0.0
H1699 H 0.07105 0.26591 0.73116 0.0
H1700 H 0.06905 0.2536 0.71592 0.0
H1701 H 0.04093 0.25654 0.71702 0.0
H1702 H 0.04285 0.26901 0.7322 0.0
H1703 H 0.03147 0.253 0.73397 0.0
H1704 H 0.05304 0.22038 0.77592 0.0
H1705 H 0.0566 0.24119 0.79306 0.0
H1706 H 0.05926 0.27096 0.75615 0.0
C1707 C 0.05303 0.2253 0.71796 0.0
C1708 C 0.05293 0.20987 0.71748 0.0
C1709 C 0.05239 0.20179 0.73071 0.0
C1710 C 0.05213 0.20897 0.7443 0.0
C1711 C 0.0526 0.22424 0.74443 0.0
C1712 C 0.05309 0.2323 0.73159 0.0
C1713 C 0.05498 0.24847 0.73468 0.0
C1714 C 0.06932 0.25427 0.72806 0.0
C1715 C 0.04177 0.25727 0.72914 0.0
C1716 C 0.05558 0.24825 0.75123 0.0
C1717 C 0.05397 0.23423 0.75671 0.0
C1718 C 0.05425 0.23141 0.77174 0.0
C1719 C 0.05625 0.24325 0.78139 0.0
C1720 C 0.05823 0.25761 0.77588 0.0
C1721 C 0.05784 0.26007 0.76064 0.0
H1722 H 0.75058 0.06188 0.71733 0.0
H1723 H 0.7814 0.09465 0.73224 0.0
H1724 H 0.77382 0.08995 0.75798 0.0
H1725 H 0.72229 0.06896 0.74227 0.0
H1726 H 0.71756 0.04986 0.74398 0.0
H1727 H 0.72586 0.05642 0.72743 0.0
H1728 H 0.7461 0.0367 0.73049 0.0
H1729 H 0.73818 0.0306 0.7475 0.0
H1730 H 0.75697 0.03642 0.74694 0.0
H1731 H 0.76082 0.08277 0.78181 0.0
H1732 H 0.74238 0.07573 0.80038 0.0
H1733 H 0.72298 0.04557 0.76953 0.0
C1734 C 0.75564 0.06821 0.72598 0.0
C1735 C 0.76639 0.07875 0.72288 0.0
C1736 C 0.77301 0.0866 0.73448 0.0
C1737 C 0.7689 0.08387 0.74908 0.0
C1738 C 0.75855 0.07297 0.75178 0.0
C1739 C 0.75206 0.0653 0.74047 0.0
C1740 C 0.74103 0.05437 0.74594 0.0
C1741 C 0.72579 0.05761 0.73954 0.0
C1742 C 0.74587 0.03859 0.74251 0.0
C1743 C 0.74174 0.05748 0.76215 0.0
C1744 C 0.75201 0.06811 0.76543 0.0
C1745 C 0.75306 0.07416 0.77945 0.0
C1746 C 0.7427 0.06995 0.79002 0.0
C1747 C 0.73156 0.05991 0.78634 0.0
C1748 C 0.73174 0.05291 0.77264 0.0
H1749 H 0.91854 0.77098 0.72409 0.0
H1750 H 0.91884 0.73547 0.69246 0.0
H1751 H 0.91567 0.71761 0.71276 0.0
H1752 H 0.93856 0.75348 0.7521 0.0
H1753 H 0.9279 0.76141 0.76669 0.0
H1754 H 0.92984 0.77103 0.74961 0.0
H1755 H 0.90166 0.77232 0.74714 0.0
H1756 H 0.89965 0.76257 0.76418 0.0
H1757 H 0.89115 0.75565 0.74779 0.0
H1758 H 0.91164 0.70406 0.73667 0.0
H1759 H 0.90976 0.69545 0.76224 0.0
H1760 H 0.91326 0.74022 0.77779 0.0
C1761 C 0.91798 0.75944 0.72137 0.0
C1762 C 0.91889 0.75455 0.70674 0.0
C1763 C 0.9182 0.73938 0.70363 0.0
C1764 C 0.9163 0.72923 0.71506 0.0
C1765 C 0.91518 0.73454 0.72938 0.0
C1766 C 0.91612 0.74929 0.73252 0.0
C1767 C 0.91488 0.75232 0.74874 0.0
C1768 C 0.92862 0.76001 0.75462 0.0
C1769 C 0.90101 0.76124 0.75216 0.0
C1770 C 0.91363 0.73687 0.75441 0.0
C1771 C 0.91343 0.72678 0.74306 0.0
C1772 C 0.91191 0.71184 0.74561 0.0
C1773 C 0.91084 0.70709 0.76014 0.0
C1774 C 0.91161 0.71723 0.77187 0.0
C1775 C 0.91291 0.73229 0.76897 0.0
H1776 H 0.21214 0.25292 0.05548 0.0
H1777 H 0.22022 0.27793 0.09514 0.0
H1778 H 0.24605 0.27077 0.09442 0.0
H1779 H 0.23739 0.22285 0.0653 0.0
H1780 H 0.24293 0.21998 0.04658 0.0
H1781 H 0.2249 0.22675 0.05056 0.0
H1782 H 0.22981 0.24897 0.0336 0.0
H1783 H 0.24805 0.24252 0.02998 0.0
H1784 H 0.24523 0.2607 0.03718 0.0
H1785 H 0.271 0.26185 0.08927 0.0
H1786 H 0.29298 0.24781 0.08224 0.0
H1787 H 0.26944 0.22867 0.04588 0.0
C1788 C 0.21931 0.25667 0.06412 0.0
C1789 C 0.2142 0.26614 0.07525 0.0
C1790 C 0.22391 0.27078 0.08641 0.0
C1791 C 0.23864 0.26686 0.08606 0.0
C1792 C 0.24352 0.25816 0.07457 0.0
C1793 C 0.23414 0.25276 0.06401 0.0
C1794 C 0.24225 0.24307 0.05322 0.0
C1795 C 0.23653 0.22723 0.05397 0.0
C1796 C 0.24127 0.24919 0.03757 0.0
C1797 C 0.25767 0.24421 0.05921 0.0
C1798 C 0.25811 0.25302 0.07151 0.0
C1799 C 0.27087 0.25507 0.07955 0.0
C1800 C 0.28336 0.24726 0.07537 0.0
C1801 C 0.28299 0.23771 0.06321 0.0
C1802 C 0.27014 0.23651 0.05476 0.0
H1803 H 0.21088 0.73721 0.92744 0.0
H1804 H 0.23051 0.6967 0.91202 0.0
H1805 H 0.2549 0.70785 0.9138 0.0
H1806 H 0.23458 0.76127 0.90793 0.0
H1807 H 0.23543 0.77475 0.92233 0.0
H1808 H 0.21954 0.76332 0.92051 0.0
H1809 H 0.2226 0.75484 0.94744 0.0
H1810 H 0.23861 0.76615 0.94928 0.0
H1811 H 0.23964 0.74682 0.95321 0.0
H1812 H 0.27724 0.72339 0.91698 0.0
H1813 H 0.29566 0.74307 0.91938 0.0
H1814 H 0.26157 0.77355 0.93211 0.0
C1815 C 0.22032 0.73066 0.92456 0.0
C1816 C 0.21878 0.71605 0.91972 0.0
C1817 C 0.2314 0.70789 0.91587 0.0
C1818 C 0.24533 0.71411 0.91687 0.0
C1819 C 0.2465 0.72849 0.92175 0.0
C1820 C 0.23435 0.73672 0.92544 0.0
C1821 C 0.23861 0.75214 0.9298 0.0
C1822 C 0.23163 0.76353 0.91953 0.0
C1823 C 0.23463 0.75516 0.94589 0.0
C1824 C 0.255 0.75134 0.92774 0.0
C1825 C 0.25936 0.73755 0.92331 0.0
C1826 C 0.27397 0.73423 0.92052 0.0
C1827 C 0.28436 0.74542 0.922 0.0
C1828 C 0.28 0.75976 0.92599 0.0
C1829 C 0.26518 0.76264 0.92911 0.0
H1830 H 0.21311 0.2567 0.91792 0.0
H1831 H 0.24328 0.29213 0.92725 0.0
H1832 H 0.26406 0.27503 0.92355 0.0
H1833 H 0.23267 0.22865 0.93628 0.0
H1834 H 0.228 0.21476 0.92305 0.0
H1835 H 0.21587 0.22998 0.92609 0.0
H1836 H 0.2168 0.23616 0.89837 0.0
H1837 H 0.22907 0.22104 0.89529 0.0
H1838 H 0.2342 0.23926 0.88968 0.0
H1839 H 0.28129 0.25366 0.91931 0.0
H1840 H 0.29358 0.22978 0.91614 0.0
H1841 H 0.25162 0.20885 0.90929 0.0
C1842 C 0.22409 0.26092 0.91918 0.0
C1843 C 0.22664 0.27571 0.92286 0.0
C1844 C 0.24113 0.28079 0.92452 0.0
C1845 C 0.25296 0.2712 0.92233 0.0
C1846 C 0.24999 0.25667 0.91853 0.0
C1847 C 0.23588 0.25158 0.91706 0.0
C1848 C 0.23545 0.23544 0.91338 0.0
C1849 C 0.22753 0.2267 0.92542 0.0
C1850 C 0.22847 0.23283 0.89828 0.0
C1851 C 0.25156 0.23211 0.91318 0.0
C1852 C 0.2598 0.24449 0.91607 0.0
C1853 C 0.27494 0.24393 0.91701 0.0
C1854 C 0.2818 0.23031 0.91524 0.0
C1855 C 0.27349 0.21749 0.91256 0.0
C1856 C 0.25822 0.21848 0.91128 0.0
H1857 H 0.72684 0.21708 0.91203 0.0
H1858 H 0.70266 0.23605 0.94819 0.0
H1859 H 0.72512 0.24843 0.95678 0.0
H1860 H 0.7623 0.21245 0.93047 0.0
H1861 H 0.7725 0.21808 0.91455 0.0
H1862 H 0.75517 0.209 0.9124 0.0
H1863 H 0.74547 0.23067 0.89679 0.0
H1864 H 0.76288 0.23954 0.89857 0.0
H1865 H 0.74649 0.24903 0.90402 0.0
H1866 H 0.7497 0.26 0.96044 0.0
H1867 H 0.77279 0.27343 0.9562 0.0
H1868 H 0.78046 0.24791 0.91704 0.0
C1869 C 0.72636 0.22366 0.92189 0.0
C1870 C 0.71314 0.2255 0.9296 0.0
C1871 C 0.71275 0.23451 0.94219 0.0
C1872 C 0.72547 0.24142 0.94723 0.0
C1873 C 0.73842 0.2393 0.93946 0.0
C1874 C 0.73887 0.23086 0.92688 0.0
C1875 C 0.75357 0.23191 0.91938 0.0
C1876 C 0.76134 0.21697 0.9192 0.0
C1877 C 0.752 0.23817 0.90378 0.0
C1878 C 0.76122 0.24257 0.9295 0.0
C1879 C 0.75247 0.24635 0.94127 0.0
C1880 C 0.75675 0.25694 0.95144 0.0
C1881 C 0.76993 0.2644 0.94906 0.0
C1882 C 0.77845 0.26132 0.93654 0.0
C1883 C 0.77431 0.24998 0.92697 0.0
H1884 H 0.73957 0.70781 0.94512 0.0
H1885 H 0.75233 0.70198 0.89985 0.0
H1886 H 0.7412 0.72579 0.89352 0.0
H1887 H 0.70349 0.72807 0.93569 0.0
H1888 H 0.70532 0.73936 0.95177 0.0
H1889 H 0.71179 0.7207 0.952 0.0
H1890 H 0.73717 0.73006 0.96014 0.0
H1891 H 0.73104 0.74875 0.95938 0.0
H1892 H 0.74674 0.74314 0.94887 0.0
H1893 H 0.73459 0.75228 0.89359 0.0
H1894 H 0.72655 0.77769 0.89845 0.0
H1895 H 0.71538 0.76565 0.94299 0.0
C1896 C 0.73923 0.71123 0.93377 0.0
C1897 C 0.74666 0.70319 0.92292 0.0
C1898 C 0.74652 0.70805 0.90822 0.0
C1899 C 0.74031 0.72156 0.90456 0.0
C1900 C 0.73388 0.72978 0.91567 0.0
C1901 C 0.73265 0.72453 0.92985 0.0
C1902 C 0.72576 0.73588 0.93982 0.0
C1903 C 0.7107 0.7307 0.94513 0.0
C1904 C 0.73579 0.73967 0.95281 0.0
C1905 C 0.72438 0.74864 0.92929 0.0
C1906 C 0.72916 0.74489 0.91543 0.0
C1907 C 0.73037 0.75524 0.90426 0.0
C1908 C 0.72603 0.76967 0.90718 0.0
C1909 C 0.72039 0.77351 0.92107 0.0
C1910 C 0.7196 0.76288 0.93225 0.0
H1911 H 0.71181 0.74961 0.0421 0.0
H1912 H 0.73346 0.79008 0.05427 0.0
H1913 H 0.75741 0.77783 0.05211 0.0
H1914 H 0.73442 0.72675 0.0628 0.0
H1915 H 0.7342 0.71183 0.04988 0.0
H1916 H 0.71906 0.72434 0.0507 0.0
H1917 H 0.72216 0.72979 0.02297 0.0
H1918 H 0.73746 0.71739 0.02215 0.0
H1919 H 0.73954 0.73611 0.01619 0.0
H1920 H 0.779 0.76033 0.0509 0.0
H1921 H 0.79565 0.73889 0.05214 0.0
H1922 H 0.75969 0.71036 0.04045 0.0
C1923 C 0.7216 0.75599 0.04397 0.0
C1924 C 0.72077 0.77082 0.0482 0.0
C1925 C 0.73384 0.7787 0.05091 0.0
C1926 C 0.74751 0.77186 0.04966 0.0
C1927 C 0.74795 0.75714 0.04563 0.0
C1928 C 0.73531 0.74931 0.04285 0.0
C1929 C 0.73858 0.73333 0.04003 0.0
C1930 C 0.73113 0.72349 0.05154 0.0
C1931 C 0.73418 0.7289 0.0244 0.0
C1932 C 0.75498 0.73333 0.04185 0.0
C1933 C 0.76028 0.74715 0.04495 0.0
C1934 C 0.775 0.7495 0.04823 0.0
C1935 C 0.78441 0.7373 0.04883 0.0
C1936 C 0.77893 0.72303 0.0463 0.0
C1937 C 0.76418 0.72118 0.04228 0.0
H1938 H 0.23955 0.77288 0.05884 0.0
H1939 H 0.26419 0.75575 0.09572 0.0
H1940 H 0.25812 0.73063 0.08827 0.0
H1941 H 0.21026 0.74619 0.06172 0.0
H1942 H 0.20769 0.74526 0.04217 0.0
H1943 H 0.2145 0.7618 0.05039 0.0
H1944 H 0.2368 0.76057 0.03291 0.0
H1945 H 0.23034 0.7436 0.02516 0.0
H1946 H 0.24835 0.74457 0.03304 0.0
H1947 H 0.25078 0.70741 0.07632 0.0
H1948 H 0.23596 0.6877 0.06541 0.0
H1949 H 0.21463 0.71944 0.03735 0.0
C1950 C 0.24348 0.76385 0.06546 0.0
C1951 C 0.25261 0.76629 0.07767 0.0
C1952 C 0.25737 0.75417 0.08617 0.0
C1953 C 0.25414 0.73982 0.08193 0.0
C1954 C 0.24593 0.73774 0.06931 0.0
C1955 C 0.24016 0.74938 0.06152 0.0
C1956 C 0.23056 0.74401 0.04913 0.0
C1957 C 0.21482 0.74964 0.05097 0.0
C1958 C 0.23689 0.74845 0.03418 0.0
C1959 C 0.23162 0.72758 0.05145 0.0
C1960 C 0.24101 0.72422 0.0628 0.0
C1961 C 0.24341 0.70985 0.06738 0.0
C1962 C 0.23514 0.69868 0.06096 0.0
C1963 C 0.22435 0.70211 0.05044 0.0
C1964 C 0.22309 0.71658 0.04511 0.0
H1965 H 0.75315 0.26926 0.07778 0.0
H1966 H 0.7526 0.28061 0.03169 0.0
H1967 H 0.73856 0.25793 0.02641 0.0
H1968 H 0.75971 0.23258 0.07389 0.0
H1969 H 0.74818 0.2266 0.08872 0.0
H1970 H 0.75615 0.2446 0.08915 0.0
H1971 H 0.7306 0.25649 0.09189 0.0
H1972 H 0.72256 0.23849 0.09196 0.0
H1973 H 0.71644 0.25201 0.07895 0.0
H1974 H 0.72657 0.23255 0.02628 0.0
H1975 H 0.71574 0.20821 0.0315 0.0
H1976 H 0.72549 0.21382 0.07763 0.0
C1977 C 0.74976 0.26716 0.06661 0.0
C1978 C 0.75389 0.27661 0.05512 0.0
C1979 C 0.74934 0.27354 0.04065 0.0
C1980 C 0.74148 0.26065 0.03756 0.0
C1981 C 0.7382 0.25117 0.04913 0.0
C1982 C 0.74196 0.25448 0.06341 0.0
C1983 C 0.73781 0.24235 0.07387 0.0
C1984 C 0.75126 0.23617 0.08187 0.0
C1985 C 0.72616 0.24765 0.08481 0.0
C1986 C 0.73157 0.23138 0.06322 0.0
C1987 C 0.7317 0.23666 0.04902 0.0
C1988 C 0.72634 0.22838 0.03737 0.0
C1989 C 0.72031 0.21455 0.04042 0.0
C1990 C 0.71988 0.20913 0.05495 0.0
C1991 C 0.72583 0.21759 0.06639 0.0
H1992 H 0.70899 0.5741 0.72774 0.0
H1993 H 0.71055 0.52741 0.71919 0.0
H1994 H 0.73588 0.52653 0.72876 0.0
H1995 H 0.74517 0.58094 0.71536 0.0
H1996 H 0.74869 0.5952 0.72855 0.0
H1997 H 0.73034 0.59192 0.7223 0.0
H1998 H 0.72155 0.5882 0.74905 0.0
H1999 H 0.73977 0.59189 0.75538 0.0
H2000 H 0.7308 0.5751 0.76058 0.0
H2001 H 0.76164 0.53126 0.73879 0.0
H2002 H 0.78444 0.54089 0.74989 0.0
H2003 H 0.76587 0.5846 0.74997 0.0
C2004 C 0.71453 0.56364 0.72814 0.0
C2005 C 0.70779 0.55079 0.72287 0.0
C2006 C 0.71555 0.53736 0.72327 0.0
C2007 C 0.72994 0.53678 0.72861 0.0
C2008 C 0.73648 0.5498 0.73321 0.0
C2009 C 0.72897 0.56296 0.73303 0.0
C2010 C 0.73856 0.57554 0.73784 0.0
C2011 C 0.74082 0.58654 0.72527 0.0
C2012 C 0.7323 0.58311 0.75153 0.0
C2013 C 0.75251 0.56737 0.74123 0.0
C2014 C 0.75123 0.55256 0.73837 0.0
C2015 C 0.76276 0.54286 0.741 0.0
C2016 C 0.77571 0.54843 0.74716 0.0
C2017 C 0.77689 0.56349 0.75072 0.0
C2018 C 0.76527 0.57305 0.74733 0.0
H2019 H 0.21338 0.4336 0.74492 0.0
H2020 H 0.23223 0.40723 0.77967 0.0
H2021 H 0.25672 0.41087 0.76915 0.0
H2022 H 0.23495 0.41902 0.71691 0.0
H2023 H 0.23657 0.43597 0.7069 0.0
H2024 H 0.22095 0.43284 0.71837 0.0
H2025 H 0.22656 0.45699 0.73228 0.0
H2026 H 0.24245 0.45997 0.72102 0.0
H2027 H 0.24419 0.45947 0.74067 0.0
H2028 H 0.27896 0.41593 0.75403 0.0
H2029 H 0.2963 0.41865 0.73345 0.0
H2030 H 0.26298 0.44088 0.70817 0.0
C2031 C 0.2227 0.4288 0.75043 0.0
C2032 C 0.22092 0.42028 0.76318 0.0
C2033 C 0.23333 0.41388 0.76991 0.0
C2034 C 0.24733 0.41599 0.7641 0.0
C2035 C 0.24875 0.42454 0.75155 0.0
C2036 C 0.23674 0.43067 0.74468 0.0
C2037 C 0.24102 0.43796 0.73043 0.0
C2038 C 0.2329 0.43102 0.71739 0.0
C2039 C 0.2384 0.45459 0.73115 0.0
C2040 C 0.25718 0.43447 0.73009 0.0
C2041 C 0.26153 0.42712 0.74259 0.0
C2042 C 0.27575 0.42189 0.7443 0.0
C2043 C 0.28558 0.4236 0.73263 0.0
C2044 C 0.28095 0.43017 0.71939 0.0
C2045 C 0.26679 0.43612 0.71835 0.0
H2046 H 0.21615 0.57458 0.2169 0.0
H2047 H 0.19707 0.53287 0.22925 0.0
H2048 H 0.21776 0.5285 0.24623 0.0
H2049 H 0.25286 0.56402 0.21653 0.0
H2050 H 0.25968 0.58079 0.2244 0.0
H2051 H 0.24304 0.58096 0.21395 0.0
H2052 H 0.2292 0.59252 0.23582 0.0
H2053 H 0.24585 0.5926 0.24629 0.0
H2054 H 0.22981 0.58371 0.25347 0.0
H2055 H 0.24105 0.5285 0.26114 0.0
H2056 H 0.26447 0.5332 0.2737 0.0
H2057 H 0.2683 0.57483 0.25109 0.0
C2058 C 0.21627 0.56454 0.22322 0.0
C2059 C 0.20509 0.55398 0.22172 0.0
C2060 C 0.20554 0.54108 0.23028 0.0
C2061 C 0.21725 0.53851 0.2399 0.0
C2062 C 0.22825 0.54905 0.24089 0.0
C2063 C 0.22774 0.5619 0.2329 0.0
C2064 C 0.24086 0.57152 0.23593 0.0
C2065 C 0.24963 0.57448 0.22186 0.0
C2066 C 0.23615 0.58594 0.24332 0.0
C2067 C 0.2492 0.56183 0.24644 0.0
C2068 C 0.24165 0.54901 0.24933 0.0
C2069 C 0.24703 0.53849 0.25896 0.0
C2070 C 0.26035 0.54124 0.266 0.0
C2071 C 0.26823 0.5543 0.26323 0.0
C2072 C 0.26262 0.56464 0.25321 0.0
H2073 H 0.75931 0.40765 0.22623 0.0
H2074 H 0.77667 0.45155 0.23154 0.0
H2075 H 0.75478 0.45854 0.24581 0.0
H2076 H 0.72192 0.4174 0.22211 0.0
H2077 H 0.71504 0.40215 0.23259 0.0
H2078 H 0.73207 0.40048 0.22286 0.0
H2079 H 0.74539 0.39324 0.24683 0.0
H2080 H 0.72834 0.39449 0.25652 0.0
H2081 H 0.74385 0.40493 0.26268 0.0
H2082 H 0.73023 0.46098 0.25864 0.0
H2083 H 0.70723 0.45731 0.27257 0.0
H2084 H 0.70675 0.4117 0.25932 0.0
C2085 C 0.75855 0.4187 0.23049 0.0
C2086 C 0.76961 0.4291 0.22771 0.0
C2087 C 0.7683 0.44341 0.23357 0.0
C2088 C 0.75586 0.44752 0.24157 0.0
C2089 C 0.74493 0.43713 0.24372 0.0
C2090 C 0.74632 0.42292 0.23862 0.0
C2091 C 0.73333 0.41364 0.24291 0.0
C2092 C 0.72511 0.4081 0.22931 0.0
C2093 C 0.73801 0.40083 0.25282 0.0
C2094 C 0.72442 0.42485 0.25123 0.0
C2095 C 0.73113 0.43841 0.25141 0.0
C2096 C 0.7249 0.4504 0.25862 0.0
C2097 C 0.71179 0.44828 0.26636 0.0
C2098 C 0.70531 0.43424 0.26697 0.0
C2099 C 0.71152 0.42255 0.25899 0.0
H2100 H 0.25078 0.57131 0.71419 0.0
H2101 H 0.23985 0.52888 0.69593 0.0
H2102 H 0.22398 0.52392 0.71745 0.0
H2103 H 0.25564 0.56044 0.74907 0.0
H2104 H 0.24789 0.57638 0.75778 0.0
H2105 H 0.25579 0.57791 0.73983 0.0
H2106 H 0.23168 0.58841 0.72939 0.0
H2107 H 0.22382 0.5875 0.74746 0.0
H2108 H 0.21484 0.57865 0.7323 0.0
H2109 H 0.21138 0.52295 0.74253 0.0
H2110 H 0.20204 0.52671 0.76782 0.0
H2111 H 0.22348 0.56891 0.76961 0.0
C2112 C 0.24474 0.56112 0.71449 0.0
C2113 C 0.24652 0.55043 0.70349 0.0
C2114 C 0.23848 0.53724 0.70423 0.0
C2115 C 0.22953 0.53433 0.71644 0.0
C2116 C 0.22874 0.54483 0.72757 0.0
C2117 C 0.23594 0.55809 0.72651 0.0
C2118 C 0.23437 0.56716 0.74026 0.0
C2119 C 0.24931 0.57066 0.74713 0.0
C2120 C 0.22566 0.58126 0.73716 0.0
C2121 C 0.22575 0.55665 0.7496 0.0
C2122 C 0.22229 0.54396 0.74206 0.0
C2123 C 0.21407 0.53283 0.74851 0.0
C2124 C 0.20898 0.53494 0.76287 0.0
C2125 C 0.21253 0.54785 0.77063 0.0
C2126 C 0.22111 0.55873 0.76398 0.0
H2127 H 0.72736 0.40897 0.70957 0.0
H2128 H 0.71642 0.45525 0.71046 0.0
H2129 H 0.72846 0.45755 0.73462 0.0
H2130 H 0.72067 0.40211 0.74699 0.0
H2131 H 0.73547 0.38928 0.74918 0.0
H2132 H 0.72683 0.39141 0.73159 0.0
H2133 H 0.75177 0.39734 0.71961 0.0
H2134 H 0.76053 0.39491 0.73709 0.0
H2135 H 0.76291 0.41179 0.72712 0.0
H2136 H 0.73956 0.45409 0.7598 0.0
H2137 H 0.75246 0.44604 0.78229 0.0
H2138 H 0.75711 0.40242 0.76416 0.0
C2139 C 0.72772 0.41966 0.71471 0.0
C2140 C 0.72094 0.43194 0.70818 0.0
C2141 C 0.72159 0.44572 0.71527 0.0
C2142 C 0.72831 0.4471 0.72902 0.0
C2143 C 0.73438 0.43462 0.73542 0.0
C2144 C 0.7344 0.42122 0.72835 0.0
C2145 C 0.74149 0.40943 0.7376 0.0
C2146 C 0.73045 0.39735 0.74157 0.0
C2147 C 0.75498 0.403 0.7299 0.0
C2148 C 0.74565 0.41831 0.75094 0.0
C2149 C 0.74118 0.43274 0.74963 0.0
C2150 C 0.74323 0.44286 0.76088 0.0
C2151 C 0.7504 0.43819 0.77364 0.0
C2152 C 0.75562 0.42365 0.77483 0.0
C2153 C 0.75314 0.41359 0.76342 0.0
H2154 H 0.23412 0.43098 0.21215 0.0
H2155 H 0.2007 0.40369 0.23185 0.0
H2156 H 0.21052 0.40913 0.25637 0.0
H2157 H 0.2624 0.41874 0.23448 0.0
H2158 H 0.2716 0.43615 0.23572 0.0
H2159 H 0.26048 0.43209 0.22004 0.0
H2160 H 0.2455 0.45572 0.22486 0.0
H2161 H 0.25645 0.45966 0.24078 0.0
H2162 H 0.23689 0.45837 0.24241 0.0
H2163 H 0.22464 0.41612 0.27856 0.0
H2164 H 0.24463 0.42037 0.29622 0.0
H2165 H 0.27001 0.44148 0.26222 0.0
C2166 C 0.22874 0.4264 0.22167 0.0
C2167 C 0.21656 0.41707 0.22014 0.0
C2168 C 0.21002 0.41093 0.23279 0.0
C2169 C 0.21542 0.41408 0.24678 0.0
C2170 C 0.22744 0.42332 0.24797 0.0
C2171 C 0.23418 0.42921 0.23575 0.0
C2172 C 0.24805 0.43723 0.23994 0.0
C2173 C 0.26142 0.43065 0.23209 0.0
C2174 C 0.24663 0.45372 0.23681 0.0
C2175 C 0.2484 0.43427 0.25628 0.0
C2176 C 0.23608 0.42676 0.26078 0.0
C2177 C 0.23424 0.42217 0.27523 0.0
C2178 C 0.24557 0.42473 0.28522 0.0
C2179 C 0.25867 0.43143 0.28055 0.0
C2180 C 0.25992 0.43662 0.26605 0.0
H2181 H 0.75972 0.57771 0.21464 0.0
H2182 H 0.75865 0.53321 0.19821 0.0
H2183 H 0.74105 0.52651 0.2179 0.0
H2184 H 0.76084 0.57009 0.25075 0.0
H2185 H 0.74924 0.58496 0.2566 0.0
H2186 H 0.75955 0.58659 0.23996 0.0
H2187 H 0.73594 0.59183 0.22524 0.0
H2188 H 0.72552 0.5906 0.24193 0.0
H2189 H 0.72081 0.57929 0.22646 0.0
H2190 H 0.72496 0.52479 0.2413 0.0
H2191 H 0.71201 0.52834 0.265 0.0
H2192 H 0.72601 0.57367 0.26571 0.0
C2193 C 0.75555 0.56662 0.21497 0.0
C2194 C 0.76048 0.55595 0.20503 0.0
C2195 C 0.75482 0.54155 0.20573 0.0
C2196 C 0.74489 0.53768 0.21688 0.0
C2197 C 0.74067 0.54845 0.22694 0.0
C2198 C 0.74571 0.56269 0.22584 0.0
C2199 C 0.74045 0.57217 0.23828 0.0
C2200 C 0.75328 0.57883 0.2469 0.0
C2201 C 0.73006 0.58418 0.23264 0.0
C2202 C 0.73236 0.56089 0.24714 0.0
C2203 C 0.73216 0.54735 0.24033 0.0
C2204 C 0.72502 0.53538 0.24663 0.0
C2205 C 0.71778 0.53745 0.26009 0.0
C2206 C 0.71816 0.55124 0.26719 0.0
C2207 C 0.72565 0.56297 0.26064 0.0
H2208 H 0.22081 0.77251 0.53913 0.0
H2209 H 0.18581 0.74919 0.56095 0.0
H2210 H 0.20253 0.72838 0.56557 0.0
H2211 H 0.24025 0.73974 0.52334 0.0
H2212 H 0.25774 0.74804 0.52682 0.0
H2213 H 0.24219 0.75938 0.52261 0.0
H2214 H 0.2466 0.77392 0.54656 0.0
H2215 H 0.26184 0.7624 0.55113 0.0
H2216 H 0.24689 0.76431 0.56381 0.0
H2217 H 0.2243 0.7124 0.57177 0.0
H2218 H 0.24846 0.70129 0.57652 0.0
H2219 H 0.26905 0.73543 0.5507 0.0
C2220 C 0.21651 0.76276 0.54434 0.0
C2221 C 0.20205 0.76239 0.54962 0.0
C2222 C 0.19682 0.74959 0.55663 0.0
C2223 C 0.20628 0.73777 0.55939 0.0
C2224 C 0.22079 0.73891 0.55486 0.0
C2225 C 0.22578 0.75097 0.54718 0.0
C2226 C 0.24211 0.75034 0.54482 0.0
C2227 C 0.24578 0.74931 0.52842 0.0
C2228 C 0.2498 0.76352 0.55201 0.0
C2229 C 0.24566 0.73624 0.5527 0.0
C2230 C 0.23325 0.72975 0.55839 0.0
C2231 C 0.23403 0.71721 0.56707 0.0
C2232 C 0.24781 0.71104 0.56979 0.0
C2233 C 0.26061 0.71744 0.56386 0.0
C2234 C 0.25945 0.73018 0.5552 0.0
H2235 H 0.21158 0.23053 0.43136 0.0
H2236 H 0.2302 0.19357 0.40798 0.0
H2237 H 0.25453 0.2051 0.4091 0.0
H2238 H 0.23291 0.25841 0.41455 0.0
H2239 H 0.23485 0.26902 0.43109 0.0
H2240 H 0.21908 0.25757 0.42858 0.0
H2241 H 0.22486 0.24444 0.45311 0.0
H2242 H 0.24083 0.25569 0.45554 0.0
H2243 H 0.24248 0.23601 0.45569 0.0
H2244 H 0.27684 0.22105 0.41232 0.0
H2245 H 0.29478 0.24104 0.41587 0.0
H2246 H 0.26157 0.26708 0.43754 0.0
C2247 C 0.22079 0.22488 0.4265 0.0
C2248 C 0.21905 0.21115 0.41969 0.0
C2249 C 0.23134 0.20405 0.41343 0.0
C2250 C 0.24521 0.2105 0.41401 0.0
C2251 C 0.24662 0.22395 0.42105 0.0
C2252 C 0.23474 0.23107 0.42715 0.0
C2253 C 0.23913 0.24554 0.43388 0.0
C2254 C 0.23102 0.25839 0.42658 0.0
C2255 C 0.23668 0.24541 0.45054 0.0
C2256 C 0.25523 0.24564 0.43021 0.0
C2257 C 0.25943 0.23302 0.423 0.0
C2258 C 0.27372 0.23093 0.41809 0.0
C2259 C 0.28386 0.24226 0.42025 0.0
C2260 C 0.27953 0.2555 0.42705 0.0
C2261 C 0.26516 0.257 0.4324 0.0
H2262 H 0.23649 0.76888 0.43553 0.0
H2263 H 0.20185 0.75121 0.40832 0.0
H2264 H 0.20986 0.72626 0.41398 0.0
H2265 H 0.26313 0.74521 0.42376 0.0
H2266 H 0.27212 0.74308 0.44119 0.0
H2267 H 0.26187 0.75941 0.43744 0.0
H2268 H 0.24657 0.75473 0.46091 0.0
H2269 H 0.25659 0.73807 0.46441 0.0
H2270 H 0.23698 0.73762 0.463 0.0
H2271 H 0.22267 0.7035 0.41995 0.0
H2272 H 0.24236 0.68514 0.42181 0.0
H2273 H 0.26954 0.71682 0.44415 0.0
C2274 C 0.23045 0.75973 0.43105 0.0
C2275 C 0.21846 0.76203 0.42165 0.0
C2276 C 0.21103 0.74978 0.41566 0.0
C2277 C 0.21536 0.73549 0.41895 0.0
C2278 C 0.22717 0.73352 0.42828 0.0
C2279 C 0.23478 0.74527 0.4341 0.0
C2280 C 0.24837 0.74007 0.442 0.0
C2281 C 0.26218 0.74737 0.4357 0.0
C2282 C 0.24704 0.74279 0.45856 0.0
C2283 C 0.24778 0.7238 0.43859 0.0
C2284 C 0.23505 0.72016 0.43134 0.0
C2285 C 0.23255 0.70609 0.42589 0.0
C2286 C 0.24373 0.69568 0.42709 0.0
C2287 C 0.25727 0.69963 0.43328 0.0
C2288 C 0.25908 0.71357 0.4397 0.0
H2289 H 0.75522 0.76807 0.41982 0.0
H2290 H 0.7847 0.74283 0.39259 0.0
H2291 H 0.76468 0.72553 0.38672 0.0
H2292 H 0.73805 0.73641 0.43527 0.0
H2293 H 0.72039 0.74498 0.43685 0.0
H2294 H 0.73666 0.75597 0.43764 0.0
H2295 H 0.72691 0.77193 0.41628 0.0
H2296 H 0.71067 0.76086 0.41532 0.0
H2297 H 0.72184 0.76332 0.39925 0.0
H2298 H 0.74205 0.71028 0.38524 0.0
H2299 H 0.71885 0.69711 0.38949 0.0
H2300 H 0.7041 0.73219 0.41789 0.0
C2301 C 0.75734 0.75895 0.41252 0.0
C2302 C 0.77132 0.75668 0.40655 0.0
C2303 C 0.77397 0.74457 0.39728 0.0
C2304 C 0.76267 0.73482 0.39381 0.0
C2305 C 0.74894 0.73729 0.39994 0.0
C2306 C 0.74629 0.74894 0.40926 0.0
C2307 C 0.73103 0.7483 0.41558 0.0
C2308 C 0.73157 0.7463 0.43232 0.0
C2309 C 0.72208 0.76191 0.41134 0.0
C2310 C 0.72538 0.73464 0.4081 0.0
C2311 C 0.73589 0.72844 0.39915 0.0
C2312 C 0.73368 0.7151 0.39208 0.0
C2313 C 0.72052 0.7077 0.39457 0.0
C2314 C 0.70976 0.71377 0.40389 0.0
C2315 C 0.71207 0.72754 0.41044 0.0
H2316 H 0.73211 0.26843 0.44063 0.0
H2317 H 0.6991 0.25032 0.41172 0.0
H2318 H 0.70917 0.22568 0.41538 0.0
H2319 H 0.76118 0.24701 0.42869 0.0
H2320 H 0.76929 0.24428 0.44646 0.0
H2321 H 0.75839 0.26029 0.44304 0.0
H2322 H 0.74199 0.25357 0.46519 0.0
H2323 H 0.75274 0.23732 0.46847 0.0
H2324 H 0.73331 0.23586 0.46581 0.0
H2325 H 0.72349 0.20325 0.42053 0.0
H2326 H 0.74323 0.18521 0.42433 0.0
H2327 H 0.76748 0.21735 0.44939 0.0
C2328 C 0.72693 0.25924 0.43524 0.0
C2329 C 0.71475 0.26133 0.42599 0.0
C2330 C 0.70835 0.24903 0.419 0.0
C2331 C 0.71392 0.23492 0.42107 0.0
C2332 C 0.72584 0.23316 0.43031 0.0
C2333 C 0.73235 0.24495 0.43725 0.0
C2334 C 0.74575 0.24006 0.4457 0.0
C2335 C 0.75946 0.2484 0.44066 0.0
C2336 C 0.7433 0.24181 0.46227 0.0
C2337 C 0.74632 0.22398 0.44146 0.0
C2338 C 0.73439 0.22011 0.43308 0.0
C2339 C 0.73279 0.20606 0.42727 0.0
C2340 C 0.74399 0.19584 0.42958 0.0
C2341 C 0.75675 0.19989 0.43727 0.0
C2342 C 0.7577 0.21396 0.44367 0.0
H2343 H 0.78657 0.23246 0.56532 0.0
H2344 H 0.7789 0.21243 0.52311 0.0
H2345 H 0.75548 0.22574 0.52104 0.0
H2346 H 0.75277 0.2273 0.57791 0.0
H2347 H 0.75084 0.24398 0.5883 0.0
H2348 H 0.76868 0.23646 0.58502 0.0
H2349 H 0.77731 0.26066 0.57308 0.0
H2350 H 0.75967 0.26855 0.57688 0.0
H2351 H 0.76675 0.26868 0.55846 0.0
H2352 H 0.73094 0.23646 0.5261 0.0
H2353 H 0.70842 0.24772 0.53593 0.0
H2354 H 0.73187 0.26061 0.57513 0.0
C2355 C 0.78039 0.23173 0.55523 0.0
C2356 C 0.78466 0.22193 0.5441 0.0
C2357 C 0.77596 0.22036 0.53144 0.0
C2358 C 0.76259 0.22772 0.53029 0.0
C2359 C 0.75813 0.23652 0.54195 0.0
C2360 C 0.76692 0.23887 0.55405 0.0
C2361 C 0.75885 0.24724 0.56589 0.0
C2362 C 0.75772 0.2382 0.58011 0.0
C2363 C 0.76607 0.26217 0.56873 0.0
C2364 C 0.74408 0.24896 0.55868 0.0
C2365 C 0.74386 0.24265 0.54492 0.0
C2366 C 0.73107 0.24178 0.53669 0.0
C2367 C 0.7183 0.24803 0.54243 0.0
C2368 C 0.71849 0.25512 0.5562 0.0
C2369 C 0.7315 0.25542 0.56447 0.0
H2370 H 0.22875 0.21108 0.58217 0.0
H2371 H 0.21965 0.19889 0.53729 0.0
H2372 H 0.23393 0.22034 0.52858 0.0
H2373 H 0.22343 0.24752 0.57806 0.0
H2374 H 0.23763 0.25344 0.59035 0.0
H2375 H 0.22918 0.23587 0.59292 0.0
H2376 H 0.25428 0.22283 0.59147 0.0
H2377 H 0.26292 0.24043 0.58948 0.0
H2378 H 0.26612 0.22628 0.57608 0.0
H2379 H 0.24584 0.24595 0.5254 0.0
H2380 H 0.25756 0.27045 0.5281 0.0
H2381 H 0.25834 0.26449 0.57517 0.0
C2382 C 0.23026 0.21262 0.5705 0.0
C2383 C 0.22326 0.20341 0.56038 0.0
C2384 C 0.2252 0.20577 0.54518 0.0
C2385 C 0.23315 0.21799 0.54018 0.0
C2386 C 0.23919 0.22747 0.55055 0.0
C2387 C 0.23815 0.2246 0.56541 0.0
C2388 C 0.24459 0.23676 0.57451 0.0
C2389 C 0.23301 0.2438 0.58454 0.0
C2390 C 0.25776 0.23124 0.5834 0.0
C2391 C 0.24921 0.2471 0.56252 0.0
C2392 C 0.246 0.24175 0.54874 0.0
C2393 C 0.24863 0.25009 0.53615 0.0
C2394 C 0.2551 0.26402 0.53776 0.0
C2395 C 0.25889 0.26926 0.55183 0.0
C2396 C 0.25571 0.26071 0.56426 0.0
H2397 H 0.76946 0.75881 0.54369 0.0
H2398 H 0.73919 0.79275 0.55726 0.0
H2399 H 0.72291 0.77392 0.56766 0.0
H2400 H 0.7405 0.73004 0.53541 0.0
H2401 H 0.75224 0.71564 0.54201 0.0
H2402 H 0.76 0.73158 0.53336 0.0
H2403 H 0.77611 0.73565 0.55628 0.0
H2404 H 0.76803 0.72012 0.56528 0.0
H2405 H 0.76757 0.73787 0.57393 0.0
H2406 H 0.71281 0.75232 0.58089 0.0
H2407 H 0.7061 0.72839 0.59128 0.0
H2408 H 0.74228 0.70801 0.5682 0.0
C2409 C 0.75905 0.76217 0.54822 0.0
C2410 C 0.75549 0.77715 0.5496 0.0
C2411 C 0.74197 0.78129 0.55586 0.0
C2412 C 0.73274 0.77068 0.56195 0.0
C2413 C 0.73707 0.75604 0.56132 0.0
C2414 C 0.74963 0.7517 0.55414 0.0
C2415 C 0.75217 0.73535 0.5557 0.0
C2416 C 0.75116 0.7277 0.54073 0.0
C2417 C 0.76684 0.73207 0.56325 0.0
C2418 C 0.73942 0.7313 0.56543 0.0
C2419 C 0.73091 0.74342 0.56859 0.0
C2420 C 0.71913 0.74267 0.57816 0.0
C2421 C 0.71552 0.72903 0.58414 0.0
C2422 C 0.72357 0.71629 0.58041 0.0
C2423 C 0.73584 0.71753 0.57114 0.0
H2424 H 0.544 0.22087 0.7715 0.0
H2425 H 0.55693 0.18648 0.74139 0.0
H2426 H 0.56038 0.20501 0.72189 0.0
H2427 H 0.52507 0.24463 0.74414 0.0
H2428 H 0.53149 0.26109 0.75294 0.0
H2429 H 0.5281 0.24486 0.76365 0.0
H2430 H 0.55452 0.2461 0.77364 0.0
H2431 H 0.55813 0.26211 0.76275 0.0
H2432 H 0.56962 0.24616 0.76098 0.0
H2433 H 0.56597 0.22759 0.70709 0.0
H2434 H 0.57048 0.25218 0.69691 0.0
H2435 H 0.55325 0.27195 0.73656 0.0
C2436 C 0.54709 0.2172 0.76065 0.0
C2437 C 0.55011 0.20228 0.75788 0.0
C2438 C 0.55434 0.19785 0.74365 0.0
C2439 C 0.55643 0.20831 0.73256 0.0
C2440 C 0.55399 0.22306 0.73587 0.0
C2441 C 0.54911 0.22746 0.74949 0.0
C2442 C 0.54813 0.24401 0.75057 0.0
C2443 C 0.53225 0.24894 0.75296 0.0
C2444 C 0.5582 0.24993 0.7627 0.0
C2445 C 0.55356 0.24831 0.73552 0.0
C2446 C 0.55692 0.23605 0.72724 0.0
C2447 C 0.56308 0.23723 0.71336 0.0
C2448 C 0.56568 0.25127 0.70772 0.0
C2449 C 0.56206 0.26399 0.71589 0.0
C2450 C 0.5559 0.26244 0.72997 0.0
H2451 H 0.40151 0.71121 0.72801 0.0
H2452 H 0.44753 0.7035 0.72035 0.0
H2453 H 0.45343 0.72693 0.73286 0.0
H2454 H 0.40085 0.74857 0.72208 0.0
H2455 H 0.38826 0.75297 0.7366 0.0
H2456 H 0.38775 0.73516 0.72816 0.0
H2457 H 0.39121 0.72262 0.75337 0.0
H2458 H 0.39131 0.74038 0.76197 0.0
H2459 H 0.40631 0.72792 0.76485 0.0
H2460 H 0.45368 0.75296 0.74332 0.0
H2461 H 0.44879 0.77687 0.75537 0.0
H2462 H 0.40278 0.76615 0.7577 0.0
C2463 C 0.41284 0.71431 0.72934 0.0
C2464 C 0.42409 0.70567 0.72333 0.0
C2465 C 0.43881 0.70998 0.7251 0.0
C2466 C 0.44222 0.7233 0.73205 0.0
C2467 C 0.43078 0.7319 0.7374 0.0
C2468 C 0.41642 0.72731 0.73654 0.0
C2469 C 0.40611 0.73841 0.74321 0.0
C2470 C 0.3951 0.74411 0.73183 0.0
C2471 C 0.39828 0.73194 0.75665 0.0
C2472 C 0.41685 0.7502 0.74759 0.0
C2473 C 0.43101 0.74637 0.74401 0.0
C2474 C 0.44266 0.75595 0.74639 0.0
C2475 C 0.43978 0.76954 0.75306 0.0
C2476 C 0.42543 0.77324 0.75745 0.0
C2477 C 0.41386 0.76351 0.7545 0.0
H2478 H 0.54782 0.72233 0.26988 0.0
H2479 H 0.55569 0.68776 0.23831 0.0
H2480 H 0.55713 0.70628 0.21855 0.0
H2481 H 0.52656 0.74744 0.24453 0.0
H2482 H 0.53472 0.76343 0.25274 0.0
H2483 H 0.53148 0.74728 0.26364 0.0
H2484 H 0.55875 0.74697 0.27104 0.0
H2485 H 0.56218 0.76286 0.25996 0.0
H2486 H 0.57254 0.74633 0.25697 0.0
H2487 H 0.56274 0.72856 0.20362 0.0
H2488 H 0.56923 0.75283 0.19374 0.0
H2489 H 0.55663 0.77318 0.23476 0.0
C2490 C 0.54925 0.71864 0.25869 0.0
C2491 C 0.55152 0.70367 0.25553 0.0
C2492 C 0.55365 0.69917 0.24087 0.0
C2493 C 0.55457 0.70963 0.22962 0.0
C2494 C 0.55299 0.72443 0.23324 0.0
C2495 C 0.55001 0.72891 0.24738 0.0
C2496 C 0.55007 0.74548 0.24868 0.0
C2497 C 0.53479 0.75125 0.25263 0.0
C2498 C 0.56157 0.7507 0.25982 0.0
C2499 C 0.55424 0.74967 0.2332 0.0
C2500 C 0.55581 0.73735 0.22447 0.0
C2501 C 0.56113 0.73828 0.21022 0.0
C2502 C 0.56489 0.75211 0.20476 0.0
C2503 C 0.56325 0.76486 0.21346 0.0
C2504 C 0.55765 0.76364 0.22779 0.0
H2505 H 0.42364 0.27841 0.24319 0.0
H2506 H 0.44956 0.26245 0.2795 0.0
H2507 H 0.45236 0.23853 0.26712 0.0
H2508 H 0.40338 0.24739 0.23964 0.0
H2509 H 0.40176 0.24758 0.21997 0.0
H2510 H 0.40452 0.26445 0.22974 0.0
H2511 H 0.42753 0.27004 0.21427 0.0
H2512 H 0.42468 0.25332 0.20418 0.0
H2513 H 0.44192 0.2566 0.21308 0.0
H2514 H 0.4492 0.21547 0.25282 0.0
H2515 H 0.44116 0.19504 0.23702 0.0
H2516 H 0.41631 0.22565 0.21049 0.0
C2517 C 0.43049 0.27009 0.24813 0.0
C2518 C 0.43671 0.27227 0.26208 0.0
C2519 C 0.44499 0.26097 0.26866 0.0
C2520 C 0.44659 0.24737 0.26173 0.0
C2521 C 0.43974 0.24526 0.24828 0.0
C2522 C 0.43196 0.25634 0.24146 0.0
C2523 C 0.4241 0.25067 0.228 0.0
C2524 C 0.40746 0.25264 0.22944 0.0
C2525 C 0.42991 0.2581 0.21406 0.0
C2526 C 0.42838 0.23464 0.22856 0.0
C2527 C 0.43754 0.23178 0.24023 0.0
C2528 C 0.44224 0.21761 0.24349 0.0
C2529 C 0.43755 0.20606 0.23451 0.0
C2530 C 0.42816 0.20876 0.2225 0.0
C2531 C 0.42358 0.22326 0.21952 0.0
H2532 H 0.41888 0.23987 0.77561 0.0
H2533 H 0.4404 0.20047 0.76045 0.0
H2534 H 0.44352 0.21153 0.73582 0.0
H2535 H 0.39818 0.24431 0.7438 0.0
H2536 H 0.39847 0.26406 0.74407 0.0
H2537 H 0.39999 0.25397 0.76092 0.0
H2538 H 0.42431 0.26716 0.76697 0.0
H2539 H 0.4227 0.27753 0.75027 0.0
H2540 H 0.43895 0.26695 0.75378 0.0
H2541 H 0.44251 0.22672 0.71214 0.0
H2542 H 0.43771 0.24467 0.69217 0.0
H2543 H 0.41547 0.27276 0.72342 0.0
C2544 C 0.42475 0.23387 0.76722 0.0
C2545 C 0.42987 0.21962 0.76986 0.0
C2546 C 0.4368 0.21162 0.75855 0.0
C2547 C 0.43853 0.21777 0.74457 0.0
C2548 C 0.43299 0.23179 0.74212 0.0
C2549 C 0.42623 0.23971 0.75318 0.0
C2550 C 0.41988 0.25385 0.74751 0.0
C2551 C 0.40314 0.25405 0.74917 0.0
C2552 C 0.42689 0.26715 0.75508 0.0
C2553 C 0.42432 0.2528 0.73163 0.0
C2554 C 0.43185 0.24006 0.7286 0.0
C2555 C 0.4367 0.23679 0.71443 0.0
C2556 C 0.4339 0.24697 0.70316 0.0
C2557 C 0.42628 0.26011 0.70625 0.0
C2558 C 0.42141 0.26287 0.72065 0.0
H2559 H 0.57348 0.73146 0.71964 0.0
H2560 H 0.52706 0.72649 0.71223 0.0
H2561 H 0.52207 0.73685 0.7369 0.0
H2562 H 0.57455 0.72213 0.75677 0.0
H2563 H 0.5878 0.73581 0.76182 0.0
H2564 H 0.58764 0.72855 0.7435 0.0
H2565 H 0.58501 0.75471 0.73274 0.0
H2566 H 0.58564 0.76207 0.75101 0.0
H2567 H 0.57052 0.76644 0.73917 0.0
H2568 H 0.52263 0.74633 0.76345 0.0
H2569 H 0.52844 0.75832 0.78719 0.0
H2570 H 0.5744 0.75735 0.77605 0.0
C2571 C 0.56226 0.7328 0.72315 0.0
C2572 C 0.55063 0.72823 0.71417 0.0
C2573 C 0.53608 0.73012 0.71898 0.0
C2574 C 0.53317 0.73582 0.73301 0.0
C2575 C 0.54497 0.73976 0.74185 0.0
C2576 C 0.55921 0.73869 0.73689 0.0
C2577 C 0.56998 0.74412 0.74815 0.0
C2578 C 0.58061 0.73192 0.75283 0.0
C2579 C 0.57827 0.75764 0.74243 0.0
C2580 C 0.55964 0.74812 0.76039 0.0
C2581 C 0.54526 0.74545 0.7567 0.0
C2582 C 0.53385 0.74852 0.7664 0.0
C2583 C 0.53723 0.75515 0.77992 0.0
C2584 C 0.55184 0.75869 0.78338 0.0
C2585 C 0.56313 0.75472 0.77367 0.0
H2586 H 0.55053 0.20868 0.22092 0.0
H2587 H 0.54827 0.24008 0.18527 0.0
H2588 H 0.54789 0.26034 0.20323 0.0
H2589 H 0.5269 0.2291 0.24666 0.0
H2590 H 0.53765 0.22383 0.26234 0.0
H2591 H 0.53642 0.2118 0.24673 0.0
H2592 H 0.56462 0.21144 0.24483 0.0
H2593 H 0.56593 0.22355 0.26031 0.0
H2594 H 0.57441 0.22849 0.2432 0.0
H2595 H 0.55031 0.27695 0.22456 0.0
H2596 H 0.55377 0.28935 0.24818 0.0
H2597 H 0.5538 0.24732 0.27048 0.0
C2598 C 0.54967 0.21982 0.2169 0.0
C2599 C 0.54939 0.22285 0.20171 0.0
C2600 C 0.54836 0.23753 0.19685 0.0
C2601 C 0.54819 0.24909 0.20697 0.0
C2602 C 0.54883 0.24572 0.22186 0.0
C2603 C 0.54936 0.23145 0.22685 0.0
C2604 C 0.55056 0.23087 0.24343 0.0
C2605 C 0.53708 0.22346 0.25018 0.0
C2606 C 0.56472 0.22313 0.24821 0.0
C2607 C 0.55095 0.24709 0.24696 0.0
C2608 C 0.54993 0.2554 0.23432 0.0
C2609 C 0.55087 0.27059 0.23455 0.0
C2610 C 0.55289 0.27751 0.24804 0.0
C2611 C 0.55392 0.26929 0.26117 0.0
C2612 C 0.55279 0.25387 0.26064 0.0
H2613 H 0.42837 0.74583 0.20838 0.0
H2614 H 0.40811 0.78398 0.2283 0.0
H2615 H 0.41197 0.7734 0.25274 0.0
H2616 H 0.41217 0.71992 0.23256 0.0
H2617 H 0.4279 0.70807 0.23314 0.0
H2618 H 0.42459 0.71924 0.21726 0.0
H2619 H 0.45042 0.73049 0.21991 0.0
H2620 H 0.45371 0.71953 0.236 0.0
H2621 H 0.45554 0.73917 0.23688 0.0
H2622 H 0.41756 0.75873 0.27503 0.0
H2623 H 0.42125 0.73919 0.29339 0.0
H2624 H 0.43687 0.7101 0.25923 0.0
C2625 C 0.4249 0.75198 0.21791 0.0
C2626 C 0.41812 0.76578 0.21644 0.0
C2627 C 0.41343 0.77341 0.22915 0.0
C2628 C 0.41565 0.76755 0.24311 0.0
C2629 C 0.42251 0.75401 0.24422 0.0
C2630 C 0.42687 0.7462 0.23199 0.0
C2631 C 0.43292 0.73135 0.23624 0.0
C2632 C 0.42385 0.71892 0.2294 0.0
C2633 C 0.44911 0.73006 0.23201 0.0
C2634 C 0.43102 0.73199 0.25272 0.0
C2635 C 0.42531 0.74529 0.25712 0.0
C2636 C 0.42214 0.7483 0.27176 0.0
C2637 C 0.42438 0.73719 0.28213 0.0
C2638 C 0.42943 0.72322 0.27768 0.0
C2639 C 0.43314 0.72076 0.26288 0.0
H2640 H 0.10891 0.13515 0.29375 0.0
H2641 H 0.10839 0.14414 0.24721 0.0
H2642 H 0.12638 0.12434 0.24313 0.0
H2643 H 0.14571 0.13226 0.29583 0.0
H2644 H 0.14645 0.11818 0.30965 0.0
H2645 H 0.13091 0.13013 0.30867 0.0
H2646 H 0.11369 0.10776 0.30635 0.0
H2647 H 0.12923 0.09569 0.3075 0.0
H2648 H 0.11689 0.09435 0.29219 0.0
H2649 H 0.14783 0.10762 0.24464 0.0
H2650 H 0.17047 0.09454 0.25169 0.0
H2651 H 0.1572 0.09641 0.29724 0.0
C2652 C 0.11208 0.1324 0.28266 0.0
C2653 C 0.1071 0.14084 0.27073 0.0
C2654 C 0.11197 0.13757 0.25642 0.0
C2655 C 0.12215 0.12634 0.25401 0.0
C2656 C 0.12743 0.11862 0.26607 0.0
C2657 C 0.12248 0.12143 0.28014 0.0
C2658 C 0.13155 0.11333 0.29143 0.0
C2659 C 0.1391 0.12412 0.302 0.0
C2660 C 0.12228 0.10211 0.29985 0.0
C2661 C 0.14253 0.10585 0.28153 0.0
C2662 C 0.13994 0.10893 0.26695 0.0
C2663 C 0.14975 0.10477 0.25598 0.0
C2664 C 0.1626 0.09743 0.26006 0.0
C2665 C 0.16542 0.09427 0.27495 0.0
C2666 C 0.15509 0.09828 0.28571 0.0
H2667 H 0.82476 0.10991 0.29636 0.0
H2668 H 0.84686 0.08571 0.26211 0.0
H2669 H 0.86937 0.1003 0.26648 0.0
H2670 H 0.83861 0.14433 0.29058 0.0
H2671 H 0.84066 0.14881 0.30971 0.0
H2672 H 0.8272 0.13567 0.30416 0.0
H2673 H 0.83864 0.11681 0.32202 0.0
H2674 H 0.85248 0.12984 0.32724 0.0
H2675 H 0.85768 0.1121 0.32032 0.0
H2676 H 0.88835 0.1193 0.27314 0.0
H2677 H 0.90094 0.14244 0.27958 0.0
H2678 H 0.86666 0.15277 0.31046 0.0
C2679 C 0.83429 0.1079 0.28962 0.0
C2680 C 0.83406 0.0972 0.27853 0.0
C2681 C 0.84684 0.09425 0.27036 0.0
C2682 C 0.85967 0.10226 0.27297 0.0
C2683 C 0.8596 0.11266 0.28419 0.0
C2684 C 0.84723 0.11539 0.29244 0.0
C2685 C 0.8497 0.12739 0.30354 0.0
C2686 C 0.83839 0.13978 0.30187 0.0
C2687 C 0.84962 0.12116 0.3192 0.0
C2688 C 0.86488 0.13216 0.29916 0.0
C2689 C 0.8707 0.12313 0.28844 0.0
C2690 C 0.88405 0.12624 0.28174 0.0
C2691 C 0.89117 0.13933 0.28549 0.0
C2692 C 0.88472 0.1491 0.29559 0.0
C2693 C 0.87183 0.14519 0.30294 0.0
H2694 H 0.85676 0.82634 0.26626 0.0
H2695 H 0.88854 0.84644 0.29525 0.0
H2696 H 0.87156 0.86678 0.29992 0.0
H2697 H 0.84142 0.86246 0.25205 0.0
H2698 H 0.82327 0.85493 0.25111 0.0
H2699 H 0.83889 0.84331 0.24795 0.0
H2700 H 0.82981 0.82573 0.2683 0.0
H2701 H 0.81434 0.83738 0.27168 0.0
H2702 H 0.82657 0.8328 0.28646 0.0
H2703 H 0.8501 0.8827 0.30453 0.0
H2704 H 0.82594 0.89416 0.30745 0.0
H2705 H 0.80794 0.86404 0.27536 0.0
C2706 C 0.8603 0.83523 0.27325 0.0
C2707 C 0.87397 0.83475 0.2804 0.0
C2708 C 0.87817 0.84656 0.28957 0.0
C2709 C 0.8686 0.85821 0.2923 0.0
C2710 C 0.85499 0.85804 0.28555 0.0
C2711 C 0.85093 0.84704 0.27597 0.0
C2712 C 0.83527 0.84899 0.27098 0.0
C2713 C 0.83468 0.85264 0.25455 0.0
C2714 C 0.82596 0.83542 0.27458 0.0
C2715 C 0.83087 0.86209 0.28014 0.0
C2716 C 0.84251 0.86736 0.28819 0.0
C2717 C 0.84097 0.87888 0.29806 0.0
C2718 C 0.82717 0.88527 0.29969 0.0
C2719 C 0.81505 0.87999 0.29162 0.0
C2720 C 0.81699 0.86831 0.28167 0.0
H2721 H 0.13999 0.88493 0.30328 0.0
H2722 H 0.13949 0.89583 0.25715 0.0
H2723 H 0.12198 0.87552 0.25256 0.0
H2724 H 0.13981 0.84711 0.29934 0.0
H2725 H 0.12822 0.84355 0.31488 0.0
H2726 H 0.1394 0.85972 0.31453 0.0
H2727 H 0.11651 0.87594 0.31859 0.0
H2728 H 0.10524 0.85978 0.31903 0.0
H2729 H 0.1012 0.87433 0.30631 0.0
H2730 H 0.1074 0.85203 0.25289 0.0
H2731 H 0.09527 0.82832 0.25825 0.0
H2732 H 0.10408 0.83411 0.30447 0.0
C2733 C 0.13592 0.88315 0.29228 0.0
C2734 C 0.14085 0.89174 0.28053 0.0
C2735 C 0.13562 0.88924 0.26622 0.0
C2736 C 0.12572 0.8778 0.26357 0.0
C2737 C 0.12118 0.86927 0.27543 0.0
C2738 C 0.12597 0.87196 0.28954 0.0
C2739 C 0.12012 0.86084 0.30029 0.0
C2740 C 0.13263 0.85231 0.30768 0.0
C2741 C 0.11017 0.86816 0.31172 0.0
C2742 C 0.11152 0.8512 0.28999 0.0
C2743 C 0.11229 0.85618 0.27569 0.0
C2744 C 0.10642 0.84822 0.26407 0.0
C2745 C 0.09964 0.8348 0.26717 0.0
C2746 C 0.09863 0.82973 0.28176 0.0
C2747 C 0.10445 0.83808 0.29329 0.0
H2748 H 0.10536 0.8356 0.71958 0.0
H2749 H 0.10892 0.81395 0.67748 0.0
H2750 H 0.12163 0.83539 0.66733 0.0
H2751 H 0.10369 0.87468 0.70513 0.0
H2752 H 0.11516 0.88142 0.71966 0.0
H2753 H 0.10306 0.8662 0.72295 0.0
H2754 H 0.12484 0.85028 0.73172 0.0
H2755 H 0.13679 0.86558 0.72883 0.0
H2756 H 0.14059 0.8483 0.72002 0.0
H2757 H 0.13555 0.85756 0.66209 0.0
H2758 H 0.15549 0.87565 0.66384 0.0
H2759 H 0.14599 0.88181 0.70989 0.0
C2760 C 0.10879 0.83553 0.70823 0.0
C2761 C 0.10629 0.82324 0.69927 0.0
C2762 C 0.11094 0.8233 0.6845 0.0
C2763 C 0.11787 0.83553 0.67856 0.0
C2764 C 0.12024 0.84756 0.6876 0.0
C2765 C 0.11621 0.84755 0.70223 0.0
C2766 C 0.12253 0.86067 0.71016 0.0
C2767 C 0.11038 0.87137 0.71474 0.0
C2768 C 0.13174 0.85591 0.72345 0.0
C2769 C 0.13182 0.86714 0.69803 0.0
C2770 C 0.12948 0.86002 0.68487 0.0
C2771 C 0.13741 0.86334 0.67226 0.0
C2772 C 0.14869 0.87358 0.67333 0.0
C2773 C 0.15214 0.87985 0.687 0.0
C2774 C 0.14333 0.87708 0.69934 0.0
H2775 H 0.14359 0.10163 0.71114 0.0
H2776 H 0.17592 0.11446 0.67892 0.0
H2777 H 0.15908 0.13336 0.66937 0.0
H2778 H 0.11165 0.10683 0.68936 0.0
H2779 H 0.10086 0.11462 0.70393 0.0
H2780 H 0.11524 0.10181 0.70812 0.0
H2781 H 0.12735 0.12064 0.72554 0.0
H2782 H 0.11277 0.13331 0.72174 0.0
H2783 H 0.13145 0.13877 0.71886 0.0
H2784 H 0.13857 0.15043 0.66301 0.0
H2785 H 0.11761 0.16763 0.66329 0.0
H2786 H 0.09916 0.1445 0.70031 0.0
C2787 C 0.14715 0.1086 0.70223 0.0
C2788 C 0.16102 0.10676 0.69582 0.0
C2789 C 0.1654 0.11596 0.68414 0.0
C2790 C 0.15584 0.12654 0.67851 0.0
C2791 C 0.14206 0.12788 0.68484 0.0
C2792 C 0.13787 0.11944 0.6967 0.0
C2793 C 0.12287 0.12377 0.70216 0.0
C2794 C 0.11202 0.111 0.7008 0.0
C2795 C 0.12366 0.12947 0.71801 0.0
C2796 C 0.11928 0.13595 0.69149 0.0
C2797 C 0.13038 0.13796 0.68141 0.0
C2798 C 0.12979 0.14894 0.6708 0.0
C2799 C 0.11785 0.15855 0.67094 0.0
C2800 C 0.10681 0.15707 0.68164 0.0
C2801 C 0.10735 0.1455 0.69181 0.0
H2802 H 0.83387 0.10258 0.66951 0.0
H2803 H 0.83509 0.07605 0.70881 0.0
H2804 H 0.85511 0.09146 0.7186 0.0
H2805 H 0.87441 0.10982 0.66788 0.0
H2806 H 0.87131 0.12808 0.661 0.0
H2807 H 0.85877 0.11356 0.65651 0.0
H2808 H 0.83752 0.12926 0.66674 0.0
H2809 H 0.84999 0.14363 0.67163 0.0
H2810 H 0.8383 0.13571 0.68539 0.0
H2811 H 0.87141 0.11296 0.72586 0.0
H2812 H 0.88583 0.136 0.72797 0.0
H2813 H 0.87509 0.14674 0.68307 0.0
C2814 C 0.83876 0.09972 0.67993 0.0
C2815 C 0.83311 0.08818 0.68842 0.0
C2816 C 0.83952 0.08476 0.70209 0.0
C2817 C 0.85079 0.0935 0.70776 0.0
C2818 C 0.85571 0.1053 0.69938 0.0
C2819 C 0.85021 0.10808 0.68553 0.0
C2820 C 0.85677 0.12176 0.67896 0.0
C2821 C 0.86586 0.11808 0.66528 0.0
C2822 C 0.84494 0.13326 0.67549 0.0
C2823 C 0.86635 0.1266 0.69149 0.0
C2824 C 0.8656 0.11708 0.70325 0.0
C2825 C 0.87244 0.12024 0.71657 0.0
C2826 C 0.88047 0.13334 0.71774 0.0
C2827 C 0.88166 0.14282 0.70558 0.0
C2828 C 0.87455 0.13939 0.69238 0.0
H2829 H 0.84554 0.87824 0.71818 0.0
H2830 H 0.85048 0.89555 0.67429 0.0
H2831 H 0.87378 0.88222 0.67171 0.0
H2832 H 0.88716 0.87439 0.72676 0.0
H2833 H 0.88348 0.85763 0.73652 0.0
H2834 H 0.87041 0.87242 0.73692 0.0
H2835 H 0.85039 0.85468 0.72764 0.0
H2836 H 0.8633 0.83999 0.72708 0.0
H2837 H 0.85328 0.84478 0.71078 0.0
H2838 H 0.8918 0.86204 0.67116 0.0
H2839 H 0.90256 0.83734 0.6727 0.0
H2840 H 0.88609 0.83289 0.71698 0.0
C2841 C 0.85188 0.87972 0.70828 0.0
C2842 C 0.84625 0.88782 0.69643 0.0
C2843 C 0.85469 0.88946 0.68356 0.0
C2844 C 0.86797 0.88197 0.68203 0.0
C2845 C 0.87277 0.87318 0.69359 0.0
C2846 C 0.86509 0.8723 0.70663 0.0
C2847 C 0.87089 0.86017 0.71632 0.0
C2848 C 0.87844 0.86654 0.72993 0.0
C2849 C 0.85875 0.84928 0.72068 0.0
C2850 C 0.88188 0.85332 0.70606 0.0
C2851 C 0.88329 0.86132 0.69325 0.0
C2852 C 0.89117 0.85595 0.68131 0.0
C2853 C 0.89721 0.84186 0.68226 0.0
C2854 C 0.89506 0.83322 0.69496 0.0
C2855 C 0.88795 0.83933 0.70719 0.0
H2856 H 0.29159 0.10283 0.12804 0.0
H2857 H 0.24689 0.1129 0.13967 0.0
H2858 H 0.24685 0.13334 0.12211 0.0
H2859 H 0.30376 0.13522 0.13021 0.0
H2860 H 0.31638 0.13586 0.11508 0.0
H2861 H 0.31178 0.11858 0.12319 0.0
H2862 H 0.3031 0.10833 0.09833 0.0
H2863 H 0.30834 0.12538 0.08984 0.0
H2864 H 0.29005 0.11848 0.08759 0.0
H2865 H 0.25395 0.15655 0.11149 0.0
H2866 H 0.26652 0.17921 0.10374 0.0
H2867 H 0.30678 0.15492 0.09819 0.0
C2868 C 0.28154 0.10876 0.12609 0.0
C2869 C 0.26923 0.10639 0.13505 0.0
C2870 C 0.25637 0.1146 0.13278 0.0
C2871 C 0.25627 0.12621 0.12282 0.0
C2872 C 0.26909 0.12935 0.11524 0.0
C2873 C 0.28141 0.12058 0.11634 0.0
C2874 C 0.29453 0.12788 0.10926 0.0
C2875 C 0.30734 0.12948 0.12009 0.0
C2876 C 0.29927 0.11952 0.09543 0.0
C2877 C 0.28797 0.14262 0.1054 0.0
C2878 C 0.27324 0.14311 0.10869 0.0
C2879 C 0.26532 0.15616 0.10829 0.0
C2880 C 0.27256 0.169 0.10417 0.0
C2881 C 0.28748 0.1686 0.10045 0.0
C2882 C 0.29526 0.15529 0.10087 0.0
H2883 H 0.8305 0.30164 0.09866 0.0
H2884 H 0.81066 0.25931 0.10678 0.0
H2885 H 0.83235 0.25167 0.12085 0.0
H2886 H 0.86976 0.28915 0.0976 0.0
H2887 H 0.87578 0.3052 0.10737 0.0
H2888 H 0.86019 0.30628 0.09538 0.0
H2889 H 0.84455 0.31646 0.1167 0.0
H2890 H 0.86002 0.31541 0.12873 0.0
H2891 H 0.84329 0.30621 0.13353 0.0
H2892 H 0.85369 0.2501 0.13725 0.0
H2893 H 0.87323 0.25482 0.15524 0.0
H2894 H 0.87966 0.29813 0.13679 0.0
C2895 C 0.83101 0.2906 0.10297 0.0
C2896 C 0.81905 0.28098 0.10154 0.0
C2897 C 0.81978 0.26679 0.10774 0.0
C2898 C 0.83209 0.26233 0.11566 0.0
C2899 C 0.84354 0.27222 0.11731 0.0
C2900 C 0.84316 0.28606 0.11112 0.0
C2901 C 0.85594 0.29527 0.11625 0.0
C2902 C 0.86602 0.2992 0.10338 0.0
C2903 C 0.85063 0.30914 0.12428 0.0
C2904 C 0.86324 0.28461 0.12669 0.0
C2905 C 0.85603 0.27131 0.12694 0.0
C2906 C 0.85966 0.26032 0.13691 0.0
C2907 C 0.87071 0.26311 0.14713 0.0
C2908 C 0.87803 0.27676 0.14726 0.0
C2909 C 0.87451 0.28746 0.13664 0.0
H2910 H 0.70182 0.88422 0.13633 0.0
H2911 H 0.67824 0.85995 0.16959 0.0
H2912 H 0.6684 0.84345 0.15057 0.0
H2913 H 0.67507 0.87934 0.10602 0.0
H2914 H 0.68915 0.87678 0.09247 0.0
H2915 H 0.69244 0.88836 0.10813 0.0
H2916 H 0.71533 0.87307 0.11502 0.0
H2917 H 0.71233 0.86193 0.09911 0.0
H2918 H 0.71368 0.85347 0.11691 0.0
H2919 H 0.66186 0.82923 0.12863 0.0
H2920 H 0.66501 0.81354 0.10688 0.0
H2921 H 0.69476 0.84522 0.08812 0.0
C2922 C 0.6946 0.87539 0.13952 0.0
C2923 C 0.69076 0.87324 0.15432 0.0
C2924 C 0.68141 0.86158 0.15827 0.0
C2925 C 0.67552 0.8524 0.14753 0.0
C2926 C 0.67924 0.85496 0.13295 0.0
C2927 C 0.68893 0.86587 0.12897 0.0
C2928 C 0.69293 0.86483 0.11291 0.0
C2929 C 0.68704 0.87812 0.10438 0.0
C2930 C 0.70955 0.86321 0.11088 0.0
C2931 C 0.6848 0.85099 0.10878 0.0
C2932 C 0.67625 0.84605 0.12028 0.0
C2933 C 0.66839 0.83302 0.11951 0.0
C2934 C 0.67017 0.82423 0.10712 0.0
C2935 C 0.68 0.8284 0.09597 0.0
C2936 C 0.68693 0.84213 0.09645 0.0
H2937 H 0.11613 0.72032 0.15145 0.0
H2938 H 0.08365 0.69327 0.12978 0.0
H2939 H 0.09958 0.69108 0.10833 0.0
H2940 H 0.12914 0.73887 0.11644 0.0
H2941 H 0.14773 0.73929 0.12284 0.0
H2942 H 0.13288 0.74072 0.13573 0.0
H2943 H 0.14332 0.71861 0.15012 0.0
H2944 H 0.15807 0.71702 0.13723 0.0
H2945 H 0.14641 0.7015 0.14073 0.0
H2946 H 0.12015 0.68822 0.09116 0.0
H2947 H 0.14369 0.68668 0.07823 0.0
H2948 H 0.16286 0.71643 0.10995 0.0
C2949 C 0.11221 0.7143 0.14202 0.0
C2950 C 0.09862 0.70695 0.14238 0.0
C2951 C 0.09396 0.69906 0.12984 0.0
C2952 C 0.10294 0.69775 0.11753 0.0
C2953 C 0.11644 0.70466 0.11773 0.0
C2954 C 0.12098 0.71306 0.12948 0.0
C2955 C 0.13642 0.7186 0.12711 0.0
C2956 C 0.13655 0.73537 0.12543 0.0
C2957 C 0.14665 0.71362 0.13953 0.0
C2958 C 0.14012 0.71114 0.11273 0.0
C2959 C 0.12833 0.70335 0.10742 0.0
C2960 C 0.12936 0.69458 0.09497 0.0
C2961 C 0.1428 0.69371 0.08775 0.0
C2962 C 0.15506 0.70155 0.09298 0.0
C2963 C 0.1536 0.71055 0.10552 0.0
H2964 H 0.28017 0.83808 0.88502 0.0
H2965 H 0.31472 0.81284 0.86458 0.0
H2966 H 0.31296 0.82814 0.84239 0.0
H2967 H 0.25859 0.84273 0.85342 0.0
H2968 H 0.25314 0.86136 0.85707 0.0
H2969 H 0.25758 0.84927 0.87202 0.0
H2970 H 0.27707 0.86748 0.88148 0.0
H2971 H 0.27234 0.87984 0.86686 0.0
H2972 H 0.291 0.87399 0.86915 0.0
H2973 H 0.3057 0.84385 0.82165 0.0
H2974 H 0.29723 0.86334 0.80497 0.0
H2975 H 0.2684 0.87985 0.83888 0.0
C2976 C 0.28762 0.83616 0.876 0.0
C2977 C 0.29768 0.82446 0.87639 0.0
C2978 C 0.30707 0.8219 0.86438 0.0
C2979 C 0.30605 0.83042 0.85173 0.0
C2980 C 0.2956 0.84147 0.85133 0.0
C2981 C 0.28682 0.8447 0.86325 0.0
C2982 C 0.27655 0.85729 0.85976 0.0
C2983 C 0.26052 0.85236 0.86062 0.0
C2984 C 0.27942 0.87043 0.86991 0.0
C2985 C 0.281 0.86054 0.84408 0.0
C2986 C 0.29175 0.85102 0.83937 0.0
C2987 C 0.29736 0.85147 0.8252 0.0
C2988 C 0.29233 0.86242 0.81574 0.0
C2989 C 0.28209 0.87291 0.82065 0.0
C2990 C 0.27614 0.8718 0.83488 0.0
H2991 H 0.15392 0.2652 0.87778 0.0
H2992 H 0.14235 0.30323 0.90379 0.0
H2993 H 0.11801 0.30364 0.89236 0.0
H2994 H 0.14093 0.27613 0.84647 0.0
H2995 H 0.13354 0.25903 0.83993 0.0
H2996 H 0.14809 0.25892 0.85303 0.0
H2997 H 0.1325 0.24319 0.87071 0.0
H2998 H 0.11782 0.24313 0.85754 0.0
H2999 H 0.11457 0.24937 0.87598 0.0
H3000 H 0.09771 0.30355 0.87434 0.0
H3001 H 0.08348 0.30299 0.85141 0.0
H3002 H 0.10812 0.26505 0.837 0.0
C3003 C 0.14605 0.27326 0.88145 0.0
C3004 C 0.15 0.28417 0.89161 0.0
C3005 C 0.13951 0.29467 0.89609 0.0
C3006 C 0.12561 0.29495 0.88969 0.0
C3007 C 0.12227 0.28445 0.87913 0.0
C3008 C 0.13211 0.2736 0.87525 0.0
C3009 C 0.12672 0.26488 0.86224 0.0
C3010 C 0.13799 0.26476 0.84969 0.0
C3011 C 0.12266 0.24922 0.8669 0.0
C3012 C 0.11323 0.27362 0.85833 0.0
C3013 C 0.11046 0.28444 0.86857 0.0
C3014 C 0.09951 0.29487 0.86647 0.0
C3015 C 0.09151 0.2945 0.85338 0.0
C3016 C 0.09476 0.28399 0.84244 0.0
C3017 C 0.10538 0.27315 0.84522 0.0
H3018 H 0.70039 0.14543 0.89406 0.0
H3019 H 0.65838 0.16401 0.88285 0.0
H3020 H 0.65389 0.14357 0.86577 0.0
H3021 H 0.71196 0.13607 0.86255 0.0
H3022 H 0.71982 0.11831 0.86618 0.0
H3023 H 0.71806 0.13135 0.88074 0.0
H3024 H 0.70305 0.11297 0.89618 0.0
H3025 H 0.70517 0.09955 0.88183 0.0
H3026 H 0.68721 0.10433 0.88831 0.0
H3027 H 0.65726 0.12615 0.84543 0.0
H3028 H 0.66641 0.10994 0.82575 0.0
H3029 H 0.70563 0.1014 0.85078 0.0
C3030 C 0.68996 0.14467 0.88855 0.0
C3031 C 0.6797 0.1561 0.88967 0.0
C3032 C 0.66623 0.15515 0.88221 0.0
C3033 C 0.6636 0.14359 0.8725 0.0
C3034 C 0.67434 0.13287 0.8709 0.0
C3035 C 0.687 0.13292 0.87919 0.0
C3036 C 0.69742 0.12098 0.87428 0.0
C3037 C 0.7127 0.12706 0.87072 0.0
C3038 C 0.69826 0.10873 0.88583 0.0
C3039 C 0.6896 0.11568 0.86071 0.0
C3040 C 0.67608 0.12232 0.85924 0.0
C3041 C 0.66755 0.12047 0.84674 0.0
C3042 C 0.67288 0.11145 0.83557 0.0
C3043 C 0.68664 0.10461 0.83697 0.0
C3044 C 0.69504 0.10656 0.84968 0.0
H3045 H 0.88234 0.71847 0.86123 0.0
H3046 H 0.86715 0.68735 0.82858 0.0
H3047 H 0.84873 0.67824 0.84561 0.0
H3048 H 0.87452 0.69486 0.89386 0.0
H3049 H 0.86802 0.70995 0.9048 0.0
H3050 H 0.88186 0.71297 0.89108 0.0
H3051 H 0.86584 0.73291 0.87889 0.0
H3052 H 0.85208 0.73014 0.89266 0.0
H3053 H 0.8474 0.72852 0.87354 0.0
H3054 H 0.83217 0.67222 0.86524 0.0
H3055 H 0.81398 0.67337 0.8849 0.0
H3056 H 0.83661 0.71041 0.90419 0.0
C3057 C 0.87516 0.70968 0.85782 0.0
C3058 C 0.87614 0.70362 0.84365 0.0
C3059 C 0.86651 0.69225 0.83938 0.0
C3060 C 0.85614 0.6868 0.84904 0.0
C3061 C 0.85541 0.69291 0.86292 0.0
C3062 C 0.86435 0.7043 0.8673 0.0
C3063 C 0.85983 0.70992 0.88228 0.0
C3064 C 0.87177 0.70674 0.89368 0.0
C3065 C 0.85605 0.72634 0.8818 0.0
C3066 C 0.84643 0.7005 0.88504 0.0
C3067 C 0.8447 0.69025 0.87405 0.0
C3068 C 0.83335 0.68017 0.87396 0.0
C3069 C 0.82309 0.68091 0.88517 0.0
C3070 C 0.82389 0.69206 0.89589 0.0
C3071 C 0.83585 0.70181 0.89605 0.0
H3072 H 0.13707 0.30231 0.11601 0.0
H3073 H 0.13687 0.25697 0.1021 0.0
H3074 H 0.11226 0.25373 0.11299 0.0
H3075 H 0.12231 0.29746 0.14972 0.0
H3076 H 0.11137 0.31389 0.1499 0.0
H3077 H 0.12747 0.31305 0.13876 0.0
H3078 H 0.11197 0.31976 0.11593 0.0
H3079 H 0.09575 0.32039 0.12711 0.0
H3080 H 0.09637 0.30871 0.11121 0.0
H3081 H 0.09035 0.25435 0.12902 0.0
H3082 H 0.07349 0.25834 0.14971 0.0
H3083 H 0.08704 0.30377 0.15213 0.0
C3084 C 0.13164 0.29181 0.11508 0.0
C3085 C 0.13866 0.27983 0.10842 0.0
C3086 C 0.13151 0.26619 0.10729 0.0
C3087 C 0.11753 0.26434 0.11328 0.0
C3088 C 0.11086 0.27635 0.12003 0.0
C3089 C 0.11765 0.28987 0.12084 0.0
C3090 C 0.10892 0.30057 0.13 0.0
C3091 C 0.11806 0.30657 0.14285 0.0
C3092 C 0.1029 0.31309 0.12049 0.0
C3093 C 0.09677 0.29062 0.1352 0.0
C3094 C 0.09785 0.27681 0.129 0.0
C3095 C 0.08912 0.2652 0.13364 0.0
C3096 C 0.07958 0.26755 0.14541 0.0
C3097 C 0.07889 0.2814 0.15235 0.0
C3098 C 0.08704 0.29321 0.1467 0.0
H3099 H 0.1465 0.68536 0.87009 0.0
H3100 H 0.13901 0.72802 0.88943 0.0
H3101 H 0.11427 0.72866 0.87834 0.0
H3102 H 0.12869 0.68993 0.83663 0.0
H3103 H 0.12108 0.67171 0.83654 0.0
H3104 H 0.13766 0.67524 0.84634 0.0
H3105 H 0.1253 0.66439 0.86956 0.0
H3106 H 0.10849 0.66167 0.85967 0.0
H3107 H 0.10857 0.67237 0.87626 0.0
H3108 H 0.09201 0.72582 0.8625 0.0
H3109 H 0.07421 0.71991 0.84303 0.0
H3110 H 0.09483 0.67765 0.8368 0.0
C3111 C 0.13965 0.69486 0.87187 0.0
C3112 C 0.14466 0.70682 0.88021 0.0
C3113 C 0.13535 0.71891 0.88278 0.0
C3114 C 0.12128 0.71926 0.87669 0.0
C3115 C 0.11657 0.70716 0.86861 0.0
C3116 C 0.12544 0.6951 0.86636 0.0
C3117 C 0.11791 0.68358 0.85716 0.0
C3118 C 0.12687 0.67993 0.84335 0.0
C3119 C 0.11489 0.66969 0.86621 0.0
C3120 C 0.10387 0.69155 0.85353 0.0
C3121 C 0.10317 0.70503 0.86048 0.0
C3122 C 0.09219 0.71514 0.85734 0.0
C3123 C 0.0821 0.7117 0.84633 0.0
C3124 C 0.083 0.6982 0.83876 0.0
C3125 C 0.09359 0.68777 0.84288 0.0
H3126 H 0.29187 0.13411 0.88177 0.0
H3127 H 0.27969 0.16971 0.85287 0.0
H3128 H 0.27501 0.15177 0.83294 0.0
H3129 H 0.31281 0.11636 0.8564 0.0
H3130 H 0.30866 0.09806 0.86258 0.0
H3131 H 0.30764 0.11312 0.87518 0.0
H3132 H 0.28085 0.10628 0.8812 0.0
H3133 H 0.28178 0.09121 0.86847 0.0
H3134 H 0.26768 0.10488 0.86661 0.0
H3135 H 0.27388 0.13021 0.81578 0.0
H3136 H 0.28051 0.10796 0.80169 0.0
H3137 H 0.29606 0.08727 0.84137 0.0
C3138 C 0.2878 0.13805 0.87135 0.0
C3139 C 0.28582 0.15316 0.86881 0.0
C3140 C 0.2811 0.15811 0.85495 0.0
C3141 C 0.27829 0.148 0.84369 0.0
C3142 C 0.28051 0.1331 0.8465 0.0
C3143 C 0.28539 0.1282 0.85997 0.0
C3144 C 0.28942 0.11212 0.85959 0.0
C3145 C 0.30559 0.10979 0.86367 0.0
C3146 C 0.27932 0.10309 0.86956 0.0
C3147 C 0.28663 0.10883 0.84363 0.0
C3148 C 0.28092 0.12089 0.83639 0.0
C3149 C 0.27819 0.12068 0.82137 0.0
C3150 C 0.28195 0.10805 0.81347 0.0
C3151 C 0.28866 0.09609 0.82061 0.0
C3152 C 0.29072 0.09631 0.83585 0.0
H3153 H 0.83362 0.26301 0.8702 0.0
H3154 H 0.8503 0.29853 0.897 0.0
H3155 H 0.8713 0.30112 0.88037 0.0
H3156 H 0.87064 0.24814 0.85853 0.0
H3157 H 0.86381 0.244 0.84049 0.0
H3158 H 0.85184 0.24286 0.85613 0.0
H3159 H 0.83383 0.26074 0.84348 0.0
H3160 H 0.84574 0.26203 0.82792 0.0
H3161 H 0.84027 0.27842 0.83748 0.0
H3162 H 0.88771 0.30305 0.85854 0.0
H3163 H 0.89854 0.30344 0.83377 0.0
H3164 H 0.87153 0.26636 0.8215 0.0
C3165 C 0.84194 0.27099 0.87286 0.0
C3166 C 0.84028 0.28055 0.8849 0.0
C3167 C 0.85133 0.29101 0.88787 0.0
C3168 C 0.86335 0.29256 0.8785 0.0
C3169 C 0.86432 0.28339 0.86635 0.0
C3170 C 0.85404 0.27263 0.86364 0.0
C3171 C 0.85671 0.26526 0.84904 0.0
C3172 C 0.86101 0.24911 0.85118 0.0
C3173 C 0.84335 0.26672 0.83889 0.0
C3174 C 0.8695 0.2742 0.84354 0.0
C3175 C 0.87394 0.2844 0.85379 0.0
C3176 C 0.88458 0.29485 0.85057 0.0
C3177 C 0.89065 0.29503 0.83645 0.0
C3178 C 0.88594 0.2849 0.82569 0.0
C3179 C 0.87551 0.27414 0.8295 0.0
H3180 H 0.71711 0.86465 0.88391 0.0
H3181 H 0.67866 0.84103 0.89794 0.0
H3182 H 0.66318 0.85717 0.88305 0.0
H3183 H 0.69497 0.90288 0.87961 0.0
H3184 H 0.70666 0.90766 0.86447 0.0
H3185 H 0.714 0.89789 0.87999 0.0
H3186 H 0.72365 0.87772 0.86259 0.0
H3187 H 0.7163 0.88725 0.84716 0.0
H3188 H 0.71107 0.86849 0.8505 0.0
H3189 H 0.65431 0.86768 0.86038 0.0
H3190 H 0.65192 0.87559 0.83462 0.0
H3191 H 0.6943 0.89624 0.83693 0.0
C3192 C 0.70535 0.86357 0.88443 0.0
C3193 C 0.69897 0.8518 0.89199 0.0
C3194 C 0.68363 0.85022 0.89231 0.0
C3195 C 0.67475 0.85937 0.88393 0.0
C3196 C 0.68135 0.87042 0.87577 0.0
C3197 C 0.69625 0.87309 0.87651 0.0
C3198 C 0.70074 0.88443 0.86527 0.0
C3199 C 0.7043 0.89908 0.87279 0.0
C3200 C 0.71368 0.87913 0.85582 0.0
C3201 C 0.68672 0.88563 0.85655 0.0
C3202 C 0.6755 0.87784 0.86308 0.0
C3203 C 0.66265 0.87452 0.85552 0.0
C3204 C 0.66141 0.8789 0.84087 0.0
C3205 C 0.67281 0.88677 0.83412 0.0
C3206 C 0.68526 0.89073 0.84221 0.0
H3207 H 0.82528 0.7149 0.11338 0.0
H3208 H 0.81782 0.66839 0.10711 0.0
H3209 H 0.83523 0.66272 0.12686 0.0
H3210 H 0.86343 0.71155 0.11899 0.0
H3211 H 0.86472 0.72577 0.13262 0.0
H3212 H 0.85054 0.72649 0.11899 0.0
H3213 H 0.83091 0.72787 0.13937 0.0
H3214 H 0.84505 0.7273 0.15307 0.0
H3215 H 0.83051 0.71401 0.15344 0.0
H3216 H 0.85483 0.66179 0.14517 0.0
H3217 H 0.87488 0.66578 0.16275 0.0
H3218 H 0.86982 0.71283 0.15798 0.0
C3219 C 0.82714 0.70359 0.11646 0.0
C3220 C 0.82029 0.69205 0.10887 0.0
C3221 C 0.8231 0.67733 0.11285 0.0
C3222 C 0.83291 0.67401 0.12404 0.0
C3223 C 0.83986 0.68556 0.13108 0.0
C3224 C 0.83711 0.70006 0.12757 0.0
C3225 C 0.84686 0.71024 0.1363 0.0
C3226 C 0.85698 0.71903 0.12611 0.0
C3227 C 0.83778 0.72045 0.14613 0.0
C3228 C 0.8554 0.69917 0.14524 0.0
C3229 C 0.85123 0.685 0.14193 0.0
C3230 C 0.8581 0.67282 0.14802 0.0
C3231 C 0.86952 0.67518 0.15787 0.0
C3232 C 0.87377 0.68958 0.16163 0.0
C3233 C 0.86659 0.70172 0.15533 0.0
H3234 H 0.28427 0.90622 0.13643 0.0
H3235 H 0.32935 0.89589 0.14623 0.0
H3236 H 0.32996 0.8787 0.12556 0.0
H3237 H 0.27246 0.87468 0.13385 0.0
H3238 H 0.26005 0.87578 0.11856 0.0
H3239 H 0.26447 0.89199 0.12861 0.0
H3240 H 0.2734 0.90489 0.10508 0.0
H3241 H 0.26855 0.88879 0.09469 0.0
H3242 H 0.28678 0.8961 0.09357 0.0
H3243 H 0.32352 0.85718 0.11167 0.0
H3244 H 0.31119 0.83457 0.10371 0.0
H3245 H 0.26979 0.85738 0.10261 0.0
C3246 C 0.29449 0.90099 0.1336 0.0
C3247 C 0.30672 0.90224 0.14291 0.0
C3248 C 0.31986 0.89504 0.13921 0.0
C3249 C 0.32031 0.88529 0.1274 0.0
C3250 C 0.30757 0.883 0.11935 0.0
C3251 C 0.29496 0.89099 0.12196 0.0
C3252 C 0.282 0.88435 0.11401 0.0
C3253 C 0.26901 0.88152 0.12439 0.0
C3254 C 0.27742 0.89411 0.10107 0.0
C3255 C 0.28876 0.87022 0.10858 0.0
C3256 C 0.30369 0.87005 0.11109 0.0
C3257 C 0.31199 0.8574 0.10913 0.0
C3258 C 0.30489 0.84457 0.1048 0.0
C3259 C 0.28965 0.84446 0.10259 0.0
C3260 C 0.28152 0.85745 0.10406 0.0
H3261 H 0.68388 0.12744 0.09601 0.0
H3262 H 0.72995 0.13759 0.09534 0.0
H3263 H 0.73393 0.12079 0.11628 0.0
H3264 H 0.67949 0.12983 0.13146 0.0
H3265 H 0.66657 0.11519 0.13413 0.0
H3266 H 0.66778 0.12411 0.11667 0.0
H3267 H 0.6727 0.09935 0.10377 0.0
H3268 H 0.67104 0.09018 0.12117 0.0
H3269 H 0.68721 0.08765 0.11021 0.0
H3270 H 0.73151 0.10917 0.14091 0.0
H3271 H 0.72359 0.10015 0.16525 0.0
H3272 H 0.67922 0.09643 0.14936 0.0
C3273 C 0.69491 0.12537 0.09978 0.0
C3274 C 0.70669 0.13341 0.09403 0.0
C3275 C 0.72092 0.13114 0.09946 0.0
C3276 C 0.72322 0.12169 0.11137 0.0
C3277 C 0.71117 0.11458 0.11749 0.0
C3278 C 0.69732 0.11596 0.11158 0.0
C3279 C 0.68588 0.10896 0.12129 0.0
C3280 C 0.67427 0.12019 0.12617 0.0
C3281 C 0.6788 0.09574 0.11365 0.0
C3282 C 0.69531 0.10418 0.13399 0.0
C3283 C 0.70987 0.10744 0.1316 0.0
C3284 C 0.72026 0.10607 0.1427 0.0
C3285 C 0.71566 0.10114 0.15651 0.0
C3286 C 0.70087 0.09752 0.15897 0.0
C3287 C 0.69066 0.09884 0.14754 0.0
H3288 H 0.10161 0.64541 0.772 0.0
H3289 H 0.1142 0.66928 0.81095 0.0
H3290 H 0.13169 0.64956 0.8174 0.0
H3291 H 0.10278 0.61026 0.78614 0.0
H3292 H 0.11084 0.60154 0.77037 0.0
H3293 H 0.10003 0.61787 0.76813 0.0
H3294 H 0.12145 0.63104 0.75508 0.0
H3295 H 0.13212 0.61454 0.75671 0.0
H3296 H 0.13911 0.63159 0.76376 0.0
H3297 H 0.1446 0.62551 0.82133 0.0
H3298 H 0.1584 0.6024 0.81888 0.0
H3299 H 0.13931 0.59547 0.77595 0.0
C3300 C 0.10849 0.64668 0.78155 0.0
C3301 C 0.10683 0.65878 0.79096 0.0
C3302 C 0.11567 0.66011 0.80356 0.0
C3303 C 0.12541 0.6489 0.80738 0.0
C3304 C 0.1263 0.63669 0.79825 0.0
C3305 C 0.11857 0.6358 0.78527 0.0
C3306 C 0.12186 0.6217 0.77719 0.0
C3307 C 0.10805 0.6123 0.77536 0.0
C3308 C 0.12907 0.62491 0.76231 0.0
C3309 C 0.13247 0.61469 0.78777 0.0
C3310 C 0.13458 0.62333 0.80002 0.0
C3311 C 0.14336 0.61883 0.81162 0.0
C3312 C 0.151 0.6056 0.8102 0.0
C3313 C 0.1501 0.59733 0.79711 0.0
C3314 C 0.14029 0.60167 0.78602 0.0
H3315 H 0.87702 0.64575 0.81811 0.0
H3316 H 0.89544 0.65877 0.77651 0.0
H3317 H 0.89153 0.63395 0.76678 0.0
H3318 H 0.88941 0.60385 0.81457 0.0
H3319 H 0.87277 0.59826 0.82347 0.0
H3320 H 0.88173 0.61498 0.82895 0.0
H3321 H 0.85788 0.62949 0.82435 0.0
H3322 H 0.84891 0.61294 0.81907 0.0
H3323 H 0.84916 0.62832 0.80668 0.0
H3324 H 0.8779 0.61281 0.75908 0.0
H3325 H 0.85685 0.59654 0.7548 0.0
H3326 H 0.84907 0.59427 0.80138 0.0
C3327 C 0.88087 0.64298 0.80725 0.0
C3328 C 0.88658 0.65388 0.798 0.0
C3329 C 0.89116 0.65034 0.7837 0.0
C3330 C 0.8891 0.63625 0.77814 0.0
C3331 C 0.88267 0.62577 0.78716 0.0
C3332 C 0.87898 0.6288 0.8016 0.0
C3333 C 0.87002 0.61646 0.8081 0.0
C3334 C 0.87902 0.60788 0.81944 0.0
C3335 C 0.85565 0.62215 0.81491 0.0
C3336 C 0.86741 0.60727 0.7945 0.0
C3337 C 0.87532 0.61248 0.78266 0.0
C3338 C 0.87223 0.60806 0.76832 0.0
C3339 C 0.86027 0.59881 0.76593 0.0
C3340 C 0.85185 0.59389 0.77784 0.0
C3341 C 0.85596 0.59743 0.79226 0.0
H3342 H 0.87277 0.34616 0.76637 0.0
H3343 H 0.85832 0.3124 0.79653 0.0
H3344 H 0.84344 0.33049 0.80976 0.0
H3345 H 0.87423 0.37616 0.79123 0.0
H3346 H 0.86635 0.38951 0.77901 0.0
H3347 H 0.87635 0.37415 0.7717 0.0
H3348 H 0.85413 0.36657 0.75593 0.0
H3349 H 0.84426 0.38218 0.76283 0.0
H3350 H 0.83661 0.36407 0.76457 0.0
H3351 H 0.83202 0.35205 0.82102 0.0
H3352 H 0.81832 0.3747 0.82578 0.0
H3353 H 0.83752 0.39456 0.78704 0.0
C3354 C 0.86615 0.3426 0.77552 0.0
C3355 C 0.86654 0.3279 0.78038 0.0
C3356 C 0.8579 0.32355 0.79247 0.0
C3357 C 0.84963 0.33379 0.80022 0.0
C3358 C 0.84983 0.34827 0.79551 0.0
C3359 C 0.85733 0.35263 0.78312 0.0
C3360 C 0.85452 0.3687 0.77983 0.0
C3361 C 0.86871 0.37765 0.78049 0.0
C3362 C 0.84692 0.37048 0.76491 0.0
C3363 C 0.84436 0.37259 0.7924 0.0
C3364 C 0.84223 0.3607 0.80151 0.0
C3365 C 0.83339 0.36141 0.81388 0.0
C3366 C 0.82572 0.37437 0.81653 0.0
C3367 C 0.82669 0.38631 0.80667 0.0
C3368 C 0.83656 0.3856 0.79476 0.0
H3369 H 0.14582 0.37452 0.75251 0.0
H3370 H 0.13122 0.40568 0.78518 0.0
H3371 H 0.10937 0.39071 0.78967 0.0
H3372 H 0.10628 0.36129 0.74124 0.0
H3373 H 0.11333 0.34301 0.73887 0.0
H3374 H 0.1245 0.35862 0.7343 0.0
H3375 H 0.14467 0.34866 0.75144 0.0
H3376 H 0.13353 0.33337 0.75649 0.0
H3377 H 0.14051 0.3454 0.77048 0.0
H3378 H 0.09366 0.36924 0.79588 0.0
H3379 H 0.08431 0.34443 0.80137 0.0
H3380 H 0.10952 0.32687 0.76522 0.0
C3381 C 0.1376 0.37859 0.76 0.0
C3382 C 0.14028 0.39118 0.76854 0.0
C3383 C 0.12939 0.39612 0.7784 0.0
C3384 C 0.1169 0.38764 0.78106 0.0
C3385 C 0.11529 0.37446 0.77348 0.0
C3386 C 0.1251 0.37021 0.76274 0.0
C3387 C 0.1223 0.3546 0.75783 0.0
C3388 C 0.11624 0.35437 0.74213 0.0
C3389 C 0.13607 0.34496 0.75917 0.0
C3390 C 0.11068 0.35017 0.76872 0.0
C3391 C 0.10629 0.36191 0.77723 0.0
C3392 C 0.09669 0.36009 0.78898 0.0
C3393 C 0.09154 0.34594 0.7921 0.0
C3394 C 0.09629 0.33375 0.78376 0.0
C3395 C 0.10575 0.336 0.77179 0.0
H3396 H 0.10165 0.33873 0.20653 0.0
H3397 H 0.11511 0.3002 0.18213 0.0
H3398 H 0.13689 0.31337 0.17334 0.0
H3399 H 0.11357 0.36597 0.18095 0.0
H3400 H 0.12039 0.37845 0.19463 0.0
H3401 H 0.10561 0.3662 0.19902 0.0
H3402 H 0.12028 0.3558 0.22092 0.0
H3403 H 0.13496 0.36822 0.21676 0.0
H3404 H 0.13845 0.34881 0.21792 0.0
H3405 H 0.15701 0.33053 0.16699 0.0
H3406 H 0.17584 0.34982 0.16571 0.0
H3407 H 0.14987 0.37734 0.19443 0.0
C3408 C 0.1093 0.33305 0.19948 0.0
C3409 C 0.10679 0.3184 0.19512 0.0
C3410 C 0.11698 0.31131 0.18584 0.0
C3411 C 0.12929 0.31877 0.18064 0.0
C3412 C 0.13136 0.33325 0.18497 0.0
C3413 C 0.12183 0.34026 0.19439 0.0
C3414 C 0.12708 0.35564 0.1979 0.0
C3415 C 0.116 0.36725 0.19281 0.0
C3416 C 0.13039 0.3572 0.21435 0.0
C3417 C 0.14095 0.35618 0.18884 0.0
C3418 C 0.14314 0.34316 0.18141 0.0
C3419 C 0.15545 0.34076 0.17278 0.0
C3420 C 0.16608 0.35175 0.17213 0.0
C3421 C 0.1643 0.365 0.18001 0.0
C3422 C 0.1514 0.36737 0.18817 0.0
H3423 H 0.14311 0.61251 0.22311 0.0
H3424 H 0.12513 0.5809 0.19254 0.0
H3425 H 0.10421 0.59721 0.18812 0.0
H3426 H 0.10598 0.62749 0.23645 0.0
H3427 H 0.1135 0.64569 0.23766 0.0
H3428 H 0.12485 0.62998 0.24143 0.0
H3429 H 0.14335 0.639 0.22195 0.0
H3430 H 0.13199 0.6545 0.21789 0.0
H3431 H 0.13723 0.64211 0.20344 0.0
H3432 H 0.0885 0.61887 0.18279 0.0
H3433 H 0.07829 0.64354 0.17847 0.0
H3434 H 0.10647 0.66112 0.21238 0.0
C3435 C 0.13444 0.60871 0.21602 0.0
C3436 C 0.13581 0.59544 0.20817 0.0
C3437 C 0.12434 0.59099 0.19874 0.0
C3438 C 0.11237 0.60019 0.19615 0.0
C3439 C 0.11185 0.61366 0.2033 0.0
C3440 C 0.12241 0.61777 0.21333 0.0
C3441 C 0.12031 0.63351 0.21815 0.0
C3442 C 0.1159 0.63421 0.23438 0.0
C3443 C 0.13403 0.64282 0.21516 0.0
C3444 C 0.10775 0.63795 0.20836 0.0
C3445 C 0.10274 0.62626 0.20017 0.0
C3446 C 0.09206 0.62802 0.18943 0.0
C3447 C 0.08639 0.6421 0.18699 0.0
C3448 C 0.09159 0.65425 0.19509 0.0
C3449 C 0.10223 0.65204 0.20605 0.0
H3450 H 0.83738 0.60433 0.1852 0.0
H3451 H 0.81624 0.61102 0.22716 0.0
H3452 H 0.83762 0.62496 0.23585 0.0
H3453 H 0.87573 0.6022 0.19833 0.0
H3454 H 0.88244 0.61264 0.18299 0.0
H3455 H 0.86656 0.6012 0.18089 0.0
H3456 H 0.85173 0.62353 0.17158 0.0
H3457 H 0.86754 0.63498 0.17358 0.0
H3458 H 0.85077 0.63985 0.18267 0.0
H3459 H 0.8593 0.64149 0.23854 0.0
H3460 H 0.87957 0.65909 0.23481 0.0
H3461 H 0.88707 0.64086 0.19161 0.0
C3462 C 0.83746 0.60838 0.19634 0.0
C3463 C 0.82523 0.60655 0.20553 0.0
C3464 C 0.82552 0.61235 0.21993 0.0
C3465 C 0.83765 0.62019 0.225 0.0
C3466 C 0.84942 0.62217 0.21554 0.0
C3467 C 0.84943 0.6164 0.20151 0.0
C3468 C 0.8626 0.62157 0.19293 0.0
C3469 C 0.87242 0.60863 0.18854 0.0
C3470 C 0.85787 0.63051 0.1794 0.0
C3471 C 0.86988 0.63121 0.20428 0.0
C3472 C 0.86215 0.63144 0.21726 0.0
C3473 C 0.8657 0.6411 0.22859 0.0
C3474 C 0.87721 0.65105 0.22641 0.0
C3475 C 0.8851 0.65106 0.2131 0.0
C3476 C 0.88162 0.6407 0.20214 0.0
H3477 H 0.84203 0.38533 0.18322 0.0
H3478 H 0.83843 0.39062 0.23019 0.0
H3479 H 0.85682 0.37092 0.23378 0.0
H3480 H 0.84375 0.34853 0.18185 0.0
H3481 H 0.85713 0.34696 0.16745 0.0
H3482 H 0.84581 0.363 0.16855 0.0
H3483 H 0.86871 0.37957 0.16946 0.0
H3484 H 0.88016 0.36354 0.16814 0.0
H3485 H 0.88257 0.37623 0.18307 0.0
H3486 H 0.87119 0.34755 0.23201 0.0
H3487 H 0.88311 0.32417 0.22513 0.0
H3488 H 0.87914 0.33558 0.17925 0.0
C3489 C 0.8455 0.38258 0.19422 0.0
C3490 C 0.83897 0.3893 0.20646 0.0
C3491 C 0.84349 0.38554 0.22074 0.0
C3492 C 0.8539 0.37442 0.22284 0.0
C3493 C 0.85984 0.36759 0.2105 0.0
C3494 C 0.85609 0.37182 0.19645 0.0
C3495 C 0.86325 0.36216 0.18503 0.0
C3496 C 0.8518 0.35472 0.17516 0.0
C3497 C 0.87434 0.3709 0.17589 0.0
C3498 C 0.87081 0.3512 0.19487 0.0
C3499 C 0.86881 0.35456 0.20952 0.0
C3500 C 0.87322 0.34504 0.22061 0.0
C3501 C 0.87982 0.33176 0.21662 0.0
C3502 C 0.88209 0.32828 0.20171 0.0
C3503 C 0.87777 0.33822 0.19074 0.0
H3504 H 0.28634 0.64554 0.59269 0.0
H3505 H 0.32024 0.66522 0.61917 0.0
H3506 H 0.32055 0.64346 0.63511 0.0
H3507 H 0.26581 0.63468 0.61943 0.0
H3508 H 0.25964 0.61721 0.61263 0.0
H3509 H 0.26536 0.63113 0.6 0.0
H3510 H 0.28445 0.61367 0.58859 0.0
H3511 H 0.27848 0.5994 0.60087 0.0
H3512 H 0.29746 0.6045 0.60022 0.0
H3513 H 0.31257 0.62463 0.65159 0.0
H3514 H 0.29857 0.60746 0.66681 0.0
H3515 H 0.2693 0.59878 0.63054 0.0
C3516 C 0.2943 0.64479 0.60141 0.0
C3517 C 0.30336 0.6568 0.60478 0.0
C3518 C 0.31332 0.65597 0.61651 0.0
C3519 C 0.31362 0.64363 0.62552 0.0
C3520 C 0.30382 0.63233 0.62264 0.0
C3521 C 0.29452 0.63256 0.61069 0.0
C3522 C 0.28336 0.62028 0.61162 0.0
C3523 C 0.26762 0.62619 0.61088 0.0
C3524 C 0.28611 0.60878 0.59962 0.0
C3525 C 0.28689 0.61417 0.62664 0.0
C3526 C 0.29902 0.62105 0.63253 0.0
C3527 C 0.30337 0.61883 0.64695 0.0
C3528 C 0.2952 0.6093 0.65557 0.0
C3529 C 0.28286 0.60207 0.64979 0.0
C3530 C 0.27875 0.60425 0.63508 0.0
H3531 H 0.87043 0.76593 0.64313 0.0
H3532 H 0.87167 0.8111 0.65777 0.0
H3533 H 0.85409 0.81802 0.63845 0.0
H3534 H 0.86705 0.77379 0.60412 0.0
H3535 H 0.85459 0.75892 0.60067 0.0
H3536 H 0.8678 0.75747 0.61521 0.0
H3537 H 0.84713 0.75229 0.63388 0.0
H3538 H 0.8339 0.75353 0.61937 0.0
H3539 H 0.83209 0.76497 0.63537 0.0
H3540 H 0.83698 0.82017 0.61768 0.0
H3541 H 0.81842 0.81698 0.59841 0.0
H3542 H 0.82695 0.77018 0.59784 0.0
C3543 C 0.8669 0.77722 0.64219 0.0
C3544 C 0.87223 0.78806 0.65175 0.0
C3545 C 0.86754 0.80275 0.65042 0.0
C3546 C 0.85769 0.80677 0.63947 0.0
C3547 C 0.85268 0.79592 0.63003 0.0
C3548 C 0.85693 0.78141 0.63135 0.0
C3549 C 0.84929 0.77188 0.62015 0.0
C3550 C 0.86034 0.76512 0.6094 0.0
C3551 C 0.84005 0.75997 0.62765 0.0
C3552 C 0.83984 0.78325 0.61264 0.0
C3553 C 0.84229 0.79708 0.61828 0.0
C3554 C 0.83495 0.80941 0.61313 0.0
C3555 C 0.82452 0.80751 0.60214 0.0
C3556 C 0.82135 0.79335 0.59669 0.0
C3557 C 0.82923 0.7811 0.60186 0.0
H3558 H 0.68035 0.32296 0.61062 0.0
H3559 H 0.71077 0.33527 0.57656 0.0
H3560 H 0.71277 0.3602 0.58738 0.0
H3561 H 0.66295 0.36079 0.61548 0.0
H3562 H 0.6614 0.35775 0.63491 0.0
H3563 H 0.65975 0.34257 0.6224 0.0
H3564 H 0.68024 0.32896 0.63632 0.0
H3565 H 0.68221 0.34407 0.64871 0.0
H3566 H 0.69779 0.33762 0.63851 0.0
H3567 H 0.71485 0.38188 0.60482 0.0
H3568 H 0.71652 0.39797 0.62679 0.0
H3569 H 0.68503 0.37062 0.64912 0.0
C3570 C 0.68703 0.33113 0.60522 0.0
C3571 C 0.69541 0.32745 0.59289 0.0
C3572 C 0.70422 0.33812 0.58602 0.0
C3573 C 0.70534 0.35225 0.59205 0.0
C3574 C 0.69735 0.35543 0.60471 0.0
C3575 C 0.68814 0.34518 0.61102 0.0
C3576 C 0.68213 0.35039 0.6255 0.0
C3577 C 0.66558 0.35304 0.6245 0.0
C3578 C 0.68583 0.33963 0.63798 0.0
C3579 C 0.69034 0.36464 0.627 0.0
C3580 C 0.69871 0.36769 0.61475 0.0
C3581 C 0.70811 0.37975 0.61432 0.0
C3582 C 0.70908 0.38875 0.6268 0.0
C3583 C 0.70095 0.3853 0.63948 0.0
C3584 C 0.69132 0.37335 0.63945 0.0
H3585 H 0.14155 0.19215 0.60078 0.0
H3586 H 0.1683 0.2278 0.61689 0.0
H3587 H 0.1469 0.23823 0.62967 0.0
H3588 H 0.10535 0.21238 0.59857 0.0
H3589 H 0.09572 0.1966 0.60547 0.0
H3590 H 0.11186 0.1942 0.59442 0.0
H3591 H 0.12358 0.17842 0.61489 0.0
H3592 H 0.10751 0.18068 0.62587 0.0
H3593 H 0.12505 0.18585 0.63312 0.0
H3594 H 0.12468 0.24178 0.64466 0.0
H3595 H 0.10443 0.23707 0.66185 0.0
H3596 H 0.09171 0.19924 0.63615 0.0
C3597 C 0.14271 0.20246 0.60655 0.0
C3598 C 0.15646 0.20929 0.60776 0.0
C3599 C 0.1578 0.22245 0.61582 0.0
C3600 C 0.14567 0.22852 0.62298 0.0
C3601 C 0.13232 0.22125 0.62203 0.0
C3602 C 0.13078 0.20847 0.614 0.0
C3603 C 0.11617 0.20128 0.6169 0.0
C3604 C 0.10671 0.20112 0.60301 0.0
C3605 C 0.11821 0.18566 0.62307 0.0
C3606 C 0.11001 0.21163 0.62833 0.0
C3607 C 0.11933 0.22328 0.63088 0.0
C3608 C 0.11709 0.23296 0.64251 0.0
C3609 C 0.10556 0.23021 0.65224 0.0
C3610 C 0.09643 0.21787 0.65027 0.0
C3611 C 0.09824 0.209 0.63771 0.0
H3612 H 0.29888 0.33206 0.3821 0.0
H3613 H 0.25548 0.33447 0.40067 0.0
H3614 H 0.25006 0.35618 0.38518 0.0
H3615 H 0.3059 0.37118 0.37553 0.0
H3616 H 0.31428 0.36757 0.35803 0.0
H3617 H 0.31538 0.35413 0.37242 0.0
H3618 H 0.30418 0.33477 0.35503 0.0
H3619 H 0.30279 0.34819 0.34067 0.0
H3620 H 0.28678 0.33835 0.34655 0.0
H3621 H 0.24854 0.37562 0.36522 0.0
H3622 H 0.25147 0.39156 0.34327 0.0
H3623 H 0.2956 0.37549 0.33768 0.0
C3624 C 0.28848 0.33759 0.38332 0.0
C3625 C 0.27772 0.33204 0.39282 0.0
C3626 C 0.26391 0.3389 0.39364 0.0
C3627 C 0.26076 0.35115 0.38486 0.0
C3628 C 0.27146 0.35609 0.37516 0.0
C3629 C 0.28506 0.34949 0.37437 0.0
C3630 C 0.29399 0.3555 0.36181 0.0
C3631 C 0.30822 0.36252 0.36729 0.0
C3632 C 0.29711 0.34349 0.35035 0.0
C3633 C 0.28349 0.36681 0.35589 0.0
C3634 C 0.27049 0.36695 0.36358 0.0
C3635 C 0.25876 0.37577 0.35927 0.0
C3636 C 0.26045 0.3847 0.34682 0.0
C3637 C 0.2738 0.38477 0.33909 0.0
C3638 C 0.2854 0.37578 0.3437 0.0
H3639 H 0.10313 0.80081 0.33849 0.0
H3640 H 0.10089 0.75365 0.33378 0.0
H3641 H 0.11728 0.75073 0.35512 0.0
H3642 H 0.13947 0.80178 0.34301 0.0
H3643 H 0.14016 0.81685 0.35576 0.0
H3644 H 0.1251 0.81529 0.34332 0.0
H3645 H 0.10706 0.81577 0.36517 0.0
H3646 H 0.12217 0.81729 0.37771 0.0
H3647 H 0.10908 0.80271 0.37984 0.0
H3648 H 0.13709 0.75278 0.37285 0.0
H3649 H 0.16051 0.75947 0.38431 0.0
H3650 H 0.15106 0.80545 0.37743 0.0
C3651 C 0.10569 0.78989 0.34239 0.0
C3652 C 0.10065 0.77741 0.33482 0.0
C3653 C 0.10461 0.76327 0.33963 0.0
C3654 C 0.11376 0.76155 0.3518 0.0
C3655 C 0.11896 0.7741 0.35882 0.0
C3656 C 0.11513 0.78804 0.35425 0.0
C3657 C 0.12442 0.79965 0.36163 0.0
C3658 C 0.13278 0.80892 0.35026 0.0
C3659 C 0.11512 0.80943 0.37169 0.0
C3660 C 0.13462 0.79001 0.37042 0.0
C3661 C 0.13095 0.77534 0.369 0.0
C3662 C 0.13986 0.7642 0.37437 0.0
C3663 C 0.15315 0.76807 0.38077 0.0
C3664 C 0.15732 0.78293 0.38178 0.0
C3665 C 0.14776 0.79406 0.37709 0.0
H3666 H 0.7099 0.59916 0.34545 0.0
H3667 H 0.69204 0.62552 0.31021 0.0
H3668 H 0.67965 0.64131 0.32822 0.0
H3669 H 0.68075 0.59986 0.3693 0.0
H3670 H 0.69082 0.60256 0.38604 0.0
H3671 H 0.69937 0.5936 0.3707 0.0
H3672 H 0.72038 0.61255 0.37069 0.0
H3673 H 0.71224 0.62119 0.38644 0.0
H3674 H 0.71612 0.63184 0.37028 0.0
H3675 H 0.66567 0.65097 0.34927 0.0
H3676 H 0.65772 0.66081 0.37296 0.0
H3677 H 0.68726 0.63099 0.39534 0.0
C3678 C 0.70381 0.6086 0.34163 0.0
C3679 C 0.70187 0.61121 0.32651 0.0
C3680 C 0.69377 0.62352 0.32178 0.0
C3681 C 0.68653 0.6324 0.3319 0.0
C3682 C 0.68795 0.62908 0.3467 0.0
C3683 C 0.69699 0.61801 0.35166 0.0
C3684 C 0.69708 0.6174 0.36828 0.0
C3685 C 0.69168 0.60246 0.3739 0.0
C3686 C 0.71236 0.62096 0.37427 0.0
C3687 C 0.68624 0.62949 0.37177 0.0
C3688 C 0.68084 0.63574 0.3591 0.0
C3689 C 0.6701 0.6465 0.35931 0.0
C3690 C 0.66549 0.65185 0.37287 0.0
C3691 C 0.67202 0.6468 0.38601 0.0
C3692 C 0.68212 0.63507 0.38547 0.0
H3693 H 0.87049 0.18667 0.33726 0.0
H3694 H 0.88041 0.23305 0.33716 0.0
H3695 H 0.86475 0.23645 0.35916 0.0
H3696 H 0.83308 0.19112 0.34629 0.0
H3697 H 0.83204 0.1747 0.3572 0.0
H3698 H 0.84502 0.17589 0.34246 0.0
H3699 H 0.86595 0.16978 0.36053 0.0
H3700 H 0.85301 0.16868 0.37535 0.0
H3701 H 0.86841 0.18088 0.37668 0.0
H3702 H 0.84624 0.23493 0.37966 0.0
H3703 H 0.82622 0.22878 0.39684 0.0
H3704 H 0.82896 0.18322 0.38373 0.0
C3705 C 0.86955 0.19747 0.3421 0.0
C3706 C 0.87674 0.20959 0.33584 0.0
C3707 C 0.87503 0.22367 0.34203 0.0
C3708 C 0.86621 0.22565 0.35448 0.0
C3709 C 0.85915 0.21344 0.36041 0.0
C3710 C 0.86069 0.19962 0.35437 0.0
C3711 C 0.85105 0.18851 0.362 0.0
C3712 C 0.83963 0.18219 0.35135 0.0
C3713 C 0.86016 0.17625 0.36906 0.0
C3714 C 0.84397 0.19818 0.37344 0.0
C3715 C 0.84869 0.21254 0.3723 0.0
C3716 C 0.84267 0.22369 0.38083 0.0
C3717 C 0.83134 0.22012 0.39054 0.0
C3718 C 0.82635 0.2055 0.39178 0.0
C3719 C 0.83294 0.19439 0.38333 0.0
H3720 H 0.14992 0.77075 0.60306 0.0
H3721 H 0.14846 0.81772 0.59558 0.0
H3722 H 0.12791 0.81994 0.61275 0.0
H3723 H 0.10933 0.76666 0.60698 0.0
H3724 H 0.1111 0.75273 0.62085 0.0
H3725 H 0.12477 0.75441 0.60674 0.0
H3726 H 0.1449 0.75702 0.6265 0.0
H3727 H 0.13134 0.7552 0.64061 0.0
H3728 H 0.14314 0.771 0.64035 0.0
H3729 H 0.10911 0.8176 0.63196 0.0
H3730 H 0.09405 0.81096 0.65326 0.0
H3731 H 0.10732 0.76549 0.6485 0.0
C3732 C 0.14513 0.78144 0.60496 0.0
C3733 C 0.15068 0.79403 0.59797 0.0
C3734 C 0.14422 0.80789 0.60069 0.0
C3735 C 0.13252 0.80927 0.61039 0.0
C3736 C 0.12722 0.79667 0.61707 0.0
C3737 C 0.13324 0.78299 0.61447 0.0
C3738 C 0.12588 0.77136 0.6237 0.0
C3739 C 0.11726 0.76066 0.61399 0.0
C3740 C 0.13698 0.76318 0.63337 0.0
C3741 C 0.11567 0.78083 0.63269 0.0
C3742 C 0.11628 0.79532 0.62833 0.0
C3743 C 0.10836 0.80627 0.63537 0.0
C3744 C 0.09984 0.80238 0.64746 0.0
C3745 C 0.09958 0.78771 0.65256 0.0
C3746 C 0.10731 0.77678 0.64483 0.0
H3747 H 0.13829 0.1832 0.38394 0.0
H3748 H 0.15283 0.22809 0.37983 0.0
H3749 H 0.13425 0.23241 0.36061 0.0
H3750 H 0.1362 0.17585 0.34909 0.0
H3751 H 0.12006 0.16457 0.34888 0.0
H3752 H 0.13071 0.16598 0.36528 0.0
H3753 H 0.10827 0.17474 0.37994 0.0
H3754 H 0.09724 0.17296 0.36369 0.0
H3755 H 0.09771 0.19011 0.37347 0.0
H3756 H 0.11966 0.22993 0.33818 0.0
H3757 H 0.10873 0.22142 0.31501 0.0
H3758 H 0.10269 0.17816 0.33357 0.0
C3759 C 0.13699 0.1941 0.37941 0.0
C3760 C 0.14667 0.20542 0.38332 0.0
C3761 C 0.14526 0.21944 0.37701 0.0
C3762 C 0.13472 0.22195 0.36616 0.0
C3763 C 0.12573 0.21033 0.36194 0.0
C3764 C 0.12655 0.19672 0.36858 0.0
C3765 C 0.11739 0.18546 0.36054 0.0
C3766 C 0.12665 0.17221 0.35565 0.0
C3767 C 0.10438 0.18054 0.36997 0.0
C3768 C 0.11235 0.19453 0.34761 0.0
C3769 C 0.11699 0.20893 0.34883 0.0
C3770 C 0.11556 0.21885 0.33731 0.0
C3771 C 0.10951 0.21389 0.32415 0.0
C3772 C 0.10487 0.1992 0.32266 0.0
C3773 C 0.1059 0.18953 0.33464 0.0
H3774 H 0.30121 0.61066 0.322 0.0
H3775 H 0.28033 0.57383 0.34358 0.0
H3776 H 0.27082 0.59053 0.36267 0.0
H3777 H 0.31221 0.62911 0.35467 0.0
H3778 H 0.30912 0.64714 0.34724 0.0
H3779 H 0.31387 0.63224 0.33525 0.0
H3780 H 0.29064 0.63729 0.31991 0.0
H3781 H 0.28568 0.65208 0.33199 0.0
H3782 H 0.27303 0.63732 0.32873 0.0
H3783 H 0.26486 0.61109 0.38016 0.0
H3784 H 0.26358 0.63387 0.39495 0.0
H3785 H 0.28712 0.65723 0.36113 0.0
C3786 C 0.29463 0.60609 0.33073 0.0
C3787 C 0.2915 0.59096 0.33132 0.0
C3788 C 0.28289 0.5854 0.34295 0.0
C3789 C 0.27737 0.5948 0.35379 0.0
C3790 C 0.28053 0.60971 0.35277 0.0
C3791 C 0.28901 0.6153 0.34157 0.0
C3792 C 0.29128 0.63164 0.34322 0.0
C3793 C 0.30758 0.63524 0.34522 0.0
C3794 C 0.28476 0.64008 0.33019 0.0
C3795 C 0.28273 0.63439 0.35713 0.0
C3796 C 0.27663 0.6216 0.36251 0.0
C3797 C 0.26932 0.62121 0.37591 0.0
C3798 C 0.26856 0.63415 0.38419 0.0
C3799 C 0.27484 0.64723 0.37885 0.0
C3800 C 0.28175 0.64742 0.36508 0.0
H3801 H 0.85279 0.79868 0.38558 0.0
H3802 H 0.83778 0.75372 0.38691 0.0
H3803 H 0.85537 0.7472 0.36743 0.0
H3804 H 0.85466 0.80278 0.35022 0.0
H3805 H 0.87116 0.81346 0.34902 0.0
H3806 H 0.8606 0.81375 0.36553 0.0
H3807 H 0.88308 0.80547 0.38058 0.0
H3808 H 0.89389 0.80538 0.36407 0.0
H3809 H 0.89291 0.78918 0.37531 0.0
H3810 H 0.86851 0.74754 0.34363 0.0
H3811 H 0.87894 0.7539 0.31947 0.0
H3812 H 0.88747 0.79799 0.33477 0.0
C3813 C 0.85368 0.78736 0.38213 0.0
C3814 C 0.844 0.77669 0.38755 0.0
C3815 C 0.84525 0.76199 0.38287 0.0
C3816 C 0.85521 0.7582 0.37185 0.0
C3817 C 0.86412 0.76917 0.36608 0.0
C3818 C 0.86381 0.78337 0.37142 0.0
C3819 C 0.87322 0.79349 0.36232 0.0
C3820 C 0.86437 0.80662 0.35642 0.0
C3821 C 0.88657 0.79868 0.37109 0.0
C3822 C 0.87767 0.78313 0.35019 0.0
C3823 C 0.87254 0.76908 0.35266 0.0
C3824 C 0.87312 0.7583 0.34183 0.0
C3825 C 0.8789 0.76204 0.32811 0.0
C3826 C 0.88415 0.77636 0.32545 0.0
C3827 C 0.88392 0.78685 0.33675 0.0
H3828 H 0.70237 0.34374 0.3833 0.0
H3829 H 0.71772 0.30795 0.3559 0.0
H3830 H 0.71432 0.32323 0.33408 0.0
H3831 H 0.67494 0.35598 0.36144 0.0
H3832 H 0.67759 0.37541 0.36378 0.0
H3833 H 0.68339 0.36292 0.37787 0.0
H3834 H 0.70966 0.37317 0.37667 0.0
H3835 H 0.70387 0.38601 0.36282 0.0
H3836 H 0.71902 0.3739 0.35932 0.0
H3837 H 0.7051 0.33984 0.31529 0.0
H3838 H 0.69503 0.35929 0.29989 0.0
H3839 H 0.68668 0.38581 0.33859 0.0
C3840 C 0.70559 0.33934 0.37277 0.0
C3841 C 0.71024 0.32456 0.37135 0.0
C3842 C 0.71411 0.31917 0.35732 0.0
C3843 C 0.71218 0.32777 0.34481 0.0
C3844 C 0.7067 0.34189 0.34648 0.0
C3845 C 0.70391 0.34791 0.36007 0.0
C3846 C 0.69756 0.36327 0.35851 0.0
C3847 C 0.68247 0.36445 0.36583 0.0
C3848 C 0.70816 0.37477 0.3647 0.0
C3849 C 0.69645 0.36448 0.34194 0.0
C3850 C 0.70186 0.35198 0.33532 0.0
C3851 C 0.70122 0.34988 0.32027 0.0
C3852 C 0.69535 0.36102 0.31162 0.0
C3853 C 0.6902 0.37426 0.31795 0.0
C3854 C 0.69067 0.37593 0.33338 0.0
H3855 H 0.88332 0.18594 0.64964 0.0
H3856 H 0.86864 0.22269 0.67594 0.0
H3857 H 0.85205 0.23032 0.656 0.0
H3858 H 0.88052 0.20354 0.6131 0.0
H3859 H 0.87364 0.18702 0.60478 0.0
H3860 H 0.88597 0.18589 0.62011 0.0
H3861 H 0.86721 0.16993 0.63412 0.0
H3862 H 0.85481 0.17108 0.61892 0.0
H3863 H 0.84895 0.17677 0.63688 0.0
H3864 H 0.83495 0.23212 0.63454 0.0
H3865 H 0.81869 0.22788 0.61335 0.0
H3866 H 0.84447 0.18981 0.60128 0.0
C3867 C 0.87692 0.19583 0.65102 0.0
C3868 C 0.87733 0.2038 0.66425 0.0
C3869 C 0.86848 0.21644 0.66585 0.0
C3870 C 0.85909 0.2209 0.65457 0.0
C3871 C 0.85864 0.21255 0.64179 0.0
C3872 C 0.86735 0.20029 0.63995 0.0
C3873 C 0.86366 0.19228 0.62593 0.0
C3874 C 0.87673 0.19219 0.61535 0.0
C3875 C 0.85834 0.1766 0.62916 0.0
C3876 C 0.85139 0.20183 0.62025 0.0
C3877 C 0.84871 0.21353 0.62948 0.0
C3878 C 0.8371 0.22315 0.6271 0.0
C3879 C 0.82789 0.22062 0.61507 0.0
C3880 C 0.83037 0.20859 0.60559 0.0
C3881 C 0.84244 0.19928 0.60814 0.0
H3882 H 0.27643 0.34978 0.58986 0.0
H3883 H 0.23704 0.32815 0.60476 0.0
H3884 H 0.23521 0.34567 0.62523 0.0
H3885 H 0.29187 0.35185 0.62209 0.0
H3886 H 0.30065 0.36944 0.62035 0.0
H3887 H 0.29658 0.35892 0.60426 0.0
H3888 H 0.28166 0.38041 0.59341 0.0
H3889 H 0.28605 0.39127 0.6093 0.0
H3890 H 0.26726 0.38866 0.60407 0.0
H3891 H 0.24109 0.36057 0.64701 0.0
H3892 H 0.25288 0.37358 0.66746 0.0
H3893 H 0.28889 0.38551 0.639 0.0
C3894 C 0.26694 0.3493 0.59692 0.0
C3895 C 0.25678 0.33772 0.59564 0.0
C3896 C 0.24484 0.33704 0.60546 0.0
C3897 C 0.24374 0.34695 0.61713 0.0
C3898 C 0.25462 0.3575 0.61879 0.0
C3899 C 0.26586 0.35896 0.60877 0.0
C3900 C 0.27745 0.36946 0.61432 0.0
C3901 C 0.29251 0.36196 0.61531 0.0
C3902 C 0.27814 0.38327 0.6047 0.0
C3903 C 0.27143 0.37294 0.62937 0.0
C3904 C 0.25813 0.36614 0.63162 0.0
C3905 C 0.25127 0.3663 0.64524 0.0
C3906 C 0.25815 0.37358 0.65684 0.0
C3907 C 0.27178 0.38061 0.65479 0.0
C3908 C 0.27835 0.38046 0.6408 0.0
H3909 H 0.68061 0.59238 0.65417 0.0
H3910 H 0.72532 0.58629 0.6682 0.0
H3911 H 0.734 0.59762 0.64511 0.0
H3912 H 0.68557 0.58979 0.61329 0.0
H3913 H 0.67309 0.60479 0.61035 0.0
H3914 H 0.67056 0.59269 0.62574 0.0
H3915 H 0.67092 0.61489 0.64341 0.0
H3916 H 0.67326 0.62699 0.62812 0.0
H3917 H 0.6862 0.62731 0.64297 0.0
H3918 H 0.73759 0.61387 0.62376 0.0
H3919 H 0.7358 0.63557 0.60767 0.0
H3920 H 0.6888 0.6314 0.60712 0.0
C3921 C 0.69223 0.59294 0.65205 0.0
C3922 C 0.70236 0.58827 0.66267 0.0
C3923 C 0.71746 0.58972 0.66002 0.0
C3924 C 0.72244 0.596 0.6469 0.0
C3925 C 0.71214 0.6009 0.63672 0.0
C3926 C 0.69731 0.59954 0.63924 0.0
C3927 C 0.68847 0.60832 0.62831 0.0
C3928 C 0.67886 0.59829 0.61886 0.0
C3929 C 0.67919 0.62007 0.63617 0.0
C3930 C 0.70065 0.61517 0.61943 0.0
C3931 C 0.71423 0.61053 0.62427 0.0
C3932 C 0.72707 0.61724 0.61954 0.0
C3933 C 0.726 0.62951 0.61037 0.0
C3934 C 0.7122 0.63477 0.60591 0.0
C3935 C 0.69947 0.62707 0.60986 0.0
H3936 H 0.65136 0.10259 0.79877 0.0
H3937 H 0.66657 0.10512 0.75389 0.0
H3938 H 0.64587 0.12152 0.74779 0.0
H3939 H 0.61192 0.10479 0.79238 0.0
H3940 H 0.6091 0.11665 0.80793 0.0
H3941 H 0.62381 0.10355 0.80807 0.0
H3942 H 0.64214 0.12444 0.81338 0.0
H3943 H 0.62756 0.13766 0.81307 0.0
H3944 H 0.64307 0.1399 0.80113 0.0
H3945 H 0.62542 0.13995 0.74745 0.0
H3946 H 0.60603 0.15822 0.75267 0.0
H3947 H 0.60438 0.14347 0.79776 0.0
C3948 C 0.65002 0.1062 0.78755 0.0
C3949 C 0.6603 0.10244 0.7767 0.0
C3950 C 0.65864 0.10782 0.76227 0.0
C3951 C 0.64695 0.11711 0.75873 0.0
C3952 C 0.63722 0.121 0.76982 0.0
C3953 C 0.63863 0.11569 0.78394 0.0
C3954 C 0.62774 0.12273 0.79422 0.0
C3955 C 0.61753 0.11124 0.80104 0.0
C3956 C 0.63559 0.13171 0.80614 0.0
C3957 C 0.61974 0.13261 0.78361 0.0
C3958 C 0.62546 0.1316 0.76962 0.0
C3959 C 0.62067 0.14065 0.75828 0.0
C3960 C 0.60974 0.151 0.76133 0.0
C3961 C 0.60364 0.15198 0.77551 0.0
C3962 C 0.60864 0.14261 0.78672 0.0
H3963 H 0.36497 0.16306 0.77724 0.0
H3964 H 0.40067 0.14841 0.80493 0.0
H3965 H 0.393 0.12279 0.80135 0.0
H3966 H 0.33894 0.13871 0.79058 0.0
H3967 H 0.33017 0.13576 0.77316 0.0
H3968 H 0.33956 0.15268 0.77663 0.0
H3969 H 0.35534 0.14842 0.75342 0.0
H3970 H 0.34615 0.13129 0.75005 0.0
H3971 H 0.36575 0.13175 0.75166 0.0
H3972 H 0.38069 0.09897 0.79604 0.0
H3973 H 0.36261 0.07927 0.79236 0.0
H3974 H 0.33482 0.10948 0.76853 0.0
C3975 C 0.37127 0.15446 0.78245 0.0
C3976 C 0.38347 0.15774 0.79127 0.0
C3977 C 0.39131 0.14617 0.79804 0.0
C3978 C 0.38713 0.13156 0.79597 0.0
C3979 C 0.37515 0.1287 0.78705 0.0
C3980 C 0.36725 0.13984 0.78051 0.0
C3981 C 0.35405 0.13395 0.77252 0.0
C3982 C 0.33985 0.14066 0.7786 0.0
C3983 C 0.35541 0.13651 0.75593 0.0
C3984 C 0.35537 0.11784 0.77621 0.0
C3985 C 0.36786 0.11497 0.7842 0.0
C3986 C 0.37096 0.10103 0.78963 0.0
C3987 C 0.36069 0.08988 0.78741 0.0
C3988 C 0.34739 0.09291 0.78014 0.0
C3989 C 0.34499 0.10689 0.774 0.0
H3990 H 0.36709 0.83648 0.79483 0.0
H3991 H 0.38976 0.84936 0.75527 0.0
H3992 H 0.37528 0.87242 0.75446 0.0
H3993 H 0.33222 0.84963 0.78552 0.0
H3994 H 0.32778 0.85589 0.8037 0.0
H3995 H 0.34041 0.84101 0.80127 0.0
H3996 H 0.35972 0.85523 0.81636 0.0
H3997 H 0.34714 0.87025 0.81863 0.0
H3998 H 0.36492 0.87345 0.81082 0.0
H3999 H 0.3562 0.89238 0.75656 0.0
H4000 H 0.33466 0.90799 0.76175 0.0
H4001 H 0.32632 0.88327 0.80134 0.0
C4002 C 0.369 0.84424 0.78606 0.0
C4003 C 0.37932 0.84126 0.77501 0.0
C4004 C 0.38177 0.85156 0.76374 0.0
C4005 C 0.37367 0.86465 0.76326 0.0
C4006 C 0.36349 0.86731 0.77435 0.0
C4007 C 0.36125 0.85744 0.78562 0.0
C4008 C 0.34945 0.86265 0.79601 0.0
C4009 C 0.33672 0.85164 0.79665 0.0
C4010 C 0.35569 0.86557 0.81136 0.0
C4011 C 0.34499 0.87677 0.78854 0.0
C4012 C 0.35322 0.8793 0.77608 0.0
C4013 C 0.34997 0.89075 0.76649 0.0
C4014 C 0.33777 0.89958 0.76952 0.0
C4015 C 0.3292 0.89704 0.78215 0.0
C4016 C 0.33311 0.88577 0.79195 0.0
H4017 H 0.64233 0.86404 0.75379 0.0
H4018 H 0.62607 0.89683 0.784 0.0
H4019 H 0.60379 0.88242 0.78766 0.0
H4020 H 0.60289 0.85038 0.74102 0.0
H4021 H 0.61004 0.83201 0.73996 0.0
H4022 H 0.62137 0.84737 0.73494 0.0
H4023 H 0.64088 0.8384 0.75333 0.0
H4024 H 0.62958 0.8234 0.75879 0.0
H4025 H 0.63603 0.83621 0.77236 0.0
H4026 H 0.58866 0.86139 0.79492 0.0
H4027 H 0.58019 0.83687 0.8024 0.0
H4028 H 0.60579 0.81738 0.76749 0.0
C4029 C 0.63368 0.86855 0.76049 0.0
C4030 C 0.63604 0.88135 0.76881 0.0
C4031 C 0.62456 0.88697 0.77757 0.0
C4032 C 0.61179 0.87886 0.77969 0.0
C4033 C 0.61048 0.86538 0.77263 0.0
C4034 C 0.62087 0.86052 0.7627 0.0
C4035 C 0.61827 0.84466 0.75856 0.0
C4036 C 0.61281 0.84354 0.74268 0.0
C4037 C 0.632 0.83513 0.76093 0.0
C4038 C 0.60624 0.84084 0.76923 0.0
C4039 C 0.60144 0.85305 0.77681 0.0
C4040 C 0.59191 0.85185 0.78867 0.0
C4041 C 0.58727 0.83784 0.79296 0.0
C4042 C 0.59238 0.82521 0.78554 0.0
C4043 C 0.60165 0.82684 0.77331 0.0
H4044 H 0.65718 0.8819 0.22477 0.0
H4045 H 0.64026 0.90893 0.1896 0.0
H4046 H 0.61629 0.89702 0.19216 0.0
H4047 H 0.64493 0.8513 0.2132 0.0
H4048 H 0.63998 0.8428 0.23032 0.0
H4049 H 0.65356 0.85687 0.23006 0.0
H4050 H 0.63882 0.87203 0.24891 0.0
H4051 H 0.62515 0.85782 0.24942 0.0
H4052 H 0.61998 0.87644 0.24532 0.0
H4053 H 0.59722 0.87799 0.19335 0.0
H4054 H 0.58529 0.85388 0.19271 0.0
H4055 H 0.6147 0.83825 0.22649 0.0
C4056 C 0.64824 0.88579 0.21807 0.0
C4057 C 0.65063 0.89626 0.20693 0.0
C4058 C 0.63871 0.90095 0.19825 0.0
C4059 C 0.625 0.89428 0.19969 0.0
C4060 C 0.62332 0.8831 0.21 0.0
C4061 C 0.63459 0.87908 0.21927 0.0
C4062 C 0.6311 0.86499 0.22734 0.0
C4063 C 0.64309 0.85332 0.22507 0.0
C4064 C 0.62861 0.86801 0.24372 0.0
C4065 C 0.61697 0.86079 0.21988 0.0
C4066 C 0.61228 0.87172 0.21047 0.0
C4067 C 0.60056 0.86955 0.20098 0.0
C4068 C 0.59388 0.85574 0.20064 0.0
C4069 C 0.59915 0.84412 0.2095 0.0
C4070 C 0.61038 0.84695 0.21968 0.0
H4071 H 0.59461 0.14458 0.17654 0.0
H4072 H 0.58472 0.1535 0.22205 0.0
H4073 H 0.59875 0.13168 0.22949 0.0
H4074 H 0.59725 0.10246 0.17971 0.0
H4075 H 0.61248 0.10222 0.16722 0.0
H4076 H 0.59827 0.11574 0.16513 0.0
H4077 H 0.6177 0.13625 0.16612 0.0
H4078 H 0.63192 0.12292 0.1685 0.0
H4079 H 0.6297 0.13741 0.18173 0.0
H4080 H 0.61863 0.11389 0.23248 0.0
H4081 H 0.64137 0.09932 0.23052 0.0
H4082 H 0.63832 0.10087 0.18323 0.0
C4083 C 0.59482 0.14143 0.18797 0.0
C4084 C 0.58853 0.15051 0.19875 0.0
C4085 C 0.58944 0.14654 0.21368 0.0
C4086 C 0.59733 0.13415 0.21799 0.0
C4087 C 0.60424 0.12587 0.20721 0.0
C4088 C 0.60287 0.12915 0.19245 0.0
C4089 C 0.61325 0.11997 0.18331 0.0
C4090 C 0.6048 0.10947 0.17325 0.0
C4091 C 0.62375 0.12972 0.17441 0.0
C4092 C 0.62121 0.11171 0.19529 0.0
C4093 C 0.61573 0.11514 0.20899 0.0
C4094 C 0.6227 0.11066 0.22183 0.0
C4095 C 0.63564 0.10253 0.22066 0.0
C4096 C 0.64129 0.09885 0.20676 0.0
C4097 C 0.63385 0.10323 0.19396 0.0
H4098 H 0.31253 0.12279 0.20903 0.0
H4099 H 0.33099 0.08896 0.18119 0.0
H4100 H 0.35564 0.09553 0.18965 0.0
H4101 H 0.3372 0.14914 0.20196 0.0
H4102 H 0.33805 0.15662 0.22022 0.0
H4103 H 0.32198 0.14713 0.21432 0.0
H4104 H 0.32439 0.12963 0.2366 0.0
H4105 H 0.34077 0.13896 0.24234 0.0
H4106 H 0.34105 0.11945 0.23927 0.0
H4107 H 0.37814 0.10805 0.19784 0.0
H4108 H 0.3962 0.12749 0.20198 0.0
H4109 H 0.36351 0.15315 0.22493 0.0
C4110 C 0.32174 0.11661 0.20491 0.0
C4111 C 0.31981 0.1054 0.19444 0.0
C4112 C 0.33216 0.0976 0.18924 0.0
C4113 C 0.34622 0.10112 0.19413 0.0
C4114 C 0.34777 0.11229 0.20441 0.0
C4115 C 0.33585 0.11993 0.20974 0.0
C4116 C 0.34056 0.1327 0.2192 0.0
C4117 C 0.33408 0.14724 0.21357 0.0
C4118 C 0.33645 0.13002 0.2353 0.0
C4119 C 0.35695 0.13196 0.21709 0.0
C4120 C 0.36093 0.11969 0.20912 0.0
C4121 C 0.37522 0.11754 0.20431 0.0
C4122 C 0.38544 0.12869 0.20675 0.0
C4123 C 0.3812 0.14196 0.2136 0.0
C4124 C 0.36708 0.14311 0.21972 0.0
H4125 H 0.36665 0.82494 0.20551 0.0
H4126 H 0.39703 0.84124 0.17296 0.0
H4127 H 0.38872 0.8666 0.178 0.0
H4128 H 0.33801 0.84539 0.19676 0.0
H4129 H 0.33154 0.84859 0.21514 0.0
H4130 H 0.34227 0.83265 0.21125 0.0
H4131 H 0.36063 0.84034 0.23147 0.0
H4132 H 0.34996 0.85653 0.23521 0.0
H4133 H 0.36905 0.85816 0.23073 0.0
H4134 H 0.37423 0.88923 0.18358 0.0
H4135 H 0.35334 0.9061 0.18691 0.0
H4136 H 0.33247 0.87466 0.21545 0.0
C4137 C 0.37171 0.83387 0.19958 0.0
C4138 C 0.38233 0.83119 0.18875 0.0
C4139 C 0.38883 0.84311 0.18129 0.0
C4140 C 0.38431 0.85753 0.18422 0.0
C4141 C 0.3736 0.85978 0.19489 0.0
C4142 C 0.36747 0.84822 0.2025 0.0
C4143 C 0.35489 0.85312 0.212 0.0
C4144 C 0.34086 0.84444 0.20856 0.0
C4145 C 0.35888 0.85197 0.22832 0.0
C4146 C 0.35379 0.86893 0.2073 0.0
C4147 C 0.36514 0.87282 0.19804 0.0
C4148 C 0.36553 0.88644 0.1911 0.0
C4149 C 0.35367 0.89595 0.19306 0.0
C4150 C 0.34154 0.89154 0.20153 0.0
C4151 C 0.34185 0.87822 0.20918 0.0
H4152 H 0.7999 0.14567 0.59101 0.0
H4153 H 0.75629 0.1636 0.59559 0.0
H4154 H 0.74883 0.1417 0.60954 0.0
H4155 H 0.78904 0.10519 0.59083 0.0
H4156 H 0.80489 0.1005 0.60154 0.0
H4157 H 0.80571 0.11542 0.58861 0.0
H4158 H 0.81435 0.13282 0.60928 0.0
H4159 H 0.81348 0.11807 0.62223 0.0
H4160 H 0.80339 0.1347 0.62559 0.0
H4161 H 0.7473 0.12053 0.62643 0.0
H4162 H 0.7522 0.10267 0.64609 0.0
H4163 H 0.79714 0.09904 0.63154 0.0
C4164 C 0.78864 0.14471 0.59449 0.0
C4165 C 0.77864 0.15624 0.59218 0.0
C4166 C 0.76411 0.15485 0.59725 0.0
C4167 C 0.75974 0.14239 0.60505 0.0
C4168 C 0.77003 0.13144 0.60766 0.0
C4169 C 0.78419 0.13245 0.60248 0.0
C4170 C 0.79377 0.12048 0.60877 0.0
C4171 C 0.79863 0.10976 0.59672 0.0
C4172 C 0.80701 0.12691 0.61696 0.0
C4173 C 0.78308 0.1133 0.61916 0.0
C4174 C 0.76931 0.11939 0.61793 0.0
C4175 C 0.75796 0.11547 0.6273 0.0
C4176 C 0.76086 0.10538 0.63848 0.0
C4177 C 0.77508 0.09959 0.64036 0.0
C4178 C 0.78617 0.10328 0.6303 0.0
H4179 H 0.36192 0.26969 0.65178 0.0
H4180 H 0.37798 0.31439 0.65092 0.0
H4181 H 0.35855 0.32125 0.63356 0.0
H4182 H 0.3526 0.26928 0.61223 0.0
H4183 H 0.33686 0.25777 0.61489 0.0
H4184 H 0.35233 0.25617 0.62698 0.0
H4185 H 0.33544 0.26066 0.64931 0.0
H4186 H 0.31997 0.26232 0.6373 0.0
H4187 H 0.32425 0.27692 0.64988 0.0
H4188 H 0.33731 0.32355 0.61698 0.0
H4189 H 0.31529 0.32096 0.60158 0.0
H4190 H 0.31284 0.27483 0.61284 0.0
C4191 C 0.36134 0.28085 0.6478 0.0
C4192 C 0.3714 0.29152 0.65253 0.0
C4193 C 0.37044 0.30605 0.64718 0.0
C4194 C 0.35944 0.31006 0.63739 0.0
C4195 C 0.34967 0.29933 0.63286 0.0
C4196 C 0.35058 0.28498 0.63771 0.0
C4197 C 0.33878 0.27561 0.63084 0.0
C4198 C 0.34555 0.26403 0.62063 0.0
C4199 C 0.32903 0.26847 0.64254 0.0
C4200 C 0.33062 0.28715 0.62214 0.0
C4201 C 0.3373 0.30068 0.62323 0.0
C4202 C 0.33199 0.31301 0.61597 0.0
C4203 C 0.31953 0.31145 0.60727 0.0
C4204 C 0.31244 0.29774 0.60616 0.0
C4205 C 0.31802 0.28546 0.61371 0.0
H4206 H 0.1941 0.84431 0.59022 0.0
H4207 H 0.23058 0.81664 0.6026 0.0
H4208 H 0.23759 0.83448 0.62161 0.0
H4209 H 0.21157 0.88077 0.59852 0.0
H4210 H 0.19469 0.8879 0.60576 0.0
H4211 H 0.19438 0.87453 0.59123 0.0
H4212 H 0.17774 0.8579 0.60701 0.0
H4213 H 0.17812 0.87106 0.62163 0.0
H4214 H 0.18372 0.85243 0.625 0.0
H4215 H 0.23771 0.8525 0.64216 0.0
H4216 H 0.23173 0.87022 0.66177 0.0
H4217 H 0.19568 0.88667 0.63577 0.0
C4218 C 0.20391 0.84232 0.59652 0.0
C4219 C 0.21186 0.82916 0.59487 0.0
C4220 C 0.22436 0.82669 0.60365 0.0
C4221 C 0.22846 0.83678 0.61446 0.0
C4222 C 0.21999 0.84934 0.61629 0.0
C4223 C 0.20807 0.85224 0.60744 0.0
C4224 C 0.19973 0.86554 0.61281 0.0
C4225 C 0.20012 0.87792 0.6014 0.0
C4226 C 0.18391 0.86148 0.61685 0.0
C4227 C 0.20859 0.86942 0.62627 0.0
C4228 C 0.22026 0.85998 0.62807 0.0
C4229 C 0.22889 0.86025 0.64065 0.0
C4230 C 0.22541 0.87031 0.65175 0.0
C4231 C 0.21348 0.88003 0.65012 0.0
C4232 C 0.2052 0.87974 0.63707 0.0
H4233 H 0.60024 0.68934 0.65363 0.0
H4234 H 0.59196 0.73068 0.63196 0.0
H4235 H 0.60886 0.72338 0.61185 0.0
H4236 H 0.6359 0.68896 0.64978 0.0
H4237 H 0.6382 0.66957 0.64675 0.0
H4238 H 0.62262 0.67609 0.65665 0.0
H4239 H 0.60547 0.66288 0.63847 0.0
H4240 H 0.62108 0.65625 0.62841 0.0
H4241 H 0.60701 0.66646 0.61912 0.0
H4242 H 0.62938 0.71314 0.59663 0.0
H4243 H 0.65346 0.70313 0.58966 0.0
H4244 H 0.64939 0.66954 0.62288 0.0
C4245 C 0.60173 0.69664 0.64439 0.0
C4246 C 0.59498 0.71048 0.64413 0.0
C4247 C 0.59712 0.72 0.63216 0.0
C4248 C 0.60654 0.71584 0.6207 0.0
C4249 C 0.61345 0.70215 0.62148 0.0
C4250 C 0.61108 0.69269 0.63308 0.0
C4251 C 0.62147 0.67982 0.63289 0.0
C4252 C 0.63006 0.67857 0.64736 0.0
C4253 C 0.61327 0.66551 0.62951 0.0
C4254 C 0.63111 0.68423 0.62023 0.0
C4255 C 0.62582 0.69664 0.61324 0.0
C4256 C 0.63347 0.70332 0.60187 0.0
C4257 C 0.64713 0.69758 0.59801 0.0
C4258 C 0.65315 0.68566 0.60587 0.0
C4259 C 0.64488 0.67863 0.61675 0.0
H4260 H 0.78483 0.82108 0.37235 0.0
H4261 H 0.79545 0.848 0.41 0.0
H4262 H 0.78485 0.86964 0.39753 0.0
H4263 H 0.79328 0.84667 0.34519 0.0
H4264 H 0.77847 0.84146 0.33329 0.0
H4265 H 0.78606 0.82831 0.34579 0.0
H4266 H 0.76025 0.82396 0.35664 0.0
H4267 H 0.75265 0.8374 0.34435 0.0
H4268 H 0.75002 0.83924 0.36382 0.0
H4269 H 0.7755 0.88868 0.3797 0.0
H4270 H 0.76933 0.90344 0.35786 0.0
H4271 H 0.76297 0.86351 0.3329 0.0
C4272 C 0.78491 0.83153 0.37798 0.0
C4273 C 0.79104 0.83294 0.39206 0.0
C4274 C 0.79082 0.84674 0.39916 0.0
C4275 C 0.78473 0.85904 0.39221 0.0
C4276 C 0.77864 0.85724 0.37833 0.0
C4277 C 0.77863 0.8438 0.37134 0.0
C4278 C 0.77205 0.84482 0.35621 0.0
C4279 C 0.78313 0.84005 0.34443 0.0
C4280 C 0.7579 0.83582 0.3552 0.0
C4281 C 0.76892 0.86109 0.35547 0.0
C4282 C 0.77263 0.86807 0.36838 0.0
C4283 C 0.77226 0.88331 0.36965 0.0
C4284 C 0.7687 0.89161 0.3572 0.0
C4285 C 0.76554 0.88463 0.34371 0.0
C4286 C 0.76497 0.86918 0.34312 0.0
H4287 H 0.60282 0.27108 0.33582 0.0
H4288 H 0.60731 0.31553 0.31976 0.0
H4289 H 0.62297 0.32171 0.34089 0.0
H4290 H 0.60496 0.28003 0.37611 0.0
H4291 H 0.61575 0.26398 0.38 0.0
H4292 H 0.60252 0.26364 0.36539 0.0
H4293 H 0.62265 0.25574 0.347 0.0
H4294 H 0.63576 0.25581 0.36161 0.0
H4295 H 0.63899 0.26664 0.34542 0.0
H4296 H 0.63945 0.32267 0.36223 0.0
H4297 H 0.6594 0.31718 0.37953 0.0
H4298 H 0.6461 0.27162 0.38069 0.0
C4299 C 0.60704 0.28211 0.33695 0.0
C4300 C 0.60403 0.29287 0.32633 0.0
C4301 C 0.6097 0.30718 0.32786 0.0
C4302 C 0.61837 0.31083 0.3399 0.0
C4303 C 0.62127 0.3 0.35025 0.0
C4304 C 0.61598 0.28586 0.3488 0.0
C4305 C 0.62248 0.2758 0.36026 0.0
C4306 C 0.61073 0.27056 0.37108 0.0
C4307 C 0.63045 0.26274 0.35314 0.0
C4308 C 0.633 0.28626 0.36762 0.0
C4309 C 0.63156 0.30033 0.36219 0.0
C4310 C 0.64059 0.31175 0.36671 0.0
C4311 C 0.65185 0.30855 0.37654 0.0
C4312 C 0.65418 0.294 0.38129 0.0
C4313 C 0.64439 0.28283 0.37718 0.0
H4314 H 0.20608 0.09896 0.34889 0.0
H4315 H 0.18822 0.1247 0.31319 0.0
H4316 H 0.17278 0.13829 0.33075 0.0
H4317 H 0.17309 0.09688 0.37114 0.0
H4318 H 0.18285 0.09898 0.38815 0.0
H4319 H 0.19159 0.09032 0.37271 0.0
H4320 H 0.21297 0.10902 0.37366 0.0
H4321 H 0.20465 0.11701 0.38956 0.0
H4322 H 0.20886 0.12835 0.37396 0.0
H4323 H 0.16015 0.14966 0.35211 0.0
H4324 H 0.1573 0.16274 0.37551 0.0
H4325 H 0.18292 0.1294 0.39733 0.0
C4326 C 0.19901 0.10756 0.34481 0.0
C4327 C 0.19833 0.11083 0.32975 0.0
C4328 C 0.18904 0.12219 0.32476 0.0
C4329 C 0.17998 0.12971 0.33459 0.0
C4330 C 0.1804 0.12573 0.34933 0.0
C4331 C 0.19 0.11522 0.35446 0.0
C4332 C 0.1897 0.1142 0.37096 0.0
C4333 C 0.18396 0.0992 0.37603 0.0
C4334 C 0.20493 0.11735 0.37741 0.0
C4335 C 0.1789 0.12627 0.37439 0.0
C4336 C 0.17319 0.1324 0.36174 0.0
C4337 C 0.16437 0.14486 0.36209 0.0
C4338 C 0.1626 0.15212 0.37549 0.0
C4339 C 0.16999 0.14701 0.38809 0.0
C4340 C 0.17702 0.13329 0.38781 0.0
H4341 H 0.33257 0.68501 0.38127 0.0
H4342 H 0.30965 0.72546 0.37135 0.0
H4343 H 0.32918 0.73234 0.35403 0.0
H4344 H 0.37001 0.69899 0.37818 0.0
H4345 H 0.37648 0.68252 0.3694 0.0
H4346 H 0.36155 0.68162 0.38222 0.0
H4347 H 0.34551 0.66901 0.36255 0.0
H4348 H 0.36034 0.66989 0.34968 0.0
H4349 H 0.34292 0.6778 0.34508 0.0
H4350 H 0.34984 0.73357 0.33595 0.0
H4351 H 0.37016 0.72907 0.31867 0.0
H4352 H 0.3796 0.68799 0.34068 0.0
C4353 C 0.33184 0.69548 0.37573 0.0
C4354 C 0.31968 0.70476 0.37774 0.0
C4355 C 0.31891 0.7182 0.37 0.0
C4356 C 0.32997 0.72223 0.36017 0.0
C4357 C 0.34168 0.71268 0.35822 0.0
C4358 C 0.3427 0.6996 0.3658 0.0
C4359 C 0.35572 0.6907 0.3608 0.0
C4360 C 0.36659 0.68833 0.3734 0.0
C4361 C 0.35082 0.67599 0.35413 0.0
C4362 C 0.36187 0.70082 0.34922 0.0
C4363 C 0.35363 0.71344 0.34787 0.0
C4364 C 0.35653 0.72385 0.33707 0.0
C4365 C 0.36806 0.7212 0.3273 0.0
C4366 C 0.37656 0.70829 0.32848 0.0
C4367 C 0.37352 0.69813 0.33974 0.0
H4368 H 0.61394 0.31409 0.652 0.0
H4369 H 0.58341 0.27842 0.6467 0.0
H4370 H 0.59475 0.27201 0.623 0.0
H4371 H 0.61842 0.32093 0.6088 0.0
H4372 H 0.63725 0.32573 0.61184 0.0
H4373 H 0.62355 0.33081 0.62509 0.0
H4374 H 0.63855 0.31786 0.64522 0.0
H4375 H 0.65203 0.3124 0.63213 0.0
H4376 H 0.64309 0.29871 0.6432 0.0
H4377 H 0.61348 0.26508 0.60468 0.0
H4378 H 0.63682 0.25976 0.59185 0.0
H4379 H 0.65522 0.29982 0.60919 0.0
C4380 C 0.60923 0.30549 0.64534 0.0
C4381 C 0.59789 0.29675 0.65087 0.0
C4382 C 0.59201 0.2853 0.64235 0.0
C4383 C 0.59835 0.28164 0.62888 0.0
C4384 C 0.61027 0.28983 0.62405 0.0
C4385 C 0.61531 0.30193 0.63176 0.0
C4386 C 0.62952 0.30755 0.62544 0.0
C4387 C 0.62703 0.32211 0.61731 0.0
C4388 C 0.64148 0.30919 0.6372 0.0
C4389 C 0.63284 0.29534 0.61476 0.0
C4390 C 0.62129 0.28567 0.61348 0.0
C4391 C 0.62243 0.27277 0.60528 0.0
C4392 C 0.63572 0.2697 0.59825 0.0
C4393 C 0.64768 0.27926 0.59995 0.0
C4394 C 0.64614 0.29231 0.60801 0.0
H4395 H 0.59834 0.67979 0.33095 0.0
H4396 H 0.60434 0.72415 0.31503 0.0
H4397 H 0.6167 0.73077 0.3382 0.0
H4398 H 0.5937 0.68824 0.37034 0.0
H4399 H 0.60428 0.67253 0.37586 0.0
H4400 H 0.59383 0.67195 0.35917 0.0
H4401 H 0.61715 0.66509 0.3446 0.0
H4402 H 0.6276 0.66555 0.36123 0.0
H4403 H 0.63302 0.67668 0.34587 0.0
H4404 H 0.63052 0.73185 0.36188 0.0
H4405 H 0.6465 0.72661 0.38323 0.0
H4406 H 0.63216 0.68143 0.38299 0.0
C4407 C 0.60197 0.69098 0.33251 0.0
C4408 C 0.60032 0.70152 0.32136 0.0
C4409 C 0.60555 0.71595 0.32352 0.0
C4410 C 0.61244 0.71982 0.33666 0.0
C4411 C 0.61408 0.7091 0.34742 0.0
C4412 C 0.6091 0.69493 0.34541 0.0
C4413 C 0.61385 0.68497 0.35775 0.0
C4414 C 0.60062 0.67909 0.36629 0.0
C4415 C 0.62348 0.67234 0.35202 0.0
C4416 C 0.62258 0.69568 0.36684 0.0
C4417 C 0.62235 0.70962 0.36089 0.0
C4418 C 0.63059 0.72106 0.36679 0.0
C4419 C 0.63959 0.71804 0.37886 0.0
C4420 C 0.64022 0.70373 0.38466 0.0
C4421 C 0.63147 0.69253 0.3788 0.0
H4422 H 0.78246 0.13572 0.38953 0.0
H4423 H 0.78417 0.17514 0.36293 0.0
H4424 H 0.78856 0.16011 0.34097 0.0
H4425 H 0.80988 0.1153 0.37102 0.0
H4426 H 0.80052 0.09795 0.37183 0.0
H4427 H 0.79728 0.11159 0.38573 0.0
H4428 H 0.76954 0.11093 0.38039 0.0
H4429 H 0.77266 0.09703 0.36674 0.0
H4430 H 0.76317 0.11365 0.36192 0.0
H4431 H 0.79445 0.14145 0.32237 0.0
H4432 H 0.79649 0.11955 0.30673 0.0
H4433 H 0.78959 0.09157 0.34448 0.0
C4434 C 0.78356 0.14113 0.37903 0.0
C4435 C 0.78301 0.1566 0.37793 0.0
C4436 C 0.78442 0.16332 0.36402 0.0
C4437 C 0.78709 0.15488 0.35151 0.0
C4438 C 0.78804 0.13973 0.35303 0.0
C4439 C 0.7859 0.13283 0.36632 0.0
C4440 C 0.78681 0.11627 0.36466 0.0
C4441 C 0.79937 0.10991 0.37386 0.0
C4442 C 0.77218 0.10905 0.36866 0.0
C4443 C 0.78998 0.115 0.34838 0.0
C4444 C 0.79087 0.12875 0.34202 0.0
C4445 C 0.79366 0.13064 0.32717 0.0
C4446 C 0.79489 0.11816 0.31841 0.0
C4447 C 0.79327 0.104 0.32447 0.0
C4448 C 0.79111 0.10232 0.33969 0.0
H4449 H 0.37943 0.26732 0.33007 0.0
H4450 H 0.3862 0.31414 0.32469 0.0
H4451 H 0.36667 0.31907 0.34247 0.0
H4452 H 0.34167 0.26768 0.33244 0.0
H4453 H 0.34004 0.25405 0.34664 0.0
H4454 H 0.35556 0.25383 0.33454 0.0
H4455 H 0.37321 0.25509 0.35665 0.0
H4456 H 0.35776 0.25492 0.36886 0.0
H4457 H 0.37101 0.26945 0.37003 0.0
H4458 H 0.34528 0.31915 0.35896 0.0
H4459 H 0.32489 0.31426 0.37597 0.0
H4460 H 0.33171 0.26749 0.37108 0.0
C4461 C 0.377 0.27859 0.33288 0.0
C4462 C 0.3843 0.29033 0.32595 0.0
C4463 C 0.38083 0.30495 0.3299 0.0
C4464 C 0.36968 0.30788 0.33993 0.0
C4465 C 0.36231 0.29608 0.34611 0.0
C4466 C 0.36601 0.28173 0.34305 0.0
C4467 C 0.35621 0.27111 0.3512 0.0
C4468 C 0.34788 0.26108 0.34056 0.0
C4469 C 0.36507 0.26212 0.36234 0.0
C4470 C 0.34605 0.28177 0.35882 0.0
C4471 C 0.34987 0.29612 0.35577 0.0
C4472 C 0.34224 0.30798 0.36152 0.0
C4473 C 0.33066 0.30511 0.37106 0.0
C4474 C 0.32679 0.29054 0.37458 0.0
C4475 C 0.33439 0.2787 0.36827 0.0
H4476 H 0.17907 0.87512 0.32268 0.0
H4477 H 0.20166 0.91041 0.34502 0.0
H4478 H 0.2116 0.89262 0.36289 0.0
H4479 H 0.1701 0.85378 0.35506 0.0
H4480 H 0.17298 0.83655 0.34586 0.0
H4481 H 0.16703 0.85231 0.33562 0.0
H4482 H 0.1891 0.84919 0.31817 0.0
H4483 H 0.19532 0.83359 0.3285 0.0
H4484 H 0.20733 0.84895 0.3256 0.0
H4485 H 0.21862 0.87078 0.3786 0.0
H4486 H 0.22221 0.84666 0.39066 0.0
H4487 H 0.19693 0.82579 0.35644 0.0
C4488 C 0.18595 0.87914 0.33144 0.0
C4489 C 0.18955 0.89412 0.33254 0.0
C4490 C 0.19875 0.89895 0.34403 0.0
C4491 C 0.20446 0.88893 0.3542 0.0
C4492 C 0.20097 0.87415 0.35259 0.0
C4493 C 0.19191 0.86929 0.3415 0.0
C4494 C 0.19013 0.85282 0.34188 0.0
C4495 C 0.17412 0.84862 0.34478 0.0
C4496 C 0.19582 0.84573 0.3277 0.0
C4497 C 0.19977 0.84912 0.35482 0.0
C4498 C 0.20576 0.86157 0.361 0.0
C4499 C 0.21419 0.86093 0.37371 0.0
C4500 C 0.21626 0.84724 0.38043 0.0
C4501 C 0.21024 0.83441 0.37418 0.0
C4502 C 0.20213 0.83538 0.3611 0.0
H4503 H 0.33376 0.72923 0.61306 0.0
H4504 H 0.35045 0.6986 0.58082 0.0
H4505 H 0.37182 0.6939 0.59639 0.0
H4506 H 0.37203 0.7413 0.62797 0.0
H4507 H 0.36449 0.74241 0.64616 0.0
H4508 H 0.35341 0.74715 0.63054 0.0
H4509 H 0.33397 0.72845 0.63911 0.0
H4510 H 0.34505 0.72334 0.65444 0.0
H4511 H 0.33912 0.70953 0.64164 0.0
H4512 H 0.38714 0.68721 0.61798 0.0
H4513 H 0.39627 0.68111 0.6427 0.0
H4514 H 0.3696 0.71588 0.66103 0.0
C4515 C 0.3423 0.72215 0.60891 0.0
C4516 C 0.34032 0.71421 0.59579 0.0
C4517 C 0.35167 0.70486 0.59083 0.0
C4518 C 0.3639 0.7021 0.59963 0.0
C4519 C 0.36484 0.70906 0.61318 0.0
C4520 C 0.35456 0.71928 0.6176 0.0
C4521 C 0.3568 0.72358 0.63347 0.0
C4522 C 0.362 0.73956 0.6346 0.0
C4523 C 0.34292 0.72106 0.64269 0.0
C4524 C 0.36887 0.71308 0.63768 0.0
C4525 C 0.37374 0.70514 0.62574 0.0
C4526 C 0.38373 0.69368 0.62731 0.0
C4527 C 0.38878 0.69021 0.64142 0.0
C4528 C 0.38361 0.69799 0.6538 0.0
C4529 C 0.37379 0.70976 0.65178 0.0
H4530 H 0.77178 0.81322 0.6189 0.0
H4531 H 0.75847 0.84518 0.58643 0.0
H4532 H 0.75839 0.86447 0.60542 0.0
H4533 H 0.75309 0.82989 0.65188 0.0
H4534 H 0.76852 0.82563 0.66336 0.0
H4535 H 0.764 0.81384 0.64819 0.0
H4536 H 0.79028 0.81684 0.63819 0.0
H4537 H 0.79481 0.82886 0.65309 0.0
H4538 H 0.79718 0.83495 0.63447 0.0
H4539 H 0.76443 0.88085 0.62639 0.0
H4540 H 0.77444 0.89294 0.64839 0.0
H4541 H 0.7843 0.85039 0.66719 0.0
C4542 C 0.76811 0.82412 0.61598 0.0
C4543 C 0.76485 0.82771 0.60131 0.0
C4544 C 0.76079 0.84223 0.59769 0.0
C4545 C 0.76073 0.85323 0.60839 0.0
C4546 C 0.76483 0.84952 0.62262 0.0
C4547 C 0.76828 0.83527 0.62648 0.0
C4548 C 0.77437 0.8345 0.64189 0.0
C4549 C 0.76439 0.82543 0.65192 0.0
C4550 C 0.79008 0.82844 0.64189 0.0
C4551 C 0.7741 0.85058 0.64596 0.0
C4552 C 0.7685 0.85905 0.63474 0.0
C4553 C 0.76851 0.87431 0.63539 0.0
C4554 C 0.77434 0.88108 0.64786 0.0
C4555 C 0.78004 0.87258 0.65952 0.0
C4556 C 0.77976 0.85715 0.65857 0.0
H4557 H 0.21607 0.1401 0.61512 0.0
H4558 H 0.17066 0.13932 0.60179 0.0
H4559 H 0.16751 0.11531 0.61374 0.0
H4560 H 0.22161 0.09896 0.61115 0.0
H4561 H 0.23373 0.09844 0.62668 0.0
H4562 H 0.23307 0.11449 0.61516 0.0
H4563 H 0.22738 0.13072 0.63779 0.0
H4564 H 0.22826 0.11481 0.6493 0.0
H4565 H 0.2121 0.1261 0.64936 0.0
H4566 H 0.16825 0.09367 0.63012 0.0
H4567 H 0.17255 0.0767 0.65061 0.0
H4568 H 0.21786 0.09047 0.65233 0.0
C4569 C 0.20557 0.1347 0.61453 0.0
C4570 C 0.19362 0.14148 0.60755 0.0
C4571 C 0.17999 0.1342 0.60697 0.0
C4572 C 0.17812 0.12052 0.61365 0.0
C4573 C 0.19009 0.1141 0.6205 0.0
C4574 C 0.2036 0.12086 0.62085 0.0
C4575 C 0.21437 0.11214 0.62991 0.0
C4576 C 0.22641 0.10562 0.62014 0.0
C4577 C 0.22089 0.1215 0.64232 0.0
C4578 C 0.20443 0.10021 0.63571 0.0
C4579 C 0.19059 0.10126 0.62976 0.0
C4580 C 0.17912 0.09248 0.6346 0.0
C4581 C 0.18168 0.08285 0.64626 0.0
C4582 C 0.19556 0.08226 0.65309 0.0
C4583 C 0.2072 0.09053 0.64723 0.0
H4584 H 0.6035 0.63811 0.29348 0.0
H4585 H 0.60602 0.65192 0.24814 0.0
H4586 H 0.62486 0.63304 0.24345 0.0
H4587 H 0.64102 0.63451 0.29772 0.0
H4588 H 0.6403 0.61911 0.31004 0.0
H4589 H 0.62529 0.63178 0.30926 0.0
H4590 H 0.60754 0.61043 0.30365 0.0
H4591 H 0.62253 0.59767 0.30448 0.0
H4592 H 0.61118 0.59843 0.28838 0.0
H4593 H 0.64567 0.61518 0.24453 0.0
H4594 H 0.66682 0.59972 0.25135 0.0
H4595 H 0.65082 0.5976 0.296 0.0
C4596 C 0.60767 0.63679 0.28246 0.0
C4597 C 0.60317 0.64626 0.27109 0.0
C4598 C 0.60927 0.64466 0.25694 0.0
C4599 C 0.61992 0.63394 0.25418 0.0
C4600 C 0.62445 0.62503 0.26573 0.0
C4601 C 0.61851 0.62634 0.27961 0.0
C4602 C 0.62653 0.61674 0.29052 0.0
C4603 C 0.6337 0.62609 0.30259 0.0
C4604 C 0.61633 0.60513 0.29714 0.0
C4605 C 0.63789 0.60985 0.28062 0.0
C4606 C 0.63651 0.61474 0.26636 0.0
C4607 C 0.64667 0.61103 0.25558 0.0
C4608 C 0.65866 0.60229 0.25955 0.0
C4609 C 0.66029 0.59727 0.27412 0.0
C4610 C 0.64961 0.6009 0.28467 0.0
H4611 H 0.36438 0.66108 0.29168 0.0
H4612 H 0.40309 0.64179 0.27241 0.0
H4613 H 0.38876 0.61971 0.26554 0.0
H4614 H 0.35091 0.62704 0.30724 0.0
H4615 H 0.33206 0.63197 0.30447 0.0
H4616 H 0.3455 0.64604 0.30736 0.0
H4617 H 0.33752 0.6584 0.28309 0.0
H4618 H 0.32431 0.64413 0.27994 0.0
H4619 H 0.33799 0.64804 0.26629 0.0
H4620 H 0.36998 0.60001 0.26071 0.0
H4621 H 0.34938 0.58259 0.26141 0.0
H4622 H 0.3231 0.61484 0.28435 0.0
C4623 C 0.36979 0.65214 0.28606 0.0
C4624 C 0.38472 0.65297 0.28247 0.0
C4625 C 0.39163 0.64116 0.27526 0.0
C4626 C 0.38356 0.62871 0.27124 0.0
C4627 C 0.36871 0.6283 0.27471 0.0
C4628 C 0.36198 0.63958 0.28224 0.0
C4629 C 0.34615 0.63612 0.28548 0.0
C4630 C 0.3435 0.63524 0.30212 0.0
C4631 C 0.33589 0.64734 0.27826 0.0
C4632 C 0.34489 0.62121 0.27834 0.0
C4633 C 0.35799 0.61693 0.27212 0.0
C4634 C 0.35967 0.60327 0.26551 0.0
C4635 C 0.34788 0.59349 0.26587 0.0
C4636 C 0.33461 0.59741 0.27283 0.0
C4637 C 0.33299 0.61164 0.27868 0.0
H4638 H 0.37484 0.33646 0.26129 0.0
H4639 H 0.3678 0.30922 0.29958 0.0
H4640 H 0.34769 0.32529 0.30746 0.0
H4641 H 0.36699 0.37093 0.27699 0.0
H4642 H 0.35679 0.3781 0.2617 0.0
H4643 H 0.37069 0.36447 0.2587 0.0
H4644 H 0.35194 0.34768 0.24575 0.0
H4645 H 0.33802 0.36138 0.24851 0.0
H4646 H 0.33522 0.34295 0.25502 0.0
H4647 H 0.33025 0.3453 0.31255 0.0
H4648 H 0.31285 0.36603 0.31232 0.0
H4649 H 0.32866 0.3791 0.26953 0.0
C4650 C 0.36881 0.33379 0.27113 0.0
C4651 C 0.37271 0.3216 0.27981 0.0
C4652 C 0.36476 0.31841 0.29271 0.0
C4653 C 0.35342 0.32753 0.29733 0.0
C4654 C 0.34991 0.33958 0.28871 0.0
C4655 C 0.35701 0.34253 0.27566 0.0
C4656 C 0.35047 0.35591 0.26825 0.0
C4657 C 0.36192 0.36807 0.2663 0.0
C4658 C 0.3435 0.35173 0.25351 0.0
C4659 C 0.33896 0.3602 0.27942 0.0
C4660 C 0.33902 0.35071 0.29122 0.0
C4661 C 0.32989 0.35267 0.30327 0.0
C4662 C 0.32014 0.36446 0.3031 0.0
C4663 C 0.3195 0.37393 0.29089 0.0
C4664 C 0.32901 0.37186 0.27892 0.0
H4665 H 0.63454 0.38901 0.30198 0.0
H4666 H 0.62616 0.4052 0.25825 0.0
H4667 H 0.60386 0.38992 0.25696 0.0
H4668 H 0.62871 0.35407 0.29247 0.0
H4669 H 0.6213 0.34801 0.30972 0.0
H4670 H 0.63344 0.36341 0.3092 0.0
H4671 H 0.614 0.37945 0.32217 0.0
H4672 H 0.60178 0.36399 0.32276 0.0
H4673 H 0.59593 0.38096 0.3145 0.0
H4674 H 0.58654 0.36926 0.25803 0.0
H4675 H 0.57643 0.34428 0.26078 0.0
H4676 H 0.59638 0.34066 0.30355 0.0
C4677 C 0.62752 0.38991 0.29248 0.0
C4678 C 0.63165 0.39856 0.2804 0.0
C4679 C 0.62286 0.39886 0.26772 0.0
C4680 C 0.61019 0.39026 0.26695 0.0
C4681 C 0.60673 0.38127 0.27885 0.0
C4682 C 0.61521 0.381 0.29139 0.0
C4683 C 0.61129 0.3682 0.30119 0.0
C4684 C 0.62446 0.35782 0.30324 0.0
C4685 C 0.60539 0.37347 0.31603 0.0
C4686 C 0.59947 0.36109 0.29209 0.0
C4687 C 0.59683 0.36892 0.27935 0.0
C4688 C 0.58814 0.36329 0.26814 0.0
C4689 C 0.58247 0.34913 0.26975 0.0
C4690 C 0.58542 0.34091 0.28251 0.0
C4691 C 0.59355 0.34711 0.29399 0.0
H4692 H 0.6211 0.32978 0.72158 0.0
H4693 H 0.58527 0.35345 0.70141 0.0
H4694 H 0.60067 0.37553 0.69987 0.0
H4695 H 0.63831 0.36277 0.74111 0.0
H4696 H 0.65632 0.35574 0.73735 0.0
H4697 H 0.6414 0.34326 0.74056 0.0
H4698 H 0.64686 0.3306 0.71577 0.0
H4699 H 0.66155 0.34312 0.71235 0.0
H4700 H 0.64697 0.34138 0.69922 0.0
H4701 H 0.6213 0.39297 0.69545 0.0
H4702 H 0.64492 0.40454 0.68969 0.0
H4703 H 0.66743 0.36942 0.71247 0.0
C4704 C 0.61627 0.33978 0.71742 0.0
C4705 C 0.60196 0.33984 0.71162 0.0
C4706 C 0.59615 0.35311 0.70603 0.0
C4707 C 0.60484 0.36575 0.7051 0.0
C4708 C 0.61923 0.36502 0.71004 0.0
C4709 C 0.62481 0.35243 0.71638 0.0
C4710 C 0.64109 0.35375 0.719 0.0
C4711 C 0.64448 0.35389 0.73548 0.0
C4712 C 0.6496 0.3415 0.7111 0.0
C4713 C 0.64398 0.36859 0.71218 0.0
C4714 C 0.6312 0.37509 0.70741 0.0
C4715 C 0.63132 0.38815 0.69948 0.0
C4716 C 0.64482 0.39461 0.69619 0.0
C4717 C 0.65807 0.38791 0.70065 0.0
C4718 C 0.65753 0.37491 0.70904 0.0
H4719 H 0.64312 0.61598 0.72064 0.0
H4720 H 0.64145 0.59658 0.67732 0.0
H4721 H 0.62331 0.61506 0.66969 0.0
H4722 H 0.60285 0.62533 0.72115 0.0
H4723 H 0.60598 0.6418 0.73155 0.0
H4724 H 0.6177 0.62611 0.73406 0.0
H4725 H 0.64026 0.64221 0.7283 0.0
H4726 H 0.62865 0.65788 0.72569 0.0
H4727 H 0.64094 0.65228 0.71132 0.0
H4728 H 0.60727 0.63702 0.66601 0.0
H4729 H 0.59374 0.66049 0.66696 0.0
H4730 H 0.60546 0.66546 0.7127 0.0
C4731 C 0.63869 0.61551 0.70966 0.0
C4732 C 0.64359 0.60487 0.69958 0.0
C4733 C 0.63764 0.60454 0.68527 0.0
C4734 C 0.62736 0.615 0.68082 0.0
C4735 C 0.62287 0.62549 0.69093 0.0
C4736 C 0.62811 0.62566 0.70515 0.0
C4737 C 0.62164 0.63829 0.71375 0.0
C4738 C 0.61144 0.63254 0.72584 0.0
C4739 C 0.63359 0.64825 0.72012 0.0
C4740 C 0.61301 0.6459 0.70181 0.0
C4741 C 0.61351 0.6381 0.68884 0.0
C4742 C 0.6066 0.6431 0.67617 0.0
C4743 C 0.59896 0.65641 0.6768 0.0
C4744 C 0.59857 0.66467 0.68991 0.0
C4745 C 0.60564 0.65931 0.70255 0.0
H4746 H 0.35322 0.65478 0.70812 0.0
H4747 H 0.3909 0.62641 0.70289 0.0
H4748 H 0.3746 0.60477 0.70259 0.0
H4749 H 0.33093 0.63102 0.73084 0.0
H4750 H 0.31434 0.63606 0.7215 0.0
H4751 H 0.32915 0.64896 0.72273 0.0
H4752 H 0.32924 0.6516 0.69444 0.0
H4753 H 0.31447 0.63869 0.69313 0.0
H4754 H 0.33116 0.63545 0.68322 0.0
H4755 H 0.35359 0.58643 0.7003 0.0
H4756 H 0.33004 0.57335 0.69714 0.0
H4757 H 0.30682 0.61415 0.70436 0.0
C4758 C 0.35813 0.64401 0.70729 0.0
C4759 C 0.37335 0.64228 0.7057 0.0
C4760 C 0.37926 0.62799 0.70422 0.0
C4761 C 0.37009 0.61564 0.70403 0.0
C4762 C 0.35506 0.61779 0.70529 0.0
C4763 C 0.34917 0.63166 0.70692 0.0
C4764 C 0.33269 0.63129 0.70688 0.0
C4765 C 0.32642 0.63717 0.72135 0.0
C4766 C 0.32654 0.63975 0.69364 0.0
C4767 C 0.33017 0.61501 0.70528 0.0
C4768 C 0.34315 0.60735 0.7042 0.0
C4769 C 0.34338 0.5923 0.70141 0.0
C4770 C 0.32999 0.58496 0.69961 0.0
C4771 C 0.31664 0.59269 0.70082 0.0
C4772 C 0.31683 0.60785 0.70384 0.0
H4773 H 0.34403 0.38144 0.68232 0.0
H4774 H 0.32806 0.37866 0.72694 0.0
H4775 H 0.34991 0.3644 0.73386 0.0
H4776 H 0.35433 0.34611 0.67984 0.0
H4777 H 0.3702 0.34903 0.66854 0.0
H4778 H 0.35545 0.36194 0.66808 0.0
H4779 H 0.37348 0.38283 0.67462 0.0
H4780 H 0.38829 0.36983 0.67527 0.0
H4781 H 0.38458 0.38138 0.69085 0.0
H4782 H 0.37022 0.34675 0.73483 0.0
H4783 H 0.38595 0.32553 0.72928 0.0
H4784 H 0.38934 0.33977 0.68417 0.0
C4785 C 0.34537 0.37821 0.69365 0.0
C4786 C 0.33443 0.38119 0.70412 0.0
C4787 C 0.33632 0.37646 0.71875 0.0
C4788 C 0.34879 0.36852 0.72281 0.0
C4789 C 0.35924 0.36546 0.71212 0.0
C4790 C 0.35765 0.37015 0.69781 0.0
C4791 C 0.36903 0.36334 0.68788 0.0
C4792 C 0.36182 0.35459 0.67537 0.0
C4793 C 0.37946 0.37505 0.68181 0.0
C4794 C 0.37672 0.35339 0.69867 0.0
C4795 C 0.3712 0.3551 0.71269 0.0
C4796 C 0.37493 0.34558 0.72403 0.0
C4797 C 0.38384 0.33355 0.72079 0.0
C4798 C 0.38891 0.33121 0.70635 0.0
C4799 C 0.38596 0.34165 0.69538 0.0
H4800 H 0.78844 0.60275 0.13624 0.0
H4801 H 0.74909 0.61503 0.15969 0.0
H4802 H 0.74144 0.63026 0.1387 0.0
H4803 H 0.79607 0.63684 0.12356 0.0
H4804 H 0.80331 0.63122 0.10608 0.0
H4805 H 0.80398 0.61887 0.12135 0.0
H4806 H 0.79014 0.59934 0.1061 0.0
H4807 H 0.7893 0.6118 0.0908 0.0
H4808 H 0.77278 0.60388 0.098 0.0
H4809 H 0.73992 0.64688 0.11729 0.0
H4810 H 0.74584 0.66544 0.09865 0.0
H4811 H 0.78636 0.64273 0.08908 0.0
C4812 C 0.77799 0.60829 0.13677 0.0
C4813 C 0.76929 0.60761 0.14952 0.0
C4814 C 0.7559 0.61536 0.15 0.0
C4815 C 0.7514 0.62391 0.13806 0.0
C4816 C 0.76038 0.62457 0.12574 0.0
C4817 C 0.77344 0.61699 0.12504 0.0
C4818 C 0.78218 0.62129 0.11162 0.0
C4819 C 0.79726 0.62742 0.11592 0.0
C4820 C 0.78368 0.6083 0.101 0.0
C4821 C 0.77237 0.63308 0.10533 0.0
C4822 C 0.75964 0.63447 0.11338 0.0
C4823 C 0.74969 0.64571 0.11073 0.0
C4824 C 0.75316 0.65623 0.10012 0.0
C4825 C 0.76657 0.65552 0.09243 0.0
C4826 C 0.77591 0.64339 0.09458 0.0
H4827 H 0.31872 0.76384 0.11567 0.0
H4828 H 0.33278 0.79925 0.0875 0.0
H4829 H 0.3585 0.79312 0.0927 0.0
H4830 H 0.33913 0.76902 0.14283 0.0
H4831 H 0.34404 0.75045 0.14751 0.0
H4832 H 0.32771 0.75386 0.13742 0.0
H4833 H 0.33657 0.73636 0.11696 0.0
H4834 H 0.35314 0.73293 0.12708 0.0
H4835 H 0.35406 0.7393 0.10842 0.0
H4836 H 0.38098 0.78859 0.10648 0.0
H4837 H 0.39703 0.78731 0.12798 0.0
H4838 H 0.36919 0.75409 0.14706 0.0
C4839 C 0.3273 0.76991 0.11023 0.0
C4840 C 0.32392 0.78207 0.10138 0.0
C4841 C 0.33523 0.78986 0.09433 0.0
C4842 C 0.34987 0.78633 0.0971 0.0
C4843 C 0.35294 0.7747 0.10656 0.0
C4844 C 0.34192 0.76634 0.11273 0.0
C4845 C 0.34781 0.75617 0.12441 0.0
C4846 C 0.33918 0.7575 0.13889 0.0
C4847 C 0.3479 0.74025 0.11888 0.0
C4848 C 0.36322 0.76199 0.12569 0.0
C4849 C 0.36629 0.77194 0.11463 0.0
C4850 C 0.3789 0.78051 0.1149 0.0
C4851 C 0.38797 0.77974 0.12722 0.0
C4852 C 0.38418 0.77071 0.13925 0.0
C4853 C 0.37229 0.76101 0.13796 0.0
H4854 H 0.18632 0.39368 0.13515 0.0
H4855 H 0.23342 0.39025 0.13364 0.0
H4856 H 0.23153 0.37531 0.1112 0.0
H4857 H 0.18136 0.35949 0.13283 0.0
H4858 H 0.16467 0.35911 0.12239 0.0
H4859 H 0.16911 0.37497 0.13294 0.0
H4860 H 0.16722 0.39135 0.10988 0.0
H4861 H 0.16248 0.37544 0.09917 0.0
H4862 H 0.1776 0.38682 0.09372 0.0
H4863 H 0.22501 0.35509 0.09509 0.0
H4864 H 0.21504 0.3309 0.08845 0.0
H4865 H 0.17203 0.34475 0.10211 0.0
C4866 C 0.19627 0.39052 0.12959 0.0
C4867 C 0.21003 0.39322 0.13602 0.0
C4868 C 0.22279 0.38844 0.12879 0.0
C4869 C 0.22177 0.37997 0.11599 0.0
C4870 C 0.20792 0.3762 0.11076 0.0
C4871 C 0.19533 0.38141 0.11735 0.0
C4872 C 0.18201 0.37271 0.11268 0.0
C4873 C 0.17385 0.36619 0.12599 0.0
C4874 C 0.17173 0.38215 0.1033 0.0
C4875 C 0.18922 0.36091 0.10356 0.0
C4876 C 0.20404 0.36358 0.10192 0.0
C4877 C 0.2134 0.35313 0.0959 0.0
C4878 C 0.20768 0.33941 0.09222 0.0
C4879 C 0.19281 0.33626 0.09468 0.0
C4880 C 0.18335 0.34724 0.0998 0.0
H4881 H 0.61993 0.18847 0.15927 0.0
H4882 H 0.59238 0.21991 0.13697 0.0
H4883 H 0.61032 0.22135 0.11665 0.0
H4884 H 0.6559 0.20226 0.14722 0.0
H4885 H 0.66306 0.18402 0.14471 0.0
H4886 H 0.64932 0.1874 0.15843 0.0
H4887 H 0.63302 0.16733 0.14685 0.0
H4888 H 0.64662 0.16397 0.13306 0.0
H4889 H 0.62824 0.16857 0.12775 0.0
H4890 H 0.63054 0.21805 0.09815 0.0
H4891 H 0.65043 0.20907 0.08213 0.0
H4892 H 0.66351 0.17824 0.11585 0.0
C4893 C 0.61798 0.19599 0.1503 0.0
C4894 C 0.60511 0.20441 0.14973 0.0
C4895 C 0.60241 0.21365 0.13761 0.0
C4896 C 0.61252 0.21452 0.12608 0.0
C4897 C 0.62505 0.20585 0.1268 0.0
C4898 C 0.62775 0.19667 0.13857 0.0
C4899 C 0.64105 0.18718 0.13593 0.0
C4900 C 0.65304 0.19042 0.14724 0.0
C4901 C 0.63698 0.1708 0.13589 0.0
C4902 C 0.64538 0.19238 0.1208 0.0
C4903 C 0.63618 0.2033 0.11581 0.0
C4904 C 0.63786 0.20955 0.10197 0.0
C4905 C 0.64916 0.20439 0.09296 0.0
C4906 C 0.65845 0.19295 0.09776 0.0
C4907 C 0.65656 0.18699 0.1119 0.0
H4908 H 0.78093 0.38941 0.85687 0.0
H4909 H 0.75546 0.37078 0.82155 0.0
H4910 H 0.75148 0.34838 0.83626 0.0
H4911 H 0.80037 0.35881 0.8632 0.0
H4912 H 0.80197 0.36057 0.88279 0.0
H4913 H 0.79938 0.37661 0.8717 0.0
H4914 H 0.77645 0.38362 0.88671 0.0
H4915 H 0.77905 0.36764 0.89803 0.0
H4916 H 0.76188 0.37053 0.88885 0.0
H4917 H 0.75381 0.32688 0.85246 0.0
H4918 H 0.76301 0.30724 0.86838 0.0
H4919 H 0.78852 0.33901 0.8928 0.0
C4920 C 0.77394 0.38086 0.85258 0.0
C4921 C 0.76817 0.38184 0.83829 0.0
C4922 C 0.75972 0.37023 0.83261 0.0
C4923 C 0.75738 0.35753 0.84091 0.0
C4924 C 0.76373 0.35659 0.85476 0.0
C4925 C 0.77186 0.36796 0.86059 0.0
C4926 C 0.77966 0.36323 0.87448 0.0
C4927 C 0.79632 0.3649 0.87294 0.0
C4928 C 0.77391 0.37176 0.88781 0.0
C4929 C 0.7752 0.34726 0.87515 0.0
C4930 C 0.7657 0.3438 0.86391 0.0
C4931 C 0.76104 0.3295 0.86145 0.0
C4932 C 0.76644 0.31839 0.87051 0.0
C4933 C 0.77655 0.32156 0.88183 0.0
C4934 C 0.78069 0.33626 0.88436 0.0
H4935 H 0.65748 0.80751 0.88081 0.0
H4936 H 0.68374 0.76962 0.8693 0.0
H4937 H 0.66237 0.75851 0.85705 0.0
H4938 H 0.62302 0.78852 0.88711 0.0
H4939 H 0.61227 0.80282 0.8788 0.0
H4940 H 0.62923 0.80725 0.88773 0.0
H4941 H 0.63873 0.81964 0.86404 0.0
H4942 H 0.62171 0.81553 0.85517 0.0
H4943 H 0.63864 0.80949 0.84711 0.0
H4944 H 0.63873 0.75226 0.8449 0.0
H4945 H 0.61563 0.75267 0.83101 0.0
H4946 H 0.60462 0.79459 0.85046 0.0
C4947 C 0.6587 0.79681 0.87581 0.0
C4948 C 0.67223 0.78937 0.87605 0.0
C4949 C 0.67348 0.77553 0.86917 0.0
C4950 C 0.66136 0.76907 0.86235 0.0
C4951 C 0.64812 0.77664 0.86247 0.0
C4952 C 0.64678 0.7903 0.86885 0.0
C4953 C 0.63175 0.79675 0.8663 0.0
C4954 C 0.62359 0.79896 0.88085 0.0
C4955 C 0.63277 0.8112 0.85764 0.0
C4956 C 0.62488 0.78466 0.85725 0.0
C4957 C 0.63445 0.77306 0.85537 0.0
C4958 C 0.63109 0.76118 0.84642 0.0
C4959 C 0.61793 0.76148 0.83861 0.0
C4960 C 0.60831 0.77358 0.83981 0.0
C4961 C 0.61158 0.78502 0.84968 0.0
H4962 H 0.19447 0.63698 0.89154 0.0
H4963 H 0.16005 0.66331 0.87262 0.0
H4964 H 0.15999 0.64759 0.8507 0.0
H4965 H 0.2149 0.63241 0.86418 0.0
H4966 H 0.21982 0.6133 0.86531 0.0
H4967 H 0.21437 0.62298 0.88154 0.0
H4968 H 0.19361 0.60462 0.88681 0.0
H4969 H 0.19956 0.59412 0.87118 0.0
H4970 H 0.18084 0.60004 0.87252 0.0
H4971 H 0.17013 0.63559 0.82854 0.0
H4972 H 0.18196 0.62019 0.80986 0.0
H4973 H 0.20814 0.59942 0.84365 0.0
C4974 C 0.18621 0.63868 0.88323 0.0
C4975 C 0.17729 0.65126 0.88358 0.0
C4976 C 0.16681 0.65358 0.8725 0.0
C4977 C 0.16684 0.6448 0.85995 0.0
C4978 C 0.17696 0.63343 0.85913 0.0
C4979 C 0.18576 0.62965 0.87087 0.0
C4980 C 0.1963 0.61749 0.86674 0.0
C4981 C 0.21228 0.62183 0.86961 0.0
C4982 C 0.19234 0.60322 0.87478 0.0
C4983 C 0.19317 0.61628 0.85052 0.0
C4984 C 0.182 0.62558 0.84637 0.0
C4985 C 0.17836 0.6277 0.83173 0.0
C4986 C 0.18543 0.61916 0.82115 0.0
C4987 C 0.19582 0.60842 0.82533 0.0
C4988 C 0.20011 0.6074 0.84016 0.0
H4989 H 0.33011 0.1727 0.87466 0.0
H4990 H 0.35831 0.17947 0.91215 0.0
H4991 H 0.37631 0.19188 0.89623 0.0
H4992 H 0.35909 0.16846 0.84618 0.0
H4993 H 0.34819 0.17837 0.83307 0.0
H4994 H 0.33945 0.16761 0.84706 0.0
H4995 H 0.32487 0.19073 0.85472 0.0
H4996 H 0.33423 0.20178 0.84137 0.0
H4997 H 0.33454 0.20694 0.86042 0.0
H4998 H 0.38975 0.20601 0.87672 0.0
H4999 H 0.40015 0.21623 0.85392 0.0
H5000 H 0.36175 0.2022 0.83002 0.0
C5001 C 0.34043 0.17605 0.87938 0.0
C5002 C 0.34297 0.17495 0.89458 0.0
C5003 C 0.35635 0.17998 0.90045 0.0
C5004 C 0.36649 0.18726 0.89155 0.0
C5005 C 0.36298 0.18943 0.87685 0.0
C5006 C 0.35045 0.18364 0.87072 0.0
C5007 C 0.3487 0.18831 0.85492 0.0
C5008 C 0.34888 0.1749 0.84471 0.0
C5009 C 0.33476 0.19748 0.85274 0.0
C5010 C 0.36224 0.1976 0.85308 0.0
C5011 C 0.37029 0.19819 0.86587 0.0
C5012 C 0.38356 0.2056 0.86664 0.0
C5013 C 0.38929 0.21155 0.8537 0.0
C5014 C 0.38168 0.21011 0.84028 0.0
C5015 C 0.36763 0.20379 0.84018 0.0
H5016 H 0.60673 0.80414 0.14115 0.0
H5017 H 0.61477 0.76482 0.16655 0.0
H5018 H 0.62773 0.75378 0.14568 0.0
H5019 H 0.60401 0.78552 0.10387 0.0
H5020 H 0.6137 0.80023 0.09501 0.0
H5021 H 0.6023 0.80399 0.11066 0.0
H5022 H 0.6242 0.81617 0.12386 0.0
H5023 H 0.63551 0.81253 0.10822 0.0
H5024 H 0.64094 0.806 0.12603 0.0
H5025 H 0.64391 0.749 0.12487 0.0
H5026 H 0.66191 0.75076 0.10473 0.0
H5027 H 0.6431 0.79234 0.09168 0.0
C5028 C 0.61088 0.79306 0.14205 0.0
C5029 C 0.60983 0.78529 0.15537 0.0
C5030 C 0.61561 0.77095 0.15641 0.0
C5031 C 0.62285 0.76452 0.14458 0.0
C5032 C 0.62424 0.77258 0.13174 0.0
C5033 C 0.61836 0.78651 0.13029 0.0
C5034 C 0.62312 0.79345 0.11597 0.0
C5035 C 0.61 0.79593 0.10578 0.0
C5036 C 0.63144 0.80788 0.11869 0.0
C5037 C 0.63313 0.78155 0.11007 0.0
C5038 C 0.63345 0.76952 0.11924 0.0
C5039 C 0.64343 0.75809 0.11728 0.0
C5040 C 0.65362 0.75915 0.10587 0.0
C5041 C 0.65354 0.77142 0.09647 0.0
C5042 C 0.64292 0.78252 0.09836 0.0
H5043 H 0.64847 0.18843 0.87225 0.0
H5044 H 0.63914 0.23261 0.88686 0.0
H5045 H 0.61653 0.23275 0.87186 0.0
H5046 H 0.63723 0.19117 0.83636 0.0
H5047 H 0.62881 0.17335 0.83535 0.0
H5048 H 0.64339 0.17651 0.8481 0.0
H5049 H 0.62682 0.16772 0.86929 0.0
H5050 H 0.61207 0.1647 0.85658 0.0
H5051 H 0.60939 0.17641 0.87225 0.0
H5052 H 0.59756 0.22935 0.85246 0.0
H5053 H 0.58287 0.22232 0.83082 0.0
H5054 H 0.60271 0.17925 0.83111 0.0
C5055 C 0.6416 0.1981 0.87225 0.0
C5056 C 0.64554 0.21066 0.88029 0.0
C5057 C 0.63628 0.22302 0.88048 0.0
C5058 C 0.62341 0.22311 0.87214 0.0
C5059 C 0.61982 0.21054 0.86421 0.0
C5060 C 0.62852 0.19816 0.86441 0.0
C5061 C 0.62245 0.18622 0.85463 0.0
C5062 C 0.63363 0.18156 0.84292 0.0
C5063 C 0.61738 0.17298 0.86374 0.0
C5064 C 0.60959 0.19426 0.84799 0.0
C5065 C 0.60813 0.2082 0.85383 0.0
C5066 C 0.59827 0.21834 0.84811 0.0
C5067 C 0.59003 0.2143 0.83584 0.0
C5068 C 0.59156 0.2002 0.82966 0.0
C5069 C 0.60108 0.18992 0.83605 0.0
H5070 H 0.78942 0.59934 0.83481 0.0
H5071 H 0.81826 0.62643 0.80875 0.0
H5072 H 0.816 0.6464 0.82682 0.0
H5073 H 0.76516 0.62453 0.84512 0.0
H5074 H 0.76265 0.61952 0.86405 0.0
H5075 H 0.76849 0.60596 0.85101 0.0
H5076 H 0.79144 0.60009 0.86636 0.0
H5077 H 0.78536 0.61314 0.87986 0.0
H5078 H 0.80333 0.61477 0.872 0.0
H5079 H 0.80574 0.6649 0.84354 0.0
H5080 H 0.7945 0.67943 0.86323 0.0
H5081 H 0.77426 0.64008 0.88064 0.0
C5082 C 0.79576 0.60925 0.83338 0.0
C5083 C 0.80401 0.61155 0.82052 0.0
C5084 C 0.81199 0.62462 0.81865 0.0
C5085 C 0.81069 0.636 0.82879 0.0
C5086 C 0.80167 0.63388 0.84087 0.0
C5087 C 0.79491 0.62062 0.84369 0.0
C5088 C 0.78554 0.62156 0.85739 0.0
C5089 C 0.76951 0.61767 0.85419 0.0
C5090 C 0.7918 0.61181 0.86963 0.0
C5091 C 0.78726 0.63768 0.86108 0.0
C5092 C 0.79653 0.64454 0.85132 0.0
C5093 C 0.79886 0.6596 0.85159 0.0
C5094 C 0.79221 0.6678 0.86267 0.0
C5095 C 0.78364 0.66085 0.87355 0.0
C5096 C 0.78089 0.64563 0.87254 0.0
H5097 H 0.33751 0.76368 0.87219 0.0
H5098 H 0.35754 0.79485 0.90188 0.0
H5099 H 0.37812 0.79778 0.88479 0.0
H5100 H 0.37341 0.74835 0.85631 0.0
H5101 H 0.3651 0.74691 0.83848 0.0
H5102 H 0.35427 0.74411 0.85473 0.0
H5103 H 0.33622 0.76407 0.84584 0.0
H5104 H 0.34706 0.76717 0.82978 0.0
H5105 H 0.34294 0.78222 0.84189 0.0
H5106 H 0.3933 0.80165 0.86237 0.0
H5107 H 0.40233 0.80503 0.8371 0.0
H5108 H 0.37227 0.77157 0.82197 0.0
C5109 C 0.34654 0.7706 0.87542 0.0
C5110 C 0.34588 0.77904 0.88835 0.0
C5111 C 0.3578 0.78823 0.89204 0.0
C5112 C 0.36959 0.78995 0.8824 0.0
C5113 C 0.36942 0.78222 0.86924 0.0
C5114 C 0.35835 0.77247 0.86588 0.0
C5115 C 0.35961 0.76707 0.85026 0.0
C5116 C 0.36332 0.75064 0.84993 0.0
C5117 C 0.34564 0.77034 0.84144 0.0
C5118 C 0.37235 0.77619 0.84502 0.0
C5119 C 0.37816 0.78455 0.85621 0.0
C5120 C 0.38909 0.79487 0.85361 0.0
C5121 C 0.3941 0.79678 0.83921 0.0
C5122 C 0.38798 0.78858 0.82756 0.0
C5123 C 0.37721 0.77797 0.83064 0.0
H5124 H 0.20583 0.37834 0.82703 0.0
H5125 H 0.15873 0.37874 0.82346 0.0
H5126 H 0.15675 0.36718 0.84794 0.0
H5127 H 0.21092 0.34568 0.84098 0.0
H5128 H 0.22497 0.34986 0.85416 0.0
H5129 H 0.22264 0.36136 0.83841 0.0
H5130 H 0.21942 0.38407 0.85513 0.0
H5131 H 0.22191 0.3726 0.87103 0.0
H5132 H 0.20583 0.38385 0.86938 0.0
H5133 H 0.16001 0.35209 0.87004 0.0
H5134 H 0.16808 0.33341 0.88778 0.0
H5135 H 0.21323 0.3422 0.87684 0.0
C5136 C 0.19515 0.37624 0.83166 0.0
C5137 C 0.18242 0.37915 0.82358 0.0
C5138 C 0.16854 0.37646 0.82968 0.0
C5139 C 0.16734 0.37009 0.84358 0.0
C5140 C 0.18015 0.36699 0.85125 0.0
C5141 C 0.19381 0.37018 0.84562 0.0
C5142 C 0.20586 0.3643 0.85532 0.0
C5143 C 0.21671 0.35472 0.8467 0.0
C5144 C 0.21372 0.37696 0.86318 0.0
C5145 C 0.19688 0.35549 0.86606 0.0
C5146 C 0.18208 0.35795 0.86406 0.0
C5147 C 0.17154 0.35036 0.87196 0.0
C5148 C 0.17621 0.33977 0.88194 0.0
C5149 C 0.19122 0.3366 0.88356 0.0
C5150 C 0.20172 0.34467 0.87577 0.0
H5151 H 0.3893 0.203 0.14811 0.0
H5152 H 0.37037 0.16111 0.15956 0.0
H5153 H 0.36171 0.15802 0.13401 0.0
H5154 H 0.36218 0.21618 0.12697 0.0
H5155 H 0.37359 0.22473 0.11332 0.0
H5156 H 0.38051 0.22186 0.13144 0.0
H5157 H 0.40242 0.20763 0.12031 0.0
H5158 H 0.39513 0.2101 0.10212 0.0
H5159 H 0.39911 0.19195 0.1088 0.0
H5160 H 0.35312 0.16067 0.10838 0.0
H5161 H 0.33988 0.17125 0.08751 0.0
H5162 H 0.36311 0.21212 0.09308 0.0
C5163 C 0.38343 0.19316 0.14509 0.0
C5164 C 0.38032 0.18233 0.15558 0.0
C5165 C 0.37272 0.16951 0.15151 0.0
C5166 C 0.36802 0.16758 0.13702 0.0
C5167 C 0.37135 0.17843 0.12676 0.0
C5168 C 0.37877 0.19104 0.13066 0.0
C5169 C 0.37932 0.20186 0.11811 0.0
C5170 C 0.37353 0.21704 0.12274 0.0
C5171 C 0.39492 0.20295 0.11198 0.0
C5172 C 0.36936 0.19426 0.10727 0.0
C5173 C 0.36585 0.18026 0.11201 0.0
C5174 C 0.35598 0.17148 0.10444 0.0
C5175 C 0.34861 0.17755 0.09247 0.0
C5176 C 0.35063 0.19245 0.08872 0.0
C5177 C 0.36172 0.20061 0.09559 0.0
H5178 H 0.80316 0.37652 0.15894 0.0
H5179 H 0.77425 0.41091 0.14356 0.0
H5180 H 0.76626 0.39495 0.12317 0.0
H5181 H 0.81313 0.36164 0.12279 0.0
H5182 H 0.81314 0.34304 0.12942 0.0
H5183 H 0.81777 0.35785 0.1416 0.0
H5184 H 0.79762 0.34929 0.15955 0.0
H5185 H 0.79275 0.3346 0.14735 0.0
H5186 H 0.77909 0.34759 0.15315 0.0
H5187 H 0.76102 0.37472 0.10473 0.0
H5188 H 0.75847 0.35163 0.09048 0.0
H5189 H 0.78914 0.33026 0.11956 0.0
C5190 C 0.79536 0.38079 0.15112 0.0
C5191 C 0.78937 0.39495 0.15274 0.0
C5192 C 0.77898 0.40008 0.14246 0.0
C5193 C 0.77441 0.39111 0.13085 0.0
C5194 C 0.78026 0.37704 0.12977 0.0
C5195 C 0.79052 0.37193 0.13965 0.0
C5196 C 0.7944 0.35608 0.13674 0.0
C5197 C 0.81056 0.35457 0.13237 0.0
C5198 C 0.79074 0.34632 0.14999 0.0
C5199 C 0.78444 0.35295 0.12393 0.0
C5200 C 0.77658 0.36523 0.11983 0.0
C5201 C 0.76701 0.36501 0.10793 0.0
C5202 C 0.76555 0.35191 0.09998 0.0
C5203 C 0.77331 0.33924 0.10429 0.0
C5204 C 0.7828 0.33977 0.11639 0.0
H5205 H 0.19447 0.59371 0.14392 0.0
H5206 H 0.17269 0.62299 0.17443 0.0
H5207 H 0.17635 0.64357 0.15758 0.0
H5208 H 0.22152 0.61886 0.13224 0.0
H5209 H 0.22149 0.61382 0.11316 0.0
H5210 H 0.21646 0.60055 0.12687 0.0
H5211 H 0.19168 0.5962 0.11403 0.0
H5212 H 0.19681 0.60915 0.10007 0.0
H5213 H 0.18001 0.61162 0.11004 0.0
H5214 H 0.18519 0.66137 0.1402 0.0
H5215 H 0.19321 0.67562 0.11894 0.0
H5216 H 0.2075 0.63564 0.0974 0.0
C5217 C 0.19018 0.6044 0.14678 0.0
C5218 C 0.18344 0.60688 0.16051 0.0
C5219 C 0.17805 0.62097 0.16403 0.0
C5220 C 0.1801 0.63274 0.15457 0.0
C5221 C 0.18748 0.63023 0.14154 0.0
C5222 C 0.19207 0.61642 0.13729 0.0
C5223 C 0.19971 0.61715 0.12249 0.0
C5224 C 0.21575 0.61231 0.12378 0.0
C5225 C 0.19156 0.60799 0.11098 0.0
C5226 C 0.1986 0.63349 0.11927 0.0
C5227 C 0.19186 0.64073 0.13071 0.0
C5228 C 0.19027 0.65587 0.13102 0.0
C5229 C 0.19506 0.66388 0.11897 0.0
C5230 C 0.201 0.65672 0.10659 0.0
C5231 C 0.20301 0.64133 0.10679 0.0
H5232 H 0.96576 0.20165 0.31303 0.0
H5233 H 0.95201 0.15708 0.32177 0.0
H5234 H 0.97783 0.14943 0.32397 0.0
H5235 H -0.00666 0.19144 0.28948 0.0
H5236 H 0.00575 0.20596 0.29431 0.0
H5237 H 0.98642 0.20859 0.29643 0.0
H5238 H -0.00998 0.21499 0.32381 0.0
H5239 H 0.00943 0.21252 0.32175 0.0
H5240 H -0.00035 0.2024 0.33558 0.0
H5241 H 0.0048 0.14587 0.321 0.0
H5242 H 0.03088 0.14691 0.31378 0.0
H5243 H 0.02698 0.19379 0.30713 0.0
C5244 C 0.96822 0.19041 0.31599 0.0
C5245 C 0.957 0.17996 0.31748 0.0
C5246 C 0.96054 0.16523 0.32072 0.0
C5247 C 0.97514 0.16081 0.32202 0.0
C5248 C 0.98603 0.17127 0.31992 0.0
C5249 C 0.98274 0.1858 0.31702 0.0
C5250 C -0.00369 0.19442 0.31317 0.0
C5251 C -0.0046 0.20045 0.29742 0.0
C5252 C -0.00099 0.20681 0.32425 0.0
C5253 C 0.00774 0.1825 0.31439 0.0
C5254 C 0.00163 0.16921 0.31826 0.0
C5255 C 0.0098 0.15628 0.31834 0.0
C5256 C 0.02455 0.15694 0.31419 0.0
C5257 C 0.03094 0.17046 0.31023 0.0
C5258 C 0.02247 0.18339 0.3106 0.0
H5259 H 0.814 0.02109 0.33086 0.0
H5260 H 0.84244 0.02136 0.29297 0.0
H5261 H 0.84768 -0.00478 0.29667 0.0
H5262 H 0.83394 0.98839 0.35149 0.0
H5263 H 0.81637 0.98198 0.35762 0.0
H5264 H 0.81982 0.00138 0.35602 0.0
H5265 H 0.79716 0.00387 0.33928 0.0
H5266 H 0.79379 0.98465 0.3406 0.0
H5267 H 0.79605 -0.00703 0.32283 0.0
H5268 H 0.84315 0.96893 0.29881 0.0
H5269 H 0.82978 0.94558 0.29952 0.0
H5270 H 0.80409 0.96148 0.33607 0.0
C5271 C 0.82193 0.01578 0.32385 0.0
C5272 C 0.8277 0.02315 0.31161 0.0
C5273 C 0.83789 0.01591 0.30247 0.0
C5274 C 0.84101 0.00103 0.30455 0.0
C5275 C 0.83407 -0.00636 0.31597 0.0
C5276 C 0.82501 0.00089 0.32575 0.0
C5277 C 0.81651 0.99017 0.3351 0.0
C5278 C 0.822 0.9905 0.351 0.0
C5279 C 0.79992 -0.00691 0.33437 0.0
C5280 C 0.82066 0.97592 0.32772 0.0
C5281 C 0.83135 0.97805 0.31721 0.0
C5282 C 0.83517 0.96701 0.30735 0.0
C5283 C 0.82744 0.95379 0.30776 0.0
C5284 C 0.81586 0.95181 0.31783 0.0
C5285 C 0.81302 0.96269 0.3284 0.0
H5286 H 0.01818 0.79221 0.32578 0.0
H5287 H 0.02917 0.8365 0.31284 0.0
H5288 H 0.00332 0.84378 0.31565 0.0
H5289 H -0.01024 0.79009 0.3037 0.0
H5290 H 0.97838 0.77865 0.31502 0.0
H5291 H -0.00219 0.77805 0.31711 0.0
H5292 H -0.00471 0.7843 0.34465 0.0
H5293 H 0.97572 0.78479 0.34269 0.0
H5294 H 0.98523 0.80036 0.35019 0.0
H5295 H 0.97643 0.84475 0.3139 0.0
H5296 H 0.95104 0.83922 0.30685 0.0
H5297 H 0.95732 0.79397 0.31991 0.0
C5298 C 0.01523 0.80362 0.32431 0.0
C5299 C 0.02559 0.81389 0.31936 0.0
C5300 C 0.02134 0.82856 0.31682 0.0
C5301 C 0.00671 0.83277 0.31847 0.0
C5302 C -0.00347 0.82214 0.32253 0.0
C5303 C 0.00064 0.80783 0.32547 0.0
C5304 C 0.98754 0.79778 0.32641 0.0
C5305 C 0.98844 0.78544 0.31487 0.0
C5306 C 0.98585 0.79145 0.34191 0.0
C5307 C 0.97547 0.80852 0.32291 0.0
C5308 C 0.9808 0.82258 0.32106 0.0
C5309 C 0.97205 0.83389 0.31571 0.0
C5310 C 0.95766 0.83064 0.31166 0.0
C5311 C 0.95225 0.81618 0.31288 0.0
C5312 C 0.96109 0.80518 0.31914 0.0
H5313 H 0.15325 0.97447 0.29779 0.0
H5314 H 0.17514 0.9573 0.33621 0.0
H5315 H 0.173 0.98129 0.34822 0.0
H5316 H 0.17176 0.00477 0.29565 0.0
H5317 H 0.15735 0.01681 0.28963 0.0
H5318 H 0.15603 -0.00242 0.28622 0.0
H5319 H 0.13108 -0.00298 0.29959 0.0
H5320 H 0.13249 0.0164 0.30321 0.0
H5321 H 0.12966 0.00374 0.3181 0.0
H5322 H 0.17605 0.00733 0.35251 0.0
H5323 H 0.18394 0.0328 0.34828 0.0
H5324 H 0.15806 0.03415 0.30863 0.0
C5325 C 0.15703 0.97568 0.30896 0.0
C5326 C 0.16442 0.96415 0.31604 0.0
C5327 C 0.16951 0.96607 0.33054 0.0
C5328 C 0.16817 0.97962 0.33754 0.0
C5329 C 0.16155 0.9911 0.32998 0.0
C5330 C 0.15583 0.98921 0.31606 0.0
C5331 C 0.1519 0.00376 0.30917 0.0
C5332 C 0.15974 0.00584 0.29432 0.0
C5333 C 0.13529 0.00532 0.30743 0.0
C5334 C 0.15766 0.01412 0.32077 0.0
C5335 C 0.16279 0.00662 0.33291 0.0
C5336 C 0.17157 0.01344 0.34341 0.0
C5337 C 0.17604 0.02791 0.34093 0.0
C5338 C 0.17156 0.03536 0.32816 0.0
C5339 C 0.16137 0.02876 0.31866 0.0
H5340 H 0.96107 0.81487 0.6872 0.0
H5341 H 0.95956 0.80277 0.64131 0.0
H5342 H 0.98496 0.81156 0.6383 0.0
H5343 H 0.98698 0.84667 0.68499 0.0
H5344 H -0.00406 0.84087 0.70159 0.0
H5345 H 0.9767 0.83754 0.69914 0.0
H5346 H 0.98075 0.80982 0.70392 0.0
H5347 H -0.00017 0.81311 0.70655 0.0
H5348 H -0.00605 0.79999 0.69304 0.0
H5349 H 0.0114 0.81642 0.64158 0.0
H5350 H 0.03652 0.81455 0.6511 0.0
H5351 H 0.02073 0.82371 0.69487 0.0
C5352 C 0.96587 0.81455 0.67636 0.0
C5353 C 0.95836 0.8083 0.66444 0.0
C5354 C 0.96515 0.80763 0.65055 0.0
C5355 C 0.9795 0.81272 0.64875 0.0
C5356 C 0.98678 0.81843 0.66092 0.0
C5357 C 0.98015 0.81932 0.67449 0.0
C5358 C -0.0091 0.82299 0.68647 0.0
C5359 C 0.98742 0.83791 0.69345 0.0
C5360 C -0.00861 0.81075 0.69816 0.0
C5361 C 0.00482 0.82353 0.67764 0.0
C5362 C 0.00222 0.82119 0.66287 0.0
C5363 C 0.01357 0.81867 0.65301 0.0
C5364 C 0.0278 0.81761 0.6585 0.0
C5365 C 0.03046 0.81904 0.67369 0.0
C5366 C 0.01899 0.82295 0.68316 0.0
H5367 H 0.17647 0.96226 0.64852 0.0
H5368 H 0.14247 0.94493 0.67651 0.0
H5369 H 0.13106 0.96922 0.67775 0.0
H5370 H 0.18433 0.98986 0.66656 0.0
H5371 H 0.18723 0.0034 0.65247 0.0
H5372 H 0.18897 0.98441 0.64813 0.0
H5373 H 0.16968 0.98701 0.62763 0.0
H5374 H 0.16798 0.00625 0.63181 0.0
H5375 H 0.15202 -0.00528 0.63171 0.0
H5376 H 0.12946 -0.0049 0.68422 0.0
H5377 H 0.13671 0.01961 0.69305 0.0
H5378 H 0.17056 0.02122 0.65998 0.0
C5379 C 0.16617 0.96347 0.65419 0.0
C5380 C 0.1605 0.95186 0.66259 0.0
C5381 C 0.14709 0.95374 0.67006 0.0
C5382 C 0.14044 0.96753 0.67074 0.0
C5383 C 0.14713 0.97923 0.6636 0.0
C5384 C 0.15945 0.97724 0.65496 0.0
C5385 C 0.16623 -0.0082 0.65085 0.0
C5386 C 0.18263 -0.00761 0.65477 0.0
C5387 C 0.16382 -0.00486 0.63453 0.0
C5388 C 0.15722 0.00197 0.66033 0.0
C5389 C 0.14583 -0.00533 0.66711 0.0
C5390 C 0.13792 0.00111 0.67854 0.0
C5391 C 0.14215 0.015 0.68358 0.0
C5392 C 0.15426 0.02216 0.67724 0.0
C5393 C 0.16122 0.01593 0.66496 0.0
H5394 H 0.95639 0.18456 0.65301 0.0
H5395 H 0.95148 0.14018 0.66917 0.0
H5396 H 0.97719 0.13512 0.66321 0.0
H5397 H 0.98667 0.17612 0.62417 0.0
H5398 H -0.00457 0.19325 0.62856 0.0
H5399 H 0.97581 0.19182 0.62918 0.0
H5400 H 0.9761 0.20124 0.65591 0.0
H5401 H -0.0044 0.20247 0.6555 0.0
H5402 H 0.98679 0.1916 0.66942 0.0
H5403 H 0.00405 0.13713 0.66285 0.0
H5404 H 0.0293 0.14567 0.66669 0.0
H5405 H 0.01728 0.18858 0.65026 0.0
C5406 C 0.96053 0.17355 0.65456 0.0
C5407 C 0.95197 0.16279 0.66156 0.0
C5408 C 0.95783 0.1486 0.66376 0.0
C5409 C 0.97245 0.1456 0.66036 0.0
C5410 C 0.98098 0.15683 0.65454 0.0
C5411 C 0.97514 0.17046 0.65131 0.0
C5412 C 0.98701 0.18141 0.64761 0.0
C5413 C 0.98618 0.18591 0.63141 0.0
C5414 C 0.98633 0.19495 0.65772 0.0
C5415 C 0.00045 0.1722 0.65056 0.0
C5416 C -0.00323 0.15794 0.65414 0.0
C5417 C 0.00712 0.14809 0.65955 0.0
C5418 C 0.02144 0.15306 0.66179 0.0
C5419 C 0.02525 0.16775 0.65865 0.0
C5420 C 0.01475 0.17719 0.65241 0.0
H5421 H 0.81584 0.96164 0.66758 0.0
H5422 H 0.77053 0.94836 0.6635 0.0
H5423 H 0.76335 0.97404 0.65986 0.0
H5424 H 0.81072 0.99126 0.68824 0.0
H5425 H 0.82393 0.00326 0.67988 0.0
H5426 H 0.82631 0.98375 0.67879 0.0
H5427 H 0.82742 0.98507 0.65049 0.0
H5428 H 0.82537 0.0047 0.65148 0.0
H5429 H 0.81293 -0.00599 0.64057 0.0
H5430 H 0.76034 0.0005 0.66275 0.0
H5431 H 0.76199 0.02688 0.66813 0.0
H5432 H 0.80925 0.02385 0.66876 0.0
C5433 C 0.8045 0.96411 0.66532 0.0
C5434 C 0.79374 0.95304 0.66587 0.0
C5435 C 0.77897 0.95665 0.66307 0.0
C5436 C 0.77477 0.97122 0.66098 0.0
C5437 C 0.78552 0.98198 0.66133 0.0
C5438 C 0.80014 0.97863 0.66299 0.0
C5439 C 0.80928 -0.00756 0.66427 0.0
C5440 C 0.81806 -0.00732 0.67865 0.0
C5441 C 0.81934 -0.00585 0.65091 0.0
C5442 C 0.79735 0.00395 0.66423 0.0
C5443 C 0.78376 -0.00236 0.66235 0.0
C5444 C 0.77092 0.00568 0.66369 0.0
C5445 C 0.77196 0.02061 0.66689 0.0
C5446 C 0.78575 0.02735 0.66862 0.0
C5447 C 0.79861 0.01897 0.6671 0.0
H5448 H 0.29085 0.96304 0.16939 0.0
H5449 H 0.3068 0.96339 0.21419 0.0
H5450 H 0.31315 0.9895 0.21169 0.0
H5451 H 0.31812 0.98668 0.15448 0.0
H5452 H 0.30583 -0.0039 0.14227 0.0
H5453 H 0.30228 0.97737 0.14739 0.0
H5454 H 0.27658 0.98439 0.15703 0.0
H5455 H 0.27983 0.00297 0.15136 0.0
H5456 H 0.27479 -0.00087 0.17005 0.0
H5457 H 0.31905 0.01479 0.20401 0.0
H5458 H 0.3181 0.03976 0.19404 0.0
H5459 H 0.29775 0.02322 0.1544 0.0
C5460 C 0.29547 0.96867 0.17874 0.0
C5461 C 0.29852 0.96122 0.19191 0.0
C5462 C 0.30451 0.96892 0.20395 0.0
C5463 C 0.3083 0.98368 0.20259 0.0
C5464 C 0.30597 0.99048 0.18915 0.0
C5465 C 0.29932 0.98338 0.17758 0.0
C5466 C 0.29743 -0.00656 0.16456 0.0
C5467 C 0.30646 0.98807 0.1514 0.0
C5468 C 0.2812 -0.00491 0.16053 0.0
C5469 C 0.30368 0.00743 0.17082 0.0
C5470 C 0.30897 0.00531 0.18484 0.0
C5471 C 0.3149 0.01664 0.19307 0.0
C5472 C 0.31442 0.03078 0.18724 0.0
C5473 C 0.30766 0.0334 0.17352 0.0
C5474 C 0.30301 0.02149 0.16488 0.0
H5475 H 0.96099 0.31479 0.14951 0.0
H5476 H 0.94489 0.34229 0.18464 0.0
H5477 H 0.96909 0.35355 0.18709 0.0
H5478 H -0.0099 0.30419 0.16478 0.0
H5479 H 0.00254 0.30424 0.14947 0.0
H5480 H 0.98337 0.3027 0.14627 0.0
H5481 H 0.98412 0.32547 0.12937 0.0
H5482 H 0.00349 0.32705 0.13248 0.0
H5483 H -0.00834 0.34243 0.13604 0.0
H5484 H -0.00464 0.35526 0.19167 0.0
H5485 H 0.02065 0.34775 0.19707 0.0
H5486 H 0.0206 0.32013 0.15849 0.0
C5487 C 0.96241 0.32376 0.15713 0.0
C5488 C 0.95115 0.3276 0.16692 0.0
C5489 C 0.9534 0.33914 0.17702 0.0
C5490 C 0.96713 0.3457 0.17842 0.0
C5491 C 0.97844 0.34081 0.16946 0.0
C5492 C 0.97614 0.33035 0.15868 0.0
C5493 C -0.00953 0.32489 0.15246 0.0
C5494 C -0.00832 0.30803 0.15333 0.0
C5495 C -0.00745 0.33029 0.13665 0.0
C5496 C 0.00108 0.33242 0.16271 0.0
C5497 C -0.00598 0.34206 0.17203 0.0
C5498 C 0.00112 0.34821 0.1841 0.0
C5499 C 0.0155 0.34385 0.18713 0.0
C5500 C 0.0225 0.33333 0.1782 0.0
C5501 C 0.0155 0.32831 0.1654 0.0
H5502 H 0.65227 0.95887 0.17142 0.0
H5503 H 0.68456 0.95627 0.13687 0.0
H5504 H 0.68025 0.98222 0.13091 0.0
H5505 H 0.62874 0.99072 0.15437 0.0
H5506 H 0.6263 -0.00185 0.17249 0.0
H5507 H 0.62712 0.97858 0.16986 0.0
H5508 H 0.64797 0.9771 0.18889 0.0
H5509 H 0.64748 -0.00349 0.19138 0.0
H5510 H 0.66431 0.98774 0.18607 0.0
H5511 H 0.67944 0.00875 0.1346 0.0
H5512 H 0.68107 0.03289 0.14659 0.0
H5513 H 0.64919 0.01908 0.17879 0.0
C5514 C 0.65786 0.96361 0.16211 0.0
C5515 C 0.66881 0.9557 0.15471 0.0
C5516 C 0.67607 0.96217 0.14267 0.0
C5517 C 0.67364 0.97692 0.13918 0.0
C5518 C 0.66377 0.98491 0.14767 0.0
C5519 C 0.65567 0.97836 0.15869 0.0
C5520 C 0.64824 0.98965 0.16828 0.0
C5521 C 0.63161 0.98926 0.16611 0.0
C5522 C 0.65227 0.98763 0.18459 0.0
C5523 C 0.65471 0.00353 0.162 0.0
C5524 C 0.66321 0.00064 0.14978 0.0
C5525 C 0.67239 0.01126 0.14378 0.0
C5526 C 0.67335 0.02491 0.15073 0.0
C5527 C 0.66522 0.02778 0.16358 0.0
C5528 C 0.65528 0.01723 0.1688 0.0
H5529 H 0.96081 0.6463 0.17508 0.0
H5530 H 0.94695 0.67347 0.13878 0.0
H5531 H 0.97174 0.67245 0.1285 0.0
H5532 H 0.98852 0.66437 0.18326 0.0
H5533 H 0.00114 0.65006 0.1883 0.0
H5534 H 0.98196 0.64671 0.18921 0.0
H5535 H 0.9846 0.62438 0.17199 0.0
H5536 H 0.00403 0.62747 0.1712 0.0
H5537 H -0.00644 0.62642 0.15453 0.0
H5538 H -0.00198 0.6764 0.12725 0.0
H5539 H 0.02271 0.68401 0.13465 0.0
H5540 H 0.02048 0.6549 0.17206 0.0
C5541 C 0.96283 0.6513 0.16453 0.0
C5542 C 0.95207 0.66004 0.15778 0.0
C5543 C 0.95508 0.66671 0.14414 0.0
C5544 C 0.96915 0.66611 0.13818 0.0
C5545 C 0.98003 0.65872 0.14593 0.0
C5546 C 0.97694 0.65107 0.15869 0.0
C5547 C -0.0092 0.64695 0.16677 0.0
C5548 C -0.00942 0.65237 0.1828 0.0
C5549 C -0.0066 0.63032 0.16607 0.0
C5550 C 0.00194 0.65508 0.15764 0.0
C5551 C -0.00435 0.6612 0.14528 0.0
C5552 C 0.00319 0.67124 0.13658 0.0
C5553 C 0.01719 0.67561 0.14093 0.0
C5554 C 0.02342 0.67007 0.15398 0.0
C5555 C 0.01599 0.65916 0.16196 0.0
H5556 H 0.28095 0.96452 0.83512 0.0
H5557 H 0.32615 0.95105 0.83508 0.0
H5558 H 0.33377 0.97653 0.83928 0.0
H5559 H 0.28454 0.98948 0.81245 0.0
H5560 H 0.27227 0.00335 0.81926 0.0
H5561 H 0.26947 0.98462 0.82421 0.0
H5562 H 0.27063 0.99107 0.85172 0.0
H5563 H 0.27298 0.0101 0.84692 0.0
H5564 H 0.28596 0.0012 0.8588 0.0
H5565 H 0.33694 0.00189 0.83317 0.0
H5566 H 0.33536 0.02506 0.8195 0.0
H5567 H 0.28821 0.02369 0.82226 0.0
C5568 C 0.29235 0.96694 0.83709 0.0
C5569 C 0.303 0.956 0.83503 0.0
C5570 C 0.3179 0.95936 0.83688 0.0
C5571 C 0.32228 0.97383 0.83929 0.0
C5572 C 0.31162 0.98478 0.83959 0.0
C5573 C 0.29685 0.98149 0.8389 0.0
C5574 C 0.28787 -0.00489 0.83563 0.0
C5575 C 0.27799 -0.007 0.82209 0.0
C5576 C 0.27883 -0.00036 0.84907 0.0
C5577 C 0.29996 0.00603 0.83271 0.0
C5578 C 0.31353 3e-05 0.8357 0.0
C5579 C 0.3264 0.00692 0.83135 0.0
C5580 C 0.32541 0.01998 0.8234 0.0
C5581 C 0.31166 0.02606 0.81992 0.0
C5582 C 0.29883 0.01934 0.82514 0.0
H5583 H 0.95354 0.31609 0.81762 0.0
H5584 H 0.95123 0.34356 0.77895 0.0
H5585 H 0.97768 0.34796 0.78052 0.0
H5586 H 0.98642 0.33614 0.83581 0.0
H5587 H -0.00668 0.31878 0.84221 0.0
H5588 H 0.97391 0.32184 0.84103 0.0
H5589 H 0.97155 0.29863 0.82493 0.0
H5590 H -0.00912 0.29569 0.82568 0.0
H5591 H 0.98192 0.29735 0.80818 0.0
H5592 H 0.00419 0.34365 0.78186 0.0
H5593 H 0.02866 0.33273 0.7842 0.0
H5594 H 0.01418 0.30799 0.82206 0.0
C5595 C 0.9585 0.32362 0.80994 0.0
C5596 C 0.95039 0.32944 0.79816 0.0
C5597 C 0.95723 0.33906 0.78813 0.0
C5598 C 0.97228 0.34164 0.78895 0.0
C5599 C 0.98021 0.33477 0.80003 0.0
C5600 C 0.9735 0.32625 0.81061 0.0
C5601 C 0.98461 0.3182 0.8199 0.0
C5602 C 0.98456 0.3241 0.83567 0.0
C5603 C 0.98209 0.30149 0.81963 0.0
C5604 C -0.0015 0.32241 0.81202 0.0
C5605 C -0.00422 0.33231 0.80087 0.0
C5606 C 0.00656 0.33632 0.79087 0.0
C5607 C 0.0204 0.32995 0.79221 0.0
C5608 C 0.0233 0.31959 0.80338 0.0
C5609 C 0.01231 0.31609 0.81361 0.0
H5610 H 0.67843 0.95614 0.81273 0.0
H5611 H 0.65067 0.95393 0.77429 0.0
H5612 H 0.64404 0.97989 0.77763 0.0
H5613 H 0.65565 0.98352 0.83378 0.0
H5614 H 0.67173 -0.00751 0.84075 0.0
H5615 H 0.672 0.97306 0.83719 0.0
H5616 H 0.69446 0.97633 0.82023 0.0
H5617 H 0.69433 -0.00435 0.82387 0.0
H5618 H 0.69348 0.98916 0.80524 0.0
H5619 H 0.64363 0.00636 0.78244 0.0
H5620 H 0.65093 0.03188 0.78725 0.0
H5621 H 0.67859 0.01718 0.82288 0.0
C5622 C 0.67069 0.96104 0.80522 0.0
C5623 C 0.66503 0.95307 0.79328 0.0
C5624 C 0.65512 0.95987 0.78353 0.0
C5625 C 0.65116 0.97455 0.78543 0.0
C5626 C 0.65708 0.98219 0.79722 0.0
C5627 C 0.66664 0.97568 0.80697 0.0
C5628 C 0.67299 0.98675 0.81752 0.0
C5629 C 0.66777 0.98378 0.83324 0.0
C5630 C 0.6898 0.98699 0.81664 0.0
C5631 C 0.6663 0.00067 0.81149 0.0
C5632 C 0.65681 -0.00227 0.80008 0.0
C5633 C 0.65073 0.00883 0.79157 0.0
C5634 C 0.65498 0.02327 0.79435 0.0
C5635 C 0.66527 0.02641 0.80545 0.0
C5636 C 0.67045 0.01506 0.81455 0.0
H5637 H 0.01542 0.66028 0.78825 0.0
H5638 H 0.02315 0.63944 0.82999 0.0
H5639 H -0.00343 0.63944 0.83496 0.0
H5640 H -0.00462 0.68565 0.80266 0.0
H5641 H 0.98279 0.68863 0.7878 0.0
H5642 H 0.00058 0.68135 0.78411 0.0
H5643 H 0.98948 0.65861 0.77145 0.0
H5644 H 0.97151 0.66604 0.77456 0.0
H5645 H 0.97591 0.64783 0.78083 0.0
H5646 H 0.97038 0.64675 0.83777 0.0
H5647 H 0.94766 0.66155 0.83881 0.0
H5648 H 0.95873 0.68149 0.79721 0.0
C5649 C 0.01131 0.65479 0.79794 0.0
C5650 C 0.02103 0.64931 0.8085 0.0
C5651 C 0.01567 0.64315 0.82159 0.0
C5652 C 0.00062 0.64319 0.82448 0.0
C5653 C -0.0087 0.64983 0.81433 0.0
C5654 C -0.0035 0.65555 0.80126 0.0
C5655 C 0.98542 0.6655 0.79404 0.0
C5656 C -0.0086 0.68119 0.79206 0.0
C5657 C 0.98027 0.6591 0.77936 0.0
C5658 C 0.97345 0.66506 0.80538 0.0
C5659 C 0.97674 0.65555 0.81671 0.0
C5660 C 0.96762 0.65407 0.82886 0.0
C5661 C 0.95486 0.66258 0.82945 0.0
C5662 C 0.95175 0.67277 0.81822 0.0
C5663 C 0.96106 0.67388 0.80602 0.0
H5664 H 0.17451 0.32324 0.02941 0.0
H5665 H 0.13982 0.29103 0.03097 0.0
H5666 H 0.13332 0.2969 0.00551 0.0
H5667 H 0.1563 0.34876 -0.00046 0.0
H5668 H 0.17407 0.35185 -0.00835 0.0
H5669 H 0.17212 0.34988 0.01121 0.0
H5670 H 0.19132 0.32905 0.01092 0.0
H5671 H 0.19323 0.3309 -0.00846 0.0
H5672 H 0.18844 0.31335 -0.00075 0.0
H5673 H 0.13567 0.29973 0.97936 0.0
H5674 H 0.14707 0.29869 0.95503 0.0
H5675 H 0.1804 0.32914 0.96928 0.0
C5676 C 0.16515 0.31791 0.02454 0.0
C5677 C 0.15773 0.30665 0.03203 0.0
C5678 C 0.14568 0.29968 0.02536 0.0
C5679 C 0.1418 0.30309 0.01095 0.0
C5680 C 0.14998 0.31357 0.00344 0.0
C5681 C 0.16131 0.32109 0.0101 0.0
C5682 C 0.17044 0.32932 -0.00101 0.0
C5683 C 0.16808 0.34594 0.00043 0.0
C5684 C 0.18679 0.32539 0.00025 0.0
C5685 C 0.16375 0.3236 0.98497 0.0
C5686 C 0.15146 0.31519 0.98778 0.0
C5687 C 0.14496 0.30665 0.97695 0.0
C5688 C 0.1516 0.30598 0.96321 0.0
C5689 C 0.16465 0.31376 0.96046 0.0
C5690 C 0.17029 0.32329 0.97115 0.0
H5691 H 0.17724 0.64619 0.01719 0.0
H5692 H 0.1422 0.67401 0.03268 0.0
H5693 H 0.13306 0.67655 0.00754 0.0
H5694 H 0.18767 0.66613 -0.0083 0.0
H5695 H 0.19202 0.653 0.9776 0.0
H5696 H 0.19204 0.64741 -0.00365 0.0
H5697 H 0.17327 0.62699 0.99096 0.0
H5698 H 0.1735 0.63216 0.9719 0.0
H5699 H 0.15645 0.63139 0.98171 0.0
H5700 H 0.13371 0.684 0.98191 0.0
H5701 H 0.14194 0.69265 0.95769 0.0
H5702 H 0.17646 0.66013 0.95796 0.0
C5703 C 0.16708 0.65198 0.01534 0.0
C5704 C 0.16049 0.66001 0.02673 0.0
C5705 C 0.14742 0.6678 0.02402 0.0
C5706 C 0.14213 0.66927 0.00974 0.0
C5707 C 0.1499 0.66268 -0.00161 0.0
C5708 C 0.16184 0.65371 0.00106 0.0
C5709 C 0.17008 0.65043 0.98704 0.0
C5710 C 0.18639 0.65451 0.98826 0.0
C5711 C 0.1682 0.63428 0.98264 0.0
C5712 C 0.16207 0.66041 0.97654 0.0
C5713 C 0.15015 0.66698 0.98313 0.0
C5714 C 0.14262 0.67847 0.97641 0.0
C5715 C 0.14748 0.68345 0.96274 0.0
C5716 C 0.1598 0.677 0.95599 0.0
C5717 C 0.16685 0.66507 0.9628 0.0
H5718 H 0.31684 0.16656 0.01868 0.0
H5719 H 0.27127 0.17214 0.03004 0.0
H5720 H 0.2641 0.16052 0.00672 0.0
H5721 H 0.31509 0.17771 0.98522 0.0
H5722 H 0.32769 0.16497 0.97693 0.0
H5723 H 0.32911 0.16901 -0.00396 0.0
H5724 H 0.32682 0.14137 0.00217 0.0
H5725 H 0.32537 0.13723 0.98291 0.0
H5726 H 0.31144 0.13109 -0.00458 0.0
H5727 H 0.26205 0.15484 0.9803 0.0
H5728 H 0.26539 0.15656 0.95355 0.0
H5729 H 0.31224 0.15421 0.95925 0.0
C5730 C 0.30537 0.16482 0.01645 0.0
C5731 C 0.29461 0.17025 0.02601 0.0
C5732 C 0.27968 0.16794 0.02283 0.0
C5733 C 0.27552 0.16125 0.00966 0.0
C5734 C 0.28643 0.15662 3e-05 0.0
C5735 C 0.30109 0.15807 0.00343 0.0
C5736 C 0.31069 0.15461 0.99042 0.0
C5737 C 0.32123 0.16734 0.98696 0.0
C5738 C 0.31907 0.14022 -0.00712 0.0
C5739 C 0.29917 0.15277 0.97874 0.0
C5740 C 0.28522 0.15325 0.98458 0.0
C5741 C 0.27288 0.15396 0.97565 0.0
C5742 C 0.27487 0.15496 0.96045 0.0
C5743 C 0.2891 0.15556 0.95448 0.0
C5744 C 0.30128 0.15364 0.96365 0.0
H5745 H 0.82352 0.30277 0.02561 0.0
H5746 H 0.80334 0.34543 0.03076 0.0
H5747 H 0.81018 0.35176 0.00547 0.0
H5748 H 0.85313 0.31444 -0.0026 0.0
H5749 H 0.85074 0.29733 0.98783 0.0
H5750 H 0.84875 0.29803 0.00747 0.0
H5751 H 0.82302 0.28658 0.00516 0.0
H5752 H 0.82484 0.28598 0.98566 0.0
H5753 H 0.80956 0.29542 -0.00622 0.0
H5754 H 0.81161 0.35035 0.97859 0.0
H5755 H 0.80944 0.3419 0.95295 0.0
H5756 H 0.83021 0.30093 0.96475 0.0
C5757 C 0.82119 0.3137 0.02163 0.0
C5758 C 0.81286 0.32358 0.03009 0.0
C5759 C 0.80972 0.33768 0.02445 0.0
C5760 C 0.81364 0.3414 0.0101 0.0
C5761 C 0.82091 0.331 0.0016 0.0
C5762 C 0.82499 0.31753 0.00728 0.0
C5763 C 0.83035 0.30734 -0.00466 0.0
C5764 C 0.84672 0.30411 -0.00288 0.0
C5765 C 0.8214 0.29301 -0.00503 0.0
C5766 C 0.8275 0.31673 0.98197 0.0
C5767 C 0.82231 0.33046 0.98579 0.0
C5768 C 0.81624 0.33991 0.9754 0.0
C5769 C 0.81496 0.33502 0.96088 0.0
C5770 C 0.81992 0.32091 0.95691 0.0
C5771 C 0.82685 0.31199 0.96744 0.0
H5772 H 0.67697 0.83962 0.95972 0.0
H5773 H 0.64856 0.80597 0.94241 0.0
H5774 H 0.6364 0.80394 0.96629 0.0
H5775 H 0.68669 0.82388 0.98779 0.0
H5776 H 0.687 0.83852 0.00106 0.0
H5777 H 0.68854 0.84272 0.98204 0.0
H5778 H 0.66621 0.85997 0.98352 0.0
H5779 H 0.66471 0.85608 0.00283 0.0
H5780 H 0.64922 0.85337 0.99097 0.0
H5781 H 0.63495 0.79816 -0.0078 0.0
H5782 H 0.6426 0.79116 0.01708 0.0
H5783 H 0.67131 0.82881 0.01872 0.0
C5784 C 0.66764 0.83244 0.96084 0.0
C5785 C 0.66384 0.82279 0.94944 0.0
C5786 C 0.65166 0.81345 0.95108 0.0
C5787 C 0.64463 0.81228 0.96463 0.0
C5788 C 0.64971 0.82077 0.97626 0.0
C5789 C 0.66062 0.83114 0.97436 0.0
C5790 C 0.66631 0.83661 0.98893 0.0
C5791 C 0.68311 0.83532 0.99 0.0
C5792 C 0.6613 0.85244 -0.00827 0.0
C5793 C 0.65863 0.82609 -0.00086 0.0
C5794 C 0.64858 0.81752 -0.00825 0.0
C5795 C 0.6423 0.80519 -0.00175 0.0
C5796 C 0.64682 0.80119 0.01236 0.0
C5797 C 0.65758 0.80946 0.01973 0.0
C5798 C 0.66292 0.82244 0.01334 0.0
H5799 H 0.83095 0.6793 0.02037 0.0
H5800 H 0.81216 0.63806 0.0339 0.0
H5801 H 0.81381 0.62889 0.00863 0.0
H5802 H 0.80934 0.68462 -0.00506 0.0
H5803 H 0.8208 0.69315 0.98136 0.0
H5804 H 0.8259 0.69392 0.0002 0.0
H5805 H 0.85081 0.68195 -0.00555 0.0
H5806 H 0.84595 0.68146 0.97532 0.0
H5807 H 0.85155 0.6649 0.9845 0.0
H5808 H 0.80787 0.62797 0.9828 0.0
H5809 H 0.7964 0.6349 0.95936 0.0
H5810 H 0.81783 0.67716 0.96147 0.0
C5811 C 0.82817 0.668 0.01807 0.0
C5812 C 0.82151 0.65932 0.02891 0.0
C5813 C 0.81739 0.64479 0.02566 0.0
C5814 C 0.81835 0.63951 0.01131 0.0
C5815 C 0.82328 0.64897 0.00036 0.0
C5816 C 0.82849 0.66289 0.00363 0.0
C5817 C 0.82941 0.67231 0.98998 0.0
C5818 C 0.82084 0.68682 -0.00826 0.0
C5819 C 0.84538 0.67532 0.98582 0.0
C5820 C 0.82225 0.66219 0.97901 0.0
C5821 C 0.8194 0.64855 0.98498 0.0
C5822 C 0.81049 0.63839 0.97781 0.0
C5823 C 0.80388 0.64245 0.96456 0.0
C5824 C 0.80614 0.6566 0.95873 0.0
C5825 C 0.81599 0.66623 0.96568 0.0
H5826 H 0.30188 0.82565 0.96554 0.0
H5827 H 0.33959 0.79691 0.96396 0.0
H5828 H 0.33966 0.7955 0.99084 0.0
H5829 H 0.3119 0.84371 0.0029 0.0
H5830 H 0.29285 0.84447 0.00774 0.0
H5831 H 0.29836 0.84672 0.98891 0.0
H5832 H 0.28094 0.82563 0.98159 0.0
H5833 H 0.27573 0.82297 0.00034 0.0
H5834 H 0.28312 0.80786 0.98998 0.0
H5835 H 0.33182 0.7918 0.01643 0.0
H5836 H 0.31872 0.78904 0.03983 0.0
H5837 H 0.28626 0.8205 0.02526 0.0
C5838 C 0.31057 0.81967 0.9709 0.0
C5839 C 0.32065 0.81133 0.96269 0.0
C5840 C 0.33176 0.80342 0.97003 0.0
C5841 C 0.3319 0.80255 0.98533 0.0
C5842 C 0.32109 0.80996 -0.00691 0.0
C5843 C 0.3109 0.81877 0.98618 0.0
C5844 C 0.2994 0.82411 -0.00313 0.0
C5845 C 0.30071 0.84074 -0.00075 0.0
C5846 C 0.2839 0.81987 -0.00811 0.0
C5847 C 0.30393 0.81577 0.01045 0.0
C5848 C 0.31665 0.80796 0.00814 0.0
C5849 C 0.32212 0.79823 0.01854 0.0
C5850 C 0.3145 0.79661 0.03173 0.0
C5851 C 0.3015 0.8046 0.03434 0.0
C5852 C 0.29625 0.81437 0.02359 0.0
H5853 H 0.67754 0.14965 0.01965 0.0
H5854 H 0.64653 0.18005 0.03874 0.0
H5855 H 0.63666 0.18532 0.01425 0.0
H5856 H 0.68815 0.17067 -0.00658 0.0
H5857 H 0.69041 0.15729 0.97907 0.0
H5858 H 0.69153 0.1517 -0.00217 0.0
H5859 H 0.67101 0.13262 -0.00617 0.0
H5860 H 0.67002 0.13793 0.97483 0.0
H5861 H 0.65383 0.13831 0.98605 0.0
H5862 H 0.63538 0.19279 0.98826 0.0
H5863 H 0.64159 0.20029 0.96304 0.0
H5864 H 0.67335 0.1651 0.96059 0.0
C5865 C 0.66815 0.15681 0.01873 0.0
C5866 C 0.66283 0.16447 0.03103 0.0
C5867 C 0.65074 0.174 0.02944 0.0
C5868 C 0.64503 0.17705 0.01555 0.0
C5869 C 0.65136 0.17026 0.00343 0.0
C5870 C 0.66244 0.16003 0.00492 0.0
C5871 C 0.66918 0.15627 0.99026 0.0
C5872 C 0.68578 0.15917 0.99015 0.0
C5873 C 0.6658 0.14034 0.98599 0.0
C5874 C 0.66109 0.16692 0.98052 0.0
C5875 C 0.65056 0.17461 0.9882 0.0
C5876 C 0.64321 0.18649 0.982 0.0
C5877 C 0.64688 0.19074 0.9677 0.0
C5878 C 0.65791 0.18322 0.95989 0.0
C5879 C 0.66472 0.17091 0.96624 0.0
H5880 H 0.81635 0.53041 0.81939 0.0
H5881 H 0.77398 0.53895 0.80006 0.0
H5882 H 0.76686 0.51332 0.8043 0.0
H5883 H 0.8234 0.49798 0.80551 0.0
H5884 H 0.83077 0.48878 0.82136 0.0
H5885 H 0.8317 0.5084 0.82008 0.0
H5886 H 0.81812 0.51129 0.84474 0.0
H5887 H 0.81756 0.4916 0.84646 0.0
H5888 H 0.80093 0.50211 0.84748 0.0
H5889 H 0.76636 0.48678 0.80543 0.0
H5890 H 0.77056 0.46023 0.80758 0.0
H5891 H 0.81288 0.46817 0.82729 0.0
C5892 C 0.80537 0.52694 0.81673 0.0
C5893 C 0.79562 0.53646 0.80955 0.0
C5894 C 0.78141 0.53176 0.80587 0.0
C5895 C 0.77732 0.51724 0.80816 0.0
C5896 C 0.78741 0.50785 0.81462 0.0
C5897 C 0.80093 0.51255 0.8194 0.0
C5898 C 0.80992 0.4999 0.82529 0.0
C5899 C 0.82482 0.4987 0.81758 0.0
C5900 C 0.81174 0.50131 0.84198 0.0
C5901 C 0.79998 0.48721 0.82151 0.0
C5902 C 0.78692 0.49218 0.8157 0.0
C5903 C 0.77627 0.48273 0.81046 0.0
C5904 C 0.77878 0.46774 0.81164 0.0
C5905 C 0.79188 0.4624 0.81783 0.0
C5906 C 0.80272 0.47216 0.8227 0.0
H5907 H 0.15813 0.52281 0.82038 0.0
H5908 H 0.19719 0.52502 0.847 0.0
H5909 H 0.19702 0.49813 0.84944 0.0
H5910 H 0.14224 0.48632 0.8353 0.0
H5911 H 0.13718 0.48133 0.81689 0.0
H5912 H 0.13656 0.50026 0.82252 0.0
H5913 H 0.15318 0.50696 0.80061 0.0
H5914 H 0.15435 0.48815 0.79517 0.0
H5915 H 0.1708 0.49829 0.79891 0.0
H5916 H 0.19724 0.47184 0.84269 0.0
H5917 H 0.19708 0.44879 0.82855 0.0
H5918 H 0.15915 0.46388 0.8045 0.0
C5919 C 0.16616 0.5177 0.82742 0.0
C5920 C 0.17771 0.52593 0.83342 0.0
C5921 C 0.1882 0.5189 0.84235 0.0
C5922 C 0.18818 0.50359 0.84378 0.0
C5923 C 0.17757 0.4956 0.83627 0.0
C5924 C 0.16655 0.50247 0.82846 0.0
C5925 C 0.15857 0.49182 0.8186 0.0
C5926 C 0.14269 0.48981 0.82364 0.0
C5927 C 0.15929 0.49659 0.80239 0.0
C5928 C 0.16744 0.47814 0.82128 0.0
C5929 C 0.17804 0.48036 0.83183 0.0
C5930 C 0.18869 0.46983 0.83476 0.0
C5931 C 0.18859 0.45682 0.8266 0.0
C5932 C 0.17808 0.45461 0.81545 0.0
C5933 C 0.16721 0.46526 0.81305 0.0
H5934 H 0.18225 0.4579 0.15853 0.0
H5935 H 0.14908 0.44524 0.18996 0.0
H5936 H 0.13783 0.46978 0.18774 0.0
H5937 H 0.18917 0.49067 0.17254 0.0
H5938 H 0.19224 0.50025 0.15554 0.0
H5939 H 0.19508 0.48084 0.15646 0.0
H5940 H 0.17698 0.47716 0.13498 0.0
H5941 H 0.174 0.49668 0.13408 0.0
H5942 H 0.15873 0.48444 0.13629 0.0
H5943 H 0.1331 0.49649 0.18571 0.0
H5944 H 0.13678 0.52317 0.18632 0.0
H5945 H 0.17359 0.51877 0.15677 0.0
C5946 C 0.17233 0.46011 0.16459 0.0
C5947 C 0.16647 0.44967 0.17436 0.0
C5948 C 0.15368 0.45307 0.18233 0.0
C5949 C 0.14715 0.46693 0.18103 0.0
C5950 C 0.1535 0.47718 0.17161 0.0
C5951 C 0.1658 0.47389 0.16348 0.0
C5952 C 0.17199 0.48739 0.15609 0.0
C5953 C 0.18805 0.48993 0.16044 0.0
C5954 C 0.17031 0.48635 0.13937 0.0
C5955 C 0.16201 0.49902 0.16236 0.0
C5956 C 0.15102 0.49284 0.17075 0.0
C5957 C 0.14146 0.50143 0.17894 0.0
C5958 C 0.14366 0.51661 0.17923 0.0
C5959 C 0.15556 0.52301 0.17165 0.0
C5960 C 0.16433 0.51418 0.16253 0.0
H5961 H 0.82948 0.53062 0.17862 0.0
H5962 H 0.80286 0.53462 0.13958 0.0
H5963 H 0.80358 0.50783 0.13639 0.0
H5964 H 0.8507 0.4959 0.16727 0.0
H5965 H 0.84977 0.48927 0.18584 0.0
H5966 H 0.85112 0.50867 0.18233 0.0
H5967 H 0.82785 0.51282 0.19792 0.0
H5968 H 0.82614 0.49351 0.2011 0.0
H5969 H 0.81122 0.5035 0.19299 0.0
H5970 H 0.8011 0.48113 0.14148 0.0
H5971 H 0.79841 0.45663 0.15272 0.0
H5972 H 0.82686 0.46985 0.18827 0.0
C5973 C 0.82447 0.52593 0.16896 0.0
C5974 C 0.81609 0.53467 0.15939 0.0
C5975 C 0.80943 0.52813 0.14702 0.0
C5976 C 0.80975 0.51289 0.14514 0.0
C5977 C 0.81702 0.50442 0.15555 0.0
C5978 C 0.82462 0.51074 0.16702 0.0
C5979 C 0.82955 0.49934 0.17801 0.0
C5980 C 0.84628 0.49823 0.17837 0.0
C5981 C 0.82331 0.50248 0.19339 0.0
C5982 C 0.82282 0.48576 0.17139 0.0
C5983 C 0.81578 0.48884 0.15836 0.0
C5984 C 0.80703 0.47846 0.15138 0.0
C5985 C 0.80547 0.46462 0.15789 0.0
C5986 C 0.81261 0.46134 0.17123 0.0
C5987 C 0.8216 0.47196 0.17786 0.0
H5988 H 0.31945 0.51854 0.67738 0.0
H5989 H 0.29631 0.52368 0.63631 0.0
H5990 H 0.30515 0.49951 0.62829 0.0
H5991 H 0.35078 0.49384 0.66234 0.0
H5992 H 0.35046 0.48332 0.67905 0.0
H5993 H 0.34667 0.50272 0.67949 0.0
H5994 H 0.32206 0.49759 0.69247 0.0
H5995 H 0.32578 0.47835 0.69209 0.0
H5996 H 0.30917 0.48527 0.68406 0.0
H5997 H 0.30925 0.47309 0.62811 0.0
H5998 H 0.30864 0.44718 0.63578 0.0
H5999 H 0.33074 0.45858 0.67606 0.0
C6000 C 0.31679 0.51482 0.66645 0.0
C6001 C 0.30717 0.5229 0.6575 0.0
C6002 C 0.30368 0.51765 0.64336 0.0
C6003 C 0.30876 0.50396 0.63865 0.0
C6004 C 0.31752 0.49578 0.64811 0.0
C6005 C 0.32175 0.50115 0.66164 0.0
C6006 C 0.32884 0.48933 0.67085 0.0
C6007 C 0.34516 0.49249 0.67305 0.0
C6008 C 0.32098 0.48753 0.68571 0.0
C6009 C 0.32658 0.47617 0.661 0.0
C6010 C 0.32044 0.48019 0.64772 0.0
C6011 C 0.3146 0.4698 0.63815 0.0
C6012 C 0.31425 0.45511 0.64259 0.0
C6013 C 0.31984 0.45097 0.65639 0.0
C6014 C 0.32688 0.46146 0.66523 0.0
H6015 H 0.64124 0.51633 0.69126 0.0
H6016 H 0.65707 0.53401 0.65024 0.0
H6017 H 0.65469 0.50981 0.63879 0.0
H6018 H 0.66125 0.48871 0.69255 0.0
H6019 H 0.649 0.4751 0.69986 0.0
H6020 H 0.64544 0.49406 0.70306 0.0
H6021 H 0.61978 0.49153 0.69156 0.0
H6022 H 0.62319 0.47231 0.68844 0.0
H6023 H 0.61781 0.48395 0.67344 0.0
H6024 H 0.66021 0.48408 0.63497 0.0
H6025 H 0.67081 0.45954 0.63868 0.0
H6026 H 0.65047 0.45725 0.68144 0.0
C6027 C 0.64331 0.51522 0.67964 0.0
C6028 C 0.64944 0.52691 0.67167 0.0
C6029 C 0.6524 0.52513 0.65657 0.0
C6030 C 0.65098 0.5114 0.64993 0.0
C6031 C 0.64637 0.49962 0.65847 0.0
C6032 C 0.64208 0.50147 0.67294 0.0
C6033 C 0.6405 0.48683 0.6806 0.0
C6034 C 0.6496 0.48615 0.69482 0.0
C6035 C 0.62436 0.48346 0.68368 0.0
C6036 C 0.6465 0.47673 0.66888 0.0
C6037 C 0.64927 0.48421 0.65599 0.0
C6038 C 0.65752 0.47794 0.64474 0.0
C6039 C 0.66362 0.46402 0.64697 0.0
C6040 C 0.66139 0.45655 0.66033 0.0
C6041 C 0.65206 0.46264 0.671 0.0
H6042 H 0.31126 0.4619 0.33415 0.0
H6043 H 0.34084 0.4478 0.29993 0.0
H6044 H 0.35141 0.47253 0.29893 0.0
H6045 H 0.30024 0.49072 0.31884 0.0
H6046 H 0.29881 0.50302 0.33423 0.0
H6047 H 0.29801 0.48368 0.33716 0.0
H6048 H 0.31961 0.48514 0.35533 0.0
H6049 H 0.32038 0.50471 0.35261 0.0
H6050 H 0.33646 0.49367 0.34978 0.0
H6051 H 0.35252 0.49892 0.29531 0.0
H6052 H 0.34464 0.52417 0.2901 0.0
H6053 H 0.3143 0.52218 0.32645 0.0
C6054 C 0.32053 0.46386 0.32706 0.0
C6055 C 0.3252 0.45303 0.31709 0.0
C6056 C 0.33709 0.45597 0.30767 0.0
C6057 C 0.34324 0.47 0.30711 0.0
C6058 C 0.33747 0.48091 0.31613 0.0
C6059 C 0.32658 0.47791 0.32623 0.0
C6060 C 0.32006 0.49193 0.33234 0.0
C6061 C 0.30331 0.49235 0.3305 0.0
C6062 C 0.3244 0.49398 0.34847 0.0
C6063 C 0.3276 0.50311 0.32271 0.0
C6064 C 0.3381 0.49662 0.31393 0.0
C6065 C 0.34473 0.50423 0.30247 0.0
C6066 C 0.34009 0.51855 0.29949 0.0
C6067 C 0.32882 0.52506 0.30787 0.0
C6068 C 0.32308 0.5175 0.32004 0.0
H6069 H 0.6562 0.5282 0.3131 0.0
H6070 H 0.68941 0.53213 0.34661 0.0
H6071 H 0.68426 0.50683 0.35464 0.0
H6072 H 0.63142 0.49978 0.33217 0.0
H6073 H 0.6287 0.4907 0.31486 0.0
H6074 H 0.63093 0.51031 0.31548 0.0
H6075 H 0.65215 0.50831 0.2969 0.0
H6076 H 0.65019 0.48881 0.29636 0.0
H6077 H 0.66756 0.49674 0.30111 0.0
H6078 H 0.68112 0.47995 0.35407 0.0
H6079 H 0.68027 0.45446 0.34505 0.0
H6080 H 0.64924 0.46752 0.31169 0.0
C6081 C 0.66185 0.524 0.32263 0.0
C6082 C 0.67316 0.5321 0.32927 0.0
C6083 C 0.68064 0.52611 0.34142 0.0
C6084 C 0.67772 0.51176 0.34609 0.0
C6085 C 0.66729 0.50358 0.33851 0.0
C6086 C 0.6593 0.50959 0.32712 0.0
C6087 C 0.65114 0.49792 0.31865 0.0
C6088 C 0.63456 0.49979 0.32041 0.0
C6089 C 0.65554 0.49795 0.30232 0.0
C6090 C 0.65654 0.48429 0.32642 0.0
C6091 C 0.66553 0.48777 0.33809 0.0
C6092 C 0.67373 0.47706 0.34529 0.0
C6093 C 0.67324 0.4626 0.34007 0.0
C6094 C 0.66462 0.459 0.32775 0.0
C6095 C 0.65566 0.46987 0.32136 0.0
H6096 H 0.1628 0.80061 0.45454 0.0
H6097 H 0.18399 0.84242 0.44738 0.0
H6098 H 0.17503 0.85111 0.47129 0.0
H6099 H 0.13134 0.81472 0.4796 0.0
H6100 H 0.13303 0.79854 0.49081 0.0
H6101 H 0.13627 0.79746 0.47136 0.0
H6102 H 0.16182 0.7863 0.47619 0.0
H6103 H 0.15858 0.78724 0.49548 0.0
H6104 H 0.17446 0.796 0.4878 0.0
H6105 H 0.17093 0.85252 0.49749 0.0
H6106 H 0.17305 0.84605 0.5236 0.0
H6107 H 0.15359 0.80378 0.51479 0.0
C6108 C 0.16496 0.81182 0.45777 0.0
C6109 C 0.17401 0.82088 0.44918 0.0
C6110 C 0.17704 0.83532 0.45385 0.0
C6111 C 0.17185 0.84039 0.46735 0.0
C6112 C 0.16361 0.83091 0.47603 0.0
C6113 C 0.16005 0.81691 0.47136 0.0
C6114 C 0.15391 0.8078 0.48377 0.0
C6115 C 0.13767 0.80444 0.48123 0.0
C6116 C 0.16273 0.79352 0.48593 0.0
C6117 C 0.15594 0.81834 0.49643 0.0
C6118 C 0.16102 0.83182 0.49164 0.0
C6119 C 0.16648 0.84226 0.50138 0.0
C6120 C 0.16771 0.8385 0.51619 0.0
C6121 C 0.16336 0.8245 0.52108 0.0
C6122 C 0.15655 0.81472 0.51129 0.0
H6123 H 0.15693 0.1945 0.4687 0.0
H6124 H 0.17134 0.1507 0.4572 0.0
H6125 H 0.16685 0.14256 0.48257 0.0
H6126 H 0.17532 0.19624 0.50038 0.0
H6127 H 0.16197 0.20673 0.51041 0.0
H6128 H 0.16271 0.20803 0.49084 0.0
H6129 H 0.13543 0.20063 0.4893 0.0
H6130 H 0.13465 0.1992 0.50898 0.0
H6131 H 0.12938 0.18384 0.49775 0.0
H6132 H 0.16534 0.14042 0.50957 0.0
H6133 H 0.16883 0.14491 0.53593 0.0
H6134 H 0.15547 0.19014 0.53001 0.0
C6135 C 0.15865 0.18307 0.47141 0.0
C6136 C 0.16436 0.1732 0.46103 0.0
C6137 C 0.16689 0.15842 0.46502 0.0
C6138 C 0.16424 0.15367 0.47937 0.0
C6139 C 0.15899 0.16382 0.4895 0.0
C6140 C 0.15621 0.17823 0.48568 0.0
C6141 C 0.153 0.18756 0.49897 0.0
C6142 C 0.1639 0.20037 0.50022 0.0
C6143 C 0.13717 0.19313 0.49873 0.0
C6144 C 0.15524 0.17636 0.51096 0.0
C6145 C 0.15827 0.16262 0.50527 0.0
C6146 C 0.16262 0.151 0.51417 0.0
C6147 C 0.16459 0.15366 0.52914 0.0
C6148 C 0.1624 0.16788 0.53496 0.0
C6149 C 0.15697 0.17911 0.52588 0.0
H6150 H 0.32101 0.6949 0.51765 0.0
H6151 H 0.30336 0.65301 0.53137 0.0
H6152 H 0.30875 0.64275 0.5069 0.0
H6153 H 0.3047 0.69487 0.4841 0.0
H6154 H 0.31936 0.70404 0.47466 0.0
H6155 H 0.31689 0.70685 0.49393 0.0
H6156 H 0.34364 0.69861 0.49836 0.0
H6157 H 0.34604 0.69547 0.47902 0.0
H6158 H 0.34964 0.68094 0.4919 0.0
H6159 H 0.31239 0.6383 0.48022 0.0
H6160 H 0.31094 0.64098 0.4534 0.0
H6161 H 0.32664 0.68565 0.45708 0.0
C6162 C 0.31866 0.68345 0.51564 0.0
C6163 C 0.31192 0.67469 0.5264 0.0
C6164 C 0.30861 0.65988 0.52326 0.0
C6165 C 0.31178 0.65392 0.50945 0.0
C6166 C 0.3183 0.66292 0.49897 0.0
C6167 C 0.32162 0.67741 0.50191 0.0
C6168 C 0.3264 0.68545 0.48826 0.0
C6169 C 0.31623 0.69856 0.48505 0.0
C6170 C 0.34238 0.6904 0.48946 0.0
C6171 C 0.32466 0.6734 0.47702 0.0
C6172 C 0.32033 0.66037 0.48345 0.0
C6173 C 0.31609 0.64832 0.47508 0.0
C6174 C 0.31533 0.64993 0.45983 0.0
C6175 C 0.31864 0.66355 0.45319 0.0
C6176 C 0.32427 0.67504 0.46183 0.0
H6177 H 0.82674 0.8127 0.52299 0.0
H6178 H 0.79497 0.84786 0.52187 0.0
H6179 H 0.79902 0.85069 0.49547 0.0
H6180 H 0.84963 0.8259 0.488 0.0
H6181 H 0.85193 0.80693 0.483 0.0
H6182 H 0.85205 0.81222 0.50203 0.0
H6183 H 0.83166 0.79332 0.50698 0.0
H6184 H 0.83099 0.78836 0.48806 0.0
H6185 H 0.81466 0.7947 0.4971 0.0
H6186 H 0.7978 0.84277 0.47025 0.0
H6187 H 0.79541 0.82789 0.44786 0.0
H6188 H 0.82854 0.79806 0.46378 0.0
C6189 C 0.82133 0.82157 0.51729 0.0
C6190 C 0.81035 0.82985 0.52432 0.0
C6191 C 0.80336 0.84132 0.51665 0.0
C6192 C 0.80564 0.84302 0.5016 0.0
C6193 C 0.81512 0.83336 0.49453 0.0
C6194 C 0.82338 0.8232 0.50221 0.0
C6195 C 0.83039 0.81215 0.49195 0.0
C6196 C 0.84698 0.81445 0.4912 0.0
C6197 C 0.82668 0.79622 0.49629 0.0
C6198 C 0.8232 0.81646 0.47768 0.0
C6199 C 0.81479 0.82899 0.47932 0.0
C6200 C 0.80486 0.83339 0.46861 0.0
C6201 C 0.80338 0.82477 0.45605 0.0
C6202 C 0.81189 0.81199 0.45424 0.0
C6203 C 0.82223 0.80804 0.46491 0.0
H6204 H 0.68555 0.31766 0.52146 0.0
H6205 H 0.64864 0.28797 0.5222 0.0
H6206 H 0.64141 0.2965 0.49763 0.0
H6207 H 0.66781 0.34719 0.49667 0.0
H6208 H 0.68507 0.35015 0.48769 0.0
H6209 H 0.68455 0.34547 0.50688 0.0
H6210 H 0.70176 0.32343 0.50206 0.0
H6211 H 0.70241 0.32809 0.48306 0.0
H6212 H 0.69671 0.30998 0.48851 0.0
H6213 H 0.64145 0.30359 0.47175 0.0
H6214 H 0.65043 0.30576 0.44653 0.0
H6215 H 0.68775 0.33051 0.46189 0.0
C6216 C 0.67566 0.31333 0.51663 0.0
C6217 C 0.66765 0.3022 0.52366 0.0
C6218 C 0.65491 0.29658 0.51698 0.0
C6219 C 0.65062 0.30149 0.5031 0.0
C6220 C 0.65909 0.31215 0.49617 0.0
C6221 C 0.67134 0.31805 0.50277 0.0
C6222 C 0.6802 0.3271 0.49211 0.0
C6223 C 0.67935 0.34345 0.49607 0.0
C6224 C 0.69619 0.32181 0.49139 0.0
C6225 C 0.67198 0.32396 0.47809 0.0
C6226 C 0.65937 0.31603 0.48081 0.0
C6227 C 0.65108 0.31008 0.4695 0.0
C6228 C 0.65631 0.31134 0.45517 0.0
C6229 C 0.6699 0.31816 0.45235 0.0
C6230 C 0.67727 0.32539 0.46379 0.0
H6231 H 0.80458 0.14392 0.46631 0.0
H6232 H 0.84121 0.17036 0.45238 0.0
H6233 H 0.85288 0.16683 0.47637 0.0
H6234 H 0.79927 0.15964 0.4966 0.0
H6235 H 0.7944 0.14428 0.50803 0.0
H6236 H 0.79207 0.14305 0.48866 0.0
H6237 H 0.8082 0.11977 0.488 0.0
H6238 H 0.81057 0.12094 0.50757 0.0
H6239 H 0.82629 0.12019 0.49573 0.0
H6240 H 0.85638 0.16793 0.50272 0.0
H6241 H 0.85077 0.17435 0.52826 0.0
H6242 H 0.81193 0.14739 0.52642 0.0
C6243 C 0.81545 0.1482 0.46811 0.0
C6244 C 0.82205 0.15734 0.45757 0.0
C6245 C 0.83602 0.16327 0.46034 0.0
C6246 C 0.84278 0.1612 0.47393 0.0
C6247 C 0.83546 0.15314 0.48464 0.0
C6248 C 0.82215 0.14648 0.4818 0.0
C6249 C 0.81494 0.14139 0.49586 0.0
C6250 C 0.79927 0.14748 0.49736 0.0
C6251 C 0.81502 0.12457 0.49685 0.0
C6252 C 0.82524 0.14799 0.50704 0.0
C6253 C 0.83743 0.15399 0.50038 0.0
C6254 C 0.84716 0.16287 0.50812 0.0
C6255 C 0.84387 0.16652 0.52267 0.0
C6256 C 0.83084 0.16145 0.52923 0.0
C6257 C 0.82203 0.15129 0.52165 0.0
H6258 H 0.32956 0.29047 0.46678 0.0
H6259 H 0.32176 0.33517 0.45319 0.0
H6260 H 0.32563 0.34366 0.4785 0.0
H6261 H 0.30777 0.29161 0.49416 0.0
H6262 H 0.31751 0.28016 0.50694 0.0
H6263 H 0.32067 0.27813 0.48772 0.0
H6264 H 0.34828 0.28259 0.49153 0.0
H6265 H 0.34522 0.2845 0.51095 0.0
H6266 H 0.35439 0.29883 0.50095 0.0
H6267 H 0.32161 0.34627 0.50458 0.0
H6268 H 0.31049 0.34276 0.52892 0.0
H6269 H 0.32071 0.29648 0.52692 0.0
C6270 C 0.3296 0.3021 0.4691 0.0
C6271 C 0.32563 0.31224 0.45818 0.0
C6272 C 0.32499 0.32732 0.46149 0.0
C6273 C 0.32726 0.33222 0.47583 0.0
C6274 C 0.32999 0.32185 0.48673 0.0
C6275 C 0.33138 0.30705 0.48351 0.0
C6276 C 0.33074 0.29782 0.49731 0.0
C6277 C 0.31844 0.28628 0.49647 0.0
C6278 C 0.34555 0.29051 0.50036 0.0
C6279 C 0.32742 0.30958 0.50855 0.0
C6280 C 0.32753 0.32341 0.50232 0.0
C6281 C 0.32203 0.33561 0.50975 0.0
C6282 C 0.31565 0.33353 0.52354 0.0
C6283 C 0.31493 0.31939 0.52977 0.0
C6284 C 0.32157 0.30747 0.52254 0.0
H6285 H 0.67984 0.66508 0.46653 0.0
H6286 H 0.65524 0.70575 0.46427 0.0
H6287 H 0.65673 0.70819 0.49104 0.0
H6288 H 0.66392 0.65253 0.50201 0.0
H6289 H 0.68098 0.64473 0.508 0.0
H6290 H 0.67659 0.64524 0.48877 0.0
H6291 H 0.70077 0.65901 0.48364 0.0
H6292 H 0.70516 0.65871 0.50284 0.0
H6293 H 0.7045 0.67592 0.49315 0.0
H6294 H 0.66266 0.70761 0.51731 0.0
H6295 H 0.67188 0.70348 0.54225 0.0
H6296 H 0.69282 0.66322 0.52792 0.0
C6297 C 0.6745 0.67432 0.47172 0.0
C6298 C 0.66741 0.68521 0.46335 0.0
C6299 C 0.66068 0.69724 0.47048 0.0
C6300 C 0.66146 0.69873 0.48568 0.0
C6301 C 0.66886 0.68802 0.49358 0.0
C6302 C 0.67512 0.67595 0.48693 0.0
C6303 C 0.68303 0.66644 0.49798 0.0
C6304 C 0.67569 0.65134 0.49926 0.0
C6305 C 0.69933 0.66495 0.49417 0.0
C6306 C 0.68075 0.67543 0.51173 0.0
C6307 C 0.67236 0.68771 0.50893 0.0
C6308 C 0.66907 0.69794 0.51972 0.0
C6309 C 0.67439 0.6955 0.53384 0.0
C6310 C 0.68301 0.68299 0.537 0.0
C6311 C 0.68624 0.67284 0.52579 0.0
H6312 H 0.52254 0.17657 0.83085 0.0
H6313 H 0.52254 0.13677 0.80498 0.0
H6314 H 0.49674 0.13267 0.81146 0.0
H6315 H 0.49195 0.16579 0.85853 0.0
H6316 H 0.48503 0.18427 0.8577 0.0
H6317 H 0.50439 0.18093 0.85631 0.0
H6318 H 0.50496 0.19531 0.83186 0.0
H6319 H 0.48575 0.19852 0.83308 0.0
H6320 H 0.49318 0.18966 0.81708 0.0
H6321 H 0.47038 0.13688 0.81381 0.0
H6322 H 0.44647 0.14899 0.81147 0.0
H6323 H 0.46294 0.18655 0.83529 0.0
C6324 C 0.5173 0.1666 0.82715 0.0
C6325 C 0.52448 0.15701 0.81741 0.0
C6326 C 0.51725 0.14423 0.81254 0.0
C6327 C 0.50259 0.14179 0.81624 0.0
C6328 C 0.4954 0.15217 0.82488 0.0
C6329 C 0.50263 0.16426 0.83049 0.0
C6330 C 0.49205 0.17549 0.83654 0.0
C6331 C 0.49344 0.17668 0.85327 0.0
C6332 C 0.4941 0.19061 0.82919 0.0
C6333 C 0.47773 0.1685 0.83224 0.0
C6334 C 0.47984 0.1548 0.82606 0.0
C6335 C 0.46854 0.14736 0.81904 0.0
C6336 C 0.455 0.15437 0.81767 0.0
C6337 C 0.45296 0.16872 0.82316 0.0
C6338 C 0.46419 0.17548 0.83121 0.0
H6339 H 0.51754 0.80131 0.83888 0.0
H6340 H 0.53583 0.8368 0.81326 0.0
H6341 H 0.51118 0.84673 0.8092 0.0
H6342 H 0.4914 0.79303 0.81669 0.0
H6343 H 0.47718 0.7888 0.82966 0.0
H6344 H 0.49591 0.78729 0.83504 0.0
H6345 H 0.49156 0.80516 0.85663 0.0
H6346 H 0.47261 0.80654 0.85148 0.0
H6347 H 0.48351 0.82287 0.85323 0.0
H6348 H 0.48519 0.84862 0.80205 0.0
H6349 H 0.46014 0.84314 0.7938 0.0
H6350 H 0.45835 0.80649 0.82397 0.0
C6351 C 0.51639 0.81162 0.83313 0.0
C6352 C 0.52856 0.81829 0.82641 0.0
C6353 C 0.52665 0.83154 0.81857 0.0
C6354 C 0.51266 0.8373 0.81623 0.0
C6355 C 0.50072 0.8298 0.822 0.0
C6356 C 0.50246 0.81742 0.83062 0.0
C6357 C 0.48794 0.80998 0.83343 0.0
C6358 C 0.48813 0.79384 0.82839 0.0
C6359 C 0.48365 0.81122 0.84966 0.0
C6360 C 0.47804 0.81926 0.82394 0.0
C6361 C 0.48549 0.83092 0.8178 0.0
C6362 C 0.47911 0.83984 0.80715 0.0
C6363 C 0.4649 0.83659 0.80246 0.0
C6364 C 0.4573 0.82441 0.80829 0.0
C6365 C 0.46382 0.81599 0.81948 0.0
H6366 H 0.52257 0.81937 0.19263 0.0
H6367 H 0.5355 0.808 0.14837 0.0
H6368 H 0.50963 0.8087 0.14068 0.0
H6369 H 0.49366 0.79596 0.19374 0.0
H6370 H 0.48199 0.80734 0.20484 0.0
H6371 H 0.50146 0.80917 0.20614 0.0
H6372 H 0.4994 0.83684 0.20013 0.0
H6373 H 0.47985 0.8351 0.19888 0.0
H6374 H 0.49004 0.84262 0.18375 0.0
H6375 H 0.48257 0.80635 0.13889 0.0
H6376 H 0.45643 0.80115 0.14312 0.0
H6377 H 0.46119 0.81404 0.18857 0.0
C6378 C 0.52001 0.81757 0.1812 0.0
C6379 C 0.531 0.81381 0.17103 0.0
C6380 C 0.52721 0.811 0.15628 0.0
C6381 C 0.51257 0.81145 0.15182 0.0
C6382 C 0.50192 0.81468 0.16226 0.0
C6383 C 0.50547 0.81775 0.17666 0.0
C6384 C 0.49201 0.81878 0.18621 0.0
C6385 C 0.4923 0.80712 0.19844 0.0
C6386 C 0.49022 0.83426 0.19261 0.0
C6387 C 0.48032 0.81548 0.17501 0.0
C6388 C 0.48623 0.81328 0.16123 0.0
C6389 C 0.47777 0.8084 0.14952 0.0
C6390 C 0.46298 0.80541 0.15203 0.0
C6391 C 0.45685 0.80737 0.16612 0.0
C6392 C 0.46555 0.81282 0.17761 0.0
H6393 H 0.51539 0.18922 0.14572 0.0
H6394 H 0.52949 0.14556 0.15765 0.0
H6395 H 0.5041 0.13689 0.15636 0.0
H6396 H 0.48944 0.19124 0.16868 0.0
H6397 H 0.476 0.2012 0.15823 0.0
H6398 H 0.4949 0.20282 0.15363 0.0
H6399 H 0.48964 0.1945 0.12709 0.0
H6400 H 0.47051 0.19311 0.13152 0.0
H6401 H 0.47999 0.1776 0.12383 0.0
H6402 H 0.47828 0.13493 0.1622 0.0
H6403 H 0.4542 0.13958 0.17331 0.0
H6404 H 0.45587 0.18455 0.15812 0.0
C6405 C 0.51315 0.17765 0.14712 0.0
C6406 C 0.52429 0.16799 0.15164 0.0
C6407 C 0.52105 0.15306 0.15404 0.0
C6408 C 0.50665 0.14804 0.15327 0.0
C6409 C 0.49563 0.15811 0.1501 0.0
C6410 C 0.49872 0.17261 0.14674 0.0
C6411 C 0.48498 0.1819 0.14694 0.0
C6412 C 0.48643 0.19503 0.1575 0.0
C6413 C 0.48105 0.18707 0.13142 0.0
C6414 C 0.47406 0.17074 0.15247 0.0
C6415 C 0.48028 0.15697 0.15369 0.0
C6416 C 0.47311 0.14551 0.16081 0.0
C6417 C 0.4595 0.14827 0.16723 0.0
C6418 C 0.45322 0.16241 0.16652 0.0
C6419 C 0.46033 0.17356 0.15854 0.0
H6420 H 0.45813 0.32913 0.67938 0.0
H6421 H 0.45575 0.30274 0.63999 0.0
H6422 H 0.4821 0.30633 0.63601 0.0
H6423 H 0.49098 0.35354 0.6675 0.0
H6424 H 0.49787 0.35291 0.68598 0.0
H6425 H 0.47845 0.35304 0.68272 0.0
H6426 H 0.47599 0.32938 0.69815 0.0
H6427 H 0.49528 0.32891 0.70117 0.0
H6428 H 0.48632 0.31334 0.69303 0.0
H6429 H 0.50866 0.30646 0.64015 0.0
H6430 H 0.53293 0.30391 0.65141 0.0
H6431 H 0.51846 0.32956 0.68868 0.0
C6432 C 0.46303 0.32472 0.66953 0.0
C6433 C 0.45497 0.31563 0.66003 0.0
C6434 C 0.46174 0.30981 0.64738 0.0
C6435 C 0.47672 0.31185 0.64501 0.0
C6436 C 0.48466 0.31987 0.6553 0.0
C6437 C 0.47798 0.32649 0.66718 0.0
C6438 C 0.48909 0.33205 0.67813 0.0
C6439 C 0.4891 0.34888 0.6786 0.0
C6440 C 0.48651 0.32551 0.6935 0.0
C6441 C 0.50296 0.32626 0.67128 0.0
C6442 C 0.50025 0.31975 0.65786 0.0
C6443 C 0.511 0.31192 0.65041 0.0
C6444 C 0.52473 0.31042 0.65696 0.0
C6445 C 0.52753 0.31655 0.67093 0.0
C6446 C 0.51666 0.32495 0.67791 0.0
H6447 H 0.52059 0.66351 0.68503 0.0
H6448 H 0.52202 0.68401 0.64225 0.0
H6449 H 0.49754 0.6743 0.63677 0.0
H6450 H 0.49586 0.63086 0.67468 0.0
H6451 H 0.48652 0.63237 0.69199 0.0
H6452 H 0.50567 0.63671 0.69075 0.0
H6453 H 0.5006 0.66233 0.70186 0.0
H6454 H 0.48156 0.6581 0.70312 0.0
H6455 H 0.48739 0.67416 0.69322 0.0
H6456 H 0.47148 0.66857 0.63843 0.0
H6457 H 0.44608 0.66779 0.6473 0.0
H6458 H 0.46099 0.65045 0.68884 0.0
C6459 C 0.51599 0.66538 0.67427 0.0
C6460 C 0.52315 0.67443 0.66404 0.0
C6461 C 0.51669 0.67704 0.65022 0.0
C6462 C 0.50284 0.67146 0.64697 0.0
C6463 C 0.49566 0.6632 0.65762 0.0
C6464 C 0.50209 0.66002 0.67097 0.0
C6465 C 0.4912 0.65343 0.68155 0.0
C6466 C 0.49504 0.63739 0.68493 0.0
C6467 C 0.49012 0.66256 0.69575 0.0
C6468 C 0.4774 0.65449 0.6725 0.0
C6469 C 0.48028 0.65973 0.65856 0.0
C6470 C 0.4691 0.66399 0.6491 0.0
C6471 C 0.4547 0.66357 0.65423 0.0
C6472 C 0.45165 0.65892 0.66868 0.0
C6473 C 0.46304 0.65362 0.6776 0.0
H6474 H 0.46106 0.33973 0.29675 0.0
H6475 H 0.44664 0.31529 0.3347 0.0
H6476 H 0.47151 0.31574 0.34462 0.0
H6477 H 0.48809 0.32121 0.289 0.0
H6478 H 0.50127 0.33485 0.28365 0.0
H6479 H 0.48226 0.33904 0.28272 0.0
H6480 H 0.48579 0.36154 0.29954 0.0
H6481 H 0.50508 0.35766 0.30027 0.0
H6482 H 0.49476 0.35946 0.31698 0.0
H6483 H 0.49743 0.30961 0.345 0.0
H6484 H 0.52185 0.30094 0.33752 0.0
H6485 H 0.52048 0.32997 0.3 0.0
C6486 C 0.46302 0.33534 0.30758 0.0
C6487 C 0.45209 0.32728 0.31483 0.0
C6488 C 0.45495 0.32142 0.32889 0.0
C6489 C 0.46907 0.32169 0.33466 0.0
C6490 C 0.48013 0.32814 0.3264 0.0
C6491 C 0.47717 0.33544 0.31339 0.0
C6492 C 0.49112 0.33884 0.30514 0.0
C6493 C 0.49064 0.33312 0.28922 0.0
C6494 C 0.49438 0.35536 0.30552 0.0
C6495 C 0.50198 0.33045 0.31438 0.0
C6496 C 0.4956 0.32484 0.32691 0.0
C6497 C 0.50275 0.31446 0.3356 0.0
C6498 C 0.51656 0.30946 0.33119 0.0
C6499 C 0.52299 0.3148 0.31818 0.0
C6500 C 0.51586 0.32586 0.31011 0.0
H6501 H 0.45982 0.65237 0.31241 0.0
H6502 H 0.4565 0.6877 0.34393 0.0
H6503 H 0.48267 0.68508 0.34957 0.0
H6504 H 0.49154 0.63145 0.33221 0.0
H6505 H 0.49923 0.62677 0.31465 0.0
H6506 H 0.47969 0.6279 0.31686 0.0
H6507 H 0.47848 0.64644 0.29542 0.0
H6508 H 0.49787 0.64555 0.29326 0.0
H6509 H 0.48917 0.66301 0.29634 0.0
H6510 H 0.50947 0.68378 0.3464 0.0
H6511 H 0.534 0.68338 0.33536 0.0
H6512 H 0.52042 0.64861 0.30607 0.0
C6513 C 0.46447 0.65905 0.32101 0.0
C6514 C 0.45617 0.67023 0.3277 0.0
C6515 C 0.46263 0.67896 0.33874 0.0
C6516 C 0.47752 0.67752 0.34205 0.0
C6517 C 0.4857 0.66708 0.33445 0.0
C6518 C 0.47931 0.65771 0.3244 0.0
C6519 C 0.49072 0.64915 0.31596 0.0
C6520 C 0.49027 0.63285 0.32017 0.0
C6521 C 0.48895 0.65119 0.29928 0.0
C6522 C 0.5045 0.65634 0.32161 0.0
C6523 C 0.50143 0.66624 0.33268 0.0
C6524 C 0.51207 0.67572 0.3381 0.0
C6525 C 0.52598 0.67547 0.3317 0.0
C6526 C 0.5291 0.66591 0.31988 0.0
C6527 C 0.51841 0.6558 0.31528 0.0
loop_
_geom_bond_atom_site_label_1
_geom_bond_atom_site_label_2
_geom_bond_distance
_geom_bond_site_symmetry_2
_ccdc_geom_bond_type
C0 O1 1.306 . S
C0 O3 1.160 . S
O1 C0 1.306 . S
O1 Cd2 2.228 . S
Cd2 O1 2.228 . S
Cd2 O6 2.273 . S
Cd2 O10 2.277 . S
O3 C0 1.160 . S
O3 Cd4 2.203 . S
Cd4 O3 2.203 . S
Cd4 O6 2.411 . S
Cd4 O7 2.333 . S
Cd4 O8 2.352 . S
Cd4 O12 2.277 . S
Cd4 O13 2.356 . S
C5 O10 1.209 . S
C5 O12 1.226 . S
O6 Cd2 2.273 . S
O6 Cd4 2.411 . S
O6 C9 1.320 . S
O7 Cd4 2.333 . S
O7 C9 1.214 . S
O8 Cd4 2.352 . S
O8 C11 1.258 . S
C9 O6 1.320 . S
C9 O7 1.214 . S
O10 Cd2 2.277 . S
O10 C5 1.209 . S
C11 O8 1.258 . S
C11 O13 1.282 . S
O12 Cd4 2.277 . S
O12 C5 1.226 . S
O13 Cd4 2.356 . S
O13 C11 1.282 . S
C14 O15 1.306 . S
C14 O17 1.160 . S
O15 C14 1.306 . S
O15 Cd16 2.228 . S
Cd16 O15 2.228 . S
Cd16 O20 2.273 . S
Cd16 O24 2.277 . S
O17 C14 1.160 . S
O17 Cd18 2.203 . S
Cd18 O17 2.203 . S
Cd18 O20 2.411 . S
Cd18 O21 2.333 . S
Cd18 O22 2.352 . S
Cd18 O26 2.277 . S
Cd18 O27 2.356 . S
C19 O24 1.209 . S
C19 O26 1.226 . S
O20 Cd16 2.273 . S
O20 Cd18 2.411 . S
O20 C23 1.320 . S
O21 Cd18 2.333 . S
O21 C23 1.214 . S
O22 Cd18 2.352 . S
O22 C25 1.258 . S
C23 O20 1.320 . S
C23 O21 1.214 . S
O24 Cd16 2.277 . S
O24 C19 1.209 . S
C25 O22 1.258 . S
C25 O27 1.282 . S
O26 Cd18 2.277 . S
O26 C19 1.226 . S
O27 Cd18 2.356 . S
O27 C25 1.282 . S
C28 O29 1.306 . S
C28 O31 1.160 . S
O29 C28 1.306 . S
O29 Cd30 2.228 . S
Cd30 O29 2.228 . S
Cd30 O34 2.273 . S
Cd30 O38 2.277 . S
O31 C28 1.160 . S
O31 Cd32 2.203 . S
Cd32 O31 2.203 . S
Cd32 O34 2.411 . S
Cd32 O35 2.333 . S
Cd32 O36 2.352 . S
Cd32 O40 2.277 . S
Cd32 O41 2.356 . S
C33 O38 1.209 . S
C33 O40 1.226 . S
O34 Cd30 2.273 . S
O34 Cd32 2.411 . S
O34 C37 1.320 . S
O35 Cd32 2.333 . S
O35 C37 1.214 . S
O36 Cd32 2.352 . S
O36 C39 1.258 . S
C37 O34 1.320 . S
C37 O35 1.214 . S
O38 Cd30 2.277 . S
O38 C33 1.209 . S
C39 O36 1.258 . S
C39 O41 1.282 . S
O40 Cd32 2.277 . S
O40 C33 1.226 . S
O41 Cd32 2.356 . S
O41 C39 1.282 . S
C42 O43 1.306 . S
C42 O45 1.160 . S
O43 C42 1.306 . S
O43 Cd44 2.228 . S
Cd44 O43 2.228 . S
Cd44 O48 2.273 . S
Cd44 O52 2.277 . S
O45 C42 1.160 . S
O45 Cd46 2.203 . S
Cd46 O45 2.203 . S
Cd46 O48 2.411 . S
Cd46 O49 2.333 . S
Cd46 O50 2.352 . S
Cd46 O54 2.277 . S
Cd46 O55 2.356 . S
C47 O52 1.209 . S
C47 O54 1.226 . S
O48 Cd44 2.273 . S
O48 Cd46 2.411 . S
O48 C51 1.320 . S
O49 Cd46 2.333 . S
O49 C51 1.214 . S
O50 Cd46 2.352 . S
O50 C53 1.258 . S
C51 O48 1.320 . S
C51 O49 1.214 . S
O52 Cd44 2.277 . S
O52 C47 1.209 . S
C53 O50 1.258 . S
C53 O55 1.282 . S
O54 Cd46 2.277 . S
O54 C47 1.226 . S
O55 Cd46 2.356 . S
O55 C53 1.282 . S
C56 O57 1.306 . S
C56 O59 1.160 . S
O57 C56 1.306 . S
O57 Cd58 2.228 . S
Cd58 O57 2.228 . S
Cd58 O62 2.273 . S
Cd58 O66 2.277 . S
O59 C56 1.160 . S
O59 Cd60 2.203 . S
Cd60 O59 2.203 . S
Cd60 O62 2.411 . S
Cd60 O63 2.333 . S
Cd60 O64 2.352 . S
Cd60 O68 2.277 . S
Cd60 O69 2.356 . S
C61 O66 1.209 . S
C61 O68 1.226 . S
O62 Cd58 2.273 . S
O62 Cd60 2.411 . S
O62 C65 1.320 . S
O63 Cd60 2.333 . S
O63 C65 1.214 . S
O64 Cd60 2.352 . S
O64 C67 1.258 . S
C65 O62 1.320 . S
C65 O63 1.214 . S
O66 Cd58 2.277 . S
O66 C61 1.209 . S
C67 O64 1.258 . S
C67 O69 1.282 . S
O68 Cd60 2.277 . S
O68 C61 1.226 . S
O69 Cd60 2.356 . S
O69 C67 1.282 . S
C70 O71 1.306 . S
C70 O73 1.160 . S
O71 C70 1.306 . S
O71 Cd72 2.228 . S
Cd72 O71 2.228 . S
Cd72 O76 2.273 . S
Cd72 O80 2.277 . S
O73 C70 1.160 . S
O73 Cd74 2.203 . S
Cd74 O73 2.203 . S
Cd74 O76 2.411 . S
Cd74 O77 2.333 . S
Cd74 O78 2.352 . S
Cd74 O82 2.277 . S
Cd74 O83 2.356 . S
C75 O80 1.209 . S
C75 O82 1.226 . S
O76 Cd72 2.273 . S
O76 Cd74 2.411 . S
O76 C79 1.320 . S
O77 Cd74 2.333 . S
O77 C79 1.214 . S
O78 Cd74 2.352 . S
O78 C81 1.258 . S
C79 O76 1.320 . S
C79 O77 1.214 . S
O80 Cd72 2.277 . S
O80 C75 1.209 . S
C81 O78 1.258 . S
C81 O83 1.282 . S
O82 Cd74 2.277 . S
O82 C75 1.226 . S
O83 Cd74 2.356 . S
O83 C81 1.282 . S
C84 O85 1.306 . S
C84 O87 1.160 . S
O85 C84 1.306 . S
O85 Cd86 2.228 . S
Cd86 O85 2.228 . S
Cd86 O90 2.273 . S
Cd86 O94 2.277 . S
O87 C84 1.160 . S
O87 Cd88 2.203 . S
Cd88 O87 2.203 . S
Cd88 O90 2.411 . S
Cd88 O91 2.333 . S
Cd88 O92 2.352 . S
Cd88 O96 2.277 . S
Cd88 O97 2.356 . S
C89 O94 1.209 . S
C89 O96 1.226 . S
O90 Cd86 2.273 . S
O90 Cd88 2.411 . S
O90 C93 1.320 . S
O91 Cd88 2.333 . S
O91 C93 1.214 . S
O92 Cd88 2.352 . S
O92 C95 1.258 . S
C93 O90 1.320 . S
C93 O91 1.214 . S
O94 Cd86 2.277 . S
O94 C89 1.209 . S
C95 O92 1.258 . S
C95 O97 1.282 . S
O96 Cd88 2.277 . S
O96 C89 1.226 . S
O97 Cd88 2.356 . S
O97 C95 1.282 . S
C98 O99 1.306 . S
C98 O101 1.160 . S
O99 C98 1.306 . S
O99 Cd100 2.228 . S
Cd100 O99 2.228 . S
Cd100 O104 2.273 . S
Cd100 O108 2.277 . S
O101 C98 1.160 . S
O101 Cd102 2.203 . S
Cd102 O101 2.203 . S
Cd102 O104 2.411 . S
Cd102 O105 2.333 . S
Cd102 O106 2.352 . S
Cd102 O110 2.277 . S
Cd102 O111 2.356 . S
C103 O108 1.209 . S
C103 O110 1.226 . S
O104 Cd100 2.273 . S
O104 Cd102 2.411 . S
O104 C107 1.320 . S
O105 Cd102 2.333 . S
O105 C107 1.214 . S
O106 Cd102 2.352 . S
O106 C109 1.258 . S
C107 O104 1.320 . S
C107 O105 1.214 . S
O108 Cd100 2.277 . S
O108 C103 1.209 . S
C109 O106 1.258 . S
C109 O111 1.282 . S
O110 Cd102 2.277 . S
O110 C103 1.226 . S
O111 Cd102 2.356 . S
O111 C109 1.282 . S
C112 O113 1.306 . S
C112 O115 1.160 . S
O113 C112 1.306 . S
O113 Cd114 2.228 . S
Cd114 O113 2.228 . S
Cd114 O118 2.273 . S
Cd114 O122 2.277 . S
O115 C112 1.160 . S
O115 Cd116 2.203 . S
Cd116 O115 2.203 . S
Cd116 O118 2.411 . S
Cd116 O119 2.333 . S
Cd116 O120 2.352 . S
Cd116 O124 2.277 . S
Cd116 O125 2.356 . S
C117 O122 1.209 . S
C117 O124 1.226 . S
O118 Cd114 2.273 . S
O118 Cd116 2.411 . S
O118 C121 1.320 . S
O119 Cd116 2.333 . S
O119 C121 1.214 . S
O120 Cd116 2.352 . S
O120 C123 1.258 . S
C121 O118 1.320 . S
C121 O119 1.214 . S
O122 Cd114 2.277 . S
O122 C117 1.209 . S
C123 O120 1.258 . S
C123 O125 1.282 . S
O124 Cd116 2.277 . S
O124 C117 1.226 . S
O125 Cd116 2.356 . S
O125 C123 1.282 . S
C126 O127 1.306 . S
C126 O129 1.160 . S
O127 C126 1.306 . S
O127 Cd128 2.228 . S
Cd128 O127 2.228 . S
Cd128 O132 2.273 . S
Cd128 O136 2.277 . S
O129 C126 1.160 . S
O129 Cd130 2.203 . S
Cd130 O129 2.203 . S
Cd130 O132 2.411 . S
Cd130 O133 2.333 . S
Cd130 O134 2.352 . S
Cd130 O138 2.277 . S
Cd130 O139 2.356 . S
C131 O136 1.209 . S
C131 O138 1.226 . S
O132 Cd128 2.273 . S
O132 Cd130 2.411 . S
O132 C135 1.320 . S
O133 Cd130 2.333 . S
O133 C135 1.214 . S
O134 Cd130 2.352 . S
O134 C137 1.258 . S
C135 O132 1.320 . S
C135 O133 1.214 . S
O136 Cd128 2.277 . S
O136 C131 1.209 . S
C137 O134 1.258 . S
C137 O139 1.282 . S
O138 Cd130 2.277 . S
O138 C131 1.226 . S
O139 Cd130 2.356 . S
O139 C137 1.282 . S
C140 O141 1.306 . S
C140 O143 1.160 . S
O141 C140 1.306 . S
O141 Cd142 2.228 . S
Cd142 O141 2.228 . S
Cd142 O146 2.273 . S
Cd142 O150 2.277 . S
O143 C140 1.160 . S
O143 Cd144 2.203 . S
Cd144 O143 2.203 . S
Cd144 O146 2.411 . S
Cd144 O147 2.333 . S
Cd144 O148 2.352 . S
Cd144 O152 2.277 . S
Cd144 O153 2.356 . S
C145 O150 1.209 . S
C145 O152 1.226 . S
O146 Cd142 2.273 . S
O146 Cd144 2.411 . S
O146 C149 1.320 . S
O147 Cd144 2.333 . S
O147 C149 1.214 . S
O148 Cd144 2.352 . S
O148 C151 1.258 . S
C149 O146 1.320 . S
C149 O147 1.214 . S
O150 Cd142 2.277 . S
O150 C145 1.209 . S
C151 O148 1.258 . S
C151 O153 1.282 . S
O152 Cd144 2.277 . S
O152 C145 1.226 . S
O153 Cd144 2.356 . S
O153 C151 1.282 . S
C154 O155 1.306 . S
C154 O157 1.160 . S
O155 C154 1.306 . S
O155 Cd156 2.228 . S
Cd156 O155 2.228 . S
Cd156 O160 2.273 . S
Cd156 O164 2.277 . S
O157 C154 1.160 . S
O157 Cd158 2.203 . S
Cd158 O157 2.203 . S
Cd158 O160 2.411 . S
Cd158 O161 2.333 . S
Cd158 O162 2.352 . S
Cd158 O166 2.277 . S
Cd158 O167 2.356 . S
C159 O164 1.209 . S
C159 O166 1.226 . S
O160 Cd156 2.273 . S
O160 Cd158 2.411 . S
O160 C163 1.320 . S
O161 Cd158 2.333 . S
O161 C163 1.214 . S
O162 Cd158 2.352 . S
O162 C165 1.258 . S
C163 O160 1.320 . S
C163 O161 1.214 . S
O164 Cd156 2.277 . S
O164 C159 1.209 . S
C165 O162 1.258 . S
C165 O167 1.282 . S
O166 Cd158 2.277 . S
O166 C159 1.226 . S
O167 Cd158 2.356 . S
O167 C165 1.282 . S
C168 O169 1.306 . S
C168 O171 1.160 . S
O169 C168 1.306 . S
O169 Cd170 2.228 . S
Cd170 O169 2.228 . S
Cd170 O174 2.273 . S
Cd170 O178 2.277 . S
O171 C168 1.160 . S
O171 Cd172 2.203 . S
Cd172 O171 2.203 . S
Cd172 O174 2.411 . S
Cd172 O175 2.333 . S
Cd172 O176 2.352 . S
Cd172 O180 2.277 . S
Cd172 O181 2.356 . S
C173 O178 1.209 . S
C173 O180 1.226 . S
O174 Cd170 2.273 . S
O174 Cd172 2.411 . S
O174 C177 1.320 . S
O175 Cd172 2.333 . S
O175 C177 1.214 . S
O176 Cd172 2.352 . S
O176 C179 1.258 . S
C177 O174 1.320 . S
C177 O175 1.214 . S
O178 Cd170 2.277 . S
O178 C173 1.209 . S
C179 O176 1.258 . S
C179 O181 1.282 . S
O180 Cd172 2.277 . S
O180 C173 1.226 . S
O181 Cd172 2.356 . S
O181 C179 1.282 . S
C182 O183 1.306 . S
C182 O185 1.160 . S
O183 C182 1.306 . S
O183 Cd184 2.228 . S
Cd184 O183 2.228 . S
Cd184 O188 2.273 . S
Cd184 O192 2.277 . S
O185 C182 1.160 . S
O185 Cd186 2.203 . S
Cd186 O185 2.203 . S
Cd186 O188 2.411 . S
Cd186 O189 2.333 . S
Cd186 O190 2.352 . S
Cd186 O194 2.277 . S
Cd186 O195 2.356 . S
C187 O192 1.209 . S
C187 O194 1.226 . S
O188 Cd184 2.273 . S
O188 Cd186 2.411 . S
O188 C191 1.320 . S
O189 Cd186 2.333 . S
O189 C191 1.214 . S
O190 Cd186 2.352 . S
O190 C193 1.258 . S
C191 O188 1.320 . S
C191 O189 1.214 . S
O192 Cd184 2.277 . S
O192 C187 1.209 . S
C193 O190 1.258 . S
C193 O195 1.282 . S
O194 Cd186 2.277 . S
O194 C187 1.226 . S
O195 Cd186 2.356 . S
O195 C193 1.282 . S
C196 O197 1.306 . S
C196 O199 1.160 . S
O197 C196 1.306 . S
O197 Cd198 2.228 . S
Cd198 O197 2.228 . S
Cd198 O202 2.273 . S
Cd198 O206 2.277 . S
O199 C196 1.160 . S
O199 Cd200 2.203 . S
Cd200 O199 2.203 . S
Cd200 O202 2.411 . S
Cd200 O203 2.333 . S
Cd200 O204 2.352 . S
Cd200 O208 2.277 . S
Cd200 O209 2.356 . S
C201 O206 1.209 . S
C201 O208 1.226 . S
O202 Cd198 2.273 . S
O202 Cd200 2.411 . S
O202 C205 1.320 . S
O203 Cd200 2.333 . S
O203 C205 1.214 . S
O204 Cd200 2.352 . S
O204 C207 1.258 . S
C205 O202 1.320 . S
C205 O203 1.214 . S
O206 Cd198 2.277 . S
O206 C201 1.209 . S
C207 O204 1.258 . S
C207 O209 1.282 . S
O208 Cd200 2.277 . S
O208 C201 1.226 . S
O209 Cd200 2.356 . S
O209 C207 1.282 . S
C210 O211 1.306 . S
C210 O213 1.160 . S
O211 C210 1.306 . S
O211 Cd212 2.228 . S
Cd212 O211 2.228 . S
Cd212 O216 2.273 . S
Cd212 O220 2.277 . S
O213 C210 1.160 . S
O213 Cd214 2.203 . S
Cd214 O213 2.203 . S
Cd214 O216 2.411 . S
Cd214 O217 2.333 . S
Cd214 O218 2.352 . S
Cd214 O222 2.277 . S
Cd214 O223 2.356 . S
C215 O220 1.209 . S
C215 O222 1.226 . S
O216 Cd212 2.273 . S
O216 Cd214 2.411 . S
O216 C219 1.320 . S
O217 Cd214 2.333 . S
O217 C219 1.214 . S
O218 Cd214 2.352 . S
O218 C221 1.258 . S
C219 O216 1.320 . S
C219 O217 1.214 . S
O220 Cd212 2.277 . S
O220 C215 1.209 . S
C221 O218 1.258 . S
C221 O223 1.282 . S
O222 Cd214 2.277 . S
O222 C215 1.226 . S
O223 Cd214 2.356 . S
O223 C221 1.282 . S
C224 O225 1.306 . S
C224 O227 1.160 . S
O225 C224 1.306 . S
O225 Cd226 2.228 . S
Cd226 O225 2.228 . S
Cd226 O230 2.273 . S
Cd226 O234 2.277 . S
O227 C224 1.160 . S
O227 Cd228 2.203 . S
Cd228 O227 2.203 . S
Cd228 O230 2.411 . S
Cd228 O231 2.333 . S
Cd228 O232 2.352 . S
Cd228 O236 2.277 . S
Cd228 O237 2.356 . S
C229 O234 1.209 . S
C229 O236 1.226 . S
O230 Cd226 2.273 . S
O230 Cd228 2.411 . S
O230 C233 1.320 . S
O231 Cd228 2.333 . S
O231 C233 1.214 . S
O232 Cd228 2.352 . S
O232 C235 1.258 . S
C233 O230 1.320 . S
C233 O231 1.214 . S
O234 Cd226 2.277 . S
O234 C229 1.209 . S
C235 O232 1.258 . S
C235 O237 1.282 . S
O236 Cd228 2.277 . S
O236 C229 1.226 . S
O237 Cd228 2.356 . S
O237 C235 1.282 . S
C238 O239 1.306 . S
C238 O241 1.160 . S
O239 C238 1.306 . S
O239 Cd240 2.228 . S
Cd240 O239 2.228 . S
Cd240 O244 2.273 . S
Cd240 O248 2.277 . S
O241 C238 1.160 . S
O241 Cd242 2.203 . S
Cd242 O241 2.203 . S
Cd242 O244 2.411 . S
Cd242 O245 2.333 . S
Cd242 O246 2.352 . S
Cd242 O250 2.277 . S
Cd242 O251 2.356 . S
C243 O248 1.209 . S
C243 O250 1.226 . S
O244 Cd240 2.273 . S
O244 Cd242 2.411 . S
O244 C247 1.320 . S
O245 Cd242 2.333 . S
O245 C247 1.214 . S
O246 Cd242 2.352 . S
O246 C249 1.258 . S
C247 O244 1.320 . S
C247 O245 1.214 . S
O248 Cd240 2.277 . S
O248 C243 1.209 . S
C249 O246 1.258 . S
C249 O251 1.282 . S
O250 Cd242 2.277 . S
O250 C243 1.226 . S
O251 Cd242 2.356 . S
O251 C249 1.282 . S
C252 O253 1.306 . S
C252 O255 1.160 . S
O253 C252 1.306 . S
O253 Cd254 2.228 . S
Cd254 O253 2.228 . S
Cd254 O258 2.273 . S
Cd254 O262 2.277 . S
O255 C252 1.160 . S
O255 Cd256 2.203 . S
Cd256 O255 2.203 . S
Cd256 O258 2.411 . S
Cd256 O259 2.333 . S
Cd256 O260 2.352 . S
Cd256 O264 2.277 . S
Cd256 O265 2.356 . S
C257 O262 1.209 . S
C257 O264 1.226 . S
O258 Cd254 2.273 . S
O258 Cd256 2.411 . S
O258 C261 1.320 . S
O259 Cd256 2.333 . S
O259 C261 1.214 . S
O260 Cd256 2.352 . S
O260 C263 1.258 . S
C261 O258 1.320 . S
C261 O259 1.214 . S
O262 Cd254 2.277 . S
O262 C257 1.209 . S
C263 O260 1.258 . S
C263 O265 1.282 . S
O264 Cd256 2.277 . S
O264 C257 1.226 . S
O265 Cd256 2.356 . S
O265 C263 1.282 . S
C266 O267 1.306 . S
C266 O269 1.160 . S
O267 C266 1.306 . S
O267 Cd268 2.228 . S
Cd268 O267 2.228 . S
Cd268 O272 2.273 . S
Cd268 O276 2.277 . S
O269 C266 1.160 . S
O269 Cd270 2.203 . S
Cd270 O269 2.203 . S
Cd270 O272 2.411 . S
Cd270 O273 2.333 . S
Cd270 O274 2.352 . S
Cd270 O278 2.277 . S
Cd270 O279 2.356 . S
C271 O276 1.209 . S
C271 O278 1.226 . S
O272 Cd268 2.273 . S
O272 Cd270 2.411 . S
O272 C275 1.320 . S
O273 Cd270 2.333 . S
O273 C275 1.214 . S
O274 Cd270 2.352 . S
O274 C277 1.258 . S
C275 O272 1.320 . S
C275 O273 1.214 . S
O276 Cd268 2.277 . S
O276 C271 1.209 . S
C277 O274 1.258 . S
C277 O279 1.282 . S
O278 Cd270 2.277 . S
O278 C271 1.226 . S
O279 Cd270 2.356 . S
O279 C277 1.282 . S
C280 O281 1.306 . S
C280 O283 1.160 . S
O281 C280 1.306 . S
O281 Cd282 2.228 . S
Cd282 O281 2.228 . S
Cd282 O286 2.273 . S
Cd282 O290 2.277 . S
O283 C280 1.160 . S
O283 Cd284 2.203 . S
Cd284 O283 2.203 . S
Cd284 O286 2.411 . S
Cd284 O287 2.333 . S
Cd284 O288 2.352 . S
Cd284 O292 2.277 . S
Cd284 O293 2.356 . S
C285 O290 1.209 . S
C285 O292 1.226 . S
O286 Cd282 2.273 . S
O286 Cd284 2.411 . S
O286 C289 1.320 . S
O287 Cd284 2.333 . S
O287 C289 1.214 . S
O288 Cd284 2.352 . S
O288 C291 1.258 . S
C289 O286 1.320 . S
C289 O287 1.214 . S
O290 Cd282 2.277 . S
O290 C285 1.209 . S
C291 O288 1.258 . S
C291 O293 1.282 . S
O292 Cd284 2.277 . S
O292 C285 1.226 . S
O293 Cd284 2.356 . S
O293 C291 1.282 . S
C294 O295 1.306 . S
C294 O297 1.160 . S
O295 C294 1.306 . S
O295 Cd296 2.228 . S
Cd296 O295 2.228 . S
Cd296 O300 2.273 . S
Cd296 O304 2.277 . S
O297 C294 1.160 . S
O297 Cd298 2.203 . S
Cd298 O297 2.203 . S
Cd298 O300 2.411 . S
Cd298 O301 2.333 . S
Cd298 O302 2.352 . S
Cd298 O306 2.277 . S
Cd298 O307 2.356 . S
C299 O304 1.209 . S
C299 O306 1.226 . S
O300 Cd296 2.273 . S
O300 Cd298 2.411 . S
O300 C303 1.320 . S
O301 Cd298 2.333 . S
O301 C303 1.214 . S
O302 Cd298 2.352 . S
O302 C305 1.258 . S
C303 O300 1.320 . S
C303 O301 1.214 . S
O304 Cd296 2.277 . S
O304 C299 1.209 . S
C305 O302 1.258 . S
C305 O307 1.282 . S
O306 Cd298 2.277 . S
O306 C299 1.226 . S
O307 Cd298 2.356 . S
O307 C305 1.282 . S
C308 O309 1.306 . S
C308 O311 1.160 . S
O309 C308 1.306 . S
O309 Cd310 2.228 . S
Cd310 O309 2.228 . S
Cd310 O314 2.273 . S
Cd310 O318 2.277 . S
O311 C308 1.160 . S
O311 Cd312 2.203 . S
Cd312 O311 2.203 . S
Cd312 O314 2.411 . S
Cd312 O315 2.333 . S
Cd312 O316 2.352 . S
Cd312 O320 2.277 . S
Cd312 O321 2.356 . S
C313 O318 1.209 . S
C313 O320 1.226 . S
O314 Cd310 2.273 . S
O314 Cd312 2.411 . S
O314 C317 1.320 . S
O315 Cd312 2.333 . S
O315 C317 1.214 . S
O316 Cd312 2.352 . S
O316 C319 1.258 . S
C317 O314 1.320 . S
C317 O315 1.214 . S
O318 Cd310 2.277 . S
O318 C313 1.209 . S
C319 O316 1.258 . S
C319 O321 1.282 . S
O320 Cd312 2.277 . S
O320 C313 1.226 . S
O321 Cd312 2.356 . S
O321 C319 1.282 . S
C322 O323 1.306 . S
C322 O325 1.160 . S
O323 C322 1.306 . S
O323 Cd324 2.228 . S
Cd324 O323 2.228 . S
Cd324 O328 2.273 . S
Cd324 O332 2.277 . S
O325 C322 1.160 . S
O325 Cd326 2.203 . S
Cd326 O325 2.203 . S
Cd326 O328 2.411 . S
Cd326 O329 2.333 . S
Cd326 O330 2.352 . S
Cd326 O334 2.277 . S
Cd326 O335 2.356 . S
C327 O332 1.209 . S
C327 O334 1.226 . S
O328 Cd324 2.273 . S
O328 Cd326 2.411 . S
O328 C331 1.320 . S
O329 Cd326 2.333 . S
O329 C331 1.214 . S
O330 Cd326 2.352 . S
O330 C333 1.258 . S
C331 O328 1.320 . S
C331 O329 1.214 . S
O332 Cd324 2.277 . S
O332 C327 1.209 . S
C333 O330 1.258 . S
C333 O335 1.282 . S
O334 Cd326 2.277 . S
O334 C327 1.226 . S
O335 Cd326 2.356 . S
O335 C333 1.282 . S
C336 O337 1.306 . S
C336 O339 1.160 . S
O337 C336 1.306 . S
O337 Cd338 2.228 . S
Cd338 O337 2.228 . S
Cd338 O342 2.273 . S
Cd338 O346 2.277 . S
O339 C336 1.160 . S
O339 Cd340 2.203 . S
Cd340 O339 2.203 . S
Cd340 O342 2.411 . S
Cd340 O343 2.333 . S
Cd340 O344 2.352 . S
Cd340 O348 2.277 . S
Cd340 O349 2.356 . S
C341 O346 1.209 . S
C341 O348 1.226 . S
O342 Cd338 2.273 . S
O342 Cd340 2.411 . S
O342 C345 1.320 . S
O343 Cd340 2.333 . S
O343 C345 1.214 . S
O344 Cd340 2.352 . S
O344 C347 1.258 . S
C345 O342 1.320 . S
C345 O343 1.214 . S
O346 Cd338 2.277 . S
O346 C341 1.209 . S
C347 O344 1.258 . S
C347 O349 1.282 . S
O348 Cd340 2.277 . S
O348 C341 1.226 . S
O349 Cd340 2.356 . S
O349 C347 1.282 . S
C350 O351 1.306 . S
C350 O353 1.160 . S
O351 C350 1.306 . S
O351 Cd352 2.228 . S
Cd352 O351 2.228 . S
Cd352 O356 2.273 . S
Cd352 O360 2.277 . S
O353 C350 1.160 . S
O353 Cd354 2.203 . S
Cd354 O353 2.203 . S
Cd354 O356 2.411 . S
Cd354 O357 2.333 . S
Cd354 O358 2.352 . S
Cd354 O362 2.277 . S
Cd354 O363 2.356 . S
C355 O360 1.209 . S
C355 O362 1.226 . S
O356 Cd352 2.273 . S
O356 Cd354 2.411 . S
O356 C359 1.320 . S
O357 Cd354 2.333 . S
O357 C359 1.214 . S
O358 Cd354 2.352 . S
O358 C361 1.258 . S
C359 O356 1.320 . S
C359 O357 1.214 . S
O360 Cd352 2.277 . S
O360 C355 1.209 . S
C361 O358 1.258 . S
C361 O363 1.282 . S
O362 Cd354 2.277 . S
O362 C355 1.226 . S
O363 Cd354 2.356 . S
O363 C361 1.282 . S
C364 O365 1.306 . S
C364 O367 1.160 . S
O365 C364 1.306 . S
O365 Cd366 2.228 . S
Cd366 O365 2.228 . S
Cd366 O370 2.273 . S
Cd366 O374 2.277 . S
O367 C364 1.160 . S
O367 Cd368 2.203 . S
Cd368 O367 2.203 . S
Cd368 O370 2.411 . S
Cd368 O371 2.333 . S
Cd368 O372 2.352 . S
Cd368 O376 2.277 . S
Cd368 O377 2.356 . S
C369 O374 1.209 . S
C369 O376 1.226 . S
O370 Cd366 2.273 . S
O370 Cd368 2.411 . S
O370 C373 1.320 . S
O371 Cd368 2.333 . S
O371 C373 1.214 . S
O372 Cd368 2.352 . S
O372 C375 1.258 . S
C373 O370 1.320 . S
C373 O371 1.214 . S
O374 Cd366 2.277 . S
O374 C369 1.209 . S
C375 O372 1.258 . S
C375 O377 1.282 . S
O376 Cd368 2.277 . S
O376 C369 1.226 . S
O377 Cd368 2.356 . S
O377 C375 1.282 . S
C378 O379 1.306 . S
C378 O381 1.160 . S
O379 C378 1.306 . S
O379 Cd380 2.228 . S
Cd380 O379 2.228 . S
Cd380 O384 2.273 . S
Cd380 O388 2.277 . S
O381 C378 1.160 . S
O381 Cd382 2.203 . S
Cd382 O381 2.203 . S
Cd382 O384 2.411 . S
Cd382 O385 2.333 . S
Cd382 O386 2.352 . S
Cd382 O390 2.277 . S
Cd382 O391 2.356 . S
C383 O388 1.209 . S
C383 O390 1.226 . S
O384 Cd380 2.273 . S
O384 Cd382 2.411 . S
O384 C387 1.320 . S
O385 Cd382 2.333 . S
O385 C387 1.214 . S
O386 Cd382 2.352 . S
O386 C389 1.258 . S
C387 O384 1.320 . S
C387 O385 1.214 . S
O388 Cd380 2.277 . S
O388 C383 1.209 . S
C389 O386 1.258 . S
C389 O391 1.282 . S
O390 Cd382 2.277 . S
O390 C383 1.226 . S
O391 Cd382 2.356 . S
O391 C389 1.282 . S
C392 O393 1.306 . S
C392 O395 1.160 . S
O393 C392 1.306 . S
O393 Cd394 2.228 . S
Cd394 O393 2.228 . S
Cd394 O398 2.273 . S
Cd394 O402 2.277 . S
O395 C392 1.160 . S
O395 Cd396 2.203 . S
Cd396 O395 2.203 . S
Cd396 O398 2.411 . S
Cd396 O399 2.333 . S
Cd396 O400 2.352 . S
Cd396 O404 2.277 . S
Cd396 O405 2.356 . S
C397 O402 1.209 . S
C397 O404 1.226 . S
O398 Cd394 2.273 . S
O398 Cd396 2.411 . S
O398 C401 1.320 . S
O399 Cd396 2.333 . S
O399 C401 1.214 . S
O400 Cd396 2.352 . S
O400 C403 1.258 . S
C401 O398 1.320 . S
C401 O399 1.214 . S
O402 Cd394 2.277 . S
O402 C397 1.209 . S
C403 O400 1.258 . S
C403 O405 1.282 . S
O404 Cd396 2.277 . S
O404 C397 1.226 . S
O405 Cd396 2.356 . S
O405 C403 1.282 . S
C406 O407 1.306 . S
C406 O409 1.160 . S
O407 C406 1.306 . S
O407 Cd408 2.228 . S
Cd408 O407 2.228 . S
Cd408 O412 2.273 . S
Cd408 O416 2.277 . S
O409 C406 1.160 . S
O409 Cd410 2.203 . S
Cd410 O409 2.203 . S
Cd410 O412 2.411 . S
Cd410 O413 2.333 . S
Cd410 O414 2.352 . S
Cd410 O418 2.277 . S
Cd410 O419 2.356 . S
C411 O416 1.209 . S
C411 O418 1.226 . S
O412 Cd408 2.273 . S
O412 Cd410 2.411 . S
O412 C415 1.320 . S
O413 Cd410 2.333 . S
O413 C415 1.214 . S
O414 Cd410 2.352 . S
O414 C417 1.258 . S
C415 O412 1.320 . S
C415 O413 1.214 . S
O416 Cd408 2.277 . S
O416 C411 1.209 . S
C417 O414 1.258 . S
C417 O419 1.282 . S
O418 Cd410 2.277 . S
O418 C411 1.226 . S
O419 Cd410 2.356 . S
O419 C417 1.282 . S
C420 O421 1.306 . S
C420 O423 1.160 . S
O421 C420 1.306 . S
O421 Cd422 2.228 . S
Cd422 O421 2.228 . S
Cd422 O426 2.273 . S
Cd422 O430 2.277 . S
O423 C420 1.160 . S
O423 Cd424 2.203 . S
Cd424 O423 2.203 . S
Cd424 O426 2.411 . S
Cd424 O427 2.333 . S
Cd424 O428 2.352 . S
Cd424 O432 2.277 . S
Cd424 O433 2.356 . S
C425 O430 1.209 . S
C425 O432 1.226 . S
O426 Cd422 2.273 . S
O426 Cd424 2.411 . S
O426 C429 1.320 . S
O427 Cd424 2.333 . S
O427 C429 1.214 . S
O428 Cd424 2.352 . S
O428 C431 1.258 . S
C429 O426 1.320 . S
C429 O427 1.214 . S
O430 Cd422 2.277 . S
O430 C425 1.209 . S
C431 O428 1.258 . S
C431 O433 1.282 . S
O432 Cd424 2.277 . S
O432 C425 1.226 . S
O433 Cd424 2.356 . S
O433 C431 1.282 . S
C434 O435 1.306 . S
C434 O437 1.160 . S
O435 C434 1.306 . S
O435 Cd436 2.228 . S
Cd436 O435 2.228 . S
Cd436 O440 2.273 . S
Cd436 O444 2.277 . S
O437 C434 1.160 . S
O437 Cd438 2.203 . S
Cd438 O437 2.203 . S
Cd438 O440 2.411 . S
Cd438 O441 2.333 . S
Cd438 O442 2.352 . S
Cd438 O446 2.277 . S
Cd438 O447 2.356 . S
C439 O444 1.209 . S
C439 O446 1.226 . S
O440 Cd436 2.273 . S
O440 Cd438 2.411 . S
O440 C443 1.320 . S
O441 Cd438 2.333 . S
O441 C443 1.214 . S
O442 Cd438 2.352 . S
O442 C445 1.258 . S
C443 O440 1.320 . S
C443 O441 1.214 . S
O444 Cd436 2.277 . S
O444 C439 1.209 . S
C445 O442 1.258 . S
C445 O447 1.282 . S
O446 Cd438 2.277 . S
O446 C439 1.226 . S
O447 Cd438 2.356 . S
O447 C445 1.282 . S
C448 O449 1.306 . S
C448 O451 1.160 . S
O449 C448 1.306 . S
O449 Cd450 2.228 . S
Cd450 O449 2.228 . S
Cd450 O454 2.273 . S
Cd450 O458 2.277 . S
O451 C448 1.160 . S
O451 Cd452 2.203 . S
Cd452 O451 2.203 . S
Cd452 O454 2.411 . S
Cd452 O455 2.333 . S
Cd452 O456 2.352 . S
Cd452 O460 2.277 . S
Cd452 O461 2.356 . S
C453 O458 1.209 . S
C453 O460 1.226 . S
O454 Cd450 2.273 . S
O454 Cd452 2.411 . S
O454 C457 1.320 . S
O455 Cd452 2.333 . S
O455 C457 1.214 . S
O456 Cd452 2.352 . S
O456 C459 1.258 . S
C457 O454 1.320 . S
C457 O455 1.214 . S
O458 Cd450 2.277 . S
O458 C453 1.209 . S
C459 O456 1.258 . S
C459 O461 1.282 . S
O460 Cd452 2.277 . S
O460 C453 1.226 . S
O461 Cd452 2.356 . S
O461 C459 1.282 . S
C462 O463 1.306 . S
C462 O465 1.160 . S
O463 C462 1.306 . S
O463 Cd464 2.228 . S
Cd464 O463 2.228 . S
Cd464 O468 2.273 . S
Cd464 O472 2.277 . S
O465 C462 1.160 . S
O465 Cd466 2.203 . S
Cd466 O465 2.203 . S
Cd466 O468 2.411 . S
Cd466 O469 2.333 . S
Cd466 O470 2.352 . S
Cd466 O474 2.277 . S
Cd466 O475 2.356 . S
C467 O472 1.209 . S
C467 O474 1.226 . S
O468 Cd464 2.273 . S
O468 Cd466 2.411 . S
O468 C471 1.320 . S
O469 Cd466 2.333 . S
O469 C471 1.214 . S
O470 Cd466 2.352 . S
O470 C473 1.258 . S
C471 O468 1.320 . S
C471 O469 1.214 . S
O472 Cd464 2.277 . S
O472 C467 1.209 . S
C473 O470 1.258 . S
C473 O475 1.282 . S
O474 Cd466 2.277 . S
O474 C467 1.226 . S
O475 Cd466 2.356 . S
O475 C473 1.282 . S
C476 O477 1.306 . S
C476 O479 1.160 . S
O477 C476 1.306 . S
O477 Cd478 2.228 . S
Cd478 O477 2.228 . S
Cd478 O482 2.273 . S
Cd478 O486 2.277 . S
O479 C476 1.160 . S
O479 Cd480 2.203 . S
Cd480 O479 2.203 . S
Cd480 O482 2.411 . S
Cd480 O483 2.333 . S
Cd480 O484 2.352 . S
Cd480 O488 2.277 . S
Cd480 O489 2.356 . S
C481 O486 1.209 . S
C481 O488 1.226 . S
O482 Cd478 2.273 . S
O482 Cd480 2.411 . S
O482 C485 1.320 . S
O483 Cd480 2.333 . S
O483 C485 1.214 . S
O484 Cd480 2.352 . S
O484 C487 1.258 . S
C485 O482 1.320 . S
C485 O483 1.214 . S
O486 Cd478 2.277 . S
O486 C481 1.209 . S
C487 O484 1.258 . S
C487 O489 1.282 . S
O488 Cd480 2.277 . S
O488 C481 1.226 . S
O489 Cd480 2.356 . S
O489 C487 1.282 . S
C490 O491 1.306 . S
C490 O493 1.160 . S
O491 C490 1.306 . S
O491 Cd492 2.228 . S
Cd492 O491 2.228 . S
Cd492 O496 2.273 . S
Cd492 O500 2.277 . S
O493 C490 1.160 . S
O493 Cd494 2.203 . S
Cd494 O493 2.203 . S
Cd494 O496 2.411 . S
Cd494 O497 2.333 . S
Cd494 O498 2.352 . S
Cd494 O502 2.277 . S
Cd494 O503 2.356 . S
C495 O500 1.209 . S
C495 O502 1.226 . S
O496 Cd492 2.273 . S
O496 Cd494 2.411 . S
O496 C499 1.320 . S
O497 Cd494 2.333 . S
O497 C499 1.214 . S
O498 Cd494 2.352 . S
O498 C501 1.258 . S
C499 O496 1.320 . S
C499 O497 1.214 . S
O500 Cd492 2.277 . S
O500 C495 1.209 . S
C501 O498 1.258 . S
C501 O503 1.282 . S
O502 Cd494 2.277 . S
O502 C495 1.226 . S
O503 Cd494 2.356 . S
O503 C501 1.282 . S
C504 O505 1.306 . S
C504 O507 1.160 . S
O505 C504 1.306 . S
O505 Cd506 2.228 . S
Cd506 O505 2.228 . S
Cd506 O510 2.273 . S
Cd506 O514 2.277 . S
O507 C504 1.160 . S
O507 Cd508 2.203 . S
Cd508 O507 2.203 . S
Cd508 O510 2.411 . S
Cd508 O511 2.333 . S
Cd508 O512 2.352 . S
Cd508 O516 2.277 . S
Cd508 O517 2.356 . S
C509 O514 1.209 . S
C509 O516 1.226 . S
O510 Cd506 2.273 . S
O510 Cd508 2.411 . S
O510 C513 1.320 . S
O511 Cd508 2.333 . S
O511 C513 1.214 . S
O512 Cd508 2.352 . S
O512 C515 1.258 . S
C513 O510 1.320 . S
C513 O511 1.214 . S
O514 Cd506 2.277 . S
O514 C509 1.209 . S
C515 O512 1.258 . S
C515 O517 1.282 . S
O516 Cd508 2.277 . S
O516 C509 1.226 . S
O517 Cd508 2.356 . S
O517 C515 1.282 . S
C518 O519 1.306 . S
C518 O521 1.160 . S
O519 C518 1.306 . S
O519 Cd520 2.228 . S
Cd520 O519 2.228 . S
Cd520 O524 2.273 . S
Cd520 O528 2.277 . S
O521 C518 1.160 . S
O521 Cd522 2.203 . S
Cd522 O521 2.203 . S
Cd522 O524 2.411 . S
Cd522 O525 2.333 . S
Cd522 O526 2.352 . S
Cd522 O530 2.277 . S
Cd522 O531 2.356 . S
C523 O528 1.209 . S
C523 O530 1.226 . S
O524 Cd520 2.273 . S
O524 Cd522 2.411 . S
O524 C527 1.320 . S
O525 Cd522 2.333 . S
O525 C527 1.214 . S
O526 Cd522 2.352 . S
O526 C529 1.258 . S
C527 O524 1.320 . S
C527 O525 1.214 . S
O528 Cd520 2.277 . S
O528 C523 1.209 . S
C529 O526 1.258 . S
C529 O531 1.282 . S
O530 Cd522 2.277 . S
O530 C523 1.226 . S
O531 Cd522 2.356 . S
O531 C529 1.282 . S
C532 O533 1.306 . S
C532 O535 1.160 . S
O533 C532 1.306 . S
O533 Cd534 2.228 . S
Cd534 O533 2.228 . S
Cd534 O538 2.273 . S
Cd534 O542 2.277 . S
O535 C532 1.160 . S
O535 Cd536 2.203 . S
Cd536 O535 2.203 . S
Cd536 O538 2.411 . S
Cd536 O539 2.333 . S
Cd536 O540 2.352 . S
Cd536 O544 2.277 . S
Cd536 O545 2.356 . S
C537 O542 1.209 . S
C537 O544 1.226 . S
O538 Cd534 2.273 . S
O538 Cd536 2.411 . S
O538 C541 1.320 . S
O539 Cd536 2.333 . S
O539 C541 1.214 . S
O540 Cd536 2.352 . S
O540 C543 1.258 . S
C541 O538 1.320 . S
C541 O539 1.214 . S
O542 Cd534 2.277 . S
O542 C537 1.209 . S
C543 O540 1.258 . S
C543 O545 1.282 . S
O544 Cd536 2.277 . S
O544 C537 1.226 . S
O545 Cd536 2.356 . S
O545 C543 1.282 . S
C546 O547 1.306 . S
C546 O549 1.160 . S
O547 C546 1.306 . S
O547 Cd548 2.228 . S
Cd548 O547 2.228 . S
Cd548 O552 2.273 . S
Cd548 O556 2.277 . S
O549 C546 1.160 . S
O549 Cd550 2.203 . S
Cd550 O549 2.203 . S
Cd550 O552 2.411 . S
Cd550 O553 2.333 . S
Cd550 O554 2.352 . S
Cd550 O558 2.277 . S
Cd550 O559 2.356 . S
C551 O556 1.209 . S
C551 O558 1.226 . S
O552 Cd548 2.273 . S
O552 Cd550 2.411 . S
O552 C555 1.320 . S
O553 Cd550 2.333 . S
O553 C555 1.214 . S
O554 Cd550 2.352 . S
O554 C557 1.258 . S
C555 O552 1.320 . S
C555 O553 1.214 . S
O556 Cd548 2.277 . S
O556 C551 1.209 . S
C557 O554 1.258 . S
C557 O559 1.282 . S
O558 Cd550 2.277 . S
O558 C551 1.226 . S
O559 Cd550 2.356 . S
O559 C557 1.282 . S
C560 O561 1.306 . S
C560 O563 1.160 . S
O561 C560 1.306 . S
O561 Cd562 2.228 . S
Cd562 O561 2.228 . S
Cd562 O566 2.273 . S
Cd562 O570 2.277 . S
O563 C560 1.160 . S
O563 Cd564 2.203 . S
Cd564 O563 2.203 . S
Cd564 O566 2.411 . S
Cd564 O567 2.333 . S
Cd564 O568 2.352 . S
Cd564 O572 2.277 . S
Cd564 O573 2.356 . S
C565 O570 1.209 . S
C565 O572 1.226 . S
O566 Cd562 2.273 . S
O566 Cd564 2.411 . S
O566 C569 1.320 . S
O567 Cd564 2.333 . S
O567 C569 1.214 . S
O568 Cd564 2.352 . S
O568 C571 1.258 . S
C569 O566 1.320 . S
C569 O567 1.214 . S
O570 Cd562 2.277 . S
O570 C565 1.209 . S
C571 O568 1.258 . S
C571 O573 1.282 . S
O572 Cd564 2.277 . S
O572 C565 1.226 . S
O573 Cd564 2.356 . S
O573 C571 1.282 . S
C574 O575 1.306 . S
C574 O577 1.160 . S
O575 C574 1.306 . S
O575 Cd576 2.228 . S
Cd576 O575 2.228 . S
Cd576 O580 2.273 . S
Cd576 O584 2.277 . S
O577 C574 1.160 . S
O577 Cd578 2.203 . S
Cd578 O577 2.203 . S
Cd578 O580 2.411 . S
Cd578 O581 2.333 . S
Cd578 O582 2.352 . S
Cd578 O586 2.277 . S
Cd578 O587 2.356 . S
C579 O584 1.209 . S
C579 O586 1.226 . S
O580 Cd576 2.273 . S
O580 Cd578 2.411 . S
O580 C583 1.320 . S
O581 Cd578 2.333 . S
O581 C583 1.214 . S
O582 Cd578 2.352 . S
O582 C585 1.258 . S
C583 O580 1.320 . S
C583 O581 1.214 . S
O584 Cd576 2.277 . S
O584 C579 1.209 . S
C585 O582 1.258 . S
C585 O587 1.282 . S
O586 Cd578 2.277 . S
O586 C579 1.226 . S
O587 Cd578 2.356 . S
O587 C585 1.282 . S
C588 O589 1.306 . S
C588 O591 1.160 . S
O589 C588 1.306 . S
O589 Cd590 2.228 . S
Cd590 O589 2.228 . S
Cd590 O594 2.273 . S
Cd590 O598 2.277 . S
O591 C588 1.160 . S
O591 Cd592 2.203 . S
Cd592 O591 2.203 . S
Cd592 O594 2.411 . S
Cd592 O595 2.333 . S
Cd592 O596 2.352 . S
Cd592 O600 2.277 . S
Cd592 O601 2.356 . S
C593 O598 1.209 . S
C593 O600 1.226 . S
O594 Cd590 2.273 . S
O594 Cd592 2.411 . S
O594 C597 1.320 . S
O595 Cd592 2.333 . S
O595 C597 1.214 . S
O596 Cd592 2.352 . S
O596 C599 1.258 . S
C597 O594 1.320 . S
C597 O595 1.214 . S
O598 Cd590 2.277 . S
O598 C593 1.209 . S
C599 O596 1.258 . S
C599 O601 1.282 . S
O600 Cd592 2.277 . S
O600 C593 1.226 . S
O601 Cd592 2.356 . S
O601 C599 1.282 . S
C602 O603 1.306 . S
C602 O605 1.160 . S
O603 C602 1.306 . S
O603 Cd604 2.228 . S
Cd604 O603 2.228 . S
Cd604 O608 2.273 . S
Cd604 O612 2.277 . S
O605 C602 1.160 . S
O605 Cd606 2.203 . S
Cd606 O605 2.203 . S
Cd606 O608 2.411 . S
Cd606 O609 2.333 . S
Cd606 O610 2.352 . S
Cd606 O614 2.277 . S
Cd606 O615 2.356 . S
C607 O612 1.209 . S
C607 O614 1.226 . S
O608 Cd604 2.273 . S
O608 Cd606 2.411 . S
O608 C611 1.320 . S
O609 Cd606 2.333 . S
O609 C611 1.214 . S
O610 Cd606 2.352 . S
O610 C613 1.258 . S
C611 O608 1.320 . S
C611 O609 1.214 . S
O612 Cd604 2.277 . S
O612 C607 1.209 . S
C613 O610 1.258 . S
C613 O615 1.282 . S
O614 Cd606 2.277 . S
O614 C607 1.226 . S
O615 Cd606 2.356 . S
O615 C613 1.282 . S
C616 O617 1.306 . S
C616 O619 1.160 . S
O617 C616 1.306 . S
O617 Cd618 2.228 . S
Cd618 O617 2.228 . S
Cd618 O622 2.273 . S
Cd618 O626 2.277 . S
O619 C616 1.160 . S
O619 Cd620 2.203 . S
Cd620 O619 2.203 . S
Cd620 O622 2.411 . S
Cd620 O623 2.333 . S
Cd620 O624 2.352 . S
Cd620 O628 2.277 . S
Cd620 O629 2.356 . S
C621 O626 1.209 . S
C621 O628 1.226 . S
O622 Cd618 2.273 . S
O622 Cd620 2.411 . S
O622 C625 1.320 . S
O623 Cd620 2.333 . S
O623 C625 1.214 . S
O624 Cd620 2.352 . S
O624 C627 1.258 . S
C625 O622 1.320 . S
C625 O623 1.214 . S
O626 Cd618 2.277 . S
O626 C621 1.209 . S
C627 O624 1.258 . S
C627 O629 1.282 . S
O628 Cd620 2.277 . S
O628 C621 1.226 . S
O629 Cd620 2.356 . S
O629 C627 1.282 . S
C630 O631 1.306 . S
C630 O633 1.160 . S
O631 C630 1.306 . S
O631 Cd632 2.228 . S
Cd632 O631 2.228 . S
Cd632 O636 2.273 . S
Cd632 O640 2.277 . S
O633 C630 1.160 . S
O633 Cd634 2.203 . S
Cd634 O633 2.203 . S
Cd634 O636 2.411 . S
Cd634 O637 2.333 . S
Cd634 O638 2.352 . S
Cd634 O642 2.277 . S
Cd634 O643 2.356 . S
C635 O640 1.209 . S
C635 O642 1.226 . S
O636 Cd632 2.273 . S
O636 Cd634 2.411 . S
O636 C639 1.320 . S
O637 Cd634 2.333 . S
O637 C639 1.214 . S
O638 Cd634 2.352 . S
O638 C641 1.258 . S
C639 O636 1.320 . S
C639 O637 1.214 . S
O640 Cd632 2.277 . S
O640 C635 1.209 . S
C641 O638 1.258 . S
C641 O643 1.282 . S
O642 Cd634 2.277 . S
O642 C635 1.226 . S
O643 Cd634 2.356 . S
O643 C641 1.282 . S
C644 O645 1.306 . S
C644 O647 1.160 . S
O645 C644 1.306 . S
O645 Cd646 2.228 . S
Cd646 O645 2.228 . S
Cd646 O650 2.273 . S
Cd646 O654 2.277 . S
O647 C644 1.160 . S
O647 Cd648 2.203 . S
Cd648 O647 2.203 . S
Cd648 O650 2.411 . S
Cd648 O651 2.333 . S
Cd648 O652 2.352 . S
Cd648 O656 2.277 . S
Cd648 O657 2.356 . S
C649 O654 1.209 . S
C649 O656 1.226 . S
O650 Cd646 2.273 . S
O650 Cd648 2.411 . S
O650 C653 1.320 . S
O651 Cd648 2.333 . S
O651 C653 1.214 . S
O652 Cd648 2.352 . S
O652 C655 1.258 . S
C653 O650 1.320 . S
C653 O651 1.214 . S
O654 Cd646 2.277 . S
O654 C649 1.209 . S
C655 O652 1.258 . S
C655 O657 1.282 . S
O656 Cd648 2.277 . S
O656 C649 1.226 . S
O657 Cd648 2.356 . S
O657 C655 1.282 . S
C658 O659 1.306 . S
C658 O661 1.160 . S
O659 C658 1.306 . S
O659 Cd660 2.228 . S
Cd660 O659 2.228 . S
Cd660 O664 2.273 . S
Cd660 O668 2.277 . S
O661 C658 1.160 . S
O661 Cd662 2.203 . S
Cd662 O661 2.203 . S
Cd662 O664 2.411 . S
Cd662 O665 2.333 . S
Cd662 O666 2.352 . S
Cd662 O670 2.277 . S
Cd662 O671 2.356 . S
C663 O668 1.209 . S
C663 O670 1.226 . S
O664 Cd660 2.273 . S
O664 Cd662 2.411 . S
O664 C667 1.320 . S
O665 Cd662 2.333 . S
O665 C667 1.214 . S
O666 Cd662 2.352 . S
O666 C669 1.258 . S
C667 O664 1.320 . S
C667 O665 1.214 . S
O668 Cd660 2.277 . S
O668 C663 1.209 . S
C669 O666 1.258 . S
C669 O671 1.282 . S
O670 Cd662 2.277 . S
O670 C663 1.226 . S
O671 Cd662 2.356 . S
O671 C669 1.282 . S
C672 O673 1.306 . S
C672 O675 1.160 . S
O673 C672 1.306 . S
O673 Cd674 2.228 . S
Cd674 O673 2.228 . S
Cd674 O678 2.273 . S
Cd674 O682 2.277 . S
O675 C672 1.160 . S
O675 Cd676 2.203 . S
Cd676 O675 2.203 . S
Cd676 O678 2.411 . S
Cd676 O679 2.333 . S
Cd676 O680 2.352 . S
Cd676 O684 2.277 . S
Cd676 O685 2.356 . S
C677 O682 1.209 . S
C677 O684 1.226 . S
O678 Cd674 2.273 . S
O678 Cd676 2.411 . S
O678 C681 1.320 . S
O679 Cd676 2.333 . S
O679 C681 1.214 . S
O680 Cd676 2.352 . S
O680 C683 1.258 . S
C681 O678 1.320 . S
C681 O679 1.214 . S
O682 Cd674 2.277 . S
O682 C677 1.209 . S
C683 O680 1.258 . S
C683 O685 1.282 . S
O684 Cd676 2.277 . S
O684 C677 1.226 . S
O685 Cd676 2.356 . S
O685 C683 1.282 . S
C686 O687 1.306 . S
C686 O689 1.160 . S
O687 C686 1.306 . S
O687 Cd688 2.228 . S
Cd688 O687 2.228 . S
Cd688 O692 2.273 . S
Cd688 O696 2.277 . S
O689 C686 1.160 . S
O689 Cd690 2.203 . S
Cd690 O689 2.203 . S
Cd690 O692 2.411 . S
Cd690 O693 2.333 . S
Cd690 O694 2.352 . S
Cd690 O698 2.277 . S
Cd690 O699 2.356 . S
C691 O696 1.209 . S
C691 O698 1.226 . S
O692 Cd688 2.273 . S
O692 Cd690 2.411 . S
O692 C695 1.320 . S
O693 Cd690 2.333 . S
O693 C695 1.214 . S
O694 Cd690 2.352 . S
O694 C697 1.258 . S
C695 O692 1.320 . S
C695 O693 1.214 . S
O696 Cd688 2.277 . S
O696 C691 1.209 . S
C697 O694 1.258 . S
C697 O699 1.282 . S
O698 Cd690 2.277 . S
O698 C691 1.226 . S
O699 Cd690 2.356 . S
O699 C697 1.282 . S
C700 O701 1.306 . S
C700 O703 1.160 . S
O701 C700 1.306 . S
O701 Cd702 2.228 . S
Cd702 O701 2.228 . S
Cd702 O706 2.273 . S
Cd702 O710 2.277 . S
O703 C700 1.160 . S
O703 Cd704 2.203 . S
Cd704 O703 2.203 . S
Cd704 O706 2.411 . S
Cd704 O707 2.333 . S
Cd704 O708 2.352 . S
Cd704 O712 2.277 . S
Cd704 O713 2.356 . S
C705 O710 1.209 . S
C705 O712 1.226 . S
O706 Cd702 2.273 . S
O706 Cd704 2.411 . S
O706 C709 1.320 . S
O707 Cd704 2.333 . S
O707 C709 1.214 . S
O708 Cd704 2.352 . S
O708 C711 1.258 . S
C709 O706 1.320 . S
C709 O707 1.214 . S
O710 Cd702 2.277 . S
O710 C705 1.209 . S
C711 O708 1.258 . S
C711 O713 1.282 . S
O712 Cd704 2.277 . S
O712 C705 1.226 . S
O713 Cd704 2.356 . S
O713 C711 1.282 . S
C714 O715 1.306 . S
C714 O717 1.160 . S
O715 C714 1.306 . S
O715 Cd716 2.228 . S
Cd716 O715 2.228 . S
Cd716 O720 2.273 . S
Cd716 O724 2.277 . S
O717 C714 1.160 . S
O717 Cd718 2.203 . S
Cd718 O717 2.203 . S
Cd718 O720 2.411 . S
Cd718 O721 2.333 . S
Cd718 O722 2.352 . S
Cd718 O726 2.277 . S
Cd718 O727 2.356 . S
C719 O724 1.209 . S
C719 O726 1.226 . S
O720 Cd716 2.273 . S
O720 Cd718 2.411 . S
O720 C723 1.320 . S
O721 Cd718 2.333 . S
O721 C723 1.214 . S
O722 Cd718 2.352 . S
O722 C725 1.258 . S
C723 O720 1.320 . S
C723 O721 1.214 . S
O724 Cd716 2.277 . S
O724 C719 1.209 . S
C725 O722 1.258 . S
C725 O727 1.282 . S
O726 Cd718 2.277 . S
O726 C719 1.226 . S
O727 Cd718 2.356 . S
O727 C725 1.282 . S
C728 O729 1.306 . S
C728 O731 1.160 . S
O729 C728 1.306 . S
O729 Cd730 2.228 . S
Cd730 O729 2.228 . S
Cd730 O734 2.273 . S
Cd730 O738 2.277 . S
O731 C728 1.160 . S
O731 Cd732 2.203 . S
Cd732 O731 2.203 . S
Cd732 O734 2.411 . S
Cd732 O735 2.333 . S
Cd732 O736 2.352 . S
Cd732 O740 2.277 . S
Cd732 O741 2.356 . S
C733 O738 1.209 . S
C733 O740 1.226 . S
O734 Cd730 2.273 . S
O734 Cd732 2.411 . S
O734 C737 1.320 . S
O735 Cd732 2.333 . S
O735 C737 1.214 . S
O736 Cd732 2.352 . S
O736 C739 1.258 . S
C737 O734 1.320 . S
C737 O735 1.214 . S
O738 Cd730 2.277 . S
O738 C733 1.209 . S
C739 O736 1.258 . S
C739 O741 1.282 . S
O740 Cd732 2.277 . S
O740 C733 1.226 . S
O741 Cd732 2.356 . S
O741 C739 1.282 . S
C742 O743 1.306 . S
C742 O745 1.160 . S
O743 C742 1.306 . S
O743 Cd744 2.228 . S
Cd744 O743 2.228 . S
Cd744 O748 2.273 . S
Cd744 O752 2.277 . S
O745 C742 1.160 . S
O745 Cd746 2.203 . S
Cd746 O745 2.203 . S
Cd746 O748 2.411 . S
Cd746 O749 2.333 . S
Cd746 O750 2.352 . S
Cd746 O754 2.277 . S
Cd746 O755 2.356 . S
C747 O752 1.209 . S
C747 O754 1.226 . S
O748 Cd744 2.273 . S
O748 Cd746 2.411 . S
O748 C751 1.320 . S
O749 Cd746 2.333 . S
O749 C751 1.214 . S
O750 Cd746 2.352 . S
O750 C753 1.258 . S
C751 O748 1.320 . S
C751 O749 1.214 . S
O752 Cd744 2.277 . S
O752 C747 1.209 . S
C753 O750 1.258 . S
C753 O755 1.282 . S
O754 Cd746 2.277 . S
O754 C747 1.226 . S
O755 Cd746 2.356 . S
O755 C753 1.282 . S
C756 O757 1.306 . S
C756 O759 1.160 . S
O757 C756 1.306 . S
O757 Cd758 2.228 . S
Cd758 O757 2.228 . S
Cd758 O762 2.273 . S
Cd758 O766 2.277 . S
O759 C756 1.160 . S
O759 Cd760 2.203 . S
Cd760 O759 2.203 . S
Cd760 O762 2.411 . S
Cd760 O763 2.333 . S
Cd760 O764 2.352 . S
Cd760 O768 2.277 . S
Cd760 O769 2.356 . S
C761 O766 1.209 . S
C761 O768 1.226 . S
O762 Cd758 2.273 . S
O762 Cd760 2.411 . S
O762 C765 1.320 . S
O763 Cd760 2.333 . S
O763 C765 1.214 . S
O764 Cd760 2.352 . S
O764 C767 1.258 . S
C765 O762 1.320 . S
C765 O763 1.214 . S
O766 Cd758 2.277 . S
O766 C761 1.209 . S
C767 O764 1.258 . S
C767 O769 1.282 . S
O768 Cd760 2.277 . S
O768 C761 1.226 . S
O769 Cd760 2.356 . S
O769 C767 1.282 . S
C770 O771 1.306 . S
C770 O773 1.160 . S
O771 C770 1.306 . S
O771 Cd772 2.228 . S
Cd772 O771 2.228 . S
Cd772 O776 2.273 . S
Cd772 O780 2.277 . S
O773 C770 1.160 . S
O773 Cd774 2.203 . S
Cd774 O773 2.203 . S
Cd774 O776 2.411 . S
Cd774 O777 2.333 . S
Cd774 O778 2.352 . S
Cd774 O782 2.277 . S
Cd774 O783 2.356 . S
C775 O780 1.209 . S
C775 O782 1.226 . S
O776 Cd772 2.273 . S
O776 Cd774 2.411 . S
O776 C779 1.320 . S
O777 Cd774 2.333 . S
O777 C779 1.214 . S
O778 Cd774 2.352 . S
O778 C781 1.258 . S
C779 O776 1.320 . S
C779 O777 1.214 . S
O780 Cd772 2.277 . S
O780 C775 1.209 . S
C781 O778 1.258 . S
C781 O783 1.282 . S
O782 Cd774 2.277 . S
O782 C775 1.226 . S
O783 Cd774 2.356 . S
O783 C781 1.282 . S
C784 O785 1.306 . S
C784 O787 1.160 . S
O785 C784 1.306 . S
O785 Cd786 2.228 . S
Cd786 O785 2.228 . S
Cd786 O790 2.273 . S
Cd786 O794 2.277 . S
O787 C784 1.160 . S
O787 Cd788 2.203 . S
Cd788 O787 2.203 . S
Cd788 O790 2.411 . S
Cd788 O791 2.333 . S
Cd788 O792 2.352 . S
Cd788 O796 2.277 . S
Cd788 O797 2.356 . S
C789 O794 1.209 . S
C789 O796 1.226 . S
O790 Cd786 2.273 . S
O790 Cd788 2.411 . S
O790 C793 1.320 . S
O791 Cd788 2.333 . S
O791 C793 1.214 . S
O792 Cd788 2.352 . S
O792 C795 1.258 . S
C793 O790 1.320 . S
C793 O791 1.214 . S
O794 Cd786 2.277 . S
O794 C789 1.209 . S
C795 O792 1.258 . S
C795 O797 1.282 . S
O796 Cd788 2.277 . S
O796 C789 1.226 . S
O797 Cd788 2.356 . S
O797 C795 1.282 . S
C798 O799 1.306 . S
C798 O801 1.160 . S
O799 C798 1.306 . S
O799 Cd800 2.228 . S
Cd800 O799 2.228 . S
Cd800 O804 2.273 . S
Cd800 O808 2.277 . S
O801 C798 1.160 . S
O801 Cd802 2.203 . S
Cd802 O801 2.203 . S
Cd802 O804 2.411 . S
Cd802 O805 2.333 . S
Cd802 O806 2.352 . S
Cd802 O810 2.277 . S
Cd802 O811 2.356 . S
C803 O808 1.209 . S
C803 O810 1.226 . S
O804 Cd800 2.273 . S
O804 Cd802 2.411 . S
O804 C807 1.320 . S
O805 Cd802 2.333 . S
O805 C807 1.214 . S
O806 Cd802 2.352 . S
O806 C809 1.258 . S
C807 O804 1.320 . S
C807 O805 1.214 . S
O808 Cd800 2.277 . S
O808 C803 1.209 . S
C809 O806 1.258 . S
C809 O811 1.282 . S
O810 Cd802 2.277 . S
O810 C803 1.226 . S
O811 Cd802 2.356 . S
O811 C809 1.282 . S
C812 O813 1.306 . S
C812 O815 1.160 . S
O813 C812 1.306 . S
O813 Cd814 2.228 . S
Cd814 O813 2.228 . S
Cd814 O818 2.273 . S
Cd814 O822 2.277 . S
O815 C812 1.160 . S
O815 Cd816 2.203 . S
Cd816 O815 2.203 . S
Cd816 O818 2.411 . S
Cd816 O819 2.333 . S
Cd816 O820 2.352 . S
Cd816 O824 2.277 . S
Cd816 O825 2.356 . S
C817 O822 1.209 . S
C817 O824 1.226 . S
O818 Cd814 2.273 . S
O818 Cd816 2.411 . S
O818 C821 1.320 . S
O819 Cd816 2.333 . S
O819 C821 1.214 . S
O820 Cd816 2.352 . S
O820 C823 1.258 . S
C821 O818 1.320 . S
C821 O819 1.214 . S
O822 Cd814 2.277 . S
O822 C817 1.209 . S
C823 O820 1.258 . S
C823 O825 1.282 . S
O824 Cd816 2.277 . S
O824 C817 1.226 . S
O825 Cd816 2.356 . S
O825 C823 1.282 . S
C826 O827 1.306 . S
C826 O829 1.160 . S
O827 C826 1.306 . S
O827 Cd828 2.228 . S
Cd828 O827 2.228 . S
Cd828 O832 2.273 . S
Cd828 O836 2.277 . S
O829 C826 1.160 . S
O829 Cd830 2.203 . S
Cd830 O829 2.203 . S
Cd830 O832 2.411 . S
Cd830 O833 2.333 . S
Cd830 O834 2.352 . S
Cd830 O838 2.277 . S
Cd830 O839 2.356 . S
C831 O836 1.209 . S
C831 O838 1.226 . S
O832 Cd828 2.273 . S
O832 Cd830 2.411 . S
O832 C835 1.320 . S
O833 Cd830 2.333 . S
O833 C835 1.214 . S
O834 Cd830 2.352 . S
O834 C837 1.258 . S
C835 O832 1.320 . S
C835 O833 1.214 . S
O836 Cd828 2.277 . S
O836 C831 1.209 . S
C837 O834 1.258 . S
C837 O839 1.282 . S
O838 Cd830 2.277 . S
O838 C831 1.226 . S
O839 Cd830 2.356 . S
O839 C837 1.282 . S
C840 O841 1.306 . S
C840 O843 1.160 . S
O841 C840 1.306 . S
O841 Cd842 2.228 . S
Cd842 O841 2.228 . S
Cd842 O846 2.273 . S
Cd842 O850 2.277 . S
O843 C840 1.160 . S
O843 Cd844 2.203 . S
Cd844 O843 2.203 . S
Cd844 O846 2.411 . S
Cd844 O847 2.333 . S
Cd844 O848 2.352 . S
Cd844 O852 2.277 . S
Cd844 O853 2.356 . S
C845 O850 1.209 . S
C845 O852 1.226 . S
O846 Cd842 2.273 . S
O846 Cd844 2.411 . S
O846 C849 1.320 . S
O847 Cd844 2.333 . S
O847 C849 1.214 . S
O848 Cd844 2.352 . S
O848 C851 1.258 . S
C849 O846 1.320 . S
C849 O847 1.214 . S
O850 Cd842 2.277 . S
O850 C845 1.209 . S
C851 O848 1.258 . S
C851 O853 1.282 . S
O852 Cd844 2.277 . S
O852 C845 1.226 . S
O853 Cd844 2.356 . S
O853 C851 1.282 . S
C854 O855 1.306 . S
C854 O857 1.160 . S
O855 C854 1.306 . S
O855 Cd856 2.228 . S
Cd856 O855 2.228 . S
Cd856 O860 2.273 . S
Cd856 O864 2.277 . S
O857 C854 1.160 . S
O857 Cd858 2.203 . S
Cd858 O857 2.203 . S
Cd858 O860 2.411 . S
Cd858 O861 2.333 . S
Cd858 O862 2.352 . S
Cd858 O866 2.277 . S
Cd858 O867 2.356 . S
C859 O864 1.209 . S
C859 O866 1.226 . S
O860 Cd856 2.273 . S
O860 Cd858 2.411 . S
O860 C863 1.320 . S
O861 Cd858 2.333 . S
O861 C863 1.214 . S
O862 Cd858 2.352 . S
O862 C865 1.258 . S
C863 O860 1.320 . S
C863 O861 1.214 . S
O864 Cd856 2.277 . S
O864 C859 1.209 . S
C865 O862 1.258 . S
C865 O867 1.282 . S
O866 Cd858 2.277 . S
O866 C859 1.226 . S
O867 Cd858 2.356 . S
O867 C865 1.282 . S
C868 O869 1.306 . S
C868 O871 1.160 . S
O869 C868 1.306 . S
O869 Cd870 2.228 . S
Cd870 O869 2.228 . S
Cd870 O874 2.273 . S
Cd870 O878 2.277 . S
O871 C868 1.160 . S
O871 Cd872 2.203 . S
Cd872 O871 2.203 . S
Cd872 O874 2.411 . S
Cd872 O875 2.333 . S
Cd872 O876 2.352 . S
Cd872 O880 2.277 . S
Cd872 O881 2.356 . S
C873 O878 1.209 . S
C873 O880 1.226 . S
O874 Cd870 2.273 . S
O874 Cd872 2.411 . S
O874 C877 1.320 . S
O875 Cd872 2.333 . S
O875 C877 1.214 . S
O876 Cd872 2.352 . S
O876 C879 1.258 . S
C877 O874 1.320 . S
C877 O875 1.214 . S
O878 Cd870 2.277 . S
O878 C873 1.209 . S
C879 O876 1.258 . S
C879 O881 1.282 . S
O880 Cd872 2.277 . S
O880 C873 1.226 . S
O881 Cd872 2.356 . S
O881 C879 1.282 . S
C882 O883 1.306 . S
C882 O885 1.160 . S
O883 C882 1.306 . S
O883 Cd884 2.228 . S
Cd884 O883 2.228 . S
Cd884 O888 2.273 . S
Cd884 O892 2.277 . S
O885 C882 1.160 . S
O885 Cd886 2.203 . S
Cd886 O885 2.203 . S
Cd886 O888 2.411 . S
Cd886 O889 2.333 . S
Cd886 O890 2.352 . S
Cd886 O894 2.277 . S
Cd886 O895 2.356 . S
C887 O892 1.209 . S
C887 O894 1.226 . S
O888 Cd884 2.273 . S
O888 Cd886 2.411 . S
O888 C891 1.320 . S
O889 Cd886 2.333 . S
O889 C891 1.214 . S
O890 Cd886 2.352 . S
O890 C893 1.258 . S
C891 O888 1.320 . S
C891 O889 1.214 . S
O892 Cd884 2.277 . S
O892 C887 1.209 . S
C893 O890 1.258 . S
C893 O895 1.282 . S
O894 Cd886 2.277 . S
O894 C887 1.226 . S
O895 Cd886 2.356 . S
O895 C893 1.282 . S
C896 O897 1.306 . S
C896 O899 1.160 . S
O897 C896 1.306 . S
O897 Cd898 2.228 . S
Cd898 O897 2.228 . S
Cd898 O902 2.273 . S
Cd898 O906 2.277 . S
O899 C896 1.160 . S
O899 Cd900 2.203 . S
Cd900 O899 2.203 . S
Cd900 O902 2.411 . S
Cd900 O903 2.333 . S
Cd900 O904 2.352 . S
Cd900 O908 2.277 . S
Cd900 O909 2.356 . S
C901 O906 1.209 . S
C901 O908 1.226 . S
O902 Cd898 2.273 . S
O902 Cd900 2.411 . S
O902 C905 1.320 . S
O903 Cd900 2.333 . S
O903 C905 1.214 . S
O904 Cd900 2.352 . S
O904 C907 1.258 . S
C905 O902 1.320 . S
C905 O903 1.214 . S
O906 Cd898 2.277 . S
O906 C901 1.209 . S
C907 O904 1.258 . S
C907 O909 1.282 . S
O908 Cd900 2.277 . S
O908 C901 1.226 . S
O909 Cd900 2.356 . S
O909 C907 1.282 . S
C910 O911 1.306 . S
C910 O913 1.160 . S
O911 C910 1.306 . S
O911 Cd912 2.228 . S
Cd912 O911 2.228 . S
Cd912 O916 2.273 . S
Cd912 O920 2.277 . S
O913 C910 1.160 . S
O913 Cd914 2.203 . S
Cd914 O913 2.203 . S
Cd914 O916 2.411 . S
Cd914 O917 2.333 . S
Cd914 O918 2.352 . S
Cd914 O922 2.277 . S
Cd914 O923 2.356 . S
C915 O920 1.209 . S
C915 O922 1.226 . S
O916 Cd912 2.273 . S
O916 Cd914 2.411 . S
O916 C919 1.320 . S
O917 Cd914 2.333 . S
O917 C919 1.214 . S
O918 Cd914 2.352 . S
O918 C921 1.258 . S
C919 O916 1.320 . S
C919 O917 1.214 . S
O920 Cd912 2.277 . S
O920 C915 1.209 . S
C921 O918 1.258 . S
C921 O923 1.282 . S
O922 Cd914 2.277 . S
O922 C915 1.226 . S
O923 Cd914 2.356 . S
O923 C921 1.282 . S
C924 O925 1.306 . S
C924 O927 1.160 . S
O925 C924 1.306 . S
O925 Cd926 2.228 . S
Cd926 O925 2.228 . S
Cd926 O930 2.273 . S
Cd926 O934 2.277 . S
O927 C924 1.160 . S
O927 Cd928 2.203 . S
Cd928 O927 2.203 . S
Cd928 O930 2.411 . S
Cd928 O931 2.333 . S
Cd928 O932 2.352 . S
Cd928 O936 2.277 . S
Cd928 O937 2.356 . S
C929 O934 1.209 . S
C929 O936 1.226 . S
O930 Cd926 2.273 . S
O930 Cd928 2.411 . S
O930 C933 1.320 . S
O931 Cd928 2.333 . S
O931 C933 1.214 . S
O932 Cd928 2.352 . S
O932 C935 1.258 . S
C933 O930 1.320 . S
C933 O931 1.214 . S
O934 Cd926 2.277 . S
O934 C929 1.209 . S
C935 O932 1.258 . S
C935 O937 1.282 . S
O936 Cd928 2.277 . S
O936 C929 1.226 . S
O937 Cd928 2.356 . S
O937 C935 1.282 . S
C938 O939 1.306 . S
C938 O941 1.160 . S
O939 C938 1.306 . S
O939 Cd940 2.228 . S
Cd940 O939 2.228 . S
Cd940 O944 2.273 . S
Cd940 O948 2.277 . S
O941 C938 1.160 . S
O941 Cd942 2.203 . S
Cd942 O941 2.203 . S
Cd942 O944 2.411 . S
Cd942 O945 2.333 . S
Cd942 O946 2.352 . S
Cd942 O950 2.277 . S
Cd942 O951 2.356 . S
C943 O948 1.209 . S
C943 O950 1.226 . S
O944 Cd940 2.273 . S
O944 Cd942 2.411 . S
O944 C947 1.320 . S
O945 Cd942 2.333 . S
O945 C947 1.214 . S
O946 Cd942 2.352 . S
O946 C949 1.258 . S
C947 O944 1.320 . S
C947 O945 1.214 . S
O948 Cd940 2.277 . S
O948 C943 1.209 . S
C949 O946 1.258 . S
C949 O951 1.282 . S
O950 Cd942 2.277 . S
O950 C943 1.226 . S
O951 Cd942 2.356 . S
O951 C949 1.282 . S
C952 O953 1.306 . S
C952 O955 1.160 . S
O953 C952 1.306 . S
O953 Cd954 2.228 . S
Cd954 O953 2.228 . S
Cd954 O958 2.273 . S
Cd954 O962 2.277 . S
O955 C952 1.160 . S
O955 Cd956 2.203 . S
Cd956 O955 2.203 . S
Cd956 O958 2.411 . S
Cd956 O959 2.333 . S
Cd956 O960 2.352 . S
Cd956 O964 2.277 . S
Cd956 O965 2.356 . S
C957 O962 1.209 . S
C957 O964 1.226 . S
O958 Cd954 2.273 . S
O958 Cd956 2.411 . S
O958 C961 1.320 . S
O959 Cd956 2.333 . S
O959 C961 1.214 . S
O960 Cd956 2.352 . S
O960 C963 1.258 . S
C961 O958 1.320 . S
C961 O959 1.214 . S
O962 Cd954 2.277 . S
O962 C957 1.209 . S
C963 O960 1.258 . S
C963 O965 1.282 . S
O964 Cd956 2.277 . S
O964 C957 1.226 . S
O965 Cd956 2.356 . S
O965 C963 1.282 . S
C966 O967 1.306 . S
C966 O969 1.160 . S
O967 C966 1.306 . S
O967 Cd968 2.228 . S
Cd968 O967 2.228 . S
Cd968 O972 2.273 . S
Cd968 O976 2.277 . S
O969 C966 1.160 . S
O969 Cd970 2.203 . S
Cd970 O969 2.203 . S
Cd970 O972 2.411 . S
Cd970 O973 2.333 . S
Cd970 O974 2.352 . S
Cd970 O978 2.277 . S
Cd970 O979 2.356 . S
C971 O976 1.209 . S
C971 O978 1.226 . S
O972 Cd968 2.273 . S
O972 Cd970 2.411 . S
O972 C975 1.320 . S
O973 Cd970 2.333 . S
O973 C975 1.214 . S
O974 Cd970 2.352 . S
O974 C977 1.258 . S
C975 O972 1.320 . S
C975 O973 1.214 . S
O976 Cd968 2.277 . S
O976 C971 1.209 . S
C977 O974 1.258 . S
C977 O979 1.282 . S
O978 Cd970 2.277 . S
O978 C971 1.226 . S
O979 Cd970 2.356 . S
O979 C977 1.282 . S
C980 O981 1.306 . S
C980 O983 1.160 . S
O981 C980 1.306 . S
O981 Cd982 2.228 . S
Cd982 O981 2.228 . S
Cd982 O986 2.273 . S
Cd982 O990 2.277 . S
O983 C980 1.160 . S
O983 Cd984 2.203 . S
Cd984 O983 2.203 . S
Cd984 O986 2.411 . S
Cd984 O987 2.333 . S
Cd984 O988 2.352 . S
Cd984 O992 2.277 . S
Cd984 O993 2.356 . S
C985 O990 1.209 . S
C985 O992 1.226 . S
O986 Cd982 2.273 . S
O986 Cd984 2.411 . S
O986 C989 1.320 . S
O987 Cd984 2.333 . S
O987 C989 1.214 . S
O988 Cd984 2.352 . S
O988 C991 1.258 . S
C989 O986 1.320 . S
C989 O987 1.214 . S
O990 Cd982 2.277 . S
O990 C985 1.209 . S
C991 O988 1.258 . S
C991 O993 1.282 . S
O992 Cd984 2.277 . S
O992 C985 1.226 . S
O993 Cd984 2.356 . S
O993 C991 1.282 . S
C994 O995 1.306 . S
C994 O997 1.160 . S
O995 C994 1.306 . S
O995 Cd996 2.228 . S
Cd996 O995 2.228 . S
Cd996 O1000 2.273 . S
Cd996 O1004 2.277 . S
O997 C994 1.160 . S
O997 Cd998 2.203 . S
Cd998 O997 2.203 . S
Cd998 O1000 2.411 . S
Cd998 O1001 2.333 . S
Cd998 O1002 2.352 . S
Cd998 O1006 2.277 . S
Cd998 O1007 2.356 . S
C999 O1004 1.209 . S
C999 O1006 1.226 . S
O1000 Cd996 2.273 . S
O1000 Cd998 2.411 . S
O1000 C1003 1.320 . S
O1001 Cd998 2.333 . S
O1001 C1003 1.214 . S
O1002 Cd998 2.352 . S
O1002 C1005 1.258 . S
C1003 O1000 1.320 . S
C1003 O1001 1.214 . S
O1004 Cd996 2.277 . S
O1004 C999 1.209 . S
C1005 O1002 1.258 . S
C1005 O1007 1.282 . S
O1006 Cd998 2.277 . S
O1006 C999 1.226 . S
O1007 Cd998 2.356 . S
O1007 C1005 1.282 . S
C1008 O1009 1.306 . S
C1008 O1011 1.160 . S
O1009 C1008 1.306 . S
O1009 Cd1010 2.228 . S
Cd1010 O1009 2.228 . S
Cd1010 O1014 2.273 . S
Cd1010 O1018 2.277 . S
O1011 C1008 1.160 . S
O1011 Cd1012 2.203 . S
Cd1012 O1011 2.203 . S
Cd1012 O1014 2.411 . S
Cd1012 O1015 2.333 . S
Cd1012 O1016 2.352 . S
Cd1012 O1020 2.277 . S
Cd1012 O1021 2.356 . S
C1013 O1018 1.209 . S
C1013 O1020 1.226 . S
O1014 Cd1010 2.273 . S
O1014 Cd1012 2.411 . S
O1014 C1017 1.320 . S
O1015 Cd1012 2.333 . S
O1015 C1017 1.214 . S
O1016 Cd1012 2.352 . S
O1016 C1019 1.258 . S
C1017 O1014 1.320 . S
C1017 O1015 1.214 . S
O1018 Cd1010 2.277 . S
O1018 C1013 1.209 . S
C1019 O1016 1.258 . S
C1019 O1021 1.282 . S
O1020 Cd1012 2.277 . S
O1020 C1013 1.226 . S
O1021 Cd1012 2.356 . S
O1021 C1019 1.282 . S
C1022 O1023 1.306 . S
C1022 O1025 1.160 . S
O1023 C1022 1.306 . S
O1023 Cd1024 2.228 . S
Cd1024 O1023 2.228 . S
Cd1024 O1028 2.273 . S
Cd1024 O1032 2.277 . S
O1025 C1022 1.160 . S
O1025 Cd1026 2.203 . S
Cd1026 O1025 2.203 . S
Cd1026 O1028 2.411 . S
Cd1026 O1029 2.333 . S
Cd1026 O1030 2.352 . S
Cd1026 O1034 2.277 . S
Cd1026 O1035 2.356 . S
C1027 O1032 1.209 . S
C1027 O1034 1.226 . S
O1028 Cd1024 2.273 . S
O1028 Cd1026 2.411 . S
O1028 C1031 1.320 . S
O1029 Cd1026 2.333 . S
O1029 C1031 1.214 . S
O1030 Cd1026 2.352 . S
O1030 C1033 1.258 . S
C1031 O1028 1.320 . S
C1031 O1029 1.214 . S
O1032 Cd1024 2.277 . S
O1032 C1027 1.209 . S
C1033 O1030 1.258 . S
C1033 O1035 1.282 . S
O1034 Cd1026 2.277 . S
O1034 C1027 1.226 . S
O1035 Cd1026 2.356 . S
O1035 C1033 1.282 . S
C1036 O1037 1.306 . S
C1036 O1039 1.160 . S
O1037 C1036 1.306 . S
O1037 Cd1038 2.228 . S
Cd1038 O1037 2.228 . S
Cd1038 O1042 2.273 . S
Cd1038 O1046 2.277 . S
O1039 C1036 1.160 . S
O1039 Cd1040 2.203 . S
Cd1040 O1039 2.203 . S
Cd1040 O1042 2.411 . S
Cd1040 O1043 2.333 . S
Cd1040 O1044 2.352 . S
Cd1040 O1048 2.277 . S
Cd1040 O1049 2.356 . S
C1041 O1046 1.209 . S
C1041 O1048 1.226 . S
O1042 Cd1038 2.273 . S
O1042 Cd1040 2.411 . S
O1042 C1045 1.320 . S
O1043 Cd1040 2.333 . S
O1043 C1045 1.214 . S
O1044 Cd1040 2.352 . S
O1044 C1047 1.258 . S
C1045 O1042 1.320 . S
C1045 O1043 1.214 . S
O1046 Cd1038 2.277 . S
O1046 C1041 1.209 . S
C1047 O1044 1.258 . S
C1047 O1049 1.282 . S
O1048 Cd1040 2.277 . S
O1048 C1041 1.226 . S
O1049 Cd1040 2.356 . S
O1049 C1047 1.282 . S
C1050 O1051 1.306 . S
C1050 O1053 1.160 . S
O1051 C1050 1.306 . S
O1051 Cd1052 2.228 . S
Cd1052 O1051 2.228 . S
Cd1052 O1056 2.273 . S
Cd1052 O1060 2.277 . S
O1053 C1050 1.160 . S
O1053 Cd1054 2.203 . S
Cd1054 O1053 2.203 . S
Cd1054 O1056 2.411 . S
Cd1054 O1057 2.333 . S
Cd1054 O1058 2.352 . S
Cd1054 O1062 2.277 . S
Cd1054 O1063 2.356 . S
C1055 O1060 1.209 . S
C1055 O1062 1.226 . S
O1056 Cd1052 2.273 . S
O1056 Cd1054 2.411 . S
O1056 C1059 1.320 . S
O1057 Cd1054 2.333 . S
O1057 C1059 1.214 . S
O1058 Cd1054 2.352 . S
O1058 C1061 1.258 . S
C1059 O1056 1.320 . S
C1059 O1057 1.214 . S
O1060 Cd1052 2.277 . S
O1060 C1055 1.209 . S
C1061 O1058 1.258 . S
C1061 O1063 1.282 . S
O1062 Cd1054 2.277 . S
O1062 C1055 1.226 . S
O1063 Cd1054 2.356 . S
O1063 C1061 1.282 . S
C1064 O1065 1.306 . S
C1064 O1067 1.160 . S
O1065 C1064 1.306 . S
O1065 Cd1066 2.228 . S
Cd1066 O1065 2.228 . S
Cd1066 O1070 2.273 . S
Cd1066 O1074 2.277 . S
O1067 C1064 1.160 . S
O1067 Cd1068 2.203 . S
Cd1068 O1067 2.203 . S
Cd1068 O1070 2.411 . S
Cd1068 O1071 2.333 . S
Cd1068 O1072 2.352 . S
Cd1068 O1076 2.277 . S
Cd1068 O1077 2.356 . S
C1069 O1074 1.209 . S
C1069 O1076 1.226 . S
O1070 Cd1066 2.273 . S
O1070 Cd1068 2.411 . S
O1070 C1073 1.320 . S
O1071 Cd1068 2.333 . S
O1071 C1073 1.214 . S
O1072 Cd1068 2.352 . S
O1072 C1075 1.258 . S
C1073 O1070 1.320 . S
C1073 O1071 1.214 . S
O1074 Cd1066 2.277 . S
O1074 C1069 1.209 . S
C1075 O1072 1.258 . S
C1075 O1077 1.282 . S
O1076 Cd1068 2.277 . S
O1076 C1069 1.226 . S
O1077 Cd1068 2.356 . S
O1077 C1075 1.282 . S
C1078 O1079 1.306 . S
C1078 O1081 1.160 . S
O1079 C1078 1.306 . S
O1079 Cd1080 2.228 . S
Cd1080 O1079 2.228 . S
Cd1080 O1084 2.273 . S
Cd1080 O1088 2.277 . S
O1081 C1078 1.160 . S
O1081 Cd1082 2.203 . S
Cd1082 O1081 2.203 . S
Cd1082 O1084 2.411 . S
Cd1082 O1085 2.333 . S
Cd1082 O1086 2.352 . S
Cd1082 O1090 2.277 . S
Cd1082 O1091 2.356 . S
C1083 O1088 1.209 . S
C1083 O1090 1.226 . S
O1084 Cd1080 2.273 . S
O1084 Cd1082 2.411 . S
O1084 C1087 1.320 . S
O1085 Cd1082 2.333 . S
O1085 C1087 1.214 . S
O1086 Cd1082 2.352 . S
O1086 C1089 1.258 . S
C1087 O1084 1.320 . S
C1087 O1085 1.214 . S
O1088 Cd1080 2.277 . S
O1088 C1083 1.209 . S
C1089 O1086 1.258 . S
C1089 O1091 1.282 . S
O1090 Cd1082 2.277 . S
O1090 C1083 1.226 . S
O1091 Cd1082 2.356 . S
O1091 C1089 1.282 . S
C1092 O1093 1.306 . S
C1092 O1095 1.160 . S
O1093 C1092 1.306 . S
O1093 Cd1094 2.228 . S
Cd1094 O1093 2.228 . S
Cd1094 O1098 2.273 . S
Cd1094 O1102 2.277 . S
O1095 C1092 1.160 . S
O1095 Cd1096 2.203 . S
Cd1096 O1095 2.203 . S
Cd1096 O1098 2.411 . S
Cd1096 O1099 2.333 . S
Cd1096 O1100 2.352 . S
Cd1096 O1104 2.277 . S
Cd1096 O1105 2.356 . S
C1097 O1102 1.209 . S
C1097 O1104 1.226 . S
O1098 Cd1094 2.273 . S
O1098 Cd1096 2.411 . S
O1098 C1101 1.320 . S
O1099 Cd1096 2.333 . S
O1099 C1101 1.214 . S
O1100 Cd1096 2.352 . S
O1100 C1103 1.258 . S
C1101 O1098 1.320 . S
C1101 O1099 1.214 . S
O1102 Cd1094 2.277 . S
O1102 C1097 1.209 . S
C1103 O1100 1.258 . S
C1103 O1105 1.282 . S
O1104 Cd1096 2.277 . S
O1104 C1097 1.226 . S
O1105 Cd1096 2.356 . S
O1105 C1103 1.282 . S
C1106 O1107 1.306 . S
C1106 O1109 1.160 . S
O1107 C1106 1.306 . S
O1107 Cd1108 2.228 . S
Cd1108 O1107 2.228 . S
Cd1108 O1112 2.273 . S
Cd1108 O1116 2.277 . S
O1109 C1106 1.160 . S
O1109 Cd1110 2.203 . S
Cd1110 O1109 2.203 . S
Cd1110 O1112 2.411 . S
Cd1110 O1113 2.333 . S
Cd1110 O1114 2.352 . S
Cd1110 O1118 2.277 . S
Cd1110 O1119 2.356 . S
C1111 O1116 1.209 . S
C1111 O1118 1.226 . S
O1112 Cd1108 2.273 . S
O1112 Cd1110 2.411 . S
O1112 C1115 1.320 . S
O1113 Cd1110 2.333 . S
O1113 C1115 1.214 . S
O1114 Cd1110 2.352 . S
O1114 C1117 1.258 . S
C1115 O1112 1.320 . S
C1115 O1113 1.214 . S
O1116 Cd1108 2.277 . S
O1116 C1111 1.209 . S
C1117 O1114 1.258 . S
C1117 O1119 1.282 . S
O1118 Cd1110 2.277 . S
O1118 C1111 1.226 . S
O1119 Cd1110 2.356 . S
O1119 C1117 1.282 . S
C1120 O1121 1.306 . S
C1120 O1123 1.160 . S
O1121 C1120 1.306 . S
O1121 Cd1122 2.228 . S
Cd1122 O1121 2.228 . S
Cd1122 O1126 2.273 . S
Cd1122 O1130 2.277 . S
O1123 C1120 1.160 . S
O1123 Cd1124 2.203 . S
Cd1124 O1123 2.203 . S
Cd1124 O1126 2.411 . S
Cd1124 O1127 2.333 . S
Cd1124 O1128 2.352 . S
Cd1124 O1132 2.277 . S
Cd1124 O1133 2.356 . S
C1125 O1130 1.209 . S
C1125 O1132 1.226 . S
O1126 Cd1122 2.273 . S
O1126 Cd1124 2.411 . S
O1126 C1129 1.320 . S
O1127 Cd1124 2.333 . S
O1127 C1129 1.214 . S
O1128 Cd1124 2.352 . S
O1128 C1131 1.258 . S
C1129 O1126 1.320 . S
C1129 O1127 1.214 . S
O1130 Cd1122 2.277 . S
O1130 C1125 1.209 . S
C1131 O1128 1.258 . S
C1131 O1133 1.282 . S
O1132 Cd1124 2.277 . S
O1132 C1125 1.226 . S
O1133 Cd1124 2.356 . S
O1133 C1131 1.282 . S
C1134 O1135 1.306 . S
C1134 O1137 1.160 . S
O1135 C1134 1.306 . S
O1135 Cd1136 2.228 . S
Cd1136 O1135 2.228 . S
Cd1136 O1140 2.273 . S
Cd1136 O1144 2.277 . S
O1137 C1134 1.160 . S
O1137 Cd1138 2.203 . S
Cd1138 O1137 2.203 . S
Cd1138 O1140 2.411 . S
Cd1138 O1141 2.333 . S
Cd1138 O1142 2.352 . S
Cd1138 O1146 2.277 . S
Cd1138 O1147 2.356 . S
C1139 O1144 1.209 . S
C1139 O1146 1.226 . S
O1140 Cd1136 2.273 . S
O1140 Cd1138 2.411 . S
O1140 C1143 1.320 . S
O1141 Cd1138 2.333 . S
O1141 C1143 1.214 . S
O1142 Cd1138 2.352 . S
O1142 C1145 1.258 . S
C1143 O1140 1.320 . S
C1143 O1141 1.214 . S
O1144 Cd1136 2.277 . S
O1144 C1139 1.209 . S
C1145 O1142 1.258 . S
C1145 O1147 1.282 . S
O1146 Cd1138 2.277 . S
O1146 C1139 1.226 . S
O1147 Cd1138 2.356 . S
O1147 C1145 1.282 . S
C1148 O1149 1.306 . S
C1148 O1151 1.160 . S
O1149 C1148 1.306 . S
O1149 Cd1150 2.228 . S
Cd1150 O1149 2.228 . S
Cd1150 O1154 2.273 . S
Cd1150 O1158 2.277 . S
O1151 C1148 1.160 . S
O1151 Cd1152 2.203 . S
Cd1152 O1151 2.203 . S
Cd1152 O1154 2.411 . S
Cd1152 O1155 2.333 . S
Cd1152 O1156 2.352 . S
Cd1152 O1160 2.277 . S
Cd1152 O1161 2.356 . S
C1153 O1158 1.209 . S
C1153 O1160 1.226 . S
O1154 Cd1150 2.273 . S
O1154 Cd1152 2.411 . S
O1154 C1157 1.320 . S
O1155 Cd1152 2.333 . S
O1155 C1157 1.214 . S
O1156 Cd1152 2.352 . S
O1156 C1159 1.258 . S
C1157 O1154 1.320 . S
C1157 O1155 1.214 . S
O1158 Cd1150 2.277 . S
O1158 C1153 1.209 . S
C1159 O1156 1.258 . S
C1159 O1161 1.282 . S
O1160 Cd1152 2.277 . S
O1160 C1153 1.226 . S
O1161 Cd1152 2.356 . S
O1161 C1159 1.282 . S
C1162 O1163 1.306 . S
C1162 O1165 1.160 . S
O1163 C1162 1.306 . S
O1163 Cd1164 2.228 . S
Cd1164 O1163 2.228 . S
Cd1164 O1168 2.273 . S
Cd1164 O1172 2.277 . S
O1165 C1162 1.160 . S
O1165 Cd1166 2.203 . S
Cd1166 O1165 2.203 . S
Cd1166 O1168 2.411 . S
Cd1166 O1169 2.333 . S
Cd1166 O1170 2.352 . S
Cd1166 O1174 2.277 . S
Cd1166 O1175 2.356 . S
C1167 O1172 1.209 . S
C1167 O1174 1.226 . S
O1168 Cd1164 2.273 . S
O1168 Cd1166 2.411 . S
O1168 C1171 1.320 . S
O1169 Cd1166 2.333 . S
O1169 C1171 1.214 . S
O1170 Cd1166 2.352 . S
O1170 C1173 1.258 . S
C1171 O1168 1.320 . S
C1171 O1169 1.214 . S
O1172 Cd1164 2.277 . S
O1172 C1167 1.209 . S
C1173 O1170 1.258 . S
C1173 O1175 1.282 . S
O1174 Cd1166 2.277 . S
O1174 C1167 1.226 . S
O1175 Cd1166 2.356 . S
O1175 C1173 1.282 . S
C1176 O1177 1.306 . S
C1176 O1179 1.160 . S
O1177 C1176 1.306 . S
O1177 Cd1178 2.228 . S
Cd1178 O1177 2.228 . S
Cd1178 O1182 2.273 . S
Cd1178 O1186 2.277 . S
O1179 C1176 1.160 . S
O1179 Cd1180 2.203 . S
Cd1180 O1179 2.203 . S
Cd1180 O1182 2.411 . S
Cd1180 O1183 2.333 . S
Cd1180 O1184 2.352 . S
Cd1180 O1188 2.277 . S
Cd1180 O1189 2.356 . S
C1181 O1186 1.209 . S
C1181 O1188 1.226 . S
O1182 Cd1178 2.273 . S
O1182 Cd1180 2.411 . S
O1182 C1185 1.320 . S
O1183 Cd1180 2.333 . S
O1183 C1185 1.214 . S
O1184 Cd1180 2.352 . S
O1184 C1187 1.258 . S
C1185 O1182 1.320 . S
C1185 O1183 1.214 . S
O1186 Cd1178 2.277 . S
O1186 C1181 1.209 . S
C1187 O1184 1.258 . S
C1187 O1189 1.282 . S
O1188 Cd1180 2.277 . S
O1188 C1181 1.226 . S
O1189 Cd1180 2.356 . S
O1189 C1187 1.282 . S
C1190 O1191 1.306 . S
C1190 O1193 1.160 . S
O1191 C1190 1.306 . S
O1191 Cd1192 2.228 . S
Cd1192 O1191 2.228 . S
Cd1192 O1196 2.273 . S
Cd1192 O1200 2.277 . S
O1193 C1190 1.160 . S
O1193 Cd1194 2.203 . S
Cd1194 O1193 2.203 . S
Cd1194 O1196 2.411 . S
Cd1194 O1197 2.333 . S
Cd1194 O1198 2.352 . S
Cd1194 O1202 2.277 . S
Cd1194 O1203 2.356 . S
C1195 O1200 1.209 . S
C1195 O1202 1.226 . S
O1196 Cd1192 2.273 . S
O1196 Cd1194 2.411 . S
O1196 C1199 1.320 . S
O1197 Cd1194 2.333 . S
O1197 C1199 1.214 . S
O1198 Cd1194 2.352 . S
O1198 C1201 1.258 . S
C1199 O1196 1.320 . S
C1199 O1197 1.214 . S
O1200 Cd1192 2.277 . S
O1200 C1195 1.209 . S
C1201 O1198 1.258 . S
C1201 O1203 1.282 . S
O1202 Cd1194 2.277 . S
O1202 C1195 1.226 . S
O1203 Cd1194 2.356 . S
O1203 C1201 1.282 . S
C1204 O1205 1.306 . S
C1204 O1207 1.160 . S
O1205 C1204 1.306 . S
O1205 Cd1206 2.228 . S
Cd1206 O1205 2.228 . S
Cd1206 O1210 2.273 . S
Cd1206 O1214 2.277 . S
O1207 C1204 1.160 . S
O1207 Cd1208 2.203 . S
Cd1208 O1207 2.203 . S
Cd1208 O1210 2.411 . S
Cd1208 O1211 2.333 . S
Cd1208 O1212 2.352 . S
Cd1208 O1216 2.277 . S
Cd1208 O1217 2.356 . S
C1209 O1214 1.209 . S
C1209 O1216 1.226 . S
O1210 Cd1206 2.273 . S
O1210 Cd1208 2.411 . S
O1210 C1213 1.320 . S
O1211 Cd1208 2.333 . S
O1211 C1213 1.214 . S
O1212 Cd1208 2.352 . S
O1212 C1215 1.258 . S
C1213 O1210 1.320 . S
C1213 O1211 1.214 . S
O1214 Cd1206 2.277 . S
O1214 C1209 1.209 . S
C1215 O1212 1.258 . S
C1215 O1217 1.282 . S
O1216 Cd1208 2.277 . S
O1216 C1209 1.226 . S
O1217 Cd1208 2.356 . S
O1217 C1215 1.282 . S
C1218 O1219 1.306 . S
C1218 O1221 1.160 . S
O1219 C1218 1.306 . S
O1219 Cd1220 2.228 . S
Cd1220 O1219 2.228 . S
Cd1220 O1224 2.273 . S
Cd1220 O1228 2.277 . S
O1221 C1218 1.160 . S
O1221 Cd1222 2.203 . S
Cd1222 O1221 2.203 . S
Cd1222 O1224 2.411 . S
Cd1222 O1225 2.333 . S
Cd1222 O1226 2.352 . S
Cd1222 O1230 2.277 . S
Cd1222 O1231 2.356 . S
C1223 O1228 1.209 . S
C1223 O1230 1.226 . S
O1224 Cd1220 2.273 . S
O1224 Cd1222 2.411 . S
O1224 C1227 1.320 . S
O1225 Cd1222 2.333 . S
O1225 C1227 1.214 . S
O1226 Cd1222 2.352 . S
O1226 C1229 1.258 . S
C1227 O1224 1.320 . S
C1227 O1225 1.214 . S
O1228 Cd1220 2.277 . S
O1228 C1223 1.209 . S
C1229 O1226 1.258 . S
C1229 O1231 1.282 . S
O1230 Cd1222 2.277 . S
O1230 C1223 1.226 . S
O1231 Cd1222 2.356 . S
O1231 C1229 1.282 . S
C1232 O1233 1.306 . S
C1232 O1235 1.160 . S
O1233 C1232 1.306 . S
O1233 Cd1234 2.228 . S
Cd1234 O1233 2.228 . S
Cd1234 O1238 2.273 . S
Cd1234 O1242 2.277 . S
O1235 C1232 1.160 . S
O1235 Cd1236 2.203 . S
Cd1236 O1235 2.203 . S
Cd1236 O1238 2.411 . S
Cd1236 O1239 2.333 . S
Cd1236 O1240 2.352 . S
Cd1236 O1244 2.277 . S
Cd1236 O1245 2.356 . S
C1237 O1242 1.209 . S
C1237 O1244 1.226 . S
O1238 Cd1234 2.273 . S
O1238 Cd1236 2.411 . S
O1238 C1241 1.320 . S
O1239 Cd1236 2.333 . S
O1239 C1241 1.214 . S
O1240 Cd1236 2.352 . S
O1240 C1243 1.258 . S
C1241 O1238 1.320 . S
C1241 O1239 1.214 . S
O1242 Cd1234 2.277 . S
O1242 C1237 1.209 . S
C1243 O1240 1.258 . S
C1243 O1245 1.282 . S
O1244 Cd1236 2.277 . S
O1244 C1237 1.226 . S
O1245 Cd1236 2.356 . S
O1245 C1243 1.282 . S
C1246 O1247 1.306 . S
C1246 O1249 1.160 . S
O1247 C1246 1.306 . S
O1247 Cd1248 2.228 . S
Cd1248 O1247 2.228 . S
Cd1248 O1252 2.273 . S
Cd1248 O1256 2.277 . S
O1249 C1246 1.160 . S
O1249 Cd1250 2.203 . S
Cd1250 O1249 2.203 . S
Cd1250 O1252 2.411 . S
Cd1250 O1253 2.333 . S
Cd1250 O1254 2.352 . S
Cd1250 O1258 2.277 . S
Cd1250 O1259 2.356 . S
C1251 O1256 1.209 . S
C1251 O1258 1.226 . S
O1252 Cd1248 2.273 . S
O1252 Cd1250 2.411 . S
O1252 C1255 1.320 . S
O1253 Cd1250 2.333 . S
O1253 C1255 1.214 . S
O1254 Cd1250 2.352 . S
O1254 C1257 1.258 . S
C1255 O1252 1.320 . S
C1255 O1253 1.214 . S
O1256 Cd1248 2.277 . S
O1256 C1251 1.209 . S
C1257 O1254 1.258 . S
C1257 O1259 1.282 . S
O1258 Cd1250 2.277 . S
O1258 C1251 1.226 . S
O1259 Cd1250 2.356 . S
O1259 C1257 1.282 . S
C1260 O1261 1.306 . S
C1260 O1263 1.160 . S
O1261 C1260 1.306 . S
O1261 Cd1262 2.228 . S
Cd1262 O1261 2.228 . S
Cd1262 O1266 2.273 . S
Cd1262 O1270 2.277 . S
O1263 C1260 1.160 . S
O1263 Cd1264 2.203 . S
Cd1264 O1263 2.203 . S
Cd1264 O1266 2.411 . S
Cd1264 O1267 2.333 . S
Cd1264 O1268 2.352 . S
Cd1264 O1272 2.277 . S
Cd1264 O1273 2.356 . S
C1265 O1270 1.209 . S
C1265 O1272 1.226 . S
O1266 Cd1262 2.273 . S
O1266 Cd1264 2.411 . S
O1266 C1269 1.320 . S
O1267 Cd1264 2.333 . S
O1267 C1269 1.214 . S
O1268 Cd1264 2.352 . S
O1268 C1271 1.258 . S
C1269 O1266 1.320 . S
C1269 O1267 1.214 . S
O1270 Cd1262 2.277 . S
O1270 C1265 1.209 . S
C1271 O1268 1.258 . S
C1271 O1273 1.282 . S
O1272 Cd1264 2.277 . S
O1272 C1265 1.226 . S
O1273 Cd1264 2.356 . S
O1273 C1271 1.282 . S
C1274 O1275 1.306 . S
C1274 O1277 1.160 . S
O1275 C1274 1.306 . S
O1275 Cd1276 2.228 . S
Cd1276 O1275 2.228 . S
Cd1276 O1280 2.273 . S
Cd1276 O1284 2.277 . S
O1277 C1274 1.160 . S
O1277 Cd1278 2.203 . S
Cd1278 O1277 2.203 . S
Cd1278 O1280 2.411 . S
Cd1278 O1281 2.333 . S
Cd1278 O1282 2.352 . S
Cd1278 O1286 2.277 . S
Cd1278 O1287 2.356 . S
C1279 O1284 1.209 . S
C1279 O1286 1.226 . S
O1280 Cd1276 2.273 . S
O1280 Cd1278 2.411 . S
O1280 C1283 1.320 . S
O1281 Cd1278 2.333 . S
O1281 C1283 1.214 . S
O1282 Cd1278 2.352 . S
O1282 C1285 1.258 . S
C1283 O1280 1.320 . S
C1283 O1281 1.214 . S
O1284 Cd1276 2.277 . S
O1284 C1279 1.209 . S
C1285 O1282 1.258 . S
C1285 O1287 1.282 . S
O1286 Cd1278 2.277 . S
O1286 C1279 1.226 . S
O1287 Cd1278 2.356 . S
O1287 C1285 1.282 . S
C1288 O1289 1.306 . S
C1288 O1291 1.160 . S
O1289 C1288 1.306 . S
O1289 Cd1290 2.228 . S
Cd1290 O1289 2.228 . S
Cd1290 O1294 2.273 . S
Cd1290 O1298 2.277 . S
O1291 C1288 1.160 . S
O1291 Cd1292 2.203 . S
Cd1292 O1291 2.203 . S
Cd1292 O1294 2.411 . S
Cd1292 O1295 2.333 . S
Cd1292 O1296 2.352 . S
Cd1292 O1300 2.277 . S
Cd1292 O1301 2.356 . S
C1293 O1298 1.209 . S
C1293 O1300 1.226 . S
O1294 Cd1290 2.273 . S
O1294 Cd1292 2.411 . S
O1294 C1297 1.320 . S
O1295 Cd1292 2.333 . S
O1295 C1297 1.214 . S
O1296 Cd1292 2.352 . S
O1296 C1299 1.258 . S
C1297 O1294 1.320 . S
C1297 O1295 1.214 . S
O1298 Cd1290 2.277 . S
O1298 C1293 1.209 . S
C1299 O1296 1.258 . S
C1299 O1301 1.282 . S
O1300 Cd1292 2.277 . S
O1300 C1293 1.226 . S
O1301 Cd1292 2.356 . S
O1301 C1299 1.282 . S
C1302 O1303 1.306 . S
C1302 O1305 1.160 . S
O1303 C1302 1.306 . S
O1303 Cd1304 2.228 . S
Cd1304 O1303 2.228 . S
Cd1304 O1308 2.273 . S
Cd1304 O1312 2.277 . S
O1305 C1302 1.160 . S
O1305 Cd1306 2.203 . S
Cd1306 O1305 2.203 . S
Cd1306 O1308 2.411 . S
Cd1306 O1309 2.333 . S
Cd1306 O1310 2.352 . S
Cd1306 O1314 2.277 . S
Cd1306 O1315 2.356 . S
C1307 O1312 1.209 . S
C1307 O1314 1.226 . S
O1308 Cd1304 2.273 . S
O1308 Cd1306 2.411 . S
O1308 C1311 1.320 . S
O1309 Cd1306 2.333 . S
O1309 C1311 1.214 . S
O1310 Cd1306 2.352 . S
O1310 C1313 1.258 . S
C1311 O1308 1.320 . S
C1311 O1309 1.214 . S
O1312 Cd1304 2.277 . S
O1312 C1307 1.209 . S
C1313 O1310 1.258 . S
C1313 O1315 1.282 . S
O1314 Cd1306 2.277 . S
O1314 C1307 1.226 . S
O1315 Cd1306 2.356 . S
O1315 C1313 1.282 . S
C1316 O1317 1.306 . S
C1316 O1319 1.160 . S
O1317 C1316 1.306 . S
O1317 Cd1318 2.228 . S
Cd1318 O1317 2.228 . S
Cd1318 O1322 2.273 . S
Cd1318 O1326 2.277 . S
O1319 C1316 1.160 . S
O1319 Cd1320 2.203 . S
Cd1320 O1319 2.203 . S
Cd1320 O1322 2.411 . S
Cd1320 O1323 2.333 . S
Cd1320 O1324 2.352 . S
Cd1320 O1328 2.277 . S
Cd1320 O1329 2.356 . S
C1321 O1326 1.209 . S
C1321 O1328 1.226 . S
O1322 Cd1318 2.273 . S
O1322 Cd1320 2.411 . S
O1322 C1325 1.320 . S
O1323 Cd1320 2.333 . S
O1323 C1325 1.214 . S
O1324 Cd1320 2.352 . S
O1324 C1327 1.258 . S
C1325 O1322 1.320 . S
C1325 O1323 1.214 . S
O1326 Cd1318 2.277 . S
O1326 C1321 1.209 . S
C1327 O1324 1.258 . S
C1327 O1329 1.282 . S
O1328 Cd1320 2.277 . S
O1328 C1321 1.226 . S
O1329 Cd1320 2.356 . S
O1329 C1327 1.282 . S
C1330 O1331 1.306 . S
C1330 O1333 1.160 . S
O1331 C1330 1.306 . S
O1331 Cd1332 2.228 . S
Cd1332 O1331 2.228 . S
Cd1332 O1336 2.273 . S
Cd1332 O1340 2.277 . S
O1333 C1330 1.160 . S
O1333 Cd1334 2.203 . S
Cd1334 O1333 2.203 . S
Cd1334 O1336 2.411 . S
Cd1334 O1337 2.333 . S
Cd1334 O1338 2.352 . S
Cd1334 O1342 2.277 . S
Cd1334 O1343 2.356 . S
C1335 O1340 1.209 . S
C1335 O1342 1.226 . S
O1336 Cd1332 2.273 . S
O1336 Cd1334 2.411 . S
O1336 C1339 1.320 . S
O1337 Cd1334 2.333 . S
O1337 C1339 1.214 . S
O1338 Cd1334 2.352 . S
O1338 C1341 1.258 . S
C1339 O1336 1.320 . S
C1339 O1337 1.214 . S
O1340 Cd1332 2.277 . S
O1340 C1335 1.209 . S
C1341 O1338 1.258 . S
C1341 O1343 1.282 . S
O1342 Cd1334 2.277 . S
O1342 C1335 1.226 . S
O1343 Cd1334 2.356 . S
O1343 C1341 1.282 . S
H1344 C1356 0.930 . S
H1345 C1358 0.930 . S
H1346 C1359 0.930 . S
H1347 C1363 0.959 . S
H1348 C1363 0.959 . S
H1349 C1363 0.961 . S
H1350 C1364 0.960 . S
H1351 C1364 0.961 . S
H1352 C1364 0.959 . S
H1353 C1367 0.929 . S
H1354 C1368 0.931 . S
H1355 C1370 0.930 . S
C1356 H1344 0.930 . S
C1356 C1357 1.399 . S
C1356 C1361 1.399 . S
C1357 C1356 1.399 . S
C1357 C1358 1.376 . S
C1358 H1345 0.930 . S
C1358 C1357 1.376 . S
C1358 C1359 1.388 . S
C1359 H1346 0.930 . S
C1359 C1358 1.388 . S
C1359 C1360 1.390 . S
C1360 C1359 1.390 . S
C1360 C1361 1.394 . S
C1360 C1366 1.465 . S
C1361 C1356 1.399 . S
C1361 C1360 1.394 . S
C1361 C1362 1.516 . S
C1362 C1361 1.516 . S
C1362 C1363 1.502 . S
C1362 C1364 1.561 . S
C1362 C1365 1.526 . S
C1363 H1347 0.959 . S
C1363 H1348 0.959 . S
C1363 H1349 0.961 . S
C1363 C1362 1.502 . S
C1364 H1350 0.960 . S
C1364 H1351 0.961 . S
C1364 H1352 0.959 . S
C1364 C1362 1.561 . S
C1365 C1362 1.526 . S
C1365 C1366 1.396 . S
C1365 C1370 1.390 . S
C1366 C1360 1.465 . S
C1366 C1365 1.396 . S
C1366 C1367 1.399 . S
C1367 H1353 0.929 . S
C1367 C1366 1.399 . S
C1367 C1368 1.385 . S
C1368 H1354 0.931 . S
C1368 C1367 1.385 . S
C1368 C1369 1.389 . S
C1369 C1368 1.389 . S
C1369 C1370 1.387 . S
C1370 H1355 0.930 . S
C1370 C1365 1.390 . S
C1370 C1369 1.387 . S
H1371 C1383 0.930 . S
H1372 C1385 0.930 . S
H1373 C1386 0.930 . S
H1374 C1390 0.959 . S
H1375 C1390 0.959 . S
H1376 C1390 0.961 . S
H1377 C1391 0.960 . S
H1378 C1391 0.961 . S
H1379 C1391 0.959 . S
H1380 C1394 0.929 . S
H1381 C1395 0.931 . S
H1382 C1397 0.930 . S
C1383 H1371 0.930 . S
C1383 C1384 1.399 . S
C1383 C1388 1.399 . S
C1384 C1383 1.399 . S
C1384 C1385 1.376 . S
C1385 H1372 0.930 . S
C1385 C1384 1.376 . S
C1385 C1386 1.388 . S
C1386 H1373 0.930 . S
C1386 C1385 1.388 . S
C1386 C1387 1.390 . S
C1387 C1386 1.390 . S
C1387 C1388 1.394 . S
C1387 C1393 1.465 . S
C1388 C1383 1.399 . S
C1388 C1387 1.394 . S
C1388 C1389 1.516 . S
C1389 C1388 1.516 . S
C1389 C1390 1.502 . S
C1389 C1391 1.561 . S
C1389 C1392 1.526 . S
C1390 H1374 0.959 . S
C1390 H1375 0.959 . S
C1390 H1376 0.961 . S
C1390 C1389 1.502 . S
C1391 H1377 0.960 . S
C1391 H1378 0.961 . S
C1391 H1379 0.959 . S
C1391 C1389 1.561 . S
C1392 C1389 1.526 . S
C1392 C1393 1.396 . S
C1392 C1397 1.390 . S
C1393 C1387 1.465 . S
C1393 C1392 1.396 . S
C1393 C1394 1.399 . S
C1394 H1380 0.929 . S
C1394 C1393 1.399 . S
C1394 C1395 1.385 . S
C1395 H1381 0.931 . S
C1395 C1394 1.385 . S
C1395 C1396 1.389 . S
C1396 C1395 1.389 . S
C1396 C1397 1.387 . S
C1397 H1382 0.930 . S
C1397 C1392 1.390 . S
C1397 C1396 1.387 . S
H1398 C1410 0.930 . S
H1399 C1412 0.930 . S
H1400 C1413 0.930 . S
H1401 C1417 0.959 . S
H1402 C1417 0.959 . S
H1403 C1417 0.961 . S
H1404 C1418 0.960 . S
H1405 C1418 0.961 . S
H1406 C1418 0.959 . S
H1407 C1421 0.929 . S
H1408 C1422 0.931 . S
H1409 C1424 0.930 . S
C1410 H1398 0.930 . S
C1410 C1411 1.399 . S
C1410 C1415 1.399 . S
C1411 C1410 1.399 . S
C1411 C1412 1.376 . S
C1412 H1399 0.930 . S
C1412 C1411 1.376 . S
C1412 C1413 1.388 . S
C1413 H1400 0.930 . S
C1413 C1412 1.388 . S
C1413 C1414 1.390 . S
C1414 C1413 1.390 . S
C1414 C1415 1.394 . S
C1414 C1420 1.465 . S
C1415 C1410 1.399 . S
C1415 C1414 1.394 . S
C1415 C1416 1.516 . S
C1416 C1415 1.516 . S
C1416 C1417 1.502 . S
C1416 C1418 1.561 . S
C1416 C1419 1.526 . S
C1417 H1401 0.959 . S
C1417 H1402 0.959 . S
C1417 H1403 0.961 . S
C1417 C1416 1.502 . S
C1418 H1404 0.960 . S
C1418 H1405 0.961 . S
C1418 H1406 0.959 . S
C1418 C1416 1.561 . S
C1419 C1416 1.526 . S
C1419 C1420 1.396 . S
C1419 C1424 1.390 . S
C1420 C1414 1.465 . S
C1420 C1419 1.396 . S
C1420 C1421 1.399 . S
C1421 H1407 0.929 . S
C1421 C1420 1.399 . S
C1421 C1422 1.385 . S
C1422 H1408 0.931 . S
C1422 C1421 1.385 . S
C1422 C1423 1.389 . S
C1423 C1422 1.389 . S
C1423 C1424 1.387 . S
C1424 H1409 0.930 . S
C1424 C1419 1.390 . S
C1424 C1423 1.387 . S
H1425 C1437 0.930 . S
H1426 C1439 0.930 . S
H1427 C1440 0.930 . S
H1428 C1444 0.959 . S
H1429 C1444 0.959 . S
H1430 C1444 0.961 . S
H1431 C1445 0.960 . S
H1432 C1445 0.961 . S
H1433 C1445 0.959 . S
H1434 C1448 0.929 . S
H1435 C1449 0.931 . S
H1436 C1451 0.930 . S
C1437 H1425 0.930 . S
C1437 C1438 1.399 . S
C1437 C1442 1.399 . S
C1438 C1437 1.399 . S
C1438 C1439 1.376 . S
C1439 H1426 0.930 . S
C1439 C1438 1.376 . S
C1439 C1440 1.388 . S
C1440 H1427 0.930 . S
C1440 C1439 1.388 . S
C1440 C1441 1.390 . S
C1441 C1440 1.390 . S
C1441 C1442 1.394 . S
C1441 C1447 1.465 . S
C1442 C1437 1.399 . S
C1442 C1441 1.394 . S
C1442 C1443 1.516 . S
C1443 C1442 1.516 . S
C1443 C1444 1.502 . S
C1443 C1445 1.561 . S
C1443 C1446 1.526 . S
C1444 H1428 0.959 . S
C1444 H1429 0.959 . S
C1444 H1430 0.961 . S
C1444 C1443 1.502 . S
C1445 H1431 0.960 . S
C1445 H1432 0.961 . S
C1445 H1433 0.959 . S
C1445 C1443 1.561 . S
C1446 C1443 1.526 . S
C1446 C1447 1.396 . S
C1446 C1451 1.390 . S
C1447 C1441 1.465 . S
C1447 C1446 1.396 . S
C1447 C1448 1.399 . S
C1448 H1434 0.929 . S
C1448 C1447 1.399 . S
C1448 C1449 1.385 . S
C1449 H1435 0.931 . S
C1449 C1448 1.385 . S
C1449 C1450 1.389 . S
C1450 C1449 1.389 . S
C1450 C1451 1.387 . S
C1451 H1436 0.930 . S
C1451 C1446 1.390 . S
C1451 C1450 1.387 . S
H1452 C1464 0.930 . S
H1453 C1466 0.930 . S
H1454 C1467 0.930 . S
H1455 C1471 0.959 . S
H1456 C1471 0.959 . S
H1457 C1471 0.961 . S
H1458 C1472 0.960 . S
H1459 C1472 0.961 . S
H1460 C1472 0.959 . S
H1461 C1475 0.929 . S
H1462 C1476 0.931 . S
H1463 C1478 0.930 . S
C1464 H1452 0.930 . S
C1464 C1465 1.399 . S
C1464 C1469 1.399 . S
C1465 C1464 1.399 . S
C1465 C1466 1.376 . S
C1466 H1453 0.930 . S
C1466 C1465 1.376 . S
C1466 C1467 1.388 . S
C1467 H1454 0.930 . S
C1467 C1466 1.388 . S
C1467 C1468 1.390 . S
C1468 C1467 1.390 . S
C1468 C1469 1.394 . S
C1468 C1474 1.465 . S
C1469 C1464 1.399 . S
C1469 C1468 1.394 . S
C1469 C1470 1.516 . S
C1470 C1469 1.516 . S
C1470 C1471 1.502 . S
C1470 C1472 1.561 . S
C1470 C1473 1.526 . S
C1471 H1455 0.959 . S
C1471 H1456 0.959 . S
C1471 H1457 0.961 . S
C1471 C1470 1.502 . S
C1472 H1458 0.960 . S
C1472 H1459 0.961 . S
C1472 H1460 0.959 . S
C1472 C1470 1.561 . S
C1473 C1470 1.526 . S
C1473 C1474 1.396 . S
C1473 C1478 1.390 . S
C1474 C1468 1.465 . S
C1474 C1473 1.396 . S
C1474 C1475 1.399 . S
C1475 H1461 0.929 . S
C1475 C1474 1.399 . S
C1475 C1476 1.385 . S
C1476 H1462 0.931 . S
C1476 C1475 1.385 . S
C1476 C1477 1.389 . S
C1477 C1476 1.389 . S
C1477 C1478 1.387 . S
C1478 H1463 0.930 . S
C1478 C1473 1.390 . S
C1478 C1477 1.387 . S
H1479 C1491 0.930 . S
H1480 C1493 0.930 . S
H1481 C1494 0.930 . S
H1482 C1498 0.959 . S
H1483 C1498 0.959 . S
H1484 C1498 0.961 . S
H1485 C1499 0.960 . S
H1486 C1499 0.961 . S
H1487 C1499 0.959 . S
H1488 C1502 0.929 . S
H1489 C1503 0.931 . S
H1490 C1505 0.930 . S
C1491 H1479 0.930 . S
C1491 C1492 1.399 . S
C1491 C1496 1.399 . S
C1492 C1491 1.399 . S
C1492 C1493 1.376 . S
C1493 H1480 0.930 . S
C1493 C1492 1.376 . S
C1493 C1494 1.388 . S
C1494 H1481 0.930 . S
C1494 C1493 1.388 . S
C1494 C1495 1.390 . S
C1495 C1494 1.390 . S
C1495 C1496 1.394 . S
C1495 C1501 1.465 . S
C1496 C1491 1.399 . S
C1496 C1495 1.394 . S
C1496 C1497 1.516 . S
C1497 C1496 1.516 . S
C1497 C1498 1.502 . S
C1497 C1499 1.561 . S
C1497 C1500 1.526 . S
C1498 H1482 0.959 . S
C1498 H1483 0.959 . S
C1498 H1484 0.961 . S
C1498 C1497 1.502 . S
C1499 H1485 0.960 . S
C1499 H1486 0.961 . S
C1499 H1487 0.959 . S
C1499 C1497 1.561 . S
C1500 C1497 1.526 . S
C1500 C1501 1.396 . S
C1500 C1505 1.390 . S
C1501 C1495 1.465 . S
C1501 C1500 1.396 . S
C1501 C1502 1.399 . S
C1502 H1488 0.929 . S
C1502 C1501 1.399 . S
C1502 C1503 1.385 . S
C1503 H1489 0.931 . S
C1503 C1502 1.385 . S
C1503 C1504 1.389 . S
C1504 C1503 1.389 . S
C1504 C1505 1.387 . S
C1505 H1490 0.930 . S
C1505 C1500 1.390 . S
C1505 C1504 1.387 . S
H1506 C1518 0.930 . S
H1507 C1520 0.930 . S
H1508 C1521 0.930 . S
H1509 C1525 0.959 . S
H1510 C1525 0.959 . S
H1511 C1525 0.961 . S
H1512 C1526 0.960 . S
H1513 C1526 0.961 . S
H1514 C1526 0.959 . S
H1515 C1529 0.929 . S
H1516 C1530 0.931 . S
H1517 C1532 0.930 . S
C1518 H1506 0.930 . S
C1518 C1519 1.399 . S
C1518 C1523 1.399 . S
C1519 C1518 1.399 . S
C1519 C1520 1.376 . S
C1520 H1507 0.930 . S
C1520 C1519 1.376 . S
C1520 C1521 1.388 . S
C1521 H1508 0.930 . S
C1521 C1520 1.388 . S
C1521 C1522 1.390 . S
C1522 C1521 1.390 . S
C1522 C1523 1.394 . S
C1522 C1528 1.465 . S
C1523 C1518 1.399 . S
C1523 C1522 1.394 . S
C1523 C1524 1.516 . S
C1524 C1523 1.516 . S
C1524 C1525 1.502 . S
C1524 C1526 1.561 . S
C1524 C1527 1.526 . S
C1525 H1509 0.959 . S
C1525 H1510 0.959 . S
C1525 H1511 0.961 . S
C1525 C1524 1.502 . S
C1526 H1512 0.960 . S
C1526 H1513 0.961 . S
C1526 H1514 0.959 . S
C1526 C1524 1.561 . S
C1527 C1524 1.526 . S
C1527 C1528 1.396 . S
C1527 C1532 1.390 . S
C1528 C1522 1.465 . S
C1528 C1527 1.396 . S
C1528 C1529 1.399 . S
C1529 H1515 0.929 . S
C1529 C1528 1.399 . S
C1529 C1530 1.385 . S
C1530 H1516 0.931 . S
C1530 C1529 1.385 . S
C1530 C1531 1.389 . S
C1531 C1530 1.389 . S
C1531 C1532 1.387 . S
C1532 H1517 0.930 . S
C1532 C1527 1.390 . S
C1532 C1531 1.387 . S
H1533 C1545 0.930 . S
H1534 C1547 0.930 . S
H1535 C1548 0.930 . S
H1536 C1552 0.959 . S
H1537 C1552 0.959 . S
H1538 C1552 0.961 . S
H1539 C1553 0.960 . S
H1540 C1553 0.961 . S
H1541 C1553 0.959 . S
H1542 C1556 0.929 . S
H1543 C1557 0.931 . S
H1544 C1559 0.930 . S
C1545 H1533 0.930 . S
C1545 C1546 1.399 . S
C1545 C1550 1.399 . S
C1546 C1545 1.399 . S
C1546 C1547 1.376 . S
C1547 H1534 0.930 . S
C1547 C1546 1.376 . S
C1547 C1548 1.388 . S
C1548 H1535 0.930 . S
C1548 C1547 1.388 . S
C1548 C1549 1.390 . S
C1549 C1548 1.390 . S
C1549 C1550 1.394 . S
C1549 C1555 1.465 . S
C1550 C1545 1.399 . S
C1550 C1549 1.394 . S
C1550 C1551 1.516 . S
C1551 C1550 1.516 . S
C1551 C1552 1.502 . S
C1551 C1553 1.561 . S
C1551 C1554 1.526 . S
C1552 H1536 0.959 . S
C1552 H1537 0.959 . S
C1552 H1538 0.961 . S
C1552 C1551 1.502 . S
C1553 H1539 0.960 . S
C1553 H1540 0.961 . S
C1553 H1541 0.959 . S
C1553 C1551 1.561 . S
C1554 C1551 1.526 . S
C1554 C1555 1.396 . S
C1554 C1559 1.390 . S
C1555 C1549 1.465 . S
C1555 C1554 1.396 . S
C1555 C1556 1.399 . S
C1556 H1542 0.929 . S
C1556 C1555 1.399 . S
C1556 C1557 1.385 . S
C1557 H1543 0.931 . S
C1557 C1556 1.385 . S
C1557 C1558 1.389 . S
C1558 C1557 1.389 . S
C1558 C1559 1.387 . S
C1559 H1544 0.930 . S
C1559 C1554 1.390 . S
C1559 C1558 1.387 . S
H1560 C1572 0.930 . S
H1561 C1574 0.930 . S
H1562 C1575 0.930 . S
H1563 C1579 0.959 . S
H1564 C1579 0.959 . S
H1565 C1579 0.961 . S
H1566 C1580 0.960 . S
H1567 C1580 0.961 . S
H1568 C1580 0.959 . S
H1569 C1583 0.929 . S
H1570 C1584 0.931 . S
H1571 C1586 0.930 . S
C1572 H1560 0.930 . S
C1572 C1573 1.399 . S
C1572 C1577 1.399 . S
C1573 C1572 1.399 . S
C1573 C1574 1.376 . S
C1574 H1561 0.930 . S
C1574 C1573 1.376 . S
C1574 C1575 1.388 . S
C1575 H1562 0.930 . S
C1575 C1574 1.388 . S
C1575 C1576 1.390 . S
C1576 C1575 1.390 . S
C1576 C1577 1.394 . S
C1576 C1582 1.465 . S
C1577 C1572 1.399 . S
C1577 C1576 1.394 . S
C1577 C1578 1.516 . S
C1578 C1577 1.516 . S
C1578 C1579 1.502 . S
C1578 C1580 1.561 . S
C1578 C1581 1.526 . S
C1579 H1563 0.959 . S
C1579 H1564 0.959 . S
C1579 H1565 0.961 . S
C1579 C1578 1.502 . S
C1580 H1566 0.960 . S
C1580 H1567 0.961 . S
C1580 H1568 0.959 . S
C1580 C1578 1.561 . S
C1581 C1578 1.526 . S
C1581 C1582 1.396 . S
C1581 C1586 1.390 . S
C1582 C1576 1.465 . S
C1582 C1581 1.396 . S
C1582 C1583 1.399 . S
C1583 H1569 0.929 . S
C1583 C1582 1.399 . S
C1583 C1584 1.385 . S
C1584 H1570 0.931 . S
C1584 C1583 1.385 . S
C1584 C1585 1.389 . S
C1585 C1584 1.389 . S
C1585 C1586 1.387 . S
C1586 H1571 0.930 . S
C1586 C1581 1.390 . S
C1586 C1585 1.387 . S
H1587 C1599 0.930 . S
H1588 C1601 0.930 . S
H1589 C1602 0.930 . S
H1590 C1606 0.959 . S
H1591 C1606 0.959 . S
H1592 C1606 0.961 . S
H1593 C1607 0.960 . S
H1594 C1607 0.961 . S
H1595 C1607 0.959 . S
H1596 C1610 0.929 . S
H1597 C1611 0.931 . S
H1598 C1613 0.930 . S
C1599 H1587 0.930 . S
C1599 C1600 1.399 . S
C1599 C1604 1.399 . S
C1600 C1599 1.399 . S
C1600 C1601 1.376 . S
C1601 H1588 0.930 . S
C1601 C1600 1.376 . S
C1601 C1602 1.388 . S
C1602 H1589 0.930 . S
C1602 C1601 1.388 . S
C1602 C1603 1.390 . S
C1603 C1602 1.390 . S
C1603 C1604 1.394 . S
C1603 C1609 1.465 . S
C1604 C1599 1.399 . S
C1604 C1603 1.394 . S
C1604 C1605 1.516 . S
C1605 C1604 1.516 . S
C1605 C1606 1.502 . S
C1605 C1607 1.561 . S
C1605 C1608 1.526 . S
C1606 H1590 0.959 . S
C1606 H1591 0.959 . S
C1606 H1592 0.961 . S
C1606 C1605 1.502 . S
C1607 H1593 0.960 . S
C1607 H1594 0.961 . S
C1607 H1595 0.959 . S
C1607 C1605 1.561 . S
C1608 C1605 1.526 . S
C1608 C1609 1.396 . S
C1608 C1613 1.390 . S
C1609 C1603 1.465 . S
C1609 C1608 1.396 . S
C1609 C1610 1.399 . S
C1610 H1596 0.929 . S
C1610 C1609 1.399 . S
C1610 C1611 1.385 . S
C1611 H1597 0.931 . S
C1611 C1610 1.385 . S
C1611 C1612 1.389 . S
C1612 C1611 1.389 . S
C1612 C1613 1.387 . S
C1613 H1598 0.930 . S
C1613 C1608 1.390 . S
C1613 C1612 1.387 . S
H1614 C1626 0.930 . S
H1615 C1628 0.930 . S
H1616 C1629 0.930 . S
H1617 C1633 0.959 . S
H1618 C1633 0.959 . S
H1619 C1633 0.961 . S
H1620 C1634 0.960 . S
H1621 C1634 0.961 . S
H1622 C1634 0.959 . S
H1623 C1637 0.929 . S
H1624 C1638 0.931 . S
H1625 C1640 0.930 . S
C1626 H1614 0.930 . S
C1626 C1627 1.399 . S
C1626 C1631 1.399 . S
C1627 C1626 1.399 . S
C1627 C1628 1.376 . S
C1628 H1615 0.930 . S
C1628 C1627 1.376 . S
C1628 C1629 1.388 . S
C1629 H1616 0.930 . S
C1629 C1628 1.388 . S
C1629 C1630 1.390 . S
C1630 C1629 1.390 . S
C1630 C1631 1.394 . S
C1630 C1636 1.465 . S
C1631 C1626 1.399 . S
C1631 C1630 1.394 . S
C1631 C1632 1.516 . S
C1632 C1631 1.516 . S
C1632 C1633 1.502 . S
C1632 C1634 1.561 . S
C1632 C1635 1.526 . S
C1633 H1617 0.959 . S
C1633 H1618 0.959 . S
C1633 H1619 0.961 . S
C1633 C1632 1.502 . S
C1634 H1620 0.960 . S
C1634 H1621 0.961 . S
C1634 H1622 0.959 . S
C1634 C1632 1.561 . S
C1635 C1632 1.526 . S
C1635 C1636 1.396 . S
C1635 C1640 1.390 . S
C1636 C1630 1.465 . S
C1636 C1635 1.396 . S
C1636 C1637 1.399 . S
C1637 H1623 0.929 . S
C1637 C1636 1.399 . S
C1637 C1638 1.385 . S
C1638 H1624 0.931 . S
C1638 C1637 1.385 . S
C1638 C1639 1.389 . S
C1639 C1638 1.389 . S
C1639 C1640 1.387 . S
C1640 H1625 0.930 . S
C1640 C1635 1.390 . S
C1640 C1639 1.387 . S
H1641 C1653 0.930 . S
H1642 C1655 0.930 . S
H1643 C1656 0.930 . S
H1644 C1660 0.959 . S
H1645 C1660 0.959 . S
H1646 C1660 0.961 . S
H1647 C1661 0.960 . S
H1648 C1661 0.961 . S
H1649 C1661 0.959 . S
H1650 C1664 0.929 . S
H1651 C1665 0.931 . S
H1652 C1667 0.930 . S
C1653 H1641 0.930 . S
C1653 C1654 1.399 . S
C1653 C1658 1.399 . S
C1654 C1653 1.399 . S
C1654 C1655 1.376 . S
C1655 H1642 0.930 . S
C1655 C1654 1.376 . S
C1655 C1656 1.388 . S
C1656 H1643 0.930 . S
C1656 C1655 1.388 . S
C1656 C1657 1.390 . S
C1657 C1656 1.390 . S
C1657 C1658 1.394 . S
C1657 C1663 1.465 . S
C1658 C1653 1.399 . S
C1658 C1657 1.394 . S
C1658 C1659 1.516 . S
C1659 C1658 1.516 . S
C1659 C1660 1.502 . S
C1659 C1661 1.561 . S
C1659 C1662 1.526 . S
C1660 H1644 0.959 . S
C1660 H1645 0.959 . S
C1660 H1646 0.961 . S
C1660 C1659 1.502 . S
C1661 H1647 0.960 . S
C1661 H1648 0.961 . S
C1661 H1649 0.959 . S
C1661 C1659 1.561 . S
C1662 C1659 1.526 . S
C1662 C1663 1.396 . S
C1662 C1667 1.390 . S
C1663 C1657 1.465 . S
C1663 C1662 1.396 . S
C1663 C1664 1.399 . S
C1664 H1650 0.929 . S
C1664 C1663 1.399 . S
C1664 C1665 1.385 . S
C1665 H1651 0.931 . S
C1665 C1664 1.385 . S
C1665 C1666 1.389 . S
C1666 C1665 1.389 . S
C1666 C1667 1.387 . S
C1667 H1652 0.930 . S
C1667 C1662 1.390 . S
C1667 C1666 1.387 . S
H1668 C1680 0.930 . S
H1669 C1682 0.930 . S
H1670 C1683 0.930 . S
H1671 C1687 0.959 . S
H1672 C1687 0.959 . S
H1673 C1687 0.961 . S
H1674 C1688 0.960 . S
H1675 C1688 0.961 . S
H1676 C1688 0.959 . S
H1677 C1691 0.929 . S
H1678 C1692 0.931 . S
H1679 C1694 0.930 . S
C1680 H1668 0.930 . S
C1680 C1681 1.399 . S
C1680 C1685 1.399 . S
C1681 C1680 1.399 . S
C1681 C1682 1.376 . S
C1682 H1669 0.930 . S
C1682 C1681 1.376 . S
C1682 C1683 1.388 . S
C1683 H1670 0.930 . S
C1683 C1682 1.388 . S
C1683 C1684 1.390 . S
C1684 C1683 1.390 . S
C1684 C1685 1.394 . S
C1684 C1690 1.465 . S
C1685 C1680 1.399 . S
C1685 C1684 1.394 . S
C1685 C1686 1.516 . S
C1686 C1685 1.516 . S
C1686 C1687 1.502 . S
C1686 C1688 1.561 . S
C1686 C1689 1.526 . S
C1687 H1671 0.959 . S
C1687 H1672 0.959 . S
C1687 H1673 0.961 . S
C1687 C1686 1.502 . S
C1688 H1674 0.960 . S
C1688 H1675 0.961 . S
C1688 H1676 0.959 . S
C1688 C1686 1.561 . S
C1689 C1686 1.526 . S
C1689 C1690 1.396 . S
C1689 C1694 1.390 . S
C1690 C1684 1.465 . S
C1690 C1689 1.396 . S
C1690 C1691 1.399 . S
C1691 H1677 0.929 . S
C1691 C1690 1.399 . S
C1691 C1692 1.385 . S
C1692 H1678 0.931 . S
C1692 C1691 1.385 . S
C1692 C1693 1.389 . S
C1693 C1692 1.389 . S
C1693 C1694 1.387 . S
C1694 H1679 0.930 . S
C1694 C1689 1.390 . S
C1694 C1693 1.387 . S
H1695 C1707 0.930 . S
H1696 C1709 0.930 . S
H1697 C1710 0.930 . S
H1698 C1714 0.959 . S
H1699 C1714 0.959 . S
H1700 C1714 0.961 . S
H1701 C1715 0.960 . S
H1702 C1715 0.961 . S
H1703 C1715 0.959 . S
H1704 C1718 0.929 . S
H1705 C1719 0.931 . S
H1706 C1721 0.930 . S
C1707 H1695 0.930 . S
C1707 C1708 1.399 . S
C1707 C1712 1.399 . S
C1708 C1707 1.399 . S
C1708 C1709 1.376 . S
C1709 H1696 0.930 . S
C1709 C1708 1.376 . S
C1709 C1710 1.388 . S
C1710 H1697 0.930 . S
C1710 C1709 1.388 . S
C1710 C1711 1.390 . S
C1711 C1710 1.390 . S
C1711 C1712 1.394 . S
C1711 C1717 1.465 . S
C1712 C1707 1.399 . S
C1712 C1711 1.394 . S
C1712 C1713 1.516 . S
C1713 C1712 1.516 . S
C1713 C1714 1.502 . S
C1713 C1715 1.561 . S
C1713 C1716 1.526 . S
C1714 H1698 0.959 . S
C1714 H1699 0.959 . S
C1714 H1700 0.961 . S
C1714 C1713 1.502 . S
C1715 H1701 0.960 . S
C1715 H1702 0.961 . S
C1715 H1703 0.959 . S
C1715 C1713 1.561 . S
C1716 C1713 1.526 . S
C1716 C1717 1.396 . S
C1716 C1721 1.390 . S
C1717 C1711 1.465 . S
C1717 C1716 1.396 . S
C1717 C1718 1.399 . S
C1718 H1704 0.929 . S
C1718 C1717 1.399 . S
C1718 C1719 1.385 . S
C1719 H1705 0.931 . S
C1719 C1718 1.385 . S
C1719 C1720 1.389 . S
C1720 C1719 1.389 . S
C1720 C1721 1.387 . S
C1721 H1706 0.930 . S
C1721 C1716 1.390 . S
C1721 C1720 1.387 . S
H1722 C1734 0.930 . S
H1723 C1736 0.930 . S
H1724 C1737 0.930 . S
H1725 C1741 0.959 . S
H1726 C1741 0.959 . S
H1727 C1741 0.961 . S
H1728 C1742 0.960 . S
H1729 C1742 0.961 . S
H1730 C1742 0.959 . S
H1731 C1745 0.929 . S
H1732 C1746 0.931 . S
H1733 C1748 0.930 . S
C1734 H1722 0.930 . S
C1734 C1735 1.399 . S
C1734 C1739 1.399 . S
C1735 C1734 1.399 . S
C1735 C1736 1.376 . S
C1736 H1723 0.930 . S
C1736 C1735 1.376 . S
C1736 C1737 1.388 . S
C1737 H1724 0.930 . S
C1737 C1736 1.388 . S
C1737 C1738 1.390 . S
C1738 C1737 1.390 . S
C1738 C1739 1.394 . S
C1738 C1744 1.465 . S
C1739 C1734 1.399 . S
C1739 C1738 1.394 . S
C1739 C1740 1.516 . S
C1740 C1739 1.516 . S
C1740 C1741 1.502 . S
C1740 C1742 1.561 . S
C1740 C1743 1.526 . S
C1741 H1725 0.959 . S
C1741 H1726 0.959 . S
C1741 H1727 0.961 . S
C1741 C1740 1.502 . S
C1742 H1728 0.960 . S
C1742 H1729 0.961 . S
C1742 H1730 0.959 . S
C1742 C1740 1.561 . S
C1743 C1740 1.526 . S
C1743 C1744 1.396 . S
C1743 C1748 1.390 . S
C1744 C1738 1.465 . S
C1744 C1743 1.396 . S
C1744 C1745 1.399 . S
C1745 H1731 0.929 . S
C1745 C1744 1.399 . S
C1745 C1746 1.385 . S
C1746 H1732 0.931 . S
C1746 C1745 1.385 . S
C1746 C1747 1.389 . S
C1747 C1746 1.389 . S
C1747 C1748 1.387 . S
C1748 H1733 0.930 . S
C1748 C1743 1.390 . S
C1748 C1747 1.387 . S
H1749 C1761 0.930 . S
H1750 C1763 0.930 . S
H1751 C1764 0.930 . S
H1752 C1768 0.959 . S
H1753 C1768 0.959 . S
H1754 C1768 0.961 . S
H1755 C1769 0.960 . S
H1756 C1769 0.961 . S
H1757 C1769 0.959 . S
H1758 C1772 0.929 . S
H1759 C1773 0.931 . S
H1760 C1775 0.930 . S
C1761 H1749 0.930 . S
C1761 C1762 1.399 . S
C1761 C1766 1.399 . S
C1762 C1761 1.399 . S
C1762 C1763 1.376 . S
C1763 H1750 0.930 . S
C1763 C1762 1.376 . S
C1763 C1764 1.388 . S
C1764 H1751 0.930 . S
C1764 C1763 1.388 . S
C1764 C1765 1.390 . S
C1765 C1764 1.390 . S
C1765 C1766 1.394 . S
C1765 C1771 1.465 . S
C1766 C1761 1.399 . S
C1766 C1765 1.394 . S
C1766 C1767 1.516 . S
C1767 C1766 1.516 . S
C1767 C1768 1.502 . S
C1767 C1769 1.561 . S
C1767 C1770 1.526 . S
C1768 H1752 0.959 . S
C1768 H1753 0.959 . S
C1768 H1754 0.961 . S
C1768 C1767 1.502 . S
C1769 H1755 0.960 . S
C1769 H1756 0.961 . S
C1769 H1757 0.959 . S
C1769 C1767 1.561 . S
C1770 C1767 1.526 . S
C1770 C1771 1.396 . S
C1770 C1775 1.390 . S
C1771 C1765 1.465 . S
C1771 C1770 1.396 . S
C1771 C1772 1.399 . S
C1772 H1758 0.929 . S
C1772 C1771 1.399 . S
C1772 C1773 1.385 . S
C1773 H1759 0.931 . S
C1773 C1772 1.385 . S
C1773 C1774 1.389 . S
C1774 C1773 1.389 . S
C1774 C1775 1.387 . S
C1775 H1760 0.930 . S
C1775 C1770 1.390 . S
C1775 C1774 1.387 . S
H1776 C1788 0.930 . S
H1777 C1790 0.930 . S
H1778 C1791 0.930 . S
H1779 C1795 0.959 . S
H1780 C1795 0.959 . S
H1781 C1795 0.961 . S
H1782 C1796 0.960 . S
H1783 C1796 0.961 . S
H1784 C1796 0.959 . S
H1785 C1799 0.929 . S
H1786 C1800 0.931 . S
H1787 C1802 0.930 . S
C1788 H1776 0.930 . S
C1788 C1789 1.399 . S
C1788 C1793 1.399 . S
C1789 C1788 1.399 . S
C1789 C1790 1.376 . S
C1790 H1777 0.930 . S
C1790 C1789 1.376 . S
C1790 C1791 1.388 . S
C1791 H1778 0.930 . S
C1791 C1790 1.388 . S
C1791 C1792 1.390 . S
C1792 C1791 1.390 . S
C1792 C1793 1.394 . S
C1792 C1798 1.465 . S
C1793 C1788 1.399 . S
C1793 C1792 1.394 . S
C1793 C1794 1.516 . S
C1794 C1793 1.516 . S
C1794 C1795 1.502 . S
C1794 C1796 1.561 . S
C1794 C1797 1.526 . S
C1795 H1779 0.959 . S
C1795 H1780 0.959 . S
C1795 H1781 0.961 . S
C1795 C1794 1.502 . S
C1796 H1782 0.960 . S
C1796 H1783 0.961 . S
C1796 H1784 0.959 . S
C1796 C1794 1.561 . S
C1797 C1794 1.526 . S
C1797 C1798 1.396 . S
C1797 C1802 1.390 . S
C1798 C1792 1.465 . S
C1798 C1797 1.396 . S
C1798 C1799 1.399 . S
C1799 H1785 0.929 . S
C1799 C1798 1.399 . S
C1799 C1800 1.385 . S
C1800 H1786 0.931 . S
C1800 C1799 1.385 . S
C1800 C1801 1.389 . S
C1801 C1800 1.389 . S
C1801 C1802 1.387 . S
C1802 H1787 0.930 . S
C1802 C1797 1.390 . S
C1802 C1801 1.387 . S
H1803 C1815 0.930 . S
H1804 C1817 0.930 . S
H1805 C1818 0.930 . S
H1806 C1822 0.959 . S
H1807 C1822 0.959 . S
H1808 C1822 0.961 . S
H1809 C1823 0.960 . S
H1810 C1823 0.961 . S
H1811 C1823 0.959 . S
H1812 C1826 0.929 . S
H1813 C1827 0.931 . S
H1814 C1829 0.930 . S
C1815 H1803 0.930 . S
C1815 C1816 1.399 . S
C1815 C1820 1.399 . S
C1816 C1815 1.399 . S
C1816 C1817 1.376 . S
C1817 H1804 0.930 . S
C1817 C1816 1.376 . S
C1817 C1818 1.388 . S
C1818 H1805 0.930 . S
C1818 C1817 1.388 . S
C1818 C1819 1.390 . S
C1819 C1818 1.390 . S
C1819 C1820 1.394 . S
C1819 C1825 1.465 . S
C1820 C1815 1.399 . S
C1820 C1819 1.394 . S
C1820 C1821 1.516 . S
C1821 C1820 1.516 . S
C1821 C1822 1.502 . S
C1821 C1823 1.561 . S
C1821 C1824 1.526 . S
C1822 H1806 0.959 . S
C1822 H1807 0.959 . S
C1822 H1808 0.961 . S
C1822 C1821 1.502 . S
C1823 H1809 0.960 . S
C1823 H1810 0.961 . S
C1823 H1811 0.959 . S
C1823 C1821 1.561 . S
C1824 C1821 1.526 . S
C1824 C1825 1.396 . S
C1824 C1829 1.390 . S
C1825 C1819 1.465 . S
C1825 C1824 1.396 . S
C1825 C1826 1.399 . S
C1826 H1812 0.929 . S
C1826 C1825 1.399 . S
C1826 C1827 1.385 . S
C1827 H1813 0.931 . S
C1827 C1826 1.385 . S
C1827 C1828 1.389 . S
C1828 C1827 1.389 . S
C1828 C1829 1.387 . S
C1829 H1814 0.930 . S
C1829 C1824 1.390 . S
C1829 C1828 1.387 . S
H1830 C1842 0.930 . S
H1831 C1844 0.930 . S
H1832 C1845 0.930 . S
H1833 C1849 0.959 . S
H1834 C1849 0.959 . S
H1835 C1849 0.961 . S
H1836 C1850 0.960 . S
H1837 C1850 0.961 . S
H1838 C1850 0.959 . S
H1839 C1853 0.929 . S
H1840 C1854 0.931 . S
H1841 C1856 0.930 . S
C1842 H1830 0.930 . S
C1842 C1843 1.399 . S
C1842 C1847 1.399 . S
C1843 C1842 1.399 . S
C1843 C1844 1.376 . S
C1844 H1831 0.930 . S
C1844 C1843 1.376 . S
C1844 C1845 1.388 . S
C1845 H1832 0.930 . S
C1845 C1844 1.388 . S
C1845 C1846 1.390 . S
C1846 C1845 1.390 . S
C1846 C1847 1.394 . S
C1846 C1852 1.465 . S
C1847 C1842 1.399 . S
C1847 C1846 1.394 . S
C1847 C1848 1.516 . S
C1848 C1847 1.516 . S
C1848 C1849 1.502 . S
C1848 C1850 1.561 . S
C1848 C1851 1.526 . S
C1849 H1833 0.959 . S
C1849 H1834 0.959 . S
C1849 H1835 0.961 . S
C1849 C1848 1.502 . S
C1850 H1836 0.960 . S
C1850 H1837 0.961 . S
C1850 H1838 0.959 . S
C1850 C1848 1.561 . S
C1851 C1848 1.526 . S
C1851 C1852 1.396 . S
C1851 C1856 1.390 . S
C1852 C1846 1.465 . S
C1852 C1851 1.396 . S
C1852 C1853 1.399 . S
C1853 H1839 0.929 . S
C1853 C1852 1.399 . S
C1853 C1854 1.385 . S
C1854 H1840 0.931 . S
C1854 C1853 1.385 . S
C1854 C1855 1.389 . S
C1855 C1854 1.389 . S
C1855 C1856 1.387 . S
C1856 H1841 0.930 . S
C1856 C1851 1.390 . S
C1856 C1855 1.387 . S
H1857 C1869 0.930 . S
H1858 C1871 0.930 . S
H1859 C1872 0.930 . S
H1860 C1876 0.959 . S
H1861 C1876 0.959 . S
H1862 C1876 0.961 . S
H1863 C1877 0.960 . S
H1864 C1877 0.961 . S
H1865 C1877 0.959 . S
H1866 C1880 0.929 . S
H1867 C1881 0.931 . S
H1868 C1883 0.930 . S
C1869 H1857 0.930 . S
C1869 C1870 1.399 . S
C1869 C1874 1.399 . S
C1870 C1869 1.399 . S
C1870 C1871 1.376 . S
C1871 H1858 0.930 . S
C1871 C1870 1.376 . S
C1871 C1872 1.388 . S
C1872 H1859 0.930 . S
C1872 C1871 1.388 . S
C1872 C1873 1.390 . S
C1873 C1872 1.390 . S
C1873 C1874 1.394 . S
C1873 C1879 1.465 . S
C1874 C1869 1.399 . S
C1874 C1873 1.394 . S
C1874 C1875 1.516 . S
C1875 C1874 1.516 . S
C1875 C1876 1.502 . S
C1875 C1877 1.561 . S
C1875 C1878 1.526 . S
C1876 H1860 0.959 . S
C1876 H1861 0.959 . S
C1876 H1862 0.961 . S
C1876 C1875 1.502 . S
C1877 H1863 0.960 . S
C1877 H1864 0.961 . S
C1877 H1865 0.959 . S
C1877 C1875 1.561 . S
C1878 C1875 1.526 . S
C1878 C1879 1.396 . S
C1878 C1883 1.390 . S
C1879 C1873 1.465 . S
C1879 C1878 1.396 . S
C1879 C1880 1.399 . S
C1880 H1866 0.929 . S
C1880 C1879 1.399 . S
C1880 C1881 1.385 . S
C1881 H1867 0.931 . S
C1881 C1880 1.385 . S
C1881 C1882 1.389 . S
C1882 C1881 1.389 . S
C1882 C1883 1.387 . S
C1883 H1868 0.930 . S
C1883 C1878 1.390 . S
C1883 C1882 1.387 . S
H1884 C1896 0.930 . S
H1885 C1898 0.930 . S
H1886 C1899 0.930 . S
H1887 C1903 0.959 . S
H1888 C1903 0.959 . S
H1889 C1903 0.961 . S
H1890 C1904 0.960 . S
H1891 C1904 0.961 . S
H1892 C1904 0.959 . S
H1893 C1907 0.929 . S
H1894 C1908 0.931 . S
H1895 C1910 0.930 . S
C1896 H1884 0.930 . S
C1896 C1897 1.399 . S
C1896 C1901 1.399 . S
C1897 C1896 1.399 . S
C1897 C1898 1.376 . S
C1898 H1885 0.930 . S
C1898 C1897 1.376 . S
C1898 C1899 1.388 . S
C1899 H1886 0.930 . S
C1899 C1898 1.388 . S
C1899 C1900 1.390 . S
C1900 C1899 1.390 . S
C1900 C1901 1.394 . S
C1900 C1906 1.465 . S
C1901 C1896 1.399 . S
C1901 C1900 1.394 . S
C1901 C1902 1.516 . S
C1902 C1901 1.516 . S
C1902 C1903 1.502 . S
C1902 C1904 1.561 . S
C1902 C1905 1.526 . S
C1903 H1887 0.959 . S
C1903 H1888 0.959 . S
C1903 H1889 0.961 . S
C1903 C1902 1.502 . S
C1904 H1890 0.960 . S
C1904 H1891 0.961 . S
C1904 H1892 0.959 . S
C1904 C1902 1.561 . S
C1905 C1902 1.526 . S
C1905 C1906 1.396 . S
C1905 C1910 1.390 . S
C1906 C1900 1.465 . S
C1906 C1905 1.396 . S
C1906 C1907 1.399 . S
C1907 H1893 0.929 . S
C1907 C1906 1.399 . S
C1907 C1908 1.385 . S
C1908 H1894 0.931 . S
C1908 C1907 1.385 . S
C1908 C1909 1.389 . S
C1909 C1908 1.389 . S
C1909 C1910 1.387 . S
C1910 H1895 0.930 . S
C1910 C1905 1.390 . S
C1910 C1909 1.387 . S
H1911 C1923 0.930 . S
H1912 C1925 0.930 . S
H1913 C1926 0.930 . S
H1914 C1930 0.959 . S
H1915 C1930 0.959 . S
H1916 C1930 0.961 . S
H1917 C1931 0.960 . S
H1918 C1931 0.961 . S
H1919 C1931 0.959 . S
H1920 C1934 0.929 . S
H1921 C1935 0.931 . S
H1922 C1937 0.930 . S
C1923 H1911 0.930 . S
C1923 C1924 1.399 . S
C1923 C1928 1.399 . S
C1924 C1923 1.399 . S
C1924 C1925 1.376 . S
C1925 H1912 0.930 . S
C1925 C1924 1.376 . S
C1925 C1926 1.388 . S
C1926 H1913 0.930 . S
C1926 C1925 1.388 . S
C1926 C1927 1.390 . S
C1927 C1926 1.390 . S
C1927 C1928 1.394 . S
C1927 C1933 1.465 . S
C1928 C1923 1.399 . S
C1928 C1927 1.394 . S
C1928 C1929 1.516 . S
C1929 C1928 1.516 . S
C1929 C1930 1.502 . S
C1929 C1931 1.561 . S
C1929 C1932 1.526 . S
C1930 H1914 0.959 . S
C1930 H1915 0.959 . S
C1930 H1916 0.961 . S
C1930 C1929 1.502 . S
C1931 H1917 0.960 . S
C1931 H1918 0.961 . S
C1931 H1919 0.959 . S
C1931 C1929 1.561 . S
C1932 C1929 1.526 . S
C1932 C1933 1.396 . S
C1932 C1937 1.390 . S
C1933 C1927 1.465 . S
C1933 C1932 1.396 . S
C1933 C1934 1.399 . S
C1934 H1920 0.929 . S
C1934 C1933 1.399 . S
C1934 C1935 1.385 . S
C1935 H1921 0.931 . S
C1935 C1934 1.385 . S
C1935 C1936 1.389 . S
C1936 C1935 1.389 . S
C1936 C1937 1.387 . S
C1937 H1922 0.930 . S
C1937 C1932 1.390 . S
C1937 C1936 1.387 . S
H1938 C1950 0.930 . S
H1939 C1952 0.930 . S
H1940 C1953 0.930 . S
H1941 C1957 0.959 . S
H1942 C1957 0.959 . S
H1943 C1957 0.961 . S
H1944 C1958 0.960 . S
H1945 C1958 0.961 . S
H1946 C1958 0.959 . S
H1947 C1961 0.929 . S
H1948 C1962 0.931 . S
H1949 C1964 0.930 . S
C1950 H1938 0.930 . S
C1950 C1951 1.399 . S
C1950 C1955 1.399 . S
C1951 C1950 1.399 . S
C1951 C1952 1.376 . S
C1952 H1939 0.930 . S
C1952 C1951 1.376 . S
C1952 C1953 1.388 . S
C1953 H1940 0.930 . S
C1953 C1952 1.388 . S
C1953 C1954 1.390 . S
C1954 C1953 1.390 . S
C1954 C1955 1.394 . S
C1954 C1960 1.465 . S
C1955 C1950 1.399 . S
C1955 C1954 1.394 . S
C1955 C1956 1.516 . S
C1956 C1955 1.516 . S
C1956 C1957 1.502 . S
C1956 C1958 1.561 . S
C1956 C1959 1.526 . S
C1957 H1941 0.959 . S
C1957 H1942 0.959 . S
C1957 H1943 0.961 . S
C1957 C1956 1.502 . S
C1958 H1944 0.960 . S
C1958 H1945 0.961 . S
C1958 H1946 0.959 . S
C1958 C1956 1.561 . S
C1959 C1956 1.526 . S
C1959 C1960 1.396 . S
C1959 C1964 1.390 . S
C1960 C1954 1.465 . S
C1960 C1959 1.396 . S
C1960 C1961 1.399 . S
C1961 H1947 0.929 . S
C1961 C1960 1.399 . S
C1961 C1962 1.385 . S
C1962 H1948 0.931 . S
C1962 C1961 1.385 . S
C1962 C1963 1.389 . S
C1963 C1962 1.389 . S
C1963 C1964 1.387 . S
C1964 H1949 0.930 . S
C1964 C1959 1.390 . S
C1964 C1963 1.387 . S
H1965 C1977 0.930 . S
H1966 C1979 0.930 . S
H1967 C1980 0.930 . S
H1968 C1984 0.959 . S
H1969 C1984 0.959 . S
H1970 C1984 0.961 . S
H1971 C1985 0.960 . S
H1972 C1985 0.961 . S
H1973 C1985 0.959 . S
H1974 C1988 0.929 . S
H1975 C1989 0.931 . S
H1976 C1991 0.930 . S
C1977 H1965 0.930 . S
C1977 C1978 1.399 . S
C1977 C1982 1.399 . S
C1978 C1977 1.399 . S
C1978 C1979 1.376 . S
C1979 H1966 0.930 . S
C1979 C1978 1.376 . S
C1979 C1980 1.388 . S
C1980 H1967 0.930 . S
C1980 C1979 1.388 . S
C1980 C1981 1.390 . S
C1981 C1980 1.390 . S
C1981 C1982 1.394 . S
C1981 C1987 1.465 . S
C1982 C1977 1.399 . S
C1982 C1981 1.394 . S
C1982 C1983 1.516 . S
C1983 C1982 1.516 . S
C1983 C1984 1.502 . S
C1983 C1985 1.561 . S
C1983 C1986 1.526 . S
C1984 H1968 0.959 . S
C1984 H1969 0.959 . S
C1984 H1970 0.961 . S
C1984 C1983 1.502 . S
C1985 H1971 0.960 . S
C1985 H1972 0.961 . S
C1985 H1973 0.959 . S
C1985 C1983 1.561 . S
C1986 C1983 1.526 . S
C1986 C1987 1.396 . S
C1986 C1991 1.390 . S
C1987 C1981 1.465 . S
C1987 C1986 1.396 . S
C1987 C1988 1.399 . S
C1988 H1974 0.929 . S
C1988 C1987 1.399 . S
C1988 C1989 1.385 . S
C1989 H1975 0.931 . S
C1989 C1988 1.385 . S
C1989 C1990 1.389 . S
C1990 C1989 1.389 . S
C1990 C1991 1.387 . S
C1991 H1976 0.930 . S
C1991 C1986 1.390 . S
C1991 C1990 1.387 . S
H1992 C2004 0.930 . S
H1993 C2006 0.930 . S
H1994 C2007 0.930 . S
H1995 C2011 0.959 . S
H1996 C2011 0.959 . S
H1997 C2011 0.961 . S
H1998 C2012 0.960 . S
H1999 C2012 0.961 . S
H2000 C2012 0.959 . S
H2001 C2015 0.929 . S
H2002 C2016 0.931 . S
H2003 C2018 0.930 . S
C2004 H1992 0.930 . S
C2004 C2005 1.399 . S
C2004 C2009 1.399 . S
C2005 C2004 1.399 . S
C2005 C2006 1.376 . S
C2006 H1993 0.930 . S
C2006 C2005 1.376 . S
C2006 C2007 1.388 . S
C2007 H1994 0.930 . S
C2007 C2006 1.388 . S
C2007 C2008 1.390 . S
C2008 C2007 1.390 . S
C2008 C2009 1.394 . S
C2008 C2014 1.465 . S
C2009 C2004 1.399 . S
C2009 C2008 1.394 . S
C2009 C2010 1.516 . S
C2010 C2009 1.516 . S
C2010 C2011 1.502 . S
C2010 C2012 1.561 . S
C2010 C2013 1.526 . S
C2011 H1995 0.959 . S
C2011 H1996 0.959 . S
C2011 H1997 0.961 . S
C2011 C2010 1.502 . S
C2012 H1998 0.960 . S
C2012 H1999 0.961 . S
C2012 H2000 0.959 . S
C2012 C2010 1.561 . S
C2013 C2010 1.526 . S
C2013 C2014 1.396 . S
C2013 C2018 1.390 . S
C2014 C2008 1.465 . S
C2014 C2013 1.396 . S
C2014 C2015 1.399 . S
C2015 H2001 0.929 . S
C2015 C2014 1.399 . S
C2015 C2016 1.385 . S
C2016 H2002 0.931 . S
C2016 C2015 1.385 . S
C2016 C2017 1.389 . S
C2017 C2016 1.389 . S
C2017 C2018 1.387 . S
C2018 H2003 0.930 . S
C2018 C2013 1.390 . S
C2018 C2017 1.387 . S
H2019 C2031 0.930 . S
H2020 C2033 0.930 . S
H2021 C2034 0.930 . S
H2022 C2038 0.959 . S
H2023 C2038 0.959 . S
H2024 C2038 0.961 . S
H2025 C2039 0.960 . S
H2026 C2039 0.961 . S
H2027 C2039 0.959 . S
H2028 C2042 0.929 . S
H2029 C2043 0.931 . S
H2030 C2045 0.930 . S
C2031 H2019 0.930 . S
C2031 C2032 1.399 . S
C2031 C2036 1.399 . S
C2032 C2031 1.399 . S
C2032 C2033 1.376 . S
C2033 H2020 0.930 . S
C2033 C2032 1.376 . S
C2033 C2034 1.388 . S
C2034 H2021 0.930 . S
C2034 C2033 1.388 . S
C2034 C2035 1.390 . S
C2035 C2034 1.390 . S
C2035 C2036 1.394 . S
C2035 C2041 1.465 . S
C2036 C2031 1.399 . S
C2036 C2035 1.394 . S
C2036 C2037 1.516 . S
C2037 C2036 1.516 . S
C2037 C2038 1.502 . S
C2037 C2039 1.561 . S
C2037 C2040 1.526 . S
C2038 H2022 0.959 . S
C2038 H2023 0.959 . S
C2038 H2024 0.961 . S
C2038 C2037 1.502 . S
C2039 H2025 0.960 . S
C2039 H2026 0.961 . S
C2039 H2027 0.959 . S
C2039 C2037 1.561 . S
C2040 C2037 1.526 . S
C2040 C2041 1.396 . S
C2040 C2045 1.390 . S
C2041 C2035 1.465 . S
C2041 C2040 1.396 . S
C2041 C2042 1.399 . S
C2042 H2028 0.929 . S
C2042 C2041 1.399 . S
C2042 C2043 1.385 . S
C2043 H2029 0.931 . S
C2043 C2042 1.385 . S
C2043 C2044 1.389 . S
C2044 C2043 1.389 . S
C2044 C2045 1.387 . S
C2045 H2030 0.930 . S
C2045 C2040 1.390 . S
C2045 C2044 1.387 . S
H2046 C2058 0.930 . S
H2047 C2060 0.930 . S
H2048 C2061 0.930 . S
H2049 C2065 0.959 . S
H2050 C2065 0.959 . S
H2051 C2065 0.961 . S
H2052 C2066 0.960 . S
H2053 C2066 0.961 . S
H2054 C2066 0.959 . S
H2055 C2069 0.929 . S
H2056 C2070 0.931 . S
H2057 C2072 0.930 . S
C2058 H2046 0.930 . S
C2058 C2059 1.399 . S
C2058 C2063 1.399 . S
C2059 C2058 1.399 . S
C2059 C2060 1.376 . S
C2060 H2047 0.930 . S
C2060 C2059 1.376 . S
C2060 C2061 1.388 . S
C2061 H2048 0.930 . S
C2061 C2060 1.388 . S
C2061 C2062 1.390 . S
C2062 C2061 1.390 . S
C2062 C2063 1.394 . S
C2062 C2068 1.465 . S
C2063 C2058 1.399 . S
C2063 C2062 1.394 . S
C2063 C2064 1.516 . S
C2064 C2063 1.516 . S
C2064 C2065 1.502 . S
C2064 C2066 1.561 . S
C2064 C2067 1.526 . S
C2065 H2049 0.959 . S
C2065 H2050 0.959 . S
C2065 H2051 0.961 . S
C2065 C2064 1.502 . S
C2066 H2052 0.960 . S
C2066 H2053 0.961 . S
C2066 H2054 0.959 . S
C2066 C2064 1.561 . S
C2067 C2064 1.526 . S
C2067 C2068 1.396 . S
C2067 C2072 1.390 . S
C2068 C2062 1.465 . S
C2068 C2067 1.396 . S
C2068 C2069 1.399 . S
C2069 H2055 0.929 . S
C2069 C2068 1.399 . S
C2069 C2070 1.385 . S
C2070 H2056 0.931 . S
C2070 C2069 1.385 . S
C2070 C2071 1.389 . S
C2071 C2070 1.389 . S
C2071 C2072 1.387 . S
C2072 H2057 0.930 . S
C2072 C2067 1.390 . S
C2072 C2071 1.387 . S
H2073 C2085 0.930 . S
H2074 C2087 0.930 . S
H2075 C2088 0.930 . S
H2076 C2092 0.959 . S
H2077 C2092 0.959 . S
H2078 C2092 0.961 . S
H2079 C2093 0.960 . S
H2080 C2093 0.961 . S
H2081 C2093 0.959 . S
H2082 C2096 0.929 . S
H2083 C2097 0.931 . S
H2084 C2099 0.930 . S
C2085 H2073 0.930 . S
C2085 C2086 1.399 . S
C2085 C2090 1.399 . S
C2086 C2085 1.399 . S
C2086 C2087 1.376 . S
C2087 H2074 0.930 . S
C2087 C2086 1.376 . S
C2087 C2088 1.388 . S
C2088 H2075 0.930 . S
C2088 C2087 1.388 . S
C2088 C2089 1.390 . S
C2089 C2088 1.390 . S
C2089 C2090 1.394 . S
C2089 C2095 1.465 . S
C2090 C2085 1.399 . S
C2090 C2089 1.394 . S
C2090 C2091 1.516 . S
C2091 C2090 1.516 . S
C2091 C2092 1.502 . S
C2091 C2093 1.561 . S
C2091 C2094 1.526 . S
C2092 H2076 0.959 . S
C2092 H2077 0.959 . S
C2092 H2078 0.961 . S
C2092 C2091 1.502 . S
C2093 H2079 0.960 . S
C2093 H2080 0.961 . S
C2093 H2081 0.959 . S
C2093 C2091 1.561 . S
C2094 C2091 1.526 . S
C2094 C2095 1.396 . S
C2094 C2099 1.390 . S
C2095 C2089 1.465 . S
C2095 C2094 1.396 . S
C2095 C2096 1.399 . S
C2096 H2082 0.929 . S
C2096 C2095 1.399 . S
C2096 C2097 1.385 . S
C2097 H2083 0.931 . S
C2097 C2096 1.385 . S
C2097 C2098 1.389 . S
C2098 C2097 1.389 . S
C2098 C2099 1.387 . S
C2099 H2084 0.930 . S
C2099 C2094 1.390 . S
C2099 C2098 1.387 . S
H2100 C2112 0.930 . S
H2101 C2114 0.930 . S
H2102 C2115 0.930 . S
H2103 C2119 0.959 . S
H2104 C2119 0.959 . S
H2105 C2119 0.961 . S
H2106 C2120 0.960 . S
H2107 C2120 0.961 . S
H2108 C2120 0.959 . S
H2109 C2123 0.929 . S
H2110 C2124 0.931 . S
H2111 C2126 0.930 . S
C2112 H2100 0.930 . S
C2112 C2113 1.399 . S
C2112 C2117 1.399 . S
C2113 C2112 1.399 . S
C2113 C2114 1.376 . S
C2114 H2101 0.930 . S
C2114 C2113 1.376 . S
C2114 C2115 1.388 . S
C2115 H2102 0.930 . S
C2115 C2114 1.388 . S
C2115 C2116 1.390 . S
C2116 C2115 1.390 . S
C2116 C2117 1.394 . S
C2116 C2122 1.465 . S
C2117 C2112 1.399 . S
C2117 C2116 1.394 . S
C2117 C2118 1.516 . S
C2118 C2117 1.516 . S
C2118 C2119 1.502 . S
C2118 C2120 1.561 . S
C2118 C2121 1.526 . S
C2119 H2103 0.959 . S
C2119 H2104 0.959 . S
C2119 H2105 0.961 . S
C2119 C2118 1.502 . S
C2120 H2106 0.960 . S
C2120 H2107 0.961 . S
C2120 H2108 0.959 . S
C2120 C2118 1.561 . S
C2121 C2118 1.526 . S
C2121 C2122 1.396 . S
C2121 C2126 1.390 . S
C2122 C2116 1.465 . S
C2122 C2121 1.396 . S
C2122 C2123 1.399 . S
C2123 H2109 0.929 . S
C2123 C2122 1.399 . S
C2123 C2124 1.385 . S
C2124 H2110 0.931 . S
C2124 C2123 1.385 . S
C2124 C2125 1.389 . S
C2125 C2124 1.389 . S
C2125 C2126 1.387 . S
C2126 H2111 0.930 . S
C2126 C2121 1.390 . S
C2126 C2125 1.387 . S
H2127 C2139 0.930 . S
H2128 C2141 0.930 . S
H2129 C2142 0.930 . S
H2130 C2146 0.959 . S
H2131 C2146 0.959 . S
H2132 C2146 0.961 . S
H2133 C2147 0.960 . S
H2134 C2147 0.961 . S
H2135 C2147 0.959 . S
H2136 C2150 0.929 . S
H2137 C2151 0.931 . S
H2138 C2153 0.930 . S
C2139 H2127 0.930 . S
C2139 C2140 1.399 . S
C2139 C2144 1.399 . S
C2140 C2139 1.399 . S
C2140 C2141 1.376 . S
C2141 H2128 0.930 . S
C2141 C2140 1.376 . S
C2141 C2142 1.388 . S
C2142 H2129 0.930 . S
C2142 C2141 1.388 . S
C2142 C2143 1.390 . S
C2143 C2142 1.390 . S
C2143 C2144 1.394 . S
C2143 C2149 1.465 . S
C2144 C2139 1.399 . S
C2144 C2143 1.394 . S
C2144 C2145 1.516 . S
C2145 C2144 1.516 . S
C2145 C2146 1.502 . S
C2145 C2147 1.561 . S
C2145 C2148 1.526 . S
C2146 H2130 0.959 . S
C2146 H2131 0.959 . S
C2146 H2132 0.961 . S
C2146 C2145 1.502 . S
C2147 H2133 0.960 . S
C2147 H2134 0.961 . S
C2147 H2135 0.959 . S
C2147 C2145 1.561 . S
C2148 C2145 1.526 . S
C2148 C2149 1.396 . S
C2148 C2153 1.390 . S
C2149 C2143 1.465 . S
C2149 C2148 1.396 . S
C2149 C2150 1.399 . S
C2150 H2136 0.929 . S
C2150 C2149 1.399 . S
C2150 C2151 1.385 . S
C2151 H2137 0.931 . S
C2151 C2150 1.385 . S
C2151 C2152 1.389 . S
C2152 C2151 1.389 . S
C2152 C2153 1.387 . S
C2153 H2138 0.930 . S
C2153 C2148 1.390 . S
C2153 C2152 1.387 . S
H2154 C2166 0.930 . S
H2155 C2168 0.930 . S
H2156 C2169 0.930 . S
H2157 C2173 0.959 . S
H2158 C2173 0.959 . S
H2159 C2173 0.961 . S
H2160 C2174 0.960 . S
H2161 C2174 0.961 . S
H2162 C2174 0.959 . S
H2163 C2177 0.929 . S
H2164 C2178 0.931 . S
H2165 C2180 0.930 . S
C2166 H2154 0.930 . S
C2166 C2167 1.399 . S
C2166 C2171 1.399 . S
C2167 C2166 1.399 . S
C2167 C2168 1.376 . S
C2168 H2155 0.930 . S
C2168 C2167 1.376 . S
C2168 C2169 1.388 . S
C2169 H2156 0.930 . S
C2169 C2168 1.388 . S
C2169 C2170 1.390 . S
C2170 C2169 1.390 . S
C2170 C2171 1.394 . S
C2170 C2176 1.465 . S
C2171 C2166 1.399 . S
C2171 C2170 1.394 . S
C2171 C2172 1.516 . S
C2172 C2171 1.516 . S
C2172 C2173 1.502 . S
C2172 C2174 1.561 . S
C2172 C2175 1.526 . S
C2173 H2157 0.959 . S
C2173 H2158 0.959 . S
C2173 H2159 0.961 . S
C2173 C2172 1.502 . S
C2174 H2160 0.960 . S
C2174 H2161 0.961 . S
C2174 H2162 0.959 . S
C2174 C2172 1.561 . S
C2175 C2172 1.526 . S
C2175 C2176 1.396 . S
C2175 C2180 1.390 . S
C2176 C2170 1.465 . S
C2176 C2175 1.396 . S
C2176 C2177 1.399 . S
C2177 H2163 0.929 . S
C2177 C2176 1.399 . S
C2177 C2178 1.385 . S
C2178 H2164 0.931 . S
C2178 C2177 1.385 . S
C2178 C2179 1.389 . S
C2179 C2178 1.389 . S
C2179 C2180 1.387 . S
C2180 H2165 0.930 . S
C2180 C2175 1.390 . S
C2180 C2179 1.387 . S
H2181 C2193 0.930 . S
H2182 C2195 0.930 . S
H2183 C2196 0.930 . S
H2184 C2200 0.959 . S
H2185 C2200 0.959 . S
H2186 C2200 0.961 . S
H2187 C2201 0.960 . S
H2188 C2201 0.961 . S
H2189 C2201 0.959 . S
H2190 C2204 0.929 . S
H2191 C2205 0.931 . S
H2192 C2207 0.930 . S
C2193 H2181 0.930 . S
C2193 C2194 1.399 . S
C2193 C2198 1.399 . S
C2194 C2193 1.399 . S
C2194 C2195 1.376 . S
C2195 H2182 0.930 . S
C2195 C2194 1.376 . S
C2195 C2196 1.388 . S
C2196 H2183 0.930 . S
C2196 C2195 1.388 . S
C2196 C2197 1.390 . S
C2197 C2196 1.390 . S
C2197 C2198 1.394 . S
C2197 C2203 1.465 . S
C2198 C2193 1.399 . S
C2198 C2197 1.394 . S
C2198 C2199 1.516 . S
C2199 C2198 1.516 . S
C2199 C2200 1.502 . S
C2199 C2201 1.561 . S
C2199 C2202 1.526 . S
C2200 H2184 0.959 . S
C2200 H2185 0.959 . S
C2200 H2186 0.961 . S
C2200 C2199 1.502 . S
C2201 H2187 0.960 . S
C2201 H2188 0.961 . S
C2201 H2189 0.959 . S
C2201 C2199 1.561 . S
C2202 C2199 1.526 . S
C2202 C2203 1.396 . S
C2202 C2207 1.390 . S
C2203 C2197 1.465 . S
C2203 C2202 1.396 . S
C2203 C2204 1.399 . S
C2204 H2190 0.929 . S
C2204 C2203 1.399 . S
C2204 C2205 1.385 . S
C2205 H2191 0.931 . S
C2205 C2204 1.385 . S
C2205 C2206 1.389 . S
C2206 C2205 1.389 . S
C2206 C2207 1.387 . S
C2207 H2192 0.930 . S
C2207 C2202 1.390 . S
C2207 C2206 1.387 . S
H2208 C2220 0.930 . S
H2209 C2222 0.930 . S
H2210 C2223 0.930 . S
H2211 C2227 0.959 . S
H2212 C2227 0.959 . S
H2213 C2227 0.961 . S
H2214 C2228 0.960 . S
H2215 C2228 0.961 . S
H2216 C2228 0.959 . S
H2217 C2231 0.929 . S
H2218 C2232 0.931 . S
H2219 C2234 0.930 . S
C2220 H2208 0.930 . S
C2220 C2221 1.399 . S
C2220 C2225 1.399 . S
C2221 C2220 1.399 . S
C2221 C2222 1.376 . S
C2222 H2209 0.930 . S
C2222 C2221 1.376 . S
C2222 C2223 1.388 . S
C2223 H2210 0.930 . S
C2223 C2222 1.388 . S
C2223 C2224 1.390 . S
C2224 C2223 1.390 . S
C2224 C2225 1.394 . S
C2224 C2230 1.465 . S
C2225 C2220 1.399 . S
C2225 C2224 1.394 . S
C2225 C2226 1.516 . S
C2226 C2225 1.516 . S
C2226 C2227 1.502 . S
C2226 C2228 1.561 . S
C2226 C2229 1.526 . S
C2227 H2211 0.959 . S
C2227 H2212 0.959 . S
C2227 H2213 0.961 . S
C2227 C2226 1.502 . S
C2228 H2214 0.960 . S
C2228 H2215 0.961 . S
C2228 H2216 0.959 . S
C2228 C2226 1.561 . S
C2229 C2226 1.526 . S
C2229 C2230 1.396 . S
C2229 C2234 1.390 . S
C2230 C2224 1.465 . S
C2230 C2229 1.396 . S
C2230 C2231 1.399 . S
C2231 H2217 0.929 . S
C2231 C2230 1.399 . S
C2231 C2232 1.385 . S
C2232 H2218 0.931 . S
C2232 C2231 1.385 . S
C2232 C2233 1.389 . S
C2233 C2232 1.389 . S
C2233 C2234 1.387 . S
C2234 H2219 0.930 . S
C2234 C2229 1.390 . S
C2234 C2233 1.387 . S
H2235 C2247 0.930 . S
H2236 C2249 0.930 . S
H2237 C2250 0.930 . S
H2238 C2254 0.959 . S
H2239 C2254 0.959 . S
H2240 C2254 0.961 . S
H2241 C2255 0.960 . S
H2242 C2255 0.961 . S
H2243 C2255 0.959 . S
H2244 C2258 0.929 . S
H2245 C2259 0.931 . S
H2246 C2261 0.930 . S
C2247 H2235 0.930 . S
C2247 C2248 1.399 . S
C2247 C2252 1.399 . S
C2248 C2247 1.399 . S
C2248 C2249 1.376 . S
C2249 H2236 0.930 . S
C2249 C2248 1.376 . S
C2249 C2250 1.388 . S
C2250 H2237 0.930 . S
C2250 C2249 1.388 . S
C2250 C2251 1.390 . S
C2251 C2250 1.390 . S
C2251 C2252 1.394 . S
C2251 C2257 1.465 . S
C2252 C2247 1.399 . S
C2252 C2251 1.394 . S
C2252 C2253 1.516 . S
C2253 C2252 1.516 . S
C2253 C2254 1.502 . S
C2253 C2255 1.561 . S
C2253 C2256 1.526 . S
C2254 H2238 0.959 . S
C2254 H2239 0.959 . S
C2254 H2240 0.961 . S
C2254 C2253 1.502 . S
C2255 H2241 0.960 . S
C2255 H2242 0.961 . S
C2255 H2243 0.959 . S
C2255 C2253 1.561 . S
C2256 C2253 1.526 . S
C2256 C2257 1.396 . S
C2256 C2261 1.390 . S
C2257 C2251 1.465 . S
C2257 C2256 1.396 . S
C2257 C2258 1.399 . S
C2258 H2244 0.929 . S
C2258 C2257 1.399 . S
C2258 C2259 1.385 . S
C2259 H2245 0.931 . S
C2259 C2258 1.385 . S
C2259 C2260 1.389 . S
C2260 C2259 1.389 . S
C2260 C2261 1.387 . S
C2261 H2246 0.930 . S
C2261 C2256 1.390 . S
C2261 C2260 1.387 . S
H2262 C2274 0.930 . S
H2263 C2276 0.930 . S
H2264 C2277 0.930 . S
H2265 C2281 0.959 . S
H2266 C2281 0.959 . S
H2267 C2281 0.961 . S
H2268 C2282 0.960 . S
H2269 C2282 0.961 . S
H2270 C2282 0.959 . S
H2271 C2285 0.929 . S
H2272 C2286 0.931 . S
H2273 C2288 0.930 . S
C2274 H2262 0.930 . S
C2274 C2275 1.399 . S
C2274 C2279 1.399 . S
C2275 C2274 1.399 . S
C2275 C2276 1.376 . S
C2276 H2263 0.930 . S
C2276 C2275 1.376 . S
C2276 C2277 1.388 . S
C2277 H2264 0.930 . S
C2277 C2276 1.388 . S
C2277 C2278 1.390 . S
C2278 C2277 1.390 . S
C2278 C2279 1.394 . S
C2278 C2284 1.465 . S
C2279 C2274 1.399 . S
C2279 C2278 1.394 . S
C2279 C2280 1.516 . S
C2280 C2279 1.516 . S
C2280 C2281 1.502 . S
C2280 C2282 1.561 . S
C2280 C2283 1.526 . S
C2281 H2265 0.959 . S
C2281 H2266 0.959 . S
C2281 H2267 0.961 . S
C2281 C2280 1.502 . S
C2282 H2268 0.960 . S
C2282 H2269 0.961 . S
C2282 H2270 0.959 . S
C2282 C2280 1.561 . S
C2283 C2280 1.526 . S
C2283 C2284 1.396 . S
C2283 C2288 1.390 . S
C2284 C2278 1.465 . S
C2284 C2283 1.396 . S
C2284 C2285 1.399 . S
C2285 H2271 0.929 . S
C2285 C2284 1.399 . S
C2285 C2286 1.385 . S
C2286 H2272 0.931 . S
C2286 C2285 1.385 . S
C2286 C2287 1.389 . S
C2287 C2286 1.389 . S
C2287 C2288 1.387 . S
C2288 H2273 0.930 . S
C2288 C2283 1.390 . S
C2288 C2287 1.387 . S
H2289 C2301 0.930 . S
H2290 C2303 0.930 . S
H2291 C2304 0.930 . S
H2292 C2308 0.959 . S
H2293 C2308 0.959 . S
H2294 C2308 0.961 . S
H2295 C2309 0.960 . S
H2296 C2309 0.961 . S
H2297 C2309 0.959 . S
H2298 C2312 0.929 . S
H2299 C2313 0.931 . S
H2300 C2315 0.930 . S
C2301 H2289 0.930 . S
C2301 C2302 1.399 . S
C2301 C2306 1.399 . S
C2302 C2301 1.399 . S
C2302 C2303 1.376 . S
C2303 H2290 0.930 . S
C2303 C2302 1.376 . S
C2303 C2304 1.388 . S
C2304 H2291 0.930 . S
C2304 C2303 1.388 . S
C2304 C2305 1.390 . S
C2305 C2304 1.390 . S
C2305 C2306 1.394 . S
C2305 C2311 1.465 . S
C2306 C2301 1.399 . S
C2306 C2305 1.394 . S
C2306 C2307 1.516 . S
C2307 C2306 1.516 . S
C2307 C2308 1.502 . S
C2307 C2309 1.561 . S
C2307 C2310 1.526 . S
C2308 H2292 0.959 . S
C2308 H2293 0.959 . S
C2308 H2294 0.961 . S
C2308 C2307 1.502 . S
C2309 H2295 0.960 . S
C2309 H2296 0.961 . S
C2309 H2297 0.959 . S
C2309 C2307 1.561 . S
C2310 C2307 1.526 . S
C2310 C2311 1.396 . S
C2310 C2315 1.390 . S
C2311 C2305 1.465 . S
C2311 C2310 1.396 . S
C2311 C2312 1.399 . S
C2312 H2298 0.929 . S
C2312 C2311 1.399 . S
C2312 C2313 1.385 . S
C2313 H2299 0.931 . S
C2313 C2312 1.385 . S
C2313 C2314 1.389 . S
C2314 C2313 1.389 . S
C2314 C2315 1.387 . S
C2315 H2300 0.930 . S
C2315 C2310 1.390 . S
C2315 C2314 1.387 . S
H2316 C2328 0.930 . S
H2317 C2330 0.930 . S
H2318 C2331 0.930 . S
H2319 C2335 0.959 . S
H2320 C2335 0.959 . S
H2321 C2335 0.961 . S
H2322 C2336 0.960 . S
H2323 C2336 0.961 . S
H2324 C2336 0.959 . S
H2325 C2339 0.929 . S
H2326 C2340 0.931 . S
H2327 C2342 0.930 . S
C2328 H2316 0.930 . S
C2328 C2329 1.399 . S
C2328 C2333 1.399 . S
C2329 C2328 1.399 . S
C2329 C2330 1.376 . S
C2330 H2317 0.930 . S
C2330 C2329 1.376 . S
C2330 C2331 1.388 . S
C2331 H2318 0.930 . S
C2331 C2330 1.388 . S
C2331 C2332 1.390 . S
C2332 C2331 1.390 . S
C2332 C2333 1.394 . S
C2332 C2338 1.465 . S
C2333 C2328 1.399 . S
C2333 C2332 1.394 . S
C2333 C2334 1.516 . S
C2334 C2333 1.516 . S
C2334 C2335 1.502 . S
C2334 C2336 1.561 . S
C2334 C2337 1.526 . S
C2335 H2319 0.959 . S
C2335 H2320 0.959 . S
C2335 H2321 0.961 . S
C2335 C2334 1.502 . S
C2336 H2322 0.960 . S
C2336 H2323 0.961 . S
C2336 H2324 0.959 . S
C2336 C2334 1.561 . S
C2337 C2334 1.526 . S
C2337 C2338 1.396 . S
C2337 C2342 1.390 . S
C2338 C2332 1.465 . S
C2338 C2337 1.396 . S
C2338 C2339 1.399 . S
C2339 H2325 0.929 . S
C2339 C2338 1.399 . S
C2339 C2340 1.385 . S
C2340 H2326 0.931 . S
C2340 C2339 1.385 . S
C2340 C2341 1.389 . S
C2341 C2340 1.389 . S
C2341 C2342 1.387 . S
C2342 H2327 0.930 . S
C2342 C2337 1.390 . S
C2342 C2341 1.387 . S
H2343 C2355 0.930 . S
H2344 C2357 0.930 . S
H2345 C2358 0.930 . S
H2346 C2362 0.959 . S
H2347 C2362 0.959 . S
H2348 C2362 0.961 . S
H2349 C2363 0.960 . S
H2350 C2363 0.961 . S
H2351 C2363 0.959 . S
H2352 C2366 0.929 . S
H2353 C2367 0.931 . S
H2354 C2369 0.930 . S
C2355 H2343 0.930 . S
C2355 C2356 1.399 . S
C2355 C2360 1.399 . S
C2356 C2355 1.399 . S
C2356 C2357 1.376 . S
C2357 H2344 0.930 . S
C2357 C2356 1.376 . S
C2357 C2358 1.388 . S
C2358 H2345 0.930 . S
C2358 C2357 1.388 . S
C2358 C2359 1.390 . S
C2359 C2358 1.390 . S
C2359 C2360 1.394 . S
C2359 C2365 1.465 . S
C2360 C2355 1.399 . S
C2360 C2359 1.394 . S
C2360 C2361 1.516 . S
C2361 C2360 1.516 . S
C2361 C2362 1.502 . S
C2361 C2363 1.561 . S
C2361 C2364 1.526 . S
C2362 H2346 0.959 . S
C2362 H2347 0.959 . S
C2362 H2348 0.961 . S
C2362 C2361 1.502 . S
C2363 H2349 0.960 . S
C2363 H2350 0.961 . S
C2363 H2351 0.959 . S
C2363 C2361 1.561 . S
C2364 C2361 1.526 . S
C2364 C2365 1.396 . S
C2364 C2369 1.390 . S
C2365 C2359 1.465 . S
C2365 C2364 1.396 . S
C2365 C2366 1.399 . S
C2366 H2352 0.929 . S
C2366 C2365 1.399 . S
C2366 C2367 1.385 . S
C2367 H2353 0.931 . S
C2367 C2366 1.385 . S
C2367 C2368 1.389 . S
C2368 C2367 1.389 . S
C2368 C2369 1.387 . S
C2369 H2354 0.930 . S
C2369 C2364 1.390 . S
C2369 C2368 1.387 . S
H2370 C2382 0.930 . S
H2371 C2384 0.930 . S
H2372 C2385 0.930 . S
H2373 C2389 0.959 . S
H2374 C2389 0.959 . S
H2375 C2389 0.961 . S
H2376 C2390 0.960 . S
H2377 C2390 0.961 . S
H2378 C2390 0.959 . S
H2379 C2393 0.929 . S
H2380 C2394 0.931 . S
H2381 C2396 0.930 . S
C2382 H2370 0.930 . S
C2382 C2383 1.399 . S
C2382 C2387 1.399 . S
C2383 C2382 1.399 . S
C2383 C2384 1.376 . S
C2384 H2371 0.930 . S
C2384 C2383 1.376 . S
C2384 C2385 1.388 . S
C2385 H2372 0.930 . S
C2385 C2384 1.388 . S
C2385 C2386 1.390 . S
C2386 C2385 1.390 . S
C2386 C2387 1.394 . S
C2386 C2392 1.465 . S
C2387 C2382 1.399 . S
C2387 C2386 1.394 . S
C2387 C2388 1.516 . S
C2388 C2387 1.516 . S
C2388 C2389 1.502 . S
C2388 C2390 1.561 . S
C2388 C2391 1.526 . S
C2389 H2373 0.959 . S
C2389 H2374 0.959 . S
C2389 H2375 0.961 . S
C2389 C2388 1.502 . S
C2390 H2376 0.960 . S
C2390 H2377 0.961 . S
C2390 H2378 0.959 . S
C2390 C2388 1.561 . S
C2391 C2388 1.526 . S
C2391 C2392 1.396 . S
C2391 C2396 1.390 . S
C2392 C2386 1.465 . S
C2392 C2391 1.396 . S
C2392 C2393 1.399 . S
C2393 H2379 0.929 . S
C2393 C2392 1.399 . S
C2393 C2394 1.385 . S
C2394 H2380 0.931 . S
C2394 C2393 1.385 . S
C2394 C2395 1.389 . S
C2395 C2394 1.389 . S
C2395 C2396 1.387 . S
C2396 H2381 0.930 . S
C2396 C2391 1.390 . S
C2396 C2395 1.387 . S
H2397 C2409 0.930 . S
H2398 C2411 0.930 . S
H2399 C2412 0.930 . S
H2400 C2416 0.959 . S
H2401 C2416 0.959 . S
H2402 C2416 0.961 . S
H2403 C2417 0.960 . S
H2404 C2417 0.961 . S
H2405 C2417 0.959 . S
H2406 C2420 0.929 . S
H2407 C2421 0.931 . S
H2408 C2423 0.930 . S
C2409 H2397 0.930 . S
C2409 C2410 1.399 . S
C2409 C2414 1.399 . S
C2410 C2409 1.399 . S
C2410 C2411 1.376 . S
C2411 H2398 0.930 . S
C2411 C2410 1.376 . S
C2411 C2412 1.388 . S
C2412 H2399 0.930 . S
C2412 C2411 1.388 . S
C2412 C2413 1.390 . S
C2413 C2412 1.390 . S
C2413 C2414 1.394 . S
C2413 C2419 1.465 . S
C2414 C2409 1.399 . S
C2414 C2413 1.394 . S
C2414 C2415 1.516 . S
C2415 C2414 1.516 . S
C2415 C2416 1.502 . S
C2415 C2417 1.561 . S
C2415 C2418 1.526 . S
C2416 H2400 0.959 . S
C2416 H2401 0.959 . S
C2416 H2402 0.961 . S
C2416 C2415 1.502 . S
C2417 H2403 0.960 . S
C2417 H2404 0.961 . S
C2417 H2405 0.959 . S
C2417 C2415 1.561 . S
C2418 C2415 1.526 . S
C2418 C2419 1.396 . S
C2418 C2423 1.390 . S
C2419 C2413 1.465 . S
C2419 C2418 1.396 . S
C2419 C2420 1.399 . S
C2420 H2406 0.929 . S
C2420 C2419 1.399 . S
C2420 C2421 1.385 . S
C2421 H2407 0.931 . S
C2421 C2420 1.385 . S
C2421 C2422 1.389 . S
C2422 C2421 1.389 . S
C2422 C2423 1.387 . S
C2423 H2408 0.930 . S
C2423 C2418 1.390 . S
C2423 C2422 1.387 . S
H2424 C2436 0.930 . S
H2425 C2438 0.930 . S
H2426 C2439 0.930 . S
H2427 C2443 0.959 . S
H2428 C2443 0.959 . S
H2429 C2443 0.961 . S
H2430 C2444 0.960 . S
H2431 C2444 0.961 . S
H2432 C2444 0.959 . S
H2433 C2447 0.929 . S
H2434 C2448 0.931 . S
H2435 C2450 0.930 . S
C2436 H2424 0.930 . S
C2436 C2437 1.399 . S
C2436 C2441 1.399 . S
C2437 C2436 1.399 . S
C2437 C2438 1.376 . S
C2438 H2425 0.930 . S
C2438 C2437 1.376 . S
C2438 C2439 1.388 . S
C2439 H2426 0.930 . S
C2439 C2438 1.388 . S
C2439 C2440 1.390 . S
C2440 C2439 1.390 . S
C2440 C2441 1.394 . S
C2440 C2446 1.465 . S
C2441 C2436 1.399 . S
C2441 C2440 1.394 . S
C2441 C2442 1.516 . S
C2442 C2441 1.516 . S
C2442 C2443 1.502 . S
C2442 C2444 1.561 . S
C2442 C2445 1.526 . S
C2443 H2427 0.959 . S
C2443 H2428 0.959 . S
C2443 H2429 0.961 . S
C2443 C2442 1.502 . S
C2444 H2430 0.960 . S
C2444 H2431 0.961 . S
C2444 H2432 0.959 . S
C2444 C2442 1.561 . S
C2445 C2442 1.526 . S
C2445 C2446 1.396 . S
C2445 C2450 1.390 . S
C2446 C2440 1.465 . S
C2446 C2445 1.396 . S
C2446 C2447 1.399 . S
C2447 H2433 0.929 . S
C2447 C2446 1.399 . S
C2447 C2448 1.385 . S
C2448 H2434 0.931 . S
C2448 C2447 1.385 . S
C2448 C2449 1.389 . S
C2449 C2448 1.389 . S
C2449 C2450 1.387 . S
C2450 H2435 0.930 . S
C2450 C2445 1.390 . S
C2450 C2449 1.387 . S
H2451 C2463 0.930 . S
H2452 C2465 0.930 . S
H2453 C2466 0.930 . S
H2454 C2470 0.959 . S
H2455 C2470 0.959 . S
H2456 C2470 0.961 . S
H2457 C2471 0.960 . S
H2458 C2471 0.961 . S
H2459 C2471 0.959 . S
H2460 C2474 0.929 . S
H2461 C2475 0.931 . S
H2462 C2477 0.930 . S
C2463 H2451 0.930 . S
C2463 C2464 1.399 . S
C2463 C2468 1.399 . S
C2464 C2463 1.399 . S
C2464 C2465 1.376 . S
C2465 H2452 0.930 . S
C2465 C2464 1.376 . S
C2465 C2466 1.388 . S
C2466 H2453 0.930 . S
C2466 C2465 1.388 . S
C2466 C2467 1.390 . S
C2467 C2466 1.390 . S
C2467 C2468 1.394 . S
C2467 C2473 1.465 . S
C2468 C2463 1.399 . S
C2468 C2467 1.394 . S
C2468 C2469 1.516 . S
C2469 C2468 1.516 . S
C2469 C2470 1.502 . S
C2469 C2471 1.561 . S
C2469 C2472 1.526 . S
C2470 H2454 0.959 . S
C2470 H2455 0.959 . S
C2470 H2456 0.961 . S
C2470 C2469 1.502 . S
C2471 H2457 0.960 . S
C2471 H2458 0.961 . S
C2471 H2459 0.959 . S
C2471 C2469 1.561 . S
C2472 C2469 1.526 . S
C2472 C2473 1.396 . S
C2472 C2477 1.390 . S
C2473 C2467 1.465 . S
C2473 C2472 1.396 . S
C2473 C2474 1.399 . S
C2474 H2460 0.929 . S
C2474 C2473 1.399 . S
C2474 C2475 1.385 . S
C2475 H2461 0.931 . S
C2475 C2474 1.385 . S
C2475 C2476 1.389 . S
C2476 C2475 1.389 . S
C2476 C2477 1.387 . S
C2477 H2462 0.930 . S
C2477 C2472 1.390 . S
C2477 C2476 1.387 . S
H2478 C2490 0.930 . S
H2479 C2492 0.930 . S
H2480 C2493 0.930 . S
H2481 C2497 0.959 . S
H2482 C2497 0.959 . S
H2483 C2497 0.961 . S
H2484 C2498 0.960 . S
H2485 C2498 0.961 . S
H2486 C2498 0.959 . S
H2487 C2501 0.929 . S
H2488 C2502 0.931 . S
H2489 C2504 0.930 . S
C2490 H2478 0.930 . S
C2490 C2491 1.399 . S
C2490 C2495 1.399 . S
C2491 C2490 1.399 . S
C2491 C2492 1.376 . S
C2492 H2479 0.930 . S
C2492 C2491 1.376 . S
C2492 C2493 1.388 . S
C2493 H2480 0.930 . S
C2493 C2492 1.388 . S
C2493 C2494 1.390 . S
C2494 C2493 1.390 . S
C2494 C2495 1.394 . S
C2494 C2500 1.465 . S
C2495 C2490 1.399 . S
C2495 C2494 1.394 . S
C2495 C2496 1.516 . S
C2496 C2495 1.516 . S
C2496 C2497 1.502 . S
C2496 C2498 1.561 . S
C2496 C2499 1.526 . S
C2497 H2481 0.959 . S
C2497 H2482 0.959 . S
C2497 H2483 0.961 . S
C2497 C2496 1.502 . S
C2498 H2484 0.960 . S
C2498 H2485 0.961 . S
C2498 H2486 0.959 . S
C2498 C2496 1.561 . S
C2499 C2496 1.526 . S
C2499 C2500 1.396 . S
C2499 C2504 1.390 . S
C2500 C2494 1.465 . S
C2500 C2499 1.396 . S
C2500 C2501 1.399 . S
C2501 H2487 0.929 . S
C2501 C2500 1.399 . S
C2501 C2502 1.385 . S
C2502 H2488 0.931 . S
C2502 C2501 1.385 . S
C2502 C2503 1.389 . S
C2503 C2502 1.389 . S
C2503 C2504 1.387 . S
C2504 H2489 0.930 . S
C2504 C2499 1.390 . S
C2504 C2503 1.387 . S
H2505 C2517 0.930 . S
H2506 C2519 0.930 . S
H2507 C2520 0.930 . S
H2508 C2524 0.959 . S
H2509 C2524 0.959 . S
H2510 C2524 0.961 . S
H2511 C2525 0.960 . S
H2512 C2525 0.961 . S
H2513 C2525 0.959 . S
H2514 C2528 0.929 . S
H2515 C2529 0.931 . S
H2516 C2531 0.930 . S
C2517 H2505 0.930 . S
C2517 C2518 1.399 . S
C2517 C2522 1.399 . S
C2518 C2517 1.399 . S
C2518 C2519 1.376 . S
C2519 H2506 0.930 . S
C2519 C2518 1.376 . S
C2519 C2520 1.388 . S
C2520 H2507 0.930 . S
C2520 C2519 1.388 . S
C2520 C2521 1.390 . S
C2521 C2520 1.390 . S
C2521 C2522 1.394 . S
C2521 C2527 1.465 . S
C2522 C2517 1.399 . S
C2522 C2521 1.394 . S
C2522 C2523 1.516 . S
C2523 C2522 1.516 . S
C2523 C2524 1.502 . S
C2523 C2525 1.561 . S
C2523 C2526 1.526 . S
C2524 H2508 0.959 . S
C2524 H2509 0.959 . S
C2524 H2510 0.961 . S
C2524 C2523 1.502 . S
C2525 H2511 0.960 . S
C2525 H2512 0.961 . S
C2525 H2513 0.959 . S
C2525 C2523 1.561 . S
C2526 C2523 1.526 . S
C2526 C2527 1.396 . S
C2526 C2531 1.390 . S
C2527 C2521 1.465 . S
C2527 C2526 1.396 . S
C2527 C2528 1.399 . S
C2528 H2514 0.929 . S
C2528 C2527 1.399 . S
C2528 C2529 1.385 . S
C2529 H2515 0.931 . S
C2529 C2528 1.385 . S
C2529 C2530 1.389 . S
C2530 C2529 1.389 . S
C2530 C2531 1.387 . S
C2531 H2516 0.930 . S
C2531 C2526 1.390 . S
C2531 C2530 1.387 . S
H2532 C2544 0.930 . S
H2533 C2546 0.930 . S
H2534 C2547 0.930 . S
H2535 C2551 0.959 . S
H2536 C2551 0.959 . S
H2537 C2551 0.961 . S
H2538 C2552 0.960 . S
H2539 C2552 0.961 . S
H2540 C2552 0.959 . S
H2541 C2555 0.929 . S
H2542 C2556 0.931 . S
H2543 C2558 0.930 . S
C2544 H2532 0.930 . S
C2544 C2545 1.399 . S
C2544 C2549 1.399 . S
C2545 C2544 1.399 . S
C2545 C2546 1.376 . S
C2546 H2533 0.930 . S
C2546 C2545 1.376 . S
C2546 C2547 1.388 . S
C2547 H2534 0.930 . S
C2547 C2546 1.388 . S
C2547 C2548 1.390 . S
C2548 C2547 1.390 . S
C2548 C2549 1.394 . S
C2548 C2554 1.465 . S
C2549 C2544 1.399 . S
C2549 C2548 1.394 . S
C2549 C2550 1.516 . S
C2550 C2549 1.516 . S
C2550 C2551 1.502 . S
C2550 C2552 1.561 . S
C2550 C2553 1.526 . S
C2551 H2535 0.959 . S
C2551 H2536 0.959 . S
C2551 H2537 0.961 . S
C2551 C2550 1.502 . S
C2552 H2538 0.960 . S
C2552 H2539 0.961 . S
C2552 H2540 0.959 . S
C2552 C2550 1.561 . S
C2553 C2550 1.526 . S
C2553 C2554 1.396 . S
C2553 C2558 1.390 . S
C2554 C2548 1.465 . S
C2554 C2553 1.396 . S
C2554 C2555 1.399 . S
C2555 H2541 0.929 . S
C2555 C2554 1.399 . S
C2555 C2556 1.385 . S
C2556 H2542 0.931 . S
C2556 C2555 1.385 . S
C2556 C2557 1.389 . S
C2557 C2556 1.389 . S
C2557 C2558 1.387 . S
C2558 H2543 0.930 . S
C2558 C2553 1.390 . S
C2558 C2557 1.387 . S
H2559 C2571 0.930 . S
H2560 C2573 0.930 . S
H2561 C2574 0.930 . S
H2562 C2578 0.959 . S
H2563 C2578 0.959 . S
H2564 C2578 0.961 . S
H2565 C2579 0.960 . S
H2566 C2579 0.961 . S
H2567 C2579 0.959 . S
H2568 C2582 0.929 . S
H2569 C2583 0.931 . S
H2570 C2585 0.930 . S
C2571 H2559 0.930 . S
C2571 C2572 1.399 . S
C2571 C2576 1.399 . S
C2572 C2571 1.399 . S
C2572 C2573 1.376 . S
C2573 H2560 0.930 . S
C2573 C2572 1.376 . S
C2573 C2574 1.388 . S
C2574 H2561 0.930 . S
C2574 C2573 1.388 . S
C2574 C2575 1.390 . S
C2575 C2574 1.390 . S
C2575 C2576 1.394 . S
C2575 C2581 1.465 . S
C2576 C2571 1.399 . S
C2576 C2575 1.394 . S
C2576 C2577 1.516 . S
C2577 C2576 1.516 . S
C2577 C2578 1.502 . S
C2577 C2579 1.561 . S
C2577 C2580 1.526 . S
C2578 H2562 0.959 . S
C2578 H2563 0.959 . S
C2578 H2564 0.961 . S
C2578 C2577 1.502 . S
C2579 H2565 0.960 . S
C2579 H2566 0.961 . S
C2579 H2567 0.959 . S
C2579 C2577 1.561 . S
C2580 C2577 1.526 . S
C2580 C2581 1.396 . S
C2580 C2585 1.390 . S
C2581 C2575 1.465 . S
C2581 C2580 1.396 . S
C2581 C2582 1.399 . S
C2582 H2568 0.929 . S
C2582 C2581 1.399 . S
C2582 C2583 1.385 . S
C2583 H2569 0.931 . S
C2583 C2582 1.385 . S
C2583 C2584 1.389 . S
C2584 C2583 1.389 . S
C2584 C2585 1.387 . S
C2585 H2570 0.930 . S
C2585 C2580 1.390 . S
C2585 C2584 1.387 . S
H2586 C2598 0.930 . S
H2587 C2600 0.930 . S
H2588 C2601 0.930 . S
H2589 C2605 0.959 . S
H2590 C2605 0.959 . S
H2591 C2605 0.961 . S
H2592 C2606 0.960 . S
H2593 C2606 0.961 . S
H2594 C2606 0.959 . S
H2595 C2609 0.929 . S
H2596 C2610 0.931 . S
H2597 C2612 0.930 . S
C2598 H2586 0.930 . S
C2598 C2599 1.399 . S
C2598 C2603 1.399 . S
C2599 C2598 1.399 . S
C2599 C2600 1.376 . S
C2600 H2587 0.930 . S
C2600 C2599 1.376 . S
C2600 C2601 1.388 . S
C2601 H2588 0.930 . S
C2601 C2600 1.388 . S
C2601 C2602 1.390 . S
C2602 C2601 1.390 . S
C2602 C2603 1.394 . S
C2602 C2608 1.465 . S
C2603 C2598 1.399 . S
C2603 C2602 1.394 . S
C2603 C2604 1.516 . S
C2604 C2603 1.516 . S
C2604 C2605 1.502 . S
C2604 C2606 1.561 . S
C2604 C2607 1.526 . S
C2605 H2589 0.959 . S
C2605 H2590 0.959 . S
C2605 H2591 0.961 . S
C2605 C2604 1.502 . S
C2606 H2592 0.960 . S
C2606 H2593 0.961 . S
C2606 H2594 0.959 . S
C2606 C2604 1.561 . S
C2607 C2604 1.526 . S
C2607 C2608 1.396 . S
C2607 C2612 1.390 . S
C2608 C2602 1.465 . S
C2608 C2607 1.396 . S
C2608 C2609 1.399 . S
C2609 H2595 0.929 . S
C2609 C2608 1.399 . S
C2609 C2610 1.385 . S
C2610 H2596 0.931 . S
C2610 C2609 1.385 . S
C2610 C2611 1.389 . S
C2611 C2610 1.389 . S
C2611 C2612 1.387 . S
C2612 H2597 0.930 . S
C2612 C2607 1.390 . S
C2612 C2611 1.387 . S
H2613 C2625 0.930 . S
H2614 C2627 0.930 . S
H2615 C2628 0.930 . S
H2616 C2632 0.959 . S
H2617 C2632 0.959 . S
H2618 C2632 0.961 . S
H2619 C2633 0.960 . S
H2620 C2633 0.961 . S
H2621 C2633 0.959 . S
H2622 C2636 0.929 . S
H2623 C2637 0.931 . S
H2624 C2639 0.930 . S
C2625 H2613 0.930 . S
C2625 C2626 1.399 . S
C2625 C2630 1.399 . S
C2626 C2625 1.399 . S
C2626 C2627 1.376 . S
C2627 H2614 0.930 . S
C2627 C2626 1.376 . S
C2627 C2628 1.388 . S
C2628 H2615 0.930 . S
C2628 C2627 1.388 . S
C2628 C2629 1.390 . S
C2629 C2628 1.390 . S
C2629 C2630 1.394 . S
C2629 C2635 1.465 . S
C2630 C2625 1.399 . S
C2630 C2629 1.394 . S
C2630 C2631 1.516 . S
C2631 C2630 1.516 . S
C2631 C2632 1.502 . S
C2631 C2633 1.561 . S
C2631 C2634 1.526 . S
C2632 H2616 0.959 . S
C2632 H2617 0.959 . S
C2632 H2618 0.961 . S
C2632 C2631 1.502 . S
C2633 H2619 0.960 . S
C2633 H2620 0.961 . S
C2633 H2621 0.959 . S
C2633 C2631 1.561 . S
C2634 C2631 1.526 . S
C2634 C2635 1.396 . S
C2634 C2639 1.390 . S
C2635 C2629 1.465 . S
C2635 C2634 1.396 . S
C2635 C2636 1.399 . S
C2636 H2622 0.929 . S
C2636 C2635 1.399 . S
C2636 C2637 1.385 . S
C2637 H2623 0.931 . S
C2637 C2636 1.385 . S
C2637 C2638 1.389 . S
C2638 C2637 1.389 . S
C2638 C2639 1.387 . S
C2639 H2624 0.930 . S
C2639 C2634 1.390 . S
C2639 C2638 1.387 . S
H2640 C2652 0.930 . S
H2641 C2654 0.930 . S
H2642 C2655 0.930 . S
H2643 C2659 0.959 . S
H2644 C2659 0.959 . S
H2645 C2659 0.961 . S
H2646 C2660 0.960 . S
H2647 C2660 0.961 . S
H2648 C2660 0.959 . S
H2649 C2663 0.929 . S
H2650 C2664 0.931 . S
H2651 C2666 0.930 . S
C2652 H2640 0.930 . S
C2652 C2653 1.399 . S
C2652 C2657 1.399 . S
C2653 C2652 1.399 . S
C2653 C2654 1.376 . S
C2654 H2641 0.930 . S
C2654 C2653 1.376 . S
C2654 C2655 1.388 . S
C2655 H2642 0.930 . S
C2655 C2654 1.388 . S
C2655 C2656 1.390 . S
C2656 C2655 1.390 . S
C2656 C2657 1.394 . S
C2656 C2662 1.465 . S
C2657 C2652 1.399 . S
C2657 C2656 1.394 . S
C2657 C2658 1.516 . S
C2658 C2657 1.516 . S
C2658 C2659 1.502 . S
C2658 C2660 1.561 . S
C2658 C2661 1.526 . S
C2659 H2643 0.959 . S
C2659 H2644 0.959 . S
C2659 H2645 0.961 . S
C2659 C2658 1.502 . S
C2660 H2646 0.960 . S
C2660 H2647 0.961 . S
C2660 H2648 0.959 . S
C2660 C2658 1.561 . S
C2661 C2658 1.526 . S
C2661 C2662 1.396 . S
C2661 C2666 1.390 . S
C2662 C2656 1.465 . S
C2662 C2661 1.396 . S
C2662 C2663 1.399 . S
C2663 H2649 0.929 . S
C2663 C2662 1.399 . S
C2663 C2664 1.385 . S
C2664 H2650 0.931 . S
C2664 C2663 1.385 . S
C2664 C2665 1.389 . S
C2665 C2664 1.389 . S
C2665 C2666 1.387 . S
C2666 H2651 0.930 . S
C2666 C2661 1.390 . S
C2666 C2665 1.387 . S
H2667 C2679 0.930 . S
H2668 C2681 0.930 . S
H2669 C2682 0.930 . S
H2670 C2686 0.959 . S
H2671 C2686 0.959 . S
H2672 C2686 0.961 . S
H2673 C2687 0.960 . S
H2674 C2687 0.961 . S
H2675 C2687 0.959 . S
H2676 C2690 0.929 . S
H2677 C2691 0.931 . S
H2678 C2693 0.930 . S
C2679 H2667 0.930 . S
C2679 C2680 1.399 . S
C2679 C2684 1.399 . S
C2680 C2679 1.399 . S
C2680 C2681 1.376 . S
C2681 H2668 0.930 . S
C2681 C2680 1.376 . S
C2681 C2682 1.388 . S
C2682 H2669 0.930 . S
C2682 C2681 1.388 . S
C2682 C2683 1.390 . S
C2683 C2682 1.390 . S
C2683 C2684 1.394 . S
C2683 C2689 1.465 . S
C2684 C2679 1.399 . S
C2684 C2683 1.394 . S
C2684 C2685 1.516 . S
C2685 C2684 1.516 . S
C2685 C2686 1.502 . S
C2685 C2687 1.561 . S
C2685 C2688 1.526 . S
C2686 H2670 0.959 . S
C2686 H2671 0.959 . S
C2686 H2672 0.961 . S
C2686 C2685 1.502 . S
C2687 H2673 0.960 . S
C2687 H2674 0.961 . S
C2687 H2675 0.959 . S
C2687 C2685 1.561 . S
C2688 C2685 1.526 . S
C2688 C2689 1.396 . S
C2688 C2693 1.390 . S
C2689 C2683 1.465 . S
C2689 C2688 1.396 . S
C2689 C2690 1.399 . S
C2690 H2676 0.929 . S
C2690 C2689 1.399 . S
C2690 C2691 1.385 . S
C2691 H2677 0.931 . S
C2691 C2690 1.385 . S
C2691 C2692 1.389 . S
C2692 C2691 1.389 . S
C2692 C2693 1.387 . S
C2693 H2678 0.930 . S
C2693 C2688 1.390 . S
C2693 C2692 1.387 . S
H2694 C2706 0.930 . S
H2695 C2708 0.930 . S
H2696 C2709 0.930 . S
H2697 C2713 0.959 . S
H2698 C2713 0.959 . S
H2699 C2713 0.961 . S
H2700 C2714 0.960 . S
H2701 C2714 0.961 . S
H2702 C2714 0.959 . S
H2703 C2717 0.929 . S
H2704 C2718 0.931 . S
H2705 C2720 0.930 . S
C2706 H2694 0.930 . S
C2706 C2707 1.399 . S
C2706 C2711 1.399 . S
C2707 C2706 1.399 . S
C2707 C2708 1.376 . S
C2708 H2695 0.930 . S
C2708 C2707 1.376 . S
C2708 C2709 1.388 . S
C2709 H2696 0.930 . S
C2709 C2708 1.388 . S
C2709 C2710 1.390 . S
C2710 C2709 1.390 . S
C2710 C2711 1.394 . S
C2710 C2716 1.465 . S
C2711 C2706 1.399 . S
C2711 C2710 1.394 . S
C2711 C2712 1.516 . S
C2712 C2711 1.516 . S
C2712 C2713 1.502 . S
C2712 C2714 1.561 . S
C2712 C2715 1.526 . S
C2713 H2697 0.959 . S
C2713 H2698 0.959 . S
C2713 H2699 0.961 . S
C2713 C2712 1.502 . S
C2714 H2700 0.960 . S
C2714 H2701 0.961 . S
C2714 H2702 0.959 . S
C2714 C2712 1.561 . S
C2715 C2712 1.526 . S
C2715 C2716 1.396 . S
C2715 C2720 1.390 . S
C2716 C2710 1.465 . S
C2716 C2715 1.396 . S
C2716 C2717 1.399 . S
C2717 H2703 0.929 . S
C2717 C2716 1.399 . S
C2717 C2718 1.385 . S
C2718 H2704 0.931 . S
C2718 C2717 1.385 . S
C2718 C2719 1.389 . S
C2719 C2718 1.389 . S
C2719 C2720 1.387 . S
C2720 H2705 0.930 . S
C2720 C2715 1.390 . S
C2720 C2719 1.387 . S
H2721 C2733 0.930 . S
H2722 C2735 0.930 . S
H2723 C2736 0.930 . S
H2724 C2740 0.959 . S
H2725 C2740 0.959 . S
H2726 C2740 0.961 . S
H2727 C2741 0.960 . S
H2728 C2741 0.961 . S
H2729 C2741 0.959 . S
H2730 C2744 0.929 . S
H2731 C2745 0.931 . S
H2732 C2747 0.930 . S
C2733 H2721 0.930 . S
C2733 C2734 1.399 . S
C2733 C2738 1.399 . S
C2734 C2733 1.399 . S
C2734 C2735 1.376 . S
C2735 H2722 0.930 . S
C2735 C2734 1.376 . S
C2735 C2736 1.388 . S
C2736 H2723 0.930 . S
C2736 C2735 1.388 . S
C2736 C2737 1.390 . S
C2737 C2736 1.390 . S
C2737 C2738 1.394 . S
C2737 C2743 1.465 . S
C2738 C2733 1.399 . S
C2738 C2737 1.394 . S
C2738 C2739 1.516 . S
C2739 C2738 1.516 . S
C2739 C2740 1.502 . S
C2739 C2741 1.561 . S
C2739 C2742 1.526 . S
C2740 H2724 0.959 . S
C2740 H2725 0.959 . S
C2740 H2726 0.961 . S
C2740 C2739 1.502 . S
C2741 H2727 0.960 . S
C2741 H2728 0.961 . S
C2741 H2729 0.959 . S
C2741 C2739 1.561 . S
C2742 C2739 1.526 . S
C2742 C2743 1.396 . S
C2742 C2747 1.390 . S
C2743 C2737 1.465 . S
C2743 C2742 1.396 . S
C2743 C2744 1.399 . S
C2744 H2730 0.929 . S
C2744 C2743 1.399 . S
C2744 C2745 1.385 . S
C2745 H2731 0.931 . S
C2745 C2744 1.385 . S
C2745 C2746 1.389 . S
C2746 C2745 1.389 . S
C2746 C2747 1.387 . S
C2747 H2732 0.930 . S
C2747 C2742 1.390 . S
C2747 C2746 1.387 . S
H2748 C2760 0.930 . S
H2749 C2762 0.930 . S
H2750 C2763 0.930 . S
H2751 C2767 0.959 . S
H2752 C2767 0.959 . S
H2753 C2767 0.961 . S
H2754 C2768 0.960 . S
H2755 C2768 0.961 . S
H2756 C2768 0.959 . S
H2757 C2771 0.929 . S
H2758 C2772 0.931 . S
H2759 C2774 0.930 . S
C2760 H2748 0.930 . S
C2760 C2761 1.399 . S
C2760 C2765 1.399 . S
C2761 C2760 1.399 . S
C2761 C2762 1.376 . S
C2762 H2749 0.930 . S
C2762 C2761 1.376 . S
C2762 C2763 1.388 . S
C2763 H2750 0.930 . S
C2763 C2762 1.388 . S
C2763 C2764 1.390 . S
C2764 C2763 1.390 . S
C2764 C2765 1.394 . S
C2764 C2770 1.465 . S
C2765 C2760 1.399 . S
C2765 C2764 1.394 . S
C2765 C2766 1.516 . S
C2766 C2765 1.516 . S
C2766 C2767 1.502 . S
C2766 C2768 1.561 . S
C2766 C2769 1.526 . S
C2767 H2751 0.959 . S
C2767 H2752 0.959 . S
C2767 H2753 0.961 . S
C2767 C2766 1.502 . S
C2768 H2754 0.960 . S
C2768 H2755 0.961 . S
C2768 H2756 0.959 . S
C2768 C2766 1.561 . S
C2769 C2766 1.526 . S
C2769 C2770 1.396 . S
C2769 C2774 1.390 . S
C2770 C2764 1.465 . S
C2770 C2769 1.396 . S
C2770 C2771 1.399 . S
C2771 H2757 0.929 . S
C2771 C2770 1.399 . S
C2771 C2772 1.385 . S
C2772 H2758 0.931 . S
C2772 C2771 1.385 . S
C2772 C2773 1.389 . S
C2773 C2772 1.389 . S
C2773 C2774 1.387 . S
C2774 H2759 0.930 . S
C2774 C2769 1.390 . S
C2774 C2773 1.387 . S
H2775 C2787 0.930 . S
H2776 C2789 0.930 . S
H2777 C2790 0.930 . S
H2778 C2794 0.959 . S
H2779 C2794 0.959 . S
H2780 C2794 0.961 . S
H2781 C2795 0.960 . S
H2782 C2795 0.961 . S
H2783 C2795 0.959 . S
H2784 C2798 0.929 . S
H2785 C2799 0.931 . S
H2786 C2801 0.930 . S
C2787 H2775 0.930 . S
C2787 C2788 1.399 . S
C2787 C2792 1.399 . S
C2788 C2787 1.399 . S
C2788 C2789 1.376 . S
C2789 H2776 0.930 . S
C2789 C2788 1.376 . S
C2789 C2790 1.388 . S
C2790 H2777 0.930 . S
C2790 C2789 1.388 . S
C2790 C2791 1.390 . S
C2791 C2790 1.390 . S
C2791 C2792 1.394 . S
C2791 C2797 1.465 . S
C2792 C2787 1.399 . S
C2792 C2791 1.394 . S
C2792 C2793 1.516 . S
C2793 C2792 1.516 . S
C2793 C2794 1.502 . S
C2793 C2795 1.561 . S
C2793 C2796 1.526 . S
C2794 H2778 0.959 . S
C2794 H2779 0.959 . S
C2794 H2780 0.961 . S
C2794 C2793 1.502 . S
C2795 H2781 0.960 . S
C2795 H2782 0.961 . S
C2795 H2783 0.959 . S
C2795 C2793 1.561 . S
C2796 C2793 1.526 . S
C2796 C2797 1.396 . S
C2796 C2801 1.390 . S
C2797 C2791 1.465 . S
C2797 C2796 1.396 . S
C2797 C2798 1.399 . S
C2798 H2784 0.929 . S
C2798 C2797 1.399 . S
C2798 C2799 1.385 . S
C2799 H2785 0.931 . S
C2799 C2798 1.385 . S
C2799 C2800 1.389 . S
C2800 C2799 1.389 . S
C2800 C2801 1.387 . S
C2801 H2786 0.930 . S
C2801 C2796 1.390 . S
C2801 C2800 1.387 . S
H2802 C2814 0.930 . S
H2803 C2816 0.930 . S
H2804 C2817 0.930 . S
H2805 C2821 0.959 . S
H2806 C2821 0.959 . S
H2807 C2821 0.961 . S
H2808 C2822 0.960 . S
H2809 C2822 0.961 . S
H2810 C2822 0.959 . S
H2811 C2825 0.929 . S
H2812 C2826 0.931 . S
H2813 C2828 0.930 . S
C2814 H2802 0.930 . S
C2814 C2815 1.399 . S
C2814 C2819 1.399 . S
C2815 C2814 1.399 . S
C2815 C2816 1.376 . S
C2816 H2803 0.930 . S
C2816 C2815 1.376 . S
C2816 C2817 1.388 . S
C2817 H2804 0.930 . S
C2817 C2816 1.388 . S
C2817 C2818 1.390 . S
C2818 C2817 1.390 . S
C2818 C2819 1.394 . S
C2818 C2824 1.465 . S
C2819 C2814 1.399 . S
C2819 C2818 1.394 . S
C2819 C2820 1.516 . S
C2820 C2819 1.516 . S
C2820 C2821 1.502 . S
C2820 C2822 1.561 . S
C2820 C2823 1.526 . S
C2821 H2805 0.959 . S
C2821 H2806 0.959 . S
C2821 H2807 0.961 . S
C2821 C2820 1.502 . S
C2822 H2808 0.960 . S
C2822 H2809 0.961 . S
C2822 H2810 0.959 . S
C2822 C2820 1.561 . S
C2823 C2820 1.526 . S
C2823 C2824 1.396 . S
C2823 C2828 1.390 . S
C2824 C2818 1.465 . S
C2824 C2823 1.396 . S
C2824 C2825 1.399 . S
C2825 H2811 0.929 . S
C2825 C2824 1.399 . S
C2825 C2826 1.385 . S
C2826 H2812 0.931 . S
C2826 C2825 1.385 . S
C2826 C2827 1.389 . S
C2827 C2826 1.389 . S
C2827 C2828 1.387 . S
C2828 H2813 0.930 . S
C2828 C2823 1.390 . S
C2828 C2827 1.387 . S
H2829 C2841 0.930 . S
H2830 C2843 0.930 . S
H2831 C2844 0.930 . S
H2832 C2848 0.959 . S
H2833 C2848 0.959 . S
H2834 C2848 0.961 . S
H2835 C2849 0.960 . S
H2836 C2849 0.961 . S
H2837 C2849 0.959 . S
H2838 C2852 0.929 . S
H2839 C2853 0.931 . S
H2840 C2855 0.930 . S
C2841 H2829 0.930 . S
C2841 C2842 1.399 . S
C2841 C2846 1.399 . S
C2842 C2841 1.399 . S
C2842 C2843 1.376 . S
C2843 H2830 0.930 . S
C2843 C2842 1.376 . S
C2843 C2844 1.388 . S
C2844 H2831 0.930 . S
C2844 C2843 1.388 . S
C2844 C2845 1.390 . S
C2845 C2844 1.390 . S
C2845 C2846 1.394 . S
C2845 C2851 1.465 . S
C2846 C2841 1.399 . S
C2846 C2845 1.394 . S
C2846 C2847 1.516 . S
C2847 C2846 1.516 . S
C2847 C2848 1.502 . S
C2847 C2849 1.561 . S
C2847 C2850 1.526 . S
C2848 H2832 0.959 . S
C2848 H2833 0.959 . S
C2848 H2834 0.961 . S
C2848 C2847 1.502 . S
C2849 H2835 0.960 . S
C2849 H2836 0.961 . S
C2849 H2837 0.959 . S
C2849 C2847 1.561 . S
C2850 C2847 1.526 . S
C2850 C2851 1.396 . S
C2850 C2855 1.390 . S
C2851 C2845 1.465 . S
C2851 C2850 1.396 . S
C2851 C2852 1.399 . S
C2852 H2838 0.929 . S
C2852 C2851 1.399 . S
C2852 C2853 1.385 . S
C2853 H2839 0.931 . S
C2853 C2852 1.385 . S
C2853 C2854 1.389 . S
C2854 C2853 1.389 . S
C2854 C2855 1.387 . S
C2855 H2840 0.930 . S
C2855 C2850 1.390 . S
C2855 C2854 1.387 . S
H2856 C2868 0.930 . S
H2857 C2870 0.930 . S
H2858 C2871 0.930 . S
H2859 C2875 0.959 . S
H2860 C2875 0.959 . S
H2861 C2875 0.961 . S
H2862 C2876 0.960 . S
H2863 C2876 0.961 . S
H2864 C2876 0.959 . S
H2865 C2879 0.929 . S
H2866 C2880 0.931 . S
H2867 C2882 0.930 . S
C2868 H2856 0.930 . S
C2868 C2869 1.399 . S
C2868 C2873 1.399 . S
C2869 C2868 1.399 . S
C2869 C2870 1.376 . S
C2870 H2857 0.930 . S
C2870 C2869 1.376 . S
C2870 C2871 1.388 . S
C2871 H2858 0.930 . S
C2871 C2870 1.388 . S
C2871 C2872 1.390 . S
C2872 C2871 1.390 . S
C2872 C2873 1.394 . S
C2872 C2878 1.465 . S
C2873 C2868 1.399 . S
C2873 C2872 1.394 . S
C2873 C2874 1.516 . S
C2874 C2873 1.516 . S
C2874 C2875 1.502 . S
C2874 C2876 1.561 . S
C2874 C2877 1.526 . S
C2875 H2859 0.959 . S
C2875 H2860 0.959 . S
C2875 H2861 0.961 . S
C2875 C2874 1.502 . S
C2876 H2862 0.960 . S
C2876 H2863 0.961 . S
C2876 H2864 0.959 . S
C2876 C2874 1.561 . S
C2877 C2874 1.526 . S
C2877 C2878 1.396 . S
C2877 C2882 1.390 . S
C2878 C2872 1.465 . S
C2878 C2877 1.396 . S
C2878 C2879 1.399 . S
C2879 H2865 0.929 . S
C2879 C2878 1.399 . S
C2879 C2880 1.385 . S
C2880 H2866 0.931 . S
C2880 C2879 1.385 . S
C2880 C2881 1.389 . S
C2881 C2880 1.389 . S
C2881 C2882 1.387 . S
C2882 H2867 0.930 . S
C2882 C2877 1.390 . S
C2882 C2881 1.387 . S
H2883 C2895 0.930 . S
H2884 C2897 0.930 . S
H2885 C2898 0.930 . S
H2886 C2902 0.959 . S
H2887 C2902 0.959 . S
H2888 C2902 0.961 . S
H2889 C2903 0.960 . S
H2890 C2903 0.961 . S
H2891 C2903 0.959 . S
H2892 C2906 0.929 . S
H2893 C2907 0.931 . S
H2894 C2909 0.930 . S
C2895 H2883 0.930 . S
C2895 C2896 1.399 . S
C2895 C2900 1.399 . S
C2896 C2895 1.399 . S
C2896 C2897 1.376 . S
C2897 H2884 0.930 . S
C2897 C2896 1.376 . S
C2897 C2898 1.388 . S
C2898 H2885 0.930 . S
C2898 C2897 1.388 . S
C2898 C2899 1.390 . S
C2899 C2898 1.390 . S
C2899 C2900 1.394 . S
C2899 C2905 1.465 . S
C2900 C2895 1.399 . S
C2900 C2899 1.394 . S
C2900 C2901 1.516 . S
C2901 C2900 1.516 . S
C2901 C2902 1.502 . S
C2901 C2903 1.561 . S
C2901 C2904 1.526 . S
C2902 H2886 0.959 . S
C2902 H2887 0.959 . S
C2902 H2888 0.961 . S
C2902 C2901 1.502 . S
C2903 H2889 0.960 . S
C2903 H2890 0.961 . S
C2903 H2891 0.959 . S
C2903 C2901 1.561 . S
C2904 C2901 1.526 . S
C2904 C2905 1.396 . S
C2904 C2909 1.390 . S
C2905 C2899 1.465 . S
C2905 C2904 1.396 . S
C2905 C2906 1.399 . S
C2906 H2892 0.929 . S
C2906 C2905 1.399 . S
C2906 C2907 1.385 . S
C2907 H2893 0.931 . S
C2907 C2906 1.385 . S
C2907 C2908 1.389 . S
C2908 C2907 1.389 . S
C2908 C2909 1.387 . S
C2909 H2894 0.930 . S
C2909 C2904 1.390 . S
C2909 C2908 1.387 . S
H2910 C2922 0.930 . S
H2911 C2924 0.930 . S
H2912 C2925 0.930 . S
H2913 C2929 0.959 . S
H2914 C2929 0.959 . S
H2915 C2929 0.961 . S
H2916 C2930 0.960 . S
H2917 C2930 0.961 . S
H2918 C2930 0.959 . S
H2919 C2933 0.929 . S
H2920 C2934 0.931 . S
H2921 C2936 0.930 . S
C2922 H2910 0.930 . S
C2922 C2923 1.399 . S
C2922 C2927 1.399 . S
C2923 C2922 1.399 . S
C2923 C2924 1.376 . S
C2924 H2911 0.930 . S
C2924 C2923 1.376 . S
C2924 C2925 1.388 . S
C2925 H2912 0.930 . S
C2925 C2924 1.388 . S
C2925 C2926 1.390 . S
C2926 C2925 1.390 . S
C2926 C2927 1.394 . S
C2926 C2932 1.465 . S
C2927 C2922 1.399 . S
C2927 C2926 1.394 . S
C2927 C2928 1.516 . S
C2928 C2927 1.516 . S
C2928 C2929 1.502 . S
C2928 C2930 1.561 . S
C2928 C2931 1.526 . S
C2929 H2913 0.959 . S
C2929 H2914 0.959 . S
C2929 H2915 0.961 . S
C2929 C2928 1.502 . S
C2930 H2916 0.960 . S
C2930 H2917 0.961 . S
C2930 H2918 0.959 . S
C2930 C2928 1.561 . S
C2931 C2928 1.526 . S
C2931 C2932 1.396 . S
C2931 C2936 1.390 . S
C2932 C2926 1.465 . S
C2932 C2931 1.396 . S
C2932 C2933 1.399 . S
C2933 H2919 0.929 . S
C2933 C2932 1.399 . S
C2933 C2934 1.385 . S
C2934 H2920 0.931 . S
C2934 C2933 1.385 . S
C2934 C2935 1.389 . S
C2935 C2934 1.389 . S
C2935 C2936 1.387 . S
C2936 H2921 0.930 . S
C2936 C2931 1.390 . S
C2936 C2935 1.387 . S
H2937 C2949 0.930 . S
H2938 C2951 0.930 . S
H2939 C2952 0.930 . S
H2940 C2956 0.959 . S
H2941 C2956 0.959 . S
H2942 C2956 0.961 . S
H2943 C2957 0.960 . S
H2944 C2957 0.961 . S
H2945 C2957 0.959 . S
H2946 C2960 0.929 . S
H2947 C2961 0.931 . S
H2948 C2963 0.930 . S
C2949 H2937 0.930 . S
C2949 C2950 1.399 . S
C2949 C2954 1.399 . S
C2950 C2949 1.399 . S
C2950 C2951 1.376 . S
C2951 H2938 0.930 . S
C2951 C2950 1.376 . S
C2951 C2952 1.388 . S
C2952 H2939 0.930 . S
C2952 C2951 1.388 . S
C2952 C2953 1.390 . S
C2953 C2952 1.390 . S
C2953 C2954 1.394 . S
C2953 C2959 1.465 . S
C2954 C2949 1.399 . S
C2954 C2953 1.394 . S
C2954 C2955 1.516 . S
C2955 C2954 1.516 . S
C2955 C2956 1.502 . S
C2955 C2957 1.561 . S
C2955 C2958 1.526 . S
C2956 H2940 0.959 . S
C2956 H2941 0.959 . S
C2956 H2942 0.961 . S
C2956 C2955 1.502 . S
C2957 H2943 0.960 . S
C2957 H2944 0.961 . S
C2957 H2945 0.959 . S
C2957 C2955 1.561 . S
C2958 C2955 1.526 . S
C2958 C2959 1.396 . S
C2958 C2963 1.390 . S
C2959 C2953 1.465 . S
C2959 C2958 1.396 . S
C2959 C2960 1.399 . S
C2960 H2946 0.929 . S
C2960 C2959 1.399 . S
C2960 C2961 1.385 . S
C2961 H2947 0.931 . S
C2961 C2960 1.385 . S
C2961 C2962 1.389 . S
C2962 C2961 1.389 . S
C2962 C2963 1.387 . S
C2963 H2948 0.930 . S
C2963 C2958 1.390 . S
C2963 C2962 1.387 . S
H2964 C2976 0.930 . S
H2965 C2978 0.930 . S
H2966 C2979 0.930 . S
H2967 C2983 0.959 . S
H2968 C2983 0.959 . S
H2969 C2983 0.961 . S
H2970 C2984 0.960 . S
H2971 C2984 0.961 . S
H2972 C2984 0.959 . S
H2973 C2987 0.929 . S
H2974 C2988 0.931 . S
H2975 C2990 0.930 . S
C2976 H2964 0.930 . S
C2976 C2977 1.399 . S
C2976 C2981 1.399 . S
C2977 C2976 1.399 . S
C2977 C2978 1.376 . S
C2978 H2965 0.930 . S
C2978 C2977 1.376 . S
C2978 C2979 1.388 . S
C2979 H2966 0.930 . S
C2979 C2978 1.388 . S
C2979 C2980 1.390 . S
C2980 C2979 1.390 . S
C2980 C2981 1.394 . S
C2980 C2986 1.465 . S
C2981 C2976 1.399 . S
C2981 C2980 1.394 . S
C2981 C2982 1.516 . S
C2982 C2981 1.516 . S
C2982 C2983 1.502 . S
C2982 C2984 1.561 . S
C2982 C2985 1.526 . S
C2983 H2967 0.959 . S
C2983 H2968 0.959 . S
C2983 H2969 0.961 . S
C2983 C2982 1.502 . S
C2984 H2970 0.960 . S
C2984 H2971 0.961 . S
C2984 H2972 0.959 . S
C2984 C2982 1.561 . S
C2985 C2982 1.526 . S
C2985 C2986 1.396 . S
C2985 C2990 1.390 . S
C2986 C2980 1.465 . S
C2986 C2985 1.396 . S
C2986 C2987 1.399 . S
C2987 H2973 0.929 . S
C2987 C2986 1.399 . S
C2987 C2988 1.385 . S
C2988 H2974 0.931 . S
C2988 C2987 1.385 . S
C2988 C2989 1.389 . S
C2989 C2988 1.389 . S
C2989 C2990 1.387 . S
C2990 H2975 0.930 . S
C2990 C2985 1.390 . S
C2990 C2989 1.387 . S
H2991 C3003 0.930 . S
H2992 C3005 0.930 . S
H2993 C3006 0.930 . S
H2994 C3010 0.959 . S
H2995 C3010 0.959 . S
H2996 C3010 0.961 . S
H2997 C3011 0.960 . S
H2998 C3011 0.961 . S
H2999 C3011 0.959 . S
H3000 C3014 0.929 . S
H3001 C3015 0.931 . S
H3002 C3017 0.930 . S
C3003 H2991 0.930 . S
C3003 C3004 1.399 . S
C3003 C3008 1.399 . S
C3004 C3003 1.399 . S
C3004 C3005 1.376 . S
C3005 H2992 0.930 . S
C3005 C3004 1.376 . S
C3005 C3006 1.388 . S
C3006 H2993 0.930 . S
C3006 C3005 1.388 . S
C3006 C3007 1.390 . S
C3007 C3006 1.390 . S
C3007 C3008 1.394 . S
C3007 C3013 1.465 . S
C3008 C3003 1.399 . S
C3008 C3007 1.394 . S
C3008 C3009 1.516 . S
C3009 C3008 1.516 . S
C3009 C3010 1.502 . S
C3009 C3011 1.561 . S
C3009 C3012 1.526 . S
C3010 H2994 0.959 . S
C3010 H2995 0.959 . S
C3010 H2996 0.961 . S
C3010 C3009 1.502 . S
C3011 H2997 0.960 . S
C3011 H2998 0.961 . S
C3011 H2999 0.959 . S
C3011 C3009 1.561 . S
C3012 C3009 1.526 . S
C3012 C3013 1.396 . S
C3012 C3017 1.390 . S
C3013 C3007 1.465 . S
C3013 C3012 1.396 . S
C3013 C3014 1.399 . S
C3014 H3000 0.929 . S
C3014 C3013 1.399 . S
C3014 C3015 1.385 . S
C3015 H3001 0.931 . S
C3015 C3014 1.385 . S
C3015 C3016 1.389 . S
C3016 C3015 1.389 . S
C3016 C3017 1.387 . S
C3017 H3002 0.930 . S
C3017 C3012 1.390 . S
C3017 C3016 1.387 . S
H3018 C3030 0.930 . S
H3019 C3032 0.930 . S
H3020 C3033 0.930 . S
H3021 C3037 0.959 . S
H3022 C3037 0.959 . S
H3023 C3037 0.961 . S
H3024 C3038 0.960 . S
H3025 C3038 0.961 . S
H3026 C3038 0.959 . S
H3027 C3041 0.929 . S
H3028 C3042 0.931 . S
H3029 C3044 0.930 . S
C3030 H3018 0.930 . S
C3030 C3031 1.399 . S
C3030 C3035 1.399 . S
C3031 C3030 1.399 . S
C3031 C3032 1.376 . S
C3032 H3019 0.930 . S
C3032 C3031 1.376 . S
C3032 C3033 1.388 . S
C3033 H3020 0.930 . S
C3033 C3032 1.388 . S
C3033 C3034 1.390 . S
C3034 C3033 1.390 . S
C3034 C3035 1.394 . S
C3034 C3040 1.465 . S
C3035 C3030 1.399 . S
C3035 C3034 1.394 . S
C3035 C3036 1.516 . S
C3036 C3035 1.516 . S
C3036 C3037 1.502 . S
C3036 C3038 1.561 . S
C3036 C3039 1.526 . S
C3037 H3021 0.959 . S
C3037 H3022 0.959 . S
C3037 H3023 0.961 . S
C3037 C3036 1.502 . S
C3038 H3024 0.960 . S
C3038 H3025 0.961 . S
C3038 H3026 0.959 . S
C3038 C3036 1.561 . S
C3039 C3036 1.526 . S
C3039 C3040 1.396 . S
C3039 C3044 1.390 . S
C3040 C3034 1.465 . S
C3040 C3039 1.396 . S
C3040 C3041 1.399 . S
C3041 H3027 0.929 . S
C3041 C3040 1.399 . S
C3041 C3042 1.385 . S
C3042 H3028 0.931 . S
C3042 C3041 1.385 . S
C3042 C3043 1.389 . S
C3043 C3042 1.389 . S
C3043 C3044 1.387 . S
C3044 H3029 0.930 . S
C3044 C3039 1.390 . S
C3044 C3043 1.387 . S
H3045 C3057 0.930 . S
H3046 C3059 0.930 . S
H3047 C3060 0.930 . S
H3048 C3064 0.959 . S
H3049 C3064 0.959 . S
H3050 C3064 0.961 . S
H3051 C3065 0.960 . S
H3052 C3065 0.961 . S
H3053 C3065 0.959 . S
H3054 C3068 0.929 . S
H3055 C3069 0.931 . S
H3056 C3071 0.930 . S
C3057 H3045 0.930 . S
C3057 C3058 1.399 . S
C3057 C3062 1.399 . S
C3058 C3057 1.399 . S
C3058 C3059 1.376 . S
C3059 H3046 0.930 . S
C3059 C3058 1.376 . S
C3059 C3060 1.388 . S
C3060 H3047 0.930 . S
C3060 C3059 1.388 . S
C3060 C3061 1.390 . S
C3061 C3060 1.390 . S
C3061 C3062 1.394 . S
C3061 C3067 1.465 . S
C3062 C3057 1.399 . S
C3062 C3061 1.394 . S
C3062 C3063 1.516 . S
C3063 C3062 1.516 . S
C3063 C3064 1.502 . S
C3063 C3065 1.561 . S
C3063 C3066 1.526 . S
C3064 H3048 0.959 . S
C3064 H3049 0.959 . S
C3064 H3050 0.961 . S
C3064 C3063 1.502 . S
C3065 H3051 0.960 . S
C3065 H3052 0.961 . S
C3065 H3053 0.959 . S
C3065 C3063 1.561 . S
C3066 C3063 1.526 . S
C3066 C3067 1.396 . S
C3066 C3071 1.390 . S
C3067 C3061 1.465 . S
C3067 C3066 1.396 . S
C3067 C3068 1.399 . S
C3068 H3054 0.929 . S
C3068 C3067 1.399 . S
C3068 C3069 1.385 . S
C3069 H3055 0.931 . S
C3069 C3068 1.385 . S
C3069 C3070 1.389 . S
C3070 C3069 1.389 . S
C3070 C3071 1.387 . S
C3071 H3056 0.930 . S
C3071 C3066 1.390 . S
C3071 C3070 1.387 . S
H3072 C3084 0.930 . S
H3073 C3086 0.930 . S
H3074 C3087 0.930 . S
H3075 C3091 0.959 . S
H3076 C3091 0.959 . S
H3077 C3091 0.961 . S
H3078 C3092 0.960 . S
H3079 C3092 0.961 . S
H3080 C3092 0.959 . S
H3081 C3095 0.929 . S
H3082 C3096 0.931 . S
H3083 C3098 0.930 . S
C3084 H3072 0.930 . S
C3084 C3085 1.399 . S
C3084 C3089 1.399 . S
C3085 C3084 1.399 . S
C3085 C3086 1.376 . S
C3086 H3073 0.930 . S
C3086 C3085 1.376 . S
C3086 C3087 1.388 . S
C3087 H3074 0.930 . S
C3087 C3086 1.388 . S
C3087 C3088 1.390 . S
C3088 C3087 1.390 . S
C3088 C3089 1.394 . S
C3088 C3094 1.465 . S
C3089 C3084 1.399 . S
C3089 C3088 1.394 . S
C3089 C3090 1.516 . S
C3090 C3089 1.516 . S
C3090 C3091 1.502 . S
C3090 C3092 1.561 . S
C3090 C3093 1.526 . S
C3091 H3075 0.959 . S
C3091 H3076 0.959 . S
C3091 H3077 0.961 . S
C3091 C3090 1.502 . S
C3092 H3078 0.960 . S
C3092 H3079 0.961 . S
C3092 H3080 0.959 . S
C3092 C3090 1.561 . S
C3093 C3090 1.526 . S
C3093 C3094 1.396 . S
C3093 C3098 1.390 . S
C3094 C3088 1.465 . S
C3094 C3093 1.396 . S
C3094 C3095 1.399 . S
C3095 H3081 0.929 . S
C3095 C3094 1.399 . S
C3095 C3096 1.385 . S
C3096 H3082 0.931 . S
C3096 C3095 1.385 . S
C3096 C3097 1.389 . S
C3097 C3096 1.389 . S
C3097 C3098 1.387 . S
C3098 H3083 0.930 . S
C3098 C3093 1.390 . S
C3098 C3097 1.387 . S
H3099 C3111 0.930 . S
H3100 C3113 0.930 . S
H3101 C3114 0.930 . S
H3102 C3118 0.959 . S
H3103 C3118 0.959 . S
H3104 C3118 0.961 . S
H3105 C3119 0.960 . S
H3106 C3119 0.961 . S
H3107 C3119 0.959 . S
H3108 C3122 0.929 . S
H3109 C3123 0.931 . S
H3110 C3125 0.930 . S
C3111 H3099 0.930 . S
C3111 C3112 1.399 . S
C3111 C3116 1.399 . S
C3112 C3111 1.399 . S
C3112 C3113 1.376 . S
C3113 H3100 0.930 . S
C3113 C3112 1.376 . S
C3113 C3114 1.388 . S
C3114 H3101 0.930 . S
C3114 C3113 1.388 . S
C3114 C3115 1.390 . S
C3115 C3114 1.390 . S
C3115 C3116 1.394 . S
C3115 C3121 1.465 . S
C3116 C3111 1.399 . S
C3116 C3115 1.394 . S
C3116 C3117 1.516 . S
C3117 C3116 1.516 . S
C3117 C3118 1.502 . S
C3117 C3119 1.561 . S
C3117 C3120 1.526 . S
C3118 H3102 0.959 . S
C3118 H3103 0.959 . S
C3118 H3104 0.961 . S
C3118 C3117 1.502 . S
C3119 H3105 0.960 . S
C3119 H3106 0.961 . S
C3119 H3107 0.959 . S
C3119 C3117 1.561 . S
C3120 C3117 1.526 . S
C3120 C3121 1.396 . S
C3120 C3125 1.390 . S
C3121 C3115 1.465 . S
C3121 C3120 1.396 . S
C3121 C3122 1.399 . S
C3122 H3108 0.929 . S
C3122 C3121 1.399 . S
C3122 C3123 1.385 . S
C3123 H3109 0.931 . S
C3123 C3122 1.385 . S
C3123 C3124 1.389 . S
C3124 C3123 1.389 . S
C3124 C3125 1.387 . S
C3125 H3110 0.930 . S
C3125 C3120 1.390 . S
C3125 C3124 1.387 . S
H3126 C3138 0.930 . S
H3127 C3140 0.930 . S
H3128 C3141 0.930 . S
H3129 C3145 0.959 . S
H3130 C3145 0.959 . S
H3131 C3145 0.961 . S
H3132 C3146 0.960 . S
H3133 C3146 0.961 . S
H3134 C3146 0.959 . S
H3135 C3149 0.929 . S
H3136 C3150 0.931 . S
H3137 C3152 0.930 . S
C3138 H3126 0.930 . S
C3138 C3139 1.399 . S
C3138 C3143 1.399 . S
C3139 C3138 1.399 . S
C3139 C3140 1.376 . S
C3140 H3127 0.930 . S
C3140 C3139 1.376 . S
C3140 C3141 1.388 . S
C3141 H3128 0.930 . S
C3141 C3140 1.388 . S
C3141 C3142 1.390 . S
C3142 C3141 1.390 . S
C3142 C3143 1.394 . S
C3142 C3148 1.465 . S
C3143 C3138 1.399 . S
C3143 C3142 1.394 . S
C3143 C3144 1.516 . S
C3144 C3143 1.516 . S
C3144 C3145 1.502 . S
C3144 C3146 1.561 . S
C3144 C3147 1.526 . S
C3145 H3129 0.959 . S
C3145 H3130 0.959 . S
C3145 H3131 0.961 . S
C3145 C3144 1.502 . S
C3146 H3132 0.960 . S
C3146 H3133 0.961 . S
C3146 H3134 0.959 . S
C3146 C3144 1.561 . S
C3147 C3144 1.526 . S
C3147 C3148 1.396 . S
C3147 C3152 1.390 . S
C3148 C3142 1.465 . S
C3148 C3147 1.396 . S
C3148 C3149 1.399 . S
C3149 H3135 0.929 . S
C3149 C3148 1.399 . S
C3149 C3150 1.385 . S
C3150 H3136 0.931 . S
C3150 C3149 1.385 . S
C3150 C3151 1.389 . S
C3151 C3150 1.389 . S
C3151 C3152 1.387 . S
C3152 H3137 0.930 . S
C3152 C3147 1.390 . S
C3152 C3151 1.387 . S
H3153 C3165 0.930 . S
H3154 C3167 0.930 . S
H3155 C3168 0.930 . S
H3156 C3172 0.959 . S
H3157 C3172 0.959 . S
H3158 C3172 0.961 . S
H3159 C3173 0.960 . S
H3160 C3173 0.961 . S
H3161 C3173 0.959 . S
H3162 C3176 0.929 . S
H3163 C3177 0.931 . S
H3164 C3179 0.930 . S
C3165 H3153 0.930 . S
C3165 C3166 1.399 . S
C3165 C3170 1.399 . S
C3166 C3165 1.399 . S
C3166 C3167 1.376 . S
C3167 H3154 0.930 . S
C3167 C3166 1.376 . S
C3167 C3168 1.388 . S
C3168 H3155 0.930 . S
C3168 C3167 1.388 . S
C3168 C3169 1.390 . S
C3169 C3168 1.390 . S
C3169 C3170 1.394 . S
C3169 C3175 1.465 . S
C3170 C3165 1.399 . S
C3170 C3169 1.394 . S
C3170 C3171 1.516 . S
C3171 C3170 1.516 . S
C3171 C3172 1.502 . S
C3171 C3173 1.561 . S
C3171 C3174 1.526 . S
C3172 H3156 0.959 . S
C3172 H3157 0.959 . S
C3172 H3158 0.961 . S
C3172 C3171 1.502 . S
C3173 H3159 0.960 . S
C3173 H3160 0.961 . S
C3173 H3161 0.959 . S
C3173 C3171 1.561 . S
C3174 C3171 1.526 . S
C3174 C3175 1.396 . S
C3174 C3179 1.390 . S
C3175 C3169 1.465 . S
C3175 C3174 1.396 . S
C3175 C3176 1.399 . S
C3176 H3162 0.929 . S
C3176 C3175 1.399 . S
C3176 C3177 1.385 . S
C3177 H3163 0.931 . S
C3177 C3176 1.385 . S
C3177 C3178 1.389 . S
C3178 C3177 1.389 . S
C3178 C3179 1.387 . S
C3179 H3164 0.930 . S
C3179 C3174 1.390 . S
C3179 C3178 1.387 . S
H3180 C3192 0.930 . S
H3181 C3194 0.930 . S
H3182 C3195 0.930 . S
H3183 C3199 0.959 . S
H3184 C3199 0.959 . S
H3185 C3199 0.961 . S
H3186 C3200 0.960 . S
H3187 C3200 0.961 . S
H3188 C3200 0.959 . S
H3189 C3203 0.929 . S
H3190 C3204 0.931 . S
H3191 C3206 0.930 . S
C3192 H3180 0.930 . S
C3192 C3193 1.399 . S
C3192 C3197 1.399 . S
C3193 C3192 1.399 . S
C3193 C3194 1.376 . S
C3194 H3181 0.930 . S
C3194 C3193 1.376 . S
C3194 C3195 1.388 . S
C3195 H3182 0.930 . S
C3195 C3194 1.388 . S
C3195 C3196 1.390 . S
C3196 C3195 1.390 . S
C3196 C3197 1.394 . S
C3196 C3202 1.465 . S
C3197 C3192 1.399 . S
C3197 C3196 1.394 . S
C3197 C3198 1.516 . S
C3198 C3197 1.516 . S
C3198 C3199 1.502 . S
C3198 C3200 1.561 . S
C3198 C3201 1.526 . S
C3199 H3183 0.959 . S
C3199 H3184 0.959 . S
C3199 H3185 0.961 . S
C3199 C3198 1.502 . S
C3200 H3186 0.960 . S
C3200 H3187 0.961 . S
C3200 H3188 0.959 . S
C3200 C3198 1.561 . S
C3201 C3198 1.526 . S
C3201 C3202 1.396 . S
C3201 C3206 1.390 . S
C3202 C3196 1.465 . S
C3202 C3201 1.396 . S
C3202 C3203 1.399 . S
C3203 H3189 0.929 . S
C3203 C3202 1.399 . S
C3203 C3204 1.385 . S
C3204 H3190 0.931 . S
C3204 C3203 1.385 . S
C3204 C3205 1.389 . S
C3205 C3204 1.389 . S
C3205 C3206 1.387 . S
C3206 H3191 0.930 . S
C3206 C3201 1.390 . S
C3206 C3205 1.387 . S
H3207 C3219 0.930 . S
H3208 C3221 0.930 . S
H3209 C3222 0.930 . S
H3210 C3226 0.959 . S
H3211 C3226 0.959 . S
H3212 C3226 0.961 . S
H3213 C3227 0.960 . S
H3214 C3227 0.961 . S
H3215 C3227 0.959 . S
H3216 C3230 0.929 . S
H3217 C3231 0.931 . S
H3218 C3233 0.930 . S
C3219 H3207 0.930 . S
C3219 C3220 1.399 . S
C3219 C3224 1.399 . S
C3220 C3219 1.399 . S
C3220 C3221 1.376 . S
C3221 H3208 0.930 . S
C3221 C3220 1.376 . S
C3221 C3222 1.388 . S
C3222 H3209 0.930 . S
C3222 C3221 1.388 . S
C3222 C3223 1.390 . S
C3223 C3222 1.390 . S
C3223 C3224 1.394 . S
C3223 C3229 1.465 . S
C3224 C3219 1.399 . S
C3224 C3223 1.394 . S
C3224 C3225 1.516 . S
C3225 C3224 1.516 . S
C3225 C3226 1.502 . S
C3225 C3227 1.561 . S
C3225 C3228 1.526 . S
C3226 H3210 0.959 . S
C3226 H3211 0.959 . S
C3226 H3212 0.961 . S
C3226 C3225 1.502 . S
C3227 H3213 0.960 . S
C3227 H3214 0.961 . S
C3227 H3215 0.959 . S
C3227 C3225 1.561 . S
C3228 C3225 1.526 . S
C3228 C3229 1.396 . S
C3228 C3233 1.390 . S
C3229 C3223 1.465 . S
C3229 C3228 1.396 . S
C3229 C3230 1.399 . S
C3230 H3216 0.929 . S
C3230 C3229 1.399 . S
C3230 C3231 1.385 . S
C3231 H3217 0.931 . S
C3231 C3230 1.385 . S
C3231 C3232 1.389 . S
C3232 C3231 1.389 . S
C3232 C3233 1.387 . S
C3233 H3218 0.930 . S
C3233 C3228 1.390 . S
C3233 C3232 1.387 . S
H3234 C3246 0.930 . S
H3235 C3248 0.930 . S
H3236 C3249 0.930 . S
H3237 C3253 0.959 . S
H3238 C3253 0.959 . S
H3239 C3253 0.961 . S
H3240 C3254 0.960 . S
H3241 C3254 0.961 . S
H3242 C3254 0.959 . S
H3243 C3257 0.929 . S
H3244 C3258 0.931 . S
H3245 C3260 0.930 . S
C3246 H3234 0.930 . S
C3246 C3247 1.399 . S
C3246 C3251 1.399 . S
C3247 C3246 1.399 . S
C3247 C3248 1.376 . S
C3248 H3235 0.930 . S
C3248 C3247 1.376 . S
C3248 C3249 1.388 . S
C3249 H3236 0.930 . S
C3249 C3248 1.388 . S
C3249 C3250 1.390 . S
C3250 C3249 1.390 . S
C3250 C3251 1.394 . S
C3250 C3256 1.465 . S
C3251 C3246 1.399 . S
C3251 C3250 1.394 . S
C3251 C3252 1.516 . S
C3252 C3251 1.516 . S
C3252 C3253 1.502 . S
C3252 C3254 1.561 . S
C3252 C3255 1.526 . S
C3253 H3237 0.959 . S
C3253 H3238 0.959 . S
C3253 H3239 0.961 . S
C3253 C3252 1.502 . S
C3254 H3240 0.960 . S
C3254 H3241 0.961 . S
C3254 H3242 0.959 . S
C3254 C3252 1.561 . S
C3255 C3252 1.526 . S
C3255 C3256 1.396 . S
C3255 C3260 1.390 . S
C3256 C3250 1.465 . S
C3256 C3255 1.396 . S
C3256 C3257 1.399 . S
C3257 H3243 0.929 . S
C3257 C3256 1.399 . S
C3257 C3258 1.385 . S
C3258 H3244 0.931 . S
C3258 C3257 1.385 . S
C3258 C3259 1.389 . S
C3259 C3258 1.389 . S
C3259 C3260 1.387 . S
C3260 H3245 0.930 . S
C3260 C3255 1.390 . S
C3260 C3259 1.387 . S
H3261 C3273 0.930 . S
H3262 C3275 0.930 . S
H3263 C3276 0.930 . S
H3264 C3280 0.959 . S
H3265 C3280 0.959 . S
H3266 C3280 0.961 . S
H3267 C3281 0.960 . S
H3268 C3281 0.961 . S
H3269 C3281 0.959 . S
H3270 C3284 0.929 . S
H3271 C3285 0.931 . S
H3272 C3287 0.930 . S
C3273 H3261 0.930 . S
C3273 C3274 1.399 . S
C3273 C3278 1.399 . S
C3274 C3273 1.399 . S
C3274 C3275 1.376 . S
C3275 H3262 0.930 . S
C3275 C3274 1.376 . S
C3275 C3276 1.388 . S
C3276 H3263 0.930 . S
C3276 C3275 1.388 . S
C3276 C3277 1.390 . S
C3277 C3276 1.390 . S
C3277 C3278 1.394 . S
C3277 C3283 1.465 . S
C3278 C3273 1.399 . S
C3278 C3277 1.394 . S
C3278 C3279 1.516 . S
C3279 C3278 1.516 . S
C3279 C3280 1.502 . S
C3279 C3281 1.561 . S
C3279 C3282 1.526 . S
C3280 H3264 0.959 . S
C3280 H3265 0.959 . S
C3280 H3266 0.961 . S
C3280 C3279 1.502 . S
C3281 H3267 0.960 . S
C3281 H3268 0.961 . S
C3281 H3269 0.959 . S
C3281 C3279 1.561 . S
C3282 C3279 1.526 . S
C3282 C3283 1.396 . S
C3282 C3287 1.390 . S
C3283 C3277 1.465 . S
C3283 C3282 1.396 . S
C3283 C3284 1.399 . S
C3284 H3270 0.929 . S
C3284 C3283 1.399 . S
C3284 C3285 1.385 . S
C3285 H3271 0.931 . S
C3285 C3284 1.385 . S
C3285 C3286 1.389 . S
C3286 C3285 1.389 . S
C3286 C3287 1.387 . S
C3287 H3272 0.930 . S
C3287 C3282 1.390 . S
C3287 C3286 1.387 . S
H3288 C3300 0.930 . S
H3289 C3302 0.930 . S
H3290 C3303 0.930 . S
H3291 C3307 0.959 . S
H3292 C3307 0.959 . S
H3293 C3307 0.961 . S
H3294 C3308 0.960 . S
H3295 C3308 0.961 . S
H3296 C3308 0.959 . S
H3297 C3311 0.929 . S
H3298 C3312 0.931 . S
H3299 C3314 0.930 . S
C3300 H3288 0.930 . S
C3300 C3301 1.399 . S
C3300 C3305 1.399 . S
C3301 C3300 1.399 . S
C3301 C3302 1.376 . S
C3302 H3289 0.930 . S
C3302 C3301 1.376 . S
C3302 C3303 1.388 . S
C3303 H3290 0.930 . S
C3303 C3302 1.388 . S
C3303 C3304 1.390 . S
C3304 C3303 1.390 . S
C3304 C3305 1.394 . S
C3304 C3310 1.465 . S
C3305 C3300 1.399 . S
C3305 C3304 1.394 . S
C3305 C3306 1.516 . S
C3306 C3305 1.516 . S
C3306 C3307 1.502 . S
C3306 C3308 1.561 . S
C3306 C3309 1.526 . S
C3307 H3291 0.959 . S
C3307 H3292 0.959 . S
C3307 H3293 0.961 . S
C3307 C3306 1.502 . S
C3308 H3294 0.960 . S
C3308 H3295 0.961 . S
C3308 H3296 0.959 . S
C3308 C3306 1.561 . S
C3309 C3306 1.526 . S
C3309 C3310 1.396 . S
C3309 C3314 1.390 . S
C3310 C3304 1.465 . S
C3310 C3309 1.396 . S
C3310 C3311 1.399 . S
C3311 H3297 0.929 . S
C3311 C3310 1.399 . S
C3311 C3312 1.385 . S
C3312 H3298 0.931 . S
C3312 C3311 1.385 . S
C3312 C3313 1.389 . S
C3313 C3312 1.389 . S
C3313 C3314 1.387 . S
C3314 H3299 0.930 . S
C3314 C3309 1.390 . S
C3314 C3313 1.387 . S
H3315 C3327 0.930 . S
H3316 C3329 0.930 . S
H3317 C3330 0.930 . S
H3318 C3334 0.959 . S
H3319 C3334 0.959 . S
H3320 C3334 0.961 . S
H3321 C3335 0.960 . S
H3322 C3335 0.961 . S
H3323 C3335 0.959 . S
H3324 C3338 0.929 . S
H3325 C3339 0.931 . S
H3326 C3341 0.930 . S
C3327 H3315 0.930 . S
C3327 C3328 1.399 . S
C3327 C3332 1.399 . S
C3328 C3327 1.399 . S
C3328 C3329 1.376 . S
C3329 H3316 0.930 . S
C3329 C3328 1.376 . S
C3329 C3330 1.388 . S
C3330 H3317 0.930 . S
C3330 C3329 1.388 . S
C3330 C3331 1.390 . S
C3331 C3330 1.390 . S
C3331 C3332 1.394 . S
C3331 C3337 1.465 . S
C3332 C3327 1.399 . S
C3332 C3331 1.394 . S
C3332 C3333 1.516 . S
C3333 C3332 1.516 . S
C3333 C3334 1.502 . S
C3333 C3335 1.561 . S
C3333 C3336 1.526 . S
C3334 H3318 0.959 . S
C3334 H3319 0.959 . S
C3334 H3320 0.961 . S
C3334 C3333 1.502 . S
C3335 H3321 0.960 . S
C3335 H3322 0.961 . S
C3335 H3323 0.959 . S
C3335 C3333 1.561 . S
C3336 C3333 1.526 . S
C3336 C3337 1.396 . S
C3336 C3341 1.390 . S
C3337 C3331 1.465 . S
C3337 C3336 1.396 . S
C3337 C3338 1.399 . S
C3338 H3324 0.929 . S
C3338 C3337 1.399 . S
C3338 C3339 1.385 . S
C3339 H3325 0.931 . S
C3339 C3338 1.385 . S
C3339 C3340 1.389 . S
C3340 C3339 1.389 . S
C3340 C3341 1.387 . S
C3341 H3326 0.930 . S
C3341 C3336 1.390 . S
C3341 C3340 1.387 . S
H3342 C3354 0.930 . S
H3343 C3356 0.930 . S
H3344 C3357 0.930 . S
H3345 C3361 0.959 . S
H3346 C3361 0.959 . S
H3347 C3361 0.961 . S
H3348 C3362 0.960 . S
H3349 C3362 0.961 . S
H3350 C3362 0.959 . S
H3351 C3365 0.929 . S
H3352 C3366 0.931 . S
H3353 C3368 0.930 . S
C3354 H3342 0.930 . S
C3354 C3355 1.399 . S
C3354 C3359 1.399 . S
C3355 C3354 1.399 . S
C3355 C3356 1.376 . S
C3356 H3343 0.930 . S
C3356 C3355 1.376 . S
C3356 C3357 1.388 . S
C3357 H3344 0.930 . S
C3357 C3356 1.388 . S
C3357 C3358 1.390 . S
C3358 C3357 1.390 . S
C3358 C3359 1.394 . S
C3358 C3364 1.465 . S
C3359 C3354 1.399 . S
C3359 C3358 1.394 . S
C3359 C3360 1.516 . S
C3360 C3359 1.516 . S
C3360 C3361 1.502 . S
C3360 C3362 1.561 . S
C3360 C3363 1.526 . S
C3361 H3345 0.959 . S
C3361 H3346 0.959 . S
C3361 H3347 0.961 . S
C3361 C3360 1.502 . S
C3362 H3348 0.960 . S
C3362 H3349 0.961 . S
C3362 H3350 0.959 . S
C3362 C3360 1.561 . S
C3363 C3360 1.526 . S
C3363 C3364 1.396 . S
C3363 C3368 1.390 . S
C3364 C3358 1.465 . S
C3364 C3363 1.396 . S
C3364 C3365 1.399 . S
C3365 H3351 0.929 . S
C3365 C3364 1.399 . S
C3365 C3366 1.385 . S
C3366 H3352 0.931 . S
C3366 C3365 1.385 . S
C3366 C3367 1.389 . S
C3367 C3366 1.389 . S
C3367 C3368 1.387 . S
C3368 H3353 0.930 . S
C3368 C3363 1.390 . S
C3368 C3367 1.387 . S
H3369 C3381 0.930 . S
H3370 C3383 0.930 . S
H3371 C3384 0.930 . S
H3372 C3388 0.959 . S
H3373 C3388 0.959 . S
H3374 C3388 0.961 . S
H3375 C3389 0.960 . S
H3376 C3389 0.961 . S
H3377 C3389 0.959 . S
H3378 C3392 0.929 . S
H3379 C3393 0.931 . S
H3380 C3395 0.930 . S
C3381 H3369 0.930 . S
C3381 C3382 1.399 . S
C3381 C3386 1.399 . S
C3382 C3381 1.399 . S
C3382 C3383 1.376 . S
C3383 H3370 0.930 . S
C3383 C3382 1.376 . S
C3383 C3384 1.388 . S
C3384 H3371 0.930 . S
C3384 C3383 1.388 . S
C3384 C3385 1.390 . S
C3385 C3384 1.390 . S
C3385 C3386 1.394 . S
C3385 C3391 1.465 . S
C3386 C3381 1.399 . S
C3386 C3385 1.394 . S
C3386 C3387 1.516 . S
C3387 C3386 1.516 . S
C3387 C3388 1.502 . S
C3387 C3389 1.561 . S
C3387 C3390 1.526 . S
C3388 H3372 0.959 . S
C3388 H3373 0.959 . S
C3388 H3374 0.961 . S
C3388 C3387 1.502 . S
C3389 H3375 0.960 . S
C3389 H3376 0.961 . S
C3389 H3377 0.959 . S
C3389 C3387 1.561 . S
C3390 C3387 1.526 . S
C3390 C3391 1.396 . S
C3390 C3395 1.390 . S
C3391 C3385 1.465 . S
C3391 C3390 1.396 . S
C3391 C3392 1.399 . S
C3392 H3378 0.929 . S
C3392 C3391 1.399 . S
C3392 C3393 1.385 . S
C3393 H3379 0.931 . S
C3393 C3392 1.385 . S
C3393 C3394 1.389 . S
C3394 C3393 1.389 . S
C3394 C3395 1.387 . S
C3395 H3380 0.930 . S
C3395 C3390 1.390 . S
C3395 C3394 1.387 . S
H3396 C3408 0.930 . S
H3397 C3410 0.930 . S
H3398 C3411 0.930 . S
H3399 C3415 0.959 . S
H3400 C3415 0.959 . S
H3401 C3415 0.961 . S
H3402 C3416 0.960 . S
H3403 C3416 0.961 . S
H3404 C3416 0.959 . S
H3405 C3419 0.929 . S
H3406 C3420 0.931 . S
H3407 C3422 0.930 . S
C3408 H3396 0.930 . S
C3408 C3409 1.399 . S
C3408 C3413 1.399 . S
C3409 C3408 1.399 . S
C3409 C3410 1.376 . S
C3410 H3397 0.930 . S
C3410 C3409 1.376 . S
C3410 C3411 1.388 . S
C3411 H3398 0.930 . S
C3411 C3410 1.388 . S
C3411 C3412 1.390 . S
C3412 C3411 1.390 . S
C3412 C3413 1.394 . S
C3412 C3418 1.465 . S
C3413 C3408 1.399 . S
C3413 C3412 1.394 . S
C3413 C3414 1.516 . S
C3414 C3413 1.516 . S
C3414 C3415 1.502 . S
C3414 C3416 1.561 . S
C3414 C3417 1.526 . S
C3415 H3399 0.959 . S
C3415 H3400 0.959 . S
C3415 H3401 0.961 . S
C3415 C3414 1.502 . S
C3416 H3402 0.960 . S
C3416 H3403 0.961 . S
C3416 H3404 0.959 . S
C3416 C3414 1.561 . S
C3417 C3414 1.526 . S
C3417 C3418 1.396 . S
C3417 C3422 1.390 . S
C3418 C3412 1.465 . S
C3418 C3417 1.396 . S
C3418 C3419 1.399 . S
C3419 H3405 0.929 . S
C3419 C3418 1.399 . S
C3419 C3420 1.385 . S
C3420 H3406 0.931 . S
C3420 C3419 1.385 . S
C3420 C3421 1.389 . S
C3421 C3420 1.389 . S
C3421 C3422 1.387 . S
C3422 H3407 0.930 . S
C3422 C3417 1.390 . S
C3422 C3421 1.387 . S
H3423 C3435 0.930 . S
H3424 C3437 0.930 . S
H3425 C3438 0.930 . S
H3426 C3442 0.959 . S
H3427 C3442 0.959 . S
H3428 C3442 0.961 . S
H3429 C3443 0.960 . S
H3430 C3443 0.961 . S
H3431 C3443 0.959 . S
H3432 C3446 0.929 . S
H3433 C3447 0.931 . S
H3434 C3449 0.930 . S
C3435 H3423 0.930 . S
C3435 C3436 1.399 . S
C3435 C3440 1.399 . S
C3436 C3435 1.399 . S
C3436 C3437 1.376 . S
C3437 H3424 0.930 . S
C3437 C3436 1.376 . S
C3437 C3438 1.388 . S
C3438 H3425 0.930 . S
C3438 C3437 1.388 . S
C3438 C3439 1.390 . S
C3439 C3438 1.390 . S
C3439 C3440 1.394 . S
C3439 C3445 1.465 . S
C3440 C3435 1.399 . S
C3440 C3439 1.394 . S
C3440 C3441 1.516 . S
C3441 C3440 1.516 . S
C3441 C3442 1.502 . S
C3441 C3443 1.561 . S
C3441 C3444 1.526 . S
C3442 H3426 0.959 . S
C3442 H3427 0.959 . S
C3442 H3428 0.961 . S
C3442 C3441 1.502 . S
C3443 H3429 0.960 . S
C3443 H3430 0.961 . S
C3443 H3431 0.959 . S
C3443 C3441 1.561 . S
C3444 C3441 1.526 . S
C3444 C3445 1.396 . S
C3444 C3449 1.390 . S
C3445 C3439 1.465 . S
C3445 C3444 1.396 . S
C3445 C3446 1.399 . S
C3446 H3432 0.929 . S
C3446 C3445 1.399 . S
C3446 C3447 1.385 . S
C3447 H3433 0.931 . S
C3447 C3446 1.385 . S
C3447 C3448 1.389 . S
C3448 C3447 1.389 . S
C3448 C3449 1.387 . S
C3449 H3434 0.930 . S
C3449 C3444 1.390 . S
C3449 C3448 1.387 . S
H3450 C3462 0.930 . S
H3451 C3464 0.930 . S
H3452 C3465 0.930 . S
H3453 C3469 0.959 . S
H3454 C3469 0.959 . S
H3455 C3469 0.961 . S
H3456 C3470 0.960 . S
H3457 C3470 0.961 . S
H3458 C3470 0.959 . S
H3459 C3473 0.929 . S
H3460 C3474 0.931 . S
H3461 C3476 0.930 . S
C3462 H3450 0.930 . S
C3462 C3463 1.399 . S
C3462 C3467 1.399 . S
C3463 C3462 1.399 . S
C3463 C3464 1.376 . S
C3464 H3451 0.930 . S
C3464 C3463 1.376 . S
C3464 C3465 1.388 . S
C3465 H3452 0.930 . S
C3465 C3464 1.388 . S
C3465 C3466 1.390 . S
C3466 C3465 1.390 . S
C3466 C3467 1.394 . S
C3466 C3472 1.465 . S
C3467 C3462 1.399 . S
C3467 C3466 1.394 . S
C3467 C3468 1.516 . S
C3468 C3467 1.516 . S
C3468 C3469 1.502 . S
C3468 C3470 1.561 . S
C3468 C3471 1.526 . S
C3469 H3453 0.959 . S
C3469 H3454 0.959 . S
C3469 H3455 0.961 . S
C3469 C3468 1.502 . S
C3470 H3456 0.960 . S
C3470 H3457 0.961 . S
C3470 H3458 0.959 . S
C3470 C3468 1.561 . S
C3471 C3468 1.526 . S
C3471 C3472 1.396 . S
C3471 C3476 1.390 . S
C3472 C3466 1.465 . S
C3472 C3471 1.396 . S
C3472 C3473 1.399 . S
C3473 H3459 0.929 . S
C3473 C3472 1.399 . S
C3473 C3474 1.385 . S
C3474 H3460 0.931 . S
C3474 C3473 1.385 . S
C3474 C3475 1.389 . S
C3475 C3474 1.389 . S
C3475 C3476 1.387 . S
C3476 H3461 0.930 . S
C3476 C3471 1.390 . S
C3476 C3475 1.387 . S
H3477 C3489 0.930 . S
H3478 C3491 0.930 . S
H3479 C3492 0.930 . S
H3480 C3496 0.959 . S
H3481 C3496 0.959 . S
H3482 C3496 0.961 . S
H3483 C3497 0.960 . S
H3484 C3497 0.961 . S
H3485 C3497 0.959 . S
H3486 C3500 0.929 . S
H3487 C3501 0.931 . S
H3488 C3503 0.930 . S
C3489 H3477 0.930 . S
C3489 C3490 1.399 . S
C3489 C3494 1.399 . S
C3490 C3489 1.399 . S
C3490 C3491 1.376 . S
C3491 H3478 0.930 . S
C3491 C3490 1.376 . S
C3491 C3492 1.388 . S
C3492 H3479 0.930 . S
C3492 C3491 1.388 . S
C3492 C3493 1.390 . S
C3493 C3492 1.390 . S
C3493 C3494 1.394 . S
C3493 C3499 1.465 . S
C3494 C3489 1.399 . S
C3494 C3493 1.394 . S
C3494 C3495 1.516 . S
C3495 C3494 1.516 . S
C3495 C3496 1.502 . S
C3495 C3497 1.561 . S
C3495 C3498 1.526 . S
C3496 H3480 0.959 . S
C3496 H3481 0.959 . S
C3496 H3482 0.961 . S
C3496 C3495 1.502 . S
C3497 H3483 0.960 . S
C3497 H3484 0.961 . S
C3497 H3485 0.959 . S
C3497 C3495 1.561 . S
C3498 C3495 1.526 . S
C3498 C3499 1.396 . S
C3498 C3503 1.390 . S
C3499 C3493 1.465 . S
C3499 C3498 1.396 . S
C3499 C3500 1.399 . S
C3500 H3486 0.929 . S
C3500 C3499 1.399 . S
C3500 C3501 1.385 . S
C3501 H3487 0.931 . S
C3501 C3500 1.385 . S
C3501 C3502 1.389 . S
C3502 C3501 1.389 . S
C3502 C3503 1.387 . S
C3503 H3488 0.930 . S
C3503 C3498 1.390 . S
C3503 C3502 1.387 . S
H3504 C3516 0.930 . S
H3505 C3518 0.930 . S
H3506 C3519 0.930 . S
H3507 C3523 0.959 . S
H3508 C3523 0.959 . S
H3509 C3523 0.961 . S
H3510 C3524 0.960 . S
H3511 C3524 0.961 . S
H3512 C3524 0.959 . S
H3513 C3527 0.929 . S
H3514 C3528 0.931 . S
H3515 C3530 0.930 . S
C3516 H3504 0.930 . S
C3516 C3517 1.399 . S
C3516 C3521 1.399 . S
C3517 C3516 1.399 . S
C3517 C3518 1.376 . S
C3518 H3505 0.930 . S
C3518 C3517 1.376 . S
C3518 C3519 1.388 . S
C3519 H3506 0.930 . S
C3519 C3518 1.388 . S
C3519 C3520 1.390 . S
C3520 C3519 1.390 . S
C3520 C3521 1.394 . S
C3520 C3526 1.465 . S
C3521 C3516 1.399 . S
C3521 C3520 1.394 . S
C3521 C3522 1.516 . S
C3522 C3521 1.516 . S
C3522 C3523 1.502 . S
C3522 C3524 1.561 . S
C3522 C3525 1.526 . S
C3523 H3507 0.959 . S
C3523 H3508 0.959 . S
C3523 H3509 0.961 . S
C3523 C3522 1.502 . S
C3524 H3510 0.960 . S
C3524 H3511 0.961 . S
C3524 H3512 0.959 . S
C3524 C3522 1.561 . S
C3525 C3522 1.526 . S
C3525 C3526 1.396 . S
C3525 C3530 1.390 . S
C3526 C3520 1.465 . S
C3526 C3525 1.396 . S
C3526 C3527 1.399 . S
C3527 H3513 0.929 . S
C3527 C3526 1.399 . S
C3527 C3528 1.385 . S
C3528 H3514 0.931 . S
C3528 C3527 1.385 . S
C3528 C3529 1.389 . S
C3529 C3528 1.389 . S
C3529 C3530 1.387 . S
C3530 H3515 0.930 . S
C3530 C3525 1.390 . S
C3530 C3529 1.387 . S
H3531 C3543 0.930 . S
H3532 C3545 0.930 . S
H3533 C3546 0.930 . S
H3534 C3550 0.959 . S
H3535 C3550 0.959 . S
H3536 C3550 0.961 . S
H3537 C3551 0.960 . S
H3538 C3551 0.961 . S
H3539 C3551 0.959 . S
H3540 C3554 0.929 . S
H3541 C3555 0.931 . S
H3542 C3557 0.930 . S
C3543 H3531 0.930 . S
C3543 C3544 1.399 . S
C3543 C3548 1.399 . S
C3544 C3543 1.399 . S
C3544 C3545 1.376 . S
C3545 H3532 0.930 . S
C3545 C3544 1.376 . S
C3545 C3546 1.388 . S
C3546 H3533 0.930 . S
C3546 C3545 1.388 . S
C3546 C3547 1.390 . S
C3547 C3546 1.390 . S
C3547 C3548 1.394 . S
C3547 C3553 1.465 . S
C3548 C3543 1.399 . S
C3548 C3547 1.394 . S
C3548 C3549 1.516 . S
C3549 C3548 1.516 . S
C3549 C3550 1.502 . S
C3549 C3551 1.561 . S
C3549 C3552 1.526 . S
C3550 H3534 0.959 . S
C3550 H3535 0.959 . S
C3550 H3536 0.961 . S
C3550 C3549 1.502 . S
C3551 H3537 0.960 . S
C3551 H3538 0.961 . S
C3551 H3539 0.959 . S
C3551 C3549 1.561 . S
C3552 C3549 1.526 . S
C3552 C3553 1.396 . S
C3552 C3557 1.390 . S
C3553 C3547 1.465 . S
C3553 C3552 1.396 . S
C3553 C3554 1.399 . S
C3554 H3540 0.929 . S
C3554 C3553 1.399 . S
C3554 C3555 1.385 . S
C3555 H3541 0.931 . S
C3555 C3554 1.385 . S
C3555 C3556 1.389 . S
C3556 C3555 1.389 . S
C3556 C3557 1.387 . S
C3557 H3542 0.930 . S
C3557 C3552 1.390 . S
C3557 C3556 1.387 . S
H3558 C3570 0.930 . S
H3559 C3572 0.930 . S
H3560 C3573 0.930 . S
H3561 C3577 0.959 . S
H3562 C3577 0.959 . S
H3563 C3577 0.961 . S
H3564 C3578 0.960 . S
H3565 C3578 0.961 . S
H3566 C3578 0.959 . S
H3567 C3581 0.929 . S
H3568 C3582 0.931 . S
H3569 C3584 0.930 . S
C3570 H3558 0.930 . S
C3570 C3571 1.399 . S
C3570 C3575 1.399 . S
C3571 C3570 1.399 . S
C3571 C3572 1.376 . S
C3572 H3559 0.930 . S
C3572 C3571 1.376 . S
C3572 C3573 1.388 . S
C3573 H3560 0.930 . S
C3573 C3572 1.388 . S
C3573 C3574 1.390 . S
C3574 C3573 1.390 . S
C3574 C3575 1.394 . S
C3574 C3580 1.465 . S
C3575 C3570 1.399 . S
C3575 C3574 1.394 . S
C3575 C3576 1.516 . S
C3576 C3575 1.516 . S
C3576 C3577 1.502 . S
C3576 C3578 1.561 . S
C3576 C3579 1.526 . S
C3577 H3561 0.959 . S
C3577 H3562 0.959 . S
C3577 H3563 0.961 . S
C3577 C3576 1.502 . S
C3578 H3564 0.960 . S
C3578 H3565 0.961 . S
C3578 H3566 0.959 . S
C3578 C3576 1.561 . S
C3579 C3576 1.526 . S
C3579 C3580 1.396 . S
C3579 C3584 1.390 . S
C3580 C3574 1.465 . S
C3580 C3579 1.396 . S
C3580 C3581 1.399 . S
C3581 H3567 0.929 . S
C3581 C3580 1.399 . S
C3581 C3582 1.385 . S
C3582 H3568 0.931 . S
C3582 C3581 1.385 . S
C3582 C3583 1.389 . S
C3583 C3582 1.389 . S
C3583 C3584 1.387 . S
C3584 H3569 0.930 . S
C3584 C3579 1.390 . S
C3584 C3583 1.387 . S
H3585 C3597 0.930 . S
H3586 C3599 0.930 . S
H3587 C3600 0.930 . S
H3588 C3604 0.959 . S
H3589 C3604 0.959 . S
H3590 C3604 0.961 . S
H3591 C3605 0.960 . S
H3592 C3605 0.961 . S
H3593 C3605 0.959 . S
H3594 C3608 0.929 . S
H3595 C3609 0.931 . S
H3596 C3611 0.930 . S
C3597 H3585 0.930 . S
C3597 C3598 1.399 . S
C3597 C3602 1.399 . S
C3598 C3597 1.399 . S
C3598 C3599 1.376 . S
C3599 H3586 0.930 . S
C3599 C3598 1.376 . S
C3599 C3600 1.388 . S
C3600 H3587 0.930 . S
C3600 C3599 1.388 . S
C3600 C3601 1.390 . S
C3601 C3600 1.390 . S
C3601 C3602 1.394 . S
C3601 C3607 1.465 . S
C3602 C3597 1.399 . S
C3602 C3601 1.394 . S
C3602 C3603 1.516 . S
C3603 C3602 1.516 . S
C3603 C3604 1.502 . S
C3603 C3605 1.561 . S
C3603 C3606 1.526 . S
C3604 H3588 0.959 . S
C3604 H3589 0.959 . S
C3604 H3590 0.961 . S
C3604 C3603 1.502 . S
C3605 H3591 0.960 . S
C3605 H3592 0.961 . S
C3605 H3593 0.959 . S
C3605 C3603 1.561 . S
C3606 C3603 1.526 . S
C3606 C3607 1.396 . S
C3606 C3611 1.390 . S
C3607 C3601 1.465 . S
C3607 C3606 1.396 . S
C3607 C3608 1.399 . S
C3608 H3594 0.929 . S
C3608 C3607 1.399 . S
C3608 C3609 1.385 . S
C3609 H3595 0.931 . S
C3609 C3608 1.385 . S
C3609 C3610 1.389 . S
C3610 C3609 1.389 . S
C3610 C3611 1.387 . S
C3611 H3596 0.930 . S
C3611 C3606 1.390 . S
C3611 C3610 1.387 . S
H3612 C3624 0.930 . S
H3613 C3626 0.930 . S
H3614 C3627 0.930 . S
H3615 C3631 0.959 . S
H3616 C3631 0.959 . S
H3617 C3631 0.961 . S
H3618 C3632 0.960 . S
H3619 C3632 0.961 . S
H3620 C3632 0.959 . S
H3621 C3635 0.929 . S
H3622 C3636 0.931 . S
H3623 C3638 0.930 . S
C3624 H3612 0.930 . S
C3624 C3625 1.399 . S
C3624 C3629 1.399 . S
C3625 C3624 1.399 . S
C3625 C3626 1.376 . S
C3626 H3613 0.930 . S
C3626 C3625 1.376 . S
C3626 C3627 1.388 . S
C3627 H3614 0.930 . S
C3627 C3626 1.388 . S
C3627 C3628 1.390 . S
C3628 C3627 1.390 . S
C3628 C3629 1.394 . S
C3628 C3634 1.465 . S
C3629 C3624 1.399 . S
C3629 C3628 1.394 . S
C3629 C3630 1.516 . S
C3630 C3629 1.516 . S
C3630 C3631 1.502 . S
C3630 C3632 1.561 . S
C3630 C3633 1.526 . S
C3631 H3615 0.959 . S
C3631 H3616 0.959 . S
C3631 H3617 0.961 . S
C3631 C3630 1.502 . S
C3632 H3618 0.960 . S
C3632 H3619 0.961 . S
C3632 H3620 0.959 . S
C3632 C3630 1.561 . S
C3633 C3630 1.526 . S
C3633 C3634 1.396 . S
C3633 C3638 1.390 . S
C3634 C3628 1.465 . S
C3634 C3633 1.396 . S
C3634 C3635 1.399 . S
C3635 H3621 0.929 . S
C3635 C3634 1.399 . S
C3635 C3636 1.385 . S
C3636 H3622 0.931 . S
C3636 C3635 1.385 . S
C3636 C3637 1.389 . S
C3637 C3636 1.389 . S
C3637 C3638 1.387 . S
C3638 H3623 0.930 . S
C3638 C3633 1.390 . S
C3638 C3637 1.387 . S
H3639 C3651 0.930 . S
H3640 C3653 0.930 . S
H3641 C3654 0.930 . S
H3642 C3658 0.959 . S
H3643 C3658 0.959 . S
H3644 C3658 0.961 . S
H3645 C3659 0.960 . S
H3646 C3659 0.961 . S
H3647 C3659 0.959 . S
H3648 C3662 0.929 . S
H3649 C3663 0.931 . S
H3650 C3665 0.930 . S
C3651 H3639 0.930 . S
C3651 C3652 1.399 . S
C3651 C3656 1.399 . S
C3652 C3651 1.399 . S
C3652 C3653 1.376 . S
C3653 H3640 0.930 . S
C3653 C3652 1.376 . S
C3653 C3654 1.388 . S
C3654 H3641 0.930 . S
C3654 C3653 1.388 . S
C3654 C3655 1.390 . S
C3655 C3654 1.390 . S
C3655 C3656 1.394 . S
C3655 C3661 1.465 . S
C3656 C3651 1.399 . S
C3656 C3655 1.394 . S
C3656 C3657 1.516 . S
C3657 C3656 1.516 . S
C3657 C3658 1.502 . S
C3657 C3659 1.561 . S
C3657 C3660 1.526 . S
C3658 H3642 0.959 . S
C3658 H3643 0.959 . S
C3658 H3644 0.961 . S
C3658 C3657 1.502 . S
C3659 H3645 0.960 . S
C3659 H3646 0.961 . S
C3659 H3647 0.959 . S
C3659 C3657 1.561 . S
C3660 C3657 1.526 . S
C3660 C3661 1.396 . S
C3660 C3665 1.390 . S
C3661 C3655 1.465 . S
C3661 C3660 1.396 . S
C3661 C3662 1.399 . S
C3662 H3648 0.929 . S
C3662 C3661 1.399 . S
C3662 C3663 1.385 . S
C3663 H3649 0.931 . S
C3663 C3662 1.385 . S
C3663 C3664 1.389 . S
C3664 C3663 1.389 . S
C3664 C3665 1.387 . S
C3665 H3650 0.930 . S
C3665 C3660 1.390 . S
C3665 C3664 1.387 . S
H3666 C3678 0.930 . S
H3667 C3680 0.930 . S
H3668 C3681 0.930 . S
H3669 C3685 0.959 . S
H3670 C3685 0.959 . S
H3671 C3685 0.961 . S
H3672 C3686 0.960 . S
H3673 C3686 0.961 . S
H3674 C3686 0.959 . S
H3675 C3689 0.929 . S
H3676 C3690 0.931 . S
H3677 C3692 0.930 . S
C3678 H3666 0.930 . S
C3678 C3679 1.399 . S
C3678 C3683 1.399 . S
C3679 C3678 1.399 . S
C3679 C3680 1.376 . S
C3680 H3667 0.930 . S
C3680 C3679 1.376 . S
C3680 C3681 1.388 . S
C3681 H3668 0.930 . S
C3681 C3680 1.388 . S
C3681 C3682 1.390 . S
C3682 C3681 1.390 . S
C3682 C3683 1.394 . S
C3682 C3688 1.465 . S
C3683 C3678 1.399 . S
C3683 C3682 1.394 . S
C3683 C3684 1.516 . S
C3684 C3683 1.516 . S
C3684 C3685 1.502 . S
C3684 C3686 1.561 . S
C3684 C3687 1.526 . S
C3685 H3669 0.959 . S
C3685 H3670 0.959 . S
C3685 H3671 0.961 . S
C3685 C3684 1.502 . S
C3686 H3672 0.960 . S
C3686 H3673 0.961 . S
C3686 H3674 0.959 . S
C3686 C3684 1.561 . S
C3687 C3684 1.526 . S
C3687 C3688 1.396 . S
C3687 C3692 1.390 . S
C3688 C3682 1.465 . S
C3688 C3687 1.396 . S
C3688 C3689 1.399 . S
C3689 H3675 0.929 . S
C3689 C3688 1.399 . S
C3689 C3690 1.385 . S
C3690 H3676 0.931 . S
C3690 C3689 1.385 . S
C3690 C3691 1.389 . S
C3691 C3690 1.389 . S
C3691 C3692 1.387 . S
C3692 H3677 0.930 . S
C3692 C3687 1.390 . S
C3692 C3691 1.387 . S
H3693 C3705 0.930 . S
H3694 C3707 0.930 . S
H3695 C3708 0.930 . S
H3696 C3712 0.959 . S
H3697 C3712 0.959 . S
H3698 C3712 0.961 . S
H3699 C3713 0.960 . S
H3700 C3713 0.961 . S
H3701 C3713 0.959 . S
H3702 C3716 0.929 . S
H3703 C3717 0.931 . S
H3704 C3719 0.930 . S
C3705 H3693 0.930 . S
C3705 C3706 1.399 . S
C3705 C3710 1.399 . S
C3706 C3705 1.399 . S
C3706 C3707 1.376 . S
C3707 H3694 0.930 . S
C3707 C3706 1.376 . S
C3707 C3708 1.388 . S
C3708 H3695 0.930 . S
C3708 C3707 1.388 . S
C3708 C3709 1.390 . S
C3709 C3708 1.390 . S
C3709 C3710 1.394 . S
C3709 C3715 1.465 . S
C3710 C3705 1.399 . S
C3710 C3709 1.394 . S
C3710 C3711 1.516 . S
C3711 C3710 1.516 . S
C3711 C3712 1.502 . S
C3711 C3713 1.561 . S
C3711 C3714 1.526 . S
C3712 H3696 0.959 . S
C3712 H3697 0.959 . S
C3712 H3698 0.961 . S
C3712 C3711 1.502 . S
C3713 H3699 0.960 . S
C3713 H3700 0.961 . S
C3713 H3701 0.959 . S
C3713 C3711 1.561 . S
C3714 C3711 1.526 . S
C3714 C3715 1.396 . S
C3714 C3719 1.390 . S
C3715 C3709 1.465 . S
C3715 C3714 1.396 . S
C3715 C3716 1.399 . S
C3716 H3702 0.929 . S
C3716 C3715 1.399 . S
C3716 C3717 1.385 . S
C3717 H3703 0.931 . S
C3717 C3716 1.385 . S
C3717 C3718 1.389 . S
C3718 C3717 1.389 . S
C3718 C3719 1.387 . S
C3719 H3704 0.930 . S
C3719 C3714 1.390 . S
C3719 C3718 1.387 . S
H3720 C3732 0.930 . S
H3721 C3734 0.930 . S
H3722 C3735 0.930 . S
H3723 C3739 0.959 . S
H3724 C3739 0.959 . S
H3725 C3739 0.961 . S
H3726 C3740 0.960 . S
H3727 C3740 0.961 . S
H3728 C3740 0.959 . S
H3729 C3743 0.929 . S
H3730 C3744 0.931 . S
H3731 C3746 0.930 . S
C3732 H3720 0.930 . S
C3732 C3733 1.399 . S
C3732 C3737 1.399 . S
C3733 C3732 1.399 . S
C3733 C3734 1.376 . S
C3734 H3721 0.930 . S
C3734 C3733 1.376 . S
C3734 C3735 1.388 . S
C3735 H3722 0.930 . S
C3735 C3734 1.388 . S
C3735 C3736 1.390 . S
C3736 C3735 1.390 . S
C3736 C3737 1.394 . S
C3736 C3742 1.465 . S
C3737 C3732 1.399 . S
C3737 C3736 1.394 . S
C3737 C3738 1.516 . S
C3738 C3737 1.516 . S
C3738 C3739 1.502 . S
C3738 C3740 1.561 . S
C3738 C3741 1.526 . S
C3739 H3723 0.959 . S
C3739 H3724 0.959 . S
C3739 H3725 0.961 . S
C3739 C3738 1.502 . S
C3740 H3726 0.960 . S
C3740 H3727 0.961 . S
C3740 H3728 0.959 . S
C3740 C3738 1.561 . S
C3741 C3738 1.526 . S
C3741 C3742 1.396 . S
C3741 C3746 1.390 . S
C3742 C3736 1.465 . S
C3742 C3741 1.396 . S
C3742 C3743 1.399 . S
C3743 H3729 0.929 . S
C3743 C3742 1.399 . S
C3743 C3744 1.385 . S
C3744 H3730 0.931 . S
C3744 C3743 1.385 . S
C3744 C3745 1.389 . S
C3745 C3744 1.389 . S
C3745 C3746 1.387 . S
C3746 H3731 0.930 . S
C3746 C3741 1.390 . S
C3746 C3745 1.387 . S
H3747 C3759 0.930 . S
H3748 C3761 0.930 . S
H3749 C3762 0.930 . S
H3750 C3766 0.959 . S
H3751 C3766 0.959 . S
H3752 C3766 0.961 . S
H3753 C3767 0.960 . S
H3754 C3767 0.961 . S
H3755 C3767 0.959 . S
H3756 C3770 0.929 . S
H3757 C3771 0.931 . S
H3758 C3773 0.930 . S
C3759 H3747 0.930 . S
C3759 C3760 1.399 . S
C3759 C3764 1.399 . S
C3760 C3759 1.399 . S
C3760 C3761 1.376 . S
C3761 H3748 0.930 . S
C3761 C3760 1.376 . S
C3761 C3762 1.388 . S
C3762 H3749 0.930 . S
C3762 C3761 1.388 . S
C3762 C3763 1.390 . S
C3763 C3762 1.390 . S
C3763 C3764 1.394 . S
C3763 C3769 1.465 . S
C3764 C3759 1.399 . S
C3764 C3763 1.394 . S
C3764 C3765 1.516 . S
C3765 C3764 1.516 . S
C3765 C3766 1.502 . S
C3765 C3767 1.561 . S
C3765 C3768 1.526 . S
C3766 H3750 0.959 . S
C3766 H3751 0.959 . S
C3766 H3752 0.961 . S
C3766 C3765 1.502 . S
C3767 H3753 0.960 . S
C3767 H3754 0.961 . S
C3767 H3755 0.959 . S
C3767 C3765 1.561 . S
C3768 C3765 1.526 . S
C3768 C3769 1.396 . S
C3768 C3773 1.390 . S
C3769 C3763 1.465 . S
C3769 C3768 1.396 . S
C3769 C3770 1.399 . S
C3770 H3756 0.929 . S
C3770 C3769 1.399 . S
C3770 C3771 1.385 . S
C3771 H3757 0.931 . S
C3771 C3770 1.385 . S
C3771 C3772 1.389 . S
C3772 C3771 1.389 . S
C3772 C3773 1.387 . S
C3773 H3758 0.930 . S
C3773 C3768 1.390 . S
C3773 C3772 1.387 . S
H3774 C3786 0.930 . S
H3775 C3788 0.930 . S
H3776 C3789 0.930 . S
H3777 C3793 0.959 . S
H3778 C3793 0.959 . S
H3779 C3793 0.961 . S
H3780 C3794 0.960 . S
H3781 C3794 0.961 . S
H3782 C3794 0.959 . S
H3783 C3797 0.929 . S
H3784 C3798 0.931 . S
H3785 C3800 0.930 . S
C3786 H3774 0.930 . S
C3786 C3787 1.399 . S
C3786 C3791 1.399 . S
C3787 C3786 1.399 . S
C3787 C3788 1.376 . S
C3788 H3775 0.930 . S
C3788 C3787 1.376 . S
C3788 C3789 1.388 . S
C3789 H3776 0.930 . S
C3789 C3788 1.388 . S
C3789 C3790 1.390 . S
C3790 C3789 1.390 . S
C3790 C3791 1.394 . S
C3790 C3796 1.465 . S
C3791 C3786 1.399 . S
C3791 C3790 1.394 . S
C3791 C3792 1.516 . S
C3792 C3791 1.516 . S
C3792 C3793 1.502 . S
C3792 C3794 1.561 . S
C3792 C3795 1.526 . S
C3793 H3777 0.959 . S
C3793 H3778 0.959 . S
C3793 H3779 0.961 . S
C3793 C3792 1.502 . S
C3794 H3780 0.960 . S
C3794 H3781 0.961 . S
C3794 H3782 0.959 . S
C3794 C3792 1.561 . S
C3795 C3792 1.526 . S
C3795 C3796 1.396 . S
C3795 C3800 1.390 . S
C3796 C3790 1.465 . S
C3796 C3795 1.396 . S
C3796 C3797 1.399 . S
C3797 H3783 0.929 . S
C3797 C3796 1.399 . S
C3797 C3798 1.385 . S
C3798 H3784 0.931 . S
C3798 C3797 1.385 . S
C3798 C3799 1.389 . S
C3799 C3798 1.389 . S
C3799 C3800 1.387 . S
C3800 H3785 0.930 . S
C3800 C3795 1.390 . S
C3800 C3799 1.387 . S
H3801 C3813 0.930 . S
H3802 C3815 0.930 . S
H3803 C3816 0.930 . S
H3804 C3820 0.959 . S
H3805 C3820 0.959 . S
H3806 C3820 0.961 . S
H3807 C3821 0.960 . S
H3808 C3821 0.961 . S
H3809 C3821 0.959 . S
H3810 C3824 0.929 . S
H3811 C3825 0.931 . S
H3812 C3827 0.930 . S
C3813 H3801 0.930 . S
C3813 C3814 1.399 . S
C3813 C3818 1.399 . S
C3814 C3813 1.399 . S
C3814 C3815 1.376 . S
C3815 H3802 0.930 . S
C3815 C3814 1.376 . S
C3815 C3816 1.388 . S
C3816 H3803 0.930 . S
C3816 C3815 1.388 . S
C3816 C3817 1.390 . S
C3817 C3816 1.390 . S
C3817 C3818 1.394 . S
C3817 C3823 1.465 . S
C3818 C3813 1.399 . S
C3818 C3817 1.394 . S
C3818 C3819 1.516 . S
C3819 C3818 1.516 . S
C3819 C3820 1.502 . S
C3819 C3821 1.561 . S
C3819 C3822 1.526 . S
C3820 H3804 0.959 . S
C3820 H3805 0.959 . S
C3820 H3806 0.961 . S
C3820 C3819 1.502 . S
C3821 H3807 0.960 . S
C3821 H3808 0.961 . S
C3821 H3809 0.959 . S
C3821 C3819 1.561 . S
C3822 C3819 1.526 . S
C3822 C3823 1.396 . S
C3822 C3827 1.390 . S
C3823 C3817 1.465 . S
C3823 C3822 1.396 . S
C3823 C3824 1.399 . S
C3824 H3810 0.929 . S
C3824 C3823 1.399 . S
C3824 C3825 1.385 . S
C3825 H3811 0.931 . S
C3825 C3824 1.385 . S
C3825 C3826 1.389 . S
C3826 C3825 1.389 . S
C3826 C3827 1.387 . S
C3827 H3812 0.930 . S
C3827 C3822 1.390 . S
C3827 C3826 1.387 . S
H3828 C3840 0.930 . S
H3829 C3842 0.930 . S
H3830 C3843 0.930 . S
H3831 C3847 0.959 . S
H3832 C3847 0.959 . S
H3833 C3847 0.961 . S
H3834 C3848 0.960 . S
H3835 C3848 0.961 . S
H3836 C3848 0.959 . S
H3837 C3851 0.929 . S
H3838 C3852 0.931 . S
H3839 C3854 0.930 . S
C3840 H3828 0.930 . S
C3840 C3841 1.399 . S
C3840 C3845 1.399 . S
C3841 C3840 1.399 . S
C3841 C3842 1.376 . S
C3842 H3829 0.930 . S
C3842 C3841 1.376 . S
C3842 C3843 1.388 . S
C3843 H3830 0.930 . S
C3843 C3842 1.388 . S
C3843 C3844 1.390 . S
C3844 C3843 1.390 . S
C3844 C3845 1.394 . S
C3844 C3850 1.465 . S
C3845 C3840 1.399 . S
C3845 C3844 1.394 . S
C3845 C3846 1.516 . S
C3846 C3845 1.516 . S
C3846 C3847 1.502 . S
C3846 C3848 1.561 . S
C3846 C3849 1.526 . S
C3847 H3831 0.959 . S
C3847 H3832 0.959 . S
C3847 H3833 0.961 . S
C3847 C3846 1.502 . S
C3848 H3834 0.960 . S
C3848 H3835 0.961 . S
C3848 H3836 0.959 . S
C3848 C3846 1.561 . S
C3849 C3846 1.526 . S
C3849 C3850 1.396 . S
C3849 C3854 1.390 . S
C3850 C3844 1.465 . S
C3850 C3849 1.396 . S
C3850 C3851 1.399 . S
C3851 H3837 0.929 . S
C3851 C3850 1.399 . S
C3851 C3852 1.385 . S
C3852 H3838 0.931 . S
C3852 C3851 1.385 . S
C3852 C3853 1.389 . S
C3853 C3852 1.389 . S
C3853 C3854 1.387 . S
C3854 H3839 0.930 . S
C3854 C3849 1.390 . S
C3854 C3853 1.387 . S
H3855 C3867 0.930 . S
H3856 C3869 0.930 . S
H3857 C3870 0.930 . S
H3858 C3874 0.959 . S
H3859 C3874 0.959 . S
H3860 C3874 0.961 . S
H3861 C3875 0.960 . S
H3862 C3875 0.961 . S
H3863 C3875 0.959 . S
H3864 C3878 0.929 . S
H3865 C3879 0.931 . S
H3866 C3881 0.930 . S
C3867 H3855 0.930 . S
C3867 C3868 1.399 . S
C3867 C3872 1.399 . S
C3868 C3867 1.399 . S
C3868 C3869 1.376 . S
C3869 H3856 0.930 . S
C3869 C3868 1.376 . S
C3869 C3870 1.388 . S
C3870 H3857 0.930 . S
C3870 C3869 1.388 . S
C3870 C3871 1.390 . S
C3871 C3870 1.390 . S
C3871 C3872 1.394 . S
C3871 C3877 1.465 . S
C3872 C3867 1.399 . S
C3872 C3871 1.394 . S
C3872 C3873 1.516 . S
C3873 C3872 1.516 . S
C3873 C3874 1.502 . S
C3873 C3875 1.561 . S
C3873 C3876 1.526 . S
C3874 H3858 0.959 . S
C3874 H3859 0.959 . S
C3874 H3860 0.961 . S
C3874 C3873 1.502 . S
C3875 H3861 0.960 . S
C3875 H3862 0.961 . S
C3875 H3863 0.959 . S
C3875 C3873 1.561 . S
C3876 C3873 1.526 . S
C3876 C3877 1.396 . S
C3876 C3881 1.390 . S
C3877 C3871 1.465 . S
C3877 C3876 1.396 . S
C3877 C3878 1.399 . S
C3878 H3864 0.929 . S
C3878 C3877 1.399 . S
C3878 C3879 1.385 . S
C3879 H3865 0.931 . S
C3879 C3878 1.385 . S
C3879 C3880 1.389 . S
C3880 C3879 1.389 . S
C3880 C3881 1.387 . S
C3881 H3866 0.930 . S
C3881 C3876 1.390 . S
C3881 C3880 1.387 . S
H3882 C3894 0.930 . S
H3883 C3896 0.930 . S
H3884 C3897 0.930 . S
H3885 C3901 0.959 . S
H3886 C3901 0.959 . S
H3887 C3901 0.961 . S
H3888 C3902 0.960 . S
H3889 C3902 0.961 . S
H3890 C3902 0.959 . S
H3891 C3905 0.929 . S
H3892 C3906 0.931 . S
H3893 C3908 0.930 . S
C3894 H3882 0.930 . S
C3894 C3895 1.399 . S
C3894 C3899 1.399 . S
C3895 C3894 1.399 . S
C3895 C3896 1.376 . S
C3896 H3883 0.930 . S
C3896 C3895 1.376 . S
C3896 C3897 1.388 . S
C3897 H3884 0.930 . S
C3897 C3896 1.388 . S
C3897 C3898 1.390 . S
C3898 C3897 1.390 . S
C3898 C3899 1.394 . S
C3898 C3904 1.465 . S
C3899 C3894 1.399 . S
C3899 C3898 1.394 . S
C3899 C3900 1.516 . S
C3900 C3899 1.516 . S
C3900 C3901 1.502 . S
C3900 C3902 1.561 . S
C3900 C3903 1.526 . S
C3901 H3885 0.959 . S
C3901 H3886 0.959 . S
C3901 H3887 0.961 . S
C3901 C3900 1.502 . S
C3902 H3888 0.960 . S
C3902 H3889 0.961 . S
C3902 H3890 0.959 . S
C3902 C3900 1.561 . S
C3903 C3900 1.526 . S
C3903 C3904 1.396 . S
C3903 C3908 1.390 . S
C3904 C3898 1.465 . S
C3904 C3903 1.396 . S
C3904 C3905 1.399 . S
C3905 H3891 0.929 . S
C3905 C3904 1.399 . S
C3905 C3906 1.385 . S
C3906 H3892 0.931 . S
C3906 C3905 1.385 . S
C3906 C3907 1.389 . S
C3907 C3906 1.389 . S
C3907 C3908 1.387 . S
C3908 H3893 0.930 . S
C3908 C3903 1.390 . S
C3908 C3907 1.387 . S
H3909 C3921 0.930 . S
H3910 C3923 0.930 . S
H3911 C3924 0.930 . S
H3912 C3928 0.959 . S
H3913 C3928 0.959 . S
H3914 C3928 0.961 . S
H3915 C3929 0.960 . S
H3916 C3929 0.961 . S
H3917 C3929 0.959 . S
H3918 C3932 0.929 . S
H3919 C3933 0.931 . S
H3920 C3935 0.930 . S
C3921 H3909 0.930 . S
C3921 C3922 1.399 . S
C3921 C3926 1.399 . S
C3922 C3921 1.399 . S
C3922 C3923 1.376 . S
C3923 H3910 0.930 . S
C3923 C3922 1.376 . S
C3923 C3924 1.388 . S
C3924 H3911 0.930 . S
C3924 C3923 1.388 . S
C3924 C3925 1.390 . S
C3925 C3924 1.390 . S
C3925 C3926 1.394 . S
C3925 C3931 1.465 . S
C3926 C3921 1.399 . S
C3926 C3925 1.394 . S
C3926 C3927 1.516 . S
C3927 C3926 1.516 . S
C3927 C3928 1.502 . S
C3927 C3929 1.561 . S
C3927 C3930 1.526 . S
C3928 H3912 0.959 . S
C3928 H3913 0.959 . S
C3928 H3914 0.961 . S
C3928 C3927 1.502 . S
C3929 H3915 0.960 . S
C3929 H3916 0.961 . S
C3929 H3917 0.959 . S
C3929 C3927 1.561 . S
C3930 C3927 1.526 . S
C3930 C3931 1.396 . S
C3930 C3935 1.390 . S
C3931 C3925 1.465 . S
C3931 C3930 1.396 . S
C3931 C3932 1.399 . S
C3932 H3918 0.929 . S
C3932 C3931 1.399 . S
C3932 C3933 1.385 . S
C3933 H3919 0.931 . S
C3933 C3932 1.385 . S
C3933 C3934 1.389 . S
C3934 C3933 1.389 . S
C3934 C3935 1.387 . S
C3935 H3920 0.930 . S
C3935 C3930 1.390 . S
C3935 C3934 1.387 . S
H3936 C3948 0.930 . S
H3937 C3950 0.930 . S
H3938 C3951 0.930 . S
H3939 C3955 0.959 . S
H3940 C3955 0.959 . S
H3941 C3955 0.961 . S
H3942 C3956 0.960 . S
H3943 C3956 0.961 . S
H3944 C3956 0.959 . S
H3945 C3959 0.929 . S
H3946 C3960 0.931 . S
H3947 C3962 0.930 . S
C3948 H3936 0.930 . S
C3948 C3949 1.399 . S
C3948 C3953 1.399 . S
C3949 C3948 1.399 . S
C3949 C3950 1.376 . S
C3950 H3937 0.930 . S
C3950 C3949 1.376 . S
C3950 C3951 1.388 . S
C3951 H3938 0.930 . S
C3951 C3950 1.388 . S
C3951 C3952 1.390 . S
C3952 C3951 1.390 . S
C3952 C3953 1.394 . S
C3952 C3958 1.465 . S
C3953 C3948 1.399 . S
C3953 C3952 1.394 . S
C3953 C3954 1.516 . S
C3954 C3953 1.516 . S
C3954 C3955 1.502 . S
C3954 C3956 1.561 . S
C3954 C3957 1.526 . S
C3955 H3939 0.959 . S
C3955 H3940 0.959 . S
C3955 H3941 0.961 . S
C3955 C3954 1.502 . S
C3956 H3942 0.960 . S
C3956 H3943 0.961 . S
C3956 H3944 0.959 . S
C3956 C3954 1.561 . S
C3957 C3954 1.526 . S
C3957 C3958 1.396 . S
C3957 C3962 1.390 . S
C3958 C3952 1.465 . S
C3958 C3957 1.396 . S
C3958 C3959 1.399 . S
C3959 H3945 0.929 . S
C3959 C3958 1.399 . S
C3959 C3960 1.385 . S
C3960 H3946 0.931 . S
C3960 C3959 1.385 . S
C3960 C3961 1.389 . S
C3961 C3960 1.389 . S
C3961 C3962 1.387 . S
C3962 H3947 0.930 . S
C3962 C3957 1.390 . S
C3962 C3961 1.387 . S
H3963 C3975 0.930 . S
H3964 C3977 0.930 . S
H3965 C3978 0.930 . S
H3966 C3982 0.959 . S
H3967 C3982 0.959 . S
H3968 C3982 0.961 . S
H3969 C3983 0.960 . S
H3970 C3983 0.961 . S
H3971 C3983 0.959 . S
H3972 C3986 0.929 . S
H3973 C3987 0.931 . S
H3974 C3989 0.930 . S
C3975 H3963 0.930 . S
C3975 C3976 1.399 . S
C3975 C3980 1.399 . S
C3976 C3975 1.399 . S
C3976 C3977 1.376 . S
C3977 H3964 0.930 . S
C3977 C3976 1.376 . S
C3977 C3978 1.388 . S
C3978 H3965 0.930 . S
C3978 C3977 1.388 . S
C3978 C3979 1.390 . S
C3979 C3978 1.390 . S
C3979 C3980 1.394 . S
C3979 C3985 1.465 . S
C3980 C3975 1.399 . S
C3980 C3979 1.394 . S
C3980 C3981 1.516 . S
C3981 C3980 1.516 . S
C3981 C3982 1.502 . S
C3981 C3983 1.561 . S
C3981 C3984 1.526 . S
C3982 H3966 0.959 . S
C3982 H3967 0.959 . S
C3982 H3968 0.961 . S
C3982 C3981 1.502 . S
C3983 H3969 0.960 . S
C3983 H3970 0.961 . S
C3983 H3971 0.959 . S
C3983 C3981 1.561 . S
C3984 C3981 1.526 . S
C3984 C3985 1.396 . S
C3984 C3989 1.390 . S
C3985 C3979 1.465 . S
C3985 C3984 1.396 . S
C3985 C3986 1.399 . S
C3986 H3972 0.929 . S
C3986 C3985 1.399 . S
C3986 C3987 1.385 . S
C3987 H3973 0.931 . S
C3987 C3986 1.385 . S
C3987 C3988 1.389 . S
C3988 C3987 1.389 . S
C3988 C3989 1.387 . S
C3989 H3974 0.930 . S
C3989 C3984 1.390 . S
C3989 C3988 1.387 . S
H3990 C4002 0.930 . S
H3991 C4004 0.930 . S
H3992 C4005 0.930 . S
H3993 C4009 0.959 . S
H3994 C4009 0.959 . S
H3995 C4009 0.961 . S
H3996 C4010 0.960 . S
H3997 C4010 0.961 . S
H3998 C4010 0.959 . S
H3999 C4013 0.929 . S
H4000 C4014 0.931 . S
H4001 C4016 0.930 . S
C4002 H3990 0.930 . S
C4002 C4003 1.399 . S
C4002 C4007 1.399 . S
C4003 C4002 1.399 . S
C4003 C4004 1.376 . S
C4004 H3991 0.930 . S
C4004 C4003 1.376 . S
C4004 C4005 1.388 . S
C4005 H3992 0.930 . S
C4005 C4004 1.388 . S
C4005 C4006 1.390 . S
C4006 C4005 1.390 . S
C4006 C4007 1.394 . S
C4006 C4012 1.465 . S
C4007 C4002 1.399 . S
C4007 C4006 1.394 . S
C4007 C4008 1.516 . S
C4008 C4007 1.516 . S
C4008 C4009 1.502 . S
C4008 C4010 1.561 . S
C4008 C4011 1.526 . S
C4009 H3993 0.959 . S
C4009 H3994 0.959 . S
C4009 H3995 0.961 . S
C4009 C4008 1.502 . S
C4010 H3996 0.960 . S
C4010 H3997 0.961 . S
C4010 H3998 0.959 . S
C4010 C4008 1.561 . S
C4011 C4008 1.526 . S
C4011 C4012 1.396 . S
C4011 C4016 1.390 . S
C4012 C4006 1.465 . S
C4012 C4011 1.396 . S
C4012 C4013 1.399 . S
C4013 H3999 0.929 . S
C4013 C4012 1.399 . S
C4013 C4014 1.385 . S
C4014 H4000 0.931 . S
C4014 C4013 1.385 . S
C4014 C4015 1.389 . S
C4015 C4014 1.389 . S
C4015 C4016 1.387 . S
C4016 H4001 0.930 . S
C4016 C4011 1.390 . S
C4016 C4015 1.387 . S
H4017 C4029 0.930 . S
H4018 C4031 0.930 . S
H4019 C4032 0.930 . S
H4020 C4036 0.959 . S
H4021 C4036 0.959 . S
H4022 C4036 0.961 . S
H4023 C4037 0.960 . S
H4024 C4037 0.961 . S
H4025 C4037 0.959 . S
H4026 C4040 0.929 . S
H4027 C4041 0.931 . S
H4028 C4043 0.930 . S
C4029 H4017 0.930 . S
C4029 C4030 1.399 . S
C4029 C4034 1.399 . S
C4030 C4029 1.399 . S
C4030 C4031 1.376 . S
C4031 H4018 0.930 . S
C4031 C4030 1.376 . S
C4031 C4032 1.388 . S
C4032 H4019 0.930 . S
C4032 C4031 1.388 . S
C4032 C4033 1.390 . S
C4033 C4032 1.390 . S
C4033 C4034 1.394 . S
C4033 C4039 1.465 . S
C4034 C4029 1.399 . S
C4034 C4033 1.394 . S
C4034 C4035 1.516 . S
C4035 C4034 1.516 . S
C4035 C4036 1.502 . S
C4035 C4037 1.561 . S
C4035 C4038 1.526 . S
C4036 H4020 0.959 . S
C4036 H4021 0.959 . S
C4036 H4022 0.961 . S
C4036 C4035 1.502 . S
C4037 H4023 0.960 . S
C4037 H4024 0.961 . S
C4037 H4025 0.959 . S
C4037 C4035 1.561 . S
C4038 C4035 1.526 . S
C4038 C4039 1.396 . S
C4038 C4043 1.390 . S
C4039 C4033 1.465 . S
C4039 C4038 1.396 . S
C4039 C4040 1.399 . S
C4040 H4026 0.929 . S
C4040 C4039 1.399 . S
C4040 C4041 1.385 . S
C4041 H4027 0.931 . S
C4041 C4040 1.385 . S
C4041 C4042 1.389 . S
C4042 C4041 1.389 . S
C4042 C4043 1.387 . S
C4043 H4028 0.930 . S
C4043 C4038 1.390 . S
C4043 C4042 1.387 . S
H4044 C4056 0.930 . S
H4045 C4058 0.930 . S
H4046 C4059 0.930 . S
H4047 C4063 0.959 . S
H4048 C4063 0.959 . S
H4049 C4063 0.961 . S
H4050 C4064 0.960 . S
H4051 C4064 0.961 . S
H4052 C4064 0.959 . S
H4053 C4067 0.929 . S
H4054 C4068 0.931 . S
H4055 C4070 0.930 . S
C4056 H4044 0.930 . S
C4056 C4057 1.399 . S
C4056 C4061 1.399 . S
C4057 C4056 1.399 . S
C4057 C4058 1.376 . S
C4058 H4045 0.930 . S
C4058 C4057 1.376 . S
C4058 C4059 1.388 . S
C4059 H4046 0.930 . S
C4059 C4058 1.388 . S
C4059 C4060 1.390 . S
C4060 C4059 1.390 . S
C4060 C4061 1.394 . S
C4060 C4066 1.465 . S
C4061 C4056 1.399 . S
C4061 C4060 1.394 . S
C4061 C4062 1.516 . S
C4062 C4061 1.516 . S
C4062 C4063 1.502 . S
C4062 C4064 1.561 . S
C4062 C4065 1.526 . S
C4063 H4047 0.959 . S
C4063 H4048 0.959 . S
C4063 H4049 0.961 . S
C4063 C4062 1.502 . S
C4064 H4050 0.960 . S
C4064 H4051 0.961 . S
C4064 H4052 0.959 . S
C4064 C4062 1.561 . S
C4065 C4062 1.526 . S
C4065 C4066 1.396 . S
C4065 C4070 1.390 . S
C4066 C4060 1.465 . S
C4066 C4065 1.396 . S
C4066 C4067 1.399 . S
C4067 H4053 0.929 . S
C4067 C4066 1.399 . S
C4067 C4068 1.385 . S
C4068 H4054 0.931 . S
C4068 C4067 1.385 . S
C4068 C4069 1.389 . S
C4069 C4068 1.389 . S
C4069 C4070 1.387 . S
C4070 H4055 0.930 . S
C4070 C4065 1.390 . S
C4070 C4069 1.387 . S
H4071 C4083 0.930 . S
H4072 C4085 0.930 . S
H4073 C4086 0.930 . S
H4074 C4090 0.959 . S
H4075 C4090 0.959 . S
H4076 C4090 0.961 . S
H4077 C4091 0.960 . S
H4078 C4091 0.961 . S
H4079 C4091 0.959 . S
H4080 C4094 0.929 . S
H4081 C4095 0.931 . S
H4082 C4097 0.930 . S
C4083 H4071 0.930 . S
C4083 C4084 1.399 . S
C4083 C4088 1.399 . S
C4084 C4083 1.399 . S
C4084 C4085 1.376 . S
C4085 H4072 0.930 . S
C4085 C4084 1.376 . S
C4085 C4086 1.388 . S
C4086 H4073 0.930 . S
C4086 C4085 1.388 . S
C4086 C4087 1.390 . S
C4087 C4086 1.390 . S
C4087 C4088 1.394 . S
C4087 C4093 1.465 . S
C4088 C4083 1.399 . S
C4088 C4087 1.394 . S
C4088 C4089 1.516 . S
C4089 C4088 1.516 . S
C4089 C4090 1.502 . S
C4089 C4091 1.561 . S
C4089 C4092 1.526 . S
C4090 H4074 0.959 . S
C4090 H4075 0.959 . S
C4090 H4076 0.961 . S
C4090 C4089 1.502 . S
C4091 H4077 0.960 . S
C4091 H4078 0.961 . S
C4091 H4079 0.959 . S
C4091 C4089 1.561 . S
C4092 C4089 1.526 . S
C4092 C4093 1.396 . S
C4092 C4097 1.390 . S
C4093 C4087 1.465 . S
C4093 C4092 1.396 . S
C4093 C4094 1.399 . S
C4094 H4080 0.929 . S
C4094 C4093 1.399 . S
C4094 C4095 1.385 . S
C4095 H4081 0.931 . S
C4095 C4094 1.385 . S
C4095 C4096 1.389 . S
C4096 C4095 1.389 . S
C4096 C4097 1.387 . S
C4097 H4082 0.930 . S
C4097 C4092 1.390 . S
C4097 C4096 1.387 . S
H4098 C4110 0.930 . S
H4099 C4112 0.930 . S
H4100 C4113 0.930 . S
H4101 C4117 0.959 . S
H4102 C4117 0.959 . S
H4103 C4117 0.961 . S
H4104 C4118 0.960 . S
H4105 C4118 0.961 . S
H4106 C4118 0.959 . S
H4107 C4121 0.929 . S
H4108 C4122 0.931 . S
H4109 C4124 0.930 . S
C4110 H4098 0.930 . S
C4110 C4111 1.399 . S
C4110 C4115 1.399 . S
C4111 C4110 1.399 . S
C4111 C4112 1.376 . S
C4112 H4099 0.930 . S
C4112 C4111 1.376 . S
C4112 C4113 1.388 . S
C4113 H4100 0.930 . S
C4113 C4112 1.388 . S
C4113 C4114 1.390 . S
C4114 C4113 1.390 . S
C4114 C4115 1.394 . S
C4114 C4120 1.465 . S
C4115 C4110 1.399 . S
C4115 C4114 1.394 . S
C4115 C4116 1.516 . S
C4116 C4115 1.516 . S
C4116 C4117 1.502 . S
C4116 C4118 1.561 . S
C4116 C4119 1.526 . S
C4117 H4101 0.959 . S
C4117 H4102 0.959 . S
C4117 H4103 0.961 . S
C4117 C4116 1.502 . S
C4118 H4104 0.960 . S
C4118 H4105 0.961 . S
C4118 H4106 0.959 . S
C4118 C4116 1.561 . S
C4119 C4116 1.526 . S
C4119 C4120 1.396 . S
C4119 C4124 1.390 . S
C4120 C4114 1.465 . S
C4120 C4119 1.396 . S
C4120 C4121 1.399 . S
C4121 H4107 0.929 . S
C4121 C4120 1.399 . S
C4121 C4122 1.385 . S
C4122 H4108 0.931 . S
C4122 C4121 1.385 . S
C4122 C4123 1.389 . S
C4123 C4122 1.389 . S
C4123 C4124 1.387 . S
C4124 H4109 0.930 . S
C4124 C4119 1.390 . S
C4124 C4123 1.387 . S
H4125 C4137 0.930 . S
H4126 C4139 0.930 . S
H4127 C4140 0.930 . S
H4128 C4144 0.959 . S
H4129 C4144 0.959 . S
H4130 C4144 0.961 . S
H4131 C4145 0.960 . S
H4132 C4145 0.961 . S
H4133 C4145 0.959 . S
H4134 C4148 0.929 . S
H4135 C4149 0.931 . S
H4136 C4151 0.930 . S
C4137 H4125 0.930 . S
C4137 C4138 1.399 . S
C4137 C4142 1.399 . S
C4138 C4137 1.399 . S
C4138 C4139 1.376 . S
C4139 H4126 0.930 . S
C4139 C4138 1.376 . S
C4139 C4140 1.388 . S
C4140 H4127 0.930 . S
C4140 C4139 1.388 . S
C4140 C4141 1.390 . S
C4141 C4140 1.390 . S
C4141 C4142 1.394 . S
C4141 C4147 1.465 . S
C4142 C4137 1.399 . S
C4142 C4141 1.394 . S
C4142 C4143 1.516 . S
C4143 C4142 1.516 . S
C4143 C4144 1.502 . S
C4143 C4145 1.561 . S
C4143 C4146 1.526 . S
C4144 H4128 0.959 . S
C4144 H4129 0.959 . S
C4144 H4130 0.961 . S
C4144 C4143 1.502 . S
C4145 H4131 0.960 . S
C4145 H4132 0.961 . S
C4145 H4133 0.959 . S
C4145 C4143 1.561 . S
C4146 C4143 1.526 . S
C4146 C4147 1.396 . S
C4146 C4151 1.390 . S
C4147 C4141 1.465 . S
C4147 C4146 1.396 . S
C4147 C4148 1.399 . S
C4148 H4134 0.929 . S
C4148 C4147 1.399 . S
C4148 C4149 1.385 . S
C4149 H4135 0.931 . S
C4149 C4148 1.385 . S
C4149 C4150 1.389 . S
C4150 C4149 1.389 . S
C4150 C4151 1.387 . S
C4151 H4136 0.930 . S
C4151 C4146 1.390 . S
C4151 C4150 1.387 . S
H4152 C4164 0.930 . S
H4153 C4166 0.930 . S
H4154 C4167 0.930 . S
H4155 C4171 0.959 . S
H4156 C4171 0.959 . S
H4157 C4171 0.961 . S
H4158 C4172 0.960 . S
H4159 C4172 0.961 . S
H4160 C4172 0.959 . S
H4161 C4175 0.929 . S
H4162 C4176 0.931 . S
H4163 C4178 0.930 . S
C4164 H4152 0.930 . S
C4164 C4165 1.399 . S
C4164 C4169 1.399 . S
C4165 C4164 1.399 . S
C4165 C4166 1.376 . S
C4166 H4153 0.930 . S
C4166 C4165 1.376 . S
C4166 C4167 1.388 . S
C4167 H4154 0.930 . S
C4167 C4166 1.388 . S
C4167 C4168 1.390 . S
C4168 C4167 1.390 . S
C4168 C4169 1.394 . S
C4168 C4174 1.465 . S
C4169 C4164 1.399 . S
C4169 C4168 1.394 . S
C4169 C4170 1.516 . S
C4170 C4169 1.516 . S
C4170 C4171 1.502 . S
C4170 C4172 1.561 . S
C4170 C4173 1.526 . S
C4171 H4155 0.959 . S
C4171 H4156 0.959 . S
C4171 H4157 0.961 . S
C4171 C4170 1.502 . S
C4172 H4158 0.960 . S
C4172 H4159 0.961 . S
C4172 H4160 0.959 . S
C4172 C4170 1.561 . S
C4173 C4170 1.526 . S
C4173 C4174 1.396 . S
C4173 C4178 1.390 . S
C4174 C4168 1.465 . S
C4174 C4173 1.396 . S
C4174 C4175 1.399 . S
C4175 H4161 0.929 . S
C4175 C4174 1.399 . S
C4175 C4176 1.385 . S
C4176 H4162 0.931 . S
C4176 C4175 1.385 . S
C4176 C4177 1.389 . S
C4177 C4176 1.389 . S
C4177 C4178 1.387 . S
C4178 H4163 0.930 . S
C4178 C4173 1.390 . S
C4178 C4177 1.387 . S
H4179 C4191 0.930 . S
H4180 C4193 0.930 . S
H4181 C4194 0.930 . S
H4182 C4198 0.959 . S
H4183 C4198 0.959 . S
H4184 C4198 0.961 . S
H4185 C4199 0.960 . S
H4186 C4199 0.961 . S
H4187 C4199 0.959 . S
H4188 C4202 0.929 . S
H4189 C4203 0.931 . S
H4190 C4205 0.930 . S
C4191 H4179 0.930 . S
C4191 C4192 1.399 . S
C4191 C4196 1.399 . S
C4192 C4191 1.399 . S
C4192 C4193 1.376 . S
C4193 H4180 0.930 . S
C4193 C4192 1.376 . S
C4193 C4194 1.388 . S
C4194 H4181 0.930 . S
C4194 C4193 1.388 . S
C4194 C4195 1.390 . S
C4195 C4194 1.390 . S
C4195 C4196 1.394 . S
C4195 C4201 1.465 . S
C4196 C4191 1.399 . S
C4196 C4195 1.394 . S
C4196 C4197 1.516 . S
C4197 C4196 1.516 . S
C4197 C4198 1.502 . S
C4197 C4199 1.561 . S
C4197 C4200 1.526 . S
C4198 H4182 0.959 . S
C4198 H4183 0.959 . S
C4198 H4184 0.961 . S
C4198 C4197 1.502 . S
C4199 H4185 0.960 . S
C4199 H4186 0.961 . S
C4199 H4187 0.959 . S
C4199 C4197 1.561 . S
C4200 C4197 1.526 . S
C4200 C4201 1.396 . S
C4200 C4205 1.390 . S
C4201 C4195 1.465 . S
C4201 C4200 1.396 . S
C4201 C4202 1.399 . S
C4202 H4188 0.929 . S
C4202 C4201 1.399 . S
C4202 C4203 1.385 . S
C4203 H4189 0.931 . S
C4203 C4202 1.385 . S
C4203 C4204 1.389 . S
C4204 C4203 1.389 . S
C4204 C4205 1.387 . S
C4205 H4190 0.930 . S
C4205 C4200 1.390 . S
C4205 C4204 1.387 . S
H4206 C4218 0.930 . S
H4207 C4220 0.930 . S
H4208 C4221 0.930 . S
H4209 C4225 0.959 . S
H4210 C4225 0.959 . S
H4211 C4225 0.961 . S
H4212 C4226 0.960 . S
H4213 C4226 0.961 . S
H4214 C4226 0.959 . S
H4215 C4229 0.929 . S
H4216 C4230 0.931 . S
H4217 C4232 0.930 . S
C4218 H4206 0.930 . S
C4218 C4219 1.399 . S
C4218 C4223 1.399 . S
C4219 C4218 1.399 . S
C4219 C4220 1.376 . S
C4220 H4207 0.930 . S
C4220 C4219 1.376 . S
C4220 C4221 1.388 . S
C4221 H4208 0.930 . S
C4221 C4220 1.388 . S
C4221 C4222 1.390 . S
C4222 C4221 1.390 . S
C4222 C4223 1.394 . S
C4222 C4228 1.465 . S
C4223 C4218 1.399 . S
C4223 C4222 1.394 . S
C4223 C4224 1.516 . S
C4224 C4223 1.516 . S
C4224 C4225 1.502 . S
C4224 C4226 1.561 . S
C4224 C4227 1.526 . S
C4225 H4209 0.959 . S
C4225 H4210 0.959 . S
C4225 H4211 0.961 . S
C4225 C4224 1.502 . S
C4226 H4212 0.960 . S
C4226 H4213 0.961 . S
C4226 H4214 0.959 . S
C4226 C4224 1.561 . S
C4227 C4224 1.526 . S
C4227 C4228 1.396 . S
C4227 C4232 1.390 . S
C4228 C4222 1.465 . S
C4228 C4227 1.396 . S
C4228 C4229 1.399 . S
C4229 H4215 0.929 . S
C4229 C4228 1.399 . S
C4229 C4230 1.385 . S
C4230 H4216 0.931 . S
C4230 C4229 1.385 . S
C4230 C4231 1.389 . S
C4231 C4230 1.389 . S
C4231 C4232 1.387 . S
C4232 H4217 0.930 . S
C4232 C4227 1.390 . S
C4232 C4231 1.387 . S
H4233 C4245 0.930 . S
H4234 C4247 0.930 . S
H4235 C4248 0.930 . S
H4236 C4252 0.959 . S
H4237 C4252 0.959 . S
H4238 C4252 0.961 . S
H4239 C4253 0.960 . S
H4240 C4253 0.961 . S
H4241 C4253 0.959 . S
H4242 C4256 0.929 . S
H4243 C4257 0.931 . S
H4244 C4259 0.930 . S
C4245 H4233 0.930 . S
C4245 C4246 1.399 . S
C4245 C4250 1.399 . S
C4246 C4245 1.399 . S
C4246 C4247 1.376 . S
C4247 H4234 0.930 . S
C4247 C4246 1.376 . S
C4247 C4248 1.388 . S
C4248 H4235 0.930 . S
C4248 C4247 1.388 . S
C4248 C4249 1.390 . S
C4249 C4248 1.390 . S
C4249 C4250 1.394 . S
C4249 C4255 1.465 . S
C4250 C4245 1.399 . S
C4250 C4249 1.394 . S
C4250 C4251 1.516 . S
C4251 C4250 1.516 . S
C4251 C4252 1.502 . S
C4251 C4253 1.561 . S
C4251 C4254 1.526 . S
C4252 H4236 0.959 . S
C4252 H4237 0.959 . S
C4252 H4238 0.961 . S
C4252 C4251 1.502 . S
C4253 H4239 0.960 . S
C4253 H4240 0.961 . S
C4253 H4241 0.959 . S
C4253 C4251 1.561 . S
C4254 C4251 1.526 . S
C4254 C4255 1.396 . S
C4254 C4259 1.390 . S
C4255 C4249 1.465 . S
C4255 C4254 1.396 . S
C4255 C4256 1.399 . S
C4256 H4242 0.929 . S
C4256 C4255 1.399 . S
C4256 C4257 1.385 . S
C4257 H4243 0.931 . S
C4257 C4256 1.385 . S
C4257 C4258 1.389 . S
C4258 C4257 1.389 . S
C4258 C4259 1.387 . S
C4259 H4244 0.930 . S
C4259 C4254 1.390 . S
C4259 C4258 1.387 . S
H4260 C4272 0.930 . S
H4261 C4274 0.930 . S
H4262 C4275 0.930 . S
H4263 C4279 0.959 . S
H4264 C4279 0.959 . S
H4265 C4279 0.961 . S
H4266 C4280 0.960 . S
H4267 C4280 0.961 . S
H4268 C4280 0.959 . S
H4269 C4283 0.929 . S
H4270 C4284 0.931 . S
H4271 C4286 0.930 . S
C4272 H4260 0.930 . S
C4272 C4273 1.399 . S
C4272 C4277 1.399 . S
C4273 C4272 1.399 . S
C4273 C4274 1.376 . S
C4274 H4261 0.930 . S
C4274 C4273 1.376 . S
C4274 C4275 1.388 . S
C4275 H4262 0.930 . S
C4275 C4274 1.388 . S
C4275 C4276 1.390 . S
C4276 C4275 1.390 . S
C4276 C4277 1.394 . S
C4276 C4282 1.465 . S
C4277 C4272 1.399 . S
C4277 C4276 1.394 . S
C4277 C4278 1.516 . S
C4278 C4277 1.516 . S
C4278 C4279 1.502 . S
C4278 C4280 1.561 . S
C4278 C4281 1.526 . S
C4279 H4263 0.959 . S
C4279 H4264 0.959 . S
C4279 H4265 0.961 . S
C4279 C4278 1.502 . S
C4280 H4266 0.960 . S
C4280 H4267 0.961 . S
C4280 H4268 0.959 . S
C4280 C4278 1.561 . S
C4281 C4278 1.526 . S
C4281 C4282 1.396 . S
C4281 C4286 1.390 . S
C4282 C4276 1.465 . S
C4282 C4281 1.396 . S
C4282 C4283 1.399 . S
C4283 H4269 0.929 . S
C4283 C4282 1.399 . S
C4283 C4284 1.385 . S
C4284 H4270 0.931 . S
C4284 C4283 1.385 . S
C4284 C4285 1.389 . S
C4285 C4284 1.389 . S
C4285 C4286 1.387 . S
C4286 H4271 0.930 . S
C4286 C4281 1.390 . S
C4286 C4285 1.387 . S
H4287 C4299 0.930 . S
H4288 C4301 0.930 . S
H4289 C4302 0.930 . S
H4290 C4306 0.959 . S
H4291 C4306 0.959 . S
H4292 C4306 0.961 . S
H4293 C4307 0.960 . S
H4294 C4307 0.961 . S
H4295 C4307 0.959 . S
H4296 C4310 0.929 . S
H4297 C4311 0.931 . S
H4298 C4313 0.930 . S
C4299 H4287 0.930 . S
C4299 C4300 1.399 . S
C4299 C4304 1.399 . S
C4300 C4299 1.399 . S
C4300 C4301 1.376 . S
C4301 H4288 0.930 . S
C4301 C4300 1.376 . S
C4301 C4302 1.388 . S
C4302 H4289 0.930 . S
C4302 C4301 1.388 . S
C4302 C4303 1.390 . S
C4303 C4302 1.390 . S
C4303 C4304 1.394 . S
C4303 C4309 1.465 . S
C4304 C4299 1.399 . S
C4304 C4303 1.394 . S
C4304 C4305 1.516 . S
C4305 C4304 1.516 . S
C4305 C4306 1.502 . S
C4305 C4307 1.561 . S
C4305 C4308 1.526 . S
C4306 H4290 0.959 . S
C4306 H4291 0.959 . S
C4306 H4292 0.961 . S
C4306 C4305 1.502 . S
C4307 H4293 0.960 . S
C4307 H4294 0.961 . S
C4307 H4295 0.959 . S
C4307 C4305 1.561 . S
C4308 C4305 1.526 . S
C4308 C4309 1.396 . S
C4308 C4313 1.390 . S
C4309 C4303 1.465 . S
C4309 C4308 1.396 . S
C4309 C4310 1.399 . S
C4310 H4296 0.929 . S
C4310 C4309 1.399 . S
C4310 C4311 1.385 . S
C4311 H4297 0.931 . S
C4311 C4310 1.385 . S
C4311 C4312 1.389 . S
C4312 C4311 1.389 . S
C4312 C4313 1.387 . S
C4313 H4298 0.930 . S
C4313 C4308 1.390 . S
C4313 C4312 1.387 . S
H4314 C4326 0.930 . S
H4315 C4328 0.930 . S
H4316 C4329 0.930 . S
H4317 C4333 0.959 . S
H4318 C4333 0.959 . S
H4319 C4333 0.961 . S
H4320 C4334 0.960 . S
H4321 C4334 0.961 . S
H4322 C4334 0.959 . S
H4323 C4337 0.929 . S
H4324 C4338 0.931 . S
H4325 C4340 0.930 . S
C4326 H4314 0.930 . S
C4326 C4327 1.399 . S
C4326 C4331 1.399 . S
C4327 C4326 1.399 . S
C4327 C4328 1.376 . S
C4328 H4315 0.930 . S
C4328 C4327 1.376 . S
C4328 C4329 1.388 . S
C4329 H4316 0.930 . S
C4329 C4328 1.388 . S
C4329 C4330 1.390 . S
C4330 C4329 1.390 . S
C4330 C4331 1.394 . S
C4330 C4336 1.465 . S
C4331 C4326 1.399 . S
C4331 C4330 1.394 . S
C4331 C4332 1.516 . S
C4332 C4331 1.516 . S
C4332 C4333 1.502 . S
C4332 C4334 1.561 . S
C4332 C4335 1.526 . S
C4333 H4317 0.959 . S
C4333 H4318 0.959 . S
C4333 H4319 0.961 . S
C4333 C4332 1.502 . S
C4334 H4320 0.960 . S
C4334 H4321 0.961 . S
C4334 H4322 0.959 . S
C4334 C4332 1.561 . S
C4335 C4332 1.526 . S
C4335 C4336 1.396 . S
C4335 C4340 1.390 . S
C4336 C4330 1.465 . S
C4336 C4335 1.396 . S
C4336 C4337 1.399 . S
C4337 H4323 0.929 . S
C4337 C4336 1.399 . S
C4337 C4338 1.385 . S
C4338 H4324 0.931 . S
C4338 C4337 1.385 . S
C4338 C4339 1.389 . S
C4339 C4338 1.389 . S
C4339 C4340 1.387 . S
C4340 H4325 0.930 . S
C4340 C4335 1.390 . S
C4340 C4339 1.387 . S
H4341 C4353 0.930 . S
H4342 C4355 0.930 . S
H4343 C4356 0.930 . S
H4344 C4360 0.959 . S
H4345 C4360 0.959 . S
H4346 C4360 0.961 . S
H4347 C4361 0.960 . S
H4348 C4361 0.961 . S
H4349 C4361 0.959 . S
H4350 C4364 0.929 . S
H4351 C4365 0.931 . S
H4352 C4367 0.930 . S
C4353 H4341 0.930 . S
C4353 C4354 1.399 . S
C4353 C4358 1.399 . S
C4354 C4353 1.399 . S
C4354 C4355 1.376 . S
C4355 H4342 0.930 . S
C4355 C4354 1.376 . S
C4355 C4356 1.388 . S
C4356 H4343 0.930 . S
C4356 C4355 1.388 . S
C4356 C4357 1.390 . S
C4357 C4356 1.390 . S
C4357 C4358 1.394 . S
C4357 C4363 1.465 . S
C4358 C4353 1.399 . S
C4358 C4357 1.394 . S
C4358 C4359 1.516 . S
C4359 C4358 1.516 . S
C4359 C4360 1.502 . S
C4359 C4361 1.561 . S
C4359 C4362 1.526 . S
C4360 H4344 0.959 . S
C4360 H4345 0.959 . S
C4360 H4346 0.961 . S
C4360 C4359 1.502 . S
C4361 H4347 0.960 . S
C4361 H4348 0.961 . S
C4361 H4349 0.959 . S
C4361 C4359 1.561 . S
C4362 C4359 1.526 . S
C4362 C4363 1.396 . S
C4362 C4367 1.390 . S
C4363 C4357 1.465 . S
C4363 C4362 1.396 . S
C4363 C4364 1.399 . S
C4364 H4350 0.929 . S
C4364 C4363 1.399 . S
C4364 C4365 1.385 . S
C4365 H4351 0.931 . S
C4365 C4364 1.385 . S
C4365 C4366 1.389 . S
C4366 C4365 1.389 . S
C4366 C4367 1.387 . S
C4367 H4352 0.930 . S
C4367 C4362 1.390 . S
C4367 C4366 1.387 . S
H4368 C4380 0.930 . S
H4369 C4382 0.930 . S
H4370 C4383 0.930 . S
H4371 C4387 0.959 . S
H4372 C4387 0.959 . S
H4373 C4387 0.961 . S
H4374 C4388 0.960 . S
H4375 C4388 0.961 . S
H4376 C4388 0.959 . S
H4377 C4391 0.929 . S
H4378 C4392 0.931 . S
H4379 C4394 0.930 . S
C4380 H4368 0.930 . S
C4380 C4381 1.399 . S
C4380 C4385 1.399 . S
C4381 C4380 1.399 . S
C4381 C4382 1.376 . S
C4382 H4369 0.930 . S
C4382 C4381 1.376 . S
C4382 C4383 1.388 . S
C4383 H4370 0.930 . S
C4383 C4382 1.388 . S
C4383 C4384 1.390 . S
C4384 C4383 1.390 . S
C4384 C4385 1.394 . S
C4384 C4390 1.465 . S
C4385 C4380 1.399 . S
C4385 C4384 1.394 . S
C4385 C4386 1.516 . S
C4386 C4385 1.516 . S
C4386 C4387 1.502 . S
C4386 C4388 1.561 . S
C4386 C4389 1.526 . S
C4387 H4371 0.959 . S
C4387 H4372 0.959 . S
C4387 H4373 0.961 . S
C4387 C4386 1.502 . S
C4388 H4374 0.960 . S
C4388 H4375 0.961 . S
C4388 H4376 0.959 . S
C4388 C4386 1.561 . S
C4389 C4386 1.526 . S
C4389 C4390 1.396 . S
C4389 C4394 1.390 . S
C4390 C4384 1.465 . S
C4390 C4389 1.396 . S
C4390 C4391 1.399 . S
C4391 H4377 0.929 . S
C4391 C4390 1.399 . S
C4391 C4392 1.385 . S
C4392 H4378 0.931 . S
C4392 C4391 1.385 . S
C4392 C4393 1.389 . S
C4393 C4392 1.389 . S
C4393 C4394 1.387 . S
C4394 H4379 0.930 . S
C4394 C4389 1.390 . S
C4394 C4393 1.387 . S
H4395 C4407 0.930 . S
H4396 C4409 0.930 . S
H4397 C4410 0.930 . S
H4398 C4414 0.959 . S
H4399 C4414 0.959 . S
H4400 C4414 0.961 . S
H4401 C4415 0.960 . S
H4402 C4415 0.961 . S
H4403 C4415 0.959 . S
H4404 C4418 0.929 . S
H4405 C4419 0.931 . S
H4406 C4421 0.930 . S
C4407 H4395 0.930 . S
C4407 C4408 1.399 . S
C4407 C4412 1.399 . S
C4408 C4407 1.399 . S
C4408 C4409 1.376 . S
C4409 H4396 0.930 . S
C4409 C4408 1.376 . S
C4409 C4410 1.388 . S
C4410 H4397 0.930 . S
C4410 C4409 1.388 . S
C4410 C4411 1.390 . S
C4411 C4410 1.390 . S
C4411 C4412 1.394 . S
C4411 C4417 1.465 . S
C4412 C4407 1.399 . S
C4412 C4411 1.394 . S
C4412 C4413 1.516 . S
C4413 C4412 1.516 . S
C4413 C4414 1.502 . S
C4413 C4415 1.561 . S
C4413 C4416 1.526 . S
C4414 H4398 0.959 . S
C4414 H4399 0.959 . S
C4414 H4400 0.961 . S
C4414 C4413 1.502 . S
C4415 H4401 0.960 . S
C4415 H4402 0.961 . S
C4415 H4403 0.959 . S
C4415 C4413 1.561 . S
C4416 C4413 1.526 . S
C4416 C4417 1.396 . S
C4416 C4421 1.390 . S
C4417 C4411 1.465 . S
C4417 C4416 1.396 . S
C4417 C4418 1.399 . S
C4418 H4404 0.929 . S
C4418 C4417 1.399 . S
C4418 C4419 1.385 . S
C4419 H4405 0.931 . S
C4419 C4418 1.385 . S
C4419 C4420 1.389 . S
C4420 C4419 1.389 . S
C4420 C4421 1.387 . S
C4421 H4406 0.930 . S
C4421 C4416 1.390 . S
C4421 C4420 1.387 . S
H4422 C4434 0.930 . S
H4423 C4436 0.930 . S
H4424 C4437 0.930 . S
H4425 C4441 0.959 . S
H4426 C4441 0.959 . S
H4427 C4441 0.961 . S
H4428 C4442 0.960 . S
H4429 C4442 0.961 . S
H4430 C4442 0.959 . S
H4431 C4445 0.929 . S
H4432 C4446 0.931 . S
H4433 C4448 0.930 . S
C4434 H4422 0.930 . S
C4434 C4435 1.399 . S
C4434 C4439 1.399 . S
C4435 C4434 1.399 . S
C4435 C4436 1.376 . S
C4436 H4423 0.930 . S
C4436 C4435 1.376 . S
C4436 C4437 1.388 . S
C4437 H4424 0.930 . S
C4437 C4436 1.388 . S
C4437 C4438 1.390 . S
C4438 C4437 1.390 . S
C4438 C4439 1.394 . S
C4438 C4444 1.465 . S
C4439 C4434 1.399 . S
C4439 C4438 1.394 . S
C4439 C4440 1.516 . S
C4440 C4439 1.516 . S
C4440 C4441 1.502 . S
C4440 C4442 1.561 . S
C4440 C4443 1.526 . S
C4441 H4425 0.959 . S
C4441 H4426 0.959 . S
C4441 H4427 0.961 . S
C4441 C4440 1.502 . S
C4442 H4428 0.960 . S
C4442 H4429 0.961 . S
C4442 H4430 0.959 . S
C4442 C4440 1.561 . S
C4443 C4440 1.526 . S
C4443 C4444 1.396 . S
C4443 C4448 1.390 . S
C4444 C4438 1.465 . S
C4444 C4443 1.396 . S
C4444 C4445 1.399 . S
C4445 H4431 0.929 . S
C4445 C4444 1.399 . S
C4445 C4446 1.385 . S
C4446 H4432 0.931 . S
C4446 C4445 1.385 . S
C4446 C4447 1.389 . S
C4447 C4446 1.389 . S
C4447 C4448 1.387 . S
C4448 H4433 0.930 . S
C4448 C4443 1.390 . S
C4448 C4447 1.387 . S
H4449 C4461 0.930 . S
H4450 C4463 0.930 . S
H4451 C4464 0.930 . S
H4452 C4468 0.959 . S
H4453 C4468 0.959 . S
H4454 C4468 0.961 . S
H4455 C4469 0.960 . S
H4456 C4469 0.961 . S
H4457 C4469 0.959 . S
H4458 C4472 0.929 . S
H4459 C4473 0.931 . S
H4460 C4475 0.930 . S
C4461 H4449 0.930 . S
C4461 C4462 1.399 . S
C4461 C4466 1.399 . S
C4462 C4461 1.399 . S
C4462 C4463 1.376 . S
C4463 H4450 0.930 . S
C4463 C4462 1.376 . S
C4463 C4464 1.388 . S
C4464 H4451 0.930 . S
C4464 C4463 1.388 . S
C4464 C4465 1.390 . S
C4465 C4464 1.390 . S
C4465 C4466 1.394 . S
C4465 C4471 1.465 . S
C4466 C4461 1.399 . S
C4466 C4465 1.394 . S
C4466 C4467 1.516 . S
C4467 C4466 1.516 . S
C4467 C4468 1.502 . S
C4467 C4469 1.561 . S
C4467 C4470 1.526 . S
C4468 H4452 0.959 . S
C4468 H4453 0.959 . S
C4468 H4454 0.961 . S
C4468 C4467 1.502 . S
C4469 H4455 0.960 . S
C4469 H4456 0.961 . S
C4469 H4457 0.959 . S
C4469 C4467 1.561 . S
C4470 C4467 1.526 . S
C4470 C4471 1.396 . S
C4470 C4475 1.390 . S
C4471 C4465 1.465 . S
C4471 C4470 1.396 . S
C4471 C4472 1.399 . S
C4472 H4458 0.929 . S
C4472 C4471 1.399 . S
C4472 C4473 1.385 . S
C4473 H4459 0.931 . S
C4473 C4472 1.385 . S
C4473 C4474 1.389 . S
C4474 C4473 1.389 . S
C4474 C4475 1.387 . S
C4475 H4460 0.930 . S
C4475 C4470 1.390 . S
C4475 C4474 1.387 . S
H4476 C4488 0.930 . S
H4477 C4490 0.930 . S
H4478 C4491 0.930 . S
H4479 C4495 0.959 . S
H4480 C4495 0.959 . S
H4481 C4495 0.961 . S
H4482 C4496 0.960 . S
H4483 C4496 0.961 . S
H4484 C4496 0.959 . S
H4485 C4499 0.929 . S
H4486 C4500 0.931 . S
H4487 C4502 0.930 . S
C4488 H4476 0.930 . S
C4488 C4489 1.399 . S
C4488 C4493 1.399 . S
C4489 C4488 1.399 . S
C4489 C4490 1.376 . S
C4490 H4477 0.930 . S
C4490 C4489 1.376 . S
C4490 C4491 1.388 . S
C4491 H4478 0.930 . S
C4491 C4490 1.388 . S
C4491 C4492 1.390 . S
C4492 C4491 1.390 . S
C4492 C4493 1.394 . S
C4492 C4498 1.465 . S
C4493 C4488 1.399 . S
C4493 C4492 1.394 . S
C4493 C4494 1.516 . S
C4494 C4493 1.516 . S
C4494 C4495 1.502 . S
C4494 C4496 1.561 . S
C4494 C4497 1.526 . S
C4495 H4479 0.959 . S
C4495 H4480 0.959 . S
C4495 H4481 0.961 . S
C4495 C4494 1.502 . S
C4496 H4482 0.960 . S
C4496 H4483 0.961 . S
C4496 H4484 0.959 . S
C4496 C4494 1.561 . S
C4497 C4494 1.526 . S
C4497 C4498 1.396 . S
C4497 C4502 1.390 . S
C4498 C4492 1.465 . S
C4498 C4497 1.396 . S
C4498 C4499 1.399 . S
C4499 H4485 0.929 . S
C4499 C4498 1.399 . S
C4499 C4500 1.385 . S
C4500 H4486 0.931 . S
C4500 C4499 1.385 . S
C4500 C4501 1.389 . S
C4501 C4500 1.389 . S
C4501 C4502 1.387 . S
C4502 H4487 0.930 . S
C4502 C4497 1.390 . S
C4502 C4501 1.387 . S
H4503 C4515 0.930 . S
H4504 C4517 0.930 . S
H4505 C4518 0.930 . S
H4506 C4522 0.959 . S
H4507 C4522 0.959 . S
H4508 C4522 0.961 . S
H4509 C4523 0.960 . S
H4510 C4523 0.961 . S
H4511 C4523 0.959 . S
H4512 C4526 0.929 . S
H4513 C4527 0.931 . S
H4514 C4529 0.930 . S
C4515 H4503 0.930 . S
C4515 C4516 1.399 . S
C4515 C4520 1.399 . S
C4516 C4515 1.399 . S
C4516 C4517 1.376 . S
C4517 H4504 0.930 . S
C4517 C4516 1.376 . S
C4517 C4518 1.388 . S
C4518 H4505 0.930 . S
C4518 C4517 1.388 . S
C4518 C4519 1.390 . S
C4519 C4518 1.390 . S
C4519 C4520 1.394 . S
C4519 C4525 1.465 . S
C4520 C4515 1.399 . S
C4520 C4519 1.394 . S
C4520 C4521 1.516 . S
C4521 C4520 1.516 . S
C4521 C4522 1.502 . S
C4521 C4523 1.561 . S
C4521 C4524 1.526 . S
C4522 H4506 0.959 . S
C4522 H4507 0.959 . S
C4522 H4508 0.961 . S
C4522 C4521 1.502 . S
C4523 H4509 0.960 . S
C4523 H4510 0.961 . S
C4523 H4511 0.959 . S
C4523 C4521 1.561 . S
C4524 C4521 1.526 . S
C4524 C4525 1.396 . S
C4524 C4529 1.390 . S
C4525 C4519 1.465 . S
C4525 C4524 1.396 . S
C4525 C4526 1.399 . S
C4526 H4512 0.929 . S
C4526 C4525 1.399 . S
C4526 C4527 1.385 . S
C4527 H4513 0.931 . S
C4527 C4526 1.385 . S
C4527 C4528 1.389 . S
C4528 C4527 1.389 . S
C4528 C4529 1.387 . S
C4529 H4514 0.930 . S
C4529 C4524 1.390 . S
C4529 C4528 1.387 . S
H4530 C4542 0.930 . S
H4531 C4544 0.930 . S
H4532 C4545 0.930 . S
H4533 C4549 0.959 . S
H4534 C4549 0.959 . S
H4535 C4549 0.961 . S
H4536 C4550 0.960 . S
H4537 C4550 0.961 . S
H4538 C4550 0.959 . S
H4539 C4553 0.929 . S
H4540 C4554 0.931 . S
H4541 C4556 0.930 . S
C4542 H4530 0.930 . S
C4542 C4543 1.399 . S
C4542 C4547 1.399 . S
C4543 C4542 1.399 . S
C4543 C4544 1.376 . S
C4544 H4531 0.930 . S
C4544 C4543 1.376 . S
C4544 C4545 1.388 . S
C4545 H4532 0.930 . S
C4545 C4544 1.388 . S
C4545 C4546 1.390 . S
C4546 C4545 1.390 . S
C4546 C4547 1.394 . S
C4546 C4552 1.465 . S
C4547 C4542 1.399 . S
C4547 C4546 1.394 . S
C4547 C4548 1.516 . S
C4548 C4547 1.516 . S
C4548 C4549 1.502 . S
C4548 C4550 1.561 . S
C4548 C4551 1.526 . S
C4549 H4533 0.959 . S
C4549 H4534 0.959 . S
C4549 H4535 0.961 . S
C4549 C4548 1.502 . S
C4550 H4536 0.960 . S
C4550 H4537 0.961 . S
C4550 H4538 0.959 . S
C4550 C4548 1.561 . S
C4551 C4548 1.526 . S
C4551 C4552 1.396 . S
C4551 C4556 1.390 . S
C4552 C4546 1.465 . S
C4552 C4551 1.396 . S
C4552 C4553 1.399 . S
C4553 H4539 0.929 . S
C4553 C4552 1.399 . S
C4553 C4554 1.385 . S
C4554 H4540 0.931 . S
C4554 C4553 1.385 . S
C4554 C4555 1.389 . S
C4555 C4554 1.389 . S
C4555 C4556 1.387 . S
C4556 H4541 0.930 . S
C4556 C4551 1.390 . S
C4556 C4555 1.387 . S
H4557 C4569 0.930 . S
H4558 C4571 0.930 . S
H4559 C4572 0.930 . S
H4560 C4576 0.959 . S
H4561 C4576 0.959 . S
H4562 C4576 0.961 . S
H4563 C4577 0.960 . S
H4564 C4577 0.961 . S
H4565 C4577 0.959 . S
H4566 C4580 0.929 . S
H4567 C4581 0.931 . S
H4568 C4583 0.930 . S
C4569 H4557 0.930 . S
C4569 C4570 1.399 . S
C4569 C4574 1.399 . S
C4570 C4569 1.399 . S
C4570 C4571 1.376 . S
C4571 H4558 0.930 . S
C4571 C4570 1.376 . S
C4571 C4572 1.388 . S
C4572 H4559 0.930 . S
C4572 C4571 1.388 . S
C4572 C4573 1.390 . S
C4573 C4572 1.390 . S
C4573 C4574 1.394 . S
C4573 C4579 1.465 . S
C4574 C4569 1.399 . S
C4574 C4573 1.394 . S
C4574 C4575 1.516 . S
C4575 C4574 1.516 . S
C4575 C4576 1.502 . S
C4575 C4577 1.561 . S
C4575 C4578 1.526 . S
C4576 H4560 0.959 . S
C4576 H4561 0.959 . S
C4576 H4562 0.961 . S
C4576 C4575 1.502 . S
C4577 H4563 0.960 . S
C4577 H4564 0.961 . S
C4577 H4565 0.959 . S
C4577 C4575 1.561 . S
C4578 C4575 1.526 . S
C4578 C4579 1.396 . S
C4578 C4583 1.390 . S
C4579 C4573 1.465 . S
C4579 C4578 1.396 . S
C4579 C4580 1.399 . S
C4580 H4566 0.929 . S
C4580 C4579 1.399 . S
C4580 C4581 1.385 . S
C4581 H4567 0.931 . S
C4581 C4580 1.385 . S
C4581 C4582 1.389 . S
C4582 C4581 1.389 . S
C4582 C4583 1.387 . S
C4583 H4568 0.930 . S
C4583 C4578 1.390 . S
C4583 C4582 1.387 . S
H4584 C4596 0.930 . S
H4585 C4598 0.930 . S
H4586 C4599 0.930 . S
H4587 C4603 0.959 . S
H4588 C4603 0.959 . S
H4589 C4603 0.961 . S
H4590 C4604 0.960 . S
H4591 C4604 0.961 . S
H4592 C4604 0.959 . S
H4593 C4607 0.929 . S
H4594 C4608 0.931 . S
H4595 C4610 0.930 . S
C4596 H4584 0.930 . S
C4596 C4597 1.399 . S
C4596 C4601 1.399 . S
C4597 C4596 1.399 . S
C4597 C4598 1.376 . S
C4598 H4585 0.930 . S
C4598 C4597 1.376 . S
C4598 C4599 1.388 . S
C4599 H4586 0.930 . S
C4599 C4598 1.388 . S
C4599 C4600 1.390 . S
C4600 C4599 1.390 . S
C4600 C4601 1.394 . S
C4600 C4606 1.465 . S
C4601 C4596 1.399 . S
C4601 C4600 1.394 . S
C4601 C4602 1.516 . S
C4602 C4601 1.516 . S
C4602 C4603 1.502 . S
C4602 C4604 1.561 . S
C4602 C4605 1.526 . S
C4603 H4587 0.959 . S
C4603 H4588 0.959 . S
C4603 H4589 0.961 . S
C4603 C4602 1.502 . S
C4604 H4590 0.960 . S
C4604 H4591 0.961 . S
C4604 H4592 0.959 . S
C4604 C4602 1.561 . S
C4605 C4602 1.526 . S
C4605 C4606 1.396 . S
C4605 C4610 1.390 . S
C4606 C4600 1.465 . S
C4606 C4605 1.396 . S
C4606 C4607 1.399 . S
C4607 H4593 0.929 . S
C4607 C4606 1.399 . S
C4607 C4608 1.385 . S
C4608 H4594 0.931 . S
C4608 C4607 1.385 . S
C4608 C4609 1.389 . S
C4609 C4608 1.389 . S
C4609 C4610 1.387 . S
C4610 H4595 0.930 . S
C4610 C4605 1.390 . S
C4610 C4609 1.387 . S
H4611 C4623 0.930 . S
H4612 C4625 0.930 . S
H4613 C4626 0.930 . S
H4614 C4630 0.959 . S
H4615 C4630 0.959 . S
H4616 C4630 0.961 . S
H4617 C4631 0.960 . S
H4618 C4631 0.961 . S
H4619 C4631 0.959 . S
H4620 C4634 0.929 . S
H4621 C4635 0.931 . S
H4622 C4637 0.930 . S
C4623 H4611 0.930 . S
C4623 C4624 1.399 . S
C4623 C4628 1.399 . S
C4624 C4623 1.399 . S
C4624 C4625 1.376 . S
C4625 H4612 0.930 . S
C4625 C4624 1.376 . S
C4625 C4626 1.388 . S
C4626 H4613 0.930 . S
C4626 C4625 1.388 . S
C4626 C4627 1.390 . S
C4627 C4626 1.390 . S
C4627 C4628 1.394 . S
C4627 C4633 1.465 . S
C4628 C4623 1.399 . S
C4628 C4627 1.394 . S
C4628 C4629 1.516 . S
C4629 C4628 1.516 . S
C4629 C4630 1.502 . S
C4629 C4631 1.561 . S
C4629 C4632 1.526 . S
C4630 H4614 0.959 . S
C4630 H4615 0.959 . S
C4630 H4616 0.961 . S
C4630 C4629 1.502 . S
C4631 H4617 0.960 . S
C4631 H4618 0.961 . S
C4631 H4619 0.959 . S
C4631 C4629 1.561 . S
C4632 C4629 1.526 . S
C4632 C4633 1.396 . S
C4632 C4637 1.390 . S
C4633 C4627 1.465 . S
C4633 C4632 1.396 . S
C4633 C4634 1.399 . S
C4634 H4620 0.929 . S
C4634 C4633 1.399 . S
C4634 C4635 1.385 . S
C4635 H4621 0.931 . S
C4635 C4634 1.385 . S
C4635 C4636 1.389 . S
C4636 C4635 1.389 . S
C4636 C4637 1.387 . S
C4637 H4622 0.930 . S
C4637 C4632 1.390 . S
C4637 C4636 1.387 . S
H4638 C4650 0.930 . S
H4639 C4652 0.930 . S
H4640 C4653 0.930 . S
H4641 C4657 0.959 . S
H4642 C4657 0.959 . S
H4643 C4657 0.961 . S
H4644 C4658 0.960 . S
H4645 C4658 0.961 . S
H4646 C4658 0.959 . S
H4647 C4661 0.929 . S
H4648 C4662 0.931 . S
H4649 C4664 0.930 . S
C4650 H4638 0.930 . S
C4650 C4651 1.399 . S
C4650 C4655 1.399 . S
C4651 C4650 1.399 . S
C4651 C4652 1.376 . S
C4652 H4639 0.930 . S
C4652 C4651 1.376 . S
C4652 C4653 1.388 . S
C4653 H4640 0.930 . S
C4653 C4652 1.388 . S
C4653 C4654 1.390 . S
C4654 C4653 1.390 . S
C4654 C4655 1.394 . S
C4654 C4660 1.465 . S
C4655 C4650 1.399 . S
C4655 C4654 1.394 . S
C4655 C4656 1.516 . S
C4656 C4655 1.516 . S
C4656 C4657 1.502 . S
C4656 C4658 1.561 . S
C4656 C4659 1.526 . S
C4657 H4641 0.959 . S
C4657 H4642 0.959 . S
C4657 H4643 0.961 . S
C4657 C4656 1.502 . S
C4658 H4644 0.960 . S
C4658 H4645 0.961 . S
C4658 H4646 0.959 . S
C4658 C4656 1.561 . S
C4659 C4656 1.526 . S
C4659 C4660 1.396 . S
C4659 C4664 1.390 . S
C4660 C4654 1.465 . S
C4660 C4659 1.396 . S
C4660 C4661 1.399 . S
C4661 H4647 0.929 . S
C4661 C4660 1.399 . S
C4661 C4662 1.385 . S
C4662 H4648 0.931 . S
C4662 C4661 1.385 . S
C4662 C4663 1.389 . S
C4663 C4662 1.389 . S
C4663 C4664 1.387 . S
C4664 H4649 0.930 . S
C4664 C4659 1.390 . S
C4664 C4663 1.387 . S
H4665 C4677 0.930 . S
H4666 C4679 0.930 . S
H4667 C4680 0.930 . S
H4668 C4684 0.959 . S
H4669 C4684 0.959 . S
H4670 C4684 0.961 . S
H4671 C4685 0.960 . S
H4672 C4685 0.961 . S
H4673 C4685 0.959 . S
H4674 C4688 0.929 . S
H4675 C4689 0.931 . S
H4676 C4691 0.930 . S
C4677 H4665 0.930 . S
C4677 C4678 1.399 . S
C4677 C4682 1.399 . S
C4678 C4677 1.399 . S
C4678 C4679 1.376 . S
C4679 H4666 0.930 . S
C4679 C4678 1.376 . S
C4679 C4680 1.388 . S
C4680 H4667 0.930 . S
C4680 C4679 1.388 . S
C4680 C4681 1.390 . S
C4681 C4680 1.390 . S
C4681 C4682 1.394 . S
C4681 C4687 1.465 . S
C4682 C4677 1.399 . S
C4682 C4681 1.394 . S
C4682 C4683 1.516 . S
C4683 C4682 1.516 . S
C4683 C4684 1.502 . S
C4683 C4685 1.561 . S
C4683 C4686 1.526 . S
C4684 H4668 0.959 . S
C4684 H4669 0.959 . S
C4684 H4670 0.961 . S
C4684 C4683 1.502 . S
C4685 H4671 0.960 . S
C4685 H4672 0.961 . S
C4685 H4673 0.959 . S
C4685 C4683 1.561 . S
C4686 C4683 1.526 . S
C4686 C4687 1.396 . S
C4686 C4691 1.390 . S
C4687 C4681 1.465 . S
C4687 C4686 1.396 . S
C4687 C4688 1.399 . S
C4688 H4674 0.929 . S
C4688 C4687 1.399 . S
C4688 C4689 1.385 . S
C4689 H4675 0.931 . S
C4689 C4688 1.385 . S
C4689 C4690 1.389 . S
C4690 C4689 1.389 . S
C4690 C4691 1.387 . S
C4691 H4676 0.930 . S
C4691 C4686 1.390 . S
C4691 C4690 1.387 . S
H4692 C4704 0.930 . S
H4693 C4706 0.930 . S
H4694 C4707 0.930 . S
H4695 C4711 0.959 . S
H4696 C4711 0.959 . S
H4697 C4711 0.961 . S
H4698 C4712 0.960 . S
H4699 C4712 0.961 . S
H4700 C4712 0.959 . S
H4701 C4715 0.929 . S
H4702 C4716 0.931 . S
H4703 C4718 0.930 . S
C4704 H4692 0.930 . S
C4704 C4705 1.399 . S
C4704 C4709 1.399 . S
C4705 C4704 1.399 . S
C4705 C4706 1.376 . S
C4706 H4693 0.930 . S
C4706 C4705 1.376 . S
C4706 C4707 1.388 . S
C4707 H4694 0.930 . S
C4707 C4706 1.388 . S
C4707 C4708 1.390 . S
C4708 C4707 1.390 . S
C4708 C4709 1.394 . S
C4708 C4714 1.465 . S
C4709 C4704 1.399 . S
C4709 C4708 1.394 . S
C4709 C4710 1.516 . S
C4710 C4709 1.516 . S
C4710 C4711 1.502 . S
C4710 C4712 1.561 . S
C4710 C4713 1.526 . S
C4711 H4695 0.959 . S
C4711 H4696 0.959 . S
C4711 H4697 0.961 . S
C4711 C4710 1.502 . S
C4712 H4698 0.960 . S
C4712 H4699 0.961 . S
C4712 H4700 0.959 . S
C4712 C4710 1.561 . S
C4713 C4710 1.526 . S
C4713 C4714 1.396 . S
C4713 C4718 1.390 . S
C4714 C4708 1.465 . S
C4714 C4713 1.396 . S
C4714 C4715 1.399 . S
C4715 H4701 0.929 . S
C4715 C4714 1.399 . S
C4715 C4716 1.385 . S
C4716 H4702 0.931 . S
C4716 C4715 1.385 . S
C4716 C4717 1.389 . S
C4717 C4716 1.389 . S
C4717 C4718 1.387 . S
C4718 H4703 0.930 . S
C4718 C4713 1.390 . S
C4718 C4717 1.387 . S
H4719 C4731 0.930 . S
H4720 C4733 0.930 . S
H4721 C4734 0.930 . S
H4722 C4738 0.959 . S
H4723 C4738 0.959 . S
H4724 C4738 0.961 . S
H4725 C4739 0.960 . S
H4726 C4739 0.961 . S
H4727 C4739 0.959 . S
H4728 C4742 0.929 . S
H4729 C4743 0.931 . S
H4730 C4745 0.930 . S
C4731 H4719 0.930 . S
C4731 C4732 1.399 . S
C4731 C4736 1.399 . S
C4732 C4731 1.399 . S
C4732 C4733 1.376 . S
C4733 H4720 0.930 . S
C4733 C4732 1.376 . S
C4733 C4734 1.388 . S
C4734 H4721 0.930 . S
C4734 C4733 1.388 . S
C4734 C4735 1.390 . S
C4735 C4734 1.390 . S
C4735 C4736 1.394 . S
C4735 C4741 1.465 . S
C4736 C4731 1.399 . S
C4736 C4735 1.394 . S
C4736 C4737 1.516 . S
C4737 C4736 1.516 . S
C4737 C4738 1.502 . S
C4737 C4739 1.561 . S
C4737 C4740 1.526 . S
C4738 H4722 0.959 . S
C4738 H4723 0.959 . S
C4738 H4724 0.961 . S
C4738 C4737 1.502 . S
C4739 H4725 0.960 . S
C4739 H4726 0.961 . S
C4739 H4727 0.959 . S
C4739 C4737 1.561 . S
C4740 C4737 1.526 . S
C4740 C4741 1.396 . S
C4740 C4745 1.390 . S
C4741 C4735 1.465 . S
C4741 C4740 1.396 . S
C4741 C4742 1.399 . S
C4742 H4728 0.929 . S
C4742 C4741 1.399 . S
C4742 C4743 1.385 . S
C4743 H4729 0.931 . S
C4743 C4742 1.385 . S
C4743 C4744 1.389 . S
C4744 C4743 1.389 . S
C4744 C4745 1.387 . S
C4745 H4730 0.930 . S
C4745 C4740 1.390 . S
C4745 C4744 1.387 . S
H4746 C4758 0.930 . S
H4747 C4760 0.930 . S
H4748 C4761 0.930 . S
H4749 C4765 0.959 . S
H4750 C4765 0.959 . S
H4751 C4765 0.961 . S
H4752 C4766 0.960 . S
H4753 C4766 0.961 . S
H4754 C4766 0.959 . S
H4755 C4769 0.929 . S
H4756 C4770 0.931 . S
H4757 C4772 0.930 . S
C4758 H4746 0.930 . S
C4758 C4759 1.399 . S
C4758 C4763 1.399 . S
C4759 C4758 1.399 . S
C4759 C4760 1.376 . S
C4760 H4747 0.930 . S
C4760 C4759 1.376 . S
C4760 C4761 1.388 . S
C4761 H4748 0.930 . S
C4761 C4760 1.388 . S
C4761 C4762 1.390 . S
C4762 C4761 1.390 . S
C4762 C4763 1.394 . S
C4762 C4768 1.465 . S
C4763 C4758 1.399 . S
C4763 C4762 1.394 . S
C4763 C4764 1.516 . S
C4764 C4763 1.516 . S
C4764 C4765 1.502 . S
C4764 C4766 1.561 . S
C4764 C4767 1.526 . S
C4765 H4749 0.959 . S
C4765 H4750 0.959 . S
C4765 H4751 0.961 . S
C4765 C4764 1.502 . S
C4766 H4752 0.960 . S
C4766 H4753 0.961 . S
C4766 H4754 0.959 . S
C4766 C4764 1.561 . S
C4767 C4764 1.526 . S
C4767 C4768 1.396 . S
C4767 C4772 1.390 . S
C4768 C4762 1.465 . S
C4768 C4767 1.396 . S
C4768 C4769 1.399 . S
C4769 H4755 0.929 . S
C4769 C4768 1.399 . S
C4769 C4770 1.385 . S
C4770 H4756 0.931 . S
C4770 C4769 1.385 . S
C4770 C4771 1.389 . S
C4771 C4770 1.389 . S
C4771 C4772 1.387 . S
C4772 H4757 0.930 . S
C4772 C4767 1.390 . S
C4772 C4771 1.387 . S
H4773 C4785 0.930 . S
H4774 C4787 0.930 . S
H4775 C4788 0.930 . S
H4776 C4792 0.959 . S
H4777 C4792 0.959 . S
H4778 C4792 0.961 . S
H4779 C4793 0.960 . S
H4780 C4793 0.961 . S
H4781 C4793 0.959 . S
H4782 C4796 0.929 . S
H4783 C4797 0.931 . S
H4784 C4799 0.930 . S
C4785 H4773 0.930 . S
C4785 C4786 1.399 . S
C4785 C4790 1.399 . S
C4786 C4785 1.399 . S
C4786 C4787 1.376 . S
C4787 H4774 0.930 . S
C4787 C4786 1.376 . S
C4787 C4788 1.388 . S
C4788 H4775 0.930 . S
C4788 C4787 1.388 . S
C4788 C4789 1.390 . S
C4789 C4788 1.390 . S
C4789 C4790 1.394 . S
C4789 C4795 1.465 . S
C4790 C4785 1.399 . S
C4790 C4789 1.394 . S
C4790 C4791 1.516 . S
C4791 C4790 1.516 . S
C4791 C4792 1.502 . S
C4791 C4793 1.561 . S
C4791 C4794 1.526 . S
C4792 H4776 0.959 . S
C4792 H4777 0.959 . S
C4792 H4778 0.961 . S
C4792 C4791 1.502 . S
C4793 H4779 0.960 . S
C4793 H4780 0.961 . S
C4793 H4781 0.959 . S
C4793 C4791 1.561 . S
C4794 C4791 1.526 . S
C4794 C4795 1.396 . S
C4794 C4799 1.390 . S
C4795 C4789 1.465 . S
C4795 C4794 1.396 . S
C4795 C4796 1.399 . S
C4796 H4782 0.929 . S
C4796 C4795 1.399 . S
C4796 C4797 1.385 . S
C4797 H4783 0.931 . S
C4797 C4796 1.385 . S
C4797 C4798 1.389 . S
C4798 C4797 1.389 . S
C4798 C4799 1.387 . S
C4799 H4784 0.930 . S
C4799 C4794 1.390 . S
C4799 C4798 1.387 . S
H4800 C4812 0.930 . S
H4801 C4814 0.930 . S
H4802 C4815 0.930 . S
H4803 C4819 0.959 . S
H4804 C4819 0.959 . S
H4805 C4819 0.961 . S
H4806 C4820 0.960 . S
H4807 C4820 0.961 . S
H4808 C4820 0.959 . S
H4809 C4823 0.929 . S
H4810 C4824 0.931 . S
H4811 C4826 0.930 . S
C4812 H4800 0.930 . S
C4812 C4813 1.399 . S
C4812 C4817 1.399 . S
C4813 C4812 1.399 . S
C4813 C4814 1.376 . S
C4814 H4801 0.930 . S
C4814 C4813 1.376 . S
C4814 C4815 1.388 . S
C4815 H4802 0.930 . S
C4815 C4814 1.388 . S
C4815 C4816 1.390 . S
C4816 C4815 1.390 . S
C4816 C4817 1.394 . S
C4816 C4822 1.465 . S
C4817 C4812 1.399 . S
C4817 C4816 1.394 . S
C4817 C4818 1.516 . S
C4818 C4817 1.516 . S
C4818 C4819 1.502 . S
C4818 C4820 1.561 . S
C4818 C4821 1.526 . S
C4819 H4803 0.959 . S
C4819 H4804 0.959 . S
C4819 H4805 0.961 . S
C4819 C4818 1.502 . S
C4820 H4806 0.960 . S
C4820 H4807 0.961 . S
C4820 H4808 0.959 . S
C4820 C4818 1.561 . S
C4821 C4818 1.526 . S
C4821 C4822 1.396 . S
C4821 C4826 1.390 . S
C4822 C4816 1.465 . S
C4822 C4821 1.396 . S
C4822 C4823 1.399 . S
C4823 H4809 0.929 . S
C4823 C4822 1.399 . S
C4823 C4824 1.385 . S
C4824 H4810 0.931 . S
C4824 C4823 1.385 . S
C4824 C4825 1.389 . S
C4825 C4824 1.389 . S
C4825 C4826 1.387 . S
C4826 H4811 0.930 . S
C4826 C4821 1.390 . S
C4826 C4825 1.387 . S
H4827 C4839 0.930 . S
H4828 C4841 0.930 . S
H4829 C4842 0.930 . S
H4830 C4846 0.959 . S
H4831 C4846 0.959 . S
H4832 C4846 0.961 . S
H4833 C4847 0.960 . S
H4834 C4847 0.961 . S
H4835 C4847 0.959 . S
H4836 C4850 0.929 . S
H4837 C4851 0.931 . S
H4838 C4853 0.930 . S
C4839 H4827 0.930 . S
C4839 C4840 1.399 . S
C4839 C4844 1.399 . S
C4840 C4839 1.399 . S
C4840 C4841 1.376 . S
C4841 H4828 0.930 . S
C4841 C4840 1.376 . S
C4841 C4842 1.388 . S
C4842 H4829 0.930 . S
C4842 C4841 1.388 . S
C4842 C4843 1.390 . S
C4843 C4842 1.390 . S
C4843 C4844 1.394 . S
C4843 C4849 1.465 . S
C4844 C4839 1.399 . S
C4844 C4843 1.394 . S
C4844 C4845 1.516 . S
C4845 C4844 1.516 . S
C4845 C4846 1.502 . S
C4845 C4847 1.561 . S
C4845 C4848 1.526 . S
C4846 H4830 0.959 . S
C4846 H4831 0.959 . S
C4846 H4832 0.961 . S
C4846 C4845 1.502 . S
C4847 H4833 0.960 . S
C4847 H4834 0.961 . S
C4847 H4835 0.959 . S
C4847 C4845 1.561 . S
C4848 C4845 1.526 . S
C4848 C4849 1.396 . S
C4848 C4853 1.390 . S
C4849 C4843 1.465 . S
C4849 C4848 1.396 . S
C4849 C4850 1.399 . S
C4850 H4836 0.929 . S
C4850 C4849 1.399 . S
C4850 C4851 1.385 . S
C4851 H4837 0.931 . S
C4851 C4850 1.385 . S
C4851 C4852 1.389 . S
C4852 C4851 1.389 . S
C4852 C4853 1.387 . S
C4853 H4838 0.930 . S
C4853 C4848 1.390 . S
C4853 C4852 1.387 . S
H4854 C4866 0.930 . S
H4855 C4868 0.930 . S
H4856 C4869 0.930 . S
H4857 C4873 0.959 . S
H4858 C4873 0.959 . S
H4859 C4873 0.961 . S
H4860 C4874 0.960 . S
H4861 C4874 0.961 . S
H4862 C4874 0.959 . S
H4863 C4877 0.929 . S
H4864 C4878 0.931 . S
H4865 C4880 0.930 . S
C4866 H4854 0.930 . S
C4866 C4867 1.399 . S
C4866 C4871 1.399 . S
C4867 C4866 1.399 . S
C4867 C4868 1.376 . S
C4868 H4855 0.930 . S
C4868 C4867 1.376 . S
C4868 C4869 1.388 . S
C4869 H4856 0.930 . S
C4869 C4868 1.388 . S
C4869 C4870 1.390 . S
C4870 C4869 1.390 . S
C4870 C4871 1.394 . S
C4870 C4876 1.465 . S
C4871 C4866 1.399 . S
C4871 C4870 1.394 . S
C4871 C4872 1.516 . S
C4872 C4871 1.516 . S
C4872 C4873 1.502 . S
C4872 C4874 1.561 . S
C4872 C4875 1.526 . S
C4873 H4857 0.959 . S
C4873 H4858 0.959 . S
C4873 H4859 0.961 . S
C4873 C4872 1.502 . S
C4874 H4860 0.960 . S
C4874 H4861 0.961 . S
C4874 H4862 0.959 . S
C4874 C4872 1.561 . S
C4875 C4872 1.526 . S
C4875 C4876 1.396 . S
C4875 C4880 1.390 . S
C4876 C4870 1.465 . S
C4876 C4875 1.396 . S
C4876 C4877 1.399 . S
C4877 H4863 0.929 . S
C4877 C4876 1.399 . S
C4877 C4878 1.385 . S
C4878 H4864 0.931 . S
C4878 C4877 1.385 . S
C4878 C4879 1.389 . S
C4879 C4878 1.389 . S
C4879 C4880 1.387 . S
C4880 H4865 0.930 . S
C4880 C4875 1.390 . S
C4880 C4879 1.387 . S
H4881 C4893 0.930 . S
H4882 C4895 0.930 . S
H4883 C4896 0.930 . S
H4884 C4900 0.959 . S
H4885 C4900 0.959 . S
H4886 C4900 0.961 . S
H4887 C4901 0.960 . S
H4888 C4901 0.961 . S
H4889 C4901 0.959 . S
H4890 C4904 0.929 . S
H4891 C4905 0.931 . S
H4892 C4907 0.930 . S
C4893 H4881 0.930 . S
C4893 C4894 1.399 . S
C4893 C4898 1.399 . S
C4894 C4893 1.399 . S
C4894 C4895 1.376 . S
C4895 H4882 0.930 . S
C4895 C4894 1.376 . S
C4895 C4896 1.388 . S
C4896 H4883 0.930 . S
C4896 C4895 1.388 . S
C4896 C4897 1.390 . S
C4897 C4896 1.390 . S
C4897 C4898 1.394 . S
C4897 C4903 1.465 . S
C4898 C4893 1.399 . S
C4898 C4897 1.394 . S
C4898 C4899 1.516 . S
C4899 C4898 1.516 . S
C4899 C4900 1.502 . S
C4899 C4901 1.561 . S
C4899 C4902 1.526 . S
C4900 H4884 0.959 . S
C4900 H4885 0.959 . S
C4900 H4886 0.961 . S
C4900 C4899 1.502 . S
C4901 H4887 0.960 . S
C4901 H4888 0.961 . S
C4901 H4889 0.959 . S
C4901 C4899 1.561 . S
C4902 C4899 1.526 . S
C4902 C4903 1.396 . S
C4902 C4907 1.390 . S
C4903 C4897 1.465 . S
C4903 C4902 1.396 . S
C4903 C4904 1.399 . S
C4904 H4890 0.929 . S
C4904 C4903 1.399 . S
C4904 C4905 1.385 . S
C4905 H4891 0.931 . S
C4905 C4904 1.385 . S
C4905 C4906 1.389 . S
C4906 C4905 1.389 . S
C4906 C4907 1.387 . S
C4907 H4892 0.930 . S
C4907 C4902 1.390 . S
C4907 C4906 1.387 . S
H4908 C4920 0.930 . S
H4909 C4922 0.930 . S
H4910 C4923 0.930 . S
H4911 C4927 0.959 . S
H4912 C4927 0.959 . S
H4913 C4927 0.961 . S
H4914 C4928 0.960 . S
H4915 C4928 0.961 . S
H4916 C4928 0.959 . S
H4917 C4931 0.929 . S
H4918 C4932 0.931 . S
H4919 C4934 0.930 . S
C4920 H4908 0.930 . S
C4920 C4921 1.399 . S
C4920 C4925 1.399 . S
C4921 C4920 1.399 . S
C4921 C4922 1.376 . S
C4922 H4909 0.930 . S
C4922 C4921 1.376 . S
C4922 C4923 1.388 . S
C4923 H4910 0.930 . S
C4923 C4922 1.388 . S
C4923 C4924 1.390 . S
C4924 C4923 1.390 . S
C4924 C4925 1.394 . S
C4924 C4930 1.465 . S
C4925 C4920 1.399 . S
C4925 C4924 1.394 . S
C4925 C4926 1.516 . S
C4926 C4925 1.516 . S
C4926 C4927 1.502 . S
C4926 C4928 1.561 . S
C4926 C4929 1.526 . S
C4927 H4911 0.959 . S
C4927 H4912 0.959 . S
C4927 H4913 0.961 . S
C4927 C4926 1.502 . S
C4928 H4914 0.960 . S
C4928 H4915 0.961 . S
C4928 H4916 0.959 . S
C4928 C4926 1.561 . S
C4929 C4926 1.526 . S
C4929 C4930 1.396 . S
C4929 C4934 1.390 . S
C4930 C4924 1.465 . S
C4930 C4929 1.396 . S
C4930 C4931 1.399 . S
C4931 H4917 0.929 . S
C4931 C4930 1.399 . S
C4931 C4932 1.385 . S
C4932 H4918 0.931 . S
C4932 C4931 1.385 . S
C4932 C4933 1.389 . S
C4933 C4932 1.389 . S
C4933 C4934 1.387 . S
C4934 H4919 0.930 . S
C4934 C4929 1.390 . S
C4934 C4933 1.387 . S
H4935 C4947 0.930 . S
H4936 C4949 0.930 . S
H4937 C4950 0.930 . S
H4938 C4954 0.959 . S
H4939 C4954 0.959 . S
H4940 C4954 0.961 . S
H4941 C4955 0.960 . S
H4942 C4955 0.961 . S
H4943 C4955 0.959 . S
H4944 C4958 0.929 . S
H4945 C4959 0.931 . S
H4946 C4961 0.930 . S
C4947 H4935 0.930 . S
C4947 C4948 1.399 . S
C4947 C4952 1.399 . S
C4948 C4947 1.399 . S
C4948 C4949 1.376 . S
C4949 H4936 0.930 . S
C4949 C4948 1.376 . S
C4949 C4950 1.388 . S
C4950 H4937 0.930 . S
C4950 C4949 1.388 . S
C4950 C4951 1.390 . S
C4951 C4950 1.390 . S
C4951 C4952 1.394 . S
C4951 C4957 1.465 . S
C4952 C4947 1.399 . S
C4952 C4951 1.394 . S
C4952 C4953 1.516 . S
C4953 C4952 1.516 . S
C4953 C4954 1.502 . S
C4953 C4955 1.561 . S
C4953 C4956 1.526 . S
C4954 H4938 0.959 . S
C4954 H4939 0.959 . S
C4954 H4940 0.961 . S
C4954 C4953 1.502 . S
C4955 H4941 0.960 . S
C4955 H4942 0.961 . S
C4955 H4943 0.959 . S
C4955 C4953 1.561 . S
C4956 C4953 1.526 . S
C4956 C4957 1.396 . S
C4956 C4961 1.390 . S
C4957 C4951 1.465 . S
C4957 C4956 1.396 . S
C4957 C4958 1.399 . S
C4958 H4944 0.929 . S
C4958 C4957 1.399 . S
C4958 C4959 1.385 . S
C4959 H4945 0.931 . S
C4959 C4958 1.385 . S
C4959 C4960 1.389 . S
C4960 C4959 1.389 . S
C4960 C4961 1.387 . S
C4961 H4946 0.930 . S
C4961 C4956 1.390 . S
C4961 C4960 1.387 . S
H4962 C4974 0.930 . S
H4963 C4976 0.930 . S
H4964 C4977 0.930 . S
H4965 C4981 0.959 . S
H4966 C4981 0.959 . S
H4967 C4981 0.961 . S
H4968 C4982 0.960 . S
H4969 C4982 0.961 . S
H4970 C4982 0.959 . S
H4971 C4985 0.929 . S
H4972 C4986 0.931 . S
H4973 C4988 0.930 . S
C4974 H4962 0.930 . S
C4974 C4975 1.399 . S
C4974 C4979 1.399 . S
C4975 C4974 1.399 . S
C4975 C4976 1.376 . S
C4976 H4963 0.930 . S
C4976 C4975 1.376 . S
C4976 C4977 1.388 . S
C4977 H4964 0.930 . S
C4977 C4976 1.388 . S
C4977 C4978 1.390 . S
C4978 C4977 1.390 . S
C4978 C4979 1.394 . S
C4978 C4984 1.465 . S
C4979 C4974 1.399 . S
C4979 C4978 1.394 . S
C4979 C4980 1.516 . S
C4980 C4979 1.516 . S
C4980 C4981 1.502 . S
C4980 C4982 1.561 . S
C4980 C4983 1.526 . S
C4981 H4965 0.959 . S
C4981 H4966 0.959 . S
C4981 H4967 0.961 . S
C4981 C4980 1.502 . S
C4982 H4968 0.960 . S
C4982 H4969 0.961 . S
C4982 H4970 0.959 . S
C4982 C4980 1.561 . S
C4983 C4980 1.526 . S
C4983 C4984 1.396 . S
C4983 C4988 1.390 . S
C4984 C4978 1.465 . S
C4984 C4983 1.396 . S
C4984 C4985 1.399 . S
C4985 H4971 0.929 . S
C4985 C4984 1.399 . S
C4985 C4986 1.385 . S
C4986 H4972 0.931 . S
C4986 C4985 1.385 . S
C4986 C4987 1.389 . S
C4987 C4986 1.389 . S
C4987 C4988 1.387 . S
C4988 H4973 0.930 . S
C4988 C4983 1.390 . S
C4988 C4987 1.387 . S
H4989 C5001 0.930 . S
H4990 C5003 0.930 . S
H4991 C5004 0.930 . S
H4992 C5008 0.959 . S
H4993 C5008 0.959 . S
H4994 C5008 0.961 . S
H4995 C5009 0.960 . S
H4996 C5009 0.961 . S
H4997 C5009 0.959 . S
H4998 C5012 0.929 . S
H4999 C5013 0.931 . S
H5000 C5015 0.930 . S
C5001 H4989 0.930 . S
C5001 C5002 1.399 . S
C5001 C5006 1.399 . S
C5002 C5001 1.399 . S
C5002 C5003 1.376 . S
C5003 H4990 0.930 . S
C5003 C5002 1.376 . S
C5003 C5004 1.388 . S
C5004 H4991 0.930 . S
C5004 C5003 1.388 . S
C5004 C5005 1.390 . S
C5005 C5004 1.390 . S
C5005 C5006 1.394 . S
C5005 C5011 1.465 . S
C5006 C5001 1.399 . S
C5006 C5005 1.394 . S
C5006 C5007 1.516 . S
C5007 C5006 1.516 . S
C5007 C5008 1.502 . S
C5007 C5009 1.561 . S
C5007 C5010 1.526 . S
C5008 H4992 0.959 . S
C5008 H4993 0.959 . S
C5008 H4994 0.961 . S
C5008 C5007 1.502 . S
C5009 H4995 0.960 . S
C5009 H4996 0.961 . S
C5009 H4997 0.959 . S
C5009 C5007 1.561 . S
C5010 C5007 1.526 . S
C5010 C5011 1.396 . S
C5010 C5015 1.390 . S
C5011 C5005 1.465 . S
C5011 C5010 1.396 . S
C5011 C5012 1.399 . S
C5012 H4998 0.929 . S
C5012 C5011 1.399 . S
C5012 C5013 1.385 . S
C5013 H4999 0.931 . S
C5013 C5012 1.385 . S
C5013 C5014 1.389 . S
C5014 C5013 1.389 . S
C5014 C5015 1.387 . S
C5015 H5000 0.930 . S
C5015 C5010 1.390 . S
C5015 C5014 1.387 . S
H5016 C5028 0.930 . S
H5017 C5030 0.930 . S
H5018 C5031 0.930 . S
H5019 C5035 0.959 . S
H5020 C5035 0.959 . S
H5021 C5035 0.961 . S
H5022 C5036 0.960 . S
H5023 C5036 0.961 . S
H5024 C5036 0.959 . S
H5025 C5039 0.929 . S
H5026 C5040 0.931 . S
H5027 C5042 0.930 . S
C5028 H5016 0.930 . S
C5028 C5029 1.399 . S
C5028 C5033 1.399 . S
C5029 C5028 1.399 . S
C5029 C5030 1.376 . S
C5030 H5017 0.930 . S
C5030 C5029 1.376 . S
C5030 C5031 1.388 . S
C5031 H5018 0.930 . S
C5031 C5030 1.388 . S
C5031 C5032 1.390 . S
C5032 C5031 1.390 . S
C5032 C5033 1.394 . S
C5032 C5038 1.465 . S
C5033 C5028 1.399 . S
C5033 C5032 1.394 . S
C5033 C5034 1.516 . S
C5034 C5033 1.516 . S
C5034 C5035 1.502 . S
C5034 C5036 1.561 . S
C5034 C5037 1.526 . S
C5035 H5019 0.959 . S
C5035 H5020 0.959 . S
C5035 H5021 0.961 . S
C5035 C5034 1.502 . S
C5036 H5022 0.960 . S
C5036 H5023 0.961 . S
C5036 H5024 0.959 . S
C5036 C5034 1.561 . S
C5037 C5034 1.526 . S
C5037 C5038 1.396 . S
C5037 C5042 1.390 . S
C5038 C5032 1.465 . S
C5038 C5037 1.396 . S
C5038 C5039 1.399 . S
C5039 H5025 0.929 . S
C5039 C5038 1.399 . S
C5039 C5040 1.385 . S
C5040 H5026 0.931 . S
C5040 C5039 1.385 . S
C5040 C5041 1.389 . S
C5041 C5040 1.389 . S
C5041 C5042 1.387 . S
C5042 H5027 0.930 . S
C5042 C5037 1.390 . S
C5042 C5041 1.387 . S
H5043 C5055 0.930 . S
H5044 C5057 0.930 . S
H5045 C5058 0.930 . S
H5046 C5062 0.959 . S
H5047 C5062 0.959 . S
H5048 C5062 0.961 . S
H5049 C5063 0.960 . S
H5050 C5063 0.961 . S
H5051 C5063 0.959 . S
H5052 C5066 0.929 . S
H5053 C5067 0.931 . S
H5054 C5069 0.930 . S
C5055 H5043 0.930 . S
C5055 C5056 1.399 . S
C5055 C5060 1.399 . S
C5056 C5055 1.399 . S
C5056 C5057 1.376 . S
C5057 H5044 0.930 . S
C5057 C5056 1.376 . S
C5057 C5058 1.388 . S
C5058 H5045 0.930 . S
C5058 C5057 1.388 . S
C5058 C5059 1.390 . S
C5059 C5058 1.390 . S
C5059 C5060 1.394 . S
C5059 C5065 1.465 . S
C5060 C5055 1.399 . S
C5060 C5059 1.394 . S
C5060 C5061 1.516 . S
C5061 C5060 1.516 . S
C5061 C5062 1.502 . S
C5061 C5063 1.561 . S
C5061 C5064 1.526 . S
C5062 H5046 0.959 . S
C5062 H5047 0.959 . S
C5062 H5048 0.961 . S
C5062 C5061 1.502 . S
C5063 H5049 0.960 . S
C5063 H5050 0.961 . S
C5063 H5051 0.959 . S
C5063 C5061 1.561 . S
C5064 C5061 1.526 . S
C5064 C5065 1.396 . S
C5064 C5069 1.390 . S
C5065 C5059 1.465 . S
C5065 C5064 1.396 . S
C5065 C5066 1.399 . S
C5066 H5052 0.929 . S
C5066 C5065 1.399 . S
C5066 C5067 1.385 . S
C5067 H5053 0.931 . S
C5067 C5066 1.385 . S
C5067 C5068 1.389 . S
C5068 C5067 1.389 . S
C5068 C5069 1.387 . S
C5069 H5054 0.930 . S
C5069 C5064 1.390 . S
C5069 C5068 1.387 . S
H5070 C5082 0.930 . S
H5071 C5084 0.930 . S
H5072 C5085 0.930 . S
H5073 C5089 0.959 . S
H5074 C5089 0.959 . S
H5075 C5089 0.961 . S
H5076 C5090 0.960 . S
H5077 C5090 0.961 . S
H5078 C5090 0.959 . S
H5079 C5093 0.929 . S
H5080 C5094 0.931 . S
H5081 C5096 0.930 . S
C5082 H5070 0.930 . S
C5082 C5083 1.399 . S
C5082 C5087 1.399 . S
C5083 C5082 1.399 . S
C5083 C5084 1.376 . S
C5084 H5071 0.930 . S
C5084 C5083 1.376 . S
C5084 C5085 1.388 . S
C5085 H5072 0.930 . S
C5085 C5084 1.388 . S
C5085 C5086 1.390 . S
C5086 C5085 1.390 . S
C5086 C5087 1.394 . S
C5086 C5092 1.465 . S
C5087 C5082 1.399 . S
C5087 C5086 1.394 . S
C5087 C5088 1.516 . S
C5088 C5087 1.516 . S
C5088 C5089 1.502 . S
C5088 C5090 1.561 . S
C5088 C5091 1.526 . S
C5089 H5073 0.959 . S
C5089 H5074 0.959 . S
C5089 H5075 0.961 . S
C5089 C5088 1.502 . S
C5090 H5076 0.960 . S
C5090 H5077 0.961 . S
C5090 H5078 0.959 . S
C5090 C5088 1.561 . S
C5091 C5088 1.526 . S
C5091 C5092 1.396 . S
C5091 C5096 1.390 . S
C5092 C5086 1.465 . S
C5092 C5091 1.396 . S
C5092 C5093 1.399 . S
C5093 H5079 0.929 . S
C5093 C5092 1.399 . S
C5093 C5094 1.385 . S
C5094 H5080 0.931 . S
C5094 C5093 1.385 . S
C5094 C5095 1.389 . S
C5095 C5094 1.389 . S
C5095 C5096 1.387 . S
C5096 H5081 0.930 . S
C5096 C5091 1.390 . S
C5096 C5095 1.387 . S
H5097 C5109 0.930 . S
H5098 C5111 0.930 . S
H5099 C5112 0.930 . S
H5100 C5116 0.959 . S
H5101 C5116 0.959 . S
H5102 C5116 0.961 . S
H5103 C5117 0.960 . S
H5104 C5117 0.961 . S
H5105 C5117 0.959 . S
H5106 C5120 0.929 . S
H5107 C5121 0.931 . S
H5108 C5123 0.930 . S
C5109 H5097 0.930 . S
C5109 C5110 1.399 . S
C5109 C5114 1.399 . S
C5110 C5109 1.399 . S
C5110 C5111 1.376 . S
C5111 H5098 0.930 . S
C5111 C5110 1.376 . S
C5111 C5112 1.388 . S
C5112 H5099 0.930 . S
C5112 C5111 1.388 . S
C5112 C5113 1.390 . S
C5113 C5112 1.390 . S
C5113 C5114 1.394 . S
C5113 C5119 1.465 . S
C5114 C5109 1.399 . S
C5114 C5113 1.394 . S
C5114 C5115 1.516 . S
C5115 C5114 1.516 . S
C5115 C5116 1.502 . S
C5115 C5117 1.561 . S
C5115 C5118 1.526 . S
C5116 H5100 0.959 . S
C5116 H5101 0.959 . S
C5116 H5102 0.961 . S
C5116 C5115 1.502 . S
C5117 H5103 0.960 . S
C5117 H5104 0.961 . S
C5117 H5105 0.959 . S
C5117 C5115 1.561 . S
C5118 C5115 1.526 . S
C5118 C5119 1.396 . S
C5118 C5123 1.390 . S
C5119 C5113 1.465 . S
C5119 C5118 1.396 . S
C5119 C5120 1.399 . S
C5120 H5106 0.929 . S
C5120 C5119 1.399 . S
C5120 C5121 1.385 . S
C5121 H5107 0.931 . S
C5121 C5120 1.385 . S
C5121 C5122 1.389 . S
C5122 C5121 1.389 . S
C5122 C5123 1.387 . S
C5123 H5108 0.930 . S
C5123 C5118 1.390 . S
C5123 C5122 1.387 . S
H5124 C5136 0.930 . S
H5125 C5138 0.930 . S
H5126 C5139 0.930 . S
H5127 C5143 0.959 . S
H5128 C5143 0.959 . S
H5129 C5143 0.961 . S
H5130 C5144 0.960 . S
H5131 C5144 0.961 . S
H5132 C5144 0.959 . S
H5133 C5147 0.929 . S
H5134 C5148 0.931 . S
H5135 C5150 0.930 . S
C5136 H5124 0.930 . S
C5136 C5137 1.399 . S
C5136 C5141 1.399 . S
C5137 C5136 1.399 . S
C5137 C5138 1.376 . S
C5138 H5125 0.930 . S
C5138 C5137 1.376 . S
C5138 C5139 1.388 . S
C5139 H5126 0.930 . S
C5139 C5138 1.388 . S
C5139 C5140 1.390 . S
C5140 C5139 1.390 . S
C5140 C5141 1.394 . S
C5140 C5146 1.465 . S
C5141 C5136 1.399 . S
C5141 C5140 1.394 . S
C5141 C5142 1.516 . S
C5142 C5141 1.516 . S
C5142 C5143 1.502 . S
C5142 C5144 1.561 . S
C5142 C5145 1.526 . S
C5143 H5127 0.959 . S
C5143 H5128 0.959 . S
C5143 H5129 0.961 . S
C5143 C5142 1.502 . S
C5144 H5130 0.960 . S
C5144 H5131 0.961 . S
C5144 H5132 0.959 . S
C5144 C5142 1.561 . S
C5145 C5142 1.526 . S
C5145 C5146 1.396 . S
C5145 C5150 1.390 . S
C5146 C5140 1.465 . S
C5146 C5145 1.396 . S
C5146 C5147 1.399 . S
C5147 H5133 0.929 . S
C5147 C5146 1.399 . S
C5147 C5148 1.385 . S
C5148 H5134 0.931 . S
C5148 C5147 1.385 . S
C5148 C5149 1.389 . S
C5149 C5148 1.389 . S
C5149 C5150 1.387 . S
C5150 H5135 0.930 . S
C5150 C5145 1.390 . S
C5150 C5149 1.387 . S
H5151 C5163 0.930 . S
H5152 C5165 0.930 . S
H5153 C5166 0.930 . S
H5154 C5170 0.959 . S
H5155 C5170 0.959 . S
H5156 C5170 0.961 . S
H5157 C5171 0.960 . S
H5158 C5171 0.961 . S
H5159 C5171 0.959 . S
H5160 C5174 0.929 . S
H5161 C5175 0.931 . S
H5162 C5177 0.930 . S
C5163 H5151 0.930 . S
C5163 C5164 1.399 . S
C5163 C5168 1.399 . S
C5164 C5163 1.399 . S
C5164 C5165 1.376 . S
C5165 H5152 0.930 . S
C5165 C5164 1.376 . S
C5165 C5166 1.388 . S
C5166 H5153 0.930 . S
C5166 C5165 1.388 . S
C5166 C5167 1.390 . S
C5167 C5166 1.390 . S
C5167 C5168 1.394 . S
C5167 C5173 1.465 . S
C5168 C5163 1.399 . S
C5168 C5167 1.394 . S
C5168 C5169 1.516 . S
C5169 C5168 1.516 . S
C5169 C5170 1.502 . S
C5169 C5171 1.561 . S
C5169 C5172 1.526 . S
C5170 H5154 0.959 . S
C5170 H5155 0.959 . S
C5170 H5156 0.961 . S
C5170 C5169 1.502 . S
C5171 H5157 0.960 . S
C5171 H5158 0.961 . S
C5171 H5159 0.959 . S
C5171 C5169 1.561 . S
C5172 C5169 1.526 . S
C5172 C5173 1.396 . S
C5172 C5177 1.390 . S
C5173 C5167 1.465 . S
C5173 C5172 1.396 . S
C5173 C5174 1.399 . S
C5174 H5160 0.929 . S
C5174 C5173 1.399 . S
C5174 C5175 1.385 . S
C5175 H5161 0.931 . S
C5175 C5174 1.385 . S
C5175 C5176 1.389 . S
C5176 C5175 1.389 . S
C5176 C5177 1.387 . S
C5177 H5162 0.930 . S
C5177 C5172 1.390 . S
C5177 C5176 1.387 . S
H5178 C5190 0.930 . S
H5179 C5192 0.930 . S
H5180 C5193 0.930 . S
H5181 C5197 0.959 . S
H5182 C5197 0.959 . S
H5183 C5197 0.961 . S
H5184 C5198 0.960 . S
H5185 C5198 0.961 . S
H5186 C5198 0.959 . S
H5187 C5201 0.929 . S
H5188 C5202 0.931 . S
H5189 C5204 0.930 . S
C5190 H5178 0.930 . S
C5190 C5191 1.399 . S
C5190 C5195 1.399 . S
C5191 C5190 1.399 . S
C5191 C5192 1.376 . S
C5192 H5179 0.930 . S
C5192 C5191 1.376 . S
C5192 C5193 1.388 . S
C5193 H5180 0.930 . S
C5193 C5192 1.388 . S
C5193 C5194 1.390 . S
C5194 C5193 1.390 . S
C5194 C5195 1.394 . S
C5194 C5200 1.465 . S
C5195 C5190 1.399 . S
C5195 C5194 1.394 . S
C5195 C5196 1.516 . S
C5196 C5195 1.516 . S
C5196 C5197 1.502 . S
C5196 C5198 1.561 . S
C5196 C5199 1.526 . S
C5197 H5181 0.959 . S
C5197 H5182 0.959 . S
C5197 H5183 0.961 . S
C5197 C5196 1.502 . S
C5198 H5184 0.960 . S
C5198 H5185 0.961 . S
C5198 H5186 0.959 . S
C5198 C5196 1.561 . S
C5199 C5196 1.526 . S
C5199 C5200 1.396 . S
C5199 C5204 1.390 . S
C5200 C5194 1.465 . S
C5200 C5199 1.396 . S
C5200 C5201 1.399 . S
C5201 H5187 0.929 . S
C5201 C5200 1.399 . S
C5201 C5202 1.385 . S
C5202 H5188 0.931 . S
C5202 C5201 1.385 . S
C5202 C5203 1.389 . S
C5203 C5202 1.389 . S
C5203 C5204 1.387 . S
C5204 H5189 0.930 . S
C5204 C5199 1.390 . S
C5204 C5203 1.387 . S
H5205 C5217 0.930 . S
H5206 C5219 0.930 . S
H5207 C5220 0.930 . S
H5208 C5224 0.959 . S
H5209 C5224 0.959 . S
H5210 C5224 0.961 . S
H5211 C5225 0.960 . S
H5212 C5225 0.961 . S
H5213 C5225 0.959 . S
H5214 C5228 0.929 . S
H5215 C5229 0.931 . S
H5216 C5231 0.930 . S
C5217 H5205 0.930 . S
C5217 C5218 1.399 . S
C5217 C5222 1.399 . S
C5218 C5217 1.399 . S
C5218 C5219 1.376 . S
C5219 H5206 0.930 . S
C5219 C5218 1.376 . S
C5219 C5220 1.388 . S
C5220 H5207 0.930 . S
C5220 C5219 1.388 . S
C5220 C5221 1.390 . S
C5221 C5220 1.390 . S
C5221 C5222 1.394 . S
C5221 C5227 1.465 . S
C5222 C5217 1.399 . S
C5222 C5221 1.394 . S
C5222 C5223 1.516 . S
C5223 C5222 1.516 . S
C5223 C5224 1.502 . S
C5223 C5225 1.561 . S
C5223 C5226 1.526 . S
C5224 H5208 0.959 . S
C5224 H5209 0.959 . S
C5224 H5210 0.961 . S
C5224 C5223 1.502 . S
C5225 H5211 0.960 . S
C5225 H5212 0.961 . S
C5225 H5213 0.959 . S
C5225 C5223 1.561 . S
C5226 C5223 1.526 . S
C5226 C5227 1.396 . S
C5226 C5231 1.390 . S
C5227 C5221 1.465 . S
C5227 C5226 1.396 . S
C5227 C5228 1.399 . S
C5228 H5214 0.929 . S
C5228 C5227 1.399 . S
C5228 C5229 1.385 . S
C5229 H5215 0.931 . S
C5229 C5228 1.385 . S
C5229 C5230 1.389 . S
C5230 C5229 1.389 . S
C5230 C5231 1.387 . S
C5231 H5216 0.930 . S
C5231 C5226 1.390 . S
C5231 C5230 1.387 . S
H5232 C5244 0.930 . S
H5233 C5246 0.930 . S
H5234 C5247 0.930 . S
H5235 C5251 0.959 . S
H5236 C5251 0.959 . S
H5237 C5251 0.961 1_655 S
H5238 C5252 1.017 . S
H5239 C5252 0.911 1_455 S
H5240 C5252 0.958 . S
H5241 C5255 0.929 . S
H5242 C5256 0.931 . S
H5243 C5258 0.930 . S
C5244 H5232 0.930 . S
C5244 C5245 1.399 . S
C5244 C5249 1.399 . S
C5245 C5244 1.399 . S
C5245 C5246 1.376 . S
C5246 H5233 0.930 . S
C5246 C5245 1.376 . S
C5246 C5247 1.388 . S
C5247 H5234 0.930 . S
C5247 C5246 1.388 . S
C5247 C5248 1.390 . S
C5248 C5247 1.390 . S
C5248 C5249 1.394 . S
C5248 C5254 1.465 1_655 S
C5249 C5244 1.399 . S
C5249 C5248 1.394 . S
C5249 C5250 1.520 1_655 S
C5250 C5249 1.520 1_455 S
C5250 C5251 1.501 . S
C5250 C5252 1.559 1_455 S
C5250 C5253 1.522 . S
C5251 H5235 0.959 . S
C5251 H5236 0.959 . S
C5251 H5237 0.961 1_455 S
C5251 C5250 1.501 . S
C5252 H5238 1.017 . S
C5252 H5239 0.911 1_655 S
C5252 H5240 0.958 . S
C5252 C5250 1.559 1_655 S
C5253 C5250 1.522 . S
C5253 C5254 1.396 . S
C5253 C5258 1.390 . S
C5254 C5248 1.465 1_455 S
C5254 C5253 1.396 . S
C5254 C5255 1.399 . S
C5255 H5241 0.929 . S
C5255 C5254 1.399 . S
C5255 C5256 1.385 . S
C5256 H5242 0.931 . S
C5256 C5255 1.385 . S
C5256 C5257 1.389 . S
C5257 C5256 1.389 . S
C5257 C5258 1.387 . S
C5258 H5243 0.930 . S
C5258 C5253 1.390 . S
C5258 C5257 1.387 . S
H5259 C5271 0.930 . S
H5260 C5273 0.930 . S
H5261 C5274 0.930 . S
H5262 C5278 0.959 . S
H5263 C5278 1.000 . S
H5264 C5278 0.919 1_545 S
H5265 C5279 0.960 1_545 S
H5266 C5279 0.961 . S
H5267 C5279 0.959 . S
H5268 C5282 0.929 . S
H5269 C5283 0.931 . S
H5270 C5285 0.930 . S
C5271 H5259 0.930 . S
C5271 C5272 1.399 . S
C5271 C5276 1.399 . S
C5272 C5271 1.399 . S
C5272 C5273 1.376 . S
C5273 H5260 0.930 . S
C5273 C5272 1.376 . S
C5273 C5274 1.388 . S
C5274 H5261 0.930 . S
C5274 C5273 1.388 . S
C5274 C5275 1.390 . S
C5275 C5274 1.390 . S
C5275 C5276 1.394 . S
C5275 C5281 1.465 1_545 S
C5276 C5271 1.399 . S
C5276 C5275 1.394 . S
C5276 C5277 1.474 1_545 S
C5277 C5276 1.474 1_565 S
C5277 C5278 1.502 . S
C5277 C5279 1.566 . S
C5277 C5280 1.566 . S
C5278 H5262 0.959 . S
C5278 H5263 1.000 . S
C5278 H5264 0.919 1_565 S
C5278 C5277 1.502 . S
C5279 H5265 0.960 1_565 S
C5279 H5266 0.961 . S
C5279 H5267 0.959 . S
C5279 C5277 1.566 . S
C5280 C5277 1.566 . S
C5280 C5281 1.396 . S
C5280 C5285 1.390 . S
C5281 C5275 1.465 1_565 S
C5281 C5280 1.396 . S
C5281 C5282 1.399 . S
C5282 H5268 0.929 . S
C5282 C5281 1.399 . S
C5282 C5283 1.385 . S
C5283 H5269 0.931 . S
C5283 C5282 1.385 . S
C5283 C5284 1.389 . S
C5284 C5283 1.389 . S
C5284 C5285 1.387 . S
C5285 H5270 0.930 . S
C5285 C5280 1.390 . S
C5285 C5284 1.387 . S
H5286 C5298 0.930 . S
H5287 C5300 0.930 . S
H5288 C5301 0.930 . S
H5289 C5305 0.967 . S
H5290 C5305 0.993 . S
H5291 C5305 0.924 1_455 S
H5292 C5306 0.960 . S
H5293 C5306 0.961 1_655 S
H5294 C5306 0.964 . S
H5295 C5309 0.929 . S
H5296 C5310 0.931 . S
H5297 C5312 0.930 . S
C5298 H5286 0.930 . S
C5298 C5299 1.399 . S
C5298 C5303 1.399 . S
C5299 C5298 1.399 . S
C5299 C5300 1.376 . S
C5300 H5287 0.930 . S
C5300 C5299 1.376 . S
C5300 C5301 1.388 . S
C5301 H5288 0.930 . S
C5301 C5300 1.388 . S
C5301 C5302 1.390 . S
C5302 C5301 1.390 . S
C5302 C5303 1.394 . S
C5302 C5308 1.465 1_455 S
C5303 C5298 1.399 . S
C5303 C5302 1.394 . S
C5303 C5304 1.530 . S
C5304 C5303 1.530 . S
C5304 C5305 1.500 1_455 S
C5304 C5306 1.562 . S
C5304 C5307 1.512 1_455 S
C5305 H5289 0.967 . S
C5305 H5290 0.993 . S
C5305 H5291 0.924 1_655 S
C5305 C5304 1.500 1_655 S
C5306 H5292 0.960 . S
C5306 H5293 0.961 1_455 S
C5306 H5294 0.964 . S
C5306 C5304 1.562 . S
C5307 C5304 1.512 1_655 S
C5307 C5308 1.396 . S
C5307 C5312 1.390 . S
C5308 C5302 1.465 1_655 S
C5308 C5307 1.396 . S
C5308 C5309 1.399 . S
C5309 H5295 0.929 . S
C5309 C5308 1.399 . S
C5309 C5310 1.385 . S
C5310 H5296 0.931 . S
C5310 C5309 1.385 . S
C5310 C5311 1.389 . S
C5311 C5310 1.389 . S
C5311 C5312 1.387 . S
C5312 H5297 0.930 . S
C5312 C5307 1.390 . S
C5312 C5311 1.387 . S
H5313 C5325 0.930 . S
H5314 C5327 0.930 . S
H5315 C5328 0.930 . S
H5316 C5332 0.960 1_545 S
H5317 C5332 0.961 1_545 S
H5318 C5332 0.958 . S
H5319 C5333 0.960 . S
H5320 C5333 0.961 1_545 S
H5321 C5333 0.967 . S
H5322 C5336 0.929 . S
H5323 C5337 0.931 . S
H5324 C5339 0.930 . S
C5325 H5313 0.930 . S
C5325 C5326 1.399 . S
C5325 C5330 1.399 . S
C5326 C5325 1.399 . S
C5326 C5327 1.376 . S
C5327 H5314 0.930 . S
C5327 C5326 1.376 . S
C5327 C5328 1.388 . S
C5328 H5315 0.930 . S
C5328 C5327 1.388 . S
C5328 C5329 1.390 . S
C5329 C5328 1.390 . S
C5329 C5330 1.394 . S
C5329 C5335 1.465 1_565 S
C5330 C5325 1.399 . S
C5330 C5329 1.394 . S
C5330 C5331 1.552 . S
C5331 C5330 1.552 . S
C5331 C5332 1.501 . S
C5331 C5333 1.565 . S
C5331 C5334 1.488 1_565 S
C5332 H5316 0.960 1_565 S
C5332 H5317 0.961 1_565 S
C5332 H5318 0.958 . S
C5332 C5331 1.501 . S
C5333 H5319 0.960 . S
C5333 H5320 0.961 1_565 S
C5333 H5321 0.967 . S
C5333 C5331 1.565 . S
C5334 C5331 1.488 1_545 S
C5334 C5335 1.396 . S
C5334 C5339 1.390 . S
C5335 C5329 1.465 1_545 S
C5335 C5334 1.396 . S
C5335 C5336 1.399 . S
C5336 H5322 0.929 . S
C5336 C5335 1.399 . S
C5336 C5337 1.385 . S
C5337 H5323 0.931 . S
C5337 C5336 1.385 . S
C5337 C5338 1.389 . S
C5338 C5337 1.389 . S
C5338 C5339 1.387 . S
C5339 H5324 0.930 . S
C5339 C5334 1.390 . S
C5339 C5338 1.387 . S
H5340 C5352 0.930 . S
H5341 C5354 0.930 . S
H5342 C5355 0.930 . S
H5343 C5359 0.959 . S
H5344 C5359 0.959 . S
H5345 C5359 0.961 1_655 S
H5346 C5360 0.997 . S
H5347 C5360 0.928 1_455 S
H5348 C5360 0.958 . S
H5349 C5363 0.929 . S
H5350 C5364 0.931 . S
H5351 C5366 0.930 . S
C5352 H5340 0.930 . S
C5352 C5353 1.399 . S
C5352 C5357 1.399 . S
C5353 C5352 1.399 . S
C5353 C5354 1.376 . S
C5354 H5341 0.930 . S
C5354 C5353 1.376 . S
C5354 C5355 1.388 . S
C5355 H5342 0.930 . S
C5355 C5354 1.388 . S
C5355 C5356 1.390 . S
C5356 C5355 1.390 . S
C5356 C5357 1.394 . S
C5356 C5362 1.465 1_655 S
C5357 C5352 1.399 . S
C5357 C5356 1.394 . S
C5357 C5358 1.509 1_655 S
C5358 C5357 1.509 1_455 S
C5358 C5359 1.502 . S
C5358 C5360 1.560 1_455 S
C5358 C5361 1.533 . S
C5359 H5343 0.959 . S
C5359 H5344 0.959 . S
C5359 H5345 0.961 1_455 S
C5359 C5358 1.502 . S
C5360 H5346 0.997 . S
C5360 H5347 0.928 1_655 S
C5360 H5348 0.958 . S
C5360 C5358 1.560 1_655 S
C5361 C5358 1.533 . S
C5361 C5362 1.396 . S
C5361 C5366 1.390 . S
C5362 C5356 1.465 1_455 S
C5362 C5361 1.396 . S
C5362 C5363 1.399 . S
C5363 H5349 0.929 . S
C5363 C5362 1.399 . S
C5363 C5364 1.385 . S
C5364 H5350 0.931 . S
C5364 C5363 1.385 . S
C5364 C5365 1.389 . S
C5365 C5364 1.389 . S
C5365 C5366 1.387 . S
C5366 H5351 0.930 . S
C5366 C5361 1.390 . S
C5366 C5365 1.387 . S
H5367 C5379 0.930 . S
H5368 C5381 0.930 . S
H5369 C5382 0.930 . S
H5370 C5386 0.962 . S
H5371 C5386 0.959 1_545 S
H5372 C5386 0.961 . S
H5373 C5387 0.960 . S
H5374 C5387 0.961 1_545 S
H5375 C5387 0.959 . S
H5376 C5390 0.929 . S
H5377 C5391 0.931 . S
H5378 C5393 0.930 . S
C5379 H5367 0.930 . S
C5379 C5380 1.399 . S
C5379 C5384 1.399 . S
C5380 C5379 1.399 . S
C5380 C5381 1.376 . S
C5381 H5368 0.930 . S
C5381 C5380 1.376 . S
C5381 C5382 1.388 . S
C5382 H5369 0.930 . S
C5382 C5381 1.388 . S
C5382 C5383 1.390 . S
C5383 C5382 1.390 . S
C5383 C5384 1.394 . S
C5383 C5389 1.465 1_565 S
C5384 C5379 1.399 . S
C5384 C5383 1.394 . S
C5384 C5385 1.516 . S
C5385 C5384 1.516 . S
C5385 C5386 1.502 . S
C5385 C5387 1.561 . S
C5385 C5388 1.526 1_565 S
C5386 H5370 0.962 . S
C5386 H5371 0.959 1_565 S
C5386 H5372 0.961 . S
C5386 C5385 1.502 . S
C5387 H5373 0.960 . S
C5387 H5374 0.961 1_565 S
C5387 H5375 0.959 . S
C5387 C5385 1.561 . S
C5388 C5385 1.526 1_545 S
C5388 C5389 1.396 . S
C5388 C5393 1.390 . S
C5389 C5383 1.465 1_545 S
C5389 C5388 1.396 . S
C5389 C5390 1.399 . S
C5390 H5376 0.929 . S
C5390 C5389 1.399 . S
C5390 C5391 1.385 . S
C5391 H5377 0.931 . S
C5391 C5390 1.385 . S
C5391 C5392 1.389 . S
C5392 C5391 1.389 . S
C5392 C5393 1.387 . S
C5393 H5378 0.930 . S
C5393 C5388 1.390 . S
C5393 C5392 1.387 . S
H5394 C5406 0.930 . S
H5395 C5408 0.930 . S
H5396 C5409 0.930 . S
H5397 C5413 0.959 . S
H5398 C5413 0.959 . S
H5399 C5413 0.961 1_655 S
H5400 C5414 0.960 1_655 S
H5401 C5414 0.961 . S
H5402 C5414 0.959 . S
H5403 C5417 0.929 . S
H5404 C5418 0.931 . S
H5405 C5420 0.930 . S
C5406 H5394 0.930 . S
C5406 C5407 1.399 . S
C5406 C5411 1.399 . S
C5407 C5406 1.399 . S
C5407 C5408 1.376 . S
C5408 H5395 0.930 . S
C5408 C5407 1.376 . S
C5408 C5409 1.388 . S
C5409 H5396 0.930 . S
C5409 C5408 1.388 . S
C5409 C5410 1.390 . S
C5410 C5409 1.390 . S
C5410 C5411 1.394 . S
C5410 C5416 1.465 1_655 S
C5411 C5406 1.399 . S
C5411 C5410 1.394 . S
C5411 C5412 1.516 1_655 S
C5412 C5411 1.516 1_455 S
C5412 C5413 1.502 . S
C5412 C5414 1.561 . S
C5412 C5415 1.526 . S
C5413 H5397 0.959 . S
C5413 H5398 0.959 . S
C5413 H5399 0.961 1_455 S
C5413 C5412 1.502 . S
C5414 H5400 0.960 1_455 S
C5414 H5401 0.961 . S
C5414 H5402 0.959 . S
C5414 C5412 1.561 . S
C5415 C5412 1.526 . S
C5415 C5416 1.396 . S
C5415 C5420 1.390 . S
C5416 C5410 1.465 1_455 S
C5416 C5415 1.396 . S
C5416 C5417 1.399 . S
C5417 H5403 0.929 . S
C5417 C5416 1.399 . S
C5417 C5418 1.385 . S
C5418 H5404 0.931 . S
C5418 C5417 1.385 . S
C5418 C5419 1.389 . S
C5419 C5418 1.389 . S
C5419 C5420 1.387 . S
C5420 H5405 0.930 . S
C5420 C5415 1.390 . S
C5420 C5419 1.387 . S
H5421 C5433 0.930 . S
H5422 C5435 0.930 . S
H5423 C5436 0.930 . S
H5424 C5440 0.959 . S
H5425 C5440 0.945 1_545 S
H5426 C5440 0.976 . S
H5427 C5441 0.960 1_565 S
H5428 C5441 0.961 . S
H5429 C5441 0.959 . S
H5430 C5444 0.929 . S
H5431 C5445 0.931 . S
H5432 C5447 0.930 . S
C5433 H5421 0.930 . S
C5433 C5434 1.399 . S
C5433 C5438 1.399 . S
C5434 C5433 1.399 . S
C5434 C5435 1.376 . S
C5435 H5422 0.930 . S
C5435 C5434 1.376 . S
C5435 C5436 1.388 . S
C5436 H5423 0.930 . S
C5436 C5435 1.388 . S
C5436 C5437 1.390 . S
C5437 C5436 1.390 . S
C5437 C5438 1.394 . S
C5437 C5443 1.465 1_565 S
C5438 C5433 1.399 . S
C5438 C5437 1.394 . S
C5438 C5439 1.511 1_565 S
C5439 C5438 1.511 1_545 S
C5439 C5440 1.501 1_545 S
C5439 C5441 1.562 . S
C5439 C5442 1.530 . S
C5440 H5424 0.959 . S
C5440 H5425 0.945 1_565 S
C5440 H5426 0.976 . S
C5440 C5439 1.501 1_565 S
C5441 H5427 0.960 1_545 S
C5441 H5428 0.961 . S
C5441 H5429 0.959 . S
C5441 C5439 1.562 . S
C5442 C5439 1.530 . S
C5442 C5443 1.396 . S
C5442 C5447 1.390 . S
C5443 C5437 1.465 1_545 S
C5443 C5442 1.396 . S
C5443 C5444 1.399 . S
C5444 H5430 0.929 . S
C5444 C5443 1.399 . S
C5444 C5445 1.385 . S
C5445 H5431 0.931 . S
C5445 C5444 1.385 . S
C5445 C5446 1.389 . S
C5446 C5445 1.389 . S
C5446 C5447 1.387 . S
C5447 H5432 0.930 . S
C5447 C5442 1.390 . S
C5447 C5446 1.387 . S
H5448 C5460 0.930 . S
H5449 C5462 0.930 . S
H5450 C5463 0.930 . S
H5451 C5467 0.959 . S
H5452 C5467 0.974 . S
H5453 C5467 0.945 1_565 S
H5454 C5468 0.960 1_565 S
H5455 C5468 0.961 . S
H5456 C5468 0.959 . S
H5457 C5471 0.929 . S
H5458 C5472 0.931 . S
H5459 C5474 0.930 . S
C5460 H5448 0.930 . S
C5460 C5461 1.399 . S
C5460 C5465 1.399 . S
C5461 C5460 1.399 . S
C5461 C5462 1.376 . S
C5462 H5449 0.930 . S
C5462 C5461 1.376 . S
C5462 C5463 1.388 . S
C5463 H5450 0.930 . S
C5463 C5462 1.388 . S
C5463 C5464 1.390 . S
C5464 C5463 1.390 . S
C5464 C5465 1.394 . S
C5464 C5470 1.465 1_565 S
C5465 C5460 1.399 . S
C5465 C5464 1.394 . S
C5465 C5466 1.487 1_565 S
C5466 C5465 1.487 1_545 S
C5466 C5467 1.502 . S
C5466 C5468 1.564 . S
C5466 C5469 1.554 . S
C5467 H5451 0.959 . S
C5467 H5452 0.974 . S
C5467 H5453 0.945 1_545 S
C5467 C5466 1.502 . S
C5468 H5454 0.960 1_545 S
C5468 H5455 0.961 . S
C5468 H5456 0.959 . S
C5468 C5466 1.564 . S
C5469 C5466 1.554 . S
C5469 C5470 1.396 . S
C5469 C5474 1.390 . S
C5470 C5464 1.465 1_545 S
C5470 C5469 1.396 . S
C5470 C5471 1.399 . S
C5471 H5457 0.929 . S
C5471 C5470 1.399 . S
C5471 C5472 1.385 . S
C5472 H5458 0.931 . S
C5472 C5471 1.385 . S
C5472 C5473 1.389 . S
C5473 C5472 1.389 . S
C5473 C5474 1.387 . S
C5474 H5459 0.930 . S
C5474 C5469 1.390 . S
C5474 C5473 1.387 . S
H5475 C5487 0.930 . S
H5476 C5489 0.930 . S
H5477 C5490 0.930 . S
H5478 C5494 0.959 . S
H5479 C5494 0.907 1_455 S
H5480 C5494 1.021 . S
H5481 C5495 0.923 1_655 S
H5482 C5495 0.995 . S
H5483 C5495 0.966 . S
H5484 C5498 0.929 . S
H5485 C5499 0.931 . S
H5486 C5501 0.930 . S
C5487 H5475 0.930 . S
C5487 C5488 1.399 . S
C5487 C5492 1.399 . S
C5488 C5487 1.399 . S
C5488 C5489 1.376 . S
C5489 H5476 0.930 . S
C5489 C5488 1.376 . S
C5489 C5490 1.388 . S
C5490 H5477 0.930 . S
C5490 C5489 1.388 . S
C5490 C5491 1.390 . S
C5491 C5490 1.390 . S
C5491 C5492 1.394 . S
C5491 C5497 1.465 1_655 S
C5492 C5487 1.399 . S
C5492 C5491 1.394 . S
C5492 C5493 1.523 . S
C5493 C5492 1.523 . S
C5493 C5494 1.501 . S
C5493 C5495 1.560 1_655 S
C5493 C5496 1.518 1_655 S
C5494 H5478 0.959 . S
C5494 H5479 0.907 1_655 S
C5494 H5480 1.021 . S
C5494 C5493 1.501 . S
C5495 H5481 0.923 1_455 S
C5495 H5482 0.995 . S
C5495 H5483 0.966 . S
C5495 C5493 1.560 1_455 S
C5496 C5493 1.518 1_455 S
C5496 C5497 1.396 . S
C5496 C5501 1.390 . S
C5497 C5491 1.465 1_455 S
C5497 C5496 1.396 . S
C5497 C5498 1.399 . S
C5498 H5484 0.929 . S
C5498 C5497 1.399 . S
C5498 C5499 1.385 . S
C5499 H5485 0.931 . S
C5499 C5498 1.385 . S
C5499 C5500 1.389 . S
C5500 C5499 1.389 . S
C5500 C5501 1.387 . S
C5501 H5486 0.930 . S
C5501 C5496 1.390 . S
C5501 C5500 1.387 . S
H5502 C5514 0.930 . S
H5503 C5516 0.930 . S
H5504 C5517 0.930 . S
H5505 C5521 0.959 . S
H5506 C5521 0.959 . S
H5507 C5521 0.961 1_565 S
H5508 C5522 0.960 1_565 S
H5509 C5522 0.961 . S
H5510 C5522 0.959 . S
H5511 C5525 0.929 . S
H5512 C5526 0.931 . S
H5513 C5528 0.930 . S
C5514 H5502 0.930 . S
C5514 C5515 1.399 . S
C5514 C5519 1.399 . S
C5515 C5514 1.399 . S
C5515 C5516 1.376 . S
C5516 H5503 0.930 . S
C5516 C5515 1.376 . S
C5516 C5517 1.388 . S
C5517 H5504 0.930 . S
C5517 C5516 1.388 . S
C5517 C5518 1.390 . S
C5518 C5517 1.390 . S
C5518 C5519 1.394 . S
C5518 C5524 1.465 1_565 S
C5519 C5514 1.399 . S
C5519 C5518 1.394 . S
C5519 C5520 1.516 1_565 S
C5520 C5519 1.516 1_545 S
C5520 C5521 1.502 . S
C5520 C5522 1.561 . S
C5520 C5523 1.526 . S
C5521 H5505 0.959 . S
C5521 H5506 0.959 . S
C5521 H5507 0.961 1_545 S
C5521 C5520 1.502 . S
C5522 H5508 0.960 1_545 S
C5522 H5509 0.961 . S
C5522 H5510 0.959 . S
C5522 C5520 1.561 . S
C5523 C5520 1.526 . S
C5523 C5524 1.396 . S
C5523 C5528 1.390 . S
C5524 C5518 1.465 1_545 S
C5524 C5523 1.396 . S
C5524 C5525 1.399 . S
C5525 H5511 0.929 . S
C5525 C5524 1.399 . S
C5525 C5526 1.385 . S
C5526 H5512 0.931 . S
C5526 C5525 1.385 . S
C5526 C5527 1.389 . S
C5527 C5526 1.389 . S
C5527 C5528 1.387 . S
C5528 H5513 0.930 . S
C5528 C5523 1.390 . S
C5528 C5527 1.387 . S
H5529 C5541 0.930 . S
H5530 C5543 0.930 . S
H5531 C5544 0.930 . S
H5532 C5548 0.960 . S
H5533 C5548 0.959 1_455 S
H5534 C5548 0.961 . S
H5535 C5549 0.960 . S
H5536 C5549 0.961 1_455 S
H5537 C5549 0.962 . S
H5538 C5552 0.929 . S
H5539 C5553 0.931 . S
H5540 C5555 0.930 . S
C5541 H5529 0.930 . S
C5541 C5542 1.399 . S
C5541 C5546 1.399 . S
C5542 C5541 1.399 . S
C5542 C5543 1.376 . S
C5543 H5530 0.930 . S
C5543 C5542 1.376 . S
C5543 C5544 1.388 . S
C5544 H5531 0.930 . S
C5544 C5543 1.388 . S
C5544 C5545 1.390 . S
C5545 C5544 1.390 . S
C5545 C5546 1.394 . S
C5545 C5551 1.465 1_655 S
C5546 C5541 1.399 . S
C5546 C5545 1.394 . S
C5546 C5547 1.516 . S
C5547 C5546 1.516 . S
C5547 C5548 1.502 . S
C5547 C5549 1.561 . S
C5547 C5550 1.526 1_655 S
C5548 H5532 0.960 . S
C5548 H5533 0.959 1_655 S
C5548 H5534 0.961 . S
C5548 C5547 1.502 . S
C5549 H5535 0.960 . S
C5549 H5536 0.961 1_655 S
C5549 H5537 0.962 . S
C5549 C5547 1.561 . S
C5550 C5547 1.526 1_455 S
C5550 C5551 1.396 . S
C5550 C5555 1.390 . S
C5551 C5545 1.465 1_455 S
C5551 C5550 1.396 . S
C5551 C5552 1.399 . S
C5552 H5538 0.929 . S
C5552 C5551 1.399 . S
C5552 C5553 1.385 . S
C5553 H5539 0.931 . S
C5553 C5552 1.385 . S
C5553 C5554 1.389 . S
C5554 C5553 1.389 . S
C5554 C5555 1.387 . S
C5555 H5540 0.930 . S
C5555 C5550 1.390 . S
C5555 C5554 1.387 . S
H5556 C5568 0.930 . S
H5557 C5570 0.930 . S
H5558 C5571 0.930 . S
H5559 C5575 0.959 . S
H5560 C5575 0.955 . S
H5561 C5575 0.966 1_565 S
H5562 C5576 0.960 . S
H5563 C5576 0.961 1_545 S
H5564 C5576 0.967 . S
H5565 C5579 0.929 . S
H5566 C5580 0.931 . S
H5567 C5582 0.930 . S
C5568 H5556 0.930 . S
C5568 C5569 1.399 . S
C5568 C5573 1.399 . S
C5569 C5568 1.399 . S
C5569 C5570 1.376 . S
C5570 H5557 0.930 . S
C5570 C5569 1.376 . S
C5570 C5571 1.388 . S
C5571 H5558 0.930 . S
C5571 C5570 1.388 . S
C5571 C5572 1.390 . S
C5572 C5571 1.390 . S
C5572 C5573 1.394 . S
C5572 C5578 1.465 1_565 S
C5573 C5568 1.399 . S
C5573 C5572 1.394 . S
C5573 C5574 1.549 . S
C5574 C5573 1.549 . S
C5574 C5575 1.501 1_565 S
C5574 C5576 1.564 . S
C5574 C5577 1.492 1_565 S
C5575 H5559 0.959 . S
C5575 H5560 0.955 . S
C5575 H5561 0.966 1_545 S
C5575 C5574 1.501 1_545 S
C5576 H5562 0.960 . S
C5576 H5563 0.961 1_565 S
C5576 H5564 0.967 . S
C5576 C5574 1.564 . S
C5577 C5574 1.492 1_545 S
C5577 C5578 1.396 . S
C5577 C5582 1.390 . S
C5578 C5572 1.465 1_545 S
C5578 C5577 1.396 . S
C5578 C5579 1.399 . S
C5579 H5565 0.929 . S
C5579 C5578 1.399 . S
C5579 C5580 1.385 . S
C5580 H5566 0.931 . S
C5580 C5579 1.385 . S
C5580 C5581 1.389 . S
C5581 C5580 1.389 . S
C5581 C5582 1.387 . S
C5582 H5567 0.930 . S
C5582 C5577 1.390 . S
C5582 C5581 1.387 . S
H5583 C5595 0.930 . S
H5584 C5597 0.930 . S
H5585 C5598 0.930 . S
H5586 C5602 0.959 . S
H5587 C5602 0.959 . S
H5588 C5602 0.961 1_655 S
H5589 C5603 0.960 1_655 S
H5590 C5603 0.961 . S
H5591 C5603 0.959 . S
H5592 C5606 0.929 . S
H5593 C5607 0.931 . S
H5594 C5609 0.930 . S
C5595 H5583 0.930 . S
C5595 C5596 1.399 . S
C5595 C5600 1.399 . S
C5596 C5595 1.399 . S
C5596 C5597 1.376 . S
C5597 H5584 0.930 . S
C5597 C5596 1.376 . S
C5597 C5598 1.388 . S
C5598 H5585 0.930 . S
C5598 C5597 1.388 . S
C5598 C5599 1.390 . S
C5599 C5598 1.390 . S
C5599 C5600 1.394 . S
C5599 C5605 1.465 1_655 S
C5600 C5595 1.399 . S
C5600 C5599 1.394 . S
C5600 C5601 1.495 1_655 S
C5601 C5600 1.495 1_455 S
C5601 C5602 1.501 . S
C5601 C5603 1.563 . S
C5601 C5604 1.546 . S
C5602 H5586 0.959 . S
C5602 H5587 0.959 . S
C5602 H5588 0.961 1_455 S
C5602 C5601 1.501 . S
C5603 H5589 0.960 1_455 S
C5603 H5590 0.961 . S
C5603 H5591 0.959 . S
C5603 C5601 1.563 . S
C5604 C5601 1.546 . S
C5604 C5605 1.396 . S
C5604 C5609 1.390 . S
C5605 C5599 1.465 1_455 S
C5605 C5604 1.396 . S
C5605 C5606 1.399 . S
C5606 H5592 0.929 . S
C5606 C5605 1.399 . S
C5606 C5607 1.385 . S
C5607 H5593 0.931 . S
C5607 C5606 1.385 . S
C5607 C5608 1.389 . S
C5608 C5607 1.389 . S
C5608 C5609 1.387 . S
C5609 H5594 0.930 . S
C5609 C5604 1.390 . S
C5609 C5608 1.387 . S
H5610 C5622 0.930 . S
H5611 C5624 0.930 . S
H5612 C5625 0.930 . S
H5613 C5629 0.959 . S
H5614 C5629 0.964 . S
H5615 C5629 0.956 1_565 S
H5616 C5630 0.960 1_565 S
H5617 C5630 0.961 . S
H5618 C5630 0.959 . S
H5619 C5633 0.929 . S
H5620 C5634 0.931 . S
H5621 C5636 0.930 . S
C5622 H5610 0.930 . S
C5622 C5623 1.399 . S
C5622 C5627 1.399 . S
C5623 C5622 1.399 . S
C5623 C5624 1.376 . S
C5624 H5611 0.930 . S
C5624 C5623 1.376 . S
C5624 C5625 1.388 . S
C5625 H5612 0.930 . S
C5625 C5624 1.388 . S
C5625 C5626 1.390 . S
C5626 C5625 1.390 . S
C5626 C5627 1.394 . S
C5626 C5632 1.465 1_565 S
C5627 C5622 1.399 . S
C5627 C5626 1.394 . S
C5627 C5628 1.493 1_565 S
C5628 C5627 1.493 1_545 S
C5628 C5629 1.502 . S
C5628 C5630 1.563 . S
C5628 C5631 1.549 . S
C5629 H5613 0.959 . S
C5629 H5614 0.964 . S
C5629 H5615 0.956 1_545 S
C5629 C5628 1.502 . S
C5630 H5616 0.960 1_545 S
C5630 H5617 0.961 . S
C5630 H5618 0.959 . S
C5630 C5628 1.563 . S
C5631 C5628 1.549 . S
C5631 C5632 1.396 . S
C5631 C5636 1.390 . S
C5632 C5626 1.465 1_545 S
C5632 C5631 1.396 . S
C5632 C5633 1.399 . S
C5633 H5619 0.929 . S
C5633 C5632 1.399 . S
C5633 C5634 1.385 . S
C5634 H5620 0.931 . S
C5634 C5633 1.385 . S
C5634 C5635 1.389 . S
C5635 C5634 1.389 . S
C5635 C5636 1.387 . S
C5636 H5621 0.930 . S
C5636 C5631 1.390 . S
C5636 C5635 1.387 . S
H5637 C5649 0.930 . S
H5638 C5651 0.930 . S
H5639 C5652 0.930 . S
H5640 C5656 0.959 . S
H5641 C5656 0.959 . S
H5642 C5656 0.961 1_455 S
H5643 C5657 1.009 . S
H5644 C5657 0.918 1_655 S
H5645 C5657 0.958 . S
H5646 C5660 0.929 . S
H5647 C5661 0.931 . S
H5648 C5663 0.930 . S
C5649 H5637 0.930 . S
C5649 C5650 1.399 . S
C5649 C5654 1.399 . S
C5650 C5649 1.399 . S
C5650 C5651 1.376 . S
C5651 H5638 0.930 . S
C5651 C5650 1.376 . S
C5651 C5652 1.388 . S
C5652 H5639 0.930 . S
C5652 C5651 1.388 . S
C5652 C5653 1.390 . S
C5653 C5652 1.390 . S
C5653 C5654 1.394 . S
C5653 C5659 1.465 1_455 S
C5654 C5649 1.399 . S
C5654 C5653 1.394 . S
C5654 C5655 1.516 1_455 S
C5655 C5654 1.516 1_655 S
C5655 C5656 1.502 . S
C5655 C5657 1.560 1_655 S
C5655 C5658 1.526 . S
C5656 H5640 0.959 . S
C5656 H5641 0.959 . S
C5656 H5642 0.961 1_655 S
C5656 C5655 1.502 . S
C5657 H5643 1.009 . S
C5657 H5644 0.918 1_455 S
C5657 H5645 0.958 . S
C5657 C5655 1.560 1_455 S
C5658 C5655 1.526 . S
C5658 C5659 1.396 . S
C5658 C5663 1.390 . S
C5659 C5653 1.465 1_655 S
C5659 C5658 1.396 . S
C5659 C5660 1.399 . S
C5660 H5646 0.929 . S
C5660 C5659 1.399 . S
C5660 C5661 1.385 . S
C5661 H5647 0.931 . S
C5661 C5660 1.385 . S
C5661 C5662 1.389 . S
C5662 C5661 1.389 . S
C5662 C5663 1.387 . S
C5663 H5648 0.930 . S
C5663 C5658 1.390 . S
C5663 C5662 1.387 . S
H5664 C5676 0.930 . S
H5665 C5678 0.930 . S
H5666 C5679 0.930 . S
H5667 C5683 0.959 . S
H5668 C5683 0.959 . S
H5669 C5683 0.961 1_554 S
H5670 C5684 0.960 1_554 S
H5671 C5684 0.961 . S
H5672 C5684 0.959 . S
H5673 C5687 0.929 . S
H5674 C5688 0.931 . S
H5675 C5690 0.930 . S
C5676 H5664 0.930 . S
C5676 C5677 1.399 . S
C5676 C5681 1.399 . S
C5677 C5676 1.399 . S
C5677 C5678 1.376 . S
C5678 H5665 0.930 . S
C5678 C5677 1.376 . S
C5678 C5679 1.388 . S
C5679 H5666 0.930 . S
C5679 C5678 1.388 . S
C5679 C5680 1.390 . S
C5680 C5679 1.390 . S
C5680 C5681 1.394 . S
C5680 C5686 1.465 1_554 S
C5681 C5676 1.399 . S
C5681 C5680 1.394 . S
C5681 C5682 1.516 1_554 S
C5682 C5681 1.516 1_556 S
C5682 C5683 1.502 . S
C5682 C5684 1.561 . S
C5682 C5685 1.526 . S
C5683 H5667 0.959 . S
C5683 H5668 0.959 . S
C5683 H5669 0.961 1_556 S
C5683 C5682 1.502 . S
C5684 H5670 0.960 1_556 S
C5684 H5671 0.961 . S
C5684 H5672 0.959 . S
C5684 C5682 1.561 . S
C5685 C5682 1.526 . S
C5685 C5686 1.396 . S
C5685 C5690 1.390 . S
C5686 C5680 1.465 1_556 S
C5686 C5685 1.396 . S
C5686 C5687 1.399 . S
C5687 H5673 0.929 . S
C5687 C5686 1.399 . S
C5687 C5688 1.385 . S
C5688 H5674 0.931 . S
C5688 C5687 1.385 . S
C5688 C5689 1.389 . S
C5689 C5688 1.389 . S
C5689 C5690 1.387 . S
C5690 H5675 0.930 . S
C5690 C5685 1.390 . S
C5690 C5689 1.387 . S
H5691 C5703 0.930 . S
H5692 C5705 0.930 . S
H5693 C5706 0.930 . S
H5694 C5710 0.965 . S
H5695 C5710 0.959 1_556 S
H5696 C5710 0.961 . S
H5697 C5711 0.960 . S
H5698 C5711 0.961 1_556 S
H5699 C5711 0.956 1_556 S
H5700 C5714 0.929 . S
H5701 C5715 0.931 . S
H5702 C5717 0.930 . S
C5703 H5691 0.930 . S
C5703 C5704 1.399 . S
C5703 C5708 1.399 . S
C5704 C5703 1.399 . S
C5704 C5705 1.376 . S
C5705 H5692 0.930 . S
C5705 C5704 1.376 . S
C5705 C5706 1.388 . S
C5706 H5693 0.930 . S
C5706 C5705 1.388 . S
C5706 C5707 1.390 . S
C5707 C5706 1.390 . S
C5707 C5708 1.394 . S
C5707 C5713 1.465 1_554 S
C5708 C5703 1.399 . S
C5708 C5707 1.394 . S
C5708 C5709 1.576 . S
C5709 C5708 1.576 . S
C5709 C5710 1.507 . S
C5709 C5711 1.564 . S
C5709 C5712 1.461 1_554 S
C5710 H5694 0.965 . S
C5710 H5695 0.959 1_554 S
C5710 H5696 0.961 . S
C5710 C5709 1.507 . S
C5711 H5697 0.960 . S
C5711 H5698 0.961 1_554 S
C5711 H5699 0.956 1_554 S
C5711 C5709 1.564 . S
C5712 C5709 1.461 1_556 S
C5712 C5713 1.396 . S
C5712 C5717 1.390 . S
C5713 C5707 1.465 1_556 S
C5713 C5712 1.396 . S
C5713 C5714 1.399 . S
C5714 H5700 0.929 . S
C5714 C5713 1.399 . S
C5714 C5715 1.385 . S
C5715 H5701 0.931 . S
C5715 C5714 1.385 . S
C5715 C5716 1.389 . S
C5716 C5715 1.389 . S
C5716 C5717 1.387 . S
C5717 H5702 0.930 . S
C5717 C5712 1.390 . S
C5717 C5716 1.387 . S
H5718 C5730 0.930 . S
H5719 C5732 0.930 . S
H5720 C5733 0.930 . S
H5721 C5737 0.959 . S
H5722 C5737 0.982 . S
H5723 C5737 0.937 1_554 S
H5724 C5738 0.960 1_554 S
H5725 C5738 0.961 . S
H5726 C5738 0.959 . S
H5727 C5741 0.929 . S
H5728 C5742 0.931 . S
H5729 C5744 0.930 . S
C5730 H5718 0.930 . S
C5730 C5731 1.399 . S
C5730 C5735 1.399 . S
C5731 C5730 1.399 . S
C5731 C5732 1.376 . S
C5732 H5719 0.930 . S
C5732 C5731 1.376 . S
C5732 C5733 1.388 . S
C5733 H5720 0.930 . S
C5733 C5732 1.388 . S
C5733 C5734 1.390 . S
C5734 C5733 1.390 . S
C5734 C5735 1.394 . S
C5734 C5740 1.465 1_554 S
C5735 C5730 1.399 . S
C5735 C5734 1.394 . S
C5735 C5736 1.483 1_554 S
C5736 C5735 1.483 1_556 S
C5736 C5737 1.502 . S
C5736 C5738 1.565 . S
C5736 C5739 1.558 . S
C5737 H5721 0.959 . S
C5737 H5722 0.982 . S
C5737 H5723 0.937 1_556 S
C5737 C5736 1.502 . S
C5738 H5724 0.960 1_556 S
C5738 H5725 0.961 . S
C5738 H5726 0.959 . S
C5738 C5736 1.565 . S
C5739 C5736 1.558 . S
C5739 C5740 1.396 . S
C5739 C5744 1.390 . S
C5740 C5734 1.465 1_556 S
C5740 C5739 1.396 . S
C5740 C5741 1.399 . S
C5741 H5727 0.929 . S
C5741 C5740 1.399 . S
C5741 C5742 1.385 . S
C5742 H5728 0.931 . S
C5742 C5741 1.385 . S
C5742 C5743 1.389 . S
C5743 C5742 1.389 . S
C5743 C5744 1.387 . S
C5744 H5729 0.930 . S
C5744 C5739 1.390 . S
C5744 C5743 1.387 . S
H5745 C5757 0.930 . S
H5746 C5759 0.930 . S
H5747 C5760 0.930 . S
H5748 C5764 0.959 . S
H5749 C5764 0.959 . S
H5750 C5764 0.961 1_554 S
H5751 C5765 0.936 1_554 S
H5752 C5765 0.984 . S
H5753 C5765 0.959 . S
H5754 C5768 0.929 . S
H5755 C5769 0.931 . S
H5756 C5771 0.930 . S
C5757 H5745 0.930 . S
C5757 C5758 1.399 . S
C5757 C5762 1.399 . S
C5758 C5757 1.399 . S
C5758 C5759 1.376 . S
C5759 H5746 0.930 . S
C5759 C5758 1.376 . S
C5759 C5760 1.388 . S
C5760 H5747 0.930 . S
C5760 C5759 1.388 . S
C5760 C5761 1.390 . S
C5761 C5760 1.390 . S
C5761 C5762 1.394 . S
C5761 C5767 1.465 1_554 S
C5762 C5757 1.399 . S
C5762 C5761 1.394 . S
C5762 C5763 1.471 1_554 S
C5763 C5762 1.471 1_556 S
C5763 C5764 1.507 . S
C5763 C5765 1.561 . S
C5763 C5766 1.569 . S
C5764 H5748 0.959 . S
C5764 H5749 0.959 . S
C5764 H5750 0.961 1_556 S
C5764 C5763 1.507 . S
C5765 H5751 0.936 1_556 S
C5765 H5752 0.984 . S
C5765 H5753 0.959 . S
C5765 C5763 1.561 . S
C5766 C5763 1.569 . S
C5766 C5767 1.396 . S
C5766 C5771 1.390 . S
C5767 C5761 1.465 1_556 S
C5767 C5766 1.396 . S
C5767 C5768 1.399 . S
C5768 H5754 0.929 . S
C5768 C5767 1.399 . S
C5768 C5769 1.385 . S
C5769 H5755 0.931 . S
C5769 C5768 1.385 . S
C5769 C5770 1.389 . S
C5770 C5769 1.389 . S
C5770 C5771 1.387 . S
C5771 H5756 0.930 . S
C5771 C5766 1.390 . S
C5771 C5770 1.387 . S
H5772 C5784 0.930 . S
H5773 C5786 0.930 . S
H5774 C5787 0.930 . S
H5775 C5791 0.965 . S
H5776 C5791 0.959 1_554 S
H5777 C5791 0.961 . S
H5778 C5792 1.030 . S
H5779 C5792 0.904 1_554 S
H5780 C5792 0.949 1_554 S
H5781 C5795 0.929 . S
H5782 C5796 0.931 . S
H5783 C5798 0.930 . S
C5784 H5772 0.930 . S
C5784 C5785 1.399 . S
C5784 C5789 1.399 . S
C5785 C5784 1.399 . S
C5785 C5786 1.376 . S
C5786 H5773 0.930 . S
C5786 C5785 1.376 . S
C5786 C5787 1.388 . S
C5787 H5774 0.930 . S
C5787 C5786 1.388 . S
C5787 C5788 1.390 . S
C5788 C5787 1.390 . S
C5788 C5789 1.394 . S
C5788 C5794 1.465 1_556 S
C5789 C5784 1.399 . S
C5789 C5788 1.394 . S
C5789 C5790 1.572 . S
C5790 C5789 1.572 . S
C5790 C5791 1.507 . S
C5790 C5792 1.561 . S
C5790 C5793 1.466 1_556 S
C5791 H5775 0.965 . S
C5791 H5776 0.959 1_556 S
C5791 H5777 0.961 . S
C5791 C5790 1.507 . S
C5792 H5778 1.030 . S
C5792 H5779 0.904 1_556 S
C5792 H5780 0.949 1_556 S
C5792 C5790 1.561 . S
C5793 C5790 1.466 1_554 S
C5793 C5794 1.396 . S
C5793 C5798 1.390 . S
C5794 C5788 1.465 1_554 S
C5794 C5793 1.396 . S
C5794 C5795 1.399 . S
C5795 H5781 0.929 . S
C5795 C5794 1.399 . S
C5795 C5796 1.385 . S
C5796 H5782 0.931 . S
C5796 C5795 1.385 . S
C5796 C5797 1.389 . S
C5797 C5796 1.389 . S
C5797 C5798 1.387 . S
C5798 H5783 0.930 . S
C5798 C5793 1.390 . S
C5798 C5797 1.387 . S
H5799 C5811 0.930 . S
H5800 C5813 0.930 . S
H5801 C5814 0.930 . S
H5802 C5818 0.965 . S
H5803 C5818 0.986 . S
H5804 C5818 0.931 1_554 S
H5805 C5819 0.960 . S
H5806 C5819 0.961 1_556 S
H5807 C5819 0.965 . S
H5808 C5822 0.929 . S
H5809 C5823 0.931 . S
H5810 C5825 0.930 . S
C5811 H5799 0.930 . S
C5811 C5812 1.399 . S
C5811 C5816 1.399 . S
C5812 C5811 1.399 . S
C5812 C5813 1.376 . S
C5813 H5800 0.930 . S
C5813 C5812 1.376 . S
C5813 C5814 1.388 . S
C5814 H5801 0.930 . S
C5814 C5813 1.388 . S
C5814 C5815 1.390 . S
C5815 C5814 1.390 . S
C5815 C5816 1.394 . S
C5815 C5821 1.465 1_554 S
C5816 C5811 1.399 . S
C5816 C5815 1.394 . S
C5816 C5817 1.534 . S
C5817 C5816 1.534 . S
C5817 C5818 1.500 1_554 S
C5817 C5819 1.563 . S
C5817 C5820 1.508 1_554 S
C5818 H5802 0.965 . S
C5818 H5803 0.986 . S
C5818 H5804 0.931 1_556 S
C5818 C5817 1.500 1_556 S
C5819 H5805 0.960 . S
C5819 H5806 0.961 1_554 S
C5819 H5807 0.965 . S
C5819 C5817 1.563 . S
C5820 C5817 1.508 1_556 S
C5820 C5821 1.396 . S
C5820 C5825 1.390 . S
C5821 C5815 1.465 1_556 S
C5821 C5820 1.396 . S
C5821 C5822 1.399 . S
C5822 H5808 0.929 . S
C5822 C5821 1.399 . S
C5822 C5823 1.385 . S
C5823 H5809 0.931 . S
C5823 C5822 1.385 . S
C5823 C5824 1.389 . S
C5824 C5823 1.389 . S
C5824 C5825 1.387 . S
C5825 H5810 0.930 . S
C5825 C5820 1.390 . S
C5825 C5824 1.387 . S
H5826 C5838 0.930 . S
H5827 C5840 0.930 . S
H5828 C5841 0.930 . S
H5829 C5845 0.963 . S
H5830 C5845 1.017 . S
H5831 C5845 0.903 1_556 S
H5832 C5846 0.960 1_556 S
H5833 C5846 0.961 . S
H5834 C5846 0.959 . S
H5835 C5849 0.929 . S
H5836 C5850 0.931 . S
H5837 C5852 0.930 . S
C5838 H5826 0.930 . S
C5838 C5839 1.399 . S
C5838 C5843 1.399 . S
C5839 C5838 1.399 . S
C5839 C5840 1.376 . S
C5840 H5827 0.930 . S
C5840 C5839 1.376 . S
C5840 C5841 1.388 . S
C5841 H5828 0.930 . S
C5841 C5840 1.388 . S
C5841 C5842 1.390 . S
C5842 C5841 1.390 . S
C5842 C5843 1.394 . S
C5842 C5848 1.465 1_556 S
C5843 C5838 1.399 . S
C5843 C5842 1.394 . S
C5843 C5844 1.467 1_556 S
C5844 C5843 1.467 1_554 S
C5844 C5845 1.502 . S
C5844 C5846 1.567 . S
C5844 C5847 1.573 . S
C5845 H5829 0.963 . S
C5845 H5830 1.017 . S
C5845 H5831 0.903 1_554 S
C5845 C5844 1.502 . S
C5846 H5832 0.960 1_554 S
C5846 H5833 0.961 . S
C5846 H5834 0.959 . S
C5846 C5844 1.567 . S
C5847 C5844 1.573 . S
C5847 C5848 1.396 . S
C5847 C5852 1.390 . S
C5848 C5842 1.465 1_554 S
C5848 C5847 1.396 . S
C5848 C5849 1.399 . S
C5849 H5835 0.929 . S
C5849 C5848 1.399 . S
C5849 C5850 1.385 . S
C5850 H5836 0.931 . S
C5850 C5849 1.385 . S
C5850 C5851 1.389 . S
C5851 C5850 1.389 . S
C5851 C5852 1.387 . S
C5852 H5837 0.930 . S
C5852 C5847 1.390 . S
C5852 C5851 1.387 . S
H5853 C5865 0.930 . S
H5854 C5867 0.930 . S
H5855 C5868 0.930 . S
H5856 C5872 0.965 . S
H5857 C5872 0.959 1_556 S
H5858 C5872 0.961 . S
H5859 C5873 0.960 . S
H5860 C5873 0.961 1_556 S
H5861 C5873 0.955 1_556 S
H5862 C5876 0.929 . S
H5863 C5877 0.931 . S
H5864 C5879 0.930 . S
C5865 H5853 0.930 . S
C5865 C5866 1.399 . S
C5865 C5870 1.399 . S
C5866 C5865 1.399 . S
C5866 C5867 1.376 . S
C5867 H5854 0.930 . S
C5867 C5866 1.376 . S
C5867 C5868 1.388 . S
C5868 H5855 0.930 . S
C5868 C5867 1.388 . S
C5868 C5869 1.390 . S
C5869 C5868 1.390 . S
C5869 C5870 1.394 . S
C5869 C5875 1.465 1_554 S
C5870 C5865 1.399 . S
C5870 C5869 1.394 . S
C5870 C5871 1.574 . S
C5871 C5870 1.574 . S
C5871 C5872 1.507 . S
C5871 C5873 1.564 . S
C5871 C5874 1.464 1_554 S
C5872 H5856 0.965 . S
C5872 H5857 0.959 1_554 S
C5872 H5858 0.961 . S
C5872 C5871 1.507 . S
C5873 H5859 0.960 . S
C5873 H5860 0.961 1_554 S
C5873 H5861 0.955 1_554 S
C5873 C5871 1.564 . S
C5874 C5871 1.464 1_556 S
C5874 C5875 1.396 . S
C5874 C5879 1.390 . S
C5875 C5869 1.465 1_556 S
C5875 C5874 1.396 . S
C5875 C5876 1.399 . S
C5876 H5862 0.929 . S
C5876 C5875 1.399 . S
C5876 C5877 1.385 . S
C5877 H5863 0.931 . S
C5877 C5876 1.385 . S
C5877 C5878 1.389 . S
C5878 C5877 1.389 . S
C5878 C5879 1.387 . S
C5879 H5864 0.930 . S
C5879 C5874 1.390 . S
C5879 C5878 1.387 . S
H5880 C5892 0.930 . S
H5881 C5894 0.930 . S
H5882 C5895 0.930 . S
H5883 C5899 0.959 . S
H5884 C5899 0.959 . S
H5885 C5899 0.961 . S
H5886 C5900 0.960 . S
H5887 C5900 0.961 . S
H5888 C5900 0.959 . S
H5889 C5903 0.929 . S
H5890 C5904 0.931 . S
H5891 C5906 0.930 . S
C5892 H5880 0.930 . S
C5892 C5893 1.399 . S
C5892 C5897 1.399 . S
C5893 C5892 1.399 . S
C5893 C5894 1.376 . S
C5894 H5881 0.930 . S
C5894 C5893 1.376 . S
C5894 C5895 1.388 . S
C5895 H5882 0.930 . S
C5895 C5894 1.388 . S
C5895 C5896 1.390 . S
C5896 C5895 1.390 . S
C5896 C5897 1.394 . S
C5896 C5902 1.465 . S
C5897 C5892 1.399 . S
C5897 C5896 1.394 . S
C5897 C5898 1.516 . S
C5898 C5897 1.516 . S
C5898 C5899 1.502 . S
C5898 C5900 1.561 . S
C5898 C5901 1.526 . S
C5899 H5883 0.959 . S
C5899 H5884 0.959 . S
C5899 H5885 0.961 . S
C5899 C5898 1.502 . S
C5900 H5886 0.960 . S
C5900 H5887 0.961 . S
C5900 H5888 0.959 . S
C5900 C5898 1.561 . S
C5901 C5898 1.526 . S
C5901 C5902 1.396 . S
C5901 C5906 1.390 . S
C5902 C5896 1.465 . S
C5902 C5901 1.396 . S
C5902 C5903 1.399 . S
C5903 H5889 0.929 . S
C5903 C5902 1.399 . S
C5903 C5904 1.385 . S
C5904 H5890 0.931 . S
C5904 C5903 1.385 . S
C5904 C5905 1.389 . S
C5905 C5904 1.389 . S
C5905 C5906 1.387 . S
C5906 H5891 0.930 . S
C5906 C5901 1.390 . S
C5906 C5905 1.387 . S
H5907 C5919 0.930 . S
H5908 C5921 0.930 . S
H5909 C5922 0.930 . S
H5910 C5926 0.959 . S
H5911 C5926 0.959 . S
H5912 C5926 0.961 . S
H5913 C5927 0.960 . S
H5914 C5927 0.961 . S
H5915 C5927 0.959 . S
H5916 C5930 0.929 . S
H5917 C5931 0.931 . S
H5918 C5933 0.930 . S
C5919 H5907 0.930 . S
C5919 C5920 1.399 . S
C5919 C5924 1.399 . S
C5920 C5919 1.399 . S
C5920 C5921 1.376 . S
C5921 H5908 0.930 . S
C5921 C5920 1.376 . S
C5921 C5922 1.388 . S
C5922 H5909 0.930 . S
C5922 C5921 1.388 . S
C5922 C5923 1.390 . S
C5923 C5922 1.390 . S
C5923 C5924 1.394 . S
C5923 C5929 1.465 . S
C5924 C5919 1.399 . S
C5924 C5923 1.394 . S
C5924 C5925 1.516 . S
C5925 C5924 1.516 . S
C5925 C5926 1.502 . S
C5925 C5927 1.561 . S
C5925 C5928 1.526 . S
C5926 H5910 0.959 . S
C5926 H5911 0.959 . S
C5926 H5912 0.961 . S
C5926 C5925 1.502 . S
C5927 H5913 0.960 . S
C5927 H5914 0.961 . S
C5927 H5915 0.959 . S
C5927 C5925 1.561 . S
C5928 C5925 1.526 . S
C5928 C5929 1.396 . S
C5928 C5933 1.390 . S
C5929 C5923 1.465 . S
C5929 C5928 1.396 . S
C5929 C5930 1.399 . S
C5930 H5916 0.929 . S
C5930 C5929 1.399 . S
C5930 C5931 1.385 . S
C5931 H5917 0.931 . S
C5931 C5930 1.385 . S
C5931 C5932 1.389 . S
C5932 C5931 1.389 . S
C5932 C5933 1.387 . S
C5933 H5918 0.930 . S
C5933 C5928 1.390 . S
C5933 C5932 1.387 . S
H5934 C5946 0.930 . S
H5935 C5948 0.930 . S
H5936 C5949 0.930 . S
H5937 C5953 0.959 . S
H5938 C5953 0.959 . S
H5939 C5953 0.961 . S
H5940 C5954 0.960 . S
H5941 C5954 0.961 . S
H5942 C5954 0.959 . S
H5943 C5957 0.929 . S
H5944 C5958 0.931 . S
H5945 C5960 0.930 . S
C5946 H5934 0.930 . S
C5946 C5947 1.399 . S
C5946 C5951 1.399 . S
C5947 C5946 1.399 . S
C5947 C5948 1.376 . S
C5948 H5935 0.930 . S
C5948 C5947 1.376 . S
C5948 C5949 1.388 . S
C5949 H5936 0.930 . S
C5949 C5948 1.388 . S
C5949 C5950 1.390 . S
C5950 C5949 1.390 . S
C5950 C5951 1.394 . S
C5950 C5956 1.465 . S
C5951 C5946 1.399 . S
C5951 C5950 1.394 . S
C5951 C5952 1.516 . S
C5952 C5951 1.516 . S
C5952 C5953 1.502 . S
C5952 C5954 1.561 . S
C5952 C5955 1.526 . S
C5953 H5937 0.959 . S
C5953 H5938 0.959 . S
C5953 H5939 0.961 . S
C5953 C5952 1.502 . S
C5954 H5940 0.960 . S
C5954 H5941 0.961 . S
C5954 H5942 0.959 . S
C5954 C5952 1.561 . S
C5955 C5952 1.526 . S
C5955 C5956 1.396 . S
C5955 C5960 1.390 . S
C5956 C5950 1.465 . S
C5956 C5955 1.396 . S
C5956 C5957 1.399 . S
C5957 H5943 0.929 . S
C5957 C5956 1.399 . S
C5957 C5958 1.385 . S
C5958 H5944 0.931 . S
C5958 C5957 1.385 . S
C5958 C5959 1.389 . S
C5959 C5958 1.389 . S
C5959 C5960 1.387 . S
C5960 H5945 0.930 . S
C5960 C5955 1.390 . S
C5960 C5959 1.387 . S
H5961 C5973 0.930 . S
H5962 C5975 0.930 . S
H5963 C5976 0.930 . S
H5964 C5980 0.959 . S
H5965 C5980 0.959 . S
H5966 C5980 0.961 . S
H5967 C5981 0.960 . S
H5968 C5981 0.961 . S
H5969 C5981 0.959 . S
H5970 C5984 0.929 . S
H5971 C5985 0.931 . S
H5972 C5987 0.930 . S
C5973 H5961 0.930 . S
C5973 C5974 1.399 . S
C5973 C5978 1.399 . S
C5974 C5973 1.399 . S
C5974 C5975 1.376 . S
C5975 H5962 0.930 . S
C5975 C5974 1.376 . S
C5975 C5976 1.388 . S
C5976 H5963 0.930 . S
C5976 C5975 1.388 . S
C5976 C5977 1.390 . S
C5977 C5976 1.390 . S
C5977 C5978 1.394 . S
C5977 C5983 1.465 . S
C5978 C5973 1.399 . S
C5978 C5977 1.394 . S
C5978 C5979 1.516 . S
C5979 C5978 1.516 . S
C5979 C5980 1.502 . S
C5979 C5981 1.561 . S
C5979 C5982 1.526 . S
C5980 H5964 0.959 . S
C5980 H5965 0.959 . S
C5980 H5966 0.961 . S
C5980 C5979 1.502 . S
C5981 H5967 0.960 . S
C5981 H5968 0.961 . S
C5981 H5969 0.959 . S
C5981 C5979 1.561 . S
C5982 C5979 1.526 . S
C5982 C5983 1.396 . S
C5982 C5987 1.390 . S
C5983 C5977 1.465 . S
C5983 C5982 1.396 . S
C5983 C5984 1.399 . S
C5984 H5970 0.929 . S
C5984 C5983 1.399 . S
C5984 C5985 1.385 . S
C5985 H5971 0.931 . S
C5985 C5984 1.385 . S
C5985 C5986 1.389 . S
C5986 C5985 1.389 . S
C5986 C5987 1.387 . S
C5987 H5972 0.930 . S
C5987 C5982 1.390 . S
C5987 C5986 1.387 . S
H5988 C6000 0.930 . S
H5989 C6002 0.930 . S
H5990 C6003 0.930 . S
H5991 C6007 0.959 . S
H5992 C6007 0.959 . S
H5993 C6007 0.961 . S
H5994 C6008 0.960 . S
H5995 C6008 0.961 . S
H5996 C6008 0.959 . S
H5997 C6011 0.929 . S
H5998 C6012 0.931 . S
H5999 C6014 0.930 . S
C6000 H5988 0.930 . S
C6000 C6001 1.399 . S
C6000 C6005 1.399 . S
C6001 C6000 1.399 . S
C6001 C6002 1.376 . S
C6002 H5989 0.930 . S
C6002 C6001 1.376 . S
C6002 C6003 1.388 . S
C6003 H5990 0.930 . S
C6003 C6002 1.388 . S
C6003 C6004 1.390 . S
C6004 C6003 1.390 . S
C6004 C6005 1.394 . S
C6004 C6010 1.465 . S
C6005 C6000 1.399 . S
C6005 C6004 1.394 . S
C6005 C6006 1.516 . S
C6006 C6005 1.516 . S
C6006 C6007 1.502 . S
C6006 C6008 1.561 . S
C6006 C6009 1.526 . S
C6007 H5991 0.959 . S
C6007 H5992 0.959 . S
C6007 H5993 0.961 . S
C6007 C6006 1.502 . S
C6008 H5994 0.960 . S
C6008 H5995 0.961 . S
C6008 H5996 0.959 . S
C6008 C6006 1.561 . S
C6009 C6006 1.526 . S
C6009 C6010 1.396 . S
C6009 C6014 1.390 . S
C6010 C6004 1.465 . S
C6010 C6009 1.396 . S
C6010 C6011 1.399 . S
C6011 H5997 0.929 . S
C6011 C6010 1.399 . S
C6011 C6012 1.385 . S
C6012 H5998 0.931 . S
C6012 C6011 1.385 . S
C6012 C6013 1.389 . S
C6013 C6012 1.389 . S
C6013 C6014 1.387 . S
C6014 H5999 0.930 . S
C6014 C6009 1.390 . S
C6014 C6013 1.387 . S
H6015 C6027 0.930 . S
H6016 C6029 0.930 . S
H6017 C6030 0.930 . S
H6018 C6034 0.959 . S
H6019 C6034 0.959 . S
H6020 C6034 0.961 . S
H6021 C6035 0.960 . S
H6022 C6035 0.961 . S
H6023 C6035 0.959 . S
H6024 C6038 0.929 . S
H6025 C6039 0.931 . S
H6026 C6041 0.930 . S
C6027 H6015 0.930 . S
C6027 C6028 1.399 . S
C6027 C6032 1.399 . S
C6028 C6027 1.399 . S
C6028 C6029 1.376 . S
C6029 H6016 0.930 . S
C6029 C6028 1.376 . S
C6029 C6030 1.388 . S
C6030 H6017 0.930 . S
C6030 C6029 1.388 . S
C6030 C6031 1.390 . S
C6031 C6030 1.390 . S
C6031 C6032 1.394 . S
C6031 C6037 1.465 . S
C6032 C6027 1.399 . S
C6032 C6031 1.394 . S
C6032 C6033 1.516 . S
C6033 C6032 1.516 . S
C6033 C6034 1.502 . S
C6033 C6035 1.561 . S
C6033 C6036 1.526 . S
C6034 H6018 0.959 . S
C6034 H6019 0.959 . S
C6034 H6020 0.961 . S
C6034 C6033 1.502 . S
C6035 H6021 0.960 . S
C6035 H6022 0.961 . S
C6035 H6023 0.959 . S
C6035 C6033 1.561 . S
C6036 C6033 1.526 . S
C6036 C6037 1.396 . S
C6036 C6041 1.390 . S
C6037 C6031 1.465 . S
C6037 C6036 1.396 . S
C6037 C6038 1.399 . S
C6038 H6024 0.929 . S
C6038 C6037 1.399 . S
C6038 C6039 1.385 . S
C6039 H6025 0.931 . S
C6039 C6038 1.385 . S
C6039 C6040 1.389 . S
C6040 C6039 1.389 . S
C6040 C6041 1.387 . S
C6041 H6026 0.930 . S
C6041 C6036 1.390 . S
C6041 C6040 1.387 . S
H6042 C6054 0.930 . S
H6043 C6056 0.930 . S
H6044 C6057 0.930 . S
H6045 C6061 0.959 . S
H6046 C6061 0.959 . S
H6047 C6061 0.961 . S
H6048 C6062 0.960 . S
H6049 C6062 0.961 . S
H6050 C6062 0.959 . S
H6051 C6065 0.929 . S
H6052 C6066 0.931 . S
H6053 C6068 0.930 . S
C6054 H6042 0.930 . S
C6054 C6055 1.399 . S
C6054 C6059 1.399 . S
C6055 C6054 1.399 . S
C6055 C6056 1.376 . S
C6056 H6043 0.930 . S
C6056 C6055 1.376 . S
C6056 C6057 1.388 . S
C6057 H6044 0.930 . S
C6057 C6056 1.388 . S
C6057 C6058 1.390 . S
C6058 C6057 1.390 . S
C6058 C6059 1.394 . S
C6058 C6064 1.465 . S
C6059 C6054 1.399 . S
C6059 C6058 1.394 . S
C6059 C6060 1.516 . S
C6060 C6059 1.516 . S
C6060 C6061 1.502 . S
C6060 C6062 1.561 . S
C6060 C6063 1.526 . S
C6061 H6045 0.959 . S
C6061 H6046 0.959 . S
C6061 H6047 0.961 . S
C6061 C6060 1.502 . S
C6062 H6048 0.960 . S
C6062 H6049 0.961 . S
C6062 H6050 0.959 . S
C6062 C6060 1.561 . S
C6063 C6060 1.526 . S
C6063 C6064 1.396 . S
C6063 C6068 1.390 . S
C6064 C6058 1.465 . S
C6064 C6063 1.396 . S
C6064 C6065 1.399 . S
C6065 H6051 0.929 . S
C6065 C6064 1.399 . S
C6065 C6066 1.385 . S
C6066 H6052 0.931 . S
C6066 C6065 1.385 . S
C6066 C6067 1.389 . S
C6067 C6066 1.389 . S
C6067 C6068 1.387 . S
C6068 H6053 0.930 . S
C6068 C6063 1.390 . S
C6068 C6067 1.387 . S
H6069 C6081 0.930 . S
H6070 C6083 0.930 . S
H6071 C6084 0.930 . S
H6072 C6088 0.959 . S
H6073 C6088 0.959 . S
H6074 C6088 0.961 . S
H6075 C6089 0.960 . S
H6076 C6089 0.961 . S
H6077 C6089 0.959 . S
H6078 C6092 0.929 . S
H6079 C6093 0.931 . S
H6080 C6095 0.930 . S
C6081 H6069 0.930 . S
C6081 C6082 1.399 . S
C6081 C6086 1.399 . S
C6082 C6081 1.399 . S
C6082 C6083 1.376 . S
C6083 H6070 0.930 . S
C6083 C6082 1.376 . S
C6083 C6084 1.388 . S
C6084 H6071 0.930 . S
C6084 C6083 1.388 . S
C6084 C6085 1.390 . S
C6085 C6084 1.390 . S
C6085 C6086 1.394 . S
C6085 C6091 1.465 . S
C6086 C6081 1.399 . S
C6086 C6085 1.394 . S
C6086 C6087 1.516 . S
C6087 C6086 1.516 . S
C6087 C6088 1.502 . S
C6087 C6089 1.561 . S
C6087 C6090 1.526 . S
C6088 H6072 0.959 . S
C6088 H6073 0.959 . S
C6088 H6074 0.961 . S
C6088 C6087 1.502 . S
C6089 H6075 0.960 . S
C6089 H6076 0.961 . S
C6089 H6077 0.959 . S
C6089 C6087 1.561 . S
C6090 C6087 1.526 . S
C6090 C6091 1.396 . S
C6090 C6095 1.390 . S
C6091 C6085 1.465 . S
C6091 C6090 1.396 . S
C6091 C6092 1.399 . S
C6092 H6078 0.929 . S
C6092 C6091 1.399 . S
C6092 C6093 1.385 . S
C6093 H6079 0.931 . S
C6093 C6092 1.385 . S
C6093 C6094 1.389 . S
C6094 C6093 1.389 . S
C6094 C6095 1.387 . S
C6095 H6080 0.930 . S
C6095 C6090 1.390 . S
C6095 C6094 1.387 . S
H6096 C6108 0.930 . S
H6097 C6110 0.930 . S
H6098 C6111 0.930 . S
H6099 C6115 0.959 . S
H6100 C6115 0.959 . S
H6101 C6115 0.961 . S
H6102 C6116 0.960 . S
H6103 C6116 0.961 . S
H6104 C6116 0.959 . S
H6105 C6119 0.929 . S
H6106 C6120 0.931 . S
H6107 C6122 0.930 . S
C6108 H6096 0.930 . S
C6108 C6109 1.399 . S
C6108 C6113 1.399 . S
C6109 C6108 1.399 . S
C6109 C6110 1.376 . S
C6110 H6097 0.930 . S
C6110 C6109 1.376 . S
C6110 C6111 1.388 . S
C6111 H6098 0.930 . S
C6111 C6110 1.388 . S
C6111 C6112 1.390 . S
C6112 C6111 1.390 . S
C6112 C6113 1.394 . S
C6112 C6118 1.465 . S
C6113 C6108 1.399 . S
C6113 C6112 1.394 . S
C6113 C6114 1.516 . S
C6114 C6113 1.516 . S
C6114 C6115 1.502 . S
C6114 C6116 1.561 . S
C6114 C6117 1.526 . S
C6115 H6099 0.959 . S
C6115 H6100 0.959 . S
C6115 H6101 0.961 . S
C6115 C6114 1.502 . S
C6116 H6102 0.960 . S
C6116 H6103 0.961 . S
C6116 H6104 0.959 . S
C6116 C6114 1.561 . S
C6117 C6114 1.526 . S
C6117 C6118 1.396 . S
C6117 C6122 1.390 . S
C6118 C6112 1.465 . S
C6118 C6117 1.396 . S
C6118 C6119 1.399 . S
C6119 H6105 0.929 . S
C6119 C6118 1.399 . S
C6119 C6120 1.385 . S
C6120 H6106 0.931 . S
C6120 C6119 1.385 . S
C6120 C6121 1.389 . S
C6121 C6120 1.389 . S
C6121 C6122 1.387 . S
C6122 H6107 0.930 . S
C6122 C6117 1.390 . S
C6122 C6121 1.387 . S
H6123 C6135 0.930 . S
H6124 C6137 0.930 . S
H6125 C6138 0.930 . S
H6126 C6142 0.959 . S
H6127 C6142 0.959 . S
H6128 C6142 0.961 . S
H6129 C6143 0.960 . S
H6130 C6143 0.961 . S
H6131 C6143 0.959 . S
H6132 C6146 0.929 . S
H6133 C6147 0.931 . S
H6134 C6149 0.930 . S
C6135 H6123 0.930 . S
C6135 C6136 1.399 . S
C6135 C6140 1.399 . S
C6136 C6135 1.399 . S
C6136 C6137 1.376 . S
C6137 H6124 0.930 . S
C6137 C6136 1.376 . S
C6137 C6138 1.388 . S
C6138 H6125 0.930 . S
C6138 C6137 1.388 . S
C6138 C6139 1.390 . S
C6139 C6138 1.390 . S
C6139 C6140 1.394 . S
C6139 C6145 1.465 . S
C6140 C6135 1.399 . S
C6140 C6139 1.394 . S
C6140 C6141 1.516 . S
C6141 C6140 1.516 . S
C6141 C6142 1.502 . S
C6141 C6143 1.561 . S
C6141 C6144 1.526 . S
C6142 H6126 0.959 . S
C6142 H6127 0.959 . S
C6142 H6128 0.961 . S
C6142 C6141 1.502 . S
C6143 H6129 0.960 . S
C6143 H6130 0.961 . S
C6143 H6131 0.959 . S
C6143 C6141 1.561 . S
C6144 C6141 1.526 . S
C6144 C6145 1.396 . S
C6144 C6149 1.390 . S
C6145 C6139 1.465 . S
C6145 C6144 1.396 . S
C6145 C6146 1.399 . S
C6146 H6132 0.929 . S
C6146 C6145 1.399 . S
C6146 C6147 1.385 . S
C6147 H6133 0.931 . S
C6147 C6146 1.385 . S
C6147 C6148 1.389 . S
C6148 C6147 1.389 . S
C6148 C6149 1.387 . S
C6149 H6134 0.930 . S
C6149 C6144 1.390 . S
C6149 C6148 1.387 . S
H6150 C6162 0.930 . S
H6151 C6164 0.930 . S
H6152 C6165 0.930 . S
H6153 C6169 0.959 . S
H6154 C6169 0.959 . S
H6155 C6169 0.961 . S
H6156 C6170 0.960 . S
H6157 C6170 0.961 . S
H6158 C6170 0.959 . S
H6159 C6173 0.929 . S
H6160 C6174 0.931 . S
H6161 C6176 0.930 . S
C6162 H6150 0.930 . S
C6162 C6163 1.399 . S
C6162 C6167 1.399 . S
C6163 C6162 1.399 . S
C6163 C6164 1.376 . S
C6164 H6151 0.930 . S
C6164 C6163 1.376 . S
C6164 C6165 1.388 . S
C6165 H6152 0.930 . S
C6165 C6164 1.388 . S
C6165 C6166 1.390 . S
C6166 C6165 1.390 . S
C6166 C6167 1.394 . S
C6166 C6172 1.465 . S
C6167 C6162 1.399 . S
C6167 C6166 1.394 . S
C6167 C6168 1.516 . S
C6168 C6167 1.516 . S
C6168 C6169 1.502 . S
C6168 C6170 1.561 . S
C6168 C6171 1.526 . S
C6169 H6153 0.959 . S
C6169 H6154 0.959 . S
C6169 H6155 0.961 . S
C6169 C6168 1.502 . S
C6170 H6156 0.960 . S
C6170 H6157 0.961 . S
C6170 H6158 0.959 . S
C6170 C6168 1.561 . S
C6171 C6168 1.526 . S
C6171 C6172 1.396 . S
C6171 C6176 1.390 . S
C6172 C6166 1.465 . S
C6172 C6171 1.396 . S
C6172 C6173 1.399 . S
C6173 H6159 0.929 . S
C6173 C6172 1.399 . S
C6173 C6174 1.385 . S
C6174 H6160 0.931 . S
C6174 C6173 1.385 . S
C6174 C6175 1.389 . S
C6175 C6174 1.389 . S
C6175 C6176 1.387 . S
C6176 H6161 0.930 . S
C6176 C6171 1.390 . S
C6176 C6175 1.387 . S
H6177 C6189 0.930 . S
H6178 C6191 0.930 . S
H6179 C6192 0.930 . S
H6180 C6196 0.959 . S
H6181 C6196 0.959 . S
H6182 C6196 0.961 . S
H6183 C6197 0.960 . S
H6184 C6197 0.961 . S
H6185 C6197 0.959 . S
H6186 C6200 0.929 . S
H6187 C6201 0.931 . S
H6188 C6203 0.930 . S
C6189 H6177 0.930 . S
C6189 C6190 1.399 . S
C6189 C6194 1.399 . S
C6190 C6189 1.399 . S
C6190 C6191 1.376 . S
C6191 H6178 0.930 . S
C6191 C6190 1.376 . S
C6191 C6192 1.388 . S
C6192 H6179 0.930 . S
C6192 C6191 1.388 . S
C6192 C6193 1.390 . S
C6193 C6192 1.390 . S
C6193 C6194 1.394 . S
C6193 C6199 1.465 . S
C6194 C6189 1.399 . S
C6194 C6193 1.394 . S
C6194 C6195 1.516 . S
C6195 C6194 1.516 . S
C6195 C6196 1.502 . S
C6195 C6197 1.561 . S
C6195 C6198 1.526 . S
C6196 H6180 0.959 . S
C6196 H6181 0.959 . S
C6196 H6182 0.961 . S
C6196 C6195 1.502 . S
C6197 H6183 0.960 . S
C6197 H6184 0.961 . S
C6197 H6185 0.959 . S
C6197 C6195 1.561 . S
C6198 C6195 1.526 . S
C6198 C6199 1.396 . S
C6198 C6203 1.390 . S
C6199 C6193 1.465 . S
C6199 C6198 1.396 . S
C6199 C6200 1.399 . S
C6200 H6186 0.929 . S
C6200 C6199 1.399 . S
C6200 C6201 1.385 . S
C6201 H6187 0.931 . S
C6201 C6200 1.385 . S
C6201 C6202 1.389 . S
C6202 C6201 1.389 . S
C6202 C6203 1.387 . S
C6203 H6188 0.930 . S
C6203 C6198 1.390 . S
C6203 C6202 1.387 . S
H6204 C6216 0.930 . S
H6205 C6218 0.930 . S
H6206 C6219 0.930 . S
H6207 C6223 0.959 . S
H6208 C6223 0.959 . S
H6209 C6223 0.961 . S
H6210 C6224 0.960 . S
H6211 C6224 0.961 . S
H6212 C6224 0.959 . S
H6213 C6227 0.929 . S
H6214 C6228 0.931 . S
H6215 C6230 0.930 . S
C6216 H6204 0.930 . S
C6216 C6217 1.399 . S
C6216 C6221 1.399 . S
C6217 C6216 1.399 . S
C6217 C6218 1.376 . S
C6218 H6205 0.930 . S
C6218 C6217 1.376 . S
C6218 C6219 1.388 . S
C6219 H6206 0.930 . S
C6219 C6218 1.388 . S
C6219 C6220 1.390 . S
C6220 C6219 1.390 . S
C6220 C6221 1.394 . S
C6220 C6226 1.465 . S
C6221 C6216 1.399 . S
C6221 C6220 1.394 . S
C6221 C6222 1.516 . S
C6222 C6221 1.516 . S
C6222 C6223 1.502 . S
C6222 C6224 1.561 . S
C6222 C6225 1.526 . S
C6223 H6207 0.959 . S
C6223 H6208 0.959 . S
C6223 H6209 0.961 . S
C6223 C6222 1.502 . S
C6224 H6210 0.960 . S
C6224 H6211 0.961 . S
C6224 H6212 0.959 . S
C6224 C6222 1.561 . S
C6225 C6222 1.526 . S
C6225 C6226 1.396 . S
C6225 C6230 1.390 . S
C6226 C6220 1.465 . S
C6226 C6225 1.396 . S
C6226 C6227 1.399 . S
C6227 H6213 0.929 . S
C6227 C6226 1.399 . S
C6227 C6228 1.385 . S
C6228 H6214 0.931 . S
C6228 C6227 1.385 . S
C6228 C6229 1.389 . S
C6229 C6228 1.389 . S
C6229 C6230 1.387 . S
C6230 H6215 0.930 . S
C6230 C6225 1.390 . S
C6230 C6229 1.387 . S
H6231 C6243 0.930 . S
H6232 C6245 0.930 . S
H6233 C6246 0.930 . S
H6234 C6250 0.959 . S
H6235 C6250 0.959 . S
H6236 C6250 0.961 . S
H6237 C6251 0.960 . S
H6238 C6251 0.961 . S
H6239 C6251 0.959 . S
H6240 C6254 0.929 . S
H6241 C6255 0.931 . S
H6242 C6257 0.930 . S
C6243 H6231 0.930 . S
C6243 C6244 1.399 . S
C6243 C6248 1.399 . S
C6244 C6243 1.399 . S
C6244 C6245 1.376 . S
C6245 H6232 0.930 . S
C6245 C6244 1.376 . S
C6245 C6246 1.388 . S
C6246 H6233 0.930 . S
C6246 C6245 1.388 . S
C6246 C6247 1.390 . S
C6247 C6246 1.390 . S
C6247 C6248 1.394 . S
C6247 C6253 1.465 . S
C6248 C6243 1.399 . S
C6248 C6247 1.394 . S
C6248 C6249 1.516 . S
C6249 C6248 1.516 . S
C6249 C6250 1.502 . S
C6249 C6251 1.561 . S
C6249 C6252 1.526 . S
C6250 H6234 0.959 . S
C6250 H6235 0.959 . S
C6250 H6236 0.961 . S
C6250 C6249 1.502 . S
C6251 H6237 0.960 . S
C6251 H6238 0.961 . S
C6251 H6239 0.959 . S
C6251 C6249 1.561 . S
C6252 C6249 1.526 . S
C6252 C6253 1.396 . S
C6252 C6257 1.390 . S
C6253 C6247 1.465 . S
C6253 C6252 1.396 . S
C6253 C6254 1.399 . S
C6254 H6240 0.929 . S
C6254 C6253 1.399 . S
C6254 C6255 1.385 . S
C6255 H6241 0.931 . S
C6255 C6254 1.385 . S
C6255 C6256 1.389 . S
C6256 C6255 1.389 . S
C6256 C6257 1.387 . S
C6257 H6242 0.930 . S
C6257 C6252 1.390 . S
C6257 C6256 1.387 . S
H6258 C6270 0.930 . S
H6259 C6272 0.930 . S
H6260 C6273 0.930 . S
H6261 C6277 0.959 . S
H6262 C6277 0.959 . S
H6263 C6277 0.961 . S
H6264 C6278 0.960 . S
H6265 C6278 0.961 . S
H6266 C6278 0.959 . S
H6267 C6281 0.929 . S
H6268 C6282 0.931 . S
H6269 C6284 0.930 . S
C6270 H6258 0.930 . S
C6270 C6271 1.399 . S
C6270 C6275 1.399 . S
C6271 C6270 1.399 . S
C6271 C6272 1.376 . S
C6272 H6259 0.930 . S
C6272 C6271 1.376 . S
C6272 C6273 1.388 . S
C6273 H6260 0.930 . S
C6273 C6272 1.388 . S
C6273 C6274 1.390 . S
C6274 C6273 1.390 . S
C6274 C6275 1.394 . S
C6274 C6280 1.465 . S
C6275 C6270 1.399 . S
C6275 C6274 1.394 . S
C6275 C6276 1.516 . S
C6276 C6275 1.516 . S
C6276 C6277 1.502 . S
C6276 C6278 1.561 . S
C6276 C6279 1.526 . S
C6277 H6261 0.959 . S
C6277 H6262 0.959 . S
C6277 H6263 0.961 . S
C6277 C6276 1.502 . S
C6278 H6264 0.960 . S
C6278 H6265 0.961 . S
C6278 H6266 0.959 . S
C6278 C6276 1.561 . S
C6279 C6276 1.526 . S
C6279 C6280 1.396 . S
C6279 C6284 1.390 . S
C6280 C6274 1.465 . S
C6280 C6279 1.396 . S
C6280 C6281 1.399 . S
C6281 H6267 0.929 . S
C6281 C6280 1.399 . S
C6281 C6282 1.385 . S
C6282 H6268 0.931 . S
C6282 C6281 1.385 . S
C6282 C6283 1.389 . S
C6283 C6282 1.389 . S
C6283 C6284 1.387 . S
C6284 H6269 0.930 . S
C6284 C6279 1.390 . S
C6284 C6283 1.387 . S
H6285 C6297 0.930 . S
H6286 C6299 0.930 . S
H6287 C6300 0.930 . S
H6288 C6304 0.959 . S
H6289 C6304 0.959 . S
H6290 C6304 0.961 . S
H6291 C6305 0.960 . S
H6292 C6305 0.961 . S
H6293 C6305 0.959 . S
H6294 C6308 0.929 . S
H6295 C6309 0.931 . S
H6296 C6311 0.930 . S
C6297 H6285 0.930 . S
C6297 C6298 1.399 . S
C6297 C6302 1.399 . S
C6298 C6297 1.399 . S
C6298 C6299 1.376 . S
C6299 H6286 0.930 . S
C6299 C6298 1.376 . S
C6299 C6300 1.388 . S
C6300 H6287 0.930 . S
C6300 C6299 1.388 . S
C6300 C6301 1.390 . S
C6301 C6300 1.390 . S
C6301 C6302 1.394 . S
C6301 C6307 1.465 . S
C6302 C6297 1.399 . S
C6302 C6301 1.394 . S
C6302 C6303 1.516 . S
C6303 C6302 1.516 . S
C6303 C6304 1.502 . S
C6303 C6305 1.561 . S
C6303 C6306 1.526 . S
C6304 H6288 0.959 . S
C6304 H6289 0.959 . S
C6304 H6290 0.961 . S
C6304 C6303 1.502 . S
C6305 H6291 0.960 . S
C6305 H6292 0.961 . S
C6305 H6293 0.959 . S
C6305 C6303 1.561 . S
C6306 C6303 1.526 . S
C6306 C6307 1.396 . S
C6306 C6311 1.390 . S
C6307 C6301 1.465 . S
C6307 C6306 1.396 . S
C6307 C6308 1.399 . S
C6308 H6294 0.929 . S
C6308 C6307 1.399 . S
C6308 C6309 1.385 . S
C6309 H6295 0.931 . S
C6309 C6308 1.385 . S
C6309 C6310 1.389 . S
C6310 C6309 1.389 . S
C6310 C6311 1.387 . S
C6311 H6296 0.930 . S
C6311 C6306 1.390 . S
C6311 C6310 1.387 . S
H6312 C6324 0.930 . S
H6313 C6326 0.930 . S
H6314 C6327 0.930 . S
H6315 C6331 0.959 . S
H6316 C6331 0.959 . S
H6317 C6331 0.961 . S
H6318 C6332 0.960 . S
H6319 C6332 0.961 . S
H6320 C6332 0.959 . S
H6321 C6335 0.929 . S
H6322 C6336 0.931 . S
H6323 C6338 0.930 . S
C6324 H6312 0.930 . S
C6324 C6325 1.399 . S
C6324 C6329 1.399 . S
C6325 C6324 1.399 . S
C6325 C6326 1.376 . S
C6326 H6313 0.930 . S
C6326 C6325 1.376 . S
C6326 C6327 1.388 . S
C6327 H6314 0.930 . S
C6327 C6326 1.388 . S
C6327 C6328 1.390 . S
C6328 C6327 1.390 . S
C6328 C6329 1.394 . S
C6328 C6334 1.465 . S
C6329 C6324 1.399 . S
C6329 C6328 1.394 . S
C6329 C6330 1.516 . S
C6330 C6329 1.516 . S
C6330 C6331 1.502 . S
C6330 C6332 1.561 . S
C6330 C6333 1.526 . S
C6331 H6315 0.959 . S
C6331 H6316 0.959 . S
C6331 H6317 0.961 . S
C6331 C6330 1.502 . S
C6332 H6318 0.960 . S
C6332 H6319 0.961 . S
C6332 H6320 0.959 . S
C6332 C6330 1.561 . S
C6333 C6330 1.526 . S
C6333 C6334 1.396 . S
C6333 C6338 1.390 . S
C6334 C6328 1.465 . S
C6334 C6333 1.396 . S
C6334 C6335 1.399 . S
C6335 H6321 0.929 . S
C6335 C6334 1.399 . S
C6335 C6336 1.385 . S
C6336 H6322 0.931 . S
C6336 C6335 1.385 . S
C6336 C6337 1.389 . S
C6337 C6336 1.389 . S
C6337 C6338 1.387 . S
C6338 H6323 0.930 . S
C6338 C6333 1.390 . S
C6338 C6337 1.387 . S
H6339 C6351 0.930 . S
H6340 C6353 0.930 . S
H6341 C6354 0.930 . S
H6342 C6358 0.959 . S
H6343 C6358 0.959 . S
H6344 C6358 0.961 . S
H6345 C6359 0.960 . S
H6346 C6359 0.961 . S
H6347 C6359 0.959 . S
H6348 C6362 0.929 . S
H6349 C6363 0.931 . S
H6350 C6365 0.930 . S
C6351 H6339 0.930 . S
C6351 C6352 1.399 . S
C6351 C6356 1.399 . S
C6352 C6351 1.399 . S
C6352 C6353 1.376 . S
C6353 H6340 0.930 . S
C6353 C6352 1.376 . S
C6353 C6354 1.388 . S
C6354 H6341 0.930 . S
C6354 C6353 1.388 . S
C6354 C6355 1.390 . S
C6355 C6354 1.390 . S
C6355 C6356 1.394 . S
C6355 C6361 1.465 . S
C6356 C6351 1.399 . S
C6356 C6355 1.394 . S
C6356 C6357 1.516 . S
C6357 C6356 1.516 . S
C6357 C6358 1.502 . S
C6357 C6359 1.561 . S
C6357 C6360 1.526 . S
C6358 H6342 0.959 . S
C6358 H6343 0.959 . S
C6358 H6344 0.961 . S
C6358 C6357 1.502 . S
C6359 H6345 0.960 . S
C6359 H6346 0.961 . S
C6359 H6347 0.959 . S
C6359 C6357 1.561 . S
C6360 C6357 1.526 . S
C6360 C6361 1.396 . S
C6360 C6365 1.390 . S
C6361 C6355 1.465 . S
C6361 C6360 1.396 . S
C6361 C6362 1.399 . S
C6362 H6348 0.929 . S
C6362 C6361 1.399 . S
C6362 C6363 1.385 . S
C6363 H6349 0.931 . S
C6363 C6362 1.385 . S
C6363 C6364 1.389 . S
C6364 C6363 1.389 . S
C6364 C6365 1.387 . S
C6365 H6350 0.930 . S
C6365 C6360 1.390 . S
C6365 C6364 1.387 . S
H6366 C6378 0.930 . S
H6367 C6380 0.930 . S
H6368 C6381 0.930 . S
H6369 C6385 0.959 . S
H6370 C6385 0.959 . S
H6371 C6385 0.961 . S
H6372 C6386 0.960 . S
H6373 C6386 0.961 . S
H6374 C6386 0.959 . S
H6375 C6389 0.929 . S
H6376 C6390 0.931 . S
H6377 C6392 0.930 . S
C6378 H6366 0.930 . S
C6378 C6379 1.399 . S
C6378 C6383 1.399 . S
C6379 C6378 1.399 . S
C6379 C6380 1.376 . S
C6380 H6367 0.930 . S
C6380 C6379 1.376 . S
C6380 C6381 1.388 . S
C6381 H6368 0.930 . S
C6381 C6380 1.388 . S
C6381 C6382 1.390 . S
C6382 C6381 1.390 . S
C6382 C6383 1.394 . S
C6382 C6388 1.465 . S
C6383 C6378 1.399 . S
C6383 C6382 1.394 . S
C6383 C6384 1.516 . S
C6384 C6383 1.516 . S
C6384 C6385 1.502 . S
C6384 C6386 1.561 . S
C6384 C6387 1.526 . S
C6385 H6369 0.959 . S
C6385 H6370 0.959 . S
C6385 H6371 0.961 . S
C6385 C6384 1.502 . S
C6386 H6372 0.960 . S
C6386 H6373 0.961 . S
C6386 H6374 0.959 . S
C6386 C6384 1.561 . S
C6387 C6384 1.526 . S
C6387 C6388 1.396 . S
C6387 C6392 1.390 . S
C6388 C6382 1.465 . S
C6388 C6387 1.396 . S
C6388 C6389 1.399 . S
C6389 H6375 0.929 . S
C6389 C6388 1.399 . S
C6389 C6390 1.385 . S
C6390 H6376 0.931 . S
C6390 C6389 1.385 . S
C6390 C6391 1.389 . S
C6391 C6390 1.389 . S
C6391 C6392 1.387 . S
C6392 H6377 0.930 . S
C6392 C6387 1.390 . S
C6392 C6391 1.387 . S
H6393 C6405 0.930 . S
H6394 C6407 0.930 . S
H6395 C6408 0.930 . S
H6396 C6412 0.959 . S
H6397 C6412 0.959 . S
H6398 C6412 0.961 . S
H6399 C6413 0.960 . S
H6400 C6413 0.961 . S
H6401 C6413 0.959 . S
H6402 C6416 0.929 . S
H6403 C6417 0.931 . S
H6404 C6419 0.930 . S
C6405 H6393 0.930 . S
C6405 C6406 1.399 . S
C6405 C6410 1.399 . S
C6406 C6405 1.399 . S
C6406 C6407 1.376 . S
C6407 H6394 0.930 . S
C6407 C6406 1.376 . S
C6407 C6408 1.388 . S
C6408 H6395 0.930 . S
C6408 C6407 1.388 . S
C6408 C6409 1.390 . S
C6409 C6408 1.390 . S
C6409 C6410 1.394 . S
C6409 C6415 1.465 . S
C6410 C6405 1.399 . S
C6410 C6409 1.394 . S
C6410 C6411 1.516 . S
C6411 C6410 1.516 . S
C6411 C6412 1.502 . S
C6411 C6413 1.561 . S
C6411 C6414 1.526 . S
C6412 H6396 0.959 . S
C6412 H6397 0.959 . S
C6412 H6398 0.961 . S
C6412 C6411 1.502 . S
C6413 H6399 0.960 . S
C6413 H6400 0.961 . S
C6413 H6401 0.959 . S
C6413 C6411 1.561 . S
C6414 C6411 1.526 . S
C6414 C6415 1.396 . S
C6414 C6419 1.390 . S
C6415 C6409 1.465 . S
C6415 C6414 1.396 . S
C6415 C6416 1.399 . S
C6416 H6402 0.929 . S
C6416 C6415 1.399 . S
C6416 C6417 1.385 . S
C6417 H6403 0.931 . S
C6417 C6416 1.385 . S
C6417 C6418 1.389 . S
C6418 C6417 1.389 . S
C6418 C6419 1.387 . S
C6419 H6404 0.930 . S
C6419 C6414 1.390 . S
C6419 C6418 1.387 . S
H6420 C6432 0.930 . S
H6421 C6434 0.930 . S
H6422 C6435 0.930 . S
H6423 C6439 0.959 . S
H6424 C6439 0.959 . S
H6425 C6439 0.961 . S
H6426 C6440 0.960 . S
H6427 C6440 0.961 . S
H6428 C6440 0.959 . S
H6429 C6443 0.929 . S
H6430 C6444 0.931 . S
H6431 C6446 0.930 . S
C6432 H6420 0.930 . S
C6432 C6433 1.399 . S
C6432 C6437 1.399 . S
C6433 C6432 1.399 . S
C6433 C6434 1.376 . S
C6434 H6421 0.930 . S
C6434 C6433 1.376 . S
C6434 C6435 1.388 . S
C6435 H6422 0.930 . S
C6435 C6434 1.388 . S
C6435 C6436 1.390 . S
C6436 C6435 1.390 . S
C6436 C6437 1.394 . S
C6436 C6442 1.465 . S
C6437 C6432 1.399 . S
C6437 C6436 1.394 . S
C6437 C6438 1.516 . S
C6438 C6437 1.516 . S
C6438 C6439 1.502 . S
C6438 C6440 1.561 . S
C6438 C6441 1.526 . S
C6439 H6423 0.959 . S
C6439 H6424 0.959 . S
C6439 H6425 0.961 . S
C6439 C6438 1.502 . S
C6440 H6426 0.960 . S
C6440 H6427 0.961 . S
C6440 H6428 0.959 . S
C6440 C6438 1.561 . S
C6441 C6438 1.526 . S
C6441 C6442 1.396 . S
C6441 C6446 1.390 . S
C6442 C6436 1.465 . S
C6442 C6441 1.396 . S
C6442 C6443 1.399 . S
C6443 H6429 0.929 . S
C6443 C6442 1.399 . S
C6443 C6444 1.385 . S
C6444 H6430 0.931 . S
C6444 C6443 1.385 . S
C6444 C6445 1.389 . S
C6445 C6444 1.389 . S
C6445 C6446 1.387 . S
C6446 H6431 0.930 . S
C6446 C6441 1.390 . S
C6446 C6445 1.387 . S
H6447 C6459 0.930 . S
H6448 C6461 0.930 . S
H6449 C6462 0.930 . S
H6450 C6466 0.959 . S
H6451 C6466 0.959 . S
H6452 C6466 0.961 . S
H6453 C6467 0.960 . S
H6454 C6467 0.961 . S
H6455 C6467 0.959 . S
H6456 C6470 0.929 . S
H6457 C6471 0.931 . S
H6458 C6473 0.930 . S
C6459 H6447 0.930 . S
C6459 C6460 1.399 . S
C6459 C6464 1.399 . S
C6460 C6459 1.399 . S
C6460 C6461 1.376 . S
C6461 H6448 0.930 . S
C6461 C6460 1.376 . S
C6461 C6462 1.388 . S
C6462 H6449 0.930 . S
C6462 C6461 1.388 . S
C6462 C6463 1.390 . S
C6463 C6462 1.390 . S
C6463 C6464 1.394 . S
C6463 C6469 1.465 . S
C6464 C6459 1.399 . S
C6464 C6463 1.394 . S
C6464 C6465 1.516 . S
C6465 C6464 1.516 . S
C6465 C6466 1.502 . S
C6465 C6467 1.561 . S
C6465 C6468 1.526 . S
C6466 H6450 0.959 . S
C6466 H6451 0.959 . S
C6466 H6452 0.961 . S
C6466 C6465 1.502 . S
C6467 H6453 0.960 . S
C6467 H6454 0.961 . S
C6467 H6455 0.959 . S
C6467 C6465 1.561 . S
C6468 C6465 1.526 . S
C6468 C6469 1.396 . S
C6468 C6473 1.390 . S
C6469 C6463 1.465 . S
C6469 C6468 1.396 . S
C6469 C6470 1.399 . S
C6470 H6456 0.929 . S
C6470 C6469 1.399 . S
C6470 C6471 1.385 . S
C6471 H6457 0.931 . S
C6471 C6470 1.385 . S
C6471 C6472 1.389 . S
C6472 C6471 1.389 . S
C6472 C6473 1.387 . S
C6473 H6458 0.930 . S
C6473 C6468 1.390 . S
C6473 C6472 1.387 . S
H6474 C6486 0.930 . S
H6475 C6488 0.930 . S
H6476 C6489 0.930 . S
H6477 C6493 0.959 . S
H6478 C6493 0.959 . S
H6479 C6493 0.961 . S
H6480 C6494 0.960 . S
H6481 C6494 0.961 . S
H6482 C6494 0.959 . S
H6483 C6497 0.929 . S
H6484 C6498 0.931 . S
H6485 C6500 0.930 . S
C6486 H6474 0.930 . S
C6486 C6487 1.399 . S
C6486 C6491 1.399 . S
C6487 C6486 1.399 . S
C6487 C6488 1.376 . S
C6488 H6475 0.930 . S
C6488 C6487 1.376 . S
C6488 C6489 1.388 . S
C6489 H6476 0.930 . S
C6489 C6488 1.388 . S
C6489 C6490 1.390 . S
C6490 C6489 1.390 . S
C6490 C6491 1.394 . S
C6490 C6496 1.465 . S
C6491 C6486 1.399 . S
C6491 C6490 1.394 . S
C6491 C6492 1.516 . S
C6492 C6491 1.516 . S
C6492 C6493 1.502 . S
C6492 C6494 1.561 . S
C6492 C6495 1.526 . S
C6493 H6477 0.959 . S
C6493 H6478 0.959 . S
C6493 H6479 0.961 . S
C6493 C6492 1.502 . S
C6494 H6480 0.960 . S
C6494 H6481 0.961 . S
C6494 H6482 0.959 . S
C6494 C6492 1.561 . S
C6495 C6492 1.526 . S
C6495 C6496 1.396 . S
C6495 C6500 1.390 . S
C6496 C6490 1.465 . S
C6496 C6495 1.396 . S
C6496 C6497 1.399 . S
C6497 H6483 0.929 . S
C6497 C6496 1.399 . S
C6497 C6498 1.385 . S
C6498 H6484 0.931 . S
C6498 C6497 1.385 . S
C6498 C6499 1.389 . S
C6499 C6498 1.389 . S
C6499 C6500 1.387 . S
C6500 H6485 0.930 . S
C6500 C6495 1.390 . S
C6500 C6499 1.387 . S
H6501 C6513 0.930 . S
H6502 C6515 0.930 . S
H6503 C6516 0.930 . S
H6504 C6520 0.959 . S
H6505 C6520 0.959 . S
H6506 C6520 0.961 . S
H6507 C6521 0.960 . S
H6508 C6521 0.961 . S
H6509 C6521 0.959 . S
H6510 C6524 0.929 . S
H6511 C6525 0.931 . S
H6512 C6527 0.930 . S
C6513 H6501 0.930 . S
C6513 C6514 1.399 . S
C6513 C6518 1.399 . S
C6514 C6513 1.399 . S
C6514 C6515 1.376 . S
C6515 H6502 0.930 . S
C6515 C6514 1.376 . S
C6515 C6516 1.388 . S
C6516 H6503 0.930 . S
C6516 C6515 1.388 . S
C6516 C6517 1.390 . S
C6517 C6516 1.390 . S
C6517 C6518 1.394 . S
C6517 C6523 1.465 . S
C6518 C6513 1.399 . S
C6518 C6517 1.394 . S
C6518 C6519 1.516 . S
C6519 C6518 1.516 . S
C6519 C6520 1.502 . S
C6519 C6521 1.561 . S
C6519 C6522 1.526 . S
C6520 H6504 0.959 . S
C6520 H6505 0.959 . S
C6520 H6506 0.961 . S
C6520 C6519 1.502 . S
C6521 H6507 0.960 . S
C6521 H6508 0.961 . S
C6521 H6509 0.959 . S
C6521 C6519 1.561 . S
C6522 C6519 1.526 . S
C6522 C6523 1.396 . S
C6522 C6527 1.390 . S
C6523 C6517 1.465 . S
C6523 C6522 1.396 . S
C6523 C6524 1.399 . S
C6524 H6510 0.929 . S
C6524 C6523 1.399 . S
C6524 C6525 1.385 . S
C6525 H6511 0.931 . S
C6525 C6524 1.385 . S
C6525 C6526 1.389 . S
C6526 C6525 1.389 . S
C6526 C6527 1.387 . S
C6527 H6512 0.930 . S
C6527 C6522 1.390 . S
C6527 C6526 1.387 . S
C1357 C555 1.450 . S
C1369 C9 1.455 . S
C1384 C513 1.465 . S
C1396 C23 1.445 . S
C1411 C527 1.443 . S
C1423 C37 1.469 . S
C1438 C541 1.463 . S
C1450 C51 1.482 . S
C1465 C471 1.484 . S
C1477 C65 1.460 . S
C1492 C485 1.465 . S
C1504 C79 1.482 . S
C1519 C93 1.458 . S
C1531 C499 1.448 . S
C1546 C457 1.457 . S
C1558 C107 1.484 . S
C1573 C121 1.464 . S
C1585 C443 1.445 . S
C1600 C135 1.484 . S
C1612 C401 1.458 . S
C1627 C149 1.468 . S
C1639 C415 1.444 . S
C1654 C163 1.442 . S
C1666 C429 1.472 . S
C1681 C359 1.458 . S
C1693 C177 1.484 . S
C1708 C373 1.445 . S
C1720 C191 1.481 . S
C1735 C387 1.464 . S
C1747 C205 1.482 . S
C1762 C345 1.481 . S
C1774 C219 1.446 . S
C1789 C233 1.450 . S
C1801 C625 1.484 . S
C1816 C247 1.460 . S
C1828 C667 1.483 . S
C1843 C639 1.485 . S
C1855 C261 1.452 . S
C1870 C653 1.467 . S
C1882 C275 1.444 . S
C1897 C569 1.453 . S
C1909 C289 1.485 . S
C1924 C597 1.452 . S
C1936 C303 1.485 . S
C1951 C317 1.462 . S
C1963 C611 1.483 . S
C1978 C583 1.462 . S
C1990 C331 1.446 . S
C2005 C989 1.465 . S
C2017 C681 1.445 . S
C2032 C695 1.459 . S
C2044 C1003 1.484 . S
C2059 C709 1.460 . S
C2071 C975 1.447 . S
C2086 C723 1.462 . S
C2098 C961 1.446 . S
C2113 C737 1.460 . S
C2125 C947 1.447 . S
C2140 C751 1.462 . S
C2152 C933 1.446 . S
C2167 C905 1.462 . S
C2179 C765 1.483 . S
C2194 C919 1.461 . S
C2206 C779 1.447 . S
C2221 C793 1.480 . S
C2233 C1073 1.468 . S
C2248 C807 1.463 . S
C2260 C1115 1.482 . S
C2275 C1087 1.464 . S
C2287 C821 1.482 . S
C2302 C835 1.472 . S
C2314 C1101 1.477 . S
C2329 C849 1.464 . S
C2341 C1017 1.482 . S
C2356 C863 1.459 . S
C2368 C1045 1.448 . S
C2383 C1059 1.464 . S
C2395 C877 1.445 . S
C2410 C1031 1.480 . S
C2422 C891 1.468 . S
C2437 C1129 1.483 . S
C2449 C1339 1.462 . S
C2464 C1325 1.456 . S
C2476 C1143 1.450 . S
C2491 C1297 1.484 . S
C2503 C1157 1.460 . S
C2518 C1311 1.442 . S
C2530 C1171 1.474 . S
C2545 C1269 1.443 . S
C2557 C1185 1.470 . S
C2572 C1199 1.454 . S
C2584 C1283 1.452 . S
C2599 C1255 1.485 . S
C2611 C1213 1.456 . S
C2626 C1241 1.450 . S
C2638 C1227 1.484 . S
C2653 C5 0.954 . S
C2665 C434 0.941 . S
C2680 C19 0.937 . S
C2692 C392 0.961 . S
C2707 C33 0.868 . S
C2719 C406 0.902 . S
C2734 C47 0.962 . S
C2746 C420 0.925 . S
C2761 C61 0.879 . S
C2773 C350 0.872 . S
C2788 C75 0.879 . S
C2800 C364 0.871 . S
C2815 C378 0.911 . S
C2827 C89 0.966 . S
C2842 C103 0.880 . S
C2854 C336 0.870 . S
C2869 C117 0.969 . S
C2881 C616 0.873 . S
C2896 C574 0.869 . S
C2908 C131 0.968 . S
C2923 C145 0.939 . S
C2935 C588 0.828 . S
C2950 C159 0.867 . S
C2962 C602 0.908 . S
C2977 C658 0.864 . S
C2989 C173 0.884 . S
C3004 C630 0.933 . S
C3016 C187 0.867 . S
C3031 C644 0.843 . S
C3043 C201 0.899 . S
C3058 C215 0.908 . S
C3070 C560 0.837 . S
C3085 C229 0.958 . S
C3097 C546 0.933 . S
C3112 C243 0.957 . S
C3124 C462 0.936 . S
C3139 C257 0.958 . S
C3151 C476 0.841 . S
C3166 C271 0.870 . S
C3178 C490 0.895 . S
C3193 C285 0.916 . S
C3205 C448 0.832 . S
C3220 C299 0.875 . S
C3232 C518 0.881 . S
C3247 C532 0.878 . S
C3259 C313 0.876 . S
C3274 C327 0.966 . S
C3286 C504 0.913 . S
C3301 C467 0.897 . S
C3313 C938 0.846 . S
C3328 C210 0.841 . S
C3340 C677 0.958 . S
C3355 C495 0.885 . S
C3367 C924 0.862 . S
C3382 C691 0.868 . S
C3394 C182 0.901 . S
C3409 C551 0.895 . S
C3421 C896 0.848 . S
C3436 C705 0.868 . S
C3448 C154 0.899 . S
C3463 C910 0.871 . S
C3475 C523 0.968 . S
C3490 C719 0.967 . S
C3502 C126 0.909 . S
C3517 C1064 0.858 . S
C3529 C733 0.887 . S
C3544 C341 0.874 . S
C3556 C1022 0.881 . S
C3571 C1036 0.952 . S
C3583 C747 0.946 . S
C3598 C1050 0.856 . S
C3610 C369 0.965 . S
C3625 C1106 0.935 . S
C3637 C761 0.957 . S
C3652 C425 0.952 . S
C3664 C1078 0.944 . S
C3679 C775 0.939 . S
C3691 C1092 0.828 . S
C3706 C397 0.956 . S
C3718 C1008 0.937 . S
C3733 C789 0.872 . S
C3745 C56 0.888 . S
C3760 C803 0.961 . S
C3772 C0 0.927 . S
C3787 C966 0.951 . S
C3799 C817 0.947 . S
C3814 C831 0.968 . S
C3826 C28 0.901 . S
C3841 C845 0.948 . S
C3853 C952 0.832 . S
C3868 C84 0.866 . S
C3880 C859 0.967 . S
C3895 C873 0.966 . S
C3907 C994 0.858 . S
C3922 C980 0.933 . S
C3934 C887 0.958 . S
C3949 C196 0.903 . S
C3961 C1125 0.967 . S
C3976 C1260 0.960 . S
C3988 C481 0.877 . S
C4003 C1139 0.945 . S
C4015 C168 0.953 . S
C4030 C453 0.871 . S
C4042 C1274 0.890 . S
C4057 C140 0.964 . S
C4069 C1153 0.880 . S
C4084 C1246 0.881 . S
C4096 C509 0.969 . S
C4111 C112 0.968 . S
C4123 C1167 0.884 . S
C4138 C1232 0.964 . S
C4150 C537 0.880 . S
C4165 C854 0.833 . S
C4177 C383 0.951 . S
C4192 C1181 0.880 . S
C4204 C868 0.870 . S
C4219 C784 0.826 . S
C4231 C355 0.931 . S
C4246 C1195 0.959 . S
C4258 C882 0.932 . S
C4273 C826 0.975 . S
C4285 C411 0.912 . S
C4300 C1209 0.882 . S
C4312 C840 0.866 . S
C4327 C439 0.934 . S
C4339 C798 0.828 . S
C4354 C812 0.859 . S
C4366 C1223 0.966 . S
C4381 C1330 0.893 . S
C4393 C1041 0.969 . S
C4408 C1288 0.866 . S
C4420 C1097 0.967 . S
C4435 C1013 0.953 . S
C4447 C14 0.835 . S
C4462 C1302 0.933 . S
C4474 C1111 0.867 . S
C4489 C42 0.958 . S
C4501 C1083 0.941 . S
C4516 C1069 0.872 . S
C4528 C1316 0.888 . S
C4543 C1027 0.901 . S
C4555 C98 0.974 . S
C4570 C1055 0.895 . S
C4582 C70 0.849 . S
C4597 C1293 0.956 . S
C4609 C770 0.937 . S
C4624 C1218 0.965 . S
C4636 C971 0.934 . S
C4651 C1307 0.873 . S
C4663 C756 0.884 . S
C4678 C957 0.954 . S
C4690 C1204 0.941 . S
C4705 C1335 0.870 . S
C4717 C742 0.948 . S
C4732 C985 0.881 . S
C4744 C1190 0.868 . S
C4759 C1321 0.888 . S
C4771 C728 0.970 . S
C4786 C999 0.956 . S
C4798 C1176 0.938 . S
C4813 C915 0.958 . S
C4825 C294 0.841 . S
C4840 C308 0.958 . S
C4852 C1237 0.875 . S
C4867 C901 0.967 . S
C4879 C224 0.910 . S
C4894 C1251 0.911 . S
C4906 C322 0.973 . S
C4921 C929 0.950 . S
C4933 C266 0.833 . S
C4948 C280 0.846 . S
C4960 C1279 0.961 . S
C4975 C238 0.844 . S
C4987 C943 0.899 . S
C5002 C252 0.968 . S
C5014 C1265 0.928 . S
C5029 C1148 0.831 . S
C5041 C593 0.948 . S
C5056 C649 0.959 . S
C5068 C1120 0.931 . S
C5083 C672 0.837 . S
C5095 C565 0.906 . S
C5110 C663 0.877 . S
C5122 C1134 0.876 . S
C5137 C686 0.905 . S
C5149 C635 0.868 . S
C5164 C1162 0.857 . S
C5176 C621 0.888 . S
C5191 C714 0.950 . S
C5203 C579 0.948 . S
C5218 C700 0.834 . S
C5230 C607 0.910 . S
C5245 C403 1.179 . S
C5257 C11 1.200 . S
C5272 C25 1.169 . S
C5284 C417 1.181 . S
C5299 C431 1.188 . S
C5311 C39 1.192 . S
C5326 C53 1.197 . S
C5338 C445 1.183 . S
C5353 C347 1.174 . S
C5365 C67 1.203 . S
C5380 C361 1.212 . S
C5392 C81 1.157 . S
C5407 C95 1.152 . S
C5419 C375 1.209 . S
C5434 C109 1.183 . S
C5446 C389 1.167 . S
C5461 C543 1.174 . S
C5473 C123 1.176 . S
C5488 C137 1.193 . S
C5500 C557 1.160 . S
C5515 C151 1.153 . S
C5527 C515 1.210 . S
C5542 C529 1.211 . S
C5554 C165 1.160 . S
C5569 C179 1.195 . S
C5581 C487 1.184 . S
C5596 C501 1.177 . S
C5608 C193 1.173 . S
C5623 C459 1.176 . S
C5635 C207 1.174 . S
C5650 C473 1.177 . S
C5662 C221 1.201 . S
C5677 C235 1.158 . S
C5689 C641 1.195 . S
C5704 C613 1.211 . S
C5716 C249 1.154 . S
C5731 C627 1.172 . S
C5743 C263 1.177 . S
C5758 C585 1.161 . S
C5770 C277 1.210 . S
C5785 C291 1.210 . S
C5797 C599 1.153 . S
C5812 C305 1.189 . S
C5824 C571 1.191 . S
C5839 C669 1.166 . S
C5851 C319 1.184 . S
C5866 C333 1.210 . S
C5878 C655 1.153 . S
C5893 C683 1.174 . S
C5905 C935 1.176 . S
C5920 C949 1.158 . S
C5932 C697 1.194 . S
C5947 C907 1.210 . S
C5959 C711 1.153 . S
C5974 C921 1.156 . S
C5986 C725 1.211 . S
C6001 C739 1.155 . S
C6013 C1005 1.211 . S
C6028 C991 1.209 . S
C6040 C753 1.166 . S
C6055 C767 1.202 . S
C6067 C977 1.154 . S
C6082 C781 1.157 . S
C6094 C963 1.211 . S
C6109 C1089 1.155 . S
C6121 C795 1.211 . S
C6136 C809 1.198 . S
C6148 C1061 1.181 . S
C6163 C1075 1.195 . S
C6175 C823 1.185 . S
C6190 C1033 1.154 . S
C6202 C837 1.211 . S
C6217 C1047 1.168 . S
C6229 C851 1.181 . S
C6244 C1019 1.210 . S
C6256 C865 1.153 . S
C6271 C1117 1.189 . S
C6283 C879 1.191 . S
C6298 C1103 1.170 . S
C6310 C893 1.180 . S
C6325 C1131 1.160 . S
C6337 C1271 1.211 . S
C6352 C1285 1.209 . S
C6364 C1145 1.153 . S
C6379 C1159 1.189 . S
C6391 C1243 1.191 . S
C6406 C1257 1.207 . S
C6418 C1173 1.168 . S
C6433 C1187 1.156 . S
C6445 C1341 1.211 . S
C6460 C1201 1.159 . S
C6472 C1327 1.211 . S
C6487 C1313 1.212 . S
C6499 C1215 1.159 . S
C6514 C1229 1.166 . S
C6526 C1299 1.184 . S
