# Generated by pormake.
# Topology vbm, (6)-cn, num edge types: 1
# Building blocks:
#     Node 0, Type 0, BuildingBlock: BETFEN_clean_sbu_0, # of connection points: 6
#     Node 1, Type 0, BuildingBlock: BETFEN_clean_sbu_0, # of connection points: 6
#     Node 2, Type 0, BuildingBlock: BETFEN_clean_sbu_0, # of connection points: 6
#     Node 3, Type 0, BuildingBlock: BETFEN_clean_sbu_0, # of connection points: 6
#     Node 4, Type 0, BuildingBlock: BETFEN_clean_sbu_0, # of connection points: 6
#     Node 5, Type 0, BuildingBlock: BETFEN_clean_sbu_0, # of connection points: 6
#     Node 6, Type 0, BuildingBlock: BETFEN_clean_sbu_0, # of connection points: 6
#     Node 7, Type 0, BuildingBlock: BETFEN_clean_sbu_0, # of connection points: 6
#     Node 8, Type 0, BuildingBlock: BETFEN_clean_sbu_0, # of connection points: 6
#     Node 9, Type 0, BuildingBlock: BETFEN_clean_sbu_0, # of connection points: 6
#     Node 10, Type 0, BuildingBlock: BETFEN_clean_sbu_0, # of connection points: 6
#     Node 11, Type 0, BuildingBlock: BETFEN_clean_sbu_0, # of connection points: 6
#     Node 12, Type 0, BuildingBlock: BETFEN_clean_sbu_0, # of connection points: 6
#     Node 13, Type 0, BuildingBlock: BETFEN_clean_sbu_0, # of connection points: 6
#     Node 14, Type 0, BuildingBlock: BETFEN_clean_sbu_0, # of connection points: 6
#     Node 15, Type 0, BuildingBlock: BETFEN_clean_sbu_0, # of connection points: 6
#     Edge 16, Type (0, 0), BuildingBlock: EZIPEK_clean_linker_0, # of connection points: 2
#     Edge 17, Type (0, 0), BuildingBlock: EZIPEK_clean_linker_0, # of connection points: 2
#     Edge 18, Type (0, 0), BuildingBlock: EZIPEK_clean_linker_0, # of connection points: 2
#     Edge 19, Type (0, 0), BuildingBlock: EZIPEK_clean_linker_0, # of connection points: 2
#     Edge 20, Type (0, 0), BuildingBlock: EZIPEK_clean_linker_0, # of connection points: 2
#     Edge 21, Type (0, 0), BuildingBlock: EZIPEK_clean_linker_0, # of connection points: 2
#     Edge 22, Type (0, 0), BuildingBlock: EZIPEK_clean_linker_0, # of connection points: 2
#     Edge 23, Type (0, 0), BuildingBlock: EZIPEK_clean_linker_0, # of connection points: 2
#     Edge 24, Type (0, 0), BuildingBlock: EZIPEK_clean_linker_0, # of connection points: 2
#     Edge 25, Type (0, 0), BuildingBlock: EZIPEK_clean_linker_0, # of connection points: 2
#     Edge 26, Type (0, 0), BuildingBlock: EZIPEK_clean_linker_0, # of connection points: 2
#     Edge 27, Type (0, 0), BuildingBlock: EZIPEK_clean_linker_0, # of connection points: 2
#     Edge 28, Type (0, 0), BuildingBlock: EZIPEK_clean_linker_0, # of connection points: 2
#     Edge 29, Type (0, 0), BuildingBlock: EZIPEK_clean_linker_0, # of connection points: 2
#     Edge 30, Type (0, 0), BuildingBlock: EZIPEK_clean_linker_0, # of connection points: 2
#     Edge 31, Type (0, 0), BuildingBlock: EZIPEK_clean_linker_0, # of connection points: 2
#     Edge 32, Type (0, 0), BuildingBlock: EZIPEK_clean_linker_0, # of connection points: 2
#     Edge 33, Type (0, 0), BuildingBlock: EZIPEK_clean_linker_0, # of connection points: 2
#     Edge 34, Type (0, 0), BuildingBlock: EZIPEK_clean_linker_0, # of connection points: 2
#     Edge 35, Type (0, 0), BuildingBlock: EZIPEK_clean_linker_0, # of connection points: 2
#     Edge 36, Type (0, 0), BuildingBlock: EZIPEK_clean_linker_0, # of connection points: 2
#     Edge 37, Type (0, 0), BuildingBlock: EZIPEK_clean_linker_0, # of connection points: 2
#     Edge 38, Type (0, 0), BuildingBlock: EZIPEK_clean_linker_0, # of connection points: 2
#     Edge 39, Type (0, 0), BuildingBlock: EZIPEK_clean_linker_0, # of connection points: 2
#     Edge 40, Type (0, 0), BuildingBlock: EZIPEK_clean_linker_0, # of connection points: 2
#     Edge 41, Type (0, 0), BuildingBlock: EZIPEK_clean_linker_0, # of connection points: 2
#     Edge 42, Type (0, 0), BuildingBlock: EZIPEK_clean_linker_0, # of connection points: 2
#     Edge 43, Type (0, 0), BuildingBlock: EZIPEK_clean_linker_0, # of connection points: 2
#     Edge 44, Type (0, 0), BuildingBlock: EZIPEK_clean_linker_0, # of connection points: 2
#     Edge 45, Type (0, 0), BuildingBlock: EZIPEK_clean_linker_0, # of connection points: 2
#     Edge 46, Type (0, 0), BuildingBlock: EZIPEK_clean_linker_0, # of connection points: 2
#     Edge 47, Type (0, 0), BuildingBlock: EZIPEK_clean_linker_0, # of connection points: 2
#     Edge 48, Type (0, 0), BuildingBlock: EZIPEK_clean_linker_0, # of connection points: 2
#     Edge 49, Type (0, 0), BuildingBlock: EZIPEK_clean_linker_0, # of connection points: 2
#     Edge 50, Type (0, 0), BuildingBlock: EZIPEK_clean_linker_0, # of connection points: 2
#     Edge 51, Type (0, 0), BuildingBlock: EZIPEK_clean_linker_0, # of connection points: 2
#     Edge 52, Type (0, 0), BuildingBlock: EZIPEK_clean_linker_0, # of connection points: 2
#     Edge 53, Type (0, 0), BuildingBlock: EZIPEK_clean_linker_0, # of connection points: 2
#     Edge 54, Type (0, 0), BuildingBlock: EZIPEK_clean_linker_0, # of connection points: 2
#     Edge 55, Type (0, 0), BuildingBlock: EZIPEK_clean_linker_0, # of connection points: 2
#     Edge 56, Type (0, 0), BuildingBlock: EZIPEK_clean_linker_0, # of connection points: 2
#     Edge 57, Type (0, 0), BuildingBlock: EZIPEK_clean_linker_0, # of connection points: 2
#     Edge 58, Type (0, 0), BuildingBlock: EZIPEK_clean_linker_0, # of connection points: 2
#     Edge 59, Type (0, 0), BuildingBlock: EZIPEK_clean_linker_0, # of connection points: 2
#     Edge 60, Type (0, 0), BuildingBlock: EZIPEK_clean_linker_0, # of connection points: 2
#     Edge 61, Type (0, 0), BuildingBlock: EZIPEK_clean_linker_0, # of connection points: 2
#     Edge 62, Type (0, 0), BuildingBlock: EZIPEK_clean_linker_0, # of connection points: 2
#     Edge 63, Type (0, 0), BuildingBlock: EZIPEK_clean_linker_0, # of connection points: 2
# Relax obj value: 0.068
# Max RMSD: 0.152
# Mean RMSD: 0.152
data_MOF--net-vbm--node1-BETFEN_clean_sbu_0--edge1-EZIPEK_clean_linker_0
_symmetry_space_group_name_H-M    P1
_symmetry_Int_Tables_number       1
_symmetry_cell_setting            triclinic
loop_
_symmetry_equiv_pos_as_xyz
'x, y, z'
_cell_length_a     39.92549
_cell_length_b     21.686406
_cell_length_c     41.127994
_cell_angle_alpha  89.749537
_cell_angle_beta   90.001716
_cell_angle_gamma 89.91102
loop_
_atom_site_label
_atom_site_type_symbol
_atom_site_fract_x
_atom_site_fract_y
_atom_site_fract_z
_atom_type_partial_charge
Pr0 Pr 0.13758 0.06742 0.14441 0.0
Pr1 Pr 0.10366 0.18671 0.15227 0.0
C2 C 0.16026 0.95014 0.14965 0.0
C3 C 0.15124 0.88463 0.14559 0.0
C4 C 0.17466 0.84412 0.13178 0.0
C5 C 0.16832 0.78075 0.13077 0.0
C6 C 0.13851 0.75691 0.14377 0.0
C7 C 0.11461 0.79747 0.15678 0.0
C8 C 0.12087 0.86094 0.15762 0.0
C9 C 0.12761 0.12555 0.08428 0.0
C10 C 0.05337 0.07492 0.14516 0.0
C11 C 0.08232 0.30478 0.15509 0.0
C12 C 0.09505 0.36868 0.15383 0.0
C13 C 0.08742 0.40899 0.17942 0.0
C14 C 0.09685 0.47096 0.17781 0.0
C15 C 0.11398 0.49364 0.15052 0.0
C16 C 0.12264 0.45314 0.12534 0.0
C17 C 0.11329 0.39101 0.12698 0.0
C18 C 0.11477 0.12189 0.21112 0.0
C19 C 0.18448 0.18832 0.14654 0.0
O20 O 0.14578 0.98009 0.17326 0.0
O21 O 0.1646 0.98374 0.12356 0.0
O22 O 0.10598 0.12362 0.10688 0.0
O23 O 0.15499 0.0974 0.09262 0.0
O24 O 0.05587 0.13402 0.13903 0.0
O25 O 0.08018 0.041 0.15173 0.0
O26 O 0.08282 0.27262 0.12828 0.0
O27 O 0.08979 0.27221 0.18085 0.0
O28 O 0.13611 0.12963 0.18884 0.0
O29 O 0.08638 0.1456 0.20226 0.0
O30 O 0.18409 0.13004 0.15577 0.0
O31 O 0.15703 0.21686 0.13786 0.0
H32 H 0.19829 0.86136 0.12252 0.0
H33 H 0.18699 0.7501 0.12059 0.0
H34 H 0.09144 0.77982 0.16684 0.0
H35 H 0.10235 0.89119 0.16837 0.0
H36 H 0.07349 0.3928 0.20039 0.0
H37 H 0.09007 0.50161 0.19748 0.0
H38 H 0.13597 0.46998 0.10416 0.0
H39 H 0.11976 0.36089 0.107 0.0
Pr40 Pr 0.83397 0.98667 0.14295 0.0
Pr41 Pr 0.86871 0.86733 0.15218 0.0
C42 C 0.81082 0.10342 0.14885 0.0
C43 C 0.81982 0.16924 0.14529 0.0
C44 C 0.79794 0.20914 0.12866 0.0
C45 C 0.80427 0.27256 0.12742 0.0
C46 C 0.83241 0.29721 0.14313 0.0
C47 C 0.85472 0.25728 0.15921 0.0
C48 C 0.84856 0.19376 0.16021 0.0
C49 C 0.84305 0.92688 0.08372 0.0
C50 C 0.91873 0.97879 0.14169 0.0
C51 C 0.88856 0.74894 0.15857 0.0
C52 C 0.87618 0.68514 0.15502 0.0
C53 C 0.87715 0.64553 0.18211 0.0
C54 C 0.86768 0.58383 0.17925 0.0
C55 C 0.85712 0.5606 0.1492 0.0
C56 C 0.8551 0.6004 0.12223 0.0
C57 C 0.86456 0.66233 0.12509 0.0
C58 C 0.85939 0.93563 0.20959 0.0
C59 C 0.78858 0.86435 0.14367 0.0
O60 O 0.82487 0.07245 0.17252 0.0
O61 O 0.8069 0.07088 0.12246 0.0
O62 O 0.86499 0.92896 0.10603 0.0
O63 O 0.81609 0.95669 0.09171 0.0
O64 O 0.9169 0.91861 0.13992 0.0
O65 O 0.89167 1.01382 0.14513 0.0
O66 O 0.89385 0.78168 0.13225 0.0
O67 O 0.87588 0.78099 0.18239 0.0
O68 O 0.83733 0.92627 0.18819 0.0
O69 O 0.88774 0.91238 0.20028 0.0
O70 O 0.78819 0.92188 0.15391 0.0
O71 O 0.81642 0.83766 0.13487 0.0
H72 H 0.77553 0.19138 0.11719 0.0
H73 H 0.78681 0.30265 0.11487 0.0
H74 H 0.87661 0.27547 0.1714 0.0
H75 H 0.86589 0.16412 0.17321 0.0
H76 H 0.88588 0.6621 0.20544 0.0
H77 H 0.86928 0.5538 0.20032 0.0
H78 H 0.84689 0.58316 0.09888 0.0
H79 H 0.8633 0.69192 0.10384 0.0
Pr80 Pr 0.13649 0.99725 0.38745 0.0
Pr81 Pr 0.10548 0.87253 0.37578 0.0
C82 C 0.16516 0.1095 0.38237 0.0
C83 C 0.15658 0.17553 0.38556 0.0
C84 C 0.17914 0.21568 0.40083 0.0
C85 C 0.17268 0.27913 0.40179 0.0
C86 C 0.14363 0.30337 0.38729 0.0
C87 C 0.12069 0.26317 0.37261 0.0
C88 C 0.12703 0.19973 0.37184 0.0
C89 C 0.1156 0.94227 0.44561 0.0
C90 C 0.05434 0.98128 0.38946 0.0
C91 C 0.08597 0.75447 0.36829 0.0
C92 C 0.09709 0.69016 0.37281 0.0
C93 C 0.0906 0.64768 0.34797 0.0
C94 C 0.10011 0.58602 0.35139 0.0
C95 C 0.11624 0.56577 0.37976 0.0
C96 C 0.12336 0.60831 0.4045 0.0
C97 C 0.1139 0.67029 0.40102 0.0
C98 C 0.11003 0.95063 0.32058 0.0
C99 C 0.18659 0.87514 0.38544 0.0
O100 O 0.15166 0.08024 0.35791 0.0
O101 O 0.16679 0.07621 0.40895 0.0
O102 O 0.13001 0.91367 0.42258 0.0
O103 O 0.11124 1.0 0.43821 0.0
O104 O 0.06015 0.92369 0.39745 0.0
O105 O 0.07883 1.01752 0.37897 0.0
O106 O 0.07868 0.78707 0.3941 0.0
O107 O 0.1013 0.78606 0.34566 0.0
O108 O 0.13239 0.94122 0.34152 0.0
O109 O 0.08402 0.9175 0.32732 0.0
O110 O 0.1856 0.93613 0.3863 0.0
O111 O 0.15966 0.84114 0.38342 0.0
H112 H 0.20209 0.19809 0.41147 0.0
H113 H 0.19061 0.30951 0.41326 0.0
H114 H 0.09813 0.28108 0.36135 0.0
H115 H 0.10913 0.16982 0.35996 0.0
H116 H 0.07789 0.6622 0.32594 0.0
H117 H 0.09452 0.55385 0.33206 0.0
H118 H 0.13592 0.59336 0.42651 0.0
H119 H 0.1195 0.70243 0.42036 0.0
Pr120 Pr 0.83397 0.07253 0.37976 0.0
Pr121 Pr 0.87163 0.19211 0.3683 0.0
C122 C 0.81132 0.95593 0.37248 0.0
C123 C 0.8221 0.89066 0.37544 0.0
C124 C 0.80475 0.85058 0.39617 0.0
C125 C 0.81414 0.78853 0.39891 0.0
C126 C 0.84251 0.76472 0.38236 0.0
C127 C 0.85687 0.80423 0.35857 0.0
C128 C 0.84763 0.86633 0.35589 0.0
C129 C 0.84315 0.13563 0.43774 0.0
C130 C 0.91906 0.07562 0.38363 0.0
C131 C 0.89116 0.31058 0.36255 0.0
C132 C 0.87981 0.37442 0.36919 0.0
C133 C 0.85279 0.40136 0.35213 0.0
C134 C 0.84512 0.46402 0.35604 0.0
C135 C 0.86426 0.50046 0.37712 0.0
C136 C 0.89032 0.47317 0.39499 0.0
C137 C 0.89807 0.41082 0.39102 0.0
C138 C 0.8635 0.1185 0.3129 0.0
C139 C 0.79085 0.19807 0.37754 0.0
O140 O 0.82435 0.98865 0.34888 0.0
O141 O 0.80726 0.98737 0.39928 0.0
O142 O 0.86523 0.13234 0.41541 0.0
O143 O 0.816 0.10576 0.43023 0.0
O144 O 0.91909 0.1357 0.37909 0.0
O145 O 0.89091 0.04341 0.38474 0.0
O146 O 0.89975 0.27567 0.38729 0.0
O147 O 0.87565 0.28045 0.33959 0.0
O148 O 0.84133 0.12945 0.33404 0.0
O149 O 0.89015 0.1506 0.31875 0.0
O150 O 0.78902 0.13956 0.36904 0.0
O151 O 0.81935 0.22396 0.38496 0.0
H152 H 0.78337 0.867 0.4099 0.0
H153 H 0.79807 0.75966 0.41351 0.0
H154 H 0.87471 0.78803 0.3409 0.0
H155 H 0.86014 0.89487 0.33795 0.0
H156 H 0.83817 0.37462 0.33509 0.0
H157 H 0.82493 0.4844 0.34204 0.0
H158 H 0.90535 0.50073 0.41133 0.0
H159 H 0.91905 0.39148 0.40432 0.0
Pr160 Pr 0.87067 0.88058 0.87413 0.0
Pr161 Pr 0.83357 0.99701 0.88943 0.0
C162 C 0.88977 0.76252 0.86452 0.0
C163 C 0.87791 0.69844 0.87027 0.0
C164 C 0.84923 0.67505 0.8546 0.0
C165 C 0.84056 0.61266 0.85776 0.0
C166 C 0.86017 0.57262 0.87684 0.0
C167 C 0.88796 0.59648 0.89351 0.0
C168 C 0.89683 0.65862 0.8901 0.0
C169 C 0.86099 0.95999 0.8208 0.0
C170 C 0.78997 0.87146 0.88617 0.0
C171 C 0.81007 0.11433 0.88687 0.0
C172 C 0.82057 0.18016 0.88546 0.0
C173 C 0.82638 0.21391 0.91408 0.0
C174 C 0.83346 0.27718 0.91264 0.0
C175 C 0.83461 0.30815 0.8826 0.0
C176 C 0.82924 0.27455 0.85397 0.0
C177 C 0.82226 0.2113 0.85537 0.0
C178 C 0.84276 0.92699 0.94518 0.0
C179 C 0.91915 0.99172 0.8934 0.0
O180 O 0.89933 0.79466 0.88975 0.0
O181 O 0.87387 0.79556 0.84276 0.0
O182 O 0.83901 0.94569 0.84152 0.0
O183 O 0.88929 0.93309 0.82707 0.0
O184 O 0.78764 0.93127 0.8804 0.0
O185 O 0.81893 0.84464 0.89076 0.0
O186 O 0.81528 0.08047 0.86115 0.0
O187 O 0.81423 0.08372 0.91404 0.0
O188 O 0.86483 0.93332 0.92309 0.0
O189 O 0.8154 0.95706 0.93835 0.0
O190 O 0.91864 0.93212 0.88793 0.0
O191 O 0.89118 1.02471 0.89395 0.0
H192 H 0.83392 0.70447 0.83927 0.0
H193 H 0.81897 0.59528 0.84475 0.0
H194 H 0.90341 0.56645 0.90837 0.0
H195 H 0.91904 0.67524 0.90238 0.0
H196 H 0.82491 0.19171 0.93768 0.0
H197 H 0.83756 0.30225 0.93501 0.0
H198 H 0.83003 0.29753 0.83054 0.0
H199 H 0.81758 0.18703 0.83286 0.0
Pr200 Pr 0.1062 0.18848 0.87671 0.0
Pr201 Pr 0.13947 0.06924 0.88609 0.0
C202 C 0.08671 0.30727 0.87127 0.0
C203 C 0.09979 0.37064 0.87476 0.0
C204 C 0.1001 0.40983 0.84748 0.0
C205 C 0.10989 0.47135 0.85042 0.0
C206 C 0.11947 0.49478 0.88073 0.0
C207 C 0.12033 0.45534 0.90789 0.0
C208 C 0.11055 0.39364 0.90495 0.0
C209 C 0.11533 0.12144 0.81868 0.0
C210 C 0.18634 0.19011 0.88433 0.0
C211 C 0.16278 0.95244 0.88127 0.0
C212 C 0.15425 0.88652 0.88509 0.0
C213 C 0.17604 0.84765 0.9025 0.0
C214 C 0.17038 0.78403 0.90376 0.0
C215 C 0.14303 0.75822 0.88727 0.0
C216 C 0.1208 0.79711 0.87043 0.0
C217 C 0.12627 0.86079 0.86942 0.0
C218 C 0.12899 0.12918 0.94557 0.0
C219 C 0.05499 0.07784 0.88655 0.0
O220 O 0.08211 0.27426 0.89759 0.0
O221 O 0.09823 0.27519 0.84693 0.0
O222 O 0.13737 0.12912 0.84035 0.0
O223 O 0.08735 0.14604 0.82793 0.0
O224 O 0.18592 0.13245 0.87432 0.0
O225 O 0.15886 0.21737 0.89374 0.0
O226 O 0.14868 0.98259 0.85735 0.0
O227 O 0.16643 0.98565 0.90746 0.0
O228 O 0.10783 0.1264 0.92269 0.0
O229 O 0.15643 0.10046 0.93787 0.0
O230 O 0.05781 0.13775 0.88956 0.0
O231 O 0.08159 0.04222 0.88174 0.0
H232 H 0.09201 0.39318 0.82395 0.0
H233 H 0.10916 0.50116 0.82922 0.0
H234 H 0.12773 0.47278 0.93145 0.0
H235 H 0.11079 0.36445 0.92639 0.0
H236 H 0.19791 0.86636 0.91452 0.0
H237 H 0.18775 0.75472 0.91693 0.0
H238 H 0.09949 0.77799 0.85768 0.0
H239 H 0.10904 0.88961 0.8558 0.0
Pr240 Pr 0.86602 0.18433 0.64867 0.0
Pr241 Pr 0.83675 0.06944 0.63461 0.0
C242 C 0.87964 0.30363 0.66078 0.0
C243 C 0.86692 0.36596 0.65303 0.0
C244 C 0.84035 0.39227 0.67082 0.0
C245 C 0.83109 0.45376 0.66562 0.0
C246 C 0.84813 0.4894 0.64245 0.0
C247 C 0.87362 0.46257 0.62379 0.0
C248 C 0.88308 0.40151 0.62916 0.0
C249 C 0.85604 0.10856 0.70386 0.0
C250 C 0.78797 0.18494 0.63888 0.0
C251 C 0.82356 0.94842 0.63748 0.0
C252 C 0.81868 0.88136 0.64104 0.0
C253 C 0.79775 0.84852 0.62008 0.0
C254 C 0.8002 0.78411 0.61833 0.0
C255 C 0.82534 0.75183 0.63587 0.0
C256 C 0.84081 0.78459 0.66143 0.0
C257 C 0.83833 0.84849 0.66339 0.0
C258 C 0.84554 0.13352 0.57617 0.0
C259 C 0.92125 0.08451 0.63726 0.0
O260 O 0.89398 0.2726 0.6374 0.0
O261 O 0.86135 0.26921 0.67985 0.0
O262 O 0.83444 0.12022 0.68252 0.0
O263 O 0.88433 0.13382 0.69618 0.0
O264 O 0.78972 0.12824 0.65051 0.0
O265 O 0.81485 0.21075 0.6272 0.0
O266 O 0.84843 0.97483 0.65249 0.0
O267 O 0.80441 0.98555 0.62042 0.0
O268 O 0.86689 0.13236 0.59907 0.0
O269 O 0.81964 0.09981 0.58299 0.0
O270 O 0.91716 0.14419 0.63609 0.0
O271 O 0.89517 0.04734 0.64006 0.0
H272 H 0.8274 0.3661 0.68945 0.0
H273 H 0.81145 0.47405 0.68029 0.0
H274 H 0.88713 0.48979 0.60597 0.0
H275 H 0.90374 0.38275 0.61527 0.0
H276 H 0.78054 0.87259 0.60407 0.0
H277 H 0.78237 0.76152 0.60287 0.0
H278 H 0.85635 0.7616 0.67932 0.0
H279 H 0.85317 0.87223 0.68149 0.0
Pr280 Pr 0.10391 0.879 0.65259 0.0
Pr281 Pr 0.14025 1.00184 0.64182 0.0
C282 C 0.08407 0.76022 0.65705 0.0
C283 C 0.09669 0.69659 0.65138 0.0
C284 C 0.1243 0.67273 0.66875 0.0
C285 C 0.13355 0.61062 0.66567 0.0
C286 C 0.1156 0.57121 0.64503 0.0
C287 C 0.08891 0.59552 0.62672 0.0
C288 C 0.07947 0.65748 0.62998 0.0
C289 C 0.10826 0.95576 0.70754 0.0
C290 C 0.18639 0.87564 0.64549 0.0
C291 C 0.16944 0.11339 0.64891 0.0
C292 C 0.16102 0.18022 0.64651 0.0
C293 C 0.15517 0.20971 0.61644 0.0
C294 C 0.14764 0.273 0.61513 0.0
C295 C 0.14591 0.30796 0.64379 0.0
C296 C 0.15169 0.27862 0.67374 0.0
C297 C 0.15922 0.21558 0.67508 0.0
C298 C 0.11823 0.94857 0.58359 0.0
C299 C 0.05777 0.99747 0.63558 0.0
O300 O 0.07752 0.79493 0.63166 0.0
O301 O 0.09718 0.79092 0.68121 0.0
O302 O 0.13133 0.94499 0.68746 0.0
O303 O 0.08164 0.92449 0.70015 0.0
O304 O 0.18749 0.93654 0.64345 0.0
O305 O 0.15832 0.84478 0.64803 0.0
O306 O 0.15544 0.08287 0.67283 0.0
O307 O 0.17185 0.08097 0.62216 0.0
O308 O 0.13127 0.91905 0.60712 0.0
O309 O 0.1168 1.00713 0.59006 0.0
O310 O 0.06006 0.9373 0.63167 0.0
O311 O 0.08359 1.02899 0.64668 0.0
H312 H 0.13827 0.70155 0.68535 0.0
H313 H 0.15425 0.5929 0.67998 0.0
H314 H 0.07474 0.56597 0.61063 0.0
H315 H 0.05811 0.67447 0.61637 0.0
H316 H 0.15639 0.18402 0.59396 0.0
H317 H 0.14318 0.29476 0.59177 0.0
H318 H 0.15042 0.30464 0.69614 0.0
H319 H 0.16372 0.1944 0.69859 0.0
Pr320 Pr 0.63381 0.56693 0.14154 0.0
Pr321 Pr 0.60291 0.69154 0.15179 0.0
C322 C 0.66263 0.45485 0.14782 0.0
C323 C 0.65446 0.38833 0.14545 0.0
C324 C 0.66222 0.35483 0.1172 0.0
C325 C 0.65588 0.29141 0.1157 0.0
C326 C 0.642 0.26047 0.14252 0.0
C327 C 0.63414 0.29365 0.17067 0.0
C328 C 0.64035 0.35692 0.17217 0.0
C329 C 0.61383 0.6208 0.0827 0.0
C330 C 0.55164 0.58283 0.13905 0.0
C331 C 0.58429 0.81036 0.1576 0.0
C332 C 0.5972 0.87368 0.15282 0.0
C333 C 0.60899 0.90712 0.17974 0.0
C334 C 0.61865 0.96862 0.1763 0.0
C335 C 0.6165 0.9979 0.14596 0.0
C336 C 0.60564 0.96449 0.11881 0.0
C337 C 0.59601 0.90278 0.1222 0.0
C338 C 0.60543 0.61532 0.2077 0.0
C339 C 0.68434 0.6877 0.14444 0.0
O340 O 0.64919 0.48513 0.17198 0.0
O341 O 0.66423 0.48736 0.12096 0.0
O342 O 0.62813 0.64964 0.10565 0.0
O343 O 0.60938 0.56324 0.09037 0.0
O344 O 0.55732 0.64027 0.13073 0.0
O345 O 0.57617 0.54659 0.14953 0.0
O346 O 0.57727 0.77721 0.13191 0.0
O347 O 0.59771 0.77827 0.18122 0.0
O348 O 0.62859 0.62332 0.18739 0.0
O349 O 0.57988 0.6489 0.19977 0.0
O350 O 0.68312 0.62685 0.14309 0.0
O351 O 0.65752 0.72213 0.14635 0.0
H352 H 0.67346 0.37748 0.09638 0.0
H353 H 0.6621 0.26632 0.09379 0.0
H354 H 0.62341 0.27039 0.19158 0.0
H355 H 0.63438 0.38099 0.19446 0.0
H356 H 0.60996 0.8862 0.20369 0.0
H357 H 0.62684 0.99396 0.1975 0.0
H358 H 0.60375 0.9867 0.09524 0.0
H359 H 0.58693 0.87844 0.10103 0.0
Pr360 Pr 0.3325 0.49262 0.14361 0.0
Pr361 Pr 0.36777 0.37413 0.15338 0.0
C362 C 0.31006 0.6099 0.1496 0.0
C363 C 0.31895 0.6756 0.14501 0.0
C364 C 0.29487 0.71657 0.1325 0.0
C365 C 0.30122 0.78002 0.13125 0.0
C366 C 0.33172 0.80363 0.14273 0.0
C367 C 0.35623 0.76261 0.15443 0.0
C368 C 0.34995 0.69908 0.1555 0.0
C369 C 0.34383 0.43383 0.08424 0.0
C370 C 0.41723 0.48646 0.14232 0.0
C371 C 0.38834 0.25583 0.15933 0.0
C372 C 0.37643 0.19165 0.15605 0.0
C373 C 0.38424 0.14895 0.18066 0.0
C374 C 0.37485 0.08715 0.17777 0.0
C375 C 0.35749 0.0669 0.15018 0.0
C376 C 0.34883 0.10976 0.12584 0.0
C377 C 0.35819 0.17182 0.12876 0.0
C378 C 0.35721 0.44241 0.2107 0.0
C379 C 0.2875 0.36968 0.14489 0.0
O380 O 0.32572 0.57972 0.17258 0.0
O381 O 0.30424 0.57639 0.12387 0.0
O382 O 0.36491 0.43628 0.10728 0.0
O383 O 0.31635 0.46263 0.0917 0.0
O384 O 0.41583 0.42616 0.14114 0.0
O385 O 0.38997 0.52086 0.14566 0.0
O386 O 0.39249 0.28858 0.13285 0.0
O387 O 0.37611 0.28765 0.18345 0.0
O388 O 0.33549 0.43237 0.18906 0.0
O389 O 0.38585 0.41948 0.20189 0.0
O390 O 0.28672 0.4277 0.15437 0.0
O391 O 0.31554 0.34381 0.13584 0.0
H392 H 0.27073 0.69962 0.12448 0.0
H393 H 0.28202 0.81092 0.12212 0.0
H394 H 0.37993 0.77996 0.16333 0.0
H395 H 0.369 0.66857 0.16528 0.0
H396 H 0.39809 0.1633 0.20198 0.0
H397 H 0.38161 0.05483 0.19684 0.0
H398 H 0.33528 0.09494 0.10444 0.0
H399 H 0.35154 0.20397 0.10958 0.0
Pr400 Pr 0.63628 0.49783 0.38664 0.0
Pr401 Pr 0.60515 0.37266 0.37646 0.0
C402 C 0.66508 0.60947 0.3794 0.0
C403 C 0.65739 0.67607 0.38207 0.0
C404 C 0.65334 0.70508 0.41237 0.0
C405 C 0.64661 0.76842 0.41395 0.0
C406 C 0.64389 0.8035 0.3853 0.0
C407 C 0.64786 0.77472 0.35512 0.0
C408 C 0.65467 0.71166 0.35352 0.0
C409 C 0.61694 0.44371 0.44554 0.0
C410 C 0.55407 0.48196 0.39076 0.0
C411 C 0.58613 0.25407 0.37169 0.0
C412 C 0.59886 0.19079 0.37718 0.0
C413 C 0.62178 0.16374 0.35543 0.0
C414 C 0.63081 0.10178 0.35877 0.0
C415 C 0.61718 0.06594 0.38392 0.0
C416 C 0.59533 0.09324 0.40638 0.0
C417 C 0.58612 0.15513 0.40294 0.0
C418 C 0.60717 0.44944 0.32075 0.0
C419 C 0.6866 0.37586 0.38281 0.0
O420 O 0.65019 0.58003 0.35579 0.0
O421 O 0.66783 0.57659 0.40608 0.0
O422 O 0.63076 0.41478 0.42229 0.0
O423 O 0.61319 0.50168 0.43836 0.0
O424 O 0.55998 0.42411 0.3981 0.0
O425 O 0.5783 0.51871 0.3802 0.0
O426 O 0.5794 0.28791 0.39721 0.0
O427 O 0.59935 0.28539 0.3477 0.0
O428 O 0.63037 0.44141 0.341 0.0
O429 O 0.58203 0.41479 0.32839 0.0
O430 O 0.68545 0.4368 0.3843 0.0
O431 O 0.65971 0.3417 0.38121 0.0
H432 H 0.6554 0.67903 0.43481 0.0
H433 H 0.64357 0.79013 0.43744 0.0
H434 H 0.64581 0.80121 0.33281 0.0
H435 H 0.6579 0.69066 0.32986 0.0
H436 H 0.63207 0.18979 0.33525 0.0
H437 H 0.64767 0.08129 0.34122 0.0
H438 H 0.58457 0.06604 0.4259 0.0
H439 H 0.5683 0.17463 0.41991 0.0
Pr440 Pr 0.33322 0.57052 0.38726 0.0
Pr441 Pr 0.37125 0.68811 0.37432 0.0
C442 C 0.31052 0.45373 0.38069 0.0
C443 C 0.32066 0.38777 0.38186 0.0
C444 C 0.32297 0.35527 0.41149 0.0
C445 C 0.3301 0.29191 0.41182 0.0
C446 C 0.33473 0.25983 0.38255 0.0
C447 C 0.3328 0.29225 0.35301 0.0
C448 C 0.32585 0.35549 0.35266 0.0
C449 C 0.3427 0.63564 0.44459 0.0
C450 C 0.41836 0.57257 0.39162 0.0
C451 C 0.39091 0.80645 0.36761 0.0
C452 C 0.37856 0.87009 0.37335 0.0
C453 C 0.35134 0.89466 0.35569 0.0
C454 C 0.34247 0.95688 0.3588 0.0
C455 C 0.36044 0.99557 0.37979 0.0
C456 C 0.38663 0.9705 0.39847 0.0
C457 C 0.39572 0.90848 0.39513 0.0
C458 C 0.3621 0.61278 0.3196 0.0
C459 C 0.29038 0.69616 0.38402 0.0
O460 O 0.32203 0.48692 0.35654 0.0
O461 O 0.30827 0.48461 0.40789 0.0
O462 O 0.36473 0.63106 0.42228 0.0
O463 O 0.31536 0.60598 0.43741 0.0
O464 O 0.41859 0.63237 0.38619 0.0
O465 O 0.39005 0.54093 0.39228 0.0
O466 O 0.39883 0.77265 0.39296 0.0
O467 O 0.37649 0.77499 0.34448 0.0
O468 O 0.34009 0.62547 0.34063 0.0
O469 O 0.38961 0.64238 0.3256 0.0
O470 O 0.28814 0.63719 0.3766 0.0
O471 O 0.31913 0.72198 0.39057 0.0
H472 H 0.31884 0.37849 0.4344 0.0
H473 H 0.33155 0.26769 0.43486 0.0
H474 H 0.33635 0.26838 0.33018 0.0
H475 H 0.32395 0.37893 0.32941 0.0
H476 H 0.33745 0.8664 0.33876 0.0
H477 H 0.32215 0.97527 0.34422 0.0
H478 H 0.40079 0.99958 0.4148 0.0
H479 H 0.4168 0.89093 0.40894 0.0
Pr480 Pr 0.36754 0.37446 0.87393 0.0
Pr481 Pr 0.33371 0.49914 0.88444 0.0
C482 C 0.38676 0.25635 0.86516 0.0
C483 C 0.37639 0.19258 0.87197 0.0
C484 C 0.39954 0.1449 0.86714 0.0
C485 C 0.38975 0.08342 0.87054 0.0
C486 C 0.35666 0.06878 0.87894 0.0
C487 C 0.33351 0.11647 0.88448 0.0
C488 C 0.3433 0.17818 0.8809 0.0
C489 C 0.35643 0.44639 0.81766 0.0
C490 C 0.28729 0.37462 0.88585 0.0
C491 C 0.31098 0.61363 0.87111 0.0
C492 C 0.31645 0.67929 0.8787 0.0
C493 C 0.28913 0.7201 0.87852 0.0
C494 C 0.2943 0.78374 0.88107 0.0
C495 C 0.32692 0.80739 0.88361 0.0
C496 C 0.35417 0.7665 0.88502 0.0
C497 C 0.34899 0.70288 0.8827 0.0
C498 C 0.34918 0.45596 0.94699 0.0
C499 C 0.41761 0.48563 0.88511 0.0
O500 O 0.3972 0.28976 0.88956 0.0
O501 O 0.36817 0.28706 0.84459 0.0
O502 O 0.33555 0.43687 0.84007 0.0
O503 O 0.3849 0.42142 0.82527 0.0
O504 O 0.28667 0.43412 0.87855 0.0
O505 O 0.31533 0.34521 0.89155 0.0
O506 O 0.33489 0.58626 0.85484 0.0
O507 O 0.29709 0.57825 0.89323 0.0
O508 O 0.35575 0.42685 0.92108 0.0
O509 O 0.33491 0.50844 0.94083 0.0
O510 O 0.41392 0.42687 0.89186 0.0
O511 O 0.39167 0.52044 0.87669 0.0
H512 H 0.42507 0.15521 0.86004 0.0
H513 H 0.40788 0.04714 0.86622 0.0
H514 H 0.30784 0.10585 0.89092 0.0
H515 H 0.32499 0.21444 0.88449 0.0
H516 H 0.26388 0.70291 0.87528 0.0
H517 H 0.27299 0.81468 0.88 0.0
H518 H 0.37949 0.78398 0.88702 0.0
H519 H 0.37049 0.67234 0.88291 0.0
Pr520 Pr 0.60412 0.69293 0.87545 0.0
Pr521 Pr 0.63744 0.56753 0.88614 0.0
C522 C 0.58453 0.81188 0.87406 0.0
C523 C 0.59749 0.87504 0.87928 0.0
C524 C 0.62448 0.89836 0.86092 0.0
C525 C 0.63372 0.96041 0.86335 0.0
C526 C 0.61634 1.00006 0.88433 0.0
C527 C 0.59035 0.9763 0.90366 0.0
C528 C 0.58093 0.91438 0.90104 0.0
C529 C 0.60558 0.61828 0.81951 0.0
C530 C 0.6861 0.6915 0.88192 0.0
C531 C 0.6679 0.45687 0.88022 0.0
C532 C 0.65991 0.3901 0.88224 0.0
C533 C 0.65253 0.36084 0.91202 0.0
C534 C 0.64529 0.29759 0.91305 0.0
C535 C 0.64535 0.26262 0.88439 0.0
C536 C 0.65269 0.29166 0.85471 0.0
C537 C 0.65999 0.35468 0.85366 0.0
C538 C 0.61478 0.62055 0.94412 0.0
C539 C 0.55464 0.57548 0.88586 0.0
O540 O 0.58006 0.77633 0.89957 0.0
O541 O 0.59576 0.78225 0.84866 0.0
O542 O 0.62899 0.62383 0.84003 0.0
O543 O 0.58179 0.65656 0.82656 0.0
O544 O 0.6855 0.63118 0.88691 0.0
O545 O 0.65908 0.72402 0.87623 0.0
O546 O 0.65484 0.48714 0.85571 0.0
O547 O 0.66854 0.48904 0.90711 0.0
O548 O 0.62933 0.6497 0.9213 0.0
O549 O 0.61153 0.56263 0.93675 0.0
O550 O 0.55764 0.63535 0.89061 0.0
O551 O 0.58103 0.54029 0.88018 0.0
H552 H 0.63788 0.86921 0.84399 0.0
H553 H 0.65386 0.97791 0.84828 0.0
H554 H 0.57669 1.00623 0.92 0.0
H555 H 0.56004 0.89763 0.91537 0.0
H556 H 0.65232 0.38666 0.9345 0.0
H557 H 0.63965 0.27587 0.93618 0.0
H558 H 0.65284 0.26541 0.83236 0.0
H559 H 0.66573 0.37582 0.8304 0.0
Pr560 Pr 0.37109 0.69391 0.65357 0.0
Pr561 Pr 0.33744 0.57396 0.64058 0.0
C562 C 0.39026 0.81189 0.66232 0.0
C563 C 0.37827 0.87579 0.6581 0.0
C564 C 0.37972 0.91591 0.68474 0.0
C565 C 0.37047 0.97769 0.6813 0.0
C566 C 0.35964 1.00037 0.65111 0.0
C567 C 0.35711 0.96003 0.6246 0.0
C568 C 0.36635 0.898 0.62806 0.0
C569 C 0.36134 0.61795 0.70882 0.0
C570 C 0.29142 0.69712 0.64363 0.0
C571 C 0.31386 0.45734 0.64408 0.0
C572 C 0.32301 0.39147 0.64235 0.0
C573 C 0.30253 0.35132 0.62454 0.0
C574 C 0.30886 0.28791 0.62458 0.0
C575 C 0.33565 0.26361 0.64263 0.0
C576 C 0.35657 0.30372 0.66001 0.0
C577 C 0.35035 0.36728 0.65985 0.0
C578 C 0.34604 0.64106 0.58317 0.0
C579 C 0.4223 0.58513 0.63929 0.0
O580 O 0.39776 0.78017 0.63632 0.0
O581 O 0.37549 0.7791 0.68478 0.0
O582 O 0.33993 0.62897 0.68703 0.0
O583 O 0.38861 0.64811 0.70297 0.0
O584 O 0.29126 0.63835 0.65224 0.0
O585 O 0.31921 0.7249 0.63561 0.0
O586 O 0.32431 0.48843 0.66926 0.0
O587 O 0.31402 0.48948 0.61713 0.0
O588 O 0.36786 0.63681 0.60561 0.0
O589 O 0.31917 0.61013 0.59042 0.0
O590 O 0.4192 0.6452 0.6377 0.0
O591 O 0.3958 0.54865 0.64322 0.0
H592 H 0.38863 0.89965 0.70815 0.0
H593 H 0.37243 1.00818 0.70201 0.0
H594 H 0.34866 0.97689 0.60116 0.0
H595 H 0.36466 0.86785 0.6072 0.0
H596 H 0.28119 0.36894 0.61111 0.0
H597 H 0.2925 0.25759 0.61103 0.0
H598 H 0.37739 0.28568 0.67404 0.0
H599 H 0.3665 0.39723 0.67385 0.0
Pr600 Pr 0.6066 0.37144 0.65259 0.0
Pr601 Pr 0.64128 0.4965 0.64158 0.0
C602 C 0.58647 0.25265 0.65461 0.0
C603 C 0.59866 0.18849 0.65137 0.0
C604 C 0.58763 0.14424 0.67395 0.0
C605 C 0.59795 0.08279 0.67157 0.0
C606 C 0.6195 0.06429 0.6465 0.0
C607 C 0.63115 0.10862 0.62414 0.0
C608 C 0.62084 0.17041 0.62658 0.0
C609 C 0.607 0.44832 0.70757 0.0
C610 C 0.68869 0.37133 0.64824 0.0
C611 C 0.67157 0.60739 0.64704 0.0
C612 C 0.66335 0.67374 0.64339 0.0
C613 C 0.68829 0.71558 0.63371 0.0
C614 C 0.68158 0.77906 0.6325 0.0
C615 C 0.64981 0.80179 0.64109 0.0
C616 C 0.62463 0.75986 0.6501 0.0
C617 C 0.6313 0.69639 0.65117 0.0
C618 C 0.61862 0.44295 0.58387 0.0
C619 C 0.55828 0.48984 0.63974 0.0
O620 O 0.58416 0.28709 0.62842 0.0
O621 O 0.59676 0.28286 0.68014 0.0
O622 O 0.63097 0.44149 0.68776 0.0
O623 O 0.58321 0.41002 0.70059 0.0
O624 O 0.68872 0.43122 0.64189 0.0
O625 O 0.6614 0.34011 0.65437 0.0
O626 O 0.65732 0.57842 0.67136 0.0
O627 O 0.67327 0.57408 0.6206 0.0
O628 O 0.63283 0.41372 0.60691 0.0
O629 O 0.61574 0.5011 0.59088 0.0
O630 O 0.56063 0.42953 0.63625 0.0
O631 O 0.58492 0.52437 0.64501 0.0
H632 H 0.57075 0.15721 0.69339 0.0
H633 H 0.5888 0.04941 0.6891 0.0
H634 H 0.64794 0.09523 0.60472 0.0
H635 H 0.63003 0.2038 0.60907 0.0
H636 H 0.71318 0.69925 0.62765 0.0
H637 H 0.70133 0.8106 0.62543 0.0
H638 H 0.59997 0.77641 0.65676 0.0
H639 H 0.61158 0.66511 0.65865 0.0
C640 C 0.22052 0.26155 0.17694 0.0
C641 C 0.21474 0.22659 0.14842 0.0
C642 C 0.2498 0.29684 0.11697 0.0
C643 C 0.25793 0.32908 0.14582 0.0
N644 N 0.25525 0.33662 0.20436 0.0
N645 N 0.22952 0.20171 0.09346 0.0
C646 C 0.24433 0.31021 0.17617 0.0
C647 C 0.23122 0.24141 0.11908 0.0
N648 N 0.20266 0.24901 0.20454 0.0
N649 N 0.25917 0.32036 0.08747 0.0
H650 H 0.21661 0.15997 0.09492 0.0
H651 H 0.24341 0.20722 0.0722 0.0
H652 H 0.27176 0.36231 0.08521 0.0
H653 H 0.25153 0.3018 0.06536 0.0
H654 H 0.20247 0.27761 0.22481 0.0
H655 H 0.18668 0.21116 0.20655 0.0
H656 H 0.24926 0.31973 0.22738 0.0
H657 H 0.27208 0.37322 0.2049 0.0
C658 C 0.75514 0.78639 0.17347 0.0
C659 C 0.75917 0.82398 0.14539 0.0
C660 C 0.72253 0.75593 0.11431 0.0
C661 C 0.71607 0.72175 0.14299 0.0
N662 N 0.72547 0.70209 0.19975 0.0
N663 N 0.74434 0.85017 0.09039 0.0
C664 C 0.73246 0.736 0.17252 0.0
C665 C 0.74219 0.81025 0.11611 0.0
N666 N 0.77374 0.79818 0.20068 0.0
N667 N 0.70997 0.73555 0.08537 0.0
H668 H 0.75798 0.89109 0.09158 0.0
H669 H 0.73054 0.84571 0.06906 0.0
H670 H 0.69593 0.69512 0.0837 0.0
H671 H 0.71585 0.75502 0.06292 0.0
H672 H 0.77511 0.7688 0.2207 0.0
H673 H 0.78894 0.83702 0.20286 0.0
H674 H 0.73303 0.71399 0.2231 0.0
H675 H 0.71123 0.66186 0.19881 0.0
C676 C 0.24199 0.74639 0.41105 0.0
C677 C 0.26154 0.73835 0.38271 0.0
C678 C 0.23678 0.83137 0.35831 0.0
C679 C 0.21815 0.84032 0.38718 0.0
N680 N 0.20792 0.81589 0.44331 0.0
N681 N 0.28093 0.77534 0.33062 0.0
C682 C 0.22245 0.80071 0.41433 0.0
C683 C 0.25993 0.78162 0.35668 0.0
N684 N 0.24164 0.70145 0.43443 0.0
N685 N 0.23124 0.86899 0.33209 0.0
H686 H 0.29656 0.7372 0.32759 0.0
H687 H 0.28399 0.80882 0.31267 0.0
H688 H 0.21594 0.90794 0.33331 0.0
H689 H 0.24072 0.86072 0.30895 0.0
H690 H 0.22578 0.70198 0.45452 0.0
H691 H 0.2553 0.66066 0.4322 0.0
H692 H 0.21227 0.79219 0.46497 0.0
H693 H 0.19391 0.85619 0.44619 0.0
C694 C 0.74229 0.24557 0.40546 0.0
C695 C 0.76175 0.23968 0.37692 0.0
C696 C 0.7369 0.33446 0.35458 0.0
C697 C 0.71829 0.34115 0.38365 0.0
N698 N 0.70848 0.31259 0.43932 0.0
N699 N 0.78086 0.28032 0.32552 0.0
C700 C 0.72278 0.29957 0.40995 0.0
C701 C 0.75999 0.28478 0.35179 0.0
N702 N 0.74199 0.19888 0.42787 0.0
N703 N 0.73147 0.37431 0.3293 0.0
H704 H 0.79635 0.24226 0.32161 0.0
H705 H 0.78388 0.31506 0.30825 0.0
H706 H 0.71655 0.41354 0.33161 0.0
H707 H 0.74084 0.36789 0.30594 0.0
H708 H 0.72618 0.1979 0.44799 0.0
H709 H 0.75558 0.15824 0.4247 0.0
H710 H 0.7131 0.28744 0.46047 0.0
H711 H 0.6944 0.3525 0.44308 0.0
C712 C 0.73585 0.74107 0.85716 0.0
C713 C 0.71704 0.72786 0.88542 0.0
C714 C 0.74432 0.81311 0.91421 0.0
C715 C 0.7608 0.82983 0.88493 0.0
N716 N 0.77011 0.81489 0.82766 0.0
N717 N 0.70208 0.75015 0.94083 0.0
C718 C 0.75595 0.79512 0.85613 0.0
C719 C 0.72117 0.76331 0.91408 0.0
N720 N 0.73461 0.70127 0.83152 0.0
N721 N 0.75131 0.84428 0.9422 0.0
H722 H 0.68664 0.71146 0.94212 0.0
H723 H 0.70061 0.77811 0.96127 0.0
H724 H 0.76608 0.88382 0.94248 0.0
H725 H 0.74362 0.83007 0.96521 0.0
H726 H 0.74987 0.70479 0.81108 0.0
H727 H 0.72027 0.66107 0.83214 0.0
H728 H 0.76538 0.79502 0.80515 0.0
H729 H 0.78455 0.85487 0.82611 0.0
C730 C 0.24291 0.31808 0.85501 0.0
C731 C 0.25713 0.33541 0.88527 0.0
C732 C 0.23341 0.24341 0.91091 0.0
C733 C 0.21617 0.22968 0.88192 0.0
N734 N 0.20162 0.25614 0.82676 0.0
N735 N 0.25919 0.32309 0.94331 0.0
C736 C 0.22015 0.26765 0.85399 0.0
C737 C 0.25026 0.30052 0.91363 0.0
N738 N 0.25218 0.34794 0.82711 0.0
N739 N 0.23427 0.20108 0.93553 0.0
H740 H 0.27017 0.36649 0.94584 0.0
H741 H 0.25242 0.30208 0.96517 0.0
H742 H 0.22273 0.15808 0.93349 0.0
H743 H 0.24896 0.20633 0.95628 0.0
H744 H 0.24587 0.33261 0.80395 0.0
H745 H 0.26777 0.38642 0.827 0.0
H746 H 0.20015 0.28639 0.80707 0.0
H747 H 0.18643 0.21727 0.82452 0.0
C748 C 0.73706 0.31629 0.673 0.0
C749 C 0.7189 0.3331 0.64477 0.0
C750 C 0.73941 0.24139 0.61648 0.0
C751 C 0.75917 0.22628 0.64388 0.0
N752 N 0.77968 0.251 0.6974 0.0
N753 N 0.70741 0.31976 0.58786 0.0
C754 C 0.75872 0.26416 0.67202 0.0
C755 C 0.72167 0.29811 0.61589 0.0
N756 N 0.73278 0.34942 0.70089 0.0
N757 N 0.7371 0.20051 0.5914 0.0
H758 H 0.69473 0.36183 0.58684 0.0
H759 H 0.71083 0.29939 0.56523 0.0
H760 H 0.74943 0.15802 0.59181 0.0
H761 H 0.72083 0.20601 0.57182 0.0
H762 H 0.74205 0.3359 0.72347 0.0
H763 H 0.71874 0.39006 0.70148 0.0
H764 H 0.78377 0.28055 0.71686 0.0
H765 H 0.7941 0.21093 0.6984 0.0
C766 C 0.23707 0.82953 0.67151 0.0
C767 C 0.2168 0.83734 0.64355 0.0
C768 C 0.23995 0.74297 0.61974 0.0
C769 C 0.26183 0.73731 0.64658 0.0
N770 N 0.28432 0.7776 0.69662 0.0
N771 N 0.20322 0.80985 0.58849 0.0
C772 C 0.26124 0.78134 0.67212 0.0
C773 C 0.21959 0.79644 0.61686 0.0
N774 N 0.23228 0.86665 0.6979 0.0
N775 N 0.23839 0.6968 0.5973 0.0
H776 H 0.18872 0.84959 0.58559 0.0
H777 H 0.20654 0.7852 0.56706 0.0
H778 H 0.2529 0.65688 0.59917 0.0
H779 H 0.22082 0.69545 0.57861 0.0
H780 H 0.24325 0.8587 0.72049 0.0
H781 H 0.21587 0.90413 0.69766 0.0
H782 H 0.28813 0.81225 0.71366 0.0
H783 H 0.30093 0.7407 0.69903 0.0
C784 C 0.14226 0.99715 0.27316 0.0
C785 C 0.11287 0.99601 0.29299 0.0
C786 C 0.09372 0.09123 0.26626 0.0
C787 C 0.11923 0.08612 0.24252 0.0
N788 N 0.17326 0.04382 0.22845 0.0
N789 N 0.05811 0.03959 0.30473 0.0
C790 C 0.14535 0.04217 0.2476 0.0
C791 C 0.08786 0.04209 0.28838 0.0
N792 N 0.16705 0.95465 0.27854 0.0
N793 N 0.0766 0.14551 0.2694 0.0
H794 H 0.05215 1.00609 0.32179 0.0
H795 H 0.03789 0.06814 0.29906 0.0
H796 H 0.08299 0.18501 0.25624 0.0
H797 H 0.05978 0.15406 0.28824 0.0
H798 H 0.19083 0.95673 0.26832 0.0
H799 H 0.1641 0.9165 0.29374 0.0
H800 H 0.1907 1.00833 0.2268 0.0
H801 H 0.17988 0.08237 0.21484 0.0
C802 C 0.83166 0.06478 0.26767 0.0
C803 C 0.861 0.0695 0.2873 0.0
C804 C 0.88264 0.97473 0.26226 0.0
C805 C 0.85581 0.97443 0.2398 0.0
N806 N 0.79786 1.00224 0.23146 0.0
N807 N 0.91763 0.03297 0.29809 0.0
C808 C 0.82819 1.01464 0.24532 0.0
C809 C 0.88739 1.02589 0.28306 0.0
N810 N 0.80814 0.11066 0.26861 0.0
N811 N 0.90184 0.92296 0.26619 0.0
H812 H 0.92268 0.06523 0.31592 0.0
H813 H 0.93881 1.00794 0.29129 0.0
H814 H 0.89618 0.88139 0.25479 0.0
H815 H 0.91983 0.91826 0.28441 0.0
H816 H 0.78832 0.11415 0.25225 0.0
H817 H 0.81018 0.14914 0.28356 0.0
H818 H 0.77607 1.02675 0.23653 0.0
H819 H 0.79313 0.96206 0.21857 0.0
C820 C 0.83303 1.01832 0.73698 0.0
C821 C 0.84995 0.07608 0.73552 0.0
C822 C 0.86654 0.06324 0.79268 0.0
C823 C 0.8551 1.00124 0.79213 0.0
N824 N 0.82845 0.91822 0.76337 0.0
N825 N 0.87769 0.15866 0.76368 0.0
C826 C 0.83828 0.97856 0.76428 0.0
C827 C 0.86509 0.10001 0.764 0.0
N828 N 0.81115 1.00198 0.71302 0.0
N829 N 0.87761 0.08773 0.82113 0.0
H830 H 0.87203 0.19048 0.74539 0.0
H831 H 0.89379 0.17604 0.78129 0.0
H832 H 0.87863 0.06185 0.84226 0.0
H833 H 0.88287 0.13415 0.82471 0.0
H834 H 0.79593 0.96311 0.71427 0.0
H835 H 0.80519 1.0305 0.69351 0.0
H836 H 0.81994 0.89662 0.74237 0.0
H837 H 0.83114 0.88822 0.7831 0.0
C838 C 0.09352 0.09434 0.76325 0.0
C839 C 0.1188 0.08635 0.78714 0.0
C840 C 0.13951 0.99578 0.75693 0.0
C841 C 0.11142 0.99965 0.73555 0.0
N842 N 0.05844 0.04846 0.72244 0.0
N843 N 0.17413 0.04566 0.7976 0.0
C844 C 0.08752 0.04759 0.73991 0.0
C845 C 0.1443 0.04166 0.78149 0.0
N846 N 0.07725 0.1497 0.76081 0.0
N847 N 0.16038 0.94579 0.75529 0.0
H848 H 0.18018 0.08218 0.81276 0.0
H849 H 0.19475 1.01786 0.79262 0.0
H850 H 0.15719 0.91019 0.73864 0.0
H851 H 0.17883 0.93608 0.77245 0.0
H852 H 0.06083 0.16062 0.74194 0.0
H853 H 0.08405 0.18794 0.77461 0.0
H854 H 0.03842 0.07734 0.72816 0.0
H855 H 0.05277 1.01734 0.70417 0.0
C856 C 0.63813 0.51098 0.27672 0.0
C857 C 0.60773 0.49351 0.29241 0.0
C858 C 0.57676 0.54641 0.24909 0.0
C859 C 0.60673 0.57269 0.23662 0.0
N860 N 0.66566 0.59199 0.24644 0.0
N861 N 0.54854 0.5165 0.29817 0.0
C862 C 0.63745 0.55856 0.25267 0.0
C863 C 0.57715 0.5177 0.28005 0.0
N864 N 0.66745 0.48102 0.28334 0.0
N865 N 0.54803 0.54584 0.23116 0.0
H866 H 0.54824 0.50318 0.32244 0.0
H867 H 0.52637 0.53755 0.29051 0.0
H868 H 0.54716 0.55997 0.20704 0.0
H869 H 0.52642 0.52305 0.23885 0.0
H870 H 0.68947 0.48968 0.27049 0.0
H871 H 0.66888 0.44239 0.29835 0.0
H872 H 0.68782 0.5859 0.25949 0.0
H873 H 0.66566 0.63104 0.23165 0.0
C874 C 0.33075 0.56893 0.27108 0.0
C875 C 0.35819 0.56559 0.2932 0.0
C876 C 0.37677 0.46988 0.26673 0.0
C877 C 0.35251 0.47783 0.24196 0.0
N878 N 0.29748 0.51835 0.22965 0.0
N879 N 0.41004 0.51533 0.30895 0.0
C880 C 0.32676 0.52254 0.24664 0.0
C881 C 0.38189 0.5168 0.29015 0.0
N882 N 0.30982 0.61888 0.27184 0.0
N883 N 0.39289 0.41448 0.26981 0.0
H884 H 0.41449 0.54536 0.32799 0.0
H885 H 0.43033 0.48652 0.30403 0.0
H886 H 0.3868 0.3764 0.25558 0.0
H887 H 0.40842 0.40339 0.28935 0.0
H888 H 0.29211 0.62846 0.25394 0.0
H889 H 0.31217 0.65428 0.28872 0.0
H890 H 0.27665 0.54601 0.23404 0.0
H891 H 0.29205 0.48213 0.21411 0.0
C892 C 0.37371 0.47257 0.76088 0.0
C893 C 0.35108 0.48279 0.78674 0.0
C894 C 0.33081 0.57646 0.7585 0.0
C895 C 0.35729 0.57088 0.73546 0.0
N896 N 0.4072 0.5162 0.71824 0.0
N897 N 0.29827 0.5292 0.80186 0.0
C898 C 0.37954 0.51963 0.73758 0.0
C899 C 0.32661 0.53031 0.78327 0.0
N900 N 0.38775 0.41551 0.75702 0.0
N901 N 0.31111 0.62809 0.75814 0.0
H902 H 0.29273 0.49373 0.81801 0.0
H903 H 0.27817 0.55919 0.7986 0.0
H904 H 0.31358 0.66291 0.74077 0.0
H905 H 0.2943 0.63931 0.77654 0.0
H906 H 0.40184 0.40318 0.73673 0.0
H907 H 0.38119 0.37791 0.77159 0.0
H908 H 0.42626 0.48396 0.72175 0.0
H909 H 0.41292 0.54886 0.70078 0.0
C910 C 0.57503 0.55736 0.7751 0.0
C911 C 0.60569 0.57608 0.79018 0.0
C912 C 0.63659 0.50791 0.75259 0.0
C913 C 0.60642 0.49195 0.73619 0.0
N914 N 0.54569 0.49704 0.73505 0.0
N915 N 0.66582 0.5851 0.78356 0.0
C916 C 0.57544 0.51602 0.74813 0.0
C917 C 0.6365 0.55574 0.77628 0.0
N918 N 0.54504 0.58129 0.78512 0.0
N919 N 0.6652 0.47456 0.74756 0.0
H920 H 0.66704 0.62491 0.79754 0.0
H921 H 0.68831 0.57555 0.77173 0.0
H922 H 0.66617 0.43538 0.73307 0.0
H923 H 0.68682 0.48054 0.76139 0.0
H924 H 0.52392 0.58364 0.77029 0.0
H925 H 0.54038 0.59807 0.80826 0.0
H926 H 0.52289 0.49954 0.74728 0.0
H927 H 0.54311 0.47892 0.71189 0.0
C928 C 0.14619 0.17787 0.99832 0.0
C929 C 0.12152 0.14555 0.9803 0.0
C930 C 0.0948 0.11267 0.03142 0.0
C931 C 0.12088 0.14148 0.0494 0.0
N932 N 0.16433 0.21795 0.05045 0.0
N933 N 0.06519 0.10457 0.98023 0.0
C934 C 0.14438 0.17929 0.0329 0.0
C935 C 0.09343 0.12031 0.99694 0.0
N936 N 0.17148 0.2072 0.9822 0.0
N937 N 0.07235 0.07504 0.04673 0.0
H938 H 0.06208 0.11288 0.95555 0.0
H939 H 0.04303 0.09095 0.99151 0.0
H940 H 0.07107 0.07015 0.0718 0.0
H941 H 0.05613 0.0457 0.03441 0.0
H942 H 0.19292 0.22409 0.99347 0.0
H943 H 0.17105 0.21364 0.95708 0.0
H944 H 0.18036 0.25041 0.04017 0.0
H945 H 0.16226 0.22181 0.07561 0.0
C946 C 0.83675 0.86789 0.99692 0.0
C947 C 0.85136 0.91798 0.97996 0.0
C948 C 0.87 0.96261 0.03175 0.0
C949 C 0.85093 0.91756 0.04876 0.0
N950 N 0.81549 0.82776 0.04801 0.0
N951 N 0.87976 1.01634 0.98097 0.0
C952 C 0.83443 0.86987 0.03145 0.0
C953 C 0.86813 0.96554 0.99723 0.0
N954 N 0.82514 0.81842 0.97983 0.0
N955 N 0.88902 1.00415 0.04849 0.0
H956 H 0.87898 1.02107 0.95583 0.0
H957 H 0.88803 0.05624 0.99241 0.0
H958 H 0.88893 1.00786 0.07369 0.0
H959 H 0.90693 1.0322 0.03751 0.0
H960 H 0.81653 0.77792 0.99059 0.0
H961 H 0.8269 0.81586 0.95456 0.0
H962 H 0.79912 0.79709 0.03687 0.0
H963 H 0.81504 0.82536 0.0733 0.0
C964 C 0.14963 0.94909 0.49667 0.0
C965 C 0.12081 0.92592 0.48046 0.0
C966 C 0.09582 0.89775 0.53312 0.0
C967 C 0.1221 0.92921 0.54909 0.0
N968 N 0.17828 0.96894 0.54786 0.0
N969 N 0.06758 0.87451 0.48214 0.0
C970 C 0.15048 0.94967 0.53133 0.0
C971 C 0.0945 0.89796 0.4984 0.0
N972 N 0.1753 0.97357 0.47876 0.0
N973 N 0.07258 0.86701 0.55133 0.0
H974 H 0.06695 0.87131 0.45684 0.0
H975 H 0.04564 0.85976 0.49335 0.0
H976 H 0.07383 0.86547 0.57666 0.0
H977 H 0.05378 0.83945 0.54169 0.0
H978 H 0.19541 0.99764 0.48847 0.0
H979 H 0.17623 0.97103 0.45347 0.0
H980 H 0.20093 0.98052 0.53701 0.0
H981 H 0.1796 0.96909 0.57319 0.0
C982 C 0.87896 0.12424 0.52415 0.0
C983 C 0.8523 0.15189 0.54167 0.0
C984 C 0.82827 0.18789 0.48983 0.0
C985 C 0.85044 0.1486 0.47265 0.0
N986 N 0.89412 0.07099 0.47489 0.0
N987 N 0.80192 0.2131 0.54114 0.0
C988 C 0.87549 0.11525 0.49003 0.0
C989 C 0.82724 0.18518 0.52442 0.0
N990 N 0.90745 0.10602 0.53982 0.0
N991 N 0.80834 0.22812 0.473 0.0
H992 H 0.80211 0.21693 0.56637 0.0
H993 H 0.78033 0.23044 0.53018 0.0
H994 H 0.80917 0.23198 0.44775 0.0
H995 H 0.7935 0.26159 0.484 0.0
H996 H 0.92855 0.08985 0.52759 0.0
H997 H 0.91177 0.11479 0.56429 0.0
H998 H 0.90997 0.04088 0.48738 0.0
H999 H 0.89148 0.05989 0.45046 0.0
C1000 C 0.59284 0.66874 0.03067 0.0
C1001 C 0.61858 0.63723 0.04778 0.0
C1002 C 0.64724 0.61501 0.9962 0.0
C1003 C 0.61882 0.63736 0.97902 0.0
N1004 N 0.56689 0.69317 0.97841 0.0
N1005 N 0.67165 0.58415 0.04789 0.0
C1006 C 0.59248 0.6674 0.99587 0.0
C1007 C 0.64653 0.61253 0.03082 0.0
N1008 N 0.56878 0.69929 0.04791 0.0
N1009 N 0.67491 0.59634 0.97925 0.0
H1010 H 0.67305 0.58499 0.07321 0.0
H1011 H 0.69058 0.55801 0.03733 0.0
H1012 H 0.67606 0.59696 0.95393 0.0
H1013 H 0.69771 0.58494 0.98994 0.0
H1014 H 0.54972 0.7255 0.03755 0.0
H1015 H 0.56911 0.70134 0.07325 0.0
H1016 H 0.54521 0.71143 0.98854 0.0
H1017 H 0.56738 0.69577 0.95308 0.0
C1018 C 0.34398 0.38391 0.99578 0.0
C1019 C 0.35803 0.4372 0.98096 0.0
C1020 C 0.37038 0.48075 0.03455 0.0
C1021 C 0.35395 0.42998 0.04951 0.0
N1022 N 0.3327 0.3267 0.04585 0.0
N1023 N 0.3959 0.52229 0.98567 0.0
C1024 C 0.34334 0.37916 0.0305 0.0
C1025 C 0.37495 0.48099 1.00032 0.0
N1026 N 0.33041 0.3391 0.97674 0.0
N1027 N 0.37985 0.53051 0.05266 0.0
H1028 H 0.40046 0.52094 0.96073 0.0
H1029 H 0.41144 0.55231 0.99834 0.0
H1030 H 0.37741 0.53236 0.07785 0.0
H1031 H 0.38817 0.5718 0.0425 0.0
H1032 H 0.3166 0.30203 0.98557 0.0
H1033 H 0.33277 0.33953 0.95155 0.0
H1034 H 0.3263 0.28618 0.03395 0.0
H1035 H 0.33267 0.32228 0.07112 0.0
C1036 C 0.59438 0.39952 0.49792 0.0
C1037 C 0.62137 0.42607 0.48032 0.0
C1038 C 0.65072 0.44821 0.53148 0.0
C1039 C 0.62263 0.42561 0.54909 0.0
N1040 N 0.57223 0.36563 0.55023 0.0
N1041 N 0.67838 0.4623 0.47933 0.0
C1042 C 0.59595 0.39634 0.53258 0.0
C1043 C 0.6507 0.44564 0.49687 0.0
N1044 N 0.56673 0.37977 0.48145 0.0
N1045 N 0.6767 0.47484 0.54794 0.0
H1046 H 0.67889 0.46248 0.45399 0.0
H1047 H 0.70167 0.47134 0.48957 0.0
H1048 H 0.67853 0.47407 0.57323 0.0
H1049 H 0.6959 0.49958 0.53687 0.0
H1050 H 0.54442 0.36682 0.49261 0.0
H1051 H 0.56587 0.37815 0.45614 0.0
H1052 H 0.55325 0.33924 0.53999 0.0
H1053 H 0.57324 0.3627 0.57554 0.0
C1054 C 0.37908 0.6279 0.53097 0.0
C1055 C 0.35285 0.65742 0.54833 0.0
C1056 C 0.32845 0.69084 0.49613 0.0
C1057 C 0.35018 0.65007 0.47935 0.0
N1058 N 0.39376 0.57234 0.48222 0.0
N1059 N 0.30318 0.72051 0.54736 0.0
C1060 C 0.37527 0.6173 0.49699 0.0
C1061 C 0.32792 0.69049 0.53078 0.0
N1062 N 0.4076 0.6097 0.54661 0.0
N1063 N 0.30852 0.73038 0.47884 0.0
H1064 H 0.30387 0.72616 0.57251 0.0
H1065 H 0.28159 0.73788 0.53643 0.0
H1066 H 0.30902 0.73258 0.45353 0.0
H1067 H 0.294 0.76482 0.48939 0.0
H1068 H 0.42844 0.59225 0.53447 0.0
H1069 H 0.41237 0.6198 0.57083 0.0
H1070 H 0.4095 0.54241 0.49495 0.0
H1071 H 0.3911 0.56046 0.45791 0.0
C1072 C 0.96261 0.04383 0.16819 0.0
C1073 C 0.95252 1.0063 0.14185 0.0
C1074 C 0.01032 1.00365 0.12174 0.0
C1075 C 0.01944 0.04758 0.14558 0.0
N1076 N 0.00277 0.11633 0.18903 0.0
N1077 N 0.96531 0.9595 0.09012 0.0
C1078 C -0.00492 0.07004 0.1679 0.0
C1079 C 0.97599 0.98865 0.11765 0.0
N1080 N 0.94218 0.05131 0.19462 0.0
N1081 N 0.03427 0.9758 0.10311 0.0
H1082 H 0.94027 0.9486 0.08589 0.0
H1083 H 0.98066 0.95163 0.07009 0.0
H1084 H 0.05972 0.98543 0.1051 0.0
H1085 H 0.02924 0.9389 0.08774 0.0
H1086 H 0.95002 0.0721 0.2161 0.0
H1087 H 0.91856 1.03139 0.19667 0.0
H1088 H 0.98475 0.13974 0.20256 0.0
H1089 H 0.0267 0.13427 0.19162 0.0
C1090 C 0.97581 0.07385 0.40951 0.0
C1091 C 0.95198 0.04493 0.38884 0.0
C1092 C -0.00535 0.97089 0.37117 0.0
C1093 C 0.0191 1.00297 0.38978 0.0
N1094 N 0.03378 0.08611 0.4258 0.0
N1095 N 0.93668 0.95481 0.35725 0.0
C1096 C 0.00989 0.0547 0.40876 0.0
C1097 C 0.96066 0.99007 0.37197 0.0
N1098 N 0.96522 0.11654 0.4317 0.0
N1099 N 0.00419 0.92478 0.35052 0.0
H1100 H 0.91192 0.96776 0.3539 0.0
H1101 H 0.94077 0.90953 0.3499 0.0
H1102 H 0.02819 0.90656 0.34963 0.0
H1103 H -0.01103 0.90744 0.33215 0.0
H1104 H 0.98036 0.13493 0.44981 0.0
H1105 H 0.94018 0.12907 0.43446 0.0
H1106 H 0.02982 0.12911 0.43627 0.0
H1107 H 0.0584 0.07087 0.42816 0.0
C1108 C 0.01192 1.00841 0.91288 0.0
C1109 C 0.02067 0.05213 0.88853 0.0
C1110 C 0.96135 0.07285 0.87857 0.0
C1111 C 0.95252 1.02122 0.89788 0.0
N1112 N 0.96907 0.94238 0.93622 0.0
N1113 N 0.00327 0.11536 0.84304 0.0
C1114 C 0.97782 0.98959 0.91583 0.0
C1115 C -0.00478 0.08109 0.86984 0.0
N1116 N 0.03565 0.98725 0.93415 0.0
N1117 N 0.93807 0.11589 0.86969 0.0
H1118 H 0.02776 0.11971 0.83471 0.0
H1119 H 0.98534 0.13281 0.82701 0.0
H1120 H 0.91401 0.117 0.87927 0.0
H1121 H 0.94426 0.15621 0.85719 0.0
H1122 H 0.03012 0.9608 0.95463 0.0
H1123 H 0.06079 0.99979 0.93282 0.0
H1124 H 0.98628 0.91181 0.94643 0.0
H1125 H 0.94421 0.93325 0.94245 0.0
C1126 C 0.98032 0.08723 0.65672 0.0
C1127 C 0.95596 0.06016 0.63616 0.0
C1128 C 0.00035 1.00059 0.60936 0.0
C1129 C 0.02444 1.02812 0.63035 0.0
N1130 N 0.03731 0.12179 0.65987 0.0
N1131 N 0.94322 0.99883 0.58889 0.0
C1132 C 0.01464 0.07877 0.64983 0.0
C1133 C 0.966 1.01854 0.6114 0.0
N1134 N 0.97086 0.12006 0.68345 0.0
N1135 N 0.01076 0.95963 0.58636 0.0
H1136 H 0.91795 1.01065 0.58953 0.0
H1137 H 0.94938 0.97355 0.56831 0.0
H1138 H 0.03584 0.95629 0.57954 0.0
H1139 H -0.00513 0.93028 0.57372 0.0
H1140 H -0.01207 0.13575 0.70072 0.0
H1141 H 0.94595 0.1253 0.69032 0.0
H1142 H 0.03039 0.1612 0.67268 0.0
H1143 H 0.06156 0.12448 0.65078 0.0
C1144 C 0.47239 0.49814 0.11434 0.0
C1145 C 0.45048 0.51548 0.13992 0.0
C1146 C 0.49298 0.58529 0.16103 0.0
C1147 C 0.51667 0.56053 0.13874 0.0
N1148 N 0.52968 0.48878 0.09578 0.0
N1149 N 0.4426 0.56548 0.19178 0.0
C1150 C 0.50665 0.51529 0.11595 0.0
C1151 C 0.46136 0.55654 0.16436 0.0
N1152 N 0.46018 0.46757 0.08787 0.0
N1153 N 0.50025 0.63645 0.17893 0.0
H1154 H 0.41974 0.54371 0.19597 0.0
H1155 H 0.45142 0.5895 0.21193 0.0
H1156 H 0.52292 0.65969 0.1775 0.0
H1157 H 0.48242 0.65938 0.19292 0.0
H1158 H 0.47429 0.45906 0.06707 0.0
H1159 H 0.43492 0.45647 0.08521 0.0
H1160 H 0.5244 0.45073 0.0813 0.0
H1161 H 0.55473 0.50195 0.09519 0.0
C1162 C 0.4763 0.57312 0.41522 0.0
C1163 C 0.4512 0.54147 0.39718 0.0
C1164 C 0.49355 0.47094 0.3758 0.0
C1165 C 0.5189 0.50366 0.39281 0.0
N1166 N 0.53396 0.57739 0.43394 0.0
N1167 N 0.43518 0.44561 0.37079 0.0
C1168 C 0.51018 0.55259 0.41396 0.0
C1169 C 0.45941 0.48586 0.38081 0.0
N1170 N 0.46747 0.6223 0.43411 0.0
N1171 N 0.50191 0.42693 0.35352 0.0
H1172 H 0.40964 0.45183 0.37377 0.0
H1173 H 0.44051 0.40134 0.36251 0.0
H1174 H 0.52617 0.41148 0.34976 0.0
H1175 H 0.48503 0.40932 0.33662 0.0
H1176 H 0.48448 0.65353 0.4438 0.0
H1177 H 0.44264 0.63228 0.44 0.0
H1178 H 0.52886 0.60858 0.45243 0.0
H1179 H 0.55895 0.56377 0.43359 0.0
C1180 C 0.46207 0.55889 0.90475 0.0
C1181 C 0.4523 0.5104 0.88381 0.0
C1182 C 0.51002 0.50398 0.86301 0.0
C1183 C 0.52036 0.54809 0.88653 0.0
N1184 N 0.50739 0.60054 0.93663 0.0
N1185 N 0.46842 0.43061 0.84574 0.0
C1186 C 0.49668 0.57086 0.90932 0.0
C1187 C 0.47677 0.48079 0.86402 0.0
N1188 N 0.43862 0.59366 0.92047 0.0
N1189 N 0.53097 0.48624 0.83844 0.0
H1190 H 0.44399 0.41574 0.84225 0.0
H1191 H 0.48615 0.40143 0.83532 0.0
H1192 H 0.55552 0.50096 0.8358 0.0
H1193 H 0.52297 0.46116 0.81834 0.0
H1194 H 0.4447 0.63318 0.93353 0.0
H1195 H 0.41295 0.58691 0.91796 0.0
H1196 H 0.49137 0.61353 0.95541 0.0
H1197 H 0.53269 0.60444 0.94253 0.0
C1198 C 0.48043 0.58274 0.66242 0.0
C1199 C 0.45696 0.55999 0.6393 0.0
C1200 C 0.5015 0.49903 0.61368 0.0
C1201 C 0.52442 0.51879 0.63804 0.0
N1202 N 0.5373 0.5922 0.68088 0.0
N1203 N 0.44411 0.4925 0.59456 0.0
C1204 C 0.51445 0.56434 0.66093 0.0
C1205 C 0.46716 0.51673 0.6155 0.0
N1206 N 0.46982 0.61864 0.68767 0.0
N1207 N 0.51332 0.46825 0.58706 0.0
H1208 H 0.41934 0.50746 0.59333 0.0
H1209 H 0.44889 0.45484 0.57965 0.0
H1210 H 0.53876 0.46033 0.58319 0.0
H1211 H 0.49882 0.45718 0.56691 0.0
H1212 H 0.48395 0.6268 0.7085 0.0
H1213 H 0.44589 0.63655 0.68951 0.0
H1214 H 0.53273 0.63391 0.69255 0.0
H1215 H 0.56139 0.57652 0.68535 0.0
C1216 C 0.10871 0.66208 0.12396 0.0
C1217 C 0.13282 0.68911 0.14482 0.0
C1218 C 0.14761 0.58675 0.1662 0.0
C1219 C 0.12125 0.56065 0.14773 0.0
N1220 N 0.07324 0.57408 0.11275 0.0
N1221 N 0.17156 0.67909 0.18961 0.0
C1222 C 0.10085 0.59848 0.12756 0.0
C1223 C 0.15137 0.65194 0.16697 0.0
N1224 N 0.09402 0.69682 0.10006 0.0
N1225 N 0.16951 0.54908 0.18242 0.0
H1226 H 0.1748 0.7267 0.19116 0.0
H1227 H 0.18286 0.65498 0.20862 0.0
H1228 H 0.16738 0.50113 0.18251 0.0
H1229 H 0.19136 0.56486 0.19342 0.0
H1230 H 0.079 0.6783 0.08186 0.0
H1231 H 0.09914 0.74357 0.09669 0.0
H1232 H 0.05528 0.60069 0.10082 0.0
H1233 H 0.06671 0.52764 0.11458 0.0
C1234 C 0.81622 0.40378 0.16172 0.0
C1235 C 0.83804 0.36514 0.14359 0.0
C1236 C 0.87314 0.45449 0.13018 0.0
C1237 C 0.84975 0.49369 0.14592 0.0
N1238 N 0.79595 0.50757 0.17145 0.0
N1239 N 0.88363 0.35506 0.10548 0.0
C1240 C 0.82032 0.46887 0.16011 0.0
C1241 C 0.86547 0.39092 0.12631 0.0
N1242 N 0.79252 0.37824 0.18161 0.0
N1243 N 0.90329 0.47743 0.12005 0.0
H1244 H 0.87861 0.30842 0.10182 0.0
H1245 H 0.90162 0.37271 0.08966 0.0
H1246 H 0.90994 0.52368 0.1224 0.0
H1247 H 0.92283 0.44972 0.11183 0.0
H1248 H 0.77833 0.40376 0.19802 0.0
H1249 H 0.78904 0.33077 0.18394 0.0
H1250 H 0.77242 0.49243 0.17892 0.0
H1251 H 0.79813 0.55549 0.17062 0.0
C1252 C 0.11208 0.3971 0.40631 0.0
C1253 C 0.13761 0.37117 0.3866 0.0
C1254 C 0.15237 0.47438 0.36648 0.0
C1255 C 0.12469 0.49932 0.38361 0.0
N1256 N 0.07517 0.48393 0.41622 0.0
N1257 N 0.17874 0.38324 0.34404 0.0
C1258 C 0.10374 0.46057 0.40264 0.0
C1259 C 0.15697 0.40934 0.36568 0.0
N1260 N 0.0964 0.36138 0.42915 0.0
N1261 N 0.17461 0.51303 0.35148 0.0
H1262 H 0.18268 0.33579 0.34252 0.0
H1263 H 0.19078 0.408 0.32572 0.0
H1264 H 0.17189 0.5609 0.35147 0.0
H1265 H 0.1972 0.49821 0.34153 0.0
H1266 H 0.08012 0.379 0.44659 0.0
H1267 H 0.10183 0.31472 0.43252 0.0
H1268 H 0.05685 0.45663 0.42709 0.0
H1269 H 0.06839 0.53029 0.41446 0.0
C1270 C 0.88004 0.60804 0.36093 0.0
C1271 C 0.8591 0.56825 0.37927 0.0
C1272 C 0.83875 0.6574 0.40988 0.0
C1273 C 0.85413 0.69778 0.38698 0.0
N1274 N 0.90878 0.70523 0.36244 0.0
N1275 N 0.81745 0.55508 0.42117 0.0
C1276 C 0.8804 0.67197 0.36808 0.0
C1277 C 0.83809 0.59293 0.40374 0.0
N1278 N 0.89973 0.58508 0.33667 0.0
N1279 N 0.83052 0.67877 0.43998 0.0
H1280 H 0.81666 0.50746 0.41769 0.0
H1281 H 0.79933 0.57191 0.4371 0.0
H1282 H 0.83721 0.72305 0.44743 0.0
H1283 H 0.82204 0.65035 0.45874 0.0
H1284 H 0.91304 0.61352 0.32077 0.0
H1285 H 0.90051 0.53833 0.33081 0.0
H1286 H 0.92996 0.68683 0.35123 0.0
H1287 H 0.91281 0.7477 0.37365 0.0
C1288 C 0.81613 0.41817 0.89205 0.0
C1289 C 0.84095 0.37605 0.88107 0.0
C1290 C 0.87597 0.46301 0.86348 0.0
C1291 C 0.853 0.50494 0.87787 0.0
N1292 N 0.80353 0.52187 0.91032 0.0
N1293 N 0.89703 0.35825 0.86139 0.0
C1294 C 0.82365 0.48237 0.89337 0.0
C1295 C 0.8716 0.39846 0.86819 0.0
N1296 N 0.78496 0.39712 0.90018 0.0
N1297 N 0.90128 0.48472 0.84421 0.0
H1298 H 0.89492 0.31069 0.86469 0.0
H1299 H 0.92116 0.37243 0.85533 0.0
H1300 H 0.90492 0.53153 0.83949 0.0
H1301 H 0.91663 0.4562 0.83035 0.0
H1302 H 0.76477 0.42616 0.90494 0.0
H1303 H 0.77841 0.35061 0.8993 0.0
H1304 H 0.78379 0.50718 0.92498 0.0
H1305 H 0.8083 0.56901 0.91204 0.0
C1306 C 0.10249 0.60075 0.89896 0.0
C1307 C 0.1266 0.56169 0.88419 0.0
C1308 C 0.16073 0.6517 0.86988 0.0
C1309 C 0.13797 0.6902 0.887 0.0
N1310 N 0.09088 0.69996 0.92337 0.0
N1311 N 0.18151 0.54797 0.86095 0.0
C1312 C 0.10991 0.66427 0.90319 0.0
C1313 C 0.15664 0.5866 0.87128 0.0
N1314 N 0.07192 0.57773 0.90778 0.0
N1315 N 0.18534 0.67736 0.8511 0.0
H1316 H 0.1793 0.50004 0.86161 0.0
H1317 H 0.20536 0.56314 0.8545 0.0
H1318 H 0.18887 0.72484 0.84894 0.0
H1319 H 0.20041 0.65194 0.8354 0.0
H1320 H 0.05202 0.6054 0.91519 0.0
H1321 H 0.06539 0.53149 0.9051 0.0
H1322 H 0.07227 0.68215 0.93845 0.0
H1323 H 0.09574 0.74656 0.92737 0.0
C1324 C 0.86503 0.66059 0.64348 0.0
C1325 C 0.83503 0.68479 0.62988 0.0
C1326 C 0.81577 0.57936 0.61991 0.0
C1327 C 0.84222 0.55657 0.63957 0.0
N1328 N 0.89129 0.57628 0.67228 0.0
N1329 N 0.80116 0.66128 0.5831 0.0
C1330 C 0.86676 0.59739 0.65188 0.0
C1331 C 0.81489 0.64312 0.61192 0.0
N1332 N 0.89321 0.69612 0.64432 0.0
N1333 N 0.79187 0.54031 0.60828 0.0
H1334 H 0.80888 0.70186 0.57164 0.0
H1335 H 0.78803 0.63158 0.56787 0.0
H1336 H 0.79228 0.4929 0.61268 0.0
H1337 H 0.7704 0.55613 0.59642 0.0
H1338 H 0.91662 0.67912 0.65118 0.0
H1339 H 0.89384 0.74011 0.63391 0.0
H1340 H 0.90771 0.60568 0.68435 0.0
H1341 H 0.89322 0.5302 0.67946 0.0
C1342 C 0.16226 0.41856 0.63203 0.0
C1343 C 0.13786 0.37538 0.64276 0.0
C1344 C 0.10036 0.46075 0.6576 0.0
C1345 C 0.1234 0.50368 0.64407 0.0
N1346 N 0.17401 0.5229 0.61371 0.0
N1347 N 0.08131 0.35474 0.66024 0.0
C1348 C 0.15376 0.4824 0.62995 0.0
C1349 C 0.10619 0.39636 0.65392 0.0
N1350 N 0.19397 0.39888 0.62494 0.0
N1351 N 0.0736 0.48142 0.67524 0.0
H1352 H 0.08458 0.30725 0.65775 0.0
H1353 H 0.05664 0.36747 0.66503 0.0
H1354 H 0.06872 0.52808 0.67907 0.0
H1355 H 0.05804 0.4524 0.68864 0.0
H1356 H 0.21389 0.42873 0.62056 0.0
H1357 H 0.20113 0.35264 0.62606 0.0
H1358 H 0.19465 0.5093 0.60001 0.0
H1359 H 0.16858 0.56982 0.61161 0.0
C1360 C 0.596 0.10703 0.14298 0.0
C1361 C 0.62327 0.06497 0.14331 0.0
C1362 C 0.66301 0.15103 0.14422 0.0
C1363 C 0.63577 0.19298 0.14147 0.0
N1364 N 0.5769 0.21135 0.1325 0.0
N1365 N 0.68255 0.04539 0.13938 0.0
C1366 C 0.6024 0.17106 0.13917 0.0
C1367 C 0.65678 0.08655 0.14245 0.0
N1368 N 0.56406 0.08596 0.14755 0.0
N1369 N 0.69462 0.17278 0.14983 0.0
H1370 H 0.67884 0.99782 0.13841 0.0
H1371 H 0.70728 0.05836 0.13519 0.0
H1372 H 0.70021 0.21966 0.15121 0.0
H1373 H 0.71491 0.14456 0.1556 0.0
H1374 H 0.54361 0.11487 0.1514 0.0
H1375 H 0.55822 0.03933 0.15012 0.0
H1376 H 0.55258 0.19745 0.12711 0.0
H1377 H 0.58063 0.25864 0.12952 0.0
C1378 C 0.36087 0.8992 0.12208 0.0
C1379 C 0.33749 0.87159 0.14368 0.0
C1380 C 0.32359 0.97363 0.1657 0.0
C1381 C 0.34945 1.00018 0.14662 0.0
N1382 N 0.39615 0.98731 0.11004 0.0
N1383 N 0.30046 0.88083 0.18981 0.0
C1384 C 0.36901 0.96273 0.12564 0.0
C1385 C 0.31979 0.90839 0.16648 0.0
N1386 N 0.37461 0.86509 0.09758 0.0
N1387 N 0.30217 1.01094 0.18256 0.0
H1388 H 0.29731 0.83319 0.19148 0.0
H1389 H 0.28991 0.90462 0.20923 0.0
H1390 H 0.30425 0.0589 0.18255 0.0
H1391 H 0.28065 0.9949 0.19412 0.0
H1392 H 0.38901 0.88407 0.07897 0.0
H1393 H 0.36924 0.8185 0.09421 0.0
H1394 H 0.41363 0.96089 0.09745 0.0
H1395 H 0.40282 0.03366 0.11177 0.0
C1396 C 0.59851 0.95674 0.37586 0.0
C1397 C 0.62396 0.99866 0.38532 0.0
C1398 C 0.66311 0.91271 0.39342 0.0
C1399 C 0.63682 0.87067 0.38661 0.0
N1400 N 0.57825 0.85147 0.37666 0.0
N1401 N 0.67884 1.01723 0.40764 0.0
C1402 C 0.60411 0.89238 0.37942 0.0
C1403 C 0.65584 0.97683 0.39541 0.0
N1404 N 0.56953 0.97835 0.36217 0.0
N1405 N 0.69519 0.8915 0.39689 0.0
H1406 H 0.6744 0.06453 0.40933 0.0
H1407 H 0.70121 1.0035 0.41852 0.0
H1408 H 0.70141 0.8448 0.39603 0.0
H1409 H 0.716 0.92027 0.39816 0.0
H1410 H 0.55169 0.94993 0.35148 0.0
H1411 H 0.56451 1.02517 0.35884 0.0
H1412 H 0.55324 0.86481 0.37496 0.0
H1413 H 0.58145 0.80388 0.37889 0.0
C1414 C 0.32288 0.08582 0.39356 0.0
C1415 C 0.35348 0.06323 0.38059 0.0
C1416 C 0.37307 0.16952 0.37263 0.0
C1417 C 0.34131 0.19203 0.3826 0.0
N1418 N 0.28374 0.17122 0.39676 0.0
N1419 N 0.40466 0.08348 0.35115 0.0
C1420 C 0.31555 0.15005 0.39149 0.0
C1421 C 0.37775 0.10509 0.36826 0.0
N1422 N 0.30127 0.04626 0.40874 0.0
N1423 N 0.39912 0.20954 0.36822 0.0
H1424 H 0.40863 0.03675 0.34665 0.0
H1425 H 0.42121 0.11214 0.33868 0.0
H1426 H 0.39681 0.25703 0.37152 0.0
H1427 H 0.42369 0.19515 0.36433 0.0
H1428 H 0.28029 0.06092 0.42163 0.0
H1429 H 0.30587 0.99906 0.4109 0.0
H1430 H 0.26319 0.14223 0.3998 0.0
H1431 H 0.27727 0.21775 0.3952 0.0
C1432 C 0.32931 0.90825 0.85329 0.0
C1433 C 0.3328 0.87518 0.883 0.0
C1434 C 0.35186 0.96936 0.91025 0.0
C1435 C 0.34643 1.00302 0.88105 0.0
N1436 N 0.32514 1.00761 0.82623 0.0
N1437 N 0.34237 0.87497 0.94084 0.0
C1438 C 0.33353 0.97337 0.85303 0.0
C1439 C 0.34267 0.90599 0.91183 0.0
N1440 N 0.32357 0.87702 0.825 0.0
N1441 N 0.36651 0.99775 0.93624 0.0
H1442 H 0.33587 0.82854 0.94286 0.0
H1443 H 0.34596 0.89611 0.96324 0.0
H1444 H 0.37218 0.04469 0.93648 0.0
H1445 H 0.37495 0.97429 0.9568 0.0
H1446 H 0.32456 0.89747 0.80207 0.0
H1447 H 0.32054 0.82931 0.82406 0.0
H1448 H 0.3121 0.98991 0.80644 0.0
H1449 H 0.32886 0.05513 0.82475 0.0
C1450 C 0.66234 0.15281 0.89633 0.0
C1451 C 0.63775 0.19536 0.88522 0.0
C1452 C 0.60077 0.10954 0.87062 0.0
C1453 C 0.62394 0.06734 0.88462 0.0
N1454 N 0.67464 0.04891 0.91503 0.0
N1455 N 0.58144 0.21533 0.86674 0.0
C1456 C 0.65419 0.08901 0.89865 0.0
C1457 C 0.60632 0.174 0.87379 0.0
N1458 N 0.69385 0.17312 0.90364 0.0
N1459 N 0.57412 0.08803 0.85315 0.0
H1460 H 0.58459 0.26292 0.86868 0.0
H1461 H 0.55686 0.20243 0.86173 0.0
H1462 H 0.56937 0.04119 0.84986 0.0
H1463 H 0.55845 0.1164 0.83942 0.0
H1464 H 0.71394 0.14369 0.90829 0.0
H1465 H 0.7007 0.21947 0.90246 0.0
H1466 H 0.69519 0.06286 0.92872 0.0
H1467 H 0.66951 1.00191 0.91719 0.0
C1468 C 0.37622 0.10586 0.63145 0.0
C1469 C 0.3525 0.06725 0.6472 0.0
C1470 C 0.31897 0.15775 0.66188 0.0
C1471 C 0.34129 0.19582 0.64393 0.0
N1472 N 0.38772 0.20528 0.60674 0.0
N1473 N 0.29844 0.05432 0.67238 0.0
C1474 C 0.36895 0.1696 0.62727 0.0
C1475 C 0.32297 0.09261 0.66092 0.0
N1476 N 0.40629 0.08211 0.62158 0.0
N1477 N 0.29475 0.18395 0.68087 0.0
H1478 H 0.30059 1.00636 0.67205 0.0
H1479 H 0.27486 0.06972 0.67952 0.0
H1480 H 0.29116 0.23149 0.68244 0.0
H1481 H 0.28009 0.15901 0.69721 0.0
H1482 H 0.42608 0.10925 0.61338 0.0
H1483 H 0.41258 0.03563 0.62403 0.0
H1484 H 0.40589 0.18744 0.59123 0.0
H1485 H 0.38318 0.25219 0.60308 0.0
C1486 C 0.62239 0.89692 0.61736 0.0
C1487 C 0.64313 0.86967 0.64156 0.0
C1488 C 0.6524 0.97181 0.66572 0.0
C1489 C 0.62901 0.9979 0.64357 0.0
N1490 N 0.588 0.98419 0.60119 0.0
N1491 N 0.67372 0.87929 0.69186 0.0
C1492 C 0.61304 0.96017 0.62009 0.0
C1493 C 0.65711 0.90667 0.66655 0.0
N1494 N 0.61235 0.86273 0.59129 0.0
N1495 N 0.67063 1.00952 0.6855 0.0
H1496 H 0.67755 0.83179 0.69349 0.0
H1497 H 0.68122 0.90287 0.71262 0.0
H1498 H 0.66777 0.05735 0.68558 0.0
H1499 H 0.69058 0.99412 0.69971 0.0
H1500 H 0.60026 0.88146 0.5711 0.0
H1501 H 0.61862 0.81634 0.58851 0.0
H1502 H 0.57272 0.9575 0.58635 0.0
H1503 H 0.58067 1.03033 0.60216 0.0
loop_
_geom_bond_atom_site_label_1
_geom_bond_atom_site_label_2
_geom_bond_distance
_geom_bond_site_symmetry_2
_ccdc_geom_bond_type
Pr0 C2 2.880 1_545 S
Pr0 O20 2.562 1_545 S
Pr0 O21 2.490 1_545 S
Pr0 O22 2.695 . S
Pr0 O23 2.512 . S
Pr0 O25 2.437 . S
Pr0 O28 2.436 . S
Pr0 O30 2.438 . S
Pr1 C11 2.880 . S
Pr1 O22 2.436 . S
Pr1 O24 2.438 . S
Pr1 O26 2.562 . S
Pr1 O27 2.490 . S
Pr1 O28 2.695 . S
Pr1 O29 2.512 . S
Pr1 O31 2.437 . S
C2 Pr0 2.880 1_565 S
C2 C3 1.491 . S
C2 O20 1.254 . S
C2 O21 1.225 . S
C3 C2 1.491 . S
C3 C4 1.392 . S
C3 C8 1.356 . S
C4 C3 1.392 . S
C4 C5 1.368 . S
C4 H32 0.929 . S
C5 C4 1.368 . S
C5 C6 1.386 . S
C5 H33 0.929 . S
C6 C5 1.386 . S
C6 C7 1.373 . S
C7 C6 1.373 . S
C7 C8 1.409 . S
C7 H34 0.931 . S
C8 C3 1.356 . S
C8 C7 1.409 . S
C8 H35 0.930 . S
C9 O22 1.270 . S
C9 O23 1.248 . S
C10 O24 1.267 . S
C10 O25 1.278 . S
C11 Pr1 2.880 . S
C11 C12 1.491 . S
C11 O26 1.254 . S
C11 O27 1.225 . S
C12 C11 1.491 . S
C12 C13 1.392 . S
C12 C17 1.356 . S
C13 C12 1.392 . S
C13 C14 1.368 . S
C13 H36 0.929 . S
C14 C13 1.368 . S
C14 C15 1.386 . S
C14 H37 0.929 . S
C15 C14 1.386 . S
C15 C16 1.373 . S
C16 C15 1.373 . S
C16 C17 1.409 . S
C16 H38 0.931 . S
C17 C12 1.356 . S
C17 C16 1.409 . S
C17 H39 0.930 . S
C18 O28 1.270 . S
C18 O29 1.248 . S
C19 O30 1.267 . S
C19 O31 1.278 . S
O20 Pr0 2.562 1_565 S
O20 C2 1.254 . S
O21 Pr0 2.490 1_565 S
O21 C2 1.225 . S
O22 Pr0 2.695 . S
O22 Pr1 2.436 . S
O22 C9 1.270 . S
O23 Pr0 2.512 . S
O23 C9 1.248 . S
O24 Pr1 2.438 . S
O24 C10 1.267 . S
O25 Pr0 2.437 . S
O25 C10 1.278 . S
O26 Pr1 2.562 . S
O26 C11 1.254 . S
O27 Pr1 2.490 . S
O27 C11 1.225 . S
O28 Pr0 2.436 . S
O28 Pr1 2.695 . S
O28 C18 1.270 . S
O29 Pr1 2.512 . S
O29 C18 1.248 . S
O30 Pr0 2.438 . S
O30 C19 1.267 . S
O31 Pr1 2.437 . S
O31 C19 1.278 . S
H32 C4 0.929 . S
H33 C5 0.929 . S
H34 C7 0.931 . S
H35 C8 0.930 . S
H36 C13 0.929 . S
H37 C14 0.929 . S
H38 C16 0.931 . S
H39 C17 0.930 . S
Pr40 C42 2.880 1_565 S
Pr40 O60 2.562 1_565 S
Pr40 O61 2.490 1_565 S
Pr40 O62 2.695 . S
Pr40 O63 2.512 . S
Pr40 O65 2.437 . S
Pr40 O68 2.436 . S
Pr40 O70 2.438 . S
Pr41 C51 2.880 . S
Pr41 O62 2.436 . S
Pr41 O64 2.438 . S
Pr41 O66 2.562 . S
Pr41 O67 2.490 . S
Pr41 O68 2.695 . S
Pr41 O69 2.512 . S
Pr41 O71 2.437 . S
C42 Pr40 2.880 1_545 S
C42 C43 1.491 . S
C42 O60 1.254 . S
C42 O61 1.225 . S
C43 C42 1.491 . S
C43 C44 1.392 . S
C43 C48 1.356 . S
C44 C43 1.392 . S
C44 C45 1.368 . S
C44 H72 0.929 . S
C45 C44 1.368 . S
C45 C46 1.386 . S
C45 H73 0.929 . S
C46 C45 1.386 . S
C46 C47 1.373 . S
C47 C46 1.373 . S
C47 C48 1.409 . S
C47 H74 0.931 . S
C48 C43 1.356 . S
C48 C47 1.409 . S
C48 H75 0.930 . S
C49 O62 1.270 . S
C49 O63 1.248 . S
C50 O64 1.267 . S
C50 O65 1.278 . S
C51 Pr41 2.880 . S
C51 C52 1.491 . S
C51 O66 1.254 . S
C51 O67 1.225 . S
C52 C51 1.491 . S
C52 C53 1.392 . S
C52 C57 1.356 . S
C53 C52 1.392 . S
C53 C54 1.368 . S
C53 H76 0.929 . S
C54 C53 1.368 . S
C54 C55 1.386 . S
C54 H77 0.929 . S
C55 C54 1.386 . S
C55 C56 1.373 . S
C56 C55 1.373 . S
C56 C57 1.409 . S
C56 H78 0.931 . S
C57 C52 1.356 . S
C57 C56 1.409 . S
C57 H79 0.930 . S
C58 O68 1.270 . S
C58 O69 1.248 . S
C59 O70 1.267 . S
C59 O71 1.278 . S
O60 Pr40 2.562 1_545 S
O60 C42 1.254 . S
O61 Pr40 2.490 1_545 S
O61 C42 1.225 . S
O62 Pr40 2.695 . S
O62 Pr41 2.436 . S
O62 C49 1.270 . S
O63 Pr40 2.512 . S
O63 C49 1.248 . S
O64 Pr41 2.438 . S
O64 C50 1.267 . S
O65 Pr40 2.437 . S
O65 C50 1.278 . S
O66 Pr41 2.562 . S
O66 C51 1.254 . S
O67 Pr41 2.490 . S
O67 C51 1.225 . S
O68 Pr40 2.436 . S
O68 Pr41 2.695 . S
O68 C58 1.270 . S
O69 Pr41 2.512 . S
O69 C58 1.248 . S
O70 Pr40 2.438 . S
O70 C59 1.267 . S
O71 Pr41 2.437 . S
O71 C59 1.278 . S
H72 C44 0.929 . S
H73 C45 0.929 . S
H74 C47 0.931 . S
H75 C48 0.930 . S
H76 C53 0.929 . S
H77 C54 0.929 . S
H78 C56 0.931 . S
H79 C57 0.930 . S
Pr80 C82 2.880 1_565 S
Pr80 O100 2.562 1_565 S
Pr80 O101 2.490 1_565 S
Pr80 O102 2.695 . S
Pr80 O103 2.512 . S
Pr80 O105 2.437 . S
Pr80 O108 2.436 . S
Pr80 O110 2.438 . S
Pr81 C91 2.880 . S
Pr81 O102 2.436 . S
Pr81 O104 2.438 . S
Pr81 O106 2.562 . S
Pr81 O107 2.490 . S
Pr81 O108 2.695 . S
Pr81 O109 2.512 . S
Pr81 O111 2.437 . S
C82 Pr80 2.880 1_545 S
C82 C83 1.491 . S
C82 O100 1.254 . S
C82 O101 1.225 . S
C83 C82 1.491 . S
C83 C84 1.392 . S
C83 C88 1.356 . S
C84 C83 1.392 . S
C84 C85 1.368 . S
C84 H112 0.929 . S
C85 C84 1.368 . S
C85 C86 1.386 . S
C85 H113 0.929 . S
C86 C85 1.386 . S
C86 C87 1.373 . S
C87 C86 1.373 . S
C87 C88 1.409 . S
C87 H114 0.931 . S
C88 C83 1.356 . S
C88 C87 1.409 . S
C88 H115 0.930 . S
C89 O102 1.270 . S
C89 O103 1.248 . S
C90 O104 1.267 . S
C90 O105 1.278 . S
C91 Pr81 2.880 . S
C91 C92 1.491 . S
C91 O106 1.254 . S
C91 O107 1.225 . S
C92 C91 1.491 . S
C92 C93 1.392 . S
C92 C97 1.356 . S
C93 C92 1.392 . S
C93 C94 1.368 . S
C93 H116 0.929 . S
C94 C93 1.368 . S
C94 C95 1.386 . S
C94 H117 0.929 . S
C95 C94 1.386 . S
C95 C96 1.373 . S
C96 C95 1.373 . S
C96 C97 1.409 . S
C96 H118 0.931 . S
C97 C92 1.356 . S
C97 C96 1.409 . S
C97 H119 0.930 . S
C98 O108 1.270 . S
C98 O109 1.248 . S
C99 O110 1.267 . S
C99 O111 1.278 . S
O100 Pr80 2.562 1_545 S
O100 C82 1.254 . S
O101 Pr80 2.490 1_545 S
O101 C82 1.225 . S
O102 Pr80 2.695 . S
O102 Pr81 2.436 . S
O102 C89 1.270 . S
O103 Pr80 2.512 . S
O103 C89 1.248 . S
O104 Pr81 2.438 . S
O104 C90 1.267 . S
O105 Pr80 2.437 . S
O105 C90 1.278 . S
O106 Pr81 2.562 . S
O106 C91 1.254 . S
O107 Pr81 2.490 . S
O107 C91 1.225 . S
O108 Pr80 2.436 . S
O108 Pr81 2.695 . S
O108 C98 1.270 . S
O109 Pr81 2.512 . S
O109 C98 1.248 . S
O110 Pr80 2.438 . S
O110 C99 1.267 . S
O111 Pr81 2.437 . S
O111 C99 1.278 . S
H112 C84 0.929 . S
H113 C85 0.929 . S
H114 C87 0.931 . S
H115 C88 0.930 . S
H116 C93 0.929 . S
H117 C94 0.929 . S
H118 C96 0.931 . S
H119 C97 0.930 . S
Pr120 C122 2.880 1_545 S
Pr120 O140 2.562 1_545 S
Pr120 O141 2.490 1_545 S
Pr120 O142 2.695 . S
Pr120 O143 2.512 . S
Pr120 O145 2.437 . S
Pr120 O148 2.436 . S
Pr120 O150 2.438 . S
Pr121 C131 2.880 . S
Pr121 O142 2.436 . S
Pr121 O144 2.438 . S
Pr121 O146 2.562 . S
Pr121 O147 2.490 . S
Pr121 O148 2.695 . S
Pr121 O149 2.512 . S
Pr121 O151 2.437 . S
C122 Pr120 2.880 1_565 S
C122 C123 1.491 . S
C122 O140 1.254 . S
C122 O141 1.225 . S
C123 C122 1.491 . S
C123 C124 1.392 . S
C123 C128 1.356 . S
C124 C123 1.392 . S
C124 C125 1.368 . S
C124 H152 0.929 . S
C125 C124 1.368 . S
C125 C126 1.386 . S
C125 H153 0.929 . S
C126 C125 1.386 . S
C126 C127 1.373 . S
C127 C126 1.373 . S
C127 C128 1.409 . S
C127 H154 0.931 . S
C128 C123 1.356 . S
C128 C127 1.409 . S
C128 H155 0.930 . S
C129 O142 1.270 . S
C129 O143 1.248 . S
C130 O144 1.267 . S
C130 O145 1.278 . S
C131 Pr121 2.880 . S
C131 C132 1.491 . S
C131 O146 1.254 . S
C131 O147 1.225 . S
C132 C131 1.491 . S
C132 C133 1.392 . S
C132 C137 1.356 . S
C133 C132 1.392 . S
C133 C134 1.368 . S
C133 H156 0.929 . S
C134 C133 1.368 . S
C134 C135 1.386 . S
C134 H157 0.929 . S
C135 C134 1.386 . S
C135 C136 1.373 . S
C136 C135 1.373 . S
C136 C137 1.409 . S
C136 H158 0.931 . S
C137 C132 1.356 . S
C137 C136 1.409 . S
C137 H159 0.930 . S
C138 O148 1.270 . S
C138 O149 1.248 . S
C139 O150 1.267 . S
C139 O151 1.278 . S
O140 Pr120 2.562 1_565 S
O140 C122 1.254 . S
O141 Pr120 2.490 1_565 S
O141 C122 1.225 . S
O142 Pr120 2.695 . S
O142 Pr121 2.436 . S
O142 C129 1.270 . S
O143 Pr120 2.512 . S
O143 C129 1.248 . S
O144 Pr121 2.438 . S
O144 C130 1.267 . S
O145 Pr120 2.437 . S
O145 C130 1.278 . S
O146 Pr121 2.562 . S
O146 C131 1.254 . S
O147 Pr121 2.490 . S
O147 C131 1.225 . S
O148 Pr120 2.436 . S
O148 Pr121 2.695 . S
O148 C138 1.270 . S
O149 Pr121 2.512 . S
O149 C138 1.248 . S
O150 Pr120 2.438 . S
O150 C139 1.267 . S
O151 Pr121 2.437 . S
O151 C139 1.278 . S
H152 C124 0.929 . S
H153 C125 0.929 . S
H154 C127 0.931 . S
H155 C128 0.930 . S
H156 C133 0.929 . S
H157 C134 0.929 . S
H158 C136 0.931 . S
H159 C137 0.930 . S
Pr160 C162 2.880 . S
Pr160 O180 2.562 . S
Pr160 O181 2.490 . S
Pr160 O182 2.695 . S
Pr160 O183 2.512 . S
Pr160 O185 2.437 . S
Pr160 O188 2.436 . S
Pr160 O190 2.438 . S
Pr161 C171 2.880 1_565 S
Pr161 O182 2.436 . S
Pr161 O184 2.438 . S
Pr161 O186 2.562 1_565 S
Pr161 O187 2.490 1_565 S
Pr161 O188 2.695 . S
Pr161 O189 2.512 . S
Pr161 O191 2.437 . S
C162 Pr160 2.880 . S
C162 C163 1.491 . S
C162 O180 1.254 . S
C162 O181 1.225 . S
C163 C162 1.491 . S
C163 C164 1.392 . S
C163 C168 1.356 . S
C164 C163 1.392 . S
C164 C165 1.368 . S
C164 H192 0.929 . S
C165 C164 1.368 . S
C165 C166 1.386 . S
C165 H193 0.929 . S
C166 C165 1.386 . S
C166 C167 1.373 . S
C167 C166 1.373 . S
C167 C168 1.409 . S
C167 H194 0.931 . S
C168 C163 1.356 . S
C168 C167 1.409 . S
C168 H195 0.930 . S
C169 O182 1.270 . S
C169 O183 1.248 . S
C170 O184 1.267 . S
C170 O185 1.278 . S
C171 Pr161 2.880 1_545 S
C171 C172 1.491 . S
C171 O186 1.254 . S
C171 O187 1.225 . S
C172 C171 1.491 . S
C172 C173 1.392 . S
C172 C177 1.356 . S
C173 C172 1.392 . S
C173 C174 1.368 . S
C173 H196 0.929 . S
C174 C173 1.368 . S
C174 C175 1.386 . S
C174 H197 0.929 . S
C175 C174 1.386 . S
C175 C176 1.373 . S
C176 C175 1.373 . S
C176 C177 1.409 . S
C176 H198 0.931 . S
C177 C172 1.356 . S
C177 C176 1.409 . S
C177 H199 0.930 . S
C178 O188 1.270 . S
C178 O189 1.248 . S
C179 O190 1.267 . S
C179 O191 1.278 . S
O180 Pr160 2.562 . S
O180 C162 1.254 . S
O181 Pr160 2.490 . S
O181 C162 1.225 . S
O182 Pr160 2.695 . S
O182 Pr161 2.436 . S
O182 C169 1.270 . S
O183 Pr160 2.512 . S
O183 C169 1.248 . S
O184 Pr161 2.438 . S
O184 C170 1.267 . S
O185 Pr160 2.437 . S
O185 C170 1.278 . S
O186 Pr161 2.562 1_545 S
O186 C171 1.254 . S
O187 Pr161 2.490 1_545 S
O187 C171 1.225 . S
O188 Pr160 2.436 . S
O188 Pr161 2.695 . S
O188 C178 1.270 . S
O189 Pr161 2.512 . S
O189 C178 1.248 . S
O190 Pr160 2.438 . S
O190 C179 1.267 . S
O191 Pr161 2.437 . S
O191 C179 1.278 . S
H192 C164 0.929 . S
H193 C165 0.929 . S
H194 C167 0.931 . S
H195 C168 0.930 . S
H196 C173 0.929 . S
H197 C174 0.929 . S
H198 C176 0.931 . S
H199 C177 0.930 . S
Pr200 C202 2.880 . S
Pr200 O220 2.562 . S
Pr200 O221 2.490 . S
Pr200 O222 2.695 . S
Pr200 O223 2.512 . S
Pr200 O225 2.437 . S
Pr200 O228 2.436 . S
Pr200 O230 2.438 . S
Pr201 C211 2.880 1_545 S
Pr201 O222 2.436 . S
Pr201 O224 2.438 . S
Pr201 O226 2.562 1_545 S
Pr201 O227 2.490 1_545 S
Pr201 O228 2.695 . S
Pr201 O229 2.512 . S
Pr201 O231 2.437 . S
C202 Pr200 2.880 . S
C202 C203 1.491 . S
C202 O220 1.254 . S
C202 O221 1.225 . S
C203 C202 1.491 . S
C203 C204 1.392 . S
C203 C208 1.356 . S
C204 C203 1.392 . S
C204 C205 1.368 . S
C204 H232 0.929 . S
C205 C204 1.368 . S
C205 C206 1.386 . S
C205 H233 0.929 . S
C206 C205 1.386 . S
C206 C207 1.373 . S
C207 C206 1.373 . S
C207 C208 1.409 . S
C207 H234 0.931 . S
C208 C203 1.356 . S
C208 C207 1.409 . S
C208 H235 0.930 . S
C209 O222 1.270 . S
C209 O223 1.248 . S
C210 O224 1.267 . S
C210 O225 1.278 . S
C211 Pr201 2.880 1_565 S
C211 C212 1.491 . S
C211 O226 1.254 . S
C211 O227 1.225 . S
C212 C211 1.491 . S
C212 C213 1.392 . S
C212 C217 1.356 . S
C213 C212 1.392 . S
C213 C214 1.368 . S
C213 H236 0.929 . S
C214 C213 1.368 . S
C214 C215 1.386 . S
C214 H237 0.929 . S
C215 C214 1.386 . S
C215 C216 1.373 . S
C216 C215 1.373 . S
C216 C217 1.409 . S
C216 H238 0.931 . S
C217 C212 1.356 . S
C217 C216 1.409 . S
C217 H239 0.930 . S
C218 O228 1.270 . S
C218 O229 1.248 . S
C219 O230 1.267 . S
C219 O231 1.278 . S
O220 Pr200 2.562 . S
O220 C202 1.254 . S
O221 Pr200 2.490 . S
O221 C202 1.225 . S
O222 Pr200 2.695 . S
O222 Pr201 2.436 . S
O222 C209 1.270 . S
O223 Pr200 2.512 . S
O223 C209 1.248 . S
O224 Pr201 2.438 . S
O224 C210 1.267 . S
O225 Pr200 2.437 . S
O225 C210 1.278 . S
O226 Pr201 2.562 1_565 S
O226 C211 1.254 . S
O227 Pr201 2.490 1_565 S
O227 C211 1.225 . S
O228 Pr200 2.436 . S
O228 Pr201 2.695 . S
O228 C218 1.270 . S
O229 Pr201 2.512 . S
O229 C218 1.248 . S
O230 Pr200 2.438 . S
O230 C219 1.267 . S
O231 Pr201 2.437 . S
O231 C219 1.278 . S
H232 C204 0.929 . S
H233 C205 0.929 . S
H234 C207 0.931 . S
H235 C208 0.930 . S
H236 C213 0.929 . S
H237 C214 0.929 . S
H238 C216 0.931 . S
H239 C217 0.930 . S
Pr240 C242 2.880 . S
Pr240 O260 2.562 . S
Pr240 O261 2.490 . S
Pr240 O262 2.695 . S
Pr240 O263 2.512 . S
Pr240 O265 2.437 . S
Pr240 O268 2.436 . S
Pr240 O270 2.438 . S
Pr241 C251 2.880 1_545 S
Pr241 O262 2.436 . S
Pr241 O264 2.438 . S
Pr241 O266 2.562 1_545 S
Pr241 O267 2.490 1_545 S
Pr241 O268 2.695 . S
Pr241 O269 2.512 . S
Pr241 O271 2.437 . S
C242 Pr240 2.880 . S
C242 C243 1.491 . S
C242 O260 1.254 . S
C242 O261 1.225 . S
C243 C242 1.491 . S
C243 C244 1.392 . S
C243 C248 1.356 . S
C244 C243 1.392 . S
C244 C245 1.368 . S
C244 H272 0.929 . S
C245 C244 1.368 . S
C245 C246 1.386 . S
C245 H273 0.929 . S
C246 C245 1.386 . S
C246 C247 1.373 . S
C247 C246 1.373 . S
C247 C248 1.409 . S
C247 H274 0.931 . S
C248 C243 1.356 . S
C248 C247 1.409 . S
C248 H275 0.930 . S
C249 O262 1.270 . S
C249 O263 1.248 . S
C250 O264 1.267 . S
C250 O265 1.278 . S
C251 Pr241 2.880 1_565 S
C251 C252 1.491 . S
C251 O266 1.254 . S
C251 O267 1.225 . S
C252 C251 1.491 . S
C252 C253 1.392 . S
C252 C257 1.356 . S
C253 C252 1.392 . S
C253 C254 1.368 . S
C253 H276 0.929 . S
C254 C253 1.368 . S
C254 C255 1.386 . S
C254 H277 0.929 . S
C255 C254 1.386 . S
C255 C256 1.373 . S
C256 C255 1.373 . S
C256 C257 1.409 . S
C256 H278 0.931 . S
C257 C252 1.356 . S
C257 C256 1.409 . S
C257 H279 0.930 . S
C258 O268 1.270 . S
C258 O269 1.248 . S
C259 O270 1.267 . S
C259 O271 1.278 . S
O260 Pr240 2.562 . S
O260 C242 1.254 . S
O261 Pr240 2.490 . S
O261 C242 1.225 . S
O262 Pr240 2.695 . S
O262 Pr241 2.436 . S
O262 C249 1.270 . S
O263 Pr240 2.512 . S
O263 C249 1.248 . S
O264 Pr241 2.438 . S
O264 C250 1.267 . S
O265 Pr240 2.437 . S
O265 C250 1.278 . S
O266 Pr241 2.562 1_565 S
O266 C251 1.254 . S
O267 Pr241 2.490 1_565 S
O267 C251 1.225 . S
O268 Pr240 2.436 . S
O268 Pr241 2.695 . S
O268 C258 1.270 . S
O269 Pr241 2.512 . S
O269 C258 1.248 . S
O270 Pr240 2.438 . S
O270 C259 1.267 . S
O271 Pr241 2.437 . S
O271 C259 1.278 . S
H272 C244 0.929 . S
H273 C245 0.929 . S
H274 C247 0.931 . S
H275 C248 0.930 . S
H276 C253 0.929 . S
H277 C254 0.929 . S
H278 C256 0.931 . S
H279 C257 0.930 . S
Pr280 C282 2.880 . S
Pr280 O300 2.562 . S
Pr280 O301 2.490 . S
Pr280 O302 2.695 . S
Pr280 O303 2.512 . S
Pr280 O305 2.437 . S
Pr280 O308 2.436 . S
Pr280 O310 2.438 . S
Pr281 C291 2.880 1_565 S
Pr281 O302 2.436 . S
Pr281 O304 2.438 . S
Pr281 O306 2.562 1_565 S
Pr281 O307 2.490 1_565 S
Pr281 O308 2.695 . S
Pr281 O309 2.512 . S
Pr281 O311 2.437 . S
C282 Pr280 2.880 . S
C282 C283 1.491 . S
C282 O300 1.254 . S
C282 O301 1.225 . S
C283 C282 1.491 . S
C283 C284 1.392 . S
C283 C288 1.356 . S
C284 C283 1.392 . S
C284 C285 1.368 . S
C284 H312 0.929 . S
C285 C284 1.368 . S
C285 C286 1.386 . S
C285 H313 0.929 . S
C286 C285 1.386 . S
C286 C287 1.373 . S
C287 C286 1.373 . S
C287 C288 1.409 . S
C287 H314 0.931 . S
C288 C283 1.356 . S
C288 C287 1.409 . S
C288 H315 0.930 . S
C289 O302 1.270 . S
C289 O303 1.248 . S
C290 O304 1.267 . S
C290 O305 1.278 . S
C291 Pr281 2.880 1_545 S
C291 C292 1.491 . S
C291 O306 1.254 . S
C291 O307 1.225 . S
C292 C291 1.491 . S
C292 C293 1.392 . S
C292 C297 1.356 . S
C293 C292 1.392 . S
C293 C294 1.368 . S
C293 H316 0.929 . S
C294 C293 1.368 . S
C294 C295 1.386 . S
C294 H317 0.929 . S
C295 C294 1.386 . S
C295 C296 1.373 . S
C296 C295 1.373 . S
C296 C297 1.409 . S
C296 H318 0.931 . S
C297 C292 1.356 . S
C297 C296 1.409 . S
C297 H319 0.930 . S
C298 O308 1.270 . S
C298 O309 1.248 . S
C299 O310 1.267 . S
C299 O311 1.278 . S
O300 Pr280 2.562 . S
O300 C282 1.254 . S
O301 Pr280 2.490 . S
O301 C282 1.225 . S
O302 Pr280 2.695 . S
O302 Pr281 2.436 . S
O302 C289 1.270 . S
O303 Pr280 2.512 . S
O303 C289 1.248 . S
O304 Pr281 2.438 . S
O304 C290 1.267 . S
O305 Pr280 2.437 . S
O305 C290 1.278 . S
O306 Pr281 2.562 1_545 S
O306 C291 1.254 . S
O307 Pr281 2.490 1_545 S
O307 C291 1.225 . S
O308 Pr280 2.436 . S
O308 Pr281 2.695 . S
O308 C298 1.270 . S
O309 Pr281 2.512 . S
O309 C298 1.248 . S
O310 Pr280 2.438 . S
O310 C299 1.267 . S
O311 Pr281 2.437 . S
O311 C299 1.278 . S
H312 C284 0.929 . S
H313 C285 0.929 . S
H314 C287 0.931 . S
H315 C288 0.930 . S
H316 C293 0.929 . S
H317 C294 0.929 . S
H318 C296 0.931 . S
H319 C297 0.930 . S
Pr320 C322 2.880 . S
Pr320 O340 2.562 . S
Pr320 O341 2.490 . S
Pr320 O342 2.695 . S
Pr320 O343 2.512 . S
Pr320 O345 2.437 . S
Pr320 O348 2.436 . S
Pr320 O350 2.438 . S
Pr321 C331 2.880 . S
Pr321 O342 2.436 . S
Pr321 O344 2.438 . S
Pr321 O346 2.562 . S
Pr321 O347 2.490 . S
Pr321 O348 2.695 . S
Pr321 O349 2.512 . S
Pr321 O351 2.437 . S
C322 Pr320 2.880 . S
C322 C323 1.491 . S
C322 O340 1.254 . S
C322 O341 1.225 . S
C323 C322 1.491 . S
C323 C324 1.392 . S
C323 C328 1.356 . S
C324 C323 1.392 . S
C324 C325 1.368 . S
C324 H352 0.929 . S
C325 C324 1.368 . S
C325 C326 1.386 . S
C325 H353 0.929 . S
C326 C325 1.386 . S
C326 C327 1.373 . S
C327 C326 1.373 . S
C327 C328 1.409 . S
C327 H354 0.931 . S
C328 C323 1.356 . S
C328 C327 1.409 . S
C328 H355 0.930 . S
C329 O342 1.270 . S
C329 O343 1.248 . S
C330 O344 1.267 . S
C330 O345 1.278 . S
C331 Pr321 2.880 . S
C331 C332 1.491 . S
C331 O346 1.254 . S
C331 O347 1.225 . S
C332 C331 1.491 . S
C332 C333 1.392 . S
C332 C337 1.356 . S
C333 C332 1.392 . S
C333 C334 1.368 . S
C333 H356 0.929 . S
C334 C333 1.368 . S
C334 C335 1.386 . S
C334 H357 0.929 . S
C335 C334 1.386 . S
C335 C336 1.373 . S
C336 C335 1.373 . S
C336 C337 1.409 . S
C336 H358 0.931 . S
C337 C332 1.356 . S
C337 C336 1.409 . S
C337 H359 0.930 . S
C338 O348 1.270 . S
C338 O349 1.248 . S
C339 O350 1.267 . S
C339 O351 1.278 . S
O340 Pr320 2.562 . S
O340 C322 1.254 . S
O341 Pr320 2.490 . S
O341 C322 1.225 . S
O342 Pr320 2.695 . S
O342 Pr321 2.436 . S
O342 C329 1.270 . S
O343 Pr320 2.512 . S
O343 C329 1.248 . S
O344 Pr321 2.438 . S
O344 C330 1.267 . S
O345 Pr320 2.437 . S
O345 C330 1.278 . S
O346 Pr321 2.562 . S
O346 C331 1.254 . S
O347 Pr321 2.490 . S
O347 C331 1.225 . S
O348 Pr320 2.436 . S
O348 Pr321 2.695 . S
O348 C338 1.270 . S
O349 Pr321 2.512 . S
O349 C338 1.248 . S
O350 Pr320 2.438 . S
O350 C339 1.267 . S
O351 Pr321 2.437 . S
O351 C339 1.278 . S
H352 C324 0.929 . S
H353 C325 0.929 . S
H354 C327 0.931 . S
H355 C328 0.930 . S
H356 C333 0.929 . S
H357 C334 0.929 . S
H358 C336 0.931 . S
H359 C337 0.930 . S
Pr360 C362 2.880 . S
Pr360 O380 2.562 . S
Pr360 O381 2.490 . S
Pr360 O382 2.695 . S
Pr360 O383 2.512 . S
Pr360 O385 2.437 . S
Pr360 O388 2.436 . S
Pr360 O390 2.438 . S
Pr361 C371 2.880 . S
Pr361 O382 2.436 . S
Pr361 O384 2.438 . S
Pr361 O386 2.562 . S
Pr361 O387 2.490 . S
Pr361 O388 2.695 . S
Pr361 O389 2.512 . S
Pr361 O391 2.437 . S
C362 Pr360 2.880 . S
C362 C363 1.491 . S
C362 O380 1.254 . S
C362 O381 1.225 . S
C363 C362 1.491 . S
C363 C364 1.392 . S
C363 C368 1.356 . S
C364 C363 1.392 . S
C364 C365 1.368 . S
C364 H392 0.929 . S
C365 C364 1.368 . S
C365 C366 1.386 . S
C365 H393 0.929 . S
C366 C365 1.386 . S
C366 C367 1.373 . S
C367 C366 1.373 . S
C367 C368 1.409 . S
C367 H394 0.931 . S
C368 C363 1.356 . S
C368 C367 1.409 . S
C368 H395 0.930 . S
C369 O382 1.270 . S
C369 O383 1.248 . S
C370 O384 1.267 . S
C370 O385 1.278 . S
C371 Pr361 2.880 . S
C371 C372 1.491 . S
C371 O386 1.254 . S
C371 O387 1.225 . S
C372 C371 1.491 . S
C372 C373 1.392 . S
C372 C377 1.356 . S
C373 C372 1.392 . S
C373 C374 1.368 . S
C373 H396 0.929 . S
C374 C373 1.368 . S
C374 C375 1.386 . S
C374 H397 0.929 . S
C375 C374 1.386 . S
C375 C376 1.373 . S
C376 C375 1.373 . S
C376 C377 1.409 . S
C376 H398 0.931 . S
C377 C372 1.356 . S
C377 C376 1.409 . S
C377 H399 0.930 . S
C378 O388 1.270 . S
C378 O389 1.248 . S
C379 O390 1.267 . S
C379 O391 1.278 . S
O380 Pr360 2.562 . S
O380 C362 1.254 . S
O381 Pr360 2.490 . S
O381 C362 1.225 . S
O382 Pr360 2.695 . S
O382 Pr361 2.436 . S
O382 C369 1.270 . S
O383 Pr360 2.512 . S
O383 C369 1.248 . S
O384 Pr361 2.438 . S
O384 C370 1.267 . S
O385 Pr360 2.437 . S
O385 C370 1.278 . S
O386 Pr361 2.562 . S
O386 C371 1.254 . S
O387 Pr361 2.490 . S
O387 C371 1.225 . S
O388 Pr360 2.436 . S
O388 Pr361 2.695 . S
O388 C378 1.270 . S
O389 Pr361 2.512 . S
O389 C378 1.248 . S
O390 Pr360 2.438 . S
O390 C379 1.267 . S
O391 Pr361 2.437 . S
O391 C379 1.278 . S
H392 C364 0.929 . S
H393 C365 0.929 . S
H394 C367 0.931 . S
H395 C368 0.930 . S
H396 C373 0.929 . S
H397 C374 0.929 . S
H398 C376 0.931 . S
H399 C377 0.930 . S
Pr400 C402 2.880 . S
Pr400 O420 2.562 . S
Pr400 O421 2.490 . S
Pr400 O422 2.695 . S
Pr400 O423 2.512 . S
Pr400 O425 2.437 . S
Pr400 O428 2.436 . S
Pr400 O430 2.438 . S
Pr401 C411 2.880 . S
Pr401 O422 2.436 . S
Pr401 O424 2.438 . S
Pr401 O426 2.562 . S
Pr401 O427 2.490 . S
Pr401 O428 2.695 . S
Pr401 O429 2.512 . S
Pr401 O431 2.437 . S
C402 Pr400 2.880 . S
C402 C403 1.491 . S
C402 O420 1.254 . S
C402 O421 1.225 . S
C403 C402 1.491 . S
C403 C404 1.392 . S
C403 C408 1.356 . S
C404 C403 1.392 . S
C404 C405 1.368 . S
C404 H432 0.929 . S
C405 C404 1.368 . S
C405 C406 1.386 . S
C405 H433 0.929 . S
C406 C405 1.386 . S
C406 C407 1.373 . S
C407 C406 1.373 . S
C407 C408 1.409 . S
C407 H434 0.931 . S
C408 C403 1.356 . S
C408 C407 1.409 . S
C408 H435 0.930 . S
C409 O422 1.270 . S
C409 O423 1.248 . S
C410 O424 1.267 . S
C410 O425 1.278 . S
C411 Pr401 2.880 . S
C411 C412 1.491 . S
C411 O426 1.254 . S
C411 O427 1.225 . S
C412 C411 1.491 . S
C412 C413 1.392 . S
C412 C417 1.356 . S
C413 C412 1.392 . S
C413 C414 1.368 . S
C413 H436 0.929 . S
C414 C413 1.368 . S
C414 C415 1.386 . S
C414 H437 0.929 . S
C415 C414 1.386 . S
C415 C416 1.373 . S
C416 C415 1.373 . S
C416 C417 1.409 . S
C416 H438 0.931 . S
C417 C412 1.356 . S
C417 C416 1.409 . S
C417 H439 0.930 . S
C418 O428 1.270 . S
C418 O429 1.248 . S
C419 O430 1.267 . S
C419 O431 1.278 . S
O420 Pr400 2.562 . S
O420 C402 1.254 . S
O421 Pr400 2.490 . S
O421 C402 1.225 . S
O422 Pr400 2.695 . S
O422 Pr401 2.436 . S
O422 C409 1.270 . S
O423 Pr400 2.512 . S
O423 C409 1.248 . S
O424 Pr401 2.438 . S
O424 C410 1.267 . S
O425 Pr400 2.437 . S
O425 C410 1.278 . S
O426 Pr401 2.562 . S
O426 C411 1.254 . S
O427 Pr401 2.490 . S
O427 C411 1.225 . S
O428 Pr400 2.436 . S
O428 Pr401 2.695 . S
O428 C418 1.270 . S
O429 Pr401 2.512 . S
O429 C418 1.248 . S
O430 Pr400 2.438 . S
O430 C419 1.267 . S
O431 Pr401 2.437 . S
O431 C419 1.278 . S
H432 C404 0.929 . S
H433 C405 0.929 . S
H434 C407 0.931 . S
H435 C408 0.930 . S
H436 C413 0.929 . S
H437 C414 0.929 . S
H438 C416 0.931 . S
H439 C417 0.930 . S
Pr440 C442 2.880 . S
Pr440 O460 2.562 . S
Pr440 O461 2.490 . S
Pr440 O462 2.695 . S
Pr440 O463 2.512 . S
Pr440 O465 2.437 . S
Pr440 O468 2.436 . S
Pr440 O470 2.438 . S
Pr441 C451 2.880 . S
Pr441 O462 2.436 . S
Pr441 O464 2.438 . S
Pr441 O466 2.562 . S
Pr441 O467 2.490 . S
Pr441 O468 2.695 . S
Pr441 O469 2.512 . S
Pr441 O471 2.437 . S
C442 Pr440 2.880 . S
C442 C443 1.491 . S
C442 O460 1.254 . S
C442 O461 1.225 . S
C443 C442 1.491 . S
C443 C444 1.392 . S
C443 C448 1.356 . S
C444 C443 1.392 . S
C444 C445 1.368 . S
C444 H472 0.929 . S
C445 C444 1.368 . S
C445 C446 1.386 . S
C445 H473 0.929 . S
C446 C445 1.386 . S
C446 C447 1.373 . S
C447 C446 1.373 . S
C447 C448 1.409 . S
C447 H474 0.931 . S
C448 C443 1.356 . S
C448 C447 1.409 . S
C448 H475 0.930 . S
C449 O462 1.270 . S
C449 O463 1.248 . S
C450 O464 1.267 . S
C450 O465 1.278 . S
C451 Pr441 2.880 . S
C451 C452 1.491 . S
C451 O466 1.254 . S
C451 O467 1.225 . S
C452 C451 1.491 . S
C452 C453 1.392 . S
C452 C457 1.356 . S
C453 C452 1.392 . S
C453 C454 1.368 . S
C453 H476 0.929 . S
C454 C453 1.368 . S
C454 C455 1.386 . S
C454 H477 0.929 . S
C455 C454 1.386 . S
C455 C456 1.373 . S
C456 C455 1.373 . S
C456 C457 1.409 . S
C456 H478 0.931 . S
C457 C452 1.356 . S
C457 C456 1.409 . S
C457 H479 0.930 . S
C458 O468 1.270 . S
C458 O469 1.248 . S
C459 O470 1.267 . S
C459 O471 1.278 . S
O460 Pr440 2.562 . S
O460 C442 1.254 . S
O461 Pr440 2.490 . S
O461 C442 1.225 . S
O462 Pr440 2.695 . S
O462 Pr441 2.436 . S
O462 C449 1.270 . S
O463 Pr440 2.512 . S
O463 C449 1.248 . S
O464 Pr441 2.438 . S
O464 C450 1.267 . S
O465 Pr440 2.437 . S
O465 C450 1.278 . S
O466 Pr441 2.562 . S
O466 C451 1.254 . S
O467 Pr441 2.490 . S
O467 C451 1.225 . S
O468 Pr440 2.436 . S
O468 Pr441 2.695 . S
O468 C458 1.270 . S
O469 Pr441 2.512 . S
O469 C458 1.248 . S
O470 Pr440 2.438 . S
O470 C459 1.267 . S
O471 Pr441 2.437 . S
O471 C459 1.278 . S
H472 C444 0.929 . S
H473 C445 0.929 . S
H474 C447 0.931 . S
H475 C448 0.930 . S
H476 C453 0.929 . S
H477 C454 0.929 . S
H478 C456 0.931 . S
H479 C457 0.930 . S
Pr480 C482 2.880 . S
Pr480 O500 2.562 . S
Pr480 O501 2.490 . S
Pr480 O502 2.695 . S
Pr480 O503 2.512 . S
Pr480 O505 2.437 . S
Pr480 O508 2.436 . S
Pr480 O510 2.438 . S
Pr481 C491 2.880 . S
Pr481 O502 2.436 . S
Pr481 O504 2.438 . S
Pr481 O506 2.562 . S
Pr481 O507 2.490 . S
Pr481 O508 2.695 . S
Pr481 O509 2.512 . S
Pr481 O511 2.437 . S
C482 Pr480 2.880 . S
C482 C483 1.491 . S
C482 O500 1.254 . S
C482 O501 1.225 . S
C483 C482 1.491 . S
C483 C484 1.392 . S
C483 C488 1.356 . S
C484 C483 1.392 . S
C484 C485 1.368 . S
C484 H512 0.929 . S
C485 C484 1.368 . S
C485 C486 1.386 . S
C485 H513 0.929 . S
C486 C485 1.386 . S
C486 C487 1.373 . S
C487 C486 1.373 . S
C487 C488 1.409 . S
C487 H514 0.931 . S
C488 C483 1.356 . S
C488 C487 1.409 . S
C488 H515 0.930 . S
C489 O502 1.270 . S
C489 O503 1.248 . S
C490 O504 1.267 . S
C490 O505 1.278 . S
C491 Pr481 2.880 . S
C491 C492 1.491 . S
C491 O506 1.254 . S
C491 O507 1.225 . S
C492 C491 1.491 . S
C492 C493 1.392 . S
C492 C497 1.356 . S
C493 C492 1.392 . S
C493 C494 1.368 . S
C493 H516 0.929 . S
C494 C493 1.368 . S
C494 C495 1.386 . S
C494 H517 0.929 . S
C495 C494 1.386 . S
C495 C496 1.373 . S
C496 C495 1.373 . S
C496 C497 1.409 . S
C496 H518 0.931 . S
C497 C492 1.356 . S
C497 C496 1.409 . S
C497 H519 0.930 . S
C498 O508 1.270 . S
C498 O509 1.248 . S
C499 O510 1.267 . S
C499 O511 1.278 . S
O500 Pr480 2.562 . S
O500 C482 1.254 . S
O501 Pr480 2.490 . S
O501 C482 1.225 . S
O502 Pr480 2.695 . S
O502 Pr481 2.436 . S
O502 C489 1.270 . S
O503 Pr480 2.512 . S
O503 C489 1.248 . S
O504 Pr481 2.438 . S
O504 C490 1.267 . S
O505 Pr480 2.437 . S
O505 C490 1.278 . S
O506 Pr481 2.562 . S
O506 C491 1.254 . S
O507 Pr481 2.490 . S
O507 C491 1.225 . S
O508 Pr480 2.436 . S
O508 Pr481 2.695 . S
O508 C498 1.270 . S
O509 Pr481 2.512 . S
O509 C498 1.248 . S
O510 Pr480 2.438 . S
O510 C499 1.267 . S
O511 Pr481 2.437 . S
O511 C499 1.278 . S
H512 C484 0.929 . S
H513 C485 0.929 . S
H514 C487 0.931 . S
H515 C488 0.930 . S
H516 C493 0.929 . S
H517 C494 0.929 . S
H518 C496 0.931 . S
H519 C497 0.930 . S
Pr520 C522 2.880 . S
Pr520 O540 2.562 . S
Pr520 O541 2.490 . S
Pr520 O542 2.695 . S
Pr520 O543 2.512 . S
Pr520 O545 2.437 . S
Pr520 O548 2.436 . S
Pr520 O550 2.438 . S
Pr521 C531 2.880 . S
Pr521 O542 2.436 . S
Pr521 O544 2.438 . S
Pr521 O546 2.562 . S
Pr521 O547 2.490 . S
Pr521 O548 2.695 . S
Pr521 O549 2.512 . S
Pr521 O551 2.437 . S
C522 Pr520 2.880 . S
C522 C523 1.491 . S
C522 O540 1.254 . S
C522 O541 1.225 . S
C523 C522 1.491 . S
C523 C524 1.392 . S
C523 C528 1.356 . S
C524 C523 1.392 . S
C524 C525 1.368 . S
C524 H552 0.929 . S
C525 C524 1.368 . S
C525 C526 1.386 . S
C525 H553 0.929 . S
C526 C525 1.386 . S
C526 C527 1.373 . S
C527 C526 1.373 . S
C527 C528 1.409 . S
C527 H554 0.931 . S
C528 C523 1.356 . S
C528 C527 1.409 . S
C528 H555 0.930 . S
C529 O542 1.270 . S
C529 O543 1.248 . S
C530 O544 1.267 . S
C530 O545 1.278 . S
C531 Pr521 2.880 . S
C531 C532 1.491 . S
C531 O546 1.254 . S
C531 O547 1.225 . S
C532 C531 1.491 . S
C532 C533 1.392 . S
C532 C537 1.356 . S
C533 C532 1.392 . S
C533 C534 1.368 . S
C533 H556 0.929 . S
C534 C533 1.368 . S
C534 C535 1.386 . S
C534 H557 0.929 . S
C535 C534 1.386 . S
C535 C536 1.373 . S
C536 C535 1.373 . S
C536 C537 1.409 . S
C536 H558 0.931 . S
C537 C532 1.356 . S
C537 C536 1.409 . S
C537 H559 0.930 . S
C538 O548 1.270 . S
C538 O549 1.248 . S
C539 O550 1.267 . S
C539 O551 1.278 . S
O540 Pr520 2.562 . S
O540 C522 1.254 . S
O541 Pr520 2.490 . S
O541 C522 1.225 . S
O542 Pr520 2.695 . S
O542 Pr521 2.436 . S
O542 C529 1.270 . S
O543 Pr520 2.512 . S
O543 C529 1.248 . S
O544 Pr521 2.438 . S
O544 C530 1.267 . S
O545 Pr520 2.437 . S
O545 C530 1.278 . S
O546 Pr521 2.562 . S
O546 C531 1.254 . S
O547 Pr521 2.490 . S
O547 C531 1.225 . S
O548 Pr520 2.436 . S
O548 Pr521 2.695 . S
O548 C538 1.270 . S
O549 Pr521 2.512 . S
O549 C538 1.248 . S
O550 Pr520 2.438 . S
O550 C539 1.267 . S
O551 Pr521 2.437 . S
O551 C539 1.278 . S
H552 C524 0.929 . S
H553 C525 0.929 . S
H554 C527 0.931 . S
H555 C528 0.930 . S
H556 C533 0.929 . S
H557 C534 0.929 . S
H558 C536 0.931 . S
H559 C537 0.930 . S
Pr560 C562 2.880 . S
Pr560 O580 2.562 . S
Pr560 O581 2.490 . S
Pr560 O582 2.695 . S
Pr560 O583 2.512 . S
Pr560 O585 2.437 . S
Pr560 O588 2.436 . S
Pr560 O590 2.438 . S
Pr561 C571 2.880 . S
Pr561 O582 2.436 . S
Pr561 O584 2.438 . S
Pr561 O586 2.562 . S
Pr561 O587 2.490 . S
Pr561 O588 2.695 . S
Pr561 O589 2.512 . S
Pr561 O591 2.437 . S
C562 Pr560 2.880 . S
C562 C563 1.491 . S
C562 O580 1.254 . S
C562 O581 1.225 . S
C563 C562 1.491 . S
C563 C564 1.392 . S
C563 C568 1.356 . S
C564 C563 1.392 . S
C564 C565 1.368 . S
C564 H592 0.929 . S
C565 C564 1.368 . S
C565 C566 1.386 . S
C565 H593 0.929 . S
C566 C565 1.386 . S
C566 C567 1.373 . S
C567 C566 1.373 . S
C567 C568 1.409 . S
C567 H594 0.931 . S
C568 C563 1.356 . S
C568 C567 1.409 . S
C568 H595 0.930 . S
C569 O582 1.270 . S
C569 O583 1.248 . S
C570 O584 1.267 . S
C570 O585 1.278 . S
C571 Pr561 2.880 . S
C571 C572 1.491 . S
C571 O586 1.254 . S
C571 O587 1.225 . S
C572 C571 1.491 . S
C572 C573 1.392 . S
C572 C577 1.356 . S
C573 C572 1.392 . S
C573 C574 1.368 . S
C573 H596 0.929 . S
C574 C573 1.368 . S
C574 C575 1.386 . S
C574 H597 0.929 . S
C575 C574 1.386 . S
C575 C576 1.373 . S
C576 C575 1.373 . S
C576 C577 1.409 . S
C576 H598 0.931 . S
C577 C572 1.356 . S
C577 C576 1.409 . S
C577 H599 0.930 . S
C578 O588 1.270 . S
C578 O589 1.248 . S
C579 O590 1.267 . S
C579 O591 1.278 . S
O580 Pr560 2.562 . S
O580 C562 1.254 . S
O581 Pr560 2.490 . S
O581 C562 1.225 . S
O582 Pr560 2.695 . S
O582 Pr561 2.436 . S
O582 C569 1.270 . S
O583 Pr560 2.512 . S
O583 C569 1.248 . S
O584 Pr561 2.438 . S
O584 C570 1.267 . S
O585 Pr560 2.437 . S
O585 C570 1.278 . S
O586 Pr561 2.562 . S
O586 C571 1.254 . S
O587 Pr561 2.490 . S
O587 C571 1.225 . S
O588 Pr560 2.436 . S
O588 Pr561 2.695 . S
O588 C578 1.270 . S
O589 Pr561 2.512 . S
O589 C578 1.248 . S
O590 Pr560 2.438 . S
O590 C579 1.267 . S
O591 Pr561 2.437 . S
O591 C579 1.278 . S
H592 C564 0.929 . S
H593 C565 0.929 . S
H594 C567 0.931 . S
H595 C568 0.930 . S
H596 C573 0.929 . S
H597 C574 0.929 . S
H598 C576 0.931 . S
H599 C577 0.930 . S
Pr600 C602 2.880 . S
Pr600 O620 2.562 . S
Pr600 O621 2.490 . S
Pr600 O622 2.695 . S
Pr600 O623 2.512 . S
Pr600 O625 2.437 . S
Pr600 O628 2.436 . S
Pr600 O630 2.438 . S
Pr601 C611 2.880 . S
Pr601 O622 2.436 . S
Pr601 O624 2.438 . S
Pr601 O626 2.562 . S
Pr601 O627 2.490 . S
Pr601 O628 2.695 . S
Pr601 O629 2.512 . S
Pr601 O631 2.437 . S
C602 Pr600 2.880 . S
C602 C603 1.491 . S
C602 O620 1.254 . S
C602 O621 1.225 . S
C603 C602 1.491 . S
C603 C604 1.392 . S
C603 C608 1.356 . S
C604 C603 1.392 . S
C604 C605 1.368 . S
C604 H632 0.929 . S
C605 C604 1.368 . S
C605 C606 1.386 . S
C605 H633 0.929 . S
C606 C605 1.386 . S
C606 C607 1.373 . S
C607 C606 1.373 . S
C607 C608 1.409 . S
C607 H634 0.931 . S
C608 C603 1.356 . S
C608 C607 1.409 . S
C608 H635 0.930 . S
C609 O622 1.270 . S
C609 O623 1.248 . S
C610 O624 1.267 . S
C610 O625 1.278 . S
C611 Pr601 2.880 . S
C611 C612 1.491 . S
C611 O626 1.254 . S
C611 O627 1.225 . S
C612 C611 1.491 . S
C612 C613 1.392 . S
C612 C617 1.356 . S
C613 C612 1.392 . S
C613 C614 1.368 . S
C613 H636 0.929 . S
C614 C613 1.368 . S
C614 C615 1.386 . S
C614 H637 0.929 . S
C615 C614 1.386 . S
C615 C616 1.373 . S
C616 C615 1.373 . S
C616 C617 1.409 . S
C616 H638 0.931 . S
C617 C612 1.356 . S
C617 C616 1.409 . S
C617 H639 0.930 . S
C618 O628 1.270 . S
C618 O629 1.248 . S
C619 O630 1.267 . S
C619 O631 1.278 . S
O620 Pr600 2.562 . S
O620 C602 1.254 . S
O621 Pr600 2.490 . S
O621 C602 1.225 . S
O622 Pr600 2.695 . S
O622 Pr601 2.436 . S
O622 C609 1.270 . S
O623 Pr600 2.512 . S
O623 C609 1.248 . S
O624 Pr601 2.438 . S
O624 C610 1.267 . S
O625 Pr600 2.437 . S
O625 C610 1.278 . S
O626 Pr601 2.562 . S
O626 C611 1.254 . S
O627 Pr601 2.490 . S
O627 C611 1.225 . S
O628 Pr600 2.436 . S
O628 Pr601 2.695 . S
O628 C618 1.270 . S
O629 Pr601 2.512 . S
O629 C618 1.248 . S
O630 Pr600 2.438 . S
O630 C619 1.267 . S
O631 Pr601 2.437 . S
O631 C619 1.278 . S
H632 C604 0.929 . S
H633 C605 0.929 . S
H634 C607 0.931 . S
H635 C608 0.930 . S
H636 C613 0.929 . S
H637 C614 0.929 . S
H638 C616 0.931 . S
H639 C617 0.930 . S
C640 C641 1.363 . S
C640 C646 1.379 . S
C640 N648 1.356 . S
C641 C640 1.363 . S
C641 C647 1.363 . S
C642 C643 1.363 . S
C642 C647 1.379 . S
C642 N649 1.356 . S
C643 C642 1.363 . S
C643 C646 1.363 . S
N644 C646 1.356 . S
N644 H656 0.984 . S
N644 H657 0.985 . S
N645 C647 1.356 . S
N645 H650 0.984 . S
N645 H651 0.985 . S
C646 C640 1.379 . S
C646 C643 1.363 . S
C646 N644 1.356 . S
C647 C641 1.363 . S
C647 C642 1.379 . S
C647 N645 1.356 . S
N648 C640 1.356 . S
N648 H654 0.984 . S
N648 H655 0.984 . S
N649 C642 1.356 . S
N649 H652 0.984 . S
N649 H653 0.985 . S
H650 N645 0.984 . S
H651 N645 0.985 . S
H652 N649 0.984 . S
H653 N649 0.985 . S
H654 N648 0.984 . S
H655 N648 0.984 . S
H656 N644 0.984 . S
H657 N644 0.985 . S
C658 C659 1.363 . S
C658 C664 1.379 . S
C658 N666 1.356 . S
C659 C658 1.363 . S
C659 C665 1.363 . S
C660 C661 1.363 . S
C660 C665 1.379 . S
C660 N667 1.356 . S
C661 C660 1.363 . S
C661 C664 1.363 . S
N662 C664 1.356 . S
N662 H674 0.984 . S
N662 H675 0.985 . S
N663 C665 1.356 . S
N663 H668 0.984 . S
N663 H669 0.985 . S
C664 C658 1.379 . S
C664 C661 1.363 . S
C664 N662 1.356 . S
C665 C659 1.363 . S
C665 C660 1.379 . S
C665 N663 1.356 . S
N666 C658 1.356 . S
N666 H672 0.984 . S
N666 H673 0.984 . S
N667 C660 1.356 . S
N667 H670 0.984 . S
N667 H671 0.985 . S
H668 N663 0.984 . S
H669 N663 0.985 . S
H670 N667 0.984 . S
H671 N667 0.985 . S
H672 N666 0.984 . S
H673 N666 0.984 . S
H674 N662 0.984 . S
H675 N662 0.985 . S
C676 C677 1.363 . S
C676 C682 1.379 . S
C676 N684 1.356 . S
C677 C676 1.363 . S
C677 C683 1.363 . S
C678 C679 1.363 . S
C678 C683 1.379 . S
C678 N685 1.356 . S
C679 C678 1.363 . S
C679 C682 1.363 . S
N680 C682 1.356 . S
N680 H692 0.984 . S
N680 H693 0.985 . S
N681 C683 1.356 . S
N681 H686 0.984 . S
N681 H687 0.985 . S
C682 C676 1.379 . S
C682 C679 1.363 . S
C682 N680 1.356 . S
C683 C677 1.363 . S
C683 C678 1.379 . S
C683 N681 1.356 . S
N684 C676 1.356 . S
N684 H690 0.984 . S
N684 H691 0.984 . S
N685 C678 1.356 . S
N685 H688 0.984 . S
N685 H689 0.985 . S
H686 N681 0.984 . S
H687 N681 0.985 . S
H688 N685 0.984 . S
H689 N685 0.985 . S
H690 N684 0.984 . S
H691 N684 0.984 . S
H692 N680 0.984 . S
H693 N680 0.985 . S
C694 C695 1.363 . S
C694 C700 1.379 . S
C694 N702 1.356 . S
C695 C694 1.363 . S
C695 C701 1.363 . S
C696 C697 1.363 . S
C696 C701 1.379 . S
C696 N703 1.356 . S
C697 C696 1.363 . S
C697 C700 1.363 . S
N698 C700 1.356 . S
N698 H710 0.984 . S
N698 H711 0.985 . S
N699 C701 1.356 . S
N699 H704 0.984 . S
N699 H705 0.985 . S
C700 C694 1.379 . S
C700 C697 1.363 . S
C700 N698 1.356 . S
C701 C695 1.363 . S
C701 C696 1.379 . S
C701 N699 1.356 . S
N702 C694 1.356 . S
N702 H708 0.984 . S
N702 H709 0.984 . S
N703 C696 1.356 . S
N703 H706 0.984 . S
N703 H707 0.985 . S
H704 N699 0.984 . S
H705 N699 0.985 . S
H706 N703 0.984 . S
H707 N703 0.985 . S
H708 N702 0.984 . S
H709 N702 0.984 . S
H710 N698 0.984 . S
H711 N698 0.985 . S
C712 C713 1.363 . S
C712 C718 1.379 . S
C712 N720 1.356 . S
C713 C712 1.363 . S
C713 C719 1.363 . S
C714 C715 1.363 . S
C714 C719 1.379 . S
C714 N721 1.356 . S
C715 C714 1.363 . S
C715 C718 1.363 . S
N716 C718 1.356 . S
N716 H728 0.984 . S
N716 H729 0.985 . S
N717 C719 1.356 . S
N717 H722 0.984 . S
N717 H723 0.985 . S
C718 C712 1.379 . S
C718 C715 1.363 . S
C718 N716 1.356 . S
C719 C713 1.363 . S
C719 C714 1.379 . S
C719 N717 1.356 . S
N720 C712 1.356 . S
N720 H726 0.984 . S
N720 H727 0.984 . S
N721 C714 1.356 . S
N721 H724 0.984 . S
N721 H725 0.985 . S
H722 N717 0.984 . S
H723 N717 0.985 . S
H724 N721 0.984 . S
H725 N721 0.985 . S
H726 N720 0.984 . S
H727 N720 0.984 . S
H728 N716 0.984 . S
H729 N716 0.985 . S
C730 C731 1.363 . S
C730 C736 1.379 . S
C730 N738 1.356 . S
C731 C730 1.363 . S
C731 C737 1.363 . S
C732 C733 1.363 . S
C732 C737 1.379 . S
C732 N739 1.356 . S
C733 C732 1.363 . S
C733 C736 1.363 . S
N734 C736 1.356 . S
N734 H746 0.984 . S
N734 H747 0.985 . S
N735 C737 1.356 . S
N735 H740 0.984 . S
N735 H741 0.985 . S
C736 C730 1.379 . S
C736 C733 1.363 . S
C736 N734 1.356 . S
C737 C731 1.363 . S
C737 C732 1.379 . S
C737 N735 1.356 . S
N738 C730 1.356 . S
N738 H744 0.984 . S
N738 H745 0.984 . S
N739 C732 1.356 . S
N739 H742 0.984 . S
N739 H743 0.985 . S
H740 N735 0.984 . S
H741 N735 0.985 . S
H742 N739 0.984 . S
H743 N739 0.985 . S
H744 N738 0.984 . S
H745 N738 0.984 . S
H746 N734 0.984 . S
H747 N734 0.985 . S
C748 C749 1.363 . S
C748 C754 1.379 . S
C748 N756 1.356 . S
C749 C748 1.363 . S
C749 C755 1.363 . S
C750 C751 1.363 . S
C750 C755 1.379 . S
C750 N757 1.356 . S
C751 C750 1.363 . S
C751 C754 1.363 . S
N752 C754 1.356 . S
N752 H764 0.984 . S
N752 H765 0.985 . S
N753 C755 1.356 . S
N753 H758 0.984 . S
N753 H759 0.985 . S
C754 C748 1.379 . S
C754 C751 1.363 . S
C754 N752 1.356 . S
C755 C749 1.363 . S
C755 C750 1.379 . S
C755 N753 1.356 . S
N756 C748 1.356 . S
N756 H762 0.984 . S
N756 H763 0.984 . S
N757 C750 1.356 . S
N757 H760 0.984 . S
N757 H761 0.985 . S
H758 N753 0.984 . S
H759 N753 0.985 . S
H760 N757 0.984 . S
H761 N757 0.985 . S
H762 N756 0.984 . S
H763 N756 0.984 . S
H764 N752 0.984 . S
H765 N752 0.985 . S
C766 C767 1.363 . S
C766 C772 1.379 . S
C766 N774 1.356 . S
C767 C766 1.363 . S
C767 C773 1.363 . S
C768 C769 1.363 . S
C768 C773 1.379 . S
C768 N775 1.356 . S
C769 C768 1.363 . S
C769 C772 1.363 . S
N770 C772 1.356 . S
N770 H782 0.984 . S
N770 H783 0.985 . S
N771 C773 1.356 . S
N771 H776 0.984 . S
N771 H777 0.985 . S
C772 C766 1.379 . S
C772 C769 1.363 . S
C772 N770 1.356 . S
C773 C767 1.363 . S
C773 C768 1.379 . S
C773 N771 1.356 . S
N774 C766 1.356 . S
N774 H780 0.984 . S
N774 H781 0.984 . S
N775 C768 1.356 . S
N775 H778 0.984 . S
N775 H779 0.985 . S
H776 N771 0.984 . S
H777 N771 0.985 . S
H778 N775 0.984 . S
H779 N775 0.985 . S
H780 N774 0.984 . S
H781 N774 0.984 . S
H782 N770 0.984 . S
H783 N770 0.985 . S
C784 C785 1.363 . S
C784 C790 1.379 1_565 S
C784 N792 1.356 . S
C785 C784 1.363 . S
C785 C791 1.363 . S
C786 C787 1.363 . S
C786 C791 1.379 1_545 S
C786 N793 1.356 . S
C787 C786 1.363 . S
C787 C790 1.363 . S
N788 C790 1.356 . S
N788 H800 0.984 . S
N788 H801 0.985 . S
N789 C791 1.356 . S
N789 H794 0.984 . S
N789 H795 0.985 . S
C790 C784 1.379 1_545 S
C790 C787 1.363 . S
C790 N788 1.356 . S
C791 C785 1.363 . S
C791 C786 1.379 1_565 S
C791 N789 1.356 . S
N792 C784 1.356 . S
N792 H798 0.984 . S
N792 H799 0.984 . S
N793 C786 1.356 . S
N793 H796 0.984 . S
N793 H797 0.985 . S
H794 N789 0.984 . S
H795 N789 0.985 . S
H796 N793 0.984 . S
H797 N793 0.985 . S
H798 N792 0.984 . S
H799 N792 0.984 . S
H800 N788 0.984 . S
H801 N788 0.985 . S
C802 C803 1.363 . S
C802 C808 1.379 . S
C802 N810 1.356 . S
C803 C802 1.363 . S
C803 C809 1.363 1_545 S
C804 C805 1.363 . S
C804 C809 1.379 . S
C804 N811 1.356 . S
C805 C804 1.363 . S
C805 C808 1.363 1_565 S
N806 C808 1.356 1_565 S
N806 H818 0.984 1_565 S
N806 H819 0.985 . S
N807 C809 1.356 1_545 S
N807 H812 0.984 . S
N807 H813 0.985 1_545 S
C808 C802 1.379 . S
C808 C805 1.363 1_545 S
C808 N806 1.356 1_545 S
C809 C803 1.363 1_565 S
C809 C804 1.379 . S
C809 N807 1.356 1_565 S
N810 C802 1.356 . S
N810 H816 0.984 . S
N810 H817 0.984 . S
N811 C804 1.356 . S
N811 H814 0.984 . S
N811 H815 0.985 . S
H812 N807 0.984 . S
H813 N807 0.985 1_565 S
H814 N811 0.984 . S
H815 N811 0.985 . S
H816 N810 0.984 . S
H817 N810 0.984 . S
H818 N806 0.984 1_545 S
H819 N806 0.985 . S
C820 C821 1.363 1_565 S
C820 C826 1.379 . S
C820 N828 1.356 . S
C821 C820 1.363 1_545 S
C821 C827 1.363 . S
C822 C823 1.363 1_545 S
C822 C827 1.379 . S
C822 N829 1.356 . S
C823 C822 1.363 1_565 S
C823 C826 1.363 . S
N824 C826 1.356 . S
N824 H836 0.984 . S
N824 H837 0.985 . S
N825 C827 1.356 . S
N825 H830 0.984 . S
N825 H831 0.985 . S
C826 C820 1.379 . S
C826 C823 1.363 . S
C826 N824 1.356 . S
C827 C821 1.363 . S
C827 C822 1.379 . S
C827 N825 1.356 . S
N828 C820 1.356 . S
N828 H834 0.984 . S
N828 H835 0.984 1_565 S
N829 C822 1.356 . S
N829 H832 0.984 1_545 S
N829 H833 0.985 . S
H830 N825 0.984 . S
H831 N825 0.985 . S
H832 N829 0.984 1_565 S
H833 N829 0.985 . S
H834 N828 0.984 . S
H835 N828 0.984 1_545 S
H836 N824 0.984 . S
H837 N824 0.985 . S
C838 C839 1.363 . S
C838 C844 1.379 . S
C838 N846 1.356 . S
C839 C838 1.363 . S
C839 C845 1.363 1_545 S
C840 C841 1.363 . S
C840 C845 1.379 . S
C840 N847 1.356 . S
C841 C840 1.363 . S
C841 C844 1.363 1_565 S
N842 C844 1.356 . S
N842 H854 0.984 . S
N842 H855 0.985 1_545 S
N843 C845 1.356 . S
N843 H848 0.984 1_565 S
N843 H849 0.985 . S
C844 C838 1.379 . S
C844 C841 1.363 1_545 S
C844 N842 1.356 . S
C845 C839 1.363 1_565 S
C845 C840 1.379 . S
C845 N843 1.356 . S
N846 C838 1.356 . S
N846 H852 0.984 . S
N846 H853 0.984 . S
N847 C840 1.356 . S
N847 H850 0.984 . S
N847 H851 0.985 . S
H848 N843 0.984 1_545 S
H849 N843 0.985 . S
H850 N847 0.984 . S
H851 N847 0.985 . S
H852 N846 0.984 . S
H853 N846 0.984 . S
H854 N842 0.984 . S
H855 N842 0.985 1_565 S
C856 C857 1.363 . S
C856 C862 1.379 . S
C856 N864 1.356 . S
C857 C856 1.363 . S
C857 C863 1.363 . S
C858 C859 1.363 . S
C858 C863 1.379 . S
C858 N865 1.356 . S
C859 C858 1.363 . S
C859 C862 1.363 . S
N860 C862 1.356 . S
N860 H872 0.984 . S
N860 H873 0.985 . S
N861 C863 1.356 . S
N861 H866 0.984 . S
N861 H867 0.985 . S
C862 C856 1.379 . S
C862 C859 1.363 . S
C862 N860 1.356 . S
C863 C857 1.363 . S
C863 C858 1.379 . S
C863 N861 1.356 . S
N864 C856 1.356 . S
N864 H870 0.984 . S
N864 H871 0.984 . S
N865 C858 1.356 . S
N865 H868 0.984 . S
N865 H869 0.985 . S
H866 N861 0.984 . S
H867 N861 0.985 . S
H868 N865 0.984 . S
H869 N865 0.985 . S
H870 N864 0.984 . S
H871 N864 0.984 . S
H872 N860 0.984 . S
H873 N860 0.985 . S
C874 C875 1.363 . S
C874 C880 1.379 . S
C874 N882 1.356 . S
C875 C874 1.363 . S
C875 C881 1.363 . S
C876 C877 1.363 . S
C876 C881 1.379 . S
C876 N883 1.356 . S
C877 C876 1.363 . S
C877 C880 1.363 . S
N878 C880 1.356 . S
N878 H890 0.984 . S
N878 H891 0.985 . S
N879 C881 1.356 . S
N879 H884 0.984 . S
N879 H885 0.985 . S
C880 C874 1.379 . S
C880 C877 1.363 . S
C880 N878 1.356 . S
C881 C875 1.363 . S
C881 C876 1.379 . S
C881 N879 1.356 . S
N882 C874 1.356 . S
N882 H888 0.984 . S
N882 H889 0.984 . S
N883 C876 1.356 . S
N883 H886 0.984 . S
N883 H887 0.985 . S
H884 N879 0.984 . S
H885 N879 0.985 . S
H886 N883 0.984 . S
H887 N883 0.985 . S
H888 N882 0.984 . S
H889 N882 0.984 . S
H890 N878 0.984 . S
H891 N878 0.985 . S
C892 C893 1.363 . S
C892 C898 1.379 . S
C892 N900 1.356 . S
C893 C892 1.363 . S
C893 C899 1.363 . S
C894 C895 1.363 . S
C894 C899 1.379 . S
C894 N901 1.356 . S
C895 C894 1.363 . S
C895 C898 1.363 . S
N896 C898 1.356 . S
N896 H908 0.984 . S
N896 H909 0.985 . S
N897 C899 1.356 . S
N897 H902 0.984 . S
N897 H903 0.985 . S
C898 C892 1.379 . S
C898 C895 1.363 . S
C898 N896 1.356 . S
C899 C893 1.363 . S
C899 C894 1.379 . S
C899 N897 1.356 . S
N900 C892 1.356 . S
N900 H906 0.984 . S
N900 H907 0.984 . S
N901 C894 1.356 . S
N901 H904 0.984 . S
N901 H905 0.985 . S
H902 N897 0.984 . S
H903 N897 0.985 . S
H904 N901 0.984 . S
H905 N901 0.985 . S
H906 N900 0.984 . S
H907 N900 0.984 . S
H908 N896 0.984 . S
H909 N896 0.985 . S
C910 C911 1.363 . S
C910 C916 1.379 . S
C910 N918 1.356 . S
C911 C910 1.363 . S
C911 C917 1.363 . S
C912 C913 1.363 . S
C912 C917 1.379 . S
C912 N919 1.356 . S
C913 C912 1.363 . S
C913 C916 1.363 . S
N914 C916 1.356 . S
N914 H926 0.984 . S
N914 H927 0.985 . S
N915 C917 1.356 . S
N915 H920 0.984 . S
N915 H921 0.985 . S
C916 C910 1.379 . S
C916 C913 1.363 . S
C916 N914 1.356 . S
C917 C911 1.363 . S
C917 C912 1.379 . S
C917 N915 1.356 . S
N918 C910 1.356 . S
N918 H924 0.984 . S
N918 H925 0.984 . S
N919 C912 1.356 . S
N919 H922 0.984 . S
N919 H923 0.985 . S
H920 N915 0.984 . S
H921 N915 0.985 . S
H922 N919 0.984 . S
H923 N919 0.985 . S
H924 N918 0.984 . S
H925 N918 0.984 . S
H926 N914 0.984 . S
H927 N914 0.985 . S
C928 C929 1.363 . S
C928 C934 1.379 1_556 S
C928 N936 1.356 . S
C929 C928 1.363 . S
C929 C935 1.363 . S
C930 C931 1.363 . S
C930 C935 1.379 1_554 S
C930 N937 1.356 . S
C931 C930 1.363 . S
C931 C934 1.363 . S
N932 C934 1.356 . S
N932 H944 0.984 . S
N932 H945 0.985 . S
N933 C935 1.356 . S
N933 H938 0.984 . S
N933 H939 0.985 . S
C934 C928 1.379 1_554 S
C934 C931 1.363 . S
C934 N932 1.356 . S
C935 C929 1.363 . S
C935 C930 1.379 1_556 S
C935 N933 1.356 . S
N936 C928 1.356 . S
N936 H942 0.984 . S
N936 H943 0.984 . S
N937 C930 1.356 . S
N937 H940 0.984 . S
N937 H941 0.985 . S
H938 N933 0.984 . S
H939 N933 0.985 . S
H940 N937 0.984 . S
H941 N937 0.985 . S
H942 N936 0.984 . S
H943 N936 0.984 . S
H944 N932 0.984 . S
H945 N932 0.985 . S
C946 C947 1.363 . S
C946 C952 1.379 1_556 S
C946 N954 1.356 . S
C947 C946 1.363 . S
C947 C953 1.363 . S
C948 C949 1.363 . S
C948 C953 1.379 1_554 S
C948 N955 1.356 . S
C949 C948 1.363 . S
C949 C952 1.363 . S
N950 C952 1.356 . S
N950 H962 0.984 . S
N950 H963 0.985 . S
N951 C953 1.356 . S
N951 H956 0.984 . S
N951 H957 0.985 . S
C952 C946 1.379 1_554 S
C952 C949 1.363 . S
C952 N950 1.356 . S
C953 C947 1.363 . S
C953 C948 1.379 1_556 S
C953 N951 1.356 . S
N954 C946 1.356 . S
N954 H960 0.984 . S
N954 H961 0.984 . S
N955 C948 1.356 . S
N955 H958 0.984 . S
N955 H959 0.985 . S
H956 N951 0.984 . S
H957 N951 0.985 . S
H958 N955 0.984 . S
H959 N955 0.985 . S
H960 N954 0.984 . S
H961 N954 0.984 . S
H962 N950 0.984 . S
H963 N950 0.985 . S
C964 C965 1.363 . S
C964 C970 1.379 . S
C964 N972 1.356 . S
C965 C964 1.363 . S
C965 C971 1.363 . S
C966 C967 1.363 . S
C966 C971 1.379 . S
C966 N973 1.356 . S
C967 C966 1.363 . S
C967 C970 1.363 . S
N968 C970 1.356 . S
N968 H980 0.984 . S
N968 H981 0.985 . S
N969 C971 1.356 . S
N969 H974 0.984 . S
N969 H975 0.985 . S
C970 C964 1.379 . S
C970 C967 1.363 . S
C970 N968 1.356 . S
C971 C965 1.363 . S
C971 C966 1.379 . S
C971 N969 1.356 . S
N972 C964 1.356 . S
N972 H978 0.984 . S
N972 H979 0.984 . S
N973 C966 1.356 . S
N973 H976 0.984 . S
N973 H977 0.985 . S
H974 N969 0.984 . S
H975 N969 0.985 . S
H976 N973 0.984 . S
H977 N973 0.985 . S
H978 N972 0.984 . S
H979 N972 0.984 . S
H980 N968 0.984 . S
H981 N968 0.985 . S
C982 C983 1.363 . S
C982 C988 1.379 . S
C982 N990 1.356 . S
C983 C982 1.363 . S
C983 C989 1.363 . S
C984 C985 1.363 . S
C984 C989 1.379 . S
C984 N991 1.356 . S
C985 C984 1.363 . S
C985 C988 1.363 . S
N986 C988 1.356 . S
N986 H998 0.984 . S
N986 H999 0.985 . S
N987 C989 1.356 . S
N987 H992 0.984 . S
N987 H993 0.985 . S
C988 C982 1.379 . S
C988 C985 1.363 . S
C988 N986 1.356 . S
C989 C983 1.363 . S
C989 C984 1.379 . S
C989 N987 1.356 . S
N990 C982 1.356 . S
N990 H996 0.984 . S
N990 H997 0.984 . S
N991 C984 1.356 . S
N991 H994 0.984 . S
N991 H995 0.985 . S
H992 N987 0.984 . S
H993 N987 0.985 . S
H994 N991 0.984 . S
H995 N991 0.985 . S
H996 N990 0.984 . S
H997 N990 0.984 . S
H998 N986 0.984 . S
H999 N986 0.985 . S
C1000 C1001 1.363 . S
C1000 C1006 1.379 1_554 S
C1000 N1008 1.356 . S
C1001 C1000 1.363 . S
C1001 C1007 1.363 . S
C1002 C1003 1.363 . S
C1002 C1007 1.379 1_556 S
C1002 N1009 1.356 . S
C1003 C1002 1.363 . S
C1003 C1006 1.363 . S
N1004 C1006 1.356 . S
N1004 H1016 0.984 . S
N1004 H1017 0.985 . S
N1005 C1007 1.356 . S
N1005 H1010 0.984 . S
N1005 H1011 0.985 . S
C1006 C1000 1.379 1_556 S
C1006 C1003 1.363 . S
C1006 N1004 1.356 . S
C1007 C1001 1.363 . S
C1007 C1002 1.379 1_554 S
C1007 N1005 1.356 . S
N1008 C1000 1.356 . S
N1008 H1014 0.984 . S
N1008 H1015 0.984 . S
N1009 C1002 1.356 . S
N1009 H1012 0.984 . S
N1009 H1013 0.985 . S
H1010 N1005 0.984 . S
H1011 N1005 0.985 . S
H1012 N1009 0.984 . S
H1013 N1009 0.985 . S
H1014 N1008 0.984 . S
H1015 N1008 0.984 . S
H1016 N1004 0.984 . S
H1017 N1004 0.985 . S
C1018 C1019 1.363 . S
C1018 C1024 1.379 1_556 S
C1018 N1026 1.356 . S
C1019 C1018 1.363 . S
C1019 C1025 1.363 . S
C1020 C1021 1.363 . S
C1020 C1025 1.379 1_554 S
C1020 N1027 1.356 . S
C1021 C1020 1.363 . S
C1021 C1024 1.363 . S
N1022 C1024 1.356 . S
N1022 H1034 0.984 . S
N1022 H1035 0.985 . S
N1023 C1025 1.356 . S
N1023 H1028 0.984 . S
N1023 H1029 0.985 . S
C1024 C1018 1.379 1_554 S
C1024 C1021 1.363 . S
C1024 N1022 1.356 . S
C1025 C1019 1.363 . S
C1025 C1020 1.379 1_556 S
C1025 N1023 1.356 . S
N1026 C1018 1.356 . S
N1026 H1032 0.984 . S
N1026 H1033 0.984 . S
N1027 C1020 1.356 . S
N1027 H1030 0.984 . S
N1027 H1031 0.985 . S
H1028 N1023 0.984 . S
H1029 N1023 0.985 . S
H1030 N1027 0.984 . S
H1031 N1027 0.985 . S
H1032 N1026 0.984 . S
H1033 N1026 0.984 . S
H1034 N1022 0.984 . S
H1035 N1022 0.985 . S
C1036 C1037 1.363 . S
C1036 C1042 1.379 . S
C1036 N1044 1.356 . S
C1037 C1036 1.363 . S
C1037 C1043 1.363 . S
C1038 C1039 1.363 . S
C1038 C1043 1.379 . S
C1038 N1045 1.356 . S
C1039 C1038 1.363 . S
C1039 C1042 1.363 . S
N1040 C1042 1.356 . S
N1040 H1052 0.984 . S
N1040 H1053 0.985 . S
N1041 C1043 1.356 . S
N1041 H1046 0.984 . S
N1041 H1047 0.985 . S
C1042 C1036 1.379 . S
C1042 C1039 1.363 . S
C1042 N1040 1.356 . S
C1043 C1037 1.363 . S
C1043 C1038 1.379 . S
C1043 N1041 1.356 . S
N1044 C1036 1.356 . S
N1044 H1050 0.984 . S
N1044 H1051 0.984 . S
N1045 C1038 1.356 . S
N1045 H1048 0.984 . S
N1045 H1049 0.985 . S
H1046 N1041 0.984 . S
H1047 N1041 0.985 . S
H1048 N1045 0.984 . S
H1049 N1045 0.985 . S
H1050 N1044 0.984 . S
H1051 N1044 0.984 . S
H1052 N1040 0.984 . S
H1053 N1040 0.985 . S
C1054 C1055 1.363 . S
C1054 C1060 1.379 . S
C1054 N1062 1.356 . S
C1055 C1054 1.363 . S
C1055 C1061 1.363 . S
C1056 C1057 1.363 . S
C1056 C1061 1.379 . S
C1056 N1063 1.356 . S
C1057 C1056 1.363 . S
C1057 C1060 1.363 . S
N1058 C1060 1.356 . S
N1058 H1070 0.984 . S
N1058 H1071 0.985 . S
N1059 C1061 1.356 . S
N1059 H1064 0.984 . S
N1059 H1065 0.985 . S
C1060 C1054 1.379 . S
C1060 C1057 1.363 . S
C1060 N1058 1.356 . S
C1061 C1055 1.363 . S
C1061 C1056 1.379 . S
C1061 N1059 1.356 . S
N1062 C1054 1.356 . S
N1062 H1068 0.984 . S
N1062 H1069 0.984 . S
N1063 C1056 1.356 . S
N1063 H1066 0.984 . S
N1063 H1067 0.985 . S
H1064 N1059 0.984 . S
H1065 N1059 0.985 . S
H1066 N1063 0.984 . S
H1067 N1063 0.985 . S
H1068 N1062 0.984 . S
H1069 N1062 0.984 . S
H1070 N1058 0.984 . S
H1071 N1058 0.985 . S
C1072 C1073 1.363 1_545 S
C1072 C1078 1.379 1_655 S
C1072 N1080 1.356 . S
C1073 C1072 1.363 1_565 S
C1073 C1079 1.363 . S
C1074 C1075 1.363 1_565 S
C1074 C1079 1.379 1_455 S
C1074 N1081 1.356 . S
C1075 C1074 1.363 1_545 S
C1075 C1078 1.363 . S
N1076 C1078 1.356 . S
N1076 H1088 0.984 . S
N1076 H1089 0.985 . S
N1077 C1079 1.356 . S
N1077 H1082 0.984 . S
N1077 H1083 0.985 . S
C1078 C1072 1.379 1_455 S
C1078 C1075 1.363 . S
C1078 N1076 1.356 . S
C1079 C1073 1.363 . S
C1079 C1074 1.379 1_655 S
C1079 N1077 1.356 . S
N1080 C1072 1.356 . S
N1080 H1086 0.984 . S
N1080 H1087 0.984 . S
N1081 C1074 1.356 . S
N1081 H1084 0.984 . S
N1081 H1085 0.985 . S
H1082 N1077 0.984 . S
H1083 N1077 0.985 . S
H1084 N1081 0.984 . S
H1085 N1081 0.985 . S
H1086 N1080 0.984 . S
H1087 N1080 0.984 . S
H1088 N1076 0.984 . S
H1089 N1076 0.985 . S
C1090 C1091 1.363 . S
C1090 C1096 1.379 1_655 S
C1090 N1098 1.356 . S
C1091 C1090 1.363 . S
C1091 C1097 1.363 1_545 S
C1092 C1093 1.363 . S
C1092 C1097 1.379 1_455 S
C1092 N1099 1.356 . S
C1093 C1092 1.363 . S
C1093 C1096 1.363 1_565 S
N1094 C1096 1.356 . S
N1094 H1106 0.984 . S
N1094 H1107 0.985 . S
N1095 C1097 1.356 . S
N1095 H1100 0.984 . S
N1095 H1101 0.985 . S
C1096 C1090 1.379 1_455 S
C1096 C1093 1.363 1_545 S
C1096 N1094 1.356 . S
C1097 C1091 1.363 1_565 S
C1097 C1092 1.379 1_655 S
C1097 N1095 1.356 . S
N1098 C1090 1.356 . S
N1098 H1104 0.984 . S
N1098 H1105 0.984 . S
N1099 C1092 1.356 . S
N1099 H1102 0.984 . S
N1099 H1103 0.985 . S
H1100 N1095 0.984 . S
H1101 N1095 0.985 . S
H1102 N1099 0.984 . S
H1103 N1099 0.985 . S
H1104 N1098 0.984 . S
H1105 N1098 0.984 . S
H1106 N1094 0.984 . S
H1107 N1094 0.985 . S
C1108 C1109 1.363 1_565 S
C1108 C1114 1.379 1_455 S
C1108 N1116 1.356 . S
C1109 C1108 1.363 1_545 S
C1109 C1115 1.363 . S
C1110 C1111 1.363 1_545 S
C1110 C1115 1.379 1_655 S
C1110 N1117 1.356 . S
C1111 C1110 1.363 1_565 S
C1111 C1114 1.363 . S
N1112 C1114 1.356 . S
N1112 H1124 0.984 . S
N1112 H1125 0.985 . S
N1113 C1115 1.356 . S
N1113 H1118 0.984 . S
N1113 H1119 0.985 . S
C1114 C1108 1.379 1_655 S
C1114 C1111 1.363 . S
C1114 N1112 1.356 . S
C1115 C1109 1.363 . S
C1115 C1110 1.379 1_455 S
C1115 N1113 1.356 . S
N1116 C1108 1.356 . S
N1116 H1122 0.984 . S
N1116 H1123 0.984 . S
N1117 C1110 1.356 . S
N1117 H1120 0.984 . S
N1117 H1121 0.985 . S
H1118 N1113 0.984 . S
H1119 N1113 0.985 . S
H1120 N1117 0.984 . S
H1121 N1117 0.985 . S
H1122 N1116 0.984 . S
H1123 N1116 0.984 . S
H1124 N1112 0.984 . S
H1125 N1112 0.985 . S
C1126 C1127 1.363 . S
C1126 C1132 1.379 1_655 S
C1126 N1134 1.356 . S
C1127 C1126 1.363 . S
C1127 C1133 1.363 1_545 S
C1128 C1129 1.363 . S
C1128 C1133 1.379 1_455 S
C1128 N1135 1.356 . S
C1129 C1128 1.363 . S
C1129 C1132 1.363 1_565 S
N1130 C1132 1.356 . S
N1130 H1142 0.984 . S
N1130 H1143 0.985 . S
N1131 C1133 1.356 . S
N1131 H1136 0.984 . S
N1131 H1137 0.985 . S
C1132 C1126 1.379 1_455 S
C1132 C1129 1.363 1_545 S
C1132 N1130 1.356 . S
C1133 C1127 1.363 1_565 S
C1133 C1128 1.379 1_655 S
C1133 N1131 1.356 . S
N1134 C1126 1.356 . S
N1134 H1140 0.984 . S
N1134 H1141 0.984 . S
N1135 C1128 1.356 . S
N1135 H1138 0.984 . S
N1135 H1139 0.985 . S
H1136 N1131 0.984 . S
H1137 N1131 0.985 . S
H1138 N1135 0.984 . S
H1139 N1135 0.985 . S
H1140 N1134 0.984 . S
H1141 N1134 0.984 . S
H1142 N1130 0.984 . S
H1143 N1130 0.985 . S
C1144 C1145 1.363 . S
C1144 C1150 1.379 . S
C1144 N1152 1.356 . S
C1145 C1144 1.363 . S
C1145 C1151 1.363 . S
C1146 C1147 1.363 . S
C1146 C1151 1.379 . S
C1146 N1153 1.356 . S
C1147 C1146 1.363 . S
C1147 C1150 1.363 . S
N1148 C1150 1.356 . S
N1148 H1160 0.984 . S
N1148 H1161 0.985 . S
N1149 C1151 1.356 . S
N1149 H1154 0.984 . S
N1149 H1155 0.985 . S
C1150 C1144 1.379 . S
C1150 C1147 1.363 . S
C1150 N1148 1.356 . S
C1151 C1145 1.363 . S
C1151 C1146 1.379 . S
C1151 N1149 1.356 . S
N1152 C1144 1.356 . S
N1152 H1158 0.984 . S
N1152 H1159 0.984 . S
N1153 C1146 1.356 . S
N1153 H1156 0.984 . S
N1153 H1157 0.985 . S
H1154 N1149 0.984 . S
H1155 N1149 0.985 . S
H1156 N1153 0.984 . S
H1157 N1153 0.985 . S
H1158 N1152 0.984 . S
H1159 N1152 0.984 . S
H1160 N1148 0.984 . S
H1161 N1148 0.985 . S
C1162 C1163 1.363 . S
C1162 C1168 1.379 . S
C1162 N1170 1.356 . S
C1163 C1162 1.363 . S
C1163 C1169 1.363 . S
C1164 C1165 1.363 . S
C1164 C1169 1.379 . S
C1164 N1171 1.356 . S
C1165 C1164 1.363 . S
C1165 C1168 1.363 . S
N1166 C1168 1.356 . S
N1166 H1178 0.984 . S
N1166 H1179 0.985 . S
N1167 C1169 1.356 . S
N1167 H1172 0.984 . S
N1167 H1173 0.985 . S
C1168 C1162 1.379 . S
C1168 C1165 1.363 . S
C1168 N1166 1.356 . S
C1169 C1163 1.363 . S
C1169 C1164 1.379 . S
C1169 N1167 1.356 . S
N1170 C1162 1.356 . S
N1170 H1176 0.984 . S
N1170 H1177 0.984 . S
N1171 C1164 1.356 . S
N1171 H1174 0.984 . S
N1171 H1175 0.985 . S
H1172 N1167 0.984 . S
H1173 N1167 0.985 . S
H1174 N1171 0.984 . S
H1175 N1171 0.985 . S
H1176 N1170 0.984 . S
H1177 N1170 0.984 . S
H1178 N1166 0.984 . S
H1179 N1166 0.985 . S
C1180 C1181 1.363 . S
C1180 C1186 1.379 . S
C1180 N1188 1.356 . S
C1181 C1180 1.363 . S
C1181 C1187 1.363 . S
C1182 C1183 1.363 . S
C1182 C1187 1.379 . S
C1182 N1189 1.356 . S
C1183 C1182 1.363 . S
C1183 C1186 1.363 . S
N1184 C1186 1.356 . S
N1184 H1196 0.984 . S
N1184 H1197 0.985 . S
N1185 C1187 1.356 . S
N1185 H1190 0.984 . S
N1185 H1191 0.985 . S
C1186 C1180 1.379 . S
C1186 C1183 1.363 . S
C1186 N1184 1.356 . S
C1187 C1181 1.363 . S
C1187 C1182 1.379 . S
C1187 N1185 1.356 . S
N1188 C1180 1.356 . S
N1188 H1194 0.984 . S
N1188 H1195 0.984 . S
N1189 C1182 1.356 . S
N1189 H1192 0.984 . S
N1189 H1193 0.985 . S
H1190 N1185 0.984 . S
H1191 N1185 0.985 . S
H1192 N1189 0.984 . S
H1193 N1189 0.985 . S
H1194 N1188 0.984 . S
H1195 N1188 0.984 . S
H1196 N1184 0.984 . S
H1197 N1184 0.985 . S
C1198 C1199 1.363 . S
C1198 C1204 1.379 . S
C1198 N1206 1.356 . S
C1199 C1198 1.363 . S
C1199 C1205 1.363 . S
C1200 C1201 1.363 . S
C1200 C1205 1.379 . S
C1200 N1207 1.356 . S
C1201 C1200 1.363 . S
C1201 C1204 1.363 . S
N1202 C1204 1.356 . S
N1202 H1214 0.984 . S
N1202 H1215 0.985 . S
N1203 C1205 1.356 . S
N1203 H1208 0.984 . S
N1203 H1209 0.985 . S
C1204 C1198 1.379 . S
C1204 C1201 1.363 . S
C1204 N1202 1.356 . S
C1205 C1199 1.363 . S
C1205 C1200 1.379 . S
C1205 N1203 1.356 . S
N1206 C1198 1.356 . S
N1206 H1212 0.984 . S
N1206 H1213 0.984 . S
N1207 C1200 1.356 . S
N1207 H1210 0.984 . S
N1207 H1211 0.985 . S
H1208 N1203 0.984 . S
H1209 N1203 0.985 . S
H1210 N1207 0.984 . S
H1211 N1207 0.985 . S
H1212 N1206 0.984 . S
H1213 N1206 0.984 . S
H1214 N1202 0.984 . S
H1215 N1202 0.985 . S
C1216 C1217 1.363 . S
C1216 C1222 1.379 . S
C1216 N1224 1.356 . S
C1217 C1216 1.363 . S
C1217 C1223 1.363 . S
C1218 C1219 1.363 . S
C1218 C1223 1.379 . S
C1218 N1225 1.356 . S
C1219 C1218 1.363 . S
C1219 C1222 1.363 . S
N1220 C1222 1.356 . S
N1220 H1232 0.984 . S
N1220 H1233 0.985 . S
N1221 C1223 1.356 . S
N1221 H1226 0.984 . S
N1221 H1227 0.985 . S
C1222 C1216 1.379 . S
C1222 C1219 1.363 . S
C1222 N1220 1.356 . S
C1223 C1217 1.363 . S
C1223 C1218 1.379 . S
C1223 N1221 1.356 . S
N1224 C1216 1.356 . S
N1224 H1230 0.984 . S
N1224 H1231 0.984 . S
N1225 C1218 1.356 . S
N1225 H1228 0.984 . S
N1225 H1229 0.985 . S
H1226 N1221 0.984 . S
H1227 N1221 0.985 . S
H1228 N1225 0.984 . S
H1229 N1225 0.985 . S
H1230 N1224 0.984 . S
H1231 N1224 0.984 . S
H1232 N1220 0.984 . S
H1233 N1220 0.985 . S
C1234 C1235 1.363 . S
C1234 C1240 1.379 . S
C1234 N1242 1.356 . S
C1235 C1234 1.363 . S
C1235 C1241 1.363 . S
C1236 C1237 1.363 . S
C1236 C1241 1.379 . S
C1236 N1243 1.356 . S
C1237 C1236 1.363 . S
C1237 C1240 1.363 . S
N1238 C1240 1.356 . S
N1238 H1250 0.984 . S
N1238 H1251 0.985 . S
N1239 C1241 1.356 . S
N1239 H1244 0.984 . S
N1239 H1245 0.985 . S
C1240 C1234 1.379 . S
C1240 C1237 1.363 . S
C1240 N1238 1.356 . S
C1241 C1235 1.363 . S
C1241 C1236 1.379 . S
C1241 N1239 1.356 . S
N1242 C1234 1.356 . S
N1242 H1248 0.984 . S
N1242 H1249 0.984 . S
N1243 C1236 1.356 . S
N1243 H1246 0.984 . S
N1243 H1247 0.985 . S
H1244 N1239 0.984 . S
H1245 N1239 0.985 . S
H1246 N1243 0.984 . S
H1247 N1243 0.985 . S
H1248 N1242 0.984 . S
H1249 N1242 0.984 . S
H1250 N1238 0.984 . S
H1251 N1238 0.985 . S
C1252 C1253 1.363 . S
C1252 C1258 1.379 . S
C1252 N1260 1.356 . S
C1253 C1252 1.363 . S
C1253 C1259 1.363 . S
C1254 C1255 1.363 . S
C1254 C1259 1.379 . S
C1254 N1261 1.356 . S
C1255 C1254 1.363 . S
C1255 C1258 1.363 . S
N1256 C1258 1.356 . S
N1256 H1268 0.984 . S
N1256 H1269 0.985 . S
N1257 C1259 1.356 . S
N1257 H1262 0.984 . S
N1257 H1263 0.985 . S
C1258 C1252 1.379 . S
C1258 C1255 1.363 . S
C1258 N1256 1.356 . S
C1259 C1253 1.363 . S
C1259 C1254 1.379 . S
C1259 N1257 1.356 . S
N1260 C1252 1.356 . S
N1260 H1266 0.984 . S
N1260 H1267 0.984 . S
N1261 C1254 1.356 . S
N1261 H1264 0.984 . S
N1261 H1265 0.985 . S
H1262 N1257 0.984 . S
H1263 N1257 0.985 . S
H1264 N1261 0.984 . S
H1265 N1261 0.985 . S
H1266 N1260 0.984 . S
H1267 N1260 0.984 . S
H1268 N1256 0.984 . S
H1269 N1256 0.985 . S
C1270 C1271 1.363 . S
C1270 C1276 1.379 . S
C1270 N1278 1.356 . S
C1271 C1270 1.363 . S
C1271 C1277 1.363 . S
C1272 C1273 1.363 . S
C1272 C1277 1.379 . S
C1272 N1279 1.356 . S
C1273 C1272 1.363 . S
C1273 C1276 1.363 . S
N1274 C1276 1.356 . S
N1274 H1286 0.984 . S
N1274 H1287 0.985 . S
N1275 C1277 1.356 . S
N1275 H1280 0.984 . S
N1275 H1281 0.985 . S
C1276 C1270 1.379 . S
C1276 C1273 1.363 . S
C1276 N1274 1.356 . S
C1277 C1271 1.363 . S
C1277 C1272 1.379 . S
C1277 N1275 1.356 . S
N1278 C1270 1.356 . S
N1278 H1284 0.984 . S
N1278 H1285 0.984 . S
N1279 C1272 1.356 . S
N1279 H1282 0.984 . S
N1279 H1283 0.985 . S
H1280 N1275 0.984 . S
H1281 N1275 0.985 . S
H1282 N1279 0.984 . S
H1283 N1279 0.985 . S
H1284 N1278 0.984 . S
H1285 N1278 0.984 . S
H1286 N1274 0.984 . S
H1287 N1274 0.985 . S
C1288 C1289 1.363 . S
C1288 C1294 1.379 . S
C1288 N1296 1.356 . S
C1289 C1288 1.363 . S
C1289 C1295 1.363 . S
C1290 C1291 1.363 . S
C1290 C1295 1.379 . S
C1290 N1297 1.356 . S
C1291 C1290 1.363 . S
C1291 C1294 1.363 . S
N1292 C1294 1.356 . S
N1292 H1304 0.984 . S
N1292 H1305 0.985 . S
N1293 C1295 1.356 . S
N1293 H1298 0.984 . S
N1293 H1299 0.985 . S
C1294 C1288 1.379 . S
C1294 C1291 1.363 . S
C1294 N1292 1.356 . S
C1295 C1289 1.363 . S
C1295 C1290 1.379 . S
C1295 N1293 1.356 . S
N1296 C1288 1.356 . S
N1296 H1302 0.984 . S
N1296 H1303 0.984 . S
N1297 C1290 1.356 . S
N1297 H1300 0.984 . S
N1297 H1301 0.985 . S
H1298 N1293 0.984 . S
H1299 N1293 0.985 . S
H1300 N1297 0.984 . S
H1301 N1297 0.985 . S
H1302 N1296 0.984 . S
H1303 N1296 0.984 . S
H1304 N1292 0.984 . S
H1305 N1292 0.985 . S
C1306 C1307 1.363 . S
C1306 C1312 1.379 . S
C1306 N1314 1.356 . S
C1307 C1306 1.363 . S
C1307 C1313 1.363 . S
C1308 C1309 1.363 . S
C1308 C1313 1.379 . S
C1308 N1315 1.356 . S
C1309 C1308 1.363 . S
C1309 C1312 1.363 . S
N1310 C1312 1.356 . S
N1310 H1322 0.984 . S
N1310 H1323 0.985 . S
N1311 C1313 1.356 . S
N1311 H1316 0.984 . S
N1311 H1317 0.985 . S
C1312 C1306 1.379 . S
C1312 C1309 1.363 . S
C1312 N1310 1.356 . S
C1313 C1307 1.363 . S
C1313 C1308 1.379 . S
C1313 N1311 1.356 . S
N1314 C1306 1.356 . S
N1314 H1320 0.984 . S
N1314 H1321 0.984 . S
N1315 C1308 1.356 . S
N1315 H1318 0.984 . S
N1315 H1319 0.985 . S
H1316 N1311 0.984 . S
H1317 N1311 0.985 . S
H1318 N1315 0.984 . S
H1319 N1315 0.985 . S
H1320 N1314 0.984 . S
H1321 N1314 0.984 . S
H1322 N1310 0.984 . S
H1323 N1310 0.985 . S
C1324 C1325 1.363 . S
C1324 C1330 1.379 . S
C1324 N1332 1.356 . S
C1325 C1324 1.363 . S
C1325 C1331 1.363 . S
C1326 C1327 1.363 . S
C1326 C1331 1.379 . S
C1326 N1333 1.356 . S
C1327 C1326 1.363 . S
C1327 C1330 1.363 . S
N1328 C1330 1.356 . S
N1328 H1340 0.984 . S
N1328 H1341 0.985 . S
N1329 C1331 1.356 . S
N1329 H1334 0.984 . S
N1329 H1335 0.985 . S
C1330 C1324 1.379 . S
C1330 C1327 1.363 . S
C1330 N1328 1.356 . S
C1331 C1325 1.363 . S
C1331 C1326 1.379 . S
C1331 N1329 1.356 . S
N1332 C1324 1.356 . S
N1332 H1338 0.984 . S
N1332 H1339 0.984 . S
N1333 C1326 1.356 . S
N1333 H1336 0.984 . S
N1333 H1337 0.985 . S
H1334 N1329 0.984 . S
H1335 N1329 0.985 . S
H1336 N1333 0.984 . S
H1337 N1333 0.985 . S
H1338 N1332 0.984 . S
H1339 N1332 0.984 . S
H1340 N1328 0.984 . S
H1341 N1328 0.985 . S
C1342 C1343 1.363 . S
C1342 C1348 1.379 . S
C1342 N1350 1.356 . S
C1343 C1342 1.363 . S
C1343 C1349 1.363 . S
C1344 C1345 1.363 . S
C1344 C1349 1.379 . S
C1344 N1351 1.356 . S
C1345 C1344 1.363 . S
C1345 C1348 1.363 . S
N1346 C1348 1.356 . S
N1346 H1358 0.984 . S
N1346 H1359 0.985 . S
N1347 C1349 1.356 . S
N1347 H1352 0.984 . S
N1347 H1353 0.985 . S
C1348 C1342 1.379 . S
C1348 C1345 1.363 . S
C1348 N1346 1.356 . S
C1349 C1343 1.363 . S
C1349 C1344 1.379 . S
C1349 N1347 1.356 . S
N1350 C1342 1.356 . S
N1350 H1356 0.984 . S
N1350 H1357 0.984 . S
N1351 C1344 1.356 . S
N1351 H1354 0.984 . S
N1351 H1355 0.985 . S
H1352 N1347 0.984 . S
H1353 N1347 0.985 . S
H1354 N1351 0.984 . S
H1355 N1351 0.985 . S
H1356 N1350 0.984 . S
H1357 N1350 0.984 . S
H1358 N1346 0.984 . S
H1359 N1346 0.985 . S
C1360 C1361 1.363 . S
C1360 C1366 1.379 . S
C1360 N1368 1.356 . S
C1361 C1360 1.363 . S
C1361 C1367 1.363 . S
C1362 C1363 1.363 . S
C1362 C1367 1.379 . S
C1362 N1369 1.356 . S
C1363 C1362 1.363 . S
C1363 C1366 1.363 . S
N1364 C1366 1.356 . S
N1364 H1376 0.984 . S
N1364 H1377 0.985 . S
N1365 C1367 1.356 . S
N1365 H1370 0.984 1_545 S
N1365 H1371 0.985 . S
C1366 C1360 1.379 . S
C1366 C1363 1.363 . S
C1366 N1364 1.356 . S
C1367 C1361 1.363 . S
C1367 C1362 1.379 . S
C1367 N1365 1.356 . S
N1368 C1360 1.356 . S
N1368 H1374 0.984 . S
N1368 H1375 0.984 1_545 S
N1369 C1362 1.356 . S
N1369 H1372 0.984 . S
N1369 H1373 0.985 . S
H1370 N1365 0.984 1_565 S
H1371 N1365 0.985 . S
H1372 N1369 0.984 . S
H1373 N1369 0.985 . S
H1374 N1368 0.984 . S
H1375 N1368 0.984 1_565 S
H1376 N1364 0.984 . S
H1377 N1364 0.985 . S
C1378 C1379 1.363 . S
C1378 C1384 1.379 . S
C1378 N1386 1.356 . S
C1379 C1378 1.363 . S
C1379 C1385 1.363 . S
C1380 C1381 1.363 . S
C1380 C1385 1.379 . S
C1380 N1387 1.356 . S
C1381 C1380 1.363 . S
C1381 C1384 1.363 . S
N1382 C1384 1.356 1_545 S
N1382 H1394 0.984 . S
N1382 H1395 0.985 . S
N1383 C1385 1.356 . S
N1383 H1388 0.984 . S
N1383 H1389 0.985 . S
C1384 C1378 1.379 . S
C1384 C1381 1.363 . S
C1384 N1382 1.356 1_565 S
C1385 C1379 1.363 . S
C1385 C1380 1.379 . S
C1385 N1383 1.356 . S
N1386 C1378 1.356 . S
N1386 H1392 0.984 . S
N1386 H1393 0.984 . S
N1387 C1380 1.356 . S
N1387 H1390 0.984 . S
N1387 H1391 0.985 . S
H1388 N1383 0.984 . S
H1389 N1383 0.985 . S
H1390 N1387 0.984 . S
H1391 N1387 0.985 . S
H1392 N1386 0.984 . S
H1393 N1386 0.984 . S
H1394 N1382 0.984 . S
H1395 N1382 0.985 . S
C1396 C1397 1.363 . S
C1396 C1402 1.379 . S
C1396 N1404 1.356 . S
C1397 C1396 1.363 . S
C1397 C1403 1.363 . S
C1398 C1399 1.363 . S
C1398 C1403 1.379 . S
C1398 N1405 1.356 . S
C1399 C1398 1.363 . S
C1399 C1402 1.363 . S
N1400 C1402 1.356 . S
N1400 H1412 0.984 . S
N1400 H1413 0.985 . S
N1401 C1403 1.356 . S
N1401 H1406 0.984 1_565 S
N1401 H1407 0.985 . S
C1402 C1396 1.379 . S
C1402 C1399 1.363 . S
C1402 N1400 1.356 . S
C1403 C1397 1.363 . S
C1403 C1398 1.379 . S
C1403 N1401 1.356 . S
N1404 C1396 1.356 . S
N1404 H1410 0.984 . S
N1404 H1411 0.984 1_565 S
N1405 C1398 1.356 . S
N1405 H1408 0.984 . S
N1405 H1409 0.985 . S
H1406 N1401 0.984 1_545 S
H1407 N1401 0.985 . S
H1408 N1405 0.984 . S
H1409 N1405 0.985 . S
H1410 N1404 0.984 . S
H1411 N1404 0.984 1_545 S
H1412 N1400 0.984 . S
H1413 N1400 0.985 . S
C1414 C1415 1.363 . S
C1414 C1420 1.379 . S
C1414 N1422 1.356 . S
C1415 C1414 1.363 . S
C1415 C1421 1.363 . S
C1416 C1417 1.363 . S
C1416 C1421 1.379 . S
C1416 N1423 1.356 . S
C1417 C1416 1.363 . S
C1417 C1420 1.363 . S
N1418 C1420 1.356 . S
N1418 H1430 0.984 . S
N1418 H1431 0.985 . S
N1419 C1421 1.356 . S
N1419 H1424 0.984 1_545 S
N1419 H1425 0.985 . S
C1420 C1414 1.379 . S
C1420 C1417 1.363 . S
C1420 N1418 1.356 . S
C1421 C1415 1.363 . S
C1421 C1416 1.379 . S
C1421 N1419 1.356 . S
N1422 C1414 1.356 . S
N1422 H1428 0.984 . S
N1422 H1429 0.984 1_545 S
N1423 C1416 1.356 . S
N1423 H1426 0.984 . S
N1423 H1427 0.985 . S
H1424 N1419 0.984 1_565 S
H1425 N1419 0.985 . S
H1426 N1423 0.984 . S
H1427 N1423 0.985 . S
H1428 N1422 0.984 . S
H1429 N1422 0.984 1_565 S
H1430 N1418 0.984 . S
H1431 N1418 0.985 . S
C1432 C1433 1.363 . S
C1432 C1438 1.379 . S
C1432 N1440 1.356 . S
C1433 C1432 1.363 . S
C1433 C1439 1.363 . S
C1434 C1435 1.363 . S
C1434 C1439 1.379 . S
C1434 N1441 1.356 . S
C1435 C1434 1.363 . S
C1435 C1438 1.363 . S
N1436 C1438 1.356 . S
N1436 H1448 0.984 . S
N1436 H1449 0.985 1_565 S
N1437 C1439 1.356 . S
N1437 H1442 0.984 . S
N1437 H1443 0.985 . S
C1438 C1432 1.379 . S
C1438 C1435 1.363 . S
C1438 N1436 1.356 . S
C1439 C1433 1.363 . S
C1439 C1434 1.379 . S
C1439 N1437 1.356 . S
N1440 C1432 1.356 . S
N1440 H1446 0.984 . S
N1440 H1447 0.984 . S
N1441 C1434 1.356 . S
N1441 H1444 0.984 1_565 S
N1441 H1445 0.985 . S
H1442 N1437 0.984 . S
H1443 N1437 0.985 . S
H1444 N1441 0.984 1_545 S
H1445 N1441 0.985 . S
H1446 N1440 0.984 . S
H1447 N1440 0.984 . S
H1448 N1436 0.984 . S
H1449 N1436 0.985 1_545 S
C1450 C1451 1.363 . S
C1450 C1456 1.379 . S
C1450 N1458 1.356 . S
C1451 C1450 1.363 . S
C1451 C1457 1.363 . S
C1452 C1453 1.363 . S
C1452 C1457 1.379 . S
C1452 N1459 1.356 . S
C1453 C1452 1.363 . S
C1453 C1456 1.363 . S
N1454 C1456 1.356 . S
N1454 H1466 0.984 . S
N1454 H1467 0.985 1_545 S
N1455 C1457 1.356 . S
N1455 H1460 0.984 . S
N1455 H1461 0.985 . S
C1456 C1450 1.379 . S
C1456 C1453 1.363 . S
C1456 N1454 1.356 . S
C1457 C1451 1.363 . S
C1457 C1452 1.379 . S
C1457 N1455 1.356 . S
N1458 C1450 1.356 . S
N1458 H1464 0.984 . S
N1458 H1465 0.984 . S
N1459 C1452 1.356 . S
N1459 H1462 0.984 1_545 S
N1459 H1463 0.985 . S
H1460 N1455 0.984 . S
H1461 N1455 0.985 . S
H1462 N1459 0.984 1_565 S
H1463 N1459 0.985 . S
H1464 N1458 0.984 . S
H1465 N1458 0.984 . S
H1466 N1454 0.984 . S
H1467 N1454 0.985 1_565 S
C1468 C1469 1.363 . S
C1468 C1474 1.379 . S
C1468 N1476 1.356 1_545 S
C1469 C1468 1.363 . S
C1469 C1475 1.363 . S
C1470 C1471 1.363 . S
C1470 C1475 1.379 . S
C1470 N1477 1.356 . S
C1471 C1470 1.363 . S
C1471 C1474 1.363 . S
N1472 C1474 1.356 . S
N1472 H1484 0.984 . S
N1472 H1485 0.985 . S
N1473 C1475 1.356 . S
N1473 H1478 0.984 . S
N1473 H1479 0.985 . S
C1474 C1468 1.379 . S
C1474 C1471 1.363 . S
C1474 N1472 1.356 . S
C1475 C1469 1.363 . S
C1475 C1470 1.379 . S
C1475 N1473 1.356 . S
N1476 C1468 1.356 1_565 S
N1476 H1482 0.984 . S
N1476 H1483 0.984 . S
N1477 C1470 1.356 . S
N1477 H1480 0.984 . S
N1477 H1481 0.985 . S
H1478 N1473 0.984 . S
H1479 N1473 0.985 . S
H1480 N1477 0.984 . S
H1481 N1477 0.985 . S
H1482 N1476 0.984 . S
H1483 N1476 0.984 . S
H1484 N1472 0.984 . S
H1485 N1472 0.985 . S
C1486 C1487 1.363 . S
C1486 C1492 1.379 . S
C1486 N1494 1.356 . S
C1487 C1486 1.363 . S
C1487 C1493 1.363 . S
C1488 C1489 1.363 . S
C1488 C1493 1.379 . S
C1488 N1495 1.356 . S
C1489 C1488 1.363 . S
C1489 C1492 1.363 . S
N1490 C1492 1.356 1_545 S
N1490 H1502 0.984 . S
N1490 H1503 0.985 . S
N1491 C1493 1.356 . S
N1491 H1496 0.984 . S
N1491 H1497 0.985 . S
C1492 C1486 1.379 . S
C1492 C1489 1.363 . S
C1492 N1490 1.356 1_565 S
C1493 C1487 1.363 . S
C1493 C1488 1.379 . S
C1493 N1491 1.356 . S
N1494 C1486 1.356 . S
N1494 H1500 0.984 . S
N1494 H1501 0.984 . S
N1495 C1488 1.356 . S
N1495 H1498 0.988 . S
N1495 H1499 0.985 . S
H1496 N1491 0.984 . S
H1497 N1491 0.985 . S
H1498 N1495 0.988 . S
H1499 N1495 0.985 . S
H1500 N1494 0.984 . S
H1501 N1494 0.984 . S
H1502 N1490 0.984 . S
H1503 N1490 0.985 . S
C641 C19 1.618 . S
C643 C379 1.618 . S
C659 C59 1.618 . S
C661 C339 1.618 . S
C677 C459 1.618 . S
C679 C99 1.618 . S
C695 C139 1.618 . S
C697 C419 1.618 . S
C713 C530 1.619 . S
C715 C170 1.619 . S
C731 C490 1.619 . S
C733 C210 1.619 . S
C749 C610 1.619 . S
C751 C250 1.619 . S
C767 C290 1.619 . S
C769 C570 1.619 . S
C785 C98 1.786 . S
C787 C18 1.786 . S
C803 C138 1.786 . S
C805 C58 1.786 . S
C821 C249 1.786 . S
C823 C169 1.786 . S
C839 C209 1.786 . S
C841 C289 1.786 . S
C857 C418 1.786 . S
C859 C338 1.786 . S
C875 C458 1.786 . S
C877 C378 1.786 . S
C893 C489 1.786 . S
C895 C569 1.786 . S
C911 C529 1.786 . S
C913 C609 1.786 . S
C929 C218 1.514 . S
C931 C9 1.514 . S
C947 C178 1.514 . S
C949 C49 1.514 . S
C965 C89 1.514 . S
C967 C298 1.514 . S
C983 C258 1.514 . S
C985 C129 1.514 . S
C1001 C329 1.514 . S
C1003 C538 1.514 . S
C1019 C498 1.514 . S
C1021 C369 1.514 . S
C1037 C409 1.514 . S
C1039 C618 1.514 . S
C1055 C578 1.514 . S
C1057 C449 1.514 . S
C1073 C50 1.640 . S
C1075 C10 1.640 . S
C1091 C130 1.640 . S
C1093 C90 1.640 . S
C1109 C219 1.640 . S
C1111 C179 1.640 . S
C1127 C259 1.640 . S
C1129 C299 1.640 . S
C1145 C370 1.640 . S
C1147 C330 1.640 . S
C1163 C450 1.640 . S
C1165 C410 1.640 . S
C1181 C499 1.640 . S
C1183 C539 1.640 . S
C1199 C579 1.640 . S
C1201 C619 1.640 . S
C1217 C6 1.522 . S
C1219 C15 1.522 . S
C1235 C46 1.522 . S
C1237 C55 1.522 . S
C1253 C86 1.522 . S
C1255 C95 1.522 . S
C1271 C135 1.522 . S
C1273 C126 1.522 . S
C1289 C175 1.522 . S
C1291 C166 1.522 . S
C1307 C206 1.522 . S
C1309 C215 1.522 . S
C1325 C255 1.522 . S
C1327 C246 1.522 . S
C1343 C295 1.522 . S
C1345 C286 1.522 . S
C1361 C335 1.522 1_545 S
C1363 C326 1.522 . S
C1379 C366 1.522 . S
C1381 C375 1.522 1_565 S
C1397 C415 1.522 1_565 S
C1399 C406 1.522 . S
C1415 C455 1.522 1_545 S
C1417 C446 1.522 . S
C1433 C495 1.522 . S
C1435 C486 1.522 1_565 S
C1451 C535 1.522 . S
C1453 C526 1.522 1_545 S
C1469 C566 1.522 1_545 S
C1471 C575 1.522 . S
C1487 C615 1.522 . S
C1489 C606 1.522 1_565 S
