# Generated by pormake.
# Topology crs, (6)-cn, num edge types: 1
# Building blocks:
#     Node 0, Type 0, BuildingBlock: BETFAJ_clean_sbu_0, # of connection points: 6
#     Node 1, Type 0, BuildingBlock: BETFAJ_clean_sbu_0, # of connection points: 6
#     Node 2, Type 0, BuildingBlock: BETFAJ_clean_sbu_0, # of connection points: 6
#     Node 3, Type 0, BuildingBlock: BETFAJ_clean_sbu_0, # of connection points: 6
#     Node 4, Type 0, BuildingBlock: BETFAJ_clean_sbu_0, # of connection points: 6
#     Node 5, Type 0, BuildingBlock: BETFAJ_clean_sbu_0, # of connection points: 6
#     Node 6, Type 0, BuildingBlock: BETFAJ_clean_sbu_0, # of connection points: 6
#     Node 7, Type 0, BuildingBlock: BETFAJ_clean_sbu_0, # of connection points: 6
#     Node 8, Type 0, BuildingBlock: BETFAJ_clean_sbu_0, # of connection points: 6
#     Node 9, Type 0, BuildingBlock: BETFAJ_clean_sbu_0, # of connection points: 6
#     Node 10, Type 0, BuildingBlock: BETFAJ_clean_sbu_0, # of connection points: 6
#     Node 11, Type 0, BuildingBlock: BETFAJ_clean_sbu_0, # of connection points: 6
#     Node 12, Type 0, BuildingBlock: BETFAJ_clean_sbu_0, # of connection points: 6
#     Node 13, Type 0, BuildingBlock: BETFAJ_clean_sbu_0, # of connection points: 6
#     Node 14, Type 0, BuildingBlock: BETFAJ_clean_sbu_0, # of connection points: 6
#     Node 15, Type 0, BuildingBlock: BETFAJ_clean_sbu_0, # of connection points: 6
#     Edge 16, Type (0, 0), BuildingBlock: ZUJKAS_clean_linker_0, # of connection points: 2
#     Edge 17, Type (0, 0), BuildingBlock: ZUJKAS_clean_linker_0, # of connection points: 2
#     Edge 18, Type (0, 0), BuildingBlock: ZUJKAS_clean_linker_0, # of connection points: 2
#     Edge 19, Type (0, 0), BuildingBlock: ZUJKAS_clean_linker_0, # of connection points: 2
#     Edge 20, Type (0, 0), BuildingBlock: ZUJKAS_clean_linker_0, # of connection points: 2
#     Edge 21, Type (0, 0), BuildingBlock: ZUJKAS_clean_linker_0, # of connection points: 2
#     Edge 22, Type (0, 0), BuildingBlock: ZUJKAS_clean_linker_0, # of connection points: 2
#     Edge 23, Type (0, 0), BuildingBlock: ZUJKAS_clean_linker_0, # of connection points: 2
#     Edge 24, Type (0, 0), BuildingBlock: ZUJKAS_clean_linker_0, # of connection points: 2
#     Edge 25, Type (0, 0), BuildingBlock: ZUJKAS_clean_linker_0, # of connection points: 2
#     Edge 26, Type (0, 0), BuildingBlock: ZUJKAS_clean_linker_0, # of connection points: 2
#     Edge 27, Type (0, 0), BuildingBlock: ZUJKAS_clean_linker_0, # of connection points: 2
#     Edge 28, Type (0, 0), BuildingBlock: ZUJKAS_clean_linker_0, # of connection points: 2
#     Edge 29, Type (0, 0), BuildingBlock: ZUJKAS_clean_linker_0, # of connection points: 2
#     Edge 30, Type (0, 0), BuildingBlock: ZUJKAS_clean_linker_0, # of connection points: 2
#     Edge 31, Type (0, 0), BuildingBlock: ZUJKAS_clean_linker_0, # of connection points: 2
#     Edge 32, Type (0, 0), BuildingBlock: ZUJKAS_clean_linker_0, # of connection points: 2
#     Edge 33, Type (0, 0), BuildingBlock: ZUJKAS_clean_linker_0, # of connection points: 2
#     Edge 34, Type (0, 0), BuildingBlock: ZUJKAS_clean_linker_0, # of connection points: 2
#     Edge 35, Type (0, 0), BuildingBlock: ZUJKAS_clean_linker_0, # of connection points: 2
#     Edge 36, Type (0, 0), BuildingBlock: ZUJKAS_clean_linker_0, # of connection points: 2
#     Edge 37, Type (0, 0), BuildingBlock: ZUJKAS_clean_linker_0, # of connection points: 2
#     Edge 38, Type (0, 0), BuildingBlock: ZUJKAS_clean_linker_0, # of connection points: 2
#     Edge 39, Type (0, 0), BuildingBlock: ZUJKAS_clean_linker_0, # of connection points: 2
#     Edge 40, Type (0, 0), BuildingBlock: ZUJKAS_clean_linker_0, # of connection points: 2
#     Edge 41, Type (0, 0), BuildingBlock: ZUJKAS_clean_linker_0, # of connection points: 2
#     Edge 42, Type (0, 0), BuildingBlock: ZUJKAS_clean_linker_0, # of connection points: 2
#     Edge 43, Type (0, 0), BuildingBlock: ZUJKAS_clean_linker_0, # of connection points: 2
#     Edge 44, Type (0, 0), BuildingBlock: ZUJKAS_clean_linker_0, # of connection points: 2
#     Edge 45, Type (0, 0), BuildingBlock: ZUJKAS_clean_linker_0, # of connection points: 2
#     Edge 46, Type (0, 0), BuildingBlock: ZUJKAS_clean_linker_0, # of connection points: 2
#     Edge 47, Type (0, 0), BuildingBlock: ZUJKAS_clean_linker_0, # of connection points: 2
#     Edge 48, Type (0, 0), BuildingBlock: ZUJKAS_clean_linker_0, # of connection points: 2
#     Edge 49, Type (0, 0), BuildingBlock: ZUJKAS_clean_linker_0, # of connection points: 2
#     Edge 50, Type (0, 0), BuildingBlock: ZUJKAS_clean_linker_0, # of connection points: 2
#     Edge 51, Type (0, 0), BuildingBlock: ZUJKAS_clean_linker_0, # of connection points: 2
#     Edge 52, Type (0, 0), BuildingBlock: ZUJKAS_clean_linker_0, # of connection points: 2
#     Edge 53, Type (0, 0), BuildingBlock: ZUJKAS_clean_linker_0, # of connection points: 2
#     Edge 54, Type (0, 0), BuildingBlock: ZUJKAS_clean_linker_0, # of connection points: 2
#     Edge 55, Type (0, 0), BuildingBlock: ZUJKAS_clean_linker_0, # of connection points: 2
#     Edge 56, Type (0, 0), BuildingBlock: ZUJKAS_clean_linker_0, # of connection points: 2
#     Edge 57, Type (0, 0), BuildingBlock: ZUJKAS_clean_linker_0, # of connection points: 2
#     Edge 58, Type (0, 0), BuildingBlock: ZUJKAS_clean_linker_0, # of connection points: 2
#     Edge 59, Type (0, 0), BuildingBlock: ZUJKAS_clean_linker_0, # of connection points: 2
#     Edge 60, Type (0, 0), BuildingBlock: ZUJKAS_clean_linker_0, # of connection points: 2
#     Edge 61, Type (0, 0), BuildingBlock: ZUJKAS_clean_linker_0, # of connection points: 2
#     Edge 62, Type (0, 0), BuildingBlock: ZUJKAS_clean_linker_0, # of connection points: 2
#     Edge 63, Type (0, 0), BuildingBlock: ZUJKAS_clean_linker_0, # of connection points: 2
# Relax obj value: 0.418
# Max RMSD: 0.343
# Mean RMSD: 0.286
data_MOF--net-crs--node1-BETFAJ_clean_sbu_0--edge1-ZUJKAS_clean_linker_0
_symmetry_space_group_name_H-M    P1
_symmetry_Int_Tables_number       1
_symmetry_cell_setting            triclinic
loop_
_symmetry_equiv_pos_as_xyz
'x, y, z'
_cell_length_a     66.291285
_cell_length_b     67.321323
_cell_length_c     58.094473
_cell_angle_alpha  76.685522
_cell_angle_beta   78.756739
_cell_angle_gamma 67.876427
loop_
_atom_site_label
_atom_site_type_symbol
_atom_site_fract_x
_atom_site_fract_y
_atom_site_fract_z
_atom_type_partial_charge
Sm0 Sm 0.9636 0.00453 0.03297 0.0
Sm1 Sm 0.00386 0.00625 0.99628 0.0
C2 C 0.92798 0.9976 0.0564 0.0
C3 C 0.91814 0.98208 0.05413 0.0
C4 C 0.91987 0.9765 0.0318 0.0
C5 C 0.91486 0.95863 0.03011 0.0
C6 C 0.90839 0.94581 0.05076 0.0
C7 C 0.90545 0.95213 0.07297 0.0
C8 C 0.91033 0.97017 0.07464 0.0
C9 C 0.0009 0.99773 0.05193 0.0
C10 C -0.00736 0.96291 1.00463 0.0
C11 C 0.04025 0.01242 0.97442 0.0
C12 C 0.04986 0.02756 0.97819 0.0
C13 C 0.04431 0.03492 1.00007 0.0
C14 C 0.04925 0.05257 1.00253 0.0
C15 C 0.06023 0.06287 0.98333 0.0
C16 C 0.06695 0.05472 0.96182 0.0
C17 C 0.06157 0.03724 0.95918 0.0
C18 C 0.96697 0.01278 0.97685 0.0
C19 C 0.97368 0.0484 0.02385 0.0
O20 O 0.92741 0.01351 0.03832 0.0
O21 O 0.94708 0.98854 0.06447 0.0
O22 O 0.00017 0.99017 0.03431 0.0
O23 O 0.98133 0.0082 0.06122 0.0
O24 O 0.97361 0.97401 0.0156 0.0
O25 O 0.00897 0.97048 0.9983 0.0
O26 O 0.0401 0.99641 0.99217 0.0
O27 O 0.02151 0.02193 0.9656 0.0
O28 O 0.96738 0.02028 0.9947 0.0
O29 O 0.98673 1.00309 0.96729 0.0
O30 O -0.00711 0.03738 0.01308 0.0
O31 O 0.95761 0.0405 0.03032 0.0
H32 H 0.92627 0.98517 0.01578 0.0
H33 H 0.91691 0.95433 0.01272 0.0
H34 H 0.90056 0.94246 0.08918 0.0
H35 H 0.9092 0.97408 0.09203 0.0
H36 H 0.03521 0.02771 0.01497 0.0
H37 H 0.04405 0.05848 0.01932 0.0
H38 H 0.07539 0.06251 0.94675 0.0
H39 H 0.06572 0.03189 0.9421 0.0
Sm40 Sm -0.00327 0.26959 0.27742 0.0
Sm41 Sm 0.98694 0.23494 0.25482 0.0
C42 C -0.00452 0.30226 0.29648 0.0
C43 C -0.00187 0.30721 0.31904 0.0
C44 C 0.97963 0.31618 0.33491 0.0
C45 C 0.98188 0.32291 0.35503 0.0
C46 C 0.00266 0.32099 0.35959 0.0
C47 C 0.02121 0.31142 0.3441 0.0
C48 C 0.01897 0.30466 0.32402 0.0
C49 C 0.02699 0.22793 0.28242 0.0
C50 C 0.96373 0.2436 0.30884 0.0
C51 C -0.00959 0.1997 0.23935 0.0
C52 C 0.98811 0.19329 0.2176 0.0
C53 C 0.00601 0.17762 0.20702 0.0
C54 C 0.00405 0.17062 0.18697 0.0
C55 C 0.98408 0.17903 0.17719 0.0
C56 C 0.96623 0.19493 0.18762 0.0
C57 C 0.96824 0.20205 0.20758 0.0
C58 C 0.95893 0.27737 0.24083 0.0
C59 C 0.01805 0.26216 0.22419 0.0
O60 O 0.97804 0.29773 0.29596 0.0
O61 O 0.01307 0.2905 0.28447 0.0
O62 O 0.00652 0.2328 0.28366 0.0
O63 O 0.03181 0.24518 0.28105 0.0
O64 O 0.972 0.25915 0.30674 0.0
O65 O 0.96846 0.23112 0.29251 0.0
O66 O 0.00719 0.20583 0.2384 0.0
O67 O 0.97247 0.21121 0.25121 0.0
O68 O 0.97434 0.27069 0.25328 0.0
O69 O 0.95822 0.26067 0.23385 0.0
O70 O 0.01523 0.24312 0.2297 0.0
O71 O 0.00805 0.27754 0.23742 0.0
H72 H 0.96332 0.3186 0.33144 0.0
H73 H 0.96724 0.33047 0.36645 0.0
H74 H 0.03746 0.30949 0.34727 0.0
H75 H 0.03357 0.29793 0.31212 0.0
H76 H 0.02146 0.17056 0.21448 0.0
H77 H 0.01801 0.15816 0.17954 0.0
H78 H 0.9507 0.20184 0.18034 0.0
H79 H 0.95417 0.21425 0.21526 0.0
Sm80 Sm 0.73321 0.23987 0.49897 0.0
Sm81 Sm 0.74644 0.26694 0.53193 0.0
C82 C 0.72446 0.21062 0.48336 0.0
C83 C 0.70611 0.2026 0.48859 0.0
C84 C 0.69414 0.2017 0.51138 0.0
C85 C 0.67506 0.1966 0.51526 0.0
C86 C 0.66747 0.19293 0.49626 0.0
C87 C 0.67953 0.19373 0.47356 0.0
C88 C 0.69878 0.19844 0.46978 0.0
C89 C 0.72866 0.28244 0.47699 0.0
C90 C 0.69681 0.26397 0.54135 0.0
C91 C 0.7558 0.29709 0.5449 0.0
C92 C 0.7728 0.30709 0.53551 0.0
C93 C 0.77062 0.32343 0.51513 0.0
C94 C 0.78792 0.33099 0.50516 0.0
C95 C 0.80764 0.32235 0.51543 0.0
C96 C 0.80951 0.30654 0.53618 0.0
C97 C 0.79226 0.29909 0.54617 0.0
C98 C 0.75101 0.22448 0.55424 0.0
C99 C 0.78279 0.24248 0.48971 0.0
O100 O 0.73726 0.20539 0.50005 0.0
O101 O 0.71939 0.23097 0.47289 0.0
O102 O 0.73501 0.27251 0.49685 0.0
O103 O 0.72351 0.26939 0.46781 0.0
O104 O 0.7027 0.24989 0.52646 0.0
O105 O 0.7096 0.27409 0.54453 0.0
O106 O 0.73995 0.30185 0.53184 0.0
O107 O 0.76321 0.27645 0.5545 0.0
O108 O 0.74502 0.23408 0.5341 0.0
O109 O 0.75555 0.23787 0.56358 0.0
O110 O 0.7767 0.25701 0.50408 0.0
O111 O 0.77014 0.23206 0.48702 0.0
H112 H 0.69919 0.20547 0.52598 0.0
H113 H 0.66594 0.19603 0.53289 0.0
H114 H 0.67408 0.19064 0.45874 0.0
H115 H 0.70764 0.19942 0.45203 0.0
H116 H 0.75572 0.33015 0.50667 0.0
H117 H 0.78599 0.34337 0.48928 0.0
H118 H 0.82428 0.30006 0.54487 0.0
H119 H 0.79433 0.28673 0.56208 0.0
Sm120 Sm 0.72076 0.99898 0.75437 0.0
Sm121 Sm 0.75737 0.0044 0.77272 0.0
C122 C 0.68441 0.00352 0.73794 0.0
C123 C 0.67535 0.00558 0.71605 0.0
C124 C 0.65262 0.01488 0.71579 0.0
C125 C 0.64317 0.01501 0.69629 0.0
C126 C 0.65632 0.00583 0.67661 0.0
C127 C 0.67925 0.99716 0.67658 0.0
C128 C 0.68871 0.99705 0.69618 0.0
C129 C 0.76126 0.96794 0.74472 0.0
C130 C 0.74616 0.03144 0.72063 0.0
C131 C 0.7926 0.99973 0.79148 0.0
C132 C 0.79937 0.99685 0.81521 0.0
C133 C 0.81065 0.97599 0.82718 0.0
C134 C 0.81846 0.97344 0.84877 0.0
C135 C 0.81524 0.9917 0.85877 0.0
C136 C 0.80351 0.0125 0.84704 0.0
C137 C 0.79572 0.01504 0.82551 0.0
C138 C 0.71684 0.03547 0.78208 0.0
C139 C 0.73211 0.97186 0.80624 0.0
O140 O 0.68895 0.02004 0.74075 0.0
O141 O 0.69894 0.98468 0.74521 0.0
O142 O 0.75771 0.98796 0.74308 0.0
O143 O 0.74303 0.9641 0.74961 0.0
O144 O 0.72798 0.0267 0.72587 0.0
O145 O 0.76225 0.02178 0.73416 0.0
O146 O 0.78917 0.98345 0.78626 0.0
O147 O 0.77843 0.01863 0.78363 0.0
O148 O 0.72047 0.01541 0.784 0.0
O149 O 0.73504 0.03936 0.77692 0.0
O150 O 0.75046 0.97626 0.80073 0.0
O151 O 0.71587 0.982 0.79304 0.0
H152 H 0.64208 0.02144 0.73105 0.0
H153 H 0.62546 0.0215 0.69712 0.0
H154 H 0.68982 0.99018 0.6616 0.0
H155 H 0.70634 0.98985 0.69608 0.0
H156 H 0.81384 0.96164 0.81965 0.0
H157 H 0.82734 0.95719 0.85743 0.0
H158 H 0.8011 0.02695 0.85397 0.0
H159 H 0.78731 0.03137 0.81666 0.0
Sm160 Sm 0.49342 0.77012 0.27329 0.0
Sm161 Sm 0.48504 0.73577 0.25501 0.0
C162 C 0.49088 0.80385 0.29138 0.0
C163 C 0.48521 0.81261 0.31378 0.0
C164 C 0.47076 0.83406 0.31398 0.0
C165 C 0.46682 0.84367 0.33407 0.0
C166 C 0.47737 0.83204 0.35439 0.0
C167 C 0.49115 0.81021 0.35452 0.0
C168 C 0.49504 0.80057 0.3344 0.0
C169 C 0.52576 0.72965 0.27931 0.0
C170 C 0.46372 0.74258 0.30824 0.0
C171 C 0.48741 0.70232 0.23656 0.0
C172 C 0.48816 0.69645 0.21342 0.0
C173 C 0.50225 0.6759 0.2087 0.0
C174 C 0.50202 0.66915 0.18777 0.0
C175 C 0.48758 0.68283 0.1712 0.0
C176 C 0.47395 0.70372 0.17562 0.0
C177 C 0.4743 0.71052 0.19651 0.0
C178 C 0.45282 0.7763 0.24842 0.0
C179 C 0.51546 0.76296 0.2202 0.0
O180 O 0.47479 0.8033 0.2819 0.0
O181 O 0.50879 0.78694 0.28929 0.0
O182 O 0.50541 0.7331 0.28296 0.0
O183 O 0.52957 0.74781 0.27362 0.0
O184 O 0.46776 0.76101 0.30268 0.0
O185 O 0.4722 0.72776 0.2943 0.0
O186 O 0.50472 0.70536 0.24045 0.0
O187 O 0.46897 0.71618 0.24474 0.0
O188 O 0.47318 0.77272 0.24513 0.0
O189 O 0.44899 0.75818 0.25368 0.0
O190 O 0.51033 0.74514 0.22522 0.0
O191 O 0.50798 0.77742 0.23457 0.0
H192 H 0.46294 0.84363 0.2983 0.0
H193 H 0.4558 0.86038 0.33352 0.0
H194 H 0.49966 0.80083 0.36979 0.0
H195 H 0.50621 0.78394 0.33477 0.0
H196 H 0.51305 0.66482 0.22153 0.0
H197 H 0.51253 0.65288 0.18503 0.0
H198 H 0.46282 0.71468 0.16306 0.0
H199 H 0.46339 0.72656 0.19966 0.0
Sm200 Sm 0.23493 0.73755 0.50211 0.0
Sm201 Sm 0.24682 0.76402 0.53203 0.0
C202 C 0.2246 0.70777 0.4895 0.0
C203 C 0.2049 0.70838 0.4812 0.0
C204 C 0.20493 0.69036 0.47313 0.0
C205 C 0.18576 0.69047 0.46648 0.0
C206 C 0.16629 0.70863 0.46785 0.0
C207 C 0.16652 0.72689 0.47547 0.0
C208 C 0.18573 0.72678 0.48204 0.0
C209 C 0.22618 0.78017 0.47798 0.0
C210 C 0.19667 0.76642 0.53971 0.0
C211 C 0.26382 0.78663 0.5487 0.0
C212 C 0.28287 0.79352 0.54029 0.0
C213 C 0.2892 0.79901 0.51582 0.0
C214 C 0.30848 0.80371 0.50808 0.0
C215 C 0.32182 0.80265 0.52469 0.0
C216 C 0.31548 0.79701 0.54912 0.0
C217 C 0.29614 0.79251 0.55685 0.0
C218 C 0.2456 0.72386 0.55499 0.0
C219 C 0.28341 0.74026 0.48997 0.0
O220 O 0.22211 0.71042 0.51167 0.0
O221 O 0.23579 0.7189 0.47484 0.0
O222 O 0.23339 0.77203 0.49776 0.0
O223 O 0.22232 0.76544 0.47036 0.0
O224 O 0.20356 0.74985 0.52804 0.0
O225 O 0.20945 0.77715 0.54091 0.0
O226 O 0.24712 0.79584 0.53623 0.0
O227 O 0.26869 0.76559 0.55528 0.0
O228 O 0.25394 0.72796 0.53368 0.0
O229 O 0.23819 0.74105 0.56491 0.0
O230 O 0.27622 0.75605 0.50269 0.0
O231 O 0.27175 0.72818 0.48974 0.0
H232 H 0.21962 0.67605 0.47245 0.0
H233 H 0.186 0.67601 0.46108 0.0
H234 H 0.15182 0.74113 0.47657 0.0
H235 H 0.18555 0.74088 0.48818 0.0
H236 H 0.27941 0.7994 0.50271 0.0
H237 H 0.31304 0.80802 0.48916 0.0
H238 H 0.32526 0.79649 0.56232 0.0
H239 H 0.29164 0.78802 0.57576 0.0
Sm240 Sm 0.22225 0.49849 0.75883 0.0
Sm241 Sm 0.2592 0.50482 0.77536 0.0
C242 C 0.18659 0.50212 0.74157 0.0
C243 C 0.17944 0.50245 0.71884 0.0
C244 C 0.17144 0.52207 0.70294 0.0
C245 C 0.16314 0.52239 0.68242 0.0
C246 C 0.16253 0.50314 0.6775 0.0
C247 C 0.17107 0.48349 0.69307 0.0
C248 C 0.17933 0.48316 0.71354 0.0
C249 C 0.26261 0.46717 0.74948 0.0
C250 C 0.24752 0.53005 0.72317 0.0
C251 C 0.29553 0.50121 0.79117 0.0
C252 C 0.3044 0.49848 0.81336 0.0
C253 C 0.32705 0.49272 0.81282 0.0
C254 C 0.33593 0.49142 0.83322 0.0
C255 C 0.32227 0.49584 0.8546 0.0
C256 C 0.29952 0.50119 0.8552 0.0
C257 C 0.29064 0.50245 0.8347 0.0
C258 C 0.21882 0.53649 0.78385 0.0
C259 C 0.23396 0.47335 0.81127 0.0
O260 O 0.19105 0.51892 0.74371 0.0
O261 O 0.20008 0.48363 0.75139 0.0
O262 O 0.25908 0.48726 0.74693 0.0
O263 O 0.24441 0.46332 0.75523 0.0
O264 O 0.22898 0.52605 0.72967 0.0
O265 O 0.26401 0.52018 0.73605 0.0
O266 O 0.29183 0.48457 0.78733 0.0
O267 O 0.28021 0.51983 0.78501 0.0
O268 O 0.22229 0.51635 0.78699 0.0
O269 O 0.23708 0.54024 0.77777 0.0
O270 O 0.25226 0.47782 0.80511 0.0
O271 O 0.21763 0.48271 0.79808 0.0
H272 H 0.17111 0.53726 0.70661 0.0
H273 H 0.15645 0.53783 0.6709 0.0
H274 H 0.1711 0.46834 0.68962 0.0
H275 H 0.18524 0.46779 0.72545 0.0
H276 H 0.33787 0.48969 0.79643 0.0
H277 H 0.35345 0.48764 0.83199 0.0
H278 H 0.28861 0.50451 0.87145 0.0
H279 H 0.27307 0.50686 0.83538 0.0
Sm280 Sm 0.97322 0.50508 0.52774 0.0
Sm281 Sm 0.00875 0.51222 0.48751 0.0
C282 C 0.94144 0.492 0.55236 0.0
C283 C 0.93364 0.47616 0.54675 0.0
C284 C 0.93564 0.47396 0.5229 0.0
C285 C 0.93087 0.45746 0.51707 0.0
C286 C 0.92448 0.44235 0.53505 0.0
C287 C 0.92239 0.44458 0.55904 0.0
C288 C 0.92693 0.46141 0.56484 0.0
C289 C 0.01034 0.50313 0.54324 0.0
C290 C 0.00514 0.46525 0.49806 0.0
C291 C 0.03998 0.52472 0.46008 0.0
C292 C 0.04696 0.54302 0.45972 0.0
C293 C 0.04528 0.55046 0.48094 0.0
C294 C 0.04872 0.5698 0.48024 0.0
C295 C 0.05379 0.58205 0.45831 0.0
C296 C 0.05604 0.57423 0.43715 0.0
C297 C 0.05259 0.55487 0.43787 0.0
C298 C 0.97125 0.51411 0.47255 0.0
C299 C 0.97784 0.5517 0.51833 0.0
O300 O 0.93772 0.51045 0.53732 0.0
O301 O 0.96143 0.4838 0.55817 0.0
O302 O 0.01001 0.49528 0.52559 0.0
O303 O -0.00914 0.51048 0.55465 0.0
O304 O 0.98603 0.47447 0.51013 0.0
O305 O 0.0192 0.47553 0.48966 0.0
O306 O 0.04379 0.50914 0.47869 0.0
O307 O 0.02033 0.5304 0.454 0.0
O308 O 0.97194 0.52224 0.48978 0.0
O309 O -0.00927 0.50569 0.46168 0.0
O310 O -0.00364 0.54289 0.50504 0.0
O311 O 0.96378 0.54143 0.52707 0.0
H312 H 0.94155 0.48464 0.50874 0.0
H313 H 0.93235 0.45652 0.49842 0.0
H314 H 0.9178 0.43302 0.57337 0.0
H315 H 0.92583 0.46252 0.58338 0.0
H316 H 0.04068 0.54169 0.49802 0.0
H317 H 0.04723 0.57524 0.49685 0.0
H318 H 0.05981 0.58342 0.41999 0.0
H319 H 0.0536 0.54951 0.42132 0.0
Sm320 Sm 0.23169 0.23974 1.00081 0.0
Sm321 Sm 0.24931 0.26477 0.03195 0.0
C322 C 0.21952 0.21178 0.98705 0.0
C323 C 0.20024 0.20513 0.99376 0.0
C324 C 0.18972 0.2041 0.01726 0.0
C325 C 0.16998 0.2001 0.02271 0.0
C326 C 0.16029 0.19773 1.00459 0.0
C327 C 0.17083 0.19875 0.98115 0.0
C328 C 0.19074 0.20232 0.9758 0.0
C329 C 0.22857 0.28186 0.97847 0.0
C330 C 0.19847 0.26465 0.04436 0.0
C331 C 0.25982 0.29505 0.04301 0.0
C332 C 0.27302 0.30812 0.02975 0.0
C333 C 0.28685 0.30207 1.00903 0.0
C334 C 0.30081 0.31335 0.99738 0.0
C335 C 0.30123 0.33081 1.00637 0.0
C336 C 0.28671 0.33736 0.02663 0.0
C337 C 0.27269 0.32607 0.03824 0.0
C338 C 0.25233 0.22294 0.05484 0.0
C339 C 0.2822 0.23979 0.98814 0.0
O340 O 0.23332 0.20583 1.00286 0.0
O341 O 0.21534 0.23195 0.97619 0.0
O342 O 0.23562 0.27156 0.99793 0.0
O343 O 0.22211 0.26941 0.96983 0.0
O344 O 0.20198 0.2518 0.02864 0.0
O345 O 0.2131 0.27249 0.04773 0.0
O346 O 0.24112 0.29924 0.03512 0.0
O347 O 0.27086 0.27417 0.04851 0.0
O348 O 0.24554 0.23283 0.03508 0.0
O349 O 0.25862 0.23562 0.0634 0.0
O350 O 0.27778 0.25408 1.00243 0.0
O351 O 0.26833 0.23035 0.98642 0.0
H352 H 0.19645 0.20686 0.03127 0.0
H353 H 0.16207 0.19929 0.0409 0.0
H354 H 0.16372 0.19664 0.96699 0.0
H355 H 0.19846 0.2034 0.95753 0.0
H356 H 0.28724 0.28828 1.00217 0.0
H357 H 0.31167 0.30806 0.98171 0.0
H358 H 0.28691 0.35055 0.0342 0.0
H359 H 0.26211 0.3309 0.05423 0.0
Sm360 Sm 0.21946 0.99822 0.25499 0.0
Sm361 Sm 0.25648 0.00373 0.27287 0.0
C362 C 0.18304 1.00283 0.23867 0.0
C363 C 0.17408 0.00623 0.21636 0.0
C364 C 0.15133 0.01332 0.21666 0.0
C365 C 0.14229 0.01495 0.19625 0.0
C366 C 0.15589 0.00952 0.17512 0.0
C367 C 0.17876 1.00299 0.17471 0.0
C368 C 0.18781 1.0014 0.1952 0.0
C369 C 0.25996 0.9672 0.24539 0.0
C370 C 0.24476 0.03057 0.22085 0.0
C371 C 0.29267 0.99905 0.28969 0.0
C372 C 0.3005 0.99655 0.31247 0.0
C373 C 0.32309 0.98851 0.31375 0.0
C374 C 0.33107 0.98776 0.33457 0.0
C375 C 0.31654 0.99507 0.3545 0.0
C376 C 0.29381 1.00249 0.35338 0.0
C377 C 0.28584 0.00317 0.33251 0.0
C378 C 0.21598 0.03474 0.28251 0.0
C379 C 0.23124 0.97129 0.30695 0.0
O380 O 0.18694 0.01914 0.24314 0.0
O381 O 0.19822 0.984 0.24448 0.0
O382 O 0.25631 0.98725 0.24352 0.0
O383 O 0.24178 0.96324 0.25065 0.0
O384 O 0.22653 0.02591 0.2263 0.0
O385 O 0.26097 0.02084 0.23418 0.0
O386 O 0.28847 0.98265 0.28596 0.0
O387 O 0.27817 0.01794 0.28249 0.0
O388 O 0.21966 0.01468 0.28437 0.0
O389 O 0.23418 0.03866 0.2774 0.0
O390 O 0.24947 0.97594 0.30144 0.0
O391 O 0.21502 0.98102 0.29366 0.0
H392 H 0.14054 0.01704 0.23289 0.0
H393 H 0.12465 0.01967 0.19735 0.0
H394 H 0.18964 0.99888 0.15865 0.0
H395 H 0.20546 0.99596 0.1947 0.0
H396 H 0.33461 0.98339 0.2984 0.0
H397 H 0.34865 0.98227 0.3347 0.0
H398 H 0.28223 0.00805 0.3685 0.0
H399 H 0.2683 0.00933 0.3318 0.0
Sm400 Sm 0.49407 0.26863 0.77486 0.0
Sm401 Sm 0.48539 0.23455 0.75624 0.0
C402 C 0.4919 0.30213 0.79315 0.0
C403 C 0.49009 0.30945 0.81581 0.0
C404 C 0.47357 0.32904 0.82031 0.0
C405 C 0.47291 0.33772 0.84021 0.0
C406 C 0.48888 0.32704 0.856 0.0
C407 C 0.50492 0.30694 0.85198 0.0
C408 C 0.50552 0.29822 0.83207 0.0
C409 C 0.52586 0.22781 0.78164 0.0
C410 C 0.46392 0.24135 0.80931 0.0
C411 C 0.48724 0.20147 0.73743 0.0
C412 C 0.48712 0.19578 0.71435 0.0
C413 C 0.50529 0.17929 0.70538 0.0
C414 C 0.50479 0.1722 0.68476 0.0
C415 C 0.486 0.18134 0.67279 0.0
C416 C 0.46804 0.19829 0.6814 0.0
C417 C 0.46859 0.20547 0.70195 0.0
C418 C 0.4537 0.27541 0.74929 0.0
C419 C 0.51582 0.26162 0.72175 0.0
O420 O 0.47463 0.29973 0.78818 0.0
O421 O 0.51032 0.28735 0.78648 0.0
O422 O 0.50548 0.23163 0.7846 0.0
O423 O 0.52996 0.24578 0.77666 0.0
O424 O 0.46794 0.25978 0.80377 0.0
O425 O 0.47271 0.22641 0.79553 0.0
O426 O 0.50473 0.20466 0.7406 0.0
O427 O 0.46901 0.21486 0.74668 0.0
O428 O 0.47409 0.27152 0.74634 0.0
O429 O 0.44954 0.25747 0.75428 0.0
O430 O 0.51122 0.2435 0.727 0.0
O431 O 0.50773 0.27633 0.73583 0.0
H432 H 0.46148 0.33798 0.80803 0.0
H433 H 0.4601 0.35302 0.84299 0.0
H434 H 0.51757 0.29836 0.86364 0.0
H435 H 0.51846 0.28305 0.82908 0.0
H436 H 0.51971 0.17145 0.71469 0.0
H437 H 0.51879 0.15894 0.67874 0.0
H438 H 0.45342 0.20581 0.67242 0.0
H439 H 0.45432 0.21827 0.70836 0.0
Sm440 Sm -0.00565 0.76913 0.77235 0.0
Sm441 Sm 0.98573 0.73602 0.7528 0.0
C442 C -0.00757 0.80188 0.79176 0.0
C443 C -0.00869 0.80794 0.81495 0.0
C444 C 0.97427 0.82655 0.8213 0.0
C445 C 0.97392 0.83394 0.84201 0.0
C446 C -0.00928 0.82292 0.85671 0.0
C447 C 0.00744 0.80388 0.85071 0.0
C448 C 0.00771 0.79642 0.83005 0.0
C449 C 0.02653 0.72844 0.7781 0.0
C450 C 0.9646 0.74135 0.80639 0.0
C451 C 0.98687 0.70341 0.73364 0.0
C452 C 0.98566 0.69799 0.71092 0.0
C453 C -0.00188 0.70356 0.68961 0.0
C454 C -0.00302 0.69741 0.66857 0.0
C455 C 0.98326 0.68576 0.6685 0.0
C456 C 0.97065 0.68052 0.68985 0.0
C457 C 0.97187 0.68656 0.7108 0.0
C458 C 0.95366 0.77681 0.74686 0.0
C459 C 0.01565 0.76374 0.71881 0.0
O460 O 0.97502 0.79944 0.78719 0.0
O461 O 0.01079 0.78773 0.78387 0.0
O462 O 0.00617 0.73201 0.7813 0.0
O463 O 0.03038 0.74654 0.77326 0.0
O464 O 0.96866 0.75973 0.80147 0.0
O465 O 0.97318 0.72695 0.79197 0.0
O466 O 0.00449 0.70683 0.73597 0.0
O467 O 0.96885 0.71661 0.74338 0.0
O468 O 0.97402 0.7731 0.74371 0.0
O469 O 0.94974 0.75877 0.75159 0.0
O470 O 0.0115 0.74539 0.72364 0.0
O471 O 0.00721 0.77807 0.73332 0.0
H472 H 0.96152 0.83576 0.80986 0.0
H473 H 0.96097 0.8488 0.84597 0.0
H474 H 0.02047 0.79493 0.86183 0.0
H475 H 0.02103 0.78193 0.82566 0.0
H476 H 0.0088 0.7125 0.68924 0.0
H477 H 0.00678 0.70179 0.65237 0.0
H478 H 0.96023 0.67123 0.69054 0.0
H479 H 0.9622 0.68204 0.72707 0.0
Sm480 Sm 0.72307 0.49897 0.25455 0.0
Sm481 Sm 0.75837 0.50637 0.27232 0.0
C482 C 0.6883 0.50178 0.23619 0.0
C483 C 0.67955 0.50845 0.2132 0.0
C484 C 0.65729 0.51253 0.21293 0.0
C485 C 0.64885 0.51712 0.19134 0.0
C486 C 0.66256 0.51768 0.16959 0.0
C487 C 0.68481 0.51426 0.16992 0.0
C488 C 0.69323 0.50975 0.1916 0.0
C489 C 0.76369 0.46734 0.24837 0.0
C490 C 0.74831 0.53107 0.21948 0.0
C491 C 0.79279 0.50334 0.29151 0.0
C492 C 0.79981 0.49981 0.31527 0.0
C493 C 0.81121 0.47876 0.32675 0.0
C494 C 0.81944 0.47573 0.34822 0.0
C495 C 0.81649 0.49369 0.35862 0.0
C496 C 0.80458 0.51466 0.34744 0.0
C497 C 0.79642 0.51769 0.326 0.0
C498 C 0.71762 0.53772 0.27932 0.0
C499 C 0.7334 0.4738 0.30724 0.0
O500 O 0.6889 0.5172 0.2459 0.0
O501 O 0.70578 0.48427 0.23825 0.0
O502 O 0.76016 0.48757 0.24417 0.0
O503 O 0.74559 0.46336 0.25528 0.0
O504 O 0.73029 0.52606 0.22501 0.0
O505 O 0.7641 0.52233 0.23339 0.0
O506 O 0.79087 0.48686 0.28496 0.0
O507 O 0.77742 0.52179 0.28492 0.0
O508 O 0.72131 0.51749 0.28288 0.0
O509 O 0.73573 0.54175 0.27327 0.0
O510 O 0.7511 0.47935 0.30201 0.0
O511 O 0.71774 0.48215 0.29317 0.0
H512 H 0.64653 0.51157 0.22946 0.0
H513 H 0.63174 0.51931 0.19178 0.0
H514 H 0.69572 0.51476 0.15346 0.0
H515 H 0.71049 0.50677 0.19153 0.0
H516 H 0.81423 0.46464 0.31889 0.0
H517 H 0.82844 0.45936 0.35646 0.0
H518 H 0.80237 0.5289 0.35469 0.0
H519 H 0.78795 0.53415 0.31752 0.0
Sm520 Sm 0.73127 0.73656 0.99476 0.0
Sm521 Sm 0.74546 0.76405 0.02649 0.0
C522 C 0.7212 0.7067 0.98206 0.0
C523 C 0.70257 0.69881 0.98992 0.0
C524 C 0.70101 0.68509 1.01195 0.0
C525 C 0.68224 0.67953 0.02003 0.0
C526 C 0.66475 0.68749 1.00618 0.0
C527 C 0.6665 0.70095 0.98403 0.0
C528 C 0.68525 0.70641 0.97593 0.0
C529 C 0.72408 0.77978 0.97359 0.0
C530 C 0.69594 0.76088 0.03738 0.0
C531 C 0.75482 0.79377 0.04041 0.0
C532 C 0.77564 0.79624 0.04218 0.0
C533 C 0.78752 0.80435 0.02186 0.0
C534 C 0.80747 0.80608 0.02348 0.0
C535 C 0.81597 0.79978 0.04543 0.0
C536 C 0.80417 0.79153 0.06571 0.0
C537 C 0.78416 0.78986 0.06411 0.0
C538 C 0.75355 0.72066 0.04731 0.0
C539 C 0.78102 0.73975 0.98364 0.0
O540 O 0.73542 0.70184 0.99716 0.0
O541 O 0.71619 0.72679 0.9706 0.0
O542 O 0.73082 0.7699 0.9933 0.0
O543 O 0.71979 0.7663 0.96416 0.0
O544 O 0.70192 0.74575 0.02378 0.0
O545 O 0.70844 0.772 0.03862 0.0
O546 O 0.75019 0.79583 0.01887 0.0
O547 O 0.75008 0.77789 0.0554 0.0
O548 O 0.74558 0.73079 0.02826 0.0
O549 O 0.75899 0.73387 0.05596 0.0
O550 O 0.77586 0.75332 0.99901 0.0
O551 O 0.76776 0.73013 0.98047 0.0
H552 H 0.71415 0.67878 0.02307 0.0
H553 H 0.68155 0.66875 0.03694 0.0
H554 H 0.65325 0.70749 0.97302 0.0
H555 H 0.686 0.71698 0.95887 0.0
H556 H 0.7814 0.80949 1.00468 0.0
H557 H 0.81591 0.81298 1.00765 0.0
H558 H 0.81035 0.7865 0.08285 0.0
H559 H 0.77536 0.78354 0.08006 0.0
Sm560 Sm 0.46146 0.00438 0.53345 0.0
Sm561 Sm 0.50455 1.00145 0.5 0.0
C562 C 0.42361 1.00018 0.5521 0.0
C563 C 0.41456 0.98523 0.54647 0.0
C564 C 0.41636 0.98285 0.52266 0.0
C565 C 0.41371 0.96495 0.51727 0.0
C566 C 0.40933 0.94898 0.53561 0.0
C567 C 0.40607 0.95204 0.55939 0.0
C568 C 0.40866 0.97007 0.56478 0.0
C569 C 0.49763 0.99419 0.55591 0.0
C570 C 0.48907 0.96079 0.50761 0.0
C571 C 0.54311 0.00377 0.4805 0.0
C572 C 0.55359 0.01861 0.48313 0.0
C573 C 0.54787 0.02771 0.50395 0.0
C574 C 0.55366 0.04533 0.50476 0.0
C575 C 0.56555 0.05392 0.48496 0.0
C576 C 0.57246 0.04397 0.46463 0.0
C577 C 0.56632 0.02649 0.46365 0.0
C578 C 0.46845 0.01174 0.47739 0.0
C579 C 0.47605 0.04554 0.52533 0.0
O580 O 0.42518 0.01627 0.53499 0.0
O581 O 0.44128 0.9904 0.5629 0.0
O582 O 0.49726 0.98684 0.53795 0.0
O583 O 0.47806 0.00612 0.56378 0.0
O584 O 0.47017 0.97357 0.51702 0.0
O585 O 0.50665 0.96647 0.50218 0.0
O586 O 0.54068 0.98963 0.49954 0.0
O587 O 0.52548 0.01333 0.46965 0.0
O588 O 0.46881 0.01902 0.49541 0.0
O589 O 0.488 0.99972 0.46964 0.0
O590 O 0.49509 0.03301 0.51568 0.0
O591 O 0.45872 0.03947 0.53104 0.0
H592 H 0.42144 0.99391 0.50821 0.0
H593 H 0.41675 0.96281 0.49884 0.0
H594 H 0.40233 0.94008 0.57386 0.0
H595 H 0.40746 0.97142 0.58326 0.0
H596 H 0.53798 0.02192 0.5192 0.0
H597 H 0.54834 0.05263 0.52068 0.0
H598 H 0.58161 0.0504 0.4491 0.0
H599 H 0.57062 0.01981 0.44735 0.0
Sm600 Sm 0.47883 0.49786 0.03353 0.0
Sm601 Sm 0.51417 0.50416 0.99283 0.0
C602 C 0.44624 0.4865 0.05881 0.0
C603 C 0.43691 0.47238 0.05218 0.0
C604 C 0.44065 0.46982 0.0283 0.0
C605 C 0.43473 0.45458 0.02146 0.0
C606 C 0.42441 0.44176 0.03832 0.0
C607 C 0.42036 0.44448 0.06236 0.0
C608 C 0.42675 0.45963 0.06929 0.0
C609 C 0.51678 0.49471 0.04836 0.0
C610 C 0.50844 0.45828 1.00216 0.0
C611 C 0.5459 0.51643 0.96682 0.0
C612 C 0.55406 0.53272 0.97111 0.0
C613 C 0.56761 0.52735 0.9891 0.0
C614 C 0.57023 0.54368 0.99795 0.0
C615 C 0.55965 0.56566 0.98871 0.0
C616 C 0.54773 0.571 0.96931 0.0
C617 C 0.545 0.55466 0.96054 0.0
C618 C 0.47576 0.50779 0.97837 0.0
C619 C 0.48504 0.5436 0.02405 0.0
O620 O 0.44317 0.50534 0.04464 0.0
O621 O 0.4665 0.47673 0.06367 0.0
O622 O 0.51572 0.4871 0.03085 0.0
O623 O 0.4975 0.50252 0.05999 0.0
O624 O 0.49003 0.46765 0.01527 0.0
O625 O 0.523 0.46792 0.99357 0.0
O626 O 0.54969 0.49831 0.98242 0.0
O627 O 0.52586 0.52421 0.96109 0.0
O628 O 0.4772 0.51537 0.99568 0.0
O629 O 0.49494 0.49925 0.96694 0.0
O630 O 0.50377 0.53397 1.01156 0.0
O631 O 0.47015 0.53426 0.03186 0.0
H632 H 0.44867 0.47932 0.0149 0.0
H633 H 0.43813 0.45306 1.00284 0.0
H634 H 0.41273 0.43459 0.07585 0.0
H635 H 0.42415 0.4611 0.0879 0.0
H636 H 0.57522 0.51059 0.99727 0.0
H637 H 0.58008 0.53912 1.01242 0.0
H638 H 0.53953 0.58784 0.96175 0.0
H639 H 0.53462 0.55933 0.94651 0.0
H640 H 0.94049 0.07111 0.05435 0.0
H641 H 0.94097 0.09899 0.07445 0.0
H642 H 0.00285 0.0982 0.03359 0.0
H643 H 0.00244 0.07045 0.01314 0.0
H644 H 0.00395 0.09038 0.0819 0.0
H645 H 0.93257 0.16376 0.05668 0.0
H646 H 0.92593 0.13943 0.06689 0.0
H647 H 0.94416 0.14169 0.03989 0.0
C648 C 0.95391 0.07729 0.04908 0.0
C649 C 0.97159 0.06832 0.03231 0.0
C650 C 0.95412 0.09332 0.06057 0.0
C651 C 0.9719 0.10077 0.05537 0.0
C652 C -0.01105 0.09272 0.03772 0.0
H653 H 0.01268 0.17111 0.13665 0.0
H654 H 0.00998 0.15418 0.10483 0.0
C655 C -0.01128 0.07678 0.02616 0.0
C656 C 0.97406 0.11479 0.07036 0.0
H657 H 0.94817 0.16289 0.09094 0.0
C658 C -0.00807 0.10638 0.08364 0.0
C659 C 0.95829 0.13557 0.07266 0.0
C660 C 0.93926 0.14577 0.05811 0.0
C661 C -0.00596 0.1178 0.09987 0.0
C662 C 0.97805 0.13843 0.10254 0.0
C663 C 0.96041 0.14708 0.08887 0.0
C664 C 0.9788 0.15068 0.12037 0.0
C665 C 0.01287 0.1072 0.11476 0.0
C666 C 0.96173 0.15519 0.1391 0.0
C667 C 0.96315 0.165 0.15718 0.0
C668 C 0.9817 0.17047 0.15687 0.0
C669 C -0.00162 0.16672 0.13758 0.0
C670 C -0.00314 0.15704 0.11942 0.0
H671 H 0.02048 0.08942 0.11466 0.0
H672 H 0.0257 0.11458 0.10741 0.0
H673 H 0.00735 0.10976 0.1335 0.0
H674 H 0.94762 0.15044 0.14015 0.0
H675 H 0.9501 0.16754 0.17186 0.0
H676 H 0.80131 0.21543 0.45657 0.0
H677 H 0.83449 0.21304 0.42857 0.0
H678 H 0.84584 0.25946 0.45994 0.0
H679 H 0.81262 0.2622 0.48787 0.0
H680 H 0.84655 0.27011 0.41056 0.0
H681 H 0.89973 0.18444 0.43739 0.0
H682 H 0.87273 0.18767 0.43223 0.0
H683 H 0.87598 0.19829 0.45643 0.0
C684 C 0.81102 0.22489 0.45782 0.0
C685 C 0.80421 0.23902 0.47453 0.0
C686 C 0.83007 0.2234 0.44184 0.0
C687 C 0.84276 0.23589 0.44233 0.0
C688 C 0.83633 0.2496 0.45934 0.0
H689 H 0.95171 0.26393 0.34772 0.0
H690 H 0.92336 0.26131 0.38093 0.0
C691 C 0.81731 0.25109 0.47533 0.0
C692 C 0.86174 0.236 0.42396 0.0
H693 H 0.91154 0.20363 0.40071 0.0
C694 C 0.86085 0.25562 0.40852 0.0
C695 C 0.88028 0.21704 0.42124 0.0
C696 C 0.88242 0.19569 0.43782 0.0
C697 C 0.8778 0.25673 0.39012 0.0
C698 C 0.89639 0.23777 0.38739 0.0
C699 C 0.89731 0.21814 0.40287 0.0
C700 C 0.91482 0.23801 0.36829 0.0
C701 C 0.87534 0.27805 0.37333 0.0
C702 C 0.92008 0.22508 0.35068 0.0
C703 C 0.93645 0.22636 0.33173 0.0
C704 C 0.9479 0.24061 0.33006 0.0
C705 C 0.94312 0.25292 0.34827 0.0
C706 C 0.92682 0.25155 0.36724 0.0
H707 H 0.85799 0.28922 0.37398 0.0
H708 H 0.88509 0.28624 0.3785 0.0
H709 H 0.88146 0.27538 0.35468 0.0
H710 H 0.9111 0.21442 0.35124 0.0
H711 H 0.93969 0.21661 0.31809 0.0
H712 H 0.71921 0.05109 0.68534 0.0
H713 H 0.72076 0.08117 0.65289 0.0
H714 H 0.77782 0.08204 0.67722 0.0
H715 H 0.77679 0.05156 0.70918 0.0
H716 H 0.71612 0.12147 0.65432 0.0
H717 H 0.79865 0.08433 0.60789 0.0
H718 H 0.78532 0.06848 0.63047 0.0
H719 H 0.79976 0.08324 0.63874 0.0
C720 C 0.73232 0.05744 0.68358 0.0
C721 C 0.748 0.0487 0.69983 0.0
C722 C 0.73315 0.07473 0.665 0.0
C723 C 0.74964 0.08377 0.66219 0.0
C724 C 0.76531 0.07504 0.67841 0.0
H725 H 0.77391 0.20013 0.59091 0.0
H726 H 0.77306 0.1653 0.61462 0.0
C727 C 0.76463 0.05761 0.69685 0.0
C728 C 0.74972 0.10307 0.64322 0.0
H729 H 0.78283 0.12339 0.59901 0.0
C730 C 0.73062 0.12172 0.64199 0.0
C731 C 0.76856 0.10353 0.62692 0.0
C732 C 0.78914 0.08373 0.62588 0.0
C733 C 0.73017 0.14096 0.62577 0.0
C734 C 0.74928 0.14165 0.61023 0.0
C735 C 0.76819 0.12289 0.61097 0.0
C736 C 0.7505 0.1622 0.59452 0.0
C737 C 0.70952 0.16075 0.62599 0.0
C738 C 0.73839 0.17194 0.57495 0.0
C739 C 0.73904 0.19187 0.56115 0.0
C740 C 0.75169 0.2024 0.56677 0.0
C741 C 0.76404 0.19239 0.58608 0.0
C742 C 0.76359 0.17246 0.59966 0.0
H743 H 0.69708 0.15846 0.64122 0.0
H744 H 0.71335 0.17523 0.62692 0.0
H745 H 0.70224 0.16416 0.60922 0.0
H746 H 0.72824 0.16428 0.57056 0.0
H747 H 0.72909 0.19941 0.5467 0.0
H748 H 0.96663 0.98458 0.95056 0.0
H749 H 0.93488 0.97961 0.94083 0.0
H750 H 0.89175 0.02898 0.98149 0.0
H751 H 0.92372 0.0344 0.99088 0.0
H752 H 0.90055 0.96813 0.96904 0.0
H753 H 0.8708 0.05162 0.91578 0.0
H754 H 0.89764 0.03994 0.92567 0.0
H755 H 0.87376 0.04989 0.94634 0.0
C756 C 0.95038 0.99452 0.95728 0.0
C757 C 0.94755 0.01012 0.97117 0.0
C758 C 0.93227 0.99149 0.95193 0.0
C759 C 0.91097 0.00409 0.96022 0.0
C760 C 0.90806 0.01935 0.9746 0.0
H761 H 0.79791 0.01353 0.89657 0.0
H762 H 0.81764 0.01459 0.92751 0.0
C763 C 0.92627 0.02241 0.97998 0.0
C764 C 0.89209 1.00186 0.95241 0.0
H765 H 0.85264 0.02809 0.9151 0.0
C766 C 0.8898 0.98133 0.95755 0.0
C767 C 0.87807 0.01912 0.93751 0.0
C768 C 0.88018 0.04136 0.93079 0.0
C769 C 0.87449 0.97734 0.9473 0.0
C770 C 0.86135 0.99429 0.93134 0.0
C771 C 0.86272 0.01514 0.92739 0.0
C772 C 0.84817 0.99038 0.91614 0.0
C773 C 0.87292 0.95491 0.9532 0.0
C774 C 0.85866 0.97608 0.8998 0.0
C775 C 0.84751 0.97556 0.88201 0.0
C776 C 0.82568 0.98946 0.88011 0.0
C777 C 0.81482 1.00285 0.89736 0.0
C778 C 0.826 0.00336 0.91515 0.0
H779 H 0.87779 0.94655 0.97118 0.0
H780 H 0.85604 0.9556 0.95252 0.0
H781 H 0.88429 0.94495 0.94006 0.0
H782 H 0.87591 0.96633 0.89981 0.0
H783 H 0.85647 0.9653 0.86884 0.0
H784 H 0.00373 0.02628 0.07621 0.0
H785 H 0.03677 0.0276 0.08755 0.0
H786 H 0.07644 0.97275 0.05309 0.0
H787 H 0.04325 0.97152 0.04133 0.0
H788 H 0.08012 0.97021 0.10469 0.0
H789 H 0.08971 0.04476 0.04592 0.0
H790 H 0.06211 0.04584 0.05734 0.0
H791 H 0.07827 0.02758 0.03706 0.0
C792 C 0.0195 0.01455 0.07096 0.0
C793 C 0.021 0.99862 0.05816 0.0
C794 C 0.03835 0.01548 0.0772 0.0
C795 C 0.059 1.00042 0.07091 0.0
C796 C 0.06062 0.98463 0.05787 0.0
H797 H 0.17071 0.97904 0.1458 0.0
H798 H 0.1514 0.97599 0.11563 0.0
C799 C 0.04172 0.98388 0.05129 0.0
C800 C 0.07836 0.99999 0.0803 0.0
H801 H 0.10833 0.03152 0.08041 0.0
C802 C 0.08671 0.98331 0.09909 0.0
C803 C 0.08674 0.01717 0.07291 0.0
C804 C 0.07892 0.03486 0.05209 0.0
C805 C 0.10222 0.98413 0.11185 0.0
C806 C 0.1099 1.00189 0.10517 0.0
C807 C 0.1024 0.01795 0.08549 0.0
C808 C 0.12358 0.00536 0.12012 0.0
C809 C 0.10909 0.96676 0.13333 0.0
C810 C 0.11496 0.02357 0.13153 0.0
C811 C 0.1261 0.02556 0.14844 0.0
C812 C 0.14605 0.00932 0.15433 0.0
C813 C 0.15539 0.99184 0.14167 0.0
C814 C 0.14427 0.98994 0.12462 0.0
H815 H 0.09849 0.95663 0.13865 0.0
H816 H 0.12619 0.95586 0.12913 0.0
H817 H 0.10856 0.97416 0.14876 0.0
H818 H 0.0991 0.03577 0.12816 0.0
H819 H 0.11871 0.03945 0.1575 0.0
H820 H 0.98397 0.43646 0.51793 0.0
H821 H 0.98624 0.40468 0.50269 0.0
H822 H 0.03633 0.41527 0.44674 0.0
H823 H 0.0347 0.44663 0.46232 0.0
H824 H 0.97551 0.40734 0.46007 0.0
H825 H 0.06051 0.35018 0.46538 0.0
H826 H 0.04871 0.37261 0.48162 0.0
H827 H 0.06007 0.37686 0.45084 0.0
C828 C -0.00413 0.43171 0.50272 0.0
C829 C 0.00916 0.44409 0.49128 0.0
C830 C -0.0029 0.41356 0.49402 0.0
C831 C 0.01153 0.40748 0.47367 0.0
C832 C 0.02545 0.41929 0.46281 0.0
H833 H 0.02818 0.34496 0.35835 0.0
H834 H 0.02994 0.36275 0.38965 0.0
C835 C 0.02442 0.43732 0.47167 0.0
C836 C 0.01013 0.3907 0.46201 0.0
H837 H 0.04142 0.3466 0.43581 0.0
C838 C -0.01018 0.39377 0.45518 0.0
C839 C 0.02877 0.37293 0.4558 0.0
C840 C 0.05067 0.36781 0.46404 0.0
C841 C 0.98796 0.38052 0.44085 0.0
C842 C 0.00691 0.36357 0.43341 0.0
C843 C 0.02696 0.35973 0.44136 0.0
C844 C 0.00676 0.35116 0.41545 0.0
C845 C 0.96599 0.3856 0.43271 0.0
C846 C -0.00653 0.33835 0.41974 0.0
C847 C -0.0076 0.32813 0.40179 0.0
C848 C 0.00481 0.33039 0.37937 0.0
C849 C 0.01864 0.34265 0.37549 0.0
C850 C 0.01961 0.3529 0.39335 0.0
H851 H 0.95412 0.40169 0.43635 0.0
H852 H 0.96782 0.38548 0.41333 0.0
H853 H 0.95893 0.37299 0.44234 0.0
H854 H 0.98376 0.33644 0.43684 0.0
H855 H 0.98182 0.31855 0.40541 0.0
H856 H 0.66808 0.24274 0.54439 0.0
H857 H 0.63492 0.24525 0.57235 0.0
H858 H 0.64394 0.29443 0.60125 0.0
H859 H 0.67719 0.29215 0.57329 0.0
H860 H 0.63477 0.2369 0.62298 0.0
H861 H 0.5781 0.31976 0.59068 0.0
H862 H 0.60198 0.30531 0.57219 0.0
H863 H 0.60498 0.31803 0.59467 0.0
C864 C 0.6629 0.25439 0.55638 0.0
C865 C 0.6754 0.26725 0.55654 0.0
C866 C 0.64391 0.25575 0.5724 0.0
C867 C 0.63687 0.27014 0.58872 0.0
C868 C 0.6489 0.28345 0.58853 0.0
H869 H 0.53566 0.29231 0.70942 0.0
H870 H 0.56439 0.29471 0.67644 0.0
C871 C 0.66798 0.28204 0.57258 0.0
C872 C 0.61795 0.26995 0.60713 0.0
H873 H 0.56639 0.30113 0.62763 0.0
C874 C 0.61975 0.25089 0.62393 0.0
C875 C 0.59851 0.28829 0.60841 0.0
C876 C 0.59558 0.30899 0.59045 0.0
C877 C 0.60275 0.24975 0.64227 0.0
C878 C 0.58314 0.26802 0.64345 0.0
C879 C 0.58136 0.28712 0.62664 0.0
C880 C 0.5645 0.26762 0.66226 0.0
C881 C 0.60625 0.22918 0.66059 0.0
C882 C 0.55451 0.25206 0.66481 0.0
C883 C 0.53822 0.25054 0.68373 0.0
C884 C 0.53134 0.26478 0.7003 0.0
C885 C 0.54058 0.28108 0.697 0.0
C886 C 0.55702 0.28246 0.67816 0.0
H887 H 0.62396 0.21936 0.66106 0.0
H888 H 0.59899 0.23292 0.67868 0.0
H889 H 0.59824 0.21903 0.65601 0.0
H890 H 0.5596 0.24081 0.65238 0.0
H891 H 0.5313 0.23794 0.68558 0.0
H892 H 0.76146 0.94839 0.83859 0.0
H893 H 0.76002 0.91721 0.86965 0.0
H894 H 0.69755 0.92412 0.8512 0.0
H895 H 0.69881 0.95523 0.82013 0.0
H896 H 0.72699 0.91258 0.91016 0.0
H897 H 0.73773 0.86067 0.84383 0.0
H898 H 0.74376 0.88558 0.83605 0.0
H899 H 0.71586 0.88654 0.84 0.0
C900 C 0.74729 0.94344 0.84125 0.0
C901 C 0.7303 0.95433 0.82669 0.0
C902 C 0.74651 0.92559 0.85906 0.0
C903 C 0.72883 0.91811 0.86255 0.0
C904 C 0.71151 0.92939 0.84862 0.0
H905 H 0.69568 0.80745 0.94316 0.0
H906 H 0.69692 0.84167 0.91812 0.0
C907 C 0.71221 0.94728 0.83091 0.0
C908 C 0.7288 0.89809 0.88011 0.0
H909 H 0.72929 0.84646 0.88422 0.0
C910 C 0.72759 0.89806 0.90453 0.0
C911 C 0.72972 0.87911 0.87275 0.0
C912 C 0.73204 0.87778 0.84673 0.0
C913 C 0.72649 0.87983 0.92182 0.0
C914 C 0.72705 0.86095 0.91446 0.0
C915 C 0.7287 0.86092 0.88997 0.0
C916 C 0.72533 0.84119 0.93164 0.0
C917 C 0.72401 0.88124 0.94782 0.0
C918 C 0.74076 0.82945 0.94788 0.0
C919 C 0.73988 0.80991 0.96247 0.0
C920 C 0.72366 0.80171 0.96098 0.0
C921 C 0.70819 0.81354 0.94492 0.0
C922 C 0.70894 0.83307 0.93053 0.0
H923 H 0.71811 0.89838 0.95065 0.0
H924 H 0.7124 0.87332 0.95851 0.0
H925 H 0.74019 0.87272 0.95459 0.0
H926 H 0.75399 0.83491 0.94862 0.0
H927 H 0.75262 0.80063 0.97383 0.0
H928 H 0.15839 0.26905 0.03394 0.0
H929 H 0.12421 0.27442 0.06102 0.0
H930 H 0.15778 0.27365 0.11806 0.0
H931 H 0.19142 0.26985 0.09065 0.0
H932 H 0.11381 0.2499 0.09659 0.0
H933 H 0.10469 0.32316 0.13038 0.0
H934 H 0.12461 0.31431 0.10549 0.0
H935 H 0.13096 0.30306 0.13567 0.0
C936 C 0.15828 0.27052 0.05215 0.0
C937 C 0.17746 0.26932 0.06013 0.0
C938 C 0.13877 0.27353 0.06766 0.0
C939 C 0.13814 0.27493 0.0916 0.0
C940 C 0.15743 0.27355 0.09955 0.0
H941 H 0.05443 0.23127 0.20745 0.0
H942 H 0.08189 0.23601 0.17424 0.0
C943 C 0.17676 0.27118 0.08388 0.0
C944 C 0.11795 0.27596 0.10869 0.0
H945 H 0.08614 0.2996 0.15573 0.0
C946 C 0.10758 0.26107 0.10922 0.0
C947 C 0.10927 0.29082 0.12493 0.0
C948 C 0.11784 0.30888 0.12387 0.0
C949 C 0.08954 0.25997 0.12606 0.0
C950 C 0.08228 0.27335 0.14377 0.0
C951 C 0.09193 0.28897 0.14255 0.0
C952 C 0.06544 0.27075 0.1642 0.0
C953 C 0.07843 0.24454 0.12443 0.0
C954 C 0.04752 0.28885 0.17064 0.0
C955 C 0.03209 0.28624 0.19027 0.0
C956 C 0.03414 0.26545 0.20353 0.0
C957 C 0.05214 0.24744 0.19721 0.0
C958 C 0.06779 0.25011 0.17806 0.0
H959 H 0.07995 0.24234 0.10571 0.0
H960 H 0.08653 0.22832 0.13491 0.0
H961 H 0.06074 0.25044 0.13134 0.0
H962 H 0.04543 0.30499 0.16042 0.0
H963 H 0.01841 0.3004 0.19485 0.0
H964 H 0.76178 0.4536 0.34119 0.0
H965 H 0.76145 0.4227 0.37312 0.0
H966 H 0.70187 0.42376 0.3528 0.0
H967 H 0.70202 0.45459 0.32087 0.0
H968 H 0.7277 0.41671 0.41293 0.0
H969 H 0.74707 0.36128 0.34795 0.0
H970 H 0.75101 0.38724 0.34 0.0
H971 H 0.72404 0.386 0.3426 0.0
C972 C 0.74844 0.44745 0.34364 0.0
C973 C 0.73197 0.45661 0.32828 0.0
C974 C 0.74829 0.42976 0.36196 0.0
C975 C 0.73179 0.42071 0.3652 0.0
C976 C 0.71492 0.43029 0.35047 0.0
H977 H 0.70233 0.30863 0.44401 0.0
H978 H 0.70365 0.34278 0.41919 0.0
C979 C 0.71498 0.44803 0.33225 0.0
C980 C 0.73265 0.40069 0.38317 0.0
H981 H 0.73732 0.34762 0.38818 0.0
C982 C 0.72992 0.40153 0.40758 0.0
C983 C 0.73578 0.38085 0.37619 0.0
C984 C 0.73985 0.37861 0.35027 0.0
C985 C 0.72923 0.38333 0.42517 0.0
C986 C 0.73176 0.36362 0.41815 0.0
C987 C 0.73518 0.3627 0.39369 0.0
C988 C 0.72975 0.34403 0.4355 0.0
C989 C 0.72499 0.38563 0.45106 0.0
C990 C 0.74368 0.33336 0.45347 0.0
C991 C 0.74266 0.31382 0.46806 0.0
C992 C 0.72792 0.30454 0.46469 0.0
C993 C 0.71378 0.31546 0.4471 0.0
C994 C 0.71459 0.33498 0.43282 0.0
H995 H 0.71812 0.40297 0.4533 0.0
H996 H 0.71345 0.37737 0.46117 0.0
H997 H 0.74067 0.37791 0.45897 0.0
H998 H 0.75591 0.33963 0.45562 0.0
H999 H 0.75413 0.30541 0.48106 0.0
H1000 H 0.50108 0.0218 0.58106 0.0
H1001 H 0.5342 0.02133 0.59407 0.0
H1002 H 0.57269 0.96514 0.56134 0.0
H1003 H 0.53944 0.96567 0.54789 0.0
H1004 H 0.57378 0.96561 0.61577 0.0
H1005 H 0.59086 0.03306 0.54909 0.0
H1006 H 0.56261 0.03622 0.5599 0.0
H1007 H 0.57856 0.0156 0.54223 0.0
C1008 C 0.51658 0.00932 0.57663 0.0
C1009 C 0.51774 0.99363 0.56367 0.0
C1010 C 0.53548 0.0092 0.5839 0.0
C1011 C 0.55581 0.9933 0.57851 0.0
C1012 C 0.5571 0.97761 0.5655 0.0
H1013 H 0.66775 0.97128 0.6534 0.0
H1014 H 0.64723 0.9666 0.62552 0.0
C1015 C 0.53817 0.9779 0.55792 0.0
C1016 C 0.57525 0.9925 0.588 0.0
H1017 H 0.60893 0.02131 0.58378 0.0
C1018 C 0.58186 0.97745 0.60858 0.0
C1019 C 0.58551 0.00809 0.57854 0.0
C1020 C 0.5792 0.02417 0.55612 0.0
C1021 C 0.59764 0.9784 0.62086 0.0
C1022 C 0.60738 0.99455 0.61188 0.0
C1023 C 0.60148 0.00894 0.59061 0.0
C1024 C 0.62182 0.99828 0.62569 0.0
C1025 C 0.60268 0.96301 0.64411 0.0
C1026 C 0.61506 0.01812 0.63385 0.0
C1027 C 0.62694 0.02101 0.64939 0.0
C1028 C 0.6458 0.00406 0.65716 0.0
C1029 C 0.65332 0.98468 0.64775 0.0
C1030 C 0.64147 0.98186 0.63205 0.0
H1031 H 0.59053 0.95466 0.65085 0.0
H1032 H 0.6191 0.95036 0.64145 0.0
H1033 H 0.60293 0.97183 0.65797 0.0
H1034 H 0.60005 0.0311 0.62897 0.0
H1035 H 0.62097 0.0363 0.65589 0.0
H1036 H 0.02761 0.93683 0.97854 0.0
H1037 H 0.02746 0.90864 0.95846 0.0
H1038 H 0.96107 0.91684 0.99018 0.0
H1039 H 0.96102 0.94478 1.01052 0.0
H1040 H 0.01742 0.86844 0.97532 0.0
H1041 H 0.95785 0.9319 0.91757 0.0
H1042 H 0.97295 0.93855 0.93555 0.0
H1043 H 0.94971 0.93068 0.94907 0.0
C1044 C 0.01311 0.93234 0.98167 0.0
C1045 C -0.00578 0.94327 0.99595 0.0
C1046 C 0.01307 0.91624 0.97017 0.0
C1047 C -0.00588 0.91095 0.97266 0.0
C1048 C 0.97574 0.92089 0.98796 0.0
H1049 H 0.95688 0.84026 0.88997 0.0
H1050 H 0.95763 0.85922 0.92089 0.0
C1051 C 0.97579 0.93685 0.99957 0.0
C1052 C -0.00703 0.89624 0.95796 0.0
H1053 H 0.96779 0.89559 0.91237 0.0
C1054 C 0.00657 0.8743 0.96156 0.0
C1055 C 0.97867 0.904 0.94016 0.0
C1056 C 0.96407 0.92759 0.93515 0.0
C1057 C 0.00622 0.85981 0.94781 0.0
C1058 C -0.00775 0.86766 0.92965 0.0
C1059 C 0.97844 0.88957 0.92634 0.0
C1060 C -0.00762 0.85389 0.913 0.0
C1061 C 0.02058 0.8362 0.95306 0.0
C1062 C 0.01169 0.84442 0.89846 0.0
C1063 C 0.0113 0.83356 0.88084 0.0
C1064 C -0.00847 0.83219 0.87722 0.0
C1065 C 0.97232 0.8412 0.89221 0.0
C1066 C 0.97274 0.85196 0.90992 0.0
H1067 H 0.02457 0.8315 0.97171 0.0
H1068 H 0.01257 0.82533 0.9501 0.0
H1069 H 0.03623 0.83354 0.94106 0.0
H1070 H 0.0269 0.8462 0.90004 0.0
H1071 H 0.02629 0.82712 0.86932 0.0
H1072 H 0.03016 0.09838 1.00013 0.0
H1073 H 0.03623 0.13052 1.00602 0.0
H1074 H 0.10421 0.1038 0.97762 0.0
H1075 H 0.09818 0.07166 0.97183 0.0
H1076 H 0.06455 0.13224 0.03393 0.0
H1077 H 0.08458 0.16545 0.93975 0.0
H1078 H 0.07135 0.14535 0.94849 0.0
H1079 H 0.10073 0.13716 0.94671 0.0
C1080 C 0.04638 0.09943 0.99525 0.0
C1081 C 0.06376 0.08261 0.98568 0.0
C1082 C 0.04977 0.11778 0.99846 0.0
C1083 C 0.07055 0.11961 0.99192 0.0
C1084 C 0.08791 0.10286 0.98225 0.0
H1085 H 0.15254 0.1638 0.03531 0.0
H1086 H 0.12261 0.15085 0.03615 0.0
C1087 C 0.08451 0.08454 0.97899 0.0
C1088 C 0.07464 0.13844 0.99616 0.0
H1089 H 0.09986 0.17469 0.96875 0.0
C1090 C 0.0718 0.14195 0.01966 0.0
C1091 C 0.08333 0.15156 0.97745 0.0
C1092 C 0.08493 0.14986 0.95166 0.0
C1093 C 0.07953 0.15682 0.02518 0.0
C1094 C 0.09074 0.16796 1.00676 0.0
C1095 C 0.09153 0.16598 0.98301 0.0
C1096 C 0.10482 0.17876 1.0116 0.0
C1097 C 0.07626 0.15985 0.05074 0.0
C1098 C 0.10461 0.19896 0.99796 0.0
C1099 C 0.12207 0.20602 0.99697 0.0
C1100 C 0.13973 0.19313 1.00992 0.0
C1101 C 0.13893 0.17403 0.02535 0.0
C1102 C 0.12169 0.16676 0.026 0.0
H1103 H 0.06035 0.15848 0.05988 0.0
H1104 H 0.08943 0.14677 0.06032 0.0
H1105 H 0.07667 0.17587 0.05209 0.0
H1106 H 0.0918 0.20845 0.98668 0.0
H1107 H 0.12242 0.22089 0.98505 0.0
H1108 H 0.67694 0.53337 0.29127 0.0
H1109 H 0.64103 0.56285 0.29418 0.0
H1110 H 0.67329 0.61027 0.27522 0.0
H1111 H 0.70885 0.58118 0.2724 0.0
H1112 H 0.64117 0.61629 0.31561 0.0
H1113 H 0.60902 0.60691 0.23853 0.0
H1114 H 0.61874 0.58304 0.26063 0.0
H1115 H 0.63778 0.59505 0.24244 0.0
C1116 C 0.67629 0.55013 0.28771 0.0
C1117 C 0.69574 0.55498 0.28162 0.0
C1118 C 0.65579 0.56693 0.28925 0.0
C1119 C 0.65445 0.58882 0.2847 0.0
C1120 C 0.67388 0.59357 0.27878 0.0
H1121 H 0.56972 0.72088 0.27288 0.0
H1122 H 0.59905 0.68539 0.27599 0.0
C1123 C 0.69426 0.57688 0.27718 0.0
C1124 C 0.63305 0.60703 0.28649 0.0
H1125 H 0.58709 0.63597 0.25858 0.0
C1126 C 0.62923 0.62044 0.30329 0.0
C1127 C 0.6174 0.61238 0.27053 0.0
C1128 C 0.62085 0.59874 0.25187 0.0
C1129 C 0.61059 0.63937 0.30414 0.0
C1130 C 0.59548 0.64534 0.28743 0.0
C1131 C 0.59873 0.63143 0.27131 0.0
C1132 C 0.5773 0.66679 0.28529 0.0
C1133 C 0.60738 0.65299 0.32277 0.0
C1134 C 0.55524 0.66822 0.28886 0.0
C1135 C 0.53833 0.68863 0.28707 0.0
C1136 C 0.54327 0.7079 0.28145 0.0
C1137 C 0.56536 0.70635 0.27747 0.0
C1138 C 0.58217 0.68605 0.27932 0.0
H1139 H 0.61627 0.64319 0.33828 0.0
H1140 H 0.61395 0.66631 0.31489 0.0
H1141 H 0.58972 0.66039 0.32919 0.0
H1142 H 0.5511 0.65357 0.29329 0.0
H1143 H 0.52145 0.68933 0.29005 0.0
H1144 H 0.36271 0.78126 0.53869 0.0
H1145 H 0.39179 0.79658 0.53379 0.0
H1146 H 0.35378 0.85401 0.4892 0.0
H1147 H 0.32489 0.83872 0.49375 0.0
H1148 H 0.40151 0.84228 0.47789 0.0
H1149 H 0.37024 0.84577 0.5739 0.0
H1150 H 0.38141 0.81942 0.56521 0.0
H1151 H 0.35633 0.83886 0.55487 0.0
C1152 C 0.36091 0.79687 0.52728 0.0
C1153 C 0.34142 0.80906 0.517 0.0
C1154 C 0.37753 0.80552 0.5244 0.0
C1155 C 0.37465 0.82656 0.51153 0.0
C1156 C 0.35626 0.83773 0.4992 0.0
H1157 H 0.39062 0.94426 0.50025 0.0
H1158 H 0.3898 0.91056 0.49224 0.0
C1159 C 0.33974 0.82901 0.50187 0.0
C1160 C 0.38792 0.83881 0.51481 0.0
H1161 H 0.39209 0.86618 0.55516 0.0
C1162 C 0.39993 0.84716 0.49488 0.0
C1163 C 0.38584 0.84505 0.53706 0.0
C1164 C 0.37269 0.83697 0.559 0.0
C1165 C 0.40899 0.86254 0.49639 0.0
C1166 C 0.4054 0.87001 0.51819 0.0
C1167 C 0.39478 0.86045 0.53845 0.0
C1168 C 0.4096 0.88962 0.52001 0.0
C1169 C 0.42178 0.87107 0.47453 0.0
C1170 C 0.42084 0.8891 0.53838 0.0
C1171 C 0.42086 0.9084 0.54333 0.0
C1172 C 0.4097 0.92853 0.52994 0.0
C1173 C 0.39931 0.92896 0.51086 0.0
C1174 C 0.39912 0.90967 0.50605 0.0
H1175 H 0.43003 0.85863 0.46283 0.0
H1176 H 0.41034 0.88541 0.46414 0.0
H1177 H 0.43434 0.87608 0.47937 0.0
H1178 H 0.42892 0.87381 0.54944 0.0
H1179 H 0.42951 0.90757 0.55773 0.0
H1180 H 0.02211 0.68816 0.78844 0.0
H1181 H 0.05172 0.65242 0.78996 0.0
H1182 H 0.09979 0.6841 0.7727 0.0
H1183 H 0.07049 0.71959 0.77103 0.0
H1184 H 0.10717 0.65203 0.74482 0.0
H1185 H 0.09365 0.6206 0.84183 0.0
H1186 H 0.07037 0.63027 0.82549 0.0
H1187 H 0.08215 0.64912 0.82939 0.0
C1188 C 0.03901 0.68743 0.78514 0.0
C1189 C 0.04399 0.70667 0.77975 0.0
C1190 C 0.0559 0.66702 0.78609 0.0
C1191 C 0.078 0.66556 0.78169 0.0
C1192 C 0.08289 0.68479 0.77623 0.0
H1193 H 0.21042 0.57997 0.77577 0.0
H1194 H 0.17492 0.60937 0.77505 0.0
C1195 C 0.06611 0.70509 0.77533 0.0
C1196 C 0.09628 0.64421 0.78207 0.0
H1197 H 0.12347 0.5983 0.81923 0.0
C1198 C 0.1106 0.6402 0.76105 0.0
C1199 C 0.10067 0.62866 0.8032 0.0
C1200 C 0.08604 0.6323 0.82636 0.0
C1201 C 0.12948 0.62143 0.76073 0.0
C1202 C 0.13446 0.6064 0.78209 0.0
C1203 C 0.11966 0.60987 0.8029 0.0
C1204 C 0.15586 0.58812 0.78346 0.0
C1205 C 0.14411 0.61799 0.73752 0.0
C1206 C 0.157 0.56629 0.78916 0.0
C1207 C 0.17743 0.54931 0.78967 0.0
C1208 C 0.19698 0.55396 0.78471 0.0
C1209 C 0.19568 0.57582 0.7796 0.0
C1210 C 0.17538 0.59268 0.77904 0.0
H1211 H 0.13503 0.62705 0.72195 0.0
H1212 H 0.15773 0.62403 0.73663 0.0
H1213 H 0.15133 0.60045 0.73611 0.0
H1214 H 0.14212 0.5624 0.79278 0.0
H1215 H 0.17794 0.53261 0.79365 0.0
H1216 H 0.80526 0.36454 0.50143 0.0
H1217 H 0.83564 0.37812 0.4932 0.0
H1218 H 0.88176 0.31224 0.49943 0.0
H1219 H 0.85124 0.29853 0.50794 0.0
H1220 H 0.88689 0.33301 0.5298 0.0
H1221 H 0.88363 0.38617 0.44213 0.0
H1222 H 0.8567 0.39309 0.4583 0.0
H1223 H 0.86998 0.36638 0.45032 0.0
C1224 C 0.82187 0.35298 0.50019 0.0
C1225 C 0.82592 0.33051 0.50559 0.0
C1226 C 0.83928 0.36076 0.49531 0.0
C1227 C 0.86101 0.34619 0.49544 0.0
C1228 C 0.86513 0.32374 0.49913 0.0
H1229 H 0.9461 0.41884 0.49916 0.0
H1230 H 0.93675 0.3912 0.48706 0.0
C1231 C 0.84771 0.31595 0.50413 0.0
C1232 C 0.87858 0.35436 0.49644 0.0
H1233 H 0.89551 0.39761 0.47321 0.0
C1234 C 0.88935 0.34668 0.51699 0.0
C1235 C 0.88219 0.37191 0.47959 0.0
C1236 C 0.87266 0.37965 0.45623 0.0
C1237 C 0.9016 0.35761 0.52239 0.0
C1238 C 0.90278 0.37681 0.50703 0.0
C1239 C 0.89415 0.38309 0.48521 0.0
C1240 C 0.9097 0.39226 0.51499 0.0
C1241 C 0.91207 0.34928 0.54521 0.0
C1242 C 0.89741 0.40207 0.53453 0.0
C1243 C 0.90247 0.41802 0.54131 0.0
C1244 C 0.91992 0.42451 0.52863 0.0
C1245 C 0.9324 0.41439 0.50919 0.0
C1246 C 0.92722 0.3985 0.50231 0.0
H1247 H 0.91612 0.3314 0.55055 0.0
H1248 H 0.92726 0.35312 0.54341 0.0
H1249 H 0.90037 0.35714 0.55971 0.0
H1250 H 0.88346 0.39781 0.54415 0.0
H1251 H 0.89223 0.42576 0.556 0.0
H1252 H 0.30048 0.97175 0.2357 0.0
H1253 H 0.33658 0.94243 0.23556 0.0
H1254 H 0.30484 0.89462 0.2523 0.0
H1255 H 0.269 0.92361 0.25255 0.0
H1256 H 0.33793 0.88741 0.28208 0.0
H1257 H 0.36759 0.90132 0.18524 0.0
H1258 H 0.35746 0.9243 0.20045 0.0
H1259 H 0.33891 0.91199 0.19652 0.0
C1260 C 0.30128 0.95497 0.23914 0.0
C1261 C 0.28192 0.94997 0.24404 0.0
C1262 C 0.32188 0.93826 0.23899 0.0
C1263 C 0.32341 0.91633 0.24374 0.0
C1264 C 0.30407 0.91141 0.24854 0.0
H1265 H 0.40898 0.78486 0.25752 0.0
H1266 H 0.37959 0.82019 0.25672 0.0
C1267 C 0.28358 0.92802 0.24861 0.0
C1268 C 0.34494 0.89823 0.24453 0.0
H1269 H 0.3902 0.87121 0.20935 0.0
C1270 C 0.34947 0.88401 0.26622 0.0
C1271 C 0.36009 0.8939 0.22389 0.0
C1272 C 0.35586 0.90855 0.20011 0.0
C1273 C 0.36837 0.86524 0.26769 0.0
C1274 C 0.38294 0.86025 0.24681 0.0
C1275 C 0.37897 0.87499 0.22531 0.0
C1276 C 0.40119 0.83894 0.24667 0.0
C1277 C 0.37242 0.85074 0.2916 0.0
C1278 C 0.42318 0.83768 0.24057 0.0
C1279 C 0.44014 0.81735 0.2409 0.0
C1280 C 0.43531 0.79802 0.24714 0.0
C1281 C 0.41327 0.79943 0.25274 0.0
C1282 C 0.39642 0.81964 0.25244 0.0
H1283 H 0.36399 0.85988 0.30647 0.0
H1284 H 0.36587 0.83745 0.29341 0.0
H1285 H 0.39023 0.84329 0.29338 0.0
H1286 H 0.42722 0.85239 0.23588 0.0
H1287 H 0.45698 0.81675 0.23642 0.0
H1288 H 0.30332 0.4713 0.73966 0.0
H1289 H 0.3392 0.44189 0.73599 0.0
H1290 H 0.30663 0.39496 0.74948 0.0
H1291 H 0.27107 0.42401 0.75308 0.0
H1292 H 0.35723 0.40364 0.7704 0.0
H1293 H 0.34785 0.38211 0.68767 0.0
H1294 H 0.33104 0.40765 0.69725 0.0
H1295 H 0.32477 0.38333 0.71009 0.0
C1296 C 0.30389 0.45471 0.74166 0.0
C1297 C 0.2844 0.44996 0.74647 0.0
C1298 C 0.32435 0.43794 0.73962 0.0
C1299 C 0.32558 0.41626 0.74208 0.0
C1300 C 0.3061 0.41159 0.74702 0.0
H1301 H 0.40972 0.28491 0.75408 0.0
H1302 H 0.38086 0.3207 0.75103 0.0
C1303 C 0.28576 0.42823 0.74916 0.0
C1304 C 0.34703 0.3982 0.74013 0.0
H1305 H 0.37497 0.35509 0.71118 0.0
C1306 C 0.36137 0.39323 0.7572 0.0
C1307 C 0.35245 0.38469 0.72283 0.0
C1308 C 0.33833 0.38981 0.70327 0.0
C1309 C 0.38028 0.37434 0.75829 0.0
C1310 C 0.38504 0.36026 0.74171 0.0
C1311 C 0.37124 0.36582 0.72398 0.0
C1312 C 0.40305 0.33873 0.74364 0.0
C1313 C 0.39437 0.36897 0.77793 0.0
C1314 C 0.42522 0.33692 0.74036 0.0
C1315 C 0.44186 0.31635 0.74204 0.0
C1316 C 0.43654 0.29732 0.747 0.0
C1317 C 0.41436 0.29926 0.75019 0.0
C1318 C 0.39783 0.31971 0.74845 0.0
H1319 H 0.38653 0.37969 0.79153 0.0
H1320 H 0.39784 0.35177 0.78687 0.0
H1321 H 0.41029 0.37103 0.77018 0.0
H1322 H 0.42965 0.35138 0.73631 0.0
H1323 H 0.45882 0.31533 0.73949 0.0
H1324 H 0.16671 0.74661 0.54312 0.0
H1325 H 0.13328 0.75067 0.57076 0.0
H1326 H 0.1432 0.80093 0.59682 0.0
H1327 H 0.17715 0.79661 0.5695 0.0
H1328 H 0.13571 0.77012 0.63268 0.0
H1329 H 0.07258 0.79556 0.57165 0.0
H1330 H 0.0947 0.77114 0.56581 0.0
H1331 H 0.09988 0.79624 0.56148 0.0
C1332 C 0.16167 0.75883 0.55439 0.0
C1333 C 0.17473 0.77127 0.55405 0.0
C1334 C 0.14238 0.76123 0.57013 0.0
C1335 C 0.1355 0.77631 0.58569 0.0
C1336 C 0.14812 0.78925 0.58489 0.0
H1337 H 0.03163 0.79731 0.70587 0.0
H1338 H 0.05967 0.80189 0.67294 0.0
C1339 C 0.1675 0.78681 0.56919 0.0
C1340 C 0.1163 0.77712 0.60415 0.0
H1341 H 0.06229 0.78177 0.61243 0.0
C1342 C 0.11958 0.77299 0.62822 0.0
C1343 C 0.09525 0.78074 0.59837 0.0
C1344 C 0.09031 0.78639 0.57291 0.0
C1345 C 0.10265 0.7717 0.64661 0.0
C1346 C 0.08178 0.77484 0.64082 0.0
C1347 C 0.07834 0.7793 0.6168 0.0
C1348 C 0.06352 0.77306 0.65958 0.0
C1349 C 0.10738 0.76628 0.67215 0.0
C1350 C 0.05592 0.75569 0.66255 0.0
C1351 C 0.03988 0.75299 0.68138 0.0
C1352 C 0.03102 0.76774 0.69749 0.0
C1353 C 0.03809 0.78561 0.69386 0.0
C1354 C 0.0542 0.78822 0.6751 0.0
H1355 H 0.12525 0.76026 0.67353 0.0
H1356 H 0.09948 0.78112 0.68041 0.0
H1357 H 0.10049 0.75374 0.68255 0.0
H1358 H 0.06286 0.74385 0.65069 0.0
H1359 H 0.03479 0.73908 0.68358 0.0
H1360 H 0.26027 0.94901 0.33989 0.0
H1361 H 0.25893 0.91826 0.37167 0.0
H1362 H 0.19744 0.92308 0.35259 0.0
H1363 H 0.1985 0.95387 0.32085 0.0
H1364 H 0.21333 0.91662 0.41111 0.0
H1365 H 0.25267 0.85754 0.34837 0.0
H1366 H 0.25896 0.88208 0.34449 0.0
H1367 H 0.23282 0.88377 0.33848 0.0
C1368 C 0.2463 0.94374 0.34259 0.0
C1369 C 0.22949 0.95398 0.32771 0.0
C1370 C 0.24557 0.92616 0.36081 0.0
C1371 C 0.2281 0.9184 0.36447 0.0
C1372 C 0.21105 0.92887 0.35009 0.0
H1373 H 0.20686 0.79976 0.43761 0.0
H1374 H 0.20707 0.83395 0.41185 0.0
C1375 C 0.21169 0.9465 0.33195 0.0
C1376 C 0.22821 0.89862 0.38235 0.0
H1377 H 0.24163 0.84369 0.38774 0.0
C1378 C 0.21959 0.90062 0.40611 0.0
C1379 C 0.23632 0.87784 0.37573 0.0
C1380 C 0.2458 0.87494 0.35041 0.0
C1381 C 0.21847 0.88237 0.42336 0.0
C1382 C 0.22656 0.8615 0.41672 0.0
C1383 C 0.23541 0.8596 0.39293 0.0
C1384 C 0.22528 0.84149 0.43372 0.0
C1385 C 0.20797 0.88576 0.4483 0.0
C1386 C 0.23525 0.83425 0.45488 0.0
C1387 C 0.23489 0.81472 0.46988 0.0
C1388 C 0.22484 0.80191 0.4638 0.0
C1389 C 0.21469 0.80929 0.44282 0.0
C1390 C 0.21487 0.82882 0.42801 0.0
H1391 H 0.19752 0.90303 0.44886 0.0
H1392 H 0.19778 0.8754 0.45573 0.0
H1393 H 0.221 0.88127 0.45993 0.0
H1394 H 0.24384 0.84337 0.45949 0.0
H1395 H 0.24307 0.8093 0.48578 0.0
H1396 H 0.0178 0.66763 0.63633 0.0
H1397 H 0.01705 0.65098 0.60336 0.0
H1398 H 0.94679 0.66895 0.61927 0.0
H1399 H 0.94732 0.68624 0.65162 0.0
H1400 H 0.00393 0.61662 0.60938 0.0
H1401 H 0.95347 0.68435 0.54743 0.0
H1402 H 0.96523 0.68882 0.57049 0.0
H1403 H 0.94001 0.68321 0.5774 0.0
C1404 C 0.00213 0.66859 0.63235 0.0
C1405 C 0.98263 0.67815 0.64667 0.0
C1406 C 0.00174 0.65898 0.61358 0.0
C1407 C 0.98184 0.65891 0.60867 0.0
C1408 C 0.96228 0.66918 0.62237 0.0
H1409 H 0.94826 0.56979 0.55446 0.0
H1410 H 0.94901 0.59836 0.57346 0.0
C1411 C 0.96265 0.6788 0.64109 0.0
C1412 C 0.9817 0.646 0.59121 0.0
H1413 H 0.95664 0.64813 0.54408 0.0
C1414 C -0.00612 0.6236 0.59486 0.0
C1415 C 0.96863 0.65512 0.57222 0.0
C1416 C 0.95628 0.67924 0.56648 0.0
C1417 C -0.00744 0.60995 0.58071 0.0
C1418 C 0.97862 0.61891 0.56259 0.0
C1419 C 0.96708 0.64136 0.55826 0.0
C1420 C 0.9756 0.60475 0.5486 0.0
C1421 C 0.00563 0.5859 0.5855 0.0
C1422 C -0.01016 0.59956 0.52792 0.0
C1423 C -0.01056 0.5833 0.51699 0.0
C1424 C 0.97488 0.57191 0.52667 0.0
C1425 C 0.95964 0.57824 0.5465 0.0
C1426 C 0.96006 0.59452 0.55742 0.0
H1427 H 0.01645 0.58162 0.5996 0.0
H1428 H -0.00573 0.57657 0.59111 0.0
H1429 H 0.01589 0.58068 0.56893 0.0
H1430 H 0.00196 0.60731 0.52096 0.0
H1431 H 0.00126 0.57898 0.50161 0.0
H1432 H 0.30982 0.76473 0.48207 0.0
H1433 H 0.34242 0.76205 0.45314 0.0
H1434 H 0.33772 0.7062 0.43325 0.0
H1435 H 0.30474 0.70902 0.46181 0.0
H1436 H 0.38261 0.72986 0.44752 0.0
H1437 H 0.33799 0.74672 0.36966 0.0
H1438 H 0.32401 0.75052 0.3991 0.0
H1439 H 0.33574 0.72371 0.39145 0.0
C1440 C 0.31574 0.75177 0.47167 0.0
C1441 C 0.30447 0.73721 0.47414 0.0
C1442 C 0.33442 0.75027 0.45512 0.0
C1443 C 0.34227 0.73421 0.44066 0.0
C1444 C 0.33165 0.71906 0.44379 0.0
H1445 H 0.44718 0.70941 0.32261 0.0
H1446 H 0.41915 0.70588 0.35603 0.0
C1447 C 0.31287 0.72061 0.46026 0.0
C1448 C 0.36125 0.73368 0.422 0.0
H1449 H 0.37649 0.73757 0.3619 0.0
C1450 C 0.38128 0.73154 0.4288 0.0
C1451 C 0.35948 0.73598 0.39754 0.0
C1452 C 0.33811 0.73957 0.38891 0.0
C1453 C 0.39962 0.73143 0.41185 0.0
C1454 C 0.39781 0.73371 0.38744 0.0
C1455 C 0.37787 0.73567 0.38065 0.0
C1456 C 0.41614 0.73488 0.36849 0.0
C1457 C 0.42083 0.72867 0.42019 0.0
C1458 C 0.42382 0.75232 0.36446 0.0
C1459 C 0.4398 0.75443 0.34535 0.0
C1460 C 0.4484 0.73915 0.32983 0.0
C1461 C 0.44102 0.72142 0.33425 0.0
C1462 C 0.42495 0.71939 0.35331 0.0
H1463 H 0.4212 0.72166 0.43945 0.0
H1464 H 0.4351 0.718 0.4099 0.0
H1465 H 0.42264 0.74482 0.41737 0.0
H1466 H 0.41698 0.76468 0.37568 0.0
H1467 H 0.44503 0.76833 0.34245 0.0
H1468 H 0.21722 0.05102 0.18615 0.0
H1469 H 0.21889 0.0812 0.15382 0.0
H1470 H 0.27714 0.08041 0.17711 0.0
H1471 H 0.27598 0.04991 0.20891 0.0
H1472 H 0.21545 0.12124 0.15578 0.0
H1473 H 0.29668 0.08292 0.10743 0.0
H1474 H 0.28317 0.06732 0.13012 0.0
H1475 H 0.29855 0.08123 0.13822 0.0
C1476 C 0.2306 0.05703 0.18417 0.0
C1477 C 0.24658 0.04784 0.20008 0.0
C1478 C 0.2315 0.07437 0.16568 0.0
C1479 C 0.24836 0.08296 0.16263 0.0
C1480 C 0.26433 0.07376 0.1785 0.0
H1481 H 0.27602 0.19757 0.09064 0.0
H1482 H 0.27438 0.16306 0.11453 0.0
C1483 C 0.26357 0.05631 0.19684 0.0
C1484 C 0.2486 0.10228 0.14381 0.0
H1485 H 0.28176 0.12205 0.09918 0.0
C1486 C 0.22985 0.12128 0.14316 0.0
C1487 C 0.26731 0.10244 0.12718 0.0
C1488 C 0.28746 0.0823 0.12558 0.0
C1489 C 0.22967 0.14056 0.12718 0.0
C1490 C 0.24869 0.14091 0.11127 0.0
C1491 C 0.26721 0.12181 0.11143 0.0
C1492 C 0.25021 0.16134 0.0956 0.0
C1493 C 0.20943 0.16071 0.12805 0.0
C1494 C 0.23744 0.17176 0.07665 0.0
C1495 C 0.23851 0.1915 0.06279 0.0
C1496 C 0.2523 0.20116 0.06766 0.0
C1497 C 0.26528 0.1905 0.08637 0.0
C1498 C 0.26437 0.17076 0.10005 0.0
H1499 H 0.19732 0.15866 0.14374 0.0
H1500 H 0.2139 0.1749 0.12861 0.0
H1501 H 0.20146 0.16443 0.11169 0.0
H1502 H 0.22648 0.16475 0.07277 0.0
H1503 H 0.22806 0.19957 0.04885 0.0
H1504 H 0.80974 0.76134 0.97895 0.0
H1505 H 0.84278 0.75822 0.95067 0.0
H1506 H 0.834 0.70716 0.92497 0.0
H1507 H 0.80056 0.71049 0.95285 0.0
H1508 H 0.88149 0.72513 0.94365 0.0
H1509 H 0.83723 0.74998 0.86407 0.0
H1510 H 0.82313 0.75248 0.8937 0.0
H1511 H 0.8336 0.72656 0.88397 0.0
C1512 C 0.81484 0.74931 0.96743 0.0
C1513 C 0.80229 0.73629 0.96809 0.0
C1514 C 0.83379 0.74757 0.95123 0.0
C1515 C 0.84065 0.73278 0.93533 0.0
C1516 C 0.82872 0.7191 0.93663 0.0
H1517 H 0.94694 0.70898 0.8184 0.0
H1518 H 0.91827 0.70522 0.85095 0.0
C1519 C 0.80966 0.72092 0.95271 0.0
C1520 C 0.86001 0.73209 0.91713 0.0
H1521 H 0.87593 0.73881 0.85708 0.0
C1522 C 0.88027 0.72811 0.92472 0.0
C1523 C 0.85841 0.73609 0.8924 0.0
C1524 C 0.83689 0.74173 0.88298 0.0
C1525 C 0.89896 0.72788 0.90828 0.0
C1526 C 0.89732 0.73186 0.88362 0.0
C1527 C 0.87716 0.73561 0.87602 0.0
C1528 C 0.91607 0.733 0.86528 0.0
C1529 C 0.92037 0.72323 0.91739 0.0
C1530 C 0.92444 0.7498 0.86263 0.0
C1531 C 0.94077 0.75207 0.84398 0.0
C1532 C 0.94906 0.73755 0.82761 0.0
C1533 C 0.94104 0.72038 0.83073 0.0
C1534 C 0.92461 0.71823 0.84929 0.0
H1535 H 0.92023 0.71552 0.93649 0.0
H1536 H 0.93427 0.71239 0.90688 0.0
H1537 H 0.92328 0.73874 0.91553 0.0
H1538 H 0.91786 0.76159 0.87454 0.0
H1539 H 0.94649 0.76552 0.84209 0.0
H1540 H 0.28374 0.54089 0.70241 0.0
H1541 H 0.28552 0.571 0.6701 0.0
H1542 H 0.217 0.58802 0.66405 0.0
H1543 H 0.21518 0.55766 0.69594 0.0
H1544 H 0.24134 0.59202 0.62002 0.0
H1545 H 0.26033 0.63359 0.68079 0.0
H1546 H 0.27961 0.60667 0.67892 0.0
H1547 H 0.25167 0.61036 0.6915 0.0
C1548 C 0.26908 0.55088 0.69407 0.0
C1549 C 0.24926 0.54691 0.70197 0.0
C1550 C 0.2701 0.5682 0.67565 0.0
C1551 C 0.25129 0.58211 0.66493 0.0
C1552 C 0.23173 0.57761 0.67208 0.0
H1553 H 0.22294 0.71557 0.59781 0.0
H1554 H 0.22475 0.68042 0.62223 0.0
C1555 C 0.23072 0.56021 0.69038 0.0
C1556 C 0.25164 0.60192 0.64713 0.0
H1557 H 0.26031 0.64998 0.64031 0.0
C1558 C 0.24556 0.60468 0.6244 0.0
C1559 C 0.25687 0.61859 0.65293 0.0
C1560 C 0.26229 0.61733 0.67741 0.0
C1561 C 0.24449 0.62365 0.60741 0.0
C1562 C 0.24998 0.64018 0.61315 0.0
C1563 C 0.25626 0.63727 0.6358 0.0
C1564 C 0.24787 0.66135 0.59683 0.0
C1565 C 0.23677 0.62615 0.5838 0.0
C1566 C 0.26001 0.66251 0.57409 0.0
C1567 C 0.25883 0.6828 0.55986 0.0
C1568 C 0.24575 0.7022 0.56834 0.0
C1569 C 0.23331 0.70093 0.59082 0.0
C1570 C 0.23434 0.6808 0.60484 0.0
H1571 H 0.22839 0.61451 0.58428 0.0
H1572 H 0.22535 0.64296 0.57851 0.0
H1573 H 0.25113 0.62295 0.56989 0.0
H1574 H 0.27086 0.64777 0.56762 0.0
H1575 H 0.26866 0.6833 0.54264 0.0
H1576 H 0.35148 0.96502 0.37617 0.0
H1577 H 0.36979 0.97012 0.40577 0.0
H1578 H 0.31977 0.03309 0.4102 0.0
H1579 H 0.30177 0.02842 0.37988 0.0
H1580 H 0.35979 0.03561 0.40065 0.0
H1581 H 0.3597 0.96937 0.47651 0.0
H1582 H 0.37102 0.95813 0.44976 0.0
H1583 H 0.34281 0.97605 0.45301 0.0
C1584 C 0.3442 0.97982 0.3837 0.0
C1585 C 0.3253 0.9964 0.37552 0.0
C1586 C 0.35452 0.9826 0.40088 0.0
C1587 C 0.34602 1.0019 0.41041 0.0
C1588 C 0.32651 0.018 0.40321 0.0
H1589 H 0.42692 0.0413 0.48355 0.0
H1590 H 0.39365 0.04114 0.47081 0.0
C1591 C 0.31618 0.01525 0.38597 0.0
C1592 C 0.35924 0.00636 0.42511 0.0
H1593 H 0.39018 0.98295 0.4712 0.0
C1594 C 0.36599 0.02443 0.41648 0.0
C1595 C 0.36728 0.99179 0.44577 0.0
C1596 C 0.3596 0.97289 0.45688 0.0
C1597 C 0.38185 0.02738 0.42685 0.0
C1598 C 0.39098 0.01196 0.44647 0.0
C1599 C 0.38325 0.99466 0.45604 0.0
C1600 C 0.41043 0.01199 0.45526 0.0
C1601 C 0.3898 0.04612 0.41581 0.0
C1602 C 0.43066 0.9956 0.45084 0.0
C1603 C 0.44953 0.99582 0.45778 0.0
C1604 C 0.44843 0.01227 0.46957 0.0
C1605 C 0.42813 0.02855 0.47433 0.0
C1606 C 0.4092 0.02846 0.46712 0.0
H1607 H 0.38268 0.05528 0.39905 0.0
H1608 H 0.38517 0.05755 0.42856 0.0
H1609 H 0.40796 0.0401 0.41191 0.0
H1610 H 0.4319 0.98277 0.44172 0.0
H1611 H 0.46494 0.98291 0.45418 0.0
H1612 H 0.85404 0.79284 0.01461 0.0
H1613 H 0.88355 0.80651 0.0142 0.0
H1614 H 0.85201 0.82994 0.07994 0.0
H1615 H 0.82269 0.81654 0.08041 0.0
H1616 H 0.87429 0.84911 1.00982 0.0
H1617 H 0.91515 0.80952 0.0906 0.0
H1618 H 0.89955 0.79763 0.07932 0.0
H1619 H 0.88607 0.81755 0.09864 0.0
C1620 C 0.85373 0.80047 0.02924 0.0
C1621 C 0.83596 0.80382 0.04743 0.0
C1622 C 0.87067 0.80808 0.02908 0.0
C1623 C 0.87013 0.81898 0.04719 0.0
C1624 C 0.85316 0.821 0.06615 0.0
H1625 H 0.87624 0.92963 0.07356 0.0
H1626 H 0.87305 0.89521 0.0707 0.0
C1627 C 0.83628 0.81342 0.06634 0.0
C1628 C 0.88436 0.83201 0.04425 0.0
H1629 H 0.91021 0.84864 0.07738 0.0
C1630 C 0.8829 0.84853 0.02417 0.0
C1631 C 0.89569 0.83117 0.0629 0.0
C1632 C 0.89939 0.81282 0.08393 0.0
C1633 C 0.89035 0.86558 0.02348 0.0
C1634 C 0.89944 0.86593 0.04334 0.0
C1635 C 0.90285 0.84839 0.06237 0.0
C1636 C 0.90257 0.88571 0.046 0.0
C1637 C 0.88677 0.88405 1.00252 0.0
C1638 C 0.92029 0.89146 0.03312 0.0
C1639 C 0.92215 0.91102 0.03478 0.0
C1640 C 0.90627 0.9251 0.04921 0.0
C1641 C 0.88873 0.91906 0.06237 0.0
C1642 C 0.88691 0.89947 0.06077 0.0
H1643 H 0.87912 0.88142 0.98862 0.0
H1644 H 0.87607 0.89955 1.00864 0.0
H1645 H 0.90271 0.88589 0.99437 0.0
H1646 H 0.93253 0.88092 0.02172 0.0
H1647 H 0.93613 0.91505 0.02498 0.0
H1648 H 0.63184 0.2132 0.47217 0.0
H1649 H 0.60201 0.19985 0.47305 0.0
H1650 H 0.62946 0.14619 0.52832 0.0
H1651 H 0.6586 0.16006 0.52811 0.0
H1652 H 0.61025 0.16394 0.45923 0.0
H1653 H 0.56628 0.15669 0.54952 0.0
H1654 H 0.58329 0.17339 0.54024 0.0
H1655 H 0.5951 0.14469 0.55169 0.0
C1656 C 0.63097 0.19896 0.48502 0.0
C1657 C 0.64744 0.18749 0.49997 0.0
C1658 C 0.61395 0.1914 0.48557 0.0
C1659 C 0.61336 0.17211 0.50087 0.0
C1660 C 0.62913 0.16144 0.51685 0.0
H1661 H 0.60431 0.06111 0.47236 0.0
H1662 H 0.61141 0.09372 0.47453 0.0
C1663 C 0.64592 0.16922 0.51659 0.0
C1664 C 0.59933 0.16081 0.49701 0.0
H1665 H 0.57068 0.12801 0.52695 0.0
C1666 C 0.60104 0.15663 0.47397 0.0
C1667 C 0.58692 0.15156 0.51603 0.0
C1668 C 0.58261 0.15708 0.54067 0.0
C1669 C 0.59247 0.14187 0.46989 0.0
C1670 C 0.58251 0.13058 0.48945 0.0
C1671 C 0.57888 0.13629 0.51206 0.0
C1672 C 0.57778 0.11143 0.48724 0.0
C1673 C 0.59489 0.13793 0.44479 0.0
C1674 C 0.55667 0.11046 0.4942 0.0
C1675 C 0.55268 0.0918 0.49316 0.0
C1676 C 0.56977 0.07382 0.4853 0.0
C1677 C 0.59085 0.07487 0.47822 0.0
C1678 C 0.59486 0.09348 0.47936 0.0
H1679 H 0.59529 0.15264 0.43155 0.0
H1680 H 0.61062 0.12457 0.44134 0.0
H1681 H 0.58129 0.13325 0.44198 0.0
H1682 H 0.54334 0.12411 0.50044 0.0
H1683 H 0.53621 0.09144 0.49837 0.0
H1684 H 0.77442 0.42616 0.27276 0.0
H1685 H 0.80958 0.39649 0.27019 0.0
H1686 H 0.83712 0.43897 0.21733 0.0
H1687 H 0.80203 0.46921 0.22107 0.0
H1688 H 0.82988 0.37653 0.23598 0.0
H1689 H 0.88572 0.41185 0.25722 0.0
H1690 H 0.85633 0.42484 0.2611 0.0
H1691 H 0.87167 0.42792 0.23209 0.0
C1692 C 0.78806 0.42925 0.26078 0.0
C1693 C 0.78551 0.44997 0.24707 0.0
C1694 C 0.8082 0.41224 0.25928 0.0
C1695 C 0.82626 0.41535 0.2437 0.0
C1696 C 0.82374 0.43616 0.22998 0.0
H1697 H 0.93227 0.2972 0.2058 0.0
H1698 H 0.90153 0.33192 0.20402 0.0
C1699 C 0.80363 0.45341 0.23194 0.0
C1700 C 0.84708 0.39637 0.24113 0.0
H1701 H 0.90253 0.37835 0.2427 0.0
C1702 C 0.84574 0.37698 0.23755 0.0
C1703 C 0.86786 0.39671 0.24339 0.0
C1704 C 0.8705 0.41637 0.24891 0.0
C1705 C 0.86427 0.35796 0.23657 0.0
C1706 C 0.88518 0.35848 0.23795 0.0
C1707 C 0.88662 0.37793 0.2413 0.0
C1708 C 0.90548 0.33873 0.23724 0.0
C1709 C 0.86092 0.3373 0.23516 0.0
C1710 C 0.91899 0.33159 0.25557 0.0
C1711 C 0.93702 0.31213 0.25611 0.0
C1712 C 0.94178 0.29926 0.23851 0.0
C1713 C 0.92883 0.30674 0.21971 0.0
C1714 C 0.91112 0.32648 0.21884 0.0
H1715 H 0.84378 0.33807 0.24172 0.0
H1716 H 0.86422 0.335 0.2163 0.0
H1717 H 0.8721 0.32287 0.24576 0.0
H1718 H 0.91515 0.34068 0.26996 0.0
H1719 H 0.94656 0.30662 0.27093 0.0
H1720 H 0.08561 0.59662 0.43135 0.0
H1721 H 0.09213 0.62979 0.43215 0.0
H1722 H 0.03543 0.64775 0.48435 0.0
H1723 H 0.02868 0.61453 0.48355 0.0
H1724 H 0.06472 0.67573 0.42505 0.0
H1725 H 0.0878 0.64232 0.5173 0.0
H1726 H 0.08535 0.62532 0.49889 0.0
H1727 H 0.0612 0.64455 0.5118 0.0
C1728 C 0.0743 0.6078 0.44269 0.0
C1729 C 0.05679 0.60288 0.45759 0.0
C1730 C 0.07802 0.62674 0.44311 0.0
C1731 C 0.06433 0.64106 0.45843 0.0
C1732 C 0.04628 0.63673 0.47261 0.0
H1733 H 0.12597 0.72151 0.49388 0.0
H1734 H 0.0938 0.71344 0.49033 0.0
C1735 C 0.04256 0.61772 0.47224 0.0
C1736 C 0.07052 0.65927 0.46089 0.0
H1737 H 0.09704 0.67228 0.49661 0.0
C1738 C 0.07132 0.67537 0.44088 0.0
C1739 C 0.07881 0.65888 0.4817 0.0
C1740 C 0.07841 0.64184 0.50367 0.0
C1741 C 0.08172 0.69014 0.44052 0.0
C1742 C 0.0919 0.68836 0.4605 0.0
C1743 C 0.08929 0.67357 0.48126 0.0
C1744 C 0.10852 0.69847 0.45905 0.0
C1745 C 0.08249 0.70688 0.41842 0.0
C1746 C 0.1272 0.69334 0.4422 0.0
C1747 C 0.14551 0.69801 0.44411 0.0
C1748 C 0.14558 0.70767 0.46307 0.0
C1749 C 0.12634 0.71418 0.47897 0.0
C1750 C 0.10797 0.70955 0.47701 0.0
H1751 H 0.06739 0.71217 0.40966 0.0
H1752 H 0.08433 0.72139 0.4225 0.0
H1753 H 0.09662 0.69953 0.40552 0.0
H1754 H 0.12825 0.68432 0.42853 0.0
H1755 H 0.16002 0.69306 0.43144 0.0
H1756 H 0.67604 0.03142 0.79096 0.0
H1757 H 0.64014 0.06116 0.79098 0.0
H1758 H 0.67274 0.10815 0.77621 0.0
H1759 H 0.70829 0.07883 0.7761 0.0
H1760 H 0.62181 0.09637 0.81948 0.0
H1761 H 0.6326 0.12721 0.72256 0.0
H1762 H 0.64865 0.10018 0.73599 0.0
H1763 H 0.65559 0.12324 0.7373 0.0
C1764 C 0.67546 0.04811 0.78782 0.0
C1765 C 0.69496 0.05281 0.78345 0.0
C1766 C 0.65499 0.06505 0.78783 0.0
C1767 C 0.6538 0.08688 0.78323 0.0
C1768 C 0.67327 0.09147 0.77939 0.0
H1769 H 0.56991 0.21838 0.77439 0.0
H1770 H 0.59879 0.18267 0.77514 0.0
C1771 C 0.69359 0.07465 0.77946 0.0
C1772 C 0.63242 0.10516 0.78237 0.0
H1773 H 0.60509 0.15165 0.74625 0.0
C1774 C 0.61788 0.10828 0.8034 0.0
C1775 C 0.62732 0.12062 0.76134 0.0
C1776 C 0.64174 0.11759 0.73794 0.0
C1777 C 0.59906 0.12716 0.80427 0.0
C1778 C 0.59457 0.14315 0.78348 0.0
C1779 C 0.60859 0.13947 0.76222 0.0
C1780 C 0.57657 0.1646 0.78375 0.0
C1781 C 0.58474 0.13044 0.82767 0.0
C1782 C 0.55439 0.16638 0.78828 0.0
C1783 C 0.53775 0.1869 0.78788 0.0
C1784 C 0.54308 0.20593 0.78289 0.0
C1785 C 0.56527 0.20403 0.77839 0.0
C1786 C 0.58181 0.18362 0.77875 0.0
H1787 H 0.59241 0.11831 0.84285 0.0
H1788 H 0.58121 0.14703 0.83117 0.0
H1789 H 0.56887 0.1288 0.82681 0.0
H1790 H 0.54994 0.15195 0.7918 0.0
H1791 H 0.52077 0.18789 0.79124 0.0
H1792 H 0.77918 0.55095 0.20634 0.0
H1793 H 0.77982 0.58102 0.17355 0.0
H1794 H 0.72226 0.57933 0.1512 0.0
H1795 H 0.72117 0.54963 0.18429 0.0
H1796 H 0.78353 0.58549 0.12552 0.0
H1797 H 0.70254 0.64242 0.15723 0.0
H1798 H 0.71636 0.61688 0.17527 0.0
H1799 H 0.7016 0.61755 0.15203 0.0
C1800 C 0.76671 0.55686 0.19439 0.0
C1801 C 0.75003 0.5479 0.19815 0.0
C1802 C 0.76708 0.57412 0.17561 0.0
C1803 C 0.75081 0.58288 0.16011 0.0
C1804 C 0.73465 0.57337 0.16325 0.0
H1805 H 0.72779 0.69764 0.04473 0.0
H1806 H 0.72741 0.66271 0.06951 0.0
C1807 C 0.73417 0.5562 0.18212 0.0
C1808 C 0.75075 0.60201 0.1409 0.0
H1809 H 0.72012 0.65481 0.12035 0.0
C1810 C 0.76962 0.60061 0.1244 0.0
C1811 C 0.73261 0.62184 0.13926 0.0
C1812 C 0.7122 0.62492 0.157 0.0
C1813 C 0.7709 0.61838 0.10655 0.0
C1814 C 0.75292 0.63827 0.10519 0.0
C1815 C 0.73386 0.63954 0.12127 0.0
C1816 C 0.75421 0.65839 0.08852 0.0
C1817 C 0.79152 0.61572 0.08924 0.0
C1818 C 0.76935 0.6676 0.09086 0.0
C1819 C 0.76959 0.6874 0.07671 0.0
C1820 C 0.7548 0.69843 0.05975 0.0
C1821 C 0.73985 0.68911 0.05707 0.0
C1822 C 0.73947 0.66931 0.07143 0.0
H1823 H 0.80092 0.59831 0.08812 0.0
H1824 H 0.78769 0.62476 0.07114 0.0
H1825 H 0.80219 0.62231 0.09536 0.0
H1826 H 0.78057 0.65982 0.10421 0.0
H1827 H 0.78108 0.69436 0.07944 0.0
H1828 H 0.97031 0.4871 0.44513 0.0
H1829 H 0.93831 0.48188 0.43636 0.0
H1830 H 0.89601 0.52881 0.48031 0.0
H1831 H 0.92819 0.5345 0.48877 0.0
H1832 H 0.90529 0.46858 0.46586 0.0
H1833 H 0.87205 0.55315 0.41608 0.0
H1834 H 0.89947 0.54173 0.42446 0.0
H1835 H 0.87635 0.55043 0.44642 0.0
C1836 C 0.95419 0.49645 0.45278 0.0
C1837 C 0.95165 0.51142 0.46736 0.0
C1838 C 0.93594 0.49327 0.44797 0.0
C1839 C 0.91479 0.50508 0.45752 0.0
C1840 C 0.91218 0.51978 0.47249 0.0
H1841 H 0.79995 0.5145 0.39726 0.0
H1842 H 0.82043 0.51496 0.42782 0.0
C1843 C 0.93052 0.52303 0.47728 0.0
C1844 C 0.89568 0.50265 0.45041 0.0
H1845 H 0.85457 0.52912 0.41521 0.0
C1846 C 0.89394 0.48189 0.45511 0.0
C1847 C 0.88083 0.52006 0.4365 0.0
C1848 C 0.88224 0.54259 0.43036 0.0
C1849 C 0.87838 0.47785 0.44531 0.0
C1850 C 0.86443 0.49498 0.43022 0.0
C1851 C 0.86527 0.51601 0.4268 0.0
C1852 C 0.85084 0.49123 0.41532 0.0
C1853 C 0.8774 0.45519 0.45078 0.0
C1854 C 0.86099 0.47737 0.39849 0.0
C1855 C 0.84939 0.47717 0.38094 0.0
C1856 C 0.82743 0.49098 0.37975 0.0
C1857 C 0.81693 0.50389 0.3975 0.0
C1858 C 0.82856 0.50406 0.41507 0.0
H1859 H 0.88286 0.44652 0.46845 0.0
H1860 H 0.86057 0.45551 0.45053 0.0
H1861 H 0.88862 0.44571 0.43716 0.0
H1862 H 0.87831 0.46775 0.3979 0.0
H1863 H 0.85807 0.46726 0.36738 0.0
H1864 H 0.13453 0.48223 0.67746 0.0
H1865 H 0.11569 0.48363 0.64483 0.0
H1866 H 0.14648 0.52701 0.59884 0.0
H1867 H 0.16555 0.52571 0.63173 0.0
H1868 H 0.10287 0.54136 0.59594 0.0
H1869 H 0.13816 0.45493 0.58661 0.0
H1870 H 0.12801 0.45725 0.61717 0.0
H1871 H 0.15025 0.46666 0.6028 0.0
C1872 C 0.1377 0.49172 0.6603 0.0
C1873 C 0.15175 0.50365 0.65712 0.0
C1874 C 0.12694 0.49247 0.64161 0.0
C1875 C 0.13011 0.50497 0.61921 0.0
C1876 C 0.14401 0.51705 0.61592 0.0
H1877 H 0.05308 0.48755 0.52314 0.0
H1878 H 0.08512 0.49107 0.53477 0.0
C1879 C 0.15479 0.51637 0.63472 0.0
C1880 C 0.1175 0.50641 0.60007 0.0
H1881 H 0.10122 0.47451 0.57531 0.0
C1882 C 0.10286 0.52681 0.59094 0.0
C1883 C 0.11792 0.48754 0.59289 0.0
C1884 C 0.13464 0.46541 0.60019 0.0
C1885 C 0.08723 0.52857 0.57669 0.0
C1886 C 0.08587 0.50938 0.57206 0.0
C1887 C 0.1019 0.48922 0.57924 0.0
C1888 C 0.06652 0.50945 0.56277 0.0
C1889 C 0.0719 0.55093 0.56741 0.0
C1890 C 0.04549 0.51853 0.57463 0.0
C1891 C 0.02731 0.51666 0.56794 0.0
C1892 C 0.02979 0.50536 0.54948 0.0
C1893 C 0.05075 0.49642 0.53737 0.0
C1894 C 0.06901 0.49844 0.54399 0.0
H1895 H 0.08027 0.56306 0.56361 0.0
H1896 H 0.06561 0.5512 0.55092 0.0
H1897 H 0.05778 0.55608 0.58123 0.0
H1898 H 0.04317 0.52649 0.58966 0.0
H1899 H 0.01133 0.52377 0.57756 0.0
H1900 H 0.53317 0.73746 0.18564 0.0
H1901 H 0.56159 0.74042 0.15254 0.0
H1902 H 0.5616 0.7981 0.17283 0.0
H1903 H 0.53326 0.79526 0.2061 0.0
H1904 H 0.56294 0.77546 0.11344 0.0
H1905 H 0.62602 0.7558 0.17374 0.0
H1906 H 0.6005 0.75089 0.18378 0.0
H1907 H 0.60106 0.77797 0.17948 0.0
C1908 C 0.53905 0.7509 0.18299 0.0
C1909 C 0.53101 0.76604 0.19869 0.0
C1910 C 0.5553 0.75257 0.16402 0.0
C1911 C 0.56394 0.76927 0.16045 0.0
C1912 C 0.55539 0.78487 0.1755 0.0
H1913 H 0.6763 0.79125 0.06686 0.0
H1914 H 0.64305 0.79501 0.09514 0.0
C1915 C 0.53909 0.78328 0.19445 0.0
C1916 C 0.58238 0.76991 0.14148 0.0
H1917 H 0.63654 0.76449 0.1326 0.0
C1918 C 0.57903 0.7731 0.11758 0.0
C1919 C 0.60336 0.76682 0.14696 0.0
C1920 C 0.60812 0.76249 0.17237 0.0
C1921 C 0.59607 0.77349 0.09896 0.0
C1922 C 0.61713 0.77015 0.10446 0.0
C1923 C 0.62039 0.76714 0.12837 0.0
C1924 C 0.63625 0.76902 0.08584 0.0
C1925 C 0.59124 0.7778 0.07359 0.0
C1926 C 0.64349 0.7532 0.07111 0.0
C1927 C 0.66243 0.75107 0.05482 0.0
C1928 C 0.67474 0.76456 0.05308 0.0
C1929 C 0.66726 0.7806 0.06764 0.0
C1930 C 0.64825 0.78276 0.08387 0.0
H1931 H 0.57347 0.78645 0.0721 0.0
H1932 H 0.60054 0.78764 0.06157 0.0
H1933 H 0.59613 0.76206 0.06737 0.0
H1934 H 0.63485 0.74204 0.07268 0.0
H1935 H 0.66773 0.7384 0.04409 0.0
H1936 H 0.6821 0.49463 0.13318 0.0
H1937 H 0.66491 0.49356 0.10009 0.0
H1938 H 0.60574 0.54377 0.12286 0.0
H1939 H 0.62308 0.5455 0.15534 0.0
H1940 H 0.63071 0.48063 0.10853 0.0
H1941 H 0.60728 0.56157 0.0519 0.0
H1942 H 0.6269 0.55358 0.07294 0.0
H1943 H 0.59786 0.56435 0.08244 0.0
C1944 C 0.66573 0.50603 0.13059 0.0
C1945 C 0.65385 0.52 0.14703 0.0
C1946 C 0.65589 0.50533 0.11172 0.0
C1947 C 0.63408 0.51867 0.10885 0.0
C1948 C 0.62272 0.53362 0.12434 0.0
H1949 H 0.51748 0.52218 0.07534 0.0
H1950 H 0.54933 0.52767 0.08407 0.0
C1951 C 0.63255 0.53437 0.14315 0.0
C1952 C 0.62193 0.51454 0.09262 0.0
H1953 H 0.58351 0.54058 0.05414 0.0
C1954 C 0.62087 0.49359 0.09605 0.0
C1955 C 0.60912 0.53143 0.07632 0.0
C1956 C 0.61056 0.55391 0.07054 0.0
C1957 C 0.60596 0.48953 0.08527 0.0
C1958 C 0.59197 0.50684 0.07041 0.0
C1959 C 0.59415 0.52738 0.06562 0.0
C1960 C 0.57296 0.50471 0.06273 0.0
C1961 C 0.60413 0.46717 0.0913 0.0
C1962 C 0.57566 0.49026 0.04743 0.0
C1963 C 0.55738 0.48707 0.04238 0.0
C1964 C 0.53626 0.49819 0.05274 0.0
C1965 C 0.53361 0.5131 0.06744 0.0
C1966 C 0.55177 0.51641 0.07227 0.0
H1967 H 0.6142 0.4564 0.10559 0.0
H1968 H 0.58679 0.46839 0.09714 0.0
H1969 H 0.60981 0.45939 0.07521 0.0
H1970 H 0.59188 0.48131 0.03962 0.0
H1971 H 0.55978 0.47568 0.03077 0.0
H1972 H 0.38671 0.4326 0.05375 0.0
H1973 H 0.37424 0.40868 0.03876 0.0
H1974 H 0.43325 0.39247 0.9894 0.0
H1975 H 0.44618 0.41598 1.00456 0.0
H1976 H 0.38613 0.40957 0.97186 0.0
H1977 H 0.4059 0.33798 0.04476 0.0
H1978 H 0.39423 0.36418 0.054 0.0
H1979 H 0.4208 0.35672 0.0369 0.0
C1980 C 0.39728 0.42362 0.04007 0.0
C1981 C 0.4175 0.42612 0.03046 0.0
C1982 C 0.39005 0.41013 0.03141 0.0
C1983 C 0.40289 0.39898 0.01302 0.0
C1984 C 0.42316 0.40112 1.00352 0.0
H1985 H 0.3446 0.30969 0.99326 0.0
H1986 H 0.374 0.32472 0.98543 0.0
C1987 C 0.43047 0.41453 1.01225 0.0
C1988 C 0.39449 0.38562 1.00348 0.0
H1989 H 0.37876 0.34135 0.0211 0.0
C1990 C 0.38493 0.39435 0.98221 0.0
C1991 C 0.39343 0.36567 0.01687 0.0
C1992 C 0.40428 0.35541 0.03933 0.0
C1993 C 0.37253 0.38444 0.97507 0.0
C1994 C 0.3696 0.36561 0.98979 0.0
C1995 C 0.38093 0.35587 1.00986 0.0
C1996 C 0.35225 0.35778 0.98736 0.0
C1997 C 0.36189 0.39473 0.95249 0.0
C1998 C 0.33026 0.37157 0.99013 0.0
C1999 C 0.31342 0.36306 0.99456 0.0
C2000 C 0.31834 0.3406 0.99645 0.0
C2001 C 0.34028 0.32711 0.99174 0.0
C2002 C 0.35712 0.33564 0.98729 0.0
H2003 H 0.37185 0.40322 0.93929 0.0
H2004 H 0.35962 0.38245 0.94434 0.0
H2005 H 0.34557 0.40706 0.95666 0.0
H2006 H 0.32615 0.38862 0.99074 0.0
H2007 H 0.29664 0.37384 0.99784 0.0
H2008 H 0.07109 0.21738 0.27561 0.0
H2009 H 0.09924 0.18147 0.27483 0.0
H2010 H 0.04922 0.15252 0.28757 0.0
H2011 H 0.02066 0.18878 0.28839 0.0
H2012 H 0.08541 0.13084 0.31719 0.0
H2013 H 0.11487 0.14504 0.22096 0.0
H2014 H 0.11253 0.16651 0.23591 0.0
H2015 H 0.08831 0.16138 0.23368 0.0
C2016 C 0.066 0.20341 0.27821 0.0
C2017 C 0.04366 0.20589 0.28203 0.0
C2018 C 0.08214 0.18289 0.27764 0.0
C2019 C 0.07635 0.16434 0.28084 0.0
C2020 C 0.05403 0.16665 0.28493 0.0
H2021 H 0.17533 0.03045 0.29113 0.0
H2022 H 0.13936 0.05996 0.29075 0.0
C2023 C 0.03777 0.18733 0.28537 0.0
C2024 C 0.09393 0.14269 0.28031 0.0
H2025 H 0.13952 0.11593 0.2455 0.0
C2026 C 0.09702 0.12731 0.30142 0.0
C2027 C 0.10901 0.13812 0.25968 0.0
C2028 C 0.10595 0.15354 0.2362 0.0
C2029 C 0.11561 0.10811 0.30284 0.0
C2030 C 0.13131 0.10415 0.28253 0.0
C2031 C 0.12756 0.11903 0.26111 0.0
C2032 C 0.15272 0.08588 0.28356 0.0
C2033 C 0.11897 0.09283 0.32637 0.0
C2034 C 0.17213 0.09062 0.27948 0.0
C2035 C 0.19253 0.07391 0.27962 0.0
C2036 C 0.19405 0.05202 0.28375 0.0
C2037 C 0.17464 0.04717 0.28802 0.0
C2038 C 0.1541 0.064 0.28788 0.0
H2039 H 0.10704 0.09988 0.34121 0.0
H2040 H 0.11694 0.0775 0.32513 0.0
H2041 H 0.13584 0.08866 0.33068 0.0
H2042 H 0.17149 0.10735 0.27609 0.0
H2043 H 0.20717 0.07819 0.2762 0.0
H2044 H 0.25085 0.30639 0.9865 0.0
H2045 H 0.25206 0.34155 0.96291 0.0
H2046 H 0.20664 0.34166 0.91887 0.0
H2047 H 0.20567 0.30674 0.94203 0.0
H2048 H 0.26379 0.34912 0.90914 0.0
H2049 H 0.18086 0.40341 0.93983 0.0
H2050 H 0.19501 0.37762 0.95742 0.0
H2051 H 0.18198 0.37837 0.93272 0.0
C2052 C 0.24094 0.31415 0.97202 0.0
C2053 C 0.22812 0.30391 0.9662 0.0
C2054 C 0.24168 0.33415 0.9585 0.0
C2055 C 0.22924 0.34435 0.93925 0.0
C2056 C 0.21614 0.33427 0.9338 0.0
H2057 H 0.2035 0.45306 0.82421 0.0
H2058 H 0.2033 0.42268 0.85671 0.0
C2059 C 0.21565 0.31427 0.94704 0.0
C2060 C 0.23061 0.36489 0.9238 0.0
H2061 H 0.19928 0.41753 0.90421 0.0
C2062 C 0.24985 0.36422 0.90829 0.0
C2063 C 0.21231 0.38446 0.92254 0.0
C2064 C 0.19138 0.38619 0.93912 0.0
C2065 C 0.25096 0.38229 0.8908 0.0
C2066 C 0.23247 0.40184 0.88922 0.0
C2067 C 0.21346 0.40264 0.9053 0.0
C2068 C 0.23211 0.42121 0.87029 0.0
C2069 C 0.27154 0.3798 0.87341 0.0
C2070 C 0.24798 0.43104 0.86734 0.0
C2071 C 0.24826 0.44833 0.84857 0.0
C2072 C 0.2324 0.45648 0.83255 0.0
C2073 C 0.21594 0.44727 0.83619 0.0
C2074 C 0.21583 0.42983 0.8548 0.0
H2075 H 0.28157 0.36241 0.87293 0.0
H2076 H 0.26757 0.388 0.85512 0.0
H2077 H 0.28171 0.38732 0.87893 0.0
H2078 H 0.26034 0.42521 0.87942 0.0
H2079 H 0.26107 0.45513 0.84648 0.0
H2080 H 0.29466 0.21887 0.94959 0.0
H2081 H 0.3278 0.21509 0.92104 0.0
H2082 H 0.35018 0.24741 0.96143 0.0
H2083 H 0.31724 0.25126 0.99006 0.0
H2084 H 0.33983 0.2518 0.89446 0.0
H2085 H 0.40449 0.19233 0.94874 0.0
H2086 H 0.37586 0.19526 0.9563 0.0
H2087 H 0.38562 0.21473 0.96261 0.0
C2088 C 0.30678 0.22485 0.95266 0.0
C2089 C 0.30323 0.23538 0.97216 0.0
C2090 C 0.32568 0.22273 0.93627 0.0
C2091 C 0.34151 0.23079 0.93926 0.0
C2092 C 0.33832 0.24078 0.959 0.0
H2093 H 0.43876 0.27066 0.83833 0.0
H2094 H 0.40977 0.26685 0.87034 0.0
C2095 C 0.31938 0.24306 0.97528 0.0
C2096 C 0.36055 0.23027 0.92083 0.0
H2097 H 0.41659 0.21067 0.91156 0.0
C2098 C 0.3566 0.24268 0.89813 0.0
C2099 C 0.3824 0.21832 0.92569 0.0
C2100 C 0.38745 0.20424 0.94959 0.0
C2101 C 0.37396 0.24388 0.88031 0.0
C2102 C 0.3958 0.23241 0.88536 0.0
C2103 C 0.39979 0.21955 0.90785 0.0
C2104 C 0.41461 0.23389 0.86741 0.0
C2105 C 0.36889 0.25748 0.85618 0.0
C2106 C 0.42726 0.21638 0.85562 0.0
C2107 C 0.44383 0.21849 0.83721 0.0
C2108 C 0.44811 0.23813 0.83044 0.0
C2109 C 0.43593 0.25531 0.84303 0.0
C2110 C 0.4193 0.25322 0.8613 0.0
H2111 H 0.35134 0.2623 0.85384 0.0
H2112 H 0.37278 0.2725 0.85413 0.0
H2113 H 0.37917 0.24843 0.84179 0.0
H2114 H 0.42387 0.20132 0.86017 0.0
H2115 H 0.45291 0.20493 0.82793 0.0
H2116 H 0.43323 0.53239 0.99167 0.0
H2117 H 0.39984 0.53063 0.98095 0.0
H2118 H 0.43951 0.47787 0.94338 0.0
H2119 H 0.47271 0.4798 0.95358 0.0
H2120 H 0.3946 0.53545 0.92996 0.0
H2121 H 0.38824 0.45777 0.98373 0.0
H2122 H 0.39932 0.47448 0.99396 0.0
H2123 H 0.41547 0.4577 0.97218 0.0
C2124 C 0.43472 0.52037 0.98125 0.0
C2125 C 0.45548 0.50646 0.9731 0.0
C2126 C 0.4157 0.51927 0.97531 0.0
C2127 C 0.41724 0.50392 0.96167 0.0
C2128 C 0.43796 0.48959 0.95424 0.0
H2129 H 0.3602 0.4668 0.87133 0.0
H2130 H 0.37904 0.47028 0.9015 0.0
C2131 C 0.45691 0.49091 0.9598 0.0
C2132 C 0.39775 0.50445 0.95239 0.0
H2133 H 0.36945 0.47215 0.94947 0.0
C2134 C 0.38865 0.5219 0.93458 0.0
C2135 C 0.39015 0.4867 0.95847 0.0
C2136 C 0.39865 0.4681 0.97826 0.0
C2137 C 0.37333 0.52131 0.92137 0.0
C2138 C 0.36659 0.50296 0.92659 0.0
C2139 C 0.37468 0.48615 0.94546 0.0
C2140 C 0.3535 0.49967 0.9108 0.0
C2141 C 0.36574 0.53959 0.90085 0.0
C2142 C 0.3325 0.51457 0.90665 0.0
C2143 C 0.32179 0.51279 0.88911 0.0
C2144 C 0.33188 0.49596 0.87561 0.0
C2145 C 0.35222 0.48022 0.88104 0.0
C2146 C 0.36292 0.48208 0.89842 0.0
H2147 H 0.37565 0.55039 0.89651 0.0
H2148 H 0.36667 0.53304 0.88464 0.0
H2149 H 0.34841 0.54964 0.90559 0.0
H2150 H 0.32473 0.528 0.91638 0.0
H2151 H 0.30614 0.52518 0.88537 0.0
H2152 H 0.64224 0.68403 0.05116 0.0
H2153 H 0.61132 0.67069 0.06415 0.0
H2154 H 0.61238 0.66323 0.9921 0.0
H2155 H 0.64316 0.676 0.97916 0.0
H2156 H 0.56841 0.68227 0.01831 0.0
H2157 H 0.62265 0.60464 0.06676 0.0
H2158 H 0.61988 0.63053 0.07324 0.0
H2159 H 0.63465 0.62253 0.04558 0.0
C2160 C 0.63578 0.67958 0.03814 0.0
C2161 C 0.64517 0.68098 0.01414 0.0
C2162 C 0.61807 0.67215 0.04556 0.0
C2163 C 0.60962 0.66607 0.02904 0.0
C2164 C 0.61852 0.66815 1.00504 0.0
H2165 H 0.56739 0.60275 0.96621 0.0
H2166 H 0.57092 0.63024 0.98446 0.0
C2167 C 0.63613 0.67545 0.99766 0.0
C2168 C 0.59319 0.65526 0.03633 0.0
H2169 H 0.59356 0.60325 0.0508 0.0
C2170 C 0.57339 0.66516 0.02629 0.0
C2171 C 0.59947 0.63313 0.04724 0.0
C2172 C 0.62029 0.62194 0.0589 0.0
C2173 C 0.56136 0.65272 0.02383 0.0
C2174 C 0.56965 0.62992 0.03129 0.0
C2175 C 0.58748 0.62069 0.04466 0.0
C2176 C 0.56376 0.61511 0.02082 0.0
C2177 C 0.54101 0.66387 1.0114 0.0
C2178 C 0.55899 0.59721 0.03515 0.0
C2179 C 0.55734 0.58128 0.02466 0.0
C2180 C 0.56051 0.58296 0.99974 0.0
C2181 C 0.56467 0.60117 0.98545 0.0
C2182 C 0.56643 0.61701 0.9959 0.0
H2183 H 0.53126 0.67966 0.01739 0.0
H2184 H 0.54584 0.66747 0.99192 0.0
H2185 H 0.53054 0.6537 0.01474 0.0
H2186 H 0.55713 0.5953 0.05439 0.0
H2187 H 0.5536 0.56761 0.03601 0.0
H2188 H 0.95822 0.81697 0.73785 0.0
H2189 H 0.92872 0.85283 0.73454 0.0
H2190 H 0.88062 0.82146 0.74757 0.0
H2191 H 0.9098 0.78587 0.75077 0.0
H2192 H 0.875 0.85615 0.70786 0.0
H2193 H 0.88429 0.88048 0.78949 0.0
H2194 H 0.90844 0.8721 0.76855 0.0
H2195 H 0.89603 0.85262 0.78463 0.0
C2196 C 0.94133 0.8178 0.74 0.0
C2197 C 0.93631 0.79863 0.74453 0.0
C2198 C 0.92451 0.83826 0.73825 0.0
C2199 C 0.90243 0.83982 0.74102 0.0
C2200 C 0.89751 0.82067 0.7454 0.0
H2201 H 0.76991 0.92488 0.74714 0.0
H2202 H 0.80556 0.89584 0.74426 0.0
C2203 C 0.91422 0.80032 0.74722 0.0
C2204 C 0.88423 0.86124 0.73897 0.0
H2205 H 0.85534 0.90436 0.76781 0.0
C2206 C 0.87085 0.8668 0.72083 0.0
C2207 C 0.8789 0.87523 0.75578 0.0
C2208 C 0.89252 0.86987 0.77584 0.0
C2209 C 0.85196 0.88558 0.71944 0.0
C2210 C 0.84598 0.899 0.73694 0.0
C2211 C 0.85989 0.89402 0.75446 0.0
C2212 C 0.82444 0.91706 0.73848 0.0
C2213 C 0.8384 0.89073 0.69936 0.0
C2214 C 0.82311 0.93869 0.73675 0.0
C2215 C 0.8026 0.95544 0.73841 0.0
C2216 C 0.78313 0.95075 0.74209 0.0
C2217 C 0.78458 0.92907 0.74407 0.0
C2218 C 0.80498 0.91243 0.74234 0.0
H2219 H 0.84839 0.88325 0.6838 0.0
H2220 H 0.82495 0.88402 0.70557 0.0
H2221 H 0.83098 0.90858 0.69349 0.0
H2222 H 0.83792 0.94261 0.73398 0.0
H2223 H 0.80196 0.97199 0.737 0.0
H2224 H 0.45165 0.17194 0.66467 0.0
H2225 H 0.45054 0.15368 0.63339 0.0
H2226 H 0.516 0.15174 0.60351 0.0
H2227 H 0.51731 0.16986 0.63499 0.0
H2228 H 0.45525 0.16329 0.58405 0.0
H2229 H 0.5223 0.08787 0.61643 0.0
H2230 H 0.50897 0.10965 0.63338 0.0
H2231 H 0.52934 0.11204 0.60851 0.0
C2232 C 0.46569 0.16794 0.65124 0.0
C2233 C 0.48464 0.17219 0.65241 0.0
C2234 C 0.46506 0.15745 0.6334 0.0
C2235 C 0.48333 0.151 0.61638 0.0
C2236 C 0.50191 0.15612 0.61681 0.0
H2237 H 0.50742 0.06447 0.51514 0.0
H2238 H 0.50914 0.09266 0.53396 0.0
C2239 C 0.50262 0.16649 0.63477 0.0
C2240 C 0.48314 0.13804 0.59898 0.0
H2241 H 0.50745 0.08784 0.58288 0.0
C2242 C 0.46674 0.14683 0.58368 0.0
C2243 C 0.49816 0.11656 0.59853 0.0
C2244 C 0.51558 0.10584 0.6152 0.0
C2245 C 0.4648 0.13464 0.56811 0.0
C2246 C 0.47947 0.11303 0.56811 0.0
C2247 C 0.49625 0.10446 0.58289 0.0
C2248 C 0.47703 0.09839 0.55412 0.0
C2249 C 0.44706 0.14496 0.55185 0.0
C2250 C 0.45826 0.09248 0.55898 0.0
C2251 C 0.45734 0.07617 0.54847 0.0
C2252 C 0.47525 0.06539 0.53301 0.0
C2253 C 0.49351 0.0722 0.52721 0.0
C2254 C 0.49448 0.0884 0.53783 0.0
H2255 H 0.44155 0.16302 0.54892 0.0
H2256 H 0.45279 0.13951 0.53431 0.0
H2257 H 0.43268 0.14008 0.56011 0.0
H2258 H 0.44477 0.09968 0.57185 0.0
H2259 H 0.44304 0.07131 0.55343 0.0
H2260 H 0.49817 0.30785 0.9018 0.0
H2261 H 0.50129 0.32528 0.93302 0.0
H2262 H 0.48485 0.38714 0.8856 0.0
H2263 H 0.48192 0.36996 0.85438 0.0
H2264 H 0.52988 0.34797 0.93057 0.0
H2265 H 0.44323 0.40208 0.94601 0.0
H2266 H 0.4512 0.37822 0.9324 0.0
H2267 H 0.45419 0.40303 0.91519 0.0
C2268 C 0.49515 0.32518 0.89806 0.0
C2269 C 0.48962 0.33753 0.87561 0.0
C2270 C 0.49684 0.33512 0.91595 0.0
C2271 C 0.4929 0.35757 0.91177 0.0
C2272 C 0.48736 0.3699 0.88945 0.0
H2273 H 0.5346 0.44183 0.96341 0.0
H2274 H 0.53223 0.41362 0.9452 0.0
C2275 C 0.48568 0.36003 0.8716 0.0
C2276 C 0.4958 0.36809 0.93008 0.0
H2277 H 0.46992 0.41075 0.96003 0.0
C2278 C 0.5167 0.36149 0.93731 0.0
C2279 C 0.47852 0.38551 0.93913 0.0
C2280 C 0.45546 0.39253 0.93301 0.0
C2281 C 0.52108 0.37266 0.95232 0.0
C2282 C 0.50417 0.39101 0.96003 0.0
C2283 C 0.48296 0.39681 0.9539 0.0
C2284 C 0.50829 0.4054 0.97303 0.0
C2285 C 0.54383 0.36489 0.95952 0.0
C2286 C 0.49587 0.40996 0.99489 0.0
C2287 C 0.49695 0.42631 1.00518 0.0
C2288 C 0.51062 0.4383 0.99385 0.0
C2289 C 0.52408 0.43276 0.97271 0.0
C2290 C 0.52278 0.41658 0.9623 0.0
H2291 H 0.55257 0.34733 0.95868 0.0
H2292 H 0.55347 0.37414 0.94706 0.0
H2293 H 0.54331 0.36752 0.97784 0.0
H2294 H 0.48481 0.40134 1.00359 0.0
H2295 H 0.48644 0.4301 0.02154 0.0
H2296 H 0.47341 0.81595 0.4025 0.0
H2297 H 0.47217 0.83393 0.43529 0.0
H2298 H 0.47563 0.89086 0.38469 0.0
H2299 H 0.47707 0.8731 0.35202 0.0
H2300 H 0.50391 0.84881 0.44233 0.0
H2301 H 0.42481 0.91673 0.43377 0.0
H2302 H 0.43237 0.89328 0.41961 0.0
H2303 H 0.44227 0.91528 0.40594 0.0
C2304 C 0.47381 0.83234 0.39839 0.0
C2305 C 0.47519 0.84314 0.37461 0.0
C2306 C 0.473 0.84261 0.41714 0.0
C2307 C 0.47343 0.86386 0.41244 0.0
C2308 C 0.47467 0.87468 0.38878 0.0
H2309 H 0.51925 0.93736 0.47547 0.0
H2310 H 0.51521 0.91028 0.45675 0.0
C2311 C 0.47548 0.86448 0.37009 0.0
C2312 C 0.47418 0.87437 0.43189 0.0
H2313 H 0.4504 0.92161 0.45438 0.0
C2314 C 0.49202 0.86457 0.44527 0.0
C2315 C 0.45851 0.89478 0.43595 0.0
C2316 C 0.43829 0.90552 0.42322 0.0
C2317 C 0.49532 0.87528 0.46152 0.0
C2318 C 0.48052 0.89636 0.46425 0.0
C2319 C 0.46193 0.90555 0.45202 0.0
C2320 C 0.48471 0.90993 0.47825 0.0
C2321 C 0.51484 0.86411 0.47531 0.0
C2322 C 0.4691 0.91846 0.49679 0.0
C2323 C 0.47141 0.93388 0.50758 0.0
C2324 C 0.4892 0.94134 0.49973 0.0
C2325 C 0.50544 0.93189 0.48204 0.0
C2326 C 0.50316 0.91637 0.47133 0.0
H2327 H 0.5205 0.84614 0.47681 0.0
H2328 H 0.52857 0.86959 0.46584 0.0
H2329 H 0.51092 0.86823 0.49348 0.0
H2330 H 0.45475 0.91371 0.50235 0.0
H2331 H 0.45883 0.94058 0.52145 0.0
H2332 H 0.5172 0.55888 0.02612 0.0
H2333 H 0.51395 0.58812 0.04636 0.0
H2334 H 0.44402 0.60325 0.06104 0.0
H2335 H 0.44717 0.57323 0.04181 0.0
H2336 H 0.49353 0.63104 0.04168 0.0
H2337 H 0.46053 0.59045 0.12704 0.0
H2338 H 0.47109 0.57754 0.10112 0.0
H2339 H 0.44387 0.59747 0.10348 0.0
C2340 C 0.50105 0.56859 0.03334 0.0
C2341 C 0.48243 0.56357 0.03264 0.0
C2342 C 0.49927 0.58532 0.04488 0.0
C2343 C 0.47888 0.59753 0.05566 0.0
C2344 C 0.46003 0.59361 0.05346 0.0
H2345 H 0.4501 0.68692 0.15478 0.0
H2346 H 0.44678 0.66952 0.12378 0.0
C2347 C 0.46182 0.57656 0.04232 0.0
C2348 C 0.47782 0.61326 0.07046 0.0
H2349 H 0.46408 0.62383 0.1273 0.0
C2350 C 0.48692 0.62957 0.06036 0.0
C2351 C 0.46948 0.61116 0.09494 0.0
C2352 C 0.46089 0.5931 0.10738 0.0
C2353 C 0.48789 0.6438 0.07408 0.0
C2354 C 0.47966 0.64157 0.09851 0.0
C2355 C 0.47019 0.6256 0.10848 0.0
C2356 C 0.48176 0.65466 0.1146 0.0
C2357 C 0.49783 0.66099 0.06233 0.0
C2358 C 0.50255 0.6523 0.11945 0.0
C2359 C 0.5045 0.66217 0.1372 0.0
C2360 C 0.48568 0.67461 0.15038 0.0
C2361 C 0.4649 0.67766 0.14476 0.0
C2362 C 0.46296 0.66766 0.12714 0.0
H2363 H 0.49629 0.6655 0.04295 0.0
H2364 H 0.48995 0.67591 0.07046 0.0
H2365 H 0.51556 0.65447 0.0645 0.0
H2366 H 0.51725 0.64208 0.11019 0.0
H2367 H 0.52072 0.65966 0.14102 0.0
loop_
_geom_bond_atom_site_label_1
_geom_bond_atom_site_label_2
_geom_bond_distance
_geom_bond_site_symmetry_2
_ccdc_geom_bond_type
Sm0 C2 2.846 . S
Sm0 O20 2.543 . S
Sm0 O21 2.450 . S
Sm0 O22 2.681 1_655 S
Sm0 O23 2.464 1_655 S
Sm0 O24 2.396 1_654 S
Sm0 O28 2.386 1_564 S
Sm0 O31 2.408 1_565 S
Sm1 C11 2.846 . S
Sm1 O22 2.386 1_546 S
Sm1 O25 2.408 1_545 S
Sm1 O26 2.543 . S
Sm1 O27 2.450 . S
Sm1 O28 2.681 1_455 S
Sm1 O29 2.464 1_455 S
Sm1 O30 2.396 1_456 S
C2 Sm0 2.846 . S
C2 C3 1.506 . S
C2 O20 1.261 . S
C2 O21 1.242 . S
C3 C2 1.506 . S
C3 C4 1.358 . S
C3 C8 1.382 . S
C4 C3 1.358 . S
C4 C5 1.385 . S
C4 H32 0.930 1_554 S
C5 C4 1.385 . S
C5 C6 1.395 . S
C5 H33 0.923 1_554 S
C6 C5 1.395 . S
C6 C7 1.335 . S
C7 C6 1.335 . S
C7 C8 1.398 . S
C7 H34 0.930 . S
C8 C3 1.382 . S
C8 C7 1.398 . S
C8 H35 0.929 . S
C9 O22 1.271 . S
C9 O23 1.251 . S
C10 O24 1.252 . S
C10 O25 1.272 . S
C11 Sm1 2.846 . S
C11 C12 1.506 . S
C11 O26 1.261 . S
C11 O27 1.242 . S
C12 C11 1.506 . S
C12 C13 1.358 . S
C12 C17 1.382 . S
C13 C12 1.358 . S
C13 C14 1.385 . S
C13 H36 0.930 1_556 S
C14 C13 1.385 . S
C14 C15 1.395 . S
C14 H37 0.899 1_556 S
C15 C14 1.395 . S
C15 C16 1.335 . S
C16 C15 1.335 . S
C16 C17 1.398 . S
C16 H38 0.930 . S
C17 C12 1.382 . S
C17 C16 1.398 . S
C17 H39 0.929 . S
C18 O28 1.271 . S
C18 O29 1.251 . S
C19 O30 1.252 . S
C19 O31 1.272 . S
O20 Sm0 2.543 . S
O20 C2 1.261 . S
O21 Sm0 2.450 . S
O21 C2 1.242 . S
O22 Sm0 2.681 1_455 S
O22 Sm1 2.386 1_564 S
O22 C9 1.271 . S
O23 Sm0 2.464 1_455 S
O23 C9 1.251 . S
O24 Sm0 2.396 1_456 S
O24 C10 1.252 . S
O25 Sm1 2.408 1_565 S
O25 C10 1.272 . S
O26 Sm1 2.543 . S
O26 C11 1.261 . S
O27 Sm1 2.450 . S
O27 C11 1.242 . S
O28 Sm0 2.386 1_546 S
O28 Sm1 2.681 1_655 S
O28 C18 1.271 . S
O29 Sm1 2.464 1_655 S
O29 C18 1.251 . S
O30 Sm1 2.396 1_654 S
O30 C19 1.252 . S
O31 Sm0 2.408 1_545 S
O31 C19 1.272 . S
H32 C4 0.930 1_556 S
H33 C5 0.923 1_556 S
H34 C7 0.930 . S
H35 C8 0.929 . S
H36 C13 0.930 1_554 S
H37 C14 0.899 1_554 S
H38 C16 0.930 . S
H39 C17 0.929 . S
Sm40 C42 2.846 . S
Sm40 O60 2.543 1_455 S
Sm40 O61 2.450 . S
Sm40 O62 2.681 . S
Sm40 O63 2.464 . S
Sm40 O64 2.396 1_455 S
Sm40 O68 2.386 1_455 S
Sm40 O71 2.408 . S
Sm41 C51 2.846 . S
Sm41 O62 2.386 1_655 S
Sm41 O65 2.408 . S
Sm41 O66 2.543 1_655 S
Sm41 O67 2.450 . S
Sm41 O68 2.681 . S
Sm41 O69 2.464 . S
Sm41 O70 2.396 1_655 S
C42 Sm40 2.846 . S
C42 C43 1.506 . S
C42 O60 1.261 1_455 S
C42 O61 1.242 . S
C43 C42 1.506 . S
C43 C44 1.358 1_455 S
C43 C48 1.382 . S
C44 C43 1.358 1_655 S
C44 C45 1.385 . S
C44 H72 0.930 . S
C45 C44 1.385 . S
C45 C46 1.395 . S
C45 H73 0.929 . S
C46 C45 1.395 . S
C46 C47 1.335 1_655 S
C47 C46 1.335 1_455 S
C47 C48 1.398 . S
C47 H74 0.930 . S
C48 C43 1.382 . S
C48 C47 1.398 . S
C48 H75 0.929 . S
C49 O62 1.271 . S
C49 O63 1.251 . S
C50 O64 1.252 . S
C50 O65 1.272 . S
C51 Sm41 2.846 . S
C51 C52 1.506 . S
C51 O66 1.261 1_655 S
C51 O67 1.242 . S
C52 C51 1.506 . S
C52 C53 1.358 1_655 S
C52 C57 1.382 . S
C53 C52 1.358 1_455 S
C53 C54 1.385 . S
C53 H76 0.930 . S
C54 C53 1.385 . S
C54 C55 1.395 . S
C54 H77 0.929 . S
C55 C54 1.395 . S
C55 C56 1.335 1_455 S
C56 C55 1.335 1_655 S
C56 C57 1.398 . S
C56 H78 0.930 . S
C57 C52 1.382 . S
C57 C56 1.398 . S
C57 H79 0.929 . S
C58 O68 1.271 . S
C58 O69 1.251 . S
C59 O70 1.252 . S
C59 O71 1.272 . S
O60 Sm40 2.543 1_655 S
O60 C42 1.261 1_655 S
O61 Sm40 2.450 . S
O61 C42 1.242 . S
O62 Sm40 2.681 . S
O62 Sm41 2.386 1_455 S
O62 C49 1.271 . S
O63 Sm40 2.464 . S
O63 C49 1.251 . S
O64 Sm40 2.396 1_655 S
O64 C50 1.252 . S
O65 Sm41 2.408 . S
O65 C50 1.272 . S
O66 Sm41 2.543 1_455 S
O66 C51 1.261 1_455 S
O67 Sm41 2.450 . S
O67 C51 1.242 . S
O68 Sm40 2.386 1_655 S
O68 Sm41 2.681 . S
O68 C58 1.271 . S
O69 Sm41 2.464 . S
O69 C58 1.251 . S
O70 Sm41 2.396 1_455 S
O70 C59 1.252 . S
O71 Sm40 2.408 . S
O71 C59 1.272 . S
H72 C44 0.930 . S
H73 C45 0.929 . S
H74 C47 0.930 . S
H75 C48 0.929 . S
H76 C53 0.930 . S
H77 C54 0.929 . S
H78 C56 0.930 . S
H79 C57 0.929 . S
Sm80 C82 2.846 . S
Sm80 O100 2.543 . S
Sm80 O101 2.450 . S
Sm80 O102 2.681 . S
Sm80 O103 2.464 . S
Sm80 O104 2.396 . S
Sm80 O108 2.386 . S
Sm80 O111 2.408 . S
Sm81 C91 2.846 . S
Sm81 O102 2.386 . S
Sm81 O105 2.408 . S
Sm81 O106 2.543 . S
Sm81 O107 2.450 . S
Sm81 O108 2.681 . S
Sm81 O109 2.464 . S
Sm81 O110 2.396 . S
C82 Sm80 2.846 . S
C82 C83 1.506 . S
C82 O100 1.261 . S
C82 O101 1.242 . S
C83 C82 1.506 . S
C83 C84 1.358 . S
C83 C88 1.382 . S
C84 C83 1.358 . S
C84 C85 1.385 . S
C84 H112 0.930 . S
C85 C84 1.385 . S
C85 C86 1.395 . S
C85 H113 0.929 . S
C86 C85 1.395 . S
C86 C87 1.335 . S
C87 C86 1.335 . S
C87 C88 1.398 . S
C87 H114 0.930 . S
C88 C83 1.382 . S
C88 C87 1.398 . S
C88 H115 0.929 . S
C89 O102 1.271 . S
C89 O103 1.251 . S
C90 O104 1.252 . S
C90 O105 1.272 . S
C91 Sm81 2.846 . S
C91 C92 1.506 . S
C91 O106 1.261 . S
C91 O107 1.242 . S
C92 C91 1.506 . S
C92 C93 1.358 . S
C92 C97 1.382 . S
C93 C92 1.358 . S
C93 C94 1.385 . S
C93 H116 0.930 . S
C94 C93 1.385 . S
C94 C95 1.395 . S
C94 H117 0.929 . S
C95 C94 1.395 . S
C95 C96 1.335 . S
C96 C95 1.335 . S
C96 C97 1.398 . S
C96 H118 0.930 . S
C97 C92 1.382 . S
C97 C96 1.398 . S
C97 H119 0.929 . S
C98 O108 1.271 . S
C98 O109 1.251 . S
C99 O110 1.252 . S
C99 O111 1.272 . S
O100 Sm80 2.543 . S
O100 C82 1.261 . S
O101 Sm80 2.450 . S
O101 C82 1.242 . S
O102 Sm80 2.681 . S
O102 Sm81 2.386 . S
O102 C89 1.271 . S
O103 Sm80 2.464 . S
O103 C89 1.251 . S
O104 Sm80 2.396 . S
O104 C90 1.252 . S
O105 Sm81 2.408 . S
O105 C90 1.272 . S
O106 Sm81 2.543 . S
O106 C91 1.261 . S
O107 Sm81 2.450 . S
O107 C91 1.242 . S
O108 Sm80 2.386 . S
O108 Sm81 2.681 . S
O108 C98 1.271 . S
O109 Sm81 2.464 . S
O109 C98 1.251 . S
O110 Sm81 2.396 . S
O110 C99 1.252 . S
O111 Sm80 2.408 . S
O111 C99 1.272 . S
H112 C84 0.930 . S
H113 C85 0.929 . S
H114 C87 0.930 . S
H115 C88 0.929 . S
H116 C93 0.930 . S
H117 C94 0.929 . S
H118 C96 0.930 . S
H119 C97 0.929 . S
Sm120 C122 2.846 . S
Sm120 O140 2.543 1_565 S
Sm120 O141 2.450 . S
Sm120 O142 2.681 . S
Sm120 O143 2.464 . S
Sm120 O144 2.396 1_565 S
Sm120 O148 2.386 1_565 S
Sm120 O151 2.408 . S
Sm121 C131 2.846 . S
Sm121 O142 2.386 1_545 S
Sm121 O145 2.408 . S
Sm121 O146 2.543 1_545 S
Sm121 O147 2.450 . S
Sm121 O148 2.681 . S
Sm121 O149 2.464 . S
Sm121 O150 2.396 1_545 S
C122 Sm120 2.846 . S
C122 C123 1.506 1_565 S
C122 O140 1.261 1_565 S
C122 O141 1.242 . S
C123 C122 1.506 1_545 S
C123 C124 1.359 . S
C123 C128 1.381 1_545 S
C124 C123 1.359 . S
C124 C125 1.385 . S
C124 H152 0.930 . S
C125 C124 1.385 . S
C125 C126 1.395 . S
C125 H153 0.929 . S
C126 C125 1.395 . S
C126 C127 1.335 1_545 S
C127 C126 1.335 1_565 S
C127 C128 1.398 . S
C127 H154 0.930 . S
C128 C123 1.381 1_565 S
C128 C127 1.398 . S
C128 H155 0.929 . S
C129 O142 1.271 . S
C129 O143 1.251 . S
C130 O144 1.252 . S
C130 O145 1.272 . S
C131 Sm121 2.846 . S
C131 C132 1.504 . S
C131 O146 1.261 1_545 S
C131 O147 1.242 . S
C132 C131 1.504 . S
C132 C133 1.346 1_545 S
C132 C137 1.397 . S
C133 C132 1.346 1_565 S
C133 C134 1.385 . S
C133 H156 0.930 . S
C134 C133 1.385 . S
C134 C135 1.395 . S
C134 H157 0.929 . S
C135 C134 1.395 . S
C135 C136 1.335 1_565 S
C136 C135 1.335 1_545 S
C136 C137 1.398 . S
C136 H158 0.930 . S
C137 C132 1.397 . S
C137 C136 1.398 . S
C137 H159 0.929 . S
C138 O148 1.271 . S
C138 O149 1.251 . S
C139 O150 1.252 . S
C139 O151 1.272 . S
O140 Sm120 2.543 1_545 S
O140 C122 1.261 1_545 S
O141 Sm120 2.450 . S
O141 C122 1.242 . S
O142 Sm120 2.681 . S
O142 Sm121 2.386 1_565 S
O142 C129 1.271 . S
O143 Sm120 2.464 . S
O143 C129 1.251 . S
O144 Sm120 2.396 1_545 S
O144 C130 1.252 . S
O145 Sm121 2.408 . S
O145 C130 1.272 . S
O146 Sm121 2.543 1_565 S
O146 C131 1.261 1_565 S
O147 Sm121 2.450 . S
O147 C131 1.242 . S
O148 Sm120 2.386 1_545 S
O148 Sm121 2.681 . S
O148 C138 1.271 . S
O149 Sm121 2.464 . S
O149 C138 1.251 . S
O150 Sm121 2.396 1_565 S
O150 C139 1.252 . S
O151 Sm120 2.408 . S
O151 C139 1.272 . S
H152 C124 0.930 . S
H153 C125 0.929 . S
H154 C127 0.930 . S
H155 C128 0.929 . S
H156 C133 0.930 . S
H157 C134 0.929 . S
H158 C136 0.930 . S
H159 C137 0.929 . S
Sm160 C162 2.846 . S
Sm160 O180 2.543 . S
Sm160 O181 2.450 . S
Sm160 O182 2.681 . S
Sm160 O183 2.464 . S
Sm160 O184 2.396 . S
Sm160 O188 2.386 . S
Sm160 O191 2.408 . S
Sm161 C171 2.846 . S
Sm161 O182 2.386 . S
Sm161 O185 2.408 . S
Sm161 O186 2.543 . S
Sm161 O187 2.450 . S
Sm161 O188 2.681 . S
Sm161 O189 2.464 . S
Sm161 O190 2.396 . S
C162 Sm160 2.846 . S
C162 C163 1.506 . S
C162 O180 1.261 . S
C162 O181 1.242 . S
C163 C162 1.506 . S
C163 C164 1.358 . S
C163 C168 1.382 . S
C164 C163 1.358 . S
C164 C165 1.385 . S
C164 H192 0.930 . S
C165 C164 1.385 . S
C165 C166 1.395 . S
C165 H193 0.929 . S
C166 C165 1.395 . S
C166 C167 1.335 . S
C167 C166 1.335 . S
C167 C168 1.398 . S
C167 H194 0.930 . S
C168 C163 1.382 . S
C168 C167 1.398 . S
C168 H195 0.929 . S
C169 O182 1.271 . S
C169 O183 1.251 . S
C170 O184 1.252 . S
C170 O185 1.272 . S
C171 Sm161 2.846 . S
C171 C172 1.506 . S
C171 O186 1.261 . S
C171 O187 1.242 . S
C172 C171 1.506 . S
C172 C173 1.358 . S
C172 C177 1.382 . S
C173 C172 1.358 . S
C173 C174 1.385 . S
C173 H196 0.930 . S
C174 C173 1.385 . S
C174 C175 1.395 . S
C174 H197 0.929 . S
C175 C174 1.395 . S
C175 C176 1.335 . S
C176 C175 1.335 . S
C176 C177 1.398 . S
C176 H198 0.930 . S
C177 C172 1.382 . S
C177 C176 1.398 . S
C177 H199 0.929 . S
C178 O188 1.271 . S
C178 O189 1.251 . S
C179 O190 1.252 . S
C179 O191 1.272 . S
O180 Sm160 2.543 . S
O180 C162 1.261 . S
O181 Sm160 2.450 . S
O181 C162 1.242 . S
O182 Sm160 2.681 . S
O182 Sm161 2.386 . S
O182 C169 1.271 . S
O183 Sm160 2.464 . S
O183 C169 1.251 . S
O184 Sm160 2.396 . S
O184 C170 1.252 . S
O185 Sm161 2.408 . S
O185 C170 1.272 . S
O186 Sm161 2.543 . S
O186 C171 1.261 . S
O187 Sm161 2.450 . S
O187 C171 1.242 . S
O188 Sm160 2.386 . S
O188 Sm161 2.681 . S
O188 C178 1.271 . S
O189 Sm161 2.464 . S
O189 C178 1.251 . S
O190 Sm161 2.396 . S
O190 C179 1.252 . S
O191 Sm160 2.408 . S
O191 C179 1.272 . S
H192 C164 0.930 . S
H193 C165 0.929 . S
H194 C167 0.930 . S
H195 C168 0.929 . S
H196 C173 0.930 . S
H197 C174 0.929 . S
H198 C176 0.930 . S
H199 C177 0.929 . S
Sm200 C202 2.846 . S
Sm200 O220 2.543 . S
Sm200 O221 2.450 . S
Sm200 O222 2.681 . S
Sm200 O223 2.464 . S
Sm200 O224 2.396 . S
Sm200 O228 2.386 . S
Sm200 O231 2.408 . S
Sm201 C211 2.846 . S
Sm201 O222 2.386 . S
Sm201 O225 2.408 . S
Sm201 O226 2.543 . S
Sm201 O227 2.450 . S
Sm201 O228 2.681 . S
Sm201 O229 2.464 . S
Sm201 O230 2.396 . S
C202 Sm200 2.846 . S
C202 C203 1.506 . S
C202 O220 1.261 . S
C202 O221 1.242 . S
C203 C202 1.506 . S
C203 C204 1.358 . S
C203 C208 1.382 . S
C204 C203 1.358 . S
C204 C205 1.385 . S
C204 H232 0.930 . S
C205 C204 1.385 . S
C205 C206 1.395 . S
C205 H233 0.929 . S
C206 C205 1.395 . S
C206 C207 1.335 . S
C207 C206 1.335 . S
C207 C208 1.398 . S
C207 H234 0.930 . S
C208 C203 1.382 . S
C208 C207 1.398 . S
C208 H235 0.929 . S
C209 O222 1.271 . S
C209 O223 1.251 . S
C210 O224 1.252 . S
C210 O225 1.272 . S
C211 Sm201 2.846 . S
C211 C212 1.506 . S
C211 O226 1.261 . S
C211 O227 1.242 . S
C212 C211 1.506 . S
C212 C213 1.358 . S
C212 C217 1.382 . S
C213 C212 1.358 . S
C213 C214 1.385 . S
C213 H236 0.930 . S
C214 C213 1.385 . S
C214 C215 1.395 . S
C214 H237 0.929 . S
C215 C214 1.395 . S
C215 C216 1.335 . S
C216 C215 1.335 . S
C216 C217 1.398 . S
C216 H238 0.930 . S
C217 C212 1.382 . S
C217 C216 1.398 . S
C217 H239 0.929 . S
C218 O228 1.271 . S
C218 O229 1.251 . S
C219 O230 1.252 . S
C219 O231 1.272 . S
O220 Sm200 2.543 . S
O220 C202 1.261 . S
O221 Sm200 2.450 . S
O221 C202 1.242 . S
O222 Sm200 2.681 . S
O222 Sm201 2.386 . S
O222 C209 1.271 . S
O223 Sm200 2.464 . S
O223 C209 1.251 . S
O224 Sm200 2.396 . S
O224 C210 1.252 . S
O225 Sm201 2.408 . S
O225 C210 1.272 . S
O226 Sm201 2.543 . S
O226 C211 1.261 . S
O227 Sm201 2.450 . S
O227 C211 1.242 . S
O228 Sm200 2.386 . S
O228 Sm201 2.681 . S
O228 C218 1.271 . S
O229 Sm201 2.464 . S
O229 C218 1.251 . S
O230 Sm201 2.396 . S
O230 C219 1.252 . S
O231 Sm200 2.408 . S
O231 C219 1.272 . S
H232 C204 0.930 . S
H233 C205 0.929 . S
H234 C207 0.930 . S
H235 C208 0.929 . S
H236 C213 0.930 . S
H237 C214 0.929 . S
H238 C216 0.930 . S
H239 C217 0.929 . S
Sm240 C242 2.846 . S
Sm240 O260 2.543 . S
Sm240 O261 2.450 . S
Sm240 O262 2.681 . S
Sm240 O263 2.464 . S
Sm240 O264 2.396 . S
Sm240 O268 2.386 . S
Sm240 O271 2.408 . S
Sm241 C251 2.846 . S
Sm241 O262 2.386 . S
Sm241 O265 2.408 . S
Sm241 O266 2.543 . S
Sm241 O267 2.450 . S
Sm241 O268 2.681 . S
Sm241 O269 2.464 . S
Sm241 O270 2.396 . S
C242 Sm240 2.846 . S
C242 C243 1.506 . S
C242 O260 1.261 . S
C242 O261 1.242 . S
C243 C242 1.506 . S
C243 C244 1.358 . S
C243 C248 1.382 . S
C244 C243 1.358 . S
C244 C245 1.385 . S
C244 H272 0.930 . S
C245 C244 1.385 . S
C245 C246 1.395 . S
C245 H273 0.929 . S
C246 C245 1.395 . S
C246 C247 1.335 . S
C247 C246 1.335 . S
C247 C248 1.398 . S
C247 H274 0.930 . S
C248 C243 1.382 . S
C248 C247 1.398 . S
C248 H275 0.929 . S
C249 O262 1.271 . S
C249 O263 1.251 . S
C250 O264 1.252 . S
C250 O265 1.272 . S
C251 Sm241 2.846 . S
C251 C252 1.506 . S
C251 O266 1.261 . S
C251 O267 1.242 . S
C252 C251 1.506 . S
C252 C253 1.358 . S
C252 C257 1.382 . S
C253 C252 1.358 . S
C253 C254 1.385 . S
C253 H276 0.930 . S
C254 C253 1.385 . S
C254 C255 1.395 . S
C254 H277 0.929 . S
C255 C254 1.395 . S
C255 C256 1.335 . S
C256 C255 1.335 . S
C256 C257 1.398 . S
C256 H278 0.930 . S
C257 C252 1.382 . S
C257 C256 1.398 . S
C257 H279 0.929 . S
C258 O268 1.271 . S
C258 O269 1.251 . S
C259 O270 1.252 . S
C259 O271 1.272 . S
O260 Sm240 2.543 . S
O260 C242 1.261 . S
O261 Sm240 2.450 . S
O261 C242 1.242 . S
O262 Sm240 2.681 . S
O262 Sm241 2.386 . S
O262 C249 1.271 . S
O263 Sm240 2.464 . S
O263 C249 1.251 . S
O264 Sm240 2.396 . S
O264 C250 1.252 . S
O265 Sm241 2.408 . S
O265 C250 1.272 . S
O266 Sm241 2.543 . S
O266 C251 1.261 . S
O267 Sm241 2.450 . S
O267 C251 1.242 . S
O268 Sm240 2.386 . S
O268 Sm241 2.681 . S
O268 C258 1.271 . S
O269 Sm241 2.464 . S
O269 C258 1.251 . S
O270 Sm241 2.396 . S
O270 C259 1.252 . S
O271 Sm240 2.408 . S
O271 C259 1.272 . S
H272 C244 0.930 . S
H273 C245 0.929 . S
H274 C247 0.930 . S
H275 C248 0.929 . S
H276 C253 0.930 . S
H277 C254 0.929 . S
H278 C256 0.930 . S
H279 C257 0.929 . S
Sm280 C282 2.846 . S
Sm280 O300 2.543 . S
Sm280 O301 2.450 . S
Sm280 O302 2.681 1_655 S
Sm280 O303 2.464 1_655 S
Sm280 O304 2.396 1_655 S
Sm280 O308 2.386 . S
Sm280 O311 2.408 . S
Sm281 C291 2.846 . S
Sm281 O302 2.386 . S
Sm281 O305 2.408 . S
Sm281 O306 2.543 . S
Sm281 O307 2.450 . S
Sm281 O308 2.681 1_455 S
Sm281 O309 2.464 1_455 S
Sm281 O310 2.396 1_455 S
C282 Sm280 2.846 . S
C282 C283 1.506 . S
C282 O300 1.261 . S
C282 O301 1.242 . S
C283 C282 1.506 . S
C283 C284 1.358 . S
C283 C288 1.382 . S
C284 C283 1.358 . S
C284 C285 1.385 . S
C284 H312 0.930 . S
C285 C284 1.385 . S
C285 C286 1.395 . S
C285 H313 0.929 . S
C286 C285 1.395 . S
C286 C287 1.335 . S
C287 C286 1.335 . S
C287 C288 1.398 . S
C287 H314 0.930 . S
C288 C283 1.382 . S
C288 C287 1.398 . S
C288 H315 0.929 . S
C289 O302 1.271 . S
C289 O303 1.251 . S
C290 O304 1.252 . S
C290 O305 1.272 . S
C291 Sm281 2.846 . S
C291 C292 1.506 . S
C291 O306 1.261 . S
C291 O307 1.242 . S
C292 C291 1.506 . S
C292 C293 1.358 . S
C292 C297 1.382 . S
C293 C292 1.358 . S
C293 C294 1.385 . S
C293 H316 0.930 . S
C294 C293 1.385 . S
C294 C295 1.395 . S
C294 H317 0.929 . S
C295 C294 1.395 . S
C295 C296 1.335 . S
C296 C295 1.335 . S
C296 C297 1.398 . S
C296 H318 0.930 . S
C297 C292 1.382 . S
C297 C296 1.398 . S
C297 H319 0.929 . S
C298 O308 1.271 . S
C298 O309 1.251 . S
C299 O310 1.252 . S
C299 O311 1.272 . S
O300 Sm280 2.543 . S
O300 C282 1.261 . S
O301 Sm280 2.450 . S
O301 C282 1.242 . S
O302 Sm280 2.681 1_455 S
O302 Sm281 2.386 . S
O302 C289 1.271 . S
O303 Sm280 2.464 1_455 S
O303 C289 1.251 . S
O304 Sm280 2.396 1_455 S
O304 C290 1.252 . S
O305 Sm281 2.408 . S
O305 C290 1.272 . S
O306 Sm281 2.543 . S
O306 C291 1.261 . S
O307 Sm281 2.450 . S
O307 C291 1.242 . S
O308 Sm280 2.386 . S
O308 Sm281 2.681 1_655 S
O308 C298 1.271 . S
O309 Sm281 2.464 1_655 S
O309 C298 1.251 . S
O310 Sm281 2.396 1_655 S
O310 C299 1.252 . S
O311 Sm280 2.408 . S
O311 C299 1.272 . S
H312 C284 0.930 . S
H313 C285 0.929 . S
H314 C287 0.930 . S
H315 C288 0.929 . S
H316 C293 0.930 . S
H317 C294 0.929 . S
H318 C296 0.930 . S
H319 C297 0.929 . S
Sm320 C322 2.846 . S
Sm320 O340 2.530 1_556 S
Sm320 O341 2.450 . S
Sm320 O342 2.681 . S
Sm320 O343 2.464 . S
Sm320 O344 2.396 1_556 S
Sm320 O348 2.386 1_556 S
Sm320 O351 2.408 . S
Sm321 C331 2.846 . S
Sm321 O342 2.386 1_554 S
Sm321 O345 2.408 . S
Sm321 O346 2.538 1_554 S
Sm321 O347 2.450 . S
Sm321 O348 2.681 . S
Sm321 O349 2.464 . S
Sm321 O350 2.396 1_554 S
C322 Sm320 2.846 . S
C322 C323 1.506 . S
C322 O340 1.225 1_556 S
C322 O341 1.242 . S
C323 C322 1.506 . S
C323 C324 1.358 1_556 S
C323 C328 1.382 . S
C324 C323 1.358 1_554 S
C324 C325 1.385 . S
C324 H352 0.930 . S
C325 C324 1.385 . S
C325 C326 1.395 1_554 S
C325 H353 0.929 . S
C326 C325 1.395 1_556 S
C326 C327 1.335 . S
C327 C326 1.335 . S
C327 C328 1.398 . S
C327 H354 0.930 . S
C328 C323 1.382 . S
C328 C327 1.398 . S
C328 H355 0.929 . S
C329 O342 1.271 . S
C329 O343 1.251 . S
C330 O344 1.252 . S
C330 O345 1.272 . S
C331 Sm321 2.846 . S
C331 C332 1.506 . S
C331 O346 1.248 1_554 S
C331 O347 1.242 . S
C332 C331 1.506 . S
C332 C333 1.358 1_554 S
C332 C337 1.382 . S
C333 C332 1.358 1_556 S
C333 C334 1.385 . S
C333 H356 0.930 . S
C334 C333 1.385 . S
C334 C335 1.395 1_556 S
C334 H357 0.929 . S
C335 C334 1.395 1_554 S
C335 C336 1.335 . S
C336 C335 1.335 . S
C336 C337 1.398 . S
C336 H358 0.930 . S
C337 C332 1.382 . S
C337 C336 1.398 . S
C337 H359 0.929 . S
C338 O348 1.271 . S
C338 O349 1.251 . S
C339 O350 1.252 . S
C339 O351 1.272 . S
O340 Sm320 2.530 1_554 S
O340 C322 1.225 1_554 S
O341 Sm320 2.450 . S
O341 C322 1.242 . S
O342 Sm320 2.681 . S
O342 Sm321 2.386 1_556 S
O342 C329 1.271 . S
O343 Sm320 2.464 . S
O343 C329 1.251 . S
O344 Sm320 2.396 1_554 S
O344 C330 1.252 . S
O345 Sm321 2.408 . S
O345 C330 1.272 . S
O346 Sm321 2.538 1_556 S
O346 C331 1.248 1_556 S
O347 Sm321 2.450 . S
O347 C331 1.242 . S
O348 Sm320 2.386 1_554 S
O348 Sm321 2.681 . S
O348 C338 1.271 . S
O349 Sm321 2.464 . S
O349 C338 1.251 . S
O350 Sm321 2.396 1_556 S
O350 C339 1.252 . S
O351 Sm320 2.408 . S
O351 C339 1.272 . S
H352 C324 0.930 . S
H353 C325 0.929 . S
H354 C327 0.930 . S
H355 C328 0.929 . S
H356 C333 0.930 . S
H357 C334 0.929 . S
H358 C336 0.930 . S
H359 C337 0.929 . S
Sm360 C362 2.846 . S
Sm360 O380 2.543 1_565 S
Sm360 O381 2.450 . S
Sm360 O382 2.681 . S
Sm360 O383 2.464 . S
Sm360 O384 2.396 1_565 S
Sm360 O388 2.386 1_565 S
Sm360 O391 2.408 . S
Sm361 C371 2.846 . S
Sm361 O382 2.386 1_545 S
Sm361 O385 2.408 . S
Sm361 O386 2.543 1_545 S
Sm361 O387 2.450 . S
Sm361 O388 2.681 . S
Sm361 O389 2.464 . S
Sm361 O390 2.396 1_545 S
C362 Sm360 2.846 . S
C362 C363 1.506 1_565 S
C362 O380 1.261 1_565 S
C362 O381 1.242 . S
C363 C362 1.506 1_545 S
C363 C364 1.359 . S
C363 C368 1.381 1_545 S
C364 C363 1.359 . S
C364 C365 1.385 . S
C364 H392 0.930 . S
C365 C364 1.385 . S
C365 C366 1.395 . S
C365 H393 0.929 . S
C366 C365 1.395 . S
C366 C367 1.335 1_545 S
C367 C366 1.335 1_565 S
C367 C368 1.398 . S
C367 H394 0.930 . S
C368 C363 1.381 1_565 S
C368 C367 1.398 . S
C368 H395 0.929 . S
C369 O382 1.271 . S
C369 O383 1.251 . S
C370 O384 1.252 . S
C370 O385 1.272 . S
C371 Sm361 2.846 . S
C371 C372 1.504 . S
C371 O386 1.261 1_545 S
C371 O387 1.242 . S
C372 C371 1.504 . S
C372 C373 1.345 1_545 S
C372 C377 1.397 . S
C373 C372 1.345 1_565 S
C373 C374 1.385 . S
C373 H396 0.930 . S
C374 C373 1.385 . S
C374 C375 1.395 . S
C374 H397 0.929 . S
C375 C374 1.395 . S
C375 C376 1.335 1_565 S
C376 C375 1.335 1_545 S
C376 C377 1.398 . S
C376 H398 0.930 . S
C377 C372 1.397 . S
C377 C376 1.398 . S
C377 H399 0.929 . S
C378 O388 1.271 . S
C378 O389 1.251 . S
C379 O390 1.252 . S
C379 O391 1.272 . S
O380 Sm360 2.543 1_545 S
O380 C362 1.261 1_545 S
O381 Sm360 2.450 . S
O381 C362 1.242 . S
O382 Sm360 2.681 . S
O382 Sm361 2.386 1_565 S
O382 C369 1.271 . S
O383 Sm360 2.464 . S
O383 C369 1.251 . S
O384 Sm360 2.396 1_545 S
O384 C370 1.252 . S
O385 Sm361 2.408 . S
O385 C370 1.272 . S
O386 Sm361 2.543 1_565 S
O386 C371 1.261 1_565 S
O387 Sm361 2.450 . S
O387 C371 1.242 . S
O388 Sm360 2.386 1_545 S
O388 Sm361 2.681 . S
O388 C378 1.271 . S
O389 Sm361 2.464 . S
O389 C378 1.251 . S
O390 Sm361 2.396 1_565 S
O390 C379 1.252 . S
O391 Sm360 2.408 . S
O391 C379 1.272 . S
H392 C364 0.930 . S
H393 C365 0.929 . S
H394 C367 0.930 . S
H395 C368 0.929 . S
H396 C373 0.930 . S
H397 C374 0.929 . S
H398 C376 0.930 . S
H399 C377 0.929 . S
Sm400 C402 2.846 . S
Sm400 O420 2.543 . S
Sm400 O421 2.450 . S
Sm400 O422 2.681 . S
Sm400 O423 2.464 . S
Sm400 O424 2.396 . S
Sm400 O428 2.386 . S
Sm400 O431 2.408 . S
Sm401 C411 2.846 . S
Sm401 O422 2.386 . S
Sm401 O425 2.408 . S
Sm401 O426 2.543 . S
Sm401 O427 2.450 . S
Sm401 O428 2.681 . S
Sm401 O429 2.464 . S
Sm401 O430 2.396 . S
C402 Sm400 2.846 . S
C402 C403 1.506 . S
C402 O420 1.261 . S
C402 O421 1.242 . S
C403 C402 1.506 . S
C403 C404 1.358 . S
C403 C408 1.382 . S
C404 C403 1.358 . S
C404 C405 1.385 . S
C404 H432 0.930 . S
C405 C404 1.385 . S
C405 C406 1.395 . S
C405 H433 0.929 . S
C406 C405 1.395 . S
C406 C407 1.335 . S
C407 C406 1.335 . S
C407 C408 1.398 . S
C407 H434 0.930 . S
C408 C403 1.382 . S
C408 C407 1.398 . S
C408 H435 0.929 . S
C409 O422 1.271 . S
C409 O423 1.251 . S
C410 O424 1.252 . S
C410 O425 1.272 . S
C411 Sm401 2.846 . S
C411 C412 1.506 . S
C411 O426 1.261 . S
C411 O427 1.242 . S
C412 C411 1.506 . S
C412 C413 1.358 . S
C412 C417 1.382 . S
C413 C412 1.358 . S
C413 C414 1.385 . S
C413 H436 0.930 . S
C414 C413 1.385 . S
C414 C415 1.395 . S
C414 H437 0.929 . S
C415 C414 1.395 . S
C415 C416 1.335 . S
C416 C415 1.335 . S
C416 C417 1.398 . S
C416 H438 0.930 . S
C417 C412 1.382 . S
C417 C416 1.398 . S
C417 H439 0.929 . S
C418 O428 1.271 . S
C418 O429 1.251 . S
C419 O430 1.252 . S
C419 O431 1.272 . S
O420 Sm400 2.543 . S
O420 C402 1.261 . S
O421 Sm400 2.450 . S
O421 C402 1.242 . S
O422 Sm400 2.681 . S
O422 Sm401 2.386 . S
O422 C409 1.271 . S
O423 Sm400 2.464 . S
O423 C409 1.251 . S
O424 Sm400 2.396 . S
O424 C410 1.252 . S
O425 Sm401 2.408 . S
O425 C410 1.272 . S
O426 Sm401 2.543 . S
O426 C411 1.261 . S
O427 Sm401 2.450 . S
O427 C411 1.242 . S
O428 Sm400 2.386 . S
O428 Sm401 2.681 . S
O428 C418 1.271 . S
O429 Sm401 2.464 . S
O429 C418 1.251 . S
O430 Sm401 2.396 . S
O430 C419 1.252 . S
O431 Sm400 2.408 . S
O431 C419 1.272 . S
H432 C404 0.930 . S
H433 C405 0.929 . S
H434 C407 0.930 . S
H435 C408 0.929 . S
H436 C413 0.930 . S
H437 C414 0.929 . S
H438 C416 0.930 . S
H439 C417 0.929 . S
Sm440 C442 2.846 . S
Sm440 O460 2.543 1_455 S
Sm440 O461 2.450 . S
Sm440 O462 2.681 . S
Sm440 O463 2.464 . S
Sm440 O464 2.396 1_455 S
Sm440 O468 2.386 1_455 S
Sm440 O471 2.408 . S
Sm441 C451 2.846 . S
Sm441 O462 2.386 1_655 S
Sm441 O465 2.408 . S
Sm441 O466 2.543 1_655 S
Sm441 O467 2.450 . S
Sm441 O468 2.681 . S
Sm441 O469 2.464 . S
Sm441 O470 2.396 1_655 S
C442 Sm440 2.846 . S
C442 C443 1.506 . S
C442 O460 1.261 1_455 S
C442 O461 1.242 . S
C443 C442 1.506 . S
C443 C444 1.358 1_455 S
C443 C448 1.382 . S
C444 C443 1.358 1_655 S
C444 C445 1.385 . S
C444 H472 0.930 . S
C445 C444 1.385 . S
C445 C446 1.395 . S
C445 H473 0.929 . S
C446 C445 1.395 . S
C446 C447 1.335 1_655 S
C447 C446 1.335 1_455 S
C447 C448 1.398 . S
C447 H474 0.930 . S
C448 C443 1.382 . S
C448 C447 1.398 . S
C448 H475 0.929 . S
C449 O462 1.271 . S
C449 O463 1.251 . S
C450 O464 1.252 . S
C450 O465 1.272 . S
C451 Sm441 2.846 . S
C451 C452 1.506 . S
C451 O466 1.261 1_655 S
C451 O467 1.242 . S
C452 C451 1.506 . S
C452 C453 1.358 1_655 S
C452 C457 1.382 . S
C453 C452 1.358 1_455 S
C453 C454 1.385 . S
C453 H476 0.930 . S
C454 C453 1.385 . S
C454 C455 1.395 . S
C454 H477 0.929 . S
C455 C454 1.395 . S
C455 C456 1.335 1_455 S
C456 C455 1.335 1_655 S
C456 C457 1.398 . S
C456 H478 0.930 . S
C457 C452 1.382 . S
C457 C456 1.398 . S
C457 H479 0.929 . S
C458 O468 1.271 . S
C458 O469 1.251 . S
C459 O470 1.252 . S
C459 O471 1.272 . S
O460 Sm440 2.543 1_655 S
O460 C442 1.261 1_655 S
O461 Sm440 2.450 . S
O461 C442 1.242 . S
O462 Sm440 2.681 . S
O462 Sm441 2.386 1_455 S
O462 C449 1.271 . S
O463 Sm440 2.464 . S
O463 C449 1.251 . S
O464 Sm440 2.396 1_655 S
O464 C450 1.252 . S
O465 Sm441 2.408 . S
O465 C450 1.272 . S
O466 Sm441 2.543 1_455 S
O466 C451 1.261 1_455 S
O467 Sm441 2.450 . S
O467 C451 1.242 . S
O468 Sm440 2.386 1_655 S
O468 Sm441 2.681 . S
O468 C458 1.271 . S
O469 Sm441 2.464 . S
O469 C458 1.251 . S
O470 Sm441 2.396 1_455 S
O470 C459 1.252 . S
O471 Sm440 2.408 . S
O471 C459 1.272 . S
H472 C444 0.930 . S
H473 C445 0.929 . S
H474 C447 0.930 . S
H475 C448 0.929 . S
H476 C453 0.930 . S
H477 C454 0.929 . S
H478 C456 0.930 . S
H479 C457 0.929 . S
Sm480 C482 2.846 . S
Sm480 O500 2.543 . S
Sm480 O501 2.450 . S
Sm480 O502 2.681 . S
Sm480 O503 2.464 . S
Sm480 O504 2.396 . S
Sm480 O508 2.386 . S
Sm480 O511 2.408 . S
Sm481 C491 2.846 . S
Sm481 O502 2.386 . S
Sm481 O505 2.408 . S
Sm481 O506 2.543 . S
Sm481 O507 2.450 . S
Sm481 O508 2.681 . S
Sm481 O509 2.464 . S
Sm481 O510 2.396 . S
C482 Sm480 2.846 . S
C482 C483 1.506 . S
C482 O500 1.261 . S
C482 O501 1.242 . S
C483 C482 1.506 . S
C483 C484 1.358 . S
C483 C488 1.382 . S
C484 C483 1.358 . S
C484 C485 1.385 . S
C484 H512 0.930 . S
C485 C484 1.385 . S
C485 C486 1.395 . S
C485 H513 0.929 . S
C486 C485 1.395 . S
C486 C487 1.335 . S
C487 C486 1.335 . S
C487 C488 1.398 . S
C487 H514 0.930 . S
C488 C483 1.382 . S
C488 C487 1.398 . S
C488 H515 0.929 . S
C489 O502 1.271 . S
C489 O503 1.251 . S
C490 O504 1.252 . S
C490 O505 1.272 . S
C491 Sm481 2.846 . S
C491 C492 1.506 . S
C491 O506 1.261 . S
C491 O507 1.242 . S
C492 C491 1.506 . S
C492 C493 1.358 . S
C492 C497 1.382 . S
C493 C492 1.358 . S
C493 C494 1.385 . S
C493 H516 0.930 . S
C494 C493 1.385 . S
C494 C495 1.395 . S
C494 H517 0.929 . S
C495 C494 1.395 . S
C495 C496 1.335 . S
C496 C495 1.335 . S
C496 C497 1.398 . S
C496 H518 0.930 . S
C497 C492 1.382 . S
C497 C496 1.398 . S
C497 H519 0.929 . S
C498 O508 1.271 . S
C498 O509 1.251 . S
C499 O510 1.252 . S
C499 O511 1.272 . S
O500 Sm480 2.543 . S
O500 C482 1.261 . S
O501 Sm480 2.450 . S
O501 C482 1.242 . S
O502 Sm480 2.681 . S
O502 Sm481 2.386 . S
O502 C489 1.271 . S
O503 Sm480 2.464 . S
O503 C489 1.251 . S
O504 Sm480 2.396 . S
O504 C490 1.252 . S
O505 Sm481 2.408 . S
O505 C490 1.272 . S
O506 Sm481 2.543 . S
O506 C491 1.261 . S
O507 Sm481 2.450 . S
O507 C491 1.242 . S
O508 Sm480 2.386 . S
O508 Sm481 2.681 . S
O508 C498 1.271 . S
O509 Sm481 2.464 . S
O509 C498 1.251 . S
O510 Sm481 2.396 . S
O510 C499 1.252 . S
O511 Sm480 2.408 . S
O511 C499 1.272 . S
H512 C484 0.930 . S
H513 C485 0.929 . S
H514 C487 0.930 . S
H515 C488 0.929 . S
H516 C493 0.930 . S
H517 C494 0.929 . S
H518 C496 0.930 . S
H519 C497 0.929 . S
Sm520 C522 2.846 . S
Sm520 O540 2.530 1_556 S
Sm520 O541 2.450 . S
Sm520 O542 2.681 . S
Sm520 O543 2.464 . S
Sm520 O544 2.396 1_556 S
Sm520 O548 2.386 1_556 S
Sm520 O551 2.408 . S
Sm521 C531 2.846 . S
Sm521 O542 2.386 1_554 S
Sm521 O545 2.408 . S
Sm521 O546 2.538 1_554 S
Sm521 O547 2.450 . S
Sm521 O548 2.681 . S
Sm521 O549 2.464 . S
Sm521 O550 2.396 1_554 S
C522 Sm520 2.846 . S
C522 C523 1.506 . S
C522 O540 1.225 1_556 S
C522 O541 1.242 . S
C523 C522 1.506 . S
C523 C524 1.358 1_556 S
C523 C528 1.382 . S
C524 C523 1.358 1_554 S
C524 C525 1.385 . S
C524 H552 0.930 . S
C525 C524 1.385 . S
C525 C526 1.395 1_554 S
C525 H553 0.929 . S
C526 C525 1.395 1_556 S
C526 C527 1.335 . S
C527 C526 1.335 . S
C527 C528 1.398 . S
C527 H554 0.930 . S
C528 C523 1.382 . S
C528 C527 1.398 . S
C528 H555 0.929 . S
C529 O542 1.271 . S
C529 O543 1.251 . S
C530 O544 1.252 . S
C530 O545 1.272 . S
C531 Sm521 2.846 . S
C531 C532 1.506 . S
C531 O546 1.248 1_554 S
C531 O547 1.242 . S
C532 C531 1.506 . S
C532 C533 1.358 1_554 S
C532 C537 1.382 . S
C533 C532 1.358 1_556 S
C533 C534 1.385 . S
C533 H556 0.930 . S
C534 C533 1.385 . S
C534 C535 1.395 1_556 S
C534 H557 0.929 . S
C535 C534 1.395 1_554 S
C535 C536 1.335 . S
C536 C535 1.335 . S
C536 C537 1.398 . S
C536 H558 0.930 . S
C537 C532 1.382 . S
C537 C536 1.398 . S
C537 H559 0.929 . S
C538 O548 1.271 . S
C538 O549 1.251 . S
C539 O550 1.252 . S
C539 O551 1.272 . S
O540 Sm520 2.530 1_554 S
O540 C522 1.225 1_554 S
O541 Sm520 2.450 . S
O541 C522 1.242 . S
O542 Sm520 2.681 . S
O542 Sm521 2.386 1_556 S
O542 C529 1.271 . S
O543 Sm520 2.464 . S
O543 C529 1.251 . S
O544 Sm520 2.396 1_554 S
O544 C530 1.252 . S
O545 Sm521 2.408 . S
O545 C530 1.272 . S
O546 Sm521 2.538 1_556 S
O546 C531 1.248 1_556 S
O547 Sm521 2.450 . S
O547 C531 1.242 . S
O548 Sm520 2.386 1_554 S
O548 Sm521 2.681 . S
O548 C538 1.271 . S
O549 Sm521 2.464 . S
O549 C538 1.251 . S
O550 Sm521 2.396 1_556 S
O550 C539 1.252 . S
O551 Sm520 2.408 . S
O551 C539 1.272 . S
H552 C524 0.930 . S
H553 C525 0.929 . S
H554 C527 0.930 . S
H555 C528 0.929 . S
H556 C533 0.930 . S
H557 C534 0.929 . S
H558 C536 0.930 . S
H559 C537 0.929 . S
Sm560 C562 2.846 . S
Sm560 O580 2.543 . S
Sm560 O581 2.450 . S
Sm560 O582 2.681 . S
Sm560 O583 2.464 . S
Sm560 O584 2.396 . S
Sm560 O588 2.386 1_565 S
Sm560 O591 2.408 1_565 S
Sm561 C571 2.846 . S
Sm561 O582 2.386 1_545 S
Sm561 O585 2.408 1_545 S
Sm561 O586 2.543 . S
Sm561 O587 2.450 . S
Sm561 O588 2.681 . S
Sm561 O589 2.464 . S
Sm561 O590 2.396 . S
C562 Sm560 2.846 . S
C562 C563 1.506 . S
C562 O580 1.261 . S
C562 O581 1.242 . S
C563 C562 1.506 . S
C563 C564 1.358 . S
C563 C568 1.382 . S
C564 C563 1.358 . S
C564 C565 1.385 . S
C564 H592 0.930 . S
C565 C564 1.385 . S
C565 C566 1.395 . S
C565 H593 0.929 . S
C566 C565 1.395 . S
C566 C567 1.335 . S
C567 C566 1.335 . S
C567 C568 1.398 . S
C567 H594 0.930 . S
C568 C563 1.382 . S
C568 C567 1.398 . S
C568 H595 0.929 . S
C569 O582 1.271 . S
C569 O583 1.251 . S
C570 O584 1.252 . S
C570 O585 1.272 . S
C571 Sm561 2.846 . S
C571 C572 1.506 . S
C571 O586 1.261 . S
C571 O587 1.242 . S
C572 C571 1.506 . S
C572 C573 1.358 . S
C572 C577 1.382 . S
C573 C572 1.358 . S
C573 C574 1.385 . S
C573 H596 0.930 . S
C574 C573 1.385 . S
C574 C575 1.395 . S
C574 H597 0.929 . S
C575 C574 1.395 . S
C575 C576 1.335 . S
C576 C575 1.335 . S
C576 C577 1.398 . S
C576 H598 0.930 . S
C577 C572 1.382 . S
C577 C576 1.398 . S
C577 H599 0.929 . S
C578 O588 1.271 . S
C578 O589 1.251 . S
C579 O590 1.252 . S
C579 O591 1.272 . S
O580 Sm560 2.543 . S
O580 C562 1.261 . S
O581 Sm560 2.450 . S
O581 C562 1.242 . S
O582 Sm560 2.681 . S
O582 Sm561 2.386 1_565 S
O582 C569 1.271 . S
O583 Sm560 2.464 . S
O583 C569 1.251 . S
O584 Sm560 2.396 . S
O584 C570 1.252 . S
O585 Sm561 2.408 1_565 S
O585 C570 1.272 . S
O586 Sm561 2.543 . S
O586 C571 1.261 . S
O587 Sm561 2.450 . S
O587 C571 1.242 . S
O588 Sm560 2.386 1_545 S
O588 Sm561 2.681 . S
O588 C578 1.271 . S
O589 Sm561 2.464 . S
O589 C578 1.251 . S
O590 Sm561 2.396 . S
O590 C579 1.252 . S
O591 Sm560 2.408 1_545 S
O591 C579 1.272 . S
H592 C564 0.930 . S
H593 C565 0.929 . S
H594 C567 0.930 . S
H595 C568 0.929 . S
H596 C573 0.930 . S
H597 C574 0.929 . S
H598 C576 0.930 . S
H599 C577 0.929 . S
Sm600 C602 2.846 . S
Sm600 O620 2.543 . S
Sm600 O621 2.450 . S
Sm600 O622 2.681 . S
Sm600 O623 2.464 . S
Sm600 O624 2.396 1_554 S
Sm600 O628 2.386 1_554 S
Sm600 O631 2.408 . S
Sm601 C611 2.846 . S
Sm601 O622 2.386 1_556 S
Sm601 O625 2.408 . S
Sm601 O626 2.543 . S
Sm601 O627 2.450 . S
Sm601 O628 2.681 . S
Sm601 O629 2.464 . S
Sm601 O630 2.396 1_556 S
C602 Sm600 2.846 . S
C602 C603 1.506 . S
C602 O620 1.261 . S
C602 O621 1.242 . S
C603 C602 1.506 . S
C603 C604 1.358 . S
C603 C608 1.382 . S
C604 C603 1.358 . S
C604 C605 1.385 . S
C604 H632 0.930 1_554 S
C605 C604 1.385 . S
C605 C606 1.395 . S
C605 H633 0.924 1_554 S
C606 C605 1.395 . S
C606 C607 1.335 . S
C607 C606 1.335 . S
C607 C608 1.398 . S
C607 H634 0.930 . S
C608 C603 1.382 . S
C608 C607 1.398 . S
C608 H635 0.929 . S
C609 O622 1.271 . S
C609 O623 1.251 . S
C610 O624 1.252 . S
C610 O625 1.272 . S
C611 Sm601 2.846 . S
C611 C612 1.506 . S
C611 O626 1.261 . S
C611 O627 1.242 . S
C612 C611 1.506 . S
C612 C613 1.358 . S
C612 C617 1.382 . S
C613 C612 1.358 . S
C613 C614 1.385 . S
C613 H636 0.930 1_556 S
C614 C613 1.385 . S
C614 C615 1.395 . S
C614 H637 0.899 1_556 S
C615 C614 1.395 . S
C615 C616 1.335 . S
C616 C615 1.335 . S
C616 C617 1.398 . S
C616 H638 0.930 . S
C617 C612 1.382 . S
C617 C616 1.398 . S
C617 H639 0.929 . S
C618 O628 1.271 . S
C618 O629 1.251 . S
C619 O630 1.252 . S
C619 O631 1.272 . S
O620 Sm600 2.543 . S
O620 C602 1.261 . S
O621 Sm600 2.450 . S
O621 C602 1.242 . S
O622 Sm600 2.681 . S
O622 Sm601 2.386 1_554 S
O622 C609 1.271 . S
O623 Sm600 2.464 . S
O623 C609 1.251 . S
O624 Sm600 2.396 1_556 S
O624 C610 1.252 . S
O625 Sm601 2.408 . S
O625 C610 1.272 . S
O626 Sm601 2.543 . S
O626 C611 1.261 . S
O627 Sm601 2.450 . S
O627 C611 1.242 . S
O628 Sm600 2.386 1_556 S
O628 Sm601 2.681 . S
O628 C618 1.271 . S
O629 Sm601 2.464 . S
O629 C618 1.251 . S
O630 Sm601 2.396 1_554 S
O630 C619 1.252 . S
O631 Sm600 2.408 . S
O631 C619 1.272 . S
H632 C604 0.930 1_556 S
H633 C605 0.924 1_556 S
H634 C607 0.930 . S
H635 C608 0.929 . S
H636 C613 0.930 1_554 S
H637 C614 0.899 1_554 S
H638 C616 0.930 . S
H639 C617 0.929 . S
H640 C648 0.929 . S
H641 C650 0.930 . S
H642 C652 0.930 1_455 S
H643 C655 0.929 1_455 S
H644 C658 0.930 . S
H645 C660 0.960 . S
H646 C660 0.960 . S
H647 C660 0.960 . S
C648 H640 0.929 . S
C648 C649 1.377 . S
C648 C650 1.384 . S
C649 C648 1.377 . S
C649 C655 1.390 . S
C650 H641 0.930 . S
C650 C648 1.384 . S
C650 C651 1.372 . S
C651 C650 1.372 . S
C651 C652 1.400 . S
C651 C656 1.490 . S
C652 H642 0.930 1_655 S
C652 C651 1.400 . S
C652 C655 1.386 . S
H653 C669 0.930 . S
H654 C670 0.931 . S
C655 H643 0.929 1_655 S
C655 C649 1.390 . S
C655 C652 1.386 . S
C656 C651 1.490 . S
C656 C658 1.395 1_655 S
C656 C659 1.403 . S
H657 C663 0.930 . S
C658 H644 0.930 . S
C658 C656 1.395 1_455 S
C658 C661 1.403 . S
C659 C656 1.403 . S
C659 C660 1.524 . S
C659 C663 1.400 . S
C660 H645 0.960 . S
C660 H646 0.960 . S
C660 H647 0.960 . S
C660 C659 1.524 . S
C661 C658 1.403 . S
C661 C662 1.398 . S
C661 C665 1.495 . S
C662 C661 1.398 . S
C662 C663 1.361 1_455 S
C662 C664 1.496 . S
C663 H657 0.930 . S
C663 C659 1.400 . S
C663 C662 1.361 1_655 S
C664 C662 1.496 . S
C664 C666 1.381 1_455 S
C664 C670 1.383 . S
C665 C661 1.495 . S
C665 H671 0.959 . S
C665 H672 0.961 . S
C665 H673 0.960 . S
C666 C664 1.381 1_655 S
C666 C667 1.394 . S
C666 H674 0.930 . S
C667 C666 1.394 . S
C667 C668 1.383 1_655 S
C667 H675 0.929 . S
C668 C667 1.383 1_455 S
C668 C669 1.377 . S
C669 H653 0.930 . S
C669 C668 1.377 . S
C669 C670 1.379 . S
C670 H654 0.931 . S
C670 C664 1.383 . S
C670 C669 1.379 . S
H671 C665 0.959 . S
H672 C665 0.961 . S
H673 C665 0.960 . S
H674 C666 0.930 . S
H675 C667 0.929 . S
H676 C684 0.929 . S
H677 C686 0.930 . S
H678 C688 0.930 . S
H679 C691 0.929 . S
H680 C694 0.930 . S
H681 C696 0.960 . S
H682 C696 0.960 . S
H683 C696 0.960 . S
C684 H676 0.929 . S
C684 C685 1.377 . S
C684 C686 1.384 . S
C685 C684 1.377 . S
C685 C691 1.390 . S
C686 H677 0.930 . S
C686 C684 1.384 . S
C686 C687 1.372 . S
C687 C686 1.372 . S
C687 C688 1.400 . S
C687 C692 1.490 . S
C688 H678 0.930 . S
C688 C687 1.400 . S
C688 C691 1.386 . S
H689 C705 0.930 . S
H690 C706 0.931 . S
C691 H679 0.929 . S
C691 C685 1.390 . S
C691 C688 1.386 . S
C692 C687 1.490 . S
C692 C694 1.395 . S
C692 C695 1.403 . S
H693 C699 0.930 . S
C694 H680 0.930 . S
C694 C692 1.395 . S
C694 C697 1.403 . S
C695 C692 1.403 . S
C695 C696 1.524 . S
C695 C699 1.400 . S
C696 H681 0.960 . S
C696 H682 0.960 . S
C696 H683 0.960 . S
C696 C695 1.524 . S
C697 C694 1.403 . S
C697 C698 1.392 . S
C697 C701 1.495 . S
C698 C697 1.392 . S
C698 C699 1.385 . S
C698 C700 1.478 . S
C699 H693 0.930 . S
C699 C695 1.400 . S
C699 C698 1.385 . S
C700 C698 1.478 . S
C700 C702 1.381 . S
C700 C706 1.383 . S
C701 C697 1.495 . S
C701 H707 0.959 . S
C701 H708 0.961 . S
C701 H709 0.960 . S
C702 C700 1.381 . S
C702 C703 1.394 . S
C702 H710 0.930 . S
C703 C702 1.394 . S
C703 C704 1.383 . S
C703 H711 0.929 . S
C704 C703 1.383 . S
C704 C705 1.377 . S
C705 H689 0.930 . S
C705 C704 1.377 . S
C705 C706 1.379 . S
C706 H690 0.931 . S
C706 C700 1.383 . S
C706 C705 1.379 . S
H707 C701 0.959 . S
H708 C701 0.961 . S
H709 C701 0.960 . S
H710 C702 0.930 . S
H711 C703 0.929 . S
H712 C720 0.929 . S
H713 C722 0.930 . S
H714 C724 0.930 . S
H715 C727 0.929 . S
H716 C730 0.930 . S
H717 C732 0.960 . S
H718 C732 0.960 . S
H719 C732 0.960 . S
C720 H712 0.929 . S
C720 C721 1.377 . S
C720 C722 1.384 . S
C721 C720 1.377 . S
C721 C727 1.390 . S
C722 H713 0.930 . S
C722 C720 1.384 . S
C722 C723 1.372 . S
C723 C722 1.372 . S
C723 C724 1.400 . S
C723 C728 1.490 . S
C724 H714 0.930 . S
C724 C723 1.400 . S
C724 C727 1.386 . S
H725 C741 0.930 . S
H726 C742 0.931 . S
C727 H715 0.929 . S
C727 C721 1.390 . S
C727 C724 1.386 . S
C728 C723 1.490 . S
C728 C730 1.395 . S
C728 C731 1.403 . S
H729 C735 0.930 . S
C730 H716 0.930 . S
C730 C728 1.395 . S
C730 C733 1.403 . S
C731 C728 1.403 . S
C731 C732 1.524 . S
C731 C735 1.400 . S
C732 H717 0.960 . S
C732 H718 0.960 . S
C732 H719 0.960 . S
C732 C731 1.524 . S
C733 C730 1.403 . S
C733 C734 1.392 . S
C733 C737 1.495 . S
C734 C733 1.392 . S
C734 C735 1.385 . S
C734 C736 1.478 . S
C735 H729 0.930 . S
C735 C731 1.400 . S
C735 C734 1.385 . S
C736 C734 1.478 . S
C736 C738 1.381 . S
C736 C742 1.383 . S
C737 C733 1.495 . S
C737 H743 0.959 . S
C737 H744 0.961 . S
C737 H745 0.960 . S
C738 C736 1.381 . S
C738 C739 1.394 . S
C738 H746 0.930 . S
C739 C738 1.394 . S
C739 C740 1.383 . S
C739 H747 0.929 . S
C740 C739 1.383 . S
C740 C741 1.377 . S
C741 H725 0.930 . S
C741 C740 1.377 . S
C741 C742 1.379 . S
C742 H726 0.931 . S
C742 C736 1.383 . S
C742 C741 1.379 . S
H743 C737 0.959 . S
H744 C737 0.961 . S
H745 C737 0.960 . S
H746 C738 0.930 . S
H747 C739 0.929 . S
H748 C756 0.929 . S
H749 C758 0.930 . S
H750 C760 0.930 . S
H751 C763 0.929 . S
H752 C766 0.930 . S
H753 C768 0.960 . S
H754 C768 0.960 . S
H755 C768 0.960 . S
C756 H748 0.929 . S
C756 C757 1.377 . S
C756 C758 1.384 . S
C757 C756 1.377 . S
C757 C763 1.390 . S
C758 H749 0.930 . S
C758 C756 1.384 . S
C758 C759 1.372 . S
C759 C758 1.372 . S
C759 C760 1.400 . S
C759 C764 1.490 . S
C760 H750 0.930 . S
C760 C759 1.400 . S
C760 C763 1.386 . S
H761 C777 0.930 . S
H762 C778 0.931 . S
C763 H751 0.929 . S
C763 C757 1.390 . S
C763 C760 1.386 . S
C764 C759 1.490 . S
C764 C766 1.395 1_545 S
C764 C767 1.403 . S
H765 C771 0.930 . S
C766 H752 0.930 . S
C766 C764 1.395 1_565 S
C766 C769 1.403 . S
C767 C764 1.403 . S
C767 C768 1.524 . S
C767 C771 1.400 . S
C768 H753 0.960 . S
C768 H754 0.960 . S
C768 H755 0.960 . S
C768 C767 1.524 . S
C769 C766 1.403 . S
C769 C770 1.378 1_565 S
C769 C773 1.495 . S
C770 C769 1.378 1_545 S
C770 C771 1.423 . S
C770 C772 1.456 1_545 S
C771 H765 0.930 . S
C771 C767 1.400 . S
C771 C770 1.423 . S
C772 C770 1.456 1_565 S
C772 C774 1.381 . S
C772 C778 1.383 . S
C773 C769 1.495 . S
C773 H779 0.959 . S
C773 H780 0.961 . S
C773 H781 0.960 . S
C774 C772 1.381 . S
C774 C775 1.394 . S
C774 H782 0.930 . S
C775 C774 1.394 . S
C775 C776 1.383 . S
C775 H783 0.929 . S
C776 C775 1.383 . S
C776 C777 1.377 . S
C777 H761 0.930 . S
C777 C776 1.377 . S
C777 C778 1.379 . S
C778 H762 0.931 . S
C778 C772 1.383 . S
C778 C777 1.379 . S
H779 C773 0.959 . S
H780 C773 0.961 . S
H781 C773 0.960 . S
H782 C774 0.930 . S
H783 C775 0.929 . S
H784 C792 0.929 1_545 S
H785 C794 0.930 . S
H786 C796 0.930 . S
H787 C799 0.929 . S
H788 C802 0.930 . S
H789 C804 0.960 . S
H790 C804 0.960 . S
H791 C804 0.960 . S
C792 H784 0.929 1_565 S
C792 C793 1.377 . S
C792 C794 1.384 1_565 S
C793 C792 1.377 . S
C793 C799 1.390 . S
C794 H785 0.930 . S
C794 C792 1.384 1_545 S
C794 C795 1.372 1_545 S
C795 C794 1.372 1_565 S
C795 C796 1.400 . S
C795 C800 1.490 . S
C796 H786 0.930 . S
C796 C795 1.400 . S
C796 C799 1.386 . S
H797 C813 0.930 . S
H798 C814 0.931 . S
C799 H787 0.929 . S
C799 C793 1.390 . S
C799 C796 1.386 . S
C800 C795 1.490 . S
C800 C802 1.395 1_565 S
C800 C803 1.403 . S
H801 C807 0.930 . S
C802 H788 0.930 . S
C802 C800 1.395 1_545 S
C802 C805 1.403 . S
C803 C800 1.403 . S
C803 C804 1.524 . S
C803 C807 1.400 . S
C804 H789 0.960 . S
C804 H790 0.960 . S
C804 H791 0.960 . S
C804 C803 1.524 . S
C805 C802 1.403 . S
C805 C806 1.388 1_545 S
C805 C809 1.495 . S
C806 C805 1.388 1_565 S
C806 C807 1.411 . S
C806 C808 1.458 1_565 S
C807 H801 0.930 . S
C807 C803 1.400 . S
C807 C806 1.411 . S
C808 C806 1.458 1_545 S
C808 C810 1.381 . S
C808 C814 1.383 1_545 S
C809 C805 1.495 . S
C809 H815 0.959 . S
C809 H816 0.961 . S
C809 H817 0.960 . S
C810 C808 1.381 . S
C810 C811 1.394 . S
C810 H818 0.930 . S
C811 C810 1.394 . S
C811 C812 1.383 . S
C811 H819 0.929 . S
C812 C811 1.383 . S
C812 C813 1.377 1_545 S
C813 H797 0.930 . S
C813 C812 1.377 1_565 S
C813 C814 1.379 . S
C814 H798 0.931 . S
C814 C808 1.383 1_565 S
C814 C813 1.379 . S
H815 C809 0.959 . S
H816 C809 0.961 . S
H817 C809 0.960 . S
H818 C810 0.930 . S
H819 C811 0.929 . S
H820 C828 0.929 . S
H821 C830 0.930 . S
H822 C832 0.930 . S
H823 C835 0.929 . S
H824 C838 0.930 . S
H825 C840 0.960 . S
H826 C840 0.960 . S
H827 C840 0.960 . S
C828 H820 0.929 . S
C828 C829 1.377 1_655 S
C828 C830 1.384 . S
C829 C828 1.377 1_455 S
C829 C835 1.390 . S
C830 H821 0.930 . S
C830 C828 1.384 . S
C830 C831 1.372 1_655 S
C831 C830 1.372 1_455 S
C831 C832 1.400 . S
C831 C836 1.490 . S
C832 H822 0.930 . S
C832 C831 1.400 . S
C832 C835 1.386 . S
H833 C849 0.930 . S
H834 C850 0.931 . S
C835 H823 0.929 . S
C835 C829 1.390 . S
C835 C832 1.386 . S
C836 C831 1.490 . S
C836 C838 1.395 1_455 S
C836 C839 1.403 . S
H837 C843 0.930 . S
C838 H824 0.930 . S
C838 C836 1.395 1_655 S
C838 C841 1.403 . S
C839 C836 1.403 . S
C839 C840 1.524 . S
C839 C843 1.400 . S
C840 H825 0.960 . S
C840 H826 0.960 . S
C840 H827 0.960 . S
C840 C839 1.524 . S
C841 C838 1.403 . S
C841 C842 1.392 . S
C841 C845 1.495 . S
C842 C841 1.392 . S
C842 C843 1.385 1_655 S
C842 C844 1.478 . S
C843 H837 0.930 . S
C843 C839 1.400 . S
C843 C842 1.385 1_455 S
C844 C842 1.478 . S
C844 C846 1.381 . S
C844 C850 1.383 1_655 S
C845 C841 1.495 . S
C845 H851 0.959 . S
C845 H852 0.961 . S
C845 H853 0.960 . S
C846 C844 1.381 . S
C846 C847 1.394 . S
C846 H854 0.930 . S
C847 C846 1.394 . S
C847 C848 1.383 . S
C847 H855 0.929 . S
C848 C847 1.383 . S
C848 C849 1.377 1_655 S
C849 H833 0.930 . S
C849 C848 1.377 1_455 S
C849 C850 1.379 . S
C850 H834 0.931 . S
C850 C844 1.383 1_455 S
C850 C849 1.379 . S
H851 C845 0.959 . S
H852 C845 0.961 . S
H853 C845 0.960 . S
H854 C846 0.930 . S
H855 C847 0.929 . S
H856 C864 0.929 . S
H857 C866 0.930 . S
H858 C868 0.930 . S
H859 C871 0.929 . S
H860 C874 0.930 . S
H861 C876 0.960 . S
H862 C876 0.960 . S
H863 C876 0.960 . S
C864 H856 0.929 . S
C864 C865 1.377 . S
C864 C866 1.384 . S
C865 C864 1.377 . S
C865 C871 1.390 . S
C866 H857 0.930 . S
C866 C864 1.384 . S
C866 C867 1.372 . S
C867 C866 1.372 . S
C867 C868 1.400 . S
C867 C872 1.490 . S
C868 H858 0.930 . S
C868 C867 1.400 . S
C868 C871 1.386 . S
H869 C885 0.930 . S
H870 C886 0.931 . S
C871 H859 0.929 . S
C871 C865 1.390 . S
C871 C868 1.386 . S
C872 C867 1.490 . S
C872 C874 1.395 . S
C872 C875 1.403 . S
H873 C879 0.930 . S
C874 H860 0.930 . S
C874 C872 1.395 . S
C874 C877 1.403 . S
C875 C872 1.403 . S
C875 C876 1.524 . S
C875 C879 1.400 . S
C876 H861 0.960 . S
C876 H862 0.960 . S
C876 H863 0.960 . S
C876 C875 1.524 . S
C877 C874 1.403 . S
C877 C878 1.392 . S
C877 C881 1.495 . S
C878 C877 1.392 . S
C878 C879 1.385 . S
C878 C880 1.478 . S
C879 H873 0.930 . S
C879 C875 1.400 . S
C879 C878 1.385 . S
C880 C878 1.478 . S
C880 C882 1.381 . S
C880 C886 1.383 . S
C881 C877 1.495 . S
C881 H887 0.959 . S
C881 H888 0.961 . S
C881 H889 0.960 . S
C882 C880 1.381 . S
C882 C883 1.394 . S
C882 H890 0.930 . S
C883 C882 1.394 . S
C883 C884 1.383 . S
C883 H891 0.929 . S
C884 C883 1.383 . S
C884 C885 1.377 . S
C885 H869 0.930 . S
C885 C884 1.377 . S
C885 C886 1.379 . S
C886 H870 0.931 . S
C886 C880 1.383 . S
C886 C885 1.379 . S
H887 C881 0.959 . S
H888 C881 0.961 . S
H889 C881 0.960 . S
H890 C882 0.930 . S
H891 C883 0.929 . S
H892 C900 0.929 . S
H893 C902 0.930 . S
H894 C904 0.930 . S
H895 C907 0.929 . S
H896 C910 0.930 . S
H897 C912 0.960 . S
H898 C912 0.960 . S
H899 C912 0.960 . S
C900 H892 0.929 . S
C900 C901 1.377 . S
C900 C902 1.384 . S
C901 C900 1.377 . S
C901 C907 1.390 . S
C902 H893 0.930 . S
C902 C900 1.384 . S
C902 C903 1.372 . S
C903 C902 1.372 . S
C903 C904 1.400 . S
C903 C908 1.490 . S
C904 H894 0.930 . S
C904 C903 1.400 . S
C904 C907 1.386 . S
H905 C921 0.930 . S
H906 C922 0.931 . S
C907 H895 0.929 . S
C907 C901 1.390 . S
C907 C904 1.386 . S
C908 C903 1.490 . S
C908 C910 1.395 . S
C908 C911 1.403 . S
H909 C915 0.930 . S
C910 H896 0.930 . S
C910 C908 1.395 . S
C910 C913 1.403 . S
C911 C908 1.403 . S
C911 C912 1.524 . S
C911 C915 1.400 . S
C912 H897 0.960 . S
C912 H898 0.960 . S
C912 H899 0.960 . S
C912 C911 1.524 . S
C913 C910 1.403 . S
C913 C914 1.392 . S
C913 C917 1.495 . S
C914 C913 1.392 . S
C914 C915 1.385 . S
C914 C916 1.478 . S
C915 H909 0.930 . S
C915 C911 1.400 . S
C915 C914 1.385 . S
C916 C914 1.478 . S
C916 C918 1.381 . S
C916 C922 1.383 . S
C917 C913 1.495 . S
C917 H923 0.959 . S
C917 H924 0.961 . S
C917 H925 0.960 . S
C918 C916 1.381 . S
C918 C919 1.394 . S
C918 H926 0.930 . S
C919 C918 1.394 . S
C919 C920 1.383 . S
C919 H927 0.929 . S
C920 C919 1.383 . S
C920 C921 1.377 . S
C921 H905 0.930 . S
C921 C920 1.377 . S
C921 C922 1.379 . S
C922 H906 0.931 . S
C922 C916 1.383 . S
C922 C921 1.379 . S
H923 C917 0.959 . S
H924 C917 0.961 . S
H925 C917 0.960 . S
H926 C918 0.930 . S
H927 C919 0.929 . S
H928 C936 0.929 . S
H929 C938 0.930 . S
H930 C940 0.930 . S
H931 C943 0.929 . S
H932 C946 0.930 . S
H933 C948 0.960 . S
H934 C948 0.960 . S
H935 C948 0.960 . S
C936 H928 0.929 . S
C936 C937 1.377 . S
C936 C938 1.384 . S
C937 C936 1.377 . S
C937 C943 1.390 . S
C938 H929 0.930 . S
C938 C936 1.384 . S
C938 C939 1.372 . S
C939 C938 1.372 . S
C939 C940 1.400 . S
C939 C944 1.490 . S
C940 H930 0.930 . S
C940 C939 1.400 . S
C940 C943 1.386 . S
H941 C957 0.930 . S
H942 C958 0.931 . S
C943 H931 0.929 . S
C943 C937 1.390 . S
C943 C940 1.386 . S
C944 C939 1.490 . S
C944 C946 1.395 . S
C944 C947 1.403 . S
H945 C951 0.930 . S
C946 H932 0.930 . S
C946 C944 1.395 . S
C946 C949 1.403 . S
C947 C944 1.403 . S
C947 C948 1.524 . S
C947 C951 1.400 . S
C948 H933 0.960 . S
C948 H934 0.960 . S
C948 H935 0.960 . S
C948 C947 1.524 . S
C949 C946 1.403 . S
C949 C950 1.392 . S
C949 C953 1.495 . S
C950 C949 1.392 . S
C950 C951 1.385 . S
C950 C952 1.478 . S
C951 H945 0.930 . S
C951 C947 1.400 . S
C951 C950 1.385 . S
C952 C950 1.478 . S
C952 C954 1.381 . S
C952 C958 1.383 . S
C953 C949 1.495 . S
C953 H959 0.959 . S
C953 H960 0.961 . S
C953 H961 0.960 . S
C954 C952 1.381 . S
C954 C955 1.394 . S
C954 H962 0.930 . S
C955 C954 1.394 . S
C955 C956 1.383 . S
C955 H963 0.929 . S
C956 C955 1.383 . S
C956 C957 1.377 . S
C957 H941 0.930 . S
C957 C956 1.377 . S
C957 C958 1.379 . S
C958 H942 0.931 . S
C958 C952 1.383 . S
C958 C957 1.379 . S
H959 C953 0.959 . S
H960 C953 0.961 . S
H961 C953 0.960 . S
H962 C954 0.930 . S
H963 C955 0.929 . S
H964 C972 0.929 . S
H965 C974 0.930 . S
H966 C976 0.930 . S
H967 C979 0.929 . S
H968 C982 0.930 . S
H969 C984 0.960 . S
H970 C984 0.960 . S
H971 C984 0.960 . S
C972 H964 0.929 . S
C972 C973 1.377 . S
C972 C974 1.384 . S
C973 C972 1.377 . S
C973 C979 1.390 . S
C974 H965 0.930 . S
C974 C972 1.384 . S
C974 C975 1.372 . S
C975 C974 1.372 . S
C975 C976 1.400 . S
C975 C980 1.490 . S
C976 H966 0.930 . S
C976 C975 1.400 . S
C976 C979 1.386 . S
H977 C993 0.930 . S
H978 C994 0.931 . S
C979 H967 0.929 . S
C979 C973 1.390 . S
C979 C976 1.386 . S
C980 C975 1.490 . S
C980 C982 1.395 . S
C980 C983 1.403 . S
H981 C987 0.930 . S
C982 H968 0.930 . S
C982 C980 1.395 . S
C982 C985 1.403 . S
C983 C980 1.403 . S
C983 C984 1.524 . S
C983 C987 1.400 . S
C984 H969 0.960 . S
C984 H970 0.960 . S
C984 H971 0.960 . S
C984 C983 1.524 . S
C985 C982 1.403 . S
C985 C986 1.392 . S
C985 C989 1.495 . S
C986 C985 1.392 . S
C986 C987 1.385 . S
C986 C988 1.478 . S
C987 H981 0.930 . S
C987 C983 1.400 . S
C987 C986 1.385 . S
C988 C986 1.478 . S
C988 C990 1.381 . S
C988 C994 1.383 . S
C989 C985 1.495 . S
C989 H995 0.959 . S
C989 H996 0.961 . S
C989 H997 0.960 . S
C990 C988 1.381 . S
C990 C991 1.394 . S
C990 H998 0.930 . S
C991 C990 1.394 . S
C991 C992 1.383 . S
C991 H999 0.929 . S
C992 C991 1.383 . S
C992 C993 1.377 . S
C993 H977 0.930 . S
C993 C992 1.377 . S
C993 C994 1.379 . S
C994 H978 0.931 . S
C994 C988 1.383 . S
C994 C993 1.379 . S
H995 C989 0.959 . S
H996 C989 0.961 . S
H997 C989 0.960 . S
H998 C990 0.930 . S
H999 C991 0.929 . S
H1000 C1008 0.929 1_545 S
H1001 C1010 0.930 . S
H1002 C1012 0.930 . S
H1003 C1015 0.929 . S
H1004 C1018 0.933 1_545 S
H1005 C1020 0.960 . S
H1006 C1020 0.960 . S
H1007 C1020 0.960 . S
C1008 H1000 0.929 1_565 S
C1008 C1009 1.377 . S
C1008 C1010 1.384 1_565 S
C1009 C1008 1.377 . S
C1009 C1015 1.390 . S
C1010 H1001 0.930 . S
C1010 C1008 1.384 1_545 S
C1010 C1011 1.372 1_545 S
C1011 C1010 1.372 1_565 S
C1011 C1012 1.400 . S
C1011 C1016 1.490 . S
C1012 H1002 0.930 . S
C1012 C1011 1.400 . S
C1012 C1015 1.386 . S
H1013 C1029 0.930 . S
H1014 C1030 0.931 . S
C1015 H1003 0.929 . S
C1015 C1009 1.390 . S
C1015 C1012 1.386 . S
C1016 C1011 1.490 . S
C1016 C1018 1.395 . S
C1016 C1019 1.403 . S
H1017 C1023 0.930 . S
C1018 H1004 0.933 1_565 S
C1018 C1016 1.395 . S
C1018 C1021 1.403 1_565 S
C1019 C1016 1.403 . S
C1019 C1020 1.524 . S
C1019 C1023 1.400 . S
C1020 H1005 0.960 . S
C1020 H1006 0.960 . S
C1020 H1007 0.960 . S
C1020 C1019 1.524 . S
C1021 C1018 1.403 1_545 S
C1021 C1022 1.392 1_545 S
C1021 C1025 1.495 . S
C1022 C1021 1.392 1_565 S
C1022 C1023 1.385 . S
C1022 C1024 1.478 1_565 S
C1023 H1017 0.930 . S
C1023 C1019 1.400 . S
C1023 C1022 1.385 . S
C1024 C1022 1.478 1_545 S
C1024 C1026 1.381 . S
C1024 C1030 1.383 1_545 S
C1025 C1021 1.495 . S
C1025 H1031 0.959 . S
C1025 H1032 0.954 1_545 S
C1025 H1033 0.960 . S
C1026 C1024 1.381 . S
C1026 C1027 1.394 . S
C1026 H1034 0.930 . S
C1027 C1026 1.394 . S
C1027 C1028 1.383 . S
C1027 H1035 0.929 . S
C1028 C1027 1.383 . S
C1028 C1029 1.377 1_545 S
C1029 H1013 0.930 . S
C1029 C1028 1.377 1_565 S
C1029 C1030 1.379 . S
C1030 H1014 0.931 . S
C1030 C1024 1.383 1_565 S
C1030 C1029 1.379 . S
H1031 C1025 0.959 . S
H1032 C1025 0.954 1_565 S
H1033 C1025 0.960 . S
H1034 C1026 0.930 . S
H1035 C1027 0.929 . S
H1036 C1044 0.929 . S
H1037 C1046 0.930 . S
H1038 C1048 0.930 . S
H1039 C1051 0.929 . S
H1040 C1054 0.930 . S
H1041 C1056 0.960 . S
H1042 C1056 0.960 1_455 S
H1043 C1056 0.960 . S
C1044 H1036 0.929 . S
C1044 C1045 1.377 . S
C1044 C1046 1.384 . S
C1045 C1044 1.377 . S
C1045 C1051 1.390 1_455 S
C1046 H1037 0.930 . S
C1046 C1044 1.384 . S
C1046 C1047 1.372 . S
C1047 C1046 1.372 . S
C1047 C1048 1.400 1_455 S
C1047 C1052 1.490 . S
C1048 H1038 0.930 . S
C1048 C1047 1.400 1_655 S
C1048 C1051 1.386 . S
H1049 C1065 0.930 . S
H1050 C1066 0.931 . S
C1051 H1039 0.929 . S
C1051 C1045 1.390 1_655 S
C1051 C1048 1.386 . S
C1052 C1047 1.490 . S
C1052 C1054 1.395 . S
C1052 C1055 1.403 . S
H1053 C1059 0.937 . S
C1054 H1040 0.930 . S
C1054 C1052 1.395 . S
C1054 C1057 1.403 . S
C1055 C1052 1.403 . S
C1055 C1056 1.524 1_455 S
C1055 C1059 1.392 1_455 S
C1056 H1041 0.960 . S
C1056 H1042 0.960 1_655 S
C1056 H1043 0.960 . S
C1056 C1055 1.524 1_655 S
C1057 C1054 1.403 . S
C1057 C1058 1.392 . S
C1057 C1061 1.495 . S
C1058 C1057 1.392 . S
C1058 C1059 1.386 1_455 S
C1058 C1060 1.495 . S
C1059 H1053 0.937 . S
C1059 C1055 1.392 1_655 S
C1059 C1058 1.386 1_655 S
C1060 C1058 1.495 . S
C1060 C1062 1.401 . S
C1060 C1066 1.346 1_455 S
C1061 C1057 1.495 . S
C1061 H1067 0.959 . S
C1061 H1068 1.007 . S
C1061 H1069 0.960 . S
C1062 C1060 1.401 . S
C1062 C1063 1.394 . S
C1062 H1070 0.930 . S
C1063 C1062 1.394 . S
C1063 C1064 1.383 1_455 S
C1063 H1071 0.929 . S
C1064 C1063 1.383 1_655 S
C1064 C1065 1.377 . S
C1065 H1049 0.930 . S
C1065 C1064 1.377 . S
C1065 C1066 1.379 . S
C1066 H1050 0.931 . S
C1066 C1060 1.346 1_655 S
C1066 C1065 1.379 . S
H1067 C1061 0.959 . S
H1068 C1061 1.007 . S
H1069 C1061 0.960 . S
H1070 C1062 0.930 . S
H1071 C1063 0.929 . S
H1072 C1080 0.929 . S
H1073 C1082 0.930 . S
H1074 C1084 0.930 . S
H1075 C1087 0.929 . S
H1076 C1090 0.900 1_554 S
H1077 C1092 0.960 . S
H1078 C1092 0.960 . S
H1079 C1092 0.960 . S
C1080 H1072 0.929 . S
C1080 C1081 1.377 . S
C1080 C1082 1.384 . S
C1081 C1080 1.377 . S
C1081 C1087 1.390 . S
C1082 H1073 0.930 . S
C1082 C1080 1.384 . S
C1082 C1083 1.372 . S
C1083 C1082 1.372 . S
C1083 C1084 1.400 . S
C1083 C1088 1.490 . S
C1084 H1074 0.930 . S
C1084 C1083 1.400 . S
C1084 C1087 1.386 . S
H1085 C1101 0.930 . S
H1086 C1102 0.931 . S
C1087 H1075 0.929 . S
C1087 C1081 1.390 . S
C1087 C1084 1.386 . S
C1088 C1083 1.490 . S
C1088 C1090 1.445 . S
C1088 C1091 1.403 . S
H1089 C1095 0.930 . S
C1090 H1076 0.900 1_556 S
C1090 C1088 1.445 . S
C1090 C1093 1.383 1_556 S
C1091 C1088 1.403 . S
C1091 C1092 1.524 . S
C1091 C1095 1.400 . S
C1092 H1077 0.960 . S
C1092 H1078 0.960 . S
C1092 H1079 0.960 . S
C1092 C1091 1.524 . S
C1093 C1090 1.383 1_554 S
C1093 C1094 1.392 1_554 S
C1093 C1097 1.495 . S
C1094 C1093 1.392 1_556 S
C1094 C1095 1.385 . S
C1094 C1096 1.478 . S
C1095 H1089 0.930 . S
C1095 C1091 1.400 . S
C1095 C1094 1.385 . S
C1096 C1094 1.478 . S
C1096 C1098 1.381 . S
C1096 C1102 1.383 . S
C1097 C1093 1.495 . S
C1097 H1103 0.959 . S
C1097 H1104 0.961 . S
C1097 H1105 0.960 . S
C1098 C1096 1.381 . S
C1098 C1099 1.394 . S
C1098 H1106 0.930 1_556 S
C1099 C1098 1.394 . S
C1099 C1100 1.383 . S
C1099 H1107 0.929 1_556 S
C1100 C1099 1.383 . S
C1100 C1101 1.377 . S
C1101 H1085 0.930 . S
C1101 C1100 1.377 . S
C1101 C1102 1.379 . S
C1102 H1086 0.931 . S
C1102 C1096 1.383 . S
C1102 C1101 1.379 . S
H1103 C1097 0.959 . S
H1104 C1097 0.961 . S
H1105 C1097 0.960 . S
H1106 C1098 0.930 1_554 S
H1107 C1099 0.929 1_554 S
H1108 C1116 0.929 . S
H1109 C1118 0.930 . S
H1110 C1120 0.930 . S
H1111 C1123 0.929 . S
H1112 C1126 0.930 . S
H1113 C1128 0.960 . S
H1114 C1128 0.960 . S
H1115 C1128 0.960 . S
C1116 H1108 0.929 . S
C1116 C1117 1.377 . S
C1116 C1118 1.384 . S
C1117 C1116 1.377 . S
C1117 C1123 1.390 . S
C1118 H1109 0.930 . S
C1118 C1116 1.384 . S
C1118 C1119 1.372 . S
C1119 C1118 1.372 . S
C1119 C1120 1.400 . S
C1119 C1124 1.490 . S
C1120 H1110 0.930 . S
C1120 C1119 1.400 . S
C1120 C1123 1.386 . S
H1121 C1137 0.930 . S
H1122 C1138 0.931 . S
C1123 H1111 0.929 . S
C1123 C1117 1.390 . S
C1123 C1120 1.386 . S
C1124 C1119 1.490 . S
C1124 C1126 1.395 . S
C1124 C1127 1.403 . S
H1125 C1131 0.930 . S
C1126 H1112 0.930 . S
C1126 C1124 1.395 . S
C1126 C1129 1.403 . S
C1127 C1124 1.403 . S
C1127 C1128 1.524 . S
C1127 C1131 1.400 . S
C1128 H1113 0.960 . S
C1128 H1114 0.960 . S
C1128 H1115 0.960 . S
C1128 C1127 1.524 . S
C1129 C1126 1.403 . S
C1129 C1130 1.392 . S
C1129 C1133 1.495 . S
C1130 C1129 1.392 . S
C1130 C1131 1.385 . S
C1130 C1132 1.478 . S
C1131 H1125 0.930 . S
C1131 C1127 1.400 . S
C1131 C1130 1.385 . S
C1132 C1130 1.478 . S
C1132 C1134 1.381 . S
C1132 C1138 1.383 . S
C1133 C1129 1.495 . S
C1133 H1139 0.959 . S
C1133 H1140 0.961 . S
C1133 H1141 0.960 . S
C1134 C1132 1.381 . S
C1134 C1135 1.394 . S
C1134 H1142 0.930 . S
C1135 C1134 1.394 . S
C1135 C1136 1.383 . S
C1135 H1143 0.929 . S
C1136 C1135 1.383 . S
C1136 C1137 1.377 . S
C1137 H1121 0.930 . S
C1137 C1136 1.377 . S
C1137 C1138 1.379 . S
C1138 H1122 0.931 . S
C1138 C1132 1.383 . S
C1138 C1137 1.379 . S
H1139 C1133 0.959 . S
H1140 C1133 0.961 . S
H1141 C1133 0.960 . S
H1142 C1134 0.930 . S
H1143 C1135 0.929 . S
H1144 C1152 0.929 . S
H1145 C1154 0.930 . S
H1146 C1156 0.930 . S
H1147 C1159 0.929 . S
H1148 C1162 0.930 . S
H1149 C1164 0.960 . S
H1150 C1164 0.960 . S
H1151 C1164 0.960 . S
C1152 H1144 0.929 . S
C1152 C1153 1.377 . S
C1152 C1154 1.384 . S
C1153 C1152 1.377 . S
C1153 C1159 1.390 . S
C1154 H1145 0.930 . S
C1154 C1152 1.384 . S
C1154 C1155 1.372 . S
C1155 C1154 1.372 . S
C1155 C1156 1.400 . S
C1155 C1160 1.490 . S
C1156 H1146 0.930 . S
C1156 C1155 1.400 . S
C1156 C1159 1.386 . S
H1157 C1173 0.930 . S
H1158 C1174 0.931 . S
C1159 H1147 0.929 . S
C1159 C1153 1.390 . S
C1159 C1156 1.386 . S
C1160 C1155 1.490 . S
C1160 C1162 1.395 . S
C1160 C1163 1.403 . S
H1161 C1167 0.930 . S
C1162 H1148 0.930 . S
C1162 C1160 1.395 . S
C1162 C1165 1.403 . S
C1163 C1160 1.403 . S
C1163 C1164 1.524 . S
C1163 C1167 1.400 . S
C1164 H1149 0.960 . S
C1164 H1150 0.960 . S
C1164 H1151 0.960 . S
C1164 C1163 1.524 . S
C1165 C1162 1.403 . S
C1165 C1166 1.392 . S
C1165 C1169 1.495 . S
C1166 C1165 1.392 . S
C1166 C1167 1.385 . S
C1166 C1168 1.478 . S
C1167 H1161 0.930 . S
C1167 C1163 1.400 . S
C1167 C1166 1.385 . S
C1168 C1166 1.478 . S
C1168 C1170 1.381 . S
C1168 C1174 1.383 . S
C1169 C1165 1.495 . S
C1169 H1175 0.959 . S
C1169 H1176 0.961 . S
C1169 H1177 0.960 . S
C1170 C1168 1.381 . S
C1170 C1171 1.394 . S
C1170 H1178 0.930 . S
C1171 C1170 1.394 . S
C1171 C1172 1.383 . S
C1171 H1179 0.929 . S
C1172 C1171 1.383 . S
C1172 C1173 1.377 . S
C1173 H1157 0.930 . S
C1173 C1172 1.377 . S
C1173 C1174 1.379 . S
C1174 H1158 0.931 . S
C1174 C1168 1.383 . S
C1174 C1173 1.379 . S
H1175 C1169 0.959 . S
H1176 C1169 0.961 . S
H1177 C1169 0.960 . S
H1178 C1170 0.930 . S
H1179 C1171 0.929 . S
H1180 C1188 0.929 . S
H1181 C1190 0.930 . S
H1182 C1192 0.930 . S
H1183 C1195 0.929 . S
H1184 C1198 0.930 . S
H1185 C1200 0.960 . S
H1186 C1200 0.960 . S
H1187 C1200 0.960 . S
C1188 H1180 0.929 . S
C1188 C1189 1.377 . S
C1188 C1190 1.384 . S
C1189 C1188 1.377 . S
C1189 C1195 1.390 . S
C1190 H1181 0.930 . S
C1190 C1188 1.384 . S
C1190 C1191 1.372 . S
C1191 C1190 1.372 . S
C1191 C1192 1.400 . S
C1191 C1196 1.490 . S
C1192 H1182 0.930 . S
C1192 C1191 1.400 . S
C1192 C1195 1.386 . S
H1193 C1209 0.930 . S
H1194 C1210 0.931 . S
C1195 H1183 0.929 . S
C1195 C1189 1.390 . S
C1195 C1192 1.386 . S
C1196 C1191 1.490 . S
C1196 C1198 1.395 . S
C1196 C1199 1.403 . S
H1197 C1203 0.930 . S
C1198 H1184 0.930 . S
C1198 C1196 1.395 . S
C1198 C1201 1.403 . S
C1199 C1196 1.403 . S
C1199 C1200 1.524 . S
C1199 C1203 1.400 . S
C1200 H1185 0.960 . S
C1200 H1186 0.960 . S
C1200 H1187 0.960 . S
C1200 C1199 1.524 . S
C1201 C1198 1.403 . S
C1201 C1202 1.392 . S
C1201 C1205 1.495 . S
C1202 C1201 1.392 . S
C1202 C1203 1.385 . S
C1202 C1204 1.478 . S
C1203 H1197 0.930 . S
C1203 C1199 1.400 . S
C1203 C1202 1.385 . S
C1204 C1202 1.478 . S
C1204 C1206 1.381 . S
C1204 C1210 1.383 . S
C1205 C1201 1.495 . S
C1205 H1211 0.959 . S
C1205 H1212 0.961 . S
C1205 H1213 0.960 . S
C1206 C1204 1.381 . S
C1206 C1207 1.394 . S
C1206 H1214 0.930 . S
C1207 C1206 1.394 . S
C1207 C1208 1.383 . S
C1207 H1215 0.929 . S
C1208 C1207 1.383 . S
C1208 C1209 1.377 . S
C1209 H1193 0.930 . S
C1209 C1208 1.377 . S
C1209 C1210 1.379 . S
C1210 H1194 0.931 . S
C1210 C1204 1.383 . S
C1210 C1209 1.379 . S
H1211 C1205 0.959 . S
H1212 C1205 0.961 . S
H1213 C1205 0.960 . S
H1214 C1206 0.930 . S
H1215 C1207 0.929 . S
H1216 C1224 0.929 . S
H1217 C1226 0.930 . S
H1218 C1228 0.930 . S
H1219 C1231 0.929 . S
H1220 C1234 0.930 . S
H1221 C1236 0.960 . S
H1222 C1236 0.960 . S
H1223 C1236 0.960 . S
C1224 H1216 0.929 . S
C1224 C1225 1.377 . S
C1224 C1226 1.384 . S
C1225 C1224 1.377 . S
C1225 C1231 1.390 . S
C1226 H1217 0.930 . S
C1226 C1224 1.384 . S
C1226 C1227 1.372 . S
C1227 C1226 1.372 . S
C1227 C1228 1.400 . S
C1227 C1232 1.490 . S
C1228 H1218 0.930 . S
C1228 C1227 1.400 . S
C1228 C1231 1.386 . S
H1229 C1245 0.930 . S
H1230 C1246 0.931 . S
C1231 H1219 0.929 . S
C1231 C1225 1.390 . S
C1231 C1228 1.386 . S
C1232 C1227 1.490 . S
C1232 C1234 1.395 . S
C1232 C1235 1.403 . S
H1233 C1239 0.930 . S
C1234 H1220 0.930 . S
C1234 C1232 1.395 . S
C1234 C1237 1.403 . S
C1235 C1232 1.403 . S
C1235 C1236 1.524 . S
C1235 C1239 1.400 . S
C1236 H1221 0.960 . S
C1236 H1222 0.960 . S
C1236 H1223 0.960 . S
C1236 C1235 1.524 . S
C1237 C1234 1.403 . S
C1237 C1238 1.392 . S
C1237 C1241 1.495 . S
C1238 C1237 1.392 . S
C1238 C1239 1.385 . S
C1238 C1240 1.478 . S
C1239 H1233 0.930 . S
C1239 C1235 1.400 . S
C1239 C1238 1.385 . S
C1240 C1238 1.478 . S
C1240 C1242 1.381 . S
C1240 C1246 1.383 . S
C1241 C1237 1.495 . S
C1241 H1247 0.959 . S
C1241 H1248 0.961 . S
C1241 H1249 0.960 . S
C1242 C1240 1.381 . S
C1242 C1243 1.394 . S
C1242 H1250 0.930 . S
C1243 C1242 1.394 . S
C1243 C1244 1.383 . S
C1243 H1251 0.929 . S
C1244 C1243 1.383 . S
C1244 C1245 1.377 . S
C1245 H1229 0.930 . S
C1245 C1244 1.377 . S
C1245 C1246 1.379 . S
C1246 H1230 0.931 . S
C1246 C1240 1.383 . S
C1246 C1245 1.379 . S
H1247 C1241 0.959 . S
H1248 C1241 0.961 . S
H1249 C1241 0.960 . S
H1250 C1242 0.930 . S
H1251 C1243 0.929 . S
H1252 C1260 0.929 . S
H1253 C1262 0.930 . S
H1254 C1264 0.930 . S
H1255 C1267 0.929 . S
H1256 C1270 0.930 . S
H1257 C1272 0.960 . S
H1258 C1272 0.960 . S
H1259 C1272 0.960 . S
C1260 H1252 0.929 . S
C1260 C1261 1.377 . S
C1260 C1262 1.384 . S
C1261 C1260 1.377 . S
C1261 C1267 1.390 . S
C1262 H1253 0.930 . S
C1262 C1260 1.384 . S
C1262 C1263 1.372 . S
C1263 C1262 1.372 . S
C1263 C1264 1.400 . S
C1263 C1268 1.490 . S
C1264 H1254 0.930 . S
C1264 C1263 1.400 . S
C1264 C1267 1.386 . S
H1265 C1281 0.930 . S
H1266 C1282 0.931 . S
C1267 H1255 0.929 . S
C1267 C1261 1.390 . S
C1267 C1264 1.386 . S
C1268 C1263 1.490 . S
C1268 C1270 1.395 . S
C1268 C1271 1.403 . S
H1269 C1275 0.930 . S
C1270 H1256 0.930 . S
C1270 C1268 1.395 . S
C1270 C1273 1.403 . S
C1271 C1268 1.403 . S
C1271 C1272 1.524 . S
C1271 C1275 1.400 . S
C1272 H1257 0.960 . S
C1272 H1258 0.960 . S
C1272 H1259 0.960 . S
C1272 C1271 1.524 . S
C1273 C1270 1.403 . S
C1273 C1274 1.392 . S
C1273 C1277 1.495 . S
C1274 C1273 1.392 . S
C1274 C1275 1.385 . S
C1274 C1276 1.478 . S
C1275 H1269 0.930 . S
C1275 C1271 1.400 . S
C1275 C1274 1.385 . S
C1276 C1274 1.478 . S
C1276 C1278 1.381 . S
C1276 C1282 1.383 . S
C1277 C1273 1.495 . S
C1277 H1283 0.959 . S
C1277 H1284 0.961 . S
C1277 H1285 0.960 . S
C1278 C1276 1.381 . S
C1278 C1279 1.394 . S
C1278 H1286 0.930 . S
C1279 C1278 1.394 . S
C1279 C1280 1.383 . S
C1279 H1287 0.929 . S
C1280 C1279 1.383 . S
C1280 C1281 1.377 . S
C1281 H1265 0.930 . S
C1281 C1280 1.377 . S
C1281 C1282 1.379 . S
C1282 H1266 0.931 . S
C1282 C1276 1.383 . S
C1282 C1281 1.379 . S
H1283 C1277 0.959 . S
H1284 C1277 0.961 . S
H1285 C1277 0.960 . S
H1286 C1278 0.930 . S
H1287 C1279 0.929 . S
H1288 C1296 0.929 . S
H1289 C1298 0.930 . S
H1290 C1300 0.930 . S
H1291 C1303 0.929 . S
H1292 C1306 0.930 . S
H1293 C1308 0.960 . S
H1294 C1308 0.960 . S
H1295 C1308 0.960 . S
C1296 H1288 0.929 . S
C1296 C1297 1.377 . S
C1296 C1298 1.384 . S
C1297 C1296 1.377 . S
C1297 C1303 1.390 . S
C1298 H1289 0.930 . S
C1298 C1296 1.384 . S
C1298 C1299 1.372 . S
C1299 C1298 1.372 . S
C1299 C1300 1.400 . S
C1299 C1304 1.490 . S
C1300 H1290 0.930 . S
C1300 C1299 1.400 . S
C1300 C1303 1.386 . S
H1301 C1317 0.930 . S
H1302 C1318 0.931 . S
C1303 H1291 0.929 . S
C1303 C1297 1.390 . S
C1303 C1300 1.386 . S
C1304 C1299 1.490 . S
C1304 C1306 1.395 . S
C1304 C1307 1.403 . S
H1305 C1311 0.930 . S
C1306 H1292 0.930 . S
C1306 C1304 1.395 . S
C1306 C1309 1.403 . S
C1307 C1304 1.403 . S
C1307 C1308 1.524 . S
C1307 C1311 1.400 . S
C1308 H1293 0.960 . S
C1308 H1294 0.960 . S
C1308 H1295 0.960 . S
C1308 C1307 1.524 . S
C1309 C1306 1.403 . S
C1309 C1310 1.392 . S
C1309 C1313 1.495 . S
C1310 C1309 1.392 . S
C1310 C1311 1.385 . S
C1310 C1312 1.478 . S
C1311 H1305 0.930 . S
C1311 C1307 1.400 . S
C1311 C1310 1.385 . S
C1312 C1310 1.478 . S
C1312 C1314 1.381 . S
C1312 C1318 1.383 . S
C1313 C1309 1.495 . S
C1313 H1319 0.959 . S
C1313 H1320 0.961 . S
C1313 H1321 0.960 . S
C1314 C1312 1.381 . S
C1314 C1315 1.394 . S
C1314 H1322 0.930 . S
C1315 C1314 1.394 . S
C1315 C1316 1.383 . S
C1315 H1323 0.929 . S
C1316 C1315 1.383 . S
C1316 C1317 1.377 . S
C1317 H1301 0.930 . S
C1317 C1316 1.377 . S
C1317 C1318 1.379 . S
C1318 H1302 0.931 . S
C1318 C1312 1.383 . S
C1318 C1317 1.379 . S
H1319 C1313 0.959 . S
H1320 C1313 0.961 . S
H1321 C1313 0.960 . S
H1322 C1314 0.930 . S
H1323 C1315 0.929 . S
H1324 C1332 0.929 . S
H1325 C1334 0.930 . S
H1326 C1336 0.930 . S
H1327 C1339 0.929 . S
H1328 C1342 0.930 . S
H1329 C1344 0.960 . S
H1330 C1344 0.960 . S
H1331 C1344 0.960 . S
C1332 H1324 0.929 . S
C1332 C1333 1.377 . S
C1332 C1334 1.384 . S
C1333 C1332 1.377 . S
C1333 C1339 1.390 . S
C1334 H1325 0.930 . S
C1334 C1332 1.384 . S
C1334 C1335 1.372 . S
C1335 C1334 1.372 . S
C1335 C1336 1.400 . S
C1335 C1340 1.490 . S
C1336 H1326 0.930 . S
C1336 C1335 1.400 . S
C1336 C1339 1.386 . S
H1337 C1353 0.930 . S
H1338 C1354 0.931 . S
C1339 H1327 0.929 . S
C1339 C1333 1.390 . S
C1339 C1336 1.386 . S
C1340 C1335 1.490 . S
C1340 C1342 1.395 . S
C1340 C1343 1.403 . S
H1341 C1347 0.930 . S
C1342 H1328 0.930 . S
C1342 C1340 1.395 . S
C1342 C1345 1.403 . S
C1343 C1340 1.403 . S
C1343 C1344 1.524 . S
C1343 C1347 1.400 . S
C1344 H1329 0.960 . S
C1344 H1330 0.960 . S
C1344 H1331 0.960 . S
C1344 C1343 1.524 . S
C1345 C1342 1.403 . S
C1345 C1346 1.392 . S
C1345 C1349 1.495 . S
C1346 C1345 1.392 . S
C1346 C1347 1.385 . S
C1346 C1348 1.478 . S
C1347 H1341 0.930 . S
C1347 C1343 1.400 . S
C1347 C1346 1.385 . S
C1348 C1346 1.478 . S
C1348 C1350 1.381 . S
C1348 C1354 1.383 . S
C1349 C1345 1.495 . S
C1349 H1355 0.959 . S
C1349 H1356 0.961 . S
C1349 H1357 0.960 . S
C1350 C1348 1.381 . S
C1350 C1351 1.394 . S
C1350 H1358 0.930 . S
C1351 C1350 1.394 . S
C1351 C1352 1.383 . S
C1351 H1359 0.929 . S
C1352 C1351 1.383 . S
C1352 C1353 1.377 . S
C1353 H1337 0.930 . S
C1353 C1352 1.377 . S
C1353 C1354 1.379 . S
C1354 H1338 0.931 . S
C1354 C1348 1.383 . S
C1354 C1353 1.379 . S
H1355 C1349 0.959 . S
H1356 C1349 0.961 . S
H1357 C1349 0.960 . S
H1358 C1350 0.930 . S
H1359 C1351 0.929 . S
H1360 C1368 0.929 . S
H1361 C1370 0.930 . S
H1362 C1372 0.930 . S
H1363 C1375 0.929 . S
H1364 C1378 0.930 . S
H1365 C1380 0.960 . S
H1366 C1380 0.960 . S
H1367 C1380 0.960 . S
C1368 H1360 0.929 . S
C1368 C1369 1.377 . S
C1368 C1370 1.384 . S
C1369 C1368 1.377 . S
C1369 C1375 1.390 . S
C1370 H1361 0.930 . S
C1370 C1368 1.384 . S
C1370 C1371 1.372 . S
C1371 C1370 1.372 . S
C1371 C1372 1.400 . S
C1371 C1376 1.490 . S
C1372 H1362 0.930 . S
C1372 C1371 1.400 . S
C1372 C1375 1.386 . S
H1373 C1389 0.930 . S
H1374 C1390 0.931 . S
C1375 H1363 0.929 . S
C1375 C1369 1.390 . S
C1375 C1372 1.386 . S
C1376 C1371 1.490 . S
C1376 C1378 1.395 . S
C1376 C1379 1.403 . S
H1377 C1383 0.930 . S
C1378 H1364 0.930 . S
C1378 C1376 1.395 . S
C1378 C1381 1.403 . S
C1379 C1376 1.403 . S
C1379 C1380 1.524 . S
C1379 C1383 1.400 . S
C1380 H1365 0.960 . S
C1380 H1366 0.960 . S
C1380 H1367 0.960 . S
C1380 C1379 1.524 . S
C1381 C1378 1.403 . S
C1381 C1382 1.392 . S
C1381 C1385 1.495 . S
C1382 C1381 1.392 . S
C1382 C1383 1.385 . S
C1382 C1384 1.478 . S
C1383 H1377 0.930 . S
C1383 C1379 1.400 . S
C1383 C1382 1.385 . S
C1384 C1382 1.478 . S
C1384 C1386 1.381 . S
C1384 C1390 1.383 . S
C1385 C1381 1.495 . S
C1385 H1391 0.959 . S
C1385 H1392 0.961 . S
C1385 H1393 0.960 . S
C1386 C1384 1.381 . S
C1386 C1387 1.394 . S
C1386 H1394 0.930 . S
C1387 C1386 1.394 . S
C1387 C1388 1.383 . S
C1387 H1395 0.929 . S
C1388 C1387 1.383 . S
C1388 C1389 1.377 . S
C1389 H1373 0.930 . S
C1389 C1388 1.377 . S
C1389 C1390 1.379 . S
C1390 H1374 0.931 . S
C1390 C1384 1.383 . S
C1390 C1389 1.379 . S
H1391 C1385 0.959 . S
H1392 C1385 0.961 . S
H1393 C1385 0.960 . S
H1394 C1386 0.930 . S
H1395 C1387 0.929 . S
H1396 C1404 0.929 . S
H1397 C1406 0.930 . S
H1398 C1408 0.930 . S
H1399 C1411 0.929 . S
H1400 C1414 0.930 . S
H1401 C1416 0.960 . S
H1402 C1416 0.960 . S
H1403 C1416 0.960 1_655 S
C1404 H1396 0.929 . S
C1404 C1405 1.377 . S
C1404 C1406 1.384 . S
C1405 C1404 1.377 . S
C1405 C1411 1.390 1_455 S
C1406 H1397 0.930 . S
C1406 C1404 1.384 . S
C1406 C1407 1.372 . S
C1407 C1406 1.372 . S
C1407 C1408 1.400 1_455 S
C1407 C1412 1.482 1_455 S
C1408 H1398 0.930 . S
C1408 C1407 1.400 1_655 S
C1408 C1411 1.386 . S
H1409 C1425 0.930 . S
H1410 C1426 0.931 . S
C1411 H1399 0.929 . S
C1411 C1405 1.390 1_655 S
C1411 C1408 1.386 . S
C1412 C1407 1.482 1_655 S
C1412 C1414 1.403 . S
C1412 C1415 1.403 1_655 S
H1413 C1419 0.939 1_455 S
C1414 H1400 0.930 . S
C1414 C1412 1.403 . S
C1414 C1417 1.403 . S
C1415 C1412 1.403 1_455 S
C1415 C1416 1.524 . S
C1415 C1419 1.385 1_455 S
C1416 H1401 0.960 . S
C1416 H1402 0.960 . S
C1416 H1403 0.960 1_455 S
C1416 C1415 1.524 . S
C1417 C1414 1.403 . S
C1417 C1418 1.392 . S
C1417 C1421 1.495 . S
C1418 C1417 1.392 . S
C1418 C1419 1.399 . S
C1418 C1420 1.478 . S
C1419 H1413 0.939 1_655 S
C1419 C1415 1.385 1_655 S
C1419 C1418 1.399 . S
C1420 C1418 1.478 . S
C1420 C1422 1.381 1_655 S
C1420 C1426 1.383 . S
C1421 C1417 1.495 . S
C1421 H1427 0.959 . S
C1421 H1428 0.961 . S
C1421 H1429 0.960 . S
C1422 C1420 1.381 1_455 S
C1422 C1423 1.394 . S
C1422 H1430 0.930 . S
C1423 C1422 1.394 . S
C1423 C1424 1.383 1_455 S
C1423 H1431 0.929 . S
C1424 C1423 1.383 1_655 S
C1424 C1425 1.377 . S
C1425 H1409 0.930 . S
C1425 C1424 1.377 . S
C1425 C1426 1.379 . S
C1426 H1410 0.931 . S
C1426 C1420 1.383 . S
C1426 C1425 1.379 . S
H1427 C1421 0.959 . S
H1428 C1421 0.961 . S
H1429 C1421 0.960 . S
H1430 C1422 0.930 . S
H1431 C1423 0.929 . S
H1432 C1440 0.929 . S
H1433 C1442 0.930 . S
H1434 C1444 0.930 . S
H1435 C1447 0.929 . S
H1436 C1450 0.930 . S
H1437 C1452 0.960 . S
H1438 C1452 0.960 . S
H1439 C1452 0.960 . S
C1440 H1432 0.929 . S
C1440 C1441 1.377 . S
C1440 C1442 1.384 . S
C1441 C1440 1.377 . S
C1441 C1447 1.390 . S
C1442 H1433 0.930 . S
C1442 C1440 1.384 . S
C1442 C1443 1.372 . S
C1443 C1442 1.372 . S
C1443 C1444 1.400 . S
C1443 C1448 1.490 . S
C1444 H1434 0.930 . S
C1444 C1443 1.400 . S
C1444 C1447 1.386 . S
H1445 C1461 0.930 . S
H1446 C1462 0.931 . S
C1447 H1435 0.929 . S
C1447 C1441 1.390 . S
C1447 C1444 1.386 . S
C1448 C1443 1.490 . S
C1448 C1450 1.395 . S
C1448 C1451 1.403 . S
H1449 C1455 0.930 . S
C1450 H1436 0.930 . S
C1450 C1448 1.395 . S
C1450 C1453 1.403 . S
C1451 C1448 1.403 . S
C1451 C1452 1.524 . S
C1451 C1455 1.400 . S
C1452 H1437 0.960 . S
C1452 H1438 0.960 . S
C1452 H1439 0.960 . S
C1452 C1451 1.524 . S
C1453 C1450 1.403 . S
C1453 C1454 1.392 . S
C1453 C1457 1.495 . S
C1454 C1453 1.392 . S
C1454 C1455 1.385 . S
C1454 C1456 1.478 . S
C1455 H1449 0.930 . S
C1455 C1451 1.400 . S
C1455 C1454 1.385 . S
C1456 C1454 1.478 . S
C1456 C1458 1.381 . S
C1456 C1462 1.383 . S
C1457 C1453 1.495 . S
C1457 H1463 0.959 . S
C1457 H1464 0.961 . S
C1457 H1465 0.960 . S
C1458 C1456 1.381 . S
C1458 C1459 1.394 . S
C1458 H1466 0.930 . S
C1459 C1458 1.394 . S
C1459 C1460 1.383 . S
C1459 H1467 0.929 . S
C1460 C1459 1.383 . S
C1460 C1461 1.377 . S
C1461 H1445 0.930 . S
C1461 C1460 1.377 . S
C1461 C1462 1.379 . S
C1462 H1446 0.931 . S
C1462 C1456 1.383 . S
C1462 C1461 1.379 . S
H1463 C1457 0.959 . S
H1464 C1457 0.961 . S
H1465 C1457 0.960 . S
H1466 C1458 0.930 . S
H1467 C1459 0.929 . S
H1468 C1476 0.929 . S
H1469 C1478 0.930 . S
H1470 C1480 0.930 . S
H1471 C1483 0.929 . S
H1472 C1486 0.930 . S
H1473 C1488 0.960 . S
H1474 C1488 0.960 . S
H1475 C1488 0.960 . S
C1476 H1468 0.929 . S
C1476 C1477 1.377 . S
C1476 C1478 1.384 . S
C1477 C1476 1.377 . S
C1477 C1483 1.390 . S
C1478 H1469 0.930 . S
C1478 C1476 1.384 . S
C1478 C1479 1.372 . S
C1479 C1478 1.372 . S
C1479 C1480 1.400 . S
C1479 C1484 1.490 . S
C1480 H1470 0.930 . S
C1480 C1479 1.400 . S
C1480 C1483 1.386 . S
H1481 C1497 0.930 . S
H1482 C1498 0.931 . S
C1483 H1471 0.929 . S
C1483 C1477 1.390 . S
C1483 C1480 1.386 . S
C1484 C1479 1.490 . S
C1484 C1486 1.395 . S
C1484 C1487 1.403 . S
H1485 C1491 0.930 . S
C1486 H1472 0.930 . S
C1486 C1484 1.395 . S
C1486 C1489 1.403 . S
C1487 C1484 1.403 . S
C1487 C1488 1.524 . S
C1487 C1491 1.400 . S
C1488 H1473 0.960 . S
C1488 H1474 0.960 . S
C1488 H1475 0.960 . S
C1488 C1487 1.524 . S
C1489 C1486 1.403 . S
C1489 C1490 1.392 . S
C1489 C1493 1.495 . S
C1490 C1489 1.392 . S
C1490 C1491 1.385 . S
C1490 C1492 1.478 . S
C1491 H1485 0.930 . S
C1491 C1487 1.400 . S
C1491 C1490 1.385 . S
C1492 C1490 1.478 . S
C1492 C1494 1.381 . S
C1492 C1498 1.383 . S
C1493 C1489 1.495 . S
C1493 H1499 0.959 . S
C1493 H1500 0.961 . S
C1493 H1501 0.960 . S
C1494 C1492 1.381 . S
C1494 C1495 1.394 . S
C1494 H1502 0.930 . S
C1495 C1494 1.394 . S
C1495 C1496 1.383 . S
C1495 H1503 0.929 . S
C1496 C1495 1.383 . S
C1496 C1497 1.377 . S
C1497 H1481 0.930 . S
C1497 C1496 1.377 . S
C1497 C1498 1.379 . S
C1498 H1482 0.931 . S
C1498 C1492 1.383 . S
C1498 C1497 1.379 . S
H1499 C1493 0.959 . S
H1500 C1493 0.961 . S
H1501 C1493 0.960 . S
H1502 C1494 0.930 . S
H1503 C1495 0.929 . S
H1504 C1512 0.929 . S
H1505 C1514 0.930 . S
H1506 C1516 0.930 . S
H1507 C1519 0.929 . S
H1508 C1522 0.930 . S
H1509 C1524 0.960 . S
H1510 C1524 0.960 . S
H1511 C1524 0.960 . S
C1512 H1504 0.929 . S
C1512 C1513 1.377 . S
C1512 C1514 1.384 . S
C1513 C1512 1.377 . S
C1513 C1519 1.390 . S
C1514 H1505 0.930 . S
C1514 C1512 1.384 . S
C1514 C1515 1.372 . S
C1515 C1514 1.372 . S
C1515 C1516 1.400 . S
C1515 C1520 1.490 . S
C1516 H1506 0.930 . S
C1516 C1515 1.400 . S
C1516 C1519 1.386 . S
H1517 C1533 0.930 . S
H1518 C1534 0.931 . S
C1519 H1507 0.929 . S
C1519 C1513 1.390 . S
C1519 C1516 1.386 . S
C1520 C1515 1.490 . S
C1520 C1522 1.395 . S
C1520 C1523 1.403 . S
H1521 C1527 0.930 . S
C1522 H1508 0.930 . S
C1522 C1520 1.395 . S
C1522 C1525 1.403 . S
C1523 C1520 1.403 . S
C1523 C1524 1.524 . S
C1523 C1527 1.400 . S
C1524 H1509 0.960 . S
C1524 H1510 0.960 . S
C1524 H1511 0.960 . S
C1524 C1523 1.524 . S
C1525 C1522 1.403 . S
C1525 C1526 1.392 . S
C1525 C1529 1.495 . S
C1526 C1525 1.392 . S
C1526 C1527 1.385 . S
C1526 C1528 1.478 . S
C1527 H1521 0.930 . S
C1527 C1523 1.400 . S
C1527 C1526 1.385 . S
C1528 C1526 1.478 . S
C1528 C1530 1.381 . S
C1528 C1534 1.383 . S
C1529 C1525 1.495 . S
C1529 H1535 0.959 . S
C1529 H1536 0.961 . S
C1529 H1537 0.960 . S
C1530 C1528 1.381 . S
C1530 C1531 1.394 . S
C1530 H1538 0.930 . S
C1531 C1530 1.394 . S
C1531 C1532 1.383 . S
C1531 H1539 0.929 . S
C1532 C1531 1.383 . S
C1532 C1533 1.377 . S
C1533 H1517 0.930 . S
C1533 C1532 1.377 . S
C1533 C1534 1.379 . S
C1534 H1518 0.931 . S
C1534 C1528 1.383 . S
C1534 C1533 1.379 . S
H1535 C1529 0.959 . S
H1536 C1529 0.961 . S
H1537 C1529 0.960 . S
H1538 C1530 0.930 . S
H1539 C1531 0.929 . S
H1540 C1548 0.929 . S
H1541 C1550 0.930 . S
H1542 C1552 0.930 . S
H1543 C1555 0.929 . S
H1544 C1558 0.930 . S
H1545 C1560 0.960 . S
H1546 C1560 0.960 . S
H1547 C1560 0.960 . S
C1548 H1540 0.929 . S
C1548 C1549 1.377 . S
C1548 C1550 1.384 . S
C1549 C1548 1.377 . S
C1549 C1555 1.390 . S
C1550 H1541 0.930 . S
C1550 C1548 1.384 . S
C1550 C1551 1.372 . S
C1551 C1550 1.372 . S
C1551 C1552 1.400 . S
C1551 C1556 1.490 . S
C1552 H1542 0.930 . S
C1552 C1551 1.400 . S
C1552 C1555 1.386 . S
H1553 C1569 0.930 . S
H1554 C1570 0.931 . S
C1555 H1543 0.929 . S
C1555 C1549 1.390 . S
C1555 C1552 1.386 . S
C1556 C1551 1.490 . S
C1556 C1558 1.395 . S
C1556 C1559 1.403 . S
H1557 C1563 0.930 . S
C1558 H1544 0.930 . S
C1558 C1556 1.395 . S
C1558 C1561 1.403 . S
C1559 C1556 1.403 . S
C1559 C1560 1.524 . S
C1559 C1563 1.400 . S
C1560 H1545 0.960 . S
C1560 H1546 0.960 . S
C1560 H1547 0.960 . S
C1560 C1559 1.524 . S
C1561 C1558 1.403 . S
C1561 C1562 1.392 . S
C1561 C1565 1.495 . S
C1562 C1561 1.392 . S
C1562 C1563 1.385 . S
C1562 C1564 1.478 . S
C1563 H1557 0.930 . S
C1563 C1559 1.400 . S
C1563 C1562 1.385 . S
C1564 C1562 1.478 . S
C1564 C1566 1.381 . S
C1564 C1570 1.383 . S
C1565 C1561 1.495 . S
C1565 H1571 0.959 . S
C1565 H1572 0.961 . S
C1565 H1573 0.960 . S
C1566 C1564 1.381 . S
C1566 C1567 1.394 . S
C1566 H1574 0.930 . S
C1567 C1566 1.394 . S
C1567 C1568 1.383 . S
C1567 H1575 0.929 . S
C1568 C1567 1.383 . S
C1568 C1569 1.377 . S
C1569 H1553 0.930 . S
C1569 C1568 1.377 . S
C1569 C1570 1.379 . S
C1570 H1554 0.931 . S
C1570 C1564 1.383 . S
C1570 C1569 1.379 . S
H1571 C1565 0.959 . S
H1572 C1565 0.961 . S
H1573 C1565 0.960 . S
H1574 C1566 0.930 . S
H1575 C1567 0.929 . S
H1576 C1584 0.929 . S
H1577 C1586 0.930 . S
H1578 C1588 0.930 . S
H1579 C1591 0.929 . S
H1580 C1594 0.930 1_565 S
H1581 C1596 0.960 . S
H1582 C1596 0.960 1_565 S
H1583 C1596 0.960 . S
C1584 H1576 0.929 . S
C1584 C1585 1.377 . S
C1584 C1586 1.384 . S
C1585 C1584 1.377 . S
C1585 C1591 1.390 1_565 S
C1586 H1577 0.930 . S
C1586 C1584 1.384 . S
C1586 C1587 1.416 . S
C1587 C1586 1.416 . S
C1587 C1588 1.380 1_565 S
C1587 C1592 1.467 1_565 S
C1588 H1578 0.930 . S
C1588 C1587 1.380 1_545 S
C1588 C1591 1.386 . S
H1589 C1605 0.930 . S
H1590 C1606 0.931 . S
C1591 H1579 0.929 . S
C1591 C1585 1.390 1_545 S
C1591 C1588 1.386 . S
C1592 C1587 1.467 1_545 S
C1592 C1594 1.395 . S
C1592 C1595 1.403 . S
H1593 C1599 0.930 . S
C1594 H1580 0.930 1_545 S
C1594 C1592 1.395 . S
C1594 C1597 1.403 . S
C1595 C1592 1.403 . S
C1595 C1596 1.524 . S
C1595 C1599 1.400 . S
C1596 H1581 0.960 . S
C1596 H1582 0.960 1_545 S
C1596 H1583 0.960 . S
C1596 C1595 1.524 . S
C1597 C1594 1.403 . S
C1597 C1598 1.392 . S
C1597 C1601 1.495 . S
C1598 C1597 1.392 . S
C1598 C1599 1.385 . S
C1598 C1600 1.478 . S
C1599 H1593 0.930 . S
C1599 C1595 1.400 . S
C1599 C1598 1.385 . S
C1600 C1598 1.478 . S
C1600 C1602 1.381 1_545 S
C1600 C1606 1.383 . S
C1601 C1597 1.495 . S
C1601 H1607 0.959 1_545 S
C1601 H1608 0.961 . S
C1601 H1609 0.960 1_545 S
C1602 C1600 1.381 1_565 S
C1602 C1603 1.394 1_565 S
C1602 H1610 0.930 . S
C1603 C1602 1.394 1_545 S
C1603 C1604 1.383 . S
C1603 H1611 0.929 1_545 S
C1604 C1603 1.383 . S
C1604 C1605 1.377 . S
C1605 H1589 0.930 . S
C1605 C1604 1.377 . S
C1605 C1606 1.379 . S
C1606 H1590 0.931 . S
C1606 C1600 1.383 . S
C1606 C1605 1.379 . S
H1607 C1601 0.959 1_565 S
H1608 C1601 0.961 . S
H1609 C1601 0.960 1_565 S
H1610 C1602 0.930 . S
H1611 C1603 0.929 1_565 S
H1612 C1620 0.929 . S
H1613 C1622 0.930 . S
H1614 C1624 0.930 . S
H1615 C1627 0.929 . S
H1616 C1630 0.930 . S
H1617 C1632 0.960 . S
H1618 C1632 0.960 . S
H1619 C1632 0.960 . S
C1620 H1612 0.929 . S
C1620 C1621 1.377 1_556 S
C1620 C1622 1.384 . S
C1621 C1620 1.377 1_554 S
C1621 C1627 1.390 . S
C1622 H1613 0.930 . S
C1622 C1620 1.384 . S
C1622 C1623 1.372 1_556 S
C1623 C1622 1.372 1_554 S
C1623 C1624 1.400 . S
C1623 C1628 1.490 . S
C1624 H1614 0.930 . S
C1624 C1623 1.400 . S
C1624 C1627 1.386 . S
H1625 C1641 0.930 . S
H1626 C1642 0.931 . S
C1627 H1615 0.929 . S
C1627 C1621 1.390 . S
C1627 C1624 1.386 . S
C1628 C1623 1.490 . S
C1628 C1630 1.395 . S
C1628 C1631 1.403 . S
H1629 C1635 0.930 . S
C1630 H1616 0.930 . S
C1630 C1628 1.395 . S
C1630 C1633 1.403 . S
C1631 C1628 1.403 . S
C1631 C1632 1.524 . S
C1631 C1635 1.400 . S
C1632 H1617 0.960 . S
C1632 H1618 0.960 . S
C1632 H1619 0.960 . S
C1632 C1631 1.524 . S
C1633 C1630 1.403 . S
C1633 C1634 1.392 . S
C1633 C1637 1.495 . S
C1634 C1633 1.392 . S
C1634 C1635 1.385 . S
C1634 C1636 1.478 . S
C1635 H1629 0.930 . S
C1635 C1631 1.400 . S
C1635 C1634 1.385 . S
C1636 C1634 1.478 . S
C1636 C1638 1.381 . S
C1636 C1642 1.383 . S
C1637 C1633 1.495 . S
C1637 H1643 0.959 . S
C1637 H1644 0.961 . S
C1637 H1645 0.961 . S
C1638 C1636 1.381 . S
C1638 C1639 1.394 . S
C1638 H1646 0.930 1_554 S
C1639 C1638 1.394 . S
C1639 C1640 1.383 . S
C1639 H1647 0.944 . S
C1640 C1639 1.383 . S
C1640 C1641 1.377 . S
C1641 H1625 0.930 . S
C1641 C1640 1.377 . S
C1641 C1642 1.379 . S
C1642 H1626 0.931 . S
C1642 C1636 1.383 . S
C1642 C1641 1.379 . S
H1643 C1637 0.959 . S
H1644 C1637 0.961 . S
H1645 C1637 0.961 . S
H1646 C1638 0.930 1_556 S
H1647 C1639 0.944 . S
H1648 C1656 0.929 . S
H1649 C1658 0.930 . S
H1650 C1660 0.930 . S
H1651 C1663 0.929 . S
H1652 C1666 0.930 . S
H1653 C1668 0.960 . S
H1654 C1668 0.960 . S
H1655 C1668 0.960 . S
C1656 H1648 0.929 . S
C1656 C1657 1.377 . S
C1656 C1658 1.384 . S
C1657 C1656 1.377 . S
C1657 C1663 1.390 . S
C1658 H1649 0.930 . S
C1658 C1656 1.384 . S
C1658 C1659 1.372 . S
C1659 C1658 1.372 . S
C1659 C1660 1.400 . S
C1659 C1664 1.490 . S
C1660 H1650 0.930 . S
C1660 C1659 1.400 . S
C1660 C1663 1.386 . S
H1661 C1677 0.930 . S
H1662 C1678 0.931 . S
C1663 H1651 0.929 . S
C1663 C1657 1.390 . S
C1663 C1660 1.386 . S
C1664 C1659 1.490 . S
C1664 C1666 1.395 . S
C1664 C1667 1.403 . S
H1665 C1671 0.930 . S
C1666 H1652 0.930 . S
C1666 C1664 1.395 . S
C1666 C1669 1.403 . S
C1667 C1664 1.403 . S
C1667 C1668 1.524 . S
C1667 C1671 1.400 . S
C1668 H1653 0.960 . S
C1668 H1654 0.960 . S
C1668 H1655 0.960 . S
C1668 C1667 1.524 . S
C1669 C1666 1.403 . S
C1669 C1670 1.392 . S
C1669 C1673 1.495 . S
C1670 C1669 1.392 . S
C1670 C1671 1.385 . S
C1670 C1672 1.478 . S
C1671 H1665 0.930 . S
C1671 C1667 1.400 . S
C1671 C1670 1.385 . S
C1672 C1670 1.478 . S
C1672 C1674 1.381 . S
C1672 C1678 1.383 . S
C1673 C1669 1.495 . S
C1673 H1679 0.959 . S
C1673 H1680 0.961 . S
C1673 H1681 0.960 . S
C1674 C1672 1.381 . S
C1674 C1675 1.394 . S
C1674 H1682 0.930 . S
C1675 C1674 1.394 . S
C1675 C1676 1.383 . S
C1675 H1683 0.929 . S
C1676 C1675 1.383 . S
C1676 C1677 1.377 . S
C1677 H1661 0.930 . S
C1677 C1676 1.377 . S
C1677 C1678 1.379 . S
C1678 H1662 0.931 . S
C1678 C1672 1.383 . S
C1678 C1677 1.379 . S
H1679 C1673 0.959 . S
H1680 C1673 0.961 . S
H1681 C1673 0.960 . S
H1682 C1674 0.930 . S
H1683 C1675 0.929 . S
H1684 C1692 0.929 . S
H1685 C1694 0.930 . S
H1686 C1696 0.930 . S
H1687 C1699 0.929 . S
H1688 C1702 0.930 . S
H1689 C1704 0.960 . S
H1690 C1704 0.960 . S
H1691 C1704 0.960 . S
C1692 H1684 0.929 . S
C1692 C1693 1.377 . S
C1692 C1694 1.384 . S
C1693 C1692 1.377 . S
C1693 C1699 1.390 . S
C1694 H1685 0.930 . S
C1694 C1692 1.384 . S
C1694 C1695 1.372 . S
C1695 C1694 1.372 . S
C1695 C1696 1.400 . S
C1695 C1700 1.490 . S
C1696 H1686 0.930 . S
C1696 C1695 1.400 . S
C1696 C1699 1.386 . S
H1697 C1713 0.930 . S
H1698 C1714 0.931 . S
C1699 H1687 0.929 . S
C1699 C1693 1.390 . S
C1699 C1696 1.386 . S
C1700 C1695 1.490 . S
C1700 C1702 1.395 . S
C1700 C1703 1.403 . S
H1701 C1707 0.930 . S
C1702 H1688 0.930 . S
C1702 C1700 1.395 . S
C1702 C1705 1.403 . S
C1703 C1700 1.403 . S
C1703 C1704 1.524 . S
C1703 C1707 1.400 . S
C1704 H1689 0.960 . S
C1704 H1690 0.960 . S
C1704 H1691 0.960 . S
C1704 C1703 1.524 . S
C1705 C1702 1.403 . S
C1705 C1706 1.392 . S
C1705 C1709 1.495 . S
C1706 C1705 1.392 . S
C1706 C1707 1.385 . S
C1706 C1708 1.478 . S
C1707 H1701 0.930 . S
C1707 C1703 1.400 . S
C1707 C1706 1.385 . S
C1708 C1706 1.478 . S
C1708 C1710 1.381 . S
C1708 C1714 1.383 . S
C1709 C1705 1.495 . S
C1709 H1715 0.959 . S
C1709 H1716 0.961 . S
C1709 H1717 0.960 . S
C1710 C1708 1.381 . S
C1710 C1711 1.394 . S
C1710 H1718 0.930 . S
C1711 C1710 1.394 . S
C1711 C1712 1.383 . S
C1711 H1719 0.929 . S
C1712 C1711 1.383 . S
C1712 C1713 1.377 . S
C1713 H1697 0.930 . S
C1713 C1712 1.377 . S
C1713 C1714 1.379 . S
C1714 H1698 0.931 . S
C1714 C1708 1.383 . S
C1714 C1713 1.379 . S
H1715 C1709 0.959 . S
H1716 C1709 0.961 . S
H1717 C1709 0.960 . S
H1718 C1710 0.930 . S
H1719 C1711 0.929 . S
H1720 C1728 0.929 . S
H1721 C1730 0.930 . S
H1722 C1732 0.930 . S
H1723 C1735 0.929 . S
H1724 C1738 0.930 . S
H1725 C1740 0.960 . S
H1726 C1740 0.960 . S
H1727 C1740 0.960 . S
C1728 H1720 0.929 . S
C1728 C1729 1.377 . S
C1728 C1730 1.384 . S
C1729 C1728 1.377 . S
C1729 C1735 1.390 . S
C1730 H1721 0.930 . S
C1730 C1728 1.384 . S
C1730 C1731 1.372 . S
C1731 C1730 1.372 . S
C1731 C1732 1.400 . S
C1731 C1736 1.490 . S
C1732 H1722 0.930 . S
C1732 C1731 1.400 . S
C1732 C1735 1.386 . S
H1733 C1749 0.930 . S
H1734 C1750 0.931 . S
C1735 H1723 0.929 . S
C1735 C1729 1.390 . S
C1735 C1732 1.386 . S
C1736 C1731 1.490 . S
C1736 C1738 1.395 . S
C1736 C1739 1.403 . S
H1737 C1743 0.930 . S
C1738 H1724 0.930 . S
C1738 C1736 1.395 . S
C1738 C1741 1.403 . S
C1739 C1736 1.403 . S
C1739 C1740 1.524 . S
C1739 C1743 1.400 . S
C1740 H1725 0.960 . S
C1740 H1726 0.960 . S
C1740 H1727 0.960 . S
C1740 C1739 1.524 . S
C1741 C1738 1.403 . S
C1741 C1742 1.392 . S
C1741 C1745 1.495 . S
C1742 C1741 1.392 . S
C1742 C1743 1.385 . S
C1742 C1744 1.478 . S
C1743 H1737 0.930 . S
C1743 C1739 1.400 . S
C1743 C1742 1.385 . S
C1744 C1742 1.478 . S
C1744 C1746 1.381 . S
C1744 C1750 1.383 . S
C1745 C1741 1.495 . S
C1745 H1751 0.959 . S
C1745 H1752 0.961 . S
C1745 H1753 0.960 . S
C1746 C1744 1.381 . S
C1746 C1747 1.394 . S
C1746 H1754 0.930 . S
C1747 C1746 1.394 . S
C1747 C1748 1.383 . S
C1747 H1755 0.929 . S
C1748 C1747 1.383 . S
C1748 C1749 1.377 . S
C1749 H1733 0.930 . S
C1749 C1748 1.377 . S
C1749 C1750 1.379 . S
C1750 H1734 0.931 . S
C1750 C1744 1.383 . S
C1750 C1749 1.379 . S
H1751 C1745 0.959 . S
H1752 C1745 0.961 . S
H1753 C1745 0.960 . S
H1754 C1746 0.930 . S
H1755 C1747 0.929 . S
H1756 C1764 0.929 . S
H1757 C1766 0.930 . S
H1758 C1768 0.930 . S
H1759 C1771 0.929 . S
H1760 C1774 0.930 . S
H1761 C1776 0.960 . S
H1762 C1776 0.960 . S
H1763 C1776 0.960 . S
C1764 H1756 0.929 . S
C1764 C1765 1.377 . S
C1764 C1766 1.384 . S
C1765 C1764 1.377 . S
C1765 C1771 1.390 . S
C1766 H1757 0.930 . S
C1766 C1764 1.384 . S
C1766 C1767 1.372 . S
C1767 C1766 1.372 . S
C1767 C1768 1.400 . S
C1767 C1772 1.490 . S
C1768 H1758 0.930 . S
C1768 C1767 1.400 . S
C1768 C1771 1.386 . S
H1769 C1785 0.930 . S
H1770 C1786 0.931 . S
C1771 H1759 0.929 . S
C1771 C1765 1.390 . S
C1771 C1768 1.386 . S
C1772 C1767 1.490 . S
C1772 C1774 1.395 . S
C1772 C1775 1.403 . S
H1773 C1779 0.930 . S
C1774 H1760 0.930 . S
C1774 C1772 1.395 . S
C1774 C1777 1.403 . S
C1775 C1772 1.403 . S
C1775 C1776 1.524 . S
C1775 C1779 1.400 . S
C1776 H1761 0.960 . S
C1776 H1762 0.960 . S
C1776 H1763 0.960 . S
C1776 C1775 1.524 . S
C1777 C1774 1.403 . S
C1777 C1778 1.392 . S
C1777 C1781 1.495 . S
C1778 C1777 1.392 . S
C1778 C1779 1.385 . S
C1778 C1780 1.478 . S
C1779 H1773 0.930 . S
C1779 C1775 1.400 . S
C1779 C1778 1.385 . S
C1780 C1778 1.478 . S
C1780 C1782 1.381 . S
C1780 C1786 1.383 . S
C1781 C1777 1.495 . S
C1781 H1787 0.959 . S
C1781 H1788 0.961 . S
C1781 H1789 0.960 . S
C1782 C1780 1.381 . S
C1782 C1783 1.394 . S
C1782 H1790 0.930 . S
C1783 C1782 1.394 . S
C1783 C1784 1.383 . S
C1783 H1791 0.929 . S
C1784 C1783 1.383 . S
C1784 C1785 1.377 . S
C1785 H1769 0.930 . S
C1785 C1784 1.377 . S
C1785 C1786 1.379 . S
C1786 H1770 0.931 . S
C1786 C1780 1.383 . S
C1786 C1785 1.379 . S
H1787 C1781 0.959 . S
H1788 C1781 0.961 . S
H1789 C1781 0.960 . S
H1790 C1782 0.930 . S
H1791 C1783 0.929 . S
H1792 C1800 0.929 . S
H1793 C1802 0.930 . S
H1794 C1804 0.930 . S
H1795 C1807 0.929 . S
H1796 C1810 0.930 . S
H1797 C1812 0.960 . S
H1798 C1812 0.960 . S
H1799 C1812 0.960 . S
C1800 H1792 0.929 . S
C1800 C1801 1.377 . S
C1800 C1802 1.384 . S
C1801 C1800 1.377 . S
C1801 C1807 1.390 . S
C1802 H1793 0.930 . S
C1802 C1800 1.384 . S
C1802 C1803 1.372 . S
C1803 C1802 1.372 . S
C1803 C1804 1.400 . S
C1803 C1808 1.490 . S
C1804 H1794 0.930 . S
C1804 C1803 1.400 . S
C1804 C1807 1.386 . S
H1805 C1821 0.930 . S
H1806 C1822 0.931 . S
C1807 H1795 0.929 . S
C1807 C1801 1.390 . S
C1807 C1804 1.386 . S
C1808 C1803 1.490 . S
C1808 C1810 1.395 . S
C1808 C1811 1.403 . S
H1809 C1815 0.930 . S
C1810 H1796 0.930 . S
C1810 C1808 1.395 . S
C1810 C1813 1.403 . S
C1811 C1808 1.403 . S
C1811 C1812 1.524 . S
C1811 C1815 1.400 . S
C1812 H1797 0.960 . S
C1812 H1798 0.960 . S
C1812 H1799 0.960 . S
C1812 C1811 1.524 . S
C1813 C1810 1.403 . S
C1813 C1814 1.392 . S
C1813 C1817 1.495 . S
C1814 C1813 1.392 . S
C1814 C1815 1.385 . S
C1814 C1816 1.478 . S
C1815 H1809 0.930 . S
C1815 C1811 1.400 . S
C1815 C1814 1.385 . S
C1816 C1814 1.478 . S
C1816 C1818 1.381 . S
C1816 C1822 1.383 . S
C1817 C1813 1.495 . S
C1817 H1823 0.959 . S
C1817 H1824 0.961 . S
C1817 H1825 0.960 . S
C1818 C1816 1.381 . S
C1818 C1819 1.394 . S
C1818 H1826 0.930 . S
C1819 C1818 1.394 . S
C1819 C1820 1.383 . S
C1819 H1827 0.929 . S
C1820 C1819 1.383 . S
C1820 C1821 1.377 . S
C1821 H1805 0.930 . S
C1821 C1820 1.377 . S
C1821 C1822 1.379 . S
C1822 H1806 0.931 . S
C1822 C1816 1.383 . S
C1822 C1821 1.379 . S
H1823 C1817 0.959 . S
H1824 C1817 0.961 . S
H1825 C1817 0.960 . S
H1826 C1818 0.930 . S
H1827 C1819 0.929 . S
H1828 C1836 0.929 . S
H1829 C1838 0.930 . S
H1830 C1840 0.930 . S
H1831 C1843 0.929 . S
H1832 C1846 0.930 . S
H1833 C1848 0.960 . S
H1834 C1848 0.960 . S
H1835 C1848 0.960 . S
C1836 H1828 0.929 . S
C1836 C1837 1.377 . S
C1836 C1838 1.384 . S
C1837 C1836 1.377 . S
C1837 C1843 1.390 . S
C1838 H1829 0.930 . S
C1838 C1836 1.384 . S
C1838 C1839 1.372 . S
C1839 C1838 1.372 . S
C1839 C1840 1.400 . S
C1839 C1844 1.490 . S
C1840 H1830 0.930 . S
C1840 C1839 1.400 . S
C1840 C1843 1.386 . S
H1841 C1857 0.930 . S
H1842 C1858 0.931 . S
C1843 H1831 0.929 . S
C1843 C1837 1.390 . S
C1843 C1840 1.386 . S
C1844 C1839 1.490 . S
C1844 C1846 1.395 . S
C1844 C1847 1.403 . S
H1845 C1851 0.930 . S
C1846 H1832 0.930 . S
C1846 C1844 1.395 . S
C1846 C1849 1.403 . S
C1847 C1844 1.403 . S
C1847 C1848 1.524 . S
C1847 C1851 1.400 . S
C1848 H1833 0.960 . S
C1848 H1834 0.960 . S
C1848 H1835 0.960 . S
C1848 C1847 1.524 . S
C1849 C1846 1.403 . S
C1849 C1850 1.392 . S
C1849 C1853 1.495 . S
C1850 C1849 1.392 . S
C1850 C1851 1.385 . S
C1850 C1852 1.478 . S
C1851 H1845 0.930 . S
C1851 C1847 1.400 . S
C1851 C1850 1.385 . S
C1852 C1850 1.478 . S
C1852 C1854 1.381 . S
C1852 C1858 1.383 . S
C1853 C1849 1.495 . S
C1853 H1859 0.959 . S
C1853 H1860 0.961 . S
C1853 H1861 0.960 . S
C1854 C1852 1.381 . S
C1854 C1855 1.394 . S
C1854 H1862 0.930 . S
C1855 C1854 1.394 . S
C1855 C1856 1.383 . S
C1855 H1863 0.929 . S
C1856 C1855 1.383 . S
C1856 C1857 1.377 . S
C1857 H1841 0.930 . S
C1857 C1856 1.377 . S
C1857 C1858 1.379 . S
C1858 H1842 0.931 . S
C1858 C1852 1.383 . S
C1858 C1857 1.379 . S
H1859 C1853 0.959 . S
H1860 C1853 0.961 . S
H1861 C1853 0.960 . S
H1862 C1854 0.930 . S
H1863 C1855 0.929 . S
H1864 C1872 0.929 . S
H1865 C1874 0.930 . S
H1866 C1876 0.930 . S
H1867 C1879 0.929 . S
H1868 C1882 0.930 . S
H1869 C1884 0.960 . S
H1870 C1884 0.960 . S
H1871 C1884 0.960 . S
C1872 H1864 0.929 . S
C1872 C1873 1.377 . S
C1872 C1874 1.384 . S
C1873 C1872 1.377 . S
C1873 C1879 1.390 . S
C1874 H1865 0.930 . S
C1874 C1872 1.384 . S
C1874 C1875 1.372 . S
C1875 C1874 1.372 . S
C1875 C1876 1.400 . S
C1875 C1880 1.490 . S
C1876 H1866 0.930 . S
C1876 C1875 1.400 . S
C1876 C1879 1.386 . S
H1877 C1893 0.930 . S
H1878 C1894 0.931 . S
C1879 H1867 0.929 . S
C1879 C1873 1.390 . S
C1879 C1876 1.386 . S
C1880 C1875 1.490 . S
C1880 C1882 1.395 . S
C1880 C1883 1.403 . S
H1881 C1887 0.930 . S
C1882 H1868 0.930 . S
C1882 C1880 1.395 . S
C1882 C1885 1.403 . S
C1883 C1880 1.403 . S
C1883 C1884 1.524 . S
C1883 C1887 1.400 . S
C1884 H1869 0.960 . S
C1884 H1870 0.960 . S
C1884 H1871 0.960 . S
C1884 C1883 1.524 . S
C1885 C1882 1.403 . S
C1885 C1886 1.392 . S
C1885 C1889 1.495 . S
C1886 C1885 1.392 . S
C1886 C1887 1.385 . S
C1886 C1888 1.478 . S
C1887 H1881 0.930 . S
C1887 C1883 1.400 . S
C1887 C1886 1.385 . S
C1888 C1886 1.478 . S
C1888 C1890 1.381 . S
C1888 C1894 1.383 . S
C1889 C1885 1.495 . S
C1889 H1895 0.959 . S
C1889 H1896 0.961 . S
C1889 H1897 0.960 . S
C1890 C1888 1.381 . S
C1890 C1891 1.394 . S
C1890 H1898 0.930 . S
C1891 C1890 1.394 . S
C1891 C1892 1.383 . S
C1891 H1899 0.929 . S
C1892 C1891 1.383 . S
C1892 C1893 1.377 . S
C1893 H1877 0.930 . S
C1893 C1892 1.377 . S
C1893 C1894 1.379 . S
C1894 H1878 0.931 . S
C1894 C1888 1.383 . S
C1894 C1893 1.379 . S
H1895 C1889 0.959 . S
H1896 C1889 0.961 . S
H1897 C1889 0.960 . S
H1898 C1890 0.930 . S
H1899 C1891 0.929 . S
H1900 C1908 0.929 . S
H1901 C1910 0.930 . S
H1902 C1912 0.930 . S
H1903 C1915 0.929 . S
H1904 C1918 0.930 . S
H1905 C1920 0.960 . S
H1906 C1920 0.960 . S
H1907 C1920 0.960 . S
C1908 H1900 0.929 . S
C1908 C1909 1.377 . S
C1908 C1910 1.384 . S
C1909 C1908 1.377 . S
C1909 C1915 1.390 . S
C1910 H1901 0.930 . S
C1910 C1908 1.384 . S
C1910 C1911 1.372 . S
C1911 C1910 1.372 . S
C1911 C1912 1.400 . S
C1911 C1916 1.490 . S
C1912 H1902 0.930 . S
C1912 C1911 1.400 . S
C1912 C1915 1.386 . S
H1913 C1929 0.930 . S
H1914 C1930 0.931 . S
C1915 H1903 0.929 . S
C1915 C1909 1.390 . S
C1915 C1912 1.386 . S
C1916 C1911 1.490 . S
C1916 C1918 1.395 . S
C1916 C1919 1.403 . S
H1917 C1923 0.930 . S
C1918 H1904 0.930 . S
C1918 C1916 1.395 . S
C1918 C1921 1.403 . S
C1919 C1916 1.403 . S
C1919 C1920 1.524 . S
C1919 C1923 1.400 . S
C1920 H1905 0.960 . S
C1920 H1906 0.960 . S
C1920 H1907 0.960 . S
C1920 C1919 1.524 . S
C1921 C1918 1.403 . S
C1921 C1922 1.392 . S
C1921 C1925 1.495 . S
C1922 C1921 1.392 . S
C1922 C1923 1.385 . S
C1922 C1924 1.478 . S
C1923 H1917 0.930 . S
C1923 C1919 1.400 . S
C1923 C1922 1.385 . S
C1924 C1922 1.478 . S
C1924 C1926 1.381 . S
C1924 C1930 1.383 . S
C1925 C1921 1.495 . S
C1925 H1931 0.959 . S
C1925 H1932 0.961 . S
C1925 H1933 0.960 . S
C1926 C1924 1.381 . S
C1926 C1927 1.394 . S
C1926 H1934 0.930 . S
C1927 C1926 1.394 . S
C1927 C1928 1.383 . S
C1927 H1935 0.929 . S
C1928 C1927 1.383 . S
C1928 C1929 1.377 . S
C1929 H1913 0.930 . S
C1929 C1928 1.377 . S
C1929 C1930 1.379 . S
C1930 H1914 0.931 . S
C1930 C1924 1.383 . S
C1930 C1929 1.379 . S
H1931 C1925 0.959 . S
H1932 C1925 0.961 . S
H1933 C1925 0.960 . S
H1934 C1926 0.930 . S
H1935 C1927 0.929 . S
H1936 C1944 0.929 . S
H1937 C1946 0.930 . S
H1938 C1948 0.930 . S
H1939 C1951 0.929 . S
H1940 C1954 0.930 . S
H1941 C1956 0.960 . S
H1942 C1956 0.960 . S
H1943 C1956 0.960 . S
C1944 H1936 0.929 . S
C1944 C1945 1.377 . S
C1944 C1946 1.384 . S
C1945 C1944 1.377 . S
C1945 C1951 1.390 . S
C1946 H1937 0.930 . S
C1946 C1944 1.384 . S
C1946 C1947 1.372 . S
C1947 C1946 1.372 . S
C1947 C1948 1.400 . S
C1947 C1952 1.490 . S
C1948 H1938 0.930 . S
C1948 C1947 1.400 . S
C1948 C1951 1.386 . S
H1949 C1965 0.930 . S
H1950 C1966 0.931 . S
C1951 H1939 0.929 . S
C1951 C1945 1.390 . S
C1951 C1948 1.386 . S
C1952 C1947 1.490 . S
C1952 C1954 1.395 . S
C1952 C1955 1.403 . S
H1953 C1959 0.930 . S
C1954 H1940 0.930 . S
C1954 C1952 1.395 . S
C1954 C1957 1.403 . S
C1955 C1952 1.403 . S
C1955 C1956 1.524 . S
C1955 C1959 1.400 . S
C1956 H1941 0.960 . S
C1956 H1942 0.960 . S
C1956 H1943 0.960 . S
C1956 C1955 1.524 . S
C1957 C1954 1.403 . S
C1957 C1958 1.392 . S
C1957 C1961 1.495 . S
C1958 C1957 1.392 . S
C1958 C1959 1.385 . S
C1958 C1960 1.478 . S
C1959 H1953 0.930 . S
C1959 C1955 1.400 . S
C1959 C1958 1.385 . S
C1960 C1958 1.478 . S
C1960 C1962 1.381 . S
C1960 C1966 1.383 . S
C1961 C1957 1.495 . S
C1961 H1967 0.959 . S
C1961 H1968 0.961 . S
C1961 H1969 0.960 . S
C1962 C1960 1.381 . S
C1962 C1963 1.394 . S
C1962 H1970 0.930 . S
C1963 C1962 1.394 . S
C1963 C1964 1.383 . S
C1963 H1971 0.929 . S
C1964 C1963 1.383 . S
C1964 C1965 1.377 . S
C1965 H1949 0.930 . S
C1965 C1964 1.377 . S
C1965 C1966 1.379 . S
C1966 H1950 0.931 . S
C1966 C1960 1.383 . S
C1966 C1965 1.379 . S
H1967 C1961 0.959 . S
H1968 C1961 0.961 . S
H1969 C1961 0.960 . S
H1970 C1962 0.930 . S
H1971 C1963 0.929 . S
H1972 C1980 0.929 . S
H1973 C1982 0.930 . S
H1974 C1984 0.930 . S
H1975 C1987 0.929 . S
H1976 C1990 0.930 1_556 S
H1977 C1992 0.960 . S
H1978 C1992 0.960 . S
H1979 C1992 0.960 . S
C1980 H1972 0.929 . S
C1980 C1981 1.377 . S
C1980 C1982 1.384 . S
C1981 C1980 1.377 . S
C1981 C1987 1.390 . S
C1982 H1973 0.930 . S
C1982 C1980 1.384 . S
C1982 C1983 1.372 . S
C1983 C1982 1.372 . S
C1983 C1984 1.400 . S
C1983 C1988 1.490 . S
C1984 H1974 0.930 . S
C1984 C1983 1.400 . S
C1984 C1987 1.386 . S
H1985 C2001 0.930 . S
H1986 C2002 0.931 . S
C1987 H1975 0.929 . S
C1987 C1981 1.390 . S
C1987 C1984 1.386 . S
C1988 C1983 1.490 . S
C1988 C1990 1.395 . S
C1988 C1991 1.403 . S
H1989 C1995 0.930 . S
C1990 H1976 0.930 1_554 S
C1990 C1988 1.395 . S
C1990 C1993 1.403 1_554 S
C1991 C1988 1.403 . S
C1991 C1992 1.524 . S
C1991 C1995 1.400 . S
C1992 H1977 0.960 . S
C1992 H1978 0.960 . S
C1992 H1979 0.960 . S
C1992 C1991 1.524 . S
C1993 C1990 1.403 1_556 S
C1993 C1994 1.392 1_556 S
C1993 C1997 1.495 . S
C1994 C1993 1.392 1_554 S
C1994 C1995 1.385 . S
C1994 C1996 1.478 . S
C1995 H1989 0.930 . S
C1995 C1991 1.400 . S
C1995 C1994 1.385 . S
C1996 C1994 1.478 . S
C1996 C1998 1.381 . S
C1996 C2002 1.383 . S
C1997 C1993 1.495 . S
C1997 H2003 0.959 . S
C1997 H2004 0.961 . S
C1997 H2005 0.960 . S
C1998 C1996 1.381 . S
C1998 C1999 1.394 . S
C1998 H2006 0.930 . S
C1999 C1998 1.394 . S
C1999 C2000 1.383 . S
C1999 H2007 0.929 . S
C2000 C1999 1.383 . S
C2000 C2001 1.377 . S
C2001 H1985 0.930 . S
C2001 C2000 1.377 . S
C2001 C2002 1.379 . S
C2002 H1986 0.931 . S
C2002 C1996 1.383 . S
C2002 C2001 1.379 . S
H2003 C1997 0.959 . S
H2004 C1997 0.961 . S
H2005 C1997 0.960 . S
H2006 C1998 0.930 . S
H2007 C1999 0.929 . S
H2008 C2016 0.929 . S
H2009 C2018 0.930 . S
H2010 C2020 0.930 . S
H2011 C2023 0.929 . S
H2012 C2026 0.930 . S
H2013 C2028 0.960 . S
H2014 C2028 0.960 . S
H2015 C2028 0.960 . S
C2016 H2008 0.929 . S
C2016 C2017 1.377 . S
C2016 C2018 1.384 . S
C2017 C2016 1.377 . S
C2017 C2023 1.390 . S
C2018 H2009 0.930 . S
C2018 C2016 1.384 . S
C2018 C2019 1.372 . S
C2019 C2018 1.372 . S
C2019 C2020 1.400 . S
C2019 C2024 1.490 . S
C2020 H2010 0.930 . S
C2020 C2019 1.400 . S
C2020 C2023 1.386 . S
H2021 C2037 0.930 . S
H2022 C2038 0.931 . S
C2023 H2011 0.929 . S
C2023 C2017 1.390 . S
C2023 C2020 1.386 . S
C2024 C2019 1.490 . S
C2024 C2026 1.395 . S
C2024 C2027 1.403 . S
H2025 C2031 0.930 . S
C2026 H2012 0.930 . S
C2026 C2024 1.395 . S
C2026 C2029 1.403 . S
C2027 C2024 1.403 . S
C2027 C2028 1.524 . S
C2027 C2031 1.400 . S
C2028 H2013 0.960 . S
C2028 H2014 0.960 . S
C2028 H2015 0.960 . S
C2028 C2027 1.524 . S
C2029 C2026 1.403 . S
C2029 C2030 1.392 . S
C2029 C2033 1.495 . S
C2030 C2029 1.392 . S
C2030 C2031 1.385 . S
C2030 C2032 1.478 . S
C2031 H2025 0.930 . S
C2031 C2027 1.400 . S
C2031 C2030 1.385 . S
C2032 C2030 1.478 . S
C2032 C2034 1.381 . S
C2032 C2038 1.383 . S
C2033 C2029 1.495 . S
C2033 H2039 0.959 . S
C2033 H2040 0.961 . S
C2033 H2041 0.960 . S
C2034 C2032 1.381 . S
C2034 C2035 1.394 . S
C2034 H2042 0.930 . S
C2035 C2034 1.394 . S
C2035 C2036 1.383 . S
C2035 H2043 0.929 . S
C2036 C2035 1.383 . S
C2036 C2037 1.377 . S
C2037 H2021 0.930 . S
C2037 C2036 1.377 . S
C2037 C2038 1.379 . S
C2038 H2022 0.931 . S
C2038 C2032 1.383 . S
C2038 C2037 1.379 . S
H2039 C2033 0.959 . S
H2040 C2033 0.961 . S
H2041 C2033 0.960 . S
H2042 C2034 0.930 . S
H2043 C2035 0.929 . S
H2044 C2052 0.929 . S
H2045 C2054 0.930 . S
H2046 C2056 0.930 . S
H2047 C2059 0.929 . S
H2048 C2062 0.930 . S
H2049 C2064 0.960 . S
H2050 C2064 0.960 . S
H2051 C2064 0.960 . S
C2052 H2044 0.929 . S
C2052 C2053 1.377 . S
C2052 C2054 1.384 . S
C2053 C2052 1.377 . S
C2053 C2059 1.390 . S
C2054 H2045 0.930 . S
C2054 C2052 1.384 . S
C2054 C2055 1.372 . S
C2055 C2054 1.372 . S
C2055 C2056 1.400 . S
C2055 C2060 1.490 . S
C2056 H2046 0.930 . S
C2056 C2055 1.400 . S
C2056 C2059 1.386 . S
H2057 C2073 0.930 . S
H2058 C2074 0.931 . S
C2059 H2047 0.929 . S
C2059 C2053 1.390 . S
C2059 C2056 1.386 . S
C2060 C2055 1.490 . S
C2060 C2062 1.395 . S
C2060 C2063 1.403 . S
H2061 C2067 0.930 . S
C2062 H2048 0.930 . S
C2062 C2060 1.395 . S
C2062 C2065 1.403 . S
C2063 C2060 1.403 . S
C2063 C2064 1.524 . S
C2063 C2067 1.400 . S
C2064 H2049 0.960 . S
C2064 H2050 0.960 . S
C2064 H2051 0.960 . S
C2064 C2063 1.524 . S
C2065 C2062 1.403 . S
C2065 C2066 1.392 . S
C2065 C2069 1.495 . S
C2066 C2065 1.392 . S
C2066 C2067 1.385 . S
C2066 C2068 1.478 . S
C2067 H2061 0.930 . S
C2067 C2063 1.400 . S
C2067 C2066 1.385 . S
C2068 C2066 1.478 . S
C2068 C2070 1.381 . S
C2068 C2074 1.383 . S
C2069 C2065 1.495 . S
C2069 H2075 0.959 . S
C2069 H2076 0.961 . S
C2069 H2077 0.960 . S
C2070 C2068 1.381 . S
C2070 C2071 1.394 . S
C2070 H2078 0.930 . S
C2071 C2070 1.394 . S
C2071 C2072 1.383 . S
C2071 H2079 0.929 . S
C2072 C2071 1.383 . S
C2072 C2073 1.377 . S
C2073 H2057 0.930 . S
C2073 C2072 1.377 . S
C2073 C2074 1.379 . S
C2074 H2058 0.931 . S
C2074 C2068 1.383 . S
C2074 C2073 1.379 . S
H2075 C2069 0.959 . S
H2076 C2069 0.961 . S
H2077 C2069 0.960 . S
H2078 C2070 0.930 . S
H2079 C2071 0.929 . S
H2080 C2088 0.929 . S
H2081 C2090 0.930 . S
H2082 C2092 0.930 . S
H2083 C2095 0.929 . S
H2084 C2098 0.930 . S
H2085 C2100 0.960 . S
H2086 C2100 0.960 . S
H2087 C2100 0.960 . S
C2088 H2080 0.929 . S
C2088 C2089 1.377 . S
C2088 C2090 1.384 . S
C2089 C2088 1.377 . S
C2089 C2095 1.390 . S
C2090 H2081 0.930 . S
C2090 C2088 1.384 . S
C2090 C2091 1.372 . S
C2091 C2090 1.372 . S
C2091 C2092 1.400 . S
C2091 C2096 1.490 . S
C2092 H2082 0.930 . S
C2092 C2091 1.400 . S
C2092 C2095 1.386 . S
H2093 C2109 0.930 . S
H2094 C2110 0.931 . S
C2095 H2083 0.929 . S
C2095 C2089 1.390 . S
C2095 C2092 1.386 . S
C2096 C2091 1.490 . S
C2096 C2098 1.395 . S
C2096 C2099 1.403 . S
H2097 C2103 0.930 . S
C2098 H2084 0.930 . S
C2098 C2096 1.395 . S
C2098 C2101 1.403 . S
C2099 C2096 1.403 . S
C2099 C2100 1.524 . S
C2099 C2103 1.400 . S
C2100 H2085 0.960 . S
C2100 H2086 0.960 . S
C2100 H2087 0.960 . S
C2100 C2099 1.524 . S
C2101 C2098 1.403 . S
C2101 C2102 1.392 . S
C2101 C2105 1.495 . S
C2102 C2101 1.392 . S
C2102 C2103 1.385 . S
C2102 C2104 1.478 . S
C2103 H2097 0.930 . S
C2103 C2099 1.400 . S
C2103 C2102 1.385 . S
C2104 C2102 1.478 . S
C2104 C2106 1.381 . S
C2104 C2110 1.383 . S
C2105 C2101 1.495 . S
C2105 H2111 0.959 . S
C2105 H2112 0.961 . S
C2105 H2113 0.960 . S
C2106 C2104 1.381 . S
C2106 C2107 1.394 . S
C2106 H2114 0.930 . S
C2107 C2106 1.394 . S
C2107 C2108 1.383 . S
C2107 H2115 0.929 . S
C2108 C2107 1.383 . S
C2108 C2109 1.377 . S
C2109 H2093 0.930 . S
C2109 C2108 1.377 . S
C2109 C2110 1.379 . S
C2110 H2094 0.931 . S
C2110 C2104 1.383 . S
C2110 C2109 1.379 . S
H2111 C2105 0.959 . S
H2112 C2105 0.961 . S
H2113 C2105 0.960 . S
H2114 C2106 0.930 . S
H2115 C2107 0.929 . S
H2116 C2124 0.929 . S
H2117 C2126 0.930 . S
H2118 C2128 0.930 . S
H2119 C2131 0.929 . S
H2120 C2134 0.930 . S
H2121 C2136 0.960 . S
H2122 C2136 0.960 . S
H2123 C2136 0.960 . S
C2124 H2116 0.929 . S
C2124 C2125 1.377 . S
C2124 C2126 1.384 . S
C2125 C2124 1.377 . S
C2125 C2131 1.390 . S
C2126 H2117 0.930 . S
C2126 C2124 1.384 . S
C2126 C2127 1.372 . S
C2127 C2126 1.372 . S
C2127 C2128 1.400 . S
C2127 C2132 1.490 . S
C2128 H2118 0.930 . S
C2128 C2127 1.400 . S
C2128 C2131 1.386 . S
H2129 C2145 0.930 . S
H2130 C2146 0.931 . S
C2131 H2119 0.929 . S
C2131 C2125 1.390 . S
C2131 C2128 1.386 . S
C2132 C2127 1.490 . S
C2132 C2134 1.395 . S
C2132 C2135 1.403 . S
H2133 C2139 0.930 . S
C2134 H2120 0.930 . S
C2134 C2132 1.395 . S
C2134 C2137 1.403 . S
C2135 C2132 1.403 . S
C2135 C2136 1.524 . S
C2135 C2139 1.400 . S
C2136 H2121 0.960 . S
C2136 H2122 0.960 . S
C2136 H2123 0.960 . S
C2136 C2135 1.524 . S
C2137 C2134 1.403 . S
C2137 C2138 1.392 . S
C2137 C2141 1.495 . S
C2138 C2137 1.392 . S
C2138 C2139 1.385 . S
C2138 C2140 1.478 . S
C2139 H2133 0.930 . S
C2139 C2135 1.400 . S
C2139 C2138 1.385 . S
C2140 C2138 1.478 . S
C2140 C2142 1.381 . S
C2140 C2146 1.383 . S
C2141 C2137 1.495 . S
C2141 H2147 0.959 . S
C2141 H2148 0.961 . S
C2141 H2149 0.960 . S
C2142 C2140 1.381 . S
C2142 C2143 1.394 . S
C2142 H2150 0.930 . S
C2143 C2142 1.394 . S
C2143 C2144 1.383 . S
C2143 H2151 0.929 . S
C2144 C2143 1.383 . S
C2144 C2145 1.377 . S
C2145 H2129 0.930 . S
C2145 C2144 1.377 . S
C2145 C2146 1.379 . S
C2146 H2130 0.931 . S
C2146 C2140 1.383 . S
C2146 C2145 1.379 . S
H2147 C2141 0.959 . S
H2148 C2141 0.961 . S
H2149 C2141 0.960 . S
H2150 C2142 0.930 . S
H2151 C2143 0.929 . S
H2152 C2160 0.929 . S
H2153 C2162 0.930 . S
H2154 C2164 0.930 . S
H2155 C2167 0.929 . S
H2156 C2170 0.930 . S
H2157 C2172 0.960 . S
H2158 C2172 0.960 . S
H2159 C2172 0.960 . S
C2160 H2152 0.929 . S
C2160 C2161 1.377 1_554 S
C2160 C2162 1.384 . S
C2161 C2160 1.377 1_556 S
C2161 C2167 1.390 . S
C2162 H2153 0.930 . S
C2162 C2160 1.384 . S
C2162 C2163 1.372 1_554 S
C2163 C2162 1.372 1_556 S
C2163 C2164 1.400 . S
C2163 C2168 1.490 . S
C2164 H2154 0.930 . S
C2164 C2163 1.400 . S
C2164 C2167 1.386 . S
H2165 C2181 0.930 . S
H2166 C2182 0.931 . S
C2167 H2155 0.929 . S
C2167 C2161 1.390 . S
C2167 C2164 1.386 . S
C2168 C2163 1.490 . S
C2168 C2170 1.395 . S
C2168 C2171 1.403 . S
H2169 C2175 0.930 . S
C2170 H2156 0.930 . S
C2170 C2168 1.395 . S
C2170 C2173 1.403 . S
C2171 C2168 1.403 . S
C2171 C2172 1.524 . S
C2171 C2175 1.400 . S
C2172 H2157 0.960 . S
C2172 H2158 0.960 . S
C2172 H2159 0.960 . S
C2172 C2171 1.524 . S
C2173 C2170 1.403 . S
C2173 C2174 1.392 . S
C2173 C2177 1.495 . S
C2174 C2173 1.392 . S
C2174 C2175 1.385 . S
C2174 C2176 1.478 . S
C2175 H2169 0.930 . S
C2175 C2171 1.400 . S
C2175 C2174 1.385 . S
C2176 C2174 1.478 . S
C2176 C2178 1.381 . S
C2176 C2182 1.383 . S
C2177 C2173 1.495 . S
C2177 H2183 0.959 1_556 S
C2177 H2184 0.961 . S
C2177 H2185 0.960 1_556 S
C2178 C2176 1.381 . S
C2178 C2179 1.394 . S
C2178 H2186 0.930 1_556 S
C2179 C2178 1.394 . S
C2179 C2180 1.383 . S
C2179 H2187 0.910 1_556 S
C2180 C2179 1.383 . S
C2180 C2181 1.377 . S
C2181 H2165 0.930 . S
C2181 C2180 1.377 . S
C2181 C2182 1.379 . S
C2182 H2166 0.931 . S
C2182 C2176 1.383 . S
C2182 C2181 1.379 . S
H2183 C2177 0.959 1_554 S
H2184 C2177 0.961 . S
H2185 C2177 0.960 1_554 S
H2186 C2178 0.930 1_554 S
H2187 C2179 0.910 1_554 S
H2188 C2196 0.929 . S
H2189 C2198 0.930 . S
H2190 C2200 0.930 . S
H2191 C2203 0.929 . S
H2192 C2206 0.930 . S
H2193 C2208 0.960 . S
H2194 C2208 0.960 . S
H2195 C2208 0.960 . S
C2196 H2188 0.929 . S
C2196 C2197 1.377 . S
C2196 C2198 1.384 . S
C2197 C2196 1.377 . S
C2197 C2203 1.390 . S
C2198 H2189 0.930 . S
C2198 C2196 1.384 . S
C2198 C2199 1.372 . S
C2199 C2198 1.372 . S
C2199 C2200 1.400 . S
C2199 C2204 1.490 . S
C2200 H2190 0.930 . S
C2200 C2199 1.400 . S
C2200 C2203 1.386 . S
H2201 C2217 0.930 . S
H2202 C2218 0.931 . S
C2203 H2191 0.929 . S
C2203 C2197 1.390 . S
C2203 C2200 1.386 . S
C2204 C2199 1.490 . S
C2204 C2206 1.395 . S
C2204 C2207 1.403 . S
H2205 C2211 0.930 . S
C2206 H2192 0.930 . S
C2206 C2204 1.395 . S
C2206 C2209 1.403 . S
C2207 C2204 1.403 . S
C2207 C2208 1.524 . S
C2207 C2211 1.400 . S
C2208 H2193 0.960 . S
C2208 H2194 0.960 . S
C2208 H2195 0.960 . S
C2208 C2207 1.524 . S
C2209 C2206 1.403 . S
C2209 C2210 1.392 . S
C2209 C2213 1.495 . S
C2210 C2209 1.392 . S
C2210 C2211 1.385 . S
C2210 C2212 1.478 . S
C2211 H2205 0.930 . S
C2211 C2207 1.400 . S
C2211 C2210 1.385 . S
C2212 C2210 1.478 . S
C2212 C2214 1.381 . S
C2212 C2218 1.383 . S
C2213 C2209 1.495 . S
C2213 H2219 0.959 . S
C2213 H2220 0.961 . S
C2213 H2221 0.960 . S
C2214 C2212 1.381 . S
C2214 C2215 1.394 . S
C2214 H2222 0.930 . S
C2215 C2214 1.394 . S
C2215 C2216 1.383 . S
C2215 H2223 0.929 . S
C2216 C2215 1.383 . S
C2216 C2217 1.377 . S
C2217 H2201 0.930 . S
C2217 C2216 1.377 . S
C2217 C2218 1.379 . S
C2218 H2202 0.931 . S
C2218 C2212 1.383 . S
C2218 C2217 1.379 . S
H2219 C2213 0.959 . S
H2220 C2213 0.961 . S
H2221 C2213 0.960 . S
H2222 C2214 0.930 . S
H2223 C2215 0.929 . S
H2224 C2232 0.929 . S
H2225 C2234 0.930 . S
H2226 C2236 0.930 . S
H2227 C2239 0.929 . S
H2228 C2242 0.930 . S
H2229 C2244 0.960 . S
H2230 C2244 0.960 . S
H2231 C2244 0.960 . S
C2232 H2224 0.929 . S
C2232 C2233 1.377 . S
C2232 C2234 1.384 . S
C2233 C2232 1.377 . S
C2233 C2239 1.390 . S
C2234 H2225 0.930 . S
C2234 C2232 1.384 . S
C2234 C2235 1.372 . S
C2235 C2234 1.372 . S
C2235 C2236 1.400 . S
C2235 C2240 1.490 . S
C2236 H2226 0.930 . S
C2236 C2235 1.400 . S
C2236 C2239 1.386 . S
H2237 C2253 0.930 . S
H2238 C2254 0.931 . S
C2239 H2227 0.929 . S
C2239 C2233 1.390 . S
C2239 C2236 1.386 . S
C2240 C2235 1.490 . S
C2240 C2242 1.395 . S
C2240 C2243 1.403 . S
H2241 C2247 0.930 . S
C2242 H2228 0.930 . S
C2242 C2240 1.395 . S
C2242 C2245 1.403 . S
C2243 C2240 1.403 . S
C2243 C2244 1.524 . S
C2243 C2247 1.400 . S
C2244 H2229 0.960 . S
C2244 H2230 0.960 . S
C2244 H2231 0.960 . S
C2244 C2243 1.524 . S
C2245 C2242 1.403 . S
C2245 C2246 1.392 . S
C2245 C2249 1.495 . S
C2246 C2245 1.392 . S
C2246 C2247 1.385 . S
C2246 C2248 1.478 . S
C2247 H2241 0.930 . S
C2247 C2243 1.400 . S
C2247 C2246 1.385 . S
C2248 C2246 1.478 . S
C2248 C2250 1.381 . S
C2248 C2254 1.383 . S
C2249 C2245 1.495 . S
C2249 H2255 0.959 . S
C2249 H2256 0.961 . S
C2249 H2257 0.960 . S
C2250 C2248 1.381 . S
C2250 C2251 1.394 . S
C2250 H2258 0.930 . S
C2251 C2250 1.394 . S
C2251 C2252 1.383 . S
C2251 H2259 0.929 . S
C2252 C2251 1.383 . S
C2252 C2253 1.377 . S
C2253 H2237 0.930 . S
C2253 C2252 1.377 . S
C2253 C2254 1.379 . S
C2254 H2238 0.931 . S
C2254 C2248 1.383 . S
C2254 C2253 1.379 . S
H2255 C2249 0.959 . S
H2256 C2249 0.961 . S
H2257 C2249 0.960 . S
H2258 C2250 0.930 . S
H2259 C2251 0.929 . S
H2260 C2268 0.929 . S
H2261 C2270 0.930 . S
H2262 C2272 0.930 . S
H2263 C2275 0.929 . S
H2264 C2278 0.930 . S
H2265 C2280 0.960 . S
H2266 C2280 0.960 . S
H2267 C2280 0.960 . S
C2268 H2260 0.929 . S
C2268 C2269 1.377 . S
C2268 C2270 1.384 . S
C2269 C2268 1.377 . S
C2269 C2275 1.390 . S
C2270 H2261 0.930 . S
C2270 C2268 1.384 . S
C2270 C2271 1.372 . S
C2271 C2270 1.372 . S
C2271 C2272 1.400 . S
C2271 C2276 1.490 . S
C2272 H2262 0.930 . S
C2272 C2271 1.400 . S
C2272 C2275 1.386 . S
H2273 C2289 0.930 . S
H2274 C2290 0.931 . S
C2275 H2263 0.929 . S
C2275 C2269 1.390 . S
C2275 C2272 1.386 . S
C2276 C2271 1.490 . S
C2276 C2278 1.395 . S
C2276 C2279 1.403 . S
H2277 C2283 0.930 . S
C2278 H2264 0.930 . S
C2278 C2276 1.395 . S
C2278 C2281 1.403 . S
C2279 C2276 1.403 . S
C2279 C2280 1.524 . S
C2279 C2283 1.400 . S
C2280 H2265 0.960 . S
C2280 H2266 0.960 . S
C2280 H2267 0.960 . S
C2280 C2279 1.524 . S
C2281 C2278 1.403 . S
C2281 C2282 1.392 . S
C2281 C2285 1.495 . S
C2282 C2281 1.392 . S
C2282 C2283 1.385 . S
C2282 C2284 1.478 . S
C2283 H2277 0.930 . S
C2283 C2279 1.400 . S
C2283 C2282 1.385 . S
C2284 C2282 1.478 . S
C2284 C2286 1.381 . S
C2284 C2290 1.383 . S
C2285 C2281 1.495 . S
C2285 H2291 0.959 . S
C2285 H2292 0.961 . S
C2285 H2293 0.960 . S
C2286 C2284 1.381 . S
C2286 C2287 1.394 . S
C2286 H2294 0.930 . S
C2287 C2286 1.394 . S
C2287 C2288 1.383 . S
C2287 H2295 0.929 . S
C2288 C2287 1.383 . S
C2288 C2289 1.377 . S
C2289 H2273 0.930 . S
C2289 C2288 1.377 . S
C2289 C2290 1.379 . S
C2290 H2274 0.931 . S
C2290 C2284 1.383 . S
C2290 C2289 1.379 . S
H2291 C2285 0.959 . S
H2292 C2285 0.961 . S
H2293 C2285 0.960 . S
H2294 C2286 0.930 . S
H2295 C2287 0.929 . S
H2296 C2304 0.929 . S
H2297 C2306 0.930 . S
H2298 C2308 0.930 . S
H2299 C2311 0.929 . S
H2300 C2314 0.930 . S
H2301 C2316 0.960 . S
H2302 C2316 0.960 . S
H2303 C2316 0.960 . S
C2304 H2296 0.929 . S
C2304 C2305 1.377 . S
C2304 C2306 1.384 . S
C2305 C2304 1.377 . S
C2305 C2311 1.390 . S
C2306 H2297 0.930 . S
C2306 C2304 1.384 . S
C2306 C2307 1.372 . S
C2307 C2306 1.372 . S
C2307 C2308 1.400 . S
C2307 C2312 1.490 . S
C2308 H2298 0.930 . S
C2308 C2307 1.400 . S
C2308 C2311 1.386 . S
H2309 C2325 0.930 . S
H2310 C2326 0.931 . S
C2311 H2299 0.929 . S
C2311 C2305 1.390 . S
C2311 C2308 1.386 . S
C2312 C2307 1.490 . S
C2312 C2314 1.395 . S
C2312 C2315 1.403 . S
H2313 C2319 0.930 . S
C2314 H2300 0.930 . S
C2314 C2312 1.395 . S
C2314 C2317 1.403 . S
C2315 C2312 1.403 . S
C2315 C2316 1.524 . S
C2315 C2319 1.400 . S
C2316 H2301 0.960 . S
C2316 H2302 0.960 . S
C2316 H2303 0.960 . S
C2316 C2315 1.524 . S
C2317 C2314 1.403 . S
C2317 C2318 1.392 . S
C2317 C2321 1.495 . S
C2318 C2317 1.392 . S
C2318 C2319 1.385 . S
C2318 C2320 1.478 . S
C2319 H2313 0.930 . S
C2319 C2315 1.400 . S
C2319 C2318 1.385 . S
C2320 C2318 1.478 . S
C2320 C2322 1.381 . S
C2320 C2326 1.383 . S
C2321 C2317 1.495 . S
C2321 H2327 0.959 . S
C2321 H2328 0.961 . S
C2321 H2329 0.960 . S
C2322 C2320 1.381 . S
C2322 C2323 1.394 . S
C2322 H2330 0.930 . S
C2323 C2322 1.394 . S
C2323 C2324 1.383 . S
C2323 H2331 0.929 . S
C2324 C2323 1.383 . S
C2324 C2325 1.377 . S
C2325 H2309 0.930 . S
C2325 C2324 1.377 . S
C2325 C2326 1.379 . S
C2326 H2310 0.931 . S
C2326 C2320 1.383 . S
C2326 C2325 1.379 . S
H2327 C2321 0.959 . S
H2328 C2321 0.961 . S
H2329 C2321 0.960 . S
H2330 C2322 0.930 . S
H2331 C2323 0.929 . S
H2332 C2340 0.929 . S
H2333 C2342 0.930 . S
H2334 C2344 0.930 . S
H2335 C2347 0.929 . S
H2336 C2350 0.930 . S
H2337 C2352 0.960 . S
H2338 C2352 0.960 . S
H2339 C2352 0.960 . S
C2340 H2332 0.929 . S
C2340 C2341 1.377 . S
C2340 C2342 1.384 . S
C2341 C2340 1.377 . S
C2341 C2347 1.390 . S
C2342 H2333 0.930 . S
C2342 C2340 1.384 . S
C2342 C2343 1.372 . S
C2343 C2342 1.372 . S
C2343 C2344 1.400 . S
C2343 C2348 1.490 . S
C2344 H2334 0.930 . S
C2344 C2343 1.400 . S
C2344 C2347 1.386 . S
H2345 C2361 0.930 . S
H2346 C2362 0.931 . S
C2347 H2335 0.929 . S
C2347 C2341 1.390 . S
C2347 C2344 1.386 . S
C2348 C2343 1.490 . S
C2348 C2350 1.395 . S
C2348 C2351 1.403 . S
H2349 C2355 0.930 . S
C2350 H2336 0.930 . S
C2350 C2348 1.395 . S
C2350 C2353 1.403 . S
C2351 C2348 1.403 . S
C2351 C2352 1.524 . S
C2351 C2355 1.400 . S
C2352 H2337 0.960 . S
C2352 H2338 0.960 . S
C2352 H2339 0.960 . S
C2352 C2351 1.524 . S
C2353 C2350 1.403 . S
C2353 C2354 1.392 . S
C2353 C2357 1.495 . S
C2354 C2353 1.392 . S
C2354 C2355 1.385 . S
C2354 C2356 1.478 . S
C2355 H2349 0.930 . S
C2355 C2351 1.400 . S
C2355 C2354 1.385 . S
C2356 C2354 1.478 . S
C2356 C2358 1.381 . S
C2356 C2362 1.383 . S
C2357 C2353 1.495 . S
C2357 H2363 0.959 . S
C2357 H2364 0.961 . S
C2357 H2365 0.960 . S
C2358 C2356 1.381 . S
C2358 C2359 1.394 . S
C2358 H2366 0.930 . S
C2359 C2358 1.394 . S
C2359 C2360 1.383 . S
C2359 H2367 0.929 . S
C2360 C2359 1.383 . S
C2360 C2361 1.377 . S
C2361 H2345 0.930 . S
C2361 C2360 1.377 . S
C2361 C2362 1.379 . S
C2362 H2346 0.931 . S
C2362 C2356 1.383 . S
C2362 C2361 1.379 . S
H2363 C2357 0.959 . S
H2364 C2357 0.961 . S
H2365 C2357 0.960 . S
H2366 C2358 0.930 . S
H2367 C2359 0.929 . S
C649 C19 0.936 . S
C668 C55 0.905 . S
C685 C99 1.769 . S
C704 C50 1.758 . S
C721 C130 2.048 . S
C740 C98 2.029 . S
C757 C18 1.018 . S
C776 C135 1.016 . S
C793 C9 1.016 . S
C812 C366 0.992 . S
C829 C290 0.932 . S
C848 C46 0.916 . S
C865 C90 1.771 . S
C884 C419 1.749 . S
C901 C139 2.047 . S
C920 C529 2.042 . S
C937 C330 1.769 . S
C956 C59 1.759 . S
C973 C499 2.049 . S
C992 C89 2.050 . S
C1009 C569 1.013 . S
C1028 C126 0.982 . S
C1045 C10 0.936 . S
C1064 C446 0.949 . S
C1081 C15 0.641 . S
C1100 C326 0.639 . S
C1117 C498 1.447 . S
C1136 C169 1.430 . S
C1153 C215 0.606 . S
C1172 C566 0.654 . S
C1189 C449 1.449 . S
C1208 C258 1.418 . S
C1225 C95 0.607 . S
C1244 C286 0.677 . S
C1261 C369 1.445 . S
C1280 C178 1.421 . S
C1297 C249 1.440 . S
C1316 C418 1.464 . S
C1333 C210 1.771 . S
C1352 C459 1.738 . S
C1369 C379 2.048 . S
C1388 C209 2.046 . S
C1405 C455 0.925 . S
C1424 C299 0.942 . S
C1441 C219 1.770 . S
C1460 C170 1.755 . S
C1477 C370 2.047 . S
C1496 C338 2.039 . S
C1513 C539 1.771 . S
C1532 C450 1.751 . S
C1549 C250 2.045 . S
C1568 C218 2.047 . S
C1585 C375 1.017 . S
C1604 C578 0.994 . S
C1621 C535 0.616 . S
C1640 C6 0.626 . S
C1657 C86 0.616 . S
C1676 C575 0.682 . S
C1693 C489 1.444 . S
C1712 C58 1.420 . S
C1729 C295 0.629 . S
C1748 C206 0.613 . S
C1765 C138 1.442 . S
C1784 C409 1.463 . S
C1801 C490 2.047 . S
C1820 C538 2.046 . S
C1837 C298 1.018 . S
C1856 C495 1.014 . S
C1873 C246 1.009 . S
C1892 C289 0.994 . S
C1909 C179 1.753 . S
C1928 C530 1.769 . S
C1945 C486 1.012 . S
C1964 C609 1.005 . S
C1981 C606 0.636 . S
C2000 C335 0.634 . S
C2017 C49 1.441 . S
C2036 C378 1.455 . S
C2053 C329 2.043 . S
C2072 C259 2.055 . S
C2089 C339 1.769 . S
C2108 C410 1.751 . S
C2125 C618 1.022 . S
C2144 C255 0.972 . S
C2161 C526 0.608 . S
C2180 C615 0.656 . S
C2197 C458 1.450 . S
C2216 C129 1.422 . S
C2233 C415 0.913 . S
C2252 C579 0.935 . S
C2269 C406 0.928 . S
C2288 C610 0.942 . S
C2305 C166 0.927 . S
C2324 C570 0.936 . S
C2341 C619 0.933 . S
C2360 C175 0.954 . S
