# Generated by pormake.
# Topology ukt, (4)-cn, num edge types: 1
# Building blocks:
#     Node 0, Type 0, BuildingBlock: NAHDIM_clean_sbu_0, # of connection points: 4
#     Node 1, Type 0, BuildingBlock: NAHDIM_clean_sbu_0, # of connection points: 4
#     Node 2, Type 0, BuildingBlock: NAHDIM_clean_sbu_0, # of connection points: 4
#     Node 3, Type 0, BuildingBlock: NAHDIM_clean_sbu_0, # of connection points: 4
#     Node 4, Type 0, BuildingBlock: NAHDIM_clean_sbu_0, # of connection points: 4
#     Node 5, Type 0, BuildingBlock: NAHDIM_clean_sbu_0, # of connection points: 4
#     Node 6, Type 0, BuildingBlock: NAHDIM_clean_sbu_0, # of connection points: 4
#     Node 7, Type 0, BuildingBlock: NAHDIM_clean_sbu_0, # of connection points: 4
#     Node 8, Type 0, BuildingBlock: NAHDIM_clean_sbu_0, # of connection points: 4
#     Node 9, Type 0, BuildingBlock: NAHDIM_clean_sbu_0, # of connection points: 4
#     Node 10, Type 0, BuildingBlock: NAHDIM_clean_sbu_0, # of connection points: 4
#     Node 11, Type 0, BuildingBlock: NAHDIM_clean_sbu_0, # of connection points: 4
#     Node 12, Type 0, BuildingBlock: NAHDIM_clean_sbu_0, # of connection points: 4
#     Node 13, Type 0, BuildingBlock: NAHDIM_clean_sbu_0, # of connection points: 4
#     Node 14, Type 0, BuildingBlock: NAHDIM_clean_sbu_0, # of connection points: 4
#     Node 15, Type 0, BuildingBlock: NAHDIM_clean_sbu_0, # of connection points: 4
#     Edge 16, Type (0, 0), BuildingBlock: KIFKEQ_clean_linker_1, # of connection points: 2
#     Edge 17, Type (0, 0), BuildingBlock: KIFKEQ_clean_linker_1, # of connection points: 2
#     Edge 18, Type (0, 0), BuildingBlock: KIFKEQ_clean_linker_1, # of connection points: 2
#     Edge 19, Type (0, 0), BuildingBlock: KIFKEQ_clean_linker_1, # of connection points: 2
#     Edge 20, Type (0, 0), BuildingBlock: KIFKEQ_clean_linker_1, # of connection points: 2
#     Edge 21, Type (0, 0), BuildingBlock: KIFKEQ_clean_linker_1, # of connection points: 2
#     Edge 22, Type (0, 0), BuildingBlock: KIFKEQ_clean_linker_1, # of connection points: 2
#     Edge 23, Type (0, 0), BuildingBlock: KIFKEQ_clean_linker_1, # of connection points: 2
#     Edge 24, Type (0, 0), BuildingBlock: KIFKEQ_clean_linker_1, # of connection points: 2
#     Edge 25, Type (0, 0), BuildingBlock: KIFKEQ_clean_linker_1, # of connection points: 2
#     Edge 26, Type (0, 0), BuildingBlock: KIFKEQ_clean_linker_1, # of connection points: 2
#     Edge 27, Type (0, 0), BuildingBlock: KIFKEQ_clean_linker_1, # of connection points: 2
#     Edge 28, Type (0, 0), BuildingBlock: KIFKEQ_clean_linker_1, # of connection points: 2
#     Edge 29, Type (0, 0), BuildingBlock: KIFKEQ_clean_linker_1, # of connection points: 2
#     Edge 30, Type (0, 0), BuildingBlock: KIFKEQ_clean_linker_1, # of connection points: 2
#     Edge 31, Type (0, 0), BuildingBlock: KIFKEQ_clean_linker_1, # of connection points: 2
#     Edge 32, Type (0, 0), BuildingBlock: KIFKEQ_clean_linker_1, # of connection points: 2
#     Edge 33, Type (0, 0), BuildingBlock: KIFKEQ_clean_linker_1, # of connection points: 2
#     Edge 34, Type (0, 0), BuildingBlock: KIFKEQ_clean_linker_1, # of connection points: 2
#     Edge 35, Type (0, 0), BuildingBlock: KIFKEQ_clean_linker_1, # of connection points: 2
#     Edge 36, Type (0, 0), BuildingBlock: KIFKEQ_clean_linker_1, # of connection points: 2
#     Edge 37, Type (0, 0), BuildingBlock: KIFKEQ_clean_linker_1, # of connection points: 2
#     Edge 38, Type (0, 0), BuildingBlock: KIFKEQ_clean_linker_1, # of connection points: 2
#     Edge 39, Type (0, 0), BuildingBlock: KIFKEQ_clean_linker_1, # of connection points: 2
#     Edge 40, Type (0, 0), BuildingBlock: KIFKEQ_clean_linker_1, # of connection points: 2
#     Edge 41, Type (0, 0), BuildingBlock: KIFKEQ_clean_linker_1, # of connection points: 2
#     Edge 42, Type (0, 0), BuildingBlock: KIFKEQ_clean_linker_1, # of connection points: 2
#     Edge 43, Type (0, 0), BuildingBlock: KIFKEQ_clean_linker_1, # of connection points: 2
#     Edge 44, Type (0, 0), BuildingBlock: KIFKEQ_clean_linker_1, # of connection points: 2
#     Edge 45, Type (0, 0), BuildingBlock: KIFKEQ_clean_linker_1, # of connection points: 2
#     Edge 46, Type (0, 0), BuildingBlock: KIFKEQ_clean_linker_1, # of connection points: 2
#     Edge 47, Type (0, 0), BuildingBlock: KIFKEQ_clean_linker_1, # of connection points: 2
# Relax obj value: 0.320
# Max RMSD: 0.219
# Mean RMSD: 0.219
data_MOF--net-ukt--node1-NAHDIM_clean_sbu_0--edge1-KIFKEQ_clean_linker_1
_symmetry_space_group_name_H-M    P1
_symmetry_Int_Tables_number       1
_symmetry_cell_setting            triclinic
loop_
_symmetry_equiv_pos_as_xyz
'x, y, z'
_cell_length_a     43.482876
_cell_length_b     43.533885
_cell_length_c     35.853841
_cell_angle_alpha  90.02642
_cell_angle_beta   90.042302
_cell_angle_gamma 89.925774
loop_
_atom_site_label
_atom_site_type_symbol
_atom_site_fract_x
_atom_site_fract_y
_atom_site_fract_z
_atom_type_partial_charge
C0 C 0.54 0.07336 0.08619 0.0
O1 O 0.56242 0.07432 0.11076 0.0
O2 O 0.54453 0.16011 0.12442 0.0
Zn3 Zn 0.55692 0.13561 0.07921 0.0
O4 O 0.60079 0.12154 0.08282 0.0
C5 C 0.53927 0.18618 0.0303 0.0
O6 O 0.51997 0.19349 0.05706 0.0
O7 O 0.53141 0.09814 0.07062 0.0
C8 C 0.62306 0.14036 0.08348 0.0
O9 O 0.61721 0.16997 0.08447 0.0
C10 C 0.5597 0.15788 0.15458 0.0
O11 O 0.58206 0.13764 0.15685 0.0
O12 O 0.55583 0.16233 0.03374 0.0
C13 C 0.37816 0.49619 0.066 0.0
O14 O 0.3816 0.50553 0.1006 0.0
O15 O 0.30042 0.51316 0.11695 0.0
Zn16 Zn 0.32375 0.53096 0.07373 0.0
O17 O 0.34905 0.56705 0.0898 0.0
C18 C 0.28577 0.5349 0.00566 0.0
O19 O 0.29636 0.50755 0.99695 0.0
O20 O 0.35314 0.50203 0.04916 0.0
C21 C 0.33678 0.59324 0.09446 0.0
O22 O 0.30672 0.5958 0.0923 0.0
C23 C 0.30994 0.51656 0.1502 0.0
O24 O 0.33662 0.52986 0.15596 0.0
O25 O 0.29399 0.54748 0.03604 0.0
C26 C 0.9491 0.41543 0.06726 0.0
O27 O 0.92838 0.41693 0.09384 0.0
O28 O 0.94668 0.32749 0.10742 0.0
Zn29 Zn 0.92918 0.35327 0.06611 0.0
O30 O 0.88739 0.36922 0.07963 0.0
C31 C 0.94003 0.30457 0.01224 0.0
O32 O 0.96354 0.29782 0.03377 0.0
O33 O 0.95524 0.38953 0.05264 0.0
C34 C 0.86538 0.35261 0.0911 0.0
O35 O 0.87012 0.32317 0.09681 0.0
C36 C 0.94382 0.335 0.14146 0.0
O37 O 0.93047 0.3612 0.14986 0.0
O38 O 0.92301 0.32728 0.02052 0.0
C39 C 0.09248 0.98596 0.04894 0.0
O40 O 0.08647 0.97254 0.0809 0.0
O41 O 0.16783 0.96787 0.1064 0.0
Zn42 Zn 0.14821 0.95318 0.05879 0.0
O43 O 0.12428 0.91479 0.06852 0.0
C44 C 0.2079 0.95318 0.02298 0.0
O45 O 0.21365 0.9757 0.04637 0.0
O46 O 0.11908 0.98292 0.03477 0.0
C47 C 0.1368 0.89106 0.08244 0.0
O48 O 0.16576 0.89233 0.09283 0.0
C49 C 0.15482 0.96471 0.13787 0.0
O50 O 0.12663 0.95399 0.13921 0.0
O51 O 0.18133 0.94112 0.02267 0.0
C52 C 0.51555 0.39319 0.43287 0.0
O53 O 0.5306 0.39748 0.40153 0.0
O54 O 0.53646 0.31728 0.38033 0.0
Zn55 Zn 0.5481 0.33763 0.42885 0.0
O56 O 0.58706 0.36202 0.4241 0.0
C57 C 0.54064 0.28032 0.46809 0.0
O58 O 0.51786 0.27648 0.44445 0.0
O59 O 0.51688 0.36705 0.44846 0.0
C60 C 0.61345 0.34961 0.42588 0.0
O61 O 0.61552 0.31958 0.42863 0.0
C62 C 0.55235 0.32154 0.35107 0.0
O63 O 0.57463 0.34187 0.35168 0.0
O64 O 0.55607 0.30503 0.46706 0.0
C65 C 0.09272 0.52392 0.4455 0.0
O66 O 0.08923 0.53395 0.4112 0.0
O67 O 0.17117 0.5324 0.39371 0.0
Zn68 Zn 0.14972 0.55372 0.43605 0.0
O69 O 0.12736 0.59146 0.41885 0.0
C70 C 0.20412 0.55144 0.48237 0.0
O71 O 0.20769 0.52421 0.46715 0.0
O72 O 0.11845 0.52764 0.46162 0.0
C73 C 0.14122 0.61685 0.41456 0.0
O74 O 0.1713 0.61763 0.41793 0.0
C75 C 0.16216 0.53505 0.36017 0.0
O76 O 0.1371 0.55088 0.35303 0.0
O77 O 0.1809 0.56756 0.47357 0.0
C78 C 0.96996 0.10338 0.42336 0.0
O79 O 0.95756 0.10003 0.39018 0.0
O80 O 0.95495 0.1841 0.37599 0.0
Zn81 Zn 0.93788 0.15983 0.41887 0.0
O82 O 0.90019 0.13648 0.40375 0.0
C83 C 0.94072 0.21228 0.46811 0.0
O84 O 0.96675 0.21756 0.45067 0.0
O85 O 0.9669 0.12886 0.44021 0.0
C86 C 0.87399 0.14929 0.40224 0.0
O87 O 0.87198 0.17909 0.40758 0.0
C88 C 0.94999 0.17646 0.34233 0.0
O89 O 0.93522 0.15079 0.33533 0.0
O90 O 0.92504 0.18877 0.45944 0.0
C91 C 0.3949 0.94623 0.40999 0.0
O92 O 0.39543 0.93074 0.37853 0.0
O93 O 0.31169 0.93777 0.36757 0.0
Zn94 Zn 0.33631 0.92006 0.41007 0.0
O95 O 0.35778 0.88103 0.39538 0.0
C96 C 0.30017 0.92554 0.47975 0.0
O97 O 0.31069 0.95372 0.48263 0.0
O98 O 0.36986 0.94784 0.42815 0.0
C99 C 0.34573 0.85469 0.39913 0.0
O100 O 0.31653 0.85272 0.40822 0.0
C101 C 0.28491 0.92678 0.36276 0.0
O102 O 0.27527 0.90493 0.38513 0.0
O103 O 0.30827 0.90896 0.45232 0.0
C104 C 0.48354 0.87811 0.95369 0.0
O105 O 0.4702 0.8812 0.92101 0.0
O106 O 0.46915 0.79947 0.90455 0.0
Zn107 Zn 0.45262 0.82141 0.94968 0.0
O108 O 0.41366 0.84418 0.93775 0.0
C109 C 0.45616 0.76529 0.99278 0.0
O110 O 0.47882 0.75863 0.96993 0.0
O111 O 0.4814 0.85262 0.97066 0.0
C112 C 0.38758 0.8311 0.93806 0.0
O113 O 0.38619 0.80128 0.94341 0.0
C114 C 0.46307 0.80823 0.87157 0.0
O115 O 0.44681 0.83336 0.86661 0.0
O116 O 0.44239 0.79088 0.98955 0.0
C117 C 0.57243 0.44803 0.9255 0.0
O118 O 0.57188 0.43252 0.89407 0.0
O119 O 0.65824 0.44607 0.88479 0.0
Zn120 Zn 0.63296 0.42536 0.92412 0.0
O121 O 0.61481 0.38573 0.90611 0.0
C122 C 0.66962 0.43053 0.99315 0.0
O123 O 0.65956 0.45893 0.99556 0.0
O124 O 0.59773 0.45066 0.94297 0.0
C125 C 0.63062 0.36126 0.90437 0.0
O126 O 0.66048 0.36282 0.90971 0.0
C127 C 0.65251 0.4439 0.85018 0.0
O128 O 0.6278 0.42907 0.83924 0.0
O129 O 0.661 0.41374 0.96614 0.0
C130 C 0.01532 0.60367 0.9262 0.0
O131 O 0.02703 0.59943 0.89281 0.0
O132 O 0.03031 0.68261 0.8761 0.0
Zn133 Zn 0.04841 0.65913 0.919 0.0
O134 O 0.08579 0.63513 0.90408 0.0
C135 C 0.04505 0.7013 0.982 0.0
O136 O 0.01581 0.6938 0.98302 0.0
O137 O 0.01949 0.62925 0.94242 0.0
C138 C 0.11113 0.64822 0.8967 0.0
O139 O 0.11205 0.67836 0.89512 0.0
C140 C 0.03415 0.67479 0.84229 0.0
O141 O 0.04884 0.64914 0.83475 0.0
O142 O 0.06238 0.68932 0.95747 0.0
C143 C 0.90917 0.05025 0.89617 0.0
O144 O 0.91194 0.06839 0.8671 0.0
O145 O 0.82395 0.04812 0.84856 0.0
Zn146 Zn 0.84727 0.06975 0.88902 0.0
O147 O 0.86422 0.11046 0.87266 0.0
C148 C 0.8127 0.06549 0.96009 0.0
O149 O 0.82778 0.03996 0.96705 0.0
O150 O 0.88257 0.0453 0.90955 0.0
C151 C 0.8475 0.13438 0.87325 0.0
O152 O 0.81777 0.13137 0.8787 0.0
C153 C 0.83017 0.05049 0.81411 0.0
O154 O 0.85418 0.06667 0.80377 0.0
O155 O 0.81763 0.07992 0.92992 0.0
C156 C 0.4694 0.58336 0.58153 0.0
O157 O 0.44761 0.5839 0.60687 0.0
O158 O 0.4733 0.67139 0.62368 0.0
Zn159 Zn 0.45622 0.64727 0.58065 0.0
O160 O 0.4127 0.63482 0.5914 0.0
C161 C 0.46543 0.69951 0.53043 0.0
O162 O 0.48274 0.71083 0.55714 0.0
O163 O 0.47928 0.60861 0.56839 0.0
C164 C 0.39011 0.65244 0.58461 0.0
O165 O 0.39542 0.68077 0.57379 0.0
C166 C 0.4692 0.6622 0.65691 0.0
O167 O 0.45556 0.63569 0.66253 0.0
O168 O 0.45358 0.6731 0.53448 0.0
C169 C 0.89965 0.47562 0.58755 0.0
O170 O 0.89966 0.45537 0.61471 0.0
O171 O 0.81346 0.47055 0.62787 0.0
Zn172 Zn 0.83795 0.45606 0.58387 0.0
O173 O 0.85402 0.41338 0.59225 0.0
C174 C 0.78432 0.46629 0.5373 0.0
O175 O 0.77637 0.4857 0.56367 0.0
O176 O 0.87439 0.48217 0.57154 0.0
C177 C 0.83728 0.38996 0.58667 0.0
O178 O 0.80799 0.39385 0.57893 0.0
C179 C 0.81915 0.46181 0.66093 0.0
O180 O 0.84342 0.44456 0.66723 0.0
O181 O 0.81013 0.45274 0.53941 0.0
C182 C 0.02378 0.91014 0.56285 0.0
O183 O 0.0433 0.91054 0.59083 0.0
O184 O 0.02525 0.82458 0.60635 0.0
Zn185 Zn 0.04235 0.84802 0.56283 0.0
O186 O 0.08465 0.86361 0.57436 0.0
C187 C 0.03204 0.79487 0.51575 0.0
O188 O 0.01014 0.78877 0.53986 0.0
O189 O 0.0173 0.88462 0.54753 0.0
C190 C 0.10706 0.84683 0.5844 0.0
O191 O 0.10254 0.81734 0.58989 0.0
C192 C 0.031 0.83189 0.63991 0.0
O193 O 0.04681 0.85697 0.64672 0.0
O194 O 0.0476 0.81934 0.51946 0.0
C195 C 0.59127 -0.00165 0.54465 0.0
O196 O 0.58879 0.01155 0.57747 0.0
O197 O 0.67387 0.01332 0.58906 0.0
Zn198 Zn 0.64887 0.02885 0.54585 0.0
O199 O 0.62741 0.06808 0.55918 0.0
C200 C 0.70292 0.0258 0.49899 0.0
O201 O 0.71038 0.00272 0.52081 0.0
O202 O 0.61655 0.00025 0.52709 0.0
C203 C 0.64249 0.09291 0.56204 0.0
O204 O 0.67261 0.09204 0.55925 0.0
C205 C 0.66707 0.01988 0.62257 0.0
O206 O 0.64131 0.03463 0.62946 0.0
O207 O 0.67742 0.03941 0.50393 0.0
H208 H 0.57654 0.17722 0.96993 0.0
H209 H 0.51706 0.24451 0.02156 0.0
H210 H 0.59485 0.21603 0.92636 0.0
H211 H 0.53588 0.28339 0.97869 0.0
H212 H 0.56899 0.3502 0.89722 0.0
H213 H 0.54182 0.30391 0.91643 0.0
H214 H 0.62885 0.25889 0.93687 0.0
H215 H 0.65593 0.30475 0.91693 0.0
C216 C 0.56697 0.20016 0.97159 0.0
C217 C 0.54576 0.20795 -0.00034 0.0
C218 C 0.57755 0.22241 0.94667 0.0
C219 C 0.5672 0.25291 0.94936 0.0
C220 C 0.54419 0.26008 0.97558 0.0
C221 C 0.53353 0.2378 0.00041 0.0
C222 C 0.58233 0.33011 0.90481 0.0
C223 C 0.61463 0.33135 0.90634 0.0
C224 C 0.56673 0.30365 0.91601 0.0
C225 C 0.58312 0.27794 0.92894 0.0
C226 C 0.61544 0.27822 0.92697 0.0
C227 C 0.63104 0.30463 0.91567 0.0
H228 H 0.17026 0.66952 0.89425 0.0
H229 H 0.11717 0.58599 0.90348 0.0
H230 H 0.21662 0.64124 0.91136 0.0
H231 H 0.16334 0.55797 0.92121 0.0
H232 H 0.25448 0.51223 0.94505 0.0
H233 H 0.21577 0.53901 0.90744 0.0
H234 H 0.22951 0.62103 0.97324 0.0
H235 H 0.26803 0.59466 0.01024 0.0
C236 C 0.16856 0.64503 0.89909 0.0
C237 C 0.13993 0.63014 0.89831 0.0
C238 C 0.1951 0.62887 0.90906 0.0
C239 C 0.1935 0.59753 0.91835 0.0
C240 C 0.16537 0.58208 0.91417 0.0
C241 C 0.13884 0.59822 0.90422 0.0
C242 C 0.24945 0.53609 0.95109 0.0
C243 C 0.26404 0.55122 0.98086 0.0
C244 C 0.2273 0.55138 0.92961 0.0
C245 C 0.21966 0.58215 0.9373 0.0
C246 C 0.23519 0.59751 0.96615 0.0
C247 C 0.25705 0.58224 0.98769 0.0
H248 H 0.82038 0.18826 0.8942 0.0
H249 H 0.90836 0.14876 0.865 0.0
H250 H 0.84612 0.23328 0.91889 0.0
H251 H 0.93419 0.19443 0.8887 0.0
H252 H 0.96302 0.24769 0.99604 0.0
H253 H 0.94273 0.21081 0.95152 0.0
H254 H 0.8769 0.27823 0.91301 0.0
H255 H 0.89659 0.31484 0.95854 0.0
C256 C 0.84517 0.18962 0.89188 0.0
C257 C 0.86234 0.16464 0.87838 0.0
C258 C 0.86001 0.21558 0.90595 0.0
C259 C 0.89232 0.21724 0.90649 0.0
C260 C 0.90931 0.19353 0.88958 0.0
C261 C 0.89448 0.16746 0.87573 0.0
C262 C 0.94456 0.25483 0.97766 0.0
C263 C 0.93108 0.28399 0.98127 0.0
C264 C 0.93305 0.23373 0.95184 0.0
C265 C 0.90795 0.24143 0.92883 0.0
C266 C 0.89585 0.27135 0.93077 0.0
C267 C 0.90721 0.29236 0.9568 0.0
H268 H 0.3825 0.89307 0.92728 0.0
H269 H 0.32879 0.81204 0.95155 0.0
H270 H 0.3376 0.9252 0.93905 0.0
H271 H 0.28422 0.84415 0.96423 0.0
H272 H 0.20353 0.9069 0.97165 0.0
H273 H 0.24557 0.87927 0.94167 0.0
H274 H 0.31102 0.93938 0.9955 0.0
H275 H 0.26905 0.96744 0.02466 0.0
C276 C 0.36101 0.88207 0.93463 0.0
C277 C 0.35931 0.85001 0.93897 0.0
C278 C 0.33533 0.90051 0.94158 0.0
C279 C 0.30743 0.88731 0.95309 0.0
C280 C 0.30526 0.85511 0.95512 0.0
C281 C 0.3309 0.83666 0.94804 0.0
C282 C 0.22688 0.91454 0.9766 0.0
C283 C 0.23298 0.93917 0.00089 0.0
C284 C 0.25097 0.8986 0.95954 0.0
C285 C 0.28167 0.90688 0.96646 0.0
C286 C 0.28765 0.93254 0.9892 0.0
C287 C 0.26356 0.94855 0.00616 0.0
H288 H 0.52058 0.22091 0.46749 0.0
H289 H 0.58426 0.2819 0.52295 0.0
H290 H 0.5432 0.1774 0.49995 0.0
H291 H 0.60631 0.23841 0.5564 0.0
H292 H 0.58075 0.10286 0.56985 0.0
H293 H 0.55281 0.15024 0.55688 0.0
H294 H 0.63899 0.197 0.5376 0.0
H295 H 0.66683 0.15002 0.55167 0.0
C296 C 0.53894 0.22513 0.48728 0.0
C297 C 0.55094 0.25477 0.4922 0.0
C298 C 0.5518 0.20017 0.50615 0.0
C299 C 0.5768 0.20436 0.53057 0.0
C300 C 0.58747 0.23432 0.53726 0.0
C301 C 0.57474 0.25925 0.5182 0.0
C302 C 0.59373 0.12345 0.56363 0.0
C303 C 0.62599 0.12259 0.56121 0.0
C304 C 0.5777 0.15055 0.55599 0.0
C305 C 0.5936 0.17731 0.54559 0.0
C306 C 0.62596 0.17693 0.54578 0.0
C307 C 0.64198 0.14989 0.55367 0.0
H308 H 0.37113 0.59534 0.60619 0.0
H309 H 0.33883 0.67925 0.55493 0.0
H310 H 0.32293 0.57016 0.58994 0.0
H311 H 0.29111 0.65388 0.53778 0.0
H312 H 0.20205 0.60535 0.52134 0.0
H313 H 0.24374 0.62979 0.55568 0.0
H314 H 0.30269 0.55231 0.53138 0.0
H315 H 0.26079 0.52752 0.49802 0.0
C316 C 0.35355 0.60856 0.59197 0.0
C317 C 0.35895 0.63917 0.58137 0.0
C318 C 0.32602 0.59406 0.58245 0.0
C319 C 0.30337 0.60982 0.56201 0.0
C320 C 0.30794 0.64108 0.55375 0.0
C321 C 0.33541 0.65563 0.56345 0.0
C322 C 0.22379 0.59334 0.52379 0.0
C323 C 0.22824 0.56463 0.50661 0.0
C324 C 0.24771 0.60741 0.54337 0.0
C325 C 0.27663 0.59316 0.54605 0.0
C326 C 0.2806 0.5638 0.5303 0.0
C327 C 0.25663 0.54965 0.51089 0.0
H328 H 0.81135 0.33786 0.55828 0.0
H329 H 0.8967 0.37375 0.60204 0.0
H330 H 0.83803 0.29197 0.53725 0.0
H331 H 0.9233 0.32729 0.58196 0.0
H332 H 0.96284 0.2695 0.48404 0.0
H333 H 0.93829 0.30912 0.52148 0.0
H334 H 0.86576 0.24574 0.55069 0.0
H335 H 0.88987 0.20634 0.51224 0.0
C336 C 0.83565 0.33559 0.56435 0.0
C337 C 0.852 0.35966 0.58126 0.0
C338 C 0.85098 0.30915 0.55242 0.0
C339 C 0.88294 0.30613 0.55742 0.0
C340 C 0.89881 0.32921 0.57693 0.0
C341 C 0.88351 0.35574 0.58866 0.0
C342 C 0.94189 0.26387 0.49885 0.0
C343 C 0.92809 0.23493 0.49475 0.0
C344 C 0.9279 0.28654 0.5206 0.0
C345 C 0.89991 0.28068 0.53894 0.0
C346 C 0.88701 0.25117 0.53643 0.0
C347 C 0.90091 0.22856 0.51449 0.0
H348 H 0.12364 0.90635 0.57213 0.0
H349 H 0.16171 0.81633 0.59373 0.0
H350 H 0.17449 0.92541 0.55694 0.0
H351 H 0.21301 0.83576 0.57952 0.0
H352 H 0.27764 0.86737 0.48335 0.0
H353 H 0.2346 0.84904 0.51986 0.0
H354 H 0.227 0.93783 0.57309 0.0
H355 H 0.27001 0.95657 0.53555 0.0
C356 C 0.143 0.89079 0.57457 0.0
C357 C 0.13854 0.85962 0.58328 0.0
C358 C 0.17228 0.90184 0.56617 0.0
C359 C 0.19779 0.882 0.56644 0.0
C360 C 0.1937 0.85147 0.57832 0.0
C361 C 0.16433 0.84037 0.58664 0.0
C362 C 0.26712 0.88295 0.50318 0.0
C363 C 0.27691 0.91361 0.50608 0.0
C364 C 0.24259 0.87229 0.5245 0.0
C365 C 0.22722 0.892 0.54933 0.0
C366 C 0.23814 0.92219 0.55386 0.0
C367 C 0.26281 0.9329 0.53245 0.0
H368 H 0.41427 0.77352 0.04861 0.0
H369 H 0.47026 0.70421 0.99528 0.0
H370 H 0.38864 0.73388 0.08505 0.0
H371 H 0.44398 0.66454 0.03059 0.0
H372 H 0.39924 0.59624 0.10233 0.0
H373 H 0.43213 0.64002 0.08824 0.0
H374 H 0.35145 0.69604 0.06928 0.0
H375 H 0.31876 0.65273 0.08459 0.0
C376 C 0.42134 0.74984 0.04496 0.0
C377 C 0.44398 0.74192 0.01868 0.0
C378 C 0.40656 0.72711 0.06575 0.0
C379 C 0.41392 0.69596 0.06045 0.0
C380 C 0.4379 0.68829 0.03577 0.0
C381 C 0.45287 0.71104 0.01525 0.0
C382 C 0.38857 0.61814 0.09605 0.0
C383 C 0.3564 0.62092 0.09395 0.0
C384 C 0.40742 0.64317 0.08774 0.0
C385 C 0.39448 0.67141 0.07691 0.0
C386 C 0.36229 0.67475 0.07773 0.0
C387 C 0.34346 0.64981 0.08635 0.0
H388 H 0.69178 0.37216 -0.00253 0.0
H389 H 0.70106 0.46205 0.04745 0.0
H390 H 0.73574 0.35412 0.03274 0.0
H391 H 0.74498 0.44361 0.08376 0.0
H392 H 0.84826 0.41201 0.07868 0.0
H393 H 0.7969 0.43093 0.06558 0.0
H394 H 0.75937 0.34157 0.09149 0.0
H395 H 0.81115 0.32228 0.10361 0.0
C396 C 0.70285 0.38795 0.01659 0.0
C397 C 0.69327 0.41872 0.01914 0.0
C398 C 0.72793 0.37746 0.03721 0.0
C399 C 0.74405 0.39745 0.06096 0.0
C400 C 0.73328 0.42775 0.06531 0.0
C401 C 0.70808 0.43829 0.04462 0.0
C402 C 0.82904 0.39649 0.08231 0.0
C403 C 0.83386 0.36543 0.09132 0.0
C404 C 0.79947 0.40746 0.07511 0.0
C405 C 0.77404 0.38764 0.07691 0.0
C406 C 0.77859 0.35725 0.08913 0.0
C407 C 0.80824 0.34623 0.09624 0.0
H408 H 0.0135 0.73849 0.03048 0.0
H409 H 0.10492 0.7183 0.98995 0.0
H410 H 0.03393 0.78186 0.06603 0.0
H411 H 0.12508 0.76164 0.02471 0.0
H412 H 0.15929 0.83401 0.09949 0.0
H413 H 0.13539 0.78467 0.08533 0.0
H414 H 0.05393 0.83172 0.04639 0.0
H415 H 0.07742 0.88083 0.06122 0.0
C416 C 0.03796 0.74304 0.02953 0.0
C417 C 0.05752 0.72524 0.00701 0.0
C418 C 0.04964 0.7679 0.04981 0.0
C419 C 0.08109 0.77526 0.04807 0.0
C420 C 0.10081 0.7564 0.0271 0.0
C421 C 0.08917 0.7317 0.00681 0.0
C422 C 0.13601 0.83378 0.08872 0.0
C423 C 0.12048 0.86133 0.0808 0.0
C424 C 0.12238 0.80552 0.08047 0.0
C425 C 0.09297 0.80431 0.0642 0.0
C426 C 0.07654 0.8318 0.05908 0.0
C427 C 0.09014 0.86001 0.06732 0.0
H428 H 0.67586 0.17416 0.07825 0.0
H429 H 0.64182 0.08097 0.07402 0.0
H430 H 0.72605 0.15634 0.05689 0.0
H431 H 0.69162 0.06337 0.05182 0.0
H432 H 0.78876 0.03721 0.0221 0.0
H433 H 0.74674 0.05576 0.0616 0.0
H434 H 0.74142 0.13866 0.99564 0.0
H435 H 0.78335 0.12059 0.95698 0.0
C436 C 0.6792 0.14984 0.07334 0.0
C437 C 0.65471 0.12908 0.07715 0.0
C438 C 0.70791 0.13964 0.06095 0.0
C439 C 0.71266 0.10852 0.05206 0.0
C440 C 0.68881 0.08746 0.05858 0.0
C441 C 0.66015 0.09762 0.07107 0.0
C442 C 0.77884 0.05956 0.01644 0.0
C443 C 0.78915 0.07726 0.98618 0.0
C444 C 0.75475 0.07014 0.03897 0.0
C445 C 0.74074 0.09868 0.03177 0.0
C446 C 0.75196 0.1168 0.00239 0.0
C447 C 0.77584 0.10624 0.9799 0.0
H448 H 0.4781 0.76025 0.51865 0.0
H449 H 0.42878 0.68321 0.47174 0.0
H450 H 0.45252 0.79451 0.47491 0.0
H451 H 0.4036 0.71747 0.42752 0.0
H452 H 0.40817 0.85218 0.39006 0.0
H453 H 0.44236 0.81129 0.41105 0.0
H454 H 0.36353 0.75546 0.43874 0.0
H455 H 0.32941 0.79599 0.41726 0.0
C456 C 0.46244 0.75049 0.49837 0.0
C457 C 0.45504 0.71912 0.49918 0.0
C458 C 0.44789 0.77012 0.47307 0.0
C459 C 0.42572 0.75874 0.44802 0.0
C460 C 0.42018 0.72698 0.44689 0.0
C461 C 0.4347 0.70737 0.47219 0.0
C462 C 0.39812 0.83084 0.39967 0.0
C463 C 0.36603 0.82756 0.40272 0.0
C464 C 0.41775 0.8075 0.41187 0.0
C465 C 0.40568 0.78038 0.42719 0.0
C466 C 0.37363 0.77601 0.42695 0.0
C467 C 0.354 0.79935 0.41479 0.0
H468 H 0.72349 0.48168 0.53308 0.0
H469 H 0.79317 0.42614 0.47964 0.0
H470 H 0.68401 0.45605 0.49657 0.0
H471 H 0.75366 0.40101 0.44235 0.0
H472 H 0.67212 0.33129 0.44164 0.0
H473 H 0.71519 0.36371 0.45935 0.0
H474 H 0.66047 0.44465 0.43723 0.0
H475 H 0.61703 0.41213 0.42037 0.0
C476 C 0.73048 0.4646 0.51281 0.0
C477 C 0.76139 0.45558 0.50975 0.0
C478 C 0.70783 0.44997 0.49167 0.0
C479 C 0.71565 0.42615 0.46689 0.0
C480 C 0.74684 0.41883 0.46175 0.0
C481 C 0.76948 0.43337 0.48299 0.0
C482 C 0.66943 0.35599 0.43988 0.0
C483 C 0.64102 0.36912 0.4302 0.0
C484 C 0.69422 0.37463 0.44981 0.0
C485 C 0.69118 0.40681 0.45007 0.0
C486 C 0.66337 0.41994 0.43795 0.0
C487 C 0.63854 0.40129 0.42816 0.0
H488 H 0.16236 0.67532 0.42425 0.0
H489 H 0.0792 0.62347 0.40479 0.0
H490 H 0.13187 0.72055 0.4384 0.0
H491 H 0.04856 0.66917 0.41774 0.0
H492 H 0.01353 0.73508 0.51126 0.0
H493 H 0.03735 0.69426 0.47528 0.0
H494 H 0.09691 0.76052 0.42211 0.0
H495 H 0.07369 0.80132 0.45921 0.0
C496 C 0.13757 0.67381 0.42185 0.0
C497 C 0.12319 0.64566 0.41417 0.0
C498 C 0.12001 0.69988 0.42978 0.0
C499 C 0.08767 0.6984 0.42984 0.0
C500 C 0.07339 0.6709 0.41881 0.0
C501 C 0.09096 0.64476 0.41118 0.0
C502 C 0.03127 0.74106 0.49136 0.0
C503 C 0.04211 0.77134 0.48862 0.0
C504 C 0.04484 0.71763 0.47045 0.0
C505 C 0.06938 0.72401 0.44608 0.0
C506 C 0.07853 0.75471 0.4412 0.0
C507 C 0.06511 0.77811 0.46235 0.0
H508 H 0.69371 0.07082 0.44706 0.0
H509 H 0.76371 0.011 0.49251 0.0
H510 H 0.73283 0.09832 0.41177 0.0
H511 H 0.80285 0.03903 0.4583 0.0
H512 H 0.86989 0.08769 0.3884 0.0
H513 H 0.82604 0.05445 0.40086 0.0
H514 H 0.7716 0.13398 0.43038 0.0
H515 H 0.81501 0.16715 0.41679 0.0
C516 C 0.7174 0.06328 0.44914 0.0
C517 C 0.7257 0.03902 0.47301 0.0
C518 C 0.73983 0.07913 0.42903 0.0
C519 C 0.77104 0.0712 0.43256 0.0
C520 C 0.77902 0.04563 0.45456 0.0
C521 C 0.75657 0.02963 0.47444 0.0
C522 C 0.84832 0.09811 0.3967 0.0
C523 C 0.84605 0.13001 0.40223 0.0
C524 C 0.82324 0.07903 0.40404 0.0
C525 C 0.79546 0.09145 0.41727 0.0
C526 C 0.79254 0.12358 0.41999 0.0
C527 C 0.81754 0.14266 0.41238 0.0
H528 H 0.49235 0.93558 0.92543 0.0
H529 H 0.50096 0.88247 0.02676 0.0
H530 H 0.50541 0.98202 0.95978 0.0
H531 H 0.51312 0.92906 0.06131 0.0
H532 H 0.56298 0.01642 0.10176 0.0
H533 H 0.55118 0.96849 0.06988 0.0
H534 H 0.48114 0.01485 0.00535 0.0
H535 H 0.49356 0.06301 0.03645 0.0
C536 C 0.49724 0.93378 0.95498 0.0
C537 C 0.49549 0.90538 0.97339 0.0
C538 C 0.50438 0.96044 0.97475 0.0
C539 C 0.50977 0.95931 0.01341 0.0
C540 C 0.50921 0.93071 0.03154 0.0
C541 C 0.50223 0.904 0.01171 0.0
C542 C 0.54477 0.01631 0.08114 0.0
C543 C 0.52938 0.04356 0.07139 0.0
C544 C 0.53801 0.98881 0.06287 0.0
C545 C 0.51558 0.98796 0.03465 0.0
C546 C 0.49911 0.01492 0.02628 0.0
C547 C 0.50599 0.04244 0.04439 0.0
H548 H 0.43365 0.47765 0.09357 0.0
H549 H 0.38373 0.4905 0.99047 0.0
H550 H 0.48016 0.46621 0.05835 0.0
H551 H 0.4304 0.48026 0.9553 0.0
H552 H 0.51422 0.43319 0.90389 0.0
H553 H 0.4667 0.44229 0.93777 0.0
H554 H 0.51703 0.49313 0.02149 0.0
H555 H 0.56483 0.48295 0.98824 0.0
C556 C 0.43257 0.47781 0.06339 0.0
C557 C 0.40506 0.48504 0.04482 0.0
C558 C 0.4593 0.47162 0.04319 0.0
C559 C 0.45917 0.4728 0.00398 0.0
C560 C 0.43132 0.47892 0.98543 0.0
C561 C 0.40452 0.48481 0.00563 0.0
C562 C 0.51513 0.4466 0.92933 0.0
C563 C 0.54331 0.45725 0.94348 0.0
C564 C 0.48783 0.45185 0.94875 0.0
C565 C 0.48805 0.46815 0.98259 0.0
C566 C 0.51613 0.47983 0.99598 0.0
C567 C 0.54349 0.47432 0.97672 0.0
H568 H 0.00149 0.5466 0.89959 0.0
H569 H 0.00064 0.60131 0.00022 0.0
H570 H 0.98597 0.50171 0.93542 0.0
H571 H 0.9861 0.55624 0.03621 0.0
H572 H 0.99333 0.42083 0.01357 0.0
H573 H 0.00831 0.46719 0.98023 0.0
H574 H 0.94542 0.52047 0.04763 0.0
H575 H 0.93119 0.47433 0.08172 0.0
C576 C -0.00217 0.54908 0.92932 0.0
C577 C 0.00238 0.57747 0.94707 0.0
C578 C 0.98926 0.52329 0.94993 0.0
C579 C 0.98525 0.52527 0.98878 0.0
C580 C 0.98881 0.55393 0.00632 0.0
C581 C -0.00282 0.57978 0.98566 0.0
C582 C 0.98301 0.44251 0.02158 0.0
C583 C 0.96099 0.44389 0.05017 0.0
C584 C 0.99134 0.46903 0.00222 0.0
C585 C 0.97771 0.49746 0.01087 0.0
C586 C 0.9565 0.49899 0.04038 0.0
C587 C 0.94832 0.4725 0.05991 0.0
H588 H 0.03506 0.00137 0.07303 0.0
H589 H 0.09248 0.00016 0.97472 0.0
H590 H 0.99134 0.01729 0.0352 0.0
H591 H 0.04854 0.01492 0.93665 0.0
H592 H 0.96856 0.06782 0.88454 0.0
H593 H 0.01342 0.05488 0.9219 0.0
H594 H 0.95745 -0.00471 0.99028 0.0
H595 H 0.9123 0.0092 0.95372 0.0
C596 C 0.03838 0.00468 0.04336 0.0
C597 C 0.06718 -0.00057 0.02685 0.0
C598 C 0.01324 0.01348 0.0216 0.0
C599 C 0.01627 0.01692 0.98277 0.0
C600 C 0.0454 0.01272 0.96649 0.0
C601 C 0.07062 0.00423 0.98833 0.0
C602 C 0.96586 0.05174 0.90736 0.0
C603 C 0.93685 0.0396 0.91626 0.0
C604 C 0.99164 0.04428 0.92876 0.0
C605 C 0.98904 0.02426 0.95934 0.0
C606 C 0.96016 0.01135 0.96747 0.0
C607 C 0.93432 0.01905 0.94627 0.0
H608 H 0.44274 0.52731 0.59169 0.0
H609 H 0.51406 0.5734 0.52925 0.0
H610 H 0.45085 0.48101 0.55504 0.0
H611 H 0.52291 0.52668 0.49339 0.0
H612 H 0.50889 0.45214 0.40826 0.0
H613 H 0.49745 0.49745 0.44566 0.0
H614 H 0.48591 0.44003 0.54297 0.0
H615 H 0.49628 0.39472 0.50536 0.0
C616 C 0.46058 0.52739 0.57062 0.0
C617 C 0.47766 0.55409 0.56324 0.0
C618 C 0.46522 0.5008 0.54959 0.0
C619 C 0.48723 0.50025 0.52092 0.0
C620 C 0.50522 0.52658 0.51464 0.0
C621 C 0.50042 0.55324 0.53549 0.0
C622 C 0.50338 0.44916 0.43749 0.0
C623 C 0.50366 0.41987 0.45387 0.0
C624 C 0.49719 0.47515 0.45904 0.0
C625 C 0.49135 0.47243 0.49748 0.0
C626 C 0.49019 0.44297 0.51344 0.0
C627 C 0.49615 0.41696 0.49183 0.0
H628 H 0.0892 0.51362 0.52057 0.0
H629 H 0.03505 0.51186 0.41944 0.0
H630 H 0.04309 0.50388 0.55715 0.0
H631 H 0.9891 0.50119 0.45593 0.0
H632 H 0.90821 0.51741 0.53168 0.0
H633 H 0.9558 0.52828 0.49844 0.0
H634 H 0.00477 0.46602 0.57126 0.0
H635 H 0.95744 0.45589 0.60519 0.0
C636 C 0.06755 0.5106 0.50607 0.0
C637 C 0.06573 0.51369 0.46711 0.0
C638 C 0.04111 0.50501 0.52707 0.0
C639 C 0.01234 0.5022 0.50951 0.0
C640 C 0.01078 0.50402 0.4704 0.0
C641 C 0.03717 0.5098 0.44943 0.0
C642 C 0.92923 0.50641 0.54094 0.0
C643 C 0.92902 0.48567 0.57093 0.0
C644 C 0.95644 0.51237 0.52164 0.0
C645 C 0.98398 0.49759 0.53179 0.0
C646 C 0.98401 0.47789 0.56282 0.0
C647 C 0.95683 0.47207 0.58226 0.0
H648 H 0.98203 0.91822 0.50659 0.0
H649 H 0.04413 0.96785 0.5789 0.0
H650 H 0.97047 0.96564 0.47328 0.0
H651 H 0.03349 0.01491 0.54483 0.0
H652 H 0.98376 0.09908 0.49748 0.0
H653 H -0.00452 0.05277 0.53259 0.0
H654 H -0.00523 2e-05 0.43039 0.0
H655 H 0.9819 0.04625 0.39541 0.0
C656 C 0.99309 0.93927 0.51548 0.0
C657 C 0.01401 0.93927 0.54534 0.0
C658 C 0.98675 0.96639 0.49613 0.0
C659 C 0.00138 -0.00597 0.50604 0.0
C660 C 0.02161 -0.00587 0.53662 0.0
C661 C 0.02775 0.96709 0.55615 0.0
C662 C 0.98649 0.07768 0.48241 0.0
C663 C 0.98174 0.0763 0.44367 0.0
C664 C 0.99324 0.05109 0.50257 0.0
C665 C -0.0043 0.02257 0.48439 0.0
C666 C 0.99228 0.02147 0.4454 0.0
C667 C 0.98526 0.04803 0.42527 0.0
H668 H 0.58442 0.98761 0.47025 0.0
H669 H 0.53519 0.98495 0.57483 0.0
H670 H 0.53715 0.97681 0.43685 0.0
H671 H 0.48791 0.97254 0.5415 0.0
H672 H 0.4027 0.98417 0.47014 0.0
H673 H 0.45068 -0.00429 0.50251 0.0
H674 H 0.50035 0.93963 0.42315 0.0
H675 H 0.45284 0.9295 0.38996 0.0
C676 C 0.5636 0.98399 0.48621 0.0
C677 C 0.56352 0.98718 0.5252 0.0
C678 C 0.53641 0.97774 0.46701 0.0
C679 C 0.50855 0.97402 0.48639 0.0
C680 C 0.50876 0.97601 0.52557 0.0
C681 C 0.53592 0.98273 0.54475 0.0
C682 C 0.42399 0.97473 0.45937 0.0
C683 C 0.42402 0.95605 0.42745 0.0
C684 C 0.45145 0.98101 0.47817 0.0
C685 C 0.47944 0.96836 0.46572 0.0
C686 C 0.47939 0.95015 0.43332 0.0
C687 C 0.45206 0.94428 0.41425 0.0
H688 H 0.59291 0.31328 0.29414 0.0
H689 H 0.50558 0.28112 0.33637 0.0
H690 H 0.59209 0.27317 0.2467 0.0
H691 H 0.50469 0.24119 0.28811 0.0
H692 H 0.51062 0.19644 0.16517 0.0
H693 H 0.50593 0.23744 0.21182 0.0
H694 H 0.59429 0.21224 0.25736 0.0
H695 H 0.59887 0.17108 0.21155 0.0
C696 C 0.57327 0.29804 0.29291 0.0
C697 C 0.5494 0.30023 0.31918 0.0
C698 C 0.57293 0.275 0.26588 0.0
C699 C 0.5485 0.25403 0.26416 0.0
C700 C 0.52377 0.25715 0.28901 0.0
C701 C 0.52434 0.27993 0.31655 0.0
C702 C 0.52885 0.19945 0.18546 0.0
C703 C 0.55515 0.18061 0.18467 0.0
C704 C 0.52611 0.22283 0.21206 0.0
C705 C 0.54991 0.22806 0.23773 0.0
C706 C 0.57581 0.20879 0.23752 0.0
C707 C 0.5783 0.18513 0.21146 0.0
H708 H 0.21665 0.50385 0.36538 0.0
H709 H 0.15241 0.54128 0.28528 0.0
H710 H 0.25222 0.49158 0.31498 0.0
H711 H 0.1882 0.52959 0.23511 0.0
H712 H 0.25149 0.49334 0.14783 0.0
H713 H 0.21478 0.49032 0.19908 0.0
H714 H 0.28441 0.52326 0.27521 0.0
H715 H 0.32121 0.52569 0.22429 0.0
C716 C 0.20994 0.50913 0.337 0.0
C717 C 0.18184 0.52388 0.32937 0.0
C718 C 0.2304 0.50221 0.30815 0.0
C719 C 0.22318 0.50986 0.27109 0.0
C720 C 0.19437 0.5231 0.2633 0.0
C721 C 0.17391 0.53001 0.29213 0.0
C722 C 0.25912 0.4994 0.17563 0.0
C723 C 0.28917 0.51014 0.18191 0.0
C724 C 0.23803 0.49781 0.20495 0.0
C725 C 0.24656 0.50687 0.24113 0.0
C726 C 0.27713 0.51586 0.24775 0.0
C727 C 0.29821 0.51744 0.21847 0.0
H728 H 0.93672 0.34173 0.21675 0.0
H729 H 0.96926 0.27791 0.13319 0.0
H730 H 0.94421 0.30285 0.2647 0.0
H731 H 0.97728 0.23919 0.18135 0.0
H732 H 0.93844 0.16943 0.26791 0.0
H733 H 0.94276 0.20818 0.21931 0.0
H734 H 0.98141 0.27182 0.29903 0.0
H735 H 0.97657 0.23321 0.34791 0.0
C736 C 0.94597 0.31959 0.20869 0.0
C737 C 0.95206 0.31283 0.1711 0.0
C738 C 0.95045 0.29734 0.23623 0.0
C739 C 0.96116 0.26784 0.22679 0.0
C740 C 0.96857 0.26155 0.18942 0.0
C741 C 0.9641 0.2838 0.16187 0.0
C742 C 0.94828 0.19151 0.27499 0.0
C743 C 0.95682 0.19833 0.31187 0.0
C744 C 0.95093 0.21371 0.24706 0.0
C745 C 0.9622 0.24319 0.25538 0.0
C746 C 0.97218 0.24948 0.29188 0.0
C747 C 0.96956 0.22728 0.31982 0.0
H748 H 0.22842 0.90506 0.34365 0.0
H749 H 0.29619 0.97284 0.31234 0.0
H750 H 0.19649 0.92031 0.2914 0.0
H751 H 0.26358 0.98884 0.26027 0.0
H752 H 0.21693 0.97268 0.1445 0.0
H753 H 0.24763 0.96835 0.20098 0.0
H754 H 0.16459 0.95996 0.26636 0.0
H755 H 0.13389 0.96325 0.20963 0.0
C756 C 0.23636 0.92352 0.32586 0.0
C757 C 0.26497 0.93758 0.33201 0.0
C758 C 0.21785 0.9325 0.29602 0.0
C759 C 0.22737 0.95591 0.27166 0.0
C760 C 0.25571 0.97051 0.2783 0.0
C761 C 0.27434 0.96142 0.30817 0.0
C762 C 0.20518 0.97045 0.17099 0.0
C763 C 0.17298 0.96781 0.17254 0.0
C764 C 0.22281 0.96811 0.20345 0.0
C765 C 0.20861 0.96332 0.23817 0.0
C766 C 0.17629 0.96289 0.23995 0.0
C767 C 0.15867 0.96497 0.20746 0.0
H768 H 0.45135 0.81872 0.79778 0.0
H769 H 0.49273 0.75278 0.87273 0.0
H770 H 0.4588 0.78334 0.74595 0.0
H771 H 0.50063 0.71759 0.82067 0.0
H772 H 0.46149 0.65044 0.73111 0.0
H773 H 0.46576 0.68661 0.78262 0.0
H774 H 0.49633 0.75698 0.70629 0.0
H775 H 0.49159 0.7209 0.65452 0.0
C776 C 0.4625 0.7969 0.80311 0.0
C777 C 0.47113 0.78845 0.83945 0.0
C778 C 0.46696 0.77668 0.77333 0.0
C779 C 0.48012 0.74756 0.77925 0.0
C780 C 0.49002 0.73968 0.81532 0.0
C781 C 0.48562 0.75993 0.8451 0.0
C782 C 0.46954 0.67349 0.72534 0.0
C783 C 0.47588 0.68286 0.68866 0.0
C784 C 0.47217 0.69419 0.75493 0.0
C785 C 0.48119 0.72474 0.74849 0.0
C786 C 0.48891 0.73372 0.71204 0.0
C787 C 0.48635 0.71298 0.68244 0.0
H788 H 0.76317 0.48999 0.65461 0.0
H789 H 0.82282 0.44505 0.73426 0.0
H790 H 0.7224 0.49207 0.70118 0.0
H791 H 0.78192 0.4469 0.78062 0.0
H792 H 0.70853 0.46991 0.86418 0.0
H793 H 0.74929 0.48075 0.81946 0.0
H794 H 0.68995 0.45165 0.7295 0.0
H795 H 0.64904 0.44107 0.77409 0.0
C796 C 0.76776 0.48096 0.6822 0.0
C797 C 0.79616 0.46706 0.69063 0.0
C798 C 0.74433 0.48202 0.70879 0.0
C799 C 0.74886 0.46942 0.74442 0.0
C800 C 0.7778 0.45703 0.75348 0.0
C801 C 0.80119 0.45582 0.72684 0.0
C802 C 0.70398 0.46625 0.83481 0.0
C803 C 0.67562 0.4543 0.82271 0.0
C804 C 0.72741 0.47234 0.80924 0.0
C805 C 0.72291 0.46681 0.77104 0.0
C806 C 0.69403 0.45639 0.75875 0.0
C807 C 0.67064 0.45016 0.78433 0.0
H808 H 0.04199 0.839 0.71447 0.0
H809 H 0.00416 0.77529 0.63416 0.0
H810 H 0.0367 0.80043 0.7632 0.0
H811 H -0.00148 0.73685 0.68311 0.0
H812 H 0.00765 0.73151 0.84905 0.0
H813 H 0.00047 0.76985 0.80027 0.0
H814 H 0.03567 0.70584 0.71864 0.0
H815 H 0.04247 0.66734 0.76724 0.0
C816 C 0.03204 0.81697 0.70733 0.0
C817 C 0.02379 0.81014 0.67036 0.0
C818 C 0.02884 0.7949 0.73532 0.0
C819 C 0.01738 0.7655 0.72694 0.0
C820 C 0.00781 0.75915 0.69031 0.0
C821 C 0.01091 0.78126 0.66233 0.0
C822 C 0.01343 0.72543 0.82061 0.0
C823 C 0.02595 0.69646 0.81208 0.0
C824 C 0.00944 0.74747 0.79271 0.0
C825 C 0.01776 0.74099 0.75569 0.0
C826 C 0.02879 0.71148 0.74686 0.0
C827 C 0.03285 0.68945 0.77477 0.0
H828 H 0.72565 -0.00244 0.61573 0.0
H829 H 0.6613 0.03353 0.69662 0.0
H830 H 0.76626 -0.00152 0.66267 0.0
H831 H 0.70197 0.03479 0.74327 0.0
H832 H 0.77695 0.01884 0.82678 0.0
H833 H 0.73782 0.0045 0.78134 0.0
H834 H 0.79435 0.04088 0.69277 0.0
H835 H 0.8337 0.05488 0.7381 0.0
C836 C 0.72002 0.00521 0.64366 0.0
C837 C 0.69029 0.01579 0.65234 0.0
C838 C 0.74336 0.0059 0.67046 0.0
C839 C 0.73741 0.01699 0.70654 0.0
C840 C 0.70726 0.02589 0.7158 0.0
C841 C 0.68396 0.02531 0.68898 0.0
C842 C 0.78126 0.0234 0.79755 0.0
C843 C 0.80833 0.03833 0.78609 0.0
C844 C 0.75876 0.01528 0.77156 0.0
C845 C 0.76286 0.02179 0.73353 0.0
C846 C 0.7906 0.0353 0.72185 0.0
C847 C 0.81309 0.0435 0.74786 0.0
loop_
_geom_bond_atom_site_label_1
_geom_bond_atom_site_label_2
_geom_bond_distance
_geom_bond_site_symmetry_2
_ccdc_geom_bond_type
C0 O1 1.160 . S
C0 O7 1.185 . S
O1 C0 1.160 . S
O2 Zn3 1.899 . S
O2 C10 1.284 . S
Zn3 O2 1.899 . S
Zn3 O4 2.032 . S
Zn3 O7 2.086 . S
Zn3 O12 1.977 . S
O4 Zn3 2.032 . S
O4 C8 1.278 . S
C5 O6 1.203 . S
C5 O12 1.267 . S
O6 C5 1.203 . S
O7 C0 1.185 . S
O7 Zn3 2.086 . S
C8 O4 1.278 . S
C8 O9 1.211 . S
O9 C8 1.211 . S
C10 O2 1.284 . S
C10 O11 1.273 . S
O11 C10 1.273 . S
O12 Zn3 1.977 . S
O12 C5 1.267 . S
C13 O14 1.160 . S
C13 O20 1.185 . S
O14 C13 1.160 . S
O15 Zn16 1.899 . S
O15 C23 1.284 . S
Zn16 O15 1.899 . S
Zn16 O17 2.032 . S
Zn16 O20 2.086 . S
Zn16 O25 1.977 . S
O17 Zn16 2.032 . S
O17 C21 1.278 . S
C18 O19 1.203 . S
C18 O25 1.267 . S
O19 C18 1.203 . S
O20 C13 1.185 . S
O20 Zn16 2.086 . S
C21 O17 1.278 . S
C21 O22 1.211 . S
O22 C21 1.211 . S
C23 O15 1.284 . S
C23 O24 1.273 . S
O24 C23 1.273 . S
O25 Zn16 1.977 . S
O25 C18 1.267 . S
C26 O27 1.160 . S
C26 O33 1.185 . S
O27 C26 1.160 . S
O28 Zn29 1.899 . S
O28 C36 1.284 . S
Zn29 O28 1.899 . S
Zn29 O30 2.032 . S
Zn29 O33 2.086 . S
Zn29 O38 1.977 . S
O30 Zn29 2.032 . S
O30 C34 1.278 . S
C31 O32 1.203 . S
C31 O38 1.267 . S
O32 C31 1.203 . S
O33 C26 1.185 . S
O33 Zn29 2.086 . S
C34 O30 1.278 . S
C34 O35 1.211 . S
O35 C34 1.211 . S
C36 O28 1.284 . S
C36 O37 1.273 . S
O37 C36 1.273 . S
O38 Zn29 1.977 . S
O38 C31 1.267 . S
C39 O40 1.160 . S
C39 O46 1.185 . S
O40 C39 1.160 . S
O41 Zn42 1.899 . S
O41 C49 1.284 . S
Zn42 O41 1.899 . S
Zn42 O43 2.032 . S
Zn42 O46 2.086 . S
Zn42 O51 1.977 . S
O43 Zn42 2.032 . S
O43 C47 1.278 . S
C44 O45 1.203 . S
C44 O51 1.267 . S
O45 C44 1.203 . S
O46 C39 1.185 . S
O46 Zn42 2.086 . S
C47 O43 1.278 . S
C47 O48 1.211 . S
O48 C47 1.211 . S
C49 O41 1.284 . S
C49 O50 1.273 . S
O50 C49 1.273 . S
O51 Zn42 1.977 . S
O51 C44 1.267 . S
C52 O53 1.160 . S
C52 O59 1.185 . S
O53 C52 1.160 . S
O54 Zn55 1.899 . S
O54 C62 1.284 . S
Zn55 O54 1.899 . S
Zn55 O56 2.032 . S
Zn55 O59 2.086 . S
Zn55 O64 1.977 . S
O56 Zn55 2.032 . S
O56 C60 1.278 . S
C57 O58 1.203 . S
C57 O64 1.267 . S
O58 C57 1.203 . S
O59 C52 1.185 . S
O59 Zn55 2.086 . S
C60 O56 1.278 . S
C60 O61 1.211 . S
O61 C60 1.211 . S
C62 O54 1.284 . S
C62 O63 1.273 . S
O63 C62 1.273 . S
O64 Zn55 1.977 . S
O64 C57 1.267 . S
C65 O66 1.160 . S
C65 O72 1.185 . S
O66 C65 1.160 . S
O67 Zn68 1.899 . S
O67 C75 1.284 . S
Zn68 O67 1.899 . S
Zn68 O69 2.032 . S
Zn68 O72 2.086 . S
Zn68 O77 1.977 . S
O69 Zn68 2.032 . S
O69 C73 1.278 . S
C70 O71 1.203 . S
C70 O77 1.267 . S
O71 C70 1.203 . S
O72 C65 1.185 . S
O72 Zn68 2.086 . S
C73 O69 1.278 . S
C73 O74 1.211 . S
O74 C73 1.211 . S
C75 O67 1.284 . S
C75 O76 1.273 . S
O76 C75 1.273 . S
O77 Zn68 1.977 . S
O77 C70 1.267 . S
C78 O79 1.160 . S
C78 O85 1.185 . S
O79 C78 1.160 . S
O80 Zn81 1.899 . S
O80 C88 1.284 . S
Zn81 O80 1.899 . S
Zn81 O82 2.032 . S
Zn81 O85 2.086 . S
Zn81 O90 1.977 . S
O82 Zn81 2.032 . S
O82 C86 1.278 . S
C83 O84 1.203 . S
C83 O90 1.267 . S
O84 C83 1.203 . S
O85 C78 1.185 . S
O85 Zn81 2.086 . S
C86 O82 1.278 . S
C86 O87 1.211 . S
O87 C86 1.211 . S
C88 O80 1.284 . S
C88 O89 1.273 . S
O89 C88 1.273 . S
O90 Zn81 1.977 . S
O90 C83 1.267 . S
C91 O92 1.160 . S
C91 O98 1.185 . S
O92 C91 1.160 . S
O93 Zn94 1.899 . S
O93 C101 1.284 . S
Zn94 O93 1.899 . S
Zn94 O95 2.032 . S
Zn94 O98 2.086 . S
Zn94 O103 1.977 . S
O95 Zn94 2.032 . S
O95 C99 1.278 . S
C96 O97 1.203 . S
C96 O103 1.267 . S
O97 C96 1.203 . S
O98 C91 1.185 . S
O98 Zn94 2.086 . S
C99 O95 1.278 . S
C99 O100 1.211 . S
O100 C99 1.211 . S
C101 O93 1.284 . S
C101 O102 1.273 . S
O102 C101 1.273 . S
O103 Zn94 1.977 . S
O103 C96 1.267 . S
C104 O105 1.160 . S
C104 O111 1.185 . S
O105 C104 1.160 . S
O106 Zn107 1.899 . S
O106 C114 1.284 . S
Zn107 O106 1.899 . S
Zn107 O108 2.032 . S
Zn107 O111 2.086 . S
Zn107 O116 1.977 . S
O108 Zn107 2.032 . S
O108 C112 1.278 . S
C109 O110 1.203 . S
C109 O116 1.267 . S
O110 C109 1.203 . S
O111 C104 1.185 . S
O111 Zn107 2.086 . S
C112 O108 1.278 . S
C112 O113 1.211 . S
O113 C112 1.211 . S
C114 O106 1.284 . S
C114 O115 1.273 . S
O115 C114 1.273 . S
O116 Zn107 1.977 . S
O116 C109 1.267 . S
C117 O118 1.160 . S
C117 O124 1.185 . S
O118 C117 1.160 . S
O119 Zn120 1.899 . S
O119 C127 1.284 . S
Zn120 O119 1.899 . S
Zn120 O121 2.032 . S
Zn120 O124 2.086 . S
Zn120 O129 1.977 . S
O121 Zn120 2.032 . S
O121 C125 1.278 . S
C122 O123 1.203 . S
C122 O129 1.267 . S
O123 C122 1.203 . S
O124 C117 1.185 . S
O124 Zn120 2.086 . S
C125 O121 1.278 . S
C125 O126 1.211 . S
O126 C125 1.211 . S
C127 O119 1.284 . S
C127 O128 1.273 . S
O128 C127 1.273 . S
O129 Zn120 1.977 . S
O129 C122 1.267 . S
C130 O131 1.160 . S
C130 O137 1.185 . S
O131 C130 1.160 . S
O132 Zn133 1.899 . S
O132 C140 1.284 . S
Zn133 O132 1.899 . S
Zn133 O134 2.032 . S
Zn133 O137 2.086 . S
Zn133 O142 1.977 . S
O134 Zn133 2.032 . S
O134 C138 1.278 . S
C135 O136 1.203 . S
C135 O142 1.267 . S
O136 C135 1.203 . S
O137 C130 1.185 . S
O137 Zn133 2.086 . S
C138 O134 1.278 . S
C138 O139 1.211 . S
O139 C138 1.211 . S
C140 O132 1.284 . S
C140 O141 1.273 . S
O141 C140 1.273 . S
O142 Zn133 1.977 . S
O142 C135 1.267 . S
C143 O144 1.160 . S
C143 O150 1.185 . S
O144 C143 1.160 . S
O145 Zn146 1.899 . S
O145 C153 1.284 . S
Zn146 O145 1.899 . S
Zn146 O147 2.032 . S
Zn146 O150 2.086 . S
Zn146 O155 1.977 . S
O147 Zn146 2.032 . S
O147 C151 1.278 . S
C148 O149 1.203 . S
C148 O155 1.267 . S
O149 C148 1.203 . S
O150 C143 1.185 . S
O150 Zn146 2.086 . S
C151 O147 1.278 . S
C151 O152 1.211 . S
O152 C151 1.211 . S
C153 O145 1.284 . S
C153 O154 1.273 . S
O154 C153 1.273 . S
O155 Zn146 1.977 . S
O155 C148 1.267 . S
C156 O157 1.160 . S
C156 O163 1.185 . S
O157 C156 1.160 . S
O158 Zn159 1.899 . S
O158 C166 1.284 . S
Zn159 O158 1.899 . S
Zn159 O160 2.032 . S
Zn159 O163 2.086 . S
Zn159 O168 1.977 . S
O160 Zn159 2.032 . S
O160 C164 1.278 . S
C161 O162 1.203 . S
C161 O168 1.267 . S
O162 C161 1.203 . S
O163 C156 1.185 . S
O163 Zn159 2.086 . S
C164 O160 1.278 . S
C164 O165 1.211 . S
O165 C164 1.211 . S
C166 O158 1.284 . S
C166 O167 1.273 . S
O167 C166 1.273 . S
O168 Zn159 1.977 . S
O168 C161 1.267 . S
C169 O170 1.160 . S
C169 O176 1.185 . S
O170 C169 1.160 . S
O171 Zn172 1.899 . S
O171 C179 1.284 . S
Zn172 O171 1.899 . S
Zn172 O173 2.032 . S
Zn172 O176 2.086 . S
Zn172 O181 1.977 . S
O173 Zn172 2.032 . S
O173 C177 1.278 . S
C174 O175 1.203 . S
C174 O181 1.267 . S
O175 C174 1.203 . S
O176 C169 1.185 . S
O176 Zn172 2.086 . S
C177 O173 1.278 . S
C177 O178 1.211 . S
O178 C177 1.211 . S
C179 O171 1.284 . S
C179 O180 1.273 . S
O180 C179 1.273 . S
O181 Zn172 1.977 . S
O181 C174 1.267 . S
C182 O183 1.160 . S
C182 O189 1.185 . S
O183 C182 1.160 . S
O184 Zn185 1.899 . S
O184 C192 1.284 . S
Zn185 O184 1.899 . S
Zn185 O186 2.032 . S
Zn185 O189 2.086 . S
Zn185 O194 1.977 . S
O186 Zn185 2.032 . S
O186 C190 1.278 . S
C187 O188 1.203 . S
C187 O194 1.267 . S
O188 C187 1.203 . S
O189 C182 1.185 . S
O189 Zn185 2.086 . S
C190 O186 1.278 . S
C190 O191 1.211 . S
O191 C190 1.211 . S
C192 O184 1.284 . S
C192 O193 1.273 . S
O193 C192 1.273 . S
O194 Zn185 1.977 . S
O194 C187 1.267 . S
C195 O196 1.160 . S
C195 O202 1.185 . S
O196 C195 1.160 . S
O197 Zn198 1.899 . S
O197 C205 1.284 . S
Zn198 O197 1.899 . S
Zn198 O199 2.032 . S
Zn198 O202 2.086 . S
Zn198 O207 1.977 . S
O199 Zn198 2.032 . S
O199 C203 1.278 . S
C200 O201 1.203 . S
C200 O207 1.267 . S
O201 C200 1.203 . S
O202 C195 1.185 . S
O202 Zn198 2.086 . S
C203 O199 1.278 . S
C203 O204 1.211 . S
O204 C203 1.211 . S
C205 O197 1.284 . S
C205 O206 1.273 . S
O206 C205 1.273 . S
O207 Zn198 1.977 . S
O207 C200 1.267 . S
H208 C216 0.950 . S
H209 C221 0.950 . S
H210 C218 0.950 . S
H211 C220 0.951 . S
H212 C222 0.950 . S
H213 C224 0.950 . S
H214 C226 0.950 . S
H215 C227 0.950 . S
C216 H208 0.950 . S
C216 C217 1.386 . S
C216 C218 1.391 1_554 S
C217 C216 1.386 . S
C217 C221 1.393 . S
C218 H210 0.950 . S
C218 C216 1.391 1_556 S
C218 C219 1.400 . S
C219 C218 1.400 . S
C219 C220 1.398 1_556 S
C219 C225 1.491 . S
C220 H211 0.951 . S
C220 C219 1.398 1_554 S
C220 C221 1.391 . S
C221 H209 0.950 . S
C221 C217 1.393 . S
C221 C220 1.391 . S
C222 H212 0.950 . S
C222 C223 1.386 . S
C222 C224 1.391 . S
C223 C222 1.386 . S
C223 C227 1.393 . S
C224 H213 0.950 . S
C224 C222 1.391 . S
C224 C225 1.400 . S
C225 C219 1.491 . S
C225 C224 1.400 . S
C225 C226 1.398 . S
C226 H214 0.950 . S
C226 C225 1.398 . S
C226 C227 1.391 . S
C227 H215 0.950 . S
C227 C223 1.393 . S
C227 C226 1.391 . S
H228 C236 0.950 . S
H229 C241 0.950 . S
H230 C238 0.950 . S
H231 C240 0.950 1_554 S
H232 C242 0.950 . S
H233 C244 0.950 . S
H234 C246 0.950 . S
H235 C247 0.950 . S
C236 H228 0.950 . S
C236 C237 1.386 . S
C236 C238 1.391 . S
C237 C236 1.386 . S
C237 C241 1.393 . S
C238 H230 0.950 . S
C238 C236 1.391 . S
C238 C239 1.400 . S
C239 C238 1.400 . S
C239 C240 1.398 . S
C239 C245 1.491 . S
C240 H231 0.950 1_556 S
C240 C239 1.398 . S
C240 C241 1.391 . S
C241 H229 0.950 . S
C241 C237 1.393 . S
C241 C240 1.391 . S
C242 H232 0.950 . S
C242 C243 1.386 . S
C242 C244 1.391 . S
C243 C242 1.386 . S
C243 C247 1.393 1_554 S
C244 H233 0.950 . S
C244 C242 1.391 . S
C244 C245 1.400 1_554 S
C245 C239 1.491 . S
C245 C244 1.400 1_556 S
C245 C246 1.398 . S
C246 H234 0.950 . S
C246 C245 1.398 . S
C246 C247 1.391 . S
C247 H235 0.950 . S
C247 C243 1.393 1_556 S
C247 C246 1.391 . S
H248 C256 0.950 . S
H249 C261 0.950 . S
H250 C258 0.950 1_554 S
H251 C260 0.950 . S
H252 C262 0.950 . S
H253 C264 0.950 . S
H254 C266 0.950 . S
H255 C267 0.950 . S
C256 H248 0.950 . S
C256 C257 1.386 . S
C256 C258 1.391 . S
C257 C256 1.386 . S
C257 C261 1.393 . S
C258 H250 0.950 1_556 S
C258 C256 1.391 . S
C258 C259 1.400 . S
C259 C258 1.400 . S
C259 C260 1.398 . S
C259 C265 1.491 . S
C260 H251 0.950 . S
C260 C259 1.398 . S
C260 C261 1.391 . S
C261 H249 0.950 . S
C261 C257 1.393 . S
C261 C260 1.391 . S
C262 H252 0.950 . S
C262 C263 1.386 1_556 S
C262 C264 1.391 . S
C263 C262 1.386 1_554 S
C263 C267 1.393 . S
C264 H253 0.950 . S
C264 C262 1.391 . S
C264 C265 1.400 . S
C265 C259 1.491 . S
C265 C264 1.400 . S
C265 C266 1.398 1_556 S
C266 H254 0.950 . S
C266 C265 1.398 1_554 S
C266 C267 1.391 . S
C267 H255 0.950 . S
C267 C263 1.393 . S
C267 C266 1.391 . S
H268 C276 0.950 . S
H269 C281 0.950 . S
H270 C278 0.950 . S
H271 C280 0.950 . S
H272 C282 0.950 . S
H273 C284 0.950 . S
H274 C286 0.950 . S
H275 C287 0.950 . S
C276 H268 0.950 . S
C276 C277 1.386 . S
C276 C278 1.391 . S
C277 C276 1.386 . S
C277 C281 1.393 . S
C278 H270 0.950 . S
C278 C276 1.391 . S
C278 C279 1.400 . S
C279 C278 1.400 . S
C279 C280 1.398 . S
C279 C285 1.491 . S
C280 H271 0.950 . S
C280 C279 1.398 . S
C280 C281 1.391 . S
C281 H269 0.950 . S
C281 C277 1.393 . S
C281 C280 1.391 . S
C282 H272 0.950 . S
C282 C283 1.383 1_556 S
C282 C284 1.393 . S
C283 C282 1.383 1_554 S
C283 C287 1.393 . S
C284 H273 0.950 . S
C284 C282 1.393 . S
C284 C285 1.400 . S
C285 C279 1.491 . S
C285 C284 1.400 . S
C285 C286 1.398 1_556 S
C286 H274 0.950 . S
C286 C285 1.398 1_554 S
C286 C287 1.391 . S
C287 H275 0.950 . S
C287 C283 1.393 . S
C287 C286 1.391 . S
H288 C296 0.950 . S
H289 C301 0.950 . S
H290 C298 0.950 . S
H291 C300 0.950 . S
H292 C302 0.950 . S
H293 C304 0.950 . S
H294 C306 0.950 . S
H295 C307 0.950 . S
C296 H288 0.950 . S
C296 C297 1.386 . S
C296 C298 1.391 . S
C297 C296 1.386 . S
C297 C301 1.393 . S
C298 H290 0.950 . S
C298 C296 1.391 . S
C298 C299 1.400 . S
C299 C298 1.400 . S
C299 C300 1.398 . S
C299 C305 1.491 . S
C300 H291 0.950 . S
C300 C299 1.398 . S
C300 C301 1.391 . S
C301 H289 0.950 . S
C301 C297 1.393 . S
C301 C300 1.391 . S
C302 H292 0.950 . S
C302 C303 1.386 . S
C302 C304 1.391 . S
C303 C302 1.386 . S
C303 C307 1.393 . S
C304 H293 0.950 . S
C304 C302 1.391 . S
C304 C305 1.400 . S
C305 C299 1.491 . S
C305 C304 1.400 . S
C305 C306 1.398 . S
C306 H294 0.950 . S
C306 C305 1.398 . S
C306 C307 1.391 . S
C307 H295 0.950 . S
C307 C303 1.393 . S
C307 C306 1.391 . S
H308 C316 0.950 . S
H309 C321 0.950 . S
H310 C318 0.950 . S
H311 C320 0.950 . S
H312 C322 0.950 . S
H313 C324 0.950 . S
H314 C326 0.950 . S
H315 C327 0.950 . S
C316 H308 0.950 . S
C316 C317 1.386 . S
C316 C318 1.391 . S
C317 C316 1.386 . S
C317 C321 1.393 . S
C318 H310 0.950 . S
C318 C316 1.391 . S
C318 C319 1.400 . S
C319 C318 1.400 . S
C319 C320 1.398 . S
C319 C325 1.491 . S
C320 H311 0.950 . S
C320 C319 1.398 . S
C320 C321 1.391 . S
C321 H309 0.950 . S
C321 C317 1.393 . S
C321 C320 1.391 . S
C322 H312 0.950 . S
C322 C323 1.386 . S
C322 C324 1.391 . S
C323 C322 1.386 . S
C323 C327 1.393 . S
C324 H313 0.950 . S
C324 C322 1.391 . S
C324 C325 1.400 . S
C325 C319 1.491 . S
C325 C324 1.400 . S
C325 C326 1.398 . S
C326 H314 0.950 . S
C326 C325 1.398 . S
C326 C327 1.391 . S
C327 H315 0.950 . S
C327 C323 1.393 . S
C327 C326 1.391 . S
H328 C336 0.950 . S
H329 C341 0.950 . S
H330 C338 0.950 . S
H331 C340 0.950 . S
H332 C342 0.950 . S
H333 C344 0.950 . S
H334 C346 0.950 . S
H335 C347 0.950 . S
C336 H328 0.950 . S
C336 C337 1.386 . S
C336 C338 1.391 . S
C337 C336 1.386 . S
C337 C341 1.393 . S
C338 H330 0.950 . S
C338 C336 1.391 . S
C338 C339 1.400 . S
C339 C338 1.400 . S
C339 C340 1.398 . S
C339 C345 1.491 . S
C340 H331 0.950 . S
C340 C339 1.398 . S
C340 C341 1.391 . S
C341 H329 0.950 . S
C341 C337 1.393 . S
C341 C340 1.391 . S
C342 H332 0.950 . S
C342 C343 1.386 . S
C342 C344 1.391 . S
C343 C342 1.386 . S
C343 C347 1.393 . S
C344 H333 0.950 . S
C344 C342 1.391 . S
C344 C345 1.400 . S
C345 C339 1.491 . S
C345 C344 1.400 . S
C345 C346 1.398 . S
C346 H334 0.950 . S
C346 C345 1.398 . S
C346 C347 1.391 . S
C347 H335 0.950 . S
C347 C343 1.393 . S
C347 C346 1.391 . S
H348 C356 0.950 . S
H349 C361 0.950 . S
H350 C358 0.950 . S
H351 C360 0.950 . S
H352 C362 0.950 . S
H353 C364 0.950 . S
H354 C366 0.950 . S
H355 C367 0.950 . S
C356 H348 0.950 . S
C356 C357 1.386 . S
C356 C358 1.391 . S
C357 C356 1.386 . S
C357 C361 1.393 . S
C358 H350 0.950 . S
C358 C356 1.391 . S
C358 C359 1.400 . S
C359 C358 1.400 . S
C359 C360 1.398 . S
C359 C365 1.491 . S
C360 H351 0.950 . S
C360 C359 1.398 . S
C360 C361 1.391 . S
C361 H349 0.950 . S
C361 C357 1.393 . S
C361 C360 1.391 . S
C362 H352 0.950 . S
C362 C363 1.386 . S
C362 C364 1.391 . S
C363 C362 1.386 . S
C363 C367 1.393 . S
C364 H353 0.950 . S
C364 C362 1.391 . S
C364 C365 1.400 . S
C365 C359 1.491 . S
C365 C364 1.400 . S
C365 C366 1.398 . S
C366 H354 0.950 . S
C366 C365 1.398 . S
C366 C367 1.391 . S
C367 H355 0.950 . S
C367 C363 1.393 . S
C367 C366 1.391 . S
H368 C376 0.950 . S
H369 C381 0.950 . S
H370 C378 0.950 . S
H371 C380 0.950 . S
H372 C382 0.934 1_556 S
H373 C384 0.923 1_556 S
H374 C386 0.950 . S
H375 C387 0.950 . S
C376 H368 0.950 . S
C376 C377 1.386 1_554 S
C376 C378 1.391 . S
C377 C376 1.386 1_556 S
C377 C381 1.393 . S
C378 H370 0.950 . S
C378 C376 1.391 . S
C378 C379 1.400 . S
C379 C378 1.400 . S
C379 C380 1.398 1_554 S
C379 C385 1.491 . S
C380 H371 0.950 . S
C380 C379 1.398 1_556 S
C380 C381 1.391 . S
C381 H369 0.950 . S
C381 C377 1.393 . S
C381 C380 1.391 . S
C382 H372 0.934 1_554 S
C382 C383 1.386 . S
C382 C384 1.402 . S
C383 C382 1.386 . S
C383 C387 1.393 . S
C384 H373 0.923 1_554 S
C384 C382 1.402 . S
C384 C385 1.417 . S
C385 C379 1.491 . S
C385 C384 1.417 . S
C385 C386 1.398 . S
C386 H374 0.950 . S
C386 C385 1.398 . S
C386 C387 1.391 . S
C387 H375 0.950 . S
C387 C383 1.393 . S
C387 C386 1.391 . S
H388 C396 0.950 . S
H389 C401 0.950 . S
H390 C398 0.950 . S
H391 C400 0.950 . S
H392 C402 0.950 . S
H393 C404 0.950 1_556 S
H394 C406 0.950 . S
H395 C407 0.950 . S
C396 H388 0.950 . S
C396 C397 1.386 1_554 S
C396 C398 1.391 . S
C397 C396 1.386 1_556 S
C397 C401 1.393 . S
C398 H390 0.950 . S
C398 C396 1.391 . S
C398 C399 1.400 . S
C399 C398 1.400 . S
C399 C400 1.398 1_554 S
C399 C405 1.491 . S
C400 H391 0.950 . S
C400 C399 1.398 1_556 S
C400 C401 1.391 . S
C401 H389 0.950 . S
C401 C397 1.393 . S
C401 C400 1.391 . S
C402 H392 0.950 . S
C402 C403 1.386 . S
C402 C404 1.391 . S
C403 C402 1.386 . S
C403 C407 1.393 . S
C404 H393 0.950 1_554 S
C404 C402 1.391 . S
C404 C405 1.400 . S
C405 C399 1.491 . S
C405 C404 1.400 . S
C405 C406 1.398 . S
C406 H394 0.950 . S
C406 C405 1.398 . S
C406 C407 1.391 . S
C407 H395 0.950 . S
C407 C403 1.393 . S
C407 C406 1.391 . S
H408 C416 0.950 . S
H409 C421 0.950 . S
H410 C418 0.950 . S
H411 C420 0.950 . S
H412 C422 0.950 . S
H413 C424 0.950 . S
H414 C426 0.950 1_556 S
H415 C427 0.950 . S
C416 H408 0.950 . S
C416 C417 1.386 . S
C416 C418 1.391 . S
C417 C416 1.386 . S
C417 C421 1.393 1_556 S
C418 H410 0.950 . S
C418 C416 1.391 . S
C418 C419 1.400 1_556 S
C419 C418 1.400 1_554 S
C419 C420 1.398 . S
C419 C425 1.491 . S
C420 H411 0.950 . S
C420 C419 1.398 . S
C420 C421 1.391 . S
C421 H409 0.950 . S
C421 C417 1.393 1_554 S
C421 C420 1.391 . S
C422 H412 0.950 . S
C422 C423 1.386 . S
C422 C424 1.391 . S
C423 C422 1.386 . S
C423 C427 1.393 . S
C424 H413 0.950 . S
C424 C422 1.391 . S
C424 C425 1.400 . S
C425 C419 1.491 . S
C425 C424 1.400 . S
C425 C426 1.398 . S
C426 H414 0.950 1_554 S
C426 C425 1.398 . S
C426 C427 1.391 . S
C427 H415 0.950 . S
C427 C423 1.393 . S
C427 C426 1.391 . S
H428 C436 0.950 . S
H429 C441 0.950 . S
H430 C438 0.950 . S
H431 C440 0.950 1_556 S
H432 C442 0.950 . S
H433 C444 0.950 . S
H434 C446 0.950 . S
H435 C447 0.950 . S
C436 H428 0.950 . S
C436 C437 1.386 . S
C436 C438 1.391 . S
C437 C436 1.386 . S
C437 C441 1.393 . S
C438 H430 0.950 . S
C438 C436 1.391 . S
C438 C439 1.400 . S
C439 C438 1.400 . S
C439 C440 1.398 . S
C439 C445 1.491 . S
C440 H431 0.950 1_554 S
C440 C439 1.398 . S
C440 C441 1.391 . S
C441 H429 0.950 . S
C441 C437 1.393 . S
C441 C440 1.391 . S
C442 H432 0.950 . S
C442 C443 1.386 . S
C442 C444 1.391 . S
C443 C442 1.386 . S
C443 C447 1.393 1_556 S
C444 H433 0.950 . S
C444 C442 1.391 . S
C444 C445 1.400 1_556 S
C445 C439 1.491 . S
C445 C444 1.400 1_554 S
C445 C446 1.398 . S
C446 H434 0.950 . S
C446 C445 1.398 . S
C446 C447 1.391 . S
C447 H435 0.950 . S
C447 C443 1.393 1_554 S
C447 C446 1.391 . S
H448 C456 0.950 . S
H449 C461 0.950 . S
H450 C458 0.950 . S
H451 C460 0.950 . S
H452 C462 0.950 . S
H453 C464 0.950 . S
H454 C466 0.950 . S
H455 C467 0.950 . S
C456 H448 0.950 . S
C456 C457 1.386 . S
C456 C458 1.391 . S
C457 C456 1.386 . S
C457 C461 1.393 . S
C458 H450 0.950 . S
C458 C456 1.391 . S
C458 C459 1.400 . S
C459 C458 1.400 . S
C459 C460 1.398 . S
C459 C465 1.491 . S
C460 H451 0.950 . S
C460 C459 1.398 . S
C460 C461 1.391 . S
C461 H449 0.950 . S
C461 C457 1.393 . S
C461 C460 1.391 . S
C462 H452 0.950 . S
C462 C463 1.386 . S
C462 C464 1.391 . S
C463 C462 1.386 . S
C463 C467 1.393 . S
C464 H453 0.950 . S
C464 C462 1.391 . S
C464 C465 1.400 . S
C465 C459 1.491 . S
C465 C464 1.400 . S
C465 C466 1.398 . S
C466 H454 0.950 . S
C466 C465 1.398 . S
C466 C467 1.391 . S
C467 H455 0.950 . S
C467 C463 1.393 . S
C467 C466 1.391 . S
H468 C476 0.950 . S
H469 C481 0.950 . S
H470 C478 0.950 . S
H471 C480 0.950 . S
H472 C482 0.950 . S
H473 C484 0.950 . S
H474 C486 0.950 . S
H475 C487 0.950 . S
C476 H468 0.950 . S
C476 C477 1.386 . S
C476 C478 1.391 . S
C477 C476 1.386 . S
C477 C481 1.393 . S
C478 H470 0.950 . S
C478 C476 1.391 . S
C478 C479 1.400 . S
C479 C478 1.400 . S
C479 C480 1.398 . S
C479 C485 1.491 . S
C480 H471 0.950 . S
C480 C479 1.398 . S
C480 C481 1.391 . S
C481 H469 0.950 . S
C481 C477 1.393 . S
C481 C480 1.391 . S
C482 H472 0.950 . S
C482 C483 1.386 . S
C482 C484 1.391 . S
C483 C482 1.386 . S
C483 C487 1.393 . S
C484 H473 0.950 . S
C484 C482 1.391 . S
C484 C485 1.400 . S
C485 C479 1.491 . S
C485 C484 1.400 . S
C485 C486 1.398 . S
C486 H474 0.950 . S
C486 C485 1.398 . S
C486 C487 1.391 . S
C487 H475 0.950 . S
C487 C483 1.393 . S
C487 C486 1.391 . S
H488 C496 0.950 . S
H489 C501 0.950 . S
H490 C498 0.950 . S
H491 C500 0.950 . S
H492 C502 0.950 . S
H493 C504 0.950 . S
H494 C506 0.950 . S
H495 C507 0.950 . S
C496 H488 0.950 . S
C496 C497 1.386 . S
C496 C498 1.391 . S
C497 C496 1.386 . S
C497 C501 1.393 . S
C498 H490 0.950 . S
C498 C496 1.391 . S
C498 C499 1.400 . S
C499 C498 1.400 . S
C499 C500 1.398 . S
C499 C505 1.491 . S
C500 H491 0.950 . S
C500 C499 1.398 . S
C500 C501 1.391 . S
C501 H489 0.950 . S
C501 C497 1.393 . S
C501 C500 1.391 . S
C502 H492 0.950 . S
C502 C503 1.386 . S
C502 C504 1.391 . S
C503 C502 1.386 . S
C503 C507 1.393 . S
C504 H493 0.950 . S
C504 C502 1.391 . S
C504 C505 1.400 . S
C505 C499 1.491 . S
C505 C504 1.400 . S
C505 C506 1.398 . S
C506 H494 0.950 . S
C506 C505 1.398 . S
C506 C507 1.391 . S
C507 H495 0.950 . S
C507 C503 1.393 . S
C507 C506 1.391 . S
H508 C516 0.950 . S
H509 C521 0.950 . S
H510 C518 0.950 . S
H511 C520 0.950 . S
H512 C522 0.950 . S
H513 C524 0.950 . S
H514 C526 0.950 . S
H515 C527 0.950 . S
C516 H508 0.950 . S
C516 C517 1.386 . S
C516 C518 1.391 . S
C517 C516 1.386 . S
C517 C521 1.393 . S
C518 H510 0.950 . S
C518 C516 1.391 . S
C518 C519 1.400 . S
C519 C518 1.400 . S
C519 C520 1.398 . S
C519 C525 1.491 . S
C520 H511 0.950 . S
C520 C519 1.398 . S
C520 C521 1.391 . S
C521 H509 0.950 . S
C521 C517 1.393 . S
C521 C520 1.391 . S
C522 H512 0.950 . S
C522 C523 1.386 . S
C522 C524 1.391 . S
C523 C522 1.386 . S
C523 C527 1.393 . S
C524 H513 0.950 . S
C524 C522 1.391 . S
C524 C525 1.400 . S
C525 C519 1.491 . S
C525 C524 1.400 . S
C525 C526 1.398 . S
C526 H514 0.950 . S
C526 C525 1.398 . S
C526 C527 1.391 . S
C527 H515 0.950 . S
C527 C523 1.393 . S
C527 C526 1.391 . S
H528 C536 0.950 . S
H529 C541 0.950 . S
H530 C538 0.950 . S
H531 C540 0.950 1_554 S
H532 C542 0.950 . S
H533 C544 0.950 . S
H534 C546 0.950 1_556 S
H535 C547 0.950 . S
C536 H528 0.950 . S
C536 C537 1.386 . S
C536 C538 1.391 . S
C537 C536 1.386 . S
C537 C541 1.393 . S
C538 H530 0.950 . S
C538 C536 1.391 . S
C538 C539 1.400 . S
C539 C538 1.400 . S
C539 C540 1.398 . S
C539 C545 1.491 1_566 S
C540 H531 0.950 1_556 S
C540 C539 1.398 . S
C540 C541 1.391 . S
C541 H529 0.950 . S
C541 C537 1.393 . S
C541 C540 1.391 . S
C542 H532 0.950 . S
C542 C543 1.386 . S
C542 C544 1.391 . S
C543 C542 1.386 . S
C543 C547 1.393 . S
C544 H533 0.950 . S
C544 C542 1.391 . S
C544 C545 1.400 . S
C545 C539 1.491 1_544 S
C545 C544 1.400 . S
C545 C546 1.398 . S
C546 H534 0.950 1_554 S
C546 C545 1.398 . S
C546 C547 1.391 . S
C547 H535 0.950 . S
C547 C543 1.393 . S
C547 C546 1.391 . S
H548 C556 0.950 . S
H549 C561 0.950 1_556 S
H550 C558 0.950 . S
H551 C560 0.950 . S
H552 C562 0.950 . S
H553 C564 0.950 . S
H554 C566 0.950 . S
H555 C567 0.950 1_554 S
C556 H548 0.950 . S
C556 C557 1.386 . S
C556 C558 1.391 . S
C557 C556 1.386 . S
C557 C561 1.393 . S
C558 H550 0.950 . S
C558 C556 1.391 . S
C558 C559 1.400 . S
C559 C558 1.400 . S
C559 C560 1.398 1_554 S
C559 C565 1.491 1_554 S
C560 H551 0.950 . S
C560 C559 1.398 1_556 S
C560 C561 1.391 1_556 S
C561 H549 0.950 1_554 S
C561 C557 1.393 . S
C561 C560 1.391 1_554 S
C562 H552 0.950 . S
C562 C563 1.386 . S
C562 C564 1.391 . S
C563 C562 1.386 . S
C563 C567 1.393 . S
C564 H553 0.950 . S
C564 C562 1.391 . S
C564 C565 1.400 . S
C565 C559 1.491 1_556 S
C565 C564 1.400 . S
C565 C566 1.398 1_556 S
C566 H554 0.950 . S
C566 C565 1.398 1_554 S
C566 C567 1.391 1_554 S
C567 H555 0.950 1_556 S
C567 C563 1.393 . S
C567 C566 1.391 1_556 S
H568 C576 0.950 . S
H569 C581 0.950 . S
H570 C578 0.950 . S
H571 C580 0.950 1_554 S
H572 C582 0.950 . S
H573 C584 0.950 . S
H574 C586 0.950 1_556 S
H575 C587 0.950 . S
C576 H568 0.950 . S
C576 C577 1.386 1_655 S
C576 C578 1.391 . S
C577 C576 1.386 1_455 S
C577 C581 1.393 . S
C578 H570 0.950 . S
C578 C576 1.391 . S
C578 C579 1.400 1_655 S
C579 C578 1.400 1_455 S
C579 C580 1.398 . S
C579 C585 1.491 1_456 S
C580 H571 0.950 1_556 S
C580 C579 1.398 . S
C580 C581 1.391 . S
C581 H569 0.950 . S
C581 C577 1.393 . S
C581 C580 1.391 . S
C582 H572 0.950 . S
C582 C583 1.386 1_455 S
C582 C584 1.391 . S
C583 C582 1.386 1_655 S
C583 C587 1.393 . S
C584 H573 0.950 . S
C584 C582 1.391 . S
C584 C585 1.400 1_455 S
C585 C579 1.491 1_654 S
C585 C584 1.400 1_655 S
C585 C586 1.398 . S
C586 H574 0.950 1_554 S
C586 C585 1.398 . S
C586 C587 1.391 . S
C587 H575 0.950 . S
C587 C583 1.393 . S
C587 C586 1.391 . S
H588 C596 0.950 . S
H589 C601 0.950 . S
H590 C598 0.950 . S
H591 C600 0.952 . S
H592 C602 0.950 . S
H593 C604 0.950 . S
H594 C606 0.952 . S
H595 C607 0.950 . S
C596 H588 0.950 . S
C596 C597 1.386 . S
C596 C598 1.391 . S
C597 C596 1.386 . S
C597 C601 1.393 1_554 S
C598 H590 0.950 . S
C598 C596 1.391 . S
C598 C599 1.400 . S
C599 C598 1.400 . S
C599 C600 1.398 1_554 S
C599 C605 1.491 1_464 S
C600 H591 0.952 . S
C600 C599 1.398 1_556 S
C600 C601 1.391 . S
C601 H589 0.950 . S
C601 C597 1.393 1_556 S
C601 C600 1.391 . S
C602 H592 0.950 . S
C602 C603 1.386 . S
C602 C604 1.391 . S
C603 C602 1.386 . S
C603 C607 1.393 1_556 S
C604 H593 0.950 . S
C604 C602 1.391 . S
C604 C605 1.400 . S
C605 C599 1.491 1_646 S
C605 C604 1.400 . S
C605 C606 1.398 1_556 S
C606 H594 0.952 . S
C606 C605 1.398 1_554 S
C606 C607 1.391 . S
C607 H595 0.950 . S
C607 C603 1.393 1_554 S
C607 C606 1.391 . S
H608 C616 0.950 . S
H609 C621 0.950 . S
H610 C618 0.950 . S
H611 C620 0.950 . S
H612 C622 0.950 . S
H613 C624 0.950 . S
H614 C626 0.950 . S
H615 C627 0.950 . S
C616 H608 0.950 . S
C616 C617 1.386 . S
C616 C618 1.391 . S
C617 C616 1.386 . S
C617 C621 1.393 . S
C618 H610 0.950 . S
C618 C616 1.391 . S
C618 C619 1.400 . S
C619 C618 1.400 . S
C619 C620 1.398 . S
C619 C625 1.491 . S
C620 H611 0.950 . S
C620 C619 1.398 . S
C620 C621 1.391 . S
C621 H609 0.950 . S
C621 C617 1.393 . S
C621 C620 1.391 . S
C622 H612 0.950 . S
C622 C623 1.386 . S
C622 C624 1.391 . S
C623 C622 1.386 . S
C623 C627 1.393 . S
C624 H613 0.950 . S
C624 C622 1.391 . S
C624 C625 1.400 . S
C625 C619 1.491 . S
C625 C624 1.400 . S
C625 C626 1.398 . S
C626 H614 0.950 . S
C626 C625 1.398 . S
C626 C627 1.391 . S
C627 H615 0.950 . S
C627 C623 1.393 . S
C627 C626 1.391 . S
H628 C636 0.950 . S
H629 C641 0.950 . S
H630 C638 0.950 . S
H631 C640 0.950 . S
H632 C642 0.950 . S
H633 C644 0.950 . S
H634 C646 0.950 . S
H635 C647 0.950 . S
C636 H628 0.950 . S
C636 C637 1.386 . S
C636 C638 1.391 . S
C637 C636 1.386 . S
C637 C641 1.393 . S
C638 H630 0.950 . S
C638 C636 1.391 . S
C638 C639 1.400 . S
C639 C638 1.400 . S
C639 C640 1.398 . S
C639 C645 1.491 1_455 S
C640 H631 0.950 . S
C640 C639 1.398 . S
C640 C641 1.391 . S
C641 H629 0.950 . S
C641 C637 1.393 . S
C641 C640 1.391 . S
C642 H632 0.950 . S
C642 C643 1.386 . S
C642 C644 1.391 . S
C643 C642 1.386 . S
C643 C647 1.393 . S
C644 H633 0.950 . S
C644 C642 1.391 . S
C644 C645 1.400 . S
C645 C639 1.491 1_655 S
C645 C644 1.400 . S
C645 C646 1.398 . S
C646 H634 0.950 . S
C646 C645 1.398 . S
C646 C647 1.391 . S
C647 H635 0.950 . S
C647 C643 1.393 . S
C647 C646 1.391 . S
H648 C656 0.950 . S
H649 C661 0.950 . S
H650 C658 0.950 . S
H651 C660 0.950 . S
H652 C662 0.950 . S
H653 C664 0.950 . S
H654 C666 0.950 . S
H655 C667 0.950 . S
C656 H648 0.950 . S
C656 C657 1.386 1_655 S
C656 C658 1.391 . S
C657 C656 1.386 1_455 S
C657 C661 1.393 . S
C658 H650 0.950 . S
C658 C656 1.391 . S
C658 C659 1.400 1_655 S
C659 C658 1.400 1_455 S
C659 C660 1.398 . S
C659 C665 1.491 1_465 S
C660 H651 0.950 . S
C660 C659 1.398 . S
C660 C661 1.391 . S
C661 H649 0.950 . S
C661 C657 1.393 . S
C661 C660 1.391 . S
C662 H652 0.950 . S
C662 C663 1.386 1_455 S
C662 C664 1.391 . S
C663 C662 1.386 1_655 S
C663 C667 1.393 . S
C664 H653 0.950 . S
C664 C662 1.391 . S
C664 C665 1.400 1_455 S
C665 C659 1.491 1_645 S
C665 C664 1.400 1_655 S
C665 C666 1.398 . S
C666 H654 0.950 . S
C666 C665 1.398 . S
C666 C667 1.391 . S
C667 H655 0.950 . S
C667 C663 1.393 . S
C667 C666 1.391 . S
H668 C676 0.950 . S
H669 C681 0.950 . S
H670 C678 0.950 . S
H671 C680 0.950 . S
H672 C682 0.950 . S
H673 C684 0.950 . S
H674 C686 0.950 . S
H675 C687 0.950 . S
C676 H668 0.950 . S
C676 C677 1.386 . S
C676 C678 1.391 . S
C677 C676 1.386 . S
C677 C681 1.393 1_545 S
C678 H670 0.950 . S
C678 C676 1.391 . S
C678 C679 1.400 . S
C679 C678 1.400 . S
C679 C680 1.398 1_545 S
C679 C685 1.491 1_545 S
C680 H671 0.950 . S
C680 C679 1.398 1_565 S
C680 C681 1.391 . S
C681 H669 0.950 . S
C681 C677 1.393 1_565 S
C681 C680 1.391 . S
C682 H672 0.950 . S
C682 C683 1.386 . S
C682 C684 1.391 . S
C683 C682 1.386 . S
C683 C687 1.393 1_565 S
C684 H673 0.950 . S
C684 C682 1.391 . S
C684 C685 1.400 . S
C685 C679 1.491 1_565 S
C685 C684 1.400 . S
C685 C686 1.398 1_565 S
C686 H674 0.950 . S
C686 C685 1.398 1_545 S
C686 C687 1.391 . S
C687 H675 0.950 . S
C687 C683 1.393 1_545 S
C687 C686 1.391 . S
H688 C696 0.950 . S
H689 C701 0.950 . S
H690 C698 0.950 . S
H691 C700 0.950 . S
H692 C702 0.950 . S
H693 C704 0.950 . S
H694 C706 0.950 . S
H695 C707 0.950 . S
C696 H688 0.950 . S
C696 C697 1.386 . S
C696 C698 1.391 . S
C697 C696 1.386 . S
C697 C701 1.393 . S
C698 H690 0.950 . S
C698 C696 1.391 . S
C698 C699 1.400 . S
C699 C698 1.400 . S
C699 C700 1.398 . S
C699 C705 1.491 . S
C700 H691 0.950 . S
C700 C699 1.398 . S
C700 C701 1.391 . S
C701 H689 0.950 . S
C701 C697 1.393 . S
C701 C700 1.391 . S
C702 H692 0.950 . S
C702 C703 1.386 . S
C702 C704 1.391 . S
C703 C702 1.386 . S
C703 C707 1.393 . S
C704 H693 0.950 . S
C704 C702 1.391 . S
C704 C705 1.400 . S
C705 C699 1.491 . S
C705 C704 1.400 . S
C705 C706 1.398 . S
C706 H694 0.950 . S
C706 C705 1.398 . S
C706 C707 1.391 . S
C707 H695 0.950 . S
C707 C703 1.393 . S
C707 C706 1.391 . S
H708 C716 0.950 . S
H709 C721 0.950 . S
H710 C718 0.950 . S
H711 C720 0.950 . S
H712 C722 0.950 . S
H713 C724 0.950 . S
H714 C726 0.950 . S
H715 C727 0.950 . S
C716 H708 0.950 . S
C716 C717 1.386 . S
C716 C718 1.391 . S
C717 C716 1.386 . S
C717 C721 1.393 . S
C718 H710 0.950 . S
C718 C716 1.391 . S
C718 C719 1.400 . S
C719 C718 1.400 . S
C719 C720 1.398 . S
C719 C725 1.491 . S
C720 H711 0.950 . S
C720 C719 1.398 . S
C720 C721 1.391 . S
C721 H709 0.950 . S
C721 C717 1.393 . S
C721 C720 1.391 . S
C722 H712 0.950 . S
C722 C723 1.386 . S
C722 C724 1.391 . S
C723 C722 1.386 . S
C723 C727 1.393 . S
C724 H713 0.950 . S
C724 C722 1.391 . S
C724 C725 1.400 . S
C725 C719 1.491 . S
C725 C724 1.400 . S
C725 C726 1.398 . S
C726 H714 0.950 . S
C726 C725 1.398 . S
C726 C727 1.391 . S
C727 H715 0.950 . S
C727 C723 1.393 . S
C727 C726 1.391 . S
H728 C736 0.950 . S
H729 C741 0.950 . S
H730 C738 0.950 . S
H731 C740 0.950 . S
H732 C742 0.950 . S
H733 C744 0.950 . S
H734 C746 0.950 . S
H735 C747 0.950 . S
C736 H728 0.950 . S
C736 C737 1.386 . S
C736 C738 1.391 . S
C737 C736 1.386 . S
C737 C741 1.393 . S
C738 H730 0.950 . S
C738 C736 1.391 . S
C738 C739 1.400 . S
C739 C738 1.400 . S
C739 C740 1.398 . S
C739 C745 1.491 . S
C740 H731 0.950 . S
C740 C739 1.398 . S
C740 C741 1.391 . S
C741 H729 0.950 . S
C741 C737 1.393 . S
C741 C740 1.391 . S
C742 H732 0.950 . S
C742 C743 1.386 . S
C742 C744 1.391 . S
C743 C742 1.386 . S
C743 C747 1.393 . S
C744 H733 0.950 . S
C744 C742 1.391 . S
C744 C745 1.400 . S
C745 C739 1.491 . S
C745 C744 1.400 . S
C745 C746 1.398 . S
C746 H734 0.950 . S
C746 C745 1.398 . S
C746 C747 1.391 . S
C747 H735 0.950 . S
C747 C743 1.393 . S
C747 C746 1.391 . S
H748 C756 0.950 . S
H749 C761 0.950 . S
H750 C758 0.950 . S
H751 C760 0.950 . S
H752 C762 0.950 . S
H753 C764 0.950 . S
H754 C766 0.950 . S
H755 C767 0.950 . S
C756 H748 0.950 . S
C756 C757 1.386 . S
C756 C758 1.391 . S
C757 C756 1.386 . S
C757 C761 1.393 . S
C758 H750 0.950 . S
C758 C756 1.391 . S
C758 C759 1.400 . S
C759 C758 1.400 . S
C759 C760 1.398 . S
C759 C765 1.491 . S
C760 H751 0.950 . S
C760 C759 1.398 . S
C760 C761 1.391 . S
C761 H749 0.950 . S
C761 C757 1.393 . S
C761 C760 1.391 . S
C762 H752 0.950 . S
C762 C763 1.386 . S
C762 C764 1.391 . S
C763 C762 1.386 . S
C763 C767 1.393 . S
C764 H753 0.950 . S
C764 C762 1.391 . S
C764 C765 1.400 . S
C765 C759 1.491 . S
C765 C764 1.400 . S
C765 C766 1.398 . S
C766 H754 0.950 . S
C766 C765 1.398 . S
C766 C767 1.391 . S
C767 H755 0.950 . S
C767 C763 1.393 . S
C767 C766 1.391 . S
H768 C776 0.950 . S
H769 C781 0.950 . S
H770 C778 0.950 . S
H771 C780 0.950 . S
H772 C782 0.950 . S
H773 C784 0.950 . S
H774 C786 0.950 . S
H775 C787 0.950 . S
C776 H768 0.950 . S
C776 C777 1.386 . S
C776 C778 1.391 . S
C777 C776 1.386 . S
C777 C781 1.393 . S
C778 H770 0.950 . S
C778 C776 1.391 . S
C778 C779 1.400 . S
C779 C778 1.400 . S
C779 C780 1.398 . S
C779 C785 1.491 . S
C780 H771 0.950 . S
C780 C779 1.398 . S
C780 C781 1.391 . S
C781 H769 0.950 . S
C781 C777 1.393 . S
C781 C780 1.391 . S
C782 H772 0.950 . S
C782 C783 1.386 . S
C782 C784 1.391 . S
C783 C782 1.386 . S
C783 C787 1.393 . S
C784 H773 0.950 . S
C784 C782 1.391 . S
C784 C785 1.400 . S
C785 C779 1.491 . S
C785 C784 1.400 . S
C785 C786 1.398 . S
C786 H774 0.950 . S
C786 C785 1.398 . S
C786 C787 1.391 . S
C787 H775 0.950 . S
C787 C783 1.393 . S
C787 C786 1.391 . S
H788 C796 0.950 . S
H789 C801 0.950 . S
H790 C798 0.950 . S
H791 C800 0.950 . S
H792 C802 0.950 . S
H793 C804 0.950 . S
H794 C806 0.950 . S
H795 C807 0.950 . S
C796 H788 0.950 . S
C796 C797 1.386 . S
C796 C798 1.391 . S
C797 C796 1.386 . S
C797 C801 1.393 . S
C798 H790 0.950 . S
C798 C796 1.391 . S
C798 C799 1.400 . S
C799 C798 1.400 . S
C799 C800 1.398 . S
C799 C805 1.491 . S
C800 H791 0.950 . S
C800 C799 1.398 . S
C800 C801 1.391 . S
C801 H789 0.950 . S
C801 C797 1.393 . S
C801 C800 1.391 . S
C802 H792 0.950 . S
C802 C803 1.386 . S
C802 C804 1.391 . S
C803 C802 1.386 . S
C803 C807 1.393 . S
C804 H793 0.950 . S
C804 C802 1.391 . S
C804 C805 1.400 . S
C805 C799 1.491 . S
C805 C804 1.400 . S
C805 C806 1.398 . S
C806 H794 0.950 . S
C806 C805 1.398 . S
C806 C807 1.391 . S
C807 H795 0.950 . S
C807 C803 1.393 . S
C807 C806 1.391 . S
H808 C816 0.950 . S
H809 C821 0.950 . S
H810 C818 0.950 . S
H811 C820 0.950 . S
H812 C822 0.950 . S
H813 C824 0.950 . S
H814 C826 0.950 . S
H815 C827 0.950 . S
C816 H808 0.950 . S
C816 C817 1.386 . S
C816 C818 1.391 . S
C817 C816 1.386 . S
C817 C821 1.393 . S
C818 H810 0.950 . S
C818 C816 1.391 . S
C818 C819 1.400 . S
C819 C818 1.400 . S
C819 C820 1.398 . S
C819 C825 1.491 . S
C820 H811 0.950 . S
C820 C819 1.398 . S
C820 C821 1.391 . S
C821 H809 0.950 . S
C821 C817 1.393 . S
C821 C820 1.391 . S
C822 H812 0.950 . S
C822 C823 1.386 . S
C822 C824 1.391 . S
C823 C822 1.386 . S
C823 C827 1.393 . S
C824 H813 0.950 . S
C824 C822 1.391 . S
C824 C825 1.400 . S
C825 C819 1.491 . S
C825 C824 1.400 . S
C825 C826 1.398 . S
C826 H814 0.950 . S
C826 C825 1.398 . S
C826 C827 1.391 . S
C827 H815 0.950 . S
C827 C823 1.393 . S
C827 C826 1.391 . S
H828 C836 0.950 . S
H829 C841 0.950 . S
H830 C838 0.950 . S
H831 C840 0.950 . S
H832 C842 0.950 . S
H833 C844 0.950 . S
H834 C846 0.950 . S
H835 C847 0.950 . S
C836 H828 0.950 . S
C836 C837 1.386 . S
C836 C838 1.391 . S
C837 C836 1.386 . S
C837 C841 1.393 . S
C838 H830 0.950 . S
C838 C836 1.391 . S
C838 C839 1.400 . S
C839 C838 1.400 . S
C839 C840 1.398 . S
C839 C845 1.491 . S
C840 H831 0.950 . S
C840 C839 1.398 . S
C840 C841 1.391 . S
C841 H829 0.950 . S
C841 C837 1.393 . S
C841 C840 1.391 . S
C842 H832 0.950 . S
C842 C843 1.386 . S
C842 C844 1.391 . S
C843 C842 1.386 . S
C843 C847 1.393 . S
C844 H833 0.950 . S
C844 C842 1.391 . S
C844 C845 1.400 . S
C845 C839 1.491 . S
C845 C844 1.400 . S
C845 C846 1.398 . S
C846 H834 0.950 . S
C846 C845 1.398 . S
C846 C847 1.391 . S
C847 H835 0.950 . S
C847 C843 1.393 . S
C847 C846 1.391 . S
C217 C5 0.697 . S
C223 C125 0.615 . S
C237 C138 0.614 . S
C243 C18 0.698 . S
C257 C151 0.636 . S
C263 C31 0.668 . S
C277 C112 0.665 . S
C283 C44 0.626 . S
C297 C57 0.643 . S
C303 C203 0.654 . S
C317 C164 0.657 . S
C323 C70 0.640 . S
C337 C177 0.619 . S
C343 C83 0.691 . S
C357 C190 0.665 . S
C363 C96 0.627 . S
C377 C109 0.639 . S
C383 C21 0.656 . S
C397 C122 0.628 . S
C403 C34 0.663 . S
C417 C135 0.700 . S
C423 C47 0.613 . S
C437 C8 0.663 . S
C443 C148 0.629 . S
C457 C161 0.686 . S
C463 C99 0.624 . S
C477 C174 0.679 . S
C483 C60 0.628 . S
C497 C73 0.646 . S
C503 C187 0.653 . S
C517 C200 0.631 . S
C523 C86 0.662 . S
C537 C104 1.525 . S
C543 C0 1.525 . S
C557 C13 1.531 . S
C563 C117 1.531 . S
C577 C130 1.510 . S
C583 C26 1.510 . S
C597 C39 1.531 . S
C603 C143 1.531 . S
C617 C156 1.530 . S
C623 C52 1.530 . S
C637 C65 1.518 . S
C643 C169 1.518 . S
C657 C182 1.512 . S
C663 C78 1.512 . S
C677 C195 1.531 . S
C683 C91 1.531 . S
C697 C62 1.632 . S
C703 C10 1.633 . S
C717 C75 1.649 . S
C723 C23 1.634 . S
C737 C36 1.634 . S
C743 C88 1.649 . S
C757 C101 1.634 . S
C763 C49 1.631 . S
C777 C114 1.643 . S
C783 C166 1.630 . S
C797 C179 1.635 . S
C803 C127 1.650 . S
C817 C192 1.646 . S
C823 C140 1.650 . S
C837 C205 1.638 . S
C843 C153 1.651 . S
