# Generated by pormake.
# Topology mer, (4)-cn, num edge types: 1
# Building blocks:
#     Node 0, Type 0, BuildingBlock: ESEHIV_clean_sbu_0, # of connection points: 4
#     Node 1, Type 0, BuildingBlock: ESEHIV_clean_sbu_0, # of connection points: 4
#     Node 2, Type 0, BuildingBlock: ESEHIV_clean_sbu_0, # of connection points: 4
#     Node 3, Type 0, BuildingBlock: ESEHIV_clean_sbu_0, # of connection points: 4
#     Node 4, Type 0, BuildingBlock: ESEHIV_clean_sbu_0, # of connection points: 4
#     Node 5, Type 0, BuildingBlock: ESEHIV_clean_sbu_0, # of connection points: 4
#     Node 6, Type 0, BuildingBlock: ESEHIV_clean_sbu_0, # of connection points: 4
#     Node 7, Type 0, BuildingBlock: ESEHIV_clean_sbu_0, # of connection points: 4
#     Node 8, Type 0, BuildingBlock: ESEHIV_clean_sbu_0, # of connection points: 4
#     Node 9, Type 0, BuildingBlock: ESEHIV_clean_sbu_0, # of connection points: 4
#     Node 10, Type 0, BuildingBlock: ESEHIV_clean_sbu_0, # of connection points: 4
#     Node 11, Type 0, BuildingBlock: ESEHIV_clean_sbu_0, # of connection points: 4
#     Node 12, Type 0, BuildingBlock: ESEHIV_clean_sbu_0, # of connection points: 4
#     Node 13, Type 0, BuildingBlock: ESEHIV_clean_sbu_0, # of connection points: 4
#     Node 14, Type 0, BuildingBlock: ESEHIV_clean_sbu_0, # of connection points: 4
#     Node 15, Type 0, BuildingBlock: ESEHIV_clean_sbu_0, # of connection points: 4
#     Node 16, Type 0, BuildingBlock: ESEHIV_clean_sbu_0, # of connection points: 4
#     Node 17, Type 0, BuildingBlock: ESEHIV_clean_sbu_0, # of connection points: 4
#     Node 18, Type 0, BuildingBlock: ESEHIV_clean_sbu_0, # of connection points: 4
#     Node 19, Type 0, BuildingBlock: ESEHIV_clean_sbu_0, # of connection points: 4
#     Node 20, Type 0, BuildingBlock: ESEHIV_clean_sbu_0, # of connection points: 4
#     Node 21, Type 0, BuildingBlock: ESEHIV_clean_sbu_0, # of connection points: 4
#     Node 22, Type 0, BuildingBlock: ESEHIV_clean_sbu_0, # of connection points: 4
#     Node 23, Type 0, BuildingBlock: ESEHIV_clean_sbu_0, # of connection points: 4
#     Node 24, Type 0, BuildingBlock: ESEHIV_clean_sbu_0, # of connection points: 4
#     Node 25, Type 0, BuildingBlock: ESEHIV_clean_sbu_0, # of connection points: 4
#     Node 26, Type 0, BuildingBlock: ESEHIV_clean_sbu_0, # of connection points: 4
#     Node 27, Type 0, BuildingBlock: ESEHIV_clean_sbu_0, # of connection points: 4
#     Node 28, Type 0, BuildingBlock: ESEHIV_clean_sbu_0, # of connection points: 4
#     Node 29, Type 0, BuildingBlock: ESEHIV_clean_sbu_0, # of connection points: 4
#     Node 30, Type 0, BuildingBlock: ESEHIV_clean_sbu_0, # of connection points: 4
#     Node 31, Type 0, BuildingBlock: ESEHIV_clean_sbu_0, # of connection points: 4
#     Edge 32, Type (0, 0), BuildingBlock: AJUNOK_clean_linker_0, # of connection points: 2
#     Edge 33, Type (0, 0), BuildingBlock: AJUNOK_clean_linker_0, # of connection points: 2
#     Edge 34, Type (0, 0), BuildingBlock: AJUNOK_clean_linker_0, # of connection points: 2
#     Edge 35, Type (0, 0), BuildingBlock: AJUNOK_clean_linker_0, # of connection points: 2
#     Edge 36, Type (0, 0), BuildingBlock: AJUNOK_clean_linker_0, # of connection points: 2
#     Edge 37, Type (0, 0), BuildingBlock: AJUNOK_clean_linker_0, # of connection points: 2
#     Edge 38, Type (0, 0), BuildingBlock: AJUNOK_clean_linker_0, # of connection points: 2
#     Edge 39, Type (0, 0), BuildingBlock: AJUNOK_clean_linker_0, # of connection points: 2
#     Edge 40, Type (0, 0), BuildingBlock: AJUNOK_clean_linker_0, # of connection points: 2
#     Edge 41, Type (0, 0), BuildingBlock: AJUNOK_clean_linker_0, # of connection points: 2
#     Edge 42, Type (0, 0), BuildingBlock: AJUNOK_clean_linker_0, # of connection points: 2
#     Edge 43, Type (0, 0), BuildingBlock: AJUNOK_clean_linker_0, # of connection points: 2
#     Edge 44, Type (0, 0), BuildingBlock: AJUNOK_clean_linker_0, # of connection points: 2
#     Edge 45, Type (0, 0), BuildingBlock: AJUNOK_clean_linker_0, # of connection points: 2
#     Edge 46, Type (0, 0), BuildingBlock: AJUNOK_clean_linker_0, # of connection points: 2
#     Edge 47, Type (0, 0), BuildingBlock: AJUNOK_clean_linker_0, # of connection points: 2
#     Edge 48, Type (0, 0), BuildingBlock: AJUNOK_clean_linker_0, # of connection points: 2
#     Edge 49, Type (0, 0), BuildingBlock: AJUNOK_clean_linker_0, # of connection points: 2
#     Edge 50, Type (0, 0), BuildingBlock: AJUNOK_clean_linker_0, # of connection points: 2
#     Edge 51, Type (0, 0), BuildingBlock: AJUNOK_clean_linker_0, # of connection points: 2
#     Edge 52, Type (0, 0), BuildingBlock: AJUNOK_clean_linker_0, # of connection points: 2
#     Edge 53, Type (0, 0), BuildingBlock: AJUNOK_clean_linker_0, # of connection points: 2
#     Edge 54, Type (0, 0), BuildingBlock: AJUNOK_clean_linker_0, # of connection points: 2
#     Edge 55, Type (0, 0), BuildingBlock: AJUNOK_clean_linker_0, # of connection points: 2
#     Edge 56, Type (0, 0), BuildingBlock: AJUNOK_clean_linker_0, # of connection points: 2
#     Edge 57, Type (0, 0), BuildingBlock: AJUNOK_clean_linker_0, # of connection points: 2
#     Edge 58, Type (0, 0), BuildingBlock: AJUNOK_clean_linker_0, # of connection points: 2
#     Edge 59, Type (0, 0), BuildingBlock: AJUNOK_clean_linker_0, # of connection points: 2
#     Edge 60, Type (0, 0), BuildingBlock: AJUNOK_clean_linker_0, # of connection points: 2
#     Edge 61, Type (0, 0), BuildingBlock: AJUNOK_clean_linker_0, # of connection points: 2
#     Edge 62, Type (0, 0), BuildingBlock: AJUNOK_clean_linker_0, # of connection points: 2
#     Edge 63, Type (0, 0), BuildingBlock: AJUNOK_clean_linker_0, # of connection points: 2
#     Edge 64, Type (0, 0), BuildingBlock: AJUNOK_clean_linker_0, # of connection points: 2
#     Edge 65, Type (0, 0), BuildingBlock: AJUNOK_clean_linker_0, # of connection points: 2
#     Edge 66, Type (0, 0), BuildingBlock: AJUNOK_clean_linker_0, # of connection points: 2
#     Edge 67, Type (0, 0), BuildingBlock: AJUNOK_clean_linker_0, # of connection points: 2
#     Edge 68, Type (0, 0), BuildingBlock: AJUNOK_clean_linker_0, # of connection points: 2
#     Edge 69, Type (0, 0), BuildingBlock: AJUNOK_clean_linker_0, # of connection points: 2
#     Edge 70, Type (0, 0), BuildingBlock: AJUNOK_clean_linker_0, # of connection points: 2
#     Edge 71, Type (0, 0), BuildingBlock: AJUNOK_clean_linker_0, # of connection points: 2
#     Edge 72, Type (0, 0), BuildingBlock: AJUNOK_clean_linker_0, # of connection points: 2
#     Edge 73, Type (0, 0), BuildingBlock: AJUNOK_clean_linker_0, # of connection points: 2
#     Edge 74, Type (0, 0), BuildingBlock: AJUNOK_clean_linker_0, # of connection points: 2
#     Edge 75, Type (0, 0), BuildingBlock: AJUNOK_clean_linker_0, # of connection points: 2
#     Edge 76, Type (0, 0), BuildingBlock: AJUNOK_clean_linker_0, # of connection points: 2
#     Edge 77, Type (0, 0), BuildingBlock: AJUNOK_clean_linker_0, # of connection points: 2
#     Edge 78, Type (0, 0), BuildingBlock: AJUNOK_clean_linker_0, # of connection points: 2
#     Edge 79, Type (0, 0), BuildingBlock: AJUNOK_clean_linker_0, # of connection points: 2
#     Edge 80, Type (0, 0), BuildingBlock: AJUNOK_clean_linker_0, # of connection points: 2
#     Edge 81, Type (0, 0), BuildingBlock: AJUNOK_clean_linker_0, # of connection points: 2
#     Edge 82, Type (0, 0), BuildingBlock: AJUNOK_clean_linker_0, # of connection points: 2
#     Edge 83, Type (0, 0), BuildingBlock: AJUNOK_clean_linker_0, # of connection points: 2
#     Edge 84, Type (0, 0), BuildingBlock: AJUNOK_clean_linker_0, # of connection points: 2
#     Edge 85, Type (0, 0), BuildingBlock: AJUNOK_clean_linker_0, # of connection points: 2
#     Edge 86, Type (0, 0), BuildingBlock: AJUNOK_clean_linker_0, # of connection points: 2
#     Edge 87, Type (0, 0), BuildingBlock: AJUNOK_clean_linker_0, # of connection points: 2
#     Edge 88, Type (0, 0), BuildingBlock: AJUNOK_clean_linker_0, # of connection points: 2
#     Edge 89, Type (0, 0), BuildingBlock: AJUNOK_clean_linker_0, # of connection points: 2
#     Edge 90, Type (0, 0), BuildingBlock: AJUNOK_clean_linker_0, # of connection points: 2
#     Edge 91, Type (0, 0), BuildingBlock: AJUNOK_clean_linker_0, # of connection points: 2
#     Edge 92, Type (0, 0), BuildingBlock: AJUNOK_clean_linker_0, # of connection points: 2
#     Edge 93, Type (0, 0), BuildingBlock: AJUNOK_clean_linker_0, # of connection points: 2
#     Edge 94, Type (0, 0), BuildingBlock: AJUNOK_clean_linker_0, # of connection points: 2
#     Edge 95, Type (0, 0), BuildingBlock: AJUNOK_clean_linker_0, # of connection points: 2
# Relax obj value: 0.086
# Max RMSD: 0.224
# Mean RMSD: 0.224
data_MOF--net-mer--node1-ESEHIV_clean_sbu_0--edge1-AJUNOK_clean_linker_0
_symmetry_space_group_name_H-M    P1
_symmetry_Int_Tables_number       1
_symmetry_cell_setting            triclinic
loop_
_symmetry_equiv_pos_as_xyz
'x, y, z'
_cell_length_a     54.508614
_cell_length_b     54.768487
_cell_length_c     39.764478
_cell_angle_alpha  89.775041
_cell_angle_beta   89.992509
_cell_angle_gamma 90.300241
loop_
_atom_site_label
_atom_site_type_symbol
_atom_site_fract_x
_atom_site_fract_y
_atom_site_fract_z
_atom_type_partial_charge
Cu0 Cu 0.13132 0.30821 0.4074 0.0
N1 N 0.13263 0.27442 0.40389 0.0
N2 N 0.14888 0.23713 0.40262 0.0
C3 C 0.15334 0.26126 0.40579 0.0
C4 C 0.1244 0.23511 0.39813 0.0
C5 C 0.11441 0.25817 0.39897 0.0
O6 O 0.15333 0.32011 0.37262 0.0
C7 C 0.13303 0.33166 0.47192 0.0
O8 O 0.11747 0.3475 0.45938 0.0
H9 H 0.17134 0.2694 0.40863 0.0
H10 H 0.09526 0.26269 0.39599 0.0
N11 N 0.09905 0.31838 0.40035 0.0
N12 N 0.05809 0.31834 0.40284 0.0
C13 C 0.07904 0.3095 0.41615 0.0
C14 C 0.09046 0.3334 0.37626 0.0
C15 C 0.06521 0.33345 0.37778 0.0
C16 C 0.15571 0.34177 0.36152 0.0
O17 O 0.14339 0.35958 0.37556 0.0
H18 H 0.07978 0.29578 0.43579 0.0
H19 H 0.10157 0.34243 0.35742 0.0
O20 O 0.14194 0.31531 0.4529 0.0
H21 H 0.11443 0.21816 0.39467 0.0
H22 H 0.05304 0.34232 0.36009 0.0
Cu23 Cu 0.6899 0.13346 0.41003 0.0
N24 N 0.72316 0.13508 0.39939 0.0
N25 N 0.76128 0.14991 0.3945 0.0
C26 C 0.73823 0.15407 0.40558 0.0
C27 C 0.76043 0.1275 0.38045 0.0
C28 C 0.73692 0.11848 0.38333 0.0
O29 O 0.67312 0.15438 0.37776 0.0
C30 C 0.67402 0.13402 0.47903 0.0
O31 O 0.66034 0.11519 0.47063 0.0
H32 H 0.73205 0.17082 0.41701 0.0
H33 H 0.73029 0.10123 0.37381 0.0
N34 N 0.67875 0.10126 0.40554 0.0
N35 N 0.67904 0.06057 0.40129 0.0
C36 C 0.69155 0.08067 0.41113 0.0
C37 C 0.65717 0.09392 0.39252 0.0
C38 C 0.65727 0.06882 0.38996 0.0
C39 C 0.67511 0.14947 0.34655 0.0
O40 O 0.68751 0.13001 0.33776 0.0
H41 H 0.70991 0.08052 0.42145 0.0
H42 H 0.64281 0.10607 0.38417 0.0
O43 O 0.68671 0.14473 0.45641 0.0
H44 H 0.77571 0.11821 0.36886 0.0
H45 H 0.64299 0.05761 0.37892 0.0
Cu46 Cu 0.8904 0.72118 0.43399 0.0
N47 N 0.87668 0.75198 0.43997 0.0
N48 N 0.85232 0.78469 0.43927 0.0
C49 C 0.85474 0.76096 0.43041 0.0
C50 C 0.87351 0.79059 0.45491 0.0
C51 C 0.8884 0.77047 0.45529 0.0
O52 O 0.87127 0.70268 0.40087 0.0
C53 C 0.87465 0.70758 0.49887 0.0
O54 O 0.85407 0.71711 0.4879 0.0
H55 H 0.84085 0.75022 0.41776 0.0
H56 H 0.90668 0.76936 0.46574 0.0
N57 N 0.92183 0.72708 0.41706 0.0
N58 N 0.96227 0.72721 0.40822 0.0
C59 C 0.94358 0.71758 0.42637 0.0
C60 C 0.92694 0.74299 0.39216 0.0
C61 C 0.95182 0.74305 0.38655 0.0
C62 C 0.88168 0.68994 0.3782 0.0
O63 O 0.9056 0.68739 0.37915 0.0
H64 H 0.94568 0.70405 0.44607 0.0
H65 H 0.91338 0.75369 0.37889 0.0
O66 O 0.89256 0.70587 0.47842 0.0
H67 H 0.87813 0.80839 0.46489 0.0
H68 H 0.96141 0.75351 0.36745 0.0
Cu69 Cu 0.30017 0.87956 0.40935 0.0
N70 N 0.26728 0.8754 0.39782 0.0
N71 N 0.23159 0.85615 0.38994 0.0
C72 C 0.25484 0.85427 0.40115 0.0
C73 C 0.22918 0.87943 0.37937 0.0
C74 C 0.25135 0.89125 0.38397 0.0
O75 O 0.31951 0.86079 0.37788 0.0
C76 C 0.32078 0.87663 0.47498 0.0
O77 O 0.33782 0.89107 0.46249 0.0
H78 H 0.26271 0.83786 0.41181 0.0
H79 H 0.2556 0.9099 0.3771 0.0
N80 N 0.31018 0.91203 0.40504 0.0
N81 N 0.31073 0.95269 0.40175 0.0
C82 C 0.29729 0.93266 0.40956 0.0
C83 C 0.33253 0.91929 0.39455 0.0
C84 C 0.33296 0.94436 0.3926 0.0
C85 C 0.31692 0.86604 0.34683 0.0
O86 O 0.30131 0.88322 0.33847 0.0
H87 H 0.27846 0.93298 0.41813 0.0
H88 H 0.34731 0.90709 0.38804 0.0
O89 O 0.3039 0.86879 0.45569 0.0
H90 H 0.21274 0.88714 0.36845 0.0
H91 H 0.3481 0.95556 0.38382 0.0
Cu92 Cu 0.13759 0.71859 0.6895 0.0
N93 N 0.13961 0.75206 0.69773 0.0
N94 N 0.15648 0.78934 0.69948 0.0
C95 C 0.15901 0.76604 0.68915 0.0
C96 C 0.13458 0.78995 0.71537 0.0
C97 C 0.1242 0.76692 0.71422 0.0
O98 O 0.15469 0.70047 0.72507 0.0
C99 C 0.1447 0.69852 0.62307 0.0
O100 O 0.13049 0.6804 0.63278 0.0
H101 H 0.1752 0.75879 0.67713 0.0
H102 H 0.10701 0.76128 0.72548 0.0
N103 N 0.10508 0.70757 0.68956 0.0
N104 N 0.0642 0.70502 0.68787 0.0
C105 C 0.08394 0.71999 0.6859 0.0
C106 C 0.09839 0.68413 0.69434 0.0
C107 C 0.07323 0.68248 0.69326 0.0
C108 C 0.16428 0.71057 0.75085 0.0
O109 O 0.16544 0.73447 0.75244 0.0
H110 H 0.08295 0.73955 0.68228 0.0
H111 H 0.11103 0.66931 0.69889 0.0
O112 O 0.15114 0.71461 0.64442 0.0
H113 H 0.1268 0.80581 0.72743 0.0
H114 H 0.06237 0.66617 0.69767 0.0
Cu115 Cu 0.28001 0.13073 0.68221 0.0
N116 N 0.24849 0.14364 0.68014 0.0
N117 N 0.21642 0.16888 0.67995 0.0
C118 C 0.24108 0.16697 0.68306 0.0
C119 C 0.20827 0.1459 0.67466 0.0
C120 C 0.22802 0.13048 0.67462 0.0
O121 O 0.29858 0.14639 0.71837 0.0
C122 C 0.2861 0.12044 0.61379 0.0
O123 O 0.26942 0.10387 0.62115 0.0
H124 H 0.25359 0.18214 0.68657 0.0
H125 H 0.2275 0.11096 0.67075 0.0
N126 N 0.27622 0.09807 0.695 0.0
N127 N 0.28031 0.05783 0.70114 0.0
C128 C 0.28802 0.07796 0.6844 0.0
C129 C 0.26084 0.09037 0.71934 0.0
C130 C 0.26316 0.06555 0.72299 0.0
C131 C 0.31611 0.13468 0.73209 0.0
O132 O 0.32357 0.1144 0.71796 0.0
H133 H 0.30188 0.07809 0.6649 0.0
H134 H 0.24892 0.10214 0.73368 0.0
O135 O 0.29426 0.13411 0.6372 0.0
H136 H 0.1893 0.1405 0.67136 0.0
H137 H 0.25342 0.0541 0.74084 0.0
Cu138 Cu 0.88395 0.28394 0.68556 0.0
N139 N 0.87063 0.25252 0.68487 0.0
N140 N 0.84501 0.22075 0.68808 0.0
C141 C 0.84745 0.24518 0.69122 0.0
C142 C 0.8674 0.21247 0.67957 0.0
C143 C 0.88311 0.23213 0.67737 0.0
O144 O 0.86628 0.30431 0.7174 0.0
C145 C 0.86604 0.29285 0.62006 0.0
O146 O 0.84598 0.28287 0.63234 0.0
H147 H 0.83279 0.25741 0.69821 0.0
H148 H 0.90233 0.23164 0.67069 0.0
N149 N 0.91635 0.28119 0.7 0.0
N150 N 0.95688 0.28596 0.70437 0.0
C151 C 0.93613 0.29396 0.68951 0.0
C152 C 0.92488 0.26481 0.72239 0.0
C153 C 0.94984 0.26777 0.72524 0.0
C154 C 0.8647 0.29704 0.74783 0.0
O155 O 0.87383 0.27564 0.75577 0.0
H156 H 0.9354 0.30847 0.67097 0.0
H157 H 0.91373 0.25146 0.73551 0.0
O158 O 0.88409 0.29661 0.63971 0.0
H159 H 0.87193 0.19358 0.67473 0.0
H160 H 0.96185 0.25754 0.74171 0.0
Cu161 Cu 0.71883 0.89039 0.66267 0.0
N162 N 0.74843 0.8748 0.65409 0.0
N163 N 0.78065 0.84997 0.65724 0.0
C164 C 0.76 0.85772 0.67257 0.0
C165 C 0.78222 0.86287 0.62834 0.0
C166 C 0.76229 0.87812 0.62645 0.0
O167 O 0.70298 0.8745 0.70109 0.0
C168 C 0.6988 0.86956 0.60426 0.0
O169 O 0.70603 0.84928 0.61891 0.0
H170 H 0.75327 0.85086 0.69644 0.0
H171 H 0.75807 0.89074 0.6063 0.0
N172 N 0.72602 0.92273 0.67347 0.0
N173 N 0.72256 0.96275 0.68256 0.0
C174 C 0.71134 0.94237 0.6711 0.0
C175 C 0.74727 0.931 0.68644 0.0
C176 C 0.74522 0.95571 0.69196 0.0
C177 C 0.68741 0.88526 0.71968 0.0
O178 O 0.67968 0.90703 0.71083 0.0
H179 H 0.69285 0.94168 0.66121 0.0
H180 H 0.76303 0.91973 0.6919 0.0
O181 O 0.70049 0.88944 0.62063 0.0
H182 H 0.79693 0.86166 0.61015 0.0
H183 H 0.75909 0.96748 0.70287 0.0
Cu184 Cu 0.8889 0.71909 0.70962 0.0
N185 N 0.87638 0.75048 0.71466 0.0
N186 N 0.85276 0.78315 0.70683 0.0
C187 C 0.85635 0.75943 0.69929 0.0
C188 C 0.87112 0.78929 0.72794 0.0
C189 C 0.88581 0.76914 0.73251 0.0
O190 O 0.87279 0.69719 0.74212 0.0
C191 C 0.89336 0.69645 0.64289 0.0
O192 O 0.91203 0.68371 0.65406 0.0
H193 H 0.84468 0.74873 0.6829 0.0
H194 H 0.90234 0.7682 0.74748 0.0
N195 N 0.92253 0.72021 0.71938 0.0
N196 N 0.96345 0.72168 0.71605 0.0
C197 C 0.94217 0.72031 0.69866 0.0
C198 C 0.93187 0.72175 0.75066 0.0
C199 C 0.957 0.72271 0.74869 0.0
C200 C 0.86927 0.70451 0.77218 0.0
O201 O 0.87507 0.72709 0.77987 0.0
H202 H 0.94096 0.71963 0.67153 0.0
H203 H 0.92119 0.72202 0.7735 0.0
O204 O 0.88199 0.71063 0.6628 0.0
H205 H 0.87406 0.80725 0.73855 0.0
H206 H 0.96963 0.72341 0.76968 0.0
Cu207 Cu 0.30139 0.88626 0.68499 0.0
N208 N 0.26758 0.88191 0.6911 0.0
N209 N 0.23082 0.86396 0.69567 0.0
C210 C 0.25467 0.86104 0.68755 0.0
C211 C 0.22868 0.88742 0.70526 0.0
C212 C 0.25137 0.89846 0.70237 0.0
O213 O 0.31897 0.86433 0.71461 0.0
C214 C 0.30567 0.86449 0.61908 0.0
O215 O 0.29321 0.84583 0.63106 0.0
H216 H 0.26274 0.84381 0.68049 0.0
H217 H 0.25578 0.91711 0.70885 0.0
N218 N 0.31055 0.91789 0.69668 0.0
N219 N 0.31188 0.95852 0.69956 0.0
C220 C 0.30017 0.93892 0.68666 0.0
C221 C 0.32958 0.92439 0.71632 0.0
C222 C 0.33035 0.94948 0.71833 0.0
C223 C 0.31479 0.86552 0.74607 0.0
O224 O 0.2978 0.88055 0.75678 0.0
H225 H 0.28431 0.93984 0.67034 0.0
H226 H 0.34187 0.91175 0.7286 0.0
O227 O 0.31075 0.88239 0.63817 0.0
H228 H 0.21194 0.89591 0.71389 0.0
H229 H 0.34296 0.96016 0.73338 0.0
Cu230 Cu 0.12797 0.31959 0.68562 0.0
N231 N 0.13291 0.28605 0.69127 0.0
N232 N 0.1508 0.24959 0.69148 0.0
C233 C 0.15403 0.27379 0.68689 0.0
C234 C 0.12694 0.24645 0.69915 0.0
C235 C 0.11598 0.26901 0.69935 0.0
O236 O 0.14801 0.33686 0.71826 0.0
C237 C 0.13242 0.31376 0.61567 0.0
O238 O 0.12526 0.29145 0.62305 0.0
H239 H 0.17118 0.28231 0.67949 0.0
H240 H 0.09696 0.27263 0.70483 0.0
N241 N 0.09539 0.32712 0.69476 0.0
N242 N 0.05462 0.32421 0.69826 0.0
C243 C 0.07515 0.3155 0.68369 0.0
C244 C 0.08738 0.34415 0.71637 0.0
C245 C 0.06221 0.34244 0.71853 0.0
C246 C 0.15024 0.32803 0.74781 0.0
O247 O 0.13985 0.30696 0.75501 0.0
H248 H 0.07559 0.30057 0.66596 0.0
H249 H 0.09914 0.35633 0.73051 0.0
O250 O 0.13518 0.32921 0.63927 0.0
H251 H 0.11811 0.22905 0.70418 0.0
H252 H 0.05051 0.3529 0.73502 0.0
Cu253 Cu 0.69201 0.13279 0.68967 0.0
N254 N 0.72595 0.1378 0.69161 0.0
N255 N 0.7629 0.15556 0.694 0.0
C256 C 0.73837 0.15904 0.6946 0.0
C257 C 0.76593 0.13126 0.69091 0.0
C258 C 0.7432 0.12039 0.6894 0.0
O259 O 0.6753 0.15398 0.72162 0.0
C260 C 0.69014 0.15173 0.6223 0.0
O261 O 0.70674 0.16735 0.63289 0.0
H262 H 0.72955 0.17658 0.69729 0.0
H263 H 0.73959 0.10112 0.68655 0.0
N264 N 0.68546 0.10053 0.70207 0.0
N265 N 0.68673 0.05977 0.70302 0.0
C266 C 0.69306 0.08029 0.68614 0.0
C267 C 0.67367 0.09258 0.72979 0.0
C268 C 0.6745 0.06742 0.73051 0.0
C269 C 0.68352 0.15631 0.7515 0.0
O270 O 0.70413 0.14545 0.75959 0.0
H271 H 0.7036 0.08062 0.66307 0.0
H272 H 0.66578 0.10428 0.74872 0.0
O273 O 0.68079 0.13667 0.64326 0.0
H274 H 0.7834 0.12203 0.68907 0.0
H275 H 0.66778 0.05579 0.7506 0.0
Cu276 Cu 0.8876 0.27132 0.41262 0.0
N277 N 0.87457 0.24009 0.40627 0.0
N278 N 0.8477 0.20961 0.40059 0.0
C279 C 0.85071 0.23398 0.40321 0.0
C280 C 0.87033 0.19997 0.40226 0.0
C281 C 0.88686 0.2188 0.40623 0.0
O282 O 0.87244 0.29365 0.38068 0.0
C283 C 0.88553 0.29804 0.47617 0.0
O284 O 0.89835 0.31578 0.46234 0.0
H285 H 0.83588 0.24705 0.40324 0.0
H286 H 0.90641 0.21697 0.40986 0.0
N287 N 0.92139 0.27033 0.40394 0.0
N288 N 0.96168 0.27789 0.4029 0.0
C289 C 0.9399 0.28383 0.41683 0.0
C290 C 0.93194 0.25578 0.38092 0.0
C291 C 0.95673 0.26021 0.38047 0.0
C292 C 0.87293 0.28822 0.34954 0.0
O293 O 0.883 0.26751 0.34059 0.0
H294 H 0.93756 0.29771 0.43578 0.0
H295 H 0.92221 0.24307 0.36496 0.0
O296 O 0.88004 0.27919 0.45911 0.0
H297 H 0.87445 0.18066 0.40181 0.0
H298 H 0.97005 0.25168 0.36414 0.0
Cu299 Cu 0.71395 0.88922 0.39648 0.0
N300 N 0.74643 0.87958 0.40264 0.0
N301 N 0.77992 0.85766 0.41342 0.0
C302 C 0.75604 0.85694 0.40442 0.0
C303 C 0.78549 0.88147 0.41742 0.0
C304 C 0.76485 0.89493 0.41066 0.0
O305 O 0.6976 0.86987 0.36175 0.0
C306 C 0.69771 0.86832 0.45796 0.0
O307 O 0.70468 0.84787 0.4438 0.0
H308 H 0.74553 0.84034 0.40075 0.0
H309 H 0.76308 0.91453 0.41266 0.0
N310 N 0.71451 0.92164 0.38191 0.0
N311 N 0.71052 0.96217 0.37977 0.0
C312 C 0.70544 0.94156 0.39728 0.0
C313 C 0.72543 0.92992 0.35373 0.0
C314 C 0.72293 0.95488 0.35227 0.0
C315 C 0.70913 0.86374 0.33516 0.0
O316 O 0.73255 0.86918 0.33262 0.0
H317 H 0.69572 0.94102 0.42102 0.0
H318 H 0.73472 0.91858 0.33561 0.0
O319 O 0.69839 0.88789 0.44061 0.0
H320 H 0.80313 0.88855 0.4254 0.0
H321 H 0.72944 0.9667 0.33226 0.0
Cu322 Cu 0.13702 0.71108 0.41032 0.0
N323 N 0.14028 0.74452 0.40184 0.0
N324 N 0.15836 0.7807 0.39334 0.0
C325 C 0.16147 0.7572 0.40268 0.0
C326 C 0.13423 0.78291 0.38656 0.0
C327 C 0.12314 0.7605 0.39155 0.0
O328 O 0.15815 0.69493 0.37785 0.0
C329 C 0.14627 0.71948 0.47973 0.0
O330 O 0.14114 0.74215 0.47172 0.0
H331 H 0.17875 0.74929 0.41035 0.0
H332 H 0.10405 0.75612 0.38726 0.0
N333 N 0.10465 0.70112 0.4032 0.0
N334 N 0.06367 0.7004 0.40312 0.0
C335 C 0.08406 0.71206 0.41402 0.0
C336 C 0.09708 0.68164 0.38542 0.0
C337 C 0.0718 0.68113 0.38536 0.0
C338 C 0.15477 0.6995 0.34671 0.0
O339 O 0.13678 0.71413 0.33813 0.0
H340 H 0.08408 0.72825 0.42955 0.0
H341 H 0.10913 0.66895 0.37291 0.0
O342 O 0.14584 0.7032 0.45689 0.0
H343 H 0.12535 0.79941 0.37788 0.0
H344 H 0.06027 0.66806 0.37238 0.0
Cu345 Cu 0.28329 0.12469 0.40231 0.0
N346 N 0.25079 0.13502 0.40273 0.0
N347 N 0.21695 0.15771 0.40266 0.0
C348 C 0.24174 0.15786 0.40291 0.0
C349 C 0.21023 0.134 0.40223 0.0
C350 C 0.23113 0.12006 0.40247 0.0
O351 O 0.3035 0.14514 0.37269 0.0
C352 C 0.2932 0.13955 0.47029 0.0
O353 O 0.28632 0.16135 0.46026 0.0
H354 H 0.25305 0.17415 0.40252 0.0
H355 H 0.23198 0.10034 0.40235 0.0
N356 N 0.28303 0.09319 0.38483 0.0
N357 N 0.28505 0.05263 0.38124 0.0
C358 C 0.28979 0.0724 0.40038 0.0
C359 C 0.27393 0.08632 0.35484 0.0
C360 C 0.27526 0.06132 0.35248 0.0
C361 C 0.29545 0.15112 0.34367 0.0
O362 O 0.27287 0.14505 0.33561 0.0
H363 H 0.29744 0.0717 0.42549 0.0
H364 H 0.26638 0.09855 0.33621 0.0
O365 O 0.29464 0.12245 0.44877 0.0
H366 H 0.19152 0.12726 0.40206 0.0
H367 H 0.26968 0.0504 0.33115 0.0
Cu368 Cu 0.64327 0.80369 0.89083 0.0
N369 N 0.65613 0.77271 0.88377 0.0
N370 N 0.68011 0.73996 0.88811 0.0
C371 C 0.67525 0.76251 0.89987 0.0
C372 C 0.66325 0.73573 0.86398 0.0
C373 C 0.64855 0.756 0.86126 0.0
O374 O 0.66124 0.82542 0.86056 0.0
C375 C 0.63623 0.8264 0.95659 0.0
O376 O 0.62161 0.84212 0.94178 0.0
H377 H 0.68546 0.7715 0.91967 0.0
H378 H 0.63329 0.75824 0.84424 0.0
N379 N 0.61058 0.80286 0.87688 0.0
N380 N 0.56972 0.80226 0.87439 0.0
C381 C 0.58954 0.80432 0.8946 0.0
C382 C 0.60371 0.80011 0.8446 0.0
C383 C 0.57855 0.79973 0.84297 0.0
C384 C 0.6514 0.84383 0.84645 0.0
O385 O 0.62976 0.85107 0.85689 0.0
H386 H 0.58871 0.80667 0.92158 0.0
H387 H 0.61626 0.79869 0.82364 0.0
O388 O 0.64696 0.81033 0.9389 0.0
H389 H 0.66123 0.71896 0.84992 0.0
H390 H 0.56757 0.79836 0.82037 0.0
Cu391 Cu 0.23219 0.63599 0.91032 0.0
N392 N 0.26567 0.64046 0.90344 0.0
N393 N 0.30241 0.65831 0.89838 0.0
C394 C 0.27872 0.66115 0.90752 0.0
C395 C 0.30421 0.63496 0.88798 0.0
C396 C 0.28155 0.62399 0.89123 0.0
O397 O 0.21549 0.6601 0.88236 0.0
C398 C 0.21043 0.62743 0.97589 0.0
O399 O 0.19551 0.61219 0.96058 0.0
H400 H 0.27089 0.67801 0.91659 0.0
H401 H 0.2768 0.60549 0.88426 0.0
N402 N 0.22448 0.60516 0.89333 0.0
N403 N 0.22452 0.56511 0.8838 0.0
C404 C 0.22797 0.58282 0.90688 0.0
C405 C 0.21896 0.60124 0.86077 0.0
C406 C 0.21889 0.57661 0.85487 0.0
C407 C 0.19396 0.65644 0.87089 0.0
O408 O 0.18098 0.63803 0.8827 0.0
H409 H 0.23464 0.5797 0.93216 0.0
H410 H 0.21677 0.6154 0.84203 0.0
O411 O 0.22611 0.63934 0.95854 0.0
H412 H 0.32042 0.62666 0.87739 0.0
H413 H 0.21625 0.5678 0.8308 0.0
Cu414 Cu 0.37761 0.20109 0.90487 0.0
N415 N 0.37781 0.23468 0.89762 0.0
N416 N 0.3643 0.27293 0.89277 0.0
C417 C 0.35841 0.2496 0.90049 0.0
C418 C 0.38842 0.27264 0.88505 0.0
C419 C 0.39662 0.24899 0.88772 0.0
O420 O 0.35819 0.18734 0.86826 0.0
C421 C 0.37115 0.17772 0.96854 0.0
O422 O 0.38518 0.16076 0.95554 0.0
H423 H 0.34025 0.24335 0.90757 0.0
H424 H 0.415 0.24276 0.88255 0.0
N425 N 0.40996 0.18992 0.90239 0.0
N426 N 0.45089 0.19013 0.90585 0.0
C427 C 0.42987 0.20086 0.91573 0.0
C428 C 0.41869 0.17143 0.88375 0.0
C429 C 0.44393 0.17152 0.88584 0.0
C430 C 0.35457 0.1647 0.86319 0.0
O431 O 0.36228 0.14887 0.88568 0.0
H432 H 0.42902 0.21721 0.93089 0.0
H433 H 0.40769 0.15962 0.86806 0.0
O434 O 0.36468 0.19563 0.95011 0.0
H435 H 0.39953 0.28837 0.87851 0.0
H436 H 0.45621 0.16002 0.87162 0.0
Cu437 Cu 0.81365 0.38305 0.9115 0.0
N438 N 0.77943 0.38015 0.91077 0.0
N439 N 0.74152 0.36454 0.91231 0.0
C440 C 0.76573 0.35956 0.91087 0.0
C441 C 0.7399 0.38909 0.9123 0.0
C442 C 0.76326 0.39864 0.91135 0.0
O443 O 0.82775 0.35983 0.8802 0.0
C444 C 0.81746 0.36267 0.97788 0.0
O445 O 0.80121 0.34661 0.96746 0.0
H446 H 0.77333 0.34134 0.91079 0.0
H447 H 0.76801 0.41779 0.91129 0.0
N448 N 0.82237 0.41473 0.89846 0.0
N449 N 0.82327 0.45552 0.89706 0.0
C450 C 0.81553 0.43544 0.91387 0.0
C451 C 0.83552 0.4219 0.8715 0.0
C452 C 0.83612 0.44709 0.87058 0.0
C453 C 0.82094 0.36008 0.84954 0.0
O454 O 0.80433 0.37599 0.84004 0.0
H455 H 0.80482 0.43571 0.93678 0.0
H456 H 0.84363 0.40971 0.85334 0.0
O457 O 0.82552 0.37868 0.95733 0.0
H458 H 0.72302 0.39939 0.91286 0.0
H459 H 0.8445 0.45832 0.85124 0.0
Cu460 Cu 0.61771 0.23596 0.18562 0.0
N461 N 0.63104 0.26711 0.1924 0.0
N462 N 0.65754 0.29801 0.19834 0.0
C463 C 0.65484 0.27394 0.19186 0.0
C464 C 0.6347 0.30661 0.20307 0.0
C465 C 0.61839 0.28758 0.19911 0.0
O466 O 0.634 0.21245 0.21506 0.0
C467 C 0.61555 0.20864 0.12352 0.0
O468 O 0.60693 0.19049 0.14177 0.0
H469 H 0.66984 0.2615 0.18734 0.0
H470 H 0.59865 0.28867 0.20088 0.0
N471 N 0.58459 0.2368 0.198 0.0
N472 N 0.54378 0.23304 0.1991 0.0
C473 C 0.56453 0.22857 0.18158 0.0
C474 C 0.57615 0.24635 0.22689 0.0
C475 C 0.55107 0.24406 0.22765 0.0
C476 C 0.63773 0.21799 0.24578 0.0
O477 O 0.63189 0.23997 0.25602 0.0
H478 H 0.56506 0.21968 0.15733 0.0
H479 H 0.58746 0.25454 0.24614 0.0
O480 O 0.62127 0.22861 0.1379 0.0
H481 H 0.63015 0.3254 0.20855 0.0
H482 H 0.53915 0.2496 0.24798 0.0
Cu483 Cu 0.81327 0.61963 0.21068 0.0
N484 N 0.7806 0.62949 0.20967 0.0
N485 N 0.74636 0.65162 0.20697 0.0
C486 C 0.77112 0.65218 0.20891 0.0
C487 C 0.7402 0.62773 0.20595 0.0
C488 C 0.7613 0.61419 0.20773 0.0
O489 O 0.83237 0.63928 0.2423 0.0
C490 C 0.82699 0.64072 0.14817 0.0
O491 O 0.82218 0.66127 0.16372 0.0
H492 H 0.78211 0.66869 0.20954 0.0
H493 H 0.76258 0.5945 0.2068 0.0
N494 N 0.81352 0.5873 0.22561 0.0
N495 N 0.8157 0.5466 0.22672 0.0
C496 C 0.81983 0.56709 0.20846 0.0
C497 C 0.80514 0.57931 0.25553 0.0
C498 C 0.8064 0.55423 0.25626 0.0
C499 C 0.82336 0.64568 0.27053 0.0
O500 O 0.80037 0.6402 0.2772 0.0
H501 H 0.82649 0.56737 0.18282 0.0
H502 H 0.79804 0.5909 0.27516 0.0
O503 O 0.8256 0.62082 0.1647 0.0
H504 H 0.72184 0.62051 0.20271 0.0
H505 H 0.80088 0.54246 0.27689 0.0
Cu506 Cu 0.39814 0.80384 0.18615 0.0
N507 N 0.39499 0.77108 0.19837 0.0
N508 N 0.37779 0.73429 0.20443 0.0
C509 C 0.37474 0.75742 0.19356 0.0
C510 C 0.40081 0.7334 0.21686 0.0
C511 C 0.4114 0.7562 0.2131 0.0
O512 O 0.37625 0.82202 0.21501 0.0
C513 C 0.40037 0.79126 0.11944 0.0
O514 O 0.41453 0.77462 0.13312 0.0
H515 H 0.35817 0.76427 0.18194 0.0
H516 H 0.42967 0.76157 0.22078 0.0
N517 N 0.43011 0.81522 0.19255 0.0
N518 N 0.47096 0.81845 0.19136 0.0
C519 C 0.45132 0.80414 0.18463 0.0
C520 C 0.43653 0.83721 0.20478 0.0
C521 C 0.46173 0.83922 0.20425 0.0
C522 C 0.37905 0.8193 0.2466 0.0
O523 O 0.39678 0.80511 0.25739 0.0
H524 H 0.45239 0.78603 0.17397 0.0
H525 H 0.42373 0.8508 0.21355 0.0
O526 O 0.39032 0.80688 0.13857 0.0
H527 H 0.4092 0.71759 0.22841 0.0
H528 H 0.47242 0.8545 0.21348 0.0
Cu529 Cu 0.21991 0.38753 0.17839 0.0
N530 N 0.25333 0.38341 0.18681 0.0
N531 N 0.28918 0.36384 0.18966 0.0
C532 C 0.26642 0.36411 0.1763 0.0
C533 C 0.29042 0.38387 0.20931 0.0
C534 C 0.26826 0.39589 0.20755 0.0
O535 O 0.20055 0.37281 0.21444 0.0
C536 C 0.22332 0.38775 0.11045 0.0
O537 O 0.23689 0.40662 0.119 0.0
H538 H 0.25861 0.34957 0.1613 0.0
H539 H 0.263 0.41175 0.22188 0.0
N540 N 0.21055 0.42019 0.17664 0.0
N541 N 0.20952 0.46085 0.17495 0.0
C542 C 0.22338 0.441 0.18135 0.0
C543 C 0.18793 0.42721 0.16729 0.0
C544 C 0.1872 0.45226 0.16632 0.0
C545 C 0.20927 0.3583 0.23646 0.0
O546 O 0.23172 0.35014 0.23294 0.0
H547 H 0.24248 0.44168 0.18862 0.0
H548 H 0.17304 0.41482 0.16137 0.0
O549 O 0.21347 0.37486 0.1336 0.0
H550 H 0.30587 0.38894 0.22493 0.0
H551 H 0.17135 0.46332 0.16047 0.0
Cu552 Cu 0.37109 0.21104 0.17474 0.0
N553 N 0.36953 0.24453 0.18351 0.0
N554 N 0.35541 0.28261 0.18824 0.0
C555 C 0.35137 0.2601 0.17545 0.0
C556 C 0.37683 0.28105 0.20505 0.0
C557 C 0.38547 0.25759 0.20211 0.0
O558 O 0.35071 0.19426 0.20815 0.0
C559 C 0.3648 0.18416 0.11478 0.0
O560 O 0.37277 0.16621 0.13379 0.0
H561 H 0.335 0.25471 0.16191 0.0
H562 H 0.40183 0.25037 0.21375 0.0
N563 N 0.40352 0.20073 0.17969 0.0
N564 N 0.44447 0.20146 0.18178 0.0
C565 C 0.424 0.21368 0.17291 0.0
C566 C 0.41129 0.17938 0.19259 0.0
C567 C 0.43656 0.17976 0.19385 0.0
C568 C 0.35681 0.19592 0.23906 0.0
O569 O 0.37656 0.20855 0.24676 0.0
H570 H 0.42382 0.23187 0.16221 0.0
H571 H 0.39935 0.16487 0.20139 0.0
O572 O 0.36138 0.20494 0.12824 0.0
H573 H 0.38539 0.2957 0.21907 0.0
H574 H 0.44817 0.16565 0.20429 0.0
Cu575 Cu 0.81517 0.37425 0.18907 0.0
N576 N 0.78186 0.37329 0.19977 0.0
N577 N 0.7436 0.35869 0.20435 0.0
C578 C 0.76669 0.35436 0.19359 0.0
C579 C 0.74448 0.38115 0.21821 0.0
C580 C 0.76809 0.39009 0.21542 0.0
O581 O 0.83164 0.35128 0.21867 0.0
C582 C 0.83429 0.37378 0.12198 0.0
O583 O 0.85144 0.3882 0.13406 0.0
H584 H 0.77279 0.33752 0.18231 0.0
H585 H 0.77473 0.40744 0.22461 0.0
N586 N 0.82864 0.40531 0.19614 0.0
N587 N 0.83394 0.44563 0.20072 0.0
C588 C 0.81818 0.42743 0.19272 0.0
C589 C 0.8517 0.40972 0.20664 0.0
C590 C 0.85502 0.43455 0.20954 0.0
C591 C 0.82997 0.3545 0.2503 0.0
O592 O 0.8175 0.37332 0.26132 0.0
H593 H 0.79941 0.4302 0.18477 0.0
H594 H 0.86504 0.39575 0.21233 0.0
O595 O 0.81802 0.36524 0.14186 0.0
H596 H 0.72915 0.39053 0.22953 0.0
H597 H 0.87134 0.4437 0.21873 0.0
Cu598 Cu 0.64523 0.79225 0.16572 0.0
N599 N 0.65622 0.76016 0.16635 0.0
N600 N 0.67692 0.72603 0.17684 0.0
C601 C 0.6771 0.75063 0.17883 0.0
C602 C 0.65541 0.71992 0.16239 0.0
C603 C 0.64271 0.74101 0.15588 0.0
O604 O 0.66515 0.81109 0.19752 0.0
C605 C 0.63823 0.82111 0.10399 0.0
O606 O 0.62619 0.83724 0.12184 0.0
H607 H 0.69168 0.76134 0.19005 0.0
H608 H 0.62459 0.74237 0.14497 0.0
N609 N 0.61306 0.79025 0.1818 0.0
N610 N 0.57265 0.79292 0.19012 0.0
C611 C 0.59172 0.79931 0.17008 0.0
C612 C 0.60718 0.77773 0.20986 0.0
C613 C 0.58236 0.7793 0.21503 0.0
C614 C 0.65559 0.82556 0.21886 0.0
O615 O 0.63205 0.83032 0.21676 0.0
H616 H 0.59012 0.80992 0.14721 0.0
H617 H 0.62022 0.76814 0.22552 0.0
O618 O 0.64736 0.80253 0.11861 0.0
H619 H 0.64931 0.70148 0.15715 0.0
H620 H 0.57222 0.77135 0.23582 0.0
Cu621 Cu 0.23524 0.6341 0.18784 0.0
N622 N 0.26844 0.63994 0.19588 0.0
N623 N 0.3048 0.65853 0.2008 0.0
C624 C 0.28103 0.66094 0.19173 0.0
C625 C 0.3071 0.6352 0.2113 0.0
C626 C 0.28468 0.62377 0.20811 0.0
O627 O 0.21532 0.65541 0.21593 0.0
C628 C 0.21191 0.62824 0.12335 0.0
O629 O 0.19571 0.61495 0.1398 0.0
H630 H 0.27292 0.67763 0.18234 0.0
H631 H 0.28037 0.60507 0.21483 0.0
N632 N 0.22842 0.60217 0.20144 0.0
N633 N 0.22492 0.56162 0.20298 0.0
C634 C 0.23052 0.58131 0.18387 0.0
C635 C 0.22136 0.59536 0.23255 0.0
C636 C 0.21925 0.57038 0.2336 0.0
C637 C 0.22152 0.65896 0.24647 0.0
O638 O 0.2424 0.64992 0.25719 0.0
H639 H 0.23634 0.58058 0.15786 0.0
H640 H 0.21799 0.60767 0.25317 0.0
O641 O 0.22932 0.63835 0.13965 0.0
H642 H 0.32358 0.62714 0.22158 0.0
H643 H 0.21356 0.55947 0.25501 0.0
Cu644 Cu 0.39547 0.80349 0.90667 0.0
N645 N 0.39284 0.77051 0.89559 0.0
N646 N 0.37572 0.7336 0.89127 0.0
C647 C 0.37317 0.75654 0.90278 0.0
C648 C 0.39779 0.73309 0.87597 0.0
C649 C 0.40832 0.75598 0.87856 0.0
O650 O 0.37338 0.82084 0.87688 0.0
C651 C 0.3998 0.79233 0.9732 0.0
O652 O 0.4155 0.77731 0.95929 0.0
H653 H 0.35722 0.76315 0.9161 0.0
H654 H 0.42568 0.76173 0.86798 0.0
N655 N 0.42712 0.81565 0.90014 0.0
N656 N 0.46781 0.81911 0.89628 0.0
C657 C 0.44869 0.8038 0.90144 0.0
C658 C 0.43285 0.83922 0.89438 0.0
C659 C 0.45797 0.84143 0.89202 0.0
C660 C 0.3774 0.81804 0.84556 0.0
O661 O 0.39623 0.80475 0.83642 0.0
H662 H 0.45039 0.78448 0.90664 0.0
H663 H 0.41961 0.85377 0.89206 0.0
O664 O 0.38777 0.80668 0.95418 0.0
H665 H 0.40538 0.71756 0.86288 0.0
H666 H 0.4682 0.85802 0.88689 0.0
Cu667 Cu 0.23594 0.39051 0.90187 0.0
N668 N 0.2681 0.37952 0.90198 0.0
N669 N 0.30119 0.35603 0.89893 0.0
C670 C 0.27648 0.35648 0.90052 0.0
C671 C 0.30862 0.37952 0.89976 0.0
C672 C 0.28813 0.39398 0.90168 0.0
O673 O 0.21597 0.37036 0.87244 0.0
C674 C 0.22262 0.37253 0.9663 0.0
O675 O 0.22752 0.35109 0.95329 0.0
H676 H 0.26476 0.34047 0.89973 0.0
H677 H 0.2878 0.41372 0.90236 0.0
N678 N 0.23685 0.42181 0.88366 0.0
N679 N 0.23704 0.46223 0.87672 0.0
C680 C 0.23479 0.44361 0.89895 0.0
C681 C 0.24067 0.42676 0.85095 0.0
C682 C 0.24073 0.45162 0.84656 0.0
C683 C 0.19743 0.37967 0.85788 0.0
O684 O 0.19039 0.40173 0.86625 0.0
H685 H 0.23226 0.44569 0.92577 0.0
H686 H 0.2432 0.41312 0.83167 0.0
O687 O 0.22407 0.39144 0.94768 0.0
H688 H 0.32751 0.38572 0.89906 0.0
H689 H 0.24306 0.46118 0.82289 0.0
Cu690 Cu 0.6215 0.23596 0.9145 0.0
N691 N 0.63339 0.26792 0.91168 0.0
N692 N 0.65826 0.30043 0.9131 0.0
C693 C 0.65688 0.27582 0.91138 0.0
C694 C 0.63485 0.30824 0.91407 0.0
C695 C 0.61962 0.28819 0.9135 0.0
O696 O 0.63956 0.21572 0.88222 0.0
C697 C 0.61893 0.20707 0.97626 0.0
O698 O 0.61011 0.18901 0.95821 0.0
H699 H 0.67258 0.2638 0.91132 0.0
H700 H 0.59983 0.28839 0.91534 0.0
N701 N 0.58821 0.23697 0.90299 0.0
N702 N 0.54788 0.22994 0.90027 0.0
C703 C 0.56901 0.22482 0.91655 0.0
C704 C 0.57885 0.2501 0.87739 0.0
C705 C 0.55399 0.24593 0.87578 0.0
C706 C 0.62859 0.20311 0.85977 0.0
O707 O 0.60459 0.20125 0.86071 0.0
H708 H 0.57042 0.21254 0.9378 0.0
H709 H 0.58952 0.26163 0.8607 0.0
O710 O 0.62531 0.22683 0.96167 0.0
H711 H 0.62915 0.32711 0.91545 0.0
H712 H 0.54145 0.2535 0.85744 0.0
Cu713 Cu 0.80868 0.62713 0.93982 0.0
N714 N 0.77998 0.64468 0.94645 0.0
N715 N 0.7488 0.67044 0.93975 0.0
C716 C 0.77015 0.66219 0.92691 0.0
C717 C 0.74527 0.65776 0.96852 0.0
C718 C 0.7645 0.64183 0.9725 0.0
O719 O 0.82873 0.64404 0.90618 0.0
C720 C 0.82708 0.6437 1.00155 0.0
O721 O 0.82278 0.66502 0.98753 0.0
H722 H 0.77865 0.66891 0.90407 0.0
H723 H 0.76702 0.62894 0.99288 0.0
N724 N 0.79945 0.59619 0.92483 0.0
N725 N 0.79802 0.55615 0.91468 0.0
C726 C 0.8115 0.57481 0.92718 0.0
C727 C 0.77784 0.59086 0.91018 0.0
C728 C 0.77695 0.56625 0.90371 0.0
C729 C 0.8237 0.64254 0.8749 0.0
O730 O 0.80543 0.62845 0.86538 0.0
H731 H 0.8295 0.57289 0.93835 0.0
H732 H 0.76371 0.60406 0.90459 0.0
O733 O 0.82408 0.62456 0.9839 0.0
H734 H 0.72967 0.65959 0.98515 0.0
H735 H 0.76209 0.55659 0.89146 0.0
C736 C 0.17952 0.17774 0.382 0.0
C737 C 0.20066 0.17827 0.40223 0.0
C738 C 0.16281 0.19707 0.38214 0.0
C739 C 0.16653 0.21761 0.40269 0.0
H740 H 0.17598 0.16229 0.36577 0.0
H741 H 0.14695 0.19601 0.36583 0.0
S742 S 0.21813 0.22686 0.46233 0.0
N743 N 0.22398 0.20039 0.44436 0.0
N744 N 0.19239 0.23664 0.44516 0.0
C745 C 0.18754 0.21825 0.42328 0.0
C746 C 0.20465 0.19861 0.42292 0.0
C747 C 0.80078 0.16443 0.37115 0.0
C748 C 0.78231 0.16605 0.39587 0.0
C749 C 0.8219 0.17903 0.37258 0.0
C750 C 0.82515 0.19615 0.39832 0.0
H751 H 0.79897 0.15175 0.3505 0.0
H752 H 0.83588 0.17696 0.35345 0.0
S753 S 0.78341 0.20726 0.46995 0.0
N754 N 0.76955 0.18574 0.44788 0.0
N755 N 0.80893 0.21385 0.44937 0.0
C756 C 0.8069 0.19836 0.4229 0.0
C757 C 0.78554 0.18317 0.42195 0.0
C758 C 0.82743 0.81983 0.45686 0.0
C759 C 0.83199 0.80102 0.43365 0.0
C760 C 0.80988 0.83779 0.45047 0.0
C761 C 0.79588 0.83753 0.42087 0.0
H762 H 0.83784 0.82095 0.47998 0.0
H763 H 0.80743 0.85226 0.46864 0.0
S764 S 0.79976 0.7922 0.35229 0.0
N765 N 0.8205 0.78315 0.37989 0.0
N766 N 0.78693 0.81675 0.36853 0.0
C767 C 0.79935 0.81838 0.39804 0.0
C768 C 0.81752 0.80014 0.40429 0.0
C769 C 0.17113 0.82373 0.40025 0.0
C770 C 0.17682 0.79958 0.39127 0.0
C771 C 0.18901 0.84224 0.39929 0.0
C772 C 0.21322 0.8372 0.38948 0.0
H773 H 0.15284 0.82824 0.40875 0.0
H774 H 0.18405 0.8605 0.40701 0.0
S775 S 0.2368 0.77781 0.35938 0.0
N776 N 0.20787 0.77223 0.36921 0.0
N777 N 0.24149 0.80695 0.36789 0.0
C778 C 0.219 0.81334 0.37953 0.0
C779 C 0.2008 0.79454 0.38031 0.0
C780 C 0.17668 0.82602 0.72316 0.0
C781 C 0.17454 0.80869 0.69722 0.0
C782 C 0.19491 0.84419 0.72232 0.0
C783 C 0.21182 0.8456 0.69567 0.0
H784 H 0.16457 0.82519 0.7447 0.0
H785 H 0.19619 0.85689 0.74306 0.0
S786 S 0.21257 0.80662 0.61977 0.0
N787 N 0.18972 0.79563 0.64264 0.0
N788 N 0.22425 0.82946 0.64162 0.0
C789 C 0.20957 0.82885 0.66922 0.0
C790 C 0.19088 0.81049 0.66986 0.0
C791 C 0.1791 0.19111 0.66326 0.0
C792 C 0.20132 0.19045 0.68135 0.0
C793 C 0.16291 0.21069 0.66631 0.0
C794 C 0.1685 0.23061 0.687 0.0
H795 H 0.17399 0.17625 0.64679 0.0
H796 H 0.14579 0.21028 0.65249 0.0
S797 S 0.2239 0.23836 0.7397 0.0
N798 N 0.22779 0.21173 0.72112 0.0
N799 N 0.19753 0.24901 0.72559 0.0
C800 C 0.19084 0.23074 0.70444 0.0
C801 C 0.20725 0.21056 0.70187 0.0
C802 C 0.8046 0.16777 0.71102 0.0
C803 C 0.78228 0.17354 0.69517 0.0
C804 C 0.82474 0.18367 0.70948 0.0
C805 C 0.8233 0.20606 0.6923 0.0
H806 H 0.80663 0.15059 0.72426 0.0
H807 H 0.84174 0.17829 0.72142 0.0
S808 S 0.76938 0.22984 0.64618 0.0
N809 N 0.76006 0.20327 0.66145 0.0
N810 N 0.79796 0.23337 0.65913 0.0
C811 C 0.80097 0.21247 0.67715 0.0
C812 C 0.78043 0.19617 0.67846 0.0
C813 C 0.82271 0.81604 0.71564 0.0
C814 C 0.8339 0.79905 0.69418 0.0
C815 C 0.80484 0.83222 0.70361 0.0
C816 C 0.79788 0.83225 0.66957 0.0
H817 H 0.82781 0.81678 0.74193 0.0
H818 H 0.79686 0.84522 0.72083 0.0
S819 S 0.82138 0.79114 0.60318 0.0
N820 N 0.83657 0.78307 0.63736 0.0
N821 N 0.80292 0.81338 0.61482 0.0
C822 C 0.80873 0.81517 0.64794 0.0
C823 C 0.82673 0.79856 0.66024 0.0
C824 C 0.70346 0.72175 0.93491 0.0
C825 C 0.69845 0.7233 0.90029 0.0
C826 C 0.72017 0.70465 0.94751 0.0
C827 C 0.73269 0.68867 0.92594 0.0
H828 H 0.69391 0.73339 0.95246 0.0
H829 H 0.72328 0.70388 0.97438 0.0
S830 S 0.72698 0.68625 0.83305 0.0
N831 N 0.70816 0.70824 0.84446 0.0
N832 N 0.73924 0.67579 0.8682 0.0
C833 C 0.72828 0.69042 0.89119 0.0
C834 C 0.71119 0.70778 0.87837 0.0
C835 C 0.31488 0.70126 0.88963 0.0
C836 C 0.32117 0.67696 0.89719 0.0
C837 C 0.3328 0.71963 0.88776 0.0
C838 C 0.3577 0.71438 0.89315 0.0
H839 H 0.296 0.70607 0.88456 0.0
H840 H 0.3272 0.73804 0.88153 0.0
S841 S 0.38367 0.65432 0.9166 0.0
N842 N 0.35398 0.64903 0.91227 0.0
N843 N 0.38769 0.68361 0.9081 0.0
C844 C 0.36428 0.6903 0.90107 0.0
C845 C 0.34601 0.67158 0.90326 0.0
C846 C 0.32875 0.29472 0.91661 0.0
C847 C 0.34816 0.29371 0.89325 0.0
C848 C 0.31313 0.31495 0.91795 0.0
C849 C 0.31657 0.33495 0.89626 0.0
H850 H 0.32589 0.27999 0.93442 0.0
H851 H 0.29864 0.31528 0.93658 0.0
S852 S 0.36254 0.34036 0.82806 0.0
N853 N 0.3683 0.31371 0.84585 0.0
N854 N 0.33936 0.35197 0.84927 0.0
C855 C 0.33544 0.33401 0.87235 0.0
C856 C 0.35115 0.31334 0.87063 0.0
C857 C 0.7003 0.31081 0.89423 0.0
C858 C 0.67998 0.31544 0.91504 0.0
C859 C 0.72075 0.32658 0.894 0.0
C860 C 0.72144 0.34744 0.91454 0.0
H861 H 0.70001 0.29539 0.87729 0.0
H862 H 0.73574 0.32293 0.87691 0.0
S863 S 0.6748 0.36519 0.97761 0.0
N864 N 0.66319 0.34062 0.95954 0.0
N865 N 0.70143 0.37019 0.95897 0.0
C866 C 0.70179 0.3515 0.93662 0.0
C867 C 0.6811 0.33551 0.9369 0.0
C868 C 0.68336 0.32875 0.22645 0.0
C869 C 0.67989 0.31202 0.20019 0.0
C870 C 0.70433 0.34362 0.22784 0.0
C871 C 0.72254 0.34257 0.20275 0.0
H872 H 0.66973 0.33028 0.24613 0.0
H873 H 0.7063 0.35599 0.24883 0.0
S874 S 0.721 0.30283 0.12724 0.0
N875 N 0.69575 0.2956 0.14804 0.0
N876 N 0.7349 0.32401 0.14985 0.0
C877 C 0.71915 0.32592 0.17617 0.0
C878 C 0.69789 0.31054 0.17508 0.0
C879 C 0.73656 0.69253 0.184 0.0
C880 C 0.72985 0.67195 0.20338 0.0
C881 C 0.71949 0.71096 0.17671 0.0
C882 C 0.69523 0.70925 0.18841 0.0
H883 H 0.75473 0.69382 0.17312 0.0
H884 H 0.72488 0.72599 0.1605 0.0
S885 S 0.66964 0.66154 0.2447 0.0
N886 N 0.69817 0.65287 0.23779 0.0
N887 N 0.66608 0.68714 0.22322 0.0
C888 C 0.68874 0.6896 0.20933 0.0
C889 C 0.70606 0.67104 0.21704 0.0
C890 C 0.31717 0.7015 0.20925 0.0
C891 C 0.32339 0.67734 0.20111 0.0
C892 C 0.33504 0.71998 0.21033 0.0
C893 C 0.35981 0.71497 0.20343 0.0
H894 H 0.2984 0.70608 0.21538 0.0
H895 H 0.32951 0.73827 0.21709 0.0
S896 S 0.3853 0.65533 0.17752 0.0
N897 N 0.35583 0.64981 0.18372 0.0
N898 N 0.38942 0.68454 0.18609 0.0
C899 C 0.36625 0.69101 0.19475 0.0
C900 C 0.34804 0.67221 0.1935 0.0
C901 C 0.32064 0.33797 0.21655 0.0
C902 C 0.30662 0.34412 0.18806 0.0
C903 C 0.33662 0.31802 0.21627 0.0
C904 C 0.33919 0.30332 0.18755 0.0
H905 H 0.31878 0.34824 0.23959 0.0
H906 H 0.34663 0.3137 0.23902 0.0
S907 S 0.30852 0.31296 0.10538 0.0
N908 N 0.2977 0.33488 0.12954 0.0
N909 N 0.3276 0.29719 0.12922 0.0
C910 C 0.3257 0.30951 0.15866 0.0
C911 C 0.30948 0.32994 0.15887 0.0
C912 C 1.00612 0.2737 0.41099 0.0
C913 C 0.98539 0.28874 0.40837 0.0
C914 C 0.02984 0.28361 0.41112 0.0
C915 C 0.03368 0.30893 0.40805 0.0
H916 H 1.00391 0.25404 0.41188 0.0
H917 H 0.04529 0.27128 0.41177 0.0
S918 S 0.98549 0.35627 0.40272 0.0
N919 N 0.9701 0.33022 0.40456 0.0
N920 N 0.01483 0.34894 0.40453 0.0
C921 C 0.01309 0.32425 0.40681 0.0
C922 C 0.98889 0.31414 0.40713 0.0
C923 C 0.67215 0.01599 0.40487 0.0
C924 C 0.68798 0.0359 0.39868 0.0
C925 C 0.67989 0.99185 0.39986 0.0
C926 C 0.7036 0.98681 0.38792 0.0
H927 H 0.65355 0.01917 0.4133 0.0
H928 H 0.66699 0.97707 0.40421 0.0
S929 S 0.75245 0.03222 0.36909 0.0
N930 N 0.72872 0.04877 0.38074 0.0
N931 N 0.74326 1.0035 0.37176 0.0
C932 C 0.7198 1.00647 0.38246 0.0
C933 C 0.71201 0.03099 0.38777 0.0
C934 C 0.01994 0.68995 0.41154 0.0
C935 C 0.03846 0.70769 0.40714 0.0
C936 C 0.9951 0.6965 0.41316 0.0
C937 C 0.98789 0.721 0.40992 0.0
H938 H 0.02472 0.67083 0.41343 0.0
H939 H 0.98139 0.68225 0.41578 0.0
S940 S 0.02916 0.77454 0.39929 0.0
N941 N 0.0478 0.75089 0.40036 0.0
N942 N 1.00123 0.76318 0.40384 0.0
C943 C 1.00624 0.73897 0.40636 0.0
C944 C 0.0315 0.73233 0.40491 0.0
C945 C 0.31883 0.99663 0.40923 0.0
C946 C 0.30278 0.97766 0.39979 0.0
C947 C 0.31253 0.02117 0.40429 0.0
C948 C 0.29014 0.02754 0.38921 0.0
H949 H 0.33655 0.9924 0.42001 0.0
H950 H 0.32564 0.03522 0.41109 0.0
S951 S 0.24112 0.98488 0.3617 0.0
N952 N 0.26313 0.96697 0.37587 0.0
N953 N 0.25123 0.0131 0.36685 0.0
C954 C 0.2736 0.0088 0.38065 0.0
C955 C 0.27991 0.98384 0.38593 0.0
C956 C 0.03151 0.73097 0.71079 0.0
C957 C 0.03877 0.71174 0.68979 0.0
C958 C 1.00665 0.73493 0.7179 0.0
C959 C 0.98821 0.72012 0.70375 0.0
H960 H 0.04519 0.74204 0.72338 0.0
H961 H 1.0018 0.74912 0.73554 0.0
S962 S 0.99763 0.66911 0.64428 0.0
N963 N 0.02562 0.67903 0.6528 0.0
N964 N 0.97883 0.68665 0.66591 0.0
C965 C 0.99516 0.70186 0.68102 0.0
C966 C 0.02048 0.69761 0.67416 0.0
C967 C 0.27931 0.98946 0.69856 0.0
C968 C 0.30436 0.9836 0.6971 0.0
C969 C 0.27161 0.01378 0.69906 0.0
C970 C 0.28864 0.03312 0.69765 0.0
H971 H 0.26562 0.97513 0.70052 0.0
H972 H 0.25218 0.01755 0.70096 0.0
S973 S 0.35622 0.02752 0.69164 0.0
N974 N 0.34613 0.99903 0.69261 0.0
N975 N 0.33159 0.04488 0.69375 0.0
C976 C 0.31369 0.02755 0.69508 0.0
C977 C 0.32157 1.00275 0.69486 0.0
C978 C 0.00976 0.32988 0.69719 0.0
C979 C 0.03016 0.31425 0.69659 0.0
C980 C 0.98576 0.32053 0.69848 0.0
C981 C 0.98139 0.29523 0.6998 0.0
H982 H 0.01244 0.34949 0.69706 0.0
H983 H 0.97056 0.33315 0.69968 0.0
S984 S 0.0283 0.2465 0.69752 0.0
N985 N 0.04427 0.27219 0.69658 0.0
N986 N 0.99921 0.2547 0.6986 0.0
C987 C 1.00156 0.27941 0.69833 0.0
C988 C 0.02594 0.28889 0.69678 0.0
C989 C 0.71856 0.03118 0.68377 0.0
C990 C 0.69469 0.03528 0.69589 0.0
C991 C 0.72736 0.00745 0.67897 0.0
C992 C 0.71253 0.98692 0.68568 0.0
H993 H 0.73081 0.04642 0.67894 0.0
H994 H 0.74598 1.00511 0.67013 0.0
S995 S 0.64833 0.98777 0.71662 0.0
N996 N 0.65607 0.01688 0.71338 0.0
N997 N 0.67268 0.97223 0.70464 0.0
C998 C 0.68843 0.99075 0.69707 0.0
C999 C 0.67952 0.01493 0.70218 0.0
C1000 C 0.53639 0.82406 0.90316 0.0
C1001 C 0.5443 0.80443 0.88336 0.0
C1002 C 0.51129 0.82843 0.908 0.0
C1003 C 0.49338 0.81303 0.89374 0.0
H1004 H 0.54965 0.8367 0.91362 0.0
H1005 H 0.5058 0.84417 0.92251 0.0
S1006 S 0.5049 0.7582 0.84183 0.0
N1007 N 0.53253 0.76879 0.85094 0.0
N1008 N 0.48538 0.77687 0.8602 0.0
C1009 C 0.50115 0.79275 0.87514 0.0
C1010 C 0.52663 0.78851 0.86987 0.0
C1011 C 0.25016 0.50408 0.86277 0.0
C1012 C 0.23597 0.48813 0.88276 0.0
C1013 C 0.24716 0.52935 0.86454 0.0
C1014 C 0.23012 0.53967 0.88668 0.0
H1015 H 0.26323 0.49693 0.84489 0.0
H1016 H 0.2577 0.54098 0.84777 0.0
S1017 S 0.18935 0.50651 0.94571 0.0
N1018 N 0.20474 0.48476 0.92638 0.0
N1019 N 0.19969 0.53261 0.93008 0.0
C1020 C 0.21674 0.52424 0.90811 0.0
C1021 C 0.21955 0.49835 0.90611 0.0
C1022 C 0.47932 0.22527 0.90503 0.0
C1023 C 0.47533 0.20001 0.90883 0.0
C1024 C 0.50312 0.23497 0.90338 0.0
C1025 C 0.5238 0.21985 0.90596 0.0
H1026 H 0.46396 0.23749 0.90174 0.0
H1027 H 0.50541 0.25441 0.89935 0.0
S1028 S 0.52325 0.15275 0.91855 0.0
N1029 N 0.49395 0.16025 0.91699 0.0
N1030 N 0.53879 0.17853 0.91396 0.0
C1031 C 0.5201 0.19472 0.91123 0.0
C1032 C 0.49583 0.18478 0.91256 0.0
C1033 C 0.83446 0.49931 0.89812 0.0
C1034 C 0.81711 0.48061 0.90375 0.0
C1035 C 0.82839 0.52397 0.90281 0.0
C1036 C 0.80464 0.53076 0.91274 0.0
H1037 H 0.85282 0.49482 0.88988 0.0
H1038 H 0.84211 0.53785 0.89762 0.0
S1039 S 0.75269 0.48888 0.93156 0.0
N1040 N 0.77525 0.47069 0.92023 0.0
N1041 N 0.76404 0.51685 0.92951 0.0
C1042 C 0.78729 0.51224 0.91907 0.0
C1043 C 0.79348 0.4872 0.9145 0.0
C1044 C 0.48906 0.19489 0.17539 0.0
C1045 C 0.46934 0.21054 0.18258 0.0
C1046 C 0.51349 0.20272 0.17912 0.0
C1047 C 0.51897 0.22633 0.19071 0.0
H1048 H 0.48551 0.17633 0.16737 0.0
H1049 H 0.52815 0.18992 0.17437 0.0
S1050 S 0.47424 0.27475 0.21144 0.0
N1051 N 0.45713 0.25106 0.20074 0.0
N1052 N 0.50294 0.26574 0.20737 0.0
C1053 C 0.49949 0.24239 0.19687 0.0
C1054 C 0.47469 0.23452 0.19288 0.0
C1055 C 0.80243 0.50348 0.22603 0.0
C1056 C 0.81964 0.52161 0.21704 0.0
C1057 C 0.80672 0.47875 0.21928 0.0
C1058 C 0.82858 0.47124 0.20382 0.0
H1059 H 0.78562 0.50847 0.23874 0.0
H1060 H 0.7933 0.46533 0.22741 0.0
S1061 S 0.87896 0.5115 0.17381 0.0
N1062 N 0.8589 0.5304 0.19061 0.0
N1063 N 0.86704 0.48387 0.17809 0.0
C1064 C 0.84563 0.4892 0.19386 0.0
C1065 C 0.84113 0.51441 0.20036 0.0
C1066 C 0.50408 0.7882 0.19601 0.0
C1067 C 0.49643 0.812 0.1881 0.0
C1068 C 0.52896 0.78197 0.1956 0.0
C1069 C 0.54714 0.7992 0.18688 0.0
H1070 H 0.49081 0.7745 0.20372 0.0
H1071 H 0.53409 0.76357 0.20262 0.0
S1072 S 0.53656 0.86352 0.16165 0.0
N1073 N 0.50883 0.85251 0.16926 0.0
N1074 N 0.5557 0.84081 0.16886 0.0
C1075 C 0.53969 0.82282 0.1777 0.0
C1076 C 0.51432 0.82923 0.17832 0.0
C1077 C 0.22875 0.49343 0.20835 0.0
C1078 C 0.21619 0.48604 0.17926 0.0
C1079 C 0.23233 0.51824 0.21534 0.0
C1080 C 0.22387 0.53643 0.19319 0.0
H1081 H 0.23476 0.47999 0.22656 0.0
H1082 H 0.24128 0.52331 0.23862 0.0
S1083 S 0.19196 0.52638 0.1121 0.0
N1084 N 0.19685 0.49863 0.127 0.0
N1085 N 0.20364 0.54533 0.14015 0.0
C1086 C 0.21243 0.52922 0.16318 0.0
C1087 C 0.20853 0.50399 0.15625 0.0
C1088 C 0.14415 0.30692 0.52252 0.0
C1089 C 0.13633 0.32937 0.50893 0.0
C1090 C 0.14372 0.30252 0.5572 0.0
C1091 C 0.13597 0.32051 0.5799 0.0
H1092 H 0.14954 0.29209 0.50621 0.0
H1093 H 0.14893 0.28459 0.56625 0.0
S1094 S 0.11615 0.38323 0.55792 0.0
N1095 N 0.12223 0.37045 0.5213 0.0
N1096 N 0.12199 0.36225 0.58674 0.0
C1097 C 0.12955 0.34354 0.56701 0.0
C1098 C 0.12956 0.34793 0.53148 0.0
C1099 C 0.66769 0.13176 0.57444 0.0
C1100 C 0.68445 0.14962 0.58566 0.0
C1101 C 0.66384 0.12753 0.54003 0.0
C1102 C 0.67659 0.1409 0.51517 0.0
H1103 H 0.65783 0.12044 0.59235 0.0
H1104 H 0.65118 0.11313 0.53299 0.0
S1105 S 0.72126 0.19109 0.53093 0.0
N1106 N 0.71291 0.18185 0.56882 0.0
N1107 N 0.70574 0.17384 0.50436 0.0
C1108 C 0.69272 0.1595 0.52597 0.0
C1109 C 0.69662 0.16385 0.56108 0.0
C1110 C 0.90019 0.69245 0.54754 0.0
C1111 C 0.87792 0.70212 0.53548 0.0
C1112 C 0.90465 0.68965 0.58221 0.0
C1113 C 0.88713 0.69664 0.60635 0.0
H1114 H 0.91461 0.68756 0.53012 0.0
H1115 H 0.92235 0.68283 0.59012 0.0
S1116 S 0.82498 0.72088 0.58832 0.0
N1117 N 0.83742 0.71705 0.55089 0.0
N1118 N 0.84595 0.71205 0.61563 0.0
C1119 C 0.86444 0.70543 0.59465 0.0
C1120 C 0.8598 0.70807 0.55941 0.0
C1121 C 0.29834 0.85209 0.55929 0.0
C1122 C 0.3118 0.86592 0.58272 0.0
C1123 C 0.30195 0.85509 0.52456 0.0
C1124 C 0.31937 0.87184 0.51182 0.0
H1125 H 0.28424 0.83948 0.56773 0.0
H1126 H 0.29055 0.84456 0.5076 0.0
S1127 S 0.36121 0.91063 0.56284 0.0
N1128 N 0.34451 0.89569 0.59085 0.0
N1129 N 0.35149 0.90118 0.52578 0.0
C1130 C 0.33381 0.88491 0.53508 0.0
C1131 C 0.32995 0.88201 0.57043 0.0
C1132 C 0.14212 0.69003 0.52804 0.0
C1133 C 0.14986 0.7129 0.51567 0.0
C1134 C 0.14172 0.68506 0.56276 0.0
C1135 C 0.14933 0.70264 0.58647 0.0
H1136 H 0.13511 0.67632 0.51094 0.0
H1137 H 0.1345 0.66759 0.57108 0.0
S1138 S 0.17467 0.76413 0.56631 0.0
N1139 N 0.16767 0.75236 0.52939 0.0
N1140 N 0.16733 0.74304 0.59436 0.0
C1141 C 0.15874 0.72497 0.57411 0.0
C1142 C 0.15886 0.7301 0.53883 0.0
C1143 C 0.29628 0.1533 0.53054 0.0
C1144 C 0.29557 0.1341 0.50699 0.0
C1145 C 0.29497 0.14873 0.56537 0.0
C1146 C 0.29246 0.12481 0.57795 0.0
H1147 H 0.29704 0.1721 0.52203 0.0
H1148 H 0.29449 0.16412 0.58239 0.0
S1149 S 0.29243 0.0679 0.52769 0.0
N1150 N 0.29454 0.08998 0.49944 0.0
N1151 N 0.2915 0.08162 0.56455 0.0
C1152 C 0.29301 0.10542 0.55491 0.0
C1153 C 0.29474 0.10999 0.51955 0.0
C1154 C 0.89354 0.31144 0.53553 0.0
C1155 C 0.8787 0.29888 0.51231 0.0
C1156 C 0.88889 0.31005 0.57027 0.0
C1157 C 0.86896 0.29639 0.5831 0.0
H1158 H 0.90946 0.32162 0.52695 0.0
H1159 H 0.90135 0.31933 0.58723 0.0
S1160 S 0.82316 0.26207 0.53232 0.0
N1161 N 0.84235 0.27366 0.50433 0.0
N1162 N 0.83334 0.27133 0.56925 0.0
C1163 C 0.85328 0.28474 0.55991 0.0
C1164 C 0.85824 0.28588 0.52465 0.0
C1165 C 0.69496 0.84765 0.54927 0.0
C1166 C 0.69378 0.86969 0.56733 0.0
C1167 C 0.69478 0.84735 0.51399 0.0
C1168 C 0.69338 0.86907 0.49504 0.0
H1169 H 0.69713 0.83043 0.56238 0.0
H1170 H 0.69679 0.82991 0.50156 0.0
S1171 S 0.68646 0.93152 0.52994 0.0
N1172 N 0.68855 0.91373 0.56342 0.0
N1173 N 0.68817 0.91317 0.4972 0.0
C1174 C 0.69046 0.89114 0.51273 0.0
C1175 C 0.69066 0.89145 0.54878 0.0
C1176 C 0.62519 0.84078 0.04941 0.0
C1177 C 0.63958 0.82339 0.06651 0.0
C1178 C 0.6247 0.84202 1.01405 0.0
C1179 C 0.63861 0.82598 0.99411 0.0
H1180 H 0.6137 0.85322 0.06339 0.0
H1181 H 0.61286 0.8554 1.00232 0.0
S1182 S 0.6809 0.77823 1.02633 0.0
N1183 N 0.66922 0.79059 0.06051 0.0
N1184 N 0.66834 0.79294 0.99447 0.0
C1185 C 0.65372 0.80901 1.01091 0.0
C1186 C 0.65418 0.80771 1.0469 0.0
C1187 C 0.19383 0.61492 1.03249 0.0
C1188 C 0.21019 0.62937 1.01341 0.0
C1189 C 0.19418 0.61513 0.06783 0.0
C1190 C 0.21095 0.62977 0.08582 0.0
H1191 H 0.18082 0.60295 1.0201 0.0
H1192 H 0.18146 0.60328 0.08109 0.0
S1193 S 0.25688 0.67213 0.04811 0.0
N1194 N 0.24306 0.65962 1.01547 0.0
N1195 N 0.24372 0.65996 0.08163 0.0
C1196 C 0.22704 0.64478 0.0671 0.0
C1197 C 0.22665 0.64461 1.03106 0.0
C1198 C 0.35801 0.20141 0.05671 0.0
C1199 C 0.36317 0.18116 0.07749 0.0
C1200 C 0.35942 0.19982 1.02148 0.0
C1201 C 0.3662 0.17796 1.00545 0.0
H1202 H 0.35363 0.21891 0.0677 0.0
H1203 H 0.35617 0.2162 1.00682 0.0
S1204 S 0.37853 0.11877 0.04787 0.0
N1205 N 0.37303 0.13785 0.07896 0.0
N1206 N 0.37583 0.13501 1.01304 0.0
C1207 C 0.37012 0.15726 1.02579 0.0
C1208 C 0.36857 0.15882 0.06166 0.0
C1209 C 0.81413 0.35342 0.07266 0.0
C1210 C 0.83227 0.36942 0.08509 0.0
C1211 C 0.81016 0.35067 1.03801 0.0
C1212 C 0.82403 0.36392 1.0142 0.0
H1213 H 0.80243 0.34327 0.08981 0.0
H1214 H 0.79551 0.3386 1.02996 0.0
S1215 S 0.87521 0.40673 1.03325 0.0
N1216 N 0.86537 0.39756 0.07049 0.0
N1217 N 0.8578 0.39248 1.00554 0.0
C1218 C 0.84288 0.37928 1.02619 0.0
C1219 C 0.84703 0.38199 0.06152 0.0
C1220 C 0.62777 0.22614 0.06751 0.0
C1221 C 0.61756 0.20666 0.08614 0.0
C1222 C 0.62871 0.22569 1.03227 0.0
C1223 C 0.61946 0.20575 1.01381 0.0
H1224 H 0.63486 0.24217 0.08017 0.0
H1225 H 0.63643 0.24143 1.01944 0.0
S1226 S 0.59179 0.14944 0.05031 0.0
N1227 N 0.59877 0.16631 0.0833 0.0
N1228 N 0.60049 0.16549 1.01712 0.0
C1229 C 0.60977 0.18581 1.03208 0.0
C1230 C 0.60883 0.18626 0.06813 0.0
C1231 C 0.83095 0.66295 0.09317 0.0
C1232 C 0.83069 0.64066 0.11096 0.0
C1233 C 0.8311 0.66365 0.05791 0.0
C1234 C 0.83094 0.6421 1.03867 0.0
H1235 H 0.83021 0.68013 0.10652 0.0
H1236 H 0.83043 0.68135 1.04572 0.0
S1237 S 0.83307 0.57888 0.07277 0.0
N1238 N 0.83244 0.59638 0.10646 0.0
N1239 N 0.83265 0.59771 1.04025 0.0
C1240 C 0.83208 0.61966 0.05606 0.0
C1241 C 0.83196 0.61894 0.09211 0.0
C1242 C 0.40669 0.77239 1.02853 0.0
C1243 C 0.39714 0.79224 1.01033 0.0
C1244 C 0.40683 0.77213 0.06361 0.0
C1245 C 0.39748 0.79174 0.08231 0.0
H1246 H 0.41456 0.75691 1.01561 0.0
H1247 H 0.41482 0.75646 0.07608 0.0
S1248 S 0.36893 0.84763 1.04696 0.0
N1249 N 0.37689 0.83164 1.01358 0.0
N1250 N 0.3772 0.83121 0.07996 0.0
C1251 C 0.38697 0.81141 0.06458 0.0
C1252 C 0.38679 0.81164 1.02852 0.0
C1253 C 0.21943 0.39903 1.01698 0.0
C1254 C 0.21919 0.37541 1.00318 0.0
C1255 C 0.21979 0.40262 0.05174 0.0
C1256 C 0.21952 0.38281 0.07431 0.0
H1257 H 0.22035 0.41501 1.00088 0.0
H1258 H 0.22084 0.42118 0.06101 0.0
S1259 S 0.21648 0.31732 0.05173 0.0
N1260 N 0.21698 0.33177 1.01518 0.0
N1261 N 0.21731 0.33877 0.0808 0.0
C1262 C 0.21784 0.35912 0.06117 0.0
C1263 C 0.21778 0.35536 1.02554 0.0
C1264 C 0.17658 0.36905 0.27817 0.0
C1265 C 0.19545 0.35323 0.26795 0.0
C1266 C 0.16433 0.36566 0.30891 0.0
C1267 C 0.17019 0.34609 0.33042 0.0
H1268 H 0.17144 0.38445 0.26256 0.0
H1269 H 0.14985 0.37823 0.31553 0.0
S1270 S 0.21811 0.29941 0.31555 0.0
N1271 N 0.21946 0.31729 0.28208 0.0
N1272 N 0.19623 0.31074 0.33948 0.0
C1273 C 0.18895 0.33008 0.32049 0.0
C1274 C 0.20162 0.3337 0.2894 0.0
C1275 C 0.64809 0.20599 0.30498 0.0
C1276 C 0.64733 0.19991 0.27056 0.0
C1277 C 0.65665 0.18949 0.3293 0.0
C1278 C 0.66502 0.16616 0.32034 0.0
H1279 H 0.64196 0.22372 0.31344 0.0
H1280 H 0.65697 0.19525 0.35532 0.0
S1281 S 0.66649 0.14082 0.23372 0.0
N1282 N 0.65539 0.1686 0.22888 0.0
N1283 N 0.67158 0.13761 0.27442 0.0
C1284 C 0.66424 0.15971 0.28601 0.0
C1285 C 0.65539 0.17653 0.26121 0.0
C1286 C 0.82756 0.66708 0.32603 0.0
C1287 C 0.8387 0.65778 0.29676 0.0
C1288 C 0.84149 0.67752 0.35205 0.0
C1289 C 0.86724 0.67891 0.35017 0.0
H1290 H 0.80782 0.66624 0.32904 0.0
H1291 H 0.83196 0.68431 0.37398 0.0
S1292 S 0.90552 0.65792 0.27853 0.0
N1293 N 0.87715 0.65126 0.26719 0.0
N1294 N 0.90331 0.67065 0.31595 0.0
C1295 C 0.87864 0.66992 0.32087 0.0
C1296 C 0.86441 0.65946 0.29424 0.0
C1297 C 0.36609 0.82718 0.30593 0.0
C1298 C 0.36265 0.83138 0.27126 0.0
C1299 C 0.35107 0.83818 0.33006 0.0
C1300 C 0.33198 0.85395 0.32062 0.0
H1301 H 0.38056 0.81528 0.3147 0.0
H1302 H 0.35467 0.83443 0.35636 0.0
S1303 S 0.31476 0.87065 0.23304 0.0
N1304 N 0.33834 0.85216 0.2287 0.0
N1305 N 0.31012 0.87286 0.27392 0.0
C1306 C 0.32816 0.8582 0.286 0.0
C1307 C 0.34347 0.84693 0.26138 0.0
C1308 C 0.19489 0.69354 0.8337 0.0
C1309 C 0.18558 0.67006 0.8406 0.0
C1310 C 0.18813 0.70629 0.80445 0.0
C1311 C 0.17219 0.69589 0.78048 0.0
H1312 H 0.20741 0.70224 0.85116 0.0
H1313 H 0.19557 0.72447 0.80058 0.0
S1314 S 0.14339 0.63443 0.78592 0.0
N1315 N 0.15987 0.63666 0.82061 0.0
N1316 N 0.14751 0.66045 0.76554 0.0
C1317 C 0.16302 0.67225 0.78681 0.0
C1318 C 0.16958 0.65942 0.81689 0.0
C1319 C 0.32273 0.16594 0.77762 0.0
C1320 C 0.32614 0.14209 0.76545 0.0
C1321 C 0.33172 0.173 0.80932 0.0
C1322 C 0.34412 0.1564 0.83047 0.0
H1323 H 0.31322 0.17935 0.76244 0.0
H1324 H 0.32888 0.19166 0.81731 0.0
S1325 S 0.35718 0.09148 0.81098 0.0
N1326 N 0.34251 0.1017 0.77752 0.0
N1327 N 0.35902 0.11487 0.83689 0.0
C1328 C 0.34732 0.1324 0.81879 0.0
C1329 C 0.33848 0.1253 0.78637 0.0
C1330 C 0.83931 0.33299 0.76521 0.0
C1331 C 0.85349 0.31261 0.77425 0.0
C1332 C 0.82872 0.34801 0.78972 0.0
C1333 C 0.83209 0.34348 0.82433 0.0
H1334 H 0.83624 0.33737 0.73896 0.0
H1335 H 0.818 0.36348 0.78134 0.0
S1336 S 0.86772 0.29249 0.8615 0.0
N1337 N 0.87031 0.28867 0.82051 0.0
N1338 N 0.8506 0.31699 0.86634 0.0
C1339 C 0.84625 0.32318 0.83375 0.0
C1340 C 0.85687 0.30774 0.80881 0.0
C1341 C 0.65978 0.88524 0.77014 0.0
C1342 C 0.67898 0.87424 0.75208 0.0
C1343 C 0.65155 0.87567 0.80095 0.0
C1344 C 0.66223 0.85474 0.81533 0.0
H1345 H 0.65078 0.90135 0.76032 0.0
H1346 H 0.63645 0.88471 0.81339 0.0
S1347 S 0.71379 0.81937 0.77894 0.0
N1348 N 0.70895 0.84146 0.75141 0.0
N1349 N 0.69358 0.82354 0.80927 0.0
C1350 C 0.68179 0.84375 0.79787 0.0
C1351 C 0.69008 0.85343 0.76629 0.0
C1352 C 0.84471 0.66762 0.78995 0.0
C1353 C 0.85903 0.68806 0.79864 0.0
C1354 C 0.83374 0.65283 0.81478 0.0
C1355 C 0.83694 0.65762 0.84936 0.0
H1356 H 0.84141 0.66335 0.76375 0.0
H1357 H 0.82247 0.6376 0.8067 0.0
S1358 S 0.87431 0.70795 0.88548 0.0
N1359 N 0.87686 0.71163 0.84441 0.0
N1360 N 0.8565 0.68379 0.89083 0.0
C1361 C 0.85189 0.67756 0.85837 0.0
C1362 C 0.86283 0.69277 0.83311 0.0
C1363 C 0.34196 0.84469 0.82942 0.0
C1364 C 0.36126 0.8293 0.81971 0.0
C1365 C 0.3268 0.85586 0.80545 0.0
C1366 C 0.33026 0.85213 0.77072 0.0
H1367 H 0.33863 0.84837 0.85576 0.0
H1368 H 0.31243 0.86779 0.81436 0.0
S1369 S 0.37747 0.81254 0.73192 0.0
N1370 N 0.38246 0.81023 0.77273 0.0
N1371 N 0.354 0.83122 0.7279 0.0
C1372 C 0.34919 0.83641 0.76064 0.0
C1373 C 0.36467 0.82503 0.78504 0.0
C1374 C 0.17369 0.32887 0.80175 0.0
C1375 C 0.16308 0.34166 0.77467 0.0
C1376 C 0.18496 0.34126 0.82847 0.0
C1377 C 0.18545 0.3669 0.82951 0.0
H1378 H 0.17337 0.30909 0.80228 0.0
H1379 H 0.19298 0.33068 0.84871 0.0
S1380 S 0.16056 0.40895 0.76461 0.0
N1381 N 0.15422 0.38139 0.75023 0.0
N1382 N 0.17488 0.40471 0.80073 0.0
C1383 C 0.17497 0.37992 0.80254 0.0
C1384 C 0.16395 0.3673 0.77502 0.0
C1385 C 0.6808 0.17593 0.80839 0.0
C1386 C 0.66935 0.16938 0.77789 0.0
C1387 C 0.66766 0.18704 0.83457 0.0
C1388 C 0.6424 0.1917 0.8316 0.0
H1389 H 0.70014 0.17238 0.8122 0.0
H1390 H 0.67731 0.19164 0.85752 0.0
S1391 S 0.60377 0.17883 0.75658 0.0
N1392 N 0.63129 0.16907 0.74602 0.0
N1393 N 0.60657 0.18961 0.79509 0.0
C1394 C 0.63076 0.1855 0.80108 0.0
C1395 C 0.64422 0.17448 0.77428 0.0
C1396 C 0.83878 0.34142 0.30958 0.0
C1397 C 0.84145 0.33737 0.27478 0.0
C1398 C 0.84905 0.32556 0.33346 0.0
C1399 C 0.86241 0.30488 0.32365 0.0
H1400 H 0.82857 0.35698 0.31864 0.0
H1401 H 0.84632 0.32953 0.35986 0.0
S1402 S 0.8754 0.2862 0.23561 0.0
N1403 N 0.85892 0.31125 0.23174 0.0
N1404 N 0.87818 0.28146 0.27644 0.0
C1405 C 0.86539 0.30065 0.2889 0.0
C1406 C 0.85496 0.31686 0.26455 0.0
C1407 C 0.6577 0.84681 0.27463 0.0
C1408 C 0.66998 0.83518 0.24793 0.0
C1409 C 0.67035 0.85535 0.30303 0.0
C1410 C 0.69594 0.85291 0.30592 0.0
H1411 H 0.638 0.84927 0.27381 0.0
H1412 H 0.65999 0.86435 0.3226 0.0
S1413 S 0.73692 0.8233 0.24368 0.0
N1414 N 0.70934 0.82122 0.22676 0.0
N1415 N 0.73314 0.83746 0.27986 0.0
C1416 C 0.7085 0.84119 0.27955 0.0
C1417 C 0.69556 0.8323 0.25069 0.0
C1418 C 0.19378 0.67875 0.32984 0.0
C1419 C 0.17136 0.68939 0.32052 0.0
C1420 C 0.20998 0.66953 0.30565 0.0
C1421 C 0.20442 0.67034 0.27102 0.0
H1422 H 0.19901 0.67762 0.35608 0.0
H1423 H 0.22691 0.66142 0.31438 0.0
S1424 S 0.14799 0.6963 0.23317 0.0
N1425 N 0.14442 0.70028 0.274 0.0
N1426 N 0.17479 0.68282 0.22869 0.0
C1427 C 0.18208 0.68099 0.26129 0.0
C1428 C 0.1656 0.69053 0.28595 0.0
C1429 C 0.30324 0.16521 0.28444 0.0
C1430 C 0.3115 0.16307 0.31795 0.0
C1431 C 0.31802 0.17555 0.25915 0.0
C1432 C 0.3417 0.18445 0.26622 0.0
H1433 H 0.28518 0.15863 0.27743 0.0
H1434 H 0.31069 0.17673 0.23388 0.0
S1435 S 0.37227 0.18328 0.34985 0.0
N1436 N 0.34512 0.17074 0.35672 0.0
N1437 N 0.37284 0.1903 0.30945 0.0
C1438 C 0.35023 0.18252 0.29966 0.0
C1439 C 0.33519 0.17182 0.3254 0.0
loop_
_geom_bond_atom_site_label_1
_geom_bond_atom_site_label_2
_geom_bond_distance
_geom_bond_site_symmetry_2
_ccdc_geom_bond_type
Cu0 N1 1.999 . S
Cu0 O6 1.974 . S
Cu0 N11 1.985 . S
Cu0 O20 1.959 . S
N1 Cu0 1.999 . S
N1 C3 1.263 . S
N1 C5 1.389 . S
N2 C3 1.358 . S
N2 C4 1.400 . S
C3 N1 1.263 . S
C3 N2 1.358 . S
C3 H9 0.930 . S
C4 N2 1.400 . S
C4 C5 1.351 . S
C4 H21 0.930 . S
C5 N1 1.389 . S
C5 C4 1.351 . S
C5 H10 0.930 . S
O6 Cu0 1.974 . S
O6 C16 1.282 . S
C7 O8 1.261 . S
C7 O20 1.251 . S
O8 C7 1.261 . S
H9 C3 0.930 . S
H10 C5 0.930 . S
N11 Cu0 1.985 . S
N11 C13 1.335 . S
N11 C14 1.390 . S
N12 C13 1.345 . S
N12 C15 1.336 . S
C13 N11 1.335 . S
C13 N12 1.345 . S
C13 H18 0.930 . S
C14 N11 1.390 . S
C14 C15 1.346 . S
C14 H19 0.930 . S
C15 N12 1.336 . S
C15 C14 1.346 . S
C15 H22 0.929 . S
C16 O6 1.282 . S
C16 O17 1.216 . S
O17 C16 1.216 . S
H18 C13 0.930 . S
H19 C14 0.930 . S
O20 Cu0 1.959 . S
O20 C7 1.251 . S
H21 C4 0.930 . S
H22 C15 0.929 . S
Cu23 N24 1.999 . S
Cu23 O29 1.974 . S
Cu23 N34 1.985 . S
Cu23 O43 1.959 . S
N24 Cu23 1.999 . S
N24 C26 1.263 . S
N24 C28 1.389 . S
N25 C26 1.358 . S
N25 C27 1.400 . S
C26 N24 1.263 . S
C26 N25 1.358 . S
C26 H32 0.930 . S
C27 N25 1.400 . S
C27 C28 1.351 . S
C27 H44 0.930 . S
C28 N24 1.389 . S
C28 C27 1.351 . S
C28 H33 0.930 . S
O29 Cu23 1.974 . S
O29 C39 1.282 . S
C30 O31 1.261 . S
C30 O43 1.251 . S
O31 C30 1.261 . S
H32 C26 0.930 . S
H33 C28 0.930 . S
N34 Cu23 1.985 . S
N34 C36 1.335 . S
N34 C37 1.390 . S
N35 C36 1.345 . S
N35 C38 1.336 . S
C36 N34 1.335 . S
C36 N35 1.345 . S
C36 H41 0.930 . S
C37 N34 1.390 . S
C37 C38 1.346 . S
C37 H42 0.930 . S
C38 N35 1.336 . S
C38 C37 1.346 . S
C38 H45 0.929 . S
C39 O29 1.282 . S
C39 O40 1.216 . S
O40 C39 1.216 . S
H41 C36 0.930 . S
H42 C37 0.930 . S
O43 Cu23 1.959 . S
O43 C30 1.251 . S
H44 C27 0.930 . S
H45 C38 0.929 . S
Cu46 N47 1.999 . S
Cu46 O52 1.974 . S
Cu46 N57 1.985 . S
Cu46 O66 1.959 . S
N47 Cu46 1.999 . S
N47 C49 1.263 . S
N47 C51 1.389 . S
N48 C49 1.358 . S
N48 C50 1.400 . S
C49 N47 1.263 . S
C49 N48 1.358 . S
C49 H55 0.930 . S
C50 N48 1.400 . S
C50 C51 1.351 . S
C50 H67 0.930 . S
C51 N47 1.389 . S
C51 C50 1.351 . S
C51 H56 0.930 . S
O52 Cu46 1.974 . S
O52 C62 1.282 . S
C53 O54 1.261 . S
C53 O66 1.251 . S
O54 C53 1.261 . S
H55 C49 0.930 . S
H56 C51 0.930 . S
N57 Cu46 1.985 . S
N57 C59 1.335 . S
N57 C60 1.390 . S
N58 C59 1.345 . S
N58 C61 1.336 . S
C59 N57 1.335 . S
C59 N58 1.345 . S
C59 H64 0.930 . S
C60 N57 1.390 . S
C60 C61 1.346 . S
C60 H65 0.930 . S
C61 N58 1.336 . S
C61 C60 1.346 . S
C61 H68 0.929 . S
C62 O52 1.282 . S
C62 O63 1.216 . S
O63 C62 1.216 . S
H64 C59 0.930 . S
H65 C60 0.930 . S
O66 Cu46 1.959 . S
O66 C53 1.251 . S
H67 C50 0.930 . S
H68 C61 0.929 . S
Cu69 N70 1.999 . S
Cu69 O75 1.974 . S
Cu69 N80 1.985 . S
Cu69 O89 1.959 . S
N70 Cu69 1.999 . S
N70 C72 1.263 . S
N70 C74 1.389 . S
N71 C72 1.358 . S
N71 C73 1.400 . S
C72 N70 1.263 . S
C72 N71 1.358 . S
C72 H78 0.930 . S
C73 N71 1.400 . S
C73 C74 1.351 . S
C73 H90 0.930 . S
C74 N70 1.389 . S
C74 C73 1.351 . S
C74 H79 0.930 . S
O75 Cu69 1.974 . S
O75 C85 1.282 . S
C76 O77 1.261 . S
C76 O89 1.251 . S
O77 C76 1.261 . S
H78 C72 0.930 . S
H79 C74 0.930 . S
N80 Cu69 1.985 . S
N80 C82 1.335 . S
N80 C83 1.390 . S
N81 C82 1.345 . S
N81 C84 1.336 . S
C82 N80 1.335 . S
C82 N81 1.345 . S
C82 H87 0.930 . S
C83 N80 1.390 . S
C83 C84 1.346 . S
C83 H88 0.930 . S
C84 N81 1.336 . S
C84 C83 1.346 . S
C84 H91 0.929 . S
C85 O75 1.282 . S
C85 O86 1.216 . S
O86 C85 1.216 . S
H87 C82 0.930 . S
H88 C83 0.930 . S
O89 Cu69 1.959 . S
O89 C76 1.251 . S
H90 C73 0.930 . S
H91 C84 0.929 . S
Cu92 N93 1.999 . S
Cu92 O98 1.974 . S
Cu92 N103 1.985 . S
Cu92 O112 1.959 . S
N93 Cu92 1.999 . S
N93 C95 1.263 . S
N93 C97 1.389 . S
N94 C95 1.358 . S
N94 C96 1.400 . S
C95 N93 1.263 . S
C95 N94 1.358 . S
C95 H101 0.930 . S
C96 N94 1.400 . S
C96 C97 1.351 . S
C96 H113 0.930 . S
C97 N93 1.389 . S
C97 C96 1.351 . S
C97 H102 0.930 . S
O98 Cu92 1.974 . S
O98 C108 1.282 . S
C99 O100 1.261 . S
C99 O112 1.251 . S
O100 C99 1.261 . S
H101 C95 0.930 . S
H102 C97 0.930 . S
N103 Cu92 1.985 . S
N103 C105 1.335 . S
N103 C106 1.390 . S
N104 C105 1.345 . S
N104 C107 1.336 . S
C105 N103 1.335 . S
C105 N104 1.345 . S
C105 H110 0.930 . S
C106 N103 1.390 . S
C106 C107 1.346 . S
C106 H111 0.930 . S
C107 N104 1.336 . S
C107 C106 1.346 . S
C107 H114 0.929 . S
C108 O98 1.282 . S
C108 O109 1.216 . S
O109 C108 1.216 . S
H110 C105 0.930 . S
H111 C106 0.930 . S
O112 Cu92 1.959 . S
O112 C99 1.251 . S
H113 C96 0.930 . S
H114 C107 0.929 . S
Cu115 N116 1.999 . S
Cu115 O121 1.974 . S
Cu115 N126 1.985 . S
Cu115 O135 1.959 . S
N116 Cu115 1.999 . S
N116 C118 1.263 . S
N116 C120 1.389 . S
N117 C118 1.358 . S
N117 C119 1.400 . S
C118 N116 1.263 . S
C118 N117 1.358 . S
C118 H124 0.930 . S
C119 N117 1.400 . S
C119 C120 1.351 . S
C119 H136 0.930 . S
C120 N116 1.389 . S
C120 C119 1.351 . S
C120 H125 0.930 . S
O121 Cu115 1.974 . S
O121 C131 1.282 . S
C122 O123 1.261 . S
C122 O135 1.251 . S
O123 C122 1.261 . S
H124 C118 0.930 . S
H125 C120 0.930 . S
N126 Cu115 1.985 . S
N126 C128 1.335 . S
N126 C129 1.390 . S
N127 C128 1.345 . S
N127 C130 1.336 . S
C128 N126 1.335 . S
C128 N127 1.345 . S
C128 H133 0.930 . S
C129 N126 1.390 . S
C129 C130 1.346 . S
C129 H134 0.930 . S
C130 N127 1.336 . S
C130 C129 1.346 . S
C130 H137 0.929 . S
C131 O121 1.282 . S
C131 O132 1.216 . S
O132 C131 1.216 . S
H133 C128 0.930 . S
H134 C129 0.930 . S
O135 Cu115 1.959 . S
O135 C122 1.251 . S
H136 C119 0.930 . S
H137 C130 0.929 . S
Cu138 N139 1.999 . S
Cu138 O144 1.974 . S
Cu138 N149 1.985 . S
Cu138 O158 1.959 . S
N139 Cu138 1.999 . S
N139 C141 1.263 . S
N139 C143 1.389 . S
N140 C141 1.358 . S
N140 C142 1.400 . S
C141 N139 1.263 . S
C141 N140 1.358 . S
C141 H147 0.930 . S
C142 N140 1.400 . S
C142 C143 1.351 . S
C142 H159 0.930 . S
C143 N139 1.389 . S
C143 C142 1.351 . S
C143 H148 0.930 . S
O144 Cu138 1.974 . S
O144 C154 1.282 . S
C145 O146 1.261 . S
C145 O158 1.251 . S
O146 C145 1.261 . S
H147 C141 0.930 . S
H148 C143 0.930 . S
N149 Cu138 1.985 . S
N149 C151 1.335 . S
N149 C152 1.390 . S
N150 C151 1.345 . S
N150 C153 1.336 . S
C151 N149 1.335 . S
C151 N150 1.345 . S
C151 H156 0.930 . S
C152 N149 1.390 . S
C152 C153 1.346 . S
C152 H157 0.930 . S
C153 N150 1.336 . S
C153 C152 1.346 . S
C153 H160 0.929 . S
C154 O144 1.282 . S
C154 O155 1.216 . S
O155 C154 1.216 . S
H156 C151 0.930 . S
H157 C152 0.930 . S
O158 Cu138 1.959 . S
O158 C145 1.251 . S
H159 C142 0.930 . S
H160 C153 0.929 . S
Cu161 N162 1.999 . S
Cu161 O167 1.974 . S
Cu161 N172 1.985 . S
Cu161 O181 1.959 . S
N162 Cu161 1.999 . S
N162 C164 1.263 . S
N162 C166 1.389 . S
N163 C164 1.358 . S
N163 C165 1.400 . S
C164 N162 1.263 . S
C164 N163 1.358 . S
C164 H170 0.930 . S
C165 N163 1.400 . S
C165 C166 1.351 . S
C165 H182 0.930 . S
C166 N162 1.389 . S
C166 C165 1.351 . S
C166 H171 0.930 . S
O167 Cu161 1.974 . S
O167 C177 1.282 . S
C168 O169 1.261 . S
C168 O181 1.251 . S
O169 C168 1.261 . S
H170 C164 0.930 . S
H171 C166 0.930 . S
N172 Cu161 1.985 . S
N172 C174 1.335 . S
N172 C175 1.390 . S
N173 C174 1.345 . S
N173 C176 1.336 . S
C174 N172 1.335 . S
C174 N173 1.345 . S
C174 H179 0.930 . S
C175 N172 1.390 . S
C175 C176 1.346 . S
C175 H180 0.930 . S
C176 N173 1.336 . S
C176 C175 1.346 . S
C176 H183 0.929 . S
C177 O167 1.282 . S
C177 O178 1.216 . S
O178 C177 1.216 . S
H179 C174 0.930 . S
H180 C175 0.930 . S
O181 Cu161 1.959 . S
O181 C168 1.251 . S
H182 C165 0.930 . S
H183 C176 0.929 . S
Cu184 N185 1.999 . S
Cu184 O190 1.974 . S
Cu184 N195 1.985 . S
Cu184 O204 1.959 . S
N185 Cu184 1.999 . S
N185 C187 1.263 . S
N185 C189 1.389 . S
N186 C187 1.358 . S
N186 C188 1.400 . S
C187 N185 1.263 . S
C187 N186 1.358 . S
C187 H193 0.930 . S
C188 N186 1.400 . S
C188 C189 1.351 . S
C188 H205 0.930 . S
C189 N185 1.389 . S
C189 C188 1.351 . S
C189 H194 0.930 . S
O190 Cu184 1.974 . S
O190 C200 1.282 . S
C191 O192 1.261 . S
C191 O204 1.251 . S
O192 C191 1.261 . S
H193 C187 0.930 . S
H194 C189 0.930 . S
N195 Cu184 1.985 . S
N195 C197 1.335 . S
N195 C198 1.390 . S
N196 C197 1.345 . S
N196 C199 1.336 . S
C197 N195 1.335 . S
C197 N196 1.345 . S
C197 H202 0.930 . S
C198 N195 1.390 . S
C198 C199 1.346 . S
C198 H203 0.930 . S
C199 N196 1.336 . S
C199 C198 1.346 . S
C199 H206 0.929 . S
C200 O190 1.282 . S
C200 O201 1.216 . S
O201 C200 1.216 . S
H202 C197 0.930 . S
H203 C198 0.930 . S
O204 Cu184 1.959 . S
O204 C191 1.251 . S
H205 C188 0.930 . S
H206 C199 0.929 . S
Cu207 N208 1.999 . S
Cu207 O213 1.974 . S
Cu207 N218 1.985 . S
Cu207 O227 1.959 . S
N208 Cu207 1.999 . S
N208 C210 1.263 . S
N208 C212 1.389 . S
N209 C210 1.358 . S
N209 C211 1.400 . S
C210 N208 1.263 . S
C210 N209 1.358 . S
C210 H216 0.930 . S
C211 N209 1.400 . S
C211 C212 1.351 . S
C211 H228 0.930 . S
C212 N208 1.389 . S
C212 C211 1.351 . S
C212 H217 0.930 . S
O213 Cu207 1.974 . S
O213 C223 1.282 . S
C214 O215 1.261 . S
C214 O227 1.251 . S
O215 C214 1.261 . S
H216 C210 0.930 . S
H217 C212 0.930 . S
N218 Cu207 1.985 . S
N218 C220 1.335 . S
N218 C221 1.390 . S
N219 C220 1.345 . S
N219 C222 1.336 . S
C220 N218 1.335 . S
C220 N219 1.345 . S
C220 H225 0.930 . S
C221 N218 1.390 . S
C221 C222 1.346 . S
C221 H226 0.930 . S
C222 N219 1.336 . S
C222 C221 1.346 . S
C222 H229 0.929 . S
C223 O213 1.282 . S
C223 O224 1.216 . S
O224 C223 1.216 . S
H225 C220 0.930 . S
H226 C221 0.930 . S
O227 Cu207 1.959 . S
O227 C214 1.251 . S
H228 C211 0.930 . S
H229 C222 0.929 . S
Cu230 N231 1.999 . S
Cu230 O236 1.974 . S
Cu230 N241 1.985 . S
Cu230 O250 1.959 . S
N231 Cu230 1.999 . S
N231 C233 1.263 . S
N231 C235 1.389 . S
N232 C233 1.358 . S
N232 C234 1.400 . S
C233 N231 1.263 . S
C233 N232 1.358 . S
C233 H239 0.930 . S
C234 N232 1.400 . S
C234 C235 1.351 . S
C234 H251 0.930 . S
C235 N231 1.389 . S
C235 C234 1.351 . S
C235 H240 0.930 . S
O236 Cu230 1.974 . S
O236 C246 1.282 . S
C237 O238 1.261 . S
C237 O250 1.251 . S
O238 C237 1.261 . S
H239 C233 0.930 . S
H240 C235 0.930 . S
N241 Cu230 1.985 . S
N241 C243 1.335 . S
N241 C244 1.390 . S
N242 C243 1.345 . S
N242 C245 1.336 . S
C243 N241 1.335 . S
C243 N242 1.345 . S
C243 H248 0.930 . S
C244 N241 1.390 . S
C244 C245 1.346 . S
C244 H249 0.930 . S
C245 N242 1.336 . S
C245 C244 1.346 . S
C245 H252 0.929 . S
C246 O236 1.282 . S
C246 O247 1.216 . S
O247 C246 1.216 . S
H248 C243 0.930 . S
H249 C244 0.930 . S
O250 Cu230 1.959 . S
O250 C237 1.251 . S
H251 C234 0.930 . S
H252 C245 0.929 . S
Cu253 N254 1.999 . S
Cu253 O259 1.974 . S
Cu253 N264 1.985 . S
Cu253 O273 1.959 . S
N254 Cu253 1.999 . S
N254 C256 1.263 . S
N254 C258 1.389 . S
N255 C256 1.358 . S
N255 C257 1.400 . S
C256 N254 1.263 . S
C256 N255 1.358 . S
C256 H262 0.930 . S
C257 N255 1.400 . S
C257 C258 1.351 . S
C257 H274 0.930 . S
C258 N254 1.389 . S
C258 C257 1.351 . S
C258 H263 0.930 . S
O259 Cu253 1.974 . S
O259 C269 1.282 . S
C260 O261 1.261 . S
C260 O273 1.251 . S
O261 C260 1.261 . S
H262 C256 0.930 . S
H263 C258 0.930 . S
N264 Cu253 1.985 . S
N264 C266 1.335 . S
N264 C267 1.390 . S
N265 C266 1.345 . S
N265 C268 1.336 . S
C266 N264 1.335 . S
C266 N265 1.345 . S
C266 H271 0.930 . S
C267 N264 1.390 . S
C267 C268 1.346 . S
C267 H272 0.930 . S
C268 N265 1.336 . S
C268 C267 1.346 . S
C268 H275 0.929 . S
C269 O259 1.282 . S
C269 O270 1.216 . S
O270 C269 1.216 . S
H271 C266 0.930 . S
H272 C267 0.930 . S
O273 Cu253 1.959 . S
O273 C260 1.251 . S
H274 C257 0.930 . S
H275 C268 0.929 . S
Cu276 N277 1.999 . S
Cu276 O282 1.974 . S
Cu276 N287 1.985 . S
Cu276 O296 1.959 . S
N277 Cu276 1.999 . S
N277 C279 1.263 . S
N277 C281 1.389 . S
N278 C279 1.358 . S
N278 C280 1.400 . S
C279 N277 1.263 . S
C279 N278 1.358 . S
C279 H285 0.930 . S
C280 N278 1.400 . S
C280 C281 1.351 . S
C280 H297 0.930 . S
C281 N277 1.389 . S
C281 C280 1.351 . S
C281 H286 0.930 . S
O282 Cu276 1.974 . S
O282 C292 1.282 . S
C283 O284 1.261 . S
C283 O296 1.251 . S
O284 C283 1.261 . S
H285 C279 0.930 . S
H286 C281 0.930 . S
N287 Cu276 1.985 . S
N287 C289 1.335 . S
N287 C290 1.390 . S
N288 C289 1.345 . S
N288 C291 1.336 . S
C289 N287 1.335 . S
C289 N288 1.345 . S
C289 H294 0.930 . S
C290 N287 1.390 . S
C290 C291 1.346 . S
C290 H295 0.930 . S
C291 N288 1.336 . S
C291 C290 1.346 . S
C291 H298 0.929 . S
C292 O282 1.282 . S
C292 O293 1.216 . S
O293 C292 1.216 . S
H294 C289 0.930 . S
H295 C290 0.930 . S
O296 Cu276 1.959 . S
O296 C283 1.251 . S
H297 C280 0.930 . S
H298 C291 0.929 . S
Cu299 N300 1.999 . S
Cu299 O305 1.974 . S
Cu299 N310 1.985 . S
Cu299 O319 1.959 . S
N300 Cu299 1.999 . S
N300 C302 1.263 . S
N300 C304 1.389 . S
N301 C302 1.358 . S
N301 C303 1.400 . S
C302 N300 1.263 . S
C302 N301 1.358 . S
C302 H308 0.930 . S
C303 N301 1.400 . S
C303 C304 1.351 . S
C303 H320 0.930 . S
C304 N300 1.389 . S
C304 C303 1.351 . S
C304 H309 0.930 . S
O305 Cu299 1.974 . S
O305 C315 1.282 . S
C306 O307 1.261 . S
C306 O319 1.251 . S
O307 C306 1.261 . S
H308 C302 0.930 . S
H309 C304 0.930 . S
N310 Cu299 1.985 . S
N310 C312 1.335 . S
N310 C313 1.390 . S
N311 C312 1.345 . S
N311 C314 1.336 . S
C312 N310 1.335 . S
C312 N311 1.345 . S
C312 H317 0.930 . S
C313 N310 1.390 . S
C313 C314 1.346 . S
C313 H318 0.930 . S
C314 N311 1.336 . S
C314 C313 1.346 . S
C314 H321 0.929 . S
C315 O305 1.282 . S
C315 O316 1.216 . S
O316 C315 1.216 . S
H317 C312 0.930 . S
H318 C313 0.930 . S
O319 Cu299 1.959 . S
O319 C306 1.251 . S
H320 C303 0.930 . S
H321 C314 0.929 . S
Cu322 N323 1.999 . S
Cu322 O328 1.974 . S
Cu322 N333 1.985 . S
Cu322 O342 1.959 . S
N323 Cu322 1.999 . S
N323 C325 1.263 . S
N323 C327 1.389 . S
N324 C325 1.358 . S
N324 C326 1.400 . S
C325 N323 1.263 . S
C325 N324 1.358 . S
C325 H331 0.930 . S
C326 N324 1.400 . S
C326 C327 1.351 . S
C326 H343 0.930 . S
C327 N323 1.389 . S
C327 C326 1.351 . S
C327 H332 0.930 . S
O328 Cu322 1.974 . S
O328 C338 1.282 . S
C329 O330 1.261 . S
C329 O342 1.251 . S
O330 C329 1.261 . S
H331 C325 0.930 . S
H332 C327 0.930 . S
N333 Cu322 1.985 . S
N333 C335 1.335 . S
N333 C336 1.390 . S
N334 C335 1.345 . S
N334 C337 1.336 . S
C335 N333 1.335 . S
C335 N334 1.345 . S
C335 H340 0.930 . S
C336 N333 1.390 . S
C336 C337 1.346 . S
C336 H341 0.930 . S
C337 N334 1.336 . S
C337 C336 1.346 . S
C337 H344 0.929 . S
C338 O328 1.282 . S
C338 O339 1.216 . S
O339 C338 1.216 . S
H340 C335 0.930 . S
H341 C336 0.930 . S
O342 Cu322 1.959 . S
O342 C329 1.251 . S
H343 C326 0.930 . S
H344 C337 0.929 . S
Cu345 N346 1.999 . S
Cu345 O351 1.974 . S
Cu345 N356 1.985 . S
Cu345 O365 1.959 . S
N346 Cu345 1.999 . S
N346 C348 1.263 . S
N346 C350 1.389 . S
N347 C348 1.358 . S
N347 C349 1.400 . S
C348 N346 1.263 . S
C348 N347 1.358 . S
C348 H354 0.930 . S
C349 N347 1.400 . S
C349 C350 1.351 . S
C349 H366 0.930 . S
C350 N346 1.389 . S
C350 C349 1.351 . S
C350 H355 0.930 . S
O351 Cu345 1.974 . S
O351 C361 1.282 . S
C352 O353 1.261 . S
C352 O365 1.251 . S
O353 C352 1.261 . S
H354 C348 0.930 . S
H355 C350 0.930 . S
N356 Cu345 1.985 . S
N356 C358 1.335 . S
N356 C359 1.390 . S
N357 C358 1.345 . S
N357 C360 1.336 . S
C358 N356 1.335 . S
C358 N357 1.345 . S
C358 H363 0.930 . S
C359 N356 1.390 . S
C359 C360 1.346 . S
C359 H364 0.930 . S
C360 N357 1.336 . S
C360 C359 1.346 . S
C360 H367 0.929 . S
C361 O351 1.282 . S
C361 O362 1.216 . S
O362 C361 1.216 . S
H363 C358 0.930 . S
H364 C359 0.930 . S
O365 Cu345 1.959 . S
O365 C352 1.251 . S
H366 C349 0.930 . S
H367 C360 0.929 . S
Cu368 N369 1.999 . S
Cu368 O374 1.974 . S
Cu368 N379 1.985 . S
Cu368 O388 1.959 . S
N369 Cu368 1.999 . S
N369 C371 1.263 . S
N369 C373 1.389 . S
N370 C371 1.358 . S
N370 C372 1.400 . S
C371 N369 1.263 . S
C371 N370 1.358 . S
C371 H377 0.930 . S
C372 N370 1.400 . S
C372 C373 1.351 . S
C372 H389 0.930 . S
C373 N369 1.389 . S
C373 C372 1.351 . S
C373 H378 0.930 . S
O374 Cu368 1.974 . S
O374 C384 1.282 . S
C375 O376 1.261 . S
C375 O388 1.251 . S
O376 C375 1.261 . S
H377 C371 0.930 . S
H378 C373 0.930 . S
N379 Cu368 1.985 . S
N379 C381 1.335 . S
N379 C382 1.390 . S
N380 C381 1.345 . S
N380 C383 1.336 . S
C381 N379 1.335 . S
C381 N380 1.345 . S
C381 H386 0.930 . S
C382 N379 1.390 . S
C382 C383 1.346 . S
C382 H387 0.930 . S
C383 N380 1.336 . S
C383 C382 1.346 . S
C383 H390 0.929 . S
C384 O374 1.282 . S
C384 O385 1.216 . S
O385 C384 1.216 . S
H386 C381 0.930 . S
H387 C382 0.930 . S
O388 Cu368 1.959 . S
O388 C375 1.251 . S
H389 C372 0.930 . S
H390 C383 0.929 . S
Cu391 N392 1.999 . S
Cu391 O397 1.974 . S
Cu391 N402 1.985 . S
Cu391 O411 1.959 . S
N392 Cu391 1.999 . S
N392 C394 1.263 . S
N392 C396 1.389 . S
N393 C394 1.358 . S
N393 C395 1.400 . S
C394 N392 1.263 . S
C394 N393 1.358 . S
C394 H400 0.930 . S
C395 N393 1.400 . S
C395 C396 1.351 . S
C395 H412 0.930 . S
C396 N392 1.389 . S
C396 C395 1.351 . S
C396 H401 0.930 . S
O397 Cu391 1.974 . S
O397 C407 1.282 . S
C398 O399 1.261 . S
C398 O411 1.251 . S
O399 C398 1.261 . S
H400 C394 0.930 . S
H401 C396 0.930 . S
N402 Cu391 1.985 . S
N402 C404 1.335 . S
N402 C405 1.390 . S
N403 C404 1.345 . S
N403 C406 1.336 . S
C404 N402 1.335 . S
C404 N403 1.345 . S
C404 H409 0.930 . S
C405 N402 1.390 . S
C405 C406 1.346 . S
C405 H410 0.930 . S
C406 N403 1.336 . S
C406 C405 1.346 . S
C406 H413 0.929 . S
C407 O397 1.282 . S
C407 O408 1.216 . S
O408 C407 1.216 . S
H409 C404 0.930 . S
H410 C405 0.930 . S
O411 Cu391 1.959 . S
O411 C398 1.251 . S
H412 C395 0.930 . S
H413 C406 0.929 . S
Cu414 N415 1.999 . S
Cu414 O420 1.974 . S
Cu414 N425 1.985 . S
Cu414 O434 1.959 . S
N415 Cu414 1.999 . S
N415 C417 1.263 . S
N415 C419 1.389 . S
N416 C417 1.358 . S
N416 C418 1.400 . S
C417 N415 1.263 . S
C417 N416 1.358 . S
C417 H423 0.930 . S
C418 N416 1.400 . S
C418 C419 1.351 . S
C418 H435 0.930 . S
C419 N415 1.389 . S
C419 C418 1.351 . S
C419 H424 0.930 . S
O420 Cu414 1.974 . S
O420 C430 1.282 . S
C421 O422 1.261 . S
C421 O434 1.251 . S
O422 C421 1.261 . S
H423 C417 0.930 . S
H424 C419 0.930 . S
N425 Cu414 1.985 . S
N425 C427 1.335 . S
N425 C428 1.390 . S
N426 C427 1.345 . S
N426 C429 1.336 . S
C427 N425 1.335 . S
C427 N426 1.345 . S
C427 H432 0.930 . S
C428 N425 1.390 . S
C428 C429 1.346 . S
C428 H433 0.930 . S
C429 N426 1.336 . S
C429 C428 1.346 . S
C429 H436 0.929 . S
C430 O420 1.282 . S
C430 O431 1.216 . S
O431 C430 1.216 . S
H432 C427 0.930 . S
H433 C428 0.930 . S
O434 Cu414 1.959 . S
O434 C421 1.251 . S
H435 C418 0.930 . S
H436 C429 0.929 . S
Cu437 N438 1.999 . S
Cu437 O443 1.974 . S
Cu437 N448 1.985 . S
Cu437 O457 1.959 . S
N438 Cu437 1.999 . S
N438 C440 1.263 . S
N438 C442 1.389 . S
N439 C440 1.358 . S
N439 C441 1.400 . S
C440 N438 1.263 . S
C440 N439 1.358 . S
C440 H446 0.930 . S
C441 N439 1.400 . S
C441 C442 1.351 . S
C441 H458 0.930 . S
C442 N438 1.389 . S
C442 C441 1.351 . S
C442 H447 0.930 . S
O443 Cu437 1.974 . S
O443 C453 1.282 . S
C444 O445 1.261 . S
C444 O457 1.251 . S
O445 C444 1.261 . S
H446 C440 0.930 . S
H447 C442 0.930 . S
N448 Cu437 1.985 . S
N448 C450 1.335 . S
N448 C451 1.390 . S
N449 C450 1.345 . S
N449 C452 1.336 . S
C450 N448 1.335 . S
C450 N449 1.345 . S
C450 H455 0.930 . S
C451 N448 1.390 . S
C451 C452 1.346 . S
C451 H456 0.930 . S
C452 N449 1.336 . S
C452 C451 1.346 . S
C452 H459 0.929 . S
C453 O443 1.282 . S
C453 O454 1.216 . S
O454 C453 1.216 . S
H455 C450 0.930 . S
H456 C451 0.930 . S
O457 Cu437 1.959 . S
O457 C444 1.251 . S
H458 C441 0.930 . S
H459 C452 0.929 . S
Cu460 N461 1.999 . S
Cu460 O466 1.974 . S
Cu460 N471 1.985 . S
Cu460 O480 1.959 . S
N461 Cu460 1.999 . S
N461 C463 1.263 . S
N461 C465 1.389 . S
N462 C463 1.358 . S
N462 C464 1.400 . S
C463 N461 1.263 . S
C463 N462 1.358 . S
C463 H469 0.930 . S
C464 N462 1.400 . S
C464 C465 1.351 . S
C464 H481 0.930 . S
C465 N461 1.389 . S
C465 C464 1.351 . S
C465 H470 0.930 . S
O466 Cu460 1.974 . S
O466 C476 1.282 . S
C467 O468 1.261 . S
C467 O480 1.251 . S
O468 C467 1.261 . S
H469 C463 0.930 . S
H470 C465 0.930 . S
N471 Cu460 1.985 . S
N471 C473 1.335 . S
N471 C474 1.390 . S
N472 C473 1.345 . S
N472 C475 1.336 . S
C473 N471 1.335 . S
C473 N472 1.345 . S
C473 H478 0.930 . S
C474 N471 1.390 . S
C474 C475 1.346 . S
C474 H479 0.930 . S
C475 N472 1.336 . S
C475 C474 1.346 . S
C475 H482 0.929 . S
C476 O466 1.282 . S
C476 O477 1.216 . S
O477 C476 1.216 . S
H478 C473 0.930 . S
H479 C474 0.930 . S
O480 Cu460 1.959 . S
O480 C467 1.251 . S
H481 C464 0.930 . S
H482 C475 0.929 . S
Cu483 N484 1.999 . S
Cu483 O489 1.974 . S
Cu483 N494 1.985 . S
Cu483 O503 1.959 . S
N484 Cu483 1.999 . S
N484 C486 1.263 . S
N484 C488 1.389 . S
N485 C486 1.358 . S
N485 C487 1.400 . S
C486 N484 1.263 . S
C486 N485 1.358 . S
C486 H492 0.930 . S
C487 N485 1.400 . S
C487 C488 1.351 . S
C487 H504 0.930 . S
C488 N484 1.389 . S
C488 C487 1.351 . S
C488 H493 0.930 . S
O489 Cu483 1.974 . S
O489 C499 1.282 . S
C490 O491 1.261 . S
C490 O503 1.251 . S
O491 C490 1.261 . S
H492 C486 0.930 . S
H493 C488 0.930 . S
N494 Cu483 1.985 . S
N494 C496 1.335 . S
N494 C497 1.390 . S
N495 C496 1.345 . S
N495 C498 1.336 . S
C496 N494 1.335 . S
C496 N495 1.345 . S
C496 H501 0.930 . S
C497 N494 1.390 . S
C497 C498 1.346 . S
C497 H502 0.930 . S
C498 N495 1.336 . S
C498 C497 1.346 . S
C498 H505 0.929 . S
C499 O489 1.282 . S
C499 O500 1.216 . S
O500 C499 1.216 . S
H501 C496 0.930 . S
H502 C497 0.930 . S
O503 Cu483 1.959 . S
O503 C490 1.251 . S
H504 C487 0.930 . S
H505 C498 0.929 . S
Cu506 N507 1.999 . S
Cu506 O512 1.974 . S
Cu506 N517 1.985 . S
Cu506 O526 1.959 . S
N507 Cu506 1.999 . S
N507 C509 1.263 . S
N507 C511 1.389 . S
N508 C509 1.358 . S
N508 C510 1.400 . S
C509 N507 1.263 . S
C509 N508 1.358 . S
C509 H515 0.930 . S
C510 N508 1.400 . S
C510 C511 1.351 . S
C510 H527 0.930 . S
C511 N507 1.389 . S
C511 C510 1.351 . S
C511 H516 0.930 . S
O512 Cu506 1.974 . S
O512 C522 1.282 . S
C513 O514 1.261 . S
C513 O526 1.251 . S
O514 C513 1.261 . S
H515 C509 0.930 . S
H516 C511 0.930 . S
N517 Cu506 1.985 . S
N517 C519 1.335 . S
N517 C520 1.390 . S
N518 C519 1.345 . S
N518 C521 1.336 . S
C519 N517 1.335 . S
C519 N518 1.345 . S
C519 H524 0.930 . S
C520 N517 1.390 . S
C520 C521 1.346 . S
C520 H525 0.930 . S
C521 N518 1.336 . S
C521 C520 1.346 . S
C521 H528 0.929 . S
C522 O512 1.282 . S
C522 O523 1.216 . S
O523 C522 1.216 . S
H524 C519 0.930 . S
H525 C520 0.930 . S
O526 Cu506 1.959 . S
O526 C513 1.251 . S
H527 C510 0.930 . S
H528 C521 0.929 . S
Cu529 N530 1.999 . S
Cu529 O535 1.974 . S
Cu529 N540 1.985 . S
Cu529 O549 1.959 . S
N530 Cu529 1.999 . S
N530 C532 1.263 . S
N530 C534 1.389 . S
N531 C532 1.358 . S
N531 C533 1.400 . S
C532 N530 1.263 . S
C532 N531 1.358 . S
C532 H538 0.930 . S
C533 N531 1.400 . S
C533 C534 1.351 . S
C533 H550 0.930 . S
C534 N530 1.389 . S
C534 C533 1.351 . S
C534 H539 0.930 . S
O535 Cu529 1.974 . S
O535 C545 1.282 . S
C536 O537 1.261 . S
C536 O549 1.251 . S
O537 C536 1.261 . S
H538 C532 0.930 . S
H539 C534 0.930 . S
N540 Cu529 1.985 . S
N540 C542 1.335 . S
N540 C543 1.390 . S
N541 C542 1.345 . S
N541 C544 1.336 . S
C542 N540 1.335 . S
C542 N541 1.345 . S
C542 H547 0.930 . S
C543 N540 1.390 . S
C543 C544 1.346 . S
C543 H548 0.930 . S
C544 N541 1.336 . S
C544 C543 1.346 . S
C544 H551 0.929 . S
C545 O535 1.282 . S
C545 O546 1.216 . S
O546 C545 1.216 . S
H547 C542 0.930 . S
H548 C543 0.930 . S
O549 Cu529 1.959 . S
O549 C536 1.251 . S
H550 C533 0.930 . S
H551 C544 0.929 . S
Cu552 N553 1.999 . S
Cu552 O558 1.974 . S
Cu552 N563 1.985 . S
Cu552 O572 1.959 . S
N553 Cu552 1.999 . S
N553 C555 1.263 . S
N553 C557 1.389 . S
N554 C555 1.358 . S
N554 C556 1.400 . S
C555 N553 1.263 . S
C555 N554 1.358 . S
C555 H561 0.930 . S
C556 N554 1.400 . S
C556 C557 1.351 . S
C556 H573 0.930 . S
C557 N553 1.389 . S
C557 C556 1.351 . S
C557 H562 0.930 . S
O558 Cu552 1.974 . S
O558 C568 1.282 . S
C559 O560 1.261 . S
C559 O572 1.251 . S
O560 C559 1.261 . S
H561 C555 0.930 . S
H562 C557 0.930 . S
N563 Cu552 1.985 . S
N563 C565 1.335 . S
N563 C566 1.390 . S
N564 C565 1.345 . S
N564 C567 1.336 . S
C565 N563 1.335 . S
C565 N564 1.345 . S
C565 H570 0.930 . S
C566 N563 1.390 . S
C566 C567 1.346 . S
C566 H571 0.930 . S
C567 N564 1.336 . S
C567 C566 1.346 . S
C567 H574 0.929 . S
C568 O558 1.282 . S
C568 O569 1.216 . S
O569 C568 1.216 . S
H570 C565 0.930 . S
H571 C566 0.930 . S
O572 Cu552 1.959 . S
O572 C559 1.251 . S
H573 C556 0.930 . S
H574 C567 0.929 . S
Cu575 N576 1.999 . S
Cu575 O581 1.974 . S
Cu575 N586 1.985 . S
Cu575 O595 1.959 . S
N576 Cu575 1.999 . S
N576 C578 1.263 . S
N576 C580 1.389 . S
N577 C578 1.358 . S
N577 C579 1.400 . S
C578 N576 1.263 . S
C578 N577 1.358 . S
C578 H584 0.930 . S
C579 N577 1.400 . S
C579 C580 1.351 . S
C579 H596 0.930 . S
C580 N576 1.389 . S
C580 C579 1.351 . S
C580 H585 0.930 . S
O581 Cu575 1.974 . S
O581 C591 1.282 . S
C582 O583 1.261 . S
C582 O595 1.251 . S
O583 C582 1.261 . S
H584 C578 0.930 . S
H585 C580 0.930 . S
N586 Cu575 1.985 . S
N586 C588 1.335 . S
N586 C589 1.390 . S
N587 C588 1.345 . S
N587 C590 1.336 . S
C588 N586 1.335 . S
C588 N587 1.345 . S
C588 H593 0.930 . S
C589 N586 1.390 . S
C589 C590 1.346 . S
C589 H594 0.930 . S
C590 N587 1.336 . S
C590 C589 1.346 . S
C590 H597 0.929 . S
C591 O581 1.282 . S
C591 O592 1.216 . S
O592 C591 1.216 . S
H593 C588 0.930 . S
H594 C589 0.930 . S
O595 Cu575 1.959 . S
O595 C582 1.251 . S
H596 C579 0.930 . S
H597 C590 0.929 . S
Cu598 N599 1.999 . S
Cu598 O604 1.974 . S
Cu598 N609 1.985 . S
Cu598 O618 1.959 . S
N599 Cu598 1.999 . S
N599 C601 1.263 . S
N599 C603 1.389 . S
N600 C601 1.358 . S
N600 C602 1.400 . S
C601 N599 1.263 . S
C601 N600 1.358 . S
C601 H607 0.930 . S
C602 N600 1.400 . S
C602 C603 1.351 . S
C602 H619 0.930 . S
C603 N599 1.389 . S
C603 C602 1.351 . S
C603 H608 0.930 . S
O604 Cu598 1.974 . S
O604 C614 1.282 . S
C605 O606 1.261 . S
C605 O618 1.251 . S
O606 C605 1.261 . S
H607 C601 0.930 . S
H608 C603 0.930 . S
N609 Cu598 1.985 . S
N609 C611 1.335 . S
N609 C612 1.390 . S
N610 C611 1.345 . S
N610 C613 1.336 . S
C611 N609 1.335 . S
C611 N610 1.345 . S
C611 H616 0.930 . S
C612 N609 1.390 . S
C612 C613 1.346 . S
C612 H617 0.930 . S
C613 N610 1.336 . S
C613 C612 1.346 . S
C613 H620 0.929 . S
C614 O604 1.282 . S
C614 O615 1.216 . S
O615 C614 1.216 . S
H616 C611 0.930 . S
H617 C612 0.930 . S
O618 Cu598 1.959 . S
O618 C605 1.251 . S
H619 C602 0.930 . S
H620 C613 0.929 . S
Cu621 N622 1.999 . S
Cu621 O627 1.974 . S
Cu621 N632 1.985 . S
Cu621 O641 1.959 . S
N622 Cu621 1.999 . S
N622 C624 1.263 . S
N622 C626 1.389 . S
N623 C624 1.358 . S
N623 C625 1.400 . S
C624 N622 1.263 . S
C624 N623 1.358 . S
C624 H630 0.930 . S
C625 N623 1.400 . S
C625 C626 1.351 . S
C625 H642 0.930 . S
C626 N622 1.389 . S
C626 C625 1.351 . S
C626 H631 0.930 . S
O627 Cu621 1.974 . S
O627 C637 1.282 . S
C628 O629 1.261 . S
C628 O641 1.251 . S
O629 C628 1.261 . S
H630 C624 0.930 . S
H631 C626 0.930 . S
N632 Cu621 1.985 . S
N632 C634 1.335 . S
N632 C635 1.390 . S
N633 C634 1.345 . S
N633 C636 1.336 . S
C634 N632 1.335 . S
C634 N633 1.345 . S
C634 H639 0.930 . S
C635 N632 1.390 . S
C635 C636 1.346 . S
C635 H640 0.930 . S
C636 N633 1.336 . S
C636 C635 1.346 . S
C636 H643 0.929 . S
C637 O627 1.282 . S
C637 O638 1.216 . S
O638 C637 1.216 . S
H639 C634 0.930 . S
H640 C635 0.930 . S
O641 Cu621 1.959 . S
O641 C628 1.251 . S
H642 C625 0.930 . S
H643 C636 0.929 . S
Cu644 N645 1.999 . S
Cu644 O650 1.974 . S
Cu644 N655 1.985 . S
Cu644 O664 1.959 . S
N645 Cu644 1.999 . S
N645 C647 1.263 . S
N645 C649 1.389 . S
N646 C647 1.358 . S
N646 C648 1.400 . S
C647 N645 1.263 . S
C647 N646 1.358 . S
C647 H653 0.930 . S
C648 N646 1.400 . S
C648 C649 1.351 . S
C648 H665 0.930 . S
C649 N645 1.389 . S
C649 C648 1.351 . S
C649 H654 0.930 . S
O650 Cu644 1.974 . S
O650 C660 1.282 . S
C651 O652 1.261 . S
C651 O664 1.251 . S
O652 C651 1.261 . S
H653 C647 0.930 . S
H654 C649 0.930 . S
N655 Cu644 1.985 . S
N655 C657 1.335 . S
N655 C658 1.390 . S
N656 C657 1.345 . S
N656 C659 1.336 . S
C657 N655 1.335 . S
C657 N656 1.345 . S
C657 H662 0.930 . S
C658 N655 1.390 . S
C658 C659 1.346 . S
C658 H663 0.930 . S
C659 N656 1.336 . S
C659 C658 1.346 . S
C659 H666 0.929 . S
C660 O650 1.282 . S
C660 O661 1.216 . S
O661 C660 1.216 . S
H662 C657 0.930 . S
H663 C658 0.930 . S
O664 Cu644 1.959 . S
O664 C651 1.251 . S
H665 C648 0.930 . S
H666 C659 0.929 . S
Cu667 N668 1.999 . S
Cu667 O673 1.974 . S
Cu667 N678 1.985 . S
Cu667 O687 1.959 . S
N668 Cu667 1.999 . S
N668 C670 1.263 . S
N668 C672 1.389 . S
N669 C670 1.358 . S
N669 C671 1.400 . S
C670 N668 1.263 . S
C670 N669 1.358 . S
C670 H676 0.930 . S
C671 N669 1.400 . S
C671 C672 1.351 . S
C671 H688 0.930 . S
C672 N668 1.389 . S
C672 C671 1.351 . S
C672 H677 0.930 . S
O673 Cu667 1.974 . S
O673 C683 1.282 . S
C674 O675 1.261 . S
C674 O687 1.251 . S
O675 C674 1.261 . S
H676 C670 0.930 . S
H677 C672 0.930 . S
N678 Cu667 1.985 . S
N678 C680 1.335 . S
N678 C681 1.390 . S
N679 C680 1.345 . S
N679 C682 1.336 . S
C680 N678 1.335 . S
C680 N679 1.345 . S
C680 H685 0.930 . S
C681 N678 1.390 . S
C681 C682 1.346 . S
C681 H686 0.930 . S
C682 N679 1.336 . S
C682 C681 1.346 . S
C682 H689 0.929 . S
C683 O673 1.282 . S
C683 O684 1.216 . S
O684 C683 1.216 . S
H685 C680 0.930 . S
H686 C681 0.930 . S
O687 Cu667 1.959 . S
O687 C674 1.251 . S
H688 C671 0.930 . S
H689 C682 0.929 . S
Cu690 N691 1.999 . S
Cu690 O696 1.974 . S
Cu690 N701 1.985 . S
Cu690 O710 1.959 . S
N691 Cu690 1.999 . S
N691 C693 1.263 . S
N691 C695 1.389 . S
N692 C693 1.358 . S
N692 C694 1.400 . S
C693 N691 1.263 . S
C693 N692 1.358 . S
C693 H699 0.930 . S
C694 N692 1.400 . S
C694 C695 1.351 . S
C694 H711 0.930 . S
C695 N691 1.389 . S
C695 C694 1.351 . S
C695 H700 0.930 . S
O696 Cu690 1.974 . S
O696 C706 1.282 . S
C697 O698 1.261 . S
C697 O710 1.251 . S
O698 C697 1.261 . S
H699 C693 0.930 . S
H700 C695 0.930 . S
N701 Cu690 1.985 . S
N701 C703 1.335 . S
N701 C704 1.390 . S
N702 C703 1.345 . S
N702 C705 1.336 . S
C703 N701 1.335 . S
C703 N702 1.345 . S
C703 H708 0.930 . S
C704 N701 1.390 . S
C704 C705 1.346 . S
C704 H709 0.930 . S
C705 N702 1.336 . S
C705 C704 1.346 . S
C705 H712 0.929 . S
C706 O696 1.282 . S
C706 O707 1.216 . S
O707 C706 1.216 . S
H708 C703 0.930 . S
H709 C704 0.930 . S
O710 Cu690 1.959 . S
O710 C697 1.251 . S
H711 C694 0.930 . S
H712 C705 0.929 . S
Cu713 N714 1.999 . S
Cu713 O719 1.974 . S
Cu713 N724 1.985 . S
Cu713 O733 1.959 . S
N714 Cu713 1.999 . S
N714 C716 1.263 . S
N714 C718 1.389 . S
N715 C716 1.358 . S
N715 C717 1.400 . S
C716 N714 1.263 . S
C716 N715 1.358 . S
C716 H722 0.930 . S
C717 N715 1.400 . S
C717 C718 1.351 . S
C717 H734 0.930 . S
C718 N714 1.389 . S
C718 C717 1.351 . S
C718 H723 0.930 . S
O719 Cu713 1.974 . S
O719 C729 1.282 . S
C720 O721 1.261 . S
C720 O733 1.251 . S
O721 C720 1.261 . S
H722 C716 0.930 . S
H723 C718 0.930 . S
N724 Cu713 1.985 . S
N724 C726 1.335 . S
N724 C727 1.390 . S
N725 C726 1.345 . S
N725 C728 1.336 . S
C726 N724 1.335 . S
C726 N725 1.345 . S
C726 H731 0.930 . S
C727 N724 1.390 . S
C727 C728 1.346 . S
C727 H732 0.930 . S
C728 N725 1.336 . S
C728 C727 1.346 . S
C728 H735 0.929 . S
C729 O719 1.282 . S
C729 O730 1.216 . S
O730 C729 1.216 . S
H731 C726 0.930 . S
H732 C727 0.930 . S
O733 Cu713 1.959 . S
O733 C720 1.251 . S
H734 C717 0.930 . S
H735 C728 0.929 . S
C736 C737 1.369 . S
C736 C738 1.419 . S
C736 H740 0.930 . S
C737 C736 1.369 . S
C737 C746 1.429 . S
C738 C736 1.419 . S
C738 C739 1.363 . S
C738 H741 0.929 . S
C739 C738 1.363 . S
C739 C745 1.428 . S
H740 C736 0.930 . S
H741 C738 0.929 . S
S742 N743 1.613 . S
S742 N744 1.610 . S
N743 S742 1.613 . S
N743 C746 1.350 . S
N744 S742 1.610 . S
N744 C745 1.351 . S
C745 C739 1.428 . S
C745 N744 1.351 . S
C745 C746 1.434 . S
C746 C737 1.429 . S
C746 N743 1.350 . S
C746 C745 1.434 . S
C747 C748 1.369 . S
C747 C749 1.419 . S
C747 H751 0.930 . S
C748 C747 1.369 . S
C748 C757 1.429 . S
C749 C747 1.419 . S
C749 C750 1.363 . S
C749 H752 0.929 . S
C750 C749 1.363 . S
C750 C756 1.428 . S
H751 C747 0.930 . S
H752 C749 0.929 . S
S753 N754 1.613 . S
S753 N755 1.610 . S
N754 S753 1.613 . S
N754 C757 1.350 . S
N755 S753 1.610 . S
N755 C756 1.351 . S
C756 C750 1.428 . S
C756 N755 1.351 . S
C756 C757 1.434 . S
C757 C748 1.429 . S
C757 N754 1.350 . S
C757 C756 1.434 . S
C758 C759 1.369 . S
C758 C760 1.419 . S
C758 H762 0.930 . S
C759 C758 1.369 . S
C759 C768 1.429 . S
C760 C758 1.419 . S
C760 C761 1.363 . S
C760 H763 0.929 . S
C761 C760 1.363 . S
C761 C767 1.428 . S
H762 C758 0.930 . S
H763 C760 0.929 . S
S764 N765 1.613 . S
S764 N766 1.610 . S
N765 S764 1.613 . S
N765 C768 1.350 . S
N766 S764 1.610 . S
N766 C767 1.351 . S
C767 C761 1.428 . S
C767 N766 1.351 . S
C767 C768 1.434 . S
C768 C759 1.429 . S
C768 N765 1.350 . S
C768 C767 1.434 . S
C769 C770 1.369 . S
C769 C771 1.419 . S
C769 H773 0.930 . S
C770 C769 1.369 . S
C770 C779 1.429 . S
C771 C769 1.419 . S
C771 C772 1.363 . S
C771 H774 0.929 . S
C772 C771 1.363 . S
C772 C778 1.428 . S
H773 C769 0.930 . S
H774 C771 0.929 . S
S775 N776 1.613 . S
S775 N777 1.610 . S
N776 S775 1.613 . S
N776 C779 1.350 . S
N777 S775 1.610 . S
N777 C778 1.351 . S
C778 C772 1.428 . S
C778 N777 1.351 . S
C778 C779 1.434 . S
C779 C770 1.429 . S
C779 N776 1.350 . S
C779 C778 1.434 . S
C780 C781 1.369 . S
C780 C782 1.419 . S
C780 H784 0.930 . S
C781 C780 1.369 . S
C781 C790 1.429 . S
C782 C780 1.419 . S
C782 C783 1.363 . S
C782 H785 0.929 . S
C783 C782 1.363 . S
C783 C789 1.428 . S
H784 C780 0.930 . S
H785 C782 0.929 . S
S786 N787 1.613 . S
S786 N788 1.610 . S
N787 S786 1.613 . S
N787 C790 1.350 . S
N788 S786 1.610 . S
N788 C789 1.351 . S
C789 C783 1.428 . S
C789 N788 1.351 . S
C789 C790 1.434 . S
C790 C781 1.429 . S
C790 N787 1.350 . S
C790 C789 1.434 . S
C791 C792 1.369 . S
C791 C793 1.419 . S
C791 H795 0.930 . S
C792 C791 1.369 . S
C792 C801 1.429 . S
C793 C791 1.419 . S
C793 C794 1.363 . S
C793 H796 0.929 . S
C794 C793 1.363 . S
C794 C800 1.428 . S
H795 C791 0.930 . S
H796 C793 0.929 . S
S797 N798 1.613 . S
S797 N799 1.610 . S
N798 S797 1.613 . S
N798 C801 1.350 . S
N799 S797 1.610 . S
N799 C800 1.351 . S
C800 C794 1.428 . S
C800 N799 1.351 . S
C800 C801 1.434 . S
C801 C792 1.429 . S
C801 N798 1.350 . S
C801 C800 1.434 . S
C802 C803 1.369 . S
C802 C804 1.419 . S
C802 H806 0.930 . S
C803 C802 1.369 . S
C803 C812 1.429 . S
C804 C802 1.419 . S
C804 C805 1.363 . S
C804 H807 0.929 . S
C805 C804 1.363 . S
C805 C811 1.428 . S
H806 C802 0.930 . S
H807 C804 0.929 . S
S808 N809 1.613 . S
S808 N810 1.610 . S
N809 S808 1.613 . S
N809 C812 1.350 . S
N810 S808 1.610 . S
N810 C811 1.351 . S
C811 C805 1.428 . S
C811 N810 1.351 . S
C811 C812 1.434 . S
C812 C803 1.429 . S
C812 N809 1.350 . S
C812 C811 1.434 . S
C813 C814 1.369 . S
C813 C815 1.419 . S
C813 H817 0.930 . S
C814 C813 1.369 . S
C814 C823 1.429 . S
C815 C813 1.419 . S
C815 C816 1.363 . S
C815 H818 0.929 . S
C816 C815 1.363 . S
C816 C822 1.428 . S
H817 C813 0.930 . S
H818 C815 0.929 . S
S819 N820 1.613 . S
S819 N821 1.610 . S
N820 S819 1.613 . S
N820 C823 1.350 . S
N821 S819 1.610 . S
N821 C822 1.351 . S
C822 C816 1.428 . S
C822 N821 1.351 . S
C822 C823 1.434 . S
C823 C814 1.429 . S
C823 N820 1.350 . S
C823 C822 1.434 . S
C824 C825 1.369 . S
C824 C826 1.419 . S
C824 H828 0.930 . S
C825 C824 1.369 . S
C825 C834 1.429 . S
C826 C824 1.419 . S
C826 C827 1.363 . S
C826 H829 0.929 . S
C827 C826 1.363 . S
C827 C833 1.428 . S
H828 C824 0.930 . S
H829 C826 0.929 . S
S830 N831 1.613 . S
S830 N832 1.610 . S
N831 S830 1.613 . S
N831 C834 1.350 . S
N832 S830 1.610 . S
N832 C833 1.351 . S
C833 C827 1.428 . S
C833 N832 1.351 . S
C833 C834 1.434 . S
C834 C825 1.429 . S
C834 N831 1.350 . S
C834 C833 1.434 . S
C835 C836 1.369 . S
C835 C837 1.419 . S
C835 H839 0.930 . S
C836 C835 1.369 . S
C836 C845 1.429 . S
C837 C835 1.419 . S
C837 C838 1.363 . S
C837 H840 0.929 . S
C838 C837 1.363 . S
C838 C844 1.428 . S
H839 C835 0.930 . S
H840 C837 0.929 . S
S841 N842 1.613 . S
S841 N843 1.610 . S
N842 S841 1.613 . S
N842 C845 1.350 . S
N843 S841 1.610 . S
N843 C844 1.351 . S
C844 C838 1.428 . S
C844 N843 1.351 . S
C844 C845 1.434 . S
C845 C836 1.429 . S
C845 N842 1.350 . S
C845 C844 1.434 . S
C846 C847 1.369 . S
C846 C848 1.419 . S
C846 H850 0.930 . S
C847 C846 1.369 . S
C847 C856 1.429 . S
C848 C846 1.419 . S
C848 C849 1.363 . S
C848 H851 0.929 . S
C849 C848 1.363 . S
C849 C855 1.428 . S
H850 C846 0.930 . S
H851 C848 0.929 . S
S852 N853 1.613 . S
S852 N854 1.610 . S
N853 S852 1.613 . S
N853 C856 1.350 . S
N854 S852 1.610 . S
N854 C855 1.351 . S
C855 C849 1.428 . S
C855 N854 1.351 . S
C855 C856 1.434 . S
C856 C847 1.429 . S
C856 N853 1.350 . S
C856 C855 1.434 . S
C857 C858 1.369 . S
C857 C859 1.419 . S
C857 H861 0.930 . S
C858 C857 1.369 . S
C858 C867 1.429 . S
C859 C857 1.419 . S
C859 C860 1.363 . S
C859 H862 0.929 . S
C860 C859 1.363 . S
C860 C866 1.428 . S
H861 C857 0.930 . S
H862 C859 0.929 . S
S863 N864 1.613 . S
S863 N865 1.610 . S
N864 S863 1.613 . S
N864 C867 1.350 . S
N865 S863 1.610 . S
N865 C866 1.351 . S
C866 C860 1.428 . S
C866 N865 1.351 . S
C866 C867 1.434 . S
C867 C858 1.429 . S
C867 N864 1.350 . S
C867 C866 1.434 . S
C868 C869 1.369 . S
C868 C870 1.419 . S
C868 H872 0.930 . S
C869 C868 1.369 . S
C869 C878 1.429 . S
C870 C868 1.419 . S
C870 C871 1.363 . S
C870 H873 0.929 . S
C871 C870 1.363 . S
C871 C877 1.428 . S
H872 C868 0.930 . S
H873 C870 0.929 . S
S874 N875 1.613 . S
S874 N876 1.610 . S
N875 S874 1.613 . S
N875 C878 1.350 . S
N876 S874 1.610 . S
N876 C877 1.351 . S
C877 C871 1.428 . S
C877 N876 1.351 . S
C877 C878 1.434 . S
C878 C869 1.429 . S
C878 N875 1.350 . S
C878 C877 1.434 . S
C879 C880 1.369 . S
C879 C881 1.419 . S
C879 H883 0.930 . S
C880 C879 1.369 . S
C880 C889 1.429 . S
C881 C879 1.419 . S
C881 C882 1.363 . S
C881 H884 0.929 . S
C882 C881 1.363 . S
C882 C888 1.428 . S
H883 C879 0.930 . S
H884 C881 0.929 . S
S885 N886 1.613 . S
S885 N887 1.610 . S
N886 S885 1.613 . S
N886 C889 1.350 . S
N887 S885 1.610 . S
N887 C888 1.351 . S
C888 C882 1.428 . S
C888 N887 1.351 . S
C888 C889 1.434 . S
C889 C880 1.429 . S
C889 N886 1.350 . S
C889 C888 1.434 . S
C890 C891 1.369 . S
C890 C892 1.419 . S
C890 H894 0.930 . S
C891 C890 1.369 . S
C891 C900 1.429 . S
C892 C890 1.419 . S
C892 C893 1.363 . S
C892 H895 0.929 . S
C893 C892 1.363 . S
C893 C899 1.428 . S
H894 C890 0.930 . S
H895 C892 0.929 . S
S896 N897 1.613 . S
S896 N898 1.610 . S
N897 S896 1.613 . S
N897 C900 1.350 . S
N898 S896 1.610 . S
N898 C899 1.351 . S
C899 C893 1.428 . S
C899 N898 1.351 . S
C899 C900 1.434 . S
C900 C891 1.429 . S
C900 N897 1.350 . S
C900 C899 1.434 . S
C901 C902 1.369 . S
C901 C903 1.419 . S
C901 H905 0.930 . S
C902 C901 1.369 . S
C902 C911 1.429 . S
C903 C901 1.419 . S
C903 C904 1.363 . S
C903 H906 0.929 . S
C904 C903 1.363 . S
C904 C910 1.428 . S
H905 C901 0.930 . S
H906 C903 0.929 . S
S907 N908 1.613 . S
S907 N909 1.610 . S
N908 S907 1.613 . S
N908 C911 1.350 . S
N909 S907 1.610 . S
N909 C910 1.351 . S
C910 C904 1.428 . S
C910 N909 1.351 . S
C910 C911 1.434 . S
C911 C902 1.429 . S
C911 N908 1.350 . S
C911 C910 1.434 . S
C912 C913 1.369 . S
C912 C914 1.419 1_655 S
C912 H916 0.930 . S
C913 C912 1.369 . S
C913 C922 1.429 . S
C914 C912 1.419 1_455 S
C914 C915 1.363 . S
C914 H917 0.929 . S
C915 C914 1.363 . S
C915 C921 1.428 . S
H916 C912 0.930 . S
H917 C914 0.929 . S
S918 N919 1.617 1_455 S
S918 N920 1.607 . S
N919 S918 1.617 1_655 S
N919 C922 1.350 . S
N920 S918 1.607 . S
N920 C921 1.351 . S
C921 C915 1.428 . S
C921 N920 1.351 . S
C921 C922 1.434 1_455 S
C922 C913 1.429 . S
C922 N919 1.350 . S
C922 C921 1.434 1_655 S
C923 C924 1.369 . S
C923 C925 1.419 1_545 S
C923 H927 0.930 . S
C924 C923 1.369 . S
C924 C933 1.429 . S
C925 C923 1.419 1_565 S
C925 C926 1.363 . S
C925 H928 0.929 . S
C926 C925 1.363 . S
C926 C932 1.428 . S
H927 C923 0.930 . S
H928 C925 0.929 . S
S929 N930 1.617 1_565 S
S929 N931 1.607 . S
N930 S929 1.617 1_545 S
N930 C933 1.350 . S
N931 S929 1.607 . S
N931 C932 1.351 . S
C932 C926 1.428 . S
C932 N931 1.351 . S
C932 C933 1.434 1_565 S
C933 C924 1.429 . S
C933 N930 1.350 . S
C933 C932 1.434 1_545 S
C934 C935 1.369 . S
C934 C936 1.419 1_455 S
C934 H938 0.930 . S
C935 C934 1.369 . S
C935 C944 1.429 . S
C936 C934 1.419 1_655 S
C936 C937 1.363 . S
C936 H939 0.929 . S
C937 C936 1.363 . S
C937 C943 1.428 . S
H938 C934 0.930 . S
H939 C936 0.929 . S
S940 N941 1.617 1_655 S
S940 N942 1.607 . S
N941 S940 1.617 1_455 S
N941 C944 1.350 . S
N942 S940 1.607 . S
N942 C943 1.351 . S
C943 C937 1.428 . S
C943 N942 1.351 . S
C943 C944 1.434 1_655 S
C944 C935 1.429 . S
C944 N941 1.350 . S
C944 C943 1.434 1_455 S
C945 C946 1.369 . S
C945 C947 1.419 1_565 S
C945 H949 0.930 . S
C946 C945 1.369 . S
C946 C955 1.429 . S
C947 C945 1.419 1_545 S
C947 C948 1.363 . S
C947 H950 0.929 . S
C948 C947 1.363 . S
C948 C954 1.428 . S
H949 C945 0.930 . S
H950 C947 0.929 . S
S951 N952 1.617 1_545 S
S951 N953 1.607 . S
N952 S951 1.617 1_565 S
N952 C955 1.350 . S
N953 S951 1.607 . S
N953 C954 1.351 . S
C954 C948 1.428 . S
C954 N953 1.351 . S
C954 C955 1.434 1_545 S
C955 C946 1.429 . S
C955 N952 1.350 . S
C955 C954 1.434 1_565 S
C956 C957 1.369 . S
C956 C958 1.419 1_455 S
C956 H960 0.930 . S
C957 C956 1.369 . S
C957 C966 1.429 . S
C958 C956 1.419 1_655 S
C958 C959 1.363 . S
C958 H961 0.929 . S
C959 C958 1.363 . S
C959 C965 1.428 . S
H960 C956 0.930 . S
H961 C958 0.929 . S
S962 N963 1.617 1_655 S
S962 N964 1.607 . S
N963 S962 1.617 1_455 S
N963 C966 1.350 . S
N964 S962 1.607 . S
N964 C965 1.351 . S
C965 C959 1.428 . S
C965 N964 1.351 . S
C965 C966 1.434 1_655 S
C966 C957 1.429 . S
C966 N963 1.350 . S
C966 C965 1.434 1_455 S
C967 C968 1.369 . S
C967 C969 1.419 1_565 S
C967 H971 0.930 . S
C968 C967 1.369 . S
C968 C977 1.429 . S
C969 C967 1.419 1_545 S
C969 C970 1.363 . S
C969 H972 0.929 . S
C970 C969 1.363 . S
C970 C976 1.428 . S
H971 C967 0.930 . S
H972 C969 0.929 . S
S973 N974 1.617 1_545 S
S973 N975 1.607 . S
N974 S973 1.617 1_565 S
N974 C977 1.350 . S
N975 S973 1.607 . S
N975 C976 1.351 . S
C976 C970 1.428 . S
C976 N975 1.351 . S
C976 C977 1.434 1_545 S
C977 C968 1.429 . S
C977 N974 1.350 . S
C977 C976 1.434 1_565 S
C978 C979 1.369 . S
C978 C980 1.419 1_455 S
C978 H982 0.930 . S
C979 C978 1.369 . S
C979 C988 1.429 . S
C980 C978 1.419 1_655 S
C980 C981 1.363 . S
C980 H983 0.929 . S
C981 C980 1.363 . S
C981 C987 1.428 . S
H982 C978 0.930 . S
H983 C980 0.929 . S
S984 N985 1.617 1_655 S
S984 N986 1.607 . S
N985 S984 1.617 1_455 S
N985 C988 1.350 . S
N986 S984 1.607 . S
N986 C987 1.351 . S
C987 C981 1.428 . S
C987 N986 1.351 . S
C987 C988 1.434 1_655 S
C988 C979 1.429 . S
C988 N985 1.350 . S
C988 C987 1.434 1_455 S
C989 C990 1.369 . S
C989 C991 1.419 1_545 S
C989 H993 0.930 . S
C990 C989 1.369 . S
C990 C999 1.429 . S
C991 C989 1.419 1_565 S
C991 C992 1.363 . S
C991 H994 0.929 . S
C992 C991 1.363 . S
C992 C998 1.428 . S
H993 C989 0.930 . S
H994 C991 0.929 . S
S995 N996 1.617 1_565 S
S995 N997 1.607 . S
N996 S995 1.617 1_545 S
N996 C999 1.350 . S
N997 S995 1.607 . S
N997 C998 1.351 . S
C998 C992 1.428 . S
C998 N997 1.351 . S
C998 C999 1.434 1_565 S
C999 C990 1.429 . S
C999 N996 1.350 . S
C999 C998 1.434 1_545 S
C1000 C1001 1.369 . S
C1000 C1002 1.419 . S
C1000 H1004 0.930 . S
C1001 C1000 1.369 . S
C1001 C1010 1.429 . S
C1002 C1000 1.419 . S
C1002 C1003 1.363 . S
C1002 H1005 0.929 . S
C1003 C1002 1.363 . S
C1003 C1009 1.428 . S
H1004 C1000 0.930 . S
H1005 C1002 0.929 . S
S1006 N1007 1.613 . S
S1006 N1008 1.610 . S
N1007 S1006 1.613 . S
N1007 C1010 1.350 . S
N1008 S1006 1.610 . S
N1008 C1009 1.351 . S
C1009 C1003 1.428 . S
C1009 N1008 1.351 . S
C1009 C1010 1.434 . S
C1010 C1001 1.429 . S
C1010 N1007 1.350 . S
C1010 C1009 1.434 . S
C1011 C1012 1.369 . S
C1011 C1013 1.419 . S
C1011 H1015 0.930 . S
C1012 C1011 1.369 . S
C1012 C1021 1.429 . S
C1013 C1011 1.419 . S
C1013 C1014 1.363 . S
C1013 H1016 0.929 . S
C1014 C1013 1.363 . S
C1014 C1020 1.428 . S
H1015 C1011 0.930 . S
H1016 C1013 0.929 . S
S1017 N1018 1.613 . S
S1017 N1019 1.610 . S
N1018 S1017 1.613 . S
N1018 C1021 1.350 . S
N1019 S1017 1.610 . S
N1019 C1020 1.351 . S
C1020 C1014 1.428 . S
C1020 N1019 1.351 . S
C1020 C1021 1.434 . S
C1021 C1012 1.429 . S
C1021 N1018 1.350 . S
C1021 C1020 1.434 . S
C1022 C1023 1.369 . S
C1022 C1024 1.419 . S
C1022 H1026 0.930 . S
C1023 C1022 1.369 . S
C1023 C1032 1.429 . S
C1024 C1022 1.419 . S
C1024 C1025 1.363 . S
C1024 H1027 0.929 . S
C1025 C1024 1.363 . S
C1025 C1031 1.428 . S
H1026 C1022 0.930 . S
H1027 C1024 0.929 . S
S1028 N1029 1.613 . S
S1028 N1030 1.610 . S
N1029 S1028 1.613 . S
N1029 C1032 1.350 . S
N1030 S1028 1.610 . S
N1030 C1031 1.351 . S
C1031 C1025 1.428 . S
C1031 N1030 1.351 . S
C1031 C1032 1.434 . S
C1032 C1023 1.429 . S
C1032 N1029 1.350 . S
C1032 C1031 1.434 . S
C1033 C1034 1.369 . S
C1033 C1035 1.419 . S
C1033 H1037 0.930 . S
C1034 C1033 1.369 . S
C1034 C1043 1.429 . S
C1035 C1033 1.419 . S
C1035 C1036 1.363 . S
C1035 H1038 0.929 . S
C1036 C1035 1.363 . S
C1036 C1042 1.428 . S
H1037 C1033 0.930 . S
H1038 C1035 0.929 . S
S1039 N1040 1.613 . S
S1039 N1041 1.610 . S
N1040 S1039 1.613 . S
N1040 C1043 1.350 . S
N1041 S1039 1.610 . S
N1041 C1042 1.351 . S
C1042 C1036 1.428 . S
C1042 N1041 1.351 . S
C1042 C1043 1.434 . S
C1043 C1034 1.429 . S
C1043 N1040 1.350 . S
C1043 C1042 1.434 . S
C1044 C1045 1.369 . S
C1044 C1046 1.419 . S
C1044 H1048 0.930 . S
C1045 C1044 1.369 . S
C1045 C1054 1.429 . S
C1046 C1044 1.419 . S
C1046 C1047 1.363 . S
C1046 H1049 0.929 . S
C1047 C1046 1.363 . S
C1047 C1053 1.428 . S
H1048 C1044 0.930 . S
H1049 C1046 0.929 . S
S1050 N1051 1.613 . S
S1050 N1052 1.610 . S
N1051 S1050 1.613 . S
N1051 C1054 1.350 . S
N1052 S1050 1.610 . S
N1052 C1053 1.351 . S
C1053 C1047 1.428 . S
C1053 N1052 1.351 . S
C1053 C1054 1.434 . S
C1054 C1045 1.429 . S
C1054 N1051 1.350 . S
C1054 C1053 1.434 . S
C1055 C1056 1.369 . S
C1055 C1057 1.419 . S
C1055 H1059 0.930 . S
C1056 C1055 1.369 . S
C1056 C1065 1.429 . S
C1057 C1055 1.419 . S
C1057 C1058 1.363 . S
C1057 H1060 0.929 . S
C1058 C1057 1.363 . S
C1058 C1064 1.428 . S
H1059 C1055 0.930 . S
H1060 C1057 0.929 . S
S1061 N1062 1.613 . S
S1061 N1063 1.610 . S
N1062 S1061 1.613 . S
N1062 C1065 1.350 . S
N1063 S1061 1.610 . S
N1063 C1064 1.351 . S
C1064 C1058 1.428 . S
C1064 N1063 1.351 . S
C1064 C1065 1.434 . S
C1065 C1056 1.429 . S
C1065 N1062 1.350 . S
C1065 C1064 1.434 . S
C1066 C1067 1.369 . S
C1066 C1068 1.419 . S
C1066 H1070 0.930 . S
C1067 C1066 1.369 . S
C1067 C1076 1.429 . S
C1068 C1066 1.419 . S
C1068 C1069 1.363 . S
C1068 H1071 0.929 . S
C1069 C1068 1.363 . S
C1069 C1075 1.428 . S
H1070 C1066 0.930 . S
H1071 C1068 0.929 . S
S1072 N1073 1.613 . S
S1072 N1074 1.610 . S
N1073 S1072 1.613 . S
N1073 C1076 1.350 . S
N1074 S1072 1.610 . S
N1074 C1075 1.351 . S
C1075 C1069 1.428 . S
C1075 N1074 1.351 . S
C1075 C1076 1.434 . S
C1076 C1067 1.429 . S
C1076 N1073 1.350 . S
C1076 C1075 1.434 . S
C1077 C1078 1.369 . S
C1077 C1079 1.419 . S
C1077 H1081 0.930 . S
C1078 C1077 1.369 . S
C1078 C1087 1.429 . S
C1079 C1077 1.419 . S
C1079 C1080 1.363 . S
C1079 H1082 0.929 . S
C1080 C1079 1.363 . S
C1080 C1086 1.428 . S
H1081 C1077 0.930 . S
H1082 C1079 0.929 . S
S1083 N1084 1.613 . S
S1083 N1085 1.610 . S
N1084 S1083 1.613 . S
N1084 C1087 1.350 . S
N1085 S1083 1.610 . S
N1085 C1086 1.351 . S
C1086 C1080 1.428 . S
C1086 N1085 1.351 . S
C1086 C1087 1.434 . S
C1087 C1078 1.429 . S
C1087 N1084 1.350 . S
C1087 C1086 1.434 . S
C1088 C1089 1.369 . S
C1088 C1090 1.419 . S
C1088 H1092 0.930 . S
C1089 C1088 1.369 . S
C1089 C1098 1.429 . S
C1090 C1088 1.419 . S
C1090 C1091 1.363 . S
C1090 H1093 0.929 . S
C1091 C1090 1.363 . S
C1091 C1097 1.428 . S
H1092 C1088 0.930 . S
H1093 C1090 0.929 . S
S1094 N1095 1.613 . S
S1094 N1096 1.610 . S
N1095 S1094 1.613 . S
N1095 C1098 1.350 . S
N1096 S1094 1.610 . S
N1096 C1097 1.351 . S
C1097 C1091 1.428 . S
C1097 N1096 1.351 . S
C1097 C1098 1.434 . S
C1098 C1089 1.429 . S
C1098 N1095 1.350 . S
C1098 C1097 1.434 . S
C1099 C1100 1.369 . S
C1099 C1101 1.419 . S
C1099 H1103 0.930 . S
C1100 C1099 1.369 . S
C1100 C1109 1.429 . S
C1101 C1099 1.419 . S
C1101 C1102 1.363 . S
C1101 H1104 0.929 . S
C1102 C1101 1.363 . S
C1102 C1108 1.428 . S
H1103 C1099 0.930 . S
H1104 C1101 0.929 . S
S1105 N1106 1.613 . S
S1105 N1107 1.610 . S
N1106 S1105 1.613 . S
N1106 C1109 1.350 . S
N1107 S1105 1.610 . S
N1107 C1108 1.351 . S
C1108 C1102 1.428 . S
C1108 N1107 1.351 . S
C1108 C1109 1.434 . S
C1109 C1100 1.429 . S
C1109 N1106 1.350 . S
C1109 C1108 1.434 . S
C1110 C1111 1.369 . S
C1110 C1112 1.419 . S
C1110 H1114 0.930 . S
C1111 C1110 1.369 . S
C1111 C1120 1.429 . S
C1112 C1110 1.419 . S
C1112 C1113 1.363 . S
C1112 H1115 0.929 . S
C1113 C1112 1.363 . S
C1113 C1119 1.428 . S
H1114 C1110 0.930 . S
H1115 C1112 0.929 . S
S1116 N1117 1.613 . S
S1116 N1118 1.610 . S
N1117 S1116 1.613 . S
N1117 C1120 1.350 . S
N1118 S1116 1.610 . S
N1118 C1119 1.351 . S
C1119 C1113 1.428 . S
C1119 N1118 1.351 . S
C1119 C1120 1.434 . S
C1120 C1111 1.429 . S
C1120 N1117 1.350 . S
C1120 C1119 1.434 . S
C1121 C1122 1.369 . S
C1121 C1123 1.419 . S
C1121 H1125 0.930 . S
C1122 C1121 1.369 . S
C1122 C1131 1.429 . S
C1123 C1121 1.419 . S
C1123 C1124 1.363 . S
C1123 H1126 0.929 . S
C1124 C1123 1.363 . S
C1124 C1130 1.428 . S
H1125 C1121 0.930 . S
H1126 C1123 0.929 . S
S1127 N1128 1.613 . S
S1127 N1129 1.610 . S
N1128 S1127 1.613 . S
N1128 C1131 1.350 . S
N1129 S1127 1.610 . S
N1129 C1130 1.351 . S
C1130 C1124 1.428 . S
C1130 N1129 1.351 . S
C1130 C1131 1.434 . S
C1131 C1122 1.429 . S
C1131 N1128 1.350 . S
C1131 C1130 1.434 . S
C1132 C1133 1.369 . S
C1132 C1134 1.419 . S
C1132 H1136 0.930 . S
C1133 C1132 1.369 . S
C1133 C1142 1.429 . S
C1134 C1132 1.419 . S
C1134 C1135 1.363 . S
C1134 H1137 0.929 . S
C1135 C1134 1.363 . S
C1135 C1141 1.428 . S
H1136 C1132 0.930 . S
H1137 C1134 0.929 . S
S1138 N1139 1.613 . S
S1138 N1140 1.610 . S
N1139 S1138 1.613 . S
N1139 C1142 1.350 . S
N1140 S1138 1.610 . S
N1140 C1141 1.351 . S
C1141 C1135 1.428 . S
C1141 N1140 1.351 . S
C1141 C1142 1.434 . S
C1142 C1133 1.429 . S
C1142 N1139 1.350 . S
C1142 C1141 1.434 . S
C1143 C1144 1.369 . S
C1143 C1145 1.419 . S
C1143 H1147 0.930 . S
C1144 C1143 1.369 . S
C1144 C1153 1.429 . S
C1145 C1143 1.419 . S
C1145 C1146 1.363 . S
C1145 H1148 0.929 . S
C1146 C1145 1.363 . S
C1146 C1152 1.428 . S
H1147 C1143 0.930 . S
H1148 C1145 0.929 . S
S1149 N1150 1.613 . S
S1149 N1151 1.610 . S
N1150 S1149 1.613 . S
N1150 C1153 1.350 . S
N1151 S1149 1.610 . S
N1151 C1152 1.351 . S
C1152 C1146 1.428 . S
C1152 N1151 1.351 . S
C1152 C1153 1.434 . S
C1153 C1144 1.429 . S
C1153 N1150 1.350 . S
C1153 C1152 1.434 . S
C1154 C1155 1.369 . S
C1154 C1156 1.419 . S
C1154 H1158 0.930 . S
C1155 C1154 1.369 . S
C1155 C1164 1.429 . S
C1156 C1154 1.419 . S
C1156 C1157 1.363 . S
C1156 H1159 0.929 . S
C1157 C1156 1.363 . S
C1157 C1163 1.428 . S
H1158 C1154 0.930 . S
H1159 C1156 0.929 . S
S1160 N1161 1.613 . S
S1160 N1162 1.610 . S
N1161 S1160 1.613 . S
N1161 C1164 1.350 . S
N1162 S1160 1.610 . S
N1162 C1163 1.351 . S
C1163 C1157 1.428 . S
C1163 N1162 1.351 . S
C1163 C1164 1.434 . S
C1164 C1155 1.429 . S
C1164 N1161 1.350 . S
C1164 C1163 1.434 . S
C1165 C1166 1.369 . S
C1165 C1167 1.419 . S
C1165 H1169 0.930 . S
C1166 C1165 1.369 . S
C1166 C1175 1.429 . S
C1167 C1165 1.419 . S
C1167 C1168 1.363 . S
C1167 H1170 0.929 . S
C1168 C1167 1.363 . S
C1168 C1174 1.428 . S
H1169 C1165 0.930 . S
H1170 C1167 0.929 . S
S1171 N1172 1.613 . S
S1171 N1173 1.610 . S
N1172 S1171 1.613 . S
N1172 C1175 1.350 . S
N1173 S1171 1.610 . S
N1173 C1174 1.351 . S
C1174 C1168 1.428 . S
C1174 N1173 1.351 . S
C1174 C1175 1.434 . S
C1175 C1166 1.429 . S
C1175 N1172 1.350 . S
C1175 C1174 1.434 . S
C1176 C1177 1.369 . S
C1176 C1178 1.419 1_554 S
C1176 H1180 0.930 . S
C1177 C1176 1.369 . S
C1177 C1186 1.429 . S
C1178 C1176 1.419 1_556 S
C1178 C1179 1.363 . S
C1178 H1181 0.929 . S
C1179 C1178 1.363 . S
C1179 C1185 1.428 . S
H1180 C1176 0.930 . S
H1181 C1178 0.929 . S
S1182 N1183 1.616 1_556 S
S1182 N1184 1.608 . S
N1183 S1182 1.616 1_554 S
N1183 C1186 1.350 . S
N1184 S1182 1.608 . S
N1184 C1185 1.351 . S
C1185 C1179 1.428 . S
C1185 N1184 1.351 . S
C1185 C1186 1.434 1_556 S
C1186 C1177 1.429 . S
C1186 N1183 1.350 . S
C1186 C1185 1.434 1_554 S
C1187 C1188 1.369 . S
C1187 C1189 1.419 1_556 S
C1187 H1191 0.930 . S
C1188 C1187 1.369 . S
C1188 C1197 1.429 . S
C1189 C1187 1.419 1_554 S
C1189 C1190 1.363 . S
C1189 H1192 0.929 . S
C1190 C1189 1.363 . S
C1190 C1196 1.428 . S
H1191 C1187 0.930 . S
H1192 C1189 0.929 . S
S1193 N1194 1.616 1_554 S
S1193 N1195 1.608 . S
N1194 S1193 1.616 1_556 S
N1194 C1197 1.350 . S
N1195 S1193 1.608 . S
N1195 C1196 1.351 . S
C1196 C1190 1.428 . S
C1196 N1195 1.351 . S
C1196 C1197 1.434 1_554 S
C1197 C1188 1.429 . S
C1197 N1194 1.350 . S
C1197 C1196 1.434 1_556 S
C1198 C1199 1.369 . S
C1198 C1200 1.419 1_554 S
C1198 H1202 0.930 . S
C1199 C1198 1.369 . S
C1199 C1208 1.429 . S
C1200 C1198 1.419 1_556 S
C1200 C1201 1.363 . S
C1200 H1203 0.929 . S
C1201 C1200 1.363 . S
C1201 C1207 1.428 . S
H1202 C1198 0.930 . S
H1203 C1200 0.929 . S
S1204 N1205 1.616 1_556 S
S1204 N1206 1.608 . S
N1205 S1204 1.616 1_554 S
N1205 C1208 1.350 . S
N1206 S1204 1.608 . S
N1206 C1207 1.351 . S
C1207 C1201 1.428 . S
C1207 N1206 1.351 . S
C1207 C1208 1.434 1_556 S
C1208 C1199 1.429 . S
C1208 N1205 1.350 . S
C1208 C1207 1.434 1_554 S
C1209 C1210 1.369 . S
C1209 C1211 1.419 1_554 S
C1209 H1213 0.930 . S
C1210 C1209 1.369 . S
C1210 C1219 1.429 . S
C1211 C1209 1.419 1_556 S
C1211 C1212 1.363 . S
C1211 H1214 0.929 . S
C1212 C1211 1.363 . S
C1212 C1218 1.428 . S
H1213 C1209 0.930 . S
H1214 C1211 0.929 . S
S1215 N1216 1.616 1_556 S
S1215 N1217 1.608 . S
N1216 S1215 1.616 1_554 S
N1216 C1219 1.350 . S
N1217 S1215 1.608 . S
N1217 C1218 1.351 . S
C1218 C1212 1.428 . S
C1218 N1217 1.351 . S
C1218 C1219 1.434 1_556 S
C1219 C1210 1.429 . S
C1219 N1216 1.350 . S
C1219 C1218 1.434 1_554 S
C1220 C1221 1.369 . S
C1220 C1222 1.419 1_554 S
C1220 H1224 0.930 . S
C1221 C1220 1.369 . S
C1221 C1230 1.429 . S
C1222 C1220 1.419 1_556 S
C1222 C1223 1.363 . S
C1222 H1225 0.929 . S
C1223 C1222 1.363 . S
C1223 C1229 1.428 . S
H1224 C1220 0.930 . S
H1225 C1222 0.929 . S
S1226 N1227 1.616 1_556 S
S1226 N1228 1.608 . S
N1227 S1226 1.616 1_554 S
N1227 C1230 1.350 . S
N1228 S1226 1.608 . S
N1228 C1229 1.351 . S
C1229 C1223 1.428 . S
C1229 N1228 1.351 . S
C1229 C1230 1.434 1_556 S
C1230 C1221 1.429 . S
C1230 N1227 1.350 . S
C1230 C1229 1.434 1_554 S
C1231 C1232 1.369 . S
C1231 C1233 1.419 1_554 S
C1231 H1235 0.930 . S
C1232 C1231 1.369 . S
C1232 C1241 1.429 . S
C1233 C1231 1.419 1_556 S
C1233 C1234 1.363 . S
C1233 H1236 0.929 . S
C1234 C1233 1.363 . S
C1234 C1240 1.428 . S
H1235 C1231 0.930 . S
H1236 C1233 0.929 . S
S1237 N1238 1.616 1_556 S
S1237 N1239 1.608 . S
N1238 S1237 1.616 1_554 S
N1238 C1241 1.350 . S
N1239 S1237 1.608 . S
N1239 C1240 1.351 . S
C1240 C1234 1.428 . S
C1240 N1239 1.351 . S
C1240 C1241 1.434 1_556 S
C1241 C1232 1.429 . S
C1241 N1238 1.350 . S
C1241 C1240 1.434 1_554 S
C1242 C1243 1.369 . S
C1242 C1244 1.419 1_556 S
C1242 H1246 0.930 . S
C1243 C1242 1.369 . S
C1243 C1252 1.429 . S
C1244 C1242 1.419 1_554 S
C1244 C1245 1.363 . S
C1244 H1247 0.929 . S
C1245 C1244 1.363 . S
C1245 C1251 1.428 . S
H1246 C1242 0.930 . S
H1247 C1244 0.929 . S
S1248 N1249 1.616 1_554 S
S1248 N1250 1.608 . S
N1249 S1248 1.616 1_556 S
N1249 C1252 1.350 . S
N1250 S1248 1.608 . S
N1250 C1251 1.351 . S
C1251 C1245 1.428 . S
C1251 N1250 1.351 . S
C1251 C1252 1.434 1_554 S
C1252 C1243 1.429 . S
C1252 N1249 1.350 . S
C1252 C1251 1.434 1_556 S
C1253 C1254 1.369 . S
C1253 C1255 1.419 1_556 S
C1253 H1257 0.930 . S
C1254 C1253 1.369 . S
C1254 C1263 1.429 . S
C1255 C1253 1.419 1_554 S
C1255 C1256 1.363 . S
C1255 H1258 0.929 . S
C1256 C1255 1.363 . S
C1256 C1262 1.428 . S
H1257 C1253 0.930 . S
H1258 C1255 0.929 . S
S1259 N1260 1.616 1_554 S
S1259 N1261 1.608 . S
N1260 S1259 1.616 1_556 S
N1260 C1263 1.350 . S
N1261 S1259 1.608 . S
N1261 C1262 1.351 . S
C1262 C1256 1.428 . S
C1262 N1261 1.351 . S
C1262 C1263 1.434 1_554 S
C1263 C1254 1.429 . S
C1263 N1260 1.350 . S
C1263 C1262 1.434 1_556 S
C1264 C1265 1.369 . S
C1264 C1266 1.419 . S
C1264 H1268 0.930 . S
C1265 C1264 1.369 . S
C1265 C1274 1.429 . S
C1266 C1264 1.419 . S
C1266 C1267 1.363 . S
C1266 H1269 0.929 . S
C1267 C1266 1.363 . S
C1267 C1273 1.428 . S
H1268 C1264 0.930 . S
H1269 C1266 0.929 . S
S1270 N1271 1.613 . S
S1270 N1272 1.610 . S
N1271 S1270 1.613 . S
N1271 C1274 1.350 . S
N1272 S1270 1.610 . S
N1272 C1273 1.351 . S
C1273 C1267 1.428 . S
C1273 N1272 1.351 . S
C1273 C1274 1.434 . S
C1274 C1265 1.429 . S
C1274 N1271 1.350 . S
C1274 C1273 1.434 . S
C1275 C1276 1.369 . S
C1275 C1277 1.419 . S
C1275 H1279 0.930 . S
C1276 C1275 1.369 . S
C1276 C1285 1.429 . S
C1277 C1275 1.419 . S
C1277 C1278 1.363 . S
C1277 H1280 0.929 . S
C1278 C1277 1.363 . S
C1278 C1284 1.428 . S
H1279 C1275 0.930 . S
H1280 C1277 0.929 . S
S1281 N1282 1.613 . S
S1281 N1283 1.610 . S
N1282 S1281 1.613 . S
N1282 C1285 1.350 . S
N1283 S1281 1.610 . S
N1283 C1284 1.351 . S
C1284 C1278 1.428 . S
C1284 N1283 1.351 . S
C1284 C1285 1.434 . S
C1285 C1276 1.429 . S
C1285 N1282 1.350 . S
C1285 C1284 1.434 . S
C1286 C1287 1.369 . S
C1286 C1288 1.419 . S
C1286 H1290 0.930 . S
C1287 C1286 1.369 . S
C1287 C1296 1.429 . S
C1288 C1286 1.419 . S
C1288 C1289 1.363 . S
C1288 H1291 0.929 . S
C1289 C1288 1.363 . S
C1289 C1295 1.428 . S
H1290 C1286 0.930 . S
H1291 C1288 0.929 . S
S1292 N1293 1.613 . S
S1292 N1294 1.610 . S
N1293 S1292 1.613 . S
N1293 C1296 1.350 . S
N1294 S1292 1.610 . S
N1294 C1295 1.351 . S
C1295 C1289 1.428 . S
C1295 N1294 1.351 . S
C1295 C1296 1.434 . S
C1296 C1287 1.429 . S
C1296 N1293 1.350 . S
C1296 C1295 1.434 . S
C1297 C1298 1.369 . S
C1297 C1299 1.419 . S
C1297 H1301 0.930 . S
C1298 C1297 1.369 . S
C1298 C1307 1.429 . S
C1299 C1297 1.419 . S
C1299 C1300 1.363 . S
C1299 H1302 0.929 . S
C1300 C1299 1.363 . S
C1300 C1306 1.428 . S
H1301 C1297 0.930 . S
H1302 C1299 0.929 . S
S1303 N1304 1.613 . S
S1303 N1305 1.610 . S
N1304 S1303 1.613 . S
N1304 C1307 1.350 . S
N1305 S1303 1.610 . S
N1305 C1306 1.351 . S
C1306 C1300 1.428 . S
C1306 N1305 1.351 . S
C1306 C1307 1.434 . S
C1307 C1298 1.429 . S
C1307 N1304 1.350 . S
C1307 C1306 1.434 . S
C1308 C1309 1.369 . S
C1308 C1310 1.419 . S
C1308 H1312 0.930 . S
C1309 C1308 1.369 . S
C1309 C1318 1.429 . S
C1310 C1308 1.419 . S
C1310 C1311 1.363 . S
C1310 H1313 0.929 . S
C1311 C1310 1.363 . S
C1311 C1317 1.428 . S
H1312 C1308 0.930 . S
H1313 C1310 0.929 . S
S1314 N1315 1.613 . S
S1314 N1316 1.610 . S
N1315 S1314 1.613 . S
N1315 C1318 1.350 . S
N1316 S1314 1.610 . S
N1316 C1317 1.351 . S
C1317 C1311 1.428 . S
C1317 N1316 1.351 . S
C1317 C1318 1.434 . S
C1318 C1309 1.429 . S
C1318 N1315 1.350 . S
C1318 C1317 1.434 . S
C1319 C1320 1.369 . S
C1319 C1321 1.419 . S
C1319 H1323 0.930 . S
C1320 C1319 1.369 . S
C1320 C1329 1.429 . S
C1321 C1319 1.419 . S
C1321 C1322 1.363 . S
C1321 H1324 0.929 . S
C1322 C1321 1.363 . S
C1322 C1328 1.428 . S
H1323 C1319 0.930 . S
H1324 C1321 0.929 . S
S1325 N1326 1.613 . S
S1325 N1327 1.610 . S
N1326 S1325 1.613 . S
N1326 C1329 1.350 . S
N1327 S1325 1.610 . S
N1327 C1328 1.351 . S
C1328 C1322 1.428 . S
C1328 N1327 1.351 . S
C1328 C1329 1.434 . S
C1329 C1320 1.429 . S
C1329 N1326 1.350 . S
C1329 C1328 1.434 . S
C1330 C1331 1.369 . S
C1330 C1332 1.419 . S
C1330 H1334 0.930 . S
C1331 C1330 1.369 . S
C1331 C1340 1.429 . S
C1332 C1330 1.419 . S
C1332 C1333 1.363 . S
C1332 H1335 0.929 . S
C1333 C1332 1.363 . S
C1333 C1339 1.428 . S
H1334 C1330 0.930 . S
H1335 C1332 0.929 . S
S1336 N1337 1.613 . S
S1336 N1338 1.610 . S
N1337 S1336 1.613 . S
N1337 C1340 1.350 . S
N1338 S1336 1.610 . S
N1338 C1339 1.351 . S
C1339 C1333 1.428 . S
C1339 N1338 1.351 . S
C1339 C1340 1.434 . S
C1340 C1331 1.429 . S
C1340 N1337 1.350 . S
C1340 C1339 1.434 . S
C1341 C1342 1.369 . S
C1341 C1343 1.419 . S
C1341 H1345 0.930 . S
C1342 C1341 1.369 . S
C1342 C1351 1.429 . S
C1343 C1341 1.419 . S
C1343 C1344 1.363 . S
C1343 H1346 0.929 . S
C1344 C1343 1.363 . S
C1344 C1350 1.428 . S
H1345 C1341 0.930 . S
H1346 C1343 0.929 . S
S1347 N1348 1.613 . S
S1347 N1349 1.610 . S
N1348 S1347 1.613 . S
N1348 C1351 1.350 . S
N1349 S1347 1.610 . S
N1349 C1350 1.351 . S
C1350 C1344 1.428 . S
C1350 N1349 1.351 . S
C1350 C1351 1.434 . S
C1351 C1342 1.429 . S
C1351 N1348 1.350 . S
C1351 C1350 1.434 . S
C1352 C1353 1.369 . S
C1352 C1354 1.419 . S
C1352 H1356 0.930 . S
C1353 C1352 1.369 . S
C1353 C1362 1.429 . S
C1354 C1352 1.419 . S
C1354 C1355 1.363 . S
C1354 H1357 0.929 . S
C1355 C1354 1.363 . S
C1355 C1361 1.428 . S
H1356 C1352 0.930 . S
H1357 C1354 0.929 . S
S1358 N1359 1.613 . S
S1358 N1360 1.610 . S
N1359 S1358 1.613 . S
N1359 C1362 1.350 . S
N1360 S1358 1.610 . S
N1360 C1361 1.351 . S
C1361 C1355 1.428 . S
C1361 N1360 1.351 . S
C1361 C1362 1.434 . S
C1362 C1353 1.429 . S
C1362 N1359 1.350 . S
C1362 C1361 1.434 . S
C1363 C1364 1.369 . S
C1363 C1365 1.419 . S
C1363 H1367 0.930 . S
C1364 C1363 1.369 . S
C1364 C1373 1.429 . S
C1365 C1363 1.419 . S
C1365 C1366 1.363 . S
C1365 H1368 0.929 . S
C1366 C1365 1.363 . S
C1366 C1372 1.428 . S
H1367 C1363 0.930 . S
H1368 C1365 0.929 . S
S1369 N1370 1.613 . S
S1369 N1371 1.610 . S
N1370 S1369 1.613 . S
N1370 C1373 1.350 . S
N1371 S1369 1.610 . S
N1371 C1372 1.351 . S
C1372 C1366 1.428 . S
C1372 N1371 1.351 . S
C1372 C1373 1.434 . S
C1373 C1364 1.429 . S
C1373 N1370 1.350 . S
C1373 C1372 1.434 . S
C1374 C1375 1.369 . S
C1374 C1376 1.419 . S
C1374 H1378 0.930 . S
C1375 C1374 1.369 . S
C1375 C1384 1.429 . S
C1376 C1374 1.419 . S
C1376 C1377 1.363 . S
C1376 H1379 0.929 . S
C1377 C1376 1.363 . S
C1377 C1383 1.428 . S
H1378 C1374 0.930 . S
H1379 C1376 0.929 . S
S1380 N1381 1.613 . S
S1380 N1382 1.610 . S
N1381 S1380 1.613 . S
N1381 C1384 1.350 . S
N1382 S1380 1.610 . S
N1382 C1383 1.351 . S
C1383 C1377 1.428 . S
C1383 N1382 1.351 . S
C1383 C1384 1.434 . S
C1384 C1375 1.429 . S
C1384 N1381 1.350 . S
C1384 C1383 1.434 . S
C1385 C1386 1.369 . S
C1385 C1387 1.419 . S
C1385 H1389 0.930 . S
C1386 C1385 1.369 . S
C1386 C1395 1.429 . S
C1387 C1385 1.419 . S
C1387 C1388 1.363 . S
C1387 H1390 0.929 . S
C1388 C1387 1.363 . S
C1388 C1394 1.428 . S
H1389 C1385 0.930 . S
H1390 C1387 0.929 . S
S1391 N1392 1.613 . S
S1391 N1393 1.610 . S
N1392 S1391 1.613 . S
N1392 C1395 1.350 . S
N1393 S1391 1.610 . S
N1393 C1394 1.351 . S
C1394 C1388 1.428 . S
C1394 N1393 1.351 . S
C1394 C1395 1.434 . S
C1395 C1386 1.429 . S
C1395 N1392 1.350 . S
C1395 C1394 1.434 . S
C1396 C1397 1.369 . S
C1396 C1398 1.419 . S
C1396 H1400 0.930 . S
C1397 C1396 1.369 . S
C1397 C1406 1.429 . S
C1398 C1396 1.419 . S
C1398 C1399 1.363 . S
C1398 H1401 0.929 . S
C1399 C1398 1.363 . S
C1399 C1405 1.428 . S
H1400 C1396 0.930 . S
H1401 C1398 0.929 . S
S1402 N1403 1.613 . S
S1402 N1404 1.610 . S
N1403 S1402 1.613 . S
N1403 C1406 1.350 . S
N1404 S1402 1.610 . S
N1404 C1405 1.351 . S
C1405 C1399 1.428 . S
C1405 N1404 1.351 . S
C1405 C1406 1.434 . S
C1406 C1397 1.429 . S
C1406 N1403 1.350 . S
C1406 C1405 1.434 . S
C1407 C1408 1.369 . S
C1407 C1409 1.419 . S
C1407 H1411 0.930 . S
C1408 C1407 1.369 . S
C1408 C1417 1.429 . S
C1409 C1407 1.419 . S
C1409 C1410 1.363 . S
C1409 H1412 0.929 . S
C1410 C1409 1.363 . S
C1410 C1416 1.428 . S
H1411 C1407 0.930 . S
H1412 C1409 0.929 . S
S1413 N1414 1.613 . S
S1413 N1415 1.610 . S
N1414 S1413 1.613 . S
N1414 C1417 1.350 . S
N1415 S1413 1.610 . S
N1415 C1416 1.351 . S
C1416 C1410 1.428 . S
C1416 N1415 1.351 . S
C1416 C1417 1.434 . S
C1417 C1408 1.429 . S
C1417 N1414 1.350 . S
C1417 C1416 1.434 . S
C1418 C1419 1.369 . S
C1418 C1420 1.419 . S
C1418 H1422 0.930 . S
C1419 C1418 1.369 . S
C1419 C1428 1.429 . S
C1420 C1418 1.419 . S
C1420 C1421 1.363 . S
C1420 H1423 0.929 . S
C1421 C1420 1.363 . S
C1421 C1427 1.428 . S
H1422 C1418 0.930 . S
H1423 C1420 0.929 . S
S1424 N1425 1.613 . S
S1424 N1426 1.610 . S
N1425 S1424 1.613 . S
N1425 C1428 1.350 . S
N1426 S1424 1.610 . S
N1426 C1427 1.351 . S
C1427 C1421 1.428 . S
C1427 N1426 1.351 . S
C1427 C1428 1.434 . S
C1428 C1419 1.429 . S
C1428 N1425 1.350 . S
C1428 C1427 1.434 . S
C1429 C1430 1.369 . S
C1429 C1431 1.419 . S
C1429 H1433 0.930 . S
C1430 C1429 1.369 . S
C1430 C1439 1.429 . S
C1431 C1429 1.419 . S
C1431 C1432 1.363 . S
C1431 H1434 0.929 . S
C1432 C1431 1.363 . S
C1432 C1438 1.428 . S
H1433 C1429 0.930 . S
H1434 C1431 0.929 . S
S1435 N1436 1.613 . S
S1435 N1437 1.610 . S
N1436 S1435 1.613 . S
N1436 C1439 1.350 . S
N1437 S1435 1.610 . S
N1437 C1438 1.351 . S
C1438 C1432 1.428 . S
C1438 N1437 1.351 . S
C1438 C1439 1.434 . S
C1439 C1430 1.429 . S
C1439 N1436 1.350 . S
C1439 C1438 1.434 . S
C737 N347 1.883 . S
C739 N2 1.882 . S
C748 N25 1.884 . S
C750 N278 1.882 . S
C759 N48 1.880 . S
C761 N301 1.880 . S
C770 N324 1.884 . S
C772 N71 1.882 . S
C781 N94 1.878 . S
C783 N209 1.878 . S
C792 N117 1.880 . S
C794 N232 1.880 . S
C803 N255 1.883 . S
C805 N140 1.882 . S
C814 N186 1.877 . S
C816 N163 1.878 . S
C825 N370 1.873 . S
C827 N715 1.875 . S
C836 N393 1.879 . S
C838 N646 1.879 . S
C847 N416 1.873 . S
C849 N669 1.874 . S
C858 N692 1.874 . S
C860 N439 1.875 . S
C869 N462 1.883 . S
C871 N577 1.882 . S
C880 N485 1.874 . S
C882 N600 1.875 . S
C891 N623 1.875 . S
C893 N508 1.876 . S
C902 N531 1.884 . S
C904 N554 1.882 . S
C913 N288 1.962 . S
C915 N12 1.962 . S
C924 N35 1.958 . S
C926 N311 1.958 . S
C935 N334 1.956 . S
C937 N58 1.957 . S
C946 N81 1.956 . S
C948 N357 1.957 . S
C957 N104 1.961 . S
C959 N196 1.960 . S
C968 N219 1.962 . S
C970 N127 1.962 . S
C979 N242 1.956 . S
C981 N150 1.957 . S
C990 N265 1.962 . S
C992 N173 1.962 . S
C1001 N380 1.956 . S
C1003 N656 1.957 . S
C1012 N679 1.962 . S
C1014 N403 1.962 . S
C1023 N426 1.962 . S
C1025 N702 1.962 . S
C1034 N449 1.956 . S
C1036 N725 1.957 . S
C1045 N564 1.961 . S
C1047 N472 1.960 . S
C1056 N495 1.960 . S
C1058 N587 1.959 . S
C1067 N518 1.962 . S
C1069 N610 1.962 . S
C1078 N541 1.963 . S
C1080 N633 1.962 . S
C1089 C7 1.565 . S
C1091 C237 1.566 . S
C1100 C260 1.565 . S
C1102 C30 1.566 . S
C1111 C53 1.567 . S
C1113 C191 1.567 . S
C1122 C214 1.570 . S
C1124 C76 1.569 . S
C1133 C329 1.566 . S
C1135 C99 1.567 . S
C1144 C352 1.569 . S
C1146 C122 1.569 . S
C1155 C283 1.566 . S
C1157 C145 1.567 . S
C1166 C168 1.570 . S
C1168 C306 1.569 . S
C1177 C605 1.567 . S
C1179 C375 1.567 . S
C1188 C398 1.565 . S
C1190 C628 1.566 . S
C1199 C559 1.569 . S
C1201 C421 1.569 . S
C1210 C582 1.569 . S
C1212 C444 1.569 . S
C1221 C467 1.566 . S
C1223 C697 1.566 . S
C1232 C490 1.570 . S
C1234 C720 1.569 . S
C1243 C651 1.565 . S
C1245 C513 1.566 . S
C1254 C674 1.570 . S
C1256 C536 1.569 . S
C1265 C545 1.522 . S
C1267 C16 1.526 . S
C1276 C476 1.527 . S
C1278 C39 1.522 . S
C1287 C499 1.526 . S
C1289 C62 1.521 . S
C1298 C522 1.527 . S
C1300 C85 1.523 . S
C1309 C407 1.520 . S
C1311 C108 1.522 . S
C1320 C131 1.522 . S
C1322 C430 1.521 . S
C1331 C154 1.519 . S
C1333 C453 1.525 . S
C1342 C177 1.524 . S
C1344 C384 1.525 . S
C1353 C200 1.525 . S
C1355 C729 1.525 . S
C1364 C660 1.519 . S
C1366 C223 1.524 . S
C1375 C246 1.520 . S
C1377 C683 1.522 . S
C1386 C269 1.520 . S
C1388 C706 1.522 . S
C1397 C591 1.525 . S
C1399 C292 1.520 . S
C1408 C614 1.527 . S
C1410 C315 1.522 . S
C1419 C338 1.526 . S
C1421 C637 1.524 . S
C1430 C361 1.526 . S
C1432 C568 1.521 . S
