# Generated by pormake.
# Topology und, (4)-cn, num edge types: 1
# Building blocks:
#     Node 0, Type 0, BuildingBlock: NAHDIM_clean_sbu_0, # of connection points: 4
#     Node 1, Type 0, BuildingBlock: NAHDIM_clean_sbu_0, # of connection points: 4
#     Node 2, Type 0, BuildingBlock: NAHDIM_clean_sbu_0, # of connection points: 4
#     Node 3, Type 0, BuildingBlock: NAHDIM_clean_sbu_0, # of connection points: 4
#     Node 4, Type 0, BuildingBlock: NAHDIM_clean_sbu_0, # of connection points: 4
#     Node 5, Type 0, BuildingBlock: NAHDIM_clean_sbu_0, # of connection points: 4
#     Node 6, Type 0, BuildingBlock: NAHDIM_clean_sbu_0, # of connection points: 4
#     Node 7, Type 0, BuildingBlock: NAHDIM_clean_sbu_0, # of connection points: 4
#     Node 8, Type 0, BuildingBlock: NAHDIM_clean_sbu_0, # of connection points: 4
#     Node 9, Type 0, BuildingBlock: NAHDIM_clean_sbu_0, # of connection points: 4
#     Node 10, Type 0, BuildingBlock: NAHDIM_clean_sbu_0, # of connection points: 4
#     Node 11, Type 0, BuildingBlock: NAHDIM_clean_sbu_0, # of connection points: 4
#     Node 12, Type 0, BuildingBlock: NAHDIM_clean_sbu_0, # of connection points: 4
#     Node 13, Type 0, BuildingBlock: NAHDIM_clean_sbu_0, # of connection points: 4
#     Node 14, Type 0, BuildingBlock: NAHDIM_clean_sbu_0, # of connection points: 4
#     Node 15, Type 0, BuildingBlock: NAHDIM_clean_sbu_0, # of connection points: 4
#     Edge 16, Type (0, 0), BuildingBlock: KIFKEQ_clean_linker_1, # of connection points: 2
#     Edge 17, Type (0, 0), BuildingBlock: KIFKEQ_clean_linker_1, # of connection points: 2
#     Edge 18, Type (0, 0), BuildingBlock: KIFKEQ_clean_linker_1, # of connection points: 2
#     Edge 19, Type (0, 0), BuildingBlock: KIFKEQ_clean_linker_1, # of connection points: 2
#     Edge 20, Type (0, 0), BuildingBlock: KIFKEQ_clean_linker_1, # of connection points: 2
#     Edge 21, Type (0, 0), BuildingBlock: KIFKEQ_clean_linker_1, # of connection points: 2
#     Edge 22, Type (0, 0), BuildingBlock: KIFKEQ_clean_linker_1, # of connection points: 2
#     Edge 23, Type (0, 0), BuildingBlock: KIFKEQ_clean_linker_1, # of connection points: 2
#     Edge 24, Type (0, 0), BuildingBlock: KIFKEQ_clean_linker_1, # of connection points: 2
#     Edge 25, Type (0, 0), BuildingBlock: KIFKEQ_clean_linker_1, # of connection points: 2
#     Edge 26, Type (0, 0), BuildingBlock: KIFKEQ_clean_linker_1, # of connection points: 2
#     Edge 27, Type (0, 0), BuildingBlock: KIFKEQ_clean_linker_1, # of connection points: 2
#     Edge 28, Type (0, 0), BuildingBlock: KIFKEQ_clean_linker_1, # of connection points: 2
#     Edge 29, Type (0, 0), BuildingBlock: KIFKEQ_clean_linker_1, # of connection points: 2
#     Edge 30, Type (0, 0), BuildingBlock: KIFKEQ_clean_linker_1, # of connection points: 2
#     Edge 31, Type (0, 0), BuildingBlock: KIFKEQ_clean_linker_1, # of connection points: 2
#     Edge 32, Type (0, 0), BuildingBlock: KIFKEQ_clean_linker_1, # of connection points: 2
#     Edge 33, Type (0, 0), BuildingBlock: KIFKEQ_clean_linker_1, # of connection points: 2
#     Edge 34, Type (0, 0), BuildingBlock: KIFKEQ_clean_linker_1, # of connection points: 2
#     Edge 35, Type (0, 0), BuildingBlock: KIFKEQ_clean_linker_1, # of connection points: 2
#     Edge 36, Type (0, 0), BuildingBlock: KIFKEQ_clean_linker_1, # of connection points: 2
#     Edge 37, Type (0, 0), BuildingBlock: KIFKEQ_clean_linker_1, # of connection points: 2
#     Edge 38, Type (0, 0), BuildingBlock: KIFKEQ_clean_linker_1, # of connection points: 2
#     Edge 39, Type (0, 0), BuildingBlock: KIFKEQ_clean_linker_1, # of connection points: 2
#     Edge 40, Type (0, 0), BuildingBlock: KIFKEQ_clean_linker_1, # of connection points: 2
#     Edge 41, Type (0, 0), BuildingBlock: KIFKEQ_clean_linker_1, # of connection points: 2
#     Edge 42, Type (0, 0), BuildingBlock: KIFKEQ_clean_linker_1, # of connection points: 2
#     Edge 43, Type (0, 0), BuildingBlock: KIFKEQ_clean_linker_1, # of connection points: 2
#     Edge 44, Type (0, 0), BuildingBlock: KIFKEQ_clean_linker_1, # of connection points: 2
#     Edge 45, Type (0, 0), BuildingBlock: KIFKEQ_clean_linker_1, # of connection points: 2
#     Edge 46, Type (0, 0), BuildingBlock: KIFKEQ_clean_linker_1, # of connection points: 2
#     Edge 47, Type (0, 0), BuildingBlock: KIFKEQ_clean_linker_1, # of connection points: 2
# Relax obj value: 0.114
# Max RMSD: 0.175
# Mean RMSD: 0.175
data_MOF--net-und--node1-NAHDIM_clean_sbu_0--edge1-KIFKEQ_clean_linker_1
_symmetry_space_group_name_H-M    P1
_symmetry_Int_Tables_number       1
_symmetry_cell_setting            triclinic
loop_
_symmetry_equiv_pos_as_xyz
'x, y, z'
_cell_length_a     61.358325
_cell_length_b     61.469994
_cell_length_c     22.002907
_cell_angle_alpha  90.226134
_cell_angle_beta   89.924559
_cell_angle_gamma 96.750193
loop_
_atom_site_label
_atom_site_type_symbol
_atom_site_fract_x
_atom_site_fract_y
_atom_site_fract_z
_atom_type_partial_charge
C0 C 0.21645 0.3766 0.0523 0.0
O1 O 0.23299 0.37268 0.08684 0.0
O2 O 0.241 0.32856 0.04226 0.0
Zn3 Zn 0.23959 0.35105 0.97681 0.0
O4 O 0.26744 0.37156 0.97065 0.0
C5 C 0.22235 0.31823 0.88875 0.0
O6 O 0.21002 0.31029 0.93422 0.0
O7 O 0.21518 0.36873 -0.00128 0.0
C8 C 0.28426 0.36594 0.94375 0.0
O9 O 0.28395 0.34575 0.92369 0.0
C10 C 0.24904 0.3106 0.03516 0.0
O11 O 0.25839 0.30653 0.98326 0.0
O12 O 0.23502 0.3359 0.89624 0.0
C13 C 0.8971 0.05282 0.19604 0.0
O14 O 0.91615 0.05275 0.16878 0.0
O15 O 0.92517 0.00533 0.1751 0.0
Zn16 Zn 0.90573 0.01062 0.24552 0.0
O17 O 0.88299 0.98502 0.25977 0.0
C18 C 0.94545 0.0202 0.31284 0.0
O19 O 0.95291 0.02691 0.2593 0.0
O20 O 0.89024 0.0372 0.23142 0.0
C21 C 0.88792 0.9676 0.28447 0.0
O22 O 0.90856 0.96588 0.29723 0.0
C23 C 0.92114 0.00608 0.11865 0.0
O24 O 0.90139 0.00927 0.10036 0.0
O25 O 0.9251 0.01391 0.31921 0.0
C26 C 0.27495 0.65313 0.58688 0.0
O27 O 0.25739 0.65345 0.62097 0.0
O28 O 0.24531 0.69758 0.59624 0.0
Zn29 Zn 0.25041 0.68025 0.52102 0.0
O30 O 0.22442 0.65834 0.5005 0.0
C31 C 0.26032 0.72138 0.4569 0.0
O32 O 0.26495 0.72939 0.51141 0.0
O33 O 0.27626 0.66392 0.53756 0.0
C34 C 0.20985 0.66309 0.46334 0.0
O35 O 0.21107 0.68305 0.44147 0.0
C36 C 0.2303 0.71 0.60225 0.0
O37 O 0.21597 0.71097 0.55834 0.0
O38 O 0.25549 0.70084 0.45018 0.0
C39 C 0.60385 0.97896 0.72634 0.0
O40 O 0.60015 -0.00417 0.69296 0.0
O41 O 0.55819 0.00581 0.74097 0.0
Zn42 Zn 0.58111 0.00352 0.80487 0.0
O43 O 0.60308 0.03041 0.8081 0.0
C44 C 0.5485 0.98762 0.89417 0.0
O45 O 0.54017 0.97537 0.84885 0.0
O46 O 0.59705 0.97804 0.78101 0.0
C47 C 0.59988 0.04682 0.84081 0.0
O48 O 0.58117 0.04673 0.86996 0.0
C49 C 0.54061 0.01454 0.74824 0.0
O50 O 0.53709 0.02429 0.79998 0.0
O51 O 0.56647 -0.0002 0.88641 0.0
C52 C 0.78352 0.65472 0.91253 0.0
O53 O 0.76796 0.65587 0.8721 0.0
O54 O 0.75196 0.69702 0.89334 0.0
Zn55 Zn 0.75648 0.68173 0.9721 0.0
O56 O 0.73038 0.66027 -0.0054 0.0
C57 C 0.75904 0.72435 0.03007 0.0
O58 O 0.75891 0.73138 0.97382 0.0
O59 O 0.78262 0.6651 0.96242 0.0
C60 C 0.71475 0.66679 0.02512 0.0
O61 O 0.7152 0.68776 0.03762 0.0
C62 C 0.73373 0.70209 0.87411 0.0
O63 O 0.71576 0.69623 0.90537 0.0
O64 O 0.7601 0.70412 0.03988 0.0
C65 C 0.1033 0.98226 0.81999 0.0
O66 O 0.09873 -0.00178 0.85599 0.0
O67 O 0.05362 0.0073 0.79821 0.0
Zn68 Zn 0.07862 0.00562 0.74041 0.0
O69 O 0.09848 0.03384 0.73443 0.0
C70 C 0.04686 0.98869 0.65192 0.0
O71 O 0.03825 0.97746 0.69855 0.0
O72 O 0.09612 0.98159 0.76577 0.0
C73 C 0.09146 0.05018 0.70895 0.0
O74 O 0.07072 0.04881 0.69289 0.0
C75 C 0.0525 0.02103 0.84097 0.0
O76 O 0.0692 0.03599 0.85141 0.0
O77 O 0.06516 0.00043 0.65828 0.0
C78 C 0.70958 0.38119 0.46958 0.0
O79 O 0.729 0.38373 0.44359 0.0
O80 O 0.73262 0.32787 0.46539 0.0
Zn81 Zn 0.73078 0.35001 0.53182 0.0
O82 O 0.75878 0.37021 0.54226 0.0
C83 C 0.7201 0.31375 0.61406 0.0
O84 O 0.71287 0.30317 0.56473 0.0
O85 O 0.70599 0.3673 0.51209 0.0
C86 C 0.77482 0.36265 0.56803 0.0
O87 O 0.77318 0.34167 0.58097 0.0
C88 C 0.74857 0.32661 0.42927 0.0
O89 O 0.76611 0.34102 0.43332 0.0
O90 O 0.72656 0.33411 0.611 0.0
C91 C 0.38032 0.04037 0.36 0.0
O92 O 0.38069 0.02489 0.40089 0.0
O93 O 0.42373 0.01118 0.38711 0.0
Zn94 Zn 0.40882 0.01354 0.30653 0.0
O95 O 0.38756 0.98702 0.28658 0.0
C96 C 0.45168 0.01633 0.24874 0.0
O97 O 0.45883 0.01595 0.3049 0.0
O98 O 0.39169 0.03943 0.3119 0.0
C99 C 0.3937 0.97097 0.25712 0.0
O100 O 0.41462 0.97093 0.24433 0.0
C101 C 0.43003 -0.00599 0.40972 0.0
O102 O 0.42635 0.97536 0.38005 0.0
O103 O 0.4313 0.01676 0.23911 0.0
C104 C 0.6978 0.87132 0.54653 0.0
O105 O 0.71477 0.86661 0.57815 0.0
O106 O 0.72145 0.82236 0.5253 0.0
Zn107 Zn 0.71919 0.84639 0.46489 0.0
O108 O 0.74749 0.86618 0.45808 0.0
C109 C 0.7073 0.81244 0.37662 0.0
O110 O 0.69971 0.80135 0.42459 0.0
O111 O 0.69546 0.86416 0.49234 0.0
C112 C 0.76375 0.85902 0.43206 0.0
O113 O 0.76202 0.83843 0.41444 0.0
C114 C 0.73723 0.82142 0.56205 0.0
O115 O 0.75365 0.83719 0.56251 0.0
O116 O 0.71426 0.83262 0.38245 0.0
C117 C 0.38761 0.55569 0.71454 0.0
O118 O 0.39361 0.54146 0.675 0.0
O119 O 0.43675 0.53289 0.72113 0.0
Zn120 Zn 0.41345 0.53134 0.78581 0.0
O121 O 0.39432 0.50246 0.78693 0.0
C122 C 0.44725 0.54451 0.87399 0.0
O123 O 0.45688 0.55517 0.82776 0.0
O124 O 0.39434 0.55499 0.76905 0.0
C125 C 0.40027 0.48629 0.81586 0.0
O126 O 0.4199 0.48807 0.84046 0.0
C127 C 0.44448 0.51668 0.69679 0.0
O128 O 0.43682 0.4967 0.71307 0.0
O129 O 0.42807 0.53455 0.86728 0.0
C130 C 0.78246 0.14723 0.06456 0.0
O131 O 0.76247 0.14174 0.08518 0.0
O132 O 0.75729 0.19838 0.09974 0.0
Zn133 Zn 0.7607 0.1817 0.02256 0.0
O134 O 0.73333 0.16127 0.00454 0.0
C135 C 0.76705 0.22365 0.96059 0.0
O136 O 0.77033 0.23174 0.01558 0.0
O137 O 0.78634 0.16451 0.03295 0.0
C138 C 0.73051 0.15467 0.94997 0.0
O139 O 0.74559 0.16102 0.90925 0.0
C140 C 0.74035 0.20777 0.11068 0.0
O141 O 0.72392 0.20542 0.07203 0.0
O142 O 0.76444 0.203 0.95302 0.0
C143 C 0.10952 0.47522 0.21458 0.0
O144 O 0.10441 0.49145 0.18079 0.0
O145 O 0.06105 0.49922 0.22694 0.0
Zn146 Zn 0.08224 0.4955 0.29439 0.0
O147 O 0.10059 0.52354 0.31655 0.0
C148 C 0.04548 0.47744 0.36948 0.0
O149 O 0.03635 0.47083 0.31762 0.0
O150 O 0.1018 0.47318 0.26818 0.0
C151 C 0.10656 0.54004 0.28345 0.0
O152 O 0.10079 0.53984 0.22596 0.0
C153 C 0.04554 0.51112 0.23123 0.0
O154 O 0.04384 0.52291 0.28057 0.0
O155 O 0.06513 0.48666 0.36979 0.0
C156 C 0.27206 0.14942 0.42149 0.0
O157 O 0.25687 0.15028 0.3798 0.0
O158 O 0.2435 0.19338 0.395 0.0
Zn159 Zn 0.24546 0.17819 0.47521 0.0
O160 O 0.21838 0.15759 0.49419 0.0
C161 C 0.24924 0.22088 0.53383 0.0
O162 O 0.24928 0.22813 0.47778 0.0
O163 O 0.27098 0.16053 0.47005 0.0
C164 C 0.20245 0.16421 0.52317 0.0
O165 O 0.20299 0.18514 0.53625 0.0
C166 C 0.22653 0.20034 0.37293 0.0
O167 O 0.20788 0.19715 0.40279 0.0
O168 O 0.24908 0.20046 0.54316 0.0
C169 C 0.5966 0.47694 0.33493 0.0
O170 O 0.57982 0.47989 0.36989 0.0
O171 O 0.5706 0.52283 0.35827 0.0
Zn172 Zn 0.58579 0.51671 0.28004 0.0
O173 O 0.6078 0.54207 0.25561 0.0
C174 C 0.54308 0.50793 0.22094 0.0
O175 O 0.53553 0.50371 0.27605 0.0
O176 O 0.6017 0.4902 0.2916 0.0
C177 C 0.60175 0.55734 0.2231 0.0
O178 O 0.58091 0.55694 0.20906 0.0
C179 C 0.55795 0.53758 0.36529 0.0
O180 O 0.55538 0.55106 0.32038 0.0
O181 O 0.56363 0.51222 0.21262 0.0
C182 C 0.20959 0.87986 0.96035 0.0
O183 O 0.22568 0.8762 0.92362 0.0
O184 O 0.23224 0.83029 0.96066 0.0
Zn185 Zn 0.23253 0.8522 0.02881 0.0
O186 O 0.2612 0.87152 0.03679 0.0
C187 C 0.22079 0.81596 0.11072 0.0
O188 O 0.21221 0.80604 0.06186 0.0
O189 O 0.20862 0.87104 0.01259 0.0
C190 C 0.2771 0.86412 0.0637 0.0
O191 O 0.27513 0.84339 0.07954 0.0
C192 C 0.24857 0.82577 0.92959 0.0
O193 O 0.26812 0.83615 0.94067 0.0
O194 O 0.22862 0.83598 0.10768 0.0
C195 C 0.88537 0.54038 0.8442 0.0
O196 O 0.88519 0.52505 0.88572 0.0
O197 O 0.92796 0.51067 0.87249 0.0
Zn198 Zn 0.91206 0.51165 0.79283 0.0
O199 O 0.88942 0.48563 0.77847 0.0
C200 C 0.95189 0.50454 0.73152 0.0
O201 O 0.95657 0.49748 0.78565 0.0
O202 O 0.89632 0.53854 0.79572 0.0
C203 C 0.89457 0.46806 0.75458 0.0
O204 O 0.91535 0.46608 0.74456 0.0
C205 C 0.93018 0.49393 0.90445 0.0
O206 O 0.9212 0.47455 0.88627 0.0
O207 O 0.93388 0.5125 0.72367 0.0
H208 H 0.22846 0.31325 0.14449 0.0
H209 H 0.26246 0.26966 0.03399 0.0
H210 H 0.22211 0.28508 0.22194 0.0
H211 H 0.2558 0.24132 0.11148 0.0
H212 H 0.26238 0.2087 0.2996 0.0
H213 H 0.26747 0.23452 0.21582 0.0
H214 H 0.20072 0.24909 0.23753 0.0
H215 H 0.19567 0.22346 0.32227 0.0
C216 C 0.23459 0.29766 0.13668 0.0
C217 C 0.24602 0.29372 0.08309 0.0
C218 C 0.23075 0.28144 0.18086 0.0
C219 C 0.2383 0.26093 0.17259 0.0
C220 C 0.2499 0.25702 0.11926 0.0
C221 C 0.25369 0.27325 0.07489 0.0
C222 C 0.2487 0.21725 0.28622 0.0
C223 C 0.22866 0.21417 0.31795 0.0
C224 C 0.2516 0.23197 0.23795 0.0
C225 C 0.23456 0.24396 0.22041 0.0
C226 C 0.21426 0.24032 0.2507 0.0
C227 C 0.21133 0.22553 0.29893 0.0
H228 H 0.93577 0.00944 0.431 0.0
H229 H 0.99006 0.02275 0.30603 0.0
H230 H 0.96109 0.00083 0.51012 0.0
H231 H 0.01526 0.01337 0.3843 0.0
H232 H 0.05589 0.01782 0.5595 0.0
H233 H 0.03165 0.02585 0.47757 0.0
H234 H 0.98359 0.97314 0.53722 0.0
H235 H 0.0076 0.96562 0.62087 0.0
C236 C 0.95311 0.01057 0.42048 0.0
C237 C 0.96091 0.01683 0.36234 0.0
C238 C 0.96761 0.00539 0.4656 0.0
C239 C 0.9902 0.00617 0.4534 0.0
C240 C -0.00199 0.0128 0.39548 0.0
C241 C 0.98354 0.01817 0.35056 0.0
C242 C 0.04028 0.00773 0.55473 0.0
C243 C 0.0336 0.99115 0.59693 0.0
C244 C 0.02637 0.01232 0.50757 0.0
C245 C 0.00555 0.00031 0.50115 0.0
C246 C -0.00069 0.98305 0.54172 0.0
C247 C 0.01316 0.97858 0.58927 0.0
H248 H 0.25955 0.71367 0.69609 0.0
H249 H 0.20338 0.74161 0.62512 0.0
H250 H 0.26343 0.74136 0.7759 0.0
H251 H 0.20747 0.76951 0.70492 0.0
H252 H 0.21002 0.80272 0.89308 0.0
H253 H 0.2047 0.77393 0.8163 0.0
H254 H 0.27446 0.78127 0.78131 0.0
H255 H 0.27988 0.80993 0.85871 0.0
C256 C 0.24792 0.72563 0.69771 0.0
C257 C 0.23119 0.72549 0.65403 0.0
C258 C 0.25028 0.7416 0.74321 0.0
C259 C 0.23591 0.75774 0.74628 0.0
C260 C 0.21873 0.7572 0.70387 0.0
C261 C 0.21641 0.74124 0.65812 0.0
C262 C 0.22425 0.79822 0.86902 0.0
C263 C 0.2454 0.8086 0.88207 0.0
C264 C 0.22115 0.78179 0.82483 0.0
C265 C 0.23915 0.7753 0.79292 0.0
C266 C 0.2603 0.78572 0.80578 0.0
C267 C 0.26339 0.80223 0.84983 0.0
H268 H 0.44162 0.01289 0.1278 0.0
H269 H 0.49561 0.01265 0.25375 0.0
H270 H 0.4657 0.00507 0.04439 0.0
H271 H 0.51956 0.00442 0.17038 0.0
H272 H 0.55997 0.01352 -0.00705 0.0
H273 H 0.53697 0.02086 0.07913 0.0
H274 H 0.48465 0.9746 0.00819 0.0
H275 H 0.5075 0.96751 0.92124 0.0
C276 C 0.45864 0.01128 0.13768 0.0
C277 C 0.46669 0.0134 0.19745 0.0
C278 C 0.47238 0.00657 0.08995 0.0
C279 C 0.49448 0.0039 0.10087 0.0
C280 C 0.50265 0.00651 0.16042 0.0
C281 C 0.4889 0.01119 0.20821 0.0
C282 C 0.54365 0.00471 -0.004 0.0
C283 C 0.53553 0.98999 0.95003 0.0
C284 C 0.53049 0.0089 0.04552 0.0
C285 C 0.50892 -0.00152 0.05018 0.0
C286 C 0.50106 0.9832 0.00529 0.0
C287 C 0.51424 0.97898 0.95576 0.0
H288 H 0.20421 0.77384 0.13735 0.0
H289 H 0.24727 0.829 0.20685 0.0
H290 H 0.21431 0.75159 0.22192 0.0
H291 H 0.25802 0.8066 0.28982 0.0
H292 H 0.25716 0.76527 0.46229 0.0
H293 H 0.24639 0.78854 0.38111 0.0
H294 H 0.24489 0.73425 0.25502 0.0
H295 H 0.25483 0.71078 0.33686 0.0
C296 C 0.21574 0.78124 0.17083 0.0
C297 C 0.22493 0.80316 0.16536 0.0
C298 C 0.22173 0.76843 0.21896 0.0
C299 C 0.23722 0.7772 0.26232 0.0
C300 C 0.2459 0.79933 0.25769 0.0
C301 C 0.23974 0.81219 0.20996 0.0
C302 C 0.25479 0.75837 0.41708 0.0
C303 C 0.2568 0.73617 0.40601 0.0
C304 C 0.24861 0.77173 0.37045 0.0
C305 C 0.24452 0.76323 0.31157 0.0
C306 C 0.24736 0.74121 0.30012 0.0
C307 C 0.25332 0.72781 0.34687 0.0
H308 H 0.43899 0.02977 0.48324 0.0
H309 H 0.45206 0.96258 0.46157 0.0
H310 H 0.46467 0.03434 0.56777 0.0
H311 H 0.47756 0.96712 0.54703 0.0
H312 H 0.54245 -0.00637 0.63919 0.0
H313 H 0.514 0.98773 0.56215 0.0
H314 H 0.47134 0.02279 0.67249 0.0
H315 H 0.50001 0.029 0.74974 0.0
C316 C 0.44713 0.01587 0.49701 0.0
C317 C 0.44365 -0.00415 0.46528 0.0
C318 C 0.46176 0.01848 0.54572 0.0
C319 C 0.47327 0.00116 0.5637 0.0
C320 C 0.46916 0.98088 0.53353 0.0
C321 C 0.45446 0.97823 0.48487 0.0
C322 C 0.52704 0.00016 0.64712 0.0
C323 C 0.52352 0.01184 0.7006 0.0
C324 C 0.51065 -0.00343 0.60315 0.0
C325 C 0.49036 0.00462 0.61149 0.0
C326 C 0.48686 0.01648 0.66469 0.0
C327 C 0.50327 0.02003 0.7089 0.0
H328 H 0.24574 0.21084 0.65468 0.0
H329 H 0.24588 0.26476 0.52909 0.0
H330 H 0.2382 0.23498 0.73825 0.0
H331 H 0.23789 0.28877 0.61254 0.0
H332 H 0.24792 0.32923 0.78938 0.0
H333 H 0.25471 0.30603 0.70324 0.0
H334 H 0.20815 0.25433 0.77529 0.0
H335 H 0.20165 0.27741 0.86237 0.0
C336 C 0.24426 0.22786 0.64491 0.0
C337 C 0.24644 0.23588 0.58522 0.0
C338 C 0.23971 0.24164 0.69273 0.0
C339 C 0.23723 0.26374 0.68193 0.0
C340 C 0.23985 0.27186 0.62242 0.0
C341 C 0.2444 0.25808 0.57459 0.0
C342 C 0.23893 0.313 0.78661 0.0
C343 C 0.22431 0.30512 0.83293 0.0
C344 C 0.2428 0.29972 0.73708 0.0
C345 C 0.23213 0.27827 0.73272 0.0
C346 C 0.21693 0.27065 0.77796 0.0
C347 C 0.21305 0.28395 0.82755 0.0
H348 H 0.04667 0.04225 0.94826 0.0
H349 H 0.01327 -0.00359 0.82003 0.0
H350 H 0.01415 0.03828 0.0133 0.0
H351 H 0.98089 0.99245 0.88519 0.0
H352 H 0.92016 0.01027 -0.00552 0.0
H353 H 0.95161 0.01451 0.92516 0.0
H354 H -0.00479 0.00761 0.07594 0.0
H355 H 0.96409 0.00337 0.14493 0.0
C356 C 0.03239 0.03143 0.93383 0.0
C357 C 0.03259 0.01955 0.87926 0.0
C358 C 0.01383 0.02908 0.97116 0.0
C359 C -0.00493 0.01496 0.95435 0.0
C360 C -0.00493 0.00353 0.89905 0.0
C361 C 0.01368 0.00572 0.86201 0.0
C362 C 0.93643 0.00945 0.01266 0.0
C363 C 0.9396 0.00657 0.07523 0.0
C364 C 0.95441 0.01189 0.97303 0.0
C365 C 0.97584 0.01166 -0.00459 0.0
C366 C 0.97891 0.00826 0.05764 0.0
C367 C 0.96102 0.00566 0.09705 0.0
H368 H 0.768 0.71689 0.80035 0.0
H369 H 0.699 0.72137 0.8301 0.0
H370 H 0.76874 0.74457 0.72137 0.0
H371 H 0.69987 0.74937 0.75162 0.0
H372 H 0.70575 0.7863 0.57159 0.0
H373 H 0.70468 0.75578 0.64224 0.0
H374 H 0.76633 0.78402 0.71958 0.0
H375 H 0.76763 0.81438 0.64826 0.0
C376 C 0.75294 0.72367 0.78976 0.0
C377 C 0.73346 0.71704 0.8218 0.0
C378 C 0.75342 0.73963 0.74478 0.0
C379 C 0.73444 0.74932 0.73079 0.0
C380 C 0.71474 0.7421 0.76114 0.0
C381 C 0.71426 0.7261 0.80621 0.0
C382 C 0.71912 0.78598 0.60355 0.0
C383 C 0.73678 0.80279 0.60442 0.0
C384 C 0.71844 0.76853 0.64417 0.0
C385 C 0.73541 0.76749 0.68642 0.0
C386 C 0.75315 0.78421 0.68696 0.0
C387 C 0.75383 0.80168 0.64637 0.0
H388 H 0.78005 0.3174 0.34785 0.0
H389 H 0.71398 0.29544 0.40754 0.0
H390 H 0.77753 0.28783 0.27284 0.0
H391 H 0.71164 0.26583 0.33322 0.0
H392 H 0.70802 0.23253 0.14401 0.0
H393 H 0.70998 0.26107 0.22188 0.0
H394 H 0.77522 0.2474 0.2699 0.0
H395 H 0.77343 0.21907 0.19178 0.0
C396 C 0.76503 0.30627 0.34507 0.0
C397 C 0.74723 0.3088 0.38359 0.0
C398 C 0.76364 0.28926 0.30239 0.0
C399 C 0.74439 0.2745 0.29725 0.0
C400 C 0.72659 0.27708 0.33568 0.0
C401 C 0.728 0.294 0.37845 0.0
C402 C 0.7227 0.23548 0.17154 0.0
C403 C 0.74059 0.22358 0.16155 0.0
C404 C 0.7238 0.25179 0.21622 0.0
C405 C 0.74283 0.25657 0.25165 0.0
C406 C 0.76049 0.24432 0.24263 0.0
C407 C 0.75937 0.22797 0.19818 0.0
H408 H 0.75942 0.26645 0.96687 0.0
H409 H 0.76338 0.2132 0.84004 0.0
H410 H 0.7466 0.28855 0.88583 0.0
H411 H 0.75136 0.23559 0.75839 0.0
H412 H 0.70701 0.27074 0.63996 0.0
H413 H 0.71881 0.24962 0.72484 0.0
H414 H 0.75704 0.30781 0.79532 0.0
H415 H 0.74459 0.32901 0.71203 0.0
C416 C 0.75799 0.25962 0.9214 0.0
C417 C 0.76235 0.23805 0.90988 0.0
C418 C 0.75062 0.2723 0.87487 0.0
C419 C 0.74768 0.26377 0.81566 0.0
C420 C 0.7529 0.24248 0.80376 0.0
C421 C 0.76005 0.22973 0.8504 0.0
C422 C 0.71766 0.27906 0.67411 0.0
C423 C 0.72487 0.30152 0.6692 0.0
C424 C 0.72464 0.26692 0.7224 0.0
C425 C 0.73914 0.27694 0.76649 0.0
C426 C 0.74573 0.29958 0.76257 0.0
C427 C 0.73859 0.31174 0.71466 0.0
H428 H 0.75646 0.71485 0.15137 0.0
H429 H 0.74864 0.76626 0.02252 0.0
H430 H 0.74294 0.73687 0.23226 0.0
H431 H 0.73452 0.78799 0.10306 0.0
H432 H 0.73097 0.82887 0.2783 0.0
H433 H 0.74445 0.80831 0.19435 0.0
H434 H 0.70854 0.74884 0.26355 0.0
H435 H 0.69553 0.76932 0.34861 0.0
C436 C 0.75202 0.73091 0.14037 0.0
C437 C 0.7536 0.73877 0.08046 0.0
C438 C 0.74401 0.74343 0.1866 0.0
C439 C 0.73731 0.76405 0.17396 0.0
C440 C 0.73962 0.77223 0.11444 0.0
C441 C 0.74773 0.75975 0.06824 0.0
C442 C 0.72566 0.81146 0.27516 0.0
C443 C 0.71228 0.8007 0.32041 0.0
C444 C 0.73341 0.79967 0.22695 0.0
C445 C 0.72785 0.77687 0.22272 0.0
C446 C 0.71357 0.76631 0.26632 0.0
C447 C 0.70591 0.77808 0.3147 0.0
H448 H 0.49883 0.50993 0.22737 0.0
H449 H 0.55315 0.51411 0.10104 0.0
H450 H 0.47486 0.52009 0.14652 0.0
H451 H 0.52911 0.52365 0.02005 0.0
H452 H 0.48826 0.56351 0.90481 0.0
H453 H 0.51059 0.55432 0.99037 0.0
H454 H 0.45732 0.50746 0.05292 0.0
H455 H 0.4348 0.5171 0.9685 0.0
C456 C 0.50557 0.51265 0.18214 0.0
C457 C 0.5279 0.51129 0.17066 0.0
C458 C 0.49183 0.51848 0.1358 0.0
C459 C 0.50014 0.52297 0.07699 0.0
C460 C 0.52231 0.52084 0.06517 0.0
C461 C 0.53604 0.51513 0.11147 0.0
C462 C 0.48122 0.55146 0.93727 0.0
C463 C 0.45981 0.54097 0.92966 0.0
C464 C 0.49408 0.54604 0.986 0.0
C465 C 0.48586 0.5299 0.02798 0.0
C466 C 0.46413 0.52004 0.02166 0.0
C467 C 0.45122 0.52555 0.97313 0.0
H468 H 0.05937 0.49027 0.48323 0.0
H469 H 0.00114 0.46654 0.38133 0.0
H470 H 0.03679 0.49651 0.57105 0.0
H471 H 0.97854 0.47242 0.46993 0.0
H472 H 0.94526 0.513 0.61123 0.0
H473 H 0.96789 0.50445 0.52505 0.0
H474 H 0.0129 0.47798 0.64768 0.0
H475 H 0.9906 0.48688 0.73374 0.0
C476 C 0.04177 0.48603 0.47986 0.0
C477 C 0.03204 0.47802 0.42514 0.0
C478 C 0.02883 0.48956 0.53031 0.0
C479 C 0.00587 0.48517 0.52722 0.0
C480 C -0.00382 0.47633 0.4733 0.0
C481 C 0.00914 0.47274 0.42279 0.0
C482 C 0.96007 0.50551 0.6198 0.0
C483 C 0.96616 0.50069 0.67933 0.0
C484 C 0.97291 0.5004 0.5704 0.0
C485 C 0.99211 0.4904 0.57956 0.0
C486 C -0.00169 0.48583 0.63915 0.0
C487 C 0.98548 0.49091 0.68847 0.0
H488 H 0.00948 0.53345 0.22568 0.0
H489 H 0.04228 0.48483 0.13075 0.0
H490 H 0.97988 0.52888 0.1508 0.0
H491 H 0.01286 0.48044 0.05615 0.0
H492 H 0.94623 0.46146 0.9696 0.0
H493 H 0.97329 0.46587 0.05143 0.0
H494 H 0.97461 0.53616 0.04088 0.0
H495 H 0.94748 0.53182 0.95973 0.0
C496 C 0.01045 0.52191 0.18872 0.0
C497 C 0.02824 0.50952 0.18418 0.0
C498 C -0.00649 0.5193 0.14589 0.0
C499 C -0.00603 0.50416 0.09799 0.0
C500 C 0.01186 0.49195 0.09318 0.0
C501 C 0.02882 0.49464 0.13566 0.0
C502 C 0.9521 0.47783 0.98526 0.0
C503 C 0.94484 0.49628 0.9579 0.0
C504 C 0.96769 0.48036 0.03178 0.0
C505 C 0.97619 0.50137 0.05213 0.0
C506 C 0.96828 0.51977 0.0264 0.0
C507 C 0.95282 0.51726 0.97968 0.0
H508 H 0.46436 0.48608 0.63345 0.0
H509 H 0.46454 0.55598 0.65636 0.0
H510 H 0.49311 0.49256 0.55686 0.0
H511 H 0.49355 0.56242 0.58066 0.0
H512 H 0.52486 0.56265 0.38857 0.0
H513 H 0.49822 0.55819 0.4712 0.0
H514 H 0.53187 0.50666 0.54698 0.0
H515 H 0.55827 0.51082 0.46396 0.0
C516 C 0.4706 0.50281 0.62241 0.0
C517 C 0.46211 0.52049 0.65085 0.0
C518 C 0.48719 0.50654 0.57883 0.0
C519 C 0.49564 0.52802 0.56282 0.0
C520 C 0.48722 0.54569 0.59153 0.0
C521 C 0.47065 0.54197 0.63508 0.0
C522 C 0.52675 0.55057 0.42328 0.0
C523 C 0.54359 0.53699 0.41941 0.0
C524 C 0.5115 0.54804 0.47072 0.0
C525 C 0.51281 0.5319 0.51526 0.0
C526 C 0.53018 0.51895 0.51271 0.0
C527 C 0.54541 0.52147 0.46535 0.0
H528 H 0.12434 0.4405 0.27275 0.0
H529 H 0.12788 0.47505 0.10163 0.0
H530 H 0.14909 0.41558 0.23286 0.0
H531 H 0.15286 0.45039 0.06228 0.0
H532 H 0.18095 0.38935 -0.00763 0.0
H533 H 0.15402 0.41213 0.03162 0.0
H534 H 0.18779 0.41736 0.20416 0.0
H535 H 0.21442 0.39439 0.16549 0.0
C536 C 0.13039 0.44278 0.22668 0.0
C537 C 0.12419 0.45979 0.19044 0.0
C538 C 0.14464 0.42857 0.20392 0.0
C539 C 0.15295 0.43104 0.14444 0.0
C540 C 0.14653 0.44789 0.10801 0.0
C541 C 0.13233 0.46211 0.13077 0.0
C542 C 0.18256 0.3953 0.03872 0.0
C543 C 0.19984 0.39009 0.07575 0.0
C544 C 0.1672 0.40843 0.06111 0.0
C545 C 0.16878 0.41654 0.12101 0.0
C546 C 0.18594 0.41113 0.15811 0.0
C547 C 0.2013 0.39808 0.13574 0.0
H548 H 0.80117 0.84923 0.37572 0.0
H549 H 0.77065 0.9032 0.45138 0.0
H550 H 0.83188 0.87488 0.34 0.0
H551 H 0.8014 0.92871 0.41607 0.0
H552 H 0.84368 0.9684 0.27554 0.0
H553 H 0.81468 0.9416 0.31415 0.0
H554 H 0.86319 0.90146 0.3774 0.0
H555 H 0.89238 0.92826 0.33833 0.0
C556 C 0.80112 0.86651 0.38534 0.0
C557 C 0.78339 0.87419 0.41599 0.0
C558 C 0.81874 0.88118 0.36502 0.0
C559 C 0.81889 0.9038 0.37467 0.0
C560 C 0.80152 0.91139 0.40707 0.0
C561 C 0.78399 0.89675 0.42765 0.0
C562 C 0.84822 0.95381 0.29732 0.0
C563 C 0.87036 0.95051 0.30405 0.0
C564 C 0.83158 0.93855 0.31987 0.0
C565 C 0.83669 0.91958 0.34938 0.0
C566 C 0.85879 0.91593 0.35471 0.0
C567 C 0.87548 0.93129 0.33243 0.0
H568 H 0.27712 0.62981 0.69129 0.0
H569 H 0.31284 0.64737 0.52578 0.0
H570 H 0.30555 0.60773 0.72215 0.0
H571 H 0.34155 0.62546 0.55733 0.0
H572 H 0.37157 0.56167 0.60108 0.0
H573 H 0.34551 0.58651 0.57068 0.0
H574 H 0.34395 0.61095 0.7548 0.0
H575 H 0.36983 0.58579 0.78562 0.0
C576 C 0.29111 0.62907 0.66161 0.0
C577 C 0.29267 0.64028 0.60592 0.0
C578 C 0.3075 0.61654 0.67958 0.0
C579 C 0.32582 0.61488 0.64226 0.0
C580 C 0.32751 0.62626 0.5868 0.0
C581 C 0.31112 0.63887 0.56885 0.0
C582 C 0.36577 0.5724 0.6351 0.0
C583 C 0.37267 0.57165 0.69588 0.0
C584 C 0.35094 0.58675 0.61752 0.0
C585 C 0.34264 0.60066 0.66034 0.0
C586 C 0.34986 0.60023 0.72092 0.0
C587 C 0.36475 0.58589 0.7385 0.0
H588 H 0.69716 0.13658 0.02324 0.0
H589 H 0.71871 0.14011 0.83607 0.0
H590 H 0.66481 0.11196 -0.00651 0.0
H591 H 0.68616 0.11594 0.80623 0.0
H592 H 0.64115 0.05068 0.79238 0.0
H593 H 0.67199 0.07779 0.81735 0.0
H594 H 0.63043 0.11048 0.93751 0.0
H595 H 0.5996 0.08301 0.91353 0.0
C596 C 0.69492 0.13223 0.97572 0.0
C597 C 0.71057 0.14019 0.9321 0.0
C598 C 0.67629 0.11825 0.95859 0.0
C599 C 0.67291 0.11197 0.89746 0.0
C600 C 0.68843 0.12021 0.85379 0.0
C601 C 0.70705 0.13414 0.87091 0.0
C602 C 0.63851 0.06375 0.82371 0.0
C603 C 0.61794 0.0646 0.85124 0.0
C604 C 0.65618 0.07937 0.83782 0.0
C605 C 0.65371 0.09624 0.87969 0.0
C606 C 0.63296 0.09748 0.90582 0.0
C607 C 0.61526 0.08183 0.89172 0.0
H608 H 0.11701 0.54687 0.40279 0.0
H609 H 0.12687 0.57637 0.22537 0.0
H610 H 0.14031 0.57734 0.44781 0.0
H611 H 0.15076 0.60678 0.27056 0.0
H612 H 0.17727 0.66735 0.38097 0.0
H613 H 0.15108 0.63839 0.33827 0.0
H614 H 0.17878 0.59076 0.44938 0.0
H615 H 0.20456 0.61968 0.49298 0.0
C616 C 0.1242 0.55985 0.37327 0.0
C617 C 0.1202 0.55911 0.31034 0.0
C618 C 0.13766 0.57729 0.39915 0.0
C619 C 0.14756 0.59441 0.36277 0.0
C620 C 0.14322 0.59394 0.29994 0.0
C621 C 0.12964 0.57646 0.27398 0.0
C622 C 0.17763 0.65072 0.39668 0.0
C623 C 0.19301 0.64583 0.44041 0.0
C624 C 0.16273 0.63411 0.37183 0.0
C625 C 0.16287 0.61226 0.39025 0.0
C626 C 0.17802 0.60746 0.43473 0.0
C627 C 0.19288 0.62404 0.45959 0.0
H628 H 0.61918 0.97636 0.61065 0.0
H629 H 0.61583 0.9425 0.78282 0.0
H630 H 0.64024 0.94889 0.56783 0.0
H631 H 0.63668 0.91468 0.73937 0.0
H632 H 0.69847 0.88818 0.6613 0.0
H633 H 0.67428 0.91273 0.70485 0.0
H634 H 0.63746 0.91043 0.53724 0.0
H635 H 0.66199 0.88607 0.49303 0.0
C636 C 0.6228 0.96295 0.6393 0.0
C637 C 0.61594 0.96168 0.7003 0.0
C638 C 0.63474 0.9471 0.61453 0.0
C639 C 0.64012 0.92959 0.65015 0.0
C640 C 0.63298 0.92811 0.71095 0.0
C641 C 0.62098 0.94399 0.73577 0.0
C642 C 0.68516 0.8928 0.63372 0.0
C643 C 0.68225 0.88529 0.57351 0.0
C644 C 0.67118 0.90676 0.65892 0.0
C645 C 0.65397 0.91355 0.62451 0.0
C646 C 0.65075 0.90568 0.56467 0.0
C647 C 0.66474 0.89167 0.53943 0.0
H648 H 0.40787 0.44805 0.87084 0.0
H649 H 0.35642 0.48088 0.79061 0.0
H650 H 0.38059 0.41798 0.90244 0.0
H651 H 0.32932 0.45089 0.82231 0.0
H652 H 0.28658 0.41015 0.96034 0.0
H653 H 0.3154 0.43808 0.92632 0.0
H654 H 0.35258 0.3878 0.85782 0.0
H655 H 0.32364 0.35965 0.89177 0.0
C656 C 0.39081 0.44874 0.85934 0.0
C657 C 0.38429 0.46692 0.82861 0.0
C658 C 0.37523 0.43151 0.87733 0.0
C659 C 0.35286 0.43229 0.86547 0.0
C660 C 0.34645 0.45007 0.83287 0.0
C661 C 0.362 0.46716 0.81436 0.0
C662 C 0.30096 0.40498 0.93851 0.0
C663 C 0.30276 0.38267 0.92846 0.0
C664 C 0.31737 0.421 0.91862 0.0
C665 C 0.33606 0.41508 0.88879 0.0
C666 C 0.33832 0.39278 0.88071 0.0
C667 C 0.32175 0.37671 0.90007 0.0
H668 H 0.77809 0.10679 0.11576 0.0
H669 H 0.82689 0.15795 0.05145 0.0
H670 H 0.80692 0.08559 0.1482 0.0
H671 H 0.85595 0.13695 0.0859 0.0
H672 H 0.90018 0.08071 0.09896 0.0
H673 H 0.87315 0.10433 0.06612 0.0
H674 H 0.83405 0.08609 0.2255 0.0
H675 H 0.86061 0.06198 0.25701 0.0
C676 C 0.79501 0.11356 0.10875 0.0
C677 C 0.8002 0.13408 0.08125 0.0
C678 C 0.81157 0.10147 0.12785 0.0
C679 C 0.83379 0.10969 0.12053 0.0
C680 C 0.83902 0.13008 0.09195 0.0
C681 C 0.82237 0.14213 0.07233 0.0
C682 C 0.88592 0.08197 0.12728 0.0
C683 C 0.88239 0.06932 0.18022 0.0
C684 C 0.87045 0.09554 0.10854 0.0
C685 C 0.85124 0.09685 0.14267 0.0
C686 C 0.84835 0.08502 0.19724 0.0
C687 C 0.86366 0.07133 0.21559 0.0
H688 H 0.79058 0.63224 0.80871 0.0
H689 H 0.81583 0.64501 0.99029 0.0
H690 H 0.81725 0.60651 0.79189 0.0
H691 H 0.8428 0.61941 0.97297 0.0
H692 H 0.86305 0.5498 0.94614 0.0
H693 H 0.84067 0.57945 0.96172 0.0
H694 H 0.85668 0.60328 0.78076 0.0
H695 H 0.87897 0.57329 0.76467 0.0
C696 C 0.80198 0.62974 0.84485 0.0
C697 C 0.80095 0.64053 0.90107 0.0
C698 C 0.81738 0.6151 0.83499 0.0
C699 C 0.83207 0.61087 0.88116 0.0
C700 C 0.8315 0.62215 0.93678 0.0
C701 C 0.81613 0.63688 0.9466 0.0
C702 C 0.86192 0.5614 0.90967 0.0
C703 C 0.87268 0.5591 0.85399 0.0
C704 C 0.84922 0.57852 0.91886 0.0
C705 C 0.84693 0.59373 0.87252 0.0
C706 C 0.858 0.59169 0.81712 0.0
C707 C 0.8708 0.57457 0.808 0.0
H708 H 0.19982 0.11957 0.5198 0.0
H709 H 0.16536 0.1727 0.58371 0.0
H710 H 0.17253 0.09331 0.56853 0.0
H711 H 0.13807 0.14629 0.63272 0.0
H712 H 0.08233 0.08733 0.6508 0.0
H713 H 0.10856 0.11572 0.60573 0.0
H714 H 0.16215 0.08367 0.67595 0.0
H715 H 0.13607 0.05526 0.72074 0.0
C716 C 0.18635 0.12565 0.54385 0.0
C717 C 0.18481 0.14824 0.54805 0.0
C718 C 0.17083 0.11061 0.57221 0.0
C719 C 0.15334 0.11779 0.60503 0.0
C720 C 0.15137 0.14031 0.60766 0.0
C721 C 0.16702 0.1554 0.57965 0.0
C722 C 0.0997 0.08649 0.6573 0.0
C723 C 0.10711 0.06893 0.68891 0.0
C724 C 0.1147 0.10277 0.63156 0.0
C725 C 0.13737 0.10171 0.63661 0.0
C726 C 0.14476 0.08466 0.67038 0.0
C727 C 0.1298 0.06849 0.69643 0.0
H728 H 0.66566 0.37423 0.49495 0.0
H729 H 0.7141 0.41695 0.39602 0.0
H730 H 0.63691 0.39501 0.45796 0.0
H731 H 0.68564 0.43824 0.36111 0.0
H732 H 0.62909 0.46268 0.26553 0.0
H733 H 0.65517 0.43771 0.29531 0.0
H734 H 0.62344 0.42927 0.47065 0.0
H735 H 0.59688 0.45347 0.43981 0.0
C736 C 0.67018 0.38816 0.46568 0.0
C737 C 0.69214 0.39397 0.44844 0.0
C738 C 0.65372 0.40013 0.44461 0.0
C739 C 0.6589 0.4183 0.40636 0.0
C740 C 0.68092 0.42408 0.38938 0.0
C741 C 0.69731 0.41199 0.40987 0.0
C742 C 0.62754 0.45526 0.31013 0.0
C743 C 0.61102 0.46015 0.35044 0.0
C744 C 0.64259 0.44107 0.32744 0.0
C745 C 0.64163 0.43167 0.38574 0.0
C746 C 0.62459 0.436 0.42519 0.0
C747 C 0.60939 0.44998 0.4076 0.0
H748 H 0.34907 0.96969 0.25997 0.0
H749 H 0.40109 0.93396 0.19462 0.0
H750 H 0.32208 0.94349 0.20949 0.0
H751 H 0.37396 0.90777 0.14383 0.0
H752 H 0.31386 0.85378 0.12181 0.0
H753 H 0.34274 0.87901 0.16879 0.0
H754 H 0.31202 0.9339 0.10184 0.0
H755 H 0.28309 0.90877 0.05513 0.0
C756 C 0.35475 0.95617 0.23522 0.0
C757 C 0.37724 0.95395 0.23116 0.0
C758 C 0.33929 0.94127 0.20585 0.0
C759 C 0.34595 0.92375 0.17213 0.0
C760 C 0.36837 0.92111 0.16959 0.0
C761 C 0.38388 0.93612 0.19862 0.0
C762 C 0.31341 0.87123 0.11645 0.0
C763 C 0.29609 0.87927 0.0851 0.0
C764 C 0.32998 0.88566 0.14328 0.0
C765 C 0.32945 0.9084 0.13963 0.0
C766 C 0.31261 0.91643 0.10629 0.0
C767 C 0.29615 0.90203 0.07912 0.0
H768 H 0.78133 0.40733 0.55979 0.0
H769 H 0.81099 0.35188 0.62799 0.0
H770 H 0.81068 0.43212 0.60592 0.0
H771 H 0.84016 0.37672 0.67476 0.0
H772 H 0.89994 0.42943 0.6977 0.0
H773 H 0.87176 0.40372 0.64983 0.0
H774 H 0.82199 0.44314 0.71008 0.0
H775 H 0.85014 0.46901 0.75727 0.0
C776 C 0.79419 0.40042 0.5842 0.0
C777 C 0.79377 0.37763 0.59042 0.0
C778 C 0.81089 0.41463 0.61109 0.0
C779 C 0.82758 0.40637 0.64459 0.0
C780 C 0.82758 0.38358 0.64903 0.0
C781 C 0.81083 0.36935 0.6223 0.0
C782 C 0.88297 0.43252 0.70121 0.0
C783 C 0.8773 0.45132 0.73111 0.0
C784 C 0.86682 0.41776 0.67384 0.0
C785 C 0.84468 0.42153 0.67562 0.0
C786 C 0.83896 0.44001 0.70694 0.0
C787 C 0.85508 0.45472 0.73448 0.0
H788 H 0.28005 0.12621 0.31973 0.0
H789 H 0.30388 0.14058 0.50199 0.0
H790 H 0.30782 0.10148 0.30522 0.0
H791 H 0.33193 0.11594 0.48704 0.0
H792 H 0.35671 0.04808 0.46117 0.0
H793 H 0.33217 0.07601 0.47588 0.0
H794 H 0.34784 0.10095 0.29584 0.0
H795 H 0.3723 0.07276 0.28067 0.0
C796 C 0.29132 0.12423 0.35659 0.0
C797 C 0.28968 0.13527 0.41217 0.0
C798 C 0.30735 0.11017 0.34805 0.0
C799 C 0.32205 0.10676 0.39497 0.0
C800 C 0.32067 0.11808 0.45025 0.0
C801 C 0.30468 0.13225 0.45872 0.0
C802 C 0.35503 0.05957 0.42476 0.0
C803 C 0.36635 0.05812 0.36958 0.0
C804 C 0.34108 0.07569 0.43342 0.0
C805 C 0.33806 0.09066 0.38702 0.0
C806 C 0.34968 0.08948 0.3322 0.0
C807 C 0.36374 0.0734 0.32361 0.0
H808 H 0.59405 0.59337 0.15803 0.0
H809 H 0.6465 0.55942 0.2279 0.0
H810 H 0.62096 0.61987 0.10847 0.0
H811 H 0.67337 0.58607 0.17859 0.0
H812 H 0.71214 0.62207 0.02319 0.0
H813 H 0.68459 0.59601 0.07215 0.0
H814 H 0.65061 0.64948 0.13544 0.0
H815 H 0.67802 0.67555 0.08621 0.0
C816 C 0.61132 0.59165 0.16321 0.0
C817 C 0.61814 0.57426 0.1968 0.0
C818 C 0.62671 0.60687 0.13495 0.0
C819 C 0.64924 0.60495 0.13936 0.0
C820 C 0.65609 0.58777 0.17371 0.0
C821 C 0.6407 0.57262 0.20234 0.0
C822 C 0.6987 0.62826 0.04713 0.0
C823 C 0.69728 0.65088 0.0509 0.0
C824 C 0.68304 0.61335 0.07558 0.0
C825 C 0.66555 0.62074 0.10795 0.0
C826 C 0.66384 0.64331 0.1105 0.0
C827 C 0.67958 0.65823 0.08243 0.0
H828 H 0.20709 0.8999 0.8508 0.0
H829 H 0.17459 0.89169 0.02503 0.0
H830 H 0.18031 0.92356 0.81795 0.0
H831 H 0.14748 0.91518 0.99155 0.0
H832 H 0.12125 0.97954 0.93277 0.0
H833 H 0.14596 0.9539 0.96724 0.0
H834 H 0.14153 0.92213 0.79146 0.0
H835 H 0.11709 0.94803 0.7565 0.0
C836 C 0.19416 0.90305 0.88204 0.0
C837 C 0.193 0.89396 0.94061 0.0
C838 C 0.1787 0.91649 0.86298 0.0
C839 C 0.16173 0.92119 0.90205 0.0
C840 C 0.16049 0.91203 0.96061 0.0
C841 C 0.17596 0.89851 0.97968 0.0
C842 C 0.12546 0.96703 0.90151 0.0
C843 C 0.11732 0.96591 0.84174 0.0
C844 C 0.13951 0.95224 0.92144 0.0
C845 C 0.14576 0.93604 0.88202 0.0
C846 C 0.13725 0.93464 0.82264 0.0
C847 C 0.12317 0.94941 0.80271 0.0
loop_
_geom_bond_atom_site_label_1
_geom_bond_atom_site_label_2
_geom_bond_distance
_geom_bond_site_symmetry_2
_ccdc_geom_bond_type
C0 O1 1.160 . S
C0 O7 1.185 . S
O1 C0 1.160 . S
O2 Zn3 1.899 . S
O2 C10 1.284 . S
Zn3 O2 1.899 . S
Zn3 O4 2.032 . S
Zn3 O7 2.086 . S
Zn3 O12 1.977 1_554 S
O4 Zn3 2.032 . S
O4 C8 1.278 1_554 S
C5 O6 1.203 . S
C5 O12 1.267 . S
O6 C5 1.203 . S
O7 C0 1.185 . S
O7 Zn3 2.086 . S
C8 O4 1.278 1_556 S
C8 O9 1.211 . S
O9 C8 1.211 . S
C10 O2 1.284 . S
C10 O11 1.273 . S
O11 C10 1.273 . S
O12 Zn3 1.977 1_556 S
O12 C5 1.267 . S
C13 O14 1.160 . S
C13 O20 1.185 . S
O14 C13 1.160 . S
O15 Zn16 1.899 . S
O15 C23 1.284 . S
Zn16 O15 1.899 . S
Zn16 O17 2.032 . S
Zn16 O20 2.086 . S
Zn16 O25 1.977 . S
O17 Zn16 2.032 . S
O17 C21 1.278 1_545 S
C18 O19 1.203 . S
C18 O25 1.267 . S
O19 C18 1.203 . S
O20 C13 1.185 . S
O20 Zn16 2.086 . S
C21 O17 1.278 1_565 S
C21 O22 1.211 . S
O22 C21 1.211 . S
C23 O15 1.284 . S
C23 O24 1.273 1_545 S
O24 C23 1.273 1_565 S
O25 Zn16 1.977 . S
O25 C18 1.267 . S
C26 O27 1.160 . S
C26 O33 1.185 . S
O27 C26 1.160 . S
O28 Zn29 1.899 . S
O28 C36 1.284 . S
Zn29 O28 1.899 . S
Zn29 O30 2.032 . S
Zn29 O33 2.086 . S
Zn29 O38 1.977 . S
O30 Zn29 2.032 . S
O30 C34 1.278 . S
C31 O32 1.203 . S
C31 O38 1.267 . S
O32 C31 1.203 . S
O33 C26 1.185 . S
O33 Zn29 2.086 . S
C34 O30 1.278 . S
C34 O35 1.211 . S
O35 C34 1.211 . S
C36 O28 1.284 . S
C36 O37 1.273 . S
O37 C36 1.273 . S
O38 Zn29 1.977 . S
O38 C31 1.267 . S
C39 O40 1.160 . S
C39 O46 1.185 . S
O40 C39 1.160 . S
O41 Zn42 1.899 . S
O41 C49 1.284 . S
Zn42 O41 1.899 . S
Zn42 O43 2.032 . S
Zn42 O46 2.086 1_545 S
Zn42 O51 1.977 . S
O43 Zn42 2.032 . S
O43 C47 1.278 . S
C44 O45 1.203 . S
C44 O51 1.267 . S
O45 C44 1.203 . S
O46 C39 1.185 . S
O46 Zn42 2.086 1_565 S
C47 O43 1.278 . S
C47 O48 1.211 . S
O48 C47 1.211 . S
C49 O41 1.284 . S
C49 O50 1.273 . S
O50 C49 1.273 . S
O51 Zn42 1.977 . S
O51 C44 1.267 . S
C52 O53 1.160 . S
C52 O59 1.185 1_556 S
O53 C52 1.160 . S
O54 Zn55 1.899 1_556 S
O54 C62 1.284 . S
Zn55 O54 1.899 1_554 S
Zn55 O56 2.032 . S
Zn55 O59 2.086 . S
Zn55 O64 1.977 . S
O56 Zn55 2.032 . S
O56 C60 1.278 . S
C57 O58 1.203 . S
C57 O64 1.267 . S
O58 C57 1.203 . S
O59 C52 1.185 1_554 S
O59 Zn55 2.086 . S
C60 O56 1.278 . S
C60 O61 1.211 . S
O61 C60 1.211 . S
C62 O54 1.284 . S
C62 O63 1.273 . S
O63 C62 1.273 . S
O64 Zn55 1.977 . S
O64 C57 1.267 . S
C65 O66 1.160 . S
C65 O72 1.185 . S
O66 C65 1.160 . S
O67 Zn68 1.899 . S
O67 C75 1.284 . S
Zn68 O67 1.899 . S
Zn68 O69 2.032 . S
Zn68 O72 2.086 1_545 S
Zn68 O77 1.977 . S
O69 Zn68 2.032 . S
O69 C73 1.278 . S
C70 O71 1.203 . S
C70 O77 1.267 . S
O71 C70 1.203 . S
O72 C65 1.185 . S
O72 Zn68 2.086 1_565 S
C73 O69 1.278 . S
C73 O74 1.211 . S
O74 C73 1.211 . S
C75 O67 1.284 . S
C75 O76 1.273 . S
O76 C75 1.273 . S
O77 Zn68 1.977 . S
O77 C70 1.267 . S
C78 O79 1.160 . S
C78 O85 1.185 . S
O79 C78 1.160 . S
O80 Zn81 1.899 . S
O80 C88 1.284 . S
Zn81 O80 1.899 . S
Zn81 O82 2.032 . S
Zn81 O85 2.086 . S
Zn81 O90 1.977 . S
O82 Zn81 2.032 . S
O82 C86 1.278 . S
C83 O84 1.203 . S
C83 O90 1.267 . S
O84 C83 1.203 . S
O85 C78 1.185 . S
O85 Zn81 2.086 . S
C86 O82 1.278 . S
C86 O87 1.211 . S
O87 C86 1.211 . S
C88 O80 1.284 . S
C88 O89 1.273 . S
O89 C88 1.273 . S
O90 Zn81 1.977 . S
O90 C83 1.267 . S
C91 O92 1.160 . S
C91 O98 1.185 . S
O92 C91 1.160 . S
O93 Zn94 1.899 . S
O93 C101 1.284 . S
Zn94 O93 1.899 . S
Zn94 O95 2.032 . S
Zn94 O98 2.086 . S
Zn94 O103 1.977 . S
O95 Zn94 2.032 . S
O95 C99 1.278 1_545 S
C96 O97 1.203 . S
C96 O103 1.267 . S
O97 C96 1.203 . S
O98 C91 1.185 . S
O98 Zn94 2.086 . S
C99 O95 1.278 1_565 S
C99 O100 1.211 . S
O100 C99 1.211 . S
C101 O93 1.284 . S
C101 O102 1.273 1_545 S
O102 C101 1.273 1_565 S
O103 Zn94 1.977 . S
O103 C96 1.267 . S
C104 O105 1.160 . S
C104 O111 1.185 . S
O105 C104 1.160 . S
O106 Zn107 1.899 . S
O106 C114 1.284 . S
Zn107 O106 1.899 . S
Zn107 O108 2.032 . S
Zn107 O111 2.086 . S
Zn107 O116 1.977 . S
O108 Zn107 2.032 . S
O108 C112 1.278 . S
C109 O110 1.203 . S
C109 O116 1.267 . S
O110 C109 1.203 . S
O111 C104 1.185 . S
O111 Zn107 2.086 . S
C112 O108 1.278 . S
C112 O113 1.211 . S
O113 C112 1.211 . S
C114 O106 1.284 . S
C114 O115 1.273 . S
O115 C114 1.273 . S
O116 Zn107 1.977 . S
O116 C109 1.267 . S
C117 O118 1.160 . S
C117 O124 1.185 . S
O118 C117 1.160 . S
O119 Zn120 1.899 . S
O119 C127 1.284 . S
Zn120 O119 1.899 . S
Zn120 O121 2.032 . S
Zn120 O124 2.086 . S
Zn120 O129 1.977 . S
O121 Zn120 2.032 . S
O121 C125 1.278 . S
C122 O123 1.203 . S
C122 O129 1.267 . S
O123 C122 1.203 . S
O124 C117 1.185 . S
O124 Zn120 2.086 . S
C125 O121 1.278 . S
C125 O126 1.211 . S
O126 C125 1.211 . S
C127 O119 1.284 . S
C127 O128 1.273 . S
O128 C127 1.273 . S
O129 Zn120 1.977 . S
O129 C122 1.267 . S
C130 O131 1.160 . S
C130 O137 1.185 . S
O131 C130 1.160 . S
O132 Zn133 1.899 . S
O132 C140 1.284 . S
Zn133 O132 1.899 . S
Zn133 O134 2.032 . S
Zn133 O137 2.086 . S
Zn133 O142 1.977 1_554 S
O134 Zn133 2.032 . S
O134 C138 1.278 1_554 S
C135 O136 1.203 . S
C135 O142 1.267 . S
O136 C135 1.203 . S
O137 C130 1.185 . S
O137 Zn133 2.086 . S
C138 O134 1.278 1_556 S
C138 O139 1.211 . S
O139 C138 1.211 . S
C140 O132 1.284 . S
C140 O141 1.273 . S
O141 C140 1.273 . S
O142 Zn133 1.977 1_556 S
O142 C135 1.267 . S
C143 O144 1.160 . S
C143 O150 1.185 . S
O144 C143 1.160 . S
O145 Zn146 1.899 . S
O145 C153 1.284 . S
Zn146 O145 1.899 . S
Zn146 O147 2.032 . S
Zn146 O150 2.086 . S
Zn146 O155 1.977 . S
O147 Zn146 2.032 . S
O147 C151 1.278 . S
C148 O149 1.203 . S
C148 O155 1.267 . S
O149 C148 1.203 . S
O150 C143 1.185 . S
O150 Zn146 2.086 . S
C151 O147 1.278 . S
C151 O152 1.211 . S
O152 C151 1.211 . S
C153 O145 1.284 . S
C153 O154 1.273 . S
O154 C153 1.273 . S
O155 Zn146 1.977 . S
O155 C148 1.267 . S
C156 O157 1.160 . S
C156 O163 1.185 . S
O157 C156 1.160 . S
O158 Zn159 1.899 . S
O158 C166 1.284 . S
Zn159 O158 1.899 . S
Zn159 O160 2.032 . S
Zn159 O163 2.086 . S
Zn159 O168 1.977 . S
O160 Zn159 2.032 . S
O160 C164 1.278 . S
C161 O162 1.203 . S
C161 O168 1.267 . S
O162 C161 1.203 . S
O163 C156 1.185 . S
O163 Zn159 2.086 . S
C164 O160 1.278 . S
C164 O165 1.211 . S
O165 C164 1.211 . S
C166 O158 1.284 . S
C166 O167 1.273 . S
O167 C166 1.273 . S
O168 Zn159 1.977 . S
O168 C161 1.267 . S
C169 O170 1.160 . S
C169 O176 1.185 . S
O170 C169 1.160 . S
O171 Zn172 1.899 . S
O171 C179 1.284 . S
Zn172 O171 1.899 . S
Zn172 O173 2.032 . S
Zn172 O176 2.086 . S
Zn172 O181 1.977 . S
O173 Zn172 2.032 . S
O173 C177 1.278 . S
C174 O175 1.203 . S
C174 O181 1.267 . S
O175 C174 1.203 . S
O176 C169 1.185 . S
O176 Zn172 2.086 . S
C177 O173 1.278 . S
C177 O178 1.211 . S
O178 C177 1.211 . S
C179 O171 1.284 . S
C179 O180 1.273 . S
O180 C179 1.273 . S
O181 Zn172 1.977 . S
O181 C174 1.267 . S
C182 O183 1.160 . S
C182 O189 1.185 1_556 S
O183 C182 1.160 . S
O184 Zn185 1.899 1_556 S
O184 C192 1.284 . S
Zn185 O184 1.899 1_554 S
Zn185 O186 2.032 . S
Zn185 O189 2.086 . S
Zn185 O194 1.977 . S
O186 Zn185 2.032 . S
O186 C190 1.278 . S
C187 O188 1.203 . S
C187 O194 1.267 . S
O188 C187 1.203 . S
O189 C182 1.185 1_554 S
O189 Zn185 2.086 . S
C190 O186 1.278 . S
C190 O191 1.211 . S
O191 C190 1.211 . S
C192 O184 1.284 . S
C192 O193 1.273 . S
O193 C192 1.273 . S
O194 Zn185 1.977 . S
O194 C187 1.267 . S
C195 O196 1.160 . S
C195 O202 1.185 . S
O196 C195 1.160 . S
O197 Zn198 1.899 . S
O197 C205 1.284 . S
Zn198 O197 1.899 . S
Zn198 O199 2.032 . S
Zn198 O202 2.086 . S
Zn198 O207 1.977 . S
O199 Zn198 2.032 . S
O199 C203 1.278 . S
C200 O201 1.203 . S
C200 O207 1.267 . S
O201 C200 1.203 . S
O202 C195 1.185 . S
O202 Zn198 2.086 . S
C203 O199 1.278 . S
C203 O204 1.211 . S
O204 C203 1.211 . S
C205 O197 1.284 . S
C205 O206 1.273 . S
O206 C205 1.273 . S
O207 Zn198 1.977 . S
O207 C200 1.267 . S
H208 C216 0.950 . S
H209 C221 0.950 . S
H210 C218 0.950 . S
H211 C220 0.950 . S
H212 C222 0.950 . S
H213 C224 0.950 . S
H214 C226 0.950 . S
H215 C227 0.950 . S
C216 H208 0.950 . S
C216 C217 1.386 . S
C216 C218 1.391 . S
C217 C216 1.386 . S
C217 C221 1.393 . S
C218 H210 0.950 . S
C218 C216 1.391 . S
C218 C219 1.400 . S
C219 C218 1.400 . S
C219 C220 1.398 . S
C219 C225 1.491 . S
C220 H211 0.950 . S
C220 C219 1.398 . S
C220 C221 1.391 . S
C221 H209 0.950 . S
C221 C217 1.393 . S
C221 C220 1.391 . S
C222 H212 0.950 . S
C222 C223 1.386 . S
C222 C224 1.391 . S
C223 C222 1.386 . S
C223 C227 1.393 . S
C224 H213 0.950 . S
C224 C222 1.391 . S
C224 C225 1.400 . S
C225 C219 1.491 . S
C225 C224 1.400 . S
C225 C226 1.398 . S
C226 H214 0.950 . S
C226 C225 1.398 . S
C226 C227 1.391 . S
C227 H215 0.950 . S
C227 C223 1.393 . S
C227 C226 1.391 . S
H228 C236 0.950 . S
H229 C241 0.950 . S
H230 C238 0.950 . S
H231 C240 0.950 1_455 S
H232 C242 0.950 . S
H233 C244 0.950 . S
H234 C246 0.950 1_655 S
H235 C247 0.950 . S
C236 H228 0.950 . S
C236 C237 1.386 . S
C236 C238 1.391 . S
C237 C236 1.386 . S
C237 C241 1.393 . S
C238 H230 0.950 . S
C238 C236 1.391 . S
C238 C239 1.400 . S
C239 C238 1.400 . S
C239 C240 1.398 . S
C239 C245 1.491 1_655 S
C240 H231 0.950 1_655 S
C240 C239 1.398 . S
C240 C241 1.391 . S
C241 H229 0.950 . S
C241 C237 1.393 . S
C241 C240 1.391 . S
C242 H232 0.950 . S
C242 C243 1.386 . S
C242 C244 1.391 . S
C243 C242 1.386 . S
C243 C247 1.393 . S
C244 H233 0.950 . S
C244 C242 1.391 . S
C244 C245 1.400 . S
C245 C239 1.491 1_455 S
C245 C244 1.400 . S
C245 C246 1.398 . S
C246 H234 0.950 1_455 S
C246 C245 1.398 . S
C246 C247 1.391 . S
C247 H235 0.950 . S
C247 C243 1.393 . S
C247 C246 1.391 . S
H248 C256 0.950 . S
H249 C261 0.950 . S
H250 C258 0.950 . S
H251 C260 0.950 . S
H252 C262 0.950 . S
H253 C264 0.950 . S
H254 C266 0.950 . S
H255 C267 0.950 . S
C256 H248 0.950 . S
C256 C257 1.386 . S
C256 C258 1.391 . S
C257 C256 1.386 . S
C257 C261 1.393 . S
C258 H250 0.950 . S
C258 C256 1.391 . S
C258 C259 1.400 . S
C259 C258 1.400 . S
C259 C260 1.398 . S
C259 C265 1.491 . S
C260 H251 0.950 . S
C260 C259 1.398 . S
C260 C261 1.391 . S
C261 H249 0.950 . S
C261 C257 1.393 . S
C261 C260 1.391 . S
C262 H252 0.950 . S
C262 C263 1.386 . S
C262 C264 1.391 . S
C263 C262 1.386 . S
C263 C267 1.393 . S
C264 H253 0.950 . S
C264 C262 1.391 . S
C264 C265 1.400 . S
C265 C259 1.491 . S
C265 C264 1.400 . S
C265 C266 1.398 . S
C266 H254 0.950 . S
C266 C265 1.398 . S
C266 C267 1.391 . S
C267 H255 0.950 . S
C267 C263 1.393 . S
C267 C266 1.391 . S
H268 C276 0.950 . S
H269 C281 0.950 . S
H270 C278 0.950 1_556 S
H271 C280 0.950 . S
H272 C282 0.950 . S
H273 C284 0.950 . S
H274 C286 0.950 . S
H275 C287 0.950 . S
C276 H268 0.950 . S
C276 C277 1.386 . S
C276 C278 1.391 . S
C277 C276 1.386 . S
C277 C281 1.393 . S
C278 H270 0.950 1_554 S
C278 C276 1.391 . S
C278 C279 1.400 . S
C279 C278 1.400 . S
C279 C280 1.398 . S
C279 C285 1.491 1_554 S
C280 H271 0.950 . S
C280 C279 1.398 . S
C280 C281 1.391 . S
C281 H269 0.950 . S
C281 C277 1.393 . S
C281 C280 1.391 . S
C282 H272 0.950 . S
C282 C283 1.386 . S
C282 C284 1.391 1_556 S
C283 C282 1.386 . S
C283 C287 1.393 . S
C284 H273 0.950 . S
C284 C282 1.391 1_554 S
C284 C285 1.400 1_554 S
C285 C279 1.491 1_556 S
C285 C284 1.400 1_556 S
C285 C286 1.398 . S
C286 H274 0.950 . S
C286 C285 1.398 . S
C286 C287 1.391 . S
C287 H275 0.950 . S
C287 C283 1.393 . S
C287 C286 1.391 . S
H288 C296 0.950 . S
H289 C301 0.950 . S
H290 C298 0.950 . S
H291 C300 0.950 . S
H292 C302 0.950 . S
H293 C304 0.950 . S
H294 C306 0.950 . S
H295 C307 0.950 . S
C296 H288 0.950 . S
C296 C297 1.386 . S
C296 C298 1.391 . S
C297 C296 1.386 . S
C297 C301 1.393 . S
C298 H290 0.950 . S
C298 C296 1.391 . S
C298 C299 1.400 . S
C299 C298 1.400 . S
C299 C300 1.398 . S
C299 C305 1.491 . S
C300 H291 0.950 . S
C300 C299 1.398 . S
C300 C301 1.391 . S
C301 H289 0.950 . S
C301 C297 1.393 . S
C301 C300 1.391 . S
C302 H292 0.950 . S
C302 C303 1.386 . S
C302 C304 1.391 . S
C303 C302 1.386 . S
C303 C307 1.393 . S
C304 H293 0.950 . S
C304 C302 1.391 . S
C304 C305 1.400 . S
C305 C299 1.491 . S
C305 C304 1.400 . S
C305 C306 1.398 . S
C306 H294 0.950 . S
C306 C305 1.398 . S
C306 C307 1.391 . S
C307 H295 0.950 . S
C307 C303 1.393 . S
C307 C306 1.391 . S
H308 C316 0.950 . S
H309 C321 0.950 1_565 S
H310 C318 0.950 . S
H311 C320 0.950 1_565 S
H312 C322 0.951 . S
H313 C324 0.950 1_565 S
H314 C326 0.950 . S
H315 C327 0.950 . S
C316 H308 0.950 . S
C316 C317 1.386 . S
C316 C318 1.391 . S
C317 C316 1.386 . S
C317 C321 1.393 . S
C318 H310 0.950 . S
C318 C316 1.391 . S
C318 C319 1.400 . S
C319 C318 1.400 . S
C319 C320 1.398 . S
C319 C325 1.491 . S
C320 H311 0.950 1_545 S
C320 C319 1.398 . S
C320 C321 1.391 . S
C321 H309 0.950 1_545 S
C321 C317 1.393 . S
C321 C320 1.391 . S
C322 H312 0.951 . S
C322 C323 1.386 . S
C322 C324 1.391 . S
C323 C322 1.386 . S
C323 C327 1.393 . S
C324 H313 0.950 1_545 S
C324 C322 1.391 . S
C324 C325 1.400 . S
C325 C319 1.491 . S
C325 C324 1.400 . S
C325 C326 1.398 . S
C326 H314 0.950 . S
C326 C325 1.398 . S
C326 C327 1.391 . S
C327 H315 0.950 . S
C327 C323 1.393 . S
C327 C326 1.391 . S
H328 C336 0.950 . S
H329 C341 0.950 . S
H330 C338 0.950 . S
H331 C340 0.950 . S
H332 C342 0.950 . S
H333 C344 0.950 . S
H334 C346 0.950 . S
H335 C347 0.950 . S
C336 H328 0.950 . S
C336 C337 1.386 . S
C336 C338 1.391 . S
C337 C336 1.386 . S
C337 C341 1.393 . S
C338 H330 0.950 . S
C338 C336 1.391 . S
C338 C339 1.400 . S
C339 C338 1.400 . S
C339 C340 1.398 . S
C339 C345 1.491 . S
C340 H331 0.950 . S
C340 C339 1.398 . S
C340 C341 1.391 . S
C341 H329 0.950 . S
C341 C337 1.393 . S
C341 C340 1.391 . S
C342 H332 0.950 . S
C342 C343 1.386 . S
C342 C344 1.391 . S
C343 C342 1.386 . S
C343 C347 1.393 . S
C344 H333 0.950 . S
C344 C342 1.391 . S
C344 C345 1.400 . S
C345 C339 1.491 . S
C345 C344 1.400 . S
C345 C346 1.398 . S
C346 H334 0.950 . S
C346 C345 1.398 . S
C346 C347 1.391 . S
C347 H335 0.950 . S
C347 C343 1.393 . S
C347 C346 1.391 . S
H348 C356 0.950 . S
H349 C361 0.955 . S
H350 C358 0.950 . S
H351 C360 0.950 1_665 S
H352 C362 0.970 . S
H353 C364 0.950 1_565 S
H354 C366 0.950 1_455 S
H355 C367 0.950 . S
C356 H348 0.950 . S
C356 C357 1.386 . S
C356 C358 1.391 1_556 S
C357 C356 1.386 . S
C357 C361 1.393 . S
C358 H350 0.950 . S
C358 C356 1.391 1_554 S
C358 C359 1.400 1_554 S
C359 C358 1.400 1_556 S
C359 C360 1.398 . S
C359 C365 1.491 1_456 S
C360 H351 0.950 1_445 S
C360 C359 1.398 . S
C360 C361 1.391 . S
C361 H349 0.955 . S
C361 C357 1.393 . S
C361 C360 1.391 . S
C362 H352 0.970 . S
C362 C363 1.366 1_565 S
C362 C364 1.391 1_565 S
C363 C362 1.366 1_545 S
C363 C367 1.393 . S
C364 H353 0.950 1_545 S
C364 C362 1.391 1_545 S
C364 C365 1.400 . S
C365 C359 1.491 1_654 S
C365 C364 1.400 . S
C365 C366 1.398 . S
C366 H354 0.950 1_655 S
C366 C365 1.398 . S
C366 C367 1.391 . S
C367 H355 0.950 . S
C367 C363 1.393 . S
C367 C366 1.391 . S
H368 C376 0.950 . S
H369 C381 0.950 . S
H370 C378 0.950 . S
H371 C380 0.950 . S
H372 C382 0.950 . S
H373 C384 0.950 . S
H374 C386 0.950 . S
H375 C387 0.950 . S
C376 H368 0.950 . S
C376 C377 1.386 . S
C376 C378 1.391 . S
C377 C376 1.386 . S
C377 C381 1.393 . S
C378 H370 0.950 . S
C378 C376 1.391 . S
C378 C379 1.400 . S
C379 C378 1.400 . S
C379 C380 1.398 . S
C379 C385 1.491 . S
C380 H371 0.950 . S
C380 C379 1.398 . S
C380 C381 1.391 . S
C381 H369 0.950 . S
C381 C377 1.393 . S
C381 C380 1.391 . S
C382 H372 0.950 . S
C382 C383 1.386 . S
C382 C384 1.391 . S
C383 C382 1.386 . S
C383 C387 1.393 . S
C384 H373 0.950 . S
C384 C382 1.391 . S
C384 C385 1.400 . S
C385 C379 1.491 . S
C385 C384 1.400 . S
C385 C386 1.398 . S
C386 H374 0.950 . S
C386 C385 1.398 . S
C386 C387 1.391 . S
C387 H375 0.950 . S
C387 C383 1.393 . S
C387 C386 1.391 . S
H388 C396 0.950 . S
H389 C401 0.950 . S
H390 C398 0.950 . S
H391 C400 0.950 . S
H392 C402 0.950 . S
H393 C404 0.950 . S
H394 C406 0.950 . S
H395 C407 0.950 . S
C396 H388 0.950 . S
C396 C397 1.386 . S
C396 C398 1.391 . S
C397 C396 1.386 . S
C397 C401 1.393 . S
C398 H390 0.950 . S
C398 C396 1.391 . S
C398 C399 1.400 . S
C399 C398 1.400 . S
C399 C400 1.398 . S
C399 C405 1.491 . S
C400 H391 0.950 . S
C400 C399 1.398 . S
C400 C401 1.391 . S
C401 H389 0.950 . S
C401 C397 1.393 . S
C401 C400 1.391 . S
C402 H392 0.950 . S
C402 C403 1.386 . S
C402 C404 1.391 . S
C403 C402 1.386 . S
C403 C407 1.393 . S
C404 H393 0.950 . S
C404 C402 1.391 . S
C404 C405 1.400 . S
C405 C399 1.491 . S
C405 C404 1.400 . S
C405 C406 1.398 . S
C406 H394 0.950 . S
C406 C405 1.398 . S
C406 C407 1.391 . S
C407 H395 0.950 . S
C407 C403 1.393 . S
C407 C406 1.391 . S
H408 C416 0.950 . S
H409 C421 0.950 . S
H410 C418 0.950 . S
H411 C420 0.950 . S
H412 C422 0.950 . S
H413 C424 0.950 . S
H414 C426 0.950 . S
H415 C427 0.950 . S
C416 H408 0.950 . S
C416 C417 1.386 . S
C416 C418 1.391 . S
C417 C416 1.386 . S
C417 C421 1.393 . S
C418 H410 0.950 . S
C418 C416 1.391 . S
C418 C419 1.400 . S
C419 C418 1.400 . S
C419 C420 1.398 . S
C419 C425 1.491 . S
C420 H411 0.950 . S
C420 C419 1.398 . S
C420 C421 1.391 . S
C421 H409 0.950 . S
C421 C417 1.393 . S
C421 C420 1.391 . S
C422 H412 0.950 . S
C422 C423 1.386 . S
C422 C424 1.391 . S
C423 C422 1.386 . S
C423 C427 1.393 . S
C424 H413 0.950 . S
C424 C422 1.391 . S
C424 C425 1.400 . S
C425 C419 1.491 . S
C425 C424 1.400 . S
C425 C426 1.398 . S
C426 H414 0.950 . S
C426 C425 1.398 . S
C426 C427 1.391 . S
C427 H415 0.950 . S
C427 C423 1.393 . S
C427 C426 1.391 . S
H428 C436 0.950 . S
H429 C441 0.950 . S
H430 C438 0.950 . S
H431 C440 0.950 . S
H432 C442 0.950 . S
H433 C444 0.950 . S
H434 C446 0.950 . S
H435 C447 0.950 . S
C436 H428 0.950 . S
C436 C437 1.386 . S
C436 C438 1.391 . S
C437 C436 1.386 . S
C437 C441 1.393 . S
C438 H430 0.950 . S
C438 C436 1.391 . S
C438 C439 1.400 . S
C439 C438 1.400 . S
C439 C440 1.398 . S
C439 C445 1.491 . S
C440 H431 0.950 . S
C440 C439 1.398 . S
C440 C441 1.391 . S
C441 H429 0.950 . S
C441 C437 1.393 . S
C441 C440 1.391 . S
C442 H432 0.950 . S
C442 C443 1.386 . S
C442 C444 1.391 . S
C443 C442 1.386 . S
C443 C447 1.393 . S
C444 H433 0.950 . S
C444 C442 1.391 . S
C444 C445 1.400 . S
C445 C439 1.491 . S
C445 C444 1.400 . S
C445 C446 1.398 . S
C446 H434 0.950 . S
C446 C445 1.398 . S
C446 C447 1.391 . S
C447 H435 0.950 . S
C447 C443 1.393 . S
C447 C446 1.391 . S
H448 C456 0.950 . S
H449 C461 0.950 . S
H450 C458 0.950 . S
H451 C460 0.950 1_556 S
H452 C462 0.950 . S
H453 C464 0.950 . S
H454 C466 0.950 . S
H455 C467 0.950 . S
C456 H448 0.950 . S
C456 C457 1.386 . S
C456 C458 1.391 . S
C457 C456 1.386 . S
C457 C461 1.393 . S
C458 H450 0.950 . S
C458 C456 1.391 . S
C458 C459 1.400 . S
C459 C458 1.400 . S
C459 C460 1.398 . S
C459 C465 1.491 1_554 S
C460 H451 0.950 1_554 S
C460 C459 1.398 . S
C460 C461 1.391 . S
C461 H449 0.950 . S
C461 C457 1.393 . S
C461 C460 1.391 . S
C462 H452 0.950 . S
C462 C463 1.386 . S
C462 C464 1.391 . S
C463 C462 1.386 . S
C463 C467 1.393 . S
C464 H453 0.950 . S
C464 C462 1.391 . S
C464 C465 1.400 . S
C465 C459 1.491 1_556 S
C465 C464 1.400 . S
C465 C466 1.398 1_556 S
C466 H454 0.950 . S
C466 C465 1.398 1_554 S
C466 C467 1.391 1_554 S
C467 H455 0.950 . S
C467 C463 1.393 . S
C467 C466 1.391 1_556 S
H468 C476 0.950 . S
H469 C481 0.950 . S
H470 C478 0.950 . S
H471 C480 0.950 1_655 S
H472 C482 0.950 . S
H473 C484 0.950 . S
H474 C486 0.950 1_455 S
H475 C487 0.950 . S
C476 H468 0.950 . S
C476 C477 1.386 . S
C476 C478 1.391 . S
C477 C476 1.386 . S
C477 C481 1.393 . S
C478 H470 0.950 . S
C478 C476 1.391 . S
C478 C479 1.400 . S
C479 C478 1.400 . S
C479 C480 1.398 . S
C479 C485 1.491 1_455 S
C480 H471 0.950 1_455 S
C480 C479 1.398 . S
C480 C481 1.391 . S
C481 H469 0.950 . S
C481 C477 1.393 . S
C481 C480 1.391 . S
C482 H472 0.950 . S
C482 C483 1.386 . S
C482 C484 1.391 . S
C483 C482 1.386 . S
C483 C487 1.393 . S
C484 H473 0.950 . S
C484 C482 1.391 . S
C484 C485 1.400 . S
C485 C479 1.491 1_655 S
C485 C484 1.400 . S
C485 C486 1.398 . S
C486 H474 0.950 1_655 S
C486 C485 1.398 . S
C486 C487 1.391 . S
C487 H475 0.950 . S
C487 C483 1.393 . S
C487 C486 1.391 . S
H488 C496 0.950 . S
H489 C501 0.950 . S
H490 C498 0.950 1_556 S
H491 C500 0.950 1_655 S
H492 C502 0.950 . S
H493 C504 0.950 . S
H494 C506 0.950 1_455 S
H495 C507 0.950 . S
C496 H488 0.950 . S
C496 C497 1.386 . S
C496 C498 1.391 . S
C497 C496 1.386 . S
C497 C501 1.393 . S
C498 H490 0.950 1_554 S
C498 C496 1.391 . S
C498 C499 1.400 . S
C499 C498 1.400 . S
C499 C500 1.398 . S
C499 C505 1.491 1_454 S
C500 H491 0.950 1_455 S
C500 C499 1.398 . S
C500 C501 1.391 . S
C501 H489 0.950 . S
C501 C497 1.393 . S
C501 C500 1.391 . S
C502 H492 0.950 . S
C502 C503 1.386 . S
C502 C504 1.391 1_556 S
C503 C502 1.386 . S
C503 C507 1.393 . S
C504 H493 0.950 . S
C504 C502 1.391 1_554 S
C504 C505 1.400 1_554 S
C505 C499 1.491 1_656 S
C505 C504 1.400 1_556 S
C505 C506 1.398 . S
C506 H494 0.950 1_655 S
C506 C505 1.398 . S
C506 C507 1.391 . S
C507 H495 0.950 . S
C507 C503 1.393 . S
C507 C506 1.391 . S
H508 C516 0.950 . S
H509 C521 0.950 . S
H510 C518 0.950 . S
H511 C520 0.950 . S
H512 C522 0.950 . S
H513 C524 0.950 . S
H514 C526 0.950 . S
H515 C527 0.950 . S
C516 H508 0.950 . S
C516 C517 1.386 . S
C516 C518 1.391 . S
C517 C516 1.386 . S
C517 C521 1.393 . S
C518 H510 0.950 . S
C518 C516 1.391 . S
C518 C519 1.400 . S
C519 C518 1.400 . S
C519 C520 1.398 . S
C519 C525 1.491 . S
C520 H511 0.950 . S
C520 C519 1.398 . S
C520 C521 1.391 . S
C521 H509 0.950 . S
C521 C517 1.393 . S
C521 C520 1.391 . S
C522 H512 0.950 . S
C522 C523 1.386 . S
C522 C524 1.391 . S
C523 C522 1.386 . S
C523 C527 1.393 . S
C524 H513 0.950 . S
C524 C522 1.391 . S
C524 C525 1.400 . S
C525 C519 1.491 . S
C525 C524 1.400 . S
C525 C526 1.398 . S
C526 H514 0.950 . S
C526 C525 1.398 . S
C526 C527 1.391 . S
C527 H515 0.950 . S
C527 C523 1.393 . S
C527 C526 1.391 . S
H528 C536 0.950 . S
H529 C541 0.950 . S
H530 C538 0.950 . S
H531 C540 0.950 . S
H532 C542 0.950 . S
H533 C544 0.950 . S
H534 C546 0.950 . S
H535 C547 0.950 . S
C536 H528 0.950 . S
C536 C537 1.386 . S
C536 C538 1.391 . S
C537 C536 1.386 . S
C537 C541 1.393 . S
C538 H530 0.950 . S
C538 C536 1.391 . S
C538 C539 1.400 . S
C539 C538 1.400 . S
C539 C540 1.398 . S
C539 C545 1.491 . S
C540 H531 0.950 . S
C540 C539 1.398 . S
C540 C541 1.391 . S
C541 H529 0.950 . S
C541 C537 1.393 . S
C541 C540 1.391 . S
C542 H532 0.950 . S
C542 C543 1.386 . S
C542 C544 1.391 . S
C543 C542 1.386 . S
C543 C547 1.393 . S
C544 H533 0.950 . S
C544 C542 1.391 . S
C544 C545 1.400 . S
C545 C539 1.491 . S
C545 C544 1.400 . S
C545 C546 1.398 . S
C546 H534 0.950 . S
C546 C545 1.398 . S
C546 C547 1.391 . S
C547 H535 0.950 . S
C547 C543 1.393 . S
C547 C546 1.391 . S
H548 C556 0.950 . S
H549 C561 0.950 . S
H550 C558 0.950 . S
H551 C560 0.950 . S
H552 C562 0.950 . S
H553 C564 0.950 . S
H554 C566 0.950 . S
H555 C567 0.950 . S
C556 H548 0.950 . S
C556 C557 1.386 . S
C556 C558 1.391 . S
C557 C556 1.386 . S
C557 C561 1.393 . S
C558 H550 0.950 . S
C558 C556 1.391 . S
C558 C559 1.400 . S
C559 C558 1.400 . S
C559 C560 1.398 . S
C559 C565 1.491 . S
C560 H551 0.950 . S
C560 C559 1.398 . S
C560 C561 1.391 . S
C561 H549 0.950 . S
C561 C557 1.393 . S
C561 C560 1.391 . S
C562 H552 0.950 . S
C562 C563 1.386 . S
C562 C564 1.391 . S
C563 C562 1.386 . S
C563 C567 1.393 . S
C564 H553 0.950 . S
C564 C562 1.391 . S
C564 C565 1.400 . S
C565 C559 1.491 . S
C565 C564 1.400 . S
C565 C566 1.398 . S
C566 H554 0.950 . S
C566 C565 1.398 . S
C566 C567 1.391 . S
C567 H555 0.950 . S
C567 C563 1.393 . S
C567 C566 1.391 . S
H568 C576 0.950 . S
H569 C581 0.950 . S
H570 C578 0.950 . S
H571 C580 0.950 . S
H572 C582 0.950 . S
H573 C584 0.950 . S
H574 C586 0.950 . S
H575 C587 0.950 . S
C576 H568 0.950 . S
C576 C577 1.386 . S
C576 C578 1.391 . S
C577 C576 1.386 . S
C577 C581 1.393 . S
C578 H570 0.950 . S
C578 C576 1.391 . S
C578 C579 1.400 . S
C579 C578 1.400 . S
C579 C580 1.398 . S
C579 C585 1.491 . S
C580 H571 0.950 . S
C580 C579 1.398 . S
C580 C581 1.391 . S
C581 H569 0.950 . S
C581 C577 1.393 . S
C581 C580 1.391 . S
C582 H572 0.950 . S
C582 C583 1.386 . S
C582 C584 1.391 . S
C583 C582 1.386 . S
C583 C587 1.393 . S
C584 H573 0.950 . S
C584 C582 1.391 . S
C584 C585 1.400 . S
C585 C579 1.491 . S
C585 C584 1.400 . S
C585 C586 1.398 . S
C586 H574 0.950 . S
C586 C585 1.398 . S
C586 C587 1.391 . S
C587 H575 0.950 . S
C587 C583 1.393 . S
C587 C586 1.391 . S
H588 C596 0.950 . S
H589 C601 0.950 . S
H590 C598 0.944 1_554 S
H591 C600 0.950 . S
H592 C602 0.950 . S
H593 C604 0.950 . S
H594 C606 0.950 . S
H595 C607 0.950 . S
C596 H588 0.950 . S
C596 C597 1.386 1_554 S
C596 C598 1.391 1_554 S
C597 C596 1.386 1_556 S
C597 C601 1.393 . S
C598 H590 0.944 1_556 S
C598 C596 1.391 1_556 S
C598 C599 1.400 . S
C599 C598 1.400 . S
C599 C600 1.398 . S
C599 C605 1.491 . S
C600 H591 0.950 . S
C600 C599 1.398 . S
C600 C601 1.391 . S
C601 H589 0.950 . S
C601 C597 1.393 . S
C601 C600 1.391 . S
C602 H592 0.950 . S
C602 C603 1.386 . S
C602 C604 1.391 . S
C603 C602 1.386 . S
C603 C607 1.393 . S
C604 H593 0.950 . S
C604 C602 1.391 . S
C604 C605 1.400 . S
C605 C599 1.491 . S
C605 C604 1.400 . S
C605 C606 1.398 . S
C606 H594 0.950 . S
C606 C605 1.398 . S
C606 C607 1.391 . S
C607 H595 0.950 . S
C607 C603 1.393 . S
C607 C606 1.391 . S
H608 C616 0.950 . S
H609 C621 0.950 . S
H610 C618 0.950 . S
H611 C620 0.950 . S
H612 C622 0.950 . S
H613 C624 0.950 . S
H614 C626 0.950 . S
H615 C627 0.950 . S
C616 H608 0.950 . S
C616 C617 1.386 . S
C616 C618 1.391 . S
C617 C616 1.386 . S
C617 C621 1.393 . S
C618 H610 0.950 . S
C618 C616 1.391 . S
C618 C619 1.400 . S
C619 C618 1.400 . S
C619 C620 1.398 . S
C619 C625 1.491 . S
C620 H611 0.950 . S
C620 C619 1.398 . S
C620 C621 1.391 . S
C621 H609 0.950 . S
C621 C617 1.393 . S
C621 C620 1.391 . S
C622 H612 0.950 . S
C622 C623 1.386 . S
C622 C624 1.391 . S
C623 C622 1.386 . S
C623 C627 1.393 . S
C624 H613 0.950 . S
C624 C622 1.391 . S
C624 C625 1.400 . S
C625 C619 1.491 . S
C625 C624 1.400 . S
C625 C626 1.398 . S
C626 H614 0.950 . S
C626 C625 1.398 . S
C626 C627 1.391 . S
C627 H615 0.950 . S
C627 C623 1.393 . S
C627 C626 1.391 . S
H628 C636 0.950 . S
H629 C641 0.950 . S
H630 C638 0.950 . S
H631 C640 0.950 . S
H632 C642 0.950 . S
H633 C644 0.950 . S
H634 C646 0.950 . S
H635 C647 0.950 . S
C636 H628 0.950 . S
C636 C637 1.386 . S
C636 C638 1.391 . S
C637 C636 1.386 . S
C637 C641 1.393 . S
C638 H630 0.950 . S
C638 C636 1.391 . S
C638 C639 1.400 . S
C639 C638 1.400 . S
C639 C640 1.398 . S
C639 C645 1.491 . S
C640 H631 0.950 . S
C640 C639 1.398 . S
C640 C641 1.391 . S
C641 H629 0.950 . S
C641 C637 1.393 . S
C641 C640 1.391 . S
C642 H632 0.950 . S
C642 C643 1.386 . S
C642 C644 1.391 . S
C643 C642 1.386 . S
C643 C647 1.393 . S
C644 H633 0.950 . S
C644 C642 1.391 . S
C644 C645 1.400 . S
C645 C639 1.491 . S
C645 C644 1.400 . S
C645 C646 1.398 . S
C646 H634 0.950 . S
C646 C645 1.398 . S
C646 C647 1.391 . S
C647 H635 0.950 . S
C647 C643 1.393 . S
C647 C646 1.391 . S
H648 C656 0.950 . S
H649 C661 0.950 . S
H650 C658 0.950 . S
H651 C660 0.950 . S
H652 C662 0.950 . S
H653 C664 0.950 . S
H654 C666 0.950 . S
H655 C667 0.950 1_554 S
C656 H648 0.950 . S
C656 C657 1.386 . S
C656 C658 1.391 . S
C657 C656 1.386 . S
C657 C661 1.393 . S
C658 H650 0.950 . S
C658 C656 1.391 . S
C658 C659 1.400 . S
C659 C658 1.400 . S
C659 C660 1.398 . S
C659 C665 1.491 . S
C660 H651 0.950 . S
C660 C659 1.398 . S
C660 C661 1.391 . S
C661 H649 0.950 . S
C661 C657 1.393 . S
C661 C660 1.391 . S
C662 H652 0.950 . S
C662 C663 1.386 . S
C662 C664 1.391 . S
C663 C662 1.386 . S
C663 C667 1.393 . S
C664 H653 0.950 . S
C664 C662 1.391 . S
C664 C665 1.400 . S
C665 C659 1.491 . S
C665 C664 1.400 . S
C665 C666 1.398 . S
C666 H654 0.950 . S
C666 C665 1.398 . S
C666 C667 1.391 . S
C667 H655 0.950 1_556 S
C667 C663 1.393 . S
C667 C666 1.391 . S
H668 C676 0.950 . S
H669 C681 0.950 . S
H670 C678 0.950 . S
H671 C680 0.950 . S
H672 C682 0.950 . S
H673 C684 0.950 . S
H674 C686 0.950 . S
H675 C687 0.950 . S
C676 H668 0.950 . S
C676 C677 1.386 . S
C676 C678 1.391 . S
C677 C676 1.386 . S
C677 C681 1.393 . S
C678 H670 0.950 . S
C678 C676 1.391 . S
C678 C679 1.400 . S
C679 C678 1.400 . S
C679 C680 1.398 . S
C679 C685 1.491 . S
C680 H671 0.950 . S
C680 C679 1.398 . S
C680 C681 1.391 . S
C681 H669 0.950 . S
C681 C677 1.393 . S
C681 C680 1.391 . S
C682 H672 0.950 . S
C682 C683 1.386 . S
C682 C684 1.391 . S
C683 C682 1.386 . S
C683 C687 1.393 . S
C684 H673 0.950 . S
C684 C682 1.391 . S
C684 C685 1.400 . S
C685 C679 1.491 . S
C685 C684 1.400 . S
C685 C686 1.398 . S
C686 H674 0.950 . S
C686 C685 1.398 . S
C686 C687 1.391 . S
C687 H675 0.950 . S
C687 C683 1.393 . S
C687 C686 1.391 . S
H688 C696 0.950 . S
H689 C701 0.950 . S
H690 C698 0.950 . S
H691 C700 0.945 1_554 S
H692 C702 0.950 . S
H693 C704 0.950 . S
H694 C706 0.950 . S
H695 C707 0.950 . S
C696 H688 0.950 . S
C696 C697 1.386 . S
C696 C698 1.391 . S
C697 C696 1.386 . S
C697 C701 1.393 1_556 S
C698 H690 0.950 . S
C698 C696 1.391 . S
C698 C699 1.400 . S
C699 C698 1.400 . S
C699 C700 1.398 . S
C699 C705 1.491 . S
C700 H691 0.945 1_556 S
C700 C699 1.398 . S
C700 C701 1.391 1_556 S
C701 H689 0.950 . S
C701 C697 1.393 1_554 S
C701 C700 1.391 1_554 S
C702 H692 0.950 . S
C702 C703 1.386 . S
C702 C704 1.391 . S
C703 C702 1.386 . S
C703 C707 1.393 . S
C704 H693 0.950 . S
C704 C702 1.391 . S
C704 C705 1.400 . S
C705 C699 1.491 . S
C705 C704 1.400 . S
C705 C706 1.398 . S
C706 H694 0.950 . S
C706 C705 1.398 . S
C706 C707 1.391 . S
C707 H695 0.950 . S
C707 C703 1.393 . S
C707 C706 1.391 . S
H708 C716 0.950 . S
H709 C721 0.950 . S
H710 C718 0.950 . S
H711 C720 0.950 . S
H712 C722 0.950 . S
H713 C724 0.950 . S
H714 C726 0.950 . S
H715 C727 0.950 . S
C716 H708 0.950 . S
C716 C717 1.386 . S
C716 C718 1.391 . S
C717 C716 1.386 . S
C717 C721 1.393 . S
C718 H710 0.950 . S
C718 C716 1.391 . S
C718 C719 1.400 . S
C719 C718 1.400 . S
C719 C720 1.398 . S
C719 C725 1.491 . S
C720 H711 0.950 . S
C720 C719 1.398 . S
C720 C721 1.391 . S
C721 H709 0.950 . S
C721 C717 1.393 . S
C721 C720 1.391 . S
C722 H712 0.950 . S
C722 C723 1.386 . S
C722 C724 1.391 . S
C723 C722 1.386 . S
C723 C727 1.393 . S
C724 H713 0.950 . S
C724 C722 1.391 . S
C724 C725 1.400 . S
C725 C719 1.491 . S
C725 C724 1.400 . S
C725 C726 1.398 . S
C726 H714 0.950 . S
C726 C725 1.398 . S
C726 C727 1.391 . S
C727 H715 0.950 . S
C727 C723 1.393 . S
C727 C726 1.391 . S
H728 C736 0.950 . S
H729 C741 0.950 . S
H730 C738 0.950 . S
H731 C740 0.950 . S
H732 C742 0.950 . S
H733 C744 0.950 . S
H734 C746 0.950 . S
H735 C747 0.950 . S
C736 H728 0.950 . S
C736 C737 1.386 . S
C736 C738 1.391 . S
C737 C736 1.386 . S
C737 C741 1.393 . S
C738 H730 0.950 . S
C738 C736 1.391 . S
C738 C739 1.400 . S
C739 C738 1.400 . S
C739 C740 1.398 . S
C739 C745 1.491 . S
C740 H731 0.950 . S
C740 C739 1.398 . S
C740 C741 1.391 . S
C741 H729 0.950 . S
C741 C737 1.393 . S
C741 C740 1.391 . S
C742 H732 0.950 . S
C742 C743 1.386 . S
C742 C744 1.391 . S
C743 C742 1.386 . S
C743 C747 1.393 . S
C744 H733 0.950 . S
C744 C742 1.391 . S
C744 C745 1.400 . S
C745 C739 1.491 . S
C745 C744 1.400 . S
C745 C746 1.398 . S
C746 H734 0.950 . S
C746 C745 1.398 . S
C746 C747 1.391 . S
C747 H735 0.950 . S
C747 C743 1.393 . S
C747 C746 1.391 . S
H748 C756 0.950 . S
H749 C761 0.950 . S
H750 C758 0.950 . S
H751 C760 0.950 . S
H752 C762 0.950 . S
H753 C764 0.950 . S
H754 C766 0.950 . S
H755 C767 0.950 . S
C756 H748 0.950 . S
C756 C757 1.386 . S
C756 C758 1.391 . S
C757 C756 1.386 . S
C757 C761 1.393 . S
C758 H750 0.950 . S
C758 C756 1.391 . S
C758 C759 1.400 . S
C759 C758 1.400 . S
C759 C760 1.398 . S
C759 C765 1.491 . S
C760 H751 0.950 . S
C760 C759 1.398 . S
C760 C761 1.391 . S
C761 H749 0.950 . S
C761 C757 1.393 . S
C761 C760 1.391 . S
C762 H752 0.950 . S
C762 C763 1.386 . S
C762 C764 1.391 . S
C763 C762 1.386 . S
C763 C767 1.393 . S
C764 H753 0.950 . S
C764 C762 1.391 . S
C764 C765 1.400 . S
C765 C759 1.491 . S
C765 C764 1.400 . S
C765 C766 1.398 . S
C766 H754 0.950 . S
C766 C765 1.398 . S
C766 C767 1.391 . S
C767 H755 0.950 . S
C767 C763 1.393 . S
C767 C766 1.391 . S
H768 C776 0.950 . S
H769 C781 0.950 . S
H770 C778 0.950 . S
H771 C780 0.950 . S
H772 C782 0.950 . S
H773 C784 0.950 . S
H774 C786 0.950 . S
H775 C787 0.950 . S
C776 H768 0.950 . S
C776 C777 1.386 . S
C776 C778 1.391 . S
C777 C776 1.386 . S
C777 C781 1.393 . S
C778 H770 0.950 . S
C778 C776 1.391 . S
C778 C779 1.400 . S
C779 C778 1.400 . S
C779 C780 1.398 . S
C779 C785 1.491 . S
C780 H771 0.950 . S
C780 C779 1.398 . S
C780 C781 1.391 . S
C781 H769 0.950 . S
C781 C777 1.393 . S
C781 C780 1.391 . S
C782 H772 0.950 . S
C782 C783 1.386 . S
C782 C784 1.391 . S
C783 C782 1.386 . S
C783 C787 1.393 . S
C784 H773 0.950 . S
C784 C782 1.391 . S
C784 C785 1.400 . S
C785 C779 1.491 . S
C785 C784 1.400 . S
C785 C786 1.398 . S
C786 H774 0.950 . S
C786 C785 1.398 . S
C786 C787 1.391 . S
C787 H775 0.950 . S
C787 C783 1.393 . S
C787 C786 1.391 . S
H788 C796 0.950 . S
H789 C801 0.950 . S
H790 C798 0.950 . S
H791 C800 0.950 . S
H792 C802 0.950 . S
H793 C804 0.950 . S
H794 C806 0.950 . S
H795 C807 0.950 . S
C796 H788 0.950 . S
C796 C797 1.386 . S
C796 C798 1.391 . S
C797 C796 1.386 . S
C797 C801 1.393 . S
C798 H790 0.950 . S
C798 C796 1.391 . S
C798 C799 1.400 . S
C799 C798 1.400 . S
C799 C800 1.398 . S
C799 C805 1.491 . S
C800 H791 0.950 . S
C800 C799 1.398 . S
C800 C801 1.391 . S
C801 H789 0.950 . S
C801 C797 1.393 . S
C801 C800 1.391 . S
C802 H792 0.950 . S
C802 C803 1.386 . S
C802 C804 1.391 . S
C803 C802 1.386 . S
C803 C807 1.393 . S
C804 H793 0.950 . S
C804 C802 1.391 . S
C804 C805 1.400 . S
C805 C799 1.491 . S
C805 C804 1.400 . S
C805 C806 1.398 . S
C806 H794 0.950 . S
C806 C805 1.398 . S
C806 C807 1.391 . S
C807 H795 0.950 . S
C807 C803 1.393 . S
C807 C806 1.391 . S
H808 C816 0.950 . S
H809 C821 0.950 . S
H810 C818 0.950 . S
H811 C820 0.950 . S
H812 C822 0.950 . S
H813 C824 0.950 . S
H814 C826 0.950 . S
H815 C827 0.950 . S
C816 H808 0.950 . S
C816 C817 1.386 . S
C816 C818 1.391 . S
C817 C816 1.386 . S
C817 C821 1.393 . S
C818 H810 0.950 . S
C818 C816 1.391 . S
C818 C819 1.400 . S
C819 C818 1.400 . S
C819 C820 1.398 . S
C819 C825 1.491 . S
C820 H811 0.950 . S
C820 C819 1.398 . S
C820 C821 1.391 . S
C821 H809 0.950 . S
C821 C817 1.393 . S
C821 C820 1.391 . S
C822 H812 0.950 . S
C822 C823 1.386 . S
C822 C824 1.391 . S
C823 C822 1.386 . S
C823 C827 1.393 . S
C824 H813 0.950 . S
C824 C822 1.391 . S
C824 C825 1.400 . S
C825 C819 1.491 . S
C825 C824 1.400 . S
C825 C826 1.398 . S
C826 H814 0.950 . S
C826 C825 1.398 . S
C826 C827 1.391 . S
C827 H815 0.950 . S
C827 C823 1.393 . S
C827 C826 1.391 . S
H828 C836 0.950 . S
H829 C841 0.950 . S
H830 C838 0.950 . S
H831 C840 0.952 . S
H832 C842 0.950 . S
H833 C844 0.950 . S
H834 C846 0.950 . S
H835 C847 0.950 . S
C836 H828 0.950 . S
C836 C837 1.386 . S
C836 C838 1.391 . S
C837 C836 1.386 . S
C837 C841 1.393 1_556 S
C838 H830 0.950 . S
C838 C836 1.391 . S
C838 C839 1.400 . S
C839 C838 1.400 . S
C839 C840 1.398 . S
C839 C845 1.491 . S
C840 H831 0.952 . S
C840 C839 1.398 . S
C840 C841 1.391 1_556 S
C841 H829 0.950 . S
C841 C837 1.393 1_554 S
C841 C840 1.391 1_554 S
C842 H832 0.950 . S
C842 C843 1.386 . S
C842 C844 1.391 . S
C843 C842 1.386 . S
C843 C847 1.393 . S
C844 H833 0.950 . S
C844 C842 1.391 . S
C844 C845 1.400 . S
C845 C839 1.491 . S
C845 C844 1.400 . S
C845 C846 1.398 . S
C846 H834 0.950 . S
C846 C845 1.398 . S
C846 C847 1.391 . S
C847 H835 0.950 . S
C847 C843 1.393 . S
C847 C846 1.391 . S
C217 C10 1.264 . S
C223 C166 1.264 . S
C237 C18 0.997 . S
C243 C70 0.997 . S
C257 C36 1.265 . S
C263 C192 1.265 . S
C277 C96 1.036 . S
C283 C44 1.036 . S
C297 C187 1.028 . S
C303 C31 1.028 . S
C317 C101 1.265 . S
C323 C49 1.265 . S
C337 C161 1.019 . S
C343 C5 1.019 . S
C357 C75 1.265 . S
C363 C23 1.265 . S
C377 C62 1.266 . S
C383 C114 1.266 . S
C397 C88 1.264 . S
C403 C140 1.264 . S
C417 C135 1.040 . S
C423 C83 1.040 . S
C437 C57 1.013 . S
C443 C109 1.013 . S
C457 C174 0.999 . S
C463 C122 0.999 . S
C477 C148 1.000 . S
C483 C200 1.000 . S
C497 C153 1.265 . S
C503 C205 1.265 . S
C517 C127 1.266 . S
C523 C179 1.266 . S
C537 C143 1.416 . S
C543 C0 1.416 . S
C557 C112 1.451 . S
C563 C21 1.446 . S
C577 C26 1.443 . S
C583 C117 1.443 . S
C597 C138 1.453 . S
C603 C47 1.459 . S
C617 C151 1.459 . S
C623 C34 1.465 . S
C637 C39 1.422 . S
C643 C104 1.421 . S
C657 C125 1.449 . S
C663 C8 1.445 . S
C677 C130 1.442 . S
C683 C13 1.441 . S
C697 C52 1.430 . S
C703 C195 1.431 . S
C717 C164 1.443 . S
C723 C73 1.446 . S
C737 C78 1.443 . S
C743 C169 1.442 . S
C757 C99 1.443 . S
C763 C190 1.442 . S
C777 C86 1.448 . S
C783 C203 1.444 . S
C797 C156 1.434 . S
C803 C91 1.435 . S
C817 C177 1.469 . S
C823 C60 1.471 . S
C837 C182 1.429 . S
C843 C65 1.430 . S
