# Generated by pormake.
# Topology smu, (6)-cn, num edge types: 1
# Building blocks:
#     Node 0, Type 0, BuildingBlock: MIDCAF_clean_sbu_0, # of connection points: 6
#     Node 1, Type 0, BuildingBlock: MIDCAF_clean_sbu_0, # of connection points: 6
#     Node 2, Type 0, BuildingBlock: MIDCAF_clean_sbu_0, # of connection points: 6
#     Node 3, Type 0, BuildingBlock: MIDCAF_clean_sbu_0, # of connection points: 6
#     Node 4, Type 0, BuildingBlock: MIDCAF_clean_sbu_0, # of connection points: 6
#     Node 5, Type 0, BuildingBlock: MIDCAF_clean_sbu_0, # of connection points: 6
#     Edge 6, Type (0, 0), BuildingBlock: CIFDUS_clean_linker_0, # of connection points: 2
#     Edge 7, Type (0, 0), BuildingBlock: CIFDUS_clean_linker_0, # of connection points: 2
#     Edge 8, Type (0, 0), BuildingBlock: CIFDUS_clean_linker_0, # of connection points: 2
#     Edge 9, Type (0, 0), BuildingBlock: CIFDUS_clean_linker_0, # of connection points: 2
#     Edge 10, Type (0, 0), BuildingBlock: CIFDUS_clean_linker_0, # of connection points: 2
#     Edge 11, Type (0, 0), BuildingBlock: CIFDUS_clean_linker_0, # of connection points: 2
#     Edge 12, Type (0, 0), BuildingBlock: CIFDUS_clean_linker_0, # of connection points: 2
#     Edge 13, Type (0, 0), BuildingBlock: CIFDUS_clean_linker_0, # of connection points: 2
#     Edge 14, Type (0, 0), BuildingBlock: CIFDUS_clean_linker_0, # of connection points: 2
#     Edge 15, Type (0, 0), BuildingBlock: CIFDUS_clean_linker_0, # of connection points: 2
#     Edge 16, Type (0, 0), BuildingBlock: CIFDUS_clean_linker_0, # of connection points: 2
#     Edge 17, Type (0, 0), BuildingBlock: CIFDUS_clean_linker_0, # of connection points: 2
#     Edge 18, Type (0, 0), BuildingBlock: CIFDUS_clean_linker_0, # of connection points: 2
#     Edge 19, Type (0, 0), BuildingBlock: CIFDUS_clean_linker_0, # of connection points: 2
#     Edge 20, Type (0, 0), BuildingBlock: CIFDUS_clean_linker_0, # of connection points: 2
#     Edge 21, Type (0, 0), BuildingBlock: CIFDUS_clean_linker_0, # of connection points: 2
#     Edge 22, Type (0, 0), BuildingBlock: CIFDUS_clean_linker_0, # of connection points: 2
#     Edge 23, Type (0, 0), BuildingBlock: CIFDUS_clean_linker_0, # of connection points: 2
# Relax obj value: 0.355
# Max RMSD: 0.260
# Mean RMSD: 0.260
data_MOF--net-smu--node1-MIDCAF_clean_sbu_0--edge1-CIFDUS_clean_linker_0
_symmetry_space_group_name_H-M    P1
_symmetry_Int_Tables_number       1
_symmetry_cell_setting            triclinic
loop_
_symmetry_equiv_pos_as_xyz
'x, y, z'
_cell_length_a     24.406078
_cell_length_b     24.47782
_cell_length_c     26.715033
_cell_angle_alpha  89.57918
_cell_angle_beta   89.976358
_cell_angle_gamma 120.27193
loop_
_atom_site_label
_atom_site_type_symbol
_atom_site_fract_x
_atom_site_fract_y
_atom_site_fract_z
_atom_type_partial_charge
Zn0 Zn 0.28693 0.05739 0.17719 0.0
Zn1 Zn 0.42693 0.13451 0.29819 0.0
Zn2 Zn 0.34734 0.06515 0.24242 0.0
C3 C 0.46368 0.05226 0.25107 0.0
C4 C 0.32322 0.0507 0.35895 0.0
O5 O 0.263 0.05856 0.27902 0.0
O6 O 0.25839 0.11233 0.21414 0.0
C7 C 0.37553 0.0415 0.13818 0.0
O8 O 0.40713 0.02451 0.23409 0.0
O9 O 0.48465 0.10295 0.27563 0.0
O10 O 0.38006 0.09533 0.36109 0.0
O11 O 0.29601 0.03145 0.316 0.0
O12 O 0.36232 0.08477 0.13093 0.0
O13 O 0.36396 0.01485 0.18164 0.0
O14 O 0.25296 0.99211 0.26871 0.0
O15 O 0.23222 0.9618 0.1906 0.0
C16 C 0.21962 0.94882 0.23663 0.0
O17 O 0.3792 0.15763 0.21108 0.0
O18 O 0.43641 0.21664 0.27324 0.0
C19 C 0.24507 0.09541 0.25961 0.0
C20 C 0.41137 0.21163 0.2309 0.0
Zn21 Zn 0.74395 0.75346 0.20492 0.0
Zn22 Zn 0.6865 0.56687 0.28343 0.0
Zn23 Zn 0.71698 0.66259 0.24932 0.0
C24 C 0.58277 0.54556 0.23467 0.0
C25 C 0.71215 0.64496 0.36262 0.0
O26 O 0.81888 0.70691 0.23762 0.0
O27 O 0.82879 0.80126 0.24006 0.0
C28 C 0.68396 0.66966 0.13719 0.0
O29 O 0.62864 0.59247 0.21146 0.0
O30 O 0.59345 0.52834 0.2763 0.0
O31 O 0.72018 0.59958 0.35087 0.0
O32 O 0.70041 0.67435 0.328 0.0
O33 O 0.73664 0.72063 0.13565 0.0
O34 O 0.66106 0.64253 0.17968 0.0
O35 O 0.70694 0.72914 0.2974 0.0
O36 O 0.66566 0.75065 0.23374 0.0
C37 C 0.67981 0.7584 0.27951 0.0
O38 O 0.79626 0.64342 0.23976 0.0
O39 O 0.73466 0.54016 0.23829 0.0
C40 C 0.85341 0.76681 0.24465 0.0
C41 C 0.7885 0.58838 0.2307 0.0
Zn42 Zn 0.03905 0.19136 0.19335 0.0
Zn43 Zn 0.87289 0.27827 0.30979 0.0
Zn44 Zn 0.94243 0.25842 0.26419 0.0
C45 C 0.9316 0.37978 0.24809 0.0
C46 C 0.94062 0.26216 0.38123 0.0
O47 O 0.89899 0.15342 0.25149 0.0
O48 O 0.95992 0.11484 0.22109 0.0
C49 C 0.00784 0.30601 0.16503 0.0
O50 O 0.93951 0.3378 0.22562 0.0
O51 O 0.91351 0.37058 0.29324 0.0
O52 O 0.88419 0.25005 0.37668 0.0
O53 O 0.97678 0.27787 0.34232 0.0
O54 O 0.01963 0.26242 0.1759 0.0
O55 O 0.97628 0.31819 0.19686 0.0
O56 O 0.02225 0.2768 0.31123 0.0
O57 O 0.04047 0.25706 0.23714 0.0
C58 C 0.05692 0.26598 0.28233 0.0
O59 O 0.85186 0.17252 0.25281 0.0
O60 O 0.79652 0.21827 0.27124 0.0
C61 C 0.90878 0.10715 0.24103 0.0
C62 C 0.79917 0.17223 0.25303 0.0
Zn63 Zn 0.98422 0.27852 0.80886 0.0
Zn64 Zn 0.1459 0.43123 0.72556 0.0
Zn65 Zn 0.06141 0.35255 0.7629 0.0
C66 C 0.07247 0.47887 0.76012 0.0
C67 C 0.08739 0.35193 0.64836 0.0
O68 O 0.05586 0.27403 0.72521 0.0
O69 O 0.03685 0.23056 0.80006 0.0
C70 C 0.05597 0.35345 0.87685 0.0
O71 O 0.03115 0.42042 0.75676 0.0
O72 O 0.13062 0.49623 0.75644 0.0
O73 O 0.12426 0.41032 0.65499 0.0
O74 O 0.05987 0.31534 0.68655 0.0
O75 O -0.00139 0.33444 0.86723 0.0
O76 O 0.09163 0.35303 0.84153 0.0
O77 O 0.98794 0.2678 0.71696 0.0
O78 O 0.90965 0.25562 0.76421 0.0
C79 C 0.9277 0.23977 0.72551 0.0
O80 O 0.14539 0.37087 0.81045 0.0
O81 O 0.21439 0.41866 0.74974 0.0
C82 C 0.06091 0.23673 0.75667 0.0
C83 C 0.20196 0.39377 0.7927 0.0
Zn84 Zn 0.31499 0.85142 0.64545 0.0
Zn85 Zn 0.22724 0.01283 0.81263 0.0
Zn86 Zn 0.25571 0.95942 0.75464 0.0
C87 C 0.27206 0.08974 0.73141 0.0
C88 C 0.30809 0.98763 0.86465 0.0
O89 O 0.18474 0.8598 0.7493 0.0
O90 O 0.25231 0.85925 0.69652 0.0
C91 C 0.28623 0.96613 0.64758 0.0
O92 O 0.25704 0.03593 0.71258 0.0
O93 O 0.28249 0.09722 0.77791 0.0
O94 O 0.2587 0.9901 0.87416 0.0
O95 O 0.32281 0.98489 0.81878 0.0
O96 O 0.29171 0.92147 0.66756 0.0
O97 O 0.27228 -0.00173 0.67718 0.0
O98 O 0.34277 0.96248 0.77797 0.0
O99 O 0.32295 0.90726 0.70974 0.0
C100 C 0.36006 0.93495 0.74654 0.0
O101 O 0.15664 0.89015 0.76953 0.0
O102 O 0.13514 0.96359 0.79157 0.0
C103 C 0.19926 0.82829 0.71971 0.0
C104 C 0.11614 0.90819 0.77615 0.0
Zn105 Zn 0.56686 0.6997 0.70117 0.0
Zn106 Zn 0.7378 0.76679 0.80181 0.0
Zn107 Zn 0.65578 0.7333 0.74827 0.0
C108 C 0.761 0.70244 0.7359 0.0
C109 C 0.64481 0.70034 0.86138 0.0
O110 O 0.63441 0.8095 0.75568 0.0
O111 O 0.53277 0.7426 0.74455 0.0
C112 C 0.66365 0.73468 0.63549 0.0
O113 O 0.73121 0.72485 0.71152 0.0
O114 O 0.75186 0.69488 0.78255 0.0
O115 O 0.69001 0.75661 0.86521 0.0
O116 O 0.62733 0.67624 0.81765 0.0
O117 O 0.61665 0.74278 0.63908 0.0
O118 O 0.68261 0.71792 0.6744 0.0
O119 O 0.57692 0.64507 0.78228 0.0
O120 O 0.52958 0.60603 0.71079 0.0
C121 C 0.5354 0.59798 0.7568 0.0
O122 O 0.69748 0.83835 0.75112 0.0
O123 O 0.7913 0.85136 0.76757 0.0
C124 C 0.57626 0.79521 0.76026 0.0
C125 C 0.75844 0.87399 0.75081 0.0
H126 H 0.28391 0.90479 0.94043 0.0
H127 H 0.42323 0.08879 0.88461 0.0
H128 H 0.47029 0.11848 0.968 0.0
H129 H 0.45248 0.1006 0.05903 0.0
H130 H 0.31241 0.91681 0.11492 0.0
H131 H 0.28657 0.87731 0.02938 0.0
C132 C 0.32648 0.95021 0.94619 0.0
C133 C 0.35009 0.99478 0.90679 0.0
C134 C 0.35252 0.96712 0.99445 0.0
C135 C 0.40476 0.0537 0.91442 0.0
C136 C 0.43114 0.07087 0.96225 0.0
C137 C 0.41869 0.05104 0.05244 0.0
C138 C 0.38372 0.01187 0.09303 0.0
C139 C 0.40286 0.02929 0.00303 0.0
C140 C 0.3401 0.94778 0.0843 0.0
C141 C 0.32451 0.92549 0.03525 0.0
H142 H 0.69371 0.65192 0.5971 0.0
H143 H 0.68737 0.82057 0.56177 0.0
H144 H 0.70691 0.81101 0.47321 0.0
H145 H 0.71302 0.74717 0.40474 0.0
H146 H 0.71244 0.57463 0.4413 0.0
H147 H 0.70724 0.59255 0.52985 0.0
C148 C 0.69838 0.68738 0.57009 0.0
C149 C 0.68944 0.73683 0.58546 0.0
C150 C 0.70668 0.67996 0.51917 0.0
C151 C 0.69425 0.78206 0.55032 0.0
C152 C 0.70487 0.77633 0.49977 0.0
C153 C 0.71234 0.71392 0.43213 0.0
C154 C 0.71288 0.65965 0.41624 0.0
C155 C 0.70891 0.72417 0.48348 0.0
C156 C 0.7122 0.61701 0.45231 0.0
C157 C 0.70925 0.62709 0.50316 0.0
H158 H 0.08715 0.29818 0.0984 0.0
H159 H 0.97115 0.38317 0.11972 0.0
H160 H 0.98697 0.41687 0.03194 0.0
H161 H 0.019 0.40627 0.94704 0.0
H162 H 0.13224 0.31863 0.92514 0.0
H163 H 0.13358 0.3029 0.01575 0.0
C164 C 0.06613 0.32501 0.08411 0.0
C165 C 0.02672 0.33697 0.11526 0.0
C166 C 0.0749 0.34348 0.03357 0.0
C167 C 0.00088 0.37271 0.09642 0.0
C168 C 0.00987 0.39184 0.0462 0.0
C169 C 0.04567 0.38557 0.96237 0.0
C170 C 0.07504 0.3631 0.92977 0.0
C171 C 0.04469 0.37529 0.01411 0.0
C172 C 0.10972 0.33664 0.94967 0.0
C173 C 0.1097 0.32692 0.00137 0.0
H174 H 0.35829 0.98815 0.4195 0.0
H175 H 0.22592 0.0547 0.40743 0.0
H176 H 0.20296 0.0362 0.49782 0.0
H177 H 0.22902 0.00959 0.58206 0.0
H178 H 0.36529 0.94673 0.59055 0.0
H179 H 0.37912 0.95619 0.50026 0.0
C180 C 0.32274 0.9965 0.43647 0.0
C181 C 0.2927 0.02125 0.407 0.0
C182 C 0.31207 0.98821 0.48819 0.0
C183 C 0.24813 0.03377 0.42931 0.0
C184 C 0.23607 0.02436 0.4811 0.0
C185 C 0.26199 -0.00146 0.56395 0.0
C186 C 0.29646 0.97792 0.59304 0.0
C187 C 0.26934 0.00342 0.51128 0.0
C188 C 0.33818 0.96261 0.5691 0.0
C189 C 0.34601 0.96777 0.51738 0.0
H190 H 0.57554 0.70084 0.93981 0.0
H191 H 0.67963 0.61526 0.88341 0.0
H192 H 0.69166 0.58499 0.9683 0.0
H193 H 0.69513 0.60773 0.05844 0.0
H194 H 0.58994 0.69216 0.11485 0.0
H195 H 0.55376 0.69652 0.0303 0.0
C196 C 0.59786 0.67268 0.94617 0.0
C197 C 0.62693 0.66032 0.90614 0.0
C198 C 0.60524 0.65629 0.99508 0.0
C199 C 0.65646 0.62452 0.9141 0.0
C200 C 0.66408 0.60802 0.96263 0.0
C201 C 0.66196 0.6243 0.05221 0.0
C202 C 0.64531 0.65003 0.092 0.0
C203 C 0.64205 0.62721 0.00352 0.0
C204 C 0.60285 0.67196 0.08424 0.0
C205 C 0.58273 0.675 0.03597 0.0
H206 H 0.06023 0.33244 0.41639 0.0
H207 H 0.87207 0.18486 0.45799 0.0
H208 H 0.90472 0.191 0.54512 0.0
H209 H 0.98176 0.25029 0.61106 0.0
H210 H 0.16719 0.40369 0.56955 0.0
H211 H 0.14112 0.38302 0.48123 0.0
C212 C 0.02693 0.30085 0.44445 0.0
C213 C 0.96381 0.25917 0.43131 0.0
C214 C 0.04536 0.30621 0.4947 0.0
C215 C 0.92081 0.21827 0.46774 0.0
C216 C 0.93938 0.22168 0.51749 0.0
C217 C 0.01687 0.27789 0.58262 0.0
C218 C 0.07575 0.32883 0.59662 0.0
C219 C 0.00081 0.26727 0.53176 0.0
C220 C 0.12103 0.36457 0.5595 0.0
C221 C 0.10621 0.35297 0.50897 0.0
H222 H 0.53713 0.07113 0.17037 0.0
H223 H 0.49098 0.98616 0.31724 0.0
H224 H 0.59725 0.00105 0.32544 0.0
H225 H 0.70929 0.07027 0.30228 0.0
H226 H 0.75723 0.16353 0.15854 0.0
H227 H 0.64493 0.11246 0.13665 0.0
C228 C 0.54937 0.05239 0.20271 0.0
C229 C 0.50706 0.02814 0.2433 0.0
C230 C 0.6118 0.06457 0.2082 0.0
C231 C 0.52309 0.00469 0.28548 0.0
C232 C 0.58424 0.01427 0.29051 0.0
C233 C 0.69495 0.07634 0.26516 0.0
C234 C 0.7407 0.12051 0.23206 0.0
C235 C 0.63025 0.04896 0.2539 0.0
C236 C 0.72236 0.12917 0.1843 0.0
C237 C 0.65812 0.10064 0.17211 0.0
H238 H 0.56876 0.47995 0.15088 0.0
H239 H 0.46413 0.50916 0.26687 0.0
H240 H 0.38472 0.39695 0.26732 0.0
H241 H 0.37208 0.29163 0.25782 0.0
H242 H 0.48005 0.26051 0.14596 0.0
H243 H 0.53199 0.3721 0.12075 0.0
C244 C 0.52626 0.4622 0.17373 0.0
C245 C 0.52309 0.50148 0.21022 0.0
C246 C 0.48353 0.39678 0.17632 0.0
C247 C 0.46773 0.47898 0.23916 0.0
C248 C 0.42314 0.41453 0.24025 0.0
C249 C 0.40442 0.30868 0.22621 0.0
C250 C 0.42335 0.26905 0.2042 0.0
C251 C 0.43447 0.37271 0.21269 0.0
C252 C 0.46547 0.29099 0.16345 0.0
C253 C 0.49528 0.35474 0.14927 0.0
H254 H 0.97809 0.50094 0.27704 0.0
H255 H 0.87258 0.36971 0.15989 0.0
H256 H 0.82702 0.43461 0.13516 0.0
H257 H 0.79588 0.51114 0.16275 0.0
H258 H 0.90025 0.64177 0.2805 0.0
H259 H 0.96875 0.59599 0.28849 0.0
C260 C 0.94748 0.48833 0.24458 0.0
C261 C 0.92812 0.43043 0.2206 0.0
C262 C 0.92014 0.52506 0.23154 0.0
C263 C 0.88855 0.41433 0.17862 0.0
C264 C 0.86163 0.45094 0.16502 0.0
C265 C 0.83542 0.53119 0.18861 0.0
C266 C 0.84259 0.57881 0.2216 0.0
C267 C 0.87379 0.50385 0.19349 0.0
C268 C 0.89401 0.60507 0.25475 0.0
C269 C 0.93267 0.57835 0.25972 0.0
H270 H 0.0816 0.54137 0.67722 0.0
H271 H 0.03575 0.5308 0.83378 0.0
H272 H 0.06127 0.6415 0.83168 0.0
H273 H 0.12138 0.74585 0.7901 0.0
H274 H 0.18633 0.75771 0.63809 0.0
H275 H 0.12961 0.64235 0.63314 0.0
C276 C 0.07436 0.56275 0.71018 0.0
C277 C 0.05647 0.52864 0.75539 0.0
C278 C 0.09524 0.62739 0.70969 0.0
C279 C 0.0484 0.55629 0.79842 0.0
C280 C 0.06436 0.61984 0.79736 0.0
C281 C 0.12176 0.72292 0.75562 0.0
C282 C 0.15833 0.75962 0.71465 0.0
C283 C 0.09181 0.65674 0.75403 0.0
C284 C 0.15913 0.72999 0.67021 0.0
C285 C 0.12655 0.66422 0.66735 0.0
H286 H 0.39927 0.89268 0.82472 0.0
H287 H 0.45208 0.97491 0.67702 0.0
H288 H 0.54028 0.95444 0.67506 0.0
H289 H 0.58599 0.89243 0.70727 0.0
H290 H 0.52139 0.79439 0.84836 0.0
H291 H 0.45577 0.84256 0.86224 0.0
C292 C 0.43149 0.90763 0.79295 0.0
C293 C 0.41977 0.93488 0.751 0.0
C294 C 0.47968 0.89225 0.79095 0.0
C295 C 0.46067 0.95355 0.70952 0.0
C296 C 0.51083 0.94173 0.70837 0.0
C297 C 0.55964 0.88415 0.74196 0.0
C298 C 0.55855 0.84091 0.77702 0.0
C299 C 0.51871 0.90822 0.74772 0.0
C300 C 0.52324 0.82855 0.82135 0.0
C301 C 0.48514 0.85534 0.82888 0.0
H302 H 0.28183 0.35259 0.77108 0.0
H303 H 0.24855 0.46409 0.87698 0.0
H304 H 0.36291 0.53578 0.88525 0.0
H305 H 0.46598 0.58434 0.84028 0.0
H306 H 0.49353 0.47906 0.72426 0.0
H307 H 0.38933 0.38745 0.742 0.0
C308 C 0.29994 0.39036 0.79828 0.0
C309 C 0.25711 0.40406 0.82241 0.0
C310 C 0.36527 0.43427 0.79916 0.0
C311 C 0.28065 0.45275 0.85779 0.0
C312 C 0.34619 0.49477 0.86148 0.0
C313 C 0.45019 0.54024 0.82066 0.0
C314 C 0.4868 0.53842 0.78066 0.0
C315 C 0.38832 0.48897 0.82902 0.0
C316 C 0.46583 0.48145 0.75499 0.0
C317 C 0.40603 0.42923 0.76491 0.0
H318 H 0.27799 0.21171 0.29054 0.0
H319 H 0.12066 0.02149 0.28312 0.0
H320 H 0.04722 0.05797 0.3032 0.0
H321 H 0.0265 0.14692 0.30444 0.0
H322 H 0.1828 0.33809 0.29921 0.0
H323 H 0.25823 0.29988 0.30357 0.0
C324 C 0.2278 0.17843 0.29507 0.0
C325 C 0.20468 0.11397 0.28653 0.0
C326 C 0.18566 0.20065 0.3035 0.0
C327 C 0.13965 0.07084 0.29157 0.0
C328 C 0.09747 0.0921 0.30198 0.0
C329 C 0.07703 0.17977 0.3057 0.0
C330 C 0.0995 0.2448 0.30138 0.0
C331 C 0.11966 0.15716 0.30549 0.0
C332 C 0.16487 0.28776 0.30299 0.0
C333 C 0.20782 0.26586 0.30492 0.0
H334 H 0.94039 0.73842 0.20994 0.0
H335 H 0.91577 0.85996 0.31195 0.0
H336 H 0.02933 0.91688 0.3302 0.0
H337 H 0.13713 0.94182 0.30744 0.0
H338 H 0.1623 0.83321 0.19317 0.0
H339 H 0.04803 0.75858 0.1921 0.0
C340 C 0.95998 0.77657 0.23684 0.0
C341 C 0.92042 0.79562 0.25923 0.0
C342 C 0.02569 0.81086 0.24536 0.0
C343 C 0.94593 0.84536 0.29375 0.0
C344 C 0.01068 0.87762 0.30438 0.0
C345 C 0.11744 0.90128 0.28292 0.0
C346 C 0.15744 0.89376 0.24956 0.0
C347 C 0.05136 0.8623 0.27901 0.0
C348 C 0.13201 0.84009 0.21891 0.0
C349 C 0.06667 0.79799 0.21776 0.0
H350 H 0.77911 0.03354 0.23555 0.0
H351 H 0.94485 0.04137 0.29899 0.0
H352 H 0.88067 0.93651 0.33516 0.0
H353 H 0.78198 0.83621 0.33449 0.0
H354 H 0.61659 0.82296 0.26489 0.0
H355 H 0.67382 0.93716 0.2497 0.0
C356 C 0.80047 0.01286 0.25854 0.0
C357 C 0.86661 0.04475 0.26411 0.0
C358 C 0.76293 0.95156 0.27881 0.0
C359 C 0.89425 0.01702 0.29313 0.0
C360 C 0.85745 0.95722 0.3143 0.0
C361 C 0.75737 0.85859 0.31822 0.0
C362 C 0.69601 0.82097 0.2992 0.0
C363 C 0.79214 0.92303 0.30569 0.0
C364 C 0.6644 0.85097 0.27915 0.0
C365 C 0.69764 0.9161 0.26925 0.0
H366 H 0.18011 0.28247 0.72366 0.0
H367 H 0.00577 0.10936 0.75494 0.0
H368 H 0.05462 0.04782 0.72985 0.0
H369 H 0.15117 0.04399 0.71318 0.0
H370 H 0.33149 0.21632 0.70729 0.0
H371 H 0.27763 0.27827 0.70551 0.0
C372 C 0.1532 0.23118 0.72461 0.0
C373 C 0.08969 0.19981 0.74082 0.0
C374 C 0.1833 0.19652 0.71408 0.0
C375 C 0.05469 0.13378 0.7424 0.0
C376 C 0.08274 0.09885 0.72805 0.0
C377 C 0.17824 0.09499 0.70967 0.0
C378 C 0.24471 0.12567 0.70945 0.0
C379 C 0.14748 0.12971 0.71544 0.0
C380 C 0.28014 0.19188 0.70635 0.0
C381 C 0.24932 0.22711 0.70652 0.0
H382 H 0.03551 0.77941 0.77748 0.0
H383 H 0.05499 0.95471 0.72397 0.0
H384 H 0.94974 0.89916 0.68811 0.0
H385 H 0.8461 0.80496 0.68601 0.0
H386 H 0.81762 0.63177 0.75252 0.0
H387 H 0.93208 0.68005 0.76609 0.0
C388 C 0.01644 0.80502 0.75781 0.0
C389 C 0.05207 0.8714 0.75477 0.0
C390 C 0.95416 0.77255 0.73882 0.0
C391 C 0.02753 0.90408 0.72846 0.0
C392 C 0.9675 0.87216 0.70738 0.0
C393 C 0.86522 0.7768 0.70129 0.0
C394 C 0.82368 0.71528 0.71869 0.0
C395 C 0.92949 0.80681 0.714 0.0
C396 C 0.84898 0.67939 0.73874 0.0
C397 C 0.91421 0.70752 0.74767 0.0
H398 H 0.95569 0.15334 0.68733 0.0
H399 H 0.7985 0.17975 0.72314 0.0
H400 H 0.72773 0.06539 0.72906 0.0
H401 H 0.71589 0.95919 0.74174 0.0
H402 H 0.87611 0.93558 0.71069 0.0
H403 H 0.93886 0.04563 0.68448 0.0
C404 C 0.90557 0.13416 0.69466 0.0
C405 C 0.88305 0.17541 0.70604 0.0
C406 C 0.86566 0.0682 0.70063 0.0
C407 C 0.81747 0.14923 0.71475 0.0
C408 C 0.77701 0.08365 0.71896 0.0
C409 C 0.76432 0.97814 0.72881 0.0
C410 C 0.79177 0.9395 0.72978 0.0
C411 C 0.80142 0.04281 0.71513 0.0
C412 C 0.85432 0.96464 0.71195 0.0
C413 C 0.89043 0.02779 0.69682 0.0
loop_
_geom_bond_atom_site_label_1
_geom_bond_atom_site_label_2
_geom_bond_distance
_geom_bond_site_symmetry_2
_ccdc_geom_bond_type
Zn0 O6 1.920 . S
Zn0 O12 1.898 . S
Zn0 O15 1.905 1_545 S
Zn1 O9 1.905 . S
Zn1 O10 1.898 . S
Zn1 O18 1.920 . S
Zn2 O5 2.080 . S
Zn2 O8 2.114 . S
Zn2 O11 2.120 . S
Zn2 O13 2.120 . S
Zn2 O14 2.114 1_545 S
Zn2 O17 2.080 . S
C3 O8 1.166 . S
C3 O9 1.182 . S
C4 O10 1.167 . S
C4 O11 1.299 . S
O5 Zn2 2.080 . S
O5 C19 1.305 . S
O6 Zn0 1.920 . S
O6 C19 1.234 . S
C7 O12 1.167 . S
C7 O13 1.299 . S
O8 Zn2 2.114 . S
O8 C3 1.166 . S
O9 Zn1 1.905 . S
O9 C3 1.182 . S
O10 Zn1 1.898 . S
O10 C4 1.167 . S
O11 Zn2 2.120 . S
O11 C4 1.299 . S
O12 Zn0 1.898 . S
O12 C7 1.167 . S
O13 Zn2 2.120 . S
O13 C7 1.299 . S
O14 Zn2 2.114 1_565 S
O14 C16 1.166 . S
O15 Zn0 1.905 1_565 S
O15 C16 1.182 . S
C16 O14 1.166 . S
C16 O15 1.182 . S
O17 Zn2 2.080 . S
O17 C20 1.305 . S
O18 Zn1 1.920 . S
O18 C20 1.234 . S
C19 O5 1.305 . S
C19 O6 1.234 . S
C20 O17 1.305 . S
C20 O18 1.234 . S
Zn21 O27 1.920 . S
Zn21 O33 1.898 . S
Zn21 O36 1.905 . S
Zn22 O30 1.905 . S
Zn22 O31 1.898 . S
Zn22 O39 1.920 . S
Zn23 O26 2.080 . S
Zn23 O29 2.114 . S
Zn23 O32 2.120 . S
Zn23 O34 2.120 . S
Zn23 O35 2.114 . S
Zn23 O38 2.080 . S
C24 O29 1.166 . S
C24 O30 1.182 . S
C25 O31 1.167 . S
C25 O32 1.299 . S
O26 Zn23 2.080 . S
O26 C40 1.305 . S
O27 Zn21 1.920 . S
O27 C40 1.234 . S
C28 O33 1.167 . S
C28 O34 1.299 . S
O29 Zn23 2.114 . S
O29 C24 1.166 . S
O30 Zn22 1.905 . S
O30 C24 1.182 . S
O31 Zn22 1.898 . S
O31 C25 1.167 . S
O32 Zn23 2.120 . S
O32 C25 1.299 . S
O33 Zn21 1.898 . S
O33 C28 1.167 . S
O34 Zn23 2.120 . S
O34 C28 1.299 . S
O35 Zn23 2.114 . S
O35 C37 1.166 . S
O36 Zn21 1.905 . S
O36 C37 1.182 . S
C37 O35 1.166 . S
C37 O36 1.182 . S
O38 Zn23 2.080 . S
O38 C41 1.305 . S
O39 Zn22 1.920 . S
O39 C41 1.234 . S
C40 O26 1.305 . S
C40 O27 1.234 . S
C41 O38 1.305 . S
C41 O39 1.234 . S
Zn42 O48 1.920 . S
Zn42 O54 1.898 . S
Zn42 O57 1.905 1_655 S
Zn43 O51 1.905 . S
Zn43 O52 1.898 . S
Zn43 O60 1.920 . S
Zn44 O47 2.080 . S
Zn44 O50 2.114 . S
Zn44 O53 2.120 . S
Zn44 O55 2.120 . S
Zn44 O56 2.114 1_655 S
Zn44 O59 2.080 . S
C45 O50 1.166 . S
C45 O51 1.182 . S
C46 O52 1.167 . S
C46 O53 1.299 . S
O47 Zn44 2.080 . S
O47 C61 1.305 . S
O48 Zn42 1.920 . S
O48 C61 1.234 . S
C49 O54 1.167 . S
C49 O55 1.299 . S
O50 Zn44 2.114 . S
O50 C45 1.166 . S
O51 Zn43 1.905 . S
O51 C45 1.182 . S
O52 Zn43 1.898 . S
O52 C46 1.167 . S
O53 Zn44 2.120 . S
O53 C46 1.299 . S
O54 Zn42 1.898 . S
O54 C49 1.167 . S
O55 Zn44 2.120 . S
O55 C49 1.299 . S
O56 Zn44 2.114 1_455 S
O56 C58 1.166 . S
O57 Zn42 1.905 1_455 S
O57 C58 1.182 . S
C58 O56 1.166 . S
C58 O57 1.182 . S
O59 Zn44 2.080 . S
O59 C62 1.305 . S
O60 Zn43 1.920 . S
O60 C62 1.234 . S
C61 O47 1.305 . S
C61 O48 1.234 . S
C62 O59 1.305 . S
C62 O60 1.234 . S
Zn63 O69 1.920 . S
Zn63 O75 1.898 . S
Zn63 O78 1.905 1_455 S
Zn64 O72 1.905 . S
Zn64 O73 1.898 . S
Zn64 O81 1.920 . S
Zn65 O68 2.080 . S
Zn65 O71 2.114 . S
Zn65 O74 2.120 . S
Zn65 O76 2.120 . S
Zn65 O77 2.114 1_455 S
Zn65 O80 2.080 . S
C66 O71 1.166 . S
C66 O72 1.182 . S
C67 O73 1.167 . S
C67 O74 1.299 . S
O68 Zn65 2.080 . S
O68 C82 1.305 . S
O69 Zn63 1.920 . S
O69 C82 1.234 . S
C70 O75 1.167 . S
C70 O76 1.299 . S
O71 Zn65 2.114 . S
O71 C66 1.166 . S
O72 Zn64 1.905 . S
O72 C66 1.182 . S
O73 Zn64 1.898 . S
O73 C67 1.167 . S
O74 Zn65 2.120 . S
O74 C67 1.299 . S
O75 Zn63 1.898 . S
O75 C70 1.167 . S
O76 Zn65 2.120 . S
O76 C70 1.299 . S
O77 Zn65 2.114 1_655 S
O77 C79 1.166 . S
O78 Zn63 1.905 1_655 S
O78 C79 1.182 . S
C79 O77 1.166 . S
C79 O78 1.182 . S
O80 Zn65 2.080 . S
O80 C83 1.305 . S
O81 Zn64 1.920 . S
O81 C83 1.234 . S
C82 O68 1.305 . S
C82 O69 1.234 . S
C83 O80 1.305 . S
C83 O81 1.234 . S
Zn84 O90 1.920 . S
Zn84 O96 1.898 . S
Zn84 O99 1.905 . S
Zn85 O93 1.905 1_565 S
Zn85 O94 1.898 . S
Zn85 O102 1.920 . S
Zn86 O89 2.080 . S
Zn86 O92 2.114 1_565 S
Zn86 O95 2.120 . S
Zn86 O97 2.120 . S
Zn86 O98 2.114 . S
Zn86 O101 2.080 . S
C87 O92 1.166 . S
C87 O93 1.182 . S
C88 O94 1.167 . S
C88 O95 1.299 . S
O89 Zn86 2.080 . S
O89 C103 1.305 . S
O90 Zn84 1.920 . S
O90 C103 1.234 . S
C91 O96 1.167 . S
C91 O97 1.299 . S
O92 Zn86 2.114 1_545 S
O92 C87 1.166 . S
O93 Zn85 1.905 1_545 S
O93 C87 1.182 . S
O94 Zn85 1.898 . S
O94 C88 1.167 . S
O95 Zn86 2.120 . S
O95 C88 1.299 . S
O96 Zn84 1.898 . S
O96 C91 1.167 . S
O97 Zn86 2.120 . S
O97 C91 1.299 . S
O98 Zn86 2.114 . S
O98 C100 1.166 . S
O99 Zn84 1.905 . S
O99 C100 1.182 . S
C100 O98 1.166 . S
C100 O99 1.182 . S
O101 Zn86 2.080 . S
O101 C104 1.305 . S
O102 Zn85 1.920 . S
O102 C104 1.234 . S
C103 O89 1.305 . S
C103 O90 1.234 . S
C104 O101 1.305 . S
C104 O102 1.234 . S
Zn105 O111 1.920 . S
Zn105 O117 1.898 . S
Zn105 O120 1.905 . S
Zn106 O114 1.905 . S
Zn106 O115 1.898 . S
Zn106 O123 1.920 . S
Zn107 O110 2.080 . S
Zn107 O113 2.114 . S
Zn107 O116 2.120 . S
Zn107 O118 2.120 . S
Zn107 O119 2.114 . S
Zn107 O122 2.080 . S
C108 O113 1.166 . S
C108 O114 1.182 . S
C109 O115 1.167 . S
C109 O116 1.299 . S
O110 Zn107 2.080 . S
O110 C124 1.305 . S
O111 Zn105 1.920 . S
O111 C124 1.234 . S
C112 O117 1.167 . S
C112 O118 1.299 . S
O113 Zn107 2.114 . S
O113 C108 1.166 . S
O114 Zn106 1.905 . S
O114 C108 1.182 . S
O115 Zn106 1.898 . S
O115 C109 1.167 . S
O116 Zn107 2.120 . S
O116 C109 1.299 . S
O117 Zn105 1.898 . S
O117 C112 1.167 . S
O118 Zn107 2.120 . S
O118 C112 1.299 . S
O119 Zn107 2.114 . S
O119 C121 1.166 . S
O120 Zn105 1.905 . S
O120 C121 1.182 . S
C121 O119 1.166 . S
C121 O120 1.182 . S
O122 Zn107 2.080 . S
O122 C125 1.305 . S
O123 Zn106 1.920 . S
O123 C125 1.234 . S
C124 O110 1.305 . S
C124 O111 1.234 . S
C125 O122 1.305 . S
C125 O123 1.234 . S
H126 C132 0.930 . S
H127 C135 0.930 . S
H128 C136 0.930 . S
H129 C137 0.930 . S
H130 C140 0.930 . S
H131 C141 0.930 . S
C132 H126 0.930 . S
C132 C133 1.355 . S
C132 C134 1.399 1_556 S
C133 C132 1.355 . S
C133 C135 1.419 1_565 S
C134 C132 1.399 1_554 S
C134 C139 1.425 1_564 S
C134 C141 1.425 . S
C135 H127 0.930 . S
C135 C133 1.419 1_545 S
C135 C136 1.362 . S
C136 H128 0.930 . S
C136 C135 1.362 . S
C136 C139 1.425 . S
C137 H129 0.930 . S
C137 C138 1.355 . S
C137 C139 1.399 1_554 S
C138 C137 1.355 . S
C138 C140 1.419 1_545 S
C139 C134 1.425 1_546 S
C139 C136 1.425 . S
C139 C137 1.399 1_556 S
C140 H130 0.930 . S
C140 C138 1.419 1_565 S
C140 C141 1.362 . S
C141 H131 0.930 . S
C141 C134 1.425 . S
C141 C140 1.362 . S
H142 C148 0.930 . S
H143 C151 0.930 . S
H144 C152 0.930 . S
H145 C153 0.930 . S
H146 C156 0.930 . S
H147 C157 0.930 . S
C148 H142 0.930 . S
C148 C149 1.355 . S
C148 C150 1.415 . S
C149 C148 1.355 . S
C149 C151 1.419 . S
C150 C148 1.415 . S
C150 C155 1.425 . S
C150 C157 1.409 . S
C151 H143 0.930 . S
C151 C149 1.419 . S
C151 C152 1.362 . S
C152 H144 0.930 . S
C152 C151 1.362 . S
C152 C155 1.409 . S
C153 H145 0.930 . S
C153 C154 1.355 . S
C153 C155 1.415 . S
C154 C153 1.355 . S
C154 C156 1.419 . S
C155 C150 1.425 . S
C155 C152 1.409 . S
C155 C153 1.415 . S
C156 H146 0.930 . S
C156 C154 1.419 . S
C156 C157 1.362 . S
C157 H147 0.930 . S
C157 C150 1.409 . S
C157 C156 1.362 . S
H158 C164 0.930 . S
H159 C167 0.930 . S
H160 C168 0.930 . S
H161 C169 0.930 . S
H162 C172 0.930 . S
H163 C173 0.930 . S
C164 H158 0.930 . S
C164 C165 1.355 . S
C164 C166 1.415 . S
C165 C164 1.355 . S
C165 C167 1.419 . S
C166 C164 1.415 . S
C166 C171 1.425 1_654 S
C166 C173 1.409 1_654 S
C167 H159 0.930 . S
C167 C165 1.419 . S
C167 C168 1.362 . S
C168 H160 0.930 . S
C168 C167 1.362 . S
C168 C171 1.409 1_654 S
C169 H161 0.930 . S
C169 C170 1.355 . S
C169 C171 1.415 . S
C170 C169 1.355 . S
C170 C172 1.419 . S
C171 C166 1.425 1_456 S
C171 C168 1.409 1_456 S
C171 C169 1.415 . S
C172 H162 0.930 . S
C172 C170 1.419 . S
C172 C173 1.362 . S
C173 H163 0.930 . S
C173 C166 1.409 1_456 S
C173 C172 1.362 . S
H174 C180 0.930 1_565 S
H175 C183 0.930 . S
H176 C184 0.930 . S
H177 C185 0.930 1_545 S
H178 C188 0.930 . S
H179 C189 0.930 . S
C180 H174 0.930 1_545 S
C180 C181 1.355 . S
C180 C182 1.415 1_545 S
C181 C180 1.355 . S
C181 C183 1.419 . S
C182 C180 1.415 1_565 S
C182 C187 1.425 1_565 S
C182 C189 1.409 . S
C183 H175 0.930 . S
C183 C181 1.419 . S
C183 C184 1.362 . S
C184 H176 0.930 . S
C184 C183 1.362 . S
C184 C187 1.409 . S
C185 H177 0.930 1_565 S
C185 C186 1.355 . S
C185 C187 1.415 1_565 S
C186 C185 1.355 . S
C186 C188 1.419 . S
C187 C182 1.425 1_545 S
C187 C184 1.409 . S
C187 C185 1.415 1_545 S
C188 H178 0.930 . S
C188 C186 1.419 . S
C188 C189 1.362 . S
C189 H179 0.930 . S
C189 C182 1.409 . S
C189 C188 1.362 . S
H190 C196 0.930 . S
H191 C199 0.930 . S
H192 C200 0.930 . S
H193 C201 0.930 . S
H194 C204 0.930 . S
H195 C205 0.930 . S
C196 H190 0.930 . S
C196 C197 1.355 . S
C196 C198 1.416 1_556 S
C197 C196 1.355 . S
C197 C199 1.419 . S
C198 C196 1.416 1_554 S
C198 C203 1.425 1_554 S
C198 C205 1.408 . S
C199 H191 0.930 . S
C199 C197 1.419 . S
C199 C200 1.362 . S
C200 H192 0.930 . S
C200 C199 1.362 . S
C200 C203 1.408 . S
C201 H193 0.930 . S
C201 C202 1.355 . S
C201 C203 1.416 1_554 S
C202 C201 1.355 . S
C202 C204 1.419 . S
C203 C198 1.425 1_556 S
C203 C200 1.408 . S
C203 C201 1.416 1_556 S
C204 H194 0.930 . S
C204 C202 1.419 . S
C204 C205 1.362 . S
C205 H195 0.930 . S
C205 C198 1.408 . S
C205 C204 1.362 . S
H206 C212 0.930 . S
H207 C215 0.930 . S
H208 C216 0.930 . S
H209 C217 0.930 . S
H210 C220 0.930 . S
H211 C221 0.930 . S
C212 H206 0.930 . S
C212 C213 1.355 1_455 S
C212 C214 1.415 . S
C213 C212 1.355 1_655 S
C213 C215 1.419 . S
C214 C212 1.415 . S
C214 C219 1.425 1_455 S
C214 C221 1.409 . S
C215 H207 0.930 . S
C215 C213 1.419 . S
C215 C216 1.362 . S
C216 H208 0.930 . S
C216 C215 1.362 . S
C216 C219 1.409 . S
C217 H209 0.930 . S
C217 C218 1.355 1_655 S
C217 C219 1.415 . S
C218 C217 1.355 1_455 S
C218 C220 1.419 . S
C219 C214 1.425 1_655 S
C219 C216 1.409 . S
C219 C217 1.415 . S
C220 H210 0.930 . S
C220 C218 1.419 . S
C220 C221 1.362 . S
C221 H211 0.930 . S
C221 C214 1.409 . S
C221 C220 1.362 . S
H222 C228 0.930 . S
H223 C231 0.930 . S
H224 C232 0.930 . S
H225 C233 0.930 . S
H226 C236 0.930 . S
H227 C237 0.930 . S
C228 H222 0.930 . S
C228 C229 1.355 . S
C228 C230 1.415 . S
C229 C228 1.355 . S
C229 C231 1.419 . S
C230 C228 1.415 . S
C230 C235 1.425 . S
C230 C237 1.409 . S
C231 H223 0.930 . S
C231 C229 1.419 . S
C231 C232 1.362 . S
C232 H224 0.930 . S
C232 C231 1.362 . S
C232 C235 1.409 . S
C233 H225 0.930 . S
C233 C234 1.355 . S
C233 C235 1.415 . S
C234 C233 1.355 . S
C234 C236 1.419 . S
C235 C230 1.425 . S
C235 C232 1.409 . S
C235 C233 1.415 . S
C236 H226 0.930 . S
C236 C234 1.419 . S
C236 C237 1.362 . S
C237 H227 0.930 . S
C237 C230 1.409 . S
C237 C236 1.362 . S
H238 C244 0.930 . S
H239 C247 0.930 . S
H240 C248 0.930 . S
H241 C249 0.930 . S
H242 C252 0.930 . S
H243 C253 0.930 . S
C244 H238 0.930 . S
C244 C245 1.355 . S
C244 C246 1.415 . S
C245 C244 1.355 . S
C245 C247 1.419 . S
C246 C244 1.415 . S
C246 C251 1.425 . S
C246 C253 1.409 . S
C247 H239 0.930 . S
C247 C245 1.419 . S
C247 C248 1.362 . S
C248 H240 0.930 . S
C248 C247 1.362 . S
C248 C251 1.409 . S
C249 H241 0.930 . S
C249 C250 1.355 . S
C249 C251 1.415 . S
C250 C249 1.355 . S
C250 C252 1.419 . S
C251 C246 1.425 . S
C251 C248 1.409 . S
C251 C249 1.415 . S
C252 H242 0.930 . S
C252 C250 1.419 . S
C252 C253 1.362 . S
C253 H243 0.930 . S
C253 C246 1.409 . S
C253 C252 1.362 . S
H254 C260 0.930 . S
H255 C263 0.930 . S
H256 C264 0.930 . S
H257 C265 0.930 . S
H258 C268 0.930 . S
H259 C269 0.930 . S
C260 H254 0.930 . S
C260 C261 1.355 . S
C260 C262 1.415 . S
C261 C260 1.355 . S
C261 C263 1.419 . S
C262 C260 1.415 . S
C262 C267 1.425 . S
C262 C269 1.409 . S
C263 H255 0.930 . S
C263 C261 1.419 . S
C263 C264 1.362 . S
C264 H256 0.930 . S
C264 C263 1.362 . S
C264 C267 1.409 . S
C265 H257 0.930 . S
C265 C266 1.355 . S
C265 C267 1.415 . S
C266 C265 1.355 . S
C266 C268 1.419 . S
C267 C262 1.425 . S
C267 C264 1.409 . S
C267 C265 1.415 . S
C268 H258 0.930 . S
C268 C266 1.419 . S
C268 C269 1.362 . S
C269 H259 0.930 . S
C269 C262 1.409 . S
C269 C268 1.362 . S
H270 C276 0.930 . S
H271 C279 0.930 . S
H272 C280 0.930 . S
H273 C281 0.930 . S
H274 C284 0.930 . S
H275 C285 0.930 . S
C276 H270 0.930 . S
C276 C277 1.355 . S
C276 C278 1.415 . S
C277 C276 1.355 . S
C277 C279 1.419 . S
C278 C276 1.415 . S
C278 C283 1.425 . S
C278 C285 1.409 . S
C279 H271 0.930 . S
C279 C277 1.419 . S
C279 C280 1.362 . S
C280 H272 0.930 . S
C280 C279 1.362 . S
C280 C283 1.409 . S
C281 H273 0.930 . S
C281 C282 1.355 . S
C281 C283 1.415 . S
C282 C281 1.355 . S
C282 C284 1.419 . S
C283 C278 1.425 . S
C283 C280 1.409 . S
C283 C281 1.415 . S
C284 H274 0.930 . S
C284 C282 1.419 . S
C284 C285 1.362 . S
C285 H275 0.930 . S
C285 C278 1.409 . S
C285 C284 1.362 . S
H286 C292 0.930 . S
H287 C295 0.930 1_545 S
H288 C296 0.930 . S
H289 C297 0.930 . S
H290 C300 0.930 . S
H291 C301 0.930 . S
C292 H286 0.930 . S
C292 C293 1.355 . S
C292 C294 1.415 . S
C293 C292 1.355 . S
C293 C295 1.419 . S
C294 C292 1.415 . S
C294 C299 1.425 . S
C294 C301 1.409 . S
C295 H287 0.930 1_565 S
C295 C293 1.419 . S
C295 C296 1.362 . S
C296 H288 0.930 . S
C296 C295 1.362 . S
C296 C299 1.409 . S
C297 H289 0.930 . S
C297 C298 1.355 . S
C297 C299 1.415 . S
C298 C297 1.355 . S
C298 C300 1.419 . S
C299 C294 1.425 . S
C299 C296 1.409 . S
C299 C297 1.415 . S
C300 H290 0.930 . S
C300 C298 1.419 . S
C300 C301 1.362 . S
C301 H291 0.930 . S
C301 C294 1.409 . S
C301 C300 1.362 . S
H302 C308 0.930 . S
H303 C311 0.930 . S
H304 C312 0.930 . S
H305 C313 0.930 . S
H306 C316 0.930 . S
H307 C317 0.930 . S
C308 H302 0.930 . S
C308 C309 1.355 . S
C308 C310 1.415 . S
C309 C308 1.355 . S
C309 C311 1.419 . S
C310 C308 1.415 . S
C310 C315 1.425 . S
C310 C317 1.409 . S
C311 H303 0.930 . S
C311 C309 1.419 . S
C311 C312 1.362 . S
C312 H304 0.930 . S
C312 C311 1.362 . S
C312 C315 1.409 . S
C313 H305 0.930 . S
C313 C314 1.355 . S
C313 C315 1.415 . S
C314 C313 1.355 . S
C314 C316 1.419 . S
C315 C310 1.425 . S
C315 C312 1.409 . S
C315 C313 1.415 . S
C316 H306 0.930 . S
C316 C314 1.419 . S
C316 C317 1.362 . S
C317 H307 0.930 . S
C317 C310 1.409 . S
C317 C316 1.362 . S
H318 C324 0.930 . S
H319 C327 0.930 . S
H320 C328 0.930 . S
H321 C329 0.930 . S
H322 C332 0.930 . S
H323 C333 0.930 . S
C324 H318 0.930 . S
C324 C325 1.355 . S
C324 C326 1.415 . S
C325 C324 1.355 . S
C325 C327 1.419 . S
C326 C324 1.415 . S
C326 C331 1.425 . S
C326 C333 1.409 . S
C327 H319 0.930 . S
C327 C325 1.419 . S
C327 C328 1.362 . S
C328 H320 0.930 . S
C328 C327 1.362 . S
C328 C331 1.409 . S
C329 H321 0.930 . S
C329 C330 1.355 . S
C329 C331 1.415 . S
C330 C329 1.355 . S
C330 C332 1.419 . S
C331 C326 1.425 . S
C331 C328 1.409 . S
C331 C329 1.415 . S
C332 H322 0.930 . S
C332 C330 1.419 . S
C332 C333 1.362 . S
C333 H323 0.930 . S
C333 C326 1.409 . S
C333 C332 1.362 . S
H334 C340 0.930 . S
H335 C343 0.930 . S
H336 C344 0.930 . S
H337 C345 0.930 . S
H338 C348 0.930 . S
H339 C349 0.930 . S
C340 H334 0.930 . S
C340 C341 1.355 . S
C340 C342 1.415 1_655 S
C341 C340 1.355 . S
C341 C343 1.419 . S
C342 C340 1.415 1_455 S
C342 C347 1.425 . S
C342 C349 1.409 . S
C343 H335 0.930 . S
C343 C341 1.419 . S
C343 C344 1.362 1_655 S
C344 H336 0.930 . S
C344 C343 1.362 1_455 S
C344 C347 1.409 . S
C345 H337 0.930 . S
C345 C346 1.355 . S
C345 C347 1.415 . S
C346 C345 1.355 . S
C346 C348 1.419 . S
C347 C342 1.425 . S
C347 C344 1.409 . S
C347 C345 1.415 . S
C348 H338 0.930 . S
C348 C346 1.419 . S
C348 C349 1.362 . S
C349 H339 0.930 . S
C349 C342 1.409 . S
C349 C348 1.362 . S
H350 C356 0.930 . S
H351 C359 0.930 . S
H352 C360 0.930 . S
H353 C361 0.930 . S
H354 C364 0.930 . S
H355 C365 0.930 . S
C356 H350 0.930 . S
C356 C357 1.355 . S
C356 C358 1.415 1_545 S
C357 C356 1.355 . S
C357 C359 1.419 . S
C358 C356 1.415 1_565 S
C358 C363 1.425 . S
C358 C365 1.409 . S
C359 H351 0.930 . S
C359 C357 1.419 . S
C359 C360 1.362 1_545 S
C360 H352 0.930 . S
C360 C359 1.362 1_565 S
C360 C363 1.409 . S
C361 H353 0.930 . S
C361 C362 1.355 . S
C361 C363 1.415 . S
C362 C361 1.355 . S
C362 C364 1.419 . S
C363 C358 1.425 . S
C363 C360 1.409 . S
C363 C361 1.415 . S
C364 H354 0.930 . S
C364 C362 1.419 . S
C364 C365 1.362 . S
C365 H355 0.930 . S
C365 C358 1.409 . S
C365 C364 1.362 . S
H366 C372 0.930 . S
H367 C375 0.930 . S
H368 C376 0.930 . S
H369 C377 0.930 . S
H370 C380 0.930 . S
H371 C381 0.930 . S
C372 H366 0.930 . S
C372 C373 1.355 . S
C372 C374 1.415 . S
C373 C372 1.355 . S
C373 C375 1.419 . S
C374 C372 1.415 . S
C374 C379 1.425 . S
C374 C381 1.409 . S
C375 H367 0.930 . S
C375 C373 1.419 . S
C375 C376 1.362 . S
C376 H368 0.930 . S
C376 C375 1.362 . S
C376 C379 1.409 . S
C377 H369 0.930 . S
C377 C378 1.355 . S
C377 C379 1.415 . S
C378 C377 1.355 . S
C378 C380 1.419 . S
C379 C374 1.425 . S
C379 C376 1.409 . S
C379 C377 1.415 . S
C380 H370 0.930 . S
C380 C378 1.419 . S
C380 C381 1.362 . S
C381 H371 0.930 . S
C381 C374 1.409 . S
C381 C380 1.362 . S
H382 C388 0.930 . S
H383 C391 0.930 . S
H384 C392 0.930 . S
H385 C393 0.930 . S
H386 C396 0.930 . S
H387 C397 0.930 . S
C388 H382 0.930 . S
C388 C389 1.355 . S
C388 C390 1.415 1_455 S
C389 C388 1.355 . S
C389 C391 1.419 . S
C390 C388 1.415 1_655 S
C390 C395 1.425 . S
C390 C397 1.409 . S
C391 H383 0.930 . S
C391 C389 1.419 . S
C391 C392 1.362 1_455 S
C392 H384 0.930 . S
C392 C391 1.362 1_655 S
C392 C395 1.409 . S
C393 H385 0.930 . S
C393 C394 1.355 . S
C393 C395 1.415 . S
C394 C393 1.355 . S
C394 C396 1.419 . S
C395 C390 1.425 . S
C395 C392 1.409 . S
C395 C393 1.415 . S
C396 H386 0.930 . S
C396 C394 1.419 . S
C396 C397 1.362 . S
C397 H387 0.930 . S
C397 C390 1.409 . S
C397 C396 1.362 . S
H398 C404 0.930 . S
H399 C407 0.930 . S
H400 C408 0.930 . S
H401 C409 0.930 . S
H402 C412 0.930 . S
H403 C413 0.930 . S
C404 H398 0.930 . S
C404 C405 1.355 . S
C404 C406 1.415 . S
C405 C404 1.355 . S
C405 C407 1.419 . S
C406 C404 1.415 . S
C406 C411 1.425 . S
C406 C413 1.409 . S
C407 H399 0.930 . S
C407 C405 1.419 . S
C407 C408 1.362 . S
C408 H400 0.930 . S
C408 C407 1.362 . S
C408 C411 1.409 . S
C409 H401 0.930 . S
C409 C410 1.355 . S
C409 C411 1.415 1_565 S
C410 C409 1.355 . S
C410 C412 1.419 . S
C411 C406 1.425 . S
C411 C408 1.409 . S
C411 C409 1.415 1_545 S
C412 H402 0.930 . S
C412 C410 1.419 . S
C412 C413 1.362 1_565 S
C413 H403 0.930 . S
C413 C406 1.409 . S
C413 C412 1.362 1_545 S
C133 C88 1.377 . S
C138 C7 1.397 . S
C149 C112 1.510 . S
C154 C25 1.441 . S
C165 C49 1.459 . S
C170 C70 1.347 . S
C181 C4 1.518 . S
C186 C91 1.446 . S
C197 C109 1.352 . S
C202 C28 1.434 . S
C213 C46 1.507 . S
C218 C67 1.440 . S
C229 C3 0.932 . S
C234 C62 1.217 . S
C245 C24 0.946 . S
C250 C20 1.209 . S
C261 C45 0.889 . S
C266 C41 1.254 . S
C277 C66 1.079 . S
C282 C103 1.182 . S
C293 C100 1.039 . S
C298 C124 1.165 . S
C309 C83 1.207 . S
C314 C121 0.949 . S
C325 C19 0.984 . S
C330 C58 0.995 . S
C341 C40 1.017 . S
C346 C16 0.911 . S
C357 C61 1.003 . S
C362 C37 0.939 . S
C373 C82 0.985 . S
C378 C87 0.994 . S
C389 C104 0.986 . S
C394 C108 0.983 . S
C405 C79 0.981 . S
C410 C125 0.987 . S
