# Generated by pormake.
# Topology smd, (6)-cn, num edge types: 1
# Building blocks:
#     Node 0, Type 0, BuildingBlock: MIFKUJ_clean_sbu_0, # of connection points: 6
#     Node 1, Type 0, BuildingBlock: MIFKUJ_clean_sbu_0, # of connection points: 6
#     Node 2, Type 0, BuildingBlock: MIFKUJ_clean_sbu_0, # of connection points: 6
#     Node 3, Type 0, BuildingBlock: MIFKUJ_clean_sbu_0, # of connection points: 6
#     Node 4, Type 0, BuildingBlock: MIFKUJ_clean_sbu_0, # of connection points: 6
#     Node 5, Type 0, BuildingBlock: MIFKUJ_clean_sbu_0, # of connection points: 6
#     Node 6, Type 0, BuildingBlock: MIFKUJ_clean_sbu_0, # of connection points: 6
#     Node 7, Type 0, BuildingBlock: MIFKUJ_clean_sbu_0, # of connection points: 6
#     Node 8, Type 0, BuildingBlock: MIFKUJ_clean_sbu_0, # of connection points: 6
#     Node 9, Type 0, BuildingBlock: MIFKUJ_clean_sbu_0, # of connection points: 6
#     Node 10, Type 0, BuildingBlock: MIFKUJ_clean_sbu_0, # of connection points: 6
#     Node 11, Type 0, BuildingBlock: MIFKUJ_clean_sbu_0, # of connection points: 6
#     Node 12, Type 0, BuildingBlock: MIFKUJ_clean_sbu_0, # of connection points: 6
#     Node 13, Type 0, BuildingBlock: MIFKUJ_clean_sbu_0, # of connection points: 6
#     Node 14, Type 0, BuildingBlock: MIFKUJ_clean_sbu_0, # of connection points: 6
#     Node 15, Type 0, BuildingBlock: MIFKUJ_clean_sbu_0, # of connection points: 6
#     Node 16, Type 0, BuildingBlock: MIFKUJ_clean_sbu_0, # of connection points: 6
#     Node 17, Type 0, BuildingBlock: MIFKUJ_clean_sbu_0, # of connection points: 6
#     Edge 18, Type (0, 0), BuildingBlock: XIVTED_clean_linker_0, # of connection points: 2
#     Edge 19, Type (0, 0), BuildingBlock: XIVTED_clean_linker_0, # of connection points: 2
#     Edge 20, Type (0, 0), BuildingBlock: XIVTED_clean_linker_0, # of connection points: 2
#     Edge 21, Type (0, 0), BuildingBlock: XIVTED_clean_linker_0, # of connection points: 2
#     Edge 22, Type (0, 0), BuildingBlock: XIVTED_clean_linker_0, # of connection points: 2
#     Edge 23, Type (0, 0), BuildingBlock: XIVTED_clean_linker_0, # of connection points: 2
#     Edge 24, Type (0, 0), BuildingBlock: XIVTED_clean_linker_0, # of connection points: 2
#     Edge 25, Type (0, 0), BuildingBlock: XIVTED_clean_linker_0, # of connection points: 2
#     Edge 26, Type (0, 0), BuildingBlock: XIVTED_clean_linker_0, # of connection points: 2
#     Edge 27, Type (0, 0), BuildingBlock: XIVTED_clean_linker_0, # of connection points: 2
#     Edge 28, Type (0, 0), BuildingBlock: XIVTED_clean_linker_0, # of connection points: 2
#     Edge 29, Type (0, 0), BuildingBlock: XIVTED_clean_linker_0, # of connection points: 2
#     Edge 30, Type (0, 0), BuildingBlock: XIVTED_clean_linker_0, # of connection points: 2
#     Edge 31, Type (0, 0), BuildingBlock: XIVTED_clean_linker_0, # of connection points: 2
#     Edge 32, Type (0, 0), BuildingBlock: XIVTED_clean_linker_0, # of connection points: 2
#     Edge 33, Type (0, 0), BuildingBlock: XIVTED_clean_linker_0, # of connection points: 2
#     Edge 34, Type (0, 0), BuildingBlock: XIVTED_clean_linker_0, # of connection points: 2
#     Edge 35, Type (0, 0), BuildingBlock: XIVTED_clean_linker_0, # of connection points: 2
#     Edge 36, Type (0, 0), BuildingBlock: XIVTED_clean_linker_0, # of connection points: 2
#     Edge 37, Type (0, 0), BuildingBlock: XIVTED_clean_linker_0, # of connection points: 2
#     Edge 38, Type (0, 0), BuildingBlock: XIVTED_clean_linker_0, # of connection points: 2
#     Edge 39, Type (0, 0), BuildingBlock: XIVTED_clean_linker_0, # of connection points: 2
#     Edge 40, Type (0, 0), BuildingBlock: XIVTED_clean_linker_0, # of connection points: 2
#     Edge 41, Type (0, 0), BuildingBlock: XIVTED_clean_linker_0, # of connection points: 2
#     Edge 42, Type (0, 0), BuildingBlock: XIVTED_clean_linker_0, # of connection points: 2
#     Edge 43, Type (0, 0), BuildingBlock: XIVTED_clean_linker_0, # of connection points: 2
#     Edge 44, Type (0, 0), BuildingBlock: XIVTED_clean_linker_0, # of connection points: 2
#     Edge 45, Type (0, 0), BuildingBlock: XIVTED_clean_linker_0, # of connection points: 2
#     Edge 46, Type (0, 0), BuildingBlock: XIVTED_clean_linker_0, # of connection points: 2
#     Edge 47, Type (0, 0), BuildingBlock: XIVTED_clean_linker_0, # of connection points: 2
#     Edge 48, Type (0, 0), BuildingBlock: XIVTED_clean_linker_0, # of connection points: 2
#     Edge 49, Type (0, 0), BuildingBlock: XIVTED_clean_linker_0, # of connection points: 2
#     Edge 50, Type (0, 0), BuildingBlock: XIVTED_clean_linker_0, # of connection points: 2
#     Edge 51, Type (0, 0), BuildingBlock: XIVTED_clean_linker_0, # of connection points: 2
#     Edge 52, Type (0, 0), BuildingBlock: XIVTED_clean_linker_0, # of connection points: 2
#     Edge 53, Type (0, 0), BuildingBlock: XIVTED_clean_linker_0, # of connection points: 2
#     Edge 54, Type (0, 0), BuildingBlock: XIVTED_clean_linker_0, # of connection points: 2
#     Edge 55, Type (0, 0), BuildingBlock: XIVTED_clean_linker_0, # of connection points: 2
#     Edge 56, Type (0, 0), BuildingBlock: XIVTED_clean_linker_0, # of connection points: 2
#     Edge 57, Type (0, 0), BuildingBlock: XIVTED_clean_linker_0, # of connection points: 2
#     Edge 58, Type (0, 0), BuildingBlock: XIVTED_clean_linker_0, # of connection points: 2
#     Edge 59, Type (0, 0), BuildingBlock: XIVTED_clean_linker_0, # of connection points: 2
#     Edge 60, Type (0, 0), BuildingBlock: XIVTED_clean_linker_0, # of connection points: 2
#     Edge 61, Type (0, 0), BuildingBlock: XIVTED_clean_linker_0, # of connection points: 2
#     Edge 62, Type (0, 0), BuildingBlock: XIVTED_clean_linker_0, # of connection points: 2
#     Edge 63, Type (0, 0), BuildingBlock: XIVTED_clean_linker_0, # of connection points: 2
#     Edge 64, Type (0, 0), BuildingBlock: XIVTED_clean_linker_0, # of connection points: 2
#     Edge 65, Type (0, 0), BuildingBlock: XIVTED_clean_linker_0, # of connection points: 2
#     Edge 66, Type (0, 0), BuildingBlock: XIVTED_clean_linker_0, # of connection points: 2
#     Edge 67, Type (0, 0), BuildingBlock: XIVTED_clean_linker_0, # of connection points: 2
#     Edge 68, Type (0, 0), BuildingBlock: XIVTED_clean_linker_0, # of connection points: 2
#     Edge 69, Type (0, 0), BuildingBlock: XIVTED_clean_linker_0, # of connection points: 2
#     Edge 70, Type (0, 0), BuildingBlock: XIVTED_clean_linker_0, # of connection points: 2
#     Edge 71, Type (0, 0), BuildingBlock: XIVTED_clean_linker_0, # of connection points: 2
# Relax obj value: 0.198
# Max RMSD: 0.244
# Mean RMSD: 0.244
data_MOF--net-smd--node1-MIFKUJ_clean_sbu_0--edge1-XIVTED_clean_linker_0
_symmetry_space_group_name_H-M    P1
_symmetry_Int_Tables_number       1
_symmetry_cell_setting            triclinic
loop_
_symmetry_equiv_pos_as_xyz
'x, y, z'
_cell_length_a     71.563936
_cell_length_b     71.517839
_cell_length_c     18.393576
_cell_angle_alpha  90.027465
_cell_angle_beta   89.955984
_cell_angle_gamma 120.00593
loop_
_atom_site_label
_atom_site_type_symbol
_atom_site_fract_x
_atom_site_fract_y
_atom_site_fract_z
_atom_type_partial_charge
Zn0 Zn 0.00401 0.24208 0.52668 0.0
Zn1 Zn 0.02327 0.22563 0.34202 0.0
C2 C 0.9922 0.26745 0.61455 0.0
O3 O 0.01212 0.27497 0.63704 0.0
C4 C 0.05376 0.22219 0.4397 0.0
O5 O 0.04318 0.22532 0.49227 0.0
O6 O 0.01899 0.23886 0.61506 0.0
O7 O 0.98459 0.21309 0.48239 0.0
O8 O 0.99433 0.20271 0.38233 0.0
C9 C 0.00653 0.22391 0.65841 0.0
O10 O 0.98638 0.21108 0.63895 0.0
O11 O 0.9846 0.25266 0.56654 0.0
C12 C 0.03646 0.23317 0.19138 0.0
O13 O 0.05434 0.24879 0.21969 0.0
O14 O 0.02096 0.22099 0.23336 0.0
O15 O 0.03301 0.25726 0.35485 0.0
O16 O 0.02365 0.26585 0.45949 0.0
O17 O 0.04754 0.22112 0.37441 0.0
C18 C 0.98093 0.19916 0.43338 0.0
C19 C 0.03339 0.27118 0.39873 0.0
Zn20 Zn 0.79002 0.79018 0.53955 0.0
Zn21 Zn 0.80534 0.81199 0.35968 0.0
C22 C 0.7606 0.75028 0.61014 0.0
O23 O 0.754 0.76268 0.63988 0.0
C24 C 0.81905 0.85649 0.37999 0.0
O25 O 0.83176 0.85792 0.32613 0.0
O26 O 0.7928 0.80522 0.63447 0.0
O27 O 0.82031 0.79878 0.50726 0.0
O28 O 0.83001 0.80858 0.39327 0.0
C29 C 0.80534 0.80394 0.68048 0.0
O30 O 0.81578 0.79389 0.66207 0.0
O31 O 0.7759 0.75842 0.56406 0.0
C32 C 0.79772 0.82099 0.2131 0.0
O33 O 0.78083 0.8207 0.24243 0.0
O34 O 0.81038 0.8179 0.25307 0.0
O35 O 0.77557 0.78606 0.36607 0.0
O36 O 0.7684 0.79298 0.47629 0.0
O37 O 0.80623 0.83803 0.40682 0.0
C38 C 0.83412 0.80453 0.4564 0.0
C39 C 0.76206 0.78422 0.4143 0.0
Zn40 Zn 0.23357 0.01415 0.52731 0.0
Zn41 Zn 0.21873 0.01353 0.35106 0.0
C42 C 0.27393 0.02488 0.59294 0.0
O43 O 0.26215 0.00532 0.61943 0.0
C44 C 0.17465 0.98018 0.36512 0.0
O45 O 0.173 0.99047 0.30858 0.0
O46 O 0.21953 0.00137 0.62354 0.0
O47 O 0.22456 0.03609 0.50048 0.0
O48 O 0.22023 0.04072 0.38441 0.0
C49 C 0.22093 0.0154 0.66905 0.0
O50 O 0.23021 0.03571 0.64877 0.0
O51 O 0.26523 0.03231 0.55036 0.0
C52 C 0.21211 0.99641 0.20557 0.0
O53 O 0.21304 0.98049 0.23777 0.0
O54 O 0.21412 0.01219 0.24336 0.0
O55 O 0.24577 0.01201 0.36466 0.0
O56 O 0.23186 0.99083 0.45944 0.0
O57 O 0.19292 0.98742 0.39574 0.0
C58 C 0.22086 0.04605 0.45041 0.0
C59 C 0.24438 0.99692 0.40467 0.0
Zn60 Zn 0.01052 0.81113 0.60835 0.0
Zn61 Zn 0.01597 0.79345 0.42722 0.0
C62 C 0.97847 0.82318 0.58819 0.0
O63 O 0.9897 0.83643 0.64098 0.0
C64 C 0.04628 0.78446 0.35199 0.0
O65 O 0.04987 0.80135 0.31307 0.0
O66 O 0.00986 0.81662 0.71585 0.0
O67 O 0.00736 0.78165 0.60378 0.0
O68 O 0.99227 0.77252 0.49512 0.0
C69 C 0.99449 0.8027 0.75475 0.0
O70 O 0.97902 0.78529 0.72358 0.0
O71 O 0.9847 0.81076 0.56181 0.0
C72 C 0.00963 0.8122 0.29525 0.0
O73 O 0.02397 0.83051 0.325 0.0
O74 O 0.00302 0.79474 0.33069 0.0
O75 O 0.03858 0.82367 0.45845 0.0
O76 O 0.03826 0.83534 0.56971 0.0
O77 O 0.03275 0.77842 0.40397 0.0
C78 C 0.99538 0.7673 0.55821 0.0
C79 C 0.04679 0.83821 0.50719 0.0
Zn80 Zn 0.22244 0.21894 0.62966 0.0
Zn81 Zn 0.23984 0.24276 0.45175 0.0
C82 C 0.21071 0.17544 0.6028 0.0
O83 O 0.19685 0.17304 0.65394 0.0
C84 C 0.24982 0.2822 0.37524 0.0
O85 O 0.23382 0.26872 0.33352 0.0
O86 O 0.21737 0.2123 0.73708 0.0
O87 O 0.25044 0.24676 0.6245 0.0
O88 O 0.26066 0.23966 0.52016 0.0
C89 C 0.23239 0.21329 0.77678 0.0
O90 O 0.25088 0.21803 0.74652 0.0
O91 O 0.2239 0.19438 0.5803 0.0
C92 C 0.22152 0.21903 0.31713 0.0
O93 O 0.20339 0.21627 0.34478 0.0
O94 O 0.23872 0.22871 0.35465 0.0
O95 O 0.20928 0.23479 0.48284 0.0
O96 O 0.19768 0.22123 0.59274 0.0
O97 O 0.25502 0.27484 0.42978 0.0
C98 C 0.2653 0.249 0.58173 0.0
C99 C 0.19469 0.22756 0.53171 0.0
Zn100 Zn 0.81645 0.02297 0.61295 0.0
Zn101 Zn 0.79424 0.01743 0.43243 0.0
C102 C 0.85277 0.05213 0.51582 0.0
O103 O 0.85089 0.03471 0.48493 0.0
C104 C 0.75531 0.98582 0.35859 0.0
O105 O 0.76886 0.98306 0.31801 0.0
O106 O 0.82311 0.02451 0.72046 0.0
O107 O 0.78859 0.0232 0.6078 0.0
O108 O 0.7954 0.04008 0.50228 0.0
C109 C 0.82263 0.03912 0.75862 0.0
O110 O 0.81859 0.05311 0.72643 0.0
O111 O 0.84011 0.05029 0.56737 0.0
C112 C 0.8198 0.02543 0.30033 0.0
O113 O 0.82549 0.0125 0.33137 0.0
O114 O 0.80785 0.03081 0.3352 0.0
O115 O 0.80299 0.9956 0.46256 0.0
O116 O 0.81508 0.99617 0.57381 0.0
O117 O 0.76257 0.99939 0.41041 0.0
C118 C 0.78584 0.03524 0.56357 0.0
C119 C 0.8098 0.98777 0.51099 0.0
Zn120 Zn 0.67025 0.56803 0.91358 0.0
Zn121 Zn 0.68478 0.55054 0.72588 0.0
C122 C 0.63968 0.57312 0.00998 0.0
O123 O 0.64098 0.55965 0.05536 0.0
C124 C 0.71521 0.53543 0.73886 0.0
O125 O 0.70407 0.52313 0.68403 0.0
O126 O 0.68676 0.56747 0.00249 0.0
O127 O 0.6509 0.53852 0.87262 0.0
O128 O 0.65603 0.52718 0.76607 0.0
C129 C 0.67955 0.55005 0.03873 0.0
O130 O 0.6633 0.5323 0.0123 0.0
O131 O 0.65011 0.57787 0.95046 0.0
C132 C 0.69953 0.55864 0.57751 0.0
O133 O 0.71593 0.57545 0.60797 0.0
O134 O 0.6841 0.54523 0.61745 0.0
O135 O 0.69286 0.58191 0.73333 0.0
O136 O 0.68783 0.59182 0.84285 0.0
O137 O 0.70938 0.54785 0.76779 0.0
C138 C 0.64507 0.52408 0.8239 0.0
C139 C 0.69474 0.59635 0.77792 0.0
Zn140 Zn 0.45566 0.11379 0.89059 0.0
Zn141 Zn 0.47342 0.14956 0.70699 0.0
C142 C 0.44944 0.07683 0.98111 0.0
O143 O 0.46479 0.09106 0.02319 0.0
C144 C 0.49023 0.19557 0.7193 0.0
O145 O 0.50142 0.1961 0.6619 0.0
O146 O 0.45756 0.13098 0.98109 0.0
O147 O 0.48467 0.12272 0.84785 0.0
O148 O 0.49551 0.14222 0.74635 0.0
C149 C 0.47472 0.13931 0.01911 0.0
O150 O 0.49163 0.13871 0.99418 0.0
O151 O 0.44395 0.08314 0.92467 0.0
C152 C 0.46572 0.15556 0.5564 0.0
O153 O 0.44886 0.15553 0.58486 0.0
O154 O 0.47885 0.15369 0.59822 0.0
O155 O 0.44174 0.12727 0.71499 0.0
O156 O 0.43262 0.10984 0.82053 0.0
O157 O 0.47778 0.17752 0.74949 0.0
C158 C 0.49866 0.13238 0.79838 0.0
C159 C 0.4276 0.11386 0.75862 0.0
Zn160 Zn 0.90448 0.36128 0.92633 0.0
Zn161 Zn 0.87148 0.34571 0.74158 0.0
C162 C 0.9429 0.37158 0.0004 0.0
O163 O 0.93272 0.35037 0.00284 0.0
C164 C 0.82622 0.314 0.7527 0.0
O165 O 0.8251 0.32367 0.69355 0.0
O166 O 0.88603 0.34491 0.01287 0.0
O167 O 0.89502 0.38123 0.88483 0.0
O168 O 0.8776 0.37482 0.7797 0.0
C169 C 0.8841 0.35726 0.05833 0.0
O170 O 0.89224 0.37773 0.0415 0.0
O171 O 0.93371 0.38081 0.97007 0.0
C172 C 0.86454 0.33104 0.59201 0.0
O173 O 0.86418 0.31407 0.62095 0.0
O174 O 0.86704 0.34642 0.63319 0.0
O175 O 0.89442 0.33737 0.74928 0.0
O176 O 0.91076 0.34338 0.85646 0.0
O177 O 0.84424 0.32132 0.78506 0.0
C178 C 0.88617 0.38656 0.83545 0.0
C179 C 0.90755 0.3359 0.79214 0.0
Zn180 Zn 0.67102 0.13525 0.97014 0.0
Zn181 Zn 0.67667 0.1205 0.79098 0.0
C182 C 0.64233 0.14365 0.87772 0.0
O183 O 0.66008 0.16055 0.85434 0.0
C184 C 0.69147 0.09606 0.70624 0.0
O185 O 0.67431 0.09134 0.6672 0.0
O186 O 0.66892 0.13945 0.07733 0.0
O187 O 0.6731 0.10848 0.96112 0.0
O188 O 0.65426 0.09786 0.85973 0.0
C189 C 0.65399 0.12501 0.11625 0.0
O190 O 0.63925 0.10708 0.08539 0.0
O191 O 0.64357 0.1311 0.924 0.0
C192 C 0.67576 0.136 0.65201 0.0
O193 O 0.69611 0.14798 0.67053 0.0
O194 O 0.66268 0.12232 0.69754 0.0
O195 O 0.69763 0.15153 0.8225 0.0
O196 O 0.69693 0.16175 0.93544 0.0
O197 O 0.69568 0.10807 0.762 0.0
C198 C 0.65947 0.09345 0.92084 0.0
C199 C 0.70504 0.16581 0.87223 0.0
Zn200 Zn 0.89702 0.56746 0.9366 0.0
Zn201 Zn 0.90535 0.5712 0.77039 0.0
C202 C 0.88135 0.52192 0.93413 0.0
O203 O 0.86989 0.52267 0.98869 0.0
C204 C 0.93034 0.6127 0.71028 0.0
O205 O 0.93949 0.60238 0.68208 0.0
O206 O 0.89478 0.56581 0.04572 0.0
O207 O 0.92578 0.59223 0.91284 0.0
O208 O 0.93012 0.5724 0.83102 0.0
C209 C 0.90771 0.56264 0.08411 0.0
O210 O 0.9231 0.56079 0.05185 0.0
O211 O 0.89412 0.53928 0.90092 0.0
C212 C 0.89271 0.56168 0.62561 0.0
O213 O 0.87971 0.56812 0.65119 0.0
O214 O 0.90593 0.56048 0.66896 0.0
O215 O 0.87309 0.55491 0.79797 0.0
O216 O 0.87286 0.57066 0.90043 0.0
O217 O 0.91457 0.60273 0.75395 0.0
C218 C 0.9381 0.58744 0.8782 0.0
C219 C 0.86323 0.56022 0.84385 0.0
Zn220 Zn 0.46809 0.35021 0.9394 0.0
Zn221 Zn 0.46275 0.35424 0.77314 0.0
C222 C 0.51331 0.38186 0.93354 0.0
O223 O 0.51357 0.37107 0.99092 0.0
C224 C 0.41939 0.33884 0.73625 0.0
O225 O 0.42769 0.35976 0.72791 0.0
O226 O 0.47068 0.34997 0.04818 0.0
O227 O 0.44277 0.35364 0.91964 0.0
O228 O 0.46153 0.37756 0.83581 0.0
C229 C 0.4729 0.36577 0.08645 0.0
O230 O 0.47344 0.38241 0.05413 0.0
O231 O 0.49559 0.37569 0.90041 0.0
C232 C 0.47101 0.35121 0.62786 0.0
O233 O 0.46474 0.33179 0.65333 0.0
O234 O 0.47236 0.36565 0.67149 0.0
O235 O 0.47937 0.3384 0.7979 0.0
O236 O 0.46486 0.32288 0.9023 0.0
O237 O 0.43149 0.33161 0.75749 0.0
C238 C 0.44684 0.37044 0.88426 0.0
C239 C 0.47445 0.32333 0.84392 0.0
Zn240 Zn 0.34061 0.89291 0.24257 0.0
Zn241 Zn 0.3449 0.87804 0.06459 0.0
C242 C 0.33188 0.92747 0.27346 0.0
O243 O 0.35296 0.9393 0.26821 0.0
C244 C 0.37627 0.86503 0.08448 0.0
O245 O 0.36394 0.85068 0.03589 0.0
O246 O 0.35287 0.89153 0.33897 0.0
O247 O 0.3189 0.86194 0.21481 0.0
O248 O 0.31782 0.85277 0.09951 0.0
C249 C 0.33897 0.87905 0.38497 0.0
O250 O 0.31858 0.86813 0.36566 0.0
O251 O 0.32287 0.90718 0.26395 0.0
C252 C 0.36151 0.8865 0.91866 0.0
O253 O 0.3779 0.90338 0.94891 0.0
O254 O 0.3457 0.8735 0.9579 0.0
O255 O 0.34714 0.90696 0.07471 0.0
O256 O 0.36523 0.91363 0.17694 0.0
O257 O 0.37097 0.87845 0.10814 0.0
C258 C 0.31052 0.84824 0.16371 0.0
C259 C 0.36165 0.92023 0.11726 0.0
Zn260 Zn 0.13344 0.4699 0.21988 0.0
Zn261 Zn 0.14143 0.4734 0.05419 0.0
C262 C 0.10526 0.42825 0.26727 0.0
O263 O 0.09604 0.43926 0.28863 0.0
C264 C 0.15774 0.51971 0.06058 0.0
O265 O 0.16976 0.52025 0.00571 0.0
O266 O 0.13294 0.4798 0.32233 0.0
O267 O 0.16555 0.48561 0.19268 0.0
O268 O 0.16467 0.46865 0.09195 0.0
C269 C 0.14553 0.47748 0.36542 0.0
O270 O 0.15786 0.47029 0.33923 0.0
O271 O 0.123 0.43807 0.2326 0.0
C272 C 0.13195 0.47942 0.90685 0.0
O273 O 0.11707 0.48217 0.93881 0.0
O274 O 0.14422 0.47536 0.94547 0.0
O275 O 0.1118 0.44972 0.07698 0.0
O276 O 0.10932 0.4702 0.16095 0.0
O277 O 0.14506 0.50172 0.09055 0.0
C278 C 0.17466 0.47904 0.1482 0.0
C279 C 0.10031 0.45497 0.11477 0.0
Zn280 Zn 0.5619 0.68421 0.25059 0.0
Zn281 Zn 0.55689 0.68803 0.08578 0.0
C282 C 0.60409 0.69907 0.30064 0.0
O283 O 0.5934 0.67995 0.33125 0.0
C284 C 0.51066 0.65811 0.08872 0.0
O285 O 0.5109 0.66905 0.03105 0.0
O286 O 0.5523 0.67416 0.3531 0.0
O287 O 0.54624 0.70081 0.22514 0.0
O288 O 0.56322 0.71649 0.12426 0.0
C289 C 0.55474 0.68902 0.39668 0.0
O290 O 0.56219 0.70866 0.3713 0.0
O291 O 0.59398 0.70537 0.25973 0.0
C292 C 0.55109 0.67347 0.93761 0.0
O293 O 0.54879 0.6558 0.96794 0.0
O294 O 0.55471 0.68943 0.97757 0.0
O295 O 0.57948 0.68028 0.10387 0.0
O296 O 0.56014 0.65892 0.19296 0.0
O297 O 0.5282 0.66383 0.12255 0.0
C298 C 0.55298 0.71643 0.18046 0.0
C299 C 0.57345 0.66327 0.14096 0.0
Zn300 Zn 0.34889 0.48152 0.2973 0.0
Zn301 Zn 0.35278 0.46989 0.1151 0.0
C302 C 0.31846 0.49525 0.27187 0.0
O303 O 0.33073 0.50958 0.32064 0.0
C304 C 0.36225 0.43947 0.05001 0.0
O305 O 0.3411 0.4287 0.04517 0.0
O306 O 0.34677 0.4852 0.40457 0.0
O307 O 0.34726 0.45291 0.28475 0.0
O308 O 0.33011 0.44612 0.18004 0.0
C309 C 0.33076 0.47202 0.44275 0.0
O310 O 0.3147 0.45508 0.41149 0.0
O311 O 0.32336 0.48135 0.25035 0.0
C312 C 0.35189 0.48589 0.97753 0.0
O313 O 0.3722 0.49805 0.99631 0.0
O314 O 0.33884 0.47211 0.02281 0.0
O315 O 0.37417 0.50045 0.14864 0.0
O316 O 0.3762 0.50735 0.26636 0.0
O317 O 0.37144 0.45795 0.08004 0.0
C318 C 0.33383 0.43951 0.23963 0.0
C319 C 0.38291 0.51319 0.20204 0.0
Zn320 Zn 0.5554 0.89234 0.29725 0.0
Zn321 Zn 0.56466 0.89762 0.13072 0.0
C322 C 0.53852 0.84609 0.28832 0.0
O323 O 0.52632 0.84566 0.34243 0.0
C324 C 0.59414 0.94086 0.09552 0.0
O325 O 0.60621 0.93191 0.08859 0.0
O326 O 0.55127 0.8893 0.40519 0.0
O327 O 0.58557 0.91555 0.28118 0.0
O328 O 0.58847 0.897 0.19109 0.0
C329 C 0.56361 0.88552 0.44444 0.0
O330 O 0.57913 0.88363 0.41342 0.0
O331 O 0.55156 0.86409 0.25901 0.0
C332 C 0.55305 0.88965 0.98553 0.0
O333 O 0.54058 0.8968 0.01063 0.0
O334 O 0.56571 0.88768 0.02927 0.0
O335 O 0.5324 0.88173 0.15655 0.0
O336 O 0.53318 0.89835 0.25793 0.0
O337 O 0.57461 0.92927 0.11567 0.0
C338 C 0.59708 0.9104 0.2431 0.0
C339 C 0.52327 0.8882 0.20127 0.0
Zn340 Zn 0.13477 0.67438 0.27897 0.0
Zn341 Zn 0.1313 0.67893 0.10976 0.0
C342 C 0.18059 0.70479 0.27507 0.0
O343 O 0.18055 0.69383 0.33243 0.0
C344 C 0.09072 0.66677 0.05543 0.0
O345 O 0.10155 0.6878 0.04582 0.0
O346 O 0.13725 0.67382 0.38777 0.0
O347 O 0.1112 0.6806 0.25889 0.0
O348 O 0.13039 0.7026 0.17079 0.0
C349 C 0.14051 0.68999 0.42604 0.0
O350 O 0.14189 0.70703 0.39379 0.0
O351 O 0.163 0.69898 0.24158 0.0
C352 C 0.14214 0.67651 0.96651 0.0
O353 O 0.1352 0.65688 0.99118 0.0
O354 O 0.14319 0.69082 0.01013 0.0
O355 O 0.14618 0.66181 0.13881 0.0
O356 O 0.12982 0.64632 0.24111 0.0
O357 O 0.10008 0.65778 0.08641 0.0
C358 C 0.11645 0.69737 0.22135 0.0
C359 C 0.13994 0.64645 0.18443 0.0
H360 H 0.07179 0.40551 0.35987 0.0
H361 H 0.06104 0.29071 0.28349 0.0
H362 H 0.11554 0.3982 0.21663 0.0
H363 H 0.03209 0.30446 0.46688 0.0
H364 H 0.07926 0.32907 0.25034 0.0
H365 H 0.05493 0.36746 0.39112 0.0
C366 C 0.07786 0.39588 0.33482 0.0
C367 C 0.09514 0.40508 0.28558 0.0
C368 C 0.06897 0.32363 0.29793 0.0
C369 C 0.07577 0.36128 0.32126 0.0
C370 C 0.05852 0.30175 0.3168 0.0
C371 C 0.04497 0.29431 0.37806 0.0
C372 C 0.06563 0.33807 0.34012 0.0
C373 C 0.04237 0.30938 0.41929 0.0
C374 C 0.06825 0.37413 0.35297 0.0
C375 C 0.1023 0.39176 0.25505 0.0
N376 N 0.0525 0.33046 0.39934 0.0
N377 N 0.09251 0.37045 0.27319 0.0
H378 H 0.72854 0.76543 0.51003 0.0
H379 H 0.63495 0.73224 0.21803 0.0
H380 H 0.74249 0.77643 0.28064 0.0
H381 H 0.62609 0.69733 0.41823 0.0
H382 H 0.6738 0.75391 0.24478 0.0
H383 H 0.68997 0.74566 0.48192 0.0
C384 C 0.72348 0.76378 0.45376 0.0
C385 C 0.73873 0.77251 0.39755 0.0
C386 C 0.66326 0.7415 0.28267 0.0
C387 C 0.69465 0.75013 0.36519 0.0
C388 C 0.64115 0.72925 0.26768 0.0
C389 C 0.62735 0.71294 0.31588 0.0
C390 C 0.67141 0.73768 0.34699 0.0
C391 C 0.63619 0.70963 0.37934 0.0
C392 C 0.70149 0.75244 0.43779 0.0
C393 C 0.73125 0.76981 0.32555 0.0
N394 N 0.65761 0.72197 0.39326 0.0
N395 N 0.7097 0.75894 0.31137 0.0
H396 H 0.23855 0.9582 0.45473 0.0
H397 H 0.34379 0.97009 0.26251 0.0
H398 H 0.27893 0.01141 0.31296 0.0
H399 H 0.29051 0.90819 0.32627 0.0
H400 H 0.32239 0.98692 0.29469 0.0
H401 H 0.25963 0.94094 0.42225 0.0
C402 C 0.25186 0.96627 0.41693 0.0
C403 C 0.25696 0.98626 0.38635 0.0
C404 C 0.31537 0.96964 0.30144 0.0
C405 C 0.28119 0.96672 0.34965 0.0
C406 C 0.32759 0.96004 0.28334 0.0
C407 C 0.3189 0.9377 0.29161 0.0
C408 C 0.29443 0.95689 0.3292 0.0
C409 C 0.29779 0.92546 0.31867 0.0
C410 C 0.2638 0.95638 0.39824 0.0
C411 C 0.27436 0.99596 0.33757 0.0
N412 N 0.28631 0.93524 0.33699 0.0
N413 N 0.28592 0.98617 0.32108 0.0
H414 H 0.30442 0.06406 0.53747 0.0
H415 H 0.39411 0.07971 0.82798 0.0
H416 H 0.29536 0.01653 0.69933 0.0
H417 H 0.40884 0.11952 0.63621 0.0
H418 H 0.35688 0.0584 0.78721 0.0
H419 H 0.34188 0.08636 0.57775 0.0
C420 C 0.3103 0.0583 0.58138 0.0
C421 C 0.29674 0.03838 0.61507 0.0
C422 C 0.36824 0.0718 0.75401 0.0
C423 C 0.33945 0.06388 0.66165 0.0
C424 C 0.38953 0.08407 0.7774 0.0
C425 C 0.40473 0.10147 0.73541 0.0
C426 C 0.36193 0.07697 0.68831 0.0
C427 C 0.39773 0.10624 0.67026 0.0
C428 C 0.33168 0.07103 0.60424 0.0
C429 C 0.30523 0.03172 0.67162 0.0
N430 N 0.37682 0.09406 0.64873 0.0
N431 N 0.32599 0.04447 0.69329 0.0
H432 H 0.90109 0.31264 0.66668 0.0
H433 H 0.0016 0.29493 0.7296 0.0
H434 H 0.9412 0.33453 0.85849 0.0
H435 H 0.95324 0.26106 0.56502 0.0
H436 H 0.98067 0.31102 0.77411 0.0
H437 H 0.92104 0.2952 0.62489 0.0
C438 C 0.91408 0.3138 0.70009 0.0
C439 C 0.91944 0.32511 0.7663 0.0
C440 C 0.97458 0.30001 0.72844 0.0
C441 C 0.94242 0.30518 0.71843 0.0
C442 C 0.98655 0.29084 0.70285 0.0
C443 C 0.97919 0.27664 0.64335 0.0
C444 C 0.95517 0.29515 0.69391 0.0
C445 C 0.95952 0.27189 0.61108 0.0
C446 C 0.92542 0.30376 0.67622 0.0
C447 C 0.93643 0.32597 0.80721 0.0
N448 N 0.94825 0.28122 0.63651 0.0
N449 N 0.94736 0.31623 0.78246 0.0
H450 H 0.76675 0.71862 0.54968 0.0
H451 H 0.69555 0.63039 0.84908 0.0
H452 H 0.73228 0.72974 0.72137 0.0
H453 H 0.71654 0.6143 0.65038 0.0
H454 H 0.71146 0.66762 0.80737 0.0
H455 H 0.75084 0.68102 0.5896 0.0
C456 C 0.75583 0.71317 0.59569 0.0
C457 C 0.75084 0.72737 0.63224 0.0
C458 C 0.71258 0.65595 0.77283 0.0
C459 C 0.73272 0.68444 0.6784 0.0
C460 C 0.70356 0.63466 0.79673 0.0
C461 C 0.70469 0.6191 0.75323 0.0
C462 C 0.72301 0.66189 0.7051 0.0
C463 C 0.71523 0.62569 0.68574 0.0
C464 C 0.74673 0.6917 0.61833 0.0
C465 C 0.73657 0.71939 0.69143 0.0
N466 N 0.72404 0.64659 0.66385 0.0
N467 N 0.7281 0.69852 0.71281 0.0
H468 H 0.9789 0.73186 0.46979 0.0
H469 H 0.92784 0.64441 0.78688 0.0
H470 H 0.98652 0.75037 0.69598 0.0
H471 H 0.95047 0.6323 0.58455 0.0
H472 H 0.94256 0.68232 0.74992 0.0
H473 H 0.96149 0.69391 0.50679 0.0
C474 C 0.97677 0.72794 0.52719 0.0
C475 C 0.98423 0.7443 0.57988 0.0
C476 C 0.9442 0.67127 0.71376 0.0
C477 C 0.96414 0.70098 0.62239 0.0
C478 C 0.93575 0.6497 0.73459 0.0
C479 C 0.93808 0.6353 0.68883 0.0
C480 C 0.95454 0.67823 0.64611 0.0
C481 C 0.94851 0.64293 0.62174 0.0
C482 C 0.96692 0.70632 0.54821 0.0
C483 C 0.98112 0.73828 0.65356 0.0
N484 N 0.95625 0.66384 0.60223 0.0
N485 N 0.97121 0.71707 0.67269 0.0
H486 H 0.28156 0.28005 0.68638 0.0
H487 H 0.4002 0.29705 0.6873 0.0
H488 H 0.30054 0.24688 0.5331 0.0
H489 H 0.38667 0.34762 0.74425 0.0
H490 H 0.36232 0.27429 0.64986 0.0
H491 H 0.31895 0.30103 0.72745 0.0
C492 C 0.2936 0.27714 0.66147 0.0
C493 C 0.28797 0.26177 0.606 0.0
C494 C 0.36772 0.29036 0.6708 0.0
C495 C 0.33069 0.28552 0.65358 0.0
C496 C 0.3892 0.30324 0.69262 0.0
C497 C 0.39649 0.32421 0.7186 0.0
C498 C 0.35346 0.2984 0.67676 0.0
C499 C 0.38169 0.33158 0.72399 0.0
C500 C 0.31491 0.28916 0.68484 0.0
C501 C 0.30425 0.2587 0.57562 0.0
N502 N 0.36085 0.31865 0.70359 0.0
N503 N 0.32491 0.2704 0.60016 0.0
H504 H 0.69405 0.08029 0.57372 0.0
H505 H 0.77364 0.03934 0.70116 0.0
H506 H 0.72143 0.09258 0.78933 0.0
H507 H 0.7674 0.05259 0.47629 0.0
H508 H 0.75121 0.05481 0.73626 0.0
H509 H 0.71751 0.06604 0.53865 0.0
C510 C 0.70497 0.07996 0.61375 0.0
C511 C 0.70578 0.08763 0.68461 0.0
C512 C 0.75484 0.0544 0.6793 0.0
C513 C 0.73252 0.07117 0.64489 0.0
C514 C 0.76756 0.0455 0.65914 0.0
C515 C 0.77245 0.04473 0.58562 0.0
C516 C 0.74659 0.0622 0.62551 0.0
C517 C 0.76414 0.05298 0.53359 0.0
C518 C 0.71842 0.07192 0.59355 0.0
C519 C 0.72034 0.08691 0.73408 0.0
N520 N 0.75148 0.06122 0.55448 0.0
N521 N 0.73303 0.07866 0.71345 0.0
H522 H 0.62818 0.90626 0.16817 0.0
H523 H 0.72313 0.98735 0.43358 0.0
H524 H 0.61908 0.93714 0.35586 0.0
H525 H 0.73405 0.9569 0.24839 0.0
H526 H 0.68472 0.96822 0.40609 0.0
H527 H 0.6668 0.92381 0.1967 0.0
C528 C 0.63426 0.91664 0.21542 0.0
C529 C 0.62037 0.92026 0.25956 0.0
C530 C 0.69546 0.96565 0.37142 0.0
C531 C 0.66443 0.94036 0.29239 0.0
C532 C 0.71745 0.97659 0.38714 0.0
C533 C 0.73188 0.97377 0.34316 0.0
C534 C 0.68773 0.95176 0.31111 0.0
C535 C 0.72352 0.95958 0.28376 0.0
C536 C 0.6563 0.92667 0.23162 0.0
C537 C 0.62915 0.93391 0.32003 0.0
N538 N 0.70198 0.94913 0.26933 0.0
N539 N 0.65056 0.94345 0.3345 0.0
H540 H 0.04241 0.74883 0.42118 0.0
H541 H 0.12206 0.73388 0.15113 0.0
H542 H 0.0751 0.7919 0.24178 0.0
H543 H 0.08879 0.69182 0.33221 0.0
H544 H 0.10555 0.75571 0.18301 0.0
H545 H 0.05987 0.72815 0.38925 0.0
C546 C 0.05331 0.75398 0.37512 0.0
C547 C 0.05727 0.77214 0.33409 0.0
C548 C 0.10191 0.7417 0.2157 0.0
C549 C 0.07735 0.74841 0.29693 0.0
C550 C 0.11133 0.72924 0.19754 0.0
C551 C 0.10681 0.71096 0.23896 0.0
C552 C 0.08789 0.73583 0.27571 0.0
C553 C 0.09274 0.70571 0.29848 0.0
C554 C 0.06328 0.74214 0.35683 0.0
C555 C 0.07157 0.77801 0.27496 0.0
N556 N 0.08382 0.71806 0.31495 0.0
N557 N 0.08107 0.76617 0.25807 0.0
H558 H 0.30278 0.40613 0.15896 0.0
H559 H 0.28292 0.31499 0.45189 0.0
H560 H 0.33651 0.41973 0.3639 0.0
H561 H 0.24485 0.30264 0.25718 0.0
H562 H 0.30343 0.35324 0.41917 0.0
H563 H 0.28223 0.36798 0.19229 0.0
C564 C 0.30589 0.40113 0.21096 0.0
C565 C 0.32142 0.41624 0.25868 0.0
C566 C 0.29056 0.34217 0.38367 0.0
C567 C 0.29789 0.37245 0.29722 0.0
C568 C 0.27883 0.32031 0.40234 0.0
C569 C 0.26211 0.30554 0.35726 0.0
C570 C 0.28562 0.34936 0.31927 0.0
C571 C 0.25757 0.31341 0.29369 0.0
C572 C 0.29411 0.37931 0.23 0.0
C573 C 0.32473 0.40871 0.3253 0.0
N574 N 0.26927 0.33473 0.27655 0.0
N575 N 0.31309 0.38738 0.34252 0.0
H576 H 0.96729 0.41547 0.02079 0.0
H577 H 0.07607 0.41337 0.07115 0.0
H578 H 0.96958 0.35652 0.04109 0.0
H579 H 0.07082 0.4682 0.14054 0.0
H580 H 0.03719 0.39303 0.05198 0.0
H581 H 0.00532 0.43599 0.05769 0.0
C582 C 0.97573 0.40685 0.03341 0.0
C583 C 0.9653 0.38426 0.02739 0.0
C584 C 0.04447 0.40946 0.07182 0.0
C585 C 0.00867 0.40758 0.06881 0.0
C586 C 0.06668 0.42113 0.08237 0.0
C587 C 0.07665 0.44254 0.10694 0.0
C588 C 0.03209 0.41936 0.0846 0.0
C589 C 0.06369 0.45171 0.1215 0.0
C590 C 0.99737 0.41855 0.05469 0.0
C591 C 0.97696 0.3739 0.04477 0.0
N592 N 0.04203 0.44014 0.10921 0.0
N593 N 0.99806 0.38565 0.06389 0.0
H594 H 0.61773 0.56999 0.13676 0.0
H595 H 0.59471 0.66404 0.01747 0.0
H596 H 0.63389 0.60143 0.92721 0.0
H597 H 0.57047 0.62887 0.2185 0.0
H598 H 0.60888 0.64063 0.98497 0.0
H599 H 0.59984 0.59053 0.16888 0.0
C600 C 0.6174 0.58107 0.09736 0.0
C601 C 0.62746 0.58408 0.02934 0.0
C602 C 0.60042 0.6379 0.03617 0.0
C603 C 0.60716 0.60762 0.06582 0.0
C604 C 0.59236 0.65135 0.05495 0.0
C605 C 0.58147 0.64849 0.12105 0.0
C606 C 0.59778 0.62145 0.08394 0.0
C607 C 0.57878 0.63163 0.16699 0.0
C608 C 0.6072 0.59278 0.11577 0.0
C609 C 0.62649 0.59863 0.98043 0.0
N610 N 0.58701 0.61879 0.14777 0.0
N611 N 0.61666 0.60989 0.99979 0.0
H612 H 0.45476 0.05739 0.10192 0.0
H613 H 0.35897 0.93964 0.99254 0.0
H614 H 0.41727 0.04338 0.90497 0.0
H615 H 0.39499 0.9531 0.19265 0.0
H616 H 0.38102 0.97751 0.95834 0.0
H617 H 0.43398 0.01913 0.1347 0.0
C618 C 0.44224 0.04628 0.06542 0.0
C619 C 0.43774 0.05364 0.00066 0.0
C620 C 0.38413 0.9722 0.00974 0.0
C621 C 0.41386 0.00986 0.03794 0.0
C622 C 0.37151 0.95055 0.02936 0.0
C623 C 0.37506 0.94316 0.09574 0.0
C624 C 0.40045 0.98665 0.05675 0.0
C625 C 0.39162 0.95808 0.14105 0.0
C626 C 0.43036 0.02444 0.08423 0.0
C627 C 0.42131 0.03849 0.95551 0.0
N628 N 0.40368 0.97911 0.12077 0.0
N629 N 0.40997 0.01737 0.97508 0.0
H630 H 0.62115 0.05868 0.87648 0.0
H631 H 0.63614 0.97261 0.10118 0.0
H632 H 0.67397 0.07702 0.02603 0.0
H633 H 0.57275 0.96107 0.04436 0.0
H634 H 0.65156 0.01002 0.06057 0.0
H635 H 0.60425 0.02159 0.92347 0.0
C636 C 0.62921 0.0549 0.91895 0.0
C637 C 0.64901 0.07093 0.94735 0.0
C638 C 0.63426 0.99934 0.05746 0.0
C639 C 0.62991 0.0287 0.00058 0.0
C640 C 0.62546 0.97802 0.08044 0.0
C641 C 0.60316 0.9638 0.0762 0.0
C642 C 0.62072 0.0064 0.02845 0.0
C643 C 0.59003 0.97161 0.04898 0.0
C644 C 0.6195 0.03381 0.94599 0.0
C645 C 0.65869 0.06518 0.00268 0.0
N646 N 0.59905 0.99238 0.02524 0.0
N647 N 0.64914 0.04451 0.02702 0.0
H648 H 0.06599 0.62276 0.03487 0.0
H649 H 0.96147 0.62861 0.92514 0.0
H650 H 0.06471 0.68219 0.01227 0.0
H651 H 0.96731 0.57297 0.87252 0.0
H652 H 0.9988 0.64747 0.96575 0.0
H653 H 0.02917 0.60298 0.9849 0.0
C654 C 0.05795 0.63161 0.01974 0.0
C655 C 0.06838 0.65414 0.02795 0.0
C656 C 0.99205 0.6312 0.94489 0.0
C657 C 0.02655 0.63174 0.97102 0.0
C658 C 0.97072 0.6204 0.92178 0.0
C659 C 0.96132 0.5992 0.8956 0.0
C660 C 0.00413 0.62066 0.94305 0.0
C661 C 0.97406 0.58937 0.89204 0.0
C662 C 0.03707 0.62036 0.99078 0.0
C663 C 0.05733 0.66484 0.00693 0.0
N664 N 0.99484 0.60012 0.91637 0.0
N665 N 0.03704 0.65355 0.97987 0.0
H666 H 0.40596 0.45979 0.02549 0.0
H667 H 0.40548 0.35117 0.93131 0.0
H668 H 0.34766 0.39795 0.00651 0.0
H669 H 0.45894 0.41342 0.87217 0.0
H670 H 0.3848 0.36838 0.9661 0.0
H671 H 0.42658 0.44357 0.97703 0.0
C672 C 0.39751 0.44282 0.01118 0.0
C673 C 0.37506 0.43017 0.0204 0.0
C674 C 0.40099 0.37832 0.94508 0.0
C675 C 0.39852 0.4116 0.96528 0.0
C676 C 0.41284 0.36851 0.92547 0.0
C677 C 0.43398 0.38094 0.89929 0.0
C678 C 0.41044 0.40082 0.93984 0.0
C679 C 0.44265 0.4033 0.89205 0.0
C680 C 0.40926 0.43364 0.98314 0.0
C681 C 0.36492 0.40832 0.00045 0.0
N682 N 0.43092 0.41262 0.91316 0.0
N683 N 0.37674 0.39971 0.97441 0.0
H684 H 0.07058 0.22064 0.57232 0.0
H685 H 0.18021 0.2355 0.40362 0.0
H686 H 0.08278 0.22277 0.34168 0.0
H687 H 0.1615 0.21733 0.62725 0.0
H688 H 0.14554 0.23335 0.38149 0.0
H689 H 0.10475 0.22155 0.59522 0.0
C690 C 0.08037 0.22121 0.52653 0.0
C691 C 0.07379 0.22163 0.455 0.0
C692 C 0.14901 0.22977 0.43535 0.0
C693 C 0.11296 0.2229 0.4808 0.0
C694 C 0.16884 0.23104 0.4481 0.0
C695 C 0.17381 0.22652 0.51738 0.0
C696 C 0.13408 0.22416 0.49241 0.0
C697 C 0.15839 0.2209 0.5729 0.0
C698 C 0.09986 0.22172 0.53963 0.0
C699 C 0.08715 0.22237 0.39775 0.0
N700 N 0.13927 0.21995 0.55927 0.0
N701 N 0.10613 0.22311 0.41191 0.0
H702 H 0.80995 0.97165 0.37642 0.0
H703 H 0.80311 0.86293 0.50794 0.0
H704 H 0.81311 0.95961 0.60483 0.0
H705 H 0.83345 0.89421 0.30617 0.0
H706 H 0.80132 0.89523 0.54287 0.0
H707 H 0.81288 0.93994 0.34729 0.0
C708 C 0.81129 0.96238 0.42053 0.0
C709 C 0.81147 0.96845 0.49323 0.0
C710 C 0.80846 0.89496 0.49121 0.0
C711 C 0.81443 0.93184 0.46002 0.0
C712 C 0.80942 0.87658 0.47117 0.0
C713 C 0.81846 0.87592 0.4041 0.0
C714 C 0.81612 0.9125 0.44302 0.0
C715 C 0.82644 0.89405 0.35851 0.0
C716 C 0.813 0.94429 0.40378 0.0
C717 C 0.81308 0.95563 0.54803 0.0
N718 N 0.82488 0.91149 0.37847 0.0
N719 N 0.81434 0.93779 0.53034 0.0
H720 H 0.07372 0.87059 0.60088 0.0
H721 H 0.13859 0.95417 0.28671 0.0
H722 H 0.06479 0.85331 0.37343 0.0
H723 H 0.16788 0.95914 0.49617 0.0
H724 H 0.10798 0.91953 0.32311 0.0
H725 H 0.10539 0.90537 0.5687 0.0
C726 C 0.07836 0.87407 0.54429 0.0
C727 C 0.06643 0.85902 0.48972 0.0
C728 C 0.12111 0.9282 0.36112 0.0
C729 C 0.10235 0.89878 0.45285 0.0
C730 C 0.13853 0.94804 0.34061 0.0
C731 C 0.15582 0.95955 0.3885 0.0
C732 C 0.12072 0.91992 0.43055 0.0
C733 C 0.1549 0.95072 0.45754 0.0
C734 C 0.09646 0.89387 0.52612 0.0
C735 C 0.07333 0.86439 0.41735 0.0
N736 N 0.13753 0.93145 0.4768 0.0
N737 N 0.09067 0.88388 0.40102 0.0
H738 H 0.23202 0.17244 0.48251 0.0
H739 H 0.20861 0.05426 0.58142 0.0
H740 H 0.19132 0.13502 0.66112 0.0
H741 H 0.22707 0.08022 0.36474 0.0
H742 H 0.20557 0.08558 0.61563 0.0
H743 H 0.23365 0.14054 0.4418 0.0
C744 C 0.22341 0.15754 0.51303 0.0
C745 C 0.21153 0.1564 0.57537 0.0
C746 C 0.2102 0.08441 0.56049 0.0
C747 C 0.21352 0.12007 0.52963 0.0
C748 C 0.21205 0.06657 0.541 0.0
C749 C 0.21817 0.06464 0.47017 0.0
C750 C 0.21481 0.10068 0.50917 0.0
C751 C 0.22223 0.08104 0.41988 0.0
C752 C 0.22429 0.13936 0.48964 0.0
C753 C 0.20064 0.13667 0.61272 0.0
N754 N 0.22066 0.0985 0.44051 0.0
N755 N 0.20204 0.11938 0.58962 0.0
H756 H 0.88453 0.06281 0.41302 0.0
H757 H 0.94667 0.18769 0.52432 0.0
H758 H 0.8613 0.09108 0.57099 0.0
H759 H 0.9692 0.16211 0.35438 0.0
H760 H 0.91462 0.15238 0.5378 0.0
H761 H 0.91486 0.09891 0.38626 0.0
C762 C 0.88571 0.07658 0.44176 0.0
C763 C 0.87042 0.07386 0.4948 0.0
C764 C 0.92649 0.15444 0.49724 0.0
C765 C 0.90507 0.11515 0.46456 0.0
C766 C 0.94487 0.17466 0.48952 0.0
C767 C 0.96079 0.17792 0.43834 0.0
C768 C 0.92391 0.13714 0.45389 0.0
C769 C 0.95738 0.16036 0.39461 0.0
C770 C 0.90303 0.09718 0.42644 0.0
C771 C 0.87274 0.09232 0.53005 0.0
N772 N 0.93938 0.14068 0.40372 0.0
N773 N 0.88977 0.11209 0.51459 0.0
H774 H 0.95563 0.83889 0.65803 0.0
H775 H 0.86317 0.80351 0.36072 0.0
H776 H 0.9543 0.80347 0.46611 0.0
H777 H 0.85402 0.81163 0.58805 0.0
H778 H 0.89888 0.8084 0.38974 0.0
H779 H 0.92074 0.83447 0.62369 0.0
C780 C 0.94808 0.83031 0.6083 0.0
C781 C 0.95788 0.82148 0.56496 0.0
C782 C 0.88895 0.80901 0.43308 0.0
C783 C 0.91789 0.81643 0.52528 0.0
C784 C 0.86865 0.8063 0.41663 0.0
C785 C 0.85554 0.80704 0.47216 0.0
C786 C 0.89633 0.81296 0.50524 0.0
C787 C 0.86344 0.81069 0.54364 0.0
C788 C 0.92809 0.8277 0.589 0.0
C789 C 0.94725 0.81045 0.50124 0.0
N790 N 0.88335 0.81367 0.55801 0.0
N791 N 0.92782 0.80829 0.48309 0.0
H792 H 0.83652 0.53658 0.73151 0.0
H793 H 0.7413 0.55755 0.85383 0.0
H794 H 0.83808 0.57056 0.92761 0.0
H795 H 0.73584 0.51622 0.67421 0.0
H796 H 0.77652 0.56185 0.88301 0.0
H797 H 0.79946 0.52845 0.71021 0.0
C798 C 0.82906 0.54226 0.77025 0.0
C799 C 0.84049 0.55435 0.83131 0.0
C800 C 0.76756 0.55171 0.83752 0.0
C801 C 0.79809 0.54516 0.80711 0.0
C802 C 0.74743 0.54924 0.82084 0.0
C803 C 0.73563 0.53659 0.76125 0.0
C804 C 0.77608 0.5416 0.79398 0.0
C805 C 0.74437 0.52616 0.72058 0.0
C806 C 0.80788 0.53758 0.75811 0.0
C807 C 0.82995 0.56124 0.87969 0.0
N808 N 0.76414 0.52904 0.73734 0.0
N809 N 0.80943 0.55665 0.86634 0.0
H810 H 0.49571 0.31905 0.72616 0.0
H811 H 0.47085 0.20089 0.83991 0.0
H812 H 0.46437 0.28776 0.92693 0.0
H813 H 0.50997 0.23539 0.65451 0.0
H814 H 0.46902 0.23296 0.87393 0.0
H815 H 0.50175 0.28896 0.69977 0.0
C816 C 0.4902 0.30594 0.76491 0.0
C817 C 0.47942 0.30592 0.82873 0.0
C818 C 0.47814 0.23358 0.82607 0.0
C819 C 0.4862 0.27136 0.79866 0.0
C820 C 0.47918 0.21526 0.80661 0.0
C821 C 0.49048 0.2154 0.74403 0.0
C822 C 0.48832 0.25217 0.78237 0.0
C823 C 0.50103 0.23452 0.70313 0.0
C824 C 0.49368 0.28876 0.74982 0.0
C825 C 0.47269 0.28848 0.87694 0.0
N826 N 0.49955 0.25207 0.72268 0.0
N827 N 0.47607 0.27188 0.86069 0.0
H828 H 0.71725 0.18524 0.7391 0.0
H829 H 0.82056 0.29204 0.88067 0.0
H830 H 0.73315 0.19662 0.96709 0.0
H831 H 0.7894 0.28846 0.67608 0.0
H832 H 0.79066 0.2561 0.91186 0.0
H833 H 0.7461 0.22188 0.71247 0.0
C834 C 0.72692 0.19537 0.78351 0.0
C835 C 0.72286 0.18779 0.85537 0.0
C836 C 0.79034 0.2633 0.86044 0.0
C837 C 0.75586 0.22984 0.8253 0.0
C838 C 0.80737 0.28378 0.84259 0.0
C839 C 0.80748 0.29325 0.77562 0.0
C840 C 0.77352 0.2521 0.81044 0.0
C841 C 0.78997 0.28182 0.72836 0.0
C842 C 0.74326 0.21636 0.76834 0.0
C843 C 0.73572 0.20182 0.9109 0.0
N844 N 0.77382 0.26177 0.74637 0.0
N845 N 0.75176 0.22214 0.89467 0.0
H846 H 0.86657 0.48608 0.0189 0.0
H847 H 0.88188 0.41182 0.7312 0.0
H848 H 0.8946 0.51116 0.80838 0.0
H849 H 0.88791 0.40679 0.9628 0.0
H850 H 0.88002 0.4449 0.75171 0.0
H851 H 0.86717 0.45296 0.99181 0.0
C852 C 0.87269 0.48455 0.96668 0.0
C853 C 0.88064 0.50144 0.91593 0.0
C854 C 0.88179 0.43648 0.79775 0.0
C855 C 0.88122 0.46348 0.88451 0.0
C856 C 0.88277 0.41762 0.78621 0.0
C857 C 0.88514 0.40657 0.8454 0.0
C858 C 0.88263 0.44392 0.869 0.0
C859 C 0.88626 0.41482 0.91553 0.0
C860 C 0.87312 0.46569 0.95147 0.0
C861 C 0.88845 0.49856 0.84918 0.0
N862 N 0.88482 0.43286 0.92539 0.0
N863 N 0.88848 0.47986 0.83518 0.0
H864 H 0.5226 0.40303 0.8022 0.0
H865 H 0.62393 0.50847 0.95246 0.0
H866 H 0.54873 0.40663 0.01651 0.0
H867 H 0.62109 0.49152 0.72572 0.0
H868 H 0.5923 0.4734 0.97576 0.0
H869 H 0.55504 0.43752 0.77146 0.0
C870 C 0.53516 0.41102 0.84259 0.0
C871 C 0.533 0.40198 0.91203 0.0
C872 C 0.59863 0.47734 0.92093 0.0
C873 C 0.56967 0.44135 0.87773 0.0
C874 C 0.61667 0.49741 0.90739 0.0
C875 C 0.62536 0.50295 0.83701 0.0
C876 C 0.58879 0.46275 0.86358 0.0
C877 C 0.61503 0.48787 0.78088 0.0
C878 C 0.55363 0.43059 0.82493 0.0
C879 C 0.54975 0.41295 0.96229 0.0
N880 N 0.59715 0.46846 0.79525 0.0
N881 N 0.56724 0.43216 0.94443 0.0
H882 H 0.63331 0.16731 0.78101 0.0
H883 H 0.50856 0.10822 0.88851 0.0
H884 H 0.6026 0.11252 0.9256 0.0
H885 H 0.53594 0.15648 0.71948 0.0
H886 H 0.54298 0.10941 0.90055 0.0
H887 H 0.59795 0.1633 0.75482 0.0
C888 C 0.61914 0.15434 0.80683 0.0
C889 C 0.62096 0.14034 0.85608 0.0
C890 C 0.54148 0.11967 0.86048 0.0
C891 C 0.5805 0.13576 0.82664 0.0
C892 C 0.52179 0.11905 0.85366 0.0
C893 C 0.51933 0.13236 0.80308 0.0
C894 C 0.55901 0.13384 0.81695 0.0
C895 C 0.53709 0.14595 0.75922 0.0
C896 C 0.59896 0.15207 0.79182 0.0
C897 C 0.60203 0.12377 0.88761 0.0
N898 N 0.55624 0.14645 0.76755 0.0
N899 N 0.58265 0.12207 0.87279 0.0
H900 H 0.50025 0.90246 0.27948 0.0
H901 H 0.39488 0.84263 0.02985 0.0
H902 H 0.49552 0.86388 0.09223 0.0
H903 H 0.40493 0.89138 0.18818 0.0
H904 H 0.43012 0.84722 0.06075 0.0
H905 H 0.46387 0.89569 0.25491 0.0
C906 C 0.49155 0.8925 0.23331 0.0
C907 C 0.50101 0.88375 0.18775 0.0
C908 C 0.42459 0.85687 0.08889 0.0
C909 C 0.45926 0.87592 0.15948 0.0
C910 C 0.40442 0.85421 0.0715 0.0
C911 C 0.39695 0.8667 0.10631 0.0
C912 C 0.43737 0.87205 0.14181 0.0
C913 C 0.41006 0.88146 0.15978 0.0
C914 C 0.47078 0.88868 0.21927 0.0
C915 C 0.48892 0.87099 0.12872 0.0
N916 N 0.42964 0.88374 0.17583 0.0
N917 N 0.46867 0.86745 0.11632 0.0
H918 H 0.12725 0.61005 0.26635 0.0
H919 H 0.17878 0.5598 0.99755 0.0
H920 H 0.16262 0.64202 0.07177 0.0
H921 H 0.13611 0.52464 0.17524 0.0
H922 H 0.17612 0.59147 0.03103 0.0
H923 H 0.13334 0.58003 0.2405 0.0
C924 C 0.13638 0.61082 0.21833 0.0
C925 C 0.14434 0.62858 0.17098 0.0
C926 C 0.16741 0.57685 0.06288 0.0
C927 C 0.15137 0.59417 0.14107 0.0
C928 C 0.16898 0.55877 0.04394 0.0
C929 C 0.15756 0.53948 0.08339 0.0
C930 C 0.1544 0.57568 0.12188 0.0
C931 C 0.14511 0.53912 0.14301 0.0
C932 C 0.13982 0.59363 0.20356 0.0
C933 C 0.15609 0.62865 0.10967 0.0
N934 N 0.14382 0.55692 0.16026 0.0
N935 N 0.1592 0.61169 0.09641 0.0
H936 H 0.47316 0.63649 0.01137 0.0
H937 H 0.41275 0.54112 0.30011 0.0
H938 H 0.50287 0.63374 0.21222 0.0
H939 H 0.39496 0.53547 0.07362 0.0
H940 H 0.44324 0.57731 0.27576 0.0
H941 H 0.44151 0.60178 0.04108 0.0
C942 C 0.47296 0.6287 0.06208 0.0
C943 C 0.49075 0.63801 0.10924 0.0
C944 C 0.43264 0.5681 0.2315 0.0
C945 C 0.45452 0.59822 0.14348 0.0
C946 C 0.41521 0.54748 0.24533 0.0
C947 C 0.40135 0.53516 0.18868 0.0
C948 C 0.43602 0.57658 0.16078 0.0
C949 C 0.40534 0.54425 0.11878 0.0
C950 C 0.45492 0.60882 0.07878 0.0
C951 C 0.48956 0.6271 0.17412 0.0
N952 N 0.42224 0.56441 0.10689 0.0
N953 N 0.47175 0.60777 0.18935 0.0
H954 H 0.53033 0.72127 0.29247 0.0
H955 H 0.56023 0.84077 0.17476 0.0
H956 H 0.56656 0.75303 0.09902 0.0
H957 H 0.51723 0.80618 0.35236 0.0
H958 H 0.56232 0.80855 0.14531 0.0
H959 H 0.52507 0.75203 0.31502 0.0
C960 C 0.53711 0.73465 0.25458 0.0
C961 C 0.54896 0.73456 0.19384 0.0
C962 C 0.55232 0.80796 0.19046 0.0
C963 C 0.54305 0.76988 0.21951 0.0
C964 C 0.55111 0.82636 0.20731 0.0
C965 C 0.5386 0.82622 0.26634 0.0
C966 C 0.54106 0.78928 0.23323 0.0
C967 C 0.52709 0.80705 0.30643 0.0
C968 C 0.53408 0.75221 0.26745 0.0
C969 C 0.55735 0.75238 0.14661 0.0
N970 N 0.52872 0.78941 0.28945 0.0
N971 N 0.55432 0.76933 0.16064 0.0
H972 H 0.29727 0.82826 0.29575 0.0
H973 H 0.18858 0.72813 0.14921 0.0
H974 H 0.28115 0.81905 0.0675 0.0
H975 H 0.21762 0.72738 0.35402 0.0
H976 H 0.22073 0.76273 0.12014 0.0
H977 H 0.26622 0.79267 0.32078 0.0
C978 C 0.28716 0.8188 0.25091 0.0
C979 C 0.29178 0.82668 0.17945 0.0
C980 C 0.22008 0.75488 0.17117 0.0
C981 C 0.25619 0.78594 0.20779 0.0
C982 C 0.20175 0.73518 0.18785 0.0
C983 C 0.20042 0.72487 0.25418 0.0
C984 C 0.23702 0.7645 0.2217 0.0
C985 C 0.21797 0.73472 0.30218 0.0
C986 C 0.26952 0.79842 0.2652 0.0
C987 C 0.27821 0.81358 0.1234 0.0
N988 N 0.23545 0.75407 0.28529 0.0
N989 N 0.26093 0.79391 0.13882 0.0
H990 H 0.2904 0.46947 0.16582 0.0
H991 H 0.20225 0.50352 0.2571 0.0
H992 H 0.30052 0.51872 0.32216 0.0
H993 H 0.19742 0.46387 0.07291 0.0
H994 H 0.23805 0.5088 0.28304 0.0
H995 H 0.25607 0.46674 0.13176 0.0
C996 C 0.28547 0.47979 0.1927 0.0
C997 C 0.29833 0.4943 0.24711 0.0
C998 C 0.22921 0.49905 0.23668 0.0
C999 C 0.259 0.49114 0.2088 0.0
C1000 C 0.20874 0.496 0.22188 0.0
C1001 C 0.19677 0.4832 0.16276 0.0
C1002 C 0.23774 0.48908 0.19248 0.0
C1003 C 0.20604 0.47387 0.11905 0.0
C1004 C 0.26587 0.47824 0.1732 0.0
C1005 C 0.29114 0.5073 0.27998 0.0
N1006 N 0.22591 0.47689 0.13504 0.0
N1007 N 0.27191 0.50531 0.26067 0.0
H1008 H 0.06492 0.25845 0.08541 0.0
H1009 H 0.98416 0.19294 0.76033 0.0
H1010 H 0.00243 0.20161 0.11498 0.0
H1011 H 0.04405 0.25263 0.72864 0.0
H1012 H 0.9929 0.19368 0.88864 0.0
H1013 H 0.05962 0.25461 0.95366 0.0
C1014 C 0.05014 0.24509 0.06427 0.0
C1015 C 0.03403 0.23041 0.11146 0.0
C1016 C 0.00425 0.20655 0.85366 0.0
C1017 C 0.02789 0.22592 0.96061 0.0
C1018 C 0.99929 0.20611 0.78017 0.0
C1019 C 0.0133 0.22285 0.73366 0.0
C1020 C 0.02335 0.22391 0.88128 0.0
C1021 C 0.03274 0.23941 0.76254 0.0
C1022 C 0.04713 0.24292 0.989 0.0
C1023 C 0.01524 0.21339 0.08083 0.0
N1024 N 0.0371 0.23963 0.83468 0.0
N1025 N 0.01267 0.21168 0.00749 0.0
H1026 H 0.83188 0.82392 0.13733 0.0
H1027 H 0.77922 0.81663 0.74771 0.0
H1028 H 0.7717 0.82328 0.10805 0.0
H1029 H 0.83415 0.80827 0.78503 0.0
H1030 H 0.77931 0.82503 0.87691 0.0
H1031 H 0.83598 0.8242 0.00589 0.0
C1032 C 0.81957 0.82398 0.10325 0.0
C1033 C 0.80126 0.82328 0.13374 0.0
C1034 C 0.79145 0.82156 0.85656 0.0
C1035 C 0.80585 0.82352 0.98287 0.0
C1036 C 0.79146 0.81684 0.78286 0.0
C1037 C 0.80656 0.81151 0.75586 0.0
C1038 C 0.80671 0.82103 0.90323 0.0
C1039 C 0.82206 0.81203 0.8037 0.0
C1040 C 0.82193 0.82414 0.0281 0.0
C1041 C 0.78598 0.82364 0.08681 0.0
N1042 N 0.82164 0.81656 0.87509 0.0
N1043 N 0.78852 0.82354 0.01357 0.0
H1044 H 0.2103 0.96701 0.1055 0.0
H1045 H 0.2142 0.03932 0.76919 0.0
H1046 H 0.2079 0.02597 0.12417 0.0
H1047 H 0.21349 0.97898 0.7435 0.0
H1048 H 0.20836 0.03253 0.89909 0.0
H1049 H 0.20833 0.96908 0.97303 0.0
C1050 C 0.20921 0.9803 0.08184 0.0
C1051 C 0.20951 0.99648 0.12593 0.0
C1052 C 0.20928 0.02063 0.86519 0.0
C1053 C 0.20723 0.99891 0.97476 0.0
C1054 C 0.21261 0.02451 0.7909 0.0
C1055 C 0.21455 0.00979 0.74569 0.0
C1056 C 0.20811 0.00199 0.8949 0.0
C1057 C 0.21214 0.99076 0.77661 0.0
C1058 C 0.20806 0.98145 0.00625 0.0
C1059 C 0.20795 0.01325 0.09238 0.0
N1060 N 0.2093 0.98752 0.84963 0.0
N1061 N 0.20702 0.01409 0.01891 0.0
H1062 H 0.0217 0.83818 0.83588 0.0
H1063 H 0.98016 0.77739 0.21582 0.0
H1064 H 0.96764 0.7734 0.85565 0.0
H1065 H 0.02636 0.84543 0.19712 0.0
H1066 H 0.97437 0.77586 0.08447 0.0
H1067 H 0.02298 0.84143 0.96831 0.0
C1068 C 0.01002 0.82468 0.86803 0.0
C1069 C 0.99463 0.80544 0.83458 0.0
C1070 C 0.98561 0.79118 0.10921 0.0
C1071 C 0.99606 0.80901 0.98636 0.0
C1072 C 0.98891 0.79206 0.18427 0.0
C1073 C 0.00389 0.81154 0.21757 0.0
C1074 C 0.99752 0.80984 0.06696 0.0
C1075 C 0.01471 0.83004 0.17386 0.0
C1076 C 0.01073 0.82656 0.94368 0.0
C1077 C 0.97983 0.78852 0.87904 0.0
N1078 N 0.01148 0.82869 0.10079 0.0
N1079 N 0.98103 0.79064 0.95261 0.0
H1080 H 0.25664 0.22444 0.2392 0.0
H1081 H 0.19592 0.20191 0.857 0.0
H1082 H 0.18869 0.20252 0.21758 0.0
H1083 H 0.26258 0.21867 0.87877 0.0
H1084 H 0.19246 0.19999 0.98933 0.0
H1085 H 0.25863 0.22014 0.10805 0.0
C1086 C 0.24208 0.21849 0.20707 0.0
C1087 C 0.2225 0.21399 0.23952 0.0
C1088 C 0.20781 0.20394 0.96519 0.0
C1089 C 0.22472 0.20924 0.08905 0.0
C1090 C 0.2098 0.20506 0.88956 0.0
C1091 C 0.22961 0.21061 0.85664 0.0
C1092 C 0.22579 0.20853 0.00845 0.0
C1093 C 0.24701 0.21442 0.90169 0.0
C1094 C 0.24324 0.21608 0.13209 0.0
C1095 C 0.20416 0.20629 0.19502 0.0
N1096 N 0.24474 0.21347 0.97523 0.0
N1097 N 0.20577 0.20435 0.12209 0.0
H1098 H 0.83926 0.01117 0.20451 0.0
H1099 H 0.81723 0.06477 0.85695 0.0
H1100 H 0.81026 0.05145 0.21709 0.0
H1101 H 0.83383 0.01456 0.84306 0.0
H1102 H 0.8195 0.06399 0.98934 0.0
H1103 H 0.84252 0.01645 0.07292 0.0
C1104 C 0.83381 0.02135 0.17982 0.0
C1105 C 0.82432 0.03075 0.22205 0.0
C1106 C 0.82275 0.05322 0.95733 0.0
C1107 C 0.82793 0.03676 0.07102 0.0
C1108 C 0.8215 0.05367 0.88164 0.0
C1109 C 0.82522 0.03962 0.83869 0.0
C1110 C 0.82787 0.03868 0.99056 0.0
C1111 C 0.83071 0.02561 0.87393 0.0
C1112 C 0.8356 0.02426 0.10453 0.0
C1113 C 0.81758 0.04378 0.18678 0.0
N1114 N 0.83181 0.02546 0.94776 0.0
N1115 N 0.81941 0.04631 0.11333 0.0
H1116 H 0.71089 0.58436 0.11599 0.0
H1117 H 0.67048 0.5239 0.49704 0.0
H1118 H 0.66319 0.51681 0.13653 0.0
H1119 H 0.72639 0.58745 0.47541 0.0
H1120 H 0.66814 0.52082 0.36461 0.0
H1121 H 0.71781 0.58563 0.24673 0.0
C1122 C 0.70209 0.56972 0.14771 0.0
C1123 C 0.68632 0.55049 0.11517 0.0
C1124 C 0.68102 0.53538 0.38879 0.0
C1125 C 0.69393 0.55191 0.26506 0.0
C1126 C 0.68233 0.53717 0.46447 0.0
C1127 C 0.69858 0.55601 0.49745 0.0
C1128 C 0.69594 0.55264 0.34558 0.0
C1129 C 0.71356 0.57264 0.45239 0.0
C1130 C 0.70601 0.57047 0.22243 0.0
C1131 C 0.67542 0.53203 0.15914 0.0
N1132 N 0.71177 0.57064 0.37882 0.0
N1133 N 0.67926 0.53327 0.23181 0.0
H1134 H 0.49997 0.15872 0.47896 0.0
H1135 H 0.44182 0.1403 0.09323 0.0
H1136 H 0.43803 0.15437 0.45118 0.0
H1137 H 0.50717 0.15324 0.11955 0.0
H1138 H 0.44063 0.14701 0.2232 0.0
H1139 H 0.50337 0.15803 0.34687 0.0
C1140 C 0.48713 0.15773 0.44512 0.0
C1141 C 0.46864 0.15648 0.47636 0.0
C1142 C 0.4553 0.14859 0.20037 0.0
C1143 C 0.47237 0.15558 0.32476 0.0
C1144 C 0.45601 0.14481 0.12606 0.0
C1145 C 0.47457 0.14606 0.09533 0.0
C1146 C 0.47323 0.15351 0.24448 0.0
C1147 C 0.49247 0.15198 0.14072 0.0
C1148 C 0.48909 0.15737 0.3696 0.0
C1149 C 0.45256 0.15532 0.42962 0.0
N1150 N 0.49127 0.15527 0.21296 0.0
N1151 N 0.45472 0.15473 0.35629 0.0
H1152 H 0.87565 0.31961 0.12721 0.0
H1153 H 0.86259 0.36273 0.51482 0.0
H1154 H 0.87419 0.37863 0.15987 0.0
H1155 H 0.8637 0.30335 0.48696 0.0
H1156 H 0.86314 0.3667 0.38305 0.0
H1157 H 0.86727 0.31106 0.25649 0.0
C1158 C 0.87323 0.33059 0.16123 0.0
C1159 C 0.87585 0.34997 0.13286 0.0
C1160 C 0.86312 0.35271 0.40561 0.0
C1161 C 0.86648 0.34042 0.28064 0.0
C1162 C 0.86283 0.35045 0.481 0.0
C1163 C 0.86329 0.33278 0.51211 0.0
C1164 C 0.86401 0.33727 0.36068 0.0
C1165 C 0.86343 0.3173 0.46538 0.0
C1166 C 0.86855 0.32575 0.23508 0.0
C1167 C 0.87256 0.36362 0.17948 0.0
N1168 N 0.86398 0.31999 0.39203 0.0
N1169 N 0.86825 0.35867 0.251 0.0
H1170 H 0.6262 0.09646 0.21774 0.0
H1171 H 0.69741 0.16758 0.55191 0.0
H1172 H 0.6822 0.15999 0.19683 0.0
H1173 H 0.63977 0.1056 0.57886 0.0
H1174 H 0.68975 0.16634 0.42251 0.0
H1175 H 0.6287 0.10056 0.35012 0.0
C1176 C 0.63891 0.11134 0.24088 0.0
C1177 C 0.65414 0.12783 0.19605 0.0
C1178 C 0.67861 0.15308 0.45662 0.0
C1179 C 0.6571 0.13259 0.34745 0.0
C1180 C 0.68298 0.15379 0.53066 0.0
C1181 C 0.66931 0.13657 0.57611 0.0
C1182 C 0.66054 0.13489 0.42733 0.0
C1183 C 0.65075 0.11921 0.54567 0.0
C1184 C 0.64031 0.11367 0.31649 0.0
C1185 C 0.6702 0.14677 0.22912 0.0
N1186 N 0.64704 0.11867 0.4729 0.0
N1187 N 0.67134 0.14856 0.30268 0.0
H1188 H 0.93322 0.55738 0.18403 0.0
H1189 H 0.86433 0.55973 0.52335 0.0
H1190 H 0.87634 0.56347 0.16653 0.0
H1191 H 0.92271 0.55662 0.54726 0.0
H1192 H 0.86726 0.55822 0.392 0.0
H1193 H 0.9287 0.55469 0.31633 0.0
C1194 C 0.91977 0.55812 0.20792 0.0
C1195 C 0.90519 0.56076 0.16408 0.0
C1196 C 0.8794 0.55774 0.42577 0.0
C1197 C 0.89989 0.55761 0.31527 0.0
C1198 C 0.87772 0.55856 0.50097 0.0
C1199 C 0.89338 0.55843 0.54644 0.0
C1200 C 0.89695 0.55687 0.39534 0.0
C1201 C 0.91028 0.55677 0.51421 0.0
C1202 C 0.91719 0.55656 0.28344 0.0
C1203 C 0.88804 0.56155 0.19805 0.0
N1204 N 0.91171 0.55621 0.44049 0.0
N1205 N 0.8859 0.56002 0.27147 0.0
H1206 H 0.47634 0.39596 0.18603 0.0
H1207 H 0.47384 0.32511 0.52624 0.0
H1208 H 0.47375 0.33449 0.16923 0.0
H1209 H 0.47602 0.38624 0.54938 0.0
H1210 H 0.47632 0.32986 0.39506 0.0
H1211 H 0.47839 0.3941 0.31852 0.0
C1212 C 0.47627 0.38211 0.21011 0.0
C1213 C 0.47475 0.36529 0.16644 0.0
C1214 C 0.47638 0.34233 0.42861 0.0
C1215 C 0.47713 0.36309 0.31783 0.0
C1216 C 0.47497 0.33963 0.50372 0.0
C1217 C 0.47456 0.35524 0.54888 0.0
C1218 C 0.47726 0.36073 0.39795 0.0
C1219 C 0.47625 0.3738 0.51652 0.0
C1220 C 0.47746 0.38107 0.28574 0.0
C1221 C 0.47478 0.34778 0.20063 0.0
N1222 N 0.47736 0.37596 0.44285 0.0
N1223 N 0.47588 0.34712 0.27417 0.0
H1224 H 0.37729 0.90592 0.45369 0.0
H1225 H 0.33108 0.85217 0.84157 0.0
H1226 H 0.31446 0.85 0.48889 0.0
H1227 H 0.38987 0.91328 0.8149 0.0
H1228 H 0.32788 0.84828 0.71005 0.0
H1229 H 0.38516 0.90598 0.58338 0.0
C1230 C 0.36527 0.89352 0.48849 0.0
C1231 C 0.34509 0.87809 0.46078 0.0
C1232 C 0.34157 0.8625 0.73283 0.0
C1233 C 0.35396 0.87807 0.60856 0.0
C1234 C 0.3434 0.86474 0.80803 0.0
C1235 C 0.36062 0.88323 0.83926 0.0
C1236 C 0.35699 0.8789 0.68829 0.0
C1237 C 0.37624 0.89885 0.79305 0.0
C1238 C 0.36975 0.8936 0.56244 0.0
C1239 C 0.33012 0.86236 0.50813 0.0
N1240 N 0.37395 0.89642 0.7197 0.0
N1241 N 0.33482 0.86285 0.57972 0.0
H1242 H 0.10771 0.48642 0.80654 0.0
H1243 H 0.17263 0.47676 0.46779 0.0
H1244 H 0.16202 0.47609 0.82488 0.0
H1245 H 0.11742 0.48542 0.44369 0.0
H1246 H 0.17017 0.47898 0.59909 0.0
H1247 H 0.11197 0.48823 0.67418 0.0
C1248 C 0.12055 0.48458 0.78282 0.0
C1249 C 0.13447 0.48099 0.8269 0.0
C1250 C 0.15863 0.48051 0.56527 0.0
C1251 C 0.13945 0.4831 0.67565 0.0
C1252 C 0.16003 0.47926 0.49011 0.0
C1253 C 0.14512 0.48077 0.44462 0.0
C1254 C 0.14212 0.4832 0.5956 0.0
C1255 C 0.12924 0.48415 0.47676 0.0
C1256 C 0.12298 0.48563 0.70726 0.0
C1257 C 0.15085 0.47878 0.79316 0.0
N1258 N 0.12806 0.4851 0.55042 0.0
N1259 N 0.15284 0.47983 0.71968 0.0
H1260 H 0.55371 0.70709 0.85902 0.0
H1261 H 0.54519 0.65211 0.47203 0.0
H1262 H 0.54499 0.64315 0.83463 0.0
H1263 H 0.5564 0.71684 0.5011 0.0
H1264 H 0.54232 0.64723 0.60419 0.0
H1265 H 0.55221 0.70974 0.72742 0.0
C1266 C 0.55144 0.69357 0.82598 0.0
C1267 C 0.5496 0.67491 0.85791 0.0
C1268 C 0.54529 0.66244 0.58151 0.0
C1269 C 0.54786 0.67784 0.70677 0.0
C1270 C 0.54686 0.66521 0.50612 0.0
C1271 C 0.55117 0.68496 0.47555 0.0
C1272 C 0.54802 0.67953 0.62644 0.0
C1273 C 0.55321 0.70139 0.52225 0.0
C1274 C 0.55056 0.69508 0.75072 0.0
C1275 C 0.54656 0.65787 0.81229 0.0
N1276 N 0.55171 0.69833 0.59526 0.0
N1277 N 0.54587 0.65977 0.73892 0.0
H1278 H 0.37372 0.51709 0.87634 0.0
H1279 H 0.30163 0.4451 0.54473 0.0
H1280 H 0.31568 0.45554 0.90543 0.0
H1281 H 0.36009 0.50665 0.52168 0.0
H1282 H 0.30387 0.45016 0.67684 0.0
H1283 H 0.36611 0.51532 0.74679 0.0
C1284 C 0.35921 0.50329 0.85553 0.0
C1285 C 0.34544 0.48632 0.90158 0.0
C1286 C 0.31609 0.46262 0.64273 0.0
C1287 C 0.33675 0.48402 0.75273 0.0
C1288 C 0.31483 0.45974 0.56734 0.0
C1289 C 0.33084 0.47536 0.52212 0.0
C1290 C 0.33347 0.48126 0.67295 0.0
C1291 C 0.34751 0.49406 0.55437 0.0
C1292 C 0.35488 0.50227 0.78141 0.0
C1293 C 0.32677 0.46894 0.87173 0.0
N1294 N 0.34846 0.4964 0.6277 0.0
N1295 N 0.3231 0.46809 0.79889 0.0
H1296 H 0.5809 0.88087 0.90946 0.0
H1297 H 0.53214 0.88692 0.52431 0.0
H1298 H 0.5259 0.88972 0.8821 0.0
H1299 H 0.58841 0.87992 0.54621 0.0
H1300 H 0.52828 0.88526 0.65603 0.0
H1301 H 0.5825 0.87759 0.7772 0.0
C1302 C 0.56906 0.88193 0.87576 0.0
C1303 C 0.55334 0.88574 0.90679 0.0
C1304 C 0.54145 0.88401 0.63217 0.0
C1305 C 0.55512 0.8821 0.75588 0.0
C1306 C 0.54368 0.88498 0.55682 0.0
C1307 C 0.56072 0.88371 0.52416 0.0
C1308 C 0.5564 0.88182 0.67547 0.0
C1309 C 0.57508 0.88106 0.56914 0.0
C1310 C 0.57001 0.88011 0.80032 0.0
C1311 C 0.5384 0.88697 0.86059 0.0
N1312 N 0.57266 0.88031 0.64261 0.0
N1313 N 0.53974 0.88526 0.78759 0.0
H1314 H 0.14571 0.72084 0.52563 0.0
H1315 H 0.14564 0.6508 0.8648 0.0
H1316 H 0.14116 0.65848 0.50821 0.0
H1317 H 0.14704 0.71155 0.8885 0.0
H1318 H 0.14752 0.65538 0.73347 0.0
H1319 H 0.14915 0.71946 0.6577 0.0
C1320 C 0.14548 0.70688 0.54949 0.0
C1321 C 0.143 0.68968 0.50579 0.0
C1322 C 0.14756 0.66782 0.7672 0.0
C1323 C 0.14703 0.68806 0.6567 0.0
C1324 C 0.14653 0.66523 0.84237 0.0
C1325 C 0.146 0.68074 0.88772 0.0
C1326 C 0.14795 0.686 0.73673 0.0
C1327 C 0.14738 0.69918 0.85551 0.0
C1328 C 0.14748 0.70613 0.62488 0.0
C1329 C 0.1429 0.67206 0.53968 0.0
N1330 N 0.14809 0.70122 0.78181 0.0
N1331 N 0.14482 0.6717 0.613 0.0
loop_
_geom_bond_atom_site_label_1
_geom_bond_atom_site_label_2
_geom_bond_distance
_geom_bond_site_symmetry_2
_ccdc_geom_bond_type
Zn0 O6 1.969 . S
Zn0 O7 1.965 . S
Zn0 O11 2.024 1_455 S
Zn0 O16 1.969 . S
Zn1 O8 1.969 . S
Zn1 O14 1.969 . S
Zn1 O15 1.965 . S
Zn1 O17 2.024 . S
C2 O3 1.229 . S
C2 O11 1.058 . S
O3 C2 1.229 . S
C4 O5 1.229 . S
C4 O17 1.058 . S
O5 C4 1.229 . S
O6 Zn0 1.969 . S
O6 C9 1.267 . S
O7 Zn0 1.965 . S
O7 C18 1.260 1_455 S
O8 Zn1 1.969 . S
O8 C18 1.258 1_455 S
C9 O6 1.267 . S
C9 O10 1.228 1_455 S
O10 C9 1.228 1_655 S
O11 Zn0 2.024 1_655 S
O11 C2 1.058 . S
C12 O13 1.228 . S
C12 O14 1.267 . S
O13 C12 1.228 . S
O14 Zn1 1.969 . S
O14 C12 1.267 . S
O15 Zn1 1.965 . S
O15 C19 1.260 . S
O16 Zn0 1.969 . S
O16 C19 1.258 . S
O17 Zn1 2.024 . S
O17 C4 1.058 . S
C18 O7 1.260 1_655 S
C18 O8 1.258 1_655 S
C19 O15 1.260 . S
C19 O16 1.258 . S
Zn20 O26 1.969 . S
Zn20 O27 1.965 . S
Zn20 O31 2.024 . S
Zn20 O36 1.969 . S
Zn21 O28 1.969 . S
Zn21 O34 1.969 . S
Zn21 O35 1.965 . S
Zn21 O37 2.024 . S
C22 O23 1.229 . S
C22 O31 1.058 . S
O23 C22 1.229 . S
C24 O25 1.229 . S
C24 O37 1.058 . S
O25 C24 1.229 . S
O26 Zn20 1.969 . S
O26 C29 1.267 . S
O27 Zn20 1.965 . S
O27 C38 1.260 . S
O28 Zn21 1.969 . S
O28 C38 1.258 . S
C29 O26 1.267 . S
C29 O30 1.228 . S
O30 C29 1.228 . S
O31 Zn20 2.024 . S
O31 C22 1.058 . S
C32 O33 1.228 . S
C32 O34 1.267 . S
O33 C32 1.228 . S
O34 Zn21 1.969 . S
O34 C32 1.267 . S
O35 Zn21 1.965 . S
O35 C39 1.260 . S
O36 Zn20 1.969 . S
O36 C39 1.258 . S
O37 Zn21 2.024 . S
O37 C24 1.058 . S
C38 O27 1.260 . S
C38 O28 1.258 . S
C39 O35 1.260 . S
C39 O36 1.258 . S
Zn40 O46 1.969 . S
Zn40 O47 1.965 . S
Zn40 O51 2.024 . S
Zn40 O56 1.969 . S
Zn41 O48 1.969 . S
Zn41 O54 1.969 . S
Zn41 O55 1.965 . S
Zn41 O57 2.024 1_545 S
C42 O43 1.229 . S
C42 O51 1.058 . S
O43 C42 1.229 . S
C44 O45 1.229 . S
C44 O57 1.058 . S
O45 C44 1.229 . S
O46 Zn40 1.969 . S
O46 C49 1.267 . S
O47 Zn40 1.965 . S
O47 C58 1.260 . S
O48 Zn41 1.969 . S
O48 C58 1.258 . S
C49 O46 1.267 . S
C49 O50 1.228 . S
O50 C49 1.228 . S
O51 Zn40 2.024 . S
O51 C42 1.058 . S
C52 O53 1.228 1_545 S
C52 O54 1.267 . S
O53 C52 1.228 1_565 S
O54 Zn41 1.969 . S
O54 C52 1.267 . S
O55 Zn41 1.965 . S
O55 C59 1.260 1_545 S
O56 Zn40 1.969 . S
O56 C59 1.258 1_545 S
O57 Zn41 2.024 1_565 S
O57 C44 1.058 . S
C58 O47 1.260 . S
C58 O48 1.258 . S
C59 O55 1.260 1_565 S
C59 O56 1.258 1_565 S
Zn60 O66 1.969 1_655 S
Zn60 O67 1.951 1_655 S
Zn60 O71 2.023 . S
Zn60 O76 1.969 1_655 S
Zn61 O68 1.969 1_455 S
Zn61 O74 1.969 . S
Zn61 O75 1.965 . S
Zn61 O77 2.024 . S
C62 O63 1.229 . S
C62 O71 1.058 . S
O63 C62 1.229 . S
C64 O65 1.229 . S
C64 O77 1.058 . S
O65 C64 1.229 . S
O66 Zn60 1.969 1_455 S
O66 C69 1.267 . S
O67 Zn60 1.951 1_455 S
O67 C78 1.257 1_455 S
O68 Zn61 1.969 1_655 S
O68 C78 1.258 . S
C69 O66 1.267 . S
C69 O70 1.228 1_455 S
O70 C69 1.228 1_655 S
O71 Zn60 2.023 . S
O71 C62 1.058 . S
C72 O73 1.228 . S
C72 O74 1.267 . S
O73 C72 1.228 . S
O74 Zn61 1.969 . S
O74 C72 1.267 . S
O75 Zn61 1.965 . S
O75 C79 1.260 . S
O76 Zn60 1.969 1_455 S
O76 C79 1.258 . S
O77 Zn61 2.024 . S
O77 C64 1.058 . S
C78 O67 1.257 1_655 S
C78 O68 1.258 . S
C79 O75 1.260 . S
C79 O76 1.258 . S
Zn80 O86 1.969 . S
Zn80 O87 1.965 . S
Zn80 O91 2.024 . S
Zn80 O96 1.969 . S
Zn81 O88 1.969 . S
Zn81 O94 1.969 . S
Zn81 O95 1.965 . S
Zn81 O97 2.024 . S
C82 O83 1.229 . S
C82 O91 1.058 . S
O83 C82 1.229 . S
C84 O85 1.229 . S
C84 O97 1.058 . S
O85 C84 1.229 . S
O86 Zn80 1.969 . S
O86 C89 1.267 . S
O87 Zn80 1.965 . S
O87 C98 1.260 . S
O88 Zn81 1.969 . S
O88 C98 1.258 . S
C89 O86 1.267 . S
C89 O90 1.228 . S
O90 C89 1.228 . S
O91 Zn80 2.024 . S
O91 C82 1.058 . S
C92 O93 1.228 . S
C92 O94 1.267 . S
O93 C92 1.228 . S
O94 Zn81 1.969 . S
O94 C92 1.267 . S
O95 Zn81 1.965 . S
O95 C99 1.260 . S
O96 Zn80 1.969 . S
O96 C99 1.258 . S
O97 Zn81 2.024 . S
O97 C84 1.058 . S
C98 O87 1.260 . S
C98 O88 1.258 . S
C99 O95 1.260 . S
C99 O96 1.258 . S
Zn100 O106 1.969 . S
Zn100 O107 1.965 . S
Zn100 O111 2.024 . S
Zn100 O116 1.969 . S
Zn101 O108 1.969 . S
Zn101 O114 1.969 . S
Zn101 O115 1.965 . S
Zn101 O117 2.024 1_545 S
C102 O103 1.229 . S
C102 O111 1.058 . S
O103 C102 1.229 . S
C104 O105 1.229 . S
C104 O117 1.058 . S
O105 C104 1.229 . S
O106 Zn100 1.969 . S
O106 C109 1.267 . S
O107 Zn100 1.965 . S
O107 C118 1.260 . S
O108 Zn101 1.969 . S
O108 C118 1.258 . S
C109 O106 1.267 . S
C109 O110 1.228 . S
O110 C109 1.228 . S
O111 Zn100 2.024 . S
O111 C102 1.058 . S
C112 O113 1.228 1_545 S
C112 O114 1.267 . S
O113 C112 1.228 1_565 S
O114 Zn101 1.969 . S
O114 C112 1.267 . S
O115 Zn101 1.965 . S
O115 C119 1.260 1_545 S
O116 Zn100 1.969 . S
O116 C119 1.258 1_545 S
O117 Zn101 2.024 1_565 S
O117 C104 1.058 . S
C118 O107 1.260 . S
C118 O108 1.258 . S
C119 O115 1.260 1_565 S
C119 O116 1.258 1_565 S
Zn120 O126 1.969 1_556 S
Zn120 O127 1.965 . S
Zn120 O131 2.024 . S
Zn120 O136 1.969 . S
Zn121 O128 1.969 . S
Zn121 O134 1.969 . S
Zn121 O135 1.965 . S
Zn121 O137 2.024 . S
C122 O123 1.229 1_556 S
C122 O131 1.058 . S
O123 C122 1.229 1_554 S
C124 O125 1.229 . S
C124 O137 1.058 . S
O125 C124 1.229 . S
O126 Zn120 1.969 1_554 S
O126 C129 1.267 . S
O127 Zn120 1.965 . S
O127 C138 1.260 . S
O128 Zn121 1.969 . S
O128 C138 1.258 . S
C129 O126 1.267 . S
C129 O130 1.228 . S
O130 C129 1.228 . S
O131 Zn120 2.024 . S
O131 C122 1.058 . S
C132 O133 1.228 . S
C132 O134 1.267 . S
O133 C132 1.228 . S
O134 Zn121 1.969 . S
O134 C132 1.267 . S
O135 Zn121 1.965 . S
O135 C139 1.260 . S
O136 Zn120 1.969 . S
O136 C139 1.258 . S
O137 Zn121 2.024 . S
O137 C124 1.058 . S
C138 O127 1.260 . S
C138 O128 1.258 . S
C139 O135 1.260 . S
C139 O136 1.258 . S
Zn140 O146 1.969 1_556 S
Zn140 O147 1.965 . S
Zn140 O151 2.024 . S
Zn140 O156 1.969 . S
Zn141 O148 1.969 . S
Zn141 O154 1.969 . S
Zn141 O155 1.965 . S
Zn141 O157 2.024 . S
C142 O143 1.229 1_556 S
C142 O151 1.058 . S
O143 C142 1.229 1_554 S
C144 O145 1.229 . S
C144 O157 1.058 . S
O145 C144 1.229 . S
O146 Zn140 1.969 1_554 S
O146 C149 1.267 . S
O147 Zn140 1.965 . S
O147 C158 1.260 . S
O148 Zn141 1.969 . S
O148 C158 1.258 . S
C149 O146 1.267 . S
C149 O150 1.228 . S
O150 C149 1.228 . S
O151 Zn140 2.024 . S
O151 C142 1.058 . S
C152 O153 1.228 . S
C152 O154 1.267 . S
O153 C152 1.228 . S
O154 Zn141 1.969 . S
O154 C152 1.267 . S
O155 Zn141 1.965 . S
O155 C159 1.260 . S
O156 Zn140 1.969 . S
O156 C159 1.258 . S
O157 Zn141 2.024 . S
O157 C144 1.058 . S
C158 O147 1.260 . S
C158 O148 1.258 . S
C159 O155 1.260 . S
C159 O156 1.258 . S
Zn160 O166 1.969 1_556 S
Zn160 O167 1.965 . S
Zn160 O171 2.024 . S
Zn160 O176 1.969 . S
Zn161 O168 1.969 . S
Zn161 O174 1.969 . S
Zn161 O175 1.965 . S
Zn161 O177 2.024 . S
C162 O163 1.229 1_556 S
C162 O171 1.058 . S
O163 C162 1.229 1_554 S
C164 O165 1.229 . S
C164 O177 1.058 . S
O165 C164 1.229 . S
O166 Zn160 1.969 1_554 S
O166 C169 1.267 . S
O167 Zn160 1.965 . S
O167 C178 1.260 . S
O168 Zn161 1.969 . S
O168 C178 1.258 . S
C169 O166 1.267 . S
C169 O170 1.228 . S
O170 C169 1.228 . S
O171 Zn160 2.024 . S
O171 C162 1.058 . S
C172 O173 1.228 . S
C172 O174 1.267 . S
O173 C172 1.228 . S
O174 Zn161 1.969 . S
O174 C172 1.267 . S
O175 Zn161 1.965 . S
O175 C179 1.260 . S
O176 Zn160 1.969 . S
O176 C179 1.258 . S
O177 Zn161 2.024 . S
O177 C164 1.058 . S
C178 O167 1.260 . S
C178 O168 1.258 . S
C179 O175 1.260 . S
C179 O176 1.258 . S
Zn180 O186 1.969 . S
Zn180 O187 1.965 . S
Zn180 O191 2.024 . S
Zn180 O196 1.969 . S
Zn181 O188 1.969 . S
Zn181 O194 1.969 . S
Zn181 O195 1.965 . S
Zn181 O197 2.024 . S
C182 O183 1.229 . S
C182 O191 1.058 . S
O183 C182 1.229 . S
C184 O185 1.229 . S
C184 O197 1.058 . S
O185 C184 1.229 . S
O186 Zn180 1.969 . S
O186 C189 1.267 1_556 S
O187 Zn180 1.965 . S
O187 C198 1.260 . S
O188 Zn181 1.969 . S
O188 C198 1.258 . S
C189 O186 1.267 1_554 S
C189 O190 1.228 . S
O190 C189 1.228 . S
O191 Zn180 2.024 . S
O191 C182 1.058 . S
C192 O193 1.228 . S
C192 O194 1.267 . S
O193 C192 1.228 . S
O194 Zn181 1.969 . S
O194 C192 1.267 . S
O195 Zn181 1.965 . S
O195 C199 1.260 . S
O196 Zn180 1.969 . S
O196 C199 1.258 . S
O197 Zn181 2.024 . S
O197 C184 1.058 . S
C198 O187 1.260 . S
C198 O188 1.258 . S
C199 O195 1.260 . S
C199 O196 1.258 . S
Zn200 O206 1.969 . S
Zn200 O207 1.965 . S
Zn200 O211 2.024 . S
Zn200 O216 1.969 . S
Zn201 O208 1.969 . S
Zn201 O214 1.969 . S
Zn201 O215 1.965 . S
Zn201 O217 2.024 . S
C202 O203 1.229 . S
C202 O211 1.058 . S
O203 C202 1.229 . S
C204 O205 1.229 . S
C204 O217 1.058 . S
O205 C204 1.229 . S
O206 Zn200 1.969 . S
O206 C209 1.267 1_556 S
O207 Zn200 1.965 . S
O207 C218 1.260 . S
O208 Zn201 1.969 . S
O208 C218 1.258 . S
C209 O206 1.267 1_554 S
C209 O210 1.228 . S
O210 C209 1.228 . S
O211 Zn200 2.024 . S
O211 C202 1.058 . S
C212 O213 1.228 . S
C212 O214 1.267 . S
O213 C212 1.228 . S
O214 Zn201 1.969 . S
O214 C212 1.267 . S
O215 Zn201 1.965 . S
O215 C219 1.260 . S
O216 Zn200 1.969 . S
O216 C219 1.258 . S
O217 Zn201 2.024 . S
O217 C204 1.058 . S
C218 O207 1.260 . S
C218 O208 1.258 . S
C219 O215 1.260 . S
C219 O216 1.258 . S
Zn220 O226 1.969 . S
Zn220 O227 1.965 . S
Zn220 O231 2.024 . S
Zn220 O236 1.969 . S
Zn221 O228 1.969 . S
Zn221 O234 1.969 . S
Zn221 O235 1.965 . S
Zn221 O237 2.024 . S
C222 O223 1.229 . S
C222 O231 1.058 . S
O223 C222 1.229 . S
C224 O225 1.229 . S
C224 O237 1.058 . S
O225 C224 1.229 . S
O226 Zn220 1.969 . S
O226 C229 1.267 1_556 S
O227 Zn220 1.965 . S
O227 C238 1.260 . S
O228 Zn221 1.969 . S
O228 C238 1.258 . S
C229 O226 1.267 1_554 S
C229 O230 1.228 . S
O230 C229 1.228 . S
O231 Zn220 2.024 . S
O231 C222 1.058 . S
C232 O233 1.228 . S
C232 O234 1.267 . S
O233 C232 1.228 . S
O234 Zn221 1.969 . S
O234 C232 1.267 . S
O235 Zn221 1.965 . S
O235 C239 1.260 . S
O236 Zn220 1.969 . S
O236 C239 1.258 . S
O237 Zn221 2.024 . S
O237 C224 1.058 . S
C238 O227 1.260 . S
C238 O228 1.258 . S
C239 O235 1.260 . S
C239 O236 1.258 . S
Zn240 O246 1.969 . S
Zn240 O247 1.965 . S
Zn240 O251 2.024 . S
Zn240 O256 1.969 . S
Zn241 O248 1.969 . S
Zn241 O254 1.969 . S
Zn241 O255 1.965 . S
Zn241 O257 2.024 . S
C242 O243 1.229 . S
C242 O251 1.058 . S
O243 C242 1.229 . S
C244 O245 1.229 . S
C244 O257 1.058 . S
O245 C244 1.229 . S
O246 Zn240 1.969 . S
O246 C249 1.267 . S
O247 Zn240 1.965 . S
O247 C258 1.260 . S
O248 Zn241 1.969 . S
O248 C258 1.258 . S
C249 O246 1.267 . S
C249 O250 1.228 . S
O250 C249 1.228 . S
O251 Zn240 2.024 . S
O251 C242 1.058 . S
C252 O253 1.228 . S
C252 O254 1.267 1_556 S
O253 C252 1.228 . S
O254 Zn241 1.969 . S
O254 C252 1.267 1_554 S
O255 Zn241 1.965 . S
O255 C259 1.260 . S
O256 Zn240 1.969 . S
O256 C259 1.258 . S
O257 Zn241 2.024 . S
O257 C244 1.058 . S
C258 O247 1.260 . S
C258 O248 1.258 . S
C259 O255 1.260 . S
C259 O256 1.258 . S
Zn260 O266 1.969 . S
Zn260 O267 1.965 . S
Zn260 O271 2.024 . S
Zn260 O276 1.969 . S
Zn261 O268 1.969 . S
Zn261 O274 1.969 . S
Zn261 O275 1.965 . S
Zn261 O277 2.024 . S
C262 O263 1.229 . S
C262 O271 1.058 . S
O263 C262 1.229 . S
C264 O265 1.229 . S
C264 O277 1.058 . S
O265 C264 1.229 . S
O266 Zn260 1.969 . S
O266 C269 1.267 . S
O267 Zn260 1.965 . S
O267 C278 1.260 . S
O268 Zn261 1.969 . S
O268 C278 1.258 . S
C269 O266 1.267 . S
C269 O270 1.228 . S
O270 C269 1.228 . S
O271 Zn260 2.024 . S
O271 C262 1.058 . S
C272 O273 1.228 . S
C272 O274 1.267 1_556 S
O273 C272 1.228 . S
O274 Zn261 1.969 . S
O274 C272 1.267 1_554 S
O275 Zn261 1.965 . S
O275 C279 1.260 . S
O276 Zn260 1.969 . S
O276 C279 1.258 . S
O277 Zn261 2.024 . S
O277 C264 1.058 . S
C278 O267 1.260 . S
C278 O268 1.258 . S
C279 O275 1.260 . S
C279 O276 1.258 . S
Zn280 O286 1.969 . S
Zn280 O287 1.965 . S
Zn280 O291 2.024 . S
Zn280 O296 1.969 . S
Zn281 O288 1.969 . S
Zn281 O294 1.969 . S
Zn281 O295 1.965 . S
Zn281 O297 2.024 . S
C282 O283 1.229 . S
C282 O291 1.058 . S
O283 C282 1.229 . S
C284 O285 1.229 . S
C284 O297 1.058 . S
O285 C284 1.229 . S
O286 Zn280 1.969 . S
O286 C289 1.267 . S
O287 Zn280 1.965 . S
O287 C298 1.260 . S
O288 Zn281 1.969 . S
O288 C298 1.258 . S
C289 O286 1.267 . S
C289 O290 1.228 . S
O290 C289 1.228 . S
O291 Zn280 2.024 . S
O291 C282 1.058 . S
C292 O293 1.228 . S
C292 O294 1.267 1_556 S
O293 C292 1.228 . S
O294 Zn281 1.969 . S
O294 C292 1.267 1_554 S
O295 Zn281 1.965 . S
O295 C299 1.260 . S
O296 Zn280 1.969 . S
O296 C299 1.258 . S
O297 Zn281 2.024 . S
O297 C284 1.058 . S
C298 O287 1.260 . S
C298 O288 1.258 . S
C299 O295 1.260 . S
C299 O296 1.258 . S
Zn300 O306 1.969 . S
Zn300 O307 1.965 . S
Zn300 O311 2.024 . S
Zn300 O316 1.969 . S
Zn301 O308 1.969 . S
Zn301 O314 1.969 1_554 S
Zn301 O315 1.965 . S
Zn301 O317 2.024 . S
C302 O303 1.229 . S
C302 O311 1.058 . S
O303 C302 1.229 . S
C304 O305 1.229 1_554 S
C304 O317 1.058 . S
O305 C304 1.229 1_556 S
O306 Zn300 1.969 . S
O306 C309 1.267 . S
O307 Zn300 1.965 . S
O307 C318 1.260 . S
O308 Zn301 1.969 . S
O308 C318 1.258 . S
C309 O306 1.267 . S
C309 O310 1.228 . S
O310 C309 1.228 . S
O311 Zn300 2.024 . S
O311 C302 1.058 . S
C312 O313 1.228 . S
C312 O314 1.267 . S
O313 C312 1.228 . S
O314 Zn301 1.969 1_556 S
O314 C312 1.267 . S
O315 Zn301 1.965 . S
O315 C319 1.260 . S
O316 Zn300 1.969 . S
O316 C319 1.258 . S
O317 Zn301 2.024 . S
O317 C304 1.058 . S
C318 O307 1.260 . S
C318 O308 1.258 . S
C319 O315 1.260 . S
C319 O316 1.258 . S
Zn320 O326 1.969 . S
Zn320 O327 1.965 . S
Zn320 O331 2.024 . S
Zn320 O336 1.969 . S
Zn321 O328 1.969 . S
Zn321 O334 1.969 1_554 S
Zn321 O335 1.965 . S
Zn321 O337 2.024 . S
C322 O323 1.229 . S
C322 O331 1.058 . S
O323 C322 1.229 . S
C324 O325 1.229 1_554 S
C324 O337 1.058 . S
O325 C324 1.229 1_556 S
O326 Zn320 1.969 . S
O326 C329 1.267 . S
O327 Zn320 1.965 . S
O327 C338 1.260 . S
O328 Zn321 1.969 . S
O328 C338 1.258 . S
C329 O326 1.267 . S
C329 O330 1.228 . S
O330 C329 1.228 . S
O331 Zn320 2.024 . S
O331 C322 1.058 . S
C332 O333 1.228 . S
C332 O334 1.267 . S
O333 C332 1.228 . S
O334 Zn321 1.969 1_556 S
O334 C332 1.267 . S
O335 Zn321 1.965 . S
O335 C339 1.260 . S
O336 Zn320 1.969 . S
O336 C339 1.258 . S
O337 Zn321 2.024 . S
O337 C324 1.058 . S
C338 O327 1.260 . S
C338 O328 1.258 . S
C339 O335 1.260 . S
C339 O336 1.258 . S
Zn340 O346 1.969 . S
Zn340 O347 1.965 . S
Zn340 O351 2.024 . S
Zn340 O356 1.969 . S
Zn341 O348 1.969 . S
Zn341 O354 1.969 1_554 S
Zn341 O355 1.965 . S
Zn341 O357 2.024 . S
C342 O343 1.229 . S
C342 O351 1.058 . S
O343 C342 1.229 . S
C344 O345 1.229 1_554 S
C344 O357 1.058 . S
O345 C344 1.229 1_556 S
O346 Zn340 1.969 . S
O346 C349 1.267 . S
O347 Zn340 1.965 . S
O347 C358 1.260 . S
O348 Zn341 1.969 . S
O348 C358 1.258 . S
C349 O346 1.267 . S
C349 O350 1.228 . S
O350 C349 1.228 . S
O351 Zn340 2.024 . S
O351 C342 1.058 . S
C352 O353 1.228 . S
C352 O354 1.267 . S
O353 C352 1.228 . S
O354 Zn341 1.969 1_556 S
O354 C352 1.267 . S
O355 Zn341 1.965 . S
O355 C359 1.260 . S
O356 Zn340 1.969 . S
O356 C359 1.258 . S
O357 Zn341 2.024 . S
O357 C344 1.058 . S
C358 O347 1.260 . S
C358 O348 1.258 . S
C359 O355 1.260 . S
C359 O356 1.258 . S
H360 C366 0.930 . S
H361 C370 0.930 . S
H362 C375 0.929 . S
H363 C373 0.929 . S
H364 C368 0.929 . S
H365 C374 0.929 . S
C366 H360 0.930 . S
C366 C367 1.367 . S
C366 C374 1.378 . S
C367 C366 1.367 . S
C367 C375 1.433 . S
C368 H364 0.929 . S
C368 C370 1.378 . S
C368 C372 1.350 . S
C369 C372 1.463 . S
C369 C374 1.350 . S
C369 N377 1.427 . S
C370 H361 0.930 . S
C370 C368 1.378 . S
C370 C371 1.367 . S
C371 C370 1.367 . S
C371 C373 1.433 . S
C372 C368 1.350 . S
C372 C369 1.463 . S
C372 N376 1.427 . S
C373 H363 0.929 . S
C373 C371 1.433 . S
C373 N376 1.384 . S
C374 H365 0.929 . S
C374 C366 1.378 . S
C374 C369 1.350 . S
C375 H362 0.929 . S
C375 C367 1.433 . S
C375 N377 1.384 . S
N376 C372 1.427 . S
N376 C373 1.384 . S
N377 C369 1.427 . S
N377 C375 1.384 . S
H378 C384 0.930 . S
H379 C388 0.930 . S
H380 C393 0.929 . S
H381 C391 0.929 . S
H382 C386 0.929 . S
H383 C392 0.929 . S
C384 H378 0.930 . S
C384 C385 1.367 . S
C384 C392 1.378 . S
C385 C384 1.367 . S
C385 C393 1.433 . S
C386 H382 0.929 . S
C386 C388 1.378 . S
C386 C390 1.350 . S
C387 C390 1.463 . S
C387 C392 1.350 . S
C387 N395 1.427 . S
C388 H379 0.930 . S
C388 C386 1.378 . S
C388 C389 1.367 . S
C389 C388 1.367 . S
C389 C391 1.433 . S
C390 C386 1.350 . S
C390 C387 1.463 . S
C390 N394 1.427 . S
C391 H381 0.929 . S
C391 C389 1.433 . S
C391 N394 1.384 . S
C392 H383 0.929 . S
C392 C384 1.378 . S
C392 C387 1.350 . S
C393 H380 0.929 . S
C393 C385 1.433 . S
C393 N395 1.384 . S
N394 C390 1.427 . S
N394 C391 1.384 . S
N395 C387 1.427 . S
N395 C393 1.384 . S
H396 C402 0.930 . S
H397 C406 0.930 . S
H398 C411 0.929 1_545 S
H399 C409 0.929 . S
H400 C404 0.929 . S
H401 C410 0.929 . S
C402 H396 0.930 . S
C402 C403 1.367 . S
C402 C410 1.378 . S
C403 C402 1.367 . S
C403 C411 1.433 . S
C404 H400 0.929 . S
C404 C406 1.378 . S
C404 C408 1.350 . S
C405 C408 1.463 . S
C405 C410 1.350 . S
C405 N413 1.427 . S
C406 H397 0.930 . S
C406 C404 1.378 . S
C406 C407 1.367 . S
C407 C406 1.367 . S
C407 C409 1.433 . S
C408 C404 1.350 . S
C408 C405 1.463 . S
C408 N412 1.427 . S
C409 H399 0.929 . S
C409 C407 1.433 . S
C409 N412 1.384 . S
C410 H401 0.929 . S
C410 C402 1.378 . S
C410 C405 1.350 . S
C411 H398 0.929 1_565 S
C411 C403 1.433 . S
C411 N413 1.384 . S
N412 C408 1.427 . S
N412 C409 1.384 . S
N413 C405 1.427 . S
N413 C411 1.384 . S
H414 C420 0.930 . S
H415 C424 0.930 . S
H416 C429 0.929 . S
H417 C427 0.929 . S
H418 C422 0.929 . S
H419 C428 0.929 . S
C420 H414 0.930 . S
C420 C421 1.367 . S
C420 C428 1.378 . S
C421 C420 1.367 . S
C421 C429 1.433 . S
C422 H418 0.929 . S
C422 C424 1.378 . S
C422 C426 1.350 . S
C423 C426 1.463 . S
C423 C428 1.350 . S
C423 N431 1.427 . S
C424 H415 0.930 . S
C424 C422 1.378 . S
C424 C425 1.367 . S
C425 C424 1.367 . S
C425 C427 1.433 . S
C426 C422 1.350 . S
C426 C423 1.463 . S
C426 N430 1.427 . S
C427 H417 0.929 . S
C427 C425 1.433 . S
C427 N430 1.384 . S
C428 H419 0.929 . S
C428 C420 1.378 . S
C428 C423 1.350 . S
C429 H416 0.929 . S
C429 C421 1.433 . S
C429 N431 1.384 . S
N430 C426 1.427 . S
N430 C427 1.384 . S
N431 C423 1.427 . S
N431 C429 1.384 . S
H432 C438 0.930 . S
H433 C442 0.930 . S
H434 C447 0.929 . S
H435 C445 0.929 . S
H436 C440 0.929 . S
H437 C446 0.929 . S
C438 H432 0.930 . S
C438 C439 1.367 . S
C438 C446 1.378 . S
C439 C438 1.367 . S
C439 C447 1.433 . S
C440 H436 0.929 . S
C440 C442 1.378 . S
C440 C444 1.350 . S
C441 C444 1.463 . S
C441 C446 1.350 . S
C441 N449 1.427 . S
C442 H433 0.930 . S
C442 C440 1.378 . S
C442 C443 1.367 . S
C443 C442 1.367 . S
C443 C445 1.433 . S
C444 C440 1.350 . S
C444 C441 1.463 . S
C444 N448 1.427 . S
C445 H435 0.929 . S
C445 C443 1.433 . S
C445 N448 1.384 . S
C446 H437 0.929 . S
C446 C438 1.378 . S
C446 C441 1.350 . S
C447 H434 0.929 . S
C447 C439 1.433 . S
C447 N449 1.384 . S
N448 C444 1.427 . S
N448 C445 1.384 . S
N449 C441 1.427 . S
N449 C447 1.384 . S
H450 C456 0.930 . S
H451 C460 0.930 . S
H452 C465 0.929 . S
H453 C463 0.929 . S
H454 C458 0.929 . S
H455 C464 0.929 . S
C456 H450 0.930 . S
C456 C457 1.367 . S
C456 C464 1.378 . S
C457 C456 1.367 . S
C457 C465 1.433 . S
C458 H454 0.929 . S
C458 C460 1.378 . S
C458 C462 1.350 . S
C459 C462 1.463 . S
C459 C464 1.350 . S
C459 N467 1.427 . S
C460 H451 0.930 . S
C460 C458 1.378 . S
C460 C461 1.367 . S
C461 C460 1.367 . S
C461 C463 1.433 . S
C462 C458 1.350 . S
C462 C459 1.463 . S
C462 N466 1.427 . S
C463 H453 0.929 . S
C463 C461 1.433 . S
C463 N466 1.384 . S
C464 H455 0.929 . S
C464 C456 1.378 . S
C464 C459 1.350 . S
C465 H452 0.929 . S
C465 C457 1.433 . S
C465 N467 1.384 . S
N466 C462 1.427 . S
N466 C463 1.384 . S
N467 C459 1.427 . S
N467 C465 1.384 . S
H468 C474 0.930 . S
H469 C478 0.930 . S
H470 C483 0.929 . S
H471 C481 0.929 . S
H472 C476 0.929 . S
H473 C482 0.929 . S
C474 H468 0.930 . S
C474 C475 1.367 . S
C474 C482 1.378 . S
C475 C474 1.367 . S
C475 C483 1.433 . S
C476 H472 0.929 . S
C476 C478 1.378 . S
C476 C480 1.350 . S
C477 C480 1.463 . S
C477 C482 1.350 . S
C477 N485 1.427 . S
C478 H469 0.930 . S
C478 C476 1.378 . S
C478 C479 1.367 . S
C479 C478 1.367 . S
C479 C481 1.433 . S
C480 C476 1.350 . S
C480 C477 1.463 . S
C480 N484 1.427 . S
C481 H471 0.929 . S
C481 C479 1.433 . S
C481 N484 1.384 . S
C482 H473 0.929 . S
C482 C474 1.378 . S
C482 C477 1.350 . S
C483 H470 0.929 . S
C483 C475 1.433 . S
C483 N485 1.384 . S
N484 C480 1.427 . S
N484 C481 1.384 . S
N485 C477 1.427 . S
N485 C483 1.384 . S
H486 C492 0.930 . S
H487 C496 0.930 . S
H488 C501 0.929 . S
H489 C499 0.929 . S
H490 C494 0.929 . S
H491 C500 0.929 . S
C492 H486 0.930 . S
C492 C493 1.367 . S
C492 C500 1.378 . S
C493 C492 1.367 . S
C493 C501 1.433 . S
C494 H490 0.929 . S
C494 C496 1.378 . S
C494 C498 1.350 . S
C495 C498 1.463 . S
C495 C500 1.350 . S
C495 N503 1.427 . S
C496 H487 0.930 . S
C496 C494 1.378 . S
C496 C497 1.367 . S
C497 C496 1.367 . S
C497 C499 1.433 . S
C498 C494 1.350 . S
C498 C495 1.463 . S
C498 N502 1.427 . S
C499 H489 0.929 . S
C499 C497 1.433 . S
C499 N502 1.384 . S
C500 H491 0.929 . S
C500 C492 1.378 . S
C500 C495 1.350 . S
C501 H488 0.929 . S
C501 C493 1.433 . S
C501 N503 1.384 . S
N502 C498 1.427 . S
N502 C499 1.384 . S
N503 C495 1.427 . S
N503 C501 1.384 . S
H504 C510 0.930 . S
H505 C514 0.930 . S
H506 C519 0.929 . S
H507 C517 0.929 . S
H508 C512 0.929 . S
H509 C518 0.929 . S
C510 H504 0.930 . S
C510 C511 1.367 . S
C510 C518 1.378 . S
C511 C510 1.367 . S
C511 C519 1.433 . S
C512 H508 0.929 . S
C512 C514 1.378 . S
C512 C516 1.350 . S
C513 C516 1.463 . S
C513 C518 1.350 . S
C513 N521 1.427 . S
C514 H505 0.930 . S
C514 C512 1.378 . S
C514 C515 1.367 . S
C515 C514 1.367 . S
C515 C517 1.433 . S
C516 C512 1.350 . S
C516 C513 1.463 . S
C516 N520 1.427 . S
C517 H507 0.929 . S
C517 C515 1.433 . S
C517 N520 1.384 . S
C518 H509 0.929 . S
C518 C510 1.378 . S
C518 C513 1.350 . S
C519 H506 0.929 . S
C519 C511 1.433 . S
C519 N521 1.384 . S
N520 C516 1.427 . S
N520 C517 1.384 . S
N521 C513 1.427 . S
N521 C519 1.384 . S
H522 C528 0.930 . S
H523 C532 0.930 . S
H524 C537 0.929 . S
H525 C535 0.929 . S
H526 C530 0.929 . S
H527 C536 0.929 . S
C528 H522 0.930 . S
C528 C529 1.367 . S
C528 C536 1.378 . S
C529 C528 1.367 . S
C529 C537 1.433 . S
C530 H526 0.929 . S
C530 C532 1.378 . S
C530 C534 1.350 . S
C531 C534 1.463 . S
C531 C536 1.350 . S
C531 N539 1.427 . S
C532 H523 0.930 . S
C532 C530 1.378 . S
C532 C533 1.367 . S
C533 C532 1.367 . S
C533 C535 1.433 . S
C534 C530 1.350 . S
C534 C531 1.463 . S
C534 N538 1.427 . S
C535 H525 0.929 . S
C535 C533 1.433 . S
C535 N538 1.384 . S
C536 H527 0.929 . S
C536 C528 1.378 . S
C536 C531 1.350 . S
C537 H524 0.929 . S
C537 C529 1.433 . S
C537 N539 1.384 . S
N538 C534 1.427 . S
N538 C535 1.384 . S
N539 C531 1.427 . S
N539 C537 1.384 . S
H540 C546 0.930 . S
H541 C550 0.930 . S
H542 C555 0.929 . S
H543 C553 0.929 . S
H544 C548 0.929 . S
H545 C554 0.929 . S
C546 H540 0.930 . S
C546 C547 1.367 . S
C546 C554 1.378 . S
C547 C546 1.367 . S
C547 C555 1.433 . S
C548 H544 0.929 . S
C548 C550 1.378 . S
C548 C552 1.350 . S
C549 C552 1.463 . S
C549 C554 1.350 . S
C549 N557 1.427 . S
C550 H541 0.930 . S
C550 C548 1.378 . S
C550 C551 1.367 . S
C551 C550 1.367 . S
C551 C553 1.433 . S
C552 C548 1.350 . S
C552 C549 1.463 . S
C552 N556 1.427 . S
C553 H543 0.929 . S
C553 C551 1.433 . S
C553 N556 1.384 . S
C554 H545 0.929 . S
C554 C546 1.378 . S
C554 C549 1.350 . S
C555 H542 0.929 . S
C555 C547 1.433 . S
C555 N557 1.384 . S
N556 C552 1.427 . S
N556 C553 1.384 . S
N557 C549 1.427 . S
N557 C555 1.384 . S
H558 C564 0.930 . S
H559 C568 0.930 . S
H560 C573 0.929 . S
H561 C571 0.929 . S
H562 C566 0.929 . S
H563 C572 0.929 . S
C564 H558 0.930 . S
C564 C565 1.367 . S
C564 C572 1.378 . S
C565 C564 1.367 . S
C565 C573 1.433 . S
C566 H562 0.929 . S
C566 C568 1.378 . S
C566 C570 1.350 . S
C567 C570 1.463 . S
C567 C572 1.350 . S
C567 N575 1.427 . S
C568 H559 0.930 . S
C568 C566 1.378 . S
C568 C569 1.367 . S
C569 C568 1.367 . S
C569 C571 1.433 . S
C570 C566 1.350 . S
C570 C567 1.463 . S
C570 N574 1.427 . S
C571 H561 0.929 . S
C571 C569 1.433 . S
C571 N574 1.384 . S
C572 H563 0.929 . S
C572 C564 1.378 . S
C572 C567 1.350 . S
C573 H560 0.929 . S
C573 C565 1.433 . S
C573 N575 1.384 . S
N574 C570 1.427 . S
N574 C571 1.384 . S
N575 C567 1.427 . S
N575 C573 1.384 . S
H576 C582 0.930 . S
H577 C586 0.930 . S
H578 C591 0.929 . S
H579 C589 0.929 . S
H580 C584 0.929 . S
H581 C590 0.929 . S
C582 H576 0.930 . S
C582 C583 1.367 1_556 S
C582 C590 1.378 1_656 S
C583 C582 1.367 1_554 S
C583 C591 1.433 . S
C584 H580 0.929 . S
C584 C586 1.378 . S
C584 C588 1.350 . S
C585 C588 1.463 . S
C585 C590 1.350 . S
C585 N593 1.419 1_455 S
C586 H577 0.930 . S
C586 C584 1.378 . S
C586 C587 1.367 . S
C587 C586 1.367 . S
C587 C589 1.433 . S
C588 C584 1.350 . S
C588 C585 1.463 . S
C588 N592 1.427 . S
C589 H579 0.929 . S
C589 C587 1.433 . S
C589 N592 1.384 . S
C590 H581 0.929 . S
C590 C582 1.378 1_454 S
C590 C585 1.350 . S
C591 H578 0.929 . S
C591 C583 1.433 . S
C591 N593 1.421 . S
N592 C588 1.427 . S
N592 C589 1.384 . S
N593 C585 1.419 1_655 S
N593 C591 1.421 . S
H594 C600 0.930 . S
H595 C604 0.930 . S
H596 C609 0.929 . S
H597 C607 0.929 . S
H598 C602 0.929 . S
H599 C608 0.929 . S
C600 H594 0.930 . S
C600 C601 1.367 . S
C600 C608 1.378 . S
C601 C600 1.367 . S
C601 C609 1.433 1_554 S
C602 H598 0.929 . S
C602 C604 1.378 . S
C602 C606 1.350 . S
C603 C606 1.463 . S
C603 C608 1.350 . S
C603 N611 1.427 1_554 S
C604 H595 0.930 . S
C604 C602 1.378 . S
C604 C605 1.367 . S
C605 C604 1.367 . S
C605 C607 1.433 . S
C606 C602 1.350 . S
C606 C603 1.463 . S
C606 N610 1.427 . S
C607 H597 0.929 . S
C607 C605 1.433 . S
C607 N610 1.384 . S
C608 H599 0.929 . S
C608 C600 1.378 . S
C608 C603 1.350 . S
C609 H596 0.929 . S
C609 C601 1.433 1_556 S
C609 N611 1.384 . S
N610 C606 1.427 . S
N610 C607 1.384 . S
N611 C603 1.427 1_556 S
N611 C609 1.384 . S
H612 C618 0.930 . S
H613 C622 0.930 . S
H614 C627 0.929 . S
H615 C625 0.929 . S
H616 C620 0.929 . S
H617 C626 0.929 . S
C618 H612 0.930 . S
C618 C619 1.367 . S
C618 C626 1.378 . S
C619 C618 1.367 . S
C619 C627 1.433 1_554 S
C620 H616 0.929 . S
C620 C622 1.378 . S
C620 C624 1.350 . S
C621 C624 1.463 1_545 S
C621 C626 1.350 . S
C621 N629 1.427 . S
C622 H613 0.930 . S
C622 C620 1.378 . S
C622 C623 1.367 . S
C623 C622 1.367 . S
C623 C625 1.433 . S
C624 C620 1.350 . S
C624 C621 1.463 1_565 S
C624 N628 1.427 . S
C625 H615 0.929 . S
C625 C623 1.433 . S
C625 N628 1.384 . S
C626 H617 0.929 . S
C626 C618 1.378 . S
C626 C621 1.350 . S
C627 H614 0.929 . S
C627 C619 1.433 1_556 S
C627 N629 1.384 1_556 S
N628 C624 1.427 . S
N628 C625 1.384 . S
N629 C621 1.427 . S
N629 C627 1.384 1_554 S
H630 C636 0.930 . S
H631 C640 0.930 . S
H632 C645 0.929 . S
H633 C643 0.929 . S
H634 C638 0.929 1_554 S
H635 C644 0.929 . S
C636 H630 0.930 . S
C636 C637 1.367 . S
C636 C644 1.378 . S
C637 C636 1.367 . S
C637 C645 1.433 . S
C638 H634 0.929 1_556 S
C638 C640 1.378 1_546 S
C638 C642 1.350 . S
C639 C642 1.463 . S
C639 C644 1.350 . S
C639 N647 1.427 . S
C640 H631 0.930 . S
C640 C638 1.378 1_564 S
C640 C641 1.367 1_554 S
C641 C640 1.367 1_556 S
C641 C643 1.433 . S
C642 C638 1.350 . S
C642 C639 1.463 . S
C642 N646 1.427 . S
C643 H633 0.929 . S
C643 C641 1.433 . S
C643 N646 1.384 1_565 S
C644 H635 0.929 . S
C644 C636 1.378 . S
C644 C639 1.350 . S
C645 H632 0.929 . S
C645 C637 1.433 . S
C645 N647 1.384 . S
N646 C642 1.427 . S
N646 C643 1.384 1_545 S
N647 C639 1.427 . S
N647 C645 1.384 . S
H648 C654 0.930 1_554 S
H649 C658 0.930 . S
H650 C663 0.929 . S
H651 C661 0.929 . S
H652 C656 0.929 . S
H653 C662 0.929 . S
C654 H648 0.930 1_556 S
C654 C655 1.367 . S
C654 C662 1.378 . S
C655 C654 1.367 . S
C655 C663 1.433 . S
C656 H652 0.929 . S
C656 C658 1.378 . S
C656 C660 1.350 . S
C657 C660 1.463 1_455 S
C657 C662 1.350 . S
C657 N665 1.427 . S
C658 H649 0.930 . S
C658 C656 1.378 . S
C658 C659 1.367 . S
C659 C658 1.367 . S
C659 C661 1.433 . S
C660 C656 1.350 . S
C660 C657 1.463 1_655 S
C660 N664 1.427 . S
C661 H651 0.929 . S
C661 C659 1.433 . S
C661 N664 1.384 . S
C662 H653 0.929 . S
C662 C654 1.378 . S
C662 C657 1.350 . S
C663 H650 0.929 . S
C663 C655 1.433 . S
C663 N665 1.384 . S
N664 C660 1.427 . S
N664 C661 1.384 . S
N665 C657 1.427 . S
N665 C663 1.384 . S
H666 C672 0.930 . S
H667 C676 0.930 . S
H668 C681 0.929 . S
H669 C679 0.929 . S
H670 C674 0.929 . S
H671 C680 0.929 . S
C672 H666 0.930 . S
C672 C673 1.367 . S
C672 C680 1.378 . S
C673 C672 1.367 . S
C673 C681 1.433 1_556 S
C674 H670 0.929 . S
C674 C676 1.378 . S
C674 C678 1.350 . S
C675 C678 1.463 . S
C675 C680 1.350 . S
C675 N683 1.427 . S
C676 H667 0.930 . S
C676 C674 1.378 . S
C676 C677 1.367 . S
C677 C676 1.367 . S
C677 C679 1.433 . S
C678 C674 1.350 . S
C678 C675 1.463 . S
C678 N682 1.427 . S
C679 H669 0.929 . S
C679 C677 1.433 . S
C679 N682 1.384 . S
C680 H671 0.929 . S
C680 C672 1.378 . S
C680 C675 1.350 . S
C681 H668 0.929 . S
C681 C673 1.433 1_554 S
C681 N683 1.384 1_554 S
N682 C678 1.427 . S
N682 C679 1.384 . S
N683 C675 1.427 . S
N683 C681 1.384 1_556 S
H684 C690 0.930 . S
H685 C694 0.930 . S
H686 C699 0.929 . S
H687 C697 0.929 . S
H688 C692 0.929 . S
H689 C698 0.929 . S
C690 H684 0.930 . S
C690 C691 1.367 . S
C690 C698 1.378 . S
C691 C690 1.367 . S
C691 C699 1.433 . S
C692 H688 0.929 . S
C692 C694 1.378 . S
C692 C696 1.350 . S
C693 C696 1.463 . S
C693 C698 1.350 . S
C693 N701 1.427 . S
C694 H685 0.930 . S
C694 C692 1.378 . S
C694 C695 1.367 . S
C695 C694 1.367 . S
C695 C697 1.433 . S
C696 C692 1.350 . S
C696 C693 1.463 . S
C696 N700 1.427 . S
C697 H687 0.929 . S
C697 C695 1.433 . S
C697 N700 1.384 . S
C698 H689 0.929 . S
C698 C690 1.378 . S
C698 C693 1.350 . S
C699 H686 0.929 . S
C699 C691 1.433 . S
C699 N701 1.384 . S
N700 C696 1.427 . S
N700 C697 1.384 . S
N701 C693 1.427 . S
N701 C699 1.384 . S
H702 C708 0.930 . S
H703 C712 0.930 . S
H704 C717 0.929 . S
H705 C715 0.929 . S
H706 C710 0.929 . S
H707 C716 0.929 . S
C708 H702 0.930 . S
C708 C709 1.367 . S
C708 C716 1.378 . S
C709 C708 1.367 . S
C709 C717 1.433 . S
C710 H706 0.929 . S
C710 C712 1.378 . S
C710 C714 1.350 . S
C711 C714 1.463 . S
C711 C716 1.350 . S
C711 N719 1.427 . S
C712 H703 0.930 . S
C712 C710 1.378 . S
C712 C713 1.367 . S
C713 C712 1.367 . S
C713 C715 1.433 . S
C714 C710 1.350 . S
C714 C711 1.463 . S
C714 N718 1.427 . S
C715 H705 0.929 . S
C715 C713 1.433 . S
C715 N718 1.384 . S
C716 H707 0.929 . S
C716 C708 1.378 . S
C716 C711 1.350 . S
C717 H704 0.929 . S
C717 C709 1.433 . S
C717 N719 1.384 . S
N718 C714 1.427 . S
N718 C715 1.384 . S
N719 C711 1.427 . S
N719 C717 1.384 . S
H720 C726 0.930 . S
H721 C730 0.930 . S
H722 C735 0.929 . S
H723 C733 0.929 . S
H724 C728 0.929 . S
H725 C734 0.929 . S
C726 H720 0.930 . S
C726 C727 1.367 . S
C726 C734 1.378 . S
C727 C726 1.367 . S
C727 C735 1.433 . S
C728 H724 0.929 . S
C728 C730 1.378 . S
C728 C732 1.350 . S
C729 C732 1.463 . S
C729 C734 1.350 . S
C729 N737 1.427 . S
C730 H721 0.930 . S
C730 C728 1.378 . S
C730 C731 1.367 . S
C731 C730 1.367 . S
C731 C733 1.433 . S
C732 C728 1.350 . S
C732 C729 1.463 . S
C732 N736 1.427 . S
C733 H723 0.929 . S
C733 C731 1.433 . S
C733 N736 1.384 . S
C734 H725 0.929 . S
C734 C726 1.378 . S
C734 C729 1.350 . S
C735 H722 0.929 . S
C735 C727 1.433 . S
C735 N737 1.384 . S
N736 C732 1.427 . S
N736 C733 1.384 . S
N737 C729 1.427 . S
N737 C735 1.384 . S
H738 C744 0.930 . S
H739 C748 0.930 . S
H740 C753 0.929 . S
H741 C751 0.929 . S
H742 C746 0.929 . S
H743 C752 0.929 . S
C744 H738 0.930 . S
C744 C745 1.367 . S
C744 C752 1.378 . S
C745 C744 1.367 . S
C745 C753 1.433 . S
C746 H742 0.929 . S
C746 C748 1.378 . S
C746 C750 1.350 . S
C747 C750 1.463 . S
C747 C752 1.350 . S
C747 N755 1.427 . S
C748 H739 0.930 . S
C748 C746 1.378 . S
C748 C749 1.367 . S
C749 C748 1.367 . S
C749 C751 1.433 . S
C750 C746 1.350 . S
C750 C747 1.463 . S
C750 N754 1.427 . S
C751 H741 0.929 . S
C751 C749 1.433 . S
C751 N754 1.384 . S
C752 H743 0.929 . S
C752 C744 1.378 . S
C752 C747 1.350 . S
C753 H740 0.929 . S
C753 C745 1.433 . S
C753 N755 1.384 . S
N754 C750 1.427 . S
N754 C751 1.384 . S
N755 C747 1.427 . S
N755 C753 1.384 . S
H756 C762 0.930 . S
H757 C766 0.930 . S
H758 C771 0.929 . S
H759 C769 0.929 . S
H760 C764 0.929 . S
H761 C770 0.929 . S
C762 H756 0.930 . S
C762 C763 1.367 . S
C762 C770 1.378 . S
C763 C762 1.367 . S
C763 C771 1.433 . S
C764 H760 0.929 . S
C764 C766 1.378 . S
C764 C768 1.350 . S
C765 C768 1.463 . S
C765 C770 1.350 . S
C765 N773 1.427 . S
C766 H757 0.930 . S
C766 C764 1.378 . S
C766 C767 1.367 . S
C767 C766 1.367 . S
C767 C769 1.433 . S
C768 C764 1.350 . S
C768 C765 1.463 . S
C768 N772 1.427 . S
C769 H759 0.929 . S
C769 C767 1.433 . S
C769 N772 1.384 . S
C770 H761 0.929 . S
C770 C762 1.378 . S
C770 C765 1.350 . S
C771 H758 0.929 . S
C771 C763 1.433 . S
C771 N773 1.384 . S
N772 C768 1.427 . S
N772 C769 1.384 . S
N773 C765 1.427 . S
N773 C771 1.384 . S
H774 C780 0.930 . S
H775 C784 0.930 . S
H776 C789 0.929 . S
H777 C787 0.929 . S
H778 C782 0.929 . S
H779 C788 0.929 . S
C780 H774 0.930 . S
C780 C781 1.367 . S
C780 C788 1.378 . S
C781 C780 1.367 . S
C781 C789 1.433 . S
C782 H778 0.929 . S
C782 C784 1.378 . S
C782 C786 1.350 . S
C783 C786 1.463 . S
C783 C788 1.350 . S
C783 N791 1.427 . S
C784 H775 0.930 . S
C784 C782 1.378 . S
C784 C785 1.367 . S
C785 C784 1.367 . S
C785 C787 1.433 . S
C786 C782 1.350 . S
C786 C783 1.463 . S
C786 N790 1.427 . S
C787 H777 0.929 . S
C787 C785 1.433 . S
C787 N790 1.384 . S
C788 H779 0.929 . S
C788 C780 1.378 . S
C788 C783 1.350 . S
C789 H776 0.929 . S
C789 C781 1.433 . S
C789 N791 1.384 . S
N790 C786 1.427 . S
N790 C787 1.384 . S
N791 C783 1.427 . S
N791 C789 1.384 . S
H792 C798 0.930 . S
H793 C802 0.930 . S
H794 C807 0.929 . S
H795 C805 0.929 . S
H796 C800 0.929 . S
H797 C806 0.929 . S
C798 H792 0.930 . S
C798 C799 1.367 . S
C798 C806 1.378 . S
C799 C798 1.367 . S
C799 C807 1.433 . S
C800 H796 0.929 . S
C800 C802 1.378 . S
C800 C804 1.350 . S
C801 C804 1.463 . S
C801 C806 1.350 . S
C801 N809 1.427 . S
C802 H793 0.930 . S
C802 C800 1.378 . S
C802 C803 1.367 . S
C803 C802 1.367 . S
C803 C805 1.433 . S
C804 C800 1.350 . S
C804 C801 1.463 . S
C804 N808 1.427 . S
C805 H795 0.929 . S
C805 C803 1.433 . S
C805 N808 1.384 . S
C806 H797 0.929 . S
C806 C798 1.378 . S
C806 C801 1.350 . S
C807 H794 0.929 . S
C807 C799 1.433 . S
C807 N809 1.384 . S
N808 C804 1.427 . S
N808 C805 1.384 . S
N809 C801 1.427 . S
N809 C807 1.384 . S
H810 C816 0.930 . S
H811 C820 0.930 . S
H812 C825 0.929 . S
H813 C823 0.929 . S
H814 C818 0.929 . S
H815 C824 0.929 . S
C816 H810 0.930 . S
C816 C817 1.367 . S
C816 C824 1.378 . S
C817 C816 1.367 . S
C817 C825 1.433 . S
C818 H814 0.929 . S
C818 C820 1.378 . S
C818 C822 1.350 . S
C819 C822 1.463 . S
C819 C824 1.350 . S
C819 N827 1.427 . S
C820 H811 0.930 . S
C820 C818 1.378 . S
C820 C821 1.367 . S
C821 C820 1.367 . S
C821 C823 1.433 . S
C822 C818 1.350 . S
C822 C819 1.463 . S
C822 N826 1.427 . S
C823 H813 0.929 . S
C823 C821 1.433 . S
C823 N826 1.384 . S
C824 H815 0.929 . S
C824 C816 1.378 . S
C824 C819 1.350 . S
C825 H812 0.929 . S
C825 C817 1.433 . S
C825 N827 1.384 . S
N826 C822 1.427 . S
N826 C823 1.384 . S
N827 C819 1.427 . S
N827 C825 1.384 . S
H828 C834 0.930 . S
H829 C838 0.930 . S
H830 C843 0.929 . S
H831 C841 0.929 . S
H832 C836 0.929 . S
H833 C842 0.929 . S
C834 H828 0.930 . S
C834 C835 1.367 . S
C834 C842 1.378 . S
C835 C834 1.367 . S
C835 C843 1.433 . S
C836 H832 0.929 . S
C836 C838 1.378 . S
C836 C840 1.350 . S
C837 C840 1.463 . S
C837 C842 1.350 . S
C837 N845 1.427 . S
C838 H829 0.930 . S
C838 C836 1.378 . S
C838 C839 1.367 . S
C839 C838 1.367 . S
C839 C841 1.433 . S
C840 C836 1.350 . S
C840 C837 1.463 . S
C840 N844 1.427 . S
C841 H831 0.929 . S
C841 C839 1.433 . S
C841 N844 1.384 . S
C842 H833 0.929 . S
C842 C834 1.378 . S
C842 C837 1.350 . S
C843 H830 0.929 . S
C843 C835 1.433 . S
C843 N845 1.384 . S
N844 C840 1.427 . S
N844 C841 1.384 . S
N845 C837 1.427 . S
N845 C843 1.384 . S
H846 C852 0.930 . S
H847 C856 0.930 . S
H848 C861 0.929 . S
H849 C859 0.929 1_554 S
H850 C854 0.929 . S
H851 C860 0.929 . S
C852 H846 0.930 . S
C852 C853 1.367 . S
C852 C860 1.378 . S
C853 C852 1.367 . S
C853 C861 1.433 . S
C854 H850 0.929 . S
C854 C856 1.378 . S
C854 C858 1.350 . S
C855 C858 1.463 . S
C855 C860 1.350 . S
C855 N863 1.427 . S
C856 H847 0.930 . S
C856 C854 1.378 . S
C856 C857 1.367 . S
C857 C856 1.367 . S
C857 C859 1.433 . S
C858 C854 1.350 . S
C858 C855 1.463 . S
C858 N862 1.427 . S
C859 H849 0.929 1_556 S
C859 C857 1.433 . S
C859 N862 1.384 . S
C860 H851 0.929 . S
C860 C852 1.378 . S
C860 C855 1.350 . S
C861 H848 0.929 . S
C861 C853 1.433 . S
C861 N863 1.384 . S
N862 C858 1.427 . S
N862 C859 1.384 . S
N863 C855 1.427 . S
N863 C861 1.384 . S
H864 C870 0.930 . S
H865 C874 0.930 1_554 S
H866 C879 0.929 . S
H867 C877 0.929 . S
H868 C872 0.929 1_554 S
H869 C878 0.929 . S
C870 H864 0.930 . S
C870 C871 1.367 . S
C870 C878 1.378 . S
C871 C870 1.367 . S
C871 C879 1.433 . S
C872 H868 0.929 1_556 S
C872 C874 1.378 . S
C872 C876 1.350 . S
C873 C876 1.463 . S
C873 C878 1.350 . S
C873 N881 1.427 . S
C874 H865 0.930 1_556 S
C874 C872 1.378 . S
C874 C875 1.367 . S
C875 C874 1.367 . S
C875 C877 1.433 . S
C876 C872 1.350 . S
C876 C873 1.463 . S
C876 N880 1.427 . S
C877 H867 0.929 . S
C877 C875 1.433 . S
C877 N880 1.384 . S
C878 H869 0.929 . S
C878 C870 1.378 . S
C878 C873 1.350 . S
C879 H866 0.929 . S
C879 C871 1.433 . S
C879 N881 1.384 . S
N880 C876 1.427 . S
N880 C877 1.384 . S
N881 C873 1.427 . S
N881 C879 1.384 . S
H882 C888 0.930 . S
H883 C892 0.930 . S
H884 C897 0.929 . S
H885 C895 0.929 . S
H886 C890 0.929 . S
H887 C896 0.929 . S
C888 H882 0.930 . S
C888 C889 1.367 . S
C888 C896 1.378 . S
C889 C888 1.367 . S
C889 C897 1.433 . S
C890 H886 0.929 . S
C890 C892 1.378 . S
C890 C894 1.350 . S
C891 C894 1.463 . S
C891 C896 1.350 . S
C891 N899 1.427 . S
C892 H883 0.930 . S
C892 C890 1.378 . S
C892 C893 1.367 . S
C893 C892 1.367 . S
C893 C895 1.433 . S
C894 C890 1.350 . S
C894 C891 1.463 . S
C894 N898 1.427 . S
C895 H885 0.929 . S
C895 C893 1.433 . S
C895 N898 1.384 . S
C896 H887 0.929 . S
C896 C888 1.378 . S
C896 C891 1.350 . S
C897 H884 0.929 . S
C897 C889 1.433 . S
C897 N899 1.384 . S
N898 C894 1.427 . S
N898 C895 1.384 . S
N899 C891 1.427 . S
N899 C897 1.384 . S
H900 C906 0.930 . S
H901 C910 0.930 . S
H902 C915 0.929 . S
H903 C913 0.929 . S
H904 C908 0.929 . S
H905 C914 0.929 . S
C906 H900 0.930 . S
C906 C907 1.367 . S
C906 C914 1.378 . S
C907 C906 1.367 . S
C907 C915 1.433 . S
C908 H904 0.929 . S
C908 C910 1.378 . S
C908 C912 1.350 . S
C909 C912 1.463 . S
C909 C914 1.350 . S
C909 N917 1.427 . S
C910 H901 0.930 . S
C910 C908 1.378 . S
C910 C911 1.367 . S
C911 C910 1.367 . S
C911 C913 1.433 . S
C912 C908 1.350 . S
C912 C909 1.463 . S
C912 N916 1.427 . S
C913 H903 0.929 . S
C913 C911 1.433 . S
C913 N916 1.384 . S
C914 H905 0.929 . S
C914 C906 1.378 . S
C914 C909 1.350 . S
C915 H902 0.929 . S
C915 C907 1.433 . S
C915 N917 1.384 . S
N916 C912 1.427 . S
N916 C913 1.384 . S
N917 C909 1.427 . S
N917 C915 1.384 . S
H918 C924 0.930 . S
H919 C928 0.930 . S
H920 C933 0.929 1_556 S
H921 C931 0.929 . S
H922 C926 0.929 . S
H923 C932 0.929 . S
C924 H918 0.930 . S
C924 C925 1.367 . S
C924 C932 1.378 . S
C925 C924 1.367 . S
C925 C933 1.433 . S
C926 H922 0.929 . S
C926 C928 1.378 . S
C926 C930 1.350 . S
C927 C930 1.463 . S
C927 C932 1.350 . S
C927 N935 1.427 . S
C928 H919 0.930 . S
C928 C926 1.378 . S
C928 C929 1.367 . S
C929 C928 1.367 . S
C929 C931 1.433 . S
C930 C926 1.350 . S
C930 C927 1.463 . S
C930 N934 1.427 . S
C931 H921 0.929 . S
C931 C929 1.433 . S
C931 N934 1.384 . S
C932 H923 0.929 . S
C932 C924 1.378 . S
C932 C927 1.350 . S
C933 H920 0.929 1_554 S
C933 C925 1.433 . S
C933 N935 1.384 . S
N934 C930 1.427 . S
N934 C931 1.384 . S
N935 C927 1.427 . S
N935 C933 1.384 . S
H936 C942 0.930 . S
H937 C946 0.930 . S
H938 C951 0.929 . S
H939 C949 0.929 1_556 S
H940 C944 0.929 . S
H941 C950 0.929 . S
C942 H936 0.930 . S
C942 C943 1.367 . S
C942 C950 1.378 . S
C943 C942 1.367 . S
C943 C951 1.433 . S
C944 H940 0.929 . S
C944 C946 1.378 . S
C944 C948 1.350 . S
C945 C948 1.463 . S
C945 C950 1.350 . S
C945 N953 1.427 . S
C946 H937 0.930 . S
C946 C944 1.378 . S
C946 C947 1.367 . S
C947 C946 1.367 . S
C947 C949 1.433 . S
C948 C944 1.350 . S
C948 C945 1.463 . S
C948 N952 1.427 . S
C949 H939 0.929 1_554 S
C949 C947 1.433 . S
C949 N952 1.384 . S
C950 H941 0.929 . S
C950 C942 1.378 . S
C950 C945 1.350 . S
C951 H938 0.929 . S
C951 C943 1.433 . S
C951 N953 1.384 . S
N952 C948 1.427 . S
N952 C949 1.384 . S
N953 C945 1.427 . S
N953 C951 1.384 . S
H954 C960 0.930 . S
H955 C964 0.930 . S
H956 C969 0.929 . S
H957 C967 0.929 . S
H958 C962 0.929 . S
H959 C968 0.929 . S
C960 H954 0.930 . S
C960 C961 1.367 . S
C960 C968 1.378 . S
C961 C960 1.367 . S
C961 C969 1.433 . S
C962 H958 0.929 . S
C962 C964 1.378 . S
C962 C966 1.350 . S
C963 C966 1.463 . S
C963 C968 1.350 . S
C963 N971 1.427 . S
C964 H955 0.930 . S
C964 C962 1.378 . S
C964 C965 1.367 . S
C965 C964 1.367 . S
C965 C967 1.433 . S
C966 C962 1.350 . S
C966 C963 1.463 . S
C966 N970 1.427 . S
C967 H957 0.929 . S
C967 C965 1.433 . S
C967 N970 1.384 . S
C968 H959 0.929 . S
C968 C960 1.378 . S
C968 C963 1.350 . S
C969 H956 0.929 . S
C969 C961 1.433 . S
C969 N971 1.384 . S
N970 C966 1.427 . S
N970 C967 1.384 . S
N971 C963 1.427 . S
N971 C969 1.384 . S
H972 C978 0.930 . S
H973 C982 0.930 . S
H974 C987 0.929 . S
H975 C985 0.929 . S
H976 C980 0.929 . S
H977 C986 0.929 . S
C978 H972 0.930 . S
C978 C979 1.367 . S
C978 C986 1.378 . S
C979 C978 1.367 . S
C979 C987 1.433 . S
C980 H976 0.929 . S
C980 C982 1.378 . S
C980 C984 1.350 . S
C981 C984 1.463 . S
C981 C986 1.350 . S
C981 N989 1.427 . S
C982 H973 0.930 . S
C982 C980 1.378 . S
C982 C983 1.367 . S
C983 C982 1.367 . S
C983 C985 1.433 . S
C984 C980 1.350 . S
C984 C981 1.463 . S
C984 N988 1.427 . S
C985 H975 0.929 . S
C985 C983 1.433 . S
C985 N988 1.384 . S
C986 H977 0.929 . S
C986 C978 1.378 . S
C986 C981 1.350 . S
C987 H974 0.929 . S
C987 C979 1.433 . S
C987 N989 1.384 . S
N988 C984 1.427 . S
N988 C985 1.384 . S
N989 C981 1.427 . S
N989 C987 1.384 . S
H990 C996 0.930 . S
H991 C1000 0.930 . S
H992 C1005 0.929 . S
H993 C1003 0.929 . S
H994 C998 0.929 . S
H995 C1004 0.929 . S
C996 H990 0.930 . S
C996 C997 1.367 . S
C996 C1004 1.378 . S
C997 C996 1.367 . S
C997 C1005 1.433 . S
C998 H994 0.929 . S
C998 C1000 1.378 . S
C998 C1002 1.350 . S
C999 C1002 1.463 . S
C999 C1004 1.350 . S
C999 N1007 1.427 . S
C1000 H991 0.930 . S
C1000 C998 1.378 . S
C1000 C1001 1.367 . S
C1001 C1000 1.367 . S
C1001 C1003 1.433 . S
C1002 C998 1.350 . S
C1002 C999 1.463 . S
C1002 N1006 1.427 . S
C1003 H993 0.929 . S
C1003 C1001 1.433 . S
C1003 N1006 1.384 . S
C1004 H995 0.929 . S
C1004 C996 1.378 . S
C1004 C999 1.350 . S
C1005 H992 0.929 . S
C1005 C997 1.433 . S
C1005 N1007 1.384 . S
N1006 C1002 1.427 . S
N1006 C1003 1.384 . S
N1007 C999 1.427 . S
N1007 C1005 1.384 . S
H1008 C1014 0.930 . S
H1009 C1018 0.930 . S
H1010 C1023 0.929 1_655 S
H1011 C1021 0.929 . S
H1012 C1016 0.929 1_554 S
H1013 C1022 0.929 . S
C1014 H1008 0.930 . S
C1014 C1015 1.367 . S
C1014 C1022 1.378 . S
C1015 C1014 1.367 . S
C1015 C1023 1.433 . S
C1016 H1012 0.929 1_556 S
C1016 C1018 1.378 . S
C1016 C1020 1.350 1_656 S
C1017 C1020 1.463 . S
C1017 C1022 1.350 . S
C1017 N1025 1.427 . S
C1018 H1009 0.930 . S
C1018 C1016 1.378 . S
C1018 C1019 1.367 1_655 S
C1019 C1018 1.367 1_455 S
C1019 C1021 1.433 . S
C1020 C1016 1.350 1_454 S
C1020 C1017 1.463 . S
C1020 N1024 1.427 1_554 S
C1021 H1011 0.929 . S
C1021 C1019 1.433 . S
C1021 N1024 1.384 . S
C1022 H1013 0.929 . S
C1022 C1014 1.378 . S
C1022 C1017 1.350 . S
C1023 H1010 0.929 1_455 S
C1023 C1015 1.433 . S
C1023 N1025 1.384 . S
N1024 C1020 1.427 1_556 S
N1024 C1021 1.384 . S
N1025 C1017 1.427 . S
N1025 C1023 1.384 . S
H1026 C1032 0.930 . S
H1027 C1036 0.930 . S
H1028 C1041 0.929 . S
H1029 C1039 0.929 . S
H1030 C1034 0.929 1_554 S
H1031 C1040 0.929 . S
C1032 H1026 0.930 . S
C1032 C1033 1.367 . S
C1032 C1040 1.378 . S
C1033 C1032 1.367 . S
C1033 C1041 1.433 . S
C1034 H1030 0.929 1_556 S
C1034 C1036 1.378 . S
C1034 C1038 1.350 1_556 S
C1035 C1038 1.463 . S
C1035 C1040 1.350 . S
C1035 N1043 1.427 . S
C1036 H1027 0.930 . S
C1036 C1034 1.378 . S
C1036 C1037 1.367 . S
C1037 C1036 1.367 . S
C1037 C1039 1.433 . S
C1038 C1034 1.350 1_554 S
C1038 C1035 1.463 . S
C1038 N1042 1.427 1_554 S
C1039 H1029 0.929 . S
C1039 C1037 1.433 . S
C1039 N1042 1.384 . S
C1040 H1031 0.929 . S
C1040 C1032 1.378 . S
C1040 C1035 1.350 . S
C1041 H1028 0.929 . S
C1041 C1033 1.433 . S
C1041 N1043 1.384 . S
N1042 C1038 1.427 1_556 S
N1042 C1039 1.384 . S
N1043 C1035 1.427 . S
N1043 C1041 1.384 . S
H1044 C1050 0.930 . S
H1045 C1054 0.930 . S
H1046 C1059 0.929 . S
H1047 C1057 0.929 1_565 S
H1048 C1052 0.929 1_554 S
H1049 C1058 0.929 . S
C1050 H1044 0.930 . S
C1050 C1051 1.367 1_565 S
C1050 C1058 1.378 . S
C1051 C1050 1.367 1_545 S
C1051 C1059 1.433 . S
C1052 H1048 0.929 1_556 S
C1052 C1054 1.378 . S
C1052 C1056 1.350 1_556 S
C1053 C1056 1.463 . S
C1053 C1058 1.350 1_545 S
C1053 N1061 1.427 . S
C1054 H1045 0.930 . S
C1054 C1052 1.378 . S
C1054 C1055 1.367 . S
C1055 C1054 1.367 . S
C1055 C1057 1.433 . S
C1056 C1052 1.350 1_554 S
C1056 C1053 1.463 . S
C1056 N1060 1.415 1_544 S
C1057 H1047 0.929 1_545 S
C1057 C1055 1.433 . S
C1057 N1060 1.383 1_545 S
C1058 H1049 0.929 . S
C1058 C1050 1.378 . S
C1058 C1053 1.350 1_565 S
C1059 H1046 0.929 . S
C1059 C1051 1.433 . S
C1059 N1061 1.384 . S
N1060 C1056 1.415 1_566 S
N1060 C1057 1.383 1_565 S
N1061 C1053 1.427 . S
N1061 C1059 1.384 . S
H1062 C1068 0.930 . S
H1063 C1072 0.930 . S
H1064 C1077 0.929 . S
H1065 C1075 0.929 . S
H1066 C1070 0.929 1_556 S
H1067 C1076 0.929 . S
C1068 H1062 0.930 . S
C1068 C1069 1.367 . S
C1068 C1076 1.378 . S
C1069 C1068 1.367 . S
C1069 C1077 1.433 . S
C1070 H1066 0.929 1_554 S
C1070 C1072 1.378 . S
C1070 C1074 1.350 1_554 S
C1071 C1074 1.463 . S
C1071 C1076 1.350 . S
C1071 N1079 1.427 . S
C1072 H1063 0.930 . S
C1072 C1070 1.378 . S
C1072 C1073 1.367 . S
C1073 C1072 1.367 . S
C1073 C1075 1.433 . S
C1074 C1070 1.350 1_556 S
C1074 C1071 1.463 . S
C1074 N1078 1.427 1_556 S
C1075 H1065 0.929 . S
C1075 C1073 1.433 . S
C1075 N1078 1.384 . S
C1076 H1067 0.929 . S
C1076 C1068 1.378 . S
C1076 C1071 1.350 . S
C1077 H1064 0.929 . S
C1077 C1069 1.433 . S
C1077 N1079 1.384 . S
N1078 C1074 1.427 1_554 S
N1078 C1075 1.384 . S
N1079 C1071 1.427 . S
N1079 C1077 1.384 . S
H1080 C1086 0.930 . S
H1081 C1090 0.930 . S
H1082 C1095 0.929 . S
H1083 C1093 0.929 . S
H1084 C1088 0.929 . S
H1085 C1094 0.929 1_556 S
C1086 H1080 0.930 . S
C1086 C1087 1.367 . S
C1086 C1094 1.378 . S
C1087 C1086 1.367 . S
C1087 C1095 1.433 . S
C1088 H1084 0.929 . S
C1088 C1090 1.378 . S
C1088 C1092 1.350 . S
C1089 C1092 1.463 . S
C1089 C1094 1.350 1_556 S
C1089 N1097 1.427 1_556 S
C1090 H1081 0.930 . S
C1090 C1088 1.378 . S
C1090 C1091 1.367 . S
C1091 C1090 1.367 . S
C1091 C1093 1.433 . S
C1092 C1088 1.350 . S
C1092 C1089 1.463 . S
C1092 N1096 1.427 . S
C1093 H1083 0.929 . S
C1093 C1091 1.433 . S
C1093 N1096 1.384 . S
C1094 H1085 0.929 1_554 S
C1094 C1086 1.378 . S
C1094 C1089 1.350 1_554 S
C1095 H1082 0.929 . S
C1095 C1087 1.433 . S
C1095 N1097 1.384 . S
N1096 C1092 1.427 . S
N1096 C1093 1.384 . S
N1097 C1089 1.427 1_554 S
N1097 C1095 1.384 . S
H1098 C1104 0.930 . S
H1099 C1108 0.930 . S
H1100 C1113 0.929 . S
H1101 C1111 0.929 1_565 S
H1102 C1106 0.929 . S
H1103 C1112 0.929 1_556 S
C1104 H1098 0.930 . S
C1104 C1105 1.367 1_565 S
C1104 C1112 1.378 . S
C1105 C1104 1.367 1_545 S
C1105 C1113 1.433 . S
C1106 H1102 0.929 . S
C1106 C1108 1.378 . S
C1106 C1110 1.350 . S
C1107 C1110 1.463 . S
C1107 C1112 1.349 1_546 S
C1107 N1115 1.427 1_556 S
C1108 H1099 0.930 . S
C1108 C1106 1.378 . S
C1108 C1109 1.367 . S
C1109 C1108 1.367 . S
C1109 C1111 1.433 . S
C1110 C1106 1.350 . S
C1110 C1107 1.463 . S
C1110 N1114 1.427 . S
C1111 H1101 0.929 1_545 S
C1111 C1109 1.433 . S
C1111 N1114 1.384 . S
C1112 H1103 0.929 1_554 S
C1112 C1104 1.378 . S
C1112 C1107 1.349 1_564 S
C1113 H1100 0.929 . S
C1113 C1105 1.433 . S
C1113 N1115 1.384 . S
N1114 C1110 1.427 . S
N1114 C1111 1.384 . S
N1115 C1107 1.427 1_554 S
N1115 C1113 1.384 . S
H1116 C1122 0.930 . S
H1117 C1126 0.930 . S
H1118 C1131 0.929 . S
H1119 C1129 0.929 . S
H1120 C1124 0.929 . S
H1121 C1130 0.929 . S
C1122 H1116 0.930 . S
C1122 C1123 1.367 . S
C1122 C1130 1.378 . S
C1123 C1122 1.367 . S
C1123 C1131 1.433 . S
C1124 H1120 0.929 . S
C1124 C1126 1.378 . S
C1124 C1128 1.350 . S
C1125 C1128 1.463 . S
C1125 C1130 1.350 . S
C1125 N1133 1.427 . S
C1126 H1117 0.930 . S
C1126 C1124 1.378 . S
C1126 C1127 1.367 . S
C1127 C1126 1.367 . S
C1127 C1129 1.433 . S
C1128 C1124 1.350 . S
C1128 C1125 1.463 . S
C1128 N1132 1.427 . S
C1129 H1119 0.929 . S
C1129 C1127 1.433 . S
C1129 N1132 1.384 . S
C1130 H1121 0.929 . S
C1130 C1122 1.378 . S
C1130 C1125 1.350 . S
C1131 H1118 0.929 . S
C1131 C1123 1.433 . S
C1131 N1133 1.384 . S
N1132 C1128 1.427 . S
N1132 C1129 1.384 . S
N1133 C1125 1.427 . S
N1133 C1131 1.384 . S
H1134 C1140 0.930 . S
H1135 C1144 0.930 . S
H1136 C1149 0.929 . S
H1137 C1147 0.929 . S
H1138 C1142 0.929 . S
H1139 C1148 0.929 . S
C1140 H1134 0.930 . S
C1140 C1141 1.367 . S
C1140 C1148 1.378 . S
C1141 C1140 1.367 . S
C1141 C1149 1.433 . S
C1142 H1138 0.929 . S
C1142 C1144 1.378 . S
C1142 C1146 1.350 . S
C1143 C1146 1.463 . S
C1143 C1148 1.350 . S
C1143 N1151 1.427 . S
C1144 H1135 0.930 . S
C1144 C1142 1.378 . S
C1144 C1145 1.367 . S
C1145 C1144 1.367 . S
C1145 C1147 1.433 . S
C1146 C1142 1.350 . S
C1146 C1143 1.463 . S
C1146 N1150 1.427 . S
C1147 H1137 0.929 . S
C1147 C1145 1.433 . S
C1147 N1150 1.384 . S
C1148 H1139 0.929 . S
C1148 C1140 1.378 . S
C1148 C1143 1.350 . S
C1149 H1136 0.929 . S
C1149 C1141 1.433 . S
C1149 N1151 1.384 . S
N1150 C1146 1.427 . S
N1150 C1147 1.384 . S
N1151 C1143 1.427 . S
N1151 C1149 1.384 . S
H1152 C1158 0.930 . S
H1153 C1162 0.930 . S
H1154 C1167 0.929 . S
H1155 C1165 0.929 . S
H1156 C1160 0.929 . S
H1157 C1166 0.929 . S
C1158 H1152 0.930 . S
C1158 C1159 1.367 . S
C1158 C1166 1.378 . S
C1159 C1158 1.367 . S
C1159 C1167 1.433 . S
C1160 H1156 0.929 . S
C1160 C1162 1.378 . S
C1160 C1164 1.350 . S
C1161 C1164 1.463 . S
C1161 C1166 1.350 . S
C1161 N1169 1.427 . S
C1162 H1153 0.930 . S
C1162 C1160 1.378 . S
C1162 C1163 1.367 . S
C1163 C1162 1.367 . S
C1163 C1165 1.433 . S
C1164 C1160 1.350 . S
C1164 C1161 1.463 . S
C1164 N1168 1.427 . S
C1165 H1155 0.929 . S
C1165 C1163 1.433 . S
C1165 N1168 1.384 . S
C1166 H1157 0.929 . S
C1166 C1158 1.378 . S
C1166 C1161 1.350 . S
C1167 H1154 0.929 . S
C1167 C1159 1.433 . S
C1167 N1169 1.384 . S
N1168 C1164 1.427 . S
N1168 C1165 1.384 . S
N1169 C1161 1.427 . S
N1169 C1167 1.384 . S
H1170 C1176 0.930 . S
H1171 C1180 0.930 . S
H1172 C1185 0.929 . S
H1173 C1183 0.929 . S
H1174 C1178 0.929 . S
H1175 C1184 0.929 . S
C1176 H1170 0.930 . S
C1176 C1177 1.367 . S
C1176 C1184 1.378 . S
C1177 C1176 1.367 . S
C1177 C1185 1.433 . S
C1178 H1174 0.929 . S
C1178 C1180 1.378 . S
C1178 C1182 1.350 . S
C1179 C1182 1.463 . S
C1179 C1184 1.350 . S
C1179 N1187 1.427 . S
C1180 H1171 0.930 . S
C1180 C1178 1.378 . S
C1180 C1181 1.367 . S
C1181 C1180 1.367 . S
C1181 C1183 1.433 . S
C1182 C1178 1.350 . S
C1182 C1179 1.463 . S
C1182 N1186 1.427 . S
C1183 H1173 0.929 . S
C1183 C1181 1.433 . S
C1183 N1186 1.384 . S
C1184 H1175 0.929 . S
C1184 C1176 1.378 . S
C1184 C1179 1.350 . S
C1185 H1172 0.929 . S
C1185 C1177 1.433 . S
C1185 N1187 1.384 . S
N1186 C1182 1.427 . S
N1186 C1183 1.384 . S
N1187 C1179 1.427 . S
N1187 C1185 1.384 . S
H1188 C1194 0.930 . S
H1189 C1198 0.930 . S
H1190 C1203 0.929 . S
H1191 C1201 0.929 . S
H1192 C1196 0.929 . S
H1193 C1202 0.929 . S
C1194 H1188 0.930 . S
C1194 C1195 1.367 . S
C1194 C1202 1.378 . S
C1195 C1194 1.367 . S
C1195 C1203 1.433 . S
C1196 H1192 0.929 . S
C1196 C1198 1.378 . S
C1196 C1200 1.350 . S
C1197 C1200 1.463 . S
C1197 C1202 1.350 . S
C1197 N1205 1.427 . S
C1198 H1189 0.930 . S
C1198 C1196 1.378 . S
C1198 C1199 1.367 . S
C1199 C1198 1.367 . S
C1199 C1201 1.433 . S
C1200 C1196 1.350 . S
C1200 C1197 1.463 . S
C1200 N1204 1.427 . S
C1201 H1191 0.929 . S
C1201 C1199 1.433 . S
C1201 N1204 1.384 . S
C1202 H1193 0.929 . S
C1202 C1194 1.378 . S
C1202 C1197 1.350 . S
C1203 H1190 0.929 . S
C1203 C1195 1.433 . S
C1203 N1205 1.384 . S
N1204 C1200 1.427 . S
N1204 C1201 1.384 . S
N1205 C1197 1.427 . S
N1205 C1203 1.384 . S
H1206 C1212 0.930 . S
H1207 C1216 0.930 . S
H1208 C1221 0.929 . S
H1209 C1219 0.929 . S
H1210 C1214 0.929 . S
H1211 C1220 0.929 . S
C1212 H1206 0.930 . S
C1212 C1213 1.367 . S
C1212 C1220 1.378 . S
C1213 C1212 1.367 . S
C1213 C1221 1.433 . S
C1214 H1210 0.929 . S
C1214 C1216 1.378 . S
C1214 C1218 1.350 . S
C1215 C1218 1.463 . S
C1215 C1220 1.350 . S
C1215 N1223 1.427 . S
C1216 H1207 0.930 . S
C1216 C1214 1.378 . S
C1216 C1217 1.367 . S
C1217 C1216 1.367 . S
C1217 C1219 1.433 . S
C1218 C1214 1.350 . S
C1218 C1215 1.463 . S
C1218 N1222 1.427 . S
C1219 H1209 0.929 . S
C1219 C1217 1.433 . S
C1219 N1222 1.384 . S
C1220 H1211 0.929 . S
C1220 C1212 1.378 . S
C1220 C1215 1.350 . S
C1221 H1208 0.929 . S
C1221 C1213 1.433 . S
C1221 N1223 1.384 . S
N1222 C1218 1.427 . S
N1222 C1219 1.384 . S
N1223 C1215 1.427 . S
N1223 C1221 1.384 . S
H1224 C1230 0.930 . S
H1225 C1234 0.930 . S
H1226 C1239 0.929 . S
H1227 C1237 0.929 . S
H1228 C1232 0.929 . S
H1229 C1238 0.929 . S
C1230 H1224 0.930 . S
C1230 C1231 1.367 . S
C1230 C1238 1.378 . S
C1231 C1230 1.367 . S
C1231 C1239 1.433 . S
C1232 H1228 0.929 . S
C1232 C1234 1.378 . S
C1232 C1236 1.350 . S
C1233 C1236 1.463 . S
C1233 C1238 1.350 . S
C1233 N1241 1.427 . S
C1234 H1225 0.930 . S
C1234 C1232 1.378 . S
C1234 C1235 1.367 . S
C1235 C1234 1.367 . S
C1235 C1237 1.433 . S
C1236 C1232 1.350 . S
C1236 C1233 1.463 . S
C1236 N1240 1.427 . S
C1237 H1227 0.929 . S
C1237 C1235 1.433 . S
C1237 N1240 1.384 . S
C1238 H1229 0.929 . S
C1238 C1230 1.378 . S
C1238 C1233 1.350 . S
C1239 H1226 0.929 . S
C1239 C1231 1.433 . S
C1239 N1241 1.384 . S
N1240 C1236 1.427 . S
N1240 C1237 1.384 . S
N1241 C1233 1.427 . S
N1241 C1239 1.384 . S
H1242 C1248 0.930 . S
H1243 C1252 0.930 . S
H1244 C1257 0.929 . S
H1245 C1255 0.929 . S
H1246 C1250 0.929 . S
H1247 C1256 0.929 . S
C1248 H1242 0.930 . S
C1248 C1249 1.367 . S
C1248 C1256 1.378 . S
C1249 C1248 1.367 . S
C1249 C1257 1.433 . S
C1250 H1246 0.929 . S
C1250 C1252 1.378 . S
C1250 C1254 1.350 . S
C1251 C1254 1.463 . S
C1251 C1256 1.350 . S
C1251 N1259 1.427 . S
C1252 H1243 0.930 . S
C1252 C1250 1.378 . S
C1252 C1253 1.367 . S
C1253 C1252 1.367 . S
C1253 C1255 1.433 . S
C1254 C1250 1.350 . S
C1254 C1251 1.463 . S
C1254 N1258 1.427 . S
C1255 H1245 0.929 . S
C1255 C1253 1.433 . S
C1255 N1258 1.384 . S
C1256 H1247 0.929 . S
C1256 C1248 1.378 . S
C1256 C1251 1.350 . S
C1257 H1244 0.929 . S
C1257 C1249 1.433 . S
C1257 N1259 1.384 . S
N1258 C1254 1.427 . S
N1258 C1255 1.384 . S
N1259 C1251 1.427 . S
N1259 C1257 1.384 . S
H1260 C1266 0.930 . S
H1261 C1270 0.930 . S
H1262 C1275 0.929 . S
H1263 C1273 0.929 . S
H1264 C1268 0.929 . S
H1265 C1274 0.929 . S
C1266 H1260 0.930 . S
C1266 C1267 1.367 . S
C1266 C1274 1.378 . S
C1267 C1266 1.367 . S
C1267 C1275 1.433 . S
C1268 H1264 0.929 . S
C1268 C1270 1.378 . S
C1268 C1272 1.350 . S
C1269 C1272 1.463 . S
C1269 C1274 1.350 . S
C1269 N1277 1.427 . S
C1270 H1261 0.930 . S
C1270 C1268 1.378 . S
C1270 C1271 1.367 . S
C1271 C1270 1.367 . S
C1271 C1273 1.433 . S
C1272 C1268 1.350 . S
C1272 C1269 1.463 . S
C1272 N1276 1.427 . S
C1273 H1263 0.929 . S
C1273 C1271 1.433 . S
C1273 N1276 1.384 . S
C1274 H1265 0.929 . S
C1274 C1266 1.378 . S
C1274 C1269 1.350 . S
C1275 H1262 0.929 . S
C1275 C1267 1.433 . S
C1275 N1277 1.384 . S
N1276 C1272 1.427 . S
N1276 C1273 1.384 . S
N1277 C1269 1.427 . S
N1277 C1275 1.384 . S
H1278 C1284 0.930 . S
H1279 C1288 0.930 . S
H1280 C1293 0.929 . S
H1281 C1291 0.929 . S
H1282 C1286 0.929 . S
H1283 C1292 0.929 . S
C1284 H1278 0.930 . S
C1284 C1285 1.367 . S
C1284 C1292 1.378 . S
C1285 C1284 1.367 . S
C1285 C1293 1.433 . S
C1286 H1282 0.929 . S
C1286 C1288 1.378 . S
C1286 C1290 1.350 . S
C1287 C1290 1.463 . S
C1287 C1292 1.350 . S
C1287 N1295 1.427 . S
C1288 H1279 0.930 . S
C1288 C1286 1.378 . S
C1288 C1289 1.367 . S
C1289 C1288 1.367 . S
C1289 C1291 1.433 . S
C1290 C1286 1.350 . S
C1290 C1287 1.463 . S
C1290 N1294 1.427 . S
C1291 H1281 0.929 . S
C1291 C1289 1.433 . S
C1291 N1294 1.384 . S
C1292 H1283 0.929 . S
C1292 C1284 1.378 . S
C1292 C1287 1.350 . S
C1293 H1280 0.929 . S
C1293 C1285 1.433 . S
C1293 N1295 1.384 . S
N1294 C1290 1.427 . S
N1294 C1291 1.384 . S
N1295 C1287 1.427 . S
N1295 C1293 1.384 . S
H1296 C1302 0.930 . S
H1297 C1306 0.930 . S
H1298 C1311 0.929 . S
H1299 C1309 0.929 . S
H1300 C1304 0.929 . S
H1301 C1310 0.929 . S
C1302 H1296 0.930 . S
C1302 C1303 1.367 . S
C1302 C1310 1.378 . S
C1303 C1302 1.367 . S
C1303 C1311 1.433 . S
C1304 H1300 0.929 . S
C1304 C1306 1.378 . S
C1304 C1308 1.350 . S
C1305 C1308 1.463 . S
C1305 C1310 1.350 . S
C1305 N1313 1.427 . S
C1306 H1297 0.930 . S
C1306 C1304 1.378 . S
C1306 C1307 1.367 . S
C1307 C1306 1.367 . S
C1307 C1309 1.433 . S
C1308 C1304 1.350 . S
C1308 C1305 1.463 . S
C1308 N1312 1.427 . S
C1309 H1299 0.929 . S
C1309 C1307 1.433 . S
C1309 N1312 1.384 . S
C1310 H1301 0.929 . S
C1310 C1302 1.378 . S
C1310 C1305 1.350 . S
C1311 H1298 0.929 . S
C1311 C1303 1.433 . S
C1311 N1313 1.384 . S
N1312 C1308 1.427 . S
N1312 C1309 1.384 . S
N1313 C1305 1.427 . S
N1313 C1311 1.384 . S
H1314 C1320 0.930 . S
H1315 C1324 0.930 . S
H1316 C1329 0.929 . S
H1317 C1327 0.929 . S
H1318 C1322 0.929 . S
H1319 C1328 0.929 . S
C1320 H1314 0.930 . S
C1320 C1321 1.367 . S
C1320 C1328 1.378 . S
C1321 C1320 1.367 . S
C1321 C1329 1.433 . S
C1322 H1318 0.929 . S
C1322 C1324 1.378 . S
C1322 C1326 1.350 . S
C1323 C1326 1.463 . S
C1323 C1328 1.350 . S
C1323 N1331 1.427 . S
C1324 H1315 0.930 . S
C1324 C1322 1.378 . S
C1324 C1325 1.367 . S
C1325 C1324 1.367 . S
C1325 C1327 1.433 . S
C1326 C1322 1.350 . S
C1326 C1323 1.463 . S
C1326 N1330 1.427 . S
C1327 H1317 0.929 . S
C1327 C1325 1.433 . S
C1327 N1330 1.384 . S
C1328 H1319 0.929 . S
C1328 C1320 1.378 . S
C1328 C1323 1.350 . S
C1329 H1316 0.929 . S
C1329 C1321 1.433 . S
C1329 N1331 1.384 . S
N1330 C1326 1.427 . S
N1330 C1327 1.384 . S
N1331 C1323 1.427 . S
N1331 C1329 1.384 . S
C367 C262 1.563 . S
C371 C19 1.678 . S
C385 C39 1.677 . S
C389 C282 1.579 . S
C403 C59 1.680 . S
C407 C242 1.569 . S
C421 C42 1.581 . S
C425 C159 1.669 . S
C439 C179 1.672 . S
C443 C2 1.562 . S
C457 C22 1.580 . S
C461 C139 1.668 . S
C475 C78 1.672 . S
C479 C204 1.582 . S
C493 C98 1.667 . S
C497 C224 1.571 . S
C511 C184 1.565 . S
C515 C118 1.670 . S
C529 C338 1.671 . S
C533 C104 1.582 . S
C547 C64 1.577 . S
C551 C358 1.678 . S
C565 C318 1.678 . S
C569 C84 1.575 . S
C583 C162 1.581 1_554 S
C587 C279 1.669 . S
C601 C122 1.564 1_554 S
C605 C299 1.670 . S
C619 C142 1.567 1_554 S
C623 C259 1.668 . S
C637 C198 1.679 . S
C641 C324 1.575 1_556 S
C655 C344 1.579 1_556 S
C659 C218 1.668 . S
C673 C304 1.570 1_556 S
C677 C238 1.667 . S
C691 C4 1.625 . S
C695 C99 1.633 . S
C709 C119 1.633 . S
C713 C24 1.623 . S
C727 C79 1.630 . S
C731 C44 1.620 . S
C745 C82 1.626 . S
C749 C58 1.635 . S
C763 C102 1.623 . S
C767 C18 1.632 . S
C781 C62 1.616 . S
C785 C38 1.626 . S
C799 C219 1.631 . S
C803 C124 1.620 . S
C817 C239 1.632 . S
C821 C144 1.621 . S
C835 C199 1.634 . S
C839 C164 1.624 . S
C853 C202 1.616 . S
C857 C178 1.626 . S
C871 C222 1.626 . S
C875 C138 1.636 . S
C889 C182 1.625 . S
C893 C158 1.634 . S
C907 C339 1.633 . S
C911 C244 1.625 . S
C925 C359 1.626 . S
C929 C264 1.616 . S
C943 C284 1.617 . S
C947 C319 1.627 . S
C961 C298 1.635 . S
C965 C322 1.625 . S
C979 C258 1.636 . S
C983 C342 1.627 . S
C997 C302 1.623 . S
C1001 C278 1.633 . S
C1015 C12 1.388 . S
C1019 C9 1.388 . S
C1033 C32 1.391 . S
C1037 C29 1.391 . S
C1051 C52 1.388 . S
C1055 C49 1.388 . S
C1069 C69 1.391 . S
C1073 C72 1.391 . S
C1087 C92 1.391 . S
C1091 C89 1.391 . S
C1105 C112 1.388 . S
C1109 C109 1.388 . S
C1123 C129 1.393 . S
C1127 C132 1.393 . S
C1141 C152 1.393 . S
C1145 C149 1.393 . S
C1159 C169 1.391 . S
C1163 C172 1.391 . S
C1177 C189 1.388 . S
C1181 C192 1.388 . S
C1195 C209 1.392 . S
C1199 C212 1.392 . S
C1213 C229 1.389 . S
C1217 C232 1.389 . S
C1231 C249 1.396 . S
C1235 C252 1.396 . S
C1249 C272 1.393 . S
C1253 C269 1.393 . S
C1267 C292 1.397 . S
C1271 C289 1.397 . S
C1285 C312 1.388 . S
C1289 C309 1.388 . S
C1303 C332 1.396 . S
C1307 C329 1.396 . S
C1321 C349 1.390 . S
C1325 C352 1.390 . S
