# Generated by pormake.
# Topology whw, (6)-cn, num edge types: 1
# Building blocks:
#     Node 0, Type 0, BuildingBlock: BETDIP_clean_sbu_0, # of connection points: 6
#     Node 1, Type 0, BuildingBlock: BETDIP_clean_sbu_0, # of connection points: 6
#     Node 2, Type 0, BuildingBlock: BETDIP_clean_sbu_0, # of connection points: 6
#     Node 3, Type 0, BuildingBlock: BETDIP_clean_sbu_0, # of connection points: 6
#     Node 4, Type 0, BuildingBlock: BETDIP_clean_sbu_0, # of connection points: 6
#     Node 5, Type 0, BuildingBlock: BETDIP_clean_sbu_0, # of connection points: 6
#     Node 6, Type 0, BuildingBlock: BETDIP_clean_sbu_0, # of connection points: 6
#     Node 7, Type 0, BuildingBlock: BETDIP_clean_sbu_0, # of connection points: 6
#     Node 8, Type 0, BuildingBlock: BETDIP_clean_sbu_0, # of connection points: 6
#     Node 9, Type 0, BuildingBlock: BETDIP_clean_sbu_0, # of connection points: 6
#     Node 10, Type 0, BuildingBlock: BETDIP_clean_sbu_0, # of connection points: 6
#     Node 11, Type 0, BuildingBlock: BETDIP_clean_sbu_0, # of connection points: 6
#     Node 12, Type 0, BuildingBlock: BETDIP_clean_sbu_0, # of connection points: 6
#     Node 13, Type 0, BuildingBlock: BETDIP_clean_sbu_0, # of connection points: 6
#     Node 14, Type 0, BuildingBlock: BETDIP_clean_sbu_0, # of connection points: 6
#     Node 15, Type 0, BuildingBlock: BETDIP_clean_sbu_0, # of connection points: 6
#     Edge 16, Type (0, 0), BuildingBlock: OJICUG_clean_linker_0, # of connection points: 2
#     Edge 17, Type (0, 0), BuildingBlock: OJICUG_clean_linker_0, # of connection points: 2
#     Edge 18, Type (0, 0), BuildingBlock: OJICUG_clean_linker_0, # of connection points: 2
#     Edge 19, Type (0, 0), BuildingBlock: OJICUG_clean_linker_0, # of connection points: 2
#     Edge 20, Type (0, 0), BuildingBlock: OJICUG_clean_linker_0, # of connection points: 2
#     Edge 21, Type (0, 0), BuildingBlock: OJICUG_clean_linker_0, # of connection points: 2
#     Edge 22, Type (0, 0), BuildingBlock: OJICUG_clean_linker_0, # of connection points: 2
#     Edge 23, Type (0, 0), BuildingBlock: OJICUG_clean_linker_0, # of connection points: 2
#     Edge 24, Type (0, 0), BuildingBlock: OJICUG_clean_linker_0, # of connection points: 2
#     Edge 25, Type (0, 0), BuildingBlock: OJICUG_clean_linker_0, # of connection points: 2
#     Edge 26, Type (0, 0), BuildingBlock: OJICUG_clean_linker_0, # of connection points: 2
#     Edge 27, Type (0, 0), BuildingBlock: OJICUG_clean_linker_0, # of connection points: 2
#     Edge 28, Type (0, 0), BuildingBlock: OJICUG_clean_linker_0, # of connection points: 2
#     Edge 29, Type (0, 0), BuildingBlock: OJICUG_clean_linker_0, # of connection points: 2
#     Edge 30, Type (0, 0), BuildingBlock: OJICUG_clean_linker_0, # of connection points: 2
#     Edge 31, Type (0, 0), BuildingBlock: OJICUG_clean_linker_0, # of connection points: 2
#     Edge 32, Type (0, 0), BuildingBlock: OJICUG_clean_linker_0, # of connection points: 2
#     Edge 33, Type (0, 0), BuildingBlock: OJICUG_clean_linker_0, # of connection points: 2
#     Edge 34, Type (0, 0), BuildingBlock: OJICUG_clean_linker_0, # of connection points: 2
#     Edge 35, Type (0, 0), BuildingBlock: OJICUG_clean_linker_0, # of connection points: 2
#     Edge 36, Type (0, 0), BuildingBlock: OJICUG_clean_linker_0, # of connection points: 2
#     Edge 37, Type (0, 0), BuildingBlock: OJICUG_clean_linker_0, # of connection points: 2
#     Edge 38, Type (0, 0), BuildingBlock: OJICUG_clean_linker_0, # of connection points: 2
#     Edge 39, Type (0, 0), BuildingBlock: OJICUG_clean_linker_0, # of connection points: 2
#     Edge 40, Type (0, 0), BuildingBlock: OJICUG_clean_linker_0, # of connection points: 2
#     Edge 41, Type (0, 0), BuildingBlock: OJICUG_clean_linker_0, # of connection points: 2
#     Edge 42, Type (0, 0), BuildingBlock: OJICUG_clean_linker_0, # of connection points: 2
#     Edge 43, Type (0, 0), BuildingBlock: OJICUG_clean_linker_0, # of connection points: 2
#     Edge 44, Type (0, 0), BuildingBlock: OJICUG_clean_linker_0, # of connection points: 2
#     Edge 45, Type (0, 0), BuildingBlock: OJICUG_clean_linker_0, # of connection points: 2
#     Edge 46, Type (0, 0), BuildingBlock: OJICUG_clean_linker_0, # of connection points: 2
#     Edge 47, Type (0, 0), BuildingBlock: OJICUG_clean_linker_0, # of connection points: 2
#     Edge 48, Type (0, 0), BuildingBlock: OJICUG_clean_linker_0, # of connection points: 2
#     Edge 49, Type (0, 0), BuildingBlock: OJICUG_clean_linker_0, # of connection points: 2
#     Edge 50, Type (0, 0), BuildingBlock: OJICUG_clean_linker_0, # of connection points: 2
#     Edge 51, Type (0, 0), BuildingBlock: OJICUG_clean_linker_0, # of connection points: 2
#     Edge 52, Type (0, 0), BuildingBlock: OJICUG_clean_linker_0, # of connection points: 2
#     Edge 53, Type (0, 0), BuildingBlock: OJICUG_clean_linker_0, # of connection points: 2
#     Edge 54, Type (0, 0), BuildingBlock: OJICUG_clean_linker_0, # of connection points: 2
#     Edge 55, Type (0, 0), BuildingBlock: OJICUG_clean_linker_0, # of connection points: 2
#     Edge 56, Type (0, 0), BuildingBlock: OJICUG_clean_linker_0, # of connection points: 2
#     Edge 57, Type (0, 0), BuildingBlock: OJICUG_clean_linker_0, # of connection points: 2
#     Edge 58, Type (0, 0), BuildingBlock: OJICUG_clean_linker_0, # of connection points: 2
#     Edge 59, Type (0, 0), BuildingBlock: OJICUG_clean_linker_0, # of connection points: 2
#     Edge 60, Type (0, 0), BuildingBlock: OJICUG_clean_linker_0, # of connection points: 2
#     Edge 61, Type (0, 0), BuildingBlock: OJICUG_clean_linker_0, # of connection points: 2
#     Edge 62, Type (0, 0), BuildingBlock: OJICUG_clean_linker_0, # of connection points: 2
#     Edge 63, Type (0, 0), BuildingBlock: OJICUG_clean_linker_0, # of connection points: 2
# Relax obj value: 0.577
# Max RMSD: 0.301
# Mean RMSD: 0.247
data_MOF--net-whw--node1-BETDIP_clean_sbu_0--edge1-OJICUG_clean_linker_0
_symmetry_space_group_name_H-M    P1
_symmetry_Int_Tables_number       1
_symmetry_cell_setting            triclinic
loop_
_symmetry_equiv_pos_as_xyz
'x, y, z'
_cell_length_a     33.668671
_cell_length_b     33.051207
_cell_length_c     26.310923
_cell_angle_alpha  91.440701
_cell_angle_beta   72.701695
_cell_angle_gamma 104.8055
loop_
_atom_site_label
_atom_site_type_symbol
_atom_site_fract_x
_atom_site_fract_y
_atom_site_fract_z
_atom_type_partial_charge
Tb0 Tb 0.05391 0.09177 0.22743 0.0
Tb1 Tb 0.03022 0.1316 0.13127 0.0
C2 C 0.08135 0.10029 0.30905 0.0
C3 C 0.0829 0.12091 0.36166 0.0
C4 C 0.10398 0.16375 0.36305 0.0
C5 C 0.11214 0.18119 0.41012 0.0
C6 C 0.09991 0.15675 0.4585 0.0
C7 C 0.07764 0.11414 0.45726 0.0
C8 C 0.06961 0.09671 0.41013 0.0
C9 C 0.03514 0.04042 0.15335 0.0
C10 C 0.95894 0.0994 0.24494 0.0
C11 C -0.00549 0.14855 1.0644 0.0
C12 C -0.00784 0.16471 1.01223 0.0
C13 C -0.01795 0.13658 0.974 0.0
C14 C 0.97175 0.14967 0.92985 0.0
C15 C 0.97118 0.1917 0.92155 0.0
C16 C -0.01746 0.22002 0.95936 0.0
C17 C -0.00754 0.20678 1.00383 0.0
C18 C 0.07107 0.18057 0.19101 0.0
C19 C 0.1214 0.1141 0.11139 0.0
O20 O 0.09898 0.12406 0.26471 0.0
O21 O 0.04848 0.06946 0.30566 0.0
O22 O 0.02279 0.07285 0.16794 0.0
O23 O 0.05383 0.03145 0.18742 0.0
O24 O -0.01332 0.08852 0.26522 0.0
O25 O 0.96895 0.11646 0.19599 0.0
O26 O 0.00463 0.11307 1.06735 0.0
O27 O 0.00552 0.17456 0.09941 0.0
O28 O 0.04272 0.14699 0.20427 0.0
O29 O 0.07558 0.18985 0.14133 0.0
O30 O 0.09211 0.12055 0.09013 0.0
O31 O 0.11488 0.1065 0.16295 0.0
H32 H 0.11564 0.18386 0.327 0.0
H33 H 0.12961 0.21382 0.40767 0.0
H34 H 0.06637 0.09364 0.49285 0.0
H35 H 0.0539 0.06362 0.41138 0.0
H36 H -0.0197 0.10371 0.97934 0.0
H37 H 0.96257 0.12593 0.90352 0.0
H38 H -0.01663 0.25269 0.95538 0.0
H39 H -0.00086 0.22948 1.03259 0.0
Tb40 Tb 0.13867 0.75707 0.50266 0.0
Tb41 Tb 0.12162 0.67037 0.4672 0.0
C42 C 0.15048 0.82443 0.54824 0.0
C43 C 0.15126 0.83435 0.60254 0.0
C44 C 0.12328 0.80776 0.6462 0.0
C45 C 0.1261 0.81609 0.69731 0.0
C46 C 0.15692 0.85119 0.70573 0.0
C47 C 0.18585 0.87701 0.66168 0.0
C48 C 0.18316 0.86847 0.61036 0.0
C49 C 0.20224 0.7453 0.42189 0.0
C50 C 0.11082 0.67868 0.59167 0.0
C51 C 0.13367 0.60568 0.41969 0.0
C52 C 0.15914 0.59731 0.36632 0.0
C53 C 0.20346 0.6166 0.34607 0.0
C54 C 0.22505 0.6155 0.292 0.0
C55 C 0.20269 0.59467 0.25757 0.0
C56 C 0.15952 0.57157 0.27921 0.0
C57 C 0.13794 0.57297 0.33313 0.0
C58 C 0.04923 0.69266 0.5167 0.0
C59 C 0.11407 0.74445 0.39459 0.0
O60 O 0.1131 0.80508 0.54175 0.0
O61 O 0.18163 0.80809 0.52198 0.0
O62 O 0.18047 0.7184 0.46136 0.0
O63 O 0.19035 0.77945 0.43083 0.0
O64 O 0.12266 0.71985 0.57995 0.0
O65 O 0.11073 0.65253 0.55242 0.0
O66 O 0.15533 0.62403 0.45169 0.0
O67 O 0.10154 0.62155 0.42074 0.0
O68 O 0.08544 0.71429 0.49011 0.0
O69 O 0.0536 0.65463 0.51662 0.0
O70 O 0.12142 0.70648 0.39589 0.0
O71 O 0.11341 0.7682 0.43676 0.0
H72 H 0.09889 0.78083 0.64101 0.0
H73 H 0.10264 0.79615 0.73052 0.0
H74 H 0.20975 0.90432 0.66716 0.0
H75 H 0.2058 0.88861 0.57678 0.0
H76 H 0.2209 0.63432 0.37134 0.0
H77 H 0.25848 0.633 0.27651 0.0
H78 H 0.1412 0.55536 0.25379 0.0
H79 H 0.10392 0.55729 0.34811 0.0
Tb80 Tb 0.46831 0.84866 0.6973 0.0
Tb81 Tb 0.55817 0.88527 0.69316 0.0
C82 C 0.39368 0.83518 0.68909 0.0
C83 C 0.37004 0.84075 0.65203 0.0
C84 C 0.34446 0.86938 0.66294 0.0
C85 C 0.32265 0.87597 0.62764 0.0
C86 C 0.32565 0.85356 0.58127 0.0
C87 C 0.34941 0.82335 0.57186 0.0
C88 C 0.37146 0.817 0.60687 0.0
C89 C 0.50205 0.79893 0.73779 0.0
C90 C 0.5431 0.83637 0.59216 0.0
C91 C 0.63054 0.91771 0.70515 0.0
C92 C 0.65019 0.91873 0.74799 0.0
C93 C 0.64151 0.88288 0.78088 0.0
C94 C 0.65773 0.88525 0.82399 0.0
C95 C 0.68249 0.92358 0.83527 0.0
C96 C 0.69156 0.95937 0.80198 0.0
C97 C 0.67563 0.95682 0.75841 0.0
C98 C 0.53088 0.93027 0.63563 0.0
C99 C 0.48359 0.86514 0.81042 0.0
O100 O 0.41289 0.86946 0.70749 0.0
O101 O 0.41692 0.80793 0.67778 0.0
O102 O 0.52023 0.8241 0.69827 0.0
O103 O 0.46113 0.79582 0.75187 0.0
O104 O 0.50247 0.83927 0.61219 0.0
O105 O 0.57028 0.84752 0.62129 0.0
O106 O 0.62113 0.88166 0.68374 0.0
O107 O 0.59972 0.93687 0.71444 0.0
O108 O 0.50857 0.91269 0.68183 0.0
O109 O 0.56845 0.92381 0.62353 0.0
O110 O 0.52561 0.87469 0.78291 0.0
O111 O 0.45497 0.85948 0.78365 0.0
H112 H 0.34213 0.88738 0.69822 0.0
H113 H 0.30459 0.89947 0.63561 0.0
H114 H 0.35299 0.8062 0.53583 0.0
H115 H 0.39037 0.79426 0.59776 0.0
H116 H 0.62126 0.85333 0.77428 0.0
H117 H 0.64932 0.85739 0.84984 0.0
H118 H 0.71033 0.98931 0.81011 0.0
H119 H 0.68218 0.98479 0.73365 0.0
Tb120 Tb 0.38387 0.18865 0.89026 0.0
Tb121 Tb 0.41497 0.2782 0.85262 0.0
C122 C 0.35985 0.11658 0.93499 0.0
C123 C 0.3566 0.10121 0.98793 0.0
C124 C 0.38068 0.12623 1.01772 0.0
C125 C 0.37289 0.11534 0.07101 0.0
C126 C 0.34079 0.07929 0.09541 0.0
C127 C 0.31799 0.05303 1.06509 0.0
C128 C 0.32568 0.0642 1.01144 0.0
C129 C 0.33132 0.21711 0.8516 0.0
C130 C 0.39383 0.26039 0.97679 0.0
C131 C 0.41697 0.34921 0.81845 0.0
C132 C 0.39419 0.36502 0.78681 0.0
C133 C 0.34933 0.34988 0.79738 0.0
C134 C 0.32884 0.36059 0.76277 0.0
C135 C 0.35293 0.38702 0.71733 0.0
C136 C 0.397 0.40575 0.7103 0.0
C137 C 0.41749 0.39455 0.74455 0.0
C138 C 0.47124 0.25055 0.88449 0.0
C139 C 0.42746 0.20653 0.76642 0.0
O140 O 0.39888 0.13282 0.90351 0.0
O141 O 0.3337 0.13985 0.93521 0.0
O142 O 0.35227 0.23621 0.8816 0.0
O143 O 0.33893 0.18087 0.84333 0.0
O144 O 0.38869 0.21998 0.96611 0.0
O145 O 0.39927 0.28843 0.93858 0.0
O146 O 0.39277 0.33192 0.8652 0.0
O147 O 0.44428 0.32778 0.79372 0.0
O148 O 0.44525 0.23081 0.86113 0.0
O149 O 0.47085 0.28959 0.88281 0.0
O150 O 0.42201 0.24519 0.77534 0.0
O151 O 0.41973 0.17996 0.80748 0.0
H152 H 0.40443 0.15496 1.0004 0.0
H153 H 0.39144 0.13559 0.09352 0.0
H154 H 0.29326 0.02498 0.08333 0.0
H155 H 0.30654 0.04484 0.9889 0.0
H156 H 0.33045 0.32825 0.83097 0.0
H157 H 0.29496 0.34571 0.76918 0.0
H158 H 0.41671 0.42594 0.67539 0.0
H159 H 0.45193 0.40722 0.73635 0.0
Tb160 Tb -0.00599 0.85194 1.01211 0.0
Tb161 Tb 0.96752 0.886 0.91407 0.0
C162 C 0.00813 0.84186 0.10024 0.0
C163 C 0.02994 0.82713 0.13611 0.0
C164 C 0.04778 0.85579 0.16897 0.0
C165 C 0.06336 0.84268 0.20824 0.0
C166 C 0.06131 0.80003 0.2171 0.0
C167 C 0.04448 0.7715 0.18288 0.0
C168 C 0.02907 0.78477 0.14324 0.0
C169 C 0.97357 0.79999 0.94237 0.0
C170 C 0.90073 0.87178 1.02644 0.0
C171 C 0.94305 0.8765 0.8302 0.0
C172 C 0.9429 0.86027 0.77525 0.0
C173 C 0.94541 0.81921 0.76105 0.0
C174 C 0.93846 0.80291 0.71279 0.0
C175 C 0.928 0.82661 0.67662 0.0
C176 C 0.92595 0.86785 0.69124 0.0
C177 C 0.93333 0.88415 0.73899 0.0
C178 C -0.00941 0.94134 0.98228 0.0
C179 C 0.06412 0.87823 0.90114 0.0
O180 O 0.02876 0.8746 1.06682 0.0
O181 O -0.01994 0.81469 0.08243 0.0
O182 O 0.95824 0.83019 0.95834 0.0
O183 O -0.00162 0.79484 0.97007 0.0
O184 O 0.92956 0.86251 1.0466 0.0
O185 O 0.90722 0.88073 0.97547 0.0
O186 O 0.92908 0.84934 0.87115 0.0
O187 O 0.97171 0.91008 0.83709 0.0
O188 O 0.00165 0.90807 0.96972 0.0
O189 O 0.9699 0.94842 0.94956 0.0
O190 O 0.0343 0.88321 0.87969 0.0
O191 O 0.0569 0.86831 0.95231 0.0
H192 H 0.0488 0.88864 0.16514 0.0
H193 H 0.07697 0.86646 0.23171 0.0
H194 H 0.04201 0.73848 0.18741 0.0
H195 H 0.01572 0.76165 0.11884 0.0
H196 H 0.95197 0.7992 0.7878 0.0
H197 H 0.94123 0.77141 0.70421 0.0
H198 H 0.91718 0.88771 0.66671 0.0
H199 H 0.92989 0.91539 0.74856 0.0
Tb200 Tb 0.40961 0.81357 0.16754 0.0
Tb201 Tb 0.39138 0.72712 0.133 0.0
C202 C 0.39885 0.87908 0.21364 0.0
C203 C 0.37424 0.8888 0.26667 0.0
C204 C 0.32981 0.87047 0.28801 0.0
C205 C 0.30896 0.8734 0.34191 0.0
C206 C 0.33227 0.89482 0.37514 0.0
C207 C 0.3757 0.91677 0.35216 0.0
C208 C 0.39644 0.91375 0.29841 0.0
C209 C 0.48155 0.79071 0.11795 0.0
C210 C 0.41651 0.73974 0.24079 0.0
C211 C 0.37848 0.65958 0.08798 0.0
C212 C 0.37772 0.64963 1.03366 0.0
C213 C 0.40598 0.67603 0.98998 0.0
C214 C 0.40326 0.66771 0.93884 0.0
C215 C 0.37229 0.63276 0.93039 0.0
C216 C 0.34311 0.6071 0.97443 0.0
C217 C 0.34568 0.61567 1.02581 0.0
C218 C 0.32843 0.73977 0.21402 0.0
C219 C 0.41985 0.80514 1.04344 0.0
O220 O 0.37651 0.86036 0.18254 0.0
O221 O 0.43066 0.86279 0.21282 0.0
O222 O 0.44542 0.76909 0.14488 0.0
O223 O 0.47733 0.82874 0.1175 0.0
O224 O 0.40968 0.77789 0.23919 0.0
O225 O 0.41667 0.71579 0.19886 0.0
O226 O 0.41596 0.67837 0.09453 0.0
O227 O 0.34776 0.67657 0.11391 0.0
O228 O 0.35013 0.76628 0.17414 0.0
O229 O 0.34 0.70544 0.20535 0.0
O230 O 0.40769 0.764 1.05539 0.0
O231 O 0.4203 0.83134 0.08249 0.0
H232 H 0.31166 0.85216 0.26382 0.0
H233 H 0.2753 0.85683 0.35822 0.0
H234 H 0.3949 0.93337 0.37642 0.0
H235 H 0.43059 0.92868 0.2825 0.0
H236 H 0.43053 0.7028 0.99518 0.0
H237 H 0.4269 0.6875 0.90562 0.0
H238 H 0.31913 0.57989 0.96892 0.0
H239 H 0.32284 0.59566 1.05939 0.0
Tb240 Tb 0.4708 0.09502 0.44638 0.0
Tb241 Tb 0.56024 0.13702 0.4415 0.0
C242 C 0.3986 0.06119 0.43451 0.0
C243 C 0.3795 0.06315 0.39195 0.0
C244 C 0.3981 0.09599 0.35273 0.0
C245 C 0.38206 0.09626 0.30986 0.0
C246 C 0.34758 0.06341 0.30529 0.0
C247 C 0.32859 0.03079 0.34488 0.0
C248 C 0.34418 0.03101 0.38848 0.0
C249 C 0.50119 0.05269 0.50293 0.0
C250 C 0.54556 0.1196 0.3284 0.0
C251 C 0.63508 0.1554 0.4498 0.0
C252 C 0.65856 0.15173 0.48781 0.0
C253 C 0.68976 0.12881 0.47468 0.0
C254 C 0.71172 0.12392 0.51061 0.0
C255 C 0.70319 0.14241 0.55992 0.0
C256 C 0.67313 0.16668 0.5721 0.0
C257 C 0.65095 0.17125 0.53646 0.0
C258 C 0.51959 0.18263 0.40532 0.0
C259 C 0.48491 0.14476 0.54809 0.0
O260 O 0.40669 0.0959 0.4589 0.0
O261 O 0.43074 0.04362 0.42234 0.0
O262 O 0.5231 0.0714 0.45712 0.0
O263 O 0.46244 0.05593 0.51425 0.0
O264 O 0.50354 0.10719 0.35626 0.0
O265 O 0.5744 0.12752 0.35492 0.0
O266 O 0.61794 0.12026 0.43111 0.0
O267 O 0.60988 0.1809 0.46058 0.0
O268 O 0.50521 0.15663 0.4437 0.0
O269 O 0.56111 0.18929 0.38901 0.0
O270 O 0.52622 0.14442 0.52716 0.0
O271 O 0.45749 0.1318 0.51948 0.0
H272 H 0.42553 0.12097 0.35473 0.0
H273 H 0.3976 0.12141 0.27923 0.0
H274 H 0.302 0.00522 0.34189 0.0
H275 H 0.32906 0.00592 0.41899 0.0
H276 H 0.69656 0.114 0.43697 0.0
H277 H 0.73466 0.10501 0.5004 0.0
H278 H 0.6652 0.18056 0.61035 0.0
H279 H 0.62727 0.18931 0.5476 0.0
Tb280 Tb 0.11424 0.20507 0.78326 0.0
Tb281 Tb 0.14728 0.2942 0.74644 0.0
C282 C 0.11041 0.13348 0.81758 0.0
C283 C 0.13325 0.11731 0.84883 0.0
C284 C 0.17819 0.13202 0.83769 0.0
C285 C 0.19879 0.12156 0.87233 0.0
C286 C 0.17471 0.09572 0.91827 0.0
C287 C 0.13054 0.07723 0.92582 0.0
C288 C 0.10992 0.08826 0.89161 0.0
C289 C 0.05938 0.23373 0.74987 0.0
C290 C 0.10168 0.27638 0.86978 0.0
C291 C 0.17482 0.36692 0.70321 0.0
C292 C 0.18087 0.38621 0.65078 0.0
C293 C 0.14626 0.39527 0.63814 0.0
C294 C 0.15144 0.40937 0.58654 0.0
C295 C 0.19122 0.41453 0.54697 0.0
C296 C 0.22645 0.40785 0.56028 0.0
C297 C 0.22143 0.39417 0.61197 0.0
C298 C 0.1979 0.26396 0.78692 0.0
C299 C 0.13703 0.22379 0.65891 0.0
O300 O 0.13435 0.15017 0.77048 0.0
O301 O 0.08409 0.1558 0.84247 0.0
O302 O 0.085 0.2533 0.77389 0.0
O303 O 0.05905 0.19455 0.75215 0.0
O304 O 0.1067 0.23759 0.8609 0.0
O305 O 0.11028 0.3031 0.82862 0.0
O306 O 0.13513 0.3516 0.73346 0.0
O307 O 0.19937 0.342 0.70336 0.0
O308 O 0.17771 0.24578 0.7557 0.0
O309 O 0.19031 0.30013 0.79575 0.0
O310 O 0.14237 0.26418 0.66988 0.0
O311 O 0.13125 0.19554 0.69706 0.0
H312 H 0.19705 0.15322 0.80367 0.0
H313 H 0.23276 0.13622 0.86553 0.0
H314 H 0.1109 0.05747 0.9611 0.0
H315 H 0.0754 0.07596 0.90026 0.0
H316 H 0.11482 0.39011 0.66745 0.0
H317 H 0.12375 0.41406 0.57689 0.0
H318 H 0.25747 0.41196 0.53029 0.0
H319 H 0.24892 0.38833 0.62099 0.0
Tb320 Tb 0.91022 0.31587 0.66662 0.0
Tb321 Tb 0.89306 0.22892 0.63417 0.0
C322 C 0.89691 0.38068 0.71268 0.0
C323 C 0.86956 0.38794 0.76537 0.0
C324 C 0.82649 0.36443 0.78528 0.0
C325 C 0.8041 0.36417 0.83928 0.0
C326 C 0.82451 0.38746 0.8741 0.0
C327 C 0.86587 0.41468 0.85271 0.0
C328 C 0.88823 0.41481 0.79875 0.0
C329 C -0.01734 0.29397 0.61674 0.0
C330 C 0.91966 0.24387 0.74065 0.0
C331 C 0.87892 0.16017 0.59222 0.0
C332 C 0.87646 0.14885 0.53898 0.0
C333 C 0.90377 0.17433 0.49405 0.0
C334 C 0.89907 0.16511 0.44399 0.0
C335 C 0.867 0.13018 0.4379 0.0
C336 C 0.83872 0.10549 0.48326 0.0
C337 C 0.84332 0.11495 0.53357 0.0
C338 C 0.83036 0.24143 0.71557 0.0
C339 C 0.92074 0.30549 0.54244 0.0
O340 O 0.87679 0.36239 0.67917 0.0
O341 O 0.92887 0.36511 0.7134 0.0
O342 O 0.94687 0.27219 0.64433 0.0
O343 O -0.0218 0.33197 0.61702 0.0
O344 O 0.91179 0.28153 0.73856 0.0
O345 O 0.91998 0.21941 0.69918 0.0
O346 O 0.917 0.17952 0.59669 0.0
O347 O 0.8486 0.17754 0.61835 0.0
O348 O 0.85097 0.26752 0.67492 0.0
O349 O 0.84326 0.2078 0.70793 0.0
O350 O 0.9089 0.26447 0.55547 0.0
O351 O 0.92089 0.33231 0.58096 0.0
H352 H 0.81102 0.34429 0.75989 0.0
H353 H 0.77201 0.3435 0.85448 0.0
H354 H 0.88272 0.43295 0.87833 0.0
H355 H 0.92126 0.43355 0.78401 0.0
H356 H 0.92906 0.20112 0.49743 0.0
H357 H 0.9221 0.18417 0.40972 0.0
H358 H 0.81394 0.0783 0.47955 0.0
H359 H 0.82115 0.09572 0.56824 0.0
Tb360 Tb 0.61391 0.70508 0.28651 0.0
Tb361 Tb 0.64496 0.79463 0.24906 0.0
C362 C 0.61227 0.63386 0.31963 0.0
C363 C 0.63554 0.61744 0.35005 0.0
C364 C 0.68067 0.63117 0.33746 0.0
C365 C 0.70184 0.6198 0.37083 0.0
C366 C 0.67816 0.59395 0.4169 0.0
C367 C 0.63361 0.57656 0.42592 0.0
C368 C 0.61245 0.58853 0.39302 0.0
C369 C 0.55736 0.7323 0.25482 0.0
C370 C 0.60153 0.77638 0.37296 0.0
C371 C 0.66855 0.86701 0.20514 0.0
C372 C 0.672 0.88315 0.15247 0.0
C373 C 0.64978 0.85797 0.12089 0.0
C374 C 0.65782 0.87027 1.06797 0.0
C375 C 0.688 0.90806 1.04598 0.0
C376 C 0.70889 0.93433 0.07806 0.0
C377 C 0.70116 0.92167 0.13121 0.0
C378 C 0.6977 0.76578 0.28721 0.0
C379 C 0.63509 0.72325 0.16233 0.0
O380 O 0.63588 0.65129 0.27275 0.0
O381 O 0.58538 0.6554 0.34536 0.0
O382 O 0.58348 0.75244 0.27786 0.0
O383 O 0.55763 0.69329 0.25729 0.0
O384 O 0.60705 0.73778 0.36387 0.0
O385 O 0.60915 0.80304 0.33203 0.0
O386 O 0.62947 0.85027 0.23613 0.0
O387 O 0.69488 0.8439 0.20465 0.0
O388 O 0.67661 0.74703 0.25719 0.0
O389 O 0.69014 0.80204 0.29577 0.0
O390 O 0.64073 0.76368 0.1729 0.0
O391 O 0.62917 0.69508 0.2006 0.0
H392 H 0.69936 0.65215 0.30316 0.0
H393 H 0.73608 0.63366 0.3629 0.0
H394 H 0.61428 0.55687 0.46134 0.0
H395 H 0.57778 0.57692 0.40272 0.0
H396 H 0.62721 0.82821 0.13657 0.0
H397 H 0.64094 0.84992 1.04386 0.0
H398 H 0.73213 0.96369 1.06155 0.0
H399 H 0.71881 0.94122 0.15516 0.0
Tb400 Tb 0.63706 0.25435 1.00205 0.0
Tb401 Tb 0.62013 0.16709 0.96912 0.0
C402 C 0.65075 0.32289 1.0445 0.0
C403 C 0.653 0.33395 0.09789 0.0
C404 C 0.62541 0.30842 0.14265 0.0
C405 C 0.62997 0.31735 0.19284 0.0
C406 C 0.66218 0.35202 0.19923 0.0
C407 C 0.69074 0.37673 0.15404 0.0
C408 C 0.68627 0.36758 0.10361 0.0
C409 C 0.70003 0.24193 0.92103 0.0
C410 C 0.60891 0.17738 0.09355 0.0
C411 C 0.6337 0.10252 0.92265 0.0
C412 C 0.66104 0.09562 0.86976 0.0
C413 C 0.70408 0.11926 0.84996 0.0
C414 C 0.72636 0.12013 0.79583 0.0
C415 C 0.7059 0.09728 0.7608 0.0
C416 C 0.66459 0.06993 0.78195 0.0
C417 C 0.64233 0.06919 0.83603 0.0
C418 C 0.54768 0.18937 1.01828 0.0
C419 C 0.61097 0.2395 0.89517 0.0
O420 O 0.61278 0.30351 1.03971 0.0
O421 O 0.68125 0.30571 1.01833 0.0
O422 O 0.67908 0.21565 0.96141 0.0
O423 O 0.68734 0.27567 0.92877 0.0
O424 O 0.6208 0.21845 0.08064 0.0
O425 O 0.60901 0.1506 1.05492 0.0
O426 O 0.65383 0.12077 0.95619 0.0
O427 O 0.60154 0.11788 0.92227 0.0
O428 O 0.58378 0.21081 0.99122 0.0
O429 O 0.55194 0.15128 1.0182 0.0
O430 O 0.6188 0.2018 0.89723 0.0
O431 O 0.61048 0.26391 0.93673 0.0
H432 H 0.60004 0.28181 0.13903 0.0
H433 H 0.60674 0.29827 0.22696 0.0
H434 H 0.71565 0.4037 0.15796 0.0
H435 H 0.70866 0.38682 0.06908 0.0
H436 H 0.71957 0.13908 0.87558 0.0
H437 H 0.75837 0.14096 0.78073 0.0
H438 H 0.64771 0.05206 0.75608 0.0
H439 H 0.60933 0.05037 0.85065 0.0
Tb440 Tb 0.88549 0.68991 0.38644 0.0
Tb441 Tb 0.91671 0.77954 0.34901 0.0
C442 C 0.86182 0.61769 0.43073 0.0
C443 C 0.85828 0.60205 0.48368 0.0
C444 C 0.88141 0.6272 0.51437 0.0
C445 C 0.87332 0.61575 0.56758 0.0
C446 C 0.84203 0.57889 0.59086 0.0
C447 C 0.82019 0.55258 0.55967 0.0
C448 C 0.82807 0.56437 0.50618 0.0
C449 C 0.83274 0.71874 0.34841 0.0
C450 C 0.89542 0.76128 0.47321 0.0
C451 C 0.91851 0.85083 0.31597 0.0
C452 C 0.89506 0.86727 0.28582 0.0
C453 C 0.84992 0.85345 0.2986 0.0
C454 C 0.82858 0.86483 0.26545 0.0
C455 C 0.8521 0.89075 0.21939 0.0
C456 C 0.89664 0.90826 0.21023 0.0
C457 C 0.91797 0.89629 0.24292 0.0
C458 C 0.97312 0.75195 0.38069 0.0
C459 C 0.92898 0.70815 0.26254 0.0
O460 O 0.90092 0.63431 0.39969 0.0
O461 O 0.83548 0.64069 0.43077 0.0
O462 O 0.85396 0.73767 0.37824 0.0
O463 O 0.84024 0.68245 0.33991 0.0
O464 O 0.88971 0.72085 0.46261 0.0
O465 O 0.90143 0.78949 0.43494 0.0
O466 O 0.89507 0.83349 0.36296 0.0
O467 O 0.9452 0.82917 0.29007 0.0
O468 O 0.94694 0.7321 0.35759 0.0
O469 O 0.97297 0.79102 0.37839 0.0
O470 O 0.92357 0.7468 0.27163 0.0
O471 O 0.92127 0.68146 0.30346 0.0
H472 H 0.90471 0.65639 0.49781 0.0
H473 H 0.89103 0.63608 0.59088 0.0
H474 H 0.7961 0.52392 0.57712 0.0
H475 H 0.80968 0.54488 0.48293 0.0
H476 H 0.83136 0.83238 0.33285 0.0
H477 H 0.79433 0.85091 0.27352 0.0
H478 H 0.91586 0.92803 0.17484 0.0
H479 H 0.95264 0.90797 0.23312 0.0
Tb480 Tb 0.56193 0.59797 0.7222 0.0
Tb481 Tb 0.53551 0.63199 0.62417 0.0
C482 C 0.58642 0.60755 0.80605 0.0
C483 C 0.58672 0.62385 0.86092 0.0
C484 C 0.5842 0.6649 0.8751 0.0
C485 C 0.5913 0.68127 0.92326 0.0
C486 C 0.60193 0.65765 0.95933 0.0
C487 C 0.604 0.61641 0.94474 0.0
C488 C 0.59647 0.60004 0.89709 0.0
C489 C 0.53905 0.54259 0.65399 0.0
C490 C 0.46531 0.60565 0.73506 0.0
C491 C 0.52173 0.64235 0.53589 0.0
C492 C 0.49995 0.65707 0.49994 0.0
C493 C 0.48187 0.62837 0.46732 0.0
C494 C 0.46644 0.64149 0.42789 0.0
C495 C 0.46889 0.68419 0.41864 0.0
C496 C 0.486 0.71278 0.4526 0.0
C497 C 0.50125 0.69951 0.49238 0.0
C498 C 0.55569 0.68382 0.69419 0.0
C499 C 0.62886 0.61238 0.60995 0.0
O500 O 0.60042 0.63466 0.76504 0.0
O501 O 0.55769 0.57399 0.79926 0.0
O502 O 0.52772 0.57575 0.66653 0.0
O503 O 0.5598 0.53564 0.68669 0.0
O504 O 0.49514 0.60074 0.75654 0.0
O505 O 0.47255 0.61553 0.68386 0.0
O506 O 0.50126 0.60936 0.56893 0.0
O507 O 0.54944 0.66959 0.55415 0.0
O508 O 0.57114 0.65374 0.67798 0.0
O509 O 0.53085 0.68895 0.66653 0.0
O510 O 0.60004 0.62163 0.58975 0.0
O511 O 0.6223 0.60334 0.66091 0.0
H512 H 0.57751 0.68486 0.84841 0.0
H513 H 0.58851 0.71277 0.93184 0.0
H514 H 0.61289 0.59661 0.96919 0.0
H515 H 0.59992 0.5688 0.88752 0.0
H516 H 0.48055 0.59547 0.47143 0.0
H517 H 0.45263 0.61769 0.4046 0.0
H518 H 0.48881 0.74584 0.44773 0.0
H519 H 0.51485 0.72269 0.51654 0.0
Tb520 Tb 0.96862 0.34649 0.19444 0.0
Tb521 Tb 0.05806 0.38777 0.18999 0.0
C522 C 0.8939 0.32908 0.18584 0.0
C523 C 0.87057 0.33325 0.14784 0.0
C524 C 0.84032 0.35725 0.16056 0.0
C525 C 0.81844 0.36246 0.12468 0.0
C526 C 0.82609 0.34324 0.07582 0.0
C527 C 0.85518 0.31795 1.06408 0.0
C528 C 0.87728 0.31304 0.09967 0.0
C529 C 0.00853 0.30009 0.23042 0.0
C530 C 0.04419 0.33844 0.08798 0.0
C531 C 0.12937 0.42159 0.20392 0.0
C532 C 0.14743 0.42101 0.24792 0.0
C533 C 0.1358 0.38486 0.28145 0.0
C534 C 0.15016 0.38605 0.32607 0.0
C535 C 0.17567 0.42355 0.3381 0.0
C536 C 0.18776 0.45947 0.30417 0.0
C537 C 0.17389 0.45803 0.25915 0.0
C538 C 0.02834 0.43046 0.13314 0.0
C539 C -0.01679 0.36314 0.30773 0.0
O540 O 0.91132 0.36399 0.20474 0.0
O541 O 0.91876 0.30325 0.17497 0.0
O542 O 0.02333 0.32632 0.19227 0.0
O543 O 0.96705 0.29378 0.24668 0.0
O544 O 0.00289 0.33889 0.10884 0.0
O545 O 0.07161 0.35131 0.11664 0.0
O546 O 0.12173 0.38648 0.18013 0.0
O547 O 0.09773 0.43973 0.2135 0.0
O548 O 0.00621 0.41197 0.17909 0.0
O549 O 0.06693 0.42666 0.12178 0.0
O550 O 0.02521 0.37539 0.27993 0.0
O551 O 0.95439 0.35549 0.28118 0.0
H552 H 0.83418 0.3726 0.19793 0.0
H553 H 0.79626 0.38218 0.13454 0.0
H554 H 0.86245 0.30348 1.02617 0.0
H555 H 0.90018 0.29412 0.08887 0.0
H556 H 0.1147 0.35612 0.27405 0.0
H557 H 0.13986 0.35818 0.35238 0.0
H558 H 0.20727 0.48872 0.31299 0.0
H559 H 0.18274 0.48612 0.23403 0.0
Tb560 Tb 0.49882 0.35191 0.50572 0.0
Tb561 Tb 0.47594 0.39181 0.40887 0.0
C562 C 0.53425 0.3349 0.57286 0.0
C563 C 0.53709 0.3188 0.62479 0.0
C564 C 0.54796 0.34703 0.66255 0.0
C565 C 0.55859 0.33395 0.70643 0.0
C566 C 0.55874 0.29182 0.71494 0.0
C567 C 0.54666 0.2634 0.67759 0.0
C568 C 0.5364 0.27664 0.63338 0.0
C569 C 0.45783 0.30286 0.44622 0.0
C570 C 0.40797 0.36999 0.52459 0.0
C571 C 0.44894 0.3837 0.32693 0.0
C572 C 0.44744 0.3631 0.27431 0.0
C573 C 0.42588 0.32041 0.27298 0.0
C574 C 0.41781 0.30306 0.22583 0.0
C575 C 0.43064 0.32745 0.17732 0.0
C576 C 0.45337 0.3699 0.17851 0.0
C577 C 0.4613 0.38725 0.22572 0.0
C578 C 0.49483 0.44326 0.4829 0.0
C579 C 0.5705 0.38329 0.39207 0.0
O580 O 0.52412 0.37038 0.56993 0.0
O581 O 0.52327 0.30888 0.53785 0.0
O582 O 0.4864 0.33631 0.43262 0.0
O583 O 0.45317 0.2938 0.49601 0.0
O584 O 0.43701 0.36348 0.54627 0.0
O585 O 0.41478 0.3774 0.47293 0.0
O586 O 0.43089 0.36002 0.3713 0.0
O587 O 0.48201 0.41423 0.33045 0.0
O588 O 0.50672 0.41057 0.46859 0.0
O589 O 0.47648 0.45237 0.44852 0.0
O590 O 0.54302 0.3943 0.37145 0.0
O591 O 0.56023 0.36649 0.44121 0.0
H592 H 0.55003 0.37997 0.65703 0.0
H593 H 0.56834 0.35775 0.73238 0.0
H594 H 0.5455 0.23067 0.68175 0.0
H595 H 0.52914 0.25385 0.60496 0.0
H596 H 0.41378 0.30036 0.30911 0.0
H597 H 0.39996 0.27055 0.22833 0.0
H598 H 0.46508 0.39034 0.14282 0.0
H599 H 0.4774 0.42024 0.22443 0.0
Tb600 Tb 0.97284 0.59884 0.94249 0.0
Tb601 Tb 0.06248 0.63617 0.93808 0.0
C602 C 0.90045 0.56633 0.93058 0.0
C603 C 0.88115 0.56646 0.88772 0.0
C604 C 0.89516 0.601 0.85118 0.0
C605 C 0.8788 0.59973 0.80834 0.0
C606 C 0.84872 0.56365 0.8009 0.0
C607 C 0.83467 0.52905 0.83751 0.0
C608 C 0.85063 0.53064 0.88099 0.0
C609 C 0.00028 0.55414 1.00033 0.0
C610 C 0.04728 0.6189 0.82503 0.0
C611 C 0.13735 0.65133 0.94589 0.0
C612 C 0.16166 0.64745 0.9828 0.0
C613 C 0.18991 0.62137 0.97079 0.0
C614 C 0.2126 0.6164 1.00579 0.0
C615 C 0.20771 0.63787 1.05301 0.0
C616 C 0.18112 0.66561 1.06356 0.0
C617 C 0.15826 0.67034 1.02883 0.0
C618 C 0.02789 0.68511 0.89743 0.0
C619 C -0.0123 0.64815 1.04333 0.0
O620 O 0.90964 0.60199 0.95285 0.0
O621 O 0.93155 0.54747 0.92038 0.0
O622 O 0.02267 0.57182 0.95418 0.0
O623 O 0.96263 0.56035 1.01209 0.0
O624 O 0.00527 0.60925 0.85263 0.0
O625 O 0.0759 0.62481 0.85182 0.0
O626 O 0.11837 0.61628 0.92874 0.0
O627 O 0.11363 0.67817 0.95646 0.0
O628 O 0.01025 0.66018 0.93721 0.0
O629 O 0.06886 0.68847 0.883 0.0
O630 O 0.02841 0.64553 1.02323 0.0
O631 O 0.96054 0.63673 1.01424 0.0
H632 H 0.91948 0.62852 0.85494 0.0
H633 H 0.89096 0.62641 0.77983 0.0
H634 H 0.81181 0.50081 0.83217 0.0
H635 H 0.83991 0.50366 0.90869 0.0
H636 H 0.19371 0.6041 0.93486 0.0
H637 H 0.23285 0.59481 0.99687 0.0
H638 H 0.17602 0.68193 0.10023 0.0
H639 H 0.13717 0.69111 1.03882 0.0
C640 C 0.16098 0.06885 1.05593 0.0
C641 C 0.16111 0.10935 0.0732 0.0
H642 H 0.16827 0.03177 0.98771 0.0
C643 C 0.18647 0.14394 1.03852 0.0
H644 H 0.14195 0.0417 0.08248 0.0
C645 C 0.20207 0.13826 0.98424 0.0
C646 C 0.19061 0.09812 0.96521 0.0
H647 H 0.18746 0.17548 1.05147 0.0
H648 H 0.21476 0.1659 0.95723 0.0
C649 C 0.17604 0.06315 1.00149 0.0
C650 C 0.10251 0.73544 0.30258 0.0
C651 C 0.10203 0.75887 0.34823 0.0
H652 H 0.09161 0.72968 0.22604 0.0
C653 C 0.08845 0.79597 0.3499 0.0
H654 H 0.11274 0.70672 0.29931 0.0
C655 C 0.07543 0.80895 0.30809 0.0
C656 C 0.07581 0.78572 0.26209 0.0
H657 H 0.08697 0.81488 0.3843 0.0
H658 H 0.06401 0.83697 0.31296 0.0
C659 C 0.08985 0.74863 0.26035 0.0
C660 C 0.32785 0.91896 0.46709 0.0
C661 C 0.31498 0.88763 0.43388 0.0
H662 H 0.34043 0.93252 0.54133 0.0
C663 C 0.29416 0.84661 0.45607 0.0
H664 H 0.34384 0.95077 0.45142 0.0
C665 C 0.29241 0.83604 0.50781 0.0
C666 C 0.31121 0.86637 0.53795 0.0
H667 H 0.28376 0.82159 0.43179 0.0
H668 H 0.28037 0.80344 0.52218 0.0
C669 C 0.32579 0.90845 0.51888 0.0
C670 C 0.43028 0.20459 0.66698 0.0
C671 C 0.44255 0.19193 0.70978 0.0
H672 H 0.43232 0.19907 0.58404 0.0
C673 C 0.46874 0.16349 0.69821 0.0
H674 H 0.41005 0.22613 0.67364 0.0
C675 C 0.48283 0.14913 0.64623 0.0
C676 C 0.4698 0.1609 0.60375 0.0
H677 H 0.47918 0.1528 0.72942 0.0
H678 H 0.50346 0.12794 0.63954 0.0
C679 C 0.44294 0.18876 0.61534 0.0
C680 C 0.84987 0.92446 0.13745 0.0
C681 C 0.83481 0.88941 0.17369 0.0
H682 H 0.8835 0.94553 1.05624 0.0
C683 C 0.82148 0.84954 0.15489 0.0
H684 H 0.85893 0.95569 0.15115 0.0
C685 C 0.83599 0.84369 0.10052 0.0
C686 C 0.86207 0.8779 1.06561 0.0
H687 H 0.80821 0.82191 0.18192 0.0
H688 H 0.83357 0.812 0.08754 0.0
C689 C 0.86392 0.91861 0.08293 0.0
C690 C 0.94699 0.19424 0.78622 0.0
C691 C 0.93195 0.23044 0.78738 0.0
H692 H 0.97241 0.15483 0.82415 0.0
C693 C 0.92982 0.25384 0.83322 0.0
H694 H 0.94963 0.17533 0.75176 0.0
C695 C 0.94219 0.24148 0.87616 0.0
C696 C 0.95786 0.20539 0.87499 0.0
H697 H 0.91824 0.28178 0.83625 0.0
H698 H 0.93867 0.26029 0.91062 0.0
C699 C 0.95992 0.18219 0.82869 0.0
C700 C 0.73412 0.15132 0.68581 0.0
C701 C 0.72222 0.10874 0.70288 0.0
H702 H 0.7382 0.19567 0.62544 0.0
C703 C 0.71598 0.07817 0.66595 0.0
H704 H 0.73934 0.17576 0.71313 0.0
C705 C 0.71499 0.08967 0.61579 0.0
C706 C 0.72027 0.13191 0.60207 0.0
H707 H 0.70768 0.04523 0.67761 0.0
H708 H 0.70544 0.06519 0.59036 0.0
C709 C 0.73309 0.16281 0.63571 0.0
C710 C 0.54374 0.83103 0.49444 0.0
C711 C 0.55816 0.82044 0.53631 0.0
H712 H 0.54663 0.82697 0.41147 0.0
C713 C 0.58707 0.79458 0.52368 0.0
H714 H 0.52171 0.85084 0.50181 0.0
C715 C 0.60023 0.77937 0.47177 0.0
C716 C 0.58634 0.79069 0.42969 0.0
H717 H 0.599 0.78537 0.55435 0.0
H718 H 0.62198 0.75928 0.46435 0.0
C719 C 0.55825 0.8173 0.44218 0.0
C720 C 0.6802 0.56009 0.49881 0.0
C721 C 0.69529 0.59522 0.4627 0.0
H722 H 0.64637 0.53879 0.5799 0.0
C723 C 0.70842 0.63505 0.48171 0.0
H724 H 0.67128 0.52889 0.48495 0.0
C725 C 0.69369 0.64076 0.53609 0.0
C726 C 0.66763 0.60643 0.57083 0.0
H727 H 0.72169 0.66274 0.45478 0.0
H728 H 0.69597 0.6724 0.5492 0.0
C729 C 0.66595 0.56578 0.55335 0.0
C730 C 0.60017 0.22938 0.80289 0.0
C731 C 0.59863 0.25299 0.8485 0.0
H732 H 0.59061 0.22275 0.72585 0.0
C733 C 0.58401 0.28944 0.84958 0.0
H734 H 0.61138 0.20122 0.79994 0.0
C735 C 0.57089 0.30153 0.8073 0.0
C736 C 0.57233 0.27811 0.76126 0.0
H737 H 0.5818 0.30852 0.88387 0.0
H738 H 0.55873 0.32908 0.81182 0.0
C739 C 0.58759 0.24176 0.76014 0.0
C740 C 0.79553 0.32295 1.00056 0.0
C741 C 0.80925 0.35396 1.03356 0.0
H742 H 0.78895 0.30951 0.92343 0.0
C743 C 0.81573 0.39626 1.01896 0.0
H744 H 0.78947 0.29006 1.01154 0.0
C745 C 0.81507 0.40752 0.96855 0.0
C746 C 0.80798 0.37666 0.93222 0.0
H747 H 0.826 0.42083 1.04388 0.0
H748 H 0.82437 0.4404 0.95623 0.0
C749 C 0.79485 0.33421 0.95019 0.0
C750 C 0.97239 0.66729 0.19335 0.0
C751 C 0.94424 0.69385 0.20579 0.0
H752 H 0.00906 0.63382 0.13376 0.0
C753 C 0.93035 0.70509 0.16368 0.0
H754 H -0.01598 0.65768 0.22408 0.0
C755 C 0.94357 0.68987 0.11177 0.0
C756 C 0.97255 0.66408 0.09918 0.0
H757 H 0.90854 0.72512 0.17106 0.0
H758 H 0.93164 0.69903 0.08107 0.0
C759 C -0.01302 0.65358 0.14109 0.0
C760 C 0.36794 0.41504 0.57989 0.0
C761 C 0.36802 0.37466 0.56231 0.0
H762 H 0.35971 0.45161 0.64853 0.0
C763 C 0.3422 0.33988 0.59638 0.0
H764 H 0.38728 0.44233 0.55376 0.0
C765 C 0.32589 0.3452 0.65065 0.0
C766 C 0.33723 0.38514 0.67025 0.0
H767 H 0.34131 0.30843 0.58314 0.0
H768 H 0.31283 0.31737 0.67733 0.0
C769 C 0.35213 0.42036 0.63433 0.0
C770 C 0.45476 0.67512 0.32765 0.0
C771 C 0.45453 0.69849 0.37353 0.0
H772 H 0.44317 0.66907 0.25146 0.0
C773 C 0.44076 0.73571 0.37503 0.0
H774 H 0.46598 0.64698 0.32299 0.0
C775 C 0.4282 0.74889 0.33271 0.0
C776 C 0.4285 0.72532 0.2872 0.0
H777 H 0.43913 0.75478 0.40922 0.0
H778 H 0.41816 0.77772 0.3358 0.0
C779 C 0.44183 0.68809 0.28574 0.0
C780 C 0.23776 0.64575 0.1793 0.0
C781 C 0.22043 0.6038 0.1992 0.0
H782 H 0.24834 0.68978 0.1153 0.0
C783 C 0.21096 0.5727 0.16411 0.0
H784 H 0.24553 0.67057 0.2052 0.0
C785 C 0.2125 0.58375 0.11272 0.0
C786 C 0.22329 0.62615 0.09591 0.0
H787 H 0.19809 0.5402 0.17784 0.0
H788 H 0.20032 0.55935 0.08881 0.0
C789 C 0.23911 0.65687 0.12791 0.0
C790 C 0.09853 0.27824 0.96931 0.0
C791 C 0.08648 0.29102 0.92638 0.0
H792 H 0.09635 0.28373 1.05229 0.0
C793 C 0.06055 0.31968 0.93778 0.0
H794 H 0.11858 0.25653 0.96277 0.0
C795 C 0.04647 0.33414 0.98972 0.0
C796 C 0.05929 0.32223 1.03233 0.0
H797 H 0.0503 0.33049 0.90646 0.0
H798 H 0.02603 0.35549 0.99629 0.0
C799 C 0.08591 0.29415 1.0209 0.0
C800 C 0.07837 0.28438 0.2152 0.0
C801 C 0.03469 0.27633 0.24532 0.0
H802 H 0.12922 0.25656 0.17711 0.0
C803 C 0.01576 0.24053 0.27973 0.0
H804 H 0.09424 0.3122 0.18946 0.0
C805 C 0.03721 0.20896 0.27379 0.0
C806 C 0.07442 0.21266 0.22976 0.0
H807 H -0.01721 0.23453 0.30531 0.0
H808 H 0.01944 0.17873 0.29421 0.0
C809 C 0.09899 0.2525 0.20864 0.0
C810 C -0.0033 0.75854 0.46268 0.0
C811 C -0.01392 0.73374 0.42204 0.0
H812 H 0.02169 0.76304 0.5291 0.0
C813 C -0.01315 0.69159 0.42239 0.0
H814 H -0.0039 0.79116 0.46367 0.0
C815 C 0.00032 0.67511 0.46095 0.0
C816 C 0.01427 0.70089 0.49912 0.0
H817 H -0.02068 0.67201 0.39119 0.0
H818 H 0.0043 0.64357 0.45705 0.0
C819 C 0.01007 0.74212 0.50126 0.0
C820 C 0.58629 0.74551 0.73052 0.0
C821 C 0.55823 0.70554 0.74243 0.0
H822 H 0.5879 0.80859 0.71444 0.0
C823 C 0.51816 0.70139 0.78119 0.0
H824 H 0.61897 0.74962 0.70464 0.0
C825 C 0.49945 0.73494 0.78666 0.0
C826 C 0.52349 0.77245 0.75725 0.0
H827 H 0.49774 0.67082 0.79717 0.0
H828 H 0.46534 0.72976 0.80701 0.0
C829 C 0.56824 0.77932 0.73529 0.0
C830 C 0.49864 0.17267 0.96283 0.0
C831 C 0.51253 0.19787 1.00146 0.0
H832 H 0.47773 0.1706 0.89313 0.0
C833 C 0.50839 0.23913 1.00444 0.0
H834 H 0.50268 0.14117 0.95825 0.0
C835 C 0.49503 0.25613 0.96629 0.0
C836 C 0.4844 0.23189 0.92527 0.0
H837 H 0.52001 0.25962 1.03264 0.0
H838 H 0.49436 0.28874 0.96798 0.0
C839 C 0.48523 0.18974 0.92469 0.0
C840 C 0.94309 0.73808 0.90628 0.0
C841 C 0.97095 0.77813 0.89426 0.0
H842 H 0.94189 0.67502 0.92173 0.0
C843 C 0.01091 0.78252 0.85519 0.0
H844 H 0.91051 0.73379 0.93255 0.0
C845 C 0.02979 0.74907 0.84913 0.0
C846 C 0.00606 0.71145 0.87845 0.0
H847 H 0.03116 0.81316 0.8393 0.0
H848 H 0.06386 0.75442 0.82845 0.0
C849 C 0.96133 0.70438 0.90093 0.0
C850 C 0.53369 0.72513 0.17289 0.0
C851 C 0.54445 0.75024 0.21322 0.0
H852 H 0.50879 0.72019 0.10639 0.0
C853 C 0.54405 0.79247 0.21216 0.0
H854 H 0.53406 0.69245 0.17239 0.0
C855 C 0.53076 0.80872 0.17325 0.0
C856 C 0.5166 0.78264 0.13546 0.0
H857 H 0.55169 0.8123 0.24309 0.0
H858 H 0.52701 0.84036 0.17666 0.0
C859 C 0.52054 0.74133 0.13396 0.0
C860 C 0.51214 0.24229 0.35658 0.0
C861 C 0.49325 0.20639 0.39083 0.0
H862 H 0.50886 0.30434 0.34287 0.0
C863 C 0.44972 0.19851 0.42145 0.0
H864 H 0.54497 0.24814 0.33059 0.0
C865 C 0.42951 0.23075 0.42907 0.0
C866 C 0.45418 0.27055 0.40778 0.0
H867 H 0.43381 0.17048 0.44682 0.0
H868 H 0.39957 0.22683 0.46105 0.0
C869 C 0.491 0.27412 0.36326 0.0
C870 C 0.03497 0.22729 0.66859 0.0
C871 C 0.04713 0.25237 0.70816 0.0
H872 H 0.00854 0.22281 0.60349 0.0
C873 C 0.04859 0.29507 0.70629 0.0
H874 H 0.03427 0.19434 0.66839 0.0
C875 C 0.0349 0.31169 0.66803 0.0
C876 C 0.01866 0.28554 0.63172 0.0
H877 H 0.05766 0.31499 0.7364 0.0
H878 H 0.03221 0.34369 0.67118 0.0
C879 C 0.02157 0.24389 0.63022 0.0
C880 C 0.03331 0.03344 1.05806 0.0
C881 C 0.02522 0.01481 0.10895 0.0
H882 H 0.02763 0.02537 0.97879 0.0
C883 C 0.00496 0.97187 0.11785 0.0
H884 H 0.05075 0.06579 1.04861 0.0
C885 C -0.00795 0.94856 0.07744 0.0
C886 C 2e-05 0.96722 1.02663 0.0
H887 H -0.00189 0.95654 0.15651 0.0
H888 H -0.02487 0.91599 0.08658 0.0
C889 C 0.02041 0.01013 1.01762 0.0
C890 C 0.23566 0.766 0.32392 0.0
C891 C 0.23326 0.74116 0.36857 0.0
H892 H 0.26688 0.7857 0.2407 0.0
C893 C 0.26401 0.71833 0.36194 0.0
H894 H 0.21287 0.78464 0.32747 0.0
C895 C 0.29547 0.71971 0.31213 0.0
C896 C 0.29776 0.74439 0.2674 0.0
H897 H 0.2643 0.70005 0.39534 0.0
H898 H 0.31826 0.70106 0.30859 0.0
C899 C 0.26715 0.7674 0.2741 0.0
C900 C 0.47975 0.0061 0.58583 0.0
C901 C 0.51098 0.02268 0.53652 0.0
H902 H 0.4606 0.96418 0.65539 0.0
C903 C 0.54839 0.00853 0.52089 0.0
H904 H 0.45032 0.01628 0.59967 0.0
C905 C 0.55394 0.9784 0.55338 0.0
C906 C 0.52248 0.96161 0.60246 0.0
H907 H 0.57293 0.02022 0.48356 0.0
H908 H 0.58328 0.9681 0.53965 0.0
C909 C 0.48527 0.976 0.61822 0.0
C910 C 0.27335 0.25527 0.86614 0.0
C911 C 0.29777 0.22999 0.83481 0.0
H912 H 0.22257 0.28568 0.87529 0.0
C913 C 0.28841 0.21497 0.78799 0.0
H914 H 0.27944 0.26682 0.90273 0.0
C915 C 0.25582 0.22562 0.77231 0.0
C916 C 0.23137 0.25086 0.80368 0.0
H917 H 0.30658 0.19516 0.76323 0.0
H918 H 0.24979 0.21415 0.73566 0.0
C919 C 0.24071 0.26585 0.85052 0.0
C920 C 0.73056 0.2582 0.82201 0.0
C921 C 0.73167 0.2378 0.86825 0.0
H922 H 0.76026 0.27625 0.73813 0.0
C923 C 0.76708 0.22163 0.86377 0.0
H924 H 0.70422 0.27196 0.824 0.0
C925 C 0.79973 0.22513 0.81455 0.0
C926 C 0.79862 0.2455 0.76829 0.0
H927 H 0.77004 0.20708 0.89841 0.0
H928 H 0.82608 0.21139 0.81257 0.0
C929 C 0.76321 0.26168 0.77277 0.0
C930 C 0.77545 0.75792 0.36358 0.0
C931 C 0.79878 0.73168 0.3325 0.0
H932 H 0.72524 0.78922 0.37336 0.0
C933 C 0.78796 0.71586 0.2868 0.0
H934 H 0.78262 0.77008 0.39937 0.0
C935 C 0.75502 0.72662 0.27199 0.0
C936 C 0.73169 0.75285 0.30308 0.0
H937 H 0.80522 0.6953 0.26223 0.0
H938 H 0.74784 0.71445 0.23621 0.0
C939 C 0.74251 0.76866 0.34878 0.0
C940 C 0.50895 0.47377 0.61888 0.0
C941 C 0.52968 0.51661 0.60969 0.0
H942 H 0.47848 0.41814 0.58795 0.0
C943 C 0.53801 0.53517 0.55871 0.0
H944 H 0.50133 0.45864 0.65788 0.0
C945 C 0.52528 0.51178 0.51824 0.0
C946 C 0.50475 0.4689 0.52728 0.0
H947 H 0.55503 0.56772 0.54953 0.0
H948 H 0.53243 0.52703 0.47945 0.0
C949 C 0.49619 0.4504 0.57839 0.0
C950 C -0.02315 0.506 0.08266 0.0
C951 C 0.00846 0.52265 1.03359 0.0
H952 H 0.95729 0.46399 0.15244 0.0
C953 C 0.0454 0.50784 1.01794 0.0
H954 H 0.94773 0.5166 0.09633 0.0
C955 C 0.05052 0.47744 1.05032 0.0
C956 C 0.01909 0.46095 0.09958 0.0
H957 H 0.07021 0.51954 0.98074 0.0
H958 H 0.07969 0.46693 1.03656 0.0
C959 C -0.01801 0.47558 0.11513 0.0
C960 C 0.11581 0.14916 0.54787 0.0
C961 C 0.11105 0.17495 0.509 0.0
H962 H 0.12783 0.14349 0.62292 0.0
C963 C 0.11746 0.21819 0.51943 0.0
H964 H 0.11243 0.11606 0.54234 0.0
C965 C 0.12736 0.23437 0.56628 0.0
C966 C 0.13123 0.20819 0.60532 0.0
H967 H 0.11386 0.23981 0.49197 0.0
H968 H 0.13076 0.26744 0.57257 0.0
C969 C 0.12541 0.16525 0.59461 0.0
C970 C 0.14727 0.90479 0.77239 0.0
C971 C 0.15262 0.86449 0.76069 0.0
H972 H 0.11441 0.94137 0.82977 0.0
C973 C 0.14179 0.83441 0.80282 0.0
H974 H 0.15556 0.92871 0.74086 0.0
C975 C 0.11862 0.84202 0.85413 0.0
C976 C 0.10601 0.87948 0.86296 0.0
H977 H 0.14634 0.80332 0.79482 0.0
H978 H 0.10511 0.8164 0.88426 0.0
C979 C 0.12377 0.91216 0.82341 0.0
C980 C 0.41801 0.80032 0.94532 0.0
C981 C 0.43535 0.82195 0.98424 0.0
H982 H 0.41783 0.79706 0.86326 0.0
C983 C 0.46935 0.85876 0.96472 0.0
H984 H 0.39235 0.77176 0.95724 0.0
C985 C 0.48547 0.87267 0.90937 0.0
C986 C 0.46725 0.85151 0.8708 0.0
H987 H 0.48452 0.87646 0.99221 0.0
H988 H 0.51204 0.90046 0.89694 0.0
C989 C 0.43287 0.81512 0.89063 0.0
C990 C 0.32642 0.09867 0.23949 0.0
C991 C 0.33415 0.06256 0.25701 0.0
H992 H 0.32165 0.13176 0.17379 0.0
C993 C 0.33616 0.02865 0.22393 0.0
H994 H 0.32435 0.12494 0.26474 0.0
C995 C 0.33478 0.03259 0.17179 0.0
C996 C 0.33137 0.07043 0.15276 0.0
H997 H 0.34232 0.00059 0.23683 0.0
H998 H 0.33975 0.00751 0.14529 0.0
C999 C 0.32498 0.10256 0.18768 0.0
C1000 C 0.89674 0.7497 0.56995 0.0
C1001 C 0.9011 0.77687 0.52679 0.0
H1002 H 0.90054 0.74275 0.64948 0.0
C1003 C 0.91465 0.82025 0.53379 0.0
H1004 H 0.88695 0.71613 0.56679 0.0
C1005 C 0.9235 0.83579 0.58106 0.0
C1006 C 0.91892 0.80895 0.62479 0.0
H1007 H 0.91946 0.84275 0.5019 0.0
H1008 H 0.9349 0.86936 0.58236 0.0
C1009 C 0.90522 0.76531 0.61778 0.0
C1010 C 0.88097 0.14496 0.34085 0.0
C1011 C 0.86971 0.11557 0.38383 0.0
H1012 H 0.91877 0.16192 0.2597 0.0
C1013 C 0.8745 0.07493 0.37348 0.0
H1014 H 0.87671 0.17625 0.34782 0.0
C1015 C 0.89848 0.06677 0.32314 0.0
C1016 C 0.91721 0.09904 0.28305 0.0
H1017 H 0.86571 0.05147 0.40569 0.0
H1018 H 0.90737 0.0373 0.31785 0.0
C1019 C 0.90477 0.13666 0.2903 0.0
C1020 C 0.56027 0.12378 0.17334 0.0
C1021 C 0.59326 0.1613 0.15333 0.0
H1022 H 0.51851 0.08193 0.24156 0.0
C1023 C 0.60947 0.18423 0.19236 0.0
H1024 H 0.54591 0.10497 0.14592 0.0
C1025 C 0.59464 0.17007 0.24738 0.0
C1026 C 0.56133 0.13292 0.26768 0.0
H1027 H 0.63429 0.21336 0.18026 0.0
H1028 H 0.60894 0.18916 0.27466 0.0
C1029 C 0.54416 0.11042 0.22899 0.0
C1030 C 0.70994 0.89402 0.89989 0.0
C1031 C 0.69491 0.92624 0.88467 0.0
H1032 H 0.7198 0.86338 0.96399 0.0
C1033 C 0.68541 0.95716 0.92058 0.0
H1034 H 0.71814 0.87026 0.87256 0.0
C1035 C 0.68679 0.9534 0.97273 0.0
C1036 C 0.69756 0.9187 0.98913 0.0
H1037 H 0.67359 0.98223 0.90977 0.0
H1038 H 0.67617 0.97559 1.0012 0.0
C1039 C 0.71104 0.89016 0.9519 0.0
C1040 C 0.62484 0.71904 1.01797 0.0
C1041 C 0.61117 0.67539 1.01105 0.0
H1042 H 0.64321 0.7683 0.06882 0.0
C1043 C 0.60678 0.64861 1.05473 0.0
H1044 H 0.62937 0.74156 0.9863 0.0
C1045 C 0.61579 0.66421 0.10189 0.0
C1046 C 0.6293 0.7076 0.10882 0.0
H1047 H 0.59541 0.61503 1.05349 0.0
H1048 H 0.61112 0.64175 0.13376 0.0
C1049 C 0.63347 0.73472 1.0657 0.0
C1050 C 0.62397 0.34528 0.34688 0.0
C1051 C 0.61219 0.38323 0.35419 0.0
H1052 H 0.65141 0.30537 0.28935 0.0
C1053 C 0.63143 0.41553 0.31419 0.0
H1054 H 0.60954 0.31999 0.37744 0.0
C1055 C 0.65528 0.40721 0.26386 0.0
C1056 C 0.65944 0.36638 0.25342 0.0
H1057 H 0.62302 0.44523 0.31953 0.0
H1058 H 0.66447 0.43081 0.23172 0.0
C1059 C 0.64766 0.33683 0.29635 0.0
C1060 C -0.01506 0.37232 0.40691 0.0
C1061 C 0.96751 0.34985 0.36842 0.0
H1062 H -0.01637 0.37777 0.48982 0.0
C1063 C 0.9342 0.31274 0.38884 0.0
H1064 H 0.01064 0.40077 0.3942 0.0
C1065 C 0.91961 0.29859 0.44385 0.0
C1066 C 0.93609 0.32151 0.48269 0.0
H1067 H 0.91974 0.29367 0.36167 0.0
H1068 H 0.89477 0.26948 0.45609 0.0
C1069 C 0.96908 0.35898 0.46254 0.0
C1070 C 0.82413 0.59609 0.73588 0.0
C1071 C 0.83543 0.56171 0.75228 0.0
H1072 H 0.81686 0.62804 0.67094 0.0
C1073 C 0.84086 0.52897 0.71793 0.0
H1074 H 0.81924 0.62138 0.76207 0.0
C1075 C 0.83934 0.53273 0.66583 0.0
C1076 C 0.83245 0.56923 0.64802 0.0
H1077 H 0.84976 0.50222 0.72982 0.0
H1078 H 0.84694 0.50884 0.63841 0.0
C1079 C 0.82274 0.59987 0.68401 0.0
C1080 C 0.41275 0.26604 0.11658 0.0
C1081 C 0.41965 0.30935 0.12671 0.0
H1082 H 0.39911 0.21677 1.06373 0.0
C1083 C 0.41551 0.33525 0.08748 0.0
H1084 H 0.41586 0.24431 0.14433 0.0
C1085 C 0.40599 0.31917 1.04068 0.0
C1086 C 0.39965 0.27615 1.0303 0.0
H1087 H 0.41931 0.36843 0.09276 0.0
H1088 H 0.40403 0.341 1.01207 0.0
C1089 C 0.40295 0.24989 0.0697 0.0
C1090 C 0.38207 0.57913 0.8638 0.0
C1091 C 0.37666 0.61942 0.87543 0.0
H1092 H 0.41504 0.54256 0.80653 0.0
C1093 C 0.38755 0.64948 0.83327 0.0
H1094 H 0.37376 0.55525 0.89538 0.0
C1095 C 0.41075 0.64185 0.78199 0.0
C1096 C 0.4234 0.60441 0.77322 0.0
H1097 H 0.38298 0.68057 0.84123 0.0
H1098 H 0.42427 0.66745 0.75183 0.0
C1099 C 0.40564 0.57175 0.81282 0.0
C1100 C 0.06128 0.62509 0.67062 0.0
C1101 C 0.09539 0.66181 0.65091 0.0
H1102 H 0.01854 0.58357 0.73859 0.0
C1103 C 0.11285 0.68341 0.68976 0.0
H1104 H 0.04597 0.60741 0.64323 0.0
C1105 C 0.09804 0.66869 0.7445 0.0
C1106 C 0.06357 0.6324 0.76454 0.0
H1107 H 0.13857 0.71192 0.67775 0.0
H1108 H 0.11321 0.68675 0.77177 0.0
C1109 C 0.04521 0.61127 0.72604 0.0
C1110 C 0.17478 0.45557 0.42475 0.0
C1111 C 0.18642 0.4257 0.38839 0.0
H1112 H 0.16726 0.47537 0.50448 0.0
C1113 C 0.20421 0.39534 0.40256 0.0
H1114 H 0.16072 0.47909 0.41453 0.0
C1115 C 0.20836 0.39354 0.45346 0.0
C1116 C 0.19419 0.42173 0.49097 0.0
H1117 H 0.21344 0.37213 0.37488 0.0
H1118 H 0.22029 0.36861 0.46447 0.0
C1119 C 0.17832 0.45337 0.47599 0.0
loop_
_geom_bond_atom_site_label_1
_geom_bond_atom_site_label_2
_geom_bond_distance
_geom_bond_site_symmetry_2
_ccdc_geom_bond_type
Tb0 C2 2.809 . S
Tb0 O20 2.484 . S
Tb0 O21 2.440 . S
Tb0 O22 2.658 . S
Tb0 O23 2.409 . S
Tb0 O24 2.378 . S
Tb0 O28 2.325 . S
Tb0 O31 2.341 . S
Tb1 C11 2.809 1_455 S
Tb1 O22 2.325 . S
Tb1 O25 2.346 1_455 S
Tb1 O26 2.484 . S
Tb1 O27 2.440 1_455 S
Tb1 O28 2.658 . S
Tb1 O29 2.409 . S
Tb1 O30 2.378 . S
C2 Tb0 2.809 . S
C2 C3 1.514 . S
C2 O20 1.248 . S
C2 O21 1.266 . S
C3 C2 1.514 . S
C3 C4 1.359 . S
C3 C8 1.348 . S
C4 C3 1.359 . S
C4 C5 1.380 . S
C4 H32 0.929 . S
C5 C4 1.380 . S
C5 C6 1.347 . S
C5 H33 0.931 . S
C6 C5 1.347 . S
C6 C7 1.369 . S
C7 C6 1.369 . S
C7 C8 1.408 . S
C7 H34 0.930 . S
C8 C3 1.348 . S
C8 C7 1.408 . S
C8 H35 0.930 . S
C9 O22 1.281 . S
C9 O23 1.254 . S
C10 O24 1.236 . S
C10 O25 1.244 1_455 S
C11 Tb1 2.809 1_655 S
C11 C12 1.514 1_554 S
C11 O26 1.248 1_655 S
C11 O27 1.266 . S
C12 C11 1.514 1_556 S
C12 C13 1.359 . S
C12 C17 1.348 . S
C13 C12 1.359 . S
C13 C14 1.380 . S
C13 H36 0.929 . S
C14 C13 1.380 . S
C14 C15 1.347 . S
C14 H37 0.931 . S
C15 C14 1.347 . S
C15 C16 1.369 . S
C16 C15 1.369 . S
C16 C17 1.408 . S
C16 H38 0.930 . S
C17 C12 1.348 . S
C17 C16 1.408 . S
C17 H39 0.930 . S
C18 O28 1.281 . S
C18 O29 1.254 . S
C19 O30 1.236 . S
C19 O31 1.266 . S
O20 Tb0 2.484 . S
O20 C2 1.248 . S
O21 Tb0 2.440 . S
O21 C2 1.266 . S
O22 Tb0 2.658 . S
O22 Tb1 2.325 . S
O22 C9 1.281 . S
O23 Tb0 2.409 . S
O23 C9 1.254 . S
O24 Tb0 2.378 . S
O24 C10 1.236 . S
O25 Tb1 2.346 1_655 S
O25 C10 1.244 1_655 S
O26 Tb1 2.484 . S
O26 C11 1.248 1_455 S
O27 Tb1 2.440 1_655 S
O27 C11 1.266 . S
O28 Tb0 2.325 . S
O28 Tb1 2.658 . S
O28 C18 1.281 . S
O29 Tb1 2.409 . S
O29 C18 1.254 . S
O30 Tb1 2.378 . S
O30 C19 1.236 . S
O31 Tb0 2.341 . S
O31 C19 1.266 . S
H32 C4 0.929 . S
H33 C5 0.931 . S
H34 C7 0.930 . S
H35 C8 0.930 . S
H36 C13 0.929 . S
H37 C14 0.931 . S
H38 C16 0.930 . S
H39 C17 0.930 . S
Tb40 C42 2.809 . S
Tb40 O60 2.484 . S
Tb40 O61 2.440 . S
Tb40 O62 2.658 . S
Tb40 O63 2.409 . S
Tb40 O64 2.378 . S
Tb40 O68 2.325 . S
Tb40 O71 2.341 . S
Tb41 C51 2.809 . S
Tb41 O62 2.325 . S
Tb41 O65 2.341 . S
Tb41 O66 2.484 . S
Tb41 O67 2.440 . S
Tb41 O68 2.658 . S
Tb41 O69 2.409 . S
Tb41 O70 2.378 . S
C42 Tb40 2.809 . S
C42 C43 1.514 . S
C42 O60 1.248 . S
C42 O61 1.266 . S
C43 C42 1.514 . S
C43 C44 1.359 . S
C43 C48 1.348 . S
C44 C43 1.359 . S
C44 C45 1.380 . S
C44 H72 0.929 . S
C45 C44 1.380 . S
C45 C46 1.347 . S
C45 H73 0.931 . S
C46 C45 1.347 . S
C46 C47 1.369 . S
C47 C46 1.369 . S
C47 C48 1.408 . S
C47 H74 0.930 . S
C48 C43 1.348 . S
C48 C47 1.408 . S
C48 H75 0.930 . S
C49 O62 1.281 . S
C49 O63 1.254 . S
C50 O64 1.236 . S
C50 O65 1.266 . S
C51 Tb41 2.809 . S
C51 C52 1.514 . S
C51 O66 1.248 . S
C51 O67 1.266 . S
C52 C51 1.514 . S
C52 C53 1.359 . S
C52 C57 1.348 . S
C53 C52 1.359 . S
C53 C54 1.380 . S
C53 H76 0.929 . S
C54 C53 1.380 . S
C54 C55 1.347 . S
C54 H77 0.931 . S
C55 C54 1.347 . S
C55 C56 1.369 . S
C56 C55 1.369 . S
C56 C57 1.408 . S
C56 H78 0.930 . S
C57 C52 1.348 . S
C57 C56 1.408 . S
C57 H79 0.930 . S
C58 O68 1.281 . S
C58 O69 1.254 . S
C59 O70 1.236 . S
C59 O71 1.266 . S
O60 Tb40 2.484 . S
O60 C42 1.248 . S
O61 Tb40 2.440 . S
O61 C42 1.266 . S
O62 Tb40 2.658 . S
O62 Tb41 2.325 . S
O62 C49 1.281 . S
O63 Tb40 2.409 . S
O63 C49 1.254 . S
O64 Tb40 2.378 . S
O64 C50 1.236 . S
O65 Tb41 2.341 . S
O65 C50 1.266 . S
O66 Tb41 2.484 . S
O66 C51 1.248 . S
O67 Tb41 2.440 . S
O67 C51 1.266 . S
O68 Tb40 2.325 . S
O68 Tb41 2.658 . S
O68 C58 1.281 . S
O69 Tb41 2.409 . S
O69 C58 1.254 . S
O70 Tb41 2.378 . S
O70 C59 1.236 . S
O71 Tb40 2.341 . S
O71 C59 1.266 . S
H72 C44 0.929 . S
H73 C45 0.931 . S
H74 C47 0.930 . S
H75 C48 0.930 . S
H76 C53 0.929 . S
H77 C54 0.931 . S
H78 C56 0.930 . S
H79 C57 0.930 . S
Tb80 C82 2.809 . S
Tb80 O100 2.484 . S
Tb80 O101 2.440 . S
Tb80 O102 2.658 . S
Tb80 O103 2.409 . S
Tb80 O104 2.378 . S
Tb80 O108 2.325 . S
Tb80 O111 2.341 . S
Tb81 C91 2.809 . S
Tb81 O102 2.325 . S
Tb81 O105 2.341 . S
Tb81 O106 2.484 . S
Tb81 O107 2.440 . S
Tb81 O108 2.658 . S
Tb81 O109 2.409 1_565 S
Tb81 O110 2.378 . S
C82 Tb80 2.809 . S
C82 C83 1.514 . S
C82 O100 1.248 . S
C82 O101 1.266 . S
C83 C82 1.514 . S
C83 C84 1.359 . S
C83 C88 1.348 . S
C84 C83 1.359 . S
C84 C85 1.380 . S
C84 H112 0.929 . S
C85 C84 1.380 . S
C85 C86 1.347 . S
C85 H113 0.931 . S
C86 C85 1.347 . S
C86 C87 1.369 . S
C87 C86 1.369 . S
C87 C88 1.408 . S
C87 H114 0.930 . S
C88 C83 1.348 . S
C88 C87 1.408 . S
C88 H115 0.930 . S
C89 O102 1.281 . S
C89 O103 1.254 . S
C90 O104 1.236 . S
C90 O105 1.266 . S
C91 Tb81 2.809 . S
C91 C92 1.514 . S
C91 O106 1.248 . S
C91 O107 1.266 . S
C92 C91 1.514 . S
C92 C93 1.359 . S
C92 C97 1.348 . S
C93 C92 1.359 . S
C93 C94 1.380 . S
C93 H116 0.929 . S
C94 C93 1.380 . S
C94 C95 1.347 . S
C94 H117 0.931 . S
C95 C94 1.347 . S
C95 C96 1.373 . S
C96 C95 1.373 . S
C96 C97 1.409 . S
C96 H118 0.926 1_565 S
C97 C92 1.348 . S
C97 C96 1.409 . S
C97 H119 0.930 1_565 S
C98 O108 1.281 . S
C98 O109 1.254 1_565 S
C99 O110 1.236 . S
C99 O111 1.266 . S
O100 Tb80 2.484 . S
O100 C82 1.248 . S
O101 Tb80 2.440 . S
O101 C82 1.266 . S
O102 Tb80 2.658 . S
O102 Tb81 2.325 . S
O102 C89 1.281 . S
O103 Tb80 2.409 . S
O103 C89 1.254 . S
O104 Tb80 2.378 . S
O104 C90 1.236 . S
O105 Tb81 2.341 . S
O105 C90 1.266 . S
O106 Tb81 2.484 . S
O106 C91 1.248 . S
O107 Tb81 2.440 . S
O107 C91 1.266 . S
O108 Tb80 2.325 . S
O108 Tb81 2.658 . S
O108 C98 1.281 . S
O109 Tb81 2.409 1_545 S
O109 C98 1.254 1_545 S
O110 Tb81 2.378 . S
O110 C99 1.236 . S
O111 Tb80 2.341 . S
O111 C99 1.266 . S
H112 C84 0.929 . S
H113 C85 0.931 . S
H114 C87 0.930 . S
H115 C88 0.930 . S
H116 C93 0.929 . S
H117 C94 0.931 . S
H118 C96 0.926 1_545 S
H119 C97 0.930 1_545 S
Tb120 C122 2.809 . S
Tb120 O140 2.484 . S
Tb120 O141 2.440 . S
Tb120 O142 2.658 . S
Tb120 O143 2.409 . S
Tb120 O144 2.378 . S
Tb120 O148 2.325 . S
Tb120 O151 2.341 . S
Tb121 C131 2.809 . S
Tb121 O142 2.325 . S
Tb121 O145 2.341 . S
Tb121 O146 2.484 . S
Tb121 O147 2.440 . S
Tb121 O148 2.658 . S
Tb121 O149 2.409 . S
Tb121 O150 2.378 . S
C122 Tb120 2.809 . S
C122 C123 1.514 1_556 S
C122 O140 1.248 . S
C122 O141 1.266 . S
C123 C122 1.514 1_554 S
C123 C124 1.359 . S
C123 C128 1.348 . S
C124 C123 1.359 . S
C124 C125 1.380 . S
C124 H152 0.929 . S
C125 C124 1.380 . S
C125 C126 1.347 . S
C125 H153 0.931 . S
C126 C125 1.347 . S
C126 C127 1.369 . S
C127 C126 1.369 . S
C127 C128 1.408 . S
C127 H154 0.930 . S
C128 C123 1.348 . S
C128 C127 1.408 . S
C128 H155 0.930 . S
C129 O142 1.281 . S
C129 O143 1.254 . S
C130 O144 1.236 . S
C130 O145 1.266 . S
C131 Tb121 2.809 . S
C131 C132 1.514 . S
C131 O146 1.248 . S
C131 O147 1.266 . S
C132 C131 1.514 . S
C132 C133 1.359 . S
C132 C137 1.348 . S
C133 C132 1.359 . S
C133 C134 1.380 . S
C133 H156 0.929 . S
C134 C133 1.380 . S
C134 C135 1.347 . S
C134 H157 0.931 . S
C135 C134 1.347 . S
C135 C136 1.369 . S
C136 C135 1.369 . S
C136 C137 1.408 . S
C136 H158 0.930 . S
C137 C132 1.348 . S
C137 C136 1.408 . S
C137 H159 0.930 . S
C138 O148 1.281 . S
C138 O149 1.254 . S
C139 O150 1.236 . S
C139 O151 1.266 . S
O140 Tb120 2.484 . S
O140 C122 1.248 . S
O141 Tb120 2.440 . S
O141 C122 1.266 . S
O142 Tb120 2.658 . S
O142 Tb121 2.325 . S
O142 C129 1.281 . S
O143 Tb120 2.409 . S
O143 C129 1.254 . S
O144 Tb120 2.378 . S
O144 C130 1.236 . S
O145 Tb121 2.341 . S
O145 C130 1.266 . S
O146 Tb121 2.484 . S
O146 C131 1.248 . S
O147 Tb121 2.440 . S
O147 C131 1.266 . S
O148 Tb120 2.325 . S
O148 Tb121 2.658 . S
O148 C138 1.281 . S
O149 Tb121 2.409 . S
O149 C138 1.254 . S
O150 Tb121 2.378 . S
O150 C139 1.236 . S
O151 Tb120 2.341 . S
O151 C139 1.266 . S
H152 C124 0.929 . S
H153 C125 0.931 . S
H154 C127 0.930 . S
H155 C128 0.930 . S
H156 C133 0.929 . S
H157 C134 0.931 . S
H158 C136 0.930 . S
H159 C137 0.930 . S
Tb160 C162 2.809 . S
Tb160 O180 2.484 . S
Tb160 O181 2.440 . S
Tb160 O182 2.658 . S
Tb160 O183 2.409 . S
Tb160 O184 2.378 . S
Tb160 O188 2.325 . S
Tb160 O191 2.341 . S
Tb161 C171 2.809 . S
Tb161 O182 2.325 1_655 S
Tb161 O185 2.341 . S
Tb161 O186 2.484 . S
Tb161 O187 2.440 . S
Tb161 O188 2.658 1_655 S
Tb161 O189 2.409 . S
Tb161 O190 2.378 1_655 S
C162 Tb160 2.809 . S
C162 C163 1.514 1_556 S
C162 O180 1.248 . S
C162 O181 1.266 . S
C163 C162 1.514 1_554 S
C163 C164 1.359 . S
C163 C168 1.348 . S
C164 C163 1.359 . S
C164 C165 1.380 . S
C164 H192 0.929 . S
C165 C164 1.380 . S
C165 C166 1.347 . S
C165 H193 0.931 . S
C166 C165 1.347 . S
C166 C167 1.369 . S
C167 C166 1.369 . S
C167 C168 1.408 . S
C167 H194 0.930 . S
C168 C163 1.348 . S
C168 C167 1.408 . S
C168 H195 0.930 . S
C169 O182 1.281 . S
C169 O183 1.254 . S
C170 O184 1.236 1_655 S
C170 O185 1.266 . S
C171 Tb161 2.809 . S
C171 C172 1.514 . S
C171 O186 1.248 . S
C171 O187 1.266 . S
C172 C171 1.514 . S
C172 C173 1.359 . S
C172 C177 1.348 . S
C173 C172 1.359 . S
C173 C174 1.380 . S
C173 H196 0.929 . S
C174 C173 1.380 . S
C174 C175 1.347 . S
C174 H197 0.931 . S
C175 C174 1.347 . S
C175 C176 1.369 . S
C176 C175 1.369 . S
C176 C177 1.408 . S
C176 H198 0.930 . S
C177 C172 1.348 . S
C177 C176 1.408 . S
C177 H199 0.930 . S
C178 O188 1.281 . S
C178 O189 1.254 1_455 S
C179 O190 1.236 . S
C179 O191 1.266 . S
O180 Tb160 2.484 . S
O180 C162 1.248 . S
O181 Tb160 2.440 . S
O181 C162 1.266 . S
O182 Tb160 2.658 . S
O182 Tb161 2.325 1_455 S
O182 C169 1.281 . S
O183 Tb160 2.409 . S
O183 C169 1.254 . S
O184 Tb160 2.378 . S
O184 C170 1.236 1_455 S
O185 Tb161 2.341 . S
O185 C170 1.266 . S
O186 Tb161 2.484 . S
O186 C171 1.248 . S
O187 Tb161 2.440 . S
O187 C171 1.266 . S
O188 Tb160 2.325 . S
O188 Tb161 2.658 1_455 S
O188 C178 1.281 . S
O189 Tb161 2.409 . S
O189 C178 1.254 1_655 S
O190 Tb161 2.378 1_455 S
O190 C179 1.236 . S
O191 Tb160 2.341 . S
O191 C179 1.266 . S
H192 C164 0.929 . S
H193 C165 0.931 . S
H194 C167 0.930 . S
H195 C168 0.930 . S
H196 C173 0.929 . S
H197 C174 0.931 . S
H198 C176 0.930 . S
H199 C177 0.930 . S
Tb200 C202 2.809 . S
Tb200 O220 2.484 . S
Tb200 O221 2.440 . S
Tb200 O222 2.658 . S
Tb200 O223 2.409 . S
Tb200 O224 2.378 . S
Tb200 O228 2.325 . S
Tb200 O231 2.341 . S
Tb201 C211 2.809 1_554 S
Tb201 O222 2.325 . S
Tb201 O225 2.341 . S
Tb201 O226 2.484 1_554 S
Tb201 O227 2.440 . S
Tb201 O228 2.658 . S
Tb201 O229 2.409 . S
Tb201 O230 2.378 . S
C202 Tb200 2.809 . S
C202 C203 1.514 . S
C202 O220 1.248 . S
C202 O221 1.266 . S
C203 C202 1.514 . S
C203 C204 1.359 . S
C203 C208 1.348 . S
C204 C203 1.359 . S
C204 C205 1.380 . S
C204 H232 0.929 . S
C205 C204 1.380 . S
C205 C206 1.347 . S
C205 H233 0.931 . S
C206 C205 1.347 . S
C206 C207 1.369 . S
C207 C206 1.369 . S
C207 C208 1.408 . S
C207 H234 0.930 . S
C208 C203 1.348 . S
C208 C207 1.408 . S
C208 H235 0.930 . S
C209 O222 1.281 . S
C209 O223 1.254 . S
C210 O224 1.236 . S
C210 O225 1.266 . S
C211 Tb201 2.809 1_556 S
C211 C212 1.514 . S
C211 O226 1.248 . S
C211 O227 1.266 1_556 S
C212 C211 1.514 . S
C212 C213 1.359 . S
C212 C217 1.348 . S
C213 C212 1.359 . S
C213 C214 1.380 . S
C213 H236 0.929 . S
C214 C213 1.380 . S
C214 C215 1.347 . S
C214 H237 0.931 . S
C215 C214 1.347 . S
C215 C216 1.369 . S
C216 C215 1.369 . S
C216 C217 1.408 . S
C216 H238 0.930 . S
C217 C212 1.348 . S
C217 C216 1.408 . S
C217 H239 0.930 . S
C218 O228 1.281 . S
C218 O229 1.254 . S
C219 O230 1.236 . S
C219 O231 1.266 . S
O220 Tb200 2.484 . S
O220 C202 1.248 . S
O221 Tb200 2.440 . S
O221 C202 1.266 . S
O222 Tb200 2.658 . S
O222 Tb201 2.325 . S
O222 C209 1.281 . S
O223 Tb200 2.409 . S
O223 C209 1.254 . S
O224 Tb200 2.378 . S
O224 C210 1.236 . S
O225 Tb201 2.341 . S
O225 C210 1.266 . S
O226 Tb201 2.484 1_556 S
O226 C211 1.248 . S
O227 Tb201 2.440 . S
O227 C211 1.266 1_554 S
O228 Tb200 2.325 . S
O228 Tb201 2.658 . S
O228 C218 1.281 . S
O229 Tb201 2.409 . S
O229 C218 1.254 . S
O230 Tb201 2.378 . S
O230 C219 1.236 . S
O231 Tb200 2.341 . S
O231 C219 1.266 . S
H232 C204 0.929 . S
H233 C205 0.931 . S
H234 C207 0.930 . S
H235 C208 0.930 . S
H236 C213 0.929 . S
H237 C214 0.931 . S
H238 C216 0.930 . S
H239 C217 0.930 . S
Tb240 C242 2.809 . S
Tb240 O260 2.484 . S
Tb240 O261 2.440 . S
Tb240 O262 2.658 . S
Tb240 O263 2.409 1_545 S
Tb240 O264 2.378 . S
Tb240 O268 2.325 . S
Tb240 O271 2.341 . S
Tb241 C251 2.809 . S
Tb241 O262 2.325 . S
Tb241 O265 2.341 . S
Tb241 O266 2.484 . S
Tb241 O267 2.440 . S
Tb241 O268 2.658 . S
Tb241 O269 2.409 . S
Tb241 O270 2.378 . S
C242 Tb240 2.809 . S
C242 C243 1.514 . S
C242 O260 1.248 . S
C242 O261 1.266 . S
C243 C242 1.514 . S
C243 C244 1.359 . S
C243 C248 1.348 . S
C244 C243 1.359 . S
C244 C245 1.380 . S
C244 H272 0.929 . S
C245 C244 1.380 . S
C245 C246 1.347 . S
C245 H273 0.931 . S
C246 C245 1.347 . S
C246 C247 1.375 . S
C247 C246 1.375 . S
C247 C248 1.409 . S
C247 H274 0.924 1_545 S
C248 C243 1.348 . S
C248 C247 1.409 . S
C248 H275 0.930 1_545 S
C249 O262 1.281 . S
C249 O263 1.254 1_545 S
C250 O264 1.236 . S
C250 O265 1.266 . S
C251 Tb241 2.809 . S
C251 C252 1.514 . S
C251 O266 1.248 . S
C251 O267 1.266 . S
C252 C251 1.514 . S
C252 C253 1.359 . S
C252 C257 1.348 . S
C253 C252 1.359 . S
C253 C254 1.380 . S
C253 H276 0.929 . S
C254 C253 1.380 . S
C254 C255 1.347 . S
C254 H277 0.931 . S
C255 C254 1.347 . S
C255 C256 1.369 . S
C256 C255 1.369 . S
C256 C257 1.408 . S
C256 H278 0.930 . S
C257 C252 1.348 . S
C257 C256 1.408 . S
C257 H279 0.930 . S
C258 O268 1.281 . S
C258 O269 1.254 . S
C259 O270 1.236 . S
C259 O271 1.266 . S
O260 Tb240 2.484 . S
O260 C242 1.248 . S
O261 Tb240 2.440 . S
O261 C242 1.266 . S
O262 Tb240 2.658 . S
O262 Tb241 2.325 . S
O262 C249 1.281 . S
O263 Tb240 2.409 1_565 S
O263 C249 1.254 1_565 S
O264 Tb240 2.378 . S
O264 C250 1.236 . S
O265 Tb241 2.341 . S
O265 C250 1.266 . S
O266 Tb241 2.484 . S
O266 C251 1.248 . S
O267 Tb241 2.440 . S
O267 C251 1.266 . S
O268 Tb240 2.325 . S
O268 Tb241 2.658 . S
O268 C258 1.281 . S
O269 Tb241 2.409 . S
O269 C258 1.254 . S
O270 Tb241 2.378 . S
O270 C259 1.236 . S
O271 Tb240 2.341 . S
O271 C259 1.266 . S
H272 C244 0.929 . S
H273 C245 0.931 . S
H274 C247 0.924 1_565 S
H275 C248 0.930 1_565 S
H276 C253 0.929 . S
H277 C254 0.931 . S
H278 C256 0.930 . S
H279 C257 0.930 . S
Tb280 C282 2.809 . S
Tb280 O300 2.484 . S
Tb280 O301 2.440 . S
Tb280 O302 2.658 . S
Tb280 O303 2.409 . S
Tb280 O304 2.378 . S
Tb280 O308 2.325 . S
Tb280 O311 2.341 . S
Tb281 C291 2.809 . S
Tb281 O302 2.325 . S
Tb281 O305 2.341 . S
Tb281 O306 2.484 . S
Tb281 O307 2.440 . S
Tb281 O308 2.658 . S
Tb281 O309 2.409 . S
Tb281 O310 2.378 . S
C282 Tb280 2.809 . S
C282 C283 1.514 . S
C282 O300 1.248 . S
C282 O301 1.266 . S
C283 C282 1.514 . S
C283 C284 1.359 . S
C283 C288 1.348 . S
C284 C283 1.359 . S
C284 C285 1.380 . S
C284 H312 0.929 . S
C285 C284 1.380 . S
C285 C286 1.347 . S
C285 H313 0.931 . S
C286 C285 1.347 . S
C286 C287 1.369 . S
C287 C286 1.369 . S
C287 C288 1.408 . S
C287 H314 0.930 . S
C288 C283 1.348 . S
C288 C287 1.408 . S
C288 H315 0.930 . S
C289 O302 1.281 . S
C289 O303 1.254 . S
C290 O304 1.236 . S
C290 O305 1.266 . S
C291 Tb281 2.809 . S
C291 C292 1.514 . S
C291 O306 1.248 . S
C291 O307 1.266 . S
C292 C291 1.514 . S
C292 C293 1.359 . S
C292 C297 1.348 . S
C293 C292 1.359 . S
C293 C294 1.380 . S
C293 H316 0.929 . S
C294 C293 1.380 . S
C294 C295 1.347 . S
C294 H317 0.931 . S
C295 C294 1.347 . S
C295 C296 1.369 . S
C296 C295 1.369 . S
C296 C297 1.408 . S
C296 H318 0.930 . S
C297 C292 1.348 . S
C297 C296 1.408 . S
C297 H319 0.930 . S
C298 O308 1.281 . S
C298 O309 1.254 . S
C299 O310 1.236 . S
C299 O311 1.266 . S
O300 Tb280 2.484 . S
O300 C282 1.248 . S
O301 Tb280 2.440 . S
O301 C282 1.266 . S
O302 Tb280 2.658 . S
O302 Tb281 2.325 . S
O302 C289 1.281 . S
O303 Tb280 2.409 . S
O303 C289 1.254 . S
O304 Tb280 2.378 . S
O304 C290 1.236 . S
O305 Tb281 2.341 . S
O305 C290 1.266 . S
O306 Tb281 2.484 . S
O306 C291 1.248 . S
O307 Tb281 2.440 . S
O307 C291 1.266 . S
O308 Tb280 2.325 . S
O308 Tb281 2.658 . S
O308 C298 1.281 . S
O309 Tb281 2.409 . S
O309 C298 1.254 . S
O310 Tb281 2.378 . S
O310 C299 1.236 . S
O311 Tb280 2.341 . S
O311 C299 1.266 . S
H312 C284 0.929 . S
H313 C285 0.931 . S
H314 C287 0.930 . S
H315 C288 0.930 . S
H316 C293 0.929 . S
H317 C294 0.931 . S
H318 C296 0.930 . S
H319 C297 0.930 . S
Tb320 C322 2.809 . S
Tb320 O340 2.484 . S
Tb320 O341 2.440 . S
Tb320 O342 2.658 . S
Tb320 O343 2.409 1_655 S
Tb320 O344 2.378 . S
Tb320 O348 2.325 . S
Tb320 O351 2.341 . S
Tb321 C331 2.809 . S
Tb321 O342 2.325 . S
Tb321 O345 2.341 . S
Tb321 O346 2.484 . S
Tb321 O347 2.440 . S
Tb321 O348 2.658 . S
Tb321 O349 2.409 . S
Tb321 O350 2.378 . S
C322 Tb320 2.809 . S
C322 C323 1.514 . S
C322 O340 1.248 . S
C322 O341 1.266 . S
C323 C322 1.514 . S
C323 C324 1.359 . S
C323 C328 1.348 . S
C324 C323 1.359 . S
C324 C325 1.380 . S
C324 H352 0.929 . S
C325 C324 1.380 . S
C325 C326 1.347 . S
C325 H353 0.931 . S
C326 C325 1.347 . S
C326 C327 1.369 . S
C327 C326 1.369 . S
C327 C328 1.408 . S
C327 H354 0.930 . S
C328 C323 1.348 . S
C328 C327 1.408 . S
C328 H355 0.930 . S
C329 O342 1.281 . S
C329 O343 1.254 1_655 S
C330 O344 1.236 . S
C330 O345 1.266 . S
C331 Tb321 2.809 . S
C331 C332 1.514 . S
C331 O346 1.248 . S
C331 O347 1.266 . S
C332 C331 1.514 . S
C332 C333 1.359 . S
C332 C337 1.348 . S
C333 C332 1.359 . S
C333 C334 1.380 . S
C333 H356 0.929 . S
C334 C333 1.380 . S
C334 C335 1.347 . S
C334 H357 0.931 . S
C335 C334 1.347 . S
C335 C336 1.369 . S
C336 C335 1.369 . S
C336 C337 1.408 . S
C336 H358 0.930 . S
C337 C332 1.348 . S
C337 C336 1.408 . S
C337 H359 0.930 . S
C338 O348 1.281 . S
C338 O349 1.254 . S
C339 O350 1.236 . S
C339 O351 1.266 . S
O340 Tb320 2.484 . S
O340 C322 1.248 . S
O341 Tb320 2.440 . S
O341 C322 1.266 . S
O342 Tb320 2.658 . S
O342 Tb321 2.325 . S
O342 C329 1.281 . S
O343 Tb320 2.409 1_455 S
O343 C329 1.254 1_455 S
O344 Tb320 2.378 . S
O344 C330 1.236 . S
O345 Tb321 2.341 . S
O345 C330 1.266 . S
O346 Tb321 2.484 . S
O346 C331 1.248 . S
O347 Tb321 2.440 . S
O347 C331 1.266 . S
O348 Tb320 2.325 . S
O348 Tb321 2.658 . S
O348 C338 1.281 . S
O349 Tb321 2.409 . S
O349 C338 1.254 . S
O350 Tb321 2.378 . S
O350 C339 1.236 . S
O351 Tb320 2.341 . S
O351 C339 1.266 . S
H352 C324 0.929 . S
H353 C325 0.931 . S
H354 C327 0.930 . S
H355 C328 0.930 . S
H356 C333 0.929 . S
H357 C334 0.931 . S
H358 C336 0.930 . S
H359 C337 0.930 . S
Tb360 C362 2.809 . S
Tb360 O380 2.484 . S
Tb360 O381 2.440 . S
Tb360 O382 2.658 . S
Tb360 O383 2.409 . S
Tb360 O384 2.378 . S
Tb360 O388 2.325 . S
Tb360 O391 2.341 . S
Tb361 C371 2.809 . S
Tb361 O382 2.325 . S
Tb361 O385 2.341 . S
Tb361 O386 2.484 . S
Tb361 O387 2.440 . S
Tb361 O388 2.658 . S
Tb361 O389 2.409 . S
Tb361 O390 2.378 . S
C362 Tb360 2.809 . S
C362 C363 1.514 . S
C362 O380 1.248 . S
C362 O381 1.266 . S
C363 C362 1.514 . S
C363 C364 1.359 . S
C363 C368 1.348 . S
C364 C363 1.359 . S
C364 C365 1.380 . S
C364 H392 0.929 . S
C365 C364 1.380 . S
C365 C366 1.347 . S
C365 H393 0.931 . S
C366 C365 1.347 . S
C366 C367 1.369 . S
C367 C366 1.369 . S
C367 C368 1.408 . S
C367 H394 0.930 . S
C368 C363 1.348 . S
C368 C367 1.408 . S
C368 H395 0.930 . S
C369 O382 1.281 . S
C369 O383 1.254 . S
C370 O384 1.236 . S
C370 O385 1.266 . S
C371 Tb361 2.809 . S
C371 C372 1.514 1_554 S
C371 O386 1.248 . S
C371 O387 1.266 . S
C372 C371 1.514 1_556 S
C372 C373 1.359 . S
C372 C377 1.348 . S
C373 C372 1.359 . S
C373 C374 1.380 . S
C373 H396 0.929 . S
C374 C373 1.380 . S
C374 C375 1.347 . S
C374 H397 0.931 . S
C375 C374 1.347 . S
C375 C376 1.369 . S
C376 C375 1.369 . S
C376 C377 1.408 . S
C376 H398 0.930 . S
C377 C372 1.348 . S
C377 C376 1.408 . S
C377 H399 0.930 . S
C378 O388 1.281 . S
C378 O389 1.254 . S
C379 O390 1.236 . S
C379 O391 1.266 . S
O380 Tb360 2.484 . S
O380 C362 1.248 . S
O381 Tb360 2.440 . S
O381 C362 1.266 . S
O382 Tb360 2.658 . S
O382 Tb361 2.325 . S
O382 C369 1.281 . S
O383 Tb360 2.409 . S
O383 C369 1.254 . S
O384 Tb360 2.378 . S
O384 C370 1.236 . S
O385 Tb361 2.341 . S
O385 C370 1.266 . S
O386 Tb361 2.484 . S
O386 C371 1.248 . S
O387 Tb361 2.440 . S
O387 C371 1.266 . S
O388 Tb360 2.325 . S
O388 Tb361 2.658 . S
O388 C378 1.281 . S
O389 Tb361 2.409 . S
O389 C378 1.254 . S
O390 Tb361 2.378 . S
O390 C379 1.236 . S
O391 Tb360 2.341 . S
O391 C379 1.266 . S
H392 C364 0.929 . S
H393 C365 0.931 . S
H394 C367 0.930 . S
H395 C368 0.930 . S
H396 C373 0.929 . S
H397 C374 0.931 . S
H398 C376 0.930 . S
H399 C377 0.930 . S
Tb400 C402 2.809 1_556 S
Tb400 O420 2.484 1_556 S
Tb400 O421 2.440 . S
Tb400 O422 2.658 . S
Tb400 O423 2.409 . S
Tb400 O424 2.378 . S
Tb400 O428 2.325 . S
Tb400 O431 2.341 . S
Tb401 C411 2.809 . S
Tb401 O422 2.325 . S
Tb401 O425 2.341 . S
Tb401 O426 2.484 . S
Tb401 O427 2.440 . S
Tb401 O428 2.658 . S
Tb401 O429 2.409 . S
Tb401 O430 2.378 . S
C402 Tb400 2.809 1_554 S
C402 C403 1.514 . S
C402 O420 1.248 . S
C402 O421 1.266 1_554 S
C403 C402 1.514 . S
C403 C404 1.359 . S
C403 C408 1.348 . S
C404 C403 1.359 . S
C404 C405 1.380 . S
C404 H432 0.929 . S
C405 C404 1.380 . S
C405 C406 1.347 . S
C405 H433 0.931 . S
C406 C405 1.347 . S
C406 C407 1.369 . S
C407 C406 1.369 . S
C407 C408 1.408 . S
C407 H434 0.930 . S
C408 C403 1.348 . S
C408 C407 1.408 . S
C408 H435 0.930 . S
C409 O422 1.281 . S
C409 O423 1.254 . S
C410 O424 1.236 . S
C410 O425 1.266 . S
C411 Tb401 2.809 . S
C411 C412 1.514 . S
C411 O426 1.248 . S
C411 O427 1.266 . S
C412 C411 1.514 . S
C412 C413 1.359 . S
C412 C417 1.348 . S
C413 C412 1.359 . S
C413 C414 1.380 . S
C413 H436 0.929 . S
C414 C413 1.380 . S
C414 C415 1.347 . S
C414 H437 0.931 . S
C415 C414 1.347 . S
C415 C416 1.369 . S
C416 C415 1.369 . S
C416 C417 1.408 . S
C416 H438 0.930 . S
C417 C412 1.348 . S
C417 C416 1.408 . S
C417 H439 0.930 . S
C418 O428 1.281 . S
C418 O429 1.254 . S
C419 O430 1.236 . S
C419 O431 1.266 . S
O420 Tb400 2.484 1_554 S
O420 C402 1.248 . S
O421 Tb400 2.440 . S
O421 C402 1.266 1_556 S
O422 Tb400 2.658 . S
O422 Tb401 2.325 . S
O422 C409 1.281 . S
O423 Tb400 2.409 . S
O423 C409 1.254 . S
O424 Tb400 2.378 . S
O424 C410 1.236 . S
O425 Tb401 2.341 . S
O425 C410 1.266 . S
O426 Tb401 2.484 . S
O426 C411 1.248 . S
O427 Tb401 2.440 . S
O427 C411 1.266 . S
O428 Tb400 2.325 . S
O428 Tb401 2.658 . S
O428 C418 1.281 . S
O429 Tb401 2.409 . S
O429 C418 1.254 . S
O430 Tb401 2.378 . S
O430 C419 1.236 . S
O431 Tb400 2.341 . S
O431 C419 1.266 . S
H432 C404 0.929 . S
H433 C405 0.931 . S
H434 C407 0.930 . S
H435 C408 0.930 . S
H436 C413 0.929 . S
H437 C414 0.931 . S
H438 C416 0.930 . S
H439 C417 0.930 . S
Tb440 C442 2.809 . S
Tb440 O460 2.484 . S
Tb440 O461 2.440 . S
Tb440 O462 2.658 . S
Tb440 O463 2.409 . S
Tb440 O464 2.378 . S
Tb440 O468 2.325 . S
Tb440 O471 2.341 . S
Tb441 C451 2.809 . S
Tb441 O462 2.325 . S
Tb441 O465 2.341 . S
Tb441 O466 2.484 . S
Tb441 O467 2.440 . S
Tb441 O468 2.658 . S
Tb441 O469 2.409 . S
Tb441 O470 2.378 . S
C442 Tb440 2.809 . S
C442 C443 1.514 . S
C442 O460 1.248 . S
C442 O461 1.266 . S
C443 C442 1.514 . S
C443 C444 1.359 . S
C443 C448 1.348 . S
C444 C443 1.359 . S
C444 C445 1.380 . S
C444 H472 0.929 . S
C445 C444 1.380 . S
C445 C446 1.347 . S
C445 H473 0.931 . S
C446 C445 1.347 . S
C446 C447 1.369 . S
C447 C446 1.369 . S
C447 C448 1.408 . S
C447 H474 0.930 . S
C448 C443 1.348 . S
C448 C447 1.408 . S
C448 H475 0.930 . S
C449 O462 1.281 . S
C449 O463 1.254 . S
C450 O464 1.236 . S
C450 O465 1.266 . S
C451 Tb441 2.809 . S
C451 C452 1.514 . S
C451 O466 1.248 . S
C451 O467 1.266 . S
C452 C451 1.514 . S
C452 C453 1.359 . S
C452 C457 1.348 . S
C453 C452 1.359 . S
C453 C454 1.380 . S
C453 H476 0.929 . S
C454 C453 1.380 . S
C454 C455 1.347 . S
C454 H477 0.931 . S
C455 C454 1.347 . S
C455 C456 1.369 . S
C456 C455 1.369 . S
C456 C457 1.408 . S
C456 H478 0.930 . S
C457 C452 1.348 . S
C457 C456 1.408 . S
C457 H479 0.930 . S
C458 O468 1.281 . S
C458 O469 1.254 . S
C459 O470 1.236 . S
C459 O471 1.266 . S
O460 Tb440 2.484 . S
O460 C442 1.248 . S
O461 Tb440 2.440 . S
O461 C442 1.266 . S
O462 Tb440 2.658 . S
O462 Tb441 2.325 . S
O462 C449 1.281 . S
O463 Tb440 2.409 . S
O463 C449 1.254 . S
O464 Tb440 2.378 . S
O464 C450 1.236 . S
O465 Tb441 2.341 . S
O465 C450 1.266 . S
O466 Tb441 2.484 . S
O466 C451 1.248 . S
O467 Tb441 2.440 . S
O467 C451 1.266 . S
O468 Tb440 2.325 . S
O468 Tb441 2.658 . S
O468 C458 1.281 . S
O469 Tb441 2.409 . S
O469 C458 1.254 . S
O470 Tb441 2.378 . S
O470 C459 1.236 . S
O471 Tb440 2.341 . S
O471 C459 1.266 . S
H472 C444 0.929 . S
H473 C445 0.931 . S
H474 C447 0.930 . S
H475 C448 0.930 . S
H476 C453 0.929 . S
H477 C454 0.931 . S
H478 C456 0.930 . S
H479 C457 0.930 . S
Tb480 C482 2.809 . S
Tb480 O500 2.484 . S
Tb480 O501 2.440 . S
Tb480 O502 2.658 . S
Tb480 O503 2.409 . S
Tb480 O504 2.378 . S
Tb480 O508 2.325 . S
Tb480 O511 2.341 . S
Tb481 C491 2.809 . S
Tb481 O502 2.325 . S
Tb481 O505 2.341 . S
Tb481 O506 2.484 . S
Tb481 O507 2.440 . S
Tb481 O508 2.658 . S
Tb481 O509 2.409 . S
Tb481 O510 2.378 . S
C482 Tb480 2.809 . S
C482 C483 1.514 . S
C482 O500 1.248 . S
C482 O501 1.266 . S
C483 C482 1.514 . S
C483 C484 1.359 . S
C483 C488 1.348 . S
C484 C483 1.359 . S
C484 C485 1.380 . S
C484 H512 0.929 . S
C485 C484 1.380 . S
C485 C486 1.347 . S
C485 H513 0.931 . S
C486 C485 1.347 . S
C486 C487 1.369 . S
C487 C486 1.369 . S
C487 C488 1.408 . S
C487 H514 0.930 . S
C488 C483 1.348 . S
C488 C487 1.408 . S
C488 H515 0.930 . S
C489 O502 1.281 . S
C489 O503 1.254 . S
C490 O504 1.236 . S
C490 O505 1.266 . S
C491 Tb481 2.809 . S
C491 C492 1.514 . S
C491 O506 1.248 . S
C491 O507 1.266 . S
C492 C491 1.514 . S
C492 C493 1.359 . S
C492 C497 1.348 . S
C493 C492 1.359 . S
C493 C494 1.380 . S
C493 H516 0.929 . S
C494 C493 1.380 . S
C494 C495 1.347 . S
C494 H517 0.931 . S
C495 C494 1.347 . S
C495 C496 1.369 . S
C496 C495 1.369 . S
C496 C497 1.408 . S
C496 H518 0.930 . S
C497 C492 1.348 . S
C497 C496 1.408 . S
C497 H519 0.930 . S
C498 O508 1.281 . S
C498 O509 1.254 . S
C499 O510 1.236 . S
C499 O511 1.266 . S
O500 Tb480 2.484 . S
O500 C482 1.248 . S
O501 Tb480 2.440 . S
O501 C482 1.266 . S
O502 Tb480 2.658 . S
O502 Tb481 2.325 . S
O502 C489 1.281 . S
O503 Tb480 2.409 . S
O503 C489 1.254 . S
O504 Tb480 2.378 . S
O504 C490 1.236 . S
O505 Tb481 2.341 . S
O505 C490 1.266 . S
O506 Tb481 2.484 . S
O506 C491 1.248 . S
O507 Tb481 2.440 . S
O507 C491 1.266 . S
O508 Tb480 2.325 . S
O508 Tb481 2.658 . S
O508 C498 1.281 . S
O509 Tb481 2.409 . S
O509 C498 1.254 . S
O510 Tb481 2.378 . S
O510 C499 1.236 . S
O511 Tb480 2.341 . S
O511 C499 1.266 . S
H512 C484 0.929 . S
H513 C485 0.931 . S
H514 C487 0.930 . S
H515 C488 0.930 . S
H516 C493 0.929 . S
H517 C494 0.931 . S
H518 C496 0.930 . S
H519 C497 0.930 . S
Tb520 C522 2.800 1_455 S
Tb520 O540 2.484 . S
Tb520 O541 2.440 1_455 S
Tb520 O542 2.658 . S
Tb520 O543 2.409 . S
Tb520 O544 2.378 . S
Tb520 O548 2.325 . S
Tb520 O551 2.341 . S
Tb521 C531 2.809 . S
Tb521 O542 2.325 . S
Tb521 O545 2.341 . S
Tb521 O546 2.484 . S
Tb521 O547 2.440 . S
Tb521 O548 2.658 . S
Tb521 O549 2.409 . S
Tb521 O550 2.378 . S
C522 Tb520 2.800 1_655 S
C522 C523 1.522 1_554 S
C522 O540 1.244 1_655 S
C522 O541 1.262 . S
C523 C522 1.522 1_556 S
C523 C524 1.359 . S
C523 C528 1.348 . S
C524 C523 1.359 . S
C524 C525 1.380 . S
C524 H552 0.928 1_655 S
C525 C524 1.380 . S
C525 C526 1.347 . S
C525 H553 0.931 . S
C526 C525 1.347 . S
C526 C527 1.369 . S
C527 C526 1.369 . S
C527 C528 1.408 . S
C527 H554 0.930 . S
C528 C523 1.348 . S
C528 C527 1.408 . S
C528 H555 0.930 . S
C529 O542 1.281 . S
C529 O543 1.254 . S
C530 O544 1.236 . S
C530 O545 1.266 . S
C531 Tb521 2.809 . S
C531 C532 1.514 . S
C531 O546 1.248 . S
C531 O547 1.266 . S
C532 C531 1.514 . S
C532 C533 1.359 . S
C532 C537 1.348 . S
C533 C532 1.359 . S
C533 C534 1.380 . S
C533 H556 0.929 . S
C534 C533 1.380 . S
C534 C535 1.347 . S
C534 H557 0.931 . S
C535 C534 1.347 . S
C535 C536 1.369 . S
C536 C535 1.369 . S
C536 C537 1.408 . S
C536 H558 0.930 . S
C537 C532 1.348 . S
C537 C536 1.408 . S
C537 H559 0.930 . S
C538 O548 1.281 . S
C538 O549 1.254 . S
C539 O550 1.236 . S
C539 O551 1.266 . S
O540 Tb520 2.484 . S
O540 C522 1.244 1_455 S
O541 Tb520 2.440 1_655 S
O541 C522 1.262 . S
O542 Tb520 2.658 . S
O542 Tb521 2.325 . S
O542 C529 1.281 . S
O543 Tb520 2.409 . S
O543 C529 1.254 . S
O544 Tb520 2.378 . S
O544 C530 1.236 . S
O545 Tb521 2.341 . S
O545 C530 1.266 . S
O546 Tb521 2.484 . S
O546 C531 1.248 . S
O547 Tb521 2.440 . S
O547 C531 1.266 . S
O548 Tb520 2.325 . S
O548 Tb521 2.658 . S
O548 C538 1.281 . S
O549 Tb521 2.409 . S
O549 C538 1.254 . S
O550 Tb521 2.378 . S
O550 C539 1.236 . S
O551 Tb520 2.341 . S
O551 C539 1.266 . S
H552 C524 0.928 1_455 S
H553 C525 0.931 . S
H554 C527 0.930 . S
H555 C528 0.930 . S
H556 C533 0.929 . S
H557 C534 0.931 . S
H558 C536 0.930 . S
H559 C537 0.930 . S
Tb560 C562 2.809 . S
Tb560 O580 2.484 . S
Tb560 O581 2.440 . S
Tb560 O582 2.658 . S
Tb560 O583 2.409 . S
Tb560 O584 2.378 . S
Tb560 O588 2.325 . S
Tb560 O591 2.341 . S
Tb561 C571 2.809 . S
Tb561 O582 2.325 . S
Tb561 O585 2.341 . S
Tb561 O586 2.484 . S
Tb561 O587 2.440 . S
Tb561 O588 2.658 . S
Tb561 O589 2.409 . S
Tb561 O590 2.378 . S
C562 Tb560 2.809 . S
C562 C563 1.514 . S
C562 O580 1.248 . S
C562 O581 1.266 . S
C563 C562 1.514 . S
C563 C564 1.359 . S
C563 C568 1.348 . S
C564 C563 1.359 . S
C564 C565 1.380 . S
C564 H592 0.929 . S
C565 C564 1.380 . S
C565 C566 1.347 . S
C565 H593 0.931 . S
C566 C565 1.347 . S
C566 C567 1.369 . S
C567 C566 1.369 . S
C567 C568 1.408 . S
C567 H594 0.930 . S
C568 C563 1.348 . S
C568 C567 1.408 . S
C568 H595 0.930 . S
C569 O582 1.281 . S
C569 O583 1.254 . S
C570 O584 1.236 . S
C570 O585 1.266 . S
C571 Tb561 2.809 . S
C571 C572 1.514 . S
C571 O586 1.248 . S
C571 O587 1.266 . S
C572 C571 1.514 . S
C572 C573 1.359 . S
C572 C577 1.348 . S
C573 C572 1.359 . S
C573 C574 1.380 . S
C573 H596 0.929 . S
C574 C573 1.380 . S
C574 C575 1.347 . S
C574 H597 0.931 . S
C575 C574 1.347 . S
C575 C576 1.369 . S
C576 C575 1.369 . S
C576 C577 1.408 . S
C576 H598 0.930 . S
C577 C572 1.348 . S
C577 C576 1.408 . S
C577 H599 0.930 . S
C578 O588 1.281 . S
C578 O589 1.254 . S
C579 O590 1.236 . S
C579 O591 1.266 . S
O580 Tb560 2.484 . S
O580 C562 1.248 . S
O581 Tb560 2.440 . S
O581 C562 1.266 . S
O582 Tb560 2.658 . S
O582 Tb561 2.325 . S
O582 C569 1.281 . S
O583 Tb560 2.409 . S
O583 C569 1.254 . S
O584 Tb560 2.378 . S
O584 C570 1.236 . S
O585 Tb561 2.341 . S
O585 C570 1.266 . S
O586 Tb561 2.484 . S
O586 C571 1.248 . S
O587 Tb561 2.440 . S
O587 C571 1.266 . S
O588 Tb560 2.325 . S
O588 Tb561 2.658 . S
O588 C578 1.281 . S
O589 Tb561 2.409 . S
O589 C578 1.254 . S
O590 Tb561 2.378 . S
O590 C579 1.236 . S
O591 Tb560 2.341 . S
O591 C579 1.266 . S
H592 C564 0.929 . S
H593 C565 0.931 . S
H594 C567 0.930 . S
H595 C568 0.930 . S
H596 C573 0.929 . S
H597 C574 0.931 . S
H598 C576 0.930 . S
H599 C577 0.930 . S
Tb600 C602 2.809 . S
Tb600 O620 2.484 . S
Tb600 O621 2.440 . S
Tb600 O622 2.658 1_655 S
Tb600 O623 2.409 . S
Tb600 O624 2.378 1_655 S
Tb600 O628 2.325 . S
Tb600 O631 2.341 . S
Tb601 C611 2.809 . S
Tb601 O622 2.325 . S
Tb601 O625 2.341 . S
Tb601 O626 2.484 . S
Tb601 O627 2.440 . S
Tb601 O628 2.658 1_455 S
Tb601 O629 2.409 . S
Tb601 O630 2.378 1_455 S
C602 Tb600 2.809 . S
C602 C603 1.514 . S
C602 O620 1.248 . S
C602 O621 1.266 . S
C603 C602 1.514 . S
C603 C604 1.359 . S
C603 C608 1.348 . S
C604 C603 1.359 . S
C604 C605 1.380 . S
C604 H632 0.929 . S
C605 C604 1.380 . S
C605 C606 1.347 . S
C605 H633 0.931 . S
C606 C605 1.347 . S
C606 C607 1.369 . S
C607 C606 1.369 . S
C607 C608 1.408 . S
C607 H634 0.930 . S
C608 C603 1.348 . S
C608 C607 1.408 . S
C608 H635 0.930 . S
C609 O622 1.281 . S
C609 O623 1.254 1_455 S
C610 O624 1.236 . S
C610 O625 1.266 . S
C611 Tb601 2.809 . S
C611 C612 1.514 1_556 S
C611 O626 1.248 . S
C611 O627 1.266 . S
C612 C611 1.514 1_554 S
C612 C613 1.359 . S
C612 C617 1.348 . S
C613 C612 1.359 . S
C613 C614 1.380 . S
C613 H636 0.929 . S
C614 C613 1.380 . S
C614 C615 1.347 . S
C614 H637 0.931 . S
C615 C614 1.347 . S
C615 C616 1.369 . S
C616 C615 1.369 . S
C616 C617 1.408 . S
C616 H638 0.930 . S
C617 C612 1.348 . S
C617 C616 1.408 . S
C617 H639 0.930 . S
C618 O628 1.281 1_455 S
C618 O629 1.254 . S
C619 O630 1.236 . S
C619 O631 1.266 . S
O620 Tb600 2.484 . S
O620 C602 1.248 . S
O621 Tb600 2.440 . S
O621 C602 1.266 . S
O622 Tb600 2.658 1_455 S
O622 Tb601 2.325 . S
O622 C609 1.281 . S
O623 Tb600 2.409 . S
O623 C609 1.254 1_655 S
O624 Tb600 2.378 1_455 S
O624 C610 1.236 . S
O625 Tb601 2.341 . S
O625 C610 1.266 . S
O626 Tb601 2.484 . S
O626 C611 1.248 . S
O627 Tb601 2.440 . S
O627 C611 1.266 . S
O628 Tb600 2.325 . S
O628 Tb601 2.658 1_655 S
O628 C618 1.281 1_655 S
O629 Tb601 2.409 . S
O629 C618 1.254 . S
O630 Tb601 2.378 1_655 S
O630 C619 1.236 . S
O631 Tb600 2.341 . S
O631 C619 1.266 . S
H632 C604 0.929 . S
H633 C605 0.931 . S
H634 C607 0.930 . S
H635 C608 0.930 . S
H636 C613 0.929 . S
H637 C614 0.931 . S
H638 C616 0.930 . S
H639 C617 0.930 . S
C640 C641 1.387 . S
C640 H644 0.950 . S
C640 C649 1.390 1_554 S
C641 C640 1.387 . S
C641 C643 1.387 1_554 S
H642 C649 0.950 . S
C643 C641 1.387 1_556 S
C643 C645 1.390 . S
C643 H647 0.950 . S
H644 C640 0.950 . S
C645 C643 1.390 . S
C645 C646 1.387 . S
C645 H648 0.950 . S
C646 C645 1.387 . S
C646 C649 1.387 . S
H647 C643 0.950 . S
H648 C645 0.950 . S
C649 C640 1.390 1_556 S
C649 H642 0.950 . S
C649 C646 1.387 . S
C650 C651 1.387 . S
C650 H654 0.950 . S
C650 C659 1.390 . S
C651 C650 1.387 . S
C651 C653 1.387 . S
H652 C659 0.950 . S
C653 C651 1.387 . S
C653 C655 1.390 . S
C653 H657 0.950 . S
H654 C650 0.950 . S
C655 C653 1.390 . S
C655 C656 1.387 . S
C655 H658 0.950 . S
C656 C655 1.387 . S
C656 C659 1.387 . S
H657 C653 0.950 . S
H658 C655 0.950 . S
C659 C650 1.390 . S
C659 H652 0.950 . S
C659 C656 1.387 . S
C660 C661 1.387 . S
C660 H664 0.950 . S
C660 C669 1.390 . S
C661 C660 1.387 . S
C661 C663 1.387 . S
H662 C669 0.950 . S
C663 C661 1.387 . S
C663 C665 1.390 . S
C663 H667 0.950 . S
H664 C660 0.950 . S
C665 C663 1.390 . S
C665 C666 1.387 . S
C665 H668 0.950 . S
C666 C665 1.387 . S
C666 C669 1.387 . S
H667 C663 0.950 . S
H668 C665 0.950 . S
C669 C660 1.390 . S
C669 H662 0.950 . S
C669 C666 1.387 . S
C670 C671 1.387 . S
C670 H674 0.950 . S
C670 C679 1.390 . S
C671 C670 1.387 . S
C671 C673 1.387 . S
H672 C679 0.950 . S
C673 C671 1.387 . S
C673 C675 1.390 . S
C673 H677 0.950 . S
H674 C670 0.950 . S
C675 C673 1.390 . S
C675 C676 1.387 . S
C675 H678 0.950 . S
C676 C675 1.387 . S
C676 C679 1.387 . S
H677 C673 0.950 . S
H678 C675 0.950 . S
C679 C670 1.390 . S
C679 H672 0.950 . S
C679 C676 1.387 . S
C680 C681 1.387 . S
C680 H684 0.950 . S
C680 C689 1.390 1_554 S
C681 C680 1.387 . S
C681 C683 1.387 . S
H682 C689 0.950 . S
C683 C681 1.387 . S
C683 C685 1.390 . S
C683 H687 0.950 . S
H684 C680 0.950 . S
C685 C683 1.390 . S
C685 C686 1.387 1_554 S
C685 H688 0.950 . S
C686 C685 1.387 1_556 S
C686 C689 1.387 . S
H687 C683 0.950 . S
H688 C685 0.950 . S
C689 C680 1.390 1_556 S
C689 H682 0.950 . S
C689 C686 1.387 . S
C690 C691 1.387 . S
C690 H694 0.950 . S
C690 C699 1.390 . S
C691 C690 1.387 . S
C691 C693 1.387 . S
H692 C699 0.950 . S
C693 C691 1.387 . S
C693 C695 1.390 . S
C693 H697 0.950 . S
H694 C690 0.950 . S
C695 C693 1.390 . S
C695 C696 1.387 . S
C695 H698 0.950 . S
C696 C695 1.387 . S
C696 C699 1.387 . S
H697 C693 0.950 . S
H698 C695 0.950 . S
C699 C690 1.390 . S
C699 H692 0.950 . S
C699 C696 1.387 . S
C700 C701 1.387 . S
C700 H704 0.950 . S
C700 C709 1.390 . S
C701 C700 1.387 . S
C701 C703 1.387 . S
H702 C709 0.950 . S
C703 C701 1.387 . S
C703 C705 1.390 . S
C703 H707 0.950 . S
H704 C700 0.950 . S
C705 C703 1.390 . S
C705 C706 1.387 . S
C705 H708 0.950 . S
C706 C705 1.387 . S
C706 C709 1.387 . S
H707 C703 0.950 . S
H708 C705 0.950 . S
C709 C700 1.390 . S
C709 H702 0.950 . S
C709 C706 1.387 . S
C710 C711 1.387 . S
C710 H714 0.950 . S
C710 C719 1.390 . S
C711 C710 1.387 . S
C711 C713 1.387 . S
H712 C719 0.950 . S
C713 C711 1.387 . S
C713 C715 1.390 . S
C713 H717 0.950 . S
H714 C710 0.950 . S
C715 C713 1.390 . S
C715 C716 1.387 . S
C715 H718 0.950 . S
C716 C715 1.387 . S
C716 C719 1.387 . S
H717 C713 0.950 . S
H718 C715 0.950 . S
C719 C710 1.390 . S
C719 H712 0.950 . S
C719 C716 1.387 . S
C720 C721 1.387 . S
C720 H724 0.950 . S
C720 C729 1.390 . S
C721 C720 1.387 . S
C721 C723 1.387 . S
H722 C729 0.950 . S
C723 C721 1.387 . S
C723 C725 1.390 . S
C723 H727 0.950 . S
H724 C720 0.950 . S
C725 C723 1.390 . S
C725 C726 1.387 . S
C725 H728 0.950 . S
C726 C725 1.387 . S
C726 C729 1.387 . S
H727 C723 0.950 . S
H728 C725 0.950 . S
C729 C720 1.390 . S
C729 H722 0.950 . S
C729 C726 1.387 . S
C730 C731 1.387 . S
C730 H734 0.950 . S
C730 C739 1.390 . S
C731 C730 1.387 . S
C731 C733 1.387 . S
H732 C739 0.950 . S
C733 C731 1.387 . S
C733 C735 1.390 . S
C733 H737 0.950 . S
H734 C730 0.950 . S
C735 C733 1.390 . S
C735 C736 1.387 . S
C735 H738 0.950 . S
C736 C735 1.387 . S
C736 C739 1.387 . S
H737 C733 0.950 . S
H738 C735 0.950 . S
C739 C730 1.390 . S
C739 H732 0.950 . S
C739 C736 1.387 . S
C740 C741 1.387 . S
C740 H744 0.950 . S
C740 C749 1.390 . S
C741 C740 1.387 . S
C741 C743 1.387 . S
H742 C749 0.950 . S
C743 C741 1.387 . S
C743 C745 1.390 . S
C743 H747 0.950 . S
H744 C740 0.950 . S
C745 C743 1.390 . S
C745 C746 1.387 . S
C745 H748 0.950 . S
C746 C745 1.387 . S
C746 C749 1.387 . S
H747 C743 0.950 . S
H748 C745 0.950 . S
C749 C740 1.390 . S
C749 H742 0.950 . S
C749 C746 1.387 . S
C750 C751 1.387 . S
C750 H754 0.950 . S
C750 C759 1.390 . S
C751 C750 1.387 . S
C751 C753 1.387 . S
H752 C759 0.950 . S
C753 C751 1.387 . S
C753 C755 1.390 . S
C753 H757 0.950 . S
H754 C750 0.950 . S
C755 C753 1.390 . S
C755 C756 1.387 . S
C755 H758 0.950 . S
C756 C755 1.387 . S
C756 C759 1.387 . S
H757 C753 0.950 . S
H758 C755 0.950 . S
C759 C750 1.390 . S
C759 H752 0.950 . S
C759 C756 1.387 . S
C760 C761 1.387 . S
C760 H764 0.950 . S
C760 C769 1.390 . S
C761 C760 1.387 . S
C761 C763 1.387 . S
H762 C769 0.950 . S
C763 C761 1.387 . S
C763 C765 1.390 . S
C763 H767 0.950 . S
H764 C760 0.950 . S
C765 C763 1.390 . S
C765 C766 1.387 . S
C765 H768 0.950 . S
C766 C765 1.387 . S
C766 C769 1.387 . S
H767 C763 0.950 . S
H768 C765 0.950 . S
C769 C760 1.390 . S
C769 H762 0.950 . S
C769 C766 1.387 . S
C770 C771 1.387 . S
C770 H774 0.950 . S
C770 C779 1.390 . S
C771 C770 1.387 . S
C771 C773 1.387 . S
H772 C779 0.950 . S
C773 C771 1.387 . S
C773 C775 1.390 . S
C773 H777 0.950 . S
H774 C770 0.950 . S
C775 C773 1.390 . S
C775 C776 1.387 . S
C775 H778 0.950 . S
C776 C775 1.387 . S
C776 C779 1.387 . S
H777 C773 0.950 . S
H778 C775 0.950 . S
C779 C770 1.390 . S
C779 H772 0.950 . S
C779 C776 1.387 . S
C780 C781 1.387 . S
C780 H784 0.950 . S
C780 C789 1.390 . S
C781 C780 1.387 . S
C781 C783 1.387 . S
H782 C789 0.950 . S
C783 C781 1.387 . S
C783 C785 1.390 . S
C783 H787 0.950 . S
H784 C780 0.950 . S
C785 C783 1.390 . S
C785 C786 1.387 . S
C785 H788 0.950 . S
C786 C785 1.387 . S
C786 C789 1.387 . S
H787 C783 0.950 . S
H788 C785 0.950 . S
C789 C780 1.390 . S
C789 H782 0.950 . S
C789 C786 1.387 . S
C790 C791 1.387 . S
C790 H794 0.950 . S
C790 C799 1.390 . S
C791 C790 1.387 . S
C791 C793 1.387 . S
H792 C799 0.950 . S
C793 C791 1.387 . S
C793 C795 1.390 . S
C793 H797 0.950 . S
H794 C790 0.950 . S
C795 C793 1.390 . S
C795 C796 1.387 . S
C795 H798 0.950 . S
C796 C795 1.387 . S
C796 C799 1.387 . S
H797 C793 0.950 . S
H798 C795 0.950 . S
C799 C790 1.390 . S
C799 H792 0.950 . S
C799 C796 1.387 . S
C800 C801 1.387 . S
C800 H804 0.950 . S
C800 C809 1.390 . S
C801 C800 1.387 . S
C801 C803 1.387 . S
H802 C809 0.950 . S
C803 C801 1.387 . S
C803 C805 1.390 . S
C803 H807 0.950 . S
H804 C800 0.950 . S
C805 C803 1.390 . S
C805 C806 1.387 . S
C805 H808 0.950 . S
C806 C805 1.387 . S
C806 C809 1.387 . S
H807 C803 0.950 . S
H808 C805 0.950 . S
C809 C800 1.390 . S
C809 H802 0.950 . S
C809 C806 1.387 . S
C810 C811 1.387 1_455 S
C810 H814 0.950 . S
C810 C819 1.390 . S
C811 C810 1.387 1_655 S
C811 C813 1.387 . S
H812 C819 0.950 . S
C813 C811 1.387 . S
C813 C815 1.390 1_655 S
C813 H817 0.950 . S
H814 C810 0.950 . S
C815 C813 1.390 1_455 S
C815 C816 1.387 . S
C815 H818 0.950 . S
C816 C815 1.387 . S
C816 C819 1.387 . S
H817 C813 0.950 . S
H818 C815 0.950 . S
C819 C810 1.390 . S
C819 H812 0.950 . S
C819 C816 1.387 . S
C820 C821 1.387 . S
C820 H824 0.950 . S
C820 C829 1.390 . S
C821 C820 1.387 . S
C821 C823 1.387 . S
H822 C829 0.950 . S
C823 C821 1.387 . S
C823 C825 1.390 . S
C823 H827 0.950 . S
H824 C820 0.950 . S
C825 C823 1.390 . S
C825 C826 1.387 . S
C825 H828 0.950 . S
C826 C825 1.387 . S
C826 C829 1.387 . S
H827 C823 0.950 . S
H828 C825 0.950 . S
C829 C820 1.390 . S
C829 H822 0.950 . S
C829 C826 1.387 . S
C830 C831 1.387 . S
C830 H834 0.950 . S
C830 C839 1.390 . S
C831 C830 1.387 . S
C831 C833 1.387 . S
H832 C839 0.950 . S
C833 C831 1.387 . S
C833 C835 1.390 . S
C833 H837 0.950 . S
H834 C830 0.950 . S
C835 C833 1.390 . S
C835 C836 1.387 . S
C835 H838 0.950 . S
C836 C835 1.387 . S
C836 C839 1.387 . S
H837 C833 0.950 . S
H838 C835 0.950 . S
C839 C830 1.390 . S
C839 H832 0.950 . S
C839 C836 1.387 . S
C840 C841 1.387 . S
C840 H844 0.950 . S
C840 C849 1.390 . S
C841 C840 1.387 . S
C841 C843 1.387 1_655 S
H842 C849 0.950 . S
C843 C841 1.387 1_455 S
C843 C845 1.390 . S
C843 H847 0.950 . S
H844 C840 0.950 . S
C845 C843 1.390 . S
C845 C846 1.387 1_455 S
C845 H848 0.950 . S
C846 C845 1.387 1_655 S
C846 C849 1.387 . S
H847 C843 0.950 . S
H848 C845 0.950 . S
C849 C840 1.390 . S
C849 H842 0.950 . S
C849 C846 1.387 . S
C850 C851 1.387 . S
C850 H854 0.950 . S
C850 C859 1.390 . S
C851 C850 1.387 . S
C851 C853 1.387 . S
H852 C859 0.950 . S
C853 C851 1.387 . S
C853 C855 1.390 . S
C853 H857 0.950 . S
H854 C850 0.950 . S
C855 C853 1.390 . S
C855 C856 1.387 . S
C855 H858 0.950 . S
C856 C855 1.387 . S
C856 C859 1.387 . S
H857 C853 0.950 . S
H858 C855 0.950 . S
C859 C850 1.390 . S
C859 H852 0.950 . S
C859 C856 1.387 . S
C860 C861 1.387 . S
C860 H864 0.950 . S
C860 C869 1.390 . S
C861 C860 1.387 . S
C861 C863 1.387 . S
H862 C869 0.950 . S
C863 C861 1.387 . S
C863 C865 1.390 . S
C863 H867 0.950 . S
H864 C860 0.950 . S
C865 C863 1.390 . S
C865 C866 1.387 . S
C865 H868 0.950 . S
C866 C865 1.387 . S
C866 C869 1.387 . S
H867 C863 0.950 . S
H868 C865 0.950 . S
C869 C860 1.390 . S
C869 H862 0.950 . S
C869 C866 1.387 . S
C870 C871 1.387 . S
C870 H874 0.950 . S
C870 C879 1.390 . S
C871 C870 1.387 . S
C871 C873 1.387 . S
H872 C879 0.950 . S
C873 C871 1.387 . S
C873 C875 1.390 . S
C873 H877 0.950 . S
H874 C870 0.950 . S
C875 C873 1.390 . S
C875 C876 1.387 . S
C875 H878 0.950 1_455 S
C876 C875 1.387 . S
C876 C879 1.387 . S
H877 C873 0.950 . S
H878 C875 0.950 1_655 S
C879 C870 1.390 . S
C879 H872 0.950 . S
C879 C876 1.387 . S
C880 C881 1.387 . S
C880 H884 0.950 . S
C880 C889 1.390 1_554 S
C881 C880 1.387 . S
C881 C883 1.387 1_545 S
H882 C889 0.950 . S
C883 C881 1.387 1_565 S
C883 C885 1.390 1_554 S
C883 H887 0.950 . S
H884 C880 0.950 . S
C885 C883 1.390 1_556 S
C885 C886 1.387 . S
C885 H888 0.950 . S
C886 C885 1.387 . S
C886 C889 1.387 1_565 S
H887 C883 0.950 . S
H888 C885 0.950 . S
C889 C880 1.390 1_556 S
C889 H882 0.950 . S
C889 C886 1.387 1_545 S
C890 C891 1.387 . S
C890 H894 0.950 . S
C890 C899 1.390 . S
C891 C890 1.387 . S
C891 C893 1.387 . S
H892 C899 0.950 . S
C893 C891 1.387 . S
C893 C895 1.390 . S
C893 H897 0.950 . S
H894 C890 0.950 . S
C895 C893 1.390 . S
C895 C896 1.387 . S
C895 H898 0.950 . S
C896 C895 1.387 . S
C896 C899 1.387 . S
H897 C893 0.950 . S
H898 C895 0.950 . S
C899 C890 1.390 . S
C899 H892 0.950 . S
C899 C896 1.387 . S
C900 C901 1.387 1_545 S
C900 H904 0.950 . S
C900 C909 1.390 . S
C901 C900 1.387 1_565 S
C901 C903 1.387 . S
H902 C909 0.950 . S
C903 C901 1.387 . S
C903 C905 1.390 . S
C903 H907 0.950 . S
H904 C900 0.950 . S
C905 C903 1.390 . S
C905 C906 1.387 1_565 S
C905 H908 0.950 . S
C906 C905 1.387 1_545 S
C906 C909 1.387 . S
H907 C903 0.950 . S
H908 C905 0.950 . S
C909 C900 1.390 . S
C909 H902 0.950 . S
C909 C906 1.387 . S
C910 C911 1.387 . S
C910 H914 0.950 . S
C910 C919 1.390 . S
C911 C910 1.387 . S
C911 C913 1.387 . S
H912 C919 0.950 . S
C913 C911 1.387 . S
C913 C915 1.390 . S
C913 H917 0.950 . S
H914 C910 0.950 . S
C915 C913 1.390 . S
C915 C916 1.387 . S
C915 H918 0.950 . S
C916 C915 1.387 . S
C916 C919 1.387 . S
H917 C913 0.950 . S
H918 C915 0.950 . S
C919 C910 1.390 . S
C919 H912 0.950 . S
C919 C916 1.387 . S
C920 C921 1.387 . S
C920 H924 0.950 . S
C920 C929 1.390 . S
C921 C920 1.387 . S
C921 C923 1.387 . S
H922 C929 0.950 . S
C923 C921 1.387 . S
C923 C925 1.390 . S
C923 H927 0.950 . S
H924 C920 0.950 . S
C925 C923 1.390 . S
C925 C926 1.387 . S
C925 H928 0.950 . S
C926 C925 1.387 . S
C926 C929 1.387 . S
H927 C923 0.950 . S
H928 C925 0.950 . S
C929 C920 1.390 . S
C929 H922 0.950 . S
C929 C926 1.387 . S
C930 C931 1.387 . S
C930 H934 0.950 . S
C930 C939 1.390 . S
C931 C930 1.387 . S
C931 C933 1.387 . S
H932 C939 0.950 . S
C933 C931 1.387 . S
C933 C935 1.390 . S
C933 H937 0.950 . S
H934 C930 0.950 . S
C935 C933 1.390 . S
C935 C936 1.387 . S
C935 H938 0.950 . S
C936 C935 1.387 . S
C936 C939 1.387 . S
H937 C933 0.950 . S
H938 C935 0.950 . S
C939 C930 1.390 . S
C939 H932 0.950 . S
C939 C936 1.387 . S
C940 C941 1.387 . S
C940 H944 0.950 . S
C940 C949 1.390 . S
C941 C940 1.387 . S
C941 C943 1.387 . S
H942 C949 0.950 . S
C943 C941 1.387 . S
C943 C945 1.390 . S
C943 H947 0.950 . S
H944 C940 0.950 . S
C945 C943 1.390 . S
C945 C946 1.387 . S
C945 H948 0.950 . S
C946 C945 1.387 . S
C946 C949 1.387 . S
H947 C943 0.950 . S
H948 C945 0.950 . S
C949 C940 1.390 . S
C949 H942 0.950 . S
C949 C946 1.387 . S
C950 C951 1.387 . S
C950 H954 0.950 . S
C950 C959 1.390 1_556 S
C951 C950 1.387 . S
C951 C953 1.387 . S
H952 C959 0.950 . S
C953 C951 1.387 . S
C953 C955 1.390 1_556 S
C953 H957 0.950 . S
H954 C950 0.950 . S
C955 C953 1.390 1_554 S
C955 C956 1.387 . S
C955 H958 0.950 . S
C956 C955 1.387 . S
C956 C959 1.387 . S
H957 C953 0.950 . S
H958 C955 0.950 . S
C959 C950 1.390 1_554 S
C959 H952 0.950 . S
C959 C956 1.387 . S
C960 C961 1.387 . S
C960 H964 0.950 . S
C960 C969 1.390 . S
C961 C960 1.387 . S
C961 C963 1.387 . S
H962 C969 0.950 . S
C963 C961 1.387 . S
C963 C965 1.390 . S
C963 H967 0.950 . S
H964 C960 0.950 . S
C965 C963 1.390 . S
C965 C966 1.387 . S
C965 H968 0.950 . S
C966 C965 1.387 . S
C966 C969 1.387 . S
H967 C963 0.950 . S
H968 C965 0.950 . S
C969 C960 1.390 . S
C969 H962 0.950 . S
C969 C966 1.387 . S
C970 C971 1.387 . S
C970 H974 0.950 . S
C970 C979 1.390 . S
C971 C970 1.387 . S
C971 C973 1.387 . S
H972 C979 0.950 . S
C973 C971 1.387 . S
C973 C975 1.390 . S
C973 H977 0.950 . S
H974 C970 0.950 . S
C975 C973 1.390 . S
C975 C976 1.387 . S
C975 H978 0.950 . S
C976 C975 1.387 . S
C976 C979 1.387 . S
H977 C973 0.950 . S
H978 C975 0.950 . S
C979 C970 1.390 . S
C979 H972 0.950 . S
C979 C976 1.387 . S
C980 C981 1.387 . S
C980 H984 0.950 . S
C980 C989 1.390 . S
C981 C980 1.387 . S
C981 C983 1.387 . S
H982 C989 0.950 . S
C983 C981 1.387 . S
C983 C985 1.390 . S
C983 H987 0.950 . S
H984 C980 0.950 . S
C985 C983 1.390 . S
C985 C986 1.387 . S
C985 H988 0.950 . S
C986 C985 1.387 . S
C986 C989 1.387 . S
H987 C983 0.950 . S
H988 C985 0.950 . S
C989 C980 1.390 . S
C989 H982 0.950 . S
C989 C986 1.387 . S
C990 C991 1.387 . S
C990 H994 0.950 . S
C990 C999 1.390 . S
C991 C990 1.387 . S
C991 C993 1.387 . S
H992 C999 0.950 . S
C993 C991 1.387 . S
C993 C995 1.390 . S
C993 H997 0.950 . S
H994 C990 0.950 . S
C995 C993 1.390 . S
C995 C996 1.387 . S
C995 H998 0.950 . S
C996 C995 1.387 . S
C996 C999 1.387 . S
H997 C993 0.950 . S
H998 C995 0.950 . S
C999 C990 1.390 . S
C999 H992 0.950 . S
C999 C996 1.387 . S
C1000 C1001 1.387 . S
C1000 H1004 0.950 . S
C1000 C1009 1.390 . S
C1001 C1000 1.387 . S
C1001 C1003 1.387 . S
H1002 C1009 0.950 . S
C1003 C1001 1.387 . S
C1003 C1005 1.390 . S
C1003 H1007 0.950 . S
H1004 C1000 0.950 . S
C1005 C1003 1.390 . S
C1005 C1006 1.387 . S
C1005 H1008 0.950 . S
C1006 C1005 1.387 . S
C1006 C1009 1.387 . S
H1007 C1003 0.950 . S
H1008 C1005 0.950 . S
C1009 C1000 1.390 . S
C1009 H1002 0.950 . S
C1009 C1006 1.387 . S
C1010 C1011 1.387 . S
C1010 H1014 0.950 . S
C1010 C1019 1.390 . S
C1011 C1010 1.387 . S
C1011 C1013 1.387 . S
H1012 C1019 0.950 1_455 S
C1013 C1011 1.387 . S
C1013 C1015 1.390 . S
C1013 H1017 0.950 . S
H1014 C1010 0.950 . S
C1015 C1013 1.390 . S
C1015 C1016 1.387 . S
C1015 H1018 0.950 . S
C1016 C1015 1.387 . S
C1016 C1019 1.387 . S
H1017 C1013 0.950 . S
H1018 C1015 0.950 . S
C1019 C1010 1.390 . S
C1019 H1012 0.950 1_655 S
C1019 C1016 1.387 . S
C1020 C1021 1.387 . S
C1020 H1024 0.950 . S
C1020 C1029 1.390 . S
C1021 C1020 1.387 . S
C1021 C1023 1.387 . S
H1022 C1029 0.950 . S
C1023 C1021 1.387 . S
C1023 C1025 1.390 . S
C1023 H1027 0.950 . S
H1024 C1020 0.950 . S
C1025 C1023 1.390 . S
C1025 C1026 1.387 . S
C1025 H1028 0.950 . S
C1026 C1025 1.387 . S
C1026 C1029 1.387 . S
H1027 C1023 0.950 . S
H1028 C1025 0.950 . S
C1029 C1020 1.390 . S
C1029 H1022 0.950 . S
C1029 C1026 1.387 . S
C1030 C1031 1.387 . S
C1030 H1034 0.950 . S
C1030 C1039 1.390 . S
C1031 C1030 1.387 . S
C1031 C1033 1.387 . S
H1032 C1039 0.950 . S
C1033 C1031 1.387 . S
C1033 C1035 1.390 . S
C1033 H1037 0.950 . S
H1034 C1030 0.950 . S
C1035 C1033 1.390 . S
C1035 C1036 1.387 . S
C1035 H1038 0.950 . S
C1036 C1035 1.387 . S
C1036 C1039 1.387 . S
H1037 C1033 0.950 . S
H1038 C1035 0.950 . S
C1039 C1030 1.390 . S
C1039 H1032 0.950 . S
C1039 C1036 1.387 . S
C1040 C1041 1.387 . S
C1040 H1044 0.950 . S
C1040 C1049 1.390 . S
C1041 C1040 1.387 . S
C1041 C1043 1.387 . S
H1042 C1049 0.950 . S
C1043 C1041 1.387 . S
C1043 C1045 1.413 . S
C1043 H1047 0.950 . S
H1044 C1040 0.950 . S
C1045 C1043 1.413 . S
C1045 C1046 1.385 . S
C1045 H1048 0.930 1_556 S
C1046 C1045 1.385 . S
C1046 C1049 1.387 . S
H1047 C1043 0.950 . S
H1048 C1045 0.930 1_554 S
C1049 C1040 1.390 . S
C1049 H1042 0.950 . S
C1049 C1046 1.387 . S
C1050 C1051 1.387 . S
C1050 H1054 0.950 . S
C1050 C1059 1.390 . S
C1051 C1050 1.387 . S
C1051 C1053 1.387 . S
H1052 C1059 0.950 . S
C1053 C1051 1.387 . S
C1053 C1055 1.390 . S
C1053 H1057 0.950 . S
H1054 C1050 0.950 . S
C1055 C1053 1.390 . S
C1055 C1056 1.387 . S
C1055 H1058 0.950 . S
C1056 C1055 1.387 . S
C1056 C1059 1.387 . S
H1057 C1053 0.950 . S
H1058 C1055 0.950 . S
C1059 C1050 1.390 . S
C1059 H1052 0.950 . S
C1059 C1056 1.387 . S
C1060 C1061 1.387 1_455 S
C1060 H1064 0.950 . S
C1060 C1069 1.390 1_455 S
C1061 C1060 1.387 1_655 S
C1061 C1063 1.387 . S
H1062 C1069 0.950 1_455 S
C1063 C1061 1.387 . S
C1063 C1065 1.390 . S
C1063 H1067 0.950 . S
H1064 C1060 0.950 . S
C1065 C1063 1.390 . S
C1065 C1066 1.387 . S
C1065 H1068 0.950 . S
C1066 C1065 1.387 . S
C1066 C1069 1.387 . S
H1067 C1063 0.950 . S
H1068 C1065 0.950 . S
C1069 C1060 1.390 1_655 S
C1069 H1062 0.950 1_655 S
C1069 C1066 1.387 . S
C1070 C1071 1.387 . S
C1070 H1074 0.950 . S
C1070 C1079 1.390 . S
C1071 C1070 1.387 . S
C1071 C1073 1.387 . S
H1072 C1079 0.950 . S
C1073 C1071 1.387 . S
C1073 C1075 1.390 . S
C1073 H1077 0.950 . S
H1074 C1070 0.950 . S
C1075 C1073 1.390 . S
C1075 C1076 1.387 . S
C1075 H1078 0.950 . S
C1076 C1075 1.387 . S
C1076 C1079 1.387 . S
H1077 C1073 0.950 . S
H1078 C1075 0.950 . S
C1079 C1070 1.390 . S
C1079 H1072 0.950 . S
C1079 C1076 1.387 . S
C1080 C1081 1.387 . S
C1080 H1084 0.950 . S
C1080 C1089 1.390 . S
C1081 C1080 1.387 . S
C1081 C1083 1.387 . S
H1082 C1089 0.950 . S
C1083 C1081 1.387 . S
C1083 C1085 1.390 . S
C1083 H1087 0.950 . S
H1084 C1080 0.950 . S
C1085 C1083 1.390 . S
C1085 C1086 1.387 . S
C1085 H1088 0.950 1_554 S
C1086 C1085 1.387 . S
C1086 C1089 1.387 . S
H1087 C1083 0.950 . S
H1088 C1085 0.950 1_556 S
C1089 C1080 1.390 . S
C1089 H1082 0.950 . S
C1089 C1086 1.387 . S
C1090 C1091 1.387 . S
C1090 H1094 0.950 . S
C1090 C1099 1.390 . S
C1091 C1090 1.387 . S
C1091 C1093 1.387 . S
H1092 C1099 0.950 . S
C1093 C1091 1.387 . S
C1093 C1095 1.390 . S
C1093 H1097 0.950 . S
H1094 C1090 0.950 . S
C1095 C1093 1.390 . S
C1095 C1096 1.387 . S
C1095 H1098 0.950 . S
C1096 C1095 1.387 . S
C1096 C1099 1.387 . S
H1097 C1093 0.950 . S
H1098 C1095 0.950 . S
C1099 C1090 1.390 . S
C1099 H1092 0.950 . S
C1099 C1096 1.387 . S
C1100 C1101 1.387 . S
C1100 H1104 0.950 . S
C1100 C1109 1.390 . S
C1101 C1100 1.387 . S
C1101 C1103 1.387 . S
H1102 C1109 0.950 . S
C1103 C1101 1.387 . S
C1103 C1105 1.390 . S
C1103 H1107 0.950 . S
H1104 C1100 0.950 . S
C1105 C1103 1.390 . S
C1105 C1106 1.387 . S
C1105 H1108 0.950 . S
C1106 C1105 1.387 . S
C1106 C1109 1.387 . S
H1107 C1103 0.950 . S
H1108 C1105 0.950 . S
C1109 C1100 1.390 . S
C1109 H1102 0.950 . S
C1109 C1106 1.387 . S
C1110 C1111 1.387 . S
C1110 H1114 0.950 . S
C1110 C1119 1.390 . S
C1111 C1110 1.387 . S
C1111 C1113 1.387 . S
H1112 C1119 0.950 . S
C1113 C1111 1.387 . S
C1113 C1115 1.390 . S
C1113 H1117 0.950 . S
H1114 C1110 0.950 . S
C1115 C1113 1.390 . S
C1115 C1116 1.387 . S
C1115 H1118 0.950 . S
C1116 C1115 1.387 . S
C1116 C1119 1.387 . S
H1117 C1113 0.950 . S
H1118 C1115 0.950 . S
C1119 C1110 1.390 . S
C1119 H1112 0.950 . S
C1119 C1116 1.387 . S
C641 C19 0.335 . S
C646 C286 0.711 . S
C651 C59 2.047 . S
C656 C166 2.071 . S
C661 C206 1.374 . S
C666 C86 1.210 . S
C671 C139 2.870 . S
C676 C259 2.779 . S
C681 C455 0.715 . S
C686 C170 0.341 . S
C691 C330 2.047 . S
C696 C15 2.071 . S
C701 C415 1.375 . S
C706 C255 1.209 . S
C711 C90 2.778 . S
C716 C370 2.869 . S
C721 C366 0.710 . S
C726 C499 0.335 . S
C731 C419 2.048 . S
C736 C566 2.071 . S
C741 C526 1.216 . S
C746 C326 1.379 . S
C751 C459 2.869 . S
C756 C619 2.778 1_554 S
C761 C570 0.341 . S
C766 C135 0.715 . S
C771 C495 2.071 . S
C776 C210 2.048 . S
C781 C55 1.373 . S
C786 C615 1.208 . S
C791 C290 2.870 . S
C796 C530 2.779 1_556 S
C801 C529 0.941 . S
C806 C18 0.955 . S
C811 C458 1.607 . S
C816 C58 1.363 . S
C821 C498 0.955 . S
C826 C89 0.941 . S
C831 C418 1.357 . S
C836 C138 1.603 . S
C841 C169 0.949 1_655 S
C846 C618 0.947 1_655 S
C851 C369 1.605 . S
C856 C209 1.358 . S
C861 C258 0.940 . S
C866 C569 0.955 . S
C871 C289 1.607 . S
C876 C329 1.361 1_455 S
C881 C9 2.012 . S
C886 C178 2.012 . S
C891 C49 2.489 . S
C896 C218 2.489 . S
C901 C249 2.075 1_565 S
C906 C98 2.075 1_545 S
C911 C129 1.781 . S
C916 C298 1.781 . S
C921 C409 2.488 . S
C926 C338 2.488 . S
C931 C449 1.783 . S
C936 C378 1.783 . S
C941 C489 2.010 . S
C946 C578 2.010 . S
C951 C609 2.076 . S
C956 C538 2.076 . S
C961 C6 2.880 . S
C966 C299 2.958 . S
C971 C46 1.161 . S
C976 C179 1.267 . S
C981 C219 3.759 1_556 S
C986 C99 3.733 . S
C991 C246 0.980 . S
C996 C126 0.975 . S
C1001 C450 2.958 . S
C1006 C175 2.880 . S
C1011 C335 1.161 . S
C1016 C10 1.267 1_655 S
C1021 C410 3.758 1_554 S
C1026 C250 3.732 . S
C1031 C95 0.978 . S
C1036 C375 0.979 . S
C1041 C486 2.881 . S
C1046 C379 2.958 1_556 S
C1051 C579 1.263 . S
C1056 C406 1.155 . S
C1061 C539 3.732 1_655 S
C1066 C339 3.759 . S
C1071 C606 0.981 . S
C1076 C446 0.976 . S
C1081 C575 2.879 . S
C1086 C130 2.958 1_554 S
C1091 C215 1.155 . S
C1096 C490 1.263 . S
C1101 C50 3.759 . S
C1106 C610 3.733 . S
C1111 C535 0.982 . S
C1116 C295 0.977 . S
