# Generated by pormake.
# Topology cbo, (4)-cn, num edge types: 1
# Building blocks:
#     Node 0, Type 0, BuildingBlock: ICAMEG_clean_sbu_1, # of connection points: 4
#     Node 1, Type 0, BuildingBlock: ICAMEG_clean_sbu_1, # of connection points: 4
#     Node 2, Type 0, BuildingBlock: ICAMEG_clean_sbu_1, # of connection points: 4
#     Node 3, Type 0, BuildingBlock: ICAMEG_clean_sbu_1, # of connection points: 4
#     Node 4, Type 0, BuildingBlock: ICAMEG_clean_sbu_1, # of connection points: 4
#     Node 5, Type 0, BuildingBlock: ICAMEG_clean_sbu_1, # of connection points: 4
#     Node 6, Type 0, BuildingBlock: ICAMEG_clean_sbu_1, # of connection points: 4
#     Node 7, Type 0, BuildingBlock: ICAMEG_clean_sbu_1, # of connection points: 4
#     Node 8, Type 0, BuildingBlock: ICAMEG_clean_sbu_1, # of connection points: 4
#     Node 9, Type 0, BuildingBlock: ICAMEG_clean_sbu_1, # of connection points: 4
#     Node 10, Type 0, BuildingBlock: ICAMEG_clean_sbu_1, # of connection points: 4
#     Node 11, Type 0, BuildingBlock: ICAMEG_clean_sbu_1, # of connection points: 4
#     Node 12, Type 0, BuildingBlock: ICAMEG_clean_sbu_1, # of connection points: 4
#     Node 13, Type 0, BuildingBlock: ICAMEG_clean_sbu_1, # of connection points: 4
#     Node 14, Type 0, BuildingBlock: ICAMEG_clean_sbu_1, # of connection points: 4
#     Node 15, Type 0, BuildingBlock: ICAMEG_clean_sbu_1, # of connection points: 4
#     Node 16, Type 0, BuildingBlock: ICAMEG_clean_sbu_1, # of connection points: 4
#     Node 17, Type 0, BuildingBlock: ICAMEG_clean_sbu_1, # of connection points: 4
#     Node 18, Type 0, BuildingBlock: ICAMEG_clean_sbu_1, # of connection points: 4
#     Node 19, Type 0, BuildingBlock: ICAMEG_clean_sbu_1, # of connection points: 4
#     Node 20, Type 0, BuildingBlock: ICAMEG_clean_sbu_1, # of connection points: 4
#     Node 21, Type 0, BuildingBlock: ICAMEG_clean_sbu_1, # of connection points: 4
#     Node 22, Type 0, BuildingBlock: ICAMEG_clean_sbu_1, # of connection points: 4
#     Node 23, Type 0, BuildingBlock: ICAMEG_clean_sbu_1, # of connection points: 4
#     Edge 24, Type (0, 0), BuildingBlock: AJUNOK_clean_linker_0, # of connection points: 2
#     Edge 25, Type (0, 0), BuildingBlock: AJUNOK_clean_linker_0, # of connection points: 2
#     Edge 26, Type (0, 0), BuildingBlock: AJUNOK_clean_linker_0, # of connection points: 2
#     Edge 27, Type (0, 0), BuildingBlock: AJUNOK_clean_linker_0, # of connection points: 2
#     Edge 28, Type (0, 0), BuildingBlock: AJUNOK_clean_linker_0, # of connection points: 2
#     Edge 29, Type (0, 0), BuildingBlock: AJUNOK_clean_linker_0, # of connection points: 2
#     Edge 30, Type (0, 0), BuildingBlock: AJUNOK_clean_linker_0, # of connection points: 2
#     Edge 31, Type (0, 0), BuildingBlock: AJUNOK_clean_linker_0, # of connection points: 2
#     Edge 32, Type (0, 0), BuildingBlock: AJUNOK_clean_linker_0, # of connection points: 2
#     Edge 33, Type (0, 0), BuildingBlock: AJUNOK_clean_linker_0, # of connection points: 2
#     Edge 34, Type (0, 0), BuildingBlock: AJUNOK_clean_linker_0, # of connection points: 2
#     Edge 35, Type (0, 0), BuildingBlock: AJUNOK_clean_linker_0, # of connection points: 2
#     Edge 36, Type (0, 0), BuildingBlock: AJUNOK_clean_linker_0, # of connection points: 2
#     Edge 37, Type (0, 0), BuildingBlock: AJUNOK_clean_linker_0, # of connection points: 2
#     Edge 38, Type (0, 0), BuildingBlock: AJUNOK_clean_linker_0, # of connection points: 2
#     Edge 39, Type (0, 0), BuildingBlock: AJUNOK_clean_linker_0, # of connection points: 2
#     Edge 40, Type (0, 0), BuildingBlock: AJUNOK_clean_linker_0, # of connection points: 2
#     Edge 41, Type (0, 0), BuildingBlock: AJUNOK_clean_linker_0, # of connection points: 2
#     Edge 42, Type (0, 0), BuildingBlock: AJUNOK_clean_linker_0, # of connection points: 2
#     Edge 43, Type (0, 0), BuildingBlock: AJUNOK_clean_linker_0, # of connection points: 2
#     Edge 44, Type (0, 0), BuildingBlock: AJUNOK_clean_linker_0, # of connection points: 2
#     Edge 45, Type (0, 0), BuildingBlock: AJUNOK_clean_linker_0, # of connection points: 2
#     Edge 46, Type (0, 0), BuildingBlock: AJUNOK_clean_linker_0, # of connection points: 2
#     Edge 47, Type (0, 0), BuildingBlock: AJUNOK_clean_linker_0, # of connection points: 2
#     Edge 48, Type (0, 0), BuildingBlock: AJUNOK_clean_linker_0, # of connection points: 2
#     Edge 49, Type (0, 0), BuildingBlock: AJUNOK_clean_linker_0, # of connection points: 2
#     Edge 50, Type (0, 0), BuildingBlock: AJUNOK_clean_linker_0, # of connection points: 2
#     Edge 51, Type (0, 0), BuildingBlock: AJUNOK_clean_linker_0, # of connection points: 2
#     Edge 52, Type (0, 0), BuildingBlock: AJUNOK_clean_linker_0, # of connection points: 2
#     Edge 53, Type (0, 0), BuildingBlock: AJUNOK_clean_linker_0, # of connection points: 2
#     Edge 54, Type (0, 0), BuildingBlock: AJUNOK_clean_linker_0, # of connection points: 2
#     Edge 55, Type (0, 0), BuildingBlock: AJUNOK_clean_linker_0, # of connection points: 2
#     Edge 56, Type (0, 0), BuildingBlock: AJUNOK_clean_linker_0, # of connection points: 2
#     Edge 57, Type (0, 0), BuildingBlock: AJUNOK_clean_linker_0, # of connection points: 2
#     Edge 58, Type (0, 0), BuildingBlock: AJUNOK_clean_linker_0, # of connection points: 2
#     Edge 59, Type (0, 0), BuildingBlock: AJUNOK_clean_linker_0, # of connection points: 2
#     Edge 60, Type (0, 0), BuildingBlock: AJUNOK_clean_linker_0, # of connection points: 2
#     Edge 61, Type (0, 0), BuildingBlock: AJUNOK_clean_linker_0, # of connection points: 2
#     Edge 62, Type (0, 0), BuildingBlock: AJUNOK_clean_linker_0, # of connection points: 2
#     Edge 63, Type (0, 0), BuildingBlock: AJUNOK_clean_linker_0, # of connection points: 2
#     Edge 64, Type (0, 0), BuildingBlock: AJUNOK_clean_linker_0, # of connection points: 2
#     Edge 65, Type (0, 0), BuildingBlock: AJUNOK_clean_linker_0, # of connection points: 2
#     Edge 66, Type (0, 0), BuildingBlock: AJUNOK_clean_linker_0, # of connection points: 2
#     Edge 67, Type (0, 0), BuildingBlock: AJUNOK_clean_linker_0, # of connection points: 2
#     Edge 68, Type (0, 0), BuildingBlock: AJUNOK_clean_linker_0, # of connection points: 2
#     Edge 69, Type (0, 0), BuildingBlock: AJUNOK_clean_linker_0, # of connection points: 2
#     Edge 70, Type (0, 0), BuildingBlock: AJUNOK_clean_linker_0, # of connection points: 2
#     Edge 71, Type (0, 0), BuildingBlock: AJUNOK_clean_linker_0, # of connection points: 2
# Relax obj value: 0.086
# Max RMSD: 0.123
# Mean RMSD: 0.123
data_MOF--net-cbo--node1-ICAMEG_clean_sbu_1--edge1-AJUNOK_clean_linker_0
_symmetry_space_group_name_H-M    P1
_symmetry_Int_Tables_number       1
_symmetry_cell_setting            triclinic
loop_
_symmetry_equiv_pos_as_xyz
'x, y, z'
_cell_length_a     41.961035
_cell_length_b     42.001053
_cell_length_c     41.97714
_cell_angle_alpha  90.002101
_cell_angle_beta   90.007655
_cell_angle_gamma 90.051261
loop_
_atom_site_label
_atom_site_type_symbol
_atom_site_fract_x
_atom_site_fract_y
_atom_site_fract_z
_atom_type_partial_charge
Co0 Co 0.17733 0.21482 0.36558 0.0
Co1 Co 0.12552 0.16825 0.32216 0.0
O2 O 0.13854 0.18866 0.36223 0.0
C3 C 0.1813 0.17173 0.42249 0.0
O4 O 0.16855 0.14849 0.40594 0.0
C5 C 0.06358 0.19988 0.33967 0.0
O6 O 0.07847 0.22729 0.34229 0.0
O7 O 0.12746 0.21002 0.29921 0.0
O8 O 0.17071 0.23199 0.32189 0.0
H9 H 0.13232 0.14705 0.20452 0.0
H10 H 0.12799 0.21868 0.41589 0.0
O11 O 0.18577 0.19893 0.4099 0.0
H12 H 0.13674 0.32742 0.37246 0.0
H13 H 0.25519 0.28701 0.42168 0.0
H14 H 0.23047 0.23069 0.32162 0.0
H15 H 0.17063 0.28422 0.35167 0.0
H16 H 0.20631 0.25474 0.41691 0.0
O17 O 0.07919 0.1749 0.33253 0.0
H18 H 0.14799 0.17201 0.25528 0.0
H19 H 0.07497 0.12145 0.30379 0.0
H20 H 0.2794 0.26295 0.32526 0.0
H21 H 0.09383 0.26125 0.43759 0.0
H22 H 0.29208 0.29137 0.3756 0.0
H23 H 0.09805 0.31607 0.41579 0.0
O24 O 0.20396 0.17988 0.34731 0.0
H25 H 0.09395 0.09596 0.41211 0.0
H26 H 0.15048 0.10269 0.3095 0.0
H27 H 0.14891 0.05156 0.33821 0.0
H28 H 0.12032 0.04792 0.3899 0.0
H29 H 0.09672 0.14676 0.3828 0.0
H30 H 0.05822 0.09623 0.25348 0.0
H31 H 0.08711 0.10884 0.20338 0.0
O32 O 0.17109 0.16014 0.31017 0.0
C33 C 0.14969 0.23079 0.3001 0.0
C34 C 0.11954 0.14134 0.22619 0.0
C35 C 0.07796 0.11283 0.25366 0.0
N36 N 0.1125 0.14814 0.28256 0.0
C37 C 0.12833 0.15538 0.25504 0.0
C38 C 0.08747 0.1273 0.28208 0.0
C39 C 0.09418 0.11991 0.22556 0.0
C40 C 0.13016 0.24254 0.4065 0.0
N41 N 0.15144 0.249 0.38273 0.0
C42 C 0.11067 0.26652 0.41878 0.0
C43 C 0.11303 0.29726 0.40651 0.0
C44 C 0.13472 0.30365 0.38219 0.0
C45 C 0.15381 0.27907 0.37049 0.0
C46 C 0.24993 0.27474 0.39962 0.0
C47 C 0.23571 0.24306 0.34357 0.0
C48 C 0.22234 0.25633 0.39681 0.0
N49 N 0.21551 0.24077 0.36902 0.0
C50 C 0.26351 0.26127 0.3455 0.0
C51 C 0.27061 0.27719 0.37376 0.0
C52 C 0.19884 0.16345 0.32218 0.0
C53 C 0.10649 0.09723 0.38961 0.0
C54 C 0.13848 0.10144 0.33212 0.0
C55 C 0.13743 0.07235 0.34821 0.0
C56 C 0.12133 0.0703 0.37717 0.0
N57 N 0.12393 0.12777 0.34448 0.0
C58 C 0.10804 0.12591 0.37284 0.0
Co59 Co 0.33426 0.79625 0.86004 0.0
Co60 Co 0.38628 0.8354 0.81079 0.0
O61 O 0.37369 0.82004 0.85288 0.0
C62 C 0.30557 0.83025 0.91483 0.0
O63 O 0.28002 0.8341 0.89717 0.0
C64 C 0.44687 0.80277 0.83008 0.0
O65 O 0.43125 0.77594 0.834 0.0
O66 O 0.38193 0.79151 0.79273 0.0
O67 O 0.33756 0.77499 0.81776 0.0
H68 H 0.37747 0.84443 0.69174 0.0
H69 H 0.3858 0.7941 0.90832 0.0
O70 O 0.33029 0.81716 0.90289 0.0
H71 H 0.37004 0.68272 0.87463 0.0
H72 H 0.25749 0.73061 0.92523 0.0
H73 H 0.27719 0.78118 0.82113 0.0
H74 H 0.33721 0.72566 0.85177 0.0
H75 H 0.30723 0.76038 0.91544 0.0
O76 O 0.4322 0.82778 0.82133 0.0
H77 H 0.36172 0.82598 0.74521 0.0
H78 H 0.43914 0.87651 0.7865 0.0
H79 H 0.2272 0.75165 0.82982 0.0
H80 H 0.41892 0.75182 0.93208 0.0
H81 H 0.21705 0.7261 0.88223 0.0
H82 H 0.41117 0.69566 0.91519 0.0
O83 O 0.30899 0.83095 0.83965 0.0
H84 H 0.4208 0.91547 0.89273 0.0
H85 H 0.36509 0.90033 0.79052 0.0
H86 H 0.36924 0.95421 0.81338 0.0
H87 H 0.39743 0.96208 0.86482 0.0
H88 H 0.41564 0.86194 0.86916 0.0
H89 H 0.45592 0.89525 0.73342 0.0
H90 H 0.42488 0.87937 0.68558 0.0
O91 O 0.34089 0.84433 0.79899 0.0
C92 C 0.35819 0.7727 0.79565 0.0
C93 C 0.39115 0.85159 0.71241 0.0
C94 C 0.43518 0.8801 0.7358 0.0
N95 N 0.3993 0.85038 0.76901 0.0
C96 C 0.38231 0.84127 0.74277 0.0
C97 C 0.42561 0.86934 0.7658 0.0
C98 C 0.41775 0.87118 0.70897 0.0
C99 C 0.38206 0.76968 0.9011 0.0
N100 N 0.35938 0.76235 0.87892 0.0
C101 C 0.40098 0.74586 0.91453 0.0
C102 C 0.39665 0.71436 0.90501 0.0
C103 C 0.37359 0.70708 0.88224 0.0
C104 C 0.35512 0.73153 0.86933 0.0
C105 C 0.26162 0.74164 0.90229 0.0
C106 C 0.273 0.77014 0.84396 0.0
C107 C 0.28973 0.75855 0.89662 0.0
N108 N 0.29512 0.7726 0.86772 0.0
C109 C 0.24462 0.75344 0.84876 0.0
C110 C 0.23895 0.73912 0.87816 0.0
C111 C 0.31377 0.84433 0.81271 0.0
C112 C 0.40845 0.91236 0.87031 0.0
C113 C 0.37701 0.90348 0.81303 0.0
C114 C 0.37947 0.93409 0.82581 0.0
C115 C 0.39532 0.9385 0.85465 0.0
N116 N 0.39 0.87797 0.82847 0.0
C117 C 0.40549 0.88211 0.85681 0.0
Co118 Co 0.66329 0.28723 0.63552 0.0
Co119 Co 0.61882 0.33205 0.68806 0.0
O120 O 0.62839 0.31612 0.64547 0.0
C121 C 0.69746 0.3217 0.58404 0.0
O122 O 0.72313 0.31917 0.60173 0.0
C123 C 0.5566 0.3028 0.6701 0.0
O124 O 0.57106 0.27528 0.66684 0.0
O125 O 0.62084 0.28816 0.70672 0.0
O126 O 0.65628 0.26274 0.67579 0.0
H127 H 0.63361 0.34216 0.80647 0.0
H128 H 0.61173 0.29899 0.58881 0.0
O129 O 0.67083 0.31145 0.59471 0.0
H130 H 0.60967 0.18324 0.60822 0.0
H131 H 0.72883 0.217 0.56339 0.0
H132 H 0.71643 0.25893 0.67239 0.0
H133 H 0.64931 0.21735 0.63492 0.0
H134 H 0.68468 0.25348 0.57646 0.0
O135 O 0.57211 0.32738 0.6788 0.0
H136 H 0.64624 0.3226 0.75256 0.0
H137 H 0.56912 0.37564 0.71414 0.0
H138 H 0.76078 0.22242 0.66042 0.0
H139 H 0.5719 0.26576 0.56121 0.0
H140 H 0.76724 0.20121 0.60556 0.0
H141 H 0.57063 0.20744 0.57093 0.0
O142 O 0.694 0.31525 0.65875 0.0
H143 H 0.58756 0.41517 0.6078 0.0
H144 H 0.64645 0.39461 0.70736 0.0
H145 H 0.64548 0.44893 0.68509 0.0
H146 H 0.61572 0.45953 0.63505 0.0
H147 H 0.58952 0.36113 0.63071 0.0
H148 H 0.55548 0.39555 0.76771 0.0
H149 H 0.58792 0.37889 0.81432 0.0
O150 O 0.66501 0.33763 0.69774 0.0
C151 C 0.63906 0.26447 0.70079 0.0
C152 C 0.61934 0.34965 0.78634 0.0
C153 C 0.57546 0.37957 0.76459 0.0
N154 N 0.60852 0.34806 0.73019 0.0
C155 C 0.62642 0.33871 0.75573 0.0
C156 C 0.58323 0.36813 0.73433 0.0
C157 C 0.59368 0.37023 0.79073 0.0
C158 C 0.61148 0.2736 0.59302 0.0
N159 N 0.63287 0.26012 0.61353 0.0
C160 C 0.5888 0.25492 0.57738 0.0
C161 C 0.58807 0.22221 0.58288 0.0
C162 C 0.60994 0.20863 0.60382 0.0
C163 C 0.63225 0.22808 0.61905 0.0
C164 C 0.72629 0.22609 0.58738 0.0
C165 C 0.71903 0.24979 0.64847 0.0
C166 C 0.70136 0.24679 0.59491 0.0
N167 N 0.698 0.2584 0.62516 0.0
C168 C 0.74422 0.22912 0.64183 0.0
C169 C 0.74783 0.21724 0.61105 0.0
C170 C 0.69159 0.3317 0.68427 0.0
C171 C 0.60049 0.41089 0.6297 0.0
C172 C 0.63354 0.399 0.68552 0.0
C173 C 0.63303 0.42983 0.67305 0.0
C174 C 0.61633 0.43576 0.64498 0.0
N175 N 0.61771 0.37479 0.67055 0.0
C176 C 0.60155 0.38037 0.64286 0.0
Co177 Co 0.82942 0.72853 0.13481 0.0
Co178 Co 0.87418 0.6809 0.18489 0.0
O179 O 0.86442 0.69845 0.1427 0.0
C180 C 0.82152 0.67953 0.083 0.0
O181 O 0.83315 0.65719 0.10147 0.0
C182 C 0.93783 0.70761 0.16716 0.0
O183 O 0.92397 0.73505 0.16144 0.0
O184 O 0.87457 0.72424 0.20438 0.0
O185 O 0.83747 0.7504 0.17632 0.0
H186 H 0.86035 0.6694 0.30329 0.0
H187 H 0.87976 0.71902 0.08632 0.0
O188 O 0.8194 0.70812 0.09276 0.0
H189 H 0.88442 0.83311 0.11358 0.0
H190 H 0.76348 0.8023 0.06692 0.0
H191 H 0.77692 0.75555 0.17372 0.0
H192 H 0.84478 0.79791 0.13887 0.0
H193 H 0.80755 0.76511 0.07784 0.0
O194 O 0.92117 0.68383 0.176 0.0
H195 H 0.84828 0.69074 0.24995 0.0
H196 H 0.92132 0.63364 0.20945 0.0
H197 H 0.73273 0.79289 0.16402 0.0
H198 H 0.91959 0.7534 0.06013 0.0
H199 H 0.72577 0.81657 0.11024 0.0
H200 H 0.92215 0.81088 0.0738 0.0
O201 O 0.79823 0.69986 0.15661 0.0
H202 H 0.9041 0.59771 0.10429 0.0
H203 H 0.84202 0.61972 0.20156 0.0
H204 H 0.84057 0.56599 0.17794 0.0
H205 H 0.87189 0.55466 0.12903 0.0
H206 H 0.90444 0.65126 0.1284 0.0
H207 H 0.93437 0.61187 0.26243 0.0
H208 H 0.9037 0.62967 0.3098 0.0
O209 O 0.82792 0.67735 0.19518 0.0
C210 C 0.85594 0.74792 0.2003 0.0
C211 C 0.87386 0.66141 0.28283 0.0
C212 C 0.91542 0.62916 0.25989 0.0
N213 N 0.88403 0.66341 0.22656 0.0
C214 C 0.86709 0.67336 0.25253 0.0
C215 C 0.908 0.64165 0.22996 0.0
C216 C 0.89819 0.63915 0.28646 0.0
C217 C 0.88057 0.74405 0.09221 0.0
N218 N 0.85989 0.75646 0.11407 0.0
C219 C 0.90324 0.76338 0.07738 0.0
C220 C 0.90469 0.79562 0.08509 0.0
C221 C 0.88355 0.8081 0.10743 0.0
C222 C 0.86122 0.78803 0.12179 0.0
C223 C 0.7663 0.79221 0.09048 0.0
C224 C 0.77414 0.76581 0.15035 0.0
C225 C 0.79118 0.77107 0.09681 0.0
N226 N 0.79498 0.75829 0.12653 0.0
C227 C 0.74903 0.78692 0.14495 0.0
C228 C 0.74514 0.80019 0.11478 0.0
C229 C 0.80126 0.68353 0.18211 0.0
C230 C 0.89041 0.60232 0.12565 0.0
C231 C 0.85549 0.61507 0.18012 0.0
C232 C 0.85469 0.58455 0.16693 0.0
C233 C 0.8723 0.5782 0.13951 0.0
N234 N 0.87336 0.63859 0.1664 0.0
C235 C 0.89064 0.63256 0.13949 0.0
Co236 Co 0.37225 0.15741 0.22058 0.0
Co237 Co 0.32284 0.11415 0.17101 0.0
O238 O 0.3642 0.1226 0.19065 0.0
C239 C 0.42711 0.19041 0.18991 0.0
O240 O 0.41008 0.21658 0.19155 0.0
C241 C 0.33755 0.05122 0.20047 0.0
O242 O 0.34253 0.06577 0.22772 0.0
O243 O 0.30107 0.11598 0.21326 0.0
O244 O 0.32988 0.15095 0.24166 0.0
H245 H 0.20611 0.13274 0.15171 0.0
H246 H 0.41921 0.10521 0.21329 0.0
O247 O 0.41519 0.16415 0.19972 0.0
H248 H 0.38801 0.10331 0.3265 0.0
H249 H 0.4398 0.2217 0.29636 0.0
H250 H 0.33387 0.21057 0.24674 0.0
H251 H 0.36503 0.14303 0.28987 0.0
H252 H 0.42888 0.1779 0.25872 0.0
O253 O 0.32975 0.0672 0.17591 0.0
H254 H 0.25865 0.14338 0.1757 0.0
H255 H 0.29881 0.06594 0.12449 0.0
H256 H 0.34369 0.25457 0.28433 0.0
H257 H 0.44309 0.06534 0.24917 0.0
H258 H 0.39702 0.26041 0.30938 0.0
H259 H 0.42744 0.06418 0.30623 0.0
O260 O 0.35214 0.1888 0.19094 0.0
H261 H 0.40824 0.08017 0.09438 0.0
H262 H 0.31007 0.1433 0.10742 0.0
H263 H 0.3369 0.14205 0.05517 0.0
H264 H 0.38629 0.11021 0.04837 0.0
H265 H 0.38078 0.08234 0.1463 0.0
H266 H 0.24657 0.05421 0.10024 0.0
H267 H 0.19978 0.08781 0.11373 0.0
O268 O 0.31487 0.16048 0.16518 0.0
C269 C 0.30515 0.13365 0.2377 0.0
C270 C 0.22633 0.11796 0.14558 0.0
C271 C 0.24903 0.07385 0.11675 0.0
N272 N 0.28183 0.10536 0.15147 0.0
C273 C 0.25619 0.12393 0.15901 0.0
C274 C 0.27853 0.08053 0.13066 0.0
C275 C 0.22279 0.09273 0.12431 0.0
C276 C 0.41259 0.10511 0.23815 0.0
N277 N 0.39106 0.12668 0.24952 0.0
C278 C 0.42605 0.08236 0.25833 0.0
C279 C 0.41722 0.08169 0.29032 0.0
C280 C 0.39509 0.10363 0.30171 0.0
C281 C 0.38211 0.12603 0.28083 0.0
C282 C 0.41649 0.21945 0.28555 0.0
C283 C 0.35712 0.2129 0.25756 0.0
C284 C 0.41019 0.19474 0.26418 0.0
N285 N 0.38082 0.19179 0.25038 0.0
C286 C 0.36255 0.23789 0.27883 0.0
C287 C 0.39247 0.24115 0.29286 0.0
C288 C 0.32804 0.18682 0.17243 0.0
C289 C 0.3867 0.09408 0.09702 0.0
C290 C 0.33165 0.12954 0.1047 0.0
C291 C 0.34669 0.12885 0.07503 0.0
C292 C 0.37439 0.11096 0.07123 0.0
N293 N 0.34378 0.1128 0.12984 0.0
C294 C 0.37101 0.09534 0.12634 0.0
Co295 Co 0.13824 0.84048 0.72073 0.0
Co296 Co 0.18151 0.88325 0.66485 0.0
O297 O 0.14188 0.87404 0.68823 0.0
C298 C 0.08168 0.82791 0.67789 0.0
O299 O 0.09683 0.8392 0.65298 0.0
C300 C 0.16486 0.9466 0.69252 0.0
O301 O 0.15665 0.93227 0.71907 0.0
O302 O 0.207 0.88424 0.70502 0.0
O303 O 0.181 0.85139 0.73802 0.0
H304 H 0.29663 0.86695 0.63609 0.0
H305 H 0.08685 0.88823 0.71376 0.0
O306 O 0.09479 0.82782 0.70525 0.0
H307 H 0.12586 0.90058 0.82388 0.0
H308 H 0.08163 0.77538 0.80427 0.0
H309 H 0.18258 0.79193 0.74646 0.0
H310 H 0.14887 0.85982 0.78844 0.0
H311 H 0.08637 0.81798 0.76412 0.0
O312 O 0.17424 0.93036 0.66866 0.0
H313 H 0.24675 0.856 0.66507 0.0
H314 H 0.19991 0.93001 0.61446 0.0
H315 H 0.17895 0.74927 0.7866 0.0
H316 H 0.06294 0.92914 0.74848 0.0
H317 H 0.12817 0.74073 0.81581 0.0
H318 H 0.08255 0.93559 0.80393 0.0
O319 O 0.15798 0.8084 0.69168 0.0
H320 H 0.08953 0.91258 0.59417 0.0
H321 H 0.18913 0.85084 0.60201 0.0
H322 H 0.15778 0.84898 0.55235 0.0
H323 H 0.10762 0.88007 0.54818 0.0
H324 H 0.12146 0.91347 0.64353 0.0
H325 H 0.24944 0.94202 0.58519 0.0
H326 H 0.29824 0.91031 0.59587 0.0
O327 O 0.19049 0.83685 0.66028 0.0
C328 C 0.2048 0.86885 0.73112 0.0
C329 C 0.27552 0.88091 0.63118 0.0
C330 C 0.24904 0.92307 0.60267 0.0
N331 N 0.22039 0.8923 0.64146 0.0
C332 C 0.24715 0.87476 0.64745 0.0
C333 C 0.22109 0.91623 0.6194 0.0
C334 C 0.27641 0.90526 0.60865 0.0
C335 C 0.09528 0.89068 0.73797 0.0
N336 N 0.11916 0.87159 0.74908 0.0
C337 C 0.08174 0.91397 0.75747 0.0
C338 C 0.09279 0.91762 0.78857 0.0
C339 C 0.11711 0.898 0.79976 0.0
C340 C 0.13012 0.87501 0.77955 0.0
C341 C 0.10389 0.77889 0.79174 0.0
C342 C 0.16045 0.78852 0.7592 0.0
C343 C 0.1067 0.80293 0.76891 0.0
N344 N 0.13474 0.8075 0.75297 0.0
C345 C 0.15852 0.76427 0.78186 0.0
C346 C 0.13002 0.75946 0.79821 0.0
C347 C 0.17985 0.81037 0.67061 0.0
C348 C 0.11138 0.89899 0.59567 0.0
C349 C 0.16724 0.86429 0.60046 0.0
C350 C 0.14964 0.86323 0.57223 0.0
C351 C 0.12152 0.88071 0.56989 0.0
N352 N 0.15715 0.88231 0.62561 0.0
C353 C 0.12962 0.89951 0.62351 0.0
Co354 Co 0.87054 0.33603 0.77627 0.0
Co355 Co 0.82437 0.38114 0.82765 0.0
O356 O 0.86458 0.37206 0.80555 0.0
C357 C 0.92444 0.32239 0.82173 0.0
O358 O 0.9047 0.32073 0.84596 0.0
C359 C 0.84561 0.44651 0.80373 0.0
O360 O 0.86778 0.43502 0.78497 0.0
O361 O 0.79973 0.37774 0.78688 0.0
O362 O 0.82773 0.34322 0.75726 0.0
H363 H 0.70881 0.36277 0.85329 0.0
H364 H 0.91955 0.38665 0.78069 0.0
O365 O 0.91403 0.32806 0.79386 0.0
H366 H 0.8859 0.3863 0.66817 0.0
H367 H 0.93255 0.26759 0.69951 0.0
H368 H 0.82959 0.28298 0.75392 0.0
H369 H 0.86238 0.34865 0.70652 0.0
H370 H 0.92467 0.31277 0.73612 0.0
O371 O 0.82871 0.42814 0.82095 0.0
H372 H 0.75988 0.35224 0.82629 0.0
H373 H 0.80317 0.42914 0.87588 0.0
H374 H 0.83631 0.23766 0.71726 0.0
H375 H 0.94435 0.42426 0.74304 0.0
H376 H 0.8881 0.22972 0.68973 0.0
H377 H 0.92741 0.42439 0.68634 0.0
O378 O 0.85123 0.30526 0.80726 0.0
H379 H 0.91671 0.41639 0.89536 0.0
H380 H 0.81581 0.35646 0.89402 0.0
H381 H 0.84704 0.35913 0.94361 0.0
H382 H 0.8979 0.38941 0.94454 0.0
H383 H 0.88487 0.41267 0.84622 0.0
H384 H 0.75246 0.44067 0.90319 0.0
H385 H 0.70485 0.40728 0.89206 0.0
O386 O 0.81735 0.33509 0.83559 0.0
C387 C 0.80306 0.36012 0.76225 0.0
C388 C 0.7294 0.37745 0.8584 0.0
C389 C 0.7539 0.42115 0.88642 0.0
N390 N 0.78459 0.38988 0.84965 0.0
C391 C 0.75842 0.37158 0.84322 0.0
C392 C 0.78255 0.41453 0.87084 0.0
C393 C 0.72719 0.40242 0.88015 0.0
C394 C 0.91215 0.3864 0.75602 0.0
N395 N 0.88921 0.3656 0.7459 0.0
C396 C 0.92623 0.40784 0.73483 0.0
C397 C 0.9167 0.40793 0.70304 0.0
C398 C 0.89336 0.38662 0.69285 0.0
C399 C 0.87985 0.36551 0.71474 0.0
C400 C 0.90987 0.27078 0.71136 0.0
C401 C 0.8522 0.27975 0.74202 0.0
C402 C 0.90532 0.29627 0.73225 0.0
N403 N 0.87669 0.3006 0.74715 0.0
C404 C 0.85586 0.254 0.7213 0.0
C405 C 0.88492 0.24955 0.70587 0.0
C406 C 0.82879 0.30825 0.82761 0.0
C407 C 0.89457 0.40316 0.89528 0.0
C408 C 0.83798 0.36934 0.8941 0.0
C409 C 0.85553 0.37096 0.92233 0.0
C410 C 0.88403 0.38798 0.92285 0.0
N411 N 0.84839 0.38434 0.86715 0.0
C412 C 0.87634 0.40105 0.86752 0.0
Co413 Co 0.63165 0.67449 0.29103 0.0
Co414 Co 0.68084 0.62011 0.32691 0.0
O415 O 0.63896 0.63351 0.31186 0.0
C416 C 0.57577 0.69921 0.32704 0.0
O417 O 0.59276 0.72485 0.33278 0.0
C418 C 0.68718 0.55592 0.29896 0.0
O419 O 0.71265 0.56712 0.28461 0.0
O420 O 0.699 0.62782 0.28356 0.0
O421 O 0.67439 0.67327 0.26978 0.0
H422 H 0.79994 0.62826 0.33676 0.0
H423 H 0.58392 0.62272 0.28441 0.0
O424 O 0.58837 0.67604 0.3119 0.0
H425 H 0.61776 0.64805 0.1748 0.0
H426 H 0.56565 0.75532 0.23155 0.0
H427 H 0.67012 0.73277 0.28015 0.0
H428 H 0.64038 0.67723 0.22049 0.0
H429 H 0.57594 0.7036 0.2574 0.0
O430 O 0.66992 0.57473 0.31546 0.0
H431 H 0.74653 0.64478 0.31879 0.0
H432 H 0.70487 0.56581 0.36644 0.0
H433 H 0.66094 0.78473 0.25456 0.0
H434 H 0.5604 0.59322 0.23936 0.0
H435 H 0.60833 0.79632 0.23002 0.0
H436 H 0.57735 0.60581 0.18408 0.0
O437 O 0.65168 0.69732 0.32776 0.0
H438 H 0.59823 0.57974 0.40355 0.0
H439 H 0.69991 0.63763 0.39335 0.0
H440 H 0.67642 0.62979 0.44658 0.0
H441 H 0.62527 0.60045 0.45196 0.0
H442 H 0.62237 0.58864 0.35074 0.0
H443 H 0.75789 0.54836 0.38482 0.0
H444 H 0.80588 0.57973 0.37004 0.0
O445 O 0.69248 0.66479 0.33903 0.0
C446 C 0.69655 0.65277 0.2664 0.0
C447 C 0.77921 0.61441 0.34339 0.0
C448 C 0.7556 0.56958 0.37038 0.0
N449 N 0.72256 0.60639 0.34167 0.0
C450 C 0.74889 0.62365 0.33329 0.0
C451 C 0.72565 0.57959 0.3599 0.0
C452 C 0.78252 0.58718 0.36207 0.0
C453 C 0.59121 0.62854 0.26041 0.0
N454 N 0.61327 0.65188 0.2551 0.0
C455 C 0.5779 0.61166 0.235 0.0
C456 C 0.58745 0.61871 0.20399 0.0
C457 C 0.61013 0.64239 0.19877 0.0
C458 C 0.62292 0.65878 0.22476 0.0
C459 C 0.58866 0.75057 0.24218 0.0
C460 C 0.64721 0.73759 0.26955 0.0
C461 C 0.59462 0.72135 0.25689 0.0
N462 N 0.62361 0.71518 0.27042 0.0
C463 C 0.64213 0.76708 0.25507 0.0
C464 C 0.61261 0.77356 0.24132 0.0
C465 C 0.67873 0.69183 0.34071 0.0
C466 C 0.62057 0.59249 0.40154 0.0
C467 C 0.67755 0.62515 0.39544 0.0
C468 C 0.66441 0.62063 0.42567 0.0
C469 C 0.63573 0.60415 0.42868 0.0
N470 N 0.66266 0.61347 0.36894 0.0
C471 C 0.63442 0.59749 0.3717 0.0
Co472 Co 0.22891 0.36115 0.17063 0.0
Co473 Co 0.18297 0.31287 0.1226 0.0
O474 O 0.2003 0.3548 0.1341 0.0
C475 C 0.18268 0.4164 0.17578 0.0
O476 O 0.1597 0.40017 0.16214 0.0
C477 C 0.21147 0.3319 0.06044 0.0
O478 O 0.23827 0.33791 0.07544 0.0
O479 O 0.22638 0.29339 0.12269 0.0
O480 O 0.25008 0.31931 0.1628 0.0
H481 H 0.17128 0.19411 0.13211 0.0
H482 H 0.22301 0.40973 0.1199 0.0
O483 O 0.20985 0.40379 0.18039 0.0
H484 H 0.33696 0.38139 0.12186 0.0
H485 H 0.30245 0.42401 0.24189 0.0
H486 H 0.25133 0.3199 0.22337 0.0
H487 H 0.29934 0.35683 0.15962 0.0
H488 H 0.26682 0.41602 0.19586 0.0
O489 O 0.18705 0.32305 0.07612 0.0
H490 H 0.19226 0.247 0.1465 0.0
H491 H 0.13672 0.2899 0.07361 0.0
H492 H 0.287 0.32678 0.2695 0.0
H493 H 0.2598 0.43528 0.08194 0.0
H494 H 0.31289 0.37914 0.27899 0.0
H495 H 0.31723 0.42103 0.08264 0.0
O496 O 0.19776 0.33982 0.19983 0.0
H497 H 0.10074 0.39488 0.09389 0.0
H498 H 0.1209 0.29516 0.15253 0.0
H499 H 0.06724 0.31902 0.15375 0.0
H500 H 0.05686 0.36919 0.12419 0.0
H501 H 0.15417 0.37039 0.09363 0.0
H502 H 0.1153 0.23739 0.05827 0.0
H503 H 0.13251 0.18904 0.08766 0.0
O504 O 0.17832 0.30112 0.1683 0.0
C505 C 0.2489 0.29644 0.14293 0.0
C506 C 0.16354 0.21501 0.11915 0.0
C507 C 0.13216 0.2393 0.07769 0.0
N508 N 0.16567 0.27157 0.111 0.0
C509 C 0.17529 0.24506 0.12725 0.0
C510 C 0.14444 0.26896 0.08643 0.0
C511 C 0.14181 0.21218 0.0942 0.0
C512 C 0.24798 0.40354 0.12054 0.0
N513 N 0.25897 0.38164 0.14196 0.0
C514 C 0.2687 0.41804 0.0989 0.0
C515 C 0.3009 0.41001 0.09928 0.0
C516 C 0.31197 0.38774 0.12124 0.0
C517 C 0.29053 0.37372 0.14248 0.0
C518 C 0.29136 0.40107 0.23797 0.0
C519 C 0.26254 0.34274 0.22726 0.0
C520 C 0.27109 0.39642 0.21198 0.0
N521 N 0.25716 0.36744 0.20675 0.0
C522 C 0.2827 0.3465 0.25347 0.0
C523 C 0.29721 0.37588 0.25878 0.0
C524 C 0.18241 0.3139 0.19547 0.0
C525 C 0.10494 0.37296 0.10678 0.0
C526 C 0.11664 0.3171 0.13977 0.0
C527 C 0.08616 0.33044 0.14045 0.0
C528 C 0.08035 0.35857 0.12384 0.0
N529 N 0.14063 0.33136 0.12297 0.0
C530 C 0.1351 0.35892 0.1066 0.0
Co531 Co 0.72793 0.13576 0.82596 0.0
Co532 Co 0.68148 0.17987 0.87781 0.0
O533 O 0.70153 0.13984 0.86444 0.0
C534 C 0.68039 0.08344 0.81987 0.0
O535 O 0.65831 0.10256 0.83095 0.0
C536 C 0.70401 0.18698 0.94424 0.0
O537 O 0.71571 0.21435 0.93476 0.0
O538 O 0.72326 0.20253 0.87426 0.0
O539 O 0.74825 0.17785 0.83409 0.0
H540 H 0.66035 0.29747 0.87167 0.0
H541 H 0.72761 0.08413 0.87405 0.0
O542 O 0.7089 0.0931 0.81645 0.0
H543 H 0.83964 0.11893 0.86654 0.0
H544 H 0.79663 0.07685 0.74714 0.0
H545 H 0.74723 0.17983 0.77422 0.0
H546 H 0.79824 0.14415 0.83339 0.0
H547 H 0.76424 0.0825 0.79583 0.0
O548 O 0.69039 0.16875 0.92399 0.0
H549 H 0.68448 0.24661 0.85509 0.0
H550 H 0.63579 0.19818 0.92943 0.0
H551 H 0.77962 0.17529 0.72546 0.0
H552 H 0.76832 0.05801 0.90742 0.0
H553 H 0.80456 0.12349 0.71161 0.0
H554 H 0.82479 0.07544 0.90381 0.0
O555 O 0.69458 0.15669 0.79942 0.0
H556 H 0.60935 0.0904 0.91136 0.0
H557 H 0.61579 0.19221 0.8532 0.0
H558 H 0.56457 0.16352 0.8557 0.0
H559 H 0.56109 0.11227 0.88504 0.0
H560 H 0.66022 0.11963 0.90786 0.0
H561 H 0.61116 0.24856 0.94685 0.0
H562 H 0.62342 0.29868 0.9179 0.0
O563 O 0.67183 0.19177 0.83258 0.0
C564 C 0.74599 0.20048 0.85413 0.0
C565 C 0.65479 0.27579 0.88446 0.0
C566 C 0.6272 0.24834 0.92667 0.0
N567 N 0.66157 0.21944 0.89126 0.0
C568 C 0.66836 0.2469 0.87517 0.0
C569 C 0.64122 0.21989 0.91669 0.0
C570 C 0.63409 0.27645 0.91041 0.0
C571 C 0.75217 0.09171 0.87221 0.0
N572 N 0.76055 0.11554 0.8517 0.0
C573 C 0.7751 0.0769 0.89123 0.0
C574 C 0.80677 0.08671 0.88921 0.0
C575 C 0.81511 0.11112 0.86832 0.0
C576 C 0.79154 0.12538 0.84968 0.0
C577 C 0.7859 0.09955 0.75293 0.0
C578 C 0.75818 0.15726 0.7685 0.0
C579 C 0.76746 0.10287 0.78043 0.0
N580 N 0.75394 0.1315 0.78796 0.0
C581 C 0.77642 0.15481 0.74079 0.0
C582 C 0.79037 0.12573 0.73302 0.0
C583 C 0.67647 0.1805 0.80474 0.0
C584 C 0.61054 0.11277 0.89861 0.0
C585 C 0.61454 0.16984 0.86584 0.0
C586 C 0.58543 0.15375 0.86728 0.0
C587 C 0.58349 0.12502 0.88378 0.0
N588 N 0.64097 0.15769 0.88051 0.0
C589 C 0.63924 0.12952 0.89669 0.0
Co590 Co 0.77339 0.86581 0.34063 0.0
Co591 Co 0.82818 0.82236 0.38386 0.0
O592 O 0.80482 0.86163 0.37474 0.0
C593 C 0.81863 0.91868 0.32602 0.0
O594 O 0.84214 0.89829 0.32906 0.0
C595 C 0.7992 0.83387 0.44782 0.0
O596 O 0.77082 0.83207 0.43478 0.0
O597 O 0.78787 0.79665 0.38402 0.0
O598 O 0.75579 0.82278 0.35016 0.0
H599 H 0.85807 0.7075 0.36848 0.0
H600 H 0.7792 0.91598 0.38985 0.0
O601 O 0.78996 0.90945 0.33018 0.0
H602 H 0.66844 0.87746 0.39778 0.0
H603 H 0.69064 0.92332 0.27541 0.0
H604 H 0.7496 0.82287 0.2899 0.0
H605 H 0.70509 0.85502 0.35777 0.0
H606 H 0.72966 0.91757 0.319 0.0
O607 O 0.82415 0.8309 0.4308 0.0
H608 H 0.82895 0.75705 0.35676 0.0
H609 H 0.8777 0.80454 0.4317 0.0
H610 H 0.71055 0.82737 0.24628 0.0
H611 H 0.74325 0.93938 0.43 0.0
H612 H 0.68078 0.87792 0.23875 0.0
H613 H 0.68745 0.92006 0.43419 0.0
O614 O 0.80322 0.84671 0.30898 0.0
H615 H 0.89775 0.91583 0.41132 0.0
H616 H 0.89166 0.81415 0.35288 0.0
H617 H 0.94113 0.84582 0.35075 0.0
H618 H 0.94442 0.89703 0.38018 0.0
H619 H 0.84864 0.88355 0.41255 0.0
H620 H 0.9071 0.75536 0.44447 0.0
H621 H 0.89743 0.7064 0.41268 0.0
O622 O 0.83329 0.81312 0.33752 0.0
C623 C 0.76219 0.79889 0.36775 0.0
C624 C 0.86253 0.72868 0.38249 0.0
C625 C 0.88999 0.75553 0.42517 0.0
N626 N 0.8516 0.7837 0.3935 0.0
C627 C 0.84617 0.75686 0.37591 0.0
C628 C 0.87317 0.78328 0.4179 0.0
C629 C 0.88458 0.72807 0.40731 0.0
C630 C 0.75489 0.90759 0.3914 0.0
N631 N 0.74424 0.88418 0.37144 0.0
C632 C 0.73467 0.92087 0.41424 0.0
C633 C 0.70338 0.90999 0.4166 0.0
C634 C 0.6927 0.88607 0.3962 0.0
C635 C 0.71361 0.87334 0.37368 0.0
C636 C 0.70354 0.90121 0.27837 0.0
C637 C 0.73671 0.84494 0.28684 0.0
C638 C 0.72582 0.89793 0.30287 0.0
N639 N 0.74212 0.87007 0.30682 0.0
C640 C 0.71464 0.84734 0.26206 0.0
C641 C 0.69798 0.87571 0.25784 0.0
C642 C 0.8239 0.82455 0.31102 0.0
C643 C 0.89666 0.8935 0.39849 0.0
C644 C 0.89288 0.83643 0.3657 0.0
C645 C 0.92098 0.85424 0.36445 0.0
C646 C 0.92281 0.88296 0.38098 0.0
N647 N 0.86737 0.84688 0.38303 0.0
C648 C 0.86896 0.87505 0.39921 0.0
Co649 Co 0.28203 0.63662 0.66795 0.0
Co650 Co 0.32796 0.68775 0.6226 0.0
O651 O 0.3114 0.64495 0.63221 0.0
C652 C 0.32977 0.58214 0.67193 0.0
O653 O 0.35131 0.59759 0.65536 0.0
C654 C 0.30391 0.66686 0.55853 0.0
O655 O 0.27942 0.65259 0.57175 0.0
O656 O 0.284 0.70592 0.62216 0.0
O657 O 0.25949 0.67793 0.66037 0.0
H658 H 0.33515 0.80637 0.63692 0.0
H659 H 0.29069 0.58811 0.61738 0.0
O660 O 0.30279 0.5947 0.67786 0.0
H661 H 0.17621 0.61426 0.61567 0.0
H662 H 0.20932 0.56876 0.73529 0.0
H663 H 0.2563 0.6754 0.72115 0.0
H664 H 0.21224 0.64016 0.65412 0.0
H665 H 0.24582 0.5796 0.69057 0.0
O666 O 0.32525 0.68003 0.57561 0.0
H667 H 0.31522 0.75234 0.64824 0.0
H668 H 0.37613 0.71398 0.57712 0.0
H669 H 0.21974 0.66571 0.76603 0.0
H670 H 0.25547 0.56122 0.57883 0.0
H671 H 0.19592 0.61203 0.77332 0.0
H672 H 0.19777 0.57434 0.57772 0.0
O673 O 0.31125 0.65842 0.69864 0.0
H674 H 0.41304 0.60948 0.59194 0.0
H675 H 0.38882 0.70539 0.65519 0.0
H676 H 0.44301 0.68282 0.65662 0.0
H677 H 0.45545 0.63458 0.62473 0.0
H678 H 0.359 0.63258 0.59158 0.0
H679 H 0.39668 0.76766 0.56498 0.0
H680 H 0.37617 0.81432 0.59499 0.0
O681 O 0.33138 0.69782 0.6686 0.0
C682 C 0.26085 0.70161 0.64144 0.0
C683 C 0.34429 0.78623 0.62367 0.0
C684 C 0.37882 0.7645 0.58332 0.0
N685 N 0.34446 0.72998 0.61334 0.0
C686 C 0.3331 0.75555 0.62998 0.0
C687 C 0.36707 0.73416 0.59027 0.0
C688 C 0.3673 0.79067 0.60015 0.0
C689 C 0.26558 0.59371 0.6173 0.0
N690 N 0.25354 0.61563 0.63812 0.0
C691 C 0.24577 0.57851 0.5953 0.0
C692 C 0.21341 0.58592 0.59465 0.0
C693 C 0.20131 0.60834 0.6159 0.0
C694 C 0.22185 0.62307 0.63755 0.0
C695 C 0.21948 0.59227 0.73232 0.0
C696 C 0.24599 0.65204 0.72407 0.0
C697 C 0.24021 0.59855 0.70706 0.0
N698 N 0.253 0.62824 0.70303 0.0
C699 C 0.22532 0.64666 0.74958 0.0
C700 C 0.21197 0.61655 0.75366 0.0
C701 C 0.32665 0.68441 0.69527 0.0
C702 C 0.40794 0.63056 0.60586 0.0
C703 C 0.39395 0.68424 0.64146 0.0
C704 C 0.42473 0.67166 0.64225 0.0
C705 C 0.43171 0.64462 0.62432 0.0
N706 N 0.37077 0.67032 0.62327 0.0
C707 C 0.37743 0.64383 0.60563 0.0
Co708 Co 0.82671 0.77763 0.63725 0.0
Co709 Co 0.88097 0.82448 0.67829 0.0
O710 O 0.86589 0.80317 0.63951 0.0
C711 C 0.82002 0.8242 0.58402 0.0
O712 O 0.83219 0.84635 0.60242 0.0
C713 C 0.94661 0.80009 0.68538 0.0
O714 O 0.93711 0.78978 0.71332 0.0
O715 O 0.87625 0.78408 0.70322 0.0
O716 O 0.83605 0.75807 0.67947 0.0
H717 H 0.87823 0.8521 0.79478 0.0
H718 H 0.87297 0.77607 0.58394 0.0
O719 O 0.81606 0.79604 0.59445 0.0
H720 H 0.86451 0.66499 0.62105 0.0
H721 H 0.74468 0.70907 0.58254 0.0
H722 H 0.7762 0.76018 0.6835 0.0
H723 H 0.83305 0.70744 0.64663 0.0
H724 H 0.79402 0.74087 0.58577 0.0
O725 O 0.92647 0.81329 0.66675 0.0
H726 H 0.85976 0.82578 0.74565 0.0
H727 H 0.9347 0.86908 0.69314 0.0
H728 H 0.72684 0.72838 0.68139 0.0
H729 H 0.90463 0.7343 0.55743 0.0
H730 H 0.71078 0.70256 0.63062 0.0
H731 H 0.90053 0.6783 0.57602 0.0
O732 O 0.80144 0.81175 0.65865 0.0
H733 H 0.91549 0.89013 0.58434 0.0
H734 H 0.85987 0.89185 0.68772 0.0
H735 H 0.86386 0.94123 0.65627 0.0
H736 H 0.89196 0.9406 0.6042 0.0
H737 H 0.91033 0.84114 0.6163 0.0
H738 H 0.95405 0.89581 0.74176 0.0
H739 H 0.92573 0.88741 0.79304 0.0
O740 O 0.83649 0.83625 0.69071 0.0
C741 C 0.8561 0.76128 0.70203 0.0
C742 C 0.89078 0.85596 0.77258 0.0
C743 C 0.93332 0.88049 0.74282 0.0
N744 N 0.89611 0.84585 0.71653 0.0
C745 C 0.88043 0.84112 0.74467 0.0
C746 C 0.92225 0.86528 0.71537 0.0
C747 C 0.91743 0.87576 0.77159 0.0
C748 C 0.87092 0.75173 0.59203 0.0
N749 N 0.85108 0.74419 0.61672 0.0
C750 C 0.88897 0.72819 0.57699 0.0
C751 C 0.88668 0.69678 0.58745 0.0
C752 C 0.86649 0.6893 0.61273 0.0
C753 C 0.84881 0.71346 0.6272 0.0
C754 C 0.75144 0.72018 0.6048 0.0
C755 C 0.76948 0.7489 0.66135 0.0
C756 C 0.77931 0.7383 0.60675 0.0
N757 N 0.78807 0.75228 0.63483 0.0
C758 C 0.74145 0.73098 0.66029 0.0
C759 C 0.73244 0.71653 0.63179 0.0
C760 C 0.80808 0.83104 0.68124 0.0
C761 C 0.90323 0.89072 0.60702 0.0
C762 C 0.8718 0.89128 0.66498 0.0
C763 C 0.87416 0.91938 0.64733 0.0
C764 C 0.88998 0.91902 0.61815 0.0
N765 N 0.88484 0.86361 0.65392 0.0
C766 C 0.90037 0.86309 0.62531 0.0
Co767 Co 0.67316 0.22633 0.13708 0.0
Co768 Co 0.62926 0.17683 0.18613 0.0
O769 O 0.6386 0.19531 0.1441 0.0
C770 C 0.67794 0.18161 0.07993 0.0
O771 O 0.66097 0.15937 0.09385 0.0
C772 C 0.56451 0.20186 0.17007 0.0
O773 O 0.57742 0.22991 0.16499 0.0
O774 O 0.62753 0.21987 0.20611 0.0
O775 O 0.66505 0.24661 0.1793 0.0
H776 H 0.64341 0.16472 0.30443 0.0
H777 H 0.62234 0.21834 0.08853 0.0
O778 O 0.6836 0.20786 0.09408 0.0
H779 H 0.61687 0.33097 0.12114 0.0
H780 H 0.73751 0.30406 0.07198 0.0
H781 H 0.72525 0.25298 0.17691 0.0
H782 H 0.65692 0.29507 0.14468 0.0
H783 H 0.69411 0.26567 0.08157 0.0
O784 O 0.58212 0.1783 0.17745 0.0
H785 H 0.65485 0.18687 0.25129 0.0
H786 H 0.58377 0.12761 0.21021 0.0
H787 H 0.76876 0.2915 0.16856 0.0
H788 H 0.58214 0.25349 0.06413 0.0
H789 H 0.77516 0.31732 0.1157 0.0
H790 H 0.57919 0.31025 0.08046 0.0
O791 O 0.70489 0.19736 0.15771 0.0
H792 H 0.60143 0.0935 0.10487 0.0
H793 H 0.66344 0.11657 0.20198 0.0
H794 H 0.66638 0.06315 0.17782 0.0
H795 H 0.63511 0.05128 0.12898 0.0
H796 H 0.59961 0.14679 0.12953 0.0
H797 H 0.57136 0.10502 0.26299 0.0
H798 H 0.60136 0.12351 0.31056 0.0
O799 O 0.67558 0.17461 0.19642 0.0
C800 C 0.64616 0.24367 0.20285 0.0
C801 C 0.63021 0.15642 0.28388 0.0
C802 C 0.58973 0.12297 0.26063 0.0
N803 N 0.62002 0.15854 0.22761 0.0
C804 C 0.63663 0.16882 0.25368 0.0
C805 C 0.59679 0.13593 0.2308 0.0
C806 C 0.60659 0.13333 0.2873 0.0
C807 C 0.62146 0.24307 0.09551 0.0
N808 N 0.64221 0.25469 0.11773 0.0
C809 C 0.59853 0.26284 0.08172 0.0
C810 C 0.59685 0.29467 0.09093 0.0
C811 C 0.61798 0.30631 0.11376 0.0
C812 C 0.64057 0.28584 0.12704 0.0
C813 C 0.73497 0.293 0.09513 0.0
C814 C 0.72778 0.26417 0.15396 0.0
C815 C 0.71048 0.27115 0.10069 0.0
N816 N 0.70708 0.25706 0.12987 0.0
C817 C 0.7525 0.28595 0.14931 0.0
C818 C 0.75608 0.30042 0.11966 0.0
C819 C 0.70213 0.18106 0.18328 0.0
C820 C 0.61512 0.09836 0.12618 0.0
C821 C 0.65001 0.1117 0.18056 0.0
C822 C 0.65165 0.08135 0.16707 0.0
C823 C 0.63406 0.0747 0.13969 0.0
N824 N 0.63136 0.13478 0.16716 0.0
C825 C 0.61407 0.12844 0.14032 0.0
Co826 Co 0.33012 0.72344 0.36484 0.0
Co827 Co 0.3745 0.67021 0.32097 0.0
O828 O 0.36495 0.69274 0.36061 0.0
C829 C 0.31721 0.68051 0.4207 0.0
O830 O 0.31608 0.65562 0.40179 0.0
C831 C 0.43674 0.69996 0.33685 0.0
O832 O 0.42104 0.72656 0.34164 0.0
O833 O 0.37469 0.71086 0.29642 0.0
O834 O 0.33762 0.74019 0.3211 0.0
H835 H 0.35993 0.64383 0.20509 0.0
H836 H 0.38148 0.72061 0.41327 0.0
O837 O 0.322 0.70817 0.40926 0.0
H838 H 0.38453 0.83023 0.37135 0.0
H839 H 0.2636 0.80411 0.42367 0.0
H840 H 0.27827 0.74626 0.32254 0.0
H841 H 0.34469 0.79182 0.3516 0.0
H842 H 0.30778 0.766 0.4173 0.0
O843 O 0.42156 0.67482 0.32909 0.0
H844 H 0.34789 0.67142 0.25549 0.0
H845 H 0.4222 0.62102 0.3021 0.0
H846 H 0.23398 0.78439 0.32776 0.0
H847 H 0.4215 0.75835 0.43393 0.0
H848 H 0.22636 0.8136 0.37865 0.0
H849 H 0.4233 0.81357 0.41283 0.0
O850 O 0.2988 0.69216 0.34718 0.0
H851 H 0.40284 0.59903 0.41281 0.0
H852 H 0.3438 0.6068 0.31153 0.0
H853 H 0.34208 0.55673 0.34219 0.0
H854 H 0.37181 0.55261 0.39319 0.0
H855 H 0.40373 0.64873 0.38146 0.0
H856 H 0.43528 0.5931 0.25208 0.0
H857 H 0.40397 0.60438 0.20314 0.0
O858 O 0.32804 0.66503 0.31162 0.0
C859 C 0.35647 0.73513 0.2979 0.0
C860 C 0.37371 0.63864 0.22627 0.0
C861 C 0.41603 0.61022 0.25263 0.0
N862 N 0.38425 0.64777 0.28175 0.0
C863 C 0.36693 0.65412 0.25492 0.0
C864 C 0.40859 0.62618 0.28086 0.0
C865 C 0.39844 0.61655 0.22519 0.0
C866 C 0.38188 0.7447 0.40421 0.0
N867 N 0.36063 0.75403 0.38138 0.0
C868 C 0.40469 0.76592 0.41592 0.0
C869 C 0.4057 0.79689 0.40404 0.0
C870 C 0.38397 0.80624 0.38074 0.0
C871 C 0.3615 0.78436 0.3696 0.0
C872 C 0.26663 0.7915 0.4014 0.0
C873 C 0.27524 0.75896 0.34472 0.0
C874 C 0.29153 0.76976 0.3977 0.0
N875 N 0.29559 0.75382 0.36961 0.0
C876 C 0.25006 0.78049 0.34755 0.0
C877 C 0.24577 0.79684 0.37612 0.0
C878 C 0.30128 0.6729 0.32372 0.0
C879 C 0.38986 0.60051 0.39058 0.0
C880 C 0.35672 0.60522 0.33374 0.0
C881 C 0.35571 0.57678 0.35097 0.0
C882 C 0.37241 0.57448 0.37958 0.0
N883 N 0.37398 0.63059 0.34464 0.0
C884 C 0.39036 0.62854 0.37269 0.0
Co885 Co 0.16822 0.28208 0.86991 0.0
Co886 Co 0.12571 0.3339 0.82168 0.0
O887 O 0.13364 0.31259 0.86236 0.0
C888 C 0.20345 0.31327 0.92299 0.0
O889 O 0.22918 0.31113 0.90533 0.0
C890 C 0.06143 0.30629 0.8389 0.0
O891 O 0.0742 0.28355 0.85608 0.0
O892 O 0.12947 0.29272 0.79819 0.0
O893 O 0.15985 0.26057 0.82826 0.0
H894 H 0.14779 0.35724 0.7064 0.0
H895 H 0.1189 0.29116 0.91981 0.0
O896 O 0.17677 0.30357 0.91197 0.0
H897 H 0.11143 0.17812 0.88897 0.0
H898 H 0.23232 0.20589 0.93698 0.0
H899 H 0.21994 0.25428 0.83068 0.0
H900 H 0.15098 0.21341 0.86363 0.0
H901 H 0.1892 0.2444 0.92658 0.0
O902 O 0.07871 0.32724 0.82544 0.0
H903 H 0.15692 0.33166 0.75842 0.0
H904 H 0.0777 0.38088 0.7977 0.0
H905 H 0.26329 0.21581 0.83999 0.0
H906 H 0.07938 0.25657 0.94613 0.0
H907 H 0.26972 0.19134 0.89349 0.0
H908 H 0.07537 0.19963 0.93065 0.0
O909 O 0.20012 0.31022 0.84835 0.0
H910 H 0.08729 0.40337 0.91116 0.0
H911 H 0.1497 0.40036 0.81187 0.0
H912 H 0.14561 0.45068 0.84172 0.0
H913 H 0.11407 0.45244 0.89176 0.0
H914 H 0.09251 0.35346 0.88069 0.0
H915 H 0.06748 0.40669 0.74594 0.0
H916 H 0.10274 0.39503 0.69986 0.0
O917 O 0.17199 0.3418 0.81583 0.0
C918 C 0.14433 0.26658 0.80281 0.0
C919 C 0.1323 0.3626 0.72631 0.0
C920 C 0.08723 0.39034 0.7485 0.0
N921 N 0.11801 0.35492 0.78118 0.0
C922 C 0.13741 0.34827 0.75588 0.0
C923 C 0.0931 0.37559 0.77774 0.0
C924 C 0.10701 0.38378 0.72266 0.0
C925 C 0.1176 0.26632 0.91322 0.0
N926 N 0.13739 0.25431 0.89034 0.0
C927 C 0.09504 0.24689 0.92808 0.0
C928 C 0.09276 0.21496 0.91934 0.0
C929 C 0.11296 0.20289 0.89593 0.0
C930 C 0.13523 0.22303 0.88157 0.0
C931 C 0.22978 0.2164 0.91358 0.0
C932 C 0.22256 0.24374 0.85402 0.0
C933 C 0.20544 0.23825 0.90756 0.0
N934 N 0.2021 0.25165 0.87807 0.0
C935 C 0.24717 0.22197 0.85915 0.0
C936 C 0.25076 0.20825 0.88916 0.0
C937 C 0.1983 0.33172 0.82694 0.0
C938 C 0.10119 0.4029 0.88945 0.0
C939 C 0.1365 0.40078 0.83383 0.0
C940 C 0.13399 0.42943 0.85054 0.0
C941 C 0.11624 0.43041 0.87857 0.0
N942 N 0.12178 0.37386 0.84466 0.0
C943 C 0.10423 0.37469 0.87207 0.0
Co944 Co 0.63989 0.83942 0.78845 0.0
Co945 Co 0.68946 0.88507 0.8351 0.0
O946 O 0.64781 0.87514 0.81698 0.0
C947 C 0.58504 0.80729 0.81995 0.0
O948 O 0.60158 0.78079 0.8188 0.0
C949 C 0.67298 0.947 0.80481 0.0
O950 O 0.67129 0.93244 0.77719 0.0
O951 O 0.70995 0.88333 0.79209 0.0
O952 O 0.68185 0.84553 0.76681 0.0
H953 H 0.80747 0.87168 0.85057 0.0
H954 H 0.59263 0.89152 0.79424 0.0
O955 O 0.59733 0.83318 0.80975 0.0
H956 H 0.6226 0.88939 0.6807 0.0
H957 H 0.57276 0.77185 0.71513 0.0
H958 H 0.67846 0.78533 0.76469 0.0
H959 H 0.64619 0.85118 0.71852 0.0
H960 H 0.5834 0.81719 0.75097 0.0
O961 O 0.68009 0.93161 0.82995 0.0
H962 H 0.75461 0.85836 0.82868 0.0
H963 H 0.71298 0.93499 0.87993 0.0
H964 H 0.66889 0.73974 0.72895 0.0
H965 H 0.56814 0.92991 0.75718 0.0
H966 H 0.61569 0.73274 0.70393 0.0
H967 H 0.58316 0.92904 0.69995 0.0
O968 O 0.66052 0.80958 0.81922 0.0
H969 H 0.60495 0.91555 0.91421 0.0
H970 H 0.70588 0.85756 0.89854 0.0
H971 H 0.68086 0.8582 0.9517 0.0
H972 H 0.63009 0.88748 0.95983 0.0
H973 H 0.63063 0.914 0.86139 0.0
H974 H 0.76548 0.94931 0.90218 0.0
H975 H 0.81317 0.91749 0.88759 0.0
O976 O 0.6994 0.83899 0.84117 0.0
C977 C 0.70584 0.8641 0.76883 0.0
C978 C 0.78686 0.88568 0.8572 0.0
C979 C 0.7633 0.92928 0.88609 0.0
N980 N 0.73069 0.89578 0.85311 0.0
C981 C 0.75683 0.87819 0.84495 0.0
C982 C 0.73364 0.92112 0.87334 0.0
C983 C 0.79004 0.9114 0.87792 0.0
C984 C 0.59901 0.89074 0.76932 0.0
N985 N 0.62055 0.86888 0.75853 0.0
C986 C 0.58519 0.91265 0.74847 0.0
C987 C 0.59367 0.91219 0.71638 0.0
C988 C 0.6158 0.88996 0.70557 0.0
C989 C 0.62914 0.86842 0.72712 0.0
C990 C 0.59602 0.77462 0.72592 0.0
C991 C 0.65525 0.78248 0.75387 0.0
C992 C 0.60217 0.80021 0.74627 0.0
N993 N 0.63148 0.80383 0.76004 0.0
C994 C 0.64998 0.75661 0.73365 0.0
C995 C 0.62012 0.75269 0.71964 0.0
C996 C 0.68582 0.81233 0.83598 0.0
C997 C 0.62714 0.90282 0.91101 0.0
C998 C 0.68375 0.87027 0.90187 0.0
C999 C 0.66972 0.8706 0.93204 0.0
C1000 C 0.64124 0.88704 0.93658 0.0
N1001 N 0.66989 0.88602 0.87696 0.0
C1002 C 0.64185 0.90197 0.88118 0.0
Co1003 Co 0.86926 0.16925 0.29616 0.0
Co1004 Co 0.81603 0.1182 0.33218 0.0
O1005 O 0.85941 0.12924 0.31856 0.0
C1006 C 0.92457 0.19526 0.33207 0.0
O1007 O 0.90809 0.2217 0.33487 0.0
C1008 C 0.84402 0.05428 0.31071 0.0
O1009 O 0.87177 0.06617 0.30257 0.0
O1010 O 0.79987 0.12508 0.28801 0.0
O1011 O 0.82742 0.16847 0.2732 0.0
H1012 H 0.69746 0.13446 0.33671 0.0
H1013 H 0.91659 0.1169 0.29404 0.0
O1014 O 0.91181 0.17098 0.31879 0.0
H1015 H 0.88636 0.13586 0.18214 0.0
H1016 H 0.9397 0.24469 0.23446 0.0
H1017 H 0.83329 0.2282 0.28135 0.0
H1018 H 0.86271 0.16789 0.22526 0.0
H1019 H 0.92691 0.19476 0.26262 0.0
O1020 O 0.82214 0.07196 0.32202 0.0
H1021 H 0.75269 0.14766 0.32172 0.0
H1022 H 0.78643 0.06523 0.36971 0.0
H1023 H 0.84504 0.27845 0.25345 0.0
H1024 H 0.94122 0.08466 0.2516 0.0
H1025 H 0.89862 0.28698 0.22976 0.0
H1026 H 0.92605 0.09398 0.19517 0.0
O1027 O 0.8487 0.19459 0.33087 0.0
H1028 H 0.89447 0.07877 0.41397 0.0
H1029 H 0.79321 0.13553 0.39733 0.0
H1030 H 0.81346 0.12825 0.45186 0.0
H1031 H 0.86441 0.09947 0.46052 0.0
H1032 H 0.87355 0.08708 0.35991 0.0
H1033 H 0.73148 0.05094 0.38486 0.0
H1034 H 0.68655 0.08577 0.36849 0.0
O1035 O 0.80696 0.16363 0.34301 0.0
C1036 C 0.80439 0.14896 0.26981 0.0
C1037 C 0.71684 0.11915 0.34409 0.0
C1038 C 0.73594 0.07228 0.37111 0.0
N1039 N 0.77286 0.10745 0.34511 0.0
C1040 C 0.74821 0.12655 0.33576 0.0
C1041 C 0.76701 0.08047 0.36239 0.0
C1042 C 0.71074 0.09182 0.36191 0.0
C1043 C 0.9101 0.12133 0.26953 0.0
N1044 N 0.88835 0.14437 0.26218 0.0
C1045 C 0.92402 0.10289 0.2456 0.0
C1046 C 0.91546 0.1081 0.21396 0.0
C1047 C 0.89317 0.13157 0.20663 0.0
C1048 C 0.87975 0.14954 0.23119 0.0
C1049 C 0.91628 0.24128 0.24471 0.0
C1050 C 0.85665 0.23171 0.27118 0.0
C1051 C 0.9089 0.21305 0.2607 0.0
N1052 N 0.87939 0.20859 0.27381 0.0
C1053 C 0.86317 0.26023 0.25537 0.0
C1054 C 0.89322 0.26499 0.24208 0.0
C1055 C 0.82147 0.19027 0.34385 0.0
C1056 C 0.87215 0.09121 0.41054 0.0
C1057 C 0.81543 0.12323 0.40079 0.0
C1058 C 0.82676 0.11904 0.43179 0.0
C1059 C 0.85532 0.10288 0.43664 0.0
N1060 N 0.83189 0.11151 0.37526 0.0
C1061 C 0.86005 0.09585 0.37988 0.0
Co1062 Co 0.12867 0.66763 0.21802 0.0
Co1063 Co 0.1793 0.61932 0.17489 0.0
O1064 O 0.13734 0.63051 0.19135 0.0
C1065 C 0.0757 0.69909 0.18269 0.0
O1066 O 0.0928 0.7253 0.18312 0.0
C1067 C 0.18663 0.55306 0.19778 0.0
O1068 O 0.21247 0.5632 0.21224 0.0
O1069 O 0.19836 0.62362 0.21836 0.0
O1070 O 0.16954 0.66187 0.24203 0.0
H1071 H 0.2979 0.63137 0.16314 0.0
H1072 H 0.08139 0.61552 0.21157 0.0
O1073 O 0.08719 0.6735 0.19444 0.0
H1074 H 0.1036 0.62291 0.32665 0.0
H1075 H 0.05897 0.73875 0.28521 0.0
H1076 H 0.16686 0.72203 0.24187 0.0
H1077 H 0.13013 0.65902 0.28875 0.0
H1078 H 0.07064 0.69207 0.25153 0.0
O1079 O 0.16925 0.57289 0.18264 0.0
H1080 H 0.24449 0.64524 0.18327 0.0
H1081 H 0.20375 0.56866 0.13114 0.0
H1082 H 0.15628 0.76892 0.27553 0.0
H1083 H 0.05387 0.57925 0.24865 0.0
H1084 H 0.10198 0.77756 0.29744 0.0
H1085 H 0.06497 0.58275 0.30667 0.0
O1086 O 0.15143 0.69621 0.18723 0.0
H1087 H 0.09677 0.58412 0.09558 0.0
H1088 H 0.19694 0.64378 0.11043 0.0
H1089 H 0.17302 0.64031 0.05688 0.0
H1090 H 0.12265 0.61015 0.04916 0.0
H1091 H 0.1213 0.58856 0.14879 0.0
H1092 H 0.25677 0.55388 0.11053 0.0
H1093 H 0.3043 0.58537 0.12651 0.0
O1094 O 0.18962 0.66497 0.16659 0.0
C1095 C 0.19363 0.64337 0.24104 0.0
C1096 C 0.27737 0.61748 0.15599 0.0
C1097 C 0.25428 0.57398 0.12647 0.0
N1098 N 0.22101 0.60781 0.15838 0.0
C1099 C 0.24705 0.62523 0.16729 0.0
C1100 C 0.22433 0.58244 0.13823 0.0
C1101 C 0.28094 0.59166 0.13544 0.0
C1102 C 0.08615 0.61741 0.23679 0.0
N1103 N 0.10725 0.63956 0.24797 0.0
C1104 C 0.07058 0.5967 0.25767 0.0
C1105 C 0.07685 0.59864 0.29021 0.0
C1106 C 0.09854 0.62115 0.30143 0.0
C1107 C 0.11364 0.64146 0.27983 0.0
C1108 C 0.08271 0.73529 0.27576 0.0
C1109 C 0.14316 0.72561 0.25128 0.0
C1110 C 0.08945 0.70894 0.25662 0.0
N1111 N 0.11938 0.7044 0.24458 0.0
C1112 C 0.13732 0.75221 0.27035 0.0
C1113 C 0.10685 0.75704 0.28262 0.0
C1114 C 0.17681 0.69219 0.17081 0.0
C1115 C 0.11879 0.59721 0.09861 0.0
C1116 C 0.17495 0.63075 0.1073 0.0
C1117 C 0.16155 0.62879 0.0769 0.0
C1118 C 0.1333 0.61186 0.07258 0.0
N1119 N 0.16072 0.61608 0.13266 0.0
C1120 C 0.13287 0.59969 0.12866 0.0
Co1121 Co 0.36716 0.32344 0.72124 0.0
Co1122 Co 0.32543 0.3816 0.68153 0.0
O1123 O 0.36561 0.36392 0.6977 0.0
C1124 C 0.41977 0.31813 0.67373 0.0
O1125 O 0.40168 0.33205 0.6524 0.0
C1126 C 0.32727 0.44806 0.70438 0.0
O1127 O 0.30153 0.44054 0.72046 0.0
O1128 O 0.30709 0.37975 0.72535 0.0
O1129 O 0.32558 0.3328 0.7425 0.0
H1130 H 0.20614 0.38925 0.6727 0.0
H1131 H 0.42167 0.36821 0.72432 0.0
O1132 O 0.40927 0.31265 0.70159 0.0
H1133 H 0.38704 0.35383 0.83566 0.0
H1134 H 0.42032 0.23604 0.784 0.0
H1135 H 0.31968 0.27329 0.73623 0.0
H1136 H 0.35964 0.32565 0.792 0.0
H1137 H 0.41816 0.28722 0.75528 0.0
O1138 O 0.34203 0.42635 0.68896 0.0
H1139 H 0.25698 0.36693 0.69165 0.0
H1140 H 0.3085 0.43494 0.63735 0.0
H1141 H 0.32075 0.22212 0.76493 0.0
H1142 H 0.45 0.39658 0.76729 0.0
H1143 H 0.37133 0.20316 0.78907 0.0
H1144 H 0.43267 0.38951 0.82343 0.0
O1145 O 0.34431 0.30123 0.68595 0.0
H1146 H 0.40994 0.40666 0.60054 0.0
H1147 H 0.304 0.35867 0.61762 0.0
H1148 H 0.32727 0.35891 0.56368 0.0
H1149 H 0.38054 0.38319 0.55483 0.0
H1150 H 0.38604 0.40537 0.65418 0.0
H1151 H 0.2582 0.45816 0.61786 0.0
H1152 H 0.20652 0.4353 0.63554 0.0
O1153 O 0.30759 0.338 0.67361 0.0
C1154 C 0.30659 0.35636 0.74476 0.0
C1155 C 0.2285 0.39938 0.66473 0.0
C1156 C 0.25771 0.43806 0.634 0.0
N1157 N 0.28572 0.39946 0.66559 0.0
C1158 C 0.25738 0.38675 0.67533 0.0
C1159 C 0.28612 0.4248 0.64511 0.0
C1160 C 0.22873 0.42523 0.64392 0.0
C1161 C 0.41411 0.36486 0.74871 0.0
N1162 N 0.38911 0.34518 0.75564 0.0
C1163 C 0.43019 0.38106 0.77293 0.0
C1164 C 0.42044 0.3771 0.80442 0.0
C1165 C 0.39483 0.3571 0.81129 0.0
C1166 C 0.37933 0.34128 0.78646 0.0
C1167 C 0.39812 0.24406 0.77361 0.0
C1168 C 0.34177 0.2653 0.74676 0.0
C1169 C 0.39677 0.27298 0.75724 0.0
N1170 N 0.36878 0.28334 0.7442 0.0
C1171 C 0.34223 0.23626 0.76295 0.0
C1172 C 0.37063 0.22563 0.77646 0.0
C1173 C 0.31782 0.30942 0.67353 0.0
C1174 C 0.38664 0.39615 0.60405 0.0
C1175 C 0.32729 0.36906 0.61402 0.0
C1176 C 0.34029 0.36925 0.58339 0.0
C1177 C 0.37017 0.38291 0.57844 0.0
N1178 N 0.34355 0.3822 0.639 0.0
C1179 C 0.3729 0.39553 0.63434 0.0
Co1180 Co 0.77988 0.63581 0.83768 0.0
Co1181 Co 0.83015 0.68086 0.88466 0.0
O1182 O 0.80922 0.64079 0.87348 0.0
C1183 C 0.82618 0.58283 0.82362 0.0
O1184 O 0.85032 0.60275 0.82425 0.0
C1185 C 0.79886 0.66801 0.94737 0.0
O1186 O 0.77092 0.66912 0.93333 0.0
O1187 O 0.78873 0.70473 0.88304 0.0
O1188 O 0.7603 0.67804 0.84648 0.0
H1189 H 0.8538 0.79773 0.87421 0.0
H1190 H 0.78579 0.58708 0.88825 0.0
O1191 O 0.79794 0.59286 0.82814 0.0
H1192 H 0.672 0.61611 0.88716 0.0
H1193 H 0.70375 0.57562 0.76675 0.0
H1194 H 0.75696 0.67847 0.78635 0.0
H1195 H 0.70954 0.64064 0.84934 0.0
H1196 H 0.7403 0.58216 0.81225 0.0
O1197 O 0.82432 0.67124 0.9312 0.0
H1198 H 0.82777 0.74704 0.86004 0.0
H1199 H 0.8772 0.69978 0.93461 0.0
H1200 H 0.72028 0.67313 0.74081 0.0
H1201 H 0.74906 0.56145 0.92621 0.0
H1202 H 0.69337 0.62139 0.73074 0.0
H1203 H 0.6917 0.57603 0.92594 0.0
O1204 O 0.81076 0.65661 0.80787 0.0
H1205 H 0.90156 0.58933 0.91349 0.0
H1206 H 0.89536 0.69282 0.85859 0.0
H1207 H 0.94599 0.66314 0.85838 0.0
H1208 H 0.94934 0.61097 0.88606 0.0
H1209 H 0.85132 0.61974 0.91279 0.0
H1210 H 0.90354 0.75006 0.94979 0.0
H1211 H 0.89201 0.79947 0.91939 0.0
O1212 O 0.83707 0.69139 0.83881 0.0
C1213 C 0.76447 0.70188 0.86476 0.0
C1214 C 0.85909 0.77635 0.8876 0.0
C1215 C 0.88698 0.74959 0.93002 0.0
N1216 N 0.85113 0.7204 0.8963 0.0
C1217 C 0.84447 0.74754 0.87964 0.0
C1218 C 0.87193 0.72121 0.92136 0.0
C1219 C 0.8805 0.77731 0.91295 0.0
C1220 C 0.76088 0.5936 0.88796 0.0
N1221 N 0.74991 0.61577 0.86678 0.0
C1222 C 0.74019 0.57898 0.90953 0.0
C1223 C 0.70802 0.58718 0.90938 0.0
C1224 C 0.69697 0.6097 0.88767 0.0
C1225 C 0.71839 0.6238 0.86646 0.0
C1226 C 0.71534 0.59828 0.77087 0.0
C1227 C 0.7453 0.65589 0.78221 0.0
C1228 C 0.73621 0.60206 0.79652 0.0
N1229 N 0.75077 0.63066 0.80204 0.0
C1230 C 0.72458 0.65301 0.75633 0.0
C1231 C 0.70951 0.62397 0.75069 0.0
C1232 C 0.82979 0.68014 0.81156 0.0
C1233 C 0.90041 0.61203 0.90134 0.0
C1234 C 0.89654 0.67007 0.8704 0.0
C1235 C 0.92532 0.65341 0.87036 0.0
C1236 C 0.9272 0.62417 0.88592 0.0
N1237 N 0.87036 0.65803 0.88555 0.0
C1238 C 0.87204 0.62939 0.90091 0.0
Co1239 Co 0.28458 0.86217 0.16071 0.0
Co1240 Co 0.32837 0.81038 0.11426 0.0
O1241 O 0.31215 0.85265 0.12452 0.0
C1242 C 0.32012 0.91405 0.19327 0.0
O1243 O 0.31815 0.89712 0.21951 0.0
C1244 C 0.29801 0.83108 0.05345 0.0
O1245 O 0.27278 0.84015 0.06956 0.0
O1246 O 0.28478 0.79129 0.11822 0.0
O1247 O 0.25996 0.82186 0.15444 0.0
H1248 H 0.34021 0.69233 0.12958 0.0
H1249 H 0.29405 0.90914 0.10885 0.0
O1250 O 0.30895 0.90293 0.16726 0.0
H1251 H 0.17841 0.88857 0.11102 0.0
H1252 H 0.21616 0.93357 0.22889 0.0
H1253 H 0.25907 0.82517 0.21514 0.0
H1254 H 0.21417 0.86227 0.14941 0.0
H1255 H 0.25108 0.92085 0.18337 0.0
O1256 O 0.3215 0.81854 0.06789 0.0
H1257 H 0.32021 0.74605 0.14214 0.0
H1258 H 0.37098 0.78442 0.06345 0.0
H1259 H 0.22416 0.83681 0.26091 0.0
H1260 H 0.25917 0.93641 0.07033 0.0
H1261 H 0.20244 0.89135 0.26802 0.0
H1262 H 0.20089 0.92604 0.07111 0.0
O1263 O 0.31385 0.83903 0.19045 0.0
H1264 H 0.40723 0.8932 0.0788 0.0
H1265 H 0.39351 0.79231 0.13701 0.0
H1266 H 0.44689 0.81649 0.13348 0.0
H1267 H 0.45405 0.86732 0.10408 0.0
H1268 H 0.35421 0.86828 0.0833 0.0
H1269 H 0.39126 0.73104 0.04982 0.0
H1270 H 0.37603 0.68456 0.08311 0.0
O1271 O 0.33628 0.80121 0.16008 0.0
C1272 C 0.26142 0.79703 0.13697 0.0
C1273 C 0.34708 0.7124 0.11492 0.0
C1274 C 0.3757 0.73413 0.07014 0.0
N1275 N 0.34456 0.7684 0.10368 0.0
C1276 C 0.33588 0.7429 0.12196 0.0
C1277 C 0.36405 0.76429 0.07791 0.0
C1278 C 0.36716 0.70806 0.08884 0.0
C1279 C 0.26869 0.90478 0.10964 0.0
N1280 N 0.25617 0.88411 0.13147 0.0
C1281 C 0.24906 0.92018 0.08764 0.0
C1282 C 0.21638 0.91431 0.08805 0.0
C1283 C 0.20376 0.89326 0.1104 0.0
C1284 C 0.22414 0.87827 0.132 0.0
C1285 C 0.22546 0.90971 0.22605 0.0
C1286 C 0.24972 0.84897 0.21806 0.0
C1287 C 0.24526 0.90238 0.20034 0.0
N1288 N 0.25709 0.87228 0.19658 0.0
C1289 C 0.22996 0.85541 0.24403 0.0
C1290 C 0.21778 0.88601 0.248 0.0
C1291 C 0.33091 0.81403 0.18704 0.0
C1292 C 0.40443 0.87108 0.09172 0.0
C1293 C 0.39632 0.81456 0.12461 0.0
C1294 C 0.42667 0.82808 0.12247 0.0
C1295 C 0.43067 0.85656 0.10593 0.0
N1296 N 0.37067 0.82891 0.11066 0.0
C1297 C 0.37445 0.85682 0.09434 0.0
Co1298 Co 0.21932 0.14035 0.66976 0.0
Co1299 Co 0.16772 0.1822 0.6218 0.0
O1300 O 0.19076 0.14358 0.63329 0.0
C1301 C 0.17641 0.08487 0.68428 0.0
O1302 O 0.15236 0.10442 0.68834 0.0
C1303 C 0.19949 0.16891 0.5596 0.0
O1304 O 0.22719 0.1708 0.57403 0.0
O1305 O 0.20801 0.20787 0.62285 0.0
O1306 O 0.23563 0.18435 0.66244 0.0
H1307 H 0.13799 0.29791 0.62955 0.0
H1308 H 0.22038 0.09124 0.61893 0.0
O1309 O 0.20396 0.09557 0.67721 0.0
H1310 H 0.32932 0.13527 0.62215 0.0
H1311 H 0.2966 0.08347 0.74176 0.0
H1312 H 0.23866 0.18367 0.7222 0.0
H1313 H 0.28808 0.1549 0.65908 0.0
H1314 H 0.26081 0.08868 0.69543 0.0
O1315 O 0.17376 0.17199 0.57539 0.0
H1316 H 0.16685 0.24911 0.6446 0.0
H1317 H 0.11921 0.19722 0.57207 0.0
H1318 H 0.27426 0.17951 0.76871 0.0
H1319 H 0.26098 0.0707 0.58178 0.0
H1320 H 0.30361 0.12915 0.77871 0.0
H1321 H 0.31589 0.09279 0.58321 0.0
O1322 O 0.18621 0.15834 0.699 0.0
H1323 H 0.10023 0.08694 0.59529 0.0
H1324 H 0.10269 0.19113 0.64925 0.0
H1325 H 0.05352 0.159 0.65075 0.0
H1326 H 0.05207 0.10648 0.62356 0.0
H1327 H 0.14897 0.11979 0.59464 0.0
H1328 H 0.08996 0.24551 0.55597 0.0
H1329 H 0.09915 0.2963 0.5849 0.0
O1330 O 0.16088 0.1934 0.66763 0.0
C1331 C 0.23119 0.20688 0.64263 0.0
C1332 C 0.13372 0.27592 0.61677 0.0
C1333 C 0.10678 0.24652 0.57549 0.0
N1334 N 0.14461 0.22029 0.60946 0.0
C1335 C 0.15 0.2482 0.62525 0.0
C1336 C 0.12348 0.21926 0.58468 0.0
C1337 C 0.11195 0.275 0.59173 0.0
C1338 C 0.2443 0.10075 0.61992 0.0
N1339 N 0.25192 0.12401 0.64137 0.0
C1340 C 0.26716 0.08912 0.59873 0.0
C1341 C 0.29795 0.10155 0.59952 0.0
C1342 C 0.3055 0.12539 0.62136 0.0
C1343 C 0.28203 0.13643 0.64218 0.0
C1344 C 0.28397 0.10555 0.73764 0.0
C1345 C 0.25138 0.16168 0.72632 0.0
C1346 C 0.26359 0.1086 0.7115 0.0
N1347 N 0.24769 0.13646 0.70607 0.0
C1348 C 0.27149 0.15947 0.75273 0.0
C1349 C 0.28791 0.13119 0.75835 0.0
C1350 C 0.16758 0.18212 0.69506 0.0
C1351 C 0.10055 0.1098 0.60719 0.0
C1352 C 0.1023 0.16828 0.63754 0.0
C1353 C 0.07435 0.15021 0.63836 0.0
C1354 C 0.07355 0.12076 0.62308 0.0
N1355 N 0.12866 0.15741 0.62185 0.0
C1356 C 0.12805 0.12855 0.60683 0.0
Co1357 Co 0.73013 0.36516 0.33774 0.0
Co1358 Co 0.67513 0.32511 0.38437 0.0
O1359 O 0.69948 0.36335 0.37297 0.0
C1360 C 0.68672 0.41991 0.32396 0.0
O1361 O 0.66207 0.40237 0.33191 0.0
C1362 C 0.70635 0.33979 0.44657 0.0
O1363 O 0.73366 0.34246 0.43153 0.0
O1364 O 0.71464 0.29824 0.3842 0.0
O1365 O 0.74693 0.32246 0.34914 0.0
H1366 H 0.6422 0.21049 0.37414 0.0
H1367 H 0.72658 0.41753 0.38483 0.0
O1368 O 0.71477 0.40848 0.32521 0.0
H1369 H 0.83677 0.3774 0.39162 0.0
H1370 H 0.81155 0.41791 0.26694 0.0
H1371 H 0.75253 0.31885 0.28942 0.0
H1372 H 0.79875 0.35416 0.35333 0.0
H1373 H 0.77299 0.41551 0.31124 0.0
O1374 O 0.681 0.33415 0.4309 0.0
H1375 H 0.67241 0.25884 0.36011 0.0
H1376 H 0.62564 0.31047 0.43344 0.0
H1377 H 0.79109 0.32011 0.24514 0.0
H1378 H 0.7639 0.44173 0.42327 0.0
H1379 H 0.82093 0.36992 0.23365 0.0
H1380 H 0.8194 0.42156 0.42693 0.0
O1381 O 0.69907 0.34513 0.30764 0.0
H1382 H 0.61095 0.42224 0.4116 0.0
H1383 H 0.60971 0.31853 0.35674 0.0
H1384 H 0.56182 0.35243 0.35525 0.0
H1385 H 0.56225 0.40475 0.38285 0.0
H1386 H 0.6584 0.38763 0.41219 0.0
H1387 H 0.59516 0.26256 0.44851 0.0
H1388 H 0.60325 0.21213 0.41868 0.0
O1389 O 0.66803 0.31464 0.33859 0.0
C1390 C 0.74023 0.29943 0.36768 0.0
C1391 C 0.63843 0.23232 0.38732 0.0
C1392 C 0.61206 0.26154 0.42907 0.0
N1393 N 0.65079 0.28749 0.39589 0.0
C1394 C 0.65543 0.2598 0.37945 0.0
C1395 C 0.62949 0.28857 0.42051 0.0
C1396 C 0.6166 0.23326 0.41231 0.0
C1397 C 0.75076 0.40879 0.38612 0.0
N1398 N 0.76047 0.38444 0.36684 0.0
C1399 C 0.77176 0.42252 0.408 0.0
C1400 C 0.80289 0.41117 0.41006 0.0
C1401 C 0.81263 0.38637 0.39028 0.0
C1402 C 0.79097 0.37321 0.36872 0.0
C1403 C 0.79872 0.39606 0.27174 0.0
C1404 C 0.76553 0.34058 0.28469 0.0
C1405 C 0.77679 0.3946 0.29673 0.0
N1406 N 0.76063 0.36703 0.30302 0.0
C1407 C 0.78728 0.34116 0.25952 0.0
C1408 C 0.80398 0.36912 0.25307 0.0
C1409 C 0.67741 0.32405 0.31132 0.0
C1410 C 0.61045 0.39948 0.39951 0.0
C1411 C 0.61016 0.34129 0.36857 0.0
C1412 C 0.58292 0.36036 0.3678 0.0
C1413 C 0.58316 0.38968 0.38333 0.0
N1414 N 0.63687 0.35109 0.3844 0.0
C1415 C 0.63721 0.37974 0.39983 0.0
C1416 C 0.1477 0.30042 0.24241 0.0
C1417 C 0.17425 0.29389 0.22304 0.0
C1418 C 0.1386 0.27916 0.26678 0.0
C1419 C 0.15579 0.25091 0.27212 0.0
H1420 H 0.13382 0.3218 0.2385 0.0
H1421 H 0.1185 0.28508 0.28185 0.0
S1422 S 0.22715 0.22339 0.22798 0.0
N1423 N 0.21743 0.2574 0.21079 0.0
N1424 N 0.20062 0.21788 0.25653 0.0
C1425 C 0.1823 0.24434 0.25287 0.0
C1426 C 0.19143 0.26571 0.22825 0.0
C1427 C 0.37194 0.72533 0.76178 0.0
C1428 C 0.35083 0.74998 0.77003 0.0
C1429 C 0.36344 0.70263 0.73855 0.0
C1430 C 0.33365 0.70408 0.72326 0.0
H1431 H 0.39489 0.72351 0.77344 0.0
H1432 H 0.38044 0.68436 0.73201 0.0
S1433 S 0.27153 0.76579 0.73436 0.0
N1434 N 0.29988 0.7755 0.75987 0.0
N1435 N 0.28422 0.73326 0.71628 0.0
C1436 C 0.31276 0.72895 0.731 0.0
C1437 C 0.32127 0.75179 0.75447 0.0
C1438 C 0.63387 0.24525 0.75738 0.0
C1439 C 0.64363 0.23948 0.72579 0.0
C1440 C 0.64318 0.22515 0.78245 0.0
C1441 C 0.66245 0.19813 0.77713 0.0
H1442 H 0.62026 0.26635 0.76318 0.0
H1443 H 0.63618 0.2317 0.80641 0.0
S1444 S 0.69033 0.16941 0.69816 0.0
N1445 N 0.67089 0.2026 0.69029 0.0
N1446 N 0.68767 0.16469 0.73706 0.0
C1447 C 0.6703 0.19071 0.74535 0.0
C1448 C 0.66111 0.21138 0.71985 0.0
C1449 C 0.8656 0.76524 0.25671 0.0
C1450 C 0.85226 0.77155 0.2266 0.0
C1451 C 0.85755 0.78354 0.28345 0.0
C1452 C 0.83587 0.80912 0.28135 0.0
H1453 H 0.88124 0.74504 0.26016 0.0
H1454 H 0.86757 0.77662 0.30619 0.0
S1455 S 0.79804 0.83888 0.20709 0.0
N1456 N 0.81909 0.80777 0.19567 0.0
N1457 N 0.80414 0.84207 0.24576 0.0
C1458 C 0.82419 0.81719 0.25097 0.0
C1459 C 0.83233 0.79848 0.2237 0.0
C1460 C 0.28305 0.15549 0.28906 0.0
C1461 C 0.27888 0.13653 0.2616 0.0
C1462 C 0.25756 0.16237 0.30965 0.0
C1463 C 0.22657 0.151 0.30355 0.0
H1464 H 0.306 0.1661 0.29428 0.0
H1465 H 0.26204 0.17796 0.3297 0.0
S1466 S 0.20346 0.09713 0.23698 0.0
N1467 N 0.24179 0.10371 0.23143 0.0
N1468 N 0.19398 0.11733 0.26928 0.0
C1469 C 0.22246 0.13056 0.27713 0.0
C1470 C 0.24852 0.12317 0.25643 0.0
C1471 C 0.25478 0.84827 0.80377 0.0
C1472 C 0.28589 0.85649 0.79433 0.0
C1473 C 0.22859 0.8539 0.78386 0.0
C1474 C 0.23214 0.86853 0.75381 0.0
H1475 H 0.25065 0.83587 0.826 0.0
H1476 H 0.20551 0.84549 0.79175 0.0
S1477 S 0.30779 0.8996 0.72 0.0
N1478 N 0.31817 0.88333 0.7542 0.0
N1479 N 0.26887 0.89474 0.71745 0.0
C1480 C 0.2627 0.87929 0.74522 0.0
C1481 C 0.28953 0.87308 0.76528 0.0
C1482 C 0.74556 0.36842 0.74741 0.0
C1483 C 0.77591 0.35658 0.73949 0.0
C1484 C 0.71876 0.36145 0.72864 0.0
C1485 C 0.72107 0.34249 0.70094 0.0
H1486 H 0.7421 0.38213 0.76898 0.0
H1487 H 0.69586 0.37023 0.73663 0.0
S1488 S 0.79558 0.30834 0.66763 0.0
N1489 N 0.80684 0.32671 0.70044 0.0
N1490 N 0.75686 0.31432 0.66518 0.0
C1491 C 0.75154 0.33207 0.69173 0.0
C1492 C 0.77879 0.33889 0.71097 0.0
C1493 C 0.7577 0.64663 0.19968 0.0
C1494 C 0.77277 0.67651 0.20123 0.0
C1495 C 0.73293 0.63875 0.22093 0.0
C1496 C 0.72255 0.66066 0.24408 0.0
H1497 H 0.76552 0.62913 0.18242 0.0
H1498 H 0.7218 0.61553 0.21923 0.0
S1499 S 0.75711 0.74039 0.26011 0.0
N1500 N 0.7776 0.72674 0.22944 0.0
N1501 N 0.73079 0.71241 0.26866 0.0
C1502 C 0.73786 0.69035 0.24603 0.0
C1503 C 0.76312 0.69814 0.22479 0.0
C1504 C 0.28648 0.21423 0.13929 0.0
C1505 C 0.31214 0.21641 0.16094 0.0
C1506 C 0.26742 0.24065 0.13201 0.0
C1507 C 0.27289 0.27044 0.14632 0.0
H1508 H 0.28012 0.1916 0.12867 0.0
H1509 H 0.24732 0.23717 0.11621 0.0
S1510 S 0.33955 0.29005 0.20155 0.0
N1511 N 0.34409 0.25185 0.19381 0.0
N1512 N 0.30796 0.30112 0.18101 0.0
C1513 C 0.29967 0.27342 0.16653 0.0
C1514 C 0.31936 0.24657 0.17358 0.0
C1515 C 0.81589 0.24993 0.82392 0.0
C1516 C 0.81182 0.27932 0.83944 0.0
C1517 C 0.79543 0.22419 0.82995 0.0
C1518 C 0.77003 0.22658 0.8519 0.0
H1519 H 0.83395 0.24716 0.8057 0.0
H1520 H 0.79893 0.20265 0.81622 0.0
S1521 S 0.75183 0.29684 0.90244 0.0
N1522 N 0.78249 0.30796 0.88056 0.0
N1523 N 0.74421 0.2599 0.8916 0.0
C1524 C 0.76711 0.25507 0.86923 0.0
C1525 C 0.78794 0.28129 0.86311 0.0
C1526 C 0.70881 0.7762 0.35304 0.0
C1527 C 0.73912 0.77182 0.36695 0.0
C1528 C 0.68834 0.75051 0.34705 0.0
C1529 C 0.69746 0.71905 0.35399 0.0
H1530 H 0.70111 0.79959 0.34549 0.0
H1531 H 0.6659 0.75536 0.33529 0.0
S1532 S 0.77226 0.69486 0.39505 0.0
N1533 N 0.77538 0.73384 0.39131 0.0
N1534 N 0.73757 0.68545 0.37915 0.0
C1535 C 0.72676 0.71452 0.36997 0.0
C1536 C 0.74739 0.74086 0.37663 0.0
C1537 C 0.2214 0.78306 0.63724 0.0
C1538 C 0.19632 0.78084 0.65956 0.0
C1539 C 0.24087 0.75689 0.63009 0.0
C1540 C 0.23632 0.72719 0.64495 0.0
H1541 H 0.22701 0.80557 0.62598 0.0
H1542 H 0.26055 0.76051 0.61379 0.0
S1543 S 0.17121 0.7073 0.70187 0.0
N1544 N 0.16592 0.74537 0.69387 0.0
N1545 N 0.20241 0.69637 0.68066 0.0
C1546 C 0.20999 0.72406 0.66574 0.0
C1547 C 0.19007 0.75075 0.67295 0.0
C1548 C 0.82696 0.6921 0.75299 0.0
C1549 C 0.84117 0.69778 0.78282 0.0
C1550 C 0.83305 0.71191 0.7268 0.0
C1551 C 0.85387 0.73824 0.72904 0.0
H1552 H 0.80979 0.67305 0.75006 0.0
H1553 H 0.82034 0.70702 0.70489 0.0
S1554 S 0.9005 0.76132 0.80066 0.0
N1555 N 0.87946 0.73019 0.81212 0.0
N1556 N 0.89103 0.76701 0.76297 0.0
C1557 C 0.86985 0.743 0.75813 0.0
C1558 C 0.86348 0.72293 0.78493 0.0
C1559 C 0.67184 0.29212 0.22673 0.0
C1560 C 0.64915 0.26739 0.22914 0.0
C1561 C 0.67949 0.31146 0.25285 0.0
C1562 C 0.66482 0.30706 0.28267 0.0
H1563 H 0.68496 0.29585 0.20484 0.0
H1564 H 0.69816 0.32904 0.24988 0.0
S1565 S 0.60028 0.24878 0.3005 0.0
N1566 N 0.60944 0.24206 0.2629 0.0
N1567 N 0.62378 0.27813 0.31194 0.0
C1568 C 0.64048 0.28385 0.28481 0.0
C1569 C 0.63264 0.26417 0.25812 0.0
C1570 C 0.33559 0.78508 0.27263 0.0
C1571 C 0.35481 0.75759 0.2705 0.0
C1572 C 0.3296 0.80431 0.24601 0.0
C1573 C 0.3423 0.79678 0.21594 0.0
H1574 H 0.324 0.79134 0.2948 0.0
H1575 H 0.31363 0.82435 0.24886 0.0
S1576 S 0.39753 0.72969 0.19827 0.0
N1577 N 0.38933 0.72587 0.23649 0.0
N1578 N 0.37761 0.76136 0.18643 0.0
C1579 C 0.36314 0.77043 0.2139 0.0
C1580 C 0.36952 0.75105 0.24113 0.0
C1581 C 0.17058 0.19488 0.75358 0.0
C1582 C 0.1566 0.20043 0.72359 0.0
C1583 C 0.16536 0.21556 0.77935 0.0
C1584 C 0.14581 0.24273 0.77641 0.0
H1585 H 0.18691 0.17523 0.75695 0.0
H1586 H 0.17782 0.21071 0.80142 0.0
S1587 S 0.09956 0.26553 0.70445 0.0
N1588 N 0.11927 0.23333 0.6937 0.0
N1589 N 0.10958 0.27198 0.74188 0.0
C1590 C 0.12995 0.24738 0.7472 0.0
C1591 C 0.13528 0.22632 0.72095 0.0
C1592 C 0.72572 0.8406 0.71757 0.0
C1593 C 0.731 0.86087 0.74387 0.0
C1594 C 0.75021 0.8329 0.69622 0.0
C1595 C 0.78131 0.84484 0.70023 0.0
H1596 H 0.70273 0.82944 0.71397 0.0
H1597 H 0.7449 0.81613 0.67735 0.0
S1598 S 0.80681 0.90268 0.76241 0.0
N1599 N 0.76895 0.89576 0.77041 0.0
N1600 N 0.81503 0.881 0.7307 0.0
C1601 C 0.78642 0.8669 0.72514 0.0
C1602 C 0.76132 0.87496 0.7468 0.0
C1603 C 0.74593 0.14443 0.20058 0.0
C1604 C 0.73066 0.17416 0.20243 0.0
C1605 C 0.77001 0.1361 0.22246 0.0
C1606 C 0.77946 0.1574 0.24655 0.0
H1607 H 0.73864 0.12728 0.18273 0.0
H1608 H 0.78121 0.11294 0.22059 0.0
S1609 S 0.74424 0.23654 0.26348 0.0
N1610 N 0.72474 0.22359 0.23184 0.0
N1611 N 0.77043 0.20849 0.27208 0.0
C1612 C 0.76411 0.187 0.24868 0.0
C1613 C 0.7395 0.19523 0.22684 0.0
C1614 C 0.27478 0.63985 0.28144 0.0
C1615 C 0.27194 0.66149 0.30701 0.0
C1616 C 0.24895 0.63281 0.26144 0.0
C1617 C 0.21899 0.64725 0.26581 0.0
H1618 H 0.29754 0.62904 0.27589 0.0
H1619 H 0.25307 0.61697 0.2415 0.0
S1620 S 0.19744 0.70221 0.33193 0.0
N1621 N 0.2355 0.69438 0.33779 0.0
N1622 N 0.18726 0.68187 0.29989 0.0
C1623 C 0.21523 0.66738 0.29251 0.0
C1624 C 0.24153 0.67426 0.31316 0.0
C1625 C 0.2814 0.32917 0.79166 0.0
C1626 C 0.2811 0.35436 0.76939 0.0
C1627 C 0.25553 0.32349 0.812 0.0
C1628 C 0.22799 0.3425 0.81073 0.0
H1629 H 0.30125 0.31274 0.79263 0.0
H1630 H 0.25653 0.30292 0.8275 0.0
S1631 S 0.21679 0.41436 0.76018 0.0
N1632 N 0.25226 0.40078 0.75021 0.0
N1633 N 0.20361 0.38984 0.78788 0.0
C1634 C 0.22828 0.36908 0.79019 0.0
C1635 C 0.25478 0.37507 0.76969 0.0
C1636 C 0.74921 0.75919 0.87338 0.0
C1637 C 0.74128 0.7287 0.86196 0.0
C1638 C 0.73026 0.78581 0.86625 0.0
C1639 C 0.70234 0.78311 0.84762 0.0
H1640 H 0.77103 0.76292 0.88665 0.0
H1641 H 0.73835 0.80887 0.87451 0.0
S1642 S 0.66851 0.70796 0.81547 0.0
N1643 N 0.70173 0.69717 0.83338 0.0
N1644 N 0.66604 0.74673 0.82086 0.0
C1645 C 0.69294 0.75246 0.83799 0.0
C1646 C 0.71241 0.72544 0.84489 0.0
C1647 C 0.22125 0.71576 0.1383 0.0
C1648 C 0.19446 0.72041 0.15811 0.0
C1649 C 0.24157 0.74097 0.13 0.0
C1650 C 0.23636 0.77205 0.14139 0.0
H1651 H 0.22743 0.69217 0.12995 0.0
H1652 H 0.26239 0.73558 0.11575 0.0
S1653 S 0.16737 0.79802 0.19069 0.0
N1654 N 0.16196 0.75942 0.18595 0.0
N1655 N 0.20045 0.8065 0.17124 0.0
C1656 C 0.2086 0.77743 0.15967 0.0
C1657 C 0.18761 0.75176 0.16776 0.0
C1658 C 0.30407 0.26025 0.6421 0.0
C1659 C 0.29522 0.28432 0.66365 0.0
C1660 C 0.2825 0.23591 0.63373 0.0
C1661 C 0.2516 0.23504 0.64673 0.0
H1662 H 0.32778 0.26012 0.63191 0.0
H1663 H 0.29027 0.21722 0.61773 0.0
S1664 S 0.21854 0.28996 0.70736 0.0
N1665 N 0.2544 0.30419 0.6996 0.0
N1666 N 0.21439 0.25843 0.68422 0.0
C1667 C 0.24282 0.25858 0.6687 0.0
C1668 C 0.26451 0.2833 0.67703 0.0
C1669 C 0.79305 0.27546 0.35329 0.0
C1670 C 0.76283 0.27206 0.36771 0.0
C1671 C 0.81301 0.24925 0.34802 0.0
C1672 C 0.80344 0.21826 0.35629 0.0
H1673 H 0.80105 0.2984 0.34475 0.0
H1674 H 0.83534 0.25327 0.33574 0.0
S1675 S 0.72865 0.19681 0.39901 0.0
N1676 N 0.72619 0.23565 0.39386 0.0
N1677 N 0.763 0.18629 0.3831 0.0
C1678 C 0.77423 0.2148 0.37276 0.0
C1679 C 0.75414 0.24166 0.37865 0.0
C1680 C 0.17149 0.15089 0.50999 0.0
C1681 C 0.19758 0.16642 0.52438 0.0
C1682 C 0.16727 0.15112 0.47675 0.0
C1683 C 0.18849 0.16768 0.45681 0.0
H1684 H 0.15388 0.13891 0.5246 0.0
H1685 H 0.14645 0.13954 0.46678 0.0
S1686 S 0.26113 0.2112 0.48228 0.0
N1687 N 0.24568 0.19756 0.5158 0.0
N1688 N 0.2372 0.19883 0.4536 0.0
C1689 C 0.21505 0.18263 0.4708 0.0
C1690 C 0.21976 0.18175 0.5045 0.0
C1691 C 0.32742 0.8241 0.00221 0.0
C1692 C 0.29968 0.83422 0.01817 0.0
C1693 C 0.32951 0.82441 0.96899 0.0
C1694 C 0.30394 0.8348 0.94997 0.0
H1695 H 0.3477 0.81513 0.01538 0.0
H1696 H 0.35115 0.8154 0.95821 0.0
S1697 S 0.22713 0.86719 0.97982 0.0
N1698 N 0.24693 0.8575 0.0124 0.0
N1699 N 0.25077 0.85802 0.94973 0.0
C1700 C 0.27654 0.84646 0.96555 0.0
C1701 C 0.27443 0.84618 0.99962 0.0
C1702 C 0.67518 0.33441 0.49722 0.0
C1703 C 0.70473 0.33961 0.48208 0.0
C1704 C 0.67296 0.33016 0.53025 0.0
C1705 C 0.70018 0.33097 0.54984 0.0
H1706 H 0.65346 0.3326 0.4834 0.0
H1707 H 0.64972 0.32514 0.5403 0.0
S1708 S 0.78291 0.3476 0.52276 0.0
N1709 N 0.76156 0.34809 0.48974 0.0
N1710 N 0.75747 0.34023 0.55184 0.0
C1711 C 0.72971 0.33793 0.53531 0.0
C1712 C 0.73197 0.34222 0.5015 0.0
C1713 C 0.83272 0.65405 0.03019 0.0
C1714 C 0.81275 0.6727 0.04953 0.0
C1715 C 0.82738 0.65169 0.9972 0.0
C1716 C 0.80137 0.6671 0.98259 0.0
H1717 H 0.85353 0.64262 0.04031 0.0
H1718 H 0.84417 0.63831 0.98287 0.0
S1719 S 0.74084 0.71686 0.02334 0.0
N1720 N 0.76527 0.70566 0.05207 0.0
N1721 N 0.75465 0.70035 0.99041 0.0
C1722 C 0.78033 0.68441 1.00201 0.0
C1723 C 0.7862 0.68746 0.03539 0.0
C1724 C 0.47635 0.22236 0.17767 0.0
C1725 C 0.46154 0.19238 0.18106 0.0
C1726 C 0.50937 0.22517 0.17278 0.0
C1727 C 0.52913 0.19815 0.17109 0.0
H1728 H 0.46253 0.24402 0.17983 0.0
H1729 H 0.51957 0.24883 0.17147 0.0
S1730 S 0.50187 0.11396 0.17434 0.0
N1731 N 0.46905 0.13498 0.17938 0.0
N1732 N 0.53085 0.14022 0.17015 0.0
C1733 C 0.51443 0.16797 0.17279 0.0
C1734 C 0.48078 0.16511 0.17778 0.0
C1735 C 0.99334 0.82537 0.65727 0.0
C1736 C 0.98145 0.80263 0.679 0.0
C1737 C 0.02617 0.83228 0.65549 0.0
C1738 C 0.04816 0.81681 0.6755 0.0
H1739 H 0.9771 0.83918 0.64275 0.0
H1740 H 0.0341 0.85107 0.63969 0.0
S1741 S 0.03017 0.75156 0.73233 0.0
N1742 N 0.99509 0.76184 0.71783 0.0
N1743 N 0.05632 0.77494 0.71456 0.0
C1744 C 0.03684 0.79251 0.69558 0.0
C1745 C 0.00363 0.78538 0.6973 0.0
C1746 C 0.00491 0.30011 0.85837 0.0
C1747 C 0.02652 0.30822 0.83405 0.0
C1748 C 0.97189 0.30491 0.85448 0.0
C1749 C 0.95938 0.31766 0.82602 0.0
H1750 H 0.01362 0.29079 0.8808 0.0
H1751 H 0.95611 0.29859 0.8739 0.0
S1752 S 0.00635 0.34101 0.75444 0.0
N1753 N 0.03309 0.32796 0.78006 0.0
N1754 N 0.97184 0.33765 0.77287 0.0
C1755 C 0.98097 0.32526 0.80138 0.0
C1756 C 0.0143 0.32034 0.80535 0.0
C1757 C 0.48889 0.67281 0.32589 0.0
C1758 C 0.4723 0.69948 0.33767 0.0
C1759 C 0.52226 0.67256 0.32371 0.0
C1760 C 0.54071 0.69893 0.3333 0.0
H1761 H 0.47601 0.65213 0.31736 0.0
H1762 H 0.53355 0.6517 0.31358 0.0
S1763 S 0.50921 0.77359 0.36892 0.0
N1764 N 0.47712 0.75216 0.36127 0.0
N1765 N 0.53973 0.75172 0.35726 0.0
C1766 C 0.52453 0.72526 0.34644 0.0
C1767 C 0.49043 0.72554 0.34858 0.0
C1768 C 0.19972 0.46416 0.20671 0.0
C1769 C 0.17898 0.45064 0.18405 0.0
C1770 C 0.20067 0.49703 0.21207 0.0
C1771 C 0.18103 0.51809 0.19491 0.0
H1772 H 0.21615 0.44927 0.21991 0.0
H1773 H 0.21784 0.50603 0.22912 0.0
S1774 S 0.12052 0.49468 0.13457 0.0
N1775 N 0.13674 0.46065 0.14574 0.0
N1776 N 0.13848 0.52261 0.15568 0.0
C1777 C 0.1589 0.50478 0.17333 0.0
C1778 C 0.15787 0.47107 0.16795 0.0
C1779 C 0.68507 1.00114 0.7835 0.0
C1780 C 0.67031 0.98203 0.80669 0.0
C1781 C 0.68716 0.03427 0.78739 0.0
C1782 C 0.67363 0.04946 0.81403 0.0
H1783 H 0.69659 0.99031 0.76312 0.0
H1784 H 0.70015 0.04803 0.76982 0.0
S1785 S 0.63023 0.01036 0.88018 0.0
N1786 N 0.64075 0.98077 0.85648 0.0
N1787 N 0.6436 0.04317 0.86305 0.0
C1788 C 0.65731 0.03083 0.83646 0.0
C1789 C 0.65595 0.99704 0.83298 0.0
C1790 C 0.86298 0.99757 0.31556 0.0
C1791 C 0.83813 0.01941 0.31031 0.0
C1792 C 0.85664 0.9649 0.31989 0.0
C1793 C 0.82523 0.95289 0.31899 0.0
H1794 H 0.88733 0.0059 0.31769 0.0
H1795 H 0.87646 0.94916 0.32488 0.0
S1796 S 0.75218 1.00002 0.30193 0.0
N1797 N 0.78131 0.0264 0.30155 0.0
N1798 N 0.76939 0.96557 0.30955 0.0
C1799 C 0.80043 0.97445 0.31218 0.0
C1800 C 0.80687 0.00752 0.30786 0.0
C1801 C 0.31777 0.50523 0.71729 0.0
C1802 C 0.33416 0.48247 0.69893 0.0
C1803 C 0.31801 0.53755 0.70919 0.0
C1804 C 0.33493 0.54878 0.68252 0.0
H1805 H 0.30331 0.49793 0.73739 0.0
H1806 H 0.30384 0.55375 0.72342 0.0
S1807 S 0.38457 0.49985 0.62826 0.0
N1808 N 0.36998 0.474 0.65409 0.0
N1809 N 0.37064 0.535 0.6391 0.0
C1810 C 0.35327 0.52678 0.66514 0.0
C1811 C 0.35286 0.49359 0.67329 0.0
C1812 C 0.78136 0.81847 0.50252 0.0
C1813 C 0.80265 0.83535 0.48292 0.0
C1814 C 0.7867 0.81576 0.53543 0.0
C1815 C 0.81297 0.83065 0.55007 0.0
H1816 H 0.76129 0.80595 0.49217 0.0
H1817 H 0.77045 0.80141 0.54945 0.0
S1818 S 0.87448 0.87949 0.50967 0.0
N1819 N 0.85035 0.86819 0.4807 0.0
N1820 N 0.85965 0.86407 0.54269 0.0
C1821 C 0.83355 0.84888 0.531 0.0
C1822 C 0.8286 0.85095 0.49737 0.0
C1823 C 0.67642 0.1617 0.99128 0.0
C1824 C 0.70125 0.1808 0.97908 0.0
C1825 C 0.66997 0.1605 0.02422 0.0
C1826 C 0.68808 0.1784 0.0461 0.0
H1827 H 0.66075 0.14895 0.9752 0.0
H1828 H 0.64963 0.14684 0.03236 0.0
S1829 S 0.75907 0.22766 0.02696 0.0
N1830 N 0.7464 0.21474 0.99205 0.0
N1831 N 0.73442 0.21239 0.05351 0.0
C1832 C 0.71432 0.1957 0.03435 0.0
C1833 C 0.72086 0.19691 1.001 0.0
C1834 C 0.30088 0.64898 0.46938 0.0
C1835 C 0.31349 0.67705 0.45586 0.0
C1836 C 0.297 0.64586 0.50262 0.0
C1837 C 0.30611 0.67048 0.52345 0.0
H1838 H 0.2938 0.62934 0.45423 0.0
H1839 H 0.28744 0.62383 0.51208 0.0
S1840 S 0.33921 0.74921 0.50048 0.0
N1841 N 0.33445 0.73016 0.46648 0.0
N1842 N 0.32684 0.72428 0.52818 0.0
C1843 C 0.31833 0.6987 0.51022 0.0
C1844 C 0.32213 0.70198 0.47666 0.0
C1845 C 0.18066 0.32463 0.00986 0.0
C1846 C 0.20985 0.33159 0.02495 0.0
C1847 C 0.17869 0.32012 0.97686 0.0
C1848 C 0.20583 0.32233 0.95727 0.0
H1849 H 0.15908 0.32168 0.02371 0.0
H1850 H 0.15574 0.31384 0.96686 0.0
S1851 S 0.2875 0.34363 0.98422 0.0
N1852 N 0.26616 0.34313 0.01725 0.0
N1853 N 0.26251 0.3347 0.95518 0.0
C1854 C 0.23493 0.33095 0.97174 0.0
C1855 C 0.23693 0.33558 0.00552 0.0
C1856 C 0.5338 0.77701 0.82697 0.0
C1857 C 0.55039 0.80622 0.82754 0.0
C1858 C 0.5004 0.77584 0.82939 0.0
C1859 C 0.48226 0.80385 0.8324 0.0
H1860 H 0.54652 0.75489 0.82323 0.0
H1861 H 0.48868 0.75293 0.82743 0.0
S1862 S 0.51443 0.88597 0.84021 0.0
N1863 N 0.54624 0.86347 0.83511 0.0
N1864 N 0.48377 0.86136 0.83955 0.0
C1865 C 0.49872 0.83301 0.83502 0.0
C1866 C 0.53266 0.83418 0.83261 0.0
C1867 C 0.97611 0.22488 0.34004 0.0
C1868 C 0.95958 0.19566 0.33838 0.0
C1869 C 0.00958 0.22606 0.34169 0.0
C1870 C 0.02804 0.19808 0.34185 0.0
H1871 H 0.96322 0.24717 0.33877 0.0
H1872 H 0.02104 0.24918 0.34171 0.0
S1873 S 0.99621 0.11536 0.34242 0.0
N1874 N 0.9642 0.13803 0.34004 0.0
N1875 N 0.02676 0.1401 0.34363 0.0
C1876 C 0.01167 0.16867 0.34204 0.0
C1877 C 0.97761 0.1675 0.34015 0.0
C1878 C 0.02575 0.73019 0.17136 0.0
C1879 C 0.04121 0.70053 0.17411 0.0
C1880 C 0.9925 0.73229 0.16772 0.0
C1881 C 0.97326 0.70481 0.16673 0.0
H1882 H 0.03921 0.75212 0.17329 0.0
H1883 H 0.98173 0.7557 0.16696 0.0
S1884 S 0.00231 0.62125 0.16819 0.0
N1885 N 0.03486 0.64298 0.17211 0.0
N1886 N 0.97266 0.64687 0.16538 0.0
C1887 C 0.98861 0.67498 0.1676 0.0
C1888 C 0.02245 0.67285 0.17125 0.0
C1889 C 0.4686 0.28481 0.67966 0.0
C1890 C 0.45396 0.31246 0.66762 0.0
C1891 C 0.50182 0.28097 0.67862 0.0
C1892 C 0.52159 0.30514 0.66652 0.0
H1893 H 0.4543 0.26638 0.69071 0.0
H1894 H 0.51216 0.2597 0.68892 0.0
S1895 S 0.49495 0.38159 0.63113 0.0
N1896 N 0.46158 0.36362 0.64179 0.0
N1897 N 0.52406 0.35704 0.64098 0.0
C1898 C 0.50717 0.33251 0.65364 0.0
C1899 C 0.47331 0.336 0.65388 0.0
C1900 C 0.86041 0.53624 0.80673 0.0
C1901 C 0.83103 0.54812 0.81788 0.0
C1902 C 0.86491 0.50344 0.80111 0.0
C1903 C 0.84025 0.48136 0.80666 0.0
H1904 H 0.88011 0.55233 0.80235 0.0
H1905 H 0.88804 0.49528 0.79311 0.0
S1906 S 0.75841 0.5 0.83483 0.0
N1907 N 0.77682 0.53465 0.83396 0.0
N1908 N 0.78497 0.47392 0.82244 0.0
C1909 C 0.81064 0.49303 0.81718 0.0
C1910 C 0.80612 0.52613 0.82307 0.0
C1911 C 0.33027 0.96413 0.22443 0.0
C1912 C 0.32957 0.94819 0.19489 0.0
C1913 C 0.33433 0.9973 0.22621 0.0
C1914 C 0.33779 0.01586 0.19851 0.0
H1915 H 0.32624 0.95115 0.24636 0.0
H1916 H 0.33335 0.00857 0.2494 0.0
S1917 S 0.34277 0.98519 0.11562 0.0
N1918 N 0.33647 0.95321 0.13757 0.0
N1919 N 0.34398 0.0153 0.14085 0.0
C1920 C 0.33914 0.99997 0.16897 0.0
C1921 C 0.33508 0.96624 0.16718 0.0
C1922 C 0.18874 0.99639 0.67042 0.0
C1923 C 0.16626 0.98191 0.69067 0.0
C1924 C 0.19171 0.02957 0.66867 0.0
C1925 C 0.17186 0.04982 0.68654 0.0
H1926 H 0.20471 0.98197 0.65619 0.0
H1927 H 0.20969 0.03941 0.65297 0.0
S1928 S 0.1085 0.02402 0.74259 0.0
N1929 N 0.12359 0.99038 0.72887 0.0
N1930 N 0.12854 0.05292 0.72489 0.0
C1931 C 0.14885 0.03574 0.70648 0.0
C1932 C 0.14626 0.00178 0.70878 0.0
C1933 C 0.70653 0.46787 0.29521 0.0
C1934 C 0.68301 0.45373 0.31447 0.0
C1935 C 0.7064 0.50055 0.28879 0.0
C1936 C 0.68296 0.52077 0.30167 0.0
H1937 H 0.7258 0.45366 0.28557 0.0
H1938 H 0.72575 0.51013 0.27464 0.0
S1939 S 0.6144 0.49514 0.35158 0.0
N1940 N 0.63429 0.46195 0.34461 0.0
N1941 N 0.63407 0.52362 0.33286 0.0
C1942 C 0.6583 0.50669 0.31971 0.0
C1943 C 0.65831 0.47315 0.32601 0.0
loop_
_geom_bond_atom_site_label_1
_geom_bond_atom_site_label_2
_geom_bond_distance
_geom_bond_site_symmetry_2
_ccdc_geom_bond_type
Co0 O2 2.143 . S
Co0 O8 2.074 . S
Co0 O11 2.093 . S
Co0 O24 2.097 . S
Co0 N41 2.151 . S
Co0 N49 2.214 . S
Co1 O2 2.160 . S
Co1 O7 2.058 . S
Co1 O17 2.057 . S
Co1 O32 2.037 . S
Co1 N36 2.145 . S
Co1 N57 2.257 . S
O2 Co0 2.143 . S
O2 Co1 2.160 . S
C3 O4 1.278 . S
C3 O11 1.224 . S
O4 C3 1.278 . S
C5 O6 1.245 . S
C5 O17 1.232 . S
O6 C5 1.245 . S
O7 Co1 2.058 . S
O7 C33 1.269 . S
O8 Co0 2.074 . S
O8 C33 1.257 . S
H9 C34 0.930 . S
H10 C40 0.930 . S
O11 Co0 2.093 . S
O11 C3 1.224 . S
H12 C44 0.929 . S
H13 C46 0.930 . S
H14 C47 0.930 . S
H15 C45 0.929 . S
H16 C48 0.928 . S
O17 Co1 2.057 . S
O17 C5 1.232 . S
H18 C37 0.929 . S
H19 C38 0.929 . S
H20 C50 0.931 . S
H21 C42 0.929 . S
H22 C51 0.930 . S
H23 C43 0.931 . S
O24 Co0 2.097 . S
O24 C52 1.214 . S
H25 C53 0.929 . S
H26 C54 0.929 . S
H27 C55 0.930 . S
H28 C56 0.929 . S
H29 C58 0.930 . S
H30 C35 0.930 . S
H31 C39 0.930 . S
O32 Co1 2.037 . S
O32 C52 1.234 . S
C33 O7 1.269 . S
C33 O8 1.257 . S
C34 H9 0.930 . S
C34 C37 1.388 . S
C34 C39 1.418 . S
C35 H30 0.930 . S
C35 C38 1.404 . S
C35 C39 1.353 . S
N36 Co1 2.145 . S
N36 C37 1.397 . S
N36 C38 1.334 . S
C37 H18 0.929 . S
C37 C34 1.388 . S
C37 N36 1.397 . S
C38 H19 0.929 . S
C38 C35 1.404 . S
C38 N36 1.334 . S
C39 H31 0.930 . S
C39 C34 1.418 . S
C39 C35 1.353 . S
C40 H10 0.930 . S
C40 N41 1.330 . S
C40 C42 1.446 . S
N41 Co0 2.151 . S
N41 C40 1.330 . S
N41 C45 1.418 . S
C42 H21 0.929 . S
C42 C40 1.446 . S
C42 C43 1.332 . S
C43 H23 0.931 . S
C43 C42 1.332 . S
C43 C44 1.267 . S
C44 H12 0.929 . S
C44 C43 1.267 . S
C44 C45 1.251 . S
C45 H15 0.929 . S
C45 N41 1.418 . S
C45 C44 1.251 . S
C46 H13 0.930 . S
C46 C48 1.406 . S
C46 C51 1.261 . S
C47 H14 0.930 . S
C47 N49 1.325 . S
C47 C50 1.357 . S
C48 H16 0.928 . S
C48 C46 1.406 . S
C48 N49 1.261 . S
N49 Co0 2.214 . S
N49 C47 1.325 . S
N49 C48 1.261 . S
C50 H20 0.931 . S
C50 C47 1.357 . S
C50 C51 1.312 . S
C51 H22 0.930 . S
C51 C46 1.261 . S
C51 C50 1.312 . S
C52 O24 1.214 . S
C52 O32 1.234 . S
C53 H25 0.929 . S
C53 C56 1.391 . S
C53 C58 1.391 . S
C54 H26 0.929 . S
C54 C55 1.390 . S
C54 N57 1.391 . S
C55 H27 0.930 . S
C55 C54 1.390 . S
C55 C56 1.392 . S
C56 H28 0.929 . S
C56 C53 1.391 . S
C56 C55 1.392 . S
N57 Co1 2.257 . S
N57 C54 1.391 . S
N57 C58 1.388 . S
C58 H29 0.930 . S
C58 C53 1.391 . S
C58 N57 1.388 . S
Co59 O61 2.143 . S
Co59 O67 2.074 . S
Co59 O70 2.093 . S
Co59 O83 2.097 . S
Co59 N100 2.151 . S
Co59 N108 2.214 . S
Co60 O61 2.160 . S
Co60 O66 2.058 . S
Co60 O76 2.057 . S
Co60 O91 2.037 . S
Co60 N95 2.145 . S
Co60 N116 2.257 . S
O61 Co59 2.143 . S
O61 Co60 2.160 . S
C62 O63 1.278 . S
C62 O70 1.224 . S
O63 C62 1.278 . S
C64 O65 1.245 . S
C64 O76 1.232 . S
O65 C64 1.245 . S
O66 Co60 2.058 . S
O66 C92 1.269 . S
O67 Co59 2.074 . S
O67 C92 1.257 . S
H68 C93 0.930 . S
H69 C99 0.930 . S
O70 Co59 2.093 . S
O70 C62 1.224 . S
H71 C103 0.929 . S
H72 C105 0.930 . S
H73 C106 0.930 . S
H74 C104 0.929 . S
H75 C107 0.928 . S
O76 Co60 2.057 . S
O76 C64 1.232 . S
H77 C96 0.929 . S
H78 C97 0.929 . S
H79 C109 0.931 . S
H80 C101 0.929 . S
H81 C110 0.930 . S
H82 C102 0.931 . S
O83 Co59 2.097 . S
O83 C111 1.214 . S
H84 C112 0.929 . S
H85 C113 0.929 . S
H86 C114 0.930 . S
H87 C115 0.929 . S
H88 C117 0.930 . S
H89 C94 0.930 . S
H90 C98 0.930 . S
O91 Co60 2.037 . S
O91 C111 1.234 . S
C92 O66 1.269 . S
C92 O67 1.257 . S
C93 H68 0.930 . S
C93 C96 1.388 . S
C93 C98 1.418 . S
C94 H89 0.930 . S
C94 C97 1.404 . S
C94 C98 1.353 . S
N95 Co60 2.145 . S
N95 C96 1.397 . S
N95 C97 1.334 . S
C96 H77 0.929 . S
C96 C93 1.388 . S
C96 N95 1.397 . S
C97 H78 0.929 . S
C97 C94 1.404 . S
C97 N95 1.334 . S
C98 H90 0.930 . S
C98 C93 1.418 . S
C98 C94 1.353 . S
C99 H69 0.930 . S
C99 N100 1.330 . S
C99 C101 1.446 . S
N100 Co59 2.151 . S
N100 C99 1.330 . S
N100 C104 1.418 . S
C101 H80 0.929 . S
C101 C99 1.446 . S
C101 C102 1.332 . S
C102 H82 0.931 . S
C102 C101 1.332 . S
C102 C103 1.267 . S
C103 H71 0.929 . S
C103 C102 1.267 . S
C103 C104 1.251 . S
C104 H74 0.929 . S
C104 N100 1.418 . S
C104 C103 1.251 . S
C105 H72 0.930 . S
C105 C107 1.406 . S
C105 C110 1.261 . S
C106 H73 0.930 . S
C106 N108 1.325 . S
C106 C109 1.357 . S
C107 H75 0.928 . S
C107 C105 1.406 . S
C107 N108 1.261 . S
N108 Co59 2.214 . S
N108 C106 1.325 . S
N108 C107 1.261 . S
C109 H79 0.931 . S
C109 C106 1.357 . S
C109 C110 1.312 . S
C110 H81 0.930 . S
C110 C105 1.261 . S
C110 C109 1.312 . S
C111 O83 1.214 . S
C111 O91 1.234 . S
C112 H84 0.929 . S
C112 C115 1.391 . S
C112 C117 1.391 . S
C113 H85 0.929 . S
C113 C114 1.390 . S
C113 N116 1.391 . S
C114 H86 0.930 . S
C114 C113 1.390 . S
C114 C115 1.392 . S
C115 H87 0.929 . S
C115 C112 1.391 . S
C115 C114 1.392 . S
N116 Co60 2.257 . S
N116 C113 1.391 . S
N116 C117 1.388 . S
C117 H88 0.930 . S
C117 C112 1.391 . S
C117 N116 1.388 . S
Co118 O120 2.143 . S
Co118 O126 2.074 . S
Co118 O129 2.093 . S
Co118 O142 2.097 . S
Co118 N159 2.151 . S
Co118 N167 2.214 . S
Co119 O120 2.160 . S
Co119 O125 2.058 . S
Co119 O135 2.057 . S
Co119 O150 2.037 . S
Co119 N154 2.145 . S
Co119 N175 2.257 . S
O120 Co118 2.143 . S
O120 Co119 2.160 . S
C121 O122 1.278 . S
C121 O129 1.224 . S
O122 C121 1.278 . S
C123 O124 1.245 . S
C123 O135 1.232 . S
O124 C123 1.245 . S
O125 Co119 2.058 . S
O125 C151 1.269 . S
O126 Co118 2.074 . S
O126 C151 1.257 . S
H127 C152 0.930 . S
H128 C158 0.930 . S
O129 Co118 2.093 . S
O129 C121 1.224 . S
H130 C162 0.929 . S
H131 C164 0.930 . S
H132 C165 0.930 . S
H133 C163 0.929 . S
H134 C166 0.928 . S
O135 Co119 2.057 . S
O135 C123 1.232 . S
H136 C155 0.929 . S
H137 C156 0.929 . S
H138 C168 0.931 . S
H139 C160 0.929 . S
H140 C169 0.930 . S
H141 C161 0.931 . S
O142 Co118 2.097 . S
O142 C170 1.214 . S
H143 C171 0.929 . S
H144 C172 0.929 . S
H145 C173 0.930 . S
H146 C174 0.929 . S
H147 C176 0.930 . S
H148 C153 0.930 . S
H149 C157 0.930 . S
O150 Co119 2.037 . S
O150 C170 1.234 . S
C151 O125 1.269 . S
C151 O126 1.257 . S
C152 H127 0.930 . S
C152 C155 1.388 . S
C152 C157 1.418 . S
C153 H148 0.930 . S
C153 C156 1.404 . S
C153 C157 1.353 . S
N154 Co119 2.145 . S
N154 C155 1.397 . S
N154 C156 1.334 . S
C155 H136 0.929 . S
C155 C152 1.388 . S
C155 N154 1.397 . S
C156 H137 0.929 . S
C156 C153 1.404 . S
C156 N154 1.334 . S
C157 H149 0.930 . S
C157 C152 1.418 . S
C157 C153 1.353 . S
C158 H128 0.930 . S
C158 N159 1.330 . S
C158 C160 1.446 . S
N159 Co118 2.151 . S
N159 C158 1.330 . S
N159 C163 1.418 . S
C160 H139 0.929 . S
C160 C158 1.446 . S
C160 C161 1.332 . S
C161 H141 0.931 . S
C161 C160 1.332 . S
C161 C162 1.267 . S
C162 H130 0.929 . S
C162 C161 1.267 . S
C162 C163 1.251 . S
C163 H133 0.929 . S
C163 N159 1.418 . S
C163 C162 1.251 . S
C164 H131 0.930 . S
C164 C166 1.406 . S
C164 C169 1.261 . S
C165 H132 0.930 . S
C165 N167 1.325 . S
C165 C168 1.357 . S
C166 H134 0.928 . S
C166 C164 1.406 . S
C166 N167 1.261 . S
N167 Co118 2.214 . S
N167 C165 1.325 . S
N167 C166 1.261 . S
C168 H138 0.931 . S
C168 C165 1.357 . S
C168 C169 1.312 . S
C169 H140 0.930 . S
C169 C164 1.261 . S
C169 C168 1.312 . S
C170 O142 1.214 . S
C170 O150 1.234 . S
C171 H143 0.929 . S
C171 C174 1.391 . S
C171 C176 1.391 . S
C172 H144 0.929 . S
C172 C173 1.390 . S
C172 N175 1.391 . S
C173 H145 0.930 . S
C173 C172 1.390 . S
C173 C174 1.392 . S
C174 H146 0.929 . S
C174 C171 1.391 . S
C174 C173 1.392 . S
N175 Co119 2.257 . S
N175 C172 1.391 . S
N175 C176 1.388 . S
C176 H147 0.930 . S
C176 C171 1.391 . S
C176 N175 1.388 . S
Co177 O179 2.143 . S
Co177 O185 2.074 . S
Co177 O188 2.093 . S
Co177 O201 2.097 . S
Co177 N218 2.151 . S
Co177 N226 2.214 . S
Co178 O179 2.160 . S
Co178 O184 2.058 . S
Co178 O194 2.057 . S
Co178 O209 2.037 . S
Co178 N213 2.145 . S
Co178 N234 2.257 . S
O179 Co177 2.143 . S
O179 Co178 2.160 . S
C180 O181 1.278 . S
C180 O188 1.224 . S
O181 C180 1.278 . S
C182 O183 1.245 . S
C182 O194 1.232 . S
O183 C182 1.245 . S
O184 Co178 2.058 . S
O184 C210 1.269 . S
O185 Co177 2.074 . S
O185 C210 1.257 . S
H186 C211 0.930 . S
H187 C217 0.930 . S
O188 Co177 2.093 . S
O188 C180 1.224 . S
H189 C221 0.929 . S
H190 C223 0.930 . S
H191 C224 0.930 . S
H192 C222 0.929 . S
H193 C225 0.928 . S
O194 Co178 2.057 . S
O194 C182 1.232 . S
H195 C214 0.929 . S
H196 C215 0.929 . S
H197 C227 0.931 . S
H198 C219 0.929 . S
H199 C228 0.930 . S
H200 C220 0.931 . S
O201 Co177 2.097 . S
O201 C229 1.214 . S
H202 C230 0.929 . S
H203 C231 0.929 . S
H204 C232 0.930 . S
H205 C233 0.929 . S
H206 C235 0.930 . S
H207 C212 0.930 . S
H208 C216 0.930 . S
O209 Co178 2.037 . S
O209 C229 1.234 . S
C210 O184 1.269 . S
C210 O185 1.257 . S
C211 H186 0.930 . S
C211 C214 1.388 . S
C211 C216 1.418 . S
C212 H207 0.930 . S
C212 C215 1.404 . S
C212 C216 1.353 . S
N213 Co178 2.145 . S
N213 C214 1.397 . S
N213 C215 1.334 . S
C214 H195 0.929 . S
C214 C211 1.388 . S
C214 N213 1.397 . S
C215 H196 0.929 . S
C215 C212 1.404 . S
C215 N213 1.334 . S
C216 H208 0.930 . S
C216 C211 1.418 . S
C216 C212 1.353 . S
C217 H187 0.930 . S
C217 N218 1.330 . S
C217 C219 1.446 . S
N218 Co177 2.151 . S
N218 C217 1.330 . S
N218 C222 1.418 . S
C219 H198 0.929 . S
C219 C217 1.446 . S
C219 C220 1.332 . S
C220 H200 0.931 . S
C220 C219 1.332 . S
C220 C221 1.267 . S
C221 H189 0.929 . S
C221 C220 1.267 . S
C221 C222 1.251 . S
C222 H192 0.929 . S
C222 N218 1.418 . S
C222 C221 1.251 . S
C223 H190 0.930 . S
C223 C225 1.406 . S
C223 C228 1.261 . S
C224 H191 0.930 . S
C224 N226 1.325 . S
C224 C227 1.357 . S
C225 H193 0.928 . S
C225 C223 1.406 . S
C225 N226 1.261 . S
N226 Co177 2.214 . S
N226 C224 1.325 . S
N226 C225 1.261 . S
C227 H197 0.931 . S
C227 C224 1.357 . S
C227 C228 1.312 . S
C228 H199 0.930 . S
C228 C223 1.261 . S
C228 C227 1.312 . S
C229 O201 1.214 . S
C229 O209 1.234 . S
C230 H202 0.929 . S
C230 C233 1.391 . S
C230 C235 1.391 . S
C231 H203 0.929 . S
C231 C232 1.390 . S
C231 N234 1.391 . S
C232 H204 0.930 . S
C232 C231 1.390 . S
C232 C233 1.392 . S
C233 H205 0.929 . S
C233 C230 1.391 . S
C233 C232 1.392 . S
N234 Co178 2.257 . S
N234 C231 1.391 . S
N234 C235 1.388 . S
C235 H206 0.930 . S
C235 C230 1.391 . S
C235 N234 1.388 . S
Co236 O238 2.143 . S
Co236 O244 2.074 . S
Co236 O247 2.093 . S
Co236 O260 2.097 . S
Co236 N277 2.151 . S
Co236 N285 2.214 . S
Co237 O238 2.160 . S
Co237 O243 2.058 . S
Co237 O253 2.057 . S
Co237 O268 2.037 . S
Co237 N272 2.145 . S
Co237 N293 2.257 . S
O238 Co236 2.143 . S
O238 Co237 2.160 . S
C239 O240 1.278 . S
C239 O247 1.224 . S
O240 C239 1.278 . S
C241 O242 1.245 . S
C241 O253 1.232 . S
O242 C241 1.245 . S
O243 Co237 2.058 . S
O243 C269 1.269 . S
O244 Co236 2.074 . S
O244 C269 1.257 . S
H245 C270 0.930 . S
H246 C276 0.930 . S
O247 Co236 2.093 . S
O247 C239 1.224 . S
H248 C280 0.929 . S
H249 C282 0.930 . S
H250 C283 0.930 . S
H251 C281 0.929 . S
H252 C284 0.928 . S
O253 Co237 2.057 . S
O253 C241 1.232 . S
H254 C273 0.929 . S
H255 C274 0.929 . S
H256 C286 0.931 . S
H257 C278 0.929 . S
H258 C287 0.930 . S
H259 C279 0.931 . S
O260 Co236 2.097 . S
O260 C288 1.214 . S
H261 C289 0.929 . S
H262 C290 0.929 . S
H263 C291 0.930 . S
H264 C292 0.929 . S
H265 C294 0.930 . S
H266 C271 0.930 . S
H267 C275 0.930 . S
O268 Co237 2.037 . S
O268 C288 1.234 . S
C269 O243 1.269 . S
C269 O244 1.257 . S
C270 H245 0.930 . S
C270 C273 1.388 . S
C270 C275 1.418 . S
C271 H266 0.930 . S
C271 C274 1.404 . S
C271 C275 1.353 . S
N272 Co237 2.145 . S
N272 C273 1.397 . S
N272 C274 1.334 . S
C273 H254 0.929 . S
C273 C270 1.388 . S
C273 N272 1.397 . S
C274 H255 0.929 . S
C274 C271 1.404 . S
C274 N272 1.334 . S
C275 H267 0.930 . S
C275 C270 1.418 . S
C275 C271 1.353 . S
C276 H246 0.930 . S
C276 N277 1.330 . S
C276 C278 1.446 . S
N277 Co236 2.151 . S
N277 C276 1.330 . S
N277 C281 1.418 . S
C278 H257 0.929 . S
C278 C276 1.446 . S
C278 C279 1.332 . S
C279 H259 0.931 . S
C279 C278 1.332 . S
C279 C280 1.267 . S
C280 H248 0.929 . S
C280 C279 1.267 . S
C280 C281 1.251 . S
C281 H251 0.929 . S
C281 N277 1.418 . S
C281 C280 1.251 . S
C282 H249 0.930 . S
C282 C284 1.406 . S
C282 C287 1.261 . S
C283 H250 0.930 . S
C283 N285 1.325 . S
C283 C286 1.357 . S
C284 H252 0.928 . S
C284 C282 1.406 . S
C284 N285 1.261 . S
N285 Co236 2.214 . S
N285 C283 1.325 . S
N285 C284 1.261 . S
C286 H256 0.931 . S
C286 C283 1.357 . S
C286 C287 1.312 . S
C287 H258 0.930 . S
C287 C282 1.261 . S
C287 C286 1.312 . S
C288 O260 1.214 . S
C288 O268 1.234 . S
C289 H261 0.929 . S
C289 C292 1.391 . S
C289 C294 1.391 . S
C290 H262 0.929 . S
C290 C291 1.390 . S
C290 N293 1.391 . S
C291 H263 0.930 . S
C291 C290 1.390 . S
C291 C292 1.392 . S
C292 H264 0.929 . S
C292 C289 1.391 . S
C292 C291 1.392 . S
N293 Co237 2.257 . S
N293 C290 1.391 . S
N293 C294 1.388 . S
C294 H265 0.930 . S
C294 C289 1.391 . S
C294 N293 1.388 . S
Co295 O297 2.143 . S
Co295 O303 2.074 . S
Co295 O306 2.093 . S
Co295 O319 2.097 . S
Co295 N336 2.151 . S
Co295 N344 2.214 . S
Co296 O297 2.160 . S
Co296 O302 2.058 . S
Co296 O312 2.057 . S
Co296 O327 2.037 . S
Co296 N331 2.145 . S
Co296 N352 2.257 . S
O297 Co295 2.143 . S
O297 Co296 2.160 . S
C298 O299 1.278 . S
C298 O306 1.224 . S
O299 C298 1.278 . S
C300 O301 1.245 . S
C300 O312 1.232 . S
O301 C300 1.245 . S
O302 Co296 2.058 . S
O302 C328 1.269 . S
O303 Co295 2.074 . S
O303 C328 1.257 . S
H304 C329 0.930 . S
H305 C335 0.930 . S
O306 Co295 2.093 . S
O306 C298 1.224 . S
H307 C339 0.929 . S
H308 C341 0.930 . S
H309 C342 0.930 . S
H310 C340 0.929 . S
H311 C343 0.928 . S
O312 Co296 2.057 . S
O312 C300 1.232 . S
H313 C332 0.929 . S
H314 C333 0.929 . S
H315 C345 0.931 . S
H316 C337 0.929 . S
H317 C346 0.930 . S
H318 C338 0.931 . S
O319 Co295 2.097 . S
O319 C347 1.214 . S
H320 C348 0.929 . S
H321 C349 0.929 . S
H322 C350 0.930 . S
H323 C351 0.929 . S
H324 C353 0.930 . S
H325 C330 0.930 . S
H326 C334 0.930 . S
O327 Co296 2.037 . S
O327 C347 1.234 . S
C328 O302 1.269 . S
C328 O303 1.257 . S
C329 H304 0.930 . S
C329 C332 1.388 . S
C329 C334 1.418 . S
C330 H325 0.930 . S
C330 C333 1.404 . S
C330 C334 1.353 . S
N331 Co296 2.145 . S
N331 C332 1.397 . S
N331 C333 1.334 . S
C332 H313 0.929 . S
C332 C329 1.388 . S
C332 N331 1.397 . S
C333 H314 0.929 . S
C333 C330 1.404 . S
C333 N331 1.334 . S
C334 H326 0.930 . S
C334 C329 1.418 . S
C334 C330 1.353 . S
C335 H305 0.930 . S
C335 N336 1.330 . S
C335 C337 1.446 . S
N336 Co295 2.151 . S
N336 C335 1.330 . S
N336 C340 1.418 . S
C337 H316 0.929 . S
C337 C335 1.446 . S
C337 C338 1.332 . S
C338 H318 0.931 . S
C338 C337 1.332 . S
C338 C339 1.267 . S
C339 H307 0.929 . S
C339 C338 1.267 . S
C339 C340 1.251 . S
C340 H310 0.929 . S
C340 N336 1.418 . S
C340 C339 1.251 . S
C341 H308 0.930 . S
C341 C343 1.406 . S
C341 C346 1.261 . S
C342 H309 0.930 . S
C342 N344 1.325 . S
C342 C345 1.357 . S
C343 H311 0.928 . S
C343 C341 1.406 . S
C343 N344 1.261 . S
N344 Co295 2.214 . S
N344 C342 1.325 . S
N344 C343 1.261 . S
C345 H315 0.931 . S
C345 C342 1.357 . S
C345 C346 1.312 . S
C346 H317 0.930 . S
C346 C341 1.261 . S
C346 C345 1.312 . S
C347 O319 1.214 . S
C347 O327 1.234 . S
C348 H320 0.929 . S
C348 C351 1.391 . S
C348 C353 1.391 . S
C349 H321 0.929 . S
C349 C350 1.390 . S
C349 N352 1.391 . S
C350 H322 0.930 . S
C350 C349 1.390 . S
C350 C351 1.392 . S
C351 H323 0.929 . S
C351 C348 1.391 . S
C351 C350 1.392 . S
N352 Co296 2.257 . S
N352 C349 1.391 . S
N352 C353 1.388 . S
C353 H324 0.930 . S
C353 C348 1.391 . S
C353 N352 1.388 . S
Co354 O356 2.143 . S
Co354 O362 2.074 . S
Co354 O365 2.093 . S
Co354 O378 2.097 . S
Co354 N395 2.151 . S
Co354 N403 2.214 . S
Co355 O356 2.160 . S
Co355 O361 2.058 . S
Co355 O371 2.057 . S
Co355 O386 2.037 . S
Co355 N390 2.145 . S
Co355 N411 2.257 . S
O356 Co354 2.143 . S
O356 Co355 2.160 . S
C357 O358 1.278 . S
C357 O365 1.224 . S
O358 C357 1.278 . S
C359 O360 1.245 . S
C359 O371 1.232 . S
O360 C359 1.245 . S
O361 Co355 2.058 . S
O361 C387 1.269 . S
O362 Co354 2.074 . S
O362 C387 1.257 . S
H363 C388 0.930 . S
H364 C394 0.930 . S
O365 Co354 2.093 . S
O365 C357 1.224 . S
H366 C398 0.929 . S
H367 C400 0.930 . S
H368 C401 0.930 . S
H369 C399 0.929 . S
H370 C402 0.928 . S
O371 Co355 2.057 . S
O371 C359 1.232 . S
H372 C391 0.929 . S
H373 C392 0.929 . S
H374 C404 0.931 . S
H375 C396 0.929 . S
H376 C405 0.930 . S
H377 C397 0.931 . S
O378 Co354 2.097 . S
O378 C406 1.214 . S
H379 C407 0.929 . S
H380 C408 0.929 . S
H381 C409 0.930 . S
H382 C410 0.929 . S
H383 C412 0.930 . S
H384 C389 0.930 . S
H385 C393 0.930 . S
O386 Co355 2.037 . S
O386 C406 1.234 . S
C387 O361 1.269 . S
C387 O362 1.257 . S
C388 H363 0.930 . S
C388 C391 1.388 . S
C388 C393 1.418 . S
C389 H384 0.930 . S
C389 C392 1.404 . S
C389 C393 1.353 . S
N390 Co355 2.145 . S
N390 C391 1.397 . S
N390 C392 1.334 . S
C391 H372 0.929 . S
C391 C388 1.388 . S
C391 N390 1.397 . S
C392 H373 0.929 . S
C392 C389 1.404 . S
C392 N390 1.334 . S
C393 H385 0.930 . S
C393 C388 1.418 . S
C393 C389 1.353 . S
C394 H364 0.930 . S
C394 N395 1.330 . S
C394 C396 1.446 . S
N395 Co354 2.151 . S
N395 C394 1.330 . S
N395 C399 1.418 . S
C396 H375 0.929 . S
C396 C394 1.446 . S
C396 C397 1.332 . S
C397 H377 0.931 . S
C397 C396 1.332 . S
C397 C398 1.267 . S
C398 H366 0.929 . S
C398 C397 1.267 . S
C398 C399 1.251 . S
C399 H369 0.929 . S
C399 N395 1.418 . S
C399 C398 1.251 . S
C400 H367 0.930 . S
C400 C402 1.406 . S
C400 C405 1.261 . S
C401 H368 0.930 . S
C401 N403 1.325 . S
C401 C404 1.357 . S
C402 H370 0.928 . S
C402 C400 1.406 . S
C402 N403 1.261 . S
N403 Co354 2.214 . S
N403 C401 1.325 . S
N403 C402 1.261 . S
C404 H374 0.931 . S
C404 C401 1.357 . S
C404 C405 1.312 . S
C405 H376 0.930 . S
C405 C400 1.261 . S
C405 C404 1.312 . S
C406 O378 1.214 . S
C406 O386 1.234 . S
C407 H379 0.929 . S
C407 C410 1.391 . S
C407 C412 1.391 . S
C408 H380 0.929 . S
C408 C409 1.390 . S
C408 N411 1.391 . S
C409 H381 0.930 . S
C409 C408 1.390 . S
C409 C410 1.392 . S
C410 H382 0.929 . S
C410 C407 1.391 . S
C410 C409 1.392 . S
N411 Co355 2.257 . S
N411 C408 1.391 . S
N411 C412 1.388 . S
C412 H383 0.930 . S
C412 C407 1.391 . S
C412 N411 1.388 . S
Co413 O415 2.143 . S
Co413 O421 2.074 . S
Co413 O424 2.093 . S
Co413 O437 2.097 . S
Co413 N454 2.151 . S
Co413 N462 2.214 . S
Co414 O415 2.160 . S
Co414 O420 2.058 . S
Co414 O430 2.057 . S
Co414 O445 2.037 . S
Co414 N449 2.145 . S
Co414 N470 2.257 . S
O415 Co413 2.143 . S
O415 Co414 2.160 . S
C416 O417 1.278 . S
C416 O424 1.224 . S
O417 C416 1.278 . S
C418 O419 1.245 . S
C418 O430 1.232 . S
O419 C418 1.245 . S
O420 Co414 2.058 . S
O420 C446 1.269 . S
O421 Co413 2.074 . S
O421 C446 1.257 . S
H422 C447 0.930 . S
H423 C453 0.930 . S
O424 Co413 2.093 . S
O424 C416 1.224 . S
H425 C457 0.929 . S
H426 C459 0.930 . S
H427 C460 0.930 . S
H428 C458 0.929 . S
H429 C461 0.928 . S
O430 Co414 2.057 . S
O430 C418 1.232 . S
H431 C450 0.929 . S
H432 C451 0.929 . S
H433 C463 0.931 . S
H434 C455 0.929 . S
H435 C464 0.930 . S
H436 C456 0.931 . S
O437 Co413 2.097 . S
O437 C465 1.214 . S
H438 C466 0.929 . S
H439 C467 0.929 . S
H440 C468 0.930 . S
H441 C469 0.929 . S
H442 C471 0.930 . S
H443 C448 0.930 . S
H444 C452 0.930 . S
O445 Co414 2.037 . S
O445 C465 1.234 . S
C446 O420 1.269 . S
C446 O421 1.257 . S
C447 H422 0.930 . S
C447 C450 1.388 . S
C447 C452 1.418 . S
C448 H443 0.930 . S
C448 C451 1.404 . S
C448 C452 1.353 . S
N449 Co414 2.145 . S
N449 C450 1.397 . S
N449 C451 1.334 . S
C450 H431 0.929 . S
C450 C447 1.388 . S
C450 N449 1.397 . S
C451 H432 0.929 . S
C451 C448 1.404 . S
C451 N449 1.334 . S
C452 H444 0.930 . S
C452 C447 1.418 . S
C452 C448 1.353 . S
C453 H423 0.930 . S
C453 N454 1.330 . S
C453 C455 1.446 . S
N454 Co413 2.151 . S
N454 C453 1.330 . S
N454 C458 1.418 . S
C455 H434 0.929 . S
C455 C453 1.446 . S
C455 C456 1.332 . S
C456 H436 0.931 . S
C456 C455 1.332 . S
C456 C457 1.267 . S
C457 H425 0.929 . S
C457 C456 1.267 . S
C457 C458 1.251 . S
C458 H428 0.929 . S
C458 N454 1.418 . S
C458 C457 1.251 . S
C459 H426 0.930 . S
C459 C461 1.406 . S
C459 C464 1.261 . S
C460 H427 0.930 . S
C460 N462 1.325 . S
C460 C463 1.357 . S
C461 H429 0.928 . S
C461 C459 1.406 . S
C461 N462 1.261 . S
N462 Co413 2.214 . S
N462 C460 1.325 . S
N462 C461 1.261 . S
C463 H433 0.931 . S
C463 C460 1.357 . S
C463 C464 1.312 . S
C464 H435 0.930 . S
C464 C459 1.261 . S
C464 C463 1.312 . S
C465 O437 1.214 . S
C465 O445 1.234 . S
C466 H438 0.929 . S
C466 C469 1.391 . S
C466 C471 1.391 . S
C467 H439 0.929 . S
C467 C468 1.390 . S
C467 N470 1.391 . S
C468 H440 0.930 . S
C468 C467 1.390 . S
C468 C469 1.392 . S
C469 H441 0.929 . S
C469 C466 1.391 . S
C469 C468 1.392 . S
N470 Co414 2.257 . S
N470 C467 1.391 . S
N470 C471 1.388 . S
C471 H442 0.930 . S
C471 C466 1.391 . S
C471 N470 1.388 . S
Co472 O474 2.143 . S
Co472 O480 2.074 . S
Co472 O483 2.093 . S
Co472 O496 2.097 . S
Co472 N513 2.151 . S
Co472 N521 2.214 . S
Co473 O474 2.160 . S
Co473 O479 2.058 . S
Co473 O489 2.057 . S
Co473 O504 2.037 . S
Co473 N508 2.145 . S
Co473 N529 2.257 . S
O474 Co472 2.143 . S
O474 Co473 2.160 . S
C475 O476 1.278 . S
C475 O483 1.224 . S
O476 C475 1.278 . S
C477 O478 1.245 . S
C477 O489 1.232 . S
O478 C477 1.245 . S
O479 Co473 2.058 . S
O479 C505 1.269 . S
O480 Co472 2.074 . S
O480 C505 1.257 . S
H481 C506 0.930 . S
H482 C512 0.930 . S
O483 Co472 2.093 . S
O483 C475 1.224 . S
H484 C516 0.929 . S
H485 C518 0.930 . S
H486 C519 0.930 . S
H487 C517 0.929 . S
H488 C520 0.928 . S
O489 Co473 2.057 . S
O489 C477 1.232 . S
H490 C509 0.929 . S
H491 C510 0.929 . S
H492 C522 0.931 . S
H493 C514 0.929 . S
H494 C523 0.930 . S
H495 C515 0.931 . S
O496 Co472 2.097 . S
O496 C524 1.214 . S
H497 C525 0.929 . S
H498 C526 0.929 . S
H499 C527 0.930 . S
H500 C528 0.929 . S
H501 C530 0.930 . S
H502 C507 0.930 . S
H503 C511 0.930 . S
O504 Co473 2.037 . S
O504 C524 1.234 . S
C505 O479 1.269 . S
C505 O480 1.257 . S
C506 H481 0.930 . S
C506 C509 1.388 . S
C506 C511 1.418 . S
C507 H502 0.930 . S
C507 C510 1.404 . S
C507 C511 1.353 . S
N508 Co473 2.145 . S
N508 C509 1.397 . S
N508 C510 1.334 . S
C509 H490 0.929 . S
C509 C506 1.388 . S
C509 N508 1.397 . S
C510 H491 0.929 . S
C510 C507 1.404 . S
C510 N508 1.334 . S
C511 H503 0.930 . S
C511 C506 1.418 . S
C511 C507 1.353 . S
C512 H482 0.930 . S
C512 N513 1.330 . S
C512 C514 1.446 . S
N513 Co472 2.151 . S
N513 C512 1.330 . S
N513 C517 1.418 . S
C514 H493 0.929 . S
C514 C512 1.446 . S
C514 C515 1.332 . S
C515 H495 0.931 . S
C515 C514 1.332 . S
C515 C516 1.267 . S
C516 H484 0.929 . S
C516 C515 1.267 . S
C516 C517 1.251 . S
C517 H487 0.929 . S
C517 N513 1.418 . S
C517 C516 1.251 . S
C518 H485 0.930 . S
C518 C520 1.406 . S
C518 C523 1.261 . S
C519 H486 0.930 . S
C519 N521 1.325 . S
C519 C522 1.357 . S
C520 H488 0.928 . S
C520 C518 1.406 . S
C520 N521 1.261 . S
N521 Co472 2.214 . S
N521 C519 1.325 . S
N521 C520 1.261 . S
C522 H492 0.931 . S
C522 C519 1.357 . S
C522 C523 1.312 . S
C523 H494 0.930 . S
C523 C518 1.261 . S
C523 C522 1.312 . S
C524 O496 1.214 . S
C524 O504 1.234 . S
C525 H497 0.929 . S
C525 C528 1.391 . S
C525 C530 1.391 . S
C526 H498 0.929 . S
C526 C527 1.390 . S
C526 N529 1.391 . S
C527 H499 0.930 . S
C527 C526 1.390 . S
C527 C528 1.392 . S
C528 H500 0.929 . S
C528 C525 1.391 . S
C528 C527 1.392 . S
N529 Co473 2.257 . S
N529 C526 1.391 . S
N529 C530 1.388 . S
C530 H501 0.930 . S
C530 C525 1.391 . S
C530 N529 1.388 . S
Co531 O533 2.143 . S
Co531 O539 2.074 . S
Co531 O542 2.093 . S
Co531 O555 2.097 . S
Co531 N572 2.151 . S
Co531 N580 2.214 . S
Co532 O533 2.160 . S
Co532 O538 2.058 . S
Co532 O548 2.057 . S
Co532 O563 2.037 . S
Co532 N567 2.145 . S
Co532 N588 2.257 . S
O533 Co531 2.143 . S
O533 Co532 2.160 . S
C534 O535 1.278 . S
C534 O542 1.224 . S
O535 C534 1.278 . S
C536 O537 1.245 . S
C536 O548 1.232 . S
O537 C536 1.245 . S
O538 Co532 2.058 . S
O538 C564 1.269 . S
O539 Co531 2.074 . S
O539 C564 1.257 . S
H540 C565 0.930 . S
H541 C571 0.930 . S
O542 Co531 2.093 . S
O542 C534 1.224 . S
H543 C575 0.929 . S
H544 C577 0.930 . S
H545 C578 0.930 . S
H546 C576 0.929 . S
H547 C579 0.928 . S
O548 Co532 2.057 . S
O548 C536 1.232 . S
H549 C568 0.929 . S
H550 C569 0.929 . S
H551 C581 0.931 . S
H552 C573 0.929 . S
H553 C582 0.930 . S
H554 C574 0.931 . S
O555 Co531 2.097 . S
O555 C583 1.214 . S
H556 C584 0.929 . S
H557 C585 0.929 . S
H558 C586 0.930 . S
H559 C587 0.929 . S
H560 C589 0.930 . S
H561 C566 0.930 . S
H562 C570 0.930 . S
O563 Co532 2.037 . S
O563 C583 1.234 . S
C564 O538 1.269 . S
C564 O539 1.257 . S
C565 H540 0.930 . S
C565 C568 1.388 . S
C565 C570 1.418 . S
C566 H561 0.930 . S
C566 C569 1.404 . S
C566 C570 1.353 . S
N567 Co532 2.145 . S
N567 C568 1.397 . S
N567 C569 1.334 . S
C568 H549 0.929 . S
C568 C565 1.388 . S
C568 N567 1.397 . S
C569 H550 0.929 . S
C569 C566 1.404 . S
C569 N567 1.334 . S
C570 H562 0.930 . S
C570 C565 1.418 . S
C570 C566 1.353 . S
C571 H541 0.930 . S
C571 N572 1.330 . S
C571 C573 1.446 . S
N572 Co531 2.151 . S
N572 C571 1.330 . S
N572 C576 1.418 . S
C573 H552 0.929 . S
C573 C571 1.446 . S
C573 C574 1.332 . S
C574 H554 0.931 . S
C574 C573 1.332 . S
C574 C575 1.267 . S
C575 H543 0.929 . S
C575 C574 1.267 . S
C575 C576 1.251 . S
C576 H546 0.929 . S
C576 N572 1.418 . S
C576 C575 1.251 . S
C577 H544 0.930 . S
C577 C579 1.406 . S
C577 C582 1.261 . S
C578 H545 0.930 . S
C578 N580 1.325 . S
C578 C581 1.357 . S
C579 H547 0.928 . S
C579 C577 1.406 . S
C579 N580 1.261 . S
N580 Co531 2.214 . S
N580 C578 1.325 . S
N580 C579 1.261 . S
C581 H551 0.931 . S
C581 C578 1.357 . S
C581 C582 1.312 . S
C582 H553 0.930 . S
C582 C577 1.261 . S
C582 C581 1.312 . S
C583 O555 1.214 . S
C583 O563 1.234 . S
C584 H556 0.929 . S
C584 C587 1.391 . S
C584 C589 1.391 . S
C585 H557 0.929 . S
C585 C586 1.390 . S
C585 N588 1.391 . S
C586 H558 0.930 . S
C586 C585 1.390 . S
C586 C587 1.392 . S
C587 H559 0.929 . S
C587 C584 1.391 . S
C587 C586 1.392 . S
N588 Co532 2.257 . S
N588 C585 1.391 . S
N588 C589 1.388 . S
C589 H560 0.930 . S
C589 C584 1.391 . S
C589 N588 1.388 . S
Co590 O592 2.143 . S
Co590 O598 2.074 . S
Co590 O601 2.093 . S
Co590 O614 2.097 . S
Co590 N631 2.151 . S
Co590 N639 2.214 . S
Co591 O592 2.160 . S
Co591 O597 2.058 . S
Co591 O607 2.057 . S
Co591 O622 2.037 . S
Co591 N626 2.145 . S
Co591 N647 2.257 . S
O592 Co590 2.143 . S
O592 Co591 2.160 . S
C593 O594 1.278 . S
C593 O601 1.224 . S
O594 C593 1.278 . S
C595 O596 1.245 . S
C595 O607 1.232 . S
O596 C595 1.245 . S
O597 Co591 2.058 . S
O597 C623 1.269 . S
O598 Co590 2.074 . S
O598 C623 1.257 . S
H599 C624 0.930 . S
H600 C630 0.930 . S
O601 Co590 2.093 . S
O601 C593 1.224 . S
H602 C634 0.929 . S
H603 C636 0.930 . S
H604 C637 0.930 . S
H605 C635 0.929 . S
H606 C638 0.928 . S
O607 Co591 2.057 . S
O607 C595 1.232 . S
H608 C627 0.929 . S
H609 C628 0.929 . S
H610 C640 0.931 . S
H611 C632 0.929 . S
H612 C641 0.930 . S
H613 C633 0.931 . S
O614 Co590 2.097 . S
O614 C642 1.214 . S
H615 C643 0.929 . S
H616 C644 0.929 . S
H617 C645 0.930 . S
H618 C646 0.929 . S
H619 C648 0.930 . S
H620 C625 0.930 . S
H621 C629 0.930 . S
O622 Co591 2.037 . S
O622 C642 1.234 . S
C623 O597 1.269 . S
C623 O598 1.257 . S
C624 H599 0.930 . S
C624 C627 1.388 . S
C624 C629 1.418 . S
C625 H620 0.930 . S
C625 C628 1.404 . S
C625 C629 1.353 . S
N626 Co591 2.145 . S
N626 C627 1.397 . S
N626 C628 1.334 . S
C627 H608 0.929 . S
C627 C624 1.388 . S
C627 N626 1.397 . S
C628 H609 0.929 . S
C628 C625 1.404 . S
C628 N626 1.334 . S
C629 H621 0.930 . S
C629 C624 1.418 . S
C629 C625 1.353 . S
C630 H600 0.930 . S
C630 N631 1.330 . S
C630 C632 1.446 . S
N631 Co590 2.151 . S
N631 C630 1.330 . S
N631 C635 1.418 . S
C632 H611 0.929 . S
C632 C630 1.446 . S
C632 C633 1.332 . S
C633 H613 0.931 . S
C633 C632 1.332 . S
C633 C634 1.267 . S
C634 H602 0.929 . S
C634 C633 1.267 . S
C634 C635 1.251 . S
C635 H605 0.929 . S
C635 N631 1.418 . S
C635 C634 1.251 . S
C636 H603 0.930 . S
C636 C638 1.406 . S
C636 C641 1.261 . S
C637 H604 0.930 . S
C637 N639 1.325 . S
C637 C640 1.357 . S
C638 H606 0.928 . S
C638 C636 1.406 . S
C638 N639 1.261 . S
N639 Co590 2.214 . S
N639 C637 1.325 . S
N639 C638 1.261 . S
C640 H610 0.931 . S
C640 C637 1.357 . S
C640 C641 1.312 . S
C641 H612 0.930 . S
C641 C636 1.261 . S
C641 C640 1.312 . S
C642 O614 1.214 . S
C642 O622 1.234 . S
C643 H615 0.929 . S
C643 C646 1.391 . S
C643 C648 1.391 . S
C644 H616 0.929 . S
C644 C645 1.390 . S
C644 N647 1.391 . S
C645 H617 0.930 . S
C645 C644 1.390 . S
C645 C646 1.392 . S
C646 H618 0.929 . S
C646 C643 1.391 . S
C646 C645 1.392 . S
N647 Co591 2.257 . S
N647 C644 1.391 . S
N647 C648 1.388 . S
C648 H619 0.930 . S
C648 C643 1.391 . S
C648 N647 1.388 . S
Co649 O651 2.143 . S
Co649 O657 2.074 . S
Co649 O660 2.093 . S
Co649 O673 2.097 . S
Co649 N690 2.151 . S
Co649 N698 2.214 . S
Co650 O651 2.160 . S
Co650 O656 2.058 . S
Co650 O666 2.057 . S
Co650 O681 2.037 . S
Co650 N685 2.145 . S
Co650 N706 2.257 . S
O651 Co649 2.143 . S
O651 Co650 2.160 . S
C652 O653 1.278 . S
C652 O660 1.224 . S
O653 C652 1.278 . S
C654 O655 1.245 . S
C654 O666 1.232 . S
O655 C654 1.245 . S
O656 Co650 2.058 . S
O656 C682 1.269 . S
O657 Co649 2.074 . S
O657 C682 1.257 . S
H658 C683 0.930 . S
H659 C689 0.930 . S
O660 Co649 2.093 . S
O660 C652 1.224 . S
H661 C693 0.929 . S
H662 C695 0.930 . S
H663 C696 0.930 . S
H664 C694 0.929 . S
H665 C697 0.928 . S
O666 Co650 2.057 . S
O666 C654 1.232 . S
H667 C686 0.929 . S
H668 C687 0.929 . S
H669 C699 0.931 . S
H670 C691 0.929 . S
H671 C700 0.930 . S
H672 C692 0.931 . S
O673 Co649 2.097 . S
O673 C701 1.214 . S
H674 C702 0.929 . S
H675 C703 0.929 . S
H676 C704 0.930 . S
H677 C705 0.929 . S
H678 C707 0.930 . S
H679 C684 0.930 . S
H680 C688 0.930 . S
O681 Co650 2.037 . S
O681 C701 1.234 . S
C682 O656 1.269 . S
C682 O657 1.257 . S
C683 H658 0.930 . S
C683 C686 1.388 . S
C683 C688 1.418 . S
C684 H679 0.930 . S
C684 C687 1.404 . S
C684 C688 1.353 . S
N685 Co650 2.145 . S
N685 C686 1.397 . S
N685 C687 1.334 . S
C686 H667 0.929 . S
C686 C683 1.388 . S
C686 N685 1.397 . S
C687 H668 0.929 . S
C687 C684 1.404 . S
C687 N685 1.334 . S
C688 H680 0.930 . S
C688 C683 1.418 . S
C688 C684 1.353 . S
C689 H659 0.930 . S
C689 N690 1.330 . S
C689 C691 1.446 . S
N690 Co649 2.151 . S
N690 C689 1.330 . S
N690 C694 1.418 . S
C691 H670 0.929 . S
C691 C689 1.446 . S
C691 C692 1.332 . S
C692 H672 0.931 . S
C692 C691 1.332 . S
C692 C693 1.267 . S
C693 H661 0.929 . S
C693 C692 1.267 . S
C693 C694 1.251 . S
C694 H664 0.929 . S
C694 N690 1.418 . S
C694 C693 1.251 . S
C695 H662 0.930 . S
C695 C697 1.406 . S
C695 C700 1.261 . S
C696 H663 0.930 . S
C696 N698 1.325 . S
C696 C699 1.357 . S
C697 H665 0.928 . S
C697 C695 1.406 . S
C697 N698 1.261 . S
N698 Co649 2.214 . S
N698 C696 1.325 . S
N698 C697 1.261 . S
C699 H669 0.931 . S
C699 C696 1.357 . S
C699 C700 1.312 . S
C700 H671 0.930 . S
C700 C695 1.261 . S
C700 C699 1.312 . S
C701 O673 1.214 . S
C701 O681 1.234 . S
C702 H674 0.929 . S
C702 C705 1.391 . S
C702 C707 1.391 . S
C703 H675 0.929 . S
C703 C704 1.390 . S
C703 N706 1.391 . S
C704 H676 0.930 . S
C704 C703 1.390 . S
C704 C705 1.392 . S
C705 H677 0.929 . S
C705 C702 1.391 . S
C705 C704 1.392 . S
N706 Co650 2.257 . S
N706 C703 1.391 . S
N706 C707 1.388 . S
C707 H678 0.930 . S
C707 C702 1.391 . S
C707 N706 1.388 . S
Co708 O710 2.143 . S
Co708 O716 2.074 . S
Co708 O719 2.093 . S
Co708 O732 2.097 . S
Co708 N749 2.151 . S
Co708 N757 2.214 . S
Co709 O710 2.160 . S
Co709 O715 2.058 . S
Co709 O725 2.057 . S
Co709 O740 2.037 . S
Co709 N744 2.145 . S
Co709 N765 2.257 . S
O710 Co708 2.143 . S
O710 Co709 2.160 . S
C711 O712 1.278 . S
C711 O719 1.224 . S
O712 C711 1.278 . S
C713 O714 1.245 . S
C713 O725 1.232 . S
O714 C713 1.245 . S
O715 Co709 2.058 . S
O715 C741 1.269 . S
O716 Co708 2.074 . S
O716 C741 1.257 . S
H717 C742 0.930 . S
H718 C748 0.930 . S
O719 Co708 2.093 . S
O719 C711 1.224 . S
H720 C752 0.929 . S
H721 C754 0.930 . S
H722 C755 0.930 . S
H723 C753 0.929 . S
H724 C756 0.928 . S
O725 Co709 2.057 . S
O725 C713 1.232 . S
H726 C745 0.929 . S
H727 C746 0.929 . S
H728 C758 0.931 . S
H729 C750 0.929 . S
H730 C759 0.930 . S
H731 C751 0.931 . S
O732 Co708 2.097 . S
O732 C760 1.214 . S
H733 C761 0.929 . S
H734 C762 0.929 . S
H735 C763 0.930 . S
H736 C764 0.929 . S
H737 C766 0.930 . S
H738 C743 0.930 . S
H739 C747 0.930 . S
O740 Co709 2.037 . S
O740 C760 1.234 . S
C741 O715 1.269 . S
C741 O716 1.257 . S
C742 H717 0.930 . S
C742 C745 1.388 . S
C742 C747 1.418 . S
C743 H738 0.930 . S
C743 C746 1.404 . S
C743 C747 1.353 . S
N744 Co709 2.145 . S
N744 C745 1.397 . S
N744 C746 1.334 . S
C745 H726 0.929 . S
C745 C742 1.388 . S
C745 N744 1.397 . S
C746 H727 0.929 . S
C746 C743 1.404 . S
C746 N744 1.334 . S
C747 H739 0.930 . S
C747 C742 1.418 . S
C747 C743 1.353 . S
C748 H718 0.930 . S
C748 N749 1.330 . S
C748 C750 1.446 . S
N749 Co708 2.151 . S
N749 C748 1.330 . S
N749 C753 1.418 . S
C750 H729 0.929 . S
C750 C748 1.446 . S
C750 C751 1.332 . S
C751 H731 0.931 . S
C751 C750 1.332 . S
C751 C752 1.267 . S
C752 H720 0.929 . S
C752 C751 1.267 . S
C752 C753 1.251 . S
C753 H723 0.929 . S
C753 N749 1.418 . S
C753 C752 1.251 . S
C754 H721 0.930 . S
C754 C756 1.406 . S
C754 C759 1.261 . S
C755 H722 0.930 . S
C755 N757 1.325 . S
C755 C758 1.357 . S
C756 H724 0.928 . S
C756 C754 1.406 . S
C756 N757 1.261 . S
N757 Co708 2.214 . S
N757 C755 1.325 . S
N757 C756 1.261 . S
C758 H728 0.931 . S
C758 C755 1.357 . S
C758 C759 1.312 . S
C759 H730 0.930 . S
C759 C754 1.261 . S
C759 C758 1.312 . S
C760 O732 1.214 . S
C760 O740 1.234 . S
C761 H733 0.929 . S
C761 C764 1.391 . S
C761 C766 1.391 . S
C762 H734 0.929 . S
C762 C763 1.390 . S
C762 N765 1.391 . S
C763 H735 0.930 . S
C763 C762 1.390 . S
C763 C764 1.392 . S
C764 H736 0.929 . S
C764 C761 1.391 . S
C764 C763 1.392 . S
N765 Co709 2.257 . S
N765 C762 1.391 . S
N765 C766 1.388 . S
C766 H737 0.930 . S
C766 C761 1.391 . S
C766 N765 1.388 . S
Co767 O769 2.143 . S
Co767 O775 2.074 . S
Co767 O778 2.093 . S
Co767 O791 2.097 . S
Co767 N808 2.151 . S
Co767 N816 2.214 . S
Co768 O769 2.160 . S
Co768 O774 2.058 . S
Co768 O784 2.057 . S
Co768 O799 2.037 . S
Co768 N803 2.145 . S
Co768 N824 2.257 . S
O769 Co767 2.143 . S
O769 Co768 2.160 . S
C770 O771 1.278 . S
C770 O778 1.224 . S
O771 C770 1.278 . S
C772 O773 1.245 . S
C772 O784 1.232 . S
O773 C772 1.245 . S
O774 Co768 2.058 . S
O774 C800 1.269 . S
O775 Co767 2.074 . S
O775 C800 1.257 . S
H776 C801 0.930 . S
H777 C807 0.930 . S
O778 Co767 2.093 . S
O778 C770 1.224 . S
H779 C811 0.929 . S
H780 C813 0.930 . S
H781 C814 0.930 . S
H782 C812 0.929 . S
H783 C815 0.928 . S
O784 Co768 2.057 . S
O784 C772 1.232 . S
H785 C804 0.929 . S
H786 C805 0.929 . S
H787 C817 0.931 . S
H788 C809 0.929 . S
H789 C818 0.930 . S
H790 C810 0.931 . S
O791 Co767 2.097 . S
O791 C819 1.214 . S
H792 C820 0.929 . S
H793 C821 0.929 . S
H794 C822 0.930 . S
H795 C823 0.929 . S
H796 C825 0.930 . S
H797 C802 0.930 . S
H798 C806 0.930 . S
O799 Co768 2.037 . S
O799 C819 1.234 . S
C800 O774 1.269 . S
C800 O775 1.257 . S
C801 H776 0.930 . S
C801 C804 1.388 . S
C801 C806 1.418 . S
C802 H797 0.930 . S
C802 C805 1.404 . S
C802 C806 1.353 . S
N803 Co768 2.145 . S
N803 C804 1.397 . S
N803 C805 1.334 . S
C804 H785 0.929 . S
C804 C801 1.388 . S
C804 N803 1.397 . S
C805 H786 0.929 . S
C805 C802 1.404 . S
C805 N803 1.334 . S
C806 H798 0.930 . S
C806 C801 1.418 . S
C806 C802 1.353 . S
C807 H777 0.930 . S
C807 N808 1.330 . S
C807 C809 1.446 . S
N808 Co767 2.151 . S
N808 C807 1.330 . S
N808 C812 1.418 . S
C809 H788 0.929 . S
C809 C807 1.446 . S
C809 C810 1.332 . S
C810 H790 0.931 . S
C810 C809 1.332 . S
C810 C811 1.267 . S
C811 H779 0.929 . S
C811 C810 1.267 . S
C811 C812 1.251 . S
C812 H782 0.929 . S
C812 N808 1.418 . S
C812 C811 1.251 . S
C813 H780 0.930 . S
C813 C815 1.406 . S
C813 C818 1.261 . S
C814 H781 0.930 . S
C814 N816 1.325 . S
C814 C817 1.357 . S
C815 H783 0.928 . S
C815 C813 1.406 . S
C815 N816 1.261 . S
N816 Co767 2.214 . S
N816 C814 1.325 . S
N816 C815 1.261 . S
C817 H787 0.931 . S
C817 C814 1.357 . S
C817 C818 1.312 . S
C818 H789 0.930 . S
C818 C813 1.261 . S
C818 C817 1.312 . S
C819 O791 1.214 . S
C819 O799 1.234 . S
C820 H792 0.929 . S
C820 C823 1.391 . S
C820 C825 1.391 . S
C821 H793 0.929 . S
C821 C822 1.390 . S
C821 N824 1.391 . S
C822 H794 0.930 . S
C822 C821 1.390 . S
C822 C823 1.392 . S
C823 H795 0.929 . S
C823 C820 1.391 . S
C823 C822 1.392 . S
N824 Co768 2.257 . S
N824 C821 1.391 . S
N824 C825 1.388 . S
C825 H796 0.930 . S
C825 C820 1.391 . S
C825 N824 1.388 . S
Co826 O828 2.143 . S
Co826 O834 2.074 . S
Co826 O837 2.093 . S
Co826 O850 2.097 . S
Co826 N867 2.151 . S
Co826 N875 2.214 . S
Co827 O828 2.160 . S
Co827 O833 2.058 . S
Co827 O843 2.057 . S
Co827 O858 2.037 . S
Co827 N862 2.145 . S
Co827 N883 2.257 . S
O828 Co826 2.143 . S
O828 Co827 2.160 . S
C829 O830 1.278 . S
C829 O837 1.224 . S
O830 C829 1.278 . S
C831 O832 1.245 . S
C831 O843 1.232 . S
O832 C831 1.245 . S
O833 Co827 2.058 . S
O833 C859 1.269 . S
O834 Co826 2.074 . S
O834 C859 1.257 . S
H835 C860 0.930 . S
H836 C866 0.930 . S
O837 Co826 2.093 . S
O837 C829 1.224 . S
H838 C870 0.929 . S
H839 C872 0.930 . S
H840 C873 0.930 . S
H841 C871 0.929 . S
H842 C874 0.928 . S
O843 Co827 2.057 . S
O843 C831 1.232 . S
H844 C863 0.929 . S
H845 C864 0.929 . S
H846 C876 0.931 . S
H847 C868 0.929 . S
H848 C877 0.930 . S
H849 C869 0.931 . S
O850 Co826 2.097 . S
O850 C878 1.214 . S
H851 C879 0.929 . S
H852 C880 0.929 . S
H853 C881 0.930 . S
H854 C882 0.929 . S
H855 C884 0.930 . S
H856 C861 0.930 . S
H857 C865 0.930 . S
O858 Co827 2.037 . S
O858 C878 1.234 . S
C859 O833 1.269 . S
C859 O834 1.257 . S
C860 H835 0.930 . S
C860 C863 1.388 . S
C860 C865 1.418 . S
C861 H856 0.930 . S
C861 C864 1.404 . S
C861 C865 1.353 . S
N862 Co827 2.145 . S
N862 C863 1.397 . S
N862 C864 1.334 . S
C863 H844 0.929 . S
C863 C860 1.388 . S
C863 N862 1.397 . S
C864 H845 0.929 . S
C864 C861 1.404 . S
C864 N862 1.334 . S
C865 H857 0.930 . S
C865 C860 1.418 . S
C865 C861 1.353 . S
C866 H836 0.930 . S
C866 N867 1.330 . S
C866 C868 1.446 . S
N867 Co826 2.151 . S
N867 C866 1.330 . S
N867 C871 1.418 . S
C868 H847 0.929 . S
C868 C866 1.446 . S
C868 C869 1.332 . S
C869 H849 0.931 . S
C869 C868 1.332 . S
C869 C870 1.267 . S
C870 H838 0.929 . S
C870 C869 1.267 . S
C870 C871 1.251 . S
C871 H841 0.929 . S
C871 N867 1.418 . S
C871 C870 1.251 . S
C872 H839 0.930 . S
C872 C874 1.406 . S
C872 C877 1.261 . S
C873 H840 0.930 . S
C873 N875 1.325 . S
C873 C876 1.357 . S
C874 H842 0.928 . S
C874 C872 1.406 . S
C874 N875 1.261 . S
N875 Co826 2.214 . S
N875 C873 1.325 . S
N875 C874 1.261 . S
C876 H846 0.931 . S
C876 C873 1.357 . S
C876 C877 1.312 . S
C877 H848 0.930 . S
C877 C872 1.261 . S
C877 C876 1.312 . S
C878 O850 1.214 . S
C878 O858 1.234 . S
C879 H851 0.929 . S
C879 C882 1.391 . S
C879 C884 1.391 . S
C880 H852 0.929 . S
C880 C881 1.390 . S
C880 N883 1.391 . S
C881 H853 0.930 . S
C881 C880 1.390 . S
C881 C882 1.392 . S
C882 H854 0.929 . S
C882 C879 1.391 . S
C882 C881 1.392 . S
N883 Co827 2.257 . S
N883 C880 1.391 . S
N883 C884 1.388 . S
C884 H855 0.930 . S
C884 C879 1.391 . S
C884 N883 1.388 . S
Co885 O887 2.143 . S
Co885 O893 2.074 . S
Co885 O896 2.093 . S
Co885 O909 2.097 . S
Co885 N926 2.151 . S
Co885 N934 2.214 . S
Co886 O887 2.160 . S
Co886 O892 2.058 . S
Co886 O902 2.057 . S
Co886 O917 2.037 . S
Co886 N921 2.145 . S
Co886 N942 2.257 . S
O887 Co885 2.143 . S
O887 Co886 2.160 . S
C888 O889 1.278 . S
C888 O896 1.224 . S
O889 C888 1.278 . S
C890 O891 1.245 . S
C890 O902 1.232 . S
O891 C890 1.245 . S
O892 Co886 2.058 . S
O892 C918 1.269 . S
O893 Co885 2.074 . S
O893 C918 1.257 . S
H894 C919 0.930 . S
H895 C925 0.930 . S
O896 Co885 2.093 . S
O896 C888 1.224 . S
H897 C929 0.929 . S
H898 C931 0.930 . S
H899 C932 0.930 . S
H900 C930 0.929 . S
H901 C933 0.928 . S
O902 Co886 2.057 . S
O902 C890 1.232 . S
H903 C922 0.929 . S
H904 C923 0.929 . S
H905 C935 0.931 . S
H906 C927 0.929 . S
H907 C936 0.930 . S
H908 C928 0.931 . S
O909 Co885 2.097 . S
O909 C937 1.214 . S
H910 C938 0.929 . S
H911 C939 0.929 . S
H912 C940 0.930 . S
H913 C941 0.929 . S
H914 C943 0.930 . S
H915 C920 0.930 . S
H916 C924 0.930 . S
O917 Co886 2.037 . S
O917 C937 1.234 . S
C918 O892 1.269 . S
C918 O893 1.257 . S
C919 H894 0.930 . S
C919 C922 1.388 . S
C919 C924 1.418 . S
C920 H915 0.930 . S
C920 C923 1.404 . S
C920 C924 1.353 . S
N921 Co886 2.145 . S
N921 C922 1.397 . S
N921 C923 1.334 . S
C922 H903 0.929 . S
C922 C919 1.388 . S
C922 N921 1.397 . S
C923 H904 0.929 . S
C923 C920 1.404 . S
C923 N921 1.334 . S
C924 H916 0.930 . S
C924 C919 1.418 . S
C924 C920 1.353 . S
C925 H895 0.930 . S
C925 N926 1.330 . S
C925 C927 1.446 . S
N926 Co885 2.151 . S
N926 C925 1.330 . S
N926 C930 1.418 . S
C927 H906 0.929 . S
C927 C925 1.446 . S
C927 C928 1.332 . S
C928 H908 0.931 . S
C928 C927 1.332 . S
C928 C929 1.267 . S
C929 H897 0.929 . S
C929 C928 1.267 . S
C929 C930 1.251 . S
C930 H900 0.929 . S
C930 N926 1.418 . S
C930 C929 1.251 . S
C931 H898 0.930 . S
C931 C933 1.406 . S
C931 C936 1.261 . S
C932 H899 0.930 . S
C932 N934 1.325 . S
C932 C935 1.357 . S
C933 H901 0.928 . S
C933 C931 1.406 . S
C933 N934 1.261 . S
N934 Co885 2.214 . S
N934 C932 1.325 . S
N934 C933 1.261 . S
C935 H905 0.931 . S
C935 C932 1.357 . S
C935 C936 1.312 . S
C936 H907 0.930 . S
C936 C931 1.261 . S
C936 C935 1.312 . S
C937 O909 1.214 . S
C937 O917 1.234 . S
C938 H910 0.929 . S
C938 C941 1.391 . S
C938 C943 1.391 . S
C939 H911 0.929 . S
C939 C940 1.390 . S
C939 N942 1.391 . S
C940 H912 0.930 . S
C940 C939 1.390 . S
C940 C941 1.392 . S
C941 H913 0.929 . S
C941 C938 1.391 . S
C941 C940 1.392 . S
N942 Co886 2.257 . S
N942 C939 1.391 . S
N942 C943 1.388 . S
C943 H914 0.930 . S
C943 C938 1.391 . S
C943 N942 1.388 . S
Co944 O946 2.143 . S
Co944 O952 2.074 . S
Co944 O955 2.093 . S
Co944 O968 2.097 . S
Co944 N985 2.151 . S
Co944 N993 2.214 . S
Co945 O946 2.160 . S
Co945 O951 2.058 . S
Co945 O961 2.057 . S
Co945 O976 2.037 . S
Co945 N980 2.145 . S
Co945 N1001 2.257 . S
O946 Co944 2.143 . S
O946 Co945 2.160 . S
C947 O948 1.278 . S
C947 O955 1.224 . S
O948 C947 1.278 . S
C949 O950 1.245 . S
C949 O961 1.232 . S
O950 C949 1.245 . S
O951 Co945 2.058 . S
O951 C977 1.269 . S
O952 Co944 2.074 . S
O952 C977 1.257 . S
H953 C978 0.930 . S
H954 C984 0.930 . S
O955 Co944 2.093 . S
O955 C947 1.224 . S
H956 C988 0.929 . S
H957 C990 0.930 . S
H958 C991 0.930 . S
H959 C989 0.929 . S
H960 C992 0.928 . S
O961 Co945 2.057 . S
O961 C949 1.232 . S
H962 C981 0.929 . S
H963 C982 0.929 . S
H964 C994 0.931 . S
H965 C986 0.929 . S
H966 C995 0.930 . S
H967 C987 0.931 . S
O968 Co944 2.097 . S
O968 C996 1.214 . S
H969 C997 0.929 . S
H970 C998 0.929 . S
H971 C999 0.930 . S
H972 C1000 0.929 . S
H973 C1002 0.930 . S
H974 C979 0.930 . S
H975 C983 0.930 . S
O976 Co945 2.037 . S
O976 C996 1.234 . S
C977 O951 1.269 . S
C977 O952 1.257 . S
C978 H953 0.930 . S
C978 C981 1.388 . S
C978 C983 1.418 . S
C979 H974 0.930 . S
C979 C982 1.404 . S
C979 C983 1.353 . S
N980 Co945 2.145 . S
N980 C981 1.397 . S
N980 C982 1.334 . S
C981 H962 0.929 . S
C981 C978 1.388 . S
C981 N980 1.397 . S
C982 H963 0.929 . S
C982 C979 1.404 . S
C982 N980 1.334 . S
C983 H975 0.930 . S
C983 C978 1.418 . S
C983 C979 1.353 . S
C984 H954 0.930 . S
C984 N985 1.330 . S
C984 C986 1.446 . S
N985 Co944 2.151 . S
N985 C984 1.330 . S
N985 C989 1.418 . S
C986 H965 0.929 . S
C986 C984 1.446 . S
C986 C987 1.332 . S
C987 H967 0.931 . S
C987 C986 1.332 . S
C987 C988 1.267 . S
C988 H956 0.929 . S
C988 C987 1.267 . S
C988 C989 1.251 . S
C989 H959 0.929 . S
C989 N985 1.418 . S
C989 C988 1.251 . S
C990 H957 0.930 . S
C990 C992 1.406 . S
C990 C995 1.261 . S
C991 H958 0.930 . S
C991 N993 1.325 . S
C991 C994 1.357 . S
C992 H960 0.928 . S
C992 C990 1.406 . S
C992 N993 1.261 . S
N993 Co944 2.214 . S
N993 C991 1.325 . S
N993 C992 1.261 . S
C994 H964 0.931 . S
C994 C991 1.357 . S
C994 C995 1.312 . S
C995 H966 0.930 . S
C995 C990 1.261 . S
C995 C994 1.312 . S
C996 O968 1.214 . S
C996 O976 1.234 . S
C997 H969 0.929 . S
C997 C1000 1.391 . S
C997 C1002 1.391 . S
C998 H970 0.929 . S
C998 C999 1.390 . S
C998 N1001 1.391 . S
C999 H971 0.930 . S
C999 C998 1.390 . S
C999 C1000 1.392 . S
C1000 H972 0.929 . S
C1000 C997 1.391 . S
C1000 C999 1.392 . S
N1001 Co945 2.257 . S
N1001 C998 1.391 . S
N1001 C1002 1.388 . S
C1002 H973 0.930 . S
C1002 C997 1.391 . S
C1002 N1001 1.388 . S
Co1003 O1005 2.143 . S
Co1003 O1011 2.074 . S
Co1003 O1014 2.093 . S
Co1003 O1027 2.097 . S
Co1003 N1044 2.151 . S
Co1003 N1052 2.214 . S
Co1004 O1005 2.160 . S
Co1004 O1010 2.058 . S
Co1004 O1020 2.057 . S
Co1004 O1035 2.037 . S
Co1004 N1039 2.145 . S
Co1004 N1060 2.257 . S
O1005 Co1003 2.143 . S
O1005 Co1004 2.160 . S
C1006 O1007 1.278 . S
C1006 O1014 1.224 . S
O1007 C1006 1.278 . S
C1008 O1009 1.245 . S
C1008 O1020 1.232 . S
O1009 C1008 1.245 . S
O1010 Co1004 2.058 . S
O1010 C1036 1.269 . S
O1011 Co1003 2.074 . S
O1011 C1036 1.257 . S
H1012 C1037 0.930 . S
H1013 C1043 0.930 . S
O1014 Co1003 2.093 . S
O1014 C1006 1.224 . S
H1015 C1047 0.929 . S
H1016 C1049 0.930 . S
H1017 C1050 0.930 . S
H1018 C1048 0.929 . S
H1019 C1051 0.928 . S
O1020 Co1004 2.057 . S
O1020 C1008 1.232 . S
H1021 C1040 0.929 . S
H1022 C1041 0.929 . S
H1023 C1053 0.931 . S
H1024 C1045 0.929 . S
H1025 C1054 0.930 . S
H1026 C1046 0.931 . S
O1027 Co1003 2.097 . S
O1027 C1055 1.214 . S
H1028 C1056 0.929 . S
H1029 C1057 0.929 . S
H1030 C1058 0.930 . S
H1031 C1059 0.929 . S
H1032 C1061 0.930 . S
H1033 C1038 0.930 . S
H1034 C1042 0.930 . S
O1035 Co1004 2.037 . S
O1035 C1055 1.234 . S
C1036 O1010 1.269 . S
C1036 O1011 1.257 . S
C1037 H1012 0.930 . S
C1037 C1040 1.388 . S
C1037 C1042 1.418 . S
C1038 H1033 0.930 . S
C1038 C1041 1.404 . S
C1038 C1042 1.353 . S
N1039 Co1004 2.145 . S
N1039 C1040 1.397 . S
N1039 C1041 1.334 . S
C1040 H1021 0.929 . S
C1040 C1037 1.388 . S
C1040 N1039 1.397 . S
C1041 H1022 0.929 . S
C1041 C1038 1.404 . S
C1041 N1039 1.334 . S
C1042 H1034 0.930 . S
C1042 C1037 1.418 . S
C1042 C1038 1.353 . S
C1043 H1013 0.930 . S
C1043 N1044 1.330 . S
C1043 C1045 1.446 . S
N1044 Co1003 2.151 . S
N1044 C1043 1.330 . S
N1044 C1048 1.418 . S
C1045 H1024 0.929 . S
C1045 C1043 1.446 . S
C1045 C1046 1.332 . S
C1046 H1026 0.931 . S
C1046 C1045 1.332 . S
C1046 C1047 1.267 . S
C1047 H1015 0.929 . S
C1047 C1046 1.267 . S
C1047 C1048 1.251 . S
C1048 H1018 0.929 . S
C1048 N1044 1.418 . S
C1048 C1047 1.251 . S
C1049 H1016 0.930 . S
C1049 C1051 1.406 . S
C1049 C1054 1.261 . S
C1050 H1017 0.930 . S
C1050 N1052 1.325 . S
C1050 C1053 1.357 . S
C1051 H1019 0.928 . S
C1051 C1049 1.406 . S
C1051 N1052 1.261 . S
N1052 Co1003 2.214 . S
N1052 C1050 1.325 . S
N1052 C1051 1.261 . S
C1053 H1023 0.931 . S
C1053 C1050 1.357 . S
C1053 C1054 1.312 . S
C1054 H1025 0.930 . S
C1054 C1049 1.261 . S
C1054 C1053 1.312 . S
C1055 O1027 1.214 . S
C1055 O1035 1.234 . S
C1056 H1028 0.929 . S
C1056 C1059 1.391 . S
C1056 C1061 1.391 . S
C1057 H1029 0.929 . S
C1057 C1058 1.390 . S
C1057 N1060 1.391 . S
C1058 H1030 0.930 . S
C1058 C1057 1.390 . S
C1058 C1059 1.392 . S
C1059 H1031 0.929 . S
C1059 C1056 1.391 . S
C1059 C1058 1.392 . S
N1060 Co1004 2.257 . S
N1060 C1057 1.391 . S
N1060 C1061 1.388 . S
C1061 H1032 0.930 . S
C1061 C1056 1.391 . S
C1061 N1060 1.388 . S
Co1062 O1064 2.143 . S
Co1062 O1070 2.074 . S
Co1062 O1073 2.093 . S
Co1062 O1086 2.097 . S
Co1062 N1103 2.151 . S
Co1062 N1111 2.214 . S
Co1063 O1064 2.160 . S
Co1063 O1069 2.058 . S
Co1063 O1079 2.057 . S
Co1063 O1094 2.037 . S
Co1063 N1098 2.145 . S
Co1063 N1119 2.257 . S
O1064 Co1062 2.143 . S
O1064 Co1063 2.160 . S
C1065 O1066 1.278 . S
C1065 O1073 1.224 . S
O1066 C1065 1.278 . S
C1067 O1068 1.245 . S
C1067 O1079 1.232 . S
O1068 C1067 1.245 . S
O1069 Co1063 2.058 . S
O1069 C1095 1.269 . S
O1070 Co1062 2.074 . S
O1070 C1095 1.257 . S
H1071 C1096 0.930 . S
H1072 C1102 0.930 . S
O1073 Co1062 2.093 . S
O1073 C1065 1.224 . S
H1074 C1106 0.929 . S
H1075 C1108 0.930 . S
H1076 C1109 0.930 . S
H1077 C1107 0.929 . S
H1078 C1110 0.928 . S
O1079 Co1063 2.057 . S
O1079 C1067 1.232 . S
H1080 C1099 0.929 . S
H1081 C1100 0.929 . S
H1082 C1112 0.931 . S
H1083 C1104 0.929 . S
H1084 C1113 0.930 . S
H1085 C1105 0.931 . S
O1086 Co1062 2.097 . S
O1086 C1114 1.214 . S
H1087 C1115 0.929 . S
H1088 C1116 0.929 . S
H1089 C1117 0.930 . S
H1090 C1118 0.929 . S
H1091 C1120 0.930 . S
H1092 C1097 0.930 . S
H1093 C1101 0.930 . S
O1094 Co1063 2.037 . S
O1094 C1114 1.234 . S
C1095 O1069 1.269 . S
C1095 O1070 1.257 . S
C1096 H1071 0.930 . S
C1096 C1099 1.388 . S
C1096 C1101 1.418 . S
C1097 H1092 0.930 . S
C1097 C1100 1.404 . S
C1097 C1101 1.353 . S
N1098 Co1063 2.145 . S
N1098 C1099 1.397 . S
N1098 C1100 1.334 . S
C1099 H1080 0.929 . S
C1099 C1096 1.388 . S
C1099 N1098 1.397 . S
C1100 H1081 0.929 . S
C1100 C1097 1.404 . S
C1100 N1098 1.334 . S
C1101 H1093 0.930 . S
C1101 C1096 1.418 . S
C1101 C1097 1.353 . S
C1102 H1072 0.930 . S
C1102 N1103 1.330 . S
C1102 C1104 1.446 . S
N1103 Co1062 2.151 . S
N1103 C1102 1.330 . S
N1103 C1107 1.418 . S
C1104 H1083 0.929 . S
C1104 C1102 1.446 . S
C1104 C1105 1.332 . S
C1105 H1085 0.931 . S
C1105 C1104 1.332 . S
C1105 C1106 1.267 . S
C1106 H1074 0.929 . S
C1106 C1105 1.267 . S
C1106 C1107 1.251 . S
C1107 H1077 0.929 . S
C1107 N1103 1.418 . S
C1107 C1106 1.251 . S
C1108 H1075 0.930 . S
C1108 C1110 1.406 . S
C1108 C1113 1.261 . S
C1109 H1076 0.930 . S
C1109 N1111 1.325 . S
C1109 C1112 1.357 . S
C1110 H1078 0.928 . S
C1110 C1108 1.406 . S
C1110 N1111 1.261 . S
N1111 Co1062 2.214 . S
N1111 C1109 1.325 . S
N1111 C1110 1.261 . S
C1112 H1082 0.931 . S
C1112 C1109 1.357 . S
C1112 C1113 1.312 . S
C1113 H1084 0.930 . S
C1113 C1108 1.261 . S
C1113 C1112 1.312 . S
C1114 O1086 1.214 . S
C1114 O1094 1.234 . S
C1115 H1087 0.929 . S
C1115 C1118 1.391 . S
C1115 C1120 1.391 . S
C1116 H1088 0.929 . S
C1116 C1117 1.390 . S
C1116 N1119 1.391 . S
C1117 H1089 0.930 . S
C1117 C1116 1.390 . S
C1117 C1118 1.392 . S
C1118 H1090 0.929 . S
C1118 C1115 1.391 . S
C1118 C1117 1.392 . S
N1119 Co1063 2.257 . S
N1119 C1116 1.391 . S
N1119 C1120 1.388 . S
C1120 H1091 0.930 . S
C1120 C1115 1.391 . S
C1120 N1119 1.388 . S
Co1121 O1123 2.143 . S
Co1121 O1129 2.074 . S
Co1121 O1132 2.093 . S
Co1121 O1145 2.097 . S
Co1121 N1162 2.151 . S
Co1121 N1170 2.214 . S
Co1122 O1123 2.160 . S
Co1122 O1128 2.058 . S
Co1122 O1138 2.057 . S
Co1122 O1153 2.037 . S
Co1122 N1157 2.145 . S
Co1122 N1178 2.257 . S
O1123 Co1121 2.143 . S
O1123 Co1122 2.160 . S
C1124 O1125 1.278 . S
C1124 O1132 1.224 . S
O1125 C1124 1.278 . S
C1126 O1127 1.245 . S
C1126 O1138 1.232 . S
O1127 C1126 1.245 . S
O1128 Co1122 2.058 . S
O1128 C1154 1.269 . S
O1129 Co1121 2.074 . S
O1129 C1154 1.257 . S
H1130 C1155 0.930 . S
H1131 C1161 0.930 . S
O1132 Co1121 2.093 . S
O1132 C1124 1.224 . S
H1133 C1165 0.929 . S
H1134 C1167 0.930 . S
H1135 C1168 0.930 . S
H1136 C1166 0.929 . S
H1137 C1169 0.928 . S
O1138 Co1122 2.057 . S
O1138 C1126 1.232 . S
H1139 C1158 0.929 . S
H1140 C1159 0.929 . S
H1141 C1171 0.931 . S
H1142 C1163 0.929 . S
H1143 C1172 0.930 . S
H1144 C1164 0.931 . S
O1145 Co1121 2.097 . S
O1145 C1173 1.214 . S
H1146 C1174 0.929 . S
H1147 C1175 0.929 . S
H1148 C1176 0.930 . S
H1149 C1177 0.929 . S
H1150 C1179 0.930 . S
H1151 C1156 0.930 . S
H1152 C1160 0.930 . S
O1153 Co1122 2.037 . S
O1153 C1173 1.234 . S
C1154 O1128 1.269 . S
C1154 O1129 1.257 . S
C1155 H1130 0.930 . S
C1155 C1158 1.388 . S
C1155 C1160 1.418 . S
C1156 H1151 0.930 . S
C1156 C1159 1.404 . S
C1156 C1160 1.353 . S
N1157 Co1122 2.145 . S
N1157 C1158 1.397 . S
N1157 C1159 1.334 . S
C1158 H1139 0.929 . S
C1158 C1155 1.388 . S
C1158 N1157 1.397 . S
C1159 H1140 0.929 . S
C1159 C1156 1.404 . S
C1159 N1157 1.334 . S
C1160 H1152 0.930 . S
C1160 C1155 1.418 . S
C1160 C1156 1.353 . S
C1161 H1131 0.930 . S
C1161 N1162 1.330 . S
C1161 C1163 1.446 . S
N1162 Co1121 2.151 . S
N1162 C1161 1.330 . S
N1162 C1166 1.418 . S
C1163 H1142 0.929 . S
C1163 C1161 1.446 . S
C1163 C1164 1.332 . S
C1164 H1144 0.931 . S
C1164 C1163 1.332 . S
C1164 C1165 1.267 . S
C1165 H1133 0.929 . S
C1165 C1164 1.267 . S
C1165 C1166 1.251 . S
C1166 H1136 0.929 . S
C1166 N1162 1.418 . S
C1166 C1165 1.251 . S
C1167 H1134 0.930 . S
C1167 C1169 1.406 . S
C1167 C1172 1.261 . S
C1168 H1135 0.930 . S
C1168 N1170 1.325 . S
C1168 C1171 1.357 . S
C1169 H1137 0.928 . S
C1169 C1167 1.406 . S
C1169 N1170 1.261 . S
N1170 Co1121 2.214 . S
N1170 C1168 1.325 . S
N1170 C1169 1.261 . S
C1171 H1141 0.931 . S
C1171 C1168 1.357 . S
C1171 C1172 1.312 . S
C1172 H1143 0.930 . S
C1172 C1167 1.261 . S
C1172 C1171 1.312 . S
C1173 O1145 1.214 . S
C1173 O1153 1.234 . S
C1174 H1146 0.929 . S
C1174 C1177 1.391 . S
C1174 C1179 1.391 . S
C1175 H1147 0.929 . S
C1175 C1176 1.390 . S
C1175 N1178 1.391 . S
C1176 H1148 0.930 . S
C1176 C1175 1.390 . S
C1176 C1177 1.392 . S
C1177 H1149 0.929 . S
C1177 C1174 1.391 . S
C1177 C1176 1.392 . S
N1178 Co1122 2.257 . S
N1178 C1175 1.391 . S
N1178 C1179 1.388 . S
C1179 H1150 0.930 . S
C1179 C1174 1.391 . S
C1179 N1178 1.388 . S
Co1180 O1182 2.143 . S
Co1180 O1188 2.074 . S
Co1180 O1191 2.093 . S
Co1180 O1204 2.097 . S
Co1180 N1221 2.151 . S
Co1180 N1229 2.214 . S
Co1181 O1182 2.160 . S
Co1181 O1187 2.058 . S
Co1181 O1197 2.057 . S
Co1181 O1212 2.037 . S
Co1181 N1216 2.145 . S
Co1181 N1237 2.257 . S
O1182 Co1180 2.143 . S
O1182 Co1181 2.160 . S
C1183 O1184 1.278 . S
C1183 O1191 1.224 . S
O1184 C1183 1.278 . S
C1185 O1186 1.245 . S
C1185 O1197 1.232 . S
O1186 C1185 1.245 . S
O1187 Co1181 2.058 . S
O1187 C1213 1.269 . S
O1188 Co1180 2.074 . S
O1188 C1213 1.257 . S
H1189 C1214 0.930 . S
H1190 C1220 0.930 . S
O1191 Co1180 2.093 . S
O1191 C1183 1.224 . S
H1192 C1224 0.929 . S
H1193 C1226 0.930 . S
H1194 C1227 0.930 . S
H1195 C1225 0.929 . S
H1196 C1228 0.928 . S
O1197 Co1181 2.057 . S
O1197 C1185 1.232 . S
H1198 C1217 0.929 . S
H1199 C1218 0.929 . S
H1200 C1230 0.931 . S
H1201 C1222 0.929 . S
H1202 C1231 0.930 . S
H1203 C1223 0.931 . S
O1204 Co1180 2.097 . S
O1204 C1232 1.214 . S
H1205 C1233 0.929 . S
H1206 C1234 0.929 . S
H1207 C1235 0.930 . S
H1208 C1236 0.929 . S
H1209 C1238 0.930 . S
H1210 C1215 0.930 . S
H1211 C1219 0.930 . S
O1212 Co1181 2.037 . S
O1212 C1232 1.234 . S
C1213 O1187 1.269 . S
C1213 O1188 1.257 . S
C1214 H1189 0.930 . S
C1214 C1217 1.388 . S
C1214 C1219 1.418 . S
C1215 H1210 0.930 . S
C1215 C1218 1.404 . S
C1215 C1219 1.353 . S
N1216 Co1181 2.145 . S
N1216 C1217 1.397 . S
N1216 C1218 1.334 . S
C1217 H1198 0.929 . S
C1217 C1214 1.388 . S
C1217 N1216 1.397 . S
C1218 H1199 0.929 . S
C1218 C1215 1.404 . S
C1218 N1216 1.334 . S
C1219 H1211 0.930 . S
C1219 C1214 1.418 . S
C1219 C1215 1.353 . S
C1220 H1190 0.930 . S
C1220 N1221 1.330 . S
C1220 C1222 1.446 . S
N1221 Co1180 2.151 . S
N1221 C1220 1.330 . S
N1221 C1225 1.418 . S
C1222 H1201 0.929 . S
C1222 C1220 1.446 . S
C1222 C1223 1.332 . S
C1223 H1203 0.931 . S
C1223 C1222 1.332 . S
C1223 C1224 1.267 . S
C1224 H1192 0.929 . S
C1224 C1223 1.267 . S
C1224 C1225 1.251 . S
C1225 H1195 0.929 . S
C1225 N1221 1.418 . S
C1225 C1224 1.251 . S
C1226 H1193 0.930 . S
C1226 C1228 1.406 . S
C1226 C1231 1.261 . S
C1227 H1194 0.930 . S
C1227 N1229 1.325 . S
C1227 C1230 1.357 . S
C1228 H1196 0.928 . S
C1228 C1226 1.406 . S
C1228 N1229 1.261 . S
N1229 Co1180 2.214 . S
N1229 C1227 1.325 . S
N1229 C1228 1.261 . S
C1230 H1200 0.931 . S
C1230 C1227 1.357 . S
C1230 C1231 1.312 . S
C1231 H1202 0.930 . S
C1231 C1226 1.261 . S
C1231 C1230 1.312 . S
C1232 O1204 1.214 . S
C1232 O1212 1.234 . S
C1233 H1205 0.929 . S
C1233 C1236 1.391 . S
C1233 C1238 1.391 . S
C1234 H1206 0.929 . S
C1234 C1235 1.390 . S
C1234 N1237 1.391 . S
C1235 H1207 0.930 . S
C1235 C1234 1.390 . S
C1235 C1236 1.392 . S
C1236 H1208 0.929 . S
C1236 C1233 1.391 . S
C1236 C1235 1.392 . S
N1237 Co1181 2.257 . S
N1237 C1234 1.391 . S
N1237 C1238 1.388 . S
C1238 H1209 0.930 . S
C1238 C1233 1.391 . S
C1238 N1237 1.388 . S
Co1239 O1241 2.143 . S
Co1239 O1247 2.074 . S
Co1239 O1250 2.093 . S
Co1239 O1263 2.097 . S
Co1239 N1280 2.151 . S
Co1239 N1288 2.214 . S
Co1240 O1241 2.160 . S
Co1240 O1246 2.058 . S
Co1240 O1256 2.057 . S
Co1240 O1271 2.037 . S
Co1240 N1275 2.145 . S
Co1240 N1296 2.257 . S
O1241 Co1239 2.143 . S
O1241 Co1240 2.160 . S
C1242 O1243 1.278 . S
C1242 O1250 1.224 . S
O1243 C1242 1.278 . S
C1244 O1245 1.245 . S
C1244 O1256 1.232 . S
O1245 C1244 1.245 . S
O1246 Co1240 2.058 . S
O1246 C1272 1.269 . S
O1247 Co1239 2.074 . S
O1247 C1272 1.257 . S
H1248 C1273 0.930 . S
H1249 C1279 0.930 . S
O1250 Co1239 2.093 . S
O1250 C1242 1.224 . S
H1251 C1283 0.929 . S
H1252 C1285 0.930 . S
H1253 C1286 0.930 . S
H1254 C1284 0.929 . S
H1255 C1287 0.928 . S
O1256 Co1240 2.057 . S
O1256 C1244 1.232 . S
H1257 C1276 0.929 . S
H1258 C1277 0.929 . S
H1259 C1289 0.931 . S
H1260 C1281 0.929 . S
H1261 C1290 0.930 . S
H1262 C1282 0.931 . S
O1263 Co1239 2.097 . S
O1263 C1291 1.214 . S
H1264 C1292 0.929 . S
H1265 C1293 0.929 . S
H1266 C1294 0.930 . S
H1267 C1295 0.929 . S
H1268 C1297 0.930 . S
H1269 C1274 0.930 . S
H1270 C1278 0.930 . S
O1271 Co1240 2.037 . S
O1271 C1291 1.234 . S
C1272 O1246 1.269 . S
C1272 O1247 1.257 . S
C1273 H1248 0.930 . S
C1273 C1276 1.388 . S
C1273 C1278 1.418 . S
C1274 H1269 0.930 . S
C1274 C1277 1.404 . S
C1274 C1278 1.353 . S
N1275 Co1240 2.145 . S
N1275 C1276 1.397 . S
N1275 C1277 1.334 . S
C1276 H1257 0.929 . S
C1276 C1273 1.388 . S
C1276 N1275 1.397 . S
C1277 H1258 0.929 . S
C1277 C1274 1.404 . S
C1277 N1275 1.334 . S
C1278 H1270 0.930 . S
C1278 C1273 1.418 . S
C1278 C1274 1.353 . S
C1279 H1249 0.930 . S
C1279 N1280 1.330 . S
C1279 C1281 1.446 . S
N1280 Co1239 2.151 . S
N1280 C1279 1.330 . S
N1280 C1284 1.418 . S
C1281 H1260 0.929 . S
C1281 C1279 1.446 . S
C1281 C1282 1.332 . S
C1282 H1262 0.931 . S
C1282 C1281 1.332 . S
C1282 C1283 1.267 . S
C1283 H1251 0.929 . S
C1283 C1282 1.267 . S
C1283 C1284 1.251 . S
C1284 H1254 0.929 . S
C1284 N1280 1.418 . S
C1284 C1283 1.251 . S
C1285 H1252 0.930 . S
C1285 C1287 1.406 . S
C1285 C1290 1.261 . S
C1286 H1253 0.930 . S
C1286 N1288 1.325 . S
C1286 C1289 1.357 . S
C1287 H1255 0.928 . S
C1287 C1285 1.406 . S
C1287 N1288 1.261 . S
N1288 Co1239 2.214 . S
N1288 C1286 1.325 . S
N1288 C1287 1.261 . S
C1289 H1259 0.931 . S
C1289 C1286 1.357 . S
C1289 C1290 1.312 . S
C1290 H1261 0.930 . S
C1290 C1285 1.261 . S
C1290 C1289 1.312 . S
C1291 O1263 1.214 . S
C1291 O1271 1.234 . S
C1292 H1264 0.929 . S
C1292 C1295 1.391 . S
C1292 C1297 1.391 . S
C1293 H1265 0.929 . S
C1293 C1294 1.390 . S
C1293 N1296 1.391 . S
C1294 H1266 0.930 . S
C1294 C1293 1.390 . S
C1294 C1295 1.392 . S
C1295 H1267 0.929 . S
C1295 C1292 1.391 . S
C1295 C1294 1.392 . S
N1296 Co1240 2.257 . S
N1296 C1293 1.391 . S
N1296 C1297 1.388 . S
C1297 H1268 0.930 . S
C1297 C1292 1.391 . S
C1297 N1296 1.388 . S
Co1298 O1300 2.143 . S
Co1298 O1306 2.074 . S
Co1298 O1309 2.093 . S
Co1298 O1322 2.097 . S
Co1298 N1339 2.151 . S
Co1298 N1347 2.214 . S
Co1299 O1300 2.160 . S
Co1299 O1305 2.058 . S
Co1299 O1315 2.057 . S
Co1299 O1330 2.037 . S
Co1299 N1334 2.145 . S
Co1299 N1355 2.257 . S
O1300 Co1298 2.143 . S
O1300 Co1299 2.160 . S
C1301 O1302 1.278 . S
C1301 O1309 1.224 . S
O1302 C1301 1.278 . S
C1303 O1304 1.245 . S
C1303 O1315 1.232 . S
O1304 C1303 1.245 . S
O1305 Co1299 2.058 . S
O1305 C1331 1.269 . S
O1306 Co1298 2.074 . S
O1306 C1331 1.257 . S
H1307 C1332 0.930 . S
H1308 C1338 0.930 . S
O1309 Co1298 2.093 . S
O1309 C1301 1.224 . S
H1310 C1342 0.929 . S
H1311 C1344 0.930 . S
H1312 C1345 0.930 . S
H1313 C1343 0.929 . S
H1314 C1346 0.928 . S
O1315 Co1299 2.057 . S
O1315 C1303 1.232 . S
H1316 C1335 0.929 . S
H1317 C1336 0.929 . S
H1318 C1348 0.931 . S
H1319 C1340 0.929 . S
H1320 C1349 0.930 . S
H1321 C1341 0.931 . S
O1322 Co1298 2.097 . S
O1322 C1350 1.214 . S
H1323 C1351 0.929 . S
H1324 C1352 0.929 . S
H1325 C1353 0.930 . S
H1326 C1354 0.929 . S
H1327 C1356 0.930 . S
H1328 C1333 0.930 . S
H1329 C1337 0.930 . S
O1330 Co1299 2.037 . S
O1330 C1350 1.234 . S
C1331 O1305 1.269 . S
C1331 O1306 1.257 . S
C1332 H1307 0.930 . S
C1332 C1335 1.388 . S
C1332 C1337 1.418 . S
C1333 H1328 0.930 . S
C1333 C1336 1.404 . S
C1333 C1337 1.353 . S
N1334 Co1299 2.145 . S
N1334 C1335 1.397 . S
N1334 C1336 1.334 . S
C1335 H1316 0.929 . S
C1335 C1332 1.388 . S
C1335 N1334 1.397 . S
C1336 H1317 0.929 . S
C1336 C1333 1.404 . S
C1336 N1334 1.334 . S
C1337 H1329 0.930 . S
C1337 C1332 1.418 . S
C1337 C1333 1.353 . S
C1338 H1308 0.930 . S
C1338 N1339 1.330 . S
C1338 C1340 1.446 . S
N1339 Co1298 2.151 . S
N1339 C1338 1.330 . S
N1339 C1343 1.418 . S
C1340 H1319 0.929 . S
C1340 C1338 1.446 . S
C1340 C1341 1.332 . S
C1341 H1321 0.931 . S
C1341 C1340 1.332 . S
C1341 C1342 1.267 . S
C1342 H1310 0.929 . S
C1342 C1341 1.267 . S
C1342 C1343 1.251 . S
C1343 H1313 0.929 . S
C1343 N1339 1.418 . S
C1343 C1342 1.251 . S
C1344 H1311 0.930 . S
C1344 C1346 1.406 . S
C1344 C1349 1.261 . S
C1345 H1312 0.930 . S
C1345 N1347 1.325 . S
C1345 C1348 1.357 . S
C1346 H1314 0.928 . S
C1346 C1344 1.406 . S
C1346 N1347 1.261 . S
N1347 Co1298 2.214 . S
N1347 C1345 1.325 . S
N1347 C1346 1.261 . S
C1348 H1318 0.931 . S
C1348 C1345 1.357 . S
C1348 C1349 1.312 . S
C1349 H1320 0.930 . S
C1349 C1344 1.261 . S
C1349 C1348 1.312 . S
C1350 O1322 1.214 . S
C1350 O1330 1.234 . S
C1351 H1323 0.929 . S
C1351 C1354 1.391 . S
C1351 C1356 1.391 . S
C1352 H1324 0.929 . S
C1352 C1353 1.390 . S
C1352 N1355 1.391 . S
C1353 H1325 0.930 . S
C1353 C1352 1.390 . S
C1353 C1354 1.392 . S
C1354 H1326 0.929 . S
C1354 C1351 1.391 . S
C1354 C1353 1.392 . S
N1355 Co1299 2.257 . S
N1355 C1352 1.391 . S
N1355 C1356 1.388 . S
C1356 H1327 0.930 . S
C1356 C1351 1.391 . S
C1356 N1355 1.388 . S
Co1357 O1359 2.143 . S
Co1357 O1365 2.074 . S
Co1357 O1368 2.093 . S
Co1357 O1381 2.097 . S
Co1357 N1398 2.151 . S
Co1357 N1406 2.214 . S
Co1358 O1359 2.160 . S
Co1358 O1364 2.058 . S
Co1358 O1374 2.057 . S
Co1358 O1389 2.037 . S
Co1358 N1393 2.145 . S
Co1358 N1414 2.257 . S
O1359 Co1357 2.143 . S
O1359 Co1358 2.160 . S
C1360 O1361 1.278 . S
C1360 O1368 1.224 . S
O1361 C1360 1.278 . S
C1362 O1363 1.245 . S
C1362 O1374 1.232 . S
O1363 C1362 1.245 . S
O1364 Co1358 2.058 . S
O1364 C1390 1.269 . S
O1365 Co1357 2.074 . S
O1365 C1390 1.257 . S
H1366 C1391 0.930 . S
H1367 C1397 0.930 . S
O1368 Co1357 2.093 . S
O1368 C1360 1.224 . S
H1369 C1401 0.929 . S
H1370 C1403 0.930 . S
H1371 C1404 0.930 . S
H1372 C1402 0.929 . S
H1373 C1405 0.928 . S
O1374 Co1358 2.057 . S
O1374 C1362 1.232 . S
H1375 C1394 0.929 . S
H1376 C1395 0.929 . S
H1377 C1407 0.931 . S
H1378 C1399 0.929 . S
H1379 C1408 0.930 . S
H1380 C1400 0.931 . S
O1381 Co1357 2.097 . S
O1381 C1409 1.214 . S
H1382 C1410 0.929 . S
H1383 C1411 0.929 . S
H1384 C1412 0.930 . S
H1385 C1413 0.929 . S
H1386 C1415 0.930 . S
H1387 C1392 0.930 . S
H1388 C1396 0.930 . S
O1389 Co1358 2.037 . S
O1389 C1409 1.234 . S
C1390 O1364 1.269 . S
C1390 O1365 1.257 . S
C1391 H1366 0.930 . S
C1391 C1394 1.388 . S
C1391 C1396 1.418 . S
C1392 H1387 0.930 . S
C1392 C1395 1.404 . S
C1392 C1396 1.353 . S
N1393 Co1358 2.145 . S
N1393 C1394 1.397 . S
N1393 C1395 1.334 . S
C1394 H1375 0.929 . S
C1394 C1391 1.388 . S
C1394 N1393 1.397 . S
C1395 H1376 0.929 . S
C1395 C1392 1.404 . S
C1395 N1393 1.334 . S
C1396 H1388 0.930 . S
C1396 C1391 1.418 . S
C1396 C1392 1.353 . S
C1397 H1367 0.930 . S
C1397 N1398 1.330 . S
C1397 C1399 1.446 . S
N1398 Co1357 2.151 . S
N1398 C1397 1.330 . S
N1398 C1402 1.418 . S
C1399 H1378 0.929 . S
C1399 C1397 1.446 . S
C1399 C1400 1.332 . S
C1400 H1380 0.931 . S
C1400 C1399 1.332 . S
C1400 C1401 1.267 . S
C1401 H1369 0.929 . S
C1401 C1400 1.267 . S
C1401 C1402 1.251 . S
C1402 H1372 0.929 . S
C1402 N1398 1.418 . S
C1402 C1401 1.251 . S
C1403 H1370 0.930 . S
C1403 C1405 1.406 . S
C1403 C1408 1.261 . S
C1404 H1371 0.930 . S
C1404 N1406 1.325 . S
C1404 C1407 1.357 . S
C1405 H1373 0.928 . S
C1405 C1403 1.406 . S
C1405 N1406 1.261 . S
N1406 Co1357 2.214 . S
N1406 C1404 1.325 . S
N1406 C1405 1.261 . S
C1407 H1377 0.931 . S
C1407 C1404 1.357 . S
C1407 C1408 1.312 . S
C1408 H1379 0.930 . S
C1408 C1403 1.261 . S
C1408 C1407 1.312 . S
C1409 O1381 1.214 . S
C1409 O1389 1.234 . S
C1410 H1382 0.929 . S
C1410 C1413 1.391 . S
C1410 C1415 1.391 . S
C1411 H1383 0.929 . S
C1411 C1412 1.390 . S
C1411 N1414 1.391 . S
C1412 H1384 0.930 . S
C1412 C1411 1.390 . S
C1412 C1413 1.392 . S
C1413 H1385 0.929 . S
C1413 C1410 1.391 . S
C1413 C1412 1.392 . S
N1414 Co1358 2.257 . S
N1414 C1411 1.391 . S
N1414 C1415 1.388 . S
C1415 H1386 0.930 . S
C1415 C1410 1.391 . S
C1415 N1414 1.388 . S
C1416 C1417 1.369 . S
C1416 C1418 1.419 . S
C1416 H1420 0.930 . S
C1417 C1416 1.369 . S
C1417 C1426 1.429 . S
C1418 C1416 1.419 . S
C1418 C1419 1.363 . S
C1418 H1421 0.929 . S
C1419 C1418 1.363 . S
C1419 C1425 1.428 . S
H1420 C1416 0.930 . S
H1421 C1418 0.929 . S
S1422 N1423 1.613 . S
S1422 N1424 1.610 . S
N1423 S1422 1.613 . S
N1423 C1426 1.350 . S
N1424 S1422 1.610 . S
N1424 C1425 1.351 . S
C1425 C1419 1.428 . S
C1425 N1424 1.351 . S
C1425 C1426 1.434 . S
C1426 C1417 1.429 . S
C1426 N1423 1.350 . S
C1426 C1425 1.434 . S
C1427 C1428 1.369 . S
C1427 C1429 1.419 . S
C1427 H1431 0.930 . S
C1428 C1427 1.369 . S
C1428 C1437 1.429 . S
C1429 C1427 1.419 . S
C1429 C1430 1.363 . S
C1429 H1432 0.929 . S
C1430 C1429 1.363 . S
C1430 C1436 1.428 . S
H1431 C1427 0.930 . S
H1432 C1429 0.929 . S
S1433 N1434 1.613 . S
S1433 N1435 1.610 . S
N1434 S1433 1.613 . S
N1434 C1437 1.350 . S
N1435 S1433 1.610 . S
N1435 C1436 1.351 . S
C1436 C1430 1.428 . S
C1436 N1435 1.351 . S
C1436 C1437 1.434 . S
C1437 C1428 1.429 . S
C1437 N1434 1.350 . S
C1437 C1436 1.434 . S
C1438 C1439 1.369 . S
C1438 C1440 1.419 . S
C1438 H1442 0.930 . S
C1439 C1438 1.369 . S
C1439 C1448 1.429 . S
C1440 C1438 1.419 . S
C1440 C1441 1.363 . S
C1440 H1443 0.929 . S
C1441 C1440 1.363 . S
C1441 C1447 1.428 . S
H1442 C1438 0.930 . S
H1443 C1440 0.929 . S
S1444 N1445 1.613 . S
S1444 N1446 1.610 . S
N1445 S1444 1.613 . S
N1445 C1448 1.350 . S
N1446 S1444 1.610 . S
N1446 C1447 1.351 . S
C1447 C1441 1.428 . S
C1447 N1446 1.351 . S
C1447 C1448 1.434 . S
C1448 C1439 1.429 . S
C1448 N1445 1.350 . S
C1448 C1447 1.434 . S
C1449 C1450 1.369 . S
C1449 C1451 1.419 . S
C1449 H1453 0.930 . S
C1450 C1449 1.369 . S
C1450 C1459 1.429 . S
C1451 C1449 1.419 . S
C1451 C1452 1.363 . S
C1451 H1454 0.929 . S
C1452 C1451 1.363 . S
C1452 C1458 1.428 . S
H1453 C1449 0.930 . S
H1454 C1451 0.929 . S
S1455 N1456 1.613 . S
S1455 N1457 1.610 . S
N1456 S1455 1.613 . S
N1456 C1459 1.350 . S
N1457 S1455 1.610 . S
N1457 C1458 1.351 . S
C1458 C1452 1.428 . S
C1458 N1457 1.351 . S
C1458 C1459 1.434 . S
C1459 C1450 1.429 . S
C1459 N1456 1.350 . S
C1459 C1458 1.434 . S
C1460 C1461 1.369 . S
C1460 C1462 1.419 . S
C1460 H1464 0.930 . S
C1461 C1460 1.369 . S
C1461 C1470 1.429 . S
C1462 C1460 1.419 . S
C1462 C1463 1.363 . S
C1462 H1465 0.929 . S
C1463 C1462 1.363 . S
C1463 C1469 1.428 . S
H1464 C1460 0.930 . S
H1465 C1462 0.929 . S
S1466 N1467 1.613 . S
S1466 N1468 1.610 . S
N1467 S1466 1.613 . S
N1467 C1470 1.350 . S
N1468 S1466 1.610 . S
N1468 C1469 1.351 . S
C1469 C1463 1.428 . S
C1469 N1468 1.351 . S
C1469 C1470 1.434 . S
C1470 C1461 1.429 . S
C1470 N1467 1.350 . S
C1470 C1469 1.434 . S
C1471 C1472 1.369 . S
C1471 C1473 1.419 . S
C1471 H1475 0.930 . S
C1472 C1471 1.369 . S
C1472 C1481 1.429 . S
C1473 C1471 1.419 . S
C1473 C1474 1.363 . S
C1473 H1476 0.929 . S
C1474 C1473 1.363 . S
C1474 C1480 1.428 . S
H1475 C1471 0.930 . S
H1476 C1473 0.929 . S
S1477 N1478 1.613 . S
S1477 N1479 1.610 . S
N1478 S1477 1.613 . S
N1478 C1481 1.350 . S
N1479 S1477 1.610 . S
N1479 C1480 1.351 . S
C1480 C1474 1.428 . S
C1480 N1479 1.351 . S
C1480 C1481 1.434 . S
C1481 C1472 1.429 . S
C1481 N1478 1.350 . S
C1481 C1480 1.434 . S
C1482 C1483 1.369 . S
C1482 C1484 1.419 . S
C1482 H1486 0.930 . S
C1483 C1482 1.369 . S
C1483 C1492 1.429 . S
C1484 C1482 1.419 . S
C1484 C1485 1.363 . S
C1484 H1487 0.929 . S
C1485 C1484 1.363 . S
C1485 C1491 1.428 . S
H1486 C1482 0.930 . S
H1487 C1484 0.929 . S
S1488 N1489 1.613 . S
S1488 N1490 1.610 . S
N1489 S1488 1.613 . S
N1489 C1492 1.350 . S
N1490 S1488 1.610 . S
N1490 C1491 1.351 . S
C1491 C1485 1.428 . S
C1491 N1490 1.351 . S
C1491 C1492 1.434 . S
C1492 C1483 1.429 . S
C1492 N1489 1.350 . S
C1492 C1491 1.434 . S
C1493 C1494 1.369 . S
C1493 C1495 1.419 . S
C1493 H1497 0.930 . S
C1494 C1493 1.369 . S
C1494 C1503 1.429 . S
C1495 C1493 1.419 . S
C1495 C1496 1.363 . S
C1495 H1498 0.929 . S
C1496 C1495 1.363 . S
C1496 C1502 1.428 . S
H1497 C1493 0.930 . S
H1498 C1495 0.929 . S
S1499 N1500 1.613 . S
S1499 N1501 1.610 . S
N1500 S1499 1.613 . S
N1500 C1503 1.350 . S
N1501 S1499 1.610 . S
N1501 C1502 1.351 . S
C1502 C1496 1.428 . S
C1502 N1501 1.351 . S
C1502 C1503 1.434 . S
C1503 C1494 1.429 . S
C1503 N1500 1.350 . S
C1503 C1502 1.434 . S
C1504 C1505 1.369 . S
C1504 C1506 1.419 . S
C1504 H1508 0.930 . S
C1505 C1504 1.369 . S
C1505 C1514 1.429 . S
C1506 C1504 1.419 . S
C1506 C1507 1.363 . S
C1506 H1509 0.929 . S
C1507 C1506 1.363 . S
C1507 C1513 1.428 . S
H1508 C1504 0.930 . S
H1509 C1506 0.929 . S
S1510 N1511 1.613 . S
S1510 N1512 1.610 . S
N1511 S1510 1.613 . S
N1511 C1514 1.350 . S
N1512 S1510 1.610 . S
N1512 C1513 1.351 . S
C1513 C1507 1.428 . S
C1513 N1512 1.351 . S
C1513 C1514 1.434 . S
C1514 C1505 1.429 . S
C1514 N1511 1.350 . S
C1514 C1513 1.434 . S
C1515 C1516 1.369 . S
C1515 C1517 1.419 . S
C1515 H1519 0.930 . S
C1516 C1515 1.369 . S
C1516 C1525 1.429 . S
C1517 C1515 1.419 . S
C1517 C1518 1.363 . S
C1517 H1520 0.929 . S
C1518 C1517 1.363 . S
C1518 C1524 1.428 . S
H1519 C1515 0.930 . S
H1520 C1517 0.929 . S
S1521 N1522 1.613 . S
S1521 N1523 1.610 . S
N1522 S1521 1.613 . S
N1522 C1525 1.350 . S
N1523 S1521 1.610 . S
N1523 C1524 1.351 . S
C1524 C1518 1.428 . S
C1524 N1523 1.351 . S
C1524 C1525 1.434 . S
C1525 C1516 1.429 . S
C1525 N1522 1.350 . S
C1525 C1524 1.434 . S
C1526 C1527 1.369 . S
C1526 C1528 1.419 . S
C1526 H1530 0.930 . S
C1527 C1526 1.369 . S
C1527 C1536 1.429 . S
C1528 C1526 1.419 . S
C1528 C1529 1.363 . S
C1528 H1531 0.929 . S
C1529 C1528 1.363 . S
C1529 C1535 1.428 . S
H1530 C1526 0.930 . S
H1531 C1528 0.929 . S
S1532 N1533 1.613 . S
S1532 N1534 1.610 . S
N1533 S1532 1.613 . S
N1533 C1536 1.350 . S
N1534 S1532 1.610 . S
N1534 C1535 1.351 . S
C1535 C1529 1.428 . S
C1535 N1534 1.351 . S
C1535 C1536 1.434 . S
C1536 C1527 1.429 . S
C1536 N1533 1.350 . S
C1536 C1535 1.434 . S
C1537 C1538 1.369 . S
C1537 C1539 1.419 . S
C1537 H1541 0.930 . S
C1538 C1537 1.369 . S
C1538 C1547 1.429 . S
C1539 C1537 1.419 . S
C1539 C1540 1.363 . S
C1539 H1542 0.929 . S
C1540 C1539 1.363 . S
C1540 C1546 1.428 . S
H1541 C1537 0.930 . S
H1542 C1539 0.929 . S
S1543 N1544 1.613 . S
S1543 N1545 1.610 . S
N1544 S1543 1.613 . S
N1544 C1547 1.350 . S
N1545 S1543 1.610 . S
N1545 C1546 1.351 . S
C1546 C1540 1.428 . S
C1546 N1545 1.351 . S
C1546 C1547 1.434 . S
C1547 C1538 1.429 . S
C1547 N1544 1.350 . S
C1547 C1546 1.434 . S
C1548 C1549 1.369 . S
C1548 C1550 1.419 . S
C1548 H1552 0.930 . S
C1549 C1548 1.369 . S
C1549 C1558 1.429 . S
C1550 C1548 1.419 . S
C1550 C1551 1.363 . S
C1550 H1553 0.929 . S
C1551 C1550 1.363 . S
C1551 C1557 1.428 . S
H1552 C1548 0.930 . S
H1553 C1550 0.929 . S
S1554 N1555 1.613 . S
S1554 N1556 1.610 . S
N1555 S1554 1.613 . S
N1555 C1558 1.350 . S
N1556 S1554 1.610 . S
N1556 C1557 1.351 . S
C1557 C1551 1.428 . S
C1557 N1556 1.351 . S
C1557 C1558 1.434 . S
C1558 C1549 1.429 . S
C1558 N1555 1.350 . S
C1558 C1557 1.434 . S
C1559 C1560 1.369 . S
C1559 C1561 1.419 . S
C1559 H1563 0.930 . S
C1560 C1559 1.369 . S
C1560 C1569 1.429 . S
C1561 C1559 1.419 . S
C1561 C1562 1.363 . S
C1561 H1564 0.929 . S
C1562 C1561 1.363 . S
C1562 C1568 1.428 . S
H1563 C1559 0.930 . S
H1564 C1561 0.929 . S
S1565 N1566 1.613 . S
S1565 N1567 1.610 . S
N1566 S1565 1.613 . S
N1566 C1569 1.350 . S
N1567 S1565 1.610 . S
N1567 C1568 1.351 . S
C1568 C1562 1.428 . S
C1568 N1567 1.351 . S
C1568 C1569 1.434 . S
C1569 C1560 1.429 . S
C1569 N1566 1.350 . S
C1569 C1568 1.434 . S
C1570 C1571 1.369 . S
C1570 C1572 1.419 . S
C1570 H1574 0.930 . S
C1571 C1570 1.369 . S
C1571 C1580 1.429 . S
C1572 C1570 1.419 . S
C1572 C1573 1.363 . S
C1572 H1575 0.929 . S
C1573 C1572 1.363 . S
C1573 C1579 1.428 . S
H1574 C1570 0.930 . S
H1575 C1572 0.929 . S
S1576 N1577 1.613 . S
S1576 N1578 1.610 . S
N1577 S1576 1.613 . S
N1577 C1580 1.350 . S
N1578 S1576 1.610 . S
N1578 C1579 1.351 . S
C1579 C1573 1.428 . S
C1579 N1578 1.351 . S
C1579 C1580 1.434 . S
C1580 C1571 1.429 . S
C1580 N1577 1.350 . S
C1580 C1579 1.434 . S
C1581 C1582 1.369 . S
C1581 C1583 1.419 . S
C1581 H1585 0.930 . S
C1582 C1581 1.369 . S
C1582 C1591 1.429 . S
C1583 C1581 1.419 . S
C1583 C1584 1.363 . S
C1583 H1586 0.929 . S
C1584 C1583 1.363 . S
C1584 C1590 1.428 . S
H1585 C1581 0.930 . S
H1586 C1583 0.929 . S
S1587 N1588 1.613 . S
S1587 N1589 1.610 . S
N1588 S1587 1.613 . S
N1588 C1591 1.350 . S
N1589 S1587 1.610 . S
N1589 C1590 1.351 . S
C1590 C1584 1.428 . S
C1590 N1589 1.351 . S
C1590 C1591 1.434 . S
C1591 C1582 1.429 . S
C1591 N1588 1.350 . S
C1591 C1590 1.434 . S
C1592 C1593 1.369 . S
C1592 C1594 1.419 . S
C1592 H1596 0.930 . S
C1593 C1592 1.369 . S
C1593 C1602 1.429 . S
C1594 C1592 1.419 . S
C1594 C1595 1.363 . S
C1594 H1597 0.929 . S
C1595 C1594 1.363 . S
C1595 C1601 1.428 . S
H1596 C1592 0.930 . S
H1597 C1594 0.929 . S
S1598 N1599 1.613 . S
S1598 N1600 1.610 . S
N1599 S1598 1.613 . S
N1599 C1602 1.350 . S
N1600 S1598 1.610 . S
N1600 C1601 1.351 . S
C1601 C1595 1.428 . S
C1601 N1600 1.351 . S
C1601 C1602 1.434 . S
C1602 C1593 1.429 . S
C1602 N1599 1.350 . S
C1602 C1601 1.434 . S
C1603 C1604 1.369 . S
C1603 C1605 1.419 . S
C1603 H1607 0.930 . S
C1604 C1603 1.369 . S
C1604 C1613 1.429 . S
C1605 C1603 1.419 . S
C1605 C1606 1.363 . S
C1605 H1608 0.929 . S
C1606 C1605 1.363 . S
C1606 C1612 1.428 . S
H1607 C1603 0.930 . S
H1608 C1605 0.929 . S
S1609 N1610 1.613 . S
S1609 N1611 1.610 . S
N1610 S1609 1.613 . S
N1610 C1613 1.350 . S
N1611 S1609 1.610 . S
N1611 C1612 1.351 . S
C1612 C1606 1.428 . S
C1612 N1611 1.351 . S
C1612 C1613 1.434 . S
C1613 C1604 1.429 . S
C1613 N1610 1.350 . S
C1613 C1612 1.434 . S
C1614 C1615 1.369 . S
C1614 C1616 1.419 . S
C1614 H1618 0.930 . S
C1615 C1614 1.369 . S
C1615 C1624 1.429 . S
C1616 C1614 1.419 . S
C1616 C1617 1.363 . S
C1616 H1619 0.929 . S
C1617 C1616 1.363 . S
C1617 C1623 1.428 . S
H1618 C1614 0.930 . S
H1619 C1616 0.929 . S
S1620 N1621 1.613 . S
S1620 N1622 1.610 . S
N1621 S1620 1.613 . S
N1621 C1624 1.350 . S
N1622 S1620 1.610 . S
N1622 C1623 1.351 . S
C1623 C1617 1.428 . S
C1623 N1622 1.351 . S
C1623 C1624 1.434 . S
C1624 C1615 1.429 . S
C1624 N1621 1.350 . S
C1624 C1623 1.434 . S
C1625 C1626 1.369 . S
C1625 C1627 1.419 . S
C1625 H1629 0.930 . S
C1626 C1625 1.369 . S
C1626 C1635 1.429 . S
C1627 C1625 1.419 . S
C1627 C1628 1.363 . S
C1627 H1630 0.929 . S
C1628 C1627 1.363 . S
C1628 C1634 1.428 . S
H1629 C1625 0.930 . S
H1630 C1627 0.929 . S
S1631 N1632 1.613 . S
S1631 N1633 1.610 . S
N1632 S1631 1.613 . S
N1632 C1635 1.350 . S
N1633 S1631 1.610 . S
N1633 C1634 1.351 . S
C1634 C1628 1.428 . S
C1634 N1633 1.351 . S
C1634 C1635 1.434 . S
C1635 C1626 1.429 . S
C1635 N1632 1.350 . S
C1635 C1634 1.434 . S
C1636 C1637 1.369 . S
C1636 C1638 1.419 . S
C1636 H1640 0.930 . S
C1637 C1636 1.369 . S
C1637 C1646 1.429 . S
C1638 C1636 1.419 . S
C1638 C1639 1.363 . S
C1638 H1641 0.929 . S
C1639 C1638 1.363 . S
C1639 C1645 1.428 . S
H1640 C1636 0.930 . S
H1641 C1638 0.929 . S
S1642 N1643 1.613 . S
S1642 N1644 1.610 . S
N1643 S1642 1.613 . S
N1643 C1646 1.350 . S
N1644 S1642 1.610 . S
N1644 C1645 1.351 . S
C1645 C1639 1.428 . S
C1645 N1644 1.351 . S
C1645 C1646 1.434 . S
C1646 C1637 1.429 . S
C1646 N1643 1.350 . S
C1646 C1645 1.434 . S
C1647 C1648 1.369 . S
C1647 C1649 1.419 . S
C1647 H1651 0.930 . S
C1648 C1647 1.369 . S
C1648 C1657 1.429 . S
C1649 C1647 1.419 . S
C1649 C1650 1.363 . S
C1649 H1652 0.929 . S
C1650 C1649 1.363 . S
C1650 C1656 1.428 . S
H1651 C1647 0.930 . S
H1652 C1649 0.929 . S
S1653 N1654 1.613 . S
S1653 N1655 1.610 . S
N1654 S1653 1.613 . S
N1654 C1657 1.350 . S
N1655 S1653 1.610 . S
N1655 C1656 1.351 . S
C1656 C1650 1.428 . S
C1656 N1655 1.351 . S
C1656 C1657 1.434 . S
C1657 C1648 1.429 . S
C1657 N1654 1.350 . S
C1657 C1656 1.434 . S
C1658 C1659 1.369 . S
C1658 C1660 1.419 . S
C1658 H1662 0.930 . S
C1659 C1658 1.369 . S
C1659 C1668 1.429 . S
C1660 C1658 1.419 . S
C1660 C1661 1.363 . S
C1660 H1663 0.929 . S
C1661 C1660 1.363 . S
C1661 C1667 1.428 . S
H1662 C1658 0.930 . S
H1663 C1660 0.929 . S
S1664 N1665 1.613 . S
S1664 N1666 1.610 . S
N1665 S1664 1.613 . S
N1665 C1668 1.350 . S
N1666 S1664 1.610 . S
N1666 C1667 1.351 . S
C1667 C1661 1.428 . S
C1667 N1666 1.351 . S
C1667 C1668 1.434 . S
C1668 C1659 1.429 . S
C1668 N1665 1.350 . S
C1668 C1667 1.434 . S
C1669 C1670 1.369 . S
C1669 C1671 1.419 . S
C1669 H1673 0.930 . S
C1670 C1669 1.369 . S
C1670 C1679 1.429 . S
C1671 C1669 1.419 . S
C1671 C1672 1.363 . S
C1671 H1674 0.929 . S
C1672 C1671 1.363 . S
C1672 C1678 1.428 . S
H1673 C1669 0.930 . S
H1674 C1671 0.929 . S
S1675 N1676 1.613 . S
S1675 N1677 1.610 . S
N1676 S1675 1.613 . S
N1676 C1679 1.350 . S
N1677 S1675 1.610 . S
N1677 C1678 1.351 . S
C1678 C1672 1.428 . S
C1678 N1677 1.351 . S
C1678 C1679 1.434 . S
C1679 C1670 1.429 . S
C1679 N1676 1.350 . S
C1679 C1678 1.434 . S
C1680 C1681 1.369 . S
C1680 C1682 1.419 . S
C1680 H1684 0.930 . S
C1681 C1680 1.369 . S
C1681 C1690 1.429 . S
C1682 C1680 1.419 . S
C1682 C1683 1.363 . S
C1682 H1685 0.929 . S
C1683 C1682 1.363 . S
C1683 C1689 1.428 . S
H1684 C1680 0.930 . S
H1685 C1682 0.929 . S
S1686 N1687 1.613 . S
S1686 N1688 1.610 . S
N1687 S1686 1.613 . S
N1687 C1690 1.350 . S
N1688 S1686 1.610 . S
N1688 C1689 1.351 . S
C1689 C1683 1.428 . S
C1689 N1688 1.351 . S
C1689 C1690 1.434 . S
C1690 C1681 1.429 . S
C1690 N1687 1.350 . S
C1690 C1689 1.434 . S
C1691 C1692 1.369 1_556 S
C1691 C1693 1.419 . S
C1691 H1695 0.930 1_556 S
C1692 C1691 1.369 1_554 S
C1692 C1701 1.429 . S
C1693 C1691 1.419 . S
C1693 C1694 1.363 . S
C1693 H1696 0.929 . S
C1694 C1693 1.363 . S
C1694 C1700 1.428 . S
H1695 C1691 0.930 1_554 S
H1696 C1693 0.929 . S
S1697 N1698 1.613 1_556 S
S1697 N1699 1.610 . S
N1698 S1697 1.613 1_554 S
N1698 C1701 1.350 . S
N1699 S1697 1.610 . S
N1699 C1700 1.351 . S
C1700 C1694 1.428 . S
C1700 N1699 1.351 . S
C1700 C1701 1.434 1_556 S
C1701 C1692 1.429 . S
C1701 N1698 1.350 . S
C1701 C1700 1.434 1_554 S
C1702 C1703 1.369 . S
C1702 C1704 1.419 . S
C1702 H1706 0.930 . S
C1703 C1702 1.369 . S
C1703 C1712 1.429 . S
C1704 C1702 1.419 . S
C1704 C1705 1.363 . S
C1704 H1707 0.929 . S
C1705 C1704 1.363 . S
C1705 C1711 1.428 . S
H1706 C1702 0.930 . S
H1707 C1704 0.929 . S
S1708 N1709 1.613 . S
S1708 N1710 1.610 . S
N1709 S1708 1.613 . S
N1709 C1712 1.350 . S
N1710 S1708 1.610 . S
N1710 C1711 1.351 . S
C1711 C1705 1.428 . S
C1711 N1710 1.351 . S
C1711 C1712 1.434 . S
C1712 C1703 1.429 . S
C1712 N1709 1.350 . S
C1712 C1711 1.434 . S
C1713 C1714 1.369 . S
C1713 C1715 1.419 1_554 S
C1713 H1717 0.930 . S
C1714 C1713 1.369 . S
C1714 C1723 1.429 . S
C1715 C1713 1.419 1_556 S
C1715 C1716 1.363 . S
C1715 H1718 0.929 . S
C1716 C1715 1.363 . S
C1716 C1722 1.428 1_556 S
H1717 C1713 0.930 . S
H1718 C1715 0.929 . S
S1719 N1720 1.613 . S
S1719 N1721 1.610 . S
N1720 S1719 1.613 . S
N1720 C1723 1.350 . S
N1721 S1719 1.610 . S
N1721 C1722 1.351 . S
C1722 C1716 1.428 1_554 S
C1722 N1721 1.351 . S
C1722 C1723 1.434 . S
C1723 C1714 1.429 . S
C1723 N1720 1.350 . S
C1723 C1722 1.434 . S
C1724 C1725 1.369 . S
C1724 C1726 1.419 . S
C1724 H1728 0.930 . S
C1725 C1724 1.369 . S
C1725 C1734 1.429 . S
C1726 C1724 1.419 . S
C1726 C1727 1.363 . S
C1726 H1729 0.929 . S
C1727 C1726 1.363 . S
C1727 C1733 1.428 . S
H1728 C1724 0.930 . S
H1729 C1726 0.929 . S
S1730 N1731 1.613 . S
S1730 N1732 1.610 . S
N1731 S1730 1.613 . S
N1731 C1734 1.350 . S
N1732 S1730 1.610 . S
N1732 C1733 1.351 . S
C1733 C1727 1.428 . S
C1733 N1732 1.351 . S
C1733 C1734 1.434 . S
C1734 C1725 1.429 . S
C1734 N1731 1.350 . S
C1734 C1733 1.434 . S
C1735 C1736 1.369 . S
C1735 C1737 1.419 1_655 S
C1735 H1739 0.930 . S
C1736 C1735 1.369 . S
C1736 C1745 1.429 1_655 S
C1737 C1735 1.419 1_455 S
C1737 C1738 1.363 . S
C1737 H1740 0.929 . S
C1738 C1737 1.363 . S
C1738 C1744 1.428 . S
H1739 C1735 0.930 . S
H1740 C1737 0.929 . S
S1741 N1742 1.613 . S
S1741 N1743 1.610 . S
N1742 S1741 1.613 . S
N1742 C1745 1.350 . S
N1743 S1741 1.610 . S
N1743 C1744 1.351 . S
C1744 C1738 1.428 . S
C1744 N1743 1.351 . S
C1744 C1745 1.434 . S
C1745 C1736 1.429 1_455 S
C1745 N1742 1.350 . S
C1745 C1744 1.434 . S
C1746 C1747 1.369 1_655 S
C1746 C1748 1.419 . S
C1746 H1750 0.930 . S
C1747 C1746 1.369 1_455 S
C1747 C1756 1.429 . S
C1748 C1746 1.419 . S
C1748 C1749 1.363 . S
C1748 H1751 0.929 . S
C1749 C1748 1.363 . S
C1749 C1755 1.428 . S
H1750 C1746 0.930 . S
H1751 C1748 0.929 . S
S1752 N1753 1.613 . S
S1752 N1754 1.610 1_455 S
N1753 S1752 1.613 . S
N1753 C1756 1.350 . S
N1754 S1752 1.610 1_655 S
N1754 C1755 1.351 . S
C1755 C1749 1.428 . S
C1755 N1754 1.351 . S
C1755 C1756 1.434 1_655 S
C1756 C1747 1.429 . S
C1756 N1753 1.350 . S
C1756 C1755 1.434 1_455 S
C1757 C1758 1.369 . S
C1757 C1759 1.419 . S
C1757 H1761 0.930 . S
C1758 C1757 1.369 . S
C1758 C1767 1.429 . S
C1759 C1757 1.419 . S
C1759 C1760 1.363 . S
C1759 H1762 0.929 . S
C1760 C1759 1.363 . S
C1760 C1766 1.428 . S
H1761 C1757 0.930 . S
H1762 C1759 0.929 . S
S1763 N1764 1.613 . S
S1763 N1765 1.610 . S
N1764 S1763 1.613 . S
N1764 C1767 1.350 . S
N1765 S1763 1.610 . S
N1765 C1766 1.351 . S
C1766 C1760 1.428 . S
C1766 N1765 1.351 . S
C1766 C1767 1.434 . S
C1767 C1758 1.429 . S
C1767 N1764 1.350 . S
C1767 C1766 1.434 . S
C1768 C1769 1.369 . S
C1768 C1770 1.419 . S
C1768 H1772 0.930 . S
C1769 C1768 1.369 . S
C1769 C1778 1.429 . S
C1770 C1768 1.419 . S
C1770 C1771 1.363 . S
C1770 H1773 0.929 . S
C1771 C1770 1.363 . S
C1771 C1777 1.428 . S
H1772 C1768 0.930 . S
H1773 C1770 0.929 . S
S1774 N1775 1.613 . S
S1774 N1776 1.610 . S
N1775 S1774 1.613 . S
N1775 C1778 1.350 . S
N1776 S1774 1.610 . S
N1776 C1777 1.351 . S
C1777 C1771 1.428 . S
C1777 N1776 1.351 . S
C1777 C1778 1.434 . S
C1778 C1769 1.429 . S
C1778 N1775 1.350 . S
C1778 C1777 1.434 . S
C1779 C1780 1.369 1_545 S
C1779 C1781 1.419 . S
C1779 H1783 0.930 . S
C1780 C1779 1.369 1_565 S
C1780 C1789 1.429 . S
C1781 C1779 1.419 . S
C1781 C1782 1.363 . S
C1781 H1784 0.929 . S
C1782 C1781 1.363 . S
C1782 C1788 1.428 . S
H1783 C1779 0.930 . S
H1784 C1781 0.929 . S
S1785 N1786 1.613 . S
S1785 N1787 1.610 1_565 S
N1786 S1785 1.613 . S
N1786 C1789 1.350 . S
N1787 S1785 1.610 1_545 S
N1787 C1788 1.351 . S
C1788 C1782 1.428 . S
C1788 N1787 1.351 . S
C1788 C1789 1.434 1_545 S
C1789 C1780 1.429 . S
C1789 N1786 1.350 . S
C1789 C1788 1.434 1_565 S
C1790 C1791 1.369 1_565 S
C1790 C1792 1.419 . S
C1790 H1794 0.930 1_565 S
C1791 C1790 1.369 1_545 S
C1791 C1800 1.439 . S
C1792 C1790 1.419 . S
C1792 C1793 1.363 . S
C1792 H1795 0.929 . S
C1793 C1792 1.363 . S
C1793 C1799 1.428 . S
H1794 C1790 0.930 1_545 S
H1795 C1792 0.929 . S
S1796 N1797 1.613 1_565 S
S1796 N1798 1.610 . S
N1797 S1796 1.613 1_545 S
N1797 C1800 1.359 . S
N1798 S1796 1.610 . S
N1798 C1799 1.351 . S
C1799 C1793 1.428 . S
C1799 N1798 1.351 . S
C1799 C1800 1.413 1_565 S
C1800 C1791 1.439 . S
C1800 N1797 1.359 . S
C1800 C1799 1.413 1_545 S
C1801 C1802 1.369 . S
C1801 C1803 1.419 . S
C1801 H1805 0.930 . S
C1802 C1801 1.369 . S
C1802 C1811 1.429 . S
C1803 C1801 1.419 . S
C1803 C1804 1.363 . S
C1803 H1806 0.929 . S
C1804 C1803 1.363 . S
C1804 C1810 1.428 . S
H1805 C1801 0.930 . S
H1806 C1803 0.929 . S
S1807 N1808 1.613 . S
S1807 N1809 1.610 . S
N1808 S1807 1.613 . S
N1808 C1811 1.350 . S
N1809 S1807 1.610 . S
N1809 C1810 1.351 . S
C1810 C1804 1.428 . S
C1810 N1809 1.351 . S
C1810 C1811 1.434 . S
C1811 C1802 1.429 . S
C1811 N1808 1.350 . S
C1811 C1810 1.434 . S
C1812 C1813 1.369 . S
C1812 C1814 1.419 . S
C1812 H1816 0.930 . S
C1813 C1812 1.369 . S
C1813 C1822 1.429 . S
C1814 C1812 1.419 . S
C1814 C1815 1.363 . S
C1814 H1817 0.929 . S
C1815 C1814 1.363 . S
C1815 C1821 1.428 . S
H1816 C1812 0.930 . S
H1817 C1814 0.929 . S
S1818 N1819 1.613 . S
S1818 N1820 1.610 . S
N1819 S1818 1.613 . S
N1819 C1822 1.350 . S
N1820 S1818 1.610 . S
N1820 C1821 1.351 . S
C1821 C1815 1.428 . S
C1821 N1820 1.351 . S
C1821 C1822 1.434 . S
C1822 C1813 1.429 . S
C1822 N1819 1.350 . S
C1822 C1821 1.434 . S
C1823 C1824 1.369 . S
C1823 C1825 1.419 1_556 S
C1823 H1827 0.930 . S
C1824 C1823 1.369 . S
C1824 C1833 1.429 1_556 S
C1825 C1823 1.419 1_554 S
C1825 C1826 1.363 . S
C1825 H1828 0.929 . S
C1826 C1825 1.363 . S
C1826 C1832 1.428 . S
H1827 C1823 0.930 . S
H1828 C1825 0.929 . S
S1829 N1830 1.613 . S
S1829 N1831 1.610 . S
N1830 S1829 1.613 . S
N1830 C1833 1.350 . S
N1831 S1829 1.610 . S
N1831 C1832 1.351 . S
C1832 C1826 1.428 . S
C1832 N1831 1.351 . S
C1832 C1833 1.434 . S
C1833 C1824 1.429 1_554 S
C1833 N1830 1.350 . S
C1833 C1832 1.434 . S
C1834 C1835 1.369 . S
C1834 C1836 1.419 . S
C1834 H1838 0.930 . S
C1835 C1834 1.369 . S
C1835 C1844 1.429 . S
C1836 C1834 1.419 . S
C1836 C1837 1.363 . S
C1836 H1839 0.929 . S
C1837 C1836 1.363 . S
C1837 C1843 1.428 . S
H1838 C1834 0.930 . S
H1839 C1836 0.929 . S
S1840 N1841 1.613 . S
S1840 N1842 1.610 . S
N1841 S1840 1.613 . S
N1841 C1844 1.350 . S
N1842 S1840 1.610 . S
N1842 C1843 1.351 . S
C1843 C1837 1.428 . S
C1843 N1842 1.351 . S
C1843 C1844 1.434 . S
C1844 C1835 1.429 . S
C1844 N1841 1.350 . S
C1844 C1843 1.434 . S
C1845 C1846 1.369 . S
C1845 C1847 1.419 1_554 S
C1845 H1849 0.930 . S
C1846 C1845 1.369 . S
C1846 C1855 1.429 1_554 S
C1847 C1845 1.419 1_556 S
C1847 C1848 1.363 . S
C1847 H1850 0.929 . S
C1848 C1847 1.363 . S
C1848 C1854 1.428 . S
H1849 C1845 0.930 . S
H1850 C1847 0.929 . S
S1851 N1852 1.613 . S
S1851 N1853 1.610 . S
N1852 S1851 1.613 . S
N1852 C1855 1.350 . S
N1853 S1851 1.610 . S
N1853 C1854 1.351 . S
C1854 C1848 1.428 . S
C1854 N1853 1.351 . S
C1854 C1855 1.434 . S
C1855 C1846 1.429 1_556 S
C1855 N1852 1.350 . S
C1855 C1854 1.434 . S
C1856 C1857 1.369 . S
C1856 C1858 1.419 . S
C1856 H1860 0.930 . S
C1857 C1856 1.369 . S
C1857 C1866 1.429 . S
C1858 C1856 1.419 . S
C1858 C1859 1.363 . S
C1858 H1861 0.929 . S
C1859 C1858 1.363 . S
C1859 C1865 1.428 . S
H1860 C1856 0.930 . S
H1861 C1858 0.929 . S
S1862 N1863 1.613 . S
S1862 N1864 1.610 . S
N1863 S1862 1.613 . S
N1863 C1866 1.350 . S
N1864 S1862 1.610 . S
N1864 C1865 1.351 . S
C1865 C1859 1.428 . S
C1865 N1864 1.351 . S
C1865 C1866 1.434 . S
C1866 C1857 1.429 . S
C1866 N1863 1.350 . S
C1866 C1865 1.434 . S
C1867 C1868 1.369 . S
C1867 C1869 1.419 . S
C1867 H1871 0.930 . S
C1868 C1867 1.369 . S
C1868 C1877 1.429 . S
C1869 C1867 1.419 . S
C1869 C1870 1.363 1_655 S
C1869 H1872 0.929 1_655 S
C1870 C1869 1.363 1_455 S
C1870 C1876 1.428 . S
H1871 C1867 0.930 . S
H1872 C1869 0.929 1_455 S
S1873 N1874 1.613 . S
S1873 N1875 1.610 1_655 S
N1874 S1873 1.613 . S
N1874 C1877 1.350 . S
N1875 S1873 1.610 1_455 S
N1875 C1876 1.351 . S
C1876 C1870 1.428 . S
C1876 N1875 1.351 . S
C1876 C1877 1.434 1_455 S
C1877 C1868 1.429 . S
C1877 N1874 1.350 . S
C1877 C1876 1.434 1_655 S
C1878 C1879 1.369 . S
C1878 C1880 1.419 . S
C1878 H1882 0.930 . S
C1879 C1878 1.369 . S
C1879 C1888 1.429 . S
C1880 C1878 1.419 . S
C1880 C1881 1.363 1_455 S
C1880 H1883 0.929 . S
C1881 C1880 1.363 1_655 S
C1881 C1887 1.428 . S
H1882 C1878 0.930 . S
H1883 C1880 0.929 . S
S1884 N1885 1.613 1_655 S
S1884 N1886 1.610 . S
N1885 S1884 1.613 1_455 S
N1885 C1888 1.350 . S
N1886 S1884 1.610 . S
N1886 C1887 1.351 . S
C1887 C1881 1.428 . S
C1887 N1886 1.351 . S
C1887 C1888 1.434 1_655 S
C1888 C1879 1.429 . S
C1888 N1885 1.350 . S
C1888 C1887 1.434 1_455 S
C1889 C1890 1.369 . S
C1889 C1891 1.419 . S
C1889 H1893 0.930 . S
C1890 C1889 1.369 . S
C1890 C1899 1.429 . S
C1891 C1889 1.419 . S
C1891 C1892 1.363 . S
C1891 H1894 0.929 . S
C1892 C1891 1.363 . S
C1892 C1898 1.428 . S
H1893 C1889 0.930 . S
H1894 C1891 0.929 . S
S1895 N1896 1.613 . S
S1895 N1897 1.610 . S
N1896 S1895 1.613 . S
N1896 C1899 1.350 . S
N1897 S1895 1.610 . S
N1897 C1898 1.351 . S
C1898 C1892 1.428 . S
C1898 N1897 1.351 . S
C1898 C1899 1.434 . S
C1899 C1890 1.429 . S
C1899 N1896 1.350 . S
C1899 C1898 1.434 . S
C1900 C1901 1.369 . S
C1900 C1902 1.419 . S
C1900 H1904 0.930 . S
C1901 C1900 1.369 . S
C1901 C1910 1.429 . S
C1902 C1900 1.419 . S
C1902 C1903 1.363 . S
C1902 H1905 0.929 . S
C1903 C1902 1.363 . S
C1903 C1909 1.428 . S
H1904 C1900 0.930 . S
H1905 C1902 0.929 . S
S1906 N1907 1.613 . S
S1906 N1908 1.610 . S
N1907 S1906 1.613 . S
N1907 C1910 1.350 . S
N1908 S1906 1.610 . S
N1908 C1909 1.351 . S
C1909 C1903 1.428 . S
C1909 N1908 1.351 . S
C1909 C1910 1.434 . S
C1910 C1901 1.429 . S
C1910 N1907 1.350 . S
C1910 C1909 1.434 . S
C1911 C1912 1.369 . S
C1911 C1913 1.419 . S
C1911 H1915 0.930 . S
C1912 C1911 1.369 . S
C1912 C1921 1.429 . S
C1913 C1911 1.419 . S
C1913 C1914 1.363 1_565 S
C1913 H1916 0.929 . S
C1914 C1913 1.363 1_545 S
C1914 C1920 1.428 . S
H1915 C1911 0.930 . S
H1916 C1913 0.929 . S
S1917 N1918 1.613 1_545 S
S1917 N1919 1.610 . S
N1918 S1917 1.613 1_565 S
N1918 C1921 1.350 . S
N1919 S1917 1.610 . S
N1919 C1920 1.351 . S
C1920 C1914 1.428 . S
C1920 N1919 1.351 . S
C1920 C1921 1.434 1_545 S
C1921 C1912 1.429 . S
C1921 N1918 1.350 . S
C1921 C1920 1.434 1_565 S
C1922 C1923 1.370 1_545 S
C1922 C1924 1.416 . S
C1922 H1926 0.931 1_545 S
C1923 C1922 1.370 1_565 S
C1923 C1932 1.429 1_565 S
C1924 C1922 1.416 . S
C1924 C1925 1.363 . S
C1924 H1927 0.929 . S
C1925 C1924 1.363 . S
C1925 C1931 1.428 . S
H1926 C1922 0.931 1_565 S
H1927 C1924 0.929 . S
S1928 N1929 1.613 1_545 S
S1928 N1930 1.610 . S
N1929 S1928 1.613 1_565 S
N1929 C1932 1.350 1_565 S
N1930 S1928 1.610 . S
N1930 C1931 1.351 . S
C1931 C1925 1.428 . S
C1931 N1930 1.351 . S
C1931 C1932 1.434 . S
C1932 C1923 1.429 1_545 S
C1932 N1929 1.350 1_545 S
C1932 C1931 1.434 . S
C1933 C1934 1.369 . S
C1933 C1935 1.419 . S
C1933 H1937 0.930 . S
C1934 C1933 1.369 . S
C1934 C1943 1.429 . S
C1935 C1933 1.419 . S
C1935 C1936 1.363 . S
C1935 H1938 0.929 . S
C1936 C1935 1.363 . S
C1936 C1942 1.428 . S
H1937 C1933 0.930 . S
H1938 C1935 0.929 . S
S1939 N1940 1.613 . S
S1939 N1941 1.610 . S
N1940 S1939 1.613 . S
N1940 C1943 1.350 . S
N1941 S1939 1.610 . S
N1941 C1942 1.351 . S
C1942 C1936 1.428 . S
C1942 N1941 1.351 . S
C1942 C1943 1.434 . S
C1943 C1934 1.429 . S
C1943 N1940 1.350 . S
C1943 C1942 1.434 . S
C1417 C524 1.339 . S
C1419 C33 1.322 . S
C1428 C92 1.321 . S
C1430 C701 1.339 . S
C1439 C151 1.327 . S
C1441 C583 1.341 . S
C1450 C210 1.325 . S
C1452 C642 1.341 . S
C1461 C269 1.322 . S
C1463 C52 1.339 . S
C1472 C111 1.341 . S
C1474 C328 1.327 . S
C1483 C387 1.326 . S
C1485 C170 1.341 . S
C1494 C229 1.338 . S
C1496 C446 1.323 . S
C1505 C288 1.341 . S
C1507 C505 1.325 . S
C1516 C406 1.341 . S
C1518 C564 1.327 . S
C1527 C623 1.324 . S
C1529 C465 1.339 . S
C1538 C347 1.339 . S
C1540 C682 1.322 . S
C1549 C1232 1.338 . S
C1551 C741 1.323 . S
C1560 C800 1.327 . S
C1562 C1409 1.340 . S
C1571 C859 1.327 . S
C1573 C1291 1.340 . S
C1582 C1350 1.340 . S
C1584 C918 1.326 . S
C1593 C977 1.327 . S
C1595 C760 1.340 . S
C1604 C819 1.340 . S
C1606 C1036 1.322 . S
C1615 C878 1.341 . S
C1617 C1095 1.327 . S
C1626 C1154 1.328 . S
C1628 C937 1.341 . S
C1637 C1213 1.324 . S
C1639 C996 1.341 . S
C1648 C1114 1.341 . S
C1650 C1272 1.325 . S
C1659 C1173 1.339 . S
C1661 C1331 1.322 . S
C1670 C1390 1.323 . S
C1672 C1055 1.339 . S
C1681 C1303 1.512 . S
C1683 C3 1.490 . S
C1692 C1244 1.512 . S
C1694 C62 1.493 . S
C1703 C1362 1.512 . S
C1705 C121 1.494 . S
C1714 C180 1.490 . S
C1716 C1185 1.512 . S
C1725 C239 1.495 . S
C1727 C772 1.509 . S
C1736 C713 1.510 . S
C1738 C298 1.491 . S
C1747 C890 1.509 . S
C1749 C357 1.495 . S
C1758 C831 1.512 . S
C1760 C416 1.490 . S
C1769 C475 1.496 . S
C1771 C1067 1.511 . S
C1780 C949 1.511 . S
C1782 C534 1.494 . S
C1791 C1008 1.509 . S
C1793 C593 1.494 . S
C1802 C1126 1.511 . S
C1804 C652 1.495 . S
C1813 C595 1.510 . S
C1815 C711 1.495 . S
C1824 C536 1.512 . S
C1826 C770 1.490 . S
C1835 C829 1.494 . S
C1837 C654 1.510 . S
C1846 C477 1.513 . S
C1848 C888 1.491 . S
C1857 C947 1.495 . S
C1859 C64 1.509 . S
C1868 C1006 1.494 . S
C1870 C5 1.510 . S
C1879 C1065 1.496 . S
C1881 C182 1.510 . S
C1890 C1124 1.494 . S
C1892 C123 1.511 . S
C1901 C1183 1.495 . S
C1903 C359 1.509 . S
C1912 C1242 1.496 . S
C1914 C241 1.510 . S
C1923 C300 1.511 . S
C1925 C1301 1.494 . S
C1934 C1360 1.495 . S
C1936 C418 1.511 . S
