# Generated by pormake.
# Topology sve, (7)-cn, num edge types: 1
# Building blocks:
#     Node 0, Type 0, BuildingBlock: HICVOG_clean_sbu_0, # of connection points: 7
#     Node 1, Type 0, BuildingBlock: HICVOG_clean_sbu_0, # of connection points: 7
#     Node 2, Type 0, BuildingBlock: HICVOG_clean_sbu_0, # of connection points: 7
#     Node 3, Type 0, BuildingBlock: HICVOG_clean_sbu_0, # of connection points: 7
#     Edge 4, Type (0, 0), BuildingBlock: XUDNAN_clean_linker_2, # of connection points: 2
#     Edge 5, Type (0, 0), BuildingBlock: XUDNAN_clean_linker_2, # of connection points: 2
#     Edge 6, Type (0, 0), BuildingBlock: XUDNAN_clean_linker_2, # of connection points: 2
#     Edge 7, Type (0, 0), BuildingBlock: XUDNAN_clean_linker_2, # of connection points: 2
#     Edge 8, Type (0, 0), BuildingBlock: XUDNAN_clean_linker_2, # of connection points: 2
#     Edge 9, Type (0, 0), BuildingBlock: XUDNAN_clean_linker_2, # of connection points: 2
#     Edge 10, Type (0, 0), BuildingBlock: XUDNAN_clean_linker_2, # of connection points: 2
#     Edge 11, Type (0, 0), BuildingBlock: XUDNAN_clean_linker_2, # of connection points: 2
#     Edge 12, Type (0, 0), BuildingBlock: XUDNAN_clean_linker_2, # of connection points: 2
#     Edge 13, Type (0, 0), BuildingBlock: XUDNAN_clean_linker_2, # of connection points: 2
#     Edge 14, Type (0, 0), BuildingBlock: XUDNAN_clean_linker_2, # of connection points: 2
#     Edge 15, Type (0, 0), BuildingBlock: XUDNAN_clean_linker_2, # of connection points: 2
#     Edge 16, Type (0, 0), BuildingBlock: XUDNAN_clean_linker_2, # of connection points: 2
#     Edge 17, Type (0, 0), BuildingBlock: XUDNAN_clean_linker_2, # of connection points: 2
# Relax obj value: 0.267
# Max RMSD: 0.295
# Mean RMSD: 0.258
data_MOF--net-sve--node1-HICVOG_clean_sbu_0--edge1-XUDNAN_clean_linker_2
_symmetry_space_group_name_H-M    P1
_symmetry_Int_Tables_number       1
_symmetry_cell_setting            triclinic
loop_
_symmetry_equiv_pos_as_xyz
'x, y, z'
_cell_length_a     31.569619
_cell_length_b     27.953258
_cell_length_c     20.394067
_cell_angle_alpha  96.332846
_cell_angle_beta   84.000958
_cell_angle_gamma 89.650257
loop_
_atom_site_label
_atom_site_type_symbol
_atom_site_fract_x
_atom_site_fract_y
_atom_site_fract_z
_atom_type_partial_charge
Zn0 Zn 0.15748 0.30945 0.12773 0.0
C1 C 0.09652 0.38881 0.01798 0.0
N2 N 0.06359 0.35914 0.02787 0.0
C3 C 0.08034 0.3231 0.05579 0.0
N4 N 0.12184 0.3303 0.06359 0.0
N5 N 0.13238 0.36969 0.03581 0.0
C6 C 0.20134 0.46875 0.9952 0.0
O7 O 0.19277 0.46171 0.0578 0.0
O8 O 0.13912 0.24682 0.15956 0.0
Zn9 Zn 0.18359 0.36794 0.9745 0.0
N10 N 0.1554 0.35921 0.20335 0.0
C11 C 0.14811 0.44242 0.24414 0.0
C12 C 0.14736 0.40547 0.19275 0.0
C13 C 0.164 0.34851 0.26431 0.0
N14 N 0.15745 0.43193 0.30432 0.0
C15 C 0.16542 0.38596 0.31624 0.0
O16 O 0.23637 0.33846 1.00411 0.0
C17 C 0.24732 0.31175 0.04641 0.0
O18 O 0.22023 0.29849 0.0915 0.0
H19 H 0.1411 0.41411 0.14467 0.0
H20 H 0.171 0.31162 0.27155 0.0
C21 C 0.17857 0.34557 0.83439 0.0
C22 C 0.17147 0.31553 0.77645 0.0
C23 C 0.15024 0.25346 0.84321 0.0
C24 C 0.15812 0.2831 0.89997 0.0
N25 N 0.17202 0.32849 0.89449 0.0
N26 N 0.15717 0.27023 0.78309 0.0
H27 H 0.18882 0.38222 0.83252 0.0
C28 C 0.13651 0.21183 0.11508 0.0
O29 O 0.13834 0.22086 0.05299 0.0
O30 O 0.19845 0.43387 0.95064 0.0
H31 H 0.15334 0.2701 0.94808 0.0
H32 H 0.14188 0.47931 0.23604 0.0
H33 H 0.139 0.21727 0.84679 0.0
Zn34 Zn 0.71982 0.19345 0.07892 0.0
C35 C 0.66224 0.10244 0.94895 0.0
N36 N 0.6918 0.07054 0.95961 0.0
C37 C 0.71724 0.0962 0.99812 0.0
N38 N 0.70372 0.14285 0.01173 0.0
N39 N 0.66987 0.14702 0.97856 0.0
C40 C 0.55703 0.24288 0.95089 0.0
O41 O 0.57421 0.27487 0.9141 0.0
O42 O 0.77831 0.18175 0.10942 0.0
Zn43 Zn 0.64683 0.20706 0.95102 0.0
N44 N 0.67371 0.1996 0.152 0.0
C45 C 0.59854 0.21046 0.17395 0.0
C46 C 0.63506 0.20447 0.12952 0.0
C47 C 0.67735 0.20126 0.21855 0.0
N48 N 0.60199 0.21237 0.23975 0.0
C49 C 0.64018 0.20824 0.26433 0.0
O50 O 0.67033 0.27151 0.98933 0.0
C51 C 0.70214 0.28735 0.01836 0.0
O52 O 0.72516 0.25987 0.04647 0.0
H53 H 0.63265 0.20438 0.07715 0.0
H54 H 0.70858 0.19856 0.2353 0.0
C55 C 0.65182 0.20577 0.80022 0.0
C56 C 0.67784 0.20163 0.73855 0.0
C57 C 0.739 0.1946 0.79588 0.0
C58 C 0.71352 0.19889 0.85594 0.0
N59 N 0.67055 0.20393 0.85753 0.0
N60 N 0.72067 0.19604 0.73908 0.0
H61 H 0.61758 0.20961 0.80267 0.0
C62 C 0.80974 0.18005 0.06456 0.0
O63 O 0.80179 0.17991 1.00255 0.0
O64 O 0.58114 0.21169 0.97028 0.0
H65 H 0.72794 0.19804 0.90162 0.0
H66 H 0.56764 0.21423 0.15638 0.0
H67 H 0.77318 0.19028 0.79429 0.0
Zn68 Zn 0.87668 0.72113 0.15632 0.0
C69 C 0.83934 0.59848 0.07014 0.0
N70 N 0.8735 0.5826 0.09623 0.0
C71 C 0.89453 0.62275 0.1131 0.0
N72 N 0.87393 0.66191 0.09877 0.0
N73 N 0.83968 0.64736 0.07009 0.0
C74 C 0.73416 0.69307 0.0377 0.0
O75 O 0.74913 0.70606 0.09459 0.0
O76 O 0.93783 0.74062 0.16354 0.0
Zn77 Zn 0.82111 0.68828 1.00491 0.0
N78 N 0.84663 0.71034 0.24068 0.0
C79 C 0.78366 0.68054 0.2951 0.0
C80 C 0.80806 0.68951 0.23722 0.0
C81 C 0.86188 0.72306 0.30002 0.0
N82 N 0.79889 0.69267 0.35426 0.0
C83 C 0.83743 0.71373 0.35923 0.0
O84 O 0.82174 0.76196 0.03215 0.0
C85 C 0.83055 0.7922 0.08024 0.0
O86 O 0.84859 0.77903 0.12821 0.0
H87 H 0.79633 0.68012 0.1897 0.0
H88 H 0.89229 0.74046 0.30013 0.0
C89 C 0.85597 0.69638 0.86862 0.0
C90 C 0.88723 0.68792 0.81386 0.0
C91 C 0.92396 0.63488 0.87228 0.0
C92 C 0.89297 0.64308 0.92606 0.0
N93 N 0.85983 0.67407 0.92393 0.0
N94 N 0.92047 0.65751 0.8177 0.0
H95 H 0.82953 0.72111 0.86798 0.0
C96 C 0.95313 0.7585 0.11163 0.0
O97 O 0.93036 0.75681 0.06107 0.0
O98 O 0.76004 0.67857 0.98738 0.0
H99 H 0.89598 0.62516 0.96937 0.0
H100 H 0.75287 0.66396 0.29315 0.0
H101 H 0.95068 0.61077 0.8739 0.0
Zn102 Zn 0.38789 0.86601 0.93218 0.0
C103 C 0.33384 0.96583 0.07223 0.0
N104 N 0.361 0.99555 0.04235 0.0
C105 C 0.38733 0.9648 1.00163 0.0
N106 N 0.37554 0.91856 1.00377 0.0
N107 N 0.34289 0.91944 0.05003 0.0
C108 C 0.24244 0.87726 0.09646 0.0
O109 O 0.26055 0.87773 0.03552 0.0
O110 O 0.44901 0.84108 0.93258 0.0
Zn111 Zn 0.32703 0.86687 0.1003 0.0
N112 N 0.37509 0.89115 0.85051 0.0
C113 C 0.33622 0.95004 0.80398 0.0
C114 C 0.35019 0.93179 0.8586 0.0
C115 C 0.3845 0.86634 0.78918 0.0
N116 N 0.34555 0.92552 0.74323 0.0
C117 C 0.36877 0.88367 0.73369 0.0
O118 O 0.32249 0.80582 0.04252 0.0
C119 C 0.32858 0.78632 0.98306 0.0
O120 O 0.34983 0.80689 0.93779 0.0
H121 H 0.33949 0.94927 0.90718 0.0
H122 H 0.402 0.83255 0.7846 0.0
C123 C 0.36231 0.84237 0.22083 0.0
C124 C 0.39643 0.83674 0.25906 0.0
C125 C 0.44372 0.86724 0.17613 0.0
C126 C 0.40995 0.87369 0.13933 0.0
N127 N 0.37003 0.86026 0.16124 0.0
N128 N 0.43621 0.84904 0.23492 0.0
H129 H 0.33028 0.83239 0.23777 0.0
C130 C 0.45025 0.81435 0.97909 0.0
O131 O 0.41465 0.80726 0.01554 0.0
O132 O 0.26611 0.87556 0.14306 0.0
H133 H 0.41598 0.88847 0.09277 0.0
H134 H 0.31681 0.98257 0.80998 0.0
H135 H 0.47568 0.87688 0.15831 0.0
H136 H 0.05968 0.43136 0.13292 0.0
H137 H 0.10819 0.4614 0.93587 0.0
H138 H 0.07583 0.54367 0.9592 0.0
H139 H 0.96308 0.47161 0.1255 0.0
H140 H 0.95173 0.49521 0.21153 0.0
H141 H 0.99081 0.44816 0.18837 0.0
H142 H 0.04692 0.50104 0.24494 0.0
H143 H 1.00761 0.54872 0.26787 0.0
H144 H 0.05743 0.5604 0.22117 0.0
H145 H 0.0256 0.61455 0.99549 0.0
H146 H 0.95658 0.65657 0.02858 0.0
H147 H 0.9353 0.57539 0.19699 0.0
C148 C 0.06509 0.45624 0.09587 0.0
C149 C 0.087 0.44084 0.03323 0.0
C150 C 0.09229 0.47317 0.98468 0.0
C151 C 0.0741 0.51994 0.99783 0.0
C152 C 0.05066 0.53334 0.05951 0.0
C153 C 0.04618 0.50201 0.10767 0.0
C154 C 0.01224 0.51936 0.16336 0.0
C155 C 0.97744 0.48138 0.17258 0.0
C156 C 0.03225 0.53322 0.22818 0.0
C157 C 0.99557 0.56344 0.13681 0.0
C158 C 0.0196 0.57257 0.07877 0.0
C159 C 1.00725 0.60825 0.0415 0.0
C160 C 0.96802 0.63239 0.06106 0.0
C161 C 0.94092 0.61934 0.11576 0.0
C162 C 0.95614 0.58685 0.15625 0.0
H163 H 0.62909 1.01554 0.9666 0.0
H164 H 0.60194 0.14701 0.88383 0.0
H165 H 0.52814 0.11972 0.87203 0.0
H166 H 0.56281 0.93528 0.85925 0.0
H167 H 0.54823 0.89965 0.92631 0.0
H168 H 0.59965 0.92747 0.91926 0.0
H169 H 0.58399 0.96921 0.03934 0.0
H170 H 0.53283 0.94156 0.04646 0.0
H171 H 0.5365 1.00612 0.06131 0.0
H172 H 0.45465 0.08324 0.88935 0.0
H173 H 0.38998 0.04117 0.92975 0.0
H174 H 0.46829 0.93003 0.99057 0.0
C175 C 0.60821 0.03834 0.94414 0.0
C176 C 0.62067 0.08479 0.92892 0.0
C177 C 0.5922 0.11292 0.89966 0.0
C178 C 0.55062 0.09695 0.89129 0.0
C179 C 0.53884 0.0518 0.91001 0.0
C180 C 0.56733 1.0225 0.93449 0.0
C181 C 0.54656 0.97729 0.95612 0.0
C182 C 0.56544 0.93226 0.91259 0.0
C183 C 0.55017 0.97339 0.03017 0.0
C184 C 0.50111 0.98665 0.9434 0.0
C185 C 0.49729 0.02952 0.91597 0.0
C186 C 0.45751 0.0489 0.90853 0.0
C187 C 0.42097 0.02478 0.93152 0.0
C188 C 0.42445 0.98161 0.96108 0.0
C189 C 0.46494 0.96156 0.96496 0.0
H190 H 0.13617 0.31539 0.39323 0.0
H191 H 0.21788 0.43948 0.39035 0.0
H192 H 0.23159 0.43236 0.50585 0.0
H193 H 0.08735 0.34648 0.55565 0.0
H194 H 0.08379 0.28576 0.57743 0.0
H195 H 0.08402 0.29682 0.4921 0.0
H196 H 0.14886 0.23869 0.45906 0.0
H197 H 0.14861 0.22713 0.54431 0.0
H198 H 0.19627 0.24816 0.50064 0.0
H199 H 0.23397 0.41442 0.6225 0.0
H200 H 0.22396 0.38808 0.73377 0.0
H201 H 0.13715 0.27815 0.66407 0.0
C202 C 0.15779 0.3402 0.41649 0.0
C203 C 0.1765 0.3776 0.38275 0.0
C204 C 0.20348 0.41043 0.41538 0.0
C205 C 0.21153 0.40663 0.48084 0.0
C206 C 0.19202 0.37 0.51328 0.0
C207 C 0.1657 0.33734 0.48238 0.0
C208 C 0.14638 0.30359 0.53022 0.0
C209 C 0.09749 0.30848 0.53938 0.0
C210 C 0.16091 0.25129 0.50718 0.0
C211 C 0.16555 0.32285 0.59283 0.0
C212 C 0.19209 0.36081 0.5817 0.0
C213 C 0.21307 0.38485 0.63201 0.0
C214 C 0.20664 0.36988 0.69562 0.0
C215 C 0.17886 0.33154 0.70888 0.0
C216 C 0.1585 0.30762 0.65613 0.0
H217 H 0.69823 0.17067 0.34131 0.0
H218 H 0.58132 0.25582 0.35571 0.0
H219 H 0.5761 0.26045 0.47721 0.0
H220 H 0.66674 0.10288 0.47743 0.0
H221 H 0.71865 0.10297 0.50679 0.0
H222 H 0.71387 0.10625 0.42014 0.0
H223 H 0.75714 0.1848 0.42398 0.0
H224 H 0.76244 0.18143 0.51043 0.0
H225 H 0.73996 0.23485 0.48464 0.0
H226 H 0.58281 0.25592 0.59851 0.0
H227 H 0.60393 0.24615 0.70957 0.0
H228 H 0.71582 0.16378 0.61711 0.0
C229 C 0.67186 0.19088 0.36979 0.0
C230 C 0.64024 0.21289 0.33811 0.0
C231 C 0.60591 0.23823 0.37813 0.0
C232 C 0.60256 0.24118 0.44753 0.0
C233 C 0.63376 0.21859 0.47705 0.0
C234 C 0.66791 0.19419 0.43959 0.0
C235 C 0.69714 0.17334 0.48411 0.0
C236 C 0.6992 0.11808 0.47134 0.0
C237 C 0.74181 0.19491 0.47526 0.0
C238 C 0.67416 0.19012 0.55205 0.0
C239 C 0.63753 0.21593 0.54697 0.0
C240 C 0.61139 0.23555 0.60316 0.0
C241 C 0.62346 0.2294 0.66628 0.0
C242 C 0.66144 0.20386 0.6728 0.0
C243 C 0.68658 0.18358 0.61441 0.0
H244 H 0.78975 0.71163 0.47874 0.0
H245 H 0.91871 0.73838 0.39434 0.0
H246 H 0.94154 0.74855 0.50592 0.0
H247 H 0.7909 0.79202 0.63661 0.0
H248 H 0.76133 0.74984 0.68345 0.0
H249 H 0.7529 0.75339 0.59801 0.0
H250 H 0.76978 0.66206 0.57083 0.0
H251 H 0.77813 0.65824 0.65591 0.0
H252 H 0.81951 0.63829 0.59072 0.0
H253 H 0.95328 0.74414 0.62381 0.0
H254 H 0.95301 0.72299 0.73814 0.0
H255 H 0.81726 0.69789 0.74669 0.0
C256 C 0.82269 0.72065 0.48326 0.0
C257 C 0.85195 0.72475 0.42657 0.0
C258 C 0.8949 0.73595 0.43581 0.0
C259 C 0.90842 0.74179 0.49955 0.0
C260 C 0.87881 0.7365 0.55378 0.0
C261 C 0.83679 0.72623 0.5463 0.0
C262 C 0.81238 0.71684 0.61154 0.0
C263 C 0.7773 0.75533 0.6337 0.0
C264 C 0.7939 0.66584 0.60694 0.0
C265 C 0.8477 0.72156 0.6565 0.0
C266 C 0.88561 0.73374 0.62238 0.0
C267 C 0.92365 0.73561 0.65141 0.0
C268 C 0.9232 0.72345 0.71626 0.0
C269 C 0.885 0.7096 0.75144 0.0
C270 C 0.8466 0.7099 0.72173 0.0
H271 H 0.31715 0.8896 0.63648 0.0
H272 H 0.43429 0.82095 0.6755 0.0
H273 H 0.4461 0.78722 0.55783 0.0
H274 H 0.28695 0.79631 0.50386 0.0
H275 H 0.26786 0.84184 0.45756 0.0
H276 H 0.26402 0.85177 0.54687 0.0
H277 H 0.30548 0.93114 0.53993 0.0
H278 H 0.30927 0.92157 0.45103 0.0
H279 H 0.35696 0.92982 0.49219 0.0
H280 H 0.45131 0.77295 0.43374 0.0
H281 H 0.45104 0.78177 0.31476 0.0
H282 H 0.33107 0.86104 0.35691 0.0
C283 C 0.3449 0.86658 0.62088 0.0
C284 C 0.37459 0.85772 0.66569 0.0
C285 C 0.41056 0.82761 0.6428 0.0
C286 C 0.41755 0.80829 0.57586 0.0
C287 C 0.38811 0.819 0.53276 0.0
C288 C 0.35235 0.8473 0.55462 0.0
C289 C 0.32833 0.85876 0.4976 0.0
C290 C 0.28417 0.83578 0.50173 0.0
C291 C 0.32486 0.91354 0.49505 0.0
C292 C 0.35735 0.8346 0.43958 0.0
C293 C 0.39114 0.81091 0.46093 0.0
C294 C 0.42452 0.79038 0.41651 0.0
C295 C 0.42411 0.79565 0.34904 0.0
C296 C 0.39069 0.82145 0.32654 0.0
C297 C 0.35623 0.83969 0.37225 0.0
H298 H 0.1496 0.13204 0.02662 0.0
H299 H 0.14662 0.18114 0.23622 0.0
H300 H 0.18367 0.10637 0.25343 0.0
H301 H 0.14782 0.99748 0.03807 0.0
H302 H 0.18576 0.98746 0.96482 0.0
H303 H 0.14741 0.03625 0.97338 0.0
H304 H 0.20806 0.09617 0.95496 0.0
H305 H 0.24679 0.04829 0.94682 0.0
H306 H 0.25039 0.09935 0.00811 0.0
H307 H 0.2393 0.04173 0.24181 0.0
H308 H 0.30424 0.9919 0.20265 0.0
H309 H 0.27058 0.98347 1.00181 0.0
C310 C 0.15483 0.12606 0.07674 0.0
C311 C 0.14535 0.16241 0.12992 0.0
C312 C 0.15343 0.15364 0.19462 0.0
C313 C 0.1745 0.11115 0.20488 0.0
C314 C 0.18678 0.07768 0.15012 0.0
C315 C 0.17658 0.08449 0.08735 0.0
C316 C 0.19994 0.04885 0.0347 0.0
C317 C 0.16839 1.01541 1.00081 0.0
C318 C 0.22793 0.07473 0.98326 0.0
C319 C 0.22679 1.0225 0.077 0.0
C320 C 0.21838 0.03901 0.14371 0.0
C321 C 0.245 0.0269 0.19031 0.0
C322 C 0.28181 0.99875 0.16791 0.0
C323 C 0.29115 0.9831 0.09984 0.0
C324 C 0.26268 0.99362 0.05453 0.0
H325 H 0.04557 0.25664 0.97492 0.0
H326 H 0.05005 0.30654 0.18216 0.0
H327 H 0.98465 0.261 0.21083 0.0
H328 H 0.94268 0.27641 0.97256 0.0
H329 H 0.93181 0.22544 0.91494 0.0
H330 H 0.98453 0.24916 0.91291 0.0
H331 H 0.01553 0.16572 0.92877 0.0
H332 H 0.9628 0.14117 0.92946 0.0
H333 H 0.99382 0.13486 0.99747 0.0
H334 H 0.91038 0.22491 0.21257 0.0
H335 H 0.83781 0.20076 0.18823 0.0
H336 H 0.88238 0.17611 0.9787 0.0
C337 C 0.03415 0.25539 0.02668 0.0
C338 C 0.05346 0.28347 0.07666 0.0
C339 C 0.03656 0.28357 0.14361 0.0
C340 C 0.9992 0.25813 0.16007 0.0
C341 C 0.97941 0.23275 0.10891 0.0
C342 C 0.99695 0.23055 0.04352 0.0
C343 C 0.96698 0.20732 0.99652 0.0
C344 C 0.95586 0.24164 0.94636 0.0
C345 C 0.98591 0.15941 0.96097 0.0
C346 C 0.92879 0.19908 0.04499 0.0
C347 C 0.93664 0.213 0.10975 0.0
C348 C 0.90437 0.21287 0.16217 0.0
C349 C 0.86314 0.19911 0.14787 0.0
C350 C 0.85429 0.18627 0.08153 0.0
C351 C 0.88804 0.18513 0.03002 0.0
H352 H 0.82428 0.84475 0.9746 0.0
H353 H 0.81218 0.8577 0.18954 0.0
H354 H 0.79324 0.94402 0.19373 0.0
H355 H 0.8709 0.96454 0.95976 0.0
H356 H 0.84313 0.97388 0.88923 0.0
H357 H 0.85795 0.91377 0.90334 0.0
H358 H 0.77931 0.88734 0.90263 0.0
H359 H 0.76467 0.9469 0.8869 0.0
H360 H 0.73845 0.92115 0.95725 0.0
H361 H 0.76578 0.02732 0.17344 0.0
H362 H 0.73237 0.09614 0.1294 0.0
H363 H 0.77202 0.03191 0.92947 0.0
C364 C 0.81789 0.86583 0.02251 0.0
C365 C 0.81953 0.84428 0.0817 0.0
C366 C 0.81122 0.87334 0.14342 0.0
C367 C 0.80056 0.92255 0.14635 0.0
C368 C 0.79936 0.94283 0.08709 0.0
C369 C 0.80827 0.91534 0.02633 0.0
C370 C 0.8035 0.94515 0.96987 0.0
C371 C 0.84644 0.94959 0.92809 0.0
C372 C 0.76946 0.92389 0.92667 0.0
C373 C 0.78902 0.99313 0.00814 0.0
C374 C 0.78681 0.99142 0.07581 0.0
C375 C 0.76868 0.02961 0.12054 0.0
C376 C 0.75039 0.06913 0.09531 0.0
C377 C 0.7509 0.07021 0.0261 0.0
C378 C 0.77263 0.03292 0.98264 0.0
H379 H 0.02106 0.75196 0.1865 0.0
H380 H 0.97526 0.82716 0.03164 0.0
H381 H 0.0408 0.87387 0.02482 0.0
H382 H 0.07934 0.85484 0.26525 0.0
H383 H 0.12314 0.81728 0.28024 0.0
H384 H 0.07033 0.79308 0.27982 0.0
H385 H 0.09847 0.72443 0.18951 0.0
H386 H 0.15123 0.74817 0.19075 0.0
H387 H 0.12739 0.73945 0.11377 0.0
H388 H 0.11185 0.9067 0.02547 0.0
H389 H 0.1885 0.92023 0.02816 0.0
H390 H 0.1918 0.82637 0.18289 0.0
C391 C 0.02473 0.77881 0.15198 0.0
C392 C 0.99298 0.78604 0.10973 0.0
C393 C 0.99915 0.8208 0.06429 0.0
C394 C 0.03614 0.84792 0.06045 0.0
C395 C 0.0669 0.83992 0.10226 0.0
C396 C 0.06199 0.80609 0.1469 0.0
C397 C 0.10211 0.8019 0.18133 0.0
C398 C 0.09318 0.81773 0.25611 0.0
C399 C 0.12092 0.75043 0.168 0.0
C400 C 0.13062 0.83747 0.14725 0.0
C401 C 0.10902 0.8595 0.10282 0.0
C402 C 0.12889 0.89061 0.06111 0.0
C403 C 0.17235 0.89839 0.06323 0.0
C404 C 0.19561 0.87568 0.10696 0.0
C405 C 0.17433 0.84562 0.15077 0.0
H406 H 0.85982 0.50849 0.01393 0.0
H407 H 0.75121 0.6045 0.07245 0.0
H408 H 0.70288 0.53587 0.05306 0.0
H409 H 0.81269 0.41955 0.89444 0.0
H410 H 0.83916 0.37021 0.9243 0.0
H411 H 0.86351 0.42843 0.92645 0.0
H412 H 0.86861 0.4282 0.05232 0.0
H413 H 0.84357 0.37056 0.05096 0.0
H414 H 0.82094 0.42082 0.1069 0.0
H415 H 0.66686 0.45223 0.03714 0.0
H416 H 0.64784 0.36594 0.0329 0.0
H417 H 0.78175 0.32573 1.00282 0.0
C418 C 0.82578 0.51566 0.02019 0.0
C419 C 0.80934 0.5627 0.04193 0.0
C420 C 0.76463 0.56979 0.05194 0.0
C421 C 0.73698 0.53052 0.04229 0.0
C422 C 0.75459 0.4842 0.02384 0.0
C423 C 0.79818 0.4769 0.01308 0.0
C424 C 0.81001 0.42369 1.00284 0.0
C425 C 0.83267 0.40965 0.93284 0.0
C426 C 0.83738 0.41005 0.05645 0.0
C427 C 0.76634 0.40169 0.01058 0.0
C428 C 0.73458 0.43692 0.02102 0.0
C429 C 0.69164 0.42465 0.02903 0.0
C430 C 0.6811 0.37552 0.02659 0.0
C431 C 0.7133 0.33912 0.01823 0.0
C432 C 0.75641 0.35271 0.01003 0.0
H433 H 0.53058 0.80817 0.90722 0.0
H434 H 0.45954 0.76862 0.08702 0.0
H435 H 0.52306 0.72854 0.11575 0.0
H436 H 0.59465 0.69723 0.87083 0.0
H437 H 0.64242 0.72701 0.84205 0.0
H438 H 0.59094 0.75234 0.83326 0.0
H439 H 0.61136 0.83248 0.89643 0.0
H440 H 0.66276 0.80786 0.90659 0.0
H441 H 0.62824 0.83302 0.97827 0.0
H442 H 0.59346 0.69606 0.12954 0.0
H443 H 0.66943 0.67405 0.12794 0.0
H444 H 0.69665 0.73009 0.93832 0.0
C445 C 0.52853 0.79103 0.9525 0.0
C446 C 0.48991 0.79153 0.99463 0.0
C447 C 0.48853 0.76866 0.05355 0.0
C448 C 0.52449 0.7456 0.07046 0.0
C449 C 0.56181 0.74525 0.02789 0.0
C450 C 0.56438 0.7673 0.97019 0.0
C451 C 0.60917 0.76218 0.93452 0.0
C452 C 0.60928 0.73294 0.8661 0.0
C453 C 0.62906 0.81184 0.92867 0.0
C454 C 0.63114 0.73442 0.98181 0.0
C455 C 0.60298 0.72506 0.0352 0.0
C456 C 0.61581 0.70253 0.08763 0.0
C457 C 0.65889 0.69008 0.0863 0.0
C458 C 0.68843 0.6996 0.03256 0.0
C459 C 0.6743 0.72123 0.97902 0.0
H460 H 0.20758 0.55166 0.07771 0.0
H461 H 0.23221 0.49129 0.8717 0.0
H462 H 0.26509 0.56748 0.8437 0.0
H463 H 0.18351 0.67461 0.04511 0.0
H464 H 0.20922 0.70103 0.11491 0.0
H465 H 0.18467 0.64316 0.11749 0.0
H466 H 0.25598 0.60629 0.14262 0.0
H467 H 0.28065 0.66399 0.1402 0.0
H468 H 0.30355 0.61241 0.08724 0.0
H469 H 0.30038 0.64923 0.84051 0.0
H470 H 0.33192 0.72975 0.86233 0.0
H471 H 0.28274 0.73432 0.07003 0.0
C472 C 0.21937 0.55457 0.02653 0.0
C473 C 0.21744 0.51552 0.97699 0.0
C474 C 0.2333 0.52083 0.91055 0.0
C475 C 0.25207 0.56394 0.89413 0.0
C476 C 0.25433 0.60144 0.94459 0.0
C477 C 0.23799 0.59723 0.0093 0.0
C478 C 0.24558 0.64193 0.05491 0.0
C479 C 0.2032 0.66661 0.08484 0.0
C480 C 0.27308 0.63044 0.10942 0.0
C481 C 0.26953 0.67158 1.00615 0.0
C482 C 0.27421 0.64798 0.94264 0.0
C483 C 0.29655 0.66823 0.89 0.0
C484 C 0.31444 0.71386 0.90284 0.0
C485 C 0.30987 0.73846 0.96781 0.0
C486 C 0.28689 0.71677 0.01966 0.0
H487 H 0.4962 0.30317 0.91482 0.0
H488 H 0.51149 0.18598 0.03388 0.0
H489 H 0.43437 0.19068 0.0715 0.0
H490 H 0.41913 0.37188 0.0286 0.0
H491 H 0.389 0.39046 0.96514 0.0
H492 H 0.44518 0.37734 0.94685 0.0
H493 H 0.43011 0.31498 0.8487 0.0
H494 H 0.37388 0.32807 0.86651 0.0
H495 H 0.39351 0.26707 0.86322 0.0
H496 H 0.35506 0.21056 0.09946 0.0
H497 H 0.28056 0.24066 0.11033 0.0
H498 H 0.31698 0.34349 0.97077 0.0
C499 C 0.48341 0.27833 0.94867 0.0
C500 C 0.5102 0.24432 0.97156 0.0
C501 C 0.49185 0.21245 0.01566 0.0
C502 C 0.44799 0.21488 0.03741 0.0
C503 C 0.42262 0.24921 0.01444 0.0
C504 C 0.43967 0.2801 0.97059 0.0
C505 C 0.40555 0.31355 0.953 0.0
C506 C 0.41531 0.36643 0.97471 0.0
C507 C 0.40047 0.30541 0.87843 0.0
C508 C 0.36666 0.29699 0.99415 0.0
C509 C 0.37715 0.25996 0.02945 0.0
C510 C 0.34656 0.23941 0.07176 0.0
C511 C 0.30425 0.25692 0.0778 0.0
C512 C 0.29258 0.29451 0.04145 0.0
C513 C 0.32454 0.31463 0.99915 0.0
loop_
_geom_bond_atom_site_label_1
_geom_bond_atom_site_label_2
_geom_bond_distance
_geom_bond_site_symmetry_2
_ccdc_geom_bond_type
Zn0 N4 2.020 . S
Zn0 O8 2.019 . S
Zn0 N10 2.119 . S
Zn0 O18 1.975 . S
C1 N2 1.334 . S
C1 N5 1.336 . S
N2 C1 1.334 . S
N2 C3 1.334 . S
C3 N2 1.334 . S
C3 N4 1.336 . S
N4 Zn0 2.020 . S
N4 C3 1.336 . S
N4 N5 1.354 . S
N5 C1 1.336 . S
N5 N4 1.354 . S
N5 Zn9 2.020 . S
C6 O7 1.244 . S
C6 O30 1.257 1_554 S
O7 C6 1.244 . S
O8 Zn0 2.019 . S
O8 C28 1.257 . S
Zn9 N5 2.020 . S
Zn9 O16 1.975 . S
Zn9 N25 2.119 1_554 S
Zn9 O30 2.019 1_554 S
N10 Zn0 2.119 . S
N10 C12 1.334 . S
N10 C13 1.328 . S
C11 C12 1.391 . S
C11 N14 1.329 . S
C11 H32 0.930 . S
C12 N10 1.334 . S
C12 C11 1.391 . S
C12 H19 0.930 . S
C13 N10 1.328 . S
C13 C15 1.392 . S
C13 H20 0.930 . S
N14 C11 1.329 . S
N14 C15 1.331 . S
C15 C13 1.392 . S
C15 N14 1.331 . S
O16 Zn9 1.975 . S
O16 C17 1.252 . S
C17 O16 1.252 . S
C17 O18 1.252 . S
O18 Zn0 1.975 . S
O18 C17 1.252 . S
H19 C12 0.930 . S
H20 C13 0.930 . S
C21 C22 1.392 . S
C21 N25 1.328 . S
C21 H27 0.930 . S
C22 C21 1.392 . S
C22 N26 1.331 . S
C23 C24 1.391 . S
C23 N26 1.329 . S
C23 H33 0.930 . S
C24 C23 1.391 . S
C24 N25 1.334 . S
C24 H31 0.930 . S
N25 Zn9 2.119 1_556 S
N25 C21 1.328 . S
N25 C24 1.334 . S
N26 C22 1.331 . S
N26 C23 1.329 . S
H27 C21 0.930 . S
C28 O8 1.257 . S
C28 O29 1.244 . S
O29 C28 1.244 . S
O30 C6 1.257 1_556 S
O30 Zn9 2.019 1_556 S
H31 C24 0.930 . S
H32 C11 0.930 . S
H33 C23 0.930 . S
Zn34 N38 2.020 . S
Zn34 O42 2.019 . S
Zn34 N44 2.119 . S
Zn34 O52 1.975 . S
C35 N36 1.334 1_556 S
C35 N39 1.336 . S
N36 C35 1.334 1_554 S
N36 C37 1.334 . S
C37 N36 1.334 . S
C37 N38 1.336 . S
N38 Zn34 2.020 . S
N38 C37 1.336 . S
N38 N39 1.354 1_554 S
N39 C35 1.336 . S
N39 N38 1.354 1_556 S
N39 Zn43 2.020 . S
C40 O41 1.244 1_556 S
C40 O64 1.257 . S
O41 C40 1.244 1_554 S
O42 Zn34 2.019 . S
O42 C62 1.257 . S
Zn43 N39 2.020 . S
Zn43 O50 1.975 1_556 S
Zn43 N59 2.119 . S
Zn43 O64 2.019 . S
N44 Zn34 2.119 . S
N44 C46 1.334 . S
N44 C47 1.328 . S
C45 C46 1.391 . S
C45 N48 1.329 . S
C45 H66 0.930 . S
C46 N44 1.334 . S
C46 C45 1.391 . S
C46 H53 0.930 . S
C47 N44 1.328 . S
C47 C49 1.392 . S
C47 H54 0.930 . S
N48 C45 1.329 . S
N48 C49 1.331 . S
C49 C47 1.392 . S
C49 N48 1.331 . S
O50 Zn43 1.975 1_554 S
O50 C51 1.252 . S
C51 O50 1.252 . S
C51 O52 1.252 . S
O52 Zn34 1.975 . S
O52 C51 1.252 . S
H53 C46 0.930 . S
H54 C47 0.930 . S
C55 C56 1.392 . S
C55 N59 1.328 . S
C55 H61 0.930 . S
C56 C55 1.392 . S
C56 N60 1.331 . S
C57 C58 1.391 . S
C57 N60 1.329 . S
C57 H67 0.930 . S
C58 C57 1.391 . S
C58 N59 1.334 . S
C58 H65 0.930 . S
N59 Zn43 2.119 . S
N59 C55 1.328 . S
N59 C58 1.334 . S
N60 C56 1.331 . S
N60 C57 1.329 . S
H61 C55 0.930 . S
C62 O42 1.257 . S
C62 O63 1.244 1_554 S
O63 C62 1.244 1_556 S
O64 C40 1.257 . S
O64 Zn43 2.019 . S
H65 C58 0.930 . S
H66 C45 0.930 . S
H67 C57 0.930 . S
Zn68 N72 2.020 . S
Zn68 O76 2.019 . S
Zn68 N78 2.119 . S
Zn68 O86 1.975 . S
C69 N70 1.334 1_556 S
C69 N73 1.336 1_556 S
N70 C69 1.334 1_554 S
N70 C71 1.334 . S
C71 N70 1.334 . S
C71 N72 1.336 . S
N72 Zn68 2.020 . S
N72 C71 1.336 . S
N72 N73 1.354 . S
N73 C69 1.336 1_554 S
N73 N72 1.354 . S
N73 Zn77 2.020 1_554 S
C74 O75 1.235 1_556 S
C74 O98 1.265 . S
O75 C74 1.235 1_554 S
O76 Zn68 2.019 . S
O76 C96 1.257 . S
Zn77 N73 2.020 1_556 S
Zn77 O84 1.975 1_556 S
Zn77 N93 2.119 . S
Zn77 O98 2.019 . S
N78 Zn68 2.119 . S
N78 C80 1.334 . S
N78 C81 1.328 . S
C79 C80 1.391 . S
C79 N82 1.329 . S
C79 H100 0.930 . S
C80 N78 1.334 . S
C80 C79 1.391 . S
C80 H87 0.930 . S
C81 N78 1.328 . S
C81 C83 1.392 . S
C81 H88 0.930 . S
N82 C79 1.329 . S
N82 C83 1.331 . S
C83 C81 1.392 . S
C83 N82 1.331 . S
O84 Zn77 1.975 1_554 S
O84 C85 1.252 . S
C85 O84 1.252 . S
C85 O86 1.252 . S
O86 Zn68 1.975 . S
O86 C85 1.252 . S
H87 C80 0.930 . S
H88 C81 0.930 . S
C89 C90 1.392 . S
C89 N93 1.328 . S
C89 H95 0.930 . S
C90 C89 1.392 . S
C90 N94 1.331 . S
C91 C92 1.391 . S
C91 N94 1.329 . S
C91 H101 0.930 . S
C92 C91 1.391 . S
C92 N93 1.334 . S
C92 H99 0.930 . S
N93 Zn77 2.119 . S
N93 C89 1.328 . S
N93 C92 1.334 . S
N94 C90 1.331 . S
N94 C91 1.329 . S
H95 C89 0.930 . S
C96 O76 1.257 . S
C96 O97 1.244 . S
O97 C96 1.244 . S
O98 C74 1.265 . S
O98 Zn77 2.019 . S
H99 C92 0.930 . S
H100 C79 0.930 . S
H101 C91 0.930 . S
Zn102 N106 2.020 . S
Zn102 O110 2.019 . S
Zn102 N112 2.119 . S
Zn102 O120 1.975 . S
C103 N104 1.334 . S
C103 N107 1.336 . S
N104 C103 1.334 . S
N104 C105 1.334 1_554 S
C105 N104 1.334 1_556 S
C105 N106 1.336 . S
N106 Zn102 2.020 . S
N106 C105 1.336 . S
N106 N107 1.354 1_556 S
N107 C103 1.336 . S
N107 N106 1.354 1_554 S
N107 Zn111 2.020 . S
C108 O109 1.244 1_554 S
C108 O132 1.257 . S
O109 C108 1.244 1_556 S
O110 Zn102 2.019 . S
O110 C130 1.257 . S
Zn111 N107 2.020 . S
Zn111 O118 1.975 . S
Zn111 N127 2.119 . S
Zn111 O132 2.019 . S
N112 Zn102 2.119 . S
N112 C114 1.334 . S
N112 C115 1.328 . S
C113 C114 1.391 . S
C113 N116 1.329 . S
C113 H134 0.930 . S
C114 N112 1.334 . S
C114 C113 1.391 . S
C114 H121 0.930 . S
C115 N112 1.328 . S
C115 C117 1.392 . S
C115 H122 0.930 . S
N116 C113 1.329 . S
N116 C117 1.331 . S
C117 C115 1.392 . S
C117 N116 1.331 . S
O118 Zn111 1.975 . S
O118 C119 1.252 1_554 S
C119 O118 1.252 1_556 S
C119 O120 1.252 . S
O120 Zn102 1.975 . S
O120 C119 1.252 . S
H121 C114 0.930 . S
H122 C115 0.930 . S
C123 C124 1.392 . S
C123 N127 1.328 . S
C123 H129 0.930 . S
C124 C123 1.392 . S
C124 N128 1.331 . S
C125 C126 1.391 . S
C125 N128 1.329 . S
C125 H135 0.930 . S
C126 C125 1.391 . S
C126 N127 1.334 . S
C126 H133 0.930 . S
N127 Zn111 2.119 . S
N127 C123 1.328 . S
N127 C126 1.334 . S
N128 C124 1.331 . S
N128 C125 1.329 . S
H129 C123 0.930 . S
C130 O110 1.257 . S
C130 O131 1.244 1_556 S
O131 C130 1.244 1_554 S
O132 C108 1.257 . S
O132 Zn111 2.019 . S
H133 C126 0.930 . S
H134 C113 0.930 . S
H135 C125 0.930 . S
H136 C148 0.930 . S
H137 C150 0.930 . S
H138 C151 0.930 . S
H139 C155 0.959 . S
H140 C155 0.959 . S
H141 C155 0.961 . S
H142 C156 0.960 1_455 S
H143 C156 0.961 . S
H144 C156 0.959 1_455 S
H145 C159 0.929 . S
H146 C160 0.931 . S
H147 C162 0.930 . S
C148 H136 0.930 . S
C148 C149 1.399 . S
C148 C153 1.399 . S
C149 C148 1.399 . S
C149 C150 1.376 1_554 S
C150 H137 0.930 . S
C150 C149 1.376 1_556 S
C150 C151 1.388 . S
C151 H138 0.930 . S
C151 C150 1.388 . S
C151 C152 1.390 1_556 S
C152 C151 1.390 1_554 S
C152 C153 1.394 . S
C152 C158 1.465 1_455 S
C153 C148 1.399 . S
C153 C152 1.394 . S
C153 C154 1.516 1_455 S
C154 C153 1.516 1_655 S
C154 C155 1.502 . S
C154 C156 1.561 . S
C154 C157 1.526 . S
C155 H139 0.959 . S
C155 H140 0.959 . S
C155 H141 0.961 . S
C155 C154 1.502 . S
C156 H142 0.960 1_655 S
C156 H143 0.961 . S
C156 H144 0.959 1_655 S
C156 C154 1.561 . S
C157 C154 1.526 . S
C157 C158 1.396 . S
C157 C162 1.390 . S
C158 C152 1.465 1_655 S
C158 C157 1.396 . S
C158 C159 1.399 1_554 S
C159 H145 0.929 . S
C159 C158 1.399 1_556 S
C159 C160 1.385 . S
C160 H146 0.931 . S
C160 C159 1.385 . S
C160 C161 1.389 1_556 S
C161 C160 1.389 1_554 S
C161 C162 1.387 . S
C162 H147 0.930 . S
C162 C157 1.390 . S
C162 C161 1.387 . S
H163 C175 0.930 . S
H164 C177 0.930 . S
H165 C178 0.930 . S
H166 C182 0.959 . S
H167 C182 0.959 . S
H168 C182 0.961 . S
H169 C183 0.960 . S
H170 C183 0.961 . S
H171 C183 0.959 . S
H172 C186 0.929 . S
H173 C187 0.931 . S
H174 C189 0.930 . S
C175 H163 0.930 . S
C175 C176 1.399 1_554 S
C175 C180 1.399 1_554 S
C176 C175 1.399 1_556 S
C176 C177 1.376 . S
C177 H164 0.930 . S
C177 C176 1.376 . S
C177 C178 1.388 . S
C178 H165 0.930 . S
C178 C177 1.388 . S
C178 C179 1.390 . S
C179 C178 1.390 . S
C179 C180 1.394 . S
C179 C185 1.465 1_545 S
C180 C175 1.399 1_556 S
C180 C179 1.394 . S
C180 C181 1.516 1_546 S
C181 C180 1.516 1_564 S
C181 C182 1.502 . S
C181 C183 1.561 1_565 S
C181 C184 1.526 1_554 S
C182 H166 0.959 . S
C182 H167 0.959 . S
C182 H168 0.961 . S
C182 C181 1.502 . S
C183 H169 0.960 . S
C183 H170 0.961 . S
C183 H171 0.959 . S
C183 C181 1.561 1_545 S
C184 C181 1.526 1_556 S
C184 C185 1.396 . S
C184 C189 1.390 1_556 S
C185 C179 1.465 1_565 S
C185 C184 1.396 . S
C185 C186 1.399 . S
C186 H172 0.929 . S
C186 C185 1.399 . S
C186 C187 1.385 . S
C187 H173 0.931 . S
C187 C186 1.385 . S
C187 C188 1.389 . S
C188 C187 1.389 . S
C188 C189 1.387 1_556 S
C189 H174 0.930 . S
C189 C184 1.390 1_554 S
C189 C188 1.387 1_554 S
H190 C202 0.930 . S
H191 C204 0.930 . S
H192 C205 0.930 . S
H193 C209 0.959 . S
H194 C209 0.959 . S
H195 C209 0.961 . S
H196 C210 0.960 . S
H197 C210 0.961 . S
H198 C210 0.959 . S
H199 C213 0.929 . S
H200 C214 0.931 . S
H201 C216 0.930 . S
C202 H190 0.930 . S
C202 C203 1.399 . S
C202 C207 1.399 . S
C203 C202 1.399 . S
C203 C204 1.376 . S
C204 H191 0.930 . S
C204 C203 1.376 . S
C204 C205 1.388 . S
C205 H192 0.930 . S
C205 C204 1.388 . S
C205 C206 1.390 . S
C206 C205 1.390 . S
C206 C207 1.394 . S
C206 C212 1.465 . S
C207 C202 1.399 . S
C207 C206 1.394 . S
C207 C208 1.516 . S
C208 C207 1.516 . S
C208 C209 1.502 . S
C208 C210 1.561 . S
C208 C211 1.526 . S
C209 H193 0.959 . S
C209 H194 0.959 . S
C209 H195 0.961 . S
C209 C208 1.502 . S
C210 H196 0.960 . S
C210 H197 0.961 . S
C210 H198 0.959 . S
C210 C208 1.561 . S
C211 C208 1.526 . S
C211 C212 1.396 . S
C211 C216 1.390 . S
C212 C206 1.465 . S
C212 C211 1.396 . S
C212 C213 1.399 . S
C213 H199 0.929 . S
C213 C212 1.399 . S
C213 C214 1.385 . S
C214 H200 0.931 . S
C214 C213 1.385 . S
C214 C215 1.389 . S
C215 C214 1.389 . S
C215 C216 1.387 . S
C216 H201 0.930 . S
C216 C211 1.390 . S
C216 C215 1.387 . S
H217 C229 0.930 . S
H218 C231 0.930 . S
H219 C232 0.930 . S
H220 C236 0.959 . S
H221 C236 0.959 . S
H222 C236 0.961 . S
H223 C237 0.960 . S
H224 C237 0.961 . S
H225 C237 0.959 . S
H226 C240 0.929 . S
H227 C241 0.931 . S
H228 C243 0.930 . S
C229 H217 0.930 . S
C229 C230 1.399 . S
C229 C234 1.399 . S
C230 C229 1.399 . S
C230 C231 1.376 . S
C231 H218 0.930 . S
C231 C230 1.376 . S
C231 C232 1.388 . S
C232 H219 0.930 . S
C232 C231 1.388 . S
C232 C233 1.390 . S
C233 C232 1.390 . S
C233 C234 1.394 . S
C233 C239 1.465 . S
C234 C229 1.399 . S
C234 C233 1.394 . S
C234 C235 1.516 . S
C235 C234 1.516 . S
C235 C236 1.502 . S
C235 C237 1.561 . S
C235 C238 1.526 . S
C236 H220 0.959 . S
C236 H221 0.959 . S
C236 H222 0.961 . S
C236 C235 1.502 . S
C237 H223 0.960 . S
C237 H224 0.961 . S
C237 H225 0.959 . S
C237 C235 1.561 . S
C238 C235 1.526 . S
C238 C239 1.396 . S
C238 C243 1.390 . S
C239 C233 1.465 . S
C239 C238 1.396 . S
C239 C240 1.399 . S
C240 H226 0.929 . S
C240 C239 1.399 . S
C240 C241 1.385 . S
C241 H227 0.931 . S
C241 C240 1.385 . S
C241 C242 1.389 . S
C242 C241 1.389 . S
C242 C243 1.387 . S
C243 H228 0.930 . S
C243 C238 1.390 . S
C243 C242 1.387 . S
H244 C256 0.930 . S
H245 C258 0.930 . S
H246 C259 0.930 . S
H247 C263 0.959 . S
H248 C263 0.959 . S
H249 C263 0.961 . S
H250 C264 0.960 . S
H251 C264 0.961 . S
H252 C264 0.959 . S
H253 C267 0.929 . S
H254 C268 0.931 . S
H255 C270 0.930 . S
C256 H244 0.930 . S
C256 C257 1.399 . S
C256 C261 1.399 . S
C257 C256 1.399 . S
C257 C258 1.376 . S
C258 H245 0.930 . S
C258 C257 1.376 . S
C258 C259 1.388 . S
C259 H246 0.930 . S
C259 C258 1.388 . S
C259 C260 1.390 . S
C260 C259 1.390 . S
C260 C261 1.394 . S
C260 C266 1.465 . S
C261 C256 1.399 . S
C261 C260 1.394 . S
C261 C262 1.516 . S
C262 C261 1.516 . S
C262 C263 1.502 . S
C262 C264 1.561 . S
C262 C265 1.526 . S
C263 H247 0.959 . S
C263 H248 0.959 . S
C263 H249 0.961 . S
C263 C262 1.502 . S
C264 H250 0.960 . S
C264 H251 0.961 . S
C264 H252 0.959 . S
C264 C262 1.561 . S
C265 C262 1.526 . S
C265 C266 1.396 . S
C265 C270 1.390 . S
C266 C260 1.465 . S
C266 C265 1.396 . S
C266 C267 1.399 . S
C267 H253 0.929 . S
C267 C266 1.399 . S
C267 C268 1.385 . S
C268 H254 0.931 . S
C268 C267 1.385 . S
C268 C269 1.389 . S
C269 C268 1.389 . S
C269 C270 1.387 . S
C270 H255 0.930 . S
C270 C265 1.390 . S
C270 C269 1.387 . S
H271 C283 0.930 . S
H272 C285 0.930 . S
H273 C286 0.930 . S
H274 C290 0.959 . S
H275 C290 0.959 . S
H276 C290 0.961 . S
H277 C291 0.960 . S
H278 C291 0.961 . S
H279 C291 0.959 . S
H280 C294 0.929 . S
H281 C295 0.931 . S
H282 C297 0.930 . S
C283 H271 0.930 . S
C283 C284 1.399 . S
C283 C288 1.399 . S
C284 C283 1.399 . S
C284 C285 1.376 . S
C285 H272 0.930 . S
C285 C284 1.376 . S
C285 C286 1.388 . S
C286 H273 0.930 . S
C286 C285 1.388 . S
C286 C287 1.390 . S
C287 C286 1.390 . S
C287 C288 1.394 . S
C287 C293 1.465 . S
C288 C283 1.399 . S
C288 C287 1.394 . S
C288 C289 1.516 . S
C289 C288 1.516 . S
C289 C290 1.502 . S
C289 C291 1.561 . S
C289 C292 1.526 . S
C290 H274 0.959 . S
C290 H275 0.959 . S
C290 H276 0.961 . S
C290 C289 1.502 . S
C291 H277 0.960 . S
C291 H278 0.961 . S
C291 H279 0.959 . S
C291 C289 1.561 . S
C292 C289 1.526 . S
C292 C293 1.396 . S
C292 C297 1.390 . S
C293 C287 1.465 . S
C293 C292 1.396 . S
C293 C294 1.399 . S
C294 H280 0.929 . S
C294 C293 1.399 . S
C294 C295 1.385 . S
C295 H281 0.931 . S
C295 C294 1.385 . S
C295 C296 1.389 . S
C296 C295 1.389 . S
C296 C297 1.387 . S
C297 H282 0.930 . S
C297 C292 1.390 . S
C297 C296 1.387 . S
H298 C310 0.930 1_556 S
H299 C312 0.930 . S
H300 C313 0.930 . S
H301 C317 0.959 1_565 S
H302 C317 0.959 1_565 S
H303 C317 0.961 . S
H304 C318 0.960 . S
H305 C318 0.961 . S
H306 C318 0.959 . S
H307 C321 0.929 1_545 S
H308 C322 0.931 . S
H309 C324 0.930 1_556 S
C310 H298 0.930 1_554 S
C310 C311 1.399 . S
C310 C315 1.399 . S
C311 C310 1.399 . S
C311 C312 1.376 . S
C312 H299 0.930 . S
C312 C311 1.376 . S
C312 C313 1.388 . S
C313 H300 0.930 . S
C313 C312 1.388 . S
C313 C314 1.390 . S
C314 C313 1.390 . S
C314 C315 1.394 . S
C314 C320 1.465 . S
C315 C310 1.399 . S
C315 C314 1.394 . S
C315 C316 1.516 1_554 S
C316 C315 1.516 1_556 S
C316 C317 1.502 . S
C316 C318 1.561 . S
C316 C319 1.526 1_546 S
C317 H301 0.959 1_545 S
C317 H302 0.959 1_545 S
C317 H303 0.961 . S
C317 C316 1.502 . S
C318 H304 0.960 . S
C318 H305 0.961 . S
C318 H306 0.959 . S
C318 C316 1.561 . S
C319 C316 1.526 1_564 S
C319 C320 1.396 1_565 S
C319 C324 1.390 . S
C320 C314 1.465 . S
C320 C319 1.396 1_545 S
C320 C321 1.399 1_545 S
C321 H307 0.929 1_565 S
C321 C320 1.399 1_565 S
C321 C322 1.385 . S
C322 H308 0.931 . S
C322 C321 1.385 . S
C322 C323 1.389 . S
C323 C322 1.389 . S
C323 C324 1.387 . S
C324 H309 0.930 1_554 S
C324 C319 1.390 . S
C324 C323 1.387 . S
H325 C337 0.930 . S
H326 C339 0.930 . S
H327 C340 0.930 . S
H328 C344 0.959 . S
H329 C344 0.959 . S
H330 C344 0.961 1_455 S
H331 C345 0.960 . S
H332 C345 0.961 . S
H333 C345 0.959 . S
H334 C348 0.929 . S
H335 C349 0.931 . S
H336 C351 0.930 . S
C337 H325 0.930 . S
C337 C338 1.399 . S
C337 C342 1.399 1_455 S
C338 C337 1.399 . S
C338 C339 1.376 . S
C339 H326 0.930 . S
C339 C338 1.376 . S
C339 C340 1.388 1_455 S
C340 H327 0.930 . S
C340 C339 1.388 1_655 S
C340 C341 1.390 . S
C341 C340 1.390 . S
C341 C342 1.394 . S
C341 C347 1.465 . S
C342 C337 1.399 1_655 S
C342 C341 1.394 . S
C342 C343 1.516 . S
C343 C342 1.516 . S
C343 C344 1.502 . S
C343 C345 1.561 . S
C343 C346 1.526 . S
C344 H328 0.959 . S
C344 H329 0.959 . S
C344 H330 0.961 1_655 S
C344 C343 1.502 . S
C345 H331 0.960 . S
C345 H332 0.961 . S
C345 H333 0.959 . S
C345 C343 1.561 . S
C346 C343 1.526 . S
C346 C347 1.396 . S
C346 C351 1.390 . S
C347 C341 1.465 . S
C347 C346 1.396 . S
C347 C348 1.399 . S
C348 H334 0.929 . S
C348 C347 1.399 . S
C348 C349 1.385 . S
C349 H335 0.931 . S
C349 C348 1.385 . S
C349 C350 1.389 . S
C350 C349 1.389 . S
C350 C351 1.387 . S
C351 H336 0.930 . S
C351 C346 1.390 . S
C351 C350 1.387 . S
H352 C364 0.930 . S
H353 C366 0.930 . S
H354 C367 0.930 . S
H355 C371 0.959 . S
H356 C371 0.959 . S
H357 C371 0.961 . S
H358 C372 0.960 . S
H359 C372 0.961 . S
H360 C372 0.959 . S
H361 C375 0.929 . S
H362 C376 0.931 . S
H363 C378 0.930 1_556 S
C364 H352 0.930 . S
C364 C365 1.399 1_556 S
C364 C369 1.399 1_556 S
C365 C364 1.399 1_554 S
C365 C366 1.376 . S
C366 H353 0.930 . S
C366 C365 1.376 . S
C366 C367 1.388 . S
C367 H354 0.930 . S
C367 C366 1.388 . S
C367 C368 1.390 . S
C368 C367 1.390 . S
C368 C369 1.394 . S
C368 C374 1.465 . S
C369 C364 1.399 1_554 S
C369 C368 1.394 . S
C369 C370 1.516 1_554 S
C370 C369 1.516 1_556 S
C370 C371 1.502 . S
C370 C372 1.561 . S
C370 C373 1.526 1_556 S
C371 H355 0.959 . S
C371 H356 0.959 . S
C371 H357 0.961 . S
C371 C370 1.502 . S
C372 H358 0.960 . S
C372 H359 0.961 . S
C372 H360 0.959 . S
C372 C370 1.561 . S
C373 C370 1.526 1_554 S
C373 C374 1.396 . S
C373 C378 1.390 1_565 S
C374 C368 1.465 . S
C374 C373 1.396 . S
C374 C375 1.399 . S
C375 H361 0.929 . S
C375 C374 1.399 . S
C375 C376 1.385 1_565 S
C376 H362 0.931 . S
C376 C375 1.385 1_545 S
C376 C377 1.389 . S
C377 C376 1.389 . S
C377 C378 1.387 . S
C378 H363 0.930 1_554 S
C378 C373 1.390 1_545 S
C378 C377 1.387 . S
H379 C391 0.930 . S
H380 C393 0.930 1_655 S
H381 C394 0.930 . S
H382 C398 0.959 . S
H383 C398 0.959 . S
H384 C398 0.961 . S
H385 C399 0.960 . S
H386 C399 0.961 . S
H387 C399 0.959 . S
H388 C402 0.929 1_556 S
H389 C403 0.931 . S
H390 C405 0.930 . S
C391 H379 0.930 . S
C391 C392 1.399 . S
C391 C396 1.399 1_655 S
C392 C391 1.399 . S
C392 C393 1.376 1_655 S
C393 H380 0.930 1_455 S
C393 C392 1.376 1_455 S
C393 C394 1.388 . S
C394 H381 0.930 . S
C394 C393 1.388 . S
C394 C395 1.390 . S
C395 C394 1.390 . S
C395 C396 1.394 . S
C395 C401 1.465 . S
C396 C391 1.399 1_455 S
C396 C395 1.394 . S
C396 C397 1.516 . S
C397 C396 1.516 . S
C397 C398 1.502 . S
C397 C399 1.561 . S
C397 C400 1.526 . S
C398 H382 0.959 . S
C398 H383 0.959 . S
C398 H384 0.961 . S
C398 C397 1.502 . S
C399 H385 0.960 . S
C399 H386 0.961 . S
C399 H387 0.959 . S
C399 C397 1.561 . S
C400 C397 1.526 . S
C400 C401 1.396 . S
C400 C405 1.390 . S
C401 C395 1.465 . S
C401 C400 1.396 . S
C401 C402 1.399 . S
C402 H388 0.929 1_554 S
C402 C401 1.399 . S
C402 C403 1.385 . S
C403 H389 0.931 . S
C403 C402 1.385 . S
C403 C404 1.389 . S
C404 C403 1.389 . S
C404 C405 1.387 . S
C405 H390 0.930 . S
C405 C400 1.390 . S
C405 C404 1.387 . S
H406 C418 0.930 . S
H407 C420 0.930 . S
H408 C421 0.930 . S
H409 C425 0.959 . S
H410 C425 0.959 . S
H411 C425 0.961 . S
H412 C426 0.960 . S
H413 C426 0.961 . S
H414 C426 0.959 . S
H415 C429 0.929 . S
H416 C430 0.931 . S
H417 C432 0.930 . S
C418 H406 0.930 . S
C418 C419 1.399 . S
C418 C423 1.399 . S
C419 C418 1.399 . S
C419 C420 1.376 1_556 S
C420 H407 0.930 . S
C420 C419 1.376 1_554 S
C420 C421 1.388 . S
C421 H408 0.930 . S
C421 C420 1.388 . S
C421 C422 1.390 . S
C422 C421 1.390 . S
C422 C423 1.394 1_554 S
C422 C428 1.465 . S
C423 C418 1.399 . S
C423 C422 1.394 1_556 S
C423 C424 1.516 . S
C424 C423 1.516 . S
C424 C425 1.502 . S
C424 C426 1.561 . S
C424 C427 1.526 . S
C425 H409 0.959 . S
C425 H410 0.959 . S
C425 H411 0.961 . S
C425 C424 1.502 . S
C426 H412 0.960 . S
C426 H413 0.961 . S
C426 H414 0.959 . S
C426 C424 1.561 . S
C427 C424 1.526 . S
C427 C428 1.396 1_556 S
C427 C432 1.390 . S
C428 C422 1.465 . S
C428 C427 1.396 1_554 S
C428 C429 1.399 . S
C429 H415 0.929 . S
C429 C428 1.399 . S
C429 C430 1.385 . S
C430 H416 0.931 . S
C430 C429 1.385 . S
C430 C431 1.389 . S
C431 C430 1.389 . S
C431 C432 1.387 1_554 S
C432 H417 0.930 . S
C432 C427 1.390 . S
C432 C431 1.387 1_556 S
H433 C445 0.930 . S
H434 C447 0.930 . S
H435 C448 0.930 . S
H436 C452 0.959 . S
H437 C452 0.959 . S
H438 C452 0.961 . S
H439 C453 0.960 . S
H440 C453 0.961 . S
H441 C453 0.959 . S
H442 C456 0.929 . S
H443 C457 0.931 . S
H444 C459 0.930 . S
C445 H433 0.930 . S
C445 C446 1.399 . S
C445 C450 1.399 . S
C446 C445 1.399 . S
C446 C447 1.376 1_556 S
C447 H434 0.930 . S
C447 C446 1.376 1_554 S
C447 C448 1.388 . S
C448 H435 0.930 . S
C448 C447 1.388 . S
C448 C449 1.390 . S
C449 C448 1.390 . S
C449 C450 1.394 1_554 S
C449 C455 1.465 . S
C450 C445 1.399 . S
C450 C449 1.394 1_556 S
C450 C451 1.516 . S
C451 C450 1.516 . S
C451 C452 1.502 . S
C451 C453 1.561 . S
C451 C454 1.526 . S
C452 H436 0.959 . S
C452 H437 0.959 . S
C452 H438 0.961 . S
C452 C451 1.502 . S
C453 H439 0.960 . S
C453 H440 0.961 . S
C453 H441 0.959 . S
C453 C451 1.561 . S
C454 C451 1.526 . S
C454 C455 1.396 1_556 S
C454 C459 1.390 . S
C455 C449 1.465 . S
C455 C454 1.396 1_554 S
C455 C456 1.399 . S
C456 H442 0.929 . S
C456 C455 1.399 . S
C456 C457 1.385 . S
C457 H443 0.931 . S
C457 C456 1.385 . S
C457 C458 1.389 . S
C458 C457 1.389 . S
C458 C459 1.387 1_554 S
C459 H444 0.930 . S
C459 C454 1.390 . S
C459 C458 1.387 1_556 S
H460 C472 0.930 . S
H461 C474 0.930 . S
H462 C475 0.930 . S
H463 C479 0.959 . S
H464 C479 0.959 . S
H465 C479 0.961 . S
H466 C480 0.960 . S
H467 C480 0.961 . S
H468 C480 0.959 . S
H469 C483 0.929 . S
H470 C484 0.931 . S
H471 C486 0.930 . S
C472 H460 0.930 . S
C472 C473 1.399 . S
C472 C477 1.399 . S
C473 C472 1.399 . S
C473 C474 1.376 1_554 S
C474 H461 0.930 . S
C474 C473 1.376 1_556 S
C474 C475 1.388 . S
C475 H462 0.930 . S
C475 C474 1.388 . S
C475 C476 1.390 . S
C476 C475 1.390 . S
C476 C477 1.394 1_556 S
C476 C482 1.465 . S
C477 C472 1.399 . S
C477 C476 1.394 1_554 S
C477 C478 1.516 . S
C478 C477 1.516 . S
C478 C479 1.502 . S
C478 C480 1.561 . S
C478 C481 1.526 . S
C479 H463 0.959 . S
C479 H464 0.959 . S
C479 H465 0.961 . S
C479 C478 1.502 . S
C480 H466 0.960 . S
C480 H467 0.961 . S
C480 H468 0.959 . S
C480 C478 1.561 . S
C481 C478 1.526 . S
C481 C482 1.396 1_554 S
C481 C486 1.390 . S
C482 C476 1.465 . S
C482 C481 1.396 1_556 S
C482 C483 1.399 . S
C483 H469 0.929 . S
C483 C482 1.399 . S
C483 C484 1.385 . S
C484 H470 0.931 . S
C484 C483 1.385 . S
C484 C485 1.389 . S
C485 C484 1.389 . S
C485 C486 1.387 1_556 S
C486 H471 0.930 . S
C486 C481 1.390 . S
C486 C485 1.387 1_554 S
H487 C499 0.930 . S
H488 C501 0.930 . S
H489 C502 0.930 . S
H490 C506 0.959 . S
H491 C506 0.959 . S
H492 C506 0.961 . S
H493 C507 0.960 . S
H494 C507 0.961 . S
H495 C507 0.959 1_556 S
H496 C510 0.929 . S
H497 C511 0.931 1_556 S
H498 C513 0.930 . S
C499 H487 0.930 . S
C499 C500 1.399 1_554 S
C499 C504 1.399 . S
C500 C499 1.399 1_556 S
C500 C501 1.376 . S
C501 H488 0.930 . S
C501 C500 1.376 . S
C501 C502 1.388 . S
C502 H489 0.930 . S
C502 C501 1.388 . S
C502 C503 1.390 . S
C503 C502 1.390 . S
C503 C504 1.394 1_556 S
C503 C509 1.465 1_556 S
C504 C499 1.399 . S
C504 C503 1.394 1_554 S
C504 C505 1.516 . S
C505 C504 1.516 . S
C505 C506 1.502 . S
C505 C507 1.561 . S
C505 C508 1.526 . S
C506 H490 0.959 . S
C506 H491 0.959 . S
C506 H492 0.961 . S
C506 C505 1.502 . S
C507 H493 0.960 . S
C507 H494 0.961 . S
C507 H495 0.959 1_554 S
C507 C505 1.561 . S
C508 C505 1.526 . S
C508 C509 1.396 . S
C508 C513 1.390 . S
C509 C503 1.465 1_554 S
C509 C508 1.396 . S
C509 C510 1.399 1_554 S
C510 H496 0.929 . S
C510 C509 1.399 1_556 S
C510 C511 1.385 1_556 S
C511 H497 0.931 1_554 S
C511 C510 1.385 1_554 S
C511 C512 1.389 . S
C512 C511 1.389 . S
C512 C513 1.387 . S
C513 H498 0.930 . S
C513 C508 1.390 . S
C513 C512 1.387 . S
C149 C1 1.816 . S
C161 C71 1.775 . S
C176 C35 1.902 . S
C188 C105 1.880 . S
C203 C15 1.624 . S
C215 C22 1.720 . S
C230 C49 1.685 . S
C242 C56 1.655 . S
C257 C83 1.753 . S
C269 C90 1.665 . S
C284 C117 1.983 . S
C296 C124 1.912 . S
C311 C28 1.230 . S
C323 C103 1.255 . S
C338 C3 1.543 . S
C350 C62 1.724 . S
C365 C85 1.827 . S
C377 C37 1.715 . S
C392 C96 0.788 . S
C404 C108 0.716 . S
C419 C69 1.676 . S
C431 C51 1.904 . S
C446 C130 0.741 . S
C458 C74 0.818 1_554 S
C473 C6 0.911 . S
C485 C119 0.966 . S
C500 C40 1.543 . S
C512 C17 1.528 . S
