# Generated by pormake.
# Topology ech, (8)-cn, num edge types: 1
# Building blocks:
#     Node 0, Type 0, BuildingBlock: VETTIZ_charged_sbu_0, # of connection points: 8
#     Node 1, Type 0, BuildingBlock: VETTIZ_charged_sbu_0, # of connection points: 8
#     Node 2, Type 0, BuildingBlock: VETTIZ_charged_sbu_0, # of connection points: 8
#     Node 3, Type 0, BuildingBlock: VETTIZ_charged_sbu_0, # of connection points: 8
#     Node 4, Type 0, BuildingBlock: VETTIZ_charged_sbu_0, # of connection points: 8
#     Node 5, Type 0, BuildingBlock: VETTIZ_charged_sbu_0, # of connection points: 8
#     Node 6, Type 0, BuildingBlock: VETTIZ_charged_sbu_0, # of connection points: 8
#     Node 7, Type 0, BuildingBlock: VETTIZ_charged_sbu_0, # of connection points: 8
#     Node 8, Type 0, BuildingBlock: VETTIZ_charged_sbu_0, # of connection points: 8
#     Node 9, Type 0, BuildingBlock: VETTIZ_charged_sbu_0, # of connection points: 8
#     Node 10, Type 0, BuildingBlock: VETTIZ_charged_sbu_0, # of connection points: 8
#     Node 11, Type 0, BuildingBlock: VETTIZ_charged_sbu_0, # of connection points: 8
#     Node 12, Type 0, BuildingBlock: VETTIZ_charged_sbu_0, # of connection points: 8
#     Node 13, Type 0, BuildingBlock: VETTIZ_charged_sbu_0, # of connection points: 8
#     Node 14, Type 0, BuildingBlock: VETTIZ_charged_sbu_0, # of connection points: 8
#     Node 15, Type 0, BuildingBlock: VETTIZ_charged_sbu_0, # of connection points: 8
#     Node 16, Type 0, BuildingBlock: VETTIZ_charged_sbu_0, # of connection points: 8
#     Node 17, Type 0, BuildingBlock: VETTIZ_charged_sbu_0, # of connection points: 8
#     Node 18, Type 0, BuildingBlock: VETTIZ_charged_sbu_0, # of connection points: 8
#     Node 19, Type 0, BuildingBlock: VETTIZ_charged_sbu_0, # of connection points: 8
#     Node 20, Type 0, BuildingBlock: VETTIZ_charged_sbu_0, # of connection points: 8
#     Node 21, Type 0, BuildingBlock: VETTIZ_charged_sbu_0, # of connection points: 8
#     Node 22, Type 0, BuildingBlock: VETTIZ_charged_sbu_0, # of connection points: 8
#     Node 23, Type 0, BuildingBlock: VETTIZ_charged_sbu_0, # of connection points: 8
#     Edge 24, Type (0, 0), None
#     Edge 25, Type (0, 0), None
#     Edge 26, Type (0, 0), None
#     Edge 27, Type (0, 0), None
#     Edge 28, Type (0, 0), None
#     Edge 29, Type (0, 0), None
#     Edge 30, Type (0, 0), None
#     Edge 31, Type (0, 0), None
#     Edge 32, Type (0, 0), None
#     Edge 33, Type (0, 0), None
#     Edge 34, Type (0, 0), None
#     Edge 35, Type (0, 0), None
#     Edge 36, Type (0, 0), None
#     Edge 37, Type (0, 0), None
#     Edge 38, Type (0, 0), None
#     Edge 39, Type (0, 0), None
#     Edge 40, Type (0, 0), None
#     Edge 41, Type (0, 0), None
#     Edge 42, Type (0, 0), None
#     Edge 43, Type (0, 0), None
#     Edge 44, Type (0, 0), None
#     Edge 45, Type (0, 0), None
#     Edge 46, Type (0, 0), None
#     Edge 47, Type (0, 0), None
#     Edge 48, Type (0, 0), None
#     Edge 49, Type (0, 0), None
#     Edge 50, Type (0, 0), None
#     Edge 51, Type (0, 0), None
#     Edge 52, Type (0, 0), None
#     Edge 53, Type (0, 0), None
#     Edge 54, Type (0, 0), None
#     Edge 55, Type (0, 0), None
#     Edge 56, Type (0, 0), None
#     Edge 57, Type (0, 0), None
#     Edge 58, Type (0, 0), None
#     Edge 59, Type (0, 0), None
#     Edge 60, Type (0, 0), None
#     Edge 61, Type (0, 0), None
#     Edge 62, Type (0, 0), None
#     Edge 63, Type (0, 0), None
#     Edge 64, Type (0, 0), None
#     Edge 65, Type (0, 0), None
#     Edge 66, Type (0, 0), None
#     Edge 67, Type (0, 0), None
#     Edge 68, Type (0, 0), None
#     Edge 69, Type (0, 0), None
#     Edge 70, Type (0, 0), None
#     Edge 71, Type (0, 0), None
#     Edge 72, Type (0, 0), None
#     Edge 73, Type (0, 0), None
#     Edge 74, Type (0, 0), None
#     Edge 75, Type (0, 0), None
#     Edge 76, Type (0, 0), None
#     Edge 77, Type (0, 0), None
#     Edge 78, Type (0, 0), None
#     Edge 79, Type (0, 0), None
#     Edge 80, Type (0, 0), None
#     Edge 81, Type (0, 0), None
#     Edge 82, Type (0, 0), None
#     Edge 83, Type (0, 0), None
#     Edge 84, Type (0, 0), None
#     Edge 85, Type (0, 0), None
#     Edge 86, Type (0, 0), None
#     Edge 87, Type (0, 0), None
#     Edge 88, Type (0, 0), None
#     Edge 89, Type (0, 0), None
#     Edge 90, Type (0, 0), None
#     Edge 91, Type (0, 0), None
#     Edge 92, Type (0, 0), None
#     Edge 93, Type (0, 0), None
#     Edge 94, Type (0, 0), None
#     Edge 95, Type (0, 0), None
#     Edge 96, Type (0, 0), None
#     Edge 97, Type (0, 0), None
#     Edge 98, Type (0, 0), None
#     Edge 99, Type (0, 0), None
#     Edge 100, Type (0, 0), None
#     Edge 101, Type (0, 0), None
#     Edge 102, Type (0, 0), None
#     Edge 103, Type (0, 0), None
#     Edge 104, Type (0, 0), None
#     Edge 105, Type (0, 0), None
#     Edge 106, Type (0, 0), None
#     Edge 107, Type (0, 0), None
#     Edge 108, Type (0, 0), None
#     Edge 109, Type (0, 0), None
#     Edge 110, Type (0, 0), None
#     Edge 111, Type (0, 0), None
#     Edge 112, Type (0, 0), None
#     Edge 113, Type (0, 0), None
#     Edge 114, Type (0, 0), None
#     Edge 115, Type (0, 0), None
#     Edge 116, Type (0, 0), None
#     Edge 117, Type (0, 0), None
#     Edge 118, Type (0, 0), None
#     Edge 119, Type (0, 0), None
# Relax obj value: 0.279
# Max RMSD: 0.287
# Mean RMSD: 0.287
data_MOF--net-ech--node1-VETTIZ_charged_sbu_0--edge1-none
_symmetry_space_group_name_H-M    P1
_symmetry_Int_Tables_number       1
_symmetry_cell_setting            triclinic
loop_
_symmetry_equiv_pos_as_xyz
'x, y, z'
_cell_length_a     23.544047
_cell_length_b     23.520658
_cell_length_c     23.560506
_cell_angle_alpha  89.687677
_cell_angle_beta   89.957737
_cell_angle_gamma 89.848429
loop_
_atom_site_label
_atom_site_type_symbol
_atom_site_fract_x
_atom_site_fract_y
_atom_site_fract_z
_atom_type_partial_charge
Fe0 Fe 0.10234 0.37166 0.47756 0.0
O1 O 0.12587 0.34266 0.39389 0.0
Fe2 Fe 0.21312 0.28276 0.53396 0.0
Fe3 Fe 0.09769 0.35537 0.3119 0.0
O4 O 0.17131 0.32033 0.4705 0.0
O5 O 0.17278 0.31247 0.47225 0.0
O6 O 0.13548 0.34016 0.38008 0.0
Fe7 Fe 0.17556 0.26788 0.39749 0.0
C8 C 1.01557 0.36554 0.3914 0.0
O9 O 0.12856 0.4339 0.42446 0.0
O10 O 0.10111 0.43805 0.33269 0.0
O11 O 0.25603 0.29721 0.38799 0.0
O12 O 0.28466 0.25764 0.46783 0.0
O13 O 0.24335 0.36226 0.55568 0.0
O14 O 0.15865 0.40646 0.53724 0.0
O15 O 0.18146 0.36269 0.28356 0.0
O16 O 0.23393 0.33719 0.35879 0.0
C17 C 0.20729 0.40334 0.56288 0.0
O18 O 0.21177 0.19186 0.44664 0.0
O19 O 0.1636 0.21474 0.51823 0.0
O20 O 0.04653 0.33589 0.42333 0.0
O21 O 1.02016 0.36159 0.33912 0.0
C22 C 0.10378 0.45872 0.38327 0.0
C23 C 0.22369 0.37421 0.31655 0.0
C24 C 0.0581 0.24209 0.35799 0.0
O25 O 0.08003 0.26745 0.31318 0.0
O26 O 0.09188 0.23363 0.40103 0.0
C27 C 0.29184 0.26469 0.41193 0.0
O28 O 0.14593 0.30151 0.59163 0.0
O29 O 0.07372 0.30888 0.53155 0.0
C30 C 0.1985 0.18126 0.50001 0.0
C31 C 0.09204 0.30486 0.58214 0.0
Fe32 Fe 0.36745 0.77036 0.89918 0.0
O33 O 0.36742 0.72675 0.97467 0.0
Fe34 Fe 0.44491 0.6853 0.81734 0.0
Fe35 Fe 0.32231 0.75343 0.03368 0.0
O36 O 0.40888 0.69648 0.88588 0.0
O37 O 0.41168 0.69084 0.89866 0.0
O38 O 0.36981 0.71773 0.97202 0.0
Fe39 Fe 0.44479 0.67334 0.98247 0.0
C40 C 0.3407 0.85682 0.99938 0.0
O41 O 0.28621 0.74222 0.88754 0.0
O42 O 0.25448 0.77984 0.96654 0.0
O43 O 0.4431 0.6035 0.93316 0.0
O44 O 0.4427 0.60295 0.8354 0.0
O45 O 0.36286 0.67887 0.78551 0.0
O46 O 0.30824 0.70351 0.85915 0.0
O47 O 0.29522 0.67178 0.05049 0.0
O48 O 0.38283 0.63151 0.03374 0.0
C49 C 0.31933 0.6676 0.81673 0.0
O50 O 0.50408 0.71187 0.93417 0.0
O51 O 0.51942 0.67991 0.84744 0.0
O52 O 0.3293 0.84603 0.94578 0.0
O53 O 0.37263 0.8221 0.02069 0.0
C54 C 0.2491 0.77382 0.91092 0.0
C55 C 0.3322 0.63088 0.05578 0.0
C56 C 0.43694 0.73783 0.08747 0.0
O57 O 0.3834 0.73452 0.09504 0.0
O58 O 0.45659 0.74043 0.0373 0.0
C59 C 0.44652 0.57975 0.88497 0.0
O60 O 0.46106 0.77318 0.81831 0.0
O61 O 0.45047 0.80564 0.90562 0.0
C62 C 0.53226 0.68323 0.89845 0.0
C63 C 0.4839 0.79793 0.86236 0.0
Fe64 Fe 0.62637 0.1669 0.57017 0.0
O65 O 0.61694 0.21097 0.64082 0.0
Fe66 Fe 0.72612 0.24912 0.50419 0.0
Fe67 Fe 0.59259 0.18669 0.71637 0.0
O68 O 0.69659 0.20969 0.56921 0.0
O69 O 0.68744 0.225 0.5702 0.0
O70 O 0.62922 0.20829 0.64889 0.0
Fe71 Fe 0.67808 0.27576 0.63987 0.0
C72 C 0.51293 0.15476 0.62566 0.0
O73 O 0.65827 0.11036 0.62238 0.0
O74 O 0.60406 0.10518 0.69903 0.0
O75 O 0.75808 0.24238 0.65049 0.0
O76 O 0.79442 0.27658 0.56991 0.0
O77 O 0.74908 0.16499 0.48601 0.0
O78 O 0.66101 0.12162 0.50031 0.0
O79 O 0.67441 0.18154 0.75266 0.0
O80 O 0.73352 0.20867 0.68381 0.0
C81 C 0.71237 0.12376 0.47806 0.0
O82 O 0.7182 0.34739 0.58992 0.0
O83 O 0.67458 0.31653 0.51906 0.0
O84 O 0.5461 0.13688 0.58523 0.0
O85 O 0.52424 0.17849 0.6728 0.0
C86 C 0.62135 0.08535 0.65216 0.0
C87 C 0.72028 0.17115 0.72414 0.0
C88 C 0.55424 0.30178 0.67442 0.0
O89 O 0.57153 0.27268 0.71881 0.0
O90 O 0.5924 0.31287 0.63476 0.0
C91 C 0.7973 0.27088 0.62646 0.0
O92 O 0.65735 0.2288 0.45069 0.0
O93 O 0.58877 0.22442 0.51541 0.0
C94 C 0.70521 0.35437 0.5363 0.0
C95 C 0.60432 0.22736 0.46369 0.0
Fe96 Fe 0.86998 0.76932 0.14002 0.0
O97 O 0.8692 0.81619 0.06589 0.0
Fe98 Fe 0.93875 0.8564 0.22955 0.0
Fe99 Fe 0.82438 0.78745 1.00615 0.0
O100 O 0.90941 0.84131 0.158 0.0
O101 O 0.90944 0.84985 0.14695 0.0
O102 O 0.87121 0.82422 0.06841 0.0
Fe103 Fe 0.91077 0.9021 0.07254 0.0
C104 C 0.84799 0.68414 0.03803 0.0
O105 O 0.78736 0.7938 0.15223 0.0
O106 O 0.75724 0.75647 0.07256 0.0
O107 O 0.87792 0.93323 0.14475 0.0
O108 O 0.92544 0.93983 0.22443 0.0
O109 O 0.85584 0.85292 0.25764 0.0
O110 O 0.80729 0.83451 0.17913 0.0
O111 O 0.78585 0.86472 0.9828 0.0
O112 O 0.83105 0.92155 0.04042 0.0
C113 C 0.81632 0.8689 0.22314 0.0
O114 O 0.99256 0.88668 0.10324 0.0
O115 O 1.01208 0.87136 0.19758 0.0
O116 O 0.83538 0.69312 0.09168 0.0
O117 O 0.87857 0.7213 1.01882 0.0
C118 C 0.75137 0.76162 0.12838 0.0
C119 C 0.81356 0.91096 0.99027 0.0
C120 C 0.93218 0.83897 0.9545 0.0
O121 O 0.88644 0.81028 0.94841 0.0
O122 O 0.94328 0.87068 0.99729 0.0
C123 C 0.90844 0.96118 0.17807 0.0
O124 O 0.96419 0.77084 0.22299 0.0
O125 O 0.95568 0.73983 0.13444 0.0
C126 C 0.02524 0.87846 0.14624 0.0
C127 C 0.9885 0.74863 0.17811 0.0
Fe128 Fe 0.47117 0.12631 0.37512 0.0
O129 O 0.47191 0.19687 0.33249 0.0
Fe130 Fe 0.32519 0.09221 0.35349 0.0
Fe131 Fe 0.53713 0.22678 0.29413 0.0
O132 O 0.40111 0.11639 0.32978 0.0
O133 O 0.39307 0.12854 0.33197 0.0
O134 O 0.47114 0.18763 0.31711 0.0
Fe135 Fe 0.40269 0.17805 0.26454 0.0
C136 C 0.56211 0.21301 0.41932 0.0
O137 O 0.52705 0.08929 0.31878 0.0
O138 O 0.59116 0.15847 0.31597 0.0
O139 O 0.40735 0.092 0.22835 0.0
O140 O 0.32267 0.07133 0.2676 0.0
O141 O 0.36882 0.02391 0.36276 0.0
O142 O 0.45622 0.0458 0.40515 0.0
O143 O 0.52431 0.1735 0.22853 0.0
O144 O 0.45597 0.21826 0.19404 0.0
C145 C 0.41556 1.01274 0.38775 0.0
O146 O 0.35819 0.23262 0.3318 0.0
O147 O 0.2889 0.17394 0.35791 0.0
O148 O 0.54028 0.16143 0.4214 0.0
O149 O 0.55383 0.24993 0.37806 0.0
C150 C 0.57865 0.10529 0.31643 0.0
C151 C 0.50978 0.20398 0.18944 0.0
C152 C 0.41404 0.29668 0.26863 0.0
O153 O 0.47081 0.29425 0.26441 0.0
O154 O 0.39015 0.25742 0.29701 0.0
C155 C 0.36729 0.05405 0.23904 0.0
O156 O 0.34189 0.10335 0.43529 0.0
O157 O 0.41801 0.15774 0.43028 0.0
C158 C 0.31784 0.21919 0.36905 0.0
C159 C 0.38886 0.12027 0.45518 0.0
Fe160 Fe 0.14192 0.86353 0.76376 0.0
O161 O 0.07027 0.85598 0.81252 0.0
Fe162 Fe 0.21502 0.949 0.85711 0.0
Fe163 Fe 1.00457 0.81978 0.78499 0.0
O164 O 0.14924 0.91163 0.83223 0.0
O165 O 0.14235 0.92412 0.82857 0.0
O166 O 0.06754 0.84841 0.82712 0.0
Fe167 Fe 0.06727 0.92138 0.86538 0.0
C168 C 0.04091 0.83758 0.68224 0.0
O169 O 0.15104 0.78329 0.79704 0.0
O170 O 0.07051 0.74866 0.762 0.0
O171 O 0.11042 0.88964 0.92976 0.0
O172 O 0.19078 0.93802 0.93847 0.0
O173 O 0.25117 0.86723 0.86257 0.0
O174 O 0.18451 0.80761 0.83061 0.0
O175 O 0.97947 0.80447 0.86976 0.0
O176 O 0.99414 0.89591 0.90481 0.0
C177 C 0.22344 0.82029 0.86937 0.0
O178 O 0.08155 1.00069 0.89518 0.0
O179 O 0.17313 1.01846 0.86212 0.0
O180 O 0.09398 0.82321 0.69088 0.0
O181 O 0.02467 0.87053 0.71826 0.0
C182 C 0.12704 0.74437 0.76845 0.0
C183 C 0.97116 0.84561 0.90678 0.0
C184 C 0.96459 0.94307 0.79582 0.0
O185 O 0.95127 0.89025 0.79788 0.0
O186 O 1.01709 0.95744 0.80107 0.0
C187 C 0.14241 0.92233 0.95736 0.0
O188 O 0.22157 0.97005 0.77116 0.0
O189 O 0.13884 0.94934 0.72773 0.0
C190 C 0.12536 0.03166 0.88319 0.0
C191 C 0.17785 0.9873 0.74086 0.0
Fe192 Fe 0.97929 0.43589 0.66209 0.0
O193 O 0.89597 0.40402 0.68054 0.0
Fe194 Fe 0.03761 0.32994 0.75615 0.0
Fe195 Fe 0.8146 0.44249 0.68564 0.0
O196 O 0.9762 0.3774 0.72461 0.0
O197 O 0.97595 0.37469 0.72977 0.0
O198 O 0.88231 0.40489 0.70105 0.0
Fe199 Fe 0.90099 0.36742 0.77274 0.0
C200 C 0.89945 0.52572 0.67766 0.0
O201 O 0.91292 0.41114 0.61155 0.0
O202 O 0.8272 0.44472 0.6008 0.0
O203 O 0.89235 0.28653 0.74292 0.0
O204 O 0.97178 0.25873 0.78217 0.0
O205 O 0.05408 0.29745 0.67629 0.0
O206 O 0.02679 0.372 0.61961 0.0
O207 O 0.78518 0.35942 0.67861 0.0
O208 O 0.86164 0.3077 0.70519 0.0
C209 C 0.05343 0.32436 0.62838 0.0
O210 O 0.95052 0.33177 0.84805 0.0
O211 O 0.02377 0.37899 0.82514 0.0
O212 O 0.93547 0.49607 0.70438 0.0
O213 O 0.84717 0.51775 0.682 0.0
C214 C 0.87884 0.44242 0.5835 0.0
C215 C 0.81905 0.31708 0.6685 0.0
C216 C 0.86237 0.48256 0.79768 0.0
O217 O 0.8186 0.45774 0.77402 0.0
O218 O 0.90599 0.45022 0.80647 0.0
C219 C 0.91646 0.24993 0.77441 0.0
O220 O 0.09778 0.39549 0.73873 0.0
O221 O 0.05058 0.46784 0.69669 0.0
C222 C 1.00374 0.34524 0.85903 0.0
C223 C 0.09343 0.448 0.72269 0.0
Fe224 Fe 0.6432 0.67525 0.2776 0.0
O225 O 0.57245 0.68962 0.22822 0.0
Fe226 Fe 0.7074 0.58657 0.17895 0.0
Fe227 Fe 0.50641 0.72461 0.25692 0.0
O228 O 0.64567 0.6296 0.20688 0.0
O229 O 0.63819 0.61731 0.20888 0.0
O230 O 0.56965 0.69864 0.21396 0.0
Fe231 Fe 0.56526 0.63026 0.16925 0.0
C232 C 0.54095 0.69906 0.35895 0.0
O233 O 0.6557 0.7565 0.2496 0.0
O234 O 0.57423 0.7911 0.28531 0.0
O235 O 0.61298 0.66362 0.10968 0.0
O236 O 0.6827 0.60015 0.09945 0.0
O237 O 0.74863 0.66594 0.17212 0.0
O238 O 0.68885 0.72977 0.21176 0.0
O239 O 0.48504 0.75306 0.17554 0.0
O240 O 0.49385 0.66626 0.12939 0.0
C241 C 0.72461 0.71564 0.17007 0.0
O242 O 0.57273 0.5534 0.13382 0.0
O243 O 0.65624 0.52138 0.17579 0.0
O244 O 0.59466 0.71204 0.35215 0.0
O245 O 0.52423 0.66901 0.32058 0.0
C246 C 0.63102 0.79401 0.27987 0.0
C247 C 0.47495 0.71855 0.13315 0.0
C248 C 0.46348 0.60342 0.23382 0.0
O249 O 0.45049 0.65657 0.23567 0.0
O250 O 0.51544 0.58972 0.22913 0.0
C251 C 0.6399 0.62738 0.08097 0.0
O252 O 0.71886 0.56622 0.26388 0.0
O253 O 0.63832 0.58848 0.31005 0.0
C254 C 0.60529 0.51614 0.15744 0.0
C255 C 0.67687 0.55024 0.29643 0.0
Fe256 Fe 0.35103 0.31111 0.09948 0.0
O257 O 0.33983 0.39713 0.11621 0.0
Fe258 Fe 0.26978 0.40256 0.17429 0.0
Fe259 Fe 0.38874 0.47331 0.11477 0.0
O260 O 0.33873 0.38121 0.13374 0.0
O261 O 0.31891 0.47417 0.17291 0.0
O262 O 0.32804 0.47194 0.17513 0.0
Fe263 Fe 0.29361 0.53704 0.21559 0.0
C264 C 0.45864 0.36814 0.12178 0.0
O265 O 0.36613 0.33696 0.02237 0.0
O266 O 0.35282 0.4243 0.04937 0.0
O267 O 0.22475 0.52535 0.16547 0.0
O268 O 0.19662 0.45326 0.21079 0.0
O269 O 0.23501 0.40675 0.0896 0.0
O270 O 0.26511 0.3175 0.07839 0.0
O271 O 0.33811 0.53455 0.07685 0.0
O272 O 0.31554 0.59292 0.14869 0.0
C273 C 0.24256 0.36336 0.05582 0.0
O274 O 0.26374 0.47273 0.28598 0.0
O275 O 0.30012 0.39294 0.25517 0.0
O276 O 0.43277 0.32231 0.10963 0.0
O277 O 0.43701 0.41011 0.14864 0.0
C278 C 0.37698 0.38876 1.01665 0.0
C279 C 0.32221 0.58296 0.0953 0.0
C280 C 0.41978 0.56009 0.21706 0.0
O281 O 0.42795 0.53462 0.16873 0.0
O282 O 0.3744 0.5537 0.24789 0.0
C283 C 0.18798 0.50674 0.19704 0.0
O284 O 0.33809 0.36477 0.23263 0.0
O285 O 0.35299 0.2858 0.18453 0.0
C286 C 0.26977 0.41678 0.29252 0.0
C287 C 0.37136 0.32021 0.22296 0.0
Fe288 Fe 0.79152 1.00512 0.82386 0.0
O289 O 0.81794 0.06737 0.86663 0.0
Fe290 Fe 0.89203 0.06404 0.91861 0.0
Fe291 Fe 0.76971 0.14075 0.86863 0.0
O292 O 0.8261 0.06864 0.8651 0.0
O293 O 0.84238 0.1404 0.92518 0.0
O294 O 0.83894 0.15641 0.91135 0.0
Fe295 Fe 0.85697 0.22475 0.9467 0.0
C296 C 0.76622 0.12885 0.75078 0.0
O297 O 0.72429 1.01757 0.87605 0.0
O298 O 0.69562 0.09071 0.83233 0.0
O299 O 0.86087 0.19501 0.02355 0.0
O300 O 0.87377 0.10813 0.99038 0.0
O301 O 0.84622 1.00118 0.9601 0.0
O302 O 0.8115 0.94595 0.89093 0.0
O303 O 0.7368 0.13665 0.95382 0.0
O304 O 0.77029 0.22475 0.96533 0.0
C305 C 0.82222 0.95539 0.94404 0.0
O306 O 0.93948 0.20637 0.9383 0.0
O307 O 0.93363 0.1283 0.88529 0.0
O308 O 0.76139 0.0724 0.75584 0.0
O309 O 0.79757 0.15283 0.78746 0.0
C310 C 0.68738 0.03676 0.84506 0.0
C311 C 0.7457 0.17977 0.98767 0.0
C312 C 0.87375 0.22392 0.82013 0.0
O313 O 0.83718 0.18175 0.80958 0.0
O314 O 0.86251 0.25501 0.86351 0.0
C315 C 0.86248 0.14216 0.02973 0.0
O316 O 0.92881 1.00686 0.86263 0.0
O317 O 0.87166 0.98808 0.78733 0.0
C318 C 0.95792 0.15748 0.92325 0.0
C319 C 0.91983 0.98432 0.81401 0.0
Fe320 Fe 0.68874 0.82522 0.45129 0.0
O321 O 0.71271 0.9011 0.42687 0.0
Fe322 Fe 0.77757 0.90227 0.36492 0.0
Fe323 Fe 0.66773 0.9716 0.41704 0.0
O324 O 0.7104 0.89319 0.41482 0.0
O325 O 0.72521 0.97114 0.35541 0.0
O326 O 0.70949 0.97198 0.34617 0.0
Fe327 Fe 0.74826 0.03663 0.31541 0.0
C328 C 0.58668 0.88988 0.42391 0.0
O329 O 0.681 0.8685 0.51944 0.0
O330 O 0.63875 0.9565 0.49775 0.0
O331 O 0.81467 0.0229 0.36827 0.0
O332 O 0.84789 0.95441 0.32354 0.0
O333 O 0.81462 0.90582 0.45036 0.0
O334 O 0.77462 0.82126 0.47008 0.0
O335 O 0.72485 0.02721 0.45306 0.0
O336 O 0.72751 0.09114 0.38325 0.0
C337 C 0.80325 0.86533 0.48781 0.0
O338 O 0.7771 0.96995 0.24777 0.0
O339 O 0.74369 0.89027 0.28574 0.0
O340 O 0.60685 0.84292 0.44125 0.0
O341 O 0.61147 0.91921 0.38648 0.0
C342 C 0.65646 0.91547 0.53069 0.0
C343 C 0.72697 0.07885 0.43651 0.0
C344 C 0.62321 0.063 0.3305 0.0
O345 O 0.62162 0.04115 0.38212 0.0
O346 O 0.6639 0.05436 0.29322 0.0
C347 C 0.85315 1.00817 0.33728 0.0
O348 O 0.71011 0.85903 0.31148 0.0
O349 O 0.68381 0.78964 0.3702 0.0
C350 C 0.77154 0.9132 0.24565 0.0
C351 C 0.67274 0.81929 0.32526 0.0
Fe352 Fe 0.27491 0.63886 0.67382 0.0
O353 O 0.23374 0.56184 0.66973 0.0
Fe354 Fe 0.18678 0.72371 0.59898 0.0
Fe355 Fe 0.26348 0.50217 0.71526 0.0
O356 O 0.20429 0.6541 0.63207 0.0
O357 O 0.19474 0.64319 0.63351 0.0
O358 O 0.22701 0.56332 0.66568 0.0
Fe359 Fe 0.14891 0.56535 0.6272 0.0
C360 C 0.36352 0.54044 0.70094 0.0
O361 O 0.24343 0.64734 0.75431 0.0
O362 O 0.28444 0.56955 0.78513 0.0
O363 O 0.11176 0.63608 0.65181 0.0
O364 O 0.10228 0.71335 0.60347 0.0
O365 O 0.18291 0.75436 0.68125 0.0
O366 O 0.20603 0.6778 0.73313 0.0
O367 O 0.18748 0.47642 0.75203 0.0
O368 O 0.13355 0.53962 0.70965 0.0
C369 C 0.17011 0.72091 0.723 0.0
O370 O 0.16375 0.59318 0.54563 0.0
O371 O 0.17992 0.68806 0.52704 0.0
O372 O 0.3509 0.59361 0.71243 0.0
O373 O 0.33164 0.51944 0.66618 0.0
C374 C 0.27472 0.62452 0.792 0.0
C375 C 0.14048 0.48939 0.72881 0.0
C376 C 0.2154 0.44891 0.60539 0.0
O377 O 0.24659 0.44307 0.65003 0.0
O378 O 0.18126 0.49042 0.59812 0.0
C379 C 0.08554 0.66324 0.61406 0.0
O380 O 0.27395 0.72096 0.57965 0.0
O381 O 0.30903 0.63418 0.59043 0.0
C382 C 0.17253 0.63682 0.51397 0.0
C383 C 0.29858 0.67669 0.55649 0.0
Fe384 Fe 0.95164 0.68556 0.71709 0.0
O385 O 0.91262 0.70493 0.65055 0.0
Fe386 Fe 0.91562 0.66293 0.57277 0.0
Fe387 Fe 0.86742 0.77508 0.64019 0.0
O388 O 0.92427 0.70704 0.64306 0.0
O389 O 0.84473 0.7059 0.57193 0.0
O390 O 0.85481 0.72237 0.57237 0.0
Fe391 Fe 0.81799 0.74919 0.5072 0.0
C392 C 0.82429 0.67002 0.72283 0.0
O393 O 0.97113 0.77121 0.71766 0.0
O394 O 0.95382 0.80787 0.63175 0.0
O395 O 0.88625 0.72785 0.45304 0.0
O396 O 0.9539 0.72145 0.51824 0.0
O397 O 0.99577 0.63301 0.58678 0.0
O398 O 1.01816 0.67877 0.67141 0.0
O399 O 0.82937 0.84844 0.5909 0.0
O400 O 0.87297 0.81355 0.52272 0.0
C401 C 0.02905 0.65831 0.62259 0.0
O402 O 0.79443 0.66522 0.48679 0.0
O403 O 0.88152 0.61937 0.50202 0.0
O404 O 0.86967 0.67938 0.75266 0.0
O405 O 0.81093 0.70962 0.68442 0.0
C406 C 0.99065 0.79725 0.67252 0.0
C407 C 0.84357 0.85345 0.53747 0.0
C408 C 0.7483 0.77775 0.63086 0.0
O409 O 0.78647 0.74828 0.65567 0.0
O410 O 0.75072 0.78079 0.57382 0.0
C411 C 0.93917 0.72689 0.46632 0.0
O412 O 0.88427 0.60351 0.62487 0.0
O413 O 0.94176 0.60475 0.70207 0.0
C414 C 0.83066 0.62308 0.47889 0.0
C415 C 0.9129 0.58007 0.66452 0.0
Fe416 Fe 0.6758 0.27388 0.1379 0.0
O417 O 0.63318 0.34639 0.15303 0.0
Fe418 Fe 0.7221 0.29537 1.00431 0.0
Fe419 Fe 0.59571 0.355 0.22127 0.0
O420 O 0.67624 0.31991 0.06371 0.0
O421 O 0.67504 0.33006 0.06675 0.0
O422 O 0.63001 0.35187 0.14022 0.0
Fe423 Fe 0.599 0.37175 0.05594 0.0
C424 C 0.56108 0.24306 0.17766 0.0
O425 O 0.73303 0.34089 0.17878 0.0
O426 O 0.67852 0.36727 0.25236 0.0
O427 O 0.65924 0.41751 1.0043 0.0
O428 O 0.74761 0.37834 0.98872 0.0
O429 O 0.78971 0.2681 0.07132 0.0
O430 O 0.75564 0.30525 0.14896 0.0
O431 O 0.59265 0.43679 0.20466 0.0
O432 O 0.59804 0.44056 0.10684 0.0
C433 C 0.79388 0.27436 0.1271 0.0
O434 O 0.58953 0.30342 1.00318 0.0
O435 O 0.66015 0.31408 0.94363 0.0
O436 O 0.59313 0.23614 0.13306 0.0
O437 O 0.58546 0.26705 0.22107 0.0
C438 C 0.72281 0.37678 0.22108 0.0
C439 C 0.59029 0.46151 0.15603 0.0
C440 C 0.51274 0.35723 0.13662 0.0
O441 O 0.52017 0.35503 0.18912 0.0
O442 O 0.5429 0.32901 0.10293 0.0
C443 C 0.71043 0.41921 0.98315 0.0
O444 O 0.67228 0.22616 1.01609 0.0
O445 O 0.71576 0.19994 0.08986 0.0
C446 C 0.60717 0.30723 0.95274 0.0
C447 C 0.70381 0.19054 0.03615 0.0
Fe448 Fe 0.368 0.76403 0.40306 0.0
O449 O 0.41527 0.83291 0.39411 0.0
Fe450 Fe 0.31682 0.79215 0.53674 0.0
Fe451 Fe 0.45228 0.85465 0.32691 0.0
O452 O 0.35554 0.81664 0.47114 0.0
O453 O 0.34603 0.83224 0.47193 0.0
O454 O 0.42732 0.8307 0.40215 0.0
Fe455 Fe 0.41647 0.8751 0.47219 0.0
C456 C 0.49187 0.74071 0.37039 0.0
O457 O 0.31201 0.83029 0.35865 0.0
O458 O 0.37142 0.85758 0.29052 0.0
O459 O 0.38121 0.92047 0.54156 0.0
O460 O 0.29325 0.87668 0.55517 0.0
O461 O 0.2504 0.76073 0.46943 0.0
O462 O 0.28753 0.79263 0.388 0.0
O463 O 0.43951 0.93626 0.34298 0.0
O464 O 0.385 0.9315 0.41944 0.0
C465 C 0.24924 0.76306 0.41228 0.0
O466 O 0.45392 0.81776 0.52746 0.0
O467 O 0.3848 0.81378 0.59142 0.0
O468 O 0.45426 0.72941 0.41045 0.0
O469 O 0.47377 0.76916 0.326 0.0
C470 C 0.32624 0.86879 0.31958 0.0
C471 C 0.422 0.95636 0.38963 0.0
C472 C 0.53029 0.88862 0.41762 0.0
O473 O 0.51967 0.86429 0.37072 0.0
O474 O 0.49678 0.90564 0.45816 0.0
C475 C 0.3298 0.91818 0.56358 0.0
O476 O 0.37046 0.72675 0.52307 0.0
O477 O 0.32819 0.69225 0.4534 0.0
C478 C 0.43807 0.81474 0.57908 0.0
C479 C 0.34009 0.68815 0.5075 0.0
Fe480 Fe 0.09205 0.19082 0.82323 0.0
O481 O 0.12861 0.21075 0.89073 0.0
Fe482 Fe 0.12555 0.16747 0.96881 0.0
Fe483 Fe 0.1759 0.27906 0.90118 0.0
O484 O 0.1163 0.21284 0.89875 0.0
O485 O 0.19553 0.21051 0.96994 0.0
O486 O 0.18624 0.22579 0.96927 0.0
Fe487 Fe 0.22337 0.24922 0.03528 0.0
C488 C 0.2183 0.17435 0.81891 0.0
O489 O 0.07082 0.27674 0.82302 0.0
O490 O 0.09015 0.31357 0.90858 0.0
O491 O 0.15375 0.22812 0.08898 0.0
O492 O 0.08588 0.22389 0.024 0.0
O493 O 0.04684 0.13654 0.95462 0.0
O494 O 0.02467 0.18084 0.86798 0.0
O495 O 0.21514 0.35012 0.95229 0.0
O496 O 0.17049 0.3156 0.0207 0.0
C497 C 1.01374 0.15698 0.9156 0.0
O498 O 0.24663 0.16431 0.05331 0.0
O499 O 0.15907 0.12082 0.03787 0.0
O500 O 0.17408 0.18666 0.78845 0.0
O501 O 0.23194 0.21238 0.85816 0.0
C502 C 0.05264 0.30333 0.86839 0.0
C503 C 0.2017 0.3541 1.00603 0.0
C504 C 0.29436 0.27867 0.91173 0.0
O505 O 0.25626 0.25013 0.88647 0.0
O506 O 0.29125 0.28043 0.9688 0.0
C507 C 0.10059 0.22863 0.07585 0.0
O508 O 0.15785 0.11196 0.91558 0.0
O509 O 0.10401 0.10917 0.83831 0.0
C510 C 0.21033 0.1222 0.05984 0.0
C511 C 0.12105 0.08812 0.8848 0.0
Fe512 Fe 0.71803 0.94995 0.68865 0.0
O513 O 0.64995 0.91442 0.71029 0.0
Fe514 Fe 0.57193 0.91563 0.667 0.0
Fe515 Fe 0.64096 0.86553 0.77825 0.0
O516 O 0.64178 0.92651 0.71234 0.0
O517 O 0.57203 0.84505 0.70987 0.0
O518 O 0.57275 0.85464 0.72549 0.0
Fe519 Fe 0.50751 0.81499 0.74918 0.0
C520 C 0.72288 0.82376 0.67267 0.0
O521 O 0.72064 0.97093 0.77449 0.0
O522 O 0.63552 0.95133 0.81354 0.0
O523 O 0.45213 0.88283 0.7272 0.0
O524 O 0.5153 0.95279 0.72309 0.0
O525 O 0.58694 0.99605 0.63671 0.0
O526 O 0.67463 1.01815 0.6788 0.0
O527 O 0.58844 0.82531 0.8489 0.0
O528 O 0.5201 0.86943 0.81363 0.0
C529 C 0.62788 0.0291 0.65363 0.0
O530 O 0.48952 0.79194 0.66493 0.0
O531 O 0.50277 0.88028 0.6211 0.0
O532 O 0.7531 0.86801 0.68432 0.0
O533 O 0.68362 0.81029 0.71087 0.0
C534 C 0.67611 0.98865 0.80293 0.0
C535 C 0.53437 0.83839 0.85229 0.0
C536 C 0.63271 0.74706 0.77801 0.0
O537 O 0.65584 0.78585 0.74845 0.0
O538 O 0.57557 0.74828 0.78088 0.0
C539 C 0.46379 0.93629 0.72618 0.0
O540 O 0.62537 0.88412 0.61176 0.0
O541 O 0.70166 0.93854 0.60709 0.0
C542 C 0.48048 0.82894 0.62372 0.0
C543 C 0.65499 0.92131 0.58697 0.0
Fe544 Fe 0.97701 0.10786 0.16163 0.0
O545 O 0.97121 0.17881 0.21052 0.0
Fe546 Fe 0.8127 0.10363 0.18917 0.0
Fe547 Fe 0.03661 0.22068 0.24495 0.0
O548 O 0.89501 0.13289 0.19394 0.0
O549 O 0.88231 0.1388 0.19832 0.0
O550 O 0.97454 0.17846 0.22036 0.0
Fe551 Fe 0.90267 0.17749 0.27025 0.0
C552 C 0.08397 0.1032 0.22536 0.0
O553 O 0.03256 0.16693 0.11858 0.0
O554 O 0.05152 0.25122 0.16357 0.0
O555 O 0.86142 0.23795 0.20453 0.0
O556 O 0.7833 0.18775 0.18661 0.0
O557 O 0.8214 0.11389 0.10815 0.0
O558 O 0.91904 0.12285 0.0995 0.0
O559 O 0.97176 0.28871 0.27685 0.0
O560 O 0.89023 0.25885 0.24355 0.0
C561 C 0.86773 0.1221 0.0818 0.0
O562 O 0.90782 0.09206 0.30377 0.0
O563 O 0.81847 0.0833 0.27533 0.0
O564 O 0.03331 0.08561 0.22468 0.0
O565 O 0.09436 0.15655 0.22223 0.0
C566 C 0.05671 0.21677 0.12078 0.0
C567 C 0.91553 0.29445 0.27465 0.0
C568 C 1.00903 0.20037 0.34886 0.0
O569 O 0.02616 0.16855 0.31225 0.0
O570 O 0.95491 0.21293 0.34312 0.0
C571 C 0.81683 0.22861 0.17096 0.0
O572 O 0.84408 0.02816 0.17694 0.0
O573 O 0.93065 0.04945 0.20338 0.0
C574 C 0.86348 0.05932 0.29735 0.0
C575 C 0.89645 1.01769 0.17809 0.0
Fe576 Fe 0.21679 0.58834 0.35332 0.0
O577 O 0.15092 0.62898 0.33271 0.0
Fe578 Fe 0.07496 0.63015 0.37766 0.0
Fe579 Fe 0.14253 0.67769 0.26424 0.0
O580 O 0.14322 0.61751 0.33097 0.0
O581 O 0.07434 0.70032 0.33396 0.0
O582 O 0.07454 0.68989 0.31751 0.0
Fe583 Fe 1.00916 0.73039 0.29481 0.0
C584 C 0.22459 0.71693 0.3701 0.0
O585 O 0.22091 0.57178 0.26722 0.0
O586 O 0.13606 0.5923 0.22876 0.0
O587 O 0.95439 0.66305 0.31623 0.0
O588 O 1.01791 0.59307 0.32181 0.0
O589 O 0.08768 0.55093 0.40968 0.0
O590 O 0.16792 0.52116 0.35983 0.0
O591 O 0.09183 0.71887 0.19324 0.0
O592 O 0.02229 0.6771 0.22907 0.0
C593 C 0.11871 0.51439 0.38263 0.0
O594 O 0.99052 0.75212 0.38017 0.0
O595 O 1.00621 0.66431 0.4241 0.0
O596 O 0.25341 0.67041 0.3614 0.0
O597 O 0.18684 0.73147 0.33063 0.0
C598 C 0.17654 0.5547 0.2389 0.0
C599 C 0.03766 0.70712 0.18979 0.0
C600 C 0.13351 0.7967 0.26505 0.0
O601 O 0.1574 0.7576 0.29401 0.0
O602 O 0.07641 0.7963 0.26301 0.0
C603 C 0.96649 0.60978 0.31691 0.0
O604 O 0.12993 0.66185 0.43331 0.0
O605 O 0.20132 0.59736 0.43439 0.0
C606 C 0.98255 0.7149 0.42159 0.0
C607 C 0.166 0.62984 0.45779 0.0
Fe608 Fe 0.53566 0.31874 0.78667 0.0
O609 O 0.47151 0.34417 0.8296 0.0
Fe610 Fe 0.402 0.36803 0.76477 0.0
Fe611 Fe 0.47219 0.41139 0.87692 0.0
O612 O 0.47069 0.35372 0.81545 0.0
O613 O 0.3945 0.41265 0.83578 0.0
O614 O 0.40148 0.42392 0.83458 0.0
Fe615 Fe 0.3307 0.45388 0.85985 0.0
C616 C 0.5662 0.32499 0.90985 0.0
O617 O 0.58965 0.38753 0.80948 0.0
O618 O 0.52373 0.45405 0.82017 0.0
O619 O 0.32847 0.47649 0.77392 0.0
O620 O 0.41187 0.45425 0.73342 0.0
O621 O 0.45073 0.33014 0.69073 0.0
O622 O 0.5198 0.3743 0.72284 0.0
O623 O 0.46027 0.48763 0.91399 0.0
O624 O 0.37927 0.51997 0.86808 0.0
C625 C 0.50444 0.34335 0.68471 0.0
O626 O 0.29224 0.37281 0.86338 0.0
O627 O 0.3572 0.31161 0.82974 0.0
O628 O 0.55622 0.29037 0.86762 0.0
O629 O 0.54377 0.37565 0.9165 0.0
C630 C 0.57568 0.44031 0.81459 0.0
C631 C 0.42959 0.52503 0.8877 0.0
C632 C 0.38595 0.40433 0.96173 0.0
O633 O 0.42232 0.37525 0.93457 0.0
O634 O 0.34909 0.43766 0.94049 0.0
C635 C 0.37306 0.4929 0.74468 0.0
O636 O 0.38619 0.28658 0.79077 0.0
O637 O 0.46802 0.25152 0.75658 0.0
C638 C 0.32015 0.32542 0.87029 0.0
C639 C 0.41095 0.24869 0.76102 0.0
Fe640 Fe 0.66209 0.57781 0.91445 0.0
O641 O 0.71072 0.57231 0.84812 0.0
Fe642 Fe 0.69356 0.72197 0.94877 0.0
Fe643 Fe 0.74665 0.50561 0.81853 0.0
O644 O 0.71199 0.6436 0.92801 0.0
O645 O 0.71091 0.65177 0.91578 0.0
O646 O 0.72553 0.57128 0.85877 0.0
Fe647 Fe 0.77874 0.63874 0.86757 0.0
C648 C 0.72072 0.466 0.9412 0.0
O649 O 0.61446 0.50988 0.87801 0.0
O650 O 0.66244 0.49051 0.79354 0.0
O651 O 0.71245 0.68122 0.8106 0.0
O652 O 0.6924 0.75449 0.86538 0.0
O653 O 0.61293 0.71286 0.9344 0.0
O654 O 0.61193 0.63575 0.87747 0.0
O655 O 0.77914 0.5712 0.75041 0.0
O656 O 0.74952 0.65317 0.78686 0.0
C657 C 0.58821 0.67459 0.9068 0.0
O658 O 0.81438 0.63182 0.95321 0.0
O659 O 0.77867 0.71835 0.97152 0.0
O660 O 0.71167 0.51727 0.95739 0.0
O661 O 0.72386 0.4533 0.88804 0.0
C662 C 0.61956 0.48396 0.82868 0.0
C663 C 0.77777 0.62835 0.74814 0.0
C664 C 0.8515 0.53178 0.83889 0.0
O665 O 0.81343 0.51645 0.87019 0.0
O666 O 0.84839 0.58617 0.82694 0.0
C667 C 0.67669 0.72286 0.82332 0.0
O668 O 0.6762 0.68018 1.01727 0.0
O669 O 0.62572 0.59847 0.99055 0.0
C670 C 0.80526 0.673 0.99005 0.0
C671 C 0.64286 0.63793 0.02525 0.0
Fe672 Fe 0.16423 0.96719 0.12661 0.0
O673 O 0.21347 0.96925 0.19288 0.0
Fe674 Fe 0.18446 0.8225 0.09159 0.0
Fe675 Fe 0.25293 0.03428 0.22114 0.0
O676 O 0.20905 0.89801 0.11357 0.0
O677 O 0.20801 0.89047 0.12571 0.0
O678 O 0.22755 0.96933 0.18269 0.0
Fe679 Fe 0.27841 0.90042 0.17164 0.0
C680 C 0.22439 0.07554 0.10028 0.0
O681 O 0.12176 0.03707 0.16144 0.0
O682 O 0.16985 0.05267 0.24666 0.0
O683 O 0.214 0.85909 0.23037 0.0
O684 O 0.18655 0.78887 0.17426 0.0
O685 O 0.10319 0.83781 0.10973 0.0
O686 O 0.11073 0.91437 0.16596 0.0
O687 O 0.28455 0.96794 0.28925 0.0
O688 O 0.25249 0.88618 0.2539 0.0
C689 C 0.08247 0.87902 0.13723 0.0
O690 O 0.30967 0.90698 0.08473 0.0
O691 O 0.26933 0.82249 0.06436 0.0
O692 O 0.21706 0.02411 0.084 0.0
O693 O 0.2299 0.08778 0.15314 0.0
C694 C 0.12787 0.06152 0.21092 0.0
C695 C 0.28126 0.91097 0.29237 0.0
C696 C 0.35681 1.00477 0.19743 0.0
O697 O 0.31834 1.02108 0.16699 0.0
O698 O 0.35115 0.95066 0.21015 0.0
C699 C 0.17544 0.82007 0.21812 0.0
O700 O 0.1687 0.86493 0.02314 0.0
O701 O 0.12627 0.9508 0.04968 0.0
C702 C 0.29777 0.86742 0.04695 0.0
C703 C 0.14234 0.91157 1.01415 0.0
Fe704 Fe 0.35403 0.21692 0.58955 0.0
O705 O 0.33308 0.14941 0.62655 0.0
Fe706 Fe 0.3754 0.07079 0.62537 0.0
Fe707 Fe 0.26451 0.14056 0.67403 0.0
O708 O 0.3308 0.14129 0.61458 0.0
O709 O 0.33325 0.07128 0.69633 0.0
O710 O 0.31755 0.0723 0.68694 0.0
Fe711 Fe 0.29246 1.00692 0.72559 0.0
C712 C 0.3686 0.223 0.7158 0.0
O713 O 0.26808 0.21788 0.56688 0.0
O714 O 0.23023 0.13277 0.588 0.0
O715 O 0.31406 0.95165 0.65838 0.0
O716 O 0.31831 1.0152 0.5886 0.0
O717 O 0.40525 0.08518 0.54478 0.0
O718 O 0.36404 0.17341 0.52232 0.0
O719 O 0.193 0.09066 0.71368 0.0
O720 O 0.22811 0.02186 0.67056 0.0
C721 C 0.38801 0.12615 0.5115 0.0
O722 O 0.37692 0.98692 0.74859 0.0
O723 O 0.42086 1.00089 0.66059 0.0
O724 O 0.35732 0.2527 0.6708 0.0
O725 O 0.33025 0.18406 0.72991 0.0
C726 C 0.24052 0.17263 0.54969 0.0
C727 C 0.18881 0.03698 0.70032 0.0
C728 C 0.26385 0.13159 0.79366 0.0
O729 O 0.29267 0.15574 0.75464 0.0
O730 O 0.26098 0.07443 0.79222 0.0
C731 C 0.31516 0.96356 0.60507 0.0
O732 O 0.43173 0.12334 0.6562 0.0
O733 O 0.43597 0.20051 0.60216 0.0
C734 C 0.41836 0.97829 0.71185 0.0
C735 C 0.45641 0.1535 0.61929 0.0
Fe736 Fe 0.77019 0.4021 0.36508 0.0
O737 O 0.83988 0.39513 0.41136 0.0
Fe738 Fe 0.7956 0.53854 0.3151 0.0
Fe739 Fe 0.86187 0.33051 0.45322 0.0
O740 O 0.82141 0.47216 0.35273 0.0
O741 O 0.83784 0.47369 0.34285 0.0
O742 O 0.83739 0.40259 0.42327 0.0
Fe743 Fe 0.88049 0.4738 0.41362 0.0
C744 C 0.74676 0.36665 0.48804 0.0
O745 O 0.83473 0.35729 0.30945 0.0
O746 O 0.87177 0.29338 0.37119 0.0
O747 O 0.92363 0.545 0.38077 0.0
O748 O 0.87993 0.56 0.29294 0.0
O749 O 0.76752 0.4727 0.24768 0.0
O750 O 0.79909 0.39024 0.28385 0.0
O751 O 0.94206 0.35067 0.44558 0.0
O752 O 0.94069 0.4234 0.3823 0.0
C753 C 0.77051 0.41596 0.24537 0.0
O754 O 0.82102 0.5268 0.45112 0.0
O755 O 0.81526 0.59237 0.38348 0.0
O756 O 0.73562 0.40729 0.45097 0.0
O757 O 0.77601 0.32301 0.4702 0.0
C758 C 0.87536 0.3199 0.32253 0.0
C759 C 0.96512 0.38454 0.41105 0.0
C760 C 0.88312 0.42932 0.52773 0.0
O761 O 0.86427 0.3789 0.51974 0.0
O762 O 0.91126 0.46155 0.49305 0.0
C763 C 0.92114 0.56805 0.32995 0.0
O764 O 0.72965 0.52112 0.36759 0.0
O765 O 0.69717 0.44948 0.32636 0.0
C766 C 0.81658 0.57883 0.4363 0.0
C767 C 0.69088 0.50317 0.33846 0.0
loop_
_geom_bond_atom_site_label_1
_geom_bond_atom_site_label_2
_geom_bond_distance
_geom_bond_site_symmetry_2
_ccdc_geom_bond_type
Fe0 O1 1.886 . S
Fe0 O4 1.715 . S
Fe0 O9 2.077 . S
Fe0 O14 1.935 . S
Fe0 O20 2.077 1_455 S
Fe0 O29 1.935 . S
O1 Fe0 1.886 . S
O1 Fe3 1.715 . S
Fe2 O4 1.886 . S
Fe2 O5 1.715 . S
Fe2 O12 1.935 . S
Fe2 O13 2.077 . S
Fe2 O19 1.935 . S
Fe2 O28 2.077 . S
Fe3 O1 1.715 . S
Fe3 O6 1.886 . S
Fe3 O10 1.935 . S
Fe3 O15 2.077 . S
Fe3 O21 1.935 . S
Fe3 O25 2.077 . S
O4 Fe0 1.715 . S
O4 Fe2 1.886 . S
O5 Fe2 1.715 . S
O5 Fe7 1.886 . S
O6 Fe3 1.886 . S
O6 Fe7 1.715 . S
Fe7 O5 1.886 . S
Fe7 O6 1.715 . S
Fe7 O11 2.077 . S
Fe7 O16 1.935 . S
Fe7 O18 2.077 . S
Fe7 O26 1.935 . S
C8 O20 1.381 . S
C8 O21 1.421 1_655 S
O9 Fe0 2.077 . S
O9 C22 1.381 . S
O10 Fe3 1.935 . S
O10 C22 1.421 . S
O11 Fe7 2.077 . S
O11 C27 1.381 . S
O12 Fe2 1.935 . S
O12 C27 1.421 . S
O13 Fe2 2.077 . S
O13 C17 1.381 . S
O14 Fe0 1.935 . S
O14 C17 1.421 . S
O15 Fe3 2.077 . S
O15 C23 1.381 . S
O16 Fe7 1.935 . S
O16 C23 1.421 . S
C17 O13 1.381 . S
C17 O14 1.421 . S
O18 Fe7 2.077 . S
O18 C30 1.381 . S
O19 Fe2 1.935 . S
O19 C30 1.421 . S
O20 Fe0 2.077 1_655 S
O20 C8 1.381 . S
O21 Fe3 1.935 . S
O21 C8 1.421 1_455 S
C22 O9 1.381 . S
C22 O10 1.421 . S
C23 O15 1.381 . S
C23 O16 1.421 . S
C24 O25 1.381 . S
C24 O26 1.421 . S
O25 Fe3 2.077 . S
O25 C24 1.381 . S
O26 Fe7 1.935 . S
O26 C24 1.421 . S
C27 O11 1.381 . S
C27 O12 1.421 . S
O28 Fe2 2.077 . S
O28 C31 1.381 . S
O29 Fe0 1.935 . S
O29 C31 1.421 . S
C30 O18 1.381 . S
C30 O19 1.421 . S
C31 O28 1.381 . S
C31 O29 1.421 . S
Fe32 O33 1.886 . S
Fe32 O36 1.715 . S
Fe32 O41 2.077 . S
Fe32 O46 1.935 . S
Fe32 O52 2.077 . S
Fe32 O61 1.935 . S
O33 Fe32 1.886 . S
O33 Fe35 1.715 1_556 S
Fe34 O36 1.886 . S
Fe34 O37 1.715 . S
Fe34 O44 1.935 . S
Fe34 O45 2.077 . S
Fe34 O51 1.935 . S
Fe34 O60 2.077 . S
Fe35 O33 1.715 1_554 S
Fe35 O38 1.886 1_554 S
Fe35 O42 1.935 1_554 S
Fe35 O47 2.077 . S
Fe35 O53 1.935 . S
Fe35 O57 2.077 . S
O36 Fe32 1.715 . S
O36 Fe34 1.886 . S
O37 Fe34 1.715 . S
O37 Fe39 1.886 . S
O38 Fe35 1.886 1_556 S
O38 Fe39 1.715 . S
Fe39 O37 1.886 . S
Fe39 O38 1.715 . S
Fe39 O43 2.077 . S
Fe39 O48 1.935 . S
Fe39 O50 2.077 . S
Fe39 O58 1.935 1_556 S
C40 O52 1.381 . S
C40 O53 1.421 1_556 S
O41 Fe32 2.077 . S
O41 C54 1.381 . S
O42 Fe35 1.935 1_556 S
O42 C54 1.421 . S
O43 Fe39 2.077 . S
O43 C59 1.381 . S
O44 Fe34 1.935 . S
O44 C59 1.421 . S
O45 Fe34 2.077 . S
O45 C49 1.381 . S
O46 Fe32 1.935 . S
O46 C49 1.421 . S
O47 Fe35 2.077 . S
O47 C55 1.381 . S
O48 Fe39 1.935 . S
O48 C55 1.421 1_556 S
C49 O45 1.381 . S
C49 O46 1.421 . S
O50 Fe39 2.077 . S
O50 C62 1.381 . S
O51 Fe34 1.935 . S
O51 C62 1.421 . S
O52 Fe32 2.077 . S
O52 C40 1.381 . S
O53 Fe35 1.935 . S
O53 C40 1.421 1_554 S
C54 O41 1.381 . S
C54 O42 1.421 . S
C55 O47 1.381 . S
C55 O48 1.421 1_554 S
C56 O57 1.381 . S
C56 O58 1.421 . S
O57 Fe35 2.077 . S
O57 C56 1.381 . S
O58 Fe39 1.935 1_554 S
O58 C56 1.421 . S
C59 O43 1.381 . S
C59 O44 1.421 . S
O60 Fe34 2.077 . S
O60 C63 1.381 . S
O61 Fe32 1.935 . S
O61 C63 1.421 . S
C62 O50 1.381 . S
C62 O51 1.421 . S
C63 O60 1.381 . S
C63 O61 1.421 . S
Fe64 O65 1.886 . S
Fe64 O68 1.715 . S
Fe64 O73 2.077 . S
Fe64 O78 1.935 . S
Fe64 O84 2.077 . S
Fe64 O93 1.935 . S
O65 Fe64 1.886 . S
O65 Fe67 1.715 . S
Fe66 O68 1.886 . S
Fe66 O69 1.715 . S
Fe66 O76 1.935 . S
Fe66 O77 2.077 . S
Fe66 O83 1.935 . S
Fe66 O92 2.077 . S
Fe67 O65 1.715 . S
Fe67 O70 1.886 . S
Fe67 O74 1.935 . S
Fe67 O79 2.077 . S
Fe67 O85 1.935 . S
Fe67 O89 2.077 . S
O68 Fe64 1.715 . S
O68 Fe66 1.886 . S
O69 Fe66 1.715 . S
O69 Fe71 1.886 . S
O70 Fe67 1.886 . S
O70 Fe71 1.715 . S
Fe71 O69 1.886 . S
Fe71 O70 1.715 . S
Fe71 O75 2.077 . S
Fe71 O80 1.935 . S
Fe71 O82 2.077 . S
Fe71 O90 1.935 . S
C72 O84 1.381 . S
C72 O85 1.421 . S
O73 Fe64 2.077 . S
O73 C86 1.381 . S
O74 Fe67 1.935 . S
O74 C86 1.421 . S
O75 Fe71 2.077 . S
O75 C91 1.381 . S
O76 Fe66 1.935 . S
O76 C91 1.421 . S
O77 Fe66 2.077 . S
O77 C81 1.381 . S
O78 Fe64 1.935 . S
O78 C81 1.421 . S
O79 Fe67 2.077 . S
O79 C87 1.381 . S
O80 Fe71 1.935 . S
O80 C87 1.421 . S
C81 O77 1.381 . S
C81 O78 1.421 . S
O82 Fe71 2.077 . S
O82 C94 1.381 . S
O83 Fe66 1.935 . S
O83 C94 1.421 . S
O84 Fe64 2.077 . S
O84 C72 1.381 . S
O85 Fe67 1.935 . S
O85 C72 1.421 . S
C86 O73 1.381 . S
C86 O74 1.421 . S
C87 O79 1.381 . S
C87 O80 1.421 . S
C88 O89 1.381 . S
C88 O90 1.421 . S
O89 Fe67 2.077 . S
O89 C88 1.381 . S
O90 Fe71 1.935 . S
O90 C88 1.421 . S
C91 O75 1.381 . S
C91 O76 1.421 . S
O92 Fe66 2.077 . S
O92 C95 1.381 . S
O93 Fe64 1.935 . S
O93 C95 1.421 . S
C94 O82 1.381 . S
C94 O83 1.421 . S
C95 O92 1.381 . S
C95 O93 1.421 . S
Fe96 O97 1.886 . S
Fe96 O100 1.715 . S
Fe96 O105 2.077 . S
Fe96 O110 1.935 . S
Fe96 O116 2.077 . S
Fe96 O125 1.935 . S
O97 Fe96 1.886 . S
O97 Fe99 1.715 1_554 S
Fe98 O100 1.886 . S
Fe98 O101 1.715 . S
Fe98 O108 1.935 . S
Fe98 O109 2.077 . S
Fe98 O115 1.935 . S
Fe98 O124 2.077 . S
Fe99 O97 1.715 1_556 S
Fe99 O102 1.886 1_556 S
Fe99 O106 1.935 1_556 S
Fe99 O111 2.077 . S
Fe99 O117 1.935 . S
Fe99 O121 2.077 . S
O100 Fe96 1.715 . S
O100 Fe98 1.886 . S
O101 Fe98 1.715 . S
O101 Fe103 1.886 . S
O102 Fe99 1.886 1_554 S
O102 Fe103 1.715 . S
Fe103 O101 1.886 . S
Fe103 O102 1.715 . S
Fe103 O107 2.077 . S
Fe103 O112 1.935 . S
Fe103 O114 2.077 1_655 S
Fe103 O122 1.935 1_554 S
C104 O116 1.381 . S
C104 O117 1.421 1_554 S
O105 Fe96 2.077 . S
O105 C118 1.381 . S
O106 Fe99 1.935 1_554 S
O106 C118 1.421 . S
O107 Fe103 2.077 . S
O107 C123 1.381 . S
O108 Fe98 1.935 . S
O108 C123 1.421 . S
O109 Fe98 2.077 . S
O109 C113 1.381 . S
O110 Fe96 1.935 . S
O110 C113 1.421 . S
O111 Fe99 2.077 . S
O111 C119 1.381 . S
O112 Fe103 1.935 . S
O112 C119 1.421 1_554 S
C113 O109 1.381 . S
C113 O110 1.421 . S
O114 Fe103 2.077 1_455 S
O114 C126 1.381 . S
O115 Fe98 1.935 . S
O115 C126 1.421 1_655 S
O116 Fe96 2.077 . S
O116 C104 1.381 . S
O117 Fe99 1.935 . S
O117 C104 1.421 1_556 S
C118 O105 1.381 . S
C118 O106 1.421 . S
C119 O111 1.381 . S
C119 O112 1.421 1_556 S
C120 O121 1.381 . S
C120 O122 1.421 . S
O121 Fe99 2.077 . S
O121 C120 1.381 . S
O122 Fe103 1.935 1_556 S
O122 C120 1.421 . S
C123 O107 1.381 . S
C123 O108 1.421 . S
O124 Fe98 2.077 . S
O124 C127 1.381 . S
O125 Fe96 1.935 . S
O125 C127 1.421 . S
C126 O114 1.381 . S
C126 O115 1.421 1_455 S
C127 O124 1.381 . S
C127 O125 1.421 . S
Fe128 O129 1.886 . S
Fe128 O132 1.715 . S
Fe128 O137 2.077 . S
Fe128 O142 1.935 . S
Fe128 O148 2.077 . S
Fe128 O157 1.935 . S
O129 Fe128 1.886 . S
O129 Fe131 1.715 . S
Fe130 O132 1.886 . S
Fe130 O133 1.715 . S
Fe130 O140 1.935 . S
Fe130 O141 2.077 1_545 S
Fe130 O147 1.935 . S
Fe130 O156 2.077 . S
Fe131 O129 1.715 . S
Fe131 O134 1.886 . S
Fe131 O138 1.935 . S
Fe131 O143 2.077 . S
Fe131 O149 1.935 . S
Fe131 O153 2.077 . S
O132 Fe128 1.715 . S
O132 Fe130 1.886 . S
O133 Fe130 1.715 . S
O133 Fe135 1.886 . S
O134 Fe131 1.886 . S
O134 Fe135 1.715 . S
Fe135 O133 1.886 . S
Fe135 O134 1.715 . S
Fe135 O139 2.077 . S
Fe135 O144 1.935 . S
Fe135 O146 2.077 . S
Fe135 O154 1.935 . S
C136 O148 1.381 . S
C136 O149 1.421 . S
O137 Fe128 2.077 . S
O137 C150 1.381 . S
O138 Fe131 1.935 . S
O138 C150 1.421 . S
O139 Fe135 2.077 . S
O139 C155 1.381 . S
O140 Fe130 1.935 . S
O140 C155 1.421 . S
O141 Fe130 2.077 1_565 S
O141 C145 1.381 . S
O142 Fe128 1.935 . S
O142 C145 1.421 1_545 S
O143 Fe131 2.077 . S
O143 C151 1.381 . S
O144 Fe135 1.935 . S
O144 C151 1.421 . S
C145 O141 1.381 . S
C145 O142 1.421 1_565 S
O146 Fe135 2.077 . S
O146 C158 1.381 . S
O147 Fe130 1.935 . S
O147 C158 1.421 . S
O148 Fe128 2.077 . S
O148 C136 1.381 . S
O149 Fe131 1.935 . S
O149 C136 1.421 . S
C150 O137 1.381 . S
C150 O138 1.421 . S
C151 O143 1.381 . S
C151 O144 1.421 . S
C152 O153 1.381 . S
C152 O154 1.421 . S
O153 Fe131 2.077 . S
O153 C152 1.381 . S
O154 Fe135 1.935 . S
O154 C152 1.421 . S
C155 O139 1.381 . S
C155 O140 1.421 . S
O156 Fe130 2.077 . S
O156 C159 1.381 . S
O157 Fe128 1.935 . S
O157 C159 1.421 . S
C158 O146 1.381 . S
C158 O147 1.421 . S
C159 O156 1.381 . S
C159 O157 1.421 . S
Fe160 O161 1.886 . S
Fe160 O164 1.715 . S
Fe160 O169 2.077 . S
Fe160 O174 1.935 . S
Fe160 O180 2.077 . S
Fe160 O189 1.935 . S
O161 Fe160 1.886 . S
O161 Fe163 1.715 1_455 S
Fe162 O164 1.886 . S
Fe162 O165 1.715 . S
Fe162 O172 1.935 . S
Fe162 O173 2.077 . S
Fe162 O179 1.935 . S
Fe162 O188 2.077 . S
Fe163 O161 1.715 1_655 S
Fe163 O166 1.886 1_655 S
Fe163 O170 1.935 1_655 S
Fe163 O175 2.077 . S
Fe163 O181 1.935 . S
Fe163 O185 2.077 . S
O164 Fe160 1.715 . S
O164 Fe162 1.886 . S
O165 Fe162 1.715 . S
O165 Fe167 1.886 . S
O166 Fe163 1.886 1_455 S
O166 Fe167 1.715 . S
Fe167 O165 1.886 . S
Fe167 O166 1.715 . S
Fe167 O171 2.077 . S
Fe167 O176 1.935 . S
Fe167 O178 2.077 1_565 S
Fe167 O186 1.935 1_455 S
C168 O180 1.381 . S
C168 O181 1.421 1_455 S
O169 Fe160 2.077 . S
O169 C182 1.381 . S
O170 Fe163 1.935 1_455 S
O170 C182 1.421 . S
O171 Fe167 2.077 . S
O171 C187 1.381 . S
O172 Fe162 1.935 . S
O172 C187 1.421 . S
O173 Fe162 2.077 . S
O173 C177 1.381 . S
O174 Fe160 1.935 . S
O174 C177 1.421 . S
O175 Fe163 2.077 . S
O175 C183 1.381 . S
O176 Fe167 1.935 . S
O176 C183 1.421 1_455 S
C177 O173 1.381 . S
C177 O174 1.421 . S
O178 Fe167 2.077 1_545 S
O178 C190 1.381 . S
O179 Fe162 1.935 . S
O179 C190 1.421 1_565 S
O180 Fe160 2.077 . S
O180 C168 1.381 . S
O181 Fe163 1.935 . S
O181 C168 1.421 1_655 S
C182 O169 1.381 . S
C182 O170 1.421 . S
C183 O175 1.381 . S
C183 O176 1.421 1_655 S
C184 O185 1.381 . S
C184 O186 1.421 . S
O185 Fe163 2.077 . S
O185 C184 1.381 . S
O186 Fe167 1.935 1_655 S
O186 C184 1.421 . S
C187 O171 1.381 . S
C187 O172 1.421 . S
O188 Fe162 2.077 . S
O188 C191 1.381 . S
O189 Fe160 1.935 . S
O189 C191 1.421 . S
C190 O178 1.381 . S
C190 O179 1.421 1_545 S
C191 O188 1.381 . S
C191 O189 1.421 . S
Fe192 O193 1.886 . S
Fe192 O196 1.715 . S
Fe192 O201 2.077 . S
Fe192 O206 1.935 . S
Fe192 O212 2.077 . S
Fe192 O221 1.935 1_655 S
O193 Fe192 1.886 . S
O193 Fe195 1.715 . S
Fe194 O196 1.886 1_455 S
Fe194 O197 1.715 1_455 S
Fe194 O204 1.935 1_455 S
Fe194 O205 2.077 . S
Fe194 O211 1.935 . S
Fe194 O220 2.077 . S
Fe195 O193 1.715 . S
Fe195 O198 1.886 . S
Fe195 O202 1.935 . S
Fe195 O207 2.077 . S
Fe195 O213 1.935 . S
Fe195 O217 2.077 . S
O196 Fe192 1.715 . S
O196 Fe194 1.886 1_655 S
O197 Fe194 1.715 1_655 S
O197 Fe199 1.886 . S
O198 Fe195 1.886 . S
O198 Fe199 1.715 . S
Fe199 O197 1.886 . S
Fe199 O198 1.715 . S
Fe199 O203 2.077 . S
Fe199 O208 1.935 . S
Fe199 O210 2.077 . S
Fe199 O218 1.935 . S
C200 O212 1.381 . S
C200 O213 1.421 . S
O201 Fe192 2.077 . S
O201 C214 1.381 . S
O202 Fe195 1.935 . S
O202 C214 1.421 . S
O203 Fe199 2.077 . S
O203 C219 1.381 . S
O204 Fe194 1.935 1_655 S
O204 C219 1.421 . S
O205 Fe194 2.077 . S
O205 C209 1.381 . S
O206 Fe192 1.935 . S
O206 C209 1.421 1_655 S
O207 Fe195 2.077 . S
O207 C215 1.381 . S
O208 Fe199 1.935 . S
O208 C215 1.421 . S
C209 O205 1.381 . S
C209 O206 1.421 1_455 S
O210 Fe199 2.077 . S
O210 C222 1.381 . S
O211 Fe194 1.935 . S
O211 C222 1.421 1_455 S
O212 Fe192 2.077 . S
O212 C200 1.381 . S
O213 Fe195 1.935 . S
O213 C200 1.421 . S
C214 O201 1.381 . S
C214 O202 1.421 . S
C215 O207 1.381 . S
C215 O208 1.421 . S
C216 O217 1.381 . S
C216 O218 1.421 . S
O217 Fe195 2.077 . S
O217 C216 1.381 . S
O218 Fe199 1.935 . S
O218 C216 1.421 . S
C219 O203 1.381 . S
C219 O204 1.421 . S
O220 Fe194 2.077 . S
O220 C223 1.381 . S
O221 Fe192 1.935 1_455 S
O221 C223 1.421 . S
C222 O210 1.381 . S
C222 O211 1.421 1_655 S
C223 O220 1.381 . S
C223 O221 1.421 . S
Fe224 O225 1.886 . S
Fe224 O228 1.715 . S
Fe224 O233 2.077 . S
Fe224 O238 1.935 . S
Fe224 O244 2.077 . S
Fe224 O253 1.935 . S
O225 Fe224 1.886 . S
O225 Fe227 1.715 . S
Fe226 O228 1.886 . S
Fe226 O229 1.715 . S
Fe226 O236 1.935 . S
Fe226 O237 2.077 . S
Fe226 O243 1.935 . S
Fe226 O252 2.077 . S
Fe227 O225 1.715 . S
Fe227 O230 1.886 . S
Fe227 O234 1.935 . S
Fe227 O239 2.077 . S
Fe227 O245 1.935 . S
Fe227 O249 2.077 . S
O228 Fe224 1.715 . S
O228 Fe226 1.886 . S
O229 Fe226 1.715 . S
O229 Fe231 1.886 . S
O230 Fe227 1.886 . S
O230 Fe231 1.715 . S
Fe231 O229 1.886 . S
Fe231 O230 1.715 . S
Fe231 O235 2.077 . S
Fe231 O240 1.935 . S
Fe231 O242 2.077 . S
Fe231 O250 1.935 . S
C232 O244 1.381 . S
C232 O245 1.421 . S
O233 Fe224 2.077 . S
O233 C246 1.381 . S
O234 Fe227 1.935 . S
O234 C246 1.421 . S
O235 Fe231 2.077 . S
O235 C251 1.381 . S
O236 Fe226 1.935 . S
O236 C251 1.421 . S
O237 Fe226 2.077 . S
O237 C241 1.381 . S
O238 Fe224 1.935 . S
O238 C241 1.421 . S
O239 Fe227 2.077 . S
O239 C247 1.381 . S
O240 Fe231 1.935 . S
O240 C247 1.421 . S
C241 O237 1.381 . S
C241 O238 1.421 . S
O242 Fe231 2.077 . S
O242 C254 1.381 . S
O243 Fe226 1.935 . S
O243 C254 1.421 . S
O244 Fe224 2.077 . S
O244 C232 1.381 . S
O245 Fe227 1.935 . S
O245 C232 1.421 . S
C246 O233 1.381 . S
C246 O234 1.421 . S
C247 O239 1.381 . S
C247 O240 1.421 . S
C248 O249 1.381 . S
C248 O250 1.421 . S
O249 Fe227 2.077 . S
O249 C248 1.381 . S
O250 Fe231 1.935 . S
O250 C248 1.421 . S
C251 O235 1.381 . S
C251 O236 1.421 . S
O252 Fe226 2.077 . S
O252 C255 1.381 . S
O253 Fe224 1.935 . S
O253 C255 1.421 . S
C254 O242 1.381 . S
C254 O243 1.421 . S
C255 O252 1.381 . S
C255 O253 1.421 . S
Fe256 O257 1.886 . S
Fe256 O260 1.715 . S
Fe256 O265 2.077 1_554 S
Fe256 O270 1.935 . S
Fe256 O276 2.077 . S
Fe256 O285 1.935 . S
O257 Fe256 1.886 . S
O257 Fe259 1.715 . S
Fe258 O260 1.886 . S
Fe258 O261 1.715 . S
Fe258 O268 1.935 . S
Fe258 O269 2.077 . S
Fe258 O275 1.935 . S
Fe258 O284 2.077 . S
Fe259 O257 1.715 . S
Fe259 O262 1.886 . S
Fe259 O266 1.935 . S
Fe259 O271 2.077 . S
Fe259 O277 1.935 . S
Fe259 O281 2.077 . S
O260 Fe256 1.715 . S
O260 Fe258 1.886 . S
O261 Fe258 1.715 . S
O261 Fe263 1.886 . S
O262 Fe259 1.886 . S
O262 Fe263 1.715 . S
Fe263 O261 1.886 . S
Fe263 O262 1.715 . S
Fe263 O267 2.077 . S
Fe263 O272 1.935 . S
Fe263 O274 2.077 . S
Fe263 O282 1.935 . S
C264 O276 1.381 . S
C264 O277 1.421 . S
O265 Fe256 2.077 1_556 S
O265 C278 1.381 . S
O266 Fe259 1.935 . S
O266 C278 1.421 1_554 S
O267 Fe263 2.077 . S
O267 C283 1.381 . S
O268 Fe258 1.935 . S
O268 C283 1.421 . S
O269 Fe258 2.077 . S
O269 C273 1.381 . S
O270 Fe256 1.935 . S
O270 C273 1.421 . S
O271 Fe259 2.077 . S
O271 C279 1.381 . S
O272 Fe263 1.935 . S
O272 C279 1.421 . S
C273 O269 1.381 . S
C273 O270 1.421 . S
O274 Fe263 2.077 . S
O274 C286 1.381 . S
O275 Fe258 1.935 . S
O275 C286 1.421 . S
O276 Fe256 2.077 . S
O276 C264 1.381 . S
O277 Fe259 1.935 . S
O277 C264 1.421 . S
C278 O265 1.381 . S
C278 O266 1.421 1_556 S
C279 O271 1.381 . S
C279 O272 1.421 . S
C280 O281 1.381 . S
C280 O282 1.421 . S
O281 Fe259 2.077 . S
O281 C280 1.381 . S
O282 Fe263 1.935 . S
O282 C280 1.421 . S
C283 O267 1.381 . S
C283 O268 1.421 . S
O284 Fe258 2.077 . S
O284 C287 1.381 . S
O285 Fe256 1.935 . S
O285 C287 1.421 . S
C286 O274 1.381 . S
C286 O275 1.421 . S
C287 O284 1.381 . S
C287 O285 1.421 . S
Fe288 O289 1.886 1_565 S
Fe288 O292 1.715 1_565 S
Fe288 O297 2.077 . S
Fe288 O302 1.935 . S
Fe288 O308 2.077 1_565 S
Fe288 O317 1.935 . S
O289 Fe288 1.886 1_545 S
O289 Fe291 1.715 . S
Fe290 O292 1.886 . S
Fe290 O293 1.715 . S
Fe290 O300 1.935 . S
Fe290 O301 2.077 1_545 S
Fe290 O307 1.935 . S
Fe290 O316 2.077 1_545 S
Fe291 O289 1.715 . S
Fe291 O294 1.886 . S
Fe291 O298 1.935 . S
Fe291 O303 2.077 . S
Fe291 O309 1.935 . S
Fe291 O313 2.077 . S
O292 Fe288 1.715 1_545 S
O292 Fe290 1.886 . S
O293 Fe290 1.715 . S
O293 Fe295 1.886 . S
O294 Fe291 1.886 . S
O294 Fe295 1.715 . S
Fe295 O293 1.886 . S
Fe295 O294 1.715 . S
Fe295 O299 2.077 1_556 S
Fe295 O304 1.935 . S
Fe295 O306 2.077 . S
Fe295 O314 1.935 . S
C296 O308 1.381 . S
C296 O309 1.421 . S
O297 Fe288 2.077 . S
O297 C310 1.381 1_565 S
O298 Fe291 1.935 . S
O298 C310 1.421 . S
O299 Fe295 2.077 1_554 S
O299 C315 1.381 . S
O300 Fe290 1.935 . S
O300 C315 1.421 1_556 S
O301 Fe290 2.077 1_565 S
O301 C305 1.381 . S
O302 Fe288 1.935 . S
O302 C305 1.421 . S
O303 Fe291 2.077 . S
O303 C311 1.381 . S
O304 Fe295 1.935 . S
O304 C311 1.421 . S
C305 O301 1.381 . S
C305 O302 1.421 . S
O306 Fe295 2.077 . S
O306 C318 1.381 . S
O307 Fe290 1.935 . S
O307 C318 1.421 . S
O308 Fe288 2.077 1_545 S
O308 C296 1.381 . S
O309 Fe291 1.935 . S
O309 C296 1.421 . S
C310 O297 1.381 1_545 S
C310 O298 1.421 . S
C311 O303 1.381 . S
C311 O304 1.421 . S
C312 O313 1.381 . S
C312 O314 1.421 . S
O313 Fe291 2.077 . S
O313 C312 1.381 . S
O314 Fe295 1.935 . S
O314 C312 1.421 . S
C315 O299 1.381 . S
C315 O300 1.421 1_554 S
O316 Fe290 2.077 1_565 S
O316 C319 1.381 . S
O317 Fe288 1.935 . S
O317 C319 1.421 . S
C318 O306 1.381 . S
C318 O307 1.421 . S
C319 O316 1.381 . S
C319 O317 1.421 . S
Fe320 O321 1.886 . S
Fe320 O324 1.715 . S
Fe320 O329 2.077 . S
Fe320 O334 1.935 . S
Fe320 O340 2.077 . S
Fe320 O349 1.935 . S
O321 Fe320 1.886 . S
O321 Fe323 1.715 . S
Fe322 O324 1.886 . S
Fe322 O325 1.715 . S
Fe322 O332 1.935 . S
Fe322 O333 2.077 . S
Fe322 O339 1.935 . S
Fe322 O348 2.077 . S
Fe323 O321 1.715 . S
Fe323 O326 1.886 . S
Fe323 O330 1.935 . S
Fe323 O335 2.077 1_565 S
Fe323 O341 1.935 . S
Fe323 O345 2.077 1_565 S
O324 Fe320 1.715 . S
O324 Fe322 1.886 . S
O325 Fe322 1.715 . S
O325 Fe327 1.886 1_565 S
O326 Fe323 1.886 . S
O326 Fe327 1.715 1_565 S
Fe327 O325 1.886 1_545 S
Fe327 O326 1.715 1_545 S
Fe327 O331 2.077 . S
Fe327 O336 1.935 . S
Fe327 O338 2.077 1_545 S
Fe327 O346 1.935 . S
C328 O340 1.381 . S
C328 O341 1.421 . S
O329 Fe320 2.077 . S
O329 C342 1.381 . S
O330 Fe323 1.935 . S
O330 C342 1.421 . S
O331 Fe327 2.077 . S
O331 C347 1.381 1_545 S
O332 Fe322 1.935 . S
O332 C347 1.421 . S
O333 Fe322 2.077 . S
O333 C337 1.381 . S
O334 Fe320 1.935 . S
O334 C337 1.421 . S
O335 Fe323 2.077 1_545 S
O335 C343 1.381 . S
O336 Fe327 1.935 . S
O336 C343 1.421 . S
C337 O333 1.381 . S
C337 O334 1.421 . S
O338 Fe327 2.077 1_565 S
O338 C350 1.381 . S
O339 Fe322 1.935 . S
O339 C350 1.421 . S
O340 Fe320 2.077 . S
O340 C328 1.381 . S
O341 Fe323 1.935 . S
O341 C328 1.421 . S
C342 O329 1.381 . S
C342 O330 1.421 . S
C343 O335 1.381 . S
C343 O336 1.421 . S
C344 O345 1.381 . S
C344 O346 1.421 . S
O345 Fe323 2.077 1_545 S
O345 C344 1.381 . S
O346 Fe327 1.935 . S
O346 C344 1.421 . S
C347 O331 1.381 1_565 S
C347 O332 1.421 . S
O348 Fe322 2.077 . S
O348 C351 1.381 . S
O349 Fe320 1.935 . S
O349 C351 1.421 . S
C350 O338 1.381 . S
C350 O339 1.421 . S
C351 O348 1.381 . S
C351 O349 1.421 . S
Fe352 O353 1.886 . S
Fe352 O356 1.715 . S
Fe352 O361 2.077 . S
Fe352 O366 1.935 . S
Fe352 O372 2.077 . S
Fe352 O381 1.935 . S
O353 Fe352 1.886 . S
O353 Fe355 1.715 . S
Fe354 O356 1.886 . S
Fe354 O357 1.715 . S
Fe354 O364 1.935 . S
Fe354 O365 2.077 . S
Fe354 O371 1.935 . S
Fe354 O380 2.077 . S
Fe355 O353 1.715 . S
Fe355 O358 1.886 . S
Fe355 O362 1.935 . S
Fe355 O367 2.077 . S
Fe355 O373 1.935 . S
Fe355 O377 2.077 . S
O356 Fe352 1.715 . S
O356 Fe354 1.886 . S
O357 Fe354 1.715 . S
O357 Fe359 1.886 . S
O358 Fe355 1.886 . S
O358 Fe359 1.715 . S
Fe359 O357 1.886 . S
Fe359 O358 1.715 . S
Fe359 O363 2.077 . S
Fe359 O368 1.935 . S
Fe359 O370 2.077 . S
Fe359 O378 1.935 . S
C360 O372 1.381 . S
C360 O373 1.421 . S
O361 Fe352 2.077 . S
O361 C374 1.381 . S
O362 Fe355 1.935 . S
O362 C374 1.421 . S
O363 Fe359 2.077 . S
O363 C379 1.381 . S
O364 Fe354 1.935 . S
O364 C379 1.421 . S
O365 Fe354 2.077 . S
O365 C369 1.381 . S
O366 Fe352 1.935 . S
O366 C369 1.421 . S
O367 Fe355 2.077 . S
O367 C375 1.381 . S
O368 Fe359 1.935 . S
O368 C375 1.421 . S
C369 O365 1.381 . S
C369 O366 1.421 . S
O370 Fe359 2.077 . S
O370 C382 1.381 . S
O371 Fe354 1.935 . S
O371 C382 1.421 . S
O372 Fe352 2.077 . S
O372 C360 1.381 . S
O373 Fe355 1.935 . S
O373 C360 1.421 . S
C374 O361 1.381 . S
C374 O362 1.421 . S
C375 O367 1.381 . S
C375 O368 1.421 . S
C376 O377 1.381 . S
C376 O378 1.421 . S
O377 Fe355 2.077 . S
O377 C376 1.381 . S
O378 Fe359 1.935 . S
O378 C376 1.421 . S
C379 O363 1.381 . S
C379 O364 1.421 . S
O380 Fe354 2.077 . S
O380 C383 1.381 . S
O381 Fe352 1.935 . S
O381 C383 1.421 . S
C382 O370 1.381 . S
C382 O371 1.421 . S
C383 O380 1.381 . S
C383 O381 1.421 . S
Fe384 O385 1.886 . S
Fe384 O388 1.715 . S
Fe384 O393 2.077 . S
Fe384 O398 1.935 . S
Fe384 O404 2.077 . S
Fe384 O413 1.935 . S
O385 Fe384 1.886 . S
O385 Fe387 1.715 . S
Fe386 O388 1.886 . S
Fe386 O389 1.715 . S
Fe386 O396 1.935 . S
Fe386 O397 2.077 1_655 S
Fe386 O403 1.935 . S
Fe386 O412 2.077 . S
Fe387 O385 1.715 . S
Fe387 O390 1.886 . S
Fe387 O394 1.935 . S
Fe387 O399 2.077 . S
Fe387 O405 1.935 . S
Fe387 O409 2.077 . S
O388 Fe384 1.715 . S
O388 Fe386 1.886 . S
O389 Fe386 1.715 . S
O389 Fe391 1.886 . S
O390 Fe387 1.886 . S
O390 Fe391 1.715 . S
Fe391 O389 1.886 . S
Fe391 O390 1.715 . S
Fe391 O395 2.077 . S
Fe391 O400 1.935 . S
Fe391 O402 2.077 . S
Fe391 O410 1.935 . S
C392 O404 1.381 . S
C392 O405 1.421 . S
O393 Fe384 2.077 . S
O393 C406 1.381 . S
O394 Fe387 1.935 . S
O394 C406 1.421 . S
O395 Fe391 2.077 . S
O395 C411 1.381 . S
O396 Fe386 1.935 . S
O396 C411 1.421 . S
O397 Fe386 2.077 1_455 S
O397 C401 1.381 . S
O398 Fe384 1.935 . S
O398 C401 1.421 1_655 S
O399 Fe387 2.077 . S
O399 C407 1.381 . S
O400 Fe391 1.935 . S
O400 C407 1.421 . S
C401 O397 1.381 . S
C401 O398 1.421 1_455 S
O402 Fe391 2.077 . S
O402 C414 1.381 . S
O403 Fe386 1.935 . S
O403 C414 1.421 . S
O404 Fe384 2.077 . S
O404 C392 1.381 . S
O405 Fe387 1.935 . S
O405 C392 1.421 . S
C406 O393 1.381 . S
C406 O394 1.421 . S
C407 O399 1.381 . S
C407 O400 1.421 . S
C408 O409 1.381 . S
C408 O410 1.421 . S
O409 Fe387 2.077 . S
O409 C408 1.381 . S
O410 Fe391 1.935 . S
O410 C408 1.421 . S
C411 O395 1.381 . S
C411 O396 1.421 . S
O412 Fe386 2.077 . S
O412 C415 1.381 . S
O413 Fe384 1.935 . S
O413 C415 1.421 . S
C414 O402 1.381 . S
C414 O403 1.421 . S
C415 O412 1.381 . S
C415 O413 1.421 . S
Fe416 O417 1.886 . S
Fe416 O420 1.715 . S
Fe416 O425 2.077 . S
Fe416 O430 1.935 . S
Fe416 O436 2.077 . S
Fe416 O445 1.935 . S
O417 Fe416 1.886 . S
O417 Fe419 1.715 . S
Fe418 O420 1.886 1_556 S
Fe418 O421 1.715 1_556 S
Fe418 O428 1.935 . S
Fe418 O429 2.077 1_556 S
Fe418 O435 1.935 . S
Fe418 O444 2.077 . S
Fe419 O417 1.715 . S
Fe419 O422 1.886 . S
Fe419 O426 1.935 . S
Fe419 O431 2.077 . S
Fe419 O437 1.935 . S
Fe419 O441 2.077 . S
O420 Fe416 1.715 . S
O420 Fe418 1.886 1_554 S
O421 Fe418 1.715 1_554 S
O421 Fe423 1.886 . S
O422 Fe419 1.886 . S
O422 Fe423 1.715 . S
Fe423 O421 1.886 . S
Fe423 O422 1.715 . S
Fe423 O427 2.077 1_554 S
Fe423 O432 1.935 . S
Fe423 O434 2.077 1_554 S
Fe423 O442 1.935 . S
C424 O436 1.381 . S
C424 O437 1.421 . S
O425 Fe416 2.077 . S
O425 C438 1.381 . S
O426 Fe419 1.935 . S
O426 C438 1.421 . S
O427 Fe423 2.077 1_556 S
O427 C443 1.381 . S
O428 Fe418 1.935 . S
O428 C443 1.421 . S
O429 Fe418 2.077 1_554 S
O429 C433 1.381 . S
O430 Fe416 1.935 . S
O430 C433 1.421 . S
O431 Fe419 2.077 . S
O431 C439 1.381 . S
O432 Fe423 1.935 . S
O432 C439 1.421 . S
C433 O429 1.381 . S
C433 O430 1.421 . S
O434 Fe423 2.077 1_556 S
O434 C446 1.381 . S
O435 Fe418 1.935 . S
O435 C446 1.421 . S
O436 Fe416 2.077 . S
O436 C424 1.381 . S
O437 Fe419 1.935 . S
O437 C424 1.421 . S
C438 O425 1.381 . S
C438 O426 1.421 . S
C439 O431 1.381 . S
C439 O432 1.421 . S
C440 O441 1.381 . S
C440 O442 1.421 . S
O441 Fe419 2.077 . S
O441 C440 1.381 . S
O442 Fe423 1.935 . S
O442 C440 1.421 . S
C443 O427 1.381 . S
C443 O428 1.421 . S
O444 Fe418 2.077 . S
O444 C447 1.381 1_556 S
O445 Fe416 1.935 . S
O445 C447 1.421 . S
C446 O434 1.381 . S
C446 O435 1.421 . S
C447 O444 1.381 1_554 S
C447 O445 1.421 . S
Fe448 O449 1.886 . S
Fe448 O452 1.715 . S
Fe448 O457 2.077 . S
Fe448 O462 1.935 . S
Fe448 O468 2.077 . S
Fe448 O477 1.935 . S
O449 Fe448 1.886 . S
O449 Fe451 1.715 . S
Fe450 O452 1.886 . S
Fe450 O453 1.715 . S
Fe450 O460 1.935 . S
Fe450 O461 2.077 . S
Fe450 O467 1.935 . S
Fe450 O476 2.077 . S
Fe451 O449 1.715 . S
Fe451 O454 1.886 . S
Fe451 O458 1.935 . S
Fe451 O463 2.077 . S
Fe451 O469 1.935 . S
Fe451 O473 2.077 . S
O452 Fe448 1.715 . S
O452 Fe450 1.886 . S
O453 Fe450 1.715 . S
O453 Fe455 1.886 . S
O454 Fe451 1.886 . S
O454 Fe455 1.715 . S
Fe455 O453 1.886 . S
Fe455 O454 1.715 . S
Fe455 O459 2.077 . S
Fe455 O464 1.935 . S
Fe455 O466 2.077 . S
Fe455 O474 1.935 . S
C456 O468 1.381 . S
C456 O469 1.421 . S
O457 Fe448 2.077 . S
O457 C470 1.381 . S
O458 Fe451 1.935 . S
O458 C470 1.421 . S
O459 Fe455 2.077 . S
O459 C475 1.381 . S
O460 Fe450 1.935 . S
O460 C475 1.421 . S
O461 Fe450 2.077 . S
O461 C465 1.381 . S
O462 Fe448 1.935 . S
O462 C465 1.421 . S
O463 Fe451 2.077 . S
O463 C471 1.381 . S
O464 Fe455 1.935 . S
O464 C471 1.421 . S
C465 O461 1.381 . S
C465 O462 1.421 . S
O466 Fe455 2.077 . S
O466 C478 1.381 . S
O467 Fe450 1.935 . S
O467 C478 1.421 . S
O468 Fe448 2.077 . S
O468 C456 1.381 . S
O469 Fe451 1.935 . S
O469 C456 1.421 . S
C470 O457 1.381 . S
C470 O458 1.421 . S
C471 O463 1.381 . S
C471 O464 1.421 . S
C472 O473 1.381 . S
C472 O474 1.421 . S
O473 Fe451 2.077 . S
O473 C472 1.381 . S
O474 Fe455 1.935 . S
O474 C472 1.421 . S
C475 O459 1.381 . S
C475 O460 1.421 . S
O476 Fe450 2.077 . S
O476 C479 1.381 . S
O477 Fe448 1.935 . S
O477 C479 1.421 . S
C478 O466 1.381 . S
C478 O467 1.421 . S
C479 O476 1.381 . S
C479 O477 1.421 . S
Fe480 O481 1.886 . S
Fe480 O484 1.715 . S
Fe480 O489 2.077 . S
Fe480 O494 1.935 . S
Fe480 O500 2.077 . S
Fe480 O509 1.935 . S
O481 Fe480 1.886 . S
O481 Fe483 1.715 . S
Fe482 O484 1.886 . S
Fe482 O485 1.715 . S
Fe482 O492 1.935 1_556 S
Fe482 O493 2.077 1_455 S
Fe482 O499 1.935 . S
Fe482 O508 2.077 . S
Fe483 O481 1.715 . S
Fe483 O486 1.886 . S
Fe483 O490 1.935 . S
Fe483 O495 2.077 . S
Fe483 O501 1.935 . S
Fe483 O505 2.077 . S
O484 Fe480 1.715 . S
O484 Fe482 1.886 . S
O485 Fe482 1.715 . S
O485 Fe487 1.886 1_556 S
O486 Fe483 1.886 . S
O486 Fe487 1.715 1_556 S
Fe487 O485 1.886 1_554 S
Fe487 O486 1.715 1_554 S
Fe487 O491 2.077 . S
Fe487 O496 1.935 . S
Fe487 O498 2.077 . S
Fe487 O506 1.935 1_554 S
C488 O500 1.381 . S
C488 O501 1.421 . S
O489 Fe480 2.077 . S
O489 C502 1.381 . S
O490 Fe483 1.935 . S
O490 C502 1.421 . S
O491 Fe487 2.077 . S
O491 C507 1.381 . S
O492 Fe482 1.935 1_554 S
O492 C507 1.421 . S
O493 Fe482 2.077 1_655 S
O493 C497 1.381 . S
O494 Fe480 1.935 . S
O494 C497 1.421 1_455 S
O495 Fe483 2.077 . S
O495 C503 1.381 . S
O496 Fe487 1.935 . S
O496 C503 1.421 1_554 S
C497 O493 1.381 . S
C497 O494 1.421 1_655 S
O498 Fe487 2.077 . S
O498 C510 1.381 . S
O499 Fe482 1.935 . S
O499 C510 1.421 1_556 S
O500 Fe480 2.077 . S
O500 C488 1.381 . S
O501 Fe483 1.935 . S
O501 C488 1.421 . S
C502 O489 1.381 . S
C502 O490 1.421 . S
C503 O495 1.381 . S
C503 O496 1.421 1_556 S
C504 O505 1.381 . S
C504 O506 1.421 . S
O505 Fe483 2.077 . S
O505 C504 1.381 . S
O506 Fe487 1.935 1_556 S
O506 C504 1.421 . S
C507 O491 1.381 . S
C507 O492 1.421 . S
O508 Fe482 2.077 . S
O508 C511 1.381 . S
O509 Fe480 1.935 . S
O509 C511 1.421 . S
C510 O498 1.381 . S
C510 O499 1.421 1_554 S
C511 O508 1.381 . S
C511 O509 1.421 . S
Fe512 O513 1.886 . S
Fe512 O516 1.715 . S
Fe512 O521 2.077 . S
Fe512 O526 1.935 . S
Fe512 O532 2.077 . S
Fe512 O541 1.935 . S
O513 Fe512 1.886 . S
O513 Fe515 1.715 . S
Fe514 O516 1.886 . S
Fe514 O517 1.715 . S
Fe514 O524 1.935 . S
Fe514 O525 2.077 1_565 S
Fe514 O531 1.935 . S
Fe514 O540 2.077 . S
Fe515 O513 1.715 . S
Fe515 O518 1.886 . S
Fe515 O522 1.935 . S
Fe515 O527 2.077 . S
Fe515 O533 1.935 . S
Fe515 O537 2.077 . S
O516 Fe512 1.715 . S
O516 Fe514 1.886 . S
O517 Fe514 1.715 . S
O517 Fe519 1.886 . S
O518 Fe515 1.886 . S
O518 Fe519 1.715 . S
Fe519 O517 1.886 . S
Fe519 O518 1.715 . S
Fe519 O523 2.077 . S
Fe519 O528 1.935 . S
Fe519 O530 2.077 . S
Fe519 O538 1.935 . S
C520 O532 1.381 . S
C520 O533 1.421 . S
O521 Fe512 2.077 . S
O521 C534 1.381 . S
O522 Fe515 1.935 . S
O522 C534 1.421 . S
O523 Fe519 2.077 . S
O523 C539 1.381 . S
O524 Fe514 1.935 . S
O524 C539 1.421 . S
O525 Fe514 2.077 1_545 S
O525 C529 1.381 . S
O526 Fe512 1.935 . S
O526 C529 1.421 1_565 S
O527 Fe515 2.077 . S
O527 C535 1.381 . S
O528 Fe519 1.935 . S
O528 C535 1.421 . S
C529 O525 1.381 . S
C529 O526 1.421 1_545 S
O530 Fe519 2.077 . S
O530 C542 1.381 . S
O531 Fe514 1.935 . S
O531 C542 1.421 . S
O532 Fe512 2.077 . S
O532 C520 1.381 . S
O533 Fe515 1.935 . S
O533 C520 1.421 . S
C534 O521 1.381 . S
C534 O522 1.421 . S
C535 O527 1.381 . S
C535 O528 1.421 . S
C536 O537 1.381 . S
C536 O538 1.421 . S
O537 Fe515 2.077 . S
O537 C536 1.381 . S
O538 Fe519 1.935 . S
O538 C536 1.421 . S
C539 O523 1.381 . S
C539 O524 1.421 . S
O540 Fe514 2.077 . S
O540 C543 1.381 . S
O541 Fe512 1.935 . S
O541 C543 1.421 . S
C542 O530 1.381 . S
C542 O531 1.421 . S
C543 O540 1.381 . S
C543 O541 1.421 . S
Fe544 O545 1.886 . S
Fe544 O548 1.715 . S
Fe544 O553 2.077 1_655 S
Fe544 O558 1.935 . S
Fe544 O564 2.077 1_655 S
Fe544 O573 1.935 . S
O545 Fe544 1.886 . S
O545 Fe547 1.715 1_655 S
Fe546 O548 1.886 . S
Fe546 O549 1.715 . S
Fe546 O556 1.935 . S
Fe546 O557 2.077 . S
Fe546 O563 1.935 . S
Fe546 O572 2.077 1_545 S
Fe547 O545 1.715 1_455 S
Fe547 O550 1.886 1_455 S
Fe547 O554 1.935 . S
Fe547 O559 2.077 1_455 S
Fe547 O565 1.935 . S
Fe547 O569 2.077 . S
O548 Fe544 1.715 . S
O548 Fe546 1.886 . S
O549 Fe546 1.715 . S
O549 Fe551 1.886 . S
O550 Fe547 1.886 1_655 S
O550 Fe551 1.715 . S
Fe551 O549 1.886 . S
Fe551 O550 1.715 . S
Fe551 O555 2.077 . S
Fe551 O560 1.935 . S
Fe551 O562 2.077 . S
Fe551 O570 1.935 . S
C552 O564 1.381 . S
C552 O565 1.421 . S
O553 Fe544 2.077 1_455 S
O553 C566 1.381 . S
O554 Fe547 1.935 . S
O554 C566 1.421 . S
O555 Fe551 2.077 . S
O555 C571 1.381 . S
O556 Fe546 1.935 . S
O556 C571 1.421 . S
O557 Fe546 2.077 . S
O557 C561 1.381 . S
O558 Fe544 1.935 . S
O558 C561 1.421 . S
O559 Fe547 2.077 1_655 S
O559 C567 1.381 . S
O560 Fe551 1.935 . S
O560 C567 1.421 . S
C561 O557 1.381 . S
C561 O558 1.421 . S
O562 Fe551 2.077 . S
O562 C574 1.381 . S
O563 Fe546 1.935 . S
O563 C574 1.421 . S
O564 Fe544 2.077 1_455 S
O564 C552 1.381 . S
O565 Fe547 1.935 . S
O565 C552 1.421 . S
C566 O553 1.381 . S
C566 O554 1.421 . S
C567 O559 1.381 . S
C567 O560 1.421 . S
C568 O569 1.381 1_655 S
C568 O570 1.421 . S
O569 Fe547 2.077 . S
O569 C568 1.381 1_455 S
O570 Fe551 1.935 . S
O570 C568 1.421 . S
C571 O555 1.381 . S
C571 O556 1.421 . S
O572 Fe546 2.077 1_565 S
O572 C575 1.381 . S
O573 Fe544 1.935 . S
O573 C575 1.421 1_545 S
C574 O562 1.381 . S
C574 O563 1.421 . S
C575 O572 1.381 . S
C575 O573 1.421 1_565 S
Fe576 O577 1.886 . S
Fe576 O580 1.715 . S
Fe576 O585 2.077 . S
Fe576 O590 1.935 . S
Fe576 O596 2.077 . S
Fe576 O605 1.935 . S
O577 Fe576 1.886 . S
O577 Fe579 1.715 . S
Fe578 O580 1.886 . S
Fe578 O581 1.715 . S
Fe578 O588 1.935 1_455 S
Fe578 O589 2.077 . S
Fe578 O595 1.935 . S
Fe578 O604 2.077 . S
Fe579 O577 1.715 . S
Fe579 O582 1.886 . S
Fe579 O586 1.935 . S
Fe579 O591 2.077 . S
Fe579 O597 1.935 . S
Fe579 O601 2.077 . S
O580 Fe576 1.715 . S
O580 Fe578 1.886 . S
O581 Fe578 1.715 . S
O581 Fe583 1.886 1_455 S
O582 Fe579 1.886 . S
O582 Fe583 1.715 1_455 S
Fe583 O581 1.886 1_655 S
Fe583 O582 1.715 1_655 S
Fe583 O587 2.077 . S
Fe583 O592 1.935 . S
Fe583 O594 2.077 . S
Fe583 O602 1.935 1_655 S
C584 O596 1.381 . S
C584 O597 1.421 . S
O585 Fe576 2.077 . S
O585 C598 1.381 . S
O586 Fe579 1.935 . S
O586 C598 1.421 . S
O587 Fe583 2.077 . S
O587 C603 1.381 . S
O588 Fe578 1.935 1_655 S
O588 C603 1.421 . S
O589 Fe578 2.077 . S
O589 C593 1.381 . S
O590 Fe576 1.935 . S
O590 C593 1.421 . S
O591 Fe579 2.077 . S
O591 C599 1.381 . S
O592 Fe583 1.935 . S
O592 C599 1.421 1_655 S
C593 O589 1.381 . S
C593 O590 1.421 . S
O594 Fe583 2.077 . S
O594 C606 1.381 . S
O595 Fe578 1.935 . S
O595 C606 1.421 1_455 S
O596 Fe576 2.077 . S
O596 C584 1.381 . S
O597 Fe579 1.935 . S
O597 C584 1.421 . S
C598 O585 1.381 . S
C598 O586 1.421 . S
C599 O591 1.381 . S
C599 O592 1.421 1_455 S
C600 O601 1.381 . S
C600 O602 1.421 . S
O601 Fe579 2.077 . S
O601 C600 1.381 . S
O602 Fe583 1.935 1_455 S
O602 C600 1.421 . S
C603 O587 1.381 . S
C603 O588 1.421 . S
O604 Fe578 2.077 . S
O604 C607 1.381 . S
O605 Fe576 1.935 . S
O605 C607 1.421 . S
C606 O594 1.381 . S
C606 O595 1.421 1_655 S
C607 O604 1.381 . S
C607 O605 1.421 . S
Fe608 O609 1.886 . S
Fe608 O612 1.715 . S
Fe608 O617 2.077 . S
Fe608 O622 1.935 . S
Fe608 O628 2.077 . S
Fe608 O637 1.935 . S
O609 Fe608 1.886 . S
O609 Fe611 1.715 . S
Fe610 O612 1.886 . S
Fe610 O613 1.715 . S
Fe610 O620 1.935 . S
Fe610 O621 2.077 . S
Fe610 O627 1.935 . S
Fe610 O636 2.077 . S
Fe611 O609 1.715 . S
Fe611 O614 1.886 . S
Fe611 O618 1.935 . S
Fe611 O623 2.077 . S
Fe611 O629 1.935 . S
Fe611 O633 2.077 . S
O612 Fe608 1.715 . S
O612 Fe610 1.886 . S
O613 Fe610 1.715 . S
O613 Fe615 1.886 . S
O614 Fe611 1.886 . S
O614 Fe615 1.715 . S
Fe615 O613 1.886 . S
Fe615 O614 1.715 . S
Fe615 O619 2.077 . S
Fe615 O624 1.935 . S
Fe615 O626 2.077 . S
Fe615 O634 1.935 . S
C616 O628 1.381 . S
C616 O629 1.421 . S
O617 Fe608 2.077 . S
O617 C630 1.381 . S
O618 Fe611 1.935 . S
O618 C630 1.421 . S
O619 Fe615 2.077 . S
O619 C635 1.381 . S
O620 Fe610 1.935 . S
O620 C635 1.421 . S
O621 Fe610 2.077 . S
O621 C625 1.381 . S
O622 Fe608 1.935 . S
O622 C625 1.421 . S
O623 Fe611 2.077 . S
O623 C631 1.381 . S
O624 Fe615 1.935 . S
O624 C631 1.421 . S
C625 O621 1.381 . S
C625 O622 1.421 . S
O626 Fe615 2.077 . S
O626 C638 1.381 . S
O627 Fe610 1.935 . S
O627 C638 1.421 . S
O628 Fe608 2.077 . S
O628 C616 1.381 . S
O629 Fe611 1.935 . S
O629 C616 1.421 . S
C630 O617 1.381 . S
C630 O618 1.421 . S
C631 O623 1.381 . S
C631 O624 1.421 . S
C632 O633 1.381 . S
C632 O634 1.421 . S
O633 Fe611 2.077 . S
O633 C632 1.381 . S
O634 Fe615 1.935 . S
O634 C632 1.421 . S
C635 O619 1.381 . S
C635 O620 1.421 . S
O636 Fe610 2.077 . S
O636 C639 1.381 . S
O637 Fe608 1.935 . S
O637 C639 1.421 . S
C638 O626 1.381 . S
C638 O627 1.421 . S
C639 O636 1.381 . S
C639 O637 1.421 . S
Fe640 O641 1.886 . S
Fe640 O644 1.715 . S
Fe640 O649 2.077 . S
Fe640 O654 1.935 . S
Fe640 O660 2.077 . S
Fe640 O669 1.935 . S
O641 Fe640 1.886 . S
O641 Fe643 1.715 . S
Fe642 O644 1.886 . S
Fe642 O645 1.715 . S
Fe642 O652 1.935 . S
Fe642 O653 2.077 . S
Fe642 O659 1.935 . S
Fe642 O668 2.077 1_556 S
Fe643 O641 1.715 . S
Fe643 O646 1.886 . S
Fe643 O650 1.935 . S
Fe643 O655 2.077 . S
Fe643 O661 1.935 . S
Fe643 O665 2.077 . S
O644 Fe640 1.715 . S
O644 Fe642 1.886 . S
O645 Fe642 1.715 . S
O645 Fe647 1.886 . S
O646 Fe643 1.886 . S
O646 Fe647 1.715 . S
Fe647 O645 1.886 . S
Fe647 O646 1.715 . S
Fe647 O651 2.077 . S
Fe647 O656 1.935 . S
Fe647 O658 2.077 . S
Fe647 O666 1.935 . S
C648 O660 1.381 . S
C648 O661 1.421 . S
O649 Fe640 2.077 . S
O649 C662 1.381 . S
O650 Fe643 1.935 . S
O650 C662 1.421 . S
O651 Fe647 2.077 . S
O651 C667 1.381 . S
O652 Fe642 1.935 . S
O652 C667 1.421 . S
O653 Fe642 2.077 . S
O653 C657 1.381 . S
O654 Fe640 1.935 . S
O654 C657 1.421 . S
O655 Fe643 2.077 . S
O655 C663 1.381 . S
O656 Fe647 1.935 . S
O656 C663 1.421 . S
C657 O653 1.381 . S
C657 O654 1.421 . S
O658 Fe647 2.077 . S
O658 C670 1.381 . S
O659 Fe642 1.935 . S
O659 C670 1.421 . S
O660 Fe640 2.077 . S
O660 C648 1.381 . S
O661 Fe643 1.935 . S
O661 C648 1.421 . S
C662 O649 1.381 . S
C662 O650 1.421 . S
C663 O655 1.381 . S
C663 O656 1.421 . S
C664 O665 1.381 . S
C664 O666 1.421 . S
O665 Fe643 2.077 . S
O665 C664 1.381 . S
O666 Fe647 1.935 . S
O666 C664 1.421 . S
C667 O651 1.381 . S
C667 O652 1.421 . S
O668 Fe642 2.077 1_554 S
O668 C671 1.381 . S
O669 Fe640 1.935 . S
O669 C671 1.421 1_556 S
C670 O658 1.381 . S
C670 O659 1.421 . S
C671 O668 1.381 . S
C671 O669 1.421 1_554 S
Fe672 O673 1.886 . S
Fe672 O676 1.715 . S
Fe672 O681 2.077 1_565 S
Fe672 O686 1.935 . S
Fe672 O692 2.077 1_565 S
Fe672 O701 1.935 . S
O673 Fe672 1.886 . S
O673 Fe675 1.715 1_565 S
Fe674 O676 1.886 . S
Fe674 O677 1.715 . S
Fe674 O684 1.935 . S
Fe674 O685 2.077 . S
Fe674 O691 1.935 . S
Fe674 O700 2.077 1_554 S
Fe675 O673 1.715 1_545 S
Fe675 O678 1.886 1_545 S
Fe675 O682 1.935 . S
Fe675 O687 2.077 1_545 S
Fe675 O693 1.935 . S
Fe675 O697 2.077 . S
O676 Fe672 1.715 . S
O676 Fe674 1.886 . S
O677 Fe674 1.715 . S
O677 Fe679 1.886 . S
O678 Fe675 1.886 1_565 S
O678 Fe679 1.715 . S
Fe679 O677 1.886 . S
Fe679 O678 1.715 . S
Fe679 O683 2.077 . S
Fe679 O688 1.935 . S
Fe679 O690 2.077 . S
Fe679 O698 1.935 . S
C680 O692 1.381 . S
C680 O693 1.421 . S
O681 Fe672 2.077 1_545 S
O681 C694 1.381 . S
O682 Fe675 1.935 . S
O682 C694 1.421 . S
O683 Fe679 2.077 . S
O683 C699 1.381 . S
O684 Fe674 1.935 . S
O684 C699 1.421 . S
O685 Fe674 2.077 . S
O685 C689 1.381 . S
O686 Fe672 1.935 . S
O686 C689 1.421 . S
O687 Fe675 2.077 1_565 S
O687 C695 1.381 . S
O688 Fe679 1.935 . S
O688 C695 1.421 . S
C689 O685 1.381 . S
C689 O686 1.421 . S
O690 Fe679 2.077 . S
O690 C702 1.381 . S
O691 Fe674 1.935 . S
O691 C702 1.421 . S
O692 Fe672 2.077 1_545 S
O692 C680 1.381 . S
O693 Fe675 1.935 . S
O693 C680 1.421 . S
C694 O681 1.381 . S
C694 O682 1.421 . S
C695 O687 1.381 . S
C695 O688 1.421 . S
C696 O697 1.381 1_565 S
C696 O698 1.421 . S
O697 Fe675 2.077 . S
O697 C696 1.381 1_545 S
O698 Fe679 1.935 . S
O698 C696 1.421 . S
C699 O683 1.381 . S
C699 O684 1.421 . S
O700 Fe674 2.077 1_556 S
O700 C703 1.381 . S
O701 Fe672 1.935 . S
O701 C703 1.421 1_554 S
C702 O690 1.381 . S
C702 O691 1.421 . S
C703 O700 1.381 . S
C703 O701 1.421 1_556 S
Fe704 O705 1.886 . S
Fe704 O708 1.715 . S
Fe704 O713 2.077 . S
Fe704 O718 1.935 . S
Fe704 O724 2.077 . S
Fe704 O733 1.935 . S
O705 Fe704 1.886 . S
O705 Fe707 1.715 . S
Fe706 O708 1.886 . S
Fe706 O709 1.715 . S
Fe706 O716 1.935 1_545 S
Fe706 O717 2.077 . S
Fe706 O723 1.935 . S
Fe706 O732 2.077 . S
Fe707 O705 1.715 . S
Fe707 O710 1.886 . S
Fe707 O714 1.935 . S
Fe707 O719 2.077 . S
Fe707 O725 1.935 . S
Fe707 O729 2.077 . S
O708 Fe704 1.715 . S
O708 Fe706 1.886 . S
O709 Fe706 1.715 . S
O709 Fe711 1.886 1_545 S
O710 Fe707 1.886 . S
O710 Fe711 1.715 1_545 S
Fe711 O709 1.886 1_565 S
Fe711 O710 1.715 1_565 S
Fe711 O715 2.077 . S
Fe711 O720 1.935 . S
Fe711 O722 2.077 . S
Fe711 O730 1.935 1_565 S
C712 O724 1.381 . S
C712 O725 1.421 . S
O713 Fe704 2.077 . S
O713 C726 1.381 . S
O714 Fe707 1.935 . S
O714 C726 1.421 . S
O715 Fe711 2.077 . S
O715 C731 1.381 . S
O716 Fe706 1.935 1_565 S
O716 C731 1.421 . S
O717 Fe706 2.077 . S
O717 C721 1.381 . S
O718 Fe704 1.935 . S
O718 C721 1.421 . S
O719 Fe707 2.077 . S
O719 C727 1.381 . S
O720 Fe711 1.935 . S
O720 C727 1.421 1_565 S
C721 O717 1.381 . S
C721 O718 1.421 . S
O722 Fe711 2.077 . S
O722 C734 1.381 . S
O723 Fe706 1.935 . S
O723 C734 1.421 1_545 S
O724 Fe704 2.077 . S
O724 C712 1.381 . S
O725 Fe707 1.935 . S
O725 C712 1.421 . S
C726 O713 1.381 . S
C726 O714 1.421 . S
C727 O719 1.381 . S
C727 O720 1.421 1_545 S
C728 O729 1.381 . S
C728 O730 1.421 . S
O729 Fe707 2.077 . S
O729 C728 1.381 . S
O730 Fe711 1.935 1_545 S
O730 C728 1.421 . S
C731 O715 1.381 . S
C731 O716 1.421 . S
O732 Fe706 2.077 . S
O732 C735 1.381 . S
O733 Fe704 1.935 . S
O733 C735 1.421 . S
C734 O722 1.381 . S
C734 O723 1.421 1_565 S
C735 O732 1.381 . S
C735 O733 1.421 . S
Fe736 O737 1.886 . S
Fe736 O740 1.715 . S
Fe736 O745 2.077 . S
Fe736 O750 1.935 . S
Fe736 O756 2.077 . S
Fe736 O765 1.935 . S
O737 Fe736 1.886 . S
O737 Fe739 1.715 . S
Fe738 O740 1.886 . S
Fe738 O741 1.715 . S
Fe738 O748 1.935 . S
Fe738 O749 2.077 . S
Fe738 O755 1.935 . S
Fe738 O764 2.077 . S
Fe739 O737 1.715 . S
Fe739 O742 1.886 . S
Fe739 O746 1.935 . S
Fe739 O751 2.077 . S
Fe739 O757 1.935 . S
Fe739 O761 2.077 . S
O740 Fe736 1.715 . S
O740 Fe738 1.886 . S
O741 Fe738 1.715 . S
O741 Fe743 1.886 . S
O742 Fe739 1.886 . S
O742 Fe743 1.715 . S
Fe743 O741 1.886 . S
Fe743 O742 1.715 . S
Fe743 O747 2.077 . S
Fe743 O752 1.935 . S
Fe743 O754 2.077 . S
Fe743 O762 1.935 . S
C744 O756 1.381 . S
C744 O757 1.421 . S
O745 Fe736 2.077 . S
O745 C758 1.381 . S
O746 Fe739 1.935 . S
O746 C758 1.421 . S
O747 Fe743 2.077 . S
O747 C763 1.381 . S
O748 Fe738 1.935 . S
O748 C763 1.421 . S
O749 Fe738 2.077 . S
O749 C753 1.381 . S
O750 Fe736 1.935 . S
O750 C753 1.421 . S
O751 Fe739 2.077 . S
O751 C759 1.381 . S
O752 Fe743 1.935 . S
O752 C759 1.421 . S
C753 O749 1.381 . S
C753 O750 1.421 . S
O754 Fe743 2.077 . S
O754 C766 1.381 . S
O755 Fe738 1.935 . S
O755 C766 1.421 . S
O756 Fe736 2.077 . S
O756 C744 1.381 . S
O757 Fe739 1.935 . S
O757 C744 1.421 . S
C758 O745 1.381 . S
C758 O746 1.421 . S
C759 O751 1.381 . S
C759 O752 1.421 . S
C760 O761 1.381 . S
C760 O762 1.421 . S
O761 Fe739 2.077 . S
O761 C760 1.381 . S
O762 Fe743 1.935 . S
O762 C760 1.421 . S
C763 O747 1.381 . S
C763 O748 1.421 . S
O764 Fe738 2.077 . S
O764 C767 1.381 . S
O765 Fe736 1.935 . S
O765 C767 1.421 . S
C766 O754 1.381 . S
C766 O755 1.421 . S
C767 O764 1.381 . S
C767 O765 1.421 . S
C593 C22 0.701 . S
C59 C631 0.701 . S
C529 C86 0.701 . S
C123 C575 0.657 . S
C721 C159 0.697 . S
C703 C187 0.657 . S
C760 C214 0.657 . S
C671 C251 0.657 . S
C264 C440 0.641 . S
C497 C318 0.697 . S
C328 C472 0.641 . S
C401 C379 0.701 . S
C200 C415 0.701 . S
C254 C439 0.697 . S
C145 C471 0.641 . S
C511 C190 0.701 . S
C342 C543 0.657 . S
C561 C315 0.641 . S
C382 C607 0.701 . S
C278 C632 0.657 . S
C657 C62 0.697 . S
C126 C689 0.697 . S
C735 C72 0.701 . S
C759 C8 0.697 . S
C286 C23 3.838 . S
C49 C374 3.979 . S
C87 C296 3.838 . S
C113 C350 3.838 . S
C158 C27 3.942 . S
C177 C54 3.979 . S
C91 C215 3.979 . S
C241 C118 3.979 . S
C152 C287 3.802 . S
C312 C219 3.942 . S
C246 C351 3.942 . S
C182 C369 3.979 . S
C663 C392 3.838 . S
C438 C753 3.802 . S
C695 C470 3.802 . S
C488 C728 3.979 . S
C408 C520 3.979 . S
C433 C571 3.802 . S
C584 C465 3.838 . S
C504 C638 3.979 . S
C536 C667 3.942 . S
C699 C600 3.942 . S
C712 C639 3.979 . S
C758 C567 3.802 . S
C17 C376 1.122 . S
C279 C55 1.202 . S
C81 C343 1.202 . S
C119 C305 1.202 . S
C95 C136 1.133 . S
C120 C183 1.122 . S
C31 C209 1.122 . S
C247 C56 1.122 . S
C248 C280 1.133 . S
C319 C184 1.133 . S
C150 C344 1.198 . S
C375 C223 1.122 . S
C766 C414 1.202 . S
C648 C443 1.198 . S
C731 C475 1.133 . S
C680 C510 1.202 . S
C542 C478 1.202 . S
C566 C507 1.133 . S
C606 C411 1.122 . S
C616 C446 1.202 . S
C630 C662 1.133 . S
C552 C694 1.198 . S
C539 C734 1.122 . S
C603 C763 1.133 . S
C726 C30 2.363 . S
C702 C40 2.333 1_554 S
C94 C744 2.333 . S
C670 C104 2.333 1_556 S
C151 C424 2.459 . S
C406 C168 2.363 1_655 S
C222 C502 2.363 1_655 S
C232 C456 2.333 . S
C598 C283 2.491 . S
C534 C310 2.491 1_565 S
C347 C574 2.459 1_565 S
C360 C635 2.363 . S
C407 C337 2.333 . S
C447 C311 2.459 1_554 S
C383 C479 2.491 . S
C273 C503 2.333 1_554 S
C535 C63 2.363 . S
C568 C24 2.491 1_655 S
C599 C127 2.363 1_455 S
C625 C88 2.363 . S
C664 C216 2.491 . S
C696 C155 2.459 1_565 S
C727 C191 2.363 1_545 S
C255 C767 2.491 . S
