# Generated by pormake.
# Topology lcs-e, (6)-cn, num edge types: 1
# Building blocks:
#     Node 0, Type 0, BuildingBlock: KUMJIN_clean_sbu_0, # of connection points: 6
#     Node 1, Type 0, BuildingBlock: KUMJIN_clean_sbu_0, # of connection points: 6
#     Node 2, Type 0, BuildingBlock: KUMJIN_clean_sbu_0, # of connection points: 6
#     Node 3, Type 0, BuildingBlock: KUMJIN_clean_sbu_0, # of connection points: 6
#     Node 4, Type 0, BuildingBlock: KUMJIN_clean_sbu_0, # of connection points: 6
#     Node 5, Type 0, BuildingBlock: KUMJIN_clean_sbu_0, # of connection points: 6
#     Node 6, Type 0, BuildingBlock: KUMJIN_clean_sbu_0, # of connection points: 6
#     Node 7, Type 0, BuildingBlock: KUMJIN_clean_sbu_0, # of connection points: 6
#     Node 8, Type 0, BuildingBlock: KUMJIN_clean_sbu_0, # of connection points: 6
#     Node 9, Type 0, BuildingBlock: KUMJIN_clean_sbu_0, # of connection points: 6
#     Node 10, Type 0, BuildingBlock: KUMJIN_clean_sbu_0, # of connection points: 6
#     Node 11, Type 0, BuildingBlock: KUMJIN_clean_sbu_0, # of connection points: 6
#     Node 12, Type 0, BuildingBlock: KUMJIN_clean_sbu_0, # of connection points: 6
#     Node 13, Type 0, BuildingBlock: KUMJIN_clean_sbu_0, # of connection points: 6
#     Node 14, Type 0, BuildingBlock: KUMJIN_clean_sbu_0, # of connection points: 6
#     Node 15, Type 0, BuildingBlock: KUMJIN_clean_sbu_0, # of connection points: 6
#     Node 16, Type 0, BuildingBlock: KUMJIN_clean_sbu_0, # of connection points: 6
#     Node 17, Type 0, BuildingBlock: KUMJIN_clean_sbu_0, # of connection points: 6
#     Node 18, Type 0, BuildingBlock: KUMJIN_clean_sbu_0, # of connection points: 6
#     Node 19, Type 0, BuildingBlock: KUMJIN_clean_sbu_0, # of connection points: 6
#     Node 20, Type 0, BuildingBlock: KUMJIN_clean_sbu_0, # of connection points: 6
#     Node 21, Type 0, BuildingBlock: KUMJIN_clean_sbu_0, # of connection points: 6
#     Node 22, Type 0, BuildingBlock: KUMJIN_clean_sbu_0, # of connection points: 6
#     Node 23, Type 0, BuildingBlock: KUMJIN_clean_sbu_0, # of connection points: 6
#     Node 24, Type 0, BuildingBlock: KUMJIN_clean_sbu_0, # of connection points: 6
#     Node 25, Type 0, BuildingBlock: KUMJIN_clean_sbu_0, # of connection points: 6
#     Node 26, Type 0, BuildingBlock: KUMJIN_clean_sbu_0, # of connection points: 6
#     Node 27, Type 0, BuildingBlock: KUMJIN_clean_sbu_0, # of connection points: 6
#     Node 28, Type 0, BuildingBlock: KUMJIN_clean_sbu_0, # of connection points: 6
#     Node 29, Type 0, BuildingBlock: KUMJIN_clean_sbu_0, # of connection points: 6
#     Node 30, Type 0, BuildingBlock: KUMJIN_clean_sbu_0, # of connection points: 6
#     Node 31, Type 0, BuildingBlock: KUMJIN_clean_sbu_0, # of connection points: 6
#     Node 32, Type 0, BuildingBlock: KUMJIN_clean_sbu_0, # of connection points: 6
#     Node 33, Type 0, BuildingBlock: KUMJIN_clean_sbu_0, # of connection points: 6
#     Node 34, Type 0, BuildingBlock: KUMJIN_clean_sbu_0, # of connection points: 6
#     Node 35, Type 0, BuildingBlock: KUMJIN_clean_sbu_0, # of connection points: 6
#     Node 36, Type 0, BuildingBlock: KUMJIN_clean_sbu_0, # of connection points: 6
#     Node 37, Type 0, BuildingBlock: KUMJIN_clean_sbu_0, # of connection points: 6
#     Node 38, Type 0, BuildingBlock: KUMJIN_clean_sbu_0, # of connection points: 6
#     Node 39, Type 0, BuildingBlock: KUMJIN_clean_sbu_0, # of connection points: 6
#     Node 40, Type 0, BuildingBlock: KUMJIN_clean_sbu_0, # of connection points: 6
#     Node 41, Type 0, BuildingBlock: KUMJIN_clean_sbu_0, # of connection points: 6
#     Node 42, Type 0, BuildingBlock: KUMJIN_clean_sbu_0, # of connection points: 6
#     Node 43, Type 0, BuildingBlock: KUMJIN_clean_sbu_0, # of connection points: 6
#     Node 44, Type 0, BuildingBlock: KUMJIN_clean_sbu_0, # of connection points: 6
#     Node 45, Type 0, BuildingBlock: KUMJIN_clean_sbu_0, # of connection points: 6
#     Node 46, Type 0, BuildingBlock: KUMJIN_clean_sbu_0, # of connection points: 6
#     Node 47, Type 0, BuildingBlock: KUMJIN_clean_sbu_0, # of connection points: 6
#     Edge 48, Type (0, 0), BuildingBlock: KIFKEQ_clean_linker_1, # of connection points: 2
#     Edge 49, Type (0, 0), BuildingBlock: KIFKEQ_clean_linker_1, # of connection points: 2
#     Edge 50, Type (0, 0), BuildingBlock: KIFKEQ_clean_linker_1, # of connection points: 2
#     Edge 51, Type (0, 0), BuildingBlock: KIFKEQ_clean_linker_1, # of connection points: 2
#     Edge 52, Type (0, 0), BuildingBlock: KIFKEQ_clean_linker_1, # of connection points: 2
#     Edge 53, Type (0, 0), BuildingBlock: KIFKEQ_clean_linker_1, # of connection points: 2
#     Edge 54, Type (0, 0), BuildingBlock: KIFKEQ_clean_linker_1, # of connection points: 2
#     Edge 55, Type (0, 0), BuildingBlock: KIFKEQ_clean_linker_1, # of connection points: 2
#     Edge 56, Type (0, 0), BuildingBlock: KIFKEQ_clean_linker_1, # of connection points: 2
#     Edge 57, Type (0, 0), BuildingBlock: KIFKEQ_clean_linker_1, # of connection points: 2
#     Edge 58, Type (0, 0), BuildingBlock: KIFKEQ_clean_linker_1, # of connection points: 2
#     Edge 59, Type (0, 0), BuildingBlock: KIFKEQ_clean_linker_1, # of connection points: 2
#     Edge 60, Type (0, 0), BuildingBlock: KIFKEQ_clean_linker_1, # of connection points: 2
#     Edge 61, Type (0, 0), BuildingBlock: KIFKEQ_clean_linker_1, # of connection points: 2
#     Edge 62, Type (0, 0), BuildingBlock: KIFKEQ_clean_linker_1, # of connection points: 2
#     Edge 63, Type (0, 0), BuildingBlock: KIFKEQ_clean_linker_1, # of connection points: 2
#     Edge 64, Type (0, 0), BuildingBlock: KIFKEQ_clean_linker_1, # of connection points: 2
#     Edge 65, Type (0, 0), BuildingBlock: KIFKEQ_clean_linker_1, # of connection points: 2
#     Edge 66, Type (0, 0), BuildingBlock: KIFKEQ_clean_linker_1, # of connection points: 2
#     Edge 67, Type (0, 0), BuildingBlock: KIFKEQ_clean_linker_1, # of connection points: 2
#     Edge 68, Type (0, 0), BuildingBlock: KIFKEQ_clean_linker_1, # of connection points: 2
#     Edge 69, Type (0, 0), BuildingBlock: KIFKEQ_clean_linker_1, # of connection points: 2
#     Edge 70, Type (0, 0), BuildingBlock: KIFKEQ_clean_linker_1, # of connection points: 2
#     Edge 71, Type (0, 0), BuildingBlock: KIFKEQ_clean_linker_1, # of connection points: 2
#     Edge 72, Type (0, 0), BuildingBlock: KIFKEQ_clean_linker_1, # of connection points: 2
#     Edge 73, Type (0, 0), BuildingBlock: KIFKEQ_clean_linker_1, # of connection points: 2
#     Edge 74, Type (0, 0), BuildingBlock: KIFKEQ_clean_linker_1, # of connection points: 2
#     Edge 75, Type (0, 0), BuildingBlock: KIFKEQ_clean_linker_1, # of connection points: 2
#     Edge 76, Type (0, 0), BuildingBlock: KIFKEQ_clean_linker_1, # of connection points: 2
#     Edge 77, Type (0, 0), BuildingBlock: KIFKEQ_clean_linker_1, # of connection points: 2
#     Edge 78, Type (0, 0), BuildingBlock: KIFKEQ_clean_linker_1, # of connection points: 2
#     Edge 79, Type (0, 0), BuildingBlock: KIFKEQ_clean_linker_1, # of connection points: 2
#     Edge 80, Type (0, 0), BuildingBlock: KIFKEQ_clean_linker_1, # of connection points: 2
#     Edge 81, Type (0, 0), BuildingBlock: KIFKEQ_clean_linker_1, # of connection points: 2
#     Edge 82, Type (0, 0), BuildingBlock: KIFKEQ_clean_linker_1, # of connection points: 2
#     Edge 83, Type (0, 0), BuildingBlock: KIFKEQ_clean_linker_1, # of connection points: 2
#     Edge 84, Type (0, 0), BuildingBlock: KIFKEQ_clean_linker_1, # of connection points: 2
#     Edge 85, Type (0, 0), BuildingBlock: KIFKEQ_clean_linker_1, # of connection points: 2
#     Edge 86, Type (0, 0), BuildingBlock: KIFKEQ_clean_linker_1, # of connection points: 2
#     Edge 87, Type (0, 0), BuildingBlock: KIFKEQ_clean_linker_1, # of connection points: 2
#     Edge 88, Type (0, 0), BuildingBlock: KIFKEQ_clean_linker_1, # of connection points: 2
#     Edge 89, Type (0, 0), BuildingBlock: KIFKEQ_clean_linker_1, # of connection points: 2
#     Edge 90, Type (0, 0), BuildingBlock: KIFKEQ_clean_linker_1, # of connection points: 2
#     Edge 91, Type (0, 0), BuildingBlock: KIFKEQ_clean_linker_1, # of connection points: 2
#     Edge 92, Type (0, 0), BuildingBlock: KIFKEQ_clean_linker_1, # of connection points: 2
#     Edge 93, Type (0, 0), BuildingBlock: KIFKEQ_clean_linker_1, # of connection points: 2
#     Edge 94, Type (0, 0), BuildingBlock: KIFKEQ_clean_linker_1, # of connection points: 2
#     Edge 95, Type (0, 0), BuildingBlock: KIFKEQ_clean_linker_1, # of connection points: 2
#     Edge 96, Type (0, 0), BuildingBlock: KIFKEQ_clean_linker_1, # of connection points: 2
#     Edge 97, Type (0, 0), BuildingBlock: KIFKEQ_clean_linker_1, # of connection points: 2
#     Edge 98, Type (0, 0), BuildingBlock: KIFKEQ_clean_linker_1, # of connection points: 2
#     Edge 99, Type (0, 0), BuildingBlock: KIFKEQ_clean_linker_1, # of connection points: 2
#     Edge 100, Type (0, 0), BuildingBlock: KIFKEQ_clean_linker_1, # of connection points: 2
#     Edge 101, Type (0, 0), BuildingBlock: KIFKEQ_clean_linker_1, # of connection points: 2
#     Edge 102, Type (0, 0), BuildingBlock: KIFKEQ_clean_linker_1, # of connection points: 2
#     Edge 103, Type (0, 0), BuildingBlock: KIFKEQ_clean_linker_1, # of connection points: 2
#     Edge 104, Type (0, 0), BuildingBlock: KIFKEQ_clean_linker_1, # of connection points: 2
#     Edge 105, Type (0, 0), BuildingBlock: KIFKEQ_clean_linker_1, # of connection points: 2
#     Edge 106, Type (0, 0), BuildingBlock: KIFKEQ_clean_linker_1, # of connection points: 2
#     Edge 107, Type (0, 0), BuildingBlock: KIFKEQ_clean_linker_1, # of connection points: 2
#     Edge 108, Type (0, 0), BuildingBlock: KIFKEQ_clean_linker_1, # of connection points: 2
#     Edge 109, Type (0, 0), BuildingBlock: KIFKEQ_clean_linker_1, # of connection points: 2
#     Edge 110, Type (0, 0), BuildingBlock: KIFKEQ_clean_linker_1, # of connection points: 2
#     Edge 111, Type (0, 0), BuildingBlock: KIFKEQ_clean_linker_1, # of connection points: 2
#     Edge 112, Type (0, 0), BuildingBlock: KIFKEQ_clean_linker_1, # of connection points: 2
#     Edge 113, Type (0, 0), BuildingBlock: KIFKEQ_clean_linker_1, # of connection points: 2
#     Edge 114, Type (0, 0), BuildingBlock: KIFKEQ_clean_linker_1, # of connection points: 2
#     Edge 115, Type (0, 0), BuildingBlock: KIFKEQ_clean_linker_1, # of connection points: 2
#     Edge 116, Type (0, 0), BuildingBlock: KIFKEQ_clean_linker_1, # of connection points: 2
#     Edge 117, Type (0, 0), BuildingBlock: KIFKEQ_clean_linker_1, # of connection points: 2
#     Edge 118, Type (0, 0), BuildingBlock: KIFKEQ_clean_linker_1, # of connection points: 2
#     Edge 119, Type (0, 0), BuildingBlock: KIFKEQ_clean_linker_1, # of connection points: 2
#     Edge 120, Type (0, 0), BuildingBlock: KIFKEQ_clean_linker_1, # of connection points: 2
#     Edge 121, Type (0, 0), BuildingBlock: KIFKEQ_clean_linker_1, # of connection points: 2
#     Edge 122, Type (0, 0), BuildingBlock: KIFKEQ_clean_linker_1, # of connection points: 2
#     Edge 123, Type (0, 0), BuildingBlock: KIFKEQ_clean_linker_1, # of connection points: 2
#     Edge 124, Type (0, 0), BuildingBlock: KIFKEQ_clean_linker_1, # of connection points: 2
#     Edge 125, Type (0, 0), BuildingBlock: KIFKEQ_clean_linker_1, # of connection points: 2
#     Edge 126, Type (0, 0), BuildingBlock: KIFKEQ_clean_linker_1, # of connection points: 2
#     Edge 127, Type (0, 0), BuildingBlock: KIFKEQ_clean_linker_1, # of connection points: 2
#     Edge 128, Type (0, 0), BuildingBlock: KIFKEQ_clean_linker_1, # of connection points: 2
#     Edge 129, Type (0, 0), BuildingBlock: KIFKEQ_clean_linker_1, # of connection points: 2
#     Edge 130, Type (0, 0), BuildingBlock: KIFKEQ_clean_linker_1, # of connection points: 2
#     Edge 131, Type (0, 0), BuildingBlock: KIFKEQ_clean_linker_1, # of connection points: 2
#     Edge 132, Type (0, 0), BuildingBlock: KIFKEQ_clean_linker_1, # of connection points: 2
#     Edge 133, Type (0, 0), BuildingBlock: KIFKEQ_clean_linker_1, # of connection points: 2
#     Edge 134, Type (0, 0), BuildingBlock: KIFKEQ_clean_linker_1, # of connection points: 2
#     Edge 135, Type (0, 0), BuildingBlock: KIFKEQ_clean_linker_1, # of connection points: 2
#     Edge 136, Type (0, 0), BuildingBlock: KIFKEQ_clean_linker_1, # of connection points: 2
#     Edge 137, Type (0, 0), BuildingBlock: KIFKEQ_clean_linker_1, # of connection points: 2
#     Edge 138, Type (0, 0), BuildingBlock: KIFKEQ_clean_linker_1, # of connection points: 2
#     Edge 139, Type (0, 0), BuildingBlock: KIFKEQ_clean_linker_1, # of connection points: 2
#     Edge 140, Type (0, 0), BuildingBlock: KIFKEQ_clean_linker_1, # of connection points: 2
#     Edge 141, Type (0, 0), BuildingBlock: KIFKEQ_clean_linker_1, # of connection points: 2
#     Edge 142, Type (0, 0), BuildingBlock: KIFKEQ_clean_linker_1, # of connection points: 2
#     Edge 143, Type (0, 0), BuildingBlock: KIFKEQ_clean_linker_1, # of connection points: 2
#     Edge 144, Type (0, 0), BuildingBlock: KIFKEQ_clean_linker_1, # of connection points: 2
#     Edge 145, Type (0, 0), BuildingBlock: KIFKEQ_clean_linker_1, # of connection points: 2
#     Edge 146, Type (0, 0), BuildingBlock: KIFKEQ_clean_linker_1, # of connection points: 2
#     Edge 147, Type (0, 0), BuildingBlock: KIFKEQ_clean_linker_1, # of connection points: 2
#     Edge 148, Type (0, 0), BuildingBlock: KIFKEQ_clean_linker_1, # of connection points: 2
#     Edge 149, Type (0, 0), BuildingBlock: KIFKEQ_clean_linker_1, # of connection points: 2
#     Edge 150, Type (0, 0), BuildingBlock: KIFKEQ_clean_linker_1, # of connection points: 2
#     Edge 151, Type (0, 0), BuildingBlock: KIFKEQ_clean_linker_1, # of connection points: 2
#     Edge 152, Type (0, 0), BuildingBlock: KIFKEQ_clean_linker_1, # of connection points: 2
#     Edge 153, Type (0, 0), BuildingBlock: KIFKEQ_clean_linker_1, # of connection points: 2
#     Edge 154, Type (0, 0), BuildingBlock: KIFKEQ_clean_linker_1, # of connection points: 2
#     Edge 155, Type (0, 0), BuildingBlock: KIFKEQ_clean_linker_1, # of connection points: 2
#     Edge 156, Type (0, 0), BuildingBlock: KIFKEQ_clean_linker_1, # of connection points: 2
#     Edge 157, Type (0, 0), BuildingBlock: KIFKEQ_clean_linker_1, # of connection points: 2
#     Edge 158, Type (0, 0), BuildingBlock: KIFKEQ_clean_linker_1, # of connection points: 2
#     Edge 159, Type (0, 0), BuildingBlock: KIFKEQ_clean_linker_1, # of connection points: 2
#     Edge 160, Type (0, 0), BuildingBlock: KIFKEQ_clean_linker_1, # of connection points: 2
#     Edge 161, Type (0, 0), BuildingBlock: KIFKEQ_clean_linker_1, # of connection points: 2
#     Edge 162, Type (0, 0), BuildingBlock: KIFKEQ_clean_linker_1, # of connection points: 2
#     Edge 163, Type (0, 0), BuildingBlock: KIFKEQ_clean_linker_1, # of connection points: 2
#     Edge 164, Type (0, 0), BuildingBlock: KIFKEQ_clean_linker_1, # of connection points: 2
#     Edge 165, Type (0, 0), BuildingBlock: KIFKEQ_clean_linker_1, # of connection points: 2
#     Edge 166, Type (0, 0), BuildingBlock: KIFKEQ_clean_linker_1, # of connection points: 2
#     Edge 167, Type (0, 0), BuildingBlock: KIFKEQ_clean_linker_1, # of connection points: 2
#     Edge 168, Type (0, 0), BuildingBlock: KIFKEQ_clean_linker_1, # of connection points: 2
#     Edge 169, Type (0, 0), BuildingBlock: KIFKEQ_clean_linker_1, # of connection points: 2
#     Edge 170, Type (0, 0), BuildingBlock: KIFKEQ_clean_linker_1, # of connection points: 2
#     Edge 171, Type (0, 0), BuildingBlock: KIFKEQ_clean_linker_1, # of connection points: 2
#     Edge 172, Type (0, 0), BuildingBlock: KIFKEQ_clean_linker_1, # of connection points: 2
#     Edge 173, Type (0, 0), BuildingBlock: KIFKEQ_clean_linker_1, # of connection points: 2
#     Edge 174, Type (0, 0), BuildingBlock: KIFKEQ_clean_linker_1, # of connection points: 2
#     Edge 175, Type (0, 0), BuildingBlock: KIFKEQ_clean_linker_1, # of connection points: 2
#     Edge 176, Type (0, 0), BuildingBlock: KIFKEQ_clean_linker_1, # of connection points: 2
#     Edge 177, Type (0, 0), BuildingBlock: KIFKEQ_clean_linker_1, # of connection points: 2
#     Edge 178, Type (0, 0), BuildingBlock: KIFKEQ_clean_linker_1, # of connection points: 2
#     Edge 179, Type (0, 0), BuildingBlock: KIFKEQ_clean_linker_1, # of connection points: 2
#     Edge 180, Type (0, 0), BuildingBlock: KIFKEQ_clean_linker_1, # of connection points: 2
#     Edge 181, Type (0, 0), BuildingBlock: KIFKEQ_clean_linker_1, # of connection points: 2
#     Edge 182, Type (0, 0), BuildingBlock: KIFKEQ_clean_linker_1, # of connection points: 2
#     Edge 183, Type (0, 0), BuildingBlock: KIFKEQ_clean_linker_1, # of connection points: 2
#     Edge 184, Type (0, 0), BuildingBlock: KIFKEQ_clean_linker_1, # of connection points: 2
#     Edge 185, Type (0, 0), BuildingBlock: KIFKEQ_clean_linker_1, # of connection points: 2
#     Edge 186, Type (0, 0), BuildingBlock: KIFKEQ_clean_linker_1, # of connection points: 2
#     Edge 187, Type (0, 0), BuildingBlock: KIFKEQ_clean_linker_1, # of connection points: 2
#     Edge 188, Type (0, 0), BuildingBlock: KIFKEQ_clean_linker_1, # of connection points: 2
#     Edge 189, Type (0, 0), BuildingBlock: KIFKEQ_clean_linker_1, # of connection points: 2
#     Edge 190, Type (0, 0), BuildingBlock: KIFKEQ_clean_linker_1, # of connection points: 2
#     Edge 191, Type (0, 0), BuildingBlock: KIFKEQ_clean_linker_1, # of connection points: 2
# Relax obj value: 0.209
# Max RMSD: 0.192
# Mean RMSD: 0.189
data_MOF--net-lcs-e--node1-KUMJIN_clean_sbu_0--edge1-KIFKEQ_clean_linker_1
_symmetry_space_group_name_H-M    P1
_symmetry_Int_Tables_number       1
_symmetry_cell_setting            triclinic
loop_
_symmetry_equiv_pos_as_xyz
'x, y, z'
_cell_length_a     67.510065
_cell_length_b     67.429731
_cell_length_c     67.778152
_cell_angle_alpha  89.879519
_cell_angle_beta   90.213253
_cell_angle_gamma 90.24165
loop_
_atom_site_label
_atom_site_type_symbol
_atom_site_fract_x
_atom_site_fract_y
_atom_site_fract_z
_atom_type_partial_charge
Eu0 Eu 0.02193 0.40008 0.30522 0.0
C1 C 0.08499 0.3577 0.25882 0.0
C2 C 0.11397 0.35666 0.28022 0.0
C3 C 0.11012 0.33217 0.25438 0.0
C4 C 0.096 0.36591 0.27437 0.0
C5 C 0.09218 0.34086 0.24868 0.0
C6 C 0.12095 0.34002 0.27007 0.0
C7 C 0.06362 0.34224 0.22726 0.0
N8 N 0.06731 0.36588 0.2536 0.0
C9 C 0.05698 0.35877 0.23758 0.0
C10 C 0.08119 0.33313 0.23293 0.0
Eu11 Eu 0.05786 0.39478 0.27118 0.0
N12 N 0.08866 0.38176 0.28466 0.0
C13 C 0.09825 0.3875 0.30177 0.0
C14 C 0.12416 0.36372 0.2967 0.0
C15 C 0.1161 0.37898 0.30765 0.0
H16 H 0.04313 0.3655 0.23321 0.0
H17 H 0.12339 0.3839 0.32104 0.0
H18 H 0.13462 0.33287 0.27448 0.0
H19 H 0.0551 0.33646 0.21497 0.0
H20 H 0.09229 0.39792 0.31202 0.0
H21 H 0.97644 0.39301 0.23931 0.0
H22 H 0.13785 0.35693 0.3016 0.0
H23 H 0.02504 0.43716 0.33887 0.0
H24 H 1.00221 0.38288 0.26351 0.0
H25 H 1.01001 0.46982 0.34448 0.0
H26 H 0.11571 0.31923 0.24679 0.0
H27 H 0.95891 0.42489 0.24355 0.0
H28 H 0.95401 0.45608 0.26319 0.0
H29 H 0.08625 0.32022 0.22493 0.0
H30 H 0.96332 0.47696 0.29149 0.0
N31 N 0.9992 0.4089 0.28068 0.0
C32 C 0.99462 0.39684 0.26525 0.0
C33 C 0.97019 0.42055 0.2541 0.0
C34 C 0.97494 0.43276 0.27015 0.0
C35 C 0.98008 0.40254 0.25164 0.0
C36 C 0.98973 0.42645 0.28343 0.0
H37 H 0.98442 0.48242 0.32154 0.0
N38 N 1.00938 0.43193 0.31195 0.0
C39 C 1.00579 0.46121 0.33167 0.0
C40 C 0.99502 0.4383 0.29944 0.0
C41 C 1.01452 0.44281 0.32821 0.0
C42 C 0.99127 0.4682 0.31874 0.0
C43 C 0.98555 0.45665 0.30253 0.0
O44 O 1.01546 0.39847 0.33622 0.0
O45 O 0.04584 0.38051 0.29741 0.0
O46 O 0.04155 0.36163 0.2727 0.0
O47 O 1.01787 0.36438 0.29641 0.0
O48 O 0.04724 0.39273 0.32527 0.0
O49 O 0.99385 0.38679 0.31533 0.0
O50 O 0.04983 0.40099 0.23985 0.0
O51 O 0.03199 0.41775 0.27751 0.0
O52 O 0.04682 0.42121 0.31574 0.0
O53 O 0.07199 0.41568 0.29282 0.0
O54 O 0.05848 0.42958 0.26989 0.0
O55 O 0.08099 0.4008 0.25104 0.0
C56 C 0.05438 0.37916 0.314 0.0
C57 C 0.98377 0.39323 0.34857 0.0
C58 C 0.96844 0.38095 0.37825 0.0
C59 C 0.97873 0.37743 0.36089 0.0
C60 C 0.96271 0.40027 0.3832 0.0
C61 C 0.97793 0.41259 0.35333 0.0
C62 C 0.96736 0.41605 0.37066 0.0
C63 C 0.02752 0.35207 0.28364 0.0
C64 C 0.99871 0.38932 0.3338 0.0
C65 C 0.97072 0.4629 0.28937 0.0
C66 C 0.96542 0.45099 0.27325 0.0
C67 C 0.0408 0.43542 0.27462 0.0
C68 C 0.07773 0.40921 0.21731 0.0
C69 C 0.0953 0.42045 0.21786 0.0
C70 C 0.10613 0.42397 0.20066 0.0
C71 C 0.09912 0.41627 0.18268 0.0
C72 C 0.07084 0.40164 0.19933 0.0
C73 C 0.08156 0.40518 0.18205 0.0
C74 C 0.0649 0.42455 0.30873 0.0
C75 C 0.06896 0.40281 0.23599 0.0
H76 H 0.98368 0.36252 0.35751 0.0
H77 H 0.95484 0.4031 0.3968 0.0
H78 H 0.98204 0.42498 0.34409 0.0
H79 H 0.96317 0.431 0.37459 0.0
H80 H 0.10073 0.4263 0.23177 0.0
H81 H 0.10736 0.41861 0.16918 0.0
H82 H 0.05769 0.39238 0.19878 0.0
H83 H 0.07644 0.39903 0.1682 0.0
Eu84 Eu 0.88562 0.76641 0.55613 0.0
C85 C 0.93199 0.82817 0.51827 0.0
C86 C 0.93258 0.85503 0.54214 0.0
C87 C 0.9614 0.84902 0.52185 0.0
C88 C 0.92238 0.83913 0.53287 0.0
C89 C 0.95112 0.83392 0.51192 0.0
C90 C 0.95226 0.85933 0.53711 0.0
C91 C 0.94831 0.81042 0.48525 0.0
N92 N 0.92232 0.81281 0.50936 0.0
C93 C 0.92961 0.80495 0.49212 0.0
C94 C 0.95931 0.82464 0.49543 0.0
Eu95 Eu 0.89048 0.80507 0.52249 0.0
N96 N 0.90291 0.83532 0.53703 0.0
C97 C 0.8927 0.84842 0.54871 0.0
C98 C 0.92257 0.86675 0.55574 0.0
C99 C 0.90246 0.86373 0.55864 0.0
H100 H 0.92149 0.79351 0.48438 0.0
H101 H 0.89434 0.87343 0.56835 0.0
H102 H 0.96026 0.87127 0.54432 0.0
H103 H 0.95431 0.80354 0.47217 0.0
H104 H 0.87695 0.84787 0.55059 0.0
H105 H 0.89917 0.72854 0.48598 0.0
H106 H 0.92998 0.87884 0.56331 0.0
H107 H 0.84347 0.76813 0.58327 0.0
H108 H 0.90637 0.75214 0.51264 0.0
H109 H 0.81198 0.75025 0.58534 0.0
H110 H 0.97627 0.85318 0.51749 0.0
H111 H 0.86819 0.70889 0.48642 0.0
H112 H 0.83594 0.70087 0.50277 0.0
H113 H 0.97389 0.82872 0.49014 0.0
H114 H 0.81229 0.70686 0.52955 0.0
N115 N 0.88015 0.74552 0.52866 0.0
C116 C 0.89301 0.74348 0.51335 0.0
C117 C 0.87133 0.71916 0.49831 0.0
C118 C 0.85784 0.72181 0.51366 0.0
C119 C 0.88886 0.73021 0.49804 0.0
C120 C 0.86258 0.73543 0.52874 0.0
H121 H 0.80323 0.72514 0.56027 0.0
N122 N 0.85325 0.75306 0.55732 0.0
C123 C 0.82217 0.747 0.57349 0.0
C124 C 0.84889 0.73916 0.54357 0.0
C125 C 0.84018 0.75712 0.57218 0.0
C126 C 0.81731 0.73285 0.55933 0.0
C127 C 0.83063 0.72887 0.54406 0.0
O128 O 0.87876 0.76477 0.58717 0.0
O129 O 0.89634 0.79688 0.55317 0.0
O130 O 0.92259 0.78719 0.52475 0.0
O131 O 0.92 0.76038 0.54567 0.0
O132 O 0.91419 0.77856 0.56947 0.0
O133 O 0.88966 0.73831 0.57223 0.0
O134 O 0.8864 0.80061 0.49078 0.0
O135 O 0.86735 0.78077 0.53137 0.0
O136 O 0.86655 0.79241 0.5681 0.0
O137 O 0.86798 0.81688 0.54366 0.0
O138 O 0.85707 0.80047 0.51247 0.0
O139 O 0.88445 0.83074 0.50469 0.0
C140 C 0.91232 0.79642 0.56279 0.0
C141 C 0.88667 0.73785 0.60763 0.0
C142 C 0.90888 0.73234 0.63504 0.0
C143 C 0.90595 0.73772 0.61528 0.0
C144 C 0.89262 0.72694 0.64685 0.0
C145 C 0.87056 0.73237 0.6195 0.0
C146 C 0.87355 0.72691 0.63906 0.0
C147 C 0.93202 0.772 0.53422 0.0
C148 C 0.88212 0.74586 0.58828 0.0
C149 C 0.82621 0.71492 0.52938 0.0
C150 C 0.83972 0.71148 0.51417 0.0
C151 C 0.85013 0.78582 0.52287 0.0
C152 C 0.88026 0.8293 0.4694 0.0
C153 C 0.87091 0.84782 0.46881 0.0
C154 C 0.86861 0.85784 0.4509 0.0
C155 C 0.87592 0.84934 0.43348 0.0
C156 C 0.88753 0.82091 0.45197 0.0
C157 C 0.88541 0.83098 0.43407 0.0
C158 C 0.86083 0.80973 0.56041 0.0
C159 C 0.88423 0.81999 0.48848 0.0
H160 H 0.9184 0.74197 0.60612 0.0
H161 H 0.89477 0.72228 0.66203 0.0
H162 H 0.85557 0.73274 0.61371 0.0
H163 H 0.86111 0.72271 0.6482 0.0
H164 H 0.86531 0.85445 0.48224 0.0
H165 H 0.87446 0.85701 0.4195 0.0
H166 H 0.8953 0.80688 0.45227 0.0
H167 H 0.89126 0.82464 0.42066 0.0
Eu168 Eu 0.48243 0.64904 0.77355 0.0
C169 C 0.52771 0.60382 0.83129 0.0
C170 C 0.5077 0.60367 0.86095 0.0
C171 C 0.52615 0.57428 0.85203 0.0
C172 C 0.51438 0.61339 0.84366 0.0
C173 C 0.5345 0.58458 0.83608 0.0
C174 C 0.51271 0.58379 0.8644 0.0
C175 C 0.55955 0.58809 0.811 0.0
N176 N 0.5355 0.61392 0.81572 0.0
C177 C 0.55206 0.60681 0.80636 0.0
C178 C 0.55029 0.57664 0.82544 0.0
Eu179 Eu 0.51949 0.64464 0.80812 0.0
N180 N 0.51003 0.63284 0.84026 0.0
C181 C 0.50244 0.64399 0.85538 0.0
C182 C 0.49744 0.61458 0.87507 0.0
C183 C 0.49558 0.63499 0.87266 0.0
H184 H 0.55855 0.61489 0.79419 0.0
H185 H 0.48896 0.64385 0.88416 0.0
H186 H 0.50728 0.57603 0.87733 0.0
H187 H 0.57208 0.58226 0.80301 0.0
H188 H 0.5017 0.65994 0.85461 0.0
H189 H 0.54859 0.64585 0.72806 0.0
H190 H 0.49217 0.60767 0.88853 0.0
H191 H 0.44538 0.68228 0.7749 0.0
H192 H 0.52574 0.63476 0.7546 0.0
H193 H 0.43496 0.71198 0.75625 0.0
H194 H 0.53082 0.55932 0.85555 0.0
H195 H 0.54062 0.67573 0.70834 0.0
H196 H 0.51726 0.70374 0.701 0.0
H197 H 0.55595 0.56199 0.82878 0.0
H198 H 0.4863 0.72132 0.7083 0.0
N199 N 0.5058 0.65851 0.74998 0.0
C200 C 0.52243 0.64791 0.74608 0.0
C201 C 0.53071 0.67104 0.72 0.0
C202 C 0.51334 0.6816 0.72392 0.0
C203 C 0.53527 0.65414 0.73112 0.0
C204 C 0.501 0.67494 0.73929 0.0
H205 H 0.4556 0.72453 0.72881 0.0
N206 N 0.47219 0.67881 0.75885 0.0
C207 C 0.44871 0.70467 0.75263 0.0
C208 C 0.48363 0.68515 0.74365 0.0
C209 C 0.45477 0.688 0.7633 0.0
C210 C 0.46036 0.71163 0.73708 0.0
C211 C 0.47801 0.70185 0.73236 0.0
O212 O 0.45124 0.64412 0.76779 0.0
O213 O 0.49096 0.63104 0.79917 0.0
O214 O 0.51822 0.61242 0.79074 0.0
O215 O 0.49095 0.61389 0.7709 0.0
O216 O 0.46264 0.64298 0.79944 0.0
O217 O 0.47296 0.63474 0.74609 0.0
O218 O 0.55143 0.64942 0.80232 0.0
O219 O 0.51057 0.66717 0.78269 0.0
O220 O 0.47566 0.67364 0.79545 0.0
O221 O 0.49539 0.66315 0.82171 0.0
O222 O 0.52401 0.67884 0.8063 0.0
O223 O 0.53739 0.65728 0.83054 0.0
C224 C 0.47475 0.63145 0.80873 0.0
C225 C 0.43973 0.64023 0.73552 0.0
C226 C 0.4085 0.63148 0.72035 0.0
C227 C 0.42405 0.6269 0.73311 0.0
C228 C 0.4085 0.64949 0.70999 0.0
C229 C 0.44006 0.658 0.72473 0.0
C230 C 0.42432 0.66271 0.71217 0.0
C231 C 0.50522 0.60238 0.77905 0.0
C232 C 0.45424 0.63573 0.7508 0.0
C233 C 0.49028 0.70843 0.71701 0.0
C234 C 0.50793 0.69842 0.71287 0.0
C235 C 0.51598 0.68503 0.79013 0.0
C236 C 0.57097 0.65161 0.83282 0.0
C237 C 0.57264 0.66176 0.85087 0.0
C238 C 0.58774 0.6573 0.86422 0.0
C239 C 0.60145 0.64247 0.85945 0.0
C240 C 0.58502 0.6372 0.82796 0.0
C241 C 0.60006 0.63249 0.84141 0.0
C242 C 0.48235 0.67539 0.81377 0.0
C243 C 0.5538 0.65648 0.82038 0.0
H244 H 0.42388 0.61299 0.74121 0.0
H245 H 0.39651 0.65307 0.69995 0.0
H246 H 0.45226 0.6682 0.72602 0.0
H247 H 0.42445 0.67654 0.70403 0.0
H248 H 0.56217 0.67336 0.8545 0.0
H249 H 0.61325 0.63868 0.86963 0.0
H250 H 0.58445 0.6296 0.81396 0.0
H251 H 0.61074 0.62115 0.83781 0.0
Eu252 Eu 0.65145 0.27475 0.05073 0.0
C253 C 0.60442 0.21075 1.0147 0.0
C254 C 0.6025 0.18406 0.03873 0.0
C255 C 0.57458 0.19044 1.01705 0.0
C256 C 0.61317 0.19987 0.02992 0.0
C257 C 0.58556 0.20523 1.00739 0.0
C258 C 0.58292 0.1801 0.03288 0.0
C259 C 0.5901 0.22843 0.98057 0.0
N260 N 0.6148 0.22581 1.00609 0.0
C261 C 0.60852 0.23371 0.98845 0.0
C262 C 0.57837 0.21447 0.99031 0.0
Eu263 Eu 0.64586 0.23351 0.02093 0.0
N264 N 0.63255 0.20333 0.03473 0.0
C265 C 0.64255 0.18944 0.04579 0.0
C266 C 0.61213 0.17183 0.05233 0.0
C267 C 0.63239 0.17412 0.05534 0.0
H268 H 0.61728 0.24491 0.98107 0.0
H269 H 0.6403 0.16387 0.06478 0.0
H270 H 0.5745 0.16826 0.03976 0.0
H271 H 0.58488 0.23526 0.96706 0.0
H272 H 0.65841 0.18962 0.0475 0.0
H273 H 0.63959 0.31652 0.98277 0.0
H274 H 0.60437 0.15974 0.05955 0.0
H275 H 0.69531 0.26704 0.07643 0.0
H276 H 0.63204 0.29025 1.00721 0.0
H277 H 0.72663 0.2845 0.08027 0.0
H278 H 0.55985 0.18647 1.012 0.0
H279 H 0.66998 0.33684 0.98634 0.0
H280 H 0.70121 0.34447 1.00509 0.0
H281 H 0.56401 0.21055 0.98425 0.0
H282 H 0.72437 0.3362 0.03189 0.0
N283 N 0.65825 0.29541 0.02384 0.0
C284 C 0.64551 0.29881 1.00863 0.0
C285 C 0.66693 0.32516 0.9969 0.0
C286 C 0.68009 0.3213 1.01243 0.0
C287 C 0.64973 0.31369 0.99483 0.0
C288 C 0.6755 0.30586 0.02569 0.0
H289 H 0.73416 0.31374 0.0596 0.0
N290 N 0.68492 0.28513 0.05245 0.0
C291 C 0.71624 0.28922 0.06901 0.0
C292 C 0.68894 0.30089 0.04063 0.0
C293 C 0.69841 0.27904 0.06639 0.0
C294 C 0.72034 0.3058 0.05743 0.0
C295 C 0.70677 0.31172 0.04292 0.0
O296 O 0.6602 0.2818 0.08057 0.0
O297 O 0.63935 0.24519 0.04995 0.0
O298 O 0.61334 0.25056 0.02241 0.0
O299 O 0.61681 0.27979 0.03958 0.0
O300 O 0.62348 0.26497 0.06678 0.0
O301 O 0.64614 0.30459 0.06247 0.0
O302 O 0.65275 0.23798 0.98923 0.0
O303 O 0.66877 0.26011 0.0248 0.0
O304 O 0.6677 0.249 0.06693 0.0
O305 O 0.6651 0.22216 0.04547 0.0
O306 O 0.68038 0.23257 0.02054 0.0
O307 O 0.65246 0.20814 1.00353 0.0
C308 C 0.62431 0.24686 0.06071 0.0
C309 C 0.65041 0.31056 0.097 0.0
C310 C 0.63079 0.31351 0.12642 0.0
C311 C 0.63348 0.30546 0.10767 0.0
C312 C 0.64483 0.32674 0.13435 0.0
C313 C 0.66444 0.32375 0.10491 0.0
C314 C 0.6616 0.33187 0.12355 0.0
C315 C 0.60431 0.26687 0.03006 0.0
C316 C 0.6554 0.30038 0.07892 0.0
C317 C 0.71081 0.32768 0.03028 0.0
C318 C 0.69762 0.33236 1.01499 0.0
C319 C 0.68627 0.25073 0.02342 0.0
C320 C 0.6607 0.2082 0.96927 0.0
C321 C 0.66872 0.18901 0.97075 0.0
C322 C 0.67224 0.17779 0.95383 0.0
C323 C 0.66793 0.18582 0.93522 0.0
C324 C 0.65652 0.21616 0.9506 0.0
C325 C 0.66014 0.20496 0.93364 0.0
C326 C 0.6722 0.23055 0.06161 0.0
C327 C 0.65486 0.21857 0.98738 0.0
H328 H 0.6228 0.295 0.10168 0.0
H329 H 0.64273 0.33311 0.14885 0.0
H330 H 0.67783 0.32735 0.09686 0.0
H331 H 0.6725 0.34194 0.12972 0.0
H332 H 0.67192 0.18256 0.98508 0.0
H333 H 0.67042 0.17723 0.92198 0.0
H334 H 0.64994 0.23072 0.94916 0.0
H335 H 0.65663 0.21101 0.91925 0.0
Eu336 Eu 1.0188 0.63763 0.23546 0.0
C337 C 0.07196 0.68791 0.27974 0.0
C338 C 0.10009 0.69188 0.25774 0.0
C339 C 0.09064 0.71896 0.27913 0.0
C340 C 0.08447 0.68 0.26534 0.0
C341 C 0.07566 0.70712 0.28731 0.0
C342 C 0.10266 0.71143 0.26426 0.0
C343 C 0.05083 0.70113 0.31218 0.0
N344 N 0.05684 0.67666 0.28712 0.0
C345 C 0.04727 0.68246 0.30404 0.0
C346 C 0.06468 0.71373 0.30346 0.0
Eu347 Eu 0.05256 0.64494 0.27226 0.0
N348 N 0.08219 0.66066 0.25957 0.0
C349 C 0.09612 0.65245 0.24723 0.0
C350 C 0.11318 0.6837 0.24416 0.0
C351 C 0.11137 0.66386 0.23918 0.0
H352 H 0.03603 0.67309 0.31055 0.0
H353 H 0.12178 0.65725 0.22903 0.0
H354 H 0.11445 0.72066 0.25839 0.0
H355 H 0.04268 0.70592 0.32502 0.0
H356 H 0.096 0.63723 0.24273 0.0
H357 H 0.96999 0.65587 0.29728 0.0
H358 H 0.12513 0.69243 0.2379 0.0
H359 H 0.02451 0.59261 0.21325 0.0
H360 H 0.99922 0.65994 0.27607 0.0
H361 H 1.00451 0.56284 0.20767 0.0
H362 H 0.0934 0.73382 0.28457 0.0
H363 H 0.94714 0.62759 0.2921 0.0
H364 H 0.9387 0.59646 0.27364 0.0
H365 H 0.06725 0.7283 0.3097 0.0
H366 H 0.94775 0.57156 0.24885 0.0
N367 N 0.99293 0.63452 0.25868 0.0
C368 C 0.98935 0.6477 0.27343 0.0
C369 C 0.95996 0.62932 0.28268 0.0
C370 C 0.96408 0.61544 0.26798 0.0
C371 C 0.97282 0.64533 0.28562 0.0
C372 C 0.98111 0.61825 0.25631 0.0
H373 H 0.97226 0.55882 0.22434 0.0
N374 N 1.00401 0.60583 0.23329 0.0
C375 C 0.99928 0.57418 0.21764 0.0
C376 C 0.98657 0.60376 0.24287 0.0
C377 C 1.0107 0.59114 0.22108 0.0
C378 C 0.98104 0.57206 0.22696 0.0
C379 C 0.97462 0.58673 0.24002 0.0
O380 O 0.02141 0.62811 0.20515 0.0
O381 O 0.04899 0.64895 0.24028 0.0
O382 O 0.03397 0.67581 0.26917 0.0
O383 O 1.01243 0.67286 0.24312 0.0
O384 O 0.03092 0.66637 0.22314 0.0
O385 O 0.99411 0.64209 0.21465 0.0
O386 O 0.0467 0.63871 0.30393 0.0
O387 O 0.02781 0.62128 0.26422 0.0
O388 O 0.04551 0.61694 0.22898 0.0
O389 O 0.06858 0.62324 0.25385 0.0
O390 O 0.05191 0.61075 0.27816 0.0
O391 O 0.07712 0.6418 0.29139 0.0
C392 C 0.04854 0.66482 0.23039 0.0
C393 C 1.00118 0.64056 0.17981 0.0
C394 C 0.99009 0.66397 0.15492 0.0
C395 C 0.99221 0.65871 0.17489 0.0
C396 C 0.99657 0.65098 0.14012 0.0
C397 C 1.00745 0.62774 0.16476 0.0
C398 C 1.00515 0.63295 0.14504 0.0
C399 C 0.02149 0.68501 0.25656 0.0
C400 C 1.00364 0.63364 0.20019 0.0
C401 C 0.9571 0.58451 0.25084 0.0
C402 C 0.95195 0.59871 0.26494 0.0
C403 C 0.03584 0.60392 0.27 0.0
C404 C 0.07603 0.63298 0.3251 0.0
C405 C 0.09395 0.62285 0.32345 0.0
C406 C 0.10587 0.61978 0.33994 0.0
C407 C 0.09945 0.62616 0.35854 0.0
C408 C 0.06962 0.63951 0.34361 0.0
C409 C 0.08131 0.63597 0.36034 0.0
C410 C 0.06273 0.61344 0.23805 0.0
C411 C 0.06602 0.63905 0.30701 0.0
H412 H 0.98692 0.66855 0.18632 0.0
H413 H 0.99454 0.65464 0.12466 0.0
H414 H 1.01401 0.61352 0.1683 0.0
H415 H 1.00985 0.62292 0.13354 0.0
H416 H 0.09898 0.61777 0.30913 0.0
H417 H 0.10861 0.62392 0.37151 0.0
H418 H 0.05601 0.64784 0.34501 0.0
H419 H 0.07654 0.64122 0.37462 0.0
Eu420 Eu 0.64667 0.7651 0.48579 0.0
C421 C 0.60067 0.82548 0.52795 0.0
C422 C 0.59862 0.85279 0.5045 0.0
C423 C 0.57185 0.84723 0.5276 0.0
C424 C 0.60919 0.83652 0.51258 0.0
C425 C 0.58231 0.83141 0.53602 0.0
C426 C 0.57988 0.85773 0.51178 0.0
C427 C 0.58581 0.80603 0.56094 0.0
N428 N 0.61036 0.80938 0.53545 0.0
C429 C 0.60377 0.80048 0.55251 0.0
C430 C 0.57488 0.82134 0.55248 0.0
Eu431 Eu 0.64149 0.80242 0.52071 0.0
N432 N 0.62771 0.83186 0.50584 0.0
C433 C 0.63615 0.84341 0.49131 0.0
C434 C 0.60715 0.86395 0.48938 0.0
C435 C 0.62601 0.85931 0.4829 0.0
H436 H 0.61195 0.78835 0.55901 0.0
H437 H 0.63279 0.86797 0.47125 0.0
H438 H 0.57163 0.87002 0.50556 0.0
H439 H 0.58036 0.79844 0.57392 0.0
H440 H 0.6505 0.84072 0.48526 0.0
H441 H 0.63747 0.72126 0.55298 0.0
H442 H 0.59939 0.87635 0.48277 0.0
H443 H 0.68596 0.76893 0.45476 0.0
H444 H 0.62734 0.74521 0.52731 0.0
H445 H 0.71909 0.7547 0.45152 0.0
H446 H 0.55758 0.85162 0.53337 0.0
H447 H 0.67049 0.70562 0.55152 0.0
H448 H 0.70318 0.70218 0.53451 0.0
H449 H 0.56087 0.8255 0.55899 0.0
H450 H 0.72532 0.71143 0.50728 0.0
N451 N 0.65408 0.74259 0.51117 0.0
C452 C 0.64162 0.73822 0.52632 0.0
C453 C 0.66608 0.71598 0.5401 0.0
C454 C 0.67895 0.7208 0.52467 0.0
C455 C 0.64739 0.72477 0.54096 0.0
C456 C 0.67252 0.73437 0.51018 0.0
H457 H 0.73139 0.73086 0.4764 0.0
N458 N 0.67918 0.7534 0.48147 0.0
C459 C 0.70981 0.75043 0.46382 0.0
C460 C 0.68529 0.73984 0.49493 0.0
C461 C 0.69094 0.75852 0.46582 0.0
C462 C 0.71666 0.73697 0.47788 0.0
C463 C 0.70439 0.73148 0.49362 0.0
O464 O 0.64983 0.7652 0.45371 0.0
O465 O 0.63665 0.79579 0.48925 0.0
O466 O 0.60949 0.78513 0.5183 0.0
O467 O 0.61226 0.75904 0.49671 0.0
O468 O 0.61796 0.77718 0.47404 0.0
O469 O 0.64274 0.73738 0.46943 0.0
O470 O 0.64648 0.79907 0.55255 0.0
O471 O 0.66419 0.77807 0.51171 0.0
O472 O 0.66753 0.7911 0.47684 0.0
O473 O 0.66441 0.81544 0.50127 0.0
O474 O 0.67454 0.79701 0.53125 0.0
O475 O 0.64788 0.82861 0.53729 0.0
C476 C 0.62052 0.79519 0.47988 0.0
C477 C 0.64582 0.73582 0.43389 0.0
C478 C 0.62849 0.72825 0.40345 0.0
C479 C 0.62849 0.7363 0.42248 0.0
C480 C 0.64581 0.71963 0.39599 0.0
C481 C 0.66302 0.72708 0.42642 0.0
C482 C 0.66297 0.71897 0.4075 0.0
C483 C 0.6002 0.77035 0.50831 0.0
C484 C 0.64672 0.74618 0.45269 0.0
C485 C 0.71067 0.71791 0.50799 0.0
C486 C 0.69803 0.71262 0.52348 0.0
C487 C 0.68144 0.78283 0.52039 0.0
C488 C 0.65346 0.82879 0.57233 0.0
C489 C 0.66136 0.84797 0.57135 0.0
C490 C 0.66531 0.85858 0.58853 0.0
C491 C 0.66134 0.84996 0.60697 0.0
C492 C 0.6493 0.82024 0.59074 0.0
C493 C 0.65322 0.83088 0.60803 0.0
C494 C 0.6729 0.80819 0.48532 0.0
C495 C 0.64883 0.8185 0.55392 0.0
H496 H 0.61519 0.74313 0.42824 0.0
H497 H 0.64592 0.71311 0.38139 0.0
H498 H 0.67655 0.72686 0.43507 0.0
H499 H 0.67627 0.71225 0.40171 0.0
H500 H 0.66476 0.85467 0.55718 0.0
H501 H 0.66437 0.85804 0.62046 0.0
H502 H 0.64284 0.80555 0.59175 0.0
H503 H 0.64993 0.82434 0.62225 0.0
Eu504 Eu 0.52007 0.40153 0.73936 0.0
C505 C 0.45343 0.35541 0.78044 0.0
C506 C 0.4247 0.35798 0.75903 0.0
C507 C 0.42694 0.33075 0.78228 0.0
C508 C 0.44303 0.36581 0.76598 0.0
C509 C 0.44538 0.33784 0.7887 0.0
C510 C 0.41664 0.34078 0.76751 0.0
C511 C 0.47435 0.33509 0.8094 0.0
N512 N 0.47156 0.36212 0.78625 0.0
C513 C 0.48176 0.35246 0.80098 0.0
C514 C 0.45612 0.32769 0.80318 0.0
Eu515 Eu 0.48327 0.39242 0.77213 0.0
N516 N 0.45165 0.38202 0.75721 0.0
C517 C 0.44334 0.38879 0.73978 0.0
C518 C 0.41545 0.36679 0.74287 0.0
C519 C 0.42506 0.38195 0.73295 0.0
H520 H 0.496 0.35802 0.80587 0.0
H521 H 0.41877 0.38789 0.71947 0.0
H522 H 0.40266 0.33475 0.7623 0.0
H523 H 0.48273 0.32742 0.82069 0.0
H524 H 0.45077 0.39865 0.72988 0.0
H525 H 0.56682 0.39754 0.80438 0.0
H526 H 0.40152 0.36114 0.73715 0.0
H527 H 0.51421 0.4383 0.70533 0.0
H528 H 0.53961 0.38682 0.78194 0.0
H529 H 0.52974 0.47038 0.69744 0.0
H530 H 0.42064 0.3173 0.78844 0.0
H531 H 0.58534 0.42851 0.79733 0.0
H532 H 0.59055 0.45828 0.77549 0.0
H533 H 0.45043 0.31414 0.80971 0.0
H534 H 0.58047 0.47797 0.74659 0.0
N535 N 0.54247 0.41199 0.76341 0.0
C536 C 0.54742 0.40059 0.77923 0.0
C537 C 0.57331 0.42403 0.78769 0.0
C538 C 0.56821 0.43549 0.77119 0.0
C539 C 0.56284 0.40654 0.79176 0.0
C540 C 0.55246 0.429 0.75911 0.0
H541 H 0.55748 0.48295 0.71786 0.0
N542 N 0.53149 0.43363 0.73139 0.0
C543 C 0.53457 0.46213 0.7103 0.0
C544 C 0.54681 0.44012 0.74268 0.0
C545 C 0.52551 0.4441 0.71511 0.0
C546 C 0.5503 0.4691 0.72179 0.0
C547 C 0.55674 0.45801 0.73808 0.0
O548 O 0.52943 0.40122 0.70889 0.0
O549 O 0.49629 0.38074 0.74501 0.0
O550 O 0.49882 0.36024 0.76726 0.0
O551 O 0.52559 0.36592 0.7478 0.0
O552 O 0.49607 0.39457 0.71766 0.0
O553 O 0.54832 0.38792 0.73145 0.0
O554 O 0.49627 0.39657 0.80198 0.0
O555 O 0.50821 0.41696 0.76732 0.0
O556 O 0.49439 0.42216 0.73006 0.0
O557 O 0.46918 0.41482 0.75281 0.0
O558 O 0.48149 0.42698 0.77651 0.0
O559 O 0.46426 0.39252 0.79696 0.0
C560 C 0.48827 0.3805 0.72804 0.0
C561 C 0.56303 0.39751 0.70102 0.0
C562 C 0.58321 0.38638 0.67396 0.0
C563 C 0.57153 0.3822 0.69039 0.0
C564 C 0.58847 0.40615 0.66976 0.0
C565 C 0.56813 0.41725 0.6968 0.0
C566 C 0.5812 0.4215 0.68143 0.0
C567 C 0.51463 0.35233 0.75812 0.0
C568 C 0.54591 0.39209 0.71281 0.0
C569 C 0.57261 0.46433 0.74995 0.0
C570 C 0.57834 0.45312 0.76643 0.0
C571 C 0.49894 0.43403 0.77173 0.0
C572 C 0.47247 0.4087 0.82612 0.0
C573 C 0.45546 0.42059 0.82401 0.0
C574 C 0.44486 0.42672 0.84061 0.0
C575 C 0.45248 0.42248 0.85949 0.0
C576 C 0.47983 0.40461 0.84502 0.0
C577 C 0.47003 0.41177 0.86163 0.0
C578 C 0.47632 0.42464 0.73743 0.0
C579 C 0.47839 0.39585 0.80977 0.0
H580 H 0.56727 0.36699 0.69361 0.0
H581 H 0.59716 0.40983 0.65684 0.0
H582 H 0.56153 0.42932 0.70474 0.0
H583 H 0.58477 0.43675 0.67784 0.0
H584 H 0.44943 0.42353 0.80944 0.0
H585 H 0.4444 0.4266 0.87263 0.0
H586 H 0.49239 0.39483 0.84697 0.0
H587 H 0.47541 0.40803 0.87623 0.0
Eu588 Eu 0.90057 0.23969 0.02401 0.0
C589 C 0.85181 0.27402 0.96336 0.0
C590 C 0.85068 0.24849 0.93815 0.0
C591 C 0.82142 0.26805 0.9447 0.0
C592 C 0.86124 0.25892 0.95302 0.0
C593 C 0.83222 0.27945 0.9583 0.0
C594 C 0.83059 0.25249 0.93477 0.0
C595 C 0.83632 0.309 0.97792 0.0
N596 N 0.86224 0.28463 0.97698 0.0
C597 C 0.85538 0.30279 0.98303 0.0
C598 C 0.8244 0.29689 0.96615 0.0
Eu599 Eu 0.8943 0.27219 0.98505 0.0
N600 N 0.88097 0.25565 0.95615 0.0
C601 C 0.89109 0.24407 0.94286 0.0
C602 C 0.86073 0.23481 0.92651 0.0
C603 C 0.88111 0.23302 0.92852 0.0
H604 H 0.86415 0.31191 0.99285 0.0
H605 H 0.88927 0.22343 0.9187 0.0
H606 H 0.82227 0.2443 0.92374 0.0
H607 H 0.83066 0.32291 0.98345 0.0
H608 H 0.90697 0.24327 0.94241 0.0
H609 H 0.88883 0.30626 0.06804 0.0
H610 H 0.85309 0.2264 0.91517 0.0
H611 H 0.94377 0.21343 1.01703 0.0
H612 H 0.88147 0.28277 0.04097 0.0
H613 H 0.97442 0.20815 0.03527 0.0
H614 H 0.80622 0.27172 0.94108 0.0
H615 H 0.91863 0.30153 0.08886 0.0
H616 H 0.94922 0.28194 0.09663 0.0
H617 H 0.80951 0.30161 0.96246 0.0
H618 H 0.97185 0.2548 0.08828 0.0
N619 N 0.90709 0.26542 0.04625 0.0
C620 C 0.89462 0.28078 0.04981 0.0
C621 C 0.91561 0.29134 0.07687 0.0
C622 C 0.92848 0.27563 0.07293 0.0
C623 C 0.89876 0.29406 0.06513 0.0
C624 C 0.92398 0.26291 0.05707 0.0
H625 H 0.98153 0.22752 0.06537 0.0
N626 N 0.93346 0.23689 0.03566 0.0
C627 C 0.96416 0.21943 0.0401 0.0
C628 C 0.93717 0.24787 0.052 0.0
C629 C 0.94676 0.22288 0.02949 0.0
C630 C 0.968 0.23025 0.05718 0.0
C631 C 0.95458 0.24479 0.06323 0.0
O632 O 0.90775 0.20859 0.0278 0.0
O633 O 0.88862 0.24139 0.99404 0.0
O634 O 0.86323 0.27197 1.00404 0.0
O635 O 0.8661 0.2497 0.02967 0.0
O636 O 0.87156 0.22617 1.01389 0.0
O637 O 0.89597 0.22537 0.05271 0.0
O638 O 0.89961 0.30433 0.98722 0.0
O639 O 0.91736 0.26686 1.01103 0.0
O640 O 0.91818 0.22653 0.99799 0.0
O641 O 0.91557 0.25041 0.97329 0.0
O642 O 0.92869 0.27666 0.98536 0.0
O643 O 0.8996 0.28862 0.95828 0.0
C644 C 0.87271 0.23165 0.99566 0.0
C645 C 0.89965 0.19027 0.05641 0.0
C646 C 0.87904 0.16146 0.06148 0.0
C647 C 0.88179 0.18023 0.05314 0.0
C648 C 0.894 0.15288 0.07311 0.0
C649 C 0.91457 0.18169 0.06802 0.0
C650 C 0.91172 0.16302 0.07639 0.0
C651 C 0.85407 0.26165 1.01866 0.0
C652 C 0.90401 0.2089 0.04662 0.0
C653 C 0.95855 0.25692 0.07955 0.0
C654 C 0.94566 0.27241 0.08426 0.0
C655 C 0.93496 0.27085 1.00256 0.0
C656 C 0.90557 0.32383 0.95703 0.0
C657 C 0.91566 0.32314 0.93886 0.0
C658 C 0.9181 0.34043 0.9275 0.0
C659 C 0.90991 0.35829 0.93433 0.0
C660 C 0.89774 0.34183 0.96364 0.0
C661 C 0.89981 0.35894 0.95224 0.0
C662 C 0.92308 0.23396 0.98052 0.0
C663 C 0.90113 0.30544 0.96781 0.0
H664 H 0.87033 0.1868 0.04401 0.0
H665 H 0.89188 0.13837 0.07971 0.0
H666 H 0.92855 0.18933 0.07034 0.0
H667 H 0.92327 0.15638 0.0853 0.0
H668 H 0.92166 0.30923 0.93362 0.0
H669 H 0.91115 0.37176 0.92567 0.0
H670 H 0.88943 0.34251 0.97727 0.0
H671 H 0.89338 0.37273 0.9572 0.0
Eu672 Eu 0.30252 1.0186 0.40006 0.0
C673 C 0.2701 0.08097 0.34983 0.0
C674 C 0.28994 0.11052 0.3546 0.0
C675 C 0.27803 0.10211 0.32182 0.0
C676 C 0.28105 0.09312 0.36222 0.0
C677 C 0.26719 0.08627 0.32987 0.0
C678 C 0.28956 0.11416 0.33418 0.0
C679 C 0.23983 0.06314 0.32867 0.0
N680 N 0.25983 0.06576 0.358 0.0
C681 C 0.24366 0.05799 0.34831 0.0
C682 C 0.25226 0.07664 0.31912 0.0
Eu683 Eu 0.26961 0.05645 0.39058 0.0
N684 N 0.28038 0.08955 0.38202 0.0
C685 C 0.28458 0.10482 0.39474 0.0
C686 C 0.29746 0.12453 0.36783 0.0
C687 C 0.29402 0.12205 0.38797 0.0
H688 H 0.23459 0.04679 0.35536 0.0
H689 H 0.29841 0.1335 0.39828 0.0
H690 H 0.2968 0.12713 0.32803 0.0
H691 H 0.22762 0.05631 0.32079 0.0
H692 H 0.28124 0.10356 0.41025 0.0
H693 H 0.23506 0.97681 0.38585 0.0
H694 H 0.30449 0.13801 0.36259 0.0
H695 H 0.3279 0.02604 0.44403 0.0
H696 H 0.26134 1.0015 0.37842 0.0
H697 H 0.32796 1.01179 0.4771 0.0
H698 H 0.2765 0.106 0.30637 0.0
H699 H 0.23474 0.95969 0.41818 0.0
H700 H 0.25013 0.95471 0.45156 0.0
H701 H 0.24941 0.08044 0.30383 0.0
H702 H 0.27542 0.964 0.47605 0.0
N703 N 0.27493 0.9987 0.4065 0.0
C704 C 0.26094 0.99435 0.39268 0.0
C705 C 0.24609 0.97066 0.4151 0.0
C706 C 0.26058 0.97526 0.42922 0.0
C707 C 0.24619 0.98034 0.39683 0.0
C708 C 0.275 0.98965 0.42451 0.0
H709 H 0.30401 0.98548 0.48587 0.0
N710 N 0.30264 1.00942 0.43395 0.0
C711 C 0.31692 1.00703 0.46647 0.0
C712 C 0.28928 0.99502 0.4385 0.0
C713 C 0.31644 1.01545 0.44766 0.0
C714 C 0.30349 0.99208 0.47128 0.0
C715 C 0.28947 0.98589 0.4573 0.0
O716 O 0.32962 1.00622 0.41099 0.0
O717 O 0.29662 0.04294 0.37999 0.0
O718 O 0.27415 0.03815 0.3592 0.0
O719 O 0.29678 1.0135 0.36403 0.0
O720 O 0.32617 0.03945 0.38836 0.0
O721 O 0.31281 0.98971 0.38917 0.0
O722 O 0.23981 0.04383 0.39664 0.0
O723 O 0.27514 0.03238 0.41545 0.0
O724 O 0.3146 0.04465 0.41822 0.0
O725 O 0.29339 0.07055 0.40939 0.0
O726 O 0.26807 0.06009 0.42519 0.0
O727 O 0.24424 0.07497 0.38859 0.0
C728 C 0.31395 0.05003 0.37814 0.0
C729 C 0.34743 0.98295 0.39375 0.0
C730 C 0.369 0.97079 0.36845 0.0
C731 C 0.35043 0.97757 0.37409 0.0
C732 C 0.3846 0.96962 0.38224 0.0
C733 C 0.36301 0.98154 0.40755 0.0
C734 C 0.38158 0.975 0.40174 0.0
C735 C 0.28505 0.0235 0.3508 0.0
C736 C 0.32842 0.99012 0.40068 0.0
C737 C 0.27543 0.97119 0.46174 0.0
C738 C 0.26101 0.96593 0.44778 0.0
C739 C 0.27231 0.04248 0.43223 0.0
C740 C 0.21602 0.06871 0.40702 0.0
C741 C 0.21917 0.08633 0.41777 0.0
C742 C 0.20313 0.09716 0.42509 0.0
C743 C 0.18384 0.08957 0.42261 0.0
C744 C 0.19671 0.06139 0.40471 0.0
C745 C 0.18072 0.07169 0.41267 0.0
C746 C 0.30857 0.06328 0.41945 0.0
C747 C 0.23165 0.06132 0.39397 0.0
H748 H 0.33859 0.97871 0.3633 0.0
H749 H 0.39917 0.96466 0.37779 0.0
H750 H 0.36083 0.98563 0.42284 0.0
H751 H 0.3936 0.97414 0.41231 0.0
H752 H 0.23403 0.09231 0.41938 0.0
H753 H 0.17114 0.0978 0.42779 0.0
H754 H 0.19391 0.0483 0.39586 0.0
H755 H 0.16579 0.06624 0.41041 0.0
Eu756 Eu 0.27074 0.05309 0.64653 0.0
C757 C 0.20271 1.01878 0.60408 0.0
C758 C 0.17413 0.03963 0.60943 0.0
C759 C 0.17905 0.02422 0.5775 0.0
C760 C 0.19201 0.03123 0.61633 0.0
C761 C 0.19541 1.01396 0.58514 0.0
C762 C 0.16849 0.03719 0.5896 0.0
C763 C 0.21802 0.9863 0.58456 0.0
N764 N 0.21855 1.00913 0.61174 0.0
C765 C 0.22526 0.99208 0.60302 0.0
C766 C 0.20368 0.99785 0.57516 0.0
Eu767 Eu 0.23041 0.02103 0.64257 0.0
N768 N 0.19748 0.03269 0.63568 0.0
C769 C 0.18374 0.03876 0.64924 0.0
C770 C 0.16163 0.0488 0.62299 0.0
C771 C 0.16606 0.04761 0.64307 0.0
H772 H 0.23699 0.98362 0.60989 0.0
H773 H 0.15573 0.05324 0.65384 0.0
H774 H 0.15513 0.04402 0.58394 0.0
H775 H 0.2239 0.97329 0.57736 0.0
H776 H 0.18652 0.03731 0.6649 0.0
H777 H 0.30816 0.98221 0.65371 0.0
H778 H 0.1478 0.05544 0.61828 0.0
H779 H 0.27231 0.09382 0.6755 0.0
H780 H 0.28742 1.00764 0.63696 0.0
H781 H 0.28534 0.103 0.70839 0.0
H782 H 0.17364 0.0212 0.56273 0.0
H783 H 0.3216 0.98875 0.68712 0.0
H784 H 0.32513 1.0119 0.71594 0.0
H785 H 0.1983 0.99352 0.56071 0.0
H786 H 0.31852 0.04438 0.7309 0.0
N787 N 0.28928 0.02774 0.66088 0.0
C788 C 0.29332 1.01038 0.65157 0.0
C789 C 0.31255 0.99985 0.67989 0.0
C790 C 0.30858 1.01796 0.68914 0.0
C791 C 0.30498 0.99609 0.661 0.0
C792 C 0.29685 0.03195 0.67908 0.0
H793 H 0.30371 0.07832 0.72828 0.0
N794 N 0.28206 0.0639 0.67752 0.0
C795 C 0.28741 0.08811 0.70284 0.0
C796 C 0.29302 0.0504 0.68764 0.0
C797 C 0.27992 0.08283 0.68434 0.0
C798 C 0.29781 0.07414 0.71398 0.0
C799 C 0.30103 0.05515 0.7063 0.0
O800 O 0.2817 0.08149 0.6372 0.0
O801 O 0.24492 0.04597 0.62884 0.0
O802 O 0.24612 0.02372 0.60908 0.0
O803 O 0.27417 0.04249 0.612 0.0
O804 O 0.24912 0.07607 0.6357 0.0
O805 O 0.30197 0.05653 0.63768 0.0
O806 O 0.2405 0.99021 0.6492 0.0
O807 O 0.25644 0.02743 0.66502 0.0
O808 O 0.24761 0.06718 0.66677 0.0
O809 O 0.21966 0.04735 0.66023 0.0
O810 O 0.22946 0.02157 0.6773 0.0
O811 O 0.20912 0.99797 0.6453 0.0
C812 C 0.23814 0.06333 0.62649 0.0
C813 C 0.31468 0.08976 0.63983 0.0
C814 C 0.3256 0.12331 0.6334 0.0
C815 C 0.31702 0.10569 0.62693 0.0
C816 C 0.33316 0.12465 0.65265 0.0
C817 C 0.32258 0.09078 0.65897 0.0
C818 C 0.33204 0.1082 0.66526 0.0
C819 C 0.26198 0.03222 0.59967 0.0
C820 C 0.29964 0.0754 0.63407 0.0
C821 C 0.31235 0.04102 0.7165 0.0
C822 C 0.31614 0.02252 0.70795 0.0
C823 C 0.24753 0.02604 0.6827 0.0
C824 C 0.21424 0.96742 0.66094 0.0
C825 C 0.19649 0.96949 0.67183 0.0
C826 C 0.18622 0.9527 0.67883 0.0
C827 C 0.19408 0.9338 0.67509 0.0
C828 C 0.22175 0.94841 0.65754 0.0
C829 C 0.21173 0.93172 0.66463 0.0
C830 C 0.22862 0.06246 0.66907 0.0
C831 C 0.22192 0.98403 0.64896 0.0
H832 H 0.3104 0.10507 0.6123 0.0
H833 H 0.33973 0.13835 0.65789 0.0
H834 H 0.32069 0.0786 0.66921 0.0
H835 H 0.33778 0.10921 0.68015 0.0
H836 H 0.19024 0.98407 0.67418 0.0
H837 H 0.18628 0.92055 0.67981 0.0
H838 H 0.2348 0.94641 0.64851 0.0
H839 H 0.21735 0.91706 0.66147 0.0
Eu840 Eu 0.23998 0.02339 0.89904 0.0
C841 C 0.2802 0.96533 0.84774 0.0
C842 C 0.25731 0.93762 0.84407 0.0
C843 C 0.28072 0.94495 0.81803 0.0
C844 C 0.26501 0.9535 0.85555 0.0
C845 C 0.28866 0.96047 0.82929 0.0
C846 C 0.26493 0.93377 0.82526 0.0
C847 C 0.3128 0.98654 0.83415 0.0
N848 N 0.28724 0.98112 0.85825 0.0
C849 C 0.30394 0.99108 0.85214 0.0
C850 C 0.30501 0.97133 0.82258 0.0
Eu851 Eu 0.27283 0.98591 0.88979 0.0
N852 N 0.25827 0.95686 0.87431 0.0
C853 C 0.24421 0.94417 0.88205 0.0
C854 C 0.2424 0.92562 0.85184 0.0
C855 C 0.236 0.9288 0.87093 0.0
H856 H 0.30998 1.00304 0.86092 0.0
H857 H 0.22461 0.91937 0.8772 0.0
H858 H 0.25906 0.92173 0.81639 0.0
H859 H 0.32563 0.99481 0.8292 0.0
H860 H 0.23827 0.94541 0.89659 0.0
H861 H 0.30401 0.07087 0.88429 0.0
H862 H 0.23603 0.91354 0.84336 0.0
H863 H 0.21696 1.01349 0.94327 0.0
H864 H 0.27995 0.0442 0.87697 0.0
H865 H 0.21584 0.02785 0.97616 0.0
H866 H 0.28681 0.94135 0.80371 0.0
H867 H 0.30316 0.08801 0.91649 0.0
H868 H 0.28795 0.09155 0.94994 0.0
H869 H 0.31186 0.96795 0.80855 0.0
H870 H 0.26392 0.0801 0.97463 0.0
N871 N 0.26563 0.04632 0.90472 0.0
C872 C 0.27942 0.05156 0.89105 0.0
C873 C 0.29259 0.07628 0.9134 0.0
C874 C 0.27865 0.07053 0.92754 0.0
C875 C 0.29311 0.06663 0.89519 0.0
C876 C 0.26527 0.05513 0.92284 0.0
H877 H 0.23733 0.05631 0.98464 0.0
N878 N 0.23987 0.03287 0.93268 0.0
C879 C 0.22609 0.03375 0.96537 0.0
C880 C 0.2519 0.04842 0.93705 0.0
C881 C 0.22707 0.02544 0.94658 0.0
C882 C 0.23815 0.04988 0.97003 0.0
C883 C 0.25132 0.05734 0.9559 0.0
O884 O 0.2097 0.02484 0.90924 0.0
O885 O 0.24159 0.99399 0.88624 0.0
O886 O 0.26857 1.00423 0.85868 0.0
O887 O 0.2483 0.03093 0.86394 0.0
O888 O 0.2244 1.01412 0.87094 0.0
O889 O 0.22369 0.05138 0.89736 0.0
O890 O 0.30443 0.99194 0.89583 0.0
O891 O 0.26804 1.01079 0.91389 0.0
O892 O 0.22994 0.99525 0.91666 0.0
O893 O 0.25345 0.97057 0.91107 0.0
O894 O 0.2772 0.98412 0.92425 0.0
O895 O 0.29288 0.96161 0.89083 0.0
C896 C 0.23076 0.99609 0.87122 0.0
C897 C 0.18854 0.05045 0.90015 0.0
C898 C 0.16364 0.05768 0.87572 0.0
C899 C 0.18305 0.05231 0.88033 0.0
C900 C 0.14986 0.06123 0.8908 0.0
C901 C 0.17475 0.05395 0.91518 0.0
C902 C 0.15543 0.05936 0.91048 0.0
C903 C 0.25875 0.01978 0.85062 0.0
C904 C 0.20809 0.04374 0.90592 0.0
C905 C 0.26419 0.07309 0.96026 0.0
C906 C 0.27788 0.07959 0.94619 0.0
C907 C 0.27205 1.00144 0.93099 0.0
C908 C 0.32401 0.96362 0.9066 0.0
C909 C 0.32112 0.94462 0.9148 0.0
C910 C 0.33706 0.93415 0.92286 0.0
C911 C 0.35595 0.9429 0.92319 0.0
C912 C 0.34301 0.9721 0.90684 0.0
C913 C 0.35888 0.9618 0.91522 0.0
C914 C 0.23748 0.97722 0.92003 0.0
C915 C 0.30838 0.9728 0.89456 0.0
H916 H 0.19366 0.04953 0.86869 0.0
H917 H 0.13483 0.06564 0.88727 0.0
H918 H 0.17891 0.05232 0.93056 0.0
H919 H 0.1448 0.06209 0.92206 0.0
H920 H 0.30663 0.93762 0.91441 0.0
H921 H 0.3685 0.9349 0.92919 0.0
H922 H 0.34571 0.98637 0.89995 0.0
H923 H 0.37357 0.96829 0.9151 0.0
Eu924 Eu 0.27224 0.98485 0.14687 0.0
C925 C 0.33693 0.03096 0.10533 0.0
C926 C 0.36652 1.01067 0.10669 0.0
C927 C 0.3628 0.03489 0.08053 0.0
C928 C 0.34793 1.0162 0.11476 0.0
C929 C 0.34452 0.04058 0.08833 0.0
C930 C 0.37374 0.02001 0.08966 0.0
C931 C 0.31585 0.06174 0.088 0.0
N932 N 0.31902 0.03623 0.11274 0.0
C933 C 0.30877 0.05183 0.10463 0.0
C934 C 0.33368 0.05593 0.07966 0.0
Eu935 Eu 0.30809 1.01941 0.14166 0.0
N936 N 0.34046 1.00689 0.13118 0.0
C937 C 0.35101 0.99109 0.13892 0.0
C938 C 0.37734 0.99554 0.11556 0.0
C939 C 0.36947 0.98564 0.13161 0.0
H940 H 0.29465 0.05621 0.11065 0.0
H941 H 0.37734 0.97324 0.13805 0.0
H942 H 0.38783 1.01574 0.08336 0.0
H943 H 0.30742 0.07373 0.08151 0.0
H944 H 0.34557 0.98125 0.15004 0.0
H945 H 0.22694 0.05098 0.14138 0.0
H946 H 0.39152 0.99092 0.10972 0.0
H947 H 0.27542 0.95 0.18311 0.0
H948 H 0.25301 0.02735 0.13092 0.0
H949 H 0.26011 0.94324 0.21528 0.0
H950 H 0.36867 0.04202 0.06743 0.0
H951 H 0.20901 0.04538 0.17272 0.0
H952 H 0.20371 0.02447 0.203 0.0
H953 H 0.33907 0.06356 0.06664 0.0
H954 H 0.21289 0.99547 0.22307 0.0
N955 N 0.24998 1.00939 0.15642 0.0
C956 C 0.24537 0.02515 0.14475 0.0
C957 C 0.22051 0.03517 0.16831 0.0
C958 C 0.22528 1.01877 0.1801 0.0
C959 C 0.23063 0.0384 0.1506 0.0
C960 C 0.24037 1.00594 0.17372 0.0
H961 H 0.23424 0.96557 0.22809 0.0
N962 N 0.26007 0.97729 0.17861 0.0
C963 C 0.25603 0.95641 0.20707 0.0
C964 C 0.24562 0.98955 0.18515 0.0
C965 C 0.26498 0.96056 0.18898 0.0
C966 C 0.24137 0.96899 0.21419 0.0
C967 C 0.23577 0.98561 0.20309 0.0
O968 O 0.2646 0.95371 0.14483 0.0
O969 O 0.29655 0.99278 0.12756 0.0
O970 O 0.29291 1.0165 0.10834 0.0
O971 O 0.26803 0.99385 0.11138 0.0
O972 O 0.2977 0.96484 0.13961 0.0
O973 O 0.24388 0.9756 0.13381 0.0
O974 O 0.29543 0.0496 0.14685 0.0
O975 O 0.28276 1.01247 0.16502 0.0
O976 O 0.29651 0.97437 0.16804 0.0
O977 O 0.32138 0.99814 0.16346 0.0
O978 O 0.3094 0.02118 0.17619 0.0
O979 O 0.32781 0.04318 0.14654 0.0
C980 C 0.3056 0.97639 0.12658 0.0
C981 C 0.23156 0.94363 0.1426 0.0
C982 C 0.21217 0.91428 0.13493 0.0
C983 C 0.2252 0.92937 0.12909 0.0
C984 C 0.20557 0.91362 0.15458 0.0
C985 C 0.2244 0.94323 0.16197 0.0
C986 C 0.21157 0.92815 0.16798 0.0
C987 C 0.27839 1.00605 0.09895 0.0
C988 C 0.24756 0.95682 0.13649 0.0
C989 C 0.22062 0.99829 0.20936 0.0
C990 C 0.2154 1.01481 0.19792 0.0
C991 C 0.29187 1.01598 0.1825 0.0
C992 C 0.32006 0.07583 0.15577 0.0
C993 C 0.33704 0.0766 0.16776 0.0
C994 C 0.34901 0.09363 0.16831 0.0
C995 C 0.34223 0.11087 0.15868 0.0
C996 C 0.31342 0.09307 0.14639 0.0
C997 C 0.3243 0.11066 0.14822 0.0
C998 C 0.31423 0.98191 0.17202 0.0
C999 C 0.31377 0.05636 0.14849 0.0
H1000 H 0.23064 0.92992 0.11405 0.0
H1001 H 0.1959 0.90181 0.15963 0.0
H1002 H 0.22884 0.95428 0.17251 0.0
H1003 H 0.20643 0.92759 0.18307 0.0
H1004 H 0.34187 0.06321 0.17518 0.0
H1005 H 0.3511 0.12427 0.15844 0.0
H1006 H 0.3007 0.09262 0.1366 0.0
H1007 H 0.3195 0.12386 0.14048 0.0
Eu1008 Eu 0.38813 0.26881 0.05431 0.0
C1009 C 0.43386 0.33201 1.01816 0.0
C1010 C 0.43308 0.35993 0.04062 0.0
C1011 C 0.46306 0.35289 0.02237 0.0
C1012 C 0.42366 0.34335 0.03186 0.0
C1013 C 0.45313 0.33764 1.01229 0.0
C1014 C 0.45312 0.36386 0.03672 0.0
C1015 C 0.45048 0.31445 0.98527 0.0
N1016 N 0.42425 0.31679 1.00904 0.0
C1017 C 0.43153 0.3092 0.99173 0.0
C1018 C 0.46157 0.3283 0.99593 0.0
Eu1019 Eu 0.39279 0.30818 0.0224 0.0
N1020 N 0.40397 0.33979 0.03464 0.0
C1021 C 0.3925 0.35439 0.04285 0.0
C1022 C 0.42176 0.37298 0.05186 0.0
C1023 C 0.40127 0.37063 0.0523 0.0
H1024 H 0.42323 0.29807 0.98371 0.0
H1025 H 0.39218 0.38149 0.05966 0.0
H1026 H 0.46066 0.37623 0.0437 0.0
H1027 H 0.45659 0.30769 0.97218 0.0
H1028 H 0.37653 0.35378 0.04246 0.0
H1029 H 0.40318 0.22507 0.98812 0.0
H1030 H 0.42848 0.38574 0.05896 0.0
H1031 H 0.3428 0.27623 0.07666 0.0
H1032 H 0.40909 0.25218 1.01181 0.0
H1033 H 0.31179 0.25803 0.07994 0.0
H1034 H 0.47812 0.35693 1.01853 0.0
H1035 H 0.37344 0.20377 0.99128 0.0
H1036 H 0.34178 0.19583 1.00891 0.0
H1037 H 0.4763 0.33227 0.99096 0.0
H1038 H 0.31738 0.20436 0.0343 0.0
N1039 N 0.38301 0.24625 0.02829 0.0
C1040 C 0.39609 0.24302 1.01339 0.0
C1041 C 0.3759 0.2157 1.0017 0.0
C1042 C 0.36222 0.2195 1.01665 0.0
C1043 C 0.39272 0.2277 0.99988 0.0
C1044 C 0.36603 0.23531 0.02971 0.0
H1045 H 0.30595 0.22758 0.06056 0.0
N1046 N 0.35502 0.25683 0.05484 0.0
C1047 C 0.3229 0.25291 0.06968 0.0
C1048 C 0.35189 0.24046 0.04368 0.0
C1049 C 0.34061 0.2634 0.06746 0.0
C1050 C 0.31975 0.23566 0.05885 0.0
C1051 C 0.33414 0.2294 0.04543 0.0
O1052 O 0.37775 0.26475 0.08399 0.0
O1053 O 0.39953 0.2989 0.05238 0.0
O1054 O 0.42535 0.2913 0.02455 0.0
O1055 O 0.4227 0.26333 0.04378 0.0
O1056 O 0.41647 0.28014 0.06911 0.0
O1057 O 0.39451 0.24094 0.07038 0.0
O1058 O 0.38635 0.30129 0.99081 0.0
O1059 O 0.37007 0.28171 0.02756 0.0
O1060 O 0.37111 0.29468 0.06895 0.0
O1061 O 0.37309 0.32035 0.04612 0.0
O1062 O 0.35836 0.30895 0.02152 0.0
O1063 O 0.38647 0.33195 1.00307 0.0
C1064 C 0.41508 0.29814 0.0627 0.0
C1065 C 0.38788 0.2398 0.10551 0.0
C1066 C 0.40933 0.23257 0.13319 0.0
C1067 C 0.40702 0.23721 0.11313 0.0
C1068 C 0.39261 0.23034 0.14532 0.0
C1069 C 0.37131 0.23736 0.11776 0.0
C1070 C 0.37369 0.23267 0.13759 0.0
C1071 C 0.43479 0.27564 0.03311 0.0
C1072 C 0.38398 0.24666 0.08549 0.0
C1073 C 0.3309 0.21301 0.03315 0.0
C1074 C 0.3448 0.20818 1.01868 0.0
C1075 C 0.3525 0.29097 0.0254 0.0
C1076 C 0.37758 0.33002 0.96926 0.0
C1077 C 0.36866 0.34881 0.97029 0.0
C1078 C 0.36434 0.35945 0.95317 0.0
C1079 C 0.36865 0.35118 0.93472 0.0
C1080 C 0.38187 0.32182 0.9508 0.0
C1081 C 0.37737 0.33241 0.93357 0.0
C1082 C 0.36599 0.31259 0.06254 0.0
C1083 C 0.38406 0.32052 0.98767 0.0
H1084 H 0.41987 0.23897 0.10372 0.0
H1085 H 0.39421 0.22632 0.16074 0.0
H1086 H 0.35645 0.23944 0.11201 0.0
H1087 H 0.36087 0.23083 0.14697 0.0
H1088 H 0.36527 0.3554 0.98447 0.0
H1089 H 0.36546 0.35931 0.92129 0.0
H1090 H 0.38912 0.30756 0.94972 0.0
H1091 H 0.38091 0.32619 0.91931 0.0
Eu1092 Eu 0.0247 0.90061 0.23852 0.0
C1093 C 0.96495 0.85149 0.27735 0.0
C1094 C 0.93837 0.84883 0.25325 0.0
C1095 C 0.94503 0.82131 0.27529 0.0
C1096 C 0.95389 0.85997 0.26211 0.0
C1097 C 0.95969 0.83258 0.28481 0.0
C1098 C 0.93464 0.82929 0.25934 0.0
C1099 C 0.98223 0.83798 0.312 0.0
N1100 N 0.97982 0.86217 0.28592 0.0
C1101 C 0.98779 0.85609 0.30361 0.0
C1102 C 0.96859 0.82589 0.30224 0.0
Eu1103 Eu 0.9868 0.89363 0.27147 0.0
N1104 N 0.95707 0.87938 0.25711 0.0
C1105 C 0.94359 0.88862 0.2449 0.0
C1106 C 0.92631 0.85787 0.23915 0.0
C1107 C 0.9286 0.87796 0.23538 0.0
H1108 H 0.99902 0.86489 0.3109 0.0
H1109 H 0.91863 0.8854 0.22526 0.0
H1110 H 0.92296 0.82059 0.2525 0.0
H1111 H 0.98888 0.83312 0.32572 0.0
H1112 H 0.94362 0.90423 0.24209 0.0
H1113 H 0.07102 0.88347 0.30266 0.0
H1114 H 0.91448 0.84973 0.23189 0.0
H1115 H 1.01639 0.94602 0.21656 0.0
H1116 H 0.04399 0.87753 0.27885 0.0
H1117 H 0.03275 0.97821 0.21513 0.0
H1118 H 0.94116 0.80662 0.28057 0.0
H1119 H 0.09019 0.91477 0.30143 0.0
H1120 H 0.09578 0.94807 0.28594 0.0
H1121 H 0.96463 0.81166 0.30857 0.0
H1122 H 0.08566 0.97351 0.26198 0.0
N1123 N 0.04776 0.90518 0.26424 0.0
C1124 C 0.05217 0.89124 0.27812 0.0
C1125 C 0.07826 0.91231 0.29096 0.0
C1126 C 0.07335 0.92677 0.27698 0.0
C1127 C 0.06747 0.8946 0.2917 0.0
C1128 C 0.05764 0.92289 0.26377 0.0
H1129 H 0.06215 0.98496 0.23585 0.0
N1130 N 0.03572 0.93404 0.23877 0.0
C1131 C 0.03823 0.96695 0.22515 0.0
C1132 C 0.05166 0.93754 0.25049 0.0
C1133 C 0.02881 0.94854 0.22629 0.0
C1134 C 0.05487 0.97064 0.23677 0.0
C1135 C 0.06167 0.95599 0.24977 0.0
O1136 O 0.02712 0.91162 0.20876 0.0
O1137 O 0.99473 0.8887 0.24068 0.0
O1138 O 1.00482 0.8621 0.26946 0.0
O1139 O 0.03022 0.86545 0.24707 0.0
O1140 O 1.01368 0.87249 0.22343 0.0
O1141 O 0.05242 0.89689 0.22214 0.0
O1142 O 0.99267 0.89971 0.30304 0.0
O1143 O 1.01258 0.91676 0.26605 0.0
O1144 O 0.99794 0.91813 0.22652 0.0
O1145 O 0.97348 0.91515 0.25048 0.0
O1146 O 0.98613 0.92812 0.27464 0.0
O1147 O 0.96214 0.89847 0.29017 0.0
C1148 C 0.99582 0.87335 0.23019 0.0
C1149 C 0.05128 0.90099 0.18708 0.0
C1150 C 0.06057 0.87696 0.16271 0.0
C1151 C 0.05588 0.88143 0.1822 0.0
C1152 C 0.06061 0.89186 0.14817 0.0
C1153 C 0.05135 0.91588 0.17254 0.0
C1154 C 0.05599 0.91129 0.15311 0.0
C1155 C 0.01917 0.85311 0.25877 0.0
C1156 C 0.04554 0.90661 0.20688 0.0
C1157 C 0.0778 0.95947 0.26238 0.0
C1158 C 0.08354 0.94497 0.27602 0.0
C1159 C 1.00368 0.93421 0.26955 0.0
C1160 C 0.9638 0.90537 0.32462 0.0
C1161 C 0.94441 0.91264 0.32417 0.0
C1162 C 0.93397 0.91557 0.34158 0.0
C1163 C 0.94302 0.9114 0.35977 0.0
C1164 C 0.97282 0.90105 0.34278 0.0
C1165 C 0.96238 0.90406 0.36033 0.0
C1166 C 0.9805 0.92302 0.23409 0.0
C1167 C 0.97333 0.90071 0.30588 0.0
H1168 H 0.05576 0.86986 0.19334 0.0
H1169 H 0.06436 0.88841 0.13302 0.0
H1170 H 0.04767 0.93105 0.17623 0.0
H1171 H 0.05603 0.92275 0.14191 0.0
H1172 H 0.93731 0.91616 0.31021 0.0
H1173 H 0.93509 0.91372 0.37343 0.0
H1174 H 0.98763 0.89497 0.34338 0.0
H1175 H 0.96924 0.90058 0.37436 0.0
Eu1176 Eu 0.14921 0.77167 0.55031 0.0
C1177 C 0.1067 0.70282 0.51084 0.0
C1178 C 0.10602 0.67486 0.53357 0.0
C1179 C 0.08111 0.67734 0.50783 0.0
C1180 C 0.1152 0.69256 0.5268 0.0
C1181 C 0.08966 0.69511 0.50127 0.0
C1182 C 0.08922 0.66729 0.52391 0.0
C1183 C 0.0903 0.7231 0.47901 0.0
N1184 N 0.11466 0.72042 0.50486 0.0
C1185 C 0.10704 0.73028 0.48879 0.0
C1186 C 0.08151 0.7055 0.48532 0.0
Eu1187 Eu 0.14382 0.73052 0.5217 0.0
N1188 N 0.1314 0.70031 0.53643 0.0
C1189 C 0.13771 0.6915 0.55369 0.0
C1190 C 0.11345 0.66546 0.55036 0.0
C1191 C 0.12914 0.67397 0.56057 0.0
H1192 H 0.11351 0.74416 0.48399 0.0
H1193 H 0.13445 0.66721 0.5741 0.0
H1194 H 0.08216 0.65376 0.52899 0.0
H1195 H 0.08413 0.73119 0.46664 0.0
H1196 H 0.14882 0.69777 0.56317 0.0
H1197 H 0.15509 0.81072 0.4804 0.0
H1198 H 0.10672 0.65197 0.55598 0.0
H1199 H 0.17772 0.77354 0.59107 0.0
H1200 H 0.13957 0.78797 0.50486 0.0
H1201 H 0.20954 0.78875 0.60133 0.0
H1202 H 0.06804 0.67131 0.50066 0.0
H1203 H 0.18733 0.82664 0.48799 0.0
H1204 H 0.21538 0.83199 0.5119 0.0
H1205 H 0.06844 0.70002 0.47774 0.0
H1206 H 0.23028 0.82573 0.54447 0.0
N1207 N 0.16324 0.79081 0.52527 0.0
C1208 C 0.1538 0.79474 0.50794 0.0
C1209 C 0.18073 0.81655 0.49859 0.0
C1210 C 0.19007 0.81272 0.51669 0.0
C1211 C 0.1625 0.80759 0.49423 0.0
C1212 C 0.18079 0.79965 0.53003 0.0
H1213 H 0.22835 0.80954 0.57777 0.0
N1214 N 0.17957 0.7843 0.5616 0.0
C1215 C 0.20408 0.79083 0.58643 0.0
C1216 C 0.18921 0.79621 0.54859 0.0
C1217 C 0.18623 0.78209 0.58054 0.0
C1218 C 0.21464 0.80257 0.57308 0.0
C1219 C 0.20708 0.80569 0.55403 0.0
O1220 O 0.13797 0.78242 0.57787 0.0
O1221 O 0.13062 0.74586 0.54681 0.0
O1222 O 0.1099 0.74398 0.5248 0.0
O1223 O 0.11393 0.77409 0.5394 0.0
O1224 O 0.14396 0.75014 0.57446 0.0
O1225 O 0.14031 0.80295 0.55338 0.0
O1226 O 0.14882 0.73737 0.49011 0.0
O1227 O 0.16592 0.75753 0.52446 0.0
O1228 O 0.17143 0.74868 0.56366 0.0
O1229 O 0.16498 0.71993 0.54508 0.0
O1230 O 0.17851 0.73051 0.51983 0.0
O1231 O 0.15054 0.70661 0.50235 0.0
C1232 C 0.13082 0.74008 0.56468 0.0
C1233 C 0.14078 0.81519 0.58654 0.0
C1234 C 0.13358 0.82552 0.6198 0.0
C1235 C 0.12765 0.81673 0.60222 0.0
C1236 C 0.15252 0.83396 0.62146 0.0
C1237 C 0.15963 0.82393 0.58785 0.0
C1238 C 0.16539 0.83349 0.6053 0.0
C1239 C 0.10092 0.76073 0.53131 0.0
C1240 C 0.13548 0.80047 0.57181 0.0
C1241 C 0.21655 0.81833 0.54054 0.0
C1242 C 0.20805 0.82189 0.52198 0.0
C1243 C 0.18368 0.74889 0.52267 0.0
C1244 C 0.15687 0.70944 0.4678 0.0
C1245 C 0.16678 0.69112 0.46754 0.0
C1246 C 0.16958 0.68087 0.44981 0.0
C1247 C 0.16249 0.68932 0.43216 0.0
C1248 C 0.15001 0.7177 0.45009 0.0
C1249 C 0.15283 0.70762 0.43233 0.0
C1250 C 0.17436 0.7295 0.55946 0.0
C1251 C 0.15155 0.71823 0.48683 0.0
H1252 H 0.11324 0.80952 0.60136 0.0
H1253 H 0.1573 0.84074 0.63516 0.0
H1254 H 0.17004 0.82273 0.57584 0.0
H1255 H 0.18005 0.83994 0.60653 0.0
H1256 H 0.17212 0.68466 0.48122 0.0
H1257 H 0.16403 0.68158 0.41827 0.0
H1258 H 0.14187 0.73151 0.45006 0.0
H1259 H 0.14716 0.71382 0.4187 0.0
Eu1260 Eu 0.98073 0.64406 0.76826 0.0
C1261 C 0.04576 0.60072 0.73978 0.0
C1262 C 0.06455 0.60641 0.76985 0.0
C1263 C 0.07023 0.57662 0.75049 0.0
C1264 C 0.05014 0.61252 0.75608 0.0
C1265 C 0.05582 0.58268 0.73681 0.0
C1266 C 0.07459 0.58844 0.76695 0.0
C1267 C 0.03712 0.57821 0.70662 0.0
N1268 N 0.03185 0.60696 0.72672 0.0
C1269 C 0.02763 0.59625 0.7101 0.0
C1270 C 0.05125 0.57137 0.72007 0.0
Eu1271 Eu 1.01843 0.6384 0.73319 0.0
N1272 N 0.04039 0.62996 0.75847 0.0
C1273 C 0.04403 0.64192 0.7742 0.0
C1274 C 0.06851 0.61864 0.7861 0.0
C1275 C 0.05815 0.63642 0.78831 0.0
H1276 H 1.01729 0.60182 0.69922 0.0
H1277 H 0.06112 0.64593 0.80083 0.0
H1278 H 0.08579 0.58356 0.77734 0.0
H1279 H 0.0337 0.56975 0.69349 0.0
H1280 H 0.03607 0.65568 0.77579 0.0
H1281 H 0.90935 0.64227 0.72642 0.0
H1282 H 0.07951 0.61448 0.797 0.0
H1283 H 0.99109 0.67642 0.80584 0.0
H1284 H 0.93625 0.62692 0.74436 0.0
H1285 H 0.98036 0.70939 0.81685 0.0
H1286 H 0.07816 0.56284 0.74844 0.0
H1287 H 0.90407 0.67834 0.72835 0.0
H1288 H 0.9122 0.7103 0.74461 0.0
H1289 H 0.05867 0.55744 0.71729 0.0
H1290 H 0.93049 0.72825 0.77031 0.0
N1291 N 0.94948 0.65438 0.75417 0.0
C1292 C 0.93565 0.64286 0.7445 0.0
C1293 C 0.91668 0.6718 0.73582 0.0
C1294 C 0.92896 0.68315 0.748 0.0
C1295 C 0.91964 0.65146 0.73464 0.0
C1296 C 0.94538 0.67399 0.75732 0.0
H1297 H 0.95481 0.72757 0.79804 0.0
N1298 N 0.97164 0.67565 0.7809 0.0
C1299 C 0.97357 0.70268 0.80399 0.0
C1300 C 0.95625 0.68459 0.77143 0.0
C1301 C 0.97943 0.68386 0.79781 0.0
C1302 C 0.95918 0.71288 0.79331 0.0
C1303 C 0.95016 0.70383 0.77701 0.0
O1304 O 0.98608 0.64073 0.80028 0.0
O1305 O 1.00518 0.62111 0.75936 0.0
O1306 O 0.99498 0.61542 0.72409 0.0
O1307 O 0.96901 0.62229 0.74581 0.0
O1308 O 0.98491 0.61052 0.77744 0.0
O1309 O 0.95582 0.63847 0.78677 0.0
O1310 O 0.02357 0.64195 0.70198 0.0
O1311 O 0.99298 0.65673 0.74115 0.0
O1312 O 0.99828 0.67643 0.76579 0.0
O1313 O 0.02283 0.67351 0.74279 0.0
O1314 O 0.99351 0.64524 0.71254 0.0
O1315 O 0.04702 0.65011 0.72251 0.0
C1316 C 0.99974 0.60376 0.76742 0.0
C1317 C 0.95718 0.63412 0.82177 0.0
C1318 C 0.92808 0.62192 0.83944 0.0
C1319 C 0.93918 0.62347 0.82204 0.0
C1320 C 0.93525 0.63124 0.85663 0.0
C1321 C 0.96419 0.64304 0.83908 0.0
C1322 C 0.95319 0.64163 0.85643 0.0
C1323 C 0.9768 0.61236 0.73092 0.0
C1324 C 0.96676 0.63833 0.80283 0.0
C1325 C 0.93488 0.71327 0.76662 0.0
C1326 C 0.92448 0.70304 0.75197 0.0
C1327 C 0.98398 0.65627 0.72473 0.0
C1328 C 0.05521 0.64487 0.68839 0.0
C1329 C 0.06057 0.66057 0.67605 0.0
C1330 C 0.06948 0.65688 0.65782 0.0
C1331 C 0.07346 0.63721 0.65226 0.0
C1332 C 0.05983 0.62538 0.68301 0.0
C1333 C 0.06883 0.62158 0.66493 0.0
C1334 C 1.01273 0.68574 0.75516 0.0
C1335 C 0.04123 0.64931 0.70413 0.0
H1336 H 0.93373 0.61654 0.80865 0.0
H1337 H 0.92681 0.63077 0.87019 0.0
H1338 H 0.9777 0.65178 0.83899 0.0
H1339 H 0.9584 0.64893 0.86968 0.0
H1340 H 0.057 0.67563 0.68031 0.0
H1341 H 0.07978 0.63388 0.63798 0.0
H1342 H 0.05619 0.61312 0.69243 0.0
H1343 H 0.07181 0.60646 0.66052 0.0
Eu1344 Eu 0.14696 0.2322 0.51973 0.0
C1345 C 0.18888 0.29301 0.48555 0.0
C1346 C 0.18545 0.31133 0.51613 0.0
C1347 C 0.21467 0.31613 0.4957 0.0
C1348 C 0.17799 0.29756 0.50237 0.0
C1349 C 0.20721 0.30244 0.48196 0.0
C1350 C 0.20385 0.32053 0.51275 0.0
C1351 C 0.20931 0.28437 0.45124 0.0
N1352 N 0.18156 0.27944 0.47269 0.0
C1353 C 0.19115 0.27533 0.45546 0.0
C1354 C 0.21746 0.29787 0.46462 0.0
Eu1355 Eu 0.15073 0.26563 0.48111 0.0
N1356 N 0.16032 0.28827 0.50545 0.0
C1357 C 0.1492 0.29215 0.52167 0.0
C1358 C 0.17419 0.31537 0.53297 0.0
C1359 C 0.15599 0.30576 0.53572 0.0
H1360 H 0.1848 0.26505 0.44495 0.0
H1361 H 0.14722 0.30882 0.54869 0.0
H1362 H 0.20984 0.33113 0.5232 0.0
H1363 H 0.21698 0.28093 0.43769 0.0
H1364 H 0.13522 0.28461 0.52378 0.0
H1365 H 0.14711 0.15562 0.48889 0.0
H1366 H 0.17941 0.32586 0.54391 0.0
H1367 H 0.11761 0.24697 0.55806 0.0
H1368 H 0.16262 0.18613 0.49941 0.0
H1369 H 0.08532 0.23781 0.57227 0.0
H1370 H 0.22878 0.32342 0.49326 0.0
H1371 H 0.11175 0.14942 0.49539 0.0
H1372 H 0.08075 0.15975 0.51171 0.0
H1373 H 0.23158 0.30481 0.46135 0.0
H1374 H 0.06392 0.18198 0.53461 0.0
N1375 N 0.13578 0.19975 0.50987 0.0
C1376 C 0.14689 0.18494 0.50145 0.0
C1377 C 0.11833 0.16347 0.49965 0.0
C1378 C 0.10745 0.17759 0.51001 0.0
C1379 C 0.13826 0.16693 0.49592 0.0
C1380 C 0.11667 0.19573 0.51542 0.0
H1381 H 0.0658 0.21043 0.55776 0.0
N1382 N 0.11632 0.22507 0.53534 0.0
C1383 C 0.0911 0.22961 0.55986 0.0
C1384 C 0.10688 0.2085 0.52851 0.0
C1385 C 0.10949 0.23458 0.55191 0.0
C1386 C 0.08009 0.21422 0.55154 0.0
C1387 C 0.08814 0.20308 0.53615 0.0
O1388 O 0.15241 0.23738 0.55162 0.0
O1389 O 0.1698 0.2551 0.50715 0.0
O1390 O 0.17336 0.24222 0.47241 0.0
O1391 O 0.16798 0.21884 0.49737 0.0
O1392 O 0.17973 0.24006 0.5298 0.0
O1393 O 0.15417 0.20742 0.53755 0.0
O1394 O 0.14671 0.27059 0.44981 0.0
O1395 O 0.13264 0.24091 0.49177 0.0
O1396 O 0.11436 0.24955 0.51771 0.0
O1397 O 0.11555 0.26898 0.49014 0.0
O1398 O 0.14342 0.23849 0.4634 0.0
O1399 O 0.13742 0.29324 0.47071 0.0
C1400 C 0.18689 0.25204 0.51665 0.0
C1401 C 0.16078 0.20789 0.57206 0.0
C1402 C 0.17042 0.17682 0.58756 0.0
C1403 C 0.16902 0.18881 0.57084 0.0
C1404 C 0.16436 0.18421 0.60589 0.0
C1405 C 0.15509 0.21535 0.59046 0.0
C1406 C 0.15701 0.20353 0.60735 0.0
C1407 C 0.17719 0.22506 0.48123 0.0
C1408 C 0.15528 0.21806 0.55371 0.0
C1409 C 0.07846 0.18606 0.52917 0.0
C1410 C 0.08806 0.17338 0.51612 0.0
C1411 C 0.13182 0.2304 0.47626 0.0
C1412 C 0.1431 0.3027 0.43739 0.0
C1413 C 0.1294 0.30463 0.42214 0.0
C1414 C 0.13296 0.3177 0.40667 0.0
C1415 C 0.15045 0.329 0.40633 0.0
C1416 C 0.16067 0.31387 0.43723 0.0
C1417 C 0.16434 0.32697 0.42159 0.0
C1418 C 0.10406 0.26108 0.50464 0.0
C1419 C 0.13864 0.28787 0.45226 0.0
H1420 H 0.17337 0.18277 0.55669 0.0
H1421 H 0.16524 0.17501 0.61899 0.0
H1422 H 0.14839 0.22986 0.59164 0.0
H1423 H 0.15226 0.20913 0.6215 0.0
H1424 H 0.11576 0.29602 0.42237 0.0
H1425 H 0.15321 0.33939 0.39444 0.0
H1426 H 0.17142 0.31249 0.44901 0.0
H1427 H 0.17788 0.33561 0.42135 0.0
Eu1428 Eu 0.51893 0.39536 0.22953 0.0
C1429 C 0.54855 0.3508 0.29179 0.0
C1430 C 0.51847 0.35438 0.31095 0.0
C1431 C 0.53831 0.32448 0.31416 0.0
C1432 C 0.53198 0.36185 0.29699 0.0
C1433 C 0.55189 0.33204 0.30041 0.0
C1434 C 0.52169 0.33563 0.31946 0.0
C1435 C 0.58239 0.32994 0.28198 0.0
N1436 N 0.56152 0.35848 0.27855 0.0
C1437 C 0.57861 0.34867 0.27402 0.0
C1438 C 0.56891 0.32151 0.29514 0.0
Eu1439 Eu 0.55341 0.3902 0.26619 0.0
N1440 N 0.52906 0.37988 0.28842 0.0
C1441 C 0.51336 0.39141 0.29332 0.0
C1442 C 0.50216 0.36605 0.31603 0.0
C1443 C 0.49961 0.38465 0.30721 0.0
H1444 H 0.58942 0.35531 0.26426 0.0
H1445 H 0.48709 0.39377 0.31113 0.0
H1446 H 0.51145 0.32964 0.33022 0.0
H1447 H 0.59579 0.32211 0.2781 0.0
H1448 H 0.51148 0.40577 0.28644 0.0
H1449 H 0.55188 0.39735 0.15414 0.0
H1450 H 0.49148 0.36086 0.32679 0.0
H1451 H 0.48241 0.42543 0.24675 0.0
H1452 H 0.54047 0.38075 0.18357 0.0
H1453 H 0.46726 0.45744 0.23807 0.0
H1454 H 0.54063 0.31009 0.32091 0.0
H1455 H 0.54365 0.43236 0.14803 0.0
H1456 H 0.52468 0.46212 0.1576 0.0
H1457 H 0.57194 0.30703 0.30139 0.0
H1458 H 0.50104 0.47807 0.17973 0.0
N1459 N 0.52822 0.40692 0.19712 0.0
C1460 C 0.53766 0.39641 0.18254 0.0
C1461 C 0.53907 0.42537 0.1617 0.0
C1462 C 0.52741 0.43547 0.17531 0.0
C1463 C 0.54378 0.40563 0.16511 0.0
C1464 C 0.52197 0.42584 0.19312 0.0
H1465 H 0.47925 0.47622 0.20915 0.0
N1466 N 0.50288 0.42591 0.2228 0.0
C1467 C 0.47895 0.45144 0.22901 0.0
C1468 C 0.50871 0.43525 0.20591 0.0
C1469 C 0.48739 0.43318 0.2337 0.0
C1470 C 0.48582 0.46201 0.21271 0.0
C1471 C 0.50058 0.45388 0.20079 0.0
O1472 O 0.48775 0.39016 0.23879 0.0
O1473 O 0.52566 0.37275 0.25549 0.0
O1474 O 0.56257 0.36762 0.24272 0.0
O1475 O 0.54248 0.37643 0.21612 0.0
O1476 O 0.51679 0.36049 0.22956 0.0
O1477 O 0.49755 0.38961 0.20732 0.0
O1478 O 0.58454 0.39331 0.27295 0.0
O1479 O 0.54589 0.40896 0.24115 0.0
O1480 O 0.52393 0.42884 0.24392 0.0
O1481 O 0.5435 0.42521 0.27105 0.0
O1482 O 0.57407 0.39755 0.24127 0.0
O1483 O 0.56277 0.40356 0.2942 0.0
C1484 C 0.52237 0.35498 0.24711 0.0
C1485 C 0.46337 0.3831 0.2121 0.0
C1486 C 0.4444 0.37154 0.18362 0.0
C1487 C 0.46227 0.37285 0.19408 0.0
C1488 C 0.42733 0.38018 0.19174 0.0
C1489 C 0.44625 0.39147 0.22009 0.0
C1490 C 0.42827 0.38994 0.20991 0.0
C1491 C 0.55659 0.36558 0.22417 0.0
C1492 C 0.48294 0.38831 0.21993 0.0
C1493 C 0.50692 0.46366 0.18367 0.0
C1494 C 0.5204 0.45457 0.17108 0.0
C1495 C 0.56238 0.40972 0.23232 0.0
C1496 C 0.59584 0.39794 0.30516 0.0
C1497 C 0.60842 0.41353 0.31035 0.0
C1498 C 0.62444 0.41011 0.32283 0.0
C1499 C 0.62791 0.39097 0.33025 0.0
C1500 C 0.59917 0.3788 0.31256 0.0
C1501 C 0.61527 0.37535 0.32509 0.0
C1502 C 0.53293 0.43792 0.25947 0.0
C1503 C 0.58148 0.40195 0.28975 0.0
H1504 H 0.47553 0.36636 0.18788 0.0
H1505 H 0.41336 0.37979 0.18384 0.0
H1506 H 0.44698 0.4 0.2336 0.0
H1507 H 0.41513 0.39683 0.21584 0.0
H1508 H 0.60609 0.42824 0.30424 0.0
H1509 H 0.64056 0.38809 0.33969 0.0
H1510 H 0.58965 0.36658 0.30844 0.0
H1511 H 0.61813 0.36055 0.33056 0.0
Eu1512 Eu 0.3929 0.8026 1.01821 0.0
C1513 C 0.34847 0.73816 0.99949 0.0
C1514 C 0.35682 0.72043 0.02955 0.0
C1515 C 0.3245 0.71563 1.01425 0.0
C1516 C 0.36215 0.73365 1.01433 0.0
C1517 C 0.32957 0.72909 0.99932 0.0
C1518 C 0.33803 0.71137 0.02935 0.0
C1519 C 0.32185 0.74725 0.96955 0.0
N1520 N 0.35348 0.75157 0.9854 0.0
C1521 C 0.34054 0.75608 0.97042 0.0
C1522 C 0.31627 0.73376 0.98411 0.0
Eu1523 Eu 0.38674 0.76244 0.98649 0.0
N1524 N 0.3804 0.74248 1.01419 0.0
C1525 C 0.39363 0.73927 0.02905 0.0
C1526 C 0.37049 0.71678 0.04468 0.0
C1527 C 0.38888 0.72635 0.04451 0.0
H1528 H 0.34451 0.76631 0.95881 0.0
H1529 H 0.39943 0.72375 0.05628 0.0
H1530 H 0.33377 0.70107 0.04088 0.0
H1531 H 0.31174 0.75091 0.95766 0.0
H1532 H 0.4078 0.74664 0.02912 0.0
H1533 H 0.40465 0.86687 0.96804 0.0
H1534 H 0.36692 0.70673 0.05666 0.0
H1535 H 0.42065 0.78891 0.05813 0.0
H1536 H 0.38592 0.84004 0.98183 0.0
H1537 H 0.45237 0.79838 0.07366 0.0
H1538 H 0.31007 0.70852 1.01432 0.0
H1539 H 0.438 0.8748 0.98052 0.0
H1540 H 0.46519 0.86802 1.00403 0.0
H1541 H 0.30169 0.72703 0.98345 0.0
H1542 H 0.47826 0.84944 0.03222 0.0
N1543 N 0.40822 0.83082 1.00281 0.0
C1544 C 0.40034 0.84239 0.98802 0.0
C1545 C 0.42982 0.86253 0.98693 0.0
C1546 C 0.4378 0.85128 1.00231 0.0
C1547 C 0.41102 0.85811 0.97986 0.0
C1548 C 0.42666 0.83523 1.01016 0.0
H1549 H 0.47355 0.82391 0.05822 0.0
N1550 N 0.42392 0.80878 0.03376 0.0
C1551 C 0.44762 0.80559 0.06018 0.0
C1552 C 0.43449 0.82423 0.02598 0.0
C1553 C 0.42961 0.80039 0.0514 0.0
C1554 C 0.45953 0.81999 0.05139 0.0
C1555 C 0.45293 0.82975 0.03438 0.0
O1556 O 0.38716 0.80193 0.05001 0.0
O1557 O 0.37038 0.77692 1.01213 0.0
O1558 O 0.36858 0.78849 0.97325 0.0
O1559 O 0.37101 0.81432 0.99619 0.0
O1560 O 0.35887 0.80038 0.0257 0.0
O1561 O 0.38688 0.83031 0.03276 0.0
O1562 O 0.37947 0.75774 0.95576 0.0
O1563 O 0.3981 0.79277 0.98778 0.0
O1564 O 0.4246 0.78418 1.01747 0.0
O1565 O 0.42157 0.75739 0.99652 0.0
O1566 O 0.41515 0.77293 0.97236 0.0
O1567 O 0.38982 0.73283 0.97353 0.0
C1568 C 0.3528 0.78398 1.01777 0.0
C1569 C 0.38074 0.83292 0.0677 0.0
C1570 C 0.36591 0.8621 0.08255 0.0
C1571 C 0.36965 0.8504 0.06594 0.0
C1572 C 0.37378 0.85642 0.10094 0.0
C1573 C 0.38847 0.82737 0.08612 0.0
C1574 C 0.38509 0.83919 0.10265 0.0
C1575 C 0.36339 0.80629 0.98003 0.0
C1576 C 0.38547 0.82147 0.05001 0.0
C1577 C 0.46401 0.84526 0.02608 0.0
C1578 C 0.45652 0.85589 1.01006 0.0
C1579 C 0.41388 0.79116 0.97806 0.0
C1580 C 0.38845 0.72913 0.93856 0.0
C1581 C 0.40647 0.73383 0.92959 0.0
C1582 C 0.41064 0.726 0.91104 0.0
C1583 C 0.39694 0.71346 0.90155 0.0
C1584 C 0.37473 0.71669 0.92906 0.0
C1585 C 0.37902 0.70883 0.91058 0.0
C1586 C 0.43375 0.76902 1.00788 0.0
C1587 C 0.38241 0.73871 0.95666 0.0
H1588 H 0.36365 0.85476 0.05172 0.0
H1589 H 0.37129 0.86539 0.11393 0.0
H1590 H 0.39748 0.81419 0.08761 0.0
H1591 H 0.39128 0.83502 0.11681 0.0
H1592 H 0.41692 0.74375 0.93677 0.0
H1593 H 0.40015 0.70735 0.88714 0.0
H1594 H 0.36053 0.71342 0.93577 0.0
H1595 H 0.36838 0.69933 0.90319 0.0
Eu1596 Eu 0.98363 0.39418 0.76956 0.0
C1597 C 0.0456 0.44151 0.78966 0.0
C1598 C 0.06342 0.43373 0.75963 0.0
C1599 C 0.06739 0.46617 0.77482 0.0
C1600 C 0.05034 0.42806 0.7748 0.0
C1601 C 0.05418 0.46068 0.78978 0.0
C1602 C 0.07196 0.45278 0.75978 0.0
C1603 C 0.03633 0.46775 0.8197 0.0
N1604 N 0.03258 0.43596 0.80388 0.0
C1605 C 0.02805 0.44878 0.81895 0.0
C1606 C 0.04938 0.47378 0.80501 0.0
Eu1607 Eu 0.02273 0.40201 0.80258 0.0
N1608 N 0.04202 0.40958 0.77497 0.0
C1609 C 0.04592 0.3962 0.76054 0.0
C1610 C 0.06755 0.42006 0.74471 0.0
C1611 C 0.0587 0.40127 0.74512 0.0
H1612 H 1.01847 0.44437 0.83093 0.0
H1613 H 0.06184 0.39065 0.73361 0.0
H1614 H 0.08214 0.45732 0.7483 0.0
H1615 H 0.03269 0.47766 0.83169 0.0
H1616 H 0.03924 0.38163 0.761 0.0
H1617 H 0.90814 0.40816 0.79925 0.0
H1618 H 0.07753 0.42387 0.7328 0.0
H1619 H 0.98972 0.35803 0.7353 0.0
H1620 H 0.93857 0.41769 0.78159 0.0
H1621 H 0.97678 0.32448 0.72817 0.0
H1622 H 0.07415 0.48078 0.77474 0.0
H1623 H 0.90078 0.37278 0.80568 0.0
H1624 H 0.90839 0.33726 0.79792 0.0
H1625 H 0.05576 0.48854 0.80562 0.0
H1626 H 0.92706 0.31389 0.77743 0.0
N1627 N 0.9501 0.38821 0.78078 0.0
C1628 C 0.93597 0.40221 0.7849 0.0
C1629 C 0.91446 0.37691 0.7984 0.0
C1630 C 0.92711 0.36249 0.79082 0.0
C1631 C 0.91852 0.39688 0.79472 0.0
C1632 C 0.94493 0.36868 0.78176 0.0
H1633 H 0.95158 0.30943 0.75002 0.0
N1634 N 0.97156 0.36214 0.76064 0.0
C1635 C 0.97101 0.33279 0.74052 0.0
C1636 C 0.95584 0.35523 0.77096 0.0
C1637 C 0.97814 0.35187 0.74447 0.0
C1638 C 0.95691 0.32431 0.75298 0.0
C1639 C 0.94868 0.33575 0.76805 0.0
O1640 O 0.99597 0.39939 0.73944 0.0
O1641 O 1.00817 0.41844 0.77596 0.0
O1642 O 0.99774 0.42112 0.81458 0.0
O1643 O 0.97124 0.41218 0.79412 0.0
O1644 O 0.98133 0.42899 0.76702 0.0
O1645 O 0.96442 0.39353 0.74488 0.0
O1646 O 0.03419 0.41106 0.83046 0.0
O1647 O 0.99759 0.38285 0.79615 0.0
O1648 O 1.00115 0.36231 0.77323 0.0
O1649 O 0.02667 0.36606 0.79542 0.0
O1650 O 1.00209 0.38939 0.82582 0.0
O1651 O 0.05179 0.3905 0.81326 0.0
C1652 C 0.9987 0.43559 0.77262 0.0
C1653 C 0.9709 0.40757 0.71425 0.0
C1654 C 0.94153 0.42198 0.69887 0.0
C1655 C 0.95338 0.41875 0.71558 0.0
C1656 C 0.94815 0.41532 0.68041 0.0
C1657 C 0.97735 0.40115 0.69572 0.0
C1658 C 0.96611 0.40523 0.67885 0.0
C1659 C 0.97906 0.42222 0.80888 0.0
C1660 C 0.97812 0.39711 0.73184 0.0
C1661 C 0.93237 0.329 0.77895 0.0
C1662 C 0.92171 0.34234 0.79057 0.0
C1663 C 0.99089 0.38012 0.81339 0.0
C1664 C 0.06052 0.39778 0.84756 0.0
C1665 C 0.06176 0.3787 0.85565 0.0
C1666 C 0.06882 0.37653 0.87502 0.0
C1667 C 0.07424 0.39324 0.88618 0.0
C1668 C 0.06648 0.41435 0.85872 0.0
C1669 C 0.07317 0.41208 0.87798 0.0
C1670 C 1.0159 0.3534 0.78368 0.0
C1671 C 0.05093 0.40203 0.82877 0.0
H1672 H 0.9481 0.42348 0.72991 0.0
H1673 H 0.93912 0.41728 0.66731 0.0
H1674 H 0.99029 0.3918 0.69447 0.0
H1675 H 0.97082 0.39966 0.66466 0.0
H1676 H 0.05734 0.36584 0.84711 0.0
H1677 H 0.07989 0.39159 0.90108 0.0
H1678 H 0.06539 0.4292 0.85264 0.0
H1679 H 0.07755 0.42491 0.88655 0.0
Eu1680 Eu 0.39553 0.23575 0.51757 0.0
C1681 C 0.35049 0.29819 0.55087 0.0
C1682 C 0.35165 0.31688 0.52022 0.0
C1683 C 0.32347 0.32032 0.54227 0.0
C1684 C 0.36024 0.30324 0.53341 0.0
C1685 C 0.33216 0.30692 0.55557 0.0
C1686 C 0.33316 0.32526 0.52466 0.0
C1687 C 0.33274 0.2892 0.58667 0.0
N1688 N 0.35907 0.28511 0.56345 0.0
C1689 C 0.35094 0.28099 0.58144 0.0
C1690 C 0.32322 0.3021 0.5736 0.0
Eu1691 Eu 0.38967 0.27272 0.55307 0.0
N1692 N 0.37817 0.29499 0.52941 0.0
C1693 C 0.3885 0.29985 0.5129 0.0
C1694 C 0.36199 0.32182 0.50299 0.0
C1695 C 0.38051 0.31331 0.49935 0.0
H1696 H 0.35851 0.2713 0.59169 0.0
H1697 H 0.3886 0.31714 0.48612 0.0
H1698 H 0.32631 0.33575 0.51465 0.0
H1699 H 0.32616 0.28568 0.60079 0.0
H1700 H 0.40277 0.29315 0.51022 0.0
H1701 H 0.38779 0.16225 0.55479 0.0
H1702 H 0.35588 0.33227 0.49247 0.0
H1703 H 0.42994 0.24189 0.48087 0.0
H1704 H 0.37532 0.19018 0.53552 0.0
H1705 H 0.464 0.23112 0.4737 0.0
H1706 H 0.30934 0.32709 0.54557 0.0
H1707 H 0.4238 0.15732 0.55885 0.0
H1708 H 0.45808 0.16655 0.54842 0.0
H1709 H 0.30913 0.30849 0.57771 0.0
H1710 H 0.47926 0.18529 0.52558 0.0
N1711 N 0.40387 0.20359 0.53119 0.0
C1712 C 0.39106 0.18928 0.53803 0.0
C1713 C 0.4184 0.17013 0.55082 0.0
C1714 C 0.43146 0.18292 0.54112 0.0
C1715 C 0.39809 0.17289 0.54859 0.0
C1716 C 0.42367 0.19951 0.53096 0.0
H1717 H 0.48126 0.20843 0.49666 0.0
N1718 N 0.42768 0.22508 0.50752 0.0
C1719 C 0.45639 0.22542 0.48656 0.0
C1720 C 0.43587 0.21046 0.51858 0.0
C1721 C 0.43698 0.23126 0.49055 0.0
C1722 C 0.46611 0.21273 0.49963 0.0
C1723 C 0.45567 0.20454 0.51549 0.0
O1724 O 0.39204 0.24453 0.48588 0.0
O1725 O 0.37289 0.26093 0.52532 0.0
O1726 O 0.36585 0.25012 0.56095 0.0
O1727 O 0.37335 0.22372 0.53981 0.0
O1728 O 0.3614 0.23746 0.51089 0.0
O1729 O 0.39314 0.21324 0.4963 0.0
O1730 O 0.39772 0.27778 0.58344 0.0
O1731 O 0.40769 0.24713 0.5453 0.0
O1732 O 0.42698 0.25422 0.5188 0.0
O1733 O 0.42488 0.27559 0.54471 0.0
O1734 O 0.39496 0.24753 0.57369 0.0
O1735 O 0.40031 0.30217 0.5626 0.0
C1736 C 0.35528 0.25381 0.51896 0.0
C1737 C 0.38491 0.21671 0.46284 0.0
C1738 C 0.37203 0.18694 0.44716 0.0
C1739 C 0.37401 0.19897 0.46375 0.0
C1740 C 0.37991 0.1933 0.42908 0.0
C1741 C 0.39286 0.22295 0.4448 0.0
C1742 C 0.39015 0.21134 0.42791 0.0
C1743 C 0.36281 0.23192 0.55413 0.0
C1744 C 0.39185 0.22548 0.48135 0.0
C1745 C 0.4639 0.18955 0.52728 0.0
C1746 C 0.45182 0.17884 0.54023 0.0
C1747 C 0.40639 0.2381 0.56171 0.0
C1748 C 0.3987 0.30914 0.59741 0.0
C1749 C 0.41314 0.31024 0.61221 0.0
C1750 C 0.40892 0.3191 0.63029 0.0
C1751 C 0.39009 0.32712 0.63357 0.0
C1752 C 0.38003 0.31759 0.60048 0.0
C1753 C 0.37575 0.3265 0.6186 0.0
C1754 C 0.43665 0.2667 0.5312 0.0
C1755 C 0.4029 0.29614 0.58078 0.0
H1756 H 0.36798 0.19388 0.47771 0.0
H1757 H 0.37861 0.18408 0.41606 0.0
H1758 H 0.40196 0.2362 0.44398 0.0
H1759 H 0.39663 0.21595 0.41405 0.0
H1760 H 0.42761 0.30367 0.60987 0.0
H1761 H 0.38667 0.33421 0.64747 0.0
H1762 H 0.36876 0.31701 0.58914 0.0
H1763 H 0.36127 0.33283 0.62108 0.0
Eu1764 Eu 0.55597 0.64674 0.26723 0.0
C1765 C 0.49269 0.60033 0.29614 0.0
C1766 C 0.47221 0.60466 0.26694 0.0
C1767 C 0.46812 0.57531 0.28753 0.0
C1768 C 0.48733 0.61145 0.27962 0.0
C1769 C 0.4831 0.58215 0.30023 0.0
C1770 C 0.46265 0.58655 0.27097 0.0
C1771 C 0.50289 0.5794 0.32993 0.0
N1772 N 0.50681 0.60753 0.3085 0.0
C1773 C 0.51169 0.59766 0.3255 0.0
C1774 C 0.48856 0.57158 0.31722 0.0
Eu1775 Eu 0.51876 0.63941 0.3005 0.0
N1776 N 0.49657 0.62908 0.27616 0.0
C1777 C 0.49148 0.64077 0.2606 0.0
C1778 C 0.46693 0.61647 0.25073 0.0
C1779 C 0.47662 0.63458 0.24754 0.0
H1780 H 0.52217 0.60398 0.33586 0.0
H1781 H 0.47249 0.64385 0.23515 0.0
H1782 H 0.4509 0.58115 0.26144 0.0
H1783 H 0.50693 0.57154 0.34328 0.0
H1784 H 0.49879 0.65491 0.25847 0.0
H1785 H 0.62274 0.64894 0.31689 0.0
H1786 H 0.45528 0.61182 0.2407 0.0
H1787 H 0.54269 0.68103 0.23347 0.0
H1788 H 0.59034 0.6384 0.30755 0.0
H1789 H 0.55587 0.71162 0.21846 0.0
H1790 H 0.4605 0.56145 0.2905 0.0
H1791 H 0.63923 0.67629 0.29937 0.0
H1792 H 0.63728 0.70327 0.27487 0.0
H1793 H 0.48155 0.55755 0.32083 0.0
H1794 H 0.61864 0.72123 0.24955 0.0
N1795 N 0.58806 0.65642 0.28115 0.0
C1796 C 0.59719 0.64884 0.2978 0.0
C1797 C 0.62498 0.67093 0.29416 0.0
C1798 C 0.61508 0.68029 0.27868 0.0
C1799 C 0.61579 0.65544 0.30399 0.0
C1800 C 0.59639 0.67282 0.2724 0.0
H1801 H 0.58838 0.72475 0.229 0.0
N1802 N 0.56731 0.67699 0.25287 0.0
C1803 C 0.56435 0.70393 0.22966 0.0
C1804 C 0.58561 0.68352 0.25835 0.0
C1805 C 0.55699 0.68658 0.23818 0.0
C1806 C 0.5827 0.71126 0.23564 0.0
C1807 C 0.59364 0.70101 0.24992 0.0
O1808 O 0.54332 0.6425 0.23707 0.0
O1809 O 0.53039 0.62333 0.27276 0.0
O1810 O 0.54316 0.6176 0.30945 0.0
O1811 O 0.56899 0.62371 0.287 0.0
O1812 O 0.5564 0.61219 0.26243 0.0
O1813 O 0.57522 0.6463 0.24278 0.0
O1814 O 0.51086 0.64147 0.33131 0.0
O1815 O 0.54344 0.65898 0.29429 0.0
O1816 O 0.5415 0.67953 0.27255 0.0
O1817 O 0.51426 0.67497 0.29166 0.0
O1818 O 0.54359 0.64551 0.32167 0.0
O1819 O 0.49034 0.65247 0.30908 0.0
C1820 C 0.53894 0.60596 0.26805 0.0
C1821 C 0.56784 0.63096 0.21293 0.0
C1822 C 0.59643 0.61616 0.1969 0.0
C1823 C 0.58646 0.62164 0.21401 0.0
C1824 C 0.58707 0.6183 0.17854 0.0
C1825 C 0.55862 0.63314 0.19449 0.0
C1826 C 0.5681 0.62652 0.1774 0.0
C1827 C 0.56112 0.61417 0.30226 0.0
C1828 C 0.56137 0.64318 0.22964 0.0
C1829 C 0.61235 0.70784 0.25584 0.0
C1830 C 0.62302 0.69751 0.27015 0.0
C1831 C 0.55181 0.65918 0.31109 0.0
C1832 C 0.47784 0.6446 0.34106 0.0
C1833 C 0.47119 0.65939 0.35369 0.0
C1834 C 0.4593 0.65457 0.36984 0.0
C1835 C 0.45335 0.63477 0.37276 0.0
C1836 C 0.47163 0.62492 0.34382 0.0
C1837 C 0.45937 0.62006 0.35966 0.0
C1838 C 0.52587 0.68809 0.28151 0.0
C1839 C 0.49395 0.64992 0.32783 0.0
H1840 H 0.59407 0.62003 0.22805 0.0
H1841 H 0.59467 0.61419 0.16511 0.0
H1842 H 0.54467 0.64092 0.19319 0.0
H1843 H 0.56113 0.62862 0.16315 0.0
H1844 H 0.47624 0.67455 0.35158 0.0
H1845 H 0.44469 0.63054 0.38553 0.0
H1846 H 0.47653 0.61332 0.33415 0.0
H1847 H 0.45504 0.60478 0.36215 0.0
Eu1848 Eu 0.14529 0.76714 0.05459 0.0
C1849 C 0.09997 0.78679 0.99014 0.0
C1850 C 0.10837 0.75746 0.97137 0.0
C1851 C 0.07585 0.7724 0.96752 0.0
C1852 C 0.11371 0.77232 0.98502 0.0
C1853 C 0.08096 0.787 0.98132 0.0
C1854 C 0.08947 0.75765 0.96261 0.0
C1855 C 0.07327 0.81622 1.00024 0.0
N1856 N 0.10505 0.80054 1.00383 0.0
C1857 C 0.09206 0.8153 1.00881 0.0
C1858 C 0.06762 0.80193 0.98652 0.0
Eu1859 Eu 0.13834 0.79936 1.0148 0.0
N1860 N 0.13205 0.77247 0.99359 0.0
C1861 C 0.14535 0.75786 0.98973 0.0
C1862 C 0.12215 0.74269 0.967 0.0
C1863 C 0.14063 0.74281 0.97633 0.0
H1864 H 0.09596 0.82666 1.01932 0.0
H1865 H 0.15125 0.73127 0.97321 0.0
H1866 H 0.0852 0.74638 0.95202 0.0
H1867 H 0.06314 0.8279 1.00432 0.0
H1868 H 0.15954 0.75761 0.99699 0.0
H1869 H 0.15133 0.81836 0.11908 0.0
H1870 H 0.11859 0.73101 0.95661 0.0
H1871 H 0.17607 0.7289 0.04363 0.0
H1872 H 0.13364 0.80088 0.09408 0.0
H1873 H 0.20853 0.71613 0.0542 0.0
H1874 H 0.06134 0.77234 0.96062 0.0
H1875 H 0.1863 0.81097 0.12598 0.0
H1876 H 0.21563 0.79017 0.11984 0.0
H1877 H 0.05296 0.80259 0.98 0.0
H1878 H 0.23086 0.76204 0.10303 0.0
N1879 N 0.15854 0.78385 0.08343 0.0
C1880 C 0.14903 0.79738 0.09528 0.0
C1881 C 0.17869 0.8032 0.11417 0.0
C1882 C 0.18809 0.78839 0.10341 0.0
C1883 C 0.15901 0.80744 0.11029 0.0
C1884 C 0.17767 0.7788 0.08787 0.0
H1885 H 0.22805 0.73407 0.07938 0.0
N1886 N 0.17707 0.75415 0.0626 0.0
C1887 C 0.20269 0.72947 0.06081 0.0
C1888 C 0.18682 0.76331 0.07772 0.0
C1889 C 0.18422 0.7367 0.05499 0.0
C1890 C 0.21363 0.73962 0.07504 0.0
C1891 C 0.20572 0.75657 0.08383 0.0
O1892 O 0.14093 0.73494 0.0517 0.0
O1893 O 0.12262 0.7727 0.02886 0.0
O1894 O 0.11961 0.81095 0.041 0.0
O1895 O 0.12284 0.78756 0.06633 0.0
O1896 O 0.1111 0.76003 0.05303 0.0
O1897 O 0.14004 0.75031 0.08095 0.0
O1898 O 0.13096 0.8304 1.01289 0.0
O1899 O 0.14995 0.79784 0.04482 0.0
O1900 O 0.17661 0.76917 0.03629 0.0
O1901 O 0.17293 0.78927 1.00892 0.0
O1902 O 0.16691 0.81363 0.02521 0.0
O1903 O 0.14103 0.81507 0.98635 0.0
C1904 C 0.10507 0.76717 0.03626 0.0
C1905 C 0.13508 0.71504 0.0816 0.0
C1906 C 0.12212 0.69822 0.11056 0.0
C1907 C 0.12487 0.71559 0.09961 0.0
C1908 C 0.12992 0.68028 0.10363 0.0
C1909 C 0.14284 0.69707 0.07479 0.0
C1910 C 0.14033 0.67976 0.08587 0.0
C1911 C 0.11477 0.80352 0.05858 0.0
C1912 C 0.13921 0.73357 0.0711 0.0
C1913 C 0.21616 0.76671 0.09862 0.0
C1914 C 0.20747 0.78271 0.1082 0.0
C1915 C 0.1656 0.80797 0.04339 0.0
C1916 C 0.13589 0.8505 0.98498 0.0
C1917 C 0.15397 0.86057 0.98614 0.0
C1918 C 0.15485 0.88057 0.98069 0.0
C1919 C 0.13777 0.89033 0.97394 0.0
C1920 C 0.11888 0.86027 0.97814 0.0
C1921 C 0.11984 0.88014 0.9726 0.0
C1922 C 0.18534 0.7784 0.02072 0.0
C1923 C 0.13329 0.83111 0.99389 0.0
H1924 H 0.1189 0.72944 0.10506 0.0
H1925 H 0.12807 0.66672 0.11205 0.0
H1926 H 0.15124 0.69652 0.06122 0.0
H1927 H 0.14654 0.66594 0.08074 0.0
H1928 H 0.16706 0.85311 0.99172 0.0
H1929 H 0.1384 0.90576 0.96945 0.0
H1930 H 0.10469 0.85267 0.97771 0.0
H1931 H 0.10668 0.88771 0.96748 0.0
Eu1932 Eu 0.76941 0.98294 0.64685 0.0
C1933 C 0.73675 0.04759 0.60236 0.0
C1934 C 0.76765 0.06629 0.60161 0.0
C1935 C 0.74271 0.07148 0.57608 0.0
C1936 C 0.75533 0.05199 0.61057 0.0
C1937 C 0.73028 0.05745 0.58513 0.0
C1938 C 0.76128 0.07593 0.58432 0.0
C1939 C 0.6988 0.04044 0.58808 0.0
N1940 N 0.72464 0.03446 0.61167 0.0
C1941 C 0.70562 0.0314 0.60535 0.0
C1942 C 0.71124 0.05341 0.57783 0.0
Eu1943 Eu 0.73729 0.02226 0.64155 0.0
N1944 N 0.76124 0.04262 0.62742 0.0
C1945 C 0.77887 0.04685 0.63625 0.0
C1946 C 0.78605 0.0705 0.61032 0.0
C1947 C 0.79167 0.06074 0.6277 0.0
H1948 H 0.69568 0.02201 0.61373 0.0
H1949 H 0.80576 0.0641 0.63461 0.0
H1950 H 0.77059 0.08693 0.57721 0.0
H1951 H 0.68384 0.03771 0.58291 0.0
H1952 H 0.78285 0.03956 0.64992 0.0
H1953 H 0.73756 0.90803 0.63335 0.0
H1954 H 0.79595 0.08137 0.60384 0.0
H1955 H 0.80525 0.98867 0.68219 0.0
H1956 H 0.75516 0.93853 0.62348 0.0
H1957 H 0.81197 0.97661 0.71601 0.0
H1958 H 0.73799 0.07918 0.56284 0.0
H1959 H 0.73237 0.9005 0.66868 0.0
H1960 H 0.74086 0.90831 0.70393 0.0
H1961 H 0.70579 0.06066 0.56461 0.0
H1962 H 0.76191 0.92714 0.72698 0.0
N1963 N 0.75769 0.94966 0.65287 0.0
C1964 C 0.75246 0.93584 0.63895 0.0
C1965 C 0.73977 0.91414 0.66443 0.0
C1966 C 0.74803 0.92672 0.67863 0.0
C1967 C 0.7427 0.91833 0.64448 0.0
C1968 C 0.75738 0.94437 0.6723 0.0
H1969 H 0.78962 0.95185 0.73129 0.0
N1970 N 0.77946 0.97065 0.67836 0.0
C1971 C 0.7996 0.97064 0.7077 0.0
C1972 C 0.76884 0.95515 0.68545 0.0
C1973 C 0.79592 0.97721 0.68846 0.0
C1974 C 0.78685 0.95679 0.71631 0.0
C1975 C 0.77169 0.9483 0.70493 0.0
O1976 O 0.79993 0.99489 0.64184 0.0
O1977 O 0.76363 1.00844 0.62325 0.0
O1978 O 0.72471 0.99952 0.61988 0.0
O1979 O 0.74407 0.97173 0.62763 0.0
O1980 O 0.77056 0.98107 0.61238 0.0
O1981 O 0.79358 0.96312 0.64593 0.0
O1982 O 0.70904 0.03255 0.65145 0.0
O1983 O 0.7436 0.99654 0.65955 0.0
O1984 O 0.76599 0.99871 0.67996 0.0
O1985 O 0.74657 0.02589 0.67651 0.0
O1986 O 0.71397 1.00015 0.65051 0.0
O1987 O 0.73392 0.05323 0.65125 0.0
C1988 C 0.76617 0.99882 0.60587 0.0
C1989 C 0.82455 0.96972 0.63215 0.0
C1990 C 0.84027 0.9405 0.61759 0.0
C1991 C 0.82331 0.952 0.62115 0.0
C1992 C 0.85882 0.94794 0.62371 0.0
C1993 C 0.84319 0.97687 0.63791 0.0
C1994 C 0.86024 0.96614 0.63346 0.0
C1995 C 0.72952 0.98059 0.61776 0.0
C1996 C 0.807 0.97672 0.64286 0.0
C1997 C 0.76045 0.93221 0.71186 0.0
C1998 C 0.74849 0.92147 0.69872 0.0
C1999 C 0.72615 0.98945 0.66069 0.0
C2000 C 0.70065 0.06546 0.64923 0.0
C2001 C 0.68409 0.0663 0.66131 0.0
C2002 C 0.66665 0.07479 0.65451 0.0
C2003 C 0.666 0.08369 0.63581 0.0
C2004 C 0.70041 0.07485 0.63075 0.0
C2005 C 0.68306 0.08409 0.62412 0.0
C2006 C 0.75694 1.01418 0.68913 0.0
C2007 C 0.71509 0.05056 0.65483 0.0
H2008 H 0.8089 0.94639 0.61673 0.0
H2009 H 0.87218 0.93936 0.62172 0.0
H2010 H 0.84445 0.99 0.64703 0.0
H2011 H 0.87454 0.97141 0.63855 0.0
H2012 H 0.68421 0.05871 0.67548 0.0
H2013 H 0.65243 0.09029 0.63036 0.0
H2014 H 0.71319 0.0744 0.62124 0.0
H2015 H 0.68265 0.09096 0.60969 0.0
Eu2016 Eu 0.80544 1.01894 0.39595 0.0
C2017 C 0.73996 0.99832 0.35314 0.0
C2018 C 0.71937 0.02577 0.36353 0.0
C2019 C 0.71354 1.01015 0.33169 0.0
C2020 C 0.73479 1.01227 0.36741 0.0
C2021 C 0.72938 0.99723 0.33513 0.0
C2022 C 0.70864 0.02446 0.34576 0.0
C2023 C 0.75176 0.97163 0.32445 0.0
N2024 N 0.75561 0.98624 0.35659 0.0
C2025 C 0.76168 0.97304 0.34248 0.0
C2026 C 0.73539 0.9836 0.32082 0.0
Eu2027 Eu 0.76686 0.98641 0.3897 0.0
N2028 N 0.74508 1.01301 0.38478 0.0
C2029 C 0.74142 0.02738 0.39834 0.0
C2030 C 0.71526 0.04034 0.37758 0.0
C2031 C 0.72648 0.0413 0.39492 0.0
H2032 H 0.77363 0.96282 0.34511 0.0
H2033 H 0.7235 0.05266 0.40574 0.0
H2034 H 0.69661 0.0346 0.34267 0.0
H2035 H 0.75656 0.96103 0.31349 0.0
H2036 H 0.74989 0.02817 0.41181 0.0
H2037 H 0.87494 0.9754 0.40311 0.0
H2038 H 0.70358 0.05104 0.37509 0.0
H2039 H 0.79373 0.05861 0.42486 0.0
H2040 H 0.84992 0.99308 0.38454 0.0
H2041 H 0.80177 0.07123 0.45803 0.0
H2042 H 0.70525 1.00949 0.31798 0.0
H2043 H 0.87735 0.97918 0.4392 0.0
H2044 H 0.86702 0.99731 0.46936 0.0
H2045 H 0.72769 0.9824 0.30682 0.0
H2046 H 0.84774 0.02412 0.48425 0.0
N2047 N 0.83522 1.00513 0.41 0.0
C2048 C 0.84946 0.99437 0.40035 0.0
C2049 C 0.86566 0.9867 0.43118 0.0
C2050 C 0.85288 0.99975 0.4407 0.0
C2051 C 0.86434 0.98453 0.41082 0.0
C2052 C 0.83765 1.009 0.42964 0.0
H2053 H 0.82427 0.05235 0.47984 0.0
N2054 N 0.81195 0.03292 0.42759 0.0
C2055 C 0.80855 0.05772 0.4528 0.0
C2056 C 0.82622 0.02368 0.43844 0.0
C2057 C 0.80422 0.05063 0.43391 0.0
C2058 C 0.82119 0.04697 0.46508 0.0
C2059 C 0.8305 0.02998 0.45787 0.0
O2060 O 0.80033 0.05064 0.38991 0.0
O2061 O 0.77947 1.01388 0.3728 0.0
O2062 O 0.79277 0.97326 0.37188 0.0
O2063 O 0.81823 0.9964 0.37527 0.0
O2064 O 0.80644 0.02141 0.3616 0.0
O2065 O 0.83067 0.03751 0.39057 0.0
O2066 O 0.76256 0.95598 0.38031 0.0
O2067 O 0.7969 0.98834 0.40119 0.0
O2068 O 0.78708 1.017 0.42767 0.0
O2069 O 0.76131 0.99487 0.42462 0.0
O2070 O 0.77817 0.97118 0.41768 0.0
O2071 O 0.73794 0.97208 0.39357 0.0
C2072 C 0.78874 1.01686 0.35544 0.0
C2073 C 0.82908 0.0723 0.38354 0.0
C2074 C 0.85743 0.09017 0.37023 0.0
C2075 C 0.84729 0.07235 0.37356 0.0
C2076 C 0.84935 0.108 0.3772 0.0
C2077 C 0.82114 0.09016 0.39037 0.0
C2078 C 0.83134 0.10795 0.38727 0.0
C2079 C 0.81059 0.98023 0.3672 0.0
C2080 C 0.81967 0.05337 0.3885 0.0
C2081 C 0.84464 0.01979 0.46916 0.0
C2082 C 0.85563 1.00454 0.46066 0.0
C2083 C 0.79607 0.97794 0.41659 0.0
C2084 C 0.73379 0.93744 0.38723 0.0
C2085 C 0.73493 0.92756 0.4053 0.0
C2086 C 0.72662 0.90865 0.40699 0.0
C2087 C 0.71714 0.89974 0.39077 0.0
C2088 C 0.72441 0.92853 0.37099 0.0
C2089 C 0.71605 0.90971 0.3728 0.0
C2090 C 0.77241 1.00658 0.43688 0.0
C2091 C 0.74371 0.95624 0.38416 0.0
H2092 H 0.85355 0.05855 0.3683 0.0
H2093 H 0.85711 0.12193 0.37504 0.0
H2094 H 0.8074 0.09029 0.39858 0.0
H2095 H 0.82536 0.12171 0.39283 0.0
H2096 H 0.74248 0.93432 0.41776 0.0
H2097 H 0.71068 0.88506 0.39206 0.0
H2098 H 0.72384 0.93604 0.35684 0.0
H2099 H 0.70889 0.90278 0.36025 0.0
Eu2100 Eu 0.76457 0.05566 0.14824 0.0
C2101 C 0.79525 0.99483 0.10189 0.0
C2102 C 0.76665 0.97383 0.10801 0.0
C2103 C 0.78513 0.97043 0.07745 0.0
C2104 C 0.77974 0.98895 0.1141 0.0
C2105 C 0.79814 0.98553 0.08349 0.0
C2106 C 0.76942 0.96462 0.08965 0.0
C2107 C 0.82684 1.00644 0.07848 0.0
N2108 N 0.80761 1.00948 0.10805 0.0
C2109 C 0.8234 1.01523 0.09679 0.0
C2110 C 0.81412 0.99156 0.07177 0.0
Eu2111 Eu 0.80158 0.02152 0.14009 0.0
N2112 N 0.77742 0.99799 0.13189 0.0
C2113 C 0.76259 0.99264 0.14436 0.0
C2114 C 0.75119 0.96833 0.12064 0.0
C2115 C 0.74914 0.97778 0.13887 0.0
H2116 H 0.83378 0.02625 0.10214 0.0
H2117 H 0.73729 0.97354 0.14874 0.0
H2118 H 0.75953 0.95292 0.08476 0.0
H2119 H 0.83942 1.01102 0.0697 0.0
H2120 H 0.76119 0.99983 0.1585 0.0
H2121 H 0.79842 0.13128 0.14201 0.0
H2122 H 0.7408 0.95677 0.11649 0.0
H2123 H 0.7293 0.04791 0.18364 0.0
H2124 H 0.77867 0.10357 0.1295 0.0
H2125 H 0.72353 0.05717 0.21836 0.0
H2126 H 0.78714 0.96311 0.06339 0.0
H2127 H 0.80546 0.13415 0.17766 0.0
H2128 H 0.79754 0.12287 0.21192 0.0
H2129 H 0.81687 0.9847 0.0576 0.0
H2130 H 0.77613 0.10269 0.23331 0.0
N2131 N 0.77745 0.08816 0.15722 0.0
C2132 C 0.7826 0.10358 0.14492 0.0
C2133 C 0.79735 0.1214 0.17216 0.0
C2134 C 0.78896 0.1076 0.18507 0.0
C2135 C 0.79342 0.11981 0.15204 0.0
C2136 C 0.77867 0.09112 0.1771 0.0
H2137 H 0.7473 0.0792 0.23557 0.0
N2138 N 0.75586 0.06498 0.18107 0.0
C2139 C 0.7361 0.06326 0.2105 0.0
C2140 C 0.76724 0.07932 0.18938 0.0
C2141 C 0.73928 0.05825 0.19076 0.0
C2142 C 0.74963 0.07556 0.22019 0.0
C2143 C 0.76505 0.08432 0.20948 0.0
O2144 O 0.73365 0.0454 0.14338 0.0
O2145 O 0.77272 0.03133 0.12471 0.0
O2146 O 0.808 0.04609 0.11772 0.0
O2147 O 0.78496 0.0704 0.12611 0.0
O2148 O 0.75873 0.05545 0.11382 0.0
O2149 O 0.74101 0.07633 0.1502 0.0
O2150 O 0.83309 1.01589 0.13992 0.0
O2151 O 0.79352 0.04594 0.1596 0.0
O2152 O 0.76661 0.03519 0.17832 0.0
O2153 O 0.79541 1.01798 0.17579 0.0
O2154 O 0.82117 0.04755 0.14568 0.0
O2155 O 0.81314 0.99399 0.15283 0.0
C2156 C 0.76677 0.0391 0.10744 0.0
C2157 C 0.71125 0.07184 0.13317 0.0
C2158 C 0.69715 0.10122 0.11759 0.0
C2159 C 0.71352 0.09092 0.1249 0.0
C2160 C 0.67848 0.09204 0.1175 0.0
C2161 C 0.69248 0.06288 0.13315 0.0
C2162 C 0.67621 0.07289 0.12514 0.0
C2163 C 0.79992 0.06386 0.11539 0.0
C2164 C 0.72711 0.06363 0.14566 0.0
C2165 C 0.77711 0.09913 0.21776 0.0
C2166 C 0.78924 0.11065 0.20556 0.0
C2167 C 0.80939 0.056 0.15798 0.0
C2168 C 0.84461 0.98296 0.14146 0.0
C2169 C 0.85099 0.96941 0.1556 0.0
C2170 C 0.86782 0.95798 0.15215 0.0
C2171 C 0.87651 0.95799 0.13333 0.0
C2172 C 0.85408 0.98371 0.12303 0.0
C2173 C 0.86947 0.97073 0.11875 0.0
C2174 C 0.78071 0.02448 0.18782 0.0
C2175 C 0.83137 0.99859 0.14824 0.0
H2176 H 0.72782 0.09832 0.12503 0.0
H2177 H 0.66561 0.0999 0.11202 0.0
H2178 H 0.69025 0.04855 0.14007 0.0
H2179 H 0.66168 0.06606 0.12548 0.0
H2180 H 0.84454 0.96967 0.17025 0.0
H2181 H 0.88984 0.94961 0.13046 0.0
H2182 H 0.85058 0.9949 0.11234 0.0
H2183 H 0.87692 0.9716 0.10466 0.0
Eu2184 Eu 0.73026 0.01971 0.89749 0.0
C2185 C 0.79388 0.04948 0.85345 0.0
C2186 C 0.81337 1.01941 0.85651 0.0
C2187 C 0.81796 0.04118 0.82818 0.0
C2188 C 0.79883 0.03234 0.86389 0.0
C2189 C 0.80348 0.05406 0.83552 0.0
C2190 C 0.82291 0.02394 0.83865 0.0
C2191 C 0.78487 0.08457 0.83405 0.0
N2192 N 0.78021 0.062 0.8611 0.0
C2193 C 0.7761 0.07969 0.85206 0.0
C2194 C 0.79856 0.07166 0.82569 0.0
Eu2195 Eu 0.76857 0.05317 0.89267 0.0
N2196 N 0.78959 0.02835 0.88128 0.0
C2197 C 0.79398 1.01189 0.89203 0.0
C2198 C 0.81793 1.00232 0.86737 0.0
C2199 C 0.80815 0.99851 0.88516 0.0
H2200 H 0.76643 0.09036 0.85894 0.0
H2201 H 0.81169 0.9854 0.89366 0.0
H2202 H 0.83417 1.01421 0.8328 0.0
H2203 H 0.78143 0.0985 0.82688 0.0
H2204 H 0.78665 1.00927 0.90596 0.0
H2205 H 0.65384 0.04559 0.88164 0.0
H2206 H 0.82902 0.99202 0.86218 0.0
H2207 H 0.73862 0.98514 0.93335 0.0
H2208 H 0.68568 0.03028 0.87276 0.0
H2209 H 0.72619 0.97709 0.96668 0.0
H2210 H 0.82552 0.04449 0.81448 0.0
H2211 H 0.64495 0.0499 0.91674 0.0
H2212 H 0.65206 0.04131 0.95211 0.0
H2213 H 0.80559 0.07565 0.81188 0.0
H2214 H 0.67159 0.0215 0.97559 0.0
N2215 N 0.69611 0.02862 0.90251 0.0
C2216 C 0.68232 0.03268 0.88815 0.0
C2217 C 0.65917 0.04361 0.91292 0.0
C2218 C 0.67181 0.03615 0.92749 0.0
C2219 C 0.66411 0.04114 0.89311 0.0
C2220 C 0.6903 0.02837 0.92174 0.0
H2221 H 0.6984 0.99621 0.98071 0.0
N2222 N 0.71812 1.0087 0.92868 0.0
C2223 C 0.71924 0.9887 0.95809 0.0
C2224 C 0.70151 1.01771 0.93519 0.0
C2225 C 0.72606 0.99313 0.93914 0.0
C2226 C 0.70362 0.9996 0.96598 0.0
C2227 C 0.69422 1.01396 0.95434 0.0
O2228 O 0.74479 0.99037 0.89222 0.0
O2229 O 0.75544 0.02662 0.87405 0.0
O2230 O 0.74424 0.06575 0.87252 0.0
O2231 O 0.71729 0.04506 0.87965 0.0
O2232 O 0.72782 0.01994 0.86303 0.0
O2233 O 0.71279 0.99369 0.89685 0.0
O2234 O 0.77734 0.08362 0.89732 0.0
O2235 O 0.74344 0.04545 0.91087 0.0
O2236 O 0.74495 0.02502 0.93087 0.0
O2237 O 0.77354 0.0425 0.92736 0.0
O2238 O 0.74601 0.0753 0.90316 0.0
O2239 O 0.79823 0.0602 0.90428 0.0
C2240 C 0.7456 0.02454 0.85681 0.0
C2241 C 0.72155 0.96324 0.88355 0.0
C2242 C 0.6923 0.94646 0.86997 0.0
C2243 C 0.70433 0.96345 0.87173 0.0
C2244 C 0.6991 0.92855 0.87827 0.0
C2245 C 0.72818 0.9452 0.89135 0.0
C2246 C 0.71715 0.92788 0.88842 0.0
C2247 C 0.72534 0.06053 0.8706 0.0
C2248 C 0.72741 0.98157 0.89374 0.0
C2249 C 0.67704 0.02363 0.96071 0.0
C2250 C 0.66592 0.03489 0.94732 0.0
C2251 C 0.7356 0.06239 0.91263 0.0
C2252 C 0.81049 0.09288 0.89785 0.0
C2253 C 0.81585 0.10777 0.91114 0.0
C2254 C 0.82793 0.12354 0.9051 0.0
C2255 C 0.83453 0.1243 0.88544 0.0
C2256 C 0.81772 0.09336 0.87851 0.0
C2257 C 0.82955 0.10917 0.87229 0.0
C2258 C 0.76117 0.03287 0.94005 0.0
C2259 C 0.79486 0.07926 0.90393 0.0
H2260 H 0.6993 0.97744 0.86566 0.0
H2261 H 0.69016 0.9152 0.87771 0.0
H2262 H 0.74095 0.94479 0.90108 0.0
H2263 H 0.72195 0.91414 0.89515 0.0
H2264 H 0.81033 0.10718 0.92615 0.0
H2265 H 0.84347 0.13661 0.88025 0.0
H2266 H 0.81397 0.08186 0.86816 0.0
H2267 H 0.8347 0.10981 0.8572 0.0
Eu2268 Eu 0.64558 0.7297 1.01798 0.0
C2269 C 0.68784 0.79532 0.98619 0.0
C2270 C 0.68666 0.8137 1.01698 0.0
C2271 C 0.71308 0.82015 0.99343 0.0
C2272 C 0.67859 0.79935 1.00415 0.0
C2273 C 0.70508 0.80583 0.98065 0.0
C2274 C 0.70394 0.82404 1.01154 0.0
C2275 C 0.70484 0.78792 0.94977 0.0
N2276 N 0.67982 0.78148 0.974 0.0
C2277 C 0.6876 0.77811 0.95572 0.0
C2278 C 0.7137 0.80177 0.96232 0.0
Eu2279 Eu 0.64948 0.7682 0.98468 0.0
N2280 N 0.66171 0.78938 1.00903 0.0
C2281 C 0.65205 0.79296 0.02622 0.0
C2282 C 0.67703 0.81732 0.03489 0.0
C2283 C 0.65968 0.80689 0.03953 0.0
H2284 H 0.6803 0.76812 0.94554 0.0
H2285 H 0.6521 0.80974 0.05327 0.0
H2286 H 0.71032 0.83513 0.02123 0.0
H2287 H 0.71107 0.78508 0.93536 0.0
H2288 H 0.63848 0.78507 0.02953 0.0
H2289 H 0.65758 0.65334 0.99005 0.0
H2290 H 0.6828 0.8282 0.04517 0.0
H2291 H 0.61238 0.73599 0.05543 0.0
H2292 H 0.6683 0.68499 1.00482 0.0
H2293 H 0.57869 0.72435 0.0639 0.0
H2294 H 0.72633 0.82832 0.98944 0.0
H2295 H 0.62198 0.64574 0.98609 0.0
H2296 H 0.58694 0.65408 0.9951 0.0
H2297 H 0.72696 0.8095 0.95758 0.0
H2298 H 0.56485 0.67371 1.01613 0.0
N2299 N 0.63885 0.69618 1.00773 0.0
C2300 C 0.65263 0.6821 1.00291 0.0
C2301 C 0.62654 0.65978 0.99243 0.0
C2302 C 0.61263 0.6728 1.00033 0.0
C2303 C 0.64667 0.66405 0.99459 0.0
C2304 C 0.61939 0.69087 1.00848 0.0
H2305 H 0.56202 0.69922 0.04302 0.0
N2306 N 0.6146 0.71765 0.02994 0.0
C2307 C 0.58631 0.71812 0.05135 0.0
C2308 C 0.60683 0.70197 0.0201 0.0
C2309 C 0.60548 0.72447 0.04668 0.0
C2310 C 0.5769 0.70406 0.03942 0.0
C2311 C 0.58745 0.69519 0.02407 0.0
O2312 O 0.65099 0.74139 0.04858 0.0
O2313 O 0.66884 0.75544 1.01107 0.0
O2314 O 0.67063 0.74486 0.97205 0.0
O2315 O 0.66305 0.71756 0.99206 0.0
O2316 O 0.67997 0.72796 1.01751 0.0
O2317 O 0.65063 0.70939 0.04099 0.0
O2318 O 0.64194 0.77657 0.95496 0.0
O2319 O 0.63156 0.74275 0.99248 0.0
O2320 O 0.61226 0.74542 1.01595 0.0
O2321 O 0.61454 0.77162 0.99486 0.0
O2322 O 0.63931 0.74551 0.96263 0.0
O2323 O 0.6381 0.79819 0.9784 0.0
C2324 C 0.68624 0.74574 1.01313 0.0
C2325 C 0.65968 0.71569 0.0739 0.0
C2326 C 0.67264 0.68764 0.09275 0.0
C2327 C 0.6698 0.69747 0.07477 0.0
C2328 C 0.66599 0.69669 0.11018 0.0
C2329 C 0.6532 0.72454 0.09136 0.0
C2330 C 0.65648 0.71508 0.10946 0.0
C2331 C 0.67238 0.72586 0.97696 0.0
C2332 C 0.65275 0.72285 0.05461 0.0
C2333 C 0.57992 0.67874 1.0138 0.0
C2334 C 0.59252 0.66756 1.00184 0.0
C2335 C 0.6296 0.73522 0.97545 0.0
C2336 C 0.64044 0.8093 0.94472 0.0
C2337 C 0.62648 0.81115 0.9296 0.0
C2338 C 0.63115 0.82135 0.91232 0.0
C2339 C 0.64984 0.83027 0.9103 0.0
C2340 C 0.65897 0.81857 0.94298 0.0
C2341 C 0.66362 0.82909 0.92576 0.0
C2342 C 0.60251 0.76036 1.00648 0.0
C2343 C 0.63618 0.79429 0.9596 0.0
H2344 H 0.67485 0.6905 0.06129 0.0
H2345 H 0.66771 0.68932 0.12429 0.0
H2346 H 0.64486 0.73823 0.09093 0.0
H2347 H 0.65108 0.72171 0.12292 0.0
H2348 H 0.61221 0.80375 0.93082 0.0
H2349 H 0.65364 0.83826 0.89695 0.0
H2350 H 0.66994 0.81725 0.95454 0.0
H2351 H 0.67803 0.83601 0.92424 0.0
Eu2352 Eu 0.05374 0.1451 0.769 0.0
C2353 C 0.984 0.10399 0.79171 0.0
C2354 C 0.9644 0.1152 0.76389 0.0
C2355 C 0.9548 0.08529 0.78171 0.0
C2356 C 0.98031 0.11802 0.77709 0.0
C2357 C 0.9712 0.08755 0.79424 0.0
C2358 C 0.95155 0.09892 0.76642 0.0
C2359 C 0.99299 0.07555 0.81995 0.0
N2360 N 1.00055 0.10595 0.80291 0.0
C2361 C 1.00547 0.09175 0.81658 0.0
C2362 C 0.97565 0.07353 0.80888 0.0
Eu2363 Eu 1.01545 0.13762 0.80133 0.0
N2364 N 0.99262 0.134 0.77534 0.0
C2365 C 0.99068 0.14696 0.76005 0.0
C2366 C 0.962 0.12872 0.74839 0.0
C2367 C 0.97535 0.14448 0.7463 0.0
H2368 H 1.01851 0.0932 0.82573 0.0
H2369 H 0.97375 0.15482 0.73418 0.0
H2370 H 0.93912 0.09664 0.75652 0.0
H2371 H 0.99672 0.0647 0.83115 0.0
H2372 H 1.0009 0.15914 0.75835 0.0
H2373 H 0.12548 0.14592 0.81007 0.0
H2374 H 0.95005 0.12696 0.73781 0.0
H2375 H 0.0441 0.17759 0.73127 0.0
H2376 H 0.09986 0.12989 0.7905 0.0
H2377 H 0.0516 0.21239 0.7228 0.0
H2378 H 0.94485 0.07275 0.78339 0.0
H2379 H 0.1281 0.18241 0.81094 0.0
H2380 H 0.11762 0.21491 0.79684 0.0
H2381 H 0.9661 0.06083 0.81139 0.0
H2382 H 0.09784 0.23318 0.77243 0.0
N2383 N 0.0848 0.15696 0.78274 0.0
C2384 C 0.09944 0.14584 0.79156 0.0
C2385 C 0.1161 0.17546 0.8028 0.0
C2386 C 0.10311 0.18671 0.79132 0.0
C2387 C 0.11465 0.15489 0.80237 0.0
C2388 C 0.08746 0.17697 0.78124 0.0
H2389 H 0.0738 0.23219 0.74422 0.0
N2390 N 0.06169 0.17773 0.75754 0.0
C2391 C 0.05834 0.20567 0.73567 0.0
C2392 C 0.0759 0.18754 0.76793 0.0
C2393 C 0.05437 0.18586 0.74038 0.0
C2394 C 0.0708 0.21682 0.74786 0.0
C2395 C 0.08025 0.20764 0.76384 0.0
O2396 O 0.04548 0.14067 0.7376 0.0
O2397 O 0.02843 0.12112 0.77412 0.0
O2398 O 0.04087 0.11775 0.81265 0.0
O2399 O 0.06697 0.12457 0.79131 0.0
O2400 O 0.05527 0.1109 0.76501 0.0
O2401 O 0.07683 0.14041 0.74838 0.0
O2402 O 1.01452 0.12901 0.83217 0.0
O2403 O 0.04537 0.14943 0.79972 0.0
O2404 O 0.0355 0.17642 0.77145 0.0
O2405 O 1.00955 0.17272 0.79294 0.0
O2406 O 0.026 0.16595 0.81587 0.0
O2407 O 0.988 0.1408 0.81781 0.0
C2408 C 0.03798 0.10406 0.77019 0.0
C2409 C 0.07265 0.13376 0.7142 0.0
C2410 C 0.1013 0.12136 0.69643 0.0
C2411 C 0.09009 0.12258 0.7137 0.0
C2412 C 0.09403 0.13038 0.67912 0.0
C2413 C 0.06549 0.14261 0.69691 0.0
C2414 C 0.0761 0.14071 0.67936 0.0
C2415 C 0.05928 0.11509 0.80648 0.0
C2416 C 0.0645 0.13894 0.73344 0.0
C2417 C 0.09467 0.21762 0.77503 0.0
C2418 C 0.10596 0.20721 0.7889 0.0
C2419 C 0.04416 0.16485 0.81004 0.0
C2420 C 0.98838 0.13835 0.85277 0.0
C2421 C 0.98268 0.15779 0.85669 0.0
C2422 C 0.97486 0.16219 0.8751 0.0
C2423 C 0.97304 0.14741 0.88965 0.0
C2424 C 0.98666 0.12355 0.86727 0.0
C2425 C 0.97902 0.12812 0.88573 0.0
C2426 C 0.02069 0.18523 0.78155 0.0
C2427 C 0.99567 0.13268 0.83362 0.0
H2428 H 0.09542 0.1156 0.72712 0.0
H2429 H 0.10248 0.13009 0.66558 0.0
H2430 H 0.0523 0.15169 0.69719 0.0
H2431 H 0.07084 0.14794 0.66607 0.0
H2432 H 0.98415 0.16928 0.84556 0.0
H2433 H 0.96708 0.15089 0.90406 0.0
H2434 H 0.99112 0.10844 0.86423 0.0
H2435 H 0.97765 0.11674 0.89694 0.0
Eu2436 Eu 0.89463 0.30655 0.52032 0.0
C2437 C 0.84717 0.24306 0.49971 0.0
C2438 C 0.8562 0.22314 0.52823 0.0
C2439 C 0.82439 0.21789 0.51201 0.0
C2440 C 0.86088 0.23798 0.51434 0.0
C2441 C 0.82874 0.23311 0.49856 0.0
C2442 C 0.83802 0.21298 0.52684 0.0
C2443 C 0.81973 0.25446 0.47137 0.0
N2444 N 0.85165 0.25795 0.48695 0.0
C2445 C 0.8382 0.26372 0.47283 0.0
C2446 C 0.81503 0.23897 0.48416 0.0
Eu2447 Eu 0.88547 0.26759 0.4879 0.0
N2448 N 0.87861 0.24769 0.5152 0.0
C2449 C 0.89211 0.24372 0.52958 0.0
C2450 C 0.86998 0.21891 0.54313 0.0
C2451 C 0.88792 0.22936 0.54391 0.0
H2452 H 0.84188 0.27465 0.46177 0.0
H2453 H 0.89864 0.22612 0.55536 0.0
H2454 H 0.8343 0.20137 0.53726 0.0
H2455 H 0.80934 0.25895 0.46003 0.0
H2456 H 0.90617 0.2514 0.52978 0.0
H2457 H 0.88645 0.38304 0.49042 0.0
H2458 H 0.86691 0.20762 0.55411 0.0
H2459 H 0.92969 0.29831 0.55559 0.0
H2460 H 0.87465 0.35315 0.50775 0.0
H2461 H 0.96437 0.3082 0.56246 0.0
H2462 H 0.81038 0.21003 0.51125 0.0
H2463 H 0.92225 0.38783 0.48436 0.0
H2464 H 0.95699 0.37743 0.49227 0.0
H2465 H 0.80075 0.23169 0.48285 0.0
H2466 H 0.97882 0.35687 0.51287 0.0
N2467 N 0.90309 0.33936 0.5086 0.0
C2468 C 0.89022 0.35453 0.5044 0.0
C2469 C 0.91708 0.37435 0.49144 0.0
C2470 C 0.93046 0.36055 0.49908 0.0
C2471 C 0.89688 0.37172 0.49487 0.0
C2472 C 0.92294 0.34314 0.50804 0.0
H2473 H 0.98141 0.33188 0.54029 0.0
N2474 N 0.92729 0.31625 0.52976 0.0
C2475 C 0.95653 0.31457 0.55003 0.0
C2476 C 0.93543 0.33131 0.51923 0.0
C2477 C 0.93687 0.30917 0.54623 0.0
C2478 C 0.96613 0.32781 0.53738 0.0
C2479 C 0.95537 0.33696 0.52222 0.0
O2480 O 0.88818 0.29654 0.55092 0.0
O2481 O 0.87003 0.28184 0.51496 0.0
O2482 O 0.86738 0.29375 0.47519 0.0
O2483 O 0.87663 0.32005 0.49572 0.0
O2484 O 0.85997 0.30967 0.52117 0.0
O2485 O 0.8957 0.32735 0.54397 0.0
O2486 O 0.87563 0.2552 0.46034 0.0
O2487 O 0.90542 0.29178 0.49421 0.0
O2488 O 0.92622 0.28781 0.51678 0.0
O2489 O 0.9216 0.26276 0.4944 0.0
O2490 O 0.89781 0.28789 0.46451 0.0
O2491 O 0.89668 0.23851 0.47809 0.0
C2492 C 0.85318 0.29191 0.5173 0.0
C2493 C 0.87749 0.32322 0.57287 0.0
C2494 C 0.8585 0.35161 0.58508 0.0
C2495 C 0.86676 0.34091 0.56932 0.0
C2496 C 0.86087 0.34429 0.60438 0.0
C2497 C 0.87954 0.31628 0.59225 0.0
C2498 C 0.87124 0.32675 0.60789 0.0
C2499 C 0.86662 0.31268 0.4806 0.0
C2500 C 0.89044 0.31476 0.55756 0.0
C2501 C 0.96337 0.35273 0.51127 0.0
C2502 C 0.95092 0.36446 0.49956 0.0
C2503 C 0.90766 0.29855 0.47696 0.0
C2504 C 0.89013 0.22852 0.44454 0.0
C2505 C 0.90755 0.23286 0.43427 0.0
C2506 C 0.90992 0.2254 0.41518 0.0
C2507 C 0.89505 0.21361 0.40653 0.0
C2508 C 0.87537 0.21664 0.43585 0.0
C2509 C 0.87785 0.2092 0.41689 0.0
C2510 C 0.93478 0.27293 0.50614 0.0
C2511 C 0.88497 0.23861 0.46267 0.0
H2512 H 0.86549 0.34676 0.55446 0.0
H2513 H 0.85517 0.35245 0.61687 0.0
H2514 H 0.88841 0.30329 0.5954 0.0
H2515 H 0.87335 0.32157 0.62287 0.0
H2516 H 0.91882 0.24234 0.44078 0.0
H2517 H 0.89687 0.20772 0.39177 0.0
H2518 H 0.8616 0.21368 0.44351 0.0
H2519 H 0.86635 0.20025 0.41014 0.0
Eu2520 Eu 0.52109 0.90082 0.8075 0.0
C2521 C 0.58263 0.86008 0.7572 0.0
C2522 C 0.6133 0.86035 0.7763 0.0
C2523 C 0.60799 0.83501 0.75156 0.0
C2524 C 0.59464 0.86893 0.77175 0.0
C2525 C 0.58949 0.84317 0.74695 0.0
C2526 C 0.61981 0.84354 0.76615 0.0
C2527 C 0.55963 0.84358 0.72728 0.0
N2528 N 0.56445 0.86779 0.75291 0.0
C2529 C 0.55341 0.86034 0.73752 0.0
C2530 C 0.57766 0.83487 0.73211 0.0
Eu2531 Eu 0.55635 0.89695 0.77065 0.0
N2532 N 0.58796 0.88502 0.7821 0.0
C2533 C 0.59915 0.89222 0.79759 0.0
C2534 C 0.62479 0.86839 0.79148 0.0
C2535 C 0.61758 0.88421 0.80225 0.0
H2536 H 0.53941 0.86708 0.73362 0.0
H2537 H 0.62608 0.89006 0.81453 0.0
H2538 H 0.63399 0.83686 0.76963 0.0
H2539 H 0.55057 0.83747 0.71556 0.0
H2540 H 0.59422 0.90354 0.80741 0.0
H2541 H 0.47858 0.89612 0.73934 0.0
H2542 H 0.63901 0.86208 0.79542 0.0
H2543 H 0.52202 0.93574 0.84291 0.0
H2544 H 0.50352 0.88526 0.76408 0.0
H2545 H 0.50477 0.96698 0.85051 0.0
H2546 H 0.61332 0.822 0.74389 0.0
H2547 H 0.45999 0.92724 0.74456 0.0
H2548 H 0.45329 0.95705 0.76573 0.0
H2549 H 0.58247 0.82189 0.72406 0.0
H2550 H 0.46045 0.97625 0.79577 0.0
N2551 N 0.49906 0.91017 0.7825 0.0
C2552 C 0.4955 0.89891 0.76624 0.0
C2553 C 0.47096 0.92262 0.75532 0.0
C2554 C 0.47472 0.93405 0.77217 0.0
C2555 C 0.48143 0.90502 0.75232 0.0
C2556 C 0.48914 0.9274 0.78568 0.0
H2557 H 0.47958 0.98011 0.82738 0.0
N2558 N 0.50749 0.93183 0.81521 0.0
C2559 C 0.50157 0.95922 0.8369 0.0
C2560 C 0.49344 0.93848 0.80249 0.0
C2561 C 0.51148 0.94165 0.83241 0.0
C2562 C 0.48731 0.96653 0.82382 0.0
C2563 C 0.48303 0.95613 0.80642 0.0
O2564 O 0.5148 0.89727 0.83861 0.0
O2565 O 0.5458 0.8825 0.79798 0.0
O2566 O 0.53973 0.8638 0.77246 0.0
O2567 O 0.51762 0.86565 0.79795 0.0
O2568 O 0.5473 0.89348 0.82638 0.0
O2569 O 0.49314 0.88736 0.81692 0.0
O2570 O 0.55347 0.9022 0.73888 0.0
O2571 O 0.53281 0.91957 0.78205 0.0
O2572 O 0.54496 0.92289 0.81728 0.0
O2573 O 0.56895 0.91864 0.7928 0.0
O2574 O 0.54747 0.92868 0.75902 0.0
O2575 O 0.58125 0.90909 0.75521 0.0
C2576 C 0.55513 0.88105 0.81422 0.0
C2577 C 0.48202 0.89534 0.84911 0.0
C2578 C 0.4641 0.88812 0.8791 0.0
C2579 C 0.47758 0.8825 0.86459 0.0
C2580 C 0.45559 0.9071 0.87837 0.0
C2581 C 0.47275 0.91385 0.84787 0.0
C2582 C 0.45986 0.91987 0.86272 0.0
C2583 C 0.52653 0.85393 0.78425 0.0
C2584 C 0.49751 0.88927 0.83559 0.0
C2585 C 0.46858 0.96272 0.79302 0.0
C2586 C 0.46449 0.95175 0.77592 0.0
C2587 C 0.5359 0.93632 0.77205 0.0
C2588 C 0.58483 0.90239 0.72145 0.0
C2589 C 0.60376 0.91106 0.72004 0.0
C2590 C 0.61613 0.9067 0.70414 0.0
C2591 C 0.60979 0.89291 0.68993 0.0
C2592 C 0.5784 0.88923 0.70672 0.0
C2593 C 0.59106 0.88416 0.6913 0.0
C2594 C 0.56233 0.92716 0.8091 0.0
C2595 C 0.57214 0.90835 0.738 0.0
H2596 H 0.48436 0.86794 0.86508 0.0
H2597 H 0.44538 0.91189 0.88967 0.0
H2598 H 0.47537 0.92361 0.8356 0.0
H2599 H 0.45303 0.93434 0.862 0.0
H2600 H 0.60853 0.92193 0.73086 0.0
H2601 H 0.61916 0.88928 0.67752 0.0
H2602 H 0.5636 0.88308 0.70687 0.0
H2603 H 0.58614 0.87383 0.6801 0.0
Eu2604 Eu 0.98706 0.14851 0.27121 0.0
C2605 C 0.03072 0.09974 0.32579 0.0
C2606 C 1.00704 0.09486 0.35232 0.0
C2607 C 0.03009 0.06867 0.34427 0.0
C2608 C 1.01526 0.10706 0.33735 0.0
C2609 C 0.03898 0.08098 0.33013 0.0
C2610 C 1.01398 0.07548 0.35511 0.0
C2611 C 0.0656 0.0884 0.30755 0.0
N2612 N 0.0386 0.1113 0.31122 0.0
C2613 C 0.05644 0.10635 0.30288 0.0
C2614 C 0.05652 0.0754 0.32077 0.0
Eu2615 Eu 0.02292 0.14243 0.30621 0.0
N2616 N 1.00922 0.12629 0.33501 0.0
C2617 C 0.99632 0.13423 0.34855 0.0
C2618 C 0.99261 0.10262 0.36474 0.0
C2619 C 0.9876 0.12248 0.36314 0.0
H2620 H 0.06322 0.11596 0.29204 0.0
H2621 H 0.97695 0.12885 0.37319 0.0
H2622 H 1.0076 0.06596 0.36634 0.0
H2623 H 0.07939 0.08439 0.30057 0.0
H2624 H 0.99191 0.14948 0.34857 0.0
H2625 H 0.04961 0.13443 0.22206 0.0
H2626 H 0.98586 0.09364 0.37619 0.0
H2627 H 0.96024 0.19087 0.27704 0.0
H2628 H 0.0277 0.12779 0.25027 0.0
H2629 H 0.95536 0.22222 0.2597 0.0
H2630 H 0.03597 0.05406 0.34738 0.0
H2631 H 0.04507 0.16472 0.20197 0.0
H2632 H 0.02683 0.19645 0.19601 0.0
H2633 H 0.06344 0.06129 0.32402 0.0
H2634 H 1.00124 0.22011 0.20612 0.0
N2635 N 1.01054 0.15379 0.24604 0.0
C2636 C 0.02535 0.14092 0.24157 0.0
C2637 C 0.03533 0.16186 0.21433 0.0
C2638 C 0.02045 0.17531 0.21932 0.0
C2639 C 0.03792 0.14473 0.22563 0.0
C2640 C 1.00825 0.17096 0.23562 0.0
H2641 H 0.97486 0.22998 0.22989 0.0
N2642 N 0.98323 0.18071 0.25791 0.0
C2643 C 0.96638 0.21187 0.25449 0.0
C2644 C 0.99407 0.18463 0.24157 0.0
C2645 C 0.96947 0.19403 0.26446 0.0
C2646 C 0.97731 0.21612 0.23762 0.0
C2647 C 0.9914 0.20252 0.23099 0.0
O2648 O 0.95532 0.15453 0.27329 0.0
O2649 O 0.99113 0.13727 0.30144 0.0
O2650 O 0.0215 0.11131 0.28734 0.0
O2651 O 0.99644 0.11394 0.26454 0.0
O2652 O 0.9757 0.11909 0.28266 0.0
O2653 O 0.96803 0.14322 0.24557 0.0
O2654 O 0.05469 0.14988 0.30244 0.0
O2655 O 1.01549 0.16547 0.2808 0.0
O2656 O 0.97876 0.16887 0.29739 0.0
O2657 O 1.00308 0.16364 0.32124 0.0
O2658 O 0.02748 0.17689 0.30558 0.0
O2659 O 0.04068 0.14619 0.33194 0.0
C2660 C 0.98179 0.12101 0.3006 0.0
C2661 C 0.93281 0.14948 0.24601 0.0
C2662 C 0.90409 0.13154 0.2341 0.0
C2663 C 0.92392 0.13163 0.24011 0.0
C2664 C 0.89346 0.14938 0.23327 0.0
C2665 C 0.9221 0.16724 0.24527 0.0
C2666 C 0.9025 0.16718 0.23869 0.0
C2667 C 1.00971 0.10198 0.27399 0.0
C2668 C 0.95236 0.14914 0.25509 0.0
C2669 C 1.0031 0.20648 0.2144 0.0
C2670 C 1.01766 0.19298 0.20865 0.0
C2671 C 0.02022 0.18311 0.28892 0.0
C2672 C 0.07386 0.1577 0.33243 0.0
C2673 C 0.07089 0.16905 0.3495 0.0
C2674 C 0.08701 0.17468 0.36125 0.0
C2675 C 0.10622 0.16896 0.35581 0.0
C2676 C 0.09305 0.152 0.32716 0.0
C2677 C 0.10918 0.15764 0.33883 0.0
C2678 C 0.98712 0.17281 0.31477 0.0
C2679 C 0.05686 0.14948 0.3218 0.0
H2680 H 0.9321 0.11784 0.24097 0.0
H2681 H 0.87818 0.14951 0.22832 0.0
H2682 H 0.92879 0.18106 0.25 0.0
H2683 H 0.89421 0.18087 0.23806 0.0
H2684 H 0.05604 0.17324 0.35385 0.0
H2685 H 0.11886 0.17288 0.36491 0.0
H2686 H 0.09547 0.1427 0.31438 0.0
H2687 H 0.12397 0.15296 0.33491 0.0
Eu2688 Eu 0.51726 0.13946 0.73558 0.0
C2689 C 0.58329 0.1814 0.77723 0.0
C2690 C 0.61384 0.17745 0.75914 0.0
C2691 C 0.60684 0.20876 0.77526 0.0
C2692 C 0.59533 0.16991 0.76541 0.0
C2693 C 0.58937 0.2006 0.78303 0.0
C2694 C 0.61904 0.19721 0.76328 0.0
C2695 C 0.56161 0.20157 0.80532 0.0
N2696 N 0.56632 0.17325 0.78428 0.0
C2697 C 0.55605 0.18262 0.79903 0.0
C2698 C 0.57809 0.21079 0.79697 0.0
Eu2699 Eu 0.55607 0.14282 0.76908 0.0
N2700 N 0.58999 0.15075 0.76188 0.0
C2701 C 0.60398 0.13767 0.75536 0.0
C2702 C 0.62707 0.16459 0.74994 0.0
C2703 C 0.6224 0.14446 0.74871 0.0
H2704 H 0.54243 0.17635 0.80459 0.0
H2705 H 0.63304 0.13414 0.74275 0.0
H2706 H 0.63296 0.20336 0.75815 0.0
H2707 H 0.55289 0.20922 0.81628 0.0
H2708 H 0.601 0.12196 0.75496 0.0
H2709 H 0.47542 0.13588 0.80381 0.0
H2710 H 0.64139 0.1698 0.74489 0.0
H2711 H 0.51774 0.10851 0.6963 0.0
H2712 H 0.49795 0.15125 0.77914 0.0
H2713 H 0.5051 0.07508 0.68799 0.0
H2714 H 0.61146 0.22367 0.77912 0.0
H2715 H 0.46164 0.10233 0.79785 0.0
H2716 H 0.45899 0.07243 0.77589 0.0
H2717 H 0.58225 0.22557 0.80173 0.0
H2718 H 0.46748 0.05579 0.74482 0.0
N2719 N 0.49655 0.12656 0.75991 0.0
C2720 C 0.49182 0.13664 0.77659 0.0
C2721 C 0.47142 0.10899 0.78705 0.0
C2722 C 0.47625 0.09888 0.76969 0.0
C2723 C 0.47917 0.12796 0.79047 0.0
C2724 C 0.48894 0.10822 0.75607 0.0
H2725 H 0.48473 0.05655 0.71211 0.0
N2726 N 0.50578 0.10814 0.72532 0.0
C2727 C 0.50197 0.08147 0.70227 0.0
C2728 C 0.49379 0.09874 0.73842 0.0
C2729 C 0.50923 0.10028 0.70708 0.0
C2730 C 0.49045 0.07109 0.71592 0.0
C2731 C 0.48593 0.07982 0.7341 0.0
O2732 O 0.50992 0.14952 0.7063 0.0
O2733 O 0.54343 0.15672 0.74292 0.0
O2734 O 0.54275 0.17665 0.76414 0.0
O2735 O 0.51326 0.17345 0.74787 0.0
O2736 O 0.54033 0.14865 0.71344 0.0
O2737 O 0.48669 0.14834 0.7282 0.0
O2738 O 0.54387 0.14061 0.79948 0.0
O2739 O 0.52956 0.12113 0.76212 0.0
O2740 O 0.54032 0.11753 0.72436 0.0
O2741 O 0.56842 0.12598 0.74298 0.0
O2742 O 0.55648 0.1083 0.76794 0.0
O2743 O 0.57234 0.12784 0.79121 0.0
C2744 C 0.55121 0.15823 0.72593 0.0
C2745 C 0.47824 0.14704 0.6938 0.0
C2746 C 0.46816 0.1552 0.6604 0.0
C2747 C 0.47634 0.16082 0.67848 0.0
C2748 C 0.46145 0.13565 0.65776 0.0
C2749 C 0.47094 0.1277 0.69138 0.0
C2750 C 0.46262 0.12203 0.67331 0.0
C2751 C 0.52633 0.18585 0.75694 0.0
C2752 C 0.49137 0.15255 0.71 0.0
C2753 C 0.47357 0.07037 0.74785 0.0
C2754 C 0.46872 0.07987 0.76555 0.0
C2755 C 0.53831 0.10332 0.76391 0.0
C2756 C 0.57061 0.13673 0.82386 0.0
C2757 C 0.58838 0.12659 0.82775 0.0
C2758 C 0.60171 0.13316 0.84218 0.0
C2759 C 0.59616 0.14915 0.85422 0.0
C2760 C 0.56503 0.15231 0.83626 0.0
C2761 C 0.57779 0.1584 0.85146 0.0
C2762 C 0.55937 0.11571 0.72888 0.0
C2763 C 0.56 0.1314 0.80552 0.0
H2764 H 0.4821 0.17577 0.68032 0.0
H2765 H 0.45494 0.13108 0.64384 0.0
H2766 H 0.47213 0.11693 0.70314 0.0
H2767 H 0.45729 0.10701 0.67128 0.0
H2768 H 0.59226 0.11389 0.81878 0.0
H2769 H 0.60611 0.15475 0.86548 0.0
H2770 H 0.55116 0.15995 0.83408 0.0
H2771 H 0.57367 0.17069 0.8608 0.0
Eu2772 Eu 0.1498 0.2638 0.98774 0.0
C2773 C 0.10205 0.32658 1.01945 0.0
C2774 C 0.10434 0.35356 0.99595 0.0
C2775 C 0.07296 0.34641 1.01182 0.0
C2776 C 0.11318 0.33755 1.00619 0.0
C2777 C 0.08227 0.33194 0.02346 0.0
C2778 C 0.08396 0.35709 0.99791 0.0
C2779 C 0.0838 0.31169 0.0528 0.0
N2780 N 0.11133 0.3125 0.03036 0.0
C2781 C 0.1032 0.30646 0.04796 0.0
C2782 C 0.07297 0.32377 0.04002 0.0
Eu2783 Eu 0.14347 0.30285 1.0193 0.0
N2784 N 0.13306 0.33433 1.00542 0.0
C2785 C 0.14499 0.34896 0.99765 0.0
C2786 C 0.11644 0.3664 0.98514 0.0
C2787 C 0.13691 0.36453 0.98664 0.0
H2788 H 0.11118 0.2964 0.05752 0.0
H2789 H 0.14652 0.37531 0.97964 0.0
H2790 H 0.07689 0.36899 0.98978 0.0
H2791 H 0.07708 0.30604 0.06617 0.0
H2792 H 0.16089 0.34883 0.99956 0.0
H2793 H 0.13336 0.21701 0.05172 0.0
H2794 H 0.11022 0.3787 0.97693 0.0
H2795 H 0.19592 0.27366 0.96797 0.0
H2796 H 0.12795 0.24512 0.02908 0.0
H2797 H 0.22695 0.25583 0.96421 0.0
H2798 H 0.05761 0.35029 1.01428 0.0
H2799 H 0.1632 0.19613 0.04832 0.0
H2800 H 0.19528 0.18933 0.03105 0.0
H2801 H 0.05787 0.32765 0.0437 0.0
H2802 H 0.22025 0.19939 1.00663 0.0
N2803 N 0.15441 0.24021 1.01296 0.0
C2804 C 0.141 0.23618 0.0274 0.0
C2805 C 0.16095 0.20852 0.03837 0.0
C2806 C 0.17496 0.21315 0.02391 0.0
C2807 C 0.14408 0.22028 0.04033 0.0
C2808 C 0.17143 0.22954 1.01149 0.0
H2809 H 0.23226 0.22415 0.98178 0.0
N2810 N 0.18302 0.25255 0.98793 0.0
C2811 C 0.21555 0.24991 0.97378 0.0
C2812 C 0.18589 0.23556 0.99819 0.0
C2813 C 0.19781 0.26014 0.97624 0.0
C2814 C 0.2184 0.23198 0.9836 0.0
C2815 C 0.2037 0.22481 0.99631 0.0
O2816 O 0.16162 0.26122 0.95861 0.0
O2817 O 0.13729 0.29344 0.98913 0.0
O2818 O 0.1121 0.28444 1.01858 0.0
O2819 O 0.11498 0.25795 0.99752 0.0
O2820 O 0.12071 0.27325 0.97403 0.0
O2821 O 0.14375 0.23701 0.96977 0.0
O2822 O 0.14855 0.29448 0.05076 0.0
O2823 O 0.16721 0.27749 1.01456 0.0
O2824 O 0.16587 0.2901 0.97298 0.0
O2825 O 0.16336 0.31536 0.99602 0.0
O2826 O 0.17778 0.30521 0.02106 0.0
O2827 O 0.14851 0.32572 0.03986 0.0
C2828 C 0.12155 0.29168 0.97921 0.0
C2829 C 0.14806 0.24113 0.93448 0.0
C2830 C 0.12519 0.23023 0.90917 0.0
C2831 C 0.13 0.23224 0.92919 0.0
C2832 C 0.1383 0.237 0.89457 0.0
C2833 C 0.16124 0.24747 0.91966 0.0
C2834 C 0.15631 0.24551 0.89983 0.0
C2835 C 0.10292 0.26933 1.00906 0.0
C2836 C 0.15427 0.24383 0.95504 0.0
C2837 C 0.20669 0.20782 1.00787 0.0
C2838 C 0.19246 0.20212 0.02178 0.0
C2839 C 0.18438 0.28753 1.01716 0.0
C2840 C 0.15543 0.32222 0.07393 0.0
C2841 C 0.16394 0.34118 0.07395 0.0
C2842 C 0.16594 0.35184 0.09138 0.0
C2843 C 0.1603 0.34312 0.10931 0.0
C2844 C 0.1496 0.31351 0.09179 0.0
C2845 C 0.15218 0.32395 0.10948 0.0
C2846 C 0.17034 0.30805 0.97948 0.0
C2847 C 0.15029 0.31356 0.05483 0.0
H2848 H 0.11992 0.2268 0.9404 0.0
H2849 H 0.13481 0.23511 0.87906 0.0
H2850 H 0.17547 0.25397 0.92345 0.0
H2851 H 0.16654 0.25037 0.88854 0.0
H2852 H 0.1686 0.34804 0.06022 0.0
H2853 H 0.16182 0.35123 0.12301 0.0
H2854 H 0.14252 0.29907 0.09199 0.0
H2855 H 0.14747 0.31739 0.12328 0.0
Eu2856 Eu 0.39776 0.74204 0.52584 0.0
C2857 C 0.35276 0.77169 0.45687 0.0
C2858 C 0.35637 0.74799 0.43029 0.0
C2859 C 0.32485 0.76442 0.43521 0.0
C2860 C 0.36436 0.75803 0.44682 0.0
C2861 C 0.33331 0.77581 0.45036 0.0
C2862 C 0.33632 0.75043 0.42528 0.0
C2863 C 0.33279 0.80378 0.47259 0.0
N2864 N 0.36104 0.78223 0.47186 0.0
C2865 C 0.352 0.79908 0.4787 0.0
C2866 C 0.3232 0.7918 0.45875 0.0
Eu2867 Eu 0.39252 0.77097 0.48293 0.0
N2868 N 0.38391 0.75629 0.45171 0.0
C2869 C 0.39665 0.74793 0.43838 0.0
C2870 C 0.36904 0.73685 0.41847 0.0
C2871 C 0.38937 0.73745 0.4221 0.0
H2872 H 0.35906 0.80801 0.48994 0.0
H2873 H 0.39948 0.73004 0.41222 0.0
H2874 H 0.32988 0.74243 0.41295 0.0
H2875 H 0.32531 0.8165 0.47875 0.0
H2876 H 0.41251 0.74904 0.44018 0.0
H2877 H 0.41095 0.81209 0.56314 0.0
H2878 H 0.36347 0.72889 0.40572 0.0
H2879 H 0.42361 0.69898 0.52702 0.0
H2880 H 0.39173 0.788 0.54286 0.0
H2881 H 0.45645 0.6877 0.53877 0.0
H2882 H 0.30972 0.76696 0.43045 0.0
H2883 H 0.44445 0.80328 0.57517 0.0
H2884 H 0.47182 0.7783 0.57748 0.0
H2885 H 0.30825 0.7954 0.45414 0.0
H2886 H 0.4843 0.7449 0.57041 0.0
N2887 N 0.41447 0.76648 0.54347 0.0
C2888 C 0.40643 0.78432 0.54806 0.0
C2889 C 0.43618 0.79279 0.56624 0.0
C2890 C 0.44412 0.77417 0.56173 0.0
C2891 C 0.41724 0.79784 0.55947 0.0
C2892 C 0.43271 0.76098 0.55024 0.0
H2893 H 0.47881 0.71119 0.55593 0.0
N2894 N 0.42829 0.72888 0.53601 0.0
C2895 C 0.45204 0.70297 0.54081 0.0
C2896 C 0.43982 0.74185 0.5463 0.0
C2897 C 0.43359 0.70941 0.53407 0.0
C2898 C 0.4646 0.71629 0.55051 0.0
C2899 C 0.45839 0.73583 0.55376 0.0
O2900 O 0.38033 0.71792 0.53771 0.0
O2901 O 0.38034 0.74641 0.49955 0.0
O2902 O 0.35934 0.76692 0.49788 0.0
O2903 O 0.36365 0.75479 0.52904 0.0
O2904 O 0.3891 0.71697 0.5058 0.0
O2905 O 0.39507 0.73769 0.55795 0.0
O2906 O 0.3963 0.80327 0.48934 0.0
O2907 O 0.41463 0.76734 0.50966 0.0
O2908 O 0.41901 0.72803 0.50336 0.0
O2909 O 0.41142 0.74521 0.47411 0.0
O2910 O 0.42724 0.77258 0.48283 0.0
O2911 O 0.3983 0.79052 0.45915 0.0
C2912 C 0.37909 0.72848 0.49412 0.0
C2913 C 0.39205 0.70332 0.56625 0.0
C2914 C 0.38634 0.66821 0.57169 0.0
C2915 C 0.3796 0.68676 0.56558 0.0
C2916 C 0.40574 0.66618 0.57884 0.0
C2917 C 0.41119 0.70147 0.57421 0.0
C2918 C 0.41804 0.68287 0.58031 0.0
C2919 C 0.35063 0.7615 0.51514 0.0
C2920 C 0.38526 0.72116 0.55591 0.0
C2921 C 0.46997 0.74926 0.56465 0.0
C2922 C 0.46283 0.7683 0.56868 0.0
C2923 C 0.43246 0.76918 0.50103 0.0
C2924 C 0.40396 0.82522 0.46055 0.0
C2925 C 0.41398 0.82485 0.44231 0.0
C2926 C 0.41644 0.84221 0.43124 0.0
C2927 C 0.40897 0.86014 0.43851 0.0
C2928 C 0.39662 0.84323 0.46767 0.0
C2929 C 0.39911 0.86061 0.45663 0.0
C2930 C 0.42131 0.73164 0.4842 0.0
C2931 C 0.39891 0.80633 0.47024 0.0
H2932 H 0.36472 0.68816 0.5596 0.0
H2933 H 0.41113 0.65188 0.58375 0.0
H2934 H 0.42104 0.71414 0.57507 0.0
H2935 H 0.43295 0.68136 0.58602 0.0
H2936 H 0.4197 0.81103 0.43654 0.0
H2937 H 0.4107 0.87372 0.43011 0.0
H2938 H 0.38841 0.84373 0.48136 0.0
H2939 H 0.39317 0.87446 0.462 0.0
Eu2940 Eu 0.80043 0.5163 0.9001 0.0
C2941 C 0.7705 0.58564 0.85443 0.0
C2942 C 0.78969 0.61496 0.86226 0.0
C2943 C 0.77716 0.6102 0.82897 0.0
C2944 C 0.78126 0.59664 0.86798 0.0
C2945 C 0.76704 0.59313 0.83527 0.0
C2946 C 0.78869 0.62101 0.84242 0.0
C2947 C 0.74109 0.56864 0.8314 0.0
N2948 N 0.76103 0.56914 0.86088 0.0
C2949 C 0.7454 0.56147 0.85029 0.0
C2950 C 0.75242 0.58412 0.82357 0.0
Eu2951 Eu 0.77093 0.55685 0.8924 0.0
N2952 N 0.78111 0.59076 0.88723 0.0
C2953 C 0.78582 0.6043 0.90161 0.0
C2954 C 0.79759 0.62732 0.87686 0.0
C2955 C 0.79499 0.62229 0.89667 0.0
H2956 H 0.73704 0.54906 0.85608 0.0
H2957 H 0.79992 0.63232 0.90814 0.0
H2958 H 0.79553 0.63477 0.83768 0.0
H2959 H 0.72928 0.56201 0.82278 0.0
H2960 H 0.78349 0.60084 0.91702 0.0
H2961 H 0.73103 0.47745 0.88684 0.0
H2962 H 0.80441 0.64139 0.87307 0.0
H2963 H 0.82542 0.52408 0.94458 0.0
H2964 H 0.75751 0.50196 0.87947 0.0
H2965 H 0.82627 0.50846 0.97698 0.0
H2966 H 0.77522 0.61582 0.81409 0.0
H2967 H 0.73168 0.45879 0.91831 0.0
H2968 H 0.74829 0.45194 0.95079 0.0
H2969 H 0.74916 0.58958 0.80887 0.0
H2970 H 0.77445 0.45989 0.97483 0.0
N2971 N 0.7721 0.49764 0.90687 0.0
C2972 C 0.75749 0.49421 0.89343 0.0
C2973 C 0.74307 0.46974 0.91532 0.0
C2974 C 0.75814 0.47346 0.92908 0.0
C2975 C 0.74263 0.48029 0.89753 0.0
C2976 C 0.77259 0.48786 0.92451 0.0
H2977 H 0.80318 0.48112 0.98488 0.0
N2978 N 0.80063 0.50705 0.93398 0.0
C2979 C 0.81523 0.50387 0.96629 0.0
C2980 C 0.78736 0.49249 0.93828 0.0
C2981 C 0.81427 0.5131 0.94787 0.0
C2982 C 0.80229 0.48833 0.97061 0.0
C2983 C 0.78804 0.48257 0.95666 0.0
O2984 O 0.82351 0.49839 0.91258 0.0
O2985 O 0.7959 0.54125 0.88068 0.0
O2986 O 0.77611 0.54078 0.85946 0.0
O2987 O 0.79184 0.51127 0.86444 0.0
O2988 O 0.82539 0.53494 0.88702 0.0
O2989 O 0.81095 0.48963 0.88474 0.0
O2990 O 0.74166 0.54294 0.89862 0.0
O2991 O 0.77514 0.53247 0.9173 0.0
O2992 O 0.81721 0.54136 0.91622 0.0
O2993 O 0.79698 0.56873 0.90977 0.0
O2994 O 0.77176 0.56106 0.92689 0.0
O2995 O 0.74481 0.57434 0.89132 0.0
C2996 C 0.81362 0.54656 0.87737 0.0
C2997 C 0.84546 0.48511 0.89036 0.0
C2998 C 0.86825 0.47661 0.86461 0.0
C2999 C 0.84901 0.47692 0.87181 0.0
C3000 C 0.88409 0.48397 0.87601 0.0
C3001 C 0.86147 0.49226 0.90186 0.0
C3002 C 0.88068 0.49172 0.89462 0.0
C3003 C 0.78342 0.52394 0.85091 0.0
C3004 C 0.82517 0.48684 0.89756 0.0
C3005 C 0.77408 0.46771 0.96084 0.0
C3006 C 0.75914 0.46323 0.94716 0.0
C3007 C 0.77421 0.54313 0.93404 0.0
C3008 C 0.71683 0.56666 0.90964 0.0
C3009 C 0.71886 0.58468 0.92005 0.0
C3010 C 0.70211 0.59496 0.92668 0.0
C3011 C 0.68332 0.58615 0.92419 0.0
C3012 C 0.698 0.55818 0.90739 0.0
C3013 C 0.68137 0.56778 0.91488 0.0
C3014 C 0.81267 0.56043 0.91805 0.0
C3015 C 0.73281 0.56014 0.89648 0.0
H3016 H 0.83695 0.471 0.86297 0.0
H3017 H 0.89917 0.48334 0.87061 0.0
H3018 H 0.85922 0.49846 0.91641 0.0
H3019 H 0.8929 0.49725 0.90344 0.0
H3020 H 0.73337 0.59146 0.92167 0.0
H3021 H 0.67003 0.59383 0.92868 0.0
H3022 H 0.69602 0.54477 0.89881 0.0
H3023 H 0.66679 0.56145 0.91258 0.0
Eu3024 Eu 0.76972 0.55384 0.14935 0.0
C3025 C 0.70968 0.51692 0.10108 0.0
C3026 C 0.68293 0.54076 0.09914 0.0
C3027 C 0.69072 0.52055 0.07067 0.0
C3028 C 0.69839 0.53163 0.10996 0.0
C3029 C 0.7049 0.51032 0.08187 0.0
C3030 C 0.67996 0.53595 0.07921 0.0
C3031 C 0.72632 0.48219 0.08721 0.0
N3032 N 0.72402 0.50771 0.11183 0.0
C3033 C 0.73139 0.48978 0.10573 0.0
C3034 C 0.71361 0.49289 0.07493 0.0
Eu3035 Eu 0.73101 0.5219 0.14321 0.0
N3036 N 0.70092 0.53531 0.12961 0.0
C3037 C 0.6864 0.54535 0.13959 0.0
C3038 C 0.66999 0.55343 0.10896 0.0
C3039 C 0.67129 0.55513 0.12938 0.0
H3040 H 0.74192 0.48183 0.11477 0.0
H3041 H 0.6605 0.56381 0.13734 0.0
H3042 H 0.66843 0.54313 0.07065 0.0
H3043 H 0.73266 0.46838 0.0822 0.0
H3044 H 0.68603 0.54614 0.15545 0.0
H3045 H 0.81268 0.48724 0.1336 0.0
H3046 H 0.65809 0.56084 0.10114 0.0
H3047 H 0.76245 0.57691 0.19424 0.0
H3048 H 0.78581 0.51133 0.12779 0.0
H3049 H 0.78046 0.57964 0.22531 0.0
H3050 H 0.68731 0.51605 0.05569 0.0
H3051 H 0.83356 0.48985 0.16355 0.0
H3052 H 0.84139 0.50722 0.19533 0.0
H3053 H 0.71004 0.48718 0.0604 0.0
H3054 H 0.83306 0.53267 0.21979 0.0
N3055 N 0.79118 0.52702 0.1544 0.0
C3056 C 0.79462 0.51243 0.14101 0.0
C3057 C 0.82162 0.5003 0.16122 0.0
C3058 C 0.81773 0.51511 0.1751 0.0
C3059 C 0.80985 0.49878 0.14428 0.0
C3060 C 0.80196 0.52825 0.17144 0.0
H3061 H 0.81025 0.55935 0.23126 0.0
N3062 N 0.78092 0.55403 0.18245 0.0
C3063 C 0.78524 0.56907 0.21433 0.0
C3064 C 0.79697 0.54238 0.1856 0.0
C3065 C 0.77479 0.56711 0.19664 0.0
C3066 C 0.80213 0.55771 0.21754 0.0
C3067 C 0.80807 0.54403 0.20325 0.0
O3068 O 0.77545 0.58385 0.15914 0.0
O3069 O 0.73962 0.55254 0.13758 0.0
O3070 O 0.74918 0.5236 0.11136 0.0
O3071 O 0.77544 0.54513 0.11463 0.0
O3072 O 0.75892 0.56928 0.12128 0.0
O3073 O 0.79906 0.56708 0.14508 0.0
O3074 O 0.73641 0.49014 0.15004 0.0
O3075 O 0.75708 0.52646 0.16628 0.0
O3076 O 0.74386 0.56817 0.16651 0.0
O3077 O 0.71839 0.54501 0.16357 0.0
O3078 O 0.72978 0.52022 0.17756 0.0
O3079 O 0.70613 0.50324 0.14864 0.0
C3080 C 0.74083 0.56298 0.12216 0.0
C3081 C 0.80401 0.60152 0.15057 0.0
C3082 C 0.80888 0.63005 0.12993 0.0
C3083 C 0.80083 0.61122 0.13268 0.0
C3084 C 0.82028 0.63905 0.14483 0.0
C3085 C 0.81531 0.61045 0.16555 0.0
C3086 C 0.8235 0.62921 0.16262 0.0
C3087 C 0.76415 0.53373 0.10229 0.0
C3088 C 0.79419 0.58299 0.15486 0.0
C3089 C 0.82433 0.53155 0.20639 0.0
C3090 C 0.82905 0.51704 0.19245 0.0
C3091 C 0.7477 0.52401 0.18362 0.0
C3092 C 0.7072 0.46931 0.15817 0.0
C3093 C 0.68984 0.47081 0.16942 0.0
C3094 C 0.67902 0.45384 0.17454 0.0
C3095 C 0.68573 0.43518 0.16828 0.0
C3096 C 0.71375 0.45065 0.152 0.0
C3097 C 0.70299 0.43364 0.15704 0.0
C3098 C 0.72597 0.56141 0.17126 0.0
C3099 C 0.71707 0.48747 0.15144 0.0
H3100 H 0.79189 0.60437 0.12122 0.0
H3101 H 0.82666 0.65367 0.14263 0.0
H3102 H 0.81747 0.60304 0.1796 0.0
H3103 H 0.83216 0.63617 0.17418 0.0
H3104 H 0.68467 0.48524 0.17418 0.0
H3105 H 0.67744 0.42185 0.1718 0.0
H3106 H 0.72684 0.44931 0.14291 0.0
H3107 H 0.70789 0.41925 0.15203 0.0
Eu3108 Eu 0.73896 0.51837 0.39882 0.0
C3109 C 0.7722 0.45801 0.35015 0.0
C3110 C 0.7539 0.4279 0.35679 0.0
C3111 C 0.7624 0.43644 0.32307 0.0
C3112 C 0.76267 0.44575 0.36345 0.0
C3113 C 0.77362 0.45251 0.33012 0.0
C3114 C 0.75242 0.42414 0.33645 0.0
C3115 C 0.80123 0.4751 0.32703 0.0
N3116 N 0.78312 0.47318 0.3575 0.0
C3117 C 0.79895 0.48031 0.34686 0.0
C3118 C 0.7878 0.46195 0.31833 0.0
Eu3119 Eu 0.77509 0.48327 0.3904 0.0
N3120 N 0.76502 0.4496 0.38304 0.0
C3121 C 0.76313 0.4342 0.39615 0.0
C3122 C 0.74844 0.41366 0.37077 0.0
C3123 C 0.75389 0.41646 0.39046 0.0
H3124 H 0.80883 0.4912 0.35331 0.0
H3125 H 0.75125 0.40486 0.4012 0.0
H3126 H 0.7451 0.41088 0.33106 0.0
H3127 H 0.81304 0.48161 0.31838 0.0
H3128 H 0.7682 0.43577 0.41116 0.0
H3129 H 0.80245 0.56731 0.39182 0.0
H3130 H 0.74158 0.39981 0.36632 0.0
H3131 H 0.70634 0.51212 0.43662 0.0
H3132 H 0.78001 0.53969 0.38202 0.0
H3133 H 0.69971 0.52713 0.46887 0.0
H3134 H 0.76271 0.43244 0.3076 0.0
H3135 H 0.79666 0.58524 0.4231 0.0
H3136 H 0.77628 0.58954 0.45376 0.0
H3137 H 0.7895 0.45805 0.30293 0.0
H3138 H 0.74851 0.57863 0.47456 0.0
N3139 N 0.76264 0.54186 0.40786 0.0
C3140 C 0.7778 0.5473 0.39585 0.0
C3141 C 0.78701 0.57304 0.419 0.0
C3142 C 0.77123 0.56736 0.43116 0.0
C3143 C 0.79035 0.56292 0.40132 0.0
C3144 C 0.75912 0.55141 0.42516 0.0
H3145 H 0.72031 0.55515 0.48059 0.0
N3146 N 0.73204 0.52974 0.43097 0.0
C3147 C 0.7122 0.53221 0.4602 0.0
C3148 C 0.74341 0.54521 0.43699 0.0
C3149 C 0.71636 0.52336 0.44209 0.0
C3150 C 0.72375 0.54811 0.46667 0.0
C3151 C 0.73947 0.5549 0.455 0.0
O3152 O 0.70773 0.52515 0.39943 0.0
O3153 O 0.74714 0.4945 0.37901 0.0
O3154 O 0.7714 0.5025 0.35954 0.0
O3155 O 0.74518 0.52318 0.36325 0.0
O3156 O 0.71852 0.49355 0.39081 0.0
O3157 O 0.72842 0.54611 0.38581 0.0
O3158 O 0.80476 0.49612 0.39665 0.0
O3159 O 0.76748 0.50727 0.41469 0.0
O3160 O 0.73124 0.49327 0.41986 0.0
O3161 O 0.75275 0.46789 0.41054 0.0
O3162 O 0.77831 0.48098 0.42485 0.0
O3163 O 0.80084 0.46545 0.38719 0.0
C3164 C 0.73093 0.48499 0.37923 0.0
C3165 C 0.697 0.55819 0.39611 0.0
C3166 C 0.67201 0.5802 0.38336 0.0
C3167 C 0.68918 0.56919 0.38062 0.0
C3168 C 0.66414 0.58232 0.40242 0.0
C3169 C 0.68891 0.55991 0.41508 0.0
C3170 C 0.67282 0.57239 0.41829 0.0
C3171 C 0.75861 0.5152 0.35066 0.0
C3172 C 0.71008 0.5421 0.39052 0.0
C3173 C 0.75137 0.57096 0.46084 0.0
C3174 C 0.7672 0.57716 0.44898 0.0
C3175 C 0.77195 0.49794 0.43169 0.0
C3176 C 0.82806 0.47092 0.40726 0.0
C3177 C 0.82444 0.4527 0.41693 0.0
C3178 C 0.84002 0.44203 0.42546 0.0
C3179 C 0.85919 0.45022 0.42531 0.0
C3180 C 0.84727 0.47882 0.40716 0.0
C3181 C 0.86272 0.46858 0.41635 0.0
C3182 C 0.73798 0.47491 0.42133 0.0
C3183 C 0.81318 0.47888 0.39353 0.0
H3184 H 0.69496 0.56719 0.36582 0.0
H3185 H 0.65051 0.59038 0.40478 0.0
H3186 H 0.6943 0.55109 0.42716 0.0
H3187 H 0.66627 0.57335 0.43281 0.0
H3188 H 0.8097 0.44624 0.41691 0.0
H3189 H 0.87154 0.44215 0.43158 0.0
H3190 H 0.85048 0.4924 0.39921 0.0
H3191 H 0.87762 0.47453 0.41589 0.0
Eu3192 Eu 0.77331 0.48162 0.6468 0.0
C3193 C 0.83304 0.52708 0.6022 0.0
C3194 C 0.86362 0.5083 0.6035 0.0
C3195 C 0.8563 0.52852 0.57479 0.0
C3196 C 0.84552 0.51404 0.61235 0.0
C3197 C 0.83895 0.53517 0.58384 0.0
C3198 C 0.86847 0.51494 0.58448 0.0
C3199 C 0.81162 0.55803 0.58564 0.0
N3200 N 0.81613 0.53337 0.611 0.0
C3201 C 0.80599 0.54937 0.60347 0.0
C3202 C 0.82784 0.55055 0.5755 0.0
Eu3203 Eu 0.80787 0.51785 0.64148 0.0
N3204 N 0.84112 0.50871 0.63138 0.0
C3205 C 0.85569 0.49983 0.6426 0.0
C3206 C 0.87702 0.49695 0.61436 0.0
C3207 C 0.87323 0.49313 0.63411 0.0
H3208 H 0.79294 0.55482 0.61086 0.0
H3209 H 0.88409 0.48538 0.64301 0.0
H3210 H 0.88219 0.51049 0.57756 0.0
H3211 H 0.80321 0.57025 0.57955 0.0
H3212 H 0.85463 0.498 0.65831 0.0
H3213 H 0.72804 0.54805 0.6427 0.0
H3214 H 0.89087 0.49209 0.60797 0.0
H3215 H 0.77542 0.44562 0.68157 0.0
H3216 H 0.75274 0.52361 0.63087 0.0
H3217 H 0.76133 0.43897 0.71444 0.0
H3218 H 0.86084 0.53437 0.5606 0.0
H3219 H 0.7125 0.5436 0.67545 0.0
H3220 H 0.70914 0.52352 0.70657 0.0
H3221 H 0.83208 0.55722 0.56157 0.0
H3222 H 0.71847 0.49422 0.72612 0.0
N3223 N 0.75094 0.50601 0.65674 0.0
C3224 C 0.74592 0.52173 0.64516 0.0
C3225 C 0.72326 0.53291 0.67035 0.0
C3226 C 0.72838 0.51654 0.68202 0.0
C3227 C 0.73202 0.53549 0.65183 0.0
C3228 C 0.74237 0.50303 0.67467 0.0
H3229 H 0.73795 0.46277 0.72926 0.0
N3230 N 0.76104 0.47352 0.6783 0.0
C3231 C 0.75749 0.45244 0.70663 0.0
C3232 C 0.74767 0.48644 0.68578 0.0
C3233 C 0.76557 0.45636 0.68808 0.0
C3234 C 0.74427 0.46589 0.71491 0.0
C3235 C 0.73901 0.48301 0.7044 0.0
O3236 O 0.76688 0.45037 0.64381 0.0
O3237 O 0.79782 0.49023 0.62755 0.0
O3238 O 0.79168 0.51422 0.60871 0.0
O3239 O 0.76858 0.48986 0.61154 0.0
O3240 O 0.79924 0.46223 0.63975 0.0
O3241 O 0.74487 0.47186 0.63429 0.0
O3242 O 0.79502 0.54746 0.64824 0.0
O3243 O 0.78303 0.50966 0.66463 0.0
O3244 O 0.79745 0.47203 0.66858 0.0
O3245 O 0.82209 0.49543 0.66184 0.0
O3246 O 0.80905 0.51972 0.67626 0.0
O3247 O 0.82683 0.54284 0.64278 0.0
C3248 C 0.80751 0.47408 0.62725 0.0
C3249 C 0.7346 0.43846 0.64034 0.0
C3250 C 0.71966 0.40734 0.63066 0.0
C3251 C 0.73166 0.4236 0.62637 0.0
C3252 C 0.71019 0.40602 0.64899 0.0
C3253 C 0.7252 0.4373 0.65872 0.0
C3254 C 0.71295 0.42105 0.66299 0.0
C3255 C 0.77797 0.50282 0.59929 0.0
C3256 C 0.74964 0.45319 0.63577 0.0
C3257 C 0.72523 0.49658 0.71183 0.0
C3258 C 0.71991 0.51327 0.70067 0.0
C3259 C 0.79177 0.51329 0.6822 0.0
C3260 C 0.81955 0.57208 0.65941 0.0
C3261 C 0.83766 0.57043 0.66962 0.0
C3262 C 0.84821 0.58736 0.67536 0.0
C3263 C 0.83978 0.60613 0.67233 0.0
C3264 C 0.81134 0.5909 0.65637 0.0
C3265 C 0.82131 0.60783 0.66308 0.0
C3266 C 0.81535 0.47968 0.67148 0.0
C3267 C 0.81287 0.55545 0.64708 0.0
H3268 H 0.7391 0.42444 0.61221 0.0
H3269 H 0.70068 0.3935 0.65238 0.0
H3270 H 0.72753 0.44865 0.66974 0.0
H3271 H 0.70573 0.42001 0.67718 0.0
H3272 H 0.84437 0.55599 0.6718 0.0
H3273 H 0.84778 0.61946 0.67647 0.0
H3274 H 0.79786 0.59257 0.64781 0.0
H3275 H 0.81515 0.62236 0.66027 0.0
Eu3276 Eu 0.4812 0.1436 0.26781 0.0
C3277 C 0.54682 0.10093 0.24187 0.0
C3278 C 0.56393 0.10544 0.27313 0.0
C3279 C 0.57021 0.07608 0.25332 0.0
C3280 C 0.55042 0.11216 0.25876 0.0
C3281 C 0.55686 0.08287 0.23892 0.0
C3282 C 0.57374 0.08731 0.27036 0.0
C3283 C 0.54046 0.07996 0.20725 0.0
N3284 N 0.53385 0.10781 0.22816 0.0
C3285 C 0.53092 0.09796 0.21076 0.0
C3286 C 0.55339 0.0723 0.22145 0.0
Eu3287 Eu 0.52012 0.139 0.23511 0.0
N3288 N 0.54084 0.12971 0.2611 0.0
C3289 C 0.54407 0.14138 0.27714 0.0
C3290 C 0.5673 0.11724 0.28982 0.0
C3291 C 0.55734 0.13528 0.29182 0.0
H3292 H 0.52146 0.10413 0.19942 0.0
H3293 H 0.55994 0.1445 0.30463 0.0
H3294 H 0.58419 0.08191 0.28126 0.0
H3295 H 0.53798 0.07212 0.19354 0.0
H3296 H 0.53638 0.15533 0.27855 0.0
H3297 H 0.40811 0.13856 0.22965 0.0
H3298 H 0.57763 0.11261 0.30118 0.0
H3299 H 0.48938 0.17543 0.30602 0.0
H3300 H 0.43638 0.12467 0.24726 0.0
H3301 H 0.47756 0.2081 0.31714 0.0
H3302 H 0.57802 0.06222 0.25133 0.0
H3303 H 0.40266 0.17469 0.22912 0.0
H3304 H 0.41085 0.20767 0.24361 0.0
H3305 H 0.56082 0.05838 0.21866 0.0
H3306 H 0.4288 0.22646 0.26902 0.0
N3307 N 0.44945 0.15293 0.25427 0.0
C3308 C 0.43529 0.1406 0.24625 0.0
C3309 C 0.41568 0.16876 0.2364 0.0
C3310 C 0.4282 0.18096 0.2475 0.0
C3311 C 0.41875 0.14837 0.23656 0.0
C3312 C 0.44501 0.1725 0.25673 0.0
H3313 H 0.4523 0.22604 0.29765 0.0
N3314 N 0.47076 0.17471 0.28051 0.0
C3315 C 0.47139 0.20144 0.30396 0.0
C3316 C 0.45554 0.18347 0.27068 0.0
C3317 C 0.47788 0.18283 0.29772 0.0
C3318 C 0.45716 0.21154 0.29289 0.0
C3319 C 0.44892 0.20253 0.27615 0.0
O3320 O 0.48799 0.13866 0.29982 0.0
O3321 O 0.50748 0.1212 0.26187 0.0
O3322 O 0.49713 0.11665 0.22339 0.0
O3323 O 0.46987 0.12395 0.24322 0.0
O3324 O 0.4812 0.10893 0.27008 0.0
O3325 O 0.45749 0.13794 0.28724 0.0
O3326 O 0.52749 0.14373 0.20462 0.0
O3327 O 0.4944 0.15706 0.24191 0.0
O3328 O 0.49758 0.17687 0.26552 0.0
O3329 O 0.52397 0.17406 0.24474 0.0
O3330 O 0.49665 0.14674 0.21296 0.0
O3331 O 0.54952 0.15087 0.22702 0.0
C3332 C 0.49883 0.10344 0.26481 0.0
C3333 C 0.45889 0.13087 0.32144 0.0
C3334 C 0.42804 0.12086 0.33745 0.0
C3335 C 0.43982 0.12222 0.32057 0.0
C3336 C 0.43572 0.12742 0.35557 0.0
C3337 C 0.46652 0.13702 0.33968 0.0
C3338 C 0.45497 0.13517 0.3567 0.0
C3339 C 0.47834 0.11417 0.22863 0.0
C3340 C 0.46876 0.13631 0.30285 0.0
C3341 C 0.43358 0.21158 0.26546 0.0
C3342 C 0.42339 0.20087 0.25097 0.0
C3343 C 0.48638 0.15723 0.22501 0.0
C3344 C 0.55971 0.14703 0.19327 0.0
C3345 C 0.56325 0.16237 0.17989 0.0
C3346 C 0.57234 0.15841 0.16195 0.0
C3347 C 0.57851 0.13912 0.15748 0.0
C3348 C 0.56641 0.12781 0.18916 0.0
C3349 C 0.57577 0.12389 0.17122 0.0
C3350 C 0.51276 0.18635 0.25599 0.0
C3351 C 0.54495 0.15094 0.2083 0.0
H3352 H 0.43363 0.1175 0.30655 0.0
H3353 H 0.42681 0.12656 0.36881 0.0
H3354 H 0.48096 0.14403 0.34063 0.0
H3355 H 0.46073 0.14026 0.37073 0.0
H3356 H 0.5578 0.1772 0.18287 0.0
H3357 H 0.58549 0.13592 0.14348 0.0
H3358 H 0.56395 0.11584 0.19943 0.0
H3359 H 0.58054 0.10899 0.1678 0.0
Eu3360 Eu 1.01836 0.89501 0.73122 0.0
C3361 C 0.05017 0.85101 0.79222 0.0
C3362 C 0.01981 0.85502 0.81087 0.0
C3363 C 0.0396 0.82518 0.81497 0.0
C3364 C 0.03357 0.86224 0.79702 0.0
C3365 C 0.05341 0.83246 0.80131 0.0
C3366 C 0.02287 0.83641 0.81975 0.0
C3367 C 0.08418 0.82994 0.78333 0.0
N3368 N 0.06329 0.8583 0.77891 0.0
C3369 C 0.08043 0.84842 0.77478 0.0
C3370 C 0.07054 0.82185 0.79654 0.0
Eu3371 Eu 0.05542 0.88964 0.76585 0.0
N3372 N 0.03079 0.88015 0.7881 0.0
C3373 C 1.01502 0.89178 0.79255 0.0
C3374 C 1.00338 0.86675 0.81542 0.0
C3375 C 1.001 0.88522 0.80627 0.0
H3376 H 0.09125 0.85481 0.76488 0.0
H3377 H 0.98839 0.89438 0.80978 0.0
H3378 H 1.01242 0.83061 0.83041 0.0
H3379 H 0.09763 0.82203 0.7798 0.0
H3380 H 1.01328 0.90602 0.78543 0.0
H3381 H 0.05466 0.89427 0.65725 0.0
H3382 H 0.99248 0.86173 0.82603 0.0
H3383 H 0.9809 0.92619 0.74495 0.0
H3384 H 0.04373 0.8795 0.68737 0.0
H3385 H 0.9672 0.95831 0.73478 0.0
H3386 H 0.0418 0.81093 0.82205 0.0
H3387 H 0.04618 0.92874 0.64906 0.0
H3388 H 0.02803 0.95925 0.65715 0.0
H3389 H 0.07351 0.80753 0.80319 0.0
H3390 H 1.0044 0.97665 0.67806 0.0
N3391 N 0.03007 0.9059 0.69927 0.0
C3392 C 0.04025 0.89488 0.68554 0.0
C3393 C 0.04152 0.92253 0.66306 0.0
C3394 C 0.03 0.93345 0.67614 0.0
C3395 C 0.04631 0.90309 0.66763 0.0
C3396 C 0.02417 0.92474 0.69434 0.0
H3397 H 0.98154 0.9763 0.7065 0.0
N3398 N 1.00367 0.92609 0.72306 0.0
C3399 C 0.97951 0.95202 0.72679 0.0
C3400 C 1.01071 0.9349 0.70636 0.0
C3401 C 0.98723 0.93369 0.73233 0.0
C3402 C 0.98773 0.96214 0.71089 0.0
C3403 C 1.00304 0.95345 0.70014 0.0
O3404 O 0.98643 0.89094 0.73753 0.0
O3405 O 0.02796 0.87232 0.75553 0.0
O3406 O 0.06304 0.86631 0.74325 0.0
O3407 O 0.03941 0.8724 0.71875 0.0
O3408 O 1.00954 0.86128 0.73578 0.0
O3409 O 0.99904 0.88949 0.70705 0.0
O3410 O 0.08661 0.89257 0.77279 0.0
O3411 O 0.0471 0.9084 0.74053 0.0
O3412 O 0.01984 0.9265 0.74964 0.0
O3413 O 0.0478 0.92499 0.76843 0.0
O3414 O 0.07455 0.8951 0.73939 0.0
O3415 O 0.06466 0.90327 0.79365 0.0
C3416 C 0.02005 0.85475 0.75045 0.0
C3417 C 0.96418 0.88464 0.70906 0.0
C3418 C 0.9467 0.87334 0.67979 0.0
C3419 C 0.96402 0.87457 0.69096 0.0
C3420 C 0.92923 0.88193 0.68684 0.0
C3421 C 0.94668 0.89313 0.71614 0.0
C3422 C 0.92924 0.89174 0.70501 0.0
C3423 C 0.05463 0.86241 0.72602 0.0
C3424 C 0.98328 0.88903 0.71833 0.0
C3425 C 1.01 0.96237 0.68283 0.0
C3426 C 0.02344 0.95244 0.67091 0.0
C3427 C 0.06327 0.90803 0.73087 0.0
C3428 C 0.09689 0.89582 0.80558 0.0
C3429 C 0.11117 0.90987 0.8106 0.0
C3430 C 0.12627 0.905 0.82372 0.0
C3431 C 0.12711 0.88599 0.83208 0.0
C3432 C 0.09731 0.8769 0.81422 0.0
C3433 C 0.11252 0.87198 0.82739 0.0
C3434 C 0.03314 0.93645 0.76098 0.0
C3435 C 0.08342 0.90106 0.78968 0.0
H3436 H 0.9775 0.86806 0.68524 0.0
H3437 H 0.91568 0.88111 0.67825 0.0
H3438 H 0.9467 0.90149 0.72977 0.0
H3439 H 0.9158 0.89858 0.71029 0.0
H3440 H 0.1109 0.9245 0.80386 0.0
H3441 H 0.13895 0.88208 0.84217 0.0
H3442 H 0.08618 0.86594 0.81072 0.0
H3443 H 0.1131 0.8573 0.83383 0.0
Eu3444 Eu 0.48507 0.89546 0.2713 0.0
C3445 C 0.54893 0.93989 0.29002 0.0
C3446 C 0.56793 0.92985 0.26148 0.0
C3447 C 0.57194 0.96311 0.27472 0.0
C3448 C 0.55407 0.92536 0.27638 0.0
C3449 C 0.55787 0.95888 0.28928 0.0
C3450 C 0.57692 0.94867 0.26084 0.0
C3451 C 0.53819 0.96853 0.31724 0.0
N3452 N 0.53486 0.9357 0.30365 0.0
C3453 C 0.52946 0.94975 0.31723 0.0
C3454 C 0.55239 0.97318 0.30314 0.0
Eu3455 Eu 0.52332 0.90239 0.30404 0.0
N3456 N 0.54507 0.90719 0.27719 0.0
C3457 C 0.54875 0.89328 0.26312 0.0
C3458 C 0.57216 0.91538 0.24739 0.0
C3459 C 0.56241 0.89711 0.24811 0.0
H3460 H 0.51845 0.94676 0.32835 0.0
H3461 H 0.56535 0.88598 0.23705 0.0
H3462 H 0.58766 0.95228 0.24953 0.0
H3463 H 0.53379 0.97946 0.32803 0.0
H3464 H 0.54112 0.87927 0.26314 0.0
H3465 H 0.41745 0.88917 0.31836 0.0
H3466 H 0.5827 0.91829 0.23571 0.0
H3467 H 0.49797 0.86491 0.23369 0.0
H3468 H 0.44304 0.90721 0.30199 0.0
H3469 H 0.48813 0.83251 0.22014 0.0
H3470 H 0.57894 0.97759 0.27396 0.0
H3471 H 0.41128 0.85404 0.31079 0.0
H3472 H 0.41834 0.82487 0.29001 0.0
H3473 H 0.55897 0.98786 0.30304 0.0
H3474 H 0.43658 0.80986 0.26273 0.0
N3475 N 0.45485 0.88228 0.28572 0.0
C3476 C 0.44216 0.89175 0.29851 0.0
C3477 C 0.42338 0.86178 0.3036 0.0
C3478 C 0.43487 0.85248 0.28934 0.0
C3479 C 0.42682 0.88157 0.30791 0.0
C3480 C 0.45081 0.86306 0.28057 0.0
H3481 H 0.46192 0.81283 0.23636 0.0
N3482 N 0.47737 0.86387 0.25753 0.0
C3483 C 0.48072 0.83829 0.23303 0.0
C3484 C 0.46178 0.854 0.2657 0.0
C3485 C 0.48609 0.85676 0.24067 0.0
C3486 C 0.46592 0.82724 0.24223 0.0
C3487 C 0.45612 0.83507 0.25858 0.0
O3488 O 0.49246 0.90042 0.23982 0.0
O3489 O 0.5108 0.91858 0.27655 0.0
O3490 O 0.49712 0.92132 0.31543 0.0
O3491 O 0.47226 0.91741 0.2917 0.0
O3492 O 0.48469 0.93 0.26675 0.0
O3493 O 0.4614 0.90012 0.25137 0.0
O3494 O 0.5258 0.91247 0.33395 0.0
O3495 O 0.49319 0.89072 0.30211 0.0
O3496 O 0.50243 0.86387 0.27451 0.0
O3497 O 0.52942 0.86762 0.29497 0.0
O3498 O 0.51182 0.87425 0.31913 0.0
O3499 O 0.5513 0.8984 0.32049 0.0
C3500 C 0.50217 0.93606 0.27232 0.0
C3501 C 0.46442 0.90651 0.21704 0.0
C3502 C 0.43502 0.91742 0.19965 0.0
C3503 C 0.44578 0.91538 0.21704 0.0
C3504 C 0.44337 0.91138 0.18173 0.0
C3505 C 0.47279 0.90029 0.19922 0.0
C3506 C 0.46226 0.90286 0.18155 0.0
C3507 C 0.47956 0.92584 0.30769 0.0
C3508 C 0.47327 0.90177 0.23612 0.0
C3509 C 0.44076 0.82455 0.26775 0.0
C3510 C 0.43037 0.83311 0.28327 0.0
C3511 C 0.49387 0.87524 0.31254 0.0
C3512 C 0.55011 0.90231 0.35586 0.0
C3513 C 0.55702 0.88341 0.36083 0.0
C3514 C 0.56168 0.8793 0.38053 0.0
C3515 C 0.55933 0.89386 0.39511 0.0
C3516 C 0.54806 0.9169 0.3705 0.0
C3517 C 0.55258 0.91264 0.39007 0.0
C3518 C 0.51776 0.85516 0.28403 0.0
C3519 C 0.54428 0.90769 0.33588 0.0
H3520 H 0.43933 0.92046 0.23078 0.0
H3521 H 0.4352 0.91297 0.16803 0.0
H3522 H 0.48704 0.89298 0.19904 0.0
H3523 H 0.46856 0.89789 0.16777 0.0
H3524 H 0.55888 0.87215 0.3496 0.0
H3525 H 0.56319 0.89078 0.41035 0.0
H3526 H 0.54282 0.93162 0.36675 0.0
H3527 H 0.551 0.92391 0.40129 0.0
Eu3528 Eu 0.89603 0.73175 1.01909 0.0
C3529 C 0.85058 0.79534 0.05059 0.0
C3530 C 0.85215 0.81517 0.02066 0.0
C3531 C 0.82438 0.81886 0.04317 0.0
C3532 C 0.86033 0.80066 0.03322 0.0
C3533 C 0.83257 0.80449 0.05575 0.0
C3534 C 0.83414 0.82422 0.02572 0.0
C3535 C 0.83263 0.78545 0.08605 0.0
N3536 N 0.85891 0.78162 0.06267 0.0
C3537 C 0.85068 0.77712 0.08055 0.0
C3538 C 0.82346 0.79911 0.07353 0.0
Eu3539 Eu 0.88986 0.76985 0.05233 0.0
N3540 N 0.87777 0.79177 0.02862 0.0
C3541 C 0.88793 0.79662 1.012 0.0
C3542 C 0.86233 0.82014 1.00335 0.0
C3543 C 0.88028 0.81082 0.999 0.0
H3544 H 0.85813 0.76712 0.09062 0.0
H3545 H 0.88827 0.81468 0.98572 0.0
H3546 H 0.82762 0.83538 1.01622 0.0
H3547 H 0.82599 0.78159 0.10006 0.0
H3548 H 0.90192 0.78952 1.00891 0.0
H3549 H 0.89045 0.6558 0.05129 0.0
H3550 H 0.85651 0.83119 0.99329 0.0
H3551 H 0.92891 0.74339 0.98266 0.0
H3552 H 0.87695 0.68536 0.03548 0.0
H3553 H 0.96222 0.7333 0.97197 0.0
H3554 H 0.81053 0.826 0.04686 0.0
H3555 H 0.92654 0.65009 0.05161 0.0
H3556 H 0.95973 0.65937 0.03834 0.0
H3557 H 0.80956 0.80573 0.07793 0.0
H3558 H 0.97913 0.6797 1.01528 0.0
N3559 N 0.90515 0.69872 0.02966 0.0
C3560 C 0.89276 0.68404 0.03647 0.0
C3561 C 0.92072 0.66362 0.04521 0.0
C3562 C 0.93306 0.67694 0.0353 0.0
C3563 C 0.90036 0.6668 0.04507 0.0
C3564 C 0.92475 0.69445 0.0273 0.0
H3565 H 0.97971 0.70632 0.98948 0.0
N3566 N 0.92735 0.72216 1.00602 0.0
C3567 C 0.95507 0.72562 0.98405 0.0
C3568 C 0.93595 0.70613 1.01461 0.0
C3569 C 0.93607 0.73109 0.98998 0.0
C3570 C 0.9649 0.71042 0.99401 0.0
C3571 C 0.95527 0.70024 1.00925 0.0
O3572 O 0.89207 0.7439 0.98861 0.0
O3573 O 0.87246 0.75716 0.02496 0.0
O3574 O 0.86692 0.74624 0.06144 0.0
O3575 O 0.87726 0.71876 0.04329 0.0
O3576 O 0.86159 0.73016 1.01659 0.0
O3577 O 0.89119 0.71162 0.99578 0.0
O3578 O 0.89705 0.77687 0.08264 0.0
O3579 O 0.90847 0.74464 0.04583 0.0
O3580 O 0.92896 0.74659 0.02397 0.0
O3581 O 0.92479 0.77469 0.04193 0.0
O3582 O 0.89698 0.74618 0.07436 0.0
O3583 O 0.9006 0.79967 0.06034 0.0
C3584 C 0.85509 0.74771 0.02132 0.0
C3585 C 0.88432 0.71907 0.96239 0.0
C3586 C 0.87331 0.69074 0.9427 0.0
C3587 C 0.87347 0.70134 0.96048 0.0
C3588 C 0.88255 0.69932 0.92613 0.0
C3589 C 0.89332 0.72746 0.94578 0.0
C3590 C 0.89213 0.71771 0.92763 0.0
C3591 C 0.8657 0.72718 0.05654 0.0
C3592 C 0.88994 0.72548 0.9823 0.0
C3593 C 0.96409 0.684 1.01873 0.0
C3594 C 0.95305 0.67247 0.0319 0.0
C3595 C 0.90828 0.73633 0.06264 0.0
C3596 C 0.89691 0.80933 0.09418 0.0
C3597 C 0.91055 0.81263 0.10945 0.0
C3598 C 0.90491 0.823 0.12636 0.0
C3599 C 0.88554 0.83025 0.12791 0.0
C3600 C 0.87779 0.81723 0.09548 0.0
C3601 C 0.87211 0.82755 0.11239 0.0
C3602 C 0.93771 0.76264 0.03226 0.0
C3603 C 0.90236 0.79502 0.07898 0.0
H3604 H 0.86625 0.69512 0.97336 0.0
H3605 H 0.88311 0.69152 0.9122 0.0
H3606 H 0.90218 0.74082 0.94708 0.0
H3607 H 0.89955 0.72392 0.91489 0.0
H3608 H 0.92537 0.80653 0.10852 0.0
H3609 H 0.88097 0.8383 0.14093 0.0
H3610 H 0.86719 0.81514 0.08371 0.0
H3611 H 0.85723 0.83333 0.11353 0.0
Eu3612 Eu 0.64455 0.26712 0.55671 0.0
C3613 C 0.59918 0.29758 0.493 0.0
C3614 C 0.60171 0.26788 0.47293 0.0
C3615 C 0.5736 0.29002 0.46877 0.0
C3616 C 0.6093 0.28035 0.48782 0.0
C3617 C 0.58126 0.30256 0.48345 0.0
C3618 C 0.58382 0.27279 0.46348 0.0
C3619 C 0.5805 0.33282 0.50252 0.0
N3620 N 0.6071 0.30973 0.5069 0.0
C3621 C 0.59848 0.32752 0.51124 0.0
C3622 C 0.57177 0.32024 0.48864 0.0
Eu3623 Eu 0.63829 0.29995 0.51889 0.0
N3624 N 0.62662 0.27587 0.49713 0.0
C3625 C 0.6373 0.25956 0.49223 0.0
C3626 C 0.61238 0.25084 0.46797 0.0
C3627 C 0.63024 0.24667 0.47765 0.0
H3628 H 0.60559 0.33776 0.52131 0.0
H3629 H 0.63865 0.23364 0.47374 0.0
H3630 H 0.57775 0.26336 0.45202 0.0
H3631 H 0.57358 0.34678 0.50622 0.0
H3632 H 0.65128 0.2567 0.49952 0.0
H3633 H 0.65504 0.31885 0.62047 0.0
H3634 H 0.60703 0.24088 0.4566 0.0
H3635 H 0.67366 0.22874 0.54326 0.0
H3636 H 0.64055 0.30863 0.58998 0.0
H3637 H 0.70309 0.21114 0.55564 0.0
H3638 H 0.55986 0.29362 0.46129 0.0
H3639 H 0.68284 0.30048 0.63502 0.0
H3640 H 0.70741 0.2737 0.63241 0.0
H3641 H 0.55795 0.32452 0.48168 0.0
H3642 H 0.72114 0.24554 0.61444 0.0
N3643 N 0.65763 0.2817 0.5868 0.0
C3644 C 0.6515 0.29885 0.59599 0.0
C3645 C 0.67594 0.29506 0.6216 0.0
C3646 C 0.68322 0.27844 0.61187 0.0
C3647 C 0.66021 0.30541 0.61349 0.0
C3648 C 0.67381 0.2719 0.59425 0.0
H3649 H 0.71984 0.2225 0.58602 0.0
N3650 N 0.6737 0.25014 0.5664 0.0
C3651 C 0.69739 0.22375 0.56363 0.0
C3652 C 0.68208 0.25608 0.58375 0.0
C3653 C 0.68066 0.23371 0.55675 0.0
C3654 C 0.70678 0.23022 0.58077 0.0
C3655 C 0.69912 0.24635 0.59114 0.0
O3656 O 0.63814 0.23515 0.55077 0.0
O3657 O 0.62162 0.27236 0.53055 0.0
O3658 O 0.61669 0.31039 0.54275 0.0
O3659 O 0.62372 0.28922 0.56931 0.0
O3660 O 0.61 0.26476 0.55704 0.0
O3661 O 0.6386 0.24829 0.58097 0.0
O3662 O 0.64333 0.33025 0.51035 0.0
O3663 O 0.65778 0.29388 0.54362 0.0
O3664 O 0.67734 0.26889 0.54071 0.0
O3665 O 0.67369 0.29127 0.51565 0.0
O3666 O 0.64487 0.32175 0.54275 0.0
O3667 O 0.65024 0.30676 0.48949 0.0
C3668 C 0.60408 0.26924 0.53934 0.0
C3669 C 0.62927 0.21438 0.5801 0.0
C3670 C 0.61487 0.19905 0.60944 0.0
C3671 C 0.61998 0.216 0.59864 0.0
C3672 C 0.61894 0.18028 0.60156 0.0
C3673 C 0.63336 0.19557 0.57246 0.0
C3674 C 0.62819 0.17858 0.58319 0.0
C3675 C 0.61406 0.30421 0.5612 0.0
C3676 C 0.63612 0.23248 0.57003 0.0
C3677 C 0.70803 0.2528 0.6087 0.0
C3678 C 0.70013 0.26876 0.619 0.0
C3679 C 0.6584 0.31112 0.55114 0.0
C3680 C 0.64533 0.33983 0.47763 0.0
C3681 C 0.65921 0.3548 0.47489 0.0
C3682 C 0.6541 0.37199 0.46484 0.0
C3683 C 0.63517 0.37399 0.45654 0.0
C3684 C 0.62638 0.34146 0.46923 0.0
C3685 C 0.62141 0.35852 0.4585 0.0
C3686 C 0.68629 0.27947 0.52614 0.0
C3687 C 0.65015 0.32576 0.49306 0.0
H3688 H 0.61683 0.23046 0.60483 0.0
H3689 H 0.61525 0.16698 0.60977 0.0
H3690 H 0.64092 0.19402 0.55847 0.0
H3691 H 0.63158 0.16406 0.57738 0.0
H3692 H 0.6737 0.35375 0.48187 0.0
H3693 H 0.63109 0.38743 0.44878 0.0
H3694 H 0.61537 0.33004 0.47148 0.0
H3695 H 0.60672 0.36001 0.45223 0.0
Eu3696 Eu 0.26533 0.48135 0.14666 0.0
C3697 C 0.24937 0.54471 0.09968 0.0
C3698 C 0.2786 0.5637 0.10889 0.0
C3699 C 0.2629 0.56921 0.07697 0.0
C3700 C 0.26413 0.54934 0.11347 0.0
C3701 C 0.24886 0.55444 0.0812 0.0
C3702 C 0.27773 0.5738 0.09074 0.0
C3703 C 0.22135 0.53351 0.07174 0.0
N3704 N 0.23584 0.53043 0.10413 0.0
C3705 C 0.222 0.5246 0.09032 0.0
C3706 C 0.23463 0.54868 0.06724 0.0
Eu3707 Eu 0.23629 0.52088 0.13797 0.0
N3708 N 0.26458 0.53959 0.13114 0.0
C3709 C 0.27909 0.54315 0.14465 0.0
C3710 C 0.29357 0.56754 0.12273 0.0
C3711 C 0.29392 0.55709 0.14059 0.0
H3712 H 0.21044 0.5141 0.0938 0.0
H3713 H 0.30544 0.56002 0.15134 0.0
H3714 H 0.2886 0.58507 0.08711 0.0
H3715 H 0.21021 0.52902 0.06109 0.0
H3716 H 0.27901 0.53546 0.15865 0.0
H3717 H 0.21879 0.41189 0.14975 0.0
H3718 H 0.30496 0.5785 0.11975 0.0
H3719 H 0.29943 0.49638 0.17973 0.0
H3720 H 0.22835 0.44283 0.13649 0.0
H3721 H 0.31542 0.48442 0.21019 0.0
H3722 H 0.26263 0.57693 0.06293 0.0
H3723 H 0.23495 0.39842 0.17932 0.0
H3724 H 0.25925 0.40225 0.20617 0.0
H3725 H 0.23391 0.55572 0.05287 0.0
H3726 H 0.28476 0.42191 0.22289 0.0
N3727 N 0.25244 0.44894 0.15706 0.0
C3728 C 0.23712 0.43806 0.14872 0.0
C3729 C 0.23997 0.41246 0.17328 0.0
C3730 C 0.25491 0.42339 0.18243 0.0
C3731 C 0.23092 0.41995 0.15655 0.0
C3732 C 0.26083 0.44189 0.17419 0.0
H3733 H 0.30543 0.45231 0.22464 0.0
N3734 N 0.28023 0.47132 0.1769 0.0
C3735 C 0.30405 0.47556 0.20311 0.0
C3736 C 0.27492 0.4533 0.18424 0.0
C3737 C 0.29501 0.4822 0.18581 0.0
C3738 C 0.29836 0.45745 0.2112 0.0
C3739 C 0.28379 0.44605 0.2018 0.0
O3740 O 0.29529 0.49448 0.14203 0.0
O3741 O 0.26271 0.50616 0.12181 0.0
O3742 O 0.22161 0.49545 0.12008 0.0
O3743 O 0.24351 0.46916 0.12518 0.0
O3744 O 0.26712 0.47786 0.11207 0.0
O3745 O 0.29022 0.46235 0.14562 0.0
O3746 O 0.214 0.53991 0.12567 0.0
O3747 O 0.23919 0.49626 0.15846 0.0
O3748 O 0.25935 0.49597 0.1796 0.0
O3749 O 0.24493 0.5259 0.17389 0.0
O3750 O 0.21147 0.50011 0.14614 0.0
O3751 O 0.22415 0.54611 0.15496 0.0
C3752 C 0.26491 0.49583 0.10493 0.0
C3753 C 0.3206 0.47074 0.13131 0.0
C3754 C 0.33784 0.44274 0.1164 0.0
C3755 C 0.32022 0.45272 0.12082 0.0
C3756 C 0.35603 0.45201 0.1208 0.0
C3757 C 0.33886 0.47972 0.13559 0.0
C3758 C 0.35648 0.47053 0.13003 0.0
C3759 C 0.22766 0.477 0.11675 0.0
C3760 C 0.30309 0.47658 0.14269 0.0
C3761 C 0.27811 0.42761 0.20946 0.0
C3762 C 0.26366 0.41638 0.19987 0.0
C3763 C 0.22145 0.48993 0.15899 0.0
C3764 C 0.19126 0.5558 0.14491 0.0
C3765 C 0.1823 0.55174 0.1631 0.0
C3766 C 0.16181 0.55422 0.16508 0.0
C3767 C 0.15049 0.56126 0.1491 0.0
C3768 C 0.17979 0.56323 0.12918 0.0
C3769 C 0.1595 0.56588 0.13128 0.0
C3770 C 0.2528 0.51314 0.18774 0.0
C3771 C 0.21199 0.55111 0.14084 0.0
H3772 H 0.30616 0.44563 0.11753 0.0
H3773 H 0.36992 0.4446 0.11793 0.0
H3774 H 0.33953 0.49317 0.14428 0.0
H3775 H 0.37056 0.47725 0.13386 0.0
H3776 H 0.19104 0.54654 0.1755 0.0
H3777 H 0.13471 0.56372 0.15062 0.0
H3778 H 0.18651 0.56654 0.11504 0.0
H3779 H 0.15076 0.57148 0.11908 0.0
Eu3780 Eu 0.30948 0.51582 0.89518 0.0
C3781 C 0.24494 0.49936 0.84971 0.0
C3782 C 0.22666 0.52883 0.85899 0.0
C3783 C 0.22038 0.51316 0.82724 0.0
C3784 C 0.24074 0.51412 0.86349 0.0
C3785 C 0.23488 0.4989 0.83139 0.0
C3786 C 0.21635 0.52812 0.84094 0.0
C3787 C 0.25534 0.47131 0.82177 0.0
N3788 N 0.2593 0.48595 0.8539 0.0
C3789 C 0.26473 0.47209 0.84014 0.0
C3790 C 0.24017 0.48458 0.81746 0.0
Eu3791 Eu 0.26892 0.48578 0.8876 0.0
N3792 N 0.25063 0.51435 0.88107 0.0
C3793 C 0.24759 0.52891 0.89455 0.0
C3794 C 0.22335 0.54386 0.87279 0.0
C3795 C 0.23398 0.544 0.89055 0.0
H3796 H 0.27549 0.46079 0.84344 0.0
H3797 H 0.23146 0.55556 0.90128 0.0
H3798 H 0.20533 0.5392 0.83734 0.0
H3799 H 0.25956 0.46018 0.81111 0.0
H3800 H 0.25542 0.52869 0.90847 0.0
H3801 H 0.38628 0.4889 0.88594 0.0
H3802 H 0.21266 0.55544 0.86986 0.0
H3803 H 0.29956 0.55238 0.92801 0.0
H3804 H 0.35438 0.50213 0.8741 0.0
H3805 H 0.31078 0.56295 0.96118 0.0
H3806 H 0.2125 0.513 0.81328 0.0
H3807 H 0.39345 0.48693 0.92158 0.0
H3808 H 0.38437 0.49725 0.95585 0.0
H3809 H 0.23287 0.48386 0.80321 0.0
H3810 H 0.3636 0.51825 0.97685 0.0
N3811 N 0.34279 0.50635 0.90307 0.0
C3812 C 0.35713 0.50114 0.88981 0.0
C3813 C 0.3793 0.4926 0.91657 0.0
C3814 C 0.36583 0.5007 0.92988 0.0
C3815 C 0.37527 0.49362 0.8964 0.0
C3816 C 0.34761 0.50794 0.92257 0.0
H3817 H 0.33693 0.54404 0.97852 0.0
N3818 N 0.31946 0.52797 0.92661 0.0
C3819 C 0.31768 0.55041 0.95405 0.0
C3820 C 0.33566 0.51929 0.93467 0.0
C3821 C 0.31148 0.5445 0.93525 0.0
C3822 C 0.33233 0.5396 0.96384 0.0
C3823 C 0.34201 0.52427 0.95391 0.0
O3824 O 0.29797 0.54568 0.88714 0.0
O3825 O 0.2852 0.51106 0.87023 0.0
O3826 O 0.294 0.47007 0.87101 0.0
O3827 O 0.32197 0.48843 0.88042 0.0
O3828 O 0.31396 0.51383 0.86086 0.0
O3829 O 0.32907 0.54065 0.89471 0.0
O3830 O 0.25451 0.45954 0.87685 0.0
O3831 O 0.2935 0.49093 0.90732 0.0
O3832 O 0.29211 0.51234 0.92775 0.0
O3833 O 0.26415 0.49348 0.92331 0.0
O3834 O 0.28675 0.46132 0.90226 0.0
O3835 O 0.23962 0.47703 0.89907 0.0
C3836 C 0.29605 0.51155 0.8537 0.0
C3837 C 0.32353 0.56879 0.87537 0.0
C3838 C 0.35196 0.58316 0.85785 0.0
C3839 C 0.34246 0.56679 0.86664 0.0
C3840 C 0.34214 0.60149 0.85741 0.0
C3841 C 0.31413 0.58726 0.87478 0.0
C3842 C 0.32336 0.60347 0.86576 0.0
C3843 C 0.31338 0.4734 0.87109 0.0
C3844 C 0.31585 0.5534 0.8889 0.0
C3845 C 0.35886 0.51512 0.96188 0.0
C3846 C 0.37071 0.5032 0.9499 0.0
C3847 C 0.29876 0.47331 0.91118 0.0
C3848 C 0.23035 0.44285 0.89426 0.0
C3849 C 0.22669 0.43893 0.91422 0.0
C3850 C 0.2192 0.42036 0.91956 0.0
C3851 C 0.21557 0.40579 0.90513 0.0
C3852 C 0.22648 0.42826 0.87992 0.0
C3853 C 0.21922 0.40976 0.88538 0.0
C3854 C 0.2759 0.50369 0.93644 0.0
C3855 C 0.23875 0.46156 0.88747 0.0
H3856 H 0.35023 0.55277 0.86738 0.0
H3857 H 0.34927 0.61445 0.85113 0.0
H3858 H 0.30005 0.58938 0.88209 0.0
H3859 H 0.3162 0.6178 0.86579 0.0
H3860 H 0.22979 0.44998 0.92542 0.0
H3861 H 0.21002 0.39126 0.90927 0.0
H3862 H 0.22933 0.43113 0.86444 0.0
H3863 H 0.21651 0.39848 0.87434 0.0
Eu3864 Eu 0.26718 0.55466 0.64706 0.0
C3865 C 0.2853 0.49134 0.59849 0.0
C3866 C 0.2573 0.4709 0.60827 0.0
C3867 C 0.272 0.46666 0.57582 0.0
C3868 C 0.27135 0.48576 0.61265 0.0
C3869 C 0.2856 0.48189 0.57989 0.0
C3870 C 0.25786 0.46124 0.58991 0.0
C3871 C 0.31189 0.50408 0.56998 0.0
N3872 N 0.29815 0.5063 0.60266 0.0
C3873 C 0.3113 0.51285 0.58859 0.0
C3874 C 0.29916 0.48838 0.56567 0.0
Eu3875 Eu 0.29867 0.5152 0.63663 0.0
N3876 N 0.27126 0.49501 0.63051 0.0
C3877 C 0.25752 0.49054 0.64444 0.0
C3878 C 0.24308 0.46613 0.62251 0.0
C3879 C 0.24308 0.47611 0.64059 0.0
H3880 H 0.32237 0.52397 0.59181 0.0
H3881 H 0.23215 0.47245 0.65167 0.0
H3882 H 0.24729 0.44963 0.5864 0.0
H3883 H 0.32251 0.50916 0.55913 0.0
H3884 H 0.25792 0.49788 0.65859 0.0
H3885 H 0.30206 0.62964 0.6441 0.0
H3886 H 0.23201 0.4548 0.61968 0.0
H3887 H 0.23123 0.54441 0.68057 0.0
H3888 H 0.28335 0.6018 0.63 0.0
H3889 H 0.22269 0.5536 0.71479 0.0
H3890 H 0.27208 0.45922 0.56167 0.0
H3891 H 0.3064 0.63228 0.68021 0.0
H3892 H 0.29591 0.62079 0.71372 0.0
H3893 H 0.29976 0.48153 0.55124 0.0
H3894 H 0.27307 0.60036 0.73336 0.0
N3895 N 0.27999 0.58651 0.65747 0.0
C3896 C 0.28606 0.60193 0.64567 0.0
C3897 C 0.29873 0.61956 0.67404 0.0
C3898 C 0.28943 0.60567 0.68622 0.0
C3899 C 0.29632 0.61812 0.65366 0.0
C3900 C 0.27977 0.58925 0.67741 0.0
H3901 H 0.24446 0.57645 0.73349 0.0
N3902 N 0.25704 0.56271 0.67967 0.0
C3903 C 0.23553 0.56013 0.70776 0.0
C3904 C 0.26751 0.57729 0.68877 0.0
C3905 C 0.24029 0.55511 0.68835 0.0
C3906 C 0.24795 0.57292 0.7183 0.0
C3907 C 0.26388 0.58207 0.7087 0.0
O3908 O 0.23642 0.54463 0.64074 0.0
O3909 O 0.27153 0.53043 0.62213 0.0
O3910 O 0.31092 0.54134 0.61885 0.0
O3911 O 0.29113 0.56816 0.62814 0.0
O3912 O 0.26527 0.55859 0.61265 0.0
O3913 O 0.24349 0.57529 0.64881 0.0
O3914 O 0.32451 0.50208 0.62423 0.0
O3915 O 0.29351 0.53937 0.6566 0.0
O3916 O 0.27183 0.53579 0.67824 0.0
O3917 O 0.2932 0.51006 0.67266 0.0
O3918 O 0.32295 0.53531 0.64831 0.0
O3919 O 0.31038 0.48719 0.64867 0.0
C3920 C 0.2688 0.54092 0.60555 0.0
C3921 C 0.21466 0.5715 0.63016 0.0
C3922 C 0.20218 0.60101 0.61316 0.0
C3923 C 0.21792 0.59029 0.62143 0.0
C3924 C 0.18316 0.59248 0.61294 0.0
C3925 C 0.19555 0.56333 0.62989 0.0
C3926 C 0.17993 0.57372 0.62117 0.0
C3927 C 0.30574 0.56026 0.61784 0.0
C3928 C 0.22979 0.5628 0.64325 0.0
C3929 C 0.27518 0.59694 0.7179 0.0
C3930 C 0.28815 0.60859 0.70669 0.0
C3931 C 0.31097 0.5458 0.65877 0.0
C3932 C 0.34526 0.48313 0.64326 0.0
C3933 C 0.34887 0.47708 0.66265 0.0
C3934 C 0.3683 0.47387 0.66868 0.0
C3935 C 0.38415 0.47669 0.65557 0.0
C3936 C 0.36119 0.48555 0.63001 0.0
C3937 C 0.38056 0.48249 0.63624 0.0
C3938 C 0.2824 0.52052 0.68621 0.0
C3939 C 0.32524 0.48727 0.63631 0.0
H3940 H 0.23252 0.59704 0.6218 0.0
H3941 H 0.1707 0.60058 0.60691 0.0
H3942 H 0.19255 0.54931 0.63716 0.0
H3943 H 0.16512 0.56751 0.62137 0.0
H3944 H 0.33681 0.47488 0.67296 0.0
H3945 H 0.39929 0.47414 0.6603 0.0
H3946 H 0.35865 0.48998 0.61483 0.0
H3947 H 0.39276 0.48453 0.6261 0.0
Eu3948 Eu 0.23164 0.5188 0.39759 0.0
C3949 C 0.29538 0.55014 0.35392 0.0
C3950 C 0.31427 0.51981 0.35795 0.0
C3951 C 0.3201 0.54119 0.32956 0.0
C3952 C 0.29972 0.53304 0.36471 0.0
C3953 C 0.30566 0.55443 0.33633 0.0
C3954 C 0.32438 0.52395 0.34031 0.0
C3955 C 0.28732 0.5851 0.33384 0.0
N3956 N 0.28151 0.56282 0.36085 0.0
C3957 C 0.27763 0.58033 0.35141 0.0
C3958 C 0.30136 0.57206 0.32622 0.0
Eu3959 Eu 0.26815 0.55423 0.39163 0.0
N3960 N 0.28999 0.52947 0.38192 0.0
C3961 C 0.29395 0.51323 0.39315 0.0
C3962 C 0.31839 0.5029 0.36929 0.0
C3963 C 0.30817 0.49959 0.38693 0.0
H3964 H 0.26728 0.5908 0.3576 0.0
H3965 H 0.31137 0.48663 0.39581 0.0
H3966 H 0.33567 0.51397 0.33494 0.0
H3967 H 0.28413 0.59891 0.32633 0.0
H3968 H 0.28616 0.51093 0.40688 0.0
H3969 H 0.15531 0.54651 0.38336 0.0
H3970 H 0.32951 0.49239 0.36462 0.0
H3971 H 0.23805 0.48402 0.4341 0.0
H3972 H 0.18602 0.5294 0.37401 0.0
H3973 H 0.226 0.47778 0.46791 0.0
H3974 H 0.32816 0.54425 0.31609 0.0
H3975 H 0.1483 0.55346 0.41844 0.0
H3976 H 0.15681 0.54694 0.45396 0.0
H3977 H 0.30896 0.57586 0.31267 0.0
H3978 H 0.17629 0.52734 0.47766 0.0
N3979 N 0.19783 0.52902 0.40332 0.0
C3980 C 0.18358 0.5329 0.38936 0.0
C3981 C 0.16204 0.54631 0.41441 0.0
C3982 C 0.17504 0.53922 0.42884 0.0
C3983 C 0.16595 0.54238 0.3946 0.0
C3984 C 0.19284 0.53019 0.42275 0.0
H3985 H 0.20119 0.50014 0.48265 0.0
N3986 N 0.21964 0.50928 0.42946 0.0
C3987 C 0.21991 0.48987 0.45931 0.0
C3988 C 0.20405 0.51973 0.43628 0.0
C3989 C 0.22649 0.49328 0.44006 0.0
C3990 C 0.20604 0.50262 0.46762 0.0
C3991 C 0.19739 0.51733 0.45587 0.0
O3992 O 0.24571 0.48952 0.39232 0.0
O3993 O 0.25599 0.52683 0.37381 0.0
O3994 O 0.24489 0.56367 0.36919 0.0
O3995 O 0.21857 0.54239 0.37729 0.0
O3996 O 0.23016 0.51513 0.36314 0.0
O3997 O 0.21424 0.49262 0.3993 0.0
O3998 O 0.27479 0.58518 0.39601 0.0
O3999 O 0.24312 0.54609 0.41016 0.0
O4000 O 0.24872 0.52235 0.42971 0.0
O4001 O 0.27242 0.54616 0.42672 0.0
O4002 O 0.24374 0.57523 0.39925 0.0
O4003 O 0.29708 0.56317 0.40372 0.0
C4004 C 0.247 0.52218 0.35652 0.0
C4005 C 0.22193 0.46441 0.3816 0.0
C4006 C 0.19337 0.44973 0.365 0.0
C4007 C 0.2039 0.46644 0.3713 0.0
C4008 C 0.20182 0.43088 0.36732 0.0
C4009 C 0.23018 0.44552 0.38393 0.0
C4010 C 0.22028 0.42885 0.37651 0.0
C4011 C 0.22646 0.55721 0.36696 0.0
C4012 C 0.22849 0.48058 0.39455 0.0
C4013 C 0.18118 0.5284 0.46248 0.0
C4014 C 0.17007 0.53951 0.44896 0.0
C4015 C 0.23425 0.56265 0.41006 0.0
C4016 C 0.30703 0.59697 0.39909 0.0
C4017 C 0.3101 0.61139 0.41352 0.0
C4018 C 0.32057 0.6286 0.409 0.0
C4019 C 0.32834 0.63137 0.39003 0.0
C4020 C 0.31523 0.59939 0.38025 0.0
C4021 C 0.32581 0.61667 0.37574 0.0
C4022 C 0.26265 0.53359 0.43895 0.0
C4023 C 0.29226 0.58192 0.40342 0.0
H4024 H 0.19719 0.48094 0.36957 0.0
H4025 H 0.19384 0.41771 0.36266 0.0
H4026 H 0.24365 0.44354 0.39244 0.0
H4027 H 0.22647 0.41423 0.37873 0.0
H4028 H 0.30369 0.60958 0.42809 0.0
H4029 H 0.33653 0.64474 0.38643 0.0
H4030 H 0.31315 0.58825 0.36903 0.0
H4031 H 0.33186 0.61875 0.36112 0.0
H4032 H 0.06574 0.46807 0.28438 0.0
H4033 H 1.00633 0.46243 0.26353 0.0
H4034 H 0.06358 0.50394 0.28285 0.0
H4035 H 1.00367 0.49909 0.26237 0.0
H4036 H 1.00166 0.57396 0.26591 0.0
H4037 H 1.00137 0.53725 0.26609 0.0
H4038 H 0.06413 0.5375 0.27553 0.0
H4039 H 0.06435 0.57351 0.27413 0.0
C4040 C 0.05165 0.47398 0.27992 0.0
C4041 C 0.03611 0.45985 0.27536 0.0
C4042 C 0.05039 0.49577 0.27873 0.0
C4043 C 0.03332 0.50697 0.27245 0.0
C4044 C 1.01751 0.49298 0.26765 0.0
C4045 C 1.0189 0.47088 0.26875 0.0
C4046 C 1.01577 0.56668 0.26692 0.0
C4047 C 0.03323 0.57916 0.26859 0.0
C4048 C 1.0156 0.54453 0.26763 0.0
C4049 C 0.03279 0.53191 0.27086 0.0
C4050 C 0.05 0.54453 0.27293 0.0
C4051 C 0.05014 0.56638 0.27189 0.0
H4052 H 0.82117 0.78155 0.49196 0.0
H4053 H 0.81903 0.78511 0.55472 0.0
H4054 H 0.78482 0.78023 0.49047 0.0
H4055 H 0.78264 0.78234 0.55353 0.0
H4056 H 0.71064 0.77627 0.55054 0.0
H4057 H 0.74698 0.77617 0.55175 0.0
H4058 H 0.74868 0.78463 0.48916 0.0
H4059 H 0.71217 0.78535 0.48823 0.0
C4060 C 0.81344 0.78117 0.50592 0.0
C4061 C 0.82558 0.78168 0.52364 0.0
C4062 C 0.7915 0.78058 0.505 0.0
C4063 C 0.77829 0.78066 0.52177 0.0
C4064 C 0.79035 0.78164 0.5396 0.0
C4065 C 0.8124 0.78259 0.54044 0.0
C4066 C 0.71827 0.7776 0.53659 0.0
C4067 C 0.70602 0.77939 0.51906 0.0
C4068 C 0.74021 0.77779 0.53736 0.0
C4069 C 0.75329 0.78016 0.52065 0.0
C4070 C 0.74109 0.7823 0.503 0.0
C4071 C 0.71902 0.78226 0.50231 0.0
H4072 H 0.53427 0.46282 0.77168 0.0
H4073 H 0.47156 0.46573 0.77648 0.0
H4074 H 0.53598 0.49932 0.77152 0.0
H4075 H 0.47286 0.50168 0.77633 0.0
H4076 H 0.47434 0.57293 0.77005 0.0
H4077 H 0.47393 0.53652 0.76851 0.0
H4078 H 0.53626 0.5355 0.78051 0.0
H4079 H 0.53649 0.57201 0.78231 0.0
C4080 C 0.52043 0.47054 0.77128 0.0
C4081 C 0.50245 0.45874 0.77154 0.0
C4082 C 0.5214 0.49261 0.77193 0.0
C4083 C 0.50452 0.50586 0.7734 0.0
C4084 C 0.48676 0.49401 0.77447 0.0
C4085 C 0.48593 0.47218 0.77401 0.0
C4086 C 0.48827 0.56545 0.77254 0.0
C4087 C 0.50543 0.57767 0.77676 0.0
C4088 C 0.48803 0.54351 0.77165 0.0
C4089 C 0.50502 0.53072 0.77441 0.0
C4090 C 0.52229 0.54296 0.77822 0.0
C4091 C 0.52242 0.56492 0.77948 0.0
H4092 H 0.82547 0.23098 0.03009 0.0
H4093 H 0.82305 0.29148 1.01136 0.0
H4094 H 0.78909 0.22966 0.03094 0.0
H4095 H 0.78657 0.29027 1.01193 0.0
H4096 H 0.7135 0.28571 1.01323 0.0
H4097 H 0.75 0.2889 1.01378 0.0
H4098 H 0.75459 0.22747 0.02914 0.0
H4099 H 0.71881 0.22484 0.02912 0.0
C4100 C 0.81762 0.2444 0.02619 0.0
C4101 C 0.8294 0.26142 0.02058 0.0
C4102 C 0.7957 0.24361 0.02655 0.0
C4103 C 0.7825 0.25978 0.0215 0.0
C4104 C 0.79434 0.27687 1.01604 0.0
C4105 C 0.81628 0.27758 1.01552 0.0
C4106 C 0.72179 0.27299 1.01816 0.0
C4107 C 0.71071 0.25534 0.02347 0.0
C4108 C 0.74382 0.27464 1.01783 0.0
C4109 C 0.75767 0.25865 0.02201 0.0
C4110 C 0.74647 0.24096 0.0263 0.0
C4111 C 0.72473 0.23946 0.02671 0.0
H4112 H 0.25399 1.01191 0.45899 0.0
H4113 H 0.28854 0.06472 0.4649 0.0
H4114 H 0.25231 1.00917 0.49533 0.0
H4115 H 0.28663 0.06244 0.50077 0.0
H4116 H 0.28453 0.05756 0.57214 0.0
H4117 H 0.28709 0.05899 0.53592 0.0
H4118 H 0.24752 1.00939 0.53121 0.0
H4119 H 0.2451 1.00815 0.56734 0.0
C4120 C 0.26194 0.02294 0.4675 0.0
C4121 C 0.27247 0.03819 0.45663 0.0
C4122 C 0.26064 0.02153 0.48939 0.0
C4123 C 0.2693 0.03542 0.50343 0.0
C4124 C 0.27951 0.05072 0.49246 0.0
C4125 C 0.28076 0.05207 0.47073 0.0
C4126 C 0.27623 0.04661 0.56384 0.0
C4127 C 0.2644 0.03258 0.575 0.0
C4128 C 0.27768 0.0475 0.542 0.0
C4129 C 0.26766 0.03438 0.52819 0.0
C4130 C 0.25595 0.0203 0.5394 0.0
C4131 C 0.25438 0.01957 0.56122 0.0
H4132 H 0.26239 0.99638 0.7109 0.0
H4133 H 0.24369 0.05676 0.71324 0.0
H4134 H 0.26475 0.99555 0.74717 0.0
H4135 H 0.24577 0.056 0.74953 0.0
H4136 H 0.24447 0.05133 0.82246 0.0
H4137 H 0.24344 0.05332 0.78599 0.0
H4138 H 0.26916 0.99551 0.78245 0.0
H4139 H 0.26995 0.99374 0.8185 0.0
C4140 C 0.25922 1.01001 0.71864 0.0
C4141 C 0.25362 0.02696 0.70671 0.0
C4142 C 0.26036 1.00947 0.74055 0.0
C4143 C 0.25557 0.02565 0.75381 0.0
C4144 C 0.24987 0.0426 0.74185 0.0
C4145 C 0.24881 0.04313 0.71993 0.0
C4146 C 0.25021 0.03881 0.81437 0.0
C4147 C 0.25792 0.02234 0.82585 0.0
C4148 C 0.24958 0.03996 0.79237 0.0
C4149 C 0.25629 0.02473 0.77874 0.0
C4150 C 0.26368 1.00827 0.79035 0.0
C4151 C 0.2644 1.00724 0.81218 0.0
H4152 H 0.29559 0.03105 0.06787 0.0
H4153 H 0.25657 0.98101 0.07011 0.0
H4154 H 0.29347 0.03128 0.03164 0.0
H4155 H 0.25465 0.98093 0.03374 0.0
H4156 H 0.25698 0.97676 0.96229 0.0
H4157 H 0.25759 0.97787 0.99831 0.0
H4158 H 0.28764 0.03386 0.99579 0.0
H4159 H 0.28692 0.03255 0.95933 0.0
C4160 C 0.28627 0.0199 0.06114 0.0
C4161 C 0.27615 1.00624 0.07425 0.0
C4162 C 0.28502 0.01999 0.03928 0.0
C4163 C 0.27374 1.00617 0.02731 0.0
C4164 C 0.26374 0.99233 0.04044 0.0
C4165 C 0.2648 0.99241 0.06237 0.0
C4166 C 0.26327 0.98991 0.96882 0.0
C4167 C 0.27063 1.00503 0.95546 0.0
C4168 C 0.26387 0.99048 0.99063 0.0
C4169 C 0.2726 1.00605 1.00246 0.0
C4170 C 0.28042 0.02116 0.98917 0.0
C4171 C 0.27967 0.0206 0.96719 0.0
H4172 H 0.3193 1.0124 0.21439 0.0
H4173 H 0.25692 0.02112 0.21075 0.0
H4174 H 0.31794 1.01301 0.25025 0.0
H4175 H 0.2552 0.02139 0.24719 0.0
H4176 H 0.25474 0.02749 0.31981 0.0
H4177 H 0.25518 0.02597 0.28355 0.0
H4178 H 0.31663 1.01057 0.28554 0.0
H4179 H 0.31611 1.01251 0.32187 0.0
C4180 C 0.30475 1.01363 0.22071 0.0
C4181 C 0.28817 1.01499 0.20708 0.0
C4182 C 0.30398 1.0143 0.24249 0.0
C4183 C 0.28638 1.017 0.2542 0.0
C4184 C 0.26959 1.01892 0.24071 0.0
C4185 C 0.27046 1.01819 0.21868 0.0
C4186 C 0.26873 0.02411 0.31302 0.0
C4187 C 0.28537 0.02059 0.32613 0.0
C4188 C 0.26896 0.02293 0.29114 0.0
C4189 C 0.28597 1.01812 0.2791 0.0
C4190 C 0.30266 1.01444 0.29225 0.0
C4191 C 0.30236 1.01547 0.31418 0.0
H4192 H 0.46347 0.24191 0.03459 0.0
H4193 H 0.46663 0.30505 0.0313 0.0
H4194 H 0.50004 0.24026 0.03358 0.0
H4195 H 0.50298 0.30361 0.03021 0.0
H4196 H 0.5757 0.30014 0.03603 0.0
H4197 H 0.53912 0.30179 0.03647 0.0
H4198 H 0.53591 0.23932 0.02575 0.0
H4199 H 0.57225 0.23789 0.02536 0.0
C4200 C 0.47143 0.25582 0.03348 0.0
C4201 C 0.45969 0.27377 0.03246 0.0
C4202 C 0.49349 0.25486 0.03285 0.0
C4203 C 0.50699 0.27172 0.03161 0.0
C4204 C 0.49515 0.28961 0.031 0.0
C4205 C 0.47318 0.29051 0.03134 0.0
C4206 C 0.56768 0.28645 0.03351 0.0
C4207 C 0.57936 0.26879 0.03003 0.0
C4208 C 0.54561 0.28741 0.03379 0.0
C4209 C 0.53203 0.27078 0.03109 0.0
C4210 C 0.5438 0.25314 0.02793 0.0
C4211 C 0.56577 0.25229 0.02738 0.0
H4212 H 0.96686 0.27357 0.97532 0.0
H4213 H 0.96363 0.27216 0.03769 0.0
H4214 H 1.00262 0.27078 0.97656 0.0
H4215 H 1.00001 0.26939 0.03959 0.0
H4216 H 0.07299 0.27469 0.03985 0.0
H4217 H 0.03649 0.27515 0.03955 0.0
H4218 H 0.03683 0.26124 0.97789 0.0
H4219 H 0.07332 0.26089 0.97831 0.0
C4220 C 0.9731 0.27071 0.98966 0.0
C4221 C 0.95955 0.26944 1.00617 0.0
C4222 C 0.99487 0.26985 0.99047 0.0
C4223 C 1.0066 0.26882 1.0082 0.0
C4224 C 0.99334 0.26919 0.02506 0.0
C4225 C 0.9713 0.26984 0.02407 0.0
C4226 C 0.06573 0.27179 0.02592 0.0
C4227 C 0.07826 0.26773 1.00916 0.0
C4228 C 0.0438 0.27191 0.02576 0.0
C4229 C 0.0314 0.26832 1.00867 0.0
C4230 C 0.04399 0.26428 0.99186 0.0
C4231 C 0.06592 0.26388 0.99212 0.0
H4232 H 0.02156 0.71508 0.2251 0.0
H4233 H 1.01869 0.71448 0.28812 0.0
H4234 H 0.02206 0.75172 0.22538 0.0
H4235 H 1.0186 0.751 0.28848 0.0
H4236 H 1.00803 0.82233 0.28702 0.0
H4237 H 1.00774 0.78594 0.28628 0.0
H4238 H 0.03358 0.78741 0.22867 0.0
H4239 H 0.03371 0.82408 0.22957 0.0
C4240 C 0.02069 0.7223 0.23931 0.0
C4241 C 0.01984 0.70968 0.25658 0.0
C4242 C 0.02115 0.74428 0.23951 0.0
C4243 C 0.02034 0.75659 0.25698 0.0
C4244 C 0.01922 0.7439 0.2742 0.0
C4245 C 0.01931 0.72196 0.27402 0.0
C4246 C 1.01363 0.81542 0.27391 0.0
C4247 C 0.02081 0.82838 0.25849 0.0
C4248 C 1.01366 0.79351 0.27349 0.0
C4249 C 0.0206 0.78143 0.25736 0.0
C4250 C 0.02778 0.79436 0.2418 0.0
C4251 C 0.02802 0.81637 0.24239 0.0
H4252 H 0.57083 0.73828 0.49935 0.0
H4253 H 0.56954 0.79929 0.51594 0.0
H4254 H 0.53418 0.73747 0.49931 0.0
H4255 H 0.53327 0.79871 0.516 0.0
H4256 H 0.46194 0.79963 0.50856 0.0
H4257 H 0.49832 0.79949 0.51013 0.0
H4258 H 0.49792 0.73621 0.50464 0.0
H4259 H 0.46146 0.73651 0.50326 0.0
C4260 C 0.56325 0.75181 0.50327 0.0
C4261 C 0.57541 0.76882 0.5083 0.0
C4262 C 0.54121 0.75136 0.50326 0.0
C4263 C 0.52837 0.76796 0.50782 0.0
C4264 C 0.54065 0.78498 0.51242 0.0
C4265 C 0.56254 0.78531 0.51267 0.0
C4266 C 0.46911 0.78531 0.50839 0.0
C4267 C 0.45642 0.76803 0.50691 0.0
C4268 C 0.49103 0.78522 0.50904 0.0
C4269 C 0.50347 0.76782 0.50766 0.0
C4270 C 0.4908 0.75049 0.50591 0.0
C4271 C 0.46881 0.75062 0.50536 0.0
H4272 H 0.96432 0.80074 0.53031 0.0
H4273 H 0.96004 0.738 0.53773 0.0
H4274 H 1.00065 0.7986 0.52963 0.0
H4275 H 0.99658 0.73563 0.53684 0.0
H4276 H 0.06874 0.73213 0.52498 0.0
H4277 H 0.0323 0.73411 0.52593 0.0
H4278 H 0.03642 0.79603 0.53924 0.0
H4279 H 0.07294 0.79387 0.53884 0.0
C4280 C 0.9706 0.78613 0.53138 0.0
C4281 C 0.95685 0.76972 0.53354 0.0
C4282 C 0.99254 0.78483 0.53126 0.0
C4283 C 1.00401 0.76678 0.533 0.0
C4284 C 0.99027 0.75026 0.53519 0.0
C4285 C 0.96825 0.75166 0.53573 0.0
C4286 C 0.06239 0.74648 0.52814 0.0
C4287 C 0.0761 0.76274 0.5316 0.0
C4288 C 0.04044 0.74766 0.52878 0.0
C4289 C 0.02897 0.76538 0.53261 0.0
C4290 C 0.04272 0.78169 0.53601 0.0
C4291 C 0.06472 0.78041 0.53576 0.0
H4292 H 1.01574 0.21461 0.3164 0.0
H4293 H 0.02441 0.21167 0.25416 0.0
H4294 H 1.01658 0.25074 0.31521 0.0
H4295 H 0.0251 0.24836 0.25271 0.0
H4296 H 0.03571 0.32128 0.25391 0.0
H4297 H 0.03309 0.28478 0.25381 0.0
H4298 H 1.01216 0.28613 0.31336 0.0
H4299 H 1.0143 0.32263 0.31319 0.0
C4300 C 1.01709 0.22119 0.30195 0.0
C4301 C 1.01849 0.20772 0.28535 0.0
C4302 C 1.01787 0.24309 0.30127 0.0
C4303 C 0.0208 0.25502 0.28381 0.0
C4304 C 0.0226 0.24167 0.267 0.0
C4305 C 0.02167 0.21953 0.26773 0.0
C4306 C 0.03031 0.31429 0.26723 0.0
C4307 C 0.02506 0.32724 0.28343 0.0
C4308 C 0.02875 0.29229 0.26719 0.0
C4309 C 0.02221 0.28003 0.28356 0.0
C4310 C 1.01725 0.29303 0.29988 0.0
C4311 C 1.01842 0.31505 0.29977 0.0
H4312 H 0.50644 0.82507 0.75774 0.0
H4313 H 0.54107 0.82271 0.81065 0.0
H4314 H 0.50321 0.78851 0.75825 0.0
H4315 H 0.53832 0.78639 0.81097 0.0
H4316 H 0.53832 0.71513 0.80906 0.0
H4317 H 0.54036 0.75121 0.80791 0.0
H4318 H 0.49574 0.75211 0.76291 0.0
H4319 H 0.4931 0.71575 0.76504 0.0
C4320 C 0.51363 0.81724 0.76973 0.0
C4321 C 0.52414 0.82913 0.78419 0.0
C4322 C 0.51169 0.79525 0.77005 0.0
C4323 C 0.52034 0.78205 0.78466 0.0
C4324 C 0.53098 0.79404 0.79899 0.0
C4325 C 0.53261 0.81598 0.79884 0.0
C4326 C 0.52873 0.72241 0.79848 0.0
C4327 C 0.51603 0.70977 0.78652 0.0
C4328 C 0.52995 0.74429 0.79788 0.0
C4329 C 0.51859 0.75709 0.78508 0.0
C4330 C 0.50559 0.74466 0.77311 0.0
C4331 C 0.50423 0.72257 0.77398 0.0
H4332 H 0.99429 0.46713 0.80232 0.0
H4333 H 1.01154 0.46343 0.74187 0.0
H4334 H 0.99557 0.50339 0.80055 0.0
H4335 H 1.01281 0.49996 0.73991 0.0
H4336 H 1.00895 0.57303 0.73607 0.0
H4337 H 1.01104 0.53651 0.73756 0.0
H4338 H 0.99678 0.5384 0.79905 0.0
H4339 H 0.99576 0.57462 0.7975 0.0
C4340 C 0.99898 0.47351 0.78846 0.0
C4341 C 1.00376 0.45994 0.77267 0.0
C4342 C 0.99953 0.49546 0.7873 0.0
C4343 C 1.00439 0.50709 0.76995 0.0
C4344 C 1.00899 0.49354 0.75404 0.0
C4345 C 1.0085 0.47154 0.75527 0.0
C4346 C 1.00734 0.56624 0.75033 0.0
C4347 C 1.00353 0.57922 0.76685 0.0
C4348 C 1.00799 0.54417 0.75121 0.0
C4349 C 1.00431 0.53204 0.76863 0.0
C4350 C 1.00009 0.54511 0.78493 0.0
C4351 C 0.99962 0.567 0.78402 0.0
H4352 H 0.21738 0.25509 0.48399 0.0
H4353 H 0.21612 0.2555 0.54701 0.0
H4354 H 0.25398 0.25694 0.48504 0.0
H4355 H 0.25239 0.25724 0.54819 0.0
H4356 H 0.32477 0.2618 0.55067 0.0
H4357 H 0.2882 0.2626 0.5494 0.0
H4358 H 0.28988 0.25276 0.48704 0.0
H4359 H 0.32617 0.25216 0.48842 0.0
C4360 C 0.2243 0.2562 0.49835 0.0
C4361 C 0.21141 0.25597 0.51538 0.0
C4362 C 0.24639 0.25696 0.49906 0.0
C4363 C 0.25861 0.25744 0.51685 0.0
C4364 C 0.24559 0.25714 0.53372 0.0
C4365 C 0.22369 0.25623 0.53298 0.0
C4366 C 0.3179 0.2606 0.5363 0.0
C4367 C 0.33084 0.25813 0.51948 0.0
C4368 C 0.2958 0.26064 0.53553 0.0
C4369 C 0.2836 0.25791 0.51793 0.0
C4370 C 0.29665 0.25527 0.50131 0.0
C4371 C 0.31856 0.25511 0.50213 0.0
H4372 H 0.52912 0.46997 0.23084 0.0
H4373 H 0.53753 0.46563 0.29328 0.0
H4374 H 0.52953 0.50635 0.23309 0.0
H4375 H 0.53736 0.50222 0.29572 0.0
H4376 H 0.53217 0.57511 0.29915 0.0
H4377 H 0.53033 0.53859 0.29771 0.0
H4378 H 0.53767 0.54117 0.23503 0.0
H4379 H 0.53889 0.57751 0.23664 0.0
C4380 C 0.53087 0.47631 0.24539 0.0
C4381 C 0.5331 0.46264 0.26172 0.0
C4382 C 0.53121 0.49822 0.24676 0.0
C4383 C 0.53339 0.50962 0.26474 0.0
C4384 C 0.53552 0.49591 0.28117 0.0
C4385 C 0.53564 0.47392 0.27972 0.0
C4386 C 0.53227 0.56846 0.28471 0.0
C4387 C 0.53396 0.58166 0.2679 0.0
C4388 C 0.53178 0.54641 0.28384 0.0
C4389 C 0.53351 0.53452 0.26607 0.0
C4390 C 0.53571 0.54778 0.24941 0.0
C4391 C 0.53622 0.56969 0.25035 0.0
H4392 H 0.32292 0.78981 0.98624 0.0
H4393 H 0.3239 0.77152 0.04658 0.0
H4394 H 0.28651 0.78828 0.98616 0.0
H4395 H 0.28755 0.77053 0.04688 0.0
H4396 H 0.21658 0.7718 0.0491 0.0
H4397 H 0.25277 0.77155 0.04794 0.0
H4398 H 0.25035 0.78673 0.98654 0.0
H4399 H 0.21373 0.78659 0.98796 0.0
C4400 C 0.3159 0.7846 0.99958 0.0
C4401 C 0.32865 0.77926 1.01594 0.0
C4402 C 0.29395 0.78408 0.99968 0.0
C4403 C 0.28171 0.779 1.01648 0.0
C4404 C 0.29449 0.7743 0.03302 0.0
C4405 C 0.31639 0.77462 0.03279 0.0
C4406 C 0.22324 0.77455 0.035 0.0
C4407 C 0.21 0.77845 1.0187 0.0
C4408 C 0.24508 0.77471 0.03428 0.0
C4409 C 0.25688 0.77893 1.01702 0.0
C4410 C 0.24366 0.78316 1.00059 0.0
C4411 C 0.22167 0.78305 1.0014 0.0
H4412 H 0.77675 0.0373 0.46792 0.0
H4413 H 0.76307 0.97542 0.46612 0.0
H4414 H 0.77514 0.03667 0.50427 0.0
H4415 H 0.76166 0.97461 0.50245 0.0
H4416 H 0.7679 0.97132 0.57376 0.0
H4417 H 0.76814 0.97296 0.53786 0.0
H4418 H 0.76685 0.03629 0.54077 0.0
H4419 H 0.76653 0.03439 0.57704 0.0
C4420 C 0.77351 0.02319 0.47475 0.0
C4421 C 0.77016 1.00649 0.46167 0.0
C4422 C 0.77239 0.02282 0.4967 0.0
C4423 C 0.7682 1.00553 0.50883 0.0
C4424 C 0.76498 0.98878 0.4957 0.0
C4425 C 0.7657 0.98927 0.47376 0.0
C4426 C 0.76686 0.98598 0.56744 0.0
C4427 C 0.76572 1.00254 0.58111 0.0
C4428 C 0.76731 0.98694 0.5456 0.0
C4429 C 0.76729 1.00482 0.53379 0.0
C4430 C 0.76669 0.02163 0.54728 0.0
C4431 C 0.76604 0.02056 0.56933 0.0
H4432 H 0.81459 1.00799 0.3236 0.0
H4433 H 0.75492 0.02795 0.32768 0.0
H4434 H 0.81287 1.00907 0.28777 0.0
H4435 H 0.7526 0.02821 0.29123 0.0
H4436 H 0.74992 0.02686 0.21843 0.0
H4437 H 0.75061 0.02576 0.25474 0.0
H4438 H 0.81283 1.01368 0.25312 0.0
H4439 H 0.81212 1.01555 0.21686 0.0
C4440 C 0.80046 1.01191 0.31735 0.0
C4441 C 0.78459 1.01619 0.33101 0.0
C4442 C 0.7995 1.01282 0.29562 0.0
C4443 C 0.78243 1.01848 0.2841 0.0
C4444 C 0.76642 0.02326 0.29764 0.0
C4445 C 0.76756 0.02257 0.31962 0.0
C4446 C 0.76412 0.02442 0.22535 0.0
C4447 C 0.78095 0.02186 0.21244 0.0
C4448 C 0.76451 0.02349 0.24722 0.0
C4449 C 0.78182 0.01962 0.2593 0.0
C4450 C 0.79864 1.01673 0.24633 0.0
C4451 C 0.79824 1.01776 0.22446 0.0
H4452 H 0.79463 0.03927 0.96817 0.0
H4453 H 0.73238 0.02827 0.9715 0.0
H4454 H 0.79661 0.03949 1.00461 0.0
H4455 H 0.73419 0.0282 1.00765 0.0
H4456 H 0.73622 0.0319 0.0786 0.0
H4457 H 0.73529 0.03066 0.04244 0.0
H4458 H 0.79831 0.03798 0.04092 0.0
H4459 H 0.79892 0.03985 0.07717 0.0
C4460 C 0.78103 0.03666 0.9762 0.0
C4461 C 0.76325 0.03315 0.96468 0.0
C4462 C 0.7822 0.03678 0.99812 0.0
C4463 C 0.76569 0.0337 1.01149 0.0
C4464 C 0.74793 0.03054 0.99984 0.0
C4465 C 0.74683 0.03031 0.97804 0.0
C4466 C 0.7503 0.03261 0.07105 0.0
C4467 C 0.76786 0.03444 0.08324 0.0
C4468 C 0.74973 0.0321 0.04923 0.0
C4469 C 0.76668 0.03388 0.03631 0.0
C4470 C 0.78432 0.03614 0.04844 0.0
C4471 C 0.78481 0.03672 0.07036 0.0
H4472 H 0.72662 0.02822 0.71688 0.0
H4473 H 0.78565 1.00598 0.72121 0.0
H4474 H 0.72501 0.03061 0.75309 0.0
H4475 H 0.78419 1.00837 0.75745 0.0
H4476 H 0.78083 1.01635 0.82988 0.0
H4477 H 0.78368 1.01502 0.79359 0.0
H4478 H 0.72189 0.02806 0.78823 0.0
H4479 H 0.7194 0.02996 0.82412 0.0
C4480 C 0.73965 0.02378 0.72509 0.0
C4481 C 0.75634 1.01663 0.7138 0.0
C4482 C 0.73868 0.02512 0.74694 0.0
C4483 C 0.75437 0.01982 0.76067 0.0
C4484 C 0.77114 1.01287 0.74933 0.0
C4485 C 0.77198 1.01125 0.72748 0.0
C4486 C 0.76776 0.01991 0.82147 0.0
C4487 C 0.74995 0.02459 0.83237 0.0
C4488 C 0.76929 1.01863 0.79954 0.0
C4489 C 0.75316 0.02149 0.78548 0.0
C4490 C 0.73542 0.02583 0.7965 0.0
C4491 C 0.73396 0.0271 0.81823 0.0
H4492 H 0.4631 0.7608 0.97699 0.0
H4493 H 0.46451 0.77326 0.0388 0.0
H4494 H 0.49967 0.75976 0.97652 0.0
H4495 H 0.50101 0.77146 0.03857 0.0
H4496 H 0.57237 0.75422 0.03737 0.0
H4497 H 0.5359 0.75597 0.03775 0.0
H4498 H 0.53597 0.77253 0.97675 0.0
H4499 H 0.57255 0.7713 0.9766 0.0
C4500 C 0.47071 0.76309 0.99088 0.0
C4501 C 0.45854 0.76696 1.00801 0.0
C4502 C 0.49272 0.7626 0.99059 0.0
C4503 C 0.50567 0.76533 1.00751 0.0
C4504 C 0.49345 0.76899 0.02468 0.0
C4505 C 0.47148 0.77011 0.02483 0.0
C4506 C 0.56513 0.75823 0.02371 0.0
C4507 C 0.57772 0.76244 1.00695 0.0
C4508 C 0.54317 0.75942 0.02396 0.0
C4509 C 0.53061 0.76441 1.00728 0.0
C4510 C 0.54321 0.76846 0.99043 0.0
C4511 C 0.56522 0.76782 0.99036 0.0
H4512 H 0.96608 0.79596 0.03951 0.0
H4513 H 0.96883 0.73403 0.02702 0.0
H4514 H 1.00269 0.79769 0.03928 0.0
H4515 H 1.00505 0.73557 0.02623 0.0
H4516 H 0.07615 0.73788 0.02427 0.0
H4517 H 0.03979 0.73718 0.02376 0.0
H4518 H 0.03879 0.7983 0.04085 0.0
H4519 H 0.07513 0.79868 0.04167 0.0
C4520 C 0.97401 0.78241 0.03641 0.0
C4521 C 0.96234 0.76479 0.03254 0.0
C4522 C 0.99599 0.78341 0.03627 0.0
C4523 C 1.00916 0.7669 0.0324 0.0
C4524 C 0.99736 0.74931 0.02899 0.0
C4525 C 0.97553 0.74837 0.02916 0.0
C4526 C 0.06863 0.75168 0.02732 0.0
C4527 C 0.0809 0.76876 0.03161 0.0
C4528 C 0.04674 0.7512 0.02731 0.0
C4529 C 0.03397 0.7677 0.03206 0.0
C4530 C 0.04621 0.78476 0.0367 0.0
C4531 C 0.06814 0.78511 0.03685 0.0
H4532 H 1.01439 0.21559 0.751 0.0
H4533 H 0.02452 0.21439 0.81333 0.0
H4534 H 1.01356 0.25212 0.75173 0.0
H4535 H 0.02446 0.25098 0.81405 0.0
H4536 H 0.03008 0.3237 0.81283 0.0
H4537 H 0.03073 0.28704 0.81267 0.0
H4538 H 1.00671 0.28702 0.75407 0.0
H4539 H 1.00675 0.32337 0.75417 0.0
C4540 C 1.01638 0.22267 0.76519 0.0
C4541 C 1.01902 0.2099 0.78212 0.0
C4542 C 1.01596 0.24463 0.76565 0.0
C4543 C 1.01885 0.25684 0.78301 0.0
C4544 C 0.02193 0.244 0.79991 0.0
C4545 C 0.02183 0.22202 0.79951 0.0
C4546 C 0.02494 0.31631 0.79959 0.0
C4547 C 1.01799 0.3287 0.78356 0.0
C4548 C 0.02518 0.29428 0.79953 0.0
C4549 C 1.01868 0.28172 0.78336 0.0
C4550 C 1.01202 0.29422 0.76732 0.0
C4551 C 1.01171 0.31613 0.76746 0.0
H4552 H 0.46712 0.26133 0.50083 0.0
H4553 H 0.46563 0.27666 0.56196 0.0
H4554 H 0.50357 0.26188 0.50156 0.0
H4555 H 0.50204 0.27769 0.56276 0.0
H4556 H 0.57272 0.27723 0.56576 0.0
H4557 H 0.53671 0.27725 0.56397 0.0
H4558 H 0.53971 0.26303 0.50247 0.0
H4559 H 0.57619 0.26236 0.50471 0.0
C4560 C 0.47411 0.26466 0.51477 0.0
C4561 C 0.46128 0.26867 0.53131 0.0
C4562 C 0.49603 0.26521 0.51519 0.0
C4563 C 0.5081 0.26984 0.53227 0.0
C4564 C 0.4952 0.27397 0.54881 0.0
C4565 C 0.47329 0.27348 0.54833 0.0
C4566 C 0.56628 0.2746 0.5514 0.0
C4567 C 0.57978 0.27118 0.53523 0.0
C4568 C 0.54451 0.2744 0.55037 0.0
C4569 C 0.5329 0.27037 0.53295 0.0
C4570 C 0.54627 0.26661 0.51661 0.0
C4571 C 0.56827 0.26673 0.51774 0.0
H4572 H 0.96611 0.27829 0.53605 0.0
H4573 H 0.96385 0.26035 0.47567 0.0
H4574 H 1.00249 0.27619 0.53567 0.0
H4575 H 1.00039 0.25852 0.4751 0.0
H4576 H 0.07372 0.26747 0.47368 0.0
H4577 H 0.03725 0.26896 0.47374 0.0
H4578 H 0.03737 0.26207 0.53652 0.0
H4579 H 0.07382 0.25973 0.5363 0.0
C4580 C 0.97285 0.27412 0.52228 0.0
C4581 C 0.9596 0.26995 0.50591 0.0
C4582 C 0.99481 0.27263 0.52209 0.0
C4583 C 1.00687 0.26714 0.50531 0.0
C4584 C 0.99364 0.26297 0.48884 0.0
C4585 C 0.9716 0.26401 0.4892 0.0
C4586 C 0.06652 0.26612 0.48784 0.0
C4587 C 0.07916 0.26326 0.50499 0.0
C4588 C 0.04449 0.267 0.48787 0.0
C4589 C 0.03188 0.26578 0.50515 0.0
C4590 C 0.04456 0.26325 0.52233 0.0
C4591 C 0.06656 0.26178 0.52222 0.0
H4592 H 0.98534 0.71809 0.76297 0.0
H4593 H 0.04602 0.71384 0.74634 0.0
H4594 H 0.98774 0.75438 0.76316 0.0
H4595 H 0.04871 0.75047 0.7465 0.0
H4596 H 0.05284 0.8242 0.75224 0.0
H4597 H 0.05183 0.78752 0.75329 0.0
H4598 H 0.98851 0.78922 0.756 0.0
H4599 H 0.98966 0.82552 0.7549 0.0
C4600 C 0.99963 0.7244 0.75978 0.0
C4601 C 1.01537 0.71062 0.75535 0.0
C4602 C 1.00107 0.74634 0.75956 0.0
C4603 C 1.01864 0.75788 0.75502 0.0
C4604 C 0.03451 0.74413 0.75043 0.0
C4605 C 0.03292 0.72206 0.75034 0.0
C4606 C 0.03847 0.81728 0.75376 0.0
C4607 C 0.02139 0.83024 0.75454 0.0
C4608 C 0.03779 0.79514 0.75402 0.0
C4609 C 0.01996 0.78291 0.75493 0.0
C4610 C 1.00305 0.796 0.75557 0.0
C4611 C 1.00375 0.81793 0.75509 0.0
H4612 H 0.55243 0.32355 0.24296 0.0
H4613 H 0.49227 0.32726 0.26181 0.0
H4614 H 0.55065 0.28715 0.2445 0.0
H4615 H 0.49048 0.29083 0.26385 0.0
H4616 H 0.48726 0.21886 0.26882 0.0
H4617 H 0.48982 0.25519 0.26851 0.0
H4618 H 0.54667 0.25086 0.24109 0.0
H4619 H 0.54389 0.21431 0.24164 0.0
C4620 C 0.53865 0.31718 0.24802 0.0
C4621 C 0.5229 0.33083 0.25305 0.0
C4622 C 0.53751 0.29516 0.24878 0.0
C4623 C 0.52029 0.28352 0.25444 0.0
C4624 C 0.50453 0.29718 0.25947 0.0
C4625 C 0.50568 0.31919 0.25854 0.0
C4626 C 0.5007 0.2251 0.26303 0.0
C4627 C 0.51534 0.21124 0.25594 0.0
C4628 C 0.50221 0.24706 0.26258 0.0
C4629 C 0.51871 0.2585 0.25489 0.0
C4630 C 0.5334 0.24464 0.24756 0.0
C4631 C 0.53176 0.2226 0.24792 0.0
H4632 H 0.51872 0.07695 0.79272 0.0
H4633 H 0.54692 0.07148 0.73669 0.0
H4634 H 0.51732 0.04038 0.79557 0.0
H4635 H 0.54599 0.0354 0.73951 0.0
H4636 H 0.54219 0.96499 0.74226 0.0
H4637 H 0.54128 1.00106 0.74015 0.0
H4638 H 0.52283 1.00391 0.80048 0.0
H4639 H 0.52498 0.96738 0.80276 0.0
C4640 C 0.52425 0.06843 0.78042 0.0
C4641 C 0.53224 0.07941 0.76386 0.0
C4642 C 0.52376 0.04648 0.78227 0.0
C4643 C 0.53152 0.03258 0.76795 0.0
C4644 C 0.53943 0.04366 0.75145 0.0
C4645 C 0.53993 0.06547 0.74968 0.0
C4646 C 0.53755 0.97277 0.75539 0.0
C4647 C 0.53269 0.96085 0.77249 0.0
C4648 C 0.53712 0.99456 0.75413 0.0
C4649 C 0.53169 1.00779 0.76988 0.0
C4650 C 0.5269 0.99601 0.78724 0.0
C4651 C 0.52769 0.97398 0.78856 0.0
H4652 H 0.2133 0.25262 0.02194 0.0
H4653 H 0.21548 0.31572 1.01905 0.0
H4654 H 0.24997 0.25164 0.02226 0.0
H4655 H 0.25134 0.3151 0.02024 0.0
H4656 H 0.32028 0.31739 0.02863 0.0
H4657 H 0.28454 0.31532 0.02742 0.0
H4658 H 0.28826 0.25287 1.01686 0.0
H4659 H 0.3249 0.25548 1.01721 0.0
C4660 C 0.22097 0.2665 0.02014 0.0
C4661 C 0.20902 0.28421 1.01813 0.0
C4662 C 0.24308 0.26604 0.021 0.0
C4663 C 0.2561 0.28331 0.02094 0.0
C4664 C 0.24397 0.30085 0.02004 0.0
C4665 C 0.2222 0.30119 1.01897 0.0
C4666 C 0.31417 0.30273 0.02681 0.0
C4667 C 0.32801 0.2865 0.02509 0.0
C4668 C 0.29243 0.30153 0.02569 0.0
C4669 C 0.28097 0.28377 0.02236 0.0
C4670 C 0.29463 0.26727 0.02001 0.0
C4671 C 0.31672 0.26864 0.02085 0.0
H4672 H 0.98095 0.07287 0.2585 0.0
H4673 H 0.03883 0.07144 0.28396 0.0
H4674 H 0.98066 0.03638 0.25697 0.0
H4675 H 0.03859 0.03503 0.28301 0.0
H4676 H 0.03598 0.96228 0.28268 0.0
H4677 H 0.03779 0.99893 0.28267 0.0
H4678 H 0.98033 1.00144 0.25574 0.0
H4679 H 0.97901 0.96529 0.25531 0.0
C4680 C 0.99398 0.06525 0.26387 0.0
C4681 C 1.00996 0.07732 0.27158 0.0
C4682 C 0.9938 0.04328 0.26307 0.0
C4683 C 1.00958 0.03038 0.26988 0.0
C4684 C 0.02558 0.04252 0.27744 0.0
C4685 C 0.02571 0.06445 0.2782 0.0
C4686 C 0.02386 0.97021 0.27585 0.0
C4687 C 1.00775 0.95856 0.26776 0.0
C4688 C 0.0247 0.99226 0.27622 0.0
C4689 C 1.00928 1.00552 0.26912 0.0
C4690 C 0.99315 0.99373 0.26143 0.0
C4691 C 0.99243 0.9719 0.26099 0.0
H4692 H 0.31903 0.75988 0.48604 0.0
H4693 H 0.32274 0.76001 0.549 0.0
H4694 H 0.28278 0.75853 0.48776 0.0
H4695 H 0.28619 0.75869 0.55092 0.0
H4696 H 0.21354 0.75913 0.55319 0.0
H4697 H 0.24994 0.76219 0.55198 0.0
H4698 H 0.24826 0.75162 0.48969 0.0
H4699 H 0.21201 0.74895 0.49103 0.0
C4700 C 0.31254 0.76004 0.50056 0.0
C4701 C 0.32599 0.76067 0.5172 0.0
C4702 C 0.29071 0.75899 0.50164 0.0
C4703 C 0.27919 0.75857 0.51959 0.0
C4704 C 0.29264 0.75907 0.53634 0.0
C4705 C 0.3146 0.75986 0.53522 0.0
C4706 C 0.2204 0.75834 0.53883 0.0
C4707 C 0.20751 0.75523 0.522 0.0
C4708 C 0.24233 0.75969 0.53814 0.0
C4709 C 0.25438 0.75753 0.52059 0.0
C4710 C 0.24145 0.75398 0.5039 0.0
C4711 C 0.21961 0.75263 0.50464 0.0
H4712 H 0.78355 0.56858 0.96685 0.0
H4713 H 0.75917 0.51048 0.96142 0.0
H4714 H 0.78226 0.56625 1.00263 0.0
H4715 H 0.75834 0.5076 0.99778 0.0
H4716 H 0.75315 0.50573 0.07052 0.0
H4717 H 0.75485 0.50685 0.03428 0.0
H4718 H 0.78325 0.56365 0.03774 0.0
H4719 H 0.78117 0.56245 0.074 0.0
C4720 C 0.77869 0.55457 0.97272 0.0
C4721 C 0.77341 0.53923 0.95865 0.0
C4722 C 0.77761 0.55327 0.99448 0.0
C4723 C 0.77053 0.53645 1.00569 0.0
C4724 C 0.76445 0.52114 0.99173 0.0
C4725 C 0.7655 0.52258 0.96975 0.0
C4726 C 0.75959 0.51882 0.06407 0.0
C4727 C 0.76667 0.53394 0.07757 0.0
C4728 C 0.76082 0.51946 0.04219 0.0
C4729 C 0.76924 0.53546 0.03056 0.0
C4730 C 0.77644 0.55059 0.04409 0.0
C4731 C 0.7753 0.54984 0.06599 0.0
H4732 H 0.72167 0.52939 0.21593 0.0
H4733 H 0.78254 0.514 0.21073 0.0
H4734 H 0.72404 0.5284 0.25163 0.0
H4735 H 0.78551 0.51376 0.24709 0.0
H4736 H 0.7887 0.51218 0.31964 0.0
H4737 H 0.78741 0.51346 0.28336 0.0
H4738 H 0.72552 0.52698 0.28615 0.0
H4739 H 0.7269 0.52532 0.32234 0.0
C4740 C 0.73619 0.52675 0.22189 0.0
C4741 C 0.75214 0.52388 0.20798 0.0
C4742 C 0.73756 0.52581 0.24356 0.0
C4743 C 0.7552 0.52141 0.25472 0.0
C4744 C 0.77128 0.51777 0.24094 0.0
C4745 C 0.76974 0.51855 0.21901 0.0
C4746 C 0.77445 0.51499 0.31297 0.0
C4747 C 0.75792 0.51796 0.32614 0.0
C4748 C 0.7737 0.51603 0.29114 0.0
C4749 C 0.75625 0.52027 0.27944 0.0
C4750 C 0.73974 0.52355 0.29267 0.0
C4751 C 0.74054 0.52258 0.3145 0.0
H4752 H 0.78497 0.53304 0.5687 0.0
H4753 H 0.76541 0.47271 0.5702 0.0
H4754 H 0.78296 0.53303 0.53245 0.0
H4755 H 0.76352 0.47249 0.53388 0.0
H4756 H 0.76822 0.46974 0.46282 0.0
H4757 H 0.76862 0.47081 0.49881 0.0
H4758 H 0.77543 0.53394 0.49656 0.0
H4759 H 0.77533 0.53262 0.46013 0.0
C4760 C 0.78029 0.51942 0.56179 0.0
C4761 C 0.77552 0.50293 0.57466 0.0
C4762 C 0.77896 0.51942 0.53995 0.0
C4763 C 0.77301 0.50274 0.52784 0.0
C4764 C 0.76829 0.48617 0.54074 0.0
C4765 C 0.76932 0.48631 0.56262 0.0
C4766 C 0.76916 0.48427 0.46943 0.0
C4767 C 0.77031 0.5011 0.45615 0.0
C4768 C 0.76964 0.48488 0.49119 0.0
C4769 C 0.77191 0.5025 0.50304 0.0
C4770 C 0.77344 0.51952 0.48986 0.0
C4771 C 0.77284 0.51886 0.46789 0.0
H4772 H 0.77533 0.55092 0.81787 0.0
H4773 H 0.794 0.49079 0.82331 0.0
H4774 H 0.77529 0.54805 0.78177 0.0
H4775 H 0.79457 0.48788 0.78694 0.0
H4776 H 0.79751 0.48375 0.71406 0.0
H4777 H 0.79587 0.48561 0.75034 0.0
H4778 H 0.77488 0.54526 0.74599 0.0
H4779 H 0.77659 0.54327 0.70975 0.0
C4780 C 0.77913 0.53665 0.81191 0.0
C4781 C 0.78395 0.52118 0.82605 0.0
C4782 C 0.77939 0.53494 0.79002 0.0
C4783 C 0.78478 0.51748 0.77878 0.0
C4784 C 0.78999 0.502 0.79291 0.0
C4785 C 0.78964 0.50372 0.8149 0.0
C4786 C 0.79187 0.49736 0.72028 0.0
C4787 C 0.78622 0.51285 0.70644 0.0
C4788 C 0.79112 0.49859 0.74224 0.0
C4789 C 0.7851 0.51573 0.75375 0.0
C4790 C 0.77962 0.53128 0.73987 0.0
C4791 C 0.78036 0.53 0.71792 0.0
H4792 H 0.54774 0.32542 0.74815 0.0
H4793 H 0.48709 0.32056 0.76587 0.0
H4794 H 0.55027 0.28882 0.74788 0.0
H4795 H 0.48937 0.28421 0.76504 0.0
H4796 H 0.49268 0.21317 0.75284 0.0
H4797 H 0.49042 0.24971 0.75292 0.0
H4798 H 0.55347 0.25382 0.75962 0.0
H4799 H 0.55558 0.21737 0.75995 0.0
C4800 C 0.53466 0.31698 0.75207 0.0
C4801 C 0.51715 0.32792 0.75734 0.0
C4802 C 0.53614 0.2951 0.75194 0.0
C4803 C 0.52016 0.28146 0.75652 0.0
C4804 C 0.50259 0.29251 0.76131 0.0
C4805 C 0.50125 0.31429 0.76189 0.0
C4806 C 0.50633 0.22147 0.75454 0.0
C4807 C 0.5244 0.21034 0.75683 0.0
C4808 C 0.50501 0.24333 0.75461 0.0
C4809 C 0.52164 0.25683 0.75641 0.0
C4810 C 0.53974 0.24562 0.75821 0.0
C4811 C 0.54099 0.2238 0.75858 0.0
H4812 H 0.49521 0.96753 0.3014 0.0
H4813 H 0.51712 0.96383 0.24251 0.0
H4814 H 0.49581 1.00374 0.2995 0.0
H4815 H 0.51775 1.00038 0.24041 0.0
H4816 H 0.51015 0.0729 0.23516 0.0
H4817 H 0.51322 0.03653 0.23717 0.0
H4818 H 0.49848 0.03889 0.29853 0.0
H4819 H 0.49643 0.07514 0.29645 0.0
C4820 C 0.50081 0.97391 0.28791 0.0
C4821 C 0.5072 0.96035 0.27269 0.0
C4822 C 0.501 0.99583 0.28668 0.0
C4823 C 0.50694 1.00745 0.2697 0.0
C4824 C 0.51303 0.99394 0.25425 0.0
C4825 C 0.51297 0.97194 0.25561 0.0
C4826 C 0.50875 0.06628 0.24956 0.0
C4827 C 0.5047 0.07943 0.2659 0.0
C4828 C 0.50997 0.04429 0.25072 0.0
C4829 C 0.50641 0.03235 0.26824 0.0
C4830 C 0.5018 0.04552 0.28438 0.0
C4831 C 0.50084 0.06741 0.2832 0.0
H4832 H 0.82355 0.71973 0.01968 0.0
H4833 H 0.82606 0.78285 1.01939 0.0
H4834 H 0.78776 0.72049 1.01871 0.0
H4835 H 0.78947 0.78395 1.01828 0.0
H4836 H 0.715 0.78161 1.01244 0.0
H4837 H 0.75154 0.78341 1.01386 0.0
H4838 H 0.7537 0.7203 0.0204 0.0
H4839 H 0.71787 0.71872 1.01865 0.0
C4840 C 0.81699 0.73425 0.02037 0.0
C4841 C 0.83036 0.75111 0.02147 0.0
C4842 C 0.79518 0.73471 1.01936 0.0
C4843 C 0.78309 0.75229 1.01863 0.0
C4844 C 0.79627 0.76948 1.01912 0.0
C4845 C 0.81839 0.76891 0.0203 0.0
C4846 C 0.72274 0.76778 1.01334 0.0
C4847 C 0.71091 0.74976 1.01395 0.0
C4848 C 0.74485 0.76882 1.01464 0.0
C4849 C 0.75814 0.752 1.01706 0.0
C4850 C 0.74617 0.73424 1.01818 0.0
C4851 C 0.72437 0.73329 1.01689 0.0
H4852 H 1.00485 0.07424 0.77951 0.0
H4853 H 0.0634 0.07383 0.75636 0.0
H4854 H 1.00406 0.03789 0.77906 0.0
H4855 H 0.06247 0.03779 0.7546 0.0
H4856 H 0.06298 0.96677 0.75336 0.0
H4857 H 0.06304 1.0031 0.75511 0.0
H4858 H 1.00306 1.00188 0.77566 0.0
H4859 H 1.00287 0.96533 0.7731 0.0
C4860 C 1.01801 0.06708 0.77482 0.0
C4861 C 0.03458 0.07945 0.76926 0.0
C4862 C 1.01748 0.04507 0.77403 0.0
C4863 C 0.03331 0.03251 0.76692 0.0
C4864 C 0.04955 0.04492 0.76066 0.0
C4865 C 0.05006 0.06673 0.76173 0.0
C4866 C 0.04955 0.97377 0.75842 0.0
C4867 C 0.03299 0.96102 0.76312 0.0
C4868 C 0.04953 0.99564 0.75943 0.0
C4869 C 0.03306 1.00774 0.76569 0.0
C4870 C 1.01651 0.99492 0.7706 0.0
C4871 C 1.01639 0.97301 0.76912 0.0
H4872 H 0.71359 0.30781 0.5076 0.0
H4873 H 0.71813 0.25356 0.54012 0.0
H4874 H 0.74994 0.3097 0.50554 0.0
H4875 H 0.7545 0.25514 0.53781 0.0
H4876 H 0.82671 0.25907 0.53216 0.0
H4877 H 0.79028 0.2557 0.53314 0.0
H4878 H 0.78459 0.31323 0.50681 0.0
H4879 H 0.82044 0.31595 0.5052 0.0
C4880 C 0.72192 0.29584 0.51426 0.0
C4881 C 0.71082 0.28025 0.52386 0.0
C4882 C 0.74377 0.29699 0.51314 0.0
C4883 C 0.75745 0.28261 0.52131 0.0
C4884 C 0.74627 0.26701 0.5309 0.0
C4885 C 0.72443 0.26602 0.53225 0.0
C4886 C 0.81812 0.27086 0.52558 0.0
C4887 C 0.82884 0.28744 0.51718 0.0
C4888 C 0.7962 0.26911 0.52661 0.0
C4889 C 0.78216 0.28398 0.51995 0.0
C4890 C 0.79298 0.30066 0.5121 0.0
C4891 C 0.81469 0.30226 0.511 0.0
H4892 H 0.25408 0.47067 0.0723 0.0
H4893 H 0.28029 0.52803 0.07717 0.0
H4894 H 0.25574 0.47237 0.03654 0.0
H4895 H 0.28147 0.53031 0.04077 0.0
H4896 H 0.28719 0.53128 0.96823 0.0
H4897 H 0.28519 0.53049 1.00439 0.0
H4898 H 0.25531 0.47445 1.00114 0.0
H4899 H 0.2576 0.47536 0.96485 0.0
C4900 C 0.25961 0.48434 0.06632 0.0
C4901 C 0.2654 0.49963 0.08027 0.0
C4902 C 0.26083 0.4853 0.04454 0.0
C4903 C 0.26853 0.5017 0.03314 0.0
C4904 C 0.27496 0.51702 0.04696 0.0
C4905 C 0.27377 0.51593 0.06897 0.0
C4906 C 0.28041 0.51837 0.97467 0.0
C4907 C 0.27306 0.50338 0.96118 0.0
C4908 C 0.27897 0.51796 0.99654 0.0
C4909 C 0.27002 0.50232 1.00824 0.0
C4910 C 0.26253 0.48727 0.99473 0.0
C4911 C 0.26383 0.48782 0.9728 0.0
H4912 H 0.32144 0.50233 0.82109 0.0
H4913 H 0.26366 0.52681 0.82666 0.0
H4914 H 0.31842 0.50288 0.78513 0.0
H4915 H 0.26016 0.52711 0.79042 0.0
H4916 H 0.25494 0.52859 0.71851 0.0
H4917 H 0.25741 0.52757 0.75463 0.0
H4918 H 0.31588 0.50366 0.74983 0.0
H4919 H 0.31344 0.50547 0.71353 0.0
C4920 C 0.30731 0.50693 0.81516 0.0
C4921 C 0.29212 0.51228 0.82921 0.0
C4922 C 0.30565 0.50767 0.79341 0.0
C4923 C 0.28866 0.51457 0.78238 0.0
C4924 C 0.27369 0.52094 0.79638 0.0
C4925 C 0.27546 0.5202 0.81827 0.0
C4926 C 0.26873 0.5235 0.72463 0.0
C4927 C 0.28386 0.51763 0.71079 0.0
C4928 C 0.27016 0.52258 0.74643 0.0
C4929 C 0.28703 0.51554 0.7576 0.0
C4930 C 0.30221 0.50937 0.74376 0.0
C4931 C 0.30072 0.51032 0.72188 0.0
H4932 H 0.25408 0.50924 0.57793 0.0
H4933 H 0.28155 0.56617 0.57411 0.0
H4934 H 0.25401 0.50701 0.54156 0.0
H4935 H 0.28101 0.56454 0.53822 0.0
H4936 H 0.27612 0.56373 0.46729 0.0
H4937 H 0.27775 0.56455 0.50358 0.0
H4938 H 0.25593 0.5048 0.5059 0.0
H4939 H 0.25513 0.50393 0.46967 0.0
C4940 C 0.26106 0.5212 0.56989 0.0
C4941 C 0.26943 0.53733 0.58123 0.0
C4942 C 0.26059 0.52015 0.54801 0.0
C4943 C 0.2677 0.53544 0.53464 0.0
C4944 C 0.27539 0.55175 0.54608 0.0
C4945 C 0.27598 0.55264 0.56777 0.0
C4946 C 0.27168 0.55044 0.47511 0.0
C4947 C 0.26499 0.5338 0.46343 0.0
C4948 C 0.27255 0.55093 0.49693 0.0
C4949 C 0.26686 0.53483 0.50998 0.0
C4950 C 0.26042 0.51814 0.49821 0.0
C4951 C 0.25964 0.51767 0.47643 0.0
H4952 H 0.23802 0.49296 0.32711 0.0
H4953 H 0.26229 0.55144 0.32575 0.0
H4954 H 0.23921 0.49137 0.291 0.0
H4955 H 0.2638 0.54993 0.28934 0.0
H4956 H 0.25508 0.54769 0.21564 0.0
H4957 H 0.25529 0.55013 0.2521 0.0
H4958 H 0.24874 0.4871 0.25629 0.0
H4959 H 0.24939 0.48466 0.22009 0.0
C4960 C 0.24436 0.50567 0.31962 0.0
C4961 C 0.2512 0.5219 0.33198 0.0
C4962 C 0.24493 0.50474 0.29775 0.0
C4963 C 0.25188 0.52027 0.28467 0.0
C4964 C 0.25834 0.53687 0.29691 0.0
C4965 C 0.25794 0.53767 0.31897 0.0
C4966 C 0.25365 0.53399 0.22387 0.0
C4967 C 0.25221 0.51579 0.21252 0.0
C4968 C 0.25384 0.53543 0.24586 0.0
C4969 C 0.25202 0.51896 0.25968 0.0
C4970 C 0.25024 0.50086 0.24821 0.0
C4971 C 0.25063 0.49938 0.22633 0.0
H4972 H 0.55119 0.82709 0.28937 0.0
H4973 H 0.48871 0.824 0.27948 0.0
H4974 H 0.55278 0.79044 0.28882 0.0
H4975 H 0.49008 0.78764 0.27908 0.0
H4976 H 0.49325 0.71601 0.29013 0.0
H4977 H 0.4918 0.75265 0.2906 0.0
H4978 H 0.55352 0.75559 0.27622 0.0
H4979 H 0.55474 0.71914 0.27511 0.0
C4980 C 0.53749 0.81907 0.28691 0.0
C4981 C 0.51974 0.83059 0.28394 0.0
C4982 C 0.53841 0.79712 0.28655 0.0
C4983 C 0.52163 0.78392 0.28375 0.0
C4984 C 0.5039 0.79553 0.28126 0.0
C4985 C 0.50309 0.81736 0.28122 0.0
C4986 C 0.50675 0.72407 0.28688 0.0
C4987 C 0.52415 0.71262 0.28232 0.0
C4988 C 0.50592 0.746 0.28713 0.0
C4989 C 0.52248 0.75922 0.28343 0.0
C4990 C 0.53991 0.74765 0.27929 0.0
C4991 C 0.54062 0.72582 0.27855 0.0
H4992 H 0.0353 0.36434 0.34608 0.0
H4993 H 0.07883 0.34834 0.3028 0.0
H4994 H 0.04804 0.33919 0.36825 0.0
H4995 H 0.09312 0.32462 0.32567 0.0
H4996 H 0.12472 0.29448 0.37493 0.0
H4997 H 0.09756 0.29903 0.35105 0.0
H4998 H 0.07856 0.35077 0.38352 0.0
H4999 H 0.1054 0.34602 0.40693 0.0
C5000 C 0.04759 0.35537 0.34117 0.0
C5001 C 0.05766 0.35976 0.32353 0.0
C5002 C 0.05473 0.34081 0.35382 0.0
C5003 C 0.07243 0.33106 0.34925 0.0
C5004 C 0.07989 0.33251 0.32997 0.0
C5005 C 0.07218 0.34664 0.31701 0.0
C5006 C 0.11462 0.30678 0.37669 0.0
C5007 C 0.11733 0.32046 0.39203 0.0
C5008 C 0.09902 0.30921 0.36331 0.0
C5009 C 0.08589 0.32518 0.36541 0.0
C5010 C 0.08816 0.3381 0.38158 0.0
C5011 C 0.10377 0.33576 0.39473 0.0
H5012 H 0.93666 0.83523 0.67365 0.0
H5013 H 0.95757 0.88781 0.64384 0.0
H5014 H 0.93274 0.81849 0.64182 0.0
H5015 H 0.95348 0.87104 0.61174 0.0
H5016 H 0.95057 0.80951 0.56565 0.0
H5017 H 0.96402 0.82985 0.5929 0.0
H5018 H 0.90474 0.8381 0.61491 0.0
H5019 H 0.89166 0.81839 0.58783 0.0
C5020 C 0.94066 0.84301 0.66024 0.0
C5021 C 0.94685 0.86281 0.66089 0.0
C5022 C 0.93861 0.83347 0.64215 0.0
C5023 C 0.94269 0.84366 0.62453 0.0
C5024 C 0.95034 0.863 0.62523 0.0
C5025 C 0.95245 0.87257 0.64343 0.0
C5026 C 0.9405 0.81643 0.57593 0.0
C5027 C 0.92002 0.81286 0.57459 0.0
C5028 C 0.94815 0.82789 0.59146 0.0
C5029 C 0.93531 0.83525 0.60592 0.0
C5030 C 0.91484 0.83259 0.60382 0.0
C5031 C 0.9073 0.82154 0.58825 0.0
H5032 H 0.50597 0.69404 0.84008 0.0
H5033 H 0.44781 0.6964 0.81335 0.0
H5034 H 0.49598 0.71817 0.86466 0.0
H5035 H 0.43782 0.72075 0.83799 0.0
H5036 H 0.41726 0.75507 0.88441 0.0
H5037 H 0.44246 0.75336 0.85857 0.0
H5038 H 0.46994 0.70434 0.88924 0.0
H5039 H 0.44481 0.70611 0.91474 0.0
C5040 C 0.49112 0.70002 0.83927 0.0
C5041 C 0.47721 0.69273 0.82556 0.0
C5042 C 0.48562 0.71411 0.85308 0.0
C5043 C 0.46615 0.72107 0.85332 0.0
C5044 C 0.45302 0.71567 0.83801 0.0
C5045 C 0.45856 0.70153 0.82412 0.0
C5046 C 0.4294 0.74474 0.88604 0.0
C5047 C 0.42923 0.73053 0.90115 0.0
C5048 C 0.44375 0.74378 0.87137 0.0
C5049 C 0.4578 0.72853 0.87182 0.0
C5050 C 0.45933 0.71635 0.88862 0.0
C5051 C 0.44493 0.71725 0.90319 0.0
H5052 H 0.63908 0.21465 0.07868 0.0
H5053 H 0.5848 0.24576 0.0663 0.0
H5054 H 0.62262 0.19573 0.10432 0.0
H5055 H 0.568 0.22666 0.09218 0.0
H5056 H 0.551 0.16571 0.12878 0.0
H5057 H 0.56009 0.18883 0.10219 0.0
H5058 H 0.60908 0.2102 0.13752 0.0
H5059 H 0.59992 0.1872 0.16397 0.0
C5060 C 0.6234 0.21671 0.08077 0.0
C5061 C 0.61306 0.23116 0.07023 0.0
C5062 C 0.61407 0.20627 0.09575 0.0
C5063 C 0.59426 0.21022 0.1004 0.0
C5064 C 0.58336 0.22355 0.08885 0.0
C5065 C 0.59284 0.23418 0.07392 0.0
C5066 C 0.56347 0.17566 0.13082 0.0
C5067 C 0.5753 0.17446 0.14782 0.0
C5068 C 0.56852 0.18889 0.11582 0.0
C5069 C 0.58558 0.20064 0.11775 0.0
C5070 C 0.59612 0.20084 0.13566 0.0
C5071 C 0.59097 0.18778 0.15068 0.0
H5072 H 0.05981 0.70309 0.22495 0.0
H5073 H 0.07175 0.64302 0.2069 0.0
H5074 H 0.0782 0.71562 0.19615 0.0
H5075 H 0.08992 0.65535 0.17844 0.0
H5076 H 0.08758 0.67951 0.11758 0.0
H5077 H 0.07142 0.67487 0.14944 0.0
H5078 H 0.11508 0.71275 0.17709 0.0
H5079 H 0.13117 0.7177 0.14483 0.0
C5080 C 0.06709 0.69266 0.21526 0.0
C5081 C 0.06476 0.67215 0.21817 0.0
C5082 C 0.07743 0.69979 0.19882 0.0
C5083 C 0.08507 0.68638 0.18503 0.0
C5084 C 0.08395 0.66593 0.18883 0.0
C5085 C 0.07385 0.65887 0.20524 0.0
C5086 C 0.0935 0.68707 0.13042 0.0
C5087 C 0.11078 0.6985 0.12904 0.0
C5088 C 0.08432 0.68446 0.14857 0.0
C5089 C 0.09243 0.69302 0.16567 0.0
C5090 C 0.10874 0.70589 0.16407 0.0
C5091 C 0.1179 0.70865 0.14574 0.0
H5092 H 0.58548 0.81418 0.47882 0.0
H5093 H 0.64124 0.80779 0.44879 0.0
H5094 H 0.57167 0.83085 0.44995 0.0
H5095 H 0.62718 0.8224 0.41921 0.0
H5096 H 0.60038 0.87145 0.37992 0.0
H5097 H 0.6165 0.85025 0.40385 0.0
H5098 H 0.55971 0.82406 0.41862 0.0
H5099 H 0.54361 0.84674 0.39556 0.0
C5100 C 0.59484 0.81685 0.46612 0.0
C5101 C 0.61444 0.81036 0.46599 0.0
C5102 C 0.58684 0.82575 0.44935 0.0
C5103 C 0.59812 0.82743 0.43195 0.0
C5104 C 0.61805 0.82154 0.43228 0.0
C5105 C 0.62622 0.81336 0.44928 0.0
C5106 C 0.59157 0.86049 0.3877 0.0
C5107 C 0.57091 0.86073 0.38634 0.0
C5108 C 0.60074 0.84837 0.40156 0.0
C5109 C 0.58928 0.83609 0.41388 0.0
C5110 C 0.56884 0.83411 0.41006 0.0
C5111 C 0.55963 0.84665 0.39654 0.0
H5112 H 0.46218 0.35006 0.73764 0.0
H5113 H 0.50573 0.36716 0.69466 0.0
H5114 H 0.44649 0.32828 0.71375 0.0
H5115 H 0.4921 0.34335 0.67159 0.0
H5116 H 0.43985 0.34392 0.62805 0.0
H5117 H 0.46475 0.35052 0.65289 0.0
H5118 H 0.43965 0.30445 0.68996 0.0
H5119 H 0.41381 0.29881 0.66497 0.0
C5120 C 0.46845 0.34907 0.7232 0.0
C5121 C 0.48362 0.36193 0.71733 0.0
C5122 C 0.45988 0.33605 0.70954 0.0
C5123 C 0.46721 0.33509 0.69012 0.0
C5124 C 0.48518 0.34476 0.68591 0.0
C5125 C 0.49305 0.3584 0.6992 0.0
C5126 C 0.43982 0.33515 0.64148 0.0
C5127 C 0.42481 0.32131 0.64498 0.0
C5128 C 0.45432 0.33862 0.65568 0.0
C5129 C 0.45431 0.32807 0.67367 0.0
C5130 C 0.43991 0.31316 0.67652 0.0
C5131 C 0.42513 0.30992 0.66231 0.0
H5132 H 0.99835 0.19148 0.88844 0.0
H5133 H 0.93779 0.17657 0.87421 0.0
H5134 H 0.98705 0.21271 0.91512 0.0
H5135 H 0.92633 0.19793 0.90082 0.0
H5136 H 0.92154 0.1952 0.96834 0.0
H5137 H 0.93395 0.18423 0.93629 0.0
H5138 H 0.96517 0.23981 0.92922 0.0
H5139 H 0.95179 0.25086 0.96015 0.0
C5140 C 0.9826 0.19391 0.89019 0.0
C5141 C 0.96883 0.18217 0.88002 0.0
C5142 C 0.97614 0.20579 0.90557 0.0
C5143 C 0.95597 0.20584 0.91043 0.0
C5144 C 0.94203 0.19732 0.8976 0.0
C5145 C 0.94852 0.18549 0.88222 0.0
C5146 C 0.9316 0.20469 0.96028 0.0
C5147 C 0.9362 0.22376 0.96696 0.0
C5148 C 0.93834 0.19867 0.94182 0.0
C5149 C 0.94998 0.21157 0.93026 0.0
C5150 C 0.95613 0.22973 0.93786 0.0
C5151 C 0.9491 0.23578 0.95596 0.0
H5152 H 0.32087 0.04844 0.33883 0.0
H5153 H 0.32542 0.08663 0.38951 0.0
H5154 H 0.34562 0.0688 0.32169 0.0
H5155 H 0.34927 0.10724 0.37246 0.0
H5156 H 0.39415 0.14184 0.34232 0.0
H5157 H 0.36029 0.12877 0.34461 0.0
H5158 H 0.38196 0.07003 0.33179 0.0
H5159 H 0.41567 0.08331 0.32899 0.0
C5160 C 0.32618 0.06188 0.34581 0.0
C5161 C 0.32087 0.06622 0.36534 0.0
C5162 C 0.34054 0.07339 0.33611 0.0
C5163 C 0.34954 0.08956 0.34577 0.0
C5164 C 0.34254 0.09504 0.36447 0.0
C5165 C 0.32869 0.08326 0.37428 0.0
C5166 C 0.39152 0.12621 0.33967 0.0
C5167 C 0.40743 0.11342 0.33603 0.0
C5168 C 0.37219 0.11876 0.34084 0.0
C5169 C 0.36847 0.09834 0.33865 0.0
C5170 C 0.38427 0.08585 0.33339 0.0
C5171 C 0.40359 0.09337 0.33202 0.0
H5172 H 0.23925 0.06865 0.587 0.0
H5173 H 0.20215 0.07542 0.63808 0.0
H5174 H 0.21914 0.09316 0.5693 0.0
H5175 H 0.18156 0.09866 0.6204 0.0
H5176 H 0.14818 0.1434 0.59026 0.0
H5177 H 0.16006 0.10908 0.59116 0.0
H5178 H 0.21974 0.12998 0.581 0.0
H5179 H 0.20768 0.16417 0.57969 0.0
C5180 C 0.22597 0.07425 0.59393 0.0
C5181 C 0.22186 0.0697 0.61372 0.0
C5182 C 0.21461 0.08841 0.58388 0.0
C5183 C 0.19879 0.09781 0.59348 0.0
C5184 C 0.19344 0.09148 0.61247 0.0
C5185 C 0.20518 0.07798 0.62264 0.0
C5186 C 0.16376 0.14049 0.58789 0.0
C5187 C 0.17721 0.15621 0.58557 0.0
C5188 C 0.17049 0.12095 0.58815 0.0
C5189 C 0.19081 0.11691 0.58632 0.0
C5190 C 0.20397 0.13261 0.58223 0.0
C5191 C 0.19718 0.15216 0.58181 0.0
H5192 H 0.22433 0.99002 0.83243 0.0
H5193 H 0.20797 0.97002 0.89064 0.0
H5194 H 0.19724 0.97021 0.81817 0.0
H5195 H 0.18156 0.94989 0.87665 0.0
H5196 H 0.12387 0.9334 0.8514 0.0
H5197 H 0.1496 0.95745 0.8604 0.0
H5198 H 0.18731 0.93434 0.81448 0.0
H5199 H 0.16126 0.91056 0.80535 0.0
C5200 C 0.21537 0.98077 0.842 0.0
C5201 C 0.21856 0.98071 0.86244 0.0
C5202 C 0.19984 0.96969 0.83395 0.0
C5203 C 0.18726 0.95877 0.84639 0.0
C5204 C 0.19086 0.95846 0.86679 0.0
C5205 C 0.20626 0.96953 0.87476 0.0
C5206 C 0.13768 0.93363 0.8433 0.0
C5207 C 0.14122 0.91989 0.82832 0.0
C5208 C 0.15229 0.94731 0.84832 0.0
C5209 C 0.17056 0.94726 0.83844 0.0
C5210 C 0.1734 0.93448 0.82241 0.0
C5211 C 0.15874 0.92079 0.81738 0.0
H5212 H 0.33375 0.87091 0.10437 0.0
H5213 H 0.36992 0.89328 0.05685 0.0
H5214 H 0.3149 0.90151 0.10436 0.0
H5215 H 0.351 0.92437 0.05687 0.0
H5216 H 0.33943 0.97814 0.10369 0.0
H5217 H 0.35089 0.95068 0.08384 0.0
H5218 H 0.29238 0.92473 0.08575 0.0
H5219 H 0.28117 0.95215 0.10607 0.0
C5220 C 0.33744 0.88235 0.09373 0.0
C5221 C 0.35343 0.87995 0.08087 0.0
C5222 C 0.32647 0.89977 0.09347 0.0
C5223 C 0.3314 0.91532 0.08051 0.0
C5224 C 0.34685 0.91258 0.06695 0.0
C5225 C 0.35767 0.8949 0.06699 0.0
C5226 C 0.32889 0.96702 0.09947 0.0
C5227 C 0.30984 0.9667 0.10752 0.0
C5228 C 0.33537 0.9513 0.08777 0.0
C5229 C 0.32272 0.93513 0.08402 0.0
C5230 C 0.30261 0.93675 0.08891 0.0
C5231 C 0.2962 0.95249 0.10055 0.0
H5232 H 0.40443 0.90576 0.22315 0.0
H5233 H 0.42166 0.94917 0.17944 0.0
H5234 H 0.37202 0.92192 0.22644 0.0
H5235 H 0.38964 0.96525 0.18274 0.0
H5236 H 0.34278 0.9997 0.19373 0.0
H5237 H 0.36997 0.98353 0.21037 0.0
H5238 H 0.34327 0.92647 0.19867 0.0
H5239 H 0.31493 0.94284 0.18308 0.0
C5240 C 0.40119 0.91873 0.21426 0.0
C5241 C 0.41521 0.92616 0.20075 0.0
C5242 C 0.38286 0.92797 0.21629 0.0
C5243 C 0.37863 0.94491 0.20512 0.0
C5244 C 0.39279 0.9524 0.19184 0.0
C5245 C 0.4109 0.94304 0.18962 0.0
C5246 C 0.34202 0.98377 0.1957 0.0
C5247 C 0.327 0.97242 0.18675 0.0
C5248 C 0.35762 0.97455 0.20528 0.0
C5249 C 0.35889 0.95386 0.20509 0.0
C5250 C 0.34256 0.94252 0.19879 0.0
C5251 C 0.3265 0.95185 0.18969 0.0
H5252 H 0.34123 0.17296 0.4258 0.0
H5253 H 0.38124 0.15725 0.47312 0.0
H5254 H 0.3257 0.14035 0.42807 0.0
H5255 H 0.36579 0.12413 0.47515 0.0
H5256 H 0.3481 0.06633 0.42875 0.0
H5257 H 0.36389 0.09545 0.44404 0.0
H5258 H 0.30629 0.11972 0.45668 0.0
H5259 H 0.29069 0.09121 0.44131 0.0
C5260 C 0.34662 0.16249 0.43668 0.0
C5261 C 0.36245 0.1674 0.44909 0.0
C5262 C 0.33766 0.14397 0.43816 0.0
C5263 C 0.34457 0.12994 0.45187 0.0
C5264 C 0.36026 0.13484 0.46456 0.0
C5265 C 0.36902 0.15363 0.46334 0.0
C5266 C 0.33893 0.07757 0.43546 0.0
C5267 C 0.31829 0.07704 0.43319 0.0
C5268 C 0.3479 0.09407 0.44435 0.0
C5269 C 0.33618 0.10985 0.45105 0.0
C5270 C 0.31556 0.10779 0.45137 0.0
C5271 C 0.3067 0.09163 0.44228 0.0
H5272 H 0.21997 0.10134 0.66456 0.0
H5273 H 0.20745 0.04974 0.70019 0.0
H5274 H 0.18928 0.11667 0.67617 0.0
H5275 H 0.17708 0.06523 0.7121 0.0
H5276 H 0.12908 0.12324 0.72618 0.0
H5277 H 0.16292 0.11041 0.72573 0.0
H5278 H 0.15292 0.08695 0.66744 0.0
H5279 H 0.11878 0.09872 0.66804 0.0
C5280 C 0.2113 0.09387 0.67579 0.0
C5281 C 0.21593 0.07451 0.6816 0.0
C5282 C 0.19376 0.10252 0.6823 0.0
C5283 C 0.18104 0.09199 0.69491 0.0
C5284 C 0.18684 0.0736 0.7025 0.0
C5285 C 0.20419 0.06483 0.69576 0.0
C5286 C 0.13387 0.11492 0.71343 0.0
C5287 C 0.12124 0.11218 0.69698 0.0
C5288 C 0.15327 0.10778 0.71319 0.0
C5289 C 0.16032 0.09809 0.69644 0.0
C5290 C 0.14763 0.09464 0.68039 0.0
C5291 C 0.12821 0.1015 0.6807 0.0
H5292 H 0.1861 0.87337 0.95734 0.0
H5293 H 0.16499 0.91227 1.00306 0.0
H5294 H 0.21128 0.89771 0.94841 0.0
H5295 H 0.19046 0.93672 0.99433 0.0
H5296 H 0.20131 0.97967 0.93844 0.0
H5297 H 0.18693 0.95509 0.96089 0.0
H5298 H 0.2402 0.92007 0.95737 0.0
H5299 H 0.25449 0.94416 0.9351 0.0
C5300 C 0.1876 0.88672 0.96611 0.0
C5301 C 0.17366 0.8913 0.9806 0.0
C5302 C 0.20196 0.90065 0.96105 0.0
C5303 C 0.20239 0.91919 0.97048 0.0
C5304 C 0.19006 0.92263 0.9867 0.0
C5305 C 0.17565 0.90871 0.99171 0.0
C5306 C 0.21002 0.96692 0.94274 0.0
C5307 C 0.22878 0.9637 0.93468 0.0
C5308 C 0.20195 0.953 0.95574 0.0
C5309 C 0.21259 0.93579 0.9608 0.0
C5310 C 0.23174 0.93318 0.95361 0.0
C5311 C 0.23973 0.94693 0.94065 0.0
H5312 H 0.36156 0.42562 0.08874 0.0
H5313 H 0.31285 0.41259 0.12805 0.0
H5314 H 0.36262 0.39074 0.07921 0.0
H5315 H 0.31387 0.37766 0.11804 0.0
H5316 H 0.3373 0.33625 0.04902 0.0
H5317 H 0.32477 0.36595 0.0646 0.0
H5318 H 0.35712 0.35147 0.1176 0.0
H5319 H 0.36899 0.32074 0.10213 0.0
C5320 C 0.35109 0.41537 0.09532 0.0
C5321 C 0.33725 0.42192 0.10924 0.0
C5322 C 0.35171 0.39547 0.08987 0.0
C5323 C 0.33857 0.3817 0.09823 0.0
C5324 C 0.3243 0.3881 0.11169 0.0
C5325 C 0.32363 0.4081 0.11716 0.0
C5326 C 0.34058 0.33855 0.06443 0.0
C5327 C 0.35378 0.326 0.07446 0.0
C5328 C 0.33358 0.35571 0.07327 0.0
C5329 C 0.33999 0.36083 0.0922 0.0
C5330 C 0.35175 0.3475 0.10305 0.0
C5331 C 0.35848 0.32996 0.09425 0.0
H5332 H 0.80497 0.14179 0.93307 0.0
H5333 H 0.86434 0.13982 0.90951 0.0
H5334 H 0.81536 0.16753 0.95631 0.0
H5335 H 0.87434 0.16617 0.93161 0.0
H5336 H 0.89252 0.19972 0.98489 0.0
H5337 H 0.88075 0.17214 0.96513 0.0
H5338 H 0.82484 0.20219 0.95658 0.0
H5339 H 0.83678 0.22949 0.97751 0.0
C5340 C 0.82021 0.14688 0.93285 0.0
C5341 C 0.83385 0.13902 0.91932 0.0
C5342 C 0.82607 0.16174 0.94598 0.0
C5343 C 0.84562 0.16897 0.94568 0.0
C5344 C 0.85922 0.16081 0.93236 0.0
C5345 C 0.85343 0.14592 0.91945 0.0
C5346 C 0.87812 0.20075 0.97796 0.0
C5347 C 0.86611 0.21725 0.98115 0.0
C5348 C 0.87119 0.18485 0.96698 0.0
C5349 C 0.85206 0.18523 0.9588 0.0
C5350 C 0.83969 0.20153 0.96261 0.0
C5351 C 0.8466 0.2173 0.97412 0.0
H5352 H 0.06329 0.59401 0.2024 0.0
H5353 H 0.09213 0.59666 0.25948 0.0
H5354 H 0.08857 0.57059 0.19135 0.0
H5355 H 0.11703 0.57352 0.24843 0.0
H5356 H 0.16848 0.57535 0.19813 0.0
H5357 H 0.14265 0.583 0.22182 0.0
H5358 H 0.10605 0.53625 0.19759 0.0
H5359 H 0.13213 0.52856 0.17388 0.0
C5360 C 0.07469 0.58929 0.21266 0.0
C5361 C 0.07601 0.59753 0.23155 0.0
C5362 C 0.089 0.57575 0.20647 0.0
C5363 C 0.10466 0.57032 0.21915 0.0
C5364 C 0.10512 0.57752 0.23844 0.0
C5365 C 0.09094 0.59096 0.24459 0.0
C5366 C 0.15547 0.5659 0.19875 0.0
C5367 C 0.15192 0.55171 0.18409 0.0
C5368 C 0.14061 0.57031 0.21222 0.0
C5369 C 0.12222 0.56052 0.21101 0.0
C5370 C 0.12002 0.54417 0.19845 0.0
C5371 C 0.13493 0.5397 0.18506 0.0
H5372 H 0.69626 0.83359 0.50551 0.0
H5373 H 0.68546 0.81031 0.447 0.0
H5374 H 0.71725 0.85955 0.49172 0.0
H5375 H 0.70721 0.83611 0.43335 0.0
H5376 H 0.75362 0.88114 0.41712 0.0
H5377 H 0.74791 0.85458 0.44127 0.0
H5378 H 0.69554 0.88475 0.46152 0.0
H5379 H 0.70105 0.91101 0.43718 0.0
C5380 C 0.69881 0.83372 0.48973 0.0
C5381 C 0.68886 0.82036 0.47713 0.0
C5382 C 0.71099 0.8484 0.482 0.0
C5383 C 0.71374 0.84955 0.46166 0.0
C5384 C 0.70539 0.83509 0.4492 0.0
C5385 C 0.69294 0.82048 0.45692 0.0
C5386 C 0.74148 0.88244 0.42743 0.0
C5387 C 0.72764 0.89775 0.42548 0.0
C5388 C 0.73825 0.86737 0.44112 0.0
C5389 C 0.7213 0.86781 0.45291 0.0
C5390 C 0.70883 0.8844 0.45261 0.0
C5391 C 0.71194 0.89934 0.43878 0.0
H5392 H 0.95095 0.94505 0.24909 0.0
H5393 H 0.97795 0.92716 0.1942 0.0
H5394 H 0.92064 0.95326 0.23177 0.0
H5395 H 0.94745 0.9357 0.17673 0.0
H5396 H 0.88654 0.92251 0.15687 0.0
H5397 H 0.91494 0.91707 0.17867 0.0
H5398 H 0.9047 0.9738 0.20632 0.0
H5399 H 0.87637 0.97908 0.18499 0.0
C5400 C 0.95067 0.94371 0.23316 0.0
C5401 C 0.9665 0.93501 0.22292 0.0
C5402 C 0.93324 0.94821 0.22334 0.0
C5403 C 0.9316 0.94421 0.20317 0.0
C5404 C 0.9483 0.93809 0.19251 0.0
C5405 C 0.96582 0.93362 0.20237 0.0
C5406 C 0.89002 0.93341 0.16808 0.0
C5407 C 0.87961 0.95127 0.16905 0.0
C5408 C 0.90633 0.93049 0.18029 0.0
C5409 C 0.91233 0.94548 0.19338 0.0
C5410 C 0.90046 0.9622 0.19607 0.0
C5411 C 0.88412 0.96508 0.18397 0.0
H5412 H 0.21892 0.63259 0.63257 0.0
H5413 H 0.19204 0.61564 0.57724 0.0
H5414 H 0.21997 0.66738 0.6215 0.0
H5415 H 0.19339 0.65003 0.56609 0.0
H5416 H 0.20419 0.70844 0.54389 0.0
H5417 H 0.21796 0.67829 0.55817 0.0
H5418 H 0.18988 0.69173 0.61361 0.0
H5419 H 0.17592 0.72204 0.59913 0.0
C5420 C 0.21363 0.63627 0.6179 0.0
C5421 C 0.20523 0.62152 0.60576 0.0
C5422 C 0.2142 0.65612 0.61163 0.0
C5423 C 0.20682 0.66139 0.59294 0.0
C5424 C 0.19941 0.6464 0.58049 0.0
C5425 C 0.19847 0.62674 0.58689 0.0
C5426 C 0.20175 0.70546 0.55941 0.0
C5427 C 0.18887 0.71744 0.57041 0.0
C5428 C 0.20954 0.68813 0.56753 0.0
C5429 C 0.2046 0.68245 0.58683 0.0
C5430 C 0.1939 0.69576 0.59867 0.0
C5431 C 0.186 0.71318 0.59046 0.0
H5432 H 0.09188 0.44816 0.29136 0.0
H5433 H 0.06994 0.43051 0.34855 0.0
H5434 H 0.12088 0.46271 0.30652 0.0
H5435 H 0.10034 0.44373 0.36378 0.0
H5436 H 0.16236 0.46923 0.38212 0.0
H5437 H 0.12802 0.47113 0.36993 0.0
H5438 H 0.14475 0.43705 0.31874 0.0
H5439 H 0.17862 0.43517 0.33086 0.0
C5440 C 0.09282 0.44818 0.30731 0.0
C5441 C 0.07867 0.43818 0.3188 0.0
C5442 C 0.10959 0.45635 0.31597 0.0
C5443 C 0.11313 0.4537 0.33617 0.0
C5444 C 0.09796 0.44584 0.34811 0.0
C5445 C 0.08063 0.43821 0.33942 0.0
C5446 C 0.1586 0.46239 0.36814 0.0
C5447 C 0.173 0.45195 0.35735 0.0
C5448 C 0.13904 0.46346 0.36125 0.0
C5449 C 0.13382 0.45445 0.34333 0.0
C5450 C 0.14842 0.44447 0.33244 0.0
C5451 C 0.16776 0.44317 0.33942 0.0
H5452 H 0.46144 0.59758 0.79215 0.0
H5453 H 0.46404 0.62927 0.84706 0.0
H5454 H 0.43346 0.57814 0.80438 0.0
H5455 H 0.43699 0.6091 0.85988 0.0
H5456 H 0.38504 0.56976 0.87731 0.0
H5457 H 0.41971 0.57355 0.86684 0.0
H5458 H 0.39988 0.5973 0.81104 0.0
H5459 H 0.36548 0.59399 0.82164 0.0
C5460 C 0.45719 0.59924 0.80742 0.0
C5461 C 0.46567 0.61437 0.81898 0.0
C5462 C 0.4409 0.58832 0.81433 0.0
C5463 C 0.43301 0.59209 0.8331 0.0
C5464 C 0.44292 0.60562 0.84547 0.0
C5465 C 0.45876 0.61697 0.83829 0.0
C5466 C 0.38814 0.57533 0.86263 0.0
C5467 C 0.3726 0.58179 0.85032 0.0
C5468 C 0.40795 0.57751 0.85668 0.0
C5469 C 0.4125 0.58569 0.83812 0.0
C5470 C 0.39686 0.59073 0.82532 0.0
C5471 C 0.37716 0.58899 0.83143 0.0
H5472 H 0.93633 0.70566 0.62418 0.0
H5473 H 0.92504 0.75274 0.66554 0.0
H5474 H 0.95807 0.68972 0.64818 0.0
H5475 H 0.9464 0.73669 0.68977 0.0
H5476 H 0.98798 0.69649 0.72782 0.0
H5477 H 0.97658 0.7199 0.70297 0.0
H5478 H 0.9407 0.67366 0.67676 0.0
H5479 H 0.95271 0.65022 0.70134 0.0
C5480 C 0.93948 0.71319 0.63796 0.0
C5481 C 0.92872 0.72998 0.64344 0.0
C5482 C 0.9516 0.70393 0.65181 0.0
C5483 C 0.95291 0.71152 0.67109 0.0
C5484 C 0.94523 0.73034 0.67514 0.0
C5485 C 0.93314 0.73961 0.66126 0.0
C5486 C 0.97709 0.69155 0.71734 0.0
C5487 C 0.97117 0.67161 0.71654 0.0
C5488 C 0.97085 0.70487 0.70283 0.0
C5489 C 0.95855 0.69829 0.68746 0.0
C5490 C 0.95096 0.67886 0.68796 0.0
C5491 C 0.95733 0.66561 0.70232 0.0
H5492 H 0.10332 0.25242 0.45917 0.0
H5493 H 0.12064 0.19228 0.47076 0.0
H5494 H 0.08165 0.24109 0.43284 0.0
H5495 H 0.09806 0.18065 0.44548 0.0
H5496 H 0.06361 0.16436 0.39241 0.0
H5497 H 0.06346 0.17993 0.42516 0.0
H5498 H 0.10286 0.22567 0.40366 0.0
H5499 H 0.10339 0.2099 0.37134 0.0
C5500 C 0.10111 0.23663 0.45748 0.0
C5501 C 0.11302 0.22308 0.46794 0.0
C5502 C 0.08882 0.23016 0.44217 0.0
C5503 C 0.08816 0.21001 0.43718 0.0
C5504 C 0.09798 0.19625 0.44928 0.0
C5505 C 0.11075 0.20283 0.46415 0.0
C5506 C 0.07178 0.17804 0.39466 0.0
C5507 C 0.08384 0.18583 0.37963 0.0
C5508 C 0.07157 0.18696 0.41328 0.0
C5509 C 0.08307 0.20398 0.41686 0.0
C5510 C 0.09362 0.21271 0.40122 0.0
C5511 C 0.09417 0.20358 0.38282 0.0
H5512 H 0.53501 0.34496 0.19756 0.0
H5513 H 0.59276 0.3474 0.22518 0.0
H5514 H 0.54679 0.32034 0.17438 0.0
H5515 H 0.60472 0.32286 0.20161 0.0
H5516 H 0.62778 0.28738 0.15656 0.0
H5517 H 0.60337 0.28975 0.18311 0.0
H5518 H 0.57085 0.3329 0.14874 0.0
H5519 H 0.59506 0.33031 0.12248 0.0
C5520 C 0.55022 0.34005 0.1988 0.0
C5521 C 0.56338 0.34873 0.21246 0.0
C5522 C 0.55678 0.32569 0.18576 0.0
C5523 C 0.57666 0.31998 0.18603 0.0
C5524 C 0.58923 0.32697 0.20117 0.0
C5525 C 0.58257 0.34126 0.21441 0.0
C5526 C 0.61478 0.29652 0.15443 0.0
C5527 C 0.61316 0.30888 0.13788 0.0
C5528 C 0.6009 0.29787 0.16952 0.0
C5529 C 0.58555 0.31176 0.16808 0.0
C5530 C 0.58248 0.32195 0.1502 0.0
C5531 C 0.59633 0.32058 0.13517 0.0
H5532 H 0.44841 0.81167 0.98109 0.0
H5533 H 0.39729 0.80147 0.94423 0.0
H5534 H 0.46203 0.83441 0.95623 0.0
H5535 H 0.41132 0.82246 0.9187 0.0
H5536 H 0.42666 0.88046 0.89046 0.0
H5537 H 0.41544 0.85648 0.91449 0.0
H5538 H 0.47584 0.83716 0.92376 0.0
H5539 H 0.48725 0.8624 0.90043 0.0
C5540 C 0.44002 0.8147 0.96777 0.0
C5541 C 0.4213 0.80624 0.96486 0.0
C5542 C 0.44796 0.82719 0.95338 0.0
C5543 C 0.43751 0.83055 0.93569 0.0
C5544 C 0.4193 0.82091 0.9325 0.0
C5545 C 0.41117 0.80907 0.9471 0.0
C5546 C 0.43758 0.8714 0.89794 0.0
C5547 C 0.45779 0.87357 0.89398 0.0
C5548 C 0.43114 0.85735 0.91141 0.0
C5549 C 0.44476 0.84492 0.92101 0.0
C5550 C 0.46505 0.84677 0.9168 0.0
C5551 C 0.47154 0.86107 0.90338 0.0
H5552 H 0.91423 0.31455 0.89614 0.0
H5553 H 0.94695 0.36591 0.91618 0.0
H5554 H 0.92896 0.31844 0.86305 0.0
H5555 H 0.96135 0.36973 0.8835 0.0
H5556 H 0.95436 0.39213 0.82387 0.0
H5557 H 0.93509 0.37662 0.84978 0.0
H5558 H 0.97233 0.32494 0.84715 0.0
H5559 H 0.99158 0.34057 0.8206 0.0
C5560 C 0.92481 0.32639 0.89359 0.0
C5561 C 0.9291 0.34026 0.90856 0.0
C5562 C 0.93317 0.32858 0.87472 0.0
C5563 C 0.9459 0.34462 0.87077 0.0
C5564 C 0.95128 0.35746 0.88616 0.0
C5565 C 0.943 0.35531 0.90481 0.0
C5566 C 0.95774 0.37703 0.82786 0.0
C5567 C 0.97436 0.36755 0.82002 0.0
C5568 C 0.94674 0.36815 0.84282 0.0
C5569 C 0.95243 0.34974 0.85058 0.0
C5570 C 0.96758 0.33911 0.84128 0.0
C5571 C 0.97848 0.348 0.82599 0.0
H5572 H 0.48314 0.15432 0.62304 0.0
H5573 H 0.4479 0.18947 0.66272 0.0
H5574 H 0.47338 0.176 0.59543 0.0
H5575 H 0.43808 0.21085 0.63527 0.0
H5576 H 0.39569 0.20658 0.58263 0.0
H5577 H 0.41662 0.18858 0.60577 0.0
H5578 H 0.46811 0.2197 0.58399 0.0
H5579 H 0.44694 0.23771 0.56036 0.0
C5580 C 0.47367 0.16692 0.62584 0.0
C5581 C 0.46573 0.17004 0.64469 0.0
C5582 C 0.46834 0.17937 0.6102 0.0
C5583 C 0.45486 0.19475 0.61338 0.0
C5584 C 0.44853 0.199 0.63261 0.0
C5585 C 0.45401 0.18675 0.64821 0.0
C5586 C 0.41158 0.20898 0.58223 0.0
C5587 C 0.41983 0.22324 0.56966 0.0
C5588 C 0.42347 0.19892 0.59557 0.0
C5589 C 0.44375 0.20319 0.59678 0.0
C5590 C 0.45243 0.21632 0.58322 0.0
C5591 C 0.44041 0.2264 0.56963 0.0
H5592 H 0.59624 0.70573 0.41045 0.0
H5593 H 0.62035 0.74851 0.36968 0.0
H5594 H 0.57102 0.69663 0.38654 0.0
H5595 H 0.59433 0.74032 0.34578 0.0
H5596 H 0.57994 0.68784 0.30272 0.0
H5597 H 0.59272 0.71231 0.32549 0.0
H5598 H 0.54413 0.69975 0.36507 0.0
H5599 H 0.53256 0.67406 0.34283 0.0
C5600 C 0.59549 0.71379 0.39662 0.0
C5601 C 0.61026 0.72747 0.39161 0.0
C5602 C 0.58094 0.70872 0.38287 0.0
C5603 C 0.58089 0.71741 0.36392 0.0
C5604 C 0.59431 0.73292 0.35997 0.0
C5605 C 0.6091 0.73772 0.37363 0.0
C5606 C 0.57211 0.69018 0.31619 0.0
C5607 C 0.55629 0.67792 0.32156 0.0
C5608 C 0.57911 0.70465 0.32922 0.0
C5609 C 0.56991 0.70748 0.34763 0.0
C5610 C 0.55212 0.69736 0.35147 0.0
C5611 C 0.54552 0.68259 0.33868 0.0
H5612 H 0.08434 0.78645 0.07731 0.0
H5613 H 0.11574 0.84195 0.07056 0.0
H5614 H 0.07048 0.79787 0.10843 0.0
H5615 H 0.10224 0.85323 0.10195 0.0
H5616 H 0.09722 0.86179 0.1636 0.0
H5617 H 0.10891 0.83957 0.1378 0.0
H5618 H 0.04834 0.82657 0.12142 0.0
H5619 H 0.03676 0.84881 0.14726 0.0
C5620 C 0.08759 0.80143 0.08214 0.0
C5621 C 0.10098 0.81346 0.07161 0.0
C5622 C 0.08002 0.80771 0.10007 0.0
C5623 C 0.086 0.82598 0.10775 0.0
C5624 C 0.09801 0.83874 0.09645 0.0
C5625 C 0.10534 0.83255 0.07832 0.0
C5626 C 0.08649 0.85315 0.15531 0.0
C5627 C 0.06623 0.85707 0.15687 0.0
C5628 C 0.09312 0.84073 0.14042 0.0
C5629 C 0.07941 0.83225 0.12729 0.0
C5630 C 0.05909 0.83331 0.13127 0.0
C5631 C 0.05247 0.84582 0.14611 0.0
H5632 H 0.71402 0.95486 0.64499 0.0
H5633 H 0.71966 0.98616 0.70012 0.0
H5634 H 0.68989 0.93282 0.65933 0.0
H5635 H 0.69388 0.96466 0.71439 0.0
H5636 H 0.64764 0.91157 0.7297 0.0
H5637 H 0.67904 0.92915 0.72285 0.0
H5638 H 0.65625 0.94614 0.66564 0.0
H5639 H 0.62563 0.92836 0.67223 0.0
C5640 C 0.71085 0.95646 0.66049 0.0
C5641 C 0.71915 0.97195 0.67152 0.0
C5642 C 0.69665 0.94401 0.66866 0.0
C5643 C 0.68953 0.94745 0.68775 0.0
C5644 C 0.69908 0.96171 0.6996 0.0
C5645 C 0.71393 0.97388 0.69149 0.0
C5646 C 0.64955 0.91907 0.71568 0.0
C5647 C 0.63463 0.91808 0.70114 0.0
C5648 C 0.66739 0.92914 0.71182 0.0
C5649 C 0.67033 0.93837 0.69344 0.0
C5650 C 0.65474 0.93845 0.67962 0.0
C5651 C 0.63721 0.92831 0.68335 0.0
H5652 H 0.83673 0.86701 0.42877 0.0
H5653 H 0.87713 0.89149 0.47192 0.0
H5654 H 0.82169 0.89957 0.42439 0.0
H5655 H 0.8621 0.92446 0.46728 0.0
H5656 H 0.80331 0.97051 0.45534 0.0
H5657 H 0.82269 0.94234 0.46806 0.0
H5658 H 0.84331 0.93048 0.40909 0.0
H5659 H 0.82408 0.958 0.39664 0.0
C5660 C 0.84228 0.8794 0.43735 0.0
C5661 C 0.85833 0.87702 0.45023 0.0
C5662 C 0.83369 0.89793 0.43493 0.0
C5663 C 0.84114 0.91443 0.44519 0.0
C5664 C 0.85629 0.91188 0.45916 0.0
C5665 C 0.86485 0.89316 0.46172 0.0
C5666 C 0.81269 0.9623 0.44535 0.0
C5667 C 0.81241 0.96648 0.42503 0.0
C5668 C 0.82368 0.94627 0.45259 0.0
C5669 C 0.83413 0.93422 0.43941 0.0
C5670 C 0.83524 0.93958 0.41946 0.0
C5671 C 0.82437 0.95548 0.41233 0.0
H5672 H 0.8301 0.08904 0.15161 0.0
H5673 H 0.8111 0.04923 0.19767 0.0
H5674 H 0.85598 0.10197 0.17313 0.0
H5675 H 0.83746 0.06163 0.21921 0.0
H5676 H 0.87362 0.11336 0.25263 0.0
H5677 H 0.84921 0.09203 0.23645 0.0
H5678 H 0.88747 0.08761 0.18567 0.0
H5679 H 0.91169 0.10924 0.20186 0.0
C5680 C 0.83109 0.08354 0.16663 0.0
C5681 C 0.81853 0.06834 0.17314 0.0
C5682 C 0.84621 0.0905 0.17874 0.0
C5683 C 0.84921 0.08216 0.19752 0.0
C5684 C 0.83562 0.06808 0.20468 0.0
C5685 C 0.82031 0.06123 0.19252 0.0
C5686 C 0.87706 0.10711 0.23834 0.0
C5687 C 0.89408 0.11318 0.22815 0.0
C5688 C 0.86314 0.09494 0.22909 0.0
C5689 C 0.86616 0.08896 0.20954 0.0
C5690 C 0.88458 0.09264 0.20056 0.0
C5691 C 0.89851 0.10478 0.20984 0.0
H5692 H 0.65113 0.14397 0.95982 0.0
H5693 H 0.71054 0.1662 0.95194 0.0
H5694 H 0.66347 0.10975 0.95806 0.0
H5695 H 0.72297 0.13216 0.95048 0.0
H5696 H 0.74293 0.07103 0.95067 0.0
H5697 H 0.72536 0.09687 0.9687 0.0
H5698 H 0.67924 0.09626 0.92447 0.0
H5699 H 0.69737 0.07141 0.90602 0.0
C5700 C 0.66687 0.14143 0.95813 0.0
C5701 C 0.67993 0.15746 0.95563 0.0
C5702 C 0.67391 0.12197 0.95729 0.0
C5703 C 0.69413 0.11836 0.95419 0.0
C5704 C 0.70735 0.13452 0.95318 0.0
C5705 C 0.70027 0.15394 0.95377 0.0
C5706 C 0.72838 0.07546 0.94555 0.0
C5707 C 0.72114 0.06876 0.92728 0.0
C5708 C 0.71847 0.09043 0.95574 0.0
C5709 C 0.70099 0.09855 0.94793 0.0
C5710 C 0.69254 0.09006 0.93096 0.0
C5711 C 0.70279 0.07561 0.92047 0.0
H5712 H 0.62558 0.12011 0.81213 0.0
H5713 H 0.62293 0.12476 0.87573 0.0
H5714 H 0.65768 0.10372 0.81482 0.0
H5715 H 0.65547 0.10919 0.87815 0.0
H5716 H 0.72164 0.10033 0.87399 0.0
H5717 H 0.69248 0.11964 0.86428 0.0
H5718 H 0.66863 0.06869 0.83381 0.0
H5719 H 0.69747 0.04929 0.84397 0.0
C5720 C 0.63177 0.11764 0.82669 0.0
C5721 C 0.62159 0.12377 0.84379 0.0
C5722 C 0.65022 0.10842 0.82813 0.0
C5723 C 0.65907 0.10558 0.84664 0.0
C5724 C 0.64906 0.1117 0.86368 0.0
C5725 C 0.63047 0.12063 0.86229 0.0
C5726 C 0.71053 0.09354 0.86458 0.0
C5727 C 0.71166 0.0734 0.85973 0.0
C5728 C 0.69382 0.10448 0.8592 0.0
C5729 C 0.67832 0.0955 0.84856 0.0
C5730 C 0.68042 0.0759 0.84202 0.0
C5731 C 0.6969 0.06486 0.84777 0.0
H5732 H 0.74585 0.95496 0.5925 0.0
H5733 H 0.68955 0.97781 0.61159 0.0
H5734 H 0.72942 0.92746 0.5763 0.0
H5735 H 0.67291 0.94933 0.59618 0.0
H5736 H 0.65096 0.89065 0.56864 0.0
H5737 H 0.66608 0.92387 0.56663 0.0
H5738 H 0.71532 0.90316 0.6019 0.0
H5739 H 0.70014 0.87043 0.60412 0.0
C5740 C 0.72986 0.95459 0.5924 0.0
C5741 C 0.71894 0.96827 0.60341 0.0
C5742 C 0.72046 0.93879 0.58319 0.0
C5743 C 0.70003 0.9361 0.58549 0.0
C5744 C 0.68873 0.95116 0.59426 0.0
C5745 C 0.69821 0.96735 0.60316 0.0
C5746 C 0.66504 0.89338 0.57587 0.0
C5747 C 0.67429 0.87836 0.58695 0.0
C5748 C 0.67367 0.9122 0.57461 0.0
C5749 C 0.69184 0.91593 0.58399 0.0
C5750 C 0.7014 0.90057 0.59431 0.0
C5751 C 0.69263 0.88198 0.59588 0.0
H5752 H 0.83836 0.99585 0.34342 0.0
H5753 H 0.81314 0.93994 0.36207 0.0
H5754 H 0.86581 0.97877 0.32845 0.0
H5755 H 0.84203 0.92277 0.34859 0.0
H5756 H 0.90126 0.89937 0.32408 0.0
H5757 H 0.86802 0.91416 0.32178 0.0
H5758 H 0.88969 0.96572 0.35312 0.0
H5759 H 0.92239 0.95091 0.35548 0.0
C5760 C 0.83823 0.9798 0.34357 0.0
C5761 C 0.82369 0.96919 0.35398 0.0
C5762 C 0.85411 0.97003 0.33516 0.0
C5763 C 0.85632 0.94959 0.338 0.0
C5764 C 0.84066 0.9386 0.3463 0.0
C5765 C 0.82422 0.94841 0.35413 0.0
C5766 C 0.89868 0.91384 0.33047 0.0
C5767 C 0.91399 0.92393 0.34043 0.0
C5768 C 0.87984 0.92229 0.32903 0.0
C5769 C 0.87637 0.94108 0.33712 0.0
C5770 C 0.892 0.95132 0.34647 0.0
C5771 C 0.9106 0.94277 0.34818 0.0
H5772 H 0.84525 0.16686 0.08159 0.0
H5773 H 0.87206 0.13128 0.03625 0.0
H5774 H 0.8195 0.14184 0.08597 0.0
H5775 H 0.84614 0.10609 0.04045 0.0
H5776 H 0.83588 0.06324 0.09731 0.0
H5777 H 0.84868 0.08757 0.074 0.0
H5778 H 0.79218 0.1174 0.07352 0.0
H5779 H 0.7791 0.0926 0.09632 0.0
C5780 C 0.8449 0.15415 0.07183 0.0
C5781 C 0.86048 0.15066 0.05877 0.0
C5782 C 0.83016 0.13988 0.07422 0.0
C5783 C 0.8311 0.12197 0.06369 0.0
C5784 C 0.84528 0.11976 0.04878 0.0
C5785 C 0.86003 0.13406 0.0464 0.0
C5786 C 0.82605 0.07465 0.09182 0.0
C5787 C 0.80685 0.07664 0.09928 0.0
C5788 C 0.83326 0.08844 0.07829 0.0
C5789 C 0.82138 0.1044 0.07215 0.0
C5790 C 0.8016 0.10528 0.07819 0.0
C5791 C 0.79432 0.09136 0.09153 0.0
H5792 H 0.66683 0.71353 0.93911 0.0
H5793 H 0.70461 0.70658 0.98993 0.0
H5794 H 0.68 0.68257 0.92541 0.0
H5795 H 0.71797 0.676 0.97624 0.0
H5796 H 0.72593 0.62526 0.91294 0.0
H5797 H 0.72498 0.66035 0.92257 0.0
H5798 H 0.6812 0.64656 0.96657 0.0
H5799 H 0.68205 0.61163 0.95732 0.0
C5800 C 0.67881 0.70606 0.94674 0.0
C5801 C 0.68498 0.71251 0.96544 0.0
C5802 C 0.68628 0.68836 0.93897 0.0
C5803 C 0.70007 0.67712 0.94977 0.0
C5804 C 0.70756 0.68459 0.96756 0.0
C5805 C 0.7 0.70212 0.97534 0.0
C5806 C 0.71637 0.62962 0.92495 0.0
C5807 C 0.70384 0.61563 0.93423 0.0
C5808 C 0.71577 0.6497 0.93029 0.0
C5809 C 0.7028 0.65597 0.94509 0.0
C5810 C 0.69117 0.64194 0.95504 0.0
C5811 C 0.69163 0.622 0.94967 0.0
H5812 H 0.23432 0.89545 0.10682 0.0
H5813 H 0.17506 0.89948 0.13042 0.0
H5814 H 0.2231 0.87002 0.08373 0.0
H5815 H 0.16422 0.87329 0.10844 0.0
H5816 H 0.14581 0.83977 0.05455 0.0
H5817 H 0.15769 0.8669 0.07495 0.0
H5818 H 0.21285 0.83566 0.08427 0.0
H5819 H 0.20087 0.80884 0.06282 0.0
C5820 C 0.21891 0.8909 0.10707 0.0
C5821 C 0.20557 0.89922 0.12059 0.0
C5822 C 0.21258 0.87619 0.09404 0.0
C5823 C 0.19285 0.86949 0.09446 0.0
C5824 C 0.17949 0.8782 0.10766 0.0
C5825 C 0.18575 0.89299 0.12048 0.0
C5826 C 0.16012 0.83847 0.06166 0.0
C5827 C 0.17202 0.82192 0.05833 0.0
C5828 C 0.16707 0.85405 0.07308 0.0
C5829 C 0.18607 0.85326 0.08152 0.0
C5830 C 0.19815 0.8367 0.07791 0.0
C5831 C 0.19124 0.82122 0.06606 0.0
H5832 H 0.86922 0.43743 0.85721 0.0
H5833 H 0.8788 0.49487 0.8309 0.0
H5834 H 0.89788 0.42455 0.83979 0.0
H5835 H 0.90794 0.48266 0.81439 0.0
H5836 H 0.96264 0.45278 0.79024 0.0
H5837 H 0.92926 0.46333 0.79614 0.0
H5838 H 0.93024 0.43322 0.8526 0.0
H5839 H 0.96379 0.42161 0.84587 0.0
C5840 C 0.87672 0.4469 0.84664 0.0
C5841 C 0.87278 0.46725 0.84592 0.0
C5842 C 0.89342 0.43974 0.83716 0.0
C5843 C 0.90584 0.45305 0.82706 0.0
C5844 C 0.89899 0.47219 0.82261 0.0
C5845 C 0.8821 0.47917 0.83181 0.0
C5846 C 0.95615 0.44925 0.80437 0.0
C5847 C 0.96563 0.43634 0.81761 0.0
C5848 C 0.93679 0.45495 0.80754 0.0
C5849 C 0.92684 0.4483 0.82435 0.0
C5850 C 0.93731 0.43767 0.83897 0.0
C5851 C 0.95671 0.43166 0.83557 0.0
H5852 H 0.34142 0.20264 0.53646 0.0
H5853 H 0.34803 0.2346 0.59126 0.0
H5854 H 0.32272 0.17679 0.55349 0.0
H5855 H 0.32931 0.20897 0.60823 0.0
H5856 H 0.30418 0.15692 0.63802 0.0
H5857 H 0.30215 0.18505 0.61502 0.0
H5858 H 0.34245 0.15506 0.57571 0.0
H5859 H 0.34398 0.12708 0.5984 0.0
C5860 C 0.33849 0.20431 0.55207 0.0
C5861 C 0.34705 0.21988 0.5629 0.0
C5862 C 0.32758 0.18969 0.56171 0.0
C5863 C 0.32524 0.19058 0.58226 0.0
C5864 C 0.33107 0.20781 0.5924 0.0
C5865 C 0.34198 0.22242 0.58274 0.0
C5866 C 0.3126 0.15658 0.62445 0.0
C5867 C 0.32489 0.14046 0.62015 0.0
C5868 C 0.31117 0.17239 0.61122 0.0
C5869 C 0.32212 0.17222 0.59364 0.0
C5870 C 0.33355 0.15549 0.58897 0.0
C5871 C 0.33484 0.1397 0.6021 0.0
H5872 H 0.07825 0.12001 0.84129 0.0
H5873 H 0.07192 0.08074 0.79165 0.0
H5874 H 0.1093 0.10391 0.8501 0.0
H5875 H 0.10297 0.06441 0.80037 0.0
H5876 H 0.14255 0.03245 0.85298 0.0
H5877 H 0.11684 0.04448 0.83067 0.0
H5878 H 0.14348 0.10281 0.83178 0.0
H5879 H 0.16914 0.09068 0.85413 0.0
C5880 C 0.08307 0.10741 0.83276 0.0
C5881 C 0.07255 0.10121 0.8161 0.0
C5882 C 0.10108 0.09858 0.8374 0.0
C5883 C 0.10871 0.08345 0.8254 0.0
C5884 C 0.09747 0.07626 0.80959 0.0
C5885 C 0.07955 0.08525 0.8049 0.0
C5886 C 0.14361 0.04745 0.84732 0.0
C5887 C 0.15729 0.06087 0.85541 0.0
C5888 C 0.12887 0.05437 0.8347 0.0
C5889 C 0.1279 0.07468 0.83039 0.0
C5890 C 0.14382 0.08716 0.83544 0.0
C5891 C 0.15859 0.0802 0.84797 0.0
H5892 H 0.82139 0.41043 0.40766 0.0
H5893 H 0.85127 0.4282 0.46121 0.0
H5894 H 0.82017 0.37595 0.41965 0.0
H5895 H 0.85018 0.39426 0.47307 0.0
H5896 H 0.84298 0.33902 0.49817 0.0
H5897 H 0.82776 0.36795 0.48382 0.0
H5898 H 0.84778 0.34991 0.42619 0.0
H5899 H 0.86169 0.31943 0.44067 0.0
C5900 C 0.82735 0.407 0.42212 0.0
C5901 C 0.83666 0.42186 0.43349 0.0
C5902 C 0.82673 0.38732 0.4289 0.0
C5903 C 0.83507 0.38238 0.44727 0.0
C5904 C 0.84337 0.39755 0.45895 0.0
C5905 C 0.8442 0.417 0.45212 0.0
C5906 C 0.84311 0.34047 0.48228 0.0
C5907 C 0.85342 0.32687 0.47053 0.0
C5908 C 0.83459 0.35727 0.47407 0.0
C5909 C 0.83713 0.36152 0.45401 0.0
C5910 C 0.84566 0.34701 0.44176 0.0
C5911 C 0.85369 0.32963 0.45001 0.0
H5912 H 0.95207 0.58633 0.7484 0.0
H5913 H 0.97086 0.60767 0.69138 0.0
H5914 H 0.92163 0.57337 0.73377 0.0
H5915 H 0.94024 0.59463 0.67664 0.0
H5916 H 0.87901 0.56701 0.65904 0.0
H5917 H 0.91327 0.56505 0.67135 0.0
H5918 H 0.89718 0.60115 0.72128 0.0
H5919 H 0.86326 0.60333 0.70892 0.0
C5920 C 0.95005 0.58743 0.73256 0.0
C5921 C 0.96346 0.59832 0.72101 0.0
C5922 C 0.93265 0.58006 0.72423 0.0
C5923 C 0.92846 0.5835 0.70424 0.0
C5924 C 0.94317 0.59188 0.69213 0.0
C5925 C 0.96067 0.59929 0.70052 0.0
C5926 C 0.88285 0.57431 0.67277 0.0
C5927 C 0.8686 0.58537 0.68311 0.0
C5928 C 0.90236 0.57317 0.67974 0.0
C5929 C 0.9077 0.58271 0.69735 0.0
C5930 C 0.89331 0.59335 0.70784 0.0
C5931 C 0.87399 0.59479 0.70071 0.0
H5932 H 0.64741 0.47804 0.16716 0.0
H5933 H 0.66916 0.43381 0.20786 0.0
H5934 H 0.61528 0.47781 0.18405 0.0
H5935 H 0.63738 0.43381 0.22484 0.0
H5936 H 0.58296 0.43493 0.25542 0.0
H5937 H 0.61094 0.45481 0.24396 0.0
H5938 H 0.59176 0.44619 0.18379 0.0
H5939 H 0.56486 0.4252 0.19528 0.0
C5940 C 0.64544 0.46863 0.17999 0.0
C5941 C 0.66055 0.45564 0.18606 0.0
C5942 C 0.62715 0.4686 0.18967 0.0
C5943 C 0.62391 0.45588 0.20577 0.0
C5944 C 0.63955 0.44399 0.21264 0.0
C5945 C 0.65763 0.44374 0.20277 0.0
C5946 C 0.58411 0.43821 0.2398 0.0
C5947 C 0.5717 0.42849 0.22613 0.0
C5948 C 0.60016 0.44954 0.23328 0.0
C5949 C 0.60366 0.45173 0.21299 0.0
C5950 C 0.58938 0.44475 0.19953 0.0
C5951 C 0.57373 0.43284 0.20607 0.0
H5952 H 0.59758 0.84245 0.91355 0.0
H5953 H 0.63065 0.80248 0.87682 0.0
H5954 H 0.57341 0.84699 0.88742 0.0
H5955 H 0.60582 0.80607 0.85054 0.0
H5956 H 0.58545 0.855 0.80547 0.0
H5957 H 0.59987 0.83203 0.82842 0.0
H5958 H 0.54825 0.83735 0.86555 0.0
H5959 H 0.53467 0.86171 0.84287 0.0
C5960 C 0.59938 0.83441 0.89985 0.0
C5961 C 0.61614 0.82275 0.89672 0.0
C5962 C 0.58535 0.83663 0.88495 0.0
C5963 C 0.58768 0.82699 0.86668 0.0
C5964 C 0.60378 0.81403 0.86424 0.0
C5965 C 0.61804 0.81207 0.87912 0.0
C5966 C 0.57715 0.85133 0.81828 0.0
C5967 C 0.55989 0.86155 0.82306 0.0
C5968 C 0.58521 0.83765 0.83147 0.0
C5969 C 0.57575 0.83373 0.84951 0.0
C5970 C 0.55645 0.84089 0.85229 0.0
C5971 C 0.54868 0.85487 0.83926 0.0
H5972 H 0.39752 0.33179 0.07566 0.0
H5973 H 0.45295 0.3004 0.07609 0.0
H5974 H 0.40855 0.35196 0.10298 0.0
H5975 H 0.46406 0.32052 0.10428 0.0
H5976 H 0.47133 0.37413 0.15317 0.0
H5977 H 0.46841 0.35934 0.12016 0.0
H5978 H 0.41307 0.33211 0.13711 0.0
H5979 H 0.41604 0.34638 0.16993 0.0
C5980 C 0.41244 0.32987 0.08085 0.0
C5981 C 0.42433 0.3146 0.07363 0.0
C5982 C 0.41872 0.34129 0.09675 0.0
C5983 C 0.43694 0.33746 0.10593 0.0
C5984 C 0.44989 0.3237 0.09743 0.0
C5985 C 0.44355 0.31224 0.08135 0.0
C5986 C 0.45867 0.36477 0.1499 0.0
C5987 C 0.44366 0.36171 0.16404 0.0
C5988 C 0.45704 0.3564 0.13103 0.0
C5989 C 0.4403 0.34506 0.12608 0.0
C5990 C 0.42586 0.34128 0.14048 0.0
C5991 C 0.42752 0.34949 0.15922 0.0
H5992 H 0.94434 0.20626 0.4198 0.0
H5993 H 0.91503 0.25087 0.38476 0.0
H5994 H 0.96806 0.201 0.39344 0.0
H5995 H 0.93894 0.24576 0.35815 0.0
H5996 H 0.9502 0.18989 0.31428 0.0
H5997 H 0.93686 0.21224 0.33933 0.0
H5998 H 0.99361 0.21332 0.36896 0.0
H5999 H 1.00676 0.19094 0.34451 0.0
C6000 C 0.94381 0.21577 0.40689 0.0
C6001 C 0.92803 0.22883 0.40403 0.0
C6002 C 0.9573 0.21277 0.39177 0.0
C6003 C 0.95499 0.22278 0.37368 0.0
C6004 C 0.94076 0.23775 0.3719 0.0
C6005 C 0.92726 0.24077 0.38709 0.0
C6006 C 0.95987 0.19529 0.32589 0.0
C6007 C 0.97929 0.18831 0.32772 0.0
C6008 C 0.95237 0.20825 0.34006 0.0
C6009 C 0.9643 0.21438 0.35604 0.0
C6010 C 0.98415 0.2087 0.35684 0.0
C6011 C 0.99152 0.19568 0.34293 0.0
H6012 H 0.11982 0.75355 0.60067 0.0
H6013 H 0.09961 0.7161 0.55304 0.0
H6014 H 0.0961 0.73831 0.6226 0.0
H6015 H 0.07682 0.69949 0.5758 0.0
H6016 H 0.10219 0.66175 0.63526 0.0
H6017 H 0.10801 0.68706 0.6103 0.0
H6018 H 0.05296 0.71549 0.62524 0.0
H6019 H 0.04643 0.68948 0.64984 0.0
C6020 C 0.11016 0.74217 0.59471 0.0
C6021 C 0.1128 0.73455 0.57554 0.0
C6022 C 0.09625 0.73382 0.60725 0.0
C6023 C 0.08522 0.71751 0.60088 0.0
C6024 C 0.08548 0.71204 0.58092 0.0
C6025 C 0.09899 0.72097 0.56811 0.0
C6026 C 0.09114 0.67314 0.63304 0.0
C6027 C 0.07367 0.67336 0.64413 0.0
C6028 C 0.09444 0.68753 0.61881 0.0
C6029 C 0.08048 0.7025 0.61559 0.0
C6030 C 0.06351 0.70359 0.62727 0.0
C6031 C 0.06002 0.68892 0.64143 0.0
H6032 H 0.53845 0.19317 0.71184 0.0
H6033 H 0.59098 0.15823 0.72061 0.0
H6034 H 0.55465 0.21087 0.68479 0.0
H6035 H 0.60769 0.17679 0.69459 0.0
H6036 H 0.63167 0.21346 0.64319 0.0
H6037 H 0.61778 0.21207 0.67672 0.0
H6038 H 0.56334 0.18804 0.65302 0.0
H6039 H 0.57746 0.1888 0.61981 0.0
C6040 C 0.55398 0.19035 0.70903 0.0
C6041 C 0.56364 0.17461 0.71866 0.0
C6042 C 0.56316 0.20034 0.6934 0.0
C6043 C 0.58236 0.19508 0.68753 0.0
C6044 C 0.59295 0.18127 0.69894 0.0
C6045 C 0.58351 0.17082 0.71413 0.0
C6046 C 0.61664 0.20818 0.64523 0.0
C6047 C 0.60567 0.2009 0.62912 0.0
C6048 C 0.60871 0.20748 0.66432 0.0
C6049 C 0.5895 0.20001 0.66742 0.0
C6050 C 0.5781 0.19408 0.65103 0.0
C6051 C 0.5862 0.19432 0.63208 0.0
H6052 H 0.04503 0.35319 0.89776 0.0
H6053 H 0.10328 0.35804 0.87251 0.0
H6054 H 0.05753 0.32984 0.92234 0.0
H6055 H 0.11647 0.33703 0.89785 0.0
H6056 H 0.13844 0.29737 0.94447 0.0
H6057 H 0.12309 0.31103 0.91553 0.0
H6058 H 0.07385 0.33116 0.95117 0.0
H6059 H 0.08825 0.3142 0.97954 0.0
C6060 C 0.06038 0.34861 0.89714 0.0
C6061 C 0.07332 0.35717 0.88344 0.0
C6062 C 0.06775 0.33575 0.91156 0.0
C6063 C 0.08828 0.33205 0.91286 0.0
C6064 C 0.10062 0.33915 0.89764 0.0
C6065 C 0.09309 0.35126 0.88288 0.0
C6066 C 0.12462 0.30531 0.94616 0.0
C6067 C 0.11504 0.30586 0.9644 0.0
C6068 C 0.11565 0.31313 0.92945 0.0
C6069 C 0.09717 0.32261 0.93069 0.0
C6070 C 0.08787 0.32372 0.94929 0.0
C6071 C 0.09645 0.31479 0.96585 0.0
H6072 H 0.98744 0.83414 0.22684 0.0
H6073 H 0.96963 0.89211 0.20692 0.0
H6074 H 0.96612 0.81885 0.20152 0.0
H6075 H 0.94855 0.87713 0.18177 0.0
H6076 H 0.93721 0.84651 0.12395 0.0
H6077 H 0.95922 0.8566 0.15093 0.0
H6078 H 0.92759 0.81794 0.19087 0.0
H6079 H 0.9053 0.80807 0.16376 0.0
C6080 C 0.97845 0.84354 0.21745 0.0
C6081 C 0.9796 0.86426 0.21907 0.0
C6082 C 0.96645 0.83484 0.20295 0.0
C6083 C 0.95597 0.84688 0.18961 0.0
C6084 C 0.95668 0.86757 0.19175 0.0
C6085 C 0.96843 0.87616 0.20633 0.0
C6086 C 0.93517 0.84003 0.13845 0.0
C6087 C 0.91947 0.8269 0.14206 0.0
C6088 C 0.94766 0.84579 0.15383 0.0
C6089 C 0.94476 0.83829 0.17297 0.0
C6090 C 0.92995 0.824 0.17625 0.0
C6091 C 0.91721 0.81848 0.16087 0.0
H6092 H 0.48506 0.68197 0.38499 0.0
H6093 H 0.42447 0.66124 0.38867 0.0
H6094 H 0.48032 0.70184 0.41461 0.0
H6095 H 0.41984 0.68105 0.41835 0.0
H6096 H 0.4239 0.69171 0.48163 0.0
H6097 H 0.43562 0.67464 0.45213 0.0
H6098 H 0.4601 0.72965 0.43005 0.0
H6099 H 0.4489 0.74647 0.45976 0.0
C6100 C 0.47061 0.682 0.39187 0.0
C6101 C 0.45524 0.66962 0.38497 0.0
C6102 C 0.46799 0.69326 0.40885 0.0
C6103 C 0.45006 0.69208 0.41912 0.0
C6104 C 0.4341 0.68138 0.41107 0.0
C6105 C 0.43669 0.67017 0.39412 0.0
C6106 C 0.43273 0.69981 0.47098 0.0
C6107 C 0.43525 0.72028 0.47256 0.0
C6108 C 0.43905 0.69024 0.45397 0.0
C6109 C 0.44797 0.70112 0.43864 0.0
C6110 C 0.45299 0.72105 0.44157 0.0
C6111 C 0.44672 0.73058 0.45858 0.0
H6112 H 0.82568 0.54218 0.83973 0.0
H6113 H 0.82095 0.58521 0.88636 0.0
H6114 H 0.85205 0.56219 0.82461 0.0
H6115 H 0.84644 0.60519 0.87119 0.0
H6116 H 0.91511 0.59663 0.86783 0.0
H6117 H 0.88258 0.58129 0.8708 0.0
H6118 H 0.86515 0.60597 0.81466 0.0
H6119 H 0.89792 0.62193 0.8117 0.0
C6120 C 0.82927 0.55652 0.84603 0.0
C6121 C 0.82101 0.56223 0.86415 0.0
C6122 C 0.8444 0.5679 0.8374 0.0
C6123 C 0.85128 0.58509 0.84689 0.0
C6124 C 0.84128 0.592 0.86358 0.0
C6125 C 0.82648 0.58055 0.87225 0.0
C6126 C 0.90441 0.59889 0.8561 0.0
C6127 C 0.90896 0.61089 0.8398 0.0
C6128 C 0.88585 0.59 0.85775 0.0
C6129 C 0.87139 0.5928 0.84311 0.0
C6130 C 0.87611 0.60377 0.82616 0.0
C6131 C 0.89482 0.61281 0.82451 0.0
H6132 H 0.70961 0.57948 0.14095 0.0
H6133 H 0.73727 0.57502 0.084 0.0
H6134 H 0.69108 0.60808 0.12997 0.0
H6135 H 0.71848 0.60419 0.07275 0.0
H6136 H 0.66488 0.65567 0.06864 0.0
H6137 H 0.67832 0.62191 0.07169 0.0
H6138 H 0.71438 0.64102 0.12082 0.0
H6139 H 0.70125 0.67453 0.11777 0.0
C6140 C 0.71105 0.58398 0.12581 0.0
C6141 C 0.72483 0.57494 0.11341 0.0
C6142 C 0.70051 0.60051 0.11952 0.0
C6143 C 0.70364 0.60846 0.10066 0.0
C6144 C 0.71586 0.5983 0.08739 0.0
C6145 C 0.72653 0.58165 0.09381 0.0
C6146 C 0.67591 0.65268 0.0799 0.0
C6147 C 0.68179 0.66764 0.09325 0.0
C6148 C 0.68353 0.63341 0.0816 0.0
C6149 C 0.69705 0.62894 0.0967 0.0
C6150 C 0.70364 0.64411 0.1093 0.0
C6151 C 0.69609 0.66323 0.10762 0.0
H6152 H 0.71925 0.49764 0.3434 0.0
H6153 H 0.72133 0.44685 0.38192 0.0
H6154 H 0.69077 0.48327 0.32604 0.0
H6155 H 0.69407 0.43181 0.36392 0.0
H6156 H 0.63137 0.426 0.35856 0.0
H6157 H 0.65934 0.44716 0.36761 0.0
H6158 H 0.67645 0.45134 0.30638 0.0
H6159 H 0.64778 0.43064 0.29725 0.0
C6160 C 0.71469 0.4827 0.34703 0.0
C6161 C 0.72294 0.47291 0.36342 0.0
C6162 C 0.69817 0.47469 0.33739 0.0
C6163 C 0.69005 0.45677 0.34411 0.0
C6164 C 0.69988 0.44592 0.35884 0.0
C6165 C 0.71587 0.45418 0.36875 0.0
C6166 C 0.64085 0.43189 0.34707 0.0
C6167 C 0.63815 0.42627 0.32743 0.0
C6168 C 0.65676 0.44392 0.35216 0.0
C6169 C 0.67041 0.44993 0.3377 0.0
C6170 C 0.66629 0.44643 0.31773 0.0
C6171 C 0.65007 0.43459 0.31258 0.0
H6172 H 0.8716 0.38406 0.56402 0.0
H6173 H 0.8229 0.36317 0.59957 0.0
H6174 H 0.85791 0.41777 0.56485 0.0
H6175 H 0.80927 0.39649 0.60036 0.0
H6176 H 0.78449 0.45454 0.60106 0.0
H6177 H 0.79512 0.42571 0.58236 0.0
H6178 H 0.85611 0.44061 0.59482 0.0
H6179 H 0.84526 0.46886 0.61425 0.0
C6180 C 0.8577 0.38655 0.57153 0.0
C6181 C 0.84844 0.37103 0.58198 0.0
C6182 C 0.84991 0.40585 0.57205 0.0
C6183 C 0.83255 0.40988 0.58275 0.0
C6184 C 0.82254 0.39396 0.59181 0.0
C6185 C 0.83044 0.37485 0.59153 0.0
C6186 C 0.80021 0.4524 0.59878 0.0
C6187 C 0.81411 0.46426 0.60894 0.0
C6188 C 0.80629 0.43566 0.58827 0.0
C6189 C 0.82646 0.43061 0.58741 0.0
C6190 C 0.84046 0.44405 0.59517 0.0
C6191 C 0.8343 0.46051 0.60614 0.0
H6192 H 0.92517 0.45072 0.67601 0.0
H6193 H 0.91288 0.41301 0.72618 0.0
H6194 H 0.89184 0.46432 0.67807 0.0
H6195 H 0.87921 0.4267 0.72806 0.0
H6196 H 0.81962 0.44036 0.68064 0.0
H6197 H 0.84952 0.42581 0.69537 0.0
H6198 H 0.87142 0.48439 0.70908 0.0
H6199 H 0.84166 0.49885 0.69477 0.0
C6200 C 0.91539 0.44546 0.68754 0.0
C6201 C 0.92163 0.43089 0.70093 0.0
C6202 C 0.89642 0.45333 0.68883 0.0
C6203 C 0.88321 0.44663 0.70336 0.0
C6204 C 0.8893 0.43213 0.71687 0.0
C6205 C 0.9085 0.42442 0.71579 0.0
C6206 C 0.83044 0.45 0.68761 0.0
C6207 C 0.82893 0.47066 0.68585 0.0
C6208 C 0.84743 0.44171 0.69611 0.0
C6209 C 0.8628 0.45411 0.70285 0.0
C6210 C 0.85979 0.47462 0.70377 0.0
C6211 C 0.84288 0.48284 0.6954 0.0
H6212 H 0.85138 0.56865 0.90993 0.0
H6213 H 0.80269 0.58511 0.94719 0.0
H6214 H 0.86829 0.59984 0.91859 0.0
H6215 H 0.82007 0.6151 0.95713 0.0
H6216 H 0.87405 0.66229 0.97207 0.0
H6217 H 0.86215 0.6281 0.97033 0.0
H6218 H 0.84368 0.63745 0.91013 0.0
H6219 H 0.8543 0.67205 0.91197 0.0
C6220 C 0.84493 0.5782 0.92099 0.0
C6221 C 0.82597 0.57421 0.92843 0.0
C6222 C 0.85448 0.59606 0.92579 0.0
C6223 C 0.84542 0.60964 0.93859 0.0
C6224 C 0.82743 0.60467 0.9475 0.0
C6225 C 0.81764 0.58729 0.94212 0.0
C6226 C 0.86713 0.65731 0.95851 0.0
C6227 C 0.86527 0.67009 0.94205 0.0
C6228 C 0.86064 0.63762 0.95751 0.0
C6229 C 0.85267 0.63019 0.93992 0.0
C6230 C 0.8504 0.64285 0.92364 0.0
C6231 C 0.85649 0.66263 0.92473 0.0
H6232 H 0.62872 0.63856 0.20641 0.0
H6233 H 0.61045 0.57927 0.19092 0.0
H6234 H 0.66351 0.62789 0.20738 0.0
H6235 H 0.64477 0.56851 0.1917 0.0
H6236 H 0.70112 0.54667 0.19825 0.0
H6237 H 0.67256 0.5625 0.21231 0.0
H6238 H 0.68854 0.61713 0.18287 0.0
H6239 H 0.71903 0.60161 0.17091 0.0
C6240 C 0.63225 0.62322 0.20334 0.0
C6241 C 0.61717 0.60968 0.19828 0.0
C6242 C 0.65206 0.61714 0.2039 0.0
C6243 C 0.65695 0.59736 0.19972 0.0
C6244 C 0.64159 0.5838 0.19535 0.0
C6245 C 0.62193 0.58992 0.1946 0.0
C6246 C 0.69947 0.56243 0.19605 0.0
C6247 C 0.71247 0.57293 0.18374 0.0
C6248 C 0.68273 0.57142 0.20367 0.0
C6249 C 0.67784 0.5908 0.19803 0.0
C6250 C 0.69185 0.6021 0.18741 0.0
C6251 C 0.70928 0.59323 0.18051 0.0
H6252 H 0.75538 0.44373 0.44031 0.0
H6253 H 0.70135 0.47771 0.43742 0.0
H6254 H 0.73866 0.41876 0.46036 0.0
H6255 H 0.68504 0.45341 0.4582 0.0
H6256 H 0.65622 0.40394 0.48884 0.0
H6257 H 0.68203 0.42983 0.48867 0.0
H6258 H 0.71128 0.3996 0.44078 0.0
H6259 H 0.68564 0.37405 0.44107 0.0
C6260 C 0.74002 0.44593 0.44406 0.0
C6261 C 0.72928 0.462 0.43639 0.0
C6262 C 0.7307 0.432 0.45602 0.0
C6263 C 0.71056 0.43411 0.46043 0.0
C6264 C 0.70064 0.45153 0.45501 0.0
C6265 C 0.70991 0.46532 0.44289 0.0
C6266 C 0.66818 0.40312 0.47827 0.0
C6267 C 0.66872 0.38788 0.46425 0.0
C6268 C 0.68305 0.41751 0.47849 0.0
C6269 C 0.69854 0.41656 0.46479 0.0
C6270 C 0.69964 0.40047 0.45171 0.0
C6271 C 0.68479 0.3862 0.45146 0.0
H6272 H 0.83397 0.83533 0.54546 0.0
H6273 H 0.85992 0.81615 0.60056 0.0
H6274 H 0.82429 0.86659 0.56066 0.0
H6275 H 0.85055 0.84784 0.61562 0.0
H6276 H 0.86557 0.9218 0.59221 0.0
H6277 H 0.86416 0.88751 0.58084 0.0
H6278 H 0.80961 0.87828 0.61234 0.0
H6279 H 0.811 0.91255 0.6243 0.0
C6280 C 0.83692 0.83748 0.56104 0.0
C6281 C 0.84832 0.82363 0.57166 0.0
C6282 C 0.83141 0.85539 0.56968 0.0
C6283 C 0.83697 0.8596 0.58914 0.0
C6284 C 0.84614 0.8448 0.60054 0.0
C6285 C 0.85151 0.82672 0.59191 0.0
C6286 C 0.85328 0.91255 0.59685 0.0
C6287 C 0.83848 0.92005 0.60928 0.0
C6288 C 0.85248 0.89295 0.59027 0.0
C6289 C 0.83693 0.88037 0.59596 0.0
C6290 C 0.82182 0.88776 0.60795 0.0
C6291 C 0.82258 0.90745 0.61456 0.0
H6292 H 0.34829 0.6269 0.43734 0.0
H6293 H 0.30044 0.66287 0.41508 0.0
H6294 H 0.35884 0.65405 0.45882 0.0
H6295 H 0.31104 0.69032 0.43664 0.0
H6296 H 0.33919 0.7265 0.49282 0.0
H6297 H 0.32032 0.70173 0.474 0.0
H6298 H 0.37359 0.68607 0.44265 0.0
H6299 H 0.39223 0.71025 0.46166 0.0
C6300 C 0.33986 0.64055 0.43744 0.0
C6301 C 0.3241 0.64335 0.42432 0.0
C6302 C 0.34582 0.65599 0.44962 0.0
C6303 C 0.33608 0.67435 0.44871 0.0
C6304 C 0.3189 0.67635 0.43722 0.0
C6305 C 0.31298 0.66085 0.42489 0.0
C6306 C 0.3465 0.7185 0.48113 0.0
C6307 C 0.36698 0.72048 0.47827 0.0
C6308 C 0.33583 0.70415 0.47066 0.0
C6309 C 0.34574 0.69178 0.45739 0.0
C6310 C 0.3658 0.69517 0.45324 0.0
C6311 C 0.3764 0.70922 0.46383 0.0
H6312 H 0.58551 0.09155 0.74707 0.0
H6313 H 0.55755 0.10297 0.69082 0.0
H6314 H 0.60914 0.06968 0.73133 0.0
H6315 H 0.58154 0.08142 0.67485 0.0
H6316 H 0.63244 0.0548 0.64683 0.0
H6317 H 0.60324 0.05256 0.66831 0.0
H6318 H 0.63396 0.08795 0.71208 0.0
H6319 H 0.66275 0.08975 0.69091 0.0
C6320 C 0.58441 0.08927 0.73131 0.0
C6321 C 0.57072 0.09986 0.71978 0.0
C6322 C 0.59759 0.07639 0.72242 0.0
C6323 C 0.59762 0.07454 0.70183 0.0
C6324 C 0.582 0.08278 0.69076 0.0
C6325 C 0.56851 0.09542 0.69977 0.0
C6326 C 0.6327 0.06204 0.66108 0.0
C6327 C 0.64919 0.07323 0.66705 0.0
C6328 C 0.61629 0.06044 0.67344 0.0
C6329 C 0.6163 0.07018 0.69172 0.0
C6330 C 0.63353 0.08003 0.69819 0.0
C6331 C 0.64984 0.08152 0.68593 0.0
H6332 H 0.15829 0.33041 0.94861 0.0
H6333 H 0.20795 0.31792 0.98633 0.0
H6334 H 0.17156 0.36332 0.94203 0.0
H6335 H 0.22018 0.35158 0.9822 0.0
H6336 H 0.24529 0.40397 0.94473 0.0
H6337 H 0.23472 0.37445 0.96203 0.0
H6338 H 0.17385 0.39406 0.95804 0.0
H6339 H 0.18471 0.42299 0.93946 0.0
C6340 C 0.17242 0.33454 0.95499 0.0
C6341 C 0.1822 0.32182 0.96804 0.0
C6342 C 0.17963 0.35369 0.95198 0.0
C6343 C 0.1964 0.36052 0.96246 0.0
C6344 C 0.20708 0.34704 0.97411 0.0
C6345 C 0.20023 0.32771 0.97642 0.0
C6346 C 0.22981 0.40255 0.94872 0.0
C6347 C 0.21564 0.41492 0.94005 0.0
C6348 C 0.22363 0.38542 0.95842 0.0
C6349 C 0.20328 0.38124 0.96006 0.0
C6350 C 0.18958 0.39635 0.95583 0.0
C6351 C 0.1958 0.41324 0.94575 0.0
H6352 H 0.37125 0.43589 0.67987 0.0
H6353 H 0.37718 0.49607 0.7005 0.0
H6354 H 0.39973 0.42622 0.69985 0.0
H6355 H 0.40561 0.48647 0.72067 0.0
H6356 H 0.45262 0.44855 0.75759 0.0
H6357 H 0.42143 0.46164 0.74638 0.0
H6358 H 0.43456 0.44167 0.6874 0.0
H6359 H 0.46693 0.42951 0.69866 0.0
C6360 C 0.37779 0.44667 0.68981 0.0
C6361 C 0.37284 0.46675 0.68835 0.0
C6362 C 0.3943 0.44129 0.70078 0.0
C6363 C 0.40522 0.45598 0.71062 0.0
C6364 C 0.39756 0.47514 0.71259 0.0
C6365 C 0.38113 0.48053 0.70144 0.0
C6366 C 0.44974 0.44849 0.74196 0.0
C6367 C 0.46246 0.43869 0.72886 0.0
C6368 C 0.43154 0.45538 0.7357 0.0
C6369 C 0.42562 0.45201 0.71633 0.0
C6370 C 0.43895 0.44393 0.70263 0.0
C6371 C 0.45753 0.43743 0.70887 0.0
H6372 H 0.69328 0.1154 0.08052 0.0
H6373 H 0.70612 0.13344 0.1402 0.0
H6374 H 0.6941 0.14988 0.06988 0.0
H6375 H 0.70693 0.16838 0.12965 0.0
H6376 H 0.66901 0.22283 0.10139 0.0
H6377 H 0.68099 0.19243 0.11743 0.0
H6378 H 0.71497 0.17856 0.06543 0.0
H6379 H 0.70136 0.20724 0.04912 0.0
C6380 C 0.69647 0.12685 0.09127 0.0
C6381 C 0.69938 0.12197 0.1111 0.0
C6382 C 0.69717 0.1466 0.08523 0.0
C6383 C 0.70061 0.16192 0.09896 0.0
C6384 C 0.70416 0.15693 0.11879 0.0
C6385 C 0.70373 0.13703 0.12479 0.0
C6386 C 0.67968 0.21367 0.09381 0.0
C6387 C 0.6845 0.21754 0.07406 0.0
C6388 C 0.68656 0.19626 0.10294 0.0
C6389 C 0.69856 0.18286 0.09246 0.0
C6390 C 0.70543 0.18833 0.07375 0.0
C6391 C 0.69805 0.20515 0.06451 0.0
H6392 H 0.59051 0.95136 0.7937 0.0
H6393 H 0.56779 0.92898 0.84893 0.0
H6394 H 0.62146 0.96078 0.8101 0.0
H6395 H 0.59891 0.93837 0.86525 0.0
H6396 H 0.67184 0.91825 0.84886 0.0
H6397 H 0.63789 0.91985 0.83659 0.0
H6398 H 0.6324 0.97946 0.85854 0.0
H6399 H 0.66606 0.97781 0.87189 0.0
C6400 C 0.59181 0.94928 0.80951 0.0
C6401 C 0.57689 0.93926 0.82004 0.0
C6402 C 0.60949 0.95465 0.81884 0.0
C6403 C 0.61243 0.95013 0.8388 0.0
C6404 C 0.59677 0.94209 0.84983 0.0
C6405 C 0.57898 0.93682 0.84052 0.0
C6406 C 0.66348 0.93167 0.85132 0.0
C6407 C 0.67193 0.94788 0.86137 0.0
C6408 C 0.64408 0.93258 0.84419 0.0
C6409 C 0.63274 0.94973 0.84676 0.0
C6410 C 0.64098 0.96608 0.85649 0.0
C6411 C 0.66037 0.96514 0.86386 0.0
H6412 H 0.89076 0.06819 0.37776 0.0
H6413 H 0.86659 0.11224 0.33825 0.0
H6414 H 0.92359 0.07264 0.36259 0.0
H6415 H 0.89901 0.11645 0.32305 0.0
H6416 H 0.95862 0.14332 0.32393 0.0
H6417 H 0.9292 0.13216 0.34124 0.0
H6418 H 0.9431 0.07139 0.32716 0.0
H6419 H 0.9731 0.08275 0.30981 0.0
C6420 C 0.89243 0.07853 0.36562 0.0
C6421 C 0.87641 0.09035 0.35947 0.0
C6422 C 0.91112 0.08102 0.35697 0.0
C6423 C 0.91382 0.0953 0.34211 0.0
C6424 C 0.89737 0.10577 0.33491 0.0
C6425 C 0.87887 0.1034 0.34357 0.0
C6426 C 0.95596 0.12755 0.32528 0.0
C6427 C 0.9683 0.11385 0.31595 0.0
C6428 C 0.93895 0.12116 0.33491 0.0
C6429 C 0.93376 0.10098 0.33516 0.0
C6430 C 0.94682 0.08703 0.32711 0.0
C6431 C 0.96396 0.09349 0.31735 0.0
H6432 H 0.42848 0.25262 0.16211 0.0
H6433 H 0.43237 0.20122 0.12461 0.0
H6434 H 0.44902 0.23623 0.18686 0.0
H6435 H 0.45328 0.18486 0.14911 0.0
H6436 H 0.45266 0.15033 0.20543 0.0
H6437 H 0.43885 0.1722 0.18033 0.0
H6438 H 0.47888 0.21884 0.1988 0.0
H6439 H 0.49223 0.19701 0.22411 0.0
C6440 C 0.43473 0.23825 0.15875 0.0
C6441 C 0.42865 0.2279 0.14183 0.0
C6442 C 0.44631 0.2288 0.17295 0.0
C6443 C 0.45184 0.20898 0.17021 0.0
C6444 C 0.44849 0.19992 0.15181 0.0
C6445 C 0.43691 0.20939 0.13763 0.0
C6446 C 0.45777 0.16557 0.20472 0.0
C6447 C 0.4731 0.17219 0.21702 0.0
C6448 C 0.45032 0.1779 0.19003 0.0
C6449 C 0.45839 0.19693 0.18718 0.0
C6450 C 0.47253 0.20417 0.20059 0.0
C6451 C 0.47985 0.19182 0.21544 0.0
H6452 H 0.59069 0.7375 0.96623 0.0
H6453 H 0.64081 0.69823 0.96691 0.0
H6454 H 0.57577 0.71782 0.93953 0.0
H6455 H 0.62539 0.67775 0.94216 0.0
H6456 H 0.62019 0.67688 0.87693 0.0
H6457 H 0.62489 0.69421 0.90803 0.0
H6458 H 0.56428 0.6817 0.92417 0.0
H6459 H 0.5594 0.66455 0.89238 0.0
C6460 C 0.59773 0.72379 0.96186 0.0
C6461 C 0.61667 0.71901 0.96912 0.0
C6462 C 0.58929 0.71266 0.94647 0.0
C6463 C 0.59972 0.69656 0.93856 0.0
C6464 C 0.61721 0.6903 0.94782 0.0
C6465 C 0.62589 0.70178 0.96245 0.0
C6466 C 0.6079 0.67775 0.88712 0.0
C6467 C 0.58972 0.6688 0.88266 0.0
C6468 C 0.61053 0.68767 0.90487 0.0
C6469 C 0.59515 0.68857 0.91877 0.0
C6470 C 0.57644 0.68085 0.91383 0.0
C6471 C 0.57372 0.67102 0.89577 0.0
H6472 H 0.13719 0.80259 0.65249 0.0
H6473 H 0.09875 0.8443 0.62317 0.0
H6474 H 0.11342 0.7997 0.67972 0.0
H6475 H 0.07532 0.84196 0.65024 0.0
H6476 H 0.03605 0.84227 0.69644 0.0
H6477 H 0.05229 0.82257 0.67115 0.0
H6478 H 0.10725 0.82622 0.7039 0.0
H6479 H 0.09111 0.84571 0.72903 0.0
C6480 C 0.12371 0.81124 0.65208 0.0
C6481 C 0.11999 0.82437 0.63647 0.0
C6482 C 0.11002 0.8093 0.66733 0.0
C6483 C 0.09259 0.8206 0.66709 0.0
C6484 C 0.08845 0.83279 0.65073 0.0
C6485 C 0.10204 0.83459 0.63551 0.0
C6486 C 0.0515 0.83842 0.69841 0.0
C6487 C 0.06272 0.8464 0.71399 0.0
C6488 C 0.06067 0.82693 0.68411 0.0
C6489 C 0.08115 0.82357 0.68526 0.0
C6490 C 0.09148 0.82877 0.70252 0.0
C6491 C 0.0823 0.8402 0.71683 0.0
H6492 H 0.94621 0.29195 0.47023 0.0
H6493 H 0.9002 0.33578 0.46558 0.0
H6494 H 0.96519 0.30916 0.4447 0.0
H6495 H 0.91934 0.3535 0.44095 0.0
H6496 H 0.93455 0.36015 0.37955 0.0
H6497 H 0.92386 0.33842 0.40637 0.0
H6498 H 0.98162 0.34358 0.43362 0.0
H6499 H 0.99243 0.36509 0.40629 0.0
C6500 C 0.94089 0.30603 0.46482 0.0
C6501 C 0.92213 0.31296 0.47027 0.0
C6502 C 0.95154 0.31564 0.44998 0.0
C6503 C 0.94334 0.33223 0.44062 0.0
C6504 C 0.92565 0.34038 0.4477 0.0
C6505 C 0.91492 0.33056 0.46214 0.0
C6506 C 0.94502 0.35617 0.39104 0.0
C6507 C 0.96394 0.36456 0.39152 0.0
C6508 C 0.93898 0.34388 0.40632 0.0
C6509 C 0.95174 0.34022 0.42234 0.0
C6510 C 0.97148 0.34665 0.42158 0.0
C6511 C 0.97759 0.35892 0.40612 0.0
H6512 H 0.4737 0.89659 0.33839 0.0
H6513 H 0.47964 0.83723 0.31638 0.0
H6514 H 0.45357 0.8846 0.36565 0.0
H6515 H 0.45933 0.82476 0.34408 0.0
H6516 H 0.40333 0.82909 0.3952 0.0
H6517 H 0.42009 0.83366 0.36316 0.0
H6518 H 0.4706 0.8589 0.3933 0.0
H6519 H 0.45388 0.85458 0.425 0.0
C6520 C 0.46977 0.88112 0.33889 0.0
C6521 C 0.47763 0.86802 0.32507 0.0
C6522 C 0.45857 0.87414 0.35464 0.0
C6523 C 0.45507 0.85377 0.35701 0.0
C6524 C 0.46182 0.84056 0.3425 0.0
C6525 C 0.47332 0.84766 0.3267 0.0
C6526 C 0.41817 0.83526 0.39486 0.0
C6527 C 0.42729 0.84189 0.41236 0.0
C6528 C 0.42774 0.83774 0.37664 0.0
C6529 C 0.44647 0.84684 0.37586 0.0
C6530 C 0.45606 0.85204 0.39356 0.0
C6531 C 0.44653 0.84965 0.41163 0.0
H6532 H 0.95118 0.67241 0.15959 0.0
H6533 H 1.00552 0.695 0.13484 0.0
H6534 H 0.93217 0.69271 0.13647 0.0
H6535 H 0.98678 0.71471 0.11125 0.0
H6536 H 0.94385 0.75111 0.07284 0.0
H6537 H 0.96377 0.73883 0.10025 0.0
H6538 H 0.9278 0.68563 0.10206 0.0
H6539 H 0.90732 0.69866 0.0754 0.0
C6540 C 0.959 0.68243 0.14979 0.0
C6541 C 0.9797 0.68198 0.14859 0.0
C6542 C 0.94818 0.6937 0.13626 0.0
C6543 C 0.95802 0.70446 0.12136 0.0
C6544 C 0.97873 0.70631 0.12226 0.0
C6545 C 0.9895 0.69514 0.13586 0.0
C6546 C 0.94093 0.73634 0.07843 0.0
C6547 C 0.92459 0.7254 0.07154 0.0
C6548 C 0.95204 0.72949 0.09445 0.0
C6549 C 0.94704 0.7115 0.10371 0.0
C6550 C 0.93164 0.69988 0.0957 0.0
C6551 C 0.92035 0.70692 0.07994 0.0
H6552 H 0.09169 0.2452 0.89315 0.0
H6553 H 0.1207 0.19067 0.90925 0.0
H6554 H 0.07061 0.2272 0.86991 0.0
H6555 H 0.10062 0.17269 0.88533 0.0
H6556 H 0.0557 0.14567 0.84237 0.0
H6557 H 0.07121 0.16053 0.87126 0.0
H6558 H 0.07956 0.21508 0.83848 0.0
H6559 H 0.06297 0.20021 0.81007 0.0
C6560 C 0.09291 0.22921 0.89223 0.0
C6561 C 0.10773 0.21918 0.90268 0.0
C6562 C 0.08124 0.21896 0.87866 0.0
C6563 C 0.08465 0.19871 0.87511 0.0
C6564 C 0.09776 0.18832 0.88751 0.0
C6565 C 0.10917 0.19854 0.90134 0.0
C6566 C 0.0619 0.16045 0.84114 0.0
C6567 C 0.05927 0.17151 0.82382 0.0
C6568 C 0.07035 0.16914 0.85778 0.0
C6569 C 0.07634 0.18909 0.85731 0.0
C6570 C 0.07459 0.19982 0.83953 0.0
C6571 C 0.06572 0.1912 0.82305 0.0
H6572 H 0.55638 0.35867 0.66182 0.0
H6573 H 0.61659 0.37902 0.6527 0.0
H6574 H 0.55901 0.33706 0.63331 0.0
H6575 H 0.61883 0.35764 0.62369 0.0
H6576 H 0.60652 0.34365 0.56113 0.0
H6577 H 0.59623 0.36215 0.5903 0.0
H6578 H 0.58297 0.30727 0.6205 0.0
H6579 H 0.59344 0.28877 0.59166 0.0
C6580 C 0.57035 0.35818 0.65405 0.0
C6581 C 0.58628 0.37075 0.65925 0.0
C6582 C 0.57168 0.34598 0.63765 0.0
C6583 C 0.58878 0.3465 0.62617 0.0
C6584 C 0.60526 0.35774 0.63217 0.0
C6585 C 0.60403 0.36982 0.64869 0.0
C6586 C 0.60051 0.33563 0.57363 0.0
C6587 C 0.60099 0.31493 0.57439 0.0
C6588 C 0.5949 0.34613 0.59031 0.0
C6589 C 0.58948 0.3359 0.60752 0.0
C6590 C 0.58732 0.31531 0.60733 0.0
C6591 C 0.59317 0.30482 0.5908 0.0
H6592 H 0.13802 0.41951 0.22559 0.0
H6593 H 0.1155 0.45549 0.17786 0.0
H6594 H 0.16906 0.4388 0.22547 0.0
H6595 H 0.14602 0.47462 0.17773 0.0
H6596 H 0.1942 0.51154 0.17814 0.0
H6597 H 0.16696 0.49798 0.19722 0.0
H6598 H 0.19679 0.44153 0.19994 0.0
H6599 H 0.2244 0.45565 0.18166 0.0
C6600 C 0.13965 0.4317 0.21527 0.0
C6601 C 0.12454 0.43592 0.20151 0.0
C6602 C 0.15732 0.44271 0.21525 0.0
C6603 C 0.15989 0.45836 0.20177 0.0
C6604 C 0.14439 0.46293 0.1886 0.0
C6605 C 0.127 0.45179 0.18841 0.0
C6606 C 0.19538 0.49649 0.18356 0.0
C6607 C 0.21089 0.4842 0.17725 0.0
C6608 C 0.17974 0.48871 0.19448 0.0
C6609 C 0.17928 0.46841 0.19909 0.0
C6610 C 0.19646 0.45712 0.19607 0.0
C6611 C 0.21227 0.4651 0.18527 0.0
H6612 H 0.33871 0.46916 0.91162 0.0
H6613 H 0.28623 0.45926 0.94607 0.0
H6614 H 0.35639 0.44484 0.93106 0.0
H6615 H 0.3037 0.43422 0.96543 0.0
H6616 H 0.3261 0.36923 0.9468 0.0
H6617 H 0.31172 0.4024 0.9465 0.0
H6618 H 0.36844 0.42743 0.96293 0.0
H6619 H 0.3827 0.39391 0.96354 0.0
C6620 C 0.33138 0.46291 0.92428 0.0
C6621 C 0.31128 0.46649 0.92757 0.0
C6622 C 0.34147 0.4487 0.93538 0.0
C6623 C 0.33131 0.43738 0.94955 0.0
C6624 C 0.31185 0.44267 0.95452 0.0
C6625 C 0.30191 0.45713 0.94355 0.0
C6626 C 0.33533 0.38183 0.95065 0.0
C6627 C 0.35549 0.37929 0.95471 0.0
C6628 C 0.3271 0.40076 0.9508 0.0
C6629 C 0.33899 0.4175 0.95473 0.0
C6630 C 0.35898 0.41478 0.95987 0.0
C6631 C 0.36714 0.39573 0.96005 0.0
H6632 H 0.41007 0.60267 0.69339 0.0
H6633 H 0.37294 0.6273 0.73875 0.0
H6634 H 0.38258 0.58188 0.68212 0.0
H6635 H 0.34507 0.60644 0.72734 0.0
H6636 H 0.31084 0.5475 0.69883 0.0
H6637 H 0.33402 0.5674 0.7185 0.0
H6638 H 0.35113 0.59933 0.66594 0.0
H6639 H 0.32867 0.57915 0.6464 0.0
C6640 C 0.39606 0.60326 0.70112 0.0
C6641 C 0.39315 0.61673 0.71645 0.0
C6642 C 0.38042 0.59147 0.69474 0.0
C6643 C 0.36172 0.59318 0.70358 0.0
C6644 C 0.35935 0.60522 0.72022 0.0
C6645 C 0.37511 0.61711 0.72662 0.0
C6646 C 0.31885 0.5594 0.69172 0.0
C6647 C 0.31788 0.562 0.67119 0.0
C6648 C 0.33222 0.57061 0.70293 0.0
C6649 C 0.34456 0.58441 0.6935 0.0
C6650 C 0.34197 0.5884 0.67336 0.0
C6651 C 0.32894 0.57707 0.66223 0.0
H6652 H 0.16348 0.64938 0.47509 0.0
H6653 H 0.19769 0.66776 0.42445 0.0
H6654 H 0.17648 0.6155 0.47175 0.0
H6655 H 0.2104 0.63414 0.42117 0.0
H6656 H 0.19822 0.57459 0.39915 0.0
H6657 H 0.18079 0.60159 0.41508 0.0
H6658 H 0.2201 0.59746 0.46515 0.0
H6659 H 0.23709 0.56951 0.44945 0.0
C6660 C 0.17403 0.6463 0.46351 0.0
C6661 C 0.17924 0.66111 0.4497 0.0
C6662 C 0.18143 0.62696 0.46166 0.0
C6663 C 0.19414 0.62232 0.44605 0.0
C6664 C 0.20039 0.63742 0.43318 0.0
C6665 C 0.19302 0.65658 0.43497 0.0
C6666 C 0.20215 0.57834 0.41421 0.0
C6667 C 0.21869 0.56967 0.42325 0.0
C6668 C 0.19235 0.594 0.42321 0.0
C6669 C 0.19931 0.60167 0.44115 0.0
C6670 C 0.21438 0.59162 0.45138 0.0
C6671 C 0.22395 0.57551 0.44248 0.0
H6672 H 0.13554 0.63095 0.31513 0.0
H6673 H 0.11893 0.58675 0.35827 0.0
H6674 H 0.16793 0.6149 0.31119 0.0
H6675 H 0.15087 0.57059 0.35407 0.0
H6676 H 0.2013 0.53831 0.34227 0.0
H6677 H 0.17287 0.55342 0.32594 0.0
H6678 H 0.19523 0.61153 0.34109 0.0
H6679 H 0.22366 0.59635 0.35765 0.0
C6680 C 0.13882 0.61769 0.32358 0.0
C6681 C 0.12511 0.61015 0.3373 0.0
C6682 C 0.15713 0.6085 0.32116 0.0
C6683 C 0.16161 0.59145 0.3321 0.0
C6684 C 0.14752 0.58354 0.34519 0.0
C6685 C 0.12947 0.59291 0.34788 0.0
C6686 C 0.20041 0.55434 0.34155 0.0
C6687 C 0.21389 0.56629 0.35194 0.0
C6688 C 0.18437 0.56293 0.33197 0.0
C6689 C 0.18176 0.58351 0.33283 0.0
C6690 C 0.19699 0.59558 0.34038 0.0
C6691 C 0.21311 0.58694 0.34999 0.0
H6692 H 0.15086 0.38306 0.07076 0.0
H6693 H 0.19927 0.36557 0.10865 0.0
H6694 H 0.16502 0.41667 0.0681 0.0
H6695 H 0.21346 0.39872 0.10594 0.0
H6696 H 0.24425 0.44871 0.09449 0.0
H6697 H 0.22803 0.42084 0.07933 0.0
H6698 H 0.17118 0.44477 0.09543 0.0
H6699 H 0.18763 0.47436 0.10904 0.0
C6700 C 0.16449 0.38652 0.07854 0.0
C6701 C 0.17386 0.37211 0.09033 0.0
C6702 C 0.17257 0.40557 0.0769 0.0
C6703 C 0.19032 0.41016 0.08668 0.0
C6704 C 0.19985 0.39548 0.09803 0.0
C6705 C 0.19164 0.37665 0.0999 0.0
C6706 C 0.22825 0.44896 0.09352 0.0
C6707 C 0.21718 0.46384 0.10288 0.0
C6708 C 0.21897 0.43276 0.08502 0.0
C6709 C 0.19849 0.43043 0.08687 0.0
C6710 C 0.18708 0.44629 0.09398 0.0
C6711 C 0.19645 0.46313 0.10186 0.0
H6712 H 0.33587 0.44502 0.88797 0.0
H6713 H 0.32144 0.47097 0.8318 0.0
H6714 H 0.36774 0.43426 0.87517 0.0
H6715 H 0.3537 0.46027 0.81865 0.0
H6716 H 0.41491 0.41398 0.81606 0.0
H6717 H 0.37975 0.42282 0.81821 0.0
H6718 H 0.39398 0.46633 0.86251 0.0
H6719 H 0.42896 0.45784 0.86042 0.0
C6720 C 0.33939 0.44806 0.87274 0.0
C6721 C 0.32682 0.4597 0.8611 0.0
C6722 C 0.35755 0.44187 0.86539 0.0
C6723 C 0.36329 0.44703 0.84618 0.0
C6724 C 0.34965 0.45642 0.83363 0.0
C6725 C 0.33135 0.46262 0.84112 0.0
C6726 C 0.41061 0.42591 0.82581 0.0
C6727 C 0.42463 0.43498 0.83844 0.0
C6728 C 0.39051 0.43088 0.82701 0.0
C6729 C 0.38431 0.44494 0.84083 0.0
C6730 C 0.39851 0.45525 0.852 0.0
C6731 C 0.41847 0.45034 0.85084 0.0
H6732 H 0.39002 0.63249 0.55299 0.0
H6733 H 0.35119 0.66686 0.58991 0.0
H6734 H 0.36717 0.60408 0.55543 0.0
H6735 H 0.32888 0.63888 0.59281 0.0
H6736 H 0.28951 0.59129 0.59838 0.0
H6737 H 0.30631 0.61561 0.57804 0.0
H6738 H 0.3609 0.58287 0.58439 0.0
H6739 H 0.34368 0.55789 0.60415 0.0
C6740 C 0.37657 0.63389 0.56153 0.0
C6741 C 0.37241 0.65149 0.57167 0.0
C6742 C 0.36349 0.61782 0.56279 0.0
C6743 C 0.34634 0.61923 0.57437 0.0
C6744 C 0.34176 0.63736 0.58346 0.0
C6745 C 0.35466 0.65332 0.58207 0.0
C6746 C 0.30509 0.58921 0.59536 0.0
C6747 C 0.3156 0.57325 0.60355 0.0
C6748 C 0.3146 0.60296 0.58343 0.0
C6749 C 0.33502 0.60144 0.58015 0.0
C6750 C 0.34513 0.58444 0.58671 0.0
C6751 C 0.3354 0.57031 0.59827 0.0
H6752 H 0.22605 0.12792 0.41127 0.0
H6753 H 0.18706 0.11115 0.45891 0.0
H6754 H 0.22809 0.16178 0.42455 0.0
H6755 H 0.18917 0.14464 0.47209 0.0
H6756 H 0.20127 0.19946 0.50034 0.0
H6757 H 0.21536 0.16934 0.48654 0.0
H6758 H 0.19854 0.18852 0.42807 0.0
H6759 H 0.18433 0.21884 0.44195 0.0
C6760 C 0.21826 0.13137 0.42477 0.0
C6761 C 0.20627 0.11696 0.43406 0.0
C6762 C 0.21941 0.1507 0.43228 0.0
C6763 C 0.20893 0.15572 0.44939 0.0
C6764 C 0.19768 0.14107 0.45905 0.0
C6765 C 0.19629 0.12196 0.45142 0.0
C6766 C 0.20118 0.19756 0.48447 0.0
C6767 C 0.19113 0.21103 0.47223 0.0
C6768 C 0.20931 0.18038 0.47659 0.0
C6769 C 0.20752 0.17643 0.45636 0.0
C6770 C 0.19998 0.19122 0.44376 0.0
C6771 C 0.19181 0.20852 0.45169 0.0
H6772 H 0.68968 0.30055 0.5758 0.0
H6773 H 0.67191 0.34494 0.53376 0.0
H6774 H 0.71165 0.32436 0.59166 0.0
H6775 H 0.69582 0.36785 0.54749 0.0
H6776 H 0.69193 0.40822 0.60237 0.0
H6777 H 0.68605 0.38397 0.57665 0.0
H6778 H 0.73592 0.34956 0.59769 0.0
H6779 H 0.74131 0.3741 0.62397 0.0
C6780 C 0.69049 0.31526 0.56994 0.0
C6781 C 0.67725 0.32161 0.55536 0.0
C6782 C 0.70367 0.32881 0.57851 0.0
C6783 C 0.70437 0.34851 0.57164 0.0
C6784 C 0.69461 0.35318 0.55394 0.0
C6785 C 0.68083 0.33999 0.54611 0.0
C6786 C 0.70154 0.39542 0.60143 0.0
C6787 C 0.71652 0.39243 0.61534 0.0
C6788 C 0.69853 0.3817 0.58646 0.0
C6789 C 0.71057 0.36472 0.58505 0.0
C6790 C 0.72628 0.36232 0.59852 0.0
C6791 C 0.72926 0.37617 0.61359 0.0
H6792 H 0.4661 0.92766 0.3458 0.0
H6793 H 0.46228 0.95589 0.28866 0.0
H6794 H 0.43231 0.93836 0.35284 0.0
H6795 H 0.42911 0.96726 0.29601 0.0
H6796 H 0.37893 0.99583 0.3391 0.0
H6797 H 0.40863 0.98765 0.32059 0.0
H6798 H 0.3999 0.92569 0.33451 0.0
H6799 H 0.37027 0.93403 0.35306 0.0
C6800 C 0.45839 0.93671 0.33509 0.0
C6801 C 0.46642 0.94038 0.31647 0.0
C6802 C 0.43902 0.94255 0.33893 0.0
C6803 C 0.428 0.95263 0.32438 0.0
C6804 C 0.43722 0.95902 0.30713 0.0
C6805 C 0.45636 0.95291 0.3032 0.0
C6806 C 0.38254 0.98034 0.33686 0.0
C6807 C 0.37325 0.96557 0.34812 0.0
C6808 C 0.39971 0.97571 0.32661 0.0
C6809 C 0.40692 0.95627 0.32738 0.0
C6810 C 0.39483 0.94093 0.33455 0.0
C6811 C 0.37766 0.94561 0.34471 0.0
H6812 H 0.82992 0.62543 0.09683 0.0
H6813 H 0.78214 0.6587 0.12256 0.0
H6814 H 0.8346 0.65124 0.07221 0.0
H6815 H 0.78678 0.68486 0.09783 0.0
H6816 H 0.84557 0.72843 0.09169 0.0
H6817 H 0.82079 0.70416 0.10277 0.0
H6818 H 0.82225 0.67579 0.04573 0.0
H6819 H 0.84688 0.69936 0.03495 0.0
C6820 C 0.8197 0.63778 0.09639 0.0
C6821 C 0.80594 0.64055 0.11146 0.0
C6822 C 0.82227 0.65254 0.08233 0.0
C6823 C 0.81123 0.67014 0.08354 0.0
C6824 C 0.79552 0.67147 0.0969 0.0
C6825 C 0.79289 0.65661 0.11092 0.0
C6826 C 0.84021 0.71727 0.08149 0.0
C6827 C 0.84872 0.7152 0.06285 0.0
C6828 C 0.82584 0.70364 0.08762 0.0
C6829 C 0.81983 0.68814 0.075 0.0
C6830 C 0.82676 0.68755 0.05568 0.0
C6831 C 0.84122 0.70082 0.04976 0.0
H6832 H 0.56254 0.60601 0.34125 0.0
H6833 H 0.58897 0.59118 0.28522 0.0
H6834 H 0.59263 0.59539 0.35809 0.0
H6835 H 0.61929 0.58104 0.3021 0.0
H6836 H 0.6633 0.55558 0.35295 0.0
H6837 H 0.63534 0.55888 0.33047 0.0
H6838 H 0.62465 0.61785 0.35265 0.0
H6839 H 0.65267 0.61462 0.37535 0.0
C6840 C 0.5744 0.59961 0.33266 0.0
C6841 C 0.57396 0.60002 0.31207 0.0
C6842 C 0.59166 0.59389 0.3422 0.0
C6843 C 0.6083 0.58847 0.33112 0.0
C6844 C 0.60668 0.58569 0.31075 0.0
C6845 C 0.58938 0.59139 0.30121 0.0
C6846 C 0.65548 0.56957 0.35251 0.0
C6847 C 0.65972 0.58478 0.36614 0.0
C6848 C 0.63945 0.57131 0.33976 0.0
C6849 C 0.62762 0.5882 0.34069 0.0
C6850 C 0.63336 0.60439 0.35243 0.0
C6851 C 0.64934 0.60265 0.36522 0.0
H6852 H 0.33383 0.82864 0.99425 0.0
H6853 H 0.36414 0.81394 0.94035 0.0
H6854 H 0.32014 0.85817 0.97867 0.0
H6855 H 0.351 0.84397 0.92484 0.0
H6856 H 0.32419 0.9017 0.90241 0.0
H6857 H 0.32305 0.86719 0.91424 0.0
H6858 H 0.34223 0.88694 0.97188 0.0
H6859 H 0.34354 0.92104 0.95998 0.0
C6860 C 0.33698 0.8314 0.97881 0.0
C6861 C 0.35026 0.81928 0.96854 0.0
C6862 C 0.32924 0.84834 0.96994 0.0
C6863 C 0.33495 0.85363 0.95075 0.0
C6864 C 0.34636 0.84025 0.93968 0.0
C6865 C 0.35392 0.82307 0.94854 0.0
C6866 C 0.32783 0.89853 0.91768 0.0
C6867 C 0.33417 0.9138 0.93033 0.0
C6868 C 0.3272 0.87888 0.9244 0.0
C6869 C 0.3325 0.87439 0.94397 0.0
C6870 C 0.3378 0.88994 0.95679 0.0
C6871 C 0.33876 0.90942 0.94999 0.0
H6872 H 0.36982 0.12306 0.18733 0.0
H6873 H 0.37475 0.06188 0.16866 0.0
H6874 H 0.40405 0.12205 0.1989 0.0
H6875 H 0.40843 0.06076 0.18183 0.0
H6876 H 0.45345 0.08573 0.24189 0.0
H6877 H 0.42235 0.07625 0.22565 0.0
H6878 H 0.44056 0.10758 0.17321 0.0
H6879 H 0.47183 0.11679 0.18932 0.0
C6880 C 0.37802 0.1094 0.18578 0.0
C6881 C 0.36933 0.09261 0.17701 0.0
C6882 C 0.39754 0.10881 0.19258 0.0
C6883 C 0.40864 0.09135 0.19117 0.0
C6884 C 0.40002 0.07436 0.18301 0.0
C6885 C 0.38062 0.07503 0.17574 0.0
C6886 C 0.45125 0.0896 0.22651 0.0
C6887 C 0.46492 0.10192 0.21675 0.0
C6888 C 0.43347 0.08428 0.21731 0.0
C6889 C 0.42921 0.09137 0.19833 0.0
C6890 C 0.44374 0.10191 0.18785 0.0
C6891 C 0.46165 0.10699 0.19696 0.0
H6892 H 0.15354 0.97461 0.66796 0.0
H6893 H 0.17493 0.93443 0.71277 0.0
H6894 H 0.12019 0.97286 0.68236 0.0
H6895 H 0.14198 0.93274 0.72708 0.0
H6896 H 0.08511 0.9321 0.75433 0.0
H6897 H 0.11408 0.9509 0.74371 0.0
H6898 H 0.09648 0.9429 0.68301 0.0
H6899 H 0.06823 0.92339 0.69377 0.0
C6900 C 0.15124 0.96582 0.68116 0.0
C6901 C 0.16682 0.95446 0.68914 0.0
C6902 C 0.13216 0.96478 0.68935 0.0
C6903 C 0.12841 0.95268 0.70588 0.0
C6904 C 0.14434 0.94243 0.71454 0.0
C6905 C 0.16323 0.94322 0.70621 0.0
C6906 C 0.08681 0.93524 0.73874 0.0
C6907 C 0.07408 0.92627 0.72482 0.0
C6908 C 0.10356 0.94589 0.73266 0.0
C6909 C 0.10784 0.94804 0.71248 0.0
C6910 C 0.09367 0.94151 0.69867 0.0
C6911 C 0.07717 0.93043 0.70482 0.0
loop_
_geom_bond_atom_site_label_1
_geom_bond_atom_site_label_2
_geom_bond_distance
_geom_bond_site_symmetry_2
_ccdc_geom_bond_type
Eu0 N31 2.657 1_455 S
Eu0 N38 2.595 1_455 S
Eu0 O44 2.561 . S
Eu0 O45 2.612 . S
Eu0 O47 2.347 . S
Eu0 O48 2.563 . S
Eu0 O49 2.419 1_455 S
Eu0 O51 2.380 . S
Eu0 O52 2.432 . S
Eu0 C64 2.848 1_455 S
C1 C4 1.429 . S
C1 C5 1.411 . S
C1 N8 1.377 . S
C2 C4 1.420 . S
C2 C6 1.423 . S
C2 C14 1.392 . S
C3 C5 1.420 . S
C3 C6 1.351 . S
C3 H26 0.931 . S
C4 C1 1.429 . S
C4 C2 1.420 . S
C4 N12 1.362 . S
C5 C1 1.411 . S
C5 C3 1.420 . S
C5 C10 1.395 . S
C6 C2 1.423 . S
C6 C3 1.351 . S
C6 H18 0.930 . S
C7 C9 1.400 . S
C7 C10 1.386 . S
C7 H19 0.930 . S
N8 C1 1.377 . S
N8 C9 1.321 . S
N8 Eu11 2.609 . S
C9 C7 1.400 . S
C9 N8 1.321 . S
C9 H16 0.930 . S
C10 C5 1.395 . S
C10 C7 1.386 . S
C10 H29 0.930 . S
Eu11 N8 2.609 . S
Eu11 N12 2.657 . S
Eu11 O45 2.380 . S
Eu11 O46 2.432 . S
Eu11 O50 2.558 . S
Eu11 O51 2.612 . S
Eu11 O53 2.339 . S
Eu11 O54 2.563 . S
Eu11 O55 2.419 . S
Eu11 C75 2.848 . S
N12 C4 1.362 . S
N12 Eu11 2.657 . S
N12 C13 1.334 . S
C13 N12 1.334 . S
C13 C15 1.413 . S
C13 H20 0.929 . S
C14 C2 1.392 . S
C14 C15 1.367 . S
C14 H22 0.930 . S
C15 C13 1.413 . S
C15 C14 1.367 . S
C15 H17 0.930 . S
H16 C9 0.930 . S
H17 C15 0.930 . S
H18 C6 0.930 . S
H19 C7 0.930 . S
H20 C13 0.929 . S
H21 C35 0.930 . S
H22 C14 0.930 . S
H23 C41 0.930 . S
H24 C32 0.929 . S
H25 C39 0.930 . S
H26 C3 0.931 . S
H27 C33 0.930 . S
H28 C66 0.930 . S
H29 C10 0.930 . S
H30 C65 0.931 . S
N31 Eu0 2.657 1_655 S
N31 C32 1.334 . S
N31 C36 1.362 . S
C32 H24 0.929 . S
C32 N31 1.334 . S
C32 C35 1.413 . S
C33 H27 0.930 . S
C33 C34 1.392 . S
C33 C35 1.367 . S
C34 C33 1.392 . S
C34 C36 1.420 . S
C34 C66 1.423 . S
C35 H21 0.930 . S
C35 C32 1.413 . S
C35 C33 1.367 . S
C36 N31 1.362 . S
C36 C34 1.420 . S
C36 C40 1.429 . S
H37 C42 0.930 . S
N38 Eu0 2.595 1_655 S
N38 C40 1.416 . S
N38 C41 1.301 1_655 S
C39 H25 0.930 . S
C39 C41 1.400 . S
C39 C42 1.386 1_455 S
C40 C36 1.429 . S
C40 N38 1.416 . S
C40 C43 1.411 . S
C41 H23 0.930 . S
C41 N38 1.301 1_455 S
C41 C39 1.400 . S
C42 H37 0.930 . S
C42 C39 1.386 1_655 S
C42 C43 1.395 . S
C43 C40 1.411 . S
C43 C42 1.395 . S
C43 C65 1.420 . S
O44 Eu0 2.561 . S
O44 C64 1.249 1_455 S
O45 Eu0 2.612 . S
O45 Eu11 2.380 . S
O45 C56 1.276 . S
O46 Eu11 2.432 . S
O46 C63 1.264 . S
O47 Eu0 2.347 . S
O47 C63 1.264 . S
O48 Eu0 2.563 . S
O48 C56 1.235 . S
O49 Eu0 2.419 1_655 S
O49 C64 1.249 . S
O50 Eu11 2.558 . S
O50 C75 1.257 . S
O51 Eu0 2.380 . S
O51 Eu11 2.612 . S
O51 C67 1.276 . S
O52 Eu0 2.432 . S
O52 C74 1.264 . S
O53 Eu11 2.339 . S
O53 C74 1.254 . S
O54 Eu11 2.563 . S
O54 C67 1.235 . S
O55 Eu11 2.419 . S
O55 C75 1.249 . S
C56 O45 1.276 . S
C56 O48 1.235 . S
C57 C59 1.393 . S
C57 C61 1.395 . S
C57 C64 1.492 . S
C58 C59 1.392 . S
C58 C60 1.386 . S
C59 C57 1.393 . S
C59 C58 1.392 . S
C59 H76 0.930 . S
C60 C58 1.386 . S
C60 C62 1.395 . S
C60 H77 0.930 . S
C61 C57 1.395 . S
C61 C62 1.379 . S
C61 H78 0.930 . S
C62 C60 1.395 . S
C62 C61 1.379 . S
C62 H79 0.930 . S
C63 O46 1.264 . S
C63 O47 1.264 . S
C64 Eu0 2.848 1_655 S
C64 O44 1.249 1_655 S
C64 O49 1.249 . S
C64 C57 1.492 . S
C65 H30 0.931 . S
C65 C43 1.420 . S
C65 C66 1.351 . S
C66 H28 0.930 . S
C66 C34 1.423 . S
C66 C65 1.351 . S
C67 O51 1.276 . S
C67 O54 1.235 . S
C68 C69 1.393 . S
C68 C72 1.395 . S
C68 C75 1.492 . S
C69 C68 1.393 . S
C69 C70 1.392 . S
C69 H80 0.930 . S
C70 C69 1.392 . S
C70 C71 1.386 . S
C71 C70 1.386 . S
C71 C73 1.395 . S
C71 H81 0.930 . S
C72 C68 1.395 . S
C72 C73 1.379 . S
C72 H82 0.930 . S
C73 C71 1.395 . S
C73 C72 1.379 . S
C73 H83 0.930 . S
C74 O52 1.264 . S
C74 O53 1.254 . S
C75 Eu11 2.848 . S
C75 O50 1.257 . S
C75 O55 1.249 . S
C75 C68 1.492 . S
H76 C59 0.930 . S
H77 C60 0.930 . S
H78 C61 0.930 . S
H79 C62 0.930 . S
H80 C69 0.930 . S
H81 C71 0.930 . S
H82 C72 0.930 . S
H83 C73 0.930 . S
Eu84 N115 2.657 . S
Eu84 N122 2.609 . S
Eu84 O128 2.558 . S
Eu84 O129 2.612 . S
Eu84 O131 2.339 . S
Eu84 O132 2.563 . S
Eu84 O133 2.419 . S
Eu84 O135 2.380 . S
Eu84 O136 2.432 . S
Eu84 C148 2.848 . S
C85 C88 1.429 . S
C85 C89 1.411 . S
C85 N92 1.377 . S
C86 C88 1.420 . S
C86 C90 1.423 . S
C86 C98 1.392 . S
C87 C89 1.420 . S
C87 C90 1.351 . S
C87 H110 0.931 . S
C88 C85 1.429 . S
C88 C86 1.420 . S
C88 N96 1.362 . S
C89 C85 1.411 . S
C89 C87 1.420 . S
C89 C94 1.395 . S
C90 C86 1.423 . S
C90 C87 1.351 . S
C90 H102 0.930 . S
C91 C93 1.400 . S
C91 C94 1.386 . S
C91 H103 0.930 . S
N92 C85 1.377 . S
N92 C93 1.321 . S
N92 Eu95 2.609 . S
C93 C91 1.400 . S
C93 N92 1.321 . S
C93 H100 0.930 . S
C94 C89 1.395 . S
C94 C91 1.386 . S
C94 H113 0.930 . S
Eu95 N92 2.609 . S
Eu95 N96 2.657 . S
Eu95 O129 2.380 . S
Eu95 O130 2.432 . S
Eu95 O134 2.558 . S
Eu95 O135 2.612 . S
Eu95 O137 2.339 . S
Eu95 O138 2.563 . S
Eu95 O139 2.419 . S
Eu95 C159 2.848 . S
N96 C88 1.362 . S
N96 Eu95 2.657 . S
N96 C97 1.334 . S
C97 N96 1.334 . S
C97 C99 1.413 . S
C97 H104 0.929 . S
C98 C86 1.392 . S
C98 C99 1.367 . S
C98 H106 0.930 . S
C99 C97 1.413 . S
C99 C98 1.367 . S
C99 H101 0.930 . S
H100 C93 0.930 . S
H101 C99 0.930 . S
H102 C90 0.930 . S
H103 C91 0.930 . S
H104 C97 0.929 . S
H105 C119 0.930 . S
H106 C98 0.930 . S
H107 C125 0.930 . S
H108 C116 0.929 . S
H109 C123 0.930 . S
H110 C87 0.931 . S
H111 C117 0.930 . S
H112 C150 0.930 . S
H113 C94 0.930 . S
H114 C149 0.931 . S
N115 Eu84 2.657 . S
N115 C116 1.334 . S
N115 C120 1.362 . S
C116 H108 0.929 . S
C116 N115 1.334 . S
C116 C119 1.413 . S
C117 H111 0.930 . S
C117 C118 1.392 . S
C117 C119 1.367 . S
C118 C117 1.392 . S
C118 C120 1.420 . S
C118 C150 1.423 . S
C119 H105 0.930 . S
C119 C116 1.413 . S
C119 C117 1.367 . S
C120 N115 1.362 . S
C120 C118 1.420 . S
C120 C124 1.429 . S
H121 C126 0.930 . S
N122 Eu84 2.609 . S
N122 C124 1.377 . S
N122 C125 1.321 . S
C123 H109 0.930 . S
C123 C125 1.400 . S
C123 C126 1.386 . S
C124 C120 1.429 . S
C124 N122 1.377 . S
C124 C127 1.411 . S
C125 H107 0.930 . S
C125 N122 1.321 . S
C125 C123 1.400 . S
C126 H121 0.930 . S
C126 C123 1.386 . S
C126 C127 1.395 . S
C127 C124 1.411 . S
C127 C126 1.395 . S
C127 C149 1.420 . S
O128 Eu84 2.558 . S
O128 C148 1.257 . S
O129 Eu84 2.612 . S
O129 Eu95 2.380 . S
O129 C140 1.276 . S
O130 Eu95 2.432 . S
O130 C147 1.264 . S
O131 Eu84 2.339 . S
O131 C147 1.254 . S
O132 Eu84 2.563 . S
O132 C140 1.235 . S
O133 Eu84 2.419 . S
O133 C148 1.249 . S
O134 Eu95 2.558 . S
O134 C159 1.257 . S
O135 Eu84 2.380 . S
O135 Eu95 2.612 . S
O135 C151 1.276 . S
O136 Eu84 2.432 . S
O136 C158 1.264 . S
O137 Eu95 2.339 . S
O137 C158 1.254 . S
O138 Eu95 2.563 . S
O138 C151 1.235 . S
O139 Eu95 2.419 . S
O139 C159 1.249 . S
C140 O129 1.276 . S
C140 O132 1.235 . S
C141 C143 1.393 . S
C141 C145 1.395 . S
C141 C148 1.492 . S
C142 C143 1.392 . S
C142 C144 1.386 . S
C143 C141 1.393 . S
C143 C142 1.392 . S
C143 H160 0.930 . S
C144 C142 1.386 . S
C144 C146 1.395 . S
C144 H161 0.930 . S
C145 C141 1.395 . S
C145 C146 1.379 . S
C145 H162 0.930 . S
C146 C144 1.395 . S
C146 C145 1.379 . S
C146 H163 0.930 . S
C147 O130 1.264 . S
C147 O131 1.254 . S
C148 Eu84 2.848 . S
C148 O128 1.257 . S
C148 O133 1.249 . S
C148 C141 1.492 . S
C149 H114 0.931 . S
C149 C127 1.420 . S
C149 C150 1.351 . S
C150 H112 0.930 . S
C150 C118 1.423 . S
C150 C149 1.351 . S
C151 O135 1.276 . S
C151 O138 1.235 . S
C152 C153 1.393 . S
C152 C156 1.395 . S
C152 C159 1.492 . S
C153 C152 1.393 . S
C153 C154 1.392 . S
C153 H164 0.930 . S
C154 C153 1.392 . S
C154 C155 1.386 . S
C155 C154 1.386 . S
C155 C157 1.395 . S
C155 H165 0.930 . S
C156 C152 1.395 . S
C156 C157 1.379 . S
C156 H166 0.930 . S
C157 C155 1.395 . S
C157 C156 1.379 . S
C157 H167 0.930 . S
C158 O136 1.264 . S
C158 O137 1.254 . S
C159 Eu95 2.848 . S
C159 O134 1.257 . S
C159 O139 1.249 . S
C159 C152 1.492 . S
H160 C143 0.930 . S
H161 C144 0.930 . S
H162 C145 0.930 . S
H163 C146 0.930 . S
H164 C153 0.930 . S
H165 C155 0.930 . S
H166 C156 0.930 . S
H167 C157 0.930 . S
Eu168 N199 2.657 . S
Eu168 N206 2.609 . S
Eu168 O212 2.558 . S
Eu168 O213 2.612 . S
Eu168 O215 2.339 . S
Eu168 O216 2.563 . S
Eu168 O217 2.419 . S
Eu168 O219 2.380 . S
Eu168 O220 2.432 . S
Eu168 C232 2.848 . S
C169 C172 1.429 . S
C169 C173 1.411 . S
C169 N176 1.377 . S
C170 C172 1.420 . S
C170 C174 1.423 . S
C170 C182 1.392 . S
C171 C173 1.420 . S
C171 C174 1.351 . S
C171 H194 0.931 . S
C172 C169 1.429 . S
C172 C170 1.420 . S
C172 N180 1.362 . S
C173 C169 1.411 . S
C173 C171 1.420 . S
C173 C178 1.395 . S
C174 C170 1.423 . S
C174 C171 1.351 . S
C174 H186 0.930 . S
C175 C177 1.400 . S
C175 C178 1.386 . S
C175 H187 0.930 . S
N176 C169 1.377 . S
N176 C177 1.321 . S
N176 Eu179 2.609 . S
C177 C175 1.400 . S
C177 N176 1.321 . S
C177 H184 0.930 . S
C178 C173 1.395 . S
C178 C175 1.386 . S
C178 H197 0.930 . S
Eu179 N176 2.609 . S
Eu179 N180 2.657 . S
Eu179 O213 2.380 . S
Eu179 O214 2.432 . S
Eu179 O218 2.558 . S
Eu179 O219 2.612 . S
Eu179 O221 2.339 . S
Eu179 O222 2.563 . S
Eu179 O223 2.419 . S
Eu179 C243 2.848 . S
N180 C172 1.362 . S
N180 Eu179 2.657 . S
N180 C181 1.334 . S
C181 N180 1.334 . S
C181 C183 1.413 . S
C181 H188 0.929 . S
C182 C170 1.392 . S
C182 C183 1.367 . S
C182 H190 0.930 . S
C183 C181 1.413 . S
C183 C182 1.367 . S
C183 H185 0.930 . S
H184 C177 0.930 . S
H185 C183 0.930 . S
H186 C174 0.930 . S
H187 C175 0.930 . S
H188 C181 0.929 . S
H189 C203 0.930 . S
H190 C182 0.930 . S
H191 C209 0.930 . S
H192 C200 0.929 . S
H193 C207 0.930 . S
H194 C171 0.931 . S
H195 C201 0.930 . S
H196 C234 0.930 . S
H197 C178 0.930 . S
H198 C233 0.931 . S
N199 Eu168 2.657 . S
N199 C200 1.334 . S
N199 C204 1.362 . S
C200 H192 0.929 . S
C200 N199 1.334 . S
C200 C203 1.413 . S
C201 H195 0.930 . S
C201 C202 1.392 . S
C201 C203 1.367 . S
C202 C201 1.392 . S
C202 C204 1.420 . S
C202 C234 1.423 . S
C203 H189 0.930 . S
C203 C200 1.413 . S
C203 C201 1.367 . S
C204 N199 1.362 . S
C204 C202 1.420 . S
C204 C208 1.429 . S
H205 C210 0.930 . S
N206 Eu168 2.609 . S
N206 C208 1.377 . S
N206 C209 1.321 . S
C207 H193 0.930 . S
C207 C209 1.400 . S
C207 C210 1.386 . S
C208 C204 1.429 . S
C208 N206 1.377 . S
C208 C211 1.411 . S
C209 H191 0.930 . S
C209 N206 1.321 . S
C209 C207 1.400 . S
C210 H205 0.930 . S
C210 C207 1.386 . S
C210 C211 1.395 . S
C211 C208 1.411 . S
C211 C210 1.395 . S
C211 C233 1.420 . S
O212 Eu168 2.558 . S
O212 C232 1.257 . S
O213 Eu168 2.612 . S
O213 Eu179 2.380 . S
O213 C224 1.276 . S
O214 Eu179 2.432 . S
O214 C231 1.264 . S
O215 Eu168 2.339 . S
O215 C231 1.254 . S
O216 Eu168 2.563 . S
O216 C224 1.235 . S
O217 Eu168 2.419 . S
O217 C232 1.249 . S
O218 Eu179 2.558 . S
O218 C243 1.257 . S
O219 Eu168 2.380 . S
O219 Eu179 2.612 . S
O219 C235 1.276 . S
O220 Eu168 2.432 . S
O220 C242 1.264 . S
O221 Eu179 2.339 . S
O221 C242 1.254 . S
O222 Eu179 2.563 . S
O222 C235 1.235 . S
O223 Eu179 2.419 . S
O223 C243 1.249 . S
C224 O213 1.276 . S
C224 O216 1.235 . S
C225 C227 1.393 . S
C225 C229 1.395 . S
C225 C232 1.492 . S
C226 C227 1.392 . S
C226 C228 1.386 . S
C227 C225 1.393 . S
C227 C226 1.392 . S
C227 H244 0.930 . S
C228 C226 1.386 . S
C228 C230 1.395 . S
C228 H245 0.930 . S
C229 C225 1.395 . S
C229 C230 1.379 . S
C229 H246 0.930 . S
C230 C228 1.395 . S
C230 C229 1.379 . S
C230 H247 0.930 . S
C231 O214 1.264 . S
C231 O215 1.254 . S
C232 Eu168 2.848 . S
C232 O212 1.257 . S
C232 O217 1.249 . S
C232 C225 1.492 . S
C233 H198 0.931 . S
C233 C211 1.420 . S
C233 C234 1.351 . S
C234 H196 0.930 . S
C234 C202 1.423 . S
C234 C233 1.351 . S
C235 O219 1.276 . S
C235 O222 1.235 . S
C236 C237 1.393 . S
C236 C240 1.395 . S
C236 C243 1.492 . S
C237 C236 1.393 . S
C237 C238 1.392 . S
C237 H248 0.930 . S
C238 C237 1.392 . S
C238 C239 1.386 . S
C239 C238 1.386 . S
C239 C241 1.395 . S
C239 H249 0.930 . S
C240 C236 1.395 . S
C240 C241 1.379 . S
C240 H250 0.930 . S
C241 C239 1.395 . S
C241 C240 1.379 . S
C241 H251 0.930 . S
C242 O220 1.264 . S
C242 O221 1.254 . S
C243 Eu179 2.848 . S
C243 O218 1.257 . S
C243 O223 1.249 . S
C243 C236 1.492 . S
H244 C227 0.930 . S
H245 C228 0.930 . S
H246 C229 0.930 . S
H247 C230 0.930 . S
H248 C237 0.930 . S
H249 C239 0.930 . S
H250 C240 0.930 . S
H251 C241 0.930 . S
Eu252 N283 2.657 . S
Eu252 N290 2.609 . S
Eu252 O296 2.558 . S
Eu252 O297 2.612 . S
Eu252 O299 2.339 . S
Eu252 O300 2.563 . S
Eu252 O301 2.419 . S
Eu252 O303 2.380 . S
Eu252 O304 2.432 . S
Eu252 C316 2.848 . S
C253 C256 1.429 . S
C253 C257 1.411 1_554 S
C253 N260 1.377 1_554 S
C254 C256 1.420 . S
C254 C258 1.423 . S
C254 C266 1.392 . S
C255 C257 1.420 1_554 S
C255 C258 1.351 . S
C255 H278 0.931 . S
C256 C253 1.429 . S
C256 C254 1.420 . S
C256 N264 1.362 . S
C257 C253 1.411 1_556 S
C257 C255 1.420 1_556 S
C257 C262 1.395 . S
C258 C254 1.423 . S
C258 C255 1.351 . S
C258 H270 0.930 . S
C259 C261 1.400 . S
C259 C262 1.386 . S
C259 H271 0.930 . S
N260 C253 1.377 1_556 S
N260 C261 1.321 . S
N260 Eu263 2.609 1_556 S
C261 C259 1.400 . S
C261 N260 1.321 . S
C261 H268 0.930 . S
C262 C257 1.395 . S
C262 C259 1.386 . S
C262 H281 0.930 . S
Eu263 N260 2.609 1_554 S
Eu263 N264 2.657 . S
Eu263 O297 2.380 . S
Eu263 O298 2.432 . S
Eu263 O302 2.558 1_554 S
Eu263 O303 2.612 . S
Eu263 O305 2.339 . S
Eu263 O306 2.563 1_554 S
Eu263 O307 2.419 1_554 S
Eu263 C327 2.848 1_554 S
N264 C256 1.362 . S
N264 Eu263 2.657 . S
N264 C265 1.334 . S
C265 N264 1.334 . S
C265 C267 1.413 . S
C265 H272 0.929 . S
C266 C254 1.392 . S
C266 C267 1.367 . S
C266 H274 0.930 . S
C267 C265 1.413 . S
C267 C266 1.367 . S
C267 H269 0.930 . S
H268 C261 0.930 . S
H269 C267 0.930 . S
H270 C258 0.930 . S
H271 C259 0.930 . S
H272 C265 0.929 . S
H273 C287 0.930 1_556 S
H274 C266 0.930 . S
H275 C293 0.930 . S
H276 C284 0.929 . S
H277 C291 0.930 . S
H278 C255 0.931 . S
H279 C285 0.930 . S
H280 C318 0.930 . S
H281 C262 0.930 . S
H282 C317 0.931 . S
N283 Eu252 2.657 . S
N283 C284 1.334 . S
N283 C288 1.362 . S
C284 H276 0.929 . S
C284 N283 1.334 . S
C284 C287 1.413 . S
C285 H279 0.930 . S
C285 C286 1.392 . S
C285 C287 1.367 . S
C286 C285 1.392 . S
C286 C288 1.420 . S
C286 C318 1.423 . S
C287 H273 0.930 1_554 S
C287 C284 1.413 . S
C287 C285 1.367 . S
C288 N283 1.362 . S
C288 C286 1.420 . S
C288 C292 1.429 . S
H289 C294 0.930 . S
N290 Eu252 2.609 . S
N290 C292 1.377 . S
N290 C293 1.321 . S
C291 H277 0.930 . S
C291 C293 1.400 . S
C291 C294 1.386 . S
C292 C288 1.429 . S
C292 N290 1.377 . S
C292 C295 1.411 . S
C293 H275 0.930 . S
C293 N290 1.321 . S
C293 C291 1.400 . S
C294 H289 0.930 . S
C294 C291 1.386 . S
C294 C295 1.395 . S
C295 C292 1.411 . S
C295 C294 1.395 . S
C295 C317 1.420 . S
O296 Eu252 2.558 . S
O296 C316 1.257 . S
O297 Eu252 2.612 . S
O297 Eu263 2.380 . S
O297 C308 1.276 . S
O298 Eu263 2.432 . S
O298 C315 1.264 . S
O299 Eu252 2.339 . S
O299 C315 1.254 . S
O300 Eu252 2.563 . S
O300 C308 1.235 . S
O301 Eu252 2.419 . S
O301 C316 1.249 . S
O302 Eu263 2.558 1_556 S
O302 C327 1.257 . S
O303 Eu252 2.380 . S
O303 Eu263 2.612 . S
O303 C319 1.276 . S
O304 Eu252 2.432 . S
O304 C326 1.264 . S
O305 Eu263 2.339 . S
O305 C326 1.254 . S
O306 Eu263 2.563 1_556 S
O306 C319 1.235 1_556 S
O307 Eu263 2.419 1_556 S
O307 C327 1.249 . S
C308 O297 1.276 . S
C308 O300 1.235 . S
C309 C311 1.393 . S
C309 C313 1.395 . S
C309 C316 1.492 . S
C310 C311 1.392 . S
C310 C312 1.386 . S
C311 C309 1.393 . S
C311 C310 1.392 . S
C311 H328 0.930 . S
C312 C310 1.386 . S
C312 C314 1.395 . S
C312 H329 0.930 . S
C313 C309 1.395 . S
C313 C314 1.379 . S
C313 H330 0.930 . S
C314 C312 1.395 . S
C314 C313 1.379 . S
C314 H331 0.930 . S
C315 O298 1.264 . S
C315 O299 1.254 . S
C316 Eu252 2.848 . S
C316 O296 1.257 . S
C316 O301 1.249 . S
C316 C309 1.492 . S
C317 H282 0.931 . S
C317 C295 1.420 . S
C317 C318 1.351 . S
C318 H280 0.930 . S
C318 C286 1.423 . S
C318 C317 1.351 . S
C319 O303 1.276 . S
C319 O306 1.235 1_554 S
C320 C321 1.393 . S
C320 C324 1.395 . S
C320 C327 1.492 . S
C321 C320 1.393 . S
C321 C322 1.392 . S
C321 H332 0.930 . S
C322 C321 1.392 . S
C322 C323 1.386 . S
C323 C322 1.386 . S
C323 C325 1.395 . S
C323 H333 0.930 . S
C324 C320 1.395 . S
C324 C325 1.379 . S
C324 H334 0.930 . S
C325 C323 1.395 . S
C325 C324 1.379 . S
C325 H335 0.930 . S
C326 O304 1.264 . S
C326 O305 1.254 . S
C327 Eu263 2.848 1_556 S
C327 O302 1.257 . S
C327 O307 1.249 . S
C327 C320 1.492 . S
H328 C311 0.930 . S
H329 C312 0.930 . S
H330 C313 0.930 . S
H331 C314 0.930 . S
H332 C321 0.930 . S
H333 C323 0.930 . S
H334 C324 0.930 . S
H335 C325 0.930 . S
Eu336 N367 2.657 1_455 S
Eu336 N374 2.609 1_455 S
Eu336 O380 2.558 1_455 S
Eu336 O381 2.612 . S
Eu336 O383 2.329 1_455 S
Eu336 O384 2.563 . S
Eu336 O385 2.419 1_455 S
Eu336 O387 2.380 . S
Eu336 O388 2.432 . S
Eu336 C400 2.848 1_455 S
C337 C340 1.429 . S
C337 C341 1.411 . S
C337 N344 1.377 . S
C338 C340 1.420 . S
C338 C342 1.423 . S
C338 C350 1.392 . S
C339 C341 1.420 . S
C339 C342 1.351 . S
C339 H362 0.931 . S
C340 C337 1.429 . S
C340 C338 1.420 . S
C340 N348 1.362 . S
C341 C337 1.411 . S
C341 C339 1.420 . S
C341 C346 1.395 . S
C342 C338 1.423 . S
C342 C339 1.351 . S
C342 H354 0.930 . S
C343 C345 1.400 . S
C343 C346 1.386 . S
C343 H355 0.930 . S
N344 C337 1.377 . S
N344 C345 1.321 . S
N344 Eu347 2.609 . S
C345 C343 1.400 . S
C345 N344 1.321 . S
C345 H352 0.930 . S
C346 C341 1.395 . S
C346 C343 1.386 . S
C346 H365 0.930 . S
Eu347 N344 2.609 . S
Eu347 N348 2.657 . S
Eu347 O381 2.380 . S
Eu347 O382 2.432 . S
Eu347 O386 2.558 . S
Eu347 O387 2.612 . S
Eu347 O389 2.339 . S
Eu347 O390 2.563 . S
Eu347 O391 2.419 . S
Eu347 C411 2.848 . S
N348 C340 1.362 . S
N348 Eu347 2.657 . S
N348 C349 1.334 . S
C349 N348 1.334 . S
C349 C351 1.413 . S
C349 H356 0.929 . S
C350 C338 1.392 . S
C350 C351 1.367 . S
C350 H358 0.930 . S
C351 C349 1.413 . S
C351 C350 1.367 . S
C351 H353 0.930 . S
H352 C345 0.930 . S
H353 C351 0.930 . S
H354 C342 0.930 . S
H355 C343 0.930 . S
H356 C349 0.929 . S
H357 C371 0.930 . S
H358 C350 0.930 . S
H359 C377 0.930 . S
H360 C368 0.929 . S
H361 C375 0.923 1_455 S
H362 C339 0.931 . S
H363 C369 0.930 . S
H364 C402 0.930 . S
H365 C346 0.930 . S
H366 C401 0.931 . S
N367 Eu336 2.657 1_655 S
N367 C368 1.334 . S
N367 C372 1.362 . S
C368 H360 0.929 . S
C368 N367 1.334 . S
C368 C371 1.413 . S
C369 H363 0.930 . S
C369 C370 1.392 . S
C369 C371 1.367 . S
C370 C369 1.392 . S
C370 C372 1.420 . S
C370 C402 1.423 . S
C371 H357 0.930 . S
C371 C368 1.413 . S
C371 C369 1.367 . S
C372 N367 1.362 . S
C372 C370 1.420 . S
C372 C376 1.429 . S
H373 C378 0.930 . S
N374 Eu336 2.609 1_655 S
N374 C376 1.377 . S
N374 C377 1.321 1_655 S
C375 H361 0.923 1_655 S
C375 C377 1.396 1_655 S
C375 C378 1.396 . S
C376 C372 1.429 . S
C376 N374 1.377 . S
C376 C379 1.411 . S
C377 H359 0.930 . S
C377 N374 1.321 1_455 S
C377 C375 1.396 1_455 S
C378 H373 0.930 . S
C378 C375 1.396 . S
C378 C379 1.395 . S
C379 C376 1.411 . S
C379 C378 1.395 . S
C379 C401 1.420 . S
O380 Eu336 2.558 1_655 S
O380 C400 1.257 . S
O381 Eu336 2.612 . S
O381 Eu347 2.380 . S
O381 C392 1.276 . S
O382 Eu347 2.432 . S
O382 C399 1.264 . S
O383 Eu336 2.329 1_655 S
O383 C399 1.242 1_655 S
O384 Eu336 2.563 . S
O384 C392 1.235 . S
O385 Eu336 2.419 1_655 S
O385 C400 1.249 . S
O386 Eu347 2.558 . S
O386 C411 1.257 . S
O387 Eu336 2.380 . S
O387 Eu347 2.612 . S
O387 C403 1.276 . S
O388 Eu336 2.432 . S
O388 C410 1.264 . S
O389 Eu347 2.339 . S
O389 C410 1.254 . S
O390 Eu347 2.563 . S
O390 C403 1.235 . S
O391 Eu347 2.419 . S
O391 C411 1.249 . S
C392 O381 1.276 . S
C392 O384 1.235 . S
C393 C395 1.393 . S
C393 C397 1.395 . S
C393 C400 1.492 . S
C394 C395 1.392 . S
C394 C396 1.386 . S
C395 C393 1.393 . S
C395 C394 1.392 . S
C395 H412 0.930 . S
C396 C394 1.386 . S
C396 C398 1.395 . S
C396 H413 0.930 . S
C397 C393 1.395 . S
C397 C398 1.379 . S
C397 H414 0.930 . S
C398 C396 1.395 . S
C398 C397 1.379 . S
C398 H415 0.930 . S
C399 O382 1.264 . S
C399 O383 1.242 1_455 S
C400 Eu336 2.848 1_655 S
C400 O380 1.257 . S
C400 O385 1.249 . S
C400 C393 1.492 . S
C401 H366 0.931 . S
C401 C379 1.420 . S
C401 C402 1.351 . S
C402 H364 0.930 . S
C402 C370 1.423 . S
C402 C401 1.351 . S
C403 O387 1.276 . S
C403 O390 1.235 . S
C404 C405 1.393 . S
C404 C408 1.395 . S
C404 C411 1.492 . S
C405 C404 1.393 . S
C405 C406 1.392 . S
C405 H416 0.930 . S
C406 C405 1.392 . S
C406 C407 1.386 . S
C407 C406 1.386 . S
C407 C409 1.395 . S
C407 H417 0.930 . S
C408 C404 1.395 . S
C408 C409 1.379 . S
C408 H418 0.930 . S
C409 C407 1.395 . S
C409 C408 1.379 . S
C409 H419 0.930 . S
C410 O388 1.264 . S
C410 O389 1.254 . S
C411 Eu347 2.848 . S
C411 O386 1.257 . S
C411 O391 1.249 . S
C411 C404 1.492 . S
H412 C395 0.930 . S
H413 C396 0.930 . S
H414 C397 0.930 . S
H415 C398 0.930 . S
H416 C405 0.930 . S
H417 C407 0.930 . S
H418 C408 0.930 . S
H419 C409 0.930 . S
Eu420 N451 2.657 . S
Eu420 N458 2.609 . S
Eu420 O464 2.558 . S
Eu420 O465 2.612 . S
Eu420 O467 2.339 . S
Eu420 O468 2.563 . S
Eu420 O469 2.419 . S
Eu420 O471 2.380 . S
Eu420 O472 2.432 . S
Eu420 C484 2.848 . S
C421 C424 1.429 . S
C421 C425 1.411 . S
C421 N428 1.377 . S
C422 C424 1.420 . S
C422 C426 1.423 . S
C422 C434 1.392 . S
C423 C425 1.420 . S
C423 C426 1.351 . S
C423 H446 0.931 . S
C424 C421 1.429 . S
C424 C422 1.420 . S
C424 N432 1.362 . S
C425 C421 1.411 . S
C425 C423 1.420 . S
C425 C430 1.395 . S
C426 C422 1.423 . S
C426 C423 1.351 . S
C426 H438 0.930 . S
C427 C429 1.400 . S
C427 C430 1.386 . S
C427 H439 0.930 . S
N428 C421 1.377 . S
N428 C429 1.321 . S
N428 Eu431 2.609 . S
C429 C427 1.400 . S
C429 N428 1.321 . S
C429 H436 0.930 . S
C430 C425 1.395 . S
C430 C427 1.386 . S
C430 H449 0.930 . S
Eu431 N428 2.609 . S
Eu431 N432 2.657 . S
Eu431 O465 2.380 . S
Eu431 O466 2.432 . S
Eu431 O470 2.558 . S
Eu431 O471 2.612 . S
Eu431 O473 2.339 . S
Eu431 O474 2.563 . S
Eu431 O475 2.419 . S
Eu431 C495 2.848 . S
N432 C424 1.362 . S
N432 Eu431 2.657 . S
N432 C433 1.334 . S
C433 N432 1.334 . S
C433 C435 1.413 . S
C433 H440 0.929 . S
C434 C422 1.392 . S
C434 C435 1.367 . S
C434 H442 0.930 . S
C435 C433 1.413 . S
C435 C434 1.367 . S
C435 H437 0.930 . S
H436 C429 0.930 . S
H437 C435 0.930 . S
H438 C426 0.930 . S
H439 C427 0.930 . S
H440 C433 0.929 . S
H441 C455 0.930 . S
H442 C434 0.930 . S
H443 C461 0.930 . S
H444 C452 0.929 . S
H445 C459 0.930 . S
H446 C423 0.931 . S
H447 C453 0.930 . S
H448 C486 0.930 . S
H449 C430 0.930 . S
H450 C485 0.931 . S
N451 Eu420 2.657 . S
N451 C452 1.334 . S
N451 C456 1.362 . S
C452 H444 0.929 . S
C452 N451 1.334 . S
C452 C455 1.413 . S
C453 H447 0.930 . S
C453 C454 1.392 . S
C453 C455 1.367 . S
C454 C453 1.392 . S
C454 C456 1.420 . S
C454 C486 1.423 . S
C455 H441 0.930 . S
C455 C452 1.413 . S
C455 C453 1.367 . S
C456 N451 1.362 . S
C456 C454 1.420 . S
C456 C460 1.429 . S
H457 C462 0.930 . S
N458 Eu420 2.609 . S
N458 C460 1.377 . S
N458 C461 1.321 . S
C459 H445 0.930 . S
C459 C461 1.400 . S
C459 C462 1.386 . S
C460 C456 1.429 . S
C460 N458 1.377 . S
C460 C463 1.411 . S
C461 H443 0.930 . S
C461 N458 1.321 . S
C461 C459 1.400 . S
C462 H457 0.930 . S
C462 C459 1.386 . S
C462 C463 1.395 . S
C463 C460 1.411 . S
C463 C462 1.395 . S
C463 C485 1.420 . S
O464 Eu420 2.558 . S
O464 C484 1.257 . S
O465 Eu420 2.612 . S
O465 Eu431 2.380 . S
O465 C476 1.276 . S
O466 Eu431 2.432 . S
O466 C483 1.264 . S
O467 Eu420 2.339 . S
O467 C483 1.254 . S
O468 Eu420 2.563 . S
O468 C476 1.235 . S
O469 Eu420 2.419 . S
O469 C484 1.249 . S
O470 Eu431 2.558 . S
O470 C495 1.257 . S
O471 Eu420 2.380 . S
O471 Eu431 2.612 . S
O471 C487 1.276 . S
O472 Eu420 2.432 . S
O472 C494 1.264 . S
O473 Eu431 2.339 . S
O473 C494 1.254 . S
O474 Eu431 2.563 . S
O474 C487 1.235 . S
O475 Eu431 2.419 . S
O475 C495 1.249 . S
C476 O465 1.276 . S
C476 O468 1.235 . S
C477 C479 1.393 . S
C477 C481 1.395 . S
C477 C484 1.492 . S
C478 C479 1.392 . S
C478 C480 1.386 . S
C479 C477 1.393 . S
C479 C478 1.392 . S
C479 H496 0.930 . S
C480 C478 1.386 . S
C480 C482 1.395 . S
C480 H497 0.930 . S
C481 C477 1.395 . S
C481 C482 1.379 . S
C481 H498 0.930 . S
C482 C480 1.395 . S
C482 C481 1.379 . S
C482 H499 0.930 . S
C483 O466 1.264 . S
C483 O467 1.254 . S
C484 Eu420 2.848 . S
C484 O464 1.257 . S
C484 O469 1.249 . S
C484 C477 1.492 . S
C485 H450 0.931 . S
C485 C463 1.420 . S
C485 C486 1.351 . S
C486 H448 0.930 . S
C486 C454 1.423 . S
C486 C485 1.351 . S
C487 O471 1.276 . S
C487 O474 1.235 . S
C488 C489 1.393 . S
C488 C492 1.395 . S
C488 C495 1.492 . S
C489 C488 1.393 . S
C489 C490 1.392 . S
C489 H500 0.930 . S
C490 C489 1.392 . S
C490 C491 1.386 . S
C491 C490 1.386 . S
C491 C493 1.395 . S
C491 H501 0.930 . S
C492 C488 1.395 . S
C492 C493 1.379 . S
C492 H502 0.930 . S
C493 C491 1.395 . S
C493 C492 1.379 . S
C493 H503 0.930 . S
C494 O472 1.264 . S
C494 O473 1.254 . S
C495 Eu431 2.848 . S
C495 O470 1.257 . S
C495 O475 1.249 . S
C495 C488 1.492 . S
H496 C479 0.930 . S
H497 C480 0.930 . S
H498 C481 0.930 . S
H499 C482 0.930 . S
H500 C489 0.930 . S
H501 C491 0.930 . S
H502 C492 0.930 . S
H503 C493 0.930 . S
Eu504 N535 2.657 . S
Eu504 N542 2.609 . S
Eu504 O548 2.558 . S
Eu504 O549 2.612 . S
Eu504 O551 2.339 . S
Eu504 O552 2.563 . S
Eu504 O553 2.419 . S
Eu504 O555 2.380 . S
Eu504 O556 2.432 . S
Eu504 C568 2.848 . S
C505 C508 1.429 . S
C505 C509 1.411 . S
C505 N512 1.377 . S
C506 C508 1.420 . S
C506 C510 1.423 . S
C506 C518 1.392 . S
C507 C509 1.420 . S
C507 C510 1.351 . S
C507 H530 0.931 . S
C508 C505 1.429 . S
C508 C506 1.420 . S
C508 N516 1.362 . S
C509 C505 1.411 . S
C509 C507 1.420 . S
C509 C514 1.395 . S
C510 C506 1.423 . S
C510 C507 1.351 . S
C510 H522 0.930 . S
C511 C513 1.400 . S
C511 C514 1.386 . S
C511 H523 0.930 . S
N512 C505 1.377 . S
N512 C513 1.321 . S
N512 Eu515 2.609 . S
C513 C511 1.400 . S
C513 N512 1.321 . S
C513 H520 0.930 . S
C514 C509 1.395 . S
C514 C511 1.386 . S
C514 H533 0.930 . S
Eu515 N512 2.609 . S
Eu515 N516 2.657 . S
Eu515 O549 2.380 . S
Eu515 O550 2.432 . S
Eu515 O554 2.558 . S
Eu515 O555 2.612 . S
Eu515 O557 2.339 . S
Eu515 O558 2.563 . S
Eu515 O559 2.419 . S
Eu515 C579 2.848 . S
N516 C508 1.362 . S
N516 Eu515 2.657 . S
N516 C517 1.334 . S
C517 N516 1.334 . S
C517 C519 1.413 . S
C517 H524 0.929 . S
C518 C506 1.392 . S
C518 C519 1.367 . S
C518 H526 0.930 . S
C519 C517 1.413 . S
C519 C518 1.367 . S
C519 H521 0.930 . S
H520 C513 0.930 . S
H521 C519 0.930 . S
H522 C510 0.930 . S
H523 C511 0.930 . S
H524 C517 0.929 . S
H525 C539 0.930 . S
H526 C518 0.930 . S
H527 C545 0.930 . S
H528 C536 0.929 . S
H529 C543 0.930 . S
H530 C507 0.931 . S
H531 C537 0.930 . S
H532 C570 0.930 . S
H533 C514 0.930 . S
H534 C569 0.931 . S
N535 Eu504 2.657 . S
N535 C536 1.334 . S
N535 C540 1.362 . S
C536 H528 0.929 . S
C536 N535 1.334 . S
C536 C539 1.413 . S
C537 H531 0.930 . S
C537 C538 1.392 . S
C537 C539 1.367 . S
C538 C537 1.392 . S
C538 C540 1.420 . S
C538 C570 1.423 . S
C539 H525 0.930 . S
C539 C536 1.413 . S
C539 C537 1.367 . S
C540 N535 1.362 . S
C540 C538 1.420 . S
C540 C544 1.429 . S
H541 C546 0.930 . S
N542 Eu504 2.609 . S
N542 C544 1.377 . S
N542 C545 1.321 . S
C543 H529 0.930 . S
C543 C545 1.400 . S
C543 C546 1.386 . S
C544 C540 1.429 . S
C544 N542 1.377 . S
C544 C547 1.411 . S
C545 H527 0.930 . S
C545 N542 1.321 . S
C545 C543 1.400 . S
C546 H541 0.930 . S
C546 C543 1.386 . S
C546 C547 1.395 . S
C547 C544 1.411 . S
C547 C546 1.395 . S
C547 C569 1.420 . S
O548 Eu504 2.558 . S
O548 C568 1.257 . S
O549 Eu504 2.612 . S
O549 Eu515 2.380 . S
O549 C560 1.276 . S
O550 Eu515 2.432 . S
O550 C567 1.264 . S
O551 Eu504 2.339 . S
O551 C567 1.254 . S
O552 Eu504 2.563 . S
O552 C560 1.235 . S
O553 Eu504 2.419 . S
O553 C568 1.249 . S
O554 Eu515 2.558 . S
O554 C579 1.257 . S
O555 Eu504 2.380 . S
O555 Eu515 2.612 . S
O555 C571 1.276 . S
O556 Eu504 2.432 . S
O556 C578 1.264 . S
O557 Eu515 2.339 . S
O557 C578 1.254 . S
O558 Eu515 2.563 . S
O558 C571 1.235 . S
O559 Eu515 2.419 . S
O559 C579 1.249 . S
C560 O549 1.276 . S
C560 O552 1.235 . S
C561 C563 1.393 . S
C561 C565 1.395 . S
C561 C568 1.492 . S
C562 C563 1.392 . S
C562 C564 1.386 . S
C563 C561 1.393 . S
C563 C562 1.392 . S
C563 H580 0.930 . S
C564 C562 1.386 . S
C564 C566 1.395 . S
C564 H581 0.930 . S
C565 C561 1.395 . S
C565 C566 1.379 . S
C565 H582 0.930 . S
C566 C564 1.395 . S
C566 C565 1.379 . S
C566 H583 0.930 . S
C567 O550 1.264 . S
C567 O551 1.254 . S
C568 Eu504 2.848 . S
C568 O548 1.257 . S
C568 O553 1.249 . S
C568 C561 1.492 . S
C569 H534 0.931 . S
C569 C547 1.420 . S
C569 C570 1.351 . S
C570 H532 0.930 . S
C570 C538 1.423 . S
C570 C569 1.351 . S
C571 O555 1.276 . S
C571 O558 1.235 . S
C572 C573 1.393 . S
C572 C576 1.395 . S
C572 C579 1.492 . S
C573 C572 1.393 . S
C573 C574 1.392 . S
C573 H584 0.930 . S
C574 C573 1.392 . S
C574 C575 1.386 . S
C575 C574 1.386 . S
C575 C577 1.395 . S
C575 H585 0.930 . S
C576 C572 1.395 . S
C576 C577 1.379 . S
C576 H586 0.930 . S
C577 C575 1.395 . S
C577 C576 1.379 . S
C577 H587 0.930 . S
C578 O556 1.264 . S
C578 O557 1.254 . S
C579 Eu515 2.848 . S
C579 O554 1.257 . S
C579 O559 1.249 . S
C579 C572 1.492 . S
H580 C563 0.930 . S
H581 C564 0.930 . S
H582 C565 0.930 . S
H583 C566 0.930 . S
H584 C573 0.930 . S
H585 C575 0.930 . S
H586 C576 0.930 . S
H587 C577 0.930 . S
Eu588 N619 2.657 1_556 S
Eu588 N626 2.609 1_556 S
Eu588 O632 2.558 1_556 S
Eu588 O633 2.612 . S
Eu588 O635 2.323 1_556 S
Eu588 O636 2.563 . S
Eu588 O637 2.419 1_556 S
Eu588 O639 2.380 . S
Eu588 O640 2.432 . S
Eu588 C652 2.848 1_556 S
C589 C592 1.429 . S
C589 C593 1.411 . S
C589 N596 1.377 . S
C590 C592 1.420 . S
C590 C594 1.423 . S
C590 C602 1.392 . S
C591 C593 1.420 . S
C591 C594 1.351 . S
C591 H614 0.931 . S
C592 C589 1.429 . S
C592 C590 1.420 . S
C592 N600 1.362 . S
C593 C589 1.411 . S
C593 C591 1.420 . S
C593 C598 1.395 . S
C594 C590 1.423 . S
C594 C591 1.351 . S
C594 H606 0.930 . S
C595 C597 1.400 . S
C595 C598 1.386 . S
C595 H607 0.930 . S
N596 C589 1.377 . S
N596 C597 1.321 . S
N596 Eu599 2.609 . S
C597 C595 1.400 . S
C597 N596 1.321 . S
C597 H604 0.930 . S
C598 C593 1.395 . S
C598 C595 1.386 . S
C598 H617 0.930 . S
Eu599 N596 2.609 . S
Eu599 N600 2.657 . S
Eu599 O633 2.380 . S
Eu599 O634 2.432 . S
Eu599 O638 2.558 . S
Eu599 O639 2.612 . S
Eu599 O641 2.339 . S
Eu599 O642 2.563 . S
Eu599 O643 2.419 . S
Eu599 C663 2.848 . S
N600 C592 1.362 . S
N600 Eu599 2.657 . S
N600 C601 1.334 . S
C601 N600 1.334 . S
C601 C603 1.413 . S
C601 H608 0.929 . S
C602 C590 1.392 . S
C602 C603 1.367 . S
C602 H610 0.930 . S
C603 C601 1.413 . S
C603 C602 1.367 . S
C603 H605 0.930 . S
H604 C597 0.930 . S
H605 C603 0.930 . S
H606 C594 0.930 . S
H607 C595 0.930 . S
H608 C601 0.929 . S
H609 C623 0.930 . S
H610 C602 0.930 . S
H611 C629 0.930 . S
H612 C620 0.929 . S
H613 C627 0.921 1_556 S
H614 C591 0.931 . S
H615 C621 0.930 . S
H616 C654 0.930 . S
H617 C598 0.930 . S
H618 C653 0.931 . S
N619 Eu588 2.657 1_554 S
N619 C620 1.334 . S
N619 C624 1.362 . S
C620 H612 0.929 . S
C620 N619 1.334 . S
C620 C623 1.413 . S
C621 H615 0.930 . S
C621 C622 1.392 . S
C621 C623 1.367 . S
C622 C621 1.392 . S
C622 C624 1.420 . S
C622 C654 1.423 . S
C623 H609 0.930 . S
C623 C620 1.413 . S
C623 C621 1.367 . S
C624 N619 1.362 . S
C624 C622 1.420 . S
C624 C628 1.429 . S
H625 C630 0.930 . S
N626 Eu588 2.609 1_554 S
N626 C628 1.377 . S
N626 C629 1.321 1_554 S
C627 H613 0.921 1_554 S
C627 C629 1.394 1_554 S
C627 C630 1.401 . S
C628 C624 1.429 . S
C628 N626 1.377 . S
C628 C631 1.411 . S
C629 H611 0.930 . S
C629 N626 1.321 1_556 S
C629 C627 1.394 1_556 S
C630 H625 0.930 . S
C630 C627 1.401 . S
C630 C631 1.395 . S
C631 C628 1.411 . S
C631 C630 1.395 . S
C631 C653 1.420 . S
O632 Eu588 2.558 1_554 S
O632 C652 1.257 . S
O633 Eu588 2.612 . S
O633 Eu599 2.380 . S
O633 C644 1.276 . S
O634 Eu599 2.432 . S
O634 C651 1.264 . S
O635 Eu588 2.323 1_554 S
O635 C651 1.235 1_554 S
O636 Eu588 2.563 . S
O636 C644 1.235 . S
O637 Eu588 2.419 1_554 S
O637 C652 1.249 . S
O638 Eu599 2.558 . S
O638 C663 1.257 . S
O639 Eu588 2.380 . S
O639 Eu599 2.612 . S
O639 C655 1.276 . S
O640 Eu588 2.432 . S
O640 C662 1.264 . S
O641 Eu599 2.339 . S
O641 C662 1.254 . S
O642 Eu599 2.563 . S
O642 C655 1.235 . S
O643 Eu599 2.419 . S
O643 C663 1.249 . S
C644 O633 1.276 . S
C644 O636 1.235 . S
C645 C647 1.393 . S
C645 C649 1.395 . S
C645 C652 1.492 . S
C646 C647 1.392 . S
C646 C648 1.386 . S
C647 C645 1.393 . S
C647 C646 1.392 . S
C647 H664 0.930 . S
C648 C646 1.386 . S
C648 C650 1.395 . S
C648 H665 0.930 . S
C649 C645 1.395 . S
C649 C650 1.379 . S
C649 H666 0.930 . S
C650 C648 1.395 . S
C650 C649 1.379 . S
C650 H667 0.930 . S
C651 O634 1.264 . S
C651 O635 1.235 1_556 S
C652 Eu588 2.848 1_554 S
C652 O632 1.257 . S
C652 O637 1.249 . S
C652 C645 1.492 . S
C653 H618 0.931 . S
C653 C631 1.420 . S
C653 C654 1.351 . S
C654 H616 0.930 . S
C654 C622 1.423 . S
C654 C653 1.351 . S
C655 O639 1.276 . S
C655 O642 1.235 . S
C656 C657 1.393 . S
C656 C660 1.395 . S
C656 C663 1.492 . S
C657 C656 1.393 . S
C657 C658 1.392 . S
C657 H668 0.930 . S
C658 C657 1.392 . S
C658 C659 1.386 . S
C659 C658 1.386 . S
C659 C661 1.395 . S
C659 H669 0.930 . S
C660 C656 1.395 . S
C660 C661 1.379 . S
C660 H670 0.930 . S
C661 C659 1.395 . S
C661 C660 1.379 . S
C661 H671 0.930 . S
C662 O640 1.264 . S
C662 O641 1.254 . S
C663 Eu599 2.848 . S
C663 O638 1.257 . S
C663 O643 1.249 . S
C663 C656 1.492 . S
H664 C647 0.930 . S
H665 C648 0.930 . S
H666 C649 0.930 . S
H667 C650 0.930 . S
H668 C657 0.930 . S
H669 C659 0.930 . S
H670 C660 0.930 . S
H671 C661 0.930 . S
Eu672 N703 2.657 1_545 S
Eu672 N710 2.609 1_545 S
Eu672 O716 2.545 1_545 S
Eu672 O717 2.612 . S
Eu672 O719 2.332 1_545 S
Eu672 O720 2.563 . S
Eu672 O721 2.419 1_545 S
Eu672 O723 2.380 . S
Eu672 O724 2.432 . S
Eu672 C736 2.848 1_545 S
C673 C676 1.429 . S
C673 C677 1.411 . S
C673 N680 1.377 . S
C674 C676 1.420 . S
C674 C678 1.423 . S
C674 C686 1.392 . S
C675 C677 1.420 . S
C675 C678 1.351 . S
C675 H698 0.931 . S
C676 C673 1.429 . S
C676 C674 1.420 . S
C676 N684 1.362 . S
C677 C673 1.411 . S
C677 C675 1.420 . S
C677 C682 1.395 . S
C678 C674 1.423 . S
C678 C675 1.351 . S
C678 H690 0.930 . S
C679 C681 1.400 . S
C679 C682 1.386 . S
C679 H691 0.930 . S
N680 C673 1.377 . S
N680 C681 1.321 . S
N680 Eu683 2.609 . S
C681 C679 1.400 . S
C681 N680 1.321 . S
C681 H688 0.930 . S
C682 C677 1.395 . S
C682 C679 1.386 . S
C682 H701 0.930 . S
Eu683 N680 2.609 . S
Eu683 N684 2.657 . S
Eu683 O717 2.380 . S
Eu683 O718 2.432 . S
Eu683 O722 2.558 . S
Eu683 O723 2.612 . S
Eu683 O725 2.339 . S
Eu683 O726 2.563 . S
Eu683 O727 2.419 . S
Eu683 C747 2.848 . S
N684 C676 1.362 . S
N684 Eu683 2.657 . S
N684 C685 1.334 . S
C685 N684 1.334 . S
C685 C687 1.413 . S
C685 H692 0.929 . S
C686 C674 1.392 . S
C686 C687 1.367 . S
C686 H694 0.930 . S
C687 C685 1.413 . S
C687 C686 1.367 . S
C687 H689 0.930 . S
H688 C681 0.930 . S
H689 C687 0.930 . S
H690 C678 0.930 . S
H691 C679 0.930 . S
H692 C685 0.929 . S
H693 C707 0.930 . S
H694 C686 0.930 . S
H695 C713 0.930 . S
H696 C704 0.929 . S
H697 C711 0.927 1_545 S
H698 C675 0.931 . S
H699 C705 0.930 . S
H700 C738 0.930 . S
H701 C682 0.930 . S
H702 C737 0.931 . S
N703 Eu672 2.657 1_565 S
N703 C704 1.334 . S
N703 C708 1.362 . S
C704 H696 0.929 . S
C704 N703 1.334 . S
C704 C707 1.413 . S
C705 H699 0.930 . S
C705 C706 1.392 . S
C705 C707 1.367 . S
C706 C705 1.392 . S
C706 C708 1.420 . S
C706 C738 1.423 . S
C707 H693 0.930 . S
C707 C704 1.413 . S
C707 C705 1.367 . S
C708 N703 1.362 . S
C708 C706 1.420 . S
C708 C712 1.429 . S
H709 C714 0.930 . S
N710 Eu672 2.609 1_565 S
N710 C712 1.377 . S
N710 C713 1.321 1_565 S
C711 H697 0.927 1_565 S
C711 C713 1.397 1_565 S
C711 C714 1.391 . S
C712 C708 1.429 . S
C712 N710 1.377 . S
C712 C715 1.411 . S
C713 H695 0.930 . S
C713 N710 1.321 1_545 S
C713 C711 1.397 1_545 S
C714 H709 0.930 . S
C714 C711 1.391 . S
C714 C715 1.395 . S
C715 C712 1.411 . S
C715 C714 1.395 . S
C715 C737 1.420 . S
O716 Eu672 2.545 1_565 S
O716 C736 1.296 . S
O717 Eu672 2.612 . S
O717 Eu683 2.380 . S
O717 C728 1.276 . S
O718 Eu683 2.432 . S
O718 C735 1.264 . S
O719 Eu672 2.332 1_565 S
O719 C735 1.246 1_565 S
O720 Eu672 2.563 . S
O720 C728 1.235 . S
O721 Eu672 2.419 1_565 S
O721 C736 1.249 . S
O722 Eu683 2.558 . S
O722 C747 1.257 . S
O723 Eu672 2.380 . S
O723 Eu683 2.612 . S
O723 C739 1.276 . S
O724 Eu672 2.432 . S
O724 C746 1.264 . S
O725 Eu683 2.339 . S
O725 C746 1.254 . S
O726 Eu683 2.563 . S
O726 C739 1.235 . S
O727 Eu683 2.419 . S
O727 C747 1.249 . S
C728 O717 1.276 . S
C728 O720 1.235 . S
C729 C731 1.393 . S
C729 C733 1.395 . S
C729 C736 1.492 . S
C730 C731 1.392 . S
C730 C732 1.386 . S
C731 C729 1.393 . S
C731 C730 1.392 . S
C731 H748 0.930 . S
C732 C730 1.386 . S
C732 C734 1.395 . S
C732 H749 0.930 . S
C733 C729 1.395 . S
C733 C734 1.379 . S
C733 H750 0.930 . S
C734 C732 1.395 . S
C734 C733 1.379 . S
C734 H751 0.930 . S
C735 O718 1.264 . S
C735 O719 1.246 1_545 S
C736 Eu672 2.848 1_565 S
C736 O716 1.296 . S
C736 O721 1.249 . S
C736 C729 1.492 . S
C737 H702 0.931 . S
C737 C715 1.420 . S
C737 C738 1.351 . S
C738 H700 0.930 . S
C738 C706 1.423 . S
C738 C737 1.351 . S
C739 O723 1.276 . S
C739 O726 1.235 . S
C740 C741 1.393 . S
C740 C744 1.395 . S
C740 C747 1.492 . S
C741 C740 1.393 . S
C741 C742 1.392 . S
C741 H752 0.930 . S
C742 C741 1.392 . S
C742 C743 1.386 . S
C743 C742 1.386 . S
C743 C745 1.395 . S
C743 H753 0.930 . S
C744 C740 1.395 . S
C744 C745 1.379 . S
C744 H754 0.930 . S
C745 C743 1.395 . S
C745 C744 1.379 . S
C745 H755 0.930 . S
C746 O724 1.264 . S
C746 O725 1.254 . S
C747 Eu683 2.848 . S
C747 O722 1.257 . S
C747 O727 1.249 . S
C747 C740 1.492 . S
H748 C731 0.930 . S
H749 C732 0.930 . S
H750 C733 0.930 . S
H751 C734 0.930 . S
H752 C741 0.930 . S
H753 C743 0.930 . S
H754 C744 0.930 . S
H755 C745 0.930 . S
Eu756 N787 2.657 . S
Eu756 N794 2.609 . S
Eu756 O800 2.558 . S
Eu756 O801 2.612 . S
Eu756 O803 2.339 . S
Eu756 O804 2.563 . S
Eu756 O805 2.419 . S
Eu756 O807 2.380 . S
Eu756 O808 2.432 . S
Eu756 C820 2.848 . S
C757 C760 1.429 . S
C757 C761 1.409 1_545 S
C757 N764 1.377 1_545 S
C758 C760 1.420 . S
C758 C762 1.423 . S
C758 C770 1.392 . S
C759 C761 1.416 1_545 S
C759 C762 1.351 . S
C759 H782 0.931 . S
C760 C757 1.429 . S
C760 C758 1.420 . S
C760 N768 1.362 . S
C761 C757 1.409 1_565 S
C761 C759 1.416 1_565 S
C761 C766 1.401 . S
C762 C758 1.423 . S
C762 C759 1.351 . S
C762 H774 0.930 . S
C763 C765 1.400 . S
C763 C766 1.386 . S
C763 H775 0.930 . S
N764 C757 1.377 1_565 S
N764 C765 1.321 . S
N764 Eu767 2.609 1_565 S
C765 C763 1.400 . S
C765 N764 1.321 . S
C765 H772 0.930 . S
C766 C761 1.401 . S
C766 C763 1.386 . S
C766 H785 0.930 . S
Eu767 N764 2.609 1_545 S
Eu767 N768 2.657 . S
Eu767 O801 2.380 . S
Eu767 O802 2.432 . S
Eu767 O806 2.558 1_545 S
Eu767 O807 2.612 . S
Eu767 O809 2.339 . S
Eu767 O810 2.563 1_545 S
Eu767 O811 2.419 1_545 S
Eu767 C831 2.848 1_545 S
N768 C760 1.362 . S
N768 Eu767 2.657 . S
N768 C769 1.334 . S
C769 N768 1.334 . S
C769 C771 1.413 . S
C769 H776 0.929 . S
C770 C758 1.392 . S
C770 C771 1.367 . S
C770 H778 0.930 . S
C771 C769 1.413 . S
C771 C770 1.367 . S
C771 H773 0.930 . S
H772 C765 0.930 . S
H773 C771 0.930 . S
H774 C762 0.930 . S
H775 C763 0.930 . S
H776 C769 0.929 . S
H777 C791 0.930 1_565 S
H778 C770 0.930 . S
H779 C797 0.930 . S
H780 C788 0.929 . S
H781 C795 0.930 . S
H782 C759 0.931 . S
H783 C789 0.930 . S
H784 C822 0.930 . S
H785 C766 0.930 . S
H786 C821 0.931 . S
N787 Eu756 2.657 . S
N787 C788 1.334 . S
N787 C792 1.362 . S
C788 H780 0.929 . S
C788 N787 1.334 . S
C788 C791 1.413 . S
C789 H783 0.930 . S
C789 C790 1.392 . S
C789 C791 1.367 . S
C790 C789 1.392 . S
C790 C792 1.420 . S
C790 C822 1.423 . S
C791 H777 0.930 1_545 S
C791 C788 1.413 . S
C791 C789 1.367 . S
C792 N787 1.362 . S
C792 C790 1.420 . S
C792 C796 1.429 . S
H793 C798 0.930 . S
N794 Eu756 2.609 . S
N794 C796 1.377 . S
N794 C797 1.321 . S
C795 H781 0.930 . S
C795 C797 1.400 . S
C795 C798 1.386 . S
C796 C792 1.429 . S
C796 N794 1.377 . S
C796 C799 1.411 . S
C797 H779 0.930 . S
C797 N794 1.321 . S
C797 C795 1.400 . S
C798 H793 0.930 . S
C798 C795 1.386 . S
C798 C799 1.395 . S
C799 C796 1.411 . S
C799 C798 1.395 . S
C799 C821 1.420 . S
O800 Eu756 2.558 . S
O800 C820 1.257 . S
O801 Eu756 2.612 . S
O801 Eu767 2.380 . S
O801 C812 1.276 . S
O802 Eu767 2.432 . S
O802 C819 1.264 . S
O803 Eu756 2.339 . S
O803 C819 1.254 . S
O804 Eu756 2.563 . S
O804 C812 1.235 . S
O805 Eu756 2.419 . S
O805 C820 1.249 . S
O806 Eu767 2.558 1_565 S
O806 C831 1.257 . S
O807 Eu756 2.380 . S
O807 Eu767 2.612 . S
O807 C823 1.276 . S
O808 Eu756 2.432 . S
O808 C830 1.264 . S
O809 Eu767 2.339 . S
O809 C830 1.254 . S
O810 Eu767 2.563 1_565 S
O810 C823 1.235 1_565 S
O811 Eu767 2.419 1_565 S
O811 C831 1.249 . S
C812 O801 1.276 . S
C812 O804 1.235 . S
C813 C815 1.393 . S
C813 C817 1.395 . S
C813 C820 1.492 . S
C814 C815 1.392 . S
C814 C816 1.386 . S
C815 C813 1.393 . S
C815 C814 1.392 . S
C815 H832 0.930 . S
C816 C814 1.386 . S
C816 C818 1.395 . S
C816 H833 0.930 . S
C817 C813 1.395 . S
C817 C818 1.379 . S
C817 H834 0.930 . S
C818 C816 1.395 . S
C818 C817 1.379 . S
C818 H835 0.930 . S
C819 O802 1.264 . S
C819 O803 1.254 . S
C820 Eu756 2.848 . S
C820 O800 1.257 . S
C820 O805 1.249 . S
C820 C813 1.492 . S
C821 H786 0.931 . S
C821 C799 1.420 . S
C821 C822 1.351 . S
C822 H784 0.930 . S
C822 C790 1.423 . S
C822 C821 1.351 . S
C823 O807 1.276 . S
C823 O810 1.235 1_545 S
C824 C825 1.393 . S
C824 C828 1.395 . S
C824 C831 1.492 . S
C825 C824 1.393 . S
C825 C826 1.392 . S
C825 H836 0.930 . S
C826 C825 1.392 . S
C826 C827 1.386 . S
C827 C826 1.386 . S
C827 C829 1.395 . S
C827 H837 0.930 . S
C828 C824 1.395 . S
C828 C829 1.379 . S
C828 H838 0.930 . S
C829 C827 1.395 . S
C829 C828 1.379 . S
C829 H839 0.930 . S
C830 O808 1.264 . S
C830 O809 1.254 . S
C831 Eu767 2.848 1_565 S
C831 O806 1.257 . S
C831 O811 1.249 . S
C831 C824 1.492 . S
H832 C815 0.930 . S
H833 C816 0.930 . S
H834 C817 0.930 . S
H835 C818 0.930 . S
H836 C825 0.930 . S
H837 C827 0.930 . S
H838 C828 0.930 . S
H839 C829 0.930 . S
Eu840 N871 2.657 1_565 S
Eu840 N878 2.609 1_565 S
Eu840 O884 2.558 1_565 S
Eu840 O885 2.612 . S
Eu840 O887 2.324 1_565 S
Eu840 O888 2.563 . S
Eu840 O889 2.419 1_565 S
Eu840 O891 2.380 . S
Eu840 O892 2.432 . S
Eu840 C904 2.848 1_565 S
C841 C844 1.429 . S
C841 C845 1.411 . S
C841 N848 1.377 . S
C842 C844 1.420 . S
C842 C846 1.423 . S
C842 C854 1.392 . S
C843 C845 1.420 . S
C843 C846 1.351 . S
C843 H866 0.931 . S
C844 C841 1.429 . S
C844 C842 1.420 . S
C844 N852 1.362 . S
C845 C841 1.411 . S
C845 C843 1.420 . S
C845 C850 1.395 . S
C846 C842 1.423 . S
C846 C843 1.351 . S
C846 H858 0.930 . S
C847 C849 1.400 . S
C847 C850 1.386 . S
C847 H859 0.930 . S
N848 C841 1.377 . S
N848 C849 1.321 . S
N848 Eu851 2.609 . S
C849 C847 1.400 . S
C849 N848 1.321 . S
C849 H856 0.930 . S
C850 C845 1.395 . S
C850 C847 1.386 . S
C850 H869 0.930 . S
Eu851 N848 2.609 . S
Eu851 N852 2.657 . S
Eu851 O885 2.380 . S
Eu851 O886 2.432 . S
Eu851 O890 2.558 . S
Eu851 O891 2.612 . S
Eu851 O893 2.339 . S
Eu851 O894 2.563 . S
Eu851 O895 2.419 . S
Eu851 C915 2.848 . S
N852 C844 1.362 . S
N852 Eu851 2.657 . S
N852 C853 1.334 . S
C853 N852 1.334 . S
C853 C855 1.413 . S
C853 H860 0.929 . S
C854 C842 1.392 . S
C854 C855 1.367 . S
C854 H862 0.930 . S
C855 C853 1.413 . S
C855 C854 1.367 . S
C855 H857 0.930 . S
H856 C849 0.930 . S
H857 C855 0.930 . S
H858 C846 0.930 . S
H859 C847 0.930 . S
H860 C853 0.929 . S
H861 C875 0.930 . S
H862 C854 0.930 . S
H863 C881 0.930 . S
H864 C872 0.929 . S
H865 C879 0.924 1_565 S
H866 C843 0.931 . S
H867 C873 0.930 . S
H868 C906 0.930 . S
H869 C850 0.930 . S
H870 C905 0.931 . S
N871 Eu840 2.657 1_545 S
N871 C872 1.334 . S
N871 C876 1.362 . S
C872 H864 0.929 . S
C872 N871 1.334 . S
C872 C875 1.413 . S
C873 H867 0.930 . S
C873 C874 1.392 . S
C873 C875 1.367 . S
C874 C873 1.392 . S
C874 C876 1.420 . S
C874 C906 1.423 . S
C875 H861 0.930 . S
C875 C872 1.413 . S
C875 C873 1.367 . S
C876 N871 1.362 . S
C876 C874 1.420 . S
C876 C880 1.429 . S
H877 C882 0.930 . S
N878 Eu840 2.609 1_545 S
N878 C880 1.377 . S
N878 C881 1.321 1_545 S
C879 H865 0.924 1_545 S
C879 C881 1.396 1_545 S
C879 C882 1.396 . S
C880 C876 1.429 . S
C880 N878 1.377 . S
C880 C883 1.411 . S
C881 H863 0.930 . S
C881 N878 1.321 1_565 S
C881 C879 1.396 1_565 S
C882 H877 0.930 . S
C882 C879 1.396 . S
C882 C883 1.395 . S
C883 C880 1.411 . S
C883 C882 1.395 . S
C883 C905 1.420 . S
O884 Eu840 2.558 1_545 S
O884 C904 1.257 . S
O885 Eu840 2.612 . S
O885 Eu851 2.380 . S
O885 C896 1.276 . S
O886 Eu851 2.432 . S
O886 C903 1.264 . S
O887 Eu840 2.324 1_545 S
O887 C903 1.236 1_545 S
O888 Eu840 2.563 . S
O888 C896 1.235 . S
O889 Eu840 2.419 1_545 S
O889 C904 1.249 . S
O890 Eu851 2.558 . S
O890 C915 1.257 . S
O891 Eu840 2.380 . S
O891 Eu851 2.612 . S
O891 C907 1.276 . S
O892 Eu840 2.432 . S
O892 C914 1.264 . S
O893 Eu851 2.339 . S
O893 C914 1.254 . S
O894 Eu851 2.563 . S
O894 C907 1.235 . S
O895 Eu851 2.419 . S
O895 C915 1.249 . S
C896 O885 1.276 . S
C896 O888 1.235 . S
C897 C899 1.393 . S
C897 C901 1.395 . S
C897 C904 1.492 . S
C898 C899 1.392 . S
C898 C900 1.386 . S
C899 C897 1.393 . S
C899 C898 1.392 . S
C899 H916 0.930 . S
C900 C898 1.386 . S
C900 C902 1.395 . S
C900 H917 0.930 . S
C901 C897 1.395 . S
C901 C902 1.379 . S
C901 H918 0.930 . S
C902 C900 1.395 . S
C902 C901 1.379 . S
C902 H919 0.930 . S
C903 O886 1.264 . S
C903 O887 1.236 1_565 S
C904 Eu840 2.848 1_545 S
C904 O884 1.257 . S
C904 O889 1.249 . S
C904 C897 1.492 . S
C905 H870 0.931 . S
C905 C883 1.420 . S
C905 C906 1.351 . S
C906 H868 0.930 . S
C906 C874 1.423 . S
C906 C905 1.351 . S
C907 O891 1.276 . S
C907 O894 1.235 . S
C908 C909 1.393 . S
C908 C912 1.395 . S
C908 C915 1.492 . S
C909 C908 1.393 . S
C909 C910 1.392 . S
C909 H920 0.930 . S
C910 C909 1.392 . S
C910 C911 1.386 . S
C911 C910 1.386 . S
C911 C913 1.395 . S
C911 H921 0.930 . S
C912 C908 1.395 . S
C912 C913 1.379 . S
C912 H922 0.930 . S
C913 C911 1.395 . S
C913 C912 1.379 . S
C913 H923 0.930 . S
C914 O892 1.264 . S
C914 O893 1.254 . S
C915 Eu851 2.848 . S
C915 O890 1.257 . S
C915 O895 1.249 . S
C915 C908 1.492 . S
H916 C899 0.930 . S
H917 C900 0.930 . S
H918 C901 0.930 . S
H919 C902 0.930 . S
H920 C909 0.930 . S
H921 C911 0.930 . S
H922 C912 0.930 . S
H923 C913 0.930 . S
Eu924 N955 2.657 . S
Eu924 N962 2.609 . S
Eu924 O968 2.558 . S
Eu924 O969 2.612 . S
Eu924 O971 2.339 . S
Eu924 O972 2.563 . S
Eu924 O973 2.419 . S
Eu924 O975 2.380 . S
Eu924 O976 2.432 . S
Eu924 C988 2.848 . S
C925 C928 1.429 . S
C925 C929 1.404 1_565 S
C925 N932 1.377 1_565 S
C926 C928 1.420 . S
C926 C930 1.423 . S
C926 C938 1.392 . S
C927 C929 1.408 1_565 S
C927 C930 1.351 . S
C927 H950 0.931 . S
C928 C925 1.429 . S
C928 C926 1.420 . S
C928 N936 1.362 . S
C929 C925 1.404 1_545 S
C929 C927 1.408 1_545 S
C929 C934 1.414 . S
C930 C926 1.423 . S
C930 C927 1.351 . S
C930 H942 0.930 . S
C931 C933 1.400 . S
C931 C934 1.386 . S
C931 H943 0.930 . S
N932 C925 1.377 1_545 S
N932 C933 1.321 . S
N932 Eu935 2.609 1_545 S
C933 C931 1.400 . S
C933 N932 1.321 . S
C933 H940 0.930 . S
C934 C929 1.414 . S
C934 C931 1.386 . S
C934 H953 0.930 . S
Eu935 N932 2.609 1_565 S
Eu935 N936 2.657 . S
Eu935 O969 2.380 . S
Eu935 O970 2.432 . S
Eu935 O974 2.558 1_565 S
Eu935 O975 2.612 . S
Eu935 O977 2.339 . S
Eu935 O978 2.563 1_565 S
Eu935 O979 2.419 1_565 S
Eu935 C999 2.848 1_565 S
N936 C928 1.362 . S
N936 Eu935 2.657 . S
N936 C937 1.334 . S
C937 N936 1.334 . S
C937 C939 1.413 . S
C937 H944 0.929 . S
C938 C926 1.392 . S
C938 C939 1.367 . S
C938 H946 0.930 . S
C939 C937 1.413 . S
C939 C938 1.367 . S
C939 H941 0.930 . S
H940 C933 0.930 . S
H941 C939 0.930 . S
H942 C930 0.930 . S
H943 C931 0.930 . S
H944 C937 0.929 . S
H945 C959 0.930 1_545 S
H946 C938 0.930 . S
H947 C965 0.930 . S
H948 C956 0.929 . S
H949 C963 0.930 . S
H950 C927 0.931 . S
H951 C957 0.930 . S
H952 C990 0.930 . S
H953 C934 0.930 . S
H954 C989 0.931 . S
N955 Eu924 2.657 . S
N955 C956 1.334 . S
N955 C960 1.362 . S
C956 H948 0.929 . S
C956 N955 1.334 . S
C956 C959 1.413 . S
C957 H951 0.930 . S
C957 C958 1.392 . S
C957 C959 1.367 . S
C958 C957 1.392 . S
C958 C960 1.420 . S
C958 C990 1.423 . S
C959 H945 0.930 1_565 S
C959 C956 1.413 . S
C959 C957 1.367 . S
C960 N955 1.362 . S
C960 C958 1.420 . S
C960 C964 1.429 . S
H961 C966 0.930 . S
N962 Eu924 2.609 . S
N962 C964 1.377 . S
N962 C965 1.321 . S
C963 H949 0.930 . S
C963 C965 1.400 . S
C963 C966 1.386 . S
C964 C960 1.429 . S
C964 N962 1.377 . S
C964 C967 1.411 . S
C965 H947 0.930 . S
C965 N962 1.321 . S
C965 C963 1.400 . S
C966 H961 0.930 . S
C966 C963 1.386 . S
C966 C967 1.395 . S
C967 C964 1.411 . S
C967 C966 1.395 . S
C967 C989 1.420 . S
O968 Eu924 2.558 . S
O968 C988 1.257 . S
O969 Eu924 2.612 . S
O969 Eu935 2.380 . S
O969 C980 1.276 . S
O970 Eu935 2.432 . S
O970 C987 1.264 . S
O971 Eu924 2.339 . S
O971 C987 1.254 . S
O972 Eu924 2.563 . S
O972 C980 1.235 . S
O973 Eu924 2.419 . S
O973 C988 1.249 . S
O974 Eu935 2.558 1_545 S
O974 C999 1.257 . S
O975 Eu924 2.380 . S
O975 Eu935 2.612 . S
O975 C991 1.276 . S
O976 Eu924 2.432 . S
O976 C998 1.264 . S
O977 Eu935 2.339 . S
O977 C998 1.254 . S
O978 Eu935 2.563 1_545 S
O978 C991 1.235 1_545 S
O979 Eu935 2.419 1_545 S
O979 C999 1.249 . S
C980 O969 1.276 . S
C980 O972 1.235 . S
C981 C983 1.393 . S
C981 C985 1.395 . S
C981 C988 1.492 . S
C982 C983 1.392 . S
C982 C984 1.386 . S
C983 C981 1.393 . S
C983 C982 1.392 . S
C983 H1000 0.930 . S
C984 C982 1.386 . S
C984 C986 1.395 . S
C984 H1001 0.930 . S
C985 C981 1.395 . S
C985 C986 1.379 . S
C985 H1002 0.930 . S
C986 C984 1.395 . S
C986 C985 1.379 . S
C986 H1003 0.930 . S
C987 O970 1.264 . S
C987 O971 1.254 . S
C988 Eu924 2.848 . S
C988 O968 1.257 . S
C988 O973 1.249 . S
C988 C981 1.492 . S
C989 H954 0.931 . S
C989 C967 1.420 . S
C989 C990 1.351 . S
C990 H952 0.930 . S
C990 C958 1.423 . S
C990 C989 1.351 . S
C991 O975 1.276 . S
C991 O978 1.235 1_565 S
C992 C993 1.393 . S
C992 C996 1.395 . S
C992 C999 1.492 . S
C993 C992 1.393 . S
C993 C994 1.392 . S
C993 H1004 0.930 . S
C994 C993 1.392 . S
C994 C995 1.386 . S
C995 C994 1.386 . S
C995 C997 1.395 . S
C995 H1005 0.930 . S
C996 C992 1.395 . S
C996 C997 1.379 . S
C996 H1006 0.930 . S
C997 C995 1.395 . S
C997 C996 1.379 . S
C997 H1007 0.930 . S
C998 O976 1.264 . S
C998 O977 1.254 . S
C999 Eu935 2.848 1_545 S
C999 O974 1.257 . S
C999 O979 1.249 . S
C999 C992 1.492 . S
H1000 C983 0.930 . S
H1001 C984 0.930 . S
H1002 C985 0.930 . S
H1003 C986 0.930 . S
H1004 C993 0.930 . S
H1005 C995 0.930 . S
H1006 C996 0.930 . S
H1007 C997 0.930 . S
Eu1008 N1039 2.657 . S
Eu1008 N1046 2.609 . S
Eu1008 O1052 2.558 . S
Eu1008 O1053 2.612 . S
Eu1008 O1055 2.339 . S
Eu1008 O1056 2.563 . S
Eu1008 O1057 2.419 . S
Eu1008 O1059 2.380 . S
Eu1008 O1060 2.432 . S
Eu1008 C1072 2.848 . S
C1009 C1012 1.429 . S
C1009 C1013 1.405 1_554 S
C1009 N1016 1.377 1_554 S
C1010 C1012 1.420 . S
C1010 C1014 1.423 . S
C1010 C1022 1.392 . S
C1011 C1013 1.411 1_554 S
C1011 C1014 1.351 . S
C1011 H1034 0.931 . S
C1012 C1009 1.429 . S
C1012 C1010 1.420 . S
C1012 N1020 1.362 . S
C1013 C1009 1.405 1_556 S
C1013 C1011 1.411 1_556 S
C1013 C1018 1.409 . S
C1014 C1010 1.423 . S
C1014 C1011 1.351 . S
C1014 H1026 0.930 . S
C1015 C1017 1.400 . S
C1015 C1018 1.386 . S
C1015 H1027 0.930 . S
N1016 C1009 1.377 1_556 S
N1016 C1017 1.321 . S
N1016 Eu1019 2.609 1_556 S
C1017 C1015 1.400 . S
C1017 N1016 1.321 . S
C1017 H1024 0.930 . S
C1018 C1013 1.409 . S
C1018 C1015 1.386 . S
C1018 H1037 0.930 . S
Eu1019 N1016 2.609 1_554 S
Eu1019 N1020 2.657 . S
Eu1019 O1053 2.380 . S
Eu1019 O1054 2.432 . S
Eu1019 O1058 2.558 1_554 S
Eu1019 O1059 2.612 . S
Eu1019 O1061 2.339 . S
Eu1019 O1062 2.563 1_554 S
Eu1019 O1063 2.419 1_554 S
Eu1019 C1083 2.848 1_554 S
N1020 C1012 1.362 . S
N1020 Eu1019 2.657 . S
N1020 C1021 1.334 . S
C1021 N1020 1.334 . S
C1021 C1023 1.413 . S
C1021 H1028 0.929 . S
C1022 C1010 1.392 . S
C1022 C1023 1.367 . S
C1022 H1030 0.930 . S
C1023 C1021 1.413 . S
C1023 C1022 1.367 . S
C1023 H1025 0.930 . S
H1024 C1017 0.930 . S
H1025 C1023 0.930 . S
H1026 C1014 0.930 . S
H1027 C1015 0.930 . S
H1028 C1021 0.929 . S
H1029 C1043 0.930 1_556 S
H1030 C1022 0.930 . S
H1031 C1049 0.930 . S
H1032 C1040 0.929 . S
H1033 C1047 0.930 . S
H1034 C1011 0.931 . S
H1035 C1041 0.930 . S
H1036 C1074 0.930 . S
H1037 C1018 0.930 . S
H1038 C1073 0.931 . S
N1039 Eu1008 2.657 . S
N1039 C1040 1.334 . S
N1039 C1044 1.362 . S
C1040 H1032 0.929 . S
C1040 N1039 1.334 . S
C1040 C1043 1.413 . S
C1041 H1035 0.930 . S
C1041 C1042 1.392 . S
C1041 C1043 1.367 . S
C1042 C1041 1.392 . S
C1042 C1044 1.420 . S
C1042 C1074 1.423 . S
C1043 H1029 0.930 1_554 S
C1043 C1040 1.413 . S
C1043 C1041 1.367 . S
C1044 N1039 1.362 . S
C1044 C1042 1.420 . S
C1044 C1048 1.429 . S
H1045 C1050 0.930 . S
N1046 Eu1008 2.609 . S
N1046 C1048 1.377 . S
N1046 C1049 1.321 . S
C1047 H1033 0.930 . S
C1047 C1049 1.400 . S
C1047 C1050 1.386 . S
C1048 C1044 1.429 . S
C1048 N1046 1.377 . S
C1048 C1051 1.411 . S
C1049 H1031 0.930 . S
C1049 N1046 1.321 . S
C1049 C1047 1.400 . S
C1050 H1045 0.930 . S
C1050 C1047 1.386 . S
C1050 C1051 1.395 . S
C1051 C1048 1.411 . S
C1051 C1050 1.395 . S
C1051 C1073 1.420 . S
O1052 Eu1008 2.558 . S
O1052 C1072 1.257 . S
O1053 Eu1008 2.612 . S
O1053 Eu1019 2.380 . S
O1053 C1064 1.276 . S
O1054 Eu1019 2.432 . S
O1054 C1071 1.264 . S
O1055 Eu1008 2.339 . S
O1055 C1071 1.254 . S
O1056 Eu1008 2.563 . S
O1056 C1064 1.235 . S
O1057 Eu1008 2.419 . S
O1057 C1072 1.249 . S
O1058 Eu1019 2.558 1_556 S
O1058 C1083 1.257 . S
O1059 Eu1008 2.380 . S
O1059 Eu1019 2.612 . S
O1059 C1075 1.276 . S
O1060 Eu1008 2.432 . S
O1060 C1082 1.264 . S
O1061 Eu1019 2.339 . S
O1061 C1082 1.254 . S
O1062 Eu1019 2.563 1_556 S
O1062 C1075 1.235 1_556 S
O1063 Eu1019 2.419 1_556 S
O1063 C1083 1.249 . S
C1064 O1053 1.276 . S
C1064 O1056 1.235 . S
C1065 C1067 1.393 . S
C1065 C1069 1.395 . S
C1065 C1072 1.492 . S
C1066 C1067 1.392 . S
C1066 C1068 1.386 . S
C1067 C1065 1.393 . S
C1067 C1066 1.392 . S
C1067 H1084 0.930 . S
C1068 C1066 1.386 . S
C1068 C1070 1.395 . S
C1068 H1085 0.930 . S
C1069 C1065 1.395 . S
C1069 C1070 1.379 . S
C1069 H1086 0.930 . S
C1070 C1068 1.395 . S
C1070 C1069 1.379 . S
C1070 H1087 0.930 . S
C1071 O1054 1.264 . S
C1071 O1055 1.254 . S
C1072 Eu1008 2.848 . S
C1072 O1052 1.257 . S
C1072 O1057 1.249 . S
C1072 C1065 1.492 . S
C1073 H1038 0.931 . S
C1073 C1051 1.420 . S
C1073 C1074 1.351 . S
C1074 H1036 0.930 . S
C1074 C1042 1.423 . S
C1074 C1073 1.351 . S
C1075 O1059 1.276 . S
C1075 O1062 1.235 1_554 S
C1076 C1077 1.393 . S
C1076 C1080 1.395 . S
C1076 C1083 1.492 . S
C1077 C1076 1.393 . S
C1077 C1078 1.392 . S
C1077 H1088 0.930 . S
C1078 C1077 1.392 . S
C1078 C1079 1.386 . S
C1079 C1078 1.386 . S
C1079 C1081 1.395 . S
C1079 H1089 0.930 . S
C1080 C1076 1.395 . S
C1080 C1081 1.379 . S
C1080 H1090 0.930 . S
C1081 C1079 1.395 . S
C1081 C1080 1.379 . S
C1081 H1091 0.930 . S
C1082 O1060 1.264 . S
C1082 O1061 1.254 . S
C1083 Eu1019 2.848 1_556 S
C1083 O1058 1.257 . S
C1083 O1063 1.249 . S
C1083 C1076 1.492 . S
H1084 C1067 0.930 . S
H1085 C1068 0.930 . S
H1086 C1069 0.930 . S
H1087 C1070 0.930 . S
H1088 C1077 0.930 . S
H1089 C1079 0.930 . S
H1090 C1080 0.930 . S
H1091 C1081 0.930 . S
Eu1092 N1123 2.657 1_655 S
Eu1092 N1130 2.609 1_655 S
Eu1092 O1136 2.558 1_655 S
Eu1092 O1137 2.612 . S
Eu1092 O1139 2.339 1_655 S
Eu1092 O1140 2.563 . S
Eu1092 O1141 2.419 1_655 S
Eu1092 O1143 2.380 . S
Eu1092 O1144 2.432 . S
Eu1092 C1156 2.848 1_655 S
C1093 C1096 1.429 . S
C1093 C1097 1.411 . S
C1093 N1100 1.377 . S
C1094 C1096 1.420 . S
C1094 C1098 1.423 . S
C1094 C1106 1.392 . S
C1095 C1097 1.420 . S
C1095 C1098 1.351 . S
C1095 H1118 0.931 . S
C1096 C1093 1.429 . S
C1096 C1094 1.420 . S
C1096 N1104 1.362 . S
C1097 C1093 1.411 . S
C1097 C1095 1.420 . S
C1097 C1102 1.395 . S
C1098 C1094 1.423 . S
C1098 C1095 1.351 . S
C1098 H1110 0.930 . S
C1099 C1101 1.400 . S
C1099 C1102 1.386 . S
C1099 H1111 0.930 . S
N1100 C1093 1.377 . S
N1100 C1101 1.321 . S
N1100 Eu1103 2.609 . S
C1101 C1099 1.400 . S
C1101 N1100 1.321 . S
C1101 H1108 0.930 . S
C1102 C1097 1.395 . S
C1102 C1099 1.386 . S
C1102 H1121 0.930 . S
Eu1103 N1100 2.609 . S
Eu1103 N1104 2.657 . S
Eu1103 O1137 2.380 . S
Eu1103 O1138 2.432 . S
Eu1103 O1142 2.558 . S
Eu1103 O1143 2.612 . S
Eu1103 O1145 2.339 . S
Eu1103 O1146 2.563 . S
Eu1103 O1147 2.419 . S
Eu1103 C1167 2.848 . S
N1104 C1096 1.362 . S
N1104 Eu1103 2.657 . S
N1104 C1105 1.334 . S
C1105 N1104 1.334 . S
C1105 C1107 1.413 . S
C1105 H1112 0.929 . S
C1106 C1094 1.392 . S
C1106 C1107 1.367 . S
C1106 H1114 0.930 . S
C1107 C1105 1.413 . S
C1107 C1106 1.367 . S
C1107 H1109 0.930 . S
H1108 C1101 0.930 . S
H1109 C1107 0.930 . S
H1110 C1098 0.930 . S
H1111 C1099 0.930 . S
H1112 C1105 0.929 . S
H1113 C1127 0.930 . S
H1114 C1106 0.930 . S
H1115 C1133 0.930 . S
H1116 C1124 0.929 . S
H1117 C1131 0.930 1_655 S
H1118 C1095 0.931 . S
H1119 C1125 0.930 . S
H1120 C1158 0.930 . S
H1121 C1102 0.930 . S
H1122 C1157 0.931 . S
N1123 Eu1092 2.657 1_455 S
N1123 C1124 1.334 . S
N1123 C1128 1.362 . S
C1124 H1116 0.929 . S
C1124 N1123 1.334 . S
C1124 C1127 1.413 . S
C1125 H1119 0.930 . S
C1125 C1126 1.392 . S
C1125 C1127 1.367 . S
C1126 C1125 1.392 . S
C1126 C1128 1.420 . S
C1126 C1158 1.423 . S
C1127 H1113 0.930 . S
C1127 C1124 1.413 . S
C1127 C1125 1.367 . S
C1128 N1123 1.362 . S
C1128 C1126 1.420 . S
C1128 C1132 1.429 . S
H1129 C1134 0.930 . S
N1130 Eu1092 2.609 1_455 S
N1130 C1132 1.377 . S
N1130 C1133 1.321 1_455 S
C1131 H1117 0.930 1_455 S
C1131 C1133 1.400 1_455 S
C1131 C1134 1.386 . S
C1132 C1128 1.429 . S
C1132 N1130 1.377 . S
C1132 C1135 1.411 . S
C1133 H1115 0.930 . S
C1133 N1130 1.321 1_655 S
C1133 C1131 1.400 1_655 S
C1134 H1129 0.930 . S
C1134 C1131 1.386 . S
C1134 C1135 1.395 . S
C1135 C1132 1.411 . S
C1135 C1134 1.395 . S
C1135 C1157 1.420 . S
O1136 Eu1092 2.558 1_455 S
O1136 C1156 1.257 . S
O1137 Eu1092 2.612 . S
O1137 Eu1103 2.380 . S
O1137 C1148 1.276 . S
O1138 Eu1103 2.432 . S
O1138 C1155 1.264 . S
O1139 Eu1092 2.339 1_455 S
O1139 C1155 1.254 1_455 S
O1140 Eu1092 2.563 . S
O1140 C1148 1.235 . S
O1141 Eu1092 2.419 1_455 S
O1141 C1156 1.249 . S
O1142 Eu1103 2.558 . S
O1142 C1167 1.257 . S
O1143 Eu1092 2.380 . S
O1143 Eu1103 2.612 . S
O1143 C1159 1.276 . S
O1144 Eu1092 2.432 . S
O1144 C1166 1.264 . S
O1145 Eu1103 2.339 . S
O1145 C1166 1.254 . S
O1146 Eu1103 2.563 . S
O1146 C1159 1.235 . S
O1147 Eu1103 2.419 . S
O1147 C1167 1.249 . S
C1148 O1137 1.276 . S
C1148 O1140 1.235 . S
C1149 C1151 1.393 . S
C1149 C1153 1.395 . S
C1149 C1156 1.492 . S
C1150 C1151 1.392 . S
C1150 C1152 1.386 . S
C1151 C1149 1.393 . S
C1151 C1150 1.392 . S
C1151 H1168 0.930 . S
C1152 C1150 1.386 . S
C1152 C1154 1.395 . S
C1152 H1169 0.930 . S
C1153 C1149 1.395 . S
C1153 C1154 1.379 . S
C1153 H1170 0.930 . S
C1154 C1152 1.395 . S
C1154 C1153 1.379 . S
C1154 H1171 0.930 . S
C1155 O1138 1.264 . S
C1155 O1139 1.254 1_655 S
C1156 Eu1092 2.848 1_455 S
C1156 O1136 1.257 . S
C1156 O1141 1.249 . S
C1156 C1149 1.492 . S
C1157 H1122 0.931 . S
C1157 C1135 1.420 . S
C1157 C1158 1.351 . S
C1158 H1120 0.930 . S
C1158 C1126 1.423 . S
C1158 C1157 1.351 . S
C1159 O1143 1.276 . S
C1159 O1146 1.235 . S
C1160 C1161 1.393 . S
C1160 C1164 1.395 . S
C1160 C1167 1.492 . S
C1161 C1160 1.393 . S
C1161 C1162 1.392 . S
C1161 H1172 0.930 . S
C1162 C1161 1.392 . S
C1162 C1163 1.386 . S
C1163 C1162 1.386 . S
C1163 C1165 1.395 . S
C1163 H1173 0.930 . S
C1164 C1160 1.395 . S
C1164 C1165 1.379 . S
C1164 H1174 0.930 . S
C1165 C1163 1.395 . S
C1165 C1164 1.379 . S
C1165 H1175 0.930 . S
C1166 O1144 1.264 . S
C1166 O1145 1.254 . S
C1167 Eu1103 2.848 . S
C1167 O1142 1.257 . S
C1167 O1147 1.249 . S
C1167 C1160 1.492 . S
H1168 C1151 0.930 . S
H1169 C1152 0.930 . S
H1170 C1153 0.930 . S
H1171 C1154 0.930 . S
H1172 C1161 0.930 . S
H1173 C1163 0.930 . S
H1174 C1164 0.930 . S
H1175 C1165 0.930 . S
Eu1176 N1207 2.657 . S
Eu1176 N1214 2.609 . S
Eu1176 O1220 2.558 . S
Eu1176 O1221 2.612 . S
Eu1176 O1223 2.339 . S
Eu1176 O1224 2.563 . S
Eu1176 O1225 2.419 . S
Eu1176 O1227 2.380 . S
Eu1176 O1228 2.432 . S
Eu1176 C1240 2.848 . S
C1177 C1180 1.429 . S
C1177 C1181 1.411 . S
C1177 N1184 1.377 . S
C1178 C1180 1.420 . S
C1178 C1182 1.423 . S
C1178 C1190 1.392 . S
C1179 C1181 1.420 . S
C1179 C1182 1.351 . S
C1179 H1202 0.931 . S
C1180 C1177 1.429 . S
C1180 C1178 1.420 . S
C1180 N1188 1.362 . S
C1181 C1177 1.411 . S
C1181 C1179 1.420 . S
C1181 C1186 1.395 . S
C1182 C1178 1.423 . S
C1182 C1179 1.351 . S
C1182 H1194 0.930 . S
C1183 C1185 1.400 . S
C1183 C1186 1.386 . S
C1183 H1195 0.930 . S
N1184 C1177 1.377 . S
N1184 C1185 1.321 . S
N1184 Eu1187 2.609 . S
C1185 C1183 1.400 . S
C1185 N1184 1.321 . S
C1185 H1192 0.930 . S
C1186 C1181 1.395 . S
C1186 C1183 1.386 . S
C1186 H1205 0.930 . S
Eu1187 N1184 2.609 . S
Eu1187 N1188 2.657 . S
Eu1187 O1221 2.380 . S
Eu1187 O1222 2.432 . S
Eu1187 O1226 2.558 . S
Eu1187 O1227 2.612 . S
Eu1187 O1229 2.339 . S
Eu1187 O1230 2.563 . S
Eu1187 O1231 2.419 . S
Eu1187 C1251 2.848 . S
N1188 C1180 1.362 . S
N1188 Eu1187 2.657 . S
N1188 C1189 1.334 . S
C1189 N1188 1.334 . S
C1189 C1191 1.413 . S
C1189 H1196 0.929 . S
C1190 C1178 1.392 . S
C1190 C1191 1.367 . S
C1190 H1198 0.930 . S
C1191 C1189 1.413 . S
C1191 C1190 1.367 . S
C1191 H1193 0.930 . S
H1192 C1185 0.930 . S
H1193 C1191 0.930 . S
H1194 C1182 0.930 . S
H1195 C1183 0.930 . S
H1196 C1189 0.929 . S
H1197 C1211 0.930 . S
H1198 C1190 0.930 . S
H1199 C1217 0.930 . S
H1200 C1208 0.929 . S
H1201 C1215 0.930 . S
H1202 C1179 0.931 . S
H1203 C1209 0.930 . S
H1204 C1242 0.930 . S
H1205 C1186 0.930 . S
H1206 C1241 0.931 . S
N1207 Eu1176 2.657 . S
N1207 C1208 1.334 . S
N1207 C1212 1.362 . S
C1208 H1200 0.929 . S
C1208 N1207 1.334 . S
C1208 C1211 1.413 . S
C1209 H1203 0.930 . S
C1209 C1210 1.392 . S
C1209 C1211 1.367 . S
C1210 C1209 1.392 . S
C1210 C1212 1.420 . S
C1210 C1242 1.423 . S
C1211 H1197 0.930 . S
C1211 C1208 1.413 . S
C1211 C1209 1.367 . S
C1212 N1207 1.362 . S
C1212 C1210 1.420 . S
C1212 C1216 1.429 . S
H1213 C1218 0.930 . S
N1214 Eu1176 2.609 . S
N1214 C1216 1.377 . S
N1214 C1217 1.321 . S
C1215 H1201 0.930 . S
C1215 C1217 1.400 . S
C1215 C1218 1.386 . S
C1216 C1212 1.429 . S
C1216 N1214 1.377 . S
C1216 C1219 1.411 . S
C1217 H1199 0.930 . S
C1217 N1214 1.321 . S
C1217 C1215 1.400 . S
C1218 H1213 0.930 . S
C1218 C1215 1.386 . S
C1218 C1219 1.395 . S
C1219 C1216 1.411 . S
C1219 C1218 1.395 . S
C1219 C1241 1.420 . S
O1220 Eu1176 2.558 . S
O1220 C1240 1.257 . S
O1221 Eu1176 2.612 . S
O1221 Eu1187 2.380 . S
O1221 C1232 1.276 . S
O1222 Eu1187 2.432 . S
O1222 C1239 1.264 . S
O1223 Eu1176 2.339 . S
O1223 C1239 1.254 . S
O1224 Eu1176 2.563 . S
O1224 C1232 1.235 . S
O1225 Eu1176 2.419 . S
O1225 C1240 1.249 . S
O1226 Eu1187 2.558 . S
O1226 C1251 1.257 . S
O1227 Eu1176 2.380 . S
O1227 Eu1187 2.612 . S
O1227 C1243 1.276 . S
O1228 Eu1176 2.432 . S
O1228 C1250 1.264 . S
O1229 Eu1187 2.339 . S
O1229 C1250 1.254 . S
O1230 Eu1187 2.563 . S
O1230 C1243 1.235 . S
O1231 Eu1187 2.419 . S
O1231 C1251 1.249 . S
C1232 O1221 1.276 . S
C1232 O1224 1.235 . S
C1233 C1235 1.393 . S
C1233 C1237 1.395 . S
C1233 C1240 1.492 . S
C1234 C1235 1.392 . S
C1234 C1236 1.386 . S
C1235 C1233 1.393 . S
C1235 C1234 1.392 . S
C1235 H1252 0.930 . S
C1236 C1234 1.386 . S
C1236 C1238 1.395 . S
C1236 H1253 0.930 . S
C1237 C1233 1.395 . S
C1237 C1238 1.379 . S
C1237 H1254 0.930 . S
C1238 C1236 1.395 . S
C1238 C1237 1.379 . S
C1238 H1255 0.930 . S
C1239 O1222 1.264 . S
C1239 O1223 1.254 . S
C1240 Eu1176 2.848 . S
C1240 O1220 1.257 . S
C1240 O1225 1.249 . S
C1240 C1233 1.492 . S
C1241 H1206 0.931 . S
C1241 C1219 1.420 . S
C1241 C1242 1.351 . S
C1242 H1204 0.930 . S
C1242 C1210 1.423 . S
C1242 C1241 1.351 . S
C1243 O1227 1.276 . S
C1243 O1230 1.235 . S
C1244 C1245 1.393 . S
C1244 C1248 1.395 . S
C1244 C1251 1.492 . S
C1245 C1244 1.393 . S
C1245 C1246 1.392 . S
C1245 H1256 0.930 . S
C1246 C1245 1.392 . S
C1246 C1247 1.386 . S
C1247 C1246 1.386 . S
C1247 C1249 1.395 . S
C1247 H1257 0.930 . S
C1248 C1244 1.395 . S
C1248 C1249 1.379 . S
C1248 H1258 0.930 . S
C1249 C1247 1.395 . S
C1249 C1248 1.379 . S
C1249 H1259 0.930 . S
C1250 O1228 1.264 . S
C1250 O1229 1.254 . S
C1251 Eu1187 2.848 . S
C1251 O1226 1.257 . S
C1251 O1231 1.249 . S
C1251 C1244 1.492 . S
H1252 C1235 0.930 . S
H1253 C1236 0.930 . S
H1254 C1237 0.930 . S
H1255 C1238 0.930 . S
H1256 C1245 0.930 . S
H1257 C1247 0.930 . S
H1258 C1248 0.930 . S
H1259 C1249 0.930 . S
Eu1260 N1291 2.657 . S
Eu1260 N1298 2.609 . S
Eu1260 O1304 2.558 . S
Eu1260 O1305 2.612 . S
Eu1260 O1307 2.339 . S
Eu1260 O1308 2.563 . S
Eu1260 O1309 2.419 . S
Eu1260 O1311 2.380 . S
Eu1260 O1312 2.432 . S
Eu1260 C1324 2.848 . S
C1261 C1264 1.429 . S
C1261 C1265 1.411 . S
C1261 N1268 1.416 . S
C1262 C1264 1.420 . S
C1262 C1266 1.423 . S
C1262 C1274 1.392 . S
C1263 C1265 1.420 . S
C1263 C1266 1.351 . S
C1263 H1286 0.931 . S
C1264 C1261 1.429 . S
C1264 C1262 1.420 . S
C1264 N1272 1.362 . S
C1265 C1261 1.411 . S
C1265 C1263 1.420 . S
C1265 C1270 1.395 . S
C1266 C1262 1.423 . S
C1266 C1263 1.351 . S
C1266 H1278 0.930 . S
C1267 C1269 1.400 . S
C1267 C1270 1.386 1_655 S
C1267 H1279 0.930 . S
N1268 C1261 1.416 . S
N1268 C1269 1.301 1_455 S
N1268 Eu1271 2.595 1_455 S
C1269 C1267 1.400 . S
C1269 N1268 1.301 1_655 S
C1269 H1276 0.930 . S
C1270 C1265 1.395 . S
C1270 C1267 1.386 1_455 S
C1270 H1289 0.930 . S
Eu1271 N1268 2.595 1_655 S
Eu1271 N1272 2.657 1_655 S
Eu1271 O1305 2.380 . S
Eu1271 O1306 2.432 . S
Eu1271 O1310 2.561 . S
Eu1271 O1311 2.612 . S
Eu1271 O1313 2.347 . S
Eu1271 O1314 2.563 . S
Eu1271 O1315 2.419 1_655 S
Eu1271 C1335 2.848 1_655 S
N1272 C1264 1.362 . S
N1272 Eu1271 2.657 1_455 S
N1272 C1273 1.334 . S
C1273 N1272 1.334 . S
C1273 C1275 1.413 . S
C1273 H1280 0.929 . S
C1274 C1262 1.392 . S
C1274 C1275 1.367 . S
C1274 H1282 0.930 . S
C1275 C1273 1.413 . S
C1275 C1274 1.367 . S
C1275 H1277 0.930 . S
H1276 C1269 0.930 . S
H1277 C1275 0.930 . S
H1278 C1266 0.930 . S
H1279 C1267 0.930 . S
H1280 C1273 0.929 . S
H1281 C1295 0.930 . S
H1282 C1274 0.930 . S
H1283 C1301 0.930 . S
H1284 C1292 0.929 . S
H1285 C1299 0.930 . S
H1286 C1263 0.931 . S
H1287 C1293 0.930 . S
H1288 C1326 0.930 . S
H1289 C1270 0.930 . S
H1290 C1325 0.931 . S
N1291 Eu1260 2.657 . S
N1291 C1292 1.334 . S
N1291 C1296 1.362 . S
C1292 H1284 0.929 . S
C1292 N1291 1.334 . S
C1292 C1295 1.413 . S
C1293 H1287 0.930 . S
C1293 C1294 1.392 . S
C1293 C1295 1.367 . S
C1294 C1293 1.392 . S
C1294 C1296 1.420 . S
C1294 C1326 1.423 . S
C1295 H1281 0.930 . S
C1295 C1292 1.413 . S
C1295 C1293 1.367 . S
C1296 N1291 1.362 . S
C1296 C1294 1.420 . S
C1296 C1300 1.429 . S
H1297 C1302 0.930 . S
N1298 Eu1260 2.609 . S
N1298 C1300 1.377 . S
N1298 C1301 1.321 . S
C1299 H1285 0.930 . S
C1299 C1301 1.400 . S
C1299 C1302 1.386 . S
C1300 C1296 1.429 . S
C1300 N1298 1.377 . S
C1300 C1303 1.411 . S
C1301 H1283 0.930 . S
C1301 N1298 1.321 . S
C1301 C1299 1.400 . S
C1302 H1297 0.930 . S
C1302 C1299 1.386 . S
C1302 C1303 1.395 . S
C1303 C1300 1.411 . S
C1303 C1302 1.395 . S
C1303 C1325 1.420 . S
O1304 Eu1260 2.558 . S
O1304 C1324 1.257 . S
O1305 Eu1260 2.612 . S
O1305 Eu1271 2.380 . S
O1305 C1316 1.276 . S
O1306 Eu1271 2.432 . S
O1306 C1323 1.264 . S
O1307 Eu1260 2.339 . S
O1307 C1323 1.254 . S
O1308 Eu1260 2.563 . S
O1308 C1316 1.235 . S
O1309 Eu1260 2.419 . S
O1309 C1324 1.249 . S
O1310 Eu1271 2.561 . S
O1310 C1335 1.249 1_655 S
O1311 Eu1260 2.380 . S
O1311 Eu1271 2.612 . S
O1311 C1327 1.276 . S
O1312 Eu1260 2.432 . S
O1312 C1334 1.264 . S
O1313 Eu1271 2.347 . S
O1313 C1334 1.264 . S
O1314 Eu1271 2.563 . S
O1314 C1327 1.235 . S
O1315 Eu1271 2.419 1_455 S
O1315 C1335 1.249 . S
C1316 O1305 1.276 . S
C1316 O1308 1.235 . S
C1317 C1319 1.393 . S
C1317 C1321 1.395 . S
C1317 C1324 1.492 . S
C1318 C1319 1.392 . S
C1318 C1320 1.386 . S
C1319 C1317 1.393 . S
C1319 C1318 1.392 . S
C1319 H1336 0.930 . S
C1320 C1318 1.386 . S
C1320 C1322 1.395 . S
C1320 H1337 0.930 . S
C1321 C1317 1.395 . S
C1321 C1322 1.379 . S
C1321 H1338 0.930 . S
C1322 C1320 1.395 . S
C1322 C1321 1.379 . S
C1322 H1339 0.930 . S
C1323 O1306 1.264 . S
C1323 O1307 1.254 . S
C1324 Eu1260 2.848 . S
C1324 O1304 1.257 . S
C1324 O1309 1.249 . S
C1324 C1317 1.492 . S
C1325 H1290 0.931 . S
C1325 C1303 1.420 . S
C1325 C1326 1.351 . S
C1326 H1288 0.930 . S
C1326 C1294 1.423 . S
C1326 C1325 1.351 . S
C1327 O1311 1.276 . S
C1327 O1314 1.235 . S
C1328 C1329 1.393 . S
C1328 C1332 1.395 . S
C1328 C1335 1.492 . S
C1329 C1328 1.393 . S
C1329 C1330 1.392 . S
C1329 H1340 0.930 . S
C1330 C1329 1.392 . S
C1330 C1331 1.386 . S
C1331 C1330 1.386 . S
C1331 C1333 1.395 . S
C1331 H1341 0.930 . S
C1332 C1328 1.395 . S
C1332 C1333 1.379 . S
C1332 H1342 0.930 . S
C1333 C1331 1.395 . S
C1333 C1332 1.379 . S
C1333 H1343 0.930 . S
C1334 O1312 1.264 . S
C1334 O1313 1.264 . S
C1335 Eu1271 2.848 1_455 S
C1335 O1310 1.249 1_455 S
C1335 O1315 1.249 . S
C1335 C1328 1.492 . S
H1336 C1319 0.930 . S
H1337 C1320 0.930 . S
H1338 C1321 0.930 . S
H1339 C1322 0.930 . S
H1340 C1329 0.930 . S
H1341 C1331 0.930 . S
H1342 C1332 0.930 . S
H1343 C1333 0.930 . S
Eu1344 N1375 2.657 . S
Eu1344 N1382 2.609 . S
Eu1344 O1388 2.558 . S
Eu1344 O1389 2.612 . S
Eu1344 O1391 2.339 . S
Eu1344 O1392 2.563 . S
Eu1344 O1393 2.419 . S
Eu1344 O1395 2.380 . S
Eu1344 O1396 2.432 . S
Eu1344 C1408 2.848 . S
C1345 C1348 1.429 . S
C1345 C1349 1.411 . S
C1345 N1352 1.377 . S
C1346 C1348 1.420 . S
C1346 C1350 1.423 . S
C1346 C1358 1.392 . S
C1347 C1349 1.420 . S
C1347 C1350 1.351 . S
C1347 H1370 0.931 . S
C1348 C1345 1.429 . S
C1348 C1346 1.420 . S
C1348 N1356 1.362 . S
C1349 C1345 1.411 . S
C1349 C1347 1.420 . S
C1349 C1354 1.395 . S
C1350 C1346 1.423 . S
C1350 C1347 1.351 . S
C1350 H1362 0.930 . S
C1351 C1353 1.400 . S
C1351 C1354 1.386 . S
C1351 H1363 0.930 . S
N1352 C1345 1.377 . S
N1352 C1353 1.321 . S
N1352 Eu1355 2.609 . S
C1353 C1351 1.400 . S
C1353 N1352 1.321 . S
C1353 H1360 0.930 . S
C1354 C1349 1.395 . S
C1354 C1351 1.386 . S
C1354 H1373 0.930 . S
Eu1355 N1352 2.609 . S
Eu1355 N1356 2.657 . S
Eu1355 O1389 2.380 . S
Eu1355 O1390 2.432 . S
Eu1355 O1394 2.558 . S
Eu1355 O1395 2.612 . S
Eu1355 O1397 2.339 . S
Eu1355 O1398 2.563 . S
Eu1355 O1399 2.419 . S
Eu1355 C1419 2.848 . S
N1356 C1348 1.362 . S
N1356 Eu1355 2.657 . S
N1356 C1357 1.334 . S
C1357 N1356 1.334 . S
C1357 C1359 1.413 . S
C1357 H1364 0.929 . S
C1358 C1346 1.392 . S
C1358 C1359 1.367 . S
C1358 H1366 0.930 . S
C1359 C1357 1.413 . S
C1359 C1358 1.367 . S
C1359 H1361 0.930 . S
H1360 C1353 0.930 . S
H1361 C1359 0.930 . S
H1362 C1350 0.930 . S
H1363 C1351 0.930 . S
H1364 C1357 0.929 . S
H1365 C1379 0.930 . S
H1366 C1358 0.930 . S
H1367 C1385 0.930 . S
H1368 C1376 0.929 . S
H1369 C1383 0.930 . S
H1370 C1347 0.931 . S
H1371 C1377 0.930 . S
H1372 C1410 0.930 . S
H1373 C1354 0.930 . S
H1374 C1409 0.931 . S
N1375 Eu1344 2.657 . S
N1375 C1376 1.334 . S
N1375 C1380 1.362 . S
C1376 H1368 0.929 . S
C1376 N1375 1.334 . S
C1376 C1379 1.413 . S
C1377 H1371 0.930 . S
C1377 C1378 1.392 . S
C1377 C1379 1.367 . S
C1378 C1377 1.392 . S
C1378 C1380 1.420 . S
C1378 C1410 1.423 . S
C1379 H1365 0.930 . S
C1379 C1376 1.413 . S
C1379 C1377 1.367 . S
C1380 N1375 1.362 . S
C1380 C1378 1.420 . S
C1380 C1384 1.429 . S
H1381 C1386 0.930 . S
N1382 Eu1344 2.609 . S
N1382 C1384 1.377 . S
N1382 C1385 1.321 . S
C1383 H1369 0.930 . S
C1383 C1385 1.400 . S
C1383 C1386 1.386 . S
C1384 C1380 1.429 . S
C1384 N1382 1.377 . S
C1384 C1387 1.411 . S
C1385 H1367 0.930 . S
C1385 N1382 1.321 . S
C1385 C1383 1.400 . S
C1386 H1381 0.930 . S
C1386 C1383 1.386 . S
C1386 C1387 1.395 . S
C1387 C1384 1.411 . S
C1387 C1386 1.395 . S
C1387 C1409 1.420 . S
O1388 Eu1344 2.558 . S
O1388 C1408 1.257 . S
O1389 Eu1344 2.612 . S
O1389 Eu1355 2.380 . S
O1389 C1400 1.276 . S
O1390 Eu1355 2.432 . S
O1390 C1407 1.264 . S
O1391 Eu1344 2.339 . S
O1391 C1407 1.254 . S
O1392 Eu1344 2.563 . S
O1392 C1400 1.235 . S
O1393 Eu1344 2.419 . S
O1393 C1408 1.249 . S
O1394 Eu1355 2.558 . S
O1394 C1419 1.257 . S
O1395 Eu1344 2.380 . S
O1395 Eu1355 2.612 . S
O1395 C1411 1.276 . S
O1396 Eu1344 2.432 . S
O1396 C1418 1.264 . S
O1397 Eu1355 2.339 . S
O1397 C1418 1.254 . S
O1398 Eu1355 2.563 . S
O1398 C1411 1.235 . S
O1399 Eu1355 2.419 . S
O1399 C1419 1.249 . S
C1400 O1389 1.276 . S
C1400 O1392 1.235 . S
C1401 C1403 1.393 . S
C1401 C1405 1.395 . S
C1401 C1408 1.492 . S
C1402 C1403 1.392 . S
C1402 C1404 1.386 . S
C1403 C1401 1.393 . S
C1403 C1402 1.392 . S
C1403 H1420 0.930 . S
C1404 C1402 1.386 . S
C1404 C1406 1.395 . S
C1404 H1421 0.930 . S
C1405 C1401 1.395 . S
C1405 C1406 1.379 . S
C1405 H1422 0.930 . S
C1406 C1404 1.395 . S
C1406 C1405 1.379 . S
C1406 H1423 0.930 . S
C1407 O1390 1.264 . S
C1407 O1391 1.254 . S
C1408 Eu1344 2.848 . S
C1408 O1388 1.257 . S
C1408 O1393 1.249 . S
C1408 C1401 1.492 . S
C1409 H1374 0.931 . S
C1409 C1387 1.420 . S
C1409 C1410 1.351 . S
C1410 H1372 0.930 . S
C1410 C1378 1.423 . S
C1410 C1409 1.351 . S
C1411 O1395 1.276 . S
C1411 O1398 1.235 . S
C1412 C1413 1.393 . S
C1412 C1416 1.395 . S
C1412 C1419 1.492 . S
C1413 C1412 1.393 . S
C1413 C1414 1.392 . S
C1413 H1424 0.930 . S
C1414 C1413 1.392 . S
C1414 C1415 1.386 . S
C1415 C1414 1.386 . S
C1415 C1417 1.395 . S
C1415 H1425 0.930 . S
C1416 C1412 1.395 . S
C1416 C1417 1.379 . S
C1416 H1426 0.930 . S
C1417 C1415 1.395 . S
C1417 C1416 1.379 . S
C1417 H1427 0.930 . S
C1418 O1396 1.264 . S
C1418 O1397 1.254 . S
C1419 Eu1355 2.848 . S
C1419 O1394 1.257 . S
C1419 O1399 1.249 . S
C1419 C1412 1.492 . S
H1420 C1403 0.930 . S
H1421 C1404 0.930 . S
H1422 C1405 0.930 . S
H1423 C1406 0.930 . S
H1424 C1413 0.930 . S
H1425 C1415 0.930 . S
H1426 C1416 0.930 . S
H1427 C1417 0.930 . S
Eu1428 N1459 2.657 . S
Eu1428 N1466 2.609 . S
Eu1428 O1472 2.558 . S
Eu1428 O1473 2.612 . S
Eu1428 O1475 2.339 . S
Eu1428 O1476 2.563 . S
Eu1428 O1477 2.419 . S
Eu1428 O1479 2.380 . S
Eu1428 O1480 2.432 . S
Eu1428 C1492 2.848 . S
C1429 C1432 1.429 . S
C1429 C1433 1.411 . S
C1429 N1436 1.377 . S
C1430 C1432 1.420 . S
C1430 C1434 1.423 . S
C1430 C1442 1.392 . S
C1431 C1433 1.420 . S
C1431 C1434 1.351 . S
C1431 H1454 0.931 . S
C1432 C1429 1.429 . S
C1432 C1430 1.420 . S
C1432 N1440 1.362 . S
C1433 C1429 1.411 . S
C1433 C1431 1.420 . S
C1433 C1438 1.395 . S
C1434 C1430 1.423 . S
C1434 C1431 1.351 . S
C1434 H1446 0.930 . S
C1435 C1437 1.400 . S
C1435 C1438 1.386 . S
C1435 H1447 0.930 . S
N1436 C1429 1.377 . S
N1436 C1437 1.321 . S
N1436 Eu1439 2.609 . S
C1437 C1435 1.400 . S
C1437 N1436 1.321 . S
C1437 H1444 0.930 . S
C1438 C1433 1.395 . S
C1438 C1435 1.386 . S
C1438 H1457 0.930 . S
Eu1439 N1436 2.609 . S
Eu1439 N1440 2.657 . S
Eu1439 O1473 2.380 . S
Eu1439 O1474 2.432 . S
Eu1439 O1478 2.558 . S
Eu1439 O1479 2.612 . S
Eu1439 O1481 2.339 . S
Eu1439 O1482 2.563 . S
Eu1439 O1483 2.419 . S
Eu1439 C1503 2.848 . S
N1440 C1432 1.362 . S
N1440 Eu1439 2.657 . S
N1440 C1441 1.334 . S
C1441 N1440 1.334 . S
C1441 C1443 1.413 . S
C1441 H1448 0.929 . S
C1442 C1430 1.392 . S
C1442 C1443 1.367 . S
C1442 H1450 0.930 . S
C1443 C1441 1.413 . S
C1443 C1442 1.367 . S
C1443 H1445 0.930 . S
H1444 C1437 0.930 . S
H1445 C1443 0.930 . S
H1446 C1434 0.930 . S
H1447 C1435 0.930 . S
H1448 C1441 0.929 . S
H1449 C1463 0.930 . S
H1450 C1442 0.930 . S
H1451 C1469 0.930 . S
H1452 C1460 0.929 . S
H1453 C1467 0.930 . S
H1454 C1431 0.931 . S
H1455 C1461 0.930 . S
H1456 C1494 0.930 . S
H1457 C1438 0.930 . S
H1458 C1493 0.931 . S
N1459 Eu1428 2.657 . S
N1459 C1460 1.334 . S
N1459 C1464 1.362 . S
C1460 H1452 0.929 . S
C1460 N1459 1.334 . S
C1460 C1463 1.413 . S
C1461 H1455 0.930 . S
C1461 C1462 1.392 . S
C1461 C1463 1.367 . S
C1462 C1461 1.392 . S
C1462 C1464 1.420 . S
C1462 C1494 1.423 . S
C1463 H1449 0.930 . S
C1463 C1460 1.413 . S
C1463 C1461 1.367 . S
C1464 N1459 1.362 . S
C1464 C1462 1.420 . S
C1464 C1468 1.429 . S
H1465 C1470 0.930 . S
N1466 Eu1428 2.609 . S
N1466 C1468 1.377 . S
N1466 C1469 1.321 . S
C1467 H1453 0.930 . S
C1467 C1469 1.400 . S
C1467 C1470 1.386 . S
C1468 C1464 1.429 . S
C1468 N1466 1.377 . S
C1468 C1471 1.411 . S
C1469 H1451 0.930 . S
C1469 N1466 1.321 . S
C1469 C1467 1.400 . S
C1470 H1465 0.930 . S
C1470 C1467 1.386 . S
C1470 C1471 1.395 . S
C1471 C1468 1.411 . S
C1471 C1470 1.395 . S
C1471 C1493 1.420 . S
O1472 Eu1428 2.558 . S
O1472 C1492 1.257 . S
O1473 Eu1428 2.612 . S
O1473 Eu1439 2.380 . S
O1473 C1484 1.276 . S
O1474 Eu1439 2.432 . S
O1474 C1491 1.264 . S
O1475 Eu1428 2.339 . S
O1475 C1491 1.254 . S
O1476 Eu1428 2.563 . S
O1476 C1484 1.235 . S
O1477 Eu1428 2.419 . S
O1477 C1492 1.249 . S
O1478 Eu1439 2.558 . S
O1478 C1503 1.257 . S
O1479 Eu1428 2.380 . S
O1479 Eu1439 2.612 . S
O1479 C1495 1.276 . S
O1480 Eu1428 2.432 . S
O1480 C1502 1.264 . S
O1481 Eu1439 2.339 . S
O1481 C1502 1.254 . S
O1482 Eu1439 2.563 . S
O1482 C1495 1.235 . S
O1483 Eu1439 2.419 . S
O1483 C1503 1.249 . S
C1484 O1473 1.276 . S
C1484 O1476 1.235 . S
C1485 C1487 1.393 . S
C1485 C1489 1.395 . S
C1485 C1492 1.492 . S
C1486 C1487 1.392 . S
C1486 C1488 1.386 . S
C1487 C1485 1.393 . S
C1487 C1486 1.392 . S
C1487 H1504 0.930 . S
C1488 C1486 1.386 . S
C1488 C1490 1.395 . S
C1488 H1505 0.930 . S
C1489 C1485 1.395 . S
C1489 C1490 1.379 . S
C1489 H1506 0.930 . S
C1490 C1488 1.395 . S
C1490 C1489 1.379 . S
C1490 H1507 0.930 . S
C1491 O1474 1.264 . S
C1491 O1475 1.254 . S
C1492 Eu1428 2.848 . S
C1492 O1472 1.257 . S
C1492 O1477 1.249 . S
C1492 C1485 1.492 . S
C1493 H1458 0.931 . S
C1493 C1471 1.420 . S
C1493 C1494 1.351 . S
C1494 H1456 0.930 . S
C1494 C1462 1.423 . S
C1494 C1493 1.351 . S
C1495 O1479 1.276 . S
C1495 O1482 1.235 . S
C1496 C1497 1.393 . S
C1496 C1500 1.395 . S
C1496 C1503 1.492 . S
C1497 C1496 1.393 . S
C1497 C1498 1.392 . S
C1497 H1508 0.930 . S
C1498 C1497 1.392 . S
C1498 C1499 1.386 . S
C1499 C1498 1.386 . S
C1499 C1501 1.395 . S
C1499 H1509 0.930 . S
C1500 C1496 1.395 . S
C1500 C1501 1.379 . S
C1500 H1510 0.930 . S
C1501 C1499 1.395 . S
C1501 C1500 1.379 . S
C1501 H1511 0.930 . S
C1502 O1480 1.264 . S
C1502 O1481 1.254 . S
C1503 Eu1439 2.848 . S
C1503 O1478 1.257 . S
C1503 O1483 1.249 . S
C1503 C1496 1.492 . S
H1504 C1487 0.930 . S
H1505 C1488 0.930 . S
H1506 C1489 0.930 . S
H1507 C1490 0.930 . S
H1508 C1497 0.930 . S
H1509 C1499 0.930 . S
H1510 C1500 0.930 . S
H1511 C1501 0.930 . S
Eu1512 N1543 2.657 . S
Eu1512 N1550 2.609 1_556 S
Eu1512 O1556 2.558 1_556 S
Eu1512 O1557 2.612 . S
Eu1512 O1559 2.339 . S
Eu1512 O1560 2.563 1_556 S
Eu1512 O1561 2.419 1_556 S
Eu1512 O1563 2.380 . S
Eu1512 O1564 2.432 . S
Eu1512 C1576 2.848 1_556 S
C1513 C1516 1.429 . S
C1513 C1517 1.411 . S
C1513 N1520 1.377 . S
C1514 C1516 1.420 . S
C1514 C1518 1.423 . S
C1514 C1526 1.392 . S
C1515 C1517 1.420 . S
C1515 C1518 1.351 . S
C1515 H1538 0.931 . S
C1516 C1513 1.429 . S
C1516 C1514 1.420 . S
C1516 N1524 1.362 . S
C1517 C1513 1.411 . S
C1517 C1515 1.420 . S
C1517 C1522 1.395 . S
C1518 C1514 1.423 . S
C1518 C1515 1.351 . S
C1518 H1530 0.930 . S
C1519 C1521 1.400 . S
C1519 C1522 1.386 . S
C1519 H1531 0.930 . S
N1520 C1513 1.377 . S
N1520 C1521 1.321 . S
N1520 Eu1523 2.609 . S
C1521 C1519 1.400 . S
C1521 N1520 1.321 . S
C1521 H1528 0.930 . S
C1522 C1517 1.395 . S
C1522 C1519 1.386 . S
C1522 H1541 0.930 . S
Eu1523 N1520 2.609 . S
Eu1523 N1524 2.657 . S
Eu1523 O1557 2.380 . S
Eu1523 O1558 2.432 . S
Eu1523 O1562 2.558 . S
Eu1523 O1563 2.612 . S
Eu1523 O1565 2.339 . S
Eu1523 O1566 2.563 . S
Eu1523 O1567 2.419 . S
Eu1523 C1587 2.848 . S
N1524 C1516 1.362 . S
N1524 Eu1523 2.657 . S
N1524 C1525 1.334 . S
C1525 N1524 1.334 . S
C1525 C1527 1.413 . S
C1525 H1532 0.929 . S
C1526 C1514 1.392 . S
C1526 C1527 1.367 . S
C1526 H1534 0.930 . S
C1527 C1525 1.413 . S
C1527 C1526 1.367 . S
C1527 H1529 0.930 1_556 S
H1528 C1521 0.930 . S
H1529 C1527 0.930 1_554 S
H1530 C1518 0.930 . S
H1531 C1519 0.930 . S
H1532 C1525 0.929 . S
H1533 C1547 0.930 . S
H1534 C1526 0.930 . S
H1535 C1553 0.930 . S
H1536 C1544 0.929 . S
H1537 C1551 0.930 . S
H1538 C1515 0.931 . S
H1539 C1545 0.930 . S
H1540 C1578 0.930 . S
H1541 C1522 0.930 . S
H1542 C1577 0.931 . S
N1543 Eu1512 2.657 . S
N1543 C1544 1.334 . S
N1543 C1548 1.362 . S
C1544 H1536 0.929 . S
C1544 N1543 1.334 . S
C1544 C1547 1.413 . S
C1545 H1539 0.930 . S
C1545 C1546 1.392 . S
C1545 C1547 1.367 . S
C1546 C1545 1.392 . S
C1546 C1548 1.420 . S
C1546 C1578 1.423 . S
C1547 H1533 0.930 . S
C1547 C1544 1.413 . S
C1547 C1545 1.367 . S
C1548 N1543 1.362 . S
C1548 C1546 1.420 . S
C1548 C1552 1.429 . S
H1549 C1554 0.930 . S
N1550 Eu1512 2.609 1_554 S
N1550 C1552 1.377 1_554 S
N1550 C1553 1.321 . S
C1551 H1537 0.930 . S
C1551 C1553 1.400 . S
C1551 C1554 1.386 . S
C1552 C1548 1.429 . S
C1552 N1550 1.377 1_556 S
C1552 C1555 1.411 1_556 S
C1553 H1535 0.930 . S
C1553 N1550 1.321 . S
C1553 C1551 1.400 . S
C1554 H1549 0.930 . S
C1554 C1551 1.386 . S
C1554 C1555 1.395 . S
C1555 C1552 1.411 1_554 S
C1555 C1554 1.395 . S
C1555 C1577 1.420 1_554 S
O1556 Eu1512 2.558 1_554 S
O1556 C1576 1.257 . S
O1557 Eu1512 2.612 . S
O1557 Eu1523 2.380 . S
O1557 C1568 1.276 . S
O1558 Eu1523 2.432 . S
O1558 C1575 1.264 . S
O1559 Eu1512 2.339 . S
O1559 C1575 1.254 . S
O1560 Eu1512 2.563 1_554 S
O1560 C1568 1.235 1_554 S
O1561 Eu1512 2.419 1_554 S
O1561 C1576 1.249 . S
O1562 Eu1523 2.558 . S
O1562 C1587 1.257 . S
O1563 Eu1512 2.380 . S
O1563 Eu1523 2.612 . S
O1563 C1579 1.276 . S
O1564 Eu1512 2.432 . S
O1564 C1586 1.264 . S
O1565 Eu1523 2.339 . S
O1565 C1586 1.254 . S
O1566 Eu1523 2.563 . S
O1566 C1579 1.235 . S
O1567 Eu1523 2.419 . S
O1567 C1587 1.249 . S
C1568 O1557 1.276 . S
C1568 O1560 1.235 1_556 S
C1569 C1571 1.393 . S
C1569 C1573 1.395 . S
C1569 C1576 1.492 . S
C1570 C1571 1.392 . S
C1570 C1572 1.386 . S
C1571 C1569 1.393 . S
C1571 C1570 1.392 . S
C1571 H1588 0.930 . S
C1572 C1570 1.386 . S
C1572 C1574 1.395 . S
C1572 H1589 0.930 . S
C1573 C1569 1.395 . S
C1573 C1574 1.379 . S
C1573 H1590 0.930 . S
C1574 C1572 1.395 . S
C1574 C1573 1.379 . S
C1574 H1591 0.930 . S
C1575 O1558 1.264 . S
C1575 O1559 1.254 . S
C1576 Eu1512 2.848 1_554 S
C1576 O1556 1.257 . S
C1576 O1561 1.249 . S
C1576 C1569 1.492 . S
C1577 H1542 0.931 . S
C1577 C1555 1.420 1_556 S
C1577 C1578 1.351 . S
C1578 H1540 0.930 . S
C1578 C1546 1.423 . S
C1578 C1577 1.351 . S
C1579 O1563 1.276 . S
C1579 O1566 1.235 . S
C1580 C1581 1.393 . S
C1580 C1584 1.395 . S
C1580 C1587 1.492 . S
C1581 C1580 1.393 . S
C1581 C1582 1.392 . S
C1581 H1592 0.930 . S
C1582 C1581 1.392 . S
C1582 C1583 1.386 . S
C1583 C1582 1.386 . S
C1583 C1585 1.395 . S
C1583 H1593 0.930 . S
C1584 C1580 1.395 . S
C1584 C1585 1.379 . S
C1584 H1594 0.930 . S
C1585 C1583 1.395 . S
C1585 C1584 1.379 . S
C1585 H1595 0.930 . S
C1586 O1564 1.264 . S
C1586 O1565 1.254 . S
C1587 Eu1523 2.848 . S
C1587 O1562 1.257 . S
C1587 O1567 1.249 . S
C1587 C1580 1.492 . S
H1588 C1571 0.930 . S
H1589 C1572 0.930 . S
H1590 C1573 0.930 . S
H1591 C1574 0.930 . S
H1592 C1581 0.930 . S
H1593 C1583 0.930 . S
H1594 C1584 0.930 . S
H1595 C1585 0.930 . S
Eu1596 N1627 2.657 . S
Eu1596 N1634 2.609 . S
Eu1596 O1640 2.558 . S
Eu1596 O1641 2.612 . S
Eu1596 O1643 2.339 . S
Eu1596 O1644 2.563 . S
Eu1596 O1645 2.419 . S
Eu1596 O1647 2.380 . S
Eu1596 O1648 2.432 . S
Eu1596 C1660 2.848 . S
C1597 C1600 1.429 . S
C1597 C1601 1.411 . S
C1597 N1604 1.377 . S
C1598 C1600 1.420 . S
C1598 C1602 1.423 . S
C1598 C1610 1.392 . S
C1599 C1601 1.420 . S
C1599 C1602 1.351 . S
C1599 H1622 0.931 . S
C1600 C1597 1.429 . S
C1600 C1598 1.420 . S
C1600 N1608 1.362 . S
C1601 C1597 1.411 . S
C1601 C1599 1.420 . S
C1601 C1606 1.395 . S
C1602 C1598 1.423 . S
C1602 C1599 1.351 . S
C1602 H1614 0.930 . S
C1603 C1605 1.396 1_455 S
C1603 C1606 1.396 . S
C1603 H1615 0.923 1_455 S
N1604 C1597 1.377 . S
N1604 C1605 1.321 1_455 S
N1604 Eu1607 2.609 1_455 S
C1605 C1603 1.396 1_655 S
C1605 N1604 1.321 1_655 S
C1605 H1612 0.930 . S
C1606 C1601 1.395 . S
C1606 C1603 1.396 . S
C1606 H1625 0.930 . S
Eu1607 N1604 2.609 1_655 S
Eu1607 N1608 2.657 1_655 S
Eu1607 O1641 2.380 . S
Eu1607 O1642 2.432 . S
Eu1607 O1646 2.558 1_655 S
Eu1607 O1647 2.612 . S
Eu1607 O1649 2.329 1_655 S
Eu1607 O1650 2.563 . S
Eu1607 O1651 2.419 1_655 S
Eu1607 C1671 2.848 1_655 S
N1608 C1600 1.362 . S
N1608 Eu1607 2.657 1_455 S
N1608 C1609 1.334 . S
C1609 N1608 1.334 . S
C1609 C1611 1.413 . S
C1609 H1616 0.929 . S
C1610 C1598 1.392 . S
C1610 C1611 1.367 . S
C1610 H1618 0.930 . S
C1611 C1609 1.413 . S
C1611 C1610 1.367 . S
C1611 H1613 0.930 . S
H1612 C1605 0.930 . S
H1613 C1611 0.930 . S
H1614 C1602 0.930 . S
H1615 C1603 0.923 1_655 S
H1616 C1609 0.929 . S
H1617 C1631 0.930 . S
H1618 C1610 0.930 . S
H1619 C1637 0.930 . S
H1620 C1628 0.929 . S
H1621 C1635 0.930 . S
H1622 C1599 0.931 . S
H1623 C1629 0.930 . S
H1624 C1662 0.930 . S
H1625 C1606 0.930 . S
H1626 C1661 0.931 . S
N1627 Eu1596 2.657 . S
N1627 C1628 1.334 . S
N1627 C1632 1.362 . S
C1628 H1620 0.929 . S
C1628 N1627 1.334 . S
C1628 C1631 1.413 . S
C1629 H1623 0.930 . S
C1629 C1630 1.392 . S
C1629 C1631 1.367 . S
C1630 C1629 1.392 . S
C1630 C1632 1.420 . S
C1630 C1662 1.423 . S
C1631 H1617 0.930 . S
C1631 C1628 1.413 . S
C1631 C1629 1.367 . S
C1632 N1627 1.362 . S
C1632 C1630 1.420 . S
C1632 C1636 1.429 . S
H1633 C1638 0.930 . S
N1634 Eu1596 2.609 . S
N1634 C1636 1.377 . S
N1634 C1637 1.321 . S
C1635 H1621 0.930 . S
C1635 C1637 1.400 . S
C1635 C1638 1.386 . S
C1636 C1632 1.429 . S
C1636 N1634 1.377 . S
C1636 C1639 1.411 . S
C1637 H1619 0.930 . S
C1637 N1634 1.321 . S
C1637 C1635 1.400 . S
C1638 H1633 0.930 . S
C1638 C1635 1.386 . S
C1638 C1639 1.395 . S
C1639 C1636 1.411 . S
C1639 C1638 1.395 . S
C1639 C1661 1.420 . S
O1640 Eu1596 2.558 . S
O1640 C1660 1.257 . S
O1641 Eu1596 2.612 . S
O1641 Eu1607 2.380 . S
O1641 C1652 1.276 . S
O1642 Eu1607 2.432 . S
O1642 C1659 1.264 . S
O1643 Eu1596 2.339 . S
O1643 C1659 1.254 . S
O1644 Eu1596 2.563 . S
O1644 C1652 1.235 . S
O1645 Eu1596 2.419 . S
O1645 C1660 1.249 . S
O1646 Eu1607 2.558 1_455 S
O1646 C1671 1.257 . S
O1647 Eu1596 2.380 . S
O1647 Eu1607 2.612 . S
O1647 C1663 1.276 . S
O1648 Eu1596 2.432 . S
O1648 C1670 1.264 . S
O1649 Eu1607 2.329 1_455 S
O1649 C1670 1.242 1_455 S
O1650 Eu1607 2.563 . S
O1650 C1663 1.235 . S
O1651 Eu1607 2.419 1_455 S
O1651 C1671 1.249 . S
C1652 O1641 1.276 . S
C1652 O1644 1.235 . S
C1653 C1655 1.393 . S
C1653 C1657 1.395 . S
C1653 C1660 1.492 . S
C1654 C1655 1.392 . S
C1654 C1656 1.386 . S
C1655 C1653 1.393 . S
C1655 C1654 1.392 . S
C1655 H1672 0.930 . S
C1656 C1654 1.386 . S
C1656 C1658 1.395 . S
C1656 H1673 0.930 . S
C1657 C1653 1.395 . S
C1657 C1658 1.379 . S
C1657 H1674 0.930 . S
C1658 C1656 1.395 . S
C1658 C1657 1.379 . S
C1658 H1675 0.930 . S
C1659 O1642 1.264 . S
C1659 O1643 1.254 . S
C1660 Eu1596 2.848 . S
C1660 O1640 1.257 . S
C1660 O1645 1.249 . S
C1660 C1653 1.492 . S
C1661 H1626 0.931 . S
C1661 C1639 1.420 . S
C1661 C1662 1.351 . S
C1662 H1624 0.930 . S
C1662 C1630 1.423 . S
C1662 C1661 1.351 . S
C1663 O1647 1.276 . S
C1663 O1650 1.235 . S
C1664 C1665 1.393 . S
C1664 C1668 1.395 . S
C1664 C1671 1.492 . S
C1665 C1664 1.393 . S
C1665 C1666 1.392 . S
C1665 H1676 0.930 . S
C1666 C1665 1.392 . S
C1666 C1667 1.386 . S
C1667 C1666 1.386 . S
C1667 C1669 1.395 . S
C1667 H1677 0.930 . S
C1668 C1664 1.395 . S
C1668 C1669 1.379 . S
C1668 H1678 0.930 . S
C1669 C1667 1.395 . S
C1669 C1668 1.379 . S
C1669 H1679 0.930 . S
C1670 O1648 1.264 . S
C1670 O1649 1.242 1_655 S
C1671 Eu1607 2.848 1_455 S
C1671 O1646 1.257 . S
C1671 O1651 1.249 . S
C1671 C1664 1.492 . S
H1672 C1655 0.930 . S
H1673 C1656 0.930 . S
H1674 C1657 0.930 . S
H1675 C1658 0.930 . S
H1676 C1665 0.930 . S
H1677 C1667 0.930 . S
H1678 C1668 0.930 . S
H1679 C1669 0.930 . S
Eu1680 N1711 2.657 . S
Eu1680 N1718 2.609 . S
Eu1680 O1724 2.558 . S
Eu1680 O1725 2.612 . S
Eu1680 O1727 2.339 . S
Eu1680 O1728 2.563 . S
Eu1680 O1729 2.419 . S
Eu1680 O1731 2.380 . S
Eu1680 O1732 2.432 . S
Eu1680 C1744 2.848 . S
C1681 C1684 1.429 . S
C1681 C1685 1.411 . S
C1681 N1688 1.377 . S
C1682 C1684 1.420 . S
C1682 C1686 1.423 . S
C1682 C1694 1.392 . S
C1683 C1685 1.420 . S
C1683 C1686 1.351 . S
C1683 H1706 0.931 . S
C1684 C1681 1.429 . S
C1684 C1682 1.420 . S
C1684 N1692 1.362 . S
C1685 C1681 1.411 . S
C1685 C1683 1.420 . S
C1685 C1690 1.395 . S
C1686 C1682 1.423 . S
C1686 C1683 1.351 . S
C1686 H1698 0.930 . S
C1687 C1689 1.400 . S
C1687 C1690 1.386 . S
C1687 H1699 0.930 . S
N1688 C1681 1.377 . S
N1688 C1689 1.321 . S
N1688 Eu1691 2.609 . S
C1689 C1687 1.400 . S
C1689 N1688 1.321 . S
C1689 H1696 0.930 . S
C1690 C1685 1.395 . S
C1690 C1687 1.386 . S
C1690 H1709 0.930 . S
Eu1691 N1688 2.609 . S
Eu1691 N1692 2.657 . S
Eu1691 O1725 2.380 . S
Eu1691 O1726 2.432 . S
Eu1691 O1730 2.558 . S
Eu1691 O1731 2.612 . S
Eu1691 O1733 2.339 . S
Eu1691 O1734 2.563 . S
Eu1691 O1735 2.419 . S
Eu1691 C1755 2.848 . S
N1692 C1684 1.362 . S
N1692 Eu1691 2.657 . S
N1692 C1693 1.334 . S
C1693 N1692 1.334 . S
C1693 C1695 1.413 . S
C1693 H1700 0.929 . S
C1694 C1682 1.392 . S
C1694 C1695 1.367 . S
C1694 H1702 0.930 . S
C1695 C1693 1.413 . S
C1695 C1694 1.367 . S
C1695 H1697 0.930 . S
H1696 C1689 0.930 . S
H1697 C1695 0.930 . S
H1698 C1686 0.930 . S
H1699 C1687 0.930 . S
H1700 C1693 0.929 . S
H1701 C1715 0.930 . S
H1702 C1694 0.930 . S
H1703 C1721 0.930 . S
H1704 C1712 0.929 . S
H1705 C1719 0.930 . S
H1706 C1683 0.931 . S
H1707 C1713 0.930 . S
H1708 C1746 0.930 . S
H1709 C1690 0.930 . S
H1710 C1745 0.931 . S
N1711 Eu1680 2.657 . S
N1711 C1712 1.334 . S
N1711 C1716 1.362 . S
C1712 H1704 0.929 . S
C1712 N1711 1.334 . S
C1712 C1715 1.413 . S
C1713 H1707 0.930 . S
C1713 C1714 1.392 . S
C1713 C1715 1.367 . S
C1714 C1713 1.392 . S
C1714 C1716 1.420 . S
C1714 C1746 1.423 . S
C1715 H1701 0.930 . S
C1715 C1712 1.413 . S
C1715 C1713 1.367 . S
C1716 N1711 1.362 . S
C1716 C1714 1.420 . S
C1716 C1720 1.429 . S
H1717 C1722 0.930 . S
N1718 Eu1680 2.609 . S
N1718 C1720 1.377 . S
N1718 C1721 1.321 . S
C1719 H1705 0.930 . S
C1719 C1721 1.400 . S
C1719 C1722 1.386 . S
C1720 C1716 1.429 . S
C1720 N1718 1.377 . S
C1720 C1723 1.411 . S
C1721 H1703 0.930 . S
C1721 N1718 1.321 . S
C1721 C1719 1.400 . S
C1722 H1717 0.930 . S
C1722 C1719 1.386 . S
C1722 C1723 1.395 . S
C1723 C1720 1.411 . S
C1723 C1722 1.395 . S
C1723 C1745 1.420 . S
O1724 Eu1680 2.558 . S
O1724 C1744 1.257 . S
O1725 Eu1680 2.612 . S
O1725 Eu1691 2.380 . S
O1725 C1736 1.276 . S
O1726 Eu1691 2.432 . S
O1726 C1743 1.264 . S
O1727 Eu1680 2.339 . S
O1727 C1743 1.254 . S
O1728 Eu1680 2.563 . S
O1728 C1736 1.235 . S
O1729 Eu1680 2.419 . S
O1729 C1744 1.249 . S
O1730 Eu1691 2.558 . S
O1730 C1755 1.257 . S
O1731 Eu1680 2.380 . S
O1731 Eu1691 2.612 . S
O1731 C1747 1.276 . S
O1732 Eu1680 2.432 . S
O1732 C1754 1.264 . S
O1733 Eu1691 2.339 . S
O1733 C1754 1.254 . S
O1734 Eu1691 2.563 . S
O1734 C1747 1.235 . S
O1735 Eu1691 2.419 . S
O1735 C1755 1.249 . S
C1736 O1725 1.276 . S
C1736 O1728 1.235 . S
C1737 C1739 1.393 . S
C1737 C1741 1.395 . S
C1737 C1744 1.492 . S
C1738 C1739 1.392 . S
C1738 C1740 1.386 . S
C1739 C1737 1.393 . S
C1739 C1738 1.392 . S
C1739 H1756 0.930 . S
C1740 C1738 1.386 . S
C1740 C1742 1.395 . S
C1740 H1757 0.930 . S
C1741 C1737 1.395 . S
C1741 C1742 1.379 . S
C1741 H1758 0.930 . S
C1742 C1740 1.395 . S
C1742 C1741 1.379 . S
C1742 H1759 0.930 . S
C1743 O1726 1.264 . S
C1743 O1727 1.254 . S
C1744 Eu1680 2.848 . S
C1744 O1724 1.257 . S
C1744 O1729 1.249 . S
C1744 C1737 1.492 . S
C1745 H1710 0.931 . S
C1745 C1723 1.420 . S
C1745 C1746 1.351 . S
C1746 H1708 0.930 . S
C1746 C1714 1.423 . S
C1746 C1745 1.351 . S
C1747 O1731 1.276 . S
C1747 O1734 1.235 . S
C1748 C1749 1.393 . S
C1748 C1752 1.395 . S
C1748 C1755 1.492 . S
C1749 C1748 1.393 . S
C1749 C1750 1.392 . S
C1749 H1760 0.930 . S
C1750 C1749 1.392 . S
C1750 C1751 1.386 . S
C1751 C1750 1.386 . S
C1751 C1753 1.395 . S
C1751 H1761 0.930 . S
C1752 C1748 1.395 . S
C1752 C1753 1.379 . S
C1752 H1762 0.930 . S
C1753 C1751 1.395 . S
C1753 C1752 1.379 . S
C1753 H1763 0.930 . S
C1754 O1732 1.264 . S
C1754 O1733 1.254 . S
C1755 Eu1691 2.848 . S
C1755 O1730 1.257 . S
C1755 O1735 1.249 . S
C1755 C1748 1.492 . S
H1756 C1739 0.930 . S
H1757 C1740 0.930 . S
H1758 C1741 0.930 . S
H1759 C1742 0.930 . S
H1760 C1749 0.930 . S
H1761 C1751 0.930 . S
H1762 C1752 0.930 . S
H1763 C1753 0.930 . S
Eu1764 N1795 2.657 . S
Eu1764 N1802 2.609 . S
Eu1764 O1808 2.558 . S
Eu1764 O1809 2.612 . S
Eu1764 O1811 2.339 . S
Eu1764 O1812 2.563 . S
Eu1764 O1813 2.419 . S
Eu1764 O1815 2.380 . S
Eu1764 O1816 2.432 . S
Eu1764 C1828 2.848 . S
C1765 C1768 1.429 . S
C1765 C1769 1.411 . S
C1765 N1772 1.377 . S
C1766 C1768 1.420 . S
C1766 C1770 1.423 . S
C1766 C1778 1.392 . S
C1767 C1769 1.420 . S
C1767 C1770 1.351 . S
C1767 H1790 0.931 . S
C1768 C1765 1.429 . S
C1768 C1766 1.420 . S
C1768 N1776 1.362 . S
C1769 C1765 1.411 . S
C1769 C1767 1.420 . S
C1769 C1774 1.395 . S
C1770 C1766 1.423 . S
C1770 C1767 1.351 . S
C1770 H1782 0.930 . S
C1771 C1773 1.400 . S
C1771 C1774 1.386 . S
C1771 H1783 0.930 . S
N1772 C1765 1.377 . S
N1772 C1773 1.321 . S
N1772 Eu1775 2.609 . S
C1773 C1771 1.400 . S
C1773 N1772 1.321 . S
C1773 H1780 0.930 . S
C1774 C1769 1.395 . S
C1774 C1771 1.386 . S
C1774 H1793 0.930 . S
Eu1775 N1772 2.609 . S
Eu1775 N1776 2.657 . S
Eu1775 O1809 2.380 . S
Eu1775 O1810 2.432 . S
Eu1775 O1814 2.558 . S
Eu1775 O1815 2.612 . S
Eu1775 O1817 2.339 . S
Eu1775 O1818 2.563 . S
Eu1775 O1819 2.419 . S
Eu1775 C1839 2.848 . S
N1776 C1768 1.362 . S
N1776 Eu1775 2.657 . S
N1776 C1777 1.334 . S
C1777 N1776 1.334 . S
C1777 C1779 1.413 . S
C1777 H1784 0.929 . S
C1778 C1766 1.392 . S
C1778 C1779 1.367 . S
C1778 H1786 0.930 . S
C1779 C1777 1.413 . S
C1779 C1778 1.367 . S
C1779 H1781 0.930 . S
H1780 C1773 0.930 . S
H1781 C1779 0.930 . S
H1782 C1770 0.930 . S
H1783 C1771 0.930 . S
H1784 C1777 0.929 . S
H1785 C1799 0.930 . S
H1786 C1778 0.930 . S
H1787 C1805 0.930 . S
H1788 C1796 0.929 . S
H1789 C1803 0.930 . S
H1790 C1767 0.931 . S
H1791 C1797 0.930 . S
H1792 C1830 0.930 . S
H1793 C1774 0.930 . S
H1794 C1829 0.931 . S
N1795 Eu1764 2.657 . S
N1795 C1796 1.334 . S
N1795 C1800 1.362 . S
C1796 H1788 0.929 . S
C1796 N1795 1.334 . S
C1796 C1799 1.413 . S
C1797 H1791 0.930 . S
C1797 C1798 1.392 . S
C1797 C1799 1.367 . S
C1798 C1797 1.392 . S
C1798 C1800 1.420 . S
C1798 C1830 1.423 . S
C1799 H1785 0.930 . S
C1799 C1796 1.413 . S
C1799 C1797 1.367 . S
C1800 N1795 1.362 . S
C1800 C1798 1.420 . S
C1800 C1804 1.429 . S
H1801 C1806 0.930 . S
N1802 Eu1764 2.609 . S
N1802 C1804 1.377 . S
N1802 C1805 1.321 . S
C1803 H1789 0.930 . S
C1803 C1805 1.400 . S
C1803 C1806 1.386 . S
C1804 C1800 1.429 . S
C1804 N1802 1.377 . S
C1804 C1807 1.411 . S
C1805 H1787 0.930 . S
C1805 N1802 1.321 . S
C1805 C1803 1.400 . S
C1806 H1801 0.930 . S
C1806 C1803 1.386 . S
C1806 C1807 1.395 . S
C1807 C1804 1.411 . S
C1807 C1806 1.395 . S
C1807 C1829 1.420 . S
O1808 Eu1764 2.558 . S
O1808 C1828 1.257 . S
O1809 Eu1764 2.612 . S
O1809 Eu1775 2.380 . S
O1809 C1820 1.276 . S
O1810 Eu1775 2.432 . S
O1810 C1827 1.264 . S
O1811 Eu1764 2.339 . S
O1811 C1827 1.254 . S
O1812 Eu1764 2.563 . S
O1812 C1820 1.235 . S
O1813 Eu1764 2.419 . S
O1813 C1828 1.249 . S
O1814 Eu1775 2.558 . S
O1814 C1839 1.257 . S
O1815 Eu1764 2.380 . S
O1815 Eu1775 2.612 . S
O1815 C1831 1.276 . S
O1816 Eu1764 2.432 . S
O1816 C1838 1.264 . S
O1817 Eu1775 2.339 . S
O1817 C1838 1.254 . S
O1818 Eu1775 2.563 . S
O1818 C1831 1.235 . S
O1819 Eu1775 2.419 . S
O1819 C1839 1.249 . S
C1820 O1809 1.276 . S
C1820 O1812 1.235 . S
C1821 C1823 1.393 . S
C1821 C1825 1.395 . S
C1821 C1828 1.492 . S
C1822 C1823 1.392 . S
C1822 C1824 1.386 . S
C1823 C1821 1.393 . S
C1823 C1822 1.392 . S
C1823 H1840 0.930 . S
C1824 C1822 1.386 . S
C1824 C1826 1.395 . S
C1824 H1841 0.930 . S
C1825 C1821 1.395 . S
C1825 C1826 1.379 . S
C1825 H1842 0.930 . S
C1826 C1824 1.395 . S
C1826 C1825 1.379 . S
C1826 H1843 0.930 . S
C1827 O1810 1.264 . S
C1827 O1811 1.254 . S
C1828 Eu1764 2.848 . S
C1828 O1808 1.257 . S
C1828 O1813 1.249 . S
C1828 C1821 1.492 . S
C1829 H1794 0.931 . S
C1829 C1807 1.420 . S
C1829 C1830 1.351 . S
C1830 H1792 0.930 . S
C1830 C1798 1.423 . S
C1830 C1829 1.351 . S
C1831 O1815 1.276 . S
C1831 O1818 1.235 . S
C1832 C1833 1.393 . S
C1832 C1836 1.395 . S
C1832 C1839 1.492 . S
C1833 C1832 1.393 . S
C1833 C1834 1.392 . S
C1833 H1844 0.930 . S
C1834 C1833 1.392 . S
C1834 C1835 1.386 . S
C1835 C1834 1.386 . S
C1835 C1837 1.395 . S
C1835 H1845 0.930 . S
C1836 C1832 1.395 . S
C1836 C1837 1.379 . S
C1836 H1846 0.930 . S
C1837 C1835 1.395 . S
C1837 C1836 1.379 . S
C1837 H1847 0.930 . S
C1838 O1816 1.264 . S
C1838 O1817 1.254 . S
C1839 Eu1775 2.848 . S
C1839 O1814 1.257 . S
C1839 O1819 1.249 . S
C1839 C1832 1.492 . S
H1840 C1823 0.930 . S
H1841 C1824 0.930 . S
H1842 C1825 0.930 . S
H1843 C1826 0.930 . S
H1844 C1833 0.930 . S
H1845 C1835 0.930 . S
H1846 C1836 0.930 . S
H1847 C1837 0.930 . S
Eu1848 N1879 2.657 . S
Eu1848 N1886 2.609 . S
Eu1848 O1892 2.558 . S
Eu1848 O1893 2.612 . S
Eu1848 O1895 2.339 . S
Eu1848 O1896 2.563 . S
Eu1848 O1897 2.419 . S
Eu1848 O1899 2.380 . S
Eu1848 O1900 2.432 . S
Eu1848 C1912 2.848 . S
C1849 C1852 1.429 . S
C1849 C1853 1.411 . S
C1849 N1856 1.377 . S
C1850 C1852 1.420 . S
C1850 C1854 1.423 . S
C1850 C1862 1.392 . S
C1851 C1853 1.420 . S
C1851 C1854 1.351 . S
C1851 H1874 0.931 . S
C1852 C1849 1.429 . S
C1852 C1850 1.420 . S
C1852 N1860 1.362 . S
C1853 C1849 1.411 . S
C1853 C1851 1.420 . S
C1853 C1858 1.395 . S
C1854 C1850 1.423 . S
C1854 C1851 1.351 . S
C1854 H1866 0.930 . S
C1855 C1857 1.394 1_556 S
C1855 C1858 1.401 . S
C1855 H1867 0.921 1_556 S
N1856 C1849 1.377 . S
N1856 C1857 1.321 1_556 S
N1856 Eu1859 2.609 1_556 S
C1857 C1855 1.394 1_554 S
C1857 N1856 1.321 1_554 S
C1857 H1864 0.930 . S
C1858 C1853 1.395 . S
C1858 C1855 1.401 . S
C1858 H1877 0.930 . S
Eu1859 N1856 2.609 1_554 S
Eu1859 N1860 2.657 1_554 S
Eu1859 O1893 2.380 . S
Eu1859 O1894 2.432 . S
Eu1859 O1898 2.558 1_554 S
Eu1859 O1899 2.612 . S
Eu1859 O1901 2.323 1_554 S
Eu1859 O1902 2.563 . S
Eu1859 O1903 2.419 1_554 S
Eu1859 C1923 2.848 1_554 S
N1860 C1852 1.362 . S
N1860 Eu1859 2.657 1_556 S
N1860 C1861 1.334 . S
C1861 N1860 1.334 . S
C1861 C1863 1.413 . S
C1861 H1868 0.929 . S
C1862 C1850 1.392 . S
C1862 C1863 1.367 . S
C1862 H1870 0.930 . S
C1863 C1861 1.413 . S
C1863 C1862 1.367 . S
C1863 H1865 0.930 . S
H1864 C1857 0.930 . S
H1865 C1863 0.930 . S
H1866 C1854 0.930 . S
H1867 C1855 0.921 1_554 S
H1868 C1861 0.929 . S
H1869 C1883 0.930 . S
H1870 C1862 0.930 . S
H1871 C1889 0.930 . S
H1872 C1880 0.929 . S
H1873 C1887 0.930 . S
H1874 C1851 0.931 . S
H1875 C1881 0.930 . S
H1876 C1914 0.930 . S
H1877 C1858 0.930 . S
H1878 C1913 0.931 . S
N1879 Eu1848 2.657 . S
N1879 C1880 1.334 . S
N1879 C1884 1.362 . S
C1880 H1872 0.929 . S
C1880 N1879 1.334 . S
C1880 C1883 1.413 . S
C1881 H1875 0.930 . S
C1881 C1882 1.392 . S
C1881 C1883 1.367 . S
C1882 C1881 1.392 . S
C1882 C1884 1.420 . S
C1882 C1914 1.423 . S
C1883 H1869 0.930 . S
C1883 C1880 1.413 . S
C1883 C1881 1.367 . S
C1884 N1879 1.362 . S
C1884 C1882 1.420 . S
C1884 C1888 1.429 . S
H1885 C1890 0.930 . S
N1886 Eu1848 2.609 . S
N1886 C1888 1.377 . S
N1886 C1889 1.321 . S
C1887 H1873 0.930 . S
C1887 C1889 1.400 . S
C1887 C1890 1.386 . S
C1888 C1884 1.429 . S
C1888 N1886 1.377 . S
C1888 C1891 1.411 . S
C1889 H1871 0.930 . S
C1889 N1886 1.321 . S
C1889 C1887 1.400 . S
C1890 H1885 0.930 . S
C1890 C1887 1.386 . S
C1890 C1891 1.395 . S
C1891 C1888 1.411 . S
C1891 C1890 1.395 . S
C1891 C1913 1.420 . S
O1892 Eu1848 2.558 . S
O1892 C1912 1.257 . S
O1893 Eu1848 2.612 . S
O1893 Eu1859 2.380 . S
O1893 C1904 1.276 . S
O1894 Eu1859 2.432 . S
O1894 C1911 1.264 . S
O1895 Eu1848 2.339 . S
O1895 C1911 1.254 . S
O1896 Eu1848 2.563 . S
O1896 C1904 1.235 . S
O1897 Eu1848 2.419 . S
O1897 C1912 1.249 . S
O1898 Eu1859 2.558 1_556 S
O1898 C1923 1.257 . S
O1899 Eu1848 2.380 . S
O1899 Eu1859 2.612 . S
O1899 C1915 1.276 . S
O1900 Eu1848 2.432 . S
O1900 C1922 1.264 . S
O1901 Eu1859 2.323 1_556 S
O1901 C1922 1.235 1_556 S
O1902 Eu1859 2.563 . S
O1902 C1915 1.235 . S
O1903 Eu1859 2.419 1_556 S
O1903 C1923 1.249 . S
C1904 O1893 1.276 . S
C1904 O1896 1.235 . S
C1905 C1907 1.393 . S
C1905 C1909 1.395 . S
C1905 C1912 1.492 . S
C1906 C1907 1.392 . S
C1906 C1908 1.386 . S
C1907 C1905 1.393 . S
C1907 C1906 1.392 . S
C1907 H1924 0.930 . S
C1908 C1906 1.386 . S
C1908 C1910 1.395 . S
C1908 H1925 0.930 . S
C1909 C1905 1.395 . S
C1909 C1910 1.379 . S
C1909 H1926 0.930 . S
C1910 C1908 1.395 . S
C1910 C1909 1.379 . S
C1910 H1927 0.930 . S
C1911 O1894 1.264 . S
C1911 O1895 1.254 . S
C1912 Eu1848 2.848 . S
C1912 O1892 1.257 . S
C1912 O1897 1.249 . S
C1912 C1905 1.492 . S
C1913 H1878 0.931 . S
C1913 C1891 1.420 . S
C1913 C1914 1.351 . S
C1914 H1876 0.930 . S
C1914 C1882 1.423 . S
C1914 C1913 1.351 . S
C1915 O1899 1.276 . S
C1915 O1902 1.235 . S
C1916 C1917 1.393 . S
C1916 C1920 1.395 . S
C1916 C1923 1.492 . S
C1917 C1916 1.393 . S
C1917 C1918 1.392 . S
C1917 H1928 0.930 . S
C1918 C1917 1.392 . S
C1918 C1919 1.386 . S
C1919 C1918 1.386 . S
C1919 C1921 1.395 . S
C1919 H1929 0.930 . S
C1920 C1916 1.395 . S
C1920 C1921 1.379 . S
C1920 H1930 0.930 . S
C1921 C1919 1.395 . S
C1921 C1920 1.379 . S
C1921 H1931 0.930 . S
C1922 O1900 1.264 . S
C1922 O1901 1.235 1_554 S
C1923 Eu1859 2.848 1_556 S
C1923 O1898 1.257 . S
C1923 O1903 1.249 . S
C1923 C1916 1.492 . S
H1924 C1907 0.930 . S
H1925 C1908 0.930 . S
H1926 C1909 0.930 . S
H1927 C1910 0.930 . S
H1928 C1917 0.930 . S
H1929 C1919 0.930 . S
H1930 C1920 0.930 . S
H1931 C1921 0.930 . S
Eu1932 N1963 2.657 . S
Eu1932 N1970 2.609 . S
Eu1932 O1976 2.558 . S
Eu1932 O1977 2.612 . S
Eu1932 O1979 2.339 . S
Eu1932 O1980 2.563 . S
Eu1932 O1981 2.419 . S
Eu1932 O1983 2.380 . S
Eu1932 O1984 2.432 . S
Eu1932 C1996 2.848 . S
C1933 C1936 1.429 . S
C1933 C1937 1.411 . S
C1933 N1940 1.377 . S
C1934 C1936 1.420 . S
C1934 C1938 1.423 . S
C1934 C1946 1.392 . S
C1935 C1937 1.420 . S
C1935 C1938 1.351 . S
C1935 H1958 0.931 . S
C1936 C1933 1.429 . S
C1936 C1934 1.420 . S
C1936 N1944 1.362 . S
C1937 C1933 1.411 . S
C1937 C1935 1.420 . S
C1937 C1942 1.395 . S
C1938 C1934 1.423 . S
C1938 C1935 1.351 . S
C1938 H1950 0.930 . S
C1939 C1941 1.397 1_545 S
C1939 C1942 1.391 . S
C1939 H1951 0.927 1_545 S
N1940 C1933 1.377 . S
N1940 C1941 1.321 1_545 S
N1940 Eu1943 2.609 1_545 S
C1941 C1939 1.397 1_565 S
C1941 N1940 1.321 1_565 S
C1941 H1948 0.930 . S
C1942 C1937 1.395 . S
C1942 C1939 1.391 . S
C1942 H1961 0.930 . S
Eu1943 N1940 2.609 1_565 S
Eu1943 N1944 2.657 1_565 S
Eu1943 O1977 2.380 . S
Eu1943 O1978 2.432 . S
Eu1943 O1982 2.545 1_565 S
Eu1943 O1983 2.612 . S
Eu1943 O1985 2.332 1_565 S
Eu1943 O1986 2.563 . S
Eu1943 O1987 2.419 1_565 S
Eu1943 C2007 2.848 1_565 S
N1944 C1936 1.362 . S
N1944 Eu1943 2.657 1_545 S
N1944 C1945 1.334 . S
C1945 N1944 1.334 . S
C1945 C1947 1.413 . S
C1945 H1952 0.929 . S
C1946 C1934 1.392 . S
C1946 C1947 1.367 . S
C1946 H1954 0.930 . S
C1947 C1945 1.413 . S
C1947 C1946 1.367 . S
C1947 H1949 0.930 . S
H1948 C1941 0.930 . S
H1949 C1947 0.930 . S
H1950 C1938 0.930 . S
H1951 C1939 0.927 1_565 S
H1952 C1945 0.929 . S
H1953 C1967 0.930 . S
H1954 C1946 0.930 . S
H1955 C1973 0.930 . S
H1956 C1964 0.929 . S
H1957 C1971 0.930 . S
H1958 C1935 0.931 . S
H1959 C1965 0.930 . S
H1960 C1998 0.930 . S
H1961 C1942 0.930 . S
H1962 C1997 0.931 . S
N1963 Eu1932 2.657 . S
N1963 C1964 1.334 . S
N1963 C1968 1.362 . S
C1964 H1956 0.929 . S
C1964 N1963 1.334 . S
C1964 C1967 1.413 . S
C1965 H1959 0.930 . S
C1965 C1966 1.392 . S
C1965 C1967 1.367 . S
C1966 C1965 1.392 . S
C1966 C1968 1.420 . S
C1966 C1998 1.423 . S
C1967 H1953 0.930 . S
C1967 C1964 1.413 . S
C1967 C1965 1.367 . S
C1968 N1963 1.362 . S
C1968 C1966 1.420 . S
C1968 C1972 1.429 . S
H1969 C1974 0.930 . S
N1970 Eu1932 2.609 . S
N1970 C1972 1.377 . S
N1970 C1973 1.321 . S
C1971 H1957 0.930 . S
C1971 C1973 1.400 . S
C1971 C1974 1.386 . S
C1972 C1968 1.429 . S
C1972 N1970 1.377 . S
C1972 C1975 1.411 . S
C1973 H1955 0.930 . S
C1973 N1970 1.321 . S
C1973 C1971 1.400 . S
C1974 H1969 0.930 . S
C1974 C1971 1.386 . S
C1974 C1975 1.395 . S
C1975 C1972 1.411 . S
C1975 C1974 1.395 . S
C1975 C1997 1.420 . S
O1976 Eu1932 2.558 . S
O1976 C1996 1.257 . S
O1977 Eu1932 2.612 . S
O1977 Eu1943 2.380 . S
O1977 C1988 1.276 . S
O1978 Eu1943 2.432 . S
O1978 C1995 1.264 . S
O1979 Eu1932 2.339 . S
O1979 C1995 1.254 . S
O1980 Eu1932 2.563 . S
O1980 C1988 1.235 . S
O1981 Eu1932 2.419 . S
O1981 C1996 1.249 . S
O1982 Eu1943 2.545 1_545 S
O1982 C2007 1.296 . S
O1983 Eu1932 2.380 . S
O1983 Eu1943 2.612 . S
O1983 C1999 1.276 . S
O1984 Eu1932 2.432 . S
O1984 C2006 1.264 . S
O1985 Eu1943 2.332 1_545 S
O1985 C2006 1.246 1_545 S
O1986 Eu1943 2.563 . S
O1986 C1999 1.235 . S
O1987 Eu1943 2.419 1_545 S
O1987 C2007 1.249 . S
C1988 O1977 1.276 . S
C1988 O1980 1.235 . S
C1989 C1991 1.393 . S
C1989 C1993 1.395 . S
C1989 C1996 1.492 . S
C1990 C1991 1.392 . S
C1990 C1992 1.386 . S
C1991 C1989 1.393 . S
C1991 C1990 1.392 . S
C1991 H2008 0.930 . S
C1992 C1990 1.386 . S
C1992 C1994 1.395 . S
C1992 H2009 0.930 . S
C1993 C1989 1.395 . S
C1993 C1994 1.379 . S
C1993 H2010 0.930 . S
C1994 C1992 1.395 . S
C1994 C1993 1.379 . S
C1994 H2011 0.930 . S
C1995 O1978 1.264 . S
C1995 O1979 1.254 . S
C1996 Eu1932 2.848 . S
C1996 O1976 1.257 . S
C1996 O1981 1.249 . S
C1996 C1989 1.492 . S
C1997 H1962 0.931 . S
C1997 C1975 1.420 . S
C1997 C1998 1.351 . S
C1998 H1960 0.930 . S
C1998 C1966 1.423 . S
C1998 C1997 1.351 . S
C1999 O1983 1.276 . S
C1999 O1986 1.235 . S
C2000 C2001 1.393 . S
C2000 C2004 1.395 . S
C2000 C2007 1.492 . S
C2001 C2000 1.393 . S
C2001 C2002 1.392 . S
C2001 H2012 0.930 . S
C2002 C2001 1.392 . S
C2002 C2003 1.386 . S
C2003 C2002 1.386 . S
C2003 C2005 1.395 . S
C2003 H2013 0.930 . S
C2004 C2000 1.395 . S
C2004 C2005 1.379 . S
C2004 H2014 0.930 . S
C2005 C2003 1.395 . S
C2005 C2004 1.379 . S
C2005 H2015 0.930 . S
C2006 O1984 1.264 . S
C2006 O1985 1.246 1_565 S
C2007 Eu1943 2.848 1_545 S
C2007 O1982 1.296 . S
C2007 O1987 1.249 . S
C2007 C2000 1.492 . S
H2008 C1991 0.930 . S
H2009 C1992 0.930 . S
H2010 C1993 0.930 . S
H2011 C1994 0.930 . S
H2012 C2001 0.930 . S
H2013 C2003 0.930 . S
H2014 C2004 0.930 . S
H2015 C2005 0.930 . S
Eu2016 N2047 2.657 . S
Eu2016 N2054 2.609 1_565 S
Eu2016 O2060 2.558 1_565 S
Eu2016 O2061 2.612 . S
Eu2016 O2063 2.339 . S
Eu2016 O2064 2.563 1_565 S
Eu2016 O2065 2.419 1_565 S
Eu2016 O2067 2.380 . S
Eu2016 O2068 2.432 . S
Eu2016 C2080 2.848 1_565 S
C2017 C2020 1.429 . S
C2017 C2021 1.411 . S
C2017 N2024 1.377 . S
C2018 C2020 1.420 . S
C2018 C2022 1.423 . S
C2018 C2030 1.392 . S
C2019 C2021 1.420 . S
C2019 C2022 1.351 . S
C2019 H2042 0.931 . S
C2020 C2017 1.429 . S
C2020 C2018 1.420 . S
C2020 N2028 1.362 . S
C2021 C2017 1.411 . S
C2021 C2019 1.420 . S
C2021 C2026 1.395 . S
C2022 C2018 1.423 . S
C2022 C2019 1.351 . S
C2022 H2034 0.930 . S
C2023 C2025 1.400 . S
C2023 C2026 1.386 . S
C2023 H2035 0.930 . S
N2024 C2017 1.377 . S
N2024 C2025 1.321 . S
N2024 Eu2027 2.609 . S
C2025 C2023 1.400 . S
C2025 N2024 1.321 . S
C2025 H2032 0.930 . S
C2026 C2021 1.395 . S
C2026 C2023 1.386 . S
C2026 H2045 0.930 . S
Eu2027 N2024 2.609 . S
Eu2027 N2028 2.657 . S
Eu2027 O2061 2.380 . S
Eu2027 O2062 2.432 . S
Eu2027 O2066 2.558 . S
Eu2027 O2067 2.612 . S
Eu2027 O2069 2.339 . S
Eu2027 O2070 2.563 . S
Eu2027 O2071 2.419 . S
Eu2027 C2091 2.848 . S
N2028 C2020 1.362 . S
N2028 Eu2027 2.657 . S
N2028 C2029 1.334 . S
C2029 N2028 1.334 . S
C2029 C2031 1.413 . S
C2029 H2036 0.929 . S
C2030 C2018 1.392 . S
C2030 C2031 1.367 . S
C2030 H2038 0.930 . S
C2031 C2029 1.413 . S
C2031 C2030 1.367 . S
C2031 H2033 0.930 1_565 S
H2032 C2025 0.930 . S
H2033 C2031 0.930 1_545 S
H2034 C2022 0.930 . S
H2035 C2023 0.930 . S
H2036 C2029 0.929 . S
H2037 C2051 0.930 . S
H2038 C2030 0.930 . S
H2039 C2057 0.930 . S
H2040 C2048 0.929 . S
H2041 C2055 0.930 . S
H2042 C2019 0.931 . S
H2043 C2049 0.930 . S
H2044 C2082 0.930 . S
H2045 C2026 0.930 . S
H2046 C2081 0.931 . S
N2047 Eu2016 2.657 . S
N2047 C2048 1.334 . S
N2047 C2052 1.362 . S
C2048 H2040 0.929 . S
C2048 N2047 1.334 . S
C2048 C2051 1.413 . S
C2049 H2043 0.930 . S
C2049 C2050 1.392 . S
C2049 C2051 1.367 . S
C2050 C2049 1.392 . S
C2050 C2052 1.420 . S
C2050 C2082 1.423 . S
C2051 H2037 0.930 . S
C2051 C2048 1.413 . S
C2051 C2049 1.367 . S
C2052 N2047 1.362 . S
C2052 C2050 1.420 . S
C2052 C2056 1.429 . S
H2053 C2058 0.930 . S
N2054 Eu2016 2.609 1_545 S
N2054 C2056 1.377 1_545 S
N2054 C2057 1.321 . S
C2055 H2041 0.930 . S
C2055 C2057 1.400 . S
C2055 C2058 1.386 . S
C2056 C2052 1.429 . S
C2056 N2054 1.377 1_565 S
C2056 C2059 1.409 1_565 S
C2057 H2039 0.930 . S
C2057 N2054 1.321 . S
C2057 C2055 1.400 . S
C2058 H2053 0.930 . S
C2058 C2055 1.386 . S
C2058 C2059 1.401 . S
C2059 C2056 1.409 1_545 S
C2059 C2058 1.401 . S
C2059 C2081 1.416 1_545 S
O2060 Eu2016 2.558 1_545 S
O2060 C2080 1.257 . S
O2061 Eu2016 2.612 . S
O2061 Eu2027 2.380 . S
O2061 C2072 1.276 . S
O2062 Eu2027 2.432 . S
O2062 C2079 1.264 . S
O2063 Eu2016 2.339 . S
O2063 C2079 1.254 . S
O2064 Eu2016 2.563 1_545 S
O2064 C2072 1.235 1_545 S
O2065 Eu2016 2.419 1_545 S
O2065 C2080 1.249 . S
O2066 Eu2027 2.558 . S
O2066 C2091 1.257 . S
O2067 Eu2016 2.380 . S
O2067 Eu2027 2.612 . S
O2067 C2083 1.276 . S
O2068 Eu2016 2.432 . S
O2068 C2090 1.264 . S
O2069 Eu2027 2.339 . S
O2069 C2090 1.254 . S
O2070 Eu2027 2.563 . S
O2070 C2083 1.235 . S
O2071 Eu2027 2.419 . S
O2071 C2091 1.249 . S
C2072 O2061 1.276 . S
C2072 O2064 1.235 1_565 S
C2073 C2075 1.393 . S
C2073 C2077 1.395 . S
C2073 C2080 1.492 . S
C2074 C2075 1.392 . S
C2074 C2076 1.386 . S
C2075 C2073 1.393 . S
C2075 C2074 1.392 . S
C2075 H2092 0.930 . S
C2076 C2074 1.386 . S
C2076 C2078 1.395 . S
C2076 H2093 0.930 . S
C2077 C2073 1.395 . S
C2077 C2078 1.379 . S
C2077 H2094 0.930 . S
C2078 C2076 1.395 . S
C2078 C2077 1.379 . S
C2078 H2095 0.930 . S
C2079 O2062 1.264 . S
C2079 O2063 1.254 . S
C2080 Eu2016 2.848 1_545 S
C2080 O2060 1.257 . S
C2080 O2065 1.249 . S
C2080 C2073 1.492 . S
C2081 H2046 0.931 . S
C2081 C2059 1.416 1_565 S
C2081 C2082 1.351 . S
C2082 H2044 0.930 . S
C2082 C2050 1.423 . S
C2082 C2081 1.351 . S
C2083 O2067 1.276 . S
C2083 O2070 1.235 . S
C2084 C2085 1.393 . S
C2084 C2088 1.395 . S
C2084 C2091 1.492 . S
C2085 C2084 1.393 . S
C2085 C2086 1.392 . S
C2085 H2096 0.930 . S
C2086 C2085 1.392 . S
C2086 C2087 1.386 . S
C2087 C2086 1.386 . S
C2087 C2089 1.395 . S
C2087 H2097 0.930 . S
C2088 C2084 1.395 . S
C2088 C2089 1.379 . S
C2088 H2098 0.930 . S
C2089 C2087 1.395 . S
C2089 C2088 1.379 . S
C2089 H2099 0.930 . S
C2090 O2068 1.264 . S
C2090 O2069 1.254 . S
C2091 Eu2027 2.848 . S
C2091 O2066 1.257 . S
C2091 O2071 1.249 . S
C2091 C2084 1.492 . S
H2092 C2075 0.930 . S
H2093 C2076 0.930 . S
H2094 C2077 0.930 . S
H2095 C2078 0.930 . S
H2096 C2085 0.930 . S
H2097 C2087 0.930 . S
H2098 C2088 0.930 . S
H2099 C2089 0.930 . S
Eu2100 N2131 2.657 . S
Eu2100 N2138 2.609 . S
Eu2100 O2144 2.558 . S
Eu2100 O2145 2.612 . S
Eu2100 O2147 2.339 . S
Eu2100 O2148 2.563 . S
Eu2100 O2149 2.419 . S
Eu2100 O2151 2.380 . S
Eu2100 O2152 2.432 . S
Eu2100 C2164 2.848 . S
C2101 C2104 1.429 . S
C2101 C2105 1.411 . S
C2101 N2108 1.377 . S
C2102 C2104 1.420 . S
C2102 C2106 1.423 . S
C2102 C2114 1.392 . S
C2103 C2105 1.420 . S
C2103 C2106 1.351 . S
C2103 H2126 0.931 . S
C2104 C2101 1.429 . S
C2104 C2102 1.420 . S
C2104 N2112 1.362 . S
C2105 C2101 1.411 . S
C2105 C2103 1.420 . S
C2105 C2110 1.395 . S
C2106 C2102 1.423 . S
C2106 C2103 1.351 . S
C2106 H2118 0.930 . S
C2107 C2109 1.396 1_565 S
C2107 C2110 1.396 . S
C2107 H2119 0.924 1_565 S
N2108 C2101 1.377 . S
N2108 C2109 1.321 1_565 S
N2108 Eu2111 2.609 1_565 S
C2109 C2107 1.396 1_545 S
C2109 N2108 1.321 1_545 S
C2109 H2116 0.930 . S
C2110 C2105 1.395 . S
C2110 C2107 1.396 . S
C2110 H2129 0.930 . S
Eu2111 N2108 2.609 1_545 S
Eu2111 N2112 2.657 1_545 S
Eu2111 O2145 2.380 . S
Eu2111 O2146 2.432 . S
Eu2111 O2150 2.558 1_545 S
Eu2111 O2151 2.612 . S
Eu2111 O2153 2.324 1_545 S
Eu2111 O2154 2.563 . S
Eu2111 O2155 2.419 1_545 S
Eu2111 C2175 2.848 1_545 S
N2112 C2104 1.362 . S
N2112 Eu2111 2.657 1_565 S
N2112 C2113 1.334 . S
C2113 N2112 1.334 . S
C2113 C2115 1.413 . S
C2113 H2120 0.929 . S
C2114 C2102 1.392 . S
C2114 C2115 1.367 . S
C2114 H2122 0.930 . S
C2115 C2113 1.413 . S
C2115 C2114 1.367 . S
C2115 H2117 0.930 . S
H2116 C2109 0.930 . S
H2117 C2115 0.930 . S
H2118 C2106 0.930 . S
H2119 C2107 0.924 1_545 S
H2120 C2113 0.929 . S
H2121 C2135 0.930 . S
H2122 C2114 0.930 . S
H2123 C2141 0.930 . S
H2124 C2132 0.929 . S
H2125 C2139 0.930 . S
H2126 C2103 0.931 . S
H2127 C2133 0.930 . S
H2128 C2166 0.930 . S
H2129 C2110 0.930 . S
H2130 C2165 0.931 . S
N2131 Eu2100 2.657 . S
N2131 C2132 1.334 . S
N2131 C2136 1.362 . S
C2132 H2124 0.929 . S
C2132 N2131 1.334 . S
C2132 C2135 1.413 . S
C2133 H2127 0.930 . S
C2133 C2134 1.392 . S
C2133 C2135 1.367 . S
C2134 C2133 1.392 . S
C2134 C2136 1.420 . S
C2134 C2166 1.423 . S
C2135 H2121 0.930 . S
C2135 C2132 1.413 . S
C2135 C2133 1.367 . S
C2136 N2131 1.362 . S
C2136 C2134 1.420 . S
C2136 C2140 1.429 . S
H2137 C2142 0.930 . S
N2138 Eu2100 2.609 . S
N2138 C2140 1.377 . S
N2138 C2141 1.321 . S
C2139 H2125 0.930 . S
C2139 C2141 1.400 . S
C2139 C2142 1.386 . S
C2140 C2136 1.429 . S
C2140 N2138 1.377 . S
C2140 C2143 1.411 . S
C2141 H2123 0.930 . S
C2141 N2138 1.321 . S
C2141 C2139 1.400 . S
C2142 H2137 0.930 . S
C2142 C2139 1.386 . S
C2142 C2143 1.395 . S
C2143 C2140 1.411 . S
C2143 C2142 1.395 . S
C2143 C2165 1.420 . S
O2144 Eu2100 2.558 . S
O2144 C2164 1.257 . S
O2145 Eu2100 2.612 . S
O2145 Eu2111 2.380 . S
O2145 C2156 1.276 . S
O2146 Eu2111 2.432 . S
O2146 C2163 1.264 . S
O2147 Eu2100 2.339 . S
O2147 C2163 1.254 . S
O2148 Eu2100 2.563 . S
O2148 C2156 1.235 . S
O2149 Eu2100 2.419 . S
O2149 C2164 1.249 . S
O2150 Eu2111 2.558 1_565 S
O2150 C2175 1.257 . S
O2151 Eu2100 2.380 . S
O2151 Eu2111 2.612 . S
O2151 C2167 1.276 . S
O2152 Eu2100 2.432 . S
O2152 C2174 1.264 . S
O2153 Eu2111 2.324 1_565 S
O2153 C2174 1.236 1_565 S
O2154 Eu2111 2.563 . S
O2154 C2167 1.235 . S
O2155 Eu2111 2.419 1_565 S
O2155 C2175 1.249 . S
C2156 O2145 1.276 . S
C2156 O2148 1.235 . S
C2157 C2159 1.393 . S
C2157 C2161 1.395 . S
C2157 C2164 1.492 . S
C2158 C2159 1.392 . S
C2158 C2160 1.386 . S
C2159 C2157 1.393 . S
C2159 C2158 1.392 . S
C2159 H2176 0.930 . S
C2160 C2158 1.386 . S
C2160 C2162 1.395 . S
C2160 H2177 0.930 . S
C2161 C2157 1.395 . S
C2161 C2162 1.379 . S
C2161 H2178 0.930 . S
C2162 C2160 1.395 . S
C2162 C2161 1.379 . S
C2162 H2179 0.930 . S
C2163 O2146 1.264 . S
C2163 O2147 1.254 . S
C2164 Eu2100 2.848 . S
C2164 O2144 1.257 . S
C2164 O2149 1.249 . S
C2164 C2157 1.492 . S
C2165 H2130 0.931 . S
C2165 C2143 1.420 . S
C2165 C2166 1.351 . S
C2166 H2128 0.930 . S
C2166 C2134 1.423 . S
C2166 C2165 1.351 . S
C2167 O2151 1.276 . S
C2167 O2154 1.235 . S
C2168 C2169 1.393 . S
C2168 C2172 1.395 . S
C2168 C2175 1.492 . S
C2169 C2168 1.393 . S
C2169 C2170 1.392 . S
C2169 H2180 0.930 . S
C2170 C2169 1.392 . S
C2170 C2171 1.386 . S
C2171 C2170 1.386 . S
C2171 C2173 1.395 . S
C2171 H2181 0.930 . S
C2172 C2168 1.395 . S
C2172 C2173 1.379 . S
C2172 H2182 0.930 . S
C2173 C2171 1.395 . S
C2173 C2172 1.379 . S
C2173 H2183 0.930 . S
C2174 O2152 1.264 . S
C2174 O2153 1.236 1_545 S
C2175 Eu2111 2.848 1_565 S
C2175 O2150 1.257 . S
C2175 O2155 1.249 . S
C2175 C2168 1.492 . S
H2176 C2159 0.930 . S
H2177 C2160 0.930 . S
H2178 C2161 0.930 . S
H2179 C2162 0.930 . S
H2180 C2169 0.930 . S
H2181 C2171 0.930 . S
H2182 C2172 0.930 . S
H2183 C2173 0.930 . S
Eu2184 N2215 2.657 . S
Eu2184 N2222 2.609 1_545 S
Eu2184 O2228 2.558 1_545 S
Eu2184 O2229 2.612 . S
Eu2184 O2231 2.339 . S
Eu2184 O2232 2.563 1_545 S
Eu2184 O2233 2.419 1_545 S
Eu2184 O2235 2.380 . S
Eu2184 O2236 2.432 . S
Eu2184 C2248 2.848 1_545 S
C2185 C2188 1.429 . S
C2185 C2189 1.411 . S
C2185 N2192 1.377 . S
C2186 C2188 1.420 . S
C2186 C2190 1.423 . S
C2186 C2198 1.392 . S
C2187 C2189 1.420 . S
C2187 C2190 1.351 . S
C2187 H2210 0.931 . S
C2188 C2185 1.429 . S
C2188 C2186 1.420 . S
C2188 N2196 1.362 . S
C2189 C2185 1.411 . S
C2189 C2187 1.420 . S
C2189 C2194 1.395 . S
C2190 C2186 1.423 . S
C2190 C2187 1.351 . S
C2190 H2202 0.930 . S
C2191 C2193 1.400 . S
C2191 C2194 1.386 . S
C2191 H2203 0.930 . S
N2192 C2185 1.377 . S
N2192 C2193 1.321 . S
N2192 Eu2195 2.609 . S
C2193 C2191 1.400 . S
C2193 N2192 1.321 . S
C2193 H2200 0.930 . S
C2194 C2189 1.395 . S
C2194 C2191 1.386 . S
C2194 H2213 0.930 . S
Eu2195 N2192 2.609 . S
Eu2195 N2196 2.657 . S
Eu2195 O2229 2.380 . S
Eu2195 O2230 2.432 . S
Eu2195 O2234 2.558 . S
Eu2195 O2235 2.612 . S
Eu2195 O2237 2.339 . S
Eu2195 O2238 2.563 . S
Eu2195 O2239 2.419 . S
Eu2195 C2259 2.848 . S
N2196 C2188 1.362 . S
N2196 Eu2195 2.657 . S
N2196 C2197 1.334 . S
C2197 N2196 1.334 . S
C2197 C2199 1.413 . S
C2197 H2204 0.929 . S
C2198 C2186 1.392 . S
C2198 C2199 1.367 . S
C2198 H2206 0.930 . S
C2199 C2197 1.413 . S
C2199 C2198 1.367 . S
C2199 H2201 0.930 1_545 S
H2200 C2193 0.930 . S
H2201 C2199 0.930 1_565 S
H2202 C2190 0.930 . S
H2203 C2191 0.930 . S
H2204 C2197 0.929 . S
H2205 C2219 0.930 . S
H2206 C2198 0.930 . S
H2207 C2225 0.930 . S
H2208 C2216 0.929 . S
H2209 C2223 0.930 . S
H2210 C2187 0.931 . S
H2211 C2217 0.930 . S
H2212 C2250 0.930 . S
H2213 C2194 0.930 . S
H2214 C2249 0.931 . S
N2215 Eu2184 2.657 . S
N2215 C2216 1.334 . S
N2215 C2220 1.362 . S
C2216 H2208 0.929 . S
C2216 N2215 1.334 . S
C2216 C2219 1.413 . S
C2217 H2211 0.930 . S
C2217 C2218 1.392 . S
C2217 C2219 1.367 . S
C2218 C2217 1.392 . S
C2218 C2220 1.420 . S
C2218 C2250 1.423 . S
C2219 H2205 0.930 . S
C2219 C2216 1.413 . S
C2219 C2217 1.367 . S
C2220 N2215 1.362 . S
C2220 C2218 1.420 . S
C2220 C2224 1.429 . S
H2221 C2226 0.930 . S
N2222 Eu2184 2.609 1_565 S
N2222 C2224 1.377 1_565 S
N2222 C2225 1.321 . S
C2223 H2209 0.930 . S
C2223 C2225 1.400 . S
C2223 C2226 1.386 . S
C2224 C2220 1.429 . S
C2224 N2222 1.377 1_545 S
C2224 C2227 1.404 1_545 S
C2225 H2207 0.930 . S
C2225 N2222 1.321 . S
C2225 C2223 1.400 . S
C2226 H2221 0.930 . S
C2226 C2223 1.386 . S
C2226 C2227 1.414 . S
C2227 C2224 1.404 1_565 S
C2227 C2226 1.414 . S
C2227 C2249 1.408 1_565 S
O2228 Eu2184 2.558 1_565 S
O2228 C2248 1.257 . S
O2229 Eu2184 2.612 . S
O2229 Eu2195 2.380 . S
O2229 C2240 1.276 . S
O2230 Eu2195 2.432 . S
O2230 C2247 1.264 . S
O2231 Eu2184 2.339 . S
O2231 C2247 1.254 . S
O2232 Eu2184 2.563 1_565 S
O2232 C2240 1.235 1_565 S
O2233 Eu2184 2.419 1_565 S
O2233 C2248 1.249 . S
O2234 Eu2195 2.558 . S
O2234 C2259 1.257 . S
O2235 Eu2184 2.380 . S
O2235 Eu2195 2.612 . S
O2235 C2251 1.276 . S
O2236 Eu2184 2.432 . S
O2236 C2258 1.264 . S
O2237 Eu2195 2.339 . S
O2237 C2258 1.254 . S
O2238 Eu2195 2.563 . S
O2238 C2251 1.235 . S
O2239 Eu2195 2.419 . S
O2239 C2259 1.249 . S
C2240 O2229 1.276 . S
C2240 O2232 1.235 1_545 S
C2241 C2243 1.393 . S
C2241 C2245 1.395 . S
C2241 C2248 1.492 . S
C2242 C2243 1.392 . S
C2242 C2244 1.386 . S
C2243 C2241 1.393 . S
C2243 C2242 1.392 . S
C2243 H2260 0.930 . S
C2244 C2242 1.386 . S
C2244 C2246 1.395 . S
C2244 H2261 0.930 . S
C2245 C2241 1.395 . S
C2245 C2246 1.379 . S
C2245 H2262 0.930 . S
C2246 C2244 1.395 . S
C2246 C2245 1.379 . S
C2246 H2263 0.930 . S
C2247 O2230 1.264 . S
C2247 O2231 1.254 . S
C2248 Eu2184 2.848 1_565 S
C2248 O2228 1.257 . S
C2248 O2233 1.249 . S
C2248 C2241 1.492 . S
C2249 H2214 0.931 . S
C2249 C2227 1.408 1_545 S
C2249 C2250 1.351 . S
C2250 H2212 0.930 . S
C2250 C2218 1.423 . S
C2250 C2249 1.351 . S
C2251 O2235 1.276 . S
C2251 O2238 1.235 . S
C2252 C2253 1.393 . S
C2252 C2256 1.395 . S
C2252 C2259 1.492 . S
C2253 C2252 1.393 . S
C2253 C2254 1.392 . S
C2253 H2264 0.930 . S
C2254 C2253 1.392 . S
C2254 C2255 1.386 . S
C2255 C2254 1.386 . S
C2255 C2257 1.395 . S
C2255 H2265 0.930 . S
C2256 C2252 1.395 . S
C2256 C2257 1.379 . S
C2256 H2266 0.930 . S
C2257 C2255 1.395 . S
C2257 C2256 1.379 . S
C2257 H2267 0.930 . S
C2258 O2236 1.264 . S
C2258 O2237 1.254 . S
C2259 Eu2195 2.848 . S
C2259 O2234 1.257 . S
C2259 O2239 1.249 . S
C2259 C2252 1.492 . S
H2260 C2243 0.930 . S
H2261 C2244 0.930 . S
H2262 C2245 0.930 . S
H2263 C2246 0.930 . S
H2264 C2253 0.930 . S
H2265 C2255 0.930 . S
H2266 C2256 0.930 . S
H2267 C2257 0.930 . S
Eu2268 N2299 2.657 . S
Eu2268 N2306 2.609 1_556 S
Eu2268 O2312 2.558 1_556 S
Eu2268 O2313 2.612 . S
Eu2268 O2315 2.339 . S
Eu2268 O2316 2.563 1_556 S
Eu2268 O2317 2.419 1_556 S
Eu2268 O2319 2.380 . S
Eu2268 O2320 2.432 . S
Eu2268 C2332 2.848 1_556 S
C2269 C2272 1.429 . S
C2269 C2273 1.411 . S
C2269 N2276 1.377 . S
C2270 C2272 1.420 . S
C2270 C2274 1.423 . S
C2270 C2282 1.392 . S
C2271 C2273 1.420 . S
C2271 C2274 1.351 . S
C2271 H2294 0.931 . S
C2272 C2269 1.429 . S
C2272 C2270 1.420 . S
C2272 N2280 1.362 . S
C2273 C2269 1.411 . S
C2273 C2271 1.420 . S
C2273 C2278 1.395 . S
C2274 C2270 1.423 . S
C2274 C2271 1.351 . S
C2274 H2286 0.930 . S
C2275 C2277 1.400 . S
C2275 C2278 1.386 . S
C2275 H2287 0.930 . S
N2276 C2269 1.377 . S
N2276 C2277 1.321 . S
N2276 Eu2279 2.609 . S
C2277 C2275 1.400 . S
C2277 N2276 1.321 . S
C2277 H2284 0.930 . S
C2278 C2273 1.395 . S
C2278 C2275 1.386 . S
C2278 H2297 0.930 . S
Eu2279 N2276 2.609 . S
Eu2279 N2280 2.657 . S
Eu2279 O2313 2.380 . S
Eu2279 O2314 2.432 . S
Eu2279 O2318 2.558 . S
Eu2279 O2319 2.612 . S
Eu2279 O2321 2.339 . S
Eu2279 O2322 2.563 . S
Eu2279 O2323 2.419 . S
Eu2279 C2343 2.848 . S
N2280 C2272 1.362 . S
N2280 Eu2279 2.657 . S
N2280 C2281 1.334 . S
C2281 N2280 1.334 . S
C2281 C2283 1.413 . S
C2281 H2288 0.929 . S
C2282 C2270 1.392 . S
C2282 C2283 1.367 . S
C2282 H2290 0.930 . S
C2283 C2281 1.413 . S
C2283 C2282 1.367 . S
C2283 H2285 0.930 1_556 S
H2284 C2277 0.930 . S
H2285 C2283 0.930 1_554 S
H2286 C2274 0.930 . S
H2287 C2275 0.930 . S
H2288 C2281 0.929 . S
H2289 C2303 0.930 . S
H2290 C2282 0.930 . S
H2291 C2309 0.930 . S
H2292 C2300 0.929 . S
H2293 C2307 0.930 . S
H2294 C2271 0.931 . S
H2295 C2301 0.930 . S
H2296 C2334 0.930 . S
H2297 C2278 0.930 . S
H2298 C2333 0.931 . S
N2299 Eu2268 2.657 . S
N2299 C2300 1.334 . S
N2299 C2304 1.362 . S
C2300 H2292 0.929 . S
C2300 N2299 1.334 . S
C2300 C2303 1.413 . S
C2301 H2295 0.930 . S
C2301 C2302 1.392 . S
C2301 C2303 1.367 . S
C2302 C2301 1.392 . S
C2302 C2304 1.420 . S
C2302 C2334 1.423 . S
C2303 H2289 0.930 . S
C2303 C2300 1.413 . S
C2303 C2301 1.367 . S
C2304 N2299 1.362 . S
C2304 C2302 1.420 . S
C2304 C2308 1.429 . S
H2305 C2310 0.930 . S
N2306 Eu2268 2.609 1_554 S
N2306 C2308 1.377 1_554 S
N2306 C2309 1.321 . S
C2307 H2293 0.930 . S
C2307 C2309 1.400 . S
C2307 C2310 1.386 . S
C2308 C2304 1.429 . S
C2308 N2306 1.377 1_556 S
C2308 C2311 1.405 1_556 S
C2309 H2291 0.930 . S
C2309 N2306 1.321 . S
C2309 C2307 1.400 . S
C2310 H2305 0.930 . S
C2310 C2307 1.386 . S
C2310 C2311 1.409 . S
C2311 C2308 1.405 1_554 S
C2311 C2310 1.409 . S
C2311 C2333 1.411 1_554 S
O2312 Eu2268 2.558 1_554 S
O2312 C2332 1.257 . S
O2313 Eu2268 2.612 . S
O2313 Eu2279 2.380 . S
O2313 C2324 1.276 . S
O2314 Eu2279 2.432 . S
O2314 C2331 1.264 . S
O2315 Eu2268 2.339 . S
O2315 C2331 1.254 . S
O2316 Eu2268 2.563 1_554 S
O2316 C2324 1.235 1_554 S
O2317 Eu2268 2.419 1_554 S
O2317 C2332 1.249 . S
O2318 Eu2279 2.558 . S
O2318 C2343 1.257 . S
O2319 Eu2268 2.380 . S
O2319 Eu2279 2.612 . S
O2319 C2335 1.276 . S
O2320 Eu2268 2.432 . S
O2320 C2342 1.264 . S
O2321 Eu2279 2.339 . S
O2321 C2342 1.254 . S
O2322 Eu2279 2.563 . S
O2322 C2335 1.235 . S
O2323 Eu2279 2.419 . S
O2323 C2343 1.249 . S
C2324 O2313 1.276 . S
C2324 O2316 1.235 1_556 S
C2325 C2327 1.393 . S
C2325 C2329 1.395 . S
C2325 C2332 1.492 . S
C2326 C2327 1.392 . S
C2326 C2328 1.386 . S
C2327 C2325 1.393 . S
C2327 C2326 1.392 . S
C2327 H2344 0.930 . S
C2328 C2326 1.386 . S
C2328 C2330 1.395 . S
C2328 H2345 0.930 . S
C2329 C2325 1.395 . S
C2329 C2330 1.379 . S
C2329 H2346 0.930 . S
C2330 C2328 1.395 . S
C2330 C2329 1.379 . S
C2330 H2347 0.930 . S
C2331 O2314 1.264 . S
C2331 O2315 1.254 . S
C2332 Eu2268 2.848 1_554 S
C2332 O2312 1.257 . S
C2332 O2317 1.249 . S
C2332 C2325 1.492 . S
C2333 H2298 0.931 . S
C2333 C2311 1.411 1_556 S
C2333 C2334 1.351 . S
C2334 H2296 0.930 . S
C2334 C2302 1.423 . S
C2334 C2333 1.351 . S
C2335 O2319 1.276 . S
C2335 O2322 1.235 . S
C2336 C2337 1.393 . S
C2336 C2340 1.395 . S
C2336 C2343 1.492 . S
C2337 C2336 1.393 . S
C2337 C2338 1.392 . S
C2337 H2348 0.930 . S
C2338 C2337 1.392 . S
C2338 C2339 1.386 . S
C2339 C2338 1.386 . S
C2339 C2341 1.395 . S
C2339 H2349 0.930 . S
C2340 C2336 1.395 . S
C2340 C2341 1.379 . S
C2340 H2350 0.930 . S
C2341 C2339 1.395 . S
C2341 C2340 1.379 . S
C2341 H2351 0.930 . S
C2342 O2320 1.264 . S
C2342 O2321 1.254 . S
C2343 Eu2279 2.848 . S
C2343 O2318 1.257 . S
C2343 O2323 1.249 . S
C2343 C2336 1.492 . S
H2344 C2327 0.930 . S
H2345 C2328 0.930 . S
H2346 C2329 0.930 . S
H2347 C2330 0.930 . S
H2348 C2337 0.930 . S
H2349 C2339 0.930 . S
H2350 C2340 0.930 . S
H2351 C2341 0.930 . S
Eu2352 N2383 2.657 . S
Eu2352 N2390 2.609 . S
Eu2352 O2396 2.558 . S
Eu2352 O2397 2.612 . S
Eu2352 O2399 2.339 . S
Eu2352 O2400 2.563 . S
Eu2352 O2401 2.419 . S
Eu2352 O2403 2.380 . S
Eu2352 O2404 2.432 . S
Eu2352 C2416 2.848 . S
C2353 C2356 1.429 . S
C2353 C2357 1.411 . S
C2353 N2360 1.377 . S
C2354 C2356 1.420 . S
C2354 C2358 1.423 . S
C2354 C2366 1.392 . S
C2355 C2357 1.420 . S
C2355 C2358 1.351 . S
C2355 H2378 0.931 . S
C2356 C2353 1.429 . S
C2356 C2354 1.420 . S
C2356 N2364 1.362 . S
C2357 C2353 1.411 . S
C2357 C2355 1.420 . S
C2357 C2362 1.395 . S
C2358 C2354 1.423 . S
C2358 C2355 1.351 . S
C2358 H2370 0.930 . S
C2359 C2361 1.400 1_655 S
C2359 C2362 1.386 . S
C2359 H2371 0.930 1_655 S
N2360 C2353 1.377 . S
N2360 C2361 1.321 1_655 S
N2360 Eu2363 2.609 1_655 S
C2361 C2359 1.400 1_455 S
C2361 N2360 1.321 1_455 S
C2361 H2368 0.930 . S
C2362 C2357 1.395 . S
C2362 C2359 1.386 . S
C2362 H2381 0.930 . S
Eu2363 N2360 2.609 1_455 S
Eu2363 N2364 2.657 1_455 S
Eu2363 O2397 2.380 . S
Eu2363 O2398 2.432 . S
Eu2363 O2402 2.558 1_455 S
Eu2363 O2403 2.612 . S
Eu2363 O2405 2.339 1_455 S
Eu2363 O2406 2.563 . S
Eu2363 O2407 2.419 1_455 S
Eu2363 C2427 2.848 1_455 S
N2364 C2356 1.362 . S
N2364 Eu2363 2.657 1_655 S
N2364 C2365 1.334 . S
C2365 N2364 1.334 . S
C2365 C2367 1.413 . S
C2365 H2372 0.929 . S
C2366 C2354 1.392 . S
C2366 C2367 1.367 . S
C2366 H2374 0.930 . S
C2367 C2365 1.413 . S
C2367 C2366 1.367 . S
C2367 H2369 0.930 . S
H2368 C2361 0.930 . S
H2369 C2367 0.930 . S
H2370 C2358 0.930 . S
H2371 C2359 0.930 1_455 S
H2372 C2365 0.929 . S
H2373 C2387 0.930 . S
H2374 C2366 0.930 . S
H2375 C2393 0.930 . S
H2376 C2384 0.929 . S
H2377 C2391 0.930 . S
H2378 C2355 0.931 . S
H2379 C2385 0.930 . S
H2380 C2418 0.930 . S
H2381 C2362 0.930 . S
H2382 C2417 0.931 . S
N2383 Eu2352 2.657 . S
N2383 C2384 1.334 . S
N2383 C2388 1.362 . S
C2384 H2376 0.929 . S
C2384 N2383 1.334 . S
C2384 C2387 1.413 . S
C2385 H2379 0.930 . S
C2385 C2386 1.392 . S
C2385 C2387 1.367 . S
C2386 C2385 1.392 . S
C2386 C2388 1.420 . S
C2386 C2418 1.423 . S
C2387 H2373 0.930 . S
C2387 C2384 1.413 . S
C2387 C2385 1.367 . S
C2388 N2383 1.362 . S
C2388 C2386 1.420 . S
C2388 C2392 1.429 . S
H2389 C2394 0.930 . S
N2390 Eu2352 2.609 . S
N2390 C2392 1.377 . S
N2390 C2393 1.321 . S
C2391 H2377 0.930 . S
C2391 C2393 1.400 . S
C2391 C2394 1.386 . S
C2392 C2388 1.429 . S
C2392 N2390 1.377 . S
C2392 C2395 1.411 . S
C2393 H2375 0.930 . S
C2393 N2390 1.321 . S
C2393 C2391 1.400 . S
C2394 H2389 0.930 . S
C2394 C2391 1.386 . S
C2394 C2395 1.395 . S
C2395 C2392 1.411 . S
C2395 C2394 1.395 . S
C2395 C2417 1.420 . S
O2396 Eu2352 2.558 . S
O2396 C2416 1.257 . S
O2397 Eu2352 2.612 . S
O2397 Eu2363 2.380 . S
O2397 C2408 1.276 . S
O2398 Eu2363 2.432 . S
O2398 C2415 1.264 . S
O2399 Eu2352 2.339 . S
O2399 C2415 1.254 . S
O2400 Eu2352 2.563 . S
O2400 C2408 1.235 . S
O2401 Eu2352 2.419 . S
O2401 C2416 1.249 . S
O2402 Eu2363 2.558 1_655 S
O2402 C2427 1.257 . S
O2403 Eu2352 2.380 . S
O2403 Eu2363 2.612 . S
O2403 C2419 1.276 . S
O2404 Eu2352 2.432 . S
O2404 C2426 1.264 . S
O2405 Eu2363 2.339 1_655 S
O2405 C2426 1.254 1_655 S
O2406 Eu2363 2.563 . S
O2406 C2419 1.235 . S
O2407 Eu2363 2.419 1_655 S
O2407 C2427 1.249 . S
C2408 O2397 1.276 . S
C2408 O2400 1.235 . S
C2409 C2411 1.393 . S
C2409 C2413 1.395 . S
C2409 C2416 1.492 . S
C2410 C2411 1.392 . S
C2410 C2412 1.386 . S
C2411 C2409 1.393 . S
C2411 C2410 1.392 . S
C2411 H2428 0.930 . S
C2412 C2410 1.386 . S
C2412 C2414 1.395 . S
C2412 H2429 0.930 . S
C2413 C2409 1.395 . S
C2413 C2414 1.379 . S
C2413 H2430 0.930 . S
C2414 C2412 1.395 . S
C2414 C2413 1.379 . S
C2414 H2431 0.930 . S
C2415 O2398 1.264 . S
C2415 O2399 1.254 . S
C2416 Eu2352 2.848 . S
C2416 O2396 1.257 . S
C2416 O2401 1.249 . S
C2416 C2409 1.492 . S
C2417 H2382 0.931 . S
C2417 C2395 1.420 . S
C2417 C2418 1.351 . S
C2418 H2380 0.930 . S
C2418 C2386 1.423 . S
C2418 C2417 1.351 . S
C2419 O2403 1.276 . S
C2419 O2406 1.235 . S
C2420 C2421 1.393 . S
C2420 C2424 1.395 . S
C2420 C2427 1.492 . S
C2421 C2420 1.393 . S
C2421 C2422 1.392 . S
C2421 H2432 0.930 . S
C2422 C2421 1.392 . S
C2422 C2423 1.386 . S
C2423 C2422 1.386 . S
C2423 C2425 1.395 . S
C2423 H2433 0.930 . S
C2424 C2420 1.395 . S
C2424 C2425 1.379 . S
C2424 H2434 0.930 . S
C2425 C2423 1.395 . S
C2425 C2424 1.379 . S
C2425 H2435 0.930 . S
C2426 O2404 1.264 . S
C2426 O2405 1.254 1_455 S
C2427 Eu2363 2.848 1_655 S
C2427 O2402 1.257 . S
C2427 O2407 1.249 . S
C2427 C2420 1.492 . S
H2428 C2411 0.930 . S
H2429 C2412 0.930 . S
H2430 C2413 0.930 . S
H2431 C2414 0.930 . S
H2432 C2421 0.930 . S
H2433 C2423 0.930 . S
H2434 C2424 0.930 . S
H2435 C2425 0.930 . S
Eu2436 N2467 2.657 . S
Eu2436 N2474 2.609 . S
Eu2436 O2480 2.558 . S
Eu2436 O2481 2.612 . S
Eu2436 O2483 2.339 . S
Eu2436 O2484 2.563 . S
Eu2436 O2485 2.419 . S
Eu2436 O2487 2.380 . S
Eu2436 O2488 2.432 . S
Eu2436 C2500 2.848 . S
C2437 C2440 1.429 . S
C2437 C2441 1.411 . S
C2437 N2444 1.377 . S
C2438 C2440 1.420 . S
C2438 C2442 1.423 . S
C2438 C2450 1.392 . S
C2439 C2441 1.420 . S
C2439 C2442 1.351 . S
C2439 H2462 0.931 . S
C2440 C2437 1.429 . S
C2440 C2438 1.420 . S
C2440 N2448 1.362 . S
C2441 C2437 1.411 . S
C2441 C2439 1.420 . S
C2441 C2446 1.395 . S
C2442 C2438 1.423 . S
C2442 C2439 1.351 . S
C2442 H2454 0.930 . S
C2443 C2445 1.400 . S
C2443 C2446 1.386 . S
C2443 H2455 0.930 . S
N2444 C2437 1.377 . S
N2444 C2445 1.321 . S
N2444 Eu2447 2.609 . S
C2445 C2443 1.400 . S
C2445 N2444 1.321 . S
C2445 H2452 0.930 . S
C2446 C2441 1.395 . S
C2446 C2443 1.386 . S
C2446 H2465 0.930 . S
Eu2447 N2444 2.609 . S
Eu2447 N2448 2.657 . S
Eu2447 O2481 2.380 . S
Eu2447 O2482 2.432 . S
Eu2447 O2486 2.558 . S
Eu2447 O2487 2.612 . S
Eu2447 O2489 2.339 . S
Eu2447 O2490 2.563 . S
Eu2447 O2491 2.419 . S
Eu2447 C2511 2.848 . S
N2448 C2440 1.362 . S
N2448 Eu2447 2.657 . S
N2448 C2449 1.334 . S
C2449 N2448 1.334 . S
C2449 C2451 1.413 . S
C2449 H2456 0.929 . S
C2450 C2438 1.392 . S
C2450 C2451 1.367 . S
C2450 H2458 0.930 . S
C2451 C2449 1.413 . S
C2451 C2450 1.367 . S
C2451 H2453 0.930 . S
H2452 C2445 0.930 . S
H2453 C2451 0.930 . S
H2454 C2442 0.930 . S
H2455 C2443 0.930 . S
H2456 C2449 0.929 . S
H2457 C2471 0.930 . S
H2458 C2450 0.930 . S
H2459 C2477 0.930 . S
H2460 C2468 0.929 . S
H2461 C2475 0.930 . S
H2462 C2439 0.931 . S
H2463 C2469 0.930 . S
H2464 C2502 0.930 . S
H2465 C2446 0.930 . S
H2466 C2501 0.931 . S
N2467 Eu2436 2.657 . S
N2467 C2468 1.334 . S
N2467 C2472 1.362 . S
C2468 H2460 0.929 . S
C2468 N2467 1.334 . S
C2468 C2471 1.413 . S
C2469 H2463 0.930 . S
C2469 C2470 1.392 . S
C2469 C2471 1.367 . S
C2470 C2469 1.392 . S
C2470 C2472 1.420 . S
C2470 C2502 1.423 . S
C2471 H2457 0.930 . S
C2471 C2468 1.413 . S
C2471 C2469 1.367 . S
C2472 N2467 1.362 . S
C2472 C2470 1.420 . S
C2472 C2476 1.429 . S
H2473 C2478 0.930 . S
N2474 Eu2436 2.609 . S
N2474 C2476 1.377 . S
N2474 C2477 1.321 . S
C2475 H2461 0.930 . S
C2475 C2477 1.400 . S
C2475 C2478 1.386 . S
C2476 C2472 1.429 . S
C2476 N2474 1.377 . S
C2476 C2479 1.411 . S
C2477 H2459 0.930 . S
C2477 N2474 1.321 . S
C2477 C2475 1.400 . S
C2478 H2473 0.930 . S
C2478 C2475 1.386 . S
C2478 C2479 1.395 . S
C2479 C2476 1.411 . S
C2479 C2478 1.395 . S
C2479 C2501 1.420 . S
O2480 Eu2436 2.558 . S
O2480 C2500 1.257 . S
O2481 Eu2436 2.612 . S
O2481 Eu2447 2.380 . S
O2481 C2492 1.276 . S
O2482 Eu2447 2.432 . S
O2482 C2499 1.264 . S
O2483 Eu2436 2.339 . S
O2483 C2499 1.254 . S
O2484 Eu2436 2.563 . S
O2484 C2492 1.235 . S
O2485 Eu2436 2.419 . S
O2485 C2500 1.249 . S
O2486 Eu2447 2.558 . S
O2486 C2511 1.257 . S
O2487 Eu2436 2.380 . S
O2487 Eu2447 2.612 . S
O2487 C2503 1.276 . S
O2488 Eu2436 2.432 . S
O2488 C2510 1.264 . S
O2489 Eu2447 2.339 . S
O2489 C2510 1.254 . S
O2490 Eu2447 2.563 . S
O2490 C2503 1.235 . S
O2491 Eu2447 2.419 . S
O2491 C2511 1.249 . S
C2492 O2481 1.276 . S
C2492 O2484 1.235 . S
C2493 C2495 1.393 . S
C2493 C2497 1.395 . S
C2493 C2500 1.492 . S
C2494 C2495 1.392 . S
C2494 C2496 1.386 . S
C2495 C2493 1.393 . S
C2495 C2494 1.392 . S
C2495 H2512 0.930 . S
C2496 C2494 1.386 . S
C2496 C2498 1.395 . S
C2496 H2513 0.930 . S
C2497 C2493 1.395 . S
C2497 C2498 1.379 . S
C2497 H2514 0.930 . S
C2498 C2496 1.395 . S
C2498 C2497 1.379 . S
C2498 H2515 0.930 . S
C2499 O2482 1.264 . S
C2499 O2483 1.254 . S
C2500 Eu2436 2.848 . S
C2500 O2480 1.257 . S
C2500 O2485 1.249 . S
C2500 C2493 1.492 . S
C2501 H2466 0.931 . S
C2501 C2479 1.420 . S
C2501 C2502 1.351 . S
C2502 H2464 0.930 . S
C2502 C2470 1.423 . S
C2502 C2501 1.351 . S
C2503 O2487 1.276 . S
C2503 O2490 1.235 . S
C2504 C2505 1.393 . S
C2504 C2508 1.395 . S
C2504 C2511 1.492 . S
C2505 C2504 1.393 . S
C2505 C2506 1.392 . S
C2505 H2516 0.930 . S
C2506 C2505 1.392 . S
C2506 C2507 1.386 . S
C2507 C2506 1.386 . S
C2507 C2509 1.395 . S
C2507 H2517 0.930 . S
C2508 C2504 1.395 . S
C2508 C2509 1.379 . S
C2508 H2518 0.930 . S
C2509 C2507 1.395 . S
C2509 C2508 1.379 . S
C2509 H2519 0.930 . S
C2510 O2488 1.264 . S
C2510 O2489 1.254 . S
C2511 Eu2447 2.848 . S
C2511 O2486 1.257 . S
C2511 O2491 1.249 . S
C2511 C2504 1.492 . S
H2512 C2495 0.930 . S
H2513 C2496 0.930 . S
H2514 C2497 0.930 . S
H2515 C2498 0.930 . S
H2516 C2505 0.930 . S
H2517 C2507 0.930 . S
H2518 C2508 0.930 . S
H2519 C2509 0.930 . S
Eu2520 N2551 2.657 . S
Eu2520 N2558 2.609 . S
Eu2520 O2564 2.558 . S
Eu2520 O2565 2.612 . S
Eu2520 O2567 2.339 . S
Eu2520 O2568 2.563 . S
Eu2520 O2569 2.419 . S
Eu2520 O2571 2.380 . S
Eu2520 O2572 2.432 . S
Eu2520 C2584 2.848 . S
C2521 C2524 1.429 . S
C2521 C2525 1.411 . S
C2521 N2528 1.377 . S
C2522 C2524 1.420 . S
C2522 C2526 1.423 . S
C2522 C2534 1.392 . S
C2523 C2525 1.420 . S
C2523 C2526 1.351 . S
C2523 H2546 0.931 . S
C2524 C2521 1.429 . S
C2524 C2522 1.420 . S
C2524 N2532 1.362 . S
C2525 C2521 1.411 . S
C2525 C2523 1.420 . S
C2525 C2530 1.395 . S
C2526 C2522 1.423 . S
C2526 C2523 1.351 . S
C2526 H2538 0.930 . S
C2527 C2529 1.400 . S
C2527 C2530 1.386 . S
C2527 H2539 0.930 . S
N2528 C2521 1.377 . S
N2528 C2529 1.321 . S
N2528 Eu2531 2.609 . S
C2529 C2527 1.400 . S
C2529 N2528 1.321 . S
C2529 H2536 0.930 . S
C2530 C2525 1.395 . S
C2530 C2527 1.386 . S
C2530 H2549 0.930 . S
Eu2531 N2528 2.609 . S
Eu2531 N2532 2.657 . S
Eu2531 O2565 2.380 . S
Eu2531 O2566 2.432 . S
Eu2531 O2570 2.558 . S
Eu2531 O2571 2.612 . S
Eu2531 O2573 2.339 . S
Eu2531 O2574 2.563 . S
Eu2531 O2575 2.419 . S
Eu2531 C2595 2.848 . S
N2532 C2524 1.362 . S
N2532 Eu2531 2.657 . S
N2532 C2533 1.334 . S
C2533 N2532 1.334 . S
C2533 C2535 1.413 . S
C2533 H2540 0.929 . S
C2534 C2522 1.392 . S
C2534 C2535 1.367 . S
C2534 H2542 0.930 . S
C2535 C2533 1.413 . S
C2535 C2534 1.367 . S
C2535 H2537 0.930 . S
H2536 C2529 0.930 . S
H2537 C2535 0.930 . S
H2538 C2526 0.930 . S
H2539 C2527 0.930 . S
H2540 C2533 0.929 . S
H2541 C2555 0.930 . S
H2542 C2534 0.930 . S
H2543 C2561 0.930 . S
H2544 C2552 0.929 . S
H2545 C2559 0.930 . S
H2546 C2523 0.931 . S
H2547 C2553 0.930 . S
H2548 C2586 0.930 . S
H2549 C2530 0.930 . S
H2550 C2585 0.931 . S
N2551 Eu2520 2.657 . S
N2551 C2552 1.334 . S
N2551 C2556 1.362 . S
C2552 H2544 0.929 . S
C2552 N2551 1.334 . S
C2552 C2555 1.413 . S
C2553 H2547 0.930 . S
C2553 C2554 1.392 . S
C2553 C2555 1.367 . S
C2554 C2553 1.392 . S
C2554 C2556 1.420 . S
C2554 C2586 1.423 . S
C2555 H2541 0.930 . S
C2555 C2552 1.413 . S
C2555 C2553 1.367 . S
C2556 N2551 1.362 . S
C2556 C2554 1.420 . S
C2556 C2560 1.429 . S
H2557 C2562 0.930 . S
N2558 Eu2520 2.609 . S
N2558 C2560 1.377 . S
N2558 C2561 1.321 . S
C2559 H2545 0.930 . S
C2559 C2561 1.400 . S
C2559 C2562 1.386 . S
C2560 C2556 1.429 . S
C2560 N2558 1.377 . S
C2560 C2563 1.411 . S
C2561 H2543 0.930 . S
C2561 N2558 1.321 . S
C2561 C2559 1.400 . S
C2562 H2557 0.930 . S
C2562 C2559 1.386 . S
C2562 C2563 1.395 . S
C2563 C2560 1.411 . S
C2563 C2562 1.395 . S
C2563 C2585 1.420 . S
O2564 Eu2520 2.558 . S
O2564 C2584 1.257 . S
O2565 Eu2520 2.612 . S
O2565 Eu2531 2.380 . S
O2565 C2576 1.276 . S
O2566 Eu2531 2.432 . S
O2566 C2583 1.264 . S
O2567 Eu2520 2.339 . S
O2567 C2583 1.254 . S
O2568 Eu2520 2.563 . S
O2568 C2576 1.235 . S
O2569 Eu2520 2.419 . S
O2569 C2584 1.249 . S
O2570 Eu2531 2.558 . S
O2570 C2595 1.257 . S
O2571 Eu2520 2.380 . S
O2571 Eu2531 2.612 . S
O2571 C2587 1.276 . S
O2572 Eu2520 2.432 . S
O2572 C2594 1.264 . S
O2573 Eu2531 2.339 . S
O2573 C2594 1.254 . S
O2574 Eu2531 2.563 . S
O2574 C2587 1.235 . S
O2575 Eu2531 2.419 . S
O2575 C2595 1.249 . S
C2576 O2565 1.276 . S
C2576 O2568 1.235 . S
C2577 C2579 1.393 . S
C2577 C2581 1.395 . S
C2577 C2584 1.492 . S
C2578 C2579 1.392 . S
C2578 C2580 1.386 . S
C2579 C2577 1.393 . S
C2579 C2578 1.392 . S
C2579 H2596 0.930 . S
C2580 C2578 1.386 . S
C2580 C2582 1.395 . S
C2580 H2597 0.930 . S
C2581 C2577 1.395 . S
C2581 C2582 1.379 . S
C2581 H2598 0.930 . S
C2582 C2580 1.395 . S
C2582 C2581 1.379 . S
C2582 H2599 0.930 . S
C2583 O2566 1.264 . S
C2583 O2567 1.254 . S
C2584 Eu2520 2.848 . S
C2584 O2564 1.257 . S
C2584 O2569 1.249 . S
C2584 C2577 1.492 . S
C2585 H2550 0.931 . S
C2585 C2563 1.420 . S
C2585 C2586 1.351 . S
C2586 H2548 0.930 . S
C2586 C2554 1.423 . S
C2586 C2585 1.351 . S
C2587 O2571 1.276 . S
C2587 O2574 1.235 . S
C2588 C2589 1.393 . S
C2588 C2592 1.395 . S
C2588 C2595 1.492 . S
C2589 C2588 1.393 . S
C2589 C2590 1.392 . S
C2589 H2600 0.930 . S
C2590 C2589 1.392 . S
C2590 C2591 1.386 . S
C2591 C2590 1.386 . S
C2591 C2593 1.395 . S
C2591 H2601 0.930 . S
C2592 C2588 1.395 . S
C2592 C2593 1.379 . S
C2592 H2602 0.930 . S
C2593 C2591 1.395 . S
C2593 C2592 1.379 . S
C2593 H2603 0.930 . S
C2594 O2572 1.264 . S
C2594 O2573 1.254 . S
C2595 Eu2531 2.848 . S
C2595 O2570 1.257 . S
C2595 O2575 1.249 . S
C2595 C2588 1.492 . S
H2596 C2579 0.930 . S
H2597 C2580 0.930 . S
H2598 C2581 0.930 . S
H2599 C2582 0.930 . S
H2600 C2589 0.930 . S
H2601 C2591 0.930 . S
H2602 C2592 0.930 . S
H2603 C2593 0.930 . S
Eu2604 N2635 2.657 . S
Eu2604 N2642 2.609 . S
Eu2604 O2648 2.558 . S
Eu2604 O2649 2.612 . S
Eu2604 O2651 2.339 . S
Eu2604 O2652 2.563 . S
Eu2604 O2653 2.419 . S
Eu2604 O2655 2.380 . S
Eu2604 O2656 2.432 . S
Eu2604 C2668 2.848 . S
C2605 C2608 1.429 . S
C2605 C2609 1.409 1_655 S
C2605 N2612 1.377 1_655 S
C2606 C2608 1.420 . S
C2606 C2610 1.423 . S
C2606 C2618 1.392 . S
C2607 C2609 1.417 1_655 S
C2607 C2610 1.351 . S
C2607 H2630 0.931 . S
C2608 C2605 1.429 . S
C2608 C2606 1.420 . S
C2608 N2616 1.362 . S
C2609 C2605 1.409 1_455 S
C2609 C2607 1.417 1_455 S
C2609 C2614 1.400 . S
C2610 C2606 1.423 . S
C2610 C2607 1.351 . S
C2610 H2622 0.930 . S
C2611 C2613 1.400 . S
C2611 C2614 1.386 . S
C2611 H2623 0.930 . S
N2612 C2605 1.377 1_455 S
N2612 C2613 1.321 . S
N2612 Eu2615 2.609 1_455 S
C2613 C2611 1.400 . S
C2613 N2612 1.321 . S
C2613 H2620 0.930 . S
C2614 C2609 1.400 . S
C2614 C2611 1.386 . S
C2614 H2633 0.930 . S
Eu2615 N2612 2.609 1_655 S
Eu2615 N2616 2.657 . S
Eu2615 O2649 2.380 . S
Eu2615 O2650 2.432 . S
Eu2615 O2654 2.558 1_655 S
Eu2615 O2655 2.612 . S
Eu2615 O2657 2.339 . S
Eu2615 O2658 2.563 1_655 S
Eu2615 O2659 2.419 1_655 S
Eu2615 C2679 2.848 1_655 S
N2616 C2608 1.362 . S
N2616 Eu2615 2.657 . S
N2616 C2617 1.334 . S
C2617 N2616 1.334 . S
C2617 C2619 1.413 . S
C2617 H2624 0.929 . S
C2618 C2606 1.392 . S
C2618 C2619 1.367 . S
C2618 H2626 0.930 . S
C2619 C2617 1.413 . S
C2619 C2618 1.367 . S
C2619 H2621 0.930 . S
H2620 C2613 0.930 . S
H2621 C2619 0.930 . S
H2622 C2610 0.930 . S
H2623 C2611 0.930 . S
H2624 C2617 0.929 . S
H2625 C2639 0.930 1_455 S
H2626 C2618 0.930 . S
H2627 C2645 0.930 . S
H2628 C2636 0.929 . S
H2629 C2643 0.930 . S
H2630 C2607 0.931 . S
H2631 C2637 0.930 . S
H2632 C2670 0.930 . S
H2633 C2614 0.930 . S
H2634 C2669 0.931 . S
N2635 Eu2604 2.657 . S
N2635 C2636 1.334 . S
N2635 C2640 1.362 . S
C2636 H2628 0.929 . S
C2636 N2635 1.334 . S
C2636 C2639 1.413 . S
C2637 H2631 0.930 . S
C2637 C2638 1.392 . S
C2637 C2639 1.367 . S
C2638 C2637 1.392 . S
C2638 C2640 1.420 . S
C2638 C2670 1.423 . S
C2639 H2625 0.930 1_655 S
C2639 C2636 1.413 . S
C2639 C2637 1.367 . S
C2640 N2635 1.362 . S
C2640 C2638 1.420 . S
C2640 C2644 1.429 . S
H2641 C2646 0.930 . S
N2642 Eu2604 2.609 . S
N2642 C2644 1.377 . S
N2642 C2645 1.321 . S
C2643 H2629 0.930 . S
C2643 C2645 1.400 . S
C2643 C2646 1.386 . S
C2644 C2640 1.429 . S
C2644 N2642 1.377 . S
C2644 C2647 1.411 . S
C2645 H2627 0.930 . S
C2645 N2642 1.321 . S
C2645 C2643 1.400 . S
C2646 H2641 0.930 . S
C2646 C2643 1.386 . S
C2646 C2647 1.395 . S
C2647 C2644 1.411 . S
C2647 C2646 1.395 . S
C2647 C2669 1.420 . S
O2648 Eu2604 2.558 . S
O2648 C2668 1.257 . S
O2649 Eu2604 2.612 . S
O2649 Eu2615 2.380 . S
O2649 C2660 1.276 . S
O2650 Eu2615 2.432 . S
O2650 C2667 1.264 . S
O2651 Eu2604 2.339 . S
O2651 C2667 1.254 . S
O2652 Eu2604 2.563 . S
O2652 C2660 1.235 . S
O2653 Eu2604 2.419 . S
O2653 C2668 1.249 . S
O2654 Eu2615 2.558 1_455 S
O2654 C2679 1.257 . S
O2655 Eu2604 2.380 . S
O2655 Eu2615 2.612 . S
O2655 C2671 1.276 . S
O2656 Eu2604 2.432 . S
O2656 C2678 1.264 . S
O2657 Eu2615 2.339 . S
O2657 C2678 1.254 . S
O2658 Eu2615 2.563 1_455 S
O2658 C2671 1.235 1_455 S
O2659 Eu2615 2.419 1_455 S
O2659 C2679 1.249 . S
C2660 O2649 1.276 . S
C2660 O2652 1.235 . S
C2661 C2663 1.393 . S
C2661 C2665 1.395 . S
C2661 C2668 1.492 . S
C2662 C2663 1.392 . S
C2662 C2664 1.386 . S
C2663 C2661 1.393 . S
C2663 C2662 1.392 . S
C2663 H2680 0.930 . S
C2664 C2662 1.386 . S
C2664 C2666 1.395 . S
C2664 H2681 0.930 . S
C2665 C2661 1.395 . S
C2665 C2666 1.379 . S
C2665 H2682 0.930 . S
C2666 C2664 1.395 . S
C2666 C2665 1.379 . S
C2666 H2683 0.930 . S
C2667 O2650 1.264 . S
C2667 O2651 1.254 . S
C2668 Eu2604 2.848 . S
C2668 O2648 1.257 . S
C2668 O2653 1.249 . S
C2668 C2661 1.492 . S
C2669 H2634 0.931 . S
C2669 C2647 1.420 . S
C2669 C2670 1.351 . S
C2670 H2632 0.930 . S
C2670 C2638 1.423 . S
C2670 C2669 1.351 . S
C2671 O2655 1.276 . S
C2671 O2658 1.235 1_655 S
C2672 C2673 1.393 . S
C2672 C2676 1.395 . S
C2672 C2679 1.492 . S
C2673 C2672 1.393 . S
C2673 C2674 1.392 . S
C2673 H2684 0.930 . S
C2674 C2673 1.392 . S
C2674 C2675 1.386 . S
C2675 C2674 1.386 . S
C2675 C2677 1.395 . S
C2675 H2685 0.930 . S
C2676 C2672 1.395 . S
C2676 C2677 1.379 . S
C2676 H2686 0.930 . S
C2677 C2675 1.395 . S
C2677 C2676 1.379 . S
C2677 H2687 0.930 . S
C2678 O2656 1.264 . S
C2678 O2657 1.254 . S
C2679 Eu2615 2.848 1_455 S
C2679 O2654 1.257 . S
C2679 O2659 1.249 . S
C2679 C2672 1.492 . S
H2680 C2663 0.930 . S
H2681 C2664 0.930 . S
H2682 C2665 0.930 . S
H2683 C2666 0.930 . S
H2684 C2673 0.930 . S
H2685 C2675 0.930 . S
H2686 C2676 0.930 . S
H2687 C2677 0.930 . S
Eu2688 N2719 2.657 . S
Eu2688 N2726 2.609 . S
Eu2688 O2732 2.558 . S
Eu2688 O2733 2.612 . S
Eu2688 O2735 2.339 . S
Eu2688 O2736 2.563 . S
Eu2688 O2737 2.419 . S
Eu2688 O2739 2.380 . S
Eu2688 O2740 2.432 . S
Eu2688 C2752 2.848 . S
C2689 C2692 1.429 . S
C2689 C2693 1.411 . S
C2689 N2696 1.377 . S
C2690 C2692 1.420 . S
C2690 C2694 1.423 . S
C2690 C2702 1.392 . S
C2691 C2693 1.420 . S
C2691 C2694 1.351 . S
C2691 H2714 0.931 . S
C2692 C2689 1.429 . S
C2692 C2690 1.420 . S
C2692 N2700 1.362 . S
C2693 C2689 1.411 . S
C2693 C2691 1.420 . S
C2693 C2698 1.395 . S
C2694 C2690 1.423 . S
C2694 C2691 1.351 . S
C2694 H2706 0.930 . S
C2695 C2697 1.400 . S
C2695 C2698 1.386 . S
C2695 H2707 0.930 . S
N2696 C2689 1.377 . S
N2696 C2697 1.321 . S
N2696 Eu2699 2.609 . S
C2697 C2695 1.400 . S
C2697 N2696 1.321 . S
C2697 H2704 0.930 . S
C2698 C2693 1.395 . S
C2698 C2695 1.386 . S
C2698 H2717 0.930 . S
Eu2699 N2696 2.609 . S
Eu2699 N2700 2.657 . S
Eu2699 O2733 2.380 . S
Eu2699 O2734 2.432 . S
Eu2699 O2738 2.558 . S
Eu2699 O2739 2.612 . S
Eu2699 O2741 2.339 . S
Eu2699 O2742 2.563 . S
Eu2699 O2743 2.419 . S
Eu2699 C2763 2.848 . S
N2700 C2692 1.362 . S
N2700 Eu2699 2.657 . S
N2700 C2701 1.334 . S
C2701 N2700 1.334 . S
C2701 C2703 1.413 . S
C2701 H2708 0.929 . S
C2702 C2690 1.392 . S
C2702 C2703 1.367 . S
C2702 H2710 0.930 . S
C2703 C2701 1.413 . S
C2703 C2702 1.367 . S
C2703 H2705 0.930 . S
H2704 C2697 0.930 . S
H2705 C2703 0.930 . S
H2706 C2694 0.930 . S
H2707 C2695 0.930 . S
H2708 C2701 0.929 . S
H2709 C2723 0.930 . S
H2710 C2702 0.930 . S
H2711 C2729 0.930 . S
H2712 C2720 0.929 . S
H2713 C2727 0.930 . S
H2714 C2691 0.931 . S
H2715 C2721 0.930 . S
H2716 C2754 0.930 . S
H2717 C2698 0.930 . S
H2718 C2753 0.931 . S
N2719 Eu2688 2.657 . S
N2719 C2720 1.334 . S
N2719 C2724 1.362 . S
C2720 H2712 0.929 . S
C2720 N2719 1.334 . S
C2720 C2723 1.413 . S
C2721 H2715 0.930 . S
C2721 C2722 1.392 . S
C2721 C2723 1.367 . S
C2722 C2721 1.392 . S
C2722 C2724 1.420 . S
C2722 C2754 1.423 . S
C2723 H2709 0.930 . S
C2723 C2720 1.413 . S
C2723 C2721 1.367 . S
C2724 N2719 1.362 . S
C2724 C2722 1.420 . S
C2724 C2728 1.429 . S
H2725 C2730 0.930 . S
N2726 Eu2688 2.609 . S
N2726 C2728 1.377 . S
N2726 C2729 1.321 . S
C2727 H2713 0.930 . S
C2727 C2729 1.400 . S
C2727 C2730 1.386 . S
C2728 C2724 1.429 . S
C2728 N2726 1.377 . S
C2728 C2731 1.411 . S
C2729 H2711 0.930 . S
C2729 N2726 1.321 . S
C2729 C2727 1.400 . S
C2730 H2725 0.930 . S
C2730 C2727 1.386 . S
C2730 C2731 1.395 . S
C2731 C2728 1.411 . S
C2731 C2730 1.395 . S
C2731 C2753 1.420 . S
O2732 Eu2688 2.558 . S
O2732 C2752 1.257 . S
O2733 Eu2688 2.612 . S
O2733 Eu2699 2.380 . S
O2733 C2744 1.276 . S
O2734 Eu2699 2.432 . S
O2734 C2751 1.264 . S
O2735 Eu2688 2.339 . S
O2735 C2751 1.254 . S
O2736 Eu2688 2.563 . S
O2736 C2744 1.235 . S
O2737 Eu2688 2.419 . S
O2737 C2752 1.249 . S
O2738 Eu2699 2.558 . S
O2738 C2763 1.257 . S
O2739 Eu2688 2.380 . S
O2739 Eu2699 2.612 . S
O2739 C2755 1.276 . S
O2740 Eu2688 2.432 . S
O2740 C2762 1.264 . S
O2741 Eu2699 2.339 . S
O2741 C2762 1.254 . S
O2742 Eu2699 2.563 . S
O2742 C2755 1.235 . S
O2743 Eu2699 2.419 . S
O2743 C2763 1.249 . S
C2744 O2733 1.276 . S
C2744 O2736 1.235 . S
C2745 C2747 1.393 . S
C2745 C2749 1.395 . S
C2745 C2752 1.492 . S
C2746 C2747 1.392 . S
C2746 C2748 1.386 . S
C2747 C2745 1.393 . S
C2747 C2746 1.392 . S
C2747 H2764 0.930 . S
C2748 C2746 1.386 . S
C2748 C2750 1.395 . S
C2748 H2765 0.930 . S
C2749 C2745 1.395 . S
C2749 C2750 1.379 . S
C2749 H2766 0.930 . S
C2750 C2748 1.395 . S
C2750 C2749 1.379 . S
C2750 H2767 0.930 . S
C2751 O2734 1.264 . S
C2751 O2735 1.254 . S
C2752 Eu2688 2.848 . S
C2752 O2732 1.257 . S
C2752 O2737 1.249 . S
C2752 C2745 1.492 . S
C2753 H2718 0.931 . S
C2753 C2731 1.420 . S
C2753 C2754 1.351 . S
C2754 H2716 0.930 . S
C2754 C2722 1.423 . S
C2754 C2753 1.351 . S
C2755 O2739 1.276 . S
C2755 O2742 1.235 . S
C2756 C2757 1.393 . S
C2756 C2760 1.395 . S
C2756 C2763 1.492 . S
C2757 C2756 1.393 . S
C2757 C2758 1.392 . S
C2757 H2768 0.930 . S
C2758 C2757 1.392 . S
C2758 C2759 1.386 . S
C2759 C2758 1.386 . S
C2759 C2761 1.395 . S
C2759 H2769 0.930 . S
C2760 C2756 1.395 . S
C2760 C2761 1.379 . S
C2760 H2770 0.930 . S
C2761 C2759 1.395 . S
C2761 C2760 1.379 . S
C2761 H2771 0.930 . S
C2762 O2740 1.264 . S
C2762 O2741 1.254 . S
C2763 Eu2699 2.848 . S
C2763 O2738 1.257 . S
C2763 O2743 1.249 . S
C2763 C2756 1.492 . S
H2764 C2747 0.930 . S
H2765 C2748 0.930 . S
H2766 C2749 0.930 . S
H2767 C2750 0.930 . S
H2768 C2757 0.930 . S
H2769 C2759 0.930 . S
H2770 C2760 0.930 . S
H2771 C2761 0.930 . S
Eu2772 N2803 2.657 . S
Eu2772 N2810 2.609 . S
Eu2772 O2816 2.558 . S
Eu2772 O2817 2.612 . S
Eu2772 O2819 2.339 . S
Eu2772 O2820 2.563 . S
Eu2772 O2821 2.419 . S
Eu2772 O2823 2.380 . S
Eu2772 O2824 2.432 . S
Eu2772 C2836 2.848 . S
C2773 C2776 1.429 . S
C2773 C2777 1.422 . S
C2773 N2780 1.363 1_556 S
C2774 C2776 1.420 . S
C2774 C2778 1.423 . S
C2774 C2786 1.392 . S
C2775 C2777 1.435 . S
C2775 C2778 1.351 . S
C2775 H2798 0.931 . S
C2776 C2773 1.429 . S
C2776 C2774 1.420 . S
C2776 N2784 1.362 . S
C2777 C2773 1.422 . S
C2777 C2775 1.435 . S
C2777 C2782 1.371 1_556 S
C2778 C2774 1.423 . S
C2778 C2775 1.351 . S
C2778 H2790 0.930 . S
C2779 C2781 1.400 . S
C2779 C2782 1.386 . S
C2779 H2791 0.930 . S
N2780 C2773 1.363 1_554 S
N2780 C2781 1.350 . S
N2780 Eu2783 2.600 1_554 S
C2781 C2779 1.400 . S
C2781 N2780 1.350 . S
C2781 H2788 0.930 . S
C2782 C2777 1.371 1_554 S
C2782 C2779 1.386 . S
C2782 H2801 0.930 . S
Eu2783 N2780 2.600 1_556 S
Eu2783 N2784 2.657 . S
Eu2783 O2817 2.380 . S
Eu2783 O2818 2.432 . S
Eu2783 O2822 2.558 1_556 S
Eu2783 O2823 2.612 . S
Eu2783 O2825 2.339 . S
Eu2783 O2826 2.563 1_556 S
Eu2783 O2827 2.419 1_556 S
Eu2783 C2847 2.848 1_556 S
N2784 C2776 1.362 . S
N2784 Eu2783 2.657 . S
N2784 C2785 1.334 . S
C2785 N2784 1.334 . S
C2785 C2787 1.413 . S
C2785 H2792 0.929 . S
C2786 C2774 1.392 . S
C2786 C2787 1.367 . S
C2786 H2794 0.930 . S
C2787 C2785 1.413 . S
C2787 C2786 1.367 . S
C2787 H2789 0.930 . S
H2788 C2781 0.930 . S
H2789 C2787 0.930 . S
H2790 C2778 0.930 . S
H2791 C2779 0.930 . S
H2792 C2785 0.929 . S
H2793 C2807 0.930 1_554 S
H2794 C2786 0.930 . S
H2795 C2813 0.930 . S
H2796 C2804 0.929 . S
H2797 C2811 0.930 . S
H2798 C2775 0.931 . S
H2799 C2805 0.930 . S
H2800 C2838 0.930 . S
H2801 C2782 0.930 . S
H2802 C2837 0.931 . S
N2803 Eu2772 2.657 . S
N2803 C2804 1.334 . S
N2803 C2808 1.362 . S
C2804 H2796 0.929 . S
C2804 N2803 1.334 . S
C2804 C2807 1.413 . S
C2805 H2799 0.930 . S
C2805 C2806 1.392 . S
C2805 C2807 1.367 . S
C2806 C2805 1.392 . S
C2806 C2808 1.420 . S
C2806 C2838 1.423 . S
C2807 H2793 0.930 1_556 S
C2807 C2804 1.413 . S
C2807 C2805 1.367 . S
C2808 N2803 1.362 . S
C2808 C2806 1.420 . S
C2808 C2812 1.429 . S
H2809 C2814 0.930 . S
N2810 Eu2772 2.609 . S
N2810 C2812 1.377 . S
N2810 C2813 1.321 . S
C2811 H2797 0.930 . S
C2811 C2813 1.400 . S
C2811 C2814 1.386 . S
C2812 C2808 1.429 . S
C2812 N2810 1.377 . S
C2812 C2815 1.411 . S
C2813 H2795 0.930 . S
C2813 N2810 1.321 . S
C2813 C2811 1.400 . S
C2814 H2809 0.930 . S
C2814 C2811 1.386 . S
C2814 C2815 1.395 . S
C2815 C2812 1.411 . S
C2815 C2814 1.395 . S
C2815 C2837 1.420 . S
O2816 Eu2772 2.558 . S
O2816 C2836 1.257 . S
O2817 Eu2772 2.612 . S
O2817 Eu2783 2.380 . S
O2817 C2828 1.276 . S
O2818 Eu2783 2.432 . S
O2818 C2835 1.264 . S
O2819 Eu2772 2.339 . S
O2819 C2835 1.254 . S
O2820 Eu2772 2.563 . S
O2820 C2828 1.235 . S
O2821 Eu2772 2.419 . S
O2821 C2836 1.249 . S
O2822 Eu2783 2.558 1_554 S
O2822 C2847 1.257 . S
O2823 Eu2772 2.380 . S
O2823 Eu2783 2.612 . S
O2823 C2839 1.276 . S
O2824 Eu2772 2.432 . S
O2824 C2846 1.264 . S
O2825 Eu2783 2.339 . S
O2825 C2846 1.254 . S
O2826 Eu2783 2.563 1_554 S
O2826 C2839 1.235 1_554 S
O2827 Eu2783 2.419 1_554 S
O2827 C2847 1.249 . S
C2828 O2817 1.276 . S
C2828 O2820 1.235 . S
C2829 C2831 1.393 . S
C2829 C2833 1.395 . S
C2829 C2836 1.492 . S
C2830 C2831 1.392 . S
C2830 C2832 1.386 . S
C2831 C2829 1.393 . S
C2831 C2830 1.392 . S
C2831 H2848 0.930 . S
C2832 C2830 1.386 . S
C2832 C2834 1.395 . S
C2832 H2849 0.930 . S
C2833 C2829 1.395 . S
C2833 C2834 1.379 . S
C2833 H2850 0.930 . S
C2834 C2832 1.395 . S
C2834 C2833 1.379 . S
C2834 H2851 0.930 . S
C2835 O2818 1.264 . S
C2835 O2819 1.254 . S
C2836 Eu2772 2.848 . S
C2836 O2816 1.257 . S
C2836 O2821 1.249 . S
C2836 C2829 1.492 . S
C2837 H2802 0.931 . S
C2837 C2815 1.420 . S
C2837 C2838 1.351 . S
C2838 H2800 0.930 . S
C2838 C2806 1.423 . S
C2838 C2837 1.351 . S
C2839 O2823 1.276 . S
C2839 O2826 1.235 1_556 S
C2840 C2841 1.393 . S
C2840 C2844 1.395 . S
C2840 C2847 1.492 . S
C2841 C2840 1.393 . S
C2841 C2842 1.392 . S
C2841 H2852 0.930 . S
C2842 C2841 1.392 . S
C2842 C2843 1.386 . S
C2843 C2842 1.386 . S
C2843 C2845 1.395 . S
C2843 H2853 0.930 . S
C2844 C2840 1.395 . S
C2844 C2845 1.379 . S
C2844 H2854 0.930 . S
C2845 C2843 1.395 . S
C2845 C2844 1.379 . S
C2845 H2855 0.930 . S
C2846 O2824 1.264 . S
C2846 O2825 1.254 . S
C2847 Eu2783 2.848 1_554 S
C2847 O2822 1.257 . S
C2847 O2827 1.249 . S
C2847 C2840 1.492 . S
H2848 C2831 0.930 . S
H2849 C2832 0.930 . S
H2850 C2833 0.930 . S
H2851 C2834 0.930 . S
H2852 C2841 0.930 . S
H2853 C2843 0.930 . S
H2854 C2844 0.930 . S
H2855 C2845 0.930 . S
Eu2856 N2887 2.657 . S
Eu2856 N2894 2.609 . S
Eu2856 O2900 2.558 . S
Eu2856 O2901 2.612 . S
Eu2856 O2903 2.339 . S
Eu2856 O2904 2.563 . S
Eu2856 O2905 2.419 . S
Eu2856 O2907 2.380 . S
Eu2856 O2908 2.432 . S
Eu2856 C2920 2.848 . S
C2857 C2860 1.429 . S
C2857 C2861 1.411 . S
C2857 N2864 1.377 . S
C2858 C2860 1.420 . S
C2858 C2862 1.423 . S
C2858 C2870 1.392 . S
C2859 C2861 1.420 . S
C2859 C2862 1.351 . S
C2859 H2882 0.931 . S
C2860 C2857 1.429 . S
C2860 C2858 1.420 . S
C2860 N2868 1.362 . S
C2861 C2857 1.411 . S
C2861 C2859 1.420 . S
C2861 C2866 1.395 . S
C2862 C2858 1.423 . S
C2862 C2859 1.351 . S
C2862 H2874 0.930 . S
C2863 C2865 1.400 . S
C2863 C2866 1.386 . S
C2863 H2875 0.930 . S
N2864 C2857 1.377 . S
N2864 C2865 1.321 . S
N2864 Eu2867 2.609 . S
C2865 C2863 1.400 . S
C2865 N2864 1.321 . S
C2865 H2872 0.930 . S
C2866 C2861 1.395 . S
C2866 C2863 1.386 . S
C2866 H2885 0.930 . S
Eu2867 N2864 2.609 . S
Eu2867 N2868 2.657 . S
Eu2867 O2901 2.380 . S
Eu2867 O2902 2.432 . S
Eu2867 O2906 2.558 . S
Eu2867 O2907 2.612 . S
Eu2867 O2909 2.339 . S
Eu2867 O2910 2.563 . S
Eu2867 O2911 2.419 . S
Eu2867 C2931 2.848 . S
N2868 C2860 1.362 . S
N2868 Eu2867 2.657 . S
N2868 C2869 1.334 . S
C2869 N2868 1.334 . S
C2869 C2871 1.413 . S
C2869 H2876 0.929 . S
C2870 C2858 1.392 . S
C2870 C2871 1.367 . S
C2870 H2878 0.930 . S
C2871 C2869 1.413 . S
C2871 C2870 1.367 . S
C2871 H2873 0.930 . S
H2872 C2865 0.930 . S
H2873 C2871 0.930 . S
H2874 C2862 0.930 . S
H2875 C2863 0.930 . S
H2876 C2869 0.929 . S
H2877 C2891 0.930 . S
H2878 C2870 0.930 . S
H2879 C2897 0.930 . S
H2880 C2888 0.929 . S
H2881 C2895 0.930 . S
H2882 C2859 0.931 . S
H2883 C2889 0.930 . S
H2884 C2922 0.930 . S
H2885 C2866 0.930 . S
H2886 C2921 0.931 . S
N2887 Eu2856 2.657 . S
N2887 C2888 1.334 . S
N2887 C2892 1.362 . S
C2888 H2880 0.929 . S
C2888 N2887 1.334 . S
C2888 C2891 1.413 . S
C2889 H2883 0.930 . S
C2889 C2890 1.392 . S
C2889 C2891 1.367 . S
C2890 C2889 1.392 . S
C2890 C2892 1.420 . S
C2890 C2922 1.423 . S
C2891 H2877 0.930 . S
C2891 C2888 1.413 . S
C2891 C2889 1.367 . S
C2892 N2887 1.362 . S
C2892 C2890 1.420 . S
C2892 C2896 1.429 . S
H2893 C2898 0.930 . S
N2894 Eu2856 2.609 . S
N2894 C2896 1.377 . S
N2894 C2897 1.321 . S
C2895 H2881 0.930 . S
C2895 C2897 1.400 . S
C2895 C2898 1.386 . S
C2896 C2892 1.429 . S
C2896 N2894 1.377 . S
C2896 C2899 1.411 . S
C2897 H2879 0.930 . S
C2897 N2894 1.321 . S
C2897 C2895 1.400 . S
C2898 H2893 0.930 . S
C2898 C2895 1.386 . S
C2898 C2899 1.395 . S
C2899 C2896 1.411 . S
C2899 C2898 1.395 . S
C2899 C2921 1.420 . S
O2900 Eu2856 2.558 . S
O2900 C2920 1.257 . S
O2901 Eu2856 2.612 . S
O2901 Eu2867 2.380 . S
O2901 C2912 1.276 . S
O2902 Eu2867 2.432 . S
O2902 C2919 1.264 . S
O2903 Eu2856 2.339 . S
O2903 C2919 1.254 . S
O2904 Eu2856 2.563 . S
O2904 C2912 1.235 . S
O2905 Eu2856 2.419 . S
O2905 C2920 1.249 . S
O2906 Eu2867 2.558 . S
O2906 C2931 1.257 . S
O2907 Eu2856 2.380 . S
O2907 Eu2867 2.612 . S
O2907 C2923 1.276 . S
O2908 Eu2856 2.432 . S
O2908 C2930 1.264 . S
O2909 Eu2867 2.339 . S
O2909 C2930 1.254 . S
O2910 Eu2867 2.563 . S
O2910 C2923 1.235 . S
O2911 Eu2867 2.419 . S
O2911 C2931 1.249 . S
C2912 O2901 1.276 . S
C2912 O2904 1.235 . S
C2913 C2915 1.393 . S
C2913 C2917 1.395 . S
C2913 C2920 1.492 . S
C2914 C2915 1.392 . S
C2914 C2916 1.386 . S
C2915 C2913 1.393 . S
C2915 C2914 1.392 . S
C2915 H2932 0.930 . S
C2916 C2914 1.386 . S
C2916 C2918 1.395 . S
C2916 H2933 0.930 . S
C2917 C2913 1.395 . S
C2917 C2918 1.379 . S
C2917 H2934 0.930 . S
C2918 C2916 1.395 . S
C2918 C2917 1.379 . S
C2918 H2935 0.930 . S
C2919 O2902 1.264 . S
C2919 O2903 1.254 . S
C2920 Eu2856 2.848 . S
C2920 O2900 1.257 . S
C2920 O2905 1.249 . S
C2920 C2913 1.492 . S
C2921 H2886 0.931 . S
C2921 C2899 1.420 . S
C2921 C2922 1.351 . S
C2922 H2884 0.930 . S
C2922 C2890 1.423 . S
C2922 C2921 1.351 . S
C2923 O2907 1.276 . S
C2923 O2910 1.235 . S
C2924 C2925 1.393 . S
C2924 C2928 1.395 . S
C2924 C2931 1.492 . S
C2925 C2924 1.393 . S
C2925 C2926 1.392 . S
C2925 H2936 0.930 . S
C2926 C2925 1.392 . S
C2926 C2927 1.386 . S
C2927 C2926 1.386 . S
C2927 C2929 1.395 . S
C2927 H2937 0.930 . S
C2928 C2924 1.395 . S
C2928 C2929 1.379 . S
C2928 H2938 0.930 . S
C2929 C2927 1.395 . S
C2929 C2928 1.379 . S
C2929 H2939 0.930 . S
C2930 O2908 1.264 . S
C2930 O2909 1.254 . S
C2931 Eu2867 2.848 . S
C2931 O2906 1.257 . S
C2931 O2911 1.249 . S
C2931 C2924 1.492 . S
H2932 C2915 0.930 . S
H2933 C2916 0.930 . S
H2934 C2917 0.930 . S
H2935 C2918 0.930 . S
H2936 C2925 0.930 . S
H2937 C2927 0.930 . S
H2938 C2928 0.930 . S
H2939 C2929 0.930 . S
Eu2940 N2971 2.657 . S
Eu2940 N2978 2.609 . S
Eu2940 O2984 2.558 . S
Eu2940 O2985 2.612 . S
Eu2940 O2987 2.339 . S
Eu2940 O2988 2.563 . S
Eu2940 O2989 2.419 . S
Eu2940 O2991 2.380 . S
Eu2940 O2992 2.432 . S
Eu2940 C3004 2.848 . S
C2941 C2944 1.429 . S
C2941 C2945 1.411 . S
C2941 N2948 1.377 . S
C2942 C2944 1.420 . S
C2942 C2946 1.423 . S
C2942 C2954 1.392 . S
C2943 C2945 1.420 . S
C2943 C2946 1.351 . S
C2943 H2966 0.931 . S
C2944 C2941 1.429 . S
C2944 C2942 1.420 . S
C2944 N2952 1.362 . S
C2945 C2941 1.411 . S
C2945 C2943 1.420 . S
C2945 C2950 1.395 . S
C2946 C2942 1.423 . S
C2946 C2943 1.351 . S
C2946 H2958 0.930 . S
C2947 C2949 1.400 . S
C2947 C2950 1.386 . S
C2947 H2959 0.930 . S
N2948 C2941 1.377 . S
N2948 C2949 1.321 . S
N2948 Eu2951 2.609 . S
C2949 C2947 1.400 . S
C2949 N2948 1.321 . S
C2949 H2956 0.930 . S
C2950 C2945 1.395 . S
C2950 C2947 1.386 . S
C2950 H2969 0.930 . S
Eu2951 N2948 2.609 . S
Eu2951 N2952 2.657 . S
Eu2951 O2985 2.380 . S
Eu2951 O2986 2.432 . S
Eu2951 O2990 2.558 . S
Eu2951 O2991 2.612 . S
Eu2951 O2993 2.339 . S
Eu2951 O2994 2.563 . S
Eu2951 O2995 2.419 . S
Eu2951 C3015 2.848 . S
N2952 C2944 1.362 . S
N2952 Eu2951 2.657 . S
N2952 C2953 1.334 . S
C2953 N2952 1.334 . S
C2953 C2955 1.413 . S
C2953 H2960 0.929 . S
C2954 C2942 1.392 . S
C2954 C2955 1.367 . S
C2954 H2962 0.930 . S
C2955 C2953 1.413 . S
C2955 C2954 1.367 . S
C2955 H2957 0.930 . S
H2956 C2949 0.930 . S
H2957 C2955 0.930 . S
H2958 C2946 0.930 . S
H2959 C2947 0.930 . S
H2960 C2953 0.929 . S
H2961 C2975 0.930 . S
H2962 C2954 0.930 . S
H2963 C2981 0.930 . S
H2964 C2972 0.929 . S
H2965 C2979 0.930 . S
H2966 C2943 0.931 . S
H2967 C2973 0.930 . S
H2968 C3006 0.930 . S
H2969 C2950 0.930 . S
H2970 C3005 0.931 . S
N2971 Eu2940 2.657 . S
N2971 C2972 1.334 . S
N2971 C2976 1.362 . S
C2972 H2964 0.929 . S
C2972 N2971 1.334 . S
C2972 C2975 1.413 . S
C2973 H2967 0.930 . S
C2973 C2974 1.392 . S
C2973 C2975 1.367 . S
C2974 C2973 1.392 . S
C2974 C2976 1.420 . S
C2974 C3006 1.423 . S
C2975 H2961 0.930 . S
C2975 C2972 1.413 . S
C2975 C2973 1.367 . S
C2976 N2971 1.362 . S
C2976 C2974 1.420 . S
C2976 C2980 1.429 . S
H2977 C2982 0.930 . S
N2978 Eu2940 2.609 . S
N2978 C2980 1.377 . S
N2978 C2981 1.321 . S
C2979 H2965 0.930 . S
C2979 C2981 1.400 . S
C2979 C2982 1.386 . S
C2980 C2976 1.429 . S
C2980 N2978 1.377 . S
C2980 C2983 1.411 . S
C2981 H2963 0.930 . S
C2981 N2978 1.321 . S
C2981 C2979 1.400 . S
C2982 H2977 0.930 . S
C2982 C2979 1.386 . S
C2982 C2983 1.395 . S
C2983 C2980 1.411 . S
C2983 C2982 1.395 . S
C2983 C3005 1.420 . S
O2984 Eu2940 2.558 . S
O2984 C3004 1.257 . S
O2985 Eu2940 2.612 . S
O2985 Eu2951 2.380 . S
O2985 C2996 1.276 . S
O2986 Eu2951 2.432 . S
O2986 C3003 1.264 . S
O2987 Eu2940 2.339 . S
O2987 C3003 1.254 . S
O2988 Eu2940 2.563 . S
O2988 C2996 1.235 . S
O2989 Eu2940 2.419 . S
O2989 C3004 1.249 . S
O2990 Eu2951 2.558 . S
O2990 C3015 1.257 . S
O2991 Eu2940 2.380 . S
O2991 Eu2951 2.612 . S
O2991 C3007 1.276 . S
O2992 Eu2940 2.432 . S
O2992 C3014 1.264 . S
O2993 Eu2951 2.339 . S
O2993 C3014 1.254 . S
O2994 Eu2951 2.563 . S
O2994 C3007 1.235 . S
O2995 Eu2951 2.419 . S
O2995 C3015 1.249 . S
C2996 O2985 1.276 . S
C2996 O2988 1.235 . S
C2997 C2999 1.393 . S
C2997 C3001 1.395 . S
C2997 C3004 1.492 . S
C2998 C2999 1.392 . S
C2998 C3000 1.386 . S
C2999 C2997 1.393 . S
C2999 C2998 1.392 . S
C2999 H3016 0.930 . S
C3000 C2998 1.386 . S
C3000 C3002 1.395 . S
C3000 H3017 0.930 . S
C3001 C2997 1.395 . S
C3001 C3002 1.379 . S
C3001 H3018 0.930 . S
C3002 C3000 1.395 . S
C3002 C3001 1.379 . S
C3002 H3019 0.930 . S
C3003 O2986 1.264 . S
C3003 O2987 1.254 . S
C3004 Eu2940 2.848 . S
C3004 O2984 1.257 . S
C3004 O2989 1.249 . S
C3004 C2997 1.492 . S
C3005 H2970 0.931 . S
C3005 C2983 1.420 . S
C3005 C3006 1.351 . S
C3006 H2968 0.930 . S
C3006 C2974 1.423 . S
C3006 C3005 1.351 . S
C3007 O2991 1.276 . S
C3007 O2994 1.235 . S
C3008 C3009 1.393 . S
C3008 C3012 1.395 . S
C3008 C3015 1.492 . S
C3009 C3008 1.393 . S
C3009 C3010 1.392 . S
C3009 H3020 0.930 . S
C3010 C3009 1.392 . S
C3010 C3011 1.386 . S
C3011 C3010 1.386 . S
C3011 C3013 1.395 . S
C3011 H3021 0.930 . S
C3012 C3008 1.395 . S
C3012 C3013 1.379 . S
C3012 H3022 0.930 . S
C3013 C3011 1.395 . S
C3013 C3012 1.379 . S
C3013 H3023 0.930 . S
C3014 O2992 1.264 . S
C3014 O2993 1.254 . S
C3015 Eu2951 2.848 . S
C3015 O2990 1.257 . S
C3015 O2995 1.249 . S
C3015 C3008 1.492 . S
H3016 C2999 0.930 . S
H3017 C3000 0.930 . S
H3018 C3001 0.930 . S
H3019 C3002 0.930 . S
H3020 C3009 0.930 . S
H3021 C3011 0.930 . S
H3022 C3012 0.930 . S
H3023 C3013 0.930 . S
Eu3024 N3055 2.657 . S
Eu3024 N3062 2.609 . S
Eu3024 O3068 2.558 . S
Eu3024 O3069 2.612 . S
Eu3024 O3071 2.339 . S
Eu3024 O3072 2.563 . S
Eu3024 O3073 2.419 . S
Eu3024 O3075 2.380 . S
Eu3024 O3076 2.432 . S
Eu3024 C3088 2.848 . S
C3025 C3028 1.429 . S
C3025 C3029 1.411 . S
C3025 N3032 1.377 . S
C3026 C3028 1.420 . S
C3026 C3030 1.423 . S
C3026 C3038 1.392 . S
C3027 C3029 1.420 . S
C3027 C3030 1.351 . S
C3027 H3050 0.931 . S
C3028 C3025 1.429 . S
C3028 C3026 1.420 . S
C3028 N3036 1.362 . S
C3029 C3025 1.411 . S
C3029 C3027 1.420 . S
C3029 C3034 1.395 . S
C3030 C3026 1.423 . S
C3030 C3027 1.351 . S
C3030 H3042 0.930 . S
C3031 C3033 1.400 . S
C3031 C3034 1.386 . S
C3031 H3043 0.930 . S
N3032 C3025 1.377 . S
N3032 C3033 1.321 . S
N3032 Eu3035 2.609 . S
C3033 C3031 1.400 . S
C3033 N3032 1.321 . S
C3033 H3040 0.930 . S
C3034 C3029 1.395 . S
C3034 C3031 1.386 . S
C3034 H3053 0.930 . S
Eu3035 N3032 2.609 . S
Eu3035 N3036 2.657 . S
Eu3035 O3069 2.380 . S
Eu3035 O3070 2.432 . S
Eu3035 O3074 2.558 . S
Eu3035 O3075 2.612 . S
Eu3035 O3077 2.339 . S
Eu3035 O3078 2.563 . S
Eu3035 O3079 2.419 . S
Eu3035 C3099 2.848 . S
N3036 C3028 1.362 . S
N3036 Eu3035 2.657 . S
N3036 C3037 1.334 . S
C3037 N3036 1.334 . S
C3037 C3039 1.413 . S
C3037 H3044 0.929 . S
C3038 C3026 1.392 . S
C3038 C3039 1.367 . S
C3038 H3046 0.930 . S
C3039 C3037 1.413 . S
C3039 C3038 1.367 . S
C3039 H3041 0.930 . S
H3040 C3033 0.930 . S
H3041 C3039 0.930 . S
H3042 C3030 0.930 . S
H3043 C3031 0.930 . S
H3044 C3037 0.929 . S
H3045 C3059 0.930 . S
H3046 C3038 0.930 . S
H3047 C3065 0.930 . S
H3048 C3056 0.929 . S
H3049 C3063 0.930 . S
H3050 C3027 0.931 . S
H3051 C3057 0.930 . S
H3052 C3090 0.930 . S
H3053 C3034 0.930 . S
H3054 C3089 0.931 . S
N3055 Eu3024 2.657 . S
N3055 C3056 1.334 . S
N3055 C3060 1.362 . S
C3056 H3048 0.929 . S
C3056 N3055 1.334 . S
C3056 C3059 1.413 . S
C3057 H3051 0.930 . S
C3057 C3058 1.392 . S
C3057 C3059 1.367 . S
C3058 C3057 1.392 . S
C3058 C3060 1.420 . S
C3058 C3090 1.423 . S
C3059 H3045 0.930 . S
C3059 C3056 1.413 . S
C3059 C3057 1.367 . S
C3060 N3055 1.362 . S
C3060 C3058 1.420 . S
C3060 C3064 1.429 . S
H3061 C3066 0.930 . S
N3062 Eu3024 2.609 . S
N3062 C3064 1.377 . S
N3062 C3065 1.321 . S
C3063 H3049 0.930 . S
C3063 C3065 1.400 . S
C3063 C3066 1.386 . S
C3064 C3060 1.429 . S
C3064 N3062 1.377 . S
C3064 C3067 1.411 . S
C3065 H3047 0.930 . S
C3065 N3062 1.321 . S
C3065 C3063 1.400 . S
C3066 H3061 0.930 . S
C3066 C3063 1.386 . S
C3066 C3067 1.395 . S
C3067 C3064 1.411 . S
C3067 C3066 1.395 . S
C3067 C3089 1.420 . S
O3068 Eu3024 2.558 . S
O3068 C3088 1.257 . S
O3069 Eu3024 2.612 . S
O3069 Eu3035 2.380 . S
O3069 C3080 1.276 . S
O3070 Eu3035 2.432 . S
O3070 C3087 1.264 . S
O3071 Eu3024 2.339 . S
O3071 C3087 1.254 . S
O3072 Eu3024 2.563 . S
O3072 C3080 1.235 . S
O3073 Eu3024 2.419 . S
O3073 C3088 1.249 . S
O3074 Eu3035 2.558 . S
O3074 C3099 1.257 . S
O3075 Eu3024 2.380 . S
O3075 Eu3035 2.612 . S
O3075 C3091 1.276 . S
O3076 Eu3024 2.432 . S
O3076 C3098 1.264 . S
O3077 Eu3035 2.339 . S
O3077 C3098 1.254 . S
O3078 Eu3035 2.563 . S
O3078 C3091 1.235 . S
O3079 Eu3035 2.419 . S
O3079 C3099 1.249 . S
C3080 O3069 1.276 . S
C3080 O3072 1.235 . S
C3081 C3083 1.393 . S
C3081 C3085 1.395 . S
C3081 C3088 1.492 . S
C3082 C3083 1.392 . S
C3082 C3084 1.386 . S
C3083 C3081 1.393 . S
C3083 C3082 1.392 . S
C3083 H3100 0.930 . S
C3084 C3082 1.386 . S
C3084 C3086 1.395 . S
C3084 H3101 0.930 . S
C3085 C3081 1.395 . S
C3085 C3086 1.379 . S
C3085 H3102 0.930 . S
C3086 C3084 1.395 . S
C3086 C3085 1.379 . S
C3086 H3103 0.930 . S
C3087 O3070 1.264 . S
C3087 O3071 1.254 . S
C3088 Eu3024 2.848 . S
C3088 O3068 1.257 . S
C3088 O3073 1.249 . S
C3088 C3081 1.492 . S
C3089 H3054 0.931 . S
C3089 C3067 1.420 . S
C3089 C3090 1.351 . S
C3090 H3052 0.930 . S
C3090 C3058 1.423 . S
C3090 C3089 1.351 . S
C3091 O3075 1.276 . S
C3091 O3078 1.235 . S
C3092 C3093 1.393 . S
C3092 C3096 1.395 . S
C3092 C3099 1.492 . S
C3093 C3092 1.393 . S
C3093 C3094 1.392 . S
C3093 H3104 0.930 . S
C3094 C3093 1.392 . S
C3094 C3095 1.386 . S
C3095 C3094 1.386 . S
C3095 C3097 1.395 . S
C3095 H3105 0.930 . S
C3096 C3092 1.395 . S
C3096 C3097 1.379 . S
C3096 H3106 0.930 . S
C3097 C3095 1.395 . S
C3097 C3096 1.379 . S
C3097 H3107 0.930 . S
C3098 O3076 1.264 . S
C3098 O3077 1.254 . S
C3099 Eu3035 2.848 . S
C3099 O3074 1.257 . S
C3099 O3079 1.249 . S
C3099 C3092 1.492 . S
H3100 C3083 0.930 . S
H3101 C3084 0.930 . S
H3102 C3085 0.930 . S
H3103 C3086 0.930 . S
H3104 C3093 0.930 . S
H3105 C3095 0.930 . S
H3106 C3096 0.930 . S
H3107 C3097 0.930 . S
Eu3108 N3139 2.657 . S
Eu3108 N3146 2.609 . S
Eu3108 O3152 2.558 . S
Eu3108 O3153 2.612 . S
Eu3108 O3155 2.339 . S
Eu3108 O3156 2.563 . S
Eu3108 O3157 2.419 . S
Eu3108 O3159 2.380 . S
Eu3108 O3160 2.432 . S
Eu3108 C3172 2.848 . S
C3109 C3112 1.429 . S
C3109 C3113 1.411 . S
C3109 N3116 1.377 . S
C3110 C3112 1.420 . S
C3110 C3114 1.423 . S
C3110 C3122 1.392 . S
C3111 C3113 1.420 . S
C3111 C3114 1.351 . S
C3111 H3134 0.931 . S
C3112 C3109 1.429 . S
C3112 C3110 1.420 . S
C3112 N3120 1.362 . S
C3113 C3109 1.411 . S
C3113 C3111 1.420 . S
C3113 C3118 1.395 . S
C3114 C3110 1.423 . S
C3114 C3111 1.351 . S
C3114 H3126 0.930 . S
C3115 C3117 1.400 . S
C3115 C3118 1.386 . S
C3115 H3127 0.930 . S
N3116 C3109 1.377 . S
N3116 C3117 1.321 . S
N3116 Eu3119 2.609 . S
C3117 C3115 1.400 . S
C3117 N3116 1.321 . S
C3117 H3124 0.930 . S
C3118 C3113 1.395 . S
C3118 C3115 1.386 . S
C3118 H3137 0.930 . S
Eu3119 N3116 2.609 . S
Eu3119 N3120 2.657 . S
Eu3119 O3153 2.380 . S
Eu3119 O3154 2.432 . S
Eu3119 O3158 2.558 . S
Eu3119 O3159 2.612 . S
Eu3119 O3161 2.339 . S
Eu3119 O3162 2.563 . S
Eu3119 O3163 2.419 . S
Eu3119 C3183 2.848 . S
N3120 C3112 1.362 . S
N3120 Eu3119 2.657 . S
N3120 C3121 1.334 . S
C3121 N3120 1.334 . S
C3121 C3123 1.413 . S
C3121 H3128 0.929 . S
C3122 C3110 1.392 . S
C3122 C3123 1.367 . S
C3122 H3130 0.930 . S
C3123 C3121 1.413 . S
C3123 C3122 1.367 . S
C3123 H3125 0.930 . S
H3124 C3117 0.930 . S
H3125 C3123 0.930 . S
H3126 C3114 0.930 . S
H3127 C3115 0.930 . S
H3128 C3121 0.929 . S
H3129 C3143 0.930 . S
H3130 C3122 0.930 . S
H3131 C3149 0.930 . S
H3132 C3140 0.929 . S
H3133 C3147 0.930 . S
H3134 C3111 0.931 . S
H3135 C3141 0.930 . S
H3136 C3174 0.930 . S
H3137 C3118 0.930 . S
H3138 C3173 0.931 . S
N3139 Eu3108 2.657 . S
N3139 C3140 1.334 . S
N3139 C3144 1.362 . S
C3140 H3132 0.929 . S
C3140 N3139 1.334 . S
C3140 C3143 1.413 . S
C3141 H3135 0.930 . S
C3141 C3142 1.392 . S
C3141 C3143 1.367 . S
C3142 C3141 1.392 . S
C3142 C3144 1.420 . S
C3142 C3174 1.423 . S
C3143 H3129 0.930 . S
C3143 C3140 1.413 . S
C3143 C3141 1.367 . S
C3144 N3139 1.362 . S
C3144 C3142 1.420 . S
C3144 C3148 1.429 . S
H3145 C3150 0.930 . S
N3146 Eu3108 2.609 . S
N3146 C3148 1.377 . S
N3146 C3149 1.321 . S
C3147 H3133 0.930 . S
C3147 C3149 1.400 . S
C3147 C3150 1.386 . S
C3148 C3144 1.429 . S
C3148 N3146 1.377 . S
C3148 C3151 1.411 . S
C3149 H3131 0.930 . S
C3149 N3146 1.321 . S
C3149 C3147 1.400 . S
C3150 H3145 0.930 . S
C3150 C3147 1.386 . S
C3150 C3151 1.395 . S
C3151 C3148 1.411 . S
C3151 C3150 1.395 . S
C3151 C3173 1.420 . S
O3152 Eu3108 2.558 . S
O3152 C3172 1.257 . S
O3153 Eu3108 2.612 . S
O3153 Eu3119 2.380 . S
O3153 C3164 1.276 . S
O3154 Eu3119 2.432 . S
O3154 C3171 1.264 . S
O3155 Eu3108 2.339 . S
O3155 C3171 1.254 . S
O3156 Eu3108 2.563 . S
O3156 C3164 1.235 . S
O3157 Eu3108 2.419 . S
O3157 C3172 1.249 . S
O3158 Eu3119 2.558 . S
O3158 C3183 1.257 . S
O3159 Eu3108 2.380 . S
O3159 Eu3119 2.612 . S
O3159 C3175 1.276 . S
O3160 Eu3108 2.432 . S
O3160 C3182 1.264 . S
O3161 Eu3119 2.339 . S
O3161 C3182 1.254 . S
O3162 Eu3119 2.563 . S
O3162 C3175 1.235 . S
O3163 Eu3119 2.419 . S
O3163 C3183 1.249 . S
C3164 O3153 1.276 . S
C3164 O3156 1.235 . S
C3165 C3167 1.393 . S
C3165 C3169 1.395 . S
C3165 C3172 1.492 . S
C3166 C3167 1.392 . S
C3166 C3168 1.386 . S
C3167 C3165 1.393 . S
C3167 C3166 1.392 . S
C3167 H3184 0.930 . S
C3168 C3166 1.386 . S
C3168 C3170 1.395 . S
C3168 H3185 0.930 . S
C3169 C3165 1.395 . S
C3169 C3170 1.379 . S
C3169 H3186 0.930 . S
C3170 C3168 1.395 . S
C3170 C3169 1.379 . S
C3170 H3187 0.930 . S
C3171 O3154 1.264 . S
C3171 O3155 1.254 . S
C3172 Eu3108 2.848 . S
C3172 O3152 1.257 . S
C3172 O3157 1.249 . S
C3172 C3165 1.492 . S
C3173 H3138 0.931 . S
C3173 C3151 1.420 . S
C3173 C3174 1.351 . S
C3174 H3136 0.930 . S
C3174 C3142 1.423 . S
C3174 C3173 1.351 . S
C3175 O3159 1.276 . S
C3175 O3162 1.235 . S
C3176 C3177 1.393 . S
C3176 C3180 1.395 . S
C3176 C3183 1.492 . S
C3177 C3176 1.393 . S
C3177 C3178 1.392 . S
C3177 H3188 0.930 . S
C3178 C3177 1.392 . S
C3178 C3179 1.386 . S
C3179 C3178 1.386 . S
C3179 C3181 1.395 . S
C3179 H3189 0.930 . S
C3180 C3176 1.395 . S
C3180 C3181 1.379 . S
C3180 H3190 0.930 . S
C3181 C3179 1.395 . S
C3181 C3180 1.379 . S
C3181 H3191 0.930 . S
C3182 O3160 1.264 . S
C3182 O3161 1.254 . S
C3183 Eu3119 2.848 . S
C3183 O3158 1.257 . S
C3183 O3163 1.249 . S
C3183 C3176 1.492 . S
H3184 C3167 0.930 . S
H3185 C3168 0.930 . S
H3186 C3169 0.930 . S
H3187 C3170 0.930 . S
H3188 C3177 0.930 . S
H3189 C3179 0.930 . S
H3190 C3180 0.930 . S
H3191 C3181 0.930 . S
Eu3192 N3223 2.657 . S
Eu3192 N3230 2.609 . S
Eu3192 O3236 2.558 . S
Eu3192 O3237 2.612 . S
Eu3192 O3239 2.339 . S
Eu3192 O3240 2.563 . S
Eu3192 O3241 2.419 . S
Eu3192 O3243 2.380 . S
Eu3192 O3244 2.432 . S
Eu3192 C3256 2.848 . S
C3193 C3196 1.429 . S
C3193 C3197 1.411 . S
C3193 N3200 1.377 . S
C3194 C3196 1.420 . S
C3194 C3198 1.423 . S
C3194 C3206 1.392 . S
C3195 C3197 1.420 . S
C3195 C3198 1.351 . S
C3195 H3218 0.931 . S
C3196 C3193 1.429 . S
C3196 C3194 1.420 . S
C3196 N3204 1.362 . S
C3197 C3193 1.411 . S
C3197 C3195 1.420 . S
C3197 C3202 1.395 . S
C3198 C3194 1.423 . S
C3198 C3195 1.351 . S
C3198 H3210 0.930 . S
C3199 C3201 1.400 . S
C3199 C3202 1.386 . S
C3199 H3211 0.930 . S
N3200 C3193 1.377 . S
N3200 C3201 1.321 . S
N3200 Eu3203 2.609 . S
C3201 C3199 1.400 . S
C3201 N3200 1.321 . S
C3201 H3208 0.930 . S
C3202 C3197 1.395 . S
C3202 C3199 1.386 . S
C3202 H3221 0.930 . S
Eu3203 N3200 2.609 . S
Eu3203 N3204 2.657 . S
Eu3203 O3237 2.380 . S
Eu3203 O3238 2.432 . S
Eu3203 O3242 2.558 . S
Eu3203 O3243 2.612 . S
Eu3203 O3245 2.339 . S
Eu3203 O3246 2.563 . S
Eu3203 O3247 2.419 . S
Eu3203 C3267 2.848 . S
N3204 C3196 1.362 . S
N3204 Eu3203 2.657 . S
N3204 C3205 1.334 . S
C3205 N3204 1.334 . S
C3205 C3207 1.413 . S
C3205 H3212 0.929 . S
C3206 C3194 1.392 . S
C3206 C3207 1.367 . S
C3206 H3214 0.930 . S
C3207 C3205 1.413 . S
C3207 C3206 1.367 . S
C3207 H3209 0.930 . S
H3208 C3201 0.930 . S
H3209 C3207 0.930 . S
H3210 C3198 0.930 . S
H3211 C3199 0.930 . S
H3212 C3205 0.929 . S
H3213 C3227 0.930 . S
H3214 C3206 0.930 . S
H3215 C3233 0.930 . S
H3216 C3224 0.929 . S
H3217 C3231 0.930 . S
H3218 C3195 0.931 . S
H3219 C3225 0.930 . S
H3220 C3258 0.930 . S
H3221 C3202 0.930 . S
H3222 C3257 0.931 . S
N3223 Eu3192 2.657 . S
N3223 C3224 1.334 . S
N3223 C3228 1.362 . S
C3224 H3216 0.929 . S
C3224 N3223 1.334 . S
C3224 C3227 1.413 . S
C3225 H3219 0.930 . S
C3225 C3226 1.392 . S
C3225 C3227 1.367 . S
C3226 C3225 1.392 . S
C3226 C3228 1.420 . S
C3226 C3258 1.423 . S
C3227 H3213 0.930 . S
C3227 C3224 1.413 . S
C3227 C3225 1.367 . S
C3228 N3223 1.362 . S
C3228 C3226 1.420 . S
C3228 C3232 1.429 . S
H3229 C3234 0.930 . S
N3230 Eu3192 2.609 . S
N3230 C3232 1.377 . S
N3230 C3233 1.321 . S
C3231 H3217 0.930 . S
C3231 C3233 1.400 . S
C3231 C3234 1.386 . S
C3232 C3228 1.429 . S
C3232 N3230 1.377 . S
C3232 C3235 1.411 . S
C3233 H3215 0.930 . S
C3233 N3230 1.321 . S
C3233 C3231 1.400 . S
C3234 H3229 0.930 . S
C3234 C3231 1.386 . S
C3234 C3235 1.395 . S
C3235 C3232 1.411 . S
C3235 C3234 1.395 . S
C3235 C3257 1.420 . S
O3236 Eu3192 2.558 . S
O3236 C3256 1.257 . S
O3237 Eu3192 2.612 . S
O3237 Eu3203 2.380 . S
O3237 C3248 1.276 . S
O3238 Eu3203 2.432 . S
O3238 C3255 1.264 . S
O3239 Eu3192 2.339 . S
O3239 C3255 1.254 . S
O3240 Eu3192 2.563 . S
O3240 C3248 1.235 . S
O3241 Eu3192 2.419 . S
O3241 C3256 1.249 . S
O3242 Eu3203 2.558 . S
O3242 C3267 1.257 . S
O3243 Eu3192 2.380 . S
O3243 Eu3203 2.612 . S
O3243 C3259 1.276 . S
O3244 Eu3192 2.432 . S
O3244 C3266 1.264 . S
O3245 Eu3203 2.339 . S
O3245 C3266 1.254 . S
O3246 Eu3203 2.563 . S
O3246 C3259 1.235 . S
O3247 Eu3203 2.419 . S
O3247 C3267 1.249 . S
C3248 O3237 1.276 . S
C3248 O3240 1.235 . S
C3249 C3251 1.393 . S
C3249 C3253 1.395 . S
C3249 C3256 1.492 . S
C3250 C3251 1.392 . S
C3250 C3252 1.386 . S
C3251 C3249 1.393 . S
C3251 C3250 1.392 . S
C3251 H3268 0.930 . S
C3252 C3250 1.386 . S
C3252 C3254 1.395 . S
C3252 H3269 0.930 . S
C3253 C3249 1.395 . S
C3253 C3254 1.379 . S
C3253 H3270 0.930 . S
C3254 C3252 1.395 . S
C3254 C3253 1.379 . S
C3254 H3271 0.930 . S
C3255 O3238 1.264 . S
C3255 O3239 1.254 . S
C3256 Eu3192 2.848 . S
C3256 O3236 1.257 . S
C3256 O3241 1.249 . S
C3256 C3249 1.492 . S
C3257 H3222 0.931 . S
C3257 C3235 1.420 . S
C3257 C3258 1.351 . S
C3258 H3220 0.930 . S
C3258 C3226 1.423 . S
C3258 C3257 1.351 . S
C3259 O3243 1.276 . S
C3259 O3246 1.235 . S
C3260 C3261 1.393 . S
C3260 C3264 1.395 . S
C3260 C3267 1.492 . S
C3261 C3260 1.393 . S
C3261 C3262 1.392 . S
C3261 H3272 0.930 . S
C3262 C3261 1.392 . S
C3262 C3263 1.386 . S
C3263 C3262 1.386 . S
C3263 C3265 1.395 . S
C3263 H3273 0.930 . S
C3264 C3260 1.395 . S
C3264 C3265 1.379 . S
C3264 H3274 0.930 . S
C3265 C3263 1.395 . S
C3265 C3264 1.379 . S
C3265 H3275 0.930 . S
C3266 O3244 1.264 . S
C3266 O3245 1.254 . S
C3267 Eu3203 2.848 . S
C3267 O3242 1.257 . S
C3267 O3247 1.249 . S
C3267 C3260 1.492 . S
H3268 C3251 0.930 . S
H3269 C3252 0.930 . S
H3270 C3253 0.930 . S
H3271 C3254 0.930 . S
H3272 C3261 0.930 . S
H3273 C3263 0.930 . S
H3274 C3264 0.930 . S
H3275 C3265 0.930 . S
Eu3276 N3307 2.657 . S
Eu3276 N3314 2.609 . S
Eu3276 O3320 2.558 . S
Eu3276 O3321 2.612 . S
Eu3276 O3323 2.339 . S
Eu3276 O3324 2.563 . S
Eu3276 O3325 2.419 . S
Eu3276 O3327 2.380 . S
Eu3276 O3328 2.432 . S
Eu3276 C3340 2.848 . S
C3277 C3280 1.429 . S
C3277 C3281 1.411 . S
C3277 N3284 1.377 . S
C3278 C3280 1.420 . S
C3278 C3282 1.423 . S
C3278 C3290 1.392 . S
C3279 C3281 1.420 . S
C3279 C3282 1.351 . S
C3279 H3302 0.931 . S
C3280 C3277 1.429 . S
C3280 C3278 1.420 . S
C3280 N3288 1.362 . S
C3281 C3277 1.411 . S
C3281 C3279 1.420 . S
C3281 C3286 1.395 . S
C3282 C3278 1.423 . S
C3282 C3279 1.351 . S
C3282 H3294 0.930 . S
C3283 C3285 1.400 . S
C3283 C3286 1.386 . S
C3283 H3295 0.930 . S
N3284 C3277 1.377 . S
N3284 C3285 1.321 . S
N3284 Eu3287 2.609 . S
C3285 C3283 1.400 . S
C3285 N3284 1.321 . S
C3285 H3292 0.930 . S
C3286 C3281 1.395 . S
C3286 C3283 1.386 . S
C3286 H3305 0.930 . S
Eu3287 N3284 2.609 . S
Eu3287 N3288 2.657 . S
Eu3287 O3321 2.380 . S
Eu3287 O3322 2.432 . S
Eu3287 O3326 2.558 . S
Eu3287 O3327 2.612 . S
Eu3287 O3329 2.339 . S
Eu3287 O3330 2.563 . S
Eu3287 O3331 2.419 . S
Eu3287 C3351 2.848 . S
N3288 C3280 1.362 . S
N3288 Eu3287 2.657 . S
N3288 C3289 1.334 . S
C3289 N3288 1.334 . S
C3289 C3291 1.413 . S
C3289 H3296 0.929 . S
C3290 C3278 1.392 . S
C3290 C3291 1.367 . S
C3290 H3298 0.930 . S
C3291 C3289 1.413 . S
C3291 C3290 1.367 . S
C3291 H3293 0.930 . S
H3292 C3285 0.930 . S
H3293 C3291 0.930 . S
H3294 C3282 0.930 . S
H3295 C3283 0.930 . S
H3296 C3289 0.929 . S
H3297 C3311 0.930 . S
H3298 C3290 0.930 . S
H3299 C3317 0.930 . S
H3300 C3308 0.929 . S
H3301 C3315 0.930 . S
H3302 C3279 0.931 . S
H3303 C3309 0.930 . S
H3304 C3342 0.930 . S
H3305 C3286 0.930 . S
H3306 C3341 0.931 . S
N3307 Eu3276 2.657 . S
N3307 C3308 1.334 . S
N3307 C3312 1.362 . S
C3308 H3300 0.929 . S
C3308 N3307 1.334 . S
C3308 C3311 1.413 . S
C3309 H3303 0.930 . S
C3309 C3310 1.392 . S
C3309 C3311 1.367 . S
C3310 C3309 1.392 . S
C3310 C3312 1.420 . S
C3310 C3342 1.423 . S
C3311 H3297 0.930 . S
C3311 C3308 1.413 . S
C3311 C3309 1.367 . S
C3312 N3307 1.362 . S
C3312 C3310 1.420 . S
C3312 C3316 1.429 . S
H3313 C3318 0.930 . S
N3314 Eu3276 2.609 . S
N3314 C3316 1.377 . S
N3314 C3317 1.321 . S
C3315 H3301 0.930 . S
C3315 C3317 1.400 . S
C3315 C3318 1.386 . S
C3316 C3312 1.429 . S
C3316 N3314 1.377 . S
C3316 C3319 1.411 . S
C3317 H3299 0.930 . S
C3317 N3314 1.321 . S
C3317 C3315 1.400 . S
C3318 H3313 0.930 . S
C3318 C3315 1.386 . S
C3318 C3319 1.395 . S
C3319 C3316 1.411 . S
C3319 C3318 1.395 . S
C3319 C3341 1.420 . S
O3320 Eu3276 2.558 . S
O3320 C3340 1.257 . S
O3321 Eu3276 2.612 . S
O3321 Eu3287 2.380 . S
O3321 C3332 1.276 . S
O3322 Eu3287 2.432 . S
O3322 C3339 1.264 . S
O3323 Eu3276 2.339 . S
O3323 C3339 1.254 . S
O3324 Eu3276 2.563 . S
O3324 C3332 1.235 . S
O3325 Eu3276 2.419 . S
O3325 C3340 1.249 . S
O3326 Eu3287 2.558 . S
O3326 C3351 1.257 . S
O3327 Eu3276 2.380 . S
O3327 Eu3287 2.612 . S
O3327 C3343 1.276 . S
O3328 Eu3276 2.432 . S
O3328 C3350 1.264 . S
O3329 Eu3287 2.339 . S
O3329 C3350 1.254 . S
O3330 Eu3287 2.563 . S
O3330 C3343 1.235 . S
O3331 Eu3287 2.419 . S
O3331 C3351 1.249 . S
C3332 O3321 1.276 . S
C3332 O3324 1.235 . S
C3333 C3335 1.393 . S
C3333 C3337 1.395 . S
C3333 C3340 1.492 . S
C3334 C3335 1.392 . S
C3334 C3336 1.386 . S
C3335 C3333 1.393 . S
C3335 C3334 1.392 . S
C3335 H3352 0.930 . S
C3336 C3334 1.386 . S
C3336 C3338 1.395 . S
C3336 H3353 0.930 . S
C3337 C3333 1.395 . S
C3337 C3338 1.379 . S
C3337 H3354 0.930 . S
C3338 C3336 1.395 . S
C3338 C3337 1.379 . S
C3338 H3355 0.930 . S
C3339 O3322 1.264 . S
C3339 O3323 1.254 . S
C3340 Eu3276 2.848 . S
C3340 O3320 1.257 . S
C3340 O3325 1.249 . S
C3340 C3333 1.492 . S
C3341 H3306 0.931 . S
C3341 C3319 1.420 . S
C3341 C3342 1.351 . S
C3342 H3304 0.930 . S
C3342 C3310 1.423 . S
C3342 C3341 1.351 . S
C3343 O3327 1.276 . S
C3343 O3330 1.235 . S
C3344 C3345 1.393 . S
C3344 C3348 1.395 . S
C3344 C3351 1.492 . S
C3345 C3344 1.393 . S
C3345 C3346 1.392 . S
C3345 H3356 0.930 . S
C3346 C3345 1.392 . S
C3346 C3347 1.386 . S
C3347 C3346 1.386 . S
C3347 C3349 1.395 . S
C3347 H3357 0.930 . S
C3348 C3344 1.395 . S
C3348 C3349 1.379 . S
C3348 H3358 0.930 . S
C3349 C3347 1.395 . S
C3349 C3348 1.379 . S
C3349 H3359 0.930 . S
C3350 O3328 1.264 . S
C3350 O3329 1.254 . S
C3351 Eu3287 2.848 . S
C3351 O3326 1.257 . S
C3351 O3331 1.249 . S
C3351 C3344 1.492 . S
H3352 C3335 0.930 . S
H3353 C3336 0.930 . S
H3354 C3337 0.930 . S
H3355 C3338 0.930 . S
H3356 C3345 0.930 . S
H3357 C3347 0.930 . S
H3358 C3348 0.930 . S
H3359 C3349 0.930 . S
Eu3360 N3391 2.657 . S
Eu3360 N3398 2.609 1_455 S
Eu3360 O3404 2.558 1_455 S
Eu3360 O3405 2.612 . S
Eu3360 O3407 2.339 . S
Eu3360 O3408 2.563 1_455 S
Eu3360 O3409 2.419 1_455 S
Eu3360 O3411 2.380 . S
Eu3360 O3412 2.432 . S
Eu3360 C3424 2.848 1_455 S
C3361 C3364 1.429 . S
C3361 C3365 1.411 . S
C3361 N3368 1.377 . S
C3362 C3364 1.420 . S
C3362 C3366 1.423 . S
C3362 C3374 1.392 . S
C3363 C3365 1.420 . S
C3363 C3366 1.351 . S
C3363 H3386 0.931 . S
C3364 C3361 1.429 . S
C3364 C3362 1.420 . S
C3364 N3372 1.362 . S
C3365 C3361 1.411 . S
C3365 C3363 1.420 . S
C3365 C3370 1.395 . S
C3366 C3362 1.423 . S
C3366 C3363 1.351 . S
C3366 H3378 0.930 . S
C3367 C3369 1.400 . S
C3367 C3370 1.386 . S
C3367 H3379 0.930 . S
N3368 C3361 1.377 . S
N3368 C3369 1.321 . S
N3368 Eu3371 2.609 . S
C3369 C3367 1.400 . S
C3369 N3368 1.321 . S
C3369 H3376 0.930 . S
C3370 C3365 1.395 . S
C3370 C3367 1.386 . S
C3370 H3389 0.930 . S
Eu3371 N3368 2.609 . S
Eu3371 N3372 2.657 . S
Eu3371 O3405 2.380 . S
Eu3371 O3406 2.432 . S
Eu3371 O3410 2.558 . S
Eu3371 O3411 2.612 . S
Eu3371 O3413 2.339 . S
Eu3371 O3414 2.563 . S
Eu3371 O3415 2.419 . S
Eu3371 C3435 2.848 . S
N3372 C3364 1.362 . S
N3372 Eu3371 2.657 . S
N3372 C3373 1.334 . S
C3373 N3372 1.334 . S
C3373 C3375 1.413 . S
C3373 H3380 0.929 . S
C3374 C3362 1.392 . S
C3374 C3375 1.367 . S
C3374 H3382 0.930 . S
C3375 C3373 1.413 . S
C3375 C3374 1.367 . S
C3375 H3377 0.930 1_455 S
H3376 C3369 0.930 . S
H3377 C3375 0.930 1_655 S
H3378 C3366 0.930 . S
H3379 C3367 0.930 . S
H3380 C3373 0.929 . S
H3381 C3395 0.930 . S
H3382 C3374 0.930 . S
H3383 C3401 0.930 . S
H3384 C3392 0.929 . S
H3385 C3399 0.930 . S
H3386 C3363 0.931 . S
H3387 C3393 0.930 . S
H3388 C3426 0.930 . S
H3389 C3370 0.930 . S
H3390 C3425 0.931 . S
N3391 Eu3360 2.657 . S
N3391 C3392 1.334 . S
N3391 C3396 1.362 . S
C3392 H3384 0.929 . S
C3392 N3391 1.334 . S
C3392 C3395 1.413 . S
C3393 H3387 0.930 . S
C3393 C3394 1.392 . S
C3393 C3395 1.367 . S
C3394 C3393 1.392 . S
C3394 C3396 1.420 . S
C3394 C3426 1.423 . S
C3395 H3381 0.930 . S
C3395 C3392 1.413 . S
C3395 C3393 1.367 . S
C3396 N3391 1.362 . S
C3396 C3394 1.420 . S
C3396 C3400 1.429 . S
H3397 C3402 0.930 . S
N3398 Eu3360 2.609 1_655 S
N3398 C3400 1.377 1_655 S
N3398 C3401 1.321 . S
C3399 H3385 0.930 . S
C3399 C3401 1.400 . S
C3399 C3402 1.386 . S
C3400 C3396 1.429 . S
C3400 N3398 1.377 1_455 S
C3400 C3403 1.409 1_455 S
C3401 H3383 0.930 . S
C3401 N3398 1.321 . S
C3401 C3399 1.400 . S
C3402 H3397 0.930 . S
C3402 C3399 1.386 . S
C3402 C3403 1.400 . S
C3403 C3400 1.409 1_655 S
C3403 C3402 1.400 . S
C3403 C3425 1.417 1_655 S
O3404 Eu3360 2.558 1_655 S
O3404 C3424 1.257 . S
O3405 Eu3360 2.612 . S
O3405 Eu3371 2.380 . S
O3405 C3416 1.276 . S
O3406 Eu3371 2.432 . S
O3406 C3423 1.264 . S
O3407 Eu3360 2.339 . S
O3407 C3423 1.254 . S
O3408 Eu3360 2.563 1_655 S
O3408 C3416 1.235 1_655 S
O3409 Eu3360 2.419 1_655 S
O3409 C3424 1.249 . S
O3410 Eu3371 2.558 . S
O3410 C3435 1.257 . S
O3411 Eu3360 2.380 . S
O3411 Eu3371 2.612 . S
O3411 C3427 1.276 . S
O3412 Eu3360 2.432 . S
O3412 C3434 1.264 . S
O3413 Eu3371 2.339 . S
O3413 C3434 1.254 . S
O3414 Eu3371 2.563 . S
O3414 C3427 1.235 . S
O3415 Eu3371 2.419 . S
O3415 C3435 1.249 . S
C3416 O3405 1.276 . S
C3416 O3408 1.235 1_455 S
C3417 C3419 1.393 . S
C3417 C3421 1.395 . S
C3417 C3424 1.492 . S
C3418 C3419 1.392 . S
C3418 C3420 1.386 . S
C3419 C3417 1.393 . S
C3419 C3418 1.392 . S
C3419 H3436 0.930 . S
C3420 C3418 1.386 . S
C3420 C3422 1.395 . S
C3420 H3437 0.930 . S
C3421 C3417 1.395 . S
C3421 C3422 1.379 . S
C3421 H3438 0.930 . S
C3422 C3420 1.395 . S
C3422 C3421 1.379 . S
C3422 H3439 0.930 . S
C3423 O3406 1.264 . S
C3423 O3407 1.254 . S
C3424 Eu3360 2.848 1_655 S
C3424 O3404 1.257 . S
C3424 O3409 1.249 . S
C3424 C3417 1.492 . S
C3425 H3390 0.931 . S
C3425 C3403 1.417 1_455 S
C3425 C3426 1.351 . S
C3426 H3388 0.930 . S
C3426 C3394 1.423 . S
C3426 C3425 1.351 . S
C3427 O3411 1.276 . S
C3427 O3414 1.235 . S
C3428 C3429 1.393 . S
C3428 C3432 1.395 . S
C3428 C3435 1.492 . S
C3429 C3428 1.393 . S
C3429 C3430 1.392 . S
C3429 H3440 0.930 . S
C3430 C3429 1.392 . S
C3430 C3431 1.386 . S
C3431 C3430 1.386 . S
C3431 C3433 1.395 . S
C3431 H3441 0.930 . S
C3432 C3428 1.395 . S
C3432 C3433 1.379 . S
C3432 H3442 0.930 . S
C3433 C3431 1.395 . S
C3433 C3432 1.379 . S
C3433 H3443 0.930 . S
C3434 O3412 1.264 . S
C3434 O3413 1.254 . S
C3435 Eu3371 2.848 . S
C3435 O3410 1.257 . S
C3435 O3415 1.249 . S
C3435 C3428 1.492 . S
H3436 C3419 0.930 . S
H3437 C3420 0.930 . S
H3438 C3421 0.930 . S
H3439 C3422 0.930 . S
H3440 C3429 0.930 . S
H3441 C3431 0.930 . S
H3442 C3432 0.930 . S
H3443 C3433 0.930 . S
Eu3444 N3475 2.657 . S
Eu3444 N3482 2.609 . S
Eu3444 O3488 2.558 . S
Eu3444 O3489 2.612 . S
Eu3444 O3491 2.339 . S
Eu3444 O3492 2.563 . S
Eu3444 O3493 2.419 . S
Eu3444 O3495 2.380 . S
Eu3444 O3496 2.432 . S
Eu3444 C3508 2.848 . S
C3445 C3448 1.429 . S
C3445 C3449 1.411 . S
C3445 N3452 1.377 . S
C3446 C3448 1.420 . S
C3446 C3450 1.423 . S
C3446 C3458 1.392 . S
C3447 C3449 1.420 . S
C3447 C3450 1.351 . S
C3447 H3470 0.931 . S
C3448 C3445 1.429 . S
C3448 C3446 1.420 . S
C3448 N3456 1.362 . S
C3449 C3445 1.411 . S
C3449 C3447 1.420 . S
C3449 C3454 1.395 . S
C3450 C3446 1.423 . S
C3450 C3447 1.351 . S
C3450 H3462 0.930 . S
C3451 C3453 1.400 . S
C3451 C3454 1.386 . S
C3451 H3463 0.930 . S
N3452 C3445 1.377 . S
N3452 C3453 1.321 . S
N3452 Eu3455 2.609 . S
C3453 C3451 1.400 . S
C3453 N3452 1.321 . S
C3453 H3460 0.930 . S
C3454 C3449 1.395 . S
C3454 C3451 1.386 . S
C3454 H3473 0.930 . S
Eu3455 N3452 2.609 . S
Eu3455 N3456 2.657 . S
Eu3455 O3489 2.380 . S
Eu3455 O3490 2.432 . S
Eu3455 O3494 2.558 . S
Eu3455 O3495 2.612 . S
Eu3455 O3497 2.339 . S
Eu3455 O3498 2.563 . S
Eu3455 O3499 2.419 . S
Eu3455 C3519 2.848 . S
N3456 C3448 1.362 . S
N3456 Eu3455 2.657 . S
N3456 C3457 1.334 . S
C3457 N3456 1.334 . S
C3457 C3459 1.413 . S
C3457 H3464 0.929 . S
C3458 C3446 1.392 . S
C3458 C3459 1.367 . S
C3458 H3466 0.930 . S
C3459 C3457 1.413 . S
C3459 C3458 1.367 . S
C3459 H3461 0.930 . S
H3460 C3453 0.930 . S
H3461 C3459 0.930 . S
H3462 C3450 0.930 . S
H3463 C3451 0.930 . S
H3464 C3457 0.929 . S
H3465 C3479 0.930 . S
H3466 C3458 0.930 . S
H3467 C3485 0.930 . S
H3468 C3476 0.929 . S
H3469 C3483 0.930 . S
H3470 C3447 0.931 . S
H3471 C3477 0.930 . S
H3472 C3510 0.930 . S
H3473 C3454 0.930 . S
H3474 C3509 0.931 . S
N3475 Eu3444 2.657 . S
N3475 C3476 1.334 . S
N3475 C3480 1.362 . S
C3476 H3468 0.929 . S
C3476 N3475 1.334 . S
C3476 C3479 1.413 . S
C3477 H3471 0.930 . S
C3477 C3478 1.392 . S
C3477 C3479 1.367 . S
C3478 C3477 1.392 . S
C3478 C3480 1.420 . S
C3478 C3510 1.423 . S
C3479 H3465 0.930 . S
C3479 C3476 1.413 . S
C3479 C3477 1.367 . S
C3480 N3475 1.362 . S
C3480 C3478 1.420 . S
C3480 C3484 1.429 . S
H3481 C3486 0.930 . S
N3482 Eu3444 2.609 . S
N3482 C3484 1.377 . S
N3482 C3485 1.321 . S
C3483 H3469 0.930 . S
C3483 C3485 1.400 . S
C3483 C3486 1.386 . S
C3484 C3480 1.429 . S
C3484 N3482 1.377 . S
C3484 C3487 1.411 . S
C3485 H3467 0.930 . S
C3485 N3482 1.321 . S
C3485 C3483 1.400 . S
C3486 H3481 0.930 . S
C3486 C3483 1.386 . S
C3486 C3487 1.395 . S
C3487 C3484 1.411 . S
C3487 C3486 1.395 . S
C3487 C3509 1.420 . S
O3488 Eu3444 2.558 . S
O3488 C3508 1.257 . S
O3489 Eu3444 2.612 . S
O3489 Eu3455 2.380 . S
O3489 C3500 1.276 . S
O3490 Eu3455 2.432 . S
O3490 C3507 1.264 . S
O3491 Eu3444 2.339 . S
O3491 C3507 1.254 . S
O3492 Eu3444 2.563 . S
O3492 C3500 1.235 . S
O3493 Eu3444 2.419 . S
O3493 C3508 1.249 . S
O3494 Eu3455 2.558 . S
O3494 C3519 1.257 . S
O3495 Eu3444 2.380 . S
O3495 Eu3455 2.612 . S
O3495 C3511 1.276 . S
O3496 Eu3444 2.432 . S
O3496 C3518 1.264 . S
O3497 Eu3455 2.339 . S
O3497 C3518 1.254 . S
O3498 Eu3455 2.563 . S
O3498 C3511 1.235 . S
O3499 Eu3455 2.419 . S
O3499 C3519 1.249 . S
C3500 O3489 1.276 . S
C3500 O3492 1.235 . S
C3501 C3503 1.393 . S
C3501 C3505 1.395 . S
C3501 C3508 1.492 . S
C3502 C3503 1.392 . S
C3502 C3504 1.386 . S
C3503 C3501 1.393 . S
C3503 C3502 1.392 . S
C3503 H3520 0.930 . S
C3504 C3502 1.386 . S
C3504 C3506 1.395 . S
C3504 H3521 0.930 . S
C3505 C3501 1.395 . S
C3505 C3506 1.379 . S
C3505 H3522 0.930 . S
C3506 C3504 1.395 . S
C3506 C3505 1.379 . S
C3506 H3523 0.930 . S
C3507 O3490 1.264 . S
C3507 O3491 1.254 . S
C3508 Eu3444 2.848 . S
C3508 O3488 1.257 . S
C3508 O3493 1.249 . S
C3508 C3501 1.492 . S
C3509 H3474 0.931 . S
C3509 C3487 1.420 . S
C3509 C3510 1.351 . S
C3510 H3472 0.930 . S
C3510 C3478 1.423 . S
C3510 C3509 1.351 . S
C3511 O3495 1.276 . S
C3511 O3498 1.235 . S
C3512 C3513 1.393 . S
C3512 C3516 1.395 . S
C3512 C3519 1.492 . S
C3513 C3512 1.393 . S
C3513 C3514 1.392 . S
C3513 H3524 0.930 . S
C3514 C3513 1.392 . S
C3514 C3515 1.386 . S
C3515 C3514 1.386 . S
C3515 C3517 1.395 . S
C3515 H3525 0.930 . S
C3516 C3512 1.395 . S
C3516 C3517 1.379 . S
C3516 H3526 0.930 . S
C3517 C3515 1.395 . S
C3517 C3516 1.379 . S
C3517 H3527 0.930 . S
C3518 O3496 1.264 . S
C3518 O3497 1.254 . S
C3519 Eu3455 2.848 . S
C3519 O3494 1.257 . S
C3519 O3499 1.249 . S
C3519 C3512 1.492 . S
H3520 C3503 0.930 . S
H3521 C3504 0.930 . S
H3522 C3505 0.930 . S
H3523 C3506 0.930 . S
H3524 C3513 0.930 . S
H3525 C3515 0.930 . S
H3526 C3516 0.930 . S
H3527 C3517 0.930 . S
Eu3528 N3559 2.657 . S
Eu3528 N3566 2.600 1_554 S
Eu3528 O3572 2.558 1_554 S
Eu3528 O3573 2.612 . S
Eu3528 O3575 2.339 . S
Eu3528 O3576 2.563 1_554 S
Eu3528 O3577 2.419 1_554 S
Eu3528 O3579 2.380 . S
Eu3528 O3580 2.432 . S
Eu3528 C3592 2.848 1_554 S
C3529 C3532 1.429 . S
C3529 C3533 1.411 . S
C3529 N3536 1.377 . S
C3530 C3532 1.420 . S
C3530 C3534 1.423 . S
C3530 C3542 1.392 . S
C3531 C3533 1.420 . S
C3531 C3534 1.351 . S
C3531 H3554 0.931 . S
C3532 C3529 1.429 . S
C3532 C3530 1.420 . S
C3532 N3540 1.362 . S
C3533 C3529 1.411 . S
C3533 C3531 1.420 . S
C3533 C3538 1.395 . S
C3534 C3530 1.423 . S
C3534 C3531 1.351 . S
C3534 H3546 0.930 . S
C3535 C3537 1.400 . S
C3535 C3538 1.386 . S
C3535 H3547 0.930 . S
N3536 C3529 1.377 . S
N3536 C3537 1.321 . S
N3536 Eu3539 2.609 . S
C3537 C3535 1.400 . S
C3537 N3536 1.321 . S
C3537 H3544 0.930 . S
C3538 C3533 1.395 . S
C3538 C3535 1.386 . S
C3538 H3557 0.930 . S
Eu3539 N3536 2.609 . S
Eu3539 N3540 2.657 . S
Eu3539 O3573 2.380 . S
Eu3539 O3574 2.432 . S
Eu3539 O3578 2.558 . S
Eu3539 O3579 2.612 . S
Eu3539 O3581 2.339 . S
Eu3539 O3582 2.563 . S
Eu3539 O3583 2.419 . S
Eu3539 C3603 2.848 . S
N3540 C3532 1.362 . S
N3540 Eu3539 2.657 . S
N3540 C3541 1.334 . S
C3541 N3540 1.334 . S
C3541 C3543 1.413 . S
C3541 H3548 0.929 . S
C3542 C3530 1.392 . S
C3542 C3543 1.367 . S
C3542 H3550 0.930 . S
C3543 C3541 1.413 . S
C3543 C3542 1.367 . S
C3543 H3545 0.930 1_554 S
H3544 C3537 0.930 . S
H3545 C3543 0.930 1_556 S
H3546 C3534 0.930 . S
H3547 C3535 0.930 . S
H3548 C3541 0.929 . S
H3549 C3563 0.930 . S
H3550 C3542 0.930 . S
H3551 C3569 0.930 . S
H3552 C3560 0.929 . S
H3553 C3567 0.930 . S
H3554 C3531 0.931 . S
H3555 C3561 0.930 . S
H3556 C3594 0.930 . S
H3557 C3538 0.930 . S
H3558 C3593 0.931 . S
N3559 Eu3528 2.657 . S
N3559 C3560 1.334 . S
N3559 C3564 1.362 . S
C3560 H3552 0.929 . S
C3560 N3559 1.334 . S
C3560 C3563 1.413 . S
C3561 H3555 0.930 . S
C3561 C3562 1.392 . S
C3561 C3563 1.367 . S
C3562 C3561 1.392 . S
C3562 C3564 1.420 . S
C3562 C3594 1.423 . S
C3563 H3549 0.930 . S
C3563 C3560 1.413 . S
C3563 C3561 1.367 . S
C3564 N3559 1.362 . S
C3564 C3562 1.420 . S
C3564 C3568 1.429 . S
H3565 C3570 0.930 . S
N3566 Eu3528 2.600 1_556 S
N3566 C3568 1.363 1_556 S
N3566 C3569 1.350 . S
C3567 H3553 0.930 . S
C3567 C3569 1.400 . S
C3567 C3570 1.386 . S
C3568 C3564 1.429 . S
C3568 N3566 1.363 1_554 S
C3568 C3571 1.422 . S
C3569 H3551 0.930 . S
C3569 N3566 1.350 . S
C3569 C3567 1.400 . S
C3570 H3565 0.930 . S
C3570 C3567 1.386 . S
C3570 C3571 1.371 1_556 S
C3571 C3568 1.422 . S
C3571 C3570 1.371 1_554 S
C3571 C3593 1.435 . S
O3572 Eu3528 2.558 1_556 S
O3572 C3592 1.257 . S
O3573 Eu3528 2.612 . S
O3573 Eu3539 2.380 . S
O3573 C3584 1.276 . S
O3574 Eu3539 2.432 . S
O3574 C3591 1.264 . S
O3575 Eu3528 2.339 . S
O3575 C3591 1.254 . S
O3576 Eu3528 2.563 1_556 S
O3576 C3584 1.235 1_556 S
O3577 Eu3528 2.419 1_556 S
O3577 C3592 1.249 . S
O3578 Eu3539 2.558 . S
O3578 C3603 1.257 . S
O3579 Eu3528 2.380 . S
O3579 Eu3539 2.612 . S
O3579 C3595 1.276 . S
O3580 Eu3528 2.432 . S
O3580 C3602 1.264 . S
O3581 Eu3539 2.339 . S
O3581 C3602 1.254 . S
O3582 Eu3539 2.563 . S
O3582 C3595 1.235 . S
O3583 Eu3539 2.419 . S
O3583 C3603 1.249 . S
C3584 O3573 1.276 . S
C3584 O3576 1.235 1_554 S
C3585 C3587 1.393 . S
C3585 C3589 1.395 . S
C3585 C3592 1.492 . S
C3586 C3587 1.392 . S
C3586 C3588 1.386 . S
C3587 C3585 1.393 . S
C3587 C3586 1.392 . S
C3587 H3604 0.930 . S
C3588 C3586 1.386 . S
C3588 C3590 1.395 . S
C3588 H3605 0.930 . S
C3589 C3585 1.395 . S
C3589 C3590 1.379 . S
C3589 H3606 0.930 . S
C3590 C3588 1.395 . S
C3590 C3589 1.379 . S
C3590 H3607 0.930 . S
C3591 O3574 1.264 . S
C3591 O3575 1.254 . S
C3592 Eu3528 2.848 1_556 S
C3592 O3572 1.257 . S
C3592 O3577 1.249 . S
C3592 C3585 1.492 . S
C3593 H3558 0.931 . S
C3593 C3571 1.435 . S
C3593 C3594 1.351 . S
C3594 H3556 0.930 . S
C3594 C3562 1.423 . S
C3594 C3593 1.351 . S
C3595 O3579 1.276 . S
C3595 O3582 1.235 . S
C3596 C3597 1.393 . S
C3596 C3600 1.395 . S
C3596 C3603 1.492 . S
C3597 C3596 1.393 . S
C3597 C3598 1.392 . S
C3597 H3608 0.930 . S
C3598 C3597 1.392 . S
C3598 C3599 1.386 . S
C3599 C3598 1.386 . S
C3599 C3601 1.395 . S
C3599 H3609 0.930 . S
C3600 C3596 1.395 . S
C3600 C3601 1.379 . S
C3600 H3610 0.930 . S
C3601 C3599 1.395 . S
C3601 C3600 1.379 . S
C3601 H3611 0.930 . S
C3602 O3580 1.264 . S
C3602 O3581 1.254 . S
C3603 Eu3539 2.848 . S
C3603 O3578 1.257 . S
C3603 O3583 1.249 . S
C3603 C3596 1.492 . S
H3604 C3587 0.930 . S
H3605 C3588 0.930 . S
H3606 C3589 0.930 . S
H3607 C3590 0.930 . S
H3608 C3597 0.930 . S
H3609 C3599 0.930 . S
H3610 C3600 0.930 . S
H3611 C3601 0.930 . S
Eu3612 N3643 2.657 . S
Eu3612 N3650 2.609 . S
Eu3612 O3656 2.558 . S
Eu3612 O3657 2.612 . S
Eu3612 O3659 2.339 . S
Eu3612 O3660 2.563 . S
Eu3612 O3661 2.419 . S
Eu3612 O3663 2.380 . S
Eu3612 O3664 2.432 . S
Eu3612 C3676 2.848 . S
C3613 C3616 1.429 . S
C3613 C3617 1.411 . S
C3613 N3620 1.377 . S
C3614 C3616 1.420 . S
C3614 C3618 1.423 . S
C3614 C3626 1.392 . S
C3615 C3617 1.420 . S
C3615 C3618 1.351 . S
C3615 H3638 0.931 . S
C3616 C3613 1.429 . S
C3616 C3614 1.420 . S
C3616 N3624 1.362 . S
C3617 C3613 1.411 . S
C3617 C3615 1.420 . S
C3617 C3622 1.395 . S
C3618 C3614 1.423 . S
C3618 C3615 1.351 . S
C3618 H3630 0.930 . S
C3619 C3621 1.400 . S
C3619 C3622 1.386 . S
C3619 H3631 0.930 . S
N3620 C3613 1.377 . S
N3620 C3621 1.321 . S
N3620 Eu3623 2.609 . S
C3621 C3619 1.400 . S
C3621 N3620 1.321 . S
C3621 H3628 0.930 . S
C3622 C3617 1.395 . S
C3622 C3619 1.386 . S
C3622 H3641 0.930 . S
Eu3623 N3620 2.609 . S
Eu3623 N3624 2.657 . S
Eu3623 O3657 2.380 . S
Eu3623 O3658 2.432 . S
Eu3623 O3662 2.558 . S
Eu3623 O3663 2.612 . S
Eu3623 O3665 2.339 . S
Eu3623 O3666 2.563 . S
Eu3623 O3667 2.419 . S
Eu3623 C3687 2.848 . S
N3624 C3616 1.362 . S
N3624 Eu3623 2.657 . S
N3624 C3625 1.334 . S
C3625 N3624 1.334 . S
C3625 C3627 1.413 . S
C3625 H3632 0.929 . S
C3626 C3614 1.392 . S
C3626 C3627 1.367 . S
C3626 H3634 0.930 . S
C3627 C3625 1.413 . S
C3627 C3626 1.367 . S
C3627 H3629 0.930 . S
H3628 C3621 0.930 . S
H3629 C3627 0.930 . S
H3630 C3618 0.930 . S
H3631 C3619 0.930 . S
H3632 C3625 0.929 . S
H3633 C3647 0.930 . S
H3634 C3626 0.930 . S
H3635 C3653 0.930 . S
H3636 C3644 0.929 . S
H3637 C3651 0.930 . S
H3638 C3615 0.931 . S
H3639 C3645 0.930 . S
H3640 C3678 0.930 . S
H3641 C3622 0.930 . S
H3642 C3677 0.931 . S
N3643 Eu3612 2.657 . S
N3643 C3644 1.334 . S
N3643 C3648 1.362 . S
C3644 H3636 0.929 . S
C3644 N3643 1.334 . S
C3644 C3647 1.413 . S
C3645 H3639 0.930 . S
C3645 C3646 1.392 . S
C3645 C3647 1.367 . S
C3646 C3645 1.392 . S
C3646 C3648 1.420 . S
C3646 C3678 1.423 . S
C3647 H3633 0.930 . S
C3647 C3644 1.413 . S
C3647 C3645 1.367 . S
C3648 N3643 1.362 . S
C3648 C3646 1.420 . S
C3648 C3652 1.429 . S
H3649 C3654 0.930 . S
N3650 Eu3612 2.609 . S
N3650 C3652 1.377 . S
N3650 C3653 1.321 . S
C3651 H3637 0.930 . S
C3651 C3653 1.400 . S
C3651 C3654 1.386 . S
C3652 C3648 1.429 . S
C3652 N3650 1.377 . S
C3652 C3655 1.411 . S
C3653 H3635 0.930 . S
C3653 N3650 1.321 . S
C3653 C3651 1.400 . S
C3654 H3649 0.930 . S
C3654 C3651 1.386 . S
C3654 C3655 1.395 . S
C3655 C3652 1.411 . S
C3655 C3654 1.395 . S
C3655 C3677 1.420 . S
O3656 Eu3612 2.558 . S
O3656 C3676 1.257 . S
O3657 Eu3612 2.612 . S
O3657 Eu3623 2.380 . S
O3657 C3668 1.276 . S
O3658 Eu3623 2.432 . S
O3658 C3675 1.264 . S
O3659 Eu3612 2.339 . S
O3659 C3675 1.254 . S
O3660 Eu3612 2.563 . S
O3660 C3668 1.235 . S
O3661 Eu3612 2.419 . S
O3661 C3676 1.249 . S
O3662 Eu3623 2.558 . S
O3662 C3687 1.257 . S
O3663 Eu3612 2.380 . S
O3663 Eu3623 2.612 . S
O3663 C3679 1.276 . S
O3664 Eu3612 2.432 . S
O3664 C3686 1.264 . S
O3665 Eu3623 2.339 . S
O3665 C3686 1.254 . S
O3666 Eu3623 2.563 . S
O3666 C3679 1.235 . S
O3667 Eu3623 2.419 . S
O3667 C3687 1.249 . S
C3668 O3657 1.276 . S
C3668 O3660 1.235 . S
C3669 C3671 1.393 . S
C3669 C3673 1.395 . S
C3669 C3676 1.492 . S
C3670 C3671 1.392 . S
C3670 C3672 1.386 . S
C3671 C3669 1.393 . S
C3671 C3670 1.392 . S
C3671 H3688 0.930 . S
C3672 C3670 1.386 . S
C3672 C3674 1.395 . S
C3672 H3689 0.930 . S
C3673 C3669 1.395 . S
C3673 C3674 1.379 . S
C3673 H3690 0.930 . S
C3674 C3672 1.395 . S
C3674 C3673 1.379 . S
C3674 H3691 0.930 . S
C3675 O3658 1.264 . S
C3675 O3659 1.254 . S
C3676 Eu3612 2.848 . S
C3676 O3656 1.257 . S
C3676 O3661 1.249 . S
C3676 C3669 1.492 . S
C3677 H3642 0.931 . S
C3677 C3655 1.420 . S
C3677 C3678 1.351 . S
C3678 H3640 0.930 . S
C3678 C3646 1.423 . S
C3678 C3677 1.351 . S
C3679 O3663 1.276 . S
C3679 O3666 1.235 . S
C3680 C3681 1.393 . S
C3680 C3684 1.395 . S
C3680 C3687 1.492 . S
C3681 C3680 1.393 . S
C3681 C3682 1.392 . S
C3681 H3692 0.930 . S
C3682 C3681 1.392 . S
C3682 C3683 1.386 . S
C3683 C3682 1.386 . S
C3683 C3685 1.395 . S
C3683 H3693 0.930 . S
C3684 C3680 1.395 . S
C3684 C3685 1.379 . S
C3684 H3694 0.930 . S
C3685 C3683 1.395 . S
C3685 C3684 1.379 . S
C3685 H3695 0.930 . S
C3686 O3664 1.264 . S
C3686 O3665 1.254 . S
C3687 Eu3623 2.848 . S
C3687 O3662 1.257 . S
C3687 O3667 1.249 . S
C3687 C3680 1.492 . S
H3688 C3671 0.930 . S
H3689 C3672 0.930 . S
H3690 C3673 0.930 . S
H3691 C3674 0.930 . S
H3692 C3681 0.930 . S
H3693 C3683 0.930 . S
H3694 C3684 0.930 . S
H3695 C3685 0.930 . S
Eu3696 N3727 2.657 . S
Eu3696 N3734 2.609 . S
Eu3696 O3740 2.558 . S
Eu3696 O3741 2.612 . S
Eu3696 O3743 2.339 . S
Eu3696 O3744 2.563 . S
Eu3696 O3745 2.419 . S
Eu3696 O3747 2.380 . S
Eu3696 O3748 2.432 . S
Eu3696 C3760 2.848 . S
C3697 C3700 1.429 . S
C3697 C3701 1.411 . S
C3697 N3704 1.377 . S
C3698 C3700 1.420 . S
C3698 C3702 1.423 . S
C3698 C3710 1.392 . S
C3699 C3701 1.420 . S
C3699 C3702 1.351 . S
C3699 H3722 0.931 . S
C3700 C3697 1.429 . S
C3700 C3698 1.420 . S
C3700 N3708 1.362 . S
C3701 C3697 1.411 . S
C3701 C3699 1.420 . S
C3701 C3706 1.395 . S
C3702 C3698 1.423 . S
C3702 C3699 1.351 . S
C3702 H3714 0.930 . S
C3703 C3705 1.400 . S
C3703 C3706 1.386 . S
C3703 H3715 0.930 . S
N3704 C3697 1.377 . S
N3704 C3705 1.321 . S
N3704 Eu3707 2.609 . S
C3705 C3703 1.400 . S
C3705 N3704 1.321 . S
C3705 H3712 0.930 . S
C3706 C3701 1.395 . S
C3706 C3703 1.386 . S
C3706 H3725 0.930 . S
Eu3707 N3704 2.609 . S
Eu3707 N3708 2.657 . S
Eu3707 O3741 2.380 . S
Eu3707 O3742 2.432 . S
Eu3707 O3746 2.558 . S
Eu3707 O3747 2.612 . S
Eu3707 O3749 2.339 . S
Eu3707 O3750 2.563 . S
Eu3707 O3751 2.419 . S
Eu3707 C3771 2.848 . S
N3708 C3700 1.362 . S
N3708 Eu3707 2.657 . S
N3708 C3709 1.334 . S
C3709 N3708 1.334 . S
C3709 C3711 1.413 . S
C3709 H3716 0.929 . S
C3710 C3698 1.392 . S
C3710 C3711 1.367 . S
C3710 H3718 0.930 . S
C3711 C3709 1.413 . S
C3711 C3710 1.367 . S
C3711 H3713 0.930 . S
H3712 C3705 0.930 . S
H3713 C3711 0.930 . S
H3714 C3702 0.930 . S
H3715 C3703 0.930 . S
H3716 C3709 0.929 . S
H3717 C3731 0.930 . S
H3718 C3710 0.930 . S
H3719 C3737 0.930 . S
H3720 C3728 0.929 . S
H3721 C3735 0.930 . S
H3722 C3699 0.931 . S
H3723 C3729 0.930 . S
H3724 C3762 0.930 . S
H3725 C3706 0.930 . S
H3726 C3761 0.931 . S
N3727 Eu3696 2.657 . S
N3727 C3728 1.334 . S
N3727 C3732 1.362 . S
C3728 H3720 0.929 . S
C3728 N3727 1.334 . S
C3728 C3731 1.413 . S
C3729 H3723 0.930 . S
C3729 C3730 1.392 . S
C3729 C3731 1.367 . S
C3730 C3729 1.392 . S
C3730 C3732 1.420 . S
C3730 C3762 1.423 . S
C3731 H3717 0.930 . S
C3731 C3728 1.413 . S
C3731 C3729 1.367 . S
C3732 N3727 1.362 . S
C3732 C3730 1.420 . S
C3732 C3736 1.429 . S
H3733 C3738 0.930 . S
N3734 Eu3696 2.609 . S
N3734 C3736 1.377 . S
N3734 C3737 1.321 . S
C3735 H3721 0.930 . S
C3735 C3737 1.400 . S
C3735 C3738 1.386 . S
C3736 C3732 1.429 . S
C3736 N3734 1.377 . S
C3736 C3739 1.411 . S
C3737 H3719 0.930 . S
C3737 N3734 1.321 . S
C3737 C3735 1.400 . S
C3738 H3733 0.930 . S
C3738 C3735 1.386 . S
C3738 C3739 1.395 . S
C3739 C3736 1.411 . S
C3739 C3738 1.395 . S
C3739 C3761 1.420 . S
O3740 Eu3696 2.558 . S
O3740 C3760 1.257 . S
O3741 Eu3696 2.612 . S
O3741 Eu3707 2.380 . S
O3741 C3752 1.276 . S
O3742 Eu3707 2.432 . S
O3742 C3759 1.264 . S
O3743 Eu3696 2.339 . S
O3743 C3759 1.254 . S
O3744 Eu3696 2.563 . S
O3744 C3752 1.235 . S
O3745 Eu3696 2.419 . S
O3745 C3760 1.249 . S
O3746 Eu3707 2.558 . S
O3746 C3771 1.257 . S
O3747 Eu3696 2.380 . S
O3747 Eu3707 2.612 . S
O3747 C3763 1.276 . S
O3748 Eu3696 2.432 . S
O3748 C3770 1.264 . S
O3749 Eu3707 2.339 . S
O3749 C3770 1.254 . S
O3750 Eu3707 2.563 . S
O3750 C3763 1.235 . S
O3751 Eu3707 2.419 . S
O3751 C3771 1.249 . S
C3752 O3741 1.276 . S
C3752 O3744 1.235 . S
C3753 C3755 1.393 . S
C3753 C3757 1.395 . S
C3753 C3760 1.492 . S
C3754 C3755 1.392 . S
C3754 C3756 1.386 . S
C3755 C3753 1.393 . S
C3755 C3754 1.392 . S
C3755 H3772 0.930 . S
C3756 C3754 1.386 . S
C3756 C3758 1.395 . S
C3756 H3773 0.930 . S
C3757 C3753 1.395 . S
C3757 C3758 1.379 . S
C3757 H3774 0.930 . S
C3758 C3756 1.395 . S
C3758 C3757 1.379 . S
C3758 H3775 0.930 . S
C3759 O3742 1.264 . S
C3759 O3743 1.254 . S
C3760 Eu3696 2.848 . S
C3760 O3740 1.257 . S
C3760 O3745 1.249 . S
C3760 C3753 1.492 . S
C3761 H3726 0.931 . S
C3761 C3739 1.420 . S
C3761 C3762 1.351 . S
C3762 H3724 0.930 . S
C3762 C3730 1.423 . S
C3762 C3761 1.351 . S
C3763 O3747 1.276 . S
C3763 O3750 1.235 . S
C3764 C3765 1.393 . S
C3764 C3768 1.395 . S
C3764 C3771 1.492 . S
C3765 C3764 1.393 . S
C3765 C3766 1.392 . S
C3765 H3776 0.930 . S
C3766 C3765 1.392 . S
C3766 C3767 1.386 . S
C3767 C3766 1.386 . S
C3767 C3769 1.395 . S
C3767 H3777 0.930 . S
C3768 C3764 1.395 . S
C3768 C3769 1.379 . S
C3768 H3778 0.930 . S
C3769 C3767 1.395 . S
C3769 C3768 1.379 . S
C3769 H3779 0.930 . S
C3770 O3748 1.264 . S
C3770 O3749 1.254 . S
C3771 Eu3707 2.848 . S
C3771 O3746 1.257 . S
C3771 O3751 1.249 . S
C3771 C3764 1.492 . S
H3772 C3755 0.930 . S
H3773 C3756 0.930 . S
H3774 C3757 0.930 . S
H3775 C3758 0.930 . S
H3776 C3765 0.930 . S
H3777 C3767 0.930 . S
H3778 C3768 0.930 . S
H3779 C3769 0.930 . S
Eu3780 N3811 2.657 . S
Eu3780 N3818 2.609 . S
Eu3780 O3824 2.558 . S
Eu3780 O3825 2.612 . S
Eu3780 O3827 2.339 . S
Eu3780 O3828 2.563 . S
Eu3780 O3829 2.419 . S
Eu3780 O3831 2.380 . S
Eu3780 O3832 2.432 . S
Eu3780 C3844 2.848 . S
C3781 C3784 1.429 . S
C3781 C3785 1.411 . S
C3781 N3788 1.377 . S
C3782 C3784 1.420 . S
C3782 C3786 1.423 . S
C3782 C3794 1.392 . S
C3783 C3785 1.420 . S
C3783 C3786 1.351 . S
C3783 H3806 0.931 . S
C3784 C3781 1.429 . S
C3784 C3782 1.420 . S
C3784 N3792 1.362 . S
C3785 C3781 1.411 . S
C3785 C3783 1.420 . S
C3785 C3790 1.395 . S
C3786 C3782 1.423 . S
C3786 C3783 1.351 . S
C3786 H3798 0.930 . S
C3787 C3789 1.400 . S
C3787 C3790 1.386 . S
C3787 H3799 0.930 . S
N3788 C3781 1.377 . S
N3788 C3789 1.321 . S
N3788 Eu3791 2.609 . S
C3789 C3787 1.400 . S
C3789 N3788 1.321 . S
C3789 H3796 0.930 . S
C3790 C3785 1.395 . S
C3790 C3787 1.386 . S
C3790 H3809 0.930 . S
Eu3791 N3788 2.609 . S
Eu3791 N3792 2.657 . S
Eu3791 O3825 2.380 . S
Eu3791 O3826 2.432 . S
Eu3791 O3830 2.558 . S
Eu3791 O3831 2.612 . S
Eu3791 O3833 2.339 . S
Eu3791 O3834 2.563 . S
Eu3791 O3835 2.419 . S
Eu3791 C3855 2.848 . S
N3792 C3784 1.362 . S
N3792 Eu3791 2.657 . S
N3792 C3793 1.334 . S
C3793 N3792 1.334 . S
C3793 C3795 1.413 . S
C3793 H3800 0.929 . S
C3794 C3782 1.392 . S
C3794 C3795 1.367 . S
C3794 H3802 0.930 . S
C3795 C3793 1.413 . S
C3795 C3794 1.367 . S
C3795 H3797 0.930 . S
H3796 C3789 0.930 . S
H3797 C3795 0.930 . S
H3798 C3786 0.930 . S
H3799 C3787 0.930 . S
H3800 C3793 0.929 . S
H3801 C3815 0.930 . S
H3802 C3794 0.930 . S
H3803 C3821 0.930 . S
H3804 C3812 0.929 . S
H3805 C3819 0.930 . S
H3806 C3783 0.931 . S
H3807 C3813 0.930 . S
H3808 C3846 0.930 . S
H3809 C3790 0.930 . S
H3810 C3845 0.931 . S
N3811 Eu3780 2.657 . S
N3811 C3812 1.334 . S
N3811 C3816 1.362 . S
C3812 H3804 0.929 . S
C3812 N3811 1.334 . S
C3812 C3815 1.413 . S
C3813 H3807 0.930 . S
C3813 C3814 1.392 . S
C3813 C3815 1.367 . S
C3814 C3813 1.392 . S
C3814 C3816 1.420 . S
C3814 C3846 1.423 . S
C3815 H3801 0.930 . S
C3815 C3812 1.413 . S
C3815 C3813 1.367 . S
C3816 N3811 1.362 . S
C3816 C3814 1.420 . S
C3816 C3820 1.429 . S
H3817 C3822 0.930 . S
N3818 Eu3780 2.609 . S
N3818 C3820 1.377 . S
N3818 C3821 1.321 . S
C3819 H3805 0.930 . S
C3819 C3821 1.400 . S
C3819 C3822 1.386 . S
C3820 C3816 1.429 . S
C3820 N3818 1.377 . S
C3820 C3823 1.411 . S
C3821 H3803 0.930 . S
C3821 N3818 1.321 . S
C3821 C3819 1.400 . S
C3822 H3817 0.930 . S
C3822 C3819 1.386 . S
C3822 C3823 1.395 . S
C3823 C3820 1.411 . S
C3823 C3822 1.395 . S
C3823 C3845 1.420 . S
O3824 Eu3780 2.558 . S
O3824 C3844 1.257 . S
O3825 Eu3780 2.612 . S
O3825 Eu3791 2.380 . S
O3825 C3836 1.276 . S
O3826 Eu3791 2.432 . S
O3826 C3843 1.264 . S
O3827 Eu3780 2.339 . S
O3827 C3843 1.254 . S
O3828 Eu3780 2.563 . S
O3828 C3836 1.235 . S
O3829 Eu3780 2.419 . S
O3829 C3844 1.249 . S
O3830 Eu3791 2.558 . S
O3830 C3855 1.257 . S
O3831 Eu3780 2.380 . S
O3831 Eu3791 2.612 . S
O3831 C3847 1.276 . S
O3832 Eu3780 2.432 . S
O3832 C3854 1.264 . S
O3833 Eu3791 2.339 . S
O3833 C3854 1.254 . S
O3834 Eu3791 2.563 . S
O3834 C3847 1.235 . S
O3835 Eu3791 2.419 . S
O3835 C3855 1.249 . S
C3836 O3825 1.276 . S
C3836 O3828 1.235 . S
C3837 C3839 1.393 . S
C3837 C3841 1.395 . S
C3837 C3844 1.492 . S
C3838 C3839 1.392 . S
C3838 C3840 1.386 . S
C3839 C3837 1.393 . S
C3839 C3838 1.392 . S
C3839 H3856 0.930 . S
C3840 C3838 1.386 . S
C3840 C3842 1.395 . S
C3840 H3857 0.930 . S
C3841 C3837 1.395 . S
C3841 C3842 1.379 . S
C3841 H3858 0.930 . S
C3842 C3840 1.395 . S
C3842 C3841 1.379 . S
C3842 H3859 0.930 . S
C3843 O3826 1.264 . S
C3843 O3827 1.254 . S
C3844 Eu3780 2.848 . S
C3844 O3824 1.257 . S
C3844 O3829 1.249 . S
C3844 C3837 1.492 . S
C3845 H3810 0.931 . S
C3845 C3823 1.420 . S
C3845 C3846 1.351 . S
C3846 H3808 0.930 . S
C3846 C3814 1.423 . S
C3846 C3845 1.351 . S
C3847 O3831 1.276 . S
C3847 O3834 1.235 . S
C3848 C3849 1.393 . S
C3848 C3852 1.395 . S
C3848 C3855 1.492 . S
C3849 C3848 1.393 . S
C3849 C3850 1.392 . S
C3849 H3860 0.930 . S
C3850 C3849 1.392 . S
C3850 C3851 1.386 . S
C3851 C3850 1.386 . S
C3851 C3853 1.395 . S
C3851 H3861 0.930 . S
C3852 C3848 1.395 . S
C3852 C3853 1.379 . S
C3852 H3862 0.930 . S
C3853 C3851 1.395 . S
C3853 C3852 1.379 . S
C3853 H3863 0.930 . S
C3854 O3832 1.264 . S
C3854 O3833 1.254 . S
C3855 Eu3791 2.848 . S
C3855 O3830 1.257 . S
C3855 O3835 1.249 . S
C3855 C3848 1.492 . S
H3856 C3839 0.930 . S
H3857 C3840 0.930 . S
H3858 C3841 0.930 . S
H3859 C3842 0.930 . S
H3860 C3849 0.930 . S
H3861 C3851 0.930 . S
H3862 C3852 0.930 . S
H3863 C3853 0.930 . S
Eu3864 N3895 2.657 . S
Eu3864 N3902 2.609 . S
Eu3864 O3908 2.558 . S
Eu3864 O3909 2.612 . S
Eu3864 O3911 2.339 . S
Eu3864 O3912 2.563 . S
Eu3864 O3913 2.419 . S
Eu3864 O3915 2.380 . S
Eu3864 O3916 2.432 . S
Eu3864 C3928 2.848 . S
C3865 C3868 1.429 . S
C3865 C3869 1.411 . S
C3865 N3872 1.377 . S
C3866 C3868 1.420 . S
C3866 C3870 1.423 . S
C3866 C3878 1.392 . S
C3867 C3869 1.420 . S
C3867 C3870 1.351 . S
C3867 H3890 0.931 . S
C3868 C3865 1.429 . S
C3868 C3866 1.420 . S
C3868 N3876 1.362 . S
C3869 C3865 1.411 . S
C3869 C3867 1.420 . S
C3869 C3874 1.395 . S
C3870 C3866 1.423 . S
C3870 C3867 1.351 . S
C3870 H3882 0.930 . S
C3871 C3873 1.400 . S
C3871 C3874 1.386 . S
C3871 H3883 0.930 . S
N3872 C3865 1.377 . S
N3872 C3873 1.321 . S
N3872 Eu3875 2.609 . S
C3873 C3871 1.400 . S
C3873 N3872 1.321 . S
C3873 H3880 0.930 . S
C3874 C3869 1.395 . S
C3874 C3871 1.386 . S
C3874 H3893 0.930 . S
Eu3875 N3872 2.609 . S
Eu3875 N3876 2.657 . S
Eu3875 O3909 2.380 . S
Eu3875 O3910 2.432 . S
Eu3875 O3914 2.558 . S
Eu3875 O3915 2.612 . S
Eu3875 O3917 2.339 . S
Eu3875 O3918 2.563 . S
Eu3875 O3919 2.419 . S
Eu3875 C3939 2.848 . S
N3876 C3868 1.362 . S
N3876 Eu3875 2.657 . S
N3876 C3877 1.334 . S
C3877 N3876 1.334 . S
C3877 C3879 1.413 . S
C3877 H3884 0.929 . S
C3878 C3866 1.392 . S
C3878 C3879 1.367 . S
C3878 H3886 0.930 . S
C3879 C3877 1.413 . S
C3879 C3878 1.367 . S
C3879 H3881 0.930 . S
H3880 C3873 0.930 . S
H3881 C3879 0.930 . S
H3882 C3870 0.930 . S
H3883 C3871 0.930 . S
H3884 C3877 0.929 . S
H3885 C3899 0.930 . S
H3886 C3878 0.930 . S
H3887 C3905 0.930 . S
H3888 C3896 0.929 . S
H3889 C3903 0.930 . S
H3890 C3867 0.931 . S
H3891 C3897 0.930 . S
H3892 C3930 0.930 . S
H3893 C3874 0.930 . S
H3894 C3929 0.931 . S
N3895 Eu3864 2.657 . S
N3895 C3896 1.334 . S
N3895 C3900 1.362 . S
C3896 H3888 0.929 . S
C3896 N3895 1.334 . S
C3896 C3899 1.413 . S
C3897 H3891 0.930 . S
C3897 C3898 1.392 . S
C3897 C3899 1.367 . S
C3898 C3897 1.392 . S
C3898 C3900 1.420 . S
C3898 C3930 1.423 . S
C3899 H3885 0.930 . S
C3899 C3896 1.413 . S
C3899 C3897 1.367 . S
C3900 N3895 1.362 . S
C3900 C3898 1.420 . S
C3900 C3904 1.429 . S
H3901 C3906 0.930 . S
N3902 Eu3864 2.609 . S
N3902 C3904 1.377 . S
N3902 C3905 1.321 . S
C3903 H3889 0.930 . S
C3903 C3905 1.400 . S
C3903 C3906 1.386 . S
C3904 C3900 1.429 . S
C3904 N3902 1.377 . S
C3904 C3907 1.411 . S
C3905 H3887 0.930 . S
C3905 N3902 1.321 . S
C3905 C3903 1.400 . S
C3906 H3901 0.930 . S
C3906 C3903 1.386 . S
C3906 C3907 1.395 . S
C3907 C3904 1.411 . S
C3907 C3906 1.395 . S
C3907 C3929 1.420 . S
O3908 Eu3864 2.558 . S
O3908 C3928 1.257 . S
O3909 Eu3864 2.612 . S
O3909 Eu3875 2.380 . S
O3909 C3920 1.276 . S
O3910 Eu3875 2.432 . S
O3910 C3927 1.264 . S
O3911 Eu3864 2.339 . S
O3911 C3927 1.254 . S
O3912 Eu3864 2.563 . S
O3912 C3920 1.235 . S
O3913 Eu3864 2.419 . S
O3913 C3928 1.249 . S
O3914 Eu3875 2.558 . S
O3914 C3939 1.257 . S
O3915 Eu3864 2.380 . S
O3915 Eu3875 2.612 . S
O3915 C3931 1.276 . S
O3916 Eu3864 2.432 . S
O3916 C3938 1.264 . S
O3917 Eu3875 2.339 . S
O3917 C3938 1.254 . S
O3918 Eu3875 2.563 . S
O3918 C3931 1.235 . S
O3919 Eu3875 2.419 . S
O3919 C3939 1.249 . S
C3920 O3909 1.276 . S
C3920 O3912 1.235 . S
C3921 C3923 1.393 . S
C3921 C3925 1.395 . S
C3921 C3928 1.492 . S
C3922 C3923 1.392 . S
C3922 C3924 1.386 . S
C3923 C3921 1.393 . S
C3923 C3922 1.392 . S
C3923 H3940 0.930 . S
C3924 C3922 1.386 . S
C3924 C3926 1.395 . S
C3924 H3941 0.930 . S
C3925 C3921 1.395 . S
C3925 C3926 1.379 . S
C3925 H3942 0.930 . S
C3926 C3924 1.395 . S
C3926 C3925 1.379 . S
C3926 H3943 0.930 . S
C3927 O3910 1.264 . S
C3927 O3911 1.254 . S
C3928 Eu3864 2.848 . S
C3928 O3908 1.257 . S
C3928 O3913 1.249 . S
C3928 C3921 1.492 . S
C3929 H3894 0.931 . S
C3929 C3907 1.420 . S
C3929 C3930 1.351 . S
C3930 H3892 0.930 . S
C3930 C3898 1.423 . S
C3930 C3929 1.351 . S
C3931 O3915 1.276 . S
C3931 O3918 1.235 . S
C3932 C3933 1.393 . S
C3932 C3936 1.395 . S
C3932 C3939 1.492 . S
C3933 C3932 1.393 . S
C3933 C3934 1.392 . S
C3933 H3944 0.930 . S
C3934 C3933 1.392 . S
C3934 C3935 1.386 . S
C3935 C3934 1.386 . S
C3935 C3937 1.395 . S
C3935 H3945 0.930 . S
C3936 C3932 1.395 . S
C3936 C3937 1.379 . S
C3936 H3946 0.930 . S
C3937 C3935 1.395 . S
C3937 C3936 1.379 . S
C3937 H3947 0.930 . S
C3938 O3916 1.264 . S
C3938 O3917 1.254 . S
C3939 Eu3875 2.848 . S
C3939 O3914 1.257 . S
C3939 O3919 1.249 . S
C3939 C3932 1.492 . S
H3940 C3923 0.930 . S
H3941 C3924 0.930 . S
H3942 C3925 0.930 . S
H3943 C3926 0.930 . S
H3944 C3933 0.930 . S
H3945 C3935 0.930 . S
H3946 C3936 0.930 . S
H3947 C3937 0.930 . S
Eu3948 N3979 2.657 . S
Eu3948 N3986 2.609 . S
Eu3948 O3992 2.558 . S
Eu3948 O3993 2.612 . S
Eu3948 O3995 2.339 . S
Eu3948 O3996 2.563 . S
Eu3948 O3997 2.419 . S
Eu3948 O3999 2.380 . S
Eu3948 O4000 2.432 . S
Eu3948 C4012 2.848 . S
C3949 C3952 1.429 . S
C3949 C3953 1.411 . S
C3949 N3956 1.377 . S
C3950 C3952 1.420 . S
C3950 C3954 1.423 . S
C3950 C3962 1.392 . S
C3951 C3953 1.420 . S
C3951 C3954 1.351 . S
C3951 H3974 0.931 . S
C3952 C3949 1.429 . S
C3952 C3950 1.420 . S
C3952 N3960 1.362 . S
C3953 C3949 1.411 . S
C3953 C3951 1.420 . S
C3953 C3958 1.395 . S
C3954 C3950 1.423 . S
C3954 C3951 1.351 . S
C3954 H3966 0.930 . S
C3955 C3957 1.400 . S
C3955 C3958 1.386 . S
C3955 H3967 0.930 . S
N3956 C3949 1.377 . S
N3956 C3957 1.321 . S
N3956 Eu3959 2.609 . S
C3957 C3955 1.400 . S
C3957 N3956 1.321 . S
C3957 H3964 0.930 . S
C3958 C3953 1.395 . S
C3958 C3955 1.386 . S
C3958 H3977 0.930 . S
Eu3959 N3956 2.609 . S
Eu3959 N3960 2.657 . S
Eu3959 O3993 2.380 . S
Eu3959 O3994 2.432 . S
Eu3959 O3998 2.558 . S
Eu3959 O3999 2.612 . S
Eu3959 O4001 2.339 . S
Eu3959 O4002 2.563 . S
Eu3959 O4003 2.419 . S
Eu3959 C4023 2.848 . S
N3960 C3952 1.362 . S
N3960 Eu3959 2.657 . S
N3960 C3961 1.334 . S
C3961 N3960 1.334 . S
C3961 C3963 1.413 . S
C3961 H3968 0.929 . S
C3962 C3950 1.392 . S
C3962 C3963 1.367 . S
C3962 H3970 0.930 . S
C3963 C3961 1.413 . S
C3963 C3962 1.367 . S
C3963 H3965 0.930 . S
H3964 C3957 0.930 . S
H3965 C3963 0.930 . S
H3966 C3954 0.930 . S
H3967 C3955 0.930 . S
H3968 C3961 0.929 . S
H3969 C3983 0.930 . S
H3970 C3962 0.930 . S
H3971 C3989 0.930 . S
H3972 C3980 0.929 . S
H3973 C3987 0.930 . S
H3974 C3951 0.931 . S
H3975 C3981 0.930 . S
H3976 C4014 0.930 . S
H3977 C3958 0.930 . S
H3978 C4013 0.931 . S
N3979 Eu3948 2.657 . S
N3979 C3980 1.334 . S
N3979 C3984 1.362 . S
C3980 H3972 0.929 . S
C3980 N3979 1.334 . S
C3980 C3983 1.413 . S
C3981 H3975 0.930 . S
C3981 C3982 1.392 . S
C3981 C3983 1.367 . S
C3982 C3981 1.392 . S
C3982 C3984 1.420 . S
C3982 C4014 1.423 . S
C3983 H3969 0.930 . S
C3983 C3980 1.413 . S
C3983 C3981 1.367 . S
C3984 N3979 1.362 . S
C3984 C3982 1.420 . S
C3984 C3988 1.429 . S
H3985 C3990 0.930 . S
N3986 Eu3948 2.609 . S
N3986 C3988 1.377 . S
N3986 C3989 1.321 . S
C3987 H3973 0.930 . S
C3987 C3989 1.400 . S
C3987 C3990 1.386 . S
C3988 C3984 1.429 . S
C3988 N3986 1.377 . S
C3988 C3991 1.411 . S
C3989 H3971 0.930 . S
C3989 N3986 1.321 . S
C3989 C3987 1.400 . S
C3990 H3985 0.930 . S
C3990 C3987 1.386 . S
C3990 C3991 1.395 . S
C3991 C3988 1.411 . S
C3991 C3990 1.395 . S
C3991 C4013 1.420 . S
O3992 Eu3948 2.558 . S
O3992 C4012 1.257 . S
O3993 Eu3948 2.612 . S
O3993 Eu3959 2.380 . S
O3993 C4004 1.276 . S
O3994 Eu3959 2.432 . S
O3994 C4011 1.264 . S
O3995 Eu3948 2.339 . S
O3995 C4011 1.254 . S
O3996 Eu3948 2.563 . S
O3996 C4004 1.235 . S
O3997 Eu3948 2.419 . S
O3997 C4012 1.249 . S
O3998 Eu3959 2.558 . S
O3998 C4023 1.257 . S
O3999 Eu3948 2.380 . S
O3999 Eu3959 2.612 . S
O3999 C4015 1.276 . S
O4000 Eu3948 2.432 . S
O4000 C4022 1.264 . S
O4001 Eu3959 2.339 . S
O4001 C4022 1.254 . S
O4002 Eu3959 2.563 . S
O4002 C4015 1.235 . S
O4003 Eu3959 2.419 . S
O4003 C4023 1.249 . S
C4004 O3993 1.276 . S
C4004 O3996 1.235 . S
C4005 C4007 1.393 . S
C4005 C4009 1.395 . S
C4005 C4012 1.492 . S
C4006 C4007 1.392 . S
C4006 C4008 1.386 . S
C4007 C4005 1.393 . S
C4007 C4006 1.392 . S
C4007 H4024 0.930 . S
C4008 C4006 1.386 . S
C4008 C4010 1.395 . S
C4008 H4025 0.930 . S
C4009 C4005 1.395 . S
C4009 C4010 1.379 . S
C4009 H4026 0.930 . S
C4010 C4008 1.395 . S
C4010 C4009 1.379 . S
C4010 H4027 0.930 . S
C4011 O3994 1.264 . S
C4011 O3995 1.254 . S
C4012 Eu3948 2.848 . S
C4012 O3992 1.257 . S
C4012 O3997 1.249 . S
C4012 C4005 1.492 . S
C4013 H3978 0.931 . S
C4013 C3991 1.420 . S
C4013 C4014 1.351 . S
C4014 H3976 0.930 . S
C4014 C3982 1.423 . S
C4014 C4013 1.351 . S
C4015 O3999 1.276 . S
C4015 O4002 1.235 . S
C4016 C4017 1.393 . S
C4016 C4020 1.395 . S
C4016 C4023 1.492 . S
C4017 C4016 1.393 . S
C4017 C4018 1.392 . S
C4017 H4028 0.930 . S
C4018 C4017 1.392 . S
C4018 C4019 1.386 . S
C4019 C4018 1.386 . S
C4019 C4021 1.395 . S
C4019 H4029 0.930 . S
C4020 C4016 1.395 . S
C4020 C4021 1.379 . S
C4020 H4030 0.930 . S
C4021 C4019 1.395 . S
C4021 C4020 1.379 . S
C4021 H4031 0.930 . S
C4022 O4000 1.264 . S
C4022 O4001 1.254 . S
C4023 Eu3959 2.848 . S
C4023 O3998 1.257 . S
C4023 O4003 1.249 . S
C4023 C4016 1.492 . S
H4024 C4007 0.930 . S
H4025 C4008 0.930 . S
H4026 C4009 0.930 . S
H4027 C4010 0.930 . S
H4028 C4017 0.930 . S
H4029 C4019 0.930 . S
H4030 C4020 0.930 . S
H4031 C4021 0.930 . S
H4032 C4040 0.950 . S
H4033 C4045 0.950 1_655 S
H4034 C4042 0.950 . S
H4035 C4044 0.950 1_655 S
H4036 C4046 0.950 1_655 S
H4037 C4048 0.950 1_655 S
H4038 C4050 0.950 . S
H4039 C4051 0.950 . S
C4040 H4032 0.950 . S
C4040 C4041 1.386 . S
C4040 C4042 1.391 . S
C4041 C4040 1.386 . S
C4041 C4045 1.393 . S
C4042 H4034 0.950 . S
C4042 C4040 1.391 . S
C4042 C4043 1.400 . S
C4043 C4042 1.400 . S
C4043 C4044 1.398 . S
C4043 C4049 1.491 . S
C4044 H4035 0.950 1_455 S
C4044 C4043 1.398 . S
C4044 C4045 1.391 . S
C4045 H4033 0.950 1_455 S
C4045 C4041 1.393 . S
C4045 C4044 1.391 . S
C4046 H4036 0.950 1_455 S
C4046 C4047 1.386 . S
C4046 C4048 1.391 . S
C4047 C4046 1.386 . S
C4047 C4051 1.393 . S
C4048 H4037 0.950 1_455 S
C4048 C4046 1.391 . S
C4048 C4049 1.400 . S
C4049 C4043 1.491 . S
C4049 C4048 1.400 . S
C4049 C4050 1.398 . S
C4050 H4038 0.950 . S
C4050 C4049 1.398 . S
C4050 C4051 1.391 . S
C4051 H4039 0.950 . S
C4051 C4047 1.393 . S
C4051 C4050 1.391 . S
H4052 C4060 0.950 . S
H4053 C4065 0.950 . S
H4054 C4062 0.950 . S
H4055 C4064 0.950 . S
H4056 C4066 0.950 . S
H4057 C4068 0.950 . S
H4058 C4070 0.950 . S
H4059 C4071 0.950 . S
C4060 H4052 0.950 . S
C4060 C4061 1.386 . S
C4060 C4062 1.391 . S
C4061 C4060 1.386 . S
C4061 C4065 1.393 . S
C4062 H4054 0.950 . S
C4062 C4060 1.391 . S
C4062 C4063 1.400 . S
C4063 C4062 1.400 . S
C4063 C4064 1.398 . S
C4063 C4069 1.491 . S
C4064 H4055 0.950 . S
C4064 C4063 1.398 . S
C4064 C4065 1.391 . S
C4065 H4053 0.950 . S
C4065 C4061 1.393 . S
C4065 C4064 1.391 . S
C4066 H4056 0.950 . S
C4066 C4067 1.386 . S
C4066 C4068 1.391 . S
C4067 C4066 1.386 . S
C4067 C4071 1.393 . S
C4068 H4057 0.950 . S
C4068 C4066 1.391 . S
C4068 C4069 1.400 . S
C4069 C4063 1.491 . S
C4069 C4068 1.400 . S
C4069 C4070 1.398 . S
C4070 H4058 0.950 . S
C4070 C4069 1.398 . S
C4070 C4071 1.391 . S
C4071 H4059 0.950 . S
C4071 C4067 1.393 . S
C4071 C4070 1.391 . S
H4072 C4080 0.950 . S
H4073 C4085 0.950 . S
H4074 C4082 0.950 . S
H4075 C4084 0.950 . S
H4076 C4086 0.950 . S
H4077 C4088 0.950 . S
H4078 C4090 0.950 . S
H4079 C4091 0.950 . S
C4080 H4072 0.950 . S
C4080 C4081 1.386 . S
C4080 C4082 1.391 . S
C4081 C4080 1.386 . S
C4081 C4085 1.393 . S
C4082 H4074 0.950 . S
C4082 C4080 1.391 . S
C4082 C4083 1.400 . S
C4083 C4082 1.400 . S
C4083 C4084 1.398 . S
C4083 C4089 1.491 . S
C4084 H4075 0.950 . S
C4084 C4083 1.398 . S
C4084 C4085 1.391 . S
C4085 H4073 0.950 . S
C4085 C4081 1.393 . S
C4085 C4084 1.391 . S
C4086 H4076 0.950 . S
C4086 C4087 1.386 . S
C4086 C4088 1.391 . S
C4087 C4086 1.386 . S
C4087 C4091 1.393 . S
C4088 H4077 0.950 . S
C4088 C4086 1.391 . S
C4088 C4089 1.400 . S
C4089 C4083 1.491 . S
C4089 C4088 1.400 . S
C4089 C4090 1.398 . S
C4090 H4078 0.950 . S
C4090 C4089 1.398 . S
C4090 C4091 1.391 . S
C4091 H4079 0.950 . S
C4091 C4087 1.393 . S
C4091 C4090 1.391 . S
H4092 C4100 0.950 . S
H4093 C4105 0.950 . S
H4094 C4102 0.950 . S
H4095 C4104 0.950 . S
H4096 C4106 0.950 . S
H4097 C4108 0.950 . S
H4098 C4110 0.950 . S
H4099 C4111 0.950 . S
C4100 H4092 0.950 . S
C4100 C4101 1.385 . S
C4100 C4102 1.391 . S
C4101 C4100 1.385 . S
C4101 C4105 1.393 1_556 S
C4102 H4094 0.950 . S
C4102 C4100 1.391 . S
C4102 C4103 1.400 1_556 S
C4103 C4102 1.400 1_554 S
C4103 C4104 1.399 . S
C4103 C4109 1.490 1_554 S
C4104 H4095 0.950 . S
C4104 C4103 1.399 . S
C4104 C4105 1.391 . S
C4105 H4093 0.950 . S
C4105 C4101 1.393 1_554 S
C4105 C4104 1.391 . S
C4106 H4096 0.950 . S
C4106 C4107 1.389 1_554 S
C4106 C4108 1.391 . S
C4107 C4106 1.389 1_556 S
C4107 C4111 1.389 . S
C4108 H4097 0.950 . S
C4108 C4106 1.391 . S
C4108 C4109 1.396 1_554 S
C4109 C4103 1.490 1_556 S
C4109 C4108 1.396 1_556 S
C4109 C4110 1.403 . S
C4110 H4098 0.950 . S
C4110 C4109 1.403 . S
C4110 C4111 1.391 . S
C4111 H4099 0.950 . S
C4111 C4107 1.389 . S
C4111 C4110 1.391 . S
H4112 C4120 0.950 1_565 S
H4113 C4125 0.950 . S
H4114 C4122 0.950 1_565 S
H4115 C4124 0.950 . S
H4116 C4126 0.950 . S
H4117 C4128 0.950 . S
H4118 C4130 0.950 1_565 S
H4119 C4131 0.950 1_565 S
C4120 H4112 0.950 1_545 S
C4120 C4121 1.386 . S
C4120 C4122 1.391 . S
C4121 C4120 1.386 . S
C4121 C4125 1.393 . S
C4122 H4114 0.950 1_545 S
C4122 C4120 1.391 . S
C4122 C4123 1.400 . S
C4123 C4122 1.400 . S
C4123 C4124 1.398 . S
C4123 C4129 1.491 . S
C4124 H4115 0.950 . S
C4124 C4123 1.398 . S
C4124 C4125 1.391 . S
C4125 H4113 0.950 . S
C4125 C4121 1.393 . S
C4125 C4124 1.391 . S
C4126 H4116 0.950 . S
C4126 C4127 1.386 . S
C4126 C4128 1.391 . S
C4127 C4126 1.386 . S
C4127 C4131 1.393 . S
C4128 H4117 0.950 . S
C4128 C4126 1.391 . S
C4128 C4129 1.400 . S
C4129 C4123 1.491 . S
C4129 C4128 1.400 . S
C4129 C4130 1.398 . S
C4130 H4118 0.950 1_545 S
C4130 C4129 1.398 . S
C4130 C4131 1.391 . S
C4131 H4119 0.950 1_545 S
C4131 C4127 1.393 . S
C4131 C4130 1.391 . S
H4132 C4140 0.950 . S
H4133 C4145 0.950 . S
H4134 C4142 0.950 . S
H4135 C4144 0.950 . S
H4136 C4146 0.950 . S
H4137 C4148 0.950 . S
H4138 C4150 0.950 . S
H4139 C4151 0.950 . S
C4140 H4132 0.950 . S
C4140 C4141 1.386 1_565 S
C4140 C4142 1.391 . S
C4141 C4140 1.386 1_545 S
C4141 C4145 1.393 . S
C4142 H4134 0.950 . S
C4142 C4140 1.391 . S
C4142 C4143 1.368 1_565 S
C4143 C4142 1.368 1_545 S
C4143 C4144 1.433 . S
C4143 C4149 1.490 1_545 S
C4144 H4135 0.950 . S
C4144 C4143 1.433 . S
C4144 C4145 1.391 . S
C4145 H4133 0.950 . S
C4145 C4141 1.393 . S
C4145 C4144 1.391 . S
C4146 H4136 0.950 . S
C4146 C4147 1.342 1_545 S
C4146 C4148 1.391 . S
C4147 C4146 1.342 1_565 S
C4147 C4151 1.438 . S
C4148 H4137 0.950 . S
C4148 C4146 1.391 . S
C4148 C4149 1.402 1_545 S
C4149 C4143 1.490 1_565 S
C4149 C4148 1.402 1_565 S
C4149 C4150 1.397 . S
C4150 H4138 0.950 . S
C4150 C4149 1.397 . S
C4150 C4151 1.391 . S
C4151 H4139 0.950 . S
C4151 C4147 1.438 . S
C4151 C4150 1.391 . S
H4152 C4160 0.950 1_545 S
H4153 C4165 0.950 . S
H4154 C4162 0.950 1_545 S
H4155 C4164 0.950 . S
H4156 C4166 0.950 . S
H4157 C4168 0.950 . S
H4158 C4170 0.950 1_545 S
H4159 C4171 0.950 1_545 S
C4160 H4152 0.950 1_565 S
C4160 C4161 1.386 . S
C4160 C4162 1.391 . S
C4161 C4160 1.386 . S
C4161 C4165 1.393 . S
C4162 H4154 0.950 1_565 S
C4162 C4160 1.391 . S
C4162 C4163 1.400 . S
C4163 C4162 1.400 . S
C4163 C4164 1.398 . S
C4163 C4169 1.491 1_554 S
C4164 H4155 0.950 . S
C4164 C4163 1.398 . S
C4164 C4165 1.391 . S
C4165 H4153 0.950 . S
C4165 C4161 1.393 . S
C4165 C4164 1.391 . S
C4166 H4156 0.950 . S
C4166 C4167 1.386 . S
C4166 C4168 1.391 . S
C4167 C4166 1.386 . S
C4167 C4171 1.393 . S
C4168 H4157 0.950 . S
C4168 C4166 1.391 . S
C4168 C4169 1.400 . S
C4169 C4163 1.491 1_556 S
C4169 C4168 1.400 . S
C4169 C4170 1.398 . S
C4170 H4158 0.950 1_565 S
C4170 C4169 1.398 . S
C4170 C4171 1.391 . S
C4171 H4159 0.950 1_565 S
C4171 C4167 1.393 . S
C4171 C4170 1.391 . S
H4172 C4180 0.950 . S
H4173 C4185 0.950 . S
H4174 C4182 0.954 . S
H4175 C4184 0.950 . S
H4176 C4186 0.950 . S
H4177 C4188 0.954 . S
H4178 C4190 0.950 . S
H4179 C4191 0.950 . S
C4180 H4172 0.950 . S
C4180 C4181 1.386 . S
C4180 C4182 1.393 . S
C4181 C4180 1.386 . S
C4181 C4185 1.392 1_565 S
C4182 H4174 0.954 . S
C4182 C4180 1.393 . S
C4182 C4183 1.398 1_565 S
C4183 C4182 1.398 1_545 S
C4183 C4184 1.399 . S
C4183 C4189 1.490 1_545 S
C4184 H4175 0.950 . S
C4184 C4183 1.399 . S
C4184 C4185 1.391 . S
C4185 H4173 0.950 . S
C4185 C4181 1.392 1_545 S
C4185 C4184 1.391 . S
C4186 H4176 0.950 . S
C4186 C4187 1.386 . S
C4186 C4188 1.393 . S
C4187 C4186 1.386 . S
C4187 C4191 1.392 1_545 S
C4188 H4177 0.954 . S
C4188 C4186 1.393 . S
C4188 C4189 1.398 1_545 S
C4189 C4183 1.490 1_565 S
C4189 C4188 1.398 1_565 S
C4189 C4190 1.399 . S
C4190 H4178 0.950 . S
C4190 C4189 1.399 . S
C4190 C4191 1.391 . S
C4191 H4179 0.950 . S
C4191 C4187 1.392 1_565 S
C4191 C4190 1.391 . S
H4192 C4200 0.950 . S
H4193 C4205 0.950 . S
H4194 C4202 0.950 . S
H4195 C4204 0.950 . S
H4196 C4206 0.950 . S
H4197 C4208 0.950 . S
H4198 C4210 0.950 . S
H4199 C4211 0.950 . S
C4200 H4192 0.950 . S
C4200 C4201 1.386 . S
C4200 C4202 1.391 . S
C4201 C4200 1.386 . S
C4201 C4205 1.393 . S
C4202 H4194 0.950 . S
C4202 C4200 1.391 . S
C4202 C4203 1.400 . S
C4203 C4202 1.400 . S
C4203 C4204 1.398 . S
C4203 C4209 1.491 . S
C4204 H4195 0.950 . S
C4204 C4203 1.398 . S
C4204 C4205 1.391 . S
C4205 H4193 0.950 . S
C4205 C4201 1.393 . S
C4205 C4204 1.391 . S
C4206 H4196 0.950 . S
C4206 C4207 1.386 . S
C4206 C4208 1.391 . S
C4207 C4206 1.386 . S
C4207 C4211 1.393 . S
C4208 H4197 0.950 . S
C4208 C4206 1.391 . S
C4208 C4209 1.400 . S
C4209 C4203 1.491 . S
C4209 C4208 1.400 . S
C4209 C4210 1.398 . S
C4210 H4198 0.950 . S
C4210 C4209 1.398 . S
C4210 C4211 1.391 . S
C4211 H4199 0.950 . S
C4211 C4207 1.393 . S
C4211 C4210 1.391 . S
H4212 C4220 0.950 . S
H4213 C4225 0.997 . S
H4214 C4222 0.950 . S
H4215 C4224 0.950 . S
H4216 C4226 0.950 . S
H4217 C4228 0.950 . S
H4218 C4230 0.950 . S
H4219 C4231 0.950 . S
C4220 H4212 0.950 . S
C4220 C4221 1.386 . S
C4220 C4222 1.391 . S
C4221 C4220 1.386 . S
C4221 C4225 1.346 1_556 S
C4222 H4214 0.950 . S
C4222 C4220 1.391 . S
C4222 C4223 1.400 . S
C4223 C4222 1.400 . S
C4223 C4224 1.398 1_556 S
C4223 C4229 1.491 1_655 S
C4224 H4215 0.950 . S
C4224 C4223 1.398 1_554 S
C4224 C4225 1.392 . S
C4225 H4213 0.997 . S
C4225 C4221 1.346 1_554 S
C4225 C4224 1.392 . S
C4226 H4216 0.950 . S
C4226 C4227 1.386 1_554 S
C4226 C4228 1.391 . S
C4227 C4226 1.386 1_556 S
C4227 C4231 1.393 . S
C4228 H4217 0.950 . S
C4228 C4226 1.391 . S
C4228 C4229 1.400 1_554 S
C4229 C4223 1.491 1_455 S
C4229 C4228 1.400 1_556 S
C4229 C4230 1.398 . S
C4230 H4218 0.950 . S
C4230 C4229 1.398 . S
C4230 C4231 1.391 . S
C4231 H4219 0.950 . S
C4231 C4227 1.393 . S
C4231 C4230 1.391 . S
H4232 C4240 0.950 . S
H4233 C4245 0.950 . S
H4234 C4242 0.950 . S
H4235 C4244 0.950 . S
H4236 C4246 0.950 . S
H4237 C4248 0.950 . S
H4238 C4250 0.950 . S
H4239 C4251 0.950 . S
C4240 H4232 0.950 . S
C4240 C4241 1.406 . S
C4240 C4242 1.391 . S
C4241 C4240 1.406 . S
C4241 C4245 1.373 1_455 S
C4242 H4234 0.950 . S
C4242 C4240 1.391 . S
C4242 C4243 1.417 . S
C4243 C4242 1.417 . S
C4243 C4244 1.381 1_455 S
C4243 C4249 1.490 . S
C4244 H4235 0.950 . S
C4244 C4243 1.381 1_655 S
C4244 C4245 1.391 . S
C4245 H4233 0.950 . S
C4245 C4241 1.373 1_655 S
C4245 C4244 1.391 . S
C4246 H4236 0.950 . S
C4246 C4247 1.356 1_655 S
C4246 C4248 1.391 . S
C4247 C4246 1.356 1_455 S
C4247 C4251 1.425 . S
C4248 H4237 0.950 . S
C4248 C4246 1.391 . S
C4248 C4249 1.368 1_655 S
C4249 C4243 1.490 . S
C4249 C4248 1.368 1_455 S
C4249 C4250 1.433 . S
C4250 H4238 0.950 . S
C4250 C4249 1.433 . S
C4250 C4251 1.391 . S
C4251 H4239 0.950 . S
C4251 C4247 1.425 . S
C4251 C4250 1.391 . S
H4252 C4260 0.950 . S
H4253 C4265 0.950 . S
H4254 C4262 0.950 . S
H4255 C4264 0.950 . S
H4256 C4266 0.950 . S
H4257 C4268 0.950 . S
H4258 C4270 0.950 . S
H4259 C4271 0.950 . S
C4260 H4252 0.950 . S
C4260 C4261 1.386 . S
C4260 C4262 1.391 . S
C4261 C4260 1.386 . S
C4261 C4265 1.393 . S
C4262 H4254 0.950 . S
C4262 C4260 1.391 . S
C4262 C4263 1.400 . S
C4263 C4262 1.400 . S
C4263 C4264 1.398 . S
C4263 C4269 1.491 . S
C4264 H4255 0.950 . S
C4264 C4263 1.398 . S
C4264 C4265 1.391 . S
C4265 H4253 0.950 . S
C4265 C4261 1.393 . S
C4265 C4264 1.391 . S
C4266 H4256 0.950 . S
C4266 C4267 1.386 . S
C4266 C4268 1.391 . S
C4267 C4266 1.386 . S
C4267 C4271 1.393 . S
C4268 H4257 0.950 . S
C4268 C4266 1.391 . S
C4268 C4269 1.400 . S
C4269 C4263 1.491 . S
C4269 C4268 1.400 . S
C4269 C4270 1.398 . S
C4270 H4258 0.950 . S
C4270 C4269 1.398 . S
C4270 C4271 1.391 . S
C4271 H4259 0.950 . S
C4271 C4267 1.393 . S
C4271 C4270 1.391 . S
H4272 C4280 0.950 . S
H4273 C4285 0.950 . S
H4274 C4282 0.950 . S
H4275 C4284 0.950 . S
H4276 C4286 0.950 . S
H4277 C4288 0.950 . S
H4278 C4290 0.950 . S
H4279 C4291 0.950 . S
C4280 H4272 0.950 . S
C4280 C4281 1.386 . S
C4280 C4282 1.391 . S
C4281 C4280 1.386 . S
C4281 C4285 1.393 . S
C4282 H4274 0.950 . S
C4282 C4280 1.391 . S
C4282 C4283 1.400 . S
C4283 C4282 1.400 . S
C4283 C4284 1.398 . S
C4283 C4289 1.491 1_655 S
C4284 H4275 0.950 . S
C4284 C4283 1.398 . S
C4284 C4285 1.391 . S
C4285 H4273 0.950 . S
C4285 C4281 1.393 . S
C4285 C4284 1.391 . S
C4286 H4276 0.950 . S
C4286 C4287 1.386 . S
C4286 C4288 1.391 . S
C4287 C4286 1.386 . S
C4287 C4291 1.393 . S
C4288 H4277 0.950 . S
C4288 C4286 1.391 . S
C4288 C4289 1.400 . S
C4289 C4283 1.491 1_455 S
C4289 C4288 1.400 . S
C4289 C4290 1.398 . S
C4290 H4278 0.950 . S
C4290 C4289 1.398 . S
C4290 C4291 1.391 . S
C4291 H4279 0.950 . S
C4291 C4287 1.393 . S
C4291 C4290 1.391 . S
H4292 C4300 0.950 . S
H4293 C4305 0.950 . S
H4294 C4302 0.950 . S
H4295 C4304 0.950 . S
H4296 C4306 0.950 . S
H4297 C4308 0.950 . S
H4298 C4310 0.950 . S
H4299 C4311 0.950 . S
C4300 H4292 0.950 . S
C4300 C4301 1.384 . S
C4300 C4302 1.391 . S
C4301 C4300 1.384 . S
C4301 C4305 1.394 1_455 S
C4302 H4294 0.950 . S
C4302 C4300 1.391 . S
C4302 C4303 1.416 . S
C4303 C4302 1.416 . S
C4303 C4304 1.384 1_455 S
C4303 C4309 1.491 . S
C4304 H4295 0.950 . S
C4304 C4303 1.384 1_655 S
C4304 C4305 1.391 . S
C4305 H4293 0.950 . S
C4305 C4301 1.394 1_655 S
C4305 C4304 1.391 . S
C4306 H4296 0.950 . S
C4306 C4307 1.386 1_655 S
C4306 C4308 1.391 . S
C4307 C4306 1.386 1_455 S
C4307 C4311 1.393 . S
C4308 H4297 0.950 . S
C4308 C4306 1.391 . S
C4308 C4309 1.389 1_655 S
C4309 C4303 1.491 . S
C4309 C4308 1.389 1_455 S
C4309 C4310 1.409 . S
C4310 H4298 0.950 . S
C4310 C4309 1.409 . S
C4310 C4311 1.391 . S
C4311 H4299 0.950 . S
C4311 C4307 1.393 . S
C4311 C4310 1.391 . S
H4312 C4320 0.950 . S
H4313 C4325 0.950 . S
H4314 C4322 0.950 . S
H4315 C4324 0.950 . S
H4316 C4326 0.950 . S
H4317 C4328 0.950 . S
H4318 C4330 0.950 . S
H4319 C4331 0.950 . S
C4320 H4312 0.950 . S
C4320 C4321 1.386 . S
C4320 C4322 1.391 . S
C4321 C4320 1.386 . S
C4321 C4325 1.393 . S
C4322 H4314 0.950 . S
C4322 C4320 1.391 . S
C4322 C4323 1.400 . S
C4323 C4322 1.400 . S
C4323 C4324 1.398 . S
C4323 C4329 1.491 . S
C4324 H4315 0.950 . S
C4324 C4323 1.398 . S
C4324 C4325 1.391 . S
C4325 H4313 0.950 . S
C4325 C4321 1.393 . S
C4325 C4324 1.391 . S
C4326 H4316 0.950 . S
C4326 C4327 1.386 . S
C4326 C4328 1.391 . S
C4327 C4326 1.386 . S
C4327 C4331 1.393 . S
C4328 H4317 0.950 . S
C4328 C4326 1.391 . S
C4328 C4329 1.400 . S
C4329 C4323 1.491 . S
C4329 C4328 1.400 . S
C4329 C4330 1.398 . S
C4330 H4318 0.950 . S
C4330 C4329 1.398 . S
C4330 C4331 1.391 . S
C4331 H4319 0.950 . S
C4331 C4327 1.393 . S
C4331 C4330 1.391 . S
H4332 C4340 0.950 . S
H4333 C4345 0.950 . S
H4334 C4342 0.950 . S
H4335 C4344 0.950 . S
H4336 C4346 0.950 . S
H4337 C4348 0.950 . S
H4338 C4350 0.950 . S
H4339 C4351 0.950 . S
C4340 H4332 0.950 . S
C4340 C4341 1.386 . S
C4340 C4342 1.391 . S
C4341 C4340 1.386 . S
C4341 C4345 1.393 . S
C4342 H4334 0.950 . S
C4342 C4340 1.391 . S
C4342 C4343 1.400 . S
C4343 C4342 1.400 . S
C4343 C4344 1.398 . S
C4343 C4349 1.491 . S
C4344 H4335 0.950 . S
C4344 C4343 1.398 . S
C4344 C4345 1.391 . S
C4345 H4333 0.950 . S
C4345 C4341 1.393 . S
C4345 C4344 1.391 . S
C4346 H4336 0.950 . S
C4346 C4347 1.386 . S
C4346 C4348 1.391 . S
C4347 C4346 1.386 . S
C4347 C4351 1.393 . S
C4348 H4337 0.950 . S
C4348 C4346 1.391 . S
C4348 C4349 1.400 . S
C4349 C4343 1.491 . S
C4349 C4348 1.400 . S
C4349 C4350 1.398 . S
C4350 H4338 0.950 . S
C4350 C4349 1.398 . S
C4350 C4351 1.391 . S
C4351 H4339 0.950 . S
C4351 C4347 1.393 . S
C4351 C4350 1.391 . S
H4352 C4360 0.950 . S
H4353 C4365 0.950 . S
H4354 C4362 0.950 . S
H4355 C4364 0.950 . S
H4356 C4366 0.950 . S
H4357 C4368 0.950 . S
H4358 C4370 0.950 . S
H4359 C4371 0.950 . S
C4360 H4352 0.950 . S
C4360 C4361 1.386 . S
C4360 C4362 1.391 . S
C4361 C4360 1.386 . S
C4361 C4365 1.393 . S
C4362 H4354 0.950 . S
C4362 C4360 1.391 . S
C4362 C4363 1.400 . S
C4363 C4362 1.400 . S
C4363 C4364 1.398 . S
C4363 C4369 1.491 . S
C4364 H4355 0.950 . S
C4364 C4363 1.398 . S
C4364 C4365 1.391 . S
C4365 H4353 0.950 . S
C4365 C4361 1.393 . S
C4365 C4364 1.391 . S
C4366 H4356 0.950 . S
C4366 C4367 1.386 . S
C4366 C4368 1.391 . S
C4367 C4366 1.386 . S
C4367 C4371 1.393 . S
C4368 H4357 0.950 . S
C4368 C4366 1.391 . S
C4368 C4369 1.400 . S
C4369 C4363 1.491 . S
C4369 C4368 1.400 . S
C4369 C4370 1.398 . S
C4370 H4358 0.950 . S
C4370 C4369 1.398 . S
C4370 C4371 1.391 . S
C4371 H4359 0.950 . S
C4371 C4367 1.393 . S
C4371 C4370 1.391 . S
H4372 C4380 0.950 . S
H4373 C4385 0.950 . S
H4374 C4382 0.950 . S
H4375 C4384 0.950 . S
H4376 C4386 0.950 . S
H4377 C4388 0.950 . S
H4378 C4390 0.950 . S
H4379 C4391 0.950 . S
C4380 H4372 0.950 . S
C4380 C4381 1.386 . S
C4380 C4382 1.391 . S
C4381 C4380 1.386 . S
C4381 C4385 1.393 . S
C4382 H4374 0.950 . S
C4382 C4380 1.391 . S
C4382 C4383 1.400 . S
C4383 C4382 1.400 . S
C4383 C4384 1.398 . S
C4383 C4389 1.491 . S
C4384 H4375 0.950 . S
C4384 C4383 1.398 . S
C4384 C4385 1.391 . S
C4385 H4373 0.950 . S
C4385 C4381 1.393 . S
C4385 C4384 1.391 . S
C4386 H4376 0.950 . S
C4386 C4387 1.386 . S
C4386 C4388 1.391 . S
C4387 C4386 1.386 . S
C4387 C4391 1.393 . S
C4388 H4377 0.950 . S
C4388 C4386 1.391 . S
C4388 C4389 1.400 . S
C4389 C4383 1.491 . S
C4389 C4388 1.400 . S
C4389 C4390 1.398 . S
C4390 H4378 0.950 . S
C4390 C4389 1.398 . S
C4390 C4391 1.391 . S
C4391 H4379 0.950 . S
C4391 C4387 1.393 . S
C4391 C4390 1.391 . S
H4392 C4400 0.950 . S
H4393 C4405 0.950 . S
H4394 C4402 0.950 . S
H4395 C4404 0.950 . S
H4396 C4406 0.950 . S
H4397 C4408 0.950 . S
H4398 C4410 0.950 . S
H4399 C4411 0.950 . S
C4400 H4392 0.950 . S
C4400 C4401 1.397 . S
C4400 C4402 1.391 . S
C4401 C4400 1.397 . S
C4401 C4405 1.381 1_556 S
C4402 H4394 0.950 . S
C4402 C4400 1.391 . S
C4402 C4403 1.403 1_556 S
C4403 C4402 1.403 1_554 S
C4403 C4404 1.396 . S
C4403 C4409 1.491 . S
C4404 H4395 0.950 . S
C4404 C4403 1.396 . S
C4404 C4405 1.391 . S
C4405 H4393 0.950 . S
C4405 C4401 1.381 1_554 S
C4405 C4404 1.391 . S
C4406 H4396 0.950 . S
C4406 C4407 1.403 . S
C4406 C4408 1.391 . S
C4407 C4406 1.403 . S
C4407 C4411 1.376 1_554 S
C4408 H4397 0.950 . S
C4408 C4406 1.391 . S
C4408 C4409 1.397 . S
C4409 C4403 1.491 . S
C4409 C4408 1.397 . S
C4409 C4410 1.402 1_554 S
C4410 H4398 0.950 . S
C4410 C4409 1.402 1_556 S
C4410 C4411 1.391 . S
C4411 H4399 0.950 . S
C4411 C4407 1.376 1_556 S
C4411 C4410 1.391 . S
H4412 C4420 0.950 1_545 S
H4413 C4425 0.950 . S
H4414 C4422 0.950 1_545 S
H4415 C4424 0.950 . S
H4416 C4426 0.950 . S
H4417 C4428 0.950 . S
H4418 C4430 0.950 1_545 S
H4419 C4431 0.950 1_545 S
C4420 H4412 0.950 1_565 S
C4420 C4421 1.386 . S
C4420 C4422 1.391 . S
C4421 C4420 1.386 . S
C4421 C4425 1.393 . S
C4422 H4414 0.950 1_565 S
C4422 C4420 1.391 . S
C4422 C4423 1.400 . S
C4423 C4422 1.400 . S
C4423 C4424 1.398 . S
C4423 C4429 1.491 . S
C4424 H4415 0.950 . S
C4424 C4423 1.398 . S
C4424 C4425 1.391 . S
C4425 H4413 0.950 . S
C4425 C4421 1.393 . S
C4425 C4424 1.391 . S
C4426 H4416 0.950 . S
C4426 C4427 1.386 . S
C4426 C4428 1.391 . S
C4427 C4426 1.386 . S
C4427 C4431 1.393 . S
C4428 H4417 0.950 . S
C4428 C4426 1.391 . S
C4428 C4429 1.400 . S
C4429 C4423 1.491 . S
C4429 C4428 1.400 . S
C4429 C4430 1.398 . S
C4430 H4418 0.950 1_565 S
C4430 C4429 1.398 . S
C4430 C4431 1.391 . S
C4431 H4419 0.950 1_565 S
C4431 C4427 1.393 . S
C4431 C4430 1.391 . S
H4432 C4440 0.958 . S
H4433 C4445 0.950 . S
H4434 C4442 0.950 . S
H4435 C4444 0.950 . S
H4436 C4446 0.950 . S
H4437 C4448 0.950 . S
H4438 C4450 0.950 . S
H4439 C4451 0.950 . S
C4440 H4432 0.958 . S
C4440 C4441 1.378 1_545 S
C4440 C4442 1.394 . S
C4441 C4440 1.378 1_565 S
C4441 C4445 1.393 . S
C4442 H4434 0.950 . S
C4442 C4440 1.394 . S
C4442 C4443 1.395 1_545 S
C4443 C4442 1.395 1_565 S
C4443 C4444 1.409 . S
C4443 C4449 1.489 1_565 S
C4444 H4435 0.950 . S
C4444 C4443 1.409 . S
C4444 C4445 1.391 . S
C4445 H4433 0.950 . S
C4445 C4441 1.393 . S
C4445 C4444 1.391 . S
C4446 H4436 0.950 . S
C4446 C4447 1.386 1_565 S
C4446 C4448 1.391 . S
C4447 C4446 1.386 1_545 S
C4447 C4451 1.393 . S
C4448 H4437 0.950 . S
C4448 C4446 1.391 . S
C4448 C4449 1.399 1_565 S
C4449 C4443 1.489 1_545 S
C4449 C4448 1.399 1_545 S
C4449 C4450 1.400 . S
C4450 H4438 0.950 . S
C4450 C4449 1.400 . S
C4450 C4451 1.391 . S
C4451 H4439 0.950 . S
C4451 C4447 1.393 . S
C4451 C4450 1.391 . S
H4452 C4460 0.950 . S
H4453 C4465 0.950 . S
H4454 C4462 0.950 . S
H4455 C4464 0.950 . S
H4456 C4466 0.950 . S
H4457 C4468 0.950 . S
H4458 C4470 0.950 . S
H4459 C4471 0.950 . S
C4460 H4452 0.950 . S
C4460 C4461 1.386 . S
C4460 C4462 1.391 . S
C4461 C4460 1.386 . S
C4461 C4465 1.393 . S
C4462 H4454 0.950 . S
C4462 C4460 1.391 . S
C4462 C4463 1.400 . S
C4463 C4462 1.400 . S
C4463 C4464 1.398 . S
C4463 C4469 1.491 1_556 S
C4464 H4455 0.950 . S
C4464 C4463 1.398 . S
C4464 C4465 1.391 . S
C4465 H4453 0.950 . S
C4465 C4461 1.393 . S
C4465 C4464 1.391 . S
C4466 H4456 0.950 . S
C4466 C4467 1.386 . S
C4466 C4468 1.391 . S
C4467 C4466 1.386 . S
C4467 C4471 1.393 . S
C4468 H4457 0.950 . S
C4468 C4466 1.391 . S
C4468 C4469 1.400 . S
C4469 C4463 1.491 1_554 S
C4469 C4468 1.400 . S
C4469 C4470 1.398 . S
C4470 H4458 0.950 . S
C4470 C4469 1.398 . S
C4470 C4471 1.391 . S
C4471 H4459 0.950 . S
C4471 C4467 1.393 . S
C4471 C4470 1.391 . S
H4472 C4480 0.950 . S
H4473 C4485 0.950 . S
H4474 C4482 0.950 . S
H4475 C4484 0.950 . S
H4476 C4486 0.950 . S
H4477 C4488 0.950 . S
H4478 C4490 0.950 . S
H4479 C4491 0.950 . S
C4480 H4472 0.950 . S
C4480 C4481 1.386 . S
C4480 C4482 1.391 . S
C4481 C4480 1.386 . S
C4481 C4485 1.393 1_565 S
C4482 H4474 0.950 . S
C4482 C4480 1.391 . S
C4482 C4483 1.407 . S
C4483 C4482 1.407 . S
C4483 C4484 1.394 1_565 S
C4483 C4489 1.489 1_565 S
C4484 H4475 0.950 . S
C4484 C4483 1.394 1_545 S
C4484 C4485 1.391 . S
C4485 H4473 0.950 . S
C4485 C4481 1.393 1_545 S
C4485 C4484 1.391 . S
C4486 H4476 0.950 . S
C4486 C4487 1.386 . S
C4486 C4488 1.391 . S
C4487 C4486 1.386 . S
C4487 C4491 1.393 1_545 S
C4488 H4477 0.950 . S
C4488 C4486 1.391 . S
C4488 C4489 1.407 . S
C4489 C4483 1.489 1_545 S
C4489 C4488 1.407 . S
C4489 C4490 1.394 1_545 S
C4490 H4478 0.950 . S
C4490 C4489 1.394 1_565 S
C4490 C4491 1.391 . S
C4491 H4479 0.950 . S
C4491 C4487 1.393 1_565 S
C4491 C4490 1.391 . S
H4492 C4500 0.950 . S
H4493 C4505 0.950 . S
H4494 C4502 0.950 . S
H4495 C4504 0.950 . S
H4496 C4506 0.950 . S
H4497 C4508 0.950 . S
H4498 C4510 0.950 . S
H4499 C4511 0.950 . S
C4500 H4492 0.950 . S
C4500 C4501 1.386 . S
C4500 C4502 1.391 . S
C4501 C4500 1.386 . S
C4501 C4505 1.393 1_556 S
C4502 H4494 0.950 . S
C4502 C4500 1.391 . S
C4502 C4503 1.400 . S
C4503 C4502 1.400 . S
C4503 C4504 1.398 1_556 S
C4503 C4509 1.491 . S
C4504 H4495 0.950 . S
C4504 C4503 1.398 1_554 S
C4504 C4505 1.391 . S
C4505 H4493 0.950 . S
C4505 C4501 1.393 1_554 S
C4505 C4504 1.391 . S
C4506 H4496 0.950 . S
C4506 C4507 1.386 1_554 S
C4506 C4508 1.391 . S
C4507 C4506 1.386 1_556 S
C4507 C4511 1.393 . S
C4508 H4497 0.950 . S
C4508 C4506 1.391 . S
C4508 C4509 1.400 1_554 S
C4509 C4503 1.491 . S
C4509 C4508 1.400 1_556 S
C4509 C4510 1.398 . S
C4510 H4498 0.950 . S
C4510 C4509 1.398 . S
C4510 C4511 1.391 . S
C4511 H4499 0.950 . S
C4511 C4507 1.393 . S
C4511 C4510 1.391 . S
H4512 C4520 0.950 . S
H4513 C4525 0.950 . S
H4514 C4522 0.950 . S
H4515 C4524 0.950 . S
H4516 C4526 0.950 . S
H4517 C4528 0.950 . S
H4518 C4530 0.950 . S
H4519 C4531 0.950 . S
C4520 H4512 0.950 . S
C4520 C4521 1.386 . S
C4520 C4522 1.391 . S
C4521 C4520 1.386 . S
C4521 C4525 1.393 . S
C4522 H4514 0.950 . S
C4522 C4520 1.391 . S
C4522 C4523 1.400 . S
C4523 C4522 1.400 . S
C4523 C4524 1.398 . S
C4523 C4529 1.491 1_655 S
C4524 H4515 0.950 . S
C4524 C4523 1.398 . S
C4524 C4525 1.391 . S
C4525 H4513 0.950 . S
C4525 C4521 1.393 . S
C4525 C4524 1.391 . S
C4526 H4516 0.950 . S
C4526 C4527 1.386 . S
C4526 C4528 1.391 . S
C4527 C4526 1.386 . S
C4527 C4531 1.393 . S
C4528 H4517 0.950 . S
C4528 C4526 1.391 . S
C4528 C4529 1.400 . S
C4529 C4523 1.491 1_455 S
C4529 C4528 1.400 . S
C4529 C4530 1.398 . S
C4530 H4518 0.950 . S
C4530 C4529 1.398 . S
C4530 C4531 1.391 . S
C4531 H4519 0.950 . S
C4531 C4527 1.393 . S
C4531 C4530 1.391 . S
H4532 C4540 0.950 . S
H4533 C4545 0.950 . S
H4534 C4542 0.950 . S
H4535 C4544 0.950 . S
H4536 C4546 0.950 . S
H4537 C4548 0.950 . S
H4538 C4550 0.950 . S
H4539 C4551 0.950 . S
C4540 H4532 0.950 . S
C4540 C4541 1.412 . S
C4540 C4542 1.391 . S
C4541 C4540 1.412 . S
C4541 C4545 1.368 1_655 S
C4542 H4534 0.950 . S
C4542 C4540 1.391 . S
C4542 C4543 1.433 . S
C4543 C4542 1.433 . S
C4543 C4544 1.367 1_655 S
C4543 C4549 1.491 . S
C4544 H4535 0.950 . S
C4544 C4543 1.367 1_455 S
C4544 C4545 1.391 . S
C4545 H4533 0.950 . S
C4545 C4541 1.368 1_455 S
C4545 C4544 1.391 . S
C4546 H4536 0.950 . S
C4546 C4547 1.357 1_455 S
C4546 C4548 1.391 . S
C4547 C4546 1.357 1_655 S
C4547 C4551 1.421 . S
C4548 H4537 0.950 . S
C4548 C4546 1.391 . S
C4548 C4549 1.379 1_455 S
C4549 C4543 1.491 . S
C4549 C4548 1.379 1_655 S
C4549 C4550 1.419 . S
C4550 H4538 0.950 . S
C4550 C4549 1.419 . S
C4550 C4551 1.391 . S
C4551 H4539 0.950 . S
C4551 C4547 1.421 . S
C4551 C4550 1.391 . S
H4552 C4560 0.950 . S
H4553 C4565 0.950 . S
H4554 C4562 0.950 . S
H4555 C4564 0.950 . S
H4556 C4566 0.950 . S
H4557 C4568 0.950 . S
H4558 C4570 0.950 . S
H4559 C4571 0.950 . S
C4560 H4552 0.950 . S
C4560 C4561 1.386 . S
C4560 C4562 1.391 . S
C4561 C4560 1.386 . S
C4561 C4565 1.393 . S
C4562 H4554 0.950 . S
C4562 C4560 1.391 . S
C4562 C4563 1.400 . S
C4563 C4562 1.400 . S
C4563 C4564 1.398 . S
C4563 C4569 1.491 . S
C4564 H4555 0.950 . S
C4564 C4563 1.398 . S
C4564 C4565 1.391 . S
C4565 H4553 0.950 . S
C4565 C4561 1.393 . S
C4565 C4564 1.391 . S
C4566 H4556 0.950 . S
C4566 C4567 1.386 . S
C4566 C4568 1.391 . S
C4567 C4566 1.386 . S
C4567 C4571 1.393 . S
C4568 H4557 0.950 . S
C4568 C4566 1.391 . S
C4568 C4569 1.400 . S
C4569 C4563 1.491 . S
C4569 C4568 1.400 . S
C4569 C4570 1.398 . S
C4570 H4558 0.950 . S
C4570 C4569 1.398 . S
C4570 C4571 1.391 . S
C4571 H4559 0.950 . S
C4571 C4567 1.393 . S
C4571 C4570 1.391 . S
H4572 C4580 0.950 . S
H4573 C4585 0.950 . S
H4574 C4582 0.950 . S
H4575 C4584 0.950 . S
H4576 C4586 0.950 . S
H4577 C4588 0.950 . S
H4578 C4590 0.950 . S
H4579 C4591 0.950 . S
C4580 H4572 0.950 . S
C4580 C4581 1.386 . S
C4580 C4582 1.391 . S
C4581 C4580 1.386 . S
C4581 C4585 1.393 . S
C4582 H4574 0.950 . S
C4582 C4580 1.391 . S
C4582 C4583 1.400 . S
C4583 C4582 1.400 . S
C4583 C4584 1.398 . S
C4583 C4589 1.491 1_655 S
C4584 H4575 0.950 . S
C4584 C4583 1.398 . S
C4584 C4585 1.391 . S
C4585 H4573 0.950 . S
C4585 C4581 1.393 . S
C4585 C4584 1.391 . S
C4586 H4576 0.950 . S
C4586 C4587 1.386 . S
C4586 C4588 1.391 . S
C4587 C4586 1.386 . S
C4587 C4591 1.393 . S
C4588 H4577 0.950 . S
C4588 C4586 1.391 . S
C4588 C4589 1.400 . S
C4589 C4583 1.491 1_455 S
C4589 C4588 1.400 . S
C4589 C4590 1.398 . S
C4590 H4578 0.950 . S
C4590 C4589 1.398 . S
C4590 C4591 1.391 . S
C4591 H4579 0.950 . S
C4591 C4587 1.393 . S
C4591 C4590 1.391 . S
H4592 C4600 0.950 . S
H4593 C4605 0.950 . S
H4594 C4602 0.950 . S
H4595 C4604 0.950 . S
H4596 C4606 0.950 . S
H4597 C4608 0.950 . S
H4598 C4610 0.950 . S
H4599 C4611 0.950 . S
C4600 H4592 0.950 . S
C4600 C4601 1.386 . S
C4600 C4602 1.391 . S
C4601 C4600 1.386 . S
C4601 C4605 1.393 1_655 S
C4602 H4594 0.950 . S
C4602 C4600 1.391 . S
C4602 C4603 1.438 . S
C4603 C4602 1.438 . S
C4603 C4604 1.362 1_655 S
C4603 C4609 1.491 . S
C4604 H4595 0.950 . S
C4604 C4603 1.362 1_455 S
C4604 C4605 1.391 . S
C4605 H4593 0.950 . S
C4605 C4601 1.393 1_455 S
C4605 C4604 1.391 . S
C4606 H4596 0.950 . S
C4606 C4607 1.399 . S
C4606 C4608 1.391 . S
C4607 C4606 1.399 . S
C4607 C4611 1.379 1_455 S
C4608 H4597 0.950 . S
C4608 C4606 1.391 . S
C4608 C4609 1.379 1_455 S
C4609 C4603 1.491 . S
C4609 C4608 1.379 1_655 S
C4609 C4610 1.419 . S
C4610 H4598 0.950 . S
C4610 C4609 1.419 . S
C4610 C4611 1.391 . S
C4611 H4599 0.950 . S
C4611 C4607 1.379 1_655 S
C4611 C4610 1.391 . S
H4612 C4620 0.950 . S
H4613 C4625 0.950 . S
H4614 C4622 0.950 . S
H4615 C4624 0.950 . S
H4616 C4626 0.950 . S
H4617 C4628 0.950 . S
H4618 C4630 0.950 . S
H4619 C4631 0.950 . S
C4620 H4612 0.950 . S
C4620 C4621 1.386 . S
C4620 C4622 1.391 . S
C4621 C4620 1.386 . S
C4621 C4625 1.393 . S
C4622 H4614 0.950 . S
C4622 C4620 1.391 . S
C4622 C4623 1.400 . S
C4623 C4622 1.400 . S
C4623 C4624 1.398 . S
C4623 C4629 1.491 . S
C4624 H4615 0.950 . S
C4624 C4623 1.398 . S
C4624 C4625 1.391 . S
C4625 H4613 0.950 . S
C4625 C4621 1.393 . S
C4625 C4624 1.391 . S
C4626 H4616 0.950 . S
C4626 C4627 1.386 . S
C4626 C4628 1.391 . S
C4627 C4626 1.386 . S
C4627 C4631 1.393 . S
C4628 H4617 0.950 . S
C4628 C4626 1.391 . S
C4628 C4629 1.400 . S
C4629 C4623 1.491 . S
C4629 C4628 1.400 . S
C4629 C4630 1.398 . S
C4630 H4618 0.950 . S
C4630 C4629 1.398 . S
C4630 C4631 1.391 . S
C4631 H4619 0.950 . S
C4631 C4627 1.393 . S
C4631 C4630 1.391 . S
H4632 C4640 0.950 . S
H4633 C4645 0.950 . S
H4634 C4642 0.950 . S
H4635 C4644 0.950 . S
H4636 C4646 0.950 . S
H4637 C4648 0.950 . S
H4638 C4650 0.950 . S
H4639 C4651 0.950 . S
C4640 H4632 0.950 . S
C4640 C4641 1.386 . S
C4640 C4642 1.391 . S
C4641 C4640 1.386 . S
C4641 C4645 1.393 . S
C4642 H4634 0.950 . S
C4642 C4640 1.391 . S
C4642 C4643 1.400 . S
C4643 C4642 1.400 . S
C4643 C4644 1.398 . S
C4643 C4649 1.491 1_545 S
C4644 H4635 0.950 . S
C4644 C4643 1.398 . S
C4644 C4645 1.391 . S
C4645 H4633 0.950 . S
C4645 C4641 1.393 . S
C4645 C4644 1.391 . S
C4646 H4636 0.950 . S
C4646 C4647 1.386 . S
C4646 C4648 1.391 . S
C4647 C4646 1.386 . S
C4647 C4651 1.393 . S
C4648 H4637 0.950 . S
C4648 C4646 1.391 . S
C4648 C4649 1.400 . S
C4649 C4643 1.491 1_565 S
C4649 C4648 1.400 . S
C4649 C4650 1.398 . S
C4650 H4638 0.950 . S
C4650 C4649 1.398 . S
C4650 C4651 1.391 . S
C4651 H4639 0.950 . S
C4651 C4647 1.393 . S
C4651 C4650 1.391 . S
H4652 C4660 0.950 . S
H4653 C4665 0.950 . S
H4654 C4662 0.950 . S
H4655 C4664 0.950 . S
H4656 C4666 0.950 . S
H4657 C4668 0.950 . S
H4658 C4670 0.950 . S
H4659 C4671 0.950 . S
C4660 H4652 0.950 . S
C4660 C4661 1.386 1_554 S
C4660 C4662 1.391 . S
C4661 C4660 1.386 1_556 S
C4661 C4665 1.393 . S
C4662 H4654 0.950 . S
C4662 C4660 1.391 . S
C4662 C4663 1.400 1_554 S
C4663 C4662 1.400 1_556 S
C4663 C4664 1.398 . S
C4663 C4669 1.490 1_556 S
C4664 H4655 0.950 . S
C4664 C4663 1.398 . S
C4664 C4665 1.391 . S
C4665 H4653 0.950 . S
C4665 C4661 1.393 . S
C4665 C4664 1.391 . S
C4666 H4656 0.950 . S
C4666 C4667 1.386 1_556 S
C4666 C4668 1.391 . S
C4667 C4666 1.386 1_554 S
C4667 C4671 1.393 . S
C4668 H4657 0.950 . S
C4668 C4666 1.391 . S
C4668 C4669 1.400 1_556 S
C4669 C4663 1.490 1_554 S
C4669 C4668 1.400 1_554 S
C4669 C4670 1.399 . S
C4670 H4658 0.950 . S
C4670 C4669 1.399 . S
C4670 C4671 1.391 . S
C4671 H4659 0.950 . S
C4671 C4667 1.393 . S
C4671 C4670 1.391 . S
H4672 C4680 0.950 . S
H4673 C4685 0.950 . S
H4674 C4682 0.950 . S
H4675 C4684 0.950 . S
H4676 C4686 0.950 . S
H4677 C4688 0.950 . S
H4678 C4690 0.950 . S
H4679 C4691 0.950 . S
C4680 H4672 0.950 . S
C4680 C4681 1.386 . S
C4680 C4682 1.391 . S
C4681 C4680 1.386 . S
C4681 C4685 1.393 1_655 S
C4682 H4674 0.950 . S
C4682 C4680 1.391 . S
C4682 C4683 1.400 . S
C4683 C4682 1.400 . S
C4683 C4684 1.398 1_655 S
C4683 C4689 1.491 1_545 S
C4684 H4675 0.950 . S
C4684 C4683 1.398 1_455 S
C4684 C4685 1.391 . S
C4685 H4673 0.950 . S
C4685 C4681 1.393 1_455 S
C4685 C4684 1.391 . S
C4686 H4676 0.950 . S
C4686 C4687 1.386 1_455 S
C4686 C4688 1.391 . S
C4687 C4686 1.386 1_655 S
C4687 C4691 1.393 . S
C4688 H4677 0.950 . S
C4688 C4686 1.391 . S
C4688 C4689 1.400 1_455 S
C4689 C4683 1.491 1_565 S
C4689 C4688 1.400 1_655 S
C4689 C4690 1.398 . S
C4690 H4678 0.950 . S
C4690 C4689 1.398 . S
C4690 C4691 1.391 . S
C4691 H4679 0.950 . S
C4691 C4687 1.393 . S
C4691 C4690 1.391 . S
H4692 C4700 0.950 . S
H4693 C4705 0.950 . S
H4694 C4702 0.950 . S
H4695 C4704 0.950 . S
H4696 C4706 0.950 . S
H4697 C4708 0.950 . S
H4698 C4710 0.950 . S
H4699 C4711 0.950 . S
C4700 H4692 0.950 . S
C4700 C4701 1.386 . S
C4700 C4702 1.391 . S
C4701 C4700 1.386 . S
C4701 C4705 1.393 . S
C4702 H4694 0.950 . S
C4702 C4700 1.391 . S
C4702 C4703 1.400 . S
C4703 C4702 1.400 . S
C4703 C4704 1.398 . S
C4703 C4709 1.491 . S
C4704 H4695 0.950 . S
C4704 C4703 1.398 . S
C4704 C4705 1.391 . S
C4705 H4693 0.950 . S
C4705 C4701 1.393 . S
C4705 C4704 1.391 . S
C4706 H4696 0.950 . S
C4706 C4707 1.386 . S
C4706 C4708 1.391 . S
C4707 C4706 1.386 . S
C4707 C4711 1.393 . S
C4708 H4697 0.950 . S
C4708 C4706 1.391 . S
C4708 C4709 1.400 . S
C4709 C4703 1.491 . S
C4709 C4708 1.400 . S
C4709 C4710 1.398 . S
C4710 H4698 0.950 . S
C4710 C4709 1.398 . S
C4710 C4711 1.391 . S
C4711 H4699 0.950 . S
C4711 C4707 1.393 . S
C4711 C4710 1.391 . S
H4712 C4720 0.950 . S
H4713 C4725 0.950 . S
H4714 C4722 0.950 . S
H4715 C4724 0.950 . S
H4716 C4726 0.950 . S
H4717 C4728 0.950 . S
H4718 C4730 0.950 . S
H4719 C4731 0.950 . S
C4720 H4712 0.950 . S
C4720 C4721 1.386 . S
C4720 C4722 1.391 . S
C4721 C4720 1.386 . S
C4721 C4725 1.393 . S
C4722 H4714 0.950 . S
C4722 C4720 1.391 . S
C4722 C4723 1.400 . S
C4723 C4722 1.400 . S
C4723 C4724 1.398 . S
C4723 C4729 1.491 1_556 S
C4724 H4715 0.950 . S
C4724 C4723 1.398 . S
C4724 C4725 1.391 . S
C4725 H4713 0.950 . S
C4725 C4721 1.393 . S
C4725 C4724 1.391 . S
C4726 H4716 0.950 . S
C4726 C4727 1.386 . S
C4726 C4728 1.391 . S
C4727 C4726 1.386 . S
C4727 C4731 1.393 . S
C4728 H4717 0.950 . S
C4728 C4726 1.391 . S
C4728 C4729 1.400 . S
C4729 C4723 1.491 1_554 S
C4729 C4728 1.400 . S
C4729 C4730 1.398 . S
C4730 H4718 0.950 . S
C4730 C4729 1.398 . S
C4730 C4731 1.391 . S
C4731 H4719 0.950 . S
C4731 C4727 1.393 . S
C4731 C4730 1.391 . S
H4732 C4740 0.950 . S
H4733 C4745 0.950 . S
H4734 C4742 0.950 . S
H4735 C4744 0.950 . S
H4736 C4746 0.950 . S
H4737 C4748 0.950 . S
H4738 C4750 0.950 . S
H4739 C4751 0.950 . S
C4740 H4732 0.950 . S
C4740 C4741 1.386 . S
C4740 C4742 1.391 . S
C4741 C4740 1.386 . S
C4741 C4745 1.393 . S
C4742 H4734 0.950 . S
C4742 C4740 1.391 . S
C4742 C4743 1.400 . S
C4743 C4742 1.400 . S
C4743 C4744 1.398 . S
C4743 C4749 1.491 . S
C4744 H4735 0.950 . S
C4744 C4743 1.398 . S
C4744 C4745 1.391 . S
C4745 H4733 0.950 . S
C4745 C4741 1.393 . S
C4745 C4744 1.391 . S
C4746 H4736 0.950 . S
C4746 C4747 1.386 . S
C4746 C4748 1.391 . S
C4747 C4746 1.386 . S
C4747 C4751 1.393 . S
C4748 H4737 0.950 . S
C4748 C4746 1.391 . S
C4748 C4749 1.400 . S
C4749 C4743 1.491 . S
C4749 C4748 1.400 . S
C4749 C4750 1.398 . S
C4750 H4738 0.950 . S
C4750 C4749 1.398 . S
C4750 C4751 1.391 . S
C4751 H4739 0.950 . S
C4751 C4747 1.393 . S
C4751 C4750 1.391 . S
H4752 C4760 0.950 . S
H4753 C4765 0.950 . S
H4754 C4762 0.950 . S
H4755 C4764 0.950 . S
H4756 C4766 0.950 . S
H4757 C4768 0.950 . S
H4758 C4770 0.950 . S
H4759 C4771 0.950 . S
C4760 H4752 0.950 . S
C4760 C4761 1.386 . S
C4760 C4762 1.391 . S
C4761 C4760 1.386 . S
C4761 C4765 1.393 . S
C4762 H4754 0.950 . S
C4762 C4760 1.391 . S
C4762 C4763 1.400 . S
C4763 C4762 1.400 . S
C4763 C4764 1.398 . S
C4763 C4769 1.491 . S
C4764 H4755 0.950 . S
C4764 C4763 1.398 . S
C4764 C4765 1.391 . S
C4765 H4753 0.950 . S
C4765 C4761 1.393 . S
C4765 C4764 1.391 . S
C4766 H4756 0.950 . S
C4766 C4767 1.386 . S
C4766 C4768 1.391 . S
C4767 C4766 1.386 . S
C4767 C4771 1.393 . S
C4768 H4757 0.950 . S
C4768 C4766 1.391 . S
C4768 C4769 1.400 . S
C4769 C4763 1.491 . S
C4769 C4768 1.400 . S
C4769 C4770 1.398 . S
C4770 H4758 0.950 . S
C4770 C4769 1.398 . S
C4770 C4771 1.391 . S
C4771 H4759 0.950 . S
C4771 C4767 1.393 . S
C4771 C4770 1.391 . S
H4772 C4780 0.950 . S
H4773 C4785 0.950 . S
H4774 C4782 0.950 . S
H4775 C4784 0.950 . S
H4776 C4786 0.950 . S
H4777 C4788 0.950 . S
H4778 C4790 0.950 . S
H4779 C4791 0.950 . S
C4780 H4772 0.950 . S
C4780 C4781 1.386 . S
C4780 C4782 1.391 . S
C4781 C4780 1.386 . S
C4781 C4785 1.393 . S
C4782 H4774 0.950 . S
C4782 C4780 1.391 . S
C4782 C4783 1.400 . S
C4783 C4782 1.400 . S
C4783 C4784 1.398 . S
C4783 C4789 1.491 . S
C4784 H4775 0.950 . S
C4784 C4783 1.398 . S
C4784 C4785 1.391 . S
C4785 H4773 0.950 . S
C4785 C4781 1.393 . S
C4785 C4784 1.391 . S
C4786 H4776 0.950 . S
C4786 C4787 1.386 . S
C4786 C4788 1.391 . S
C4787 C4786 1.386 . S
C4787 C4791 1.393 . S
C4788 H4777 0.950 . S
C4788 C4786 1.391 . S
C4788 C4789 1.400 . S
C4789 C4783 1.491 . S
C4789 C4788 1.400 . S
C4789 C4790 1.398 . S
C4790 H4778 0.950 . S
C4790 C4789 1.398 . S
C4790 C4791 1.391 . S
C4791 H4779 0.950 . S
C4791 C4787 1.393 . S
C4791 C4790 1.391 . S
H4792 C4800 0.950 . S
H4793 C4805 0.950 . S
H4794 C4802 0.950 . S
H4795 C4804 0.950 . S
H4796 C4806 0.950 . S
H4797 C4808 0.950 . S
H4798 C4810 0.950 . S
H4799 C4811 0.950 . S
C4800 H4792 0.950 . S
C4800 C4801 1.386 . S
C4800 C4802 1.391 . S
C4801 C4800 1.386 . S
C4801 C4805 1.393 . S
C4802 H4794 0.950 . S
C4802 C4800 1.391 . S
C4802 C4803 1.400 . S
C4803 C4802 1.400 . S
C4803 C4804 1.398 . S
C4803 C4809 1.491 . S
C4804 H4795 0.950 . S
C4804 C4803 1.398 . S
C4804 C4805 1.391 . S
C4805 H4793 0.950 . S
C4805 C4801 1.393 . S
C4805 C4804 1.391 . S
C4806 H4796 0.950 . S
C4806 C4807 1.386 . S
C4806 C4808 1.391 . S
C4807 C4806 1.386 . S
C4807 C4811 1.393 . S
C4808 H4797 0.950 . S
C4808 C4806 1.391 . S
C4808 C4809 1.400 . S
C4809 C4803 1.491 . S
C4809 C4808 1.400 . S
C4809 C4810 1.398 . S
C4810 H4798 0.950 . S
C4810 C4809 1.398 . S
C4810 C4811 1.391 . S
C4811 H4799 0.950 . S
C4811 C4807 1.393 . S
C4811 C4810 1.391 . S
H4812 C4820 0.950 . S
H4813 C4825 0.950 . S
H4814 C4822 0.950 . S
H4815 C4824 0.950 . S
H4816 C4826 0.950 . S
H4817 C4828 0.950 . S
H4818 C4830 0.950 . S
H4819 C4831 0.950 . S
C4820 H4812 0.950 . S
C4820 C4821 1.386 . S
C4820 C4822 1.391 . S
C4821 C4820 1.386 . S
C4821 C4825 1.393 . S
C4822 H4814 0.950 . S
C4822 C4820 1.391 . S
C4822 C4823 1.400 . S
C4823 C4822 1.400 . S
C4823 C4824 1.398 . S
C4823 C4829 1.491 1_565 S
C4824 H4815 0.950 . S
C4824 C4823 1.398 . S
C4824 C4825 1.391 . S
C4825 H4813 0.950 . S
C4825 C4821 1.393 . S
C4825 C4824 1.391 . S
C4826 H4816 0.950 . S
C4826 C4827 1.386 . S
C4826 C4828 1.391 . S
C4827 C4826 1.386 . S
C4827 C4831 1.393 . S
C4828 H4817 0.950 . S
C4828 C4826 1.391 . S
C4828 C4829 1.400 . S
C4829 C4823 1.491 1_545 S
C4829 C4828 1.400 . S
C4829 C4830 1.398 . S
C4830 H4818 0.950 . S
C4830 C4829 1.398 . S
C4830 C4831 1.391 . S
C4831 H4819 0.950 . S
C4831 C4827 1.393 . S
C4831 C4830 1.391 . S
H4832 C4840 0.950 . S
H4833 C4845 0.950 . S
H4834 C4842 0.950 . S
H4835 C4844 0.950 . S
H4836 C4846 0.950 . S
H4837 C4848 0.950 . S
H4838 C4850 0.950 . S
H4839 C4851 0.950 . S
C4840 H4832 0.950 . S
C4840 C4841 1.386 . S
C4840 C4842 1.391 . S
C4841 C4840 1.386 . S
C4841 C4845 1.393 1_554 S
C4842 H4834 0.950 . S
C4842 C4840 1.391 . S
C4842 C4843 1.432 . S
C4843 C4842 1.432 . S
C4843 C4844 1.372 1_554 S
C4843 C4849 1.489 1_554 S
C4844 H4835 0.950 . S
C4844 C4843 1.372 1_556 S
C4844 C4845 1.391 . S
C4845 H4833 0.950 . S
C4845 C4841 1.393 1_556 S
C4845 C4844 1.391 . S
C4846 H4836 0.950 . S
C4846 C4847 1.386 . S
C4846 C4848 1.391 . S
C4847 C4846 1.386 . S
C4847 C4851 1.393 1_556 S
C4848 H4837 0.950 . S
C4848 C4846 1.391 . S
C4848 C4849 1.398 . S
C4849 C4843 1.489 1_556 S
C4849 C4848 1.398 . S
C4849 C4850 1.400 1_556 S
C4850 H4838 0.950 . S
C4850 C4849 1.400 1_554 S
C4850 C4851 1.391 . S
C4851 H4839 0.950 . S
C4851 C4847 1.393 1_554 S
C4851 C4850 1.391 . S
H4852 C4860 0.950 1_655 S
H4853 C4865 0.950 . S
H4854 C4862 0.950 1_655 S
H4855 C4864 0.950 . S
H4856 C4866 0.950 . S
H4857 C4868 0.950 . S
H4858 C4870 0.950 1_655 S
H4859 C4871 0.950 1_655 S
C4860 H4852 0.950 1_455 S
C4860 C4861 1.386 . S
C4860 C4862 1.391 . S
C4861 C4860 1.386 . S
C4861 C4865 1.393 . S
C4862 H4854 0.950 1_455 S
C4862 C4860 1.391 . S
C4862 C4863 1.400 . S
C4863 C4862 1.400 . S
C4863 C4864 1.398 . S
C4863 C4869 1.491 1_545 S
C4864 H4855 0.950 . S
C4864 C4863 1.398 . S
C4864 C4865 1.391 . S
C4865 H4853 0.950 . S
C4865 C4861 1.393 . S
C4865 C4864 1.391 . S
C4866 H4856 0.950 . S
C4866 C4867 1.386 . S
C4866 C4868 1.391 . S
C4867 C4866 1.386 . S
C4867 C4871 1.393 . S
C4868 H4857 0.950 . S
C4868 C4866 1.391 . S
C4868 C4869 1.400 . S
C4869 C4863 1.491 1_565 S
C4869 C4868 1.400 . S
C4869 C4870 1.398 . S
C4870 H4858 0.950 1_455 S
C4870 C4869 1.398 . S
C4870 C4871 1.391 . S
C4871 H4859 0.950 1_455 S
C4871 C4867 1.393 . S
C4871 C4870 1.391 . S
H4872 C4880 0.950 . S
H4873 C4885 0.950 . S
H4874 C4882 0.950 . S
H4875 C4884 0.950 . S
H4876 C4886 0.950 . S
H4877 C4888 0.950 . S
H4878 C4890 0.950 . S
H4879 C4891 0.950 . S
C4880 H4872 0.950 . S
C4880 C4881 1.386 . S
C4880 C4882 1.391 . S
C4881 C4880 1.386 . S
C4881 C4885 1.393 . S
C4882 H4874 0.950 . S
C4882 C4880 1.391 . S
C4882 C4883 1.400 . S
C4883 C4882 1.400 . S
C4883 C4884 1.398 . S
C4883 C4889 1.491 . S
C4884 H4875 0.950 . S
C4884 C4883 1.398 . S
C4884 C4885 1.391 . S
C4885 H4873 0.950 . S
C4885 C4881 1.393 . S
C4885 C4884 1.391 . S
C4886 H4876 0.950 . S
C4886 C4887 1.386 . S
C4886 C4888 1.391 . S
C4887 C4886 1.386 . S
C4887 C4891 1.393 . S
C4888 H4877 0.950 . S
C4888 C4886 1.391 . S
C4888 C4889 1.400 . S
C4889 C4883 1.491 . S
C4889 C4888 1.400 . S
C4889 C4890 1.398 . S
C4890 H4878 0.950 . S
C4890 C4889 1.398 . S
C4890 C4891 1.391 . S
C4891 H4879 0.950 . S
C4891 C4887 1.393 . S
C4891 C4890 1.391 . S
H4892 C4900 0.950 . S
H4893 C4905 0.950 . S
H4894 C4902 0.950 . S
H4895 C4904 0.950 . S
H4896 C4906 0.950 . S
H4897 C4908 0.950 . S
H4898 C4910 0.950 . S
H4899 C4911 0.950 . S
C4900 H4892 0.950 . S
C4900 C4901 1.386 . S
C4900 C4902 1.391 . S
C4901 C4900 1.386 . S
C4901 C4905 1.393 . S
C4902 H4894 0.950 . S
C4902 C4900 1.391 . S
C4902 C4903 1.400 . S
C4903 C4902 1.400 . S
C4903 C4904 1.398 . S
C4903 C4909 1.491 1_554 S
C4904 H4895 0.950 . S
C4904 C4903 1.398 . S
C4904 C4905 1.391 . S
C4905 H4893 0.950 . S
C4905 C4901 1.393 . S
C4905 C4904 1.391 . S
C4906 H4896 0.950 . S
C4906 C4907 1.386 . S
C4906 C4908 1.391 . S
C4907 C4906 1.386 . S
C4907 C4911 1.393 . S
C4908 H4897 0.950 . S
C4908 C4906 1.391 . S
C4908 C4909 1.400 . S
C4909 C4903 1.491 1_556 S
C4909 C4908 1.400 . S
C4909 C4910 1.398 . S
C4910 H4898 0.950 . S
C4910 C4909 1.398 . S
C4910 C4911 1.391 . S
C4911 H4899 0.950 . S
C4911 C4907 1.393 . S
C4911 C4910 1.391 . S
H4912 C4920 0.950 . S
H4913 C4925 0.950 . S
H4914 C4922 0.950 . S
H4915 C4924 0.950 . S
H4916 C4926 0.950 . S
H4917 C4928 0.950 . S
H4918 C4930 0.950 . S
H4919 C4931 0.950 . S
C4920 H4912 0.950 . S
C4920 C4921 1.386 . S
C4920 C4922 1.391 . S
C4921 C4920 1.386 . S
C4921 C4925 1.393 . S
C4922 H4914 0.950 . S
C4922 C4920 1.391 . S
C4922 C4923 1.400 . S
C4923 C4922 1.400 . S
C4923 C4924 1.398 . S
C4923 C4929 1.491 . S
C4924 H4915 0.950 . S
C4924 C4923 1.398 . S
C4924 C4925 1.391 . S
C4925 H4913 0.950 . S
C4925 C4921 1.393 . S
C4925 C4924 1.391 . S
C4926 H4916 0.950 . S
C4926 C4927 1.386 . S
C4926 C4928 1.391 . S
C4927 C4926 1.386 . S
C4927 C4931 1.393 . S
C4928 H4917 0.950 . S
C4928 C4926 1.391 . S
C4928 C4929 1.400 . S
C4929 C4923 1.491 . S
C4929 C4928 1.400 . S
C4929 C4930 1.398 . S
C4930 H4918 0.950 . S
C4930 C4929 1.398 . S
C4930 C4931 1.391 . S
C4931 H4919 0.950 . S
C4931 C4927 1.393 . S
C4931 C4930 1.391 . S
H4932 C4940 0.950 . S
H4933 C4945 0.950 . S
H4934 C4942 0.950 . S
H4935 C4944 0.950 . S
H4936 C4946 0.950 . S
H4937 C4948 0.950 . S
H4938 C4950 0.950 . S
H4939 C4951 0.950 . S
C4940 H4932 0.950 . S
C4940 C4941 1.386 . S
C4940 C4942 1.391 . S
C4941 C4940 1.386 . S
C4941 C4945 1.393 . S
C4942 H4934 0.950 . S
C4942 C4940 1.391 . S
C4942 C4943 1.400 . S
C4943 C4942 1.400 . S
C4943 C4944 1.398 . S
C4943 C4949 1.491 . S
C4944 H4935 0.950 . S
C4944 C4943 1.398 . S
C4944 C4945 1.391 . S
C4945 H4933 0.950 . S
C4945 C4941 1.393 . S
C4945 C4944 1.391 . S
C4946 H4936 0.950 . S
C4946 C4947 1.386 . S
C4946 C4948 1.391 . S
C4947 C4946 1.386 . S
C4947 C4951 1.393 . S
C4948 H4937 0.950 . S
C4948 C4946 1.391 . S
C4948 C4949 1.400 . S
C4949 C4943 1.491 . S
C4949 C4948 1.400 . S
C4949 C4950 1.398 . S
C4950 H4938 0.950 . S
C4950 C4949 1.398 . S
C4950 C4951 1.391 . S
C4951 H4939 0.950 . S
C4951 C4947 1.393 . S
C4951 C4950 1.391 . S
H4952 C4960 0.950 . S
H4953 C4965 0.950 . S
H4954 C4962 0.950 . S
H4955 C4964 0.950 . S
H4956 C4966 0.950 . S
H4957 C4968 0.950 . S
H4958 C4970 0.950 . S
H4959 C4971 0.950 . S
C4960 H4952 0.950 . S
C4960 C4961 1.386 . S
C4960 C4962 1.391 . S
C4961 C4960 1.386 . S
C4961 C4965 1.393 . S
C4962 H4954 0.950 . S
C4962 C4960 1.391 . S
C4962 C4963 1.400 . S
C4963 C4962 1.400 . S
C4963 C4964 1.398 . S
C4963 C4969 1.491 . S
C4964 H4955 0.950 . S
C4964 C4963 1.398 . S
C4964 C4965 1.391 . S
C4965 H4953 0.950 . S
C4965 C4961 1.393 . S
C4965 C4964 1.391 . S
C4966 H4956 0.950 . S
C4966 C4967 1.386 . S
C4966 C4968 1.391 . S
C4967 C4966 1.386 . S
C4967 C4971 1.393 . S
C4968 H4957 0.950 . S
C4968 C4966 1.391 . S
C4968 C4969 1.400 . S
C4969 C4963 1.491 . S
C4969 C4968 1.400 . S
C4969 C4970 1.398 . S
C4970 H4958 0.950 . S
C4970 C4969 1.398 . S
C4970 C4971 1.391 . S
C4971 H4959 0.950 . S
C4971 C4967 1.393 . S
C4971 C4970 1.391 . S
H4972 C4980 0.950 . S
H4973 C4985 0.950 . S
H4974 C4982 0.950 . S
H4975 C4984 0.950 . S
H4976 C4986 0.950 . S
H4977 C4988 0.950 . S
H4978 C4990 0.950 . S
H4979 C4991 0.950 . S
C4980 H4972 0.950 . S
C4980 C4981 1.386 . S
C4980 C4982 1.391 . S
C4981 C4980 1.386 . S
C4981 C4985 1.393 . S
C4982 H4974 0.950 . S
C4982 C4980 1.391 . S
C4982 C4983 1.400 . S
C4983 C4982 1.400 . S
C4983 C4984 1.398 . S
C4983 C4989 1.491 . S
C4984 H4975 0.950 . S
C4984 C4983 1.398 . S
C4984 C4985 1.391 . S
C4985 H4973 0.950 . S
C4985 C4981 1.393 . S
C4985 C4984 1.391 . S
C4986 H4976 0.950 . S
C4986 C4987 1.386 . S
C4986 C4988 1.391 . S
C4987 C4986 1.386 . S
C4987 C4991 1.393 . S
C4988 H4977 0.950 . S
C4988 C4986 1.391 . S
C4988 C4989 1.400 . S
C4989 C4983 1.491 . S
C4989 C4988 1.400 . S
C4989 C4990 1.398 . S
C4990 H4978 0.950 . S
C4990 C4989 1.398 . S
C4990 C4991 1.391 . S
C4991 H4979 0.950 . S
C4991 C4987 1.393 . S
C4991 C4990 1.391 . S
H4992 C5000 0.950 . S
H4993 C5005 0.950 . S
H4994 C5002 0.950 . S
H4995 C5004 0.950 . S
H4996 C5006 0.950 . S
H4997 C5008 0.950 . S
H4998 C5010 0.950 . S
H4999 C5011 0.950 . S
C5000 H4992 0.950 . S
C5000 C5001 1.386 . S
C5000 C5002 1.391 . S
C5001 C5000 1.386 . S
C5001 C5005 1.393 . S
C5002 H4994 0.950 . S
C5002 C5000 1.391 . S
C5002 C5003 1.400 . S
C5003 C5002 1.400 . S
C5003 C5004 1.398 . S
C5003 C5009 1.491 . S
C5004 H4995 0.950 . S
C5004 C5003 1.398 . S
C5004 C5005 1.391 . S
C5005 H4993 0.950 . S
C5005 C5001 1.393 . S
C5005 C5004 1.391 . S
C5006 H4996 0.950 . S
C5006 C5007 1.386 . S
C5006 C5008 1.391 . S
C5007 C5006 1.386 . S
C5007 C5011 1.393 . S
C5008 H4997 0.950 . S
C5008 C5006 1.391 . S
C5008 C5009 1.400 . S
C5009 C5003 1.491 . S
C5009 C5008 1.400 . S
C5009 C5010 1.398 . S
C5010 H4998 0.950 . S
C5010 C5009 1.398 . S
C5010 C5011 1.391 . S
C5011 H4999 0.950 . S
C5011 C5007 1.393 . S
C5011 C5010 1.391 . S
H5012 C5020 0.950 . S
H5013 C5025 0.950 . S
H5014 C5022 0.950 . S
H5015 C5024 0.950 . S
H5016 C5026 0.950 . S
H5017 C5028 0.950 . S
H5018 C5030 0.950 . S
H5019 C5031 0.950 . S
C5020 H5012 0.950 . S
C5020 C5021 1.386 . S
C5020 C5022 1.391 . S
C5021 C5020 1.386 . S
C5021 C5025 1.393 . S
C5022 H5014 0.950 . S
C5022 C5020 1.391 . S
C5022 C5023 1.400 . S
C5023 C5022 1.400 . S
C5023 C5024 1.398 . S
C5023 C5029 1.491 . S
C5024 H5015 0.950 . S
C5024 C5023 1.398 . S
C5024 C5025 1.391 . S
C5025 H5013 0.950 . S
C5025 C5021 1.393 . S
C5025 C5024 1.391 . S
C5026 H5016 0.950 . S
C5026 C5027 1.386 . S
C5026 C5028 1.391 . S
C5027 C5026 1.386 . S
C5027 C5031 1.393 . S
C5028 H5017 0.950 . S
C5028 C5026 1.391 . S
C5028 C5029 1.400 . S
C5029 C5023 1.491 . S
C5029 C5028 1.400 . S
C5029 C5030 1.398 . S
C5030 H5018 0.950 . S
C5030 C5029 1.398 . S
C5030 C5031 1.391 . S
C5031 H5019 0.950 . S
C5031 C5027 1.393 . S
C5031 C5030 1.391 . S
H5032 C5040 0.950 . S
H5033 C5045 0.950 . S
H5034 C5042 0.950 . S
H5035 C5044 0.950 . S
H5036 C5046 0.950 . S
H5037 C5048 0.950 . S
H5038 C5050 0.950 . S
H5039 C5051 0.950 . S
C5040 H5032 0.950 . S
C5040 C5041 1.386 . S
C5040 C5042 1.391 . S
C5041 C5040 1.386 . S
C5041 C5045 1.393 . S
C5042 H5034 0.950 . S
C5042 C5040 1.391 . S
C5042 C5043 1.400 . S
C5043 C5042 1.400 . S
C5043 C5044 1.398 . S
C5043 C5049 1.491 . S
C5044 H5035 0.950 . S
C5044 C5043 1.398 . S
C5044 C5045 1.391 . S
C5045 H5033 0.950 . S
C5045 C5041 1.393 . S
C5045 C5044 1.391 . S
C5046 H5036 0.950 . S
C5046 C5047 1.386 . S
C5046 C5048 1.391 . S
C5047 C5046 1.386 . S
C5047 C5051 1.393 . S
C5048 H5037 0.950 . S
C5048 C5046 1.391 . S
C5048 C5049 1.400 . S
C5049 C5043 1.491 . S
C5049 C5048 1.400 . S
C5049 C5050 1.398 . S
C5050 H5038 0.950 . S
C5050 C5049 1.398 . S
C5050 C5051 1.391 . S
C5051 H5039 0.950 . S
C5051 C5047 1.393 . S
C5051 C5050 1.391 . S
H5052 C5060 0.950 . S
H5053 C5065 0.950 . S
H5054 C5062 0.950 . S
H5055 C5064 0.950 . S
H5056 C5066 0.950 . S
H5057 C5068 0.950 . S
H5058 C5070 0.950 . S
H5059 C5071 0.950 . S
C5060 H5052 0.950 . S
C5060 C5061 1.386 . S
C5060 C5062 1.391 . S
C5061 C5060 1.386 . S
C5061 C5065 1.393 . S
C5062 H5054 0.950 . S
C5062 C5060 1.391 . S
C5062 C5063 1.400 . S
C5063 C5062 1.400 . S
C5063 C5064 1.398 . S
C5063 C5069 1.491 . S
C5064 H5055 0.950 . S
C5064 C5063 1.398 . S
C5064 C5065 1.391 . S
C5065 H5053 0.950 . S
C5065 C5061 1.393 . S
C5065 C5064 1.391 . S
C5066 H5056 0.950 . S
C5066 C5067 1.386 . S
C5066 C5068 1.391 . S
C5067 C5066 1.386 . S
C5067 C5071 1.393 . S
C5068 H5057 0.950 . S
C5068 C5066 1.391 . S
C5068 C5069 1.400 . S
C5069 C5063 1.491 . S
C5069 C5068 1.400 . S
C5069 C5070 1.398 . S
C5070 H5058 0.950 . S
C5070 C5069 1.398 . S
C5070 C5071 1.391 . S
C5071 H5059 0.950 . S
C5071 C5067 1.393 . S
C5071 C5070 1.391 . S
H5072 C5080 0.950 . S
H5073 C5085 0.950 . S
H5074 C5082 0.950 . S
H5075 C5084 0.950 . S
H5076 C5086 0.950 . S
H5077 C5088 0.950 . S
H5078 C5090 0.950 . S
H5079 C5091 0.950 . S
C5080 H5072 0.950 . S
C5080 C5081 1.386 . S
C5080 C5082 1.391 . S
C5081 C5080 1.386 . S
C5081 C5085 1.393 . S
C5082 H5074 0.950 . S
C5082 C5080 1.391 . S
C5082 C5083 1.400 . S
C5083 C5082 1.400 . S
C5083 C5084 1.398 . S
C5083 C5089 1.491 . S
C5084 H5075 0.950 . S
C5084 C5083 1.398 . S
C5084 C5085 1.391 . S
C5085 H5073 0.950 . S
C5085 C5081 1.393 . S
C5085 C5084 1.391 . S
C5086 H5076 0.950 . S
C5086 C5087 1.386 . S
C5086 C5088 1.391 . S
C5087 C5086 1.386 . S
C5087 C5091 1.393 . S
C5088 H5077 0.950 . S
C5088 C5086 1.391 . S
C5088 C5089 1.400 . S
C5089 C5083 1.491 . S
C5089 C5088 1.400 . S
C5089 C5090 1.398 . S
C5090 H5078 0.950 . S
C5090 C5089 1.398 . S
C5090 C5091 1.391 . S
C5091 H5079 0.950 . S
C5091 C5087 1.393 . S
C5091 C5090 1.391 . S
H5092 C5100 0.950 . S
H5093 C5105 0.950 . S
H5094 C5102 0.950 . S
H5095 C5104 0.950 . S
H5096 C5106 0.950 . S
H5097 C5108 0.950 . S
H5098 C5110 0.950 . S
H5099 C5111 0.950 . S
C5100 H5092 0.950 . S
C5100 C5101 1.386 . S
C5100 C5102 1.391 . S
C5101 C5100 1.386 . S
C5101 C5105 1.393 . S
C5102 H5094 0.950 . S
C5102 C5100 1.391 . S
C5102 C5103 1.400 . S
C5103 C5102 1.400 . S
C5103 C5104 1.398 . S
C5103 C5109 1.491 . S
C5104 H5095 0.950 . S
C5104 C5103 1.398 . S
C5104 C5105 1.391 . S
C5105 H5093 0.950 . S
C5105 C5101 1.393 . S
C5105 C5104 1.391 . S
C5106 H5096 0.950 . S
C5106 C5107 1.386 . S
C5106 C5108 1.391 . S
C5107 C5106 1.386 . S
C5107 C5111 1.393 . S
C5108 H5097 0.950 . S
C5108 C5106 1.391 . S
C5108 C5109 1.400 . S
C5109 C5103 1.491 . S
C5109 C5108 1.400 . S
C5109 C5110 1.398 . S
C5110 H5098 0.950 . S
C5110 C5109 1.398 . S
C5110 C5111 1.391 . S
C5111 H5099 0.950 . S
C5111 C5107 1.393 . S
C5111 C5110 1.391 . S
H5112 C5120 0.950 . S
H5113 C5125 0.950 . S
H5114 C5122 0.950 . S
H5115 C5124 0.950 . S
H5116 C5126 0.950 . S
H5117 C5128 0.950 . S
H5118 C5130 0.950 . S
H5119 C5131 0.950 . S
C5120 H5112 0.950 . S
C5120 C5121 1.386 . S
C5120 C5122 1.391 . S
C5121 C5120 1.386 . S
C5121 C5125 1.393 . S
C5122 H5114 0.950 . S
C5122 C5120 1.391 . S
C5122 C5123 1.400 . S
C5123 C5122 1.400 . S
C5123 C5124 1.398 . S
C5123 C5129 1.491 . S
C5124 H5115 0.950 . S
C5124 C5123 1.398 . S
C5124 C5125 1.391 . S
C5125 H5113 0.950 . S
C5125 C5121 1.393 . S
C5125 C5124 1.391 . S
C5126 H5116 0.950 . S
C5126 C5127 1.386 . S
C5126 C5128 1.391 . S
C5127 C5126 1.386 . S
C5127 C5131 1.393 . S
C5128 H5117 0.950 . S
C5128 C5126 1.391 . S
C5128 C5129 1.400 . S
C5129 C5123 1.491 . S
C5129 C5128 1.400 . S
C5129 C5130 1.398 . S
C5130 H5118 0.950 . S
C5130 C5129 1.398 . S
C5130 C5131 1.391 . S
C5131 H5119 0.950 . S
C5131 C5127 1.393 . S
C5131 C5130 1.391 . S
H5132 C5140 0.950 . S
H5133 C5145 0.950 . S
H5134 C5142 0.950 . S
H5135 C5144 0.950 . S
H5136 C5146 0.950 . S
H5137 C5148 0.950 . S
H5138 C5150 0.950 . S
H5139 C5151 0.950 . S
C5140 H5132 0.950 . S
C5140 C5141 1.386 . S
C5140 C5142 1.391 . S
C5141 C5140 1.386 . S
C5141 C5145 1.393 . S
C5142 H5134 0.950 . S
C5142 C5140 1.391 . S
C5142 C5143 1.400 . S
C5143 C5142 1.400 . S
C5143 C5144 1.398 . S
C5143 C5149 1.491 . S
C5144 H5135 0.950 . S
C5144 C5143 1.398 . S
C5144 C5145 1.391 . S
C5145 H5133 0.950 . S
C5145 C5141 1.393 . S
C5145 C5144 1.391 . S
C5146 H5136 0.950 . S
C5146 C5147 1.386 . S
C5146 C5148 1.391 . S
C5147 C5146 1.386 . S
C5147 C5151 1.393 . S
C5148 H5137 0.950 . S
C5148 C5146 1.391 . S
C5148 C5149 1.400 . S
C5149 C5143 1.491 . S
C5149 C5148 1.400 . S
C5149 C5150 1.398 . S
C5150 H5138 0.950 . S
C5150 C5149 1.398 . S
C5150 C5151 1.391 . S
C5151 H5139 0.950 . S
C5151 C5147 1.393 . S
C5151 C5150 1.391 . S
H5152 C5160 0.950 . S
H5153 C5165 0.950 . S
H5154 C5162 0.950 . S
H5155 C5164 0.950 . S
H5156 C5166 0.950 . S
H5157 C5168 0.950 . S
H5158 C5170 0.950 . S
H5159 C5171 0.950 . S
C5160 H5152 0.950 . S
C5160 C5161 1.386 . S
C5160 C5162 1.391 . S
C5161 C5160 1.386 . S
C5161 C5165 1.393 . S
C5162 H5154 0.950 . S
C5162 C5160 1.391 . S
C5162 C5163 1.400 . S
C5163 C5162 1.400 . S
C5163 C5164 1.398 . S
C5163 C5169 1.491 . S
C5164 H5155 0.950 . S
C5164 C5163 1.398 . S
C5164 C5165 1.391 . S
C5165 H5153 0.950 . S
C5165 C5161 1.393 . S
C5165 C5164 1.391 . S
C5166 H5156 0.950 . S
C5166 C5167 1.386 . S
C5166 C5168 1.391 . S
C5167 C5166 1.386 . S
C5167 C5171 1.393 . S
C5168 H5157 0.950 . S
C5168 C5166 1.391 . S
C5168 C5169 1.400 . S
C5169 C5163 1.491 . S
C5169 C5168 1.400 . S
C5169 C5170 1.398 . S
C5170 H5158 0.950 . S
C5170 C5169 1.398 . S
C5170 C5171 1.391 . S
C5171 H5159 0.950 . S
C5171 C5167 1.393 . S
C5171 C5170 1.391 . S
H5172 C5180 0.950 . S
H5173 C5185 0.950 . S
H5174 C5182 0.950 . S
H5175 C5184 0.950 . S
H5176 C5186 0.950 . S
H5177 C5188 0.950 . S
H5178 C5190 0.950 . S
H5179 C5191 0.950 . S
C5180 H5172 0.950 . S
C5180 C5181 1.386 . S
C5180 C5182 1.391 . S
C5181 C5180 1.386 . S
C5181 C5185 1.393 . S
C5182 H5174 0.950 . S
C5182 C5180 1.391 . S
C5182 C5183 1.400 . S
C5183 C5182 1.400 . S
C5183 C5184 1.398 . S
C5183 C5189 1.491 . S
C5184 H5175 0.950 . S
C5184 C5183 1.398 . S
C5184 C5185 1.391 . S
C5185 H5173 0.950 . S
C5185 C5181 1.393 . S
C5185 C5184 1.391 . S
C5186 H5176 0.950 . S
C5186 C5187 1.386 . S
C5186 C5188 1.391 . S
C5187 C5186 1.386 . S
C5187 C5191 1.393 . S
C5188 H5177 0.950 . S
C5188 C5186 1.391 . S
C5188 C5189 1.400 . S
C5189 C5183 1.491 . S
C5189 C5188 1.400 . S
C5189 C5190 1.398 . S
C5190 H5178 0.950 . S
C5190 C5189 1.398 . S
C5190 C5191 1.391 . S
C5191 H5179 0.950 . S
C5191 C5187 1.393 . S
C5191 C5190 1.391 . S
H5192 C5200 0.950 . S
H5193 C5205 0.950 . S
H5194 C5202 0.950 . S
H5195 C5204 0.950 . S
H5196 C5206 0.950 . S
H5197 C5208 0.950 . S
H5198 C5210 0.950 . S
H5199 C5211 0.950 . S
C5200 H5192 0.950 . S
C5200 C5201 1.386 . S
C5200 C5202 1.391 . S
C5201 C5200 1.386 . S
C5201 C5205 1.393 . S
C5202 H5194 0.950 . S
C5202 C5200 1.391 . S
C5202 C5203 1.400 . S
C5203 C5202 1.400 . S
C5203 C5204 1.398 . S
C5203 C5209 1.491 . S
C5204 H5195 0.950 . S
C5204 C5203 1.398 . S
C5204 C5205 1.391 . S
C5205 H5193 0.950 . S
C5205 C5201 1.393 . S
C5205 C5204 1.391 . S
C5206 H5196 0.950 . S
C5206 C5207 1.386 . S
C5206 C5208 1.391 . S
C5207 C5206 1.386 . S
C5207 C5211 1.393 . S
C5208 H5197 0.950 . S
C5208 C5206 1.391 . S
C5208 C5209 1.400 . S
C5209 C5203 1.491 . S
C5209 C5208 1.400 . S
C5209 C5210 1.398 . S
C5210 H5198 0.950 . S
C5210 C5209 1.398 . S
C5210 C5211 1.391 . S
C5211 H5199 0.950 . S
C5211 C5207 1.393 . S
C5211 C5210 1.391 . S
H5212 C5220 0.950 . S
H5213 C5225 0.950 . S
H5214 C5222 0.950 . S
H5215 C5224 0.950 . S
H5216 C5226 0.950 . S
H5217 C5228 0.950 . S
H5218 C5230 0.950 . S
H5219 C5231 0.950 . S
C5220 H5212 0.950 . S
C5220 C5221 1.386 . S
C5220 C5222 1.391 . S
C5221 C5220 1.386 . S
C5221 C5225 1.393 . S
C5222 H5214 0.950 . S
C5222 C5220 1.391 . S
C5222 C5223 1.400 . S
C5223 C5222 1.400 . S
C5223 C5224 1.398 . S
C5223 C5229 1.491 . S
C5224 H5215 0.950 . S
C5224 C5223 1.398 . S
C5224 C5225 1.391 . S
C5225 H5213 0.950 . S
C5225 C5221 1.393 . S
C5225 C5224 1.391 . S
C5226 H5216 0.950 . S
C5226 C5227 1.386 . S
C5226 C5228 1.391 . S
C5227 C5226 1.386 . S
C5227 C5231 1.393 . S
C5228 H5217 0.950 . S
C5228 C5226 1.391 . S
C5228 C5229 1.400 . S
C5229 C5223 1.491 . S
C5229 C5228 1.400 . S
C5229 C5230 1.398 . S
C5230 H5218 0.950 . S
C5230 C5229 1.398 . S
C5230 C5231 1.391 . S
C5231 H5219 0.950 . S
C5231 C5227 1.393 . S
C5231 C5230 1.391 . S
H5232 C5240 0.950 . S
H5233 C5245 0.950 . S
H5234 C5242 0.950 . S
H5235 C5244 0.950 . S
H5236 C5246 0.950 . S
H5237 C5248 0.950 . S
H5238 C5250 0.950 . S
H5239 C5251 0.950 . S
C5240 H5232 0.950 . S
C5240 C5241 1.386 . S
C5240 C5242 1.391 . S
C5241 C5240 1.386 . S
C5241 C5245 1.393 . S
C5242 H5234 0.950 . S
C5242 C5240 1.391 . S
C5242 C5243 1.400 . S
C5243 C5242 1.400 . S
C5243 C5244 1.398 . S
C5243 C5249 1.491 . S
C5244 H5235 0.950 . S
C5244 C5243 1.398 . S
C5244 C5245 1.391 . S
C5245 H5233 0.950 . S
C5245 C5241 1.393 . S
C5245 C5244 1.391 . S
C5246 H5236 0.950 . S
C5246 C5247 1.386 . S
C5246 C5248 1.391 . S
C5247 C5246 1.386 . S
C5247 C5251 1.393 . S
C5248 H5237 0.950 . S
C5248 C5246 1.391 . S
C5248 C5249 1.400 . S
C5249 C5243 1.491 . S
C5249 C5248 1.400 . S
C5249 C5250 1.398 . S
C5250 H5238 0.950 . S
C5250 C5249 1.398 . S
C5250 C5251 1.391 . S
C5251 H5239 0.950 . S
C5251 C5247 1.393 . S
C5251 C5250 1.391 . S
H5252 C5260 0.950 . S
H5253 C5265 0.950 . S
H5254 C5262 0.950 . S
H5255 C5264 0.950 . S
H5256 C5266 0.950 . S
H5257 C5268 0.950 . S
H5258 C5270 0.950 . S
H5259 C5271 0.950 . S
C5260 H5252 0.950 . S
C5260 C5261 1.386 . S
C5260 C5262 1.391 . S
C5261 C5260 1.386 . S
C5261 C5265 1.393 . S
C5262 H5254 0.950 . S
C5262 C5260 1.391 . S
C5262 C5263 1.400 . S
C5263 C5262 1.400 . S
C5263 C5264 1.398 . S
C5263 C5269 1.491 . S
C5264 H5255 0.950 . S
C5264 C5263 1.398 . S
C5264 C5265 1.391 . S
C5265 H5253 0.950 . S
C5265 C5261 1.393 . S
C5265 C5264 1.391 . S
C5266 H5256 0.950 . S
C5266 C5267 1.386 . S
C5266 C5268 1.391 . S
C5267 C5266 1.386 . S
C5267 C5271 1.393 . S
C5268 H5257 0.950 . S
C5268 C5266 1.391 . S
C5268 C5269 1.400 . S
C5269 C5263 1.491 . S
C5269 C5268 1.400 . S
C5269 C5270 1.398 . S
C5270 H5258 0.950 . S
C5270 C5269 1.398 . S
C5270 C5271 1.391 . S
C5271 H5259 0.950 . S
C5271 C5267 1.393 . S
C5271 C5270 1.391 . S
H5272 C5280 0.950 . S
H5273 C5285 0.950 . S
H5274 C5282 0.950 . S
H5275 C5284 0.950 . S
H5276 C5286 0.950 . S
H5277 C5288 0.950 . S
H5278 C5290 0.950 . S
H5279 C5291 0.950 . S
C5280 H5272 0.950 . S
C5280 C5281 1.386 . S
C5280 C5282 1.391 . S
C5281 C5280 1.386 . S
C5281 C5285 1.393 . S
C5282 H5274 0.950 . S
C5282 C5280 1.391 . S
C5282 C5283 1.400 . S
C5283 C5282 1.400 . S
C5283 C5284 1.398 . S
C5283 C5289 1.491 . S
C5284 H5275 0.950 . S
C5284 C5283 1.398 . S
C5284 C5285 1.391 . S
C5285 H5273 0.950 . S
C5285 C5281 1.393 . S
C5285 C5284 1.391 . S
C5286 H5276 0.950 . S
C5286 C5287 1.386 . S
C5286 C5288 1.391 . S
C5287 C5286 1.386 . S
C5287 C5291 1.393 . S
C5288 H5277 0.950 . S
C5288 C5286 1.391 . S
C5288 C5289 1.400 . S
C5289 C5283 1.491 . S
C5289 C5288 1.400 . S
C5289 C5290 1.398 . S
C5290 H5278 0.950 . S
C5290 C5289 1.398 . S
C5290 C5291 1.391 . S
C5291 H5279 0.950 . S
C5291 C5287 1.393 . S
C5291 C5290 1.391 . S
H5292 C5300 0.950 . S
H5293 C5305 0.950 . S
H5294 C5302 0.950 . S
H5295 C5304 0.950 . S
H5296 C5306 0.950 . S
H5297 C5308 0.950 . S
H5298 C5310 0.950 . S
H5299 C5311 0.950 . S
C5300 H5292 0.950 . S
C5300 C5301 1.386 . S
C5300 C5302 1.391 . S
C5301 C5300 1.386 . S
C5301 C5305 1.393 . S
C5302 H5294 0.950 . S
C5302 C5300 1.391 . S
C5302 C5303 1.400 . S
C5303 C5302 1.400 . S
C5303 C5304 1.398 . S
C5303 C5309 1.491 . S
C5304 H5295 0.950 . S
C5304 C5303 1.398 . S
C5304 C5305 1.391 . S
C5305 H5293 0.950 . S
C5305 C5301 1.393 . S
C5305 C5304 1.391 . S
C5306 H5296 0.950 . S
C5306 C5307 1.386 . S
C5306 C5308 1.391 . S
C5307 C5306 1.386 . S
C5307 C5311 1.393 . S
C5308 H5297 0.950 . S
C5308 C5306 1.391 . S
C5308 C5309 1.400 . S
C5309 C5303 1.491 . S
C5309 C5308 1.400 . S
C5309 C5310 1.398 . S
C5310 H5298 0.950 . S
C5310 C5309 1.398 . S
C5310 C5311 1.391 . S
C5311 H5299 0.950 . S
C5311 C5307 1.393 . S
C5311 C5310 1.391 . S
H5312 C5320 0.950 . S
H5313 C5325 0.950 . S
H5314 C5322 0.950 . S
H5315 C5324 0.950 . S
H5316 C5326 0.950 . S
H5317 C5328 0.950 . S
H5318 C5330 0.950 . S
H5319 C5331 0.950 . S
C5320 H5312 0.950 . S
C5320 C5321 1.386 . S
C5320 C5322 1.391 . S
C5321 C5320 1.386 . S
C5321 C5325 1.393 . S
C5322 H5314 0.950 . S
C5322 C5320 1.391 . S
C5322 C5323 1.400 . S
C5323 C5322 1.400 . S
C5323 C5324 1.398 . S
C5323 C5329 1.491 . S
C5324 H5315 0.950 . S
C5324 C5323 1.398 . S
C5324 C5325 1.391 . S
C5325 H5313 0.950 . S
C5325 C5321 1.393 . S
C5325 C5324 1.391 . S
C5326 H5316 0.950 . S
C5326 C5327 1.386 . S
C5326 C5328 1.391 . S
C5327 C5326 1.386 . S
C5327 C5331 1.393 . S
C5328 H5317 0.950 . S
C5328 C5326 1.391 . S
C5328 C5329 1.400 . S
C5329 C5323 1.491 . S
C5329 C5328 1.400 . S
C5329 C5330 1.398 . S
C5330 H5318 0.950 . S
C5330 C5329 1.398 . S
C5330 C5331 1.391 . S
C5331 H5319 0.950 . S
C5331 C5327 1.393 . S
C5331 C5330 1.391 . S
H5332 C5340 0.950 . S
H5333 C5345 0.950 . S
H5334 C5342 0.950 . S
H5335 C5344 0.950 . S
H5336 C5346 0.950 . S
H5337 C5348 0.950 . S
H5338 C5350 0.950 . S
H5339 C5351 0.950 . S
C5340 H5332 0.950 . S
C5340 C5341 1.386 . S
C5340 C5342 1.391 . S
C5341 C5340 1.386 . S
C5341 C5345 1.393 . S
C5342 H5334 0.950 . S
C5342 C5340 1.391 . S
C5342 C5343 1.400 . S
C5343 C5342 1.400 . S
C5343 C5344 1.398 . S
C5343 C5349 1.491 . S
C5344 H5335 0.950 . S
C5344 C5343 1.398 . S
C5344 C5345 1.391 . S
C5345 H5333 0.950 . S
C5345 C5341 1.393 . S
C5345 C5344 1.391 . S
C5346 H5336 0.950 . S
C5346 C5347 1.386 . S
C5346 C5348 1.391 . S
C5347 C5346 1.386 . S
C5347 C5351 1.393 . S
C5348 H5337 0.950 . S
C5348 C5346 1.391 . S
C5348 C5349 1.400 . S
C5349 C5343 1.491 . S
C5349 C5348 1.400 . S
C5349 C5350 1.398 . S
C5350 H5338 0.950 . S
C5350 C5349 1.398 . S
C5350 C5351 1.391 . S
C5351 H5339 0.950 . S
C5351 C5347 1.393 . S
C5351 C5350 1.391 . S
H5352 C5360 0.950 . S
H5353 C5365 0.950 . S
H5354 C5362 0.950 . S
H5355 C5364 0.950 . S
H5356 C5366 0.950 . S
H5357 C5368 0.950 . S
H5358 C5370 0.950 . S
H5359 C5371 0.950 . S
C5360 H5352 0.950 . S
C5360 C5361 1.386 . S
C5360 C5362 1.391 . S
C5361 C5360 1.386 . S
C5361 C5365 1.393 . S
C5362 H5354 0.950 . S
C5362 C5360 1.391 . S
C5362 C5363 1.400 . S
C5363 C5362 1.400 . S
C5363 C5364 1.398 . S
C5363 C5369 1.491 . S
C5364 H5355 0.950 . S
C5364 C5363 1.398 . S
C5364 C5365 1.391 . S
C5365 H5353 0.950 . S
C5365 C5361 1.393 . S
C5365 C5364 1.391 . S
C5366 H5356 0.950 . S
C5366 C5367 1.386 . S
C5366 C5368 1.391 . S
C5367 C5366 1.386 . S
C5367 C5371 1.393 . S
C5368 H5357 0.950 . S
C5368 C5366 1.391 . S
C5368 C5369 1.400 . S
C5369 C5363 1.491 . S
C5369 C5368 1.400 . S
C5369 C5370 1.398 . S
C5370 H5358 0.950 . S
C5370 C5369 1.398 . S
C5370 C5371 1.391 . S
C5371 H5359 0.950 . S
C5371 C5367 1.393 . S
C5371 C5370 1.391 . S
H5372 C5380 0.950 . S
H5373 C5385 0.950 . S
H5374 C5382 0.950 . S
H5375 C5384 0.950 . S
H5376 C5386 0.950 . S
H5377 C5388 0.950 . S
H5378 C5390 0.950 . S
H5379 C5391 0.950 . S
C5380 H5372 0.950 . S
C5380 C5381 1.386 . S
C5380 C5382 1.391 . S
C5381 C5380 1.386 . S
C5381 C5385 1.393 . S
C5382 H5374 0.950 . S
C5382 C5380 1.391 . S
C5382 C5383 1.400 . S
C5383 C5382 1.400 . S
C5383 C5384 1.398 . S
C5383 C5389 1.491 . S
C5384 H5375 0.950 . S
C5384 C5383 1.398 . S
C5384 C5385 1.391 . S
C5385 H5373 0.950 . S
C5385 C5381 1.393 . S
C5385 C5384 1.391 . S
C5386 H5376 0.950 . S
C5386 C5387 1.386 . S
C5386 C5388 1.391 . S
C5387 C5386 1.386 . S
C5387 C5391 1.393 . S
C5388 H5377 0.950 . S
C5388 C5386 1.391 . S
C5388 C5389 1.400 . S
C5389 C5383 1.491 . S
C5389 C5388 1.400 . S
C5389 C5390 1.398 . S
C5390 H5378 0.950 . S
C5390 C5389 1.398 . S
C5390 C5391 1.391 . S
C5391 H5379 0.950 . S
C5391 C5387 1.393 . S
C5391 C5390 1.391 . S
H5392 C5400 0.950 . S
H5393 C5405 0.950 . S
H5394 C5402 0.950 . S
H5395 C5404 0.950 . S
H5396 C5406 0.950 . S
H5397 C5408 0.950 . S
H5398 C5410 0.950 . S
H5399 C5411 0.950 . S
C5400 H5392 0.950 . S
C5400 C5401 1.386 . S
C5400 C5402 1.391 . S
C5401 C5400 1.386 . S
C5401 C5405 1.393 . S
C5402 H5394 0.950 . S
C5402 C5400 1.391 . S
C5402 C5403 1.400 . S
C5403 C5402 1.400 . S
C5403 C5404 1.398 . S
C5403 C5409 1.491 . S
C5404 H5395 0.950 . S
C5404 C5403 1.398 . S
C5404 C5405 1.391 . S
C5405 H5393 0.950 . S
C5405 C5401 1.393 . S
C5405 C5404 1.391 . S
C5406 H5396 0.950 . S
C5406 C5407 1.386 . S
C5406 C5408 1.391 . S
C5407 C5406 1.386 . S
C5407 C5411 1.393 . S
C5408 H5397 0.950 . S
C5408 C5406 1.391 . S
C5408 C5409 1.400 . S
C5409 C5403 1.491 . S
C5409 C5408 1.400 . S
C5409 C5410 1.398 . S
C5410 H5398 0.950 . S
C5410 C5409 1.398 . S
C5410 C5411 1.391 . S
C5411 H5399 0.950 . S
C5411 C5407 1.393 . S
C5411 C5410 1.391 . S
H5412 C5420 0.950 . S
H5413 C5425 0.950 . S
H5414 C5422 0.950 . S
H5415 C5424 0.950 . S
H5416 C5426 0.950 . S
H5417 C5428 0.950 . S
H5418 C5430 0.950 . S
H5419 C5431 0.950 . S
C5420 H5412 0.950 . S
C5420 C5421 1.386 . S
C5420 C5422 1.391 . S
C5421 C5420 1.386 . S
C5421 C5425 1.393 . S
C5422 H5414 0.950 . S
C5422 C5420 1.391 . S
C5422 C5423 1.400 . S
C5423 C5422 1.400 . S
C5423 C5424 1.398 . S
C5423 C5429 1.491 . S
C5424 H5415 0.950 . S
C5424 C5423 1.398 . S
C5424 C5425 1.391 . S
C5425 H5413 0.950 . S
C5425 C5421 1.393 . S
C5425 C5424 1.391 . S
C5426 H5416 0.950 . S
C5426 C5427 1.386 . S
C5426 C5428 1.391 . S
C5427 C5426 1.386 . S
C5427 C5431 1.393 . S
C5428 H5417 0.950 . S
C5428 C5426 1.391 . S
C5428 C5429 1.400 . S
C5429 C5423 1.491 . S
C5429 C5428 1.400 . S
C5429 C5430 1.398 . S
C5430 H5418 0.950 . S
C5430 C5429 1.398 . S
C5430 C5431 1.391 . S
C5431 H5419 0.950 . S
C5431 C5427 1.393 . S
C5431 C5430 1.391 . S
H5432 C5440 0.950 . S
H5433 C5445 0.950 . S
H5434 C5442 0.950 . S
H5435 C5444 0.950 . S
H5436 C5446 0.950 . S
H5437 C5448 0.950 . S
H5438 C5450 0.950 . S
H5439 C5451 0.950 . S
C5440 H5432 0.950 . S
C5440 C5441 1.386 . S
C5440 C5442 1.391 . S
C5441 C5440 1.386 . S
C5441 C5445 1.393 . S
C5442 H5434 0.950 . S
C5442 C5440 1.391 . S
C5442 C5443 1.400 . S
C5443 C5442 1.400 . S
C5443 C5444 1.398 . S
C5443 C5449 1.491 . S
C5444 H5435 0.950 . S
C5444 C5443 1.398 . S
C5444 C5445 1.391 . S
C5445 H5433 0.950 . S
C5445 C5441 1.393 . S
C5445 C5444 1.391 . S
C5446 H5436 0.950 . S
C5446 C5447 1.386 . S
C5446 C5448 1.391 . S
C5447 C5446 1.386 . S
C5447 C5451 1.393 . S
C5448 H5437 0.950 . S
C5448 C5446 1.391 . S
C5448 C5449 1.400 . S
C5449 C5443 1.491 . S
C5449 C5448 1.400 . S
C5449 C5450 1.398 . S
C5450 H5438 0.950 . S
C5450 C5449 1.398 . S
C5450 C5451 1.391 . S
C5451 H5439 0.950 . S
C5451 C5447 1.393 . S
C5451 C5450 1.391 . S
H5452 C5460 0.950 . S
H5453 C5465 0.950 . S
H5454 C5462 0.950 . S
H5455 C5464 0.950 . S
H5456 C5466 0.950 . S
H5457 C5468 0.950 . S
H5458 C5470 0.950 . S
H5459 C5471 0.950 . S
C5460 H5452 0.950 . S
C5460 C5461 1.386 . S
C5460 C5462 1.391 . S
C5461 C5460 1.386 . S
C5461 C5465 1.393 . S
C5462 H5454 0.950 . S
C5462 C5460 1.391 . S
C5462 C5463 1.400 . S
C5463 C5462 1.400 . S
C5463 C5464 1.398 . S
C5463 C5469 1.491 . S
C5464 H5455 0.950 . S
C5464 C5463 1.398 . S
C5464 C5465 1.391 . S
C5465 H5453 0.950 . S
C5465 C5461 1.393 . S
C5465 C5464 1.391 . S
C5466 H5456 0.950 . S
C5466 C5467 1.386 . S
C5466 C5468 1.391 . S
C5467 C5466 1.386 . S
C5467 C5471 1.393 . S
C5468 H5457 0.950 . S
C5468 C5466 1.391 . S
C5468 C5469 1.400 . S
C5469 C5463 1.491 . S
C5469 C5468 1.400 . S
C5469 C5470 1.398 . S
C5470 H5458 0.950 . S
C5470 C5469 1.398 . S
C5470 C5471 1.391 . S
C5471 H5459 0.950 . S
C5471 C5467 1.393 . S
C5471 C5470 1.391 . S
H5472 C5480 0.950 . S
H5473 C5485 0.950 . S
H5474 C5482 0.950 . S
H5475 C5484 0.950 . S
H5476 C5486 0.950 . S
H5477 C5488 0.950 . S
H5478 C5490 0.950 . S
H5479 C5491 0.950 . S
C5480 H5472 0.950 . S
C5480 C5481 1.386 . S
C5480 C5482 1.391 . S
C5481 C5480 1.386 . S
C5481 C5485 1.393 . S
C5482 H5474 0.950 . S
C5482 C5480 1.391 . S
C5482 C5483 1.400 . S
C5483 C5482 1.400 . S
C5483 C5484 1.398 . S
C5483 C5489 1.491 . S
C5484 H5475 0.950 . S
C5484 C5483 1.398 . S
C5484 C5485 1.391 . S
C5485 H5473 0.950 . S
C5485 C5481 1.393 . S
C5485 C5484 1.391 . S
C5486 H5476 0.950 . S
C5486 C5487 1.386 . S
C5486 C5488 1.391 . S
C5487 C5486 1.386 . S
C5487 C5491 1.393 . S
C5488 H5477 0.950 . S
C5488 C5486 1.391 . S
C5488 C5489 1.400 . S
C5489 C5483 1.491 . S
C5489 C5488 1.400 . S
C5489 C5490 1.398 . S
C5490 H5478 0.950 . S
C5490 C5489 1.398 . S
C5490 C5491 1.391 . S
C5491 H5479 0.950 . S
C5491 C5487 1.393 . S
C5491 C5490 1.391 . S
H5492 C5500 0.950 . S
H5493 C5505 0.950 . S
H5494 C5502 0.950 . S
H5495 C5504 0.950 . S
H5496 C5506 0.950 . S
H5497 C5508 0.950 . S
H5498 C5510 0.950 . S
H5499 C5511 0.950 . S
C5500 H5492 0.950 . S
C5500 C5501 1.386 . S
C5500 C5502 1.391 . S
C5501 C5500 1.386 . S
C5501 C5505 1.393 . S
C5502 H5494 0.950 . S
C5502 C5500 1.391 . S
C5502 C5503 1.400 . S
C5503 C5502 1.400 . S
C5503 C5504 1.398 . S
C5503 C5509 1.491 . S
C5504 H5495 0.950 . S
C5504 C5503 1.398 . S
C5504 C5505 1.391 . S
C5505 H5493 0.950 . S
C5505 C5501 1.393 . S
C5505 C5504 1.391 . S
C5506 H5496 0.950 . S
C5506 C5507 1.386 . S
C5506 C5508 1.391 . S
C5507 C5506 1.386 . S
C5507 C5511 1.393 . S
C5508 H5497 0.950 . S
C5508 C5506 1.391 . S
C5508 C5509 1.400 . S
C5509 C5503 1.491 . S
C5509 C5508 1.400 . S
C5509 C5510 1.398 . S
C5510 H5498 0.950 . S
C5510 C5509 1.398 . S
C5510 C5511 1.391 . S
C5511 H5499 0.950 . S
C5511 C5507 1.393 . S
C5511 C5510 1.391 . S
H5512 C5520 0.950 . S
H5513 C5525 0.950 . S
H5514 C5522 0.950 . S
H5515 C5524 0.950 . S
H5516 C5526 0.950 . S
H5517 C5528 0.950 . S
H5518 C5530 0.950 . S
H5519 C5531 0.950 . S
C5520 H5512 0.950 . S
C5520 C5521 1.386 . S
C5520 C5522 1.391 . S
C5521 C5520 1.386 . S
C5521 C5525 1.393 . S
C5522 H5514 0.950 . S
C5522 C5520 1.391 . S
C5522 C5523 1.400 . S
C5523 C5522 1.400 . S
C5523 C5524 1.398 . S
C5523 C5529 1.491 . S
C5524 H5515 0.950 . S
C5524 C5523 1.398 . S
C5524 C5525 1.391 . S
C5525 H5513 0.950 . S
C5525 C5521 1.393 . S
C5525 C5524 1.391 . S
C5526 H5516 0.950 . S
C5526 C5527 1.386 . S
C5526 C5528 1.391 . S
C5527 C5526 1.386 . S
C5527 C5531 1.393 . S
C5528 H5517 0.950 . S
C5528 C5526 1.391 . S
C5528 C5529 1.400 . S
C5529 C5523 1.491 . S
C5529 C5528 1.400 . S
C5529 C5530 1.398 . S
C5530 H5518 0.950 . S
C5530 C5529 1.398 . S
C5530 C5531 1.391 . S
C5531 H5519 0.950 . S
C5531 C5527 1.393 . S
C5531 C5530 1.391 . S
H5532 C5540 0.950 . S
H5533 C5545 0.950 . S
H5534 C5542 0.950 . S
H5535 C5544 0.950 . S
H5536 C5546 0.950 . S
H5537 C5548 0.950 . S
H5538 C5550 0.950 . S
H5539 C5551 0.950 . S
C5540 H5532 0.950 . S
C5540 C5541 1.386 . S
C5540 C5542 1.391 . S
C5541 C5540 1.386 . S
C5541 C5545 1.393 . S
C5542 H5534 0.950 . S
C5542 C5540 1.391 . S
C5542 C5543 1.400 . S
C5543 C5542 1.400 . S
C5543 C5544 1.398 . S
C5543 C5549 1.491 . S
C5544 H5535 0.950 . S
C5544 C5543 1.398 . S
C5544 C5545 1.391 . S
C5545 H5533 0.950 . S
C5545 C5541 1.393 . S
C5545 C5544 1.391 . S
C5546 H5536 0.950 . S
C5546 C5547 1.386 . S
C5546 C5548 1.391 . S
C5547 C5546 1.386 . S
C5547 C5551 1.393 . S
C5548 H5537 0.950 . S
C5548 C5546 1.391 . S
C5548 C5549 1.400 . S
C5549 C5543 1.491 . S
C5549 C5548 1.400 . S
C5549 C5550 1.398 . S
C5550 H5538 0.950 . S
C5550 C5549 1.398 . S
C5550 C5551 1.391 . S
C5551 H5539 0.950 . S
C5551 C5547 1.393 . S
C5551 C5550 1.391 . S
H5552 C5560 0.950 . S
H5553 C5565 0.950 . S
H5554 C5562 0.950 . S
H5555 C5564 0.950 . S
H5556 C5566 0.950 . S
H5557 C5568 0.950 . S
H5558 C5570 0.950 . S
H5559 C5571 0.950 . S
C5560 H5552 0.950 . S
C5560 C5561 1.386 . S
C5560 C5562 1.391 . S
C5561 C5560 1.386 . S
C5561 C5565 1.393 . S
C5562 H5554 0.950 . S
C5562 C5560 1.391 . S
C5562 C5563 1.400 . S
C5563 C5562 1.400 . S
C5563 C5564 1.398 . S
C5563 C5569 1.491 . S
C5564 H5555 0.950 . S
C5564 C5563 1.398 . S
C5564 C5565 1.391 . S
C5565 H5553 0.950 . S
C5565 C5561 1.393 . S
C5565 C5564 1.391 . S
C5566 H5556 0.950 . S
C5566 C5567 1.386 . S
C5566 C5568 1.391 . S
C5567 C5566 1.386 . S
C5567 C5571 1.393 . S
C5568 H5557 0.950 . S
C5568 C5566 1.391 . S
C5568 C5569 1.400 . S
C5569 C5563 1.491 . S
C5569 C5568 1.400 . S
C5569 C5570 1.398 . S
C5570 H5558 0.950 . S
C5570 C5569 1.398 . S
C5570 C5571 1.391 . S
C5571 H5559 0.950 . S
C5571 C5567 1.393 . S
C5571 C5570 1.391 . S
H5572 C5580 0.950 . S
H5573 C5585 0.950 . S
H5574 C5582 0.950 . S
H5575 C5584 0.950 . S
H5576 C5586 0.950 . S
H5577 C5588 0.950 . S
H5578 C5590 0.950 . S
H5579 C5591 0.950 . S
C5580 H5572 0.950 . S
C5580 C5581 1.386 . S
C5580 C5582 1.391 . S
C5581 C5580 1.386 . S
C5581 C5585 1.393 . S
C5582 H5574 0.950 . S
C5582 C5580 1.391 . S
C5582 C5583 1.400 . S
C5583 C5582 1.400 . S
C5583 C5584 1.398 . S
C5583 C5589 1.491 . S
C5584 H5575 0.950 . S
C5584 C5583 1.398 . S
C5584 C5585 1.391 . S
C5585 H5573 0.950 . S
C5585 C5581 1.393 . S
C5585 C5584 1.391 . S
C5586 H5576 0.950 . S
C5586 C5587 1.386 . S
C5586 C5588 1.391 . S
C5587 C5586 1.386 . S
C5587 C5591 1.393 . S
C5588 H5577 0.950 . S
C5588 C5586 1.391 . S
C5588 C5589 1.400 . S
C5589 C5583 1.491 . S
C5589 C5588 1.400 . S
C5589 C5590 1.398 . S
C5590 H5578 0.950 . S
C5590 C5589 1.398 . S
C5590 C5591 1.391 . S
C5591 H5579 0.950 . S
C5591 C5587 1.393 . S
C5591 C5590 1.391 . S
H5592 C5600 0.950 . S
H5593 C5605 0.950 . S
H5594 C5602 0.950 . S
H5595 C5604 0.950 . S
H5596 C5606 0.950 . S
H5597 C5608 0.950 . S
H5598 C5610 0.950 . S
H5599 C5611 0.950 . S
C5600 H5592 0.950 . S
C5600 C5601 1.386 . S
C5600 C5602 1.391 . S
C5601 C5600 1.386 . S
C5601 C5605 1.393 . S
C5602 H5594 0.950 . S
C5602 C5600 1.391 . S
C5602 C5603 1.400 . S
C5603 C5602 1.400 . S
C5603 C5604 1.398 . S
C5603 C5609 1.491 . S
C5604 H5595 0.950 . S
C5604 C5603 1.398 . S
C5604 C5605 1.391 . S
C5605 H5593 0.950 . S
C5605 C5601 1.393 . S
C5605 C5604 1.391 . S
C5606 H5596 0.950 . S
C5606 C5607 1.386 . S
C5606 C5608 1.391 . S
C5607 C5606 1.386 . S
C5607 C5611 1.393 . S
C5608 H5597 0.950 . S
C5608 C5606 1.391 . S
C5608 C5609 1.400 . S
C5609 C5603 1.491 . S
C5609 C5608 1.400 . S
C5609 C5610 1.398 . S
C5610 H5598 0.950 . S
C5610 C5609 1.398 . S
C5610 C5611 1.391 . S
C5611 H5599 0.950 . S
C5611 C5607 1.393 . S
C5611 C5610 1.391 . S
H5612 C5620 0.950 . S
H5613 C5625 0.950 . S
H5614 C5622 0.950 . S
H5615 C5624 0.950 . S
H5616 C5626 0.950 . S
H5617 C5628 0.950 . S
H5618 C5630 0.950 . S
H5619 C5631 0.950 . S
C5620 H5612 0.950 . S
C5620 C5621 1.386 . S
C5620 C5622 1.391 . S
C5621 C5620 1.386 . S
C5621 C5625 1.393 . S
C5622 H5614 0.950 . S
C5622 C5620 1.391 . S
C5622 C5623 1.400 . S
C5623 C5622 1.400 . S
C5623 C5624 1.398 . S
C5623 C5629 1.491 . S
C5624 H5615 0.950 . S
C5624 C5623 1.398 . S
C5624 C5625 1.391 . S
C5625 H5613 0.950 . S
C5625 C5621 1.393 . S
C5625 C5624 1.391 . S
C5626 H5616 0.950 . S
C5626 C5627 1.386 . S
C5626 C5628 1.391 . S
C5627 C5626 1.386 . S
C5627 C5631 1.393 . S
C5628 H5617 0.950 . S
C5628 C5626 1.391 . S
C5628 C5629 1.400 . S
C5629 C5623 1.491 . S
C5629 C5628 1.400 . S
C5629 C5630 1.398 . S
C5630 H5618 0.950 . S
C5630 C5629 1.398 . S
C5630 C5631 1.391 . S
C5631 H5619 0.950 . S
C5631 C5627 1.393 . S
C5631 C5630 1.391 . S
H5632 C5640 0.950 . S
H5633 C5645 0.950 . S
H5634 C5642 0.950 . S
H5635 C5644 0.950 . S
H5636 C5646 0.950 . S
H5637 C5648 0.950 . S
H5638 C5650 0.950 . S
H5639 C5651 0.950 . S
C5640 H5632 0.950 . S
C5640 C5641 1.386 . S
C5640 C5642 1.391 . S
C5641 C5640 1.386 . S
C5641 C5645 1.393 . S
C5642 H5634 0.950 . S
C5642 C5640 1.391 . S
C5642 C5643 1.400 . S
C5643 C5642 1.400 . S
C5643 C5644 1.398 . S
C5643 C5649 1.491 . S
C5644 H5635 0.950 . S
C5644 C5643 1.398 . S
C5644 C5645 1.391 . S
C5645 H5633 0.950 . S
C5645 C5641 1.393 . S
C5645 C5644 1.391 . S
C5646 H5636 0.950 . S
C5646 C5647 1.386 . S
C5646 C5648 1.391 . S
C5647 C5646 1.386 . S
C5647 C5651 1.393 . S
C5648 H5637 0.950 . S
C5648 C5646 1.391 . S
C5648 C5649 1.400 . S
C5649 C5643 1.491 . S
C5649 C5648 1.400 . S
C5649 C5650 1.398 . S
C5650 H5638 0.950 . S
C5650 C5649 1.398 . S
C5650 C5651 1.391 . S
C5651 H5639 0.950 . S
C5651 C5647 1.393 . S
C5651 C5650 1.391 . S
H5652 C5660 0.950 . S
H5653 C5665 0.950 . S
H5654 C5662 0.950 . S
H5655 C5664 0.950 . S
H5656 C5666 0.950 . S
H5657 C5668 0.950 . S
H5658 C5670 0.950 . S
H5659 C5671 0.950 . S
C5660 H5652 0.950 . S
C5660 C5661 1.386 . S
C5660 C5662 1.391 . S
C5661 C5660 1.386 . S
C5661 C5665 1.393 . S
C5662 H5654 0.950 . S
C5662 C5660 1.391 . S
C5662 C5663 1.400 . S
C5663 C5662 1.400 . S
C5663 C5664 1.398 . S
C5663 C5669 1.491 . S
C5664 H5655 0.950 . S
C5664 C5663 1.398 . S
C5664 C5665 1.391 . S
C5665 H5653 0.950 . S
C5665 C5661 1.393 . S
C5665 C5664 1.391 . S
C5666 H5656 0.950 . S
C5666 C5667 1.386 . S
C5666 C5668 1.391 . S
C5667 C5666 1.386 . S
C5667 C5671 1.393 . S
C5668 H5657 0.950 . S
C5668 C5666 1.391 . S
C5668 C5669 1.400 . S
C5669 C5663 1.491 . S
C5669 C5668 1.400 . S
C5669 C5670 1.398 . S
C5670 H5658 0.950 . S
C5670 C5669 1.398 . S
C5670 C5671 1.391 . S
C5671 H5659 0.950 . S
C5671 C5667 1.393 . S
C5671 C5670 1.391 . S
H5672 C5680 0.950 . S
H5673 C5685 0.950 . S
H5674 C5682 0.950 . S
H5675 C5684 0.950 . S
H5676 C5686 0.950 . S
H5677 C5688 0.950 . S
H5678 C5690 0.950 . S
H5679 C5691 0.950 . S
C5680 H5672 0.950 . S
C5680 C5681 1.386 . S
C5680 C5682 1.391 . S
C5681 C5680 1.386 . S
C5681 C5685 1.393 . S
C5682 H5674 0.950 . S
C5682 C5680 1.391 . S
C5682 C5683 1.400 . S
C5683 C5682 1.400 . S
C5683 C5684 1.398 . S
C5683 C5689 1.491 . S
C5684 H5675 0.950 . S
C5684 C5683 1.398 . S
C5684 C5685 1.391 . S
C5685 H5673 0.950 . S
C5685 C5681 1.393 . S
C5685 C5684 1.391 . S
C5686 H5676 0.950 . S
C5686 C5687 1.386 . S
C5686 C5688 1.391 . S
C5687 C5686 1.386 . S
C5687 C5691 1.393 . S
C5688 H5677 0.950 . S
C5688 C5686 1.391 . S
C5688 C5689 1.400 . S
C5689 C5683 1.491 . S
C5689 C5688 1.400 . S
C5689 C5690 1.398 . S
C5690 H5678 0.950 . S
C5690 C5689 1.398 . S
C5690 C5691 1.391 . S
C5691 H5679 0.950 . S
C5691 C5687 1.393 . S
C5691 C5690 1.391 . S
H5692 C5700 0.950 . S
H5693 C5705 0.950 . S
H5694 C5702 0.950 . S
H5695 C5704 0.950 . S
H5696 C5706 0.950 . S
H5697 C5708 0.950 . S
H5698 C5710 0.950 . S
H5699 C5711 0.950 . S
C5700 H5692 0.950 . S
C5700 C5701 1.386 . S
C5700 C5702 1.391 . S
C5701 C5700 1.386 . S
C5701 C5705 1.393 . S
C5702 H5694 0.950 . S
C5702 C5700 1.391 . S
C5702 C5703 1.400 . S
C5703 C5702 1.400 . S
C5703 C5704 1.398 . S
C5703 C5709 1.491 . S
C5704 H5695 0.950 . S
C5704 C5703 1.398 . S
C5704 C5705 1.391 . S
C5705 H5693 0.950 . S
C5705 C5701 1.393 . S
C5705 C5704 1.391 . S
C5706 H5696 0.950 . S
C5706 C5707 1.386 . S
C5706 C5708 1.391 . S
C5707 C5706 1.386 . S
C5707 C5711 1.393 . S
C5708 H5697 0.950 . S
C5708 C5706 1.391 . S
C5708 C5709 1.400 . S
C5709 C5703 1.491 . S
C5709 C5708 1.400 . S
C5709 C5710 1.398 . S
C5710 H5698 0.950 . S
C5710 C5709 1.398 . S
C5710 C5711 1.391 . S
C5711 H5699 0.950 . S
C5711 C5707 1.393 . S
C5711 C5710 1.391 . S
H5712 C5720 0.950 . S
H5713 C5725 0.950 . S
H5714 C5722 0.950 . S
H5715 C5724 0.950 . S
H5716 C5726 0.950 . S
H5717 C5728 0.950 . S
H5718 C5730 0.950 . S
H5719 C5731 0.950 . S
C5720 H5712 0.950 . S
C5720 C5721 1.386 . S
C5720 C5722 1.391 . S
C5721 C5720 1.386 . S
C5721 C5725 1.393 . S
C5722 H5714 0.950 . S
C5722 C5720 1.391 . S
C5722 C5723 1.400 . S
C5723 C5722 1.400 . S
C5723 C5724 1.398 . S
C5723 C5729 1.491 . S
C5724 H5715 0.950 . S
C5724 C5723 1.398 . S
C5724 C5725 1.391 . S
C5725 H5713 0.950 . S
C5725 C5721 1.393 . S
C5725 C5724 1.391 . S
C5726 H5716 0.950 . S
C5726 C5727 1.386 . S
C5726 C5728 1.391 . S
C5727 C5726 1.386 . S
C5727 C5731 1.393 . S
C5728 H5717 0.950 . S
C5728 C5726 1.391 . S
C5728 C5729 1.400 . S
C5729 C5723 1.491 . S
C5729 C5728 1.400 . S
C5729 C5730 1.398 . S
C5730 H5718 0.950 . S
C5730 C5729 1.398 . S
C5730 C5731 1.391 . S
C5731 H5719 0.950 . S
C5731 C5727 1.393 . S
C5731 C5730 1.391 . S
H5732 C5740 0.950 . S
H5733 C5745 0.950 . S
H5734 C5742 0.950 . S
H5735 C5744 0.950 . S
H5736 C5746 0.950 . S
H5737 C5748 0.950 . S
H5738 C5750 0.950 . S
H5739 C5751 0.950 . S
C5740 H5732 0.950 . S
C5740 C5741 1.386 . S
C5740 C5742 1.391 . S
C5741 C5740 1.386 . S
C5741 C5745 1.393 . S
C5742 H5734 0.950 . S
C5742 C5740 1.391 . S
C5742 C5743 1.400 . S
C5743 C5742 1.400 . S
C5743 C5744 1.398 . S
C5743 C5749 1.491 . S
C5744 H5735 0.950 . S
C5744 C5743 1.398 . S
C5744 C5745 1.391 . S
C5745 H5733 0.950 . S
C5745 C5741 1.393 . S
C5745 C5744 1.391 . S
C5746 H5736 0.950 . S
C5746 C5747 1.386 . S
C5746 C5748 1.391 . S
C5747 C5746 1.386 . S
C5747 C5751 1.393 . S
C5748 H5737 0.950 . S
C5748 C5746 1.391 . S
C5748 C5749 1.400 . S
C5749 C5743 1.491 . S
C5749 C5748 1.400 . S
C5749 C5750 1.398 . S
C5750 H5738 0.950 . S
C5750 C5749 1.398 . S
C5750 C5751 1.391 . S
C5751 H5739 0.950 . S
C5751 C5747 1.393 . S
C5751 C5750 1.391 . S
H5752 C5760 0.950 . S
H5753 C5765 0.950 . S
H5754 C5762 0.950 . S
H5755 C5764 0.950 . S
H5756 C5766 0.950 . S
H5757 C5768 0.950 . S
H5758 C5770 0.950 . S
H5759 C5771 0.950 . S
C5760 H5752 0.950 . S
C5760 C5761 1.386 . S
C5760 C5762 1.391 . S
C5761 C5760 1.386 . S
C5761 C5765 1.393 . S
C5762 H5754 0.950 . S
C5762 C5760 1.391 . S
C5762 C5763 1.400 . S
C5763 C5762 1.400 . S
C5763 C5764 1.398 . S
C5763 C5769 1.491 . S
C5764 H5755 0.950 . S
C5764 C5763 1.398 . S
C5764 C5765 1.391 . S
C5765 H5753 0.950 . S
C5765 C5761 1.393 . S
C5765 C5764 1.391 . S
C5766 H5756 0.950 . S
C5766 C5767 1.386 . S
C5766 C5768 1.391 . S
C5767 C5766 1.386 . S
C5767 C5771 1.393 . S
C5768 H5757 0.950 . S
C5768 C5766 1.391 . S
C5768 C5769 1.400 . S
C5769 C5763 1.491 . S
C5769 C5768 1.400 . S
C5769 C5770 1.398 . S
C5770 H5758 0.950 . S
C5770 C5769 1.398 . S
C5770 C5771 1.391 . S
C5771 H5759 0.950 . S
C5771 C5767 1.393 . S
C5771 C5770 1.391 . S
H5772 C5780 0.950 . S
H5773 C5785 0.950 . S
H5774 C5782 0.950 . S
H5775 C5784 0.950 . S
H5776 C5786 0.950 . S
H5777 C5788 0.950 . S
H5778 C5790 0.950 . S
H5779 C5791 0.950 . S
C5780 H5772 0.950 . S
C5780 C5781 1.386 . S
C5780 C5782 1.391 . S
C5781 C5780 1.386 . S
C5781 C5785 1.393 . S
C5782 H5774 0.950 . S
C5782 C5780 1.391 . S
C5782 C5783 1.400 . S
C5783 C5782 1.400 . S
C5783 C5784 1.398 . S
C5783 C5789 1.491 . S
C5784 H5775 0.950 . S
C5784 C5783 1.398 . S
C5784 C5785 1.391 . S
C5785 H5773 0.950 . S
C5785 C5781 1.393 . S
C5785 C5784 1.391 . S
C5786 H5776 0.950 . S
C5786 C5787 1.386 . S
C5786 C5788 1.391 . S
C5787 C5786 1.386 . S
C5787 C5791 1.393 . S
C5788 H5777 0.950 . S
C5788 C5786 1.391 . S
C5788 C5789 1.400 . S
C5789 C5783 1.491 . S
C5789 C5788 1.400 . S
C5789 C5790 1.398 . S
C5790 H5778 0.950 . S
C5790 C5789 1.398 . S
C5790 C5791 1.391 . S
C5791 H5779 0.950 . S
C5791 C5787 1.393 . S
C5791 C5790 1.391 . S
H5792 C5800 0.950 . S
H5793 C5805 0.950 . S
H5794 C5802 0.950 . S
H5795 C5804 0.950 . S
H5796 C5806 0.950 . S
H5797 C5808 0.950 . S
H5798 C5810 0.950 . S
H5799 C5811 0.950 . S
C5800 H5792 0.950 . S
C5800 C5801 1.386 . S
C5800 C5802 1.391 . S
C5801 C5800 1.386 . S
C5801 C5805 1.393 . S
C5802 H5794 0.950 . S
C5802 C5800 1.391 . S
C5802 C5803 1.400 . S
C5803 C5802 1.400 . S
C5803 C5804 1.398 . S
C5803 C5809 1.491 . S
C5804 H5795 0.950 . S
C5804 C5803 1.398 . S
C5804 C5805 1.391 . S
C5805 H5793 0.950 . S
C5805 C5801 1.393 . S
C5805 C5804 1.391 . S
C5806 H5796 0.950 . S
C5806 C5807 1.386 . S
C5806 C5808 1.391 . S
C5807 C5806 1.386 . S
C5807 C5811 1.393 . S
C5808 H5797 0.950 . S
C5808 C5806 1.391 . S
C5808 C5809 1.400 . S
C5809 C5803 1.491 . S
C5809 C5808 1.400 . S
C5809 C5810 1.398 . S
C5810 H5798 0.950 . S
C5810 C5809 1.398 . S
C5810 C5811 1.391 . S
C5811 H5799 0.950 . S
C5811 C5807 1.393 . S
C5811 C5810 1.391 . S
H5812 C5820 0.950 . S
H5813 C5825 0.950 . S
H5814 C5822 0.950 . S
H5815 C5824 0.950 . S
H5816 C5826 0.950 . S
H5817 C5828 0.950 . S
H5818 C5830 0.950 . S
H5819 C5831 0.950 . S
C5820 H5812 0.950 . S
C5820 C5821 1.386 . S
C5820 C5822 1.391 . S
C5821 C5820 1.386 . S
C5821 C5825 1.393 . S
C5822 H5814 0.950 . S
C5822 C5820 1.391 . S
C5822 C5823 1.400 . S
C5823 C5822 1.400 . S
C5823 C5824 1.398 . S
C5823 C5829 1.491 . S
C5824 H5815 0.950 . S
C5824 C5823 1.398 . S
C5824 C5825 1.391 . S
C5825 H5813 0.950 . S
C5825 C5821 1.393 . S
C5825 C5824 1.391 . S
C5826 H5816 0.950 . S
C5826 C5827 1.386 . S
C5826 C5828 1.391 . S
C5827 C5826 1.386 . S
C5827 C5831 1.393 . S
C5828 H5817 0.950 . S
C5828 C5826 1.391 . S
C5828 C5829 1.400 . S
C5829 C5823 1.491 . S
C5829 C5828 1.400 . S
C5829 C5830 1.398 . S
C5830 H5818 0.950 . S
C5830 C5829 1.398 . S
C5830 C5831 1.391 . S
C5831 H5819 0.950 . S
C5831 C5827 1.393 . S
C5831 C5830 1.391 . S
H5832 C5840 0.950 . S
H5833 C5845 0.950 . S
H5834 C5842 0.950 . S
H5835 C5844 0.950 . S
H5836 C5846 0.950 . S
H5837 C5848 0.950 . S
H5838 C5850 0.950 . S
H5839 C5851 0.950 . S
C5840 H5832 0.950 . S
C5840 C5841 1.386 . S
C5840 C5842 1.391 . S
C5841 C5840 1.386 . S
C5841 C5845 1.393 . S
C5842 H5834 0.950 . S
C5842 C5840 1.391 . S
C5842 C5843 1.400 . S
C5843 C5842 1.400 . S
C5843 C5844 1.398 . S
C5843 C5849 1.491 . S
C5844 H5835 0.950 . S
C5844 C5843 1.398 . S
C5844 C5845 1.391 . S
C5845 H5833 0.950 . S
C5845 C5841 1.393 . S
C5845 C5844 1.391 . S
C5846 H5836 0.950 . S
C5846 C5847 1.386 . S
C5846 C5848 1.391 . S
C5847 C5846 1.386 . S
C5847 C5851 1.393 . S
C5848 H5837 0.950 . S
C5848 C5846 1.391 . S
C5848 C5849 1.400 . S
C5849 C5843 1.491 . S
C5849 C5848 1.400 . S
C5849 C5850 1.398 . S
C5850 H5838 0.950 . S
C5850 C5849 1.398 . S
C5850 C5851 1.391 . S
C5851 H5839 0.950 . S
C5851 C5847 1.393 . S
C5851 C5850 1.391 . S
H5852 C5860 0.950 . S
H5853 C5865 0.950 . S
H5854 C5862 0.950 . S
H5855 C5864 0.950 . S
H5856 C5866 0.950 . S
H5857 C5868 0.950 . S
H5858 C5870 0.950 . S
H5859 C5871 0.950 . S
C5860 H5852 0.950 . S
C5860 C5861 1.386 . S
C5860 C5862 1.391 . S
C5861 C5860 1.386 . S
C5861 C5865 1.393 . S
C5862 H5854 0.950 . S
C5862 C5860 1.391 . S
C5862 C5863 1.400 . S
C5863 C5862 1.400 . S
C5863 C5864 1.398 . S
C5863 C5869 1.491 . S
C5864 H5855 0.950 . S
C5864 C5863 1.398 . S
C5864 C5865 1.391 . S
C5865 H5853 0.950 . S
C5865 C5861 1.393 . S
C5865 C5864 1.391 . S
C5866 H5856 0.950 . S
C5866 C5867 1.386 . S
C5866 C5868 1.391 . S
C5867 C5866 1.386 . S
C5867 C5871 1.393 . S
C5868 H5857 0.950 . S
C5868 C5866 1.391 . S
C5868 C5869 1.400 . S
C5869 C5863 1.491 . S
C5869 C5868 1.400 . S
C5869 C5870 1.398 . S
C5870 H5858 0.950 . S
C5870 C5869 1.398 . S
C5870 C5871 1.391 . S
C5871 H5859 0.950 . S
C5871 C5867 1.393 . S
C5871 C5870 1.391 . S
H5872 C5880 0.950 . S
H5873 C5885 0.950 . S
H5874 C5882 0.950 . S
H5875 C5884 0.950 . S
H5876 C5886 0.950 . S
H5877 C5888 0.950 . S
H5878 C5890 0.950 . S
H5879 C5891 0.950 . S
C5880 H5872 0.950 . S
C5880 C5881 1.386 . S
C5880 C5882 1.391 . S
C5881 C5880 1.386 . S
C5881 C5885 1.393 . S
C5882 H5874 0.950 . S
C5882 C5880 1.391 . S
C5882 C5883 1.400 . S
C5883 C5882 1.400 . S
C5883 C5884 1.398 . S
C5883 C5889 1.491 . S
C5884 H5875 0.950 . S
C5884 C5883 1.398 . S
C5884 C5885 1.391 . S
C5885 H5873 0.950 . S
C5885 C5881 1.393 . S
C5885 C5884 1.391 . S
C5886 H5876 0.950 . S
C5886 C5887 1.386 . S
C5886 C5888 1.391 . S
C5887 C5886 1.386 . S
C5887 C5891 1.393 . S
C5888 H5877 0.950 . S
C5888 C5886 1.391 . S
C5888 C5889 1.400 . S
C5889 C5883 1.491 . S
C5889 C5888 1.400 . S
C5889 C5890 1.398 . S
C5890 H5878 0.950 . S
C5890 C5889 1.398 . S
C5890 C5891 1.391 . S
C5891 H5879 0.950 . S
C5891 C5887 1.393 . S
C5891 C5890 1.391 . S
H5892 C5900 0.950 . S
H5893 C5905 0.950 . S
H5894 C5902 0.950 . S
H5895 C5904 0.950 . S
H5896 C5906 0.950 . S
H5897 C5908 0.950 . S
H5898 C5910 0.950 . S
H5899 C5911 0.950 . S
C5900 H5892 0.950 . S
C5900 C5901 1.386 . S
C5900 C5902 1.391 . S
C5901 C5900 1.386 . S
C5901 C5905 1.393 . S
C5902 H5894 0.950 . S
C5902 C5900 1.391 . S
C5902 C5903 1.400 . S
C5903 C5902 1.400 . S
C5903 C5904 1.398 . S
C5903 C5909 1.491 . S
C5904 H5895 0.950 . S
C5904 C5903 1.398 . S
C5904 C5905 1.391 . S
C5905 H5893 0.950 . S
C5905 C5901 1.393 . S
C5905 C5904 1.391 . S
C5906 H5896 0.950 . S
C5906 C5907 1.386 . S
C5906 C5908 1.391 . S
C5907 C5906 1.386 . S
C5907 C5911 1.393 . S
C5908 H5897 0.950 . S
C5908 C5906 1.391 . S
C5908 C5909 1.400 . S
C5909 C5903 1.491 . S
C5909 C5908 1.400 . S
C5909 C5910 1.398 . S
C5910 H5898 0.950 . S
C5910 C5909 1.398 . S
C5910 C5911 1.391 . S
C5911 H5899 0.950 . S
C5911 C5907 1.393 . S
C5911 C5910 1.391 . S
H5912 C5920 0.950 . S
H5913 C5925 0.950 . S
H5914 C5922 0.950 . S
H5915 C5924 0.950 . S
H5916 C5926 0.950 . S
H5917 C5928 0.950 . S
H5918 C5930 0.950 . S
H5919 C5931 0.950 . S
C5920 H5912 0.950 . S
C5920 C5921 1.386 . S
C5920 C5922 1.391 . S
C5921 C5920 1.386 . S
C5921 C5925 1.393 . S
C5922 H5914 0.950 . S
C5922 C5920 1.391 . S
C5922 C5923 1.400 . S
C5923 C5922 1.400 . S
C5923 C5924 1.398 . S
C5923 C5929 1.491 . S
C5924 H5915 0.950 . S
C5924 C5923 1.398 . S
C5924 C5925 1.391 . S
C5925 H5913 0.950 . S
C5925 C5921 1.393 . S
C5925 C5924 1.391 . S
C5926 H5916 0.950 . S
C5926 C5927 1.386 . S
C5926 C5928 1.391 . S
C5927 C5926 1.386 . S
C5927 C5931 1.393 . S
C5928 H5917 0.950 . S
C5928 C5926 1.391 . S
C5928 C5929 1.400 . S
C5929 C5923 1.491 . S
C5929 C5928 1.400 . S
C5929 C5930 1.398 . S
C5930 H5918 0.950 . S
C5930 C5929 1.398 . S
C5930 C5931 1.391 . S
C5931 H5919 0.950 . S
C5931 C5927 1.393 . S
C5931 C5930 1.391 . S
H5932 C5940 0.950 . S
H5933 C5945 0.950 . S
H5934 C5942 0.950 . S
H5935 C5944 0.950 . S
H5936 C5946 0.950 . S
H5937 C5948 0.950 . S
H5938 C5950 0.950 . S
H5939 C5951 0.950 . S
C5940 H5932 0.950 . S
C5940 C5941 1.386 . S
C5940 C5942 1.391 . S
C5941 C5940 1.386 . S
C5941 C5945 1.393 . S
C5942 H5934 0.950 . S
C5942 C5940 1.391 . S
C5942 C5943 1.400 . S
C5943 C5942 1.400 . S
C5943 C5944 1.398 . S
C5943 C5949 1.491 . S
C5944 H5935 0.950 . S
C5944 C5943 1.398 . S
C5944 C5945 1.391 . S
C5945 H5933 0.950 . S
C5945 C5941 1.393 . S
C5945 C5944 1.391 . S
C5946 H5936 0.950 . S
C5946 C5947 1.386 . S
C5946 C5948 1.391 . S
C5947 C5946 1.386 . S
C5947 C5951 1.393 . S
C5948 H5937 0.950 . S
C5948 C5946 1.391 . S
C5948 C5949 1.400 . S
C5949 C5943 1.491 . S
C5949 C5948 1.400 . S
C5949 C5950 1.398 . S
C5950 H5938 0.950 . S
C5950 C5949 1.398 . S
C5950 C5951 1.391 . S
C5951 H5939 0.950 . S
C5951 C5947 1.393 . S
C5951 C5950 1.391 . S
H5952 C5960 0.950 . S
H5953 C5965 0.950 . S
H5954 C5962 0.950 . S
H5955 C5964 0.950 . S
H5956 C5966 0.950 . S
H5957 C5968 0.950 . S
H5958 C5970 0.950 . S
H5959 C5971 0.950 . S
C5960 H5952 0.950 . S
C5960 C5961 1.386 . S
C5960 C5962 1.391 . S
C5961 C5960 1.386 . S
C5961 C5965 1.393 . S
C5962 H5954 0.950 . S
C5962 C5960 1.391 . S
C5962 C5963 1.400 . S
C5963 C5962 1.400 . S
C5963 C5964 1.398 . S
C5963 C5969 1.491 . S
C5964 H5955 0.950 . S
C5964 C5963 1.398 . S
C5964 C5965 1.391 . S
C5965 H5953 0.950 . S
C5965 C5961 1.393 . S
C5965 C5964 1.391 . S
C5966 H5956 0.950 . S
C5966 C5967 1.386 . S
C5966 C5968 1.391 . S
C5967 C5966 1.386 . S
C5967 C5971 1.393 . S
C5968 H5957 0.950 . S
C5968 C5966 1.391 . S
C5968 C5969 1.400 . S
C5969 C5963 1.491 . S
C5969 C5968 1.400 . S
C5969 C5970 1.398 . S
C5970 H5958 0.950 . S
C5970 C5969 1.398 . S
C5970 C5971 1.391 . S
C5971 H5959 0.950 . S
C5971 C5967 1.393 . S
C5971 C5970 1.391 . S
H5972 C5980 0.950 . S
H5973 C5985 0.950 . S
H5974 C5982 0.950 . S
H5975 C5984 0.950 . S
H5976 C5986 0.950 . S
H5977 C5988 0.950 . S
H5978 C5990 0.950 . S
H5979 C5991 0.950 . S
C5980 H5972 0.950 . S
C5980 C5981 1.386 . S
C5980 C5982 1.391 . S
C5981 C5980 1.386 . S
C5981 C5985 1.393 . S
C5982 H5974 0.950 . S
C5982 C5980 1.391 . S
C5982 C5983 1.400 . S
C5983 C5982 1.400 . S
C5983 C5984 1.398 . S
C5983 C5989 1.491 . S
C5984 H5975 0.950 . S
C5984 C5983 1.398 . S
C5984 C5985 1.391 . S
C5985 H5973 0.950 . S
C5985 C5981 1.393 . S
C5985 C5984 1.391 . S
C5986 H5976 0.950 . S
C5986 C5987 1.386 . S
C5986 C5988 1.391 . S
C5987 C5986 1.386 . S
C5987 C5991 1.393 . S
C5988 H5977 0.950 . S
C5988 C5986 1.391 . S
C5988 C5989 1.400 . S
C5989 C5983 1.491 . S
C5989 C5988 1.400 . S
C5989 C5990 1.398 . S
C5990 H5978 0.950 . S
C5990 C5989 1.398 . S
C5990 C5991 1.391 . S
C5991 H5979 0.950 . S
C5991 C5987 1.393 . S
C5991 C5990 1.391 . S
H5992 C6000 0.950 . S
H5993 C6005 0.950 . S
H5994 C6002 0.950 . S
H5995 C6004 0.950 . S
H5996 C6006 0.950 . S
H5997 C6008 0.950 . S
H5998 C6010 0.950 . S
H5999 C6011 0.950 . S
C6000 H5992 0.950 . S
C6000 C6001 1.386 . S
C6000 C6002 1.391 . S
C6001 C6000 1.386 . S
C6001 C6005 1.393 . S
C6002 H5994 0.950 . S
C6002 C6000 1.391 . S
C6002 C6003 1.400 . S
C6003 C6002 1.400 . S
C6003 C6004 1.398 . S
C6003 C6009 1.491 . S
C6004 H5995 0.950 . S
C6004 C6003 1.398 . S
C6004 C6005 1.391 . S
C6005 H5993 0.950 . S
C6005 C6001 1.393 . S
C6005 C6004 1.391 . S
C6006 H5996 0.950 . S
C6006 C6007 1.386 . S
C6006 C6008 1.391 . S
C6007 C6006 1.386 . S
C6007 C6011 1.393 . S
C6008 H5997 0.950 . S
C6008 C6006 1.391 . S
C6008 C6009 1.400 . S
C6009 C6003 1.491 . S
C6009 C6008 1.400 . S
C6009 C6010 1.398 . S
C6010 H5998 0.950 . S
C6010 C6009 1.398 . S
C6010 C6011 1.391 . S
C6011 H5999 0.950 . S
C6011 C6007 1.393 . S
C6011 C6010 1.391 . S
H6012 C6020 0.950 . S
H6013 C6025 0.950 . S
H6014 C6022 0.950 . S
H6015 C6024 0.950 . S
H6016 C6026 0.950 . S
H6017 C6028 0.950 . S
H6018 C6030 0.950 . S
H6019 C6031 0.950 . S
C6020 H6012 0.950 . S
C6020 C6021 1.386 . S
C6020 C6022 1.391 . S
C6021 C6020 1.386 . S
C6021 C6025 1.393 . S
C6022 H6014 0.950 . S
C6022 C6020 1.391 . S
C6022 C6023 1.400 . S
C6023 C6022 1.400 . S
C6023 C6024 1.398 . S
C6023 C6029 1.491 . S
C6024 H6015 0.950 . S
C6024 C6023 1.398 . S
C6024 C6025 1.391 . S
C6025 H6013 0.950 . S
C6025 C6021 1.393 . S
C6025 C6024 1.391 . S
C6026 H6016 0.950 . S
C6026 C6027 1.386 . S
C6026 C6028 1.391 . S
C6027 C6026 1.386 . S
C6027 C6031 1.393 . S
C6028 H6017 0.950 . S
C6028 C6026 1.391 . S
C6028 C6029 1.400 . S
C6029 C6023 1.491 . S
C6029 C6028 1.400 . S
C6029 C6030 1.398 . S
C6030 H6018 0.950 . S
C6030 C6029 1.398 . S
C6030 C6031 1.391 . S
C6031 H6019 0.950 . S
C6031 C6027 1.393 . S
C6031 C6030 1.391 . S
H6032 C6040 0.950 . S
H6033 C6045 0.950 . S
H6034 C6042 0.950 . S
H6035 C6044 0.950 . S
H6036 C6046 0.950 . S
H6037 C6048 0.950 . S
H6038 C6050 0.950 . S
H6039 C6051 0.950 . S
C6040 H6032 0.950 . S
C6040 C6041 1.386 . S
C6040 C6042 1.391 . S
C6041 C6040 1.386 . S
C6041 C6045 1.393 . S
C6042 H6034 0.950 . S
C6042 C6040 1.391 . S
C6042 C6043 1.400 . S
C6043 C6042 1.400 . S
C6043 C6044 1.398 . S
C6043 C6049 1.491 . S
C6044 H6035 0.950 . S
C6044 C6043 1.398 . S
C6044 C6045 1.391 . S
C6045 H6033 0.950 . S
C6045 C6041 1.393 . S
C6045 C6044 1.391 . S
C6046 H6036 0.950 . S
C6046 C6047 1.386 . S
C6046 C6048 1.391 . S
C6047 C6046 1.386 . S
C6047 C6051 1.393 . S
C6048 H6037 0.950 . S
C6048 C6046 1.391 . S
C6048 C6049 1.400 . S
C6049 C6043 1.491 . S
C6049 C6048 1.400 . S
C6049 C6050 1.398 . S
C6050 H6038 0.950 . S
C6050 C6049 1.398 . S
C6050 C6051 1.391 . S
C6051 H6039 0.950 . S
C6051 C6047 1.393 . S
C6051 C6050 1.391 . S
H6052 C6060 0.950 . S
H6053 C6065 0.950 . S
H6054 C6062 0.950 . S
H6055 C6064 0.950 . S
H6056 C6066 0.950 . S
H6057 C6068 0.950 . S
H6058 C6070 0.950 . S
H6059 C6071 0.950 . S
C6060 H6052 0.950 . S
C6060 C6061 1.386 . S
C6060 C6062 1.391 . S
C6061 C6060 1.386 . S
C6061 C6065 1.393 . S
C6062 H6054 0.950 . S
C6062 C6060 1.391 . S
C6062 C6063 1.400 . S
C6063 C6062 1.400 . S
C6063 C6064 1.398 . S
C6063 C6069 1.491 . S
C6064 H6055 0.950 . S
C6064 C6063 1.398 . S
C6064 C6065 1.391 . S
C6065 H6053 0.950 . S
C6065 C6061 1.393 . S
C6065 C6064 1.391 . S
C6066 H6056 0.950 . S
C6066 C6067 1.386 . S
C6066 C6068 1.391 . S
C6067 C6066 1.386 . S
C6067 C6071 1.393 . S
C6068 H6057 0.950 . S
C6068 C6066 1.391 . S
C6068 C6069 1.400 . S
C6069 C6063 1.491 . S
C6069 C6068 1.400 . S
C6069 C6070 1.398 . S
C6070 H6058 0.950 . S
C6070 C6069 1.398 . S
C6070 C6071 1.391 . S
C6071 H6059 0.950 . S
C6071 C6067 1.393 . S
C6071 C6070 1.391 . S
H6072 C6080 0.950 . S
H6073 C6085 0.950 . S
H6074 C6082 0.950 . S
H6075 C6084 0.950 . S
H6076 C6086 0.950 . S
H6077 C6088 0.950 . S
H6078 C6090 0.950 . S
H6079 C6091 0.950 . S
C6080 H6072 0.950 . S
C6080 C6081 1.386 . S
C6080 C6082 1.391 . S
C6081 C6080 1.386 . S
C6081 C6085 1.393 . S
C6082 H6074 0.950 . S
C6082 C6080 1.391 . S
C6082 C6083 1.400 . S
C6083 C6082 1.400 . S
C6083 C6084 1.398 . S
C6083 C6089 1.491 . S
C6084 H6075 0.950 . S
C6084 C6083 1.398 . S
C6084 C6085 1.391 . S
C6085 H6073 0.950 . S
C6085 C6081 1.393 . S
C6085 C6084 1.391 . S
C6086 H6076 0.950 . S
C6086 C6087 1.386 . S
C6086 C6088 1.391 . S
C6087 C6086 1.386 . S
C6087 C6091 1.393 . S
C6088 H6077 0.950 . S
C6088 C6086 1.391 . S
C6088 C6089 1.400 . S
C6089 C6083 1.491 . S
C6089 C6088 1.400 . S
C6089 C6090 1.398 . S
C6090 H6078 0.950 . S
C6090 C6089 1.398 . S
C6090 C6091 1.391 . S
C6091 H6079 0.950 . S
C6091 C6087 1.393 . S
C6091 C6090 1.391 . S
H6092 C6100 0.950 . S
H6093 C6105 0.950 . S
H6094 C6102 0.950 . S
H6095 C6104 0.950 . S
H6096 C6106 0.950 . S
H6097 C6108 0.950 . S
H6098 C6110 0.950 . S
H6099 C6111 0.950 . S
C6100 H6092 0.950 . S
C6100 C6101 1.386 . S
C6100 C6102 1.391 . S
C6101 C6100 1.386 . S
C6101 C6105 1.393 . S
C6102 H6094 0.950 . S
C6102 C6100 1.391 . S
C6102 C6103 1.400 . S
C6103 C6102 1.400 . S
C6103 C6104 1.398 . S
C6103 C6109 1.491 . S
C6104 H6095 0.950 . S
C6104 C6103 1.398 . S
C6104 C6105 1.391 . S
C6105 H6093 0.950 . S
C6105 C6101 1.393 . S
C6105 C6104 1.391 . S
C6106 H6096 0.950 . S
C6106 C6107 1.386 . S
C6106 C6108 1.391 . S
C6107 C6106 1.386 . S
C6107 C6111 1.393 . S
C6108 H6097 0.950 . S
C6108 C6106 1.391 . S
C6108 C6109 1.400 . S
C6109 C6103 1.491 . S
C6109 C6108 1.400 . S
C6109 C6110 1.398 . S
C6110 H6098 0.950 . S
C6110 C6109 1.398 . S
C6110 C6111 1.391 . S
C6111 H6099 0.950 . S
C6111 C6107 1.393 . S
C6111 C6110 1.391 . S
H6112 C6120 0.950 . S
H6113 C6125 0.950 . S
H6114 C6122 0.950 . S
H6115 C6124 0.950 . S
H6116 C6126 0.950 . S
H6117 C6128 0.950 . S
H6118 C6130 0.950 . S
H6119 C6131 0.950 . S
C6120 H6112 0.950 . S
C6120 C6121 1.386 . S
C6120 C6122 1.391 . S
C6121 C6120 1.386 . S
C6121 C6125 1.393 . S
C6122 H6114 0.950 . S
C6122 C6120 1.391 . S
C6122 C6123 1.400 . S
C6123 C6122 1.400 . S
C6123 C6124 1.398 . S
C6123 C6129 1.491 . S
C6124 H6115 0.950 . S
C6124 C6123 1.398 . S
C6124 C6125 1.391 . S
C6125 H6113 0.950 . S
C6125 C6121 1.393 . S
C6125 C6124 1.391 . S
C6126 H6116 0.950 . S
C6126 C6127 1.386 . S
C6126 C6128 1.391 . S
C6127 C6126 1.386 . S
C6127 C6131 1.393 . S
C6128 H6117 0.950 . S
C6128 C6126 1.391 . S
C6128 C6129 1.400 . S
C6129 C6123 1.491 . S
C6129 C6128 1.400 . S
C6129 C6130 1.398 . S
C6130 H6118 0.950 . S
C6130 C6129 1.398 . S
C6130 C6131 1.391 . S
C6131 H6119 0.950 . S
C6131 C6127 1.393 . S
C6131 C6130 1.391 . S
H6132 C6140 0.950 . S
H6133 C6145 0.950 . S
H6134 C6142 0.950 . S
H6135 C6144 0.950 . S
H6136 C6146 0.950 . S
H6137 C6148 0.950 . S
H6138 C6150 0.950 . S
H6139 C6151 0.950 . S
C6140 H6132 0.950 . S
C6140 C6141 1.386 . S
C6140 C6142 1.391 . S
C6141 C6140 1.386 . S
C6141 C6145 1.393 . S
C6142 H6134 0.950 . S
C6142 C6140 1.391 . S
C6142 C6143 1.400 . S
C6143 C6142 1.400 . S
C6143 C6144 1.398 . S
C6143 C6149 1.491 . S
C6144 H6135 0.950 . S
C6144 C6143 1.398 . S
C6144 C6145 1.391 . S
C6145 H6133 0.950 . S
C6145 C6141 1.393 . S
C6145 C6144 1.391 . S
C6146 H6136 0.950 . S
C6146 C6147 1.386 . S
C6146 C6148 1.391 . S
C6147 C6146 1.386 . S
C6147 C6151 1.393 . S
C6148 H6137 0.950 . S
C6148 C6146 1.391 . S
C6148 C6149 1.400 . S
C6149 C6143 1.491 . S
C6149 C6148 1.400 . S
C6149 C6150 1.398 . S
C6150 H6138 0.950 . S
C6150 C6149 1.398 . S
C6150 C6151 1.391 . S
C6151 H6139 0.950 . S
C6151 C6147 1.393 . S
C6151 C6150 1.391 . S
H6152 C6160 0.950 . S
H6153 C6165 0.950 . S
H6154 C6162 0.950 . S
H6155 C6164 0.950 . S
H6156 C6166 0.950 . S
H6157 C6168 0.950 . S
H6158 C6170 0.950 . S
H6159 C6171 0.950 . S
C6160 H6152 0.950 . S
C6160 C6161 1.386 . S
C6160 C6162 1.391 . S
C6161 C6160 1.386 . S
C6161 C6165 1.393 . S
C6162 H6154 0.950 . S
C6162 C6160 1.391 . S
C6162 C6163 1.400 . S
C6163 C6162 1.400 . S
C6163 C6164 1.398 . S
C6163 C6169 1.491 . S
C6164 H6155 0.950 . S
C6164 C6163 1.398 . S
C6164 C6165 1.391 . S
C6165 H6153 0.950 . S
C6165 C6161 1.393 . S
C6165 C6164 1.391 . S
C6166 H6156 0.950 . S
C6166 C6167 1.386 . S
C6166 C6168 1.391 . S
C6167 C6166 1.386 . S
C6167 C6171 1.393 . S
C6168 H6157 0.950 . S
C6168 C6166 1.391 . S
C6168 C6169 1.400 . S
C6169 C6163 1.491 . S
C6169 C6168 1.400 . S
C6169 C6170 1.398 . S
C6170 H6158 0.950 . S
C6170 C6169 1.398 . S
C6170 C6171 1.391 . S
C6171 H6159 0.950 . S
C6171 C6167 1.393 . S
C6171 C6170 1.391 . S
H6172 C6180 0.950 . S
H6173 C6185 0.950 . S
H6174 C6182 0.950 . S
H6175 C6184 0.950 . S
H6176 C6186 0.950 . S
H6177 C6188 0.950 . S
H6178 C6190 0.950 . S
H6179 C6191 0.950 . S
C6180 H6172 0.950 . S
C6180 C6181 1.386 . S
C6180 C6182 1.391 . S
C6181 C6180 1.386 . S
C6181 C6185 1.393 . S
C6182 H6174 0.950 . S
C6182 C6180 1.391 . S
C6182 C6183 1.400 . S
C6183 C6182 1.400 . S
C6183 C6184 1.398 . S
C6183 C6189 1.491 . S
C6184 H6175 0.950 . S
C6184 C6183 1.398 . S
C6184 C6185 1.391 . S
C6185 H6173 0.950 . S
C6185 C6181 1.393 . S
C6185 C6184 1.391 . S
C6186 H6176 0.950 . S
C6186 C6187 1.386 . S
C6186 C6188 1.391 . S
C6187 C6186 1.386 . S
C6187 C6191 1.393 . S
C6188 H6177 0.950 . S
C6188 C6186 1.391 . S
C6188 C6189 1.400 . S
C6189 C6183 1.491 . S
C6189 C6188 1.400 . S
C6189 C6190 1.398 . S
C6190 H6178 0.950 . S
C6190 C6189 1.398 . S
C6190 C6191 1.391 . S
C6191 H6179 0.950 . S
C6191 C6187 1.393 . S
C6191 C6190 1.391 . S
H6192 C6200 0.950 . S
H6193 C6205 0.950 . S
H6194 C6202 0.950 . S
H6195 C6204 0.950 . S
H6196 C6206 0.950 . S
H6197 C6208 0.950 . S
H6198 C6210 0.950 . S
H6199 C6211 0.950 . S
C6200 H6192 0.950 . S
C6200 C6201 1.386 . S
C6200 C6202 1.391 . S
C6201 C6200 1.386 . S
C6201 C6205 1.393 . S
C6202 H6194 0.950 . S
C6202 C6200 1.391 . S
C6202 C6203 1.400 . S
C6203 C6202 1.400 . S
C6203 C6204 1.398 . S
C6203 C6209 1.491 . S
C6204 H6195 0.950 . S
C6204 C6203 1.398 . S
C6204 C6205 1.391 . S
C6205 H6193 0.950 . S
C6205 C6201 1.393 . S
C6205 C6204 1.391 . S
C6206 H6196 0.950 . S
C6206 C6207 1.386 . S
C6206 C6208 1.391 . S
C6207 C6206 1.386 . S
C6207 C6211 1.393 . S
C6208 H6197 0.950 . S
C6208 C6206 1.391 . S
C6208 C6209 1.400 . S
C6209 C6203 1.491 . S
C6209 C6208 1.400 . S
C6209 C6210 1.398 . S
C6210 H6198 0.950 . S
C6210 C6209 1.398 . S
C6210 C6211 1.391 . S
C6211 H6199 0.950 . S
C6211 C6207 1.393 . S
C6211 C6210 1.391 . S
H6212 C6220 0.950 . S
H6213 C6225 0.950 . S
H6214 C6222 0.950 . S
H6215 C6224 0.950 . S
H6216 C6226 0.950 . S
H6217 C6228 0.950 . S
H6218 C6230 0.950 . S
H6219 C6231 0.950 . S
C6220 H6212 0.950 . S
C6220 C6221 1.386 . S
C6220 C6222 1.391 . S
C6221 C6220 1.386 . S
C6221 C6225 1.393 . S
C6222 H6214 0.950 . S
C6222 C6220 1.391 . S
C6222 C6223 1.400 . S
C6223 C6222 1.400 . S
C6223 C6224 1.398 . S
C6223 C6229 1.491 . S
C6224 H6215 0.950 . S
C6224 C6223 1.398 . S
C6224 C6225 1.391 . S
C6225 H6213 0.950 . S
C6225 C6221 1.393 . S
C6225 C6224 1.391 . S
C6226 H6216 0.950 . S
C6226 C6227 1.386 . S
C6226 C6228 1.391 . S
C6227 C6226 1.386 . S
C6227 C6231 1.393 . S
C6228 H6217 0.950 . S
C6228 C6226 1.391 . S
C6228 C6229 1.400 . S
C6229 C6223 1.491 . S
C6229 C6228 1.400 . S
C6229 C6230 1.398 . S
C6230 H6218 0.950 . S
C6230 C6229 1.398 . S
C6230 C6231 1.391 . S
C6231 H6219 0.950 . S
C6231 C6227 1.393 . S
C6231 C6230 1.391 . S
H6232 C6240 0.950 . S
H6233 C6245 0.950 . S
H6234 C6242 0.950 . S
H6235 C6244 0.950 . S
H6236 C6246 0.950 . S
H6237 C6248 0.950 . S
H6238 C6250 0.950 . S
H6239 C6251 0.950 . S
C6240 H6232 0.950 . S
C6240 C6241 1.386 . S
C6240 C6242 1.391 . S
C6241 C6240 1.386 . S
C6241 C6245 1.393 . S
C6242 H6234 0.950 . S
C6242 C6240 1.391 . S
C6242 C6243 1.400 . S
C6243 C6242 1.400 . S
C6243 C6244 1.398 . S
C6243 C6249 1.491 . S
C6244 H6235 0.950 . S
C6244 C6243 1.398 . S
C6244 C6245 1.391 . S
C6245 H6233 0.950 . S
C6245 C6241 1.393 . S
C6245 C6244 1.391 . S
C6246 H6236 0.950 . S
C6246 C6247 1.386 . S
C6246 C6248 1.391 . S
C6247 C6246 1.386 . S
C6247 C6251 1.393 . S
C6248 H6237 0.950 . S
C6248 C6246 1.391 . S
C6248 C6249 1.400 . S
C6249 C6243 1.491 . S
C6249 C6248 1.400 . S
C6249 C6250 1.398 . S
C6250 H6238 0.950 . S
C6250 C6249 1.398 . S
C6250 C6251 1.391 . S
C6251 H6239 0.950 . S
C6251 C6247 1.393 . S
C6251 C6250 1.391 . S
H6252 C6260 0.950 . S
H6253 C6265 0.950 . S
H6254 C6262 0.950 . S
H6255 C6264 0.950 . S
H6256 C6266 0.950 . S
H6257 C6268 0.950 . S
H6258 C6270 0.950 . S
H6259 C6271 0.950 . S
C6260 H6252 0.950 . S
C6260 C6261 1.386 . S
C6260 C6262 1.391 . S
C6261 C6260 1.386 . S
C6261 C6265 1.393 . S
C6262 H6254 0.950 . S
C6262 C6260 1.391 . S
C6262 C6263 1.400 . S
C6263 C6262 1.400 . S
C6263 C6264 1.398 . S
C6263 C6269 1.491 . S
C6264 H6255 0.950 . S
C6264 C6263 1.398 . S
C6264 C6265 1.391 . S
C6265 H6253 0.950 . S
C6265 C6261 1.393 . S
C6265 C6264 1.391 . S
C6266 H6256 0.950 . S
C6266 C6267 1.386 . S
C6266 C6268 1.391 . S
C6267 C6266 1.386 . S
C6267 C6271 1.393 . S
C6268 H6257 0.950 . S
C6268 C6266 1.391 . S
C6268 C6269 1.400 . S
C6269 C6263 1.491 . S
C6269 C6268 1.400 . S
C6269 C6270 1.398 . S
C6270 H6258 0.950 . S
C6270 C6269 1.398 . S
C6270 C6271 1.391 . S
C6271 H6259 0.950 . S
C6271 C6267 1.393 . S
C6271 C6270 1.391 . S
H6272 C6280 0.950 . S
H6273 C6285 0.950 . S
H6274 C6282 0.950 . S
H6275 C6284 0.950 . S
H6276 C6286 0.950 . S
H6277 C6288 0.950 . S
H6278 C6290 0.950 . S
H6279 C6291 0.950 . S
C6280 H6272 0.950 . S
C6280 C6281 1.386 . S
C6280 C6282 1.391 . S
C6281 C6280 1.386 . S
C6281 C6285 1.393 . S
C6282 H6274 0.950 . S
C6282 C6280 1.391 . S
C6282 C6283 1.400 . S
C6283 C6282 1.400 . S
C6283 C6284 1.398 . S
C6283 C6289 1.491 . S
C6284 H6275 0.950 . S
C6284 C6283 1.398 . S
C6284 C6285 1.391 . S
C6285 H6273 0.950 . S
C6285 C6281 1.393 . S
C6285 C6284 1.391 . S
C6286 H6276 0.950 . S
C6286 C6287 1.386 . S
C6286 C6288 1.391 . S
C6287 C6286 1.386 . S
C6287 C6291 1.393 . S
C6288 H6277 0.950 . S
C6288 C6286 1.391 . S
C6288 C6289 1.400 . S
C6289 C6283 1.491 . S
C6289 C6288 1.400 . S
C6289 C6290 1.398 . S
C6290 H6278 0.950 . S
C6290 C6289 1.398 . S
C6290 C6291 1.391 . S
C6291 H6279 0.950 . S
C6291 C6287 1.393 . S
C6291 C6290 1.391 . S
H6292 C6300 0.950 . S
H6293 C6305 0.950 . S
H6294 C6302 0.950 . S
H6295 C6304 0.950 . S
H6296 C6306 0.950 . S
H6297 C6308 0.950 . S
H6298 C6310 0.950 . S
H6299 C6311 0.950 . S
C6300 H6292 0.950 . S
C6300 C6301 1.386 . S
C6300 C6302 1.391 . S
C6301 C6300 1.386 . S
C6301 C6305 1.393 . S
C6302 H6294 0.950 . S
C6302 C6300 1.391 . S
C6302 C6303 1.400 . S
C6303 C6302 1.400 . S
C6303 C6304 1.398 . S
C6303 C6309 1.491 . S
C6304 H6295 0.950 . S
C6304 C6303 1.398 . S
C6304 C6305 1.391 . S
C6305 H6293 0.950 . S
C6305 C6301 1.393 . S
C6305 C6304 1.391 . S
C6306 H6296 0.950 . S
C6306 C6307 1.386 . S
C6306 C6308 1.391 . S
C6307 C6306 1.386 . S
C6307 C6311 1.393 . S
C6308 H6297 0.950 . S
C6308 C6306 1.391 . S
C6308 C6309 1.400 . S
C6309 C6303 1.491 . S
C6309 C6308 1.400 . S
C6309 C6310 1.398 . S
C6310 H6298 0.950 . S
C6310 C6309 1.398 . S
C6310 C6311 1.391 . S
C6311 H6299 0.950 . S
C6311 C6307 1.393 . S
C6311 C6310 1.391 . S
H6312 C6320 0.950 . S
H6313 C6325 0.950 . S
H6314 C6322 0.950 . S
H6315 C6324 0.950 . S
H6316 C6326 0.950 . S
H6317 C6328 0.950 . S
H6318 C6330 0.950 . S
H6319 C6331 0.950 . S
C6320 H6312 0.950 . S
C6320 C6321 1.386 . S
C6320 C6322 1.391 . S
C6321 C6320 1.386 . S
C6321 C6325 1.393 . S
C6322 H6314 0.950 . S
C6322 C6320 1.391 . S
C6322 C6323 1.400 . S
C6323 C6322 1.400 . S
C6323 C6324 1.398 . S
C6323 C6329 1.491 . S
C6324 H6315 0.950 . S
C6324 C6323 1.398 . S
C6324 C6325 1.391 . S
C6325 H6313 0.950 . S
C6325 C6321 1.393 . S
C6325 C6324 1.391 . S
C6326 H6316 0.950 . S
C6326 C6327 1.386 . S
C6326 C6328 1.391 . S
C6327 C6326 1.386 . S
C6327 C6331 1.393 . S
C6328 H6317 0.950 . S
C6328 C6326 1.391 . S
C6328 C6329 1.400 . S
C6329 C6323 1.491 . S
C6329 C6328 1.400 . S
C6329 C6330 1.398 . S
C6330 H6318 0.950 . S
C6330 C6329 1.398 . S
C6330 C6331 1.391 . S
C6331 H6319 0.950 . S
C6331 C6327 1.393 . S
C6331 C6330 1.391 . S
H6332 C6340 0.950 . S
H6333 C6345 0.950 . S
H6334 C6342 0.950 . S
H6335 C6344 0.950 . S
H6336 C6346 0.950 . S
H6337 C6348 0.950 . S
H6338 C6350 0.950 . S
H6339 C6351 0.950 . S
C6340 H6332 0.950 . S
C6340 C6341 1.386 . S
C6340 C6342 1.391 . S
C6341 C6340 1.386 . S
C6341 C6345 1.393 . S
C6342 H6334 0.950 . S
C6342 C6340 1.391 . S
C6342 C6343 1.400 . S
C6343 C6342 1.400 . S
C6343 C6344 1.398 . S
C6343 C6349 1.491 . S
C6344 H6335 0.950 . S
C6344 C6343 1.398 . S
C6344 C6345 1.391 . S
C6345 H6333 0.950 . S
C6345 C6341 1.393 . S
C6345 C6344 1.391 . S
C6346 H6336 0.950 . S
C6346 C6347 1.386 . S
C6346 C6348 1.391 . S
C6347 C6346 1.386 . S
C6347 C6351 1.393 . S
C6348 H6337 0.950 . S
C6348 C6346 1.391 . S
C6348 C6349 1.400 . S
C6349 C6343 1.491 . S
C6349 C6348 1.400 . S
C6349 C6350 1.398 . S
C6350 H6338 0.950 . S
C6350 C6349 1.398 . S
C6350 C6351 1.391 . S
C6351 H6339 0.950 . S
C6351 C6347 1.393 . S
C6351 C6350 1.391 . S
H6352 C6360 0.950 . S
H6353 C6365 0.950 . S
H6354 C6362 0.950 . S
H6355 C6364 0.950 . S
H6356 C6366 0.950 . S
H6357 C6368 0.950 . S
H6358 C6370 0.950 . S
H6359 C6371 0.950 . S
C6360 H6352 0.950 . S
C6360 C6361 1.386 . S
C6360 C6362 1.391 . S
C6361 C6360 1.386 . S
C6361 C6365 1.393 . S
C6362 H6354 0.950 . S
C6362 C6360 1.391 . S
C6362 C6363 1.400 . S
C6363 C6362 1.400 . S
C6363 C6364 1.398 . S
C6363 C6369 1.491 . S
C6364 H6355 0.950 . S
C6364 C6363 1.398 . S
C6364 C6365 1.391 . S
C6365 H6353 0.950 . S
C6365 C6361 1.393 . S
C6365 C6364 1.391 . S
C6366 H6356 0.950 . S
C6366 C6367 1.386 . S
C6366 C6368 1.391 . S
C6367 C6366 1.386 . S
C6367 C6371 1.393 . S
C6368 H6357 0.950 . S
C6368 C6366 1.391 . S
C6368 C6369 1.400 . S
C6369 C6363 1.491 . S
C6369 C6368 1.400 . S
C6369 C6370 1.398 . S
C6370 H6358 0.950 . S
C6370 C6369 1.398 . S
C6370 C6371 1.391 . S
C6371 H6359 0.950 . S
C6371 C6367 1.393 . S
C6371 C6370 1.391 . S
H6372 C6380 0.950 . S
H6373 C6385 0.950 . S
H6374 C6382 0.950 . S
H6375 C6384 0.950 . S
H6376 C6386 0.950 . S
H6377 C6388 0.950 . S
H6378 C6390 0.950 . S
H6379 C6391 0.950 . S
C6380 H6372 0.950 . S
C6380 C6381 1.386 . S
C6380 C6382 1.391 . S
C6381 C6380 1.386 . S
C6381 C6385 1.393 . S
C6382 H6374 0.950 . S
C6382 C6380 1.391 . S
C6382 C6383 1.400 . S
C6383 C6382 1.400 . S
C6383 C6384 1.398 . S
C6383 C6389 1.491 . S
C6384 H6375 0.950 . S
C6384 C6383 1.398 . S
C6384 C6385 1.391 . S
C6385 H6373 0.950 . S
C6385 C6381 1.393 . S
C6385 C6384 1.391 . S
C6386 H6376 0.950 . S
C6386 C6387 1.386 . S
C6386 C6388 1.391 . S
C6387 C6386 1.386 . S
C6387 C6391 1.393 . S
C6388 H6377 0.950 . S
C6388 C6386 1.391 . S
C6388 C6389 1.400 . S
C6389 C6383 1.491 . S
C6389 C6388 1.400 . S
C6389 C6390 1.398 . S
C6390 H6378 0.950 . S
C6390 C6389 1.398 . S
C6390 C6391 1.391 . S
C6391 H6379 0.950 . S
C6391 C6387 1.393 . S
C6391 C6390 1.391 . S
H6392 C6400 0.950 . S
H6393 C6405 0.950 . S
H6394 C6402 0.950 . S
H6395 C6404 0.950 . S
H6396 C6406 0.950 . S
H6397 C6408 0.950 . S
H6398 C6410 0.950 . S
H6399 C6411 0.950 . S
C6400 H6392 0.950 . S
C6400 C6401 1.386 . S
C6400 C6402 1.391 . S
C6401 C6400 1.386 . S
C6401 C6405 1.393 . S
C6402 H6394 0.950 . S
C6402 C6400 1.391 . S
C6402 C6403 1.400 . S
C6403 C6402 1.400 . S
C6403 C6404 1.398 . S
C6403 C6409 1.491 . S
C6404 H6395 0.950 . S
C6404 C6403 1.398 . S
C6404 C6405 1.391 . S
C6405 H6393 0.950 . S
C6405 C6401 1.393 . S
C6405 C6404 1.391 . S
C6406 H6396 0.950 . S
C6406 C6407 1.386 . S
C6406 C6408 1.391 . S
C6407 C6406 1.386 . S
C6407 C6411 1.393 . S
C6408 H6397 0.950 . S
C6408 C6406 1.391 . S
C6408 C6409 1.400 . S
C6409 C6403 1.491 . S
C6409 C6408 1.400 . S
C6409 C6410 1.398 . S
C6410 H6398 0.950 . S
C6410 C6409 1.398 . S
C6410 C6411 1.391 . S
C6411 H6399 0.950 . S
C6411 C6407 1.393 . S
C6411 C6410 1.391 . S
H6412 C6420 0.950 . S
H6413 C6425 0.950 . S
H6414 C6422 0.950 . S
H6415 C6424 0.950 . S
H6416 C6426 0.950 . S
H6417 C6428 0.950 . S
H6418 C6430 0.950 . S
H6419 C6431 0.950 . S
C6420 H6412 0.950 . S
C6420 C6421 1.386 . S
C6420 C6422 1.391 . S
C6421 C6420 1.386 . S
C6421 C6425 1.393 . S
C6422 H6414 0.950 . S
C6422 C6420 1.391 . S
C6422 C6423 1.400 . S
C6423 C6422 1.400 . S
C6423 C6424 1.398 . S
C6423 C6429 1.491 . S
C6424 H6415 0.950 . S
C6424 C6423 1.398 . S
C6424 C6425 1.391 . S
C6425 H6413 0.950 . S
C6425 C6421 1.393 . S
C6425 C6424 1.391 . S
C6426 H6416 0.950 . S
C6426 C6427 1.386 . S
C6426 C6428 1.391 . S
C6427 C6426 1.386 . S
C6427 C6431 1.393 . S
C6428 H6417 0.950 . S
C6428 C6426 1.391 . S
C6428 C6429 1.400 . S
C6429 C6423 1.491 . S
C6429 C6428 1.400 . S
C6429 C6430 1.398 . S
C6430 H6418 0.950 . S
C6430 C6429 1.398 . S
C6430 C6431 1.391 . S
C6431 H6419 0.950 . S
C6431 C6427 1.393 . S
C6431 C6430 1.391 . S
H6432 C6440 0.950 . S
H6433 C6445 0.950 . S
H6434 C6442 0.950 . S
H6435 C6444 0.950 . S
H6436 C6446 0.950 . S
H6437 C6448 0.950 . S
H6438 C6450 0.950 . S
H6439 C6451 0.950 . S
C6440 H6432 0.950 . S
C6440 C6441 1.386 . S
C6440 C6442 1.391 . S
C6441 C6440 1.386 . S
C6441 C6445 1.393 . S
C6442 H6434 0.950 . S
C6442 C6440 1.391 . S
C6442 C6443 1.400 . S
C6443 C6442 1.400 . S
C6443 C6444 1.398 . S
C6443 C6449 1.491 . S
C6444 H6435 0.950 . S
C6444 C6443 1.398 . S
C6444 C6445 1.391 . S
C6445 H6433 0.950 . S
C6445 C6441 1.393 . S
C6445 C6444 1.391 . S
C6446 H6436 0.950 . S
C6446 C6447 1.386 . S
C6446 C6448 1.391 . S
C6447 C6446 1.386 . S
C6447 C6451 1.393 . S
C6448 H6437 0.950 . S
C6448 C6446 1.391 . S
C6448 C6449 1.400 . S
C6449 C6443 1.491 . S
C6449 C6448 1.400 . S
C6449 C6450 1.398 . S
C6450 H6438 0.950 . S
C6450 C6449 1.398 . S
C6450 C6451 1.391 . S
C6451 H6439 0.950 . S
C6451 C6447 1.393 . S
C6451 C6450 1.391 . S
H6452 C6460 0.950 . S
H6453 C6465 0.950 . S
H6454 C6462 0.950 . S
H6455 C6464 0.950 . S
H6456 C6466 0.950 . S
H6457 C6468 0.950 . S
H6458 C6470 0.950 . S
H6459 C6471 0.950 . S
C6460 H6452 0.950 . S
C6460 C6461 1.386 . S
C6460 C6462 1.391 . S
C6461 C6460 1.386 . S
C6461 C6465 1.393 . S
C6462 H6454 0.950 . S
C6462 C6460 1.391 . S
C6462 C6463 1.400 . S
C6463 C6462 1.400 . S
C6463 C6464 1.398 . S
C6463 C6469 1.491 . S
C6464 H6455 0.950 . S
C6464 C6463 1.398 . S
C6464 C6465 1.391 . S
C6465 H6453 0.950 . S
C6465 C6461 1.393 . S
C6465 C6464 1.391 . S
C6466 H6456 0.950 . S
C6466 C6467 1.386 . S
C6466 C6468 1.391 . S
C6467 C6466 1.386 . S
C6467 C6471 1.393 . S
C6468 H6457 0.950 . S
C6468 C6466 1.391 . S
C6468 C6469 1.400 . S
C6469 C6463 1.491 . S
C6469 C6468 1.400 . S
C6469 C6470 1.398 . S
C6470 H6458 0.950 . S
C6470 C6469 1.398 . S
C6470 C6471 1.391 . S
C6471 H6459 0.950 . S
C6471 C6467 1.393 . S
C6471 C6470 1.391 . S
H6472 C6480 0.950 . S
H6473 C6485 0.950 . S
H6474 C6482 0.950 . S
H6475 C6484 0.950 . S
H6476 C6486 0.950 . S
H6477 C6488 0.950 . S
H6478 C6490 0.950 . S
H6479 C6491 0.950 . S
C6480 H6472 0.950 . S
C6480 C6481 1.386 . S
C6480 C6482 1.391 . S
C6481 C6480 1.386 . S
C6481 C6485 1.393 . S
C6482 H6474 0.950 . S
C6482 C6480 1.391 . S
C6482 C6483 1.400 . S
C6483 C6482 1.400 . S
C6483 C6484 1.398 . S
C6483 C6489 1.491 . S
C6484 H6475 0.950 . S
C6484 C6483 1.398 . S
C6484 C6485 1.391 . S
C6485 H6473 0.950 . S
C6485 C6481 1.393 . S
C6485 C6484 1.391 . S
C6486 H6476 0.950 . S
C6486 C6487 1.386 . S
C6486 C6488 1.391 . S
C6487 C6486 1.386 . S
C6487 C6491 1.393 . S
C6488 H6477 0.950 . S
C6488 C6486 1.391 . S
C6488 C6489 1.400 . S
C6489 C6483 1.491 . S
C6489 C6488 1.400 . S
C6489 C6490 1.398 . S
C6490 H6478 0.950 . S
C6490 C6489 1.398 . S
C6490 C6491 1.391 . S
C6491 H6479 0.950 . S
C6491 C6487 1.393 . S
C6491 C6490 1.391 . S
H6492 C6500 0.950 . S
H6493 C6505 0.950 . S
H6494 C6502 0.950 . S
H6495 C6504 0.950 . S
H6496 C6506 0.950 . S
H6497 C6508 0.950 . S
H6498 C6510 0.950 . S
H6499 C6511 0.950 . S
C6500 H6492 0.950 . S
C6500 C6501 1.386 . S
C6500 C6502 1.391 . S
C6501 C6500 1.386 . S
C6501 C6505 1.393 . S
C6502 H6494 0.950 . S
C6502 C6500 1.391 . S
C6502 C6503 1.400 . S
C6503 C6502 1.400 . S
C6503 C6504 1.398 . S
C6503 C6509 1.491 . S
C6504 H6495 0.950 . S
C6504 C6503 1.398 . S
C6504 C6505 1.391 . S
C6505 H6493 0.950 . S
C6505 C6501 1.393 . S
C6505 C6504 1.391 . S
C6506 H6496 0.950 . S
C6506 C6507 1.386 . S
C6506 C6508 1.391 . S
C6507 C6506 1.386 . S
C6507 C6511 1.393 . S
C6508 H6497 0.950 . S
C6508 C6506 1.391 . S
C6508 C6509 1.400 . S
C6509 C6503 1.491 . S
C6509 C6508 1.400 . S
C6509 C6510 1.398 . S
C6510 H6498 0.950 . S
C6510 C6509 1.398 . S
C6510 C6511 1.391 . S
C6511 H6499 0.950 . S
C6511 C6507 1.393 . S
C6511 C6510 1.391 . S
H6512 C6520 0.950 . S
H6513 C6525 0.950 . S
H6514 C6522 0.950 . S
H6515 C6524 0.950 . S
H6516 C6526 0.950 . S
H6517 C6528 0.950 . S
H6518 C6530 0.950 . S
H6519 C6531 0.950 . S
C6520 H6512 0.950 . S
C6520 C6521 1.386 . S
C6520 C6522 1.391 . S
C6521 C6520 1.386 . S
C6521 C6525 1.393 . S
C6522 H6514 0.950 . S
C6522 C6520 1.391 . S
C6522 C6523 1.400 . S
C6523 C6522 1.400 . S
C6523 C6524 1.398 . S
C6523 C6529 1.491 . S
C6524 H6515 0.950 . S
C6524 C6523 1.398 . S
C6524 C6525 1.391 . S
C6525 H6513 0.950 . S
C6525 C6521 1.393 . S
C6525 C6524 1.391 . S
C6526 H6516 0.950 . S
C6526 C6527 1.386 . S
C6526 C6528 1.391 . S
C6527 C6526 1.386 . S
C6527 C6531 1.393 . S
C6528 H6517 0.950 . S
C6528 C6526 1.391 . S
C6528 C6529 1.400 . S
C6529 C6523 1.491 . S
C6529 C6528 1.400 . S
C6529 C6530 1.398 . S
C6530 H6518 0.950 . S
C6530 C6529 1.398 . S
C6530 C6531 1.391 . S
C6531 H6519 0.950 . S
C6531 C6527 1.393 . S
C6531 C6530 1.391 . S
H6532 C6540 0.950 . S
H6533 C6545 0.950 . S
H6534 C6542 0.950 . S
H6535 C6544 0.950 . S
H6536 C6546 0.950 . S
H6537 C6548 0.950 . S
H6538 C6550 0.950 . S
H6539 C6551 0.950 . S
C6540 H6532 0.950 . S
C6540 C6541 1.386 . S
C6540 C6542 1.391 . S
C6541 C6540 1.386 . S
C6541 C6545 1.393 . S
C6542 H6534 0.950 . S
C6542 C6540 1.391 . S
C6542 C6543 1.400 . S
C6543 C6542 1.400 . S
C6543 C6544 1.398 . S
C6543 C6549 1.491 . S
C6544 H6535 0.950 . S
C6544 C6543 1.398 . S
C6544 C6545 1.391 . S
C6545 H6533 0.950 . S
C6545 C6541 1.393 . S
C6545 C6544 1.391 . S
C6546 H6536 0.950 . S
C6546 C6547 1.386 . S
C6546 C6548 1.391 . S
C6547 C6546 1.386 . S
C6547 C6551 1.393 . S
C6548 H6537 0.950 . S
C6548 C6546 1.391 . S
C6548 C6549 1.400 . S
C6549 C6543 1.491 . S
C6549 C6548 1.400 . S
C6549 C6550 1.398 . S
C6550 H6538 0.950 . S
C6550 C6549 1.398 . S
C6550 C6551 1.391 . S
C6551 H6539 0.950 . S
C6551 C6547 1.393 . S
C6551 C6550 1.391 . S
H6552 C6560 0.950 . S
H6553 C6565 0.950 . S
H6554 C6562 0.950 . S
H6555 C6564 0.950 . S
H6556 C6566 0.950 . S
H6557 C6568 0.950 . S
H6558 C6570 0.950 . S
H6559 C6571 0.950 . S
C6560 H6552 0.950 . S
C6560 C6561 1.386 . S
C6560 C6562 1.391 . S
C6561 C6560 1.386 . S
C6561 C6565 1.393 . S
C6562 H6554 0.950 . S
C6562 C6560 1.391 . S
C6562 C6563 1.400 . S
C6563 C6562 1.400 . S
C6563 C6564 1.398 . S
C6563 C6569 1.491 . S
C6564 H6555 0.950 . S
C6564 C6563 1.398 . S
C6564 C6565 1.391 . S
C6565 H6553 0.950 . S
C6565 C6561 1.393 . S
C6565 C6564 1.391 . S
C6566 H6556 0.950 . S
C6566 C6567 1.386 . S
C6566 C6568 1.391 . S
C6567 C6566 1.386 . S
C6567 C6571 1.393 . S
C6568 H6557 0.950 . S
C6568 C6566 1.391 . S
C6568 C6569 1.400 . S
C6569 C6563 1.491 . S
C6569 C6568 1.400 . S
C6569 C6570 1.398 . S
C6570 H6558 0.950 . S
C6570 C6569 1.398 . S
C6570 C6571 1.391 . S
C6571 H6559 0.950 . S
C6571 C6567 1.393 . S
C6571 C6570 1.391 . S
H6572 C6580 0.950 . S
H6573 C6585 0.950 . S
H6574 C6582 0.950 . S
H6575 C6584 0.950 . S
H6576 C6586 0.950 . S
H6577 C6588 0.950 . S
H6578 C6590 0.950 . S
H6579 C6591 0.950 . S
C6580 H6572 0.950 . S
C6580 C6581 1.386 . S
C6580 C6582 1.391 . S
C6581 C6580 1.386 . S
C6581 C6585 1.393 . S
C6582 H6574 0.950 . S
C6582 C6580 1.391 . S
C6582 C6583 1.400 . S
C6583 C6582 1.400 . S
C6583 C6584 1.398 . S
C6583 C6589 1.491 . S
C6584 H6575 0.950 . S
C6584 C6583 1.398 . S
C6584 C6585 1.391 . S
C6585 H6573 0.950 . S
C6585 C6581 1.393 . S
C6585 C6584 1.391 . S
C6586 H6576 0.950 . S
C6586 C6587 1.386 . S
C6586 C6588 1.391 . S
C6587 C6586 1.386 . S
C6587 C6591 1.393 . S
C6588 H6577 0.950 . S
C6588 C6586 1.391 . S
C6588 C6589 1.400 . S
C6589 C6583 1.491 . S
C6589 C6588 1.400 . S
C6589 C6590 1.398 . S
C6590 H6578 0.950 . S
C6590 C6589 1.398 . S
C6590 C6591 1.391 . S
C6591 H6579 0.950 . S
C6591 C6587 1.393 . S
C6591 C6590 1.391 . S
H6592 C6600 0.950 . S
H6593 C6605 0.950 . S
H6594 C6602 0.950 . S
H6595 C6604 0.950 . S
H6596 C6606 0.950 . S
H6597 C6608 0.950 . S
H6598 C6610 0.950 . S
H6599 C6611 0.950 . S
C6600 H6592 0.950 . S
C6600 C6601 1.386 . S
C6600 C6602 1.391 . S
C6601 C6600 1.386 . S
C6601 C6605 1.393 . S
C6602 H6594 0.950 . S
C6602 C6600 1.391 . S
C6602 C6603 1.400 . S
C6603 C6602 1.400 . S
C6603 C6604 1.398 . S
C6603 C6609 1.491 . S
C6604 H6595 0.950 . S
C6604 C6603 1.398 . S
C6604 C6605 1.391 . S
C6605 H6593 0.950 . S
C6605 C6601 1.393 . S
C6605 C6604 1.391 . S
C6606 H6596 0.950 . S
C6606 C6607 1.386 . S
C6606 C6608 1.391 . S
C6607 C6606 1.386 . S
C6607 C6611 1.393 . S
C6608 H6597 0.950 . S
C6608 C6606 1.391 . S
C6608 C6609 1.400 . S
C6609 C6603 1.491 . S
C6609 C6608 1.400 . S
C6609 C6610 1.398 . S
C6610 H6598 0.950 . S
C6610 C6609 1.398 . S
C6610 C6611 1.391 . S
C6611 H6599 0.950 . S
C6611 C6607 1.393 . S
C6611 C6610 1.391 . S
H6612 C6620 0.950 . S
H6613 C6625 0.950 . S
H6614 C6622 0.950 . S
H6615 C6624 0.950 . S
H6616 C6626 0.950 . S
H6617 C6628 0.950 . S
H6618 C6630 0.950 . S
H6619 C6631 0.950 . S
C6620 H6612 0.950 . S
C6620 C6621 1.386 . S
C6620 C6622 1.391 . S
C6621 C6620 1.386 . S
C6621 C6625 1.393 . S
C6622 H6614 0.950 . S
C6622 C6620 1.391 . S
C6622 C6623 1.400 . S
C6623 C6622 1.400 . S
C6623 C6624 1.398 . S
C6623 C6629 1.491 . S
C6624 H6615 0.950 . S
C6624 C6623 1.398 . S
C6624 C6625 1.391 . S
C6625 H6613 0.950 . S
C6625 C6621 1.393 . S
C6625 C6624 1.391 . S
C6626 H6616 0.950 . S
C6626 C6627 1.386 . S
C6626 C6628 1.391 . S
C6627 C6626 1.386 . S
C6627 C6631 1.393 . S
C6628 H6617 0.950 . S
C6628 C6626 1.391 . S
C6628 C6629 1.400 . S
C6629 C6623 1.491 . S
C6629 C6628 1.400 . S
C6629 C6630 1.398 . S
C6630 H6618 0.950 . S
C6630 C6629 1.398 . S
C6630 C6631 1.391 . S
C6631 H6619 0.950 . S
C6631 C6627 1.393 . S
C6631 C6630 1.391 . S
H6632 C6640 0.950 . S
H6633 C6645 0.950 . S
H6634 C6642 0.950 . S
H6635 C6644 0.950 . S
H6636 C6646 0.950 . S
H6637 C6648 0.950 . S
H6638 C6650 0.950 . S
H6639 C6651 0.950 . S
C6640 H6632 0.950 . S
C6640 C6641 1.386 . S
C6640 C6642 1.391 . S
C6641 C6640 1.386 . S
C6641 C6645 1.393 . S
C6642 H6634 0.950 . S
C6642 C6640 1.391 . S
C6642 C6643 1.400 . S
C6643 C6642 1.400 . S
C6643 C6644 1.398 . S
C6643 C6649 1.491 . S
C6644 H6635 0.950 . S
C6644 C6643 1.398 . S
C6644 C6645 1.391 . S
C6645 H6633 0.950 . S
C6645 C6641 1.393 . S
C6645 C6644 1.391 . S
C6646 H6636 0.950 . S
C6646 C6647 1.386 . S
C6646 C6648 1.391 . S
C6647 C6646 1.386 . S
C6647 C6651 1.393 . S
C6648 H6637 0.950 . S
C6648 C6646 1.391 . S
C6648 C6649 1.400 . S
C6649 C6643 1.491 . S
C6649 C6648 1.400 . S
C6649 C6650 1.398 . S
C6650 H6638 0.950 . S
C6650 C6649 1.398 . S
C6650 C6651 1.391 . S
C6651 H6639 0.950 . S
C6651 C6647 1.393 . S
C6651 C6650 1.391 . S
H6652 C6660 0.950 . S
H6653 C6665 0.950 . S
H6654 C6662 0.950 . S
H6655 C6664 0.950 . S
H6656 C6666 0.950 . S
H6657 C6668 0.950 . S
H6658 C6670 0.950 . S
H6659 C6671 0.950 . S
C6660 H6652 0.950 . S
C6660 C6661 1.386 . S
C6660 C6662 1.391 . S
C6661 C6660 1.386 . S
C6661 C6665 1.393 . S
C6662 H6654 0.950 . S
C6662 C6660 1.391 . S
C6662 C6663 1.400 . S
C6663 C6662 1.400 . S
C6663 C6664 1.398 . S
C6663 C6669 1.491 . S
C6664 H6655 0.950 . S
C6664 C6663 1.398 . S
C6664 C6665 1.391 . S
C6665 H6653 0.950 . S
C6665 C6661 1.393 . S
C6665 C6664 1.391 . S
C6666 H6656 0.950 . S
C6666 C6667 1.386 . S
C6666 C6668 1.391 . S
C6667 C6666 1.386 . S
C6667 C6671 1.393 . S
C6668 H6657 0.950 . S
C6668 C6666 1.391 . S
C6668 C6669 1.400 . S
C6669 C6663 1.491 . S
C6669 C6668 1.400 . S
C6669 C6670 1.398 . S
C6670 H6658 0.950 . S
C6670 C6669 1.398 . S
C6670 C6671 1.391 . S
C6671 H6659 0.950 . S
C6671 C6667 1.393 . S
C6671 C6670 1.391 . S
H6672 C6680 0.950 . S
H6673 C6685 0.950 . S
H6674 C6682 0.950 . S
H6675 C6684 0.950 . S
H6676 C6686 0.950 . S
H6677 C6688 0.950 . S
H6678 C6690 0.950 . S
H6679 C6691 0.950 . S
C6680 H6672 0.950 . S
C6680 C6681 1.386 . S
C6680 C6682 1.391 . S
C6681 C6680 1.386 . S
C6681 C6685 1.393 . S
C6682 H6674 0.950 . S
C6682 C6680 1.391 . S
C6682 C6683 1.400 . S
C6683 C6682 1.400 . S
C6683 C6684 1.398 . S
C6683 C6689 1.491 . S
C6684 H6675 0.950 . S
C6684 C6683 1.398 . S
C6684 C6685 1.391 . S
C6685 H6673 0.950 . S
C6685 C6681 1.393 . S
C6685 C6684 1.391 . S
C6686 H6676 0.950 . S
C6686 C6687 1.386 . S
C6686 C6688 1.391 . S
C6687 C6686 1.386 . S
C6687 C6691 1.393 . S
C6688 H6677 0.950 . S
C6688 C6686 1.391 . S
C6688 C6689 1.400 . S
C6689 C6683 1.491 . S
C6689 C6688 1.400 . S
C6689 C6690 1.398 . S
C6690 H6678 0.950 . S
C6690 C6689 1.398 . S
C6690 C6691 1.391 . S
C6691 H6679 0.950 . S
C6691 C6687 1.393 . S
C6691 C6690 1.391 . S
H6692 C6700 0.950 . S
H6693 C6705 0.950 . S
H6694 C6702 0.950 . S
H6695 C6704 0.950 . S
H6696 C6706 0.950 . S
H6697 C6708 0.950 . S
H6698 C6710 0.950 . S
H6699 C6711 0.950 . S
C6700 H6692 0.950 . S
C6700 C6701 1.386 . S
C6700 C6702 1.391 . S
C6701 C6700 1.386 . S
C6701 C6705 1.393 . S
C6702 H6694 0.950 . S
C6702 C6700 1.391 . S
C6702 C6703 1.400 . S
C6703 C6702 1.400 . S
C6703 C6704 1.398 . S
C6703 C6709 1.491 . S
C6704 H6695 0.950 . S
C6704 C6703 1.398 . S
C6704 C6705 1.391 . S
C6705 H6693 0.950 . S
C6705 C6701 1.393 . S
C6705 C6704 1.391 . S
C6706 H6696 0.950 . S
C6706 C6707 1.386 . S
C6706 C6708 1.391 . S
C6707 C6706 1.386 . S
C6707 C6711 1.393 . S
C6708 H6697 0.950 . S
C6708 C6706 1.391 . S
C6708 C6709 1.400 . S
C6709 C6703 1.491 . S
C6709 C6708 1.400 . S
C6709 C6710 1.398 . S
C6710 H6698 0.950 . S
C6710 C6709 1.398 . S
C6710 C6711 1.391 . S
C6711 H6699 0.950 . S
C6711 C6707 1.393 . S
C6711 C6710 1.391 . S
H6712 C6720 0.950 . S
H6713 C6725 0.950 . S
H6714 C6722 0.950 . S
H6715 C6724 0.950 . S
H6716 C6726 0.950 . S
H6717 C6728 0.950 . S
H6718 C6730 0.950 . S
H6719 C6731 0.950 . S
C6720 H6712 0.950 . S
C6720 C6721 1.386 . S
C6720 C6722 1.391 . S
C6721 C6720 1.386 . S
C6721 C6725 1.393 . S
C6722 H6714 0.950 . S
C6722 C6720 1.391 . S
C6722 C6723 1.400 . S
C6723 C6722 1.400 . S
C6723 C6724 1.398 . S
C6723 C6729 1.491 . S
C6724 H6715 0.950 . S
C6724 C6723 1.398 . S
C6724 C6725 1.391 . S
C6725 H6713 0.950 . S
C6725 C6721 1.393 . S
C6725 C6724 1.391 . S
C6726 H6716 0.950 . S
C6726 C6727 1.386 . S
C6726 C6728 1.391 . S
C6727 C6726 1.386 . S
C6727 C6731 1.393 . S
C6728 H6717 0.950 . S
C6728 C6726 1.391 . S
C6728 C6729 1.400 . S
C6729 C6723 1.491 . S
C6729 C6728 1.400 . S
C6729 C6730 1.398 . S
C6730 H6718 0.950 . S
C6730 C6729 1.398 . S
C6730 C6731 1.391 . S
C6731 H6719 0.950 . S
C6731 C6727 1.393 . S
C6731 C6730 1.391 . S
H6732 C6740 0.950 . S
H6733 C6745 0.950 . S
H6734 C6742 0.950 . S
H6735 C6744 0.950 . S
H6736 C6746 0.950 . S
H6737 C6748 0.950 . S
H6738 C6750 0.950 . S
H6739 C6751 0.950 . S
C6740 H6732 0.950 . S
C6740 C6741 1.386 . S
C6740 C6742 1.391 . S
C6741 C6740 1.386 . S
C6741 C6745 1.393 . S
C6742 H6734 0.950 . S
C6742 C6740 1.391 . S
C6742 C6743 1.400 . S
C6743 C6742 1.400 . S
C6743 C6744 1.398 . S
C6743 C6749 1.491 . S
C6744 H6735 0.950 . S
C6744 C6743 1.398 . S
C6744 C6745 1.391 . S
C6745 H6733 0.950 . S
C6745 C6741 1.393 . S
C6745 C6744 1.391 . S
C6746 H6736 0.950 . S
C6746 C6747 1.386 . S
C6746 C6748 1.391 . S
C6747 C6746 1.386 . S
C6747 C6751 1.393 . S
C6748 H6737 0.950 . S
C6748 C6746 1.391 . S
C6748 C6749 1.400 . S
C6749 C6743 1.491 . S
C6749 C6748 1.400 . S
C6749 C6750 1.398 . S
C6750 H6738 0.950 . S
C6750 C6749 1.398 . S
C6750 C6751 1.391 . S
C6751 H6739 0.950 . S
C6751 C6747 1.393 . S
C6751 C6750 1.391 . S
H6752 C6760 0.950 . S
H6753 C6765 0.950 . S
H6754 C6762 0.950 . S
H6755 C6764 0.950 . S
H6756 C6766 0.950 . S
H6757 C6768 0.950 . S
H6758 C6770 0.950 . S
H6759 C6771 0.950 . S
C6760 H6752 0.950 . S
C6760 C6761 1.386 . S
C6760 C6762 1.391 . S
C6761 C6760 1.386 . S
C6761 C6765 1.393 . S
C6762 H6754 0.950 . S
C6762 C6760 1.391 . S
C6762 C6763 1.400 . S
C6763 C6762 1.400 . S
C6763 C6764 1.398 . S
C6763 C6769 1.491 . S
C6764 H6755 0.950 . S
C6764 C6763 1.398 . S
C6764 C6765 1.391 . S
C6765 H6753 0.950 . S
C6765 C6761 1.393 . S
C6765 C6764 1.391 . S
C6766 H6756 0.950 . S
C6766 C6767 1.386 . S
C6766 C6768 1.391 . S
C6767 C6766 1.386 . S
C6767 C6771 1.393 . S
C6768 H6757 0.950 . S
C6768 C6766 1.391 . S
C6768 C6769 1.400 . S
C6769 C6763 1.491 . S
C6769 C6768 1.400 . S
C6769 C6770 1.398 . S
C6770 H6758 0.950 . S
C6770 C6769 1.398 . S
C6770 C6771 1.391 . S
C6771 H6759 0.950 . S
C6771 C6767 1.393 . S
C6771 C6770 1.391 . S
H6772 C6780 0.950 . S
H6773 C6785 0.950 . S
H6774 C6782 0.950 . S
H6775 C6784 0.950 . S
H6776 C6786 0.950 . S
H6777 C6788 0.950 . S
H6778 C6790 0.950 . S
H6779 C6791 0.950 . S
C6780 H6772 0.950 . S
C6780 C6781 1.386 . S
C6780 C6782 1.391 . S
C6781 C6780 1.386 . S
C6781 C6785 1.393 . S
C6782 H6774 0.950 . S
C6782 C6780 1.391 . S
C6782 C6783 1.400 . S
C6783 C6782 1.400 . S
C6783 C6784 1.398 . S
C6783 C6789 1.491 . S
C6784 H6775 0.950 . S
C6784 C6783 1.398 . S
C6784 C6785 1.391 . S
C6785 H6773 0.950 . S
C6785 C6781 1.393 . S
C6785 C6784 1.391 . S
C6786 H6776 0.950 . S
C6786 C6787 1.386 . S
C6786 C6788 1.391 . S
C6787 C6786 1.386 . S
C6787 C6791 1.393 . S
C6788 H6777 0.950 . S
C6788 C6786 1.391 . S
C6788 C6789 1.400 . S
C6789 C6783 1.491 . S
C6789 C6788 1.400 . S
C6789 C6790 1.398 . S
C6790 H6778 0.950 . S
C6790 C6789 1.398 . S
C6790 C6791 1.391 . S
C6791 H6779 0.950 . S
C6791 C6787 1.393 . S
C6791 C6790 1.391 . S
H6792 C6800 0.950 . S
H6793 C6805 0.950 . S
H6794 C6802 0.950 . S
H6795 C6804 0.950 . S
H6796 C6806 0.950 . S
H6797 C6808 0.950 . S
H6798 C6810 0.950 . S
H6799 C6811 0.950 . S
C6800 H6792 0.950 . S
C6800 C6801 1.386 . S
C6800 C6802 1.391 . S
C6801 C6800 1.386 . S
C6801 C6805 1.393 . S
C6802 H6794 0.950 . S
C6802 C6800 1.391 . S
C6802 C6803 1.400 . S
C6803 C6802 1.400 . S
C6803 C6804 1.398 . S
C6803 C6809 1.491 . S
C6804 H6795 0.950 . S
C6804 C6803 1.398 . S
C6804 C6805 1.391 . S
C6805 H6793 0.950 . S
C6805 C6801 1.393 . S
C6805 C6804 1.391 . S
C6806 H6796 0.950 . S
C6806 C6807 1.386 . S
C6806 C6808 1.391 . S
C6807 C6806 1.386 . S
C6807 C6811 1.393 . S
C6808 H6797 0.950 . S
C6808 C6806 1.391 . S
C6808 C6809 1.400 . S
C6809 C6803 1.491 . S
C6809 C6808 1.400 . S
C6809 C6810 1.398 . S
C6810 H6798 0.950 . S
C6810 C6809 1.398 . S
C6810 C6811 1.391 . S
C6811 H6799 0.950 . S
C6811 C6807 1.393 . S
C6811 C6810 1.391 . S
H6812 C6820 0.950 . S
H6813 C6825 0.950 . S
H6814 C6822 0.950 . S
H6815 C6824 0.950 . S
H6816 C6826 0.950 . S
H6817 C6828 0.950 . S
H6818 C6830 0.950 . S
H6819 C6831 0.950 . S
C6820 H6812 0.950 . S
C6820 C6821 1.386 . S
C6820 C6822 1.391 . S
C6821 C6820 1.386 . S
C6821 C6825 1.393 . S
C6822 H6814 0.950 . S
C6822 C6820 1.391 . S
C6822 C6823 1.400 . S
C6823 C6822 1.400 . S
C6823 C6824 1.398 . S
C6823 C6829 1.491 . S
C6824 H6815 0.950 . S
C6824 C6823 1.398 . S
C6824 C6825 1.391 . S
C6825 H6813 0.950 . S
C6825 C6821 1.393 . S
C6825 C6824 1.391 . S
C6826 H6816 0.950 . S
C6826 C6827 1.386 . S
C6826 C6828 1.391 . S
C6827 C6826 1.386 . S
C6827 C6831 1.393 . S
C6828 H6817 0.950 . S
C6828 C6826 1.391 . S
C6828 C6829 1.400 . S
C6829 C6823 1.491 . S
C6829 C6828 1.400 . S
C6829 C6830 1.398 . S
C6830 H6818 0.950 . S
C6830 C6829 1.398 . S
C6830 C6831 1.391 . S
C6831 H6819 0.950 . S
C6831 C6827 1.393 . S
C6831 C6830 1.391 . S
H6832 C6840 0.950 . S
H6833 C6845 0.950 . S
H6834 C6842 0.950 . S
H6835 C6844 0.950 . S
H6836 C6846 0.950 . S
H6837 C6848 0.950 . S
H6838 C6850 0.950 . S
H6839 C6851 0.950 . S
C6840 H6832 0.950 . S
C6840 C6841 1.386 . S
C6840 C6842 1.391 . S
C6841 C6840 1.386 . S
C6841 C6845 1.393 . S
C6842 H6834 0.950 . S
C6842 C6840 1.391 . S
C6842 C6843 1.400 . S
C6843 C6842 1.400 . S
C6843 C6844 1.398 . S
C6843 C6849 1.491 . S
C6844 H6835 0.950 . S
C6844 C6843 1.398 . S
C6844 C6845 1.391 . S
C6845 H6833 0.950 . S
C6845 C6841 1.393 . S
C6845 C6844 1.391 . S
C6846 H6836 0.950 . S
C6846 C6847 1.386 . S
C6846 C6848 1.391 . S
C6847 C6846 1.386 . S
C6847 C6851 1.393 . S
C6848 H6837 0.950 . S
C6848 C6846 1.391 . S
C6848 C6849 1.400 . S
C6849 C6843 1.491 . S
C6849 C6848 1.400 . S
C6849 C6850 1.398 . S
C6850 H6838 0.950 . S
C6850 C6849 1.398 . S
C6850 C6851 1.391 . S
C6851 H6839 0.950 . S
C6851 C6847 1.393 . S
C6851 C6850 1.391 . S
H6852 C6860 0.950 . S
H6853 C6865 0.950 . S
H6854 C6862 0.950 . S
H6855 C6864 0.950 . S
H6856 C6866 0.950 . S
H6857 C6868 0.950 . S
H6858 C6870 0.950 . S
H6859 C6871 0.950 . S
C6860 H6852 0.950 . S
C6860 C6861 1.386 . S
C6860 C6862 1.391 . S
C6861 C6860 1.386 . S
C6861 C6865 1.393 . S
C6862 H6854 0.950 . S
C6862 C6860 1.391 . S
C6862 C6863 1.400 . S
C6863 C6862 1.400 . S
C6863 C6864 1.398 . S
C6863 C6869 1.491 . S
C6864 H6855 0.950 . S
C6864 C6863 1.398 . S
C6864 C6865 1.391 . S
C6865 H6853 0.950 . S
C6865 C6861 1.393 . S
C6865 C6864 1.391 . S
C6866 H6856 0.950 . S
C6866 C6867 1.386 . S
C6866 C6868 1.391 . S
C6867 C6866 1.386 . S
C6867 C6871 1.393 . S
C6868 H6857 0.950 . S
C6868 C6866 1.391 . S
C6868 C6869 1.400 . S
C6869 C6863 1.491 . S
C6869 C6868 1.400 . S
C6869 C6870 1.398 . S
C6870 H6858 0.950 . S
C6870 C6869 1.398 . S
C6870 C6871 1.391 . S
C6871 H6859 0.950 . S
C6871 C6867 1.393 . S
C6871 C6870 1.391 . S
H6872 C6880 0.950 . S
H6873 C6885 0.950 . S
H6874 C6882 0.950 . S
H6875 C6884 0.950 . S
H6876 C6886 0.950 . S
H6877 C6888 0.950 . S
H6878 C6890 0.950 . S
H6879 C6891 0.950 . S
C6880 H6872 0.950 . S
C6880 C6881 1.386 . S
C6880 C6882 1.391 . S
C6881 C6880 1.386 . S
C6881 C6885 1.393 . S
C6882 H6874 0.950 . S
C6882 C6880 1.391 . S
C6882 C6883 1.400 . S
C6883 C6882 1.400 . S
C6883 C6884 1.398 . S
C6883 C6889 1.491 . S
C6884 H6875 0.950 . S
C6884 C6883 1.398 . S
C6884 C6885 1.391 . S
C6885 H6873 0.950 . S
C6885 C6881 1.393 . S
C6885 C6884 1.391 . S
C6886 H6876 0.950 . S
C6886 C6887 1.386 . S
C6886 C6888 1.391 . S
C6887 C6886 1.386 . S
C6887 C6891 1.393 . S
C6888 H6877 0.950 . S
C6888 C6886 1.391 . S
C6888 C6889 1.400 . S
C6889 C6883 1.491 . S
C6889 C6888 1.400 . S
C6889 C6890 1.398 . S
C6890 H6878 0.950 . S
C6890 C6889 1.398 . S
C6890 C6891 1.391 . S
C6891 H6879 0.950 . S
C6891 C6887 1.393 . S
C6891 C6890 1.391 . S
H6892 C6900 0.950 . S
H6893 C6905 0.950 . S
H6894 C6902 0.950 . S
H6895 C6904 0.950 . S
H6896 C6906 0.950 . S
H6897 C6908 0.950 . S
H6898 C6910 0.950 . S
H6899 C6911 0.950 . S
C6900 H6892 0.950 . S
C6900 C6901 1.386 . S
C6900 C6902 1.391 . S
C6901 C6900 1.386 . S
C6901 C6905 1.393 . S
C6902 H6894 0.950 . S
C6902 C6900 1.391 . S
C6902 C6903 1.400 . S
C6903 C6902 1.400 . S
C6903 C6904 1.398 . S
C6903 C6909 1.491 . S
C6904 H6895 0.950 . S
C6904 C6903 1.398 . S
C6904 C6905 1.391 . S
C6905 H6893 0.950 . S
C6905 C6901 1.393 . S
C6905 C6904 1.391 . S
C6906 H6896 0.950 . S
C6906 C6907 1.386 . S
C6906 C6908 1.391 . S
C6907 C6906 1.386 . S
C6907 C6911 1.393 . S
C6908 H6897 0.950 . S
C6908 C6906 1.391 . S
C6908 C6909 1.400 . S
C6909 C6903 1.491 . S
C6909 C6908 1.400 . S
C6909 C6910 1.398 . S
C6910 H6898 0.950 . S
C6910 C6909 1.398 . S
C6910 C6911 1.391 . S
C6911 H6899 0.950 . S
C6911 C6907 1.393 . S
C6911 C6910 1.391 . S
C4041 C67 3.382 . S
C4047 C403 3.384 . S
C4061 C151 3.387 . S
C4067 C487 3.377 . S
C4081 C571 3.313 . S
C4087 C231 3.350 . S
C4101 C651 3.359 . S
C4107 C319 3.323 1_556 S
C4121 C739 3.384 . S
C4127 C819 3.417 . S
C4141 C823 3.302 . S
C4147 C903 3.339 . S
C4161 C987 3.332 . S
C4167 C907 3.300 . S
C4181 C991 3.383 . S
C4187 C735 3.427 . S
C4201 C1071 3.292 . S
C4207 C315 3.292 . S
C4221 C655 3.225 . S
C4227 C2835 3.264 . S
C4241 C399 3.283 . S
C4247 C1155 3.273 1_455 S
C4261 C483 3.259 . S
C4267 C2923 3.217 . S
C4281 C147 3.294 . S
C4287 C1239 3.293 . S
C4301 C2671 3.243 1_455 S
C4307 C63 3.282 . S
C4321 C2583 3.275 . S
C4327 C235 3.235 . S
C4341 C1652 3.385 . S
C4347 C1316 3.379 . S
C4361 C1400 3.387 . S
C4367 C1736 3.377 . S
C4381 C1502 3.352 . S
C4387 C1820 3.310 . S
C4401 C1568 3.325 . S
C4407 C1922 3.359 . S
C4421 C2090 3.423 . S
C4427 C1988 3.386 . S
C4441 C2072 3.297 . S
C4447 C2174 3.331 . S
C4461 C2258 3.334 . S
C4467 C2156 3.302 . S
C4481 C2006 3.417 . S
C4487 C2240 3.379 . S
C4501 C1586 3.289 . S
C4507 C2342 3.289 . S
C4521 C3602 3.259 . S
C4527 C1904 3.228 . S
C4541 C2426 3.273 1_655 S
C4547 C1670 3.282 . S
C4561 C1754 3.264 . S
C4567 C3668 3.222 . S
C4581 C2510 3.297 . S
C4587 C1418 3.297 . S
C4601 C1334 3.279 . S
C4607 C3416 3.235 . S
C4621 C1484 3.245 . S
C4627 C3350 3.277 . S
C4641 C2755 3.384 . S
C4647 C2587 3.380 . S
C4661 C2839 3.383 . S
C4667 C1075 3.380 . S
C4681 C2667 3.358 . S
C4687 C1159 3.314 . S
C4701 C2919 3.358 . S
C4707 C1243 3.323 . S
C4721 C3007 3.380 . S
C4727 C3087 3.424 . S
C4741 C3091 3.302 . S
C4747 C3171 3.339 . S
C4761 C3255 3.331 . S
C4767 C3175 3.295 . S
C4781 C3003 3.420 . S
C4787 C3259 3.386 . S
C4801 C567 3.274 . S
C4807 C2751 3.275 . S
C4821 C3500 3.385 . S
C4827 C3332 3.379 . S
C4841 C3584 3.386 . S
C4847 C2324 3.377 . S
C4861 C2408 3.320 . S
C4867 C3434 3.358 . S
C4881 C3686 3.351 . S
C4887 C2492 3.317 . S
C4901 C3752 3.382 . S
C4907 C3854 3.416 . S
C4921 C3836 3.302 . S
C4927 C3938 3.333 . S
C4941 C3920 3.293 . S
C4947 C4022 3.338 . S
C4961 C4004 3.377 . S
C4967 C3770 3.418 . S
C4981 C3518 3.274 . S
C4987 C1838 3.273 . S
C5001 C56 0.784 . S
C5007 C1414 0.759 . S
C5021 C3418 0.785 . S
C5027 C140 0.815 . S
C5041 C242 0.769 . S
C5047 C1582 0.722 . S
C5061 C308 0.766 . S
C5067 C3346 0.735 . S
C5081 C392 0.811 . S
C5087 C1906 0.858 . S
C5101 C476 0.769 . S
C5107 C3514 0.794 . S
C5121 C560 0.758 . S
C5127 C1750 0.781 . S
C5141 C2422 0.788 . S
C5147 C662 0.751 . S
C5161 C728 0.813 . S
C5167 C3334 0.791 . S
C5181 C812 0.815 . S
C5187 C1402 0.792 . S
C5201 C896 0.769 . S
C5207 C3430 0.793 . S
C5221 C1570 0.789 . S
C5227 C980 0.821 . S
C5241 C3502 0.772 . S
C5247 C998 0.708 . S
C5261 C1738 0.706 . S
C5267 C746 0.767 . S
C5281 C830 0.787 . S
C5287 C2410 0.741 . S
C5301 C1918 0.691 . S
C5307 C914 0.741 . S
C5321 C3754 0.707 . S
C5327 C1082 0.752 . S
C5341 C2254 0.796 . S
C5347 C644 0.784 . S
C5361 C410 0.678 . S
C5367 C3766 0.750 . S
C5381 C494 0.724 . S
C5387 C2086 0.680 . S
C5401 C1166 0.770 . S
C5407 C2170 0.753 . S
C5421 C3922 0.792 . S
C5427 C1250 0.741 . S
C5441 C74 0.765 . S
C5447 C4006 0.727 . S
C5461 C224 0.828 . S
C5467 C3838 0.798 . S
C5481 C142 0.788 . S
C5487 C1327 0.762 . S
C5501 C1411 0.776 . S
C5507 C2674 0.832 . S
C5521 C1491 0.699 . S
C5527 C310 0.757 . S
C5541 C1579 0.783 . S
C5547 C2578 0.749 . S
C5561 C658 0.801 . S
C5567 C1663 0.786 . S
C5581 C2746 0.724 . S
C5587 C1747 0.751 . S
C5601 C478 0.768 . S
C5607 C1831 0.750 . S
C5621 C1911 0.736 . S
C5627 C1150 0.705 . S
C5641 C1999 0.809 . S
C5647 C2590 0.803 . S
C5661 C154 0.814 . S
C5667 C2083 0.774 . S
C5681 C2167 0.789 . S
C5687 C2662 0.799 . S
C5701 C322 0.817 . S
C5707 C2251 0.839 . S
C5721 C2758 0.720 . S
C5727 C2247 0.736 . S
C5741 C1995 0.705 . S
C5747 C490 0.757 . S
C5761 C2079 0.736 . S
C5767 C1162 0.785 . S
C5781 C646 0.743 . S
C5787 C2163 0.686 . S
C5801 C2331 0.731 . S
C5807 C3010 0.776 . S
C5821 C982 0.720 . S
C5827 C1915 0.749 . S
C5841 C2998 0.740 . S
C5847 C1659 0.733 . S
C5861 C1743 0.655 . S
C5867 C814 0.727 . S
C5881 C2415 0.727 . S
C5887 C898 0.780 . S
C5901 C3178 0.774 . S
C5907 C2499 0.811 . S
C5921 C1323 0.692 . S
C5927 C3262 0.751 . S
C5941 C3094 0.789 . S
C5947 C1495 0.824 . S
C5961 C2338 0.751 . S
C5967 C2576 0.779 . S
C5981 C1064 0.784 . S
C5987 C1486 0.783 . S
C6001 C2506 0.698 . S
C6007 C2678 0.749 . S
C6021 C1232 0.807 . S
C6027 C1330 0.782 . S
C6041 C2744 0.849 . S
C6047 C3670 0.821 . S
C6061 C1666 0.791 . S
C6067 C2828 0.765 . S
C6081 C1148 0.780 . S
C6087 C3598 0.805 . S
C6101 C1834 0.748 . S
C6107 C2930 0.782 . S
C6121 C2996 0.808 . S
C6127 C1318 0.804 . S
C6141 C3080 0.778 . S
C6147 C2326 0.748 . S
C6161 C3164 0.797 . S
C6167 C1498 0.789 . S
C6181 C2494 0.830 . S
C6187 C3248 0.773 . S
C6201 C1654 0.709 . S
C6207 C3266 0.759 . S
C6221 C3014 0.741 . S
C6227 C3586 0.713 . S
C6241 C1822 0.761 . S
C6247 C3098 0.753 . S
C6261 C3182 0.756 . S
C6267 C3682 0.706 . S
C6281 C158 0.733 . S
C6287 C1990 0.776 . S
C6301 C4018 0.713 . S
C6307 C2912 0.728 . S
C6321 C2762 0.740 . S
C6327 C2002 0.724 . S
C6341 C2846 0.689 . S
C6347 C3850 0.662 . S
C6361 C3934 0.713 . S
C6367 C578 0.707 . S
C6381 C2158 0.789 . S
C6387 C326 0.802 . S
C6401 C2594 0.745 . S
C6407 C2242 0.751 . S
C6421 C2074 0.832 . S
C6427 C2660 0.800 . S
C6441 C1066 0.711 . S
C6447 C3343 0.731 . S
C6461 C2335 0.768 . S
C6467 C238 0.798 . S
C6481 C1234 0.740 . S
C6487 C3423 0.772 . S
C6501 C2503 0.736 . S
C6507 C58 0.745 . S
C6521 C3511 0.804 . S
C6527 C2926 0.855 . S
C6541 C394 0.790 . S
C6547 C3595 0.800 . S
C6561 C2830 0.743 . S
C6567 C2419 0.773 . S
C6581 C562 0.709 . S
C6587 C3675 0.728 . S
C6601 C70 0.760 . S
C6607 C3763 0.801 . S
C6621 C3847 0.810 . S
C6627 C1078 0.771 . S
C6641 C226 0.795 . S
C6647 C3931 0.772 . S
C6661 C1246 0.782 . S
C6667 C4015 0.781 . S
C6681 C406 0.720 . S
C6687 C4011 0.782 . S
C6701 C2842 0.735 . S
C6707 C3759 0.778 . S
C6721 C3843 0.768 . S
C6727 C574 0.806 . S
C6741 C2914 0.714 . S
C6747 C3927 0.759 . S
C6761 C742 0.714 . S
C6767 C1407 0.779 . S
C6781 C3679 0.781 . S
C6787 C3250 0.753 . S
C6801 C3507 0.727 . S
C6807 C730 0.748 . S
C6821 C3082 0.735 . S
C6827 C3591 0.660 . S
C6841 C1827 0.771 . S
C6847 C3166 0.750 . S
C6861 C1575 0.748 . S
C6867 C910 0.778 . S
C6881 C994 0.757 . S
C6887 C3339 0.736 . S
C6901 C826 0.790 . S
C6907 C3427 0.825 . S
