# Generated by pormake.
# Topology wje, (4)-cn, num edge types: 1
# Building blocks:
#     Node 0, Type 0, BuildingBlock: CEKHIL_clean_sbu_0, # of connection points: 4
#     Node 1, Type 0, BuildingBlock: CEKHIL_clean_sbu_0, # of connection points: 4
#     Node 2, Type 0, BuildingBlock: CEKHIL_clean_sbu_0, # of connection points: 4
#     Node 3, Type 0, BuildingBlock: CEKHIL_clean_sbu_0, # of connection points: 4
#     Node 4, Type 0, BuildingBlock: CEKHIL_clean_sbu_0, # of connection points: 4
#     Node 5, Type 0, BuildingBlock: CEKHIL_clean_sbu_0, # of connection points: 4
#     Node 6, Type 0, BuildingBlock: CEKHIL_clean_sbu_0, # of connection points: 4
#     Node 7, Type 0, BuildingBlock: CEKHIL_clean_sbu_0, # of connection points: 4
#     Node 8, Type 0, BuildingBlock: CEKHIL_clean_sbu_0, # of connection points: 4
#     Node 9, Type 0, BuildingBlock: CEKHIL_clean_sbu_0, # of connection points: 4
#     Node 10, Type 0, BuildingBlock: CEKHIL_clean_sbu_0, # of connection points: 4
#     Node 11, Type 0, BuildingBlock: CEKHIL_clean_sbu_0, # of connection points: 4
#     Edge 12, Type (0, 0), BuildingBlock: AJUNOK_clean_linker_0, # of connection points: 2
#     Edge 13, Type (0, 0), BuildingBlock: AJUNOK_clean_linker_0, # of connection points: 2
#     Edge 14, Type (0, 0), BuildingBlock: AJUNOK_clean_linker_0, # of connection points: 2
#     Edge 15, Type (0, 0), BuildingBlock: AJUNOK_clean_linker_0, # of connection points: 2
#     Edge 16, Type (0, 0), BuildingBlock: AJUNOK_clean_linker_0, # of connection points: 2
#     Edge 17, Type (0, 0), BuildingBlock: AJUNOK_clean_linker_0, # of connection points: 2
#     Edge 18, Type (0, 0), BuildingBlock: AJUNOK_clean_linker_0, # of connection points: 2
#     Edge 19, Type (0, 0), BuildingBlock: AJUNOK_clean_linker_0, # of connection points: 2
#     Edge 20, Type (0, 0), BuildingBlock: AJUNOK_clean_linker_0, # of connection points: 2
#     Edge 21, Type (0, 0), BuildingBlock: AJUNOK_clean_linker_0, # of connection points: 2
#     Edge 22, Type (0, 0), BuildingBlock: AJUNOK_clean_linker_0, # of connection points: 2
#     Edge 23, Type (0, 0), BuildingBlock: AJUNOK_clean_linker_0, # of connection points: 2
#     Edge 24, Type (0, 0), BuildingBlock: AJUNOK_clean_linker_0, # of connection points: 2
#     Edge 25, Type (0, 0), BuildingBlock: AJUNOK_clean_linker_0, # of connection points: 2
#     Edge 26, Type (0, 0), BuildingBlock: AJUNOK_clean_linker_0, # of connection points: 2
#     Edge 27, Type (0, 0), BuildingBlock: AJUNOK_clean_linker_0, # of connection points: 2
#     Edge 28, Type (0, 0), BuildingBlock: AJUNOK_clean_linker_0, # of connection points: 2
#     Edge 29, Type (0, 0), BuildingBlock: AJUNOK_clean_linker_0, # of connection points: 2
#     Edge 30, Type (0, 0), BuildingBlock: AJUNOK_clean_linker_0, # of connection points: 2
#     Edge 31, Type (0, 0), BuildingBlock: AJUNOK_clean_linker_0, # of connection points: 2
#     Edge 32, Type (0, 0), BuildingBlock: AJUNOK_clean_linker_0, # of connection points: 2
#     Edge 33, Type (0, 0), BuildingBlock: AJUNOK_clean_linker_0, # of connection points: 2
#     Edge 34, Type (0, 0), BuildingBlock: AJUNOK_clean_linker_0, # of connection points: 2
#     Edge 35, Type (0, 0), BuildingBlock: AJUNOK_clean_linker_0, # of connection points: 2
# Relax obj value: 0.157
# Max RMSD: 0.098
# Mean RMSD: 0.098
data_MOF--net-wje--node1-CEKHIL_clean_sbu_0--edge1-AJUNOK_clean_linker_0
_symmetry_space_group_name_H-M    P1
_symmetry_Int_Tables_number       1
_symmetry_cell_setting            triclinic
loop_
_symmetry_equiv_pos_as_xyz
'x, y, z'
_cell_length_a     28.809136
_cell_length_b     28.787938
_cell_length_c     27.670608
_cell_angle_alpha  90.115901
_cell_angle_beta   89.854325
_cell_angle_gamma 120.05212
loop_
_atom_site_label
_atom_site_type_symbol
_atom_site_fract_x
_atom_site_fract_y
_atom_site_fract_z
_atom_type_partial_charge
Co0 Co 0.32086 0.01979 0.30846 0.0
O1 O 0.31424 0.03654 0.24145 0.0
O2 O 0.34786 0.09642 0.29976 0.0
C3 C 0.23678 0.94782 0.31807 0.0
O4 O 0.33106 0.01782 0.38233 0.0
Co5 Co 0.31545 0.91346 0.33518 0.0
O6 O 0.31492 0.93554 0.40284 0.0
C7 C 0.40905 0.99328 0.28436 0.0
C8 C 0.33423 0.08629 0.25451 0.0
C9 C 0.32412 0.98216 0.41446 0.0
O10 O 0.39488 0.02846 0.29434 0.0
O11 O 0.37817 0.94321 0.29141 0.0
O12 O 0.24477 0.99637 0.32065 0.0
O13 O 0.2779 0.94484 0.30371 0.0
Co14 Co 0.29404 0.32555 0.64253 0.0
O15 O 0.27415 0.32481 0.57537 0.0
O16 O 0.24373 0.35226 0.63543 0.0
C17 C 0.28295 0.24168 0.64366 0.0
O18 O 0.30397 0.32908 0.71714 0.0
Co19 Co 0.39281 0.31447 0.6693 0.0
O20 O 0.36133 0.29983 0.73483 0.0
C21 C 0.40979 0.41493 0.62663 0.0
C22 C 0.24337 0.34314 0.58925 0.0
C23 C 0.32702 0.31294 0.74783 0.0
O24 O 0.35975 0.4003 0.63345 0.0
O25 O 0.42844 0.38349 0.63351 0.0
O26 O 0.24158 0.24804 0.64874 0.0
O27 O 0.32689 0.28485 0.63338 0.0
Co28 Co 0.97324 0.29529 0.97502 0.0
O29 O 0.95414 0.27668 0.90781 0.0
O30 O 0.89524 0.25421 0.96673 0.0
C31 C 0.03613 0.2704 0.97789 0.0
O32 O 0.97942 0.30562 0.04953 0.0
Co33 Co 0.08998 0.38226 1.00242 0.0
O34 O 0.06719 0.35313 0.06838 0.0
C35 C 0.01815 0.41576 0.95965 0.0
C36 C 0.90428 0.25155 0.9209 0.0
C37 C 0.0182 0.32459 0.08085 0.0
O38 O 0.9774 0.36769 0.96481 0.0
O39 O 0.06635 0.42733 0.96802 0.0
O40 O 0.98587 0.23421 0.98277 0.0
O41 O 0.04498 0.31751 0.96688 0.0
Co42 Co 0.69201 0.97633 0.30803 0.0
O43 O 0.69253 0.95526 0.24158 0.0
O44 O 0.64788 0.89821 0.29991 0.0
C45 C 0.78137 0.03048 0.31437 0.0
O46 O 0.68517 0.98486 0.38178 0.0
Co47 Co 0.73314 0.09674 0.33121 0.0
O48 O 0.73115 0.07322 0.39879 0.0
C49 C 0.62504 0.03091 0.29032 0.0
C50 C 0.66233 0.90582 0.2546 0.0
C51 C 0.70571 0.02439 0.41242 0.0
O52 O 0.62943 0.9884 0.29369 0.0
O53 O 0.66336 0.07811 0.30017 0.0
O54 O 0.76036 0.97917 0.32059 0.0
O55 O 0.74897 0.04625 0.3001 0.0
Co56 Co 0.71141 0.69729 0.63934 0.0
O57 O 0.73241 0.69821 0.57247 0.0
O58 O 0.74339 0.65179 0.62978 0.0
C59 C 0.74901 0.787 0.64674 0.0
O60 O 0.69685 0.68922 0.71308 0.0
Co61 Co 0.63521 0.74077 0.66682 0.0
O62 O 0.65226 0.73187 0.73433 0.0
C63 C 0.58923 0.63243 0.62465 0.0
C64 C 0.75112 0.66737 0.58482 0.0
C65 C 0.67624 0.7063 0.74548 0.0
O66 O 0.63584 0.63593 0.62573 0.0
O67 O 0.58215 0.67165 0.63551 0.0
O68 O 0.77812 0.7646 0.65184 0.0
O69 O 0.70014 0.75564 0.63341 0.0
Co70 Co 0.02572 0.71847 0.97355 0.0
O71 O 0.04721 0.73954 0.907 0.0
O72 O 0.10382 0.76188 0.96757 0.0
C73 C 0.96026 0.74002 0.97525 0.0
O74 O 0.01738 0.70602 0.04758 0.0
Co75 Co 0.90915 0.62851 0.99845 0.0
O76 O 0.92974 0.65429 0.06563 0.0
C77 C 0.98519 0.59896 0.9576 0.0
C78 C 0.09649 0.76589 0.92165 0.0
C79 C 0.97839 0.68383 0.07863 0.0
O80 O 0.02478 0.64764 0.96292 0.0
O81 O 0.93626 0.58597 0.96443 0.0
O82 O 0.0098 0.77744 0.9817 0.0
O83 O 0.95374 0.69389 0.9637 0.0
Co84 Co 0.97029 0.67811 0.39364 0.0
O85 O 0.95068 0.6777 0.46094 0.0
O86 O 0.89317 0.65056 0.40076 0.0
C87 C 0.04261 0.76237 0.3932 0.0
O88 O 0.97679 0.67579 0.31902 0.0
Co89 Co 0.08085 0.69113 0.36573 0.0
O90 O 0.06354 0.70629 0.30072 0.0
C91 C 0.9981 0.5895 0.40771 0.0
C92 C 0.9016 0.65919 0.447 0.0
C93 C 0.01598 0.6929 0.28812 0.0
O94 O 0.96218 0.60359 0.4017 0.0
O95 O 0.04808 0.62154 0.40055 0.0
O96 O 0.99471 0.7556 0.3884 0.0
O97 O 0.04376 0.71928 0.40273 0.0
Co98 Co 0.30438 0.98551 0.72892 0.0
O99 O 0.28307 0.96963 0.79631 0.0
O100 O 0.25474 0.9089 0.73855 0.0
C101 C 0.29248 0.05761 0.72035 0.0
O102 O 0.3154 0.98744 0.65477 0.0
Co103 Co 0.40558 0.09205 0.70196 0.0
O104 O 0.3805 0.07075 0.63478 0.0
C105 C 0.41922 0.01079 0.75003 0.0
C106 C 0.25329 0.91967 0.78407 0.0
C107 C 0.34314 0.02417 0.62301 0.0
O108 O 0.36943 0.97631 0.74125 0.0
O109 O 0.43896 0.06103 0.74348 0.0
O110 O 0.25169 0.00913 0.71832 0.0
O111 O 0.3367 0.06039 0.73375 0.0
Co112 Co 0.30762 0.28709 0.06344 0.0
O113 O 0.3037 0.26478 0.13024 0.0
O114 O 0.34078 0.24251 0.07182 0.0
C115 C 0.22126 0.26725 0.05594 0.0
O116 O 0.31614 0.30051 0.98933 0.0
Co117 Co 0.28917 0.38177 0.0387 0.0
O118 O 0.29137 0.36113 0.97077 0.0
C119 C 0.38778 0.40497 0.08677 0.0
C120 C 0.32742 0.23855 0.11727 0.0
C121 C 0.30548 0.32746 0.95803 0.0
O122 O 0.37802 0.35675 0.07715 0.0
O123 O 0.35314 0.41958 0.08048 0.0
O124 O 0.23301 0.2293 0.05204 0.0
O125 O 0.26028 0.3129 0.06984 0.0
Co126 Co 0.01623 0.30532 0.39599 0.0
O127 O 0.03566 0.30443 0.46304 0.0
O128 O 0.09379 0.35003 0.40578 0.0
C129 C 0.96306 0.21562 0.38859 0.0
O130 O 0.01055 0.31306 0.3221 0.0
Co131 Co 0.89689 0.26343 0.36852 0.0
O132 O 0.92334 0.27237 0.30109 0.0
C133 C 0.96022 0.37167 0.41036 0.0
C134 C 0.08543 0.33469 0.45081 0.0
C135 C 0.97294 0.29664 0.28981 0.0
O136 O 1.00299 0.36753 0.40909 0.0
O137 O 0.91368 0.33273 0.39983 0.0
O138 O 0.0146 0.23737 0.38392 0.0
O139 O 0.94615 0.24756 0.40177 0.0
Co140 Co 0.71674 0.02513 0.72785 0.0
O141 O 0.73752 0.04547 0.79457 0.0
O142 O 0.74936 0.10277 0.73673 0.0
C143 C 0.75279 0.97189 0.72085 0.0
O144 O 0.70255 0.0183 0.65414 0.0
Co145 Co 0.63909 0.90556 0.70107 0.0
O146 O 0.65941 0.93084 0.63357 0.0
C147 C 0.59513 0.96896 0.74458 0.0
C148 C 0.75632 0.095 0.7819 0.0
C149 C 0.68332 0.98035 0.62197 0.0
O150 O 0.64175 0.01193 0.74183 0.0
O151 O 0.58732 0.9223 0.73407 0.0
O152 O 0.78283 0.02337 0.71538 0.0
O153 O 0.70415 0.95524 0.73446 0.0
Co154 Co 0.68027 0.70515 0.0604 0.0
O155 O 0.68254 0.72545 0.12783 0.0
O156 O 0.64365 0.74614 0.07016 0.0
C157 C 0.76801 0.72972 0.05263 0.0
O158 O 0.67308 0.6942 0.98594 0.0
Co159 Co 0.70499 0.61526 0.03231 0.0
O160 O 0.70295 0.63804 0.96526 0.0
C161 C 0.6041 0.5853 0.08011 0.0
C162 C 0.65723 0.75026 0.11549 0.0
C163 C 0.68709 0.67059 0.95378 0.0
O164 O 0.61176 0.63318 0.07289 0.0
O165 O 0.64036 0.57307 0.07253 0.0
O166 O 0.75367 0.76585 0.05 0.0
O167 O 0.73047 0.68273 0.06547 0.0
C168 C 0.33546 0.11954 0.16957 0.0
C169 C 0.33786 0.12824 0.21998 0.0
C170 C 0.33471 0.15649 0.13647 0.0
C171 C 0.33506 0.20322 0.15231 0.0
H172 H 0.33348 0.08347 0.15547 0.0
H173 H 0.33174 0.14725 0.09825 0.0
S174 S 0.34347 0.24641 0.28014 0.0
N175 N 0.34308 0.18896 0.28365 0.0
N176 N 0.34015 0.2571 0.22197 0.0
C177 C 0.33858 0.21296 0.20251 0.0
C178 C 0.34042 0.17593 0.23611 0.0
C179 C 0.15706 0.3418 0.56944 0.0
C180 C 0.20691 0.34897 0.55421 0.0
C181 C 0.11903 0.33944 0.53594 0.0
C182 C 0.12953 0.3454 0.48576 0.0
H183 H 0.14621 0.3354 0.60734 0.0
H184 H 0.08042 0.3315 0.54949 0.0
S185 S 0.25609 0.37018 0.4274 0.0
N186 N 0.26588 0.36525 0.48551 0.0
N187 N 0.19537 0.36229 0.42313 0.0
C188 C 0.18038 0.3555 0.47035 0.0
C189 C 0.21868 0.35683 0.50434 0.0
C190 C 0.78208 0.12975 0.86699 0.0
C191 C 0.78864 0.13952 0.81675 0.0
C192 C 0.81727 0.1678 0.90078 0.0
C193 C 0.86138 0.21678 0.88574 0.0
H194 H 0.75038 0.09158 0.88035 0.0
H195 H 0.81165 0.15736 0.93877 0.0
S196 S 0.89439 0.26411 0.75884 0.0
N197 N 0.84058 0.20399 0.75417 0.0
N198 N 0.90739 0.27449 0.81722 0.0
C199 C 0.86705 0.22804 0.8358 0.0
C200 C 0.83054 0.18978 0.80147 0.0
C201 C 0.65303 0.77906 0.20103 0.0
C202 C 0.64938 0.78542 0.15081 0.0
C203 C 0.65309 0.81589 0.23488 0.0
C204 C 0.65071 0.86136 0.2199 0.0
H205 H 0.65746 0.74613 0.21432 0.0
H206 H 0.65817 0.81034 0.27281 0.0
S207 S 0.63644 0.89482 0.09332 0.0
N208 N 0.63919 0.83905 0.08852 0.0
N209 N 0.64098 0.90867 0.15165 0.0
C210 C 0.64482 0.867 0.17007 0.0
C211 C 0.64365 0.82898 0.13572 0.0
C212 C 0.81634 0.66004 0.46653 0.0
C213 C 0.85897 0.653 0.48193 0.0
C214 C 0.78037 0.66231 0.49988 0.0
C215 C 0.78455 0.65637 0.55007 0.0
H216 H 0.81221 0.6665 0.42861 0.0
H217 H 0.7498 0.67023 0.48623 0.0
S218 S 0.88591 0.63169 0.60881 0.0
N219 N 0.90114 0.63671 0.55075 0.0
N220 N 0.83299 0.63948 0.6129 0.0
C221 C 0.82517 0.64628 0.56564 0.0
C222 C 0.86246 0.64506 0.53179 0.0
C223 C 0.17056 0.83148 0.80415 0.0
C224 C 0.2171 0.87805 0.81983 0.0
C225 C 0.1329 0.79469 0.83732 0.0
C226 C 0.14053 0.80208 0.88774 0.0
H227 H 0.162 0.82434 0.7659 0.0
H228 H 0.09687 0.76059 0.82322 0.0
S229 S 0.25794 0.91517 0.94779 0.0
N230 N 0.26996 0.92796 0.88951 0.0
N231 N 0.2001 0.85844 0.95145 0.0
C232 C 0.18811 0.84718 0.90388 0.0
C233 C 0.22603 0.88519 0.87011 0.0
C234 C 0.50766 0.05659 0.29368 0.0
C235 C 0.46574 0.00966 0.27319 0.0
C236 C 0.55978 0.0644 0.29653 0.0
C237 C 0.57196 0.02544 0.2793 0.0
H238 H 0.49946 0.08556 0.31092 0.0
H239 H 0.58991 0.09981 0.31519 0.0
S240 S 0.479 0.9012 0.21302 0.0
N241 N 0.44194 0.92798 0.22803 0.0
N242 N 0.53952 0.94239 0.23434 0.0
C243 C 0.53153 0.98074 0.25491 0.0
C244 C 0.47864 0.97305 0.25149 0.0
C245 C 0.54602 0.53565 0.60029 0.0
C246 C 0.54043 0.57913 0.61559 0.0
C247 C 0.50219 0.48328 0.60003 0.0
C248 C 0.45071 0.47166 0.61558 0.0
H249 H 0.58504 0.5416 0.5904 0.0
H250 H 0.50961 0.4512 0.58987 0.0
S251 S 0.41221 0.57183 0.65174 0.0
N252 N 0.47717 0.6077 0.64066 0.0
N253 N 0.39535 0.50891 0.64093 0.0
C254 C 0.44339 0.51508 0.62701 0.0
C255 C 0.48808 0.56879 0.62695 0.0
C256 C 0.95103 0.50004 0.95151 0.0
C257 C 0.99477 0.55325 0.94876 0.0
C258 C 0.95848 0.45556 0.9519 0.0
C259 C 0.00997 0.46201 0.94915 0.0
H260 H 0.91039 0.49229 0.95584 0.0
H261 H 0.92369 0.41609 0.95683 0.0
S262 S 0.13718 0.59173 0.93126 0.0
N263 N 0.09075 0.60901 0.93646 0.0
N264 N 0.10517 0.52571 0.93589 0.0
C265 C 0.05377 0.51466 0.94194 0.0
C266 C 0.04609 0.5601 0.94208 0.0
C267 C 0.02383 0.52165 0.43173 0.0
C268 C 0.98308 0.53287 0.41847 0.0
C269 C 0.01527 0.46928 0.43179 0.0
C270 C 0.96533 0.42534 0.41912 0.0
H271 H 0.06388 0.55395 0.43994 0.0
H272 H 0.0489 0.46365 0.43987 0.0
S273 S 0.84232 0.43162 0.38991 0.0
N274 N 0.88903 0.49485 0.39822 0.0
N275 N 0.87205 0.39609 0.39917 0.0
C276 C 0.92271 0.4354 0.41005 0.0
C277 C 0.93174 0.48912 0.40963 0.0
C278 C 0.554 0.02286 0.77335 0.0
C279 C 0.54719 0.97402 0.75584 0.0
C280 C 0.51081 0.03219 0.77594 0.0
C281 C 0.45888 0.99339 0.76051 0.0
H282 H 0.59348 0.05522 0.78313 0.0
H283 H 0.51909 0.07161 0.78743 0.0
S284 S 0.41736 0.85529 0.7196 0.0
N285 N 0.48244 0.88324 0.72926 0.0
N286 N 0.40175 0.90163 0.73332 0.0
C287 C 0.45036 0.94262 0.7472 0.0
C288 C 0.49439 0.93281 0.74491 0.0
C289 C 0.48707 0.44223 0.0858 0.0
C290 C 0.44335 0.44893 0.0972 0.0
C291 C 0.53911 0.48642 0.08317 0.0
C292 C 0.54981 0.53943 0.09149 0.0
H293 H 0.48085 0.40312 0.07576 0.0
H294 H 0.57069 0.47883 0.07175 0.0
S295 S 0.45104 0.57748 0.13302 0.0
N296 N 0.4155 0.51186 0.12518 0.0
N297 N 0.51333 0.5948 0.11881 0.0
C298 C 0.50724 0.54621 0.10703 0.0
C299 C 0.45415 0.50104 0.11036 0.0
C300 C 0.09141 0.85662 0.35875 0.0
C301 C 0.09242 0.81187 0.37805 0.0
C302 C 0.13828 0.90075 0.33973 0.0
C303 C 0.1871 0.90052 0.33723 0.0
H304 H 0.05424 0.85742 0.35795 0.0
H305 H 0.13596 0.93469 0.32588 0.0
S306 S 0.21113 0.79362 0.38486 0.0
N307 N 0.14834 0.77361 0.39869 0.0
N308 N 0.23196 0.85011 0.35516 0.0
C309 C 0.18787 0.85548 0.35588 0.0
C310 C 0.14178 0.81297 0.37845 0.0
C311 C 0.23789 0.14772 0.67847 0.0
C312 C 0.28373 0.19264 0.65933 0.0
C313 C 0.24082 0.10398 0.69797 0.0
C314 C 0.2901 0.10482 0.70124 0.0
H315 H 0.19967 0.14643 0.67866 0.0
H316 H 0.20444 0.0698 0.71149 0.0
S317 S 0.42149 0.21264 0.65481 0.0
N318 N 0.37838 0.23168 0.63967 0.0
N319 N 0.38582 0.15634 0.68483 0.0
C320 C 0.33605 0.15019 0.68303 0.0
C321 C 0.33231 0.19216 0.65971 0.0
C322 C 0.17546 0.31025 1.01678 0.0
C323 C 0.17209 0.26336 0.03521 0.0
C324 C 0.13211 0.31008 0.99535 0.0
C325 C 0.08129 0.26385 0.99452 0.0
H326 H 0.21177 0.34828 1.01839 0.0
H327 H 0.13889 0.34775 0.9806 0.0
S328 S 0.04918 0.12935 0.03863 0.0
N329 N 0.11397 0.16784 0.04972 0.0
N330 N 0.02939 0.16856 1.01342 0.0
C331 C 0.07632 0.21596 1.0129 0.0
C332 C 0.12222 0.21556 0.03263 0.0
C333 C 0.91496 0.15692 0.31924 0.0
C334 C 0.92571 0.16241 0.369 0.0
C335 C 0.86948 0.11173 0.30098 0.0
C336 C 0.83512 0.06963 0.33167 0.0
H337 H 0.93974 0.18912 0.29468 0.0
H338 H 0.8598 0.11079 0.26304 0.0
S339 S 0.85193 0.06054 0.46338 0.0
N340 N 0.90202 0.12022 0.44796 0.0
N341 N 0.81894 0.03273 0.41293 0.0
C342 C 0.84878 0.07209 0.38065 0.0
C343 C 0.89369 0.11925 0.39958 0.0
C344 C 0.7621 0.84683 0.71584 0.0
C345 C 0.76552 0.84049 0.6659 0.0
C346 C 0.76217 0.8922 0.7342 0.0
C347 C 0.76825 0.93349 0.70331 0.0
H348 H 0.75542 0.81494 0.74051 0.0
H349 H 0.75463 0.89372 0.7724 0.0
S350 S 0.78789 0.93974 0.57066 0.0
N351 N 0.7799 0.88078 0.58632 0.0
N352 N 0.78494 0.96855 0.6214 0.0
C353 C 0.77749 0.93014 0.65394 0.0
C354 C 0.77492 0.88284 0.63501 0.0
C355 C 0.81816 0.69257 1.01089 0.0
C356 C 0.81868 0.73724 0.03165 0.0
C357 C 0.86321 0.69615 0.98945 0.0
C358 C 0.91306 0.74362 0.99115 0.0
H359 H 0.78286 0.65363 1.01083 0.0
H360 H 0.85863 0.66003 0.97286 0.0
S361 S 0.93763 0.8736 0.04134 0.0
N362 N 0.87287 0.83229 0.05049 0.0
N363 N 0.96074 0.83784 1.01446 0.0
C364 C 0.91509 0.78944 1.01163 0.0
C365 C 0.86739 0.78642 0.03123 0.0
C366 C 0.31291 0.95234 0.50145 0.0
C367 C 0.32643 0.99403 0.46749 0.0
C368 C 0.31617 0.96162 0.55157 0.0
C369 C 0.33353 0.0131 0.57017 0.0
H370 H 0.30012 0.91189 0.48938 0.0
H371 H 0.30671 0.92853 0.57582 0.0
S372 S 0.36847 0.1353 0.49799 0.0
N373 N 0.35417 0.08823 0.45706 0.0
N374 N 0.36036 0.10575 0.55088 0.0
C375 C 0.34527 0.05481 0.53689 0.0
C376 C 0.3417 0.0453 0.4858 0.0
C377 C 0.29768 0.35121 0.87173 0.0
C378 C 0.30913 0.32047 0.90451 0.0
C379 C 0.30137 0.34714 0.82135 0.0
C380 C 0.31699 0.31234 0.80105 0.0
H381 H 0.28626 0.37951 0.88494 0.0
H382 H 0.29349 0.37274 0.79825 0.0
S383 S 0.3464 0.21885 0.86957 0.0
N384 N 0.33328 0.25115 0.91191 0.0
N385 N 0.3402 0.24332 0.81763 0.0
C386 C 0.32683 0.27996 0.83312 0.0
C387 C 0.32295 0.28405 0.88454 0.0
C388 C 0.94597 0.29587 0.20287 0.0
C389 C 0.98616 0.30436 0.23684 0.0
C390 C 0.95602 0.30125 0.15276 0.0
C391 C 0.00683 0.31549 0.13403 0.0
H392 H 0.90608 0.28523 0.21498 0.0
H393 H 0.92387 0.29507 0.12864 0.0
S394 S 0.12517 0.33808 0.20664 0.0
N395 N 0.07826 0.32514 0.24734 0.0
N396 N 0.09734 0.335 0.15378 0.0
C397 C 0.04721 0.32307 0.1675 0.0
C398 C 0.03691 0.31768 0.21856 0.0
C399 C 0.66805 0.96195 0.48439 0.0
C400 C 0.70048 0.01406 0.46603 0.0
C401 C 0.66258 0.95186 0.53448 0.0
C402 C 0.68932 0.99333 0.56892 0.0
H403 H 0.64641 0.92848 0.45993 0.0
H404 H 0.63694 0.91082 0.54617 0.0
S405 S 0.78153 0.13693 0.54038 0.0
N406 N 0.76132 0.10789 0.48713 0.0
N407 N 0.75101 0.08852 0.58048 0.0
C408 C 0.72228 0.04557 0.55114 0.0
C409 C 0.72785 0.05598 0.50011 0.0
C410 C 0.65336 0.70054 0.88262 0.0
C411 C 0.68581 0.68099 0.90079 0.0
C412 C 0.65051 0.70821 0.83266 0.0
C413 C 0.68015 0.69693 0.79835 0.0
H414 H 0.62926 0.70924 0.90706 0.0
H415 H 0.62436 0.72289 0.82093 0.0
S416 S 0.7751 0.64933 0.82731 0.0
N417 N 0.75106 0.6536 0.88027 0.0
N418 N 0.74528 0.66776 0.7871 0.0
C419 C 0.71359 0.67837 0.81616 0.0
C420 C 0.71656 0.67057 0.86701 0.0
C421 C 0.95506 0.66297 0.21529 0.0
C422 C 0.00637 0.69486 0.23514 0.0
C423 C 0.94665 0.66054 0.16505 0.0
C424 C 0.98911 0.69002 0.13205 0.0
H425 H 0.92125 0.63837 0.23858 0.0
H426 H 0.9063 0.63429 0.15207 0.0
S427 S 0.13049 0.78465 0.16579 0.0
N428 N 0.09986 0.76031 0.21786 0.0
N429 N 0.08393 0.75533 0.12392 0.0
C430 C 0.04031 0.72369 0.1516 0.0
C431 C 0.04892 0.72622 0.20283 0.0
loop_
_geom_bond_atom_site_label_1
_geom_bond_atom_site_label_2
_geom_bond_distance
_geom_bond_site_symmetry_2
_ccdc_geom_bond_type
Co0 O1 2.216 . S
Co0 O2 2.091 . S
Co0 O4 2.004 . S
Co0 O10 2.021 . S
Co0 O12 2.137 1_545 S
Co0 O13 2.244 1_545 S
O1 Co0 2.216 . S
O1 C8 1.247 . S
O2 Co0 2.091 . S
O2 C8 1.261 . S
C3 O12 1.247 . S
C3 O13 1.272 . S
O4 Co0 2.004 . S
O4 C9 1.259 . S
Co5 O6 2.061 . S
Co5 O11 2.052 . S
Co5 O13 2.135 . S
O6 Co5 2.061 . S
O6 C9 1.235 1_565 S
C7 O10 1.238 . S
C7 O11 1.241 1_545 S
C8 O1 1.247 . S
C8 O2 1.261 . S
C9 O4 1.259 . S
C9 O6 1.235 1_545 S
O10 Co0 2.021 . S
O10 C7 1.238 . S
O11 Co5 2.052 . S
O11 C7 1.241 1_565 S
O12 Co0 2.137 1_565 S
O12 C3 1.247 . S
O13 Co0 2.244 1_565 S
O13 C3 1.272 . S
O13 Co5 2.135 . S
Co14 O15 2.216 . S
Co14 O16 2.091 . S
Co14 O18 2.004 . S
Co14 O24 2.021 . S
Co14 O26 2.137 . S
Co14 O27 2.244 . S
O15 Co14 2.216 . S
O15 C22 1.247 . S
O16 Co14 2.091 . S
O16 C22 1.261 . S
C17 O26 1.247 . S
C17 O27 1.272 . S
O18 Co14 2.004 . S
O18 C23 1.259 . S
Co19 O20 2.061 . S
Co19 O25 2.052 . S
Co19 O27 2.135 . S
O20 Co19 2.061 . S
O20 C23 1.235 . S
C21 O24 1.238 . S
C21 O25 1.241 . S
C22 O15 1.247 . S
C22 O16 1.261 . S
C23 O18 1.259 . S
C23 O20 1.235 . S
O24 Co14 2.021 . S
O24 C21 1.238 . S
O25 Co19 2.052 . S
O25 C21 1.241 . S
O26 Co14 2.137 . S
O26 C17 1.247 . S
O27 Co14 2.244 . S
O27 C17 1.272 . S
O27 Co19 2.135 . S
Co28 O29 2.216 . S
Co28 O30 2.091 . S
Co28 O32 2.004 1_556 S
Co28 O38 2.021 . S
Co28 O40 2.137 1_655 S
Co28 O41 2.244 1_655 S
O29 Co28 2.216 . S
O29 C36 1.247 . S
O30 Co28 2.091 . S
O30 C36 1.261 . S
C31 O40 1.247 . S
C31 O41 1.272 . S
O32 Co28 2.004 1_554 S
O32 C37 1.259 . S
Co33 O34 2.061 . S
Co33 O39 2.052 1_554 S
Co33 O41 2.135 1_554 S
O34 Co33 2.061 . S
O34 C37 1.235 1_455 S
C35 O38 1.238 . S
C35 O39 1.241 1_655 S
C36 O29 1.247 . S
C36 O30 1.261 . S
C37 O32 1.259 . S
C37 O34 1.235 1_655 S
O38 Co28 2.021 . S
O38 C35 1.238 . S
O39 Co33 2.052 1_556 S
O39 C35 1.241 1_455 S
O40 Co28 2.137 1_455 S
O40 C31 1.247 . S
O41 Co28 2.244 1_455 S
O41 C31 1.272 . S
O41 Co33 2.135 1_556 S
Co42 O43 2.216 . S
Co42 O44 2.091 . S
Co42 O46 2.004 . S
Co42 O52 2.021 . S
Co42 O54 2.137 1_565 S
Co42 O55 2.244 1_565 S
O43 Co42 2.216 . S
O43 C50 1.247 . S
O44 Co42 2.091 . S
O44 C50 1.261 . S
C45 O54 1.247 . S
C45 O55 1.272 . S
O46 Co42 2.004 . S
O46 C51 1.259 . S
Co47 O48 2.061 . S
Co47 O53 2.052 . S
Co47 O55 2.135 . S
O48 Co47 2.061 . S
O48 C51 1.235 1_545 S
C49 O52 1.238 . S
C49 O53 1.241 1_565 S
C50 O43 1.247 . S
C50 O44 1.261 . S
C51 O46 1.259 . S
C51 O48 1.235 1_565 S
O52 Co42 2.021 . S
O52 C49 1.238 . S
O53 Co47 2.052 . S
O53 C49 1.241 1_545 S
O54 Co42 2.137 1_545 S
O54 C45 1.247 . S
O55 Co42 2.244 1_545 S
O55 C45 1.272 . S
O55 Co47 2.135 . S
Co56 O57 2.216 . S
Co56 O58 2.091 . S
Co56 O60 2.004 . S
Co56 O66 2.021 . S
Co56 O68 2.137 . S
Co56 O69 2.244 . S
O57 Co56 2.216 . S
O57 C64 1.247 . S
O58 Co56 2.091 . S
O58 C64 1.261 . S
C59 O68 1.247 . S
C59 O69 1.272 . S
O60 Co56 2.004 . S
O60 C65 1.259 . S
Co61 O62 2.061 . S
Co61 O67 2.052 . S
Co61 O69 2.135 . S
O62 Co61 2.061 . S
O62 C65 1.235 . S
C63 O66 1.238 . S
C63 O67 1.241 . S
C64 O57 1.247 . S
C64 O58 1.261 . S
C65 O60 1.259 . S
C65 O62 1.235 . S
O66 Co56 2.021 . S
O66 C63 1.238 . S
O67 Co61 2.052 . S
O67 C63 1.241 . S
O68 Co56 2.137 . S
O68 C59 1.247 . S
O69 Co56 2.244 . S
O69 C59 1.272 . S
O69 Co61 2.135 . S
Co70 O71 2.216 . S
Co70 O72 2.091 . S
Co70 O74 2.004 1_556 S
Co70 O80 2.021 . S
Co70 O82 2.137 1_455 S
Co70 O83 2.244 1_455 S
O71 Co70 2.216 . S
O71 C78 1.247 . S
O72 Co70 2.091 . S
O72 C78 1.261 . S
C73 O82 1.247 . S
C73 O83 1.272 . S
O74 Co70 2.004 1_554 S
O74 C79 1.259 . S
Co75 O76 2.061 . S
Co75 O81 2.052 1_554 S
Co75 O83 2.135 1_554 S
O76 Co75 2.061 . S
O76 C79 1.235 1_655 S
C77 O80 1.238 . S
C77 O81 1.241 1_455 S
C78 O71 1.247 . S
C78 O72 1.261 . S
C79 O74 1.259 . S
C79 O76 1.235 1_455 S
O80 Co70 2.021 . S
O80 C77 1.238 . S
O81 Co75 2.052 1_556 S
O81 C77 1.241 1_655 S
O82 Co70 2.137 1_655 S
O82 C73 1.247 . S
O83 Co70 2.244 1_655 S
O83 C73 1.272 . S
O83 Co75 2.135 1_556 S
Co84 O85 2.216 . S
Co84 O86 2.091 . S
Co84 O88 2.004 . S
Co84 O94 2.021 . S
Co84 O96 2.137 1_655 S
Co84 O97 2.244 1_655 S
O85 Co84 2.216 . S
O85 C92 1.247 . S
O86 Co84 2.091 . S
O86 C92 1.261 . S
C87 O96 1.247 . S
C87 O97 1.272 . S
O88 Co84 2.004 . S
O88 C93 1.259 . S
Co89 O90 2.061 . S
Co89 O95 2.052 . S
Co89 O97 2.135 . S
O90 Co89 2.061 . S
O90 C93 1.235 1_455 S
C91 O94 1.238 . S
C91 O95 1.241 1_655 S
C92 O85 1.247 . S
C92 O86 1.261 . S
C93 O88 1.259 . S
C93 O90 1.235 1_655 S
O94 Co84 2.021 . S
O94 C91 1.238 . S
O95 Co89 2.052 . S
O95 C91 1.241 1_455 S
O96 Co84 2.137 1_455 S
O96 C87 1.247 . S
O97 Co84 2.244 1_455 S
O97 C87 1.272 . S
O97 Co89 2.135 . S
Co98 O99 2.216 . S
Co98 O100 2.091 . S
Co98 O102 2.004 . S
Co98 O108 2.021 . S
Co98 O110 2.137 1_565 S
Co98 O111 2.244 1_565 S
O99 Co98 2.216 . S
O99 C106 1.247 . S
O100 Co98 2.091 . S
O100 C106 1.261 . S
C101 O110 1.247 . S
C101 O111 1.272 . S
O102 Co98 2.004 . S
O102 C107 1.259 . S
Co103 O104 2.061 . S
Co103 O109 2.052 . S
Co103 O111 2.135 . S
O104 Co103 2.061 . S
O104 C107 1.235 1_545 S
C105 O108 1.238 . S
C105 O109 1.241 1_565 S
C106 O99 1.247 . S
C106 O100 1.261 . S
C107 O102 1.259 . S
C107 O104 1.235 1_565 S
O108 Co98 2.021 . S
O108 C105 1.238 . S
O109 Co103 2.052 . S
O109 C105 1.241 1_545 S
O110 Co98 2.137 1_545 S
O110 C101 1.247 . S
O111 Co98 2.244 1_545 S
O111 C101 1.272 . S
O111 Co103 2.135 . S
Co112 O113 2.216 . S
Co112 O114 2.091 . S
Co112 O116 2.004 1_554 S
Co112 O122 2.021 . S
Co112 O124 2.137 . S
Co112 O125 2.244 . S
O113 Co112 2.216 . S
O113 C120 1.247 . S
O114 Co112 2.091 . S
O114 C120 1.261 . S
C115 O124 1.247 . S
C115 O125 1.272 . S
O116 Co112 2.004 1_556 S
O116 C121 1.259 . S
Co117 O118 2.061 . S
Co117 O123 2.052 1_556 S
Co117 O125 2.135 1_556 S
O118 Co117 2.061 . S
O118 C121 1.235 . S
C119 O122 1.238 . S
C119 O123 1.241 . S
C120 O113 1.247 . S
C120 O114 1.261 . S
C121 O116 1.259 . S
C121 O118 1.235 . S
O122 Co112 2.021 . S
O122 C119 1.238 . S
O123 Co117 2.052 1_554 S
O123 C119 1.241 . S
O124 Co112 2.137 . S
O124 C115 1.247 . S
O125 Co112 2.244 . S
O125 C115 1.272 . S
O125 Co117 2.135 1_554 S
Co126 O127 2.216 . S
Co126 O128 2.091 . S
Co126 O130 2.004 . S
Co126 O136 2.021 . S
Co126 O138 2.137 1_455 S
Co126 O139 2.244 1_455 S
O127 Co126 2.216 . S
O127 C134 1.247 . S
O128 Co126 2.091 . S
O128 C134 1.261 . S
C129 O138 1.247 . S
C129 O139 1.272 . S
O130 Co126 2.004 . S
O130 C135 1.259 . S
Co131 O132 2.061 . S
Co131 O137 2.052 . S
Co131 O139 2.135 . S
O132 Co131 2.061 . S
O132 C135 1.235 1_655 S
C133 O136 1.238 . S
C133 O137 1.241 1_455 S
C134 O127 1.247 . S
C134 O128 1.261 . S
C135 O130 1.259 . S
C135 O132 1.235 1_455 S
O136 Co126 2.021 . S
O136 C133 1.238 . S
O137 Co131 2.052 . S
O137 C133 1.241 1_655 S
O138 Co126 2.137 1_655 S
O138 C129 1.247 . S
O139 Co126 2.244 1_655 S
O139 C129 1.272 . S
O139 Co131 2.135 . S
Co140 O141 2.216 . S
Co140 O142 2.091 . S
Co140 O144 2.004 . S
Co140 O150 2.021 . S
Co140 O152 2.137 1_545 S
Co140 O153 2.244 1_545 S
O141 Co140 2.216 . S
O141 C148 1.247 . S
O142 Co140 2.091 . S
O142 C148 1.261 . S
C143 O152 1.247 . S
C143 O153 1.272 . S
O144 Co140 2.004 . S
O144 C149 1.259 . S
Co145 O146 2.061 . S
Co145 O151 2.052 . S
Co145 O153 2.135 . S
O146 Co145 2.061 . S
O146 C149 1.235 1_565 S
C147 O150 1.238 . S
C147 O151 1.241 1_545 S
C148 O141 1.247 . S
C148 O142 1.261 . S
C149 O144 1.259 . S
C149 O146 1.235 1_545 S
O150 Co140 2.021 . S
O150 C147 1.238 . S
O151 Co145 2.052 . S
O151 C147 1.241 1_565 S
O152 Co140 2.137 1_565 S
O152 C143 1.247 . S
O153 Co140 2.244 1_565 S
O153 C143 1.272 . S
O153 Co145 2.135 . S
Co154 O155 2.216 . S
Co154 O156 2.091 . S
Co154 O158 2.004 1_554 S
Co154 O164 2.021 . S
Co154 O166 2.137 . S
Co154 O167 2.244 . S
O155 Co154 2.216 . S
O155 C162 1.247 . S
O156 Co154 2.091 . S
O156 C162 1.261 . S
C157 O166 1.247 . S
C157 O167 1.272 . S
O158 Co154 2.004 1_556 S
O158 C163 1.259 . S
Co159 O160 2.061 . S
Co159 O165 2.052 1_556 S
Co159 O167 2.135 1_556 S
O160 Co159 2.061 . S
O160 C163 1.235 . S
C161 O164 1.238 . S
C161 O165 1.241 . S
C162 O155 1.247 . S
C162 O156 1.261 . S
C163 O158 1.259 . S
C163 O160 1.235 . S
O164 Co154 2.021 . S
O164 C161 1.238 . S
O165 Co159 2.052 1_554 S
O165 C161 1.241 . S
O166 Co154 2.137 . S
O166 C157 1.247 . S
O167 Co154 2.244 . S
O167 C157 1.272 . S
O167 Co159 2.135 1_554 S
C168 C169 1.369 . S
C168 C170 1.419 . S
C168 H172 0.930 . S
C169 C168 1.369 . S
C169 C178 1.429 . S
C170 C168 1.419 . S
C170 C171 1.363 . S
C170 H173 0.929 . S
C171 C170 1.363 . S
C171 C177 1.428 . S
H172 C168 0.930 . S
H173 C170 0.929 . S
S174 N175 1.613 . S
S174 N176 1.610 . S
N175 S174 1.613 . S
N175 C178 1.350 . S
N176 S174 1.610 . S
N176 C177 1.351 . S
C177 C171 1.428 . S
C177 N176 1.351 . S
C177 C178 1.434 . S
C178 C169 1.429 . S
C178 N175 1.350 . S
C178 C177 1.434 . S
C179 C180 1.369 . S
C179 C181 1.419 . S
C179 H183 0.930 . S
C180 C179 1.369 . S
C180 C189 1.429 . S
C181 C179 1.419 . S
C181 C182 1.363 . S
C181 H184 0.929 . S
C182 C181 1.363 . S
C182 C188 1.428 . S
H183 C179 0.930 . S
H184 C181 0.929 . S
S185 N186 1.613 . S
S185 N187 1.610 . S
N186 S185 1.613 . S
N186 C189 1.350 . S
N187 S185 1.610 . S
N187 C188 1.351 . S
C188 C182 1.428 . S
C188 N187 1.351 . S
C188 C189 1.434 . S
C189 C180 1.429 . S
C189 N186 1.350 . S
C189 C188 1.434 . S
C190 C191 1.369 . S
C190 C192 1.419 . S
C190 H194 0.930 . S
C191 C190 1.369 . S
C191 C200 1.429 . S
C192 C190 1.419 . S
C192 C193 1.363 . S
C192 H195 0.929 . S
C193 C192 1.363 . S
C193 C199 1.428 . S
H194 C190 0.930 . S
H195 C192 0.929 . S
S196 N197 1.613 . S
S196 N198 1.610 . S
N197 S196 1.613 . S
N197 C200 1.350 . S
N198 S196 1.610 . S
N198 C199 1.351 . S
C199 C193 1.428 . S
C199 N198 1.351 . S
C199 C200 1.434 . S
C200 C191 1.429 . S
C200 N197 1.350 . S
C200 C199 1.434 . S
C201 C202 1.369 . S
C201 C203 1.419 . S
C201 H205 0.930 . S
C202 C201 1.369 . S
C202 C211 1.429 . S
C203 C201 1.419 . S
C203 C204 1.363 . S
C203 H206 0.929 . S
C204 C203 1.363 . S
C204 C210 1.428 . S
H205 C201 0.930 . S
H206 C203 0.929 . S
S207 N208 1.613 . S
S207 N209 1.610 . S
N208 S207 1.613 . S
N208 C211 1.350 . S
N209 S207 1.610 . S
N209 C210 1.351 . S
C210 C204 1.428 . S
C210 N209 1.351 . S
C210 C211 1.434 . S
C211 C202 1.429 . S
C211 N208 1.350 . S
C211 C210 1.434 . S
C212 C213 1.369 . S
C212 C214 1.419 . S
C212 H216 0.930 . S
C213 C212 1.369 . S
C213 C222 1.429 . S
C214 C212 1.419 . S
C214 C215 1.363 . S
C214 H217 0.929 . S
C215 C214 1.363 . S
C215 C221 1.428 . S
H216 C212 0.930 . S
H217 C214 0.929 . S
S218 N219 1.613 . S
S218 N220 1.610 . S
N219 S218 1.613 . S
N219 C222 1.350 . S
N220 S218 1.610 . S
N220 C221 1.351 . S
C221 C215 1.428 . S
C221 N220 1.351 . S
C221 C222 1.434 . S
C222 C213 1.429 . S
C222 N219 1.350 . S
C222 C221 1.434 . S
C223 C224 1.369 . S
C223 C225 1.419 . S
C223 H227 0.930 . S
C224 C223 1.369 . S
C224 C233 1.429 . S
C225 C223 1.419 . S
C225 C226 1.363 . S
C225 H228 0.929 . S
C226 C225 1.363 . S
C226 C232 1.428 . S
H227 C223 0.930 . S
H228 C225 0.929 . S
S229 N230 1.613 . S
S229 N231 1.610 . S
N230 S229 1.613 . S
N230 C233 1.350 . S
N231 S229 1.610 . S
N231 C232 1.351 . S
C232 C226 1.428 . S
C232 N231 1.351 . S
C232 C233 1.434 . S
C233 C224 1.429 . S
C233 N230 1.350 . S
C233 C232 1.434 . S
C234 C235 1.369 . S
C234 C236 1.419 . S
C234 H238 0.930 . S
C235 C234 1.369 . S
C235 C244 1.429 1_545 S
C236 C234 1.419 . S
C236 C237 1.363 1_545 S
C236 H239 0.929 . S
C237 C236 1.363 1_565 S
C237 C243 1.428 . S
H238 C234 0.930 . S
H239 C236 0.929 . S
S240 N241 1.613 . S
S240 N242 1.610 . S
N241 S240 1.613 . S
N241 C244 1.350 . S
N242 S240 1.610 . S
N242 C243 1.351 . S
C243 C237 1.428 . S
C243 N242 1.351 . S
C243 C244 1.434 . S
C244 C235 1.429 1_565 S
C244 N241 1.350 . S
C244 C243 1.434 . S
C245 C246 1.369 . S
C245 C247 1.419 . S
C245 H249 0.930 . S
C246 C245 1.369 . S
C246 C255 1.429 . S
C247 C245 1.419 . S
C247 C248 1.363 . S
C247 H250 0.929 . S
C248 C247 1.363 . S
C248 C254 1.428 . S
H249 C245 0.930 . S
H250 C247 0.929 . S
S251 N252 1.613 . S
S251 N253 1.610 . S
N252 S251 1.613 . S
N252 C255 1.350 . S
N253 S251 1.610 . S
N253 C254 1.351 . S
C254 C248 1.428 . S
C254 N253 1.351 . S
C254 C255 1.434 . S
C255 C246 1.429 . S
C255 N252 1.350 . S
C255 C254 1.434 . S
C256 C257 1.369 1_655 S
C256 C258 1.419 . S
C256 H260 0.930 . S
C257 C256 1.369 1_455 S
C257 C266 1.429 . S
C258 C256 1.419 . S
C258 C259 1.363 . S
C258 H261 0.929 . S
C259 C258 1.363 . S
C259 C265 1.428 1_655 S
H260 C256 0.930 . S
H261 C258 0.929 . S
S262 N263 1.613 . S
S262 N264 1.610 . S
N263 S262 1.613 . S
N263 C266 1.350 1_554 S
N264 S262 1.610 . S
N264 C265 1.351 1_554 S
C265 C259 1.428 1_455 S
C265 N264 1.351 1_556 S
C265 C266 1.434 . S
C266 C257 1.429 . S
C266 N263 1.350 1_556 S
C266 C265 1.434 . S
C267 C268 1.369 1_455 S
C267 C269 1.419 . S
C267 H271 0.930 . S
C268 C267 1.369 1_655 S
C268 C277 1.429 . S
C269 C267 1.419 . S
C269 C270 1.363 . S
C269 H272 0.929 . S
C270 C269 1.363 . S
C270 C276 1.428 1_455 S
H271 C267 0.930 . S
H272 C269 0.929 . S
S273 N274 1.613 . S
S273 N275 1.610 . S
N274 S273 1.613 . S
N274 C277 1.350 . S
N275 S273 1.610 . S
N275 C276 1.351 . S
C276 C270 1.428 1_655 S
C276 N275 1.351 . S
C276 C277 1.434 . S
C277 C268 1.429 . S
C277 N274 1.350 . S
C277 C276 1.434 . S
C278 C279 1.369 . S
C278 C280 1.419 . S
C278 H282 0.930 . S
C279 C278 1.369 . S
C279 C288 1.429 1_545 S
C280 C278 1.419 . S
C280 C281 1.363 1_545 S
C280 H283 0.929 . S
C281 C280 1.363 1_565 S
C281 C287 1.428 . S
H282 C278 0.930 . S
H283 C280 0.929 . S
S284 N285 1.613 . S
S284 N286 1.610 . S
N285 S284 1.613 . S
N285 C288 1.350 . S
N286 S284 1.610 . S
N286 C287 1.351 . S
C287 C281 1.428 . S
C287 N286 1.351 . S
C287 C288 1.434 . S
C288 C279 1.429 1_565 S
C288 N285 1.350 . S
C288 C287 1.434 . S
C289 C290 1.369 . S
C289 C291 1.419 . S
C289 H293 0.930 . S
C290 C289 1.369 . S
C290 C299 1.429 1_554 S
C291 C289 1.419 . S
C291 C292 1.363 . S
C291 H294 0.929 . S
C292 C291 1.363 . S
C292 C298 1.428 1_554 S
H293 C289 0.930 . S
H294 C291 0.929 . S
S295 N296 1.613 . S
S295 N297 1.610 . S
N296 S295 1.613 . S
N296 C299 1.350 . S
N297 S295 1.610 . S
N297 C298 1.351 . S
C298 C292 1.428 1_556 S
C298 N297 1.351 . S
C298 C299 1.434 . S
C299 C290 1.429 1_556 S
C299 N296 1.350 . S
C299 C298 1.434 . S
C300 C301 1.369 . S
C300 C302 1.419 . S
C300 H304 0.930 . S
C301 C300 1.369 . S
C301 C310 1.429 . S
C302 C300 1.419 . S
C302 C303 1.363 . S
C302 H305 0.929 . S
C303 C302 1.363 . S
C303 C309 1.428 . S
H304 C300 0.930 . S
H305 C302 0.929 . S
S306 N307 1.613 . S
S306 N308 1.610 . S
N307 S306 1.613 . S
N307 C310 1.350 . S
N308 S306 1.610 . S
N308 C309 1.351 . S
C309 C303 1.428 . S
C309 N308 1.351 . S
C309 C310 1.434 . S
C310 C301 1.429 . S
C310 N307 1.350 . S
C310 C309 1.434 . S
C311 C312 1.369 . S
C311 C313 1.419 . S
C311 H315 0.930 . S
C312 C311 1.369 . S
C312 C321 1.429 . S
C313 C311 1.419 . S
C313 C314 1.363 . S
C313 H316 0.929 . S
C314 C313 1.363 . S
C314 C320 1.428 . S
H315 C311 0.930 . S
H316 C313 0.929 . S
S317 N318 1.613 . S
S317 N319 1.610 . S
N318 S317 1.613 . S
N318 C321 1.350 . S
N319 S317 1.610 . S
N319 C320 1.351 . S
C320 C314 1.428 . S
C320 N319 1.351 . S
C320 C321 1.434 . S
C321 C312 1.429 . S
C321 N318 1.350 . S
C321 C320 1.434 . S
C322 C323 1.369 1_556 S
C322 C324 1.419 . S
C322 H326 0.930 . S
C323 C322 1.369 1_554 S
C323 C332 1.429 . S
C324 C322 1.419 . S
C324 C325 1.363 . S
C324 H327 0.929 . S
C325 C324 1.363 . S
C325 C331 1.428 1_556 S
H326 C322 0.930 . S
H327 C324 0.929 . S
S328 N329 1.613 . S
S328 N330 1.610 . S
N329 S328 1.613 . S
N329 C332 1.350 . S
N330 S328 1.610 . S
N330 C331 1.351 . S
C331 C325 1.428 1_554 S
C331 N330 1.351 . S
C331 C332 1.434 . S
C332 C323 1.429 . S
C332 N329 1.350 . S
C332 C331 1.434 . S
C333 C334 1.369 . S
C333 C335 1.419 . S
C333 H337 0.930 . S
C334 C333 1.369 . S
C334 C343 1.429 . S
C335 C333 1.419 . S
C335 C336 1.363 . S
C335 H338 0.929 . S
C336 C335 1.363 . S
C336 C342 1.428 . S
H337 C333 0.930 . S
H338 C335 0.929 . S
S339 N340 1.613 . S
S339 N341 1.610 . S
N340 S339 1.613 . S
N340 C343 1.350 . S
N341 S339 1.610 . S
N341 C342 1.351 . S
C342 C336 1.428 . S
C342 N341 1.351 . S
C342 C343 1.434 . S
C343 C334 1.429 . S
C343 N340 1.350 . S
C343 C342 1.434 . S
C344 C345 1.369 . S
C344 C346 1.419 . S
C344 H348 0.930 . S
C345 C344 1.369 . S
C345 C354 1.429 . S
C346 C344 1.419 . S
C346 C347 1.363 . S
C346 H349 0.929 . S
C347 C346 1.363 . S
C347 C353 1.428 . S
H348 C344 0.930 . S
H349 C346 0.929 . S
S350 N351 1.613 . S
S350 N352 1.610 . S
N351 S350 1.613 . S
N351 C354 1.350 . S
N352 S350 1.610 . S
N352 C353 1.351 . S
C353 C347 1.428 . S
C353 N352 1.351 . S
C353 C354 1.434 . S
C354 C345 1.429 . S
C354 N351 1.350 . S
C354 C353 1.434 . S
C355 C356 1.369 . S
C355 C357 1.419 1_554 S
C355 H359 0.930 . S
C356 C355 1.369 . S
C356 C365 1.429 . S
C357 C355 1.419 1_556 S
C357 C358 1.363 . S
C357 H360 0.929 . S
C358 C357 1.363 . S
C358 C364 1.428 . S
H359 C355 0.930 . S
H360 C357 0.929 . S
S361 N362 1.613 . S
S361 N363 1.610 1_554 S
N362 S361 1.613 . S
N362 C365 1.350 . S
N363 S361 1.610 1_556 S
N363 C364 1.351 . S
C364 C358 1.428 . S
C364 N363 1.351 . S
C364 C365 1.434 1_556 S
C365 C356 1.429 . S
C365 N362 1.350 . S
C365 C364 1.434 1_554 S
C366 C367 1.369 1_565 S
C366 C368 1.419 . S
C366 H370 0.930 . S
C367 C366 1.369 1_545 S
C367 C376 1.429 . S
C368 C366 1.419 . S
C368 C369 1.363 . S
C368 H371 0.929 . S
C369 C368 1.363 . S
C369 C375 1.428 1_565 S
H370 C366 0.930 . S
H371 C368 0.929 . S
S372 N373 1.613 . S
S372 N374 1.610 . S
N373 S372 1.613 . S
N373 C376 1.350 . S
N374 S372 1.610 . S
N374 C375 1.351 . S
C375 C369 1.428 1_545 S
C375 N374 1.351 . S
C375 C376 1.434 . S
C376 C367 1.429 . S
C376 N373 1.350 . S
C376 C375 1.434 . S
C377 C378 1.369 . S
C377 C379 1.419 . S
C377 H381 0.930 . S
C378 C377 1.369 . S
C378 C387 1.429 . S
C379 C377 1.419 . S
C379 C380 1.363 . S
C379 H382 0.929 . S
C380 C379 1.363 . S
C380 C386 1.428 . S
H381 C377 0.930 . S
H382 C379 0.929 . S
S383 N384 1.613 . S
S383 N385 1.610 . S
N384 S383 1.613 . S
N384 C387 1.350 . S
N385 S383 1.610 . S
N385 C386 1.351 . S
C386 C380 1.428 . S
C386 N385 1.351 . S
C386 C387 1.434 . S
C387 C378 1.429 . S
C387 N384 1.350 . S
C387 C386 1.434 . S
C388 C389 1.369 1_655 S
C388 C390 1.419 . S
C388 H392 0.930 . S
C389 C388 1.369 1_455 S
C389 C398 1.429 . S
C390 C388 1.419 . S
C390 C391 1.363 . S
C390 H393 0.929 . S
C391 C390 1.363 . S
C391 C397 1.428 1_655 S
H392 C388 0.930 . S
H393 C390 0.929 . S
S394 N395 1.613 . S
S394 N396 1.610 . S
N395 S394 1.613 . S
N395 C398 1.350 . S
N396 S394 1.610 . S
N396 C397 1.351 . S
C397 C391 1.428 1_455 S
C397 N396 1.351 . S
C397 C398 1.434 . S
C398 C389 1.429 . S
C398 N395 1.350 . S
C398 C397 1.434 . S
C399 C400 1.369 . S
C399 C401 1.419 . S
C399 H403 0.930 . S
C400 C399 1.369 . S
C400 C409 1.429 1_565 S
C401 C399 1.419 . S
C401 C402 1.363 1_565 S
C401 H404 0.929 . S
C402 C401 1.363 1_545 S
C402 C408 1.428 . S
H403 C399 0.930 . S
H404 C401 0.929 . S
S405 N406 1.613 . S
S405 N407 1.610 . S
N406 S405 1.613 . S
N406 C409 1.350 . S
N407 S405 1.610 . S
N407 C408 1.351 . S
C408 C402 1.428 . S
C408 N407 1.351 . S
C408 C409 1.434 . S
C409 C400 1.429 1_545 S
C409 N406 1.350 . S
C409 C408 1.434 . S
C410 C411 1.369 . S
C410 C412 1.419 . S
C410 H414 0.930 . S
C411 C410 1.369 . S
C411 C420 1.429 . S
C412 C410 1.419 . S
C412 C413 1.363 . S
C412 H415 0.929 . S
C413 C412 1.363 . S
C413 C419 1.428 . S
H414 C410 0.930 . S
H415 C412 0.929 . S
S416 N417 1.613 . S
S416 N418 1.610 . S
N417 S416 1.613 . S
N417 C420 1.350 . S
N418 S416 1.610 . S
N418 C419 1.351 . S
C419 C413 1.428 . S
C419 N418 1.351 . S
C419 C420 1.434 . S
C420 C411 1.429 . S
C420 N417 1.350 . S
C420 C419 1.434 . S
C421 C422 1.369 . S
C421 C423 1.419 . S
C421 H425 0.930 . S
C422 C421 1.369 . S
C422 C431 1.429 1_655 S
C423 C421 1.419 . S
C423 C424 1.363 1_655 S
C423 H426 0.929 . S
C424 C423 1.363 1_455 S
C424 C430 1.428 . S
H425 C421 0.930 . S
H426 C423 0.929 . S
S427 N428 1.613 . S
S427 N429 1.610 . S
N428 S427 1.613 . S
N428 C431 1.350 . S
N429 S427 1.610 . S
N429 C430 1.351 . S
C430 C424 1.428 . S
C430 N429 1.351 . S
C430 C431 1.434 . S
C431 C422 1.429 1_455 S
C431 N428 1.350 . S
C431 C430 1.434 . S
C169 C8 1.703 . S
C171 C120 1.705 . S
C180 C22 1.706 . S
C182 C134 1.704 . S
C191 C148 1.704 . S
C193 C36 1.706 . S
C202 C162 1.703 . S
C204 C50 1.705 . S
C213 C92 1.705 . S
C215 C64 1.705 . S
C224 C106 1.704 . S
C226 C78 1.704 . S
C235 C7 1.508 . S
C237 C49 1.514 . S
C246 C63 1.503 . S
C248 C21 1.512 . S
C257 C77 1.513 . S
C259 C35 1.505 . S
C268 C91 1.511 . S
C270 C133 1.505 . S
C279 C147 1.507 . S
C281 C105 1.514 . S
C290 C119 1.506 . S
C292 C161 1.507 . S
C301 C87 1.109 . S
C303 C3 1.101 . S
C312 C17 1.109 . S
C314 C101 1.101 . S
C323 C115 1.107 . S
C325 C31 1.102 . S
C334 C129 1.106 . S
C336 C45 1.102 . S
C345 C59 1.110 . S
C347 C143 1.100 . S
C356 C157 1.103 . S
C358 C73 1.105 . S
C367 C9 1.173 . S
C369 C107 1.162 . S
C378 C121 1.173 . S
C380 C23 1.161 . S
C389 C135 1.172 . S
C391 C37 1.162 . S
C400 C51 1.159 . S
C402 C149 1.171 . S
C411 C163 1.165 . S
C413 C65 1.168 . S
C422 C93 1.159 . S
C424 C79 1.170 . S
