# Generated by pormake.
# Topology umm, (4)-cn, num edge types: 1
# Building blocks:
#     Node 0, Type 0, BuildingBlock: MUDLON_clean_sbu_0, # of connection points: 4
#     Node 1, Type 0, BuildingBlock: MUDLON_clean_sbu_0, # of connection points: 4
#     Node 2, Type 0, BuildingBlock: MUDLON_clean_sbu_0, # of connection points: 4
#     Node 3, Type 0, BuildingBlock: MUDLON_clean_sbu_0, # of connection points: 4
#     Node 4, Type 0, BuildingBlock: MUDLON_clean_sbu_0, # of connection points: 4
#     Node 5, Type 0, BuildingBlock: MUDLON_clean_sbu_0, # of connection points: 4
#     Node 6, Type 0, BuildingBlock: MUDLON_clean_sbu_0, # of connection points: 4
#     Node 7, Type 0, BuildingBlock: MUDLON_clean_sbu_0, # of connection points: 4
#     Node 8, Type 0, BuildingBlock: MUDLON_clean_sbu_0, # of connection points: 4
#     Node 9, Type 0, BuildingBlock: MUDLON_clean_sbu_0, # of connection points: 4
#     Node 10, Type 0, BuildingBlock: MUDLON_clean_sbu_0, # of connection points: 4
#     Node 11, Type 0, BuildingBlock: MUDLON_clean_sbu_0, # of connection points: 4
#     Edge 12, Type (0, 0), BuildingBlock: UVAHIK_clean_linker_0, # of connection points: 2
#     Edge 13, Type (0, 0), BuildingBlock: UVAHIK_clean_linker_0, # of connection points: 2
#     Edge 14, Type (0, 0), BuildingBlock: UVAHIK_clean_linker_0, # of connection points: 2
#     Edge 15, Type (0, 0), BuildingBlock: UVAHIK_clean_linker_0, # of connection points: 2
#     Edge 16, Type (0, 0), BuildingBlock: UVAHIK_clean_linker_0, # of connection points: 2
#     Edge 17, Type (0, 0), BuildingBlock: UVAHIK_clean_linker_0, # of connection points: 2
#     Edge 18, Type (0, 0), BuildingBlock: UVAHIK_clean_linker_0, # of connection points: 2
#     Edge 19, Type (0, 0), BuildingBlock: UVAHIK_clean_linker_0, # of connection points: 2
#     Edge 20, Type (0, 0), BuildingBlock: UVAHIK_clean_linker_0, # of connection points: 2
#     Edge 21, Type (0, 0), BuildingBlock: UVAHIK_clean_linker_0, # of connection points: 2
#     Edge 22, Type (0, 0), BuildingBlock: UVAHIK_clean_linker_0, # of connection points: 2
#     Edge 23, Type (0, 0), BuildingBlock: UVAHIK_clean_linker_0, # of connection points: 2
#     Edge 24, Type (0, 0), BuildingBlock: UVAHIK_clean_linker_0, # of connection points: 2
#     Edge 25, Type (0, 0), BuildingBlock: UVAHIK_clean_linker_0, # of connection points: 2
#     Edge 26, Type (0, 0), BuildingBlock: UVAHIK_clean_linker_0, # of connection points: 2
#     Edge 27, Type (0, 0), BuildingBlock: UVAHIK_clean_linker_0, # of connection points: 2
#     Edge 28, Type (0, 0), BuildingBlock: UVAHIK_clean_linker_0, # of connection points: 2
#     Edge 29, Type (0, 0), BuildingBlock: UVAHIK_clean_linker_0, # of connection points: 2
#     Edge 30, Type (0, 0), BuildingBlock: UVAHIK_clean_linker_0, # of connection points: 2
#     Edge 31, Type (0, 0), BuildingBlock: UVAHIK_clean_linker_0, # of connection points: 2
#     Edge 32, Type (0, 0), BuildingBlock: UVAHIK_clean_linker_0, # of connection points: 2
#     Edge 33, Type (0, 0), BuildingBlock: UVAHIK_clean_linker_0, # of connection points: 2
#     Edge 34, Type (0, 0), BuildingBlock: UVAHIK_clean_linker_0, # of connection points: 2
#     Edge 35, Type (0, 0), BuildingBlock: UVAHIK_clean_linker_0, # of connection points: 2
# Relax obj value: 0.066
# Max RMSD: 0.172
# Mean RMSD: 0.172
data_MOF--net-umm--node1-MUDLON_clean_sbu_0--edge1-UVAHIK_clean_linker_0
_symmetry_space_group_name_H-M    P1
_symmetry_Int_Tables_number       1
_symmetry_cell_setting            triclinic
loop_
_symmetry_equiv_pos_as_xyz
'x, y, z'
_cell_length_a     75.394851
_cell_length_b     75.422847
_cell_length_c     38.030059
_cell_angle_alpha  90.046637
_cell_angle_beta   89.887037
_cell_angle_gamma 119.95767
loop_
_atom_site_label
_atom_site_type_symbol
_atom_site_fract_x
_atom_site_fract_y
_atom_site_fract_z
_atom_type_partial_charge
Mg0 Mg 0.40191 0.54297 0.08931 0.0
C1 C 0.43831 0.53898 0.0958 0.0
O2 O 0.44489 0.5586 0.09991 0.0
C3 C 0.35739 0.53002 0.09143 0.0
O4 O 0.36519 0.54584 0.11273 0.0
C5 C 0.39836 0.54767 0.1662 0.0
O6 O 0.38636 0.52788 0.16178 0.0
O7 O 0.40712 0.55874 0.13943 0.0
O8 O 0.41925 0.52698 0.09091 0.0
O9 O 0.41452 0.56349 0.04458 0.0
C10 C 0.40313 0.56706 0.02463 0.0
O11 O 0.38397 0.56015 0.03365 0.0
O12 O 0.36917 0.52403 0.07882 0.0
Mg13 Mg 0.8603 0.39737 0.41452 0.0
C14 C 0.90226 0.43218 0.39818 0.0
O15 O 0.89055 0.43807 0.38257 0.0
C16 C 0.83002 0.35363 0.427 0.0
O17 O 0.82224 0.36306 0.44487 0.0
C18 C 0.86182 0.42101 0.48044 0.0
O19 O 0.87941 0.43429 0.46625 0.0
O20 O 0.84999 0.40478 0.46348 0.0
O21 O 0.89382 0.41485 0.41352 0.0
O22 O 0.84885 0.40226 0.36495 0.0
C23 C 0.84605 0.41661 0.3541 0.0
O24 O 0.84962 0.43184 0.37521 0.0
O25 O 0.84754 0.36431 0.41284 0.0
Mg26 Mg 0.47515 0.85886 0.75825 0.0
C27 C 0.4775 0.89891 0.75759 0.0
O28 O 0.45777 0.88567 0.75738 0.0
C29 C 0.4926 0.83096 0.7618 0.0
O30 O 0.47994 0.82454 0.78867 0.0
C31 C 0.44554 0.84547 0.82237 0.0
O32 O 0.43286 0.84701 0.80062 0.0
O33 O 0.46285 0.84885 0.81111 0.0
O34 O 0.48995 0.89214 0.75794 0.0
O35 O 0.45306 0.84911 0.71551 0.0
C36 C 0.45054 0.83468 0.69501 0.0
O37 O 0.45881 0.82351 0.70335 0.0
O38 O 0.49513 0.84661 0.74492 0.0
Mg39 Mg 0.62494 0.46919 0.09173 0.0
C40 C 0.58726 0.47176 0.08827 0.0
O41 O 0.58072 0.45209 0.08539 0.0
C42 C 0.66985 0.48475 0.09223 0.0
O43 O 0.66317 0.47045 0.1165 0.0
C44 C 0.60849 0.44139 0.15794 0.0
O45 O 0.59295 0.42928 0.13782 0.0
O46 O 0.6232 0.45764 0.14496 0.0
O47 O 0.60643 0.48402 0.09127 0.0
O48 O 0.61247 0.4466 0.04956 0.0
C49 C 0.62426 0.44369 0.02936 0.0
O50 O 0.64372 0.45201 0.03753 0.0
O51 O 0.65715 0.48902 0.07809 0.0
Mg52 Mg 0.15795 0.61636 0.43073 0.0
C53 C 0.11694 0.58037 0.43639 0.0
O54 O 0.12912 0.57439 0.44995 0.0
C55 C 0.18719 0.66139 0.43658 0.0
O56 O 0.19319 0.65428 0.46272 0.0
C57 C 0.17776 0.60915 0.49847 0.0
O58 O 0.19118 0.60828 0.47752 0.0
O59 O 0.16391 0.6121 0.48548 0.0
O60 O 0.12479 0.59872 0.42544 0.0
O61 O 0.16911 0.60457 0.389 0.0
C62 C 0.18527 0.61662 0.37198 0.0
O63 O 0.19704 0.63525 0.38396 0.0
O64 O 0.17138 0.64895 0.41928 0.0
Mg65 Mg 0.54591 0.15478 0.76064 0.0
C66 C 0.5435 0.11466 0.75815 0.0
O67 O 0.56322 0.12787 0.75671 0.0
C68 C 0.52836 0.18257 0.76489 0.0
O69 O 0.541 0.18886 0.79172 0.0
C70 C 0.57442 0.1665 0.82607 0.0
O71 O 0.58655 0.1633 0.80549 0.0
O72 O 0.55793 0.16466 0.81363 0.0
O73 O 0.53111 0.12148 0.75996 0.0
O74 O 0.56814 0.1647 0.71795 0.0
C75 C 0.57029 0.17877 0.69695 0.0
O76 O 0.56152 0.18957 0.70471 0.0
O77 O 0.52589 0.16703 0.74767 0.0
Mg78 Mg 0.47285 0.61602 0.59062 0.0
C79 C 0.47893 0.58153 0.57603 0.0
O80 O 0.45925 0.57452 0.57156 0.0
C81 C 0.48089 0.65486 0.62214 0.0
O82 O 0.4624 0.64149 0.63291 0.0
C83 C 0.46285 0.62099 0.51672 0.0
O84 O 0.48157 0.63654 0.51966 0.0
O85 O 0.45442 0.60981 0.54352 0.0
O86 O 0.49029 0.60034 0.58384 0.0
O87 O 0.45517 0.60262 0.63818 0.0
C88 C 0.46619 0.60319 0.66392 0.0
O89 O 0.48575 0.60998 0.65833 0.0
O90 O 0.49022 0.64892 0.60153 0.0
Mg91 Mg 0.86543 0.46975 0.923 0.0
C92 C 0.90654 0.47496 0.91871 0.0
O93 O 0.89443 0.45651 0.90618 0.0
C94 C 0.83471 0.48378 0.91946 0.0
O95 O 0.82752 0.46909 0.89587 0.0
C96 C 0.8461 0.44304 0.85459 0.0
O97 O 0.83206 0.42884 0.87483 0.0
O98 O 0.85998 0.45959 0.86823 0.0
O99 O 0.89859 0.48559 0.92855 0.0
O100 O 0.85458 0.44682 0.96475 0.0
C101 C 0.83829 0.44228 0.98178 0.0
O102 O 0.82612 0.44869 0.96989 0.0
O103 O 0.85171 0.4887 0.93413 0.0
Mg104 Mg 0.4015 0.85566 0.26085 0.0
C105 C 0.43775 0.89654 0.25694 0.0
O106 O 0.44497 0.884 0.2604 0.0
C107 C 0.36315 0.82575 0.29499 0.0
O108 O 0.37598 0.81919 0.30171 0.0
C109 C 0.41848 0.84311 0.19687 0.0
O110 O 0.43479 0.84901 0.21651 0.0
O111 O 0.40299 0.84335 0.20964 0.0
O112 O 0.41841 0.889 0.25595 0.0
O113 O 0.41554 0.84976 0.30617 0.0
C114 C 0.41494 0.85986 0.33255 0.0
O115 O 0.40765 0.87229 0.32794 0.0
O116 O 0.36924 0.84174 0.27622 0.0
Mg117 Mg 0.5534 0.39874 0.59546 0.0
C118 C 0.54936 0.43562 0.5955 0.0
O119 O 0.56864 0.44251 0.60357 0.0
C120 C 0.54293 0.35918 0.62684 0.0
O121 O 0.5623 0.37122 0.6347 0.0
C122 C 0.5833 0.41691 0.53274 0.0
O123 O 0.59233 0.43333 0.55256 0.0
O124 O 0.56811 0.40076 0.545 0.0
O125 O 0.53786 0.4165 0.59034 0.0
O126 O 0.57266 0.41101 0.64205 0.0
C127 C 0.5619 0.40994 0.66868 0.0
O128 O 0.54234 0.40347 0.6639 0.0
O129 O 0.53384 0.36628 0.60831 0.0
Mg130 Mg 0.16408 0.55104 0.93851 0.0
C131 C 0.12217 0.54446 0.95337 0.0
O132 O 0.13392 0.5624 0.96787 0.0
C133 C 0.19525 0.53851 0.93161 0.0
O134 O 0.20421 0.55686 0.91747 0.0
C135 C 0.16334 0.57296 0.87183 0.0
O136 O 0.14549 0.56853 0.88507 0.0
O137 O 0.17498 0.56863 0.88956 0.0
O138 O 0.13057 0.5352 0.93913 0.0
O139 O 0.17536 0.56736 0.98818 0.0
C140 C 0.17817 0.58449 0.99921 0.0
O141 O 0.17471 0.59625 0.97821 0.0
O142 O 0.17663 0.53059 0.94111 0.0
Mg143 Mg 0.61809 0.15451 0.26298 0.0
C144 C 0.58203 0.1136 0.25871 0.0
O145 O 0.57471 0.12611 0.26148 0.0
C146 C 0.6563 0.18555 0.29446 0.0
O147 O 0.64339 0.19232 0.29847 0.0
C148 C 0.60107 0.16798 0.20053 0.0
O149 O 0.58557 0.1635 0.22162 0.0
O150 O 0.61617 0.16656 0.21188 0.0
O151 O 0.60138 0.1212 0.25838 0.0
O152 O 0.60428 0.16058 0.30855 0.0
C153 C 0.60546 0.15095 0.33511 0.0
O154 O 0.61302 0.13874 0.33049 0.0
O155 O 0.65035 0.1688 0.27802 0.0
C156 C 0.41787 0.57678 0.20827 0.0
C157 C 0.40225 0.55656 0.20203 0.0
C158 C 0.42236 0.58451 0.24258 0.0
C159 C 0.4166 0.56677 0.33477 0.0
H160 H 0.43376 0.62325 0.35697 0.0
C161 C 0.43447 0.59666 0.47707 0.0
C162 C 0.45287 0.61522 0.48177 0.0
C163 C 0.42635 0.59019 0.44339 0.0
C164 C 0.42907 0.60746 0.35113 0.0
H165 H 0.37854 0.5289 0.22679 0.0
H166 H 0.38608 0.54247 0.28632 0.0
H167 H 0.42324 0.61068 0.29706 0.0
H168 H 0.47664 0.64195 0.45491 0.0
H169 H 0.4625 0.63063 0.39628 0.0
H170 H 0.42258 0.56355 0.38864 0.0
C171 C 0.39522 0.55223 0.26489 0.0
C172 C 0.42309 0.60026 0.31679 0.0
C173 C 0.39082 0.54448 0.23069 0.0
C174 C 0.46247 0.62755 0.45223 0.0
C175 C 0.4543 0.62112 0.41859 0.0
C176 C 0.42249 0.57393 0.36905 0.0
C177 C 0.41127 0.57222 0.27138 0.0
C178 C 0.41691 0.57985 0.30812 0.0
C179 C 0.43638 0.60216 0.41369 0.0
C180 C 0.42893 0.59439 0.37762 0.0
H181 H 0.42699 0.58647 0.18675 0.0
H182 H 0.43496 0.59991 0.2466 0.0
H183 H 0.41233 0.55107 0.32898 0.0
H184 H 0.42665 0.58682 0.49926 0.0
H185 H 0.41235 0.57564 0.44054 0.0
C186 C 0.87082 0.44152 0.53604 0.0
C187 C 0.85732 0.42368 0.51753 0.0
C188 C 0.86816 0.44326 0.57201 0.0
C189 C 0.83123 0.42151 0.64609 0.0
H190 H 0.88078 0.44499 0.70203 0.0
C191 C 0.83098 0.42208 0.79958 0.0
C192 C 0.84607 0.44006 0.81591 0.0
C193 C 0.83135 0.41947 0.76308 0.0
C194 C 0.86679 0.4386 0.68682 0.0
H195 H 0.82988 0.39396 0.52223 0.0
H196 H 0.82527 0.39698 0.58519 0.0
H197 H 0.88289 0.44198 0.63872 0.0
H198 H 0.87325 0.4695 0.80637 0.0
H199 H 0.87378 0.46502 0.74324 0.0
H200 H 0.81517 0.41815 0.69451 0.0
C201 C 0.83789 0.40968 0.57176 0.0
C202 C 0.86801 0.43689 0.65043 0.0
C203 C 0.84056 0.40793 0.53565 0.0
C204 C 0.86142 0.45539 0.79484 0.0
C205 C 0.86181 0.45277 0.75854 0.0
C206 C 0.83001 0.42324 0.68265 0.0
C207 C 0.85193 0.4272 0.59054 0.0
C208 C 0.85029 0.42852 0.62948 0.0
C209 C 0.84688 0.43475 0.74214 0.0
C210 C 0.84783 0.43201 0.70343 0.0
H211 H 0.88381 0.45403 0.52295 0.0
H212 H 0.87901 0.45717 0.58543 0.0
H213 H 0.81729 0.41509 0.63076 0.0
H214 H 0.81893 0.40997 0.81498 0.0
H215 H 0.8197 0.40533 0.75137 0.0
C216 C 0.42178 0.83832 0.87368 0.0
C217 C 0.44049 0.84135 0.86035 0.0
C218 C 0.41768 0.83576 0.90984 0.0
C219 C 0.43509 0.82414 0.99406 0.0
H220 H 0.40934 0.85259 0.0357 0.0
C221 C 0.43652 0.83987 0.14365 0.0
C222 C 0.41894 0.83867 0.1589 0.0
C223 C 0.43769 0.83777 0.10725 0.0
C224 C 0.41628 0.8443 0.02448 0.0
H225 H 0.46941 0.84362 0.87467 0.0
H226 H 0.46242 0.8395 0.93747 0.0
H227 H 0.41391 0.85338 0.97223 0.0
H228 H 0.38848 0.8335 0.14783 0.0
H229 H 0.39052 0.82973 0.08454 0.0
H230 H 0.43784 0.81546 0.04656 0.0
C231 C 0.45074 0.8388 0.92006 0.0
C232 C 0.41888 0.84472 0.98801 0.0
C233 C 0.45481 0.8413 0.88395 0.0
C234 C 0.4023 0.83461 0.13702 0.0
C235 C 0.40351 0.83259 0.10066 0.0
C236 C 0.43256 0.82379 0.03059 0.0
C237 C 0.43221 0.83621 0.93356 0.0
C238 C 0.42847 0.83479 0.97229 0.0
C239 C 0.42134 0.83448 0.08524 0.0
C240 C 0.42323 0.83398 0.04628 0.0
H241 H 0.41036 0.83818 0.85626 0.0
H242 H 0.40311 0.83349 0.9192 0.0
H243 H 0.44223 0.81603 0.98288 0.0
H244 H 0.44962 0.843 0.15967 0.0
H245 H 0.45171 0.83946 0.09624 0.0
C246 C 0.62366 0.45156 0.21828 0.0
C247 C 0.60817 0.43724 0.19618 0.0
C248 C 0.62266 0.44856 0.25466 0.0
C249 C 0.59856 0.40963 0.32462 0.0
H250 H 0.60887 0.45611 0.38261 0.0
C251 C 0.5767 0.40172 0.47212 0.0
C252 C 0.58895 0.4179 0.49506 0.0
C253 C 0.58065 0.4035 0.43595 0.0
C254 C 0.6063 0.44304 0.36698 0.0
H255 H 0.5798 0.40816 0.19508 0.0
H256 H 0.5781 0.40289 0.25869 0.0
H257 H 0.61276 0.46011 0.31913 0.0
H258 H 0.61559 0.44827 0.49802 0.0
H259 H 0.62282 0.45119 0.43513 0.0
H260 H 0.59213 0.39254 0.37248 0.0
C261 C 0.59104 0.41644 0.24775 0.0
C262 C 0.60848 0.44533 0.33048 0.0
C263 C 0.59198 0.41951 0.2113 0.0
C264 C 0.60575 0.43557 0.48111 0.0
C265 C 0.6098 0.4373 0.44494 0.0
C266 C 0.59653 0.40735 0.36121 0.0
C267 C 0.60621 0.4311 0.2699 0.0
C268 C 0.60451 0.42864 0.30883 0.0
C269 C 0.59705 0.42145 0.42176 0.0
C270 C 0.60023 0.424 0.38289 0.0
H271 H 0.63642 0.46537 0.20759 0.0
H272 H 0.63473 0.46 0.27093 0.0
H273 H 0.59563 0.39653 0.30869 0.0
H274 H 0.56358 0.38789 0.4819 0.0
H275 H 0.57035 0.39106 0.41901 0.0
C276 C 0.16417 0.60801 0.55918 0.0
C277 C 0.17868 0.607 0.53721 0.0
C278 C 0.16488 0.60614 0.59564 0.0
C279 C 0.1847 0.58652 0.66535 0.0
H280 H 0.17151 0.61986 0.7256 0.0
C281 C 0.18548 0.58146 0.8177 0.0
C282 C 0.16855 0.58055 0.83507 0.0
C283 C 0.18901 0.5866 0.78193 0.0
C284 C 0.17512 0.61034 0.70918 0.0
H285 H 0.20535 0.6032 0.53663 0.0
H286 H 0.20666 0.60005 0.60048 0.0
H287 H 0.17331 0.62491 0.66215 0.0
H288 H 0.14244 0.58498 0.82858 0.0
H289 H 0.14855 0.59387 0.76658 0.0
H290 H 0.18625 0.57178 0.71247 0.0
C291 C 0.19461 0.60212 0.58933 0.0
C292 C 0.17613 0.61322 0.67274 0.0
C293 C 0.19392 0.60402 0.55272 0.0
C294 C 0.15564 0.58554 0.81612 0.0
C295 C 0.15921 0.59076 0.78051 0.0
C296 C 0.18371 0.58365 0.70187 0.0
C297 C 0.18013 0.60323 0.61128 0.0
C298 C 0.18059 0.60112 0.65026 0.0
C299 C 0.17576 0.59108 0.76278 0.0
C300 C 0.17858 0.5953 0.72421 0.0
H301 H 0.15215 0.61019 0.54825 0.0
H302 H 0.15324 0.60669 0.61156 0.0
H303 H 0.188 0.5768 0.64887 0.0
H304 H 0.19573 0.5777 0.83146 0.0
H305 H 0.20204 0.58694 0.76921 0.0
C306 C 0.61544 0.17449 0.13926 0.0
C307 C 0.60001 0.17229 0.16271 0.0
C308 C 0.61353 0.17649 0.10311 0.0
C309 C 0.57404 0.16474 0.03533 0.0
H310 H 0.62085 0.1979 0.97557 0.0
C311 C 0.56503 0.17245 0.88651 0.0
C312 C 0.57887 0.17053 0.8642 0.0
C313 C 0.56831 0.17469 0.92282 0.0
C314 C 0.60765 0.18847 0.99189 0.0
H315 H 0.57085 0.17134 0.1665 0.0
H316 H 0.5677 0.17523 0.10353 0.0
H317 H 0.62528 0.19866 0.03926 0.0
H318 H 0.60741 0.17008 0.86263 0.0
H319 H 0.61312 0.17395 0.92606 0.0
H320 H 0.55644 0.15447 0.98802 0.0
C321 C 0.5811 0.17496 0.11303 0.0
C322 C 0.61018 0.18888 0.02842 0.0
C323 C 0.58297 0.17289 0.14921 0.0
C324 C 0.59642 0.17151 0.87901 0.0
C325 C 0.59975 0.17383 0.91538 0.0
C326 C 0.57151 0.16439 0.99888 0.0
C327 C 0.59618 0.17642 0.08941 0.0
C328 C 0.59342 0.17691 0.05063 0.0
C329 C 0.58556 0.17513 0.93778 0.0
C330 C 0.58829 0.17615 0.97667 0.0
H331 H 0.62877 0.17406 0.14868 0.0
H332 H 0.62536 0.17735 0.0858 0.0
H333 H 0.56085 0.155 0.05144 0.0
H334 H 0.55139 0.17188 0.87605 0.0
H335 H 0.55725 0.17597 0.93923 0.0
C336 C 0.32947 0.50911 0.04803 0.0
C337 C 0.33638 0.52204 0.07757 0.0
C338 C 0.31094 0.50437 0.03178 0.0
C339 C 0.28137 0.51173 0.98819 0.0
H340 H 0.23533 0.50823 0.0398 0.0
C341 C 0.22832 0.53839 0.9308 0.0
C342 C 0.2078 0.52921 0.94175 0.0
C343 C 0.24138 0.53204 0.94465 0.0
C344 C 0.24782 0.50879 0.02482 0.0
H345 H 0.32863 0.53912 0.11438 0.0
H346 H 0.29668 0.5311 0.08606 0.0
H347 H 0.26227 0.50609 0.07131 0.0
H348 H 0.18457 0.50523 0.9743 0.0
H349 H 0.20738 0.49394 0.99825 0.0
H350 H 0.26702 0.51462 0.94174 0.0
C351 C 0.30535 0.52442 0.07546 0.0
C352 C 0.26344 0.50782 0.04299 0.0
C353 C 0.32382 0.52915 0.09162 0.0
C354 C 0.20032 0.51267 0.96537 0.0
C355 C 0.21344 0.50631 0.97931 0.0
C356 C 0.26572 0.51262 0.97001 0.0
C357 C 0.2989 0.5124 0.0448 0.0
C358 C 0.28073 0.50994 0.02505 0.0
C359 C 0.23428 0.5163 0.96982 0.0
C360 C 0.24907 0.51182 0.9882 0.0
H361 H 0.33875 0.50333 0.03656 0.0
H362 H 0.3063 0.49482 1.00851 0.0
H363 H 0.29447 0.51353 0.97345 0.0
H364 H 0.2346 0.55113 0.91257 0.0
H365 H 0.25735 0.54027 0.93695 0.0
C366 C 0.798 0.32012 0.43578 0.0
C367 C 0.81693 0.33158 0.41868 0.0
C368 C 0.78394 0.30041 0.42445 0.0
C369 C 0.76908 0.26925 0.34418 0.0
H370 H 0.72918 0.22842 0.40732 0.0
C371 C 0.69414 0.19775 0.29539 0.0
C372 C 0.67683 0.19717 0.3105 0.0
C373 C 0.71369 0.21066 0.30942 0.0
C374 C 0.74032 0.23957 0.38935 0.0
H375 H 0.83644 0.3308 0.37744 0.0
H376 H 0.81186 0.29614 0.35777 0.0
H377 H 0.75996 0.25749 0.43133 0.0
H378 H 0.66621 0.20873 0.35298 0.0
H379 H 0.69997 0.23068 0.37772 0.0
H380 H 0.74898 0.25152 0.30229 0.0
C381 C 0.80781 0.30259 0.37972 0.0
C382 C 0.75791 0.25629 0.40308 0.0
C383 C 0.82197 0.32238 0.39117 0.0
C384 C 0.67928 0.20894 0.34064 0.0
C385 C 0.69861 0.22141 0.355 0.0
C386 C 0.75153 0.25239 0.33041 0.0
C387 C 0.78842 0.29155 0.39568 0.0
C388 C 0.77209 0.2718 0.38078 0.0
C389 C 0.71608 0.2227 0.33928 0.0
C390 C 0.7366 0.23783 0.35298 0.0
H391 H 0.79362 0.3267 0.45709 0.0
H392 H 0.7691 0.29256 0.43715 0.0
H393 H 0.77957 0.28093 0.32619 0.0
H394 H 0.69265 0.18886 0.27206 0.0
H395 H 0.72694 0.21141 0.29679 0.0
C396 C 0.49737 0.80058 0.76695 0.0
C397 C 0.50074 0.81799 0.74807 0.0
C398 C 0.5021 0.7865 0.75217 0.0
C399 C 0.50714 0.76755 0.66564 0.0
H400 H 0.52089 0.73378 0.72338 0.0
C401 C 0.50376 0.69294 0.6146 0.0
C402 C 0.4904 0.67608 0.63537 0.0
C403 C 0.51067 0.71295 0.62665 0.0
C404 C 0.51725 0.74322 0.70682 0.0
H405 H 0.51277 0.83482 0.69941 0.0
H406 H 0.52134 0.81029 0.6737 0.0
H407 H 0.52355 0.76491 0.74796 0.0
H408 H 0.47465 0.66683 0.68551 0.0
H409 H 0.48705 0.70147 0.70674 0.0
H410 H 0.50036 0.74542 0.6248 0.0
C411 C 0.51472 0.80739 0.69981 0.0
C412 C 0.51864 0.76098 0.72094 0.0
C413 C 0.50996 0.82154 0.71467 0.0
C414 C 0.48486 0.67954 0.66886 0.0
C415 C 0.49207 0.69938 0.68114 0.0
C416 C 0.50595 0.74985 0.6514 0.0
C417 C 0.51041 0.78944 0.71808 0.0
C418 C 0.5128 0.77294 0.70101 0.0
C419 C 0.50475 0.71631 0.65999 0.0
C420 C 0.51025 0.73712 0.6723 0.0
H421 H 0.49031 0.79735 0.79273 0.0
H422 H 0.49826 0.77276 0.76692 0.0
H423 H 0.50237 0.77625 0.64954 0.0
H424 H 0.50817 0.69065 0.5886 0.0
H425 H 0.52041 0.72577 0.60984 0.0
C426 C 0.69728 0.50563 0.0478 0.0
C427 C 0.69069 0.4927 0.07735 0.0
C428 C 0.71577 0.51059 0.03101 0.0
C429 C 0.74608 0.50504 0.98617 0.0
H430 H 0.79159 0.50682 0.03653 0.0
C431 C 0.80122 0.48312 0.92095 0.0
C432 C 0.82143 0.49157 0.93312 0.0
C433 C 0.78759 0.48811 0.93695 0.0
C434 C 0.77926 0.50676 0.02188 0.0
H435 H 0.69889 0.47567 0.11339 0.0
H436 H 0.73056 0.48382 0.08393 0.0
H437 H 0.76443 0.50795 0.06909 0.0
H438 H 0.84351 0.51288 0.97042 0.0
H439 H 0.81987 0.52207 0.99778 0.0
H440 H 0.76105 0.50411 0.93894 0.0
C441 C 0.72179 0.4905 0.07384 0.0
C442 C 0.76346 0.50709 0.04068 0.0
C443 C 0.70345 0.48567 0.09069 0.0
C444 C 0.82801 0.506 0.96052 0.0
C445 C 0.81438 0.51113 0.9764 0.0
C446 C 0.762 0.50493 0.96736 0.0
C447 C 0.72803 0.50267 0.04331 0.0
C448 C 0.74632 0.50557 0.02317 0.0
C449 C 0.79383 0.50186 0.9654 0.0
C450 C 0.7785 0.50513 0.98499 0.0
H451 H 0.68786 0.51138 0.03691 0.0
H452 H 0.72022 0.5203 1.00794 0.0
H453 H 0.73315 0.50373 0.97166 0.0
H454 H 0.79558 0.47193 0.89994 0.0
H455 H 0.77187 0.48038 0.92797 0.0
C456 C 0.21868 0.69569 0.44252 0.0
C457 C 0.20067 0.68265 0.42404 0.0
C458 C 0.23303 0.71465 0.42861 0.0
C459 C 0.2508 0.74091 0.34328 0.0
H460 H 0.28704 0.7862 0.40331 0.0
C461 C 0.32512 0.81215 0.29188 0.0
C462 C 0.34235 0.81457 0.31022 0.0
C463 C 0.30535 0.79922 0.3052 0.0
C464 C 0.27692 0.77376 0.38616 0.0
H465 H 0.18314 0.67983 0.37712 0.0
H466 H 0.2081 0.71319 0.35303 0.0
H467 H 0.25607 0.75763 0.42803 0.0
H468 H 0.35259 0.80636 0.3575 0.0
H469 H 0.3184 0.78444 0.38104 0.0
H470 H 0.27206 0.757 0.3016 0.0
C471 C 0.21127 0.70855 0.37808 0.0
C472 C 0.25924 0.75731 0.40033 0.0
C473 C 0.19688 0.68949 0.39203 0.0
C474 C 0.33957 0.80472 0.34275 0.0
C475 C 0.31999 0.79226 0.35635 0.0
C476 C 0.26841 0.75751 0.32902 0.0
C477 C 0.22975 0.72119 0.39585 0.0
C478 C 0.24636 0.74028 0.37941 0.0
C479 C 0.30264 0.78902 0.33745 0.0
C480 C 0.28202 0.77373 0.35062 0.0
H481 H 0.22213 0.69095 0.46724 0.0
H482 H 0.24716 0.72373 0.44289 0.0
H483 H 0.24138 0.72804 0.32637 0.0
H484 H 0.32688 0.8195 0.26664 0.0
H485 H 0.29221 0.79695 0.29012 0.0
C486 C 0.52363 0.21294 0.77084 0.0
C487 C 0.52015 0.19556 0.75169 0.0
C488 C 0.51885 0.22706 0.75652 0.0
C489 C 0.51334 0.24611 0.67047 0.0
H490 H 0.5008 0.2804 0.72941 0.0
C491 C 0.51821 0.32143 0.62053 0.0
C492 C 0.53233 0.33811 0.64079 0.0
C493 C 0.51066 0.30134 0.63275 0.0
C494 C 0.50407 0.27081 0.71252 0.0
H495 H 0.50781 0.17881 0.70312 0.0
H496 H 0.4991 0.20338 0.67824 0.0
H497 H 0.4978 0.24905 0.75349 0.0
H498 H 0.54874 0.34709 0.69023 0.0
H499 H 0.53515 0.31231 0.71188 0.0
H500 H 0.52009 0.2683 0.62979 0.0
C501 C 0.50589 0.20625 0.70418 0.0
C502 C 0.5025 0.25292 0.72634 0.0
C503 C 0.51072 0.19207 0.71855 0.0
C504 C 0.53791 0.33448 0.67406 0.0
C505 C 0.53004 0.31458 0.68655 0.0
C506 C 0.51468 0.26392 0.65652 0.0
C507 C 0.51034 0.22418 0.72266 0.0
C508 C 0.50796 0.24078 0.70597 0.0
C509 C 0.5167 0.29777 0.66577 0.0
C510 C 0.51083 0.27684 0.67785 0.0
H511 H 0.53085 0.21613 0.79644 0.0
H512 H 0.52282 0.24079 0.77142 0.0
H513 H 0.51782 0.23728 0.65401 0.0
H514 H 0.51381 0.32387 0.59468 0.0
H515 H 0.50042 0.28862 0.61623 0.0
C516 C 0.44688 0.51077 0.09034 0.0
C517 C 0.45318 0.53152 0.09584 0.0
C518 C 0.46128 0.50417 0.0896 0.0
C519 C 0.51666 0.52342 0.07592 0.0
H520 H 0.50526 0.47294 0.12182 0.0
C521 C 0.57854 0.49986 0.0935 0.0
C522 C 0.57229 0.47909 0.08857 0.0
C523 C 0.56407 0.50637 0.09436 0.0
C524 C 0.50861 0.48697 0.10853 0.0
H525 H 0.47955 0.56154 0.10531 0.0
H526 H 0.50444 0.55004 0.10431 0.0
H527 H 0.47964 0.48366 0.12305 0.0
H528 H 0.54592 0.44891 0.08022 0.0
H529 H 0.52092 0.46026 0.08126 0.0
H530 H 0.5456 0.52672 0.06133 0.0
C531 C 0.48846 0.53888 0.10004 0.0
C532 C 0.4939 0.4931 0.10922 0.0
C533 C 0.47413 0.54545 0.10085 0.0
C534 C 0.55131 0.46503 0.08427 0.0
C535 C 0.53691 0.47152 0.0851 0.0
C536 C 0.53136 0.51728 0.07519 0.0
C537 C 0.48227 0.5182 0.09423 0.0
C538 C 0.49775 0.51142 0.09298 0.0
C539 C 0.54306 0.49224 0.09031 0.0
C540 C 0.52753 0.49897 0.09147 0.0
H541 H 0.43086 0.49966 0.08634 0.0
H542 H 0.456 0.48815 0.08478 0.0
H543 H 0.52001 0.53747 0.06267 0.0
H544 H 0.59457 0.51107 0.09699 0.0
H545 H 0.56934 0.52243 0.09876 0.0
C546 C 0.93752 0.44138 0.41914 0.0
C547 C 0.92466 0.44642 0.40018 0.0
C548 C 0.95845 0.45555 0.42246 0.0
C549 C 1.00042 0.50353 0.3835 0.0
H550 H 0.02633 0.50924 0.47399 0.0
C551 C 0.08162 0.57066 0.41505 0.0
C552 C 0.09473 0.56558 0.43309 0.0
C553 C 0.06082 0.55618 0.41107 0.0
C554 C 0.01937 0.50772 0.44845 0.0
H555 H 0.92384 0.47024 0.36943 0.0
H556 H 0.96004 0.49485 0.37558 0.0
H557 H 0.99046 0.48333 0.46619 0.0
H558 H 0.09616 0.54135 0.46145 0.0
H559 H 0.0601 0.51627 0.45445 0.0
H560 H 0.02933 0.52804 0.36588 0.0
C561 C 0.95412 0.47991 0.3875 0.0
C562 C 0.99881 0.49281 0.44394 0.0
C563 C 0.93327 0.46578 0.38416 0.0
C564 C 0.08652 0.54583 0.44742 0.0
C565 C 0.06578 0.53144 0.4436 0.0
C566 C 0.02096 0.51849 0.38805 0.0
C567 C 0.96698 0.47506 0.40689 0.0
C568 C 0.98905 0.49053 0.41141 0.0
C569 C 0.05268 0.53638 0.42524 0.0
C570 C 0.03069 0.52076 0.42058 0.0
H571 H 0.93139 0.4266 0.43177 0.0
H572 H 0.96796 0.4512 0.4372 0.0
H573 H 0.99351 0.50202 0.35793 0.0
H574 H 0.08744 0.58573 0.40371 0.0
H575 H 0.05107 0.56054 0.39709 0.0
C576 C 0.55057 0.08562 0.75676 0.0
C577 C 0.53627 0.0924 0.7578 0.0
C578 C 0.54413 0.06475 0.75649 0.0
C579 C 0.50012 0.01401 0.7783 0.0
H580 H 0.52866 0.99418 0.71954 0.0
C581 C 0.47033 0.92791 0.75774 0.0
C582 C 0.48468 0.92116 0.75754 0.0
C583 C 0.47674 0.94877 0.7578 0.0
C584 C 0.52069 0.9995 0.73641 0.0
H585 H 0.50389 0.08249 0.7593 0.0
H586 H 0.49257 0.04592 0.75847 0.0
H587 H 0.53914 0.03043 0.71893 0.0
H588 H 0.51709 0.93115 0.75718 0.0
H589 H 0.52833 0.96771 0.75748 0.0
H590 H 0.48164 0.98305 0.79572 0.0
C591 C 0.50883 0.05682 0.75828 0.0
C592 C 0.52667 0.02029 0.73605 0.0
C593 C 0.5153 0.07777 0.75857 0.0
C594 C 0.50564 0.93583 0.7573 0.0
C595 C 0.51207 0.95677 0.75729 0.0
C596 C 0.49412 0.99321 0.77863 0.0
C597 C 0.52319 0.05006 0.75719 0.0
C598 C 0.51649 0.02783 0.75703 0.0
C599 C 0.49767 0.96348 0.75763 0.0
C600 C 0.50432 0.98569 0.75769 0.0
H601 H 0.56686 0.09643 0.75631 0.0
H602 H 0.55563 0.06014 0.75624 0.0
H603 H 0.49216 0.01932 0.79523 0.0
H604 H 0.45405 0.91707 0.7578 0.0
H605 H 0.46523 0.95336 0.75751 0.0
C606 C 0.50735 0.57344 0.58358 0.0
C607 C 0.48701 0.5672 0.5744 0.0
C608 C 0.51424 0.55928 0.58415 0.0
C609 C 0.49479 0.50364 0.59176 0.0
H610 H 0.54875 0.51752 0.55806 0.0
C611 C 0.52139 0.44367 0.58205 0.0
C612 C 0.54164 0.45019 0.59227 0.0
C613 C 0.51455 0.4578 0.57872 0.0
C614 C 0.53369 0.51345 0.5679 0.0
H615 H 0.45818 0.54131 0.55755 0.0
H616 H 0.47022 0.51685 0.55821 0.0
H617 H 0.53759 0.54275 0.55433 0.0
H618 H 0.5705 0.47669 0.60733 0.0
H619 H 0.55855 0.50107 0.60201 0.0
H620 H 0.49093 0.4744 0.60559 0.0
C621 C 0.48076 0.53254 0.5656 0.0
C622 C 0.52731 0.52794 0.56576 0.0
C623 C 0.4739 0.54665 0.56501 0.0
C624 C 0.55482 0.47109 0.59922 0.0
C625 C 0.54801 0.48516 0.59593 0.0
C626 C 0.50118 0.48916 0.59394 0.0
C627 C 0.50092 0.53859 0.57559 0.0
C628 C 0.50779 0.52322 0.57771 0.0
C629 C 0.52783 0.47874 0.58552 0.0
C630 C 0.52074 0.4939 0.58217 0.0
H631 H 0.51782 0.58915 0.59103 0.0
H632 H 0.52984 0.56442 0.5922 0.0
H633 H 0.47977 0.49959 0.60172 0.0
H634 H 0.51087 0.42769 0.57643 0.0
H635 H 0.49895 0.45235 0.57035 0.0
C636 C 0.09116 0.54731 0.96641 0.0
C637 C 0.09974 0.53618 0.95162 0.0
C638 C 0.07023 0.54033 0.96347 0.0
C639 C 0.02491 0.50645 0.90988 0.0
H640 H 0.99516 0.51322 0.98717 0.0
C641 C 0.93707 0.47081 0.90887 0.0
C642 C 0.92881 0.48261 0.92191 0.0
C643 C 0.9579 0.47747 0.91241 0.0
C644 C 1.0033 0.51144 0.9652 0.0
H645 H 0.09289 0.50873 0.92262 0.0
H646 H 0.05619 0.49634 0.91789 0.0
H647 H 0.03121 0.52368 0.99439 0.0
H648 H 0.93607 0.51081 0.94876 0.0
H649 H 0.97261 0.52252 0.95488 0.0
H650 H 0.99695 0.49412 0.88077 0.0
C651 C 0.06577 0.51067 0.93134 0.0
C652 C 0.02398 0.51741 0.96933 0.0
C653 C 0.08678 0.51769 0.93426 0.0
C654 C 0.94195 0.50135 0.93844 0.0
C655 C 0.96284 0.50799 0.94213 0.0
C656 C 1.00422 0.50043 0.90579 0.0
C657 C 0.05726 0.52199 0.94573 0.0
C658 C 0.03507 0.51503 0.9417 0.0
C659 C 0.97105 0.49609 0.92918 0.0
C660 C 0.99317 0.50287 0.93338 0.0
H661 H 0.10066 0.56165 0.97989 0.0
H662 H 0.06432 0.5496 0.97443 0.0
H663 H 0.03303 0.50472 0.88783 0.0
H664 H 0.92742 0.45628 0.89603 0.0
H665 H 0.96364 0.4678 0.90255 0.0
C666 C 0.44525 0.93308 0.25438 0.0
C667 C 0.45218 0.91891 0.25516 0.0
C668 C 0.45928 0.95417 0.2537 0.0
C669 C 0.51345 0.99174 0.2744 0.0
H670 H 0.50406 0.02835 0.21605 0.0
C671 C 0.57477 0.07717 0.25568 0.0
C672 C 0.56769 0.09123 0.25665 0.0
C673 C 0.56086 0.05608 0.25444 0.0
C674 C 0.50684 0.01835 0.23273 0.0
H675 H 0.47932 0.91582 0.25514 0.0
H676 H 0.50355 0.95228 0.25351 0.0
H677 H 0.47908 0.99183 0.21637 0.0
H678 H 0.54042 0.09409 0.25688 0.0
H679 H 0.51639 0.05757 0.25502 0.0
H680 H 0.54117 0.01825 0.29082 0.0
C681 C 0.48735 0.94724 0.2541 0.0
C682 C 0.49248 0.99742 0.23296 0.0
C683 C 0.47339 0.92627 0.25481 0.0
C684 C 0.54646 0.08373 0.25609 0.0
C685 C 0.53262 0.06274 0.25477 0.0
C686 C 0.52781 0.01266 0.27415 0.0
C687 C 0.48052 0.96149 0.2538 0.0
C688 C 0.49561 0.98384 0.2538 0.0
C689 C 0.53961 0.04862 0.254 0.0
C690 C 0.52467 0.02625 0.25337 0.0
H691 H 0.42902 0.92792 0.2547 0.0
H692 H 0.45349 0.96473 0.25377 0.0
H693 H 0.51621 0.98179 0.29122 0.0
H694 H 0.59102 0.08244 0.25604 0.0
H695 H 0.56676 0.04561 0.25354 0.0
C696 C 0.43853 0.59572 0.70828 0.0
C697 C 0.45809 0.59881 0.70027 0.0
C698 C 0.43195 0.59362 0.74328 0.0
C699 C 0.45253 0.60609 0.83369 0.0
H700 H 0.39763 0.56527 0.86191 0.0
C701 C 0.43004 0.58078 0.97758 0.0
C702 C 0.41029 0.5756 0.98901 0.0
C703 C 0.43576 0.58596 0.94247 0.0
C704 C 0.41292 0.57699 0.85439 0.0
H705 H 0.48572 0.6013 0.72259 0.0
H706 H 0.47416 0.59736 0.78322 0.0
H707 H 0.40728 0.56875 0.79996 0.0
H708 H 0.38145 0.57292 0.97287 0.0
H709 H 0.39155 0.58216 0.91167 0.0
H710 H 0.45828 0.61414 0.88812 0.0
C711 C 0.46407 0.59702 0.76266 0.0
C712 C 0.41845 0.57894 0.81888 0.0
C713 C 0.47063 0.59911 0.72782 0.0
C714 C 0.39675 0.57672 0.96492 0.0
C715 C 0.40247 0.58186 0.92977 0.0
C716 C 0.44701 0.60414 0.86915 0.0
C717 C 0.44481 0.59459 0.77088 0.0
C718 C 0.43842 0.59329 0.80822 0.0
C719 C 0.42187 0.58608 0.91797 0.0
C720 C 0.42723 0.58938 0.87999 0.0
H721 H 0.42854 0.59549 0.68764 0.0
H722 H 0.41704 0.59183 0.74878 0.0
H723 H 0.46791 0.6176 0.82623 0.0
H724 H 0.44085 0.58008 0.99543 0.0
H725 H 0.45077 0.58897 0.93421 0.0
C726 C 0.84357 0.43492 0.30062 0.0
C727 C 0.84101 0.41696 0.31648 0.0
C728 C 0.84086 0.43562 0.26429 0.0
C729 C 0.82578 0.43068 0.18858 0.0
H730 H 0.8462 0.40298 0.12908 0.0
C731 C 0.81801 0.43016 0.03768 0.0
C732 C 0.83539 0.43397 0.01804 0.0
C733 C 0.81675 0.42568 0.07361 0.0
C734 C 0.84049 0.41087 0.14526 0.0
H735 H 0.83257 0.38535 0.3068 0.0
H736 H 0.82741 0.38643 0.24394 0.0
H737 H 0.84788 0.40082 0.1927 0.0
H738 H 0.86465 0.43505 0.02054 0.0
H739 H 0.86257 0.42746 0.08311 0.0
H740 H 0.81915 0.44142 0.14109 0.0
C741 C 0.83206 0.40017 0.25926 0.0
C742 C 0.84121 0.40943 0.18184 0.0
C743 C 0.83489 0.39951 0.29543 0.0
C744 C 0.851 0.43214 0.0348 0.0
C745 C 0.84978 0.42774 0.07077 0.0
C746 C 0.82511 0.43217 0.15197 0.0
C747 C 0.83541 0.41834 0.24304 0.0
C748 C 0.83397 0.4194 0.20403 0.0
C749 C 0.83287 0.42495 0.09084 0.0
C750 C 0.83257 0.42239 0.1298 0.0
H751 H 0.84836 0.44865 0.31604 0.0
H752 H 0.84375 0.44994 0.25272 0.0
H753 H 0.81987 0.43839 0.20476 0.0
H754 H 0.80563 0.43132 0.0256 0.0
H755 H 0.80329 0.42317 0.08803 0.0
C756 C 0.44213 0.81927 0.6346 0.0
C757 C 0.4425 0.83349 0.65899 0.0
C758 C 0.43813 0.82049 0.59903 0.0
C759 C 0.4434 0.85897 0.53465 0.0
H760 H 0.41051 0.81276 0.47374 0.0
C761 C 0.42115 0.86969 0.39573 0.0
C762 C 0.4204 0.85672 0.36851 0.0
C763 C 0.42452 0.86617 0.43038 0.0
C764 C 0.42001 0.82579 0.49031 0.0
H765 H 0.43754 0.85928 0.66543 0.0
H766 H 0.43041 0.86129 0.60355 0.0
H767 H 0.41323 0.80705 0.53639 0.0
H768 H 0.42297 0.83002 0.3563 0.0
H769 H 0.42914 0.82394 0.41729 0.0
H770 H 0.45035 0.87773 0.4889 0.0
C771 C 0.4336 0.84942 0.61183 0.0
C772 C 0.42147 0.82252 0.52621 0.0
C773 C 0.43752 0.84816 0.64738 0.0
C774 C 0.42354 0.84033 0.37669 0.0
C775 C 0.42689 0.83675 0.41163 0.0
C776 C 0.44203 0.86222 0.49888 0.0
C777 C 0.43448 0.83601 0.58709 0.0
C778 C 0.43295 0.83913 0.54885 0.0
C779 C 0.42729 0.8496 0.4389 0.0
C780 C 0.43008 0.84573 0.47632 0.0
H781 H 0.44585 0.80773 0.64265 0.0
H782 H 0.43892 0.80994 0.58064 0.0
H783 H 0.45281 0.87204 0.55118 0.0
H784 H 0.41877 0.88246 0.39044 0.0
H785 H 0.4244 0.87619 0.45067 0.0
C786 C 0.5897 0.41652 0.71231 0.0
C787 C 0.57017 0.41364 0.70494 0.0
C788 C 0.59635 0.4181 0.74721 0.0
C789 C 0.57583 0.40457 0.83788 0.0
H790 H 0.63045 0.44553 0.86669 0.0
C791 C 0.59736 0.42912 0.98236 0.0
C792 C 0.61721 0.4348 0.99386 0.0
C793 C 0.59184 0.42397 0.94716 0.0
C794 C 0.61524 0.43376 0.85902 0.0
H795 H 0.54263 0.41091 0.72841 0.0
H796 H 0.55425 0.41389 0.78867 0.0
H797 H 0.62104 0.44236 0.80469 0.0
H798 H 0.64643 0.4383 0.9777 0.0
H799 H 0.63668 0.42907 0.91646 0.0
H800 H 0.56989 0.39615 0.89218 0.0
C801 C 0.5643 0.41449 0.76773 0.0
C802 C 0.60985 0.43197 0.82345 0.0
C803 C 0.55771 0.41295 0.73307 0.0
C804 C 0.63104 0.43412 0.96974 0.0
C805 C 0.62552 0.42899 0.93452 0.0
C806 C 0.58121 0.40633 0.87338 0.0
C807 C 0.58355 0.41675 0.77532 0.0
C808 C 0.58996 0.41761 0.81257 0.0
C809 C 0.60603 0.42436 0.92261 0.0
C810 C 0.60087 0.42117 0.88449 0.0
H811 H 0.59963 0.41704 0.69123 0.0
H812 H 0.61126 0.41981 0.75221 0.0
H813 H 0.5605 0.39304 0.83027 0.0
H814 H 0.58634 0.4295 1.00019 0.0
H815 H 0.57675 0.42062 0.93888 0.0
C816 C 0.18043 0.60502 0.05298 0.0
C817 C 0.18315 0.58976 0.03689 0.0
C818 C 0.1831 0.60832 0.08935 0.0
C819 C 0.18308 0.58169 0.17146 0.0
H820 H 0.20445 0.6355 0.21281 0.0
C821 C 0.20563 0.62525 0.31609 0.0
C822 C 0.18836 0.61143 0.33565 0.0
C823 C 0.20699 0.62217 0.28012 0.0
C824 C 0.1987 0.62037 0.20176 0.0
H825 H 0.19182 0.56672 0.04617 0.0
H826 H 0.19695 0.5728 0.10909 0.0
H827 H 0.20381 0.63195 0.1491 0.0
H828 H 0.15941 0.58296 0.33293 0.0
H829 H 0.16165 0.57771 0.2703 0.0
H830 H 0.17825 0.57013 0.22408 0.0
C831 C 0.19218 0.58185 0.09395 0.0
C832 C 0.19806 0.61831 0.16513 0.0
C833 C 0.18938 0.57846 0.05774 0.0
C834 C 0.17297 0.59389 0.31875 0.0
C835 C 0.17429 0.59086 0.28273 0.0
C836 C 0.18378 0.58375 0.20807 0.0
C837 C 0.18868 0.59653 0.11041 0.0
C838 C 0.19011 0.59892 0.14945 0.0
C839 C 0.19108 0.60523 0.26274 0.0
C840 C 0.19145 0.6031 0.22375 0.0
H841 H 0.17555 0.61394 0.03773 0.0
H842 H 0.18009 0.61964 0.1011 0.0
H843 H 0.1766 0.56646 0.16044 0.0
H844 H 0.21784 0.63886 0.32828 0.0
H845 H 0.22037 0.63332 0.26578 0.0
C846 C 0.57837 0.19357 0.63608 0.0
C847 C 0.57848 0.17985 0.66103 0.0
C848 C 0.58249 0.19212 0.60062 0.0
C849 C 0.57844 0.15339 0.53776 0.0
H850 H 0.60975 0.19922 0.47512 0.0
C851 C 0.6004 0.14203 0.39876 0.0
C852 C 0.60031 0.15438 0.37117 0.0
C853 C 0.59724 0.14583 0.4334 0.0
C854 C 0.6007 0.18629 0.49218 0.0
H855 H 0.58443 0.15477 0.66857 0.0
H856 H 0.59178 0.15239 0.60687 0.0
H857 H 0.60709 0.20547 0.53758 0.0
H858 H 0.59652 0.18028 0.35835 0.0
H859 H 0.59071 0.18684 0.41932 0.0
H860 H 0.57188 0.1342 0.49269 0.0
C861 C 0.58811 0.16401 0.61464 0.0
C862 C 0.59927 0.18987 0.52798 0.0
C863 C 0.58407 0.1655 0.65007 0.0
C864 C 0.5966 0.17045 0.37902 0.0
C865 C 0.59346 0.17431 0.41394 0.0
C866 C 0.57979 0.14984 0.50211 0.0
C867 C 0.58674 0.17687 0.58934 0.0
C868 C 0.58834 0.17341 0.55124 0.0
C869 C 0.59385 0.16207 0.44155 0.0
C870 C 0.59116 0.1662 0.47892 0.0
H871 H 0.57419 0.20485 0.64362 0.0
H872 H 0.5813 0.20225 0.58181 0.0
H873 H 0.56945 0.14041 0.55477 0.0
H874 H 0.60325 0.12954 0.39374 0.0
H875 H 0.59798 0.13629 0.45395 0.0
loop_
_geom_bond_atom_site_label_1
_geom_bond_atom_site_label_2
_geom_bond_distance
_geom_bond_site_symmetry_2
_ccdc_geom_bond_type
Mg0 O7 2.141 . S
Mg0 O8 2.048 . S
Mg0 O9 2.048 . S
Mg0 O12 2.141 . S
C1 O2 1.313 . S
C1 O8 1.195 . S
O2 C1 1.313 . S
C3 O4 1.245 . S
C3 O12 1.289 . S
O4 C3 1.245 . S
C5 O6 1.245 . S
C5 O7 1.289 . S
O6 C5 1.245 . S
O7 Mg0 2.141 . S
O7 C5 1.289 . S
O8 Mg0 2.048 . S
O8 C1 1.195 . S
O9 Mg0 2.048 . S
O9 C10 1.195 1_554 S
C10 O9 1.195 1_556 S
C10 O11 1.312 1_556 S
O11 C10 1.312 1_554 S
O12 Mg0 2.141 . S
O12 C3 1.289 . S
Mg13 O20 2.141 . S
Mg13 O21 2.048 . S
Mg13 O22 2.048 . S
Mg13 O25 2.141 . S
C14 O15 1.313 . S
C14 O21 1.195 . S
O15 C14 1.313 . S
C16 O17 1.245 . S
C16 O25 1.289 . S
O17 C16 1.245 . S
C18 O19 1.245 . S
C18 O20 1.289 . S
O19 C18 1.245 . S
O20 Mg13 2.141 . S
O20 C18 1.289 . S
O21 Mg13 2.048 . S
O21 C14 1.195 . S
O22 Mg13 2.048 . S
O22 C23 1.195 . S
C23 O22 1.195 . S
C23 O24 1.313 . S
O24 C23 1.313 . S
O25 Mg13 2.141 . S
O25 C16 1.289 . S
Mg26 O33 2.141 . S
Mg26 O34 2.048 . S
Mg26 O35 2.048 . S
Mg26 O38 2.141 . S
C27 O28 1.313 . S
C27 O34 1.195 . S
O28 C27 1.313 . S
C29 O30 1.245 . S
C29 O38 1.289 . S
O30 C29 1.245 . S
C31 O32 1.245 . S
C31 O33 1.289 . S
O32 C31 1.245 . S
O33 Mg26 2.141 . S
O33 C31 1.289 . S
O34 Mg26 2.048 . S
O34 C27 1.195 . S
O35 Mg26 2.048 . S
O35 C36 1.195 . S
C36 O35 1.195 . S
C36 O37 1.313 . S
O37 C36 1.313 . S
O38 Mg26 2.141 . S
O38 C29 1.289 . S
Mg39 O46 2.141 . S
Mg39 O47 2.048 . S
Mg39 O48 2.048 . S
Mg39 O51 2.141 . S
C40 O41 1.313 . S
C40 O47 1.195 . S
O41 C40 1.313 . S
C42 O43 1.245 . S
C42 O51 1.289 . S
O43 C42 1.245 . S
C44 O45 1.245 . S
C44 O46 1.289 . S
O45 C44 1.245 . S
O46 Mg39 2.141 . S
O46 C44 1.289 . S
O47 Mg39 2.048 . S
O47 C40 1.195 . S
O48 Mg39 2.048 . S
O48 C49 1.195 1_554 S
C49 O48 1.195 1_556 S
C49 O50 1.312 1_556 S
O50 C49 1.312 1_554 S
O51 Mg39 2.141 . S
O51 C42 1.289 . S
Mg52 O59 2.141 . S
Mg52 O60 2.048 . S
Mg52 O61 2.048 . S
Mg52 O64 2.141 . S
C53 O54 1.313 . S
C53 O60 1.195 . S
O54 C53 1.313 . S
C55 O56 1.245 . S
C55 O64 1.289 . S
O56 C55 1.245 . S
C57 O58 1.245 . S
C57 O59 1.289 . S
O58 C57 1.245 . S
O59 Mg52 2.141 . S
O59 C57 1.289 . S
O60 Mg52 2.048 . S
O60 C53 1.195 . S
O61 Mg52 2.048 . S
O61 C62 1.195 . S
C62 O61 1.195 . S
C62 O63 1.313 . S
O63 C62 1.313 . S
O64 Mg52 2.141 . S
O64 C55 1.289 . S
Mg65 O72 2.141 . S
Mg65 O73 2.048 . S
Mg65 O74 2.048 . S
Mg65 O77 2.141 . S
C66 O67 1.313 . S
C66 O73 1.195 . S
O67 C66 1.313 . S
C68 O69 1.245 . S
C68 O77 1.289 . S
O69 C68 1.245 . S
C70 O71 1.245 . S
C70 O72 1.289 . S
O71 C70 1.245 . S
O72 Mg65 2.141 . S
O72 C70 1.289 . S
O73 Mg65 2.048 . S
O73 C66 1.195 . S
O74 Mg65 2.048 . S
O74 C75 1.195 . S
C75 O74 1.195 . S
C75 O76 1.313 . S
O76 C75 1.313 . S
O77 Mg65 2.141 . S
O77 C68 1.289 . S
Mg78 O85 2.141 . S
Mg78 O86 2.048 . S
Mg78 O87 2.048 . S
Mg78 O90 2.141 . S
C79 O80 1.313 . S
C79 O86 1.195 . S
O80 C79 1.313 . S
C81 O82 1.245 . S
C81 O90 1.289 . S
O82 C81 1.245 . S
C83 O84 1.245 . S
C83 O85 1.289 . S
O84 C83 1.245 . S
O85 Mg78 2.141 . S
O85 C83 1.289 . S
O86 Mg78 2.048 . S
O86 C79 1.195 . S
O87 Mg78 2.048 . S
O87 C88 1.195 . S
C88 O87 1.195 . S
C88 O89 1.313 . S
O89 C88 1.313 . S
O90 Mg78 2.141 . S
O90 C81 1.289 . S
Mg91 O98 2.141 . S
Mg91 O99 2.048 . S
Mg91 O100 2.048 . S
Mg91 O103 2.141 . S
C92 O93 1.313 . S
C92 O99 1.195 . S
O93 C92 1.313 . S
C94 O95 1.245 . S
C94 O103 1.289 . S
O95 C94 1.245 . S
C96 O97 1.245 . S
C96 O98 1.289 . S
O97 C96 1.245 . S
O98 Mg91 2.141 . S
O98 C96 1.289 . S
O99 Mg91 2.048 . S
O99 C92 1.195 . S
O100 Mg91 2.048 . S
O100 C101 1.195 1_556 S
C101 O100 1.195 1_554 S
C101 O102 1.312 1_554 S
O102 C101 1.312 1_556 S
O103 Mg91 2.141 . S
O103 C94 1.289 . S
Mg104 O111 2.141 . S
Mg104 O112 2.048 . S
Mg104 O113 2.048 . S
Mg104 O116 2.141 . S
C105 O106 1.313 . S
C105 O112 1.195 . S
O106 C105 1.313 . S
C107 O108 1.245 . S
C107 O116 1.289 . S
O108 C107 1.245 . S
C109 O110 1.245 . S
C109 O111 1.289 . S
O110 C109 1.245 . S
O111 Mg104 2.141 . S
O111 C109 1.289 . S
O112 Mg104 2.048 . S
O112 C105 1.195 . S
O113 Mg104 2.048 . S
O113 C114 1.195 . S
C114 O113 1.195 . S
C114 O115 1.313 . S
O115 C114 1.313 . S
O116 Mg104 2.141 . S
O116 C107 1.289 . S
Mg117 O124 2.141 . S
Mg117 O125 2.048 . S
Mg117 O126 2.048 . S
Mg117 O129 2.141 . S
C118 O119 1.313 . S
C118 O125 1.195 . S
O119 C118 1.313 . S
C120 O121 1.245 . S
C120 O129 1.289 . S
O121 C120 1.245 . S
C122 O123 1.245 . S
C122 O124 1.289 . S
O123 C122 1.245 . S
O124 Mg117 2.141 . S
O124 C122 1.289 . S
O125 Mg117 2.048 . S
O125 C118 1.195 . S
O126 Mg117 2.048 . S
O126 C127 1.195 . S
C127 O126 1.195 . S
C127 O128 1.313 . S
O128 C127 1.313 . S
O129 Mg117 2.141 . S
O129 C120 1.289 . S
Mg130 O137 2.141 . S
Mg130 O138 2.048 . S
Mg130 O139 2.048 . S
Mg130 O142 2.141 . S
C131 O132 1.313 . S
C131 O138 1.195 . S
O132 C131 1.313 . S
C133 O134 1.245 . S
C133 O142 1.289 . S
O134 C133 1.245 . S
C135 O136 1.245 . S
C135 O137 1.289 . S
O136 C135 1.245 . S
O137 Mg130 2.141 . S
O137 C135 1.289 . S
O138 Mg130 2.048 . S
O138 C131 1.195 . S
O139 Mg130 2.048 . S
O139 C140 1.195 1_556 S
C140 O139 1.195 1_554 S
C140 O141 1.312 1_554 S
O141 C140 1.312 1_556 S
O142 Mg130 2.141 . S
O142 C133 1.289 . S
Mg143 O150 2.141 . S
Mg143 O151 2.048 . S
Mg143 O152 2.048 . S
Mg143 O155 2.141 . S
C144 O145 1.313 . S
C144 O151 1.195 . S
O145 C144 1.313 . S
C146 O147 1.245 . S
C146 O155 1.289 . S
O147 C146 1.245 . S
C148 O149 1.245 . S
C148 O150 1.289 . S
O149 C148 1.245 . S
O150 Mg143 2.141 . S
O150 C148 1.289 . S
O151 Mg143 2.048 . S
O151 C144 1.195 . S
O152 Mg143 2.048 . S
O152 C153 1.195 . S
C153 O152 1.195 . S
C153 O154 1.313 . S
O154 C153 1.313 . S
O155 Mg143 2.141 . S
O155 C146 1.289 . S
C156 C157 1.349 . S
C156 C158 1.327 . S
C156 H181 0.950 . S
C157 C156 1.349 . S
C157 C173 1.349 . S
C158 C156 1.327 . S
C158 C177 1.429 . S
C158 H182 0.950 . S
C159 C176 1.574 . S
C159 C178 1.368 . S
C159 H183 0.949 . S
H160 C164 0.949 . S
C161 C162 1.349 . S
C161 C163 1.327 . S
C161 H184 0.950 . S
C162 C161 1.349 . S
C162 C174 1.349 . S
C163 C161 1.327 . S
C163 C179 1.429 . S
C163 H185 0.950 . S
C164 H160 0.949 . S
C164 C172 1.574 . S
C164 C180 1.368 . S
H165 C173 0.950 . S
H166 C171 0.950 . S
H167 C172 0.949 . S
H168 C174 0.950 . S
H169 C175 0.950 . S
H170 C176 0.949 . S
C171 H166 0.950 . S
C171 C173 1.327 . S
C171 C177 1.429 . S
C172 C164 1.574 . S
C172 H167 0.949 . S
C172 C178 1.368 . S
C173 C157 1.349 . S
C173 H165 0.950 . S
C173 C171 1.327 . S
C174 C162 1.349 . S
C174 H168 0.950 . S
C174 C175 1.327 . S
C175 H169 0.950 . S
C175 C174 1.327 . S
C175 C179 1.429 . S
C176 C159 1.574 . S
C176 H170 0.949 . S
C176 C180 1.368 . S
C177 C158 1.429 . S
C177 C171 1.429 . S
C177 C178 1.523 . S
C178 C159 1.368 . S
C178 C172 1.368 . S
C178 C177 1.523 . S
C179 C163 1.429 . S
C179 C175 1.429 . S
C179 C180 1.523 . S
C180 C164 1.368 . S
C180 C176 1.368 . S
C180 C179 1.523 . S
H181 C156 0.950 . S
H182 C158 0.950 . S
H183 C159 0.949 . S
H184 C161 0.950 . S
H185 C163 0.950 . S
C186 C187 1.349 . S
C186 C188 1.327 . S
C186 H211 0.950 . S
C187 C186 1.349 . S
C187 C203 1.349 . S
C188 C186 1.327 . S
C188 C207 1.429 . S
C188 H212 0.950 . S
C189 C206 1.574 . S
C189 C208 1.368 . S
C189 H213 0.949 . S
H190 C194 0.949 . S
C191 C192 1.349 . S
C191 C193 1.327 . S
C191 H214 0.950 . S
C192 C191 1.349 . S
C192 C204 1.349 . S
C193 C191 1.327 . S
C193 C209 1.429 . S
C193 H215 0.950 . S
C194 H190 0.949 . S
C194 C202 1.574 . S
C194 C210 1.368 . S
H195 C203 0.950 . S
H196 C201 0.950 . S
H197 C202 0.949 . S
H198 C204 0.950 . S
H199 C205 0.950 . S
H200 C206 0.949 . S
C201 H196 0.950 . S
C201 C203 1.327 . S
C201 C207 1.429 . S
C202 C194 1.574 . S
C202 H197 0.949 . S
C202 C208 1.368 . S
C203 C187 1.349 . S
C203 H195 0.950 . S
C203 C201 1.327 . S
C204 C192 1.349 . S
C204 H198 0.950 . S
C204 C205 1.327 . S
C205 H199 0.950 . S
C205 C204 1.327 . S
C205 C209 1.429 . S
C206 C189 1.574 . S
C206 H200 0.949 . S
C206 C210 1.368 . S
C207 C188 1.429 . S
C207 C201 1.429 . S
C207 C208 1.523 . S
C208 C189 1.368 . S
C208 C202 1.368 . S
C208 C207 1.523 . S
C209 C193 1.429 . S
C209 C205 1.429 . S
C209 C210 1.523 . S
C210 C194 1.368 . S
C210 C206 1.368 . S
C210 C209 1.523 . S
H211 C186 0.950 . S
H212 C188 0.950 . S
H213 C189 0.949 . S
H214 C191 0.950 . S
H215 C193 0.950 . S
C216 C217 1.349 . S
C216 C218 1.327 . S
C216 H241 0.950 . S
C217 C216 1.349 . S
C217 C233 1.349 . S
C218 C216 1.327 . S
C218 C237 1.429 . S
C218 H242 0.950 . S
C219 C236 1.574 1_556 S
C219 C238 1.368 . S
C219 H243 0.949 . S
H220 C224 0.949 . S
C221 C222 1.349 . S
C221 C223 1.327 . S
C221 H244 0.950 . S
C222 C221 1.349 . S
C222 C234 1.349 . S
C223 C221 1.327 . S
C223 C239 1.429 . S
C223 H245 0.950 . S
C224 H220 0.949 . S
C224 C232 1.574 1_554 S
C224 C240 1.368 . S
H225 C233 0.950 . S
H226 C231 0.950 . S
H227 C232 0.949 . S
H228 C234 0.950 . S
H229 C235 0.950 . S
H230 C236 0.949 . S
C231 H226 0.950 . S
C231 C233 1.327 . S
C231 C237 1.429 . S
C232 C224 1.574 1_556 S
C232 H227 0.949 . S
C232 C238 1.368 . S
C233 C217 1.349 . S
C233 H225 0.950 . S
C233 C231 1.327 . S
C234 C222 1.349 . S
C234 H228 0.950 . S
C234 C235 1.327 . S
C235 H229 0.950 . S
C235 C234 1.327 . S
C235 C239 1.429 . S
C236 C219 1.574 1_554 S
C236 H230 0.949 . S
C236 C240 1.368 . S
C237 C218 1.429 . S
C237 C231 1.429 . S
C237 C238 1.523 . S
C238 C219 1.368 . S
C238 C232 1.368 . S
C238 C237 1.523 . S
C239 C223 1.429 . S
C239 C235 1.429 . S
C239 C240 1.523 . S
C240 C224 1.368 . S
C240 C236 1.368 . S
C240 C239 1.523 . S
H241 C216 0.950 . S
H242 C218 0.950 . S
H243 C219 0.949 . S
H244 C221 0.950 . S
H245 C223 0.950 . S
C246 C247 1.349 . S
C246 C248 1.327 . S
C246 H271 0.950 . S
C247 C246 1.349 . S
C247 C263 1.349 . S
C248 C246 1.327 . S
C248 C267 1.429 . S
C248 H272 0.950 . S
C249 C266 1.574 . S
C249 C268 1.368 . S
C249 H273 0.949 . S
H250 C254 0.949 . S
C251 C252 1.349 . S
C251 C253 1.327 . S
C251 H274 0.950 . S
C252 C251 1.349 . S
C252 C264 1.349 . S
C253 C251 1.327 . S
C253 C269 1.429 . S
C253 H275 0.950 . S
C254 H250 0.949 . S
C254 C262 1.574 . S
C254 C270 1.368 . S
H255 C263 0.950 . S
H256 C261 0.950 . S
H257 C262 0.949 . S
H258 C264 0.950 . S
H259 C265 0.950 . S
H260 C266 0.949 . S
C261 H256 0.950 . S
C261 C263 1.327 . S
C261 C267 1.429 . S
C262 C254 1.574 . S
C262 H257 0.949 . S
C262 C268 1.368 . S
C263 C247 1.349 . S
C263 H255 0.950 . S
C263 C261 1.327 . S
C264 C252 1.349 . S
C264 H258 0.950 . S
C264 C265 1.327 . S
C265 H259 0.950 . S
C265 C264 1.327 . S
C265 C269 1.429 . S
C266 C249 1.574 . S
C266 H260 0.949 . S
C266 C270 1.368 . S
C267 C248 1.429 . S
C267 C261 1.429 . S
C267 C268 1.523 . S
C268 C249 1.368 . S
C268 C262 1.368 . S
C268 C267 1.523 . S
C269 C253 1.429 . S
C269 C265 1.429 . S
C269 C270 1.523 . S
C270 C254 1.368 . S
C270 C266 1.368 . S
C270 C269 1.523 . S
H271 C246 0.950 . S
H272 C248 0.950 . S
H273 C249 0.949 . S
H274 C251 0.950 . S
H275 C253 0.950 . S
C276 C277 1.349 . S
C276 C278 1.327 . S
C276 H301 0.950 . S
C277 C276 1.349 . S
C277 C293 1.349 . S
C278 C276 1.327 . S
C278 C297 1.429 . S
C278 H302 0.950 . S
C279 C296 1.574 . S
C279 C298 1.368 . S
C279 H303 0.949 . S
H280 C284 0.949 . S
C281 C282 1.349 . S
C281 C283 1.327 . S
C281 H304 0.950 . S
C282 C281 1.349 . S
C282 C294 1.349 . S
C283 C281 1.327 . S
C283 C299 1.429 . S
C283 H305 0.950 . S
C284 H280 0.949 . S
C284 C292 1.574 . S
C284 C300 1.368 . S
H285 C293 0.950 . S
H286 C291 0.950 . S
H287 C292 0.949 . S
H288 C294 0.950 . S
H289 C295 0.950 . S
H290 C296 0.949 . S
C291 H286 0.950 . S
C291 C293 1.327 . S
C291 C297 1.429 . S
C292 C284 1.574 . S
C292 H287 0.949 . S
C292 C298 1.368 . S
C293 C277 1.349 . S
C293 H285 0.950 . S
C293 C291 1.327 . S
C294 C282 1.349 . S
C294 H288 0.950 . S
C294 C295 1.327 . S
C295 H289 0.950 . S
C295 C294 1.327 . S
C295 C299 1.429 . S
C296 C279 1.574 . S
C296 H290 0.949 . S
C296 C300 1.368 . S
C297 C278 1.429 . S
C297 C291 1.429 . S
C297 C298 1.523 . S
C298 C279 1.368 . S
C298 C292 1.368 . S
C298 C297 1.523 . S
C299 C283 1.429 . S
C299 C295 1.429 . S
C299 C300 1.523 . S
C300 C284 1.368 . S
C300 C296 1.368 . S
C300 C299 1.523 . S
H301 C276 0.950 . S
H302 C278 0.950 . S
H303 C279 0.949 . S
H304 C281 0.950 . S
H305 C283 0.950 . S
C306 C307 1.349 . S
C306 C308 1.327 . S
C306 H331 0.950 . S
C307 C306 1.349 . S
C307 C323 1.349 . S
C308 C306 1.327 . S
C308 C327 1.429 . S
C308 H332 0.950 . S
C309 C326 1.574 1_554 S
C309 C328 1.368 . S
C309 H333 0.949 . S
H310 C314 0.949 . S
C311 C312 1.349 . S
C311 C313 1.327 . S
C311 H334 0.950 . S
C312 C311 1.349 . S
C312 C324 1.349 . S
C313 C311 1.327 . S
C313 C329 1.429 . S
C313 H335 0.950 . S
C314 H310 0.949 . S
C314 C322 1.574 1_556 S
C314 C330 1.368 . S
H315 C323 0.950 . S
H316 C321 0.950 . S
H317 C322 0.949 . S
H318 C324 0.950 . S
H319 C325 0.950 . S
H320 C326 0.949 . S
C321 H316 0.950 . S
C321 C323 1.327 . S
C321 C327 1.429 . S
C322 C314 1.574 1_554 S
C322 H317 0.949 . S
C322 C328 1.368 . S
C323 C307 1.349 . S
C323 H315 0.950 . S
C323 C321 1.327 . S
C324 C312 1.349 . S
C324 H318 0.950 . S
C324 C325 1.327 . S
C325 H319 0.950 . S
C325 C324 1.327 . S
C325 C329 1.429 . S
C326 C309 1.574 1_556 S
C326 H320 0.949 . S
C326 C330 1.368 . S
C327 C308 1.429 . S
C327 C321 1.429 . S
C327 C328 1.523 . S
C328 C309 1.368 . S
C328 C322 1.368 . S
C328 C327 1.523 . S
C329 C313 1.429 . S
C329 C325 1.429 . S
C329 C330 1.523 . S
C330 C314 1.368 . S
C330 C326 1.368 . S
C330 C329 1.523 . S
H331 C306 0.950 . S
H332 C308 0.950 . S
H333 C309 0.949 . S
H334 C311 0.950 . S
H335 C313 0.950 . S
C336 C337 1.349 . S
C336 C338 1.327 . S
C336 H361 0.950 . S
C337 C336 1.349 . S
C337 C353 1.349 . S
C338 C336 1.327 . S
C338 C357 1.429 . S
C338 H362 0.950 . S
C339 C356 1.574 . S
C339 C358 1.368 1_556 S
C339 H363 0.949 . S
H340 C344 0.949 . S
C341 C342 1.349 . S
C341 C343 1.327 . S
C341 H364 0.950 . S
C342 C341 1.349 . S
C342 C354 1.349 . S
C343 C341 1.327 . S
C343 C359 1.429 . S
C343 H365 0.950 . S
C344 H340 0.949 . S
C344 C352 1.574 . S
C344 C360 1.368 1_554 S
H345 C353 0.950 . S
H346 C351 0.930 1_556 S
H347 C352 0.949 . S
H348 C354 0.950 . S
H349 C355 0.930 1_554 S
H350 C356 0.949 . S
C351 H346 0.930 1_554 S
C351 C353 1.327 . S
C351 C357 1.429 . S
C352 C344 1.574 . S
C352 H347 0.949 . S
C352 C358 1.368 . S
C353 C337 1.349 . S
C353 H345 0.950 . S
C353 C351 1.327 . S
C354 C342 1.349 . S
C354 H348 0.950 . S
C354 C355 1.327 . S
C355 H349 0.930 1_556 S
C355 C354 1.327 . S
C355 C359 1.429 . S
C356 C339 1.574 . S
C356 H350 0.949 . S
C356 C360 1.368 . S
C357 C338 1.429 . S
C357 C351 1.429 . S
C357 C358 1.523 . S
C358 C339 1.368 1_554 S
C358 C352 1.368 . S
C358 C357 1.523 . S
C359 C343 1.429 . S
C359 C355 1.429 . S
C359 C360 1.523 . S
C360 C344 1.368 1_556 S
C360 C356 1.368 . S
C360 C359 1.523 . S
H361 C336 0.950 . S
H362 C338 0.950 . S
H363 C339 0.949 . S
H364 C341 0.950 . S
H365 C343 0.950 . S
C366 C367 1.349 . S
C366 C368 1.327 . S
C366 H391 0.950 . S
C367 C366 1.349 . S
C367 C383 1.349 . S
C368 C366 1.327 . S
C368 C387 1.429 . S
C368 H392 0.950 . S
C369 C386 1.574 . S
C369 C388 1.368 . S
C369 H393 0.949 . S
H370 C374 0.949 . S
C371 C372 1.349 . S
C371 C373 1.327 . S
C371 H394 0.950 . S
C372 C371 1.349 . S
C372 C384 1.349 . S
C373 C371 1.327 . S
C373 C389 1.429 . S
C373 H395 0.950 . S
C374 H370 0.949 . S
C374 C382 1.574 . S
C374 C390 1.368 . S
H375 C383 0.950 . S
H376 C381 0.950 . S
H377 C382 0.949 . S
H378 C384 0.950 . S
H379 C385 0.950 . S
H380 C386 0.949 . S
C381 H376 0.950 . S
C381 C383 1.327 . S
C381 C387 1.429 . S
C382 C374 1.574 . S
C382 H377 0.949 . S
C382 C388 1.368 . S
C383 C367 1.349 . S
C383 H375 0.950 . S
C383 C381 1.327 . S
C384 C372 1.349 . S
C384 H378 0.950 . S
C384 C385 1.327 . S
C385 H379 0.950 . S
C385 C384 1.327 . S
C385 C389 1.429 . S
C386 C369 1.574 . S
C386 H380 0.949 . S
C386 C390 1.368 . S
C387 C368 1.429 . S
C387 C381 1.429 . S
C387 C388 1.523 . S
C388 C369 1.368 . S
C388 C382 1.368 . S
C388 C387 1.523 . S
C389 C373 1.429 . S
C389 C385 1.429 . S
C389 C390 1.523 . S
C390 C374 1.368 . S
C390 C386 1.368 . S
C390 C389 1.523 . S
H391 C366 0.950 . S
H392 C368 0.950 . S
H393 C369 0.949 . S
H394 C371 0.950 . S
H395 C373 0.950 . S
C396 C397 1.349 . S
C396 C398 1.327 . S
C396 H421 0.950 . S
C397 C396 1.349 . S
C397 C413 1.349 . S
C398 C396 1.327 . S
C398 C417 1.429 . S
C398 H422 0.950 . S
C399 C416 1.574 . S
C399 C418 1.368 . S
C399 H423 0.949 . S
H400 C404 0.949 . S
C401 C402 1.349 . S
C401 C403 1.327 . S
C401 H424 0.950 . S
C402 C401 1.349 . S
C402 C414 1.349 . S
C403 C401 1.327 . S
C403 C419 1.429 . S
C403 H425 0.950 . S
C404 H400 0.949 . S
C404 C412 1.574 . S
C404 C420 1.368 . S
H405 C413 0.950 . S
H406 C411 0.950 . S
H407 C412 0.949 . S
H408 C414 0.950 . S
H409 C415 0.950 . S
H410 C416 0.949 . S
C411 H406 0.950 . S
C411 C413 1.327 . S
C411 C417 1.429 . S
C412 C404 1.574 . S
C412 H407 0.949 . S
C412 C418 1.368 . S
C413 C397 1.349 . S
C413 H405 0.950 . S
C413 C411 1.327 . S
C414 C402 1.349 . S
C414 H408 0.950 . S
C414 C415 1.327 . S
C415 H409 0.950 . S
C415 C414 1.327 . S
C415 C419 1.429 . S
C416 C399 1.574 . S
C416 H410 0.949 . S
C416 C420 1.368 . S
C417 C398 1.429 . S
C417 C411 1.429 . S
C417 C418 1.523 . S
C418 C399 1.368 . S
C418 C412 1.368 . S
C418 C417 1.523 . S
C419 C403 1.429 . S
C419 C415 1.429 . S
C419 C420 1.523 . S
C420 C404 1.368 . S
C420 C416 1.368 . S
C420 C419 1.523 . S
H421 C396 0.950 . S
H422 C398 0.950 . S
H423 C399 0.949 . S
H424 C401 0.950 . S
H425 C403 0.950 . S
C426 C427 1.349 . S
C426 C428 1.327 . S
C426 H451 0.950 . S
C427 C426 1.349 . S
C427 C443 1.349 . S
C428 C426 1.327 . S
C428 C447 1.429 . S
C428 H452 0.950 . S
C429 C446 1.574 . S
C429 C448 1.368 1_556 S
C429 H453 0.949 . S
H430 C434 0.949 . S
C431 C432 1.349 . S
C431 C433 1.327 . S
C431 H454 0.950 . S
C432 C431 1.349 . S
C432 C444 1.349 . S
C433 C431 1.327 . S
C433 C449 1.429 . S
C433 H455 0.950 . S
C434 H430 0.949 . S
C434 C442 1.574 . S
C434 C450 1.368 1_554 S
H435 C443 0.950 . S
H436 C441 0.931 1_556 S
H437 C442 0.949 . S
H438 C444 0.950 . S
H439 C445 0.930 1_554 S
H440 C446 0.949 . S
C441 H436 0.931 1_554 S
C441 C443 1.327 . S
C441 C447 1.429 . S
C442 C434 1.574 . S
C442 H437 0.949 . S
C442 C448 1.368 . S
C443 C427 1.349 . S
C443 H435 0.950 . S
C443 C441 1.327 . S
C444 C432 1.349 . S
C444 H438 0.950 . S
C444 C445 1.327 . S
C445 H439 0.930 1_556 S
C445 C444 1.327 . S
C445 C449 1.429 . S
C446 C429 1.574 . S
C446 H440 0.949 . S
C446 C450 1.368 . S
C447 C428 1.429 . S
C447 C441 1.429 . S
C447 C448 1.523 . S
C448 C429 1.368 1_554 S
C448 C442 1.368 . S
C448 C447 1.523 . S
C449 C433 1.429 . S
C449 C445 1.429 . S
C449 C450 1.523 . S
C450 C434 1.368 1_556 S
C450 C446 1.368 . S
C450 C449 1.523 . S
H451 C426 0.950 . S
H452 C428 0.950 . S
H453 C429 0.949 . S
H454 C431 0.950 . S
H455 C433 0.950 . S
C456 C457 1.349 . S
C456 C458 1.327 . S
C456 H481 0.950 . S
C457 C456 1.349 . S
C457 C473 1.349 . S
C458 C456 1.327 . S
C458 C477 1.429 . S
C458 H482 0.950 . S
C459 C476 1.574 . S
C459 C478 1.368 . S
C459 H483 0.949 . S
H460 C464 0.949 . S
C461 C462 1.349 . S
C461 C463 1.327 . S
C461 H484 0.950 . S
C462 C461 1.349 . S
C462 C474 1.349 . S
C463 C461 1.327 . S
C463 C479 1.429 . S
C463 H485 0.950 . S
C464 H460 0.949 . S
C464 C472 1.574 . S
C464 C480 1.368 . S
H465 C473 0.950 . S
H466 C471 0.950 . S
H467 C472 0.949 . S
H468 C474 0.950 . S
H469 C475 0.950 . S
H470 C476 0.949 . S
C471 H466 0.950 . S
C471 C473 1.327 . S
C471 C477 1.429 . S
C472 C464 1.574 . S
C472 H467 0.949 . S
C472 C478 1.368 . S
C473 C457 1.349 . S
C473 H465 0.950 . S
C473 C471 1.327 . S
C474 C462 1.349 . S
C474 H468 0.950 . S
C474 C475 1.327 . S
C475 H469 0.950 . S
C475 C474 1.327 . S
C475 C479 1.429 . S
C476 C459 1.574 . S
C476 H470 0.949 . S
C476 C480 1.368 . S
C477 C458 1.429 . S
C477 C471 1.429 . S
C477 C478 1.523 . S
C478 C459 1.368 . S
C478 C472 1.368 . S
C478 C477 1.523 . S
C479 C463 1.429 . S
C479 C475 1.429 . S
C479 C480 1.523 . S
C480 C464 1.368 . S
C480 C476 1.368 . S
C480 C479 1.523 . S
H481 C456 0.950 . S
H482 C458 0.950 . S
H483 C459 0.949 . S
H484 C461 0.950 . S
H485 C463 0.950 . S
C486 C487 1.349 . S
C486 C488 1.327 . S
C486 H511 0.950 . S
C487 C486 1.349 . S
C487 C503 1.349 . S
C488 C486 1.327 . S
C488 C507 1.429 . S
C488 H512 0.950 . S
C489 C506 1.574 . S
C489 C508 1.368 . S
C489 H513 0.949 . S
H490 C494 0.949 . S
C491 C492 1.349 . S
C491 C493 1.327 . S
C491 H514 0.950 . S
C492 C491 1.349 . S
C492 C504 1.349 . S
C493 C491 1.327 . S
C493 C509 1.429 . S
C493 H515 0.950 . S
C494 H490 0.949 . S
C494 C502 1.574 . S
C494 C510 1.368 . S
H495 C503 0.950 . S
H496 C501 0.950 . S
H497 C502 0.949 . S
H498 C504 0.950 . S
H499 C505 0.950 . S
H500 C506 0.949 . S
C501 H496 0.950 . S
C501 C503 1.327 . S
C501 C507 1.429 . S
C502 C494 1.574 . S
C502 H497 0.949 . S
C502 C508 1.368 . S
C503 C487 1.349 . S
C503 H495 0.950 . S
C503 C501 1.327 . S
C504 C492 1.349 . S
C504 H498 0.950 . S
C504 C505 1.327 . S
C505 H499 0.950 . S
C505 C504 1.327 . S
C505 C509 1.429 . S
C506 C489 1.574 . S
C506 H500 0.949 . S
C506 C510 1.368 . S
C507 C488 1.429 . S
C507 C501 1.429 . S
C507 C508 1.523 . S
C508 C489 1.368 . S
C508 C502 1.368 . S
C508 C507 1.523 . S
C509 C493 1.429 . S
C509 C505 1.429 . S
C509 C510 1.523 . S
C510 C494 1.368 . S
C510 C506 1.368 . S
C510 C509 1.523 . S
H511 C486 0.950 . S
H512 C488 0.950 . S
H513 C489 0.949 . S
H514 C491 0.950 . S
H515 C493 0.950 . S
C516 C517 1.349 . S
C516 C518 1.327 . S
C516 H541 0.950 . S
C517 C516 1.349 . S
C517 C533 1.349 . S
C518 C516 1.327 . S
C518 C537 1.429 . S
C518 H542 0.950 . S
C519 C536 1.574 . S
C519 C538 1.368 . S
C519 H543 0.949 . S
H520 C524 0.949 . S
C521 C522 1.349 . S
C521 C523 1.327 . S
C521 H544 0.950 . S
C522 C521 1.349 . S
C522 C534 1.349 . S
C523 C521 1.327 . S
C523 C539 1.429 . S
C523 H545 0.950 . S
C524 H520 0.949 . S
C524 C532 1.574 . S
C524 C540 1.368 . S
H525 C533 0.950 . S
H526 C531 0.950 . S
H527 C532 0.949 . S
H528 C534 0.950 . S
H529 C535 0.950 . S
H530 C536 0.949 . S
C531 H526 0.950 . S
C531 C533 1.327 . S
C531 C537 1.429 . S
C532 C524 1.574 . S
C532 H527 0.949 . S
C532 C538 1.368 . S
C533 C517 1.349 . S
C533 H525 0.950 . S
C533 C531 1.327 . S
C534 C522 1.349 . S
C534 H528 0.950 . S
C534 C535 1.327 . S
C535 H529 0.950 . S
C535 C534 1.327 . S
C535 C539 1.429 . S
C536 C519 1.574 . S
C536 H530 0.949 . S
C536 C540 1.368 . S
C537 C518 1.429 . S
C537 C531 1.429 . S
C537 C538 1.523 . S
C538 C519 1.368 . S
C538 C532 1.368 . S
C538 C537 1.523 . S
C539 C523 1.429 . S
C539 C535 1.429 . S
C539 C540 1.523 . S
C540 C524 1.368 . S
C540 C536 1.368 . S
C540 C539 1.523 . S
H541 C516 0.950 . S
H542 C518 0.950 . S
H543 C519 0.949 . S
H544 C521 0.950 . S
H545 C523 0.950 . S
C546 C547 1.349 . S
C546 C548 1.327 . S
C546 H571 0.950 . S
C547 C546 1.349 . S
C547 C563 1.349 . S
C548 C546 1.327 . S
C548 C567 1.429 . S
C548 H572 0.950 . S
C549 C566 1.574 1_655 S
C549 C568 1.368 . S
C549 H573 0.949 . S
H550 C554 0.949 . S
C551 C552 1.349 . S
C551 C553 1.327 . S
C551 H574 0.950 . S
C552 C551 1.349 . S
C552 C564 1.349 . S
C553 C551 1.327 . S
C553 C569 1.429 . S
C553 H575 0.950 . S
C554 H550 0.949 . S
C554 C562 1.574 1_455 S
C554 C570 1.368 . S
H555 C563 0.950 . S
H556 C561 0.950 . S
H557 C562 0.949 . S
H558 C564 0.950 . S
H559 C565 0.950 . S
H560 C566 0.949 . S
C561 H556 0.950 . S
C561 C563 1.327 . S
C561 C567 1.429 . S
C562 C554 1.574 1_655 S
C562 H557 0.949 . S
C562 C568 1.368 . S
C563 C547 1.349 . S
C563 H555 0.950 . S
C563 C561 1.327 . S
C564 C552 1.349 . S
C564 H558 0.950 . S
C564 C565 1.327 . S
C565 H559 0.950 . S
C565 C564 1.327 . S
C565 C569 1.429 . S
C566 C549 1.574 1_455 S
C566 H560 0.949 . S
C566 C570 1.368 . S
C567 C548 1.429 . S
C567 C561 1.429 . S
C567 C568 1.523 . S
C568 C549 1.368 . S
C568 C562 1.368 . S
C568 C567 1.523 . S
C569 C553 1.429 . S
C569 C565 1.429 . S
C569 C570 1.523 . S
C570 C554 1.368 . S
C570 C566 1.368 . S
C570 C569 1.523 . S
H571 C546 0.950 . S
H572 C548 0.950 . S
H573 C549 0.949 . S
H574 C551 0.950 . S
H575 C553 0.950 . S
C576 C577 1.349 . S
C576 C578 1.327 . S
C576 H601 0.950 . S
C577 C576 1.349 . S
C577 C593 1.349 . S
C578 C576 1.327 . S
C578 C597 1.429 . S
C578 H602 0.950 . S
C579 C596 1.574 1_545 S
C579 C598 1.368 . S
C579 H603 0.949 . S
H580 C584 0.949 . S
C581 C582 1.349 . S
C581 C583 1.327 . S
C581 H604 0.950 . S
C582 C581 1.349 . S
C582 C594 1.349 . S
C583 C581 1.327 . S
C583 C599 1.429 . S
C583 H605 0.950 . S
C584 H580 0.949 . S
C584 C592 1.574 1_565 S
C584 C600 1.368 . S
H585 C593 0.950 . S
H586 C591 0.950 . S
H587 C592 0.949 . S
H588 C594 0.950 . S
H589 C595 0.950 . S
H590 C596 0.949 . S
C591 H586 0.950 . S
C591 C593 1.327 . S
C591 C597 1.429 . S
C592 C584 1.574 1_545 S
C592 H587 0.949 . S
C592 C598 1.368 . S
C593 C577 1.349 . S
C593 H585 0.950 . S
C593 C591 1.327 . S
C594 C582 1.349 . S
C594 H588 0.950 . S
C594 C595 1.327 . S
C595 H589 0.950 . S
C595 C594 1.327 . S
C595 C599 1.429 . S
C596 C579 1.574 1_565 S
C596 H590 0.949 . S
C596 C600 1.368 . S
C597 C578 1.429 . S
C597 C591 1.429 . S
C597 C598 1.523 . S
C598 C579 1.368 . S
C598 C592 1.368 . S
C598 C597 1.523 . S
C599 C583 1.429 . S
C599 C595 1.429 . S
C599 C600 1.523 . S
C600 C584 1.368 . S
C600 C596 1.368 . S
C600 C599 1.523 . S
H601 C576 0.950 . S
H602 C578 0.950 . S
H603 C579 0.949 . S
H604 C581 0.950 . S
H605 C583 0.950 . S
C606 C607 1.349 . S
C606 C608 1.327 . S
C606 H631 0.950 . S
C607 C606 1.349 . S
C607 C623 1.349 . S
C608 C606 1.327 . S
C608 C627 1.429 . S
C608 H632 0.950 . S
C609 C626 1.574 . S
C609 C628 1.368 . S
C609 H633 0.949 . S
H610 C614 0.949 . S
C611 C612 1.349 . S
C611 C613 1.327 . S
C611 H634 0.950 . S
C612 C611 1.349 . S
C612 C624 1.349 . S
C613 C611 1.327 . S
C613 C629 1.429 . S
C613 H635 0.950 . S
C614 H610 0.949 . S
C614 C622 1.574 . S
C614 C630 1.368 . S
H615 C623 0.950 . S
H616 C621 0.950 . S
H617 C622 0.949 . S
H618 C624 0.950 . S
H619 C625 0.950 . S
H620 C626 0.949 . S
C621 H616 0.950 . S
C621 C623 1.327 . S
C621 C627 1.429 . S
C622 C614 1.574 . S
C622 H617 0.949 . S
C622 C628 1.368 . S
C623 C607 1.349 . S
C623 H615 0.950 . S
C623 C621 1.327 . S
C624 C612 1.349 . S
C624 H618 0.950 . S
C624 C625 1.327 . S
C625 H619 0.950 . S
C625 C624 1.327 . S
C625 C629 1.429 . S
C626 C609 1.574 . S
C626 H620 0.949 . S
C626 C630 1.368 . S
C627 C608 1.429 . S
C627 C621 1.429 . S
C627 C628 1.523 . S
C628 C609 1.368 . S
C628 C622 1.368 . S
C628 C627 1.523 . S
C629 C613 1.429 . S
C629 C625 1.429 . S
C629 C630 1.523 . S
C630 C614 1.368 . S
C630 C626 1.368 . S
C630 C629 1.523 . S
H631 C606 0.950 . S
H632 C608 0.950 . S
H633 C609 0.949 . S
H634 C611 0.950 . S
H635 C613 0.950 . S
C636 C637 1.349 . S
C636 C638 1.327 . S
C636 H661 0.950 . S
C637 C636 1.349 . S
C637 C653 1.349 . S
C638 C636 1.327 . S
C638 C657 1.429 . S
C638 H662 0.950 . S
C639 C656 1.574 1_455 S
C639 C658 1.368 . S
C639 H663 0.949 . S
H640 C644 0.949 . S
C641 C642 1.349 . S
C641 C643 1.327 . S
C641 H664 0.950 . S
C642 C641 1.349 . S
C642 C654 1.349 . S
C643 C641 1.327 . S
C643 C659 1.429 . S
C643 H665 0.950 . S
C644 H640 0.949 . S
C644 C652 1.574 1_655 S
C644 C660 1.368 . S
H645 C653 0.950 . S
H646 C651 0.950 . S
H647 C652 0.949 . S
H648 C654 0.950 . S
H649 C655 0.950 . S
H650 C656 0.949 . S
C651 H646 0.950 . S
C651 C653 1.327 . S
C651 C657 1.429 . S
C652 C644 1.574 1_455 S
C652 H647 0.949 . S
C652 C658 1.368 . S
C653 C637 1.349 . S
C653 H645 0.950 . S
C653 C651 1.327 . S
C654 C642 1.349 . S
C654 H648 0.950 . S
C654 C655 1.327 . S
C655 H649 0.950 . S
C655 C654 1.327 . S
C655 C659 1.429 . S
C656 C639 1.574 1_655 S
C656 H650 0.949 . S
C656 C660 1.368 . S
C657 C638 1.429 . S
C657 C651 1.429 . S
C657 C658 1.523 . S
C658 C639 1.368 . S
C658 C652 1.368 . S
C658 C657 1.523 . S
C659 C643 1.429 . S
C659 C655 1.429 . S
C659 C660 1.523 . S
C660 C644 1.368 . S
C660 C656 1.368 . S
C660 C659 1.523 . S
H661 C636 0.950 . S
H662 C638 0.950 . S
H663 C639 0.949 . S
H664 C641 0.950 . S
H665 C643 0.950 . S
C666 C667 1.349 . S
C666 C668 1.327 . S
C666 H691 0.950 . S
C667 C666 1.349 . S
C667 C683 1.349 . S
C668 C666 1.327 . S
C668 C687 1.429 . S
C668 H692 0.950 . S
C669 C686 1.574 1_565 S
C669 C688 1.368 . S
C669 H693 0.949 . S
H670 C674 0.949 . S
C671 C672 1.349 . S
C671 C673 1.327 . S
C671 H694 0.950 . S
C672 C671 1.349 . S
C672 C684 1.349 . S
C673 C671 1.327 . S
C673 C689 1.429 . S
C673 H695 0.950 . S
C674 H670 0.949 . S
C674 C682 1.574 1_545 S
C674 C690 1.368 . S
H675 C683 0.950 . S
H676 C681 0.950 . S
H677 C682 0.949 . S
H678 C684 0.950 . S
H679 C685 0.950 . S
H680 C686 0.949 . S
C681 H676 0.950 . S
C681 C683 1.327 . S
C681 C687 1.429 . S
C682 C674 1.574 1_565 S
C682 H677 0.949 . S
C682 C688 1.368 . S
C683 C667 1.349 . S
C683 H675 0.950 . S
C683 C681 1.327 . S
C684 C672 1.349 . S
C684 H678 0.950 . S
C684 C685 1.327 . S
C685 H679 0.950 . S
C685 C684 1.327 . S
C685 C689 1.429 . S
C686 C669 1.574 1_545 S
C686 H680 0.949 . S
C686 C690 1.368 . S
C687 C668 1.429 . S
C687 C681 1.429 . S
C687 C688 1.523 . S
C688 C669 1.368 . S
C688 C682 1.368 . S
C688 C687 1.523 . S
C689 C673 1.429 . S
C689 C685 1.429 . S
C689 C690 1.523 . S
C690 C674 1.368 . S
C690 C686 1.368 . S
C690 C689 1.523 . S
H691 C666 0.950 . S
H692 C668 0.950 . S
H693 C669 0.949 . S
H694 C671 0.950 . S
H695 C673 0.950 . S
C696 C697 1.349 . S
C696 C698 1.327 . S
C696 H721 0.950 . S
C697 C696 1.349 . S
C697 C713 1.349 . S
C698 C696 1.327 . S
C698 C717 1.429 . S
C698 H722 0.950 . S
C699 C716 1.574 . S
C699 C718 1.368 . S
C699 H723 0.949 . S
H700 C704 0.949 . S
C701 C702 1.349 . S
C701 C703 1.327 . S
C701 H724 0.950 . S
C702 C701 1.349 . S
C702 C714 1.349 . S
C703 C701 1.327 . S
C703 C719 1.429 . S
C703 H725 0.950 . S
C704 H700 0.949 . S
C704 C712 1.574 . S
C704 C720 1.368 . S
H705 C713 0.950 . S
H706 C711 0.950 . S
H707 C712 0.949 . S
H708 C714 0.950 . S
H709 C715 0.950 . S
H710 C716 0.949 . S
C711 H706 0.950 . S
C711 C713 1.327 . S
C711 C717 1.429 . S
C712 C704 1.574 . S
C712 H707 0.949 . S
C712 C718 1.368 . S
C713 C697 1.349 . S
C713 H705 0.950 . S
C713 C711 1.327 . S
C714 C702 1.349 . S
C714 H708 0.950 . S
C714 C715 1.327 . S
C715 H709 0.950 . S
C715 C714 1.327 . S
C715 C719 1.429 . S
C716 C699 1.574 . S
C716 H710 0.949 . S
C716 C720 1.368 . S
C717 C698 1.429 . S
C717 C711 1.429 . S
C717 C718 1.523 . S
C718 C699 1.368 . S
C718 C712 1.368 . S
C718 C717 1.523 . S
C719 C703 1.429 . S
C719 C715 1.429 . S
C719 C720 1.523 . S
C720 C704 1.368 . S
C720 C716 1.368 . S
C720 C719 1.523 . S
H721 C696 0.950 . S
H722 C698 0.950 . S
H723 C699 0.949 . S
H724 C701 0.950 . S
H725 C703 0.950 . S
C726 C727 1.349 . S
C726 C728 1.327 . S
C726 H751 0.950 . S
C727 C726 1.349 . S
C727 C743 1.349 . S
C728 C726 1.327 . S
C728 C747 1.429 . S
C728 H752 0.950 . S
C729 C746 1.574 . S
C729 C748 1.368 . S
C729 H753 0.949 . S
H730 C734 0.949 . S
C731 C732 1.349 . S
C731 C733 1.327 . S
C731 H754 0.950 . S
C732 C731 1.349 . S
C732 C744 1.349 . S
C733 C731 1.327 . S
C733 C749 1.429 . S
C733 H755 0.950 . S
C734 H730 0.949 . S
C734 C742 1.574 . S
C734 C750 1.368 . S
H735 C743 0.950 . S
H736 C741 0.950 . S
H737 C742 0.949 . S
H738 C744 0.950 . S
H739 C745 0.950 . S
H740 C746 0.949 . S
C741 H736 0.950 . S
C741 C743 1.327 . S
C741 C747 1.429 . S
C742 C734 1.574 . S
C742 H737 0.949 . S
C742 C748 1.368 . S
C743 C727 1.349 . S
C743 H735 0.950 . S
C743 C741 1.327 . S
C744 C732 1.349 . S
C744 H738 0.950 . S
C744 C745 1.327 . S
C745 H739 0.950 . S
C745 C744 1.327 . S
C745 C749 1.429 . S
C746 C729 1.574 . S
C746 H740 0.949 . S
C746 C750 1.368 . S
C747 C728 1.429 . S
C747 C741 1.429 . S
C747 C748 1.523 . S
C748 C729 1.368 . S
C748 C742 1.368 . S
C748 C747 1.523 . S
C749 C733 1.429 . S
C749 C745 1.429 . S
C749 C750 1.523 . S
C750 C734 1.368 . S
C750 C746 1.368 . S
C750 C749 1.523 . S
H751 C726 0.950 . S
H752 C728 0.950 . S
H753 C729 0.949 . S
H754 C731 0.950 . S
H755 C733 0.950 . S
C756 C757 1.349 . S
C756 C758 1.327 . S
C756 H781 0.950 . S
C757 C756 1.349 . S
C757 C773 1.349 . S
C758 C756 1.327 . S
C758 C777 1.429 . S
C758 H782 0.950 . S
C759 C776 1.574 . S
C759 C778 1.368 . S
C759 H783 0.949 . S
H760 C764 0.949 . S
C761 C762 1.349 . S
C761 C763 1.327 . S
C761 H784 0.950 . S
C762 C761 1.349 . S
C762 C774 1.349 . S
C763 C761 1.327 . S
C763 C779 1.429 . S
C763 H785 0.950 . S
C764 H760 0.949 . S
C764 C772 1.574 . S
C764 C780 1.368 . S
H765 C773 0.950 . S
H766 C771 0.950 . S
H767 C772 0.949 . S
H768 C774 0.950 . S
H769 C775 0.950 . S
H770 C776 0.949 . S
C771 H766 0.950 . S
C771 C773 1.327 . S
C771 C777 1.429 . S
C772 C764 1.574 . S
C772 H767 0.949 . S
C772 C778 1.368 . S
C773 C757 1.349 . S
C773 H765 0.950 . S
C773 C771 1.327 . S
C774 C762 1.349 . S
C774 H768 0.950 . S
C774 C775 1.327 . S
C775 H769 0.950 . S
C775 C774 1.327 . S
C775 C779 1.429 . S
C776 C759 1.574 . S
C776 H770 0.949 . S
C776 C780 1.368 . S
C777 C758 1.429 . S
C777 C771 1.429 . S
C777 C778 1.523 . S
C778 C759 1.368 . S
C778 C772 1.368 . S
C778 C777 1.523 . S
C779 C763 1.429 . S
C779 C775 1.429 . S
C779 C780 1.523 . S
C780 C764 1.368 . S
C780 C776 1.368 . S
C780 C779 1.523 . S
H781 C756 0.950 . S
H782 C758 0.950 . S
H783 C759 0.949 . S
H784 C761 0.950 . S
H785 C763 0.950 . S
C786 C787 1.349 . S
C786 C788 1.327 . S
C786 H811 0.950 . S
C787 C786 1.349 . S
C787 C803 1.349 . S
C788 C786 1.327 . S
C788 C807 1.429 . S
C788 H812 0.950 . S
C789 C806 1.574 . S
C789 C808 1.368 . S
C789 H813 0.949 . S
H790 C794 0.949 . S
C791 C792 1.349 . S
C791 C793 1.327 . S
C791 H814 0.950 . S
C792 C791 1.349 . S
C792 C804 1.349 . S
C793 C791 1.327 . S
C793 C809 1.429 . S
C793 H815 0.950 . S
C794 H790 0.949 . S
C794 C802 1.574 . S
C794 C810 1.368 . S
H795 C803 0.950 . S
H796 C801 0.950 . S
H797 C802 0.949 . S
H798 C804 0.950 . S
H799 C805 0.950 . S
H800 C806 0.949 . S
C801 H796 0.950 . S
C801 C803 1.327 . S
C801 C807 1.429 . S
C802 C794 1.574 . S
C802 H797 0.949 . S
C802 C808 1.368 . S
C803 C787 1.349 . S
C803 H795 0.950 . S
C803 C801 1.327 . S
C804 C792 1.349 . S
C804 H798 0.950 . S
C804 C805 1.327 . S
C805 H799 0.950 . S
C805 C804 1.327 . S
C805 C809 1.429 . S
C806 C789 1.574 . S
C806 H800 0.949 . S
C806 C810 1.368 . S
C807 C788 1.429 . S
C807 C801 1.429 . S
C807 C808 1.523 . S
C808 C789 1.368 . S
C808 C802 1.368 . S
C808 C807 1.523 . S
C809 C793 1.429 . S
C809 C805 1.429 . S
C809 C810 1.523 . S
C810 C794 1.368 . S
C810 C806 1.368 . S
C810 C809 1.523 . S
H811 C786 0.950 . S
H812 C788 0.950 . S
H813 C789 0.949 . S
H814 C791 0.950 . S
H815 C793 0.950 . S
C816 C817 1.349 . S
C816 C818 1.327 . S
C816 H841 0.950 . S
C817 C816 1.349 . S
C817 C833 1.349 . S
C818 C816 1.327 . S
C818 C837 1.429 . S
C818 H842 0.950 . S
C819 C836 1.574 . S
C819 C838 1.368 . S
C819 H843 0.949 . S
H820 C824 0.949 . S
C821 C822 1.349 . S
C821 C823 1.327 . S
C821 H844 0.950 . S
C822 C821 1.349 . S
C822 C834 1.349 . S
C823 C821 1.327 . S
C823 C839 1.429 . S
C823 H845 0.950 . S
C824 H820 0.949 . S
C824 C832 1.574 . S
C824 C840 1.368 . S
H825 C833 0.950 . S
H826 C831 0.950 . S
H827 C832 0.949 . S
H828 C834 0.950 . S
H829 C835 0.950 . S
H830 C836 0.949 . S
C831 H826 0.950 . S
C831 C833 1.327 . S
C831 C837 1.429 . S
C832 C824 1.574 . S
C832 H827 0.949 . S
C832 C838 1.368 . S
C833 C817 1.349 . S
C833 H825 0.950 . S
C833 C831 1.327 . S
C834 C822 1.349 . S
C834 H828 0.950 . S
C834 C835 1.327 . S
C835 H829 0.950 . S
C835 C834 1.327 . S
C835 C839 1.429 . S
C836 C819 1.574 . S
C836 H830 0.949 . S
C836 C840 1.368 . S
C837 C818 1.429 . S
C837 C831 1.429 . S
C837 C838 1.523 . S
C838 C819 1.368 . S
C838 C832 1.368 . S
C838 C837 1.523 . S
C839 C823 1.429 . S
C839 C835 1.429 . S
C839 C840 1.523 . S
C840 C824 1.368 . S
C840 C836 1.368 . S
C840 C839 1.523 . S
H841 C816 0.950 . S
H842 C818 0.950 . S
H843 C819 0.949 . S
H844 C821 0.950 . S
H845 C823 0.950 . S
C846 C847 1.349 . S
C846 C848 1.327 . S
C846 H871 0.950 . S
C847 C846 1.349 . S
C847 C863 1.349 . S
C848 C846 1.327 . S
C848 C867 1.429 . S
C848 H872 0.950 . S
C849 C866 1.574 . S
C849 C868 1.368 . S
C849 H873 0.949 . S
H850 C854 0.949 . S
C851 C852 1.349 . S
C851 C853 1.327 . S
C851 H874 0.950 . S
C852 C851 1.349 . S
C852 C864 1.349 . S
C853 C851 1.327 . S
C853 C869 1.429 . S
C853 H875 0.950 . S
C854 H850 0.949 . S
C854 C862 1.574 . S
C854 C870 1.368 . S
H855 C863 0.950 . S
H856 C861 0.950 . S
H857 C862 0.949 . S
H858 C864 0.950 . S
H859 C865 0.950 . S
H860 C866 0.949 . S
C861 H856 0.950 . S
C861 C863 1.327 . S
C861 C867 1.429 . S
C862 C854 1.574 . S
C862 H857 0.949 . S
C862 C868 1.368 . S
C863 C847 1.349 . S
C863 H855 0.950 . S
C863 C861 1.327 . S
C864 C852 1.349 . S
C864 H858 0.950 . S
C864 C865 1.327 . S
C865 H859 0.950 . S
C865 C864 1.327 . S
C865 C869 1.429 . S
C866 C849 1.574 . S
C866 H860 0.949 . S
C866 C870 1.368 . S
C867 C848 1.429 . S
C867 C861 1.429 . S
C867 C868 1.523 . S
C868 C849 1.368 . S
C868 C862 1.368 . S
C868 C867 1.523 . S
C869 C853 1.429 . S
C869 C865 1.429 . S
C869 C870 1.523 . S
C870 C854 1.368 . S
C870 C866 1.368 . S
C870 C869 1.523 . S
H871 C846 0.950 . S
H872 C848 0.950 . S
H873 C849 0.949 . S
H874 C851 0.950 . S
H875 C853 0.950 . S
C157 C5 1.834 . S
C162 C83 1.834 . S
C187 C18 1.834 . S
C192 C96 1.834 . S
C217 C31 1.834 . S
C222 C109 1.834 . S
C247 C44 1.834 . S
C252 C122 1.834 . S
C277 C57 1.834 . S
C282 C135 1.834 . S
C307 C148 1.834 . S
C312 C70 1.834 . S
C337 C3 1.842 . S
C342 C133 1.842 . S
C367 C16 1.843 . S
C372 C146 1.843 . S
C397 C29 1.842 . S
C402 C81 1.842 . S
C427 C42 1.842 . S
C432 C94 1.842 . S
C457 C55 1.843 . S
C462 C107 1.843 . S
C487 C68 1.843 . S
C492 C120 1.843 . S
C517 C1 1.813 . S
C522 C40 1.813 . S
C547 C14 1.812 . S
C552 C53 1.812 . S
C577 C66 1.812 . S
C582 C27 1.812 . S
C607 C79 1.813 . S
C612 C118 1.813 . S
C637 C131 1.812 . S
C642 C92 1.812 . S
C667 C105 1.813 . S
C672 C144 1.813 . S
C697 C88 0.729 . S
C702 C10 0.729 . S
C727 C23 0.729 . S
C732 C101 0.729 . S
C757 C36 0.729 . S
C762 C114 0.729 . S
C787 C127 0.729 . S
C792 C49 0.729 . S
C817 C140 0.729 . S
C822 C62 0.729 . S
C847 C75 0.729 . S
C852 C153 0.729 . S
