# Generated by pormake.
# Topology yfl, (5)-cn, num edge types: 1
# Building blocks:
#     Node 0, Type 0, BuildingBlock: XOMCOT_clean_sbu_1, # of connection points: 5
#     Node 1, Type 0, BuildingBlock: XOMCOT_clean_sbu_1, # of connection points: 5
#     Node 2, Type 0, BuildingBlock: XOMCOT_clean_sbu_1, # of connection points: 5
#     Node 3, Type 0, BuildingBlock: XOMCOT_clean_sbu_1, # of connection points: 5
#     Node 4, Type 0, BuildingBlock: XOMCOT_clean_sbu_1, # of connection points: 5
#     Node 5, Type 0, BuildingBlock: XOMCOT_clean_sbu_1, # of connection points: 5
#     Node 6, Type 0, BuildingBlock: XOMCOT_clean_sbu_1, # of connection points: 5
#     Node 7, Type 0, BuildingBlock: XOMCOT_clean_sbu_1, # of connection points: 5
#     Node 8, Type 0, BuildingBlock: XOMCOT_clean_sbu_1, # of connection points: 5
#     Node 9, Type 0, BuildingBlock: XOMCOT_clean_sbu_1, # of connection points: 5
#     Node 10, Type 0, BuildingBlock: XOMCOT_clean_sbu_1, # of connection points: 5
#     Node 11, Type 0, BuildingBlock: XOMCOT_clean_sbu_1, # of connection points: 5
#     Node 12, Type 0, BuildingBlock: XOMCOT_clean_sbu_1, # of connection points: 5
#     Node 13, Type 0, BuildingBlock: XOMCOT_clean_sbu_1, # of connection points: 5
#     Node 14, Type 0, BuildingBlock: XOMCOT_clean_sbu_1, # of connection points: 5
#     Node 15, Type 0, BuildingBlock: XOMCOT_clean_sbu_1, # of connection points: 5
#     Edge 16, Type (0, 0), BuildingBlock: UVAHIK_clean_linker_0, # of connection points: 2
#     Edge 17, Type (0, 0), BuildingBlock: UVAHIK_clean_linker_0, # of connection points: 2
#     Edge 18, Type (0, 0), BuildingBlock: UVAHIK_clean_linker_0, # of connection points: 2
#     Edge 19, Type (0, 0), BuildingBlock: UVAHIK_clean_linker_0, # of connection points: 2
#     Edge 20, Type (0, 0), BuildingBlock: UVAHIK_clean_linker_0, # of connection points: 2
#     Edge 21, Type (0, 0), BuildingBlock: UVAHIK_clean_linker_0, # of connection points: 2
#     Edge 22, Type (0, 0), BuildingBlock: UVAHIK_clean_linker_0, # of connection points: 2
#     Edge 23, Type (0, 0), BuildingBlock: UVAHIK_clean_linker_0, # of connection points: 2
#     Edge 24, Type (0, 0), BuildingBlock: UVAHIK_clean_linker_0, # of connection points: 2
#     Edge 25, Type (0, 0), BuildingBlock: UVAHIK_clean_linker_0, # of connection points: 2
#     Edge 26, Type (0, 0), BuildingBlock: UVAHIK_clean_linker_0, # of connection points: 2
#     Edge 27, Type (0, 0), BuildingBlock: UVAHIK_clean_linker_0, # of connection points: 2
#     Edge 28, Type (0, 0), BuildingBlock: UVAHIK_clean_linker_0, # of connection points: 2
#     Edge 29, Type (0, 0), BuildingBlock: UVAHIK_clean_linker_0, # of connection points: 2
#     Edge 30, Type (0, 0), BuildingBlock: UVAHIK_clean_linker_0, # of connection points: 2
#     Edge 31, Type (0, 0), BuildingBlock: UVAHIK_clean_linker_0, # of connection points: 2
#     Edge 32, Type (0, 0), BuildingBlock: UVAHIK_clean_linker_0, # of connection points: 2
#     Edge 33, Type (0, 0), BuildingBlock: UVAHIK_clean_linker_0, # of connection points: 2
#     Edge 34, Type (0, 0), BuildingBlock: UVAHIK_clean_linker_0, # of connection points: 2
#     Edge 35, Type (0, 0), BuildingBlock: UVAHIK_clean_linker_0, # of connection points: 2
#     Edge 36, Type (0, 0), BuildingBlock: UVAHIK_clean_linker_0, # of connection points: 2
#     Edge 37, Type (0, 0), BuildingBlock: UVAHIK_clean_linker_0, # of connection points: 2
#     Edge 38, Type (0, 0), BuildingBlock: UVAHIK_clean_linker_0, # of connection points: 2
#     Edge 39, Type (0, 0), BuildingBlock: UVAHIK_clean_linker_0, # of connection points: 2
#     Edge 40, Type (0, 0), BuildingBlock: UVAHIK_clean_linker_0, # of connection points: 2
#     Edge 41, Type (0, 0), BuildingBlock: UVAHIK_clean_linker_0, # of connection points: 2
#     Edge 42, Type (0, 0), BuildingBlock: UVAHIK_clean_linker_0, # of connection points: 2
#     Edge 43, Type (0, 0), BuildingBlock: UVAHIK_clean_linker_0, # of connection points: 2
#     Edge 44, Type (0, 0), BuildingBlock: UVAHIK_clean_linker_0, # of connection points: 2
#     Edge 45, Type (0, 0), BuildingBlock: UVAHIK_clean_linker_0, # of connection points: 2
#     Edge 46, Type (0, 0), BuildingBlock: UVAHIK_clean_linker_0, # of connection points: 2
#     Edge 47, Type (0, 0), BuildingBlock: UVAHIK_clean_linker_0, # of connection points: 2
#     Edge 48, Type (0, 0), BuildingBlock: UVAHIK_clean_linker_0, # of connection points: 2
#     Edge 49, Type (0, 0), BuildingBlock: UVAHIK_clean_linker_0, # of connection points: 2
#     Edge 50, Type (0, 0), BuildingBlock: UVAHIK_clean_linker_0, # of connection points: 2
#     Edge 51, Type (0, 0), BuildingBlock: UVAHIK_clean_linker_0, # of connection points: 2
#     Edge 52, Type (0, 0), BuildingBlock: UVAHIK_clean_linker_0, # of connection points: 2
#     Edge 53, Type (0, 0), BuildingBlock: UVAHIK_clean_linker_0, # of connection points: 2
#     Edge 54, Type (0, 0), BuildingBlock: UVAHIK_clean_linker_0, # of connection points: 2
#     Edge 55, Type (0, 0), BuildingBlock: UVAHIK_clean_linker_0, # of connection points: 2
# Relax obj value: 0.500
# Max RMSD: 0.265
# Mean RMSD: 0.265
data_MOF--net-yfl--node1-XOMCOT_clean_sbu_1--edge1-UVAHIK_clean_linker_0
_symmetry_space_group_name_H-M    P1
_symmetry_Int_Tables_number       1
_symmetry_cell_setting            triclinic
loop_
_symmetry_equiv_pos_as_xyz
'x, y, z'
_cell_length_a     35.797864
_cell_length_b     35.829434
_cell_length_c     131.78412
_cell_angle_alpha  90.117536
_cell_angle_beta   89.989443
_cell_angle_gamma 89.961955
loop_
_atom_site_label
_atom_site_type_symbol
_atom_site_fract_x
_atom_site_fract_y
_atom_site_fract_z
_atom_type_partial_charge
C0 C 0.04913 0.18507 0.29009 0.0
C1 C 0.01995 0.17673 0.28367 0.0
N2 N 0.99256 0.20189 0.28525 0.0
N3 N 0.04022 0.21554 0.29559 0.0
C4 C 1.00538 0.22474 0.2926 0.0
H5 H 0.07597 0.17123 0.29032 0.0
Co6 Co 0.07309 0.24142 0.30386 0.0
C7 C 0.02619 0.30171 0.3125 0.0
O8 O 0.03144 0.28835 0.32167 0.0
N9 N 0.10666 0.26775 0.31211 0.0
C10 C 0.14238 0.31416 0.31769 0.0
C11 C 0.11384 0.30466 0.31128 0.0
C12 C 0.13154 0.2554 0.31904 0.0
N13 N 0.15368 0.2831 0.32253 0.0
O14 O 0.05156 0.21658 0.31528 0.0
H15 H 0.10008 0.32339 0.30605 0.0
H16 H 0.13468 0.2265 0.32117 0.0
O17 O 0.03898 0.28382 0.30486 0.0
C18 C 0.06884 0.18583 0.31663 0.0
O19 O 0.09889 0.17914 0.3112 0.0
N20 N 0.0953 0.26203 0.29239 0.0
C21 C 0.13103 0.28367 0.27466 0.0
C22 C 0.09341 0.29265 0.27628 0.0
C23 C 0.07598 0.2816 0.28524 0.0
C24 C 0.13182 0.25276 0.2909 0.0
C25 C 0.15049 0.26388 0.28213 0.0
H26 H 0.04669 0.28766 0.28624 0.0
H27 H 0.14635 0.23613 0.29649 0.0
H28 H 0.99081 0.24953 0.29513 0.0
H29 H 0.01968 0.15505 0.27794 0.0
H30 H 0.15424 0.34174 0.31859 0.0
H31 H 0.07757 0.30789 0.27064 0.0
H32 H 0.17948 0.25611 0.28105 0.0
C33 C 0.13263 0.94199 0.70534 0.0
C34 C 0.1276 0.96726 0.71311 0.0
N35 N 0.15484 0.99313 0.71252 0.0
N36 N 0.16295 0.9518 0.69992 0.0
C37 C 0.17544 0.98336 0.70436 0.0
H38 H 0.11654 0.91687 0.70409 0.0
Co39 Co 0.18497 0.9228 0.68988 0.0
C40 C 0.24021 0.97281 0.6802 0.0
O41 O 0.22303 0.96866 0.67146 0.0
N42 N 0.2074 0.89315 0.67981 0.0
C43 C 0.25123 0.86209 0.67134 0.0
C44 C 0.2443 0.88525 0.67939 0.0
C45 C 0.19247 0.87419 0.67192 0.0
N46 N 0.21859 0.85506 0.66665 0.0
O47 O 0.15384 0.94741 0.68003 0.0
H48 H 0.26502 0.89562 0.68467 0.0
H49 H 0.16305 0.87369 0.67014 0.0
O50 O 0.2259 0.95852 0.68818 0.0
C51 C 0.12306 0.9298 0.67903 0.0
O52 O 0.11879 0.89806 0.68388 0.0
N53 N 0.21226 0.89732 0.69982 0.0
C54 C 0.25109 0.85484 0.71396 0.0
C55 C 0.25649 0.89349 0.71342 0.0
C56 C 0.23685 0.91428 0.70626 0.0
C57 C 0.20542 0.85999 0.70055 0.0
C58 C 0.22511 0.83801 0.70746 0.0
H59 H 0.24156 0.94395 0.70593 0.0
H60 H 0.18513 0.84712 0.69557 0.0
H61 H 0.20107 0.99718 0.70221 0.0
H62 H 0.10672 0.96553 0.71903 0.0
H63 H 0.27832 0.85163 0.66905 0.0
H64 H 0.27641 0.90738 0.71833 0.0
H65 H 0.22004 0.80823 0.70775 0.0
C66 C 0.94383 0.79863 0.28187 0.0
C67 C 0.96864 0.81044 0.27462 0.0
N68 N 1.00365 0.80259 0.27778 0.0
N69 N 0.96282 0.78249 0.28951 0.0
C70 C 0.99909 0.78721 0.28708 0.0
H71 H 0.9137 0.79966 0.28132 0.0
Co72 Co 0.9409 0.75816 0.30047 0.0
C73 C 1.00374 0.6984 0.29632 0.0
O74 O 0.01913 0.71091 0.28796 0.0
N75 N 0.91859 0.73436 0.31151 0.0
C76 C 0.89811 0.68959 0.32176 0.0
C77 C 0.91277 0.69721 0.31237 0.0
C78 C 0.90646 0.74877 0.32038 0.0
N79 N 0.89422 0.7221 0.32676 0.0
O80 O 0.97135 0.78762 0.30938 0.0
H81 H 0.91919 0.67683 0.30656 0.0
H82 H 0.90742 0.77805 0.32231 0.0
O83 O 0.97682 0.71635 0.30045 0.0
C84 C 0.95471 0.81854 0.31103 0.0
O85 O 0.92116 0.82354 0.30722 0.0
N86 N 0.90942 0.73193 0.29158 0.0
C87 C 0.86015 0.70126 0.27746 0.0
C88 C 0.89885 0.69641 0.27645 0.0
C89 C 0.92293 0.71199 0.28356 0.0
C90 C 0.8719 0.73722 0.2927 0.0
C91 C 0.84668 0.72182 0.28577 0.0
H92 H 0.95244 0.70985 0.28221 0.0
H93 H 0.86155 0.75413 0.29891 0.0
H94 H 0.02168 0.77813 0.29192 0.0
H95 H 0.96098 0.82105 0.26723 0.0
H96 H 0.89082 0.66234 0.32469 0.0
H97 H 0.91072 0.68204 0.26997 0.0
H98 H 0.81703 0.72633 0.28685 0.0
C99 C 0.73133 0.10008 0.69014 0.0
C100 C 0.75259 0.08341 0.69756 0.0
N101 N 0.75395 0.04654 0.69561 0.0
N102 N 0.71854 0.07367 0.68369 0.0
C103 C 0.73344 0.04152 0.68714 0.0
H104 H 0.72613 0.12967 0.68943 0.0
Co105 Co 0.69226 0.08076 0.67163 0.0
C106 C 0.64096 0.02103 0.68161 0.0
O107 O 0.6595 0.01543 0.69007 0.0
N108 N 0.66642 0.088 0.65953 0.0
C109 C 0.62017 0.09765 0.64864 0.0
C110 C 0.62907 0.09159 0.65862 0.0
C111 C 0.67961 0.09194 0.65001 0.0
N112 N 0.65203 0.0979 0.64318 0.0
O113 O 0.72372 0.04362 0.66537 0.0
H114 H 0.60952 0.09096 0.66488 0.0
H115 H 0.70893 0.0911 0.64814 0.0
O116 O 0.65349 0.04401 0.67503 0.0
C117 C 0.75402 0.0592 0.6625 0.0
O118 O 0.75628 0.09577 0.66304 0.0
N119 N 0.66463 0.11932 0.67769 0.0
C120 C 0.63723 0.18165 0.68795 0.0
C121 C 0.62715 0.14554 0.69097 0.0
C122 C 0.64147 0.11474 0.68582 0.0
C123 C 0.67353 0.15422 0.67437 0.0
C124 C 0.66027 0.18591 0.67943 0.0
H125 H 0.6357 0.08757 0.68886 0.0
H126 H 0.69261 0.15741 0.66806 0.0
H127 H 0.7288 0.01472 0.68356 0.0
H128 H 0.7663 0.09737 0.70382 0.0
H129 H 0.59242 0.10328 0.64578 0.0
H130 H 0.61025 0.141 0.69767 0.0
H131 H 0.66883 0.21335 0.67691 0.0
C132 C 0.10037 0.28185 0.93532 0.0
C133 C 0.08651 0.30415 0.9429 0.0
N134 N 0.04906 0.30542 0.94199 0.0
N135 N 0.07185 0.26825 0.92974 0.0
C136 C 0.04101 0.28409 0.9338 0.0
H137 H 0.1296 0.27651 0.93383 0.0
Co138 Co 0.07889 0.24118 0.91781 0.0
C139 C 0.01409 0.19313 0.92691 0.0
O140 O 1.00628 0.21281 0.93505 0.0
N141 N 0.08746 0.21554 0.90574 0.0
C142 C 0.10306 0.16975 0.89521 0.0
C143 C 0.08558 0.17838 0.90418 0.0
C144 C 0.10601 0.22886 0.89762 0.0
N145 N 0.11645 0.20153 0.89113 0.0
O146 O 0.04451 0.27429 0.91122 0.0
H147 H 0.0762 0.15833 0.90973 0.0
H148 H 0.11449 0.25762 0.89695 0.0
O149 O 0.03947 0.20424 0.92079 0.0
C150 C 0.06103 0.30442 0.90868 0.0
O151 O 0.09745 0.30638 0.90982 0.0
N152 N 0.11423 0.21088 0.92438 0.0
C153 C 0.17045 0.1771 0.93562 0.0
C154 C 0.13339 0.17591 0.93893 0.0
C155 C 0.10571 0.19304 0.93322 0.0
C156 C 0.15017 0.21151 0.9209 0.0
C157 C 0.17884 0.19424 0.92637 0.0
H158 H 0.07802 0.19423 0.93636 0.0
H159 H 0.15696 0.22688 0.91409 0.0
H160 H 0.01326 0.28031 0.93074 0.0
H161 H 0.10291 0.31868 0.94856 0.0
H162 H 0.1089 0.14179 0.89252 0.0
H163 H 0.12609 0.16305 0.9461 0.0
H164 H 0.20739 0.19593 0.92369 0.0
C165 C 0.32204 0.94138 0.03048 0.0
C166 C 0.32675 0.95371 0.02073 0.0
N167 N 0.3028 0.98213 0.01913 0.0
N168 N 0.29525 0.96178 0.03502 0.0
C169 C 0.284 0.98656 0.02796 0.0
H170 H 0.33741 0.91912 0.03411 0.0
Co171 Co 0.283 0.95318 0.04831 0.0
C172 C 0.21105 0.99001 0.05302 0.0
O173 O 0.20358 0.9604 0.05851 0.0
N174 N 0.27304 0.94362 0.06211 0.0
C175 C 0.2663 0.95251 0.07876 0.0
C176 C 0.27406 0.96937 0.06963 0.0
C177 C 0.26516 0.91131 0.06691 0.0
N178 N 0.2605 0.91601 0.07698 0.0
O179 O 0.31997 0.9894 0.05222 0.0
H180 H 0.27957 0.99876 0.06853 0.0
H181 H 0.26314 0.88454 0.06324 0.0
O182 O 0.24217 0.99188 0.04813 0.0
C183 C 0.35031 0.97415 0.05517 0.0
O184 O 0.35132 0.93764 0.05608 0.0
N185 N 0.24993 0.91555 0.04377 0.0
C186 C 0.21209 0.85711 0.03416 0.0
C187 C 0.19845 0.89369 0.0337 0.0
C188 C 0.21831 0.92258 0.03827 0.0
C189 C 0.26443 0.8803 0.04392 0.0
C190 C 0.24568 0.85052 0.03931 0.0
H191 H 0.20925 0.95063 0.03672 0.0
H192 H 0.29139 0.87549 0.04739 0.0
H193 H 0.26238 0.00714 0.02924 0.0
H194 H 0.34684 0.94303 0.01531 0.0
H195 H 0.26435 0.96614 0.08608 0.0
H196 H 0.17381 0.90037 0.02929 0.0
H197 H 0.2578 0.82283 0.03957 0.0
C198 C 0.92619 0.69327 0.95262 0.0
C199 C 0.94955 0.68647 0.9607 0.0
N200 N 0.9813 0.70609 0.95934 0.0
N201 N 0.94306 0.71713 0.94621 0.0
C202 C 0.97671 0.72407 0.95041 0.0
H203 H 0.89812 0.6827 0.95165 0.0
Co204 Co 0.92117 0.7375 0.93476 0.0
C205 C 0.97632 0.7918 0.92705 0.0
O206 O 0.97774 0.77352 0.9184 0.0
N207 N 0.89878 0.75818 0.92318 0.0
C208 C 0.87772 0.80015 0.91215 0.0
C209 C 0.89128 0.79482 0.92178 0.0
C210 C 0.88864 0.74173 0.91437 0.0
N211 N 0.87614 0.76671 0.90754 0.0
O212 O 0.95141 0.70491 0.92657 0.0
H213 H 0.89634 0.81653 0.92733 0.0
H214 H 0.89149 0.7123 0.91278 0.0
O215 O 0.95761 0.77817 0.93441 0.0
C216 C 0.934 0.67405 0.92555 0.0
O217 O 0.90027 0.67115 0.92941 0.0
N218 N 0.89007 0.76624 0.94302 0.0
C219 C 0.84089 0.8054 0.95532 0.0
C220 C 0.87946 0.80942 0.9566 0.0
C221 C 0.90372 0.78956 0.95034 0.0
C222 C 0.85254 0.76106 0.94193 0.0
C223 C 0.82726 0.78103 0.9479 0.0
H224 H 0.93343 0.79248 0.95149 0.0
H225 H 0.84222 0.74155 0.93631 0.0
H226 H 0.99707 0.74269 0.9471 0.0
H227 H 0.94278 0.66987 0.9673 0.0
H228 H 0.86991 0.82654 0.90877 0.0
H229 H 0.89068 0.82797 0.96234 0.0
H230 H 0.7975 0.77724 0.94683 0.0
C231 C 0.74147 0.16571 0.01991 0.0
C232 C 0.73086 0.14087 0.01246 0.0
N233 N 0.74214 0.10649 0.01526 0.0
N234 N 0.75973 0.14701 0.02726 0.0
C235 C 0.75962 0.11112 0.02424 0.0
H236 H 0.73554 0.19531 0.02009 0.0
Co237 Co 0.77647 0.16523 0.03952 0.0
C238 C 0.83147 0.10876 0.04624 0.0
O239 O 0.81227 0.10421 0.05465 0.0
N240 N 0.79323 0.18385 0.05194 0.0
C241 C 0.83027 0.20104 0.06465 0.0
C242 C 0.8289 0.1917 0.05454 0.0
C243 C 0.77336 0.18973 0.06048 0.0
N244 N 0.79525 0.19975 0.06832 0.0
O245 O 0.74417 0.13001 0.04622 0.0
H246 H 0.85263 0.18939 0.04949 0.0
H247 H 0.74363 0.18525 0.06114 0.0
O248 O 0.8188 0.13042 0.03937 0.0
C249 C 0.71143 0.14398 0.04682 0.0
O250 O 0.7063 0.17845 0.04372 0.0
N251 N 0.8045 0.20115 0.03276 0.0
C252 C 0.83585 0.25807 0.0213 0.0
C253 C 0.85103 0.22201 0.02104 0.0
C254 C 0.83457 0.19369 0.02672 0.0
C255 C 0.78994 0.23624 0.0333 0.0
C256 C 0.80506 0.26522 0.02755 0.0
H257 H 0.84514 0.16567 0.02588 0.0
H258 H 0.76555 0.24135 0.03796 0.0
H259 H 0.77192 0.08876 0.02862 0.0
H260 H 0.71528 0.14747 0.00566 0.0
H261 H 0.85504 0.20765 0.06901 0.0
H262 H 0.87426 0.21534 0.01608 0.0
H263 H 0.79246 0.2927 0.02785 0.0
C264 C 0.59548 0.66382 0.77695 0.0
C265 C 0.56326 0.66245 0.77122 0.0
N266 N 0.54683 0.6962 0.77169 0.0
N267 N 0.59895 0.69816 0.78106 0.0
C268 C 0.56882 0.71714 0.77772 0.0
H269 H 0.61529 0.64135 0.77794 0.0
Co270 Co 0.63745 0.71506 0.78933 0.0
C271 C 0.60264 0.77603 0.80143 0.0
O272 O 0.61329 0.76002 0.80991 0.0
N273 N 0.67655 0.73273 0.79761 0.0
C274 C 0.71797 0.77211 0.80423 0.0
C275 C 0.69042 0.76779 0.79713 0.0
C276 C 0.69636 0.71631 0.80512 0.0
N277 N 0.72171 0.73971 0.80926 0.0
O278 O 0.61654 0.68653 0.80028 0.0
H279 H 0.68041 0.78943 0.79212 0.0
H280 H 0.69224 0.68798 0.80763 0.0
O281 O 0.60885 0.75969 0.79297 0.0
C282 C 0.63167 0.65426 0.80044 0.0
O283 O 0.65961 0.64742 0.79424 0.0
N284 N 0.65885 0.73934 0.77826 0.0
C285 C 0.70073 0.77553 0.76355 0.0
C286 C 0.6656 0.7893 0.7664 0.0
C287 C 0.64483 0.77052 0.77372 0.0
C288 C 0.69176 0.72414 0.77509 0.0
C289 C 0.71333 0.74189 0.76771 0.0
H290 H 0.61813 0.7818 0.77589 0.0
H291 H 0.70204 0.69897 0.77865 0.0
H292 H 0.56289 0.74589 0.77963 0.0
H293 H 0.55329 0.63891 0.76683 0.0
H294 H 0.73289 0.7977 0.80585 0.0
H295 H 0.65458 0.81474 0.76313 0.0
H296 H 0.74023 0.73033 0.76562 0.0
C297 C 0.64574 0.46033 0.1938 0.0
C298 C 0.64659 0.49309 0.19926 0.0
N299 N 0.68137 0.50727 0.19869 0.0
N300 N 0.67975 0.45404 0.18975 0.0
C301 C 0.70067 0.48329 0.19277 0.0
H302 H 0.62243 0.44125 0.19336 0.0
Co303 Co 0.69553 0.41062 0.18338 0.0
C304 C 0.75643 0.43495 0.16962 0.0
O305 O 0.73896 0.41921 0.16196 0.0
N306 N 0.71201 0.3662 0.17708 0.0
C307 C 0.74984 0.31983 0.17249 0.0
C308 C 0.74578 0.35029 0.17867 0.0
C309 C 0.69616 0.34462 0.16982 0.0
N310 N 0.71866 0.3163 0.16689 0.0
O311 O 0.66631 0.42453 0.17162 0.0
H312 H 0.76721 0.36114 0.18361 0.0
H313 H 0.66925 0.35007 0.16646 0.0
O314 O 0.74086 0.43543 0.17835 0.0
C315 C 0.63391 0.41001 0.17266 0.0
O316 O 0.62872 0.38677 0.18024 0.0
N317 N 0.71958 0.39636 0.19534 0.0
C318 C 0.74966 0.36516 0.21289 0.0
C319 C 0.76866 0.39359 0.20767 0.0
C320 C 0.75292 0.40918 0.19896 0.0
C321 C 0.6999 0.37017 0.20054 0.0
C322 C 0.71434 0.35422 0.20934 0.0
H323 H 0.76821 0.43058 0.19501 0.0
H324 H 0.67309 0.36104 0.19767 0.0
H325 H 0.73009 0.48598 0.1911 0.0
H326 H 0.62418 0.50401 0.20392 0.0
H327 H 0.77492 0.30319 0.1717 0.0
H328 H 0.79605 0.4029 0.21006 0.0
H329 H 0.69809 0.33322 0.21325 0.0
C330 C 0.45934 0.26456 0.78518 0.0
C331 C 0.47323 0.28426 0.77711 0.0
N332 N 0.51077 0.28299 0.77753 0.0
N333 N 0.4879 0.25013 0.79058 0.0
C334 C 0.51895 0.26288 0.7859 0.0
H335 H 0.43012 0.26087 0.78699 0.0
Co336 Co 0.48103 0.22439 0.80269 0.0
C337 C 0.54334 0.17351 0.79331 0.0
O338 O 0.54746 0.18962 0.78445 0.0
N339 N 0.47269 0.19998 0.81497 0.0
C340 C 0.46053 0.15506 0.82609 0.0
C341 C 0.47927 0.1639 0.81732 0.0
C342 C 0.45014 0.21246 0.82244 0.0
N343 N 0.44182 0.18556 0.82922 0.0
O344 O 0.51651 0.25723 0.80898 0.0
H345 H 0.49325 0.144 0.81249 0.0
H346 H 0.43634 0.23928 0.82224 0.0
O347 O 0.51997 0.18669 0.79974 0.0
C348 C 0.50076 0.28715 0.81205 0.0
O349 O 0.46427 0.28988 0.81131 0.0
N350 N 0.44426 0.19438 0.7965 0.0
C351 C 0.38514 0.1592 0.78649 0.0
C352 C 0.422 0.15497 0.78307 0.0
C353 C 0.45103 0.17298 0.78812 0.0
C354 C 0.40859 0.19879 0.79996 0.0
C355 C 0.37863 0.18119 0.79513 0.0
H356 H 0.47842 0.17135 0.78485 0.0
H357 H 0.40303 0.21728 0.80627 0.0
H358 H 0.54702 0.25781 0.78861 0.0
H359 H 0.45694 0.29721 0.77116 0.0
H360 H 0.4583 0.12752 0.82939 0.0
H361 H 0.42829 0.13943 0.77623 0.0
H362 H 0.35061 0.18544 0.79801 0.0
C363 C 0.26963 0.54024 0.18404 0.0
C364 C 0.28011 0.51414 0.19112 0.0
N365 N 0.25548 0.4857 0.19078 0.0
N366 N 0.2386 0.52833 0.17926 0.0
C367 C 0.23076 0.49499 0.18347 0.0
H368 H 0.28335 0.56657 0.18258 0.0
Co369 Co 0.21381 0.55465 0.16927 0.0
C370 C 0.15531 0.50168 0.16231 0.0
O371 O 0.17039 0.50125 0.15322 0.0
N372 N 0.18906 0.58188 0.1592 0.0
C373 C 0.14497 0.61354 0.15102 0.0
C374 C 0.15196 0.58859 0.15868 0.0
C375 C 0.20399 0.60337 0.15185 0.0
N376 N 0.17781 0.62298 0.14677 0.0
O377 O 0.2415 0.52628 0.15934 0.0
H378 H 0.13136 0.57747 0.16386 0.0
H379 H 0.23362 0.60651 0.15064 0.0
O380 O 0.17157 0.51965 0.16943 0.0
C381 C 0.27292 0.5425 0.15797 0.0
O382 O 0.27807 0.57537 0.16218 0.0
N383 N 0.19089 0.58374 0.17923 0.0
C384 C 0.17017 0.62917 0.19543 0.0
C385 C 0.15994 0.5914 0.19522 0.0
C386 C 0.17058 0.56907 0.18703 0.0
C387 C 0.20054 0.62053 0.17923 0.0
C388 C 0.18999 0.64394 0.1872 0.0
H389 H 0.1642 0.53964 0.18724 0.0
H390 H 0.21777 0.63144 0.17318 0.0
H391 H 0.20648 0.4786 0.18151 0.0
H392 H 0.30368 0.51636 0.19622 0.0
H393 H 0.1179 0.62468 0.14898 0.0
H394 H 0.14464 0.57904 0.20146 0.0
H395 H 0.19883 0.67285 0.18717 0.0
C396 C 0.58058 0.83715 0.44906 0.0
C397 C 0.54545 0.84354 0.45292 0.0
N398 N 0.52347 0.81435 0.45044 0.0
N399 N 0.58081 0.80398 0.44425 0.0
C400 C 0.5455 0.79118 0.44498 0.0
H401 H 0.6049 0.85463 0.45012 0.0
Co402 Co 0.6227 0.78158 0.43861 0.0
C403 C 0.59526 0.70155 0.44172 0.0
O404 O 0.6128 0.69859 0.45039 0.0
N405 N 0.66494 0.75902 0.43253 0.0
C406 C 0.70951 0.71835 0.42842 0.0
C407 C 0.68027 0.7256 0.43484 0.0
C408 C 0.68584 0.77156 0.42471 0.0
N409 N 0.71298 0.7473 0.42201 0.0
O410 O 0.60521 0.79869 0.42565 0.0
H411 H 0.67131 0.70751 0.44088 0.0
H412 H 0.68135 0.79796 0.42101 0.0
O413 O 0.59635 0.73232 0.43671 0.0
C414 C 0.61761 0.8319 0.42458 0.0
O415 O 0.64178 0.84463 0.43124 0.0
N416 N 0.64107 0.7706 0.45189 0.0
C417 C 0.67164 0.76158 0.47129 0.0
C418 C 0.63309 0.75798 0.46968 0.0
C419 C 0.61835 0.76314 0.45999 0.0
C420 C 0.67797 0.77819 0.45359 0.0
C421 C 0.69401 0.77274 0.46311 0.0
H422 H 0.58867 0.75942 0.459 0.0
H423 H 0.69548 0.78849 0.44753 0.0
H424 H 0.53659 0.76454 0.44199 0.0
H425 H 0.53755 0.86665 0.45777 0.0
H426 H 0.72616 0.69314 0.42835 0.0
H427 H 0.61434 0.75094 0.47584 0.0
H428 H 0.72383 0.77662 0.46396 0.0
C429 C 0.81664 0.46717 0.54431 0.0
C430 C 0.82951 0.49734 0.5389 0.0
N431 N 0.81071 0.52783 0.542 0.0
N432 N 0.78892 0.47825 0.55059 0.0
C433 C 0.78714 0.51558 0.54925 0.0
H434 H 0.82798 0.43938 0.54379 0.0
Co435 Co 0.76322 0.45155 0.56064 0.0
C436 C 0.7008 0.49843 0.55213 0.0
O437 O 0.71378 0.49361 0.54289 0.0
N438 N 0.73863 0.42573 0.57079 0.0
C439 C 0.698 0.40995 0.58275 0.0
C440 C 0.7141 0.43928 0.57765 0.0
C441 C 0.7381 0.38845 0.57209 0.0
N442 N 0.71322 0.37819 0.5792 0.0
O443 O 0.78697 0.48319 0.5704 0.0
H444 H 0.70747 0.46848 0.57866 0.0
H445 H 0.75413 0.36902 0.56754 0.0
O446 O 0.719 0.48493 0.55966 0.0
C447 C 0.81389 0.46672 0.57489 0.0
O448 O 0.81635 0.43023 0.57413 0.0
N449 N 0.74306 0.41793 0.55105 0.0
C450 C 0.7211 0.36474 0.53672 0.0
C451 C 0.69462 0.38793 0.54145 0.0
C452 C 0.70603 0.41342 0.54885 0.0
C453 C 0.76839 0.39299 0.54734 0.0
C454 C 0.75823 0.3666 0.54007 0.0
H455 H 0.68486 0.42892 0.55287 0.0
H456 H 0.79655 0.3929 0.55027 0.0
H457 H 0.76841 0.53349 0.55346 0.0
H458 H 0.85122 0.4968 0.53319 0.0
H459 H 0.67646 0.41168 0.5885 0.0
H460 H 0.66536 0.3869 0.53941 0.0
H461 H 0.77929 0.34767 0.53718 0.0
C462 C 0.49577 0.20916 0.44049 0.0
C463 C 0.51757 0.20186 0.44886 0.0
N464 N 0.5466 0.22578 0.44882 0.0
N465 N 0.51106 0.23745 0.43522 0.0
C466 C 0.54224 0.24661 0.44039 0.0
H467 H 0.46953 0.19589 0.43862 0.0
Co468 Co 0.48949 0.26017 0.42406 0.0
C469 C 0.54648 0.31495 0.41691 0.0
O470 O 0.54583 0.30085 0.4077 0.0
N471 N 0.46707 0.28298 0.41284 0.0
C472 C 0.44268 0.32635 0.40278 0.0
C473 C 0.4621 0.32009 0.41158 0.0
C474 C 0.44972 0.26727 0.40481 0.0
N475 N 0.43484 0.29306 0.39856 0.0
O476 O 0.51833 0.22753 0.41548 0.0
H477 H 0.47107 0.34132 0.41689 0.0
H478 H 0.44731 0.23757 0.40359 0.0
O479 O 0.52773 0.29918 0.42394 0.0
C480 C 0.50095 0.19687 0.41402 0.0
O481 O 0.46671 0.19364 0.41751 0.0
N482 N 0.45998 0.28923 0.43274 0.0
C483 C 0.41312 0.32886 0.44578 0.0
C484 C 0.45203 0.33288 0.44635 0.0
C485 C 0.47495 0.31273 0.43981 0.0
C486 C 0.42229 0.28417 0.4322 0.0
C487 C 0.39824 0.30395 0.43861 0.0
H488 H 0.50476 0.31548 0.44063 0.0
H489 H 0.41087 0.26468 0.42674 0.0
H490 H 0.56069 0.26915 0.43826 0.0
H491 H 0.51127 0.18215 0.45484 0.0
H492 H 0.43351 0.35319 0.39996 0.0
H493 H 0.46485 0.35081 0.45199 0.0
H494 H 0.36838 0.2999 0.43793 0.0
C495 C 0.19127 0.55453 0.53669 0.0
C496 C 0.19314 0.53093 0.52843 0.0
N497 N 0.22936 0.52599 0.52606 0.0
N498 N 0.22623 0.56398 0.53956 0.0
C499 C 0.2487 0.54607 0.53293 0.0
H500 H 0.16588 0.5648 0.54013 0.0
Co501 Co 0.24177 0.59709 0.54965 0.0
C502 C 0.30185 0.55397 0.55987 0.0
O503 O 0.28496 0.55776 0.56867 0.0
N504 N 0.25807 0.63071 0.55971 0.0
C505 C 0.29523 0.66443 0.56971 0.0
C506 C 0.29368 0.64201 0.56127 0.0
C507 C 0.23846 0.64753 0.5672 0.0
N508 N 0.26043 0.66777 0.57342 0.0
O509 O 0.21325 0.56935 0.55949 0.0
H510 H 0.31749 0.63345 0.55681 0.0
H511 H 0.20891 0.64408 0.56843 0.0
O512 O 0.28637 0.56678 0.55188 0.0
C513 C 0.18063 0.58358 0.56014 0.0
O514 O 0.17278 0.61317 0.55465 0.0
N515 N 0.26579 0.62567 0.53979 0.0
C516 C 0.2913 0.67099 0.52413 0.0
C517 C 0.31537 0.64544 0.52884 0.0
C518 C 0.30205 0.62286 0.53665 0.0
C519 C 0.24212 0.65053 0.53536 0.0
C520 C 0.25423 0.67342 0.52747 0.0
H521 H 0.32099 0.60319 0.54006 0.0
H522 H 0.21346 0.65221 0.53793 0.0
H523 H 0.27884 0.54812 0.53303 0.0
H524 H 0.16972 0.51954 0.52426 0.0
H525 H 0.32009 0.67671 0.57299 0.0
H526 H 0.34409 0.64239 0.52639 0.0
H527 H 0.23485 0.69297 0.52407 0.0
C528 C 0.18337 0.31409 0.2653 0.0
C529 C 0.14959 0.29432 0.26512 0.0
C530 C 0.19956 0.32634 0.25626 0.0
C531 C 0.17282 0.34867 0.22993 0.0
H532 H 0.27952 0.3632 0.22671 0.0
C533 C 0.23133 0.42305 0.19509 0.0
C534 C 0.25275 0.45459 0.19766 0.0
C535 C 0.22389 0.39556 0.2023 0.0
C536 C 0.24969 0.35903 0.2275 0.0
H537 H 0.10727 0.26975 0.25546 0.0
H538 H 0.13608 0.28996 0.23963 0.0
H539 H 0.25599 0.32876 0.24137 0.0
H540 H 0.28535 0.48035 0.20969 0.0
H541 H 0.27274 0.43219 0.22216 0.0
H542 H 0.16652 0.3793 0.21615 0.0
C543 C 0.14953 0.29722 0.24672 0.0
C544 C 0.23617 0.33956 0.23591 0.0
C545 C 0.13306 0.28554 0.25577 0.0
C546 C 0.26887 0.45652 0.20739 0.0
C547 C 0.2617 0.42884 0.21456 0.0
C548 C 0.18636 0.36766 0.22149 0.0
C549 C 0.18253 0.31853 0.24686 0.0
C550 C 0.19748 0.33497 0.23735 0.0
C551 C 0.23811 0.39881 0.21218 0.0
C552 C 0.22482 0.37378 0.22031 0.0
H553 H 0.1965 0.32125 0.27245 0.0
H554 H 0.22463 0.34316 0.25669 0.0
H555 H 0.14286 0.34637 0.23086 0.0
H556 H 0.21934 0.42007 0.1876 0.0
H557 H 0.20603 0.37235 0.20024 0.0
C558 C 0.51169 0.7453 0.76284 0.0
C559 C 0.51388 0.70855 0.76645 0.0
C560 C 0.47965 0.7579 0.75793 0.0
C561 C 0.39421 0.72554 0.74474 0.0
H562 H 0.36604 0.82914 0.74847 0.0
C563 C 0.29505 0.80225 0.71734 0.0
C564 C 0.27376 0.83225 0.72101 0.0
C565 C 0.31997 0.78366 0.72374 0.0
C566 C 0.37289 0.79994 0.74745 0.0
H567 H 0.48444 0.65606 0.76775 0.0
H568 H 0.42765 0.67831 0.75934 0.0
H569 H 0.41723 0.80355 0.75822 0.0
H570 H 0.25977 0.86502 0.73429 0.0
H571 H 0.30199 0.83161 0.74562 0.0
H572 H 0.34901 0.72174 0.73417 0.0
C573 C 0.45104 0.69722 0.76014 0.0
C574 C 0.40284 0.7854 0.75293 0.0
C575 C 0.48345 0.68446 0.76497 0.0
C576 C 0.27629 0.84218 0.73128 0.0
C577 C 0.30067 0.82318 0.73773 0.0
C578 C 0.36383 0.73998 0.73934 0.0
C579 C 0.4487 0.73421 0.75661 0.0
C580 C 0.41451 0.74831 0.75146 0.0
C581 C 0.32365 0.79437 0.73398 0.0
C582 C 0.35327 0.77761 0.74047 0.0
H583 H 0.53506 0.76422 0.7637 0.0
H584 H 0.47938 0.78619 0.75505 0.0
H585 H 0.40245 0.69688 0.74338 0.0
H586 H 0.29373 0.79434 0.70941 0.0
H587 H 0.33749 0.76205 0.72051 0.0
C588 C 0.73432 0.53581 0.20781 0.0
C589 C 0.69665 0.53688 0.20483 0.0
C590 C 0.74843 0.56212 0.21457 0.0
C591 C 0.71872 0.62315 0.2353 0.0
H592 H 0.82284 0.65274 0.23415 0.0
C593 C 0.80397 0.70758 0.26608 0.0
C594 C 0.8347 0.68652 0.26951 0.0
C595 C 0.78285 0.69535 0.25777 0.0
C596 C 0.79361 0.64501 0.2345 0.0
H597 H 0.6447 0.56752 0.20629 0.0
H598 H 0.66954 0.61384 0.21819 0.0
H599 H 0.79406 0.62324 0.21941 0.0
H600 H 0.8656 0.63492 0.26735 0.0
H601 H 0.82958 0.61449 0.25269 0.0
H602 H 0.71889 0.64462 0.25054 0.0
C603 C 0.68793 0.59223 0.21534 0.0
C604 C 0.77717 0.628 0.22611 0.0
C605 C 0.67373 0.56575 0.20853 0.0
C606 C 0.84278 0.65231 0.26475 0.0
C607 C 0.82214 0.6405 0.25639 0.0
C608 C 0.73513 0.6407 0.24368 0.0
C609 C 0.72534 0.59033 0.21853 0.0
C610 C 0.74003 0.6154 0.22656 0.0
C611 C 0.79253 0.66224 0.25273 0.0
C612 C 0.77305 0.65038 0.24344 0.0
H613 H 0.75267 0.51362 0.20532 0.0
H614 H 0.77714 0.55922 0.21704 0.0
H615 H 0.69011 0.6136 0.23592 0.0
H616 H 0.79717 0.7342 0.26951 0.0
H617 H 0.75997 0.7124 0.25504 0.0
C618 C 0.52656 0.32443 0.76324 0.0
C619 C 0.53571 0.29415 0.76953 0.0
C620 C 0.54542 0.32994 0.75409 0.0
C621 C 0.62298 0.29241 0.73781 0.0
H622 H 0.54885 0.30223 0.71653 0.0
C623 C 0.59082 0.21627 0.69854 0.0
C624 C 0.62693 0.21381 0.69445 0.0
C625 C 0.58311 0.24123 0.70639 0.0
C626 C 0.57003 0.29976 0.72236 0.0
H627 H 0.57398 0.24799 0.77162 0.0
H628 H 0.60623 0.25679 0.75562 0.0
H629 H 0.53243 0.31833 0.73385 0.0
H630 H 0.68259 0.23756 0.69481 0.0
H631 H 0.66898 0.28171 0.70849 0.0
H632 H 0.65944 0.27051 0.72642 0.0
C633 C 0.58495 0.27682 0.75775 0.0
C634 C 0.56079 0.30947 0.73231 0.0
C635 C 0.56635 0.27161 0.76695 0.0
C636 C 0.65444 0.23896 0.6978 0.0
C637 C 0.64675 0.26397 0.7057 0.0
C638 C 0.63211 0.28238 0.72786 0.0
C639 C 0.57354 0.30498 0.75098 0.0
C640 C 0.58657 0.30416 0.74025 0.0
C641 C 0.61139 0.26432 0.71035 0.0
C642 C 0.6051 0.28418 0.72012 0.0
H643 H 0.5035 0.34268 0.76517 0.0
H644 H 0.53655 0.35251 0.74919 0.0
H645 H 0.64379 0.2888 0.74369 0.0
H646 H 0.56903 0.19741 0.69603 0.0
H647 H 0.55565 0.24039 0.70983 0.0
C648 C 0.30858 0.98715 0.00052 0.0
C649 C 0.29873 1.00315 0.0099 0.0
C650 C 0.30486 0.00736 -0.00846 0.0
C651 C 0.29283 0.10297 0.9815 0.0
H652 H 0.24348 0.05256 0.95915 0.0
C653 C 0.20243 0.17691 0.95227 0.0
C654 C 0.19994 0.16287 0.94236 0.0
C655 C 0.22543 0.15969 0.95937 0.0
C656 C 0.25818 0.06686 0.9652 0.0
H657 H 0.2778 0.05325 0.0172 0.0
H658 H 0.2703 0.08828 0.00149 0.0
H659 H 0.26151 0.01721 0.9741 0.0
H660 H 0.22098 0.12164 0.93179 0.0
H661 H 0.2615 0.09097 0.94431 0.0
H662 H 0.28797 0.15297 0.97273 0.0
C663 C 0.2815 0.06022 0.00111 0.0
C664 C 0.26838 0.04662 0.9738 0.0
C665 C 0.28525 0.03997 0.0101 0.0
C666 C 0.22261 0.13282 0.93942 0.0
C667 C 0.24552 0.11527 0.94658 0.0
C668 C 0.28263 0.12323 0.9729 0.0
C669 C 0.29111 0.04404 -0.00826 0.0
C670 C 0.28479 0.06467 0.98216 0.0
C671 C 0.24622 0.12789 0.9567 0.0
C672 C 0.26414 0.10558 0.9648 0.0
H673 H 0.31865 0.95872 6e-05 0.0
H674 H 0.31266 0.99421 0.98445 0.0
H675 H 0.30615 0.11746 0.98775 0.0
H676 H 0.1852 0.20023 0.95465 0.0
H677 H 0.22496 0.16986 0.96711 0.0
C678 C 0.0336 0.74315 0.96637 0.0
C679 C 0.01134 0.71082 0.96654 0.0
C680 C 0.06046 0.74935 0.97386 0.0
C681 C 0.08009 0.72719 0.00033 0.0
H682 H 0.17364 0.77735 -0.00545 0.0
C683 C 0.15388 0.82472 0.02844 0.0
C684 C 0.19303 0.82725 0.02833 0.0
C685 C 0.13534 0.80105 0.02169 0.0
C686 C 0.14799 0.76271 -0.00368 0.0
H687 H 1.00141 0.65879 0.9745 0.0
H688 H 0.04807 0.66998 0.98766 0.0
H689 H 0.1359 0.75331 0.98061 0.0
H690 H 0.24359 0.80546 0.02146 0.0
H691 H 0.21115 0.76374 0.00971 0.0
H692 H 0.09174 0.73749 0.01603 0.0
C693 C 0.04434 0.69062 0.98175 0.0
C694 C 0.12617 0.74932 0.98832 0.0
C695 C 0.01755 0.68429 0.97422 0.0
C696 C 0.21339 0.80394 0.02176 0.0
C697 C 0.19482 0.78034 0.01496 0.0
C698 C 0.10187 0.7407 0.00833 0.0
C699 C 0.06572 0.72348 0.98173 0.0
C700 C 0.09148 0.73239 -0.00978 0.0
C701 C 0.15556 0.77946 0.01466 0.0
C702 C 0.13555 0.75954 0.0064 0.0
H703 H 0.02939 0.76454 0.96071 0.0
H704 H 0.07602 0.77526 0.97371 0.0
H705 H 0.05341 0.71443 0.00204 0.0
H706 H 0.13751 0.84218 0.03348 0.0
H707 H 0.10509 0.80131 0.02161 0.0
C708 C 0.79672 0.85818 0.95761 0.0
C709 C 0.81535 0.8273 0.96169 0.0
C710 C 0.77767 0.88287 0.96399 0.0
C711 C 0.78176 0.91407 -0.00945 0.0
H712 H 0.69999 0.97809 0.98221 0.0
C713 C 0.73719 0.0378 0.01505 0.0
C714 C 0.73738 0.07196 0.00982 0.0
C715 C 0.73695 1.00411 0.00974 0.0
C716 C 0.7227 0.96024 0.98464 0.0
H717 H 0.82696 0.79599 0.97534 0.0
H718 H 0.79223 0.83809 0.9865 0.0
H719 H 0.71641 0.92367 0.97188 0.0
H720 H 0.73514 0.09749 -0.00507 0.0
H721 H 0.73469 0.03854 0.98564 0.0
H722 H 0.78855 0.95088 0.00316 0.0
C723 C 0.79318 0.84415 0.97845 0.0
C724 C 0.73221 0.92919 0.97873 0.0
C725 C 0.81278 0.81989 0.9721 0.0
C726 C 0.73492 0.07168 -0.00082 0.0
C727 C 0.73455 0.03792 -0.00614 0.0
C728 C 0.772 0.94475 -0.00352 0.0
C729 C 0.77666 0.87676 0.97454 0.0
C730 C 0.76251 0.90629 0.98148 0.0
C731 C 0.73668 1.00386 -0.00091 0.0
C732 C 0.743 0.96865 -0.00653 0.0
H733 H 0.79874 0.86435 0.94958 0.0
H734 H 0.76573 0.90784 0.9607 0.0
H735 H 0.80574 0.89768 -0.00718 0.0
H736 H 0.73798 0.03705 0.02326 0.0
H737 H 0.73802 0.97821 0.01396 0.0
C738 C 0.88879 0.29366 0.01378 0.0
C739 C 0.8503 0.28676 0.01431 0.0
C740 C 0.9034 0.31508 0.0059 0.0
C741 C 0.88552 0.32748 0.97951 0.0
H742 H 0.97483 0.38838 0.98091 0.0
C743 C 0.98643 0.33132 0.94593 0.0
C744 C 0.02312 0.32264 0.94894 0.0
C745 C 0.96013 0.34341 0.95309 0.0
C746 C 0.94971 0.37165 0.98036 0.0
H747 H 0.79652 0.29851 0.00749 0.0
H748 H 0.82227 0.33552 -0.00648 0.0
H749 H 0.93634 0.38022 -0.00395 0.0
H750 H 0.06124 0.32177 0.96174 0.0
H751 H 0.0159 0.34223 0.97408 0.0
H752 H 0.90044 0.31599 0.96414 0.0
C753 C 0.84101 0.32468 -0.00075 0.0
C754 C 0.92765 0.36716 -0.01099 0.0
C755 C 0.82632 0.30367 0.00724 0.0
C756 C 0.03345 0.32851 0.9591 0.0
C757 C 0.00731 0.34051 0.96621 0.0
C758 C 0.90778 0.33164 0.97089 0.0
C759 C 0.87981 0.32951 -0.00167 0.0
C760 C 0.89645 0.34346 0.98879 0.0
C761 C 0.97004 0.34706 0.96337 0.0
C762 C 0.94127 0.35205 0.97139 0.0
H763 H 0.90773 0.28092 0.01917 0.0
H764 H 0.93346 0.31793 0.00532 0.0
H765 H 0.86173 0.30887 0.97912 0.0
H766 H 0.97775 0.32791 0.93812 0.0
H767 H 0.93175 0.34869 0.95063 0.0
C768 C 0.72972 0.83562 0.75839 0.0
C769 C 0.72457 0.79736 0.75661 0.0
C770 C 0.74979 0.8573 0.75154 0.0
C771 C 0.76726 0.86222 0.72472 0.0
H772 H 0.82473 0.9493 0.73262 0.0
C773 C 0.78191 0.98389 0.69734 0.0
C774 C 0.77039 0.01775 0.70175 0.0
C775 C 0.79207 0.95373 0.70344 0.0
C776 C 0.809 0.92496 0.73027 0.0
H777 H 0.73771 0.7512 0.74659 0.0
H778 H 0.77255 0.78951 0.7344 0.0
H779 H 0.81348 0.89968 0.74493 0.0
H780 H 0.76308 0.04743 0.71595 0.0
H781 H 0.78016 0.99489 0.72659 0.0
H782 H 0.76037 0.88841 0.71033 0.0
C783 C 0.7611 0.80258 0.74114 0.0
C784 C 0.80265 0.89656 0.7373 0.0
C785 C 0.74126 0.78073 0.74808 0.0
C786 C 0.77196 0.02177 0.71233 0.0
C787 C 0.78194 0.9916 0.71843 0.0
C788 C 0.77348 0.89064 0.71771 0.0
C789 C 0.76496 0.84121 0.74273 0.0
C790 C 0.78019 0.86582 0.73473 0.0
C791 C 0.79077 0.95683 0.71406 0.0
C792 C 0.79286 0.92314 0.72056 0.0
H793 H 0.71754 0.84895 0.765 0.0
H794 H 0.75178 0.88705 0.75291 0.0
H795 H 0.74963 0.839 0.72254 0.0
H796 H 0.78186 0.98029 0.6892 0.0
H797 H 0.79941 0.92752 0.69984 0.0
C798 C 0.79051 0.36525 0.22844 0.0
C799 C 0.76731 0.3458 0.22165 0.0
C800 C 0.80922 0.34638 0.2362 0.0
C801 C 0.84176 0.25159 0.24301 0.0
H802 H 0.8653 0.29986 0.26856 0.0
C803 C 0.96275 0.20323 0.2684 0.0
C804 C 0.96061 0.20893 0.27893 0.0
C805 C 0.9341 0.21555 0.26206 0.0
C806 C 0.85847 0.28557 0.26155 0.0
H807 H 0.7451 0.29108 0.21788 0.0
H808 H 0.77613 0.25868 0.23165 0.0
H809 H 0.82355 0.33049 0.25667 0.0
H810 H 0.92588 0.22966 0.29114 0.0
H811 H 0.87511 0.25025 0.2801 0.0
H812 H 0.87604 0.20633 0.24799 0.0
C813 C 0.78066 0.2884 0.23085 0.0
C814 C 0.83496 0.30349 0.25465 0.0
C815 C 0.76234 0.30718 0.22302 0.0
C816 C 0.92832 0.22532 0.28304 0.0
C817 C 0.89942 0.23729 0.2767 0.0
C818 C 0.8649 0.23349 0.24997 0.0
C819 C 0.80487 0.30761 0.23742 0.0
C820 C 0.82695 0.2871 0.24519 0.0
C821 C 0.90243 0.2335 0.2661 0.0
C822 C 0.87425 0.25061 0.25923 0.0
H823 H 0.79458 0.39507 0.22773 0.0
H824 H 0.82794 0.3621 0.24103 0.0
H825 H 0.83657 0.23818 0.23578 0.0
H826 H 0.98753 0.19121 0.26501 0.0
H827 H 0.93776 0.21264 0.25394 0.0
C828 C 0.15821 0.01275 0.73051 0.0
C829 C 0.16586 0.0196 0.72021 0.0
C830 C 0.17546 0.03399 0.73808 0.0
C831 C 0.21048 0.09114 0.75273 0.0
H832 H 0.31735 0.09404 0.74789 0.0
C833 C 0.32115 0.16388 0.77872 0.0
C834 C 0.35385 0.14307 0.78053 0.0
C835 C 0.29398 0.15068 0.77198 0.0
C836 C 0.28756 0.0934 0.74935 0.0
H837 H 0.19433 0.05666 0.70979 0.0
H838 H 0.22478 0.09344 0.72301 0.0
H839 H 0.27579 0.07152 0.73461 0.0
H840 H 0.38225 0.0909 0.77726 0.0
H841 H 0.33521 0.06833 0.76537 0.0
H842 H 0.22275 0.11271 0.76759 0.0
C843 C 0.20595 0.07122 0.72521 0.0
C844 C 0.26372 0.08097 0.74171 0.0
C845 C 0.1886 0.05013 0.71765 0.0
C846 C 0.35782 0.10798 0.77586 0.0
C847 C 0.3309 0.09501 0.76908 0.0
C848 C 0.23442 0.1041 0.76037 0.0
C849 C 0.20071 0.06238 0.73549 0.0
C850 C 0.22499 0.07928 0.74335 0.0
C851 C 0.29921 0.11665 0.76688 0.0
C852 C 0.27323 0.10468 0.75878 0.0
H853 H 0.14102 0.98939 0.73277 0.0
H854 H 0.17104 0.02646 0.74595 0.0
H855 H 0.18071 0.09011 0.75418 0.0
H856 H 0.31736 0.19117 0.78211 0.0
H857 H 0.26981 0.1679 0.77038 0.0
C858 C 0.14627 0.68797 0.20349 0.0
C859 C 0.16226 0.65238 0.20447 0.0
C860 C 0.13814 0.70935 0.2121 0.0
C861 C 0.1207 0.69781 0.23955 0.0
H862 H 0.12318 0.80604 0.2397 0.0
C863 C 0.06573 0.77535 0.27385 0.0
C864 C 0.03628 0.79974 0.27134 0.0
C865 C 0.0912 0.76375 0.26647 0.0
C866 C 0.12257 0.77582 0.23977 0.0
H867 H 0.18422 0.612 0.21513 0.0
H868 H 0.171 0.64948 0.23014 0.0
H869 H 0.14768 0.77179 0.22505 0.0
H870 H 0.0153 0.83632 0.2595 0.0
H871 H 0.05908 0.81535 0.24661 0.0
H872 H 0.09505 0.70164 0.25412 0.0
C873 C 0.16351 0.66055 0.22277 0.0
C874 C 0.13635 0.75618 0.23137 0.0
C875 C 0.17112 0.63904 0.21418 0.0
C876 C 0.03644 0.81626 0.26164 0.0
C877 C 0.06193 0.80459 0.25425 0.0
C878 C 0.10731 0.71735 0.24795 0.0
C879 C 0.14632 0.69571 0.22187 0.0
C880 C 0.13494 0.71692 0.23109 0.0
C881 C 0.08807 0.77651 0.25645 0.0
C882 C 0.10748 0.75656 0.2481 0.0
H883 H 0.13917 0.69884 0.19607 0.0
H884 H 0.12443 0.73603 0.21111 0.0
H885 H 0.11836 0.66768 0.23955 0.0
H886 H 0.06771 0.76278 0.28127 0.0
H887 H 0.11184 0.74288 0.26846 0.0
C888 C 0.82109 0.56909 0.52729 0.0
C889 C 0.81107 0.5645 0.53752 0.0
C890 C 0.81437 0.60282 0.52235 0.0
C891 C 0.80188 0.67967 0.51347 0.0
H892 H 0.69759 0.70521 0.51745 0.0
C893 C 0.72039 0.77066 0.48491 0.0
C894 C 0.68856 0.75187 0.48125 0.0
C895 C 0.73842 0.75851 0.49372 0.0
C896 C 0.72691 0.69885 0.51635 0.0
H897 H 0.79026 0.59326 0.55089 0.0
H898 H 0.77794 0.65203 0.54219 0.0
H899 H 0.72872 0.66435 0.52953 0.0
H900 H 0.65032 0.7061 0.48423 0.0
H901 H 0.68106 0.68577 0.49963 0.0
H902 H 0.7991 0.71217 0.49987 0.0
C903 C 0.7904 0.62923 0.53797 0.0
C904 C 0.74488 0.67572 0.52331 0.0
C905 C 0.79727 0.59549 0.54293 0.0
C906 C 0.67425 0.7218 0.48688 0.0
C907 C 0.69193 0.71004 0.49573 0.0
C908 C 0.7839 0.70299 0.50652 0.0
C909 C 0.79746 0.63271 0.52753 0.0
C910 C 0.78205 0.6645 0.52169 0.0
C911 C 0.7246 0.72775 0.49913 0.0
C912 C 0.74578 0.71131 0.50766 0.0
H913 H 0.83165 0.54589 0.52287 0.0
H914 H 0.81981 0.60443 0.51428 0.0
H915 H 0.83067 0.67181 0.51209 0.0
H916 H 0.73178 0.79439 0.48089 0.0
H917 H 0.76348 0.77273 0.49623 0.0
C918 C 0.58352 0.20332 0.46345 0.0
C919 C 0.57257 0.2324 0.45696 0.0
C920 C 0.60645 0.21058 0.47182 0.0
C921 C 0.6681 0.2836 0.48301 0.0
H922 H 0.63922 0.23907 0.50861 0.0
C923 C 0.67474 0.32301 0.52786 0.0
C924 C 0.71033 0.33955 0.52822 0.0
C925 C 0.66338 0.30282 0.51933 0.0
C926 C 0.64759 0.25183 0.50153 0.0
H927 H 0.57703 0.29189 0.45418 0.0
H928 H 0.61632 0.3046 0.46871 0.0
H929 H 0.60946 0.21828 0.49298 0.0
H930 H 0.76255 0.34598 0.51999 0.0
H931 H 0.74348 0.30925 0.50543 0.0
H932 H 0.70416 0.31902 0.49154 0.0
C933 C 0.60823 0.27597 0.46724 0.0
C934 C 0.63091 0.23951 0.49254 0.0
C935 C 0.58559 0.26869 0.45888 0.0
C936 C 0.735 0.33354 0.52006 0.0
C937 C 0.72385 0.31287 0.5116 0.0
C938 C 0.68442 0.2962 0.49198 0.0
C939 C 0.61868 0.24712 0.47388 0.0
C940 C 0.64023 0.25602 0.4832 0.0
C941 C 0.68752 0.29819 0.51099 0.0
C942 C 0.67372 0.28114 0.50139 0.0
H943 H 0.57413 0.17504 0.46208 0.0
H944 H 0.61433 0.18766 0.47672 0.0
H945 H 0.67648 0.2964 0.47593 0.0
H946 H 0.65525 0.32623 0.53408 0.0
H947 H 0.63508 0.29222 0.51912 0.0
C948 C 0.27696 0.51903 0.51272 0.0
C949 C 0.24455 0.50599 0.51754 0.0
C950 C 0.29243 0.49943 0.50461 0.0
C951 C 0.27233 0.42689 0.48528 0.0
H952 H 0.38047 0.42222 0.48397 0.0
C953 C 0.35791 0.33261 0.45756 0.0
C954 C 0.38873 0.34986 0.4529 0.0
C955 C 0.3374 0.35147 0.46502 0.0
C956 C 0.35024 0.42353 0.48419 0.0
H957 H 0.2026 0.46252 0.5176 0.0
H958 H 0.23015 0.42749 0.50349 0.0
H959 H 0.3506 0.4545 0.49803 0.0
H960 H 0.42054 0.40126 0.4519 0.0
H961 H 0.38523 0.43377 0.46501 0.0
H962 H 0.27241 0.39505 0.47146 0.0
C963 C 0.24325 0.45328 0.50588 0.0
C964 C 0.33308 0.44212 0.49224 0.0
C965 C 0.22752 0.4732 0.51397 0.0
C966 C 0.39755 0.38686 0.45553 0.0
C967 C 0.3773 0.40552 0.46301 0.0
C968 C 0.2896 0.40789 0.47726 0.0
C969 C 0.27612 0.46602 0.50117 0.0
C970 C 0.29394 0.44454 0.49281 0.0
C971 C 0.34755 0.38776 0.46798 0.0
C972 C 0.32873 0.40655 0.47658 0.0
H973 H 0.29016 0.5447 0.51516 0.0
H974 H 0.31715 0.51063 0.50099 0.0
H975 H 0.24213 0.42846 0.48545 0.0
H976 H 0.35055 0.30404 0.45576 0.0
H977 H 0.31464 0.33714 0.46878 0.0
C978 C 0.33988 0.71192 0.5163 0.0
C979 C 0.30486 0.69448 0.51567 0.0
C980 C 0.3539 0.73205 0.5081 0.0
C981 C 0.37144 0.78584 0.49115 0.0
H982 H 0.37051 0.73333 0.46539 0.0
C983 C 0.46428 0.83471 0.45843 0.0
C984 C 0.48731 0.80598 0.4547 0.0
C985 C 0.43244 0.82634 0.46414 0.0
C986 C 0.37069 0.74853 0.4725 0.0
H987 H 0.25662 0.6851 0.50605 0.0
H988 H 0.28125 0.72044 0.49165 0.0
H989 H 0.33312 0.70991 0.47949 0.0
H990 H 0.49329 0.74577 0.45352 0.0
H991 H 0.43818 0.73135 0.46335 0.0
H992 H 0.41082 0.82305 0.48441 0.0
C993 C 0.2978 0.71844 0.49851 0.0
C994 C 0.34904 0.73531 0.48055 0.0
C995 C 0.28364 0.69845 0.50676 0.0
C996 C 0.47623 0.76872 0.45616 0.0
C997 C 0.44442 0.76038 0.46182 0.0
C998 C 0.39303 0.79907 0.48311 0.0
C999 C 0.33328 0.73508 0.49906 0.0
C1000 C 0.35034 0.75303 0.49007 0.0
C1001 C 0.4229 0.78905 0.46617 0.0
C1002 C 0.39398 0.77974 0.47382 0.0
H1003 H 0.35665 0.70963 0.52311 0.0
H1004 H 0.38155 0.7441 0.50872 0.0
H1005 H 0.37252 0.80038 0.49836 0.0
H1006 H 0.47158 0.86368 0.45726 0.0
H1007 H 0.41605 0.84903 0.46726 0.0
C1008 C 0.07446 0.13052 0.32777 0.0
C1009 C 0.05172 0.154 0.32191 0.0
C1010 C 0.06304 0.0942 0.33006 0.0
C1011 C 0.98367 0.02616 0.3271 0.0
H1012 H 0.06489 0.95519 0.32441 0.0
C1013 C 1.00645 0.86456 0.31303 0.0
C1014 C 0.97238 0.84994 0.31641 0.0
C1015 C 0.01796 0.90014 0.31618 0.0
C1016 C 0.04177 0.97451 0.32511 0.0
H1017 H 0.99857 0.15883 0.31424 0.0
H1018 H 0.97888 0.09524 0.31791 0.0
H1019 H 0.07855 0.02129 0.32538 0.0
H1020 H 0.92498 0.8592 0.32627 0.0
H1021 H 0.94608 0.91988 0.33235 0.0
H1022 H 0.94674 0.97966 0.32598 0.0
C1023 C 1.00508 0.10484 0.32107 0.0
C1024 C 0.04965 0.01267 0.32587 0.0
C1025 C 0.01621 0.14152 0.31899 0.0
C1026 C 0.95145 0.87 0.32358 0.0
C1027 C 0.96331 0.90507 0.32692 0.0
C1028 C 0.97576 0.98807 0.32617 0.0
C1029 C 0.02908 0.08011 0.32626 0.0
C1030 C 0.02068 0.03919 0.3267 0.0
C1031 C 0.99584 0.92149 0.32291 0.0
C1032 C 1.00467 0.96165 0.32499 0.0
H1033 H 0.10213 0.13952 0.33004 0.0
H1034 H 0.08182 0.07659 0.33436 0.0
H1035 H 0.96056 0.04544 0.3279 0.0
H1036 H 0.02266 0.84985 0.30734 0.0
H1037 H 0.04296 0.91171 0.31281 0.0
C1038 C 0.07873 0.98197 0.67517 0.0
C1039 C 0.09066 0.94517 0.67351 0.0
C1040 C 0.04308 0.99337 0.67198 0.0
C1041 C 0.9691 0.0156 0.66235 0.0
H1042 H 0.89216 0.93972 0.66399 0.0
C1043 C 0.81621 0.05389 0.65423 0.0
C1044 C 0.78872 0.03799 0.66047 0.0
C1045 C 0.85258 0.03969 0.6541 0.0
C1046 C 0.91311 0.96143 0.66357 0.0
H1047 H 0.07623 0.89227 0.66662 0.0
H1048 H 0.01541 0.91258 0.66048 0.0
H1049 H 0.95673 0.923 0.66713 0.0
H1050 H 0.7771 0.9933 0.67099 0.0
H1051 H 0.8409 0.96929 0.67119 0.0
H1052 H 0.92523 0.05453 0.65949 0.0
C1053 C 0.03242 0.93237 0.66463 0.0
C1054 C 0.95052 0.95167 0.6652 0.0
C1055 C 0.06758 0.92083 0.668 0.0
C1056 C 0.79771 1.00604 0.6661 0.0
C1057 C 0.83444 0.99228 0.66617 0.0
C1058 C 0.93163 0.02546 0.66087 0.0
C1059 C 0.01892 0.96833 0.66693 0.0
C1060 C 0.97916 0.97862 0.66466 0.0
C1061 C 0.86276 0.00973 0.66042 0.0
C1062 C 0.90296 0.99857 0.66149 0.0
H1063 H 0.09576 1.00106 0.67956 0.0
H1064 H 0.03383 0.02117 0.674 0.0
H1065 H 0.99013 0.03717 0.66173 0.0
H1066 H 0.80997 0.07844 0.64974 0.0
H1067 H 0.87299 0.05313 0.64927 0.0
C1068 C 0.98622 0.62868 0.92258 0.0
C1069 C 0.95007 0.64129 0.92035 0.0
C1070 C 0.99779 0.59305 0.91942 0.0
C1071 C 0.95618 0.50184 0.91165 0.0
H1072 H 0.05945 0.4753 0.90675 0.0
C1073 C 0.05713 0.36689 0.90063 0.0
C1074 C 0.04053 0.33946 0.90673 0.0
C1075 C 0.04353 0.40345 0.90062 0.0
C1076 C 0.0303 0.48213 0.90791 0.0
H1077 H 0.8987 0.62823 0.91245 0.0
H1078 H 0.91939 0.56741 0.90643 0.0
H1079 H 0.04277 0.54034 0.90926 0.0
H1080 H 0.99561 0.32826 0.91728 0.0
H1081 H 0.9724 0.39228 0.91757 0.0
H1082 H 0.94353 0.44379 0.91002 0.0
C1083 C 0.93843 0.58386 0.91099 0.0
C1084 C 0.02082 0.51959 0.90953 0.0
C1085 C 0.92669 0.61897 0.91432 0.0
C1086 C 0.00864 0.34874 0.9124 0.0
C1087 C 0.99542 0.38559 0.91256 0.0
C1088 C 0.96558 0.46445 0.90991 0.0
C1089 C 0.97356 0.56968 0.91383 0.0
C1090 C 0.98366 0.53001 0.91152 0.0
C1091 C 0.01348 0.41376 0.90692 0.0
C1092 C 1.00285 0.45394 0.90812 0.0
H1093 H 1.00453 0.64521 0.92735 0.0
H1094 H 0.02494 0.58318 0.92184 0.0
H1095 H 0.92732 0.5084 0.91334 0.0
H1096 H 0.08175 0.36042 0.89617 0.0
H1097 H 0.05749 0.4239 0.89593 0.0
C1098 C 0.67189 0.08619 0.04714 0.0
C1099 C 0.67877 0.12276 0.05046 0.0
C1100 C 0.63693 0.06957 0.04886 0.0
C1101 C 0.56369 0.03498 0.05611 0.0
H1102 H 0.47887 0.10224 0.05488 0.0
C1103 C 0.41411 0.98075 0.06252 0.0
C1104 C 0.38536 0.99554 0.05649 0.0
C1105 C 0.44941 0.99734 0.06271 0.0
C1106 C 0.50211 0.08292 0.05515 0.0
H1107 H 0.65592 0.16969 0.05876 0.0
H1108 H 0.59612 0.14024 0.06227 0.0
H1109 H 0.54166 0.12697 0.05337 0.0
H1110 H 0.37074 0.03993 0.0461 0.0
H1111 H 0.43269 0.06854 0.04619 0.0
H1112 H 0.52398 0.9907 0.05734 0.0
C1113 C 0.61668 0.12472 0.05796 0.0
C1114 C 0.53839 0.09722 0.05446 0.0
C1115 C 0.65118 0.14148 0.05607 0.0
C1116 C 0.39225 0.02817 0.05092 0.0
C1117 C 0.42786 0.04452 0.05098 0.0
C1118 C 0.52736 0.02062 0.05669 0.0
C1119 C 0.60845 0.08908 0.05406 0.0
C1120 C 0.56978 0.07351 0.05496 0.0
C1121 C 0.4572 0.02886 0.05673 0.0
C1122 C 0.49599 0.04438 0.05624 0.0
H1123 H 0.69255 0.07143 0.04266 0.0
H1124 H 0.63172 0.04221 0.04567 0.0
H1125 H 0.58698 0.01578 0.05661 0.0
H1126 H 0.40954 0.95576 0.06696 0.0
H1127 H 0.47076 0.98503 0.06747 0.0
C1128 C 0.55307 0.33192 0.80882 0.0
C1129 C 0.52208 0.32114 0.81463 0.0
C1130 C 0.56727 0.3683 0.8096 0.0
C1131 C 0.53626 0.46323 0.8178 0.0
H1132 H 0.63821 0.48897 0.81101 0.0
C1133 C 0.64137 0.59914 0.81145 0.0
C1134 C 0.61653 0.62292 0.80637 0.0
C1135 C 0.62981 0.56392 0.81473 0.0
C1136 C 0.60972 0.48253 0.81313 0.0
H1137 H 0.48339 0.33865 0.82632 0.0
H1138 H 0.50943 0.40105 0.82818 0.0
H1139 H 0.62113 0.42394 0.81292 0.0
H1140 H 0.55986 0.62938 0.801 0.0
H1141 H 0.53964 0.56746 0.8064 0.0
H1142 H 0.52511 0.52187 0.8183 0.0
C1143 C 0.52193 0.38234 0.82268 0.0
C1144 C 0.59975 0.44492 0.81404 0.0
C1145 C 0.5073 0.34635 0.82174 0.0
C1146 C 0.57928 0.6118 0.80511 0.0
C1147 C 0.56783 0.57614 0.80819 0.0
C1148 C 0.54637 0.50086 0.81703 0.0
C1149 C 0.55113 0.39443 0.81633 0.0
C1150 C 0.56272 0.43461 0.81622 0.0
C1151 C 0.59336 0.55114 0.81272 0.0
C1152 C 0.58312 0.51114 0.81451 0.0
H1153 H 0.56456 0.31322 0.80315 0.0
H1154 H 0.5895 0.37641 0.80449 0.0
H1155 H 0.50729 0.45672 0.81934 0.0
H1156 H 0.67034 0.60712 0.81245 0.0
H1157 H 0.65001 0.54617 0.81847 0.0
C1158 C 0.56985 0.3965 0.16634 0.0
C1159 C 0.60117 0.42017 0.16632 0.0
C1160 C 0.53588 0.408 0.16219 0.0
C1161 C 0.48366 0.49466 0.15705 0.0
H1162 H 0.40948 0.42563 0.14661 0.0
C1163 C 0.33459 0.54491 0.14941 0.0
C1164 C 0.30622 0.52324 0.15383 0.0
C1165 C 0.37062 0.5306 0.14818 0.0
C1166 C 0.42985 0.44525 0.14953 0.0
H1167 H 0.62197 0.47377 0.16133 0.0
H1168 H 0.56249 0.49391 0.15385 0.0
H1169 H 0.47386 0.40474 0.14902 0.0
H1170 H 0.29276 0.46869 0.15982 0.0
H1171 H 0.35593 0.44338 0.15763 0.0
H1172 H 0.43965 0.53495 0.15773 0.0
C1173 C 0.56412 0.46651 0.15727 0.0
C1174 C 0.46684 0.43331 0.15092 0.0
C1175 C 0.59838 0.45486 0.16144 0.0
C1176 C 0.31388 0.48583 0.15624 0.0
C1177 C 0.35019 0.47146 0.15504 0.0
C1178 C 0.44683 0.50663 0.15559 0.0
C1179 C 0.53208 0.44361 0.15786 0.0
C1180 C 0.49413 0.45761 0.15493 0.0
C1181 C 0.37937 0.49428 0.1514 0.0
C1182 C 0.41924 0.48194 0.15198 0.0
H1183 H 0.57104 0.36947 0.17 0.0
H1184 H 0.51205 0.38962 0.16294 0.0
H1185 H 0.50347 0.51409 0.16032 0.0
H1186 H 0.32947 0.57385 0.14748 0.0
H1187 H 0.3921 0.54867 0.14513 0.0
C1188 C 0.56494 0.87274 0.4196 0.0
C1189 C 0.60091 0.85915 0.41758 0.0
C1190 C 0.55392 0.90783 0.41598 0.0
C1191 C 0.59864 0.99717 0.40814 0.0
H1192 H 0.49564 0.02876 0.40574 0.0
C1193 C 0.4994 0.13882 0.40371 0.0
C1194 C 0.51944 0.16296 0.4101 0.0
C1195 C 0.51175 0.10231 0.402 0.0
C1196 C 0.52471 0.02065 0.40617 0.0
H1197 H 0.65261 0.86991 0.40965 0.0
H1198 H 0.63262 0.92968 0.40266 0.0
H1199 H 0.5101 0.96281 0.40655 0.0
H1200 H 0.56873 0.16846 0.41945 0.0
H1201 H 0.58985 0.10442 0.41681 0.0
H1202 H 0.61334 0.05496 0.40747 0.0
C1203 C 0.61321 0.91427 0.40736 0.0
C1204 C 0.53298 0.98252 0.40682 0.0
C1205 C 0.62445 0.87959 0.41116 0.0
C1206 C 0.5532 0.15062 0.41432 0.0
C1207 C 0.56518 0.11372 0.4128 0.0
C1208 C 0.59042 0.03527 0.40732 0.0
C1209 C 0.57858 0.92989 0.41017 0.0
C1210 C 0.57 0.97015 0.40807 0.0
C1211 C 0.5439 0.08858 0.40689 0.0
C1212 C 0.55325 0.04774 0.40657 0.0
H1213 H 0.54674 0.858 0.4248 0.0
H1214 H 0.5272 0.91869 0.41845 0.0
H1215 H 0.62752 0.98918 0.40924 0.0
H1216 H 0.47317 0.14772 0.4004 0.0
H1217 H 0.49515 0.08447 0.39713 0.0
C1218 C 0.13664 0.53204 0.56443 0.0
C1219 C 0.15071 0.56777 0.56645 0.0
C1220 C 0.10147 0.52154 0.56815 0.0
C1221 C 0.02801 0.50168 0.57849 0.0
H1222 H 0.95528 0.58187 0.57742 0.0
C1223 C 0.87261 0.47062 0.58493 0.0
C1224 C 0.84777 0.48728 0.57804 0.0
C1225 C 0.90929 0.48355 0.58586 0.0
C1226 C 0.97511 0.55908 0.57773 0.0
H1227 H 0.14087 0.61956 0.57448 0.0
H1228 H 0.08081 0.60065 0.58149 0.0
H1229 H 0.02087 0.59547 0.57464 0.0
H1230 H 0.84114 0.53203 0.56717 0.0
H1231 H 0.9052 0.55425 0.5686 0.0
H1232 H 0.98191 0.46493 0.58091 0.0
C1233 C 0.09589 0.58106 0.57674 0.0
C1234 C 0.01302 0.56695 0.57629 0.0
C1235 C 0.13059 0.59172 0.57287 0.0
C1236 C 0.85948 0.51894 0.57265 0.0
C1237 C 0.8964 0.53158 0.57346 0.0
C1238 C 0.99004 0.49375 0.57984 0.0
C1239 C 0.07997 0.54654 0.57404 0.0
C1240 C 0.04002 0.53831 0.57652 0.0
C1241 C 0.92223 0.51309 0.57978 0.0
C1242 C 0.96295 0.52227 0.57934 0.0
H1243 H 0.15134 0.51347 0.5593 0.0
H1244 H 0.09018 0.49485 0.56582 0.0
H1245 H 0.04788 0.47892 0.57884 0.0
H1246 H 0.86429 0.44618 0.5892 0.0
H1247 H 0.92794 0.46928 0.59103 0.0
C1248 C 0.99772 0.64519 0.3087 0.0
C1249 C 0.00962 0.65873 0.29922 0.0
C1250 C 0.99814 0.60679 0.31077 0.0
C1251 C 0.99225 0.51671 0.2976 0.0
H1252 H 0.0309 0.47362 0.32241 0.0
C1253 C 0.01737 0.35842 0.30158 0.0
C1254 C 0.01492 0.34144 0.31117 0.0
C1255 C 0.0132 0.39703 0.30052 0.0
C1256 C 0.01928 0.48512 0.31551 0.0
H1257 H 0.0328 0.64242 0.28464 0.0
H1258 H 0.03338 0.57577 0.28826 0.0
H1259 H 0.0324 0.54122 0.32007 0.0
H1260 H 1.00391 0.35191 0.32711 0.0
H1261 H 0.99525 0.4191 0.32521 0.0
H1262 H 0.97842 0.46112 0.29305 0.0
C1263 C 0.02343 0.5948 0.29406 0.0
C1264 C 0.02039 0.52394 0.31416 0.0
C1265 C 0.02345 0.63311 0.29203 0.0
C1266 C 1.00613 0.36396 0.3196 0.0
C1267 C 1.0016 0.40266 0.31853 0.0
C1268 C 0.99067 0.47805 0.299 0.0
C1269 C 0.01008 0.5811 0.30336 0.0
C1270 C 0.00746 0.5401 0.30511 0.0
C1271 C 1.00596 0.4199 0.309 0.0
C1272 C 1.00474 0.46152 0.3079 0.0
H1273 H 0.98723 0.66419 0.31443 0.0
H1274 H 0.98776 0.5971 0.31802 0.0
H1275 H 0.98136 0.52838 0.29062 0.0
H1276 H 0.02417 0.34219 0.29491 0.0
H1277 H 0.01727 0.40901 0.29307 0.0
C1278 C 0.30059 0.98433 0.68951 0.0
C1279 C 0.28013 0.98474 0.6804 0.0
C1280 C 0.3394 0.98936 0.68949 0.0
C1281 C 0.42165 0.98124 0.67234 0.0
H1282 H 0.47337 0.03018 0.6945 0.0
C1283 C 0.58105 0.01341 0.67182 0.0
C1284 C 0.6009 0.00999 0.68099 0.0
C1285 C 0.54215 0.009 0.67157 0.0
C1286 C 0.45942 0.01601 0.68831 0.0
H1287 H 0.28465 0.99291 0.66414 0.0
H1288 H 0.35204 1.00269 0.66413 0.0
H1289 H 0.40533 0.02843 0.69438 0.0
H1290 H 0.59527 0.99735 0.69701 0.0
H1291 H 0.52765 0.98922 0.69654 0.0
H1292 H 0.47589 0.96913 0.66624 0.0
C1293 C 0.33821 0.99743 0.6713 0.0
C1294 C 0.42028 0.01504 0.68823 0.0
C1295 C 0.29937 0.99227 0.67131 0.0
C1296 C 0.58102 1.00022 0.6898 0.0
C1297 C 0.54211 0.99599 0.68956 0.0
C1298 C 0.46081 0.98238 0.6724 0.0
C1299 C 0.35894 0.99519 0.68036 0.0
C1300 C 0.40076 0.9975 0.68026 0.0
C1301 C 0.52203 1.00113 0.68049 0.0
C1302 C 0.48026 0.99961 0.68041 0.0
H1303 H 0.28688 0.97876 0.69666 0.0
H1304 H 0.35422 0.98717 0.69663 0.0
H1305 H 0.4078 0.96686 0.66616 0.0
H1306 H 0.59546 0.02054 0.66487 0.0
H1307 H 0.5277 0.01321 0.66444 0.0
C1308 C 1.00527 0.13274 0.91739 0.0
C1309 C 1.00273 0.15316 0.92649 0.0
C1310 C 1.00147 0.09377 0.91737 0.0
C1311 C 0.01018 0.01267 0.9348 0.0
H1312 H 0.96564 0.95773 0.91252 0.0
C1313 C 0.98232 0.85302 0.93633 0.0
C1314 C 0.98668 0.83209 0.92736 0.0
C1315 C 0.98587 0.89198 0.93625 0.0
C1316 C 0.97864 0.97259 0.91875 0.0
H1317 H 0.99149 0.14865 0.94261 0.0
H1318 H 0.98375 0.08111 0.94254 0.0
H1319 H 0.96547 0.02579 0.91226 0.0
H1320 H 0.99991 0.83601 0.91133 0.0
H1321 H 1.00664 0.90373 0.91123 0.0
H1322 H 0.0232 0.95946 0.94131 0.0
C1323 C 0.98988 0.09499 0.93544 0.0
C1324 C 0.97847 0.01173 0.91861 0.0
C1325 C 0.99378 0.1339 0.93545 0.0
C1326 C 0.99637 0.85107 0.9184 0.0
C1327 C 0.9998 0.89005 0.91831 0.0
C1328 C 0.01027 0.97355 0.93495 0.0
C1329 C 0.99472 0.07421 0.92645 0.0
C1330 C 0.99419 0.03238 0.92664 0.0
C1331 C 0.99381 0.91115 0.92718 0.0
C1332 C 0.99451 0.95292 0.92693 0.0
H1333 H 0.01125 0.14677 0.91031 0.0
H1334 H 1.00532 0.07891 0.91029 0.0
H1335 H 0.02328 0.02745 0.94102 0.0
H1336 H 0.97486 0.83948 0.94338 0.0
H1337 H 0.98087 0.90719 0.94323 0.0
C1338 C 0.89175 0.09856 0.03665 0.0
C1339 C 0.87107 0.09598 0.04572 0.0
C1340 C 0.93026 0.09096 0.03654 0.0
C1341 C 0.01205 0.09039 0.0536 0.0
H1342 H 0.05991 0.02948 0.03302 0.0
C1343 C 0.15605 0.02392 0.0597 0.0
C1344 C 0.17983 0.01655 0.05146 0.0
C1345 C 0.12094 0.03996 0.05823 0.0
C1346 C 0.04722 0.04723 0.03872 0.0
H1347 H 0.8748 0.0822 0.06171 0.0
H1348 H 0.94157 0.06904 0.0615 0.0
H1349 H 0.99294 0.04251 0.03187 0.0
H1350 H 0.18612 0.02181 0.0352 0.0
H1351 H 0.12451 0.05068 0.03256 0.0
H1352 H 0.06594 0.09526 0.06048 0.0
C1353 C 0.92812 0.07727 0.05448 0.0
C1354 C 0.00871 0.0545 0.03809 0.0
C1355 C 0.88967 0.08445 0.05458 0.0
C1356 C 0.16862 0.02773 0.04171 0.0
C1357 C 0.13306 0.04367 0.0402 0.0
C1358 C 0.05047 0.08344 0.05419 0.0
C1359 C 0.94908 0.08103 0.04551 0.0
C1360 C 0.99048 0.07543 0.04566 0.0
C1361 C 0.10831 0.04901 0.04843 0.0
C1362 C 0.06853 0.06096 0.04691 0.0
H1363 H 0.87836 0.10716 0.02968 0.0
H1364 H 0.94551 0.0941 0.0295 0.0
H1365 H 0.99912 0.10738 0.05944 0.0
H1366 H 0.16379 0.01521 0.06729 0.0
H1367 H 0.10281 0.04305 0.06475 0.0
C1368 C 0.56132 0.11879 0.80427 0.0
C1369 C 0.55596 0.13425 0.79458 0.0
C1370 C 0.56711 0.08029 0.80545 0.0
C1371 C 0.54625 0.99137 0.79257 0.0
H1372 H 0.61923 0.9484 0.81085 0.0
C1373 C 0.57978 0.83345 0.79238 0.0
C1374 C 0.59095 0.81598 0.80143 0.0
C1375 C 0.57399 0.87208 0.79201 0.0
C1376 C 0.59821 0.95982 0.80584 0.0
H1377 H 0.55432 0.1215 0.77849 0.0
H1378 H 0.56458 0.05467 0.78054 0.0
H1379 H 0.61436 0.01614 0.80932 0.0
H1380 H 0.60277 0.82557 0.81736 0.0
H1381 H 0.59142 0.89266 0.81681 0.0
H1382 H 0.5295 0.93545 0.78918 0.0
C1383 C 0.56384 0.07217 0.78725 0.0
C1384 C 0.5956 0.99876 0.80492 0.0
C1385 C 0.55841 0.11061 0.78607 0.0
C1386 C 0.59432 0.83799 0.81024 0.0
C1387 C 0.58826 0.87667 0.80989 0.0
C1388 C 0.54857 0.95254 0.79355 0.0
C1389 C 0.5674 0.05637 0.79697 0.0
C1390 C 0.56987 0.01501 0.79819 0.0
C1391 C 0.57874 0.89444 0.80072 0.0
C1392 C 0.57487 0.93607 0.80011 0.0
H1393 H 0.56007 0.13635 0.81096 0.0
H1394 H 0.56986 0.06906 0.81304 0.0
H1395 H 0.52557 1.00296 0.78747 0.0
H1396 H 0.57635 0.81747 0.78547 0.0
H1397 H 0.567 0.88448 0.78477 0.0
C1398 C 0.81624 0.46191 0.17671 0.0
C1399 C 0.79657 0.44571 0.16857 0.0
C1400 C 0.85494 0.46789 0.1761 0.0
C1401 C 0.93927 0.43589 0.16183 0.0
H1402 H 0.98613 0.52162 0.17448 0.0
C1403 C 0.09554 0.47409 0.15549 0.0
C1404 C 0.11576 0.48933 0.16367 0.0
C1405 C 0.05706 0.46724 0.15631 0.0
C1406 C 0.97362 0.49722 0.17101 0.0
H1407 H 0.80241 0.4246 0.15321 0.0
H1408 H 0.86937 0.4358 0.15206 0.0
H1409 H 0.91846 0.51463 0.17522 0.0
H1410 H 0.11104 0.50788 0.17929 0.0
H1411 H 0.04431 0.49561 0.18075 0.0
H1412 H 0.99446 0.41865 0.15756 0.0
C1413 C 0.85513 0.44306 0.15904 0.0
C1414 C 0.93465 0.49322 0.17143 0.0
C1415 C 0.81649 0.43701 0.15966 0.0
C1416 C 0.09659 0.49623 0.17281 0.0
C1417 C 0.05809 0.48951 0.17362 0.0
C1418 C 0.97823 0.43996 0.16139 0.0
C1419 C 0.87512 0.458 0.16731 0.0
C1420 C 0.91681 0.46251 0.16683 0.0
C1421 C 0.03759 0.47552 0.16533 0.0
C1422 C 0.99602 0.47069 0.16597 0.0
H1423 H 0.80192 0.46936 0.18366 0.0
H1424 H 0.86916 0.47928 0.18266 0.0
H1425 H 0.92684 0.41146 0.15836 0.0
H1426 H 0.10919 0.46851 0.14831 0.0
H1427 H 0.04232 0.4567 0.14973 0.0
C1428 C 0.56802 0.63848 0.44396 0.0
C1429 C 0.58069 0.66632 0.4373 0.0
C1430 C 0.5639 0.60163 0.4407 0.0
C1431 C 0.55655 0.53751 0.41896 0.0
H1432 H 0.60581 0.46866 0.43729 0.0
C1433 C 0.56538 0.37823 0.41032 0.0
C1434 C 0.55924 0.35409 0.41857 0.0
C1435 C 0.57079 0.41664 0.41188 0.0
C1436 C 0.59151 0.48726 0.43212 0.0
H1437 H 0.5966 0.67771 0.42176 0.0
H1438 H 0.58866 0.61282 0.41593 0.0
H1439 H 0.60579 0.53508 0.44106 0.0
H1440 H 0.55626 0.35144 0.43497 0.0
H1441 H 0.5648 0.41786 0.43769 0.0
H1442 H 0.54135 0.48944 0.41015 0.0
C1443 C 0.58207 0.61979 0.42373 0.0
C1444 C 0.5916 0.52549 0.43428 0.0
C1445 C 0.58631 0.65698 0.42704 0.0
C1446 C 0.56052 0.36911 0.42843 0.0
C1447 C 0.56576 0.4074 0.42999 0.0
C1448 C 0.55611 0.49903 0.41684 0.0
C1449 C 0.57234 0.59146 0.43066 0.0
C1450 C 0.57364 0.55108 0.42783 0.0
C1451 C 0.57028 0.43194 0.42173 0.0
C1452 C 0.57313 0.47325 0.42348 0.0
H1453 H 0.5633 0.64479 0.45191 0.0
H1454 H 0.55551 0.58071 0.44616 0.0
H1455 H 0.54247 0.55649 0.41384 0.0
H1456 H 0.5645 0.36775 0.40261 0.0
H1457 H 0.57487 0.4344 0.40533 0.0
C1458 C 0.36297 0.53878 0.56839 0.0
C1459 C 0.34181 0.54239 0.55945 0.0
C1460 C 0.40169 0.53293 0.56795 0.0
C1461 C 0.4791 0.50543 0.55038 0.0
H1462 H 0.5411 0.55898 0.56964 0.0
C1463 C 0.6385 0.51681 0.54495 0.0
C1464 C 0.66111 0.51006 0.55349 0.0
C1465 C 0.59989 0.52176 0.54597 0.0
C1466 C 0.5242 0.54359 0.56426 0.0
H1467 H 0.34478 0.54061 0.54302 0.0
H1468 H 0.41198 0.53128 0.54224 0.0
H1469 H 0.47319 0.56321 0.57089 0.0
H1470 H 0.66066 0.5054 0.56989 0.0
H1471 H 0.59331 0.51426 0.57167 0.0
H1472 H 0.53012 0.48626 0.54367 0.0
C1473 C 0.39882 0.53269 0.54963 0.0
C1474 C 0.48516 0.54586 0.56499 0.0
C1475 C 0.36014 0.53838 0.55007 0.0
C1476 C 0.64423 0.51038 0.56314 0.0
C1477 C 0.60554 0.51554 0.56416 0.0
C1478 C 0.51807 0.50336 0.54961 0.0
C1479 C 0.42032 0.53054 0.55856 0.0
C1480 C 0.462 0.52695 0.55803 0.0
C1481 C 0.58274 0.52036 0.55556 0.0
C1482 C 0.54117 0.52256 0.5565 0.0
H1483 H 0.34986 0.54161 0.57576 0.0
H1484 H 0.41706 0.53065 0.575 0.0
H1485 H 0.46238 0.48986 0.54499 0.0
H1486 H 0.65037 0.51694 0.53739 0.0
H1487 H 0.58334 0.52618 0.5392 0.0
C1488 C 0.41172 0.31259 0.38183 0.0
C1489 C 0.4118 0.28675 0.38981 0.0
C1490 C 0.38661 0.3088 0.37381 0.0
C1491 C 0.32 0.244 0.36142 0.0
H1492 H 0.27135 0.33633 0.3536 0.0
C1493 C 0.18531 0.25205 0.33691 0.0
C1494 C 0.18461 0.28001 0.32944 0.0
C1495 C 0.21479 0.25022 0.34384 0.0
C1496 C 0.28497 0.31037 0.35561 0.0
H1497 H 0.38666 0.23597 0.39553 0.0
H1498 H 0.34225 0.22957 0.38158 0.0
H1499 H 0.32049 0.33761 0.36629 0.0
H1500 H 0.21529 0.32661 0.32306 0.0
H1501 H 0.26629 0.32363 0.33518 0.0
H1502 H 0.28361 0.21682 0.35079 0.0
C1503 C 0.36199 0.25245 0.38143 0.0
C1504 C 0.31322 0.3111 0.36286 0.0
C1505 C 0.38738 0.25612 0.38942 0.0
C1506 C 0.21445 0.30537 0.32887 0.0
C1507 C 0.24376 0.30358 0.33579 0.0
C1508 C 0.2915 0.24326 0.35416 0.0
C1509 C 0.36078 0.27927 0.37367 0.0
C1510 C 0.33121 0.27799 0.36581 0.0
C1511 C 0.24398 0.27636 0.34343 0.0
C1512 C 0.27389 0.27651 0.35117 0.0
H1513 H 0.43076 0.33605 0.38187 0.0
H1514 H 0.38697 0.32942 0.36782 0.0
H1515 H 0.33351 0.21807 0.3635 0.0
H1516 H 0.16261 0.23227 0.33756 0.0
H1517 H 0.21417 0.22911 0.34971 0.0
C1518 C 0.18394 0.839 0.65099 0.0
C1519 C 0.21327 0.83199 0.65782 0.0
C1520 C 0.18068 0.81812 0.64205 0.0
C1521 C 0.21531 0.73168 0.62948 0.0
H1522 H 0.20088 0.78764 0.60461 0.0
C1523 C 0.27341 0.6845 0.59118 0.0
C1524 C 0.24947 0.68538 0.58275 0.0
C1525 C 0.2623 0.70008 0.60039 0.0
C1526 C 0.20433 0.77158 0.61151 0.0
H1527 H 0.26091 0.79637 0.66089 0.0
H1528 H 0.25601 0.76092 0.64528 0.0
H1529 H 0.19228 0.81863 0.62098 0.0
H1530 H 0.19546 0.70364 0.57726 0.0
H1531 H 0.17621 0.73187 0.59343 0.0
H1532 H 0.22936 0.68523 0.61997 0.0
C1533 C 0.23521 0.78215 0.64681 0.0
C1534 C 0.19929 0.78922 0.62088 0.0
C1535 C 0.23841 0.80291 0.65571 0.0
C1536 C 0.21431 0.70252 0.58367 0.0
C1537 C 0.20338 0.71869 0.59287 0.0
C1538 C 0.22073 0.71422 0.62013 0.0
C1539 C 0.20662 0.78978 0.63981 0.0
C1540 C 0.20584 0.76973 0.62996 0.0
C1541 C 0.22721 0.71727 0.60132 0.0
C1542 C 0.21629 0.7343 0.61108 0.0
H1543 H 0.16423 0.86134 0.65238 0.0
H1544 H 0.15817 0.82446 0.63684 0.0
H1545 H 0.2197 0.71565 0.63633 0.0
H1546 H 0.30044 0.67105 0.5907 0.0
H1547 H 0.28132 0.69903 0.60678 0.0
C1548 C 0.85966 0.7585 0.33953 0.0
C1549 C 0.88121 0.72719 0.33696 0.0
C1550 C 0.84623 0.76294 0.3494 0.0
C1551 C 0.82655 0.70814 0.37254 0.0
H1552 H 0.81342 0.80612 0.38461 0.0
C1553 C 0.7702 0.72726 0.41298 0.0
C1554 C 0.73824 0.75008 0.41352 0.0
C1555 C 0.79251 0.72707 0.4043 0.0
C1556 C 0.81708 0.77863 0.38131 0.0
H1557 H 0.90714 0.67686 0.34266 0.0
H1558 H 0.88477 0.685 0.35999 0.0
H1559 H 0.84398 0.80034 0.3681 0.0
H1560 H 0.70591 0.79189 0.4054 0.0
H1561 H 0.74541 0.79204 0.39042 0.0
H1562 H 0.79981 0.68653 0.38579 0.0
C1563 C 0.87707 0.70556 0.35435 0.0
C1564 C 0.83431 0.77528 0.37185 0.0
C1565 C 0.88996 0.70086 0.34445 0.0
C1566 C 0.73035 0.77416 0.40536 0.0
C1567 C 0.75297 0.77428 0.39675 0.0
C1568 C 0.80984 0.71148 0.38205 0.0
C1569 C 0.85461 0.73639 0.35692 0.0
C1570 C 0.83874 0.74001 0.36728 0.0
C1571 C 0.78368 0.7501 0.39606 0.0
C1572 C 0.80451 0.74676 0.38644 0.0
H1573 H 0.85237 0.779 0.33384 0.0
H1574 H 0.82848 0.78667 0.35105 0.0
H1575 H 0.82877 0.68062 0.36919 0.0
H1576 H 0.77775 0.70903 0.41918 0.0
H1577 H 0.81637 0.70849 0.40397 0.0
C1578 C 0.6904 0.1208 0.62884 0.0
C1579 C 0.65589 0.10824 0.63265 0.0
C1580 C 0.69254 0.13752 0.61932 0.0
C1581 C 0.63572 0.19974 0.60543 0.0
H1582 H 0.7179 0.20004 0.58628 0.0
C1583 C 0.66515 0.33086 0.5824 0.0
C1584 C 0.70289 0.34085 0.58177 0.0
C1585 C 0.65504 0.29477 0.58524 0.0
C1586 C 0.69479 0.20043 0.59158 0.0
H1587 H 0.59765 0.09892 0.62872 0.0
H1588 H 0.60128 0.1297 0.6123 0.0
H1589 H 0.70878 0.14629 0.59739 0.0
H1590 H 0.75975 0.32145 0.58323 0.0
H1591 H 0.74254 0.25911 0.5889 0.0
H1592 H 0.62361 0.25486 0.60051 0.0
C1593 C 0.62649 0.12669 0.61677 0.0
C1594 C 0.68939 0.16947 0.59784 0.0
C1595 C 0.62441 0.1095 0.62625 0.0
C1596 C 0.73047 0.31409 0.58371 0.0
C1597 C 0.72045 0.27828 0.58682 0.0
C1598 C 0.64152 0.2309 0.59934 0.0
C1599 C 0.66024 0.14226 0.61344 0.0
C1600 C 0.66061 0.16952 0.60506 0.0
C1601 C 0.68255 0.26832 0.58781 0.0
C1602 C 0.67204 0.2323 0.59262 0.0
H1603 H 0.71542 0.12024 0.63342 0.0
H1604 H 0.71889 0.14956 0.61695 0.0
H1605 H 0.6136 0.20072 0.61104 0.0
H1606 H 0.64354 0.35106 0.58068 0.0
H1607 H 0.62562 0.28794 0.58564 0.0
C1608 C 0.14875 0.17455 0.87623 0.0
C1609 C 0.14421 0.20396 0.88321 0.0
C1610 C 0.17942 0.17377 0.86968 0.0
C1611 C 0.25431 0.23007 0.85838 0.0
H1612 H 0.31199 0.13857 0.8599 0.0
C1613 C 0.40223 0.21974 0.8414 0.0
C1614 C 0.41113 0.1866 0.83624 0.0
C1615 C 0.36979 0.22211 0.84726 0.0
C1616 C 0.29602 0.16414 0.85927 0.0
H1617 H 0.16763 0.25696 0.88822 0.0
H1618 H 0.22022 0.25582 0.87667 0.0
H1619 H 0.25246 0.14297 0.86876 0.0
H1620 H 0.39315 0.12989 0.83321 0.0
H1621 H 0.33655 0.13403 0.84327 0.0
H1622 H 0.29754 0.25115 0.84878 0.0
C1623 C 0.20011 0.23327 0.87634 0.0
C1624 C 0.26191 0.16661 0.86433 0.0
C1625 C 0.16972 0.23388 0.88296 0.0
C1626 C 0.38749 0.15556 0.83726 0.0
C1627 C 0.35493 0.158 0.84303 0.0
C1628 C 0.28828 0.22748 0.85321 0.0
C1629 C 0.20586 0.20266 0.86988 0.0
C1630 C 0.24082 0.19961 0.86397 0.0
C1631 C 0.34541 0.19145 0.84799 0.0
C1632 C 0.30961 0.19451 0.85362 0.0
H1633 H 0.12925 0.1515 0.87602 0.0
H1634 H 0.18294 0.15014 0.86463 0.0
H1635 H 0.23844 0.25577 0.85796 0.0
H1636 H 0.42014 0.24397 0.84076 0.0
H1637 H 0.36368 0.24807 0.85115 0.0
C1638 C 0.21685 0.65085 0.13331 0.0
C1639 C 0.18433 0.6515 0.1393 0.0
C1640 C 0.22433 0.67972 0.12652 0.0
C1641 C 0.24389 0.75632 0.1182 0.0
H1642 H 0.16565 0.79611 0.10097 0.0
C1643 C 0.26306 0.88987 0.09429 0.0
C1644 C 0.25062 0.88768 0.0842 0.0
C1645 C 0.25427 0.86164 0.10119 0.0
C1646 C 0.18779 0.78519 0.10571 0.0
H1647 H 0.13408 0.68302 0.14275 0.0
H1648 H 0.14697 0.73308 0.13082 0.0
H1649 H 0.15181 0.74431 0.11236 0.0
H1650 H 0.21824 0.85492 0.07351 0.0
H1651 H 0.20328 0.80552 0.08549 0.0
H1652 H 0.28 0.79688 0.11145 0.0
C1653 C 0.1665 0.71006 0.13134 0.0
C1654 C 0.1798 0.75577 0.11228 0.0
C1655 C 0.15908 0.68128 0.13816 0.0
C1656 C 0.2287 0.85709 0.08119 0.0
C1657 C 0.21976 0.82903 0.08808 0.0
C1658 C 0.25184 0.78586 0.11166 0.0
C1659 C 0.19937 0.70974 0.12553 0.0
C1660 C 0.20782 0.74095 0.11856 0.0
C1661 C 0.23263 0.8309 0.09813 0.0
C1662 C 0.2239 0.80046 0.10532 0.0
H1663 H 0.23654 0.62803 0.13388 0.0
H1664 H 0.24959 0.67846 0.122 0.0
H1665 H 0.26591 0.74571 0.12304 0.0
H1666 H 0.28015 0.91303 0.0968 0.0
H1667 H 0.26428 0.86392 0.10892 0.0
C1668 C 0.87588 0.78468 0.88957 0.0
C1669 C 0.86572 0.75953 0.89722 0.0
C1670 C 0.86518 0.77832 0.87956 0.0
C1671 C 0.82597 0.70652 0.86206 0.0
H1672 H 0.79578 0.79421 0.84693 0.0
C1673 C 0.73402 0.70842 0.82564 0.0
C1674 C 0.74495 0.73351 0.818 0.0
C1675 C 0.75368 0.70682 0.8348 0.0
C1676 C 0.80458 0.76951 0.85102 0.0
H1677 H 0.83705 0.70781 0.90048 0.0
H1678 H 0.81678 0.69726 0.883 0.0
H1679 H 0.81957 0.80137 0.86405 0.0
H1680 H 0.78705 0.77385 0.81359 0.0
H1681 H 0.82078 0.77159 0.82963 0.0
H1682 H 0.80901 0.67474 0.84901 0.0
C1683 C 0.83389 0.72141 0.88466 0.0
C1684 C 0.81837 0.77357 0.86083 0.0
C1685 C 0.84523 0.7275 0.89467 0.0
C1686 C 0.77735 0.755 0.81943 0.0
C1687 C 0.79677 0.75359 0.82858 0.0
C1688 C 0.81159 0.70244 0.85225 0.0
C1689 C 0.84341 0.74701 0.877 0.0
C1690 C 0.82937 0.74219 0.86647 0.0
C1691 C 0.78439 0.73039 0.83645 0.0
C1692 C 0.80093 0.73397 0.84666 0.0
H1693 H 0.8924 0.80915 0.89135 0.0
H1694 H 0.87391 0.79809 0.87383 0.0
H1695 H 0.83457 0.68179 0.86615 0.0
H1696 H 0.70912 0.6916 0.82481 0.0
H1697 H 0.74354 0.68882 0.84079 0.0
C1698 C 0.75 0.22245 0.08094 0.0
C1699 C 0.78371 0.20435 0.07866 0.0
C1700 C 0.7386 0.22675 0.091 0.0
C1701 C 0.77692 0.22607 0.11707 0.0
H1702 H 0.67216 0.23129 0.1245 0.0
C1703 C 0.73486 0.25865 0.15766 0.0
C1704 C 0.71434 0.29206 0.15825 0.0
C1705 C 0.73748 0.2392 0.14852 0.0
C1706 C 0.70148 0.22956 0.12252 0.0
H1707 H 0.83118 0.17503 0.08493 0.0
H1708 H 0.81085 0.18121 0.10251 0.0
H1709 H 0.68964 0.21374 0.1072 0.0
H1710 H 0.67746 0.32916 0.14993 0.0
H1711 H 0.68164 0.29479 0.13402 0.0
H1712 H 0.78869 0.24193 0.13237 0.0
C1713 C 0.79374 0.19339 0.09661 0.0
C1714 C 0.71155 0.21987 0.11261 0.0
C1715 C 0.80545 0.18979 0.08656 0.0
C1716 C 0.69345 0.30354 0.14977 0.0
C1717 C 0.69583 0.28385 0.14064 0.0
C1718 C 0.76686 0.23509 0.12698 0.0
C1719 C 0.76039 0.21236 0.09897 0.0
C1720 C 0.74942 0.21884 0.10971 0.0
C1721 C 0.71923 0.25254 0.13983 0.0
C1722 C 0.72909 0.23764 0.12974 0.0
H1723 H 0.73291 0.23395 0.07493 0.0
H1724 H 0.71317 0.24216 0.09251 0.0
H1725 H 0.80629 0.22636 0.11511 0.0
H1726 H 0.75045 0.24858 0.16413 0.0
H1727 H 0.75529 0.21478 0.1481 0.0
loop_
_geom_bond_atom_site_label_1
_geom_bond_atom_site_label_2
_geom_bond_distance
_geom_bond_site_symmetry_2
_ccdc_geom_bond_type
C0 C1 1.351 . S
C0 N3 1.368 . S
C0 H5 0.931 . S
C1 C0 1.351 . S
C1 N2 1.373 . S
C1 H29 0.930 . S
N2 C1 1.373 . S
N2 C4 1.340 . S
N3 C0 1.368 . S
N3 C4 1.321 . S
N3 Co6 2.135 1_655 S
C4 N2 1.340 . S
C4 N3 1.321 . S
C4 H28 0.930 . S
H5 C0 0.931 . S
Co6 N3 2.135 1_455 S
Co6 N9 2.121 . S
Co6 O14 2.055 . S
Co6 O17 2.039 1_455 S
Co6 N20 2.140 . S
C7 O8 1.227 . S
C7 O17 1.265 1_455 S
O8 C7 1.227 . S
N9 Co6 2.121 . S
N9 C11 1.375 . S
N9 C12 1.313 . S
C10 C11 1.338 . S
C10 N13 1.377 . S
C10 H30 0.930 . S
C11 N9 1.375 . S
C11 C10 1.338 . S
C11 H15 0.931 . S
C12 N9 1.313 . S
C12 N13 1.344 . S
C12 H16 0.930 . S
N13 C10 1.377 . S
N13 C12 1.344 . S
O14 Co6 2.055 . S
O14 C18 1.253 . S
H15 C11 0.931 . S
H16 C12 0.930 . S
O17 Co6 2.039 1_655 S
O17 C7 1.265 1_655 S
C18 O14 1.253 . S
C18 O19 1.227 . S
O19 C18 1.227 . S
N20 Co6 2.140 . S
N20 C23 1.346 . S
N20 C24 1.345 . S
C21 C22 1.387 . S
C21 C25 1.391 . S
C22 C21 1.387 . S
C22 C23 1.369 . S
C22 H31 0.929 . S
C23 N20 1.346 . S
C23 C22 1.369 . S
C23 H26 0.928 . S
C24 N20 1.345 . S
C24 C25 1.371 . S
C24 H27 0.931 . S
C25 C21 1.391 . S
C25 C24 1.371 . S
C25 H32 0.930 . S
H26 C23 0.928 . S
H27 C24 0.931 . S
H28 C4 0.930 . S
H29 C1 0.930 . S
H30 C10 0.930 . S
H31 C22 0.929 . S
H32 C25 0.930 . S
C33 C34 1.351 . S
C33 N36 1.368 . S
C33 H38 0.931 . S
C34 C33 1.351 . S
C34 N35 1.373 . S
C34 H62 0.930 . S
N35 C34 1.373 . S
N35 C37 1.340 . S
N36 C33 1.368 . S
N36 C37 1.321 . S
N36 Co39 2.135 1_545 S
C37 N35 1.340 . S
C37 N36 1.321 . S
C37 H61 0.930 . S
H38 C33 0.931 . S
Co39 N36 2.135 1_565 S
Co39 N42 2.121 . S
Co39 O47 2.055 . S
Co39 O50 2.039 1_565 S
Co39 N53 2.140 . S
C40 O41 1.227 . S
C40 O50 1.265 1_565 S
O41 C40 1.227 . S
N42 Co39 2.121 . S
N42 C44 1.375 . S
N42 C45 1.313 . S
C43 C44 1.338 . S
C43 N46 1.377 . S
C43 H63 0.930 . S
C44 N42 1.375 . S
C44 C43 1.338 . S
C44 H48 0.931 . S
C45 N42 1.313 . S
C45 N46 1.344 . S
C45 H49 0.930 . S
N46 C43 1.377 . S
N46 C45 1.344 . S
O47 Co39 2.055 . S
O47 C51 1.253 . S
H48 C44 0.931 . S
H49 C45 0.930 . S
O50 Co39 2.039 1_545 S
O50 C40 1.265 1_545 S
C51 O47 1.253 . S
C51 O52 1.227 . S
O52 C51 1.227 . S
N53 Co39 2.140 . S
N53 C56 1.346 . S
N53 C57 1.345 . S
C54 C55 1.387 . S
C54 C58 1.391 . S
C55 C54 1.387 . S
C55 C56 1.369 . S
C55 H64 0.929 . S
C56 N53 1.346 . S
C56 C55 1.369 . S
C56 H59 0.928 . S
C57 N53 1.345 . S
C57 C58 1.371 . S
C57 H60 0.931 . S
C58 C54 1.391 . S
C58 C57 1.371 . S
C58 H65 0.930 . S
H59 C56 0.928 . S
H60 C57 0.931 . S
H61 C37 0.930 . S
H62 C34 0.930 . S
H63 C43 0.930 . S
H64 C55 0.929 . S
H65 C58 0.930 . S
C66 C67 1.351 . S
C66 N69 1.368 . S
C66 H71 0.931 . S
C67 C66 1.351 . S
C67 N68 1.373 . S
C67 H95 0.930 . S
N68 C67 1.373 . S
N68 C70 1.340 . S
N69 C66 1.368 . S
N69 C70 1.321 . S
N69 Co72 2.135 1_455 S
C70 N68 1.340 . S
C70 N69 1.321 . S
C70 H94 0.930 . S
H71 C66 0.931 . S
Co72 N69 2.135 1_655 S
Co72 N75 2.121 . S
Co72 O80 2.055 . S
Co72 O83 2.039 1_655 S
Co72 N86 2.140 . S
C73 O74 1.227 . S
C73 O83 1.265 1_655 S
O74 C73 1.227 . S
N75 Co72 2.121 . S
N75 C77 1.375 . S
N75 C78 1.313 . S
C76 C77 1.338 . S
C76 N79 1.377 . S
C76 H96 0.930 . S
C77 N75 1.375 . S
C77 C76 1.338 . S
C77 H81 0.931 . S
C78 N75 1.313 . S
C78 N79 1.344 . S
C78 H82 0.930 . S
N79 C76 1.377 . S
N79 C78 1.344 . S
O80 Co72 2.055 . S
O80 C84 1.253 . S
H81 C77 0.931 . S
H82 C78 0.930 . S
O83 Co72 2.039 1_455 S
O83 C73 1.265 1_455 S
C84 O80 1.253 . S
C84 O85 1.227 . S
O85 C84 1.227 . S
N86 Co72 2.140 . S
N86 C89 1.346 . S
N86 C90 1.345 . S
C87 C88 1.387 . S
C87 C91 1.391 . S
C88 C87 1.387 . S
C88 C89 1.369 . S
C88 H97 0.929 . S
C89 N86 1.346 . S
C89 C88 1.369 . S
C89 H92 0.928 . S
C90 N86 1.345 . S
C90 C91 1.371 . S
C90 H93 0.931 . S
C91 C87 1.391 . S
C91 C90 1.371 . S
C91 H98 0.930 . S
H92 C89 0.928 . S
H93 C90 0.931 . S
H94 C70 0.930 . S
H95 C67 0.930 . S
H96 C76 0.930 . S
H97 C88 0.929 . S
H98 C91 0.930 . S
C99 C100 1.351 . S
C99 N102 1.368 . S
C99 H104 0.931 . S
C100 C99 1.351 . S
C100 N101 1.373 . S
C100 H128 0.930 . S
N101 C100 1.373 . S
N101 C103 1.340 . S
N102 C99 1.368 . S
N102 C103 1.321 . S
N102 Co105 2.135 1_565 S
C103 N101 1.340 . S
C103 N102 1.321 . S
C103 H127 0.930 . S
H104 C99 0.931 . S
Co105 N102 2.135 1_545 S
Co105 N108 2.121 . S
Co105 O113 2.055 . S
Co105 O116 2.039 1_545 S
Co105 N119 2.140 . S
C106 O107 1.227 . S
C106 O116 1.265 1_545 S
O107 C106 1.227 . S
N108 Co105 2.121 . S
N108 C110 1.375 . S
N108 C111 1.313 . S
C109 C110 1.338 . S
C109 N112 1.377 . S
C109 H129 0.930 . S
C110 N108 1.375 . S
C110 C109 1.338 . S
C110 H114 0.931 . S
C111 N108 1.313 . S
C111 N112 1.344 . S
C111 H115 0.930 . S
N112 C109 1.377 . S
N112 C111 1.344 . S
O113 Co105 2.055 . S
O113 C117 1.253 . S
H114 C110 0.931 . S
H115 C111 0.930 . S
O116 Co105 2.039 1_565 S
O116 C106 1.265 1_565 S
C117 O113 1.253 . S
C117 O118 1.227 . S
O118 C117 1.227 . S
N119 Co105 2.140 . S
N119 C122 1.346 . S
N119 C123 1.345 . S
C120 C121 1.387 . S
C120 C124 1.391 . S
C121 C120 1.387 . S
C121 C122 1.369 . S
C121 H130 0.929 . S
C122 N119 1.346 . S
C122 C121 1.369 . S
C122 H125 0.928 . S
C123 N119 1.345 . S
C123 C124 1.371 . S
C123 H126 0.931 . S
C124 C120 1.391 . S
C124 C123 1.371 . S
C124 H131 0.930 . S
H125 C122 0.928 . S
H126 C123 0.931 . S
H127 C103 0.930 . S
H128 C100 0.930 . S
H129 C109 0.930 . S
H130 C121 0.929 . S
H131 C124 0.930 . S
C132 C133 1.351 . S
C132 N135 1.368 . S
C132 H137 0.931 . S
C133 C132 1.351 . S
C133 N134 1.373 . S
C133 H161 0.930 . S
N134 C133 1.373 . S
N134 C136 1.340 . S
N135 C132 1.368 . S
N135 C136 1.321 . S
N135 Co138 2.135 1_655 S
C136 N134 1.340 . S
C136 N135 1.321 . S
C136 H160 0.930 . S
H137 C132 0.931 . S
Co138 N135 2.135 1_455 S
Co138 N141 2.121 . S
Co138 O146 2.055 . S
Co138 O149 2.039 1_455 S
Co138 N152 2.140 . S
C139 O140 1.227 . S
C139 O149 1.265 1_455 S
O140 C139 1.227 . S
N141 Co138 2.121 . S
N141 C143 1.375 . S
N141 C144 1.313 . S
C142 C143 1.338 . S
C142 N145 1.377 . S
C142 H162 0.930 . S
C143 N141 1.375 . S
C143 C142 1.338 . S
C143 H147 0.931 . S
C144 N141 1.313 . S
C144 N145 1.344 . S
C144 H148 0.930 . S
N145 C142 1.377 . S
N145 C144 1.344 . S
O146 Co138 2.055 . S
O146 C150 1.253 . S
H147 C143 0.931 . S
H148 C144 0.930 . S
O149 Co138 2.039 1_655 S
O149 C139 1.265 1_655 S
C150 O146 1.253 . S
C150 O151 1.227 . S
O151 C150 1.227 . S
N152 Co138 2.140 . S
N152 C155 1.346 . S
N152 C156 1.345 . S
C153 C154 1.387 . S
C153 C157 1.391 . S
C154 C153 1.387 . S
C154 C155 1.369 . S
C154 H163 0.929 . S
C155 N152 1.346 . S
C155 C154 1.369 . S
C155 H158 0.928 . S
C156 N152 1.345 . S
C156 C157 1.371 . S
C156 H159 0.931 . S
C157 C153 1.391 . S
C157 C156 1.371 . S
C157 H164 0.930 . S
H158 C155 0.928 . S
H159 C156 0.931 . S
H160 C136 0.930 . S
H161 C133 0.930 . S
H162 C142 0.930 . S
H163 C154 0.929 . S
H164 C157 0.930 . S
C165 C166 1.351 . S
C165 N168 1.368 . S
C165 H170 0.931 . S
C166 C165 1.351 . S
C166 N167 1.373 . S
C166 H194 0.930 . S
N167 C166 1.373 . S
N167 C169 1.340 . S
N168 C165 1.368 . S
N168 C169 1.321 . S
N168 Co171 2.135 1_545 S
C169 N167 1.340 . S
C169 N168 1.321 . S
C169 H193 0.930 . S
H170 C165 0.931 . S
Co171 N168 2.135 1_565 S
Co171 N174 2.121 . S
Co171 O179 2.055 . S
Co171 O182 2.039 1_565 S
Co171 N185 2.140 . S
C172 O173 1.227 . S
C172 O182 1.265 1_565 S
O173 C172 1.227 . S
N174 Co171 2.121 . S
N174 C176 1.375 . S
N174 C177 1.313 . S
C175 C176 1.338 . S
C175 N178 1.377 . S
C175 H195 0.930 . S
C176 N174 1.375 . S
C176 C175 1.338 . S
C176 H180 0.931 . S
C177 N174 1.313 . S
C177 N178 1.344 . S
C177 H181 0.930 . S
N178 C175 1.377 . S
N178 C177 1.344 . S
O179 Co171 2.055 . S
O179 C183 1.253 . S
H180 C176 0.931 . S
H181 C177 0.930 . S
O182 Co171 2.039 1_545 S
O182 C172 1.265 1_545 S
C183 O179 1.253 . S
C183 O184 1.227 . S
O184 C183 1.227 . S
N185 Co171 2.140 . S
N185 C188 1.346 . S
N185 C189 1.345 . S
C186 C187 1.387 . S
C186 C190 1.391 . S
C187 C186 1.387 . S
C187 C188 1.369 . S
C187 H196 0.929 . S
C188 N185 1.346 . S
C188 C187 1.369 . S
C188 H191 0.928 . S
C189 N185 1.345 . S
C189 C190 1.371 . S
C189 H192 0.931 . S
C190 C186 1.391 . S
C190 C189 1.371 . S
C190 H197 0.930 . S
H191 C188 0.928 . S
H192 C189 0.931 . S
H193 C169 0.930 . S
H194 C166 0.930 . S
H195 C175 0.930 . S
H196 C187 0.929 . S
H197 C190 0.930 . S
C198 C199 1.351 . S
C198 N201 1.368 . S
C198 H203 0.931 . S
C199 C198 1.351 . S
C199 N200 1.373 . S
C199 H227 0.930 . S
N200 C199 1.373 . S
N200 C202 1.340 . S
N201 C198 1.368 . S
N201 C202 1.321 . S
N201 Co204 2.135 1_455 S
C202 N200 1.340 . S
C202 N201 1.321 . S
C202 H226 0.930 . S
H203 C198 0.931 . S
Co204 N201 2.135 1_655 S
Co204 N207 2.121 . S
Co204 O212 2.055 . S
Co204 O215 2.039 1_655 S
Co204 N218 2.140 . S
C205 O206 1.227 . S
C205 O215 1.265 1_655 S
O206 C205 1.227 . S
N207 Co204 2.121 . S
N207 C209 1.375 . S
N207 C210 1.313 . S
C208 C209 1.338 . S
C208 N211 1.377 . S
C208 H228 0.930 . S
C209 N207 1.375 . S
C209 C208 1.338 . S
C209 H213 0.931 . S
C210 N207 1.313 . S
C210 N211 1.344 . S
C210 H214 0.930 . S
N211 C208 1.377 . S
N211 C210 1.344 . S
O212 Co204 2.055 . S
O212 C216 1.253 . S
H213 C209 0.931 . S
H214 C210 0.930 . S
O215 Co204 2.039 1_455 S
O215 C205 1.265 1_455 S
C216 O212 1.253 . S
C216 O217 1.227 . S
O217 C216 1.227 . S
N218 Co204 2.140 . S
N218 C221 1.346 . S
N218 C222 1.345 . S
C219 C220 1.387 . S
C219 C223 1.391 . S
C220 C219 1.387 . S
C220 C221 1.369 . S
C220 H229 0.929 . S
C221 N218 1.346 . S
C221 C220 1.369 . S
C221 H224 0.928 . S
C222 N218 1.345 . S
C222 C223 1.371 . S
C222 H225 0.931 . S
C223 C219 1.391 . S
C223 C222 1.371 . S
C223 H230 0.930 . S
H224 C221 0.928 . S
H225 C222 0.931 . S
H226 C202 0.930 . S
H227 C199 0.930 . S
H228 C208 0.930 . S
H229 C220 0.929 . S
H230 C223 0.930 . S
C231 C232 1.351 . S
C231 N234 1.368 . S
C231 H236 0.931 . S
C232 C231 1.351 . S
C232 N233 1.373 . S
C232 H260 0.930 . S
N233 C232 1.373 . S
N233 C235 1.340 . S
N234 C231 1.368 . S
N234 C235 1.321 . S
N234 Co237 2.135 1_565 S
C235 N233 1.340 . S
C235 N234 1.321 . S
C235 H259 0.930 . S
H236 C231 0.931 . S
Co237 N234 2.135 1_545 S
Co237 N240 2.121 . S
Co237 O245 2.055 . S
Co237 O248 2.039 1_545 S
Co237 N251 2.140 . S
C238 O239 1.227 . S
C238 O248 1.265 1_545 S
O239 C238 1.227 . S
N240 Co237 2.121 . S
N240 C242 1.375 . S
N240 C243 1.313 . S
C241 C242 1.338 . S
C241 N244 1.377 . S
C241 H261 0.930 . S
C242 N240 1.375 . S
C242 C241 1.338 . S
C242 H246 0.931 . S
C243 N240 1.313 . S
C243 N244 1.344 . S
C243 H247 0.930 . S
N244 C241 1.377 . S
N244 C243 1.344 . S
O245 Co237 2.055 . S
O245 C249 1.253 . S
H246 C242 0.931 . S
H247 C243 0.930 . S
O248 Co237 2.039 1_565 S
O248 C238 1.265 1_565 S
C249 O245 1.253 . S
C249 O250 1.227 . S
O250 C249 1.227 . S
N251 Co237 2.140 . S
N251 C254 1.346 . S
N251 C255 1.345 . S
C252 C253 1.387 . S
C252 C256 1.391 . S
C253 C252 1.387 . S
C253 C254 1.369 . S
C253 H262 0.929 . S
C254 N251 1.346 . S
C254 C253 1.369 . S
C254 H257 0.928 . S
C255 N251 1.345 . S
C255 C256 1.371 . S
C255 H258 0.931 . S
C256 C252 1.391 . S
C256 C255 1.371 . S
C256 H263 0.930 . S
H257 C254 0.928 . S
H258 C255 0.931 . S
H259 C235 0.930 . S
H260 C232 0.930 . S
H261 C241 0.930 . S
H262 C253 0.929 . S
H263 C256 0.930 . S
C264 C265 1.351 . S
C264 N267 1.368 . S
C264 H269 0.931 . S
C265 C264 1.351 . S
C265 N266 1.373 . S
C265 H293 0.930 . S
N266 C265 1.373 . S
N266 C268 1.340 . S
N267 C264 1.368 . S
N267 C268 1.321 . S
N267 Co270 2.135 . S
C268 N266 1.340 . S
C268 N267 1.321 . S
C268 H292 0.930 . S
H269 C264 0.931 . S
Co270 N267 2.135 . S
Co270 N273 2.121 . S
Co270 O278 2.055 . S
Co270 O281 2.039 . S
Co270 N284 2.140 . S
C271 O272 1.227 . S
C271 O281 1.265 . S
O272 C271 1.227 . S
N273 Co270 2.121 . S
N273 C275 1.375 . S
N273 C276 1.313 . S
C274 C275 1.338 . S
C274 N277 1.377 . S
C274 H294 0.930 . S
C275 N273 1.375 . S
C275 C274 1.338 . S
C275 H279 0.931 . S
C276 N273 1.313 . S
C276 N277 1.344 . S
C276 H280 0.930 . S
N277 C274 1.377 . S
N277 C276 1.344 . S
O278 Co270 2.055 . S
O278 C282 1.253 . S
H279 C275 0.931 . S
H280 C276 0.930 . S
O281 Co270 2.039 . S
O281 C271 1.265 . S
C282 O278 1.253 . S
C282 O283 1.227 . S
O283 C282 1.227 . S
N284 Co270 2.140 . S
N284 C287 1.346 . S
N284 C288 1.345 . S
C285 C286 1.387 . S
C285 C289 1.391 . S
C286 C285 1.387 . S
C286 C287 1.369 . S
C286 H295 0.929 . S
C287 N284 1.346 . S
C287 C286 1.369 . S
C287 H290 0.928 . S
C288 N284 1.345 . S
C288 C289 1.371 . S
C288 H291 0.931 . S
C289 C285 1.391 . S
C289 C288 1.371 . S
C289 H296 0.930 . S
H290 C287 0.928 . S
H291 C288 0.931 . S
H292 C268 0.930 . S
H293 C265 0.930 . S
H294 C274 0.930 . S
H295 C286 0.929 . S
H296 C289 0.930 . S
C297 C298 1.351 . S
C297 N300 1.368 . S
C297 H302 0.931 . S
C298 C297 1.351 . S
C298 N299 1.373 . S
C298 H326 0.930 . S
N299 C298 1.373 . S
N299 C301 1.340 . S
N300 C297 1.368 . S
N300 C301 1.321 . S
N300 Co303 2.135 . S
C301 N299 1.340 . S
C301 N300 1.321 . S
C301 H325 0.930 . S
H302 C297 0.931 . S
Co303 N300 2.135 . S
Co303 N306 2.121 . S
Co303 O311 2.055 . S
Co303 O314 2.039 . S
Co303 N317 2.140 . S
C304 O305 1.227 . S
C304 O314 1.265 . S
O305 C304 1.227 . S
N306 Co303 2.121 . S
N306 C308 1.375 . S
N306 C309 1.313 . S
C307 C308 1.338 . S
C307 N310 1.377 . S
C307 H327 0.930 . S
C308 N306 1.375 . S
C308 C307 1.338 . S
C308 H312 0.931 . S
C309 N306 1.313 . S
C309 N310 1.344 . S
C309 H313 0.930 . S
N310 C307 1.377 . S
N310 C309 1.344 . S
O311 Co303 2.055 . S
O311 C315 1.253 . S
H312 C308 0.931 . S
H313 C309 0.930 . S
O314 Co303 2.039 . S
O314 C304 1.265 . S
C315 O311 1.253 . S
C315 O316 1.227 . S
O316 C315 1.227 . S
N317 Co303 2.140 . S
N317 C320 1.346 . S
N317 C321 1.345 . S
C318 C319 1.387 . S
C318 C322 1.391 . S
C319 C318 1.387 . S
C319 C320 1.369 . S
C319 H328 0.929 . S
C320 N317 1.346 . S
C320 C319 1.369 . S
C320 H323 0.928 . S
C321 N317 1.345 . S
C321 C322 1.371 . S
C321 H324 0.931 . S
C322 C318 1.391 . S
C322 C321 1.371 . S
C322 H329 0.930 . S
H323 C320 0.928 . S
H324 C321 0.931 . S
H325 C301 0.930 . S
H326 C298 0.930 . S
H327 C307 0.930 . S
H328 C319 0.929 . S
H329 C322 0.930 . S
C330 C331 1.351 . S
C330 N333 1.368 . S
C330 H335 0.931 . S
C331 C330 1.351 . S
C331 N332 1.373 . S
C331 H359 0.930 . S
N332 C331 1.373 . S
N332 C334 1.340 . S
N333 C330 1.368 . S
N333 C334 1.321 . S
N333 Co336 2.135 . S
C334 N332 1.340 . S
C334 N333 1.321 . S
C334 H358 0.930 . S
H335 C330 0.931 . S
Co336 N333 2.135 . S
Co336 N339 2.121 . S
Co336 O344 2.055 . S
Co336 O347 2.039 . S
Co336 N350 2.140 . S
C337 O338 1.227 . S
C337 O347 1.265 . S
O338 C337 1.227 . S
N339 Co336 2.121 . S
N339 C341 1.375 . S
N339 C342 1.313 . S
C340 C341 1.338 . S
C340 N343 1.377 . S
C340 H360 0.930 . S
C341 N339 1.375 . S
C341 C340 1.338 . S
C341 H345 0.931 . S
C342 N339 1.313 . S
C342 N343 1.344 . S
C342 H346 0.930 . S
N343 C340 1.377 . S
N343 C342 1.344 . S
O344 Co336 2.055 . S
O344 C348 1.253 . S
H345 C341 0.931 . S
H346 C342 0.930 . S
O347 Co336 2.039 . S
O347 C337 1.265 . S
C348 O344 1.253 . S
C348 O349 1.227 . S
O349 C348 1.227 . S
N350 Co336 2.140 . S
N350 C353 1.346 . S
N350 C354 1.345 . S
C351 C352 1.387 . S
C351 C355 1.391 . S
C352 C351 1.387 . S
C352 C353 1.369 . S
C352 H361 0.929 . S
C353 N350 1.346 . S
C353 C352 1.369 . S
C353 H356 0.928 . S
C354 N350 1.345 . S
C354 C355 1.371 . S
C354 H357 0.931 . S
C355 C351 1.391 . S
C355 C354 1.371 . S
C355 H362 0.930 . S
H356 C353 0.928 . S
H357 C354 0.931 . S
H358 C334 0.930 . S
H359 C331 0.930 . S
H360 C340 0.930 . S
H361 C352 0.929 . S
H362 C355 0.930 . S
C363 C364 1.351 . S
C363 N366 1.368 . S
C363 H368 0.931 . S
C364 C363 1.351 . S
C364 N365 1.373 . S
C364 H392 0.930 . S
N365 C364 1.373 . S
N365 C367 1.340 . S
N366 C363 1.368 . S
N366 C367 1.321 . S
N366 Co369 2.135 . S
C367 N365 1.340 . S
C367 N366 1.321 . S
C367 H391 0.930 . S
H368 C363 0.931 . S
Co369 N366 2.135 . S
Co369 N372 2.121 . S
Co369 O377 2.055 . S
Co369 O380 2.039 . S
Co369 N383 2.140 . S
C370 O371 1.227 . S
C370 O380 1.265 . S
O371 C370 1.227 . S
N372 Co369 2.121 . S
N372 C374 1.375 . S
N372 C375 1.313 . S
C373 C374 1.338 . S
C373 N376 1.377 . S
C373 H393 0.930 . S
C374 N372 1.375 . S
C374 C373 1.338 . S
C374 H378 0.931 . S
C375 N372 1.313 . S
C375 N376 1.344 . S
C375 H379 0.930 . S
N376 C373 1.377 . S
N376 C375 1.344 . S
O377 Co369 2.055 . S
O377 C381 1.253 . S
H378 C374 0.931 . S
H379 C375 0.930 . S
O380 Co369 2.039 . S
O380 C370 1.265 . S
C381 O377 1.253 . S
C381 O382 1.227 . S
O382 C381 1.227 . S
N383 Co369 2.140 . S
N383 C386 1.346 . S
N383 C387 1.345 . S
C384 C385 1.387 . S
C384 C388 1.391 . S
C385 C384 1.387 . S
C385 C386 1.369 . S
C385 H394 0.929 . S
C386 N383 1.346 . S
C386 C385 1.369 . S
C386 H389 0.928 . S
C387 N383 1.345 . S
C387 C388 1.371 . S
C387 H390 0.931 . S
C388 C384 1.391 . S
C388 C387 1.371 . S
C388 H395 0.930 . S
H389 C386 0.928 . S
H390 C387 0.931 . S
H391 C367 0.930 . S
H392 C364 0.930 . S
H393 C373 0.930 . S
H394 C385 0.929 . S
H395 C388 0.930 . S
C396 C397 1.351 . S
C396 N399 1.368 . S
C396 H401 0.931 . S
C397 C396 1.351 . S
C397 N398 1.373 . S
C397 H425 0.930 . S
N398 C397 1.373 . S
N398 C400 1.340 . S
N399 C396 1.368 . S
N399 C400 1.321 . S
N399 Co402 2.135 . S
C400 N398 1.340 . S
C400 N399 1.321 . S
C400 H424 0.930 . S
H401 C396 0.931 . S
Co402 N399 2.135 . S
Co402 N405 2.121 . S
Co402 O410 2.055 . S
Co402 O413 2.039 . S
Co402 N416 2.140 . S
C403 O404 1.227 . S
C403 O413 1.265 . S
O404 C403 1.227 . S
N405 Co402 2.121 . S
N405 C407 1.375 . S
N405 C408 1.313 . S
C406 C407 1.338 . S
C406 N409 1.377 . S
C406 H426 0.930 . S
C407 N405 1.375 . S
C407 C406 1.338 . S
C407 H411 0.931 . S
C408 N405 1.313 . S
C408 N409 1.344 . S
C408 H412 0.930 . S
N409 C406 1.377 . S
N409 C408 1.344 . S
O410 Co402 2.055 . S
O410 C414 1.253 . S
H411 C407 0.931 . S
H412 C408 0.930 . S
O413 Co402 2.039 . S
O413 C403 1.265 . S
C414 O410 1.253 . S
C414 O415 1.227 . S
O415 C414 1.227 . S
N416 Co402 2.140 . S
N416 C419 1.346 . S
N416 C420 1.345 . S
C417 C418 1.387 . S
C417 C421 1.391 . S
C418 C417 1.387 . S
C418 C419 1.369 . S
C418 H427 0.929 . S
C419 N416 1.346 . S
C419 C418 1.369 . S
C419 H422 0.928 . S
C420 N416 1.345 . S
C420 C421 1.371 . S
C420 H423 0.931 . S
C421 C417 1.391 . S
C421 C420 1.371 . S
C421 H428 0.930 . S
H422 C419 0.928 . S
H423 C420 0.931 . S
H424 C400 0.930 . S
H425 C397 0.930 . S
H426 C406 0.930 . S
H427 C418 0.929 . S
H428 C421 0.930 . S
C429 C430 1.351 . S
C429 N432 1.368 . S
C429 H434 0.931 . S
C430 C429 1.351 . S
C430 N431 1.373 . S
C430 H458 0.930 . S
N431 C430 1.373 . S
N431 C433 1.340 . S
N432 C429 1.368 . S
N432 C433 1.321 . S
N432 Co435 2.135 . S
C433 N431 1.340 . S
C433 N432 1.321 . S
C433 H457 0.930 . S
H434 C429 0.931 . S
Co435 N432 2.135 . S
Co435 N438 2.121 . S
Co435 O443 2.055 . S
Co435 O446 2.039 . S
Co435 N449 2.140 . S
C436 O437 1.227 . S
C436 O446 1.265 . S
O437 C436 1.227 . S
N438 Co435 2.121 . S
N438 C440 1.375 . S
N438 C441 1.313 . S
C439 C440 1.338 . S
C439 N442 1.377 . S
C439 H459 0.930 . S
C440 N438 1.375 . S
C440 C439 1.338 . S
C440 H444 0.931 . S
C441 N438 1.313 . S
C441 N442 1.344 . S
C441 H445 0.930 . S
N442 C439 1.377 . S
N442 C441 1.344 . S
O443 Co435 2.055 . S
O443 C447 1.253 . S
H444 C440 0.931 . S
H445 C441 0.930 . S
O446 Co435 2.039 . S
O446 C436 1.265 . S
C447 O443 1.253 . S
C447 O448 1.227 . S
O448 C447 1.227 . S
N449 Co435 2.140 . S
N449 C452 1.346 . S
N449 C453 1.345 . S
C450 C451 1.387 . S
C450 C454 1.391 . S
C451 C450 1.387 . S
C451 C452 1.369 . S
C451 H460 0.929 . S
C452 N449 1.346 . S
C452 C451 1.369 . S
C452 H455 0.928 . S
C453 N449 1.345 . S
C453 C454 1.371 . S
C453 H456 0.931 . S
C454 C450 1.391 . S
C454 C453 1.371 . S
C454 H461 0.930 . S
H455 C452 0.928 . S
H456 C453 0.931 . S
H457 C433 0.930 . S
H458 C430 0.930 . S
H459 C439 0.930 . S
H460 C451 0.929 . S
H461 C454 0.930 . S
C462 C463 1.351 . S
C462 N465 1.368 . S
C462 H467 0.931 . S
C463 C462 1.351 . S
C463 N464 1.373 . S
C463 H491 0.930 . S
N464 C463 1.373 . S
N464 C466 1.340 . S
N465 C462 1.368 . S
N465 C466 1.321 . S
N465 Co468 2.135 . S
C466 N464 1.340 . S
C466 N465 1.321 . S
C466 H490 0.930 . S
H467 C462 0.931 . S
Co468 N465 2.135 . S
Co468 N471 2.121 . S
Co468 O476 2.055 . S
Co468 O479 2.039 . S
Co468 N482 2.140 . S
C469 O470 1.227 . S
C469 O479 1.265 . S
O470 C469 1.227 . S
N471 Co468 2.121 . S
N471 C473 1.375 . S
N471 C474 1.313 . S
C472 C473 1.338 . S
C472 N475 1.377 . S
C472 H492 0.930 . S
C473 N471 1.375 . S
C473 C472 1.338 . S
C473 H477 0.931 . S
C474 N471 1.313 . S
C474 N475 1.344 . S
C474 H478 0.930 . S
N475 C472 1.377 . S
N475 C474 1.344 . S
O476 Co468 2.055 . S
O476 C480 1.253 . S
H477 C473 0.931 . S
H478 C474 0.930 . S
O479 Co468 2.039 . S
O479 C469 1.265 . S
C480 O476 1.253 . S
C480 O481 1.227 . S
O481 C480 1.227 . S
N482 Co468 2.140 . S
N482 C485 1.346 . S
N482 C486 1.345 . S
C483 C484 1.387 . S
C483 C487 1.391 . S
C484 C483 1.387 . S
C484 C485 1.369 . S
C484 H493 0.929 . S
C485 N482 1.346 . S
C485 C484 1.369 . S
C485 H488 0.928 . S
C486 N482 1.345 . S
C486 C487 1.371 . S
C486 H489 0.931 . S
C487 C483 1.391 . S
C487 C486 1.371 . S
C487 H494 0.930 . S
H488 C485 0.928 . S
H489 C486 0.931 . S
H490 C466 0.930 . S
H491 C463 0.930 . S
H492 C472 0.930 . S
H493 C484 0.929 . S
H494 C487 0.930 . S
C495 C496 1.351 . S
C495 N498 1.368 . S
C495 H500 0.931 . S
C496 C495 1.351 . S
C496 N497 1.373 . S
C496 H524 0.930 . S
N497 C496 1.373 . S
N497 C499 1.340 . S
N498 C495 1.368 . S
N498 C499 1.321 . S
N498 Co501 2.135 . S
C499 N497 1.340 . S
C499 N498 1.321 . S
C499 H523 0.930 . S
H500 C495 0.931 . S
Co501 N498 2.135 . S
Co501 N504 2.121 . S
Co501 O509 2.055 . S
Co501 O512 2.039 . S
Co501 N515 2.140 . S
C502 O503 1.227 . S
C502 O512 1.265 . S
O503 C502 1.227 . S
N504 Co501 2.121 . S
N504 C506 1.375 . S
N504 C507 1.313 . S
C505 C506 1.338 . S
C505 N508 1.377 . S
C505 H525 0.930 . S
C506 N504 1.375 . S
C506 C505 1.338 . S
C506 H510 0.931 . S
C507 N504 1.313 . S
C507 N508 1.344 . S
C507 H511 0.930 . S
N508 C505 1.377 . S
N508 C507 1.344 . S
O509 Co501 2.055 . S
O509 C513 1.253 . S
H510 C506 0.931 . S
H511 C507 0.930 . S
O512 Co501 2.039 . S
O512 C502 1.265 . S
C513 O509 1.253 . S
C513 O514 1.227 . S
O514 C513 1.227 . S
N515 Co501 2.140 . S
N515 C518 1.346 . S
N515 C519 1.345 . S
C516 C517 1.387 . S
C516 C520 1.391 . S
C517 C516 1.387 . S
C517 C518 1.369 . S
C517 H526 0.929 . S
C518 N515 1.346 . S
C518 C517 1.369 . S
C518 H521 0.928 . S
C519 N515 1.345 . S
C519 C520 1.371 . S
C519 H522 0.931 . S
C520 C516 1.391 . S
C520 C519 1.371 . S
C520 H527 0.930 . S
H521 C518 0.928 . S
H522 C519 0.931 . S
H523 C499 0.930 . S
H524 C496 0.930 . S
H525 C505 0.930 . S
H526 C517 0.929 . S
H527 C520 0.930 . S
C528 C529 1.349 . S
C528 C530 1.327 . S
C528 H553 0.950 . S
C529 C528 1.349 . S
C529 C545 1.349 . S
C530 C528 1.327 . S
C530 C549 1.429 . S
C530 H554 0.950 . S
C531 C548 1.574 . S
C531 C550 1.368 . S
C531 H555 0.949 . S
H532 C536 0.949 . S
C533 C534 1.349 . S
C533 C535 1.327 . S
C533 H556 0.950 . S
C534 C533 1.349 . S
C534 C546 1.349 . S
C535 C533 1.327 . S
C535 C551 1.429 . S
C535 H557 0.950 . S
C536 H532 0.949 . S
C536 C544 1.574 . S
C536 C552 1.368 . S
H537 C545 0.950 . S
H538 C543 0.950 . S
H539 C544 0.949 . S
H540 C546 0.950 . S
H541 C547 0.950 . S
H542 C548 0.949 . S
C543 H538 0.950 . S
C543 C545 1.327 . S
C543 C549 1.429 . S
C544 C536 1.574 . S
C544 H539 0.949 . S
C544 C550 1.368 . S
C545 C529 1.349 . S
C545 H537 0.950 . S
C545 C543 1.327 . S
C546 C534 1.349 . S
C546 H540 0.950 . S
C546 C547 1.327 . S
C547 H541 0.950 . S
C547 C546 1.327 . S
C547 C551 1.429 . S
C548 C531 1.574 . S
C548 H542 0.949 . S
C548 C552 1.368 . S
C549 C530 1.429 . S
C549 C543 1.429 . S
C549 C550 1.523 . S
C550 C531 1.368 . S
C550 C544 1.368 . S
C550 C549 1.523 . S
C551 C535 1.429 . S
C551 C547 1.429 . S
C551 C552 1.523 . S
C552 C536 1.368 . S
C552 C548 1.368 . S
C552 C551 1.523 . S
H553 C528 0.950 . S
H554 C530 0.950 . S
H555 C531 0.949 . S
H556 C533 0.950 . S
H557 C535 0.950 . S
C558 C559 1.349 . S
C558 C560 1.327 . S
C558 H583 0.950 . S
C559 C558 1.349 . S
C559 C575 1.349 . S
C560 C558 1.327 . S
C560 C579 1.429 . S
C560 H584 0.950 . S
C561 C578 1.574 . S
C561 C580 1.368 . S
C561 H585 0.949 . S
H562 C566 0.949 . S
C563 C564 1.349 . S
C563 C565 1.327 . S
C563 H586 0.950 . S
C564 C563 1.349 . S
C564 C576 1.349 . S
C565 C563 1.327 . S
C565 C581 1.429 . S
C565 H587 0.950 . S
C566 H562 0.949 . S
C566 C574 1.574 . S
C566 C582 1.368 . S
H567 C575 0.950 . S
H568 C573 0.950 . S
H569 C574 0.949 . S
H570 C576 0.950 . S
H571 C577 0.950 . S
H572 C578 0.949 . S
C573 H568 0.950 . S
C573 C575 1.327 . S
C573 C579 1.429 . S
C574 C566 1.574 . S
C574 H569 0.949 . S
C574 C580 1.368 . S
C575 C559 1.349 . S
C575 H567 0.950 . S
C575 C573 1.327 . S
C576 C564 1.349 . S
C576 H570 0.950 . S
C576 C577 1.327 . S
C577 H571 0.950 . S
C577 C576 1.327 . S
C577 C581 1.429 . S
C578 C561 1.574 . S
C578 H572 0.949 . S
C578 C582 1.368 . S
C579 C560 1.429 . S
C579 C573 1.429 . S
C579 C580 1.523 . S
C580 C561 1.368 . S
C580 C574 1.368 . S
C580 C579 1.523 . S
C581 C565 1.429 . S
C581 C577 1.429 . S
C581 C582 1.523 . S
C582 C566 1.368 . S
C582 C578 1.368 . S
C582 C581 1.523 . S
H583 C558 0.950 . S
H584 C560 0.950 . S
H585 C561 0.949 . S
H586 C563 0.950 . S
H587 C565 0.950 . S
C588 C589 1.349 . S
C588 C590 1.327 . S
C588 H613 0.950 . S
C589 C588 1.349 . S
C589 C605 1.349 . S
C590 C588 1.327 . S
C590 C609 1.429 . S
C590 H614 0.950 . S
C591 C608 1.574 . S
C591 C610 1.368 . S
C591 H615 0.949 . S
H592 C596 0.949 . S
C593 C594 1.349 . S
C593 C595 1.327 . S
C593 H616 0.950 . S
C594 C593 1.349 . S
C594 C606 1.349 . S
C595 C593 1.327 . S
C595 C611 1.429 . S
C595 H617 0.950 . S
C596 H592 0.949 . S
C596 C604 1.574 . S
C596 C612 1.368 . S
H597 C605 0.950 . S
H598 C603 0.950 . S
H599 C604 0.949 . S
H600 C606 0.950 . S
H601 C607 0.950 . S
H602 C608 0.949 . S
C603 H598 0.950 . S
C603 C605 1.327 . S
C603 C609 1.429 . S
C604 C596 1.574 . S
C604 H599 0.949 . S
C604 C610 1.368 . S
C605 C589 1.349 . S
C605 H597 0.950 . S
C605 C603 1.327 . S
C606 C594 1.349 . S
C606 H600 0.950 . S
C606 C607 1.327 . S
C607 H601 0.950 . S
C607 C606 1.327 . S
C607 C611 1.429 . S
C608 C591 1.574 . S
C608 H602 0.949 . S
C608 C612 1.368 . S
C609 C590 1.429 . S
C609 C603 1.429 . S
C609 C610 1.523 . S
C610 C591 1.368 . S
C610 C604 1.368 . S
C610 C609 1.523 . S
C611 C595 1.429 . S
C611 C607 1.429 . S
C611 C612 1.523 . S
C612 C596 1.368 . S
C612 C608 1.368 . S
C612 C611 1.523 . S
H613 C588 0.950 . S
H614 C590 0.950 . S
H615 C591 0.949 . S
H616 C593 0.950 . S
H617 C595 0.950 . S
C618 C619 1.349 . S
C618 C620 1.327 . S
C618 H643 0.950 . S
C619 C618 1.349 . S
C619 C635 1.349 . S
C620 C618 1.327 . S
C620 C639 1.429 . S
C620 H644 0.950 . S
C621 C638 1.574 . S
C621 C640 1.368 . S
C621 H645 0.949 . S
H622 C626 0.949 . S
C623 C624 1.349 . S
C623 C625 1.327 . S
C623 H646 0.950 . S
C624 C623 1.349 . S
C624 C636 1.349 . S
C625 C623 1.327 . S
C625 C641 1.429 . S
C625 H647 0.950 . S
C626 H622 0.949 . S
C626 C634 1.574 . S
C626 C642 1.368 . S
H627 C635 0.950 . S
H628 C633 0.950 . S
H629 C634 0.949 . S
H630 C636 0.950 . S
H631 C637 0.950 . S
H632 C638 0.949 . S
C633 H628 0.950 . S
C633 C635 1.327 . S
C633 C639 1.429 . S
C634 C626 1.574 . S
C634 H629 0.949 . S
C634 C640 1.368 . S
C635 C619 1.349 . S
C635 H627 0.950 . S
C635 C633 1.327 . S
C636 C624 1.349 . S
C636 H630 0.950 . S
C636 C637 1.327 . S
C637 H631 0.950 . S
C637 C636 1.327 . S
C637 C641 1.429 . S
C638 C621 1.574 . S
C638 H632 0.949 . S
C638 C642 1.368 . S
C639 C620 1.429 . S
C639 C633 1.429 . S
C639 C640 1.523 . S
C640 C621 1.368 . S
C640 C634 1.368 . S
C640 C639 1.523 . S
C641 C625 1.429 . S
C641 C637 1.429 . S
C641 C642 1.523 . S
C642 C626 1.368 . S
C642 C638 1.368 . S
C642 C641 1.523 . S
H643 C618 0.950 . S
H644 C620 0.950 . S
H645 C621 0.949 . S
H646 C623 0.950 . S
H647 C625 0.950 . S
C648 C649 1.349 . S
C648 C650 1.327 . S
C648 H673 0.950 . S
C649 C648 1.349 . S
C649 C665 1.349 . S
C650 C648 1.327 . S
C650 C669 1.429 . S
C650 H674 0.950 . S
C651 C668 1.574 . S
C651 C670 1.368 . S
C651 H675 0.949 . S
H652 C656 0.949 . S
C653 C654 1.349 . S
C653 C655 1.327 . S
C653 H676 0.950 . S
C654 C653 1.349 . S
C654 C666 1.349 . S
C655 C653 1.327 . S
C655 C671 1.429 . S
C655 H677 0.950 . S
C656 H652 0.949 . S
C656 C664 1.574 1_556 S
C656 C672 1.368 . S
H657 C665 0.950 . S
H658 C663 0.950 . S
H659 C664 0.949 . S
H660 C666 0.950 . S
H661 C667 0.950 . S
H662 C668 0.953 . S
C663 H658 0.950 . S
C663 C665 1.327 . S
C663 C669 1.429 . S
C664 C656 1.574 1_554 S
C664 H659 0.949 . S
C664 C670 1.368 . S
C665 C649 1.349 . S
C665 H657 0.950 . S
C665 C663 1.327 . S
C666 C654 1.349 . S
C666 H660 0.950 . S
C666 C667 1.327 . S
C667 H661 0.950 . S
C667 C666 1.327 . S
C667 C671 1.429 . S
C668 C651 1.574 . S
C668 H662 0.953 . S
C668 C672 1.368 1_554 S
C669 C650 1.429 . S
C669 C663 1.429 . S
C669 C670 1.523 . S
C670 C651 1.368 . S
C670 C664 1.368 . S
C670 C669 1.523 . S
C671 C655 1.429 . S
C671 C667 1.429 . S
C671 C672 1.523 . S
C672 C656 1.368 . S
C672 C668 1.368 1_556 S
C672 C671 1.523 . S
H673 C648 0.950 . S
H674 C650 0.950 . S
H675 C651 0.949 . S
H676 C653 0.950 . S
H677 C655 0.950 . S
C678 C679 1.349 . S
C678 C680 1.327 . S
C678 H703 0.950 . S
C679 C678 1.349 . S
C679 C695 1.349 . S
C680 C678 1.327 . S
C680 C699 1.429 . S
C680 H704 0.950 . S
C681 C698 1.574 1_556 S
C681 C700 1.368 . S
C681 H705 0.949 . S
H682 C686 0.949 . S
C683 C684 1.349 . S
C683 C685 1.327 . S
C683 H706 0.950 . S
C684 C683 1.349 . S
C684 C696 1.349 . S
C685 C683 1.327 . S
C685 C701 1.429 . S
C685 H707 0.950 . S
C686 H682 0.949 . S
C686 C694 1.574 1_554 S
C686 C702 1.368 . S
H687 C695 0.950 . S
H688 C693 0.950 . S
H689 C694 0.949 . S
H690 C696 0.950 . S
H691 C697 0.950 . S
H692 C698 0.949 . S
C693 H688 0.950 . S
C693 C695 1.327 . S
C693 C699 1.429 . S
C694 C686 1.574 1_556 S
C694 H689 0.949 . S
C694 C700 1.368 . S
C695 C679 1.349 . S
C695 H687 0.950 . S
C695 C693 1.327 . S
C696 C684 1.349 . S
C696 H690 0.950 . S
C696 C697 1.327 . S
C697 H691 0.950 . S
C697 C696 1.327 . S
C697 C701 1.429 . S
C698 C681 1.574 1_554 S
C698 H692 0.949 . S
C698 C702 1.368 . S
C699 C680 1.429 . S
C699 C693 1.429 . S
C699 C700 1.523 . S
C700 C681 1.368 . S
C700 C694 1.368 . S
C700 C699 1.523 . S
C701 C685 1.429 . S
C701 C697 1.429 . S
C701 C702 1.523 . S
C702 C686 1.368 . S
C702 C698 1.368 . S
C702 C701 1.523 . S
H703 C678 0.950 . S
H704 C680 0.950 . S
H705 C681 0.949 . S
H706 C683 0.950 . S
H707 C685 0.950 . S
C708 C709 1.349 . S
C708 C710 1.327 . S
C708 H733 0.950 . S
C709 C708 1.349 . S
C709 C725 1.349 . S
C710 C708 1.327 . S
C710 C729 1.429 . S
C710 H734 0.950 . S
C711 C728 1.574 . S
C711 C730 1.368 1_554 S
C711 H735 0.949 . S
H712 C716 0.949 . S
C713 C714 1.349 . S
C713 C715 1.327 . S
C713 H736 0.950 . S
C714 C713 1.349 . S
C714 C726 1.349 . S
C715 C713 1.327 . S
C715 C731 1.429 . S
C715 H737 0.950 . S
C716 H712 0.949 . S
C716 C724 1.574 1_554 S
C716 C732 1.368 . S
H717 C725 0.950 . S
H718 C723 0.950 . S
H719 C724 0.949 . S
H720 C726 0.950 . S
H721 C727 0.950 . S
H722 C728 0.949 . S
C723 H718 0.950 . S
C723 C725 1.327 . S
C723 C729 1.429 . S
C724 C716 1.574 1_556 S
C724 H719 0.949 . S
C724 C730 1.368 . S
C725 C709 1.349 . S
C725 H717 0.950 . S
C725 C723 1.327 . S
C726 C714 1.349 . S
C726 H720 0.950 . S
C726 C727 1.327 . S
C727 H721 0.950 . S
C727 C726 1.327 . S
C727 C731 1.429 . S
C728 C711 1.574 . S
C728 H722 0.949 . S
C728 C732 1.368 . S
C729 C710 1.429 . S
C729 C723 1.429 . S
C729 C730 1.523 . S
C730 C711 1.368 1_556 S
C730 C724 1.368 . S
C730 C729 1.523 . S
C731 C715 1.429 . S
C731 C727 1.429 . S
C731 C732 1.523 . S
C732 C716 1.368 . S
C732 C728 1.368 . S
C732 C731 1.523 . S
H733 C708 0.950 . S
H734 C710 0.950 . S
H735 C711 0.949 . S
H736 C713 0.950 . S
H737 C715 0.950 . S
C738 C739 1.349 . S
C738 C740 1.327 . S
C738 H763 0.950 . S
C739 C738 1.349 . S
C739 C755 1.349 . S
C740 C738 1.327 . S
C740 C759 1.429 . S
C740 H764 0.950 . S
C741 C758 1.574 . S
C741 C760 1.368 1_556 S
C741 H765 0.949 . S
H742 C746 0.949 . S
C743 C744 1.349 . S
C743 C745 1.327 . S
C743 H766 0.950 . S
C744 C743 1.349 . S
C744 C756 1.349 . S
C745 C743 1.327 . S
C745 C761 1.429 . S
C745 H767 0.950 . S
C746 H742 0.949 . S
C746 C754 1.574 1_556 S
C746 C762 1.368 . S
H747 C755 0.950 . S
H748 C753 0.950 . S
H749 C754 0.949 . S
H750 C756 0.950 . S
H751 C757 0.950 . S
H752 C758 0.949 . S
C753 H748 0.950 . S
C753 C755 1.327 . S
C753 C759 1.429 . S
C754 C746 1.574 1_554 S
C754 H749 0.949 . S
C754 C760 1.368 . S
C755 C739 1.349 . S
C755 H747 0.950 . S
C755 C753 1.327 . S
C756 C744 1.349 . S
C756 H750 0.950 . S
C756 C757 1.327 . S
C757 H751 0.950 . S
C757 C756 1.327 . S
C757 C761 1.429 . S
C758 C741 1.574 . S
C758 H752 0.949 . S
C758 C762 1.368 . S
C759 C740 1.429 . S
C759 C753 1.429 . S
C759 C760 1.523 . S
C760 C741 1.368 1_554 S
C760 C754 1.368 . S
C760 C759 1.523 . S
C761 C745 1.429 . S
C761 C757 1.429 . S
C761 C762 1.523 . S
C762 C746 1.368 . S
C762 C758 1.368 . S
C762 C761 1.523 . S
H763 C738 0.950 . S
H764 C740 0.950 . S
H765 C741 0.949 . S
H766 C743 0.950 . S
H767 C745 0.950 . S
C768 C769 1.349 . S
C768 C770 1.327 . S
C768 H793 0.950 . S
C769 C768 1.349 . S
C769 C785 1.349 . S
C770 C768 1.327 . S
C770 C789 1.429 . S
C770 H794 0.950 . S
C771 C788 1.574 . S
C771 C790 1.368 . S
C771 H795 0.949 . S
H772 C776 0.949 . S
C773 C774 1.349 . S
C773 C775 1.327 . S
C773 H796 0.950 . S
C774 C773 1.349 . S
C774 C786 1.349 . S
C775 C773 1.327 . S
C775 C791 1.429 . S
C775 H797 0.950 . S
C776 H772 0.949 . S
C776 C784 1.574 . S
C776 C792 1.368 . S
H777 C785 0.950 . S
H778 C783 0.950 . S
H779 C784 0.949 . S
H780 C786 0.950 . S
H781 C787 0.950 . S
H782 C788 0.949 . S
C783 H778 0.950 . S
C783 C785 1.327 . S
C783 C789 1.429 . S
C784 C776 1.574 . S
C784 H779 0.949 . S
C784 C790 1.368 . S
C785 C769 1.349 . S
C785 H777 0.950 . S
C785 C783 1.327 . S
C786 C774 1.349 . S
C786 H780 0.950 . S
C786 C787 1.327 . S
C787 H781 0.950 . S
C787 C786 1.327 . S
C787 C791 1.429 . S
C788 C771 1.574 . S
C788 H782 0.949 . S
C788 C792 1.368 . S
C789 C770 1.429 . S
C789 C783 1.429 . S
C789 C790 1.523 . S
C790 C771 1.368 . S
C790 C784 1.368 . S
C790 C789 1.523 . S
C791 C775 1.429 . S
C791 C787 1.429 . S
C791 C792 1.523 . S
C792 C776 1.368 . S
C792 C788 1.368 . S
C792 C791 1.523 . S
H793 C768 0.950 . S
H794 C770 0.950 . S
H795 C771 0.949 . S
H796 C773 0.950 . S
H797 C775 0.950 . S
C798 C799 1.349 . S
C798 C800 1.327 . S
C798 H823 0.950 . S
C799 C798 1.349 . S
C799 C815 1.349 . S
C800 C798 1.327 . S
C800 C819 1.429 . S
C800 H824 0.950 . S
C801 C818 1.574 . S
C801 C820 1.368 . S
C801 H825 0.949 . S
H802 C806 0.949 . S
C803 C804 1.349 . S
C803 C805 1.327 . S
C803 H826 0.950 . S
C804 C803 1.349 . S
C804 C816 1.349 . S
C805 C803 1.327 . S
C805 C821 1.429 . S
C805 H827 0.950 . S
C806 H802 0.949 . S
C806 C814 1.574 . S
C806 C822 1.368 . S
H807 C815 0.950 . S
H808 C813 0.950 . S
H809 C814 0.949 . S
H810 C816 0.950 . S
H811 C817 0.950 . S
H812 C818 0.949 . S
C813 H808 0.950 . S
C813 C815 1.327 . S
C813 C819 1.429 . S
C814 C806 1.574 . S
C814 H809 0.949 . S
C814 C820 1.368 . S
C815 C799 1.349 . S
C815 H807 0.950 . S
C815 C813 1.327 . S
C816 C804 1.349 . S
C816 H810 0.950 . S
C816 C817 1.327 . S
C817 H811 0.950 . S
C817 C816 1.327 . S
C817 C821 1.429 . S
C818 C801 1.574 . S
C818 H812 0.949 . S
C818 C822 1.368 . S
C819 C800 1.429 . S
C819 C813 1.429 . S
C819 C820 1.523 . S
C820 C801 1.368 . S
C820 C814 1.368 . S
C820 C819 1.523 . S
C821 C805 1.429 . S
C821 C817 1.429 . S
C821 C822 1.523 . S
C822 C806 1.368 . S
C822 C818 1.368 . S
C822 C821 1.523 . S
H823 C798 0.950 . S
H824 C800 0.950 . S
H825 C801 0.949 . S
H826 C803 0.950 . S
H827 C805 0.950 . S
C828 C829 1.349 . S
C828 C830 1.327 . S
C828 H853 0.950 . S
C829 C828 1.349 . S
C829 C845 1.349 . S
C830 C828 1.327 . S
C830 C849 1.429 . S
C830 H854 0.950 . S
C831 C848 1.574 . S
C831 C850 1.368 . S
C831 H855 0.949 . S
H832 C836 0.949 . S
C833 C834 1.349 . S
C833 C835 1.327 . S
C833 H856 0.950 . S
C834 C833 1.349 . S
C834 C846 1.349 . S
C835 C833 1.327 . S
C835 C851 1.429 . S
C835 H857 0.950 . S
C836 H832 0.949 . S
C836 C844 1.574 . S
C836 C852 1.368 . S
H837 C845 0.950 . S
H838 C843 0.950 . S
H839 C844 0.949 . S
H840 C846 0.950 . S
H841 C847 0.950 . S
H842 C848 0.949 . S
C843 H838 0.950 . S
C843 C845 1.327 . S
C843 C849 1.429 . S
C844 C836 1.574 . S
C844 H839 0.949 . S
C844 C850 1.368 . S
C845 C829 1.349 . S
C845 H837 0.950 . S
C845 C843 1.327 . S
C846 C834 1.349 . S
C846 H840 0.950 . S
C846 C847 1.327 . S
C847 H841 0.950 . S
C847 C846 1.327 . S
C847 C851 1.429 . S
C848 C831 1.574 . S
C848 H842 0.949 . S
C848 C852 1.368 . S
C849 C830 1.429 . S
C849 C843 1.429 . S
C849 C850 1.523 . S
C850 C831 1.368 . S
C850 C844 1.368 . S
C850 C849 1.523 . S
C851 C835 1.429 . S
C851 C847 1.429 . S
C851 C852 1.523 . S
C852 C836 1.368 . S
C852 C848 1.368 . S
C852 C851 1.523 . S
H853 C828 0.950 . S
H854 C830 0.950 . S
H855 C831 0.949 . S
H856 C833 0.950 . S
H857 C835 0.950 . S
C858 C859 1.349 . S
C858 C860 1.327 . S
C858 H883 0.950 . S
C859 C858 1.349 . S
C859 C875 1.349 . S
C860 C858 1.327 . S
C860 C879 1.429 . S
C860 H884 0.950 . S
C861 C878 1.574 . S
C861 C880 1.368 . S
C861 H885 0.949 . S
H862 C866 0.949 . S
C863 C864 1.349 . S
C863 C865 1.327 . S
C863 H886 0.950 . S
C864 C863 1.349 . S
C864 C876 1.349 . S
C865 C863 1.327 . S
C865 C881 1.429 . S
C865 H887 0.950 . S
C866 H862 0.949 . S
C866 C874 1.574 . S
C866 C882 1.368 . S
H867 C875 0.950 . S
H868 C873 0.950 . S
H869 C874 0.949 . S
H870 C876 0.950 . S
H871 C877 0.950 . S
H872 C878 0.949 . S
C873 H868 0.950 . S
C873 C875 1.327 . S
C873 C879 1.429 . S
C874 C866 1.574 . S
C874 H869 0.949 . S
C874 C880 1.368 . S
C875 C859 1.349 . S
C875 H867 0.950 . S
C875 C873 1.327 . S
C876 C864 1.349 . S
C876 H870 0.950 . S
C876 C877 1.327 . S
C877 H871 0.950 . S
C877 C876 1.327 . S
C877 C881 1.429 . S
C878 C861 1.574 . S
C878 H872 0.949 . S
C878 C882 1.368 . S
C879 C860 1.429 . S
C879 C873 1.429 . S
C879 C880 1.523 . S
C880 C861 1.368 . S
C880 C874 1.368 . S
C880 C879 1.523 . S
C881 C865 1.429 . S
C881 C877 1.429 . S
C881 C882 1.523 . S
C882 C866 1.368 . S
C882 C878 1.368 . S
C882 C881 1.523 . S
H883 C858 0.950 . S
H884 C860 0.950 . S
H885 C861 0.949 . S
H886 C863 0.950 . S
H887 C865 0.950 . S
C888 C889 1.349 . S
C888 C890 1.327 . S
C888 H913 0.950 . S
C889 C888 1.349 . S
C889 C905 1.349 . S
C890 C888 1.327 . S
C890 C909 1.429 . S
C890 H914 0.950 . S
C891 C908 1.574 . S
C891 C910 1.368 . S
C891 H915 0.949 . S
H892 C896 0.949 . S
C893 C894 1.349 . S
C893 C895 1.327 . S
C893 H916 0.950 . S
C894 C893 1.349 . S
C894 C906 1.349 . S
C895 C893 1.327 . S
C895 C911 1.429 . S
C895 H917 0.950 . S
C896 H892 0.949 . S
C896 C904 1.574 . S
C896 C912 1.368 . S
H897 C905 0.950 . S
H898 C903 0.950 . S
H899 C904 0.949 . S
H900 C906 0.950 . S
H901 C907 0.950 . S
H902 C908 0.949 . S
C903 H898 0.950 . S
C903 C905 1.327 . S
C903 C909 1.429 . S
C904 C896 1.574 . S
C904 H899 0.949 . S
C904 C910 1.368 . S
C905 C889 1.349 . S
C905 H897 0.950 . S
C905 C903 1.327 . S
C906 C894 1.349 . S
C906 H900 0.950 . S
C906 C907 1.327 . S
C907 H901 0.950 . S
C907 C906 1.327 . S
C907 C911 1.429 . S
C908 C891 1.574 . S
C908 H902 0.949 . S
C908 C912 1.368 . S
C909 C890 1.429 . S
C909 C903 1.429 . S
C909 C910 1.523 . S
C910 C891 1.368 . S
C910 C904 1.368 . S
C910 C909 1.523 . S
C911 C895 1.429 . S
C911 C907 1.429 . S
C911 C912 1.523 . S
C912 C896 1.368 . S
C912 C908 1.368 . S
C912 C911 1.523 . S
H913 C888 0.950 . S
H914 C890 0.950 . S
H915 C891 0.949 . S
H916 C893 0.950 . S
H917 C895 0.950 . S
C918 C919 1.349 . S
C918 C920 1.327 . S
C918 H943 0.950 . S
C919 C918 1.349 . S
C919 C935 1.349 . S
C920 C918 1.327 . S
C920 C939 1.429 . S
C920 H944 0.950 . S
C921 C938 1.574 . S
C921 C940 1.368 . S
C921 H945 0.949 . S
H922 C926 0.949 . S
C923 C924 1.349 . S
C923 C925 1.327 . S
C923 H946 0.950 . S
C924 C923 1.349 . S
C924 C936 1.349 . S
C925 C923 1.327 . S
C925 C941 1.429 . S
C925 H947 0.950 . S
C926 H922 0.949 . S
C926 C934 1.574 . S
C926 C942 1.368 . S
H927 C935 0.950 . S
H928 C933 0.950 . S
H929 C934 0.949 . S
H930 C936 0.950 . S
H931 C937 0.950 . S
H932 C938 0.949 . S
C933 H928 0.950 . S
C933 C935 1.327 . S
C933 C939 1.429 . S
C934 C926 1.574 . S
C934 H929 0.949 . S
C934 C940 1.368 . S
C935 C919 1.349 . S
C935 H927 0.950 . S
C935 C933 1.327 . S
C936 C924 1.349 . S
C936 H930 0.950 . S
C936 C937 1.327 . S
C937 H931 0.950 . S
C937 C936 1.327 . S
C937 C941 1.429 . S
C938 C921 1.574 . S
C938 H932 0.949 . S
C938 C942 1.368 . S
C939 C920 1.429 . S
C939 C933 1.429 . S
C939 C940 1.523 . S
C940 C921 1.368 . S
C940 C934 1.368 . S
C940 C939 1.523 . S
C941 C925 1.429 . S
C941 C937 1.429 . S
C941 C942 1.523 . S
C942 C926 1.368 . S
C942 C938 1.368 . S
C942 C941 1.523 . S
H943 C918 0.950 . S
H944 C920 0.950 . S
H945 C921 0.949 . S
H946 C923 0.950 . S
H947 C925 0.950 . S
C948 C949 1.349 . S
C948 C950 1.327 . S
C948 H973 0.950 . S
C949 C948 1.349 . S
C949 C965 1.349 . S
C950 C948 1.327 . S
C950 C969 1.429 . S
C950 H974 0.950 . S
C951 C968 1.574 . S
C951 C970 1.368 . S
C951 H975 0.949 . S
H952 C956 0.949 . S
C953 C954 1.349 . S
C953 C955 1.327 . S
C953 H976 0.950 . S
C954 C953 1.349 . S
C954 C966 1.349 . S
C955 C953 1.327 . S
C955 C971 1.429 . S
C955 H977 0.950 . S
C956 H952 0.949 . S
C956 C964 1.574 . S
C956 C972 1.368 . S
H957 C965 0.950 . S
H958 C963 0.950 . S
H959 C964 0.949 . S
H960 C966 0.950 . S
H961 C967 0.950 . S
H962 C968 0.949 . S
C963 H958 0.950 . S
C963 C965 1.327 . S
C963 C969 1.429 . S
C964 C956 1.574 . S
C964 H959 0.949 . S
C964 C970 1.368 . S
C965 C949 1.349 . S
C965 H957 0.950 . S
C965 C963 1.327 . S
C966 C954 1.349 . S
C966 H960 0.950 . S
C966 C967 1.327 . S
C967 H961 0.950 . S
C967 C966 1.327 . S
C967 C971 1.429 . S
C968 C951 1.574 . S
C968 H962 0.949 . S
C968 C972 1.368 . S
C969 C950 1.429 . S
C969 C963 1.429 . S
C969 C970 1.523 . S
C970 C951 1.368 . S
C970 C964 1.368 . S
C970 C969 1.523 . S
C971 C955 1.429 . S
C971 C967 1.429 . S
C971 C972 1.523 . S
C972 C956 1.368 . S
C972 C968 1.368 . S
C972 C971 1.523 . S
H973 C948 0.950 . S
H974 C950 0.950 . S
H975 C951 0.949 . S
H976 C953 0.950 . S
H977 C955 0.950 . S
C978 C979 1.349 . S
C978 C980 1.327 . S
C978 H1003 0.950 . S
C979 C978 1.349 . S
C979 C995 1.349 . S
C980 C978 1.327 . S
C980 C999 1.429 . S
C980 H1004 0.950 . S
C981 C998 1.574 . S
C981 C1000 1.368 . S
C981 H1005 0.949 . S
H982 C986 0.949 . S
C983 C984 1.349 . S
C983 C985 1.327 . S
C983 H1006 0.950 . S
C984 C983 1.349 . S
C984 C996 1.349 . S
C985 C983 1.327 . S
C985 C1001 1.429 . S
C985 H1007 0.950 . S
C986 H982 0.949 . S
C986 C994 1.574 . S
C986 C1002 1.368 . S
H987 C995 0.950 . S
H988 C993 0.950 . S
H989 C994 0.949 . S
H990 C996 0.950 . S
H991 C997 0.950 . S
H992 C998 0.949 . S
C993 H988 0.950 . S
C993 C995 1.327 . S
C993 C999 1.429 . S
C994 C986 1.574 . S
C994 H989 0.949 . S
C994 C1000 1.368 . S
C995 C979 1.349 . S
C995 H987 0.950 . S
C995 C993 1.327 . S
C996 C984 1.349 . S
C996 H990 0.950 . S
C996 C997 1.327 . S
C997 H991 0.950 . S
C997 C996 1.327 . S
C997 C1001 1.429 . S
C998 C981 1.574 . S
C998 H992 0.949 . S
C998 C1002 1.368 . S
C999 C980 1.429 . S
C999 C993 1.429 . S
C999 C1000 1.523 . S
C1000 C981 1.368 . S
C1000 C994 1.368 . S
C1000 C999 1.523 . S
C1001 C985 1.429 . S
C1001 C997 1.429 . S
C1001 C1002 1.523 . S
C1002 C986 1.368 . S
C1002 C998 1.368 . S
C1002 C1001 1.523 . S
H1003 C978 0.950 . S
H1004 C980 0.950 . S
H1005 C981 0.949 . S
H1006 C983 0.950 . S
H1007 C985 0.950 . S
C1008 C1009 1.349 1_655 S
C1008 C1010 1.327 . S
C1008 H1033 0.950 . S
C1009 C1008 1.349 1_455 S
C1009 C1025 1.349 . S
C1010 C1008 1.327 . S
C1010 C1029 1.429 1_655 S
C1010 H1034 0.950 . S
C1011 C1028 1.574 1_545 S
C1011 C1030 1.368 . S
C1011 H1035 0.949 . S
H1012 C1016 0.949 . S
C1013 C1014 1.349 1_455 S
C1013 C1015 1.327 . S
C1013 H1036 0.950 . S
C1014 C1013 1.349 1_655 S
C1014 C1026 1.349 . S
C1015 C1013 1.327 . S
C1015 C1031 1.429 1_455 S
C1015 H1037 0.950 . S
C1016 H1012 0.949 . S
C1016 C1024 1.574 1_565 S
C1016 C1032 1.368 . S
H1017 C1025 0.950 . S
H1018 C1023 0.950 . S
H1019 C1024 0.949 . S
H1020 C1026 0.950 . S
H1021 C1027 0.950 . S
H1022 C1028 0.949 . S
C1023 H1018 0.950 . S
C1023 C1025 1.327 . S
C1023 C1029 1.429 . S
C1024 C1016 1.574 1_545 S
C1024 H1019 0.949 . S
C1024 C1030 1.368 1_655 S
C1025 C1009 1.349 . S
C1025 H1017 0.950 . S
C1025 C1023 1.327 . S
C1026 C1014 1.349 . S
C1026 H1020 0.950 . S
C1026 C1027 1.327 . S
C1027 H1021 0.950 . S
C1027 C1026 1.327 . S
C1027 C1031 1.429 . S
C1028 C1011 1.574 1_565 S
C1028 H1022 0.949 . S
C1028 C1032 1.368 1_455 S
C1029 C1010 1.429 1_455 S
C1029 C1023 1.429 . S
C1029 C1030 1.523 . S
C1030 C1011 1.368 . S
C1030 C1024 1.368 1_455 S
C1030 C1029 1.523 . S
C1031 C1015 1.429 1_655 S
C1031 C1027 1.429 . S
C1031 C1032 1.523 . S
C1032 C1016 1.368 . S
C1032 C1028 1.368 1_655 S
C1032 C1031 1.523 . S
H1033 C1008 0.950 . S
H1034 C1010 0.950 . S
H1035 C1011 0.949 . S
H1036 C1013 0.950 . S
H1037 C1015 0.950 . S
C1038 C1039 1.349 1_545 S
C1038 C1040 1.327 . S
C1038 H1063 0.950 . S
C1039 C1038 1.349 1_565 S
C1039 C1055 1.349 . S
C1040 C1038 1.327 . S
C1040 C1059 1.429 1_545 S
C1040 H1064 0.950 . S
C1041 C1058 1.574 1_455 S
C1041 C1060 1.368 . S
C1041 H1065 0.949 . S
H1042 C1046 0.949 . S
C1043 C1044 1.349 1_565 S
C1043 C1045 1.327 . S
C1043 H1066 0.950 . S
C1044 C1043 1.349 1_545 S
C1044 C1056 1.349 . S
C1045 C1043 1.327 . S
C1045 C1061 1.429 1_565 S
C1045 H1067 0.950 . S
C1046 H1042 0.949 . S
C1046 C1054 1.574 1_655 S
C1046 C1062 1.368 . S
H1047 C1055 0.950 . S
H1048 C1053 0.950 . S
H1049 C1054 0.949 . S
H1050 C1056 0.950 . S
H1051 C1057 0.950 . S
H1052 C1058 0.949 . S
C1053 H1048 0.950 . S
C1053 C1055 1.327 . S
C1053 C1059 1.429 . S
C1054 C1046 1.574 1_455 S
C1054 H1049 0.949 . S
C1054 C1060 1.368 1_545 S
C1055 C1039 1.349 . S
C1055 H1047 0.950 . S
C1055 C1053 1.327 . S
C1056 C1044 1.349 . S
C1056 H1050 0.950 . S
C1056 C1057 1.327 . S
C1057 H1051 0.950 . S
C1057 C1056 1.327 . S
C1057 C1061 1.429 . S
C1058 C1041 1.574 1_655 S
C1058 H1052 0.949 . S
C1058 C1062 1.368 1_565 S
C1059 C1040 1.429 1_565 S
C1059 C1053 1.429 . S
C1059 C1060 1.523 . S
C1060 C1041 1.368 . S
C1060 C1054 1.368 1_565 S
C1060 C1059 1.523 . S
C1061 C1045 1.429 1_545 S
C1061 C1057 1.429 . S
C1061 C1062 1.523 . S
C1062 C1046 1.368 . S
C1062 C1058 1.368 1_545 S
C1062 C1061 1.523 . S
H1063 C1038 0.950 . S
H1064 C1040 0.950 . S
H1065 C1041 0.949 . S
H1066 C1043 0.950 . S
H1067 C1045 0.950 . S
C1068 C1069 1.349 . S
C1068 C1070 1.327 . S
C1068 H1093 0.950 . S
C1069 C1068 1.349 . S
C1069 C1085 1.349 1_655 S
C1070 C1068 1.327 . S
C1070 C1089 1.429 . S
C1070 H1094 0.950 . S
C1071 C1088 1.574 . S
C1071 C1090 1.368 1_455 S
C1071 H1095 0.949 . S
H1072 C1076 0.949 . S
C1073 C1074 1.349 . S
C1073 C1075 1.327 . S
C1073 H1096 0.950 . S
C1074 C1073 1.349 . S
C1074 C1086 1.349 1_455 S
C1075 C1073 1.327 . S
C1075 C1091 1.429 . S
C1075 H1097 0.950 . S
C1076 H1072 0.949 . S
C1076 C1084 1.574 . S
C1076 C1092 1.368 1_655 S
H1077 C1085 0.950 . S
H1078 C1083 0.950 . S
H1079 C1084 0.949 . S
H1080 C1086 0.950 . S
H1081 C1087 0.950 . S
H1082 C1088 0.949 . S
C1083 H1078 0.950 . S
C1083 C1085 1.327 . S
C1083 C1089 1.429 1_455 S
C1084 C1076 1.574 . S
C1084 H1079 0.949 . S
C1084 C1090 1.368 . S
C1085 C1069 1.349 1_455 S
C1085 H1077 0.950 . S
C1085 C1083 1.327 . S
C1086 C1074 1.349 1_655 S
C1086 H1080 0.950 . S
C1086 C1087 1.327 . S
C1087 H1081 0.950 . S
C1087 C1086 1.327 . S
C1087 C1091 1.429 1_655 S
C1088 C1071 1.574 . S
C1088 H1082 0.949 . S
C1088 C1092 1.368 . S
C1089 C1070 1.429 . S
C1089 C1083 1.429 1_655 S
C1089 C1090 1.523 . S
C1090 C1071 1.368 1_655 S
C1090 C1084 1.368 . S
C1090 C1089 1.523 . S
C1091 C1075 1.429 . S
C1091 C1087 1.429 1_455 S
C1091 C1092 1.523 . S
C1092 C1076 1.368 1_455 S
C1092 C1088 1.368 . S
C1092 C1091 1.523 . S
H1093 C1068 0.950 . S
H1094 C1070 0.950 . S
H1095 C1071 0.949 . S
H1096 C1073 0.950 . S
H1097 C1075 0.950 . S
C1098 C1099 1.349 1_565 S
C1098 C1100 1.327 . S
C1098 H1123 0.950 . S
C1099 C1098 1.349 1_545 S
C1099 C1115 1.349 . S
C1100 C1098 1.327 . S
C1100 C1119 1.429 1_565 S
C1100 H1124 0.950 . S
C1101 C1118 1.574 . S
C1101 C1120 1.368 . S
C1101 H1125 0.949 . S
H1102 C1106 0.949 . S
C1103 C1104 1.349 1_545 S
C1103 C1105 1.327 . S
C1103 H1126 0.950 . S
C1104 C1103 1.349 1_565 S
C1104 C1116 1.349 . S
C1105 C1103 1.327 . S
C1105 C1121 1.429 1_545 S
C1105 H1127 0.950 . S
C1106 H1102 0.949 . S
C1106 C1114 1.574 . S
C1106 C1122 1.368 . S
H1107 C1115 0.950 . S
H1108 C1113 0.950 . S
H1109 C1114 0.949 . S
H1110 C1116 0.950 . S
H1111 C1117 0.950 . S
H1112 C1118 0.949 . S
C1113 H1108 0.950 . S
C1113 C1115 1.327 . S
C1113 C1119 1.429 . S
C1114 C1106 1.574 . S
C1114 H1109 0.949 . S
C1114 C1120 1.368 1_565 S
C1115 C1099 1.349 . S
C1115 H1107 0.950 . S
C1115 C1113 1.327 . S
C1116 C1104 1.349 . S
C1116 H1110 0.950 . S
C1116 C1117 1.327 . S
C1117 H1111 0.950 . S
C1117 C1116 1.327 . S
C1117 C1121 1.429 . S
C1118 C1101 1.574 . S
C1118 H1112 0.949 . S
C1118 C1122 1.368 1_545 S
C1119 C1100 1.429 1_545 S
C1119 C1113 1.429 . S
C1119 C1120 1.523 . S
C1120 C1101 1.368 . S
C1120 C1114 1.368 1_545 S
C1120 C1119 1.523 . S
C1121 C1105 1.429 1_565 S
C1121 C1117 1.429 . S
C1121 C1122 1.523 . S
C1122 C1106 1.368 . S
C1122 C1118 1.368 1_565 S
C1122 C1121 1.523 . S
H1123 C1098 0.950 . S
H1124 C1100 0.950 . S
H1125 C1101 0.949 . S
H1126 C1103 0.950 . S
H1127 C1105 0.950 . S
C1128 C1129 1.349 . S
C1128 C1130 1.327 . S
C1128 H1153 0.950 . S
C1129 C1128 1.349 . S
C1129 C1145 1.349 . S
C1130 C1128 1.327 . S
C1130 C1149 1.429 . S
C1130 H1154 0.950 . S
C1131 C1148 1.574 . S
C1131 C1150 1.368 . S
C1131 H1155 0.949 . S
H1132 C1136 0.949 . S
C1133 C1134 1.349 . S
C1133 C1135 1.327 . S
C1133 H1156 0.950 . S
C1134 C1133 1.349 . S
C1134 C1146 1.349 . S
C1135 C1133 1.327 . S
C1135 C1151 1.429 . S
C1135 H1157 0.950 . S
C1136 H1132 0.949 . S
C1136 C1144 1.574 . S
C1136 C1152 1.368 . S
H1137 C1145 0.950 . S
H1138 C1143 0.950 . S
H1139 C1144 0.949 . S
H1140 C1146 0.950 . S
H1141 C1147 0.950 . S
H1142 C1148 0.949 . S
C1143 H1138 0.950 . S
C1143 C1145 1.327 . S
C1143 C1149 1.429 . S
C1144 C1136 1.574 . S
C1144 H1139 0.949 . S
C1144 C1150 1.368 . S
C1145 C1129 1.349 . S
C1145 H1137 0.950 . S
C1145 C1143 1.327 . S
C1146 C1134 1.349 . S
C1146 H1140 0.950 . S
C1146 C1147 1.327 . S
C1147 H1141 0.950 . S
C1147 C1146 1.327 . S
C1147 C1151 1.429 . S
C1148 C1131 1.574 . S
C1148 H1142 0.949 . S
C1148 C1152 1.368 . S
C1149 C1130 1.429 . S
C1149 C1143 1.429 . S
C1149 C1150 1.523 . S
C1150 C1131 1.368 . S
C1150 C1144 1.368 . S
C1150 C1149 1.523 . S
C1151 C1135 1.429 . S
C1151 C1147 1.429 . S
C1151 C1152 1.523 . S
C1152 C1136 1.368 . S
C1152 C1148 1.368 . S
C1152 C1151 1.523 . S
H1153 C1128 0.950 . S
H1154 C1130 0.950 . S
H1155 C1131 0.949 . S
H1156 C1133 0.950 . S
H1157 C1135 0.950 . S
C1158 C1159 1.349 . S
C1158 C1160 1.327 . S
C1158 H1183 0.950 . S
C1159 C1158 1.349 . S
C1159 C1175 1.349 . S
C1160 C1158 1.327 . S
C1160 C1179 1.429 . S
C1160 H1184 0.950 . S
C1161 C1178 1.574 . S
C1161 C1180 1.368 . S
C1161 H1185 0.949 . S
H1162 C1166 0.949 . S
C1163 C1164 1.349 . S
C1163 C1165 1.327 . S
C1163 H1186 0.950 . S
C1164 C1163 1.349 . S
C1164 C1176 1.349 . S
C1165 C1163 1.327 . S
C1165 C1181 1.429 . S
C1165 H1187 0.950 . S
C1166 H1162 0.949 . S
C1166 C1174 1.574 . S
C1166 C1182 1.368 . S
H1167 C1175 0.950 . S
H1168 C1173 0.950 . S
H1169 C1174 0.949 . S
H1170 C1176 0.950 . S
H1171 C1177 0.950 . S
H1172 C1178 0.949 . S
C1173 H1168 0.950 . S
C1173 C1175 1.327 . S
C1173 C1179 1.429 . S
C1174 C1166 1.574 . S
C1174 H1169 0.949 . S
C1174 C1180 1.368 . S
C1175 C1159 1.349 . S
C1175 H1167 0.950 . S
C1175 C1173 1.327 . S
C1176 C1164 1.349 . S
C1176 H1170 0.950 . S
C1176 C1177 1.327 . S
C1177 H1171 0.950 . S
C1177 C1176 1.327 . S
C1177 C1181 1.429 . S
C1178 C1161 1.574 . S
C1178 H1172 0.949 . S
C1178 C1182 1.368 . S
C1179 C1160 1.429 . S
C1179 C1173 1.429 . S
C1179 C1180 1.523 . S
C1180 C1161 1.368 . S
C1180 C1174 1.368 . S
C1180 C1179 1.523 . S
C1181 C1165 1.429 . S
C1181 C1177 1.429 . S
C1181 C1182 1.523 . S
C1182 C1166 1.368 . S
C1182 C1178 1.368 . S
C1182 C1181 1.523 . S
H1183 C1158 0.950 . S
H1184 C1160 0.950 . S
H1185 C1161 0.949 . S
H1186 C1163 0.950 . S
H1187 C1165 0.950 . S
C1188 C1189 1.349 . S
C1188 C1190 1.327 . S
C1188 H1213 0.950 . S
C1189 C1188 1.349 . S
C1189 C1205 1.349 . S
C1190 C1188 1.327 . S
C1190 C1209 1.429 . S
C1190 H1214 0.950 . S
C1191 C1208 1.574 1_565 S
C1191 C1210 1.368 . S
C1191 H1215 0.949 . S
H1192 C1196 0.949 . S
C1193 C1194 1.349 . S
C1193 C1195 1.327 . S
C1193 H1216 0.950 . S
C1194 C1193 1.349 . S
C1194 C1206 1.349 . S
C1195 C1193 1.327 . S
C1195 C1211 1.429 . S
C1195 H1217 0.950 . S
C1196 H1192 0.949 . S
C1196 C1204 1.574 1_545 S
C1196 C1212 1.368 . S
H1197 C1205 0.950 . S
H1198 C1203 0.950 . S
H1199 C1204 0.949 . S
H1200 C1206 0.950 . S
H1201 C1207 0.950 . S
H1202 C1208 0.949 . S
C1203 H1198 0.950 . S
C1203 C1205 1.327 . S
C1203 C1209 1.429 . S
C1204 C1196 1.574 1_565 S
C1204 H1199 0.949 . S
C1204 C1210 1.368 . S
C1205 C1189 1.349 . S
C1205 H1197 0.950 . S
C1205 C1203 1.327 . S
C1206 C1194 1.349 . S
C1206 H1200 0.950 . S
C1206 C1207 1.327 . S
C1207 H1201 0.950 . S
C1207 C1206 1.327 . S
C1207 C1211 1.429 . S
C1208 C1191 1.574 1_545 S
C1208 H1202 0.949 . S
C1208 C1212 1.368 . S
C1209 C1190 1.429 . S
C1209 C1203 1.429 . S
C1209 C1210 1.523 . S
C1210 C1191 1.368 . S
C1210 C1204 1.368 . S
C1210 C1209 1.523 . S
C1211 C1195 1.429 . S
C1211 C1207 1.429 . S
C1211 C1212 1.523 . S
C1212 C1196 1.368 . S
C1212 C1208 1.368 . S
C1212 C1211 1.523 . S
H1213 C1188 0.950 . S
H1214 C1190 0.950 . S
H1215 C1191 0.949 . S
H1216 C1193 0.950 . S
H1217 C1195 0.950 . S
C1218 C1219 1.349 . S
C1218 C1220 1.327 . S
C1218 H1243 0.950 . S
C1219 C1218 1.349 . S
C1219 C1235 1.349 . S
C1220 C1218 1.327 . S
C1220 C1239 1.429 . S
C1220 H1244 0.950 . S
C1221 C1238 1.574 1_455 S
C1221 C1240 1.368 . S
C1221 H1245 0.949 . S
H1222 C1226 0.949 . S
C1223 C1224 1.349 . S
C1223 C1225 1.327 . S
C1223 H1246 0.950 . S
C1224 C1223 1.349 . S
C1224 C1236 1.349 . S
C1225 C1223 1.327 . S
C1225 C1241 1.429 . S
C1225 H1247 0.950 . S
C1226 H1222 0.949 . S
C1226 C1234 1.574 1_655 S
C1226 C1242 1.368 . S
H1227 C1235 0.950 . S
H1228 C1233 0.950 . S
H1229 C1234 0.949 . S
H1230 C1236 0.950 . S
H1231 C1237 0.950 . S
H1232 C1238 0.949 . S
C1233 H1228 0.950 . S
C1233 C1235 1.327 . S
C1233 C1239 1.429 . S
C1234 C1226 1.574 1_455 S
C1234 H1229 0.949 . S
C1234 C1240 1.368 . S
C1235 C1219 1.349 . S
C1235 H1227 0.950 . S
C1235 C1233 1.327 . S
C1236 C1224 1.349 . S
C1236 H1230 0.950 . S
C1236 C1237 1.327 . S
C1237 H1231 0.950 . S
C1237 C1236 1.327 . S
C1237 C1241 1.429 . S
C1238 C1221 1.574 1_655 S
C1238 H1232 0.949 . S
C1238 C1242 1.368 . S
C1239 C1220 1.429 . S
C1239 C1233 1.429 . S
C1239 C1240 1.523 . S
C1240 C1221 1.368 . S
C1240 C1234 1.368 . S
C1240 C1239 1.523 . S
C1241 C1225 1.429 . S
C1241 C1237 1.429 . S
C1241 C1242 1.523 . S
C1242 C1226 1.368 . S
C1242 C1238 1.368 . S
C1242 C1241 1.523 . S
H1243 C1218 0.950 . S
H1244 C1220 0.950 . S
H1245 C1221 0.949 . S
H1246 C1223 0.950 . S
H1247 C1225 0.950 . S
C1248 C1249 1.349 1_655 S
C1248 C1250 1.327 . S
C1248 H1273 0.950 . S
C1249 C1248 1.349 1_455 S
C1249 C1265 1.349 . S
C1250 C1248 1.327 . S
C1250 C1269 1.429 1_655 S
C1250 H1274 0.950 . S
C1251 C1268 1.574 . S
C1251 C1270 1.368 . S
C1251 H1275 0.949 . S
H1252 C1256 0.949 . S
C1253 C1254 1.349 1_455 S
C1253 C1255 1.327 . S
C1253 H1276 0.950 . S
C1254 C1253 1.349 1_655 S
C1254 C1266 1.349 . S
C1255 C1253 1.327 . S
C1255 C1271 1.429 1_455 S
C1255 H1277 0.950 . S
C1256 H1252 0.949 . S
C1256 C1264 1.574 . S
C1256 C1272 1.368 . S
H1257 C1265 0.950 . S
H1258 C1263 0.950 . S
H1259 C1264 0.949 . S
H1260 C1266 0.950 . S
H1261 C1267 0.950 . S
H1262 C1268 0.949 . S
C1263 H1258 0.950 . S
C1263 C1265 1.327 . S
C1263 C1269 1.429 . S
C1264 C1256 1.574 . S
C1264 H1259 0.949 . S
C1264 C1270 1.368 1_655 S
C1265 C1249 1.349 . S
C1265 H1257 0.950 . S
C1265 C1263 1.327 . S
C1266 C1254 1.349 . S
C1266 H1260 0.950 . S
C1266 C1267 1.327 . S
C1267 H1261 0.950 . S
C1267 C1266 1.327 . S
C1267 C1271 1.429 . S
C1268 C1251 1.574 . S
C1268 H1262 0.949 . S
C1268 C1272 1.368 1_455 S
C1269 C1250 1.429 1_455 S
C1269 C1263 1.429 . S
C1269 C1270 1.523 . S
C1270 C1251 1.368 . S
C1270 C1264 1.368 1_455 S
C1270 C1269 1.523 . S
C1271 C1255 1.429 1_655 S
C1271 C1267 1.429 . S
C1271 C1272 1.523 . S
C1272 C1256 1.368 . S
C1272 C1268 1.368 1_655 S
C1272 C1271 1.523 . S
H1273 C1248 0.950 . S
H1274 C1250 0.950 . S
H1275 C1251 0.949 . S
H1276 C1253 0.950 . S
H1277 C1255 0.950 . S
C1278 C1279 1.349 1_565 S
C1278 C1280 1.327 . S
C1278 H1303 0.950 . S
C1279 C1278 1.349 1_545 S
C1279 C1295 1.349 . S
C1280 C1278 1.327 . S
C1280 C1299 1.429 1_565 S
C1280 H1304 0.950 . S
C1281 C1298 1.574 . S
C1281 C1300 1.368 . S
C1281 H1305 0.949 . S
H1282 C1286 0.949 . S
C1283 C1284 1.349 1_545 S
C1283 C1285 1.327 . S
C1283 H1306 0.950 . S
C1284 C1283 1.349 1_565 S
C1284 C1296 1.349 . S
C1285 C1283 1.327 . S
C1285 C1301 1.429 1_545 S
C1285 H1307 0.950 . S
C1286 H1282 0.949 . S
C1286 C1294 1.574 . S
C1286 C1302 1.368 . S
H1287 C1295 0.950 . S
H1288 C1293 0.950 . S
H1289 C1294 0.949 . S
H1290 C1296 0.950 . S
H1291 C1297 0.950 . S
H1292 C1298 0.949 . S
C1293 H1288 0.950 . S
C1293 C1295 1.327 . S
C1293 C1299 1.429 . S
C1294 C1286 1.574 . S
C1294 H1289 0.949 . S
C1294 C1300 1.368 1_565 S
C1295 C1279 1.349 . S
C1295 H1287 0.950 . S
C1295 C1293 1.327 . S
C1296 C1284 1.349 . S
C1296 H1290 0.950 . S
C1296 C1297 1.327 . S
C1297 H1291 0.950 . S
C1297 C1296 1.327 . S
C1297 C1301 1.429 . S
C1298 C1281 1.574 . S
C1298 H1292 0.949 . S
C1298 C1302 1.368 1_545 S
C1299 C1280 1.429 1_545 S
C1299 C1293 1.429 . S
C1299 C1300 1.523 . S
C1300 C1281 1.368 . S
C1300 C1294 1.368 1_545 S
C1300 C1299 1.523 . S
C1301 C1285 1.429 1_565 S
C1301 C1297 1.429 . S
C1301 C1302 1.523 . S
C1302 C1286 1.368 . S
C1302 C1298 1.368 1_565 S
C1302 C1301 1.523 . S
H1303 C1278 0.950 . S
H1304 C1280 0.950 . S
H1305 C1281 0.949 . S
H1306 C1283 0.950 . S
H1307 C1285 0.950 . S
C1308 C1309 1.349 1_455 S
C1308 C1310 1.327 . S
C1308 H1333 0.950 . S
C1309 C1308 1.349 1_655 S
C1309 C1325 1.349 . S
C1310 C1308 1.327 . S
C1310 C1329 1.429 1_455 S
C1310 H1334 0.950 . S
C1311 C1328 1.574 1_545 S
C1311 C1330 1.368 . S
C1311 H1335 0.949 . S
H1312 C1316 0.949 . S
C1313 C1314 1.349 1_655 S
C1313 C1315 1.327 . S
C1313 H1336 0.950 . S
C1314 C1313 1.349 1_455 S
C1314 C1326 1.349 . S
C1315 C1313 1.327 . S
C1315 C1331 1.429 1_655 S
C1315 H1337 0.950 . S
C1316 H1312 0.949 . S
C1316 C1324 1.574 1_565 S
C1316 C1332 1.368 . S
H1317 C1325 0.950 . S
H1318 C1323 0.950 . S
H1319 C1324 0.949 . S
H1320 C1326 0.950 . S
H1321 C1327 0.950 . S
H1322 C1328 0.949 . S
C1323 H1318 0.950 . S
C1323 C1325 1.327 . S
C1323 C1329 1.429 . S
C1324 C1316 1.574 1_545 S
C1324 H1319 0.949 . S
C1324 C1330 1.368 1_455 S
C1325 C1309 1.349 . S
C1325 H1317 0.950 . S
C1325 C1323 1.327 . S
C1326 C1314 1.349 . S
C1326 H1320 0.950 . S
C1326 C1327 1.327 . S
C1327 H1321 0.950 . S
C1327 C1326 1.327 . S
C1327 C1331 1.429 . S
C1328 C1311 1.574 1_565 S
C1328 H1322 0.949 . S
C1328 C1332 1.368 1_655 S
C1329 C1310 1.429 1_655 S
C1329 C1323 1.429 . S
C1329 C1330 1.523 . S
C1330 C1311 1.368 . S
C1330 C1324 1.368 1_655 S
C1330 C1329 1.523 . S
C1331 C1315 1.429 1_455 S
C1331 C1327 1.429 . S
C1331 C1332 1.523 . S
C1332 C1316 1.368 . S
C1332 C1328 1.368 1_455 S
C1332 C1331 1.523 . S
H1333 C1308 0.950 . S
H1334 C1310 0.950 . S
H1335 C1311 0.949 . S
H1336 C1313 0.950 . S
H1337 C1315 0.950 . S
C1338 C1339 1.349 1_545 S
C1338 C1340 1.327 . S
C1338 H1363 0.950 . S
C1339 C1338 1.349 1_565 S
C1339 C1355 1.349 . S
C1340 C1338 1.327 . S
C1340 C1359 1.429 1_545 S
C1340 H1364 0.950 . S
C1341 C1358 1.574 1_655 S
C1341 C1360 1.368 . S
C1341 H1365 0.949 . S
H1342 C1346 0.949 . S
C1343 C1344 1.349 1_565 S
C1343 C1345 1.327 . S
C1343 H1366 0.950 . S
C1344 C1343 1.349 1_545 S
C1344 C1356 1.349 . S
C1345 C1343 1.327 . S
C1345 C1361 1.429 1_565 S
C1345 H1367 0.950 . S
C1346 H1342 0.949 . S
C1346 C1354 1.574 1_455 S
C1346 C1362 1.368 . S
H1347 C1355 0.950 . S
H1348 C1353 0.950 . S
H1349 C1354 0.949 . S
H1350 C1356 0.950 . S
H1351 C1357 0.950 . S
H1352 C1358 0.949 . S
C1353 H1348 0.950 . S
C1353 C1355 1.327 . S
C1353 C1359 1.429 . S
C1354 C1346 1.574 1_655 S
C1354 H1349 0.949 . S
C1354 C1360 1.368 1_545 S
C1355 C1339 1.349 . S
C1355 H1347 0.950 . S
C1355 C1353 1.327 . S
C1356 C1344 1.349 . S
C1356 H1350 0.950 . S
C1356 C1357 1.327 . S
C1357 H1351 0.950 . S
C1357 C1356 1.327 . S
C1357 C1361 1.429 . S
C1358 C1341 1.574 1_455 S
C1358 H1352 0.949 . S
C1358 C1362 1.368 1_565 S
C1359 C1340 1.429 1_565 S
C1359 C1353 1.429 . S
C1359 C1360 1.523 . S
C1360 C1341 1.368 . S
C1360 C1354 1.368 1_565 S
C1360 C1359 1.523 . S
C1361 C1345 1.429 1_545 S
C1361 C1357 1.429 . S
C1361 C1362 1.523 . S
C1362 C1346 1.368 . S
C1362 C1358 1.368 1_545 S
C1362 C1361 1.523 . S
H1363 C1338 0.950 . S
H1364 C1340 0.950 . S
H1365 C1341 0.949 . S
H1366 C1343 0.950 . S
H1367 C1345 0.950 . S
C1368 C1369 1.349 . S
C1368 C1370 1.327 . S
C1368 H1393 0.950 . S
C1369 C1368 1.349 . S
C1369 C1385 1.349 . S
C1370 C1368 1.327 . S
C1370 C1389 1.429 . S
C1370 H1394 0.950 . S
C1371 C1388 1.574 1_545 S
C1371 C1390 1.368 . S
C1371 H1395 0.949 . S
H1372 C1376 0.949 . S
C1373 C1374 1.349 . S
C1373 C1375 1.327 . S
C1373 H1396 0.950 . S
C1374 C1373 1.349 . S
C1374 C1386 1.349 . S
C1375 C1373 1.327 . S
C1375 C1391 1.429 . S
C1375 H1397 0.950 . S
C1376 H1372 0.949 . S
C1376 C1384 1.574 1_565 S
C1376 C1392 1.368 . S
H1377 C1385 0.950 . S
H1378 C1383 0.950 . S
H1379 C1384 0.949 . S
H1380 C1386 0.950 . S
H1381 C1387 0.950 . S
H1382 C1388 0.949 . S
C1383 H1378 0.950 . S
C1383 C1385 1.327 . S
C1383 C1389 1.429 . S
C1384 C1376 1.574 1_545 S
C1384 H1379 0.949 . S
C1384 C1390 1.368 . S
C1385 C1369 1.349 . S
C1385 H1377 0.950 . S
C1385 C1383 1.327 . S
C1386 C1374 1.349 . S
C1386 H1380 0.950 . S
C1386 C1387 1.327 . S
C1387 H1381 0.950 . S
C1387 C1386 1.327 . S
C1387 C1391 1.429 . S
C1388 C1371 1.574 1_565 S
C1388 H1382 0.949 . S
C1388 C1392 1.368 . S
C1389 C1370 1.429 . S
C1389 C1383 1.429 . S
C1389 C1390 1.523 . S
C1390 C1371 1.368 . S
C1390 C1384 1.368 . S
C1390 C1389 1.523 . S
C1391 C1375 1.429 . S
C1391 C1387 1.429 . S
C1391 C1392 1.523 . S
C1392 C1376 1.368 . S
C1392 C1388 1.368 . S
C1392 C1391 1.523 . S
H1393 C1368 0.950 . S
H1394 C1370 0.950 . S
H1395 C1371 0.949 . S
H1396 C1373 0.950 . S
H1397 C1375 0.950 . S
C1398 C1399 1.349 . S
C1398 C1400 1.327 . S
C1398 H1423 0.950 . S
C1399 C1398 1.349 . S
C1399 C1415 1.349 . S
C1400 C1398 1.327 . S
C1400 C1419 1.429 . S
C1400 H1424 0.950 . S
C1401 C1418 1.574 1_655 S
C1401 C1420 1.368 . S
C1401 H1425 0.949 . S
H1402 C1406 0.949 . S
C1403 C1404 1.349 . S
C1403 C1405 1.327 . S
C1403 H1426 0.950 . S
C1404 C1403 1.349 . S
C1404 C1416 1.349 . S
C1405 C1403 1.327 . S
C1405 C1421 1.429 . S
C1405 H1427 0.950 . S
C1406 H1402 0.949 . S
C1406 C1414 1.574 1_455 S
C1406 C1422 1.368 . S
H1407 C1415 0.950 . S
H1408 C1413 0.950 . S
H1409 C1414 0.949 . S
H1410 C1416 0.950 . S
H1411 C1417 0.950 . S
H1412 C1418 0.949 . S
C1413 H1408 0.950 . S
C1413 C1415 1.327 . S
C1413 C1419 1.429 . S
C1414 C1406 1.574 1_655 S
C1414 H1409 0.949 . S
C1414 C1420 1.368 . S
C1415 C1399 1.349 . S
C1415 H1407 0.950 . S
C1415 C1413 1.327 . S
C1416 C1404 1.349 . S
C1416 H1410 0.950 . S
C1416 C1417 1.327 . S
C1417 H1411 0.950 . S
C1417 C1416 1.327 . S
C1417 C1421 1.429 . S
C1418 C1401 1.574 1_455 S
C1418 H1412 0.949 . S
C1418 C1422 1.368 . S
C1419 C1400 1.429 . S
C1419 C1413 1.429 . S
C1419 C1420 1.523 . S
C1420 C1401 1.368 . S
C1420 C1414 1.368 . S
C1420 C1419 1.523 . S
C1421 C1405 1.429 . S
C1421 C1417 1.429 . S
C1421 C1422 1.523 . S
C1422 C1406 1.368 . S
C1422 C1418 1.368 . S
C1422 C1421 1.523 . S
H1423 C1398 0.950 . S
H1424 C1400 0.950 . S
H1425 C1401 0.949 . S
H1426 C1403 0.950 . S
H1427 C1405 0.950 . S
C1428 C1429 1.349 . S
C1428 C1430 1.327 . S
C1428 H1453 0.950 . S
C1429 C1428 1.349 . S
C1429 C1445 1.349 . S
C1430 C1428 1.327 . S
C1430 C1449 1.429 . S
C1430 H1454 0.950 . S
C1431 C1448 1.574 . S
C1431 C1450 1.368 . S
C1431 H1455 0.949 . S
H1432 C1436 0.949 . S
C1433 C1434 1.349 . S
C1433 C1435 1.327 . S
C1433 H1456 0.950 . S
C1434 C1433 1.349 . S
C1434 C1446 1.349 . S
C1435 C1433 1.327 . S
C1435 C1451 1.429 . S
C1435 H1457 0.950 . S
C1436 H1432 0.949 . S
C1436 C1444 1.574 . S
C1436 C1452 1.368 . S
H1437 C1445 0.950 . S
H1438 C1443 0.950 . S
H1439 C1444 0.949 . S
H1440 C1446 0.950 . S
H1441 C1447 0.950 . S
H1442 C1448 0.949 . S
C1443 H1438 0.950 . S
C1443 C1445 1.327 . S
C1443 C1449 1.429 . S
C1444 C1436 1.574 . S
C1444 H1439 0.949 . S
C1444 C1450 1.368 . S
C1445 C1429 1.349 . S
C1445 H1437 0.950 . S
C1445 C1443 1.327 . S
C1446 C1434 1.349 . S
C1446 H1440 0.950 . S
C1446 C1447 1.327 . S
C1447 H1441 0.950 . S
C1447 C1446 1.327 . S
C1447 C1451 1.429 . S
C1448 C1431 1.574 . S
C1448 H1442 0.949 . S
C1448 C1452 1.368 . S
C1449 C1430 1.429 . S
C1449 C1443 1.429 . S
C1449 C1450 1.523 . S
C1450 C1431 1.368 . S
C1450 C1444 1.368 . S
C1450 C1449 1.523 . S
C1451 C1435 1.429 . S
C1451 C1447 1.429 . S
C1451 C1452 1.523 . S
C1452 C1436 1.368 . S
C1452 C1448 1.368 . S
C1452 C1451 1.523 . S
H1453 C1428 0.950 . S
H1454 C1430 0.950 . S
H1455 C1431 0.949 . S
H1456 C1433 0.950 . S
H1457 C1435 0.950 . S
C1458 C1459 1.349 . S
C1458 C1460 1.327 . S
C1458 H1483 0.950 . S
C1459 C1458 1.349 . S
C1459 C1475 1.349 . S
C1460 C1458 1.327 . S
C1460 C1479 1.429 . S
C1460 H1484 0.950 . S
C1461 C1478 1.574 . S
C1461 C1480 1.368 . S
C1461 H1485 0.949 . S
H1462 C1466 0.949 . S
C1463 C1464 1.349 . S
C1463 C1465 1.327 . S
C1463 H1486 0.950 . S
C1464 C1463 1.349 . S
C1464 C1476 1.349 . S
C1465 C1463 1.327 . S
C1465 C1481 1.429 . S
C1465 H1487 0.950 . S
C1466 H1462 0.949 . S
C1466 C1474 1.574 . S
C1466 C1482 1.368 . S
H1467 C1475 0.950 . S
H1468 C1473 0.950 . S
H1469 C1474 0.949 . S
H1470 C1476 0.950 . S
H1471 C1477 0.950 . S
H1472 C1478 0.949 . S
C1473 H1468 0.950 . S
C1473 C1475 1.327 . S
C1473 C1479 1.429 . S
C1474 C1466 1.574 . S
C1474 H1469 0.949 . S
C1474 C1480 1.368 . S
C1475 C1459 1.349 . S
C1475 H1467 0.950 . S
C1475 C1473 1.327 . S
C1476 C1464 1.349 . S
C1476 H1470 0.950 . S
C1476 C1477 1.327 . S
C1477 H1471 0.950 . S
C1477 C1476 1.327 . S
C1477 C1481 1.429 . S
C1478 C1461 1.574 . S
C1478 H1472 0.949 . S
C1478 C1482 1.368 . S
C1479 C1460 1.429 . S
C1479 C1473 1.429 . S
C1479 C1480 1.523 . S
C1480 C1461 1.368 . S
C1480 C1474 1.368 . S
C1480 C1479 1.523 . S
C1481 C1465 1.429 . S
C1481 C1477 1.429 . S
C1481 C1482 1.523 . S
C1482 C1466 1.368 . S
C1482 C1478 1.368 . S
C1482 C1481 1.523 . S
H1483 C1458 0.950 . S
H1484 C1460 0.950 . S
H1485 C1461 0.949 . S
H1486 C1463 0.950 . S
H1487 C1465 0.950 . S
C1488 C1489 1.349 . S
C1488 C1490 1.327 . S
C1488 H1513 0.950 . S
C1489 C1488 1.349 . S
C1489 C1505 1.349 . S
C1490 C1488 1.327 . S
C1490 C1509 1.429 . S
C1490 H1514 0.950 . S
C1491 C1508 1.574 . S
C1491 C1510 1.368 . S
C1491 H1515 0.949 . S
H1492 C1496 0.949 . S
C1493 C1494 1.349 . S
C1493 C1495 1.327 . S
C1493 H1516 0.950 . S
C1494 C1493 1.349 . S
C1494 C1506 1.349 . S
C1495 C1493 1.327 . S
C1495 C1511 1.429 . S
C1495 H1517 0.950 . S
C1496 H1492 0.949 . S
C1496 C1504 1.574 . S
C1496 C1512 1.368 . S
H1497 C1505 0.950 . S
H1498 C1503 0.950 . S
H1499 C1504 0.949 . S
H1500 C1506 0.950 . S
H1501 C1507 0.950 . S
H1502 C1508 0.949 . S
C1503 H1498 0.950 . S
C1503 C1505 1.327 . S
C1503 C1509 1.429 . S
C1504 C1496 1.574 . S
C1504 H1499 0.949 . S
C1504 C1510 1.368 . S
C1505 C1489 1.349 . S
C1505 H1497 0.950 . S
C1505 C1503 1.327 . S
C1506 C1494 1.349 . S
C1506 H1500 0.950 . S
C1506 C1507 1.327 . S
C1507 H1501 0.950 . S
C1507 C1506 1.327 . S
C1507 C1511 1.429 . S
C1508 C1491 1.574 . S
C1508 H1502 0.949 . S
C1508 C1512 1.368 . S
C1509 C1490 1.429 . S
C1509 C1503 1.429 . S
C1509 C1510 1.523 . S
C1510 C1491 1.368 . S
C1510 C1504 1.368 . S
C1510 C1509 1.523 . S
C1511 C1495 1.429 . S
C1511 C1507 1.429 . S
C1511 C1512 1.523 . S
C1512 C1496 1.368 . S
C1512 C1508 1.368 . S
C1512 C1511 1.523 . S
H1513 C1488 0.950 . S
H1514 C1490 0.950 . S
H1515 C1491 0.949 . S
H1516 C1493 0.950 . S
H1517 C1495 0.950 . S
C1518 C1519 1.349 . S
C1518 C1520 1.327 . S
C1518 H1543 0.950 . S
C1519 C1518 1.349 . S
C1519 C1535 1.349 . S
C1520 C1518 1.327 . S
C1520 C1539 1.429 . S
C1520 H1544 0.950 . S
C1521 C1538 1.574 . S
C1521 C1540 1.368 . S
C1521 H1545 0.949 . S
H1522 C1526 0.949 . S
C1523 C1524 1.349 . S
C1523 C1525 1.327 . S
C1523 H1546 0.950 . S
C1524 C1523 1.349 . S
C1524 C1536 1.349 . S
C1525 C1523 1.327 . S
C1525 C1541 1.429 . S
C1525 H1547 0.950 . S
C1526 H1522 0.949 . S
C1526 C1534 1.574 . S
C1526 C1542 1.368 . S
H1527 C1535 0.950 . S
H1528 C1533 0.950 . S
H1529 C1534 0.949 . S
H1530 C1536 0.950 . S
H1531 C1537 0.950 . S
H1532 C1538 0.949 . S
C1533 H1528 0.950 . S
C1533 C1535 1.327 . S
C1533 C1539 1.429 . S
C1534 C1526 1.574 . S
C1534 H1529 0.949 . S
C1534 C1540 1.368 . S
C1535 C1519 1.349 . S
C1535 H1527 0.950 . S
C1535 C1533 1.327 . S
C1536 C1524 1.349 . S
C1536 H1530 0.950 . S
C1536 C1537 1.327 . S
C1537 H1531 0.950 . S
C1537 C1536 1.327 . S
C1537 C1541 1.429 . S
C1538 C1521 1.574 . S
C1538 H1532 0.949 . S
C1538 C1542 1.368 . S
C1539 C1520 1.429 . S
C1539 C1533 1.429 . S
C1539 C1540 1.523 . S
C1540 C1521 1.368 . S
C1540 C1534 1.368 . S
C1540 C1539 1.523 . S
C1541 C1525 1.429 . S
C1541 C1537 1.429 . S
C1541 C1542 1.523 . S
C1542 C1526 1.368 . S
C1542 C1538 1.368 . S
C1542 C1541 1.523 . S
H1543 C1518 0.950 . S
H1544 C1520 0.950 . S
H1545 C1521 0.949 . S
H1546 C1523 0.950 . S
H1547 C1525 0.950 . S
C1548 C1549 1.349 . S
C1548 C1550 1.327 . S
C1548 H1573 0.950 . S
C1549 C1548 1.349 . S
C1549 C1565 1.349 . S
C1550 C1548 1.327 . S
C1550 C1569 1.429 . S
C1550 H1574 0.950 . S
C1551 C1568 1.574 . S
C1551 C1570 1.368 . S
C1551 H1575 0.949 . S
H1552 C1556 0.949 . S
C1553 C1554 1.349 . S
C1553 C1555 1.327 . S
C1553 H1576 0.950 . S
C1554 C1553 1.349 . S
C1554 C1566 1.349 . S
C1555 C1553 1.327 . S
C1555 C1571 1.429 . S
C1555 H1577 0.950 . S
C1556 H1552 0.949 . S
C1556 C1564 1.574 . S
C1556 C1572 1.368 . S
H1557 C1565 0.950 . S
H1558 C1563 0.950 . S
H1559 C1564 0.949 . S
H1560 C1566 0.950 . S
H1561 C1567 0.950 . S
H1562 C1568 0.949 . S
C1563 H1558 0.950 . S
C1563 C1565 1.327 . S
C1563 C1569 1.429 . S
C1564 C1556 1.574 . S
C1564 H1559 0.949 . S
C1564 C1570 1.368 . S
C1565 C1549 1.349 . S
C1565 H1557 0.950 . S
C1565 C1563 1.327 . S
C1566 C1554 1.349 . S
C1566 H1560 0.950 . S
C1566 C1567 1.327 . S
C1567 H1561 0.950 . S
C1567 C1566 1.327 . S
C1567 C1571 1.429 . S
C1568 C1551 1.574 . S
C1568 H1562 0.949 . S
C1568 C1572 1.368 . S
C1569 C1550 1.429 . S
C1569 C1563 1.429 . S
C1569 C1570 1.523 . S
C1570 C1551 1.368 . S
C1570 C1564 1.368 . S
C1570 C1569 1.523 . S
C1571 C1555 1.429 . S
C1571 C1567 1.429 . S
C1571 C1572 1.523 . S
C1572 C1556 1.368 . S
C1572 C1568 1.368 . S
C1572 C1571 1.523 . S
H1573 C1548 0.950 . S
H1574 C1550 0.950 . S
H1575 C1551 0.949 . S
H1576 C1553 0.950 . S
H1577 C1555 0.950 . S
C1578 C1579 1.349 . S
C1578 C1580 1.327 . S
C1578 H1603 0.950 . S
C1579 C1578 1.349 . S
C1579 C1595 1.349 . S
C1580 C1578 1.327 . S
C1580 C1599 1.429 . S
C1580 H1604 0.950 . S
C1581 C1598 1.574 . S
C1581 C1600 1.368 . S
C1581 H1605 0.949 . S
H1582 C1586 0.949 . S
C1583 C1584 1.349 . S
C1583 C1585 1.327 . S
C1583 H1606 0.950 . S
C1584 C1583 1.349 . S
C1584 C1596 1.349 . S
C1585 C1583 1.327 . S
C1585 C1601 1.429 . S
C1585 H1607 0.950 . S
C1586 H1582 0.949 . S
C1586 C1594 1.574 . S
C1586 C1602 1.368 . S
H1587 C1595 0.950 . S
H1588 C1593 0.950 . S
H1589 C1594 0.949 . S
H1590 C1596 0.950 . S
H1591 C1597 0.950 . S
H1592 C1598 0.949 . S
C1593 H1588 0.950 . S
C1593 C1595 1.327 . S
C1593 C1599 1.429 . S
C1594 C1586 1.574 . S
C1594 H1589 0.949 . S
C1594 C1600 1.368 . S
C1595 C1579 1.349 . S
C1595 H1587 0.950 . S
C1595 C1593 1.327 . S
C1596 C1584 1.349 . S
C1596 H1590 0.950 . S
C1596 C1597 1.327 . S
C1597 H1591 0.950 . S
C1597 C1596 1.327 . S
C1597 C1601 1.429 . S
C1598 C1581 1.574 . S
C1598 H1592 0.949 . S
C1598 C1602 1.368 . S
C1599 C1580 1.429 . S
C1599 C1593 1.429 . S
C1599 C1600 1.523 . S
C1600 C1581 1.368 . S
C1600 C1594 1.368 . S
C1600 C1599 1.523 . S
C1601 C1585 1.429 . S
C1601 C1597 1.429 . S
C1601 C1602 1.523 . S
C1602 C1586 1.368 . S
C1602 C1598 1.368 . S
C1602 C1601 1.523 . S
H1603 C1578 0.950 . S
H1604 C1580 0.950 . S
H1605 C1581 0.949 . S
H1606 C1583 0.950 . S
H1607 C1585 0.950 . S
C1608 C1609 1.349 . S
C1608 C1610 1.327 . S
C1608 H1633 0.950 . S
C1609 C1608 1.349 . S
C1609 C1625 1.349 . S
C1610 C1608 1.327 . S
C1610 C1629 1.429 . S
C1610 H1634 0.950 . S
C1611 C1628 1.574 . S
C1611 C1630 1.368 . S
C1611 H1635 0.949 . S
H1612 C1616 0.949 . S
C1613 C1614 1.349 . S
C1613 C1615 1.327 . S
C1613 H1636 0.950 . S
C1614 C1613 1.349 . S
C1614 C1626 1.349 . S
C1615 C1613 1.327 . S
C1615 C1631 1.429 . S
C1615 H1637 0.950 . S
C1616 H1612 0.949 . S
C1616 C1624 1.574 . S
C1616 C1632 1.368 . S
H1617 C1625 0.950 . S
H1618 C1623 0.950 . S
H1619 C1624 0.949 . S
H1620 C1626 0.950 . S
H1621 C1627 0.950 . S
H1622 C1628 0.949 . S
C1623 H1618 0.950 . S
C1623 C1625 1.327 . S
C1623 C1629 1.429 . S
C1624 C1616 1.574 . S
C1624 H1619 0.949 . S
C1624 C1630 1.368 . S
C1625 C1609 1.349 . S
C1625 H1617 0.950 . S
C1625 C1623 1.327 . S
C1626 C1614 1.349 . S
C1626 H1620 0.950 . S
C1626 C1627 1.327 . S
C1627 H1621 0.950 . S
C1627 C1626 1.327 . S
C1627 C1631 1.429 . S
C1628 C1611 1.574 . S
C1628 H1622 0.949 . S
C1628 C1632 1.368 . S
C1629 C1610 1.429 . S
C1629 C1623 1.429 . S
C1629 C1630 1.523 . S
C1630 C1611 1.368 . S
C1630 C1624 1.368 . S
C1630 C1629 1.523 . S
C1631 C1615 1.429 . S
C1631 C1627 1.429 . S
C1631 C1632 1.523 . S
C1632 C1616 1.368 . S
C1632 C1628 1.368 . S
C1632 C1631 1.523 . S
H1633 C1608 0.950 . S
H1634 C1610 0.950 . S
H1635 C1611 0.949 . S
H1636 C1613 0.950 . S
H1637 C1615 0.950 . S
C1638 C1639 1.349 . S
C1638 C1640 1.327 . S
C1638 H1663 0.950 . S
C1639 C1638 1.349 . S
C1639 C1655 1.349 . S
C1640 C1638 1.327 . S
C1640 C1659 1.429 . S
C1640 H1664 0.950 . S
C1641 C1658 1.574 . S
C1641 C1660 1.368 . S
C1641 H1665 0.949 . S
H1642 C1646 0.949 . S
C1643 C1644 1.349 . S
C1643 C1645 1.327 . S
C1643 H1666 0.950 . S
C1644 C1643 1.349 . S
C1644 C1656 1.349 . S
C1645 C1643 1.327 . S
C1645 C1661 1.429 . S
C1645 H1667 0.950 . S
C1646 H1642 0.949 . S
C1646 C1654 1.574 . S
C1646 C1662 1.368 . S
H1647 C1655 0.950 . S
H1648 C1653 0.950 . S
H1649 C1654 0.949 . S
H1650 C1656 0.950 . S
H1651 C1657 0.950 . S
H1652 C1658 0.949 . S
C1653 H1648 0.950 . S
C1653 C1655 1.327 . S
C1653 C1659 1.429 . S
C1654 C1646 1.574 . S
C1654 H1649 0.949 . S
C1654 C1660 1.368 . S
C1655 C1639 1.349 . S
C1655 H1647 0.950 . S
C1655 C1653 1.327 . S
C1656 C1644 1.349 . S
C1656 H1650 0.950 . S
C1656 C1657 1.327 . S
C1657 H1651 0.950 . S
C1657 C1656 1.327 . S
C1657 C1661 1.429 . S
C1658 C1641 1.574 . S
C1658 H1652 0.949 . S
C1658 C1662 1.368 . S
C1659 C1640 1.429 . S
C1659 C1653 1.429 . S
C1659 C1660 1.523 . S
C1660 C1641 1.368 . S
C1660 C1654 1.368 . S
C1660 C1659 1.523 . S
C1661 C1645 1.429 . S
C1661 C1657 1.429 . S
C1661 C1662 1.523 . S
C1662 C1646 1.368 . S
C1662 C1658 1.368 . S
C1662 C1661 1.523 . S
H1663 C1638 0.950 . S
H1664 C1640 0.950 . S
H1665 C1641 0.949 . S
H1666 C1643 0.950 . S
H1667 C1645 0.950 . S
C1668 C1669 1.349 . S
C1668 C1670 1.327 . S
C1668 H1693 0.950 . S
C1669 C1668 1.349 . S
C1669 C1685 1.349 . S
C1670 C1668 1.327 . S
C1670 C1689 1.429 . S
C1670 H1694 0.950 . S
C1671 C1688 1.574 . S
C1671 C1690 1.368 . S
C1671 H1695 0.949 . S
H1672 C1676 0.949 . S
C1673 C1674 1.349 . S
C1673 C1675 1.327 . S
C1673 H1696 0.950 . S
C1674 C1673 1.349 . S
C1674 C1686 1.349 . S
C1675 C1673 1.327 . S
C1675 C1691 1.429 . S
C1675 H1697 0.950 . S
C1676 H1672 0.949 . S
C1676 C1684 1.574 . S
C1676 C1692 1.368 . S
H1677 C1685 0.950 . S
H1678 C1683 0.950 . S
H1679 C1684 0.949 . S
H1680 C1686 0.950 . S
H1681 C1687 0.950 . S
H1682 C1688 0.949 . S
C1683 H1678 0.950 . S
C1683 C1685 1.327 . S
C1683 C1689 1.429 . S
C1684 C1676 1.574 . S
C1684 H1679 0.949 . S
C1684 C1690 1.368 . S
C1685 C1669 1.349 . S
C1685 H1677 0.950 . S
C1685 C1683 1.327 . S
C1686 C1674 1.349 . S
C1686 H1680 0.950 . S
C1686 C1687 1.327 . S
C1687 H1681 0.950 . S
C1687 C1686 1.327 . S
C1687 C1691 1.429 . S
C1688 C1671 1.574 . S
C1688 H1682 0.949 . S
C1688 C1692 1.368 . S
C1689 C1670 1.429 . S
C1689 C1683 1.429 . S
C1689 C1690 1.523 . S
C1690 C1671 1.368 . S
C1690 C1684 1.368 . S
C1690 C1689 1.523 . S
C1691 C1675 1.429 . S
C1691 C1687 1.429 . S
C1691 C1692 1.523 . S
C1692 C1676 1.368 . S
C1692 C1688 1.368 . S
C1692 C1691 1.523 . S
H1693 C1668 0.950 . S
H1694 C1670 0.950 . S
H1695 C1671 0.949 . S
H1696 C1673 0.950 . S
H1697 C1675 0.950 . S
C1698 C1699 1.349 . S
C1698 C1700 1.327 . S
C1698 H1723 0.950 . S
C1699 C1698 1.349 . S
C1699 C1715 1.349 . S
C1700 C1698 1.327 . S
C1700 C1719 1.429 . S
C1700 H1724 0.950 . S
C1701 C1718 1.574 . S
C1701 C1720 1.368 . S
C1701 H1725 0.949 . S
H1702 C1706 0.949 . S
C1703 C1704 1.349 . S
C1703 C1705 1.327 . S
C1703 H1726 0.950 . S
C1704 C1703 1.349 . S
C1704 C1716 1.349 . S
C1705 C1703 1.327 . S
C1705 C1721 1.429 . S
C1705 H1727 0.950 . S
C1706 H1702 0.949 . S
C1706 C1714 1.574 . S
C1706 C1722 1.368 . S
H1707 C1715 0.950 . S
H1708 C1713 0.950 . S
H1709 C1714 0.949 . S
H1710 C1716 0.950 . S
H1711 C1717 0.950 . S
H1712 C1718 0.949 . S
C1713 H1708 0.950 . S
C1713 C1715 1.327 . S
C1713 C1719 1.429 . S
C1714 C1706 1.574 . S
C1714 H1709 0.949 . S
C1714 C1720 1.368 . S
C1715 C1699 1.349 . S
C1715 H1707 0.950 . S
C1715 C1713 1.327 . S
C1716 C1704 1.349 . S
C1716 H1710 0.950 . S
C1716 C1717 1.327 . S
C1717 H1711 0.950 . S
C1717 C1716 1.327 . S
C1717 C1721 1.429 . S
C1718 C1701 1.574 . S
C1718 H1712 0.949 . S
C1718 C1722 1.368 . S
C1719 C1700 1.429 . S
C1719 C1713 1.429 . S
C1719 C1720 1.523 . S
C1720 C1701 1.368 . S
C1720 C1714 1.368 . S
C1720 C1719 1.523 . S
C1721 C1705 1.429 . S
C1721 C1717 1.429 . S
C1721 C1722 1.523 . S
C1722 C1706 1.368 . S
C1722 C1718 1.368 . S
C1722 C1721 1.523 . S
H1723 C1698 0.950 . S
H1724 C1700 0.950 . S
H1725 C1701 0.949 . S
H1726 C1703 0.950 . S
H1727 C1705 0.950 . S
C529 C21 0.471 . S
C534 N365 0.445 . S
C559 N266 0.445 . S
C564 C54 0.471 . S
C589 N299 0.445 . S
C594 C87 0.471 . S
C619 N332 0.445 . S
C624 C120 0.471 . S
C649 N167 0.445 . S
C654 C153 0.471 . S
C679 N200 0.445 . S
C684 C186 0.471 . S
C709 C219 0.471 . S
C714 N233 0.445 . S
C739 C252 0.471 . S
C744 N134 0.445 . S
C769 C285 0.471 . S
C774 N101 0.445 . S
C799 C318 0.471 . S
C804 N2 0.445 . S
C829 N35 0.445 . S
C834 C351 0.471 . S
C859 C384 0.471 . S
C864 N68 0.445 . S
C889 N431 0.445 . S
C894 C417 0.471 . S
C919 N464 0.445 . S
C924 C450 0.471 . S
C949 N497 0.445 . S
C954 C483 0.471 . S
C979 C516 0.471 . S
C984 N398 0.445 . S
C1009 C18 1.085 . S
C1014 C84 1.085 . S
C1039 C51 1.085 . S
C1044 C117 1.085 . S
C1069 C216 1.085 . S
C1074 C150 1.085 . S
C1099 C249 1.085 . S
C1104 C183 1.085 . S
C1129 C348 1.085 . S
C1134 C282 1.085 . S
C1159 C315 1.085 . S
C1164 C381 1.085 . S
C1189 C414 1.085 . S
C1194 C480 1.085 . S
C1219 C513 1.085 . S
C1224 C447 1.085 . S
C1249 C73 0.830 1_455 S
C1254 C7 0.830 1_655 S
C1279 C40 0.830 1_545 S
C1284 C106 0.830 1_565 S
C1309 C139 0.830 1_655 S
C1314 C205 0.830 1_455 S
C1339 C238 0.830 1_565 S
C1344 C172 0.830 1_545 S
C1369 C337 0.830 . S
C1374 C271 0.830 . S
C1399 C304 0.830 . S
C1404 C370 0.830 . S
C1429 C403 0.830 . S
C1434 C469 0.830 . S
C1459 C502 0.830 . S
C1464 C436 0.830 . S
C1489 N475 1.659 . S
C1494 N13 1.659 . S
C1519 N46 1.659 . S
C1524 N508 1.659 . S
C1549 N79 1.659 . S
C1554 N409 1.659 . S
C1579 N112 1.659 . S
C1584 N442 1.659 . S
C1609 N145 1.659 . S
C1614 N343 1.659 . S
C1639 N376 1.659 . S
C1644 N178 1.659 . S
C1669 N211 1.659 . S
C1674 N277 1.659 . S
C1699 N244 1.659 . S
C1704 N310 1.659 . S
