# Generated by pormake.
# Topology neb, (4)-cn, num edge types: 1
# Building blocks:
#     Node 0, Type 0, BuildingBlock: QUQFOY_clean_sbu_3, # of connection points: 4
#     Node 1, Type 0, BuildingBlock: QUQFOY_clean_sbu_3, # of connection points: 4
#     Node 2, Type 0, BuildingBlock: QUQFOY_clean_sbu_3, # of connection points: 4
#     Node 3, Type 0, BuildingBlock: QUQFOY_clean_sbu_3, # of connection points: 4
#     Node 4, Type 0, BuildingBlock: QUQFOY_clean_sbu_3, # of connection points: 4
#     Node 5, Type 0, BuildingBlock: QUQFOY_clean_sbu_3, # of connection points: 4
#     Node 6, Type 0, BuildingBlock: QUQFOY_clean_sbu_3, # of connection points: 4
#     Node 7, Type 0, BuildingBlock: QUQFOY_clean_sbu_3, # of connection points: 4
#     Node 8, Type 0, BuildingBlock: QUQFOY_clean_sbu_3, # of connection points: 4
#     Node 9, Type 0, BuildingBlock: QUQFOY_clean_sbu_3, # of connection points: 4
#     Node 10, Type 0, BuildingBlock: QUQFOY_clean_sbu_3, # of connection points: 4
#     Node 11, Type 0, BuildingBlock: QUQFOY_clean_sbu_3, # of connection points: 4
#     Node 12, Type 0, BuildingBlock: QUQFOY_clean_sbu_3, # of connection points: 4
#     Node 13, Type 0, BuildingBlock: QUQFOY_clean_sbu_3, # of connection points: 4
#     Node 14, Type 0, BuildingBlock: QUQFOY_clean_sbu_3, # of connection points: 4
#     Node 15, Type 0, BuildingBlock: QUQFOY_clean_sbu_3, # of connection points: 4
#     Edge 16, Type (0, 0), BuildingBlock: KIFKEQ_clean_linker_1, # of connection points: 2
#     Edge 17, Type (0, 0), BuildingBlock: KIFKEQ_clean_linker_1, # of connection points: 2
#     Edge 18, Type (0, 0), BuildingBlock: KIFKEQ_clean_linker_1, # of connection points: 2
#     Edge 19, Type (0, 0), BuildingBlock: KIFKEQ_clean_linker_1, # of connection points: 2
#     Edge 20, Type (0, 0), BuildingBlock: KIFKEQ_clean_linker_1, # of connection points: 2
#     Edge 21, Type (0, 0), BuildingBlock: KIFKEQ_clean_linker_1, # of connection points: 2
#     Edge 22, Type (0, 0), BuildingBlock: KIFKEQ_clean_linker_1, # of connection points: 2
#     Edge 23, Type (0, 0), BuildingBlock: KIFKEQ_clean_linker_1, # of connection points: 2
#     Edge 24, Type (0, 0), BuildingBlock: KIFKEQ_clean_linker_1, # of connection points: 2
#     Edge 25, Type (0, 0), BuildingBlock: KIFKEQ_clean_linker_1, # of connection points: 2
#     Edge 26, Type (0, 0), BuildingBlock: KIFKEQ_clean_linker_1, # of connection points: 2
#     Edge 27, Type (0, 0), BuildingBlock: KIFKEQ_clean_linker_1, # of connection points: 2
#     Edge 28, Type (0, 0), BuildingBlock: KIFKEQ_clean_linker_1, # of connection points: 2
#     Edge 29, Type (0, 0), BuildingBlock: KIFKEQ_clean_linker_1, # of connection points: 2
#     Edge 30, Type (0, 0), BuildingBlock: KIFKEQ_clean_linker_1, # of connection points: 2
#     Edge 31, Type (0, 0), BuildingBlock: KIFKEQ_clean_linker_1, # of connection points: 2
#     Edge 32, Type (0, 0), BuildingBlock: KIFKEQ_clean_linker_1, # of connection points: 2
#     Edge 33, Type (0, 0), BuildingBlock: KIFKEQ_clean_linker_1, # of connection points: 2
#     Edge 34, Type (0, 0), BuildingBlock: KIFKEQ_clean_linker_1, # of connection points: 2
#     Edge 35, Type (0, 0), BuildingBlock: KIFKEQ_clean_linker_1, # of connection points: 2
#     Edge 36, Type (0, 0), BuildingBlock: KIFKEQ_clean_linker_1, # of connection points: 2
#     Edge 37, Type (0, 0), BuildingBlock: KIFKEQ_clean_linker_1, # of connection points: 2
#     Edge 38, Type (0, 0), BuildingBlock: KIFKEQ_clean_linker_1, # of connection points: 2
#     Edge 39, Type (0, 0), BuildingBlock: KIFKEQ_clean_linker_1, # of connection points: 2
#     Edge 40, Type (0, 0), BuildingBlock: KIFKEQ_clean_linker_1, # of connection points: 2
#     Edge 41, Type (0, 0), BuildingBlock: KIFKEQ_clean_linker_1, # of connection points: 2
#     Edge 42, Type (0, 0), BuildingBlock: KIFKEQ_clean_linker_1, # of connection points: 2
#     Edge 43, Type (0, 0), BuildingBlock: KIFKEQ_clean_linker_1, # of connection points: 2
#     Edge 44, Type (0, 0), BuildingBlock: KIFKEQ_clean_linker_1, # of connection points: 2
#     Edge 45, Type (0, 0), BuildingBlock: KIFKEQ_clean_linker_1, # of connection points: 2
#     Edge 46, Type (0, 0), BuildingBlock: KIFKEQ_clean_linker_1, # of connection points: 2
#     Edge 47, Type (0, 0), BuildingBlock: KIFKEQ_clean_linker_1, # of connection points: 2
# Relax obj value: 0.002
# Max RMSD: 0.027
# Mean RMSD: 0.027
data_MOF--net-neb--node1-QUQFOY_clean_sbu_3--edge1-KIFKEQ_clean_linker_1
_symmetry_space_group_name_H-M    P1
_symmetry_Int_Tables_number       1
_symmetry_cell_setting            triclinic
loop_
_symmetry_equiv_pos_as_xyz
'x, y, z'
_cell_length_a     44.286697
_cell_length_b     23.732306
_cell_length_c     80.636367
_cell_angle_alpha  89.960162
_cell_angle_beta   93.580163
_cell_angle_gamma 90.118536
loop_
_atom_site_label
_atom_site_type_symbol
_atom_site_fract_x
_atom_site_fract_y
_atom_site_fract_z
_atom_type_partial_charge
C0 C 0.20484 0.0985 0.44688 0.0
O1 O 0.21891 0.07835 0.43501 0.0
Cd2 Cd 0.19214 0.03561 0.41113 0.0
O3 O 0.17625 0.09371 0.44687 0.0
Cd4 Cd 0.13389 0.053 0.42976 0.0
C5 C 0.14464 0.14388 0.39887 0.0
O6 O 0.1542 0.96712 0.41715 0.0
O7 O 0.1127 0.0035 0.40621 0.0
O8 O 0.11338 0.00474 0.45309 0.0
C9 C 0.13157 0.96339 0.40664 0.0
O10 O 0.1672 0.11283 0.39611 0.0
C11 C 0.0887 0.03193 0.45264 0.0
O12 O 0.12891 0.1347 0.4113 0.0
O13 O 0.0852 0.07032 0.44169 0.0
C14 C 0.04181 0.09142 0.78994 0.0
O15 O 0.0268 0.0679 0.80094 0.0
Cd16 Cd 0.05061 0.01023 0.82281 0.0
O17 O 0.07022 0.0839 0.78984 0.0
Cd18 Cd 0.1106 0.03276 0.80574 0.0
C19 C 0.10024 0.10625 0.84064 0.0
O20 O 0.0855 0.94293 0.81265 0.0
O21 O 0.12899 0.96299 0.82505 0.0
O22 O 0.1314 0.00757 0.77953 0.0
C23 C 0.10777 0.92776 0.82234 0.0
O24 O 0.07714 0.07493 0.84199 0.0
C25 C 0.15791 0.02548 0.7835 0.0
O26 O 0.11563 0.10338 0.82783 0.0
O27 O 0.16218 0.04855 0.79766 0.0
C28 C 0.81285 0.86921 0.54277 0.0
O29 O 0.79867 0.89331 0.554 0.0
Cd30 Cd 0.82335 0.95182 0.57551 0.0
O31 O 0.84101 0.87795 0.54166 0.0
Cd32 Cd 0.88249 0.93363 0.5551 0.0
C33 C 0.87753 0.85898 0.5907 0.0
O34 O 0.85509 0.01889 0.56289 0.0
O35 O 0.90176 0.00988 0.57226 0.0
O36 O 0.8992 0.95767 0.52775 0.0
C37 C 0.87794 0.03937 0.5711 0.0
O38 O 0.85411 0.88804 0.59326 0.0
C39 C 0.92629 0.94144 0.53085 0.0
O40 O 0.89103 0.86424 0.57729 0.0
O41 O 0.93265 0.91982 0.54506 0.0
C42 C 0.92735 0.86065 0.19373 0.0
O43 O 0.94213 0.88445 0.18266 0.0
Cd44 Cd 0.91879 0.94405 0.16104 0.0
O45 O 0.89925 0.87033 0.19463 0.0
Cd46 Cd 0.85891 0.92789 0.18092 0.0
C47 C 0.8638 0.85312 0.14542 0.0
O48 O 0.8876 0.01225 0.17339 0.0
O49 O 0.8411 0.00466 0.16357 0.0
O50 O 0.84252 0.95236 0.20825 0.0
C51 C 0.86521 0.03345 0.16499 0.0
O52 O 0.8876 0.88154 0.14309 0.0
C53 C 0.8151 0.93813 0.20508 0.0
O54 O 0.84999 0.85858 0.15873 0.0
O55 O 0.80831 0.91731 0.19081 0.0
C56 C 0.20149 0.5909 0.94977 0.0
O57 O 0.21508 0.5672 0.93826 0.0
Cd58 Cd 0.18907 0.509 0.91716 0.0
O59 O 0.17322 0.58376 0.95082 0.0
Cd60 Cd 0.13086 0.5341 0.93617 0.0
C61 C 0.13826 0.60456 0.90026 0.0
O62 O 0.15397 0.44406 0.92831 0.0
O63 O 0.10972 0.46564 0.91714 0.0
O64 O 0.11083 0.50173 0.9619 0.0
C65 C 0.13085 0.42989 0.91908 0.0
O66 O 0.16108 0.57306 0.8985 0.0
C67 C 0.08597 0.52814 0.95991 0.0
O68 O 0.12408 0.60281 0.91353 0.0
O69 O 0.0823 0.55888 0.94703 0.0
C70 C 0.03103 0.59833 0.27775 0.0
O71 O 0.01693 0.57783 0.28958 0.0
Cd72 Cd 0.04256 0.53534 0.31372 0.0
O73 O 0.05966 0.59434 0.27785 0.0
Cd74 Cd 0.10101 0.55372 0.29589 0.0
C75 C 0.0888 0.64477 0.3264 0.0
O76 O 0.08023 0.46653 0.30793 0.0
O77 O 0.12058 0.50411 0.31982 0.0
O78 O 0.12321 0.51225 0.27182 0.0
C79 C 0.10222 0.46313 0.31883 0.0
O80 O 0.06661 0.61268 0.32921 0.0
C81 C 0.14901 0.5349 0.27466 0.0
O82 O 0.10453 0.63631 0.31394 0.0
O83 O 0.15214 0.56783 0.28706 0.0
C84 C 0.79618 0.36753 0.02843 0.0
O85 O 0.77835 0.39365 0.03744 0.0
Cd86 Cd 0.79633 0.44233 0.06212 0.0
O87 O 0.82469 0.37226 0.0312 0.0
Cd88 Cd 0.86038 0.42758 0.04985 0.0
C89 C 0.84379 0.34191 0.08065 0.0
O90 O 0.83255 0.51379 0.05652 0.0
O91 O 0.86967 0.48827 0.07355 0.0
O92 O 0.88475 0.46355 0.02584 0.0
C93 C 0.84994 0.52488 0.06923 0.0
O94 O 0.81917 0.36968 0.08037 0.0
C95 C 0.91125 0.44807 0.03072 0.0
O96 O 0.86347 0.35175 0.07015 0.0
O97 O 0.91414 0.42205 0.0445 0.0
C98 C 0.95043 0.37296 0.70743 0.0
O99 O 0.96825 0.39991 0.69858 0.0
Cd100 Cd 0.94948 0.44846 0.67396 0.0
O101 O 0.92193 0.37731 0.70461 0.0
Cd102 Cd 0.88578 0.43253 0.68641 0.0
C103 C 0.90213 0.34756 0.65547 0.0
O104 O 0.91301 0.5195 0.67951 0.0
O105 O 0.87552 0.49306 0.66281 0.0
O106 O 0.86191 0.46754 0.71068 0.0
C107 C 0.8952 0.53012 0.66693 0.0
O108 O 0.92677 0.37547 0.65571 0.0
C109 C 0.83547 0.45076 0.7061 0.0
O110 O 0.88255 0.35718 0.66601 0.0
O111 O 0.83238 0.42477 0.69232 0.0
C112 C 0.70009 0.09384 0.94523 0.0
O113 O 0.71315 0.07405 0.93293 0.0
Cd114 Cd 0.68547 0.02322 0.91068 0.0
O115 O 0.67186 0.08641 0.94635 0.0
Cd116 Cd 0.62889 0.04191 0.93085 0.0
C117 C 0.63571 0.12565 0.89757 0.0
O118 O 0.65078 0.95402 0.92026 0.0
O119 O 0.60699 0.98121 0.9098 0.0
O120 O 0.61092 0.00816 0.95706 0.0
C121 C 0.6274 0.94385 0.91074 0.0
O122 O 0.65722 0.09314 0.89404 0.0
C123 C 0.58464 0.02912 0.95477 0.0
O124 O 0.62296 0.12045 0.91123 0.0
O125 O 0.57922 0.05738 0.94153 0.0
C126 C 0.54237 0.1077 0.29337 0.0
O127 O 0.52922 0.09008 0.30593 0.0
Cd128 Cd 0.55619 0.04112 0.32877 0.0
O129 O 0.57048 0.09911 0.29229 0.0
Cd130 Cd 0.61269 0.0553 0.30857 0.0
C131 C 0.60739 0.14233 0.34111 0.0
O132 O 0.59045 0.9696 0.32045 0.0
O133 O 0.63404 -0.00112 0.33078 0.0
O134 O 0.63074 0.00993 0.28412 0.0
C135 C 0.61371 0.96116 0.33021 0.0
O136 O 0.58536 0.11114 0.3448 0.0
C137 C 0.65617 0.0348 0.2847 0.0
O138 O 0.6201 0.13564 0.3275 0.0
O139 O 0.66123 0.07069 0.29624 0.0
C140 C 0.30423 0.86201 0.03164 0.0
O141 O 0.28782 0.88712 0.04165 0.0
Cd142 Cd 0.30982 0.92658 0.06707 0.0
O143 O 0.33291 0.86414 0.03379 0.0
Cd144 Cd 0.37199 0.91111 0.05222 0.0
C145 C 0.3563 0.81855 0.08164 0.0
O146 O 0.34781 -0.00359 0.06287 0.0
O147 O 0.38817 0.96456 0.07629 0.0
O148 O 0.39432 0.95958 0.02953 0.0
C149 C 0.36835 0.00291 0.07448 0.0
O150 O 0.332 0.84677 0.08242 0.0
C151 C 0.41961 0.93448 0.03102 0.0
O152 O 0.37573 0.8311 0.07124 0.0
O153 O 0.42278 0.89713 0.04231 0.0
C154 C 0.4395 0.86658 0.69682 0.0
O155 O 0.45224 0.88522 0.68422 0.0
Cd156 Cd 0.42755 0.94465 0.66295 0.0
O157 O 0.41204 0.87865 0.69897 0.0
Cd158 Cd 0.37026 0.9307 0.68463 0.0
C159 C 0.37196 0.85396 0.64905 0.0
O160 O 0.39732 0.01467 0.67533 0.0
O161 O 0.35028 0.00414 0.66672 0.0
O162 O 0.35247 0.96553 0.71069 0.0
C163 C 0.37403 0.03403 0.66728 0.0
O164 O 0.39513 0.8827 0.64574 0.0
C165 C 0.32662 0.9423 0.70885 0.0
O166 O 0.35992 0.85956 0.66291 0.0
O167 O 0.32148 0.91202 0.69599 0.0
C168 C 0.70642 0.60452 0.46015 0.0
O169 O 0.72081 0.58288 0.44862 0.0
Cd170 Cd 0.69692 0.53455 0.42506 0.0
O171 O 0.67781 0.5994 0.4601 0.0
Cd172 Cd 0.63659 0.5553 0.44251 0.0
C173 C 0.64926 0.6397 0.41023 0.0
O174 O 0.65929 0.46821 0.43246 0.0
O175 O 0.61938 0.50013 0.41874 0.0
O176 O 0.61298 0.51165 0.46572 0.0
C177 C 0.63883 0.4613 0.42087 0.0
O178 O 0.6719 0.60791 0.40825 0.0
C179 C 0.58846 0.53921 0.46395 0.0
O180 O 0.63317 0.63334 0.42267 0.0
O181 O 0.58642 0.57527 0.45228 0.0
C182 C 0.54255 0.59387 0.77813 0.0
O183 O 0.52666 0.56811 0.78829 0.0
Cd184 Cd 0.5492 0.52102 0.81252 0.0
O185 O 0.57126 0.59093 0.77965 0.0
Cd186 Cd 0.61076 0.5432 0.79738 0.0
C187 C 0.59562 0.62585 0.82931 0.0
O188 O 0.58769 0.45473 0.80647 0.0
O189 O 0.62616 0.48775 0.82132 0.0
O190 O 0.63486 0.50119 0.77418 0.0
C191 C 0.60726 0.44817 0.81855 0.0
O192 O 0.57248 0.5943 0.83033 0.0
C193 C 0.65962 0.52793 0.77647 0.0
O194 O 0.61313 0.61986 0.81748 0.0
O195 O 0.66163 0.56269 0.78848 0.0
C196 C 0.2977 0.36961 0.53184 0.0
O197 O 0.27976 0.39536 0.54087 0.0
Cd198 Cd 0.29798 0.44389 0.56557 0.0
O199 O 0.32618 0.37517 0.53452 0.0
Cd200 Cd 0.36188 0.43126 0.55287 0.0
C201 C 0.34643 0.344 0.5835 0.0
O202 O 0.33377 0.51652 0.56018 0.0
O203 O 0.37145 0.49062 0.57679 0.0
O204 O 0.38579 0.46895 0.52886 0.0
C205 C 0.35141 0.52707 0.57284 0.0
O206 O 0.32157 0.37096 0.58345 0.0
C207 C 0.41231 0.45279 0.53345 0.0
O208 O 0.36584 0.35496 0.57295 0.0
O209 O 0.4154 0.42584 0.54708 0.0
C210 C 0.4411 0.36098 0.20596 0.0
O211 O 0.45741 0.38476 0.19558 0.0
Cd212 Cd 0.43659 0.43182 0.17088 0.0
O213 O 0.41243 0.36514 0.20439 0.0
Cd214 Cd 0.37321 0.412 0.18627 0.0
C215 C 0.3893 0.32796 0.15433 0.0
O216 O 0.39876 0.49838 0.17735 0.0
O217 O 0.35592 0.47514 0.16458 0.0
O218 O 0.35033 0.45389 0.20975 0.0
C219 C 0.37749 0.51009 0.16658 0.0
O220 O 0.41301 0.35815 0.15364 0.0
C221 C 0.325 0.42914 0.20743 0.0
O222 O 0.37093 0.33588 0.16566 0.0
O223 O 0.32223 0.39427 0.19546 0.0
H224 H 0.23897 0.35819 0.51985 0.0
H225 H 0.32865 0.29205 0.51441 0.0
H226 H 0.21828 0.29039 0.49959 0.0
H227 H 0.30779 0.22275 0.49452 0.0
H228 H 0.26147 0.14522 0.44679 0.0
H229 H 0.28486 0.21087 0.46705 0.0
H230 H 0.20824 0.19224 0.4973 0.0
H231 H 0.1845 0.12842 0.47682 0.0
C232 C 0.25428 0.32911 0.51435 0.0
C233 C 0.28545 0.33051 0.51878 0.0
C234 C 0.24238 0.28981 0.50282 0.0
C235 C 0.2613 0.25051 0.49556 0.0
C236 C 0.29258 0.25261 0.49976 0.0
C237 C 0.30453 0.29229 0.51121 0.0
C238 C 0.24983 0.15467 0.45787 0.0
C239 C 0.22102 0.13201 0.46013 0.0
C240 C 0.26324 0.19227 0.46951 0.0
C241 C 0.24824 0.20758 0.4837 0.0
C242 C 0.22008 0.18267 0.4863 0.0
C243 C 0.20658 0.14563 0.47461 0.0
H244 H 0.98713 0.92574 0.53595 0.0
H245 H 0.91846 0.97819 0.49876 0.0
H246 H 0.02622 0.94773 0.51704 0.0
H247 H 0.95753 -0.00159 0.47958 0.0
H248 H 0.03629 0.08931 0.45699 0.0
H249 H -0.00307 0.06551 0.47567 0.0
H250 H 0.04756 0.91807 0.49216 0.0
H251 H 0.08728 0.943 0.47395 0.0
C252 C 0.98036 0.9412 0.52364 0.0
C253 C 0.94973 0.95034 0.51885 0.0
C254 C 0.00278 0.95363 0.51276 0.0
C255 C 0.99506 0.97505 0.49679 0.0
C256 C 0.96432 0.98295 0.49189 0.0
C257 C 0.9419 0.97091 0.50282 0.0
C258 C 0.03901 0.05195 0.46466 0.0
C259 C 0.06492 0.01818 0.46406 0.0
C260 C 0.01635 0.03802 0.47527 0.0
C261 C 0.01902 -0.01023 0.48541 0.0
C262 C 0.04495 0.95598 0.48473 0.0
C263 C 0.06768 0.97015 0.47423 0.0
H264 H 0.32662 0.02237 0.73308 0.0
H265 H 0.27312 0.88634 0.71099 0.0
H266 H 0.28595 0.04484 0.75091 0.0
H267 H 0.23291 0.90709 0.72931 0.0
H268 H 0.1538 -0.00539 0.75088 0.0
H269 H 0.19505 0.97503 0.73316 0.0
H270 H 0.25981 0.01413 0.77392 0.0
H271 H 0.21846 0.03604 0.79138 0.0
C272 C 0.30633 -0.0033 0.73223 0.0
C273 C 0.30301 0.9527 0.72061 0.0
C274 C 0.28302 0.00945 0.7425 0.0
C275 C 0.256 0.97803 0.74151 0.0
C276 C 0.25309 0.93301 0.73017 0.0
C277 C 0.27625 0.92073 0.71976 0.0
C278 C 0.17687 -0.00056 0.75599 0.0
C279 C 0.18292 0.01688 0.7725 0.0
C280 C 0.20055 -0.0123 0.74589 0.0
C281 C 0.23083 -0.00758 0.75213 0.0
C282 C 0.23681 0.01067 0.76861 0.0
C283 C 0.21311 0.02309 0.77865 0.0
H284 H 0.98562 0.13935 0.79054 0.0
H285 H 0.06427 0.13149 0.76152 0.0
H286 H 0.96303 0.20911 0.77132 0.0
H287 H 0.04135 0.19937 0.74203 0.0
H288 H 0.91999 0.29258 0.72413 0.0
H289 H 0.94109 0.22326 0.74388 0.0
H290 H 0.02986 0.29672 0.74031 0.0
H291 H 0.00894 0.36459 0.72011 0.0
C292 C -0.00211 0.15191 0.77994 0.0
C293 C 0.0268 0.13011 0.77761 0.0
C294 C 0.98492 0.19183 0.76888 0.0
C295 C 0.00047 0.2104 0.75519 0.0
C296 C 0.02901 0.18721 0.75265 0.0
C297 C 0.04207 0.14784 0.76376 0.0
C298 C 0.94399 0.29414 0.72764 0.0
C299 C 0.96282 0.33393 0.72047 0.0
C300 C 0.95608 0.25447 0.73903 0.0
C301 C 0.98725 0.25397 0.74361 0.0
C302 C 0.00588 0.29494 0.73679 0.0
C303 C 0.99384 0.33422 0.7253 0.0
H304 H 0.75189 0.85931 0.53507 0.0
H305 H 0.83817 0.78807 0.52432 0.0
H306 H 0.72641 0.79387 0.51549 0.0
H307 H 0.81284 0.72096 0.50547 0.0
H308 H 0.76272 0.65074 0.45929 0.0
H309 H 0.78781 0.71436 0.47931 0.0
H310 H 0.71236 0.6994 0.51062 0.0
H311 H 0.68661 0.6378 0.49008 0.0
C312 C 0.76537 0.82933 0.52863 0.0
C313 C 0.79703 0.82919 0.53113 0.0
C314 C 0.75077 0.79145 0.51749 0.0
C315 C 0.76751 0.75199 0.5088 0.0
C316 C 0.79918 0.75142 0.5116 0.0
C317 C 0.81375 0.78981 0.5225 0.0
C318 C 0.75158 0.66068 0.47051 0.0
C319 C 0.72267 0.63923 0.47309 0.0
C320 C 0.76604 0.69708 0.48207 0.0
C321 C 0.75219 0.71225 0.49666 0.0
C322 C 0.72351 0.68964 0.4994 0.0
C323 C 0.70884 0.65388 0.4877 0.0
H324 H 0.71 0.08818 0.28065 0.0
H325 H 0.65432 0.94953 0.26205 0.0
H326 H 0.74826 0.06346 0.26144 0.0
H327 H 0.69293 0.92353 0.24331 0.0
H328 H 0.75385 0.92925 0.19973 0.0
H329 H 0.71538 0.9534 0.21879 0.0
H330 H 0.7854 -0.00662 0.25676 0.0
H331 H 0.82385 0.97113 0.23745 0.0
C332 C 0.70599 0.05233 0.27249 0.0
C333 C 0.67913 0.02092 0.27282 0.0
C334 C 0.72801 0.03784 0.26157 0.0
C335 C 0.72375 -0.00867 0.25085 0.0
C336 C 0.6968 0.96008 0.2512 0.0
C337 C 0.6747 0.97485 0.26201 0.0
C338 C 0.76101 0.94284 0.21219 0.0
C339 C 0.79186 0.94838 0.21709 0.0
C340 C 0.73895 0.95652 0.22315 0.0
C341 C 0.74725 0.97558 0.23931 0.0
C342 C 0.77818 0.97989 0.24431 0.0
C343 C 0.80023 0.96666 0.23329 0.0
H344 H 0.98804 0.84831 0.20164 0.0
H345 H 0.90065 0.78087 0.21224 0.0
H346 H 0.01241 0.78237 0.2214 0.0
H347 H 0.92491 0.71318 0.23131 0.0
H348 H 0.97456 0.644 0.27812 0.0
H349 H 0.94974 0.70623 0.2576 0.0
H350 H 0.02511 0.68756 0.22643 0.0
H351 H 0.05054 0.62745 0.24741 0.0
C352 C 0.97408 0.81903 0.20807 0.0
C353 C 0.94244 0.82012 0.20547 0.0
C354 C 0.98803 0.78083 0.21932 0.0
C355 C 0.97068 0.74224 0.22803 0.0
C356 C 0.93903 0.7429 0.22515 0.0
C357 C 0.92509 0.78162 0.21412 0.0
C358 C 0.98569 0.65275 0.26682 0.0
C359 C 0.01455 0.63095 0.26442 0.0
C360 C 0.9714 0.68836 0.25497 0.0
C361 C 0.98541 0.70235 0.24031 0.0
C362 C 0.01388 0.67886 0.2377 0.0
C363 C 0.02836 0.64393 0.24967 0.0
H364 H 0.24466 0.85861 0.02043 0.0
H365 H 0.33166 0.78451 0.01258 0.0
H366 H 0.22077 0.79454 -1e-05 0.0
H367 H 0.30766 0.71896 0.99263 0.0
H368 H 0.2575 0.63851 0.94726 0.0
H369 H 0.28259 0.70742 0.96591 0.0
H370 H 0.20796 0.69784 -0.00209 0.0
H371 H 0.18253 0.63088 0.97902 0.0
C372 C 0.2587 0.82871 0.01432 0.0
C373 C 0.29004 0.82655 0.01819 0.0
C374 C 0.24498 0.79159 0.00269 0.0
C375 C 0.2622 0.75095 -0.00521 0.0
C376 C 0.29369 0.74996 -0.00167 0.0
C377 C 0.30746 0.78749 0.00983 0.0
C378 C 0.24657 0.65098 0.95833 0.0
C379 C 0.21798 0.62937 0.96162 0.0
C380 C 0.26096 0.69042 0.96905 0.0
C381 C 0.2472 0.70871 0.98336 0.0
C382 C 0.21893 0.68592 0.98681 0.0
C383 C 0.20444 0.64704 0.97604 0.0
H384 H 0.03404 0.58927 0.96149 0.0
H385 H 0.08318 0.44962 0.98443 0.0
H386 H 0.99268 0.57264 0.97947 0.0
H387 H 0.04141 0.43135 0.00189 0.0
H388 H 0.97128 0.43981 0.04049 0.0
H389 H 0.01438 0.46358 0.02441 0.0
H390 H 0.95323 0.50684 0.98243 0.0
H391 H 0.91031 0.48538 -0.00125 0.0
C392 C 0.03599 0.55505 0.97039 0.0
C393 C 0.0618 0.52069 0.97153 0.0
C394 C 0.01219 0.54518 0.98061 0.0
C395 C 0.01352 0.50028 0.99205 0.0
C396 C 0.03971 0.46674 -0.0066 0.0
C397 C 0.06363 0.47703 0.98332 0.0
C398 C 0.96712 0.45443 0.02782 0.0
C399 C 0.93745 0.46075 0.02088 0.0
C400 C 0.99181 0.46786 0.01857 0.0
C401 C 0.98734 0.4873 0.00211 0.0
C402 C 0.95758 0.49316 -0.00483 0.0
C403 C 0.93293 0.48036 0.00448 0.0
H404 H 0.32024 0.51951 0.22774 0.0
H405 H 0.27218 0.37061 0.21005 0.0
H406 H 0.27752 0.54629 0.24342 0.0
H407 H 0.22977 0.39575 0.22649 0.0
H408 H 0.14692 0.4852 0.24408 0.0
H409 H 0.18942 0.45958 0.22785 0.0
H410 H 0.25147 0.52459 0.26682 0.0
H411 H 0.20892 0.55268 0.28254 0.0
C412 C 0.30067 0.49199 0.22742 0.0
C413 C 0.29955 0.44291 0.21769 0.0
C414 C 0.27616 0.5072 0.2365 0.0
C415 C 0.25009 0.4732 0.2363 0.0
C416 C 0.24921 0.42354 0.22672 0.0
C417 C 0.2736 0.40879 0.21741 0.0
C418 C 0.16967 0.49436 0.24908 0.0
C419 C 0.17462 0.52122 0.26452 0.0
C420 C 0.19408 0.47919 0.23986 0.0
C421 C 0.224 0.48977 0.24601 0.0
C422 C 0.22881 0.51667 0.2615 0.0
C423 C 0.2044 0.53263 0.27058 0.0
H424 H 0.75594 0.14317 0.94341 0.0
H425 H 0.682 0.12482 0.97553 0.0
H426 H 0.78035 0.21016 0.96301 0.0
H427 H 0.70666 0.19009 -0.00478 0.0
H428 H 0.73726 0.35673 0.01679 0.0
H429 H 0.71597 0.28927 -0.00338 0.0
H430 H 0.80518 0.222 0.99046 0.0
H431 H 0.82668 0.29084 0.01037 0.0
C432 C 0.74515 0.1527 0.95476 0.0
C433 C 0.71689 0.1291 0.95783 0.0
C434 C 0.75915 0.19103 0.96601 0.0
C435 C 0.74523 0.20622 0.98057 0.0
C436 C 0.71763 0.18057 0.98392 0.0
C437 C 0.70359 0.14274 0.97268 0.0
C438 C 0.7524 0.32783 0.01108 0.0
C439 C 0.78366 0.32903 0.01527 0.0
C440 C 0.74015 0.28879 -0.00041 0.0
C441 C 0.7588 0.24959 0.99209 0.0
C442 C 0.79019 0.25175 -0.00406 0.0
C443 C 0.8025 0.29113 0.00738 0.0
H444 H 0.66479 0.44409 0.75378 0.0
H445 H 0.71182 0.58895 0.77517 0.0
H446 H 0.70722 0.42517 0.73688 0.0
H447 H 0.75387 0.57146 0.75775 0.0
H448 H 0.83706 0.48922 0.73798 0.0
H449 H 0.79447 0.50793 0.75481 0.0
H450 H 0.73261 0.45835 0.71377 0.0
H451 H 0.77537 0.43749 0.69719 0.0
C452 C 0.6841 0.47227 0.75474 0.0
C453 C 0.68502 0.51795 0.76583 0.0
C454 C 0.70837 0.46162 0.74496 0.0
C455 C 0.73403 0.49676 0.74592 0.0
C456 C 0.73473 0.54293 0.75689 0.0
C457 C 0.71055 0.55322 0.7668 0.0
C458 C 0.81435 0.4822 0.73257 0.0
C459 C 0.80954 0.46176 0.71628 0.0
C460 C 0.7899 0.49335 0.74218 0.0
C461 C 0.76004 0.48488 0.73566 0.0
C462 C 0.75529 0.46454 0.71931 0.0
C463 C 0.77978 0.45283 0.70975 0.0
H464 H 0.59176 0.98505 0.98606 0.0
H465 H 0.52414 0.04894 0.94998 0.0
H466 H 0.55242 0.96403 0.005 0.0
H467 H 0.48469 0.02578 0.96853 0.0
H468 H 0.4719 0.87634 0.02688 0.0
H469 H 0.51201 0.90056 0.0087 0.0
H470 H 0.46352 0.05176 -0.00659 0.0
H471 H 0.423 0.02615 0.01096 0.0
C472 C 0.56846 -0.00548 0.98218 0.0
C473 C 0.56102 0.01876 0.96656 0.0
C474 C 0.54587 0.98203 0.99297 0.0
C475 C 0.51529 -0.00706 0.9883 0.0
C476 C 0.50799 0.01764 0.97269 0.0
C477 C 0.5306 0.03072 0.962 0.0
C478 C 0.46986 0.91466 0.01959 0.0
C479 C 0.44424 0.94914 0.02025 0.0
C480 C 0.49294 0.92882 0.00926 0.0
C481 C 0.49105 0.97815 -0.00047 0.0
C482 C 0.46553 0.01291 0.00043 0.0
C483 C 0.44233 -0.00162 0.01058 0.0
H484 H 0.5012 0.35284 0.21584 0.0
H485 H 0.41307 0.28891 0.22656 0.0
H486 H 0.52456 0.29144 0.23716 0.0
H487 H 0.43648 0.22602 0.24743 0.0
H488 H 0.48709 0.15874 0.29476 0.0
H489 H 0.46237 0.22159 0.27418 0.0
H490 H 0.5352 0.19461 0.24181 0.0
H491 H 0.56031 0.13366 0.26257 0.0
C492 C 0.48681 0.32561 0.22272 0.0
C493 C 0.45528 0.32576 0.21947 0.0
C494 C 0.50021 0.29002 0.23487 0.0
C495 C 0.48245 0.25327 0.24394 0.0
C496 C 0.45086 0.25413 0.24085 0.0
C497 C 0.43743 0.29009 0.22881 0.0
C498 C 0.49767 0.16595 0.28319 0.0
C499 C 0.52573 0.14144 0.28034 0.0
C500 C 0.48348 0.20191 0.27137 0.0
C501 C 0.49692 0.21373 0.25638 0.0
C502 C 0.52453 0.18768 0.25337 0.0
C503 C 0.53882 0.15226 0.26523 0.0
H504 H 0.4225 0.8328 0.72722 0.0
H505 H 0.49335 0.81255 0.69321 0.0
H506 H 0.44775 0.76586 0.74619 0.0
H507 H 0.51817 0.74392 0.71198 0.0
H508 H 0.56974 0.66831 0.75789 0.0
H509 H 0.54554 0.73445 0.73824 0.0
H510 H 0.45795 0.66776 0.74892 0.0
H511 H 0.48214 0.60289 0.76903 0.0
C512 C 0.44346 0.81394 0.72376 0.0
C513 C 0.4559 0.82805 0.70868 0.0
C514 C 0.45782 0.77509 0.73459 0.0
C515 C 0.48486 0.74894 0.73057 0.0
C516 C 0.49753 0.76362 0.71557 0.0
C517 C 0.48327 0.8029 0.70478 0.0
C518 C 0.54532 0.66744 0.75597 0.0
C519 C 0.52786 0.63046 0.76511 0.0
C520 C 0.53143 0.70529 0.74463 0.0
C521 C 0.49976 0.70683 0.74205 0.0
C522 C 0.48236 0.66862 0.75084 0.0
C523 C 0.49624 0.63106 0.76228 0.0
H524 H 0.41103 0.49481 0.50194 0.0
H525 H 0.47238 0.43993 0.54247 0.0
H526 H 0.4538 0.51621 0.48545 0.0
H527 H 0.5153 0.46338 0.52624 0.0
H528 H 0.58339 0.45364 0.48616 0.0
H529 H 0.54097 0.43286 0.50294 0.0
H530 H 0.49442 0.58066 0.4832 0.0
H531 H 0.53648 0.6001 0.46591 0.0
C532 C 0.43369 0.48766 0.50737 0.0
C533 C 0.43836 0.46554 0.52348 0.0
C534 C 0.45825 0.50036 0.49796 0.0
C535 C 0.48807 0.49175 0.50452 0.0
C536 C 0.49267 0.46977 0.52069 0.0
C537 C 0.46808 0.45655 0.53004 0.0
C538 C 0.56413 0.4818 0.48544 0.0
C539 C 0.56323 0.52843 0.47469 0.0
C540 C 0.53985 0.47007 0.49514 0.0
C541 C 0.5142 0.50502 0.49444 0.0
C542 C 0.51356 0.55225 0.48385 0.0
C543 C 0.53775 0.56366 0.47402 0.0
H544 H 0.05489 0.68428 0.35083 0.0
H545 H 0.1402 0.70998 0.32856 0.0
H546 H 0.06728 0.75964 0.37048 0.0
H547 H 0.15252 0.7861 0.3484 0.0
H548 H 0.17122 0.87804 0.40027 0.0
H549 H 0.16244 0.79991 0.38054 0.0
H550 H 0.07322 0.86465 0.36706 0.0
H551 H 0.08173 0.94175 0.38652 0.0
C552 C 0.0763 0.70601 0.35011 0.0
C553 C 0.09648 0.69137 0.33805 0.0
C554 C 0.08335 0.74923 0.36136 0.0
C555 C 0.1108 0.77864 0.3609 0.0
C556 C 0.13128 0.7637 0.34905 0.0
C557 C 0.1241 0.72058 0.33763 0.0
C558 C 0.14978 0.87534 0.39308 0.0
C559 C 0.12713 0.91579 0.39499 0.0
C560 C 0.14485 0.83101 0.38175 0.0
C561 C 0.1171 0.82629 0.37239 0.0
C562 C 0.09467 0.86695 0.37427 0.0
C563 C 0.09964 0.91122 0.3854 0.0
H564 H 0.09257 0.20701 0.39639 0.0
H565 H 0.17865 0.18509 0.3747 0.0
H566 H 0.08005 0.28317 0.37656 0.0
H567 H 0.16607 0.2604 0.35509 0.0
H568 H 0.15107 0.44279 0.33975 0.0
H569 H 0.15918 0.36542 0.35914 0.0
H570 H 0.07122 0.29754 0.34404 0.0
H571 H 0.06284 0.376 0.32433 0.0
C572 C 0.10878 0.21842 0.38745 0.0
C573 C 0.13668 0.19031 0.38719 0.0
C574 C 0.10149 0.26154 0.37604 0.0
C575 C 0.12216 0.27755 0.36437 0.0
C576 C 0.14986 0.24914 0.36406 0.0
C577 C 0.15701 0.20595 0.37529 0.0
C578 C 0.13335 0.41153 0.3405 0.0
C579 C 0.10635 0.41529 0.33044 0.0
C580 C 0.13808 0.36713 0.35159 0.0
C581 C 0.1159 0.32548 0.35299 0.0
C582 C 0.0886 0.3294 0.34319 0.0
C583 C 0.08392 0.37391 0.33188 0.0
H584 H 0.07305 0.12069 0.86973 0.0
H585 H 0.14625 0.18424 0.84188 0.0
H586 H 0.0836 0.19263 0.89074 0.0
H587 H 0.15654 0.25689 0.863 0.0
H588 H 0.177 0.35927 0.91134 0.0
H589 H 0.17267 0.27464 0.89378 0.0
H590 H 0.07572 0.29643 0.88865 0.0
H591 H 0.07997 0.37997 0.90598 0.0
C592 C 0.09154 0.14974 0.86812 0.0
C593 C 0.10851 0.14725 0.85397 0.0
C594 C 0.09756 0.19092 0.88018 0.0
C595 C 0.1207 0.23055 0.87841 0.0
C596 C 0.13869 0.22657 0.86471 0.0
C597 C 0.13262 0.18529 0.85257 0.0
C598 C 0.15481 0.3453 0.90662 0.0
C599 C 0.12883 0.37612 0.90996 0.0
C600 C 0.15236 0.29727 0.89652 0.0
C601 C 0.12386 0.27902 0.88991 0.0
C602 C 0.09794 0.30906 0.89373 0.0
C603 C 0.1004 0.35712 0.90358 0.0
H604 H 0.16158 0.61385 0.86991 0.0
H605 H 0.09378 0.68523 0.9 0.0
H606 H 0.15017 0.68481 0.84872 0.0
H607 H 0.0826 0.75686 0.87865 0.0
H608 H 0.06048 0.86025 0.83059 0.0
H609 H 0.06389 0.77471 0.84788 0.0
H610 H 0.16136 0.78831 0.85077 0.0
H611 H 0.15799 0.87281 0.8338 0.0
C612 C 0.14405 0.64436 0.87197 0.0
C613 C 0.12898 0.6445 0.88681 0.0
C614 C 0.1375 0.68491 0.85979 0.0
C615 C 0.11572 0.72652 0.86213 0.0
C616 C 0.09937 0.72496 0.87651 0.0
C617 C 0.10597 0.68427 0.88877 0.0
C618 C 0.08255 0.84416 0.83474 0.0
C619 C 0.10897 0.87302 0.83094 0.0
C620 C 0.08449 0.79566 0.84468 0.0
C621 C 0.11288 0.77497 0.8506 0.0
C622 C 0.13919 0.80287 0.84622 0.0
C623 C 0.13725 0.85145 0.83658 0.0
H624 H 0.94376 0.28576 0.64031 0.0
H625 H 0.84751 0.31188 0.64157 0.0
H626 H 0.93505 0.21551 0.61875 0.0
H627 H 0.83856 0.24379 0.61908 0.0
H628 H 0.83491 0.07149 0.59181 0.0
H629 H 0.83896 0.14864 0.61189 0.0
H630 H 0.92183 0.20345 0.591 0.0
H631 H 0.91869 0.12383 0.57199 0.0
C632 C 0.92069 0.27683 0.63579 0.0
C633 C 0.89633 0.30418 0.64259 0.0
C634 C 0.91563 0.23694 0.62325 0.0
C635 C 0.88606 0.22439 0.61686 0.0
C636 C 0.86161 0.25182 0.62375 0.0
C637 C 0.8667 0.29095 0.63661 0.0
C638 C 0.85361 0.10088 0.59142 0.0
C639 C 0.87661 0.09197 0.58054 0.0
C640 C 0.856 0.14515 0.60289 0.0
C641 C 0.88113 0.18181 0.60338 0.0
C642 C 0.90277 0.175 0.59147 0.0
C643 C 0.90082 0.12993 0.5804 0.0
H644 H 0.87948 0.53887 0.63409 0.0
H645 H 0.91915 0.6332 0.6758 0.0
H646 H 0.88228 0.62177 0.61646 0.0
H647 H 0.92129 0.71732 0.65803 0.0
H648 H 0.86484 0.85335 0.62336 0.0
H649 H 0.87589 0.77568 0.64268 0.0
H650 H 0.92365 0.68924 0.60524 0.0
H651 H 0.91302 0.76715 0.58591 0.0
C652 C 0.88897 0.57736 0.63946 0.0
C653 C 0.89894 0.57986 0.65632 0.0
C654 C 0.89079 0.6246 0.62933 0.0
C655 C 0.90212 0.67566 0.63591 0.0
C656 C 0.91254 0.67821 0.65272 0.0
C657 C 0.91135 0.63031 0.66282 0.0
C658 C 0.87817 0.81825 0.61934 0.0
C659 C 0.88775 0.81598 0.60305 0.0
C660 C 0.88469 0.77411 0.63045 0.0
C661 C 0.90049 0.72662 0.62537 0.0
C662 C 0.91135 0.7255 0.60938 0.0
C663 C 0.90528 0.77006 0.59836 0.0
H664 H 0.82521 0.62695 0.06016 0.0
H665 H 0.86476 0.53409 0.10217 0.0
H666 H 0.82172 0.71083 0.07786 0.0
H667 H 0.86063 0.61675 0.11973 0.0
H668 H 0.82834 0.7608 0.15001 0.0
H669 H 0.81839 0.68276 0.13063 0.0
H670 H 0.86628 0.77075 0.09344 0.0
H671 H 0.87665 0.84851 0.11281 0.0
C672 C 0.8327 0.62431 0.07318 0.0
C673 C 0.84547 0.57439 0.0798 0.0
C674 C 0.83072 0.67208 0.08326 0.0
C675 C 0.84072 0.66987 0.10013 0.0
C676 C 0.85241 0.61928 0.10681 0.0
C677 C 0.85502 0.57219 0.09672 0.0
C678 C 0.83621 0.76403 0.13759 0.0
C679 C 0.85363 0.81036 0.13299 0.0
C680 C 0.83053 0.7194 0.12654 0.0
C681 C 0.84168 0.72089 0.11062 0.0
C682 C 0.85727 0.76887 0.10561 0.0
C683 C 0.8634 0.81307 0.11675 0.0
H684 H 0.82601 0.12001 0.16444 0.0
H685 H 0.90847 0.06357 0.14413 0.0
H686 H 0.82381 0.19974 0.14543 0.0
H687 H 0.90531 0.14096 0.12406 0.0
H688 H 0.8983 0.30473 0.09432 0.0
H689 H 0.90688 0.2365 0.11683 0.0
H690 H 0.81018 0.211 0.11762 0.0
H691 H 0.80186 0.28118 0.09602 0.0
C692 C 0.84383 0.12527 0.15594 0.0
C693 C 0.86737 0.08611 0.15565 0.0
C694 C 0.8424 0.1704 0.14487 0.0
C695 C 0.86388 0.17608 0.13281 0.0
C696 C 0.88843 0.13828 0.13317 0.0
C697 C 0.8903 0.09391 0.14464 0.0
C698 C 0.87898 0.28437 0.09938 0.0
C699 C 0.84942 0.29838 0.09352 0.0
C700 C 0.88386 0.24519 0.11226 0.0
C701 C 0.85925 0.21857 0.11929 0.0
C702 C 0.82974 0.23184 0.113 0.0
C703 C 0.8249 0.2717 0.10044 0.0
H704 H 0.56249 0.65029 0.85574 0.0
H705 H 0.64375 0.6991 0.83225 0.0
H706 H 0.57227 0.72253 0.87673 0.0
H707 H 0.65327 0.77221 0.85332 0.0
H708 H 0.67125 0.86751 0.90338 0.0
H709 H 0.6653 0.78675 0.8844 0.0
H710 H 0.57056 0.82656 0.87541 0.0
H711 H 0.57633 0.90607 0.89422 0.0
C712 C 0.58246 0.67638 0.85503 0.0
C713 C 0.60216 0.66929 0.84219 0.0
C714 C 0.58803 0.7178 0.86708 0.0
C715 C 0.61343 0.75312 0.86659 0.0
C716 C 0.63364 0.74521 0.85405 0.0
C717 C 0.62802 0.70373 0.84192 0.0
C718 C 0.64916 0.85848 0.89744 0.0
C719 C 0.62427 0.89302 0.90026 0.0
C720 C 0.64581 0.81264 0.88653 0.0
C721 C 0.61745 0.8004 0.87849 0.0
C722 C 0.59259 0.8345 0.88159 0.0
C723 C 0.59597 0.88028 0.8923 0.0
H724 H 0.64404 0.1292 0.86442 0.0
H725 H 0.60545 0.22291 0.90385 0.0
H726 H 0.63161 0.20609 0.84508 0.0
H727 H 0.59341 0.30024 0.88445 0.0
H728 H 0.62987 0.44499 0.85052 0.0
H729 H 0.63119 0.36519 0.86955 0.0
H730 H 0.58463 0.26263 0.83182 0.0
H731 H 0.58275 0.34341 0.81269 0.0
C732 C 0.63269 0.16604 0.86892 0.0
C733 C 0.62598 0.17035 0.88568 0.0
C734 C 0.62535 0.20972 0.85781 0.0
C735 C 0.6116 0.25888 0.86332 0.0
C736 C 0.60408 0.26265 0.87995 0.0
C737 C 0.61094 0.21849 0.89102 0.0
C738 C 0.61968 0.40558 0.8463 0.0
C739 C 0.60638 0.40015 0.8301 0.0
C740 C 0.62021 0.36013 0.85725 0.0
C741 C 0.60792 0.30802 0.85213 0.0
C742 C 0.59423 0.30256 0.83601 0.0
C743 C 0.59313 0.34859 0.82511 0.0
H744 H 0.60143 0.14461 0.37443 0.0
H745 H 0.63696 0.24027 0.33437 0.0
H746 H 0.61489 0.22104 0.39373 0.0
H747 H 0.64997 0.31737 0.35376 0.0
H748 H 0.61408 0.4592 0.38928 0.0
H749 H 0.61245 0.38062 0.36981 0.0
H750 H 0.66276 0.27813 0.40608 0.0
H751 H 0.66499 0.35764 0.42563 0.0
C752 C 0.61233 0.18182 0.36978 0.0
C753 C 0.61789 0.18683 0.35287 0.0
C754 C 0.62027 0.22524 0.38086 0.0
C755 C 0.63343 0.27486 0.37519 0.0
C756 C 0.6398 0.27937 0.35838 0.0
C757 C 0.63239 0.23538 0.34733 0.0
C758 C 0.62504 0.42008 0.39307 0.0
C759 C 0.63947 0.41423 0.409 0.0
C760 C 0.62434 0.37537 0.38187 0.0
C761 C 0.63757 0.32361 0.38647 0.0
C762 C 0.65244 0.31782 0.40229 0.0
C763 C 0.65371 0.36311 0.41342 0.0
H764 H 0.60065 0.71182 0.40854 0.0
H765 H 0.68096 0.66781 0.38356 0.0
H766 H 0.58993 0.78693 0.38818 0.0
H767 H 0.67006 0.74208 0.36336 0.0
H768 H 0.66471 0.92679 0.34746 0.0
H769 H 0.67112 0.84713 0.3662 0.0
H770 H 0.57704 0.8026 0.35665 0.0
H771 H 0.57044 0.88335 0.33767 0.0
C772 C 0.61591 0.71794 0.39871 0.0
C773 C 0.64185 0.68422 0.39779 0.0
C774 C 0.60961 0.76057 0.387 0.0
C775 C 0.62927 0.77037 0.37428 0.0
C776 C 0.65473 0.73581 0.37316 0.0
C777 C 0.66093 0.69322 0.38475 0.0
C778 C 0.64533 0.90005 0.34927 0.0
C779 C 0.61706 0.91124 0.34107 0.0
C780 C 0.64908 0.85424 0.35996 0.0
C781 C 0.62462 0.81862 0.3628 0.0
C782 C 0.59622 0.82967 0.35469 0.0
C783 C 0.59251 0.8755 0.34378 0.0
H784 H 0.33934 0.25929 0.14954 0.0
H785 H 0.42682 0.29446 0.13078 0.0
H786 H 0.33209 0.18211 0.12945 0.0
H787 H 0.41944 0.2181 0.11093 0.0
H788 H 0.41426 0.0325 0.09653 0.0
H789 H 0.41695 0.11245 0.11533 0.0
H790 H 0.32761 0.16458 0.0971 0.0
H791 H 0.32478 0.08373 0.07802 0.0
C792 C 0.3569 0.25082 0.14112 0.0
C793 C 0.38378 0.2827 0.14188 0.0
C794 C 0.35264 0.20698 0.12958 0.0
C795 C 0.37532 0.19407 0.11877 0.0
C796 C 0.40177 0.22679 0.11927 0.0
C797 C 0.40592 0.27063 0.13065 0.0
C798 C 0.39512 0.06087 0.09647 0.0
C799 C 0.36934 0.05199 0.08574 0.0
C800 C 0.39675 0.10678 0.10721 0.0
C801 C 0.37257 0.14476 0.10757 0.0
C802 C 0.3465 0.13568 0.09706 0.0
C803 C 0.34498 0.08976 0.08611 0.0
H804 H 0.33177 0.58317 0.16071 0.0
H805 H 0.42346 0.54911 0.14874 0.0
H806 H 0.32882 0.65992 0.14074 0.0
H807 H 0.42005 0.62324 0.1276 0.0
H808 H 0.40969 0.78856 0.09802 0.0
H809 H 0.417 0.71784 0.11997 0.0
H810 H 0.32264 0.6706 0.11256 0.0
H811 H 0.31524 0.74375 0.0917 0.0
C812 C 0.35134 0.59251 0.15375 0.0
C813 C 0.3778 0.56068 0.15616 0.0
C814 C 0.34958 0.6359 0.1421 0.0
C815 C 0.37389 0.64704 0.13212 0.0
C816 C 0.4009 0.61628 0.13506 0.0
C817 C 0.40293 0.57379 0.14714 0.0
C818 C 0.39068 0.76262 0.10112 0.0
C819 C 0.36187 0.77165 0.09335 0.0
C820 C 0.39482 0.72201 0.11367 0.0
C821 C 0.3703 0.68895 0.11836 0.0
C822 C 0.34185 0.6965 0.10984 0.0
C823 C 0.33761 0.73795 0.0977 0.0
H824 H 0.33736 0.7614 0.65495 0.0
H825 H 0.38066 0.84949 0.61592 0.0
H826 H 0.32507 0.6835 0.63583 0.0
H827 H 0.36807 0.77192 0.59686 0.0
H828 H 0.32584 0.62915 0.56452 0.0
H829 H 0.32337 0.71242 0.58253 0.0
H830 H 0.36459 0.61703 0.62354 0.0
H831 H 0.3676 0.53495 0.60566 0.0
C832 C 0.34364 0.76471 0.64222 0.0
C833 C 0.36036 0.81111 0.63699 0.0
C834 C 0.33663 0.72017 0.63131 0.0
C835 C 0.34575 0.7218 0.61494 0.0
C836 C 0.36059 0.76988 0.60939 0.0
C837 C 0.36802 0.81398 0.62035 0.0
C838 C 0.33399 0.62606 0.57744 0.0
C839 C 0.34717 0.57598 0.58368 0.0
C840 C 0.3326 0.67349 0.58769 0.0
C841 C 0.34364 0.67084 0.60441 0.0
C842 C 0.35557 0.61997 0.61076 0.0
C843 C 0.35755 0.5732 0.60048 0.0
H844 H 0.30544 0.27944 0.59835 0.0
H845 H 0.40141 0.30984 0.59721 0.0
H846 H 0.31484 0.20835 0.61961 0.0
H847 H 0.41103 0.24087 0.61941 0.0
H848 H 0.41645 0.06799 0.64635 0.0
H849 H 0.41151 0.14529 0.62631 0.0
H850 H 0.32819 0.19606 0.64735 0.0
H851 H 0.33224 0.11635 0.6663 0.0
C852 C 0.32859 0.27125 0.60283 0.0
C853 C 0.35268 0.30008 0.59617 0.0
C854 C 0.33404 0.23087 0.61519 0.0
C855 C 0.36373 0.2193 0.62154 0.0
C856 C 0.38791 0.24815 0.61477 0.0
C857 C 0.38243 0.28778 0.60208 0.0
C858 C 0.39742 0.09648 0.64676 0.0
C859 C 0.37458 0.08641 0.65767 0.0
C860 C 0.39454 0.14084 0.63532 0.0
C861 C 0.36906 0.17643 0.6349 0.0
C862 C 0.34752 0.16843 0.64682 0.0
C863 C 0.34998 0.12328 0.65785 0.0
loop_
_geom_bond_atom_site_label_1
_geom_bond_atom_site_label_2
_geom_bond_distance
_geom_bond_site_symmetry_2
_ccdc_geom_bond_type
C0 O1 1.306 . S
C0 O3 1.160 . S
O1 C0 1.306 . S
O1 Cd2 2.228 . S
Cd2 O1 2.228 . S
Cd2 O6 2.273 . S
Cd2 O10 2.277 . S
O3 C0 1.160 . S
O3 Cd4 2.203 . S
Cd4 O3 2.203 . S
Cd4 O6 2.411 . S
Cd4 O7 2.333 . S
Cd4 O8 2.352 . S
Cd4 O12 2.277 . S
Cd4 O13 2.356 . S
C5 O10 1.209 . S
C5 O12 1.226 . S
O6 Cd2 2.273 . S
O6 Cd4 2.411 . S
O6 C9 1.320 . S
O7 Cd4 2.333 . S
O7 C9 1.214 . S
O8 Cd4 2.352 . S
O8 C11 1.258 . S
C9 O6 1.320 . S
C9 O7 1.214 . S
O10 Cd2 2.277 . S
O10 C5 1.209 . S
C11 O8 1.258 . S
C11 O13 1.282 . S
O12 Cd4 2.277 . S
O12 C5 1.226 . S
O13 Cd4 2.356 . S
O13 C11 1.282 . S
C14 O15 1.306 . S
C14 O17 1.160 . S
O15 C14 1.306 . S
O15 Cd16 2.228 . S
Cd16 O15 2.228 . S
Cd16 O20 2.273 . S
Cd16 O24 2.277 . S
O17 C14 1.160 . S
O17 Cd18 2.203 . S
Cd18 O17 2.203 . S
Cd18 O20 2.411 . S
Cd18 O21 2.333 . S
Cd18 O22 2.352 . S
Cd18 O26 2.277 . S
Cd18 O27 2.356 . S
C19 O24 1.209 . S
C19 O26 1.226 . S
O20 Cd16 2.273 . S
O20 Cd18 2.411 . S
O20 C23 1.320 . S
O21 Cd18 2.333 . S
O21 C23 1.214 . S
O22 Cd18 2.352 . S
O22 C25 1.258 . S
C23 O20 1.320 . S
C23 O21 1.214 . S
O24 Cd16 2.277 . S
O24 C19 1.209 . S
C25 O22 1.258 . S
C25 O27 1.282 . S
O26 Cd18 2.277 . S
O26 C19 1.226 . S
O27 Cd18 2.356 . S
O27 C25 1.282 . S
C28 O29 1.306 . S
C28 O31 1.160 . S
O29 C28 1.306 . S
O29 Cd30 2.228 . S
Cd30 O29 2.228 . S
Cd30 O34 2.273 . S
Cd30 O38 2.277 . S
O31 C28 1.160 . S
O31 Cd32 2.203 . S
Cd32 O31 2.203 . S
Cd32 O34 2.411 . S
Cd32 O35 2.333 . S
Cd32 O36 2.352 . S
Cd32 O40 2.277 . S
Cd32 O41 2.356 . S
C33 O38 1.209 . S
C33 O40 1.226 . S
O34 Cd30 2.273 . S
O34 Cd32 2.411 . S
O34 C37 1.320 . S
O35 Cd32 2.333 . S
O35 C37 1.214 . S
O36 Cd32 2.352 . S
O36 C39 1.258 . S
C37 O34 1.320 . S
C37 O35 1.214 . S
O38 Cd30 2.277 . S
O38 C33 1.209 . S
C39 O36 1.258 . S
C39 O41 1.282 . S
O40 Cd32 2.277 . S
O40 C33 1.226 . S
O41 Cd32 2.356 . S
O41 C39 1.282 . S
C42 O43 1.306 . S
C42 O45 1.160 . S
O43 C42 1.306 . S
O43 Cd44 2.228 . S
Cd44 O43 2.228 . S
Cd44 O48 2.273 . S
Cd44 O52 2.277 . S
O45 C42 1.160 . S
O45 Cd46 2.203 . S
Cd46 O45 2.203 . S
Cd46 O48 2.411 . S
Cd46 O49 2.333 . S
Cd46 O50 2.352 . S
Cd46 O54 2.277 . S
Cd46 O55 2.356 . S
C47 O52 1.209 . S
C47 O54 1.226 . S
O48 Cd44 2.273 . S
O48 Cd46 2.411 . S
O48 C51 1.320 . S
O49 Cd46 2.333 . S
O49 C51 1.214 . S
O50 Cd46 2.352 . S
O50 C53 1.258 . S
C51 O48 1.320 . S
C51 O49 1.214 . S
O52 Cd44 2.277 . S
O52 C47 1.209 . S
C53 O50 1.258 . S
C53 O55 1.282 . S
O54 Cd46 2.277 . S
O54 C47 1.226 . S
O55 Cd46 2.356 . S
O55 C53 1.282 . S
C56 O57 1.306 . S
C56 O59 1.160 . S
O57 C56 1.306 . S
O57 Cd58 2.228 . S
Cd58 O57 2.228 . S
Cd58 O62 2.273 . S
Cd58 O66 2.277 . S
O59 C56 1.160 . S
O59 Cd60 2.203 . S
Cd60 O59 2.203 . S
Cd60 O62 2.411 . S
Cd60 O63 2.333 . S
Cd60 O64 2.352 . S
Cd60 O68 2.277 . S
Cd60 O69 2.356 . S
C61 O66 1.209 . S
C61 O68 1.226 . S
O62 Cd58 2.273 . S
O62 Cd60 2.411 . S
O62 C65 1.320 . S
O63 Cd60 2.333 . S
O63 C65 1.214 . S
O64 Cd60 2.352 . S
O64 C67 1.258 . S
C65 O62 1.320 . S
C65 O63 1.214 . S
O66 Cd58 2.277 . S
O66 C61 1.209 . S
C67 O64 1.258 . S
C67 O69 1.282 . S
O68 Cd60 2.277 . S
O68 C61 1.226 . S
O69 Cd60 2.356 . S
O69 C67 1.282 . S
C70 O71 1.306 . S
C70 O73 1.160 . S
O71 C70 1.306 . S
O71 Cd72 2.228 . S
Cd72 O71 2.228 . S
Cd72 O76 2.273 . S
Cd72 O80 2.277 . S
O73 C70 1.160 . S
O73 Cd74 2.203 . S
Cd74 O73 2.203 . S
Cd74 O76 2.411 . S
Cd74 O77 2.333 . S
Cd74 O78 2.352 . S
Cd74 O82 2.277 . S
Cd74 O83 2.356 . S
C75 O80 1.209 . S
C75 O82 1.226 . S
O76 Cd72 2.273 . S
O76 Cd74 2.411 . S
O76 C79 1.320 . S
O77 Cd74 2.333 . S
O77 C79 1.214 . S
O78 Cd74 2.352 . S
O78 C81 1.258 . S
C79 O76 1.320 . S
C79 O77 1.214 . S
O80 Cd72 2.277 . S
O80 C75 1.209 . S
C81 O78 1.258 . S
C81 O83 1.282 . S
O82 Cd74 2.277 . S
O82 C75 1.226 . S
O83 Cd74 2.356 . S
O83 C81 1.282 . S
C84 O85 1.306 . S
C84 O87 1.160 . S
O85 C84 1.306 . S
O85 Cd86 2.228 . S
Cd86 O85 2.228 . S
Cd86 O90 2.273 . S
Cd86 O94 2.277 . S
O87 C84 1.160 . S
O87 Cd88 2.203 . S
Cd88 O87 2.203 . S
Cd88 O90 2.411 . S
Cd88 O91 2.333 . S
Cd88 O92 2.352 . S
Cd88 O96 2.277 . S
Cd88 O97 2.356 . S
C89 O94 1.209 . S
C89 O96 1.226 . S
O90 Cd86 2.273 . S
O90 Cd88 2.411 . S
O90 C93 1.320 . S
O91 Cd88 2.333 . S
O91 C93 1.214 . S
O92 Cd88 2.352 . S
O92 C95 1.258 . S
C93 O90 1.320 . S
C93 O91 1.214 . S
O94 Cd86 2.277 . S
O94 C89 1.209 . S
C95 O92 1.258 . S
C95 O97 1.282 . S
O96 Cd88 2.277 . S
O96 C89 1.226 . S
O97 Cd88 2.356 . S
O97 C95 1.282 . S
C98 O99 1.306 . S
C98 O101 1.160 . S
O99 C98 1.306 . S
O99 Cd100 2.228 . S
Cd100 O99 2.228 . S
Cd100 O104 2.273 . S
Cd100 O108 2.277 . S
O101 C98 1.160 . S
O101 Cd102 2.203 . S
Cd102 O101 2.203 . S
Cd102 O104 2.411 . S
Cd102 O105 2.333 . S
Cd102 O106 2.352 . S
Cd102 O110 2.277 . S
Cd102 O111 2.356 . S
C103 O108 1.209 . S
C103 O110 1.226 . S
O104 Cd100 2.273 . S
O104 Cd102 2.411 . S
O104 C107 1.320 . S
O105 Cd102 2.333 . S
O105 C107 1.214 . S
O106 Cd102 2.352 . S
O106 C109 1.258 . S
C107 O104 1.320 . S
C107 O105 1.214 . S
O108 Cd100 2.277 . S
O108 C103 1.209 . S
C109 O106 1.258 . S
C109 O111 1.282 . S
O110 Cd102 2.277 . S
O110 C103 1.226 . S
O111 Cd102 2.356 . S
O111 C109 1.282 . S
C112 O113 1.306 . S
C112 O115 1.160 . S
O113 C112 1.306 . S
O113 Cd114 2.228 . S
Cd114 O113 2.228 . S
Cd114 O118 2.273 . S
Cd114 O122 2.277 . S
O115 C112 1.160 . S
O115 Cd116 2.203 . S
Cd116 O115 2.203 . S
Cd116 O118 2.411 . S
Cd116 O119 2.333 . S
Cd116 O120 2.352 . S
Cd116 O124 2.277 . S
Cd116 O125 2.356 . S
C117 O122 1.209 . S
C117 O124 1.226 . S
O118 Cd114 2.273 . S
O118 Cd116 2.411 . S
O118 C121 1.320 . S
O119 Cd116 2.333 . S
O119 C121 1.214 . S
O120 Cd116 2.352 . S
O120 C123 1.258 . S
C121 O118 1.320 . S
C121 O119 1.214 . S
O122 Cd114 2.277 . S
O122 C117 1.209 . S
C123 O120 1.258 . S
C123 O125 1.282 . S
O124 Cd116 2.277 . S
O124 C117 1.226 . S
O125 Cd116 2.356 . S
O125 C123 1.282 . S
C126 O127 1.306 . S
C126 O129 1.160 . S
O127 C126 1.306 . S
O127 Cd128 2.228 . S
Cd128 O127 2.228 . S
Cd128 O132 2.273 . S
Cd128 O136 2.277 . S
O129 C126 1.160 . S
O129 Cd130 2.203 . S
Cd130 O129 2.203 . S
Cd130 O132 2.411 . S
Cd130 O133 2.333 . S
Cd130 O134 2.352 . S
Cd130 O138 2.277 . S
Cd130 O139 2.356 . S
C131 O136 1.209 . S
C131 O138 1.226 . S
O132 Cd128 2.273 . S
O132 Cd130 2.411 . S
O132 C135 1.320 . S
O133 Cd130 2.333 . S
O133 C135 1.214 . S
O134 Cd130 2.352 . S
O134 C137 1.258 . S
C135 O132 1.320 . S
C135 O133 1.214 . S
O136 Cd128 2.277 . S
O136 C131 1.209 . S
C137 O134 1.258 . S
C137 O139 1.282 . S
O138 Cd130 2.277 . S
O138 C131 1.226 . S
O139 Cd130 2.356 . S
O139 C137 1.282 . S
C140 O141 1.306 . S
C140 O143 1.160 . S
O141 C140 1.306 . S
O141 Cd142 2.228 . S
Cd142 O141 2.228 . S
Cd142 O146 2.273 . S
Cd142 O150 2.277 . S
O143 C140 1.160 . S
O143 Cd144 2.203 . S
Cd144 O143 2.203 . S
Cd144 O146 2.411 . S
Cd144 O147 2.333 . S
Cd144 O148 2.352 . S
Cd144 O152 2.277 . S
Cd144 O153 2.356 . S
C145 O150 1.209 . S
C145 O152 1.226 . S
O146 Cd142 2.273 . S
O146 Cd144 2.411 . S
O146 C149 1.320 . S
O147 Cd144 2.333 . S
O147 C149 1.214 . S
O148 Cd144 2.352 . S
O148 C151 1.258 . S
C149 O146 1.320 . S
C149 O147 1.214 . S
O150 Cd142 2.277 . S
O150 C145 1.209 . S
C151 O148 1.258 . S
C151 O153 1.282 . S
O152 Cd144 2.277 . S
O152 C145 1.226 . S
O153 Cd144 2.356 . S
O153 C151 1.282 . S
C154 O155 1.306 . S
C154 O157 1.160 . S
O155 C154 1.306 . S
O155 Cd156 2.228 . S
Cd156 O155 2.228 . S
Cd156 O160 2.273 . S
Cd156 O164 2.277 . S
O157 C154 1.160 . S
O157 Cd158 2.203 . S
Cd158 O157 2.203 . S
Cd158 O160 2.411 . S
Cd158 O161 2.333 . S
Cd158 O162 2.352 . S
Cd158 O166 2.277 . S
Cd158 O167 2.356 . S
C159 O164 1.209 . S
C159 O166 1.226 . S
O160 Cd156 2.273 . S
O160 Cd158 2.411 . S
O160 C163 1.320 . S
O161 Cd158 2.333 . S
O161 C163 1.214 . S
O162 Cd158 2.352 . S
O162 C165 1.258 . S
C163 O160 1.320 . S
C163 O161 1.214 . S
O164 Cd156 2.277 . S
O164 C159 1.209 . S
C165 O162 1.258 . S
C165 O167 1.282 . S
O166 Cd158 2.277 . S
O166 C159 1.226 . S
O167 Cd158 2.356 . S
O167 C165 1.282 . S
C168 O169 1.306 . S
C168 O171 1.160 . S
O169 C168 1.306 . S
O169 Cd170 2.228 . S
Cd170 O169 2.228 . S
Cd170 O174 2.273 . S
Cd170 O178 2.277 . S
O171 C168 1.160 . S
O171 Cd172 2.203 . S
Cd172 O171 2.203 . S
Cd172 O174 2.411 . S
Cd172 O175 2.333 . S
Cd172 O176 2.352 . S
Cd172 O180 2.277 . S
Cd172 O181 2.356 . S
C173 O178 1.209 . S
C173 O180 1.226 . S
O174 Cd170 2.273 . S
O174 Cd172 2.411 . S
O174 C177 1.320 . S
O175 Cd172 2.333 . S
O175 C177 1.214 . S
O176 Cd172 2.352 . S
O176 C179 1.258 . S
C177 O174 1.320 . S
C177 O175 1.214 . S
O178 Cd170 2.277 . S
O178 C173 1.209 . S
C179 O176 1.258 . S
C179 O181 1.282 . S
O180 Cd172 2.277 . S
O180 C173 1.226 . S
O181 Cd172 2.356 . S
O181 C179 1.282 . S
C182 O183 1.306 . S
C182 O185 1.160 . S
O183 C182 1.306 . S
O183 Cd184 2.228 . S
Cd184 O183 2.228 . S
Cd184 O188 2.273 . S
Cd184 O192 2.277 . S
O185 C182 1.160 . S
O185 Cd186 2.203 . S
Cd186 O185 2.203 . S
Cd186 O188 2.411 . S
Cd186 O189 2.333 . S
Cd186 O190 2.352 . S
Cd186 O194 2.277 . S
Cd186 O195 2.356 . S
C187 O192 1.209 . S
C187 O194 1.226 . S
O188 Cd184 2.273 . S
O188 Cd186 2.411 . S
O188 C191 1.320 . S
O189 Cd186 2.333 . S
O189 C191 1.214 . S
O190 Cd186 2.352 . S
O190 C193 1.258 . S
C191 O188 1.320 . S
C191 O189 1.214 . S
O192 Cd184 2.277 . S
O192 C187 1.209 . S
C193 O190 1.258 . S
C193 O195 1.282 . S
O194 Cd186 2.277 . S
O194 C187 1.226 . S
O195 Cd186 2.356 . S
O195 C193 1.282 . S
C196 O197 1.306 . S
C196 O199 1.160 . S
O197 C196 1.306 . S
O197 Cd198 2.228 . S
Cd198 O197 2.228 . S
Cd198 O202 2.273 . S
Cd198 O206 2.277 . S
O199 C196 1.160 . S
O199 Cd200 2.203 . S
Cd200 O199 2.203 . S
Cd200 O202 2.411 . S
Cd200 O203 2.333 . S
Cd200 O204 2.352 . S
Cd200 O208 2.277 . S
Cd200 O209 2.356 . S
C201 O206 1.209 . S
C201 O208 1.226 . S
O202 Cd198 2.273 . S
O202 Cd200 2.411 . S
O202 C205 1.320 . S
O203 Cd200 2.333 . S
O203 C205 1.214 . S
O204 Cd200 2.352 . S
O204 C207 1.258 . S
C205 O202 1.320 . S
C205 O203 1.214 . S
O206 Cd198 2.277 . S
O206 C201 1.209 . S
C207 O204 1.258 . S
C207 O209 1.282 . S
O208 Cd200 2.277 . S
O208 C201 1.226 . S
O209 Cd200 2.356 . S
O209 C207 1.282 . S
C210 O211 1.306 . S
C210 O213 1.160 . S
O211 C210 1.306 . S
O211 Cd212 2.228 . S
Cd212 O211 2.228 . S
Cd212 O216 2.273 . S
Cd212 O220 2.277 . S
O213 C210 1.160 . S
O213 Cd214 2.203 . S
Cd214 O213 2.203 . S
Cd214 O216 2.411 . S
Cd214 O217 2.333 . S
Cd214 O218 2.352 . S
Cd214 O222 2.277 . S
Cd214 O223 2.356 . S
C215 O220 1.209 . S
C215 O222 1.226 . S
O216 Cd212 2.273 . S
O216 Cd214 2.411 . S
O216 C219 1.320 . S
O217 Cd214 2.333 . S
O217 C219 1.214 . S
O218 Cd214 2.352 . S
O218 C221 1.258 . S
C219 O216 1.320 . S
C219 O217 1.214 . S
O220 Cd212 2.277 . S
O220 C215 1.209 . S
C221 O218 1.258 . S
C221 O223 1.282 . S
O222 Cd214 2.277 . S
O222 C215 1.226 . S
O223 Cd214 2.356 . S
O223 C221 1.282 . S
H224 C232 0.950 . S
H225 C237 0.950 . S
H226 C234 0.950 . S
H227 C236 0.950 . S
H228 C238 0.950 . S
H229 C240 0.950 . S
H230 C242 0.950 . S
H231 C243 0.950 . S
C232 H224 0.950 . S
C232 C233 1.386 . S
C232 C234 1.391 . S
C233 C232 1.386 . S
C233 C237 1.393 . S
C234 H226 0.950 . S
C234 C232 1.391 . S
C234 C235 1.400 . S
C235 C234 1.400 . S
C235 C236 1.398 . S
C235 C241 1.491 . S
C236 H227 0.950 . S
C236 C235 1.398 . S
C236 C237 1.391 . S
C237 H225 0.950 . S
C237 C233 1.393 . S
C237 C236 1.391 . S
C238 H228 0.950 . S
C238 C239 1.386 . S
C238 C240 1.391 . S
C239 C238 1.386 . S
C239 C243 1.393 . S
C240 H229 0.950 . S
C240 C238 1.391 . S
C240 C241 1.400 . S
C241 C235 1.491 . S
C241 C240 1.400 . S
C241 C242 1.398 . S
C242 H230 0.950 . S
C242 C241 1.398 . S
C242 C243 1.391 . S
C243 H231 0.950 . S
C243 C239 1.393 . S
C243 C242 1.391 . S
H244 C252 0.950 . S
H245 C257 0.950 . S
H246 C254 0.950 1_455 S
H247 C256 0.950 . S
H248 C258 0.950 . S
H249 C260 0.950 1_655 S
H250 C262 0.950 . S
H251 C263 0.950 . S
C252 H244 0.950 . S
C252 C253 1.386 . S
C252 C254 1.391 . S
C253 C252 1.386 . S
C253 C257 1.393 . S
C254 H246 0.950 1_655 S
C254 C252 1.391 . S
C254 C255 1.400 . S
C255 C254 1.400 . S
C255 C256 1.398 . S
C255 C261 1.491 1_665 S
C256 H247 0.950 . S
C256 C255 1.398 . S
C256 C257 1.391 . S
C257 H245 0.950 . S
C257 C253 1.393 . S
C257 C256 1.391 . S
C258 H248 0.950 . S
C258 C259 1.386 . S
C258 C260 1.391 . S
C259 C258 1.386 . S
C259 C263 1.393 . S
C260 H249 0.950 1_455 S
C260 C258 1.391 . S
C260 C261 1.400 . S
C261 C255 1.491 1_445 S
C261 C260 1.400 . S
C261 C262 1.398 . S
C262 H250 0.950 . S
C262 C261 1.398 . S
C262 C263 1.391 . S
C263 H251 0.950 . S
C263 C259 1.393 . S
C263 C262 1.391 . S
H264 C272 0.950 . S
H265 C277 0.950 . S
H266 C274 0.950 . S
H267 C276 0.950 . S
H268 C278 0.950 . S
H269 C280 0.950 . S
H270 C282 0.950 . S
H271 C283 0.950 . S
C272 H264 0.950 . S
C272 C273 1.386 . S
C272 C274 1.391 1_565 S
C273 C272 1.386 . S
C273 C277 1.393 . S
C274 H266 0.950 . S
C274 C272 1.391 1_545 S
C274 C275 1.400 1_545 S
C275 C274 1.400 1_565 S
C275 C276 1.398 . S
C275 C281 1.491 1_565 S
C276 H267 0.950 . S
C276 C275 1.398 . S
C276 C277 1.391 . S
C277 H265 0.950 . S
C277 C273 1.393 . S
C277 C276 1.391 . S
C278 H268 0.950 . S
C278 C279 1.386 . S
C278 C280 1.391 1_545 S
C279 C278 1.386 . S
C279 C283 1.393 . S
C280 H269 0.950 . S
C280 C278 1.391 1_565 S
C280 C281 1.400 1_565 S
C281 C275 1.491 1_545 S
C281 C280 1.400 1_545 S
C281 C282 1.398 . S
C282 H270 0.950 . S
C282 C281 1.398 . S
C282 C283 1.391 . S
C283 H271 0.950 . S
C283 C279 1.393 . S
C283 C282 1.391 . S
H284 C292 0.950 . S
H285 C297 0.950 . S
H286 C294 0.950 . S
H287 C296 0.950 . S
H288 C298 0.950 . S
H289 C300 0.950 . S
H290 C302 0.950 . S
H291 C303 0.950 . S
C292 H284 0.950 . S
C292 C293 1.386 . S
C292 C294 1.391 . S
C293 C292 1.386 . S
C293 C297 1.393 . S
C294 H286 0.950 . S
C294 C292 1.391 . S
C294 C295 1.400 . S
C295 C294 1.400 . S
C295 C296 1.398 . S
C295 C301 1.491 1_455 S
C296 H287 0.950 . S
C296 C295 1.398 . S
C296 C297 1.391 . S
C297 H285 0.950 . S
C297 C293 1.393 . S
C297 C296 1.391 . S
C298 H288 0.950 . S
C298 C299 1.386 . S
C298 C300 1.391 . S
C299 C298 1.386 . S
C299 C303 1.393 . S
C300 H289 0.950 . S
C300 C298 1.391 . S
C300 C301 1.400 . S
C301 C295 1.491 1_655 S
C301 C300 1.400 . S
C301 C302 1.398 . S
C302 H290 0.950 . S
C302 C301 1.398 . S
C302 C303 1.391 . S
C303 H291 0.950 . S
C303 C299 1.393 . S
C303 C302 1.391 . S
H304 C312 0.950 . S
H305 C317 0.950 . S
H306 C314 0.950 . S
H307 C316 0.950 . S
H308 C318 0.950 . S
H309 C320 0.950 . S
H310 C322 0.950 . S
H311 C323 0.950 . S
C312 H304 0.950 . S
C312 C313 1.386 . S
C312 C314 1.391 . S
C313 C312 1.386 . S
C313 C317 1.393 . S
C314 H306 0.950 . S
C314 C312 1.391 . S
C314 C315 1.400 . S
C315 C314 1.400 . S
C315 C316 1.398 . S
C315 C321 1.491 . S
C316 H307 0.950 . S
C316 C315 1.398 . S
C316 C317 1.391 . S
C317 H305 0.950 . S
C317 C313 1.393 . S
C317 C316 1.391 . S
C318 H308 0.950 . S
C318 C319 1.386 . S
C318 C320 1.391 . S
C319 C318 1.386 . S
C319 C323 1.393 . S
C320 H309 0.950 . S
C320 C318 1.391 . S
C320 C321 1.400 . S
C321 C315 1.491 . S
C321 C320 1.400 . S
C321 C322 1.398 . S
C322 H310 0.950 . S
C322 C321 1.398 . S
C322 C323 1.391 . S
C323 H311 0.950 . S
C323 C319 1.393 . S
C323 C322 1.391 . S
H324 C332 0.950 . S
H325 C337 0.950 . S
H326 C334 0.950 1_565 S
H327 C336 0.950 . S
H328 C338 0.950 . S
H329 C340 0.950 1_545 S
H330 C342 0.950 . S
H331 C343 0.950 . S
C332 H324 0.950 . S
C332 C333 1.386 . S
C332 C334 1.391 . S
C333 C332 1.386 . S
C333 C337 1.393 . S
C334 H326 0.950 1_545 S
C334 C332 1.391 . S
C334 C335 1.400 . S
C335 C334 1.400 . S
C335 C336 1.398 . S
C335 C341 1.491 1_545 S
C336 H327 0.950 . S
C336 C335 1.398 . S
C336 C337 1.391 . S
C337 H325 0.950 . S
C337 C333 1.393 . S
C337 C336 1.391 . S
C338 H328 0.950 . S
C338 C339 1.386 . S
C338 C340 1.391 . S
C339 C338 1.386 . S
C339 C343 1.393 . S
C340 H329 0.950 1_565 S
C340 C338 1.391 . S
C340 C341 1.400 . S
C341 C335 1.491 1_565 S
C341 C340 1.400 . S
C341 C342 1.398 . S
C342 H330 0.950 . S
C342 C341 1.398 . S
C342 C343 1.391 . S
C343 H331 0.950 . S
C343 C339 1.393 . S
C343 C342 1.391 . S
H344 C352 0.950 . S
H345 C357 0.950 . S
H346 C354 0.950 1_455 S
H347 C356 0.950 . S
H348 C358 0.950 . S
H349 C360 0.950 1_655 S
H350 C362 0.950 . S
H351 C363 0.950 . S
C352 H344 0.950 . S
C352 C353 1.386 . S
C352 C354 1.391 . S
C353 C352 1.386 . S
C353 C357 1.393 . S
C354 H346 0.950 1_655 S
C354 C352 1.391 . S
C354 C355 1.400 . S
C355 C354 1.400 . S
C355 C356 1.398 . S
C355 C361 1.491 1_655 S
C356 H347 0.950 . S
C356 C355 1.398 . S
C356 C357 1.391 . S
C357 H345 0.950 . S
C357 C353 1.393 . S
C357 C356 1.391 . S
C358 H348 0.950 . S
C358 C359 1.386 . S
C358 C360 1.391 . S
C359 C358 1.386 . S
C359 C363 1.393 . S
C360 H349 0.950 1_455 S
C360 C358 1.391 . S
C360 C361 1.400 . S
C361 C355 1.491 1_455 S
C361 C360 1.400 . S
C361 C362 1.398 . S
C362 H350 0.950 . S
C362 C361 1.398 . S
C362 C363 1.391 . S
C363 H351 0.950 . S
C363 C359 1.393 . S
C363 C362 1.391 . S
H364 C372 0.950 . S
H365 C377 0.950 . S
H366 C374 0.950 . S
H367 C376 0.894 1_556 S
H368 C378 0.950 . S
H369 C380 0.950 . S
H370 C382 0.894 1_554 S
H371 C383 0.950 . S
C372 H364 0.950 . S
C372 C373 1.386 . S
C372 C374 1.391 . S
C373 C372 1.386 . S
C373 C377 1.393 . S
C374 H366 0.950 . S
C374 C372 1.391 . S
C374 C375 1.400 . S
C375 C374 1.400 . S
C375 C376 1.419 . S
C375 C381 1.491 1_554 S
C376 H367 0.894 1_554 S
C376 C375 1.419 . S
C376 C377 1.427 . S
C377 H365 0.950 . S
C377 C373 1.393 . S
C377 C376 1.427 . S
C378 H368 0.950 . S
C378 C379 1.386 . S
C378 C380 1.391 . S
C379 C378 1.386 . S
C379 C383 1.393 . S
C380 H369 0.950 . S
C380 C378 1.391 . S
C380 C381 1.400 . S
C381 C375 1.491 1_556 S
C381 C380 1.400 . S
C381 C382 1.419 . S
C382 H370 0.894 1_556 S
C382 C381 1.419 . S
C382 C383 1.427 . S
C383 H371 0.950 . S
C383 C379 1.393 . S
C383 C382 1.427 . S
H384 C392 0.950 . S
H385 C397 0.950 . S
H386 C394 0.950 1_655 S
H387 C396 0.928 1_554 S
H388 C398 0.950 . S
H389 C400 0.950 1_455 S
H390 C402 0.928 1_556 S
H391 C403 0.950 . S
C392 H384 0.950 . S
C392 C393 1.386 . S
C392 C394 1.391 . S
C393 C392 1.386 . S
C393 C397 1.393 . S
C394 H386 0.950 1_455 S
C394 C392 1.391 . S
C394 C395 1.400 . S
C395 C394 1.400 . S
C395 C396 1.404 . S
C395 C401 1.491 1_456 S
C396 H387 0.928 1_556 S
C396 C395 1.404 . S
C396 C397 1.406 . S
C397 H385 0.950 . S
C397 C393 1.393 . S
C397 C396 1.406 . S
C398 H388 0.950 . S
C398 C399 1.386 . S
C398 C400 1.391 . S
C399 C398 1.386 . S
C399 C403 1.393 . S
C400 H389 0.950 1_655 S
C400 C398 1.391 . S
C400 C401 1.400 . S
C401 C395 1.491 1_654 S
C401 C400 1.400 . S
C401 C402 1.404 . S
C402 H390 0.928 1_554 S
C402 C401 1.404 . S
C402 C403 1.406 . S
C403 H391 0.950 . S
C403 C399 1.393 . S
C403 C402 1.406 . S
H404 C412 0.950 . S
H405 C417 0.950 . S
H406 C414 0.950 . S
H407 C416 0.950 . S
H408 C418 0.950 . S
H409 C420 0.950 . S
H410 C422 0.950 . S
H411 C423 0.950 . S
C412 H404 0.950 . S
C412 C413 1.386 . S
C412 C414 1.391 . S
C413 C412 1.386 . S
C413 C417 1.393 . S
C414 H406 0.950 . S
C414 C412 1.391 . S
C414 C415 1.400 . S
C415 C414 1.400 . S
C415 C416 1.398 . S
C415 C421 1.491 . S
C416 H407 0.950 . S
C416 C415 1.398 . S
C416 C417 1.391 . S
C417 H405 0.950 . S
C417 C413 1.393 . S
C417 C416 1.391 . S
C418 H408 0.950 . S
C418 C419 1.386 . S
C418 C420 1.391 . S
C419 C418 1.386 . S
C419 C423 1.393 . S
C420 H409 0.950 . S
C420 C418 1.391 . S
C420 C421 1.400 . S
C421 C415 1.491 . S
C421 C420 1.400 . S
C421 C422 1.398 . S
C422 H410 0.950 . S
C422 C421 1.398 . S
C422 C423 1.391 . S
C423 H411 0.950 . S
C423 C419 1.393 . S
C423 C422 1.391 . S
H424 C432 0.950 . S
H425 C437 0.950 . S
H426 C434 0.950 . S
H427 C436 0.950 . S
H428 C438 0.950 . S
H429 C440 0.950 . S
H430 C442 0.950 . S
H431 C443 0.950 . S
C432 H424 0.950 . S
C432 C433 1.386 . S
C432 C434 1.391 . S
C433 C432 1.386 . S
C433 C437 1.393 . S
C434 H426 0.950 . S
C434 C432 1.391 . S
C434 C435 1.400 . S
C435 C434 1.400 . S
C435 C436 1.398 . S
C435 C441 1.491 1_556 S
C436 H427 0.950 . S
C436 C435 1.398 . S
C436 C437 1.391 . S
C437 H425 0.950 . S
C437 C433 1.393 . S
C437 C436 1.391 . S
C438 H428 0.950 . S
C438 C439 1.386 . S
C438 C440 1.391 . S
C439 C438 1.386 . S
C439 C443 1.393 . S
C440 H429 0.950 . S
C440 C438 1.391 . S
C440 C441 1.400 . S
C441 C435 1.491 1_554 S
C441 C440 1.400 . S
C441 C442 1.398 . S
C442 H430 0.950 . S
C442 C441 1.398 . S
C442 C443 1.391 . S
C443 H431 0.950 . S
C443 C439 1.393 . S
C443 C442 1.391 . S
H444 C452 0.950 . S
H445 C457 0.950 . S
H446 C454 0.950 . S
H447 C456 0.950 . S
H448 C458 0.950 . S
H449 C460 0.950 . S
H450 C462 0.950 . S
H451 C463 0.950 . S
C452 H444 0.950 . S
C452 C453 1.386 . S
C452 C454 1.391 . S
C453 C452 1.386 . S
C453 C457 1.393 . S
C454 H446 0.950 . S
C454 C452 1.391 . S
C454 C455 1.400 . S
C455 C454 1.400 . S
C455 C456 1.398 . S
C455 C461 1.491 . S
C456 H447 0.950 . S
C456 C455 1.398 . S
C456 C457 1.391 . S
C457 H445 0.950 . S
C457 C453 1.393 . S
C457 C456 1.391 . S
C458 H448 0.950 . S
C458 C459 1.386 . S
C458 C460 1.391 . S
C459 C458 1.386 . S
C459 C463 1.393 . S
C460 H449 0.950 . S
C460 C458 1.391 . S
C460 C461 1.400 . S
C461 C455 1.491 . S
C461 C460 1.400 . S
C461 C462 1.398 . S
C462 H450 0.950 . S
C462 C461 1.398 . S
C462 C463 1.391 . S
C463 H451 0.950 . S
C463 C459 1.393 . S
C463 C462 1.391 . S
H464 C472 0.950 . S
H465 C477 0.950 1_565 S
H466 C474 0.950 1_554 S
H467 C476 0.950 . S
H468 C478 0.950 . S
H469 C480 0.950 1_556 S
H470 C482 0.950 . S
H471 C483 0.950 1_545 S
C472 H464 0.950 . S
C472 C473 1.386 . S
C472 C474 1.391 . S
C473 C472 1.386 . S
C473 C477 1.393 . S
C474 H466 0.950 1_556 S
C474 C472 1.391 . S
C474 C475 1.400 . S
C475 C474 1.400 . S
C475 C476 1.398 1_545 S
C475 C481 1.491 1_546 S
C476 H467 0.950 . S
C476 C475 1.398 1_565 S
C476 C477 1.391 1_565 S
C477 H465 0.950 1_545 S
C477 C473 1.393 . S
C477 C476 1.391 1_545 S
C478 H468 0.950 . S
C478 C479 1.386 . S
C478 C480 1.391 . S
C479 C478 1.386 . S
C479 C483 1.393 . S
C480 H469 0.950 1_554 S
C480 C478 1.391 . S
C480 C481 1.400 . S
C481 C475 1.491 1_564 S
C481 C480 1.400 . S
C481 C482 1.398 1_565 S
C482 H470 0.950 . S
C482 C481 1.398 1_545 S
C482 C483 1.391 1_545 S
C483 H471 0.950 1_565 S
C483 C479 1.393 . S
C483 C482 1.391 1_565 S
H484 C492 0.950 . S
H485 C497 0.950 . S
H486 C494 0.950 . S
H487 C496 0.950 . S
H488 C498 0.950 . S
H489 C500 0.950 . S
H490 C502 0.950 . S
H491 C503 0.950 . S
C492 H484 0.950 . S
C492 C493 1.386 . S
C492 C494 1.391 . S
C493 C492 1.386 . S
C493 C497 1.393 . S
C494 H486 0.950 . S
C494 C492 1.391 . S
C494 C495 1.400 . S
C495 C494 1.400 . S
C495 C496 1.398 . S
C495 C501 1.491 . S
C496 H487 0.950 . S
C496 C495 1.398 . S
C496 C497 1.391 . S
C497 H485 0.950 . S
C497 C493 1.393 . S
C497 C496 1.391 . S
C498 H488 0.950 . S
C498 C499 1.386 . S
C498 C500 1.391 . S
C499 C498 1.386 . S
C499 C503 1.393 . S
C500 H489 0.950 . S
C500 C498 1.391 . S
C500 C501 1.400 . S
C501 C495 1.491 . S
C501 C500 1.400 . S
C501 C502 1.398 . S
C502 H490 0.950 . S
C502 C501 1.398 . S
C502 C503 1.391 . S
C503 H491 0.950 . S
C503 C499 1.393 . S
C503 C502 1.391 . S
H504 C512 0.950 . S
H505 C517 0.950 . S
H506 C514 0.950 . S
H507 C516 0.950 . S
H508 C518 0.950 . S
H509 C520 0.950 . S
H510 C522 0.950 . S
H511 C523 0.950 . S
C512 H504 0.950 . S
C512 C513 1.386 . S
C512 C514 1.391 . S
C513 C512 1.386 . S
C513 C517 1.393 . S
C514 H506 0.950 . S
C514 C512 1.391 . S
C514 C515 1.400 . S
C515 C514 1.400 . S
C515 C516 1.398 . S
C515 C521 1.491 . S
C516 H507 0.950 . S
C516 C515 1.398 . S
C516 C517 1.391 . S
C517 H505 0.950 . S
C517 C513 1.393 . S
C517 C516 1.391 . S
C518 H508 0.950 . S
C518 C519 1.386 . S
C518 C520 1.391 . S
C519 C518 1.386 . S
C519 C523 1.393 . S
C520 H509 0.950 . S
C520 C518 1.391 . S
C520 C521 1.400 . S
C521 C515 1.491 . S
C521 C520 1.400 . S
C521 C522 1.398 . S
C522 H510 0.950 . S
C522 C521 1.398 . S
C522 C523 1.391 . S
C523 H511 0.950 . S
C523 C519 1.393 . S
C523 C522 1.391 . S
H524 C532 0.950 . S
H525 C537 0.950 . S
H526 C534 0.950 . S
H527 C536 0.950 . S
H528 C538 0.950 . S
H529 C540 0.950 . S
H530 C542 0.950 . S
H531 C543 0.950 . S
C532 H524 0.950 . S
C532 C533 1.386 . S
C532 C534 1.391 . S
C533 C532 1.386 . S
C533 C537 1.393 . S
C534 H526 0.950 . S
C534 C532 1.391 . S
C534 C535 1.400 . S
C535 C534 1.400 . S
C535 C536 1.398 . S
C535 C541 1.491 . S
C536 H527 0.950 . S
C536 C535 1.398 . S
C536 C537 1.391 . S
C537 H525 0.950 . S
C537 C533 1.393 . S
C537 C536 1.391 . S
C538 H528 0.950 . S
C538 C539 1.386 . S
C538 C540 1.391 . S
C539 C538 1.386 . S
C539 C543 1.393 . S
C540 H529 0.950 . S
C540 C538 1.391 . S
C540 C541 1.400 . S
C541 C535 1.491 . S
C541 C540 1.400 . S
C541 C542 1.398 . S
C542 H530 0.950 . S
C542 C541 1.398 . S
C542 C543 1.391 . S
C543 H531 0.950 . S
C543 C539 1.393 . S
C543 C542 1.391 . S
H544 C552 0.950 . S
H545 C557 0.950 . S
H546 C554 0.950 . S
H547 C556 0.950 . S
H548 C558 0.950 1_545 S
H549 C560 0.950 . S
H550 C562 0.950 . S
H551 C563 0.950 . S
C552 H544 0.950 . S
C552 C553 1.386 . S
C552 C554 1.391 . S
C553 C552 1.386 . S
C553 C557 1.393 . S
C554 H546 0.950 . S
C554 C552 1.391 . S
C554 C555 1.400 . S
C555 C554 1.400 . S
C555 C556 1.398 . S
C555 C561 1.491 . S
C556 H547 0.950 . S
C556 C555 1.398 . S
C556 C557 1.391 . S
C557 H545 0.950 . S
C557 C553 1.393 . S
C557 C556 1.391 . S
C558 H548 0.950 1_565 S
C558 C559 1.386 . S
C558 C560 1.391 . S
C559 C558 1.386 . S
C559 C563 1.393 . S
C560 H549 0.950 . S
C560 C558 1.391 . S
C560 C561 1.400 . S
C561 C555 1.491 . S
C561 C560 1.400 . S
C561 C562 1.398 . S
C562 H550 0.950 . S
C562 C561 1.398 . S
C562 C563 1.391 . S
C563 H551 0.950 . S
C563 C559 1.393 . S
C563 C562 1.391 . S
H564 C572 0.950 . S
H565 C577 0.950 . S
H566 C574 0.950 . S
H567 C576 0.950 . S
H568 C578 0.950 . S
H569 C580 0.950 . S
H570 C582 0.950 . S
H571 C583 0.950 . S
C572 H564 0.950 . S
C572 C573 1.386 . S
C572 C574 1.391 . S
C573 C572 1.386 . S
C573 C577 1.393 . S
C574 H566 0.950 . S
C574 C572 1.391 . S
C574 C575 1.400 . S
C575 C574 1.400 . S
C575 C576 1.398 . S
C575 C581 1.491 . S
C576 H567 0.950 . S
C576 C575 1.398 . S
C576 C577 1.391 . S
C577 H565 0.950 . S
C577 C573 1.393 . S
C577 C576 1.391 . S
C578 H568 0.950 . S
C578 C579 1.386 . S
C578 C580 1.391 . S
C579 C578 1.386 . S
C579 C583 1.393 . S
C580 H569 0.950 . S
C580 C578 1.391 . S
C580 C581 1.400 . S
C581 C575 1.491 . S
C581 C580 1.400 . S
C581 C582 1.398 . S
C582 H570 0.950 . S
C582 C581 1.398 . S
C582 C583 1.391 . S
C583 H571 0.950 . S
C583 C579 1.393 . S
C583 C582 1.391 . S
H584 C592 0.950 . S
H585 C597 0.950 . S
H586 C594 0.950 . S
H587 C596 0.950 . S
H588 C598 0.950 . S
H589 C600 0.950 . S
H590 C602 0.950 . S
H591 C603 0.950 . S
C592 H584 0.950 . S
C592 C593 1.386 . S
C592 C594 1.391 . S
C593 C592 1.386 . S
C593 C597 1.393 . S
C594 H586 0.950 . S
C594 C592 1.391 . S
C594 C595 1.400 . S
C595 C594 1.400 . S
C595 C596 1.398 . S
C595 C601 1.491 . S
C596 H587 0.950 . S
C596 C595 1.398 . S
C596 C597 1.391 . S
C597 H585 0.950 . S
C597 C593 1.393 . S
C597 C596 1.391 . S
C598 H588 0.950 . S
C598 C599 1.386 . S
C598 C600 1.391 . S
C599 C598 1.386 . S
C599 C603 1.393 . S
C600 H589 0.950 . S
C600 C598 1.391 . S
C600 C601 1.400 . S
C601 C595 1.491 . S
C601 C600 1.400 . S
C601 C602 1.398 . S
C602 H590 0.950 . S
C602 C601 1.398 . S
C602 C603 1.391 . S
C603 H591 0.950 . S
C603 C599 1.393 . S
C603 C602 1.391 . S
H604 C612 0.950 . S
H605 C617 0.950 . S
H606 C614 0.950 . S
H607 C616 0.950 . S
H608 C618 0.950 1_545 S
H609 C620 0.950 . S
H610 C622 0.950 . S
H611 C623 0.950 . S
C612 H604 0.950 . S
C612 C613 1.386 . S
C612 C614 1.391 . S
C613 C612 1.386 . S
C613 C617 1.393 . S
C614 H606 0.950 . S
C614 C612 1.391 . S
C614 C615 1.400 . S
C615 C614 1.400 . S
C615 C616 1.398 . S
C615 C621 1.491 . S
C616 H607 0.950 . S
C616 C615 1.398 . S
C616 C617 1.391 . S
C617 H605 0.950 . S
C617 C613 1.393 . S
C617 C616 1.391 . S
C618 H608 0.950 1_565 S
C618 C619 1.386 . S
C618 C620 1.391 . S
C619 C618 1.386 . S
C619 C623 1.393 . S
C620 H609 0.950 . S
C620 C618 1.391 . S
C620 C621 1.400 . S
C621 C615 1.491 . S
C621 C620 1.400 . S
C621 C622 1.398 . S
C622 H610 0.950 . S
C622 C621 1.398 . S
C622 C623 1.391 . S
C623 H611 0.950 . S
C623 C619 1.393 . S
C623 C622 1.391 . S
H624 C632 0.950 . S
H625 C637 0.950 . S
H626 C634 0.950 . S
H627 C636 0.950 . S
H628 C638 0.950 1_565 S
H629 C640 0.950 . S
H630 C642 0.950 . S
H631 C643 0.950 . S
C632 H624 0.950 . S
C632 C633 1.386 . S
C632 C634 1.391 . S
C633 C632 1.386 . S
C633 C637 1.393 . S
C634 H626 0.950 . S
C634 C632 1.391 . S
C634 C635 1.400 . S
C635 C634 1.400 . S
C635 C636 1.398 . S
C635 C641 1.491 . S
C636 H627 0.950 . S
C636 C635 1.398 . S
C636 C637 1.391 . S
C637 H625 0.950 . S
C637 C633 1.393 . S
C637 C636 1.391 . S
C638 H628 0.950 1_545 S
C638 C639 1.386 . S
C638 C640 1.391 . S
C639 C638 1.386 . S
C639 C643 1.393 . S
C640 H629 0.950 . S
C640 C638 1.391 . S
C640 C641 1.400 . S
C641 C635 1.491 . S
C641 C640 1.400 . S
C641 C642 1.398 . S
C642 H630 0.950 . S
C642 C641 1.398 . S
C642 C643 1.391 . S
C643 H631 0.950 . S
C643 C639 1.393 . S
C643 C642 1.391 . S
H644 C652 0.950 . S
H645 C657 0.950 . S
H646 C654 0.950 . S
H647 C656 0.950 . S
H648 C658 0.950 . S
H649 C660 0.950 . S
H650 C662 0.950 . S
H651 C663 0.950 . S
C652 H644 0.950 . S
C652 C653 1.386 . S
C652 C654 1.391 . S
C653 C652 1.386 . S
C653 C657 1.393 . S
C654 H646 0.950 . S
C654 C652 1.391 . S
C654 C655 1.400 . S
C655 C654 1.400 . S
C655 C656 1.398 . S
C655 C661 1.491 . S
C656 H647 0.950 . S
C656 C655 1.398 . S
C656 C657 1.391 . S
C657 H645 0.950 . S
C657 C653 1.393 . S
C657 C656 1.391 . S
C658 H648 0.950 . S
C658 C659 1.386 . S
C658 C660 1.391 . S
C659 C658 1.386 . S
C659 C663 1.393 . S
C660 H649 0.950 . S
C660 C658 1.391 . S
C660 C661 1.400 . S
C661 C655 1.491 . S
C661 C660 1.400 . S
C661 C662 1.398 . S
C662 H650 0.950 . S
C662 C661 1.398 . S
C662 C663 1.391 . S
C663 H651 0.950 . S
C663 C659 1.393 . S
C663 C662 1.391 . S
H664 C672 0.950 . S
H665 C677 0.950 . S
H666 C674 0.950 . S
H667 C676 0.950 . S
H668 C678 0.950 . S
H669 C680 0.950 . S
H670 C682 0.950 . S
H671 C683 0.950 . S
C672 H664 0.950 . S
C672 C673 1.386 . S
C672 C674 1.391 . S
C673 C672 1.386 . S
C673 C677 1.393 . S
C674 H666 0.950 . S
C674 C672 1.391 . S
C674 C675 1.400 . S
C675 C674 1.400 . S
C675 C676 1.398 . S
C675 C681 1.491 . S
C676 H667 0.950 . S
C676 C675 1.398 . S
C676 C677 1.391 . S
C677 H665 0.950 . S
C677 C673 1.393 . S
C677 C676 1.391 . S
C678 H668 0.950 . S
C678 C679 1.386 . S
C678 C680 1.391 . S
C679 C678 1.386 . S
C679 C683 1.393 . S
C680 H669 0.950 . S
C680 C678 1.391 . S
C680 C681 1.400 . S
C681 C675 1.491 . S
C681 C680 1.400 . S
C681 C682 1.398 . S
C682 H670 0.950 . S
C682 C681 1.398 . S
C682 C683 1.391 . S
C683 H671 0.950 . S
C683 C679 1.393 . S
C683 C682 1.391 . S
H684 C692 0.950 . S
H685 C697 0.950 . S
H686 C694 0.950 . S
H687 C696 0.950 . S
H688 C698 0.950 . S
H689 C700 0.950 . S
H690 C702 0.950 . S
H691 C703 0.950 . S
C692 H684 0.950 . S
C692 C693 1.386 . S
C692 C694 1.391 . S
C693 C692 1.386 . S
C693 C697 1.393 . S
C694 H686 0.950 . S
C694 C692 1.391 . S
C694 C695 1.400 . S
C695 C694 1.400 . S
C695 C696 1.398 . S
C695 C701 1.491 . S
C696 H687 0.950 . S
C696 C695 1.398 . S
C696 C697 1.391 . S
C697 H685 0.950 . S
C697 C693 1.393 . S
C697 C696 1.391 . S
C698 H688 0.950 . S
C698 C699 1.386 . S
C698 C700 1.391 . S
C699 C698 1.386 . S
C699 C703 1.393 . S
C700 H689 0.950 . S
C700 C698 1.391 . S
C700 C701 1.400 . S
C701 C695 1.491 . S
C701 C700 1.400 . S
C701 C702 1.398 . S
C702 H690 0.950 . S
C702 C701 1.398 . S
C702 C703 1.391 . S
C703 H691 0.950 . S
C703 C699 1.393 . S
C703 C702 1.391 . S
H704 C712 0.950 . S
H705 C717 0.950 . S
H706 C714 0.950 . S
H707 C716 0.950 . S
H708 C718 0.950 . S
H709 C720 0.950 . S
H710 C722 0.950 . S
H711 C723 0.950 . S
C712 H704 0.950 . S
C712 C713 1.386 . S
C712 C714 1.391 . S
C713 C712 1.386 . S
C713 C717 1.393 . S
C714 H706 0.950 . S
C714 C712 1.391 . S
C714 C715 1.400 . S
C715 C714 1.400 . S
C715 C716 1.398 . S
C715 C721 1.491 . S
C716 H707 0.950 . S
C716 C715 1.398 . S
C716 C717 1.391 . S
C717 H705 0.950 . S
C717 C713 1.393 . S
C717 C716 1.391 . S
C718 H708 0.950 . S
C718 C719 1.386 . S
C718 C720 1.391 . S
C719 C718 1.386 . S
C719 C723 1.393 . S
C720 H709 0.950 . S
C720 C718 1.391 . S
C720 C721 1.400 . S
C721 C715 1.491 . S
C721 C720 1.400 . S
C721 C722 1.398 . S
C722 H710 0.950 . S
C722 C721 1.398 . S
C722 C723 1.391 . S
C723 H711 0.950 . S
C723 C719 1.393 . S
C723 C722 1.391 . S
H724 C732 0.950 . S
H725 C737 0.950 . S
H726 C734 0.950 . S
H727 C736 0.950 . S
H728 C738 0.950 . S
H729 C740 0.950 . S
H730 C742 0.950 . S
H731 C743 0.950 . S
C732 H724 0.950 . S
C732 C733 1.386 . S
C732 C734 1.391 . S
C733 C732 1.386 . S
C733 C737 1.393 . S
C734 H726 0.950 . S
C734 C732 1.391 . S
C734 C735 1.400 . S
C735 C734 1.400 . S
C735 C736 1.398 . S
C735 C741 1.491 . S
C736 H727 0.950 . S
C736 C735 1.398 . S
C736 C737 1.391 . S
C737 H725 0.950 . S
C737 C733 1.393 . S
C737 C736 1.391 . S
C738 H728 0.950 . S
C738 C739 1.386 . S
C738 C740 1.391 . S
C739 C738 1.386 . S
C739 C743 1.393 . S
C740 H729 0.950 . S
C740 C738 1.391 . S
C740 C741 1.400 . S
C741 C735 1.491 . S
C741 C740 1.400 . S
C741 C742 1.398 . S
C742 H730 0.950 . S
C742 C741 1.398 . S
C742 C743 1.391 . S
C743 H731 0.950 . S
C743 C739 1.393 . S
C743 C742 1.391 . S
H744 C752 0.950 . S
H745 C757 0.950 . S
H746 C754 0.950 . S
H747 C756 0.950 . S
H748 C758 0.950 . S
H749 C760 0.950 . S
H750 C762 0.950 . S
H751 C763 0.950 . S
C752 H744 0.950 . S
C752 C753 1.386 . S
C752 C754 1.391 . S
C753 C752 1.386 . S
C753 C757 1.393 . S
C754 H746 0.950 . S
C754 C752 1.391 . S
C754 C755 1.400 . S
C755 C754 1.400 . S
C755 C756 1.398 . S
C755 C761 1.491 . S
C756 H747 0.950 . S
C756 C755 1.398 . S
C756 C757 1.391 . S
C757 H745 0.950 . S
C757 C753 1.393 . S
C757 C756 1.391 . S
C758 H748 0.950 . S
C758 C759 1.386 . S
C758 C760 1.391 . S
C759 C758 1.386 . S
C759 C763 1.393 . S
C760 H749 0.950 . S
C760 C758 1.391 . S
C760 C761 1.400 . S
C761 C755 1.491 . S
C761 C760 1.400 . S
C761 C762 1.398 . S
C762 H750 0.950 . S
C762 C761 1.398 . S
C762 C763 1.391 . S
C763 H751 0.950 . S
C763 C759 1.393 . S
C763 C762 1.391 . S
H764 C772 0.950 . S
H765 C777 0.950 . S
H766 C774 0.950 . S
H767 C776 0.950 . S
H768 C778 0.950 1_545 S
H769 C780 0.950 . S
H770 C782 0.950 . S
H771 C783 0.950 . S
C772 H764 0.950 . S
C772 C773 1.386 . S
C772 C774 1.391 . S
C773 C772 1.386 . S
C773 C777 1.393 . S
C774 H766 0.950 . S
C774 C772 1.391 . S
C774 C775 1.400 . S
C775 C774 1.400 . S
C775 C776 1.398 . S
C775 C781 1.491 . S
C776 H767 0.950 . S
C776 C775 1.398 . S
C776 C777 1.391 . S
C777 H765 0.950 . S
C777 C773 1.393 . S
C777 C776 1.391 . S
C778 H768 0.950 1_565 S
C778 C779 1.386 . S
C778 C780 1.391 . S
C779 C778 1.386 . S
C779 C783 1.393 . S
C780 H769 0.950 . S
C780 C778 1.391 . S
C780 C781 1.400 . S
C781 C775 1.491 . S
C781 C780 1.400 . S
C781 C782 1.398 . S
C782 H770 0.950 . S
C782 C781 1.398 . S
C782 C783 1.391 . S
C783 H771 0.950 . S
C783 C779 1.393 . S
C783 C782 1.391 . S
H784 C792 0.950 . S
H785 C797 0.950 . S
H786 C794 0.950 . S
H787 C796 0.950 . S
H788 C798 0.950 . S
H789 C800 0.950 . S
H790 C802 0.950 . S
H791 C803 0.950 1_565 S
C792 H784 0.950 . S
C792 C793 1.386 . S
C792 C794 1.391 . S
C793 C792 1.386 . S
C793 C797 1.393 . S
C794 H786 0.950 . S
C794 C792 1.391 . S
C794 C795 1.400 . S
C795 C794 1.400 . S
C795 C796 1.398 . S
C795 C801 1.491 . S
C796 H787 0.950 . S
C796 C795 1.398 . S
C796 C797 1.391 . S
C797 H785 0.950 . S
C797 C793 1.393 . S
C797 C796 1.391 . S
C798 H788 0.950 . S
C798 C799 1.386 . S
C798 C800 1.391 . S
C799 C798 1.386 . S
C799 C803 1.393 . S
C800 H789 0.950 . S
C800 C798 1.391 . S
C800 C801 1.400 . S
C801 C795 1.491 . S
C801 C800 1.400 . S
C801 C802 1.398 . S
C802 H790 0.950 . S
C802 C801 1.398 . S
C802 C803 1.391 . S
C803 H791 0.950 1_545 S
C803 C799 1.393 . S
C803 C802 1.391 . S
H804 C812 0.950 . S
H805 C817 0.950 . S
H806 C814 0.950 . S
H807 C816 0.950 . S
H808 C818 0.950 . S
H809 C820 0.950 . S
H810 C822 0.950 . S
H811 C823 0.950 . S
C812 H804 0.950 . S
C812 C813 1.386 . S
C812 C814 1.391 . S
C813 C812 1.386 . S
C813 C817 1.393 . S
C814 H806 0.950 . S
C814 C812 1.391 . S
C814 C815 1.400 . S
C815 C814 1.400 . S
C815 C816 1.398 . S
C815 C821 1.491 . S
C816 H807 0.950 . S
C816 C815 1.398 . S
C816 C817 1.391 . S
C817 H805 0.950 . S
C817 C813 1.393 . S
C817 C816 1.391 . S
C818 H808 0.950 . S
C818 C819 1.386 . S
C818 C820 1.391 . S
C819 C818 1.386 . S
C819 C823 1.393 . S
C820 H809 0.950 . S
C820 C818 1.391 . S
C820 C821 1.400 . S
C821 C815 1.491 . S
C821 C820 1.400 . S
C821 C822 1.398 . S
C822 H810 0.950 . S
C822 C821 1.398 . S
C822 C823 1.391 . S
C823 H811 0.950 . S
C823 C819 1.393 . S
C823 C822 1.391 . S
H824 C832 0.950 . S
H825 C837 0.950 . S
H826 C834 0.950 . S
H827 C836 0.950 . S
H828 C838 0.950 . S
H829 C840 0.950 . S
H830 C842 0.950 . S
H831 C843 0.950 . S
C832 H824 0.950 . S
C832 C833 1.386 . S
C832 C834 1.391 . S
C833 C832 1.386 . S
C833 C837 1.393 . S
C834 H826 0.950 . S
C834 C832 1.391 . S
C834 C835 1.400 . S
C835 C834 1.400 . S
C835 C836 1.398 . S
C835 C841 1.491 . S
C836 H827 0.950 . S
C836 C835 1.398 . S
C836 C837 1.391 . S
C837 H825 0.950 . S
C837 C833 1.393 . S
C837 C836 1.391 . S
C838 H828 0.950 . S
C838 C839 1.386 . S
C838 C840 1.391 . S
C839 C838 1.386 . S
C839 C843 1.393 . S
C840 H829 0.950 . S
C840 C838 1.391 . S
C840 C841 1.400 . S
C841 C835 1.491 . S
C841 C840 1.400 . S
C841 C842 1.398 . S
C842 H830 0.950 . S
C842 C841 1.398 . S
C842 C843 1.391 . S
C843 H831 0.950 . S
C843 C839 1.393 . S
C843 C842 1.391 . S
H844 C852 0.950 . S
H845 C857 0.950 . S
H846 C854 0.950 . S
H847 C856 0.950 . S
H848 C858 0.950 1_565 S
H849 C860 0.950 . S
H850 C862 0.950 . S
H851 C863 0.950 . S
C852 H844 0.950 . S
C852 C853 1.386 . S
C852 C854 1.391 . S
C853 C852 1.386 . S
C853 C857 1.393 . S
C854 H846 0.950 . S
C854 C852 1.391 . S
C854 C855 1.400 . S
C855 C854 1.400 . S
C855 C856 1.398 . S
C855 C861 1.491 . S
C856 H847 0.950 . S
C856 C855 1.398 . S
C856 C857 1.391 . S
C857 H845 0.950 . S
C857 C853 1.393 . S
C857 C856 1.391 . S
C858 H848 0.950 1_545 S
C858 C859 1.386 . S
C858 C860 1.391 . S
C859 C858 1.386 . S
C859 C863 1.393 . S
C860 H849 0.950 . S
C860 C858 1.391 . S
C860 C861 1.400 . S
C861 C855 1.491 . S
C861 C860 1.400 . S
C861 C862 1.398 . S
C862 H850 0.950 . S
C862 C861 1.398 . S
C862 C863 1.391 . S
C863 H851 0.950 . S
C863 C859 1.393 . S
C863 C862 1.391 . S
C233 C196 1.494 . S
C239 C0 1.494 . S
C253 C39 1.496 . S
C259 C11 1.496 . S
C273 C165 1.494 . S
C279 C25 1.494 . S
C293 C14 1.494 . S
C299 C98 1.494 . S
C313 C28 1.489 . S
C319 C168 1.489 . S
C333 C137 1.496 . S
C339 C53 1.496 . S
C353 C42 1.495 . S
C359 C70 1.495 . S
C373 C140 1.490 . S
C379 C56 1.490 . S
C393 C67 1.495 . S
C399 C95 1.495 . S
C413 C221 1.493 . S
C419 C81 1.493 . S
C433 C112 1.487 . S
C439 C84 1.487 . S
C453 C193 1.495 . S
C459 C109 1.495 . S
C473 C123 1.493 . S
C479 C151 1.493 . S
C493 C210 1.495 . S
C499 C126 1.495 . S
C513 C154 1.488 . S
C519 C182 1.488 . S
C533 C207 1.494 . S
C539 C179 1.494 . S
C553 C75 1.438 . S
C559 C9 1.432 1_565 S
C573 C5 1.440 . S
C579 C79 1.432 . S
C593 C19 1.439 . S
C599 C65 1.431 . S
C613 C61 1.439 . S
C619 C23 1.431 1_565 S
C633 C103 1.440 . S
C639 C37 1.435 1_545 S
C653 C107 1.430 . S
C659 C33 1.440 . S
C673 C93 1.437 . S
C679 C47 1.438 . S
C693 C51 1.434 1_545 S
C699 C89 1.440 . S
C713 C187 1.437 . S
C719 C121 1.434 1_565 S
C733 C117 1.440 . S
C739 C191 1.430 . S
C753 C131 1.441 . S
C759 C177 1.430 . S
C773 C173 1.440 . S
C779 C135 1.432 1_565 S
C793 C215 1.438 . S
C799 C149 1.433 1_545 S
C813 C219 1.437 . S
C819 C145 1.439 . S
C833 C159 1.440 . S
C839 C205 1.431 . S
C853 C201 1.439 . S
C859 C163 1.435 1_545 S
