# Generated by pormake.
# Topology cab, (5)-cn, num edge types: 1
# Building blocks:
#     Node 0, Type 0, BuildingBlock: XOMCOT_clean_sbu_0, # of connection points: 5
#     Node 1, Type 0, BuildingBlock: XOMCOT_clean_sbu_0, # of connection points: 5
#     Node 2, Type 0, BuildingBlock: XOMCOT_clean_sbu_0, # of connection points: 5
#     Node 3, Type 0, BuildingBlock: XOMCOT_clean_sbu_0, # of connection points: 5
#     Node 4, Type 0, BuildingBlock: XOMCOT_clean_sbu_0, # of connection points: 5
#     Node 5, Type 0, BuildingBlock: XOMCOT_clean_sbu_0, # of connection points: 5
#     Edge 6, Type (0, 0), BuildingBlock: KIFKEQ_clean_linker_1, # of connection points: 2
#     Edge 7, Type (0, 0), BuildingBlock: KIFKEQ_clean_linker_1, # of connection points: 2
#     Edge 8, Type (0, 0), BuildingBlock: KIFKEQ_clean_linker_1, # of connection points: 2
#     Edge 9, Type (0, 0), BuildingBlock: KIFKEQ_clean_linker_1, # of connection points: 2
#     Edge 10, Type (0, 0), BuildingBlock: KIFKEQ_clean_linker_1, # of connection points: 2
#     Edge 11, Type (0, 0), BuildingBlock: KIFKEQ_clean_linker_1, # of connection points: 2
#     Edge 12, Type (0, 0), BuildingBlock: KIFKEQ_clean_linker_1, # of connection points: 2
#     Edge 13, Type (0, 0), BuildingBlock: KIFKEQ_clean_linker_1, # of connection points: 2
#     Edge 14, Type (0, 0), BuildingBlock: KIFKEQ_clean_linker_1, # of connection points: 2
#     Edge 15, Type (0, 0), BuildingBlock: KIFKEQ_clean_linker_1, # of connection points: 2
#     Edge 16, Type (0, 0), BuildingBlock: KIFKEQ_clean_linker_1, # of connection points: 2
#     Edge 17, Type (0, 0), BuildingBlock: KIFKEQ_clean_linker_1, # of connection points: 2
#     Edge 18, Type (0, 0), BuildingBlock: KIFKEQ_clean_linker_1, # of connection points: 2
#     Edge 19, Type (0, 0), BuildingBlock: KIFKEQ_clean_linker_1, # of connection points: 2
#     Edge 20, Type (0, 0), BuildingBlock: KIFKEQ_clean_linker_1, # of connection points: 2
# Relax obj value: 0.836
# Max RMSD: 0.225
# Mean RMSD: 0.222
data_MOF--net-cab--node1-XOMCOT_clean_sbu_0--edge1-KIFKEQ_clean_linker_1
_symmetry_space_group_name_H-M    P1
_symmetry_Int_Tables_number       1
_symmetry_cell_setting            triclinic
loop_
_symmetry_equiv_pos_as_xyz
'x, y, z'
_cell_length_a     36.84771
_cell_length_b     37.009531
_cell_length_c     36.799632
_cell_angle_alpha  78.413306
_cell_angle_beta   77.390865
_cell_angle_gamma 78.795342
loop_
_atom_site_label
_atom_site_type_symbol
_atom_site_fract_x
_atom_site_fract_y
_atom_site_fract_z
_atom_type_partial_charge
Co0 Co -0.00026 0.01002 0.34835 0.0
C1 C 0.01954 0.92861 0.3769 0.0
C2 C 0.96718 0.94187 0.35753 0.0
C3 C 0.97561 0.90384 0.36647 0.0
N4 N 0.99408 0.95775 0.3651 0.0
N5 N 0.0088 0.89529 0.3784 0.0
H6 H 0.04699 0.93146 0.38058 0.0
H7 H 0.94465 0.95653 0.3431 0.0
C8 C 0.91732 0.01448 0.37981 0.0
O9 O 0.92467 0.99074 0.41 0.0
N10 N 0.00453 0.06167 0.3297 0.0
C11 C 0.02909 0.08141 0.33566 0.0
C12 C 0.02621 0.11534 0.31177 0.0
C13 C 0.9873 0.08344 0.30245 0.0
N14 N 3e-05 0.11647 0.29071 0.0
C15 C 0.0239 -0.0016 0.41904 0.0
C16 C 0.97123 0.05354 0.44975 0.0
C17 C -0.00208 0.03249 0.47078 0.0
C18 C 0.0246 0.00476 0.45483 0.0
C19 C 0.97176 0.0464 0.4138 0.0
N20 N 0.99699 0.01811 0.39944 0.0
H21 H 0.04628 0.97889 0.40647 0.0
H22 H 0.95241 0.06431 0.39717 0.0
H23 H 0.04878 0.07121 0.35472 0.0
H24 H 0.96673 0.07451 0.29069 0.0
O25 O 0.05347 0.99636 0.33483 0.0
O26 O 0.01326 0.00103 0.29655 0.0
O27 O 0.94371 0.02423 0.3528 0.0
C28 C 0.04805 0.99463 0.30156 0.0
H29 H 0.96056 0.8841 0.36031 0.0
H30 H 0.0435 0.13665 0.3089 0.0
H31 H 0.95056 0.07577 0.46059 0.0
H32 H 0.04704 0.98918 0.46906 0.0
Co33 Co 0.13738 0.14972 0.7649 0.0
C34 C 0.07284 0.17245 0.82558 0.0
C35 C 0.06128 0.13154 0.79767 0.0
C36 C 0.03101 0.13926 0.82564 0.0
N37 N 0.08745 0.15281 0.79689 0.0
N38 N 0.03826 0.16491 0.84321 0.0
H39 H 0.08716 0.19136 0.83405 0.0
H40 H 0.0642 0.11055 0.78021 0.0
C41 C 0.17748 0.07261 0.79464 0.0
O42 O 0.2062 0.07383 0.76641 0.0
N43 N 0.18711 0.14669 0.73327 0.0
C44 C 0.19798 0.14095 0.69706 0.0
C45 C 0.2367 0.13793 0.68738 0.0
C46 C 0.21905 0.1488 0.74432 0.0
N47 N 0.24954 0.14341 0.71706 0.0
C48 C 0.09395 0.15447 0.70863 0.0
C49 C 0.11029 0.08026 0.69999 0.0
C50 C 0.0847 0.10464 0.67973 0.0
C51 C 0.07699 0.14231 0.68397 0.0
C52 C 0.12702 0.09365 0.72403 0.0
N53 N 0.11834 0.13026 0.72864 0.0
H54 H 0.08658 0.18332 0.71239 0.0
H55 H 0.14661 0.07423 0.7388 0.0
H56 H 0.17956 0.13775 0.67916 0.0
H57 H 0.22047 0.15093 0.77287 0.0
O58 O 0.12815 0.20228 0.74463 0.0
O59 O 0.15308 0.17806 0.79556 0.0
O60 O 0.14925 0.09887 0.79577 0.0
C61 C 0.14178 0.20762 0.77252 0.0
H62 H 0.00623 0.12572 0.83361 0.0
H63 H 0.25417 0.13065 0.66135 0.0
H64 H 0.11699 0.05086 0.69783 0.0
H65 H 0.05804 0.16239 0.66835 0.0
Co66 Co 0.35611 0.02098 0.01529 0.0
C67 C 0.38602 0.0426 0.93387 0.0
C68 C 0.37882 0.98526 0.94717 0.0
C69 C 0.38712 0.99495 0.90859 0.0
N70 N 0.37898 0.0149 0.96336 0.0
N71 N 0.39114 0.03123 0.9002 0.0
H72 H 0.38345 0.0715 0.93672 0.0
H73 H 0.36905 0.95957 0.96178 0.0
C74 C 0.39409 0.94172 0.02609 0.0
O75 O 0.42512 0.95201 0.00474 0.0
N76 N 0.33141 0.02688 0.06613 0.0
C77 C 0.33126 0.05548 0.08378 0.0
C78 C 0.30239 0.05482 0.11476 0.0
C79 C 0.30299 0.00914 0.08652 0.0
N80 N 0.28467 0.02574 0.11626 0.0
C81 C 0.42568 0.04922 0.00508 0.0
C82 C 0.44768 0.00704 0.06997 0.0
C83 C 0.47102 0.03123 0.04642 0.0
C84 C 0.45971 0.05259 0.0137 0.0
C85 C 0.41411 0.00413 0.06 0.0
N86 N 0.40393 0.02436 0.02736 0.0
H87 H 0.41651 0.0674 0.98105 0.0
H88 H 0.39609 0.98571 0.07874 0.0
H89 H 0.34904 0.07682 0.07331 0.0
H90 H 0.29375 0.98672 0.07778 0.0
O91 O 0.33949 0.07318 -0.00101 0.0
O92 O 0.30696 0.02764 0.00212 0.0
O93 O 0.3641 0.96543 0.03204 0.0
C94 C 0.3087 0.06328 0.9952 0.0
H95 H 0.38549 0.97794 0.88842 0.0
H96 H 0.29389 0.0752 0.13362 0.0
H97 H 0.45533 0.99048 0.09579 0.0
H98 H 0.47648 0.07257 0.99554 0.0
Co99 Co 0.01012 0.35317 0.01838 0.0
C100 C 0.93239 0.39485 0.03178 0.0
C101 C 0.94857 0.38264 0.97568 0.0
C102 C 0.91094 0.39691 0.98173 0.0
N103 N 0.96249 0.38186 0.00685 0.0
N104 N 0.90033 0.40411 0.01738 0.0
H105 H 0.93324 0.39392 0.06106 0.0
H106 H 0.96312 0.36967 0.95165 0.0
C107 C 0.03353 0.38001 0.93598 0.0
O108 O 0.02022 0.41455 0.94114 0.0
N109 N 0.05656 0.32324 0.02968 0.0
C110 C 0.07239 0.32244 0.05962 0.0
C111 C 0.10238 0.29366 0.0598 0.0
C112 C 0.07692 0.29524 0.01204 0.0
N113 N 0.10508 0.27676 0.02986 0.0
C114 C 0.01155 0.42501 0.03611 0.0
C115 C 0.08474 0.42991 -0.00117 0.0
C116 C 0.06462 0.45823 0.01867 0.0
C117 C 0.02754 0.45583 0.03723 0.0
C118 C 0.06753 0.3999 0.99796 0.0
N119 N 0.03118 0.39788 0.01607 0.0
H120 H 0.98397 0.42246 0.05254 0.0
H121 H 0.08374 0.37785 0.98312 0.0
H122 H 0.06214 0.34075 0.08041 0.0
H123 H 0.07018 0.28741 0.98778 0.0
O124 O 0.98884 0.34508 0.07139 0.0
O125 O 0.98765 0.30798 0.03133 0.0
O126 O 0.03056 0.35256 0.96317 0.0
C127 C 0.98025 0.31434 0.06602 0.0
H128 H 0.89217 0.39709 0.96281 0.0
H129 H 0.12049 0.28546 0.08056 0.0
H130 H 0.11361 0.4308 0.98443 0.0
H131 H 0.01159 0.47682 0.05373 0.0
Co132 Co 0.81416 0.13308 0.11479 0.0
C133 C 0.77259 0.21081 0.11233 0.0
C134 C 0.7853 0.18743 0.16687 0.0
C135 C 0.77016 0.22433 0.1668 0.0
N136 N 0.78588 0.17836 0.13301 0.0
N137 N 0.76233 0.23941 0.13228 0.0
H138 H 0.7742 0.21426 0.08229 0.0
H139 H 0.79835 0.1697 0.18913 0.0
C140 C 0.77868 0.10353 0.19294 0.0
O141 O 0.74633 0.12282 0.18591 0.0
N142 N 0.84394 0.08874 0.09737 0.0
C143 C 0.84692 0.07822 0.06373 0.0
C144 C 0.87536 0.04804 0.06064 0.0
C145 C 0.87033 0.06502 0.11431 0.0
N146 N 0.88994 0.03986 0.09248 0.0
C147 C 0.74488 0.14048 0.08781 0.0
C148 C 0.7316 0.06842 0.11761 0.0
C149 C 0.70544 0.093 0.09842 0.0
C150 C 0.71246 0.1293 0.08308 0.0
C151 C 0.76339 0.08092 0.12214 0.0
N152 N 0.76904 0.11701 0.10853 0.0
H153 H 0.75081 0.16765 0.07396 0.0
H154 H 0.7835 0.06151 0.13679 0.0
H155 H 0.8305 0.09232 0.04248 0.0
H156 H 0.87639 0.06737 0.14115 0.0
O157 O 0.82707 0.16112 0.06519 0.0
O158 O 0.8606 0.15234 0.11046 0.0
O159 O 0.80885 0.10517 0.16804 0.0
C160 C 0.85683 0.16632 0.07576 0.0
H161 H 0.76913 0.23951 0.18932 0.0
H162 H 0.88503 0.03365 0.03659 0.0
H163 H 0.72734 0.03995 0.12935 0.0
H164 H 0.69348 0.14859 0.06682 0.0
Co165 Co 0.15638 0.79215 0.10278 0.0
C166 C 0.14163 0.7618 0.18529 0.0
C167 C 0.19349 0.78353 0.16748 0.0
C168 C 0.18767 0.77318 0.20592 0.0
N169 N 0.16527 0.77535 0.15414 0.0
N170 N 0.15488 0.75962 0.21734 0.0
H171 H 0.11381 0.757 0.18496 0.0
H172 H 0.21535 0.79889 0.15094 0.0
C173 C 0.23887 0.76346 0.09107 0.0
O174 O 0.23198 0.73285 0.11478 0.0
N175 N 0.14808 0.81059 0.05202 0.0
C176 C 0.12409 0.80111 0.03397 0.0
C177 C 0.12505 0.82407 -0.00067 0.0
C178 C 0.16283 0.83919 0.02872 0.0
N179 N 0.14923 0.84808 0.99637 0.0
C180 C 0.13303 0.7202 0.11614 0.0
C181 C 0.18022 0.69577 0.05336 0.0
C182 C 0.15463 0.67335 0.07586 0.0
C183 C 0.13114 0.68558 0.10785 0.0
C184 C 0.18149 0.72995 0.06291 0.0
N185 N 0.15852 0.74161 0.09435 0.0
H186 H 0.11233 0.73061 0.13858 0.0
H187 H 0.1997 0.74791 0.04379 0.0
H188 H 0.10643 0.77982 0.0456 0.0
H189 H 0.1824 0.8538 0.03583 0.0
O190 O 0.10293 0.80434 0.12107 0.0
O191 O 0.1443 0.84293 0.11253 0.0
O192 O 0.21208 0.78977 0.08357 0.0
C193 C 0.10931 0.83762 0.12154 0.0
H194 H 0.20438 0.779 0.22424 0.0
H195 H 0.10802 0.82428 0.97874 0.0
H196 H 0.19821 0.68752 0.02793 0.0
H197 H 0.10991 0.6696 0.12499 0.0
H198 H 0.95131 0.32404 0.13855 0.0
H199 H 0.98744 0.23914 0.0675 0.0
H200 H 0.94916 0.2759 0.19451 0.0
H201 H 0.98657 0.19087 0.12344 0.0
H202 H 0.00961 0.18915 0.2781 0.0
H203 H 0.99708 0.23641 0.22426 0.0
H204 H 0.95411 0.15723 0.17961 0.0
H205 H 0.96852 0.10935 0.23243 0.0
C206 C 0.95809 0.295 0.13492 0.0
C207 C 0.96988 0.28536 0.09869 0.0
C208 C 0.95728 0.26739 0.167 0.0
C209 C 0.96865 0.22949 0.16361 0.0
C210 C 0.97758 0.21973 0.12724 0.0
C211 C 0.97803 0.24742 0.09507 0.0
C212 C 0.99765 0.18166 0.25681 0.0
C213 C 0.99034 0.1452 0.25982 0.0
C214 C 0.98989 0.20902 0.22608 0.0
C215 C 0.97435 0.20079 0.19754 0.0
C216 C 0.96633 0.16454 0.20086 0.0
C217 C 0.97426 0.1371 0.23153 0.0
H218 H 0.82252 0.03778 0.21151 0.0
H219 H 0.74191 0.12494 0.25961 0.0
H220 H 0.83799 0.01137 0.27347 0.0
H221 H 0.75839 0.09911 0.32179 0.0
H222 H 0.88229 0.08452 0.36099 0.0
H223 H 0.82924 0.1016 0.32807 0.0
H224 H 0.81505 0.98577 0.34702 0.0
H225 H 0.86759 0.96891 0.38132 0.0
C226 C 0.80735 0.05054 0.23567 0.0
C227 C 0.78149 0.0835 0.23103 0.0
C228 C 0.8158 0.03523 0.27117 0.0
C229 C 0.79922 0.05324 0.3023 0.0
C230 C 0.77115 0.0846 0.29821 0.0
C231 C 0.76193 0.09939 0.26274 0.0
C232 C 0.86638 0.06311 0.35996 0.0
C233 C 0.87876 0.02553 0.37327 0.0
C234 C 0.83594 0.07283 0.34134 0.0
C235 C 0.81838 0.04488 0.33488 0.0
C236 C 0.82811 0.00773 0.35195 0.0
C237 C 0.85806 -0.00188 0.37148 0.0
H238 H 0.98602 0.8274 0.39338 0.0
H239 H 0.08563 0.8802 0.36638 0.0
H240 H 0.02367 0.77147 0.37117 0.0
H241 H 0.12276 0.82471 0.34536 0.0
H242 H 0.18347 0.74343 0.28193 0.0
H243 H 0.1489 0.75782 0.34313 0.0
H244 H 0.04472 0.77776 0.30149 0.0
H245 H 0.07872 0.76447 0.24083 0.0
C246 C 0.01605 0.82674 0.38392 0.0
C247 C 0.0323 0.85915 0.3796 0.0
C248 C 0.03764 0.79453 0.37162 0.0
C249 C 0.07586 0.79418 0.3553 0.0
C250 C 0.09327 0.82408 0.35746 0.0
C251 C 0.07168 0.85636 0.36937 0.0
C252 C 0.15308 0.75005 0.28613 0.0
C253 C 0.13419 0.7549 0.25568 0.0
C254 C 0.1333 0.75779 0.32137 0.0
C255 C 0.09428 0.77004 0.32675 0.0
C256 C 0.07484 0.76862 0.2983 0.0
C257 C 0.0946 0.76125 0.26304 0.0
H258 H 0.26566 0.95784 0.14721 0.0
H259 H 0.22455 0.07598 0.13893 0.0
H260 H 0.20613 0.94459 0.18884 0.0
H261 H 0.16505 0.06288 0.17982 0.0
H262 H 0.05116 0.02477 0.22718 0.0
H263 H 0.1082 0.02911 0.17856 0.0
H264 H 0.17506 0.96052 0.25724 0.0
H265 H 0.11829 0.95685 0.30597 0.0
C266 C 0.24377 0.98086 0.15416 0.0
C267 C 0.24975 0.01789 0.14035 0.0
C268 C 0.20985 0.97333 0.17785 0.0
C269 C 0.18099 0.00273 0.18728 0.0
C270 C 0.18669 0.03971 0.17267 0.0
C271 C 0.22084 0.04722 0.14971 0.0
C272 C 0.07792 0.0098 0.23369 0.0
C273 C 0.08044 0.99053 0.27026 0.0
C274 C 0.11052 0.01253 0.20604 0.0
C275 C 0.14597 0.99533 0.21431 0.0
C276 C 0.14807 0.97388 0.25009 0.0
C277 C 0.11564 0.97185 0.27794 0.0
H278 H 0.15232 0.85145 0.92171 0.0
H279 H 0.161 0.9155 0.00451 0.0
H280 H 0.16175 0.90564 0.87186 0.0
H281 H 0.17046 0.96939 0.95494 0.0
H282 H 0.13166 0.06661 0.86362 0.0
H283 H 0.12713 0.01128 0.91206 0.0
H284 H 0.21409 0.94715 0.84093 0.0
H285 H 0.21905 0.00281 0.79223 0.0
C286 C 0.15635 0.87706 0.92914 0.0
C287 C 0.156 0.87932 0.96687 0.0
C288 C 0.16203 0.90787 0.9007 0.0
C289 C 0.1668 0.9416 0.90966 0.0
C290 C 0.1667 0.94373 0.94734 0.0
C291 C 0.16158 0.91284 0.97562 0.0
C292 C 0.14993 0.04077 0.85827 0.0
C293 C 0.17572 0.03905 0.8241 0.0
C294 C 0.14742 0.00917 0.88609 0.0
C295 C 0.17028 0.97504 0.88017 0.0
C296 C 0.19604 0.97316 0.84602 0.0
C297 C 0.19899 0.005 0.81832 0.0
H298 H 0.35376 0.10194 0.88851 0.0
H299 H 0.42027 0.01356 0.83067 0.0
H300 H 0.33526 0.13498 0.83061 0.0
H301 H 0.40223 0.04744 0.77139 0.0
H302 H 0.29325 0.07674 0.71643 0.0
H303 H 0.34429 0.05449 0.75148 0.0
H304 H 0.34172 0.16724 0.76893 0.0
H305 H 0.28874 0.18847 0.73577 0.0
C306 C 0.36584 0.09023 0.86305 0.0
C307 C 0.38806 0.05474 0.86437 0.0
C308 C 0.35526 0.10942 0.82943 0.0
C309 C 0.36676 0.09373 0.79613 0.0
C310 C 0.39217 0.05998 0.79664 0.0
C311 C 0.40256 0.04059 0.83051 0.0
C312 C 0.30492 0.09684 0.72633 0.0
C313 C 0.28721 0.13408 0.72394 0.0
C314 C 0.33425 0.08422 0.74647 0.0
C315 C 0.34649 0.1089 0.76411 0.0
C316 C 0.33219 0.14726 0.75678 0.0
C317 C 0.30225 0.1596 0.73746 0.0
H318 H 0.17226 0.22706 0.82529 0.0
H319 H 0.10302 0.27262 0.74096 0.0
H320 H 0.15158 0.28346 0.85316 0.0
H321 H 0.08248 0.32951 0.76877 0.0
H322 H 0.00379 0.35896 0.88441 0.0
H323 H 0.039 0.32941 0.83099 0.0
H324 H 0.14274 0.35175 0.85224 0.0
H325 H 0.10699 0.38121 0.90603 0.0
C326 C 0.15368 0.24972 0.81189 0.0
C327 C 0.13848 0.24517 0.78162 0.0
C328 C 0.14205 0.28224 0.82765 0.0
C329 C 0.11492 0.31064 0.81345 0.0
C330 C 0.10306 0.3078 0.78049 0.0
C331 C 0.11488 0.27529 0.76457 0.0
C332 C 0.03392 0.35883 0.87655 0.0
C333 C 0.05294 0.37217 0.8988 0.0
C334 C 0.05412 0.34216 0.84589 0.0
C335 C 0.09369 0.33816 0.83755 0.0
C336 C 0.11231 0.3544 0.85814 0.0
C337 C 0.09198 0.37128 0.88871 0.0
H338 H 0.93279 0.14661 0.07121 0.0
H339 H 0.84838 0.22086 0.01566 0.0
H340 H 0.98027 0.15792 0.01416 0.0
H341 H 0.8959 0.23361 0.95924 0.0
H342 H 0.06005 0.18115 0.90335 0.0
H343 H 0.01879 0.1948 0.96273 0.0
H344 H 0.92186 0.19118 0.91598 0.0
H345 H 0.96274 0.17865 0.85724 0.0
C346 C 0.92481 0.16668 0.04737 0.0
C347 C 0.88691 0.18234 0.04742 0.0
C348 C 0.95201 0.17322 0.01462 0.0
C349 C 0.94166 0.19585 0.98169 0.0
C350 C 0.90458 0.21513 0.98369 0.0
C351 C 0.87739 0.20807 0.01607 0.0
C352 C 0.02985 0.1843 0.90566 0.0
C353 C 0.01453 0.17843 0.8759 0.0
C354 C 0.00625 0.19182 0.93969 0.0
C355 C 0.96696 0.19405 0.94427 0.0
C356 C 0.95184 0.19029 0.91351 0.0
C357 C 0.97529 0.1826 0.87987 0.0
H358 H 0.30803 0.13485 0.95864 0.0
H359 H 0.23504 0.05597 0.02047 0.0
H360 H 0.2543 0.18549 0.96179 0.0
H361 H 0.18147 0.10677 0.02425 0.0
H362 H 0.12917 0.21662 0.07828 0.0
H363 H 0.17499 0.16206 0.06256 0.0
H364 H 0.18582 0.20896 0.94413 0.0
H365 H 0.13927 0.26348 0.95999 0.0
C366 C 0.2803 0.12827 0.972 0.0
C367 C 0.27558 0.09165 0.98939 0.0
C368 C 0.24962 0.15716 0.97372 0.0
C369 C 0.21394 0.14994 0.99352 0.0
C370 C 0.20879 0.11295 0.00893 0.0
C371 C 0.23934 0.08393 0.00653 0.0
C372 C 0.14124 0.21513 0.04893 0.0
C373 C 0.13103 0.24422 0.02034 0.0
C374 C 0.16706 0.18382 0.0399 0.0
C375 C 0.18366 0.18133 0.00214 0.0
C376 C 0.17324 0.21026 0.97343 0.0
C377 C 0.14673 0.24128 0.98246 0.0
H378 H 0.36049 0.91005 0.09444 0.0
H379 H 0.41992 0.8852 0.98537 0.0
H380 H 0.33961 0.84938 0.10962 0.0
H381 H 0.39798 0.8245 0.0001 0.0
H382 H 0.26795 0.79871 0.02232 0.0
H383 H 0.32473 0.82739 0.00654 0.0
H384 H 0.35257 0.77602 0.11526 0.0
H385 H 0.29592 0.74636 0.13066 0.0
C386 C 0.37024 0.89085 0.07437 0.0
C387 C 0.39134 0.90209 0.0387 0.0
C388 C 0.35862 0.85602 0.08312 0.0
C389 C 0.36711 0.83241 0.0559 0.0
C390 C 0.39132 0.84221 0.02155 0.0
C391 C 0.40376 0.87683 0.01314 0.0
C392 C 0.28714 0.79223 0.04209 0.0
C393 C 0.2776 0.77089 0.07779 0.0
C394 C 0.31981 0.80831 0.03297 0.0
C395 C 0.34283 0.80402 0.05983 0.0
C396 C 0.33527 0.77953 0.09409 0.0
C397 C 0.30292 0.76268 0.10288 0.0
H398 H 0.74121 0.2979 0.17169 0.0
H399 H 0.76684 0.2729 0.05804 0.0
H400 H 0.754 0.36102 0.14675 0.0
H401 H 0.7794 0.33514 0.03371 0.0
H402 H 0.87714 0.39068 0.09436 0.0
H403 H 0.81931 0.36896 0.12524 0.0
H404 H 0.77611 0.40248 0.02144 0.0
H405 H 0.83478 0.42483 0.9899 0.0
C406 C 0.74894 0.30571 0.14144 0.0
C407 C 0.75612 0.27896 0.11729 0.0
C408 C 0.75573 0.34222 0.12713 0.0
C409 C 0.76947 0.35263 0.08845 0.0
C410 C 0.76957 0.32805 0.06383 0.0
C411 C 0.76292 0.29162 0.07807 0.0
C412 C 0.85527 0.3948 0.07795 0.0
C413 C 0.86215 0.40663 0.03859 0.0
C414 C 0.8214 0.38262 0.0961 0.0
C415 C 0.79381 0.38209 0.07526 0.0
C416 C 0.79757 0.40108 0.03786 0.0
C417 C 0.83148 0.41348 0.01969 0.0
H418 H 0.11235 0.91196 0.09946 0.0
H419 H 0.0353 0.83415 0.15235 0.0
H420 H 0.05919 0.96282 0.09595 0.0
H421 H 0.98215 0.88528 0.14934 0.0
H422 H 0.89949 -0.00222 0.15987 0.0
H423 H 0.95361 0.94993 0.17273 0.0
H424 H 0.00667 0.97232 0.0555 0.0
H425 H 0.95256 0.01958 0.04268 0.0
C426 C 0.08415 0.90587 0.11123 0.0
C427 C 0.07795 0.86905 0.12606 0.0
C428 C 0.05374 0.93494 0.10895 0.0
C429 C 0.01661 0.92787 0.12208 0.0
C430 C 0.01051 0.89149 0.13911 0.0
C431 C 0.0409 0.86226 0.14078 0.0
C432 C 0.92285 0.99247 0.13699 0.0
C433 C 0.92181 0.01215 0.10024 0.0
C434 C 0.95366 0.96511 0.1443 0.0
C435 C 0.98435 0.95762 0.11514 0.0
C436 C 0.98354 0.97779 0.07857 0.0
C437 C 0.95247 0.00453 0.07114 0.0
H438 H 0.0124 0.12617 0.66695 0.0
H439 H 0.11585 0.05236 0.63404 0.0
H440 H 0.98429 0.10696 0.62103 0.0
H441 H 0.08702 0.03221 0.5896 0.0
H442 H 0.98773 0.10154 0.49099 0.0
H443 H 0.00238 0.1164 0.54719 0.0
H444 H 0.03094 -0.00111 0.58896 0.0
H445 H 0.01497 0.98369 0.53339 0.0
C446 C 0.02911 0.10581 0.6501 0.0
C447 C 0.06654 0.09106 0.65397 0.0
C448 C 0.01286 0.09465 0.62413 0.0
C449 C 0.0335 0.06806 0.6021 0.0
C450 C 0.07036 0.05235 0.60679 0.0
C451 C 0.08682 0.06389 0.63229 0.0
C452 C 0.99587 0.07878 0.51268 0.0
C453 C 0.00066 0.04142 0.50748 0.0
C454 C 0.00436 0.08735 0.54479 0.0
C455 C 0.01811 0.05875 0.57201 0.0
C456 C 0.02079 0.02139 0.56801 0.0
C457 C 0.01183 0.01278 0.53617 0.0
H458 H 0.63339 0.12859 0.11292 0.0
H459 H 0.70077 0.02999 0.07322 0.0
H460 H 0.57679 0.10969 0.1029 0.0
H461 H 0.64408 0.01111 0.06308 0.0
H462 H 0.4807 0.04361 0.11385 0.0
H463 H 0.53831 0.05537 0.12919 0.0
H464 H 0.598 0.04068 0.017 0.0
H465 H 0.5404 0.02901 0.00164 0.0
C466 C 0.63596 0.10284 0.10216 0.0
C467 C 0.67126 0.08074 0.09371 0.0
C468 C 0.60367 0.09191 0.09674 0.0
C469 C 0.60626 0.05897 0.0823 0.0
C470 C 0.64151 0.03668 0.07414 0.0
C471 C 0.67377 0.04735 0.08009 0.0
C472 C 0.5063 0.04242 0.09272 0.0
C473 C 0.50629 0.03555 0.05657 0.0
C474 C 0.53907 0.04934 0.10139 0.0
C475 C 0.57238 0.04894 0.07421 0.0
C476 C 0.57266 0.04086 0.03848 0.0
C477 C 0.53978 0.03447 0.02963 0.0
H478 H 0.15122 0.60426 0.11814 0.0
H479 H 0.14476 0.66695 0.00666 0.0
H480 H 0.1344 0.55046 0.09988 0.0
H481 H 0.12785 0.61328 0.9885 0.0
H482 H 0.03846 0.53251 0.00462 0.0
H483 H 0.06652 0.58357 0.01473 0.0
H484 H 0.15938 0.50412 0.05107 0.0
H485 H 0.13142 0.45301 0.04068 0.0
C486 C 0.14675 0.60622 0.08963 0.0
C487 C 0.14922 0.63952 0.06377 0.0
C488 C 0.13739 0.57553 0.07914 0.0
C489 C 0.12982 0.57802 0.04287 0.0
C490 C 0.1335 0.6109 0.01665 0.0
C491 C 0.14337 0.64138 0.02695 0.0
C492 C 0.06504 0.52613 0.01439 0.0
C493 C 0.08287 0.48909 0.02195 0.0
C494 C 0.08117 0.5552 0.0199 0.0
C495 C 0.11503 0.54753 0.03359 0.0
C496 C 0.13322 0.51053 0.04053 0.0
C497 C 0.11738 0.48149 0.03444 0.0
loop_
_geom_bond_atom_site_label_1
_geom_bond_atom_site_label_2
_geom_bond_distance
_geom_bond_site_symmetry_2
_ccdc_geom_bond_type
Co0 N4 2.148 1_545 S
Co0 N10 2.128 . S
Co0 N20 2.194 . S
Co0 O25 2.351 . S
Co0 O26 2.155 . S
Co0 O27 2.096 1_455 S
C1 N4 1.301 . S
C1 N5 1.328 . S
C1 H6 0.930 . S
C2 C3 1.333 1_655 S
C2 N4 1.317 1_655 S
C2 H7 0.930 . S
C3 C2 1.333 1_455 S
C3 N5 1.350 . S
C3 H29 0.931 1_455 S
N4 Co0 2.148 1_565 S
N4 C1 1.301 . S
N4 C2 1.317 1_455 S
N5 C1 1.328 . S
N5 C3 1.350 . S
H6 C1 0.930 . S
H7 C2 0.930 . S
C8 O9 1.224 . S
C8 O27 1.247 . S
O9 C8 1.224 . S
N10 Co0 2.128 . S
N10 C11 1.355 . S
N10 C13 1.311 . S
C11 N10 1.355 . S
C11 C12 1.363 . S
C11 H23 0.929 . S
C12 C11 1.363 . S
C12 N14 1.375 . S
C12 H30 0.931 . S
C13 N10 1.311 . S
C13 N14 1.347 . S
C13 H24 0.929 1_455 S
N14 C12 1.375 . S
N14 C13 1.347 . S
C15 C18 1.365 . S
C15 N20 1.328 . S
C15 H21 0.929 1_545 S
C16 C17 1.362 1_655 S
C16 C19 1.375 . S
C16 H31 0.929 . S
C17 C16 1.362 1_455 S
C17 C18 1.366 . S
C18 C15 1.365 . S
C18 C17 1.366 . S
C18 H32 0.930 . S
C19 C16 1.375 . S
C19 N20 1.304 1_655 S
C19 H22 0.946 . S
N20 Co0 2.194 . S
N20 C15 1.328 . S
N20 C19 1.304 1_455 S
H21 C15 0.929 1_565 S
H22 C19 0.946 . S
H23 C11 0.929 . S
H24 C13 0.929 1_655 S
O25 Co0 2.351 . S
O25 C28 1.244 . S
O26 Co0 2.155 . S
O26 C28 1.240 . S
O27 Co0 2.096 1_655 S
O27 C8 1.247 . S
C28 O25 1.244 . S
C28 O26 1.240 . S
H29 C3 0.931 1_655 S
H30 C12 0.931 . S
H31 C16 0.929 . S
H32 C18 0.930 . S
Co33 N37 2.148 . S
Co33 N43 2.128 . S
Co33 N53 2.194 . S
Co33 O58 2.351 . S
Co33 O59 2.155 . S
Co33 O60 2.096 . S
C34 N37 1.301 . S
C34 N38 1.328 . S
C34 H39 0.930 . S
C35 C36 1.333 . S
C35 N37 1.317 . S
C35 H40 0.930 . S
C36 C35 1.333 . S
C36 N38 1.350 . S
C36 H62 0.931 . S
N37 Co33 2.148 . S
N37 C34 1.301 . S
N37 C35 1.317 . S
N38 C34 1.328 . S
N38 C36 1.350 . S
H39 C34 0.930 . S
H40 C35 0.930 . S
C41 O42 1.224 . S
C41 O60 1.247 . S
O42 C41 1.224 . S
N43 Co33 2.128 . S
N43 C44 1.355 . S
N43 C46 1.311 . S
C44 N43 1.355 . S
C44 C45 1.363 . S
C44 H56 0.929 . S
C45 C44 1.363 . S
C45 N47 1.375 . S
C45 H63 0.931 . S
C46 N43 1.311 . S
C46 N47 1.347 . S
C46 H57 0.929 . S
N47 C45 1.375 . S
N47 C46 1.347 . S
C48 C51 1.365 . S
C48 N53 1.328 . S
C48 H54 0.929 . S
C49 C50 1.362 . S
C49 C52 1.378 . S
C49 H64 0.929 . S
C50 C49 1.362 . S
C50 C51 1.366 . S
C51 C48 1.365 . S
C51 C50 1.366 . S
C51 H65 0.930 . S
C52 C49 1.378 . S
C52 N53 1.315 . S
C52 H55 0.930 . S
N53 Co33 2.194 . S
N53 C48 1.328 . S
N53 C52 1.315 . S
H54 C48 0.929 . S
H55 C52 0.930 . S
H56 C44 0.929 . S
H57 C46 0.929 . S
O58 Co33 2.351 . S
O58 C61 1.244 . S
O59 Co33 2.155 . S
O59 C61 1.240 . S
O60 Co33 2.096 . S
O60 C41 1.247 . S
C61 O58 1.244 . S
C61 O59 1.240 . S
H62 C36 0.931 . S
H63 C45 0.931 . S
H64 C49 0.929 . S
H65 C51 0.930 . S
Co66 N70 2.148 1_554 S
Co66 N76 2.128 . S
Co66 N86 2.194 . S
Co66 O91 2.351 1_554 S
Co66 O92 2.155 . S
Co66 O93 2.096 1_545 S
C67 N70 1.301 . S
C67 N71 1.328 . S
C67 H72 0.930 . S
C68 C69 1.333 . S
C68 N70 1.317 . S
C68 H73 0.930 1_545 S
C69 C68 1.333 . S
C69 N71 1.350 . S
C69 H95 0.931 1_545 S
N70 Co66 2.148 1_556 S
N70 C67 1.301 . S
N70 C68 1.317 . S
N71 C67 1.328 . S
N71 C69 1.350 . S
H72 C67 0.930 . S
H73 C68 0.930 1_565 S
C74 O75 1.224 . S
C74 O93 1.247 . S
O75 C74 1.224 . S
N76 Co66 2.128 . S
N76 C77 1.355 . S
N76 C79 1.311 . S
C77 N76 1.355 . S
C77 C78 1.363 . S
C77 H89 0.929 . S
C78 C77 1.363 . S
C78 N80 1.375 . S
C78 H96 0.931 . S
C79 N76 1.311 . S
C79 N80 1.347 . S
C79 H90 0.929 1_545 S
N80 C78 1.375 . S
N80 C79 1.347 . S
C81 C84 1.360 1_556 S
C81 N86 1.328 1_556 S
C81 H87 0.929 . S
C82 C83 1.362 . S
C82 C85 1.378 . S
C82 H97 0.929 1_545 S
C83 C82 1.362 . S
C83 C84 1.371 . S
C84 C81 1.360 1_554 S
C84 C83 1.371 . S
C84 H98 0.931 1_554 S
C85 C82 1.378 . S
C85 N86 1.315 . S
C85 H88 0.930 1_545 S
N86 Co66 2.194 . S
N86 C81 1.328 1_554 S
N86 C85 1.315 . S
H87 C81 0.929 . S
H88 C85 0.930 1_565 S
H89 C77 0.929 . S
H90 C79 0.929 1_565 S
O91 Co66 2.351 1_556 S
O91 C94 1.244 . S
O92 Co66 2.155 . S
O92 C94 1.240 1_554 S
O93 Co66 2.096 1_565 S
O93 C74 1.247 . S
C94 O91 1.244 . S
C94 O92 1.240 1_556 S
H95 C69 0.931 1_565 S
H96 C78 0.931 . S
H97 C82 0.929 1_565 S
H98 C84 0.931 1_556 S
Co99 N103 2.148 1_455 S
Co99 N109 2.128 . S
Co99 N119 2.194 . S
Co99 O124 2.351 . S
Co99 O125 2.155 . S
Co99 O126 2.096 1_554 S
C100 N103 1.301 . S
C100 N104 1.328 . S
C100 H105 0.930 . S
C101 C102 1.333 1_556 S
C101 N103 1.317 1_556 S
C101 H106 0.930 . S
C102 C101 1.333 1_554 S
C102 N104 1.350 . S
C102 H128 0.931 1_554 S
N103 Co99 2.148 1_655 S
N103 C100 1.301 . S
N103 C101 1.317 1_554 S
N104 C100 1.328 . S
N104 C102 1.350 . S
H105 C100 0.930 . S
H106 C101 0.930 . S
C107 O108 1.224 . S
C107 O126 1.247 . S
O108 C107 1.224 . S
N109 Co99 2.128 . S
N109 C110 1.355 . S
N109 C112 1.313 . S
C110 N109 1.355 . S
C110 C111 1.363 . S
C110 H122 0.929 . S
C111 C110 1.363 . S
C111 N113 1.375 . S
C111 H129 0.931 . S
C112 N109 1.313 . S
C112 N113 1.349 . S
C112 H123 0.925 1_554 S
N113 C111 1.375 . S
N113 C112 1.349 . S
C114 C117 1.365 . S
C114 N119 1.328 . S
C114 H120 0.929 . S
C115 C116 1.362 1_556 S
C115 C118 1.378 . S
C115 H130 0.929 . S
C116 C115 1.362 1_554 S
C116 C117 1.366 . S
C117 C114 1.365 . S
C117 C116 1.366 . S
C117 H131 0.930 . S
C118 C115 1.378 . S
C118 N119 1.315 1_556 S
C118 H121 0.930 . S
N119 Co99 2.194 . S
N119 C114 1.328 . S
N119 C118 1.315 1_554 S
H120 C114 0.929 . S
H121 C118 0.930 . S
H122 C110 0.929 . S
H123 C112 0.925 1_556 S
O124 Co99 2.351 . S
O124 C127 1.244 . S
O125 Co99 2.155 . S
O125 C127 1.240 . S
O126 Co99 2.096 1_556 S
O126 C107 1.247 . S
C127 O124 1.244 . S
C127 O125 1.240 . S
H128 C102 0.931 1_556 S
H129 C111 0.931 . S
H130 C115 0.929 . S
H131 C117 0.930 . S
Co132 N136 2.148 . S
Co132 N142 2.128 . S
Co132 N152 2.194 . S
Co132 O157 2.351 . S
Co132 O158 2.155 . S
Co132 O159 2.096 . S
C133 N136 1.301 . S
C133 N137 1.328 . S
C133 H138 0.930 . S
C134 C135 1.333 . S
C134 N136 1.317 . S
C134 H139 0.930 . S
C135 C134 1.333 . S
C135 N137 1.350 . S
C135 H161 0.931 . S
N136 Co132 2.148 . S
N136 C133 1.301 . S
N136 C134 1.317 . S
N137 C133 1.328 . S
N137 C135 1.350 . S
H138 C133 0.930 . S
H139 C134 0.930 . S
C140 O141 1.224 . S
C140 O159 1.247 . S
O141 C140 1.224 . S
N142 Co132 2.128 . S
N142 C143 1.355 . S
N142 C145 1.311 . S
C143 N142 1.355 . S
C143 C144 1.363 . S
C143 H155 0.929 . S
C144 C143 1.363 . S
C144 N146 1.375 . S
C144 H162 0.931 . S
C145 N142 1.311 . S
C145 N146 1.347 . S
C145 H156 0.929 . S
N146 C144 1.375 . S
N146 C145 1.347 . S
C147 C150 1.365 . S
C147 N152 1.328 . S
C147 H153 0.929 . S
C148 C149 1.362 . S
C148 C151 1.378 . S
C148 H163 0.929 . S
C149 C148 1.362 . S
C149 C150 1.366 . S
C150 C147 1.365 . S
C150 C149 1.366 . S
C150 H164 0.930 . S
C151 C148 1.378 . S
C151 N152 1.315 . S
C151 H154 0.930 . S
N152 Co132 2.194 . S
N152 C147 1.328 . S
N152 C151 1.315 . S
H153 C147 0.929 . S
H154 C151 0.930 . S
H155 C143 0.929 . S
H156 C145 0.929 . S
O157 Co132 2.351 . S
O157 C160 1.244 . S
O158 Co132 2.155 . S
O158 C160 1.240 . S
O159 Co132 2.096 . S
O159 C140 1.247 . S
C160 O157 1.244 . S
C160 O158 1.240 . S
H161 C135 0.931 . S
H162 C144 0.931 . S
H163 C148 0.929 . S
H164 C150 0.930 . S
Co165 N169 2.148 . S
Co165 N175 2.128 . S
Co165 N185 2.194 . S
Co165 O190 2.351 . S
Co165 O191 2.155 . S
Co165 O192 2.096 . S
C166 N169 1.301 . S
C166 N170 1.328 . S
C166 H171 0.930 . S
C167 C168 1.333 . S
C167 N169 1.317 . S
C167 H172 0.930 . S
C168 C167 1.333 . S
C168 N170 1.350 . S
C168 H194 0.931 . S
N169 Co165 2.148 . S
N169 C166 1.301 . S
N169 C167 1.317 . S
N170 C166 1.328 . S
N170 C168 1.350 . S
H171 C166 0.930 . S
H172 C167 0.930 . S
C173 O174 1.224 . S
C173 O192 1.247 . S
O174 C173 1.224 . S
N175 Co165 2.128 . S
N175 C176 1.355 . S
N175 C178 1.311 . S
C176 N175 1.355 . S
C176 C177 1.363 . S
C176 H188 0.929 . S
C177 C176 1.363 . S
C177 N179 1.378 1_554 S
C177 H195 0.931 1_554 S
C178 N175 1.311 . S
C178 N179 1.322 1_554 S
C178 H189 0.929 . S
N179 C177 1.378 1_556 S
N179 C178 1.322 1_556 S
C180 C183 1.365 . S
C180 N185 1.328 . S
C180 H186 0.929 . S
C181 C182 1.362 . S
C181 C184 1.378 . S
C181 H196 0.929 . S
C182 C181 1.362 . S
C182 C183 1.366 . S
C183 C180 1.365 . S
C183 C182 1.366 . S
C183 H197 0.930 . S
C184 C181 1.378 . S
C184 N185 1.315 . S
C184 H187 0.930 . S
N185 Co165 2.194 . S
N185 C180 1.328 . S
N185 C184 1.315 . S
H186 C180 0.929 . S
H187 C184 0.930 . S
H188 C176 0.929 . S
H189 C178 0.929 . S
O190 Co165 2.351 . S
O190 C193 1.244 . S
O191 Co165 2.155 . S
O191 C193 1.240 . S
O192 Co165 2.096 . S
O192 C173 1.247 . S
C193 O190 1.244 . S
C193 O191 1.240 . S
H194 C168 0.931 . S
H195 C177 0.931 1_556 S
H196 C181 0.929 . S
H197 C183 0.930 . S
H198 C206 0.950 . S
H199 C211 0.950 . S
H200 C208 0.950 . S
H201 C210 0.950 . S
H202 C212 0.950 . S
H203 C214 0.950 . S
H204 C216 0.950 . S
H205 C217 0.950 . S
C206 H198 0.950 . S
C206 C207 1.386 1_655 S
C206 C208 1.391 . S
C207 C206 1.386 1_455 S
C207 C211 1.393 . S
C208 H200 0.950 . S
C208 C206 1.391 . S
C208 C209 1.400 1_655 S
C209 C208 1.400 1_455 S
C209 C210 1.398 . S
C209 C215 1.491 . S
C210 H201 0.950 . S
C210 C209 1.398 . S
C210 C211 1.391 . S
C211 H199 0.950 . S
C211 C207 1.393 . S
C211 C210 1.391 . S
C212 H202 0.950 . S
C212 C213 1.393 . S
C212 C214 1.391 . S
C213 C212 1.393 . S
C213 C217 1.385 1_455 S
C214 H203 0.950 . S
C214 C212 1.391 . S
C214 C215 1.400 . S
C215 C209 1.491 . S
C215 C214 1.400 . S
C215 C216 1.398 1_455 S
C216 H204 0.950 . S
C216 C215 1.398 1_655 S
C216 C217 1.391 . S
C217 H205 0.950 . S
C217 C213 1.385 1_655 S
C217 C216 1.391 . S
H218 C226 0.950 . S
H219 C231 0.950 . S
H220 C228 0.950 . S
H221 C230 0.950 . S
H222 C232 0.950 . S
H223 C234 0.950 . S
H224 C236 0.950 . S
H225 C237 0.950 . S
C226 H218 0.950 . S
C226 C227 1.386 . S
C226 C228 1.391 . S
C227 C226 1.386 . S
C227 C231 1.393 . S
C228 H220 0.950 . S
C228 C226 1.391 . S
C228 C229 1.400 . S
C229 C228 1.400 . S
C229 C230 1.398 . S
C229 C235 1.491 . S
C230 H221 0.950 . S
C230 C229 1.398 . S
C230 C231 1.391 . S
C231 H219 0.950 . S
C231 C227 1.393 . S
C231 C230 1.391 . S
C232 H222 0.950 . S
C232 C233 1.386 . S
C232 C234 1.391 . S
C233 C232 1.386 . S
C233 C237 1.393 . S
C234 H223 0.950 . S
C234 C232 1.391 . S
C234 C235 1.400 . S
C235 C229 1.491 . S
C235 C234 1.400 . S
C235 C236 1.398 . S
C236 H224 0.950 . S
C236 C235 1.398 . S
C236 C237 1.391 . S
C237 H225 0.950 . S
C237 C233 1.393 . S
C237 C236 1.391 . S
H238 C246 0.950 1_655 S
H239 C251 0.950 . S
H240 C248 0.950 . S
H241 C250 0.950 . S
H242 C252 0.950 . S
H243 C254 0.950 . S
H244 C256 0.950 . S
H245 C257 0.950 . S
C246 H238 0.950 1_455 S
C246 C247 1.386 . S
C246 C248 1.391 . S
C247 C246 1.386 . S
C247 C251 1.393 . S
C248 H240 0.950 . S
C248 C246 1.391 . S
C248 C249 1.400 . S
C249 C248 1.400 . S
C249 C250 1.398 . S
C249 C255 1.491 . S
C250 H241 0.950 . S
C250 C249 1.398 . S
C250 C251 1.391 . S
C251 H239 0.950 . S
C251 C247 1.393 . S
C251 C250 1.391 . S
C252 H242 0.950 . S
C252 C253 1.386 . S
C252 C254 1.391 . S
C253 C252 1.386 . S
C253 C257 1.393 . S
C254 H243 0.950 . S
C254 C252 1.391 . S
C254 C255 1.400 . S
C255 C249 1.491 . S
C255 C254 1.400 . S
C255 C256 1.398 . S
C256 H244 0.950 . S
C256 C255 1.398 . S
C256 C257 1.391 . S
C257 H245 0.950 . S
C257 C253 1.393 . S
C257 C256 1.391 . S
H258 C266 0.950 . S
H259 C271 0.950 . S
H260 C268 0.950 . S
H261 C270 0.950 . S
H262 C272 0.950 . S
H263 C274 0.950 . S
H264 C276 0.950 . S
H265 C277 0.950 . S
C266 H258 0.950 . S
C266 C267 1.386 1_565 S
C266 C268 1.391 . S
C267 C266 1.386 1_545 S
C267 C271 1.393 . S
C268 H260 0.950 . S
C268 C266 1.391 . S
C268 C269 1.400 1_565 S
C269 C268 1.400 1_545 S
C269 C270 1.398 . S
C269 C275 1.491 . S
C270 H261 0.950 . S
C270 C269 1.398 . S
C270 C271 1.391 . S
C271 H259 0.950 . S
C271 C267 1.393 . S
C271 C270 1.391 . S
C272 H262 0.950 . S
C272 C273 1.395 . S
C272 C274 1.391 . S
C273 C272 1.395 . S
C273 C277 1.384 1_545 S
C274 H263 0.950 . S
C274 C272 1.391 . S
C274 C275 1.400 . S
C275 C269 1.491 . S
C275 C274 1.400 . S
C275 C276 1.398 1_545 S
C276 H264 0.950 . S
C276 C275 1.398 1_565 S
C276 C277 1.391 . S
C277 H265 0.950 . S
C277 C273 1.384 1_565 S
C277 C276 1.391 . S
H278 C286 0.950 . S
H279 C291 0.950 1_554 S
H280 C288 0.950 . S
H281 C290 0.950 . S
H282 C292 0.950 . S
H283 C294 0.950 . S
H284 C296 0.950 . S
H285 C297 0.950 . S
C286 H278 0.950 . S
C286 C287 1.386 . S
C286 C288 1.391 . S
C287 C286 1.386 . S
C287 C291 1.393 . S
C288 H280 0.950 . S
C288 C286 1.391 . S
C288 C289 1.400 . S
C289 C288 1.400 . S
C289 C290 1.398 . S
C289 C295 1.491 . S
C290 H281 0.950 . S
C290 C289 1.398 . S
C290 C291 1.391 . S
C291 H279 0.950 1_556 S
C291 C287 1.393 . S
C291 C290 1.391 . S
C292 H282 0.950 . S
C292 C293 1.386 . S
C292 C294 1.391 1_545 S
C293 C292 1.386 . S
C293 C297 1.393 1_545 S
C294 H283 0.950 . S
C294 C292 1.391 1_565 S
C294 C295 1.400 . S
C295 C289 1.491 . S
C295 C294 1.400 . S
C295 C296 1.398 . S
C296 H284 0.950 . S
C296 C295 1.398 . S
C296 C297 1.391 . S
C297 H285 0.950 . S
C297 C293 1.393 1_565 S
C297 C296 1.391 . S
H298 C306 0.950 . S
H299 C311 0.950 . S
H300 C308 0.950 . S
H301 C310 0.950 . S
H302 C312 0.950 . S
H303 C314 0.950 . S
H304 C316 0.950 . S
H305 C317 0.950 . S
C306 H298 0.950 . S
C306 C307 1.386 . S
C306 C308 1.391 . S
C307 C306 1.386 . S
C307 C311 1.393 . S
C308 H300 0.950 . S
C308 C306 1.391 . S
C308 C309 1.400 . S
C309 C308 1.400 . S
C309 C310 1.398 . S
C309 C315 1.491 . S
C310 H301 0.950 . S
C310 C309 1.398 . S
C310 C311 1.391 . S
C311 H299 0.950 . S
C311 C307 1.393 . S
C311 C310 1.391 . S
C312 H302 0.950 . S
C312 C313 1.386 . S
C312 C314 1.391 . S
C313 C312 1.386 . S
C313 C317 1.393 . S
C314 H303 0.950 . S
C314 C312 1.391 . S
C314 C315 1.400 . S
C315 C309 1.491 . S
C315 C314 1.400 . S
C315 C316 1.398 . S
C316 H304 0.950 . S
C316 C315 1.398 . S
C316 C317 1.391 . S
C317 H305 0.950 . S
C317 C313 1.393 . S
C317 C316 1.391 . S
H318 C326 0.950 . S
H319 C331 0.950 . S
H320 C328 0.950 . S
H321 C330 0.950 . S
H322 C332 0.950 1_655 S
H323 C334 0.950 . S
H324 C336 0.950 . S
H325 C337 0.950 . S
C326 H318 0.950 . S
C326 C327 1.386 . S
C326 C328 1.391 . S
C327 C326 1.386 . S
C327 C331 1.393 . S
C328 H320 0.950 . S
C328 C326 1.391 . S
C328 C329 1.400 . S
C329 C328 1.400 . S
C329 C330 1.398 . S
C329 C335 1.491 . S
C330 H321 0.950 . S
C330 C329 1.398 . S
C330 C331 1.391 . S
C331 H319 0.950 . S
C331 C327 1.393 . S
C331 C330 1.391 . S
C332 H322 0.950 1_455 S
C332 C333 1.386 . S
C332 C334 1.391 . S
C333 C332 1.386 . S
C333 C337 1.393 . S
C334 H323 0.950 . S
C334 C332 1.391 . S
C334 C335 1.400 . S
C335 C329 1.491 . S
C335 C334 1.400 . S
C335 C336 1.398 . S
C336 H324 0.950 . S
C336 C335 1.398 . S
C336 C337 1.391 . S
C337 H325 0.950 . S
C337 C333 1.393 . S
C337 C336 1.391 . S
H338 C346 0.950 1_554 S
H339 C351 0.950 . S
H340 C348 0.950 . S
H341 C350 0.950 . S
H342 C352 0.950 . S
H343 C354 0.950 . S
H344 C356 0.950 . S
H345 C357 0.950 1_455 S
C346 H338 0.950 1_556 S
C346 C347 1.392 . S
C346 C348 1.391 . S
C347 C346 1.392 . S
C347 C351 1.409 . S
C348 H340 0.950 . S
C348 C346 1.391 . S
C348 C349 1.400 . S
C349 C348 1.400 . S
C349 C350 1.398 . S
C349 C355 1.491 . S
C350 H341 0.950 . S
C350 C349 1.398 . S
C350 C351 1.391 . S
C351 H339 0.950 . S
C351 C347 1.409 . S
C351 C350 1.391 . S
C352 H342 0.950 . S
C352 C353 1.386 . S
C352 C354 1.391 . S
C353 C352 1.386 . S
C353 C357 1.393 . S
C354 H343 0.950 . S
C354 C352 1.391 . S
C354 C355 1.400 . S
C355 C349 1.491 . S
C355 C354 1.400 . S
C355 C356 1.398 . S
C356 H344 0.950 . S
C356 C355 1.398 . S
C356 C357 1.391 . S
C357 H345 0.950 1_655 S
C357 C353 1.393 . S
C357 C356 1.391 . S
H358 C366 0.950 . S
H359 C371 0.950 . S
H360 C368 0.950 . S
H361 C370 0.950 . S
H362 C372 0.950 . S
H363 C374 0.950 . S
H364 C376 0.950 . S
H365 C377 0.950 . S
C366 H358 0.950 . S
C366 C367 1.386 . S
C366 C368 1.391 . S
C367 C366 1.386 . S
C367 C371 1.393 1_556 S
C368 H360 0.950 . S
C368 C366 1.391 . S
C368 C369 1.400 . S
C369 C368 1.400 . S
C369 C370 1.398 1_556 S
C369 C375 1.491 . S
C370 H361 0.950 . S
C370 C369 1.398 1_554 S
C370 C371 1.391 . S
C371 H359 0.950 . S
C371 C367 1.393 1_554 S
C371 C370 1.391 . S
C372 H362 0.950 . S
C372 C373 1.386 1_554 S
C372 C374 1.391 . S
C373 C372 1.386 1_556 S
C373 C377 1.393 . S
C374 H363 0.950 . S
C374 C372 1.391 . S
C374 C375 1.400 1_554 S
C375 C369 1.491 . S
C375 C374 1.400 1_556 S
C375 C376 1.398 . S
C376 H364 0.950 . S
C376 C375 1.398 . S
C376 C377 1.391 . S
C377 H365 0.950 . S
C377 C373 1.393 . S
C377 C376 1.391 . S
H378 C386 0.950 . S
H379 C391 0.950 1_556 S
H380 C388 0.950 . S
H381 C390 0.950 . S
H382 C392 0.950 . S
H383 C394 0.950 . S
H384 C396 0.950 . S
H385 C397 0.950 . S
C386 H378 0.950 . S
C386 C387 1.386 . S
C386 C388 1.391 . S
C387 C386 1.386 . S
C387 C391 1.393 . S
C388 H380 0.950 . S
C388 C386 1.391 . S
C388 C389 1.400 . S
C389 C388 1.400 . S
C389 C390 1.398 . S
C389 C395 1.491 . S
C390 H381 0.950 . S
C390 C389 1.398 . S
C390 C391 1.391 . S
C391 H379 0.950 1_554 S
C391 C387 1.393 . S
C391 C390 1.391 . S
C392 H382 0.950 . S
C392 C393 1.386 . S
C392 C394 1.391 . S
C393 C392 1.386 . S
C393 C397 1.393 . S
C394 H383 0.950 . S
C394 C392 1.391 . S
C394 C395 1.400 . S
C395 C389 1.491 . S
C395 C394 1.400 . S
C395 C396 1.398 . S
C396 H384 0.950 . S
C396 C395 1.398 . S
C396 C397 1.391 . S
C397 H385 0.950 . S
C397 C393 1.393 . S
C397 C396 1.391 . S
H398 C406 0.950 . S
H399 C411 0.950 . S
H400 C408 0.950 . S
H401 C410 0.950 . S
H402 C412 0.950 . S
H403 C414 0.950 . S
H404 C416 0.950 . S
H405 C417 0.950 . S
C406 H398 0.950 . S
C406 C407 1.386 . S
C406 C408 1.391 . S
C407 C406 1.386 . S
C407 C411 1.393 . S
C408 H400 0.950 . S
C408 C406 1.391 . S
C408 C409 1.400 . S
C409 C408 1.400 . S
C409 C410 1.398 . S
C409 C415 1.491 . S
C410 H401 0.950 . S
C410 C409 1.398 . S
C410 C411 1.391 . S
C411 H399 0.950 . S
C411 C407 1.393 . S
C411 C410 1.391 . S
C412 H402 0.950 . S
C412 C413 1.386 . S
C412 C414 1.391 . S
C413 C412 1.386 . S
C413 C417 1.393 . S
C414 H403 0.950 . S
C414 C412 1.391 . S
C414 C415 1.400 . S
C415 C409 1.491 . S
C415 C414 1.400 . S
C415 C416 1.398 . S
C416 H404 0.950 . S
C416 C415 1.398 . S
C416 C417 1.391 . S
C417 H405 0.950 . S
C417 C413 1.393 . S
C417 C416 1.391 . S
H418 C426 0.950 . S
H419 C431 0.950 . S
H420 C428 0.950 . S
H421 C430 0.950 . S
H422 C432 0.950 . S
H423 C434 0.950 . S
H424 C436 0.950 . S
H425 C437 0.950 1_545 S
C426 H418 0.950 . S
C426 C427 1.386 . S
C426 C428 1.391 1_455 S
C427 C426 1.386 . S
C427 C431 1.393 1_455 S
C428 H420 0.950 . S
C428 C426 1.391 1_655 S
C428 C429 1.400 . S
C429 C428 1.400 . S
C429 C430 1.398 . S
C429 C435 1.491 . S
C430 H421 0.950 . S
C430 C429 1.398 . S
C430 C431 1.391 . S
C431 H419 0.950 . S
C431 C427 1.393 1_655 S
C431 C430 1.391 . S
C432 H422 0.950 . S
C432 C433 1.386 . S
C432 C434 1.391 . S
C433 C432 1.386 . S
C433 C437 1.393 . S
C434 H423 0.950 . S
C434 C432 1.391 . S
C434 C435 1.400 . S
C435 C429 1.491 . S
C435 C434 1.400 . S
C435 C436 1.398 . S
C436 H424 0.950 . S
C436 C435 1.398 . S
C436 C437 1.391 . S
C437 H425 0.950 1_565 S
C437 C433 1.393 . S
C437 C436 1.391 . S
H438 C446 0.950 . S
H439 C451 0.950 . S
H440 C448 0.950 . S
H441 C450 0.950 . S
H442 C452 0.950 . S
H443 C454 0.950 . S
H444 C456 0.950 . S
H445 C457 0.950 . S
C446 H438 0.950 . S
C446 C447 1.386 . S
C446 C448 1.391 . S
C447 C446 1.386 . S
C447 C451 1.393 . S
C448 H440 0.950 . S
C448 C446 1.391 . S
C448 C449 1.400 . S
C449 C448 1.400 . S
C449 C450 1.398 . S
C449 C455 1.491 . S
C450 H441 0.950 . S
C450 C449 1.398 . S
C450 C451 1.391 . S
C451 H439 0.950 . S
C451 C447 1.393 . S
C451 C450 1.391 . S
C452 H442 0.950 . S
C452 C453 1.386 . S
C452 C454 1.391 . S
C453 C452 1.386 . S
C453 C457 1.393 . S
C454 H443 0.950 . S
C454 C452 1.391 . S
C454 C455 1.400 . S
C455 C449 1.491 . S
C455 C454 1.400 . S
C455 C456 1.398 . S
C456 H444 0.950 . S
C456 C455 1.398 . S
C456 C457 1.391 . S
C457 H445 0.950 . S
C457 C453 1.393 . S
C457 C456 1.391 . S
H458 C466 0.950 . S
H459 C471 0.950 . S
H460 C468 0.950 . S
H461 C470 0.950 . S
H462 C472 0.950 . S
H463 C474 0.950 . S
H464 C476 0.950 . S
H465 C477 0.950 . S
C466 H458 0.950 . S
C466 C467 1.386 . S
C466 C468 1.391 . S
C467 C466 1.386 . S
C467 C471 1.393 . S
C468 H460 0.950 . S
C468 C466 1.391 . S
C468 C469 1.400 . S
C469 C468 1.400 . S
C469 C470 1.398 . S
C469 C475 1.491 . S
C470 H461 0.950 . S
C470 C469 1.398 . S
C470 C471 1.391 . S
C471 H459 0.950 . S
C471 C467 1.393 . S
C471 C470 1.391 . S
C472 H462 0.950 . S
C472 C473 1.386 . S
C472 C474 1.391 . S
C473 C472 1.386 . S
C473 C477 1.393 1_554 S
C474 H463 0.950 . S
C474 C472 1.391 . S
C474 C475 1.400 . S
C475 C469 1.491 . S
C475 C474 1.400 . S
C475 C476 1.398 . S
C476 H464 0.950 . S
C476 C475 1.398 . S
C476 C477 1.391 1_554 S
C477 H465 0.950 . S
C477 C473 1.393 1_556 S
C477 C476 1.391 1_556 S
H478 C486 0.950 . S
H479 C491 0.950 . S
H480 C488 0.950 . S
H481 C490 0.950 . S
H482 C492 0.950 . S
H483 C494 0.950 . S
H484 C496 0.950 . S
H485 C497 0.950 . S
C486 H478 0.950 . S
C486 C487 1.386 . S
C486 C488 1.391 . S
C487 C486 1.386 . S
C487 C491 1.393 . S
C488 H480 0.950 . S
C488 C486 1.391 . S
C488 C489 1.400 . S
C489 C488 1.400 . S
C489 C490 1.398 . S
C489 C495 1.491 . S
C490 H481 0.950 . S
C490 C489 1.398 . S
C490 C491 1.391 . S
C491 H479 0.950 . S
C491 C487 1.393 . S
C491 C490 1.391 . S
C492 H482 0.950 . S
C492 C493 1.386 . S
C492 C494 1.391 . S
C493 C492 1.386 . S
C493 C497 1.393 . S
C494 H483 0.950 . S
C494 C492 1.391 . S
C494 C495 1.400 . S
C495 C489 1.491 . S
C495 C494 1.400 . S
C495 C496 1.398 . S
C496 H484 0.950 . S
C496 C495 1.398 . S
C496 C497 1.391 . S
C497 H485 0.950 . S
C497 C493 1.393 . S
C497 C496 1.391 . S
C207 C127 1.518 . S
C213 N14 1.416 . S
C227 C140 0.762 . S
C233 C8 0.785 . S
C247 N5 0.613 . S
C253 N170 0.681 . S
C267 N80 1.431 . S
C273 C28 1.529 . S
C287 N179 1.452 . S
C293 C41 1.566 . S
C307 N71 0.682 . S
C313 N47 0.460 . S
C327 C61 0.796 . S
C333 C107 0.760 . S
C347 C160 1.479 1_556 S
C353 N38 1.251 1_655 S
C367 C94 1.495 . S
C373 N113 1.407 1_556 S
C387 C74 0.643 . S
C393 C173 0.675 . S
C407 N137 0.621 . S
C413 N104 0.680 . S
C427 C193 1.537 . S
C433 N146 1.431 1_565 S
C447 C50 1.177 . S
C453 C17 1.195 . S
C467 C149 1.029 . S
C473 C83 1.027 . S
C487 C182 1.055 . S
C493 C116 1.063 . S
