# Generated by pormake.
# Topology whw, (6)-cn, num edge types: 1
# Building blocks:
#     Node 0, Type 0, BuildingBlock: CIFDUS_clean_sbu_1, # of connection points: 6
#     Node 1, Type 0, BuildingBlock: CIFDUS_clean_sbu_1, # of connection points: 6
#     Node 2, Type 0, BuildingBlock: CIFDUS_clean_sbu_1, # of connection points: 6
#     Node 3, Type 0, BuildingBlock: CIFDUS_clean_sbu_1, # of connection points: 6
#     Node 4, Type 0, BuildingBlock: CIFDUS_clean_sbu_1, # of connection points: 6
#     Node 5, Type 0, BuildingBlock: CIFDUS_clean_sbu_1, # of connection points: 6
#     Node 6, Type 0, BuildingBlock: CIFDUS_clean_sbu_1, # of connection points: 6
#     Node 7, Type 0, BuildingBlock: CIFDUS_clean_sbu_1, # of connection points: 6
#     Node 8, Type 0, BuildingBlock: CIFDUS_clean_sbu_1, # of connection points: 6
#     Node 9, Type 0, BuildingBlock: CIFDUS_clean_sbu_1, # of connection points: 6
#     Node 10, Type 0, BuildingBlock: CIFDUS_clean_sbu_1, # of connection points: 6
#     Node 11, Type 0, BuildingBlock: CIFDUS_clean_sbu_1, # of connection points: 6
#     Node 12, Type 0, BuildingBlock: CIFDUS_clean_sbu_1, # of connection points: 6
#     Node 13, Type 0, BuildingBlock: CIFDUS_clean_sbu_1, # of connection points: 6
#     Node 14, Type 0, BuildingBlock: CIFDUS_clean_sbu_1, # of connection points: 6
#     Node 15, Type 0, BuildingBlock: CIFDUS_clean_sbu_1, # of connection points: 6
#     Edge 16, Type (0, 0), BuildingBlock: EZIPEK_clean_linker_0, # of connection points: 2
#     Edge 17, Type (0, 0), BuildingBlock: EZIPEK_clean_linker_0, # of connection points: 2
#     Edge 18, Type (0, 0), BuildingBlock: EZIPEK_clean_linker_0, # of connection points: 2
#     Edge 19, Type (0, 0), BuildingBlock: EZIPEK_clean_linker_0, # of connection points: 2
#     Edge 20, Type (0, 0), BuildingBlock: EZIPEK_clean_linker_0, # of connection points: 2
#     Edge 21, Type (0, 0), BuildingBlock: EZIPEK_clean_linker_0, # of connection points: 2
#     Edge 22, Type (0, 0), BuildingBlock: EZIPEK_clean_linker_0, # of connection points: 2
#     Edge 23, Type (0, 0), BuildingBlock: EZIPEK_clean_linker_0, # of connection points: 2
#     Edge 24, Type (0, 0), BuildingBlock: EZIPEK_clean_linker_0, # of connection points: 2
#     Edge 25, Type (0, 0), BuildingBlock: EZIPEK_clean_linker_0, # of connection points: 2
#     Edge 26, Type (0, 0), BuildingBlock: EZIPEK_clean_linker_0, # of connection points: 2
#     Edge 27, Type (0, 0), BuildingBlock: EZIPEK_clean_linker_0, # of connection points: 2
#     Edge 28, Type (0, 0), BuildingBlock: EZIPEK_clean_linker_0, # of connection points: 2
#     Edge 29, Type (0, 0), BuildingBlock: EZIPEK_clean_linker_0, # of connection points: 2
#     Edge 30, Type (0, 0), BuildingBlock: EZIPEK_clean_linker_0, # of connection points: 2
#     Edge 31, Type (0, 0), BuildingBlock: EZIPEK_clean_linker_0, # of connection points: 2
#     Edge 32, Type (0, 0), BuildingBlock: EZIPEK_clean_linker_0, # of connection points: 2
#     Edge 33, Type (0, 0), BuildingBlock: EZIPEK_clean_linker_0, # of connection points: 2
#     Edge 34, Type (0, 0), BuildingBlock: EZIPEK_clean_linker_0, # of connection points: 2
#     Edge 35, Type (0, 0), BuildingBlock: EZIPEK_clean_linker_0, # of connection points: 2
#     Edge 36, Type (0, 0), BuildingBlock: EZIPEK_clean_linker_0, # of connection points: 2
#     Edge 37, Type (0, 0), BuildingBlock: EZIPEK_clean_linker_0, # of connection points: 2
#     Edge 38, Type (0, 0), BuildingBlock: EZIPEK_clean_linker_0, # of connection points: 2
#     Edge 39, Type (0, 0), BuildingBlock: EZIPEK_clean_linker_0, # of connection points: 2
#     Edge 40, Type (0, 0), BuildingBlock: EZIPEK_clean_linker_0, # of connection points: 2
#     Edge 41, Type (0, 0), BuildingBlock: EZIPEK_clean_linker_0, # of connection points: 2
#     Edge 42, Type (0, 0), BuildingBlock: EZIPEK_clean_linker_0, # of connection points: 2
#     Edge 43, Type (0, 0), BuildingBlock: EZIPEK_clean_linker_0, # of connection points: 2
#     Edge 44, Type (0, 0), BuildingBlock: EZIPEK_clean_linker_0, # of connection points: 2
#     Edge 45, Type (0, 0), BuildingBlock: EZIPEK_clean_linker_0, # of connection points: 2
#     Edge 46, Type (0, 0), BuildingBlock: EZIPEK_clean_linker_0, # of connection points: 2
#     Edge 47, Type (0, 0), BuildingBlock: EZIPEK_clean_linker_0, # of connection points: 2
#     Edge 48, Type (0, 0), BuildingBlock: EZIPEK_clean_linker_0, # of connection points: 2
#     Edge 49, Type (0, 0), BuildingBlock: EZIPEK_clean_linker_0, # of connection points: 2
#     Edge 50, Type (0, 0), BuildingBlock: EZIPEK_clean_linker_0, # of connection points: 2
#     Edge 51, Type (0, 0), BuildingBlock: EZIPEK_clean_linker_0, # of connection points: 2
#     Edge 52, Type (0, 0), BuildingBlock: EZIPEK_clean_linker_0, # of connection points: 2
#     Edge 53, Type (0, 0), BuildingBlock: EZIPEK_clean_linker_0, # of connection points: 2
#     Edge 54, Type (0, 0), BuildingBlock: EZIPEK_clean_linker_0, # of connection points: 2
#     Edge 55, Type (0, 0), BuildingBlock: EZIPEK_clean_linker_0, # of connection points: 2
#     Edge 56, Type (0, 0), BuildingBlock: EZIPEK_clean_linker_0, # of connection points: 2
#     Edge 57, Type (0, 0), BuildingBlock: EZIPEK_clean_linker_0, # of connection points: 2
#     Edge 58, Type (0, 0), BuildingBlock: EZIPEK_clean_linker_0, # of connection points: 2
#     Edge 59, Type (0, 0), BuildingBlock: EZIPEK_clean_linker_0, # of connection points: 2
#     Edge 60, Type (0, 0), BuildingBlock: EZIPEK_clean_linker_0, # of connection points: 2
#     Edge 61, Type (0, 0), BuildingBlock: EZIPEK_clean_linker_0, # of connection points: 2
#     Edge 62, Type (0, 0), BuildingBlock: EZIPEK_clean_linker_0, # of connection points: 2
#     Edge 63, Type (0, 0), BuildingBlock: EZIPEK_clean_linker_0, # of connection points: 2
# Relax obj value: 0.548
# Max RMSD: 0.240
# Mean RMSD: 0.240
data_MOF--net-whw--node1-CIFDUS_clean_sbu_1--edge1-EZIPEK_clean_linker_0
_symmetry_space_group_name_H-M    P1
_symmetry_Int_Tables_number       1
_symmetry_cell_setting            triclinic
loop_
_symmetry_equiv_pos_as_xyz
'x, y, z'
_cell_length_a     37.505965
_cell_length_b     37.629532
_cell_length_c     17.416126
_cell_angle_alpha  89.99845
_cell_angle_beta   89.953319
_cell_angle_gamma 89.949017
loop_
_atom_site_label
_atom_site_type_symbol
_atom_site_fract_x
_atom_site_fract_y
_atom_site_fract_z
_atom_type_partial_charge
O0 O 0.03186 0.11209 0.06995 0.0
Mn1 Mn 0.99097 0.1244 0.15536 0.0
O2 O 0.05342 0.16478 0.02978 0.0
Mn3 Mn 0.01302 0.18909 0.05484 0.0
O4 O 0.95195 0.13726 0.24041 0.0
O5 O 0.9799 0.07248 0.16883 0.0
Mn6 Mn 0.97402 0.06182 0.267 0.0
O7 O 0.02842 0.12103 0.24424 0.0
O8 O 0.93543 0.08791 0.30343 0.0
O9 O 0.95261 0.13078 0.06543 0.0
O10 O 0.97231 0.17879 0.99855 0.0
O11 O 0.97003 0.01956 0.21412 0.0
O12 O 0.01746 0.07224 0.31398 0.0
C13 C 0.00323 0.20801 0.16832 0.0
C14 C 0.05486 0.13114 0.03133 0.0
C15 C 0.93301 0.12127 0.29207 0.0
C16 C 0.97781 0.03889 0.15496 0.0
C17 C 0.03571 0.10012 0.30075 0.0
C18 C 0.94966 0.154 1.01038 0.0
O19 O 0.00202 0.17545 0.14747 0.0
O20 O 0.01467 0.22915 0.11525 0.0
O21 O 0.12702 0.7726 0.5085 0.0
Mn22 Mn 0.12328 0.73489 0.4197 0.0
O23 O 0.17652 0.76152 0.57684 0.0
Mn24 Mn 0.1862 0.71777 0.53122 0.0
O25 O 0.11678 0.69639 0.33039 0.0
O26 O 0.07225 0.74634 0.4113 0.0
Mn27 Mn 0.0587 0.75681 0.31828 0.0
O28 O 0.13608 0.77533 0.33381 0.0
O29 O 0.06869 0.71577 0.26306 0.0
O30 O 0.11001 0.69629 0.50482 0.0
O31 O 0.15938 0.67999 0.56876 0.0
O32 O 0.01855 0.75925 0.37881 0.0
O33 O 0.08339 0.79665 0.29181 0.0
C34 C 0.20838 0.71945 0.41806 0.0
C35 C 0.14839 0.77968 0.56453 0.0
C36 C 0.09354 0.6932 0.27541 0.0
C37 C 0.0396 0.7478 0.43208 0.0
C38 C 0.11713 0.79803 0.29411 0.0
C39 C 0.12594 0.67754 0.55685 0.0
O40 O 0.17502 0.72311 0.43332 0.0
O41 O 0.22817 0.7123 0.4769 0.0
O42 O 0.45847 0.87756 0.57522 0.0
Mn43 Mn 0.50018 0.86876 0.65907 0.0
O44 O 0.44169 0.82298 0.53668 0.0
Mn45 Mn 0.48531 0.80329 0.55461 0.0
O46 O 0.5398 0.85871 0.7438 0.0
O47 O 0.50488 0.92161 0.67796 0.0
Mn48 Mn 0.50761 0.92969 0.77835 0.0
O49 O 0.46171 0.8657 0.74513 0.0
O50 O 0.54806 0.90744 0.81598 0.0
O51 O 0.53869 0.86888 0.56873 0.0
O52 O 0.52296 0.82083 0.49694 0.0
O53 O 0.50994 0.97368 0.73356 0.0
O54 O 0.46581 0.91319 0.82302 0.0
C55 C 0.50019 0.78391 0.66506 0.0
C56 C 0.43688 0.85634 0.53873 0.0
C57 C 0.55512 0.87522 0.79987 0.0
C58 C 0.50692 0.95575 0.67043 0.0
C59 C 0.45144 0.88388 0.80358 0.0
C60 C 0.54294 0.84765 0.51041 0.0
O61 O 0.49593 0.81666 0.64722 0.0
O62 O 0.49116 0.76221 0.61094 0.0
O63 O 0.37007 0.1993 0.81815 0.0
Mn64 Mn 0.38002 0.23996 0.90417 0.0
O65 O 0.42423 0.18274 0.77427 0.0
Mn66 Mn 0.44552 0.22503 0.79808 0.0
O67 O 0.39118 0.27805 0.98936 0.0
O68 O 0.32745 0.24788 0.92089 0.0
Mn69 Mn 0.31752 0.25057 1.02015 0.0
O70 O 0.38022 0.20133 0.99193 0.0
O71 O 0.34326 0.28785 0.06354 0.0
O72 O 0.382 0.27967 0.81656 0.0
O73 O 0.42997 0.26463 0.74385 0.0
O74 O 0.27461 0.25615 0.97024 0.0
O75 O 0.32931 0.20622 0.05887 0.0
C76 C 0.46496 0.23672 0.91073 0.0
C77 C 0.3907 0.17831 0.77811 0.0
C78 C 0.37568 0.29385 0.04589 0.0
C79 C 0.2936 0.25083 0.90921 0.0
C80 C 0.35921 0.19128 0.04667 0.0
C81 C 0.40366 0.28503 0.75943 0.0
O82 O 0.43208 0.23346 0.89214 0.0
O83 O 0.48672 0.22859 0.85583 0.0
O84 O 0.06666 0.87269 0.99052 0.0
Mn85 Mn 0.02507 0.87144 0.90508 0.0
O86 O 0.05082 0.82967 0.07363 0.0
Mn87 Mn 0.0186 0.80623 1.0129 0.0
O88 O 0.98477 0.86836 0.81965 0.0
O89 O 0.02743 0.92456 0.88829 0.0
Mn90 Mn 0.03234 0.93301 0.7886 0.0
O91 O 0.0642 0.86265 0.81955 0.0
O92 O 0.99184 0.91494 0.74 0.0
O93 O 0.9844 0.8769 0.9921 0.0
O94 O 0.97251 0.82058 0.02993 0.0
O95 O 0.03013 0.97693 0.83391 0.0
O96 O 0.07512 0.91325 0.75675 0.0
C97 C 0.04023 0.79219 0.901 0.0
C98 C 0.07153 0.85443 0.05304 0.0
C99 C 0.97582 0.88634 0.75927 0.0
C100 C 0.02578 0.95871 0.89629 0.0
C101 C 0.0812 0.88045 0.76804 0.0
C102 C 0.96493 0.85367 0.02886 0.0
O103 O 0.02168 0.81973 0.91614 0.0
O104 O 0.04115 0.77049 0.95851 0.0
O105 O 0.36969 0.79244 0.2515 0.0
Mn106 Mn 0.37585 0.75241 0.16343 0.0
O107 O 0.42484 0.80167 0.29938 0.0
Mn108 Mn 0.4422 0.75814 0.27158 0.0
O109 O 0.38303 0.71454 0.07402 0.0
O110 O 0.32276 0.75218 0.14228 0.0
Mn111 Mn 0.31568 0.75518 0.04139 0.0
O112 O 0.38311 0.79279 0.08316 0.0
O113 O 0.33522 0.71499 0.9963 0.0
O114 O 0.37236 0.71139 0.24827 0.0
O115 O 0.42232 0.71934 0.32064 0.0
O116 O 0.27099 0.75308 0.08355 0.0
O117 O 0.3358 0.79693 1.00497 0.0
C118 C 0.46051 0.74811 0.1572 0.0
C119 C 0.39217 0.81023 0.29357 0.0
C120 C 0.36598 0.70334 1.01424 0.0
C121 C 0.28836 0.75049 0.14757 0.0
C122 C 0.36672 0.80684 1.02605 0.0
C123 C 0.39361 0.70268 0.30441 0.0
O124 O 0.42804 0.75267 0.17737 0.0
O125 O 0.48292 0.75269 0.21265 0.0
O126 O 0.4465 0.1135 0.47616 0.0
Mn127 Mn 0.48832 0.12135 0.3937 0.0
O128 O 0.45099 0.16047 0.55592 0.0
Mn129 Mn 0.48205 0.18759 0.50005 0.0
O130 O 0.52888 0.1301 0.31034 0.0
O131 O 0.49385 0.06856 0.37957 0.0
Mn132 Mn 0.49485 0.05762 0.28092 0.0
O133 O 0.45021 0.123 0.30511 0.0
O134 O 0.5342 0.08042 0.23883 0.0
O135 O 0.52786 0.12265 0.48354 0.0
O136 O 0.52903 0.17978 0.52475 0.0
O137 O 0.49929 0.0151 0.33201 0.0
O138 O 0.45136 0.07153 0.24038 0.0
C139 C 0.46282 0.19906 0.3847 0.0
C140 C 0.43648 0.13155 0.53589 0.0
C141 C 0.54322 0.11227 0.25464 0.0
C142 C 0.49721 0.03497 0.3925 0.0
C143 C 0.43873 0.10249 0.25128 0.0
C144 C 0.54209 0.14843 0.52324 0.0
O145 O 0.48309 0.17321 0.404 0.0
O146 O 0.45827 0.22092 0.4413 0.0
O147 O 0.1179 0.18579 0.55838 0.0
Mn148 Mn 0.12672 0.22474 0.64246 0.0
O149 O 0.1674 0.17782 0.48843 0.0
Mn150 Mn 0.1893 0.21841 0.52725 0.0
O151 O 0.13173 0.26515 0.72982 0.0
O152 O 0.07494 0.22851 0.6525 0.0
Mn153 Mn 0.06015 0.23016 0.74853 0.0
O154 O 0.12783 0.18341 0.72824 0.0
O155 O 0.07511 0.27555 0.77004 0.0
O156 O 0.12429 0.26468 0.55492 0.0
O157 O 0.17395 0.26092 0.48357 0.0
O158 O 0.02473 0.20919 0.69015 0.0
O159 O 0.08236 0.19657 0.8078 0.0
C160 C 0.21406 0.2207 0.63694 0.0
C161 C 0.13509 0.17026 0.5041 0.0
C162 C 0.10824 0.28347 0.76875 0.0
C163 C 0.04735 0.2107 0.63421 0.0
C164 C 0.1085 0.17721 0.78874 0.0
C165 C 0.14379 0.27509 0.49743 0.0
O166 O 0.17992 0.22122 0.62691 0.0
O167 O 0.2329 0.217 0.57512 0.0
O168 O 0.87882 0.31438 0.72484 0.0
Mn169 Mn 0.87984 0.27267 0.63729 0.0
O170 O 0.93544 0.32092 0.76523 0.0
Mn171 Mn 0.94799 0.27568 0.73867 0.0
O172 O 0.88122 0.23291 0.55 0.0
O173 O 0.8266 0.27603 0.62366 0.0
Mn174 Mn 0.81585 0.27965 0.52491 0.0
O175 O 0.888 0.3106 0.55059 0.0
O176 O 0.83153 0.23774 0.47874 0.0
O177 O 0.87529 0.23333 0.72536 0.0
O178 O 0.92667 0.23899 0.79344 0.0
O179 O 0.77292 0.28 0.57606 0.0
O180 O 0.83697 0.32094 0.48813 0.0
C181 C 0.96389 0.26177 0.62471 0.0
C182 C 0.90326 0.3312 0.76416 0.0
C183 C 0.86136 0.22285 0.49319 0.0
C184 C 0.79268 0.27598 0.63633 0.0
C185 C 0.87 0.3269 0.4984 0.0
C186 C 0.89669 0.22393 0.78053 0.0
O187 O 0.9321 0.26933 0.64566 0.0
O188 O 0.98728 0.26678 0.67808 0.0
O189 O 0.62169 0.68881 0.06113 0.0
Mn190 Mn 0.62307 0.72749 0.14839 0.0
O191 O 0.67358 0.68885 0.99784 0.0
Mn192 Mn 0.68753 0.73246 0.03785 0.0
O193 O 0.62024 0.76794 0.23607 0.0
O194 O 0.57129 0.72279 0.15578 0.0
Mn195 Mn 0.55589 0.72014 0.25151 0.0
O196 O 0.63047 0.68605 0.23235 0.0
O197 O 0.56274 0.76701 0.2772 0.0
O198 O 0.6149 0.7671 0.06336 0.0
O199 O 0.66543 0.77204 0.9947 0.0
O200 O 0.52524 0.69455 0.18926 0.0
O201 O 0.58274 0.69011 0.31007 0.0
C202 C 0.70982 0.73757 0.14943 0.0
C203 C 0.64227 0.67674 1.00803 0.0
C204 C 0.59361 0.78142 0.27484 0.0
C205 C 0.54708 0.70137 0.13369 0.0
C206 C 0.61208 0.67597 0.29164 0.0
C207 C 0.63331 0.78128 1.00844 0.0
O208 O 0.67625 0.73284 0.13652 0.0
O209 O 0.72999 0.73785 0.08909 0.0
O210 O 0.62994 0.28752 0.9943 0.0
Mn211 Mn 0.62906 0.2497 0.90686 0.0
O212 O 0.6775 0.27692 0.06962 0.0
Mn213 Mn 0.69198 0.23558 1.01914 0.0
O214 O 0.62481 0.21056 0.81647 0.0
O215 O 0.57753 0.25824 0.89775 0.0
Mn216 Mn 0.5629 0.26113 0.80188 0.0
O217 O 0.6395 0.29083 0.82454 0.0
O218 O 0.56735 0.21399 0.77619 0.0
O219 O 0.6177 0.20989 0.99174 0.0
O220 O 0.66866 0.1948 0.05071 0.0
O221 O 0.53231 0.28785 0.86206 0.0
O222 O 0.59215 0.28991 0.74525 0.0
C223 C 0.71561 0.24004 0.90831 0.0
C224 C 0.64933 0.29444 0.05316 0.0
C225 C 0.59781 0.19874 0.77643 0.0
C226 C 0.55403 0.28105 0.91787 0.0
C227 C 0.62217 0.30217 0.76499 0.0
C228 C 0.63517 0.19148 0.04247 0.0
O229 O 0.68174 0.24171 0.92097 0.0
O230 O 0.735 0.23387 0.96828 0.0
O231 O 0.86039 0.72099 0.32906 0.0
Mn232 Mn 0.87338 0.76108 0.41269 0.0
O233 O 0.9074 0.72052 0.24863 0.0
Mn234 Mn 0.93861 0.7463 0.30711 0.0
O235 O 0.8881 0.79961 0.49746 0.0
O236 O 0.82141 0.77235 0.42917 0.0
Mn237 Mn 0.81297 0.77922 0.52829 0.0
O238 O 0.87025 0.72266 0.49929 0.0
O239 O 0.83942 0.81822 0.56001 0.0
O240 O 0.88 0.80035 0.32309 0.0
O241 O 0.93736 0.79392 0.28374 0.0
O242 O 0.76949 0.78362 0.48005 0.0
O243 O 0.82481 0.73676 0.57797 0.0
C244 C 0.94492 0.7248 0.42252 0.0
C245 C 0.87692 0.70944 0.26841 0.0
C246 C 0.87296 0.8191 0.5496 0.0
C247 C 0.78749 0.77574 0.41892 0.0
C248 C 0.85112 0.71695 0.55931 0.0
C249 C 0.9078 0.81088 0.28374 0.0
O250 O 0.92398 0.74986 0.40305 0.0
O251 O 0.96595 0.71601 0.36687 0.0
O252 O 0.54579 0.60567 0.57816 0.0
Mn253 Mn 0.50648 0.61695 0.66405 0.0
O254 O 0.53824 0.64956 0.49197 0.0
Mn255 Mn 0.51206 0.68018 0.55193 0.0
O256 O 0.46957 0.63088 0.75191 0.0
O257 O 0.49761 0.56522 0.6817 0.0
Mn258 Mn 0.49111 0.55633 0.78003 0.0
O259 O 0.54694 0.61532 0.74768 0.0
O260 O 0.45051 0.58135 0.80893 0.0
O261 O 0.46441 0.61946 0.57897 0.0
O262 O 0.46371 0.67618 0.53686 0.0
O263 O 0.48842 0.51291 0.73032 0.0
O264 O 0.53341 0.57053 0.82758 0.0
C265 C 0.53817 0.69183 0.66065 0.0
C266 C 0.55382 0.62153 0.51437 0.0
C267 C 0.44921 0.61492 0.80084 0.0
C268 C 0.49456 0.53167 0.66952 0.0
C269 C 0.55385 0.59594 0.80715 0.0
C270 C 0.44955 0.64543 0.54091 0.0
O271 O 0.5145 0.66801 0.64977 0.0
O272 O 0.5416 0.71215 0.60111 0.0
O273 O 0.97273 0.38717 0.06785 0.0
Mn274 Mn 0.01343 0.37429 0.15049 0.0
O275 O 0.97314 0.34065 0.98646 0.0
Mn276 Mn -0.00072 0.30947 0.04441 0.0
O277 O 0.05263 0.35945 0.23317 0.0
O278 O 0.02532 0.42582 0.16625 0.0
Mn279 Mn 0.03171 0.43518 0.26489 0.0
O280 O 0.97538 0.37771 0.23927 0.0
O281 O 0.06939 0.4075 0.30064 0.0
O282 O 0.05262 0.36796 0.06051 0.0
O283 O 0.04706 0.31074 1.02167 0.0
O284 O 0.03643 0.47798 0.21397 0.0
O285 O 0.98816 0.42531 0.31182 0.0
C286 C 0.9776 0.30233 0.15934 0.0
C287 C 0.9614 0.37073 1.00697 0.0
C288 C 0.07146 0.3743 0.28651 0.0
C289 C 0.02782 0.45953 0.15408 0.0
C290 C 0.96905 0.39815 0.29721 0.0
C291 C 0.06383 0.34028 1.02206 0.0
O292 O 0.00221 0.32388 0.14043 0.0
O293 O 0.96955 0.28124 0.10338 0.0
O294 O 0.55961 0.37625 0.48659 0.0
Mn295 Mn 0.51895 0.36834 0.39926 0.0
O296 O 0.57285 0.32141 0.53096 0.0
Mn297 Mn 0.52926 0.30273 0.50741 0.0
O298 O 0.48066 0.35911 0.31256 0.0
O299 O 0.51446 0.42099 0.37959 0.0
Mn300 Mn 0.5146 0.42936 0.27909 0.0
O301 O 0.55892 0.36491 0.31494 0.0
O302 O 0.47577 0.40645 0.23501 0.0
O303 O 0.47843 0.36955 0.48561 0.0
O304 O 0.4904 0.32143 0.56015 0.0
O305 O 0.50967 0.47309 0.32513 0.0
O306 O 0.55821 0.41378 0.24217 0.0
C307 C 0.51722 0.28375 0.39443 0.0
C308 C 0.57937 0.35448 0.52672 0.0
C309 C 0.46656 0.37519 0.25467 0.0
C310 C 0.51083 0.45489 0.38818 0.0
C311 C 0.57213 0.38418 0.2606 0.0
C312 C 0.47167 0.34879 0.54351 0.0
O313 O 0.52238 0.31626 0.41304 0.0
O314 O 0.52332 0.26175 0.44991 0.0
O315 O 0.9335 0.62485 0.98953 0.0
Mn316 Mn 0.9757 0.62505 0.90281 0.0
O317 O 0.92811 0.6814 0.03025 0.0
Mn318 Mn 0.97397 0.69277 1.00523 0.0
O319 O 0.01545 0.62562 0.81588 0.0
O320 O 0.97124 0.5723 0.88786 0.0
Mn321 Mn 0.96538 0.56199 0.7895 0.0
O322 O 0.93825 0.63465 0.81597 0.0
O323 O 0.00683 0.57784 0.74054 0.0
O324 O 0.01482 0.61907 0.99091 0.0
O325 O 0.00992 0.67016 0.06001 0.0
O326 O 0.96661 0.51902 0.84056 0.0
O327 O 0.92353 0.58402 0.75744 0.0
C328 C 0.98888 0.70827 0.89157 0.0
C329 C 0.91693 0.64963 1.02834 0.0
C330 C 0.02363 0.6064 0.75674 0.0
C331 C 0.97255 0.53857 0.9003 0.0
C332 C 0.91981 0.61738 0.76617 0.0
C333 C 0.02448 0.64002 0.04656 0.0
O334 O 0.98026 0.67688 0.91231 0.0
O335 O 0.98441 0.73168 0.94499 0.0
C336 C 0.11564 0.13157 0.97571 0.0
C337 C 0.08092 0.11659 0.97358 0.0
C338 C 0.08316 0.11986 0.83258 0.0
C339 C 0.11168 0.14468 0.83791 0.0
N340 N 0.15987 0.16864 0.91104 0.0
N341 N 0.03767 0.08498 0.89994 0.0
C342 C 0.13023 0.1477 0.90821 0.0
C343 C 0.06723 0.10603 0.90143 0.0
N344 N 0.13312 0.13213 0.04412 0.0
N345 N 0.06984 0.11226 0.76159 0.0
H346 H 0.02693 0.07446 0.95039 0.0
H347 H 0.02459 0.07706 0.8502 0.0
H348 H 0.08141 0.12285 0.71204 0.0
H349 H 0.04877 0.09498 0.75126 0.0
H350 H 0.15903 0.14143 0.05123 0.0
H351 H 0.12195 0.12006 0.09237 0.0
H352 H 0.1731 0.17529 0.96152 0.0
H353 H 0.17067 0.17986 0.8613 0.0
C354 C 0.11773 0.85889 0.24002 0.0
C355 C 0.13201 0.82399 0.23665 0.0
C356 C 0.12843 0.82725 0.0957 0.0
C357 C 0.10428 0.85634 0.10215 0.0
N358 N 0.08095 0.904 0.17777 0.0
N359 N 0.16203 0.78027 0.1612 0.0
C360 C 0.10165 0.87425 0.1733 0.0
C361 C 0.14196 0.81048 0.16389 0.0
N362 N 0.11776 0.87589 0.30893 0.0
N363 N 0.13559 0.8142 1.02425 0.0
H364 H 0.17231 0.76887 0.21118 0.0
H365 H 0.16927 0.76718 0.11099 0.0
H366 H 0.12505 0.82622 0.97523 0.0
H367 H 0.15253 0.79294 1.01305 0.0
H368 H 0.10913 0.90192 0.31697 0.0
H369 H 0.12977 0.86409 0.35647 0.0
H370 H 0.07456 0.91681 0.22892 0.0
H371 H 0.06947 0.9152 0.12879 0.0
C372 C 0.36469 0.83137 0.41639 0.0
C373 C 0.3818 0.83993 0.34629 0.0
C374 C 0.41923 0.88365 0.41366 0.0
C375 C 0.40843 0.86849 0.48431 0.0
N376 N 0.36044 0.84222 0.55438 0.0
N377 N 0.4128 0.88418 0.27399 0.0
C378 C 0.37664 0.84807 0.48549 0.0
C379 C 0.4041 0.87038 0.34389 0.0
N380 N 0.33986 0.80494 0.41759 0.0
N381 N 0.44603 0.90807 0.41341 0.0
H382 H 0.40218 0.87351 0.22353 0.0
H383 H 0.42801 0.90703 0.26639 0.0
H384 H 0.45642 0.91821 0.46438 0.0
H385 H 0.45782 0.91813 0.36389 0.0
H386 H 0.32891 0.7945 0.46767 0.0
H387 H 0.33075 0.79309 0.3672 0.0
H388 H 0.33635 0.82879 0.56052 0.0
H389 H 0.37043 0.85362 0.6047 0.0
C390 C 0.36388 0.16343 0.65086 0.0
C391 C 0.37743 0.15108 0.72188 0.0
C392 C 0.4114 0.10469 0.65383 0.0
C393 C 0.40489 0.1226 0.58411 0.0
N394 N 0.36469 0.1583 0.51089 0.0
N395 N 0.3991 0.10071 0.79095 0.0
C396 C 0.37658 0.14764 0.58114 0.0
C397 C 0.39547 0.11788 0.72274 0.0
N398 N 0.34169 0.19214 0.65046 0.0
N399 N 0.43543 0.07748 0.65447 0.0
H400 H 0.38693 0.11085 0.84004 0.0
H401 H 0.41086 0.0758 0.79709 0.0
H402 H 0.44663 0.0679 0.60352 0.0
H403 H 0.44457 0.06517 0.70424 0.0
H404 H 0.33296 0.20492 0.60096 0.0
H405 H 0.33204 0.20313 0.70138 0.0
H406 H 0.34351 0.17574 0.50251 0.0
H407 H 0.37527 0.14735 0.46068 0.0
C408 C 0.88812 0.83347 0.15527 0.0
C409 C 0.90635 0.84011 0.22509 0.0
C410 C 0.9475 0.87971 0.15488 0.0
C411 C 0.93652 0.86388 0.08527 0.0
N412 N 0.89162 0.83247 1.01533 0.0
N413 N 0.94982 0.87433 0.29382 0.0
C414 C 0.90444 0.84384 0.08438 0.0
C415 C 0.9342 0.86579 0.22564 0.0
N416 N 0.85644 0.8157 0.15697 0.0
N417 N 0.9718 0.90665 0.15299 0.0
H418 H 0.93992 0.86456 0.34555 0.0
H419 H 0.97283 0.88959 0.29887 0.0
H420 H 0.98103 0.9172 0.10128 0.0
H421 H 0.97986 0.92078 0.20134 0.0
H422 H 0.84083 0.81091 0.10872 0.0
H423 H 0.84423 0.8085 0.20848 0.0
H424 H 0.87061 0.81469 1.00896 0.0
H425 H 0.90316 0.84076 0.96376 0.0
C426 C 0.90624 0.16105 0.81887 0.0
C427 C 0.88872 0.19366 0.83351 0.0
C428 C 0.89149 0.18001 0.97107 0.0
C429 C 0.91865 0.15473 0.95643 0.0
N430 N 0.94784 0.11643 0.86623 0.0
N431 N 0.85818 0.23104 0.92316 0.0
C432 C 0.92399 0.14305 0.88007 0.0
C433 C 0.87844 0.20159 0.90972 0.0
N434 N 0.90614 0.14802 0.74612 0.0
N435 N 0.87908 0.18356 0.04399 0.0
H436 H 0.84754 0.24592 0.87799 0.0
H437 H 0.85273 0.24087 0.97781 0.0
H438 H 0.88804 0.16657 0.08712 0.0
H439 H 0.85804 0.20019 0.05931 0.0
H440 H 0.91677 0.12341 0.73104 0.0
H441 H 0.89169 0.16087 0.70316 0.0
H442 H 0.95614 0.1091 0.81139 0.0
H443 H 0.9599 0.10246 0.91108 0.0
C444 C 0.5756 0.14166 0.72077 0.0
C445 C 0.60105 0.16963 0.71798 0.0
C446 C 0.60122 0.16589 0.57718 0.0
C447 C 0.5714 0.14266 0.58031 0.0
N448 N 0.53983 0.09811 0.65147 0.0
N449 N 0.64726 0.19866 0.64637 0.0
C450 C 0.56243 0.12651 0.65109 0.0
C451 C 0.61746 0.17788 0.64687 0.0
N452 N 0.56184 0.13206 0.79024 0.0
N453 N 0.61184 0.1785 0.50734 0.0
H454 H 0.65927 0.20726 0.69705 0.0
H455 H 0.66172 0.20475 0.59711 0.0
H456 H 0.60055 0.16913 0.45645 0.0
H457 H 0.63077 0.19839 0.49972 0.0
H458 H 0.54039 0.11485 0.79738 0.0
H459 H 0.57163 0.14282 0.84114 0.0
H460 H 0.53353 0.08358 0.70047 0.0
H461 H 0.52997 0.08712 0.60083 0.0
C462 C 0.5597 0.86199 0.37778 0.0
C463 C 0.57151 0.85263 0.45181 0.0
C464 C 0.61562 0.81193 0.39483 0.0
C465 C 0.59693 0.81403 0.32394 0.0
N466 N 0.55489 0.84489 0.24367 0.0
N467 N 0.61866 0.83043 0.52961 0.0
C468 C 0.57103 0.84136 0.31349 0.0
C469 C 0.60272 0.83184 0.45941 0.0
N470 N 0.5357 0.88906 0.37101 0.0
N471 N 0.64374 0.78908 0.40137 0.0
H472 H 0.6092 0.84589 0.57513 0.0
H473 H 0.64166 0.81609 0.54188 0.0
H474 H 0.65389 0.77522 0.35436 0.0
H475 H 0.65751 0.78426 0.45208 0.0
H476 H 0.52649 0.89896 0.31889 0.0
H477 H 0.52725 0.90336 0.41919 0.0
H478 H 0.5335 0.86176 0.23279 0.0
H479 H 0.56246 0.82949 0.19665 0.0
C480 C 0.59728 0.61454 0.3294 0.0
C481 C 0.62039 0.64412 0.33966 0.0
C482 C 0.61592 0.63639 0.47913 0.0
C483 C 0.58637 0.61328 0.46814 0.0
N484 N 0.55754 0.57069 0.38836 0.0
N485 N 0.6618 0.67396 0.42063 0.0
C486 C 0.58082 0.59835 0.39482 0.0
C487 C 0.63388 0.65101 0.41377 0.0
N488 N 0.58814 0.60519 0.25648 0.0
N489 N 0.62375 0.64721 0.55189 0.0
H490 H 0.67384 0.68502 0.37202 0.0
H491 H 0.67416 0.68021 0.47233 0.0
H492 H 0.61011 0.63685 0.59903 0.0
H493 H 0.64283 0.66623 0.56549 0.0
H494 H 0.56948 0.58581 0.2426 0.0
H495 H 0.59966 0.61793 0.20949 0.0
H496 H 0.55211 0.55743 0.3373 0.0
H497 H 0.54524 0.55983 0.43688 0.0
C498 C 0.65045 0.32679 0.6473 0.0
C499 C 0.63313 0.33341 0.71791 0.0
C500 C 0.59554 0.37852 0.65518 0.0
C501 C 0.60741 0.366 0.58285 0.0
N502 N 0.65773 0.34394 0.51335 0.0
N503 N 0.60089 0.3751 0.79488 0.0
C504 C 0.63956 0.34611 0.58076 0.0
C505 C 0.61042 0.36349 0.72362 0.0
N506 N 0.67457 0.29976 0.64282 0.0
N507 N 0.56776 0.40185 0.65776 0.0
H508 H 0.61113 0.36306 0.84426 0.0
H509 H 0.58542 0.39762 0.80477 0.0
H510 H 0.55726 0.41298 0.60779 0.0
H511 H 0.55505 0.4097 0.70812 0.0
H512 H 0.6857 0.29087 0.59149 0.0
H513 H 0.68222 0.28552 0.69158 0.0
H514 H 0.68212 0.33096 0.50744 0.0
H515 H 0.64953 0.35872 0.4659 0.0
C516 C 0.89936 0.36107 0.96452 0.0
C517 C 0.93045 0.38254 0.95923 0.0
C518 C 0.91855 0.3897 0.82164 0.0
C519 C 0.89586 0.35949 0.82342 0.0
N520 N 0.85592 0.32379 0.89745 0.0
N521 N 0.96528 0.42353 0.88625 0.0
C522 C 0.88258 0.34838 0.89567 0.0
C523 C 0.93783 0.39982 0.88904 0.0
N524 N 0.88819 0.35077 0.03566 0.0
N525 N 0.92254 0.40725 0.75398 0.0
H526 H 0.97882 0.43117 0.93599 0.0
H527 H 0.97488 0.4348 0.83574 0.0
H528 H 0.90732 0.39999 0.70652 0.0
H529 H 0.93754 0.43031 0.74739 0.0
H530 H 0.86563 0.33544 0.04603 0.0
H531 H 0.90116 0.35967 0.08513 0.0
H532 H 0.84615 0.31211 0.94731 0.0
H533 H 0.84317 0.31555 0.84726 0.0
C534 C 0.84852 0.68695 0.14864 0.0
C535 C 0.86455 0.67903 0.22002 0.0
C536 C 0.89776 0.62985 0.15895 0.0
C537 C 0.88768 0.64302 0.08591 0.0
N538 N 0.84085 0.67047 1.01437 0.0
N539 N 0.89331 0.63554 0.29867 0.0
C540 C 0.85813 0.66658 0.08246 0.0
C541 C 0.88466 0.64715 0.22687 0.0
N542 N 0.82677 0.7159 0.14333 0.0
N543 N 0.92201 0.60289 0.16248 0.0
H544 H 0.8842 0.64886 0.34756 0.0
H545 H 0.90716 0.61214 0.30985 0.0
H546 H 0.93057 0.58975 0.11297 0.0
H547 H 0.93337 0.59357 0.21308 0.0
H548 H 0.8169 0.72574 0.09167 0.0
H549 H 0.81967 0.7306 0.19188 0.0
H550 H 0.81814 0.68605 1.00718 0.0
H551 H 0.84764 0.65459 0.96755 0.0
C552 C 0.44493 0.3625 0.67151 0.0
C553 C 0.43957 0.35343 0.59349 0.0
C554 C 0.39185 0.31251 0.63122 0.0
C555 C 0.40136 0.31717 0.70922 0.0
N556 N 0.4229 0.35831 0.80282 0.0
N557 N 0.3967 0.33491 0.50044 0.0
C558 C 0.42302 0.34652 0.72901 0.0
C559 C 0.40885 0.33368 0.5739 0.0
N560 N 0.47245 0.38445 0.69038 0.0
N561 N 0.36843 0.2863 0.61208 0.0
H562 H 0.40856 0.35173 0.46012 0.0
H563 H 0.37325 0.32259 0.48262 0.0
H564 H 0.35514 0.27154 0.65409 0.0
H565 H 0.36323 0.27876 0.55562 0.0
H566 H 0.48049 0.38918 0.7467 0.0
H567 H 0.48771 0.39703 0.64815 0.0
H568 H 0.43674 0.38078 0.82092 0.0
H569 H 0.40553 0.34736 0.8433 0.0
C570 C 0.42836 0.62751 0.4101 0.0
C571 C 0.41969 0.63975 0.48491 0.0
C572 C 0.37373 0.67885 0.43015 0.0
C573 C 0.38714 0.67168 0.35585 0.0
N574 N 0.41501 0.6295 0.27288 0.0
N575 N 0.37384 0.66305 0.56576 0.0
C576 C 0.40991 0.64205 0.34543 0.0
C577 C 0.38853 0.66058 0.49455 0.0
N578 N 0.45605 0.60434 0.40091 0.0
N579 N 0.34897 0.7051 0.43901 0.0
H580 H 0.38355 0.64744 0.61054 0.0
H581 H 0.3503 0.67667 0.57761 0.0
H582 H 0.33755 0.71777 0.39162 0.0
H583 H 0.34066 0.7147 0.49217 0.0
H584 H 0.46659 0.59725 0.34777 0.0
H585 H 0.46887 0.59268 0.44771 0.0
H586 H 0.4301 0.60705 0.25995 0.0
H587 H 0.40096 0.64026 0.22662 0.0
C588 C 0.10522 0.66635 0.14633 0.0
C589 C 0.09284 0.66189 0.22247 0.0
C590 C 0.04591 0.6218 0.17595 0.0
C591 C 0.0545 0.63131 0.09966 0.0
N592 N 0.10122 0.64705 1.01313 0.0
N593 N 0.06304 0.62346 0.31062 0.0
C594 C 0.08754 0.64814 0.08536 0.0
C595 C 0.0672 0.63516 0.23738 0.0
N596 N 0.13221 0.68972 0.13231 0.0
N597 N 0.01602 0.60215 0.18925 0.0
H598 H 0.07988 0.63263 0.3538 0.0
H599 H 0.04613 0.60274 0.32621 0.0
H600 H 0.00124 0.5914 0.14403 0.0
H601 H 0.00571 0.59734 0.2438 0.0
H602 H 0.14007 0.69731 0.07733 0.0
H603 H 0.14594 0.70212 0.17707 0.0
H604 H 0.12619 0.65712 0.99857 0.0
H605 H 0.08845 0.63249 0.97023 0.0
C606 C 0.0986 0.34372 0.82472 0.0
C607 C 0.11822 0.3114 0.82618 0.0
C608 C 0.11935 0.31387 0.96681 0.0
C609 C 0.09382 0.34183 0.9651 0.0
N610 N 0.07079 0.39211 0.89648 0.0
N611 N 0.15923 0.27458 0.89553 0.0
C612 C 0.08799 0.36015 0.89522 0.0
C613 C 0.13326 0.29998 0.89646 0.0
N614 N 0.08772 0.35668 0.75546 0.0
N615 N 0.12764 0.29881 0.03579 0.0
H616 H 0.16941 0.2645 0.84423 0.0
H617 H 0.17279 0.26595 0.94419 0.0
H618 H 0.11789 0.30925 0.08718 0.0
H619 H 0.14296 0.27594 0.04211 0.0
H620 H 0.07018 0.37788 0.74866 0.0
H621 H 0.0961 0.34499 0.70423 0.0
H622 H 0.06672 0.40784 0.84814 0.0
H623 H 0.06349 0.40437 0.94784 0.0
C624 C -0.00184 0.28246 0.28267 0.0
C625 C 0.96845 0.29296 0.23976 0.0
C626 C 0.94939 0.23289 0.22741 0.0
C627 C 0.986 0.22308 0.23666 0.0
N628 N 0.04202 0.23521 0.29698 0.0
N629 N 0.90696 0.28226 0.22655 0.0
C630 C 0.00871 0.24634 0.27738 0.0
C631 C 0.94007 0.2691 0.24017 0.0
N632 N 0.01674 0.30719 0.32218 0.0
N633 N 0.92693 0.21129 0.18801 0.0
H634 H 0.90325 0.30963 0.22117 0.0
H635 H 0.88428 0.26679 0.22042 0.0
H636 H 0.90141 0.21888 0.17141 0.0
H637 H 0.93516 0.18684 0.16682 0.0
H638 H 0.04025 0.30149 0.35075 0.0
H639 H 0.00694 0.33299 0.32814 0.0
H640 H 0.06235 0.2525 0.31294 0.0
H641 H 0.04923 0.20846 0.29188 0.0
C642 C 0.97696 0.68658 0.50442 0.0
C643 C 0.95375 0.71555 0.50326 0.0
C644 C 0.00165 0.75415 0.54158 0.0
C645 C 0.02434 0.73096 0.50066 0.0
N646 N 0.03473 0.67165 0.45301 0.0
N647 N 0.94076 0.76404 0.58612 0.0
C648 C 0.01353 0.69479 0.49165 0.0
C649 C 0.96505 0.74486 0.54634 0.0
N650 N 0.96299 0.6537 0.49337 0.0
N651 N 0.01389 0.78677 0.56222 0.0
H652 H 0.91459 0.75509 0.59133 0.0
H653 H 0.94704 0.78704 0.61589 0.0
H654 H 0.04093 0.79314 0.55731 0.0
H655 H -0.00288 0.80729 0.57917 0.0
H656 H 0.97814 0.63074 0.48831 0.0
H657 H 0.93541 0.65034 0.49022 0.0
H658 H 0.0264 0.64644 0.43642 0.0
H659 H 0.05964 0.67912 0.43261 0.0
C660 C 0.52131 0.71176 0.78674 0.0
C661 C 0.54993 0.7043 0.73765 0.0
C662 C 0.55867 0.76658 0.71621 0.0
C663 C 0.52126 0.7705 0.72991 0.0
N664 N 0.46878 0.74862 0.79358 0.0
N665 N 0.60792 0.72412 0.70653 0.0
C666 C 0.50371 0.74453 0.77505 0.0
C667 C 0.57411 0.73234 0.72846 0.0
N668 N 0.51011 0.68729 0.83863 0.0
N669 N 0.5765 0.79189 0.67582 0.0
H670 H 0.61548 0.69757 0.7006 0.0
H671 H 0.62746 0.74268 0.69314 0.0
H672 H 0.56419 0.81525 0.65822 0.0
H673 H 0.60273 0.78918 0.65745 0.0
H674 H 0.48963 0.69239 0.87768 0.0
H675 H 0.52367 0.66328 0.84525 0.0
H676 H 0.45392 0.72828 0.81827 0.0
H677 H 0.45495 0.77198 0.78072 0.0
C678 C 0.51283 0.30899 1.00234 0.0
C679 C 0.54286 0.28694 0.99908 0.0
C680 C 0.50519 0.23634 1.02023 0.0
C681 C 0.47859 0.25513 0.97895 0.0
N682 N 0.45587 0.31293 0.93983 0.0
N683 N 0.5632 0.24146 0.08324 0.0
C684 C 0.48041 0.29315 0.97794 0.0
C685 C 0.53749 0.25453 0.03664 0.0
N686 N 0.51678 0.34444 1.01379 0.0
N687 N 0.50104 0.20111 0.03453 0.0
H688 H 0.58617 0.25615 0.09436 0.0
H689 H 0.56081 0.21745 0.11198 0.0
H690 H 0.47701 0.18816 1.02278 0.0
H691 H 0.5217 0.18537 0.05494 0.0
H692 H 0.49507 0.36169 1.0175 0.0
H693 H 0.54194 0.35517 1.02509 0.0
H694 H 0.45813 0.3404 0.93401 0.0
H695 H 0.43545 0.30123 0.90862 0.0
C696 C 0.0167 0.77738 0.77688 0.0
C697 C 0.04748 0.77913 0.82213 0.0
C698 C 0.04802 0.71599 0.83549 0.0
C699 C 0.01037 0.71731 0.82395 0.0
N700 N 0.96126 0.74473 0.75945 0.0
N701 N 0.10278 0.75088 0.84321 0.0
C702 C 0.99601 0.74594 0.78171 0.0
C703 C 0.06768 0.74796 0.82514 0.0
N704 N 0.00656 0.80626 0.73621 0.0
N705 N 0.06265 0.68822 0.87399 0.0
H706 H 0.11404 0.77595 0.85108 0.0
H707 H 0.11998 0.72948 0.85019 0.0
H708 H 0.04737 0.66684 0.8923 0.0
H709 H 0.08913 0.68753 0.89139 0.0
H710 H 0.9827 0.80755 0.70645 0.0
H711 H 0.02356 0.82803 0.73061 0.0
H712 H 0.94706 0.76699 0.7415 0.0
H713 H 0.94659 0.72123 0.76427 0.0
C714 C 0.52992 0.73263 1.01997 0.0
C715 C 0.5348 0.69896 0.05222 0.0
C716 C 0.47235 0.69462 0.07747 0.0
C717 C 0.47261 0.73265 0.08433 0.0
N718 N 0.4999 0.78808 0.04612 0.0
N719 N 0.50763 0.64257 0.03981 0.0
C720 C 0.49994 0.75196 0.04607 0.0
C721 C 0.50396 0.67817 0.04855 0.0
N722 N 0.55334 0.7455 0.96764 0.0
N723 N 0.44751 0.67486 0.11513 0.0
H724 H 0.53253 0.63167 1.02733 0.0
H725 H 0.48658 0.62486 0.0438 0.0
H726 H 0.42757 0.68643 0.14823 0.0
H727 H 0.44867 0.64728 0.11906 0.0
H728 H 0.54904 0.76954 0.93923 0.0
H729 H 0.57521 0.73029 0.9501 0.0
H730 H 0.5218 0.80271 1.02728 0.0
H731 H 0.47823 0.8026 0.06709 0.0
C732 C 0.44009 0.24386 0.30208 0.0
C733 C 0.45861 0.21159 0.30413 0.0
C734 C 0.51348 0.24317 0.28514 0.0
C735 C 0.49753 0.27151 0.32674 0.0
N736 N 0.44225 0.29997 0.36697 0.0
N737 N 0.50157 0.1872 0.21879 0.0
C738 C 0.45942 0.27394 0.3276 0.0
C739 C 0.4916 0.21351 0.2671 0.0
N740 N 0.40424 0.24393 0.29288 0.0
N741 N 0.54916 0.24327 0.27122 0.0
H742 H 0.48431 0.16621 0.20632 0.0
H743 H 0.52568 0.18762 0.18978 0.0
H744 H 0.56466 0.26552 0.28423 0.0
H745 H 0.56278 0.2213 0.2496 0.0
H746 H 0.38928 0.26724 0.28909 0.0
H747 H 0.39088 0.22006 0.28425 0.0
H748 H 0.41461 0.30077 0.37227 0.0
H749 H 0.45589 0.31855 0.39957 0.0
C750 C 0.03429 0.2351 0.5102 0.0
C751 C 0.03582 0.204 0.55397 0.0
C752 C 0.97254 0.20321 0.56587 0.0
C753 C 0.97376 0.24096 0.55661 0.0
N754 N 0.00182 0.29072 0.49581 0.0
N755 N 0.00757 0.14839 0.56702 0.0
C756 C 0.00275 0.25579 0.51583 0.0
C757 C 0.00465 0.18382 0.55372 0.0
N758 N 0.06325 0.24518 0.46946 0.0
N759 N 0.94504 0.18796 0.60435 0.0
H760 H 0.03271 0.13684 0.57287 0.0
H761 H 0.98604 0.13123 0.57171 0.0
H762 H 0.92378 0.20282 0.62502 0.0
H763 H 0.94481 0.16135 0.62033 0.0
H764 H 0.06468 0.2691 0.44021 0.0
H765 H 0.08497 0.22807 0.4633 0.0
H766 H 0.02435 0.30481 0.47894 0.0
H767 H 0.97834 0.30552 0.50116 0.0
C768 C 0.02579 0.00511 0.08876 0.0
C769 C 0.99188 0.02197 0.08534 0.0
C770 C 0.97853 0.99191 0.96486 0.0
C771 C 0.01312 0.97659 0.96597 0.0
N772 N 0.07151 0.97139 1.022 0.0
N773 N 0.93861 0.03693 1.01586 0.0
C774 C 0.03728 0.98382 1.02618 0.0
C775 C 0.96906 0.01713 1.02184 0.0
N776 N 0.04671 0.0091 0.15247 0.0
N777 N 0.95441 0.98137 0.91058 0.0
H778 H 0.93108 0.05552 0.05729 0.0
H779 H 0.92255 0.03731 0.96714 0.0
H780 H 0.96029 0.9623 0.86892 0.0
H781 H 0.92772 0.98897 0.91084 0.0
H782 H 0.06943 0.99398 0.16313 0.0
H783 H 0.04051 0.0267 0.19679 0.0
H784 H 0.09174 0.97914 0.05926 0.0
H785 H 0.08025 0.95444 0.97845 0.0
C786 C 0.22748 0.70359 0.28626 0.0
C787 C 0.22467 0.72939 0.34475 0.0
C788 C 0.26341 0.76995 0.27319 0.0
C789 C 0.26922 0.74261 0.21885 0.0
N790 N 0.26089 0.68213 0.17657 0.0
N791 N 0.24033 0.78645 0.39821 0.0
C792 C 0.25224 0.70908 0.22594 0.0
C793 C 0.24267 0.76248 0.33936 0.0
N794 N 0.2063 0.67405 0.28838 0.0
N795 N 0.27662 0.80327 0.26002 0.0
H796 H 0.2233 0.78301 0.44503 0.0
H797 H 0.2563 0.80897 0.40249 0.0
H798 H 0.29286 0.80933 0.21316 0.0
H799 H 0.26997 0.82541 0.29289 0.0
H800 H 0.20438 0.65593 0.24341 0.0
H801 H 0.18815 0.6693 0.33265 0.0
H802 H 0.25209 0.65608 0.18315 0.0
H803 H 0.27949 0.68506 0.13243 0.0
C804 C 0.53102 0.01713 0.50811 0.0
C805 C 0.49805 0.019 0.46899 0.0
C806 C 0.47054 0.97892 0.56224 0.0
C807 C 0.50438 0.9744 0.59694 0.0
N808 N 0.56763 0.98543 0.6002 0.0
N809 N 0.43692 0.0007 0.45314 0.0
C810 C 0.53486 0.99263 0.56937 0.0
C811 C 0.46787 -0.00032 0.49459 0.0
N812 N 0.55851 0.03881 0.48654 0.0
N813 N 0.44086 0.96441 0.59548 0.0
H814 H 0.43327 0.01757 0.40622 0.0
H815 H 0.41547 0.98373 0.46279 0.0
H816 H 0.4419 0.94817 0.64397 0.0
H817 H 0.41494 0.97005 0.57795 0.0
H818 H 0.58206 0.04147 0.51755 0.0
H819 H 0.55662 0.05658 0.44074 0.0
H820 H 0.59147 -0.0048 0.57809 0.0
H821 H 0.57136 0.96714 0.64453 0.0
C822 C 0.25734 0.27122 0.79879 0.0
C823 C 0.27612 0.24342 0.83568 0.0
C824 C 0.25243 0.20014 0.7443 0.0
C825 C 0.23174 0.22754 0.71058 0.0
N826 N 0.21164 0.28849 0.70766 0.0
N827 N 0.28814 0.18083 0.8523 0.0
C828 C 0.23319 0.2629 0.73871 0.0
C829 C 0.27293 0.20769 0.81066 0.0
N830 N 0.2637 0.30569 0.81973 0.0
N831 N 0.25286 0.16699 0.71206 0.0
H832 H 0.30407 0.1852 0.90041 0.0
H833 H 0.28325 0.154 0.8423 0.0
H834 H 0.23616 0.15967 0.66686 0.0
H835 H 0.27106 0.14729 0.7272 0.0
H836 H 0.25357 0.32765 0.79074 0.0
H837 H 0.28173 0.31253 0.86288 0.0
H838 H 0.20828 0.31367 0.73125 0.0
H839 H 0.19499 0.28392 0.6608 0.0
C840 C 0.75113 0.22229 0.79489 0.0
C841 C 0.7326 0.24924 0.83522 0.0
C842 C 0.75599 0.29453 0.7481 0.0
C843 C 0.77625 0.26783 0.71066 0.0
N844 N 0.79667 0.20712 0.70162 0.0
N845 N 0.72078 0.31134 0.85902 0.0
C846 C 0.77508 0.23195 0.73539 0.0
C847 C 0.73581 0.2855 0.81416 0.0
N848 N 0.74468 0.18738 0.81194 0.0
N849 N 0.75555 0.32838 0.71947 0.0
H850 H 0.70503 0.30578 0.90689 0.0
H851 H 0.72561 0.33837 0.85183 0.0
H852 H 0.77196 0.33657 0.67441 0.0
H853 H 0.73767 0.34784 0.7375 0.0
H854 H 0.75455 0.16616 0.78005 0.0
H855 H 0.72677 0.17954 0.8546 0.0
H856 H 0.80016 0.18149 0.72275 0.0
H857 H 0.81327 0.21276 0.65518 0.0
C858 C 0.76705 0.72939 0.32651 0.0
C859 C 0.76873 0.7657 0.34824 0.0
C860 C 0.72364 0.78087 0.25222 0.0
C861 C 0.72508 0.74545 0.22493 0.0
N862 N 0.74988 0.6864 0.22991 0.0
N863 N 0.75199 0.82682 0.32827 0.0
C864 C 0.74724 0.71978 0.26044 0.0
C865 C 0.74774 0.79167 0.31043 0.0
N866 N 0.78289 0.70391 0.37098 0.0
N867 N 0.69937 0.80416 0.22212 0.0
H868 H 0.76992 0.83565 0.36991 0.0
H869 H 0.74017 0.84747 0.29773 0.0
H870 H 0.68205 0.7974 0.17765 0.0
H871 H 0.69426 0.82917 0.24517 0.0
H872 H 0.77924 0.67676 0.36266 0.0
H873 H 0.79764 0.70974 0.42007 0.0
H874 H 0.76916 0.66804 0.24666 0.0
H875 H 0.73393 0.6777 0.18457 0.0
C876 C 0.53246 0.49619 0.58077 0.0
C877 C 0.50014 0.51475 0.59467 0.0
C878 C 0.47366 0.48954 0.479 0.0
C879 C 0.50658 0.47258 0.46265 0.0
N880 N 0.56897 0.46366 0.48966 0.0
N881 N 0.44202 0.53405 0.55325 0.0
C882 C 0.53648 0.47683 0.51137 0.0
C883 C 0.47138 0.51306 0.54237 0.0
N884 N 0.55909 0.49685 0.63438 0.0
N885 N 0.44426 0.48198 0.43552 0.0
H886 H 0.43913 0.55087 0.60047 0.0
H887 H 0.42187 0.53705 0.51269 0.0
H888 H 0.44484 0.46425 0.38945 0.0
H889 H 0.41865 0.4907 0.44888 0.0
H890 H 0.58151 0.48056 0.63217 0.0
H891 H 0.55799 0.51262 0.68361 0.0
H892 H 0.59266 0.46921 0.51834 0.0
H893 H 0.57274 0.44876 0.4398 0.0
C894 C 0.02436 0.51691 0.97584 0.0
C895 C 0.98702 0.5225 0.97038 0.0
C896 C 0.97646 0.48238 0.07817 0.0
C897 C 0.01392 0.47762 0.0855 0.0
N898 N 0.07391 0.49308 0.04914 0.0
N899 N 0.92795 0.51632 1.02169 0.0
C900 C 0.03801 0.49575 0.03658 0.0
C901 C 0.96316 0.50685 1.02315 0.0
N902 N 0.04657 0.53092 0.92134 0.0
N903 N 0.95363 0.46342 0.12369 0.0
H904 H 0.91776 0.53461 0.98232 0.0
H905 H 0.90944 0.50869 0.06304 0.0
H906 H 0.96226 0.44637 0.1669 0.0
H907 H 0.92617 0.46254 0.1155 0.0
H908 H 0.07342 0.52437 0.91619 0.0
H909 H 0.03774 0.54812 0.87841 0.0
H910 H 0.09283 0.50891 1.02191 0.0
H911 H 0.08487 0.47599 0.09001 0.0
C912 C 0.0939 0.13113 0.32226 0.0
C913 C 0.06606 0.11013 0.35333 0.0
C914 C 0.09398 0.11816 0.48079 0.0
C915 C 0.1148 0.14641 0.45112 0.0
N916 N 0.12967 0.18314 0.34144 0.0
N917 N 0.04 0.08356 0.46867 0.0
C918 C 0.11376 0.1536 0.37112 0.0
C919 C 0.06642 0.10295 0.43436 0.0
N920 N 0.10208 0.12907 0.24606 0.0
N921 N 0.10059 0.10596 0.55328 0.0
H922 H 0.01742 0.07407 0.44135 0.0
H923 H 0.03862 0.07911 0.52756 0.0
H924 H 0.12066 0.11662 0.58778 0.0
H925 H 0.08896 0.08314 0.57596 0.0
H926 H 0.12392 0.14222 0.22226 0.0
H927 H 0.09012 0.11054 0.20971 0.0
H928 H 0.12623 0.19112 0.28456 0.0
H929 H 0.14287 0.2016 0.37518 0.0
C930 C 0.12246 0.84039 0.58578 0.0
C931 C 0.13915 0.81 0.61745 0.0
C932 C 0.13128 0.83695 0.74573 0.0
C933 C 0.10594 0.86098 0.71487 0.0
N934 N 0.07819 0.88599 0.60059 0.0
N935 N 0.16194 0.78062 0.73208 0.0
C936 C 0.1021 0.86325 0.63354 0.0
C937 C 0.14496 0.80885 0.69873 0.0
N938 N 0.12763 0.8486 0.51027 0.0
N939 N 0.14232 0.84139 0.81984 0.0
H940 H 0.16857 0.7573 0.70381 0.0
H941 H 0.1675 0.77876 0.79037 0.0
H942 H 0.13306 0.86221 0.8541 0.0
H943 H 0.16318 0.8272 0.84459 0.0
H944 H 0.11927 0.8726 0.48647 0.0
H945 H 0.1445 0.83384 0.47478 0.0
H946 H 0.07092 0.88426 0.54292 0.0
H947 H 0.06394 0.90528 0.63012 0.0
C948 C 0.37673 0.86216 0.94594 0.0
C949 C 0.38821 0.82815 0.97123 0.0
C950 C 0.44228 0.83342 0.89325 0.0
C951 C 0.4291 0.8655 0.86136 0.0
N952 N 0.38239 0.90912 0.8506 0.0
N953 N 0.42802 0.77801 0.95479 0.0
C954 C 0.39593 0.87968 0.88602 0.0
C955 C 0.41991 0.81284 0.94092 0.0
N956 N 0.3482 0.87804 0.9807 0.0
N957 N 0.47666 0.82297 0.87953 0.0
H958 H 0.412 0.76089 0.98617 0.0
H959 H 0.44918 0.76465 0.92955 0.0
H960 H 0.49472 0.83776 0.84761 0.0
H961 H 0.48861 0.80088 0.90427 0.0
H962 H 0.34046 0.90416 0.97011 0.0
H963 H 0.33394 0.86593 1.02499 0.0
H964 H 0.35679 0.91881 0.86045 0.0
H965 H 0.39593 0.92239 0.80679 0.0
C966 C 0.41585 0.11492 0.11587 0.0
C967 C 0.41126 0.11671 0.19707 0.0
C968 C 0.36431 0.16163 0.18022 0.0
C969 C 0.37123 0.16189 0.09917 0.0
N970 N 0.3893 0.12602 0.99195 0.0
N971 N 0.37117 0.12951 0.30082 0.0
C972 C 0.39258 0.13454 0.06774 0.0
C973 C 0.38205 0.13605 0.22725 0.0
N974 N 0.44299 0.0959 0.08342 0.0
N975 N 0.34253 0.18635 0.21381 0.0
H976 H 0.38339 0.11032 0.33523 0.0
H977 H 0.34779 0.13966 0.32445 0.0
H978 H 0.33076 0.20764 0.18592 0.0
H979 H 0.33829 0.18796 0.27275 0.0
H980 H 0.45046 0.09897 1.02612 0.0
H981 H 0.45915 0.07815 0.11277 0.0
H982 H 0.40148 0.10375 0.96791 0.0
H983 H 0.37057 0.13827 0.95638 0.0
C984 C 0.89026 0.84106 0.68565 0.0
C985 C 0.89573 0.8411 0.60391 0.0
C986 C 0.95348 0.87054 0.62499 0.0
C987 C 0.94739 0.87216 0.70579 0.0
N988 N 0.90467 0.86814 0.80845 0.0
N989 N 0.92703 0.86801 0.49846 0.0
C990 C 0.91421 0.86011 0.73471 0.0
C991 C 0.92561 0.85969 0.57459 0.0
N992 N 0.86328 0.82189 0.71814 0.0
N993 N 0.98665 0.87693 0.59599 0.0
H994 H 0.90625 0.86205 0.46081 0.0
H995 H 0.94646 0.88472 0.47551 0.0
H996 H 0.00866 0.88106 0.63094 0.0
H997 H 0.99321 0.87318 0.53838 0.0
H998 H 0.8619 0.81681 0.7769 0.0
H999 H 0.84349 0.80885 0.68769 0.0
H1000 H 0.87919 0.86365 0.83025 0.0
H1001 H 0.92085 0.8829 0.8452 0.0
C1002 C 0.88916 0.16203 0.47272 0.0
C1003 C 0.87394 0.19318 0.44088 0.0
C1004 C 0.88368 0.1664 0.31302 0.0
C1005 C 0.90918 0.14282 0.34436 0.0
N1006 N 0.93405 0.11628 0.45931 0.0
N1007 N 0.85408 0.22321 0.32498 0.0
C1008 C 0.91103 0.13971 0.42588 0.0
C1009 C 0.86992 0.19468 0.35926 0.0
N1010 N 0.88079 0.15262 0.54617 0.0
N1011 N 0.87145 0.16062 0.24037 0.0
H1012 H 0.84799 0.24671 0.35347 0.0
H1013 H 0.84947 0.22467 0.26623 0.0
H1014 H 0.88026 0.13915 0.20747 0.0
H1015 H 0.85006 0.17438 0.2165 0.0
H1016 H 0.88778 0.12822 0.57011 0.0
H1017 H 0.86332 0.16761 0.57981 0.0
H1018 H 0.93587 0.11296 0.51842 0.0
H1019 H 0.953 0.10176 0.42889 0.0
C1020 C 0.58847 0.14451 0.06885 0.0
C1021 C 0.61547 0.16717 0.09742 0.0
C1022 C 0.60001 0.14706 0.2293 0.0
C1023 C 0.56908 0.13011 0.20088 0.0
N1024 N 0.53127 0.11722 0.09205 0.0
N1025 N 0.64673 0.19004 0.20989 0.0
C1026 C 0.56286 0.12966 0.1201 0.0
C1027 C 0.62146 0.16821 0.17897 0.0
N1028 N 0.58794 0.13608 0.99267 0.0
N1029 N 0.60993 0.14167 0.30392 0.0
H1030 H 0.66571 0.20379 0.17846 0.0
H1031 H 0.64774 0.19616 0.26819 0.0
H1032 H 0.59529 0.12591 0.3418 0.0
H1033 H 0.63442 0.14967 0.32615 0.0
H1034 H 0.57118 0.1167 0.96987 0.0
H1035 H 0.60729 0.14519 0.95437 0.0
H1036 H 0.52398 0.11906 0.03447 0.0
H1037 H 0.51051 0.10924 0.12756 0.0
C1038 C 0.60777 0.83519 0.82756 0.0
C1039 C 0.57819 0.85475 0.85476 0.0
C1040 C 0.59269 0.83441 0.98562 0.0
C1041 C 0.61615 0.80826 0.95573 0.0
N1042 N 0.64215 0.78147 0.84174 0.0
N1043 N 0.54027 0.87016 0.96287 0.0
C1044 C 0.62299 0.80821 0.87488 0.0
C1045 C 0.57011 0.8538 0.93482 0.0
N1046 N 0.62191 0.84294 0.7573 0.0
N1047 N 0.59318 0.84224 0.06206 0.0
H1048 H 0.522 0.88368 0.92869 0.0
H1049 H 0.53188 0.86739 1.01964 0.0
H1050 H 0.61087 0.83022 0.10028 0.0
H1051 H 0.57941 0.86384 0.08506 0.0
H1052 H 0.64581 0.83209 0.73764 0.0
H1053 H 0.61149 0.86285 0.72211 0.0
H1054 H 0.64743 0.78042 0.78319 0.0
H1055 H 0.64939 0.75838 0.8705 0.0
C1056 C 0.61303 0.62677 0.82567 0.0
C1057 C 0.58533 0.60585 0.85742 0.0
C1058 C 0.60908 0.61951 0.98603 0.0
C1059 C 0.62793 0.64877 0.9548 0.0
N1060 N 0.65233 0.67723 0.84105 0.0
N1061 N 0.56599 0.5724 0.96923 0.0
C1062 C 0.63187 0.65118 0.8734 0.0
C1063 C 0.58625 0.59884 0.93802 0.0
N1064 N 0.62204 0.622 0.75045 0.0
N1065 N 0.61518 0.61001 0.06055 0.0
H1066 H 0.55697 0.55068 0.93792 0.0
H1067 H 0.55998 0.57084 1.02753 0.0
H1068 H 0.63365 0.62328 0.09494 0.0
H1069 H 0.60533 0.5869 0.08558 0.0
H1070 H 0.64405 0.63378 0.72446 0.0
H1071 H 0.61011 0.60229 0.71701 0.0
H1072 H 0.65667 0.67982 0.78249 0.0
H1073 H 0.66427 0.69769 0.87141 0.0
C1074 C 0.61967 0.33838 0.23995 0.0
C1075 C 0.60189 0.3689 0.21215 0.0
C1076 C 0.62673 0.35611 0.08346 0.0
C1077 C 0.63607 0.32152 0.10884 0.0
N1078 N 0.63635 0.27825 0.21168 0.0
N1079 N 0.59658 0.41179 0.10846 0.0
C1080 C 0.63176 0.31241 0.18749 0.0
C1081 C 0.60801 0.37949 0.13424 0.0
N1082 N 0.62546 0.33449 0.31678 0.0
N1083 N 0.63718 0.36709 1.01202 0.0
H1084 H 0.59246 0.43337 0.14474 0.0
H1085 H 0.59321 0.41778 0.05055 0.0
H1086 H 0.65185 0.35099 0.9748 0.0
H1087 H 0.63415 0.39293 0.99179 0.0
H1088 H 0.64068 0.31391 0.33992 0.0
H1089 H 0.61896 0.35458 0.35556 0.0
H1090 H 0.63066 0.26985 0.26738 0.0
H1091 H 0.64151 0.25757 0.17392 0.0
C1092 C 0.94351 0.38853 0.43227 0.0
C1093 C 0.93904 0.38857 0.35078 0.0
C1094 C 0.88375 0.35391 0.36582 0.0
C1095 C 0.88945 0.35243 0.44692 0.0
N1096 N 0.91517 0.38177 0.55599 0.0
N1097 N 0.89752 0.38441 0.24607 0.0
C1098 C 0.91641 0.37388 0.47954 0.0
C1099 C 0.90659 0.37558 0.31963 0.0
N1100 N 0.97384 0.40112 0.46594 0.0
N1101 N 0.85804 0.33355 0.33178 0.0
H1102 H 0.91322 0.40114 0.21232 0.0
H1103 H 0.87284 0.37875 0.22171 0.0
H1104 H 0.84317 0.31434 0.36006 0.0
H1105 H 0.85298 0.3334 0.2731 0.0
H1106 H 0.98065 0.39527 0.5226 0.0
H1107 H 0.99275 0.41665 0.43862 0.0
H1108 H 0.93205 0.40025 0.58167 0.0
H1109 H 0.89429 0.37336 0.59117 0.0
C1110 C 0.892 0.6307 0.63378 0.0
C1111 C 0.89559 0.63826 0.71406 0.0
C1112 C 0.86877 0.69675 0.69256 0.0
C1113 C 0.86296 0.68859 0.6139 0.0
N1114 N 0.85959 0.64357 0.51604 0.0
N1115 N 0.87411 0.67321 0.82065 0.0
C1116 C 0.8713 0.65404 0.58675 0.0
C1117 C 0.87945 0.6695 0.74358 0.0
N1118 N 0.91005 0.60313 0.60046 0.0
N1119 N 0.86692 0.73095 0.71824 0.0
H1120 H 0.87988 0.65284 0.85923 0.0
H1121 H 0.86005 0.69446 0.84439 0.0
H1122 H 0.86247 0.75233 0.68188 0.0
H1123 H 0.87434 0.73838 0.77365 0.0
H1124 H 0.90963 0.59807 0.5417 0.0
H1125 H 0.92858 0.58732 0.62859 0.0
H1126 H 0.86195 0.61759 0.49596 0.0
H1127 H 0.84416 0.65994 0.4809 0.0
C1128 C 0.45402 0.32194 0.17144 0.0
C1129 C 0.44235 0.35485 0.20213 0.0
C1130 C 0.38809 0.35033 0.12263 0.0
C1131 C 0.39804 0.31538 0.10006 0.0
N1132 N 0.4356 0.26447 0.12412 0.0
N1133 N 0.39515 0.39793 0.2158 0.0
C1134 C 0.42956 0.30014 0.13086 0.0
C1135 C 0.40844 0.36844 0.18015 0.0
N1136 N 0.48891 0.31199 0.17817 0.0
N1137 N 0.36002 0.36674 0.08745 0.0
H1138 H 0.40897 0.41136 0.25889 0.0
H1139 H 0.3692 0.40707 0.20771 0.0
H1140 H 0.34505 0.35456 0.04443 0.0
H1141 H 0.35368 0.3934 0.09597 0.0
H1142 H 0.49912 0.28894 0.15363 0.0
H1143 H 0.50843 0.32816 0.20249 0.0
H1144 H 0.45744 0.25178 0.1486 0.0
H1145 H 0.41721 0.24692 0.10022 0.0
C1146 C 0.39568 0.64495 0.98037 0.0
C1147 C 0.38441 0.67927 0.95796 0.0
C1148 C 0.40825 0.66789 0.82794 0.0
C1149 C 0.42539 0.63634 0.85427 0.0
N1150 N 0.43851 0.59772 0.96285 0.0
N1151 N 0.38143 0.72462 0.85962 0.0
C1152 C 0.41961 0.62539 0.93229 0.0
C1153 C 0.39094 0.69098 0.88141 0.0
N1154 N 0.38315 0.63081 0.04746 0.0
N1155 N 0.40703 0.67528 0.75121 0.0
H1156 H 0.36815 0.74248 0.89522 0.0
H1157 H 0.38917 0.73614 0.80788 0.0
H1158 H 0.41823 0.65888 0.70974 0.0
H1159 H 0.3916 0.69554 0.72766 0.0
H1160 H 0.38689 0.60438 0.06324 0.0
H1161 H 0.36599 0.64463 0.08403 0.0
H1162 H 0.43595 0.58934 1.01954 0.0
H1163 H 0.46067 0.58638 0.93657 0.0
C1164 C 0.08062 0.62841 0.57677 0.0
C1165 C 0.10423 0.65369 0.6086 0.0
C1166 C 0.08492 0.63316 0.73631 0.0
C1167 C 0.05359 0.61831 0.70428 0.0
N1168 N 0.0233 0.59963 0.58754 0.0
N1169 N 0.1302 0.67842 0.72425 0.0
C1170 C 0.05207 0.61476 0.62252 0.0
C1171 C 0.10715 0.65531 0.69012 0.0
N1172 N 0.0866 0.61627 0.50414 0.0
N1173 N 0.09467 0.62422 0.80922 0.0
H1174 H 0.14492 0.69726 0.6942 0.0
H1175 H 0.13277 0.68047 0.7835 0.0
H1176 H 0.07988 0.60641 0.84236 0.0
H1177 H 0.11922 0.63113 0.83287 0.0
H1178 H 0.07276 0.59503 0.48007 0.0
H1179 H 0.10835 0.6249 0.47171 0.0
H1180 H 0.02187 0.59565 0.52855 0.0
H1181 H -0.00046 0.59375 0.61545 0.0
C1182 C 0.11898 0.32739 0.31113 0.0
C1183 C 0.09333 0.35141 0.34023 0.0
C1184 C 0.1095 0.33223 0.47161 0.0
C1185 C 0.12995 0.30349 0.44242 0.0
N1186 N 0.15164 0.27292 0.3275 0.0
N1187 N 0.05988 0.37184 0.4504 0.0
C1188 C 0.1343 0.30098 0.36035 0.0
C1189 C 0.08765 0.35272 0.42117 0.0
N1190 N 0.12999 0.33064 0.23669 0.0
N1191 N 0.11189 0.34109 0.54741 0.0
H1192 H 0.0421 0.38561 0.41576 0.0
H1193 H 0.05223 0.37062 0.5079 0.0
H1194 H 0.12927 0.3283 0.58513 0.0
H1195 H 0.10021 0.36396 0.57001 0.0
H1196 H 0.15173 0.3168 0.21432 0.0
H1197 H 0.11991 0.35001 0.19971 0.0
H1198 H 0.14987 0.26716 0.26908 0.0
H1199 H 0.16637 0.25418 0.35713 0.0
loop_
_geom_bond_atom_site_label_1
_geom_bond_atom_site_label_2
_geom_bond_distance
_geom_bond_site_symmetry_2
_ccdc_geom_bond_type
O0 Mn1 2.163 . S
O0 C14 1.244 1_554 S
Mn1 O0 2.163 . S
Mn1 O4 2.160 1_455 S
Mn1 O5 2.221 1_455 S
Mn1 O7 2.163 . S
Mn1 O9 2.160 1_455 S
Mn1 O19 2.221 . S
O2 Mn3 2.087 . S
O2 C14 1.256 . S
Mn3 O2 2.087 . S
Mn3 O10 2.089 1_455 S
Mn3 O19 2.291 1_556 S
Mn3 O20 2.251 1_556 S
O4 Mn1 2.160 1_655 S
O4 C15 1.239 . S
O5 Mn1 2.221 1_655 S
O5 Mn6 2.290 1_655 S
O5 C16 1.279 1_655 S
Mn6 O5 2.290 1_455 S
Mn6 O8 2.089 1_455 S
Mn6 O11 2.251 . S
Mn6 O12 2.087 . S
O7 Mn1 2.163 . S
O7 C17 1.244 . S
O8 Mn6 2.089 1_655 S
O8 C15 1.256 . S
O9 Mn1 2.160 1_655 S
O9 C18 1.239 1_554 S
O10 Mn3 2.089 1_655 S
O10 C18 1.256 . S
O11 Mn6 2.251 . S
O11 C16 1.241 . S
O12 Mn6 2.087 . S
O12 C17 1.256 . S
C13 O19 1.281 . S
C13 O20 1.241 . S
C14 O0 1.244 1_556 S
C14 O2 1.256 . S
C15 O4 1.239 . S
C15 O8 1.256 . S
C16 O5 1.279 1_455 S
C16 O11 1.241 . S
C17 O7 1.244 . S
C17 O12 1.256 . S
C18 O9 1.239 1_556 S
C18 O10 1.256 . S
O19 Mn1 2.221 . S
O19 Mn3 2.291 1_554 S
O19 C13 1.281 . S
O20 Mn3 2.251 1_554 S
O20 C13 1.241 . S
O21 Mn22 2.163 . S
O21 C35 1.244 . S
Mn22 O21 2.163 . S
Mn22 O25 2.160 . S
Mn22 O26 2.221 . S
Mn22 O28 2.163 . S
Mn22 O30 2.160 . S
Mn22 O40 2.221 . S
O23 Mn24 2.087 . S
O23 C35 1.256 . S
Mn24 O23 2.087 . S
Mn24 O31 2.089 . S
Mn24 O40 2.290 . S
Mn24 O41 2.251 . S
O25 Mn22 2.160 . S
O25 C36 1.239 . S
O26 Mn22 2.221 . S
O26 Mn27 2.290 . S
O26 C37 1.278 . S
Mn27 O26 2.290 . S
Mn27 O29 2.089 . S
Mn27 O32 2.251 . S
Mn27 O33 2.087 . S
O28 Mn22 2.163 . S
O28 C38 1.244 . S
O29 Mn27 2.089 . S
O29 C36 1.256 . S
O30 Mn22 2.160 . S
O30 C39 1.239 . S
O31 Mn24 2.089 . S
O31 C39 1.256 . S
O32 Mn27 2.251 . S
O32 C37 1.241 . S
O33 Mn27 2.087 . S
O33 C38 1.256 . S
C34 O40 1.278 . S
C34 O41 1.241 . S
C35 O21 1.244 . S
C35 O23 1.256 . S
C36 O25 1.239 . S
C36 O29 1.256 . S
C37 O26 1.278 . S
C37 O32 1.241 . S
C38 O28 1.244 . S
C38 O33 1.256 . S
C39 O30 1.239 . S
C39 O31 1.256 . S
O40 Mn22 2.221 . S
O40 Mn24 2.290 . S
O40 C34 1.278 . S
O41 Mn24 2.251 . S
O41 C34 1.241 . S
O42 Mn43 2.163 . S
O42 C56 1.244 . S
Mn43 O42 2.163 . S
Mn43 O46 2.160 . S
Mn43 O47 2.221 . S
Mn43 O49 2.163 . S
Mn43 O51 2.160 . S
Mn43 O61 2.221 . S
O44 Mn45 2.087 . S
O44 C56 1.256 . S
Mn45 O44 2.087 . S
Mn45 O52 2.089 . S
Mn45 O61 2.290 . S
Mn45 O62 2.251 . S
O46 Mn43 2.160 . S
O46 C57 1.239 . S
O47 Mn43 2.221 . S
O47 Mn48 2.290 . S
O47 C58 1.278 . S
Mn48 O47 2.290 . S
Mn48 O50 2.089 . S
Mn48 O53 2.251 . S
Mn48 O54 2.087 . S
O49 Mn43 2.163 . S
O49 C59 1.244 . S
O50 Mn48 2.089 . S
O50 C57 1.256 . S
O51 Mn43 2.160 . S
O51 C60 1.239 . S
O52 Mn45 2.089 . S
O52 C60 1.256 . S
O53 Mn48 2.251 . S
O53 C58 1.241 . S
O54 Mn48 2.087 . S
O54 C59 1.256 . S
C55 O61 1.278 . S
C55 O62 1.241 . S
C56 O42 1.244 . S
C56 O44 1.256 . S
C57 O46 1.239 . S
C57 O50 1.256 . S
C58 O47 1.278 . S
C58 O53 1.241 . S
C59 O49 1.244 . S
C59 O54 1.256 . S
C60 O51 1.239 . S
C60 O52 1.256 . S
O61 Mn43 2.221 . S
O61 Mn45 2.290 . S
O61 C55 1.278 . S
O62 Mn45 2.251 . S
O62 C55 1.241 . S
O63 Mn64 2.163 . S
O63 C77 1.244 . S
Mn64 O63 2.163 . S
Mn64 O67 2.160 . S
Mn64 O68 2.221 . S
Mn64 O70 2.163 . S
Mn64 O72 2.160 . S
Mn64 O82 2.221 . S
O65 Mn66 2.087 . S
O65 C77 1.256 . S
Mn66 O65 2.087 . S
Mn66 O73 2.089 . S
Mn66 O82 2.290 . S
Mn66 O83 2.251 . S
O67 Mn64 2.160 . S
O67 C78 1.239 1_556 S
O68 Mn64 2.221 . S
O68 Mn69 2.290 1_556 S
O68 C79 1.278 . S
Mn69 O68 2.290 1_554 S
Mn69 O71 2.089 . S
Mn69 O74 2.251 1_554 S
Mn69 O75 2.087 . S
O70 Mn64 2.163 . S
O70 C80 1.244 1_556 S
O71 Mn69 2.089 . S
O71 C78 1.256 . S
O72 Mn64 2.160 . S
O72 C81 1.239 . S
O73 Mn66 2.089 . S
O73 C81 1.256 . S
O74 Mn69 2.251 1_556 S
O74 C79 1.241 . S
O75 Mn69 2.087 . S
O75 C80 1.256 . S
C76 O82 1.278 . S
C76 O83 1.241 . S
C77 O63 1.244 . S
C77 O65 1.256 . S
C78 O67 1.239 1_554 S
C78 O71 1.256 . S
C79 O68 1.278 . S
C79 O74 1.241 . S
C80 O70 1.244 1_554 S
C80 O75 1.256 . S
C81 O72 1.239 . S
C81 O73 1.256 . S
O82 Mn64 2.221 . S
O82 Mn66 2.290 . S
O82 C76 1.278 . S
O83 Mn66 2.251 . S
O83 C76 1.241 . S
O84 Mn85 2.163 . S
O84 C98 1.244 1_556 S
Mn85 O84 2.163 . S
Mn85 O88 2.160 1_455 S
Mn85 O89 2.221 1_455 S
Mn85 O91 2.163 . S
Mn85 O93 2.160 1_455 S
Mn85 O103 2.221 . S
O86 Mn87 2.087 . S
O86 C98 1.256 . S
Mn87 O86 2.087 . S
Mn87 O94 2.089 1_455 S
Mn87 O103 2.291 1_554 S
Mn87 O104 2.251 1_554 S
O88 Mn85 2.160 1_655 S
O88 C99 1.239 . S
O89 Mn85 2.221 1_655 S
O89 Mn90 2.290 1_655 S
O89 C100 1.279 1_655 S
Mn90 O89 2.290 1_455 S
Mn90 O92 2.089 1_455 S
Mn90 O95 2.251 . S
Mn90 O96 2.087 . S
O91 Mn85 2.163 . S
O91 C101 1.244 . S
O92 Mn90 2.089 1_655 S
O92 C99 1.256 . S
O93 Mn85 2.160 1_655 S
O93 C102 1.239 1_556 S
O94 Mn87 2.089 1_655 S
O94 C102 1.256 . S
O95 Mn90 2.251 . S
O95 C100 1.241 . S
O96 Mn90 2.087 . S
O96 C101 1.256 . S
C97 O103 1.281 . S
C97 O104 1.241 . S
C98 O84 1.244 1_554 S
C98 O86 1.256 . S
C99 O88 1.239 . S
C99 O92 1.256 . S
C100 O89 1.279 1_455 S
C100 O95 1.241 . S
C101 O91 1.244 . S
C101 O96 1.256 . S
C102 O93 1.239 1_554 S
C102 O94 1.256 . S
O103 Mn85 2.221 . S
O103 Mn87 2.291 1_556 S
O103 C97 1.281 . S
O104 Mn87 2.251 1_556 S
O104 C97 1.241 . S
O105 Mn106 2.163 . S
O105 C119 1.244 . S
Mn106 O105 2.163 . S
Mn106 O109 2.160 . S
Mn106 O110 2.221 . S
Mn106 O112 2.163 . S
Mn106 O114 2.160 . S
Mn106 O124 2.221 . S
O107 Mn108 2.087 . S
O107 C119 1.256 . S
Mn108 O107 2.087 . S
Mn108 O115 2.089 . S
Mn108 O124 2.290 . S
Mn108 O125 2.251 . S
O109 Mn106 2.160 . S
O109 C120 1.239 1_554 S
O110 Mn106 2.221 . S
O110 Mn111 2.290 1_554 S
O110 C121 1.278 . S
Mn111 O110 2.290 1_556 S
Mn111 O113 2.089 . S
Mn111 O116 2.251 1_556 S
Mn111 O117 2.087 . S
O112 Mn106 2.163 . S
O112 C122 1.244 1_554 S
O113 Mn111 2.089 . S
O113 C120 1.256 . S
O114 Mn106 2.160 . S
O114 C123 1.239 . S
O115 Mn108 2.089 . S
O115 C123 1.256 . S
O116 Mn111 2.251 1_554 S
O116 C121 1.241 . S
O117 Mn111 2.087 . S
O117 C122 1.256 . S
C118 O124 1.278 . S
C118 O125 1.241 . S
C119 O105 1.244 . S
C119 O107 1.256 . S
C120 O109 1.239 1_556 S
C120 O113 1.256 . S
C121 O110 1.278 . S
C121 O116 1.241 . S
C122 O112 1.244 1_556 S
C122 O117 1.256 . S
C123 O114 1.239 . S
C123 O115 1.256 . S
O124 Mn106 2.221 . S
O124 Mn108 2.290 . S
O124 C118 1.278 . S
O125 Mn108 2.251 . S
O125 C118 1.241 . S
O126 Mn127 2.163 . S
O126 C140 1.244 . S
Mn127 O126 2.163 . S
Mn127 O130 2.160 . S
Mn127 O131 2.221 . S
Mn127 O133 2.163 . S
Mn127 O135 2.160 . S
Mn127 O145 2.221 . S
O128 Mn129 2.087 . S
O128 C140 1.256 . S
Mn129 O128 2.087 . S
Mn129 O136 2.089 . S
Mn129 O145 2.290 . S
Mn129 O146 2.251 . S
O130 Mn127 2.160 . S
O130 C141 1.239 . S
O131 Mn127 2.221 . S
O131 Mn132 2.290 . S
O131 C142 1.278 . S
Mn132 O131 2.290 . S
Mn132 O134 2.089 . S
Mn132 O137 2.251 . S
Mn132 O138 2.087 . S
O133 Mn127 2.163 . S
O133 C143 1.244 . S
O134 Mn132 2.089 . S
O134 C141 1.256 . S
O135 Mn127 2.160 . S
O135 C144 1.239 . S
O136 Mn129 2.089 . S
O136 C144 1.256 . S
O137 Mn132 2.251 . S
O137 C142 1.241 . S
O138 Mn132 2.087 . S
O138 C143 1.256 . S
C139 O145 1.278 . S
C139 O146 1.241 . S
C140 O126 1.244 . S
C140 O128 1.256 . S
C141 O130 1.239 . S
C141 O134 1.256 . S
C142 O131 1.278 . S
C142 O137 1.241 . S
C143 O133 1.244 . S
C143 O138 1.256 . S
C144 O135 1.239 . S
C144 O136 1.256 . S
O145 Mn127 2.221 . S
O145 Mn129 2.290 . S
O145 C139 1.278 . S
O146 Mn129 2.251 . S
O146 C139 1.241 . S
O147 Mn148 2.163 . S
O147 C161 1.244 . S
Mn148 O147 2.163 . S
Mn148 O151 2.160 . S
Mn148 O152 2.221 . S
Mn148 O154 2.163 . S
Mn148 O156 2.160 . S
Mn148 O166 2.221 . S
O149 Mn150 2.087 . S
O149 C161 1.256 . S
Mn150 O149 2.087 . S
Mn150 O157 2.089 . S
Mn150 O166 2.290 . S
Mn150 O167 2.251 . S
O151 Mn148 2.160 . S
O151 C162 1.239 . S
O152 Mn148 2.221 . S
O152 Mn153 2.290 . S
O152 C163 1.278 . S
Mn153 O152 2.290 . S
Mn153 O155 2.089 . S
Mn153 O158 2.251 . S
Mn153 O159 2.087 . S
O154 Mn148 2.163 . S
O154 C164 1.244 . S
O155 Mn153 2.089 . S
O155 C162 1.256 . S
O156 Mn148 2.160 . S
O156 C165 1.239 . S
O157 Mn150 2.089 . S
O157 C165 1.256 . S
O158 Mn153 2.251 . S
O158 C163 1.241 . S
O159 Mn153 2.087 . S
O159 C164 1.256 . S
C160 O166 1.278 . S
C160 O167 1.241 . S
C161 O147 1.244 . S
C161 O149 1.256 . S
C162 O151 1.239 . S
C162 O155 1.256 . S
C163 O152 1.278 . S
C163 O158 1.241 . S
C164 O154 1.244 . S
C164 O159 1.256 . S
C165 O156 1.239 . S
C165 O157 1.256 . S
O166 Mn148 2.221 . S
O166 Mn150 2.290 . S
O166 C160 1.278 . S
O167 Mn150 2.251 . S
O167 C160 1.241 . S
O168 Mn169 2.163 . S
O168 C182 1.244 . S
Mn169 O168 2.163 . S
Mn169 O172 2.160 . S
Mn169 O173 2.221 . S
Mn169 O175 2.163 . S
Mn169 O177 2.160 . S
Mn169 O187 2.221 . S
O170 Mn171 2.087 . S
O170 C182 1.256 . S
Mn171 O170 2.087 . S
Mn171 O178 2.089 . S
Mn171 O187 2.290 . S
Mn171 O188 2.251 . S
O172 Mn169 2.160 . S
O172 C183 1.239 . S
O173 Mn169 2.221 . S
O173 Mn174 2.290 . S
O173 C184 1.278 . S
Mn174 O173 2.290 . S
Mn174 O176 2.089 . S
Mn174 O179 2.251 . S
Mn174 O180 2.087 . S
O175 Mn169 2.163 . S
O175 C185 1.244 . S
O176 Mn174 2.089 . S
O176 C183 1.256 . S
O177 Mn169 2.160 . S
O177 C186 1.239 . S
O178 Mn171 2.089 . S
O178 C186 1.256 . S
O179 Mn174 2.251 . S
O179 C184 1.241 . S
O180 Mn174 2.087 . S
O180 C185 1.256 . S
C181 O187 1.278 . S
C181 O188 1.241 . S
C182 O168 1.244 . S
C182 O170 1.256 . S
C183 O172 1.239 . S
C183 O176 1.256 . S
C184 O173 1.278 . S
C184 O179 1.241 . S
C185 O175 1.244 . S
C185 O180 1.256 . S
C186 O177 1.239 . S
C186 O178 1.256 . S
O187 Mn169 2.221 . S
O187 Mn171 2.290 . S
O187 C181 1.278 . S
O188 Mn171 2.251 . S
O188 C181 1.241 . S
O189 Mn190 2.163 . S
O189 C203 1.244 1_554 S
Mn190 O189 2.163 . S
Mn190 O193 2.160 . S
Mn190 O194 2.221 . S
Mn190 O196 2.163 . S
Mn190 O198 2.160 . S
Mn190 O208 2.221 . S
O191 Mn192 2.087 . S
O191 C203 1.256 . S
Mn192 O191 2.087 . S
Mn192 O199 2.089 . S
Mn192 O208 2.290 1_556 S
Mn192 O209 2.251 1_556 S
O193 Mn190 2.160 . S
O193 C204 1.239 . S
O194 Mn190 2.221 . S
O194 Mn195 2.290 . S
O194 C205 1.278 . S
Mn195 O194 2.290 . S
Mn195 O197 2.089 . S
Mn195 O200 2.251 . S
Mn195 O201 2.087 . S
O196 Mn190 2.163 . S
O196 C206 1.244 . S
O197 Mn195 2.089 . S
O197 C204 1.256 . S
O198 Mn190 2.160 . S
O198 C207 1.239 1_554 S
O199 Mn192 2.089 . S
O199 C207 1.256 . S
O200 Mn195 2.251 . S
O200 C205 1.241 . S
O201 Mn195 2.087 . S
O201 C206 1.256 . S
C202 O208 1.278 . S
C202 O209 1.241 . S
C203 O189 1.244 1_556 S
C203 O191 1.256 . S
C204 O193 1.239 . S
C204 O197 1.256 . S
C205 O194 1.278 . S
C205 O200 1.241 . S
C206 O196 1.244 . S
C206 O201 1.256 . S
C207 O198 1.239 1_556 S
C207 O199 1.256 . S
O208 Mn190 2.221 . S
O208 Mn192 2.290 1_554 S
O208 C202 1.278 . S
O209 Mn192 2.251 1_554 S
O209 C202 1.241 . S
O210 Mn211 2.163 . S
O210 C224 1.244 1_556 S
Mn211 O210 2.163 . S
Mn211 O214 2.160 . S
Mn211 O215 2.221 . S
Mn211 O217 2.163 . S
Mn211 O219 2.160 . S
Mn211 O229 2.221 . S
O212 Mn213 2.087 . S
O212 C224 1.256 . S
Mn213 O212 2.087 . S
Mn213 O220 2.089 . S
Mn213 O229 2.290 1_554 S
Mn213 O230 2.251 1_554 S
O214 Mn211 2.160 . S
O214 C225 1.239 . S
O215 Mn211 2.221 . S
O215 Mn216 2.290 . S
O215 C226 1.278 . S
Mn216 O215 2.290 . S
Mn216 O218 2.089 . S
Mn216 O221 2.251 . S
Mn216 O222 2.087 . S
O217 Mn211 2.163 . S
O217 C227 1.244 . S
O218 Mn216 2.089 . S
O218 C225 1.256 . S
O219 Mn211 2.160 . S
O219 C228 1.239 1_556 S
O220 Mn213 2.089 . S
O220 C228 1.256 . S
O221 Mn216 2.251 . S
O221 C226 1.241 . S
O222 Mn216 2.087 . S
O222 C227 1.256 . S
C223 O229 1.278 . S
C223 O230 1.241 . S
C224 O210 1.244 1_554 S
C224 O212 1.256 . S
C225 O214 1.239 . S
C225 O218 1.256 . S
C226 O215 1.278 . S
C226 O221 1.241 . S
C227 O217 1.244 . S
C227 O222 1.256 . S
C228 O219 1.239 1_554 S
C228 O220 1.256 . S
O229 Mn211 2.221 . S
O229 Mn213 2.290 1_556 S
O229 C223 1.278 . S
O230 Mn213 2.251 1_556 S
O230 C223 1.241 . S
O231 Mn232 2.163 . S
O231 C245 1.244 . S
Mn232 O231 2.163 . S
Mn232 O235 2.160 . S
Mn232 O236 2.221 . S
Mn232 O238 2.163 . S
Mn232 O240 2.160 . S
Mn232 O250 2.221 . S
O233 Mn234 2.087 . S
O233 C245 1.256 . S
Mn234 O233 2.087 . S
Mn234 O241 2.089 . S
Mn234 O250 2.290 . S
Mn234 O251 2.251 . S
O235 Mn232 2.160 . S
O235 C246 1.239 . S
O236 Mn232 2.221 . S
O236 Mn237 2.290 . S
O236 C247 1.278 . S
Mn237 O236 2.290 . S
Mn237 O239 2.089 . S
Mn237 O242 2.251 . S
Mn237 O243 2.087 . S
O238 Mn232 2.163 . S
O238 C248 1.244 . S
O239 Mn237 2.089 . S
O239 C246 1.256 . S
O240 Mn232 2.160 . S
O240 C249 1.239 . S
O241 Mn234 2.089 . S
O241 C249 1.256 . S
O242 Mn237 2.251 . S
O242 C247 1.241 . S
O243 Mn237 2.087 . S
O243 C248 1.256 . S
C244 O250 1.278 . S
C244 O251 1.241 . S
C245 O231 1.244 . S
C245 O233 1.256 . S
C246 O235 1.239 . S
C246 O239 1.256 . S
C247 O236 1.278 . S
C247 O242 1.241 . S
C248 O238 1.244 . S
C248 O243 1.256 . S
C249 O240 1.239 . S
C249 O241 1.256 . S
O250 Mn232 2.221 . S
O250 Mn234 2.290 . S
O250 C244 1.278 . S
O251 Mn234 2.251 . S
O251 C244 1.241 . S
O252 Mn253 2.163 . S
O252 C266 1.244 . S
Mn253 O252 2.163 . S
Mn253 O256 2.160 . S
Mn253 O257 2.221 . S
Mn253 O259 2.163 . S
Mn253 O261 2.160 . S
Mn253 O271 2.221 . S
O254 Mn255 2.087 . S
O254 C266 1.256 . S
Mn255 O254 2.087 . S
Mn255 O262 2.089 . S
Mn255 O271 2.290 . S
Mn255 O272 2.251 . S
O256 Mn253 2.160 . S
O256 C267 1.239 . S
O257 Mn253 2.221 . S
O257 Mn258 2.290 . S
O257 C268 1.278 . S
Mn258 O257 2.290 . S
Mn258 O260 2.089 . S
Mn258 O263 2.251 . S
Mn258 O264 2.087 . S
O259 Mn253 2.163 . S
O259 C269 1.244 . S
O260 Mn258 2.089 . S
O260 C267 1.256 . S
O261 Mn253 2.160 . S
O261 C270 1.239 . S
O262 Mn255 2.089 . S
O262 C270 1.256 . S
O263 Mn258 2.251 . S
O263 C268 1.241 . S
O264 Mn258 2.087 . S
O264 C269 1.256 . S
C265 O271 1.278 . S
C265 O272 1.241 . S
C266 O252 1.244 . S
C266 O254 1.256 . S
C267 O256 1.239 . S
C267 O260 1.256 . S
C268 O257 1.278 . S
C268 O263 1.241 . S
C269 O259 1.244 . S
C269 O264 1.256 . S
C270 O261 1.239 . S
C270 O262 1.256 . S
O271 Mn253 2.221 . S
O271 Mn255 2.290 . S
O271 C265 1.278 . S
O272 Mn255 2.251 . S
O272 C265 1.241 . S
O273 Mn274 2.163 1_655 S
O273 C287 1.244 1_554 S
Mn274 O273 2.163 1_455 S
Mn274 O277 2.160 . S
Mn274 O278 2.221 . S
Mn274 O280 2.163 1_455 S
Mn274 O282 2.160 . S
Mn274 O292 2.221 . S
O275 Mn276 2.087 1_655 S
O275 C287 1.256 . S
Mn276 O275 2.087 1_455 S
Mn276 O283 2.089 . S
Mn276 O292 2.290 1_556 S
Mn276 O293 2.251 1_456 S
O277 Mn274 2.160 . S
O277 C288 1.239 . S
O278 Mn274 2.221 . S
O278 Mn279 2.290 . S
O278 C289 1.278 1_455 S
Mn279 O278 2.290 . S
Mn279 O281 2.089 . S
Mn279 O284 2.251 1_455 S
Mn279 O285 2.087 1_455 S
O280 Mn274 2.163 1_655 S
O280 C290 1.244 . S
O281 Mn279 2.089 . S
O281 C288 1.256 . S
O282 Mn274 2.160 . S
O282 C291 1.239 1_554 S
O283 Mn276 2.089 . S
O283 C291 1.256 . S
O284 Mn279 2.251 1_655 S
O284 C289 1.241 . S
O285 Mn279 2.087 1_655 S
O285 C290 1.256 . S
C286 O292 1.278 1_655 S
C286 O293 1.241 . S
C287 O273 1.244 1_556 S
C287 O275 1.256 . S
C288 O277 1.239 . S
C288 O281 1.256 . S
C289 O278 1.278 1_655 S
C289 O284 1.241 . S
C290 O280 1.244 . S
C290 O285 1.256 . S
C291 O282 1.239 1_556 S
C291 O283 1.256 . S
O292 Mn274 2.221 . S
O292 Mn276 2.290 1_554 S
O292 C286 1.278 1_455 S
O293 Mn276 2.251 1_654 S
O293 C286 1.241 . S
O294 Mn295 2.163 . S
O294 C308 1.244 . S
Mn295 O294 2.163 . S
Mn295 O298 2.160 . S
Mn295 O299 2.221 . S
Mn295 O301 2.163 . S
Mn295 O303 2.160 . S
Mn295 O313 2.221 . S
O296 Mn297 2.087 . S
O296 C308 1.256 . S
Mn297 O296 2.087 . S
Mn297 O304 2.089 . S
Mn297 O313 2.290 . S
Mn297 O314 2.251 . S
O298 Mn295 2.160 . S
O298 C309 1.239 . S
O299 Mn295 2.221 . S
O299 Mn300 2.290 . S
O299 C310 1.278 . S
Mn300 O299 2.290 . S
Mn300 O302 2.089 . S
Mn300 O305 2.251 . S
Mn300 O306 2.087 . S
O301 Mn295 2.163 . S
O301 C311 1.244 . S
O302 Mn300 2.089 . S
O302 C309 1.256 . S
O303 Mn295 2.160 . S
O303 C312 1.239 . S
O304 Mn297 2.089 . S
O304 C312 1.256 . S
O305 Mn300 2.251 . S
O305 C310 1.241 . S
O306 Mn300 2.087 . S
O306 C311 1.256 . S
C307 O313 1.278 . S
C307 O314 1.241 . S
C308 O294 1.244 . S
C308 O296 1.256 . S
C309 O298 1.239 . S
C309 O302 1.256 . S
C310 O299 1.278 . S
C310 O305 1.241 . S
C311 O301 1.244 . S
C311 O306 1.256 . S
C312 O303 1.239 . S
C312 O304 1.256 . S
O313 Mn295 2.221 . S
O313 Mn297 2.290 . S
O313 C307 1.278 . S
O314 Mn297 2.251 . S
O314 C307 1.241 . S
O315 Mn316 2.163 1_655 S
O315 C329 1.244 1_556 S
Mn316 O315 2.163 1_455 S
Mn316 O319 2.160 . S
Mn316 O320 2.221 . S
Mn316 O322 2.163 1_455 S
Mn316 O324 2.160 . S
Mn316 O334 2.221 . S
O317 Mn318 2.087 1_655 S
O317 C329 1.256 . S
Mn318 O317 2.087 1_455 S
Mn318 O325 2.089 . S
Mn318 O334 2.290 1_554 S
Mn318 O335 2.251 1_454 S
O319 Mn316 2.160 . S
O319 C330 1.239 . S
O320 Mn316 2.221 . S
O320 Mn321 2.290 . S
O320 C331 1.278 1_455 S
Mn321 O320 2.290 . S
Mn321 O323 2.089 . S
Mn321 O326 2.251 1_455 S
Mn321 O327 2.087 1_455 S
O322 Mn316 2.163 1_655 S
O322 C332 1.244 . S
O323 Mn321 2.089 . S
O323 C330 1.256 . S
O324 Mn316 2.160 . S
O324 C333 1.239 1_556 S
O325 Mn318 2.089 . S
O325 C333 1.256 . S
O326 Mn321 2.251 1_655 S
O326 C331 1.241 . S
O327 Mn321 2.087 1_655 S
O327 C332 1.256 . S
C328 O334 1.278 1_655 S
C328 O335 1.241 . S
C329 O315 1.244 1_554 S
C329 O317 1.256 . S
C330 O319 1.239 . S
C330 O323 1.256 . S
C331 O320 1.278 1_655 S
C331 O326 1.241 . S
C332 O322 1.244 . S
C332 O327 1.256 . S
C333 O324 1.239 1_554 S
C333 O325 1.256 . S
O334 Mn316 2.221 . S
O334 Mn318 2.290 1_556 S
O334 C328 1.278 1_455 S
O335 Mn318 2.251 1_656 S
O335 C328 1.241 . S
C336 C337 1.363 . S
C336 C342 1.379 . S
C336 N344 1.356 1_556 S
C337 C336 1.363 . S
C337 C343 1.363 . S
C338 C339 1.363 . S
C338 C343 1.379 . S
C338 N345 1.356 . S
C339 C338 1.363 . S
C339 C342 1.363 . S
N340 C342 1.356 . S
N340 H352 0.984 . S
N340 H353 0.985 . S
N341 C343 1.356 . S
N341 H346 0.984 . S
N341 H347 0.985 . S
C342 C336 1.379 . S
C342 C339 1.363 . S
C342 N340 1.356 . S
C343 C337 1.363 . S
C343 C338 1.379 . S
C343 N341 1.356 . S
N344 C336 1.356 1_554 S
N344 H350 0.984 . S
N344 H351 0.984 . S
N345 C338 1.356 . S
N345 H348 0.984 . S
N345 H349 0.985 . S
H346 N341 0.984 . S
H347 N341 0.985 . S
H348 N345 0.984 . S
H349 N345 0.985 . S
H350 N344 0.984 . S
H351 N344 0.984 . S
H352 N340 0.984 . S
H353 N340 0.985 . S
C354 C355 1.363 . S
C354 C360 1.379 . S
C354 N362 1.356 . S
C355 C354 1.363 . S
C355 C361 1.363 . S
C356 C357 1.363 . S
C356 C361 1.379 . S
C356 N363 1.356 . S
C357 C356 1.363 . S
C357 C360 1.363 . S
N358 C360 1.356 . S
N358 H370 0.984 . S
N358 H371 0.985 . S
N359 C361 1.356 . S
N359 H364 0.984 . S
N359 H365 0.985 . S
C360 C354 1.379 . S
C360 C357 1.363 . S
C360 N358 1.356 . S
C361 C355 1.363 . S
C361 C356 1.379 . S
C361 N359 1.356 . S
N362 C354 1.356 . S
N362 H368 0.984 . S
N362 H369 0.984 . S
N363 C356 1.356 . S
N363 H366 0.984 . S
N363 H367 0.985 . S
H364 N359 0.984 . S
H365 N359 0.985 . S
H366 N363 0.984 . S
H367 N363 0.985 . S
H368 N362 0.984 . S
H369 N362 0.984 . S
H370 N358 0.984 . S
H371 N358 0.985 . S
C372 C373 1.363 . S
C372 C378 1.379 . S
C372 N380 1.356 . S
C373 C372 1.363 . S
C373 C379 1.363 . S
C374 C375 1.363 . S
C374 C379 1.379 . S
C374 N381 1.356 . S
C375 C374 1.363 . S
C375 C378 1.363 . S
N376 C378 1.356 . S
N376 H388 0.984 . S
N376 H389 0.985 . S
N377 C379 1.356 . S
N377 H382 0.984 . S
N377 H383 0.985 . S
C378 C372 1.379 . S
C378 C375 1.363 . S
C378 N376 1.356 . S
C379 C373 1.363 . S
C379 C374 1.379 . S
C379 N377 1.356 . S
N380 C372 1.356 . S
N380 H386 0.984 . S
N380 H387 0.984 . S
N381 C374 1.356 . S
N381 H384 0.984 . S
N381 H385 0.985 . S
H382 N377 0.984 . S
H383 N377 0.985 . S
H384 N381 0.984 . S
H385 N381 0.985 . S
H386 N380 0.984 . S
H387 N380 0.984 . S
H388 N376 0.984 . S
H389 N376 0.985 . S
C390 C391 1.363 . S
C390 C396 1.379 . S
C390 N398 1.356 . S
C391 C390 1.363 . S
C391 C397 1.363 . S
C392 C393 1.363 . S
C392 C397 1.379 . S
C392 N399 1.356 . S
C393 C392 1.363 . S
C393 C396 1.363 . S
N394 C396 1.356 . S
N394 H406 0.984 . S
N394 H407 0.985 . S
N395 C397 1.356 . S
N395 H400 0.984 . S
N395 H401 0.985 . S
C396 C390 1.379 . S
C396 C393 1.363 . S
C396 N394 1.356 . S
C397 C391 1.363 . S
C397 C392 1.379 . S
C397 N395 1.356 . S
N398 C390 1.356 . S
N398 H404 0.984 . S
N398 H405 0.984 . S
N399 C392 1.356 . S
N399 H402 0.984 . S
N399 H403 0.985 . S
H400 N395 0.984 . S
H401 N395 0.985 . S
H402 N399 0.984 . S
H403 N399 0.985 . S
H404 N398 0.984 . S
H405 N398 0.984 . S
H406 N394 0.984 . S
H407 N394 0.985 . S
C408 C409 1.363 . S
C408 C414 1.379 . S
C408 N416 1.356 . S
C409 C408 1.363 . S
C409 C415 1.363 . S
C410 C411 1.363 . S
C410 C415 1.379 . S
C410 N417 1.356 . S
C411 C410 1.363 . S
C411 C414 1.363 . S
N412 C414 1.356 . S
N412 H424 0.984 . S
N412 H425 0.982 1_554 S
N413 C415 1.356 . S
N413 H418 0.984 . S
N413 H419 0.985 . S
C414 C408 1.379 . S
C414 C411 1.363 . S
C414 N412 1.356 . S
C415 C409 1.363 . S
C415 C410 1.379 . S
C415 N413 1.356 . S
N416 C408 1.356 . S
N416 H422 0.984 . S
N416 H423 0.984 . S
N417 C410 1.356 . S
N417 H420 0.984 . S
N417 H421 0.985 . S
H418 N413 0.984 . S
H419 N413 0.985 . S
H420 N417 0.984 . S
H421 N417 0.985 . S
H422 N416 0.984 . S
H423 N416 0.984 . S
H424 N412 0.984 . S
H425 N412 0.982 1_556 S
C426 C427 1.363 . S
C426 C432 1.379 . S
C426 N434 1.356 . S
C427 C426 1.363 . S
C427 C433 1.363 . S
C428 C429 1.363 . S
C428 C433 1.379 . S
C428 N435 1.356 . S
C429 C428 1.363 . S
C429 C432 1.363 . S
N430 C432 1.356 . S
N430 H442 0.984 . S
N430 H443 0.985 . S
N431 C433 1.356 . S
N431 H436 0.984 . S
N431 H437 0.985 . S
C432 C426 1.379 . S
C432 C429 1.363 . S
C432 N430 1.356 . S
C433 C427 1.363 . S
C433 C428 1.379 . S
C433 N431 1.356 . S
N434 C426 1.356 . S
N434 H440 0.984 . S
N434 H441 0.984 . S
N435 C428 1.356 . S
N435 H438 0.984 1_556 S
N435 H439 0.985 . S
H436 N431 0.984 . S
H437 N431 0.985 . S
H438 N435 0.984 1_554 S
H439 N435 0.985 . S
H440 N434 0.984 . S
H441 N434 0.984 . S
H442 N430 0.984 . S
H443 N430 0.985 . S
C444 C445 1.363 . S
C444 C450 1.379 . S
C444 N452 1.356 . S
C445 C444 1.363 . S
C445 C451 1.363 . S
C446 C447 1.363 . S
C446 C451 1.379 . S
C446 N453 1.356 . S
C447 C446 1.363 . S
C447 C450 1.363 . S
N448 C450 1.356 . S
N448 H460 0.984 . S
N448 H461 0.985 . S
N449 C451 1.356 . S
N449 H454 0.984 . S
N449 H455 0.985 . S
C450 C444 1.379 . S
C450 C447 1.363 . S
C450 N448 1.356 . S
C451 C445 1.363 . S
C451 C446 1.379 . S
C451 N449 1.356 . S
N452 C444 1.356 . S
N452 H458 0.984 . S
N452 H459 0.984 . S
N453 C446 1.356 . S
N453 H456 0.984 . S
N453 H457 0.985 . S
H454 N449 0.984 . S
H455 N449 0.985 . S
H456 N453 0.984 . S
H457 N453 0.985 . S
H458 N452 0.984 . S
H459 N452 0.984 . S
H460 N448 0.984 . S
H461 N448 0.985 . S
C462 C463 1.363 . S
C462 C468 1.379 . S
C462 N470 1.356 . S
C463 C462 1.363 . S
C463 C469 1.363 . S
C464 C465 1.363 . S
C464 C469 1.379 . S
C464 N471 1.356 . S
C465 C464 1.363 . S
C465 C468 1.363 . S
N466 C468 1.356 . S
N466 H478 0.984 . S
N466 H479 0.985 . S
N467 C469 1.356 . S
N467 H472 0.984 . S
N467 H473 0.985 . S
C468 C462 1.379 . S
C468 C465 1.363 . S
C468 N466 1.356 . S
C469 C463 1.363 . S
C469 C464 1.379 . S
C469 N467 1.356 . S
N470 C462 1.356 . S
N470 H476 0.984 . S
N470 H477 0.984 . S
N471 C464 1.356 . S
N471 H474 0.984 . S
N471 H475 0.985 . S
H472 N467 0.984 . S
H473 N467 0.985 . S
H474 N471 0.984 . S
H475 N471 0.985 . S
H476 N470 0.984 . S
H477 N470 0.984 . S
H478 N466 0.984 . S
H479 N466 0.985 . S
C480 C481 1.363 . S
C480 C486 1.379 . S
C480 N488 1.356 . S
C481 C480 1.363 . S
C481 C487 1.363 . S
C482 C483 1.363 . S
C482 C487 1.379 . S
C482 N489 1.356 . S
C483 C482 1.363 . S
C483 C486 1.363 . S
N484 C486 1.356 . S
N484 H496 0.984 . S
N484 H497 0.985 . S
N485 C487 1.356 . S
N485 H490 0.984 . S
N485 H491 0.985 . S
C486 C480 1.379 . S
C486 C483 1.363 . S
C486 N484 1.356 . S
C487 C481 1.363 . S
C487 C482 1.379 . S
C487 N485 1.356 . S
N488 C480 1.356 . S
N488 H494 0.984 . S
N488 H495 0.984 . S
N489 C482 1.356 . S
N489 H492 0.984 . S
N489 H493 0.985 . S
H490 N485 0.984 . S
H491 N485 0.985 . S
H492 N489 0.984 . S
H493 N489 0.985 . S
H494 N488 0.984 . S
H495 N488 0.984 . S
H496 N484 0.984 . S
H497 N484 0.985 . S
C498 C499 1.363 . S
C498 C504 1.379 . S
C498 N506 1.356 . S
C499 C498 1.363 . S
C499 C505 1.363 . S
C500 C501 1.363 . S
C500 C505 1.379 . S
C500 N507 1.356 . S
C501 C500 1.363 . S
C501 C504 1.363 . S
N502 C504 1.356 . S
N502 H514 0.984 . S
N502 H515 0.985 . S
N503 C505 1.356 . S
N503 H508 0.984 . S
N503 H509 0.985 . S
C504 C498 1.379 . S
C504 C501 1.363 . S
C504 N502 1.356 . S
C505 C499 1.363 . S
C505 C500 1.379 . S
C505 N503 1.356 . S
N506 C498 1.356 . S
N506 H512 0.984 . S
N506 H513 0.984 . S
N507 C500 1.356 . S
N507 H510 0.984 . S
N507 H511 0.985 . S
H508 N503 0.984 . S
H509 N503 0.985 . S
H510 N507 0.984 . S
H511 N507 0.985 . S
H512 N506 0.984 . S
H513 N506 0.984 . S
H514 N502 0.984 . S
H515 N502 0.985 . S
C516 C517 1.363 . S
C516 C522 1.379 . S
C516 N524 1.356 . S
C517 C516 1.363 . S
C517 C523 1.363 . S
C518 C519 1.363 . S
C518 C523 1.379 . S
C518 N525 1.356 . S
C519 C518 1.363 . S
C519 C522 1.363 . S
N520 C522 1.356 . S
N520 H532 0.984 . S
N520 H533 0.985 . S
N521 C523 1.356 . S
N521 H526 0.984 . S
N521 H527 0.985 . S
C522 C516 1.379 . S
C522 C519 1.363 . S
C522 N520 1.356 . S
C523 C517 1.363 . S
C523 C518 1.379 . S
C523 N521 1.356 . S
N524 C516 1.356 . S
N524 H530 0.984 . S
N524 H531 0.984 1_556 S
N525 C518 1.356 . S
N525 H528 0.984 . S
N525 H529 0.985 . S
H526 N521 0.984 . S
H527 N521 0.985 . S
H528 N525 0.984 . S
H529 N525 0.985 . S
H530 N524 0.984 . S
H531 N524 0.984 1_554 S
H532 N520 0.984 . S
H533 N520 0.985 . S
C534 C535 1.363 . S
C534 C540 1.379 . S
C534 N542 1.356 . S
C535 C534 1.363 . S
C535 C541 1.363 . S
C536 C537 1.363 . S
C536 C541 1.379 . S
C536 N543 1.356 . S
C537 C536 1.363 . S
C537 C540 1.363 . S
N538 C540 1.356 1_556 S
N538 H550 0.984 . S
N538 H551 0.985 . S
N539 C541 1.356 . S
N539 H544 0.984 . S
N539 H545 0.985 . S
C540 C534 1.379 . S
C540 C537 1.363 . S
C540 N538 1.356 1_554 S
C541 C535 1.363 . S
C541 C536 1.379 . S
C541 N539 1.356 . S
N542 C534 1.356 . S
N542 H548 0.984 . S
N542 H549 0.984 . S
N543 C536 1.356 . S
N543 H546 0.984 . S
N543 H547 0.985 . S
H544 N539 0.984 . S
H545 N539 0.985 . S
H546 N543 0.984 . S
H547 N543 0.985 . S
H548 N542 0.984 . S
H549 N542 0.984 . S
H550 N538 0.984 . S
H551 N538 0.985 . S
C552 C553 1.363 . S
C552 C558 1.379 . S
C552 N560 1.356 . S
C553 C552 1.363 . S
C553 C559 1.363 . S
C554 C555 1.363 . S
C554 C559 1.379 . S
C554 N561 1.356 . S
C555 C554 1.363 . S
C555 C558 1.363 . S
N556 C558 1.356 . S
N556 H568 0.984 . S
N556 H569 0.985 . S
N557 C559 1.356 . S
N557 H562 0.984 . S
N557 H563 0.985 . S
C558 C552 1.379 . S
C558 C555 1.363 . S
C558 N556 1.356 . S
C559 C553 1.363 . S
C559 C554 1.379 . S
C559 N557 1.356 . S
N560 C552 1.356 . S
N560 H566 0.984 . S
N560 H567 0.984 . S
N561 C554 1.356 . S
N561 H564 0.984 . S
N561 H565 0.985 . S
H562 N557 0.984 . S
H563 N557 0.985 . S
H564 N561 0.984 . S
H565 N561 0.985 . S
H566 N560 0.984 . S
H567 N560 0.984 . S
H568 N556 0.984 . S
H569 N556 0.985 . S
C570 C571 1.363 . S
C570 C576 1.379 . S
C570 N578 1.356 . S
C571 C570 1.363 . S
C571 C577 1.363 . S
C572 C573 1.363 . S
C572 C577 1.379 . S
C572 N579 1.356 . S
C573 C572 1.363 . S
C573 C576 1.363 . S
N574 C576 1.356 . S
N574 H586 0.984 . S
N574 H587 0.985 . S
N575 C577 1.356 . S
N575 H580 0.984 . S
N575 H581 0.985 . S
C576 C570 1.379 . S
C576 C573 1.363 . S
C576 N574 1.356 . S
C577 C571 1.363 . S
C577 C572 1.379 . S
C577 N575 1.356 . S
N578 C570 1.356 . S
N578 H584 0.984 . S
N578 H585 0.984 . S
N579 C572 1.356 . S
N579 H582 0.984 . S
N579 H583 0.985 . S
H580 N575 0.984 . S
H581 N575 0.985 . S
H582 N579 0.984 . S
H583 N579 0.985 . S
H584 N578 0.984 . S
H585 N578 0.984 . S
H586 N574 0.984 . S
H587 N574 0.985 . S
C588 C589 1.363 . S
C588 C594 1.379 . S
C588 N596 1.356 . S
C589 C588 1.363 . S
C589 C595 1.363 . S
C590 C591 1.363 . S
C590 C595 1.379 . S
C590 N597 1.356 . S
C591 C590 1.363 . S
C591 C594 1.363 . S
N592 C594 1.356 1_556 S
N592 H604 0.984 . S
N592 H605 0.985 . S
N593 C595 1.356 . S
N593 H598 0.984 . S
N593 H599 0.985 . S
C594 C588 1.379 . S
C594 C591 1.363 . S
C594 N592 1.356 1_554 S
C595 C589 1.363 . S
C595 C590 1.379 . S
C595 N593 1.356 . S
N596 C588 1.356 . S
N596 H602 0.984 . S
N596 H603 0.984 . S
N597 C590 1.356 . S
N597 H600 0.984 . S
N597 H601 0.985 . S
H598 N593 0.984 . S
H599 N593 0.985 . S
H600 N597 0.984 . S
H601 N597 0.985 . S
H602 N596 0.984 . S
H603 N596 0.984 . S
H604 N592 0.984 . S
H605 N592 0.985 . S
C606 C607 1.363 . S
C606 C612 1.379 . S
C606 N614 1.356 . S
C607 C606 1.363 . S
C607 C613 1.363 . S
C608 C609 1.363 . S
C608 C613 1.379 . S
C608 N615 1.356 . S
C609 C608 1.363 . S
C609 C612 1.363 . S
N610 C612 1.356 . S
N610 H622 0.984 . S
N610 H623 0.985 . S
N611 C613 1.356 . S
N611 H616 0.984 . S
N611 H617 0.985 . S
C612 C606 1.379 . S
C612 C609 1.363 . S
C612 N610 1.356 . S
C613 C607 1.363 . S
C613 C608 1.379 . S
C613 N611 1.356 . S
N614 C606 1.356 . S
N614 H620 0.984 . S
N614 H621 0.984 . S
N615 C608 1.356 . S
N615 H618 0.984 1_556 S
N615 H619 0.985 . S
H616 N611 0.984 . S
H617 N611 0.985 . S
H618 N615 0.984 1_554 S
H619 N615 0.985 . S
H620 N614 0.984 . S
H621 N614 0.984 . S
H622 N610 0.984 . S
H623 N610 0.985 . S
C624 C625 1.363 1_455 S
C624 C630 1.379 . S
C624 N632 1.356 . S
C625 C624 1.363 1_655 S
C625 C631 1.363 . S
C626 C627 1.363 1_655 S
C626 C631 1.379 . S
C626 N633 1.356 . S
C627 C626 1.363 1_455 S
C627 C630 1.363 . S
N628 C630 1.356 . S
N628 H640 0.984 . S
N628 H641 0.985 . S
N629 C631 1.356 . S
N629 H634 0.984 . S
N629 H635 0.985 . S
C630 C624 1.379 . S
C630 C627 1.363 . S
C630 N628 1.356 . S
C631 C625 1.363 . S
C631 C626 1.379 . S
C631 N629 1.356 . S
N632 C624 1.356 . S
N632 H638 0.984 . S
N632 H639 0.994 . S
N633 C626 1.356 . S
N633 H636 0.984 1_655 S
N633 H637 0.985 . S
H634 N629 0.984 . S
H635 N629 0.985 . S
H636 N633 0.984 1_455 S
H637 N633 0.985 . S
H638 N632 0.984 . S
H639 N632 0.994 . S
H640 N628 0.984 . S
H641 N628 0.985 . S
C642 C643 1.363 . S
C642 C648 1.379 1_655 S
C642 N650 1.356 . S
C643 C642 1.363 . S
C643 C649 1.363 . S
C644 C645 1.363 . S
C644 C649 1.379 1_455 S
C644 N651 1.356 . S
C645 C644 1.363 . S
C645 C648 1.363 . S
N646 C648 1.356 . S
N646 H658 0.984 . S
N646 H659 0.985 . S
N647 C649 1.356 . S
N647 H652 0.984 . S
N647 H653 0.985 . S
C648 C642 1.379 1_455 S
C648 C645 1.363 . S
C648 N646 1.356 . S
C649 C643 1.363 . S
C649 C644 1.379 1_655 S
C649 N647 1.356 . S
N650 C642 1.356 . S
N650 H656 0.984 . S
N650 H657 0.984 . S
N651 C644 1.356 . S
N651 H654 0.984 . S
N651 H655 0.985 . S
H652 N647 0.984 . S
H653 N647 0.985 . S
H654 N651 0.984 . S
H655 N651 0.985 . S
H656 N650 0.984 . S
H657 N650 0.984 . S
H658 N646 0.984 . S
H659 N646 0.985 . S
C660 C661 1.363 . S
C660 C666 1.379 . S
C660 N668 1.356 . S
C661 C660 1.363 . S
C661 C667 1.363 . S
C662 C663 1.363 . S
C662 C667 1.379 . S
C662 N669 1.356 . S
C663 C662 1.363 . S
C663 C666 1.363 . S
N664 C666 1.356 . S
N664 H676 0.984 . S
N664 H677 0.985 . S
N665 C667 1.356 . S
N665 H670 0.984 . S
N665 H671 0.985 . S
C666 C660 1.379 . S
C666 C663 1.363 . S
C666 N664 1.356 . S
C667 C661 1.363 . S
C667 C662 1.379 . S
C667 N665 1.356 . S
N668 C660 1.356 . S
N668 H674 0.984 . S
N668 H675 0.984 . S
N669 C662 1.356 . S
N669 H672 0.984 . S
N669 H673 0.985 . S
H670 N665 0.984 . S
H671 N665 0.985 . S
H672 N669 0.984 . S
H673 N669 0.985 . S
H674 N668 0.984 . S
H675 N668 0.984 . S
H676 N664 0.984 . S
H677 N664 0.985 . S
C678 C679 1.363 . S
C678 C684 1.379 . S
C678 N686 1.356 . S
C679 C678 1.363 . S
C679 C685 1.363 . S
C680 C681 1.363 . S
C680 C685 1.379 . S
C680 N687 1.356 1_556 S
C681 C680 1.363 . S
C681 C684 1.363 . S
N682 C684 1.356 . S
N682 H694 0.984 . S
N682 H695 0.985 . S
N683 C685 1.356 1_554 S
N683 H688 0.983 1_554 S
N683 H689 0.985 . S
C684 C678 1.379 . S
C684 C681 1.363 . S
C684 N682 1.356 . S
C685 C679 1.363 . S
C685 C680 1.379 . S
C685 N683 1.356 1_556 S
N686 C678 1.356 . S
N686 H692 0.984 . S
N686 H693 0.984 . S
N687 C680 1.356 1_554 S
N687 H690 0.983 1_554 S
N687 H691 0.985 . S
H688 N683 0.983 1_556 S
H689 N683 0.985 . S
H690 N687 0.983 1_556 S
H691 N687 0.985 . S
H692 N686 0.984 . S
H693 N686 0.984 . S
H694 N682 0.984 . S
H695 N682 0.985 . S
C696 C697 1.363 1_655 S
C696 C702 1.379 . S
C696 N704 1.356 . S
C697 C696 1.363 1_455 S
C697 C703 1.363 . S
C698 C699 1.363 1_455 S
C698 C703 1.379 . S
C698 N705 1.356 . S
C699 C698 1.363 1_655 S
C699 C702 1.363 . S
N700 C702 1.356 . S
N700 H712 0.984 . S
N700 H713 0.985 . S
N701 C703 1.356 . S
N701 H706 0.984 . S
N701 H707 0.985 . S
C702 C696 1.379 . S
C702 C699 1.363 . S
C702 N700 1.356 . S
C703 C697 1.363 . S
C703 C698 1.379 . S
C703 N701 1.356 . S
N704 C696 1.356 . S
N704 H710 0.984 . S
N704 H711 0.984 1_655 S
N705 C698 1.356 . S
N705 H708 0.994 . S
N705 H709 0.985 . S
H706 N701 0.984 . S
H707 N701 0.985 . S
H708 N705 0.994 . S
H709 N705 0.985 . S
H710 N704 0.984 . S
H711 N704 0.984 1_455 S
H712 N700 0.984 . S
H713 N700 0.985 . S
C714 C715 1.363 . S
C714 C720 1.379 . S
C714 N722 1.356 1_554 S
C715 C714 1.363 . S
C715 C721 1.363 . S
C716 C717 1.363 . S
C716 C721 1.379 . S
C716 N723 1.356 . S
C717 C716 1.363 . S
C717 C720 1.363 . S
N718 C720 1.356 1_556 S
N718 H730 0.984 . S
N718 H731 0.983 1_556 S
N719 C721 1.356 . S
N719 H724 0.984 . S
N719 H725 0.985 . S
C720 C714 1.379 . S
C720 C717 1.363 . S
C720 N718 1.356 1_554 S
C721 C715 1.363 . S
C721 C716 1.379 . S
C721 N719 1.356 . S
N722 C714 1.356 1_556 S
N722 H728 0.984 . S
N722 H729 0.983 1_556 S
N723 C716 1.356 . S
N723 H726 0.984 . S
N723 H727 0.985 . S
H724 N719 0.984 . S
H725 N719 0.985 . S
H726 N723 0.984 . S
H727 N723 0.985 . S
H728 N722 0.984 . S
H729 N722 0.983 1_554 S
H730 N718 0.984 . S
H731 N718 0.983 1_554 S
C732 C733 1.363 . S
C732 C738 1.379 . S
C732 N740 1.356 . S
C733 C732 1.363 . S
C733 C739 1.363 . S
C734 C735 1.363 . S
C734 C739 1.379 . S
C734 N741 1.356 . S
C735 C734 1.363 . S
C735 C738 1.363 . S
N736 C738 1.356 . S
N736 H748 0.984 . S
N736 H749 0.985 . S
N737 C739 1.356 . S
N737 H742 0.984 . S
N737 H743 0.985 . S
C738 C732 1.379 . S
C738 C735 1.363 . S
C738 N736 1.356 . S
C739 C733 1.363 . S
C739 C734 1.379 . S
C739 N737 1.356 . S
N740 C732 1.356 . S
N740 H746 0.984 . S
N740 H747 0.984 . S
N741 C734 1.356 . S
N741 H744 0.984 . S
N741 H745 0.985 . S
H742 N737 0.984 . S
H743 N737 0.985 . S
H744 N741 0.984 . S
H745 N741 0.985 . S
H746 N740 0.984 . S
H747 N740 0.984 . S
H748 N736 0.984 . S
H749 N736 0.985 . S
C750 C751 1.363 . S
C750 C756 1.379 1_455 S
C750 N758 1.356 . S
C751 C750 1.363 . S
C751 C757 1.363 . S
C752 C753 1.363 . S
C752 C757 1.379 1_655 S
C752 N759 1.356 . S
C753 C752 1.363 . S
C753 C756 1.363 . S
N754 C756 1.356 . S
N754 H766 0.984 . S
N754 H767 0.985 . S
N755 C757 1.356 . S
N755 H760 0.984 . S
N755 H761 0.985 . S
C756 C750 1.379 1_655 S
C756 C753 1.363 . S
C756 N754 1.356 . S
C757 C751 1.363 . S
C757 C752 1.379 1_455 S
C757 N755 1.356 . S
N758 C750 1.356 . S
N758 H764 0.984 . S
N758 H765 0.984 . S
N759 C752 1.356 . S
N759 H762 0.984 . S
N759 H763 0.985 . S
H760 N755 0.984 . S
H761 N755 0.985 . S
H762 N759 0.984 . S
H763 N759 0.985 . S
H764 N758 0.984 . S
H765 N758 0.984 . S
H766 N754 0.984 . S
H767 N754 0.985 . S
C768 C769 1.363 1_565 S
C768 C774 1.379 . S
C768 N776 1.356 . S
C769 C768 1.363 1_545 S
C769 C775 1.377 1_554 S
C770 C771 1.377 1_545 S
C770 C775 1.379 . S
C770 N777 1.346 1_455 S
C771 C770 1.377 1_565 S
C771 C774 1.363 1_556 S
N772 C774 1.356 1_556 S
N772 H784 0.984 1_556 S
N772 H785 0.985 . S
N773 C775 1.346 1_654 S
N773 H778 0.984 . S
N773 H779 0.985 1_554 S
C774 C768 1.379 . S
C774 C771 1.363 1_554 S
C774 N772 1.356 1_554 S
C775 C769 1.377 1_556 S
C775 C770 1.379 . S
C775 N773 1.346 1_456 S
N776 C768 1.356 . S
N776 H782 0.984 . S
N776 H783 0.984 1_565 S
N777 C770 1.346 1_655 S
N777 H780 0.984 1_545 S
N777 H781 0.985 . S
H778 N773 0.984 . S
H779 N773 0.985 1_556 S
H780 N777 0.984 1_565 S
H781 N777 0.985 . S
H782 N776 0.984 . S
H783 N776 0.984 1_545 S
H784 N772 0.984 1_554 S
H785 N772 0.985 . S
C786 C787 1.363 . S
C786 C792 1.379 . S
C786 N794 1.356 . S
C787 C786 1.363 . S
C787 C793 1.363 . S
C788 C789 1.363 . S
C788 C793 1.379 . S
C788 N795 1.356 . S
C789 C788 1.363 . S
C789 C792 1.363 . S
N790 C792 1.356 . S
N790 H802 0.984 . S
N790 H803 0.985 . S
N791 C793 1.356 . S
N791 H796 0.984 . S
N791 H797 0.985 . S
C792 C786 1.379 . S
C792 C789 1.363 . S
C792 N790 1.356 . S
C793 C787 1.363 . S
C793 C788 1.379 . S
C793 N791 1.356 . S
N794 C786 1.356 . S
N794 H800 0.984 . S
N794 H801 0.984 . S
N795 C788 1.356 . S
N795 H798 0.984 . S
N795 H799 0.985 . S
H796 N791 0.984 . S
H797 N791 0.985 . S
H798 N795 0.984 . S
H799 N795 0.985 . S
H800 N794 0.984 . S
H801 N794 0.984 . S
H802 N790 0.984 . S
H803 N790 0.985 . S
C804 C805 1.363 . S
C804 C810 1.379 . S
C804 N812 1.356 . S
C805 C804 1.363 . S
C805 C811 1.363 1_545 S
C806 C807 1.363 . S
C806 C811 1.379 . S
C806 N813 1.356 . S
C807 C806 1.363 . S
C807 C810 1.363 1_565 S
N808 C810 1.356 . S
N808 H820 0.984 . S
N808 H821 0.985 1_545 S
N809 C811 1.356 . S
N809 H814 0.984 1_565 S
N809 H815 0.985 . S
C810 C804 1.379 . S
C810 C807 1.363 1_545 S
C810 N808 1.356 . S
C811 C805 1.363 1_565 S
C811 C806 1.379 . S
C811 N809 1.356 . S
N812 C804 1.356 . S
N812 H818 0.984 . S
N812 H819 0.984 . S
N813 C806 1.356 . S
N813 H816 0.984 . S
N813 H817 0.985 . S
H814 N809 0.984 1_545 S
H815 N809 0.985 . S
H816 N813 0.984 . S
H817 N813 0.985 . S
H818 N812 0.984 . S
H819 N812 0.984 . S
H820 N808 0.984 . S
H821 N808 0.985 1_565 S
C822 C823 1.363 . S
C822 C828 1.379 . S
C822 N830 1.356 . S
C823 C822 1.363 . S
C823 C829 1.363 . S
C824 C825 1.363 . S
C824 C829 1.379 . S
C824 N831 1.356 . S
C825 C824 1.363 . S
C825 C828 1.363 . S
N826 C828 1.356 . S
N826 H838 0.984 . S
N826 H839 0.985 . S
N827 C829 1.356 . S
N827 H832 0.984 . S
N827 H833 0.985 . S
C828 C822 1.379 . S
C828 C825 1.363 . S
C828 N826 1.356 . S
C829 C823 1.363 . S
C829 C824 1.379 . S
C829 N827 1.356 . S
N830 C822 1.356 . S
N830 H836 0.984 . S
N830 H837 0.984 . S
N831 C824 1.356 . S
N831 H834 0.984 . S
N831 H835 0.985 . S
H832 N827 0.984 . S
H833 N827 0.985 . S
H834 N831 0.984 . S
H835 N831 0.985 . S
H836 N830 0.984 . S
H837 N830 0.984 . S
H838 N826 0.984 . S
H839 N826 0.985 . S
C840 C841 1.363 . S
C840 C846 1.379 . S
C840 N848 1.356 . S
C841 C840 1.363 . S
C841 C847 1.363 . S
C842 C843 1.363 . S
C842 C847 1.379 . S
C842 N849 1.356 . S
C843 C842 1.363 . S
C843 C846 1.363 . S
N844 C846 1.356 . S
N844 H856 0.984 . S
N844 H857 0.985 . S
N845 C847 1.356 . S
N845 H850 0.984 . S
N845 H851 0.985 . S
C846 C840 1.379 . S
C846 C843 1.363 . S
C846 N844 1.356 . S
C847 C841 1.363 . S
C847 C842 1.379 . S
C847 N845 1.356 . S
N848 C840 1.356 . S
N848 H854 0.984 . S
N848 H855 0.984 . S
N849 C842 1.356 . S
N849 H852 0.984 . S
N849 H853 0.985 . S
H850 N845 0.984 . S
H851 N845 0.985 . S
H852 N849 0.984 . S
H853 N849 0.985 . S
H854 N848 0.984 . S
H855 N848 0.984 . S
H856 N844 0.984 . S
H857 N844 0.985 . S
C858 C859 1.363 . S
C858 C864 1.379 . S
C858 N866 1.356 . S
C859 C858 1.363 . S
C859 C865 1.363 . S
C860 C861 1.363 . S
C860 C865 1.379 . S
C860 N867 1.356 . S
C861 C860 1.363 . S
C861 C864 1.363 . S
N862 C864 1.356 . S
N862 H874 0.984 . S
N862 H875 0.985 . S
N863 C865 1.356 . S
N863 H868 0.984 . S
N863 H869 0.985 . S
C864 C858 1.379 . S
C864 C861 1.363 . S
C864 N862 1.356 . S
C865 C859 1.363 . S
C865 C860 1.379 . S
C865 N863 1.356 . S
N866 C858 1.356 . S
N866 H872 0.984 . S
N866 H873 0.984 . S
N867 C860 1.356 . S
N867 H870 0.984 . S
N867 H871 0.985 . S
H868 N863 0.984 . S
H869 N863 0.985 . S
H870 N867 0.984 . S
H871 N867 0.985 . S
H872 N866 0.984 . S
H873 N866 0.984 . S
H874 N862 0.984 . S
H875 N862 0.985 . S
C876 C877 1.363 . S
C876 C882 1.379 . S
C876 N884 1.356 . S
C877 C876 1.363 . S
C877 C883 1.363 . S
C878 C879 1.363 . S
C878 C883 1.379 . S
C878 N885 1.356 . S
C879 C878 1.363 . S
C879 C882 1.363 . S
N880 C882 1.356 . S
N880 H892 0.984 . S
N880 H893 0.985 . S
N881 C883 1.356 . S
N881 H886 0.984 . S
N881 H887 0.985 . S
C882 C876 1.379 . S
C882 C879 1.363 . S
C882 N880 1.356 . S
C883 C877 1.363 . S
C883 C878 1.379 . S
C883 N881 1.356 . S
N884 C876 1.356 . S
N884 H890 0.984 . S
N884 H891 0.984 . S
N885 C878 1.356 . S
N885 H888 0.984 . S
N885 H889 0.985 . S
H886 N881 0.984 . S
H887 N881 0.985 . S
H888 N885 0.984 . S
H889 N885 0.985 . S
H890 N884 0.984 . S
H891 N884 0.984 . S
H892 N880 0.984 . S
H893 N880 0.985 . S
C894 C895 1.363 . S
C894 C900 1.379 . S
C894 N902 1.356 . S
C895 C894 1.363 . S
C895 C901 1.363 1_556 S
C896 C897 1.363 . S
C896 C901 1.379 . S
C896 N903 1.356 . S
C897 C896 1.363 . S
C897 C900 1.363 1_554 S
N898 C900 1.356 . S
N898 H910 0.984 . S
N898 H911 0.985 1_556 S
N899 C901 1.356 . S
N899 H904 0.984 1_554 S
N899 H905 0.985 . S
C900 C894 1.379 . S
C900 C897 1.363 1_556 S
C900 N898 1.356 . S
C901 C895 1.363 1_554 S
C901 C896 1.379 . S
C901 N899 1.356 . S
N902 C894 1.356 . S
N902 H908 0.984 . S
N902 H909 0.984 . S
N903 C896 1.356 . S
N903 H906 0.984 . S
N903 H907 0.985 . S
H904 N899 0.984 1_556 S
H905 N899 0.985 . S
H906 N903 0.984 . S
H907 N903 0.985 . S
H908 N902 0.984 . S
H909 N902 0.984 . S
H910 N898 0.984 . S
H911 N898 0.985 1_554 S
C912 C913 1.363 . S
C912 C918 1.379 . S
C912 N920 1.356 . S
C913 C912 1.363 . S
C913 C919 1.363 . S
C914 C915 1.363 . S
C914 C919 1.379 . S
C914 N921 1.356 . S
C915 C914 1.363 . S
C915 C918 1.363 . S
N916 C918 1.356 . S
N916 H928 0.984 . S
N916 H929 0.985 . S
N917 C919 1.356 . S
N917 H922 0.984 . S
N917 H923 0.985 . S
C918 C912 1.379 . S
C918 C915 1.363 . S
C918 N916 1.356 . S
C919 C913 1.363 . S
C919 C914 1.379 . S
C919 N917 1.356 . S
N920 C912 1.356 . S
N920 H926 0.984 . S
N920 H927 0.984 . S
N921 C914 1.356 . S
N921 H924 0.984 . S
N921 H925 0.985 . S
H922 N917 0.984 . S
H923 N917 0.985 . S
H924 N921 0.984 . S
H925 N921 0.985 . S
H926 N920 0.984 . S
H927 N920 0.984 . S
H928 N916 0.984 . S
H929 N916 0.985 . S
C930 C931 1.363 . S
C930 C936 1.379 . S
C930 N938 1.356 . S
C931 C930 1.363 . S
C931 C937 1.363 . S
C932 C933 1.363 . S
C932 C937 1.379 . S
C932 N939 1.356 . S
C933 C932 1.363 . S
C933 C936 1.363 . S
N934 C936 1.356 . S
N934 H946 0.984 . S
N934 H947 0.985 . S
N935 C937 1.356 . S
N935 H940 0.984 . S
N935 H941 0.985 . S
C936 C930 1.379 . S
C936 C933 1.363 . S
C936 N934 1.356 . S
C937 C931 1.363 . S
C937 C932 1.379 . S
C937 N935 1.356 . S
N938 C930 1.356 . S
N938 H944 0.984 . S
N938 H945 0.984 . S
N939 C932 1.356 . S
N939 H942 0.984 . S
N939 H943 0.985 . S
H940 N935 0.984 . S
H941 N935 0.985 . S
H942 N939 0.984 . S
H943 N939 0.985 . S
H944 N938 0.984 . S
H945 N938 0.984 . S
H946 N934 0.984 . S
H947 N934 0.985 . S
C948 C949 1.363 . S
C948 C954 1.379 . S
C948 N956 1.356 . S
C949 C948 1.363 . S
C949 C955 1.363 . S
C950 C951 1.363 . S
C950 C955 1.379 . S
C950 N957 1.356 . S
C951 C950 1.363 . S
C951 C954 1.363 . S
N952 C954 1.356 . S
N952 H964 0.984 . S
N952 H965 0.985 . S
N953 C955 1.356 . S
N953 H958 0.984 . S
N953 H959 0.985 . S
C954 C948 1.379 . S
C954 C951 1.363 . S
C954 N952 1.356 . S
C955 C949 1.363 . S
C955 C950 1.379 . S
C955 N953 1.356 . S
N956 C948 1.356 . S
N956 H962 0.984 . S
N956 H963 0.984 . S
N957 C950 1.356 . S
N957 H960 0.984 . S
N957 H961 0.985 . S
H958 N953 0.984 . S
H959 N953 0.985 . S
H960 N957 0.984 . S
H961 N957 0.985 . S
H962 N956 0.984 . S
H963 N956 0.984 . S
H964 N952 0.984 . S
H965 N952 0.985 . S
C966 C967 1.363 . S
C966 C972 1.379 . S
C966 N974 1.356 . S
C967 C966 1.363 . S
C967 C973 1.363 . S
C968 C969 1.363 . S
C968 C973 1.379 . S
C968 N975 1.356 . S
C969 C968 1.363 . S
C969 C972 1.363 . S
N970 C972 1.356 1_556 S
N970 H982 0.984 . S
N970 H983 0.985 . S
N971 C973 1.356 . S
N971 H976 0.984 . S
N971 H977 0.985 . S
C972 C966 1.379 . S
C972 C969 1.363 . S
C972 N970 1.356 1_554 S
C973 C967 1.363 . S
C973 C968 1.379 . S
C973 N971 1.356 . S
N974 C966 1.356 . S
N974 H980 0.984 . S
N974 H981 0.984 . S
N975 C968 1.356 . S
N975 H978 0.984 . S
N975 H979 0.985 . S
H976 N971 0.984 . S
H977 N971 0.985 . S
H978 N975 0.984 . S
H979 N975 0.985 . S
H980 N974 0.984 . S
H981 N974 0.984 . S
H982 N970 0.984 . S
H983 N970 0.985 . S
C984 C985 1.363 . S
C984 C990 1.379 . S
C984 N992 1.356 . S
C985 C984 1.363 . S
C985 C991 1.363 . S
C986 C987 1.363 . S
C986 C991 1.379 . S
C986 N993 1.356 . S
C987 C986 1.363 . S
C987 C990 1.363 . S
N988 C990 1.356 . S
N988 H1000 0.984 . S
N988 H1001 0.985 . S
N989 C991 1.356 . S
N989 H994 0.984 . S
N989 H995 0.985 . S
C990 C984 1.379 . S
C990 C987 1.363 . S
C990 N988 1.356 . S
C991 C985 1.363 . S
C991 C986 1.379 . S
C991 N989 1.356 . S
N992 C984 1.356 . S
N992 H998 0.984 . S
N992 H999 0.984 . S
N993 C986 1.356 . S
N993 H996 0.984 . S
N993 H997 0.985 . S
H994 N989 0.984 . S
H995 N989 0.985 . S
H996 N993 0.984 . S
H997 N993 0.985 . S
H998 N992 0.984 . S
H999 N992 0.984 . S
H1000 N988 0.984 . S
H1001 N988 0.985 . S
C1002 C1003 1.363 . S
C1002 C1008 1.379 . S
C1002 N1010 1.356 . S
C1003 C1002 1.363 . S
C1003 C1009 1.363 . S
C1004 C1005 1.363 . S
C1004 C1009 1.379 . S
C1004 N1011 1.356 . S
C1005 C1004 1.363 . S
C1005 C1008 1.363 . S
N1006 C1008 1.356 . S
N1006 H1018 0.984 . S
N1006 H1019 0.985 . S
N1007 C1009 1.356 . S
N1007 H1012 0.984 . S
N1007 H1013 0.985 . S
C1008 C1002 1.379 . S
C1008 C1005 1.363 . S
C1008 N1006 1.356 . S
C1009 C1003 1.363 . S
C1009 C1004 1.379 . S
C1009 N1007 1.356 . S
N1010 C1002 1.356 . S
N1010 H1016 0.984 . S
N1010 H1017 0.984 . S
N1011 C1004 1.356 . S
N1011 H1014 0.984 . S
N1011 H1015 0.985 . S
H1012 N1007 0.984 . S
H1013 N1007 0.985 . S
H1014 N1011 0.984 . S
H1015 N1011 0.985 . S
H1016 N1010 0.984 . S
H1017 N1010 0.984 . S
H1018 N1006 0.984 . S
H1019 N1006 0.985 . S
C1020 C1021 1.363 . S
C1020 C1026 1.379 . S
C1020 N1028 1.356 1_554 S
C1021 C1020 1.363 . S
C1021 C1027 1.363 . S
C1022 C1023 1.363 . S
C1022 C1027 1.379 . S
C1022 N1029 1.356 . S
C1023 C1022 1.363 . S
C1023 C1026 1.363 . S
N1024 C1026 1.356 . S
N1024 H1036 0.984 . S
N1024 H1037 0.985 . S
N1025 C1027 1.356 . S
N1025 H1030 0.984 . S
N1025 H1031 0.985 . S
C1026 C1020 1.379 . S
C1026 C1023 1.363 . S
C1026 N1024 1.356 . S
C1027 C1021 1.363 . S
C1027 C1022 1.379 . S
C1027 N1025 1.356 . S
N1028 C1020 1.356 1_556 S
N1028 H1034 0.984 . S
N1028 H1035 0.984 . S
N1029 C1022 1.356 . S
N1029 H1032 0.984 . S
N1029 H1033 0.985 . S
H1030 N1025 0.984 . S
H1031 N1025 0.985 . S
H1032 N1029 0.984 . S
H1033 N1029 0.985 . S
H1034 N1028 0.984 . S
H1035 N1028 0.984 . S
H1036 N1024 0.984 . S
H1037 N1024 0.985 . S
C1038 C1039 1.363 . S
C1038 C1044 1.379 . S
C1038 N1046 1.356 . S
C1039 C1038 1.363 . S
C1039 C1045 1.363 . S
C1040 C1041 1.363 . S
C1040 C1045 1.379 . S
C1040 N1047 1.356 1_556 S
C1041 C1040 1.363 . S
C1041 C1044 1.363 . S
N1042 C1044 1.356 . S
N1042 H1054 0.984 . S
N1042 H1055 0.985 . S
N1043 C1045 1.356 . S
N1043 H1048 0.984 . S
N1043 H1049 0.985 . S
C1044 C1038 1.379 . S
C1044 C1041 1.363 . S
C1044 N1042 1.356 . S
C1045 C1039 1.363 . S
C1045 C1040 1.379 . S
C1045 N1043 1.356 . S
N1046 C1038 1.356 . S
N1046 H1052 0.984 . S
N1046 H1053 0.984 . S
N1047 C1040 1.356 1_554 S
N1047 H1050 0.984 . S
N1047 H1051 0.985 . S
H1048 N1043 0.984 . S
H1049 N1043 0.985 . S
H1050 N1047 0.984 . S
H1051 N1047 0.985 . S
H1052 N1046 0.984 . S
H1053 N1046 0.984 . S
H1054 N1042 0.984 . S
H1055 N1042 0.985 . S
C1056 C1057 1.363 . S
C1056 C1062 1.379 . S
C1056 N1064 1.356 . S
C1057 C1056 1.363 . S
C1057 C1063 1.363 . S
C1058 C1059 1.363 . S
C1058 C1063 1.379 . S
C1058 N1065 1.356 . S
C1059 C1058 1.363 . S
C1059 C1062 1.363 . S
N1060 C1062 1.356 . S
N1060 H1072 0.984 . S
N1060 H1073 0.985 . S
N1061 C1063 1.356 . S
N1061 H1066 0.984 . S
N1061 H1067 0.985 . S
C1062 C1056 1.379 . S
C1062 C1059 1.363 . S
C1062 N1060 1.356 . S
C1063 C1057 1.363 . S
C1063 C1058 1.379 . S
C1063 N1061 1.356 . S
N1064 C1056 1.356 . S
N1064 H1070 0.984 . S
N1064 H1071 0.984 . S
N1065 C1058 1.356 . S
N1065 H1068 0.984 1_556 S
N1065 H1069 0.985 . S
H1066 N1061 0.984 . S
H1067 N1061 0.985 . S
H1068 N1065 0.984 1_554 S
H1069 N1065 0.985 . S
H1070 N1064 0.984 . S
H1071 N1064 0.984 . S
H1072 N1060 0.984 . S
H1073 N1060 0.985 . S
C1074 C1075 1.363 . S
C1074 C1080 1.379 . S
C1074 N1082 1.356 . S
C1075 C1074 1.363 . S
C1075 C1081 1.363 . S
C1076 C1077 1.363 . S
C1076 C1081 1.379 . S
C1076 N1083 1.356 1_554 S
C1077 C1076 1.363 . S
C1077 C1080 1.363 . S
N1078 C1080 1.356 . S
N1078 H1090 0.984 . S
N1078 H1091 0.985 . S
N1079 C1081 1.356 . S
N1079 H1084 0.984 . S
N1079 H1085 0.985 . S
C1080 C1074 1.379 . S
C1080 C1077 1.363 . S
C1080 N1078 1.356 . S
C1081 C1075 1.363 . S
C1081 C1076 1.379 . S
C1081 N1079 1.356 . S
N1082 C1074 1.356 . S
N1082 H1088 0.984 . S
N1082 H1089 0.984 . S
N1083 C1076 1.356 1_556 S
N1083 H1086 0.984 . S
N1083 H1087 0.985 . S
H1084 N1079 0.984 . S
H1085 N1079 0.985 . S
H1086 N1083 0.984 . S
H1087 N1083 0.985 . S
H1088 N1082 0.984 . S
H1089 N1082 0.984 . S
H1090 N1078 0.984 . S
H1091 N1078 0.985 . S
C1092 C1093 1.363 . S
C1092 C1098 1.379 . S
C1092 N1100 1.356 . S
C1093 C1092 1.363 . S
C1093 C1099 1.363 . S
C1094 C1095 1.363 . S
C1094 C1099 1.379 . S
C1094 N1101 1.356 . S
C1095 C1094 1.363 . S
C1095 C1098 1.363 . S
N1096 C1098 1.356 . S
N1096 H1108 0.984 . S
N1096 H1109 0.985 . S
N1097 C1099 1.356 . S
N1097 H1102 0.984 . S
N1097 H1103 0.985 . S
C1098 C1092 1.379 . S
C1098 C1095 1.363 . S
C1098 N1096 1.356 . S
C1099 C1093 1.363 . S
C1099 C1094 1.379 . S
C1099 N1097 1.356 . S
N1100 C1092 1.356 . S
N1100 H1106 0.984 . S
N1100 H1107 0.984 . S
N1101 C1094 1.356 . S
N1101 H1104 0.984 . S
N1101 H1105 0.985 . S
H1102 N1097 0.984 . S
H1103 N1097 0.985 . S
H1104 N1101 0.984 . S
H1105 N1101 0.985 . S
H1106 N1100 0.984 . S
H1107 N1100 0.984 . S
H1108 N1096 0.984 . S
H1109 N1096 0.985 . S
C1110 C1111 1.363 . S
C1110 C1116 1.379 . S
C1110 N1118 1.356 . S
C1111 C1110 1.363 . S
C1111 C1117 1.363 . S
C1112 C1113 1.363 . S
C1112 C1117 1.379 . S
C1112 N1119 1.356 . S
C1113 C1112 1.363 . S
C1113 C1116 1.363 . S
N1114 C1116 1.356 . S
N1114 H1126 0.984 . S
N1114 H1127 0.985 . S
N1115 C1117 1.356 . S
N1115 H1120 0.984 . S
N1115 H1121 0.985 . S
C1116 C1110 1.379 . S
C1116 C1113 1.363 . S
C1116 N1114 1.356 . S
C1117 C1111 1.363 . S
C1117 C1112 1.379 . S
C1117 N1115 1.356 . S
N1118 C1110 1.356 . S
N1118 H1124 0.984 . S
N1118 H1125 0.984 . S
N1119 C1112 1.356 . S
N1119 H1122 0.984 . S
N1119 H1123 0.985 . S
H1120 N1115 0.984 . S
H1121 N1115 0.985 . S
H1122 N1119 0.984 . S
H1123 N1119 0.985 . S
H1124 N1118 0.984 . S
H1125 N1118 0.984 . S
H1126 N1114 0.984 . S
H1127 N1114 0.985 . S
C1128 C1129 1.363 . S
C1128 C1134 1.379 . S
C1128 N1136 1.356 . S
C1129 C1128 1.363 . S
C1129 C1135 1.363 . S
C1130 C1131 1.363 . S
C1130 C1135 1.379 . S
C1130 N1137 1.356 . S
C1131 C1130 1.363 . S
C1131 C1134 1.363 . S
N1132 C1134 1.356 . S
N1132 H1144 0.984 . S
N1132 H1145 0.985 . S
N1133 C1135 1.356 . S
N1133 H1138 0.984 . S
N1133 H1139 0.985 . S
C1134 C1128 1.379 . S
C1134 C1131 1.363 . S
C1134 N1132 1.356 . S
C1135 C1129 1.363 . S
C1135 C1130 1.379 . S
C1135 N1133 1.356 . S
N1136 C1128 1.356 . S
N1136 H1142 0.984 . S
N1136 H1143 0.984 . S
N1137 C1130 1.356 . S
N1137 H1140 0.984 . S
N1137 H1141 0.985 . S
H1138 N1133 0.984 . S
H1139 N1133 0.985 . S
H1140 N1137 0.984 . S
H1141 N1137 0.985 . S
H1142 N1136 0.984 . S
H1143 N1136 0.984 . S
H1144 N1132 0.984 . S
H1145 N1132 0.985 . S
C1146 C1147 1.363 . S
C1146 C1152 1.379 . S
C1146 N1154 1.356 1_556 S
C1147 C1146 1.363 . S
C1147 C1153 1.363 . S
C1148 C1149 1.363 . S
C1148 C1153 1.379 . S
C1148 N1155 1.356 . S
C1149 C1148 1.363 . S
C1149 C1152 1.363 . S
N1150 C1152 1.356 . S
N1150 H1162 0.984 . S
N1150 H1163 0.985 . S
N1151 C1153 1.356 . S
N1151 H1156 0.984 . S
N1151 H1157 0.985 . S
C1152 C1146 1.379 . S
C1152 C1149 1.363 . S
C1152 N1150 1.356 . S
C1153 C1147 1.363 . S
C1153 C1148 1.379 . S
C1153 N1151 1.356 . S
N1154 C1146 1.356 1_554 S
N1154 H1160 0.984 . S
N1154 H1161 0.984 . S
N1155 C1148 1.356 . S
N1155 H1158 0.984 . S
N1155 H1159 0.985 . S
H1156 N1151 0.984 . S
H1157 N1151 0.985 . S
H1158 N1155 0.984 . S
H1159 N1155 0.985 . S
H1160 N1154 0.984 . S
H1161 N1154 0.984 . S
H1162 N1150 0.984 . S
H1163 N1150 0.985 . S
C1164 C1165 1.363 . S
C1164 C1170 1.379 . S
C1164 N1172 1.356 . S
C1165 C1164 1.363 . S
C1165 C1171 1.363 . S
C1166 C1167 1.363 . S
C1166 C1171 1.379 . S
C1166 N1173 1.356 . S
C1167 C1166 1.363 . S
C1167 C1170 1.363 . S
N1168 C1170 1.356 . S
N1168 H1180 0.984 . S
N1168 H1181 0.985 . S
N1169 C1171 1.356 . S
N1169 H1174 0.984 . S
N1169 H1175 0.985 . S
C1170 C1164 1.379 . S
C1170 C1167 1.363 . S
C1170 N1168 1.356 . S
C1171 C1165 1.363 . S
C1171 C1166 1.379 . S
C1171 N1169 1.356 . S
N1172 C1164 1.356 . S
N1172 H1178 0.984 . S
N1172 H1179 0.984 . S
N1173 C1166 1.356 . S
N1173 H1176 0.984 . S
N1173 H1177 0.985 . S
H1174 N1169 0.984 . S
H1175 N1169 0.985 . S
H1176 N1173 0.984 . S
H1177 N1173 0.985 . S
H1178 N1172 0.984 . S
H1179 N1172 0.984 . S
H1180 N1168 0.984 . S
H1181 N1168 0.985 . S
C1182 C1183 1.363 . S
C1182 C1188 1.379 . S
C1182 N1190 1.356 . S
C1183 C1182 1.363 . S
C1183 C1189 1.363 . S
C1184 C1185 1.363 . S
C1184 C1189 1.379 . S
C1184 N1191 1.356 . S
C1185 C1184 1.363 . S
C1185 C1188 1.363 . S
N1186 C1188 1.356 . S
N1186 H1198 0.984 . S
N1186 H1199 0.985 . S
N1187 C1189 1.356 . S
N1187 H1192 0.984 . S
N1187 H1193 0.985 . S
C1188 C1182 1.379 . S
C1188 C1185 1.363 . S
C1188 N1186 1.356 . S
C1189 C1183 1.363 . S
C1189 C1184 1.379 . S
C1189 N1187 1.356 . S
N1190 C1182 1.356 . S
N1190 H1196 0.984 . S
N1190 H1197 0.984 . S
N1191 C1184 1.356 . S
N1191 H1194 0.984 . S
N1191 H1195 0.985 . S
H1192 N1187 0.984 . S
H1193 N1187 0.985 . S
H1194 N1191 0.984 . S
H1195 N1191 0.985 . S
H1196 N1190 0.984 . S
H1197 N1190 0.984 . S
H1198 N1186 0.984 . S
H1199 N1186 0.985 . S
C337 C14 1.458 . S
C339 C164 1.458 . S
C355 C38 1.458 . S
C357 C98 1.458 . S
C373 C119 1.458 . S
C375 C56 1.458 . S
C391 C77 1.458 . S
C393 C140 1.458 . S
C409 C249 1.332 . S
C411 C102 1.332 . S
C427 C186 1.332 . S
C429 C18 1.332 . S
C445 C225 1.332 . S
C447 C144 1.332 . S
C463 C60 1.332 . S
C465 C204 1.332 . S
C481 C206 1.458 . S
C483 C266 1.458 . S
C499 C227 1.458 . S
C501 C308 1.458 . S
C517 C287 1.458 . S
C519 C182 1.458 . S
C535 C245 1.458 . S
C537 C329 1.458 . S
C553 C312 1.332 . S
C555 C81 1.332 . S
C571 C270 1.332 . S
C573 C123 1.332 . S
C589 C36 1.332 . S
C591 C333 1.332 . S
C607 C162 1.332 . S
C609 C291 1.332 . S
C625 C286 0.726 . S
C627 C13 0.726 . S
C643 C244 0.726 . S
C645 C37 0.726 . S
C661 C265 0.726 . S
C663 C55 0.726 . S
C679 C226 0.726 . S
C681 C76 0.726 . S
C697 C97 0.726 . S
C699 C328 0.726 . S
C715 C205 0.726 . S
C717 C118 0.726 . S
C733 C139 0.726 . S
C735 C307 0.726 . S
C751 C163 0.726 . S
C753 C181 0.726 . S
C769 C16 1.344 . S
C771 C100 1.344 . S
C787 C34 1.344 . S
C789 C121 1.344 . S
C805 C142 1.345 . S
C807 C58 1.345 . S
C823 C79 1.344 . S
C825 C160 1.344 . S
C841 C223 1.344 . S
C843 C184 1.344 . S
C859 C247 1.344 . S
C861 C202 1.344 . S
C877 C268 1.345 . S
C879 C310 1.345 . S
C895 C331 1.344 . S
C897 C289 1.344 . S
C913 C17 1.565 . S
C915 C161 1.565 . S
C931 C35 1.565 . S
C933 C101 1.565 . S
C949 C122 1.565 . S
C951 C59 1.565 . S
C967 C143 1.565 . S
C969 C80 1.565 . S
C985 C246 1.474 . S
C987 C99 1.474 . S
C1003 C183 1.474 . S
C1005 C15 1.474 . S
C1021 C228 1.474 . S
C1023 C141 1.474 . S
C1039 C57 1.474 . S
C1041 C207 1.474 . S
C1057 C269 1.565 . S
C1059 C203 1.565 . S
C1075 C311 1.565 . S
C1077 C224 1.565 . S
C1093 C290 1.565 . S
C1095 C185 1.565 . S
C1111 C332 1.565 . S
C1113 C248 1.565 . S
C1129 C309 1.474 . S
C1131 C78 1.474 . S
C1147 C120 1.474 . S
C1149 C267 1.474 . S
C1165 C39 1.474 . S
C1167 C330 1.474 . S
C1183 C288 1.474 . S
C1185 C165 1.474 . S
