# Generated by pormake.
# Topology svj, (7)-cn, num edge types: 1
# Building blocks:
#     Node 0, Type 0, BuildingBlock: HICVOG_clean_sbu_0, # of connection points: 7
#     Node 1, Type 0, BuildingBlock: HICVOG_clean_sbu_0, # of connection points: 7
#     Node 2, Type 0, BuildingBlock: HICVOG_clean_sbu_0, # of connection points: 7
#     Node 3, Type 0, BuildingBlock: HICVOG_clean_sbu_0, # of connection points: 7
#     Node 4, Type 0, BuildingBlock: HICVOG_clean_sbu_0, # of connection points: 7
#     Node 5, Type 0, BuildingBlock: HICVOG_clean_sbu_0, # of connection points: 7
#     Edge 6, Type (0, 0), BuildingBlock: KIFKEQ_clean_linker_1, # of connection points: 2
#     Edge 7, Type (0, 0), BuildingBlock: KIFKEQ_clean_linker_1, # of connection points: 2
#     Edge 8, Type (0, 0), BuildingBlock: KIFKEQ_clean_linker_1, # of connection points: 2
#     Edge 9, Type (0, 0), BuildingBlock: KIFKEQ_clean_linker_1, # of connection points: 2
#     Edge 10, Type (0, 0), BuildingBlock: KIFKEQ_clean_linker_1, # of connection points: 2
#     Edge 11, Type (0, 0), BuildingBlock: KIFKEQ_clean_linker_1, # of connection points: 2
#     Edge 12, Type (0, 0), BuildingBlock: KIFKEQ_clean_linker_1, # of connection points: 2
#     Edge 13, Type (0, 0), BuildingBlock: KIFKEQ_clean_linker_1, # of connection points: 2
#     Edge 14, Type (0, 0), BuildingBlock: KIFKEQ_clean_linker_1, # of connection points: 2
#     Edge 15, Type (0, 0), BuildingBlock: KIFKEQ_clean_linker_1, # of connection points: 2
#     Edge 16, Type (0, 0), BuildingBlock: KIFKEQ_clean_linker_1, # of connection points: 2
#     Edge 17, Type (0, 0), BuildingBlock: KIFKEQ_clean_linker_1, # of connection points: 2
#     Edge 18, Type (0, 0), BuildingBlock: KIFKEQ_clean_linker_1, # of connection points: 2
#     Edge 19, Type (0, 0), BuildingBlock: KIFKEQ_clean_linker_1, # of connection points: 2
#     Edge 20, Type (0, 0), BuildingBlock: KIFKEQ_clean_linker_1, # of connection points: 2
#     Edge 21, Type (0, 0), BuildingBlock: KIFKEQ_clean_linker_1, # of connection points: 2
#     Edge 22, Type (0, 0), BuildingBlock: KIFKEQ_clean_linker_1, # of connection points: 2
#     Edge 23, Type (0, 0), BuildingBlock: KIFKEQ_clean_linker_1, # of connection points: 2
#     Edge 24, Type (0, 0), BuildingBlock: KIFKEQ_clean_linker_1, # of connection points: 2
#     Edge 25, Type (0, 0), BuildingBlock: KIFKEQ_clean_linker_1, # of connection points: 2
#     Edge 26, Type (0, 0), BuildingBlock: KIFKEQ_clean_linker_1, # of connection points: 2
# Relax obj value: 0.274
# Max RMSD: 0.258
# Mean RMSD: 0.241
data_MOF--net-svj--node1-HICVOG_clean_sbu_0--edge1-KIFKEQ_clean_linker_1
_symmetry_space_group_name_H-M    P1
_symmetry_Int_Tables_number       1
_symmetry_cell_setting            triclinic
loop_
_symmetry_equiv_pos_as_xyz
'x, y, z'
_cell_length_a     41.256424
_cell_length_b     41.426328
_cell_length_c     20.522043
_cell_angle_alpha  90.10307
_cell_angle_beta   89.782862
_cell_angle_gamma 119.96815
loop_
_atom_site_label
_atom_site_type_symbol
_atom_site_fract_x
_atom_site_fract_y
_atom_site_fract_z
_atom_type_partial_charge
Zn0 Zn 0.20834 0.45063 0.96957 0.0
C1 C 0.12384 0.45426 0.05672 0.0
N2 N 0.13249 0.48171 0.01347 0.0
C3 C 0.16453 0.4868 0.98688 0.0
N4 N 0.17479 0.4633 0.01241 0.0
N5 N 0.14974 0.44331 0.05738 0.0
C6 C 0.08374 0.34545 0.17973 0.0
O7 O 0.10375 0.33801 0.22019 0.0
O8 O 0.25395 0.49621 0.9333 0.0
Zn9 Zn 0.15388 0.4118 0.12246 0.0
N10 N 0.1799 0.41673 0.90094 0.0
C11 C 0.13395 0.35504 0.87187 0.0
C12 C 0.15587 0.38098 0.91887 0.0
C13 C 0.18283 0.42788 0.83792 0.0
N14 N 0.13703 0.36595 0.80879 0.0
C15 C 0.16097 0.4017 0.78992 0.0
O16 O 0.18775 0.38951 0.10342 0.0
C17 C 0.21696 0.39889 0.06884 0.0
O18 O 0.22686 0.42298 0.02364 0.0
H19 H 0.15365 0.37284 0.96946 0.0
H20 H 0.20149 0.45686 0.82621 0.0
C21 C 0.16761 0.43407 0.25898 0.0
C22 C 0.18745 0.4596 0.30916 0.0
C23 C 0.22622 0.50387 0.22959 0.0
C24 C 0.20693 0.47835 0.18042 0.0
N25 N 0.17789 0.44414 0.1959 0.0
N26 N 0.21612 0.49392 0.2925 0.0
H27 H 0.14409 0.40684 0.26934 0.0
C28 C 0.27963 0.4929 0.90509 0.0
O29 O 0.27484 0.45936 0.89639 0.0
O30 O 0.09998 0.37268 0.14048 0.0
H31 H 0.21499 0.48571 0.13007 0.0
H32 H 0.11462 0.32646 0.88531 0.0
H33 H 0.24922 0.5313 0.21799 0.0
Zn34 Zn 0.65525 0.11845 0.2704 0.0
C35 C 0.72549 0.21966 0.23579 0.0
N36 N 0.70073 0.22556 0.26903 0.0
C37 C 0.66914 0.1923 0.26624 0.0
N38 N 0.67472 0.16722 0.23353 0.0
N39 N 0.70954 0.18468 0.21175 0.0
C40 C 0.8013 0.18541 0.15944 0.0
O41 O 0.78456 0.15257 0.18771 0.0
O42 O 0.59985 0.09496 0.28855 0.0
Zn43 Zn 0.72483 0.16728 0.13535 0.0
N44 N 0.6853 0.12361 0.34738 0.0
C45 C 0.74441 0.1317 0.3783 0.0
C46 C 0.71889 0.12744 0.33042 0.0
C47 C 0.67626 0.12444 0.41134 0.0
N48 N 0.73554 0.13234 0.4417 0.0
C49 C 0.70229 0.12897 0.46055 0.0
O50 O 0.70654 0.11093 0.13549 0.0
C51 C 0.68113 0.08173 0.16398 0.0
O52 O 0.66143 0.08348 0.21028 0.0
H53 H 0.72579 0.12725 0.27962 0.0
H54 H 0.64929 0.1213 0.42332 0.0
C55 C 0.70713 0.16843 0.9955 0.0
C56 C 0.69056 0.17733 0.94326 0.0
C57 C 0.66728 0.20433 0.019 0.0
C58 C 0.68359 0.19558 0.06993 0.0
N59 N 0.70345 0.17805 0.05784 0.0
N60 N 0.67119 0.19514 0.95734 0.0
H61 H 0.72313 0.15463 0.98685 0.0
C62 C 0.58139 0.09175 0.23715 0.0
O63 O 0.59936 0.10335 0.18151 0.0
O64 O 0.78153 0.19702 0.13168 0.0
H65 H 0.68068 0.20329 0.1188 0.0
H66 H 0.7712 0.13466 0.36526 0.0
H67 H 0.65164 0.21845 0.02834 0.0
Zn68 Zn 0.61022 0.74429 0.10509 0.0
C69 C 0.53792 0.67826 0.96753 0.0
N70 N 0.54221 0.65223 0.99897 0.0
C71 C 0.56973 0.67256 0.0413 0.0
N72 N 0.58124 0.7092 0.0373 0.0
N73 N 0.56134 0.71278 0.99048 0.0
C74 C 0.50461 0.75817 0.96916 0.0
O75 O 0.51692 0.75893 0.02841 0.0
O76 O 0.65267 0.73476 0.12686 0.0
Zn77 Zn 0.57089 0.7584 0.95073 0.0
N78 N 0.5758 0.72976 0.17742 0.0
C79 C 0.5131 0.70757 0.21193 0.0
C80 C 0.53965 0.71862 0.16248 0.0
C81 C 0.58672 0.73074 0.24014 0.0
N82 N 0.52392 0.7088 0.27459 0.0
C83 C 0.5601 0.72032 0.29067 0.0
O84 O 0.59647 0.80338 1.00781 0.0
C85 C 0.61834 0.81844 0.05571 0.0
O86 O 0.6287 0.8001 0.09153 0.0
H87 H 0.53146 0.71803 0.1124 0.0
H88 H 0.61565 0.73931 0.24986 0.0
C89 C 0.59331 0.75619 0.81811 0.0
C90 C 0.61999 0.76325 0.76895 0.0
C91 C 0.66836 0.79183 0.84769 0.0
C92 C 0.64189 0.78506 0.8958 0.0
N93 N 0.60503 0.76758 0.88003 0.0
N94 N 0.65685 0.78087 0.78569 0.0
H95 H 0.56362 0.74133 0.80825 0.0
C96 C 0.67357 0.73483 0.08099 0.0
O97 O 0.66911 0.74448 0.02219 0.0
O98 O 0.52325 0.7563 0.92131 0.0
H99 H 0.65055 0.79338 0.94559 0.0
H100 H 0.48416 0.69835 0.20075 0.0
H101 H 0.69783 0.80565 0.85944 0.0
Zn102 Zn 0.89468 0.52939 0.25148 0.0
C103 C 0.80341 0.49677 0.1455 0.0
N104 N 0.80086 0.46304 0.14687 0.0
C105 C 0.83355 0.47049 0.17357 0.0
N106 N 0.85451 0.50661 0.18975 0.0
N107 N 0.83655 0.52353 0.16915 0.0
C108 C 0.82994 0.61067 0.1386 0.0
O109 O 0.8481 0.61538 0.19342 0.0
O110 O 0.91681 0.49569 0.26358 0.0
Zn111 Zn 0.86486 0.56749 0.11636 0.0
N112 N 0.87424 0.53998 0.32935 0.0
C113 C 0.84298 0.57273 0.36099 0.0
C114 C 0.85958 0.56187 0.3135 0.0
C115 C 0.87403 0.52928 0.39239 0.0
N116 N 0.84253 0.56211 0.4234 0.0
C117 C 0.85774 0.5409 0.4414 0.0
O118 O 0.91438 0.60744 0.15531 0.0
C119 C 0.94056 0.60811 0.18937 0.0
O120 O 0.93605 0.57967 0.221 0.0
H121 H 0.86102 0.57102 0.26392 0.0
H122 H 0.88612 0.51206 0.4038 0.0
C123 C 0.86918 0.54764 0.97725 0.0
C124 C 0.88327 0.53304 0.92945 0.0
C125 C 0.91854 0.52399 0.0114 0.0
C126 C 0.9049 0.53857 0.05785 0.0
N127 N 0.88044 0.54997 0.04046 0.0
N128 N 0.90749 0.52162 0.94875 0.0
H129 H 0.8493 0.55643 0.96496 0.0
C130 C 0.95039 0.50914 0.2827 0.0
O131 O 0.96843 0.54376 0.30352 0.0
O132 O 0.83269 0.59056 0.09431 0.0
H133 H 0.91358 0.54053 0.10795 0.0
H134 H 0.83091 0.58984 0.34855 0.0
H135 H 0.93781 0.51462 0.02493 0.0
Zn136 Zn 0.28062 0.87421 0.14174 0.0
C137 C 0.34121 0.86332 0.99755 0.0
N138 N 0.3681 0.89657 0.01939 0.0
C139 C 0.34985 0.90565 0.06364 0.0
N140 N 0.31356 0.87899 0.06963 0.0
N141 N 0.30806 0.85294 0.02665 0.0
C142 C 0.25198 0.74677 0.99786 0.0
O143 O 0.24659 0.7531 0.05861 0.0
O144 O 0.29412 0.9268 0.16676 0.0
Zn145 Zn 0.26079 0.81837 0.98893 0.0
N146 N 0.29299 0.85125 0.21236 0.0
C147 C 0.31561 0.81103 0.24479 0.0
C148 C 0.30675 0.82857 0.19605 0.0
C149 C 0.28721 0.85675 0.27577 0.0
N150 N 0.31 0.81655 0.308 0.0
C151 C 0.296 0.83895 0.32551 0.0
O152 O 0.21746 0.80173 0.04953 0.0
C153 C 0.20406 0.8106 0.09763 0.0
O154 O 0.22389 0.84013 0.13072 0.0
H155 H 0.31069 0.82401 0.14554 0.0
H156 H 0.27517 0.87411 0.28655 0.0
C157 C 0.2593 0.83967 0.85534 0.0
C158 C 0.25358 0.86013 0.80635 0.0
C159 C 0.23442 0.88813 0.88773 0.0
C160 C 0.24033 0.86799 0.93576 0.0
N161 N 0.25254 0.84419 0.91867 0.0
N162 N 0.24112 0.88373 0.8245 0.0
H163 H 0.26851 0.82004 0.84389 0.0
C164 C 0.29 0.94691 0.12459 0.0
O165 O 0.27378 0.93178 0.06902 0.0
O166 O 0.25956 0.77191 0.95548 0.0
H167 H 0.23526 0.87122 0.98644 0.0
H168 H 0.32666 0.79297 0.23256 0.0
H169 H 0.22464 0.90717 0.90051 0.0
Zn170 Zn 0.46999 0.30423 0.1455 0.0
C171 C 0.551 0.36866 0.26589 0.0
N172 N 0.55575 0.33913 0.27465 0.0
C173 C 0.52483 0.31089 0.24785 0.0
N174 N 0.50257 0.32271 0.22175 0.0
N175 N 0.51794 0.35833 0.23694 0.0
C176 C 0.52287 0.44441 0.23341 0.0
O177 O 0.51124 0.42257 0.18205 0.0
O178 O 0.44581 0.2478 0.14345 0.0
Zn179 Zn 0.48599 0.37347 0.27846 0.0
N180 N 0.50213 0.32589 0.06757 0.0
C181 C 0.56478 0.36119 0.0283 0.0
C182 C 0.53959 0.34439 0.07915 0.0
C183 C 0.48888 0.32366 1.00563 0.0
N184 N 0.55174 0.35881 0.96709 0.0
C185 C 0.5145 0.34055 0.95332 0.0
O186 O 0.44101 0.36105 0.22339 0.0
C187 C 0.42102 0.34119 0.17616 0.0
O188 O 0.4291 0.31944 0.1446 0.0
H189 H 0.55023 0.3462 0.1276 0.0
H190 H 0.45901 0.30853 0.99739 0.0
C191 C 0.47468 0.3544 0.42161 0.0
C192 C 0.45572 0.32791 0.47173 0.0
C193 C 0.421 0.28235 0.3911 0.0
C194 C 0.43963 0.30835 0.34229 0.0
N195 N 0.46585 0.34383 0.35794 0.0
N196 N 0.42939 0.2927 0.45416 0.0
H197 H 0.49555 0.38285 0.43279 0.0
C198 C 0.41163 0.22694 0.15919 0.0
O199 O 0.39172 0.24234 0.17625 0.0
O200 O 0.51462 0.42953 0.28968 0.0
H201 H 0.43316 0.30035 0.29175 0.0
H202 H 0.59459 0.376 0.03734 0.0
H203 H 0.4 0.25408 0.37906 0.0
H204 H 0.38638 0.36935 0.25127 0.0
H205 H 0.37864 0.31839 0.0638 0.0
H206 H 0.33331 0.37687 0.22417 0.0
H207 H 0.32492 0.32595 0.0366 0.0
H208 H 0.27005 0.39914 0.98864 0.0
H209 H 0.3153 0.37958 0.01352 0.0
H210 H 0.26519 0.34248 0.20358 0.0
H211 H 0.21975 0.36234 0.17882 0.0
C212 C 0.37323 0.35951 0.20424 0.0
C213 C 0.38711 0.3435 0.15948 0.0
C214 C 0.34245 0.36353 0.189 0.0
C215 C 0.32471 0.35197 0.12829 0.0
C216 C 0.33808 0.33535 0.08372 0.0
C217 C 0.36878 0.33089 0.09934 0.0
C218 C 0.26831 0.38642 0.03556 0.0
C219 C 0.24137 0.38264 0.08198 0.0
C220 C 0.29417 0.37493 0.04959 0.0
C221 C 0.29408 0.35962 0.11065 0.0
C222 C 0.26628 0.35453 0.15627 0.0
C223 C 0.24008 0.3657 0.14197 0.0
H224 H 0.0356 0.35047 0.09491 0.0
H225 H 0.03784 0.28829 0.26194 0.0
H226 H 0.96795 0.31228 0.09057 0.0
H227 H 0.96972 0.25068 0.25901 0.0
H228 H 0.85219 0.16444 0.19238 0.0
H229 H 0.91997 0.20319 0.19828 0.0
H230 H 0.91153 0.29931 0.14247 0.0
H231 H 0.84379 0.26014 0.13426 0.0
C232 C 0.02164 0.32879 0.13113 0.0
C233 C 0.04228 0.32236 0.17864 0.0
C234 C 0.98266 0.30699 0.1289 0.0
C235 C 0.9631 0.27825 0.17439 0.0
C236 C 0.98376 0.2721 0.22243 0.0
C237 C 0.02287 0.29382 0.22441 0.0
C238 C 0.86483 0.19384 0.18118 0.0
C239 C 0.8426 0.20912 0.16237 0.0
C240 C 0.90375 0.21618 0.18509 0.0
C241 C 0.92147 0.25452 0.17096 0.0
C242 C 0.89908 0.26982 0.1526 0.0
C243 C 0.86016 0.24738 0.14806 0.0
H244 H 0.67841 0.86922 0.12952 0.0
H245 H 0.58577 0.85773 0.01418 0.0
H246 H 0.69645 0.93444 0.15272 0.0
H247 H 0.60343 0.92191 0.03814 0.0
H248 H 0.61617 0.01603 0.17655 0.0
H249 H 0.60391 0.95362 0.14974 0.0
H250 H 0.71772 0.99908 0.08278 0.0
H251 H 0.73008 0.06232 0.1087 0.0
C252 C 0.66199 0.88052 0.10908 0.0
C253 C 0.63064 0.85816 0.07003 0.0
C254 C 0.67246 0.91784 0.122 0.0
C255 C 0.65128 0.93314 0.09721 0.0
C256 C 0.62018 0.91083 0.05804 0.0
C257 C 0.61017 0.87402 0.04425 0.0
C258 C 0.63865 0.01289 0.15592 0.0
C259 C 0.67408 0.0442 0.14452 0.0
C260 C 0.63157 0.9771 0.14054 0.0
C261 C 0.65988 0.97151 0.11439 0.0
C262 C 0.69549 1.00265 0.1033 0.0
C263 C 0.70242 0.03878 0.11755 0.0
H264 H 0.78816 0.60767 0.03213 0.0
H265 H 0.81948 0.6546 0.22529 0.0
H266 H 0.75068 0.63799 0.01902 0.0
H267 H 0.78282 0.68528 0.21177 0.0
H268 H 0.68209 0.70281 0.19165 0.0
H269 H 0.71886 0.67196 0.20479 0.0
H270 H 0.75794 0.69967 1.00611 0.0
H271 H 0.72063 0.72987 0.99257 0.0
C272 C 0.78717 0.62451 0.07166 0.0
C273 C 0.80692 0.62872 0.12966 0.0
C274 C 0.76585 0.64207 0.06406 0.0
C275 C 0.76372 0.66416 0.11434 0.0
C276 C 0.78336 0.66813 0.17236 0.0
C277 C 0.80464 0.65067 0.17991 0.0
C278 C 0.69885 0.7027 0.15098 0.0
C279 C 0.69854 0.71904 0.09117 0.0
C280 C 0.71996 0.68498 0.1585 0.0
C281 C 0.74135 0.6832 0.10644 0.0
C282 C 0.74138 0.69998 0.04692 0.0
C283 C 0.72025 0.71766 0.03939 0.0
H284 H 0.16504 0.73683 0.0706 0.0
H285 H 0.15438 0.82364 0.16821 0.0
H286 H 0.10141 0.6915 0.10156 0.0
H287 H 0.08943 0.77751 0.19829 0.0
H288 H 0.9614 0.67772 0.1403 0.0
H289 H 0.02524 0.73014 0.12579 0.0
H290 H 0.06913 0.66667 0.21823 0.0
H291 H 1.00593 0.61469 0.23364 0.0
C292 C 0.14903 0.74637 0.09836 0.0
C293 C 0.16484 0.78398 0.11678 0.0
C294 C 0.11261 0.72025 0.1164 0.0
C295 C 0.09065 0.73099 0.1525 0.0
C296 C 0.10593 0.76862 0.17038 0.0
C297 C 0.14299 0.79489 0.15337 0.0
C298 C 0.98462 0.67519 0.15857 0.0
C299 C 0.97845 0.64177 0.1876 0.0
C300 C 0.02109 0.70528 0.15057 0.0
C301 C 0.05198 0.70228 0.17066 0.0
C302 C 0.04575 0.6696 0.20214 0.0
C303 C 1.00946 0.63983 0.21095 0.0
H304 H 0.27327 0.99406 0.0599 0.0
H305 H 0.34498 0.99185 0.21049 0.0
H306 H 0.30309 0.06162 0.07081 0.0
H307 H 0.37529 0.05972 0.22065 0.0
H308 H 0.44628 0.18507 0.15359 0.0
H309 H 0.41655 0.11699 0.14905 0.0
H310 H 0.30773 0.10796 0.1562 0.0
H311 H 0.3372 0.17566 0.16111 0.0
C312 C 0.29527 1.00798 0.09559 0.0
C313 C 0.30661 0.98758 0.13456 0.0
C314 C 0.31229 0.04666 0.10192 0.0
C315 C 0.34151 0.06596 0.1466 0.0
C316 C 0.35296 0.04561 0.18558 0.0
C317 C 0.33542 1.00675 0.18009 0.0
C318 C 0.41602 0.16852 0.15423 0.0
C319 C 0.39409 0.18578 0.15737 0.0
C320 C 0.39903 0.12957 0.15208 0.0
C321 C 0.35981 0.10719 0.15204 0.0
C322 C 0.33799 0.12449 0.15555 0.0
C323 C 0.35491 0.16329 0.15863 0.0
H324 H 0.10718 0.36638 0.69782 0.0
H325 H 0.21986 0.45871 0.72207 0.0
H326 H 0.11055 0.38017 0.58184 0.0
H327 H 0.2227 0.47257 0.60665 0.0
H328 H 0.20207 0.5081 0.40909 0.0
H329 H 0.19377 0.49486 0.52534 0.0
H330 H 0.14606 0.37745 0.48532 0.0
H331 H 0.15468 0.39044 0.36912 0.0
C332 C 0.1326 0.38971 0.67871 0.0
C333 C 0.16302 0.41165 0.7199 0.0
C334 C 0.13448 0.39752 0.6122 0.0
C335 C 0.1668 0.42752 0.58529 0.0
C336 C 0.19714 0.44967 0.62629 0.0
C337 C 0.19537 0.44176 0.69276 0.0
C338 C 0.18962 0.47939 0.42487 0.0
C339 C 0.17889 0.4504 0.37932 0.0
C340 C 0.18497 0.47187 0.49155 0.0
C341 C 0.16942 0.43517 0.51437 0.0
C342 C 0.15771 0.406 0.46905 0.0
C343 C 0.16252 0.41351 0.40223 0.0
H344 H 0.65553 0.14984 0.52321 0.0
H345 H 0.73538 0.11353 0.5609 0.0
H346 H 0.65109 0.15822 0.63982 0.0
H347 H 0.73214 0.12348 0.67661 0.0
H348 H 0.69712 0.11898 0.89023 0.0
H349 H 0.69622 0.10371 0.77486 0.0
H350 H 0.68852 0.20064 0.72276 0.0
H351 H 0.68888 0.21549 0.83714 0.0
C352 C 0.67175 0.1431 0.55602 0.0
C353 C 0.69581 0.13092 0.53191 0.0
C354 C 0.66963 0.14846 0.62318 0.0
C355 C 0.69155 0.14191 0.66807 0.0
C356 C 0.71457 0.12854 0.64404 0.0
C357 C 0.71664 0.12314 0.57719 0.0
C358 C 0.69576 0.13731 0.8542 0.0
C359 C 0.69323 0.1686 0.87342 0.0
C360 C 0.69505 0.12845 0.78783 0.0
C361 C 0.69188 0.15069 0.73904 0.0
C362 C 0.69001 0.18225 0.75854 0.0
C363 C 0.69056 0.19097 0.8245 0.0
H364 H 0.66023 0.75089 0.67693 0.0
H365 H 0.55673 0.75221 0.70309 0.0
H366 H 0.6461 0.73716 0.56173 0.0
H367 H 0.54264 0.73791 0.58838 0.0
H368 H 0.51403 0.68064 0.3908 0.0
H369 H 0.52768 0.6875 0.50696 0.0
H370 H 0.64179 0.77192 0.46591 0.0
H371 H 0.62832 0.7657 0.35001 0.0
C372 C 0.63436 0.74802 0.65845 0.0
C373 C 0.60954 0.75239 0.69988 0.0
C374 C 0.62635 0.74019 0.59238 0.0
C375 C 0.59328 0.73642 0.56617 0.0
C376 C 0.56808 0.74006 0.60753 0.0
C377 C 0.57616 0.74813 0.67358 0.0
C378 C 0.54214 0.70054 0.40636 0.0
C379 C 0.57006 0.72238 0.36061 0.0
C380 C 0.54987 0.70448 0.47296 0.0
C381 C 0.58574 0.73027 0.49541 0.0
C382 C 0.61399 0.75141 0.44987 0.0
C383 C 0.60624 0.74765 0.3832 0.0
H384 H 0.88562 0.48504 0.84158 0.0
H385 H 0.86009 0.57416 0.85606 0.0
H386 H 0.877 0.48296 0.72434 0.0
H387 H 0.85119 0.5717 0.73835 0.0
H388 H 0.80773 0.53653 0.5324 0.0
H389 H 0.81054 0.53189 0.65001 0.0
H390 H 0.90983 0.52272 0.62983 0.0
H391 H 0.9073 0.52762 0.51165 0.0
C392 C 0.87792 0.5041 0.81999 0.0
C393 C 0.87355 0.52977 0.85888 0.0
C394 C 0.87314 0.50293 0.75253 0.0
C395 C 0.86368 0.5273 0.72181 0.0
C396 C 0.85812 0.55224 0.76061 0.0
C397 C 0.86307 0.55354 0.82835 0.0
C398 C 0.83009 0.53322 0.55276 0.0
C399 C 0.8573 0.53248 0.51207 0.0
C400 C 0.83174 0.53077 0.62039 0.0
C401 C 0.86059 0.52735 0.64947 0.0
C402 C 0.88702 0.52506 0.60891 0.0
C403 C 0.88546 0.52767 0.54096 0.0
H404 H 0.29281 0.89667 0.38874 0.0
H405 H 0.28602 0.79043 0.42314 0.0
H406 H 0.28278 0.90156 0.50438 0.0
H407 H 0.27645 0.79577 0.53868 0.0
H408 H 0.30089 0.83848 0.74934 0.0
H409 H 0.31099 0.83386 0.63375 0.0
H410 H 0.23285 0.87093 0.58726 0.0
H411 H 0.22221 0.87522 0.70282 0.0
C412 C 0.28865 0.87406 0.42039 0.0
C413 C 0.28972 0.84283 0.39591 0.0
C414 C 0.28308 0.87701 0.48696 0.0
C415 C 0.27877 0.84903 0.53068 0.0
C416 C 0.28012 0.81802 0.50641 0.0
C417 C 0.28551 0.81496 0.43998 0.0
C418 C 0.28523 0.84501 0.71487 0.0
C419 C 0.26017 0.85666 0.73594 0.0
C420 C 0.29126 0.84255 0.64836 0.0
C421 C 0.27266 0.85196 0.60134 0.0
C422 C 0.24793 0.86389 0.62226 0.0
C423 C 0.24176 0.86621 0.68865 0.0
H424 H 0.40705 0.29382 0.57181 0.0
H425 H 0.52136 0.37908 0.5337 0.0
H426 H 0.41986 0.29857 0.68779 0.0
H427 H 0.53383 0.38478 0.65063 0.0
H428 H 0.55577 0.34625 0.84601 0.0
H429 H 0.54127 0.3477 0.73228 0.0
H430 H 0.43407 0.3345 0.78655 0.0
H431 H 0.44853 0.33281 0.90152 0.0
C432 C 0.43485 0.31411 0.58817 0.0
C433 C 0.46318 0.33592 0.54284 0.0
C434 C 0.44209 0.31702 0.65509 0.0
C435 C 0.47797 0.34181 0.67899 0.0
C436 C 0.50597 0.36491 0.634 0.0
C437 C 0.49869 0.36202 0.56677 0.0
C438 C 0.52903 0.34372 0.83415 0.0
C439 C 0.50331 0.3392 0.88365 0.0
C440 C 0.52086 0.34489 0.7685 0.0
C441 C 0.48667 0.34167 0.74977 0.0
C442 C 0.46063 0.33681 0.79901 0.0
C443 C 0.46883 0.33561 0.86515 0.0
H444 H 0.25753 0.69885 0.08038 0.0
H445 H 0.24389 0.71532 0.87677 0.0
H446 H 0.24827 0.63758 0.05622 0.0
H447 H 0.23464 0.65328 0.85211 0.0
H448 H 0.14874 0.52286 0.89317 0.0
H449 H 0.18153 0.59034 0.87957 0.0
H450 H 0.27076 0.60001 1.00236 0.0
H451 H 0.2371 0.53284 0.01808 0.0
C452 C 0.25306 0.68953 0.03017 0.0
C453 C 0.25075 0.71157 0.98065 0.0
C454 C 0.24828 0.65453 0.01608 0.0
C455 C 0.24081 0.64052 0.9521 0.0
C456 C 0.24027 0.66331 0.90186 0.0
C457 C 0.24553 0.69873 0.91597 0.0
C458 C 0.17628 0.53932 0.91437 0.0
C459 C 0.19056 0.52263 0.95605 0.0
C460 C 0.19512 0.57802 0.90667 0.0
C461 C 0.22837 0.60056 0.94105 0.0
C462 C 0.24488 0.58338 0.97607 0.0
C463 C 0.22595 0.54475 0.98404 0.0
H464 H 0.5037 0.25773 0.33937 0.0
H465 H 0.54363 0.28436 0.14171 0.0
H466 H 0.52677 0.21382 0.34587 0.0
H467 H 0.56781 0.24172 0.14811 0.0
H468 H 0.64085 0.21458 0.36526 0.0
H469 H 0.59067 0.22931 0.35706 0.0
H470 H 0.56691 0.18457 0.16159 0.0
H471 H 0.61798 0.17146 0.16943 0.0
C472 C 0.5157 0.25269 0.29615 0.0
C473 C 0.52163 0.27415 0.23987 0.0
C474 C 0.52959 0.22808 0.30022 0.0
C475 C 0.55014 0.22489 0.24824 0.0
C476 C 0.55209 0.24319 0.18923 0.0
C477 C 0.53796 0.26761 0.18517 0.0
C478 C 0.62383 0.20655 0.32169 0.0
C479 C 0.63259 0.19077 0.26887 0.0
C480 C 0.59494 0.21491 0.3168 0.0
C481 C 0.57452 0.20815 0.25848 0.0
C482 C 0.58201 0.19032 0.20711 0.0
C483 C 0.61085 0.182 0.21211 0.0
H484 H 0.34363 0.49487 0.86454 0.0
H485 H 0.29914 0.56657 0.9139 0.0
H486 H 0.40613 0.54849 0.85939 0.0
H487 H 0.36188 0.6208 0.9068 0.0
H488 H 0.47904 0.68298 0.01071 0.0
H489 H 0.41479 0.64391 0.97603 0.0
H490 H 0.45287 0.60504 0.81317 0.0
H491 H 0.5175 0.64418 0.84956 0.0
C492 C 0.34704 0.52223 0.87275 0.0
C493 C 0.31642 0.5263 0.89091 0.0
C494 C 0.38302 0.55322 0.86917 0.0
C495 C 0.38934 0.5892 0.88316 0.0
C496 C 0.35824 0.59351 0.89683 0.0
C497 C 0.32221 0.5624 0.9008 0.0
C498 C 0.47382 0.66795 0.96516 0.0
C499 C 0.50321 0.66737 0.93171 0.0
C500 C 0.4368 0.64505 0.94549 0.0
C501 C 0.42837 0.62066 0.89229 0.0
C502 C 0.45822 0.62288 0.85513 0.0
C503 C 0.4953 0.64572 0.87518 0.0
H504 H 0.85907 0.43798 0.0897 0.0
H505 H 0.82381 0.43488 0.28842 0.0
H506 H 0.85186 0.37602 0.1023 0.0
H507 H 0.81507 0.37266 0.30114 0.0
H508 H 0.78254 0.25885 0.31824 0.0
H509 H 0.82953 0.3244 0.30438 0.0
H510 H 0.79517 0.31866 0.10389 0.0
H511 H 0.74995 0.25309 0.11764 0.0
C512 C 0.8512 0.42448 0.1369 0.0
C513 C 0.84206 0.44089 0.18826 0.0
C514 C 0.84665 0.38885 0.144 0.0
C515 C 0.83205 0.36874 0.20223 0.0
C516 C 0.82665 0.3871 0.25564 0.0
C517 C 0.83156 0.42285 0.24859 0.0
C518 C 0.7867 0.27125 0.27027 0.0
C519 C 0.76257 0.25108 0.21905 0.0
C520 C 0.81322 0.30896 0.26251 0.0
C521 C 0.81534 0.32737 0.20375 0.0
C522 C 0.79451 0.30573 0.15004 0.0
C523 C 0.76839 0.26786 0.1577 0.0
H524 H 0.45594 0.75407 0.062 0.0
H525 H 0.47848 0.77234 0.85559 0.0
H526 H 0.40785 0.77067 0.05277 0.0
H527 H 0.42876 0.78807 0.84556 0.0
H528 H 0.38956 0.87547 0.89738 0.0
H529 H 0.42193 0.84052 0.87747 0.0
H530 H 0.34902 0.75728 0.01656 0.0
H531 H 0.32051 0.7947 0.04151 0.0
C532 C 0.45004 0.7609 0.01418 0.0
C533 C 0.47142 0.76243 0.95974 0.0
C534 C 0.42197 0.77004 0.00862 0.0
C535 C 0.41421 0.78076 0.94827 0.0
C536 C 0.43424 0.78031 0.89287 0.0
C537 C 0.46256 0.77111 0.89853 0.0
C538 C 0.37967 0.84896 0.92166 0.0
C539 C 0.35134 0.8369 0.96901 0.0
C540 C 0.39812 0.82881 0.91021 0.0
C541 C 0.38847 0.79623 0.94606 0.0
C542 C 0.35766 0.7825 0.98874 0.0
C543 C 0.34018 0.80323 1.00149 0.0
H544 H 0.78531 0.53505 0.23279 0.0
H545 H 0.74259 0.46075 0.06802 0.0
H546 H 0.72142 0.51789 0.2643 0.0
H547 H 0.67901 0.44425 0.09836 0.0
H548 H 0.61217 0.40488 0.34361 0.0
H549 H 0.67457 0.45247 0.30787 0.0
H550 H 0.629 0.46092 0.12391 0.0
H551 H 0.56704 0.41329 0.15935 0.0
C552 C 0.76246 0.51661 0.2013 0.0
C553 C 0.76882 0.49904 0.14804 0.0
C554 C 0.72584 0.5065 0.21979 0.0
C555 C 0.69515 0.47935 0.18438 0.0
C556 C 0.70199 0.46539 0.12656 0.0
C557 C 0.73845 0.4749 0.10893 0.0
C558 C 0.61525 0.41829 0.2969 0.0
C559 C 0.58453 0.40564 0.25483 0.0
C560 C 0.651 0.44558 0.27631 0.0
C561 C 0.65676 0.46026 0.21277 0.0
C562 C 0.62547 0.45012 0.17306 0.0
C563 C 0.58975 0.42313 0.19389 0.0
H564 H 0.02394 0.53314 0.30673 0.0
H565 H 0.92436 0.44033 0.22593 0.0
H566 H 0.06122 0.50758 0.26434 0.0
H567 H 0.96171 0.41381 0.18497 0.0
H568 H 0.05108 0.42681 0.02804 0.0
H569 H 1.00451 0.42976 0.09693 0.0
H570 H 0.08085 0.46332 0.25964 0.0
H571 H 0.12792 0.46276 0.1888 0.0
C572 C 1.00979 0.50668 0.28142 0.0
C573 C 0.97122 0.48918 0.26887 0.0
C574 C 0.03123 0.49172 0.2574 0.0
C575 C 1.0147 0.45866 0.22044 0.0
C576 C 0.97558 0.43966 0.21213 0.0
C577 C 0.95409 0.45476 0.236 0.0
C578 C 0.05725 0.43335 0.07925 0.0
C579 C 0.09285 0.44355 0.10351 0.0
C580 C 0.03049 0.43502 0.119 0.0
C581 C 0.03892 0.44732 0.18399 0.0
C582 C 0.07346 0.45426 0.20967 0.0
C583 C 0.10029 0.4529 0.16956 0.0
H584 H 0.53392 0.02523 0.294 0.0
H585 H 0.53667 0.11279 0.17693 0.0
H586 H 0.46835 0.98483 0.26665 0.0
H587 H 0.47022 0.0742 0.15455 0.0
H588 H 0.39185 0.97583 0.02198 0.0
H589 H 0.44136 0.02689 0.08149 0.0
H590 H 0.40465 0.96149 0.25867 0.0
H591 H 0.3566 0.90954 0.19668 0.0
C592 C 0.51989 0.03637 0.26496 0.0
C593 C 0.54025 0.07182 0.23685 0.0
C594 C 0.4821 0.01331 0.2494 0.0
C595 C 0.46385 0.02573 0.20667 0.0
C596 C 0.48349 0.06302 0.18544 0.0
C597 C 0.52151 0.08545 0.19897 0.0
C598 C 0.39363 0.97294 0.07413 0.0
C599 C 0.37021 0.93889 0.10484 0.0
C600 C 0.42201 1.00239 0.10878 0.0
C601 C 0.42774 0.99844 0.17528 0.0
C602 C 0.40178 0.96541 0.20732 0.0
C603 C 0.37355 0.93573 0.17215 0.0
H604 H 0.56282 0.48095 0.12698 0.0
H605 H 0.53023 0.49983 0.31703 0.0
H606 H 0.58707 0.54558 0.09911 0.0
H607 H 0.55569 0.56583 0.28967 0.0
H608 H 0.53181 0.64428 0.15341 0.0
H609 H 0.53274 0.59568 0.21832 0.0
H610 H 0.62884 0.60986 0.109 0.0
H611 H 0.62593 0.65683 0.04158 0.0
C612 C 0.56161 0.49927 0.16347 0.0
C613 C 0.54386 0.48519 0.22361 0.0
C614 C 0.57608 0.53667 0.14782 0.0
C615 C 0.57318 0.56116 0.19191 0.0
C616 C 0.55795 0.54766 0.25423 0.0
C617 C 0.54353 0.50995 0.27008 0.0
C618 C 0.55414 0.63813 0.14547 0.0
C619 C 0.57924 0.65463 0.0935 0.0
C620 C 0.55475 0.61022 0.1827 0.0
C621 C 0.58041 0.59819 0.16816 0.0
C622 C 0.60814 0.6178 0.12062 0.0
C623 C 0.607 0.6452 0.08266 0.0
loop_
_geom_bond_atom_site_label_1
_geom_bond_atom_site_label_2
_geom_bond_distance
_geom_bond_site_symmetry_2
_ccdc_geom_bond_type
Zn0 N4 2.020 1_556 S
Zn0 O8 2.019 . S
Zn0 N10 2.119 . S
Zn0 O18 1.975 1_556 S
C1 N2 1.334 . S
C1 N5 1.336 . S
N2 C1 1.334 . S
N2 C3 1.334 . S
C3 N2 1.334 . S
C3 N4 1.336 . S
N4 Zn0 2.020 1_554 S
N4 C3 1.336 . S
N4 N5 1.354 . S
N5 C1 1.336 . S
N5 N4 1.354 . S
N5 Zn9 2.020 . S
C6 O7 1.244 . S
C6 O30 1.257 . S
O7 C6 1.244 . S
O8 Zn0 2.019 . S
O8 C28 1.257 1_556 S
Zn9 N5 2.020 . S
Zn9 O16 1.975 . S
Zn9 N25 2.119 . S
Zn9 O30 2.019 . S
N10 Zn0 2.119 . S
N10 C12 1.334 . S
N10 C13 1.328 . S
C11 C12 1.391 . S
C11 N14 1.329 . S
C11 H32 0.930 . S
C12 N10 1.334 . S
C12 C11 1.391 . S
C12 H19 0.930 . S
C13 N10 1.328 . S
C13 C15 1.392 . S
C13 H20 0.930 . S
N14 C11 1.329 . S
N14 C15 1.331 . S
C15 C13 1.392 . S
C15 N14 1.331 . S
O16 Zn9 1.975 . S
O16 C17 1.252 . S
C17 O16 1.252 . S
C17 O18 1.252 . S
O18 Zn0 1.975 1_554 S
O18 C17 1.252 . S
H19 C12 0.930 . S
H20 C13 0.930 . S
C21 C22 1.392 . S
C21 N25 1.328 . S
C21 H27 0.930 . S
C22 C21 1.392 . S
C22 N26 1.331 . S
C23 C24 1.391 . S
C23 N26 1.329 . S
C23 H33 0.930 . S
C24 C23 1.391 . S
C24 N25 1.334 . S
C24 H31 0.930 . S
N25 Zn9 2.119 . S
N25 C21 1.328 . S
N25 C24 1.334 . S
N26 C22 1.331 . S
N26 C23 1.329 . S
H27 C21 0.930 . S
C28 O8 1.257 1_554 S
C28 O29 1.244 . S
O29 C28 1.244 . S
O30 C6 1.257 . S
O30 Zn9 2.019 . S
H31 C24 0.930 . S
H32 C11 0.930 . S
H33 C23 0.930 . S
Zn34 N38 2.020 . S
Zn34 O42 2.019 . S
Zn34 N44 2.119 . S
Zn34 O52 1.975 . S
C35 N36 1.334 . S
C35 N39 1.336 . S
N36 C35 1.334 . S
N36 C37 1.334 . S
C37 N36 1.334 . S
C37 N38 1.336 . S
N38 Zn34 2.020 . S
N38 C37 1.336 . S
N38 N39 1.354 . S
N39 C35 1.336 . S
N39 N38 1.354 . S
N39 Zn43 2.020 . S
C40 O41 1.244 . S
C40 O64 1.257 . S
O41 C40 1.244 . S
O42 Zn34 2.019 . S
O42 C62 1.257 . S
Zn43 N39 2.020 . S
Zn43 O50 1.975 . S
Zn43 N59 2.119 . S
Zn43 O64 2.019 . S
N44 Zn34 2.119 . S
N44 C46 1.334 . S
N44 C47 1.328 . S
C45 C46 1.391 . S
C45 N48 1.329 . S
C45 H66 0.930 . S
C46 N44 1.334 . S
C46 C45 1.391 . S
C46 H53 0.930 . S
C47 N44 1.328 . S
C47 C49 1.392 . S
C47 H54 0.930 . S
N48 C45 1.329 . S
N48 C49 1.331 . S
C49 C47 1.392 . S
C49 N48 1.331 . S
O50 Zn43 1.975 . S
O50 C51 1.252 . S
C51 O50 1.252 . S
C51 O52 1.252 . S
O52 Zn34 1.975 . S
O52 C51 1.252 . S
H53 C46 0.930 . S
H54 C47 0.930 . S
C55 C56 1.392 . S
C55 N59 1.328 1_556 S
C55 H61 0.930 . S
C56 C55 1.392 . S
C56 N60 1.331 . S
C57 C58 1.391 1_556 S
C57 N60 1.329 . S
C57 H67 0.930 . S
C58 C57 1.391 1_554 S
C58 N59 1.334 . S
C58 H65 0.930 . S
N59 Zn43 2.119 . S
N59 C55 1.328 1_554 S
N59 C58 1.334 . S
N60 C56 1.331 . S
N60 C57 1.329 . S
H61 C55 0.930 . S
C62 O42 1.257 . S
C62 O63 1.244 . S
O63 C62 1.244 . S
O64 C40 1.257 . S
O64 Zn43 2.019 . S
H65 C58 0.930 . S
H66 C45 0.930 . S
H67 C57 0.930 . S
Zn68 N72 2.020 . S
Zn68 O76 2.019 . S
Zn68 N78 2.119 . S
Zn68 O86 1.975 . S
C69 N70 1.334 . S
C69 N73 1.336 . S
N70 C69 1.334 . S
N70 C71 1.334 . S
C71 N70 1.334 . S
C71 N72 1.336 . S
N72 Zn68 2.020 . S
N72 C71 1.336 . S
N72 N73 1.354 . S
N73 C69 1.336 . S
N73 N72 1.354 . S
N73 Zn77 2.020 1_554 S
C74 O75 1.244 . S
C74 O98 1.257 1_554 S
O75 C74 1.244 . S
O76 Zn68 2.019 . S
O76 C96 1.257 . S
Zn77 N73 2.020 1_556 S
Zn77 O84 1.975 1_556 S
Zn77 N93 2.119 . S
Zn77 O98 2.019 . S
N78 Zn68 2.119 . S
N78 C80 1.334 . S
N78 C81 1.328 . S
C79 C80 1.391 . S
C79 N82 1.329 . S
C79 H100 0.930 . S
C80 N78 1.334 . S
C80 C79 1.391 . S
C80 H87 0.930 . S
C81 N78 1.328 . S
C81 C83 1.392 . S
C81 H88 0.930 . S
N82 C79 1.329 . S
N82 C83 1.331 . S
C83 C81 1.392 . S
C83 N82 1.331 . S
O84 Zn77 1.975 1_554 S
O84 C85 1.252 . S
C85 O84 1.252 . S
C85 O86 1.252 . S
O86 Zn68 1.975 . S
O86 C85 1.252 . S
H87 C80 0.930 . S
H88 C81 0.930 . S
C89 C90 1.392 . S
C89 N93 1.328 . S
C89 H95 0.930 . S
C90 C89 1.392 . S
C90 N94 1.331 . S
C91 C92 1.391 . S
C91 N94 1.329 . S
C91 H101 0.930 . S
C92 C91 1.391 . S
C92 N93 1.334 . S
C92 H99 0.930 . S
N93 Zn77 2.119 . S
N93 C89 1.328 . S
N93 C92 1.334 . S
N94 C90 1.331 . S
N94 C91 1.329 . S
H95 C89 0.930 . S
C96 O76 1.257 . S
C96 O97 1.244 . S
O97 C96 1.244 . S
O98 C74 1.257 1_556 S
O98 Zn77 2.019 . S
H99 C92 0.930 . S
H100 C79 0.930 . S
H101 C91 0.930 . S
Zn102 N106 2.020 . S
Zn102 O110 2.019 . S
Zn102 N112 2.119 . S
Zn102 O120 1.975 . S
C103 N104 1.334 . S
C103 N107 1.336 . S
N104 C103 1.334 . S
N104 C105 1.334 . S
C105 N104 1.334 . S
C105 N106 1.336 . S
N106 Zn102 2.020 . S
N106 C105 1.336 . S
N106 N107 1.354 . S
N107 C103 1.336 . S
N107 N106 1.354 . S
N107 Zn111 2.020 . S
C108 O109 1.244 . S
C108 O132 1.257 . S
O109 C108 1.244 . S
O110 Zn102 2.019 . S
O110 C130 1.257 . S
Zn111 N107 2.020 . S
Zn111 O118 1.975 . S
Zn111 N127 2.119 . S
Zn111 O132 2.019 . S
N112 Zn102 2.119 . S
N112 C114 1.334 . S
N112 C115 1.328 . S
C113 C114 1.391 . S
C113 N116 1.329 . S
C113 H134 0.930 . S
C114 N112 1.334 . S
C114 C113 1.391 . S
C114 H121 0.930 . S
C115 N112 1.328 . S
C115 C117 1.392 . S
C115 H122 0.930 . S
N116 C113 1.329 . S
N116 C117 1.331 . S
C117 C115 1.392 . S
C117 N116 1.331 . S
O118 Zn111 1.975 . S
O118 C119 1.252 . S
C119 O118 1.252 . S
C119 O120 1.252 . S
O120 Zn102 1.975 . S
O120 C119 1.252 . S
H121 C114 0.930 . S
H122 C115 0.930 . S
C123 C124 1.392 . S
C123 N127 1.328 1_556 S
C123 H129 0.930 . S
C124 C123 1.392 . S
C124 N128 1.331 . S
C125 C126 1.391 1_556 S
C125 N128 1.329 . S
C125 H135 0.930 . S
C126 C125 1.391 1_554 S
C126 N127 1.334 . S
C126 H133 0.930 . S
N127 Zn111 2.119 . S
N127 C123 1.328 1_554 S
N127 C126 1.334 . S
N128 C124 1.331 . S
N128 C125 1.329 . S
H129 C123 0.930 . S
C130 O110 1.257 . S
C130 O131 1.244 . S
O131 C130 1.244 . S
O132 C108 1.257 . S
O132 Zn111 2.019 . S
H133 C126 0.930 . S
H134 C113 0.930 . S
H135 C125 0.930 . S
Zn136 N140 2.020 . S
Zn136 O144 2.019 . S
Zn136 N146 2.119 . S
Zn136 O154 1.975 . S
C137 N138 1.334 . S
C137 N141 1.336 . S
N138 C137 1.334 . S
N138 C139 1.334 . S
C139 N138 1.334 . S
C139 N140 1.336 . S
N140 Zn136 2.020 . S
N140 C139 1.336 . S
N140 N141 1.354 . S
N141 C137 1.336 . S
N141 N140 1.354 . S
N141 Zn145 2.020 1_554 S
C142 O143 1.244 . S
C142 O166 1.257 1_554 S
O143 C142 1.244 . S
O144 Zn136 2.019 . S
O144 C164 1.257 . S
Zn145 N141 2.020 1_556 S
Zn145 O152 1.975 1_556 S
Zn145 N161 2.119 . S
Zn145 O166 2.019 . S
N146 Zn136 2.119 . S
N146 C148 1.334 . S
N146 C149 1.328 . S
C147 C148 1.391 . S
C147 N150 1.329 . S
C147 H168 0.930 . S
C148 N146 1.334 . S
C148 C147 1.391 . S
C148 H155 0.930 . S
C149 N146 1.328 . S
C149 C151 1.392 . S
C149 H156 0.930 . S
N150 C147 1.329 . S
N150 C151 1.331 . S
C151 C149 1.392 . S
C151 N150 1.331 . S
O152 Zn145 1.975 1_554 S
O152 C153 1.252 . S
C153 O152 1.252 . S
C153 O154 1.252 . S
O154 Zn136 1.975 . S
O154 C153 1.252 . S
H155 C148 0.930 . S
H156 C149 0.930 . S
C157 C158 1.392 . S
C157 N161 1.328 . S
C157 H163 0.930 . S
C158 C157 1.392 . S
C158 N162 1.331 . S
C159 C160 1.391 . S
C159 N162 1.329 . S
C159 H169 0.930 . S
C160 C159 1.391 . S
C160 N161 1.334 . S
C160 H167 0.930 . S
N161 Zn145 2.119 . S
N161 C157 1.328 . S
N161 C160 1.334 . S
N162 C158 1.331 . S
N162 C159 1.329 . S
H163 C157 0.930 . S
C164 O144 1.257 . S
C164 O165 1.244 . S
O165 C164 1.244 . S
O166 C142 1.257 1_556 S
O166 Zn145 2.019 . S
H167 C160 0.930 . S
H168 C147 0.930 . S
H169 C159 0.930 . S
Zn170 N174 2.020 . S
Zn170 O178 2.019 . S
Zn170 N180 2.119 . S
Zn170 O188 1.975 . S
C171 N172 1.334 . S
C171 N175 1.336 . S
N172 C171 1.334 . S
N172 C173 1.334 . S
C173 N172 1.334 . S
C173 N174 1.336 . S
N174 Zn170 2.020 . S
N174 C173 1.336 . S
N174 N175 1.354 . S
N175 C171 1.336 . S
N175 N174 1.354 . S
N175 Zn179 2.020 . S
C176 O177 1.244 . S
C176 O200 1.257 . S
O177 C176 1.244 . S
O178 Zn170 2.019 . S
O178 C198 1.257 . S
Zn179 N175 2.020 . S
Zn179 O186 1.975 . S
Zn179 N195 2.119 . S
Zn179 O200 2.019 . S
N180 Zn170 2.119 . S
N180 C182 1.334 . S
N180 C183 1.328 1_554 S
C181 C182 1.391 1_556 S
C181 N184 1.329 . S
C181 H202 0.930 . S
C182 N180 1.334 . S
C182 C181 1.391 1_554 S
C182 H189 0.930 . S
C183 N180 1.328 1_556 S
C183 C185 1.392 . S
C183 H190 0.930 . S
N184 C181 1.329 . S
N184 C185 1.331 . S
C185 C183 1.392 . S
C185 N184 1.331 . S
O186 Zn179 1.975 . S
O186 C187 1.252 . S
C187 O186 1.252 . S
C187 O188 1.252 . S
O188 Zn170 1.975 . S
O188 C187 1.252 . S
H189 C182 0.930 . S
H190 C183 0.930 . S
C191 C192 1.392 . S
C191 N195 1.328 . S
C191 H197 0.930 . S
C192 C191 1.392 . S
C192 N196 1.331 . S
C193 C194 1.391 . S
C193 N196 1.329 . S
C193 H203 0.930 . S
C194 C193 1.391 . S
C194 N195 1.334 . S
C194 H201 0.930 . S
N195 Zn179 2.119 . S
N195 C191 1.328 . S
N195 C194 1.334 . S
N196 C192 1.331 . S
N196 C193 1.329 . S
H197 C191 0.930 . S
C198 O178 1.257 . S
C198 O199 1.244 . S
O199 C198 1.244 . S
O200 C176 1.257 . S
O200 Zn179 2.019 . S
H201 C194 0.930 . S
H202 C181 0.930 . S
H203 C193 0.930 . S
H204 C212 0.950 . S
H205 C217 0.950 . S
H206 C214 0.950 . S
H207 C216 0.950 . S
H208 C218 0.950 1_556 S
H209 C220 0.950 . S
H210 C222 0.950 . S
H211 C223 0.950 . S
C212 H204 0.950 . S
C212 C213 1.386 . S
C212 C214 1.391 . S
C213 C212 1.386 . S
C213 C217 1.393 . S
C214 H206 0.950 . S
C214 C212 1.391 . S
C214 C215 1.400 . S
C215 C214 1.400 . S
C215 C216 1.398 . S
C215 C221 1.491 . S
C216 H207 0.950 . S
C216 C215 1.398 . S
C216 C217 1.391 . S
C217 H205 0.950 . S
C217 C213 1.393 . S
C217 C216 1.391 . S
C218 H208 0.950 1_554 S
C218 C219 1.386 . S
C218 C220 1.391 . S
C219 C218 1.386 . S
C219 C223 1.393 . S
C220 H209 0.950 . S
C220 C218 1.391 . S
C220 C221 1.400 . S
C221 C215 1.491 . S
C221 C220 1.400 . S
C221 C222 1.398 . S
C222 H210 0.950 . S
C222 C221 1.398 . S
C222 C223 1.391 . S
C223 H211 0.950 . S
C223 C219 1.393 . S
C223 C222 1.391 . S
H224 C232 0.950 . S
H225 C237 0.950 . S
H226 C234 0.950 . S
H227 C236 0.950 . S
H228 C238 0.950 . S
H229 C240 0.950 . S
H230 C242 0.950 . S
H231 C243 0.950 . S
C232 H224 0.950 . S
C232 C233 1.386 . S
C232 C234 1.391 1_455 S
C233 C232 1.386 . S
C233 C237 1.393 . S
C234 H226 0.950 . S
C234 C232 1.391 1_655 S
C234 C235 1.400 . S
C235 C234 1.400 . S
C235 C236 1.398 . S
C235 C241 1.491 . S
C236 H227 0.950 . S
C236 C235 1.398 . S
C236 C237 1.391 1_655 S
C237 H225 0.950 . S
C237 C233 1.393 . S
C237 C236 1.391 1_455 S
C238 H228 0.950 . S
C238 C239 1.386 . S
C238 C240 1.391 . S
C239 C238 1.386 . S
C239 C243 1.393 . S
C240 H229 0.950 . S
C240 C238 1.391 . S
C240 C241 1.400 . S
C241 C235 1.491 . S
C241 C240 1.400 . S
C241 C242 1.398 . S
C242 H230 0.950 . S
C242 C241 1.398 . S
C242 C243 1.391 . S
C243 H231 0.950 . S
C243 C239 1.393 . S
C243 C242 1.391 . S
H244 C252 0.950 . S
H245 C257 0.950 . S
H246 C254 0.950 . S
H247 C256 0.950 . S
H248 C258 0.950 . S
H249 C260 0.950 . S
H250 C262 0.950 . S
H251 C263 0.950 . S
C252 H244 0.950 . S
C252 C253 1.386 . S
C252 C254 1.391 . S
C253 C252 1.386 . S
C253 C257 1.393 . S
C254 H246 0.950 . S
C254 C252 1.391 . S
C254 C255 1.400 . S
C255 C254 1.400 . S
C255 C256 1.398 . S
C255 C261 1.491 . S
C256 H247 0.950 . S
C256 C255 1.398 . S
C256 C257 1.391 . S
C257 H245 0.950 . S
C257 C253 1.393 . S
C257 C256 1.391 . S
C258 H248 0.950 . S
C258 C259 1.386 . S
C258 C260 1.391 1_545 S
C259 C258 1.386 . S
C259 C263 1.393 . S
C260 H249 0.950 . S
C260 C258 1.391 1_565 S
C260 C261 1.400 . S
C261 C255 1.491 . S
C261 C260 1.400 . S
C261 C262 1.398 . S
C262 H250 0.950 . S
C262 C261 1.398 . S
C262 C263 1.391 1_565 S
C263 H251 0.950 . S
C263 C259 1.393 . S
C263 C262 1.391 1_545 S
H264 C272 0.950 . S
H265 C277 0.950 . S
H266 C274 0.950 . S
H267 C276 0.950 . S
H268 C278 0.950 . S
H269 C280 0.950 . S
H270 C282 0.950 . S
H271 C283 0.950 . S
C272 H264 0.950 . S
C272 C273 1.386 . S
C272 C274 1.391 . S
C273 C272 1.386 . S
C273 C277 1.393 . S
C274 H266 0.950 . S
C274 C272 1.391 . S
C274 C275 1.400 . S
C275 C274 1.400 . S
C275 C276 1.398 . S
C275 C281 1.491 . S
C276 H267 0.950 . S
C276 C275 1.398 . S
C276 C277 1.391 . S
C277 H265 0.950 . S
C277 C273 1.393 . S
C277 C276 1.391 . S
C278 H268 0.950 . S
C278 C279 1.386 . S
C278 C280 1.391 . S
C279 C278 1.386 . S
C279 C283 1.393 . S
C280 H269 0.950 . S
C280 C278 1.391 . S
C280 C281 1.400 . S
C281 C275 1.491 . S
C281 C280 1.400 . S
C281 C282 1.398 . S
C282 H270 0.950 . S
C282 C281 1.398 . S
C282 C283 1.391 . S
C283 H271 0.950 . S
C283 C279 1.393 . S
C283 C282 1.391 . S
H284 C292 0.950 . S
H285 C297 0.950 . S
H286 C294 0.950 . S
H287 C296 0.950 . S
H288 C298 0.950 . S
H289 C300 0.950 . S
H290 C302 0.950 . S
H291 C303 0.950 . S
C292 H284 0.950 . S
C292 C293 1.386 . S
C292 C294 1.391 . S
C293 C292 1.386 . S
C293 C297 1.393 . S
C294 H286 0.950 . S
C294 C292 1.391 . S
C294 C295 1.400 . S
C295 C294 1.400 . S
C295 C296 1.398 . S
C295 C301 1.491 . S
C296 H287 0.950 . S
C296 C295 1.398 . S
C296 C297 1.391 . S
C297 H285 0.950 . S
C297 C293 1.393 . S
C297 C296 1.391 . S
C298 H288 0.950 . S
C298 C299 1.386 . S
C298 C300 1.391 1_655 S
C299 C298 1.386 . S
C299 C303 1.393 . S
C300 H289 0.950 . S
C300 C298 1.391 1_455 S
C300 C301 1.400 . S
C301 C295 1.491 . S
C301 C300 1.400 . S
C301 C302 1.398 . S
C302 H290 0.950 . S
C302 C301 1.398 . S
C302 C303 1.391 1_455 S
C303 H291 0.950 . S
C303 C299 1.393 . S
C303 C302 1.391 1_655 S
H304 C312 0.950 . S
H305 C317 0.950 . S
H306 C314 0.950 . S
H307 C316 0.950 . S
H308 C318 0.950 . S
H309 C320 0.950 . S
H310 C322 0.950 . S
H311 C323 0.950 . S
C312 H304 0.950 . S
C312 C313 1.386 . S
C312 C314 1.391 1_565 S
C313 C312 1.386 . S
C313 C317 1.393 . S
C314 H306 0.950 . S
C314 C312 1.391 1_545 S
C314 C315 1.400 . S
C315 C314 1.400 . S
C315 C316 1.398 . S
C315 C321 1.491 . S
C316 H307 0.950 . S
C316 C315 1.398 . S
C316 C317 1.391 1_545 S
C317 H305 0.950 . S
C317 C313 1.393 . S
C317 C316 1.391 1_565 S
C318 H308 0.950 . S
C318 C319 1.386 . S
C318 C320 1.391 . S
C319 C318 1.386 . S
C319 C323 1.393 . S
C320 H309 0.950 . S
C320 C318 1.391 . S
C320 C321 1.400 . S
C321 C315 1.491 . S
C321 C320 1.400 . S
C321 C322 1.398 . S
C322 H310 0.950 . S
C322 C321 1.398 . S
C322 C323 1.391 . S
C323 H311 0.950 . S
C323 C319 1.393 . S
C323 C322 1.391 . S
H324 C332 0.950 . S
H325 C337 0.950 . S
H326 C334 0.950 . S
H327 C336 0.950 . S
H328 C338 0.950 . S
H329 C340 0.950 . S
H330 C342 0.950 . S
H331 C343 0.950 . S
C332 H324 0.950 . S
C332 C333 1.386 . S
C332 C334 1.391 . S
C333 C332 1.386 . S
C333 C337 1.393 . S
C334 H326 0.950 . S
C334 C332 1.391 . S
C334 C335 1.400 . S
C335 C334 1.400 . S
C335 C336 1.398 . S
C335 C341 1.491 . S
C336 H327 0.950 . S
C336 C335 1.398 . S
C336 C337 1.391 . S
C337 H325 0.950 . S
C337 C333 1.393 . S
C337 C336 1.391 . S
C338 H328 0.950 . S
C338 C339 1.386 . S
C338 C340 1.391 . S
C339 C338 1.386 . S
C339 C343 1.393 . S
C340 H329 0.950 . S
C340 C338 1.391 . S
C340 C341 1.400 . S
C341 C335 1.491 . S
C341 C340 1.400 . S
C341 C342 1.398 . S
C342 H330 0.950 . S
C342 C341 1.398 . S
C342 C343 1.391 . S
C343 H331 0.950 . S
C343 C339 1.393 . S
C343 C342 1.391 . S
H344 C352 0.950 . S
H345 C357 0.950 . S
H346 C354 0.950 . S
H347 C356 0.950 . S
H348 C358 0.950 . S
H349 C360 0.950 . S
H350 C362 0.950 . S
H351 C363 0.950 . S
C352 H344 0.950 . S
C352 C353 1.386 . S
C352 C354 1.391 . S
C353 C352 1.386 . S
C353 C357 1.393 . S
C354 H346 0.950 . S
C354 C352 1.391 . S
C354 C355 1.400 . S
C355 C354 1.400 . S
C355 C356 1.398 . S
C355 C361 1.491 . S
C356 H347 0.950 . S
C356 C355 1.398 . S
C356 C357 1.391 . S
C357 H345 0.950 . S
C357 C353 1.393 . S
C357 C356 1.391 . S
C358 H348 0.950 . S
C358 C359 1.386 . S
C358 C360 1.391 . S
C359 C358 1.386 . S
C359 C363 1.393 . S
C360 H349 0.950 . S
C360 C358 1.391 . S
C360 C361 1.400 . S
C361 C355 1.491 . S
C361 C360 1.400 . S
C361 C362 1.398 . S
C362 H350 0.950 . S
C362 C361 1.398 . S
C362 C363 1.391 . S
C363 H351 0.950 . S
C363 C359 1.393 . S
C363 C362 1.391 . S
H364 C372 0.950 . S
H365 C377 0.950 . S
H366 C374 0.950 . S
H367 C376 0.950 . S
H368 C378 0.950 . S
H369 C380 0.950 . S
H370 C382 0.950 . S
H371 C383 0.950 . S
C372 H364 0.950 . S
C372 C373 1.386 . S
C372 C374 1.391 . S
C373 C372 1.386 . S
C373 C377 1.393 . S
C374 H366 0.950 . S
C374 C372 1.391 . S
C374 C375 1.400 . S
C375 C374 1.400 . S
C375 C376 1.398 . S
C375 C381 1.491 . S
C376 H367 0.950 . S
C376 C375 1.398 . S
C376 C377 1.391 . S
C377 H365 0.950 . S
C377 C373 1.393 . S
C377 C376 1.391 . S
C378 H368 0.950 . S
C378 C379 1.386 . S
C378 C380 1.391 . S
C379 C378 1.386 . S
C379 C383 1.393 . S
C380 H369 0.950 . S
C380 C378 1.391 . S
C380 C381 1.400 . S
C381 C375 1.491 . S
C381 C380 1.400 . S
C381 C382 1.398 . S
C382 H370 0.950 . S
C382 C381 1.398 . S
C382 C383 1.391 . S
C383 H371 0.950 . S
C383 C379 1.393 . S
C383 C382 1.391 . S
H384 C392 0.950 . S
H385 C397 0.950 . S
H386 C394 0.950 . S
H387 C396 0.950 . S
H388 C398 0.950 . S
H389 C400 0.950 . S
H390 C402 0.950 . S
H391 C403 0.950 . S
C392 H384 0.950 . S
C392 C393 1.386 . S
C392 C394 1.391 . S
C393 C392 1.386 . S
C393 C397 1.393 . S
C394 H386 0.950 . S
C394 C392 1.391 . S
C394 C395 1.400 . S
C395 C394 1.400 . S
C395 C396 1.398 . S
C395 C401 1.491 . S
C396 H387 0.950 . S
C396 C395 1.398 . S
C396 C397 1.391 . S
C397 H385 0.950 . S
C397 C393 1.393 . S
C397 C396 1.391 . S
C398 H388 0.950 . S
C398 C399 1.386 . S
C398 C400 1.391 . S
C399 C398 1.386 . S
C399 C403 1.393 . S
C400 H389 0.950 . S
C400 C398 1.391 . S
C400 C401 1.400 . S
C401 C395 1.491 . S
C401 C400 1.400 . S
C401 C402 1.398 . S
C402 H390 0.950 . S
C402 C401 1.398 . S
C402 C403 1.391 . S
C403 H391 0.950 . S
C403 C399 1.393 . S
C403 C402 1.391 . S
H404 C412 0.950 . S
H405 C417 0.950 . S
H406 C414 0.950 . S
H407 C416 0.950 . S
H408 C418 0.950 . S
H409 C420 0.950 . S
H410 C422 0.950 . S
H411 C423 0.950 . S
C412 H404 0.950 . S
C412 C413 1.386 . S
C412 C414 1.391 . S
C413 C412 1.386 . S
C413 C417 1.393 . S
C414 H406 0.950 . S
C414 C412 1.391 . S
C414 C415 1.400 . S
C415 C414 1.400 . S
C415 C416 1.398 . S
C415 C421 1.491 . S
C416 H407 0.950 . S
C416 C415 1.398 . S
C416 C417 1.391 . S
C417 H405 0.950 . S
C417 C413 1.393 . S
C417 C416 1.391 . S
C418 H408 0.950 . S
C418 C419 1.386 . S
C418 C420 1.391 . S
C419 C418 1.386 . S
C419 C423 1.393 . S
C420 H409 0.950 . S
C420 C418 1.391 . S
C420 C421 1.400 . S
C421 C415 1.491 . S
C421 C420 1.400 . S
C421 C422 1.398 . S
C422 H410 0.950 . S
C422 C421 1.398 . S
C422 C423 1.391 . S
C423 H411 0.950 . S
C423 C419 1.393 . S
C423 C422 1.391 . S
H424 C432 0.950 . S
H425 C437 0.950 . S
H426 C434 0.950 . S
H427 C436 0.950 . S
H428 C438 0.950 . S
H429 C440 0.950 . S
H430 C442 0.950 . S
H431 C443 0.950 . S
C432 H424 0.950 . S
C432 C433 1.386 . S
C432 C434 1.391 . S
C433 C432 1.386 . S
C433 C437 1.393 . S
C434 H426 0.950 . S
C434 C432 1.391 . S
C434 C435 1.400 . S
C435 C434 1.400 . S
C435 C436 1.398 . S
C435 C441 1.491 . S
C436 H427 0.950 . S
C436 C435 1.398 . S
C436 C437 1.391 . S
C437 H425 0.950 . S
C437 C433 1.393 . S
C437 C436 1.391 . S
C438 H428 0.950 . S
C438 C439 1.386 . S
C438 C440 1.391 . S
C439 C438 1.386 . S
C439 C443 1.393 . S
C440 H429 0.950 . S
C440 C438 1.391 . S
C440 C441 1.400 . S
C441 C435 1.491 . S
C441 C440 1.400 . S
C441 C442 1.398 . S
C442 H430 0.950 . S
C442 C441 1.398 . S
C442 C443 1.391 . S
C443 H431 0.950 . S
C443 C439 1.393 . S
C443 C442 1.391 . S
H444 C452 0.950 . S
H445 C457 0.950 . S
H446 C454 0.950 . S
H447 C456 0.950 . S
H448 C458 0.950 . S
H449 C460 0.950 . S
H450 C462 0.950 . S
H451 C463 0.950 . S
C452 H444 0.950 . S
C452 C453 1.386 . S
C452 C454 1.391 . S
C453 C452 1.386 . S
C453 C457 1.393 1_554 S
C454 H446 0.950 . S
C454 C452 1.391 . S
C454 C455 1.400 . S
C455 C454 1.400 . S
C455 C456 1.398 1_554 S
C455 C461 1.491 1_554 S
C456 H447 0.950 . S
C456 C455 1.398 1_556 S
C456 C457 1.391 . S
C457 H445 0.950 . S
C457 C453 1.393 1_556 S
C457 C456 1.391 . S
C458 H448 0.950 . S
C458 C459 1.386 . S
C458 C460 1.391 . S
C459 C458 1.386 . S
C459 C463 1.393 1_556 S
C460 H449 0.950 . S
C460 C458 1.391 . S
C460 C461 1.400 . S
C461 C455 1.491 1_556 S
C461 C460 1.400 . S
C461 C462 1.398 1_556 S
C462 H450 0.950 . S
C462 C461 1.398 1_554 S
C462 C463 1.391 . S
C463 H451 0.950 . S
C463 C459 1.393 1_554 S
C463 C462 1.391 . S
H464 C472 0.950 . S
H465 C477 0.950 . S
H466 C474 0.950 . S
H467 C476 0.950 . S
H468 C478 0.950 . S
H469 C480 0.950 . S
H470 C482 0.950 . S
H471 C483 0.950 . S
C472 H464 0.950 . S
C472 C473 1.386 . S
C472 C474 1.391 . S
C473 C472 1.386 . S
C473 C477 1.393 . S
C474 H466 0.950 . S
C474 C472 1.391 . S
C474 C475 1.400 . S
C475 C474 1.400 . S
C475 C476 1.398 . S
C475 C481 1.491 . S
C476 H467 0.950 . S
C476 C475 1.398 . S
C476 C477 1.391 . S
C477 H465 0.950 . S
C477 C473 1.393 . S
C477 C476 1.391 . S
C478 H468 0.950 . S
C478 C479 1.386 . S
C478 C480 1.391 . S
C479 C478 1.386 . S
C479 C483 1.393 . S
C480 H469 0.950 . S
C480 C478 1.391 . S
C480 C481 1.400 . S
C481 C475 1.491 . S
C481 C480 1.400 . S
C481 C482 1.398 . S
C482 H470 0.950 . S
C482 C481 1.398 . S
C482 C483 1.391 . S
C483 H471 0.950 . S
C483 C479 1.393 . S
C483 C482 1.391 . S
H484 C492 0.950 . S
H485 C497 0.950 . S
H486 C494 0.950 . S
H487 C496 0.950 . S
H488 C498 0.950 . S
H489 C500 0.950 . S
H490 C502 0.950 . S
H491 C503 0.950 . S
C492 H484 0.950 . S
C492 C493 1.386 . S
C492 C494 1.391 . S
C493 C492 1.386 . S
C493 C497 1.392 1_556 S
C494 H486 0.950 . S
C494 C492 1.391 . S
C494 C495 1.402 . S
C495 C494 1.402 . S
C495 C496 1.397 1_556 S
C495 C501 1.490 1_556 S
C496 H487 0.950 . S
C496 C495 1.397 1_554 S
C496 C497 1.391 . S
C497 H485 0.950 . S
C497 C493 1.392 1_554 S
C497 C496 1.391 . S
C498 H488 0.950 . S
C498 C499 1.387 . S
C498 C500 1.391 . S
C499 C498 1.387 . S
C499 C503 1.392 1_554 S
C500 H489 0.950 . S
C500 C498 1.391 . S
C500 C501 1.402 . S
C501 C495 1.490 1_554 S
C501 C500 1.402 . S
C501 C502 1.397 1_554 S
C502 H490 0.950 . S
C502 C501 1.397 1_556 S
C502 C503 1.391 . S
C503 H491 0.950 . S
C503 C499 1.392 1_556 S
C503 C502 1.391 . S
H504 C512 0.950 . S
H505 C517 0.950 . S
H506 C514 0.950 . S
H507 C516 0.950 . S
H508 C518 0.950 . S
H509 C520 0.950 . S
H510 C522 0.950 . S
H511 C523 0.950 . S
C512 H504 0.950 . S
C512 C513 1.386 . S
C512 C514 1.391 . S
C513 C512 1.386 . S
C513 C517 1.393 . S
C514 H506 0.950 . S
C514 C512 1.391 . S
C514 C515 1.400 . S
C515 C514 1.400 . S
C515 C516 1.398 . S
C515 C521 1.491 . S
C516 H507 0.950 . S
C516 C515 1.398 . S
C516 C517 1.391 . S
C517 H505 0.950 . S
C517 C513 1.393 . S
C517 C516 1.391 . S
C518 H508 0.950 . S
C518 C519 1.386 . S
C518 C520 1.391 . S
C519 C518 1.386 . S
C519 C523 1.393 . S
C520 H509 0.950 . S
C520 C518 1.391 . S
C520 C521 1.400 . S
C521 C515 1.491 . S
C521 C520 1.400 . S
C521 C522 1.398 . S
C522 H510 0.950 . S
C522 C521 1.398 . S
C522 C523 1.391 . S
C523 H511 0.950 . S
C523 C519 1.393 . S
C523 C522 1.391 . S
H524 C532 0.950 . S
H525 C537 0.950 . S
H526 C534 0.950 . S
H527 C536 0.950 . S
H528 C538 0.950 . S
H529 C540 0.950 . S
H530 C542 0.950 . S
H531 C543 0.950 . S
C532 H524 0.950 . S
C532 C533 1.386 . S
C532 C534 1.391 . S
C533 C532 1.386 . S
C533 C537 1.393 1_554 S
C534 H526 0.950 . S
C534 C532 1.391 . S
C534 C535 1.413 . S
C535 C534 1.413 . S
C535 C536 1.386 1_554 S
C535 C541 1.490 1_554 S
C536 H527 0.950 . S
C536 C535 1.386 1_556 S
C536 C537 1.391 . S
C537 H525 0.950 . S
C537 C533 1.393 1_556 S
C537 C536 1.391 . S
C538 H528 0.950 . S
C538 C539 1.386 . S
C538 C540 1.391 . S
C539 C538 1.386 . S
C539 C543 1.393 1_556 S
C540 H529 0.950 . S
C540 C538 1.391 . S
C540 C541 1.409 . S
C541 C535 1.490 1_556 S
C541 C540 1.409 . S
C541 C542 1.389 1_556 S
C542 H530 0.950 . S
C542 C541 1.389 1_554 S
C542 C543 1.391 . S
C543 H531 0.950 . S
C543 C539 1.393 1_554 S
C543 C542 1.391 . S
H544 C552 0.950 . S
H545 C557 0.950 . S
H546 C554 0.950 . S
H547 C556 0.950 . S
H548 C558 0.950 . S
H549 C560 0.950 . S
H550 C562 0.950 . S
H551 C563 0.950 . S
C552 H544 0.950 . S
C552 C553 1.386 . S
C552 C554 1.391 . S
C553 C552 1.386 . S
C553 C557 1.393 . S
C554 H546 0.950 . S
C554 C552 1.391 . S
C554 C555 1.400 . S
C555 C554 1.400 . S
C555 C556 1.398 . S
C555 C561 1.491 . S
C556 H547 0.950 . S
C556 C555 1.398 . S
C556 C557 1.391 . S
C557 H545 0.950 . S
C557 C553 1.393 . S
C557 C556 1.391 . S
C558 H548 0.950 . S
C558 C559 1.386 . S
C558 C560 1.391 . S
C559 C558 1.386 . S
C559 C563 1.393 . S
C560 H549 0.950 . S
C560 C558 1.391 . S
C560 C561 1.400 . S
C561 C555 1.491 . S
C561 C560 1.400 . S
C561 C562 1.398 . S
C562 H550 0.950 . S
C562 C561 1.398 . S
C562 C563 1.391 . S
C563 H551 0.950 . S
C563 C559 1.393 . S
C563 C562 1.391 . S
H564 C572 0.950 . S
H565 C577 0.950 . S
H566 C574 0.950 . S
H567 C576 0.950 . S
H568 C578 0.950 . S
H569 C580 0.950 . S
H570 C582 0.950 . S
H571 C583 0.950 . S
C572 H564 0.950 . S
C572 C573 1.386 1_455 S
C572 C574 1.391 . S
C573 C572 1.386 1_655 S
C573 C577 1.393 . S
C574 H566 0.950 . S
C574 C572 1.391 . S
C574 C575 1.400 . S
C575 C574 1.400 . S
C575 C576 1.398 1_455 S
C575 C581 1.491 . S
C576 H567 0.950 . S
C576 C575 1.398 1_655 S
C576 C577 1.391 . S
C577 H565 0.950 . S
C577 C573 1.393 . S
C577 C576 1.391 . S
C578 H568 0.950 . S
C578 C579 1.386 . S
C578 C580 1.391 . S
C579 C578 1.386 . S
C579 C583 1.393 . S
C580 H569 0.950 . S
C580 C578 1.391 . S
C580 C581 1.400 . S
C581 C575 1.491 . S
C581 C580 1.400 . S
C581 C582 1.398 . S
C582 H570 0.950 . S
C582 C581 1.398 . S
C582 C583 1.391 . S
C583 H571 0.950 . S
C583 C579 1.393 . S
C583 C582 1.391 . S
H584 C592 0.950 . S
H585 C597 0.950 . S
H586 C594 0.950 . S
H587 C596 0.950 . S
H588 C598 0.950 . S
H589 C600 0.950 . S
H590 C602 0.950 . S
H591 C603 0.950 . S
C592 H584 0.950 . S
C592 C593 1.386 1_565 S
C592 C594 1.391 . S
C593 C592 1.386 1_545 S
C593 C597 1.393 . S
C594 H586 0.950 . S
C594 C592 1.391 . S
C594 C595 1.400 . S
C595 C594 1.400 . S
C595 C596 1.398 1_565 S
C595 C601 1.491 . S
C596 H587 0.950 . S
C596 C595 1.398 1_545 S
C596 C597 1.391 . S
C597 H585 0.950 . S
C597 C593 1.393 . S
C597 C596 1.391 . S
C598 H588 0.950 . S
C598 C599 1.386 . S
C598 C600 1.391 . S
C599 C598 1.386 . S
C599 C603 1.393 . S
C600 H589 0.950 . S
C600 C598 1.391 . S
C600 C601 1.400 . S
C601 C595 1.491 . S
C601 C600 1.400 . S
C601 C602 1.398 . S
C602 H590 0.950 . S
C602 C601 1.398 . S
C602 C603 1.391 . S
C603 H591 0.950 . S
C603 C599 1.393 . S
C603 C602 1.391 . S
H604 C612 0.950 . S
H605 C617 0.950 . S
H606 C614 0.950 . S
H607 C616 0.950 . S
H608 C618 0.950 . S
H609 C620 0.950 . S
H610 C622 0.950 . S
H611 C623 0.950 . S
C612 H604 0.950 . S
C612 C613 1.386 . S
C612 C614 1.391 . S
C613 C612 1.386 . S
C613 C617 1.393 . S
C614 H606 0.950 . S
C614 C612 1.391 . S
C614 C615 1.400 . S
C615 C614 1.400 . S
C615 C616 1.398 . S
C615 C621 1.491 . S
C616 H607 0.950 . S
C616 C615 1.398 . S
C616 C617 1.391 . S
C617 H605 0.950 . S
C617 C613 1.393 . S
C617 C616 1.391 . S
C618 H608 0.950 . S
C618 C619 1.386 . S
C618 C620 1.391 . S
C619 C618 1.386 . S
C619 C623 1.393 . S
C620 H609 0.950 . S
C620 C618 1.391 . S
C620 C621 1.400 . S
C621 C615 1.491 . S
C621 C620 1.400 . S
C621 C622 1.398 . S
C622 H610 0.950 . S
C622 C621 1.398 . S
C622 C623 1.391 . S
C623 H611 0.950 . S
C623 C619 1.393 . S
C623 C622 1.391 . S
C213 C187 1.465 . S
C219 C17 1.445 . S
C233 C6 1.172 . S
C239 C40 1.191 . S
C253 C85 1.435 . S
C259 C51 1.480 . S
C273 C108 1.186 . S
C279 C96 1.181 . S
C293 C153 1.425 . S
C299 C119 1.471 . S
C313 C164 1.172 . S
C319 C198 1.187 . S
C333 C15 1.640 . S
C339 C22 1.643 . S
C353 C49 1.826 . S
C359 C56 1.831 . S
C373 C90 1.651 . S
C379 C83 1.655 . S
C393 C124 1.801 . S
C399 C117 1.797 . S
C413 C151 1.649 . S
C419 C158 1.645 . S
C433 C192 1.790 . S
C439 C185 1.795 . S
C453 C142 1.416 . S
C459 C3 1.295 1_556 S
C473 C173 1.890 . S
C479 C37 1.903 . S
C493 C28 1.416 1_556 S
C499 C69 1.255 . S
C513 C105 1.888 . S
C519 C35 1.863 . S
C533 C74 1.418 . S
C539 C137 1.293 1_556 S
C553 C103 1.880 . S
C559 C171 1.905 . S
C573 C130 1.441 . S
C579 C1 1.320 . S
C593 C62 1.441 . S
C599 C139 1.317 . S
C613 C176 1.430 . S
C619 C71 1.345 . S
