# Generated by pormake.
# Topology ukm, (4)-cn, num edge types: 1
# Building blocks:
#     Node 0, Type 0, BuildingBlock: GALJAG_clean_sbu_0, # of connection points: 4
#     Node 1, Type 0, BuildingBlock: GALJAG_clean_sbu_0, # of connection points: 4
#     Node 2, Type 0, BuildingBlock: GALJAG_clean_sbu_0, # of connection points: 4
#     Node 3, Type 0, BuildingBlock: GALJAG_clean_sbu_0, # of connection points: 4
#     Node 4, Type 0, BuildingBlock: GALJAG_clean_sbu_0, # of connection points: 4
#     Node 5, Type 0, BuildingBlock: GALJAG_clean_sbu_0, # of connection points: 4
#     Node 6, Type 0, BuildingBlock: GALJAG_clean_sbu_0, # of connection points: 4
#     Node 7, Type 0, BuildingBlock: GALJAG_clean_sbu_0, # of connection points: 4
#     Node 8, Type 0, BuildingBlock: GALJAG_clean_sbu_0, # of connection points: 4
#     Node 9, Type 0, BuildingBlock: GALJAG_clean_sbu_0, # of connection points: 4
#     Node 10, Type 0, BuildingBlock: GALJAG_clean_sbu_0, # of connection points: 4
#     Node 11, Type 0, BuildingBlock: GALJAG_clean_sbu_0, # of connection points: 4
#     Node 12, Type 0, BuildingBlock: GALJAG_clean_sbu_0, # of connection points: 4
#     Node 13, Type 0, BuildingBlock: GALJAG_clean_sbu_0, # of connection points: 4
#     Node 14, Type 0, BuildingBlock: GALJAG_clean_sbu_0, # of connection points: 4
#     Node 15, Type 0, BuildingBlock: GALJAG_clean_sbu_0, # of connection points: 4
#     Node 16, Type 0, BuildingBlock: GALJAG_clean_sbu_0, # of connection points: 4
#     Node 17, Type 0, BuildingBlock: GALJAG_clean_sbu_0, # of connection points: 4
#     Node 18, Type 0, BuildingBlock: GALJAG_clean_sbu_0, # of connection points: 4
#     Node 19, Type 0, BuildingBlock: GALJAG_clean_sbu_0, # of connection points: 4
#     Node 20, Type 0, BuildingBlock: GALJAG_clean_sbu_0, # of connection points: 4
#     Node 21, Type 0, BuildingBlock: GALJAG_clean_sbu_0, # of connection points: 4
#     Node 22, Type 0, BuildingBlock: GALJAG_clean_sbu_0, # of connection points: 4
#     Node 23, Type 0, BuildingBlock: GALJAG_clean_sbu_0, # of connection points: 4
#     Node 24, Type 0, BuildingBlock: GALJAG_clean_sbu_0, # of connection points: 4
#     Node 25, Type 0, BuildingBlock: GALJAG_clean_sbu_0, # of connection points: 4
#     Node 26, Type 0, BuildingBlock: GALJAG_clean_sbu_0, # of connection points: 4
#     Node 27, Type 0, BuildingBlock: GALJAG_clean_sbu_0, # of connection points: 4
#     Node 28, Type 0, BuildingBlock: GALJAG_clean_sbu_0, # of connection points: 4
#     Node 29, Type 0, BuildingBlock: GALJAG_clean_sbu_0, # of connection points: 4
#     Node 30, Type 0, BuildingBlock: GALJAG_clean_sbu_0, # of connection points: 4
#     Node 31, Type 0, BuildingBlock: GALJAG_clean_sbu_0, # of connection points: 4
#     Edge 32, Type (0, 0), BuildingBlock: OJICUG_clean_linker_0, # of connection points: 2
#     Edge 33, Type (0, 0), BuildingBlock: OJICUG_clean_linker_0, # of connection points: 2
#     Edge 34, Type (0, 0), BuildingBlock: OJICUG_clean_linker_0, # of connection points: 2
#     Edge 35, Type (0, 0), BuildingBlock: OJICUG_clean_linker_0, # of connection points: 2
#     Edge 36, Type (0, 0), BuildingBlock: OJICUG_clean_linker_0, # of connection points: 2
#     Edge 37, Type (0, 0), BuildingBlock: OJICUG_clean_linker_0, # of connection points: 2
#     Edge 38, Type (0, 0), BuildingBlock: OJICUG_clean_linker_0, # of connection points: 2
#     Edge 39, Type (0, 0), BuildingBlock: OJICUG_clean_linker_0, # of connection points: 2
#     Edge 40, Type (0, 0), BuildingBlock: OJICUG_clean_linker_0, # of connection points: 2
#     Edge 41, Type (0, 0), BuildingBlock: OJICUG_clean_linker_0, # of connection points: 2
#     Edge 42, Type (0, 0), BuildingBlock: OJICUG_clean_linker_0, # of connection points: 2
#     Edge 43, Type (0, 0), BuildingBlock: OJICUG_clean_linker_0, # of connection points: 2
#     Edge 44, Type (0, 0), BuildingBlock: OJICUG_clean_linker_0, # of connection points: 2
#     Edge 45, Type (0, 0), BuildingBlock: OJICUG_clean_linker_0, # of connection points: 2
#     Edge 46, Type (0, 0), BuildingBlock: OJICUG_clean_linker_0, # of connection points: 2
#     Edge 47, Type (0, 0), BuildingBlock: OJICUG_clean_linker_0, # of connection points: 2
#     Edge 48, Type (0, 0), BuildingBlock: OJICUG_clean_linker_0, # of connection points: 2
#     Edge 49, Type (0, 0), BuildingBlock: OJICUG_clean_linker_0, # of connection points: 2
#     Edge 50, Type (0, 0), BuildingBlock: OJICUG_clean_linker_0, # of connection points: 2
#     Edge 51, Type (0, 0), BuildingBlock: OJICUG_clean_linker_0, # of connection points: 2
#     Edge 52, Type (0, 0), BuildingBlock: OJICUG_clean_linker_0, # of connection points: 2
#     Edge 53, Type (0, 0), BuildingBlock: OJICUG_clean_linker_0, # of connection points: 2
#     Edge 54, Type (0, 0), BuildingBlock: OJICUG_clean_linker_0, # of connection points: 2
#     Edge 55, Type (0, 0), BuildingBlock: OJICUG_clean_linker_0, # of connection points: 2
#     Edge 56, Type (0, 0), BuildingBlock: OJICUG_clean_linker_0, # of connection points: 2
#     Edge 57, Type (0, 0), BuildingBlock: OJICUG_clean_linker_0, # of connection points: 2
#     Edge 58, Type (0, 0), BuildingBlock: OJICUG_clean_linker_0, # of connection points: 2
#     Edge 59, Type (0, 0), BuildingBlock: OJICUG_clean_linker_0, # of connection points: 2
#     Edge 60, Type (0, 0), BuildingBlock: OJICUG_clean_linker_0, # of connection points: 2
#     Edge 61, Type (0, 0), BuildingBlock: OJICUG_clean_linker_0, # of connection points: 2
#     Edge 62, Type (0, 0), BuildingBlock: OJICUG_clean_linker_0, # of connection points: 2
#     Edge 63, Type (0, 0), BuildingBlock: OJICUG_clean_linker_0, # of connection points: 2
#     Edge 64, Type (0, 0), BuildingBlock: OJICUG_clean_linker_0, # of connection points: 2
#     Edge 65, Type (0, 0), BuildingBlock: OJICUG_clean_linker_0, # of connection points: 2
#     Edge 66, Type (0, 0), BuildingBlock: OJICUG_clean_linker_0, # of connection points: 2
#     Edge 67, Type (0, 0), BuildingBlock: OJICUG_clean_linker_0, # of connection points: 2
#     Edge 68, Type (0, 0), BuildingBlock: OJICUG_clean_linker_0, # of connection points: 2
#     Edge 69, Type (0, 0), BuildingBlock: OJICUG_clean_linker_0, # of connection points: 2
#     Edge 70, Type (0, 0), BuildingBlock: OJICUG_clean_linker_0, # of connection points: 2
#     Edge 71, Type (0, 0), BuildingBlock: OJICUG_clean_linker_0, # of connection points: 2
#     Edge 72, Type (0, 0), BuildingBlock: OJICUG_clean_linker_0, # of connection points: 2
#     Edge 73, Type (0, 0), BuildingBlock: OJICUG_clean_linker_0, # of connection points: 2
#     Edge 74, Type (0, 0), BuildingBlock: OJICUG_clean_linker_0, # of connection points: 2
#     Edge 75, Type (0, 0), BuildingBlock: OJICUG_clean_linker_0, # of connection points: 2
#     Edge 76, Type (0, 0), BuildingBlock: OJICUG_clean_linker_0, # of connection points: 2
#     Edge 77, Type (0, 0), BuildingBlock: OJICUG_clean_linker_0, # of connection points: 2
#     Edge 78, Type (0, 0), BuildingBlock: OJICUG_clean_linker_0, # of connection points: 2
#     Edge 79, Type (0, 0), BuildingBlock: OJICUG_clean_linker_0, # of connection points: 2
#     Edge 80, Type (0, 0), BuildingBlock: OJICUG_clean_linker_0, # of connection points: 2
#     Edge 81, Type (0, 0), BuildingBlock: OJICUG_clean_linker_0, # of connection points: 2
#     Edge 82, Type (0, 0), BuildingBlock: OJICUG_clean_linker_0, # of connection points: 2
#     Edge 83, Type (0, 0), BuildingBlock: OJICUG_clean_linker_0, # of connection points: 2
#     Edge 84, Type (0, 0), BuildingBlock: OJICUG_clean_linker_0, # of connection points: 2
#     Edge 85, Type (0, 0), BuildingBlock: OJICUG_clean_linker_0, # of connection points: 2
#     Edge 86, Type (0, 0), BuildingBlock: OJICUG_clean_linker_0, # of connection points: 2
#     Edge 87, Type (0, 0), BuildingBlock: OJICUG_clean_linker_0, # of connection points: 2
#     Edge 88, Type (0, 0), BuildingBlock: OJICUG_clean_linker_0, # of connection points: 2
#     Edge 89, Type (0, 0), BuildingBlock: OJICUG_clean_linker_0, # of connection points: 2
#     Edge 90, Type (0, 0), BuildingBlock: OJICUG_clean_linker_0, # of connection points: 2
#     Edge 91, Type (0, 0), BuildingBlock: OJICUG_clean_linker_0, # of connection points: 2
#     Edge 92, Type (0, 0), BuildingBlock: OJICUG_clean_linker_0, # of connection points: 2
#     Edge 93, Type (0, 0), BuildingBlock: OJICUG_clean_linker_0, # of connection points: 2
#     Edge 94, Type (0, 0), BuildingBlock: OJICUG_clean_linker_0, # of connection points: 2
#     Edge 95, Type (0, 0), BuildingBlock: OJICUG_clean_linker_0, # of connection points: 2
# Relax obj value: 0.098
# Max RMSD: 0.122
# Mean RMSD: 0.122
data_MOF--net-ukm--node1-GALJAG_clean_sbu_0--edge1-OJICUG_clean_linker_0
_symmetry_space_group_name_H-M    P1
_symmetry_Int_Tables_number       1
_symmetry_cell_setting            triclinic
loop_
_symmetry_equiv_pos_as_xyz
'x, y, z'
_cell_length_a     18.231512
_cell_length_b     74.383855
_cell_length_c     33.317387
_cell_angle_alpha  89.983263
_cell_angle_beta   90.072642
_cell_angle_gamma 89.998314
loop_
_atom_site_label
_atom_site_type_symbol
_atom_site_fract_x
_atom_site_fract_y
_atom_site_fract_z
_atom_type_partial_charge
In0 In 0.11435 0.3185 0.27943 0.0
O1 O 0.0566 0.32838 0.33654 0.0
O2 O 0.06063 0.34587 0.28635 0.0
C3 C 0.05998 0.28531 0.26527 0.0
C4 C 0.24211 0.31748 0.32067 0.0
C5 C 0.12214 0.32835 0.2021 0.0
O6 O 0.02303 0.29725 0.28326 0.0
O7 O 0.12425 0.28998 0.25617 0.0
O8 O 0.17875 0.32587 0.22333 0.0
O9 O 0.06205 0.3263 0.22027 0.0
C10 C 0.04249 0.34378 0.32248 0.0
O11 O 0.22421 0.33054 0.29857 0.0
O12 O 0.19621 0.3048 0.32156 0.0
In13 In 0.13819 0.9344 0.27994 0.0
O14 O 0.0295 0.922 0.29977 0.0
O15 O 0.05417 0.94835 0.32025 0.0
C16 C 0.13105 0.92371 0.20316 0.0
C17 C 0.21206 0.90986 0.32408 0.0
C18 C 0.19278 0.96743 0.26442 0.0
O19 O 0.07422 0.92644 0.22397 0.0
O20 O 0.19092 0.92591 0.22152 0.0
O21 O 0.22877 0.95581 0.28397 0.0
O22 O 0.12908 0.96259 0.25453 0.0
C23 C 0.00974 0.93536 0.3204 0.0
O24 O 0.19475 0.92509 0.33794 0.0
O25 O 0.19566 0.90757 0.28773 0.0
In26 In 0.11658 0.93328 0.95425 0.0
O27 O 0.05489 0.92356 0.898 0.0
O28 O 0.06023 0.90623 0.94845 0.0
C29 C 0.06479 0.96678 0.96789 0.0
C30 C 0.2452 0.93354 0.91356 0.0
C31 C 0.12199 0.92343 0.03166 0.0
O32 O 0.02858 0.95527 0.94812 0.0
O33 O 0.12727 0.96156 0.9791 0.0
O34 O 0.17924 0.92543 0.01077 0.0
O35 O 0.06253 0.92604 0.01316 0.0
C36 C 0.03975 0.90833 0.91267 0.0
O37 O 0.22419 0.92028 0.9341 0.0
O38 O 0.20182 0.94674 0.91371 0.0
In39 In 0.14257 0.31811 0.95319 0.0
O40 O 0.03402 0.33066 0.93338 0.0
O41 O 0.05926 0.30454 0.91172 0.0
C42 C 0.13491 0.32801 0.0305 0.0
C43 C 0.21624 0.34313 0.91034 0.0
C44 C 0.19639 0.28483 0.9668 0.0
O45 O 0.07826 0.32561 0.00926 0.0
O46 O 0.19496 0.32582 0.01238 0.0
O47 O 0.23288 0.29668 0.94826 0.0
O48 O 0.13276 0.28963 0.97684 0.0
C49 C 0.01475 0.31751 0.91193 0.0
O50 O 0.20077 0.32784 0.89614 0.0
O51 O 0.19837 0.34524 0.94651 0.0
In52 In 0.8834 0.68444 0.70554 0.0
O53 O 0.77485 0.6718 0.68572 0.0
O54 O 0.80317 0.69708 0.66065 0.0
C55 C 0.87547 0.67591 0.78361 0.0
C56 C 0.96016 0.6584 0.66755 0.0
C57 C 0.93715 0.71786 0.71786 0.0
O58 O 0.81875 0.67845 0.76249 0.0
O59 O 0.93543 0.67738 0.76507 0.0
O60 O 0.97395 0.70578 0.70027 0.0
O61 O 0.873 0.71324 0.72742 0.0
C62 C 0.75755 0.68436 0.66213 0.0
O63 O 0.95047 0.67376 0.65212 0.0
O64 O 0.93381 0.65665 0.70222 0.0
In65 In 0.86428 0.06863 0.7038 0.0
O66 O 0.80114 0.0783 0.64811 0.0
O67 O 0.8049 0.0953 0.69917 0.0
C68 C 0.81174 0.03521 0.71749 0.0
C69 C 0.99137 0.06891 0.66169 0.0
C70 C 0.87428 0.0786 0.78097 0.0
O71 O 0.7757 0.0468 0.69787 0.0
O72 O 0.8745 0.0403 0.7285 0.0
O73 O 0.93034 0.07625 0.75933 0.0
O74 O 0.81379 0.07625 0.76336 0.0
C75 C 0.7844 0.09331 0.66336 0.0
O76 O 0.96866 0.08233 0.68113 0.0
O77 O 0.95042 0.05527 0.66361 0.0
In78 In 0.89626 0.06933 0.02969 0.0
O79 O 0.78856 0.08227 0.04981 0.0
O80 O 0.81098 0.05579 0.07012 0.0
C81 C 0.8891 0.07909 0.95233 0.0
C82 C 0.97294 0.09443 0.07088 0.0
C83 C 0.94861 0.03587 0.01609 0.0
O84 O 0.8324 0.07718 0.97369 0.0
O85 O 0.94902 0.07645 0.97034 0.0
O86 O 0.9847 0.04742 0.03583 0.0
O87 O 0.88604 0.04104 0.00494 0.0
C88 C 0.76743 0.06896 0.07018 0.0
O89 O 0.95738 0.07928 0.08588 0.0
O90 O 0.95305 0.09634 0.03495 0.0
In91 In 0.86568 0.6855 0.03291 0.0
O92 O 0.97563 0.67292 0.04998 0.0
O93 O 0.95132 0.69882 0.0733 0.0
C94 C 0.86846 0.67584 0.9554 0.0
C95 C 0.79384 0.66059 0.07696 0.0
C96 C 0.81289 0.71889 0.01984 0.0
O97 O 0.9263 0.67773 0.97591 0.0
O98 O 0.80952 0.67834 0.97439 0.0
O99 O 0.77631 0.70712 0.03856 0.0
O100 O 0.87625 0.71399 0.00955 0.0
C101 C 0.99613 0.68593 0.07154 0.0
O102 O 0.81058 0.67584 0.09093 0.0
O103 O 0.80956 0.65847 0.04049 0.0
In104 In 0.11476 0.81962 0.77866 0.0
O105 O 0.05052 0.83042 0.83289 0.0
O106 O 0.06354 0.84735 0.78216 0.0
C107 C 0.05866 0.78644 0.76589 0.0
C108 C 0.24104 0.81943 0.82135 0.0
C109 C 0.12797 0.82812 0.70085 0.0
O110 O 0.02195 0.79872 0.78278 0.0
O111 O 0.12358 0.79074 0.75731 0.0
O112 O 0.18298 0.82494 0.72281 0.0
O113 O 0.06684 0.8274 0.71848 0.0
C114 C 0.0396 0.84571 0.81739 0.0
O115 O 0.22325 0.83214 0.79829 0.0
O116 O 0.19525 0.80673 0.82299 0.0
In117 In 0.14044 0.43441 0.77928 0.0
O118 O 0.21123 0.42198 0.82936 0.0
O119 O 0.16907 0.40482 0.784 0.0
C120 C 0.19294 0.46799 0.76659 0.0
C121 C 0.01445 0.43703 0.8214 0.0
C122 C 0.13702 0.4246 0.70216 0.0
O123 O 0.23292 0.45543 0.7798 0.0
O124 O 0.1266 0.4638 0.762 0.0
O125 O 0.07983 0.42548 0.72343 0.0
O126 O 0.19617 0.42826 0.72019 0.0
C127 C 0.20594 0.40616 0.81583 0.0
O128 O 0.01624 0.43282 0.78477 0.0
O129 O 0.07641 0.44003 0.83699 0.0
In130 In 0.12023 0.43511 0.45397 0.0
O131 O 0.24446 0.43348 0.44857 0.0
O132 O 0.1845 0.4407 0.39629 0.0
C133 C 0.12476 0.42512 0.53099 0.0
C134 C 0.05519 0.40684 0.41718 0.0
C135 C 0.0661 0.46858 0.46657 0.0
O136 O 0.1818 0.42646 0.50972 0.0
O137 O 0.06522 0.42846 0.51304 0.0
O138 O 0.02679 0.45588 0.45349 0.0
O139 O 0.13267 0.4646 0.47114 0.0
C140 C 0.24639 0.43764 0.41191 0.0
O141 O 0.05034 0.42266 0.40356 0.0
O142 O 0.09136 0.40551 0.44924 0.0
In143 In 0.14072 0.81753 0.45156 0.0
O144 O 0.21263 0.83081 0.40327 0.0
O145 O 0.16658 0.84732 0.44866 0.0
C146 C 0.19372 0.78374 0.45998 0.0
C147 C 0.01416 0.81551 0.40936 0.0
C148 C 0.14113 0.82645 0.52936 0.0
O149 O 0.23271 0.79653 0.44706 0.0
O150 O 0.12786 0.78785 0.46661 0.0
O151 O 0.08353 0.82671 0.50824 0.0
O152 O 0.19884 0.822 0.51094 0.0
C153 C 0.20504 0.84647 0.41736 0.0
O154 O 0.01593 0.81774 0.44686 0.0
O155 O 0.07632 0.81406 0.39304 0.0
In156 In 0.8904 0.18293 0.20389 0.0
O157 O 0.95668 0.17243 0.15 0.0
O158 O 0.94245 0.15532 0.2003 0.0
C159 C 0.94245 0.21646 0.21648 0.0
C160 C 0.76368 0.18303 0.16133 0.0
C161 C 0.88262 0.17429 0.28187 0.0
O162 O 0.97972 0.20458 0.19851 0.0
O163 O 0.87879 0.21158 0.22632 0.0
O164 O 0.82595 0.17626 0.26042 0.0
O165 O 0.94267 0.17635 0.26369 0.0
C166 C 0.96769 0.15713 0.16541 0.0
O167 O 0.78175 0.17029 0.18425 0.0
O168 O 0.8092 0.19578 0.15991 0.0
In169 In 0.87147 0.56864 0.20582 0.0
O170 O 0.99592 0.56964 0.19921 0.0
O171 O 0.93325 0.56346 0.14722 0.0
C172 C 0.87316 0.57809 0.28329 0.0
C173 C 0.80695 0.59732 0.17059 0.0
C174 C 0.81749 0.53514 0.21734 0.0
O175 O 0.93089 0.57732 0.2624 0.0
O176 O 0.81458 0.57441 0.26478 0.0
O177 O 0.77812 0.54794 0.2048 0.0
O178 O 0.88419 0.53904 0.22185 0.0
C179 C 0.99603 0.56598 0.16225 0.0
O180 O 0.79857 0.58153 0.15731 0.0
O181 O 0.84661 0.59843 0.20145 0.0
In182 In 0.89307 0.57006 0.53223 0.0
O183 O 0.95281 0.58027 0.58861 0.0
O184 O 0.94792 0.5973 0.5376 0.0
C185 C 0.94752 0.53679 0.51884 0.0
C186 C 0.76438 0.56979 0.57246 0.0
C187 C 0.88358 0.57938 0.4547 0.0
O188 O 0.98495 0.54891 0.53592 0.0
O189 O 0.88269 0.54129 0.51049 0.0
O190 O 0.82745 0.57668 0.47604 0.0
O191 O 0.94399 0.57777 0.47282 0.0
C192 C 0.96754 0.59547 0.5736 0.0
O193 O 0.78448 0.58281 0.55088 0.0
O194 O 0.80914 0.55687 0.57392 0.0
In195 In 0.86257 0.18212 0.53172 0.0
O196 O 0.79612 0.17138 0.5853 0.0
O197 O 0.81159 0.1544 0.53492 0.0
C198 C 0.80999 0.21558 0.5192 0.0
C199 C 0.98955 0.18245 0.57406 0.0
C200 C 0.87023 0.17375 0.45362 0.0
O201 O 0.77296 0.20369 0.53728 0.0
O202 O 0.87368 0.21075 0.5093 0.0
O203 O 0.92692 0.17564 0.47509 0.0
O204 O 0.81018 0.17571 0.47187 0.0
C205 C 0.78574 0.1561 0.5697 0.0
O206 O 0.97233 0.16983 0.55061 0.0
O207 O 0.94289 0.19493 0.57624 0.0
In208 In 0.61864 0.31843 0.77866 0.0
O209 O 0.72631 0.33122 0.79908 0.0
O210 O 0.70479 0.30441 0.81757 0.0
C211 C 0.62406 0.32922 0.70189 0.0
C212 C 0.54475 0.34264 0.82344 0.0
C213 C 0.56469 0.28529 0.76387 0.0
O214 O 0.68132 0.32672 0.72258 0.0
O215 O 0.56457 0.32673 0.72037 0.0
O216 O 0.52921 0.29681 0.78393 0.0
O217 O 0.62755 0.29031 0.75296 0.0
C218 C 0.74776 0.31769 0.81866 0.0
O219 O 0.563 0.32741 0.83698 0.0
O220 O 0.56003 0.34506 0.787 0.0
In221 In 0.64047 0.93304 0.77926 0.0
O222 O 0.53228 0.92044 0.79976 0.0
O223 O 0.55952 0.94617 0.82289 0.0
C224 C 0.63181 0.92417 0.70141 0.0
C225 C 0.71808 0.9073 0.81777 0.0
C226 C 0.69344 0.96643 0.76612 0.0
O227 O 0.57533 0.92636 0.72284 0.0
O228 O 0.69203 0.9261 0.71958 0.0
O229 O 0.73003 0.95464 0.78483 0.0
O230 O 0.63 0.96154 0.75581 0.0
C231 C 0.51428 0.93335 0.82219 0.0
O232 O 0.70723 0.92262 0.83309 0.0
O233 O 0.69252 0.90545 0.78292 0.0
In234 In 0.61291 0.93564 0.45275 0.0
O235 O 0.7201 0.92263 0.43242 0.0
O236 O 0.69864 0.9493 0.41298 0.0
C237 C 0.61967 0.92539 0.52986 0.0
C238 C 0.53799 0.91118 0.4091 0.0
C239 C 0.55896 0.96885 0.46642 0.0
O240 O 0.67653 0.92777 0.50887 0.0
O241 O 0.55984 0.92779 0.51159 0.0
O242 O 0.52288 0.95707 0.44743 0.0
O243 O 0.62244 0.96404 0.47683 0.0
C244 C 0.74148 0.93599 0.4123 0.0
O245 O 0.55512 0.92642 0.3952 0.0
O246 O 0.55507 0.90884 0.44535 0.0
In247 In 0.63809 0.31733 0.45402 0.0
O248 O 0.53102 0.33036 0.4335 0.0
O249 O 0.55149 0.30349 0.41506 0.0
C250 C 0.63207 0.32841 0.53057 0.0
C251 C 0.7124 0.34139 0.40894 0.0
C252 C 0.69149 0.28413 0.46914 0.0
O253 O 0.57496 0.32572 0.50989 0.0
O254 O 0.69167 0.3259 0.51224 0.0
O255 O 0.72766 0.2957 0.44959 0.0
O256 O 0.62822 0.28913 0.47938 0.0
C257 C 0.50908 0.31688 0.41393 0.0
O258 O 0.69315 0.32624 0.39541 0.0
O259 O 0.698 0.34379 0.44549 0.0
In260 In 0.4013 0.68508 0.19628 0.0
O261 O 0.29332 0.67212 0.17711 0.0
O262 O 0.3132 0.69903 0.15863 0.0
C263 C 0.39708 0.67365 0.27259 0.0
C264 C 0.47426 0.66145 0.14959 0.0
C265 C 0.45279 0.71835 0.21191 0.0
O266 O 0.33977 0.67563 0.25171 0.0
O267 O 0.45629 0.677 0.25457 0.0
O268 O 0.49009 0.70692 0.1926 0.0
O269 O 0.38944 0.71318 0.22155 0.0
C270 C 0.27053 0.68568 0.15807 0.0
O271 O 0.45295 0.67653 0.13659 0.0
O272 O 0.46301 0.65898 0.18645 0.0
In273 In 0.366 0.06877 0.19887 0.0
O274 O 0.47456 0.08158 0.17978 0.0
O275 O 0.44938 0.05576 0.15644 0.0
C276 C 0.3715 0.07788 0.27661 0.0
C277 C 0.28865 0.09425 0.1594 0.0
C278 C 0.31363 0.03534 0.21202 0.0
O279 O 0.42881 0.07589 0.25576 0.0
O280 O 0.31202 0.0756 0.25794 0.0
O281 O 0.2773 0.04702 0.1928 0.0
O282 O 0.37673 0.04034 0.22269 0.0
C283 C 0.49415 0.06868 0.15774 0.0
O284 O 0.3017 0.07905 0.14401 0.0
O285 O 0.31202 0.0961 0.1947 0.0
In286 In 0.38559 0.0708 0.52656 0.0
O287 O 0.27572 0.08285 0.54614 0.0
O288 O 0.30672 0.05779 0.57142 0.0
C289 C 0.37911 0.07905 0.44836 0.0
C290 C 0.46294 0.09691 0.56385 0.0
C291 C 0.43873 0.03744 0.51424 0.0
O292 O 0.322 0.07704 0.46939 0.0
O293 O 0.43881 0.07726 0.46709 0.0
O294 O 0.47521 0.04934 0.53267 0.0
O295 O 0.37521 0.04222 0.50379 0.0
C296 C 0.25959 0.07016 0.56964 0.0
O297 O 0.45513 0.08145 0.57908 0.0
O298 O 0.43374 0.09879 0.52988 0.0
In299 In 0.36969 0.68186 0.52104 0.0
O300 O 0.47571 0.66933 0.5451 0.0
O301 O 0.45022 0.69589 0.56359 0.0
C302 C 0.38268 0.67229 0.44376 0.0
C303 C 0.29101 0.65645 0.5598 0.0
C304 C 0.31387 0.71488 0.50658 0.0
O305 O 0.43801 0.67516 0.46573 0.0
O306 O 0.32164 0.67392 0.4611 0.0
O307 O 0.27764 0.70288 0.52479 0.0
O308 O 0.37827 0.71037 0.49732 0.0
C309 C 0.49414 0.68283 0.56563 0.0
O310 O 0.30193 0.67185 0.57476 0.0
O311 O 0.31733 0.65434 0.52522 0.0
In312 In 0.61628 0.82055 0.27782 0.0
O313 O 0.54294 0.83273 0.32694 0.0
O314 O 0.58894 0.85013 0.28317 0.0
C315 C 0.56631 0.78681 0.26531 0.0
C316 C 0.74269 0.81766 0.31988 0.0
C317 C 0.61387 0.8307 0.20086 0.0
O318 O 0.52654 0.79894 0.28051 0.0
O319 O 0.63143 0.79151 0.2585 0.0
O320 O 0.67188 0.83088 0.22167 0.0
O321 O 0.55679 0.82575 0.21926 0.0
C322 C 0.54971 0.84862 0.31405 0.0
O323 O 0.7409 0.82155 0.28306 0.0
O324 O 0.68059 0.81517 0.33565 0.0
In325 In 0.64222 0.43355 0.2796 0.0
O326 O 0.51783 0.43385 0.28494 0.0
O327 O 0.57961 0.4381 0.33823 0.0
C328 C 0.63738 0.42433 0.20209 0.0
C329 C 0.70435 0.40451 0.31459 0.0
C330 C 0.69849 0.4669 0.26893 0.0
O331 O 0.58051 0.42522 0.22361 0.0
O332 O 0.69686 0.42771 0.22003 0.0
O333 O 0.73759 0.4538 0.28007 0.0
O334 O 0.63131 0.46334 0.26546 0.0
C335 C 0.51703 0.43671 0.32223 0.0
O336 O 0.71358 0.42022 0.32816 0.0
O337 O 0.66513 0.40366 0.28351 0.0
In338 In 0.6182 0.4343 0.95346 0.0
O339 O 0.54699 0.42126 0.90454 0.0
O340 O 0.59355 0.40449 0.94942 0.0
C341 C 0.56152 0.46761 0.96394 0.0
C342 C 0.74366 0.43719 0.91094 0.0
C343 C 0.62346 0.42486 0.03085 0.0
O344 O 0.52269 0.45445 0.95294 0.0
O345 O 0.62877 0.46413 0.96746 0.0
O346 O 0.68023 0.42585 0.00929 0.0
O347 O 0.56389 0.42828 0.01304 0.0
C348 C 0.55491 0.40552 0.91815 0.0
O349 O 0.74264 0.43448 0.94828 0.0
O350 O 0.68118 0.43862 0.89485 0.0
In351 In 0.63872 0.82024 0.95336 0.0
O352 O 0.53369 0.83338 0.93023 0.0
O353 O 0.55425 0.80637 0.91297 0.0
C354 C 0.62533 0.83083 0.02983 0.0
C355 C 0.71801 0.84487 0.91255 0.0
C356 C 0.69325 0.78718 0.969 0.0
O357 O 0.57022 0.82751 0.00806 0.0
O358 O 0.68655 0.82916 0.01266 0.0
O359 O 0.72887 0.79871 0.94904 0.0
O360 O 0.63007 0.79215 0.97939 0.0
C361 C 0.51208 0.81978 0.91098 0.0
O362 O 0.70138 0.8298 0.8975 0.0
O363 O 0.69753 0.84696 0.94831 0.0
In364 In 0.39306 0.18337 0.70122 0.0
O365 O 0.45268 0.17415 0.6442 0.0
O366 O 0.45356 0.15692 0.69495 0.0
C367 C 0.445 0.21683 0.7145 0.0
C368 C 0.26314 0.18322 0.66164 0.0
C369 C 0.38805 0.17316 0.77834 0.0
O370 O 0.48024 0.20541 0.694 0.0
O371 O 0.38323 0.21154 0.72658 0.0
O372 O 0.33081 0.17496 0.7573 0.0
O373 O 0.4474 0.17613 0.76013 0.0
C374 C 0.47133 0.15913 0.65879 0.0
O375 O 0.28766 0.16966 0.67993 0.0
O376 O 0.3038 0.19691 0.66337 0.0
In377 In 0.36008 0.56957 0.6976 0.0
O378 O 0.29851 0.57917 0.64132 0.0
O379 O 0.30364 0.59657 0.69169 0.0
C380 C 0.30768 0.53623 0.71226 0.0
C381 C 0.48809 0.56956 0.65674 0.0
C382 C 0.37016 0.57934 0.77479 0.0
O383 O 0.26941 0.54812 0.69493 0.0
O384 O 0.37237 0.54098 0.72023 0.0
O385 O 0.42612 0.57666 0.7533 0.0
O386 O 0.30957 0.5775 0.75697 0.0
C387 C 0.28326 0.59441 0.65591 0.0
O388 O 0.4675 0.58262 0.67802 0.0
O389 O 0.44413 0.55646 0.65588 0.0
In390 In 0.38564 0.56934 0.02374 0.0
O391 O 0.26129 0.56906 0.03083 0.0
O392 O 0.32552 0.56524 0.08337 0.0
C393 C 0.38279 0.57853 0.94609 0.0
C394 C 0.45119 0.59832 0.05683 0.0
C395 C 0.44047 0.53587 0.01347 0.0
O396 O 0.32553 0.57813 0.9674 0.0
O397 O 0.44142 0.57457 0.96424 0.0
O398 O 0.47941 0.5488 0.02571 0.0
O399 O 0.37375 0.53965 0.00858 0.0
C400 C 0.2622 0.5665 0.06825 0.0
O401 O 0.46197 0.5826 0.06999 0.0
O402 O 0.40802 0.59925 0.02736 0.0
In403 In 0.36783 0.18247 0.02714 0.0
O404 O 0.47426 0.16942 0.04913 0.0
O405 O 0.45146 0.19597 0.06869 0.0
C406 C 0.37688 0.173 0.94971 0.0
C407 C 0.28914 0.15713 0.06614 0.0
C408 C 0.31472 0.21584 0.01391 0.0
O409 O 0.43328 0.17528 0.97122 0.0
O410 O 0.31661 0.1752 0.96756 0.0
O411 O 0.27887 0.20417 0.03336 0.0
O412 O 0.37745 0.21082 0.00276 0.0
C413 C 0.49467 0.18275 0.06964 0.0
O414 O 0.30292 0.17226 0.08172 0.0
O415 O 0.3123 0.1553 0.03082 0.0
C416 C 0.03475 0.37373 0.41302 0.0
C417 C 0.03097 0.39076 0.39478 0.0
H418 H 0.03921 0.34525 0.40428 0.0
C419 C 0.01479 0.39188 0.35367 0.0
H420 H 0.04613 0.37247 0.44482 0.0
C421 C 0.01108 0.37626 0.3304 0.0
C422 C 0.02294 0.3593 0.34799 0.0
H423 H 0.01091 0.40482 0.33888 0.0
H424 H 0.00449 0.37756 0.29821 0.0
C425 C 0.03039 0.35812 0.38984 0.0
C426 C 0.22291 0.8955 0.39146 0.0
C427 C 0.23344 0.89455 0.3498 0.0
H428 H 0.20607 0.88078 0.44584 0.0
C429 C 0.25012 0.87784 0.33229 0.0
H430 H 0.21039 0.9082 0.40584 0.0
C431 C 0.2479 0.86211 0.35524 0.0
C432 C 0.22841 0.86288 0.39594 0.0
H433 H 0.25925 0.87674 0.30026 0.0
H434 H 0.25539 0.84929 0.34037 0.0
C435 C 0.22007 0.87977 0.41432 0.0
C436 C 0.01407 0.89418 0.8461 0.0
C437 C 0.01535 0.89289 0.88811 0.0
H438 H 0.01933 0.87998 0.79037 0.0
C439 C 0.00713 0.87588 0.90606 0.0
H440 H 0.01951 0.9071 0.83139 0.0
C441 C 0.00725 0.86031 0.88258 0.0
C442 C 0.01552 0.86153 0.84081 0.0
H443 H 0.00683 0.87449 0.93843 0.0
H444 H 0.00722 0.84735 0.89742 0.0
C445 C 0.01412 0.87861 0.82261 0.0
C446 C 0.24623 0.39115 0.8793 0.0
C447 C 0.23021 0.39007 0.83816 0.0
H448 H 0.25562 0.3768 0.93477 0.0
C449 C 0.22621 0.37306 0.81988 0.0
H450 H 0.25029 0.40408 0.8941 0.0
C451 C 0.22991 0.35743 0.84306 0.0
C452 C 0.23693 0.3586 0.88493 0.0
H453 H 0.215 0.37184 0.78806 0.0
H454 H 0.2208 0.34459 0.82858 0.0
C455 C 0.2493 0.37552 0.90256 0.0
C456 C 0.99732 0.6281 0.57967 0.0
C457 C 0.99025 0.61112 0.59793 0.0
H458 H 0.99436 0.65666 0.58773 0.0
C459 C 0.99077 0.61001 0.63997 0.0
H460 H 0.99816 0.62937 0.54728 0.0
C461 C 0.98872 0.62567 0.66311 0.0
C462 C 0.98614 0.64265 0.64456 0.0
H463 H 0.98621 0.59712 0.65491 0.0
H464 H 0.98297 0.6244 0.69535 0.0
C465 C 0.99525 0.64376 0.60282 0.0
C466 C 0.75743 0.10767 0.59724 0.0
C467 C 0.75892 0.10879 0.63926 0.0
H468 H 0.76329 0.1221 0.54183 0.0
C469 C 0.75069 0.12571 0.65758 0.0
H470 H 0.76271 0.09481 0.58226 0.0
C471 C 0.75131 0.14139 0.63443 0.0
C472 C 0.76004 0.14032 0.59267 0.0
H473 H 0.75043 0.12697 0.68997 0.0
H474 H 0.75167 0.15428 0.64952 0.0
C475 C 0.75795 0.12333 0.57409 0.0
C476 C 1.00205 0.14262 0.10041 0.0
C477 C 0.99358 0.14143 0.14218 0.0
H478 H 0.00387 0.12834 0.04472 0.0
C479 C 0.99648 0.12441 0.16055 0.0
H480 H 1.00097 0.15555 0.08545 0.0
C481 C 0.99796 0.1088 0.13724 0.0
C482 C 0.99661 0.11 0.09523 0.0
H483 H 0.99128 0.12308 0.19281 0.0
H484 H 0.99352 0.09588 0.15208 0.0
C485 C 0.00363 0.127 0.0771 0.0
C486 C 0.78901 0.63051 0.16725 0.0
C487 C 0.78239 0.61356 0.14892 0.0
H488 H 0.7956 0.65897 0.15871 0.0
C489 C 0.76312 0.61263 0.10818 0.0
H490 H 0.80275 0.63162 0.19879 0.0
C491 C 0.75931 0.62832 0.08516 0.0
C492 C 0.77414 0.64515 0.10266 0.0
H493 H 0.757 0.59975 0.09338 0.0
H494 H 0.75039 0.62714 0.05312 0.0
C495 C 0.78451 0.6462 0.14433 0.0
C496 C 0.51069 0.39026 0.85582 0.0
C497 C 0.53108 0.38925 0.89639 0.0
H498 H 0.49768 0.37592 0.80058 0.0
C499 C 0.53936 0.37227 0.91436 0.0
H500 H 0.50318 0.40316 0.84131 0.0
C501 C 0.53553 0.35665 0.89117 0.0
C502 C 0.52409 0.35783 0.84959 0.0
H503 H 0.55398 0.37109 0.94578 0.0
H504 H 0.54802 0.34387 0.9052 0.0
C505 C 0.50747 0.37465 0.83254 0.0
C506 C 0.75173 0.87724 0.90637 0.0
C507 C 0.74373 0.86026 0.8883 0.0
H508 H 0.751 0.90578 0.8978 0.0
C509 C 0.74593 0.85898 0.84632 0.0
H510 H 0.75145 0.87862 0.93874 0.0
C511 C 0.74592 0.87456 0.82289 0.0
C512 C 0.74359 0.89161 0.84114 0.0
H513 H 0.74085 0.84607 0.83155 0.0
H514 H 0.74111 0.87321 0.79062 0.0
C515 C 0.7516 0.89283 0.88293 0.0
C516 C 0.52897 0.88166 0.31819 0.0
C517 C 0.52422 0.86461 0.33621 0.0
H518 H 0.5348 0.91009 0.32734 0.0
C519 C 0.5066 0.8634 0.3771 0.0
H520 H 0.54131 0.88297 0.28652 0.0
C521 C 0.50311 0.87897 0.40055 0.0
C522 C 0.5167 0.89591 0.3833 0.0
H523 H 0.50186 0.85043 0.39167 0.0
H524 H 0.49581 0.87759 0.43267 0.0
C525 C 0.52485 0.89721 0.34153 0.0
C526 C 0.721 0.35552 0.34126 0.0
C527 C 0.73327 0.35658 0.38278 0.0
H528 H 0.70255 0.3701 0.28683 0.0
C529 C 0.75111 0.37332 0.39985 0.0
H530 H 0.70753 0.34281 0.32721 0.0
C531 C 0.74845 0.38898 0.37667 0.0
C532 C 0.72741 0.38811 0.33619 0.0
H533 H 0.76153 0.3745 0.43176 0.0
H534 H 0.75699 0.40183 0.39123 0.0
C535 C 0.71775 0.37118 0.31818 0.0
C536 C 0.50486 0.61382 0.11664 0.0
C537 C 0.47806 0.61467 0.07719 0.0
H538 H 0.52638 0.62838 0.17079 0.0
C539 C 0.4671 0.63158 0.05931 0.0
H540 H 0.51468 0.60097 0.13099 0.0
C541 C 0.47457 0.64728 0.0819 0.0
C542 C 0.49232 0.64627 0.12284 0.0
H543 H 0.44765 0.63264 0.02866 0.0
H544 H 0.45978 0.66 0.06825 0.0
C545 C 0.51173 0.62953 0.13937 0.0
C546 C 0.25818 0.12455 0.07091 0.0
C547 C 0.26334 0.14148 0.08952 0.0
H548 H 0.26104 0.09598 0.07881 0.0
C549 C 0.2581 0.14254 0.13145 0.0
H550 H 0.26081 0.12334 0.03854 0.0
C551 C 0.25796 0.12684 0.1545 0.0
C552 C 0.26318 0.1099 0.1359 0.0
H553 H 0.26092 0.1554 0.14661 0.0
H554 H 0.26039 0.12805 0.18687 0.0
C555 C 0.25816 0.10885 0.09396 0.0
C556 C 0.50286 0.11128 0.62802 0.0
C557 C 0.49035 0.11257 0.58657 0.0
H558 H 0.50852 0.12542 0.68383 0.0
C559 C 0.49076 0.12964 0.56836 0.0
H560 H 0.50393 0.09831 0.64278 0.0
C561 C 0.49328 0.14518 0.59183 0.0
C562 C 0.49541 0.14384 0.63381 0.0
H563 H 0.48259 0.13104 0.5363 0.0
H564 H 0.48656 0.15811 0.57731 0.0
C565 C 0.50545 0.12684 0.65151 0.0
C566 C 0.2605 0.62388 0.56541 0.0
C567 C 0.26395 0.64098 0.58333 0.0
H568 H 0.26251 0.5954 0.5747 0.0
C569 C 0.25509 0.64243 0.62503 0.0
H570 H 0.26593 0.62236 0.53322 0.0
C571 C 0.25285 0.62695 0.64878 0.0
C572 C 0.25957 0.60984 0.63114 0.0
H573 H 0.25654 0.65544 0.63962 0.0
H574 H 0.25249 0.62846 0.68111 0.0
C575 C 0.25832 0.6084 0.58916 0.0
C576 C 0.40552 0.30078 0.38017 0.0
C577 C 0.44034 0.31698 0.3905 0.0
H578 H 0.31443 0.28827 0.35043 0.0
C579 C 0.40967 0.33331 0.37761 0.0
H580 H 0.42807 0.28801 0.38977 0.0
C581 C 0.34581 0.33344 0.35434 0.0
C582 C 0.31052 0.31726 0.34438 0.0
H583 H 0.43567 0.34599 0.38499 0.0
H584 H 0.32352 0.34622 0.3446 0.0
C585 C 0.3406 0.30093 0.35774 0.0
C586 C 0.90671 0.91938 0.3546 0.0
C587 C 0.94087 0.93558 0.34366 0.0
H588 H 0.81744 0.90684 0.38567 0.0
C589 C 0.90921 0.95194 0.35561 0.0
H590 H 0.93019 0.90658 0.34595 0.0
C591 C 0.84397 0.95209 0.37767 0.0
C592 C 0.81032 0.93589 0.38902 0.0
H593 H 0.93444 0.96461 0.34751 0.0
H594 H 0.82029 0.96489 0.38623 0.0
C595 C 0.84248 0.91953 0.37748 0.0
C596 C 0.41101 0.91717 0.85585 0.0
C597 C 0.44577 0.93341 0.84582 0.0
H598 H 0.3209 0.90449 0.88598 0.0
C599 C 0.41446 0.9497 0.85851 0.0
H600 H 0.43417 0.90442 0.84657 0.0
C601 C 0.34884 0.94976 0.88026 0.0
C602 C 0.31449 0.93351 0.89063 0.0
H603 H 0.4401 0.96241 0.8511 0.0
H604 H 0.3254 0.9625 0.88933 0.0
C605 C 0.34646 0.91721 0.87851 0.0
C606 C 0.85021 0.3013 0.85271 0.0
C607 C 0.81656 0.3176 0.84203 0.0
H608 H 0.94032 0.28851 0.88276 0.0
C609 C 0.84841 0.33385 0.85457 0.0
H610 H 0.82676 0.28858 0.84338 0.0
C611 C 0.91227 0.3338 0.87784 0.0
C612 C 0.94636 0.3175 0.88818 0.0
H613 H 0.82332 0.34661 0.84692 0.0
H614 H 0.93548 0.34652 0.88731 0.0
C615 C 0.9151 0.30126 0.87517 0.0
C616 C 0.65904 0.70007 0.6232 0.0
C617 C 0.6899 0.68402 0.63768 0.0
H618 H 0.57173 0.71227 0.58962 0.0
C619 C 0.65597 0.66759 0.62829 0.0
H620 H 0.68408 0.71291 0.63006 0.0
C621 C 0.59287 0.6672 0.60437 0.0
C622 C 0.56146 0.68326 0.59032 0.0
H623 H 0.67884 0.65502 0.63894 0.0
H624 H 0.56808 0.65434 0.59733 0.0
C625 C 0.59477 0.6997 0.60019 0.0
C626 C 0.08908 0.08559 0.62451 0.0
C627 C 0.06008 0.06921 0.63827 0.0
H628 H 0.17439 0.09867 0.59122 0.0
C629 C 0.09713 0.05315 0.62932 0.0
H630 H 0.06141 0.09815 0.63087 0.0
C631 C 0.16258 0.05349 0.60744 0.0
C632 C 0.19104 0.06984 0.59321 0.0
H633 H 0.07601 0.04035 0.63968 0.0
H634 H 0.19038 0.04093 0.60119 0.0
C635 C 0.15348 0.08587 0.60173 0.0
C636 C 0.5964 0.05249 0.1231 0.0
C637 C 0.5639 0.06872 0.13523 0.0
H638 H 0.68735 0.03984 0.09364 0.0
C639 C 0.59869 0.08503 0.12572 0.0
H640 H 0.57078 0.03973 0.13015 0.0
C641 C 0.66437 0.0851 0.10406 0.0
C642 C 0.69743 0.06886 0.09245 0.0
H643 H 0.57465 0.09774 0.13459 0.0
H644 H 0.68984 0.09787 0.09691 0.0
C645 C 0.6631 0.05255 0.10236 0.0
C646 C 0.09824 0.70213 0.10629 0.0
C647 C 0.06644 0.68591 0.09353 0.0
H648 H 0.18877 0.71477 0.13623 0.0
C649 C 0.10201 0.66962 0.10231 0.0
H650 H 0.07193 0.71487 0.09986 0.0
C651 C 0.16783 0.66955 0.12387 0.0
C652 C 0.20013 0.68578 0.13619 0.0
H653 H 0.07846 0.65692 0.09296 0.0
H654 H 0.194 0.6568 0.13041 0.0
C655 C 0.16503 0.70208 0.127 0.0
C656 C 0.40726 0.80334 0.87934 0.0
C657 C 0.44283 0.81963 0.88803 0.0
H658 H 0.31429 0.79054 0.85203 0.0
C659 C 0.41149 0.83583 0.87479 0.0
H660 H 0.43019 0.79067 0.88936 0.0
C661 C 0.34621 0.83572 0.85275 0.0
C662 C 0.31014 0.81946 0.84445 0.0
H663 H 0.43794 0.84857 0.88101 0.0
H664 H 0.3235 0.8484 0.84261 0.0
C665 C 0.34093 0.80327 0.85816 0.0
C666 C 0.88046 0.43911 0.90794 0.0
C667 C 0.81271 0.43804 0.8879 0.0
H668 H 0.99754 0.43985 0.90253 0.0
C669 C 0.81176 0.4372 0.84581 0.0
H670 H 0.88282 0.43981 0.94039 0.0
C671 C 0.87742 0.43703 0.8242 0.0
C672 C 0.9452 0.43791 0.84425 0.0
H673 H 0.76035 0.43633 0.82959 0.0
H674 H 0.87508 0.4361 0.79177 0.0
C675 C 0.9461 0.43917 0.8863 0.0
C676 C 0.44905 0.4371 0.38741 0.0
C677 C 0.44807 0.43781 0.3453 0.0
H678 H 0.38577 0.43637 0.44149 0.0
C679 C 0.38035 0.43908 0.32529 0.0
H680 H 0.50044 0.43609 0.40361 0.0
C681 C 0.31476 0.43943 0.34696 0.0
C682 C 0.31566 0.43829 0.38902 0.0
H683 H 0.37798 0.4397 0.29283 0.0
H684 H 0.26333 0.44025 0.33074 0.0
C685 C 0.38343 0.43722 0.40906 0.0
C686 C 0.8798 0.81694 0.32267 0.0
C687 C 0.81205 0.81643 0.34272 0.0
H688 H 0.99694 0.81683 0.32803 0.0
C689 C 0.81129 0.81509 0.38476 0.0
H690 H 0.88207 0.81792 0.29025 0.0
C691 C 0.87705 0.81462 0.4064 0.0
C692 C 0.9448 0.81527 0.38636 0.0
H693 H 0.7599 0.81469 0.40102 0.0
H694 H 0.8748 0.81383 0.43884 0.0
C695 C 0.94555 0.81626 0.34427 0.0
C696 C 0.65991 0.16669 0.12847 0.0
C697 C 0.69488 0.18298 0.13791 0.0
H698 H 0.56969 0.15385 0.09867 0.0
C699 C 0.66361 0.1992 0.1247 0.0
H700 H 0.68304 0.15399 0.13818 0.0
C701 C 0.59794 0.19914 0.10292 0.0
C702 C 0.5635 0.18284 0.09304 0.0
H703 H 0.68939 0.21194 0.13167 0.0
H704 H 0.57462 0.21183 0.09336 0.0
C705 C 0.59531 0.1666 0.10577 0.0
C706 C 0.12552 0.56453 0.07351 0.0
C707 C 0.19435 0.56556 0.09242 0.0
H708 H 0.00882 0.56365 0.08081 0.0
C709 C 0.19753 0.56616 0.13453 0.0
H710 H 0.12138 0.56401 0.04109 0.0
C711 C 0.13305 0.56612 0.15724 0.0
C712 C 0.0642 0.56528 0.1383 0.0
H713 H 0.2498 0.56698 0.14992 0.0
H714 H 0.13715 0.56686 0.18964 0.0
C715 C 0.06109 0.56429 0.09623 0.0
C716 C 0.66029 0.55337 0.60472 0.0
C717 C 0.6938 0.56969 0.59406 0.0
H718 H 0.56769 0.54056 0.63222 0.0
C719 C 0.65905 0.58594 0.60396 0.0
H720 H 0.68586 0.54066 0.59726 0.0
C721 C 0.59243 0.58588 0.6247 0.0
C722 C 0.55846 0.56957 0.63493 0.0
H723 H 0.68387 0.5987 0.59616 0.0
H724 H 0.56708 0.59861 0.6323 0.0
C725 C 0.59266 0.55331 0.62452 0.0
C726 C 0.09708 0.16656 0.60438 0.0
C727 C 0.05906 0.18264 0.59687 0.0
H728 H 0.19097 0.15412 0.63152 0.0
C729 C 0.08832 0.19891 0.61109 0.0
H730 H 0.07559 0.15382 0.59385 0.0
C731 C 0.15509 0.19913 0.63184 0.0
C732 C 0.19277 0.18303 0.63964 0.0
H733 H 0.06019 0.2115 0.60562 0.0
H734 H 0.17686 0.21187 0.64215 0.0
C735 C 0.16288 0.16672 0.62601 0.0
C736 C 0.04475 0.23894 0.21892 0.0
C737 C 0.97201 0.23428 0.22785 0.0
H738 H 0.12966 0.25867 0.22409 0.0
C739 C 0.92841 0.24648 0.24959 0.0
H740 H 0.07977 0.2298 0.20242 0.0
C741 C 0.95704 0.26299 0.26222 0.0
C742 C 0.02986 0.26762 0.2534 0.0
H743 H 0.87217 0.24323 0.25711 0.0
H744 H 0.92209 0.27212 0.27878 0.0
C745 C 0.07338 0.25544 0.23157 0.0
C746 C 0.29612 0.9896 0.26111 0.0
C747 C 0.22363 0.9849 0.25158 0.0
H748 H 0.38159 0.00917 0.25567 0.0
C749 C 0.1814 0.99673 0.22804 0.0
H750 H 0.33011 0.98071 0.27896 0.0
C751 C 0.21095 0.01298 0.21446 0.0
C752 C 0.28334 0.01772 0.22413 0.0
H753 H 0.12543 0.99343 0.21997 0.0
H754 H 0.1769 0.02188 0.19668 0.0
C755 C 0.32566 0.00585 0.24753 0.0
C756 C 0.93594 0.00636 0.98068 0.0
C757 C 0.97812 0.01807 0.00455 0.0
H758 H 0.93035 0.98104 0.95005 0.0
C759 C 0.04928 0.01288 0.0157 0.0
H760 H 0.88097 0.01002 0.97139 0.0
C761 C 0.07763 0.99631 0.00327 0.0
C762 C 0.03543 0.9846 0.97941 0.0
H763 H 0.0832 0.02164 0.03389 0.0
H764 H 0.13259 0.99265 0.01256 0.0
C765 C 0.96428 0.9898 0.96824 0.0
C766 C 0.21296 0.2385 0.01324 0.0
C767 C 0.28476 0.23364 0.00272 0.0
H768 H 0.1286 0.25845 0.0098 0.0
C769 C 0.32714 0.24566 0.97981 0.0
H770 H 0.1789 0.22949 0.03069 0.0
C771 C 0.29831 0.26222 0.96767 0.0
C772 C 0.22648 0.26708 0.97815 0.0
H773 H 0.38262 0.24226 0.97105 0.0
H774 H 0.33235 0.27123 0.95021 0.0
C775 C 0.1841 0.25505 0.00107 0.0
C776 C 0.9245 0.74812 0.75012 0.0
C777 C 0.96777 0.73559 0.72913 0.0
H778 H 0.91933 0.77396 0.77851 0.0
C779 C 0.0412 0.73984 0.72086 0.0
H780 H 0.86774 0.74519 0.75713 0.0
C781 C 0.07078 0.75626 0.73337 0.0
C782 C 0.02757 0.76879 0.75439 0.0
H783 H 0.07601 0.73044 0.70496 0.0
H784 H 0.12757 0.75917 0.72638 0.0
C785 C 0.95407 0.76456 0.76259 0.0
C786 C 0.79534 0.98906 0.76493 0.0
C787 C 0.72344 0.98417 0.75457 0.0
H788 H 0.87976 0.00899 0.76103 0.0
C789 C 0.68102 0.9961 0.73136 0.0
H790 H 0.82944 0.98013 0.78259 0.0
C791 C 0.70992 0.01258 0.71876 0.0
C792 C 0.78182 0.01747 0.72913 0.0
H793 H 0.62548 0.99267 0.72269 0.0
H794 H 0.67581 0.02151 0.70109 0.0
C795 C 0.82422 0.00555 0.75237 0.0
C796 C 0.79597 0.76483 0.9716 0.0
C797 C 0.7238 0.76963 0.98148 0.0
H798 H 0.88089 0.74508 0.97639 0.0
C799 C 0.68153 0.75778 0.00489 0.0
H800 H 0.82997 0.77372 0.95382 0.0
C801 C 0.71072 0.74141 0.01801 0.0
C802 C 0.78281 0.73658 0.00803 0.0
H803 H 0.62578 0.76116 0.0132 0.0
H804 H 0.67667 0.7325 0.03572 0.0
C805 C 0.82518 0.74847 0.98475 0.0
C806 C 0.32452 0.5061 0.74434 0.0
C807 C 0.27837 0.51862 0.72518 0.0
H808 H 0.33367 0.48035 0.77278 0.0
C809 C 0.20373 0.5145 0.72054 0.0
H810 H 0.38229 0.50894 0.74856 0.0
C811 C 0.17581 0.49819 0.73482 0.0
C812 C 0.22201 0.48566 0.75388 0.0
H813 H 0.16677 0.52392 0.70617 0.0
H814 H 0.11805 0.49534 0.73057 0.0
C815 C 0.29666 0.48977 0.75847 0.0
C816 C 0.08149 0.49897 0.49784 0.0
C817 C 0.03608 0.48621 0.47895 0.0
H818 H 0.08901 0.52488 0.52579 0.0
C819 C 0.96128 0.49009 0.47408 0.0
H820 H 0.13934 0.49631 0.50231 0.0
C821 C 0.93251 0.50642 0.48767 0.0
C822 C 0.97785 0.51918 0.50659 0.0
H823 H 0.92485 0.4805 0.45989 0.0
H824 H 0.87465 0.50907 0.48319 0.0
C825 C 0.05264 0.51528 0.51158 0.0
C826 C 0.32697 0.74526 0.47516 0.0
C827 C 0.28289 0.7325 0.49489 0.0
H828 H 0.33328 0.77142 0.44836 0.0
C829 C 0.20878 0.73652 0.50188 0.0
H830 H 0.38425 0.74252 0.46913 0.0
C831 C 0.17946 0.75301 0.4896 0.0
C832 C 0.22374 0.76584 0.47022 0.0
H833 H 0.17337 0.72691 0.51675 0.0
H834 H 0.12226 0.75579 0.49577 0.0
C835 C 0.29775 0.76178 0.46305 0.0
C836 C 0.80489 0.48774 0.25857 0.0
C837 C 0.72906 0.48454 0.25704 0.0
H838 H 0.89239 0.50621 0.24678 0.0
C839 C 0.68265 0.49798 0.24159 0.0
H840 H 0.84204 0.4776 0.27005 0.0
C841 C 0.71146 0.51428 0.22791 0.0
C842 C 0.78728 0.5175 0.22943 0.0
H843 H 0.62396 0.49586 0.23976 0.0
H844 H 0.67426 0.52441 0.21642 0.0
C845 C 0.83371 0.50407 0.24495 0.0
C846 C 0.70772 0.23809 0.51712 0.0
C847 C 0.78011 0.23333 0.50761 0.0
H848 H 0.62282 0.25785 0.5121 0.0
C849 C 0.82304 0.24534 0.48498 0.0
H850 H 0.67323 0.22909 0.53432 0.0
C851 C 0.7941 0.26176 0.472 0.0
C852 C 0.72165 0.2665 0.4814 0.0
H853 H 0.87899 0.24201 0.47699 0.0
H854 H 0.82856 0.27074 0.45472 0.0
C855 C 0.6788 0.25452 0.50418 0.0
C856 C 0.46315 0.2626 0.7633 0.0
C857 C 0.53418 0.26769 0.7518 0.0
H858 H 0.3791 0.24256 0.76019 0.0
C859 C 0.57525 0.25607 0.7272 0.0
H860 H 0.43011 0.2713 0.78205 0.0
C861 C 0.54595 0.23967 0.71444 0.0
C862 C 0.47502 0.23455 0.72605 0.0
H863 H 0.63007 0.25968 0.71763 0.0
H864 H 0.57905 0.23096 0.69574 0.0
C865 C 0.43388 0.24618 0.75057 0.0
C866 C 0.42667 0.00758 0.4804 0.0
C867 C 0.46906 0.01971 0.50305 0.0
H868 H 0.422 0.98205 0.45071 0.0
C869 C 0.54138 0.01507 0.51309 0.0
H870 H 0.3708 0.01083 0.472 0.0
C871 C 0.57075 0.99862 0.50069 0.0
C872 C 0.52841 0.98651 0.47797 0.0
H873 H 0.57545 0.02417 0.53032 0.0
H874 H 0.62665 0.99538 0.50904 0.0
C875 C 0.45605 0.99114 0.46798 0.0
C876 C 0.58295 0.75705 0.23162 0.0
C877 C 0.53784 0.76905 0.25294 0.0
H878 H 0.59123 0.73168 0.20143 0.0
C879 C 0.46452 0.76434 0.26014 0.0
H880 H 0.63963 0.76037 0.22535 0.0
C881 C 0.43683 0.74795 0.24631 0.0
C882 C 0.48182 0.73598 0.22484 0.0
H883 H 0.42837 0.77336 0.27627 0.0
H884 H 0.38009 0.74466 0.25252 0.0
C885 C 0.55517 0.74068 0.21765 0.0
C886 C 0.45459 0.4883 0.97371 0.0
C887 C 0.5305 0.48523 0.97547 0.0
H888 H 0.36653 0.50667 0.98483 0.0
C889 C 0.57646 0.49881 -0.00933 0.0
H890 H 0.41778 0.47804 0.96242 0.0
C891 C 0.54712 0.51513 0.00385 0.0
C892 C 0.47123 0.51821 0.00205 0.0
H893 H 0.6352 0.49679 -0.00734 0.0
H894 H 0.58397 0.52538 0.01512 0.0
C895 C 0.42525 0.50464 0.98684 0.0
C896 C 0.19347 0.3318 0.13871 0.0
C897 C 0.12554 0.33132 0.15844 0.0
H898 H 0.24962 0.33131 0.08241 0.0
C899 C 0.06065 0.33191 0.13567 0.0
H900 H 0.24433 0.33144 0.15553 0.0
C901 C 0.06364 0.33179 0.09382 0.0
C902 C 0.13155 0.33113 0.0741 0.0
H903 H 0.00748 0.33163 0.15014 0.0
H904 H 0.01277 0.33144 0.077 0.0
C905 C 0.19645 0.33172 0.09686 0.0
C906 C 0.19155 0.91935 0.09553 0.0
C907 C 0.12415 0.92033 0.07528 0.0
H908 H 0.24648 0.91944 0.15227 0.0
C909 C 0.05871 0.92011 0.09752 0.0
H910 H 0.24279 0.9194 0.07911 0.0
C911 C 0.06077 0.92015 0.13939 0.0
C912 C 0.12829 0.9204 0.15963 0.0
H913 H 0.00591 0.92075 0.08264 0.0
H914 H 0.00959 0.92085 0.1558 0.0
C915 C 0.1936 0.91937 0.1374 0.0
C916 C 0.80547 0.67339 0.84772 0.0
C917 C 0.87276 0.67314 0.82733 0.0
H918 H 0.75137 0.67425 0.90462 0.0
C919 C 0.9382 0.67174 0.84943 0.0
H920 H 0.75421 0.67439 0.83139 0.0
C921 C 0.93664 0.67168 0.89128 0.0
C922 C 0.8696 0.67299 0.9117 0.0
H923 H 0.99089 0.67142 0.83445 0.0
H924 H 0.98807 0.67135 0.90758 0.0
C925 C 0.8039 0.6733 0.8896 0.0
C926 C 0.81413 0.08297 0.84733 0.0
C927 C 0.87866 0.08184 0.82447 0.0
H928 H 0.7669 0.08316 0.90608 0.0
C929 C 0.94687 0.08205 0.844 0.0
H930 H 0.76076 0.08296 0.83299 0.0
C931 C 0.95034 0.08218 0.88584 0.0
C932 C 0.88565 0.0821 0.90872 0.0
H933 H 0.99746 0.08127 0.82707 0.0
H934 H 0.00361 0.08152 0.9002 0.0
C935 C 0.8176 0.0831 0.88915 0.0
C936 C 0.20108 0.82814 0.63763 0.0
C937 C 0.13359 0.83051 0.65716 0.0
H938 H 0.25644 0.82507 0.58145 0.0
C939 C 0.07005 0.83347 0.63424 0.0
H940 H 0.25093 0.82588 0.65462 0.0
C941 C 0.07319 0.83302 0.59245 0.0
C942 C 0.13989 0.82957 0.57294 0.0
H943 H 0.01734 0.83543 0.64856 0.0
H944 H 0.02285 0.83466 0.57553 0.0
C945 C 0.2042 0.82766 0.59579 0.0
C946 C 0.19907 0.42128 0.63604 0.0
C947 C 0.13414 0.42153 0.65862 0.0
H948 H 0.2469 0.42199 0.57751 0.0
C949 C 0.06622 0.42069 0.63881 0.0
H950 H 0.25218 0.4218 0.65062 0.0
C951 C 0.06319 0.42088 0.597 0.0
C952 C 0.12804 0.42182 0.57444 0.0
H953 H 0.01532 0.42078 0.65555 0.0
H954 H 0.01003 0.42109 0.58243 0.0
C955 C 0.19604 0.42137 0.59423 0.0
C956 C 0.94428 0.17098 0.34826 0.0
C957 C 0.87931 0.17154 0.32556 0.0
H958 H 0.99232 0.17111 0.40689 0.0
C959 C 0.81143 0.17095 0.34531 0.0
H960 H 0.99741 0.17134 0.33376 0.0
C961 C 0.80857 0.1708 0.38715 0.0
C962 C 0.87353 0.17124 0.40986 0.0
H963 H 0.76053 0.1713 0.32852 0.0
H964 H 0.75543 0.17103 0.40166 0.0
C965 C 0.94141 0.17084 0.3901 0.0
C966 C 0.94427 0.58394 0.3886 0.0
C967 C 0.87957 0.5821 0.41105 0.0
H968 H 0.99285 0.58426 0.33022 0.0
C969 C 0.81192 0.58105 0.39104 0.0
H970 H 0.99717 0.58488 0.40331 0.0
C971 C 0.80948 0.58066 0.3492 0.0
C972 C 0.87465 0.58135 0.3268 0.0
H973 H 0.76119 0.57969 0.40766 0.0
H974 H 0.75686 0.57906 0.33449 0.0
C975 C 0.94183 0.58358 0.34678 0.0
C976 C 0.69527 0.33291 0.59617 0.0
C977 C 0.62977 0.33202 0.57399 0.0
H978 H 0.74481 0.33289 0.65443 0.0
C979 C 0.56239 0.33267 0.59424 0.0
H980 H 0.74804 0.33255 0.58129 0.0
C981 C 0.56059 0.33291 0.63611 0.0
C982 C 0.62613 0.33246 0.65832 0.0
H983 H 0.51108 0.33211 0.57786 0.0
H984 H 0.50784 0.33252 0.65101 0.0
C985 C 0.69347 0.33312 0.63803 0.0
C986 C 0.55758 0.92162 0.59596 0.0
C987 C 0.62261 0.92209 0.57339 0.0
H988 H 0.5095 0.92179 0.65453 0.0
C989 C 0.6904 0.92113 0.59324 0.0
H990 H 0.5045 0.92226 0.58137 0.0
C991 C 0.69321 0.92083 0.63508 0.0
C992 C 0.62827 0.92152 0.65769 0.0
H993 H 0.74136 0.92138 0.57656 0.0
H994 H 0.74635 0.92085 0.64966 0.0
C995 C 0.56039 0.92135 0.63781 0.0
C996 C 0.32375 0.66745 0.3772 0.0
C997 C 0.38794 0.66933 0.40019 0.0
H998 H 0.27644 0.66717 0.31843 0.0
C999 C 0.45606 0.67022 0.38074 0.0
H1000 H 0.27049 0.66659 0.39145 0.0
C1001 C 0.45943 0.67051 0.33889 0.0
C1002 C 0.39472 0.66994 0.31595 0.0
H1003 H 0.5064 0.67158 0.39777 0.0
H1004 H 0.51239 0.6721 0.32461 0.0
C1005 C 0.32711 0.66777 0.3354 0.0
C1006 C 0.44242 0.08201 0.38247 0.0
C1007 C 0.37684 0.08147 0.40456 0.0
H1008 H 0.49212 0.08141 0.32434 0.0
C1009 C 0.30951 0.08166 0.38414 0.0
H1010 H 0.49515 0.08195 0.39749 0.0
C1011 C 0.30784 0.08137 0.34228 0.0
C1012 C 0.37347 0.08087 0.32024 0.0
H1013 H 0.25817 0.08131 0.40045 0.0
H1014 H 0.25514 0.08083 0.32728 0.0
C1015 C 0.44074 0.0817 0.34062 0.0
C1016 C 0.55231 0.83213 0.09298 0.0
C1017 C 0.61969 0.8342 0.07318 0.0
H1018 H 0.49758 0.8295 0.14943 0.0
C1019 C 0.68336 0.83751 0.09575 0.0
H1020 H 0.50236 0.82963 0.07624 0.0
C1021 C 0.68064 0.83746 0.13754 0.0
C1022 C 0.61424 0.83405 0.15738 0.0
H1023 H 0.73596 0.83929 0.08119 0.0
H1024 H 0.73118 0.8392 0.15423 0.0
C1025 C 0.54962 0.83203 0.13483 0.0
C1026 C 0.56238 0.42101 0.0971 0.0
C1027 C 0.62706 0.42173 0.07435 0.0
H1028 H 0.51506 0.42103 0.15578 0.0
C1029 C 0.69523 0.42115 0.09394 0.0
H1030 H 0.5091 0.42133 0.08268 0.0
C1031 C 0.69864 0.42105 0.13574 0.0
C1032 C 0.63393 0.42145 0.15851 0.0
H1033 H 0.74594 0.42161 0.07706 0.0
H1034 H 0.75191 0.42142 0.15017 0.0
C1035 C 0.5658 0.42082 0.1389 0.0
C1036 C 0.31817 0.16866 0.84177 0.0
C1037 C 0.38573 0.16996 0.82189 0.0
H1038 H 0.26255 0.16842 0.89819 0.0
C1039 C 0.45092 0.17003 0.84443 0.0
H1040 H 0.26713 0.16848 0.82509 0.0
C1041 C 0.44835 0.17002 0.88628 0.0
C1042 C 0.38055 0.16993 0.90615 0.0
H1043 H 0.50383 0.17093 0.82981 0.0
H1044 H 0.49924 0.17091 0.90298 0.0
C1045 C 0.3156 0.16864 0.88359 0.0
C1046 C 0.44553 0.58098 0.87993 0.0
C1047 C 0.38065 0.5817 0.90256 0.0
H1048 H 0.4931 0.57989 0.82132 0.0
C1049 C 0.3132 0.58387 0.88282 0.0
H1050 H 0.49835 0.57943 0.89446 0.0
C1051 C 0.31022 0.58413 0.84101 0.0
C1052 C 0.37466 0.58225 0.81835 0.0
H1053 H 0.2624 0.58457 0.89958 0.0
H1054 H 0.25714 0.58501 0.82649 0.0
C1055 C 0.44256 0.58128 0.83811 0.0
loop_
_geom_bond_atom_site_label_1
_geom_bond_atom_site_label_2
_geom_bond_distance
_geom_bond_site_symmetry_2
_ccdc_geom_bond_type
In0 O1 2.294 . S
In0 O2 2.326 . S
In0 O6 2.266 . S
In0 O7 2.326 . S
In0 O8 2.266 . S
In0 O9 2.326 . S
In0 O11 2.294 . S
In0 O12 2.326 . S
O1 In0 2.294 . S
O1 C10 1.240 . S
O2 In0 2.326 . S
O2 C10 1.252 . S
C3 O6 1.252 . S
C3 O7 1.260 . S
C4 O11 1.240 . S
C4 O12 1.252 . S
C5 O8 1.252 . S
C5 O9 1.260 . S
O6 In0 2.266 . S
O6 C3 1.252 . S
O7 In0 2.326 . S
O7 C3 1.260 . S
O8 In0 2.266 . S
O8 C5 1.252 . S
O9 In0 2.326 . S
O9 C5 1.260 . S
C10 O1 1.240 . S
C10 O2 1.252 . S
O11 In0 2.294 . S
O11 C4 1.240 . S
O12 In0 2.326 . S
O12 C4 1.252 . S
In13 O14 2.294 . S
In13 O15 2.326 . S
In13 O19 2.266 . S
In13 O20 2.326 . S
In13 O21 2.266 . S
In13 O22 2.326 . S
In13 O24 2.294 . S
In13 O25 2.326 . S
O14 In13 2.294 . S
O14 C23 1.240 . S
O15 In13 2.326 . S
O15 C23 1.252 . S
C16 O19 1.252 . S
C16 O20 1.260 . S
C17 O24 1.240 . S
C17 O25 1.252 . S
C18 O21 1.252 . S
C18 O22 1.260 . S
O19 In13 2.266 . S
O19 C16 1.252 . S
O20 In13 2.326 . S
O20 C16 1.260 . S
O21 In13 2.266 . S
O21 C18 1.252 . S
O22 In13 2.326 . S
O22 C18 1.260 . S
C23 O14 1.240 . S
C23 O15 1.252 . S
O24 In13 2.294 . S
O24 C17 1.240 . S
O25 In13 2.326 . S
O25 C17 1.252 . S
In26 O27 2.294 . S
In26 O28 2.326 . S
In26 O32 2.266 . S
In26 O33 2.326 . S
In26 O34 2.266 1_556 S
In26 O35 2.326 1_556 S
In26 O37 2.294 . S
In26 O38 2.326 . S
O27 In26 2.294 . S
O27 C36 1.240 . S
O28 In26 2.326 . S
O28 C36 1.252 . S
C29 O32 1.252 . S
C29 O33 1.260 . S
C30 O37 1.240 . S
C30 O38 1.252 . S
C31 O34 1.252 . S
C31 O35 1.260 . S
O32 In26 2.266 . S
O32 C29 1.252 . S
O33 In26 2.326 . S
O33 C29 1.260 . S
O34 In26 2.266 1_554 S
O34 C31 1.252 . S
O35 In26 2.326 1_554 S
O35 C31 1.260 . S
C36 O27 1.240 . S
C36 O28 1.252 . S
O37 In26 2.294 . S
O37 C30 1.240 . S
O38 In26 2.326 . S
O38 C30 1.252 . S
In39 O40 2.294 . S
In39 O41 2.326 . S
In39 O45 2.266 1_556 S
In39 O46 2.326 1_556 S
In39 O47 2.266 . S
In39 O48 2.326 . S
In39 O50 2.294 . S
In39 O51 2.326 . S
O40 In39 2.294 . S
O40 C49 1.240 . S
O41 In39 2.326 . S
O41 C49 1.252 . S
C42 O45 1.252 . S
C42 O46 1.260 . S
C43 O50 1.240 . S
C43 O51 1.252 . S
C44 O47 1.252 . S
C44 O48 1.260 . S
O45 In39 2.266 1_554 S
O45 C42 1.252 . S
O46 In39 2.326 1_554 S
O46 C42 1.260 . S
O47 In39 2.266 . S
O47 C44 1.252 . S
O48 In39 2.326 . S
O48 C44 1.260 . S
C49 O40 1.240 . S
C49 O41 1.252 . S
O50 In39 2.294 . S
O50 C43 1.240 . S
O51 In39 2.326 . S
O51 C43 1.252 . S
In52 O53 2.294 . S
In52 O54 2.326 . S
In52 O58 2.266 . S
In52 O59 2.326 . S
In52 O60 2.266 . S
In52 O61 2.326 . S
In52 O63 2.294 . S
In52 O64 2.326 . S
O53 In52 2.294 . S
O53 C62 1.240 . S
O54 In52 2.326 . S
O54 C62 1.252 . S
C55 O58 1.252 . S
C55 O59 1.260 . S
C56 O63 1.240 . S
C56 O64 1.252 . S
C57 O60 1.252 . S
C57 O61 1.260 . S
O58 In52 2.266 . S
O58 C55 1.252 . S
O59 In52 2.326 . S
O59 C55 1.260 . S
O60 In52 2.266 . S
O60 C57 1.252 . S
O61 In52 2.326 . S
O61 C57 1.260 . S
C62 O53 1.240 . S
C62 O54 1.252 . S
O63 In52 2.294 . S
O63 C56 1.240 . S
O64 In52 2.326 . S
O64 C56 1.252 . S
In65 O66 2.294 . S
In65 O67 2.326 . S
In65 O71 2.266 . S
In65 O72 2.326 . S
In65 O73 2.266 . S
In65 O74 2.326 . S
In65 O76 2.294 . S
In65 O77 2.326 . S
O66 In65 2.294 . S
O66 C75 1.240 . S
O67 In65 2.326 . S
O67 C75 1.252 . S
C68 O71 1.252 . S
C68 O72 1.260 . S
C69 O76 1.240 . S
C69 O77 1.252 . S
C70 O73 1.252 . S
C70 O74 1.260 . S
O71 In65 2.266 . S
O71 C68 1.252 . S
O72 In65 2.326 . S
O72 C68 1.260 . S
O73 In65 2.266 . S
O73 C70 1.252 . S
O74 In65 2.326 . S
O74 C70 1.260 . S
C75 O66 1.240 . S
C75 O67 1.252 . S
O76 In65 2.294 . S
O76 C69 1.240 . S
O77 In65 2.326 . S
O77 C69 1.252 . S
In78 O79 2.294 . S
In78 O80 2.326 . S
In78 O84 2.266 1_554 S
In78 O85 2.326 1_554 S
In78 O86 2.266 . S
In78 O87 2.326 . S
In78 O89 2.294 . S
In78 O90 2.326 . S
O79 In78 2.294 . S
O79 C88 1.240 . S
O80 In78 2.326 . S
O80 C88 1.252 . S
C81 O84 1.252 . S
C81 O85 1.260 . S
C82 O89 1.240 . S
C82 O90 1.252 . S
C83 O86 1.252 . S
C83 O87 1.260 . S
O84 In78 2.266 1_556 S
O84 C81 1.252 . S
O85 In78 2.326 1_556 S
O85 C81 1.260 . S
O86 In78 2.266 . S
O86 C83 1.252 . S
O87 In78 2.326 . S
O87 C83 1.260 . S
C88 O79 1.240 . S
C88 O80 1.252 . S
O89 In78 2.294 . S
O89 C82 1.240 . S
O90 In78 2.326 . S
O90 C82 1.252 . S
In91 O92 2.294 . S
In91 O93 2.326 . S
In91 O97 2.266 1_554 S
In91 O98 2.326 1_554 S
In91 O99 2.266 . S
In91 O100 2.326 . S
In91 O102 2.294 . S
In91 O103 2.326 . S
O92 In91 2.294 . S
O92 C101 1.240 . S
O93 In91 2.326 . S
O93 C101 1.252 . S
C94 O97 1.252 . S
C94 O98 1.260 . S
C95 O102 1.240 . S
C95 O103 1.252 . S
C96 O99 1.252 . S
C96 O100 1.260 . S
O97 In91 2.266 1_556 S
O97 C94 1.252 . S
O98 In91 2.326 1_556 S
O98 C94 1.260 . S
O99 In91 2.266 . S
O99 C96 1.252 . S
O100 In91 2.326 . S
O100 C96 1.260 . S
C101 O92 1.240 . S
C101 O93 1.252 . S
O102 In91 2.294 . S
O102 C95 1.240 . S
O103 In91 2.326 . S
O103 C95 1.252 . S
In104 O105 2.294 . S
In104 O106 2.326 . S
In104 O110 2.266 . S
In104 O111 2.326 . S
In104 O112 2.266 . S
In104 O113 2.326 . S
In104 O115 2.294 . S
In104 O116 2.326 . S
O105 In104 2.294 . S
O105 C114 1.240 . S
O106 In104 2.326 . S
O106 C114 1.252 . S
C107 O110 1.252 . S
C107 O111 1.260 . S
C108 O115 1.240 . S
C108 O116 1.252 . S
C109 O112 1.252 . S
C109 O113 1.260 . S
O110 In104 2.266 . S
O110 C107 1.252 . S
O111 In104 2.326 . S
O111 C107 1.260 . S
O112 In104 2.266 . S
O112 C109 1.252 . S
O113 In104 2.326 . S
O113 C109 1.260 . S
C114 O105 1.240 . S
C114 O106 1.252 . S
O115 In104 2.294 . S
O115 C108 1.240 . S
O116 In104 2.326 . S
O116 C108 1.252 . S
In117 O118 2.294 . S
In117 O119 2.326 . S
In117 O123 2.266 . S
In117 O124 2.326 . S
In117 O125 2.266 . S
In117 O126 2.326 . S
In117 O128 2.294 . S
In117 O129 2.326 . S
O118 In117 2.294 . S
O118 C127 1.240 . S
O119 In117 2.326 . S
O119 C127 1.252 . S
C120 O123 1.252 . S
C120 O124 1.260 . S
C121 O128 1.240 . S
C121 O129 1.252 . S
C122 O125 1.252 . S
C122 O126 1.260 . S
O123 In117 2.266 . S
O123 C120 1.252 . S
O124 In117 2.326 . S
O124 C120 1.260 . S
O125 In117 2.266 . S
O125 C122 1.252 . S
O126 In117 2.326 . S
O126 C122 1.260 . S
C127 O118 1.240 . S
C127 O119 1.252 . S
O128 In117 2.294 . S
O128 C121 1.240 . S
O129 In117 2.326 . S
O129 C121 1.252 . S
In130 O131 2.294 . S
In130 O132 2.326 . S
In130 O136 2.266 . S
In130 O137 2.326 . S
In130 O138 2.266 . S
In130 O139 2.326 . S
In130 O141 2.294 . S
In130 O142 2.326 . S
O131 In130 2.294 . S
O131 C140 1.240 . S
O132 In130 2.326 . S
O132 C140 1.252 . S
C133 O136 1.252 . S
C133 O137 1.260 . S
C134 O141 1.240 . S
C134 O142 1.252 . S
C135 O138 1.252 . S
C135 O139 1.260 . S
O136 In130 2.266 . S
O136 C133 1.252 . S
O137 In130 2.326 . S
O137 C133 1.260 . S
O138 In130 2.266 . S
O138 C135 1.252 . S
O139 In130 2.326 . S
O139 C135 1.260 . S
C140 O131 1.240 . S
C140 O132 1.252 . S
O141 In130 2.294 . S
O141 C134 1.240 . S
O142 In130 2.326 . S
O142 C134 1.252 . S
In143 O144 2.294 . S
In143 O145 2.326 . S
In143 O149 2.266 . S
In143 O150 2.326 . S
In143 O151 2.266 . S
In143 O152 2.326 . S
In143 O154 2.294 . S
In143 O155 2.326 . S
O144 In143 2.294 . S
O144 C153 1.240 . S
O145 In143 2.326 . S
O145 C153 1.252 . S
C146 O149 1.252 . S
C146 O150 1.260 . S
C147 O154 1.240 . S
C147 O155 1.252 . S
C148 O151 1.252 . S
C148 O152 1.260 . S
O149 In143 2.266 . S
O149 C146 1.252 . S
O150 In143 2.326 . S
O150 C146 1.260 . S
O151 In143 2.266 . S
O151 C148 1.252 . S
O152 In143 2.326 . S
O152 C148 1.260 . S
C153 O144 1.240 . S
C153 O145 1.252 . S
O154 In143 2.294 . S
O154 C147 1.240 . S
O155 In143 2.326 . S
O155 C147 1.252 . S
In156 O157 2.294 . S
In156 O158 2.326 . S
In156 O162 2.266 . S
In156 O163 2.326 . S
In156 O164 2.266 . S
In156 O165 2.326 . S
In156 O167 2.294 . S
In156 O168 2.326 . S
O157 In156 2.294 . S
O157 C166 1.240 . S
O158 In156 2.326 . S
O158 C166 1.252 . S
C159 O162 1.252 . S
C159 O163 1.260 . S
C160 O167 1.240 . S
C160 O168 1.252 . S
C161 O164 1.252 . S
C161 O165 1.260 . S
O162 In156 2.266 . S
O162 C159 1.252 . S
O163 In156 2.326 . S
O163 C159 1.260 . S
O164 In156 2.266 . S
O164 C161 1.252 . S
O165 In156 2.326 . S
O165 C161 1.260 . S
C166 O157 1.240 . S
C166 O158 1.252 . S
O167 In156 2.294 . S
O167 C160 1.240 . S
O168 In156 2.326 . S
O168 C160 1.252 . S
In169 O170 2.294 . S
In169 O171 2.326 . S
In169 O175 2.266 . S
In169 O176 2.326 . S
In169 O177 2.266 . S
In169 O178 2.326 . S
In169 O180 2.294 . S
In169 O181 2.326 . S
O170 In169 2.294 . S
O170 C179 1.240 . S
O171 In169 2.326 . S
O171 C179 1.252 . S
C172 O175 1.252 . S
C172 O176 1.260 . S
C173 O180 1.240 . S
C173 O181 1.252 . S
C174 O177 1.252 . S
C174 O178 1.260 . S
O175 In169 2.266 . S
O175 C172 1.252 . S
O176 In169 2.326 . S
O176 C172 1.260 . S
O177 In169 2.266 . S
O177 C174 1.252 . S
O178 In169 2.326 . S
O178 C174 1.260 . S
C179 O170 1.240 . S
C179 O171 1.252 . S
O180 In169 2.294 . S
O180 C173 1.240 . S
O181 In169 2.326 . S
O181 C173 1.252 . S
In182 O183 2.294 . S
In182 O184 2.326 . S
In182 O188 2.266 . S
In182 O189 2.326 . S
In182 O190 2.266 . S
In182 O191 2.326 . S
In182 O193 2.294 . S
In182 O194 2.326 . S
O183 In182 2.294 . S
O183 C192 1.240 . S
O184 In182 2.326 . S
O184 C192 1.252 . S
C185 O188 1.252 . S
C185 O189 1.260 . S
C186 O193 1.240 . S
C186 O194 1.252 . S
C187 O190 1.252 . S
C187 O191 1.260 . S
O188 In182 2.266 . S
O188 C185 1.252 . S
O189 In182 2.326 . S
O189 C185 1.260 . S
O190 In182 2.266 . S
O190 C187 1.252 . S
O191 In182 2.326 . S
O191 C187 1.260 . S
C192 O183 1.240 . S
C192 O184 1.252 . S
O193 In182 2.294 . S
O193 C186 1.240 . S
O194 In182 2.326 . S
O194 C186 1.252 . S
In195 O196 2.294 . S
In195 O197 2.326 . S
In195 O201 2.266 . S
In195 O202 2.326 . S
In195 O203 2.266 . S
In195 O204 2.326 . S
In195 O206 2.294 . S
In195 O207 2.326 . S
O196 In195 2.294 . S
O196 C205 1.240 . S
O197 In195 2.326 . S
O197 C205 1.252 . S
C198 O201 1.252 . S
C198 O202 1.260 . S
C199 O206 1.240 . S
C199 O207 1.252 . S
C200 O203 1.252 . S
C200 O204 1.260 . S
O201 In195 2.266 . S
O201 C198 1.252 . S
O202 In195 2.326 . S
O202 C198 1.260 . S
O203 In195 2.266 . S
O203 C200 1.252 . S
O204 In195 2.326 . S
O204 C200 1.260 . S
C205 O196 1.240 . S
C205 O197 1.252 . S
O206 In195 2.294 . S
O206 C199 1.240 . S
O207 In195 2.326 . S
O207 C199 1.252 . S
In208 O209 2.294 . S
In208 O210 2.326 . S
In208 O214 2.266 . S
In208 O215 2.326 . S
In208 O216 2.266 . S
In208 O217 2.326 . S
In208 O219 2.294 . S
In208 O220 2.326 . S
O209 In208 2.294 . S
O209 C218 1.240 . S
O210 In208 2.326 . S
O210 C218 1.252 . S
C211 O214 1.252 . S
C211 O215 1.260 . S
C212 O219 1.240 . S
C212 O220 1.252 . S
C213 O216 1.252 . S
C213 O217 1.260 . S
O214 In208 2.266 . S
O214 C211 1.252 . S
O215 In208 2.326 . S
O215 C211 1.260 . S
O216 In208 2.266 . S
O216 C213 1.252 . S
O217 In208 2.326 . S
O217 C213 1.260 . S
C218 O209 1.240 . S
C218 O210 1.252 . S
O219 In208 2.294 . S
O219 C212 1.240 . S
O220 In208 2.326 . S
O220 C212 1.252 . S
In221 O222 2.294 . S
In221 O223 2.326 . S
In221 O227 2.266 . S
In221 O228 2.326 . S
In221 O229 2.266 . S
In221 O230 2.326 . S
In221 O232 2.294 . S
In221 O233 2.326 . S
O222 In221 2.294 . S
O222 C231 1.240 . S
O223 In221 2.326 . S
O223 C231 1.252 . S
C224 O227 1.252 . S
C224 O228 1.260 . S
C225 O232 1.240 . S
C225 O233 1.252 . S
C226 O229 1.252 . S
C226 O230 1.260 . S
O227 In221 2.266 . S
O227 C224 1.252 . S
O228 In221 2.326 . S
O228 C224 1.260 . S
O229 In221 2.266 . S
O229 C226 1.252 . S
O230 In221 2.326 . S
O230 C226 1.260 . S
C231 O222 1.240 . S
C231 O223 1.252 . S
O232 In221 2.294 . S
O232 C225 1.240 . S
O233 In221 2.326 . S
O233 C225 1.252 . S
In234 O235 2.294 . S
In234 O236 2.326 . S
In234 O240 2.266 . S
In234 O241 2.326 . S
In234 O242 2.266 . S
In234 O243 2.326 . S
In234 O245 2.294 . S
In234 O246 2.326 . S
O235 In234 2.294 . S
O235 C244 1.240 . S
O236 In234 2.326 . S
O236 C244 1.252 . S
C237 O240 1.252 . S
C237 O241 1.260 . S
C238 O245 1.240 . S
C238 O246 1.252 . S
C239 O242 1.252 . S
C239 O243 1.260 . S
O240 In234 2.266 . S
O240 C237 1.252 . S
O241 In234 2.326 . S
O241 C237 1.260 . S
O242 In234 2.266 . S
O242 C239 1.252 . S
O243 In234 2.326 . S
O243 C239 1.260 . S
C244 O235 1.240 . S
C244 O236 1.252 . S
O245 In234 2.294 . S
O245 C238 1.240 . S
O246 In234 2.326 . S
O246 C238 1.252 . S
In247 O248 2.294 . S
In247 O249 2.326 . S
In247 O253 2.266 . S
In247 O254 2.326 . S
In247 O255 2.266 . S
In247 O256 2.326 . S
In247 O258 2.294 . S
In247 O259 2.326 . S
O248 In247 2.294 . S
O248 C257 1.240 . S
O249 In247 2.326 . S
O249 C257 1.252 . S
C250 O253 1.252 . S
C250 O254 1.260 . S
C251 O258 1.240 . S
C251 O259 1.252 . S
C252 O255 1.252 . S
C252 O256 1.260 . S
O253 In247 2.266 . S
O253 C250 1.252 . S
O254 In247 2.326 . S
O254 C250 1.260 . S
O255 In247 2.266 . S
O255 C252 1.252 . S
O256 In247 2.326 . S
O256 C252 1.260 . S
C257 O248 1.240 . S
C257 O249 1.252 . S
O258 In247 2.294 . S
O258 C251 1.240 . S
O259 In247 2.326 . S
O259 C251 1.252 . S
In260 O261 2.294 . S
In260 O262 2.326 . S
In260 O266 2.266 . S
In260 O267 2.326 . S
In260 O268 2.266 . S
In260 O269 2.326 . S
In260 O271 2.294 . S
In260 O272 2.326 . S
O261 In260 2.294 . S
O261 C270 1.240 . S
O262 In260 2.326 . S
O262 C270 1.252 . S
C263 O266 1.252 . S
C263 O267 1.260 . S
C264 O271 1.240 . S
C264 O272 1.252 . S
C265 O268 1.252 . S
C265 O269 1.260 . S
O266 In260 2.266 . S
O266 C263 1.252 . S
O267 In260 2.326 . S
O267 C263 1.260 . S
O268 In260 2.266 . S
O268 C265 1.252 . S
O269 In260 2.326 . S
O269 C265 1.260 . S
C270 O261 1.240 . S
C270 O262 1.252 . S
O271 In260 2.294 . S
O271 C264 1.240 . S
O272 In260 2.326 . S
O272 C264 1.252 . S
In273 O274 2.294 . S
In273 O275 2.326 . S
In273 O279 2.266 . S
In273 O280 2.326 . S
In273 O281 2.266 . S
In273 O282 2.326 . S
In273 O284 2.294 . S
In273 O285 2.326 . S
O274 In273 2.294 . S
O274 C283 1.240 . S
O275 In273 2.326 . S
O275 C283 1.252 . S
C276 O279 1.252 . S
C276 O280 1.260 . S
C277 O284 1.240 . S
C277 O285 1.252 . S
C278 O281 1.252 . S
C278 O282 1.260 . S
O279 In273 2.266 . S
O279 C276 1.252 . S
O280 In273 2.326 . S
O280 C276 1.260 . S
O281 In273 2.266 . S
O281 C278 1.252 . S
O282 In273 2.326 . S
O282 C278 1.260 . S
C283 O274 1.240 . S
C283 O275 1.252 . S
O284 In273 2.294 . S
O284 C277 1.240 . S
O285 In273 2.326 . S
O285 C277 1.252 . S
In286 O287 2.294 . S
In286 O288 2.326 . S
In286 O292 2.266 . S
In286 O293 2.326 . S
In286 O294 2.266 . S
In286 O295 2.326 . S
In286 O297 2.294 . S
In286 O298 2.326 . S
O287 In286 2.294 . S
O287 C296 1.240 . S
O288 In286 2.326 . S
O288 C296 1.252 . S
C289 O292 1.252 . S
C289 O293 1.260 . S
C290 O297 1.240 . S
C290 O298 1.252 . S
C291 O294 1.252 . S
C291 O295 1.260 . S
O292 In286 2.266 . S
O292 C289 1.252 . S
O293 In286 2.326 . S
O293 C289 1.260 . S
O294 In286 2.266 . S
O294 C291 1.252 . S
O295 In286 2.326 . S
O295 C291 1.260 . S
C296 O287 1.240 . S
C296 O288 1.252 . S
O297 In286 2.294 . S
O297 C290 1.240 . S
O298 In286 2.326 . S
O298 C290 1.252 . S
In299 O300 2.294 . S
In299 O301 2.326 . S
In299 O305 2.266 . S
In299 O306 2.326 . S
In299 O307 2.266 . S
In299 O308 2.326 . S
In299 O310 2.294 . S
In299 O311 2.326 . S
O300 In299 2.294 . S
O300 C309 1.240 . S
O301 In299 2.326 . S
O301 C309 1.252 . S
C302 O305 1.252 . S
C302 O306 1.260 . S
C303 O310 1.240 . S
C303 O311 1.252 . S
C304 O307 1.252 . S
C304 O308 1.260 . S
O305 In299 2.266 . S
O305 C302 1.252 . S
O306 In299 2.326 . S
O306 C302 1.260 . S
O307 In299 2.266 . S
O307 C304 1.252 . S
O308 In299 2.326 . S
O308 C304 1.260 . S
C309 O300 1.240 . S
C309 O301 1.252 . S
O310 In299 2.294 . S
O310 C303 1.240 . S
O311 In299 2.326 . S
O311 C303 1.252 . S
In312 O313 2.294 . S
In312 O314 2.326 . S
In312 O318 2.266 . S
In312 O319 2.326 . S
In312 O320 2.266 . S
In312 O321 2.326 . S
In312 O323 2.294 . S
In312 O324 2.326 . S
O313 In312 2.294 . S
O313 C322 1.240 . S
O314 In312 2.326 . S
O314 C322 1.252 . S
C315 O318 1.252 . S
C315 O319 1.260 . S
C316 O323 1.240 . S
C316 O324 1.252 . S
C317 O320 1.252 . S
C317 O321 1.260 . S
O318 In312 2.266 . S
O318 C315 1.252 . S
O319 In312 2.326 . S
O319 C315 1.260 . S
O320 In312 2.266 . S
O320 C317 1.252 . S
O321 In312 2.326 . S
O321 C317 1.260 . S
C322 O313 1.240 . S
C322 O314 1.252 . S
O323 In312 2.294 . S
O323 C316 1.240 . S
O324 In312 2.326 . S
O324 C316 1.252 . S
In325 O326 2.294 . S
In325 O327 2.326 . S
In325 O331 2.266 . S
In325 O332 2.326 . S
In325 O333 2.266 . S
In325 O334 2.326 . S
In325 O336 2.294 . S
In325 O337 2.326 . S
O326 In325 2.294 . S
O326 C335 1.240 . S
O327 In325 2.326 . S
O327 C335 1.252 . S
C328 O331 1.252 . S
C328 O332 1.260 . S
C329 O336 1.240 . S
C329 O337 1.252 . S
C330 O333 1.252 . S
C330 O334 1.260 . S
O331 In325 2.266 . S
O331 C328 1.252 . S
O332 In325 2.326 . S
O332 C328 1.260 . S
O333 In325 2.266 . S
O333 C330 1.252 . S
O334 In325 2.326 . S
O334 C330 1.260 . S
C335 O326 1.240 . S
C335 O327 1.252 . S
O336 In325 2.294 . S
O336 C329 1.240 . S
O337 In325 2.326 . S
O337 C329 1.252 . S
In338 O339 2.294 . S
In338 O340 2.326 . S
In338 O344 2.266 . S
In338 O345 2.326 . S
In338 O346 2.266 1_556 S
In338 O347 2.326 1_556 S
In338 O349 2.294 . S
In338 O350 2.326 . S
O339 In338 2.294 . S
O339 C348 1.240 . S
O340 In338 2.326 . S
O340 C348 1.252 . S
C341 O344 1.252 . S
C341 O345 1.260 . S
C342 O349 1.240 . S
C342 O350 1.252 . S
C343 O346 1.252 . S
C343 O347 1.260 . S
O344 In338 2.266 . S
O344 C341 1.252 . S
O345 In338 2.326 . S
O345 C341 1.260 . S
O346 In338 2.266 1_554 S
O346 C343 1.252 . S
O347 In338 2.326 1_554 S
O347 C343 1.260 . S
C348 O339 1.240 . S
C348 O340 1.252 . S
O349 In338 2.294 . S
O349 C342 1.240 . S
O350 In338 2.326 . S
O350 C342 1.252 . S
In351 O352 2.294 . S
In351 O353 2.326 . S
In351 O357 2.266 1_556 S
In351 O358 2.326 1_556 S
In351 O359 2.266 . S
In351 O360 2.326 . S
In351 O362 2.294 . S
In351 O363 2.326 . S
O352 In351 2.294 . S
O352 C361 1.240 . S
O353 In351 2.326 . S
O353 C361 1.252 . S
C354 O357 1.252 . S
C354 O358 1.260 . S
C355 O362 1.240 . S
C355 O363 1.252 . S
C356 O359 1.252 . S
C356 O360 1.260 . S
O357 In351 2.266 1_554 S
O357 C354 1.252 . S
O358 In351 2.326 1_554 S
O358 C354 1.260 . S
O359 In351 2.266 . S
O359 C356 1.252 . S
O360 In351 2.326 . S
O360 C356 1.260 . S
C361 O352 1.240 . S
C361 O353 1.252 . S
O362 In351 2.294 . S
O362 C355 1.240 . S
O363 In351 2.326 . S
O363 C355 1.252 . S
In364 O365 2.294 . S
In364 O366 2.326 . S
In364 O370 2.266 . S
In364 O371 2.326 . S
In364 O372 2.266 . S
In364 O373 2.326 . S
In364 O375 2.294 . S
In364 O376 2.326 . S
O365 In364 2.294 . S
O365 C374 1.240 . S
O366 In364 2.326 . S
O366 C374 1.252 . S
C367 O370 1.252 . S
C367 O371 1.260 . S
C368 O375 1.240 . S
C368 O376 1.252 . S
C369 O372 1.252 . S
C369 O373 1.260 . S
O370 In364 2.266 . S
O370 C367 1.252 . S
O371 In364 2.326 . S
O371 C367 1.260 . S
O372 In364 2.266 . S
O372 C369 1.252 . S
O373 In364 2.326 . S
O373 C369 1.260 . S
C374 O365 1.240 . S
C374 O366 1.252 . S
O375 In364 2.294 . S
O375 C368 1.240 . S
O376 In364 2.326 . S
O376 C368 1.252 . S
In377 O378 2.294 . S
In377 O379 2.326 . S
In377 O383 2.266 . S
In377 O384 2.326 . S
In377 O385 2.266 . S
In377 O386 2.326 . S
In377 O388 2.294 . S
In377 O389 2.326 . S
O378 In377 2.294 . S
O378 C387 1.240 . S
O379 In377 2.326 . S
O379 C387 1.252 . S
C380 O383 1.252 . S
C380 O384 1.260 . S
C381 O388 1.240 . S
C381 O389 1.252 . S
C382 O385 1.252 . S
C382 O386 1.260 . S
O383 In377 2.266 . S
O383 C380 1.252 . S
O384 In377 2.326 . S
O384 C380 1.260 . S
O385 In377 2.266 . S
O385 C382 1.252 . S
O386 In377 2.326 . S
O386 C382 1.260 . S
C387 O378 1.240 . S
C387 O379 1.252 . S
O388 In377 2.294 . S
O388 C381 1.240 . S
O389 In377 2.326 . S
O389 C381 1.252 . S
In390 O391 2.294 . S
In390 O392 2.326 . S
In390 O396 2.266 1_554 S
In390 O397 2.326 1_554 S
In390 O398 2.266 . S
In390 O399 2.326 . S
In390 O401 2.294 . S
In390 O402 2.326 . S
O391 In390 2.294 . S
O391 C400 1.240 . S
O392 In390 2.326 . S
O392 C400 1.252 . S
C393 O396 1.252 . S
C393 O397 1.260 . S
C394 O401 1.240 . S
C394 O402 1.252 . S
C395 O398 1.252 . S
C395 O399 1.260 . S
O396 In390 2.266 1_556 S
O396 C393 1.252 . S
O397 In390 2.326 1_556 S
O397 C393 1.260 . S
O398 In390 2.266 . S
O398 C395 1.252 . S
O399 In390 2.326 . S
O399 C395 1.260 . S
C400 O391 1.240 . S
C400 O392 1.252 . S
O401 In390 2.294 . S
O401 C394 1.240 . S
O402 In390 2.326 . S
O402 C394 1.252 . S
In403 O404 2.294 . S
In403 O405 2.326 . S
In403 O409 2.266 1_554 S
In403 O410 2.326 1_554 S
In403 O411 2.266 . S
In403 O412 2.326 . S
In403 O414 2.294 . S
In403 O415 2.326 . S
O404 In403 2.294 . S
O404 C413 1.240 . S
O405 In403 2.326 . S
O405 C413 1.252 . S
C406 O409 1.252 . S
C406 O410 1.260 . S
C407 O414 1.240 . S
C407 O415 1.252 . S
C408 O411 1.252 . S
C408 O412 1.260 . S
O409 In403 2.266 1_556 S
O409 C406 1.252 . S
O410 In403 2.326 1_556 S
O410 C406 1.260 . S
O411 In403 2.266 . S
O411 C408 1.252 . S
O412 In403 2.326 . S
O412 C408 1.260 . S
C413 O404 1.240 . S
C413 O405 1.252 . S
O414 In403 2.294 . S
O414 C407 1.240 . S
O415 In403 2.326 . S
O415 C407 1.252 . S
C416 C417 1.387 . S
C416 H420 0.950 . S
C416 C425 1.390 . S
C417 C416 1.387 . S
C417 C419 1.387 . S
H418 C425 0.950 . S
C419 C417 1.387 . S
C419 C421 1.390 . S
C419 H423 0.950 1_455 S
H420 C416 0.950 . S
C421 C419 1.390 . S
C421 C422 1.387 . S
C421 H424 0.950 1_455 S
C422 C421 1.387 . S
C422 C425 1.387 . S
H423 C419 0.950 1_655 S
H424 C421 0.950 1_655 S
C425 C416 1.390 . S
C425 H418 0.950 . S
C425 C422 1.387 . S
C426 C427 1.387 . S
C426 H430 0.950 . S
C426 C435 1.390 . S
C427 C426 1.387 . S
C427 C429 1.387 . S
H428 C435 0.950 . S
C429 C427 1.387 . S
C429 C431 1.390 . S
C429 H433 0.950 . S
H430 C426 0.950 . S
C431 C429 1.390 . S
C431 C432 1.387 . S
C431 H434 0.950 . S
C432 C431 1.387 . S
C432 C435 1.387 . S
H433 C429 0.950 . S
H434 C431 0.950 . S
C435 C426 1.390 . S
C435 H428 0.950 . S
C435 C432 1.387 . S
C436 C437 1.387 . S
C436 H440 0.950 . S
C436 C445 1.390 . S
C437 C436 1.387 . S
C437 C439 1.387 . S
H438 C445 0.950 . S
C439 C437 1.387 . S
C439 C441 1.390 . S
C439 H443 0.950 1_455 S
H440 C436 0.950 . S
C441 C439 1.390 . S
C441 C442 1.387 . S
C441 H444 0.950 1_455 S
C442 C441 1.387 . S
C442 C445 1.387 . S
H443 C439 0.950 1_655 S
H444 C441 0.950 1_655 S
C445 C436 1.390 . S
C445 H438 0.950 . S
C445 C442 1.387 . S
C446 C447 1.387 . S
C446 H450 0.950 . S
C446 C455 1.390 . S
C447 C446 1.387 . S
C447 C449 1.387 . S
H448 C455 0.950 . S
C449 C447 1.387 . S
C449 C451 1.390 . S
C449 H453 0.950 . S
H450 C446 0.950 . S
C451 C449 1.390 . S
C451 C452 1.387 . S
C451 H454 0.950 . S
C452 C451 1.387 . S
C452 C455 1.387 . S
H453 C449 0.950 . S
H454 C451 0.950 . S
C455 C446 1.390 . S
C455 H448 0.950 . S
C455 C452 1.387 . S
C456 C457 1.387 . S
C456 H460 0.950 1_655 S
C456 C465 1.390 . S
C457 C456 1.387 . S
C457 C459 1.387 . S
H458 C465 0.950 1_455 S
C459 C457 1.387 . S
C459 C461 1.390 . S
C459 H463 0.950 . S
H460 C456 0.950 1_455 S
C461 C459 1.390 . S
C461 C462 1.387 . S
C461 H464 0.950 . S
C462 C461 1.387 . S
C462 C465 1.387 . S
H463 C459 0.950 . S
H464 C461 0.950 . S
C465 C456 1.390 . S
C465 H458 0.950 1_655 S
C465 C462 1.387 . S
C466 C467 1.387 . S
C466 H470 0.950 . S
C466 C475 1.390 . S
C467 C466 1.387 . S
C467 C469 1.387 . S
H468 C475 0.950 . S
C469 C467 1.387 . S
C469 C471 1.390 . S
C469 H473 0.950 . S
H470 C466 0.950 . S
C471 C469 1.390 . S
C471 C472 1.387 . S
C471 H474 0.950 . S
C472 C471 1.387 . S
C472 C475 1.387 . S
H473 C469 0.950 . S
H474 C471 0.950 . S
C475 C466 1.390 . S
C475 H468 0.950 . S
C475 C472 1.387 . S
C476 C477 1.387 . S
C476 H480 0.950 1_655 S
C476 C485 1.390 . S
C477 C476 1.387 . S
C477 C479 1.387 . S
H478 C485 0.950 1_455 S
C479 C477 1.387 . S
C479 C481 1.390 . S
C479 H483 0.950 . S
H480 C476 0.950 1_455 S
C481 C479 1.390 . S
C481 C482 1.387 . S
C481 H484 0.950 . S
C482 C481 1.387 . S
C482 C485 1.387 . S
H483 C479 0.950 . S
H484 C481 0.950 . S
C485 C476 1.390 . S
C485 H478 0.950 1_655 S
C485 C482 1.387 . S
C486 C487 1.387 . S
C486 H490 0.950 . S
C486 C495 1.390 . S
C487 C486 1.387 . S
C487 C489 1.387 . S
H488 C495 0.950 . S
C489 C487 1.387 . S
C489 C491 1.390 . S
C489 H493 0.950 . S
H490 C486 0.950 . S
C491 C489 1.390 . S
C491 C492 1.387 . S
C491 H494 0.950 . S
C492 C491 1.387 . S
C492 C495 1.387 . S
H493 C489 0.950 . S
H494 C491 0.950 . S
C495 C486 1.390 . S
C495 H488 0.950 . S
C495 C492 1.387 . S
C496 C497 1.387 . S
C496 H500 0.950 . S
C496 C505 1.390 . S
C497 C496 1.387 . S
C497 C499 1.387 . S
H498 C505 0.950 . S
C499 C497 1.387 . S
C499 C501 1.390 . S
C499 H503 0.950 . S
H500 C496 0.950 . S
C501 C499 1.390 . S
C501 C502 1.387 . S
C501 H504 0.950 . S
C502 C501 1.387 . S
C502 C505 1.387 . S
H503 C499 0.950 . S
H504 C501 0.950 . S
C505 C496 1.390 . S
C505 H498 0.950 . S
C505 C502 1.387 . S
C506 C507 1.387 . S
C506 H510 0.950 . S
C506 C515 1.390 . S
C507 C506 1.387 . S
C507 C509 1.387 . S
H508 C515 0.950 . S
C509 C507 1.387 . S
C509 C511 1.390 . S
C509 H513 0.950 . S
H510 C506 0.950 . S
C511 C509 1.390 . S
C511 C512 1.387 . S
C511 H514 0.950 . S
C512 C511 1.387 . S
C512 C515 1.387 . S
H513 C509 0.950 . S
H514 C511 0.950 . S
C515 C506 1.390 . S
C515 H508 0.950 . S
C515 C512 1.387 . S
C516 C517 1.387 . S
C516 H520 0.950 . S
C516 C525 1.390 . S
C517 C516 1.387 . S
C517 C519 1.387 . S
H518 C525 0.950 . S
C519 C517 1.387 . S
C519 C521 1.390 . S
C519 H523 0.950 . S
H520 C516 0.950 . S
C521 C519 1.390 . S
C521 C522 1.387 . S
C521 H524 0.950 . S
C522 C521 1.387 . S
C522 C525 1.387 . S
H523 C519 0.950 . S
H524 C521 0.950 . S
C525 C516 1.390 . S
C525 H518 0.950 . S
C525 C522 1.387 . S
C526 C527 1.387 . S
C526 H530 0.950 . S
C526 C535 1.390 . S
C527 C526 1.387 . S
C527 C529 1.387 . S
H528 C535 0.950 . S
C529 C527 1.387 . S
C529 C531 1.390 . S
C529 H533 0.950 . S
H530 C526 0.950 . S
C531 C529 1.390 . S
C531 C532 1.387 . S
C531 H534 0.950 . S
C532 C531 1.387 . S
C532 C535 1.387 . S
H533 C529 0.950 . S
H534 C531 0.950 . S
C535 C526 1.390 . S
C535 H528 0.950 . S
C535 C532 1.387 . S
C536 C537 1.387 . S
C536 H540 0.950 . S
C536 C545 1.390 . S
C537 C536 1.387 . S
C537 C539 1.387 . S
H538 C545 0.950 . S
C539 C537 1.387 . S
C539 C541 1.390 . S
C539 H543 0.950 . S
H540 C536 0.950 . S
C541 C539 1.390 . S
C541 C542 1.387 . S
C541 H544 0.950 . S
C542 C541 1.387 . S
C542 C545 1.387 . S
H543 C539 0.950 . S
H544 C541 0.950 . S
C545 C536 1.390 . S
C545 H538 0.950 . S
C545 C542 1.387 . S
C546 C547 1.387 . S
C546 H550 0.950 . S
C546 C555 1.390 . S
C547 C546 1.387 . S
C547 C549 1.387 . S
H548 C555 0.950 . S
C549 C547 1.387 . S
C549 C551 1.390 . S
C549 H553 0.950 . S
H550 C546 0.950 . S
C551 C549 1.390 . S
C551 C552 1.387 . S
C551 H554 0.950 . S
C552 C551 1.387 . S
C552 C555 1.387 . S
H553 C549 0.950 . S
H554 C551 0.950 . S
C555 C546 1.390 . S
C555 H548 0.950 . S
C555 C552 1.387 . S
C556 C557 1.387 . S
C556 H560 0.950 . S
C556 C565 1.390 . S
C557 C556 1.387 . S
C557 C559 1.387 . S
H558 C565 0.950 . S
C559 C557 1.387 . S
C559 C561 1.390 . S
C559 H563 0.950 . S
H560 C556 0.950 . S
C561 C559 1.390 . S
C561 C562 1.387 . S
C561 H564 0.950 . S
C562 C561 1.387 . S
C562 C565 1.387 . S
H563 C559 0.950 . S
H564 C561 0.950 . S
C565 C556 1.390 . S
C565 H558 0.950 . S
C565 C562 1.387 . S
C566 C567 1.387 . S
C566 H570 0.950 . S
C566 C575 1.390 . S
C567 C566 1.387 . S
C567 C569 1.387 . S
H568 C575 0.950 . S
C569 C567 1.387 . S
C569 C571 1.390 . S
C569 H573 0.950 . S
H570 C566 0.950 . S
C571 C569 1.390 . S
C571 C572 1.387 . S
C571 H574 0.950 . S
C572 C571 1.387 . S
C572 C575 1.387 . S
H573 C569 0.950 . S
H574 C571 0.950 . S
C575 C566 1.390 . S
C575 H568 0.950 . S
C575 C572 1.387 . S
C576 C577 1.387 . S
C576 H580 0.950 . S
C576 C585 1.390 . S
C577 C576 1.387 . S
C577 C579 1.387 . S
H578 C585 0.950 . S
C579 C577 1.387 . S
C579 C581 1.390 . S
C579 H583 0.950 . S
H580 C576 0.950 . S
C581 C579 1.390 . S
C581 C582 1.387 . S
C581 H584 0.950 . S
C582 C581 1.387 . S
C582 C585 1.387 . S
H583 C579 0.950 . S
H584 C581 0.950 . S
C585 C576 1.390 . S
C585 H578 0.950 . S
C585 C582 1.387 . S
C586 C587 1.387 . S
C586 H590 0.950 . S
C586 C595 1.390 . S
C587 C586 1.387 . S
C587 C589 1.387 . S
H588 C595 0.950 . S
C589 C587 1.387 . S
C589 C591 1.390 . S
C589 H593 0.950 . S
H590 C586 0.950 . S
C591 C589 1.390 . S
C591 C592 1.387 . S
C591 H594 0.950 . S
C592 C591 1.387 . S
C592 C595 1.387 . S
H593 C589 0.950 . S
H594 C591 0.950 . S
C595 C586 1.390 . S
C595 H588 0.950 . S
C595 C592 1.387 . S
C596 C597 1.387 . S
C596 H600 0.950 . S
C596 C605 1.390 . S
C597 C596 1.387 . S
C597 C599 1.387 . S
H598 C605 0.950 . S
C599 C597 1.387 . S
C599 C601 1.390 . S
C599 H603 0.950 . S
H600 C596 0.950 . S
C601 C599 1.390 . S
C601 C602 1.387 . S
C601 H604 0.950 . S
C602 C601 1.387 . S
C602 C605 1.387 . S
H603 C599 0.950 . S
H604 C601 0.950 . S
C605 C596 1.390 . S
C605 H598 0.950 . S
C605 C602 1.387 . S
C606 C607 1.387 . S
C606 H610 0.950 . S
C606 C615 1.390 . S
C607 C606 1.387 . S
C607 C609 1.387 . S
H608 C615 0.950 . S
C609 C607 1.387 . S
C609 C611 1.390 . S
C609 H613 0.950 . S
H610 C606 0.950 . S
C611 C609 1.390 . S
C611 C612 1.387 . S
C611 H614 0.950 . S
C612 C611 1.387 . S
C612 C615 1.387 . S
H613 C609 0.950 . S
H614 C611 0.950 . S
C615 C606 1.390 . S
C615 H608 0.950 . S
C615 C612 1.387 . S
C616 C617 1.387 . S
C616 H620 0.950 . S
C616 C625 1.390 . S
C617 C616 1.387 . S
C617 C619 1.387 . S
H618 C625 0.950 . S
C619 C617 1.387 . S
C619 C621 1.390 . S
C619 H623 0.950 . S
H620 C616 0.950 . S
C621 C619 1.390 . S
C621 C622 1.387 . S
C621 H624 0.950 . S
C622 C621 1.387 . S
C622 C625 1.387 . S
H623 C619 0.950 . S
H624 C621 0.950 . S
C625 C616 1.390 . S
C625 H618 0.950 . S
C625 C622 1.387 . S
C626 C627 1.387 . S
C626 H630 0.950 . S
C626 C635 1.390 . S
C627 C626 1.387 . S
C627 C629 1.387 . S
H628 C635 0.950 . S
C629 C627 1.387 . S
C629 C631 1.390 . S
C629 H633 0.950 . S
H630 C626 0.950 . S
C631 C629 1.390 . S
C631 C632 1.387 . S
C631 H634 0.950 . S
C632 C631 1.387 . S
C632 C635 1.387 . S
H633 C629 0.950 . S
H634 C631 0.950 . S
C635 C626 1.390 . S
C635 H628 0.950 . S
C635 C632 1.387 . S
C636 C637 1.387 . S
C636 H640 0.950 . S
C636 C645 1.390 . S
C637 C636 1.387 . S
C637 C639 1.387 . S
H638 C645 0.950 . S
C639 C637 1.387 . S
C639 C641 1.390 . S
C639 H643 0.950 . S
H640 C636 0.950 . S
C641 C639 1.390 . S
C641 C642 1.387 . S
C641 H644 0.950 . S
C642 C641 1.387 . S
C642 C645 1.387 . S
H643 C639 0.950 . S
H644 C641 0.950 . S
C645 C636 1.390 . S
C645 H638 0.950 . S
C645 C642 1.387 . S
C646 C647 1.387 . S
C646 H650 0.950 . S
C646 C655 1.390 . S
C647 C646 1.387 . S
C647 C649 1.387 . S
H648 C655 0.950 . S
C649 C647 1.387 . S
C649 C651 1.390 . S
C649 H653 0.950 . S
H650 C646 0.950 . S
C651 C649 1.390 . S
C651 C652 1.387 . S
C651 H654 0.950 . S
C652 C651 1.387 . S
C652 C655 1.387 . S
H653 C649 0.950 . S
H654 C651 0.950 . S
C655 C646 1.390 . S
C655 H648 0.950 . S
C655 C652 1.387 . S
C656 C657 1.387 . S
C656 H660 0.950 . S
C656 C665 1.390 . S
C657 C656 1.387 . S
C657 C659 1.387 . S
H658 C665 0.950 . S
C659 C657 1.387 . S
C659 C661 1.390 . S
C659 H663 0.950 . S
H660 C656 0.950 . S
C661 C659 1.390 . S
C661 C662 1.387 . S
C661 H664 0.950 . S
C662 C661 1.387 . S
C662 C665 1.387 . S
H663 C659 0.950 . S
H664 C661 0.950 . S
C665 C656 1.390 . S
C665 H658 0.950 . S
C665 C662 1.387 . S
C666 C667 1.387 . S
C666 H670 0.950 . S
C666 C675 1.390 . S
C667 C666 1.387 . S
C667 C669 1.387 . S
H668 C675 0.950 . S
C669 C667 1.387 . S
C669 C671 1.390 . S
C669 H673 0.950 . S
H670 C666 0.950 . S
C671 C669 1.390 . S
C671 C672 1.387 . S
C671 H674 0.950 . S
C672 C671 1.387 . S
C672 C675 1.387 . S
H673 C669 0.950 . S
H674 C671 0.950 . S
C675 C666 1.390 . S
C675 H668 0.950 . S
C675 C672 1.387 . S
C676 C677 1.387 . S
C676 H680 0.950 . S
C676 C685 1.390 . S
C677 C676 1.387 . S
C677 C679 1.387 . S
H678 C685 0.950 . S
C679 C677 1.387 . S
C679 C681 1.390 . S
C679 H683 0.950 . S
H680 C676 0.950 . S
C681 C679 1.390 . S
C681 C682 1.387 . S
C681 H684 0.950 . S
C682 C681 1.387 . S
C682 C685 1.387 . S
H683 C679 0.950 . S
H684 C681 0.950 . S
C685 C676 1.390 . S
C685 H678 0.950 . S
C685 C682 1.387 . S
C686 C687 1.387 . S
C686 H690 0.950 . S
C686 C695 1.390 . S
C687 C686 1.387 . S
C687 C689 1.387 . S
H688 C695 0.950 . S
C689 C687 1.387 . S
C689 C691 1.390 . S
C689 H693 0.950 . S
H690 C686 0.950 . S
C691 C689 1.390 . S
C691 C692 1.387 . S
C691 H694 0.950 . S
C692 C691 1.387 . S
C692 C695 1.387 . S
H693 C689 0.950 . S
H694 C691 0.950 . S
C695 C686 1.390 . S
C695 H688 0.950 . S
C695 C692 1.387 . S
C696 C697 1.387 . S
C696 H700 0.950 . S
C696 C705 1.390 . S
C697 C696 1.387 . S
C697 C699 1.387 . S
H698 C705 0.950 . S
C699 C697 1.387 . S
C699 C701 1.390 . S
C699 H703 0.950 . S
H700 C696 0.950 . S
C701 C699 1.390 . S
C701 C702 1.387 . S
C701 H704 0.950 . S
C702 C701 1.387 . S
C702 C705 1.387 . S
H703 C699 0.950 . S
H704 C701 0.950 . S
C705 C696 1.390 . S
C705 H698 0.950 . S
C705 C702 1.387 . S
C706 C707 1.387 . S
C706 H710 0.950 . S
C706 C715 1.390 . S
C707 C706 1.387 . S
C707 C709 1.387 . S
H708 C715 0.950 . S
C709 C707 1.387 . S
C709 C711 1.390 . S
C709 H713 0.950 . S
H710 C706 0.950 . S
C711 C709 1.390 . S
C711 C712 1.387 . S
C711 H714 0.950 . S
C712 C711 1.387 . S
C712 C715 1.387 . S
H713 C709 0.950 . S
H714 C711 0.950 . S
C715 C706 1.390 . S
C715 H708 0.950 . S
C715 C712 1.387 . S
C716 C717 1.387 . S
C716 H720 0.950 . S
C716 C725 1.390 . S
C717 C716 1.387 . S
C717 C719 1.387 . S
H718 C725 0.950 . S
C719 C717 1.387 . S
C719 C721 1.390 . S
C719 H723 0.950 . S
H720 C716 0.950 . S
C721 C719 1.390 . S
C721 C722 1.387 . S
C721 H724 0.950 . S
C722 C721 1.387 . S
C722 C725 1.387 . S
H723 C719 0.950 . S
H724 C721 0.950 . S
C725 C716 1.390 . S
C725 H718 0.950 . S
C725 C722 1.387 . S
C726 C727 1.387 . S
C726 H730 0.950 . S
C726 C735 1.390 . S
C727 C726 1.387 . S
C727 C729 1.387 . S
H728 C735 0.950 . S
C729 C727 1.387 . S
C729 C731 1.390 . S
C729 H733 0.950 . S
H730 C726 0.950 . S
C731 C729 1.390 . S
C731 C732 1.387 . S
C731 H734 0.950 . S
C732 C731 1.387 . S
C732 C735 1.387 . S
H733 C729 0.950 . S
H734 C731 0.950 . S
C735 C726 1.390 . S
C735 H728 0.950 . S
C735 C732 1.387 . S
C736 C737 1.387 1_455 S
C736 H740 0.950 . S
C736 C745 1.390 . S
C737 C736 1.387 1_655 S
C737 C739 1.387 . S
H738 C745 0.950 . S
C739 C737 1.387 . S
C739 C741 1.390 . S
C739 H743 0.950 . S
H740 C736 0.950 . S
C741 C739 1.390 . S
C741 C742 1.387 1_655 S
C741 H744 0.950 . S
C742 C741 1.387 1_455 S
C742 C745 1.387 . S
H743 C739 0.950 . S
H744 C741 0.950 . S
C745 C736 1.390 . S
C745 H738 0.950 . S
C745 C742 1.387 . S
C746 C747 1.387 . S
C746 H750 0.950 . S
C746 C755 1.435 . S
C747 C746 1.387 . S
C747 C749 1.341 1_565 S
H748 C755 0.954 . S
C749 C747 1.341 1_545 S
C749 C751 1.435 . S
C749 H753 0.954 . S
H750 C746 0.950 . S
C751 C749 1.435 . S
C751 C752 1.387 . S
C751 H754 0.950 . S
C752 C751 1.387 . S
C752 C755 1.341 1_545 S
H753 C749 0.954 . S
H754 C751 0.950 . S
C755 C746 1.435 . S
C755 H748 0.954 . S
C755 C752 1.341 1_565 S
C756 C757 1.387 1_556 S
C756 H760 0.950 . S
C756 C765 1.390 1_545 S
C757 C756 1.387 1_554 S
C757 C759 1.387 1_655 S
H758 C765 0.950 . S
C759 C757 1.387 1_455 S
C759 C761 1.390 1_545 S
C759 H763 0.950 . S
H760 C756 0.950 . S
C761 C759 1.390 1_565 S
C761 C762 1.387 1_554 S
C761 H764 0.950 . S
C762 C761 1.387 1_556 S
C762 C765 1.387 1_455 S
H763 C759 0.950 . S
H764 C761 0.950 . S
C765 C756 1.390 1_565 S
C765 H758 0.950 . S
C765 C762 1.387 1_655 S
C766 C767 1.387 . S
C766 H770 0.950 . S
C766 C775 1.390 . S
C767 C766 1.387 . S
C767 C769 1.387 1_554 S
H768 C775 0.950 . S
C769 C767 1.387 1_556 S
C769 C771 1.390 . S
C769 H773 0.950 . S
H770 C766 0.950 . S
C771 C769 1.390 . S
C771 C772 1.387 . S
C771 H774 0.950 . S
C772 C771 1.387 . S
C772 C775 1.387 1_556 S
H773 C769 0.950 . S
H774 C771 0.950 . S
C775 C766 1.390 . S
C775 H768 0.950 . S
C775 C772 1.387 1_554 S
C776 C777 1.387 . S
C776 H780 0.950 . S
C776 C785 1.390 . S
C777 C776 1.387 . S
C777 C779 1.387 1_655 S
H778 C785 0.950 . S
C779 C777 1.387 1_455 S
C779 C781 1.390 . S
C779 H783 0.950 . S
H780 C776 0.950 . S
C781 C779 1.390 . S
C781 C782 1.387 . S
C781 H784 0.950 . S
C782 C781 1.387 . S
C782 C785 1.387 1_455 S
H783 C779 0.950 . S
H784 C781 0.950 . S
C785 C776 1.390 . S
C785 H778 0.950 . S
C785 C782 1.387 1_655 S
C786 C787 1.387 . S
C786 H790 0.950 . S
C786 C795 1.390 1_565 S
C787 C786 1.387 . S
C787 C789 1.387 . S
H788 C795 0.950 . S
C789 C787 1.387 . S
C789 C791 1.390 1_565 S
C789 H793 0.950 . S
H790 C786 0.950 . S
C791 C789 1.390 1_545 S
C791 C792 1.387 . S
C791 H794 0.950 . S
C792 C791 1.387 . S
C792 C795 1.387 . S
H793 C789 0.950 . S
H794 C791 0.950 . S
C795 C786 1.390 1_545 S
C795 H788 0.950 . S
C795 C792 1.387 . S
C796 C797 1.387 . S
C796 H800 0.950 . S
C796 C805 1.390 . S
C797 C796 1.387 . S
C797 C799 1.387 1_556 S
H798 C805 0.950 . S
C799 C797 1.387 1_554 S
C799 C801 1.390 . S
C799 H803 0.950 . S
H800 C796 0.950 . S
C801 C799 1.390 . S
C801 C802 1.387 . S
C801 H804 0.950 . S
C802 C801 1.387 . S
C802 C805 1.387 1_554 S
H803 C799 0.950 . S
H804 C801 0.950 . S
C805 C796 1.390 . S
C805 H798 0.950 . S
C805 C802 1.387 1_556 S
C806 C807 1.387 . S
C806 H810 0.950 . S
C806 C815 1.390 . S
C807 C806 1.387 . S
C807 C809 1.387 . S
H808 C815 0.950 . S
C809 C807 1.387 . S
C809 C811 1.390 . S
C809 H813 0.950 . S
H810 C806 0.950 . S
C811 C809 1.390 . S
C811 C812 1.387 . S
C811 H814 0.950 . S
C812 C811 1.387 . S
C812 C815 1.387 . S
H813 C809 0.950 . S
H814 C811 0.950 . S
C815 C806 1.390 . S
C815 H808 0.950 . S
C815 C812 1.387 . S
C816 C817 1.387 . S
C816 H820 0.950 . S
C816 C825 1.390 . S
C817 C816 1.387 . S
C817 C819 1.387 1_455 S
H818 C825 0.950 . S
C819 C817 1.387 1_655 S
C819 C821 1.390 . S
C819 H823 0.950 . S
H820 C816 0.950 . S
C821 C819 1.390 . S
C821 C822 1.387 . S
C821 H824 0.950 . S
C822 C821 1.387 . S
C822 C825 1.387 1_655 S
H823 C819 0.950 . S
H824 C821 0.950 . S
C825 C816 1.390 . S
C825 H818 0.950 . S
C825 C822 1.387 1_455 S
C826 C827 1.387 . S
C826 H830 0.950 . S
C826 C835 1.390 . S
C827 C826 1.387 . S
C827 C829 1.387 . S
H828 C835 0.950 . S
C829 C827 1.387 . S
C829 C831 1.390 . S
C829 H833 0.950 . S
H830 C826 0.950 . S
C831 C829 1.390 . S
C831 C832 1.387 . S
C831 H834 0.950 . S
C832 C831 1.387 . S
C832 C835 1.387 . S
H833 C829 0.950 . S
H834 C831 0.950 . S
C835 C826 1.390 . S
C835 H828 0.950 . S
C835 C832 1.387 . S
C836 C837 1.387 . S
C836 H840 0.950 . S
C836 C845 1.390 . S
C837 C836 1.387 . S
C837 C839 1.387 . S
H838 C845 0.950 . S
C839 C837 1.387 . S
C839 C841 1.390 . S
C839 H843 0.950 . S
H840 C836 0.950 . S
C841 C839 1.390 . S
C841 C842 1.387 . S
C841 H844 0.950 . S
C842 C841 1.387 . S
C842 C845 1.387 . S
H843 C839 0.950 . S
H844 C841 0.950 . S
C845 C836 1.390 . S
C845 H838 0.950 . S
C845 C842 1.387 . S
C846 C847 1.387 . S
C846 H850 0.950 . S
C846 C855 1.390 . S
C847 C846 1.387 . S
C847 C849 1.387 . S
H848 C855 0.950 . S
C849 C847 1.387 . S
C849 C851 1.390 . S
C849 H853 0.950 . S
H850 C846 0.950 . S
C851 C849 1.390 . S
C851 C852 1.387 . S
C851 H854 0.950 . S
C852 C851 1.387 . S
C852 C855 1.387 . S
H853 C849 0.950 . S
H854 C851 0.950 . S
C855 C846 1.390 . S
C855 H848 0.950 . S
C855 C852 1.387 . S
C856 C857 1.387 . S
C856 H860 0.950 . S
C856 C865 1.390 . S
C857 C856 1.387 . S
C857 C859 1.387 . S
H858 C865 0.950 . S
C859 C857 1.387 . S
C859 C861 1.390 . S
C859 H863 0.950 . S
H860 C856 0.950 . S
C861 C859 1.390 . S
C861 C862 1.387 . S
C861 H864 0.950 . S
C862 C861 1.387 . S
C862 C865 1.387 . S
H863 C859 0.950 . S
H864 C861 0.950 . S
C865 C856 1.390 . S
C865 H858 0.950 . S
C865 C862 1.387 . S
C866 C867 1.387 . S
C866 H870 0.950 . S
C866 C875 1.390 1_545 S
C867 C866 1.387 . S
C867 C869 1.387 . S
H868 C875 0.950 . S
C869 C867 1.387 . S
C869 C871 1.390 1_545 S
C869 H873 0.950 . S
H870 C866 0.950 . S
C871 C869 1.390 1_565 S
C871 C872 1.387 . S
C871 H874 0.950 . S
C872 C871 1.387 . S
C872 C875 1.387 . S
H873 C869 0.950 . S
H874 C871 0.950 . S
C875 C866 1.390 1_565 S
C875 H868 0.950 . S
C875 C872 1.387 . S
C876 C877 1.387 . S
C876 H880 0.950 . S
C876 C885 1.390 . S
C877 C876 1.387 . S
C877 C879 1.387 . S
H878 C885 0.950 . S
C879 C877 1.387 . S
C879 C881 1.390 . S
C879 H883 0.950 . S
H880 C876 0.950 . S
C881 C879 1.390 . S
C881 C882 1.387 . S
C881 H884 0.950 . S
C882 C881 1.387 . S
C882 C885 1.387 . S
H883 C879 0.950 . S
H884 C881 0.950 . S
C885 C876 1.390 . S
C885 H878 0.950 . S
C885 C882 1.387 . S
C886 C887 1.387 1_554 S
C886 H890 0.950 . S
C886 C895 1.390 . S
C887 C886 1.387 1_556 S
C887 C889 1.387 . S
H888 C895 0.950 . S
C889 C887 1.387 . S
C889 C891 1.390 . S
C889 H893 0.950 . S
H890 C886 0.950 . S
C891 C889 1.390 . S
C891 C892 1.387 1_556 S
C891 H894 0.950 . S
C892 C891 1.387 1_554 S
C892 C895 1.387 . S
H893 C889 0.950 . S
H894 C891 0.950 . S
C895 C886 1.390 . S
C895 H888 0.950 . S
C895 C892 1.387 . S
C896 C897 1.387 . S
C896 H900 0.950 . S
C896 C905 1.390 . S
C897 C896 1.387 . S
C897 C899 1.387 . S
H898 C905 0.950 . S
C899 C897 1.387 . S
C899 C901 1.390 . S
C899 H903 0.950 . S
H900 C896 0.950 . S
C901 C899 1.390 . S
C901 C902 1.387 . S
C901 H904 0.950 . S
C902 C901 1.387 . S
C902 C905 1.387 . S
H903 C899 0.950 . S
H904 C901 0.950 . S
C905 C896 1.390 . S
C905 H898 0.950 . S
C905 C902 1.387 . S
C906 C907 1.387 . S
C906 H910 0.950 . S
C906 C915 1.390 . S
C907 C906 1.387 . S
C907 C909 1.387 . S
H908 C915 0.950 . S
C909 C907 1.387 . S
C909 C911 1.390 . S
C909 H913 0.950 . S
H910 C906 0.950 . S
C911 C909 1.390 . S
C911 C912 1.387 . S
C911 H914 0.950 . S
C912 C911 1.387 . S
C912 C915 1.387 . S
H913 C909 0.950 . S
H914 C911 0.950 . S
C915 C906 1.390 . S
C915 H908 0.950 . S
C915 C912 1.387 . S
C916 C917 1.387 . S
C916 H920 0.950 . S
C916 C925 1.390 . S
C917 C916 1.387 . S
C917 C919 1.387 . S
H918 C925 0.950 . S
C919 C917 1.387 . S
C919 C921 1.390 . S
C919 H923 0.950 . S
H920 C916 0.950 . S
C921 C919 1.390 . S
C921 C922 1.387 . S
C921 H924 0.950 . S
C922 C921 1.387 . S
C922 C925 1.387 . S
H923 C919 0.950 . S
H924 C921 0.950 . S
C925 C916 1.390 . S
C925 H918 0.950 . S
C925 C922 1.387 . S
C926 C927 1.387 . S
C926 H930 0.950 . S
C926 C935 1.390 . S
C927 C926 1.387 . S
C927 C929 1.387 . S
H928 C935 0.950 . S
C929 C927 1.387 . S
C929 C931 1.390 . S
C929 H933 0.950 . S
H930 C926 0.950 . S
C931 C929 1.390 . S
C931 C932 1.387 . S
C931 H934 0.950 . S
C932 C931 1.387 . S
C932 C935 1.387 . S
H933 C929 0.950 . S
H934 C931 0.950 . S
C935 C926 1.390 . S
C935 H928 0.950 . S
C935 C932 1.387 . S
C936 C937 1.387 . S
C936 H940 0.950 . S
C936 C945 1.390 . S
C937 C936 1.387 . S
C937 C939 1.387 . S
H938 C945 0.950 . S
C939 C937 1.387 . S
C939 C941 1.390 . S
C939 H943 0.950 . S
H940 C936 0.950 . S
C941 C939 1.390 . S
C941 C942 1.387 . S
C941 H944 0.950 . S
C942 C941 1.387 . S
C942 C945 1.387 . S
H943 C939 0.950 . S
H944 C941 0.950 . S
C945 C936 1.390 . S
C945 H938 0.950 . S
C945 C942 1.387 . S
C946 C947 1.387 . S
C946 H950 0.950 . S
C946 C955 1.390 . S
C947 C946 1.387 . S
C947 C949 1.387 . S
H948 C955 0.950 . S
C949 C947 1.387 . S
C949 C951 1.390 . S
C949 H953 0.950 . S
H950 C946 0.950 . S
C951 C949 1.390 . S
C951 C952 1.387 . S
C951 H954 0.950 . S
C952 C951 1.387 . S
C952 C955 1.387 . S
H953 C949 0.950 . S
H954 C951 0.950 . S
C955 C946 1.390 . S
C955 H948 0.950 . S
C955 C952 1.387 . S
C956 C957 1.387 . S
C956 H960 0.950 . S
C956 C965 1.390 . S
C957 C956 1.387 . S
C957 C959 1.387 . S
H958 C965 0.950 . S
C959 C957 1.387 . S
C959 C961 1.390 . S
C959 H963 0.950 . S
H960 C956 0.950 . S
C961 C959 1.390 . S
C961 C962 1.387 . S
C961 H964 0.950 . S
C962 C961 1.387 . S
C962 C965 1.387 . S
H963 C959 0.950 . S
H964 C961 0.950 . S
C965 C956 1.390 . S
C965 H958 0.950 . S
C965 C962 1.387 . S
C966 C967 1.387 . S
C966 H970 0.950 . S
C966 C975 1.390 . S
C967 C966 1.387 . S
C967 C969 1.387 . S
H968 C975 0.950 . S
C969 C967 1.387 . S
C969 C971 1.390 . S
C969 H973 0.950 . S
H970 C966 0.950 . S
C971 C969 1.390 . S
C971 C972 1.387 . S
C971 H974 0.950 . S
C972 C971 1.387 . S
C972 C975 1.387 . S
H973 C969 0.950 . S
H974 C971 0.950 . S
C975 C966 1.390 . S
C975 H968 0.950 . S
C975 C972 1.387 . S
C976 C977 1.387 . S
C976 H980 0.950 . S
C976 C985 1.390 . S
C977 C976 1.387 . S
C977 C979 1.387 . S
H978 C985 0.950 . S
C979 C977 1.387 . S
C979 C981 1.390 . S
C979 H983 0.950 . S
H980 C976 0.950 . S
C981 C979 1.390 . S
C981 C982 1.387 . S
C981 H984 0.950 . S
C982 C981 1.387 . S
C982 C985 1.387 . S
H983 C979 0.950 . S
H984 C981 0.950 . S
C985 C976 1.390 . S
C985 H978 0.950 . S
C985 C982 1.387 . S
C986 C987 1.387 . S
C986 H990 0.950 . S
C986 C995 1.390 . S
C987 C986 1.387 . S
C987 C989 1.387 . S
H988 C995 0.950 . S
C989 C987 1.387 . S
C989 C991 1.390 . S
C989 H993 0.950 . S
H990 C986 0.950 . S
C991 C989 1.390 . S
C991 C992 1.387 . S
C991 H994 0.950 . S
C992 C991 1.387 . S
C992 C995 1.387 . S
H993 C989 0.950 . S
H994 C991 0.950 . S
C995 C986 1.390 . S
C995 H988 0.950 . S
C995 C992 1.387 . S
C996 C997 1.387 . S
C996 H1000 0.950 . S
C996 C1005 1.390 . S
C997 C996 1.387 . S
C997 C999 1.387 . S
H998 C1005 0.950 . S
C999 C997 1.387 . S
C999 C1001 1.390 . S
C999 H1003 0.950 . S
H1000 C996 0.950 . S
C1001 C999 1.390 . S
C1001 C1002 1.387 . S
C1001 H1004 0.950 . S
C1002 C1001 1.387 . S
C1002 C1005 1.387 . S
H1003 C999 0.950 . S
H1004 C1001 0.950 . S
C1005 C996 1.390 . S
C1005 H998 0.950 . S
C1005 C1002 1.387 . S
C1006 C1007 1.387 . S
C1006 H1010 0.950 . S
C1006 C1015 1.390 . S
C1007 C1006 1.387 . S
C1007 C1009 1.387 . S
H1008 C1015 0.950 . S
C1009 C1007 1.387 . S
C1009 C1011 1.390 . S
C1009 H1013 0.950 . S
H1010 C1006 0.950 . S
C1011 C1009 1.390 . S
C1011 C1012 1.387 . S
C1011 H1014 0.950 . S
C1012 C1011 1.387 . S
C1012 C1015 1.387 . S
H1013 C1009 0.950 . S
H1014 C1011 0.950 . S
C1015 C1006 1.390 . S
C1015 H1008 0.950 . S
C1015 C1012 1.387 . S
C1016 C1017 1.387 . S
C1016 H1020 0.950 . S
C1016 C1025 1.390 . S
C1017 C1016 1.387 . S
C1017 C1019 1.387 . S
H1018 C1025 0.950 . S
C1019 C1017 1.387 . S
C1019 C1021 1.390 . S
C1019 H1023 0.950 . S
H1020 C1016 0.950 . S
C1021 C1019 1.390 . S
C1021 C1022 1.387 . S
C1021 H1024 0.950 . S
C1022 C1021 1.387 . S
C1022 C1025 1.387 . S
H1023 C1019 0.950 . S
H1024 C1021 0.950 . S
C1025 C1016 1.390 . S
C1025 H1018 0.950 . S
C1025 C1022 1.387 . S
C1026 C1027 1.387 . S
C1026 H1030 0.950 . S
C1026 C1035 1.390 . S
C1027 C1026 1.387 . S
C1027 C1029 1.387 . S
H1028 C1035 0.950 . S
C1029 C1027 1.387 . S
C1029 C1031 1.390 . S
C1029 H1033 0.950 . S
H1030 C1026 0.950 . S
C1031 C1029 1.390 . S
C1031 C1032 1.387 . S
C1031 H1034 0.950 . S
C1032 C1031 1.387 . S
C1032 C1035 1.387 . S
H1033 C1029 0.950 . S
H1034 C1031 0.950 . S
C1035 C1026 1.390 . S
C1035 H1028 0.950 . S
C1035 C1032 1.387 . S
C1036 C1037 1.387 . S
C1036 H1040 0.950 . S
C1036 C1045 1.390 . S
C1037 C1036 1.387 . S
C1037 C1039 1.387 . S
H1038 C1045 0.950 . S
C1039 C1037 1.387 . S
C1039 C1041 1.390 . S
C1039 H1043 0.950 . S
H1040 C1036 0.950 . S
C1041 C1039 1.390 . S
C1041 C1042 1.387 . S
C1041 H1044 0.950 . S
C1042 C1041 1.387 . S
C1042 C1045 1.387 . S
H1043 C1039 0.950 . S
H1044 C1041 0.950 . S
C1045 C1036 1.390 . S
C1045 H1038 0.950 . S
C1045 C1042 1.387 . S
C1046 C1047 1.387 . S
C1046 H1050 0.950 . S
C1046 C1055 1.390 . S
C1047 C1046 1.387 . S
C1047 C1049 1.387 . S
H1048 C1055 0.950 . S
C1049 C1047 1.387 . S
C1049 C1051 1.390 . S
C1049 H1053 0.950 . S
H1050 C1046 0.950 . S
C1051 C1049 1.390 . S
C1051 C1052 1.387 . S
C1051 H1054 0.950 . S
C1052 C1051 1.387 . S
C1052 C1055 1.387 . S
H1053 C1049 0.950 . S
H1054 C1051 0.950 . S
C1055 C1046 1.390 . S
C1055 H1048 0.950 . S
C1055 C1052 1.387 . S
C417 C134 1.417 . S
C422 C10 1.417 . S
C427 C17 1.417 . S
C432 C153 1.417 . S
C437 C36 1.417 . S
C442 C114 1.417 . S
C447 C127 1.417 . S
C452 C43 1.417 . S
C457 C192 1.417 . S
C462 C56 1.417 . S
C467 C75 1.419 . S
C472 C205 1.419 . S
C477 C166 1.417 . S
C482 C82 1.417 . S
C487 C173 1.417 . S
C492 C95 1.417 . S
C497 C348 1.419 . S
C502 C212 1.419 . S
C507 C355 1.419 . S
C512 C225 1.419 . S
C517 C322 1.417 . S
C522 C238 1.417 . S
C527 C251 1.417 . S
C532 C329 1.417 . S
C537 C394 1.417 . S
C542 C264 1.417 . S
C547 C407 1.419 . S
C552 C277 1.419 . S
C557 C290 1.417 . S
C562 C374 1.417 . S
C567 C303 1.419 . S
C572 C387 1.419 . S
C577 C257 1.395 . S
C582 C4 1.395 . S
C587 C23 1.394 1_655 S
C592 C244 1.394 . S
C597 C231 1.394 . S
C602 C30 1.394 . S
C607 C218 1.395 . S
C612 C49 1.395 1_655 S
C617 C62 1.394 . S
C622 C309 1.394 . S
C627 C69 1.395 1_455 S
C632 C296 1.395 . S
C637 C283 1.394 . S
C642 C88 1.394 . S
C647 C101 1.394 1_455 S
C652 C270 1.394 . S
C657 C361 1.395 . S
C662 C108 1.395 . S
C667 C342 1.395 . S
C672 C121 1.395 1_655 S
C677 C335 1.394 . S
C682 C140 1.394 . S
C687 C316 1.394 . S
C692 C147 1.394 1_655 S
C697 C160 1.395 . S
C702 C413 1.395 . S
C707 C400 1.394 . S
C712 C179 1.394 1_455 S
C717 C186 1.394 . S
C722 C381 1.394 . S
C727 C199 1.395 1_455 S
C732 C368 1.395 . S
C737 C159 1.428 . S
C742 C3 1.428 . S
C747 C18 1.429 . S
C752 C278 1.429 . S
C757 C83 1.428 . S
C762 C29 1.428 . S
C767 C408 1.429 . S
C772 C44 1.429 . S
C777 C57 1.429 . S
C782 C107 1.429 . S
C787 C226 1.428 . S
C792 C68 1.428 . S
C797 C356 1.428 . S
C802 C96 1.428 . S
C807 C380 1.429 . S
C812 C120 1.429 . S
C817 C135 1.428 . S
C822 C185 1.428 . S
C827 C304 1.428 . S
C832 C146 1.428 . S
C837 C330 1.428 . S
C842 C174 1.428 . S
C847 C198 1.427 . S
C852 C252 1.427 . S
C857 C213 1.428 . S
C862 C367 1.428 . S
C867 C291 1.428 . S
C872 C239 1.428 . S
C877 C315 1.428 . S
C882 C265 1.428 . S
C887 C341 1.429 . S
C892 C395 1.429 . S
C897 C5 1.366 . S
C902 C42 1.366 . S
C907 C31 1.368 . S
C912 C16 1.368 . S
C917 C55 1.368 . S
C922 C94 1.368 . S
C927 C70 1.366 . S
C932 C81 1.366 . S
C937 C109 1.366 . S
C942 C148 1.366 . S
C947 C122 1.366 . S
C952 C133 1.366 . S
C957 C161 1.368 . S
C962 C200 1.368 . S
C967 C187 1.368 . S
C972 C172 1.368 . S
C977 C250 1.368 . S
C982 C211 1.368 . S
C987 C237 1.368 . S
C992 C224 1.368 . S
C997 C302 1.366 . S
C1002 C263 1.366 . S
C1007 C289 1.368 . S
C1012 C276 1.368 . S
C1017 C354 1.366 . S
C1022 C317 1.366 . S
C1027 C343 1.368 . S
C1032 C328 1.368 . S
C1037 C369 1.366 . S
C1042 C406 1.366 . S
C1047 C393 1.366 . S
C1052 C382 1.366 . S
