# Generated by pormake.
# Topology qtz-g, (3)-cn, num edge types: 1
# Building blocks:
#     Node 0, Type 0, BuildingBlock: WUSLED_clean_sbu_0, # of connection points: 3
#     Node 1, Type 0, BuildingBlock: WUSLED_clean_sbu_0, # of connection points: 3
#     Node 2, Type 0, BuildingBlock: WUSLED_clean_sbu_0, # of connection points: 3
#     Node 3, Type 0, BuildingBlock: WUSLED_clean_sbu_0, # of connection points: 3
#     Node 4, Type 0, BuildingBlock: WUSLED_clean_sbu_0, # of connection points: 3
#     Node 5, Type 0, BuildingBlock: WUSLED_clean_sbu_0, # of connection points: 3
#     Node 6, Type 0, BuildingBlock: WUSLED_clean_sbu_0, # of connection points: 3
#     Node 7, Type 0, BuildingBlock: WUSLED_clean_sbu_0, # of connection points: 3
#     Node 8, Type 0, BuildingBlock: WUSLED_clean_sbu_0, # of connection points: 3
#     Node 9, Type 0, BuildingBlock: WUSLED_clean_sbu_0, # of connection points: 3
#     Node 10, Type 0, BuildingBlock: WUSLED_clean_sbu_0, # of connection points: 3
#     Node 11, Type 0, BuildingBlock: WUSLED_clean_sbu_0, # of connection points: 3
#     Edge 12, Type (0, 0), BuildingBlock: EZIPEK_clean_linker_0, # of connection points: 2
#     Edge 13, Type (0, 0), BuildingBlock: EZIPEK_clean_linker_0, # of connection points: 2
#     Edge 14, Type (0, 0), BuildingBlock: EZIPEK_clean_linker_0, # of connection points: 2
#     Edge 15, Type (0, 0), BuildingBlock: EZIPEK_clean_linker_0, # of connection points: 2
#     Edge 16, Type (0, 0), BuildingBlock: EZIPEK_clean_linker_0, # of connection points: 2
#     Edge 17, Type (0, 0), BuildingBlock: EZIPEK_clean_linker_0, # of connection points: 2
#     Edge 18, Type (0, 0), BuildingBlock: EZIPEK_clean_linker_0, # of connection points: 2
#     Edge 19, Type (0, 0), BuildingBlock: EZIPEK_clean_linker_0, # of connection points: 2
#     Edge 20, Type (0, 0), BuildingBlock: EZIPEK_clean_linker_0, # of connection points: 2
#     Edge 21, Type (0, 0), BuildingBlock: EZIPEK_clean_linker_0, # of connection points: 2
#     Edge 22, Type (0, 0), BuildingBlock: EZIPEK_clean_linker_0, # of connection points: 2
#     Edge 23, Type (0, 0), BuildingBlock: EZIPEK_clean_linker_0, # of connection points: 2
#     Edge 24, Type (0, 0), BuildingBlock: EZIPEK_clean_linker_0, # of connection points: 2
#     Edge 25, Type (0, 0), BuildingBlock: EZIPEK_clean_linker_0, # of connection points: 2
#     Edge 26, Type (0, 0), BuildingBlock: EZIPEK_clean_linker_0, # of connection points: 2
#     Edge 27, Type (0, 0), BuildingBlock: EZIPEK_clean_linker_0, # of connection points: 2
#     Edge 28, Type (0, 0), BuildingBlock: EZIPEK_clean_linker_0, # of connection points: 2
#     Edge 29, Type (0, 0), BuildingBlock: EZIPEK_clean_linker_0, # of connection points: 2
# Relax obj value: 0.110
# Max RMSD: 0.088
# Mean RMSD: 0.086
data_MOF--net-qtz-g--node1-WUSLED_clean_sbu_0--edge1-EZIPEK_clean_linker_0
_symmetry_space_group_name_H-M    P1
_symmetry_Int_Tables_number       1
_symmetry_cell_setting            triclinic
loop_
_symmetry_equiv_pos_as_xyz
'x, y, z'
_cell_length_a     54.787076
_cell_length_b     55.573596
_cell_length_c     86.961768
_cell_angle_alpha  90.334507
_cell_angle_beta   89.947542
_cell_angle_gamma 119.55821
loop_
_atom_site_label
_atom_site_type_symbol
_atom_site_fract_x
_atom_site_fract_y
_atom_site_fract_z
_atom_type_partial_charge
C0 C 0.03755 0.32343 0.11299 0.0
C1 C 1.01281 0.32288 0.11801 0.0
C2 C 0.0231 0.3165 0.14448 0.0
C3 C 1.00556 0.31928 0.13369 0.0
C4 C 0.0476 0.31692 0.13938 0.0
C5 C 0.05468 0.32029 0.12382 0.0
U6 U 0.0487 0.35632 0.0725 0.0
O7 O 0.087 0.37363 0.05843 0.0
O8 O 0.04815 0.33824 0.04972 0.0
C9 C 0.07487 0.35565 0.04722 0.0
C10 C 0.0466 0.32728 0.09673 0.0
C11 C 0.09184 0.34512 0.03948 0.0
C12 C 0.11509 0.31736 0.03802 0.0
C13 C 0.09813 0.32581 0.046 0.0
C14 C 0.12035 0.34822 0.01739 0.0
C15 C 0.12513 0.32695 0.02292 0.0
C16 C 0.10355 0.35652 0.02528 0.0
C17 C 0.02229 0.41021 0.0671 0.0
C18 C 0.04048 0.45323 0.05283 0.0
C19 C 0.99786 0.43683 0.06772 0.0
C20 C 0.99957 0.41342 0.07188 0.0
C21 C 0.01877 0.45736 0.05858 0.0
C22 C 0.04235 0.42989 0.05715 0.0
C23 C 0.02645 0.38874 0.07467 0.0
O24 O 0.02708 0.31789 0.086 0.0
O25 O 0.06824 0.35146 0.09345 0.0
O26 O 0.05214 0.39605 0.07905 0.0
O27 O 1.01252 0.36325 0.06936 0.0
H28 H 0.99924 0.32531 0.10987 0.0
H29 H 0.98654 0.31895 0.13743 0.0
H30 H 0.06135 0.31471 0.14749 0.0
H31 H 0.07377 0.32058 0.12023 0.0
H32 H 0.1207 0.30414 0.04424 0.0
H33 H 0.09047 0.3177 0.05737 0.0
H34 H 0.13004 0.35936 1.00698 0.0
H35 H 0.10011 0.37245 0.02032 0.0
H36 H 0.05684 0.46888 0.04577 0.0
H37 H 0.98097 0.43958 0.07226 0.0
H38 H 0.98395 0.39856 0.07961 0.0
H39 H 0.06014 0.42794 0.05335 0.0
C40 C 0.72068 0.0309 0.44716 0.0
C41 C 0.69839 0.03028 0.45553 0.0
C42 C 0.71375 0.01685 0.4786 0.0
C43 C 0.69498 0.02332 0.47116 0.0
C44 C 0.73534 0.01647 0.4701 0.0
C45 C 0.73873 0.0234 0.4545 0.0
U46 U 0.69973 0.04537 0.40737 0.0
O47 O 0.72111 0.08297 0.39334 0.0
O48 O 0.71572 0.04361 0.38432 0.0
C49 C 0.72589 0.07022 0.38195 0.0
C50 C 0.72692 0.0413 0.43122 0.0
C51 C 0.75335 0.08549 0.37418 0.0
C52 C 0.80443 0.10814 0.37332 0.0
C53 C 0.77898 0.09246 0.38127 0.0
C54 C 0.77876 0.11069 0.35153 0.0
C55 C 0.80492 0.1162 0.35776 0.0
C56 C 0.75361 0.09511 0.35938 0.0
C57 C 0.61856 0.02014 0.40336 0.0
C58 C 0.59025 0.02445 0.38313 0.0
C59 C 0.56848 1.00123 0.40674 0.0
C60 C 0.59445 1.0063 0.41229 0.0
C61 C 0.56516 0.00868 0.39166 0.0
C62 C 0.6165 0.02967 0.38881 0.0
C63 C 0.64523 0.02493 0.41019 0.0
O64 O 0.71682 0.02268 0.42015 0.0
O65 O 0.72454 0.06325 0.42837 0.0
O66 O 0.66372 0.05044 0.41401 0.0
O67 O 0.65656 0.0106 0.40472 0.0
H68 H 0.68414 0.0359 0.4501 0.0
H69 H 0.67819 0.02367 0.47757 0.0
H70 H 0.74996 0.01147 0.47565 0.0
H71 H 0.756 0.0237 0.44825 0.0
H72 H 0.82327 0.11449 0.37989 0.0
H73 H 0.7794 0.0864 0.39304 0.0
H74 H 0.77719 0.119 0.34062 0.0
H75 H 0.73416 0.09113 0.35394 0.0
H76 H 0.59075 0.03346 0.3722 0.0
H77 H 0.55089 0.99137 0.41453 0.0
H78 H 0.59569 0.99954 0.42379 0.0
H79 H 0.63514 0.04134 0.38191 0.0
C80 C 0.69967 0.71847 0.78014 0.0
C81 C 0.69281 0.69224 0.78587 0.0
C82 C 0.70553 0.71149 0.81182 0.0
C83 C 0.69592 0.68882 0.80164 0.0
C84 C 0.71267 0.73762 0.80595 0.0
C85 C 0.70984 0.74105 0.79029 0.0
U86 U 0.66634 0.69666 0.73944 0.0
O87 O 0.64962 0.71759 0.72501 0.0
O88 O 0.68552 0.71387 0.71687 0.0
C89 C 0.66835 0.72354 0.71413 0.0
C90 C 0.69581 0.72332 0.76385 0.0
C91 C 0.68006 0.75139 0.70723 0.0
C92 C 0.70814 0.80173 0.70818 0.0
C93 C 0.69995 0.77572 0.71473 0.0
C94 C 0.67708 0.77935 0.68659 0.0
C95 C 0.69613 0.80377 0.69424 0.0
C96 C 0.66925 0.7535 0.69299 0.0
C97 C 0.6102 0.61767 0.73387 0.0
C98 C 0.56607 0.59325 0.71978 0.0
C99 C 0.58366 0.56726 0.73364 0.0
C100 C 0.60727 0.59204 0.73814 0.0
C101 C 0.56257 0.56769 0.72474 0.0
C102 C 0.58972 0.61812 0.72432 0.0
C103 C 0.63234 0.64292 0.7415 0.0
O104 O 0.70504 0.71273 0.7533 0.0
O105 O 0.67142 0.72102 0.7604 0.0
O106 O 0.62552 0.66157 0.74571 0.0
O107 O 0.65823 0.6537 0.7364 0.0
H108 H 0.68483 0.67448 0.77824 0.0
H109 H 0.69036 0.66851 0.80596 0.0
H110 H 0.72022 0.75539 0.81356 0.0
H111 H 0.71527 0.76142 0.78611 0.0
H112 H 0.72299 0.82031 0.71427 0.0
H113 H 0.70857 0.77464 0.72574 0.0
H114 H 0.66767 0.78031 0.67582 0.0
H115 H 0.65397 0.73503 0.68699 0.0
H116 H 0.54998 0.59396 0.71288 0.0
H117 H 0.58132 0.54779 0.73759 0.0
H118 H 0.62265 0.5912 0.7456 0.0
H119 H 0.59139 0.6376 0.72094 0.0
C120 C 0.98057 0.68442 0.11575 0.0
C121 C 0.99226 0.66949 0.12233 0.0
C122 C 0.99926 0.69431 0.14695 0.0
C123 C 1.00062 0.67371 0.13781 0.0
C124 C 0.98446 0.70668 0.1404 0.0
C125 C 0.97612 0.70248 0.12499 0.0
U126 U 0.97084 0.65172 0.07538 0.0
O127 O 0.93412 0.63507 0.06005 0.0
O128 O 0.97371 0.67101 0.05283 0.0
C129 C 0.94713 0.65414 0.04957 0.0
C130 C 0.97117 0.6804 0.09961 0.0
C131 C 0.93066 0.66584 0.04255 0.0
C132 C 0.91778 0.70175 0.03913 0.0
C133 C 0.93441 0.69216 0.04629 0.0
C134 C 0.89385 0.65904 0.02453 0.0
C135 C 0.89705 0.68499 0.02834 0.0
C136 C 0.91044 0.64963 0.03153 0.0
C137 C 0.99894 0.59845 0.07151 0.0
C138 C 0.99239 0.56341 0.05246 0.0
C139 C 0.0208 0.57007 0.07491 0.0
C140 C 0.01549 0.59082 0.08008 0.0
C141 C 1.01098 0.55685 0.06046 0.0
C142 C 0.98695 0.58432 0.05775 0.0
C143 C 0.99285 0.61929 0.07833 0.0
O144 O 0.99104 0.69011 0.08915 0.0
O145 O 0.95012 0.65589 0.09609 0.0
O146 O 0.96653 0.61146 0.08145 0.0
O147 O 1.00724 0.64495 0.07348 0.0
H148 H 0.9944 0.65416 0.1156 0.0
H149 H 1.00718 0.65985 0.14239 0.0
H150 H 0.97839 0.71928 0.14708 0.0
H151 H 0.96565 0.71307 0.12035 0.0
H152 H 0.92075 0.72197 0.04214 0.0
H153 H 0.94997 0.70514 0.05472 0.0
H154 H 0.87822 0.64588 0.01616 0.0
H155 H 0.90736 0.62942 0.02838 0.0
H156 H 0.98089 0.55235 0.04241 0.0
H157 H 0.03236 0.56419 0.08264 0.0
H158 H 0.02388 0.60052 0.09113 0.0
H159 H 0.97288 0.58895 0.05129 0.0
C160 C 0.30536 0.98407 0.44587 0.0
C161 C 0.32552 0.9814 0.45459 0.0
C162 C 0.31231 0.99769 0.47747 0.0
C163 C 0.32889 0.9881 0.4703 0.0
C164 C 0.29301 1.00142 0.46864 0.0
C165 C 0.28954 0.9946 0.45297 0.0
U166 U 0.3254 0.97133 0.40526 0.0
O167 O 0.30523 0.93352 0.3911 0.0
O168 O 0.30701 0.97151 0.38269 0.0
C169 C 0.29809 0.94509 0.38018 0.0
C170 C 0.29874 0.97387 0.42982 0.0
C171 C 0.26957 0.92817 0.37375 0.0
C172 C 0.21865 0.906 0.3754 0.0
C173 C 0.24533 0.92401 0.38156 0.0
C174 C 0.24023 0.89649 0.35361 0.0
C175 C 0.21593 0.89164 0.36152 0.0
C176 C 0.26676 0.91464 0.35965 0.0
C177 C 0.40592 0.99759 0.39918 0.0
C178 C 0.4311 0.97952 0.38434 0.0
C179 C 0.45697 0.02123 0.3996 0.0
C180 C 0.43172 0.01975 0.40402 0.0
C181 C 0.45683 1.00066 0.39014 0.0
C182 C 0.40575 0.97786 0.38891 0.0
C183 C 0.38027 0.99359 0.407 0.0
O184 O 0.30759 0.99264 0.41894 0.0
O185 O 0.30192 0.95253 0.42637 0.0
O186 O 0.36256 0.96832 0.41147 0.0
O187 O 0.36792 1.00711 0.40184 0.0
H188 H 0.3381 0.97345 0.44939 0.0
H189 H 0.34399 0.98527 0.47693 0.0
H190 H 0.28013 0.00891 0.47398 0.0
H191 H 0.2739 0.99682 0.44647 0.0
H192 H 0.20012 0.90257 0.38167 0.0
H193 H 0.24701 0.9342 0.39248 0.0
H194 H 0.23866 0.88576 0.3429 0.0
H195 H 0.2852 0.91763 0.35345 0.0
H196 H 0.43061 0.96345 0.37701 0.0
H197 H 0.47655 0.03769 0.40417 0.0
H198 H 0.43231 0.0351 0.41198 0.0
H199 H 0.38609 0.9605 0.38508 0.0
C200 C 0.42438 0.40131 0.71752 0.0
C201 C 0.42363 0.41887 0.7289 0.0
C202 C 0.46447 0.45925 0.71739 0.0
C203 C 0.44378 0.44717 0.72909 0.0
C204 C 0.46644 0.44034 0.70715 0.0
C205 C 0.44638 0.41221 0.70694 0.0
U206 U 0.36708 0.33171 0.73449 0.0
O207 O 0.32986 0.29732 0.72318 0.0
O208 O 0.36333 0.29061 0.73239 0.0
C209 C 0.33922 0.2798 0.72506 0.0
C210 C 0.4037 0.37137 0.71673 0.0
C211 C 0.33485 0.25992 0.71248 0.0
C212 C 0.35271 0.24281 0.69188 0.0
C213 C 0.35576 0.26445 0.70163 0.0
C214 C 0.30732 0.21249 0.70312 0.0
C215 C 0.32879 0.21642 0.69289 0.0
C216 C 0.31032 0.23402 0.71277 0.0
C217 C 0.34926 0.33727 0.77821 0.0
C218 C 0.31616 0.30519 0.79688 0.0
C219 C 0.35272 0.35049 0.80514 0.0
C220 C 0.36233 0.35667 0.79006 0.0
C221 C 0.32975 0.32471 0.80874 0.0
C222 C 0.32594 0.31141 0.78164 0.0
C223 C 0.36142 0.34546 0.76271 0.0
O224 O 0.40969 0.35516 0.72491 0.0
O225 O 0.37698 0.36426 0.71728 0.0
O226 O 0.34513 0.34428 0.75129 0.0
O227 O 0.38046 0.33882 0.7587 0.0
H228 H 0.40778 0.41065 0.73781 0.0
H229 H 0.44316 0.45888 0.73885 0.0
H230 H 0.48384 0.44665 0.69936 0.0
H231 H 0.44835 0.39876 0.69856 0.0
H232 H 0.36959 0.24621 0.68413 0.0
H233 H 0.37493 0.28421 0.70121 0.0
H234 H 0.28885 0.19228 0.70422 0.0
H235 H 0.29403 0.22996 0.72111 0.0
H236 H 0.29824 0.28522 0.79946 0.0
H237 H 0.36335 0.36587 0.81406 0.0
H238 H 0.38025 0.37674 0.78763 0.0
H239 H 0.31551 0.29615 0.77264 0.0
C240 C 0.69832 0.98347 0.57594 0.0
C241 C 0.67987 0.99062 0.56869 0.0
C242 C 0.70514 0.99782 0.54455 0.0
C243 C 0.68333 0.99783 0.55307 0.0
C244 C 0.72401 0.99152 0.55195 0.0
C245 C 0.72066 0.9845 0.56753 0.0
U246 U 0.66211 0.96861 0.61564 0.0
O247 O 0.64564 0.93069 0.62943 0.0
O248 O 0.67961 0.96979 0.63869 0.0
C249 C 0.66308 0.94313 0.64089 0.0
C250 C 0.69369 0.97292 0.59184 0.0
C251 C 0.67502 0.92756 0.64863 0.0
C252 C 0.703 0.90439 0.64946 0.0
C253 C 0.69357 0.9204 0.64155 0.0
C254 C 0.6747 0.90188 0.67122 0.0
C255 C 0.69522 0.89614 0.66499 0.0
C256 C 0.66547 0.91779 0.6634 0.0
C257 C 0.60632 0.99445 0.61931 0.0
C258 C 0.57238 0.98984 0.63885 0.0
C259 C 0.57596 0.01415 0.61537 0.0
C260 C 0.597 0.00891 0.61022 0.0
C261 C 0.56406 1.00628 0.63021 0.0
C262 C 0.59358 0.98447 0.63358 0.0
C263 C 0.62829 0.98934 0.61283 0.0
O264 O 0.70203 0.9914 0.60298 0.0
O265 O 0.66915 0.9511 0.59449 0.0
O266 O 0.62115 0.96382 0.60896 0.0
O267 O 0.65383 1.00345 0.61848 0.0
H268 H 0.66245 0.98994 0.57497 0.0
H269 H 0.66855 1.00262 0.54752 0.0
H270 H 0.74097 0.99145 0.54557 0.0
H271 H 0.7351 0.97909 0.57293 0.0
H272 H 0.71538 0.89791 0.64286 0.0
H273 H 0.7002 0.92654 0.6298 0.0
H274 H 0.66464 0.89349 0.68208 0.0
H275 H 0.65008 0.9219 0.66886 0.0
H276 H 0.56287 0.98031 0.64953 0.0
H277 H 0.56898 0.02443 0.60742 0.0
H278 H 0.60583 0.01598 0.59889 0.0
H279 H 0.59973 0.97226 0.64057 0.0
C280 C 0.72241 0.68976 0.9091 0.0
C281 C 0.69557 0.67917 0.90273 0.0
C282 C 0.71584 0.70136 0.87789 0.0
C283 C 0.69236 0.68417 0.88724 0.0
C284 C 0.74247 0.70861 0.88418 0.0
C285 C 0.7457 0.70376 0.89959 0.0
U286 U 0.69923 0.65751 0.94967 0.0
O287 O 0.7189 0.63969 0.96435 0.0
O288 O 0.7174 0.6766 0.97217 0.0
C289 C 0.72615 0.65886 0.97502 0.0
C290 C 0.72712 0.6853 0.92529 0.0
C291 C 0.75432 0.66929 0.98197 0.0
C292 C 0.80259 0.70503 0.98741 0.0
C293 C 0.7767 0.69643 0.97998 0.0
C294 C 0.78391 0.65967 0.99878 0.0
C295 C 0.8064 0.68653 0.99677 0.0
C296 C 0.75825 0.65119 0.99148 0.0
C297 C 0.61877 0.60496 0.95549 0.0
C298 C 0.59382 0.56194 0.96976 0.0
C299 C 0.5677 0.57842 0.95492 0.0
C300 C 0.59286 0.60183 0.95075 0.0
C301 C 0.56802 0.55782 0.964 0.0
C302 C 0.61907 0.58528 0.96545 0.0
C303 C 0.6444 0.626 0.94767 0.0
O304 O 0.7176 0.69558 0.93585 0.0
O305 O 0.72293 0.66054 0.92864 0.0
O306 O 0.66237 0.61811 0.94336 0.0
O307 O 0.65647 0.65169 0.95273 0.0
H308 H 0.67713 0.66671 0.90963 0.0
H309 H 0.67124 0.67369 0.88277 0.0
H310 H 0.7613 0.71756 0.87735 0.0
H311 H 0.76662 0.71066 0.90403 0.0
H312 H 0.81964 0.72594 0.9858 0.0
H313 H 0.77419 0.71089 0.97277 0.0
H314 H 0.78626 0.64515 1.00604 0.0
H315 H 0.74126 0.63032 0.99334 0.0
H316 H 0.59448 0.54624 0.97678 0.0
H317 H 0.54808 0.57568 0.95036 0.0
H318 H 0.59214 0.61667 0.943 0.0
H319 H 0.63879 0.58714 0.96921 0.0
C320 C 0.02217 0.60645 0.29998 0.0
C321 C 0.9946 0.58416 0.29931 0.0
C322 C 1.01181 0.55196 0.30372 0.0
C323 C 0.98945 0.55702 0.3011 0.0
C324 C 0.03911 0.57431 0.30525 0.0
C325 C 0.04428 0.60135 0.30334 0.0
U326 U 0.04092 0.68484 0.28854 0.0
O327 O 0.08085 0.71664 0.29852 0.0
O328 O 0.04071 0.71177 0.30743 0.0
C329 C 0.06822 0.72418 0.30873 0.0
C330 C 0.02834 0.63456 0.2958 0.0
C331 C 0.08424 0.75075 0.31689 0.0
C332 C 0.10952 0.77427 0.34007 0.0
C333 C 0.09203 0.74996 0.33205 0.0
C334 C 0.1122 0.80095 0.31778 0.0
C335 C 0.11862 0.80071 0.33362 0.0
C336 C 0.09483 0.77636 0.30964 0.0
C337 C 0.02379 0.69826 0.24479 0.0
C338 C 0.04116 0.71759 0.21954 0.0
C339 C 0.99226 0.68298 0.2227 0.0
C340 C 0.99682 0.68201 0.23849 0.0
C341 C 0.01459 0.70039 0.21311 0.0
C342 C 0.04577 0.71642 0.23524 0.0
C343 C 0.02993 0.69338 0.26059 0.0
O344 O 0.05258 0.65235 0.28979 0.0
O345 O 1.01062 0.64377 0.29804 0.0
O346 O 1.01204 0.68787 0.27193 0.0
O347 O 0.05416 0.6956 0.26442 0.0
H348 H 0.97724 0.58759 0.29665 0.0
H349 H 0.96827 0.53994 0.29975 0.0
H350 H 0.05659 0.57072 0.3072 0.0
H351 H 0.0657 0.61823 0.30398 0.0
H352 H 0.11656 0.77158 0.35116 0.0
H353 H 0.08548 0.73027 0.33758 0.0
H354 H 0.12134 0.81972 0.31117 0.0
H355 H 0.0904 0.77735 0.29759 0.0
H356 H 0.05861 0.73115 0.21228 0.0
H357 H 0.97167 0.66948 0.21788 0.0
H358 H 0.97965 0.66752 0.24561 0.0
H359 H 0.06675 0.72903 0.23982 0.0
C360 C 0.32823 0.03268 0.57485 0.0
C361 C 0.34538 0.02356 0.56783 0.0
C362 C 0.32131 0.01805 0.54341 0.0
C363 C 0.34186 0.01619 0.55219 0.0
C364 C 0.30366 0.02628 0.55058 0.0
C365 C 0.30708 0.03348 0.56618 0.0
U366 U 0.36352 0.04716 0.61498 0.0
O367 O 0.38212 0.08612 0.62822 0.0
O368 O 0.3462 0.04889 0.63764 0.0
C369 C 0.36414 0.07537 0.63956 0.0
C370 C 0.33325 0.04368 0.59072 0.0
C371 C 0.35372 0.09296 0.64654 0.0
C372 C 0.32451 0.11483 0.64711 0.0
C373 C 0.3332 0.0976 0.63979 0.0
C374 C 0.35765 0.12375 0.66749 0.0
C375 C 0.33507 0.1268 0.66184 0.0
C376 C 0.36618 0.10667 0.66025 0.0
C377 C 0.41684 0.01965 0.6214 0.0
C378 C 0.45999 0.03723 0.63629 0.0
C379 C 0.4436 0.99531 0.62118 0.0
C380 C 0.4201 0.9972 0.61667 0.0
C381 C 0.46419 0.01575 0.63064 0.0
C382 C 0.43656 0.03931 0.63162 0.0
C383 C 0.39524 0.02382 0.6136 0.0
O384 O 0.32377 0.02554 0.60193 0.0
O385 O 0.35839 0.06464 0.59345 0.0
O386 O 0.40314 0.04891 0.60867 0.0
O387 O 0.36953 0.0111 0.61906 0.0
H388 H 0.36189 0.02285 0.57432 0.0
H389 H 0.35564 0.00983 0.54682 0.0
H390 H 0.28767 0.02776 0.54401 0.0
H391 H 0.29369 0.04049 0.57139 0.0
H392 H 0.31026 0.11892 0.64067 0.0
H393 H 0.32423 0.08832 0.62875 0.0
H394 H 0.36937 0.13479 0.6776 0.0
H395 H 0.383 0.10445 0.66535 0.0
H396 H 0.47567 0.05323 0.64361 0.0
H397 H 0.44639 0.97859 0.6167 0.0
H398 H 0.40521 0.98188 0.60875 0.0
H399 H 0.43458 0.05688 0.63538 0.0
C400 C 0.30507 0.32551 0.9062 0.0
C401 C 0.33 0.34404 0.89864 0.0
C402 C 0.31122 0.31946 0.87442 0.0
C403 C 0.33306 0.34099 0.88283 0.0
C404 C 0.28674 0.30051 0.88209 0.0
C405 C 0.28375 0.30348 0.89786 0.0
U406 U 0.32723 0.36011 0.94638 0.0
O407 O 0.30583 0.37615 0.96114 0.0
O408 O 0.31134 0.3418 0.96923 0.0
C409 C 0.30085 0.35816 0.9721 0.0
C410 C 0.29972 0.32972 0.92238 0.0
C411 C 0.27279 0.34591 0.97931 0.0
C412 C 0.22183 0.31749 0.97866 0.0
C413 C 0.24817 0.3262 0.97184 0.0
C414 C 0.2445 0.34766 1.00046 0.0
C415 C 0.21977 0.32881 0.99284 0.0
C416 C 0.2707 0.356 0.99379 0.0
C417 C 0.40801 0.41573 0.95014 0.0
C418 C 0.43591 0.44908 0.97005 0.0
C419 C 0.45785 0.44661 0.94652 0.0
C420 C 0.43209 0.42562 0.94114 0.0
C421 C 0.46108 0.45788 0.96152 0.0
C422 C 0.40987 0.42792 0.96455 0.0
C423 C 0.38147 0.394 0.94337 0.0
O424 O 0.31075 0.32125 0.93301 0.0
O425 O 0.30189 0.35382 0.92562 0.0
O426 O 0.36232 0.40078 0.93991 0.0
O427 O 0.37096 0.36865 0.94859 0.0
H428 H 0.34671 0.36123 0.90485 0.0
H429 H 0.35204 0.35589 0.87706 0.0
H430 H 0.26966 0.28385 0.87579 0.0
H431 H 0.26438 0.28901 0.90348 0.0
H432 H 0.20299 0.30283 0.97259 0.0
H433 H 0.24926 0.31814 0.96064 0.0
H434 H 0.2435 0.35655 0.0114 0.0
H435 H 0.28942 0.37115 0.99975 0.0
H436 H 0.43519 0.45827 0.98078 0.0
H437 H 0.4753 0.45407 0.93862 0.0
H438 H 0.43096 0.4173 0.92969 0.0
H439 H 0.39119 0.42141 0.97144 0.0
C440 C 0.98283 0.29376 0.24162 0.0
C441 C 0.99518 0.32054 0.23563 0.0
C442 C 1.00144 0.30372 0.21042 0.0
C443 C 1.0035 0.3253 0.22015 0.0
C444 C 0.98568 0.27657 0.21636 0.0
C445 C 0.97744 0.27181 0.23176 0.0
U446 U 0.97258 0.31426 0.28264 0.0
O447 O 0.93575 0.29394 0.29773 0.0
O448 O 0.97564 0.29714 0.30495 0.0
C449 C 0.94906 0.28794 0.30825 0.0
C450 C 0.97363 0.28766 0.25777 0.0
C451 C 0.93316 0.26029 0.31525 0.0
C452 C 0.91192 0.21012 0.31461 0.0
C453 C 0.92936 0.23606 0.30794 0.0
C454 C 0.90244 0.23248 0.33596 0.0
C455 C 0.89768 0.20813 0.32847 0.0
C456 C 0.92009 0.25827 0.32943 0.0
C457 C 0.99683 0.3926 0.28987 0.0
C458 C 0.97632 0.41847 0.30156 0.0
C459 C 0.02487 0.44243 0.29336 0.0
C460 C 0.02253 0.41727 0.28869 0.0
C461 C 1.0015 0.44329 0.29929 0.0
C462 C 0.97398 0.39323 0.2969 0.0
C463 C 0.99334 0.36808 0.28125 0.0
O464 O 0.99353 0.29706 0.26827 0.0
O465 O 0.95217 0.29081 0.2616 0.0
O466 O 0.9677 0.34999 0.27696 0.0
O467 O 1.00834 0.35671 0.28555 0.0
H468 H 0.99793 0.33769 0.24283 0.0
H469 H 1.01064 0.34595 0.21604 0.0
H470 H 0.97889 0.25844 0.20922 0.0
H471 H 0.96635 0.25072 0.23591 0.0
H472 H 0.90858 0.19155 0.30867 0.0
H473 H 0.93927 0.23716 0.29698 0.0
H474 H 0.89187 0.23148 0.34667 0.0
H475 H 0.92288 0.27674 0.33528 0.0
H476 H 0.95805 0.41882 0.30606 0.0
H477 H 0.04439 0.46142 0.29144 0.0
H478 H 0.04034 0.41734 0.28321 0.0
H479 H 0.95388 0.37452 0.29794 0.0
C480 C 0.04147 0.53397 0.06239 0.0
C481 C 0.0186 0.53491 0.05534 0.0
C482 C 1.00088 0.48709 0.0464 0.0
C483 C 0.01971 0.48447 0.05657 0.0
N484 N 0.05773 0.5059 0.07496 0.0
N485 N 0.99412 0.51951 0.03125 0.0
C486 C 0.04026 0.50815 0.06458 0.0
C487 C 1.00253 0.51337 0.04468 0.0
N488 N 0.06549 0.55808 0.06558 0.0
N489 N 0.98165 0.46467 0.03823 0.0
H490 H 1.00278 0.53997 0.02763 0.0
H491 H 0.98382 0.50506 0.02253 0.0
H492 H 0.98089 0.44555 0.03848 0.0
H493 H 0.96554 0.46484 0.03195 0.0
H494 H 0.08385 0.55877 0.06941 0.0
H495 H 0.06782 0.57724 0.06251 0.0
H496 H 0.07086 0.52208 0.08228 0.0
H497 H 0.05736 0.48733 0.07726 0.0
C498 C 0.51215 0.97823 0.39325 0.0
C499 C 0.53555 1.00085 0.38624 0.0
C500 C 0.50457 0.01856 0.37787 0.0
C501 C 0.48325 0.99957 0.3878 0.0
N502 N 0.46733 0.96164 0.40571 0.0
N503 N 0.54436 0.02602 0.36261 0.0
C504 C 0.48696 0.97912 0.39548 0.0
C505 C 0.52966 0.01709 0.37595 0.0
N506 N 0.51357 0.95507 0.39678 0.0
N507 N 0.50081 0.03775 0.37009 0.0
H508 H 0.55566 0.01684 0.35841 0.0
H509 H 0.54026 0.03691 0.35425 0.0
H510 H 0.48206 0.03832 0.37041 0.0
H511 H 0.51692 0.05398 0.36406 0.0
H512 H 0.4964 0.93683 0.40061 0.0
H513 H 0.5312 0.95331 0.39405 0.0
H514 H 0.4707 0.94862 0.41289 0.0
H515 H 0.44875 0.96181 0.40803 0.0
C516 C 0.50634 0.50195 0.70499 0.0
C517 C 0.48586 0.49038 0.71683 0.0
C518 C 0.51266 0.53334 0.73169 0.0
C519 C 0.53582 0.54155 0.72164 0.0
N520 N 0.55462 0.53374 0.69825 0.0
N521 N 0.46227 0.50764 0.73307 0.0
C522 C 0.53262 0.52593 0.70811 0.0
C523 C 0.48668 0.50938 0.7281 0.0
N524 N 0.49892 0.49316 0.69018 0.0
N525 N 0.51531 0.54827 0.74471 0.0
H526 H 0.4431 0.49413 0.72787 0.0
H527 H 0.4616 0.52237 0.74026 0.0
H528 H 0.53368 0.56641 0.7476 0.0
H529 H 0.49977 0.54138 0.75313 0.0
H530 H 0.51211 0.50251 0.68084 0.0
H531 H 0.47814 0.47932 0.68717 0.0
H532 H 0.55412 0.52134 0.68907 0.0
H533 H 0.57394 0.55163 0.69989 0.0
C534 C 0.51957 0.9982 0.64535 0.0
C535 C 0.54209 0.01423 0.6352 0.0
C536 C 0.51598 0.03652 0.62562 0.0
C537 C 0.49144 0.01629 0.63315 0.0
N538 N 0.46993 0.97807 0.65081 0.0
N539 N 0.56668 0.06017 0.62487 0.0
C540 C 0.49322 0.9971 0.64317 0.0
C541 C 0.54184 0.03705 0.62811 0.0
N542 N 0.52481 0.98918 0.6588 0.0
N543 N 0.51444 0.05421 0.61532 0.0
H544 H 0.58588 0.06178 0.62789 0.0
H545 H 0.56807 0.07853 0.62104 0.0
H546 H 0.49589 0.05431 0.6128 0.0
H547 H 0.53114 0.06712 0.60825 0.0
H548 H 0.50952 0.97845 0.66706 0.0
H549 H 0.54518 0.99806 0.66313 0.0
H550 H 0.46942 0.96172 0.65689 0.0
H551 H 0.45075 0.97776 0.65031 0.0
C552 C 0.51437 0.48121 0.95952 0.0
C553 C 0.49052 0.47983 0.9668 0.0
C554 C 0.5203 0.52756 0.97601 0.0
C555 C 0.54189 0.53057 0.96582 0.0
N556 N 0.5588 0.50994 0.94709 0.0
N557 N 0.48121 0.49465 0.99105 0.0
C558 C 0.53895 0.50719 0.95754 0.0
C559 C 0.49577 0.50113 0.97761 0.0
N560 N 0.51419 0.45729 0.95567 0.0
N561 N 0.52328 0.54974 0.98435 0.0
H562 H 0.47027 0.4742 0.99477 0.0
H563 H 0.48501 0.50898 0.99979 0.0
H564 H 0.54158 0.56894 0.9842 0.0
H565 H 0.50691 0.54934 0.99066 0.0
H566 H 0.53184 0.45676 0.95164 0.0
H567 H 0.49724 0.43795 0.95839 0.0
H568 H 0.55591 0.49411 0.93954 0.0
H569 H 0.57698 0.52864 0.94496 0.0
C570 C 1.00556 0.51119 0.28825 0.0
C571 C 1.00734 0.52335 0.30288 0.0
C572 C 1.0057 0.4831 0.31543 0.0
C573 C 1.00233 0.47035 0.30082 0.0
N574 N 0.99318 0.46952 0.27363 0.0
N575 N 1.00494 0.51976 0.33047 0.0
C576 C 1.00051 0.48361 0.28732 0.0
C577 C 1.00616 0.50894 0.31652 0.0
N578 N 1.00979 0.52638 0.2752 0.0
N579 N 1.00932 0.47091 0.32817 0.0
H580 H 1.00554 0.53875 0.3316 0.0
H581 H 1.00118 0.50909 0.34078 0.0
H582 H 1.00858 0.45179 0.32776 0.0
H583 H 0.01489 0.48045 0.33892 0.0
H584 H 1.01229 0.51985 0.26435 0.0
H585 H 1.01312 0.54654 0.27528 0.0
H586 H 0.98833 0.47692 0.26379 0.0
H587 H 0.98938 0.44928 0.2724 0.0
C588 C 0.02536 0.33505 0.18681 0.0
C589 C 1.01258 0.30856 0.19385 0.0
C590 C 1.00919 0.28771 0.16837 0.0
C591 C 0.01672 0.31331 0.16128 0.0
N592 N 0.03112 0.36177 0.1639 0.0
N593 N 0.01586 0.26708 0.19103 0.0
C594 C 0.02426 0.33705 0.17055 0.0
C595 C 1.01076 0.28651 0.18461 0.0
N596 N 0.04369 0.35777 0.19506 0.0
N597 N 1.00049 0.26439 0.15964 0.0
H598 H 0.0229 0.2689 0.20235 0.0
H599 H 0.01734 0.25195 0.1846 0.0
H600 H 0.999 0.26441 0.14768 0.0
H601 H 0.99232 0.24478 0.16447 0.0
H602 H 0.05549 0.37734 0.19026 0.0
H603 H 0.05073 0.35591 0.20591 0.0
H604 H 0.03395 0.3789 0.1703 0.0
H605 H 0.03178 0.3645 0.15202 0.0
C606 C 0.72767 0.03428 0.50571 0.0
C607 C 0.71172 0.01188 0.4955 0.0
C608 C 0.69059 0.98068 0.51743 0.0
C609 C 0.70737 1.00282 0.52764 0.0
N610 N 0.74434 0.04969 0.53176 0.0
N611 N 0.68111 0.96318 0.49117 0.0
C612 C 0.72666 0.02935 0.52183 0.0
C613 C 0.694 0.9849 0.50124 0.0
N614 N 0.74326 0.06042 0.49998 0.0
N615 N 0.67113 0.95566 0.52326 0.0
H616 H 0.68267 0.96563 0.47926 0.0
H617 H 0.67049 0.94254 0.49449 0.0
H618 H 0.669 0.95129 0.53498 0.0
H619 H 0.65592 0.93966 0.51662 0.0
H620 H 0.75292 0.07817 0.50678 0.0
H621 H 0.74517 0.06472 0.48824 0.0
H622 H 0.76116 0.06842 0.52825 0.0
H623 H 0.74332 0.04722 0.54366 0.0
C624 C 0.73462 0.72202 0.83581 0.0
C625 C 0.7078 0.70859 0.82875 0.0
C626 C 0.68631 0.70058 0.85438 0.0
C627 C 0.71285 0.70905 0.86132 0.0
N628 N 0.7594 0.74787 0.85823 0.0
N629 N 0.65738 0.68469 0.8315 0.0
C630 C 0.73667 0.72543 0.85201 0.0
C631 C 0.6834 0.69755 0.83809 0.0
N632 N 0.75831 0.73161 0.8271 0.0
N633 N 0.6656 0.70112 0.86282 0.0
H634 H 0.65415 0.68342 0.81965 0.0
H635 H 0.63908 0.67363 0.8379 0.0
H636 H 0.66948 0.7098 0.87384 0.0
H637 H 0.6466 0.69758 0.85815 0.0
H638 H 0.7782 0.73941 0.83199 0.0
H639 H 0.75776 0.72937 0.81516 0.0
H640 H 0.77633 0.76198 0.85166 0.0
H641 H 0.75907 0.75457 0.86943 0.0
C642 C 0.01842 0.68229 0.18732 0.0
C643 C 1.01127 0.69943 0.19614 0.0
C644 C 1.00863 0.7216 0.17245 0.0
C645 C 1.00992 0.70064 0.16359 0.0
N646 N 0.03963 0.68006 0.1636 0.0
N647 N 0.99877 0.73535 0.1971 0.0
C648 C 0.02124 0.68573 0.17115 0.0
C649 C 1.00612 0.71908 0.1887 0.0
N650 N 0.02289 0.66287 0.19432 0.0
N651 N 0.01498 0.74612 0.16574 0.0
H652 H 0.99719 0.7344 0.20906 0.0
H653 H 0.99204 0.74801 0.19201 0.0
H654 H 0.02244 0.75059 0.15447 0.0
H655 H 0.01693 0.76314 0.17188 0.0
H656 H 0.02556 0.64823 0.18811 0.0
H657 H 0.02163 0.66 0.2062 0.0
H658 H 0.05043 0.67135 0.16894 0.0
H659 H 0.04753 0.68848 0.15281 0.0
C660 C 0.29509 0.9823 0.5044 0.0
C661 C 0.31456 1.00298 0.49437 0.0
C662 C 0.33818 0.03362 0.51644 0.0
C663 C 0.31902 0.01274 0.52649 0.0
N664 N 0.28102 0.96654 0.53064 0.0
N665 N 0.35223 0.0493 0.49017 0.0
C666 C 0.2978 0.98694 0.52061 0.0
C667 C 0.33558 0.02888 0.50023 0.0
N668 N 0.2736 0.95848 0.49832 0.0
N669 N 0.35917 0.0578 0.52249 0.0
H670 H 0.35107 0.0464 0.47828 0.0
H671 H 0.36618 0.06961 0.49334 0.0
H672 H 0.36081 0.06264 0.53418 0.0
H673 H 0.3758 0.07277 0.51618 0.0
H674 H 0.25674 0.94382 0.50464 0.0
H675 H 0.27166 0.95383 0.4866 0.0
H676 H 0.26694 0.94629 0.52741 0.0
H677 H 0.28228 0.96934 0.54254 0.0
C678 C 0.3052 0.33402 0.84801 0.0
C679 C 0.31307 0.31807 0.85735 0.0
C680 C 0.3283 0.30301 0.83441 0.0
C681 C 0.32044 0.31899 0.82509 0.0
N682 N 0.29554 0.34426 0.82235 0.0
N683 N 0.32655 0.28302 0.85945 0.0
C684 C 0.30704 0.33281 0.83173 0.0
C685 C 0.32278 0.30109 0.85052 0.0
N686 N 0.29666 0.35091 0.85475 0.0
N687 N 0.34222 0.29075 0.82797 0.0
H688 H 0.32358 0.28176 0.87133 0.0
H689 H 0.33054 0.26787 0.85502 0.0
H690 H 0.34603 0.29114 0.8162 0.0
H691 H 0.35146 0.28153 0.83432 0.0
H692 H 0.29401 0.36563 0.84877 0.0
H693 H 0.29378 0.35144 0.86658 0.0
H694 H 0.28298 0.3522 0.82629 0.0
H695 H 0.29638 0.34347 0.81038 0.0
C696 C 0.17537 0.33198 0.99147 0.0
C697 C 0.1919 0.32266 0.99927 0.0
C698 C 0.1555 0.30296 0.01932 0.0
C699 C 0.143 0.31809 0.01334 0.0
N700 N 0.12862 0.32511 0.98843 0.0
N701 N 0.19625 0.29665 0.0202 0.0
C702 C 0.14914 0.32616 0.99774 0.0
C703 C 0.18153 0.30734 0.0131 0.0
N704 N 0.18511 0.34765 0.97852 0.0
N705 N 0.14004 0.28067 0.02843 0.0
H706 H 0.21414 0.29754 0.01541 0.0
H707 H 0.19131 0.2881 0.03117 0.0
H708 H 0.11842 0.27252 0.02954 0.0
H709 H 0.14711 0.26747 0.0323 0.0
H710 H 0.17475 0.35709 0.97346 0.0
H711 H 0.20459 0.35332 0.97365 0.0
H712 H 0.13111 0.32829 0.9766 0.0
H713 H 0.10811 0.31751 0.99237 0.0
C714 C 0.88094 0.1706 0.34872 0.0
C715 C 0.87621 0.18072 0.33468 0.0
C716 C 0.83047 0.13874 0.33269 0.0
C717 C 0.83188 0.13306 0.34843 0.0
N718 N 0.86591 0.12998 0.36445 0.0
N719 N 0.84513 0.17387 0.31328 0.0
C720 C 0.85927 0.14519 0.35485 0.0
C721 C 0.85079 0.16443 0.32652 0.0
N722 N 0.90608 0.18502 0.35614 0.0
N723 N 0.81185 0.11828 0.32322 0.0
H724 H 0.85887 0.19296 0.30845 0.0
H725 H 0.82556 0.1636 0.3079 0.0
H726 H 0.79921 0.09813 0.32718 0.0
H727 H 0.81167 0.12053 0.31133 0.0
H728 H 0.90945 0.18023 0.36723 0.0
H729 H 0.92308 0.2025 0.35146 0.0
H730 H 0.8861 0.13671 0.3686 0.0
H731 H 0.85227 0.10884 0.36591 0.0
C732 C 0.71683 0.84155 0.67401 0.0
C733 C 0.70189 0.83123 0.68803 0.0
C734 C 0.69775 0.87306 0.69002 0.0
C735 C 0.70498 0.87891 0.67428 0.0
N736 N 0.74239 0.88233 0.65837 0.0
N737 N 0.67735 0.83782 0.70939 0.0
C738 C 0.72044 0.86695 0.6679 0.0
C739 C 0.69251 0.84737 0.69617 0.0
N740 N 0.72782 0.82737 0.6666 0.0
N741 N 0.6995 0.89342 0.69954 0.0
H742 H 0.67211 0.81875 0.71421 0.0
H743 H 0.66789 0.84795 0.71476 0.0
H744 H 0.70712 0.91363 0.69565 0.0
H745 H 0.69701 0.89108 0.71143 0.0
H746 H 0.73604 0.83224 0.65552 0.0
H747 H 0.72754 0.80999 0.67128 0.0
H748 H 0.75599 0.87575 0.65423 0.0
H749 H 0.74984 0.90346 0.65696 0.0
C750 C 0.85549 0.69319 0.02914 0.0
C751 C 0.87807 0.69368 0.02084 0.0
C752 C 0.85662 0.69604 0.9965 0.0
C753 C 0.83353 0.69448 1.00477 0.0
N754 N 0.81537 0.70065 0.02873 0.0
N755 N 0.90455 0.70452 0.99739 0.0
C756 C 0.83453 0.69616 0.02105 0.0
C757 C 0.88008 0.69817 1.00474 0.0
N758 N 0.85306 0.68819 0.04459 0.0
N759 N 0.85548 0.69387 0.98083 0.0
H760 H 0.92205 0.70642 1.00324 0.0
H761 H 0.90844 0.71064 0.98594 0.0
H762 H 0.83891 0.69267 0.97436 0.0
H763 H 0.87013 0.69155 0.97429 0.0
H764 H 0.83536 0.68432 0.05091 0.0
H765 H 0.868 0.68614 0.05098 0.0
H766 H 0.81651 0.70477 0.04048 0.0
H767 H 0.79998 0.70306 0.02301 0.0
C768 C 0.17639 0.87512 0.34201 0.0
C769 C 0.18777 0.87039 0.35562 0.0
C770 C 0.14482 0.82585 0.35832 0.0
C771 C 0.1376 0.82711 0.34281 0.0
N772 N 0.13407 0.86069 0.32712 0.0
N773 N 0.18234 0.83979 0.37666 0.0
C774 C 0.14988 0.85401 0.33638 0.0
C775 C 0.17174 0.84547 0.36385 0.0
N776 N 0.19072 0.89971 0.33449 0.0
N777 N 0.12465 0.80889 0.36839 0.0
H778 H 0.20228 0.85314 0.38104 0.0
H779 H 0.17204 0.8206 0.38206 0.0
H780 H 0.10355 0.79775 0.36515 0.0
H781 H 0.12831 0.809 0.38016 0.0
H782 H 0.18499 0.90299 0.3236 0.0
H783 H 0.20909 0.91634 0.33882 0.0
H784 H 0.1408 0.8806 0.3231 0.0
H785 H 0.11262 0.84717 0.3256 0.0
C786 C 0.31364 0.18181 0.67085 0.0
C787 C 0.32771 0.1918 0.68513 0.0
C788 C 0.33334 0.15079 0.68675 0.0
C789 C 0.32561 0.1445 0.67104 0.0
N790 N 0.28777 0.14078 0.65533 0.0
N791 N 0.35118 0.18537 0.70691 0.0
C792 C 0.31008 0.15637 0.66467 0.0
C793 C 0.33749 0.17607 0.69319 0.0
N794 N 0.30336 0.19632 0.66324 0.0
N795 N 0.33302 0.13091 0.69603 0.0
H796 H 0.35416 0.20344 0.71229 0.0
H797 H 0.36145 0.17614 0.7123 0.0
H798 H 0.32626 0.11086 0.692 0.0
H799 H 0.33576 0.1332 0.70791 0.0
H800 H 0.29535 0.19133 0.65209 0.0
H801 H 0.30475 0.21445 0.66767 0.0
H802 H 0.27446 0.14759 0.65109 0.0
H803 H 0.27931 0.11938 0.65463 0.0
loop_
_geom_bond_atom_site_label_1
_geom_bond_atom_site_label_2
_geom_bond_distance
_geom_bond_site_symmetry_2
_ccdc_geom_bond_type
C0 C1 1.264 . S
C0 C5 1.470 1_655 S
C0 C10 1.465 1_655 S
C1 C0 1.264 . S
C1 C3 1.339 . S
C1 H28 0.931 . S
C2 C3 1.395 . S
C2 C4 1.320 . S
C3 C1 1.339 . S
C3 C2 1.395 . S
C3 H29 0.929 . S
C4 C2 1.320 . S
C4 C5 1.401 1_655 S
C4 H30 0.930 . S
C5 C0 1.470 1_455 S
C5 C4 1.401 1_455 S
C5 H31 0.942 . S
U6 O7 2.454 . S
U6 O8 2.458 . S
U6 C9 2.984 . S
U6 C10 2.847 . S
U6 C23 2.882 . S
U6 O24 2.441 . S
U6 O25 2.420 . S
U6 O26 2.455 . S
U6 O27 2.449 . S
O7 U6 2.454 . S
O7 C9 1.353 . S
O8 U6 2.458 . S
O8 C9 1.286 . S
C9 U6 2.984 . S
C9 O7 1.353 . S
C9 O8 1.286 . S
C9 C11 1.363 . S
C10 C0 1.465 1_455 S
C10 U6 2.847 . S
C10 O24 1.249 . S
C10 O25 1.202 . S
C11 C9 1.363 . S
C11 C13 1.408 . S
C11 C16 1.342 . S
C12 C13 1.310 . S
C12 C15 1.461 . S
C12 H32 0.932 . S
C13 C11 1.408 . S
C13 C12 1.310 . S
C13 H33 0.930 . S
C14 C15 1.474 . S
C14 C16 1.285 . S
C14 H34 0.930 1_554 S
C15 C12 1.461 . S
C15 C14 1.474 . S
C16 C11 1.342 . S
C16 C14 1.285 . S
C16 H35 0.930 . S
C17 C20 1.424 . S
C17 C22 1.245 1_655 S
C17 C23 1.428 1_655 S
C18 C21 1.260 . S
C18 C22 1.477 1_655 S
C18 H36 0.932 . S
C19 C20 1.384 . S
C19 C21 1.479 . S
C19 H37 0.929 . S
C20 C17 1.424 . S
C20 C19 1.384 . S
C20 H38 0.928 . S
C21 C18 1.260 . S
C21 C19 1.479 . S
C22 C17 1.245 1_455 S
C22 C18 1.477 1_455 S
C22 H39 0.932 . S
C23 U6 2.882 . S
C23 C17 1.428 1_455 S
C23 O26 1.301 . S
C23 O27 1.282 . S
O24 U6 2.441 . S
O24 C10 1.249 . S
O25 U6 2.420 . S
O25 C10 1.202 . S
O26 U6 2.455 . S
O26 C23 1.301 . S
O27 U6 2.449 . S
O27 C23 1.282 . S
H28 C1 0.931 . S
H29 C3 0.929 . S
H30 C4 0.930 . S
H31 C5 0.942 . S
H32 C12 0.932 . S
H33 C13 0.930 . S
H34 C14 0.930 1_556 S
H35 C16 0.930 . S
H36 C18 0.932 . S
H37 C19 0.929 . S
H38 C20 0.928 . S
H39 C22 0.932 . S
C40 C41 1.264 . S
C40 C45 1.469 . S
C40 C50 1.465 1_565 S
C41 C40 1.264 . S
C41 C43 1.339 . S
C41 H68 0.931 . S
C42 C43 1.395 . S
C42 C44 1.320 . S
C43 C41 1.339 . S
C43 C42 1.395 . S
C43 H69 0.929 . S
C44 C42 1.320 . S
C44 C45 1.421 . S
C44 H70 0.930 . S
C45 C40 1.469 . S
C45 C44 1.421 . S
C45 H71 0.926 1_565 S
U46 O47 2.454 . S
U46 O48 2.458 . S
U46 C49 2.984 . S
U46 C50 2.847 . S
U46 C63 2.882 . S
U46 O64 2.441 . S
U46 O65 2.420 . S
U46 O66 2.455 . S
U46 O67 2.449 . S
O47 U46 2.454 . S
O47 C49 1.353 . S
O48 U46 2.458 . S
O48 C49 1.286 . S
C49 U46 2.984 . S
C49 O47 1.353 . S
C49 O48 1.286 . S
C49 C51 1.363 . S
C50 C40 1.465 1_545 S
C50 U46 2.847 . S
C50 O64 1.249 . S
C50 O65 1.202 . S
C51 C49 1.363 . S
C51 C53 1.408 . S
C51 C56 1.342 . S
C52 C53 1.310 . S
C52 C55 1.461 . S
C52 H72 0.932 . S
C53 C51 1.408 . S
C53 C52 1.310 . S
C53 H73 0.930 . S
C54 C55 1.474 . S
C54 C56 1.285 . S
C54 H74 0.929 . S
C55 C52 1.461 . S
C55 C54 1.474 . S
C56 C51 1.342 . S
C56 C54 1.285 . S
C56 H75 0.930 . S
C57 C60 1.424 . S
C57 C62 1.245 . S
C57 C63 1.428 1_565 S
C58 C61 1.260 . S
C58 C62 1.477 . S
C58 H76 0.932 . S
C59 C60 1.384 . S
C59 C61 1.479 . S
C59 H77 0.929 . S
C60 C57 1.424 . S
C60 C59 1.384 . S
C60 H78 0.928 . S
C61 C58 1.260 . S
C61 C59 1.479 . S
C62 C57 1.245 . S
C62 C58 1.477 . S
C62 H79 0.932 1_565 S
C63 U46 2.882 . S
C63 C57 1.428 1_545 S
C63 O66 1.301 . S
C63 O67 1.282 . S
O64 U46 2.441 . S
O64 C50 1.249 . S
O65 U46 2.420 . S
O65 C50 1.202 . S
O66 U46 2.455 . S
O66 C63 1.301 . S
O67 U46 2.449 . S
O67 C63 1.282 . S
H68 C41 0.931 . S
H69 C43 0.929 . S
H70 C44 0.930 . S
H71 C45 0.926 1_545 S
H72 C52 0.932 . S
H73 C53 0.930 . S
H74 C54 0.929 . S
H75 C56 0.930 . S
H76 C58 0.932 . S
H77 C59 0.929 . S
H78 C60 0.928 . S
H79 C62 0.932 1_545 S
C80 C81 1.264 . S
C80 C85 1.479 . S
C80 C90 1.465 . S
C81 C80 1.264 . S
C81 C83 1.339 . S
C81 H108 0.931 . S
C82 C83 1.395 . S
C82 C84 1.320 . S
C83 C81 1.339 . S
C83 C82 1.395 . S
C83 H109 0.929 . S
C84 C82 1.320 . S
C84 C85 1.405 . S
C84 H110 0.930 . S
C85 C80 1.479 . S
C85 C84 1.405 . S
C85 H111 0.931 . S
U86 O87 2.454 . S
U86 O88 2.458 . S
U86 C89 2.984 . S
U86 C90 2.847 . S
U86 C103 2.882 . S
U86 O104 2.441 . S
U86 O105 2.420 . S
U86 O106 2.455 . S
U86 O107 2.449 . S
O87 U86 2.454 . S
O87 C89 1.353 . S
O88 U86 2.458 . S
O88 C89 1.286 . S
C89 U86 2.984 . S
C89 O87 1.353 . S
C89 O88 1.286 . S
C89 C91 1.363 . S
C90 C80 1.465 . S
C90 U86 2.847 . S
C90 O104 1.249 . S
C90 O105 1.202 . S
C91 C89 1.363 . S
C91 C93 1.408 . S
C91 C96 1.342 . S
C92 C93 1.310 . S
C92 C95 1.461 . S
C92 H112 0.932 . S
C93 C91 1.408 . S
C93 C92 1.310 . S
C93 H113 0.930 . S
C94 C95 1.474 . S
C94 C96 1.285 . S
C94 H114 0.929 . S
C95 C92 1.461 . S
C95 C94 1.474 . S
C96 C91 1.342 . S
C96 C94 1.285 . S
C96 H115 0.930 . S
C97 C100 1.424 . S
C97 C102 1.245 . S
C97 C103 1.428 . S
C98 C101 1.260 . S
C98 C102 1.477 . S
C98 H116 0.932 . S
C99 C100 1.384 . S
C99 C101 1.479 . S
C99 H117 0.929 . S
C100 C97 1.424 . S
C100 C99 1.384 . S
C100 H118 0.928 . S
C101 C98 1.260 . S
C101 C99 1.479 . S
C102 C97 1.245 . S
C102 C98 1.477 . S
C102 H119 0.932 . S
C103 U86 2.882 . S
C103 C97 1.428 . S
C103 O106 1.301 . S
C103 O107 1.282 . S
O104 U86 2.441 . S
O104 C90 1.249 . S
O105 U86 2.420 . S
O105 C90 1.202 . S
O106 U86 2.455 . S
O106 C103 1.301 . S
O107 U86 2.449 . S
O107 C103 1.282 . S
H108 C81 0.931 . S
H109 C83 0.929 . S
H110 C84 0.930 . S
H111 C85 0.931 . S
H112 C92 0.932 . S
H113 C93 0.930 . S
H114 C94 0.929 . S
H115 C96 0.930 . S
H116 C98 0.932 . S
H117 C99 0.929 . S
H118 C100 0.928 . S
H119 C102 0.932 . S
C120 C121 1.264 . S
C120 C125 1.479 1_455 S
C120 C130 1.465 1_455 S
C121 C120 1.264 . S
C121 C123 1.339 . S
C121 H148 0.931 . S
C122 C123 1.395 . S
C122 C124 1.320 . S
C123 C121 1.339 . S
C123 C122 1.395 . S
C123 H149 0.929 . S
C124 C122 1.320 . S
C124 C125 1.405 1_455 S
C124 H150 0.930 . S
C125 C120 1.479 1_655 S
C125 C124 1.405 1_655 S
C125 H151 0.931 . S
U126 O127 2.454 . S
U126 O128 2.458 . S
U126 C129 2.984 . S
U126 C130 2.847 . S
U126 C143 2.882 . S
U126 O144 2.441 . S
U126 O145 2.420 . S
U126 O146 2.455 . S
U126 O147 2.449 . S
O127 U126 2.454 . S
O127 C129 1.353 . S
O128 U126 2.458 . S
O128 C129 1.286 . S
C129 U126 2.984 . S
C129 O127 1.353 . S
C129 O128 1.286 . S
C129 C131 1.363 . S
C130 C120 1.465 1_655 S
C130 U126 2.847 . S
C130 O144 1.249 . S
C130 O145 1.202 . S
C131 C129 1.363 . S
C131 C133 1.408 . S
C131 C136 1.342 . S
C132 C133 1.310 . S
C132 C135 1.461 . S
C132 H152 0.932 . S
C133 C131 1.408 . S
C133 C132 1.310 . S
C133 H153 0.930 . S
C134 C135 1.474 . S
C134 C136 1.285 . S
C134 H154 0.929 1_554 S
C135 C132 1.461 . S
C135 C134 1.474 . S
C136 C131 1.342 . S
C136 C134 1.285 . S
C136 H155 0.930 . S
C137 C140 1.424 . S
C137 C142 1.245 1_455 S
C137 C143 1.428 1_455 S
C138 C141 1.260 . S
C138 C142 1.477 1_455 S
C138 H156 0.932 . S
C139 C140 1.384 . S
C139 C141 1.479 . S
C139 H157 0.929 . S
C140 C137 1.424 . S
C140 C139 1.384 . S
C140 H158 0.928 . S
C141 C138 1.260 . S
C141 C139 1.479 . S
C142 C137 1.245 1_655 S
C142 C138 1.477 1_655 S
C142 H159 0.932 . S
C143 U126 2.882 . S
C143 C137 1.428 1_655 S
C143 O146 1.301 . S
C143 O147 1.282 . S
O144 U126 2.441 . S
O144 C130 1.249 . S
O145 U126 2.420 . S
O145 C130 1.202 . S
O146 U126 2.455 . S
O146 C143 1.301 . S
O147 U126 2.449 . S
O147 C143 1.282 . S
H148 C121 0.931 . S
H149 C123 0.929 . S
H150 C124 0.930 . S
H151 C125 0.931 . S
H152 C132 0.932 . S
H153 C133 0.930 . S
H154 C134 0.929 1_556 S
H155 C136 0.930 . S
H156 C138 0.932 . S
H157 C139 0.929 . S
H158 C140 0.928 . S
H159 C142 0.932 . S
C160 C161 1.268 . S
C160 C165 1.491 1_545 S
C160 C170 1.448 1_545 S
C161 C160 1.268 . S
C161 C163 1.339 . S
C161 H188 0.931 . S
C162 C163 1.395 . S
C162 C164 1.320 . S
C163 C161 1.339 . S
C163 C162 1.395 . S
C163 H189 0.929 . S
C164 C162 1.320 . S
C164 C165 1.405 1_545 S
C164 H190 0.930 . S
C165 C160 1.491 1_565 S
C165 C164 1.405 1_565 S
C165 H191 0.931 . S
U166 O167 2.454 . S
U166 O168 2.458 . S
U166 C169 2.984 . S
U166 C170 2.847 . S
U166 C183 2.882 . S
U166 O184 2.441 . S
U166 O185 2.420 . S
U166 O186 2.455 . S
U166 O187 2.449 . S
O167 U166 2.454 . S
O167 C169 1.353 . S
O168 U166 2.458 . S
O168 C169 1.286 . S
C169 U166 2.984 . S
C169 O167 1.353 . S
C169 O168 1.286 . S
C169 C171 1.363 . S
C170 C160 1.448 1_565 S
C170 U166 2.847 . S
C170 O184 1.249 . S
C170 O185 1.202 . S
C171 C169 1.363 . S
C171 C173 1.408 . S
C171 C176 1.342 . S
C172 C173 1.310 . S
C172 C175 1.461 . S
C172 H192 0.932 . S
C173 C171 1.408 . S
C173 C172 1.310 . S
C173 H193 0.930 . S
C174 C175 1.474 . S
C174 C176 1.285 . S
C174 H194 0.929 . S
C175 C172 1.461 . S
C175 C174 1.474 . S
C176 C171 1.342 . S
C176 C174 1.285 . S
C176 H195 0.930 . S
C177 C180 1.424 1_565 S
C177 C182 1.245 . S
C177 C183 1.428 . S
C178 C181 1.260 . S
C178 C182 1.477 1_545 S
C178 H196 0.930 . S
C179 C180 1.384 . S
C179 C181 1.479 . S
C179 H197 0.929 . S
C180 C177 1.424 1_545 S
C180 C179 1.384 . S
C180 H198 0.928 . S
C181 C178 1.260 . S
C181 C179 1.479 . S
C182 C177 1.245 . S
C182 C178 1.477 1_565 S
C182 H199 0.932 . S
C183 U166 2.882 . S
C183 C177 1.428 . S
C183 O186 1.301 . S
C183 O187 1.282 . S
O184 U166 2.441 . S
O184 C170 1.249 . S
O185 U166 2.420 . S
O185 C170 1.202 . S
O186 U166 2.455 . S
O186 C183 1.301 . S
O187 U166 2.449 . S
O187 C183 1.282 . S
H188 C161 0.931 . S
H189 C163 0.929 . S
H190 C164 0.930 . S
H191 C165 0.931 . S
H192 C172 0.932 . S
H193 C173 0.930 . S
H194 C174 0.929 . S
H195 C176 0.930 . S
H196 C178 0.930 . S
H197 C179 0.929 . S
H198 C180 0.928 . S
H199 C182 0.932 . S
C200 C201 1.264 . S
C200 C205 1.479 . S
C200 C210 1.465 . S
C201 C200 1.264 . S
C201 C203 1.339 . S
C201 H228 0.931 . S
C202 C203 1.395 . S
C202 C204 1.320 . S
C203 C201 1.339 . S
C203 C202 1.395 . S
C203 H229 0.929 . S
C204 C202 1.320 . S
C204 C205 1.405 . S
C204 H230 0.930 . S
C205 C200 1.479 . S
C205 C204 1.405 . S
C205 H231 0.931 . S
U206 O207 2.454 . S
U206 O208 2.458 . S
U206 C209 2.984 . S
U206 C210 2.847 . S
U206 C223 2.882 . S
U206 O224 2.441 . S
U206 O225 2.420 . S
U206 O226 2.455 . S
U206 O227 2.449 . S
O207 U206 2.454 . S
O207 C209 1.353 . S
O208 U206 2.458 . S
O208 C209 1.286 . S
C209 U206 2.984 . S
C209 O207 1.353 . S
C209 O208 1.286 . S
C209 C211 1.363 . S
C210 C200 1.465 . S
C210 U206 2.847 . S
C210 O224 1.249 . S
C210 O225 1.202 . S
C211 C209 1.363 . S
C211 C213 1.408 . S
C211 C216 1.342 . S
C212 C213 1.310 . S
C212 C215 1.461 . S
C212 H232 0.932 . S
C213 C211 1.408 . S
C213 C212 1.310 . S
C213 H233 0.930 . S
C214 C215 1.474 . S
C214 C216 1.285 . S
C214 H234 0.929 . S
C215 C212 1.461 . S
C215 C214 1.474 . S
C216 C211 1.342 . S
C216 C214 1.285 . S
C216 H235 0.930 . S
C217 C220 1.424 . S
C217 C222 1.245 . S
C217 C223 1.428 . S
C218 C221 1.260 . S
C218 C222 1.477 . S
C218 H236 0.932 . S
C219 C220 1.384 . S
C219 C221 1.479 . S
C219 H237 0.929 . S
C220 C217 1.424 . S
C220 C219 1.384 . S
C220 H238 0.928 . S
C221 C218 1.260 . S
C221 C219 1.479 . S
C222 C217 1.245 . S
C222 C218 1.477 . S
C222 H239 0.932 . S
C223 U206 2.882 . S
C223 C217 1.428 . S
C223 O226 1.301 . S
C223 O227 1.282 . S
O224 U206 2.441 . S
O224 C210 1.249 . S
O225 U206 2.420 . S
O225 C210 1.202 . S
O226 U206 2.455 . S
O226 C223 1.301 . S
O227 U206 2.449 . S
O227 C223 1.282 . S
H228 C201 0.931 . S
H229 C203 0.929 . S
H230 C204 0.930 . S
H231 C205 0.931 . S
H232 C212 0.932 . S
H233 C213 0.930 . S
H234 C214 0.929 . S
H235 C216 0.930 . S
H236 C218 0.932 . S
H237 C219 0.929 . S
H238 C220 0.928 . S
H239 C222 0.932 . S
C240 C241 1.264 . S
C240 C245 1.479 1_545 S
C240 C250 1.465 1_545 S
C241 C240 1.264 . S
C241 C243 1.339 . S
C241 H268 0.931 . S
C242 C243 1.395 . S
C242 C244 1.320 . S
C243 C241 1.339 . S
C243 C242 1.395 . S
C243 H269 0.929 . S
C244 C242 1.320 . S
C244 C245 1.405 1_545 S
C244 H270 0.930 . S
C245 C240 1.479 1_565 S
C245 C244 1.405 1_565 S
C245 H271 0.931 . S
U246 O247 2.454 . S
U246 O248 2.458 . S
U246 C249 2.984 . S
U246 C250 2.847 . S
U246 C263 2.882 . S
U246 O264 2.441 . S
U246 O265 2.420 . S
U246 O266 2.455 . S
U246 O267 2.449 . S
O247 U246 2.454 . S
O247 C249 1.353 . S
O248 U246 2.458 . S
O248 C249 1.286 . S
C249 U246 2.984 . S
C249 O247 1.353 . S
C249 O248 1.286 . S
C249 C251 1.363 . S
C250 C240 1.465 1_565 S
C250 U246 2.847 . S
C250 O264 1.249 . S
C250 O265 1.202 . S
C251 C249 1.363 . S
C251 C253 1.408 . S
C251 C256 1.342 . S
C252 C253 1.310 . S
C252 C255 1.461 . S
C252 H272 0.932 . S
C253 C251 1.408 . S
C253 C252 1.310 . S
C253 H273 0.930 . S
C254 C255 1.474 . S
C254 C256 1.285 . S
C254 H274 0.929 . S
C255 C252 1.461 . S
C255 C254 1.474 . S
C256 C251 1.342 . S
C256 C254 1.285 . S
C256 H275 0.930 . S
C257 C260 1.424 . S
C257 C262 1.245 1_545 S
C257 C263 1.428 1_545 S
C258 C261 1.260 . S
C258 C262 1.476 1_545 S
C258 H276 0.932 . S
C259 C260 1.384 . S
C259 C261 1.479 . S
C259 H277 0.929 . S
C260 C257 1.424 . S
C260 C259 1.384 . S
C260 H278 0.928 . S
C261 C258 1.260 . S
C261 C259 1.479 . S
C262 C257 1.245 1_565 S
C262 C258 1.476 1_565 S
C262 H279 0.933 . S
C263 U246 2.882 . S
C263 C257 1.428 1_565 S
C263 O266 1.301 . S
C263 O267 1.282 . S
O264 U246 2.441 . S
O264 C250 1.249 . S
O265 U246 2.420 . S
O265 C250 1.202 . S
O266 U246 2.455 . S
O266 C263 1.301 . S
O267 U246 2.449 . S
O267 C263 1.282 . S
H268 C241 0.931 . S
H269 C243 0.929 . S
H270 C244 0.930 . S
H271 C245 0.931 . S
H272 C252 0.932 . S
H273 C253 0.930 . S
H274 C254 0.929 . S
H275 C256 0.930 . S
H276 C258 0.932 . S
H277 C259 0.929 . S
H278 C260 0.928 . S
H279 C262 0.933 . S
C280 C281 1.264 . S
C280 C285 1.479 . S
C280 C290 1.465 . S
C281 C280 1.264 . S
C281 C283 1.339 . S
C281 H308 0.931 . S
C282 C283 1.395 . S
C282 C284 1.320 . S
C283 C281 1.339 . S
C283 C282 1.395 . S
C283 H309 0.929 . S
C284 C282 1.320 . S
C284 C285 1.405 . S
C284 H310 0.930 . S
C285 C280 1.479 . S
C285 C284 1.405 . S
C285 H311 0.931 . S
U286 O287 2.454 . S
U286 O288 2.458 . S
U286 C289 2.984 . S
U286 C290 2.847 . S
U286 C303 2.882 . S
U286 O304 2.441 . S
U286 O305 2.420 . S
U286 O306 2.455 . S
U286 O307 2.449 . S
O287 U286 2.454 . S
O287 C289 1.353 . S
O288 U286 2.458 . S
O288 C289 1.286 . S
C289 U286 2.984 . S
C289 O287 1.353 . S
C289 O288 1.286 . S
C289 C291 1.363 . S
C290 C280 1.465 . S
C290 U286 2.847 . S
C290 O304 1.249 . S
C290 O305 1.202 . S
C291 C289 1.363 . S
C291 C293 1.408 . S
C291 C296 1.342 . S
C292 C293 1.310 . S
C292 C295 1.461 . S
C292 H312 0.932 . S
C293 C291 1.408 . S
C293 C292 1.310 . S
C293 H313 0.930 . S
C294 C295 1.474 . S
C294 C296 1.285 . S
C294 H314 0.930 1_556 S
C295 C292 1.461 . S
C295 C294 1.474 . S
C296 C291 1.342 . S
C296 C294 1.285 . S
C296 H315 0.930 . S
C297 C300 1.424 . S
C297 C302 1.245 . S
C297 C303 1.428 . S
C298 C301 1.260 . S
C298 C302 1.477 . S
C298 H316 0.932 . S
C299 C300 1.384 . S
C299 C301 1.479 . S
C299 H317 0.929 . S
C300 C297 1.424 . S
C300 C299 1.384 . S
C300 H318 0.928 . S
C301 C298 1.260 . S
C301 C299 1.479 . S
C302 C297 1.245 . S
C302 C298 1.477 . S
C302 H319 0.932 . S
C303 U286 2.882 . S
C303 C297 1.428 . S
C303 O306 1.301 . S
C303 O307 1.282 . S
O304 U286 2.441 . S
O304 C290 1.249 . S
O305 U286 2.420 . S
O305 C290 1.202 . S
O306 U286 2.455 . S
O306 C303 1.301 . S
O307 U286 2.449 . S
O307 C303 1.282 . S
H308 C281 0.931 . S
H309 C283 0.929 . S
H310 C284 0.930 . S
H311 C285 0.931 . S
H312 C292 0.932 . S
H313 C293 0.930 . S
H314 C294 0.930 1_554 S
H315 C296 0.930 . S
H316 C298 0.932 . S
H317 C299 0.929 . S
H318 C300 0.928 . S
H319 C302 0.932 . S
C320 C321 1.264 . S
C320 C325 1.479 . S
C320 C330 1.465 . S
C321 C320 1.264 . S
C321 C323 1.339 . S
C321 H348 0.931 . S
C322 C323 1.395 . S
C322 C324 1.320 . S
C323 C321 1.339 . S
C323 C322 1.395 . S
C323 H349 0.929 . S
C324 C322 1.320 . S
C324 C325 1.405 . S
C324 H350 0.930 . S
C325 C320 1.479 . S
C325 C324 1.405 . S
C325 H351 0.931 . S
U326 O327 2.454 1_655 S
U326 O328 2.458 1_655 S
U326 C329 2.984 1_655 S
U326 C330 2.847 . S
U326 C343 2.882 . S
U326 O344 2.441 . S
U326 O345 2.420 . S
U326 O346 2.455 . S
U326 O347 2.449 . S
O327 U326 2.454 1_455 S
O327 C329 1.353 . S
O328 U326 2.458 1_455 S
O328 C329 1.286 . S
C329 U326 2.984 1_455 S
C329 O327 1.353 . S
C329 O328 1.286 . S
C329 C331 1.363 . S
C330 C320 1.465 . S
C330 U326 2.847 . S
C330 O344 1.249 . S
C330 O345 1.202 . S
C331 C329 1.363 . S
C331 C333 1.408 . S
C331 C336 1.342 . S
C332 C333 1.310 . S
C332 C335 1.461 . S
C332 H352 0.932 . S
C333 C331 1.408 . S
C333 C332 1.310 . S
C333 H353 0.930 . S
C334 C335 1.474 . S
C334 C336 1.285 . S
C334 H354 0.929 . S
C335 C332 1.461 . S
C335 C334 1.474 . S
C336 C331 1.342 . S
C336 C334 1.285 . S
C336 H355 0.930 . S
C337 C340 1.424 . S
C337 C342 1.245 . S
C337 C343 1.428 . S
C338 C341 1.260 . S
C338 C342 1.477 . S
C338 H356 0.932 . S
C339 C340 1.384 . S
C339 C341 1.479 . S
C339 H357 0.929 . S
C340 C337 1.424 . S
C340 C339 1.384 . S
C340 H358 0.928 . S
C341 C338 1.260 . S
C341 C339 1.479 . S
C342 C337 1.245 . S
C342 C338 1.477 . S
C342 H359 0.932 . S
C343 U326 2.882 . S
C343 C337 1.428 . S
C343 O346 1.301 . S
C343 O347 1.282 . S
O344 U326 2.441 . S
O344 C330 1.249 . S
O345 U326 2.420 . S
O345 C330 1.202 . S
O346 U326 2.455 . S
O346 C343 1.301 . S
O347 U326 2.449 . S
O347 C343 1.282 . S
H348 C321 0.931 . S
H349 C323 0.929 . S
H350 C324 0.930 . S
H351 C325 0.931 . S
H352 C332 0.932 . S
H353 C333 0.930 . S
H354 C334 0.929 . S
H355 C336 0.930 . S
H356 C338 0.932 . S
H357 C339 0.929 . S
H358 C340 0.928 . S
H359 C342 0.932 . S
C360 C361 1.264 . S
C360 C365 1.479 1_565 S
C360 C370 1.465 1_565 S
C361 C360 1.264 . S
C361 C363 1.339 . S
C361 H388 0.931 . S
C362 C363 1.395 . S
C362 C364 1.320 . S
C363 C361 1.339 . S
C363 C362 1.395 . S
C363 H389 0.929 . S
C364 C362 1.320 . S
C364 C365 1.405 1_565 S
C364 H390 0.930 . S
C365 C360 1.479 1_545 S
C365 C364 1.405 1_545 S
C365 H391 0.931 . S
U366 O367 2.454 . S
U366 O368 2.458 . S
U366 C369 2.984 . S
U366 C370 2.847 . S
U366 C383 2.882 . S
U366 O384 2.441 . S
U366 O385 2.420 . S
U366 O386 2.455 . S
U366 O387 2.449 . S
O367 U366 2.454 . S
O367 C369 1.353 . S
O368 U366 2.458 . S
O368 C369 1.286 . S
C369 U366 2.984 . S
C369 O367 1.353 . S
C369 O368 1.286 . S
C369 C371 1.363 . S
C370 C360 1.465 1_545 S
C370 U366 2.847 . S
C370 O384 1.249 . S
C370 O385 1.202 . S
C371 C369 1.363 . S
C371 C373 1.408 . S
C371 C376 1.342 . S
C372 C373 1.310 . S
C372 C375 1.461 . S
C372 H392 0.932 . S
C373 C371 1.408 . S
C373 C372 1.310 . S
C373 H393 0.930 . S
C374 C375 1.474 . S
C374 C376 1.285 . S
C374 H394 0.929 . S
C375 C372 1.461 . S
C375 C374 1.474 . S
C376 C371 1.342 . S
C376 C374 1.285 . S
C376 H395 0.930 . S
C377 C380 1.394 1_545 S
C377 C382 1.244 . S
C377 C383 1.456 . S
C378 C381 1.260 . S
C378 C382 1.477 1_565 S
C378 H396 0.932 . S
C379 C380 1.384 . S
C379 C381 1.479 . S
C379 H397 0.929 . S
C380 C377 1.394 1_565 S
C380 C379 1.384 . S
C380 H398 0.928 . S
C381 C378 1.260 . S
C381 C379 1.479 . S
C382 C377 1.244 . S
C382 C378 1.477 1_545 S
C382 H399 0.932 . S
C383 U366 2.882 . S
C383 C377 1.456 . S
C383 O386 1.301 . S
C383 O387 1.282 . S
O384 U366 2.441 . S
O384 C370 1.249 . S
O385 U366 2.420 . S
O385 C370 1.202 . S
O386 U366 2.455 . S
O386 C383 1.301 . S
O387 U366 2.449 . S
O387 C383 1.282 . S
H388 C361 0.931 . S
H389 C363 0.929 . S
H390 C364 0.930 . S
H391 C365 0.931 . S
H392 C372 0.932 . S
H393 C373 0.930 . S
H394 C374 0.929 . S
H395 C376 0.930 . S
H396 C378 0.932 . S
H397 C379 0.929 . S
H398 C380 0.928 . S
H399 C382 0.932 . S
C400 C401 1.264 . S
C400 C405 1.479 . S
C400 C410 1.465 . S
C401 C400 1.264 . S
C401 C403 1.339 . S
C401 H428 0.931 . S
C402 C403 1.395 . S
C402 C404 1.320 . S
C403 C401 1.339 . S
C403 C402 1.395 . S
C403 H429 0.929 . S
C404 C402 1.320 . S
C404 C405 1.405 . S
C404 H430 0.930 . S
C405 C400 1.479 . S
C405 C404 1.405 . S
C405 H431 0.931 . S
U406 O407 2.454 . S
U406 O408 2.458 . S
U406 C409 2.984 . S
U406 C410 2.847 . S
U406 C423 2.882 . S
U406 O424 2.441 . S
U406 O425 2.420 . S
U406 O426 2.455 . S
U406 O427 2.449 . S
O407 U406 2.454 . S
O407 C409 1.353 . S
O408 U406 2.458 . S
O408 C409 1.286 . S
C409 U406 2.984 . S
C409 O407 1.353 . S
C409 O408 1.286 . S
C409 C411 1.363 . S
C410 C400 1.465 . S
C410 U406 2.847 . S
C410 O424 1.249 . S
C410 O425 1.202 . S
C411 C409 1.363 . S
C411 C413 1.408 . S
C411 C416 1.342 . S
C412 C413 1.310 . S
C412 C415 1.461 . S
C412 H432 0.932 . S
C413 C411 1.408 . S
C413 C412 1.310 . S
C413 H433 0.930 . S
C414 C415 1.474 . S
C414 C416 1.285 . S
C414 H434 0.929 1_556 S
C415 C412 1.461 . S
C415 C414 1.474 . S
C416 C411 1.342 . S
C416 C414 1.285 . S
C416 H435 0.930 . S
C417 C420 1.424 . S
C417 C422 1.245 . S
C417 C423 1.428 . S
C418 C421 1.260 . S
C418 C422 1.477 . S
C418 H436 0.932 . S
C419 C420 1.384 . S
C419 C421 1.479 . S
C419 H437 0.929 . S
C420 C417 1.424 . S
C420 C419 1.384 . S
C420 H438 0.928 . S
C421 C418 1.260 . S
C421 C419 1.479 . S
C422 C417 1.245 . S
C422 C418 1.477 . S
C422 H439 0.932 . S
C423 U406 2.882 . S
C423 C417 1.428 . S
C423 O426 1.301 . S
C423 O427 1.282 . S
O424 U406 2.441 . S
O424 C410 1.249 . S
O425 U406 2.420 . S
O425 C410 1.202 . S
O426 U406 2.455 . S
O426 C423 1.301 . S
O427 U406 2.449 . S
O427 C423 1.282 . S
H428 C401 0.931 . S
H429 C403 0.929 . S
H430 C404 0.930 . S
H431 C405 0.931 . S
H432 C412 0.932 . S
H433 C413 0.930 . S
H434 C414 0.929 1_554 S
H435 C416 0.930 . S
H436 C418 0.932 . S
H437 C419 0.929 . S
H438 C420 0.928 . S
H439 C422 0.932 . S
C440 C441 1.264 . S
C440 C445 1.479 1_455 S
C440 C450 1.465 1_455 S
C441 C440 1.264 . S
C441 C443 1.339 . S
C441 H468 0.931 . S
C442 C443 1.395 . S
C442 C444 1.320 . S
C443 C441 1.339 . S
C443 C442 1.395 . S
C443 H469 0.929 . S
C444 C442 1.320 . S
C444 C445 1.405 1_455 S
C444 H470 0.930 . S
C445 C440 1.479 1_655 S
C445 C444 1.405 1_655 S
C445 H471 0.931 . S
U446 O447 2.454 . S
U446 O448 2.458 . S
U446 C449 2.984 . S
U446 C450 2.847 . S
U446 C463 2.882 . S
U446 O464 2.441 . S
U446 O465 2.420 . S
U446 O466 2.455 . S
U446 O467 2.449 . S
O447 U446 2.454 . S
O447 C449 1.353 . S
O448 U446 2.458 . S
O448 C449 1.286 . S
C449 U446 2.984 . S
C449 O447 1.353 . S
C449 O448 1.286 . S
C449 C451 1.363 . S
C450 C440 1.465 1_655 S
C450 U446 2.847 . S
C450 O464 1.249 . S
C450 O465 1.202 . S
C451 C449 1.363 . S
C451 C453 1.408 . S
C451 C456 1.342 . S
C452 C453 1.310 . S
C452 C455 1.461 . S
C452 H472 0.932 . S
C453 C451 1.408 . S
C453 C452 1.310 . S
C453 H473 0.930 . S
C454 C455 1.474 . S
C454 C456 1.285 . S
C454 H474 0.929 . S
C455 C452 1.461 . S
C455 C454 1.474 . S
C456 C451 1.342 . S
C456 C454 1.285 . S
C456 H475 0.930 . S
C457 C460 1.424 1_655 S
C457 C462 1.245 . S
C457 C463 1.428 . S
C458 C461 1.260 . S
C458 C462 1.477 1_455 S
C458 H476 0.932 . S
C459 C460 1.384 . S
C459 C461 1.479 . S
C459 H477 0.929 . S
C460 C457 1.424 1_455 S
C460 C459 1.384 . S
C460 H478 0.928 . S
C461 C458 1.260 . S
C461 C459 1.479 . S
C462 C457 1.245 . S
C462 C458 1.477 1_655 S
C462 H479 0.932 . S
C463 U446 2.882 . S
C463 C457 1.428 . S
C463 O466 1.301 . S
C463 O467 1.282 . S
O464 U446 2.441 . S
O464 C450 1.249 . S
O465 U446 2.420 . S
O465 C450 1.202 . S
O466 U446 2.455 . S
O466 C463 1.301 . S
O467 U446 2.449 . S
O467 C463 1.282 . S
H468 C441 0.931 . S
H469 C443 0.929 . S
H470 C444 0.930 . S
H471 C445 0.931 . S
H472 C452 0.932 . S
H473 C453 0.930 . S
H474 C454 0.929 . S
H475 C456 0.930 . S
H476 C458 0.932 . S
H477 C459 0.929 . S
H478 C460 0.928 . S
H479 C462 0.932 . S
C480 C481 1.363 . S
C480 C486 1.379 . S
C480 N488 1.356 . S
C481 C480 1.363 . S
C481 C487 1.363 1_455 S
C482 C483 1.363 . S
C482 C487 1.379 . S
C482 N489 1.356 . S
C483 C482 1.363 . S
C483 C486 1.363 1_655 S
N484 C486 1.356 . S
N484 H496 0.984 . S
N484 H497 0.985 1_455 S
N485 C487 1.356 . S
N485 H490 0.984 1_655 S
N485 H491 0.985 . S
C486 C480 1.379 . S
C486 C483 1.363 1_455 S
C486 N484 1.356 . S
C487 C481 1.363 1_655 S
C487 C482 1.379 . S
C487 N485 1.356 . S
N488 C480 1.356 . S
N488 H494 0.984 . S
N488 H495 0.984 . S
N489 C482 1.356 . S
N489 H492 0.984 . S
N489 H493 0.985 . S
H490 N485 0.984 1_455 S
H491 N485 0.985 . S
H492 N489 0.984 . S
H493 N489 0.985 . S
H494 N488 0.984 . S
H495 N488 0.984 . S
H496 N484 0.984 . S
H497 N484 0.985 1_655 S
C498 C499 1.363 . S
C498 C504 1.379 . S
C498 N506 1.356 . S
C499 C498 1.363 . S
C499 C505 1.339 1_565 S
C500 C501 1.363 . S
C500 C505 1.409 . S
C500 N507 1.356 . S
C501 C500 1.363 . S
C501 C504 1.363 1_545 S
N502 C504 1.356 . S
N502 H514 0.984 . S
N502 H515 0.985 1_565 S
N503 C505 1.332 1_565 S
N503 H508 1.004 . S
N503 H509 0.975 1_565 S
C504 C498 1.379 . S
C504 C501 1.363 1_565 S
C504 N502 1.356 . S
C505 C499 1.339 1_545 S
C505 C500 1.409 . S
C505 N503 1.332 1_545 S
N506 C498 1.356 . S
N506 H512 0.984 . S
N506 H513 0.984 . S
N507 C500 1.356 . S
N507 H510 0.984 . S
N507 H511 0.985 . S
H508 N503 1.004 . S
H509 N503 0.975 1_545 S
H510 N507 0.984 . S
H511 N507 0.985 . S
H512 N506 0.984 . S
H513 N506 0.984 . S
H514 N502 0.984 . S
H515 N502 0.985 1_545 S
C516 C517 1.363 . S
C516 C522 1.379 . S
C516 N524 1.356 . S
C517 C516 1.363 . S
C517 C523 1.363 . S
C518 C519 1.363 . S
C518 C523 1.379 . S
C518 N525 1.356 . S
C519 C518 1.363 . S
C519 C522 1.363 . S
N520 C522 1.356 . S
N520 H532 0.984 . S
N520 H533 0.985 . S
N521 C523 1.356 . S
N521 H526 0.984 . S
N521 H527 0.985 . S
C522 C516 1.379 . S
C522 C519 1.363 . S
C522 N520 1.356 . S
C523 C517 1.363 . S
C523 C518 1.379 . S
C523 N521 1.356 . S
N524 C516 1.356 . S
N524 H530 0.984 . S
N524 H531 0.984 . S
N525 C518 1.356 . S
N525 H528 0.984 . S
N525 H529 0.985 . S
H526 N521 0.984 . S
H527 N521 0.985 . S
H528 N525 0.984 . S
H529 N525 0.985 . S
H530 N524 0.984 . S
H531 N524 0.984 . S
H532 N520 0.984 . S
H533 N520 0.985 . S
C534 C535 1.363 1_565 S
C534 C540 1.379 . S
C534 N542 1.356 . S
C535 C534 1.363 1_545 S
C535 C541 1.363 . S
C536 C537 1.363 1_545 S
C536 C541 1.379 . S
C536 N543 1.356 . S
C537 C536 1.363 1_565 S
C537 C540 1.363 . S
N538 C540 1.356 . S
N538 H550 0.984 . S
N538 H551 0.985 . S
N539 C541 1.356 . S
N539 H544 0.984 . S
N539 H545 0.985 . S
C540 C534 1.379 . S
C540 C537 1.363 . S
C540 N538 1.356 . S
C541 C535 1.363 . S
C541 C536 1.379 . S
C541 N539 1.356 . S
N542 C534 1.356 . S
N542 H548 0.984 . S
N542 H549 0.984 1_565 S
N543 C536 1.356 . S
N543 H546 0.984 1_545 S
N543 H547 0.985 . S
H544 N539 0.984 . S
H545 N539 0.985 . S
H546 N543 0.984 1_565 S
H547 N543 0.985 . S
H548 N542 0.984 . S
H549 N542 0.984 1_545 S
H550 N538 0.984 . S
H551 N538 0.985 . S
C552 C553 1.363 . S
C552 C558 1.379 . S
C552 N560 1.356 . S
C553 C552 1.363 . S
C553 C559 1.363 . S
C554 C555 1.363 . S
C554 C559 1.379 . S
C554 N561 1.356 . S
C555 C554 1.363 . S
C555 C558 1.363 . S
N556 C558 1.356 . S
N556 H568 0.984 . S
N556 H569 0.985 . S
N557 C559 1.356 . S
N557 H562 0.984 . S
N557 H563 0.985 . S
C558 C552 1.379 . S
C558 C555 1.363 . S
C558 N556 1.356 . S
C559 C553 1.363 . S
C559 C554 1.379 . S
C559 N557 1.356 . S
N560 C552 1.356 . S
N560 H566 0.984 . S
N560 H567 0.984 . S
N561 C554 1.356 . S
N561 H564 0.984 . S
N561 H565 0.985 . S
H562 N557 0.984 . S
H563 N557 0.985 . S
H564 N561 0.984 . S
H565 N561 0.985 . S
H566 N560 0.984 . S
H567 N560 0.984 . S
H568 N556 0.984 . S
H569 N556 0.985 . S
C570 C571 1.363 . S
C570 C576 1.379 1_655 S
C570 N578 1.356 . S
C571 C570 1.363 . S
C571 C577 1.363 . S
C572 C573 1.363 . S
C572 C577 1.379 1_455 S
C572 N579 1.356 . S
C573 C572 1.363 . S
C573 C576 1.363 . S
N574 C576 1.356 . S
N574 H586 0.984 . S
N574 H587 0.985 . S
N575 C577 1.356 . S
N575 H580 0.984 . S
N575 H581 0.985 . S
C576 C570 1.379 1_455 S
C576 C573 1.363 . S
C576 N574 1.356 . S
C577 C571 1.363 . S
C577 C572 1.379 1_655 S
C577 N575 1.356 . S
N578 C570 1.356 . S
N578 H584 0.984 . S
N578 H585 0.984 . S
N579 C572 1.356 . S
N579 H582 0.984 . S
N579 H583 0.985 . S
H580 N575 0.984 . S
H581 N575 0.985 . S
H582 N579 0.984 . S
H583 N579 0.985 . S
H584 N578 0.984 . S
H585 N578 0.984 . S
H586 N574 0.984 . S
H587 N574 0.985 . S
C588 C589 1.363 . S
C588 C594 1.379 1_455 S
C588 N596 1.356 . S
C589 C588 1.363 . S
C589 C595 1.363 . S
C590 C591 1.363 . S
C590 C595 1.379 1_655 S
C590 N597 1.356 . S
C591 C590 1.363 . S
C591 C594 1.363 . S
N592 C594 1.356 . S
N592 H604 0.984 . S
N592 H605 0.985 . S
N593 C595 1.356 . S
N593 H598 0.984 . S
N593 H599 0.985 . S
C594 C588 1.379 1_655 S
C594 C591 1.363 . S
C594 N592 1.356 . S
C595 C589 1.363 . S
C595 C590 1.379 1_455 S
C595 N593 1.356 . S
N596 C588 1.356 . S
N596 H602 0.984 . S
N596 H603 0.984 . S
N597 C590 1.356 . S
N597 H600 0.984 . S
N597 H601 0.985 . S
H598 N593 0.984 . S
H599 N593 0.985 . S
H600 N597 0.984 . S
H601 N597 0.985 . S
H602 N596 0.984 . S
H603 N596 0.984 . S
H604 N592 0.984 . S
H605 N592 0.985 . S
C606 C607 1.363 1_545 S
C606 C612 1.379 . S
C606 N614 1.356 . S
C607 C606 1.363 1_565 S
C607 C613 1.363 . S
C608 C609 1.363 1_565 S
C608 C613 1.379 . S
C608 N615 1.356 . S
C609 C608 1.363 1_545 S
C609 C612 1.363 . S
N610 C612 1.356 . S
N610 H622 0.984 . S
N610 H623 0.985 . S
N611 C613 1.356 . S
N611 H616 0.984 . S
N611 H617 0.985 . S
C612 C606 1.379 . S
C612 C609 1.363 . S
C612 N610 1.356 . S
C613 C607 1.363 . S
C613 C608 1.379 . S
C613 N611 1.356 . S
N614 C606 1.356 . S
N614 H620 0.984 . S
N614 H621 0.984 . S
N615 C608 1.356 . S
N615 H618 0.984 . S
N615 H619 0.985 . S
H616 N611 0.984 . S
H617 N611 0.985 . S
H618 N615 0.984 . S
H619 N615 0.985 . S
H620 N614 0.984 . S
H621 N614 0.984 . S
H622 N610 0.984 . S
H623 N610 0.985 . S
C624 C625 1.363 . S
C624 C630 1.379 . S
C624 N632 1.356 . S
C625 C624 1.363 . S
C625 C631 1.363 . S
C626 C627 1.363 . S
C626 C631 1.379 . S
C626 N633 1.356 . S
C627 C626 1.363 . S
C627 C630 1.363 . S
N628 C630 1.356 . S
N628 H640 0.984 . S
N628 H641 0.985 . S
N629 C631 1.356 . S
N629 H634 0.984 . S
N629 H635 0.985 . S
C630 C624 1.379 . S
C630 C627 1.363 . S
C630 N628 1.356 . S
C631 C625 1.363 . S
C631 C626 1.379 . S
C631 N629 1.356 . S
N632 C624 1.356 . S
N632 H638 0.984 . S
N632 H639 0.984 . S
N633 C626 1.356 . S
N633 H636 0.984 . S
N633 H637 0.985 . S
H634 N629 0.984 . S
H635 N629 0.985 . S
H636 N633 0.984 . S
H637 N633 0.985 . S
H638 N632 0.984 . S
H639 N632 0.984 . S
H640 N628 0.984 . S
H641 N628 0.985 . S
C642 C643 1.363 . S
C642 C648 1.379 1_655 S
C642 N650 1.356 . S
C643 C642 1.363 . S
C643 C649 1.363 . S
C644 C645 1.363 . S
C644 C649 1.379 1_455 S
C644 N651 1.356 . S
C645 C644 1.363 . S
C645 C648 1.363 . S
N646 C648 1.356 . S
N646 H658 0.984 . S
N646 H659 0.985 . S
N647 C649 1.356 . S
N647 H652 0.984 . S
N647 H653 0.985 . S
C648 C642 1.379 1_455 S
C648 C645 1.363 . S
C648 N646 1.356 . S
C649 C643 1.363 . S
C649 C644 1.379 1_655 S
C649 N647 1.356 . S
N650 C642 1.356 . S
N650 H656 0.984 . S
N650 H657 0.984 . S
N651 C644 1.356 . S
N651 H654 0.984 . S
N651 H655 0.985 . S
H652 N647 0.984 . S
H653 N647 0.985 . S
H654 N651 0.984 . S
H655 N651 0.985 . S
H656 N650 0.984 . S
H657 N650 0.984 . S
H658 N646 0.984 . S
H659 N646 0.985 . S
C660 C661 1.363 1_565 S
C660 C666 1.379 . S
C660 N668 1.356 . S
C661 C660 1.363 1_545 S
C661 C667 1.363 . S
C662 C663 1.363 1_545 S
C662 C667 1.379 . S
C662 N669 1.356 . S
C663 C662 1.363 1_565 S
C663 C666 1.363 . S
N664 C666 1.356 . S
N664 H676 0.984 . S
N664 H677 0.985 . S
N665 C667 1.356 . S
N665 H670 0.984 . S
N665 H671 0.985 . S
C666 C660 1.379 . S
C666 C663 1.363 . S
C666 N664 1.356 . S
C667 C661 1.363 . S
C667 C662 1.379 . S
C667 N665 1.356 . S
N668 C660 1.356 . S
N668 H674 0.984 . S
N668 H675 0.984 . S
N669 C662 1.356 . S
N669 H672 1.002 . S
N669 H673 0.985 . S
H670 N665 0.984 . S
H671 N665 0.985 . S
H672 N669 1.002 . S
H673 N669 0.985 . S
H674 N668 0.984 . S
H675 N668 0.984 . S
H676 N664 0.984 . S
H677 N664 0.985 . S
C678 C679 1.363 . S
C678 C684 1.379 . S
C678 N686 1.356 . S
C679 C678 1.363 . S
C679 C685 1.363 . S
C680 C681 1.363 . S
C680 C685 1.379 . S
C680 N687 1.356 . S
C681 C680 1.363 . S
C681 C684 1.363 . S
N682 C684 1.356 . S
N682 H694 0.984 . S
N682 H695 0.985 . S
N683 C685 1.356 . S
N683 H688 0.984 . S
N683 H689 0.985 . S
C684 C678 1.379 . S
C684 C681 1.363 . S
C684 N682 1.356 . S
C685 C679 1.363 . S
C685 C680 1.379 . S
C685 N683 1.356 . S
N686 C678 1.356 . S
N686 H692 0.984 . S
N686 H693 0.984 . S
N687 C680 1.356 . S
N687 H690 0.984 . S
N687 H691 0.985 . S
H688 N683 0.984 . S
H689 N683 0.985 . S
H690 N687 0.984 . S
H691 N687 0.985 . S
H692 N686 0.984 . S
H693 N686 0.984 . S
H694 N682 0.984 . S
H695 N682 0.985 . S
C696 C697 1.363 . S
C696 C702 1.379 . S
C696 N704 1.356 . S
C697 C696 1.363 . S
C697 C703 1.363 1_556 S
C698 C699 1.363 1_554 S
C698 C703 1.379 . S
C698 N705 1.356 . S
C699 C698 1.363 1_556 S
C699 C702 1.363 . S
N700 C702 1.356 . S
N700 H712 0.984 . S
N700 H713 0.985 . S
N701 C703 1.356 . S
N701 H706 0.984 . S
N701 H707 0.985 . S
C702 C696 1.379 . S
C702 C699 1.363 . S
C702 N700 1.356 . S
C703 C697 1.363 1_554 S
C703 C698 1.379 . S
C703 N701 1.356 . S
N704 C696 1.356 . S
N704 H710 0.984 . S
N704 H711 0.984 . S
N705 C698 1.356 . S
N705 H708 0.984 . S
N705 H709 0.985 . S
H706 N701 0.984 . S
H707 N701 0.985 . S
H708 N705 0.984 . S
H709 N705 0.985 . S
H710 N704 0.984 . S
H711 N704 0.984 . S
H712 N700 0.984 . S
H713 N700 0.985 . S
C714 C715 1.363 . S
C714 C720 1.379 . S
C714 N722 1.356 . S
C715 C714 1.363 . S
C715 C721 1.363 . S
C716 C717 1.363 . S
C716 C721 1.379 . S
C716 N723 1.356 . S
C717 C716 1.363 . S
C717 C720 1.363 . S
N718 C720 1.356 . S
N718 H730 0.984 . S
N718 H731 0.985 . S
N719 C721 1.356 . S
N719 H724 0.984 . S
N719 H725 0.985 . S
C720 C714 1.379 . S
C720 C717 1.363 . S
C720 N718 1.356 . S
C721 C715 1.363 . S
C721 C716 1.379 . S
C721 N719 1.356 . S
N722 C714 1.356 . S
N722 H728 0.984 . S
N722 H729 0.984 . S
N723 C716 1.356 . S
N723 H726 0.984 . S
N723 H727 0.985 . S
H724 N719 0.984 . S
H725 N719 0.985 . S
H726 N723 0.984 . S
H727 N723 0.985 . S
H728 N722 0.984 . S
H729 N722 0.984 . S
H730 N718 0.984 . S
H731 N718 0.985 . S
C732 C733 1.363 . S
C732 C738 1.379 . S
C732 N740 1.356 . S
C733 C732 1.363 . S
C733 C739 1.363 . S
C734 C735 1.363 . S
C734 C739 1.379 . S
C734 N741 1.356 . S
C735 C734 1.363 . S
C735 C738 1.363 . S
N736 C738 1.356 . S
N736 H748 0.984 . S
N736 H749 0.985 . S
N737 C739 1.356 . S
N737 H742 0.984 . S
N737 H743 0.985 . S
C738 C732 1.379 . S
C738 C735 1.363 . S
C738 N736 1.356 . S
C739 C733 1.363 . S
C739 C734 1.379 . S
C739 N737 1.356 . S
N740 C732 1.356 . S
N740 H746 0.984 . S
N740 H747 0.984 . S
N741 C734 1.356 . S
N741 H744 0.984 . S
N741 H745 0.985 . S
H742 N737 0.984 . S
H743 N737 0.985 . S
H744 N741 0.984 . S
H745 N741 0.985 . S
H746 N740 0.984 . S
H747 N740 0.984 . S
H748 N736 0.984 . S
H749 N736 0.985 . S
C750 C751 1.363 . S
C750 C756 1.379 . S
C750 N758 1.356 . S
C751 C750 1.363 . S
C751 C757 1.363 1_554 S
C752 C753 1.363 1_556 S
C752 C757 1.379 . S
C752 N759 1.356 . S
C753 C752 1.363 1_554 S
C753 C756 1.363 . S
N754 C756 1.356 . S
N754 H766 0.984 . S
N754 H767 0.985 . S
N755 C757 1.356 . S
N755 H760 0.984 . S
N755 H761 0.985 . S
C756 C750 1.379 . S
C756 C753 1.363 . S
C756 N754 1.356 . S
C757 C751 1.363 1_556 S
C757 C752 1.379 . S
C757 N755 1.356 . S
N758 C750 1.356 . S
N758 H764 0.984 . S
N758 H765 0.984 . S
N759 C752 1.356 . S
N759 H762 0.984 . S
N759 H763 0.985 . S
H760 N755 0.984 . S
H761 N755 0.985 . S
H762 N759 0.984 . S
H763 N759 0.985 . S
H764 N758 0.984 . S
H765 N758 0.984 . S
H766 N754 0.984 . S
H767 N754 0.985 . S
C768 C769 1.363 . S
C768 C774 1.379 . S
C768 N776 1.356 . S
C769 C768 1.363 . S
C769 C775 1.363 . S
C770 C771 1.363 . S
C770 C775 1.379 . S
C770 N777 1.356 . S
C771 C770 1.363 . S
C771 C774 1.363 . S
N772 C774 1.356 . S
N772 H784 0.984 . S
N772 H785 0.985 . S
N773 C775 1.356 . S
N773 H778 0.984 . S
N773 H779 0.985 . S
C774 C768 1.379 . S
C774 C771 1.363 . S
C774 N772 1.356 . S
C775 C769 1.363 . S
C775 C770 1.379 . S
C775 N773 1.356 . S
N776 C768 1.356 . S
N776 H782 0.984 . S
N776 H783 0.984 . S
N777 C770 1.356 . S
N777 H780 0.984 . S
N777 H781 0.985 . S
H778 N773 0.984 . S
H779 N773 0.985 . S
H780 N777 0.984 . S
H781 N777 0.985 . S
H782 N776 0.984 . S
H783 N776 0.984 . S
H784 N772 0.984 . S
H785 N772 0.985 . S
C786 C787 1.363 . S
C786 C792 1.379 . S
C786 N794 1.356 . S
C787 C786 1.363 . S
C787 C793 1.363 . S
C788 C789 1.363 . S
C788 C793 1.379 . S
C788 N795 1.356 . S
C789 C788 1.363 . S
C789 C792 1.363 . S
N790 C792 1.356 . S
N790 H802 0.984 . S
N790 H803 0.985 . S
N791 C793 1.356 . S
N791 H796 0.984 . S
N791 H797 0.985 . S
C792 C786 1.379 . S
C792 C789 1.363 . S
C792 N790 1.356 . S
C793 C787 1.363 . S
C793 C788 1.379 . S
C793 N791 1.356 . S
N794 C786 1.356 . S
N794 H800 0.984 . S
N794 H801 0.984 . S
N795 C788 1.356 . S
N795 H798 0.984 . S
N795 H799 0.985 . S
H796 N791 0.984 . S
H797 N791 0.985 . S
H798 N795 0.984 . S
H799 N795 0.985 . S
H800 N794 0.984 . S
H801 N794 0.984 . S
H802 N790 0.984 . S
H803 N790 0.985 . S
C481 C141 2.315 . S
C483 C21 2.312 . S
C499 C61 2.303 . S
C501 C181 2.301 . S
C517 C202 2.471 . S
C519 C101 2.280 . S
C535 C261 2.302 . S
C537 C381 2.301 . S
C553 C421 2.314 . S
C555 C301 2.311 . S
C571 C322 2.471 . S
C573 C461 2.280 . S
C589 C442 2.257 . S
C591 C2 2.255 . S
C607 C42 2.274 . S
C609 C242 2.274 . S
C625 C82 2.257 . S
C627 C282 2.255 . S
C643 C341 2.494 . S
C645 C122 2.283 . S
C661 C162 2.288 . S
C663 C362 2.288 . S
C679 C402 2.282 . S
C681 C221 2.494 . S
C697 C415 2.212 . S
C699 C15 2.210 1_556 S
C715 C455 2.200 . S
C717 C55 2.198 . S
C733 C95 2.199 . S
C735 C255 2.197 . S
C751 C135 2.212 . S
C753 C295 2.211 1_554 S
C769 C175 2.220 . S
C771 C335 2.237 . S
C787 C215 2.237 . S
C789 C375 2.220 . S
