# Generated by pormake.
# Topology yff, (5)-cn, num edge types: 1
# Building blocks:
#     Node 0, Type 0, BuildingBlock: XOMCOT_clean_sbu_1, # of connection points: 5
#     Node 1, Type 0, BuildingBlock: XOMCOT_clean_sbu_1, # of connection points: 5
#     Node 2, Type 0, BuildingBlock: XOMCOT_clean_sbu_1, # of connection points: 5
#     Node 3, Type 0, BuildingBlock: XOMCOT_clean_sbu_1, # of connection points: 5
#     Node 4, Type 0, BuildingBlock: XOMCOT_clean_sbu_1, # of connection points: 5
#     Node 5, Type 0, BuildingBlock: XOMCOT_clean_sbu_1, # of connection points: 5
#     Node 6, Type 0, BuildingBlock: XOMCOT_clean_sbu_1, # of connection points: 5
#     Node 7, Type 0, BuildingBlock: XOMCOT_clean_sbu_1, # of connection points: 5
#     Node 8, Type 0, BuildingBlock: XOMCOT_clean_sbu_1, # of connection points: 5
#     Node 9, Type 0, BuildingBlock: XOMCOT_clean_sbu_1, # of connection points: 5
#     Node 10, Type 0, BuildingBlock: XOMCOT_clean_sbu_1, # of connection points: 5
#     Node 11, Type 0, BuildingBlock: XOMCOT_clean_sbu_1, # of connection points: 5
#     Node 12, Type 0, BuildingBlock: XOMCOT_clean_sbu_1, # of connection points: 5
#     Node 13, Type 0, BuildingBlock: XOMCOT_clean_sbu_1, # of connection points: 5
#     Node 14, Type 0, BuildingBlock: XOMCOT_clean_sbu_1, # of connection points: 5
#     Node 15, Type 0, BuildingBlock: XOMCOT_clean_sbu_1, # of connection points: 5
#     Edge 16, Type (0, 0), BuildingBlock: XUDNAN_clean_linker_2, # of connection points: 2
#     Edge 17, Type (0, 0), BuildingBlock: XUDNAN_clean_linker_2, # of connection points: 2
#     Edge 18, Type (0, 0), BuildingBlock: XUDNAN_clean_linker_2, # of connection points: 2
#     Edge 19, Type (0, 0), BuildingBlock: XUDNAN_clean_linker_2, # of connection points: 2
#     Edge 20, Type (0, 0), BuildingBlock: XUDNAN_clean_linker_2, # of connection points: 2
#     Edge 21, Type (0, 0), BuildingBlock: XUDNAN_clean_linker_2, # of connection points: 2
#     Edge 22, Type (0, 0), BuildingBlock: XUDNAN_clean_linker_2, # of connection points: 2
#     Edge 23, Type (0, 0), BuildingBlock: XUDNAN_clean_linker_2, # of connection points: 2
#     Edge 24, Type (0, 0), BuildingBlock: XUDNAN_clean_linker_2, # of connection points: 2
#     Edge 25, Type (0, 0), BuildingBlock: XUDNAN_clean_linker_2, # of connection points: 2
#     Edge 26, Type (0, 0), BuildingBlock: XUDNAN_clean_linker_2, # of connection points: 2
#     Edge 27, Type (0, 0), BuildingBlock: XUDNAN_clean_linker_2, # of connection points: 2
#     Edge 28, Type (0, 0), BuildingBlock: XUDNAN_clean_linker_2, # of connection points: 2
#     Edge 29, Type (0, 0), BuildingBlock: XUDNAN_clean_linker_2, # of connection points: 2
#     Edge 30, Type (0, 0), BuildingBlock: XUDNAN_clean_linker_2, # of connection points: 2
#     Edge 31, Type (0, 0), BuildingBlock: XUDNAN_clean_linker_2, # of connection points: 2
#     Edge 32, Type (0, 0), BuildingBlock: XUDNAN_clean_linker_2, # of connection points: 2
#     Edge 33, Type (0, 0), BuildingBlock: XUDNAN_clean_linker_2, # of connection points: 2
#     Edge 34, Type (0, 0), BuildingBlock: XUDNAN_clean_linker_2, # of connection points: 2
#     Edge 35, Type (0, 0), BuildingBlock: XUDNAN_clean_linker_2, # of connection points: 2
#     Edge 36, Type (0, 0), BuildingBlock: XUDNAN_clean_linker_2, # of connection points: 2
#     Edge 37, Type (0, 0), BuildingBlock: XUDNAN_clean_linker_2, # of connection points: 2
#     Edge 38, Type (0, 0), BuildingBlock: XUDNAN_clean_linker_2, # of connection points: 2
#     Edge 39, Type (0, 0), BuildingBlock: XUDNAN_clean_linker_2, # of connection points: 2
#     Edge 40, Type (0, 0), BuildingBlock: XUDNAN_clean_linker_2, # of connection points: 2
#     Edge 41, Type (0, 0), BuildingBlock: XUDNAN_clean_linker_2, # of connection points: 2
#     Edge 42, Type (0, 0), BuildingBlock: XUDNAN_clean_linker_2, # of connection points: 2
#     Edge 43, Type (0, 0), BuildingBlock: XUDNAN_clean_linker_2, # of connection points: 2
#     Edge 44, Type (0, 0), BuildingBlock: XUDNAN_clean_linker_2, # of connection points: 2
#     Edge 45, Type (0, 0), BuildingBlock: XUDNAN_clean_linker_2, # of connection points: 2
#     Edge 46, Type (0, 0), BuildingBlock: XUDNAN_clean_linker_2, # of connection points: 2
#     Edge 47, Type (0, 0), BuildingBlock: XUDNAN_clean_linker_2, # of connection points: 2
#     Edge 48, Type (0, 0), BuildingBlock: XUDNAN_clean_linker_2, # of connection points: 2
#     Edge 49, Type (0, 0), BuildingBlock: XUDNAN_clean_linker_2, # of connection points: 2
#     Edge 50, Type (0, 0), BuildingBlock: XUDNAN_clean_linker_2, # of connection points: 2
#     Edge 51, Type (0, 0), BuildingBlock: XUDNAN_clean_linker_2, # of connection points: 2
#     Edge 52, Type (0, 0), BuildingBlock: XUDNAN_clean_linker_2, # of connection points: 2
#     Edge 53, Type (0, 0), BuildingBlock: XUDNAN_clean_linker_2, # of connection points: 2
#     Edge 54, Type (0, 0), BuildingBlock: XUDNAN_clean_linker_2, # of connection points: 2
#     Edge 55, Type (0, 0), BuildingBlock: XUDNAN_clean_linker_2, # of connection points: 2
# Relax obj value: 0.476
# Max RMSD: 0.310
# Mean RMSD: 0.310
data_MOF--net-yff--node1-XOMCOT_clean_sbu_1--edge1-XUDNAN_clean_linker_2
_symmetry_space_group_name_H-M    P1
_symmetry_Int_Tables_number       1
_symmetry_cell_setting            triclinic
loop_
_symmetry_equiv_pos_as_xyz
'x, y, z'
_cell_length_a     59.668598
_cell_length_b     59.976008
_cell_length_c     29.618429
_cell_angle_alpha  89.970083
_cell_angle_beta   89.956643
_cell_angle_gamma 89.9197
loop_
_atom_site_label
_atom_site_type_symbol
_atom_site_fract_x
_atom_site_fract_y
_atom_site_fract_z
_atom_type_partial_charge
C0 C 0.12294 0.02733 0.40507 0.0
C1 C 0.12525 0.00827 0.37965 0.0
N2 N 0.10611 0.00505 0.35637 0.0
N3 N 0.10255 0.03623 0.39737 0.0
C4 C 0.09269 0.02232 0.36771 0.0
H5 H 0.13497 0.03385 0.42897 0.0
Co6 Co 0.08943 0.0597 0.42853 0.0
C7 C 0.07254 0.08594 0.34958 0.0
O8 O 0.08249 0.10426 0.36333 0.0
N9 N 0.07594 0.0822 0.46281 0.0
C10 C 0.05259 0.10581 0.49714 0.0
C11 C 0.06015 0.09804 0.45589 0.0
C12 C 0.07731 0.0805 0.50812 0.0
N13 N 0.06332 0.09445 0.52978 0.0
O14 O 0.06535 0.04067 0.44472 0.0
H15 H 0.05277 0.10224 0.42378 0.0
H16 H 0.08749 0.06813 0.52503 0.0
O17 O 0.07352 0.06827 0.37363 0.0
C18 C 0.06955 0.02742 0.47717 0.0
O19 O 0.08969 0.02745 0.4951 0.0
N20 N 0.11416 0.07794 0.41426 0.0
C21 C 0.15704 0.0949 0.40053 0.0
C22 C 0.14446 0.08696 0.36407 0.0
C23 C 0.12314 0.07827 0.37174 0.0
C24 C 0.12572 0.08689 0.44955 0.0
C25 C 0.14707 0.09573 0.44332 0.0
H26 H 0.11469 0.07011 0.34406 0.0
H27 H 0.11934 0.08563 0.48348 0.0
H28 H 0.07567 0.02447 0.35595 0.0
H29 H 0.13949 -0.00292 0.38012 0.0
H30 H 0.03883 0.11728 0.50262 0.0
H31 H 0.15178 0.08547 0.33073 0.0
H32 H 0.1564 0.10154 0.47238 0.0
C33 C 0.47094 0.12583 0.83171 0.0
C34 C 0.48841 0.12426 0.80155 0.0
N35 N 0.48985 0.10296 0.78717 0.0
N36 N 0.46167 0.10552 0.83709 0.0
C37 C 0.47295 0.0922 0.80829 0.0
H38 H 0.46596 0.14065 0.84994 0.0
Co39 Co 0.43906 0.09724 0.8771 0.0
C40 C 0.41324 0.09625 0.80612 0.0
O41 O 0.41106 0.11628 0.82358 0.0
N42 N 0.4165 0.08864 0.91782 0.0
C43 C 0.38478 0.07943 0.95258 0.0
C44 C 0.39413 0.0867 0.91252 0.0
C45 C 0.42026 0.08262 0.96123 0.0
N46 N 0.40131 0.07701 0.98319 0.0
O47 O 0.45463 0.07022 0.89476 0.0
H48 H 0.38513 0.09025 0.8817 0.0
H49 H 0.43676 0.08195 0.9763 0.0
O50 O 0.42466 0.08188 0.82809 0.0
C51 C 0.47257 0.05866 0.89677 0.0
O52 O 0.49148 0.06646 0.88046 0.0
N53 N 0.45226 0.11443 0.92238 0.0
C54 C 0.47052 0.15098 0.96682 0.0
C55 C 0.44786 0.15077 0.95436 0.0
C56 C 0.43916 0.13241 0.93186 0.0
C57 C 0.47381 0.11334 0.93764 0.0
C58 C 0.48332 0.13158 0.96001 0.0
H59 H 0.42233 0.13329 0.91842 0.0
H60 H 0.48436 0.09939 0.9293 0.0
H61 H 0.46916 0.07471 0.8041 0.0
H62 H 0.49981 0.1376 0.7929 0.0
H63 H 0.36717 0.07638 0.9588 0.0
H64 H 0.43739 0.16543 0.95795 0.0
H65 H 0.50088 0.13108 0.96919 0.0
C66 C 0.3659 0.48109 0.40366 0.0
C67 C 0.3676 0.49813 0.3728 0.0
N68 N 0.38948 0.50158 0.3637 0.0
N69 N 0.3866 0.47394 0.41465 0.0
C70 C 0.40054 0.48614 0.38846 0.0
H71 H 0.35053 0.47472 0.41808 0.0
Co72 Co 0.39327 0.4522 0.45796 0.0
C73 C 0.39657 0.4243 0.38996 0.0
O74 O 0.37559 0.42323 0.40333 0.0
N75 N 0.4001 0.43042 0.50196 0.0
C76 C 0.4045 0.39918 0.5416 0.0
C77 C 0.39903 0.40799 0.49991 0.0
C78 C 0.40622 0.43478 0.5451 0.0
N79 N 0.40901 0.41611 0.57018 0.0
O80 O 0.42038 0.46758 0.47689 0.0
H81 H 0.3943 0.39855 0.47037 0.0
H82 H 0.40792 0.45154 0.5581 0.0
O83 O 0.4101 0.4364 0.41254 0.0
C84 C 0.43138 0.48575 0.48007 0.0
O85 O 0.42269 0.50463 0.46584 0.0
N86 N 0.37439 0.46651 0.4997 0.0
C87 C 0.33631 0.48447 0.54136 0.0
C88 C 0.3366 0.46236 0.52589 0.0
C89 C 0.3557 0.45381 0.50523 0.0
C90 C 0.37511 0.48769 0.51651 0.0
C91 C 0.35617 0.49699 0.5376 0.0
H92 H 0.35509 0.43732 0.49054 0.0
H93 H 0.38965 0.49794 0.5117 0.0
H94 H 0.41857 0.48435 0.38899 0.0
H95 H 0.35373 0.50753 0.35894 0.0
H96 H 0.40509 0.38163 0.54997 0.0
H97 H 0.32171 0.45208 0.52666 0.0
H98 H 0.35681 0.51409 0.54922 0.0
C99 C 0.02304 0.39481 0.92373 0.0
C100 C 0.00653 0.40519 0.89915 0.0
N101 N 0.01602 0.42147 0.87423 0.0
N102 N 0.04293 0.40432 0.91414 0.0
C103 C 0.03817 0.42034 0.88365 0.0
H104 H 0.02047 0.38223 0.94938 0.0
Co105 Co 0.06896 0.40058 0.94791 0.0
C106 C 0.0965 0.41776 0.87072 0.0
O107 O 0.09646 0.43826 0.88629 0.0
N108 N 0.09404 0.39712 0.98371 0.0
C109 C 0.12533 0.38641 0.01788 0.0
C110 C 0.11423 0.38759 0.97696 0.0
C111 C 0.09327 0.4017 0.02821 0.0
N112 N 0.112 0.39533 0.05002 0.0
O113 O 0.07042 0.43174 0.95594 0.0
H114 H 0.12002 0.38099 0.94502 0.0
H115 H 0.07853 0.40824 0.04484 0.0
O116 O 0.08705 0.40219 0.89313 0.0
C117 C 0.05534 0.43933 0.98194 0.0
O118 O 0.04262 0.42519 1.00413 0.0
N119 N 0.06636 0.36991 0.94168 0.0
C120 C 0.04895 0.32725 0.93572 0.0
C121 C 0.05576 0.33855 0.89672 0.0
C122 C 0.06447 0.35997 0.90038 0.0
C123 C 0.0612 0.35858 0.98018 0.0
C124 C 0.05264 0.33701 0.97799 0.0
H125 H 0.06759 0.36921 0.86974 0.0
H126 H 0.06198 0.36693 0.01246 0.0
H127 H 0.05057 0.43186 0.87103 0.0
H128 H 0.98876 0.40196 0.90207 0.0
H129 H 0.14165 0.37905 0.02367 0.0
H130 H 0.05313 0.33141 0.86355 0.0
H131 H 0.04731 0.3288 0.00875 0.0
C132 C 0.63116 0.99514 0.60408 0.0
C133 C 0.62653 0.01356 0.63018 0.0
N134 N 0.6056 0.01145 0.64676 0.0
N135 N 0.61328 0.98143 0.60445 0.0
C136 C 0.59812 0.9917 0.63115 0.0
H137 H 0.64596 0.99269 0.58355 0.0
Co138 Co 0.60804 0.95792 0.56508 0.0
C139 C 0.57868 0.93694 0.63618 0.0
O140 O 0.56019 0.94677 0.62273 0.0
N141 N 0.60258 0.93535 0.524 0.0
C142 C 0.59433 0.9047 0.48538 0.0
C143 C 0.59986 0.9131 0.52746 0.0
C144 C 0.59891 0.94002 0.48016 0.0
N145 N 0.59354 0.92183 0.45586 0.0
O146 O 0.57887 0.96902 0.55443 0.0
H147 H 0.60128 0.9037 0.55851 0.0
H148 H 0.60009 0.95665 0.46634 0.0
O149 O 0.59695 0.93984 0.61465 0.0
C150 C 0.5733 0.98463 0.52774 0.0
O151 O 0.5885 0.99457 0.5028 0.0
N152 N 0.63701 0.94695 0.5755 0.0
C153 C 0.68057 0.93192 0.59116 0.0
C154 C 0.66514 0.93383 0.62665 0.0
C155 C 0.6437 0.94177 0.61832 0.0
C156 C 0.65161 0.94511 0.54026 0.0
C157 C 0.67355 0.93755 0.54733 0.0
H158 H 0.6327 0.94424 0.64684 0.0
H159 H 0.64632 0.94982 0.50666 0.0
H160 H 0.58108 0.98595 0.63527 0.0
H161 H 0.63721 0.02799 0.63427 0.0
H162 H 0.59046 0.88751 0.47754 0.0
H163 H 0.6696 0.92945 0.66097 0.0
H164 H 0.685 0.9367 0.51901 0.0
C165 C 0.4956 0.64103 0.16808 0.0
C166 C 0.47982 0.63555 0.20015 0.0
N167 N 0.47931 0.61318 0.2044 0.0
N168 N 0.50486 0.62219 0.1514 0.0
C169 C 0.49501 0.60563 0.17537 0.0
H170 H 0.4997 0.65778 0.1578 0.0
Co171 Co 0.52664 0.61752 0.1059 0.0
C172 C 0.55392 0.60898 0.17579 0.0
O173 O 0.55651 0.63054 0.16989 0.0
N174 N 0.54821 0.6124 0.06082 0.0
C175 C 0.57826 0.61588 0.01694 0.0
C176 C 0.56919 0.62057 0.05882 0.0
C177 C 0.54501 0.60268 0.02004 0.0
N178 N 0.5629 0.60472 0.99229 0.0
O179 O 0.50976 0.59236 0.08411 0.0
H180 H 0.57704 0.63018 0.0853 0.0
H181 H 0.5293 0.59533 0.00989 0.0
O182 O 0.54212 0.59828 0.14721 0.0
C183 C 0.48909 0.58804 0.07753 0.0
O184 O 0.4737 0.60334 0.08464 0.0
N185 N 0.51272 0.63802 0.067 0.0
C186 C 0.50023 0.67415 0.01361 0.0
C187 C 0.51277 0.67733 0.0529 0.0
C188 C 0.51931 0.65898 0.07837 0.0
C189 C 0.50103 0.63447 0.02789 0.0
C190 C 0.49454 0.65246 1.00063 0.0
H191 H 0.53005 0.66139 0.10736 0.0
H192 H 0.4974 0.61787 0.0162 0.0
H193 H 0.49868 0.58815 0.17014 0.0
H194 H 0.46941 0.6472 0.21856 0.0
H195 H 0.59471 0.62087 1.00539 0.0
H196 H 0.51816 0.69385 0.06297 0.0
H197 H 0.48551 0.64945 0.96952 0.0
C198 C 0.88527 0.52415 0.65886 0.0
C199 C 0.89449 0.51222 0.69421 0.0
N200 N 0.91692 0.51439 0.69219 0.0
N201 N 0.9019 0.53355 0.63441 0.0
C202 C 0.92082 0.52744 0.6561 0.0
H203 H 0.86759 0.52558 0.65174 0.0
Co204 Co 0.90271 0.55101 0.58161 0.0
C205 C 0.91439 0.58548 0.63377 0.0
O206 O 0.89281 0.58848 0.62758 0.0
N207 N 0.90403 0.56813 0.52868 0.0
C208 C 0.89827 0.59363 0.47531 0.0
C209 C 0.8962 0.58887 0.52074 0.0
C210 C 0.91066 0.56067 0.48769 0.0
N211 N 0.90736 0.57578 0.45458 0.0
O212 O 0.92715 0.53225 0.55824 0.0
H213 H 0.88865 0.5996 0.54575 0.0
H214 H 0.91664 0.54393 0.48163 0.0
O215 O 0.92417 0.57002 0.61152 0.0
C216 C 0.93127 0.51133 0.559 0.0
O217 O 0.91656 0.49757 0.57671 0.0
N218 N 0.87952 0.53446 0.55564 0.0
C219 C 0.83772 0.5185 0.52889 0.0
C220 C 0.8395 0.53614 0.5595 0.0
C221 C 0.86045 0.54402 0.57173 0.0
C222 C 0.87842 0.51807 0.52364 0.0
C223 C 0.85744 0.50969 0.50986 0.0
H224 H 0.86163 0.55779 0.59518 0.0
H225 H 0.89346 0.51164 0.50811 0.0
H226 H 0.93739 0.53202 0.64459 0.0
H227 H 0.88539 0.50283 0.71949 0.0
H228 H 0.89309 0.6089 0.45884 0.0
H229 H 0.82472 0.54394 0.57379 0.0
H230 H 0.85664 0.49646 0.48505 0.0
C231 C 0.02545 0.859 0.13605 0.0
C232 C 0.04293 0.86587 0.16307 0.0
N233 N 0.03838 0.88668 0.1777 0.0
N234 N 0.01003 0.8754 0.13394 0.0
C235 C 0.01843 0.89204 0.15934 0.0
H236 H 0.0242 0.84326 0.1184 0.0
Co237 Co 0.98432 0.87629 0.09914 0.0
C238 C 0.95083 0.89212 0.16569 0.0
O239 O 0.93589 0.87823 0.14923 0.0
N240 N 0.95937 0.87791 0.06101 0.0
C241 C 0.9338 0.89312 0.01551 0.0
C242 C 0.94331 0.89378 0.05784 0.0
C243 C 0.95978 0.86851 0.01959 0.0
N244 N 0.94428 0.87718 0.99153 0.0
O245 O 0.99436 0.90242 0.07145 0.0
H246 H 0.94036 0.9068 0.08232 0.0
H247 H 0.97299 0.85741 0.00851 0.0
O248 O 0.96978 0.89413 0.14595 0.0
C249 C 0.00713 0.90311 0.0372 0.0
O250 O 0.01685 0.88485 0.02246 0.0
N251 N 0.97409 0.8498 0.1272 0.0
C252 C 0.9549 0.81271 0.16861 0.0
C253 C 0.9641 0.82984 0.19469 0.0
C254 C 0.97408 0.84797 0.17331 0.0
C255 C 0.96695 0.83237 0.10152 0.0
C256 C 0.95707 0.8138 0.12148 0.0
H257 H 0.98119 0.86096 0.1941 0.0
H258 H 0.96887 0.8326 0.06545 0.0
H259 H 0.01055 0.90822 0.16251 0.0
H260 H 0.05788 0.85641 0.17092 0.0
H261 H 0.92131 0.90453 1.00245 0.0
H262 H 0.96334 0.82942 0.23122 0.0
H263 H 0.95146 0.80028 0.10008 0.0
C264 C 0.87487 0.93894 0.61275 0.0
C265 C 0.87024 0.95639 0.64109 0.0
N266 N 0.88657 0.9576 0.67248 0.0
N267 N 0.89389 0.92888 0.62628 0.0
C268 C 0.90072 0.94061 0.66262 0.0
H269 H 0.86567 0.93479 0.58252 0.0
Co270 Co 0.9089 0.90727 0.59355 0.0
C271 C 0.92497 0.87497 0.6635 0.0
O272 O 0.92105 0.85781 0.6371 0.0
N273 N 0.9244 0.88672 0.55796 0.0
C274 C 0.95539 0.87484 0.52346 0.0
C275 C 0.94561 0.87937 0.56451 0.0
C276 C 0.92186 0.88651 0.51265 0.0
N277 N 0.94043 0.87955 0.49094 0.0
O278 O 0.93435 0.92589 0.59095 0.0
H279 H 0.95474 0.88069 0.59587 0.0
H280 H 0.90846 0.89513 0.49548 0.0
O281 O 0.9207 0.89469 0.64955 0.0
C282 C 0.93758 0.93868 0.5574 0.0
O283 O 0.92259 0.93947 0.52498 0.0
N284 N 0.8828 0.88942 0.59544 0.0
C285 C 0.83687 0.88183 0.60286 0.0
C286 C 0.85126 0.87682 0.63878 0.0
C287 C 0.87399 0.88155 0.63502 0.0
C288 C 0.86947 0.89115 0.55816 0.0
C289 C 0.84638 0.88753 0.56113 0.0
H290 H 0.88336 0.88161 0.66594 0.0
H291 H 0.87585 0.89877 0.52787 0.0
H292 H 0.91636 0.93741 0.6798 0.0
H293 H 0.85669 0.96817 0.63662 0.0
H294 H 0.97293 0.8711 0.51777 0.0
H295 H 0.84467 0.872 0.67145 0.0
H296 H 0.83595 0.89188 0.53255 0.0
C297 C 0.50357 0.85269 0.10531 0.0
C298 C 0.48699 0.85353 0.13769 0.0
N299 N 0.48661 0.87424 0.15527 0.0
N300 N 0.5134 0.87289 0.10204 0.0
C301 C 0.50322 0.88534 0.13405 0.0
H302 H 0.50758 0.83841 0.08456 0.0
Co303 Co 0.53571 0.88282 0.06204 0.0
C304 C 0.55839 0.89062 0.13906 0.0
O305 O 0.56235 0.86932 0.13219 0.0
N306 N 0.55806 0.89245 0.02285 0.0
C307 C 0.59123 0.89682 0.99017 0.0
C308 C 0.58035 0.89175 0.02989 0.0
C309 C 0.55575 0.89822 0.97896 0.0
N310 N 0.5757 0.90075 0.95809 0.0
O311 O 0.517 0.90772 0.04127 0.0
H312 H 0.58822 0.88672 0.06115 0.0
H313 H 0.53974 0.89892 0.96182 0.0
O314 O 0.54739 0.90136 0.10921 0.0
C315 C 0.4962 0.91293 0.0417 0.0
O316 O 0.48123 0.89879 0.05704 0.0
N317 N 0.52558 0.86311 0.01733 0.0
C318 C 0.5136 0.82595 0.96694 0.0
C319 C 0.53406 0.82651 0.98987 0.0
C320 C 0.53963 0.84522 0.0152 0.0
C321 C 0.50643 0.86363 0.99203 0.0
C322 C 0.49989 0.8449 0.96719 0.0
H323 H 0.55472 0.84507 0.03542 0.0
H324 H 0.49559 0.87789 0.99191 0.0
H325 H 0.50716 0.90269 0.13991 0.0
H326 H 0.4754 0.84027 0.14587 0.0
H327 H 0.60919 0.89679 0.98494 0.0
H328 H 0.54486 0.81198 0.9909 0.0
H329 H 0.48391 0.84487 0.94985 0.0
C330 C 0.63591 0.51984 0.67237 0.0
C331 C 0.62913 0.5041 0.70365 0.0
N332 N 0.60662 0.50471 0.70613 0.0
N333 N 0.61764 0.53014 0.65512 0.0
C334 C 0.60029 0.521 0.67769 0.0
H335 H 0.65297 0.52256 0.66161 0.0
Co336 Co 0.61296 0.55023 0.60706 0.0
C337 C 0.59884 0.57747 0.67379 0.0
O338 O 0.6202 0.58259 0.67077 0.0
N339 N 0.6076 0.56984 0.55912 0.0
C340 C 0.60376 0.59949 0.51466 0.0
C341 C 0.60977 0.59218 0.55728 0.0
C342 C 0.60045 0.56399 0.51745 0.0
N343 N 0.59779 0.58165 0.48971 0.0
O344 O 0.58991 0.53059 0.5826 0.0
H345 H 0.61525 0.60249 0.58508 0.0
H346 H 0.59754 0.54695 0.50729 0.0
O347 O 0.59052 0.56473 0.64362 0.0
C348 C 0.58669 0.50961 0.57957 0.0
O349 O 0.60209 0.49558 0.59382 0.0
N350 N 0.63659 0.53753 0.57399 0.0
C351 C 0.67785 0.52353 0.53984 0.0
C352 C 0.67659 0.54058 0.57199 0.0
C353 C 0.65582 0.54753 0.58797 0.0
C354 C 0.63716 0.52196 0.54027 0.0
C355 C 0.65782 0.51461 0.52277 0.0
H356 H 0.65498 0.56048 0.61333 0.0
H357 H 0.62192 0.51513 0.52659 0.0
H358 H 0.58297 0.52526 0.67109 0.0
H359 H 0.63978 0.49218 0.72082 0.0
H360 H 0.60349 0.61664 0.50331 0.0
H361 H 0.69162 0.54837 0.58507 0.0
H362 H 0.65815 0.50179 0.49705 0.0
C363 C 0.99385 0.61812 0.118 0.0
C364 C 0.01069 0.6094 0.1446 0.0
N365 N 0.00615 0.5877 0.15253 0.0
N366 N 0.97868 0.60205 0.10963 0.0
C367 C 0.9866 0.58381 0.131 0.0
H368 H 0.99312 0.63481 0.10421 0.0
Co369 Co 0.95465 0.6029 0.06978 0.0
C370 C 0.91919 0.58264 0.12683 0.0
O371 O 0.90461 0.59734 0.11187 0.0
N372 N 0.93173 0.60322 0.02656 0.0
C373 C 0.91019 0.5884 0.97305 0.0
C374 C 0.91653 0.58711 0.0176 0.0
C375 C 0.93451 0.61378 0.9865 0.0
N376 N 0.92159 0.60514 0.95354 0.0
O377 O 0.96769 0.57925 0.03772 0.0
H378 H 0.91268 0.57322 0.03943 0.0
H379 H 0.94805 0.62536 0.98008 0.0
O380 O 0.93867 0.58172 0.10886 0.0
C381 C 0.98372 0.58323 0.01065 0.0
O382 O 0.99044 0.60389 1.0048 0.0
N383 N 0.94224 0.62711 0.10224 0.0
C384 C 0.92804 0.66418 0.15174 0.0
C385 C 0.93338 0.64417 0.1735 0.0
C386 C 0.94114 0.62619 0.14839 0.0
C387 C 0.93681 0.64633 0.08032 0.0
C388 C 0.92964 0.66505 0.10437 0.0
H389 H 0.94682 0.61162 0.16652 0.0
H390 H 0.939 0.64769 0.04432 0.0
H391 H 0.9784 0.56778 0.12937 0.0
H392 H 0.02557 0.61818 0.1554 0.0
H393 H 0.89987 0.57646 0.9552 0.0
H394 H 0.9325 0.64261 0.20988 0.0
H395 H 0.92662 0.68037 0.08601 0.0
C396 C 0.36155 0.98473 0.37649 0.0
C397 C 0.36455 0.9648 0.35403 0.0
N398 N 0.38349 0.96624 0.32932 0.0
N399 N 0.37853 -0.00143 0.36585 0.0
C400 C 0.39149 0.98691 0.33698 0.0
H401 H 0.34847 0.98851 0.40061 0.0
Co402 Co 0.38586 0.02569 0.39178 0.0
C403 C 0.40878 0.04601 0.30883 0.0
O404 O 0.42699 0.0537 0.32819 0.0
N405 N 0.3934 0.05244 0.41956 0.0
C406 C 0.39459 0.0875 0.44338 0.0
C407 C 0.39165 0.07386 0.40623 0.0
C408 C 0.39766 0.05346 0.46428 0.0
N409 N 0.39835 0.07452 0.47984 0.0
O410 O 0.41545 0.01549 0.40184 0.0
H411 H 0.38685 0.07916 0.37268 0.0
H412 H 0.39803 0.03895 0.48594 0.0
O413 O 0.39379 0.03633 0.33231 0.0
C414 C 0.41722 0.00325 0.43669 0.0
O415 O 0.39889 -0.00277 0.45809 0.0
N416 N 0.35651 0.03579 0.38434 0.0
C417 C 0.31444 0.05579 0.3807 0.0
C418 C 0.32529 0.04894 0.341 0.0
C419 C 0.34635 0.03889 0.34356 0.0
C420 C 0.34561 0.04097 0.42335 0.0
C421 C 0.32475 0.05135 0.42233 0.0
H422 H 0.35445 0.03377 0.31275 0.0
H423 H 0.35353 0.03773 0.45551 0.0
H424 H 0.40739 0.99298 0.32437 0.0
H425 H 0.35403 0.95019 0.35689 0.0
H426 H 0.39287 0.10547 0.44395 0.0
H427 H 0.31761 0.05125 0.30822 0.0
H428 H 0.3171 0.0563 0.45393 0.0
C429 C 0.51497 0.38315 0.95733 0.0
C430 C 0.53113 0.39115 0.92832 0.0
N431 N 0.52091 0.4038 0.89687 0.0
N432 N 0.49474 0.39074 0.94401 0.0
C433 C 0.49892 0.40331 0.90726 0.0
H434 H 0.51778 0.37297 0.98694 0.0
Co435 Co 0.46793 0.38738 0.97486 0.0
C436 C 0.43956 0.37903 0.88863 0.0
O437 O 0.43328 0.35847 0.89706 0.0
N438 N 0.44165 0.38479 0.00865 0.0
C439 C 0.40909 0.37662 0.04103 0.0
C440 C 0.42115 0.37612 1.00123 0.0
C441 C 0.4415 0.39072 0.0527 0.0
N442 N 0.42201 0.38578 0.07343 0.0
O443 O 0.46532 0.41868 0.9796 0.0
H444 H 0.41545 0.36913 0.96979 0.0
H445 H 0.45605 0.39729 0.06992 0.0
O446 O 0.45174 0.38955 0.91707 0.0
C447 C 0.4782 0.42936 1.00588 0.0
O448 O 0.49366 0.41851 0.02861 0.0
N449 N 0.47106 0.35622 0.97173 0.0
C450 C 0.4809 0.31076 0.97462 0.0
C451 C 0.48162 0.32247 0.93363 0.0
C452 C 0.4768 0.34527 0.93296 0.0
C453 C 0.47089 0.34515 0.01198 0.0
C454 C 0.47538 0.32237 0.01408 0.0
H455 H 0.47836 0.35428 0.9015 0.0
H456 H 0.46796 0.35409 0.04305 0.0
H457 H 0.48623 0.41291 0.88988 0.0
H458 H 0.54898 0.38815 0.93055 0.0
H459 H 0.3923 0.37025 0.04593 0.0
H460 H 0.48597 0.31412 0.9024 0.0
H461 H 0.47524 0.31406 0.04657 0.0
C462 C 0.13982 0.49812 0.38408 0.0
C463 C 0.13038 0.51143 0.35118 0.0
N464 N 0.11044 0.50264 0.3397 0.0
N465 N 0.12571 0.48116 0.39372 0.0
C466 C 0.10812 0.48433 0.36567 0.0
H467 H 0.1558 0.50096 0.40017 0.0
Co468 Co 0.12775 0.458 0.43643 0.0
C469 C 0.12727 0.43 0.36817 0.0
O470 O 0.14855 0.43437 0.37507 0.0
N471 N 0.12954 0.43495 0.47897 0.0
C472 C 0.13902 0.40409 0.51589 0.0
C473 C 0.13981 0.41501 0.475 0.0
C474 C 0.12275 0.43579 0.52254 0.0
N475 N 0.12835 0.41725 0.54592 0.0
O476 O 0.09891 0.46689 0.46253 0.0
H477 H 0.14806 0.409 0.44491 0.0
H478 H 0.11419 0.44999 0.53704 0.0
O479 O 0.11272 0.43866 0.39447 0.0
C480 C 0.08802 0.48514 0.46704 0.0
O481 O 0.09716 0.50409 0.45456 0.0
N482 N 0.14524 0.47555 0.47466 0.0
C483 C 0.18112 0.49338 0.5225 0.0
C484 C 0.18475 0.47863 0.48683 0.0
C485 C 0.16664 0.46994 0.46357 0.0
C486 C 0.14104 0.48973 0.50982 0.0
C487 C 0.15901 0.49918 0.53406 0.0
H488 H 0.16963 0.45836 0.43629 0.0
H489 H 0.12409 0.49338 0.52009 0.0
H490 H 0.09335 0.47389 0.36572 0.0
H491 H 0.13763 0.52637 0.33681 0.0
H492 H 0.14653 0.38806 0.52324 0.0
H493 H 0.20157 0.47379 0.47703 0.0
H494 H 0.15572 0.5104 0.56192 0.0
C495 C 0.94766 0.10486 0.91103 0.0
C496 C 0.93096 0.09517 0.88604 0.0
N497 N 0.94044 0.08122 0.85583 0.0
N498 N 0.96764 0.09729 0.8964 0.0
C499 C 0.96278 0.08307 0.86253 0.0
H500 H 0.94535 0.11547 0.94018 0.0
Co501 Co 0.9942 0.10065 0.92789 0.0
C502 C 0.02297 0.11493 0.84732 0.0
O503 O 0.02767 0.1352 0.86105 0.0
N504 N 0.02018 0.1031 0.96231 0.0
C505 C 0.05108 0.1118 1.00038 0.0
C506 C 0.03951 0.11475 0.96041 0.0
C507 C 0.02052 0.09318 1.00313 0.0
N508 N 0.03901 0.09815 0.02708 0.0
O509 O -0.00126 0.06947 0.92623 0.0
H510 H 0.04453 0.12557 0.93324 0.0
H511 H 0.00663 0.08352 0.01613 0.0
O512 O 0.0108 0.10202 0.87132 0.0
C513 C 0.98594 0.05552 0.94542 0.0
O514 O 0.96831 0.06268 0.96776 0.0
N515 N 0.98961 0.13151 0.93006 0.0
C516 C 0.98609 0.17758 0.93566 0.0
C517 C 0.98257 0.16666 0.89444 0.0
C518 C 0.98403 0.14352 0.89254 0.0
C519 C 0.99069 0.14164 0.97119 0.0
C520 C 0.98926 0.16475 0.97471 0.0
H521 H 0.98164 0.13529 0.86044 0.0
H522 H 0.99332 0.13184 1.00136 0.0
H523 H 0.97535 0.07315 0.8455 0.0
H524 H 0.91318 0.09694 0.89231 0.0
H525 H 0.06682 0.11953 0.00948 0.0
H526 H 0.9799 0.17587 0.86345 0.0
H527 H 0.99124 0.17251 0.00747 0.0
H528 H 0.95262 0.96317 0.48523 0.0
H529 H 0.97029 0.94257 0.6213 0.0
H530 H 0.00614 0.96268 0.61475 0.0
H531 H 0.00815 0.95825 0.43817 0.0
H532 H 0.00522 0.98235 0.40228 0.0
H533 H 0.9809 0.96623 0.4175 0.0
H534 H 0.96183 0.00189 0.44908 0.0
H535 H 0.98611 0.01805 0.43395 0.0
H536 H 0.97606 0.01819 0.49136 0.0
H537 H 0.04001 0.9844 0.59357 0.0
H538 H 0.06959 0.00773 0.55988 0.0
H539 H 0.02986 0.01488 0.43793 0.0
C540 C 0.96397 0.96298 0.51374 0.0
C541 C 0.95866 0.95135 0.55382 0.0
C542 C 0.97402 0.95137 0.59026 0.0
C543 C 0.99443 0.96271 0.58687 0.0
C544 C -0.00079 0.9739 0.54683 0.0
C545 C 0.98444 0.97419 0.51092 0.0
C546 C 0.9937 0.98757 0.47175 0.0
C547 C 0.9972 0.97271 0.42997 0.0
C548 C 0.97852 0.00762 0.46092 0.0
C549 C 0.01586 0.99496 0.49154 0.0
C550 C 0.01875 0.9867 0.53472 0.0
C551 C 0.03796 0.991 0.55982 0.0
C552 C 0.05468 0.0042 0.54033 0.0
C553 C 0.05195 0.0131 0.49638 0.0
C554 C 0.03229 0.00839 0.47171 0.0
H555 H 0.50751 0.02934 0.91137 0.0
H556 H 0.4361 0.03828 0.93429 0.0
H557 H 0.43475 0.00245 0.97449 0.0
H558 H 0.50549 0.96995 0.89199 0.0
H559 H 0.53149 0.96442 0.92087 0.0
H560 H 0.52707 0.99095 0.89367 0.0
H561 H 0.53559 0.01112 0.96906 0.0
H562 H 0.53999 0.98461 0.99632 0.0
H563 H 0.51976 0.00399 0.01889 0.0
H564 H 0.44083 0.96591 0.01227 0.0
H565 H 0.45393 0.93032 0.04432 0.0
H566 H 0.52137 0.94446 0.99688 0.0
C567 C 0.49159 0.02375 0.92477 0.0
C568 C 0.47194 0.03675 0.91979 0.0
C569 C 0.45143 0.02877 0.9378 0.0
C570 C 0.45046 0.00838 0.96071 0.0
C571 C 0.4701 -0.00392 0.96526 0.0
C572 C 0.49028 0.00336 0.94775 0.0
C573 C 0.50887 0.98677 0.9574 0.0
C574 C 0.5188 0.97748 0.91334 0.0
C575 C 0.52713 -0.00275 0.9872 0.0
C576 C 0.49593 0.96903 0.98284 0.0
C577 C 0.47361 0.9748 0.98706 0.0
C578 C 0.45826 0.96115 0.00911 0.0
C579 C 0.46588 0.94093 0.02713 0.0
C580 C 0.48866 0.93453 0.02296 0.0
C581 C 0.50386 0.94888 1.00066 0.0
H582 H 0.55305 0.53341 0.53858 0.0
H583 H 0.57042 0.46706 0.58592 0.0
H584 H 0.53269 0.45378 0.56502 0.0
H585 H 0.49699 0.53373 0.57811 0.0
H586 H 0.48584 0.54852 0.53011 0.0
H587 H 0.51456 0.55266 0.54675 0.0
H588 H 0.52786 0.54179 0.46651 0.0
H589 H 0.49921 0.53765 0.44938 0.0
H590 H 0.51935 0.51547 0.44275 0.0
H591 H 0.49262 0.4481 0.54226 0.0
H592 H 0.45351 0.44988 0.51591 0.0
H593 H 0.46215 0.51994 0.48291 0.0
C594 C 0.549 0.51604 0.54422 0.0
C595 C 0.56471 0.50126 0.56387 0.0
C596 C 0.55874 0.47865 0.57065 0.0
C597 C 0.53731 0.47097 0.55904 0.0
C598 C 0.52213 0.48605 0.54036 0.0
C599 C 0.52774 0.50805 0.5326 0.0
C600 C 0.50823 0.52088 0.51255 0.0
C601 C 0.50098 0.54008 0.54375 0.0
C602 C 0.51401 0.52945 0.46497 0.0
C603 C 0.49064 0.5027 0.51085 0.0
C604 C 0.49903 0.48274 0.527 0.0
C605 C 0.4859 0.4636 0.5293 0.0
C606 C 0.46366 0.46482 0.51431 0.0
C607 C 0.4547 0.48505 0.49727 0.0
C608 C 0.46844 0.50423 0.49578 0.0
H609 H 0.97124 0.5398 0.00854 0.0
H610 H 0.0255 0.5844 0.97202 0.0
H611 H 0.04935 0.5519 0.95351 0.0
H612 H 0.00218 0.50251 0.06586 0.0
H613 H 0.98751 0.47781 0.04783 0.0
H614 H 0.97318 0.50416 0.04904 0.0
H615 H 0.96291 0.50032 0.9642 0.0
H616 H 0.97674 0.47358 0.96293 0.0
H617 H 0.98474 0.49501 0.92345 0.0
H618 H 0.06865 0.51433 0.94882 0.0
H619 H 0.08112 0.475 0.95609 0.0
H620 H 0.0142 0.45628 0.99896 0.0
C621 C 0.98793 0.54277 0.99545 0.0
C622 C 0.99659 0.56452 0.99178 0.0
C623 C 0.01853 0.56779 0.9748 0.0
C624 C 0.03218 0.54946 0.96422 0.0
C625 C 0.02343 0.52813 0.97026 0.0
C626 C 0.00166 0.52476 0.98479 0.0
C627 C 0.9968 0.50039 0.99264 0.0
C628 C 0.9895 0.49598 0.04175 0.0
C629 C 0.97926 0.49183 0.95878 0.0
C630 C 0.01959 0.49068 0.98293 0.0
C631 C 0.03465 0.50675 0.96894 0.0
C632 C 0.05694 0.50158 0.9593 0.0
C633 C 0.0639 0.47932 0.96383 0.0
C634 C 0.04868 0.46282 0.97882 0.0
C635 C 0.02631 0.46864 0.98823 0.0
H636 H 0.55076 -0.0024 0.45158 0.0
H637 H 0.54224 0.98397 0.59442 0.0
H638 H 0.50132 0.98765 0.5863 0.0
H639 H 0.50441 0.03861 0.44274 0.0
H640 H 0.49643 0.0291 0.38731 0.0
H641 H 0.52524 0.02717 0.40515 0.0
H642 H 0.52497 0.98484 0.38751 0.0
H643 H 0.49609 0.98656 0.37029 0.0
H644 H 0.50428 0.96726 0.41393 0.0
H645 H 0.46181 0.98912 0.56199 0.0
H646 H 0.42524 0.99236 0.52423 0.0
H647 H 0.45874 0.00629 0.39705 0.0
C648 C 0.54025 -0.00405 0.48123 0.0
C649 C 0.54947 0.99027 0.52353 0.0
C650 C 0.53534 0.98789 0.56159 0.0
C651 C 0.51213 0.99006 0.55736 0.0
C652 C 0.50342 0.99477 0.51488 0.0
C653 C 0.51696 -0.00195 0.47757 0.0
C654 C 0.5031 0.00223 0.43556 0.0
C655 C 0.50756 0.02568 0.41658 0.0
C656 C 0.50737 0.98414 0.39972 0.0
C657 C 0.47971 0.00044 0.45511 0.0
C658 C 0.48036 -0.00395 0.50088 0.0
C659 C 0.46102 0.9928 0.52625 0.0
C660 C 0.44034 0.99448 0.50439 0.0
C661 C 0.43922 -0.00045 0.45775 0.0
C662 C 0.45917 0.00248 0.43279 0.0
H663 H 0.51464 0.55063 0.0826 0.0
H664 H 0.44928 0.57452 0.04005 0.0
H665 H 0.43937 0.53632 0.01531 0.0
H666 H 0.52346 0.51139 0.99336 0.0
H667 H 0.53679 0.49116 0.02951 0.0
H668 H 0.53867 0.52041 0.04262 0.0
H669 H 0.52213 0.51291 0.1222 0.0
H670 H 0.5202 0.48363 0.10943 0.0
H671 H 0.49562 0.49875 0.12731 0.0
H672 H 0.43724 0.49548 0.99403 0.0
H673 H 0.44202 0.45492 0.98231 0.0
H674 H 0.5083 0.45838 0.04218 0.0
C675 C 0.49827 0.54791 0.06783 0.0
C676 C 0.48275 0.56549 0.06286 0.0
C677 C 0.46139 0.5612 0.04407 0.0
C678 C 0.45566 0.53963 0.02985 0.0
C679 C 0.47144 0.52265 0.03518 0.0
C680 C 0.49223 0.52657 0.05407 0.0
C681 C 0.50597 0.50548 0.05749 0.0
C682 C 0.52749 0.50722 0.02904 0.0
C683 C 0.51128 0.49986 0.10705 0.0
C684 C 0.48972 0.48899 0.03739 0.0
C685 C 0.46996 0.4992 0.02436 0.0
C686 C 0.4526 0.4873 1.00427 0.0
C687 C 0.45549 0.46433 0.99766 0.0
C688 C 0.47549 0.45358 0.01156 0.0
C689 C 0.49277 0.46613 0.03155 0.0
H690 H 0.96642 0.53508 0.52234 0.0
H691 H 0.94688 0.46845 0.56405 0.0
H692 H 0.98471 0.45463 0.54534 0.0
H693 H 0.00168 0.51786 0.42819 0.0
H694 H 0.02209 0.53946 0.43783 0.0
H695 H 0.99321 0.54394 0.45322 0.0
H696 H 0.00543 0.55314 0.53505 0.0
H697 H 0.03432 0.54851 0.52002 0.0
H698 H 0.02199 0.53322 0.56618 0.0
H699 H 0.0251 0.44816 0.52435 0.0
H700 H 0.06463 0.44928 0.49977 0.0
H701 H 0.05805 0.52006 0.47165 0.0
C702 C 0.97002 0.51754 0.52722 0.0
C703 C 0.95359 0.50286 0.54468 0.0
C704 C 0.95909 0.48005 0.55061 0.0
C705 C 0.98058 0.47202 0.54018 0.0
C706 C 0.99645 0.48697 0.52366 0.0
C707 C 0.99141 0.50922 0.5169 0.0
C708 C 0.0116 0.52181 0.49905 0.0
C709 C 0.00686 0.53132 0.45177 0.0
C710 C 0.01875 0.54026 0.53205 0.0
C711 C 0.02882 0.5032 0.4972 0.0
C712 C 0.01973 0.48323 0.51151 0.0
C713 C 0.03238 0.46369 0.51293 0.0
C714 C 0.05486 0.4645 0.49895 0.0
C715 C 0.06454 0.48474 0.48376 0.0
C716 C 0.05125 0.50433 0.4832 0.0
H717 H 0.97293 0.93193 0.02747 0.0
H718 H 0.04171 0.92026 0.98662 0.0
H719 H 0.04206 0.95697 0.94766 0.0
H720 H 0.95581 0.9632 0.92291 0.0
H721 H 0.9377 0.98112 0.95542 0.0
H722 H 0.94209 0.95261 0.97271 0.0
H723 H 0.95474 0.96637 0.05177 0.0
H724 H 0.95064 0.9948 0.03467 0.0
H725 H 0.97754 0.98598 0.0559 0.0
H726 H 0.03625 -0.00303 0.92383 0.0
H727 H 0.02514 0.03647 0.91669 0.0
H728 H 0.95986 0.02087 0.97305 0.0
C729 C 0.98797 0.93695 0.00971 0.0
C730 C 0.00741 0.92361 0.0103 0.0
C731 C 0.0267 0.93044 0.98639 0.0
C732 C 0.02697 0.95113 0.96412 0.0
C733 C 0.0076 0.96424 0.96531 0.0
C734 C 0.98835 0.95719 0.98697 0.0
C735 C 0.97032 0.97486 0.98679 0.0
C736 C 0.9503 0.96751 0.95772 0.0
C737 C 0.9629 0.98085 0.03514 0.0
C738 C 0.98296 0.99368 0.96469 0.0
C739 C 0.00421 0.98711 0.95137 0.0
C740 C 0.01952 0.00217 0.9333 0.0
C741 C 0.01307 0.02457 0.92957 0.0
C742 C 0.99165 0.03166 0.94456 0.0
C743 C 0.9763 0.01589 0.96127 0.0
H744 H 0.07727 0.11661 0.28142 0.0
H745 H 0.04879 0.05168 0.31159 0.0
H746 H 0.03778 0.04755 0.23172 0.0
H747 H 0.03553 0.13369 0.19894 0.0
H748 H 0.05578 0.14746 0.1634 0.0
H749 H 0.06045 0.14563 0.22336 0.0
H750 H 0.09894 0.12695 0.20855 0.0
H751 H 0.09426 0.12843 0.14855 0.0
H752 H 0.10029 0.10197 0.17479 0.0
H753 H 0.03074 0.05004 0.14834 0.0
H754 H 0.02679 0.05964 0.06764 0.0
H755 H 0.06026 0.12268 0.09145 0.0
C756 C 0.0684 0.10167 0.27146 0.0
C757 C 0.0638 0.08451 0.3029 0.0
C758 C 0.05245 0.06508 0.2882 0.0
C759 C 0.04618 0.06256 0.24287 0.0
C760 C 0.0514 0.07958 0.21262 0.0
C761 C 0.06214 0.09881 0.2263 0.0
C762 C 0.0662 0.11439 0.18681 0.0
C763 C 0.05374 0.1366 0.19354 0.0
C764 C 0.09142 0.11815 0.17924 0.0
C765 C 0.05604 0.10091 0.14876 0.0
C766 C 0.04761 0.08089 0.16441 0.0
C767 C 0.03721 0.06571 0.13574 0.0
C768 C 0.03501 0.07131 0.09001 0.0
C769 C 0.0432 0.0919 0.07329 0.0
C770 C 0.05411 0.10672 0.1031 0.0
H771 H 0.42909 0.06619 0.74226 0.0
H772 H 0.38033 0.11895 0.7634 0.0
H773 H 0.3714 0.11887 0.68237 0.0
H774 H 0.45005 0.08601 0.63892 0.0
H775 H 0.45332 0.05915 0.61243 0.0
H776 H 0.45478 0.06153 0.67296 0.0
H777 H 0.4231 0.03238 0.68159 0.0
H778 H 0.42181 0.02964 0.62105 0.0
H779 H 0.3969 0.0366 0.65251 0.0
H780 H 0.37033 0.11623 0.59881 0.0
H781 H 0.37365 0.10746 0.51764 0.0
H782 H 0.422 0.05563 0.54858 0.0
C783 C 0.41605 0.0772 0.72997 0.0
C784 C 0.40533 0.09252 0.75928 0.0
C785 C 0.38875 0.10706 0.74168 0.0
C786 C 0.38358 0.10721 0.69561 0.0
C787 C 0.39501 0.0926 0.66731 0.0
C788 C 0.41059 0.07754 0.68371 0.0
C789 C 0.4208 0.06412 0.64529 0.0
C790 C 0.44624 0.06794 0.64224 0.0
C791 C 0.41532 0.0392 0.65042 0.0
C792 C 0.40869 0.07424 0.605 0.0
C793 C 0.39404 0.09075 0.61861 0.0
C794 C 0.38158 0.10317 0.58769 0.0
C795 C 0.38374 0.09825 0.54161 0.0
C796 C 0.39808 0.08092 0.52679 0.0
C797 C 0.41081 0.06888 0.55904 0.0
H798 H 0.42449 0.43897 0.32136 0.0
H799 H 0.38128 0.38443 0.36181 0.0
H800 H 0.38472 0.36787 0.28603 0.0
H801 H 0.40197 0.44552 0.21344 0.0
H802 H 0.42792 0.45162 0.18482 0.0
H803 H 0.42491 0.45797 0.24392 0.0
H804 H 0.45994 0.43419 0.26239 0.0
H805 H 0.46329 0.42802 0.2032 0.0
H806 H 0.46127 0.40563 0.24361 0.0
H807 H 0.38893 0.35936 0.20463 0.0
H808 H 0.3964 0.35763 0.12283 0.0
H809 H 0.43702 0.41736 0.13261 0.0
C810 C 0.4165 0.42312 0.31459 0.0
C811 C 0.40288 0.41275 0.34764 0.0
C812 C 0.39195 0.39249 0.33711 0.0
C813 C 0.39376 0.38298 0.29412 0.0
C814 C 0.40656 0.39394 0.26172 0.0
C815 C 0.41801 0.41341 0.27137 0.0
C816 C 0.4294 0.42241 0.22917 0.0
C817 C 0.42051 0.44576 0.21715 0.0
C818 C 0.455 0.42257 0.23495 0.0
C819 C 0.42218 0.40519 0.19442 0.0
C820 C 0.40902 0.38894 0.21411 0.0
C821 C 0.39943 0.37183 0.18886 0.0
C822 C 0.40358 0.3711 0.14229 0.0
C823 C 0.41728 0.38732 0.1212 0.0
C824 C 0.4267 0.40457 0.14784 0.0
H825 H 0.12239 0.44786 0.61329 0.0
H826 H 0.12625 0.37675 0.58702 0.0
H827 H 0.1208 0.36922 0.66814 0.0
H828 H 0.15093 0.44726 0.72047 0.0
H829 H 0.13311 0.46825 0.74526 0.0
H830 H 0.13799 0.46813 0.68522 0.0
H831 H 0.09519 0.46655 0.67074 0.0
H832 H 0.09018 0.46684 0.73069 0.0
H833 H 0.07884 0.44472 0.6965 0.0
H834 H 0.11377 0.36934 0.75203 0.0
H835 H 0.10478 0.37712 0.83188 0.0
H836 H 0.10519 0.44813 0.80341 0.0
C837 C 0.12194 0.43068 0.62436 0.0
C838 C 0.12483 0.4129 0.59344 0.0
C839 C 0.12441 0.39069 0.60988 0.0
C840 C 0.12124 0.38623 0.65597 0.0
C841 C 0.11853 0.40414 0.68541 0.0
C842 C 0.11879 0.42593 0.67026 0.0
C843 C 0.11501 0.44214 0.70879 0.0
C844 C 0.13548 0.45734 0.71531 0.0
C845 C 0.09353 0.45587 0.70122 0.0
C846 C 0.11238 0.42606 0.74793 0.0
C847 C 0.11455 0.40422 0.73374 0.0
C848 C 0.11213 0.38638 0.76354 0.0
C849 C 0.10699 0.39097 0.80886 0.0
C850 C 0.10431 0.41323 0.82404 0.0
C851 C 0.1074 0.43095 0.79311 0.0
H852 H 0.55037 0.94318 0.70824 0.0
H853 H 0.60999 0.90723 0.66612 0.0
H854 H 0.61517 0.8935 0.744 0.0
H855 H 0.57226 0.96122 0.81174 0.0
H856 H 0.54654 0.95873 0.84309 0.0
H857 H 0.54568 0.96402 0.78334 0.0
H858 H 0.52107 0.9291 0.77081 0.0
H859 H 0.52122 0.92397 0.83075 0.0
H860 H 0.53029 0.90248 0.79227 0.0
H861 H 0.61548 0.88588 0.82698 0.0
H862 H 0.60969 0.88296 0.9092 0.0
H863 H 0.55008 0.92412 0.89839 0.0
C864 C 0.56414 0.9319 0.71513 0.0
C865 C 0.57968 0.9261 0.68102 0.0
C866 C 0.59785 0.91182 0.6917 0.0
C867 C 0.60094 0.90395 0.73584 0.0
C868 C 0.58571 0.91052 0.76896 0.0
C869 C 0.56755 0.92399 0.75914 0.0
C870 C 0.55444 0.92963 0.80154 0.0
C871 C 0.55476 0.9549 0.81042 0.0
C872 C 0.53032 0.92075 0.79866 0.0
C873 C 0.56798 0.91707 0.83666 0.0
C874 C 0.58601 0.90628 0.81709 0.0
C875 C 0.60135 0.89415 0.84267 0.0
C876 C 0.59803 0.89275 0.88943 0.0
C877 C 0.57946 0.90333 0.91027 0.0
C878 C 0.5643 0.91568 0.88335 0.0
H879 H 0.58154 0.62713 0.2394 0.0
H880 H 0.54143 0.56843 0.21153 0.0
H881 H 0.5492 0.55443 0.28864 0.0
H882 H 0.62387 0.59949 0.3099 0.0
H883 H 0.62621 0.62307 0.34732 0.0
H884 H 0.61892 0.62729 0.28891 0.0
H885 H 0.58314 0.64857 0.3136 0.0
H886 H 0.59013 0.64417 0.37204 0.0
H887 H 0.56336 0.63513 0.35071 0.0
H888 H 0.55905 0.54849 0.37123 0.0
H889 H 0.5717 0.54988 0.45031 0.0
H890 H 0.60576 0.61243 0.42357 0.0
C891 C 0.57471 0.61111 0.24911 0.0
C892 C 0.56099 0.59879 0.21922 0.0
C893 C 0.55222 0.57802 0.23355 0.0
C894 C 0.55645 0.57001 0.2774 0.0
C895 C 0.56959 0.58289 0.30637 0.0
C896 C 0.57879 0.60289 0.29257 0.0
C897 C 0.59167 0.61398 0.33051 0.0
C898 C 0.61665 0.61607 0.31844 0.0
C899 C 0.58145 0.63681 0.3424 0.0
C900 C 0.58805 0.59728 0.36817 0.0
C901 C 0.57532 0.57944 0.35357 0.0
C902 C 0.5693 0.56223 0.38273 0.0
C903 C 0.57669 0.56314 0.4277 0.0
C904 C 0.59 0.58116 0.44341 0.0
C905 C 0.59559 0.59846 0.41296 0.0
H906 H 0.93365 0.5737 0.89325 0.0
H907 H 0.91646 0.64344 0.90657 0.0
H908 H 0.91917 0.64799 0.82323 0.0
H909 H 0.97381 0.58151 0.79938 0.0
H910 H 0.96613 0.55601 0.77167 0.0
H911 H 0.96446 0.55798 0.83226 0.0
H912 H 0.92295 0.54693 0.83215 0.0
H913 H 0.92336 0.54405 0.77185 0.0
H914 H 0.90329 0.56233 0.79795 0.0
H915 H 0.91762 0.64279 0.73819 0.0
H916 H 0.9128 0.62882 0.66021 0.0
H917 H 0.93497 0.56348 0.7027 0.0
C918 C 0.93075 0.58996 0.87845 0.0
C919 C 0.92465 0.60823 0.9058 0.0
C920 C 0.92113 0.62934 0.88579 0.0
C921 C 0.92272 0.63202 0.83867 0.0
C922 C 0.92849 0.61352 0.81238 0.0
C923 C 0.93277 0.59298 0.83177 0.0
C924 C 0.9376 0.57548 0.7963 0.0
C925 C 0.96193 0.56724 0.80015 0.0
C926 C 0.92081 0.55607 0.79979 0.0
C927 C 0.93413 0.58897 0.75358 0.0
C928 C 0.92909 0.61097 0.76351 0.0
C929 C 0.92228 0.62583 0.72994 0.0
C930 C 0.91973 0.61781 0.68565 0.0
C931 C 0.92427 0.59523 0.67507 0.0
C932 C 0.93238 0.58096 0.70925 0.0
H933 H 0.91946 0.87885 0.22746 0.0
H934 H 0.97952 0.91903 0.21328 0.0
H935 H 0.98261 0.92137 0.29616 0.0
H936 H 0.89765 0.90656 0.33177 0.0
H937 H 0.88758 0.88042 0.35388 0.0
H938 H 0.88831 0.88503 0.29377 0.0
H939 H 0.91207 0.84913 0.28441 0.0
H940 H 0.91203 0.8447 0.34448 0.0
H941 H 0.93823 0.84656 0.31437 0.0
H942 H 0.9823 0.91457 0.38002 0.0
H943 H 0.97569 0.90313 0.45927 0.0
H944 H 0.91569 0.86796 0.41864 0.0
C945 C 0.9328 0.88886 0.24161 0.0
C946 C 0.94929 0.8987 0.21376 0.0
C947 C 0.96671 0.91131 0.23387 0.0
C948 C 0.96864 0.91269 0.28097 0.0
C949 C 0.95285 0.90163 0.30742 0.0
C950 C 0.93497 0.89039 0.28848 0.0
C951 C 0.92114 0.87865 0.32416 0.0
C952 C 0.89726 0.88825 0.32601 0.0
C953 C 0.92087 0.85326 0.31637 0.0
C954 C 0.93432 0.8846 0.36603 0.0
C955 C 0.95258 0.89784 0.35569 0.0
C956 C 0.96791 0.90443 0.38856 0.0
C957 C 0.96422 0.89763 0.43327 0.0
C958 C 0.94534 0.88448 0.44457 0.0
C959 C 0.93024 0.87796 0.41054 0.0
H960 H 0.93387 0.90672 0.92475 0.0
H961 H 0.95064 0.8375 0.95059 0.0
H962 H 0.94895 0.82965 0.86875 0.0
H963 H 0.89468 0.89673 0.83438 0.0
H964 H 0.90324 0.92081 0.80229 0.0
H965 H 0.90578 0.92087 0.86287 0.0
H966 H 0.94795 0.93022 0.85533 0.0
H967 H 0.9456 0.92988 0.79471 0.0
H968 H 0.96586 0.91225 0.82241 0.0
H969 H 0.94479 0.82915 0.78462 0.0
H970 H 0.93798 0.83593 0.70354 0.0
H971 H 0.9245 0.90566 0.73235 0.0
C972 C 0.93691 0.88987 0.91321 0.0
C973 C 0.94229 0.87264 0.94397 0.0
C974 C 0.94662 0.85091 0.92747 0.0
C975 C 0.94567 0.84631 0.88114 0.0
C976 C 0.94051 0.86367 0.85169 0.0
C977 C 0.93619 0.88503 0.86699 0.0
C978 C 0.9311 0.90068 0.82811 0.0
C979 C 0.90728 0.91033 0.83216 0.0
C980 C 0.94868 0.91935 0.82497 0.0
C981 C 0.93299 0.88469 0.78867 0.0
C982 C 0.93847 0.86346 0.80301 0.0
C983 C 0.94058 0.84573 0.77291 0.0
C984 C 0.93668 0.84974 0.72693 0.0
C985 C 0.93079 0.87132 0.7115 0.0
C986 C 0.9292 0.88902 0.7429 0.0
H987 H 0.59895 0.88781 0.39583 0.0
H988 H 0.57287 0.95504 0.40947 0.0
H989 H 0.56249 0.95516 0.32895 0.0
H990 H 0.62203 0.89449 0.28425 0.0
H991 H 0.61436 0.86689 0.26592 0.0
H992 H 0.61997 0.87212 0.32472 0.0
H993 H 0.58085 0.85658 0.34609 0.0
H994 H 0.57521 0.85114 0.28741 0.0
H995 H 0.5562 0.86818 0.31983 0.0
H996 H 0.55445 0.94777 0.24652 0.0
H997 H 0.54841 0.93282 0.1696 0.0
H998 H 0.57985 0.8706 0.2099 0.0
C999 C 0.59097 0.9025 0.3819 0.0
C1000 C 0.58698 0.92149 0.40895 0.0
C1001 C 0.57656 0.94044 0.38931 0.0
C1002 C 0.57049 0.94065 0.34358 0.0
C1003 C 0.57494 0.92178 0.31772 0.0
C1004 C 0.58487 0.90302 0.33619 0.0
C1005 C 0.58758 0.88484 0.30114 0.0
C1006 C 0.61246 0.87927 0.29357 0.0
C1007 C 0.57416 0.86396 0.31441 0.0
C1008 C 0.57752 0.89626 0.26022 0.0
C1009 C 0.57036 0.91757 0.27038 0.0
C1010 C 0.56009 0.93113 0.23811 0.0
C1011 C 0.5568 0.92254 0.19446 0.0
C1012 C 0.56375 0.9006 0.18354 0.0
C1013 C 0.57446 0.88749 0.21693 0.0
H1014 H 0.59234 0.62003 0.92816 0.0
H1015 H 0.53642 0.57472 0.94779 0.0
H1016 H 0.53723 0.56542 0.8669 0.0
H1017 H 0.57674 0.64 0.81789 0.0
H1018 H 0.60514 0.64071 0.79719 0.0
H1019 H 0.59962 0.64465 0.85647 0.0
H1020 H 0.62641 0.61201 0.8761 0.0
H1021 H 0.63225 0.60819 0.81698 0.0
H1022 H 0.62208 0.58515 0.85025 0.0
H1023 H 0.54449 0.56056 0.7827 0.0
H1024 H 0.55989 0.5582 0.70522 0.0
H1025 H 0.6116 0.6057 0.74157 0.0
C1026 C 0.58029 0.60806 0.91584 0.0
C1027 C 0.56413 0.5984 0.94498 0.0
C1028 C 0.5487 0.58283 0.92658 0.0
C1029 C 0.54905 0.57734 0.88044 0.0
C1030 C 0.56498 0.58741 0.85274 0.0
C1031 C 0.58046 0.60227 0.86991 0.0
C1032 C 0.59647 0.61008 0.83343 0.0
C1033 C 0.59436 0.63536 0.82581 0.0
C1034 C 0.62074 0.60345 0.84488 0.0
C1035 C 0.58773 0.59714 0.79316 0.0
C1036 C 0.56939 0.58433 0.80478 0.0
C1037 C 0.55881 0.5706 0.77326 0.0
C1038 C 0.56759 0.56946 0.72917 0.0
C1039 C 0.58693 0.5818 0.71708 0.0
C1040 C 0.59672 0.59614 0.74949 0.0
H1041 H 0.89043 0.59748 0.19218 0.0
H1042 H 0.94339 0.54933 0.16764 0.0
H1043 H 0.94485 0.54097 0.24935 0.0
H1044 H 0.91403 0.61999 0.28816 0.0
H1045 H 0.88805 0.62477 0.31773 0.0
H1046 H 0.88849 0.62446 0.25698 0.0
H1047 H 0.85824 0.5935 0.2558 0.0
H1048 H 0.85732 0.59401 0.3166 0.0
H1049 H 0.86274 0.56819 0.28741 0.0
H1050 H 0.94328 0.54093 0.33451 0.0
H1051 H 0.93758 0.54769 0.41582 0.0
H1052 H 0.88603 0.59644 0.38448 0.0
C1053 C 0.90174 0.58453 0.20361 0.0
C1054 C 0.91657 0.57379 0.1733 0.0
C1055 C 0.93168 0.55755 0.19011 0.0
C1056 C 0.93269 0.55277 0.2365 0.0
C1057 C 0.9185 0.5644 0.26565 0.0
C1058 C 0.90315 0.57979 0.24978 0.0
C1059 C 0.89113 0.59138 0.28829 0.0
C1060 C 0.89571 0.61664 0.28774 0.0
C1061 C 0.86586 0.58646 0.28694 0.0
C1062 C 0.90222 0.58026 0.32839 0.0
C1063 C 0.91788 0.56468 0.31463 0.0
C1064 C 0.9308 0.55284 0.34563 0.0
C1065 C 0.92738 0.55677 0.39183 0.0
C1066 C 0.9112 0.57247 0.40684 0.0
C1067 C 0.89859 0.58441 0.37438 0.0
H1068 H 0.42649 0.09037 0.05494 0.0
H1069 H 0.37189 0.04679 0.01615 0.0
H1070 H 0.36886 0.03349 0.09492 0.0
H1071 H 0.4522 0.05332 0.13667 0.0
H1072 H 0.45924 0.07533 0.17554 0.0
H1073 H 0.45757 0.08107 0.11591 0.0
H1074 H 0.42868 0.11243 0.13127 0.0
H1075 H 0.43028 0.10683 0.19093 0.0
H1076 H 0.40356 0.10614 0.16263 0.0
H1077 H 0.37227 0.0243 0.17677 0.0
H1078 H 0.37975 0.02156 0.25804 0.0
H1079 H 0.43111 0.07247 0.24626 0.0
C1080 C 0.41402 0.0779 0.06303 0.0
C1081 C 0.39943 0.06953 0.02936 0.0
C1082 C 0.38307 0.05353 0.04141 0.0
C1083 C 0.38135 0.04579 0.08599 0.0
C1084 C 0.39598 0.05435 0.1183 0.0
C1085 C 0.41189 0.07019 0.10757 0.0
C1086 C 0.42501 0.07717 0.1492 0.0
C1087 C 0.44999 0.07137 0.14401 0.0
C1088 C 0.42167 0.10212 0.15908 0.0
C1089 C 0.41395 0.06278 0.18504 0.0
C1090 C 0.3974 0.04963 0.1662 0.0
C1091 C 0.38497 0.03474 0.192 0.0
C1092 C 0.38924 0.03348 0.23839 0.0
C1093 C 0.40561 0.04724 0.25906 0.0
C1094 C 0.41836 0.06187 0.23169 0.0
H1095 H 0.41972 0.35955 0.81407 0.0
H1096 H 0.44927 0.42155 0.86048 0.0
H1097 H 0.44481 0.43753 0.7843 0.0
H1098 H 0.44455 0.35931 0.70454 0.0
H1099 H 0.42022 0.34831 0.67627 0.0
H1100 H 0.42515 0.34176 0.73478 0.0
H1101 H 0.38592 0.35714 0.75575 0.0
H1102 H 0.3808 0.36358 0.69723 0.0
H1103 H 0.37838 0.38512 0.73938 0.0
H1104 H 0.43857 0.44638 0.70199 0.0
H1105 H 0.42943 0.44809 0.62109 0.0
H1106 H 0.40247 0.38092 0.62813 0.0
C1107 C 0.42506 0.37657 0.80842 0.0
C1108 C 0.43503 0.38919 0.84352 0.0
C1109 C 0.44181 0.41139 0.83432 0.0
C1110 C 0.4393 0.42067 0.79105 0.0
C1111 C 0.42978 0.40766 0.75713 0.0
C1112 C 0.42257 0.38616 0.76538 0.0
C1113 C 0.41297 0.37574 0.72284 0.0
C1114 C 0.42654 0.35506 0.70879 0.0
C1115 C 0.38804 0.37007 0.72919 0.0
C1116 C 0.41605 0.39469 0.68935 0.0
C1117 C 0.42581 0.41292 0.70986 0.0
C1118 C 0.43069 0.43227 0.68573 0.0
C1119 C 0.42528 0.43311 0.6396 0.0
C1120 C 0.41494 0.41476 0.61767 0.0
C1121 C 0.41042 0.39526 0.64329 0.0
H1122 H 0.09559 0.42587 0.10922 0.0
H1123 H 0.13602 0.36589 0.10032 0.0
H1124 H 0.1403 0.36584 0.18334 0.0
H1125 H 0.12772 0.45141 0.19569 0.0
H1126 H 0.10407 0.46409 0.22345 0.0
H1127 H 0.10301 0.45862 0.16381 0.0
H1128 H 0.06674 0.43564 0.17474 0.0
H1129 H 0.06762 0.44097 0.23458 0.0
H1130 H 0.06654 0.41269 0.21408 0.0
H1131 H 0.14178 0.37337 0.26648 0.0
H1132 H 0.14301 0.38968 0.34309 0.0
H1133 H 0.10062 0.44405 0.29893 0.0
C1134 C 0.10512 0.41257 0.1248 0.0
C1135 C 0.11539 0.3958 0.09825 0.0
C1136 C 0.12818 0.379 0.11985 0.0
C1137 C 0.13047 0.3787 0.16703 0.0
C1138 C 0.11988 0.39533 0.19218 0.0
C1139 C 0.10762 0.41208 0.1718 0.0
C1140 C 0.09925 0.42886 0.20623 0.0
C1141 C 0.1091 0.45211 0.19673 0.0
C1142 C 0.0735 0.42957 0.20747 0.0
C1143 C 0.10871 0.41894 0.24928 0.0
C1144 C 0.12047 0.39952 0.24037 0.0
C1145 C 0.13228 0.38829 0.274 0.0
C1146 C 0.13276 0.39756 0.31744 0.0
C1147 C 0.12129 0.41766 0.32702 0.0
C1148 C 0.10867 0.42817 0.29282 0.0
H1149 H 0.0561 0.12915 0.58685 0.0
H1150 H 0.05732 0.05703 0.57862 0.0
H1151 H 0.0477 0.05444 0.65953 0.0
H1152 H 0.0813 0.13257 0.69787 0.0
H1153 H 0.0645 0.15598 0.71564 0.0
H1154 H 0.07105 0.15226 0.65673 0.0
H1155 H 0.02872 0.15295 0.63721 0.0
H1156 H 0.02206 0.15676 0.69602 0.0
H1157 H 0.01002 0.13382 0.66519 0.0
H1158 H 0.03673 0.05957 0.74021 0.0
H1159 H 0.02664 0.07214 0.81697 0.0
H1160 H 0.0345 0.14102 0.77473 0.0
C1161 C 0.05424 0.1129 0.6023 0.0
C1162 C 0.0575 0.09329 0.57681 0.0
C1163 C 0.05514 0.07222 0.59788 0.0
C1164 C 0.04959 0.07059 0.64369 0.0
C1165 C 0.0467 0.09021 0.6681 0.0
C1166 C 0.04907 0.11097 0.64834 0.0
C1167 C 0.04547 0.12939 0.68264 0.0
C1168 C 0.06686 0.14337 0.68856 0.0
C1169 C 0.02537 0.14409 0.66947 0.0
C1170 C 0.04051 0.11572 0.72453 0.0
C1171 C 0.04117 0.09315 0.71526 0.0
C1172 C 0.03635 0.07719 0.74804 0.0
C1173 C 0.03063 0.08448 0.79149 0.0
C1174 C 0.03002 0.10752 0.8019 0.0
C1175 C 0.03519 0.12329 0.76796 0.0
H1176 H 0.02471 0.91916 0.23518 0.0
H1177 H 0.08385 0.88701 0.18001 0.0
H1178 H 0.10789 0.91348 0.22162 0.0
H1179 H 0.0445 0.97455 0.22809 0.0
H1180 H 0.03193 0.98355 0.28037 0.0
H1181 H 0.0194 0.96123 0.24862 0.0
H1182 H 0.02166 0.93538 0.31858 0.0
H1183 H 0.03404 0.95767 0.35067 0.0
H1184 H 0.04822 0.93121 0.34627 0.0
H1185 H 0.12532 0.94489 0.2656 0.0
H1186 H 0.13496 0.97785 0.31144 0.0
H1187 H 0.06429 0.98898 0.33856 0.0
C1188 C 0.04272 0.91766 0.23194 0.0
C1189 C 0.05244 0.90106 0.20428 0.0
C1190 C 0.07607 0.89944 0.20138 0.0
C1191 C 0.08984 0.91447 0.22468 0.0
C1192 C 0.07969 0.93089 0.25101 0.0
C1193 C 0.05667 0.93243 0.25513 0.0
C1194 C 0.04995 0.95178 0.28506 0.0
C1195 C 0.0356 0.96878 0.25895 0.0
C1196 C 0.03775 0.94351 0.32767 0.0
C1197 C 0.0728 0.96116 0.29637 0.0
C1198 C 0.08973 0.94884 0.27658 0.0
C1199 C 0.11221 0.95454 0.28163 0.0
C1200 C 0.11752 0.97327 0.30786 0.0
C1201 C 0.10044 0.98609 0.32873 0.0
C1202 C 0.07779 0.97982 0.32271 0.0
H1203 H 0.5704 0.0055 0.70357 0.0
H1204 H 0.60938 0.05617 0.63457 0.0
H1205 H 0.58349 0.08513 0.66239 0.0
H1206 H 0.51688 0.02875 0.68016 0.0
H1207 H 0.50488 0.02169 0.73417 0.0
H1208 H 0.52711 0.00487 0.71094 0.0
H1209 H 0.55081 0.01083 0.78316 0.0
H1210 H 0.52853 0.02736 0.80698 0.0
H1211 H 0.55637 0.03879 0.80244 0.0
H1212 H 0.55204 0.10826 0.69344 0.0
H1213 H 0.51933 0.12453 0.73202 0.0
H1214 H 0.50143 0.05881 0.7824 0.0
C1215 C 0.57357 0.02271 0.69465 0.0
C1216 C 0.59197 0.02856 0.66704 0.0
C1217 C 0.59564 0.05129 0.65625 0.0
C1218 C 0.58088 0.06786 0.67153 0.0
C1219 C 0.56263 0.06144 0.69777 0.0
C1220 C 0.55907 0.03946 0.70979 0.0
C1221 C 0.53812 0.03702 0.73824 0.0
C1222 C 0.52072 0.02221 0.71444 0.0
C1223 C 0.5438 0.02797 0.7855 0.0
C1224 C 0.53044 0.06108 0.74017 0.0
C1225 C 0.5447 0.07485 0.71635 0.0
C1226 C 0.54087 0.09769 0.7127 0.0
C1227 C 0.52223 0.10679 0.7349 0.0
C1228 C 0.50772 0.09313 0.76085 0.0
C1229 C 0.51188 0.06988 0.76279 0.0
H1230 H 0.43115 0.50402 0.32488 0.0
H1231 H 0.36986 0.54166 0.3471 0.0
H1232 H 0.38649 0.57401 0.30909 0.0
H1233 H 0.46895 0.54945 0.3452 0.0
H1234 H 0.48863 0.54139 0.30196 0.0
H1235 H 0.47179 0.52054 0.3296 0.0
H1236 H 0.45678 0.50724 0.25205 0.0
H1237 H 0.4737 0.52797 0.22418 0.0
H1238 H 0.4439 0.52713 0.21447 0.0
H1239 H 0.40973 0.60282 0.27109 0.0
H1240 H 0.43767 0.62573 0.23147 0.0
H1241 H 0.48462 0.57033 0.23462 0.0
C1242 C 0.4212 0.51904 0.32175 0.0
C1243 C 0.39904 0.52007 0.33892 0.0
C1244 C 0.38663 0.5401 0.33366 0.0
C1245 C 0.39603 0.55874 0.3124 0.0
C1246 C 0.41789 0.55723 0.2964 0.0
C1247 C 0.43033 0.53789 0.30048 0.0
C1248 C 0.45355 0.54087 0.28027 0.0
C1249 C 0.4718 0.53789 0.31642 0.0
C1250 C 0.45719 0.52485 0.24037 0.0
C1251 C 0.45214 0.56492 0.26443 0.0
C1252 C 0.43143 0.574 0.27427 0.0
C1253 C 0.42604 0.59592 0.26322 0.0
C1254 C 0.44215 0.6089 0.24101 0.0
C1255 C 0.46347 0.59998 0.2299 0.0
C1256 C 0.46847 0.57767 0.24217 0.0
H1257 H 0.91411 0.47526 0.73875 0.0
H1258 H 0.95828 0.53085 0.70953 0.0
H1259 H 0.98772 0.51382 0.75604 0.0
H1260 H 0.93298 0.46523 0.85483 0.0
H1261 H 0.93139 0.43535 0.84934 0.0
H1262 H 0.91285 0.4529 0.81699 0.0
H1263 H 0.92666 0.4341 0.74319 0.0
H1264 H 0.94529 0.41659 0.77529 0.0
H1265 H 0.95621 0.43378 0.73046 0.0
H1266 H 0.01262 0.49079 0.80454 0.0
H1267 H 0.03225 0.46217 0.84854 0.0
H1268 H 0.97324 0.41981 0.8416 0.0
C1269 C 0.92982 0.48403 0.74287 0.0
C1270 C 0.9337 0.5046 0.721 0.0
C1271 C 0.95479 0.51517 0.72605 0.0
C1272 C 0.97164 0.50567 0.75259 0.0
C1273 C 0.96734 0.48535 0.77339 0.0
C1274 C 0.94705 0.47453 0.76863 0.0
C1275 C 0.94742 0.45209 0.79211 0.0
C1276 C 0.93013 0.45136 0.83061 0.0
C1277 C 0.94368 0.43302 0.75823 0.0
C1278 C 0.97115 0.45198 0.81029 0.0
C1279 C 0.98221 0.47147 0.79963 0.0
C1280 C 0.00422 0.47535 0.81287 0.0
C1281 C 0.01533 0.45878 0.83757 0.0
C1282 C 0.00452 0.43839 0.84835 0.0
C1283 C 0.98207 0.43513 0.83438 0.0
H1284 H 0.95709 0.04192 0.82254 0.0
H1285 H 0.89732 0.08336 0.82705 0.0
H1286 H 0.8764 0.05437 0.7863 0.0
H1287 H 0.9485 0.02209 0.7097 0.0
H1288 H 0.9593 0.9946 0.72135 0.0
H1289 H 0.96928 0.01815 0.75313 0.0
H1290 H 0.95817 -0.00183 0.82759 0.0
H1291 H 0.94793 0.97468 0.79584 0.0
H1292 H 0.92974 0.98876 0.83519 0.0
H1293 H 0.86172 0.02093 0.74679 0.0
H1294 H 0.8552 0.98733 0.70158 0.0
H1295 H 0.92531 0.96888 0.71699 0.0
C1296 C 0.9397 0.04512 0.81464 0.0
C1297 C 0.92884 0.06497 0.82863 0.0
C1298 C 0.90594 0.06819 0.81766 0.0
C1299 C 0.89389 0.05181 0.79445 0.0
C1300 C 0.905 0.03234 0.78205 0.0
C1301 C 0.92745 0.02903 0.79109 0.0
C1302 C 0.93558 0.00701 0.772 0.0
C1303 C 0.95426 0.01069 0.73695 0.0
C1304 C 0.9433 0.99123 0.80992 0.0
C1305 C 0.91422 -0.00129 0.75008 0.0
C1306 C 0.89673 0.01339 0.75716 0.0
C1307 C 0.87534 0.00942 0.74048 0.0
C1308 C 0.87187 0.99027 0.71448 0.0
C1309 C 0.8898 0.97551 0.70443 0.0
C1310 C 0.91114 0.97963 0.72364 0.0
H1311 H 0.47341 0.91764 0.15953 0.0
H1312 H 0.46142 0.85227 0.21766 0.0
H1313 H 0.43179 0.8684 0.2662 0.0
H1314 H 0.46686 0.94854 0.26206 0.0
H1315 H 0.45358 0.97189 0.23457 0.0
H1316 H 0.47327 0.95487 0.20396 0.0
H1317 H 0.44332 0.94772 0.14229 0.0
H1318 H 0.42347 0.96458 0.17293 0.0
H1319 H 0.41653 0.93626 0.15816 0.0
H1320 H 0.40381 0.89215 0.30931 0.0
H1321 H 0.38126 0.92165 0.34586 0.0
H1322 H 0.41204 0.97109 0.25875 0.0
C1323 C 0.46486 0.90666 0.18283 0.0
C1324 C 0.46989 0.88364 0.1849 0.0
C1325 C 0.45778 0.86991 0.21523 0.0
C1326 C 0.44094 0.87893 0.24296 0.0
C1327 C 0.43641 0.90169 0.23984 0.0
C1328 C 0.44812 0.91536 0.21064 0.0
C1329 C 0.44041 0.93933 0.21411 0.0
C1330 C 0.45967 0.95455 0.22961 0.0
C1331 C 0.43033 0.94744 0.1692 0.0
C1332 C 0.42263 0.9371 0.25021 0.0
C1333 C 0.42043 0.91527 0.26446 0.0
C1334 C 0.40533 0.90928 0.29826 0.0
C1335 C 0.39246 0.92614 0.3186 0.0
C1336 C 0.39488 0.9487 0.30522 0.0
C1337 C 0.40994 0.95405 0.27003 0.0
H1338 H 0.61267 0.48318 0.78622 0.0
H1339 H 0.56728 0.48977 0.67258 0.0
H1340 H 0.54123 0.46338 0.70812 0.0
H1341 H 0.60292 0.42378 0.80576 0.0
H1342 H 0.60413 0.42627 0.86635 0.0
H1343 H 0.61987 0.4452 0.83131 0.0
H1344 H 0.60053 0.47882 0.87021 0.0
H1345 H 0.58477 0.46001 0.90539 0.0
H1346 H 0.57036 0.48036 0.87126 0.0
H1347 H 0.51933 0.4377 0.75653 0.0
H1348 H 0.50284 0.41382 0.81571 0.0
H1349 H 0.56209 0.42321 0.89833 0.0
C1350 C 0.59734 0.47886 0.7688 0.0
C1351 C 0.5919 0.48873 0.72693 0.0
C1352 C 0.57161 0.48281 0.70512 0.0
C1353 C 0.55676 0.46767 0.72484 0.0
C1354 C 0.56244 0.45847 0.76636 0.0
C1355 C 0.58221 0.46376 0.78818 0.0
C1356 C 0.58379 0.45192 0.83329 0.0
C1357 C 0.60387 0.43583 0.83421 0.0
C1358 C 0.58492 0.46878 0.87234 0.0
C1359 C 0.56175 0.43935 0.83339 0.0
C1360 C 0.54976 0.44336 0.79436 0.0
C1361 C 0.52859 0.4343 0.78718 0.0
C1362 C 0.51932 0.42087 0.82102 0.0
C1363 C 0.53121 0.41663 0.86148 0.0
C1364 C 0.5528 0.42585 0.86743 0.0
H1365 H 0.04007 0.59612 0.21225 0.0
H1366 H 0.00418 0.54228 0.14589 0.0
H1367 H 0.0272 0.51495 0.18639 0.0
H1368 H 0.09459 0.56963 0.20749 0.0
H1369 H 0.10323 0.5801 0.26178 0.0
H1370 H 0.08361 0.59574 0.22806 0.0
H1371 H 0.05528 0.59569 0.29444 0.0
H1372 H 0.07481 0.58007 0.32836 0.0
H1373 H 0.04691 0.56953 0.31924 0.0
H1374 H 0.05322 0.49318 0.23578 0.0
H1375 H 0.08154 0.47868 0.28877 0.0
H1376 H 0.10231 0.54621 0.31972 0.0
C1377 C 0.0371 0.57863 0.2058 0.0
C1378 C 0.01998 0.57159 0.17596 0.0
C1379 C 0.01671 0.54838 0.16911 0.0
C1380 C 0.02988 0.53259 0.19176 0.0
C1381 C 0.04647 0.54016 0.22092 0.0
C1382 C 0.05025 0.56261 0.22781 0.0
C1383 C 0.0693 0.56625 0.26083 0.0
C1384 C 0.08884 0.57867 0.23817 0.0
C1385 C 0.06107 0.57861 0.30323 0.0
C1386 C 0.07555 0.54233 0.27151 0.0
C1387 C 0.06206 0.52756 0.24828 0.0
C1388 C 0.06401 0.50458 0.25386 0.0
C1389 C 0.08013 0.49649 0.28409 0.0
C1390 C 0.09434 0.51127 0.30793 0.0
C1391 C 0.09201 0.5345 0.30128 0.0
H1392 H 0.18872 0.07666 0.45415 0.0
H1393 H 0.18035 0.11717 0.33409 0.0
H1394 H 0.22122 0.11477 0.31957 0.0
H1395 H 0.24557 0.09682 0.48719 0.0
H1396 H 0.2538 0.06923 0.50474 0.0
H1397 H 0.22497 0.07789 0.50979 0.0
H1398 H 0.21278 0.04354 0.46272 0.0
H1399 H 0.24149 0.03497 0.45688 0.0
H1400 H 0.22457 0.03939 0.40729 0.0
H1401 H 0.26221 0.1041 0.31412 0.0
H1402 H 0.29955 0.08635 0.31796 0.0
H1403 H 0.27921 0.05096 0.43918 0.0
C1404 C 0.19559 0.08589 0.42592 0.0
C1405 C 0.18154 0.09751 0.39575 0.0
C1406 C 0.19098 0.10843 0.35788 0.0
C1407 C 0.21411 0.10717 0.34947 0.0
C1408 C 0.2274 0.09488 0.37923 0.0
C1409 C 0.21844 0.08455 0.41685 0.0
C1410 C 0.23553 0.07018 0.4407 0.0
C1411 C 0.24025 0.07907 0.48843 0.0
C1412 C 0.22814 0.04558 0.44193 0.0
C1413 C 0.25541 0.0735 0.41 0.0
C1414 C 0.2506 0.08806 0.37514 0.0
C1415 C 0.26621 0.09283 0.34151 0.0
C1416 C 0.28727 0.08245 0.3437 0.0
C1417 C 0.29238 0.06723 0.37891 0.0
C1418 C 0.27614 0.06286 0.4124 0.0
H1419 H 0.45382 0.18382 0.02183 0.0
H1420 H 0.51021 0.16752 0.93537 0.0
H1421 H 0.52227 0.20675 0.9371 0.0
H1422 H 0.439 0.23031 0.9669 0.0
H1423 H 0.43057 0.24664 0.0151 0.0
H1424 H 0.42954 0.21674 0.01779 0.0
H1425 H 0.4551 0.21679 0.08843 0.0
H1426 H 0.45586 0.24683 0.08665 0.0
H1427 H 0.48163 0.23111 0.08657 0.0
H1428 H 0.52342 0.24833 0.93414 0.0
H1429 H 0.5156 0.28882 0.9332 0.0
H1430 H 0.45788 0.27826 0.01963 0.0
C1431 C 0.46919 0.18837 1.00471 0.0
C1432 C 0.48113 0.17256 0.97871 0.0
C1433 C 0.50104 0.17918 0.95633 0.0
C1434 C 0.50794 0.20151 0.95682 0.0
C1435 C 0.49491 0.21695 0.98025 0.0
C1436 C 0.47618 0.2106 1.00459 0.0
C1437 C 0.46349 0.23068 0.0222 0.0
C1438 C 0.43923 0.2311 1.00441 0.0
C1439 C 0.46407 0.23139 0.07405 0.0
C1440 C 0.47731 0.2493 1.00198 0.0
C1441 C 0.49554 0.24107 0.97842 0.0
C1442 C 0.50952 0.255 0.95338 0.0
C1443 C 0.50481 0.27791 0.9526 0.0
C1444 C 0.48622 0.28664 0.97654 0.0
C1445 C 0.47249 0.2721 1.00183 0.0
H1446 H 0.30217 0.46485 0.58944 0.0
H1447 H 0.32059 0.52672 0.52337 0.0
H1448 H 0.28174 0.54012 0.53114 0.0
H1449 H 0.25578 0.45692 0.52928 0.0
H1450 H 0.23913 0.44445 0.57336 0.0
H1451 H 0.26909 0.44278 0.57587 0.0
H1452 H 0.26846 0.46111 0.65515 0.0
H1453 H 0.23831 0.46294 0.65263 0.0
H1454 H 0.25474 0.48763 0.66286 0.0
H1455 H 0.2399 0.54311 0.52903 0.0
H1456 H 0.20005 0.53443 0.51411 0.0
H1457 H 0.20829 0.4702 0.57819 0.0
C1458 C 0.29822 0.48151 0.57781 0.0
C1459 C 0.31459 0.49469 0.55585 0.0
C1460 C 0.30861 0.5164 0.54115 0.0
C1461 C 0.28646 0.52415 0.54531 0.0
C1462 C 0.27042 0.51014 0.56459 0.0
C1463 C 0.27614 0.48929 0.58098 0.0
C1464 C 0.25548 0.47582 0.5928 0.0
C1465 C 0.25484 0.45372 0.56622 0.0
C1466 C 0.25417 0.47164 0.64391 0.0
C1467 C 0.23721 0.4917 0.57763 0.0
C1468 C 0.24608 0.51174 0.56288 0.0
C1469 C 0.2327 0.52782 0.54185 0.0
C1470 C 0.21002 0.52287 0.53378 0.0
C1471 C 0.20108 0.50196 0.54629 0.0
C1472 C 0.21462 0.48665 0.5701 0.0
H1473 H 0.05533 0.28797 0.98077 0.0
H1474 H 0.01234 0.32065 0.88292 0.0
H1475 H 0.98891 0.2868 0.8782 0.0
H1476 H 0.05498 0.23505 0.92782 0.0
H1477 H 0.05515 0.21951 0.97993 0.0
H1478 H 0.06737 0.2469 0.97785 0.0
H1479 H 0.04162 0.25934 0.04384 0.0
H1480 H 0.02912 0.23202 0.04566 0.0
H1481 H 0.01168 0.25633 0.0386 0.0
H1482 H 0.97102 0.24927 0.88225 0.0
H1483 H 0.96187 0.20927 0.88955 0.0
H1484 H 0.01734 0.20101 0.98291 0.0
C1485 C 0.04088 0.28797 0.95866 0.0
C1486 C 0.03559 0.30672 0.9321 0.0
C1487 C 0.01674 0.30622 0.9031 0.0
C1488 C 0.00323 0.28723 0.90058 0.0
C1489 C 0.00886 0.26896 0.92727 0.0
C1490 C 0.02734 0.26908 0.95543 0.0
C1491 C 0.03061 0.24675 0.9781 0.0
C1492 C 0.05337 0.23645 0.96512 0.0
C1493 C 0.0281 0.24874 0.02961 0.0
C1494 C 0.0113 0.23396 0.95767 0.0
C1495 C -0.00126 0.24716 0.92901 0.0
C1496 C 0.98065 0.23875 0.90475 0.0
C1497 C 0.97564 0.21604 0.90897 0.0
C1498 C 0.98886 0.20206 0.93685 0.0
C1499 C 0.00658 0.21134 0.96217 0.0
H1500 H 0.70873 0.90548 0.53942 0.0
H1501 H 0.70579 0.94333 0.66447 0.0
H1502 H 0.74364 0.93065 0.68381 0.0
H1503 H 0.74179 0.85886 0.58133 0.0
H1504 H 0.75852 0.85651 0.53086 0.0
H1505 H 0.73022 0.86692 0.52753 0.0
H1506 H 0.74441 0.90291 0.48846 0.0
H1507 H 0.77269 0.89249 0.49122 0.0
H1508 H 0.76593 0.91927 0.51531 0.0
H1509 H 0.78146 0.91552 0.68941 0.0
H1510 H 0.81962 0.90195 0.67752 0.0
H1511 H 0.80002 0.87431 0.54772 0.0
C1512 C 0.71606 0.91113 0.57081 0.0
C1513 C 0.70396 0.92498 0.60092 0.0
C1514 C 0.7143 0.93211 0.64152 0.0
C1515 C 0.73588 0.92508 0.6528 0.0
C1516 C 0.74711 0.91114 0.62293 0.0
C1517 C 0.73782 0.90447 0.58247 0.0
C1518 C 0.75437 0.8907 0.55527 0.0
C1519 C 0.7457 0.86683 0.54835 0.0
C1520 C 0.75967 0.90202 0.50988 0.0
C1521 C 0.77446 0.89105 0.58663 0.0
C1522 C 0.76962 0.90265 0.62571 0.0
C1523 C 0.78545 0.90612 0.65926 0.0
C1524 C 0.8071 0.89805 0.65231 0.0
C1525 C 0.81286 0.88657 0.61201 0.0
C1526 C 0.79613 0.88277 0.57903 0.0
H1527 H 0.47428 0.70933 0.03651 0.0
H1528 H 0.51632 0.6834 0.92975 0.0
H1529 H 0.51676 0.72054 0.89336 0.0
H1530 H 0.44345 0.75377 0.96338 0.0
H1531 H 0.44347 0.77274 0.01058 0.0
H1532 H 0.4409 0.74314 0.02009 0.0
H1533 H 0.47506 0.74453 0.07397 0.0
H1534 H 0.47788 0.77388 0.06439 0.0
H1535 H 0.50128 0.75559 0.05357 0.0
H1536 H 0.52211 0.76126 0.88284 0.0
H1537 H 0.5292 0.80143 0.89576 0.0
H1538 H 0.48151 0.80128 1.00566 0.0
C1539 C 0.48249 0.71133 1.00413 0.0
C1540 C 0.49496 0.69367 0.98533 0.0
C1541 C 0.50627 0.69673 0.9439 0.0
C1542 C 0.50661 0.71777 0.92313 0.0
C1543 C 0.49514 0.73532 0.94385 0.0
C1544 C 0.48275 0.73214 0.98289 0.0
C1545 C 0.47473 0.75409 1.00226 0.0
C1546 C 0.44911 0.75605 0.99885 0.0
C1547 C 0.48274 0.75719 0.05139 0.0
C1548 C 0.48615 0.77021 0.97043 0.0
C1549 C 0.4975 0.75912 0.93635 0.0
C1550 C 0.51249 0.77023 0.90796 0.0
C1551 C 0.51645 0.793 0.91542 0.0
C1552 C 0.50525 0.80435 0.95059 0.0
C1553 C 0.48937 0.79303 0.97721 0.0
H1554 H 0.80573 0.50546 0.58787 0.0
H1555 H 0.81812 0.51478 0.44514 0.0
H1556 H 0.77745 0.51041 0.4299 0.0
H1557 H 0.75613 0.46641 0.57777 0.0
H1558 H 0.74266 0.47956 0.62532 0.0
H1559 H 0.7728 0.47784 0.62288 0.0
H1560 H 0.77525 0.5207 0.6329 0.0
H1561 H 0.74526 0.52262 0.6348 0.0
H1562 H 0.76071 0.53862 0.59375 0.0
H1563 H 0.73455 0.51212 0.4329 0.0
H1564 H 0.6949 0.51954 0.45375 0.0
H1565 H 0.7115 0.50995 0.59469 0.0
C1566 C 0.79995 0.50567 0.5532 0.0
C1567 C 0.81498 0.51022 0.5176 0.0
C1568 C 0.80688 0.51087 0.47274 0.0
C1569 C 0.78379 0.5085 0.4639 0.0
C1570 C 0.76919 0.50523 0.50026 0.0
C1571 C 0.77711 0.50348 0.54402 0.0
C1572 C 0.75818 0.50293 0.57796 0.0
C1573 C 0.7574 0.48034 0.60242 0.0
C1574 C 0.75996 0.52237 0.61179 0.0
C1575 C 0.73831 0.50575 0.54688 0.0
C1576 C 0.7448 0.50657 0.50206 0.0
C1577 C 0.7293 0.51101 0.46781 0.0
C1578 C 0.70682 0.51516 0.47985 0.0
C1579 C 0.70023 0.51523 0.52576 0.0
C1580 C 0.71611 0.50985 0.55931 0.0
H1581 H 0.90061 0.69938 0.13074 0.0
H1582 H 0.94792 0.67617 0.23155 0.0
H1583 H 0.94948 0.71351 0.26398 0.0
H1584 H 0.92874 0.74157 0.10021 0.0
H1585 H 0.90661 0.76152 0.09058 0.0
H1586 H 0.90063 0.73236 0.0878 0.0
H1587 H 0.86973 0.7368 0.14858 0.0
H1588 H 0.87549 0.76629 0.15127 0.0
H1589 H 0.87632 0.74965 0.20193 0.0
H1590 H 0.95702 0.75296 0.26816 0.0
H1591 H 0.96909 0.7902 0.24387 0.0
H1592 H 0.91785 0.79027 0.14021 0.0
C1593 C 0.91061 0.70204 0.16072 0.0
C1594 C 0.92415 0.68481 0.17831 0.0
C1595 C 0.937 0.68886 0.21767 0.0
C1596 C 0.93802 0.71018 0.23651 0.0
C1597 C 0.92606 0.72732 0.21585 0.0
C1598 C 0.91218 0.72342 0.17921 0.0
C1599 C 0.90519 0.74506 0.15691 0.0
C1600 C 0.91066 0.74511 0.10593 0.0
C1601 C 0.8802 0.74973 0.1652 0.0
C1602 C 0.91966 0.76131 0.18282 0.0
C1603 C 0.93069 0.75095 0.21815 0.0
C1604 C 0.94787 0.76152 0.2418 0.0
C1605 C 0.95468 0.78272 0.22768 0.0
C1606 C 0.94445 0.793 0.18997 0.0
C1607 C 0.92595 0.78266 0.16909 0.0
loop_
_geom_bond_atom_site_label_1
_geom_bond_atom_site_label_2
_geom_bond_distance
_geom_bond_site_symmetry_2
_ccdc_geom_bond_type
C0 C1 1.351 . S
C0 N3 1.368 . S
C0 H5 0.931 . S
C1 C0 1.351 . S
C1 N2 1.373 . S
C1 H29 0.930 . S
N2 C1 1.373 . S
N2 C4 1.340 . S
N3 C0 1.368 . S
N3 C4 1.321 . S
N3 Co6 2.135 1_565 S
C4 N2 1.340 . S
C4 N3 1.321 . S
C4 H28 0.930 1_565 S
H5 C0 0.931 . S
Co6 N3 2.135 1_545 S
Co6 N9 2.121 . S
Co6 O14 2.055 . S
Co6 O17 2.039 . S
Co6 N20 2.140 . S
C7 O8 1.227 . S
C7 O17 1.265 . S
O8 C7 1.227 . S
N9 Co6 2.121 . S
N9 C11 1.375 . S
N9 C12 1.313 . S
C10 C11 1.338 . S
C10 N13 1.377 . S
C10 H30 0.930 . S
C11 N9 1.375 . S
C11 C10 1.338 . S
C11 H15 0.931 . S
C12 N9 1.313 . S
C12 N13 1.344 . S
C12 H16 0.930 . S
N13 C10 1.377 . S
N13 C12 1.344 . S
O14 Co6 2.055 . S
O14 C18 1.253 1_545 S
H15 C11 0.931 . S
H16 C12 0.930 . S
O17 Co6 2.039 . S
O17 C7 1.265 . S
C18 O14 1.253 1_565 S
C18 O19 1.227 . S
O19 C18 1.227 . S
N20 Co6 2.140 . S
N20 C23 1.346 . S
N20 C24 1.345 . S
C21 C22 1.387 . S
C21 C25 1.400 . S
C22 C21 1.387 . S
C22 C23 1.372 . S
C22 H31 0.927 1_545 S
C23 N20 1.346 . S
C23 C22 1.372 . S
C23 H26 0.928 . S
C24 N20 1.345 . S
C24 C25 1.371 . S
C24 H27 0.931 . S
C25 C21 1.400 . S
C25 C24 1.371 . S
C25 H32 0.930 . S
H26 C23 0.928 . S
H27 C24 0.931 . S
H28 C4 0.930 1_545 S
H29 C1 0.930 . S
H30 C10 0.930 . S
H31 C22 0.927 1_565 S
H32 C25 0.930 . S
C33 C34 1.351 . S
C33 N36 1.368 . S
C33 H38 0.931 . S
C34 C33 1.351 . S
C34 N35 1.373 . S
C34 H62 0.930 . S
N35 C34 1.373 . S
N35 C37 1.340 . S
N36 C33 1.368 . S
N36 C37 1.321 . S
N36 Co39 2.135 . S
C37 N35 1.340 . S
C37 N36 1.321 . S
C37 H61 0.930 . S
H38 C33 0.931 . S
Co39 N36 2.135 . S
Co39 N42 2.121 . S
Co39 O47 2.055 . S
Co39 O50 2.039 . S
Co39 N53 2.140 . S
C40 O41 1.227 . S
C40 O50 1.265 . S
O41 C40 1.227 . S
N42 Co39 2.121 . S
N42 C44 1.375 . S
N42 C45 1.313 1_556 S
C43 C44 1.338 1_554 S
C43 N46 1.377 . S
C43 H63 0.930 . S
C44 N42 1.375 . S
C44 C43 1.338 1_556 S
C44 H48 0.931 . S
C45 N42 1.313 1_554 S
C45 N46 1.344 . S
C45 H49 0.930 . S
N46 C43 1.377 . S
N46 C45 1.344 . S
O47 Co39 2.055 . S
O47 C51 1.253 . S
H48 C44 0.931 . S
H49 C45 0.930 . S
O50 Co39 2.039 . S
O50 C40 1.265 . S
C51 O47 1.253 . S
C51 O52 1.227 1_556 S
O52 C51 1.227 1_554 S
N53 Co39 2.140 . S
N53 C56 1.346 . S
N53 C57 1.345 . S
C54 C55 1.387 . S
C54 C58 1.391 . S
C55 C54 1.387 . S
C55 C56 1.369 . S
C55 H64 0.929 . S
C56 N53 1.346 . S
C56 C55 1.369 . S
C56 H59 0.928 . S
C57 N53 1.345 . S
C57 C58 1.371 . S
C57 H60 0.931 1_556 S
C58 C54 1.391 . S
C58 C57 1.371 . S
C58 H65 0.930 1_556 S
H59 C56 0.928 . S
H60 C57 0.931 1_554 S
H61 C37 0.930 . S
H62 C34 0.930 . S
H63 C43 0.930 . S
H64 C55 0.929 . S
H65 C58 0.930 1_554 S
C66 C67 1.351 . S
C66 N69 1.368 . S
C66 H71 0.931 . S
C67 C66 1.351 . S
C67 N68 1.373 . S
C67 H95 0.930 . S
N68 C67 1.373 . S
N68 C70 1.340 . S
N69 C66 1.368 . S
N69 C70 1.321 . S
N69 Co72 2.135 . S
C70 N68 1.340 . S
C70 N69 1.321 . S
C70 H94 0.930 . S
H71 C66 0.931 . S
Co72 N69 2.135 . S
Co72 N75 2.121 . S
Co72 O80 2.055 . S
Co72 O83 2.039 . S
Co72 N86 2.140 . S
C73 O74 1.227 . S
C73 O83 1.265 . S
O74 C73 1.227 . S
N75 Co72 2.121 . S
N75 C77 1.375 . S
N75 C78 1.313 . S
C76 C77 1.338 . S
C76 N79 1.377 . S
C76 H96 0.930 . S
C77 N75 1.375 . S
C77 C76 1.338 . S
C77 H81 0.931 . S
C78 N75 1.313 . S
C78 N79 1.344 . S
C78 H82 0.930 . S
N79 C76 1.377 . S
N79 C78 1.344 . S
O80 Co72 2.055 . S
O80 C84 1.253 . S
H81 C77 0.931 . S
H82 C78 0.930 . S
O83 Co72 2.039 . S
O83 C73 1.265 . S
C84 O80 1.253 . S
C84 O85 1.227 . S
O85 C84 1.227 . S
N86 Co72 2.140 . S
N86 C89 1.346 . S
N86 C90 1.345 . S
C87 C88 1.387 . S
C87 C91 1.391 . S
C88 C87 1.387 . S
C88 C89 1.369 . S
C88 H97 0.929 . S
C89 N86 1.346 . S
C89 C88 1.369 . S
C89 H92 0.928 . S
C90 N86 1.345 . S
C90 C91 1.371 . S
C90 H93 0.931 . S
C91 C87 1.391 . S
C91 C90 1.371 . S
C91 H98 0.930 . S
H92 C89 0.928 . S
H93 C90 0.931 . S
H94 C70 0.930 . S
H95 C67 0.930 . S
H96 C76 0.930 . S
H97 C88 0.929 . S
H98 C91 0.930 . S
C99 C100 1.351 . S
C99 N102 1.368 . S
C99 H104 0.931 . S
C100 C99 1.351 . S
C100 N101 1.373 . S
C100 H128 0.930 . S
N101 C100 1.373 . S
N101 C103 1.340 . S
N102 C99 1.368 . S
N102 C103 1.321 . S
N102 Co105 2.135 1_655 S
C103 N101 1.340 . S
C103 N102 1.321 . S
C103 H127 0.930 1_655 S
H104 C99 0.931 . S
Co105 N102 2.135 1_455 S
Co105 N108 2.121 . S
Co105 O113 2.055 . S
Co105 O116 2.039 . S
Co105 N119 2.140 . S
C106 O107 1.227 . S
C106 O116 1.265 . S
O107 C106 1.227 . S
N108 Co105 2.121 . S
N108 C110 1.375 . S
N108 C111 1.313 1_556 S
C109 C110 1.338 1_554 S
C109 N112 1.377 . S
C109 H129 0.930 . S
C110 N108 1.375 . S
C110 C109 1.338 1_556 S
C110 H114 0.931 . S
C111 N108 1.313 1_554 S
C111 N112 1.344 . S
C111 H115 0.930 . S
N112 C109 1.377 . S
N112 C111 1.344 . S
O113 Co105 2.055 . S
O113 C117 1.253 1_455 S
H114 C110 0.931 . S
H115 C111 0.930 . S
O116 Co105 2.039 . S
O116 C106 1.265 . S
C117 O113 1.253 1_655 S
C117 O118 1.227 1_556 S
O118 C117 1.227 1_554 S
N119 Co105 2.140 . S
N119 C122 1.346 . S
N119 C123 1.345 . S
C120 C121 1.387 . S
C120 C124 1.400 . S
C121 C120 1.387 . S
C121 C122 1.372 . S
C121 H130 0.927 1_455 S
C122 N119 1.346 . S
C122 C121 1.372 . S
C122 H125 0.928 . S
C123 N119 1.345 . S
C123 C124 1.371 . S
C123 H126 0.931 1_556 S
C124 C120 1.400 . S
C124 C123 1.371 . S
C124 H131 0.930 1_556 S
H125 C122 0.928 . S
H126 C123 0.931 1_554 S
H127 C103 0.930 1_455 S
H128 C100 0.930 . S
H129 C109 0.930 . S
H130 C121 0.927 1_655 S
H131 C124 0.930 1_554 S
C132 C133 1.351 . S
C132 N135 1.368 . S
C132 H137 0.931 . S
C133 C132 1.351 . S
C133 N134 1.373 . S
C133 H161 0.930 . S
N134 C133 1.373 . S
N134 C136 1.340 . S
N135 C132 1.368 . S
N135 C136 1.321 . S
N135 Co138 2.135 1_545 S
C136 N134 1.340 . S
C136 N135 1.321 . S
C136 H160 0.930 1_545 S
H137 C132 0.931 . S
Co138 N135 2.135 1_565 S
Co138 N141 2.121 . S
Co138 O146 2.055 . S
Co138 O149 2.039 . S
Co138 N152 2.140 . S
C139 O140 1.227 . S
C139 O149 1.265 . S
O140 C139 1.227 . S
N141 Co138 2.121 . S
N141 C143 1.375 . S
N141 C144 1.313 . S
C142 C143 1.338 . S
C142 N145 1.377 . S
C142 H162 0.930 . S
C143 N141 1.375 . S
C143 C142 1.338 . S
C143 H147 0.931 . S
C144 N141 1.313 . S
C144 N145 1.344 . S
C144 H148 0.930 . S
N145 C142 1.377 . S
N145 C144 1.344 . S
O146 Co138 2.055 . S
O146 C150 1.253 1_565 S
H147 C143 0.931 . S
H148 C144 0.930 . S
O149 Co138 2.039 . S
O149 C139 1.265 . S
C150 O146 1.253 1_545 S
C150 O151 1.227 . S
O151 C150 1.227 . S
N152 Co138 2.140 . S
N152 C155 1.346 . S
N152 C156 1.345 . S
C153 C154 1.387 . S
C153 C157 1.400 . S
C154 C153 1.387 . S
C154 C155 1.372 . S
C154 H163 0.927 1_565 S
C155 N152 1.346 . S
C155 C154 1.372 . S
C155 H158 0.928 . S
C156 N152 1.345 . S
C156 C157 1.371 . S
C156 H159 0.931 . S
C157 C153 1.400 . S
C157 C156 1.371 . S
C157 H164 0.930 . S
H158 C155 0.928 . S
H159 C156 0.931 . S
H160 C136 0.930 1_565 S
H161 C133 0.930 . S
H162 C142 0.930 . S
H163 C154 0.927 1_545 S
H164 C157 0.930 . S
C165 C166 1.351 . S
C165 N168 1.368 . S
C165 H170 0.931 . S
C166 C165 1.351 . S
C166 N167 1.373 . S
C166 H194 0.930 . S
N167 C166 1.373 . S
N167 C169 1.340 . S
N168 C165 1.368 . S
N168 C169 1.321 . S
N168 Co171 2.135 . S
C169 N167 1.340 . S
C169 N168 1.321 . S
C169 H193 0.930 . S
H170 C165 0.931 . S
Co171 N168 2.135 . S
Co171 N174 2.121 . S
Co171 O179 2.055 . S
Co171 O182 2.039 . S
Co171 N185 2.140 . S
C172 O173 1.227 . S
C172 O182 1.265 . S
O173 C172 1.227 . S
N174 Co171 2.121 . S
N174 C176 1.375 . S
N174 C177 1.313 1_554 S
C175 C176 1.338 1_556 S
C175 N178 1.377 . S
C175 H195 0.930 . S
C176 N174 1.375 . S
C176 C175 1.338 1_554 S
C176 H180 0.931 . S
C177 N174 1.313 1_556 S
C177 N178 1.344 . S
C177 H181 0.930 . S
N178 C175 1.377 . S
N178 C177 1.344 . S
O179 Co171 2.055 . S
O179 C183 1.253 . S
H180 C176 0.931 . S
H181 C177 0.930 . S
O182 Co171 2.039 . S
O182 C172 1.265 . S
C183 O179 1.253 . S
C183 O184 1.227 1_554 S
O184 C183 1.227 1_556 S
N185 Co171 2.140 . S
N185 C188 1.346 . S
N185 C189 1.345 . S
C186 C187 1.387 . S
C186 C190 1.391 . S
C187 C186 1.387 . S
C187 C188 1.369 . S
C187 H196 0.929 . S
C188 N185 1.346 . S
C188 C187 1.369 . S
C188 H191 0.928 . S
C189 N185 1.345 . S
C189 C190 1.371 . S
C189 H192 0.931 1_554 S
C190 C186 1.391 . S
C190 C189 1.371 . S
C190 H197 0.930 1_554 S
H191 C188 0.928 . S
H192 C189 0.931 1_556 S
H193 C169 0.930 . S
H194 C166 0.930 . S
H195 C175 0.930 . S
H196 C187 0.929 . S
H197 C190 0.930 1_556 S
C198 C199 1.351 . S
C198 N201 1.368 . S
C198 H203 0.931 . S
C199 C198 1.351 . S
C199 N200 1.373 . S
C199 H227 0.930 . S
N200 C199 1.373 . S
N200 C202 1.340 . S
N201 C198 1.368 . S
N201 C202 1.321 . S
N201 Co204 2.135 . S
C202 N200 1.340 . S
C202 N201 1.321 . S
C202 H226 0.930 . S
H203 C198 0.931 . S
Co204 N201 2.135 . S
Co204 N207 2.121 . S
Co204 O212 2.055 . S
Co204 O215 2.039 . S
Co204 N218 2.140 . S
C205 O206 1.227 . S
C205 O215 1.265 . S
O206 C205 1.227 . S
N207 Co204 2.121 . S
N207 C209 1.375 . S
N207 C210 1.313 . S
C208 C209 1.338 . S
C208 N211 1.377 . S
C208 H228 0.930 . S
C209 N207 1.375 . S
C209 C208 1.338 . S
C209 H213 0.931 . S
C210 N207 1.313 . S
C210 N211 1.344 . S
C210 H214 0.930 . S
N211 C208 1.377 . S
N211 C210 1.344 . S
O212 Co204 2.055 . S
O212 C216 1.253 . S
H213 C209 0.931 . S
H214 C210 0.930 . S
O215 Co204 2.039 . S
O215 C205 1.265 . S
C216 O212 1.253 . S
C216 O217 1.227 . S
O217 C216 1.227 . S
N218 Co204 2.140 . S
N218 C221 1.346 . S
N218 C222 1.345 . S
C219 C220 1.387 . S
C219 C223 1.391 . S
C220 C219 1.387 . S
C220 C221 1.369 . S
C220 H229 0.929 . S
C221 N218 1.346 . S
C221 C220 1.369 . S
C221 H224 0.928 . S
C222 N218 1.345 . S
C222 C223 1.371 . S
C222 H225 0.931 . S
C223 C219 1.391 . S
C223 C222 1.371 . S
C223 H230 0.930 . S
H224 C221 0.928 . S
H225 C222 0.931 . S
H226 C202 0.930 . S
H227 C199 0.930 . S
H228 C208 0.930 . S
H229 C220 0.929 . S
H230 C223 0.930 . S
C231 C232 1.351 . S
C231 N234 1.368 . S
C231 H236 0.931 . S
C232 C231 1.351 . S
C232 N233 1.373 . S
C232 H260 0.930 . S
N233 C232 1.373 . S
N233 C235 1.340 . S
N234 C231 1.368 . S
N234 C235 1.321 . S
N234 Co237 2.135 1_455 S
C235 N233 1.340 . S
C235 N234 1.321 . S
C235 H259 0.930 1_455 S
H236 C231 0.931 . S
Co237 N234 2.135 1_655 S
Co237 N240 2.121 . S
Co237 O245 2.055 . S
Co237 O248 2.039 . S
Co237 N251 2.140 . S
C238 O239 1.227 . S
C238 O248 1.265 . S
O239 C238 1.227 . S
N240 Co237 2.121 . S
N240 C242 1.375 . S
N240 C243 1.313 1_554 S
C241 C242 1.338 1_556 S
C241 N244 1.377 . S
C241 H261 0.930 . S
C242 N240 1.375 . S
C242 C241 1.338 1_554 S
C242 H246 0.931 . S
C243 N240 1.313 1_556 S
C243 N244 1.344 . S
C243 H247 0.930 . S
N244 C241 1.377 . S
N244 C243 1.344 . S
O245 Co237 2.055 . S
O245 C249 1.253 1_655 S
H246 C242 0.931 . S
H247 C243 0.930 . S
O248 Co237 2.039 . S
O248 C238 1.265 . S
C249 O245 1.253 1_455 S
C249 O250 1.227 1_554 S
O250 C249 1.227 1_556 S
N251 Co237 2.140 . S
N251 C254 1.346 . S
N251 C255 1.345 . S
C252 C253 1.387 . S
C252 C256 1.400 . S
C253 C252 1.387 . S
C253 C254 1.372 . S
C253 H262 0.927 1_655 S
C254 N251 1.346 . S
C254 C253 1.372 . S
C254 H257 0.928 . S
C255 N251 1.345 . S
C255 C256 1.371 . S
C255 H258 0.931 1_554 S
C256 C252 1.400 . S
C256 C255 1.371 . S
C256 H263 0.930 1_554 S
H257 C254 0.928 . S
H258 C255 0.931 1_556 S
H259 C235 0.930 1_655 S
H260 C232 0.930 . S
H261 C241 0.930 . S
H262 C253 0.927 1_455 S
H263 C256 0.930 1_556 S
C264 C265 1.351 . S
C264 N267 1.368 . S
C264 H269 0.931 . S
C265 C264 1.351 . S
C265 N266 1.373 . S
C265 H293 0.930 . S
N266 C265 1.373 . S
N266 C268 1.340 . S
N267 C264 1.368 . S
N267 C268 1.321 . S
N267 Co270 2.135 1_545 S
C268 N266 1.340 . S
C268 N267 1.321 . S
C268 H292 0.930 1_545 S
H269 C264 0.931 . S
Co270 N267 2.135 1_565 S
Co270 N273 2.121 . S
Co270 O278 2.055 . S
Co270 O281 2.039 . S
Co270 N284 2.140 . S
C271 O272 1.227 . S
C271 O281 1.265 . S
O272 C271 1.227 . S
N273 Co270 2.121 . S
N273 C275 1.375 . S
N273 C276 1.313 . S
C274 C275 1.338 . S
C274 N277 1.377 . S
C274 H294 0.930 . S
C275 N273 1.375 . S
C275 C274 1.338 . S
C275 H279 0.931 . S
C276 N273 1.313 . S
C276 N277 1.344 . S
C276 H280 0.930 . S
N277 C274 1.377 . S
N277 C276 1.344 . S
O278 Co270 2.055 . S
O278 C282 1.253 1_565 S
H279 C275 0.931 . S
H280 C276 0.930 . S
O281 Co270 2.039 . S
O281 C271 1.265 . S
C282 O278 1.253 1_545 S
C282 O283 1.227 . S
O283 C282 1.227 . S
N284 Co270 2.140 . S
N284 C287 1.346 . S
N284 C288 1.345 . S
C285 C286 1.387 . S
C285 C289 1.400 . S
C286 C285 1.387 . S
C286 C287 1.372 . S
C286 H295 0.927 1_565 S
C287 N284 1.346 . S
C287 C286 1.372 . S
C287 H290 0.928 . S
C288 N284 1.345 . S
C288 C289 1.371 . S
C288 H291 0.931 . S
C289 C285 1.400 . S
C289 C288 1.371 . S
C289 H296 0.930 . S
H290 C287 0.928 . S
H291 C288 0.931 . S
H292 C268 0.930 1_565 S
H293 C265 0.930 . S
H294 C274 0.930 . S
H295 C286 0.927 1_545 S
H296 C289 0.930 . S
C297 C298 1.351 . S
C297 N300 1.368 . S
C297 H302 0.931 . S
C298 C297 1.351 . S
C298 N299 1.373 . S
C298 H326 0.930 . S
N299 C298 1.373 . S
N299 C301 1.340 . S
N300 C297 1.368 . S
N300 C301 1.321 . S
N300 Co303 2.135 . S
C301 N299 1.340 . S
C301 N300 1.321 . S
C301 H325 0.930 . S
H302 C297 0.931 . S
Co303 N300 2.135 . S
Co303 N306 2.121 . S
Co303 O311 2.055 . S
Co303 O314 2.039 . S
Co303 N317 2.140 . S
C304 O305 1.227 . S
C304 O314 1.265 . S
O305 C304 1.227 . S
N306 Co303 2.121 . S
N306 C308 1.375 . S
N306 C309 1.313 1_554 S
C307 C308 1.338 1_556 S
C307 N310 1.377 . S
C307 H327 0.930 . S
C308 N306 1.375 . S
C308 C307 1.338 1_554 S
C308 H312 0.931 . S
C309 N306 1.313 1_556 S
C309 N310 1.344 . S
C309 H313 0.930 . S
N310 C307 1.377 . S
N310 C309 1.344 . S
O311 Co303 2.055 . S
O311 C315 1.253 . S
H312 C308 0.931 . S
H313 C309 0.930 . S
O314 Co303 2.039 . S
O314 C304 1.265 . S
C315 O311 1.253 . S
C315 O316 1.227 1_554 S
O316 C315 1.227 1_556 S
N317 Co303 2.140 . S
N317 C320 1.346 . S
N317 C321 1.345 . S
C318 C319 1.387 . S
C318 C322 1.391 . S
C319 C318 1.387 . S
C319 C320 1.369 . S
C319 H328 0.929 . S
C320 N317 1.346 . S
C320 C319 1.369 . S
C320 H323 0.928 . S
C321 N317 1.345 . S
C321 C322 1.371 . S
C321 H324 0.931 1_554 S
C322 C318 1.391 . S
C322 C321 1.371 . S
C322 H329 0.930 1_554 S
H323 C320 0.928 . S
H324 C321 0.931 1_556 S
H325 C301 0.930 . S
H326 C298 0.930 . S
H327 C307 0.930 . S
H328 C319 0.929 . S
H329 C322 0.930 1_556 S
C330 C331 1.351 . S
C330 N333 1.368 . S
C330 H335 0.931 . S
C331 C330 1.351 . S
C331 N332 1.373 . S
C331 H359 0.930 . S
N332 C331 1.373 . S
N332 C334 1.340 . S
N333 C330 1.368 . S
N333 C334 1.321 . S
N333 Co336 2.135 . S
C334 N332 1.340 . S
C334 N333 1.321 . S
C334 H358 0.930 . S
H335 C330 0.931 . S
Co336 N333 2.135 . S
Co336 N339 2.121 . S
Co336 O344 2.055 . S
Co336 O347 2.039 . S
Co336 N350 2.140 . S
C337 O338 1.227 . S
C337 O347 1.265 . S
O338 C337 1.227 . S
N339 Co336 2.121 . S
N339 C341 1.375 . S
N339 C342 1.313 . S
C340 C341 1.338 . S
C340 N343 1.377 . S
C340 H360 0.930 . S
C341 N339 1.375 . S
C341 C340 1.338 . S
C341 H345 0.931 . S
C342 N339 1.313 . S
C342 N343 1.344 . S
C342 H346 0.930 . S
N343 C340 1.377 . S
N343 C342 1.344 . S
O344 Co336 2.055 . S
O344 C348 1.253 . S
H345 C341 0.931 . S
H346 C342 0.930 . S
O347 Co336 2.039 . S
O347 C337 1.265 . S
C348 O344 1.253 . S
C348 O349 1.227 . S
O349 C348 1.227 . S
N350 Co336 2.140 . S
N350 C353 1.346 . S
N350 C354 1.345 . S
C351 C352 1.387 . S
C351 C355 1.391 . S
C352 C351 1.387 . S
C352 C353 1.369 . S
C352 H361 0.929 . S
C353 N350 1.346 . S
C353 C352 1.369 . S
C353 H356 0.928 . S
C354 N350 1.345 . S
C354 C355 1.371 . S
C354 H357 0.931 . S
C355 C351 1.391 . S
C355 C354 1.371 . S
C355 H362 0.930 . S
H356 C353 0.928 . S
H357 C354 0.931 . S
H358 C334 0.930 . S
H359 C331 0.930 . S
H360 C340 0.930 . S
H361 C352 0.929 . S
H362 C355 0.930 . S
C363 C364 1.351 . S
C363 N366 1.368 . S
C363 H368 0.931 . S
C364 C363 1.351 . S
C364 N365 1.373 . S
C364 H392 0.930 . S
N365 C364 1.373 . S
N365 C367 1.340 . S
N366 C363 1.368 . S
N366 C367 1.321 . S
N366 Co369 2.135 1_455 S
C367 N365 1.340 . S
C367 N366 1.321 . S
C367 H391 0.930 1_455 S
H368 C363 0.931 . S
Co369 N366 2.135 1_655 S
Co369 N372 2.121 . S
Co369 O377 2.055 . S
Co369 O380 2.039 . S
Co369 N383 2.140 . S
C370 O371 1.227 . S
C370 O380 1.265 . S
O371 C370 1.227 . S
N372 Co369 2.121 . S
N372 C374 1.375 . S
N372 C375 1.313 1_554 S
C373 C374 1.338 1_556 S
C373 N376 1.377 . S
C373 H393 0.930 . S
C374 N372 1.375 . S
C374 C373 1.338 1_554 S
C374 H378 0.931 . S
C375 N372 1.313 1_556 S
C375 N376 1.344 . S
C375 H379 0.930 . S
N376 C373 1.377 . S
N376 C375 1.344 . S
O377 Co369 2.055 . S
O377 C381 1.253 1_655 S
H378 C374 0.931 . S
H379 C375 0.930 . S
O380 Co369 2.039 . S
O380 C370 1.265 . S
C381 O377 1.253 1_455 S
C381 O382 1.227 1_554 S
O382 C381 1.227 1_556 S
N383 Co369 2.140 . S
N383 C386 1.346 . S
N383 C387 1.345 . S
C384 C385 1.387 . S
C384 C388 1.400 . S
C385 C384 1.387 . S
C385 C386 1.372 . S
C385 H394 0.927 1_655 S
C386 N383 1.346 . S
C386 C385 1.372 . S
C386 H389 0.928 . S
C387 N383 1.345 . S
C387 C388 1.371 . S
C387 H390 0.931 1_554 S
C388 C384 1.400 . S
C388 C387 1.371 . S
C388 H395 0.930 1_554 S
H389 C386 0.928 . S
H390 C387 0.931 1_556 S
H391 C367 0.930 1_655 S
H392 C364 0.930 . S
H393 C373 0.930 . S
H394 C385 0.927 1_455 S
H395 C388 0.930 1_556 S
C396 C397 1.351 . S
C396 N399 1.368 . S
C396 H401 0.931 . S
C397 C396 1.351 . S
C397 N398 1.373 . S
C397 H425 0.930 . S
N398 C397 1.373 . S
N398 C400 1.340 . S
N399 C396 1.368 . S
N399 C400 1.321 . S
N399 Co402 2.135 1_565 S
C400 N398 1.340 . S
C400 N399 1.321 . S
C400 H424 0.930 1_565 S
H401 C396 0.931 . S
Co402 N399 2.135 1_545 S
Co402 N405 2.121 . S
Co402 O410 2.055 . S
Co402 O413 2.039 . S
Co402 N416 2.140 . S
C403 O404 1.227 . S
C403 O413 1.265 . S
O404 C403 1.227 . S
N405 Co402 2.121 . S
N405 C407 1.375 . S
N405 C408 1.313 . S
C406 C407 1.338 . S
C406 N409 1.377 . S
C406 H426 0.930 . S
C407 N405 1.375 . S
C407 C406 1.338 . S
C407 H411 0.931 . S
C408 N405 1.313 . S
C408 N409 1.344 . S
C408 H412 0.930 . S
N409 C406 1.377 . S
N409 C408 1.344 . S
O410 Co402 2.055 . S
O410 C414 1.253 1_545 S
H411 C407 0.931 . S
H412 C408 0.930 . S
O413 Co402 2.039 . S
O413 C403 1.265 . S
C414 O410 1.253 1_565 S
C414 O415 1.227 . S
O415 C414 1.227 . S
N416 Co402 2.140 . S
N416 C419 1.346 . S
N416 C420 1.345 . S
C417 C418 1.387 . S
C417 C421 1.400 . S
C418 C417 1.387 . S
C418 C419 1.372 . S
C418 H427 0.927 1_545 S
C419 N416 1.346 . S
C419 C418 1.372 . S
C419 H422 0.928 . S
C420 N416 1.345 . S
C420 C421 1.371 . S
C420 H423 0.931 . S
C421 C417 1.400 . S
C421 C420 1.371 . S
C421 H428 0.930 . S
H422 C419 0.928 . S
H423 C420 0.931 . S
H424 C400 0.930 1_545 S
H425 C397 0.930 . S
H426 C406 0.930 . S
H427 C418 0.927 1_565 S
H428 C421 0.930 . S
C429 C430 1.351 . S
C429 N432 1.368 . S
C429 H434 0.931 . S
C430 C429 1.351 . S
C430 N431 1.373 . S
C430 H458 0.930 . S
N431 C430 1.373 . S
N431 C433 1.340 . S
N432 C429 1.368 . S
N432 C433 1.321 . S
N432 Co435 2.135 . S
C433 N431 1.340 . S
C433 N432 1.321 . S
C433 H457 0.930 . S
H434 C429 0.931 . S
Co435 N432 2.135 . S
Co435 N438 2.121 . S
Co435 O443 2.055 . S
Co435 O446 2.039 . S
Co435 N449 2.140 . S
C436 O437 1.227 . S
C436 O446 1.265 . S
O437 C436 1.227 . S
N438 Co435 2.121 . S
N438 C440 1.375 . S
N438 C441 1.313 1_556 S
C439 C440 1.338 1_554 S
C439 N442 1.377 . S
C439 H459 0.930 . S
C440 N438 1.375 . S
C440 C439 1.338 1_556 S
C440 H444 0.931 . S
C441 N438 1.313 1_554 S
C441 N442 1.344 . S
C441 H445 0.930 . S
N442 C439 1.377 . S
N442 C441 1.344 . S
O443 Co435 2.055 . S
O443 C447 1.253 . S
H444 C440 0.931 . S
H445 C441 0.930 . S
O446 Co435 2.039 . S
O446 C436 1.265 . S
C447 O443 1.253 . S
C447 O448 1.227 1_556 S
O448 C447 1.227 1_554 S
N449 Co435 2.140 . S
N449 C452 1.346 . S
N449 C453 1.345 . S
C450 C451 1.387 . S
C450 C454 1.391 . S
C451 C450 1.387 . S
C451 C452 1.369 . S
C451 H460 0.929 . S
C452 N449 1.346 . S
C452 C451 1.369 . S
C452 H455 0.928 . S
C453 N449 1.345 . S
C453 C454 1.371 . S
C453 H456 0.931 1_556 S
C454 C450 1.391 . S
C454 C453 1.371 . S
C454 H461 0.930 1_556 S
H455 C452 0.928 . S
H456 C453 0.931 1_554 S
H457 C433 0.930 . S
H458 C430 0.930 . S
H459 C439 0.930 . S
H460 C451 0.929 . S
H461 C454 0.930 1_554 S
C462 C463 1.351 . S
C462 N465 1.368 . S
C462 H467 0.931 . S
C463 C462 1.351 . S
C463 N464 1.373 . S
C463 H491 0.930 . S
N464 C463 1.373 . S
N464 C466 1.340 . S
N465 C462 1.368 . S
N465 C466 1.321 . S
N465 Co468 2.135 . S
C466 N464 1.340 . S
C466 N465 1.321 . S
C466 H490 0.930 . S
H467 C462 0.931 . S
Co468 N465 2.135 . S
Co468 N471 2.121 . S
Co468 O476 2.055 . S
Co468 O479 2.039 . S
Co468 N482 2.140 . S
C469 O470 1.227 . S
C469 O479 1.265 . S
O470 C469 1.227 . S
N471 Co468 2.121 . S
N471 C473 1.375 . S
N471 C474 1.313 . S
C472 C473 1.338 . S
C472 N475 1.377 . S
C472 H492 0.930 . S
C473 N471 1.375 . S
C473 C472 1.338 . S
C473 H477 0.931 . S
C474 N471 1.313 . S
C474 N475 1.344 . S
C474 H478 0.930 . S
N475 C472 1.377 . S
N475 C474 1.344 . S
O476 Co468 2.055 . S
O476 C480 1.253 . S
H477 C473 0.931 . S
H478 C474 0.930 . S
O479 Co468 2.039 . S
O479 C469 1.265 . S
C480 O476 1.253 . S
C480 O481 1.227 . S
O481 C480 1.227 . S
N482 Co468 2.140 . S
N482 C485 1.346 . S
N482 C486 1.345 . S
C483 C484 1.387 . S
C483 C487 1.391 . S
C484 C483 1.387 . S
C484 C485 1.369 . S
C484 H493 0.929 . S
C485 N482 1.346 . S
C485 C484 1.369 . S
C485 H488 0.928 . S
C486 N482 1.345 . S
C486 C487 1.371 . S
C486 H489 0.931 . S
C487 C483 1.391 . S
C487 C486 1.371 . S
C487 H494 0.930 . S
H488 C485 0.928 . S
H489 C486 0.931 . S
H490 C466 0.930 . S
H491 C463 0.930 . S
H492 C472 0.930 . S
H493 C484 0.929 . S
H494 C487 0.930 . S
C495 C496 1.351 . S
C495 N498 1.368 . S
C495 H500 0.931 . S
C496 C495 1.351 . S
C496 N497 1.373 . S
C496 H524 0.930 . S
N497 C496 1.373 . S
N497 C499 1.340 . S
N498 C495 1.368 . S
N498 C499 1.321 . S
N498 Co501 2.135 1_655 S
C499 N497 1.340 . S
C499 N498 1.321 . S
C499 H523 0.930 1_655 S
H500 C495 0.931 . S
Co501 N498 2.135 1_455 S
Co501 N504 2.121 . S
Co501 O509 2.055 . S
Co501 O512 2.039 . S
Co501 N515 2.140 . S
C502 O503 1.227 . S
C502 O512 1.265 . S
O503 C502 1.227 . S
N504 Co501 2.121 . S
N504 C506 1.375 . S
N504 C507 1.313 1_556 S
C505 C506 1.338 1_554 S
C505 N508 1.377 . S
C505 H525 0.930 . S
C506 N504 1.375 . S
C506 C505 1.338 1_556 S
C506 H510 0.931 . S
C507 N504 1.313 1_554 S
C507 N508 1.344 . S
C507 H511 0.930 . S
N508 C505 1.377 . S
N508 C507 1.344 . S
O509 Co501 2.055 . S
O509 C513 1.253 1_455 S
H510 C506 0.931 . S
H511 C507 0.930 . S
O512 Co501 2.039 . S
O512 C502 1.265 . S
C513 O509 1.253 1_655 S
C513 O514 1.227 1_556 S
O514 C513 1.227 1_554 S
N515 Co501 2.140 . S
N515 C518 1.346 . S
N515 C519 1.345 . S
C516 C517 1.387 . S
C516 C520 1.400 . S
C517 C516 1.387 . S
C517 C518 1.372 . S
C517 H526 0.927 1_455 S
C518 N515 1.346 . S
C518 C517 1.372 . S
C518 H521 0.928 . S
C519 N515 1.345 . S
C519 C520 1.371 . S
C519 H522 0.931 1_556 S
C520 C516 1.400 . S
C520 C519 1.371 . S
C520 H527 0.930 1_556 S
H521 C518 0.928 . S
H522 C519 0.931 1_554 S
H523 C499 0.930 1_455 S
H524 C496 0.930 . S
H525 C505 0.930 . S
H526 C517 0.927 1_655 S
H527 C520 0.930 1_554 S
H528 C540 0.930 . S
H529 C542 0.930 . S
H530 C543 0.930 . S
H531 C547 0.959 . S
H532 C547 0.959 . S
H533 C547 0.961 1_655 S
H534 C548 0.960 1_655 S
H535 C548 0.961 . S
H536 C548 0.960 . S
H537 C551 0.929 . S
H538 C552 0.931 . S
H539 C554 0.930 . S
C540 H528 0.930 . S
C540 C541 1.399 . S
C540 C545 1.399 . S
C541 C540 1.399 . S
C541 C542 1.376 1_545 S
C542 H529 0.930 . S
C542 C541 1.376 1_565 S
C542 C543 1.388 . S
C543 H530 0.930 . S
C543 C542 1.388 . S
C543 C544 1.390 . S
C544 C543 1.390 . S
C544 C545 1.394 1_565 S
C544 C550 1.465 1_655 S
C545 C540 1.399 . S
C545 C544 1.394 1_545 S
C545 C546 1.516 1_655 S
C546 C545 1.516 1_455 S
C546 C547 1.502 . S
C546 C548 1.561 . S
C546 C549 1.526 . S
C547 H531 0.959 . S
C547 H532 0.959 . S
C547 H533 0.961 1_455 S
C547 C546 1.502 . S
C548 H534 0.960 1_455 S
C548 H535 0.961 . S
C548 H536 0.960 . S
C548 C546 1.561 . S
C549 C546 1.526 . S
C549 C550 1.396 1_545 S
C549 C554 1.390 . S
C550 C544 1.465 1_455 S
C550 C549 1.396 1_565 S
C550 C551 1.399 . S
C551 H537 0.929 . S
C551 C550 1.399 . S
C551 C552 1.385 . S
C552 H538 0.931 . S
C552 C551 1.385 . S
C552 C553 1.389 . S
C553 C552 1.389 . S
C553 C554 1.387 1_565 S
C554 H539 0.930 . S
C554 C549 1.390 . S
C554 C553 1.387 1_545 S
H555 C567 0.930 . S
H556 C569 0.930 . S
H557 C570 0.930 . S
H558 C574 0.959 . S
H559 C574 0.959 1_565 S
H560 C574 0.961 . S
H561 C575 0.960 . S
H562 C575 0.961 1_565 S
H563 C575 0.959 1_565 S
H564 C578 0.929 . S
H565 C579 0.931 . S
H566 C581 0.930 . S
C567 H555 0.930 . S
C567 C568 1.399 1_556 S
C567 C572 1.399 . S
C568 C567 1.399 1_554 S
C568 C569 1.376 . S
C569 H556 0.930 . S
C569 C568 1.376 . S
C569 C570 1.388 . S
C570 H557 0.930 . S
C570 C569 1.388 . S
C570 C571 1.390 . S
C571 C570 1.390 . S
C571 C572 1.394 1_554 S
C571 C577 1.465 1_545 S
C572 C567 1.399 . S
C572 C571 1.394 1_556 S
C572 C573 1.516 . S
C573 C572 1.516 . S
C573 C574 1.502 . S
C573 C575 1.561 . S
C573 C576 1.526 1_545 S
C574 H558 0.959 . S
C574 H559 0.959 1_545 S
C574 H560 0.961 . S
C574 C573 1.502 . S
C575 H561 0.960 . S
C575 H562 0.961 1_545 S
C575 H563 0.959 1_545 S
C575 C573 1.561 . S
C576 C573 1.526 1_565 S
C576 C577 1.396 1_556 S
C576 C581 1.390 . S
C577 C571 1.465 1_565 S
C577 C576 1.396 1_554 S
C577 C578 1.399 . S
C578 H564 0.929 . S
C578 C577 1.399 . S
C578 C579 1.385 . S
C579 H565 0.931 . S
C579 C578 1.385 . S
C579 C580 1.389 1_554 S
C580 C579 1.389 1_556 S
C580 C581 1.387 . S
C581 H566 0.930 . S
C581 C576 1.390 . S
C581 C580 1.387 . S
H582 C594 0.930 . S
H583 C596 0.930 . S
H584 C597 0.930 . S
H585 C601 0.959 . S
H586 C601 0.959 . S
H587 C601 0.961 . S
H588 C602 0.960 . S
H589 C602 0.961 . S
H590 C602 0.959 . S
H591 C605 0.929 . S
H592 C606 0.931 . S
H593 C608 0.930 . S
C594 H582 0.930 . S
C594 C595 1.399 . S
C594 C599 1.399 . S
C595 C594 1.399 . S
C595 C596 1.376 . S
C596 H583 0.930 . S
C596 C595 1.376 . S
C596 C597 1.388 . S
C597 H584 0.930 . S
C597 C596 1.388 . S
C597 C598 1.390 . S
C598 C597 1.390 . S
C598 C599 1.394 . S
C598 C604 1.465 . S
C599 C594 1.399 . S
C599 C598 1.394 . S
C599 C600 1.516 . S
C600 C599 1.516 . S
C600 C601 1.502 . S
C600 C602 1.561 . S
C600 C603 1.526 . S
C601 H585 0.959 . S
C601 H586 0.959 . S
C601 H587 0.961 . S
C601 C600 1.502 . S
C602 H588 0.960 . S
C602 H589 0.961 . S
C602 H590 0.959 . S
C602 C600 1.561 . S
C603 C600 1.526 . S
C603 C604 1.396 . S
C603 C608 1.390 . S
C604 C598 1.465 . S
C604 C603 1.396 . S
C604 C605 1.399 . S
C605 H591 0.929 . S
C605 C604 1.399 . S
C605 C606 1.385 . S
C606 H592 0.931 . S
C606 C605 1.385 . S
C606 C607 1.389 . S
C607 C606 1.389 . S
C607 C608 1.387 . S
C608 H593 0.930 . S
C608 C603 1.390 . S
C608 C607 1.387 . S
H609 C621 0.930 1_655 S
H610 C623 0.930 . S
H611 C624 0.930 . S
H612 C628 0.959 . S
H613 C628 0.959 . S
H614 C628 0.961 . S
H615 C629 0.960 . S
H616 C629 0.961 . S
H617 C629 0.959 . S
H618 C632 0.929 . S
H619 C633 0.931 . S
H620 C635 0.930 . S
C621 H609 0.930 1_455 S
C621 C622 1.399 . S
C621 C626 1.400 . S
C622 C621 1.399 . S
C622 C623 1.376 1_556 S
C623 H610 0.930 . S
C623 C622 1.376 1_554 S
C623 C624 1.388 . S
C624 H611 0.930 . S
C624 C623 1.388 . S
C624 C625 1.390 . S
C625 C624 1.390 . S
C625 C626 1.405 1_554 S
C625 C631 1.465 . S
C626 C621 1.400 . S
C626 C625 1.405 1_556 S
C626 C627 1.507 1_455 S
C627 C626 1.507 1_655 S
C627 C628 1.502 . S
C627 C629 1.561 1_655 S
C627 C630 1.526 . S
C628 H612 0.959 . S
C628 H613 0.959 . S
C628 H614 0.961 . S
C628 C627 1.502 . S
C629 H615 0.960 . S
C629 H616 0.961 . S
C629 H617 0.959 . S
C629 C627 1.561 1_455 S
C630 C627 1.526 . S
C630 C631 1.396 1_656 S
C630 C635 1.390 . S
C631 C625 1.465 . S
C631 C630 1.396 1_454 S
C631 C632 1.399 . S
C632 H618 0.929 . S
C632 C631 1.399 . S
C632 C633 1.385 . S
C633 H619 0.931 . S
C633 C632 1.385 . S
C633 C634 1.389 1_455 S
C634 C633 1.389 1_655 S
C634 C635 1.387 1_554 S
C635 H620 0.930 . S
C635 C630 1.390 . S
C635 C634 1.387 1_556 S
H636 C648 0.930 . S
H637 C650 0.930 . S
H638 C651 0.930 . S
H639 C655 0.959 . S
H640 C655 0.959 . S
H641 C655 0.961 . S
H642 C656 0.960 . S
H643 C656 0.961 . S
H644 C656 0.959 . S
H645 C659 0.926 1_545 S
H646 C660 0.931 . S
H647 C662 0.930 . S
C648 H636 0.930 . S
C648 C649 1.399 . S
C648 C653 1.399 1_545 S
C649 C648 1.399 . S
C649 C650 1.376 . S
C650 H637 0.930 . S
C650 C649 1.376 . S
C650 C651 1.388 . S
C651 H638 0.930 . S
C651 C650 1.388 . S
C651 C652 1.390 . S
C652 C651 1.390 . S
C652 C653 1.394 1_545 S
C652 C658 1.465 1_545 S
C653 C648 1.399 1_565 S
C653 C652 1.394 1_565 S
C653 C654 1.516 . S
C654 C653 1.516 . S
C654 C655 1.502 1_565 S
C654 C656 1.561 . S
C654 C657 1.526 . S
C655 H639 0.959 . S
C655 H640 0.959 . S
C655 H641 0.961 . S
C655 C654 1.502 1_545 S
C656 H642 0.960 . S
C656 H643 0.961 . S
C656 H644 0.959 . S
C656 C654 1.561 . S
C657 C654 1.526 . S
C657 C658 1.396 . S
C657 C662 1.390 . S
C658 C652 1.465 1_565 S
C658 C657 1.396 . S
C658 C659 1.400 . S
C659 H645 0.926 1_565 S
C659 C658 1.400 . S
C659 C660 1.388 . S
C660 H646 0.931 . S
C660 C659 1.388 . S
C660 C661 1.389 . S
C661 C660 1.389 . S
C661 C662 1.387 . S
C662 H647 0.930 . S
C662 C657 1.390 . S
C662 C661 1.387 . S
H663 C675 0.930 . S
H664 C677 0.930 . S
H665 C678 0.930 . S
H666 C682 0.959 . S
H667 C682 0.959 . S
H668 C682 0.961 . S
H669 C683 0.960 . S
H670 C683 0.961 . S
H671 C683 0.959 . S
H672 C686 0.929 . S
H673 C687 0.931 . S
H674 C689 0.930 . S
C675 H663 0.930 . S
C675 C676 1.399 . S
C675 C680 1.399 . S
C676 C675 1.399 . S
C676 C677 1.376 1_556 S
C677 H664 0.930 . S
C677 C676 1.376 1_554 S
C677 C678 1.388 . S
C678 H665 0.930 . S
C678 C677 1.388 . S
C678 C679 1.390 . S
C679 C678 1.390 . S
C679 C680 1.394 1_554 S
C679 C685 1.465 . S
C680 C675 1.399 . S
C680 C679 1.394 1_556 S
C680 C681 1.516 . S
C681 C680 1.516 . S
C681 C682 1.502 . S
C681 C683 1.561 . S
C681 C684 1.526 . S
C682 H666 0.959 . S
C682 H667 0.959 . S
C682 H668 0.961 . S
C682 C681 1.502 . S
C683 H669 0.960 . S
C683 H670 0.961 . S
C683 H671 0.959 . S
C683 C681 1.561 . S
C684 C681 1.526 . S
C684 C685 1.396 1_556 S
C684 C689 1.390 . S
C685 C679 1.465 . S
C685 C684 1.396 1_554 S
C685 C686 1.399 . S
C686 H672 0.929 . S
C686 C685 1.399 . S
C686 C687 1.385 . S
C687 H673 0.931 . S
C687 C686 1.385 . S
C687 C688 1.389 . S
C688 C687 1.389 . S
C688 C689 1.387 1_554 S
C689 H674 0.930 . S
C689 C684 1.390 . S
C689 C688 1.387 1_556 S
H690 C702 0.930 . S
H691 C704 0.930 . S
H692 C705 0.930 . S
H693 C709 0.959 . S
H694 C709 0.959 1_455 S
H695 C709 0.961 . S
H696 C710 0.960 . S
H697 C710 0.961 1_455 S
H698 C710 0.959 1_455 S
H699 C713 0.929 . S
H700 C714 0.931 . S
H701 C716 0.930 . S
C702 H690 0.930 . S
C702 C703 1.399 . S
C702 C707 1.399 . S
C703 C702 1.399 . S
C703 C704 1.376 . S
C704 H691 0.930 . S
C704 C703 1.376 . S
C704 C705 1.388 . S
C705 H692 0.930 . S
C705 C704 1.388 . S
C705 C706 1.390 . S
C706 C705 1.390 . S
C706 C707 1.394 . S
C706 C712 1.465 1_655 S
C707 C702 1.399 . S
C707 C706 1.394 . S
C707 C708 1.516 . S
C708 C707 1.516 . S
C708 C709 1.502 . S
C708 C710 1.561 . S
C708 C711 1.526 1_655 S
C709 H693 0.959 . S
C709 H694 0.959 1_655 S
C709 H695 0.961 . S
C709 C708 1.502 . S
C710 H696 0.960 . S
C710 H697 0.961 1_655 S
C710 H698 0.959 1_655 S
C710 C708 1.561 . S
C711 C708 1.526 1_455 S
C711 C712 1.396 . S
C711 C716 1.390 . S
C712 C706 1.465 1_455 S
C712 C711 1.396 . S
C712 C713 1.399 . S
C713 H699 0.929 . S
C713 C712 1.399 . S
C713 C714 1.385 . S
C714 H700 0.931 . S
C714 C713 1.385 . S
C714 C715 1.389 . S
C715 C714 1.389 . S
C715 C716 1.387 . S
C716 H701 0.930 . S
C716 C711 1.390 . S
C716 C715 1.387 . S
H717 C729 0.930 . S
H718 C731 0.930 . S
H719 C732 0.935 . S
H720 C736 0.959 . S
H721 C736 0.959 1_545 S
H722 C736 0.961 . S
H723 C737 0.960 1_565 S
H724 C737 0.961 . S
H725 C737 0.959 . S
H726 C740 0.929 . S
H727 C741 0.931 . S
H728 C743 0.930 . S
C729 H717 0.930 . S
C729 C730 1.399 1_554 S
C729 C734 1.399 . S
C730 C729 1.399 1_556 S
C730 C731 1.376 . S
C731 H718 0.930 . S
C731 C730 1.376 . S
C731 C732 1.388 . S
C732 H719 0.935 . S
C732 C731 1.388 . S
C732 C733 1.390 . S
C733 C732 1.390 . S
C733 C734 1.394 1_556 S
C733 C739 1.458 1_465 S
C734 C729 1.399 . S
C734 C733 1.394 1_554 S
C734 C735 1.551 . S
C735 C734 1.551 . S
C735 C736 1.508 1_455 S
C735 C737 1.557 1_565 S
C735 C738 1.495 1_565 S
C736 H720 0.959 . S
C736 H721 0.959 1_565 S
C736 H722 0.961 . S
C736 C735 1.508 1_655 S
C737 H723 0.960 1_545 S
C737 H724 0.961 . S
C737 H725 0.959 . S
C737 C735 1.557 1_545 S
C738 C735 1.495 1_545 S
C738 C739 1.393 1_454 S
C738 C743 1.386 1_455 S
C739 C733 1.458 1_645 S
C739 C738 1.393 1_656 S
C739 C740 1.410 . S
C740 H726 0.929 . S
C740 C739 1.410 . S
C740 C741 1.385 . S
C741 H727 0.931 . S
C741 C740 1.385 . S
C741 C742 1.389 1_556 S
C742 C741 1.389 1_554 S
C742 C743 1.387 . S
C743 H728 0.930 . S
C743 C738 1.386 1_655 S
C743 C742 1.387 . S
H744 C756 0.930 . S
H745 C758 0.930 . S
H746 C759 0.930 . S
H747 C763 0.959 . S
H748 C763 0.959 . S
H749 C763 0.961 . S
H750 C764 0.960 . S
H751 C764 0.961 . S
H752 C764 0.959 . S
H753 C767 0.929 . S
H754 C768 0.931 . S
H755 C770 0.930 . S
C756 H744 0.930 . S
C756 C757 1.399 . S
C756 C761 1.399 . S
C757 C756 1.399 . S
C757 C758 1.376 . S
C758 H745 0.930 . S
C758 C757 1.376 . S
C758 C759 1.388 . S
C759 H746 0.930 . S
C759 C758 1.388 . S
C759 C760 1.390 . S
C760 C759 1.390 . S
C760 C761 1.394 . S
C760 C766 1.465 . S
C761 C756 1.399 . S
C761 C760 1.394 . S
C761 C762 1.516 . S
C762 C761 1.516 . S
C762 C763 1.502 . S
C762 C764 1.561 . S
C762 C765 1.526 . S
C763 H747 0.959 . S
C763 H748 0.959 . S
C763 H749 0.961 . S
C763 C762 1.502 . S
C764 H750 0.960 . S
C764 H751 0.961 . S
C764 H752 0.959 . S
C764 C762 1.561 . S
C765 C762 1.526 . S
C765 C766 1.396 . S
C765 C770 1.390 . S
C766 C760 1.465 . S
C766 C765 1.396 . S
C766 C767 1.399 . S
C767 H753 0.929 . S
C767 C766 1.399 . S
C767 C768 1.385 . S
C768 H754 0.931 . S
C768 C767 1.385 . S
C768 C769 1.389 . S
C769 C768 1.389 . S
C769 C770 1.387 . S
C770 H755 0.930 . S
C770 C765 1.390 . S
C770 C769 1.387 . S
H771 C783 0.930 . S
H772 C785 0.930 . S
H773 C786 0.930 . S
H774 C790 0.959 . S
H775 C790 0.959 . S
H776 C790 0.961 . S
H777 C791 0.960 . S
H778 C791 0.961 . S
H779 C791 0.959 . S
H780 C794 0.929 . S
H781 C795 0.931 . S
H782 C797 0.930 . S
C783 H771 0.930 . S
C783 C784 1.399 . S
C783 C788 1.399 . S
C784 C783 1.399 . S
C784 C785 1.376 . S
C785 H772 0.930 . S
C785 C784 1.376 . S
C785 C786 1.388 . S
C786 H773 0.930 . S
C786 C785 1.388 . S
C786 C787 1.390 . S
C787 C786 1.390 . S
C787 C788 1.394 . S
C787 C793 1.465 . S
C788 C783 1.399 . S
C788 C787 1.394 . S
C788 C789 1.516 . S
C789 C788 1.516 . S
C789 C790 1.502 . S
C789 C791 1.561 . S
C789 C792 1.526 . S
C790 H774 0.959 . S
C790 H775 0.959 . S
C790 H776 0.961 . S
C790 C789 1.502 . S
C791 H777 0.960 . S
C791 H778 0.961 . S
C791 H779 0.959 . S
C791 C789 1.561 . S
C792 C789 1.526 . S
C792 C793 1.396 . S
C792 C797 1.390 . S
C793 C787 1.465 . S
C793 C792 1.396 . S
C793 C794 1.399 . S
C794 H780 0.929 . S
C794 C793 1.399 . S
C794 C795 1.385 . S
C795 H781 0.931 . S
C795 C794 1.385 . S
C795 C796 1.389 . S
C796 C795 1.389 . S
C796 C797 1.387 . S
C797 H782 0.930 . S
C797 C792 1.390 . S
C797 C796 1.387 . S
H798 C810 0.930 . S
H799 C812 0.930 . S
H800 C813 0.930 . S
H801 C817 0.959 . S
H802 C817 0.959 . S
H803 C817 0.961 . S
H804 C818 0.960 . S
H805 C818 0.961 . S
H806 C818 0.959 . S
H807 C821 0.929 . S
H808 C822 0.931 . S
H809 C824 0.930 . S
C810 H798 0.930 . S
C810 C811 1.399 . S
C810 C815 1.399 . S
C811 C810 1.399 . S
C811 C812 1.376 . S
C812 H799 0.930 . S
C812 C811 1.376 . S
C812 C813 1.388 . S
C813 H800 0.930 . S
C813 C812 1.388 . S
C813 C814 1.390 . S
C814 C813 1.390 . S
C814 C815 1.394 . S
C814 C820 1.465 . S
C815 C810 1.399 . S
C815 C814 1.394 . S
C815 C816 1.516 . S
C816 C815 1.516 . S
C816 C817 1.502 . S
C816 C818 1.561 . S
C816 C819 1.526 . S
C817 H801 0.959 . S
C817 H802 0.959 . S
C817 H803 0.961 . S
C817 C816 1.502 . S
C818 H804 0.960 . S
C818 H805 0.961 . S
C818 H806 0.959 . S
C818 C816 1.561 . S
C819 C816 1.526 . S
C819 C820 1.396 . S
C819 C824 1.390 . S
C820 C814 1.465 . S
C820 C819 1.396 . S
C820 C821 1.399 . S
C821 H807 0.929 . S
C821 C820 1.399 . S
C821 C822 1.385 . S
C822 H808 0.931 . S
C822 C821 1.385 . S
C822 C823 1.389 . S
C823 C822 1.389 . S
C823 C824 1.387 . S
C824 H809 0.930 . S
C824 C819 1.390 . S
C824 C823 1.387 . S
H825 C837 0.930 . S
H826 C839 0.930 . S
H827 C840 0.930 . S
H828 C844 0.959 . S
H829 C844 0.959 . S
H830 C844 0.961 . S
H831 C845 0.960 . S
H832 C845 0.961 . S
H833 C845 0.959 . S
H834 C848 0.929 . S
H835 C849 0.931 . S
H836 C851 0.930 . S
C837 H825 0.930 . S
C837 C838 1.399 . S
C837 C842 1.399 . S
C838 C837 1.399 . S
C838 C839 1.376 . S
C839 H826 0.930 . S
C839 C838 1.376 . S
C839 C840 1.388 . S
C840 H827 0.930 . S
C840 C839 1.388 . S
C840 C841 1.390 . S
C841 C840 1.390 . S
C841 C842 1.394 . S
C841 C847 1.465 . S
C842 C837 1.399 . S
C842 C841 1.394 . S
C842 C843 1.516 . S
C843 C842 1.516 . S
C843 C844 1.502 . S
C843 C845 1.561 . S
C843 C846 1.526 . S
C844 H828 0.959 . S
C844 H829 0.959 . S
C844 H830 0.961 . S
C844 C843 1.502 . S
C845 H831 0.960 . S
C845 H832 0.961 . S
C845 H833 0.959 . S
C845 C843 1.561 . S
C846 C843 1.526 . S
C846 C847 1.396 . S
C846 C851 1.390 . S
C847 C841 1.465 . S
C847 C846 1.396 . S
C847 C848 1.399 . S
C848 H834 0.929 . S
C848 C847 1.399 . S
C848 C849 1.385 . S
C849 H835 0.931 . S
C849 C848 1.385 . S
C849 C850 1.389 . S
C850 C849 1.389 . S
C850 C851 1.387 . S
C851 H836 0.930 . S
C851 C846 1.390 . S
C851 C850 1.387 . S
H852 C864 0.930 . S
H853 C866 0.930 . S
H854 C867 0.930 . S
H855 C871 0.959 . S
H856 C871 0.959 . S
H857 C871 0.961 . S
H858 C872 0.960 . S
H859 C872 0.961 . S
H860 C872 0.959 . S
H861 C875 0.929 . S
H862 C876 0.931 . S
H863 C878 0.930 . S
C864 H852 0.930 . S
C864 C865 1.399 . S
C864 C869 1.399 . S
C865 C864 1.399 . S
C865 C866 1.376 . S
C866 H853 0.930 . S
C866 C865 1.376 . S
C866 C867 1.388 . S
C867 H854 0.930 . S
C867 C866 1.388 . S
C867 C868 1.390 . S
C868 C867 1.390 . S
C868 C869 1.394 . S
C868 C874 1.465 . S
C869 C864 1.399 . S
C869 C868 1.394 . S
C869 C870 1.516 . S
C870 C869 1.516 . S
C870 C871 1.502 . S
C870 C872 1.561 . S
C870 C873 1.526 . S
C871 H855 0.959 . S
C871 H856 0.959 . S
C871 H857 0.961 . S
C871 C870 1.502 . S
C872 H858 0.960 . S
C872 H859 0.961 . S
C872 H860 0.959 . S
C872 C870 1.561 . S
C873 C870 1.526 . S
C873 C874 1.396 . S
C873 C878 1.390 . S
C874 C868 1.465 . S
C874 C873 1.396 . S
C874 C875 1.399 . S
C875 H861 0.929 . S
C875 C874 1.399 . S
C875 C876 1.385 . S
C876 H862 0.931 . S
C876 C875 1.385 . S
C876 C877 1.389 . S
C877 C876 1.389 . S
C877 C878 1.387 . S
C878 H863 0.930 . S
C878 C873 1.390 . S
C878 C877 1.387 . S
H879 C891 0.930 . S
H880 C893 0.930 . S
H881 C894 0.930 . S
H882 C898 0.959 . S
H883 C898 0.959 . S
H884 C898 0.961 . S
H885 C899 0.960 . S
H886 C899 0.961 . S
H887 C899 0.959 . S
H888 C902 0.929 . S
H889 C903 0.931 . S
H890 C905 0.930 . S
C891 H879 0.930 . S
C891 C892 1.399 . S
C891 C896 1.399 . S
C892 C891 1.399 . S
C892 C893 1.376 . S
C893 H880 0.930 . S
C893 C892 1.376 . S
C893 C894 1.388 . S
C894 H881 0.930 . S
C894 C893 1.388 . S
C894 C895 1.390 . S
C895 C894 1.390 . S
C895 C896 1.394 . S
C895 C901 1.465 . S
C896 C891 1.399 . S
C896 C895 1.394 . S
C896 C897 1.516 . S
C897 C896 1.516 . S
C897 C898 1.502 . S
C897 C899 1.561 . S
C897 C900 1.526 . S
C898 H882 0.959 . S
C898 H883 0.959 . S
C898 H884 0.961 . S
C898 C897 1.502 . S
C899 H885 0.960 . S
C899 H886 0.961 . S
C899 H887 0.959 . S
C899 C897 1.561 . S
C900 C897 1.526 . S
C900 C901 1.396 . S
C900 C905 1.390 . S
C901 C895 1.465 . S
C901 C900 1.396 . S
C901 C902 1.399 . S
C902 H888 0.929 . S
C902 C901 1.399 . S
C902 C903 1.385 . S
C903 H889 0.931 . S
C903 C902 1.385 . S
C903 C904 1.389 . S
C904 C903 1.389 . S
C904 C905 1.387 . S
C905 H890 0.930 . S
C905 C900 1.390 . S
C905 C904 1.387 . S
H906 C918 0.930 . S
H907 C920 0.930 . S
H908 C921 0.930 . S
H909 C925 0.959 . S
H910 C925 0.959 . S
H911 C925 0.961 . S
H912 C926 0.960 . S
H913 C926 0.961 . S
H914 C926 0.959 . S
H915 C929 0.929 . S
H916 C930 0.931 . S
H917 C932 0.930 . S
C918 H906 0.930 . S
C918 C919 1.399 . S
C918 C923 1.399 . S
C919 C918 1.399 . S
C919 C920 1.376 . S
C920 H907 0.930 . S
C920 C919 1.376 . S
C920 C921 1.388 . S
C921 H908 0.930 . S
C921 C920 1.388 . S
C921 C922 1.390 . S
C922 C921 1.390 . S
C922 C923 1.394 . S
C922 C928 1.465 . S
C923 C918 1.399 . S
C923 C922 1.394 . S
C923 C924 1.516 . S
C924 C923 1.516 . S
C924 C925 1.502 . S
C924 C926 1.561 . S
C924 C927 1.526 . S
C925 H909 0.959 . S
C925 H910 0.959 . S
C925 H911 0.961 . S
C925 C924 1.502 . S
C926 H912 0.960 . S
C926 H913 0.961 . S
C926 H914 0.959 . S
C926 C924 1.561 . S
C927 C924 1.526 . S
C927 C928 1.396 . S
C927 C932 1.390 . S
C928 C922 1.465 . S
C928 C927 1.396 . S
C928 C929 1.399 . S
C929 H915 0.929 . S
C929 C928 1.399 . S
C929 C930 1.385 . S
C930 H916 0.931 . S
C930 C929 1.385 . S
C930 C931 1.389 . S
C931 C930 1.389 . S
C931 C932 1.387 . S
C932 H917 0.930 . S
C932 C927 1.390 . S
C932 C931 1.387 . S
H933 C945 0.930 . S
H934 C947 0.930 . S
H935 C948 0.930 . S
H936 C952 0.959 . S
H937 C952 0.959 . S
H938 C952 0.961 . S
H939 C953 0.960 . S
H940 C953 0.961 . S
H941 C953 0.959 . S
H942 C956 0.929 . S
H943 C957 0.931 . S
H944 C959 0.930 . S
C945 H933 0.930 . S
C945 C946 1.399 . S
C945 C950 1.399 . S
C946 C945 1.399 . S
C946 C947 1.376 . S
C947 H934 0.930 . S
C947 C946 1.376 . S
C947 C948 1.388 . S
C948 H935 0.930 . S
C948 C947 1.388 . S
C948 C949 1.390 . S
C949 C948 1.390 . S
C949 C950 1.394 . S
C949 C955 1.465 . S
C950 C945 1.399 . S
C950 C949 1.394 . S
C950 C951 1.516 . S
C951 C950 1.516 . S
C951 C952 1.502 . S
C951 C953 1.561 . S
C951 C954 1.526 . S
C952 H936 0.959 . S
C952 H937 0.959 . S
C952 H938 0.961 . S
C952 C951 1.502 . S
C953 H939 0.960 . S
C953 H940 0.961 . S
C953 H941 0.959 . S
C953 C951 1.561 . S
C954 C951 1.526 . S
C954 C955 1.396 . S
C954 C959 1.390 . S
C955 C949 1.465 . S
C955 C954 1.396 . S
C955 C956 1.399 . S
C956 H942 0.929 . S
C956 C955 1.399 . S
C956 C957 1.385 . S
C957 H943 0.931 . S
C957 C956 1.385 . S
C957 C958 1.389 . S
C958 C957 1.389 . S
C958 C959 1.387 . S
C959 H944 0.930 . S
C959 C954 1.390 . S
C959 C958 1.387 . S
H960 C972 0.930 . S
H961 C974 0.930 . S
H962 C975 0.930 . S
H963 C979 0.959 . S
H964 C979 0.959 . S
H965 C979 0.961 . S
H966 C980 0.960 . S
H967 C980 0.961 . S
H968 C980 0.959 . S
H969 C983 0.929 . S
H970 C984 0.931 . S
H971 C986 0.930 . S
C972 H960 0.930 . S
C972 C973 1.399 . S
C972 C977 1.399 . S
C973 C972 1.399 . S
C973 C974 1.376 . S
C974 H961 0.930 . S
C974 C973 1.376 . S
C974 C975 1.388 . S
C975 H962 0.930 . S
C975 C974 1.388 . S
C975 C976 1.390 . S
C976 C975 1.390 . S
C976 C977 1.394 . S
C976 C982 1.465 . S
C977 C972 1.399 . S
C977 C976 1.394 . S
C977 C978 1.516 . S
C978 C977 1.516 . S
C978 C979 1.502 . S
C978 C980 1.561 . S
C978 C981 1.526 . S
C979 H963 0.959 . S
C979 H964 0.959 . S
C979 H965 0.961 . S
C979 C978 1.502 . S
C980 H966 0.960 . S
C980 H967 0.961 . S
C980 H968 0.959 . S
C980 C978 1.561 . S
C981 C978 1.526 . S
C981 C982 1.396 . S
C981 C986 1.390 . S
C982 C976 1.465 . S
C982 C981 1.396 . S
C982 C983 1.399 . S
C983 H969 0.929 . S
C983 C982 1.399 . S
C983 C984 1.385 . S
C984 H970 0.931 . S
C984 C983 1.385 . S
C984 C985 1.389 . S
C985 C984 1.389 . S
C985 C986 1.387 . S
C986 H971 0.930 . S
C986 C981 1.390 . S
C986 C985 1.387 . S
H987 C999 0.930 . S
H988 C1001 0.930 . S
H989 C1002 0.930 . S
H990 C1006 0.959 . S
H991 C1006 0.959 . S
H992 C1006 0.961 . S
H993 C1007 0.960 . S
H994 C1007 0.961 . S
H995 C1007 0.959 . S
H996 C1010 0.929 . S
H997 C1011 0.931 . S
H998 C1013 0.930 . S
C999 H987 0.930 . S
C999 C1000 1.399 . S
C999 C1004 1.399 . S
C1000 C999 1.399 . S
C1000 C1001 1.376 . S
C1001 H988 0.930 . S
C1001 C1000 1.376 . S
C1001 C1002 1.388 . S
C1002 H989 0.930 . S
C1002 C1001 1.388 . S
C1002 C1003 1.390 . S
C1003 C1002 1.390 . S
C1003 C1004 1.394 . S
C1003 C1009 1.465 . S
C1004 C999 1.399 . S
C1004 C1003 1.394 . S
C1004 C1005 1.516 . S
C1005 C1004 1.516 . S
C1005 C1006 1.502 . S
C1005 C1007 1.561 . S
C1005 C1008 1.526 . S
C1006 H990 0.959 . S
C1006 H991 0.959 . S
C1006 H992 0.961 . S
C1006 C1005 1.502 . S
C1007 H993 0.960 . S
C1007 H994 0.961 . S
C1007 H995 0.959 . S
C1007 C1005 1.561 . S
C1008 C1005 1.526 . S
C1008 C1009 1.396 . S
C1008 C1013 1.390 . S
C1009 C1003 1.465 . S
C1009 C1008 1.396 . S
C1009 C1010 1.399 . S
C1010 H996 0.929 . S
C1010 C1009 1.399 . S
C1010 C1011 1.385 . S
C1011 H997 0.931 . S
C1011 C1010 1.385 . S
C1011 C1012 1.389 . S
C1012 C1011 1.389 . S
C1012 C1013 1.387 . S
C1013 H998 0.930 . S
C1013 C1008 1.390 . S
C1013 C1012 1.387 . S
H1014 C1026 0.930 . S
H1015 C1028 0.930 . S
H1016 C1029 0.930 . S
H1017 C1033 0.959 . S
H1018 C1033 0.959 . S
H1019 C1033 0.961 . S
H1020 C1034 0.960 . S
H1021 C1034 0.961 . S
H1022 C1034 0.959 . S
H1023 C1037 0.929 . S
H1024 C1038 0.931 . S
H1025 C1040 0.930 . S
C1026 H1014 0.930 . S
C1026 C1027 1.399 . S
C1026 C1031 1.399 . S
C1027 C1026 1.399 . S
C1027 C1028 1.376 . S
C1028 H1015 0.930 . S
C1028 C1027 1.376 . S
C1028 C1029 1.388 . S
C1029 H1016 0.930 . S
C1029 C1028 1.388 . S
C1029 C1030 1.390 . S
C1030 C1029 1.390 . S
C1030 C1031 1.394 . S
C1030 C1036 1.465 . S
C1031 C1026 1.399 . S
C1031 C1030 1.394 . S
C1031 C1032 1.516 . S
C1032 C1031 1.516 . S
C1032 C1033 1.502 . S
C1032 C1034 1.561 . S
C1032 C1035 1.526 . S
C1033 H1017 0.959 . S
C1033 H1018 0.959 . S
C1033 H1019 0.961 . S
C1033 C1032 1.502 . S
C1034 H1020 0.960 . S
C1034 H1021 0.961 . S
C1034 H1022 0.959 . S
C1034 C1032 1.561 . S
C1035 C1032 1.526 . S
C1035 C1036 1.396 . S
C1035 C1040 1.390 . S
C1036 C1030 1.465 . S
C1036 C1035 1.396 . S
C1036 C1037 1.399 . S
C1037 H1023 0.929 . S
C1037 C1036 1.399 . S
C1037 C1038 1.385 . S
C1038 H1024 0.931 . S
C1038 C1037 1.385 . S
C1038 C1039 1.389 . S
C1039 C1038 1.389 . S
C1039 C1040 1.387 . S
C1040 H1025 0.930 . S
C1040 C1035 1.390 . S
C1040 C1039 1.387 . S
H1041 C1053 0.930 . S
H1042 C1055 0.930 . S
H1043 C1056 0.930 . S
H1044 C1060 0.959 . S
H1045 C1060 0.959 . S
H1046 C1060 0.961 . S
H1047 C1061 0.960 . S
H1048 C1061 0.961 . S
H1049 C1061 0.959 . S
H1050 C1064 0.929 . S
H1051 C1065 0.931 . S
H1052 C1067 0.930 . S
C1053 H1041 0.930 . S
C1053 C1054 1.399 . S
C1053 C1058 1.399 . S
C1054 C1053 1.399 . S
C1054 C1055 1.376 . S
C1055 H1042 0.930 . S
C1055 C1054 1.376 . S
C1055 C1056 1.388 . S
C1056 H1043 0.930 . S
C1056 C1055 1.388 . S
C1056 C1057 1.390 . S
C1057 C1056 1.390 . S
C1057 C1058 1.394 . S
C1057 C1063 1.465 . S
C1058 C1053 1.399 . S
C1058 C1057 1.394 . S
C1058 C1059 1.516 . S
C1059 C1058 1.516 . S
C1059 C1060 1.502 . S
C1059 C1061 1.561 . S
C1059 C1062 1.526 . S
C1060 H1044 0.959 . S
C1060 H1045 0.959 . S
C1060 H1046 0.961 . S
C1060 C1059 1.502 . S
C1061 H1047 0.960 . S
C1061 H1048 0.961 . S
C1061 H1049 0.959 . S
C1061 C1059 1.561 . S
C1062 C1059 1.526 . S
C1062 C1063 1.396 . S
C1062 C1067 1.390 . S
C1063 C1057 1.465 . S
C1063 C1062 1.396 . S
C1063 C1064 1.399 . S
C1064 H1050 0.929 . S
C1064 C1063 1.399 . S
C1064 C1065 1.385 . S
C1065 H1051 0.931 . S
C1065 C1064 1.385 . S
C1065 C1066 1.389 . S
C1066 C1065 1.389 . S
C1066 C1067 1.387 . S
C1067 H1052 0.930 . S
C1067 C1062 1.390 . S
C1067 C1066 1.387 . S
H1068 C1080 0.930 . S
H1069 C1082 0.930 . S
H1070 C1083 0.930 . S
H1071 C1087 0.959 . S
H1072 C1087 0.959 . S
H1073 C1087 0.961 . S
H1074 C1088 0.960 . S
H1075 C1088 0.961 . S
H1076 C1088 0.959 . S
H1077 C1091 0.929 . S
H1078 C1092 0.931 . S
H1079 C1094 0.930 . S
C1080 H1068 0.930 . S
C1080 C1081 1.399 . S
C1080 C1085 1.399 . S
C1081 C1080 1.399 . S
C1081 C1082 1.376 . S
C1082 H1069 0.930 . S
C1082 C1081 1.376 . S
C1082 C1083 1.388 . S
C1083 H1070 0.930 . S
C1083 C1082 1.388 . S
C1083 C1084 1.390 . S
C1084 C1083 1.390 . S
C1084 C1085 1.394 . S
C1084 C1090 1.465 . S
C1085 C1080 1.399 . S
C1085 C1084 1.394 . S
C1085 C1086 1.516 . S
C1086 C1085 1.516 . S
C1086 C1087 1.502 . S
C1086 C1088 1.561 . S
C1086 C1089 1.526 . S
C1087 H1071 0.959 . S
C1087 H1072 0.959 . S
C1087 H1073 0.961 . S
C1087 C1086 1.502 . S
C1088 H1074 0.960 . S
C1088 H1075 0.961 . S
C1088 H1076 0.959 . S
C1088 C1086 1.561 . S
C1089 C1086 1.526 . S
C1089 C1090 1.396 . S
C1089 C1094 1.390 . S
C1090 C1084 1.465 . S
C1090 C1089 1.396 . S
C1090 C1091 1.399 . S
C1091 H1077 0.929 . S
C1091 C1090 1.399 . S
C1091 C1092 1.385 . S
C1092 H1078 0.931 . S
C1092 C1091 1.385 . S
C1092 C1093 1.389 . S
C1093 C1092 1.389 . S
C1093 C1094 1.387 . S
C1094 H1079 0.930 . S
C1094 C1089 1.390 . S
C1094 C1093 1.387 . S
H1095 C1107 0.930 . S
H1096 C1109 0.930 . S
H1097 C1110 0.930 . S
H1098 C1114 0.959 . S
H1099 C1114 0.959 . S
H1100 C1114 0.961 . S
H1101 C1115 0.960 . S
H1102 C1115 0.961 . S
H1103 C1115 0.959 . S
H1104 C1118 0.929 . S
H1105 C1119 0.931 . S
H1106 C1121 0.930 . S
C1107 H1095 0.930 . S
C1107 C1108 1.399 . S
C1107 C1112 1.399 . S
C1108 C1107 1.399 . S
C1108 C1109 1.376 . S
C1109 H1096 0.930 . S
C1109 C1108 1.376 . S
C1109 C1110 1.388 . S
C1110 H1097 0.930 . S
C1110 C1109 1.388 . S
C1110 C1111 1.390 . S
C1111 C1110 1.390 . S
C1111 C1112 1.394 . S
C1111 C1117 1.465 . S
C1112 C1107 1.399 . S
C1112 C1111 1.394 . S
C1112 C1113 1.516 . S
C1113 C1112 1.516 . S
C1113 C1114 1.502 . S
C1113 C1115 1.561 . S
C1113 C1116 1.526 . S
C1114 H1098 0.959 . S
C1114 H1099 0.959 . S
C1114 H1100 0.961 . S
C1114 C1113 1.502 . S
C1115 H1101 0.960 . S
C1115 H1102 0.961 . S
C1115 H1103 0.959 . S
C1115 C1113 1.561 . S
C1116 C1113 1.526 . S
C1116 C1117 1.396 . S
C1116 C1121 1.390 . S
C1117 C1111 1.465 . S
C1117 C1116 1.396 . S
C1117 C1118 1.399 . S
C1118 H1104 0.929 . S
C1118 C1117 1.399 . S
C1118 C1119 1.385 . S
C1119 H1105 0.931 . S
C1119 C1118 1.385 . S
C1119 C1120 1.389 . S
C1120 C1119 1.389 . S
C1120 C1121 1.387 . S
C1121 H1106 0.930 . S
C1121 C1116 1.390 . S
C1121 C1120 1.387 . S
H1122 C1134 0.930 . S
H1123 C1136 0.930 . S
H1124 C1137 0.930 . S
H1125 C1141 0.959 . S
H1126 C1141 0.959 . S
H1127 C1141 0.961 . S
H1128 C1142 0.960 . S
H1129 C1142 0.961 . S
H1130 C1142 0.959 . S
H1131 C1145 0.929 . S
H1132 C1146 0.931 . S
H1133 C1148 0.930 . S
C1134 H1122 0.930 . S
C1134 C1135 1.399 . S
C1134 C1139 1.399 . S
C1135 C1134 1.399 . S
C1135 C1136 1.376 . S
C1136 H1123 0.930 . S
C1136 C1135 1.376 . S
C1136 C1137 1.388 . S
C1137 H1124 0.930 . S
C1137 C1136 1.388 . S
C1137 C1138 1.390 . S
C1138 C1137 1.390 . S
C1138 C1139 1.394 . S
C1138 C1144 1.465 . S
C1139 C1134 1.399 . S
C1139 C1138 1.394 . S
C1139 C1140 1.516 . S
C1140 C1139 1.516 . S
C1140 C1141 1.502 . S
C1140 C1142 1.561 . S
C1140 C1143 1.526 . S
C1141 H1125 0.959 . S
C1141 H1126 0.959 . S
C1141 H1127 0.961 . S
C1141 C1140 1.502 . S
C1142 H1128 0.960 . S
C1142 H1129 0.961 . S
C1142 H1130 0.959 . S
C1142 C1140 1.561 . S
C1143 C1140 1.526 . S
C1143 C1144 1.396 . S
C1143 C1148 1.390 . S
C1144 C1138 1.465 . S
C1144 C1143 1.396 . S
C1144 C1145 1.399 . S
C1145 H1131 0.929 . S
C1145 C1144 1.399 . S
C1145 C1146 1.385 . S
C1146 H1132 0.931 . S
C1146 C1145 1.385 . S
C1146 C1147 1.389 . S
C1147 C1146 1.389 . S
C1147 C1148 1.387 . S
C1148 H1133 0.930 . S
C1148 C1143 1.390 . S
C1148 C1147 1.387 . S
H1149 C1161 0.930 . S
H1150 C1163 0.930 . S
H1151 C1164 0.930 . S
H1152 C1168 0.959 . S
H1153 C1168 0.959 . S
H1154 C1168 0.961 . S
H1155 C1169 0.960 . S
H1156 C1169 0.961 . S
H1157 C1169 0.959 . S
H1158 C1172 0.929 . S
H1159 C1173 0.931 . S
H1160 C1175 0.930 . S
C1161 H1149 0.930 . S
C1161 C1162 1.399 . S
C1161 C1166 1.399 . S
C1162 C1161 1.399 . S
C1162 C1163 1.376 . S
C1163 H1150 0.930 . S
C1163 C1162 1.376 . S
C1163 C1164 1.388 . S
C1164 H1151 0.930 . S
C1164 C1163 1.388 . S
C1164 C1165 1.390 . S
C1165 C1164 1.390 . S
C1165 C1166 1.394 . S
C1165 C1171 1.465 . S
C1166 C1161 1.399 . S
C1166 C1165 1.394 . S
C1166 C1167 1.516 . S
C1167 C1166 1.516 . S
C1167 C1168 1.502 . S
C1167 C1169 1.561 . S
C1167 C1170 1.526 . S
C1168 H1152 0.959 . S
C1168 H1153 0.959 . S
C1168 H1154 0.961 . S
C1168 C1167 1.502 . S
C1169 H1155 0.960 . S
C1169 H1156 0.961 . S
C1169 H1157 0.959 . S
C1169 C1167 1.561 . S
C1170 C1167 1.526 . S
C1170 C1171 1.396 . S
C1170 C1175 1.390 . S
C1171 C1165 1.465 . S
C1171 C1170 1.396 . S
C1171 C1172 1.399 . S
C1172 H1158 0.929 . S
C1172 C1171 1.399 . S
C1172 C1173 1.385 . S
C1173 H1159 0.931 . S
C1173 C1172 1.385 . S
C1173 C1174 1.389 . S
C1174 C1173 1.389 . S
C1174 C1175 1.387 . S
C1175 H1160 0.930 . S
C1175 C1170 1.390 . S
C1175 C1174 1.387 . S
H1176 C1188 0.930 . S
H1177 C1190 0.930 . S
H1178 C1191 0.930 . S
H1179 C1195 0.959 . S
H1180 C1195 0.959 . S
H1181 C1195 0.961 . S
H1182 C1196 0.960 . S
H1183 C1196 0.961 . S
H1184 C1196 0.959 . S
H1185 C1199 0.929 . S
H1186 C1200 0.931 . S
H1187 C1202 0.930 . S
C1188 H1176 0.930 . S
C1188 C1189 1.399 . S
C1188 C1193 1.399 . S
C1189 C1188 1.399 . S
C1189 C1190 1.376 . S
C1190 H1177 0.930 . S
C1190 C1189 1.376 . S
C1190 C1191 1.388 . S
C1191 H1178 0.930 . S
C1191 C1190 1.388 . S
C1191 C1192 1.390 . S
C1192 C1191 1.390 . S
C1192 C1193 1.394 . S
C1192 C1198 1.465 . S
C1193 C1188 1.399 . S
C1193 C1192 1.394 . S
C1193 C1194 1.516 . S
C1194 C1193 1.516 . S
C1194 C1195 1.502 . S
C1194 C1196 1.561 . S
C1194 C1197 1.526 . S
C1195 H1179 0.959 . S
C1195 H1180 0.959 . S
C1195 H1181 0.961 . S
C1195 C1194 1.502 . S
C1196 H1182 0.960 . S
C1196 H1183 0.961 . S
C1196 H1184 0.959 . S
C1196 C1194 1.561 . S
C1197 C1194 1.526 . S
C1197 C1198 1.396 . S
C1197 C1202 1.390 . S
C1198 C1192 1.465 . S
C1198 C1197 1.396 . S
C1198 C1199 1.399 . S
C1199 H1185 0.929 . S
C1199 C1198 1.399 . S
C1199 C1200 1.385 . S
C1200 H1186 0.931 . S
C1200 C1199 1.385 . S
C1200 C1201 1.389 . S
C1201 C1200 1.389 . S
C1201 C1202 1.387 . S
C1202 H1187 0.930 . S
C1202 C1197 1.390 . S
C1202 C1201 1.387 . S
H1203 C1215 0.930 . S
H1204 C1217 0.930 . S
H1205 C1218 0.930 . S
H1206 C1222 0.959 . S
H1207 C1222 0.959 . S
H1208 C1222 0.961 . S
H1209 C1223 0.960 . S
H1210 C1223 0.961 . S
H1211 C1223 0.959 . S
H1212 C1226 0.929 . S
H1213 C1227 0.931 . S
H1214 C1229 0.930 . S
C1215 H1203 0.930 . S
C1215 C1216 1.399 . S
C1215 C1220 1.399 . S
C1216 C1215 1.399 . S
C1216 C1217 1.376 . S
C1217 H1204 0.930 . S
C1217 C1216 1.376 . S
C1217 C1218 1.388 . S
C1218 H1205 0.930 . S
C1218 C1217 1.388 . S
C1218 C1219 1.390 . S
C1219 C1218 1.390 . S
C1219 C1220 1.394 . S
C1219 C1225 1.465 . S
C1220 C1215 1.399 . S
C1220 C1219 1.394 . S
C1220 C1221 1.516 . S
C1221 C1220 1.516 . S
C1221 C1222 1.502 . S
C1221 C1223 1.561 . S
C1221 C1224 1.526 . S
C1222 H1206 0.959 . S
C1222 H1207 0.959 . S
C1222 H1208 0.961 . S
C1222 C1221 1.502 . S
C1223 H1209 0.960 . S
C1223 H1210 0.961 . S
C1223 H1211 0.959 . S
C1223 C1221 1.561 . S
C1224 C1221 1.526 . S
C1224 C1225 1.396 . S
C1224 C1229 1.390 . S
C1225 C1219 1.465 . S
C1225 C1224 1.396 . S
C1225 C1226 1.399 . S
C1226 H1212 0.929 . S
C1226 C1225 1.399 . S
C1226 C1227 1.385 . S
C1227 H1213 0.931 . S
C1227 C1226 1.385 . S
C1227 C1228 1.389 . S
C1228 C1227 1.389 . S
C1228 C1229 1.387 . S
C1229 H1214 0.930 . S
C1229 C1224 1.390 . S
C1229 C1228 1.387 . S
H1230 C1242 0.930 . S
H1231 C1244 0.930 . S
H1232 C1245 0.930 . S
H1233 C1249 0.959 . S
H1234 C1249 0.959 . S
H1235 C1249 0.961 . S
H1236 C1250 0.960 . S
H1237 C1250 0.961 . S
H1238 C1250 0.959 . S
H1239 C1253 0.929 . S
H1240 C1254 0.931 . S
H1241 C1256 0.930 . S
C1242 H1230 0.930 . S
C1242 C1243 1.399 . S
C1242 C1247 1.399 . S
C1243 C1242 1.399 . S
C1243 C1244 1.376 . S
C1244 H1231 0.930 . S
C1244 C1243 1.376 . S
C1244 C1245 1.388 . S
C1245 H1232 0.930 . S
C1245 C1244 1.388 . S
C1245 C1246 1.390 . S
C1246 C1245 1.390 . S
C1246 C1247 1.394 . S
C1246 C1252 1.465 . S
C1247 C1242 1.399 . S
C1247 C1246 1.394 . S
C1247 C1248 1.516 . S
C1248 C1247 1.516 . S
C1248 C1249 1.502 . S
C1248 C1250 1.561 . S
C1248 C1251 1.526 . S
C1249 H1233 0.959 . S
C1249 H1234 0.959 . S
C1249 H1235 0.961 . S
C1249 C1248 1.502 . S
C1250 H1236 0.960 . S
C1250 H1237 0.961 . S
C1250 H1238 0.959 . S
C1250 C1248 1.561 . S
C1251 C1248 1.526 . S
C1251 C1252 1.396 . S
C1251 C1256 1.390 . S
C1252 C1246 1.465 . S
C1252 C1251 1.396 . S
C1252 C1253 1.399 . S
C1253 H1239 0.929 . S
C1253 C1252 1.399 . S
C1253 C1254 1.385 . S
C1254 H1240 0.931 . S
C1254 C1253 1.385 . S
C1254 C1255 1.389 . S
C1255 C1254 1.389 . S
C1255 C1256 1.387 . S
C1256 H1241 0.930 . S
C1256 C1251 1.390 . S
C1256 C1255 1.387 . S
H1257 C1269 0.930 . S
H1258 C1271 0.930 . S
H1259 C1272 0.930 . S
H1260 C1276 0.959 . S
H1261 C1276 0.959 . S
H1262 C1276 0.961 . S
H1263 C1277 0.960 . S
H1264 C1277 0.961 . S
H1265 C1277 0.959 . S
H1266 C1280 0.929 . S
H1267 C1281 0.931 . S
H1268 C1283 0.930 . S
C1269 H1257 0.930 . S
C1269 C1270 1.399 . S
C1269 C1274 1.399 . S
C1270 C1269 1.399 . S
C1270 C1271 1.376 . S
C1271 H1258 0.930 . S
C1271 C1270 1.376 . S
C1271 C1272 1.388 . S
C1272 H1259 0.930 . S
C1272 C1271 1.388 . S
C1272 C1273 1.390 . S
C1273 C1272 1.390 . S
C1273 C1274 1.394 . S
C1273 C1279 1.465 . S
C1274 C1269 1.399 . S
C1274 C1273 1.394 . S
C1274 C1275 1.516 . S
C1275 C1274 1.516 . S
C1275 C1276 1.502 . S
C1275 C1277 1.561 . S
C1275 C1278 1.526 . S
C1276 H1260 0.959 . S
C1276 H1261 0.959 . S
C1276 H1262 0.961 . S
C1276 C1275 1.502 . S
C1277 H1263 0.960 . S
C1277 H1264 0.961 . S
C1277 H1265 0.959 . S
C1277 C1275 1.561 . S
C1278 C1275 1.526 . S
C1278 C1279 1.396 . S
C1278 C1283 1.390 . S
C1279 C1273 1.465 . S
C1279 C1278 1.396 . S
C1279 C1280 1.399 . S
C1280 H1266 0.929 . S
C1280 C1279 1.399 . S
C1280 C1281 1.385 . S
C1281 H1267 0.931 . S
C1281 C1280 1.385 . S
C1281 C1282 1.389 . S
C1282 C1281 1.389 . S
C1282 C1283 1.387 . S
C1283 H1268 0.930 . S
C1283 C1278 1.390 . S
C1283 C1282 1.387 . S
H1284 C1296 0.930 . S
H1285 C1298 0.930 . S
H1286 C1299 0.930 . S
H1287 C1303 0.959 . S
H1288 C1303 0.959 . S
H1289 C1303 0.961 . S
H1290 C1304 0.960 . S
H1291 C1304 0.961 . S
H1292 C1304 0.959 . S
H1293 C1307 0.929 . S
H1294 C1308 0.931 . S
H1295 C1310 0.930 . S
C1296 H1284 0.930 . S
C1296 C1297 1.399 . S
C1296 C1301 1.399 . S
C1297 C1296 1.399 . S
C1297 C1298 1.376 . S
C1298 H1285 0.930 . S
C1298 C1297 1.376 . S
C1298 C1299 1.388 . S
C1299 H1286 0.930 . S
C1299 C1298 1.388 . S
C1299 C1300 1.390 . S
C1300 C1299 1.390 . S
C1300 C1301 1.394 . S
C1300 C1306 1.465 . S
C1301 C1296 1.399 . S
C1301 C1300 1.394 . S
C1301 C1302 1.516 . S
C1302 C1301 1.516 . S
C1302 C1303 1.502 . S
C1302 C1304 1.561 . S
C1302 C1305 1.526 . S
C1303 H1287 0.959 . S
C1303 H1288 0.959 . S
C1303 H1289 0.961 . S
C1303 C1302 1.502 . S
C1304 H1290 0.960 . S
C1304 H1291 0.961 . S
C1304 H1292 0.959 . S
C1304 C1302 1.561 . S
C1305 C1302 1.526 . S
C1305 C1306 1.396 . S
C1305 C1310 1.390 . S
C1306 C1300 1.465 . S
C1306 C1305 1.396 . S
C1306 C1307 1.399 . S
C1307 H1293 0.929 . S
C1307 C1306 1.399 . S
C1307 C1308 1.385 . S
C1308 H1294 0.931 . S
C1308 C1307 1.385 . S
C1308 C1309 1.389 . S
C1309 C1308 1.389 . S
C1309 C1310 1.387 . S
C1310 H1295 0.930 . S
C1310 C1305 1.390 . S
C1310 C1309 1.387 . S
H1311 C1323 0.930 . S
H1312 C1325 0.930 . S
H1313 C1326 0.930 . S
H1314 C1330 0.959 . S
H1315 C1330 0.959 . S
H1316 C1330 0.961 . S
H1317 C1331 0.960 . S
H1318 C1331 0.961 . S
H1319 C1331 0.959 . S
H1320 C1334 0.929 . S
H1321 C1335 0.931 . S
H1322 C1337 0.930 . S
C1323 H1311 0.930 . S
C1323 C1324 1.399 . S
C1323 C1328 1.399 . S
C1324 C1323 1.399 . S
C1324 C1325 1.376 . S
C1325 H1312 0.930 . S
C1325 C1324 1.376 . S
C1325 C1326 1.388 . S
C1326 H1313 0.930 . S
C1326 C1325 1.388 . S
C1326 C1327 1.390 . S
C1327 C1326 1.390 . S
C1327 C1328 1.394 . S
C1327 C1333 1.465 . S
C1328 C1323 1.399 . S
C1328 C1327 1.394 . S
C1328 C1329 1.516 . S
C1329 C1328 1.516 . S
C1329 C1330 1.502 . S
C1329 C1331 1.561 . S
C1329 C1332 1.526 . S
C1330 H1314 0.959 . S
C1330 H1315 0.959 . S
C1330 H1316 0.961 . S
C1330 C1329 1.502 . S
C1331 H1317 0.960 . S
C1331 H1318 0.961 . S
C1331 H1319 0.959 . S
C1331 C1329 1.561 . S
C1332 C1329 1.526 . S
C1332 C1333 1.396 . S
C1332 C1337 1.390 . S
C1333 C1327 1.465 . S
C1333 C1332 1.396 . S
C1333 C1334 1.399 . S
C1334 H1320 0.929 . S
C1334 C1333 1.399 . S
C1334 C1335 1.385 . S
C1335 H1321 0.931 . S
C1335 C1334 1.385 . S
C1335 C1336 1.389 . S
C1336 C1335 1.389 . S
C1336 C1337 1.387 . S
C1337 H1322 0.930 . S
C1337 C1332 1.390 . S
C1337 C1336 1.387 . S
H1338 C1350 0.930 . S
H1339 C1352 0.930 . S
H1340 C1353 0.930 . S
H1341 C1357 0.959 . S
H1342 C1357 0.959 . S
H1343 C1357 0.961 . S
H1344 C1358 0.960 . S
H1345 C1358 0.961 . S
H1346 C1358 0.959 . S
H1347 C1361 0.929 . S
H1348 C1362 0.931 . S
H1349 C1364 0.930 . S
C1350 H1338 0.930 . S
C1350 C1351 1.399 . S
C1350 C1355 1.399 . S
C1351 C1350 1.399 . S
C1351 C1352 1.376 . S
C1352 H1339 0.930 . S
C1352 C1351 1.376 . S
C1352 C1353 1.388 . S
C1353 H1340 0.930 . S
C1353 C1352 1.388 . S
C1353 C1354 1.390 . S
C1354 C1353 1.390 . S
C1354 C1355 1.394 . S
C1354 C1360 1.465 . S
C1355 C1350 1.399 . S
C1355 C1354 1.394 . S
C1355 C1356 1.516 . S
C1356 C1355 1.516 . S
C1356 C1357 1.502 . S
C1356 C1358 1.561 . S
C1356 C1359 1.526 . S
C1357 H1341 0.959 . S
C1357 H1342 0.959 . S
C1357 H1343 0.961 . S
C1357 C1356 1.502 . S
C1358 H1344 0.960 . S
C1358 H1345 0.961 . S
C1358 H1346 0.959 . S
C1358 C1356 1.561 . S
C1359 C1356 1.526 . S
C1359 C1360 1.396 . S
C1359 C1364 1.390 . S
C1360 C1354 1.465 . S
C1360 C1359 1.396 . S
C1360 C1361 1.399 . S
C1361 H1347 0.929 . S
C1361 C1360 1.399 . S
C1361 C1362 1.385 . S
C1362 H1348 0.931 . S
C1362 C1361 1.385 . S
C1362 C1363 1.389 . S
C1363 C1362 1.389 . S
C1363 C1364 1.387 . S
C1364 H1349 0.930 . S
C1364 C1359 1.390 . S
C1364 C1363 1.387 . S
H1365 C1377 0.930 . S
H1366 C1379 0.930 . S
H1367 C1380 0.930 . S
H1368 C1384 0.959 . S
H1369 C1384 0.959 . S
H1370 C1384 0.961 . S
H1371 C1385 0.960 . S
H1372 C1385 0.961 . S
H1373 C1385 0.959 . S
H1374 C1388 0.929 . S
H1375 C1389 0.931 . S
H1376 C1391 0.930 . S
C1377 H1365 0.930 . S
C1377 C1378 1.399 . S
C1377 C1382 1.399 . S
C1378 C1377 1.399 . S
C1378 C1379 1.376 . S
C1379 H1366 0.930 . S
C1379 C1378 1.376 . S
C1379 C1380 1.388 . S
C1380 H1367 0.930 . S
C1380 C1379 1.388 . S
C1380 C1381 1.390 . S
C1381 C1380 1.390 . S
C1381 C1382 1.394 . S
C1381 C1387 1.465 . S
C1382 C1377 1.399 . S
C1382 C1381 1.394 . S
C1382 C1383 1.516 . S
C1383 C1382 1.516 . S
C1383 C1384 1.502 . S
C1383 C1385 1.561 . S
C1383 C1386 1.526 . S
C1384 H1368 0.959 . S
C1384 H1369 0.959 . S
C1384 H1370 0.961 . S
C1384 C1383 1.502 . S
C1385 H1371 0.960 . S
C1385 H1372 0.961 . S
C1385 H1373 0.959 . S
C1385 C1383 1.561 . S
C1386 C1383 1.526 . S
C1386 C1387 1.396 . S
C1386 C1391 1.390 . S
C1387 C1381 1.465 . S
C1387 C1386 1.396 . S
C1387 C1388 1.399 . S
C1388 H1374 0.929 . S
C1388 C1387 1.399 . S
C1388 C1389 1.385 . S
C1389 H1375 0.931 . S
C1389 C1388 1.385 . S
C1389 C1390 1.389 . S
C1390 C1389 1.389 . S
C1390 C1391 1.387 . S
C1391 H1376 0.930 . S
C1391 C1386 1.390 . S
C1391 C1390 1.387 . S
H1392 C1404 0.930 . S
H1393 C1406 0.930 . S
H1394 C1407 0.930 . S
H1395 C1411 0.959 . S
H1396 C1411 0.959 . S
H1397 C1411 0.961 . S
H1398 C1412 0.960 . S
H1399 C1412 0.961 . S
H1400 C1412 0.959 . S
H1401 C1415 0.929 . S
H1402 C1416 0.931 . S
H1403 C1418 0.930 . S
C1404 H1392 0.930 . S
C1404 C1405 1.405 . S
C1404 C1409 1.399 . S
C1405 C1404 1.405 . S
C1405 C1406 1.369 1_565 S
C1406 H1393 0.930 . S
C1406 C1405 1.369 1_545 S
C1406 C1407 1.388 . S
C1407 H1394 0.930 . S
C1407 C1406 1.388 . S
C1407 C1408 1.390 . S
C1408 C1407 1.390 . S
C1408 C1409 1.394 1_545 S
C1408 C1414 1.465 . S
C1409 C1404 1.399 . S
C1409 C1408 1.394 1_565 S
C1409 C1410 1.516 . S
C1410 C1409 1.516 . S
C1410 C1411 1.502 . S
C1410 C1412 1.561 . S
C1410 C1413 1.526 . S
C1411 H1395 0.959 . S
C1411 H1396 0.959 . S
C1411 H1397 0.961 . S
C1411 C1410 1.502 . S
C1412 H1398 0.960 . S
C1412 H1399 0.961 . S
C1412 H1400 0.959 . S
C1412 C1410 1.561 . S
C1413 C1410 1.526 . S
C1413 C1414 1.396 1_565 S
C1413 C1418 1.390 . S
C1414 C1408 1.465 . S
C1414 C1413 1.396 1_545 S
C1414 C1415 1.399 . S
C1415 H1401 0.929 . S
C1415 C1414 1.399 . S
C1415 C1416 1.385 . S
C1416 H1402 0.931 . S
C1416 C1415 1.385 . S
C1416 C1417 1.388 . S
C1417 C1416 1.388 . S
C1417 C1418 1.388 1_545 S
C1418 H1403 0.930 . S
C1418 C1413 1.390 . S
C1418 C1417 1.388 1_565 S
H1419 C1431 0.930 1_554 S
H1420 C1433 0.930 . S
H1421 C1434 0.930 . S
H1422 C1438 0.959 . S
H1423 C1438 0.959 . S
H1424 C1438 0.961 . S
H1425 C1439 0.960 . S
H1426 C1439 0.961 . S
H1427 C1439 0.959 . S
H1428 C1442 0.929 . S
H1429 C1443 0.931 . S
H1430 C1445 0.930 1_554 S
C1431 H1419 0.930 1_556 S
C1431 C1432 1.399 . S
C1431 C1436 1.399 . S
C1432 C1431 1.399 . S
C1432 C1433 1.376 . S
C1433 H1420 0.930 . S
C1433 C1432 1.376 . S
C1433 C1434 1.388 . S
C1434 H1421 0.930 . S
C1434 C1433 1.388 . S
C1434 C1435 1.390 . S
C1435 C1434 1.390 . S
C1435 C1436 1.394 . S
C1435 C1441 1.465 . S
C1436 C1431 1.399 . S
C1436 C1435 1.394 . S
C1436 C1437 1.516 1_556 S
C1437 C1436 1.516 1_554 S
C1437 C1438 1.502 . S
C1437 C1439 1.561 . S
C1437 C1440 1.526 1_554 S
C1438 H1422 0.959 . S
C1438 H1423 0.959 . S
C1438 H1424 0.961 . S
C1438 C1437 1.502 . S
C1439 H1425 0.960 . S
C1439 H1426 0.961 . S
C1439 H1427 0.959 . S
C1439 C1437 1.561 . S
C1440 C1437 1.526 1_556 S
C1440 C1441 1.396 . S
C1440 C1445 1.390 . S
C1441 C1435 1.465 . S
C1441 C1440 1.396 . S
C1441 C1442 1.399 . S
C1442 H1428 0.929 . S
C1442 C1441 1.399 . S
C1442 C1443 1.385 . S
C1443 H1429 0.931 . S
C1443 C1442 1.385 . S
C1443 C1444 1.389 . S
C1444 C1443 1.389 . S
C1444 C1445 1.387 . S
C1445 H1430 0.930 1_556 S
C1445 C1440 1.390 . S
C1445 C1444 1.387 . S
H1446 C1458 0.930 . S
H1447 C1460 0.930 . S
H1448 C1461 0.930 . S
H1449 C1465 0.959 . S
H1450 C1465 0.959 . S
H1451 C1465 0.961 . S
H1452 C1466 0.960 . S
H1453 C1466 0.961 . S
H1454 C1466 0.959 . S
H1455 C1469 0.929 . S
H1456 C1470 0.931 . S
H1457 C1472 0.930 . S
C1458 H1446 0.930 . S
C1458 C1459 1.399 . S
C1458 C1463 1.399 . S
C1459 C1458 1.399 . S
C1459 C1460 1.376 . S
C1460 H1447 0.930 . S
C1460 C1459 1.376 . S
C1460 C1461 1.388 . S
C1461 H1448 0.930 . S
C1461 C1460 1.388 . S
C1461 C1462 1.390 . S
C1462 C1461 1.390 . S
C1462 C1463 1.394 . S
C1462 C1468 1.465 . S
C1463 C1458 1.399 . S
C1463 C1462 1.394 . S
C1463 C1464 1.516 . S
C1464 C1463 1.516 . S
C1464 C1465 1.502 . S
C1464 C1466 1.561 . S
C1464 C1467 1.526 . S
C1465 H1449 0.959 . S
C1465 H1450 0.959 . S
C1465 H1451 0.961 . S
C1465 C1464 1.502 . S
C1466 H1452 0.960 . S
C1466 H1453 0.961 . S
C1466 H1454 0.959 . S
C1466 C1464 1.561 . S
C1467 C1464 1.526 . S
C1467 C1468 1.396 . S
C1467 C1472 1.390 . S
C1468 C1462 1.465 . S
C1468 C1467 1.396 . S
C1468 C1469 1.399 . S
C1469 H1455 0.929 . S
C1469 C1468 1.399 . S
C1469 C1470 1.385 . S
C1470 H1456 0.931 . S
C1470 C1469 1.385 . S
C1470 C1471 1.389 . S
C1471 C1470 1.389 . S
C1471 C1472 1.387 . S
C1472 H1457 0.930 . S
C1472 C1467 1.390 . S
C1472 C1471 1.387 . S
H1473 C1485 0.928 1_454 S
H1474 C1487 0.930 . S
H1475 C1488 0.930 . S
H1476 C1492 0.959 . S
H1477 C1492 0.959 . S
H1478 C1492 0.961 . S
H1479 C1493 0.960 . S
H1480 C1493 0.961 . S
H1481 C1493 0.959 . S
H1482 C1496 0.929 . S
H1483 C1497 0.931 . S
H1484 C1499 0.927 1_454 S
C1485 H1473 0.928 1_656 S
C1485 C1486 1.400 . S
C1485 C1490 1.399 . S
C1486 C1485 1.400 . S
C1486 C1487 1.376 . S
C1487 H1474 0.930 . S
C1487 C1486 1.376 . S
C1487 C1488 1.388 . S
C1488 H1475 0.930 . S
C1488 C1487 1.388 . S
C1488 C1489 1.390 . S
C1489 C1488 1.390 . S
C1489 C1490 1.394 . S
C1489 C1495 1.465 . S
C1490 C1485 1.399 . S
C1490 C1489 1.394 . S
C1490 C1491 1.517 1_556 S
C1491 C1490 1.517 1_554 S
C1491 C1492 1.496 1_655 S
C1491 C1493 1.567 . S
C1491 C1494 1.526 1_554 S
C1492 H1476 0.959 . S
C1492 H1477 0.959 . S
C1492 H1478 0.961 . S
C1492 C1491 1.496 1_455 S
C1493 H1479 0.960 . S
C1493 H1480 0.961 . S
C1493 H1481 0.959 . S
C1493 C1491 1.567 . S
C1494 C1491 1.526 1_556 S
C1494 C1495 1.396 . S
C1494 C1499 1.391 . S
C1495 C1489 1.465 . S
C1495 C1494 1.396 . S
C1495 C1496 1.399 . S
C1496 H1482 0.929 . S
C1496 C1495 1.399 . S
C1496 C1497 1.385 . S
C1497 H1483 0.931 . S
C1497 C1496 1.385 . S
C1497 C1498 1.389 . S
C1498 C1497 1.389 . S
C1498 C1499 1.389 . S
C1499 H1484 0.927 1_656 S
C1499 C1494 1.391 . S
C1499 C1498 1.389 . S
H1500 C1512 0.932 . S
H1501 C1514 0.930 . S
H1502 C1515 0.930 . S
H1503 C1519 0.959 . S
H1504 C1519 0.959 . S
H1505 C1519 0.961 . S
H1506 C1520 0.960 . S
H1507 C1520 0.961 . S
H1508 C1520 0.959 . S
H1509 C1523 0.929 . S
H1510 C1524 0.931 . S
H1511 C1526 0.930 . S
C1512 H1500 0.932 . S
C1512 C1513 1.399 . S
C1512 C1517 1.399 . S
C1513 C1512 1.399 . S
C1513 C1514 1.376 . S
C1514 H1501 0.930 . S
C1514 C1513 1.376 . S
C1514 C1515 1.388 . S
C1515 H1502 0.930 . S
C1515 C1514 1.388 . S
C1515 C1516 1.390 . S
C1516 C1515 1.390 . S
C1516 C1517 1.394 . S
C1516 C1522 1.465 . S
C1517 C1512 1.399 . S
C1517 C1516 1.394 . S
C1517 C1518 1.516 . S
C1518 C1517 1.516 . S
C1518 C1519 1.502 1_545 S
C1518 C1520 1.561 . S
C1518 C1521 1.526 . S
C1519 H1503 0.959 . S
C1519 H1504 0.959 . S
C1519 H1505 0.961 . S
C1519 C1518 1.502 1_565 S
C1520 H1506 0.960 . S
C1520 H1507 0.961 . S
C1520 H1508 0.959 . S
C1520 C1518 1.561 . S
C1521 C1518 1.526 . S
C1521 C1522 1.396 . S
C1521 C1526 1.390 . S
C1522 C1516 1.465 . S
C1522 C1521 1.396 . S
C1522 C1523 1.399 . S
C1523 H1509 0.929 . S
C1523 C1522 1.399 . S
C1523 C1524 1.385 . S
C1524 H1510 0.931 . S
C1524 C1523 1.385 . S
C1524 C1525 1.389 . S
C1525 C1524 1.389 . S
C1525 C1526 1.387 . S
C1526 H1511 0.930 . S
C1526 C1521 1.390 . S
C1526 C1525 1.387 . S
H1527 C1539 0.930 . S
H1528 C1541 0.919 1_556 S
H1529 C1542 0.930 . S
H1530 C1546 0.959 . S
H1531 C1546 0.959 . S
H1532 C1546 0.961 . S
H1533 C1547 0.960 . S
H1534 C1547 0.961 . S
H1535 C1547 0.959 . S
H1536 C1550 0.929 . S
H1537 C1551 0.931 . S
H1538 C1553 0.930 . S
C1539 H1527 0.930 . S
C1539 C1540 1.399 . S
C1539 C1544 1.399 . S
C1540 C1539 1.399 . S
C1540 C1541 1.391 . S
C1541 H1528 0.919 1_554 S
C1541 C1540 1.391 . S
C1541 C1542 1.385 1_554 S
C1542 H1529 0.930 . S
C1542 C1541 1.385 1_556 S
C1542 C1543 1.390 1_556 S
C1543 C1542 1.390 1_554 S
C1543 C1544 1.394 . S
C1543 C1549 1.465 . S
C1544 C1539 1.399 . S
C1544 C1543 1.394 . S
C1544 C1545 1.516 . S
C1545 C1544 1.516 . S
C1545 C1546 1.502 . S
C1545 C1547 1.561 . S
C1545 C1548 1.526 . S
C1546 H1530 0.959 . S
C1546 H1531 0.959 . S
C1546 H1532 0.961 . S
C1546 C1545 1.502 . S
C1547 H1533 0.960 . S
C1547 H1534 0.961 . S
C1547 H1535 0.959 . S
C1547 C1545 1.561 . S
C1548 C1545 1.526 . S
C1548 C1549 1.396 . S
C1548 C1553 1.390 . S
C1549 C1543 1.465 . S
C1549 C1548 1.396 . S
C1549 C1550 1.399 1_554 S
C1550 H1536 0.929 . S
C1550 C1549 1.399 1_556 S
C1550 C1551 1.385 . S
C1551 H1537 0.931 . S
C1551 C1550 1.385 . S
C1551 C1552 1.389 1_556 S
C1552 C1551 1.389 1_554 S
C1552 C1553 1.387 . S
C1553 H1538 0.930 . S
C1553 C1548 1.390 . S
C1553 C1552 1.387 . S
H1554 C1566 0.930 . S
H1555 C1568 0.930 . S
H1556 C1569 0.930 . S
H1557 C1573 0.959 . S
H1558 C1573 0.959 . S
H1559 C1573 0.961 . S
H1560 C1574 0.960 . S
H1561 C1574 0.961 . S
H1562 C1574 0.959 . S
H1563 C1577 0.929 . S
H1564 C1578 0.931 . S
H1565 C1580 0.930 . S
C1566 H1554 0.930 . S
C1566 C1567 1.399 . S
C1566 C1571 1.399 . S
C1567 C1566 1.399 . S
C1567 C1568 1.376 . S
C1568 H1555 0.930 . S
C1568 C1567 1.376 . S
C1568 C1569 1.388 . S
C1569 H1556 0.930 . S
C1569 C1568 1.388 . S
C1569 C1570 1.390 . S
C1570 C1569 1.390 . S
C1570 C1571 1.394 . S
C1570 C1576 1.465 . S
C1571 C1566 1.399 . S
C1571 C1570 1.394 . S
C1571 C1572 1.516 . S
C1572 C1571 1.516 . S
C1572 C1573 1.502 . S
C1572 C1574 1.561 . S
C1572 C1575 1.526 . S
C1573 H1557 0.959 . S
C1573 H1558 0.959 . S
C1573 H1559 0.961 . S
C1573 C1572 1.502 . S
C1574 H1560 0.960 . S
C1574 H1561 0.961 . S
C1574 H1562 0.959 . S
C1574 C1572 1.561 . S
C1575 C1572 1.526 . S
C1575 C1576 1.396 . S
C1575 C1580 1.390 . S
C1576 C1570 1.465 . S
C1576 C1575 1.396 . S
C1576 C1577 1.399 . S
C1577 H1563 0.929 . S
C1577 C1576 1.399 . S
C1577 C1578 1.385 . S
C1578 H1564 0.931 . S
C1578 C1577 1.385 . S
C1578 C1579 1.389 . S
C1579 C1578 1.389 . S
C1579 C1580 1.387 . S
C1580 H1565 0.930 . S
C1580 C1575 1.390 . S
C1580 C1579 1.387 . S
H1581 C1593 0.930 . S
H1582 C1595 0.930 1_556 S
H1583 C1596 0.930 . S
H1584 C1600 0.959 . S
H1585 C1600 0.959 . S
H1586 C1600 0.961 . S
H1587 C1601 0.960 . S
H1588 C1601 0.961 . S
H1589 C1601 0.959 . S
H1590 C1604 0.929 . S
H1591 C1605 0.927 1_556 S
H1592 C1607 0.930 . S
C1593 H1581 0.930 . S
C1593 C1594 1.399 1_655 S
C1593 C1598 1.404 . S
C1594 C1593 1.399 1_455 S
C1594 C1595 1.376 . S
C1595 H1582 0.930 1_554 S
C1595 C1594 1.376 . S
C1595 C1596 1.388 1_554 S
C1596 H1583 0.930 . S
C1596 C1595 1.388 1_556 S
C1596 C1597 1.390 1_556 S
C1597 C1596 1.390 1_554 S
C1597 C1598 1.380 1_455 S
C1597 C1603 1.465 . S
C1598 C1593 1.404 . S
C1598 C1597 1.380 1_655 S
C1598 C1599 1.524 . S
C1599 C1598 1.524 . S
C1599 C1600 1.502 . S
C1599 C1601 1.561 1_655 S
C1599 C1602 1.534 . S
C1600 H1584 0.959 . S
C1600 H1585 0.959 . S
C1600 H1586 0.961 . S
C1600 C1599 1.502 . S
C1601 H1587 0.960 . S
C1601 H1588 0.961 . S
C1601 H1589 0.959 . S
C1601 C1599 1.561 1_455 S
C1602 C1599 1.534 . S
C1602 C1603 1.383 1_655 S
C1602 C1607 1.394 . S
C1603 C1597 1.465 . S
C1603 C1602 1.383 1_455 S
C1603 C1604 1.399 1_554 S
C1604 H1590 0.929 . S
C1604 C1603 1.399 1_556 S
C1604 C1605 1.384 1_556 S
C1605 H1591 0.927 1_554 S
C1605 C1604 1.384 1_554 S
C1605 C1606 1.394 . S
C1606 C1605 1.394 . S
C1606 C1607 1.387 1_455 S
C1607 H1592 0.930 . S
C1607 C1602 1.394 . S
C1607 C1606 1.387 1_655 S
C541 C282 0.826 . S
C553 C18 0.946 . S
C568 C51 0.990 1_554 S
C580 C315 0.802 1_556 S
C595 C348 0.986 . S
C607 C84 0.801 . S
C622 C381 0.893 1_556 S
C634 C117 0.933 1_554 S
C649 C150 0.809 . S
C661 C414 0.965 . S
C676 C183 0.799 1_556 S
C688 C447 0.987 1_554 S
C703 C216 0.989 . S
C715 C480 0.801 . S
C730 C249 0.984 1_556 S
C742 C513 0.826 1_554 S
C757 C7 1.711 . S
C769 N508 1.787 . S
C784 C40 1.740 . S
C796 N409 1.811 . S
C811 C73 1.760 . S
C823 N442 1.804 . S
C838 N475 1.802 . S
C850 C106 1.698 . S
C865 C139 1.701 . S
C877 N310 1.804 . S
C892 C172 1.753 . S
C904 N343 1.798 . S
C919 N376 1.811 . S
C931 C205 1.738 . S
C946 C238 1.706 . S
C958 N277 1.787 . S
C973 N244 1.803 . S
C985 C271 1.756 . S
C1000 N145 1.788 . S
C1012 C304 1.710 . S
C1027 N178 1.801 . S
C1039 C337 1.687 . S
C1054 C370 1.755 . S
C1066 N211 1.792 . S
C1081 N46 1.803 . S
C1093 C403 1.688 . S
C1108 C436 1.758 . S
C1120 N79 1.803 . S
C1135 N112 1.800 . S
C1147 C469 1.759 . S
C1162 N13 1.787 . S
C1174 C502 1.720 . S
C1189 N233 0.583 . S
C1201 N2 0.728 . S
C1216 N134 0.621 . S
C1228 N35 0.717 . S
C1243 N68 0.619 . S
C1255 N167 0.718 . S
C1270 N200 0.472 . S
C1282 N101 0.576 . S
C1297 N497 0.688 . S
C1309 N266 0.591 . S
C1324 N299 0.709 . S
C1336 N398 0.557 . S
C1351 N332 0.571 . S
C1363 N431 0.557 . S
C1378 N365 0.449 . S
C1390 N464 0.690 . S
C1405 C21 1.036 1_565 S
C1417 C417 1.037 . S
C1432 C54 1.072 . S
C1444 C450 1.064 . S
C1459 C87 1.075 . S
C1471 C483 1.067 . S
C1486 C120 1.059 1_655 S
C1498 C516 1.052 1_655 S
C1513 C153 1.056 1_545 S
C1525 C285 1.050 1_545 S
C1540 C186 1.057 . S
C1552 C318 1.066 . S
C1567 C219 1.048 . S
C1579 C351 1.056 . S
C1594 C384 1.083 1_455 S
C1606 C252 1.081 1_455 S
