# Generated by pormake.
# Topology wlc, (5)-cn, num edge types: 1
# Building blocks:
#     Node 0, Type 0, BuildingBlock: BEQFEK_clean_sbu_0, # of connection points: 5
#     Node 1, Type 0, BuildingBlock: BEQFEK_clean_sbu_0, # of connection points: 5
#     Node 2, Type 0, BuildingBlock: BEQFEK_clean_sbu_0, # of connection points: 5
#     Node 3, Type 0, BuildingBlock: BEQFEK_clean_sbu_0, # of connection points: 5
#     Node 4, Type 0, BuildingBlock: BEQFEK_clean_sbu_0, # of connection points: 5
#     Node 5, Type 0, BuildingBlock: BEQFEK_clean_sbu_0, # of connection points: 5
#     Node 6, Type 0, BuildingBlock: BEQFEK_clean_sbu_0, # of connection points: 5
#     Node 7, Type 0, BuildingBlock: BEQFEK_clean_sbu_0, # of connection points: 5
#     Node 8, Type 0, BuildingBlock: BEQFEK_clean_sbu_0, # of connection points: 5
#     Node 9, Type 0, BuildingBlock: BEQFEK_clean_sbu_0, # of connection points: 5
#     Node 10, Type 0, BuildingBlock: BEQFEK_clean_sbu_0, # of connection points: 5
#     Node 11, Type 0, BuildingBlock: BEQFEK_clean_sbu_0, # of connection points: 5
#     Edge 12, Type (0, 0), BuildingBlock: XUDNAN_clean_linker_2, # of connection points: 2
#     Edge 13, Type (0, 0), BuildingBlock: XUDNAN_clean_linker_2, # of connection points: 2
#     Edge 14, Type (0, 0), BuildingBlock: XUDNAN_clean_linker_2, # of connection points: 2
#     Edge 15, Type (0, 0), BuildingBlock: XUDNAN_clean_linker_2, # of connection points: 2
#     Edge 16, Type (0, 0), BuildingBlock: XUDNAN_clean_linker_2, # of connection points: 2
#     Edge 17, Type (0, 0), BuildingBlock: XUDNAN_clean_linker_2, # of connection points: 2
#     Edge 18, Type (0, 0), BuildingBlock: XUDNAN_clean_linker_2, # of connection points: 2
#     Edge 19, Type (0, 0), BuildingBlock: XUDNAN_clean_linker_2, # of connection points: 2
#     Edge 20, Type (0, 0), BuildingBlock: XUDNAN_clean_linker_2, # of connection points: 2
#     Edge 21, Type (0, 0), BuildingBlock: XUDNAN_clean_linker_2, # of connection points: 2
#     Edge 22, Type (0, 0), BuildingBlock: XUDNAN_clean_linker_2, # of connection points: 2
#     Edge 23, Type (0, 0), BuildingBlock: XUDNAN_clean_linker_2, # of connection points: 2
#     Edge 24, Type (0, 0), BuildingBlock: XUDNAN_clean_linker_2, # of connection points: 2
#     Edge 25, Type (0, 0), BuildingBlock: XUDNAN_clean_linker_2, # of connection points: 2
#     Edge 26, Type (0, 0), BuildingBlock: XUDNAN_clean_linker_2, # of connection points: 2
#     Edge 27, Type (0, 0), BuildingBlock: XUDNAN_clean_linker_2, # of connection points: 2
#     Edge 28, Type (0, 0), BuildingBlock: XUDNAN_clean_linker_2, # of connection points: 2
#     Edge 29, Type (0, 0), BuildingBlock: XUDNAN_clean_linker_2, # of connection points: 2
#     Edge 30, Type (0, 0), BuildingBlock: XUDNAN_clean_linker_2, # of connection points: 2
#     Edge 31, Type (0, 0), BuildingBlock: XUDNAN_clean_linker_2, # of connection points: 2
#     Edge 32, Type (0, 0), BuildingBlock: XUDNAN_clean_linker_2, # of connection points: 2
#     Edge 33, Type (0, 0), BuildingBlock: XUDNAN_clean_linker_2, # of connection points: 2
#     Edge 34, Type (0, 0), BuildingBlock: XUDNAN_clean_linker_2, # of connection points: 2
#     Edge 35, Type (0, 0), BuildingBlock: XUDNAN_clean_linker_2, # of connection points: 2
#     Edge 36, Type (0, 0), BuildingBlock: XUDNAN_clean_linker_2, # of connection points: 2
#     Edge 37, Type (0, 0), BuildingBlock: XUDNAN_clean_linker_2, # of connection points: 2
#     Edge 38, Type (0, 0), BuildingBlock: XUDNAN_clean_linker_2, # of connection points: 2
#     Edge 39, Type (0, 0), BuildingBlock: XUDNAN_clean_linker_2, # of connection points: 2
#     Edge 40, Type (0, 0), BuildingBlock: XUDNAN_clean_linker_2, # of connection points: 2
#     Edge 41, Type (0, 0), BuildingBlock: XUDNAN_clean_linker_2, # of connection points: 2
# Relax obj value: 0.788
# Max RMSD: 0.281
# Mean RMSD: 0.281
data_MOF--net-wlc--node1-BEQFEK_clean_sbu_0--edge1-XUDNAN_clean_linker_2
_symmetry_space_group_name_H-M    P1
_symmetry_Int_Tables_number       1
_symmetry_cell_setting            triclinic
loop_
_symmetry_equiv_pos_as_xyz
'x, y, z'
_cell_length_a     46.670931
_cell_length_b     46.660041
_cell_length_c     30.087923
_cell_angle_alpha  90.014071
_cell_angle_beta   89.973429
_cell_angle_gamma 119.96589
loop_
_atom_site_label
_atom_site_type_symbol
_atom_site_fract_x
_atom_site_fract_y
_atom_site_fract_z
_atom_type_partial_charge
Co0 Co 0.09688 0.42116 0.1661 0.0
Co1 Co 0.06918 0.36683 0.09386 0.0
C2 C 0.13102 0.38485 0.14857 0.0
O3 O 0.13224 0.41037 0.16518 0.0
O4 O 0.10782 0.36614 0.12221 0.0
C5 C 0.13966 0.48322 0.20646 0.0
O6 O 0.16239 0.48324 0.18065 0.0
C7 C 0.08148 0.35158 0.00546 0.0
C8 C 0.03338 0.30977 0.9846 0.0
C9 C 0.06511 0.33146 0.96921 0.0
N10 N 0.06025 0.34271 0.0397 0.0
N11 N 0.03165 0.31734 0.02737 0.0
C12 C 0.11655 0.37924 0.00825 0.0
H13 H 0.12583 0.38214 0.04274 0.0
H14 H 0.11768 0.40277 0.99876 0.0
H15 H 0.13278 0.37466 0.98592 0.0
C16 C 0.08149 0.45771 0.09938 0.0
N17 N 0.08697 0.43283 0.11067 0.0
N18 N 0.07406 0.40948 0.08038 0.0
C19 C 0.05959 0.41873 0.04891 0.0
C20 C 0.06398 0.44976 0.05971 0.0
C21 C 0.08678 0.48514 0.13025 0.0
H22 H 0.07523 0.47472 0.16288 0.0
H23 H 0.11369 0.50171 0.13506 0.0
H24 H 0.07617 0.50007 0.11726 0.0
O25 O 0.05603 0.38304 0.19024 0.0
O26 O 0.03319 0.34405 0.13803 0.0
H27 H 0.01949 0.37235 0.02677 0.0
H28 H 0.02569 0.40752 0.99371 0.0
C29 C 0.03821 0.39645 0.01251 0.0
H30 H 0.05376 0.39182 0.98903 0.0
H31 H 0.01065 0.30608 0.04751 0.0
O32 O 0.11086 0.45798 0.207 0.0
C33 C 0.03303 0.35486 0.17698 0.0
Co34 Co 0.61027 0.66496 0.17312 0.0
Co35 Co 0.65511 0.70121 0.0927 0.0
C36 C 0.62866 0.73307 0.15851 0.0
O37 O 0.61089 0.70605 0.17874 0.0
O38 O 0.64697 0.73489 0.12573 0.0
C39 C 0.55705 0.63293 0.23677 0.0
O40 O 0.54811 0.65468 0.22627 0.0
C41 C 0.66111 0.72366 -3e-05 0.0
C42 C 0.71429 0.74355 0.98687 0.0
C43 C 0.68512 0.73793 0.96711 0.0
N44 N 0.6754 0.72064 0.03713 0.0
N45 N 0.70727 0.73296 0.0292 0.0
C46 C 0.62555 0.7146 0.99704 0.0
H47 H 0.61566 0.71446 0.03066 0.0
H48 H 0.61079 0.68952 0.98267 0.0
H49 H 0.62283 0.7322 0.97508 0.0
C50 C 0.56986 0.61577 0.1065 0.0
N51 N 0.59545 0.64564 0.11718 0.0
N52 N 0.61574 0.65803 0.08319 0.0
C53 C 0.6043 0.63489 0.05041 0.0
C54 C 0.57444 0.60771 0.06398 0.0
C55 C 0.54318 0.59352 0.13812 0.0
H56 H 0.53265 0.60754 0.15427 0.0
H57 H 0.52295 0.57174 0.12099 0.0
H58 H 0.55383 0.58464 0.16398 0.0
O59 O 0.65429 0.6717 0.18625 0.0
O60 O 0.68808 0.69643 0.12939 0.0
H61 H 0.62419 0.61276 0.007 0.0
H62 H 0.61095 0.6382 0.97992 0.0
C63 C 0.62355 0.63615 0.00999 0.0
H64 H 0.64918 0.65728 0.01152 0.0
H65 H 0.72416 0.73362 0.05248 0.0
O66 O 0.58251 0.63479 0.21894 0.0
C67 C 0.68245 0.68355 0.16795 0.0
Co68 Co 0.32372 0.90315 0.1477 0.0
Co69 Co 0.30636 0.94624 0.08875 0.0
C70 C 0.25517 0.8802 0.12805 0.0
O71 O 0.27711 0.87327 0.13917 0.0
O72 O 0.26314 0.90773 0.10966 0.0
C73 C 0.32917 0.84721 0.16546 0.0
O74 O 0.31136 0.83651 0.12906 0.0
C75 C 0.28399 0.95057 0.00168 0.0
C76 C 0.28425 0.99801 0.00165 0.0
C77 C 0.2773 0.97082 0.97549 0.0
N78 N 0.29463 0.96504 0.0414 0.0
N79 N 0.29448 0.99329 0.04152 0.0
C80 C 0.2788 0.91708 0.99011 0.0
H81 H 0.2762 0.90269 0.0207 0.0
H82 H 0.30038 0.91974 0.97121 0.0
H83 H 0.25654 0.90349 0.96886 0.0
C84 C 0.37473 0.91907 0.07959 0.0
N85 N 0.34723 0.91855 0.09437 0.0
N86 N 0.34091 0.93781 0.06937 0.0
C87 C 0.365 0.952 0.03823 0.0
C88 C 0.38683 0.94002 0.04326 0.0
C89 C 0.392 0.90397 0.10384 0.0
H90 H 0.37822 0.87682 0.09862 0.0
H91 H 0.41774 0.91378 0.09199 0.0
H92 H 0.39264 0.90903 0.13992 0.0
O93 O 0.32909 0.94098 0.185 0.0
O94 O 0.32218 0.9755 0.14091 0.0
H95 H 0.39502 0.99452 0.9967 0.0
H96 H 0.35384 0.9676 0.97709 0.0
C97 C 0.36892 0.97885 0.00728 0.0
H98 H 0.36018 0.99446 0.02345 0.0
H99 H 0.30151 0.00937 0.06861 0.0
O100 O 0.33795 0.87608 0.17985 0.0
C101 C 0.32851 0.96783 0.17891 0.0
Co102 Co 0.56447 0.90656 0.34756 0.0
Co103 Co 0.62623 0.94876 0.40503 0.0
C104 C 0.60931 0.88218 0.36485 0.0
O105 O 0.5805 0.87589 0.35434 0.0
O106 O 0.62937 0.90939 0.38364 0.0
C107 C 0.51461 0.8572 0.29109 0.0
O108 O 0.53709 0.84948 0.27967 0.0
C109 C 0.65878 0.95657 0.48984 0.0
C110 C 0.70373 0.00557 0.48356 0.0
C111 C 0.68698 0.97924 0.51272 0.0
N112 N 0.65903 0.96905 0.44956 0.0
N113 N 0.68616 0.99813 0.44566 0.0
C114 C 0.63077 0.92445 0.50625 0.0
H115 H 0.60924 0.91517 0.48357 0.0
H116 H 0.62335 0.92744 0.54021 0.0
H117 H 0.63879 0.90573 0.5074 0.0
C118 C 0.53127 0.92212 0.41812 0.0
N119 N 0.55805 0.92196 0.40194 0.0
N120 N 0.58403 0.94119 0.42624 0.0
C121 C 0.57459 0.95522 0.45822 0.0
C122 C 0.54067 0.94317 0.4544 0.0
C123 C 0.49828 0.90573 0.39555 0.0
H124 H 0.50114 0.91546 0.36122 0.0
H125 H 0.48899 0.87877 0.39353 0.0
H126 H 0.47986 0.90993 0.41324 0.0
O127 O 0.59628 0.94393 0.3093 0.0
O128 O 0.63861 0.97751 0.35258 0.0
H129 H 0.62155 0.99812 0.47221 0.0
H130 H 0.5871 0.99606 0.50304 0.0
C131 C 0.59795 0.98148 0.48944 0.0
H132 H 0.6034 0.96961 0.51757 0.0
H133 H 0.69235 0.01312 0.4175 0.0
O134 O 0.52204 0.88126 0.31734 0.0
C135 C 0.62404 0.97037 0.31504 0.0
Co136 Co 0.04083 0.65981 0.3221 0.0
Co137 Co 0.02936 0.69883 0.3973 0.0
C138 C 0.08735 0.73115 0.33443 0.0
O139 O 0.07867 0.70354 0.31634 0.0
O140 O 0.07079 0.73355 0.36645 0.0
C141 C 0.07043 0.64361 0.251 0.0
O142 O 0.08363 0.67494 0.24009 0.0
C143 C 0.04748 0.72817 0.48504 0.0
C144 C 0.00642 0.73651 0.50332 0.0
C145 C 0.03555 0.7392 0.51926 0.0
N146 N 0.02624 0.71896 0.45078 0.0
N147 N 0.00196 0.72447 0.46159 0.0
C148 C 0.07905 0.72716 0.48427 0.0
H149 H 0.0884 0.72986 0.44975 0.0
H150 H 0.07465 0.70304 0.49706 0.0
H151 H 0.09798 0.74699 0.50562 0.0
C152 C 0.03574 0.61637 0.39495 0.0
N153 N 0.03643 0.64382 0.37983 0.0
N154 N 0.02888 0.65795 0.41199 0.0
C155 C 0.02154 0.63857 0.44866 0.0
C156 C 0.02587 0.61171 0.43898 0.0
C157 C 0.04564 0.59579 0.36785 0.0
H158 H 0.06803 0.61213 0.34814 0.0
H159 H 0.05116 0.57969 0.38901 0.0
H160 H 0.02529 0.58013 0.34464 0.0
O161 O 0.0015 0.66153 0.30354 0.0
O162 O 0.99267 0.6904 0.3553 0.0
H163 H 0.98752 0.61849 0.50335 0.0
H164 H 0.02597 0.65463 0.51621 0.0
C165 C 0.00662 0.64293 0.49035 0.0
H166 H 0.99525 0.65848 0.48422 0.0
H167 H 0.9819 0.71913 0.44102 0.0
O168 O 0.049 0.63183 0.28186 0.0
C169 C 0.98526 0.67478 0.31839 0.0
Co170 Co 0.34663 0.36178 0.33144 0.0
Co171 Co 0.30335 0.3239 0.41395 0.0
C172 C 0.27944 0.35317 0.34435 0.0
O173 O 0.30657 0.36484 0.32328 0.0
O174 O 0.27453 0.33702 0.38046 0.0
C175 C 0.37628 0.40922 0.26126 0.0
O176 O 0.34773 0.40827 0.25848 0.0
C177 C 0.27028 0.31682 0.50055 0.0
C178 C 0.27701 0.27799 0.53241 0.0
C179 C 0.26597 0.30013 0.54069 0.0
N180 N 0.28412 0.3057 0.47088 0.0
N181 N 0.28741 0.28201 0.48996 0.0
C182 C 0.26088 0.34239 0.48984 0.0
H183 H 0.28285 0.36743 0.49316 0.0
H184 H 0.24098 0.34018 0.51224 0.0
H185 H 0.25205 0.33945 0.45511 0.0
C186 C 0.39491 0.40116 0.39977 0.0
N187 N 0.36516 0.37592 0.3878 0.0
N188 N 0.3478 0.36087 0.42341 0.0
C189 C 0.36643 0.37668 0.4596 0.0
C190 C 0.39689 0.40256 0.44554 0.0
C191 C 0.42041 0.42471 0.36784 0.0
H192 H 0.42758 0.41069 0.345 0.0
H193 H 0.40969 0.43704 0.34792 0.0
H194 H 0.44286 0.44394 0.38499 0.0
O195 O 0.3355 0.31661 0.32002 0.0
O196 O 0.30178 0.2876 0.37522 0.0
H197 H 0.3764 0.38144 0.53015 0.0
H198 H 0.3357 0.37316 0.51431 0.0
C199 C 0.35559 0.36751 0.50673 0.0
H200 H 0.3456 0.34061 0.51145 0.0
H201 H 0.29826 0.2697 0.47465 0.0
O202 O 0.37923 0.38947 0.28728 0.0
C203 C 0.3164 0.28916 0.33863 0.0
Co204 Co 0.95202 0.61421 0.83027 0.0
Co205 Co 0.97163 0.66949 0.90092 0.0
C206 C 0.91075 0.64462 0.84255 0.0
O207 O 0.91532 0.62235 0.82581 0.0
O208 O 0.93054 0.66459 0.87151 0.0
C209 C 0.91089 0.55285 0.78757 0.0
O210 O 0.88673 0.55685 0.80274 0.0
C211 C 0.9565 0.68482 0.98755 0.0
C212 C -0.00053 0.73347 0.00386 0.0
C213 C 0.96975 0.7085 0.02081 0.0
N214 N 0.97752 0.69501 0.953 0.0
N215 N 0.003 0.72435 0.96259 0.0
C216 C 0.92394 0.6532 0.9878 0.0
H217 H 0.91355 0.64708 0.95377 0.0
H218 H 0.92753 0.63263 0.99923 0.0
H219 H 0.90615 0.65508 0.01042 0.0
C220 C 0.96222 0.57949 0.90445 0.0
N221 N 0.95989 0.60516 0.88825 0.0
N222 N 0.97035 0.6288 0.91818 0.0
C223 C 0.98068 0.61899 0.9543 0.0
C224 C 0.97525 0.58717 0.94686 0.0
C225 C 0.95575 0.54969 0.87791 0.0
H226 H 0.97089 0.55775 0.84722 0.0
H227 H 0.92926 0.53578 0.86856 0.0
H228 H 0.96189 0.53296 0.89656 0.0
O229 O 0.99164 0.65329 0.80644 0.0
O230 O 0.00724 0.69388 0.85611 0.0
H231 H 0.01166 0.66677 0.98372 0.0
H232 H 0.01506 0.6333 0.00889 0.0
C233 C 0.99783 0.64037 0.99363 0.0
H234 H 0.97922 0.63702 0.01907 0.0
H235 H 0.02313 0.73773 0.94149 0.0
O236 O 0.94067 0.57573 0.79308 0.0
C237 C 0.01095 0.68305 0.81878 0.0
Co238 Co 0.37236 0.34295 0.84441 0.0
Co239 Co 0.32152 0.30257 0.91883 0.0
C240 C 0.34915 0.27253 0.85271 0.0
O241 O 0.36909 0.30029 0.8355 0.0
O242 O 0.32977 0.27004 0.88437 0.0
C243 C 0.42627 0.3719 0.7811 0.0
O244 O 0.42324 0.34248 0.77692 0.0
C245 C 0.3081 0.26941 0.0055 0.0
C246 C 0.25811 0.2604 0.02131 0.0
C247 C 0.28366 0.25657 0.03842 0.0
N248 N 0.29735 0.28027 0.97145 0.0
N249 N 0.26729 0.27443 0.98088 0.0
C250 C 0.34196 0.27338 0.00654 0.0
H251 H 0.35413 0.28385 0.03887 0.0
H252 H 0.33994 0.24884 0.00204 0.0
H253 H 0.35742 0.28967 0.97915 0.0
C254 C 0.40987 0.38528 0.91869 0.0
N255 N 0.38329 0.358 0.90288 0.0
N256 N 0.36163 0.3433 0.93493 0.0
C257 C 0.37379 0.36193 0.9723 0.0
C258 C 0.40481 0.38903 0.96289 0.0
C259 C 0.4396 0.40797 0.89173 0.0
H260 H 0.44705 0.39329 0.8707 0.0
H261 H 0.46083 0.42477 0.91303 0.0
H262 H 0.4332 0.42321 0.87021 0.0
O263 O 0.33064 0.33961 0.82642 0.0
O264 O 0.29263 0.31126 0.87786 0.0
H265 H 0.36209 0.37909 0.03218 0.0
H266 H 0.36285 0.34123 0.03749 0.0
C267 C 0.35553 0.35543 0.01529 0.0
H268 H 0.32846 0.341 0.00965 0.0
H269 H 0.25335 0.28074 0.96019 0.0
O270 O 0.40608 0.37552 0.80539 0.0
C271 C 0.30126 0.3269 0.84103 0.0
Co272 Co 0.68102 0.08563 0.84784 0.0
Co273 Co 0.71105 0.05547 0.90789 0.0
C274 C 0.74741 0.1239 0.86114 0.0
O275 O 0.7216 0.12622 0.85837 0.0
O276 O 0.74593 0.09824 0.87853 0.0
C277 C 0.65172 0.1186 0.79848 0.0
O278 O 0.67283 0.14694 0.81691 0.0
C279 C 0.73177 0.05916 0.99859 0.0
C280 C 0.73639 0.01459 0.005 0.0
C281 C 0.73583 0.03952 0.02947 0.0
N282 N 0.7295 0.0462 0.95806 0.0
N283 N 0.73345 0.0202 0.96182 0.0
C284 C 0.72434 0.08626 0.00816 0.0
H285 H 0.72226 0.09768 0.97686 0.0
H286 H 0.70095 0.0763 0.02725 0.0
H287 H 0.74432 0.10541 0.02907 0.0
C288 C 0.62748 0.0591 0.91333 0.0
N289 N 0.65812 0.067 0.90016 0.0
N290 N 0.66933 0.05169 0.925 0.0
C291 C 0.64528 0.03221 0.9541 0.0
C292 C 0.61805 0.03662 0.94803 0.0
C293 C 0.60574 0.06852 0.88812 0.0
H294 H 0.61954 0.09546 0.8812 0.0
H295 H 0.58283 0.0624 0.90657 0.0
H296 H 0.59876 0.05513 0.85593 0.0
O297 O 0.691 0.05437 0.81601 0.0
O298 O 0.70265 0.0234 0.86015 0.0
H299 H 0.62222 0.98586 0.99019 0.0
H300 H 0.6572 0.01933 0.01665 0.0
C301 C 0.64705 0.00752 0.98408 0.0
H302 H 0.66354 0.9992 0.96969 0.0
H303 H 0.73098 0.00452 0.93554 0.0
O304 O 0.65289 0.0927 0.80762 0.0
C305 C 0.69764 0.03122 0.82159 0.0
Co306 Co 0.38522 0.07591 0.65452 0.0
Co307 Co 0.32754 0.05286 0.58824 0.0
C308 C 0.35602 0.11718 0.64262 0.0
O309 O 0.37976 0.11438 0.65821 0.0
O310 O 0.335 0.0956 0.61598 0.0
C311 C 0.44524 0.10661 0.70966 0.0
O312 O 0.44746 0.13569 0.70566 0.0
C313 C 0.31102 0.0571 0.49696 0.0
C314 C 0.26232 0.01204 0.49 0.0
C315 C 0.28763 0.03734 0.4658 0.0
N316 N 0.30038 0.04377 0.53735 0.0
N317 N 0.27067 0.01749 0.53324 0.0
C318 C 0.34517 0.08503 0.48772 0.0
H319 H 0.35866 0.09603 0.51915 0.0
H320 H 0.35904 0.07613 0.46748 0.0
H321 H 0.34358 0.10429 0.46802 0.0
C322 C 0.4164 0.06018 0.58173 0.0
N323 N 0.39256 0.06597 0.59673 0.0
N324 N 0.36653 0.05116 0.57089 0.0
C325 C 0.37234 0.03351 0.54004 0.0
C326 C 0.4044 0.03899 0.54559 0.0
C327 C 0.44763 0.06941 0.60652 0.0
H328 H 0.44221 0.05098 0.63315 0.0
H329 H 0.45754 0.09429 0.62148 0.0
H330 H 0.46673 0.06964 0.58436 0.0
O331 O 0.3457 0.03753 0.68044 0.0
O332 O 0.30321 0.01896 0.63382 0.0
H333 H 0.3214 0.99924 0.52421 0.0
H334 H 0.35045 0.98735 0.50362 0.0
C335 C 0.34638 0.00846 0.50987 0.0
H336 H 0.3477 0.02017 0.47733 0.0
H337 H 0.25752 0.00157 0.55933 0.0
O338 O 0.42135 0.08135 0.6919 0.0
C339 C 0.31568 0.01725 0.67061 0.0
Co340 Co 0.96486 0.3437 0.68279 0.0
Co341 Co 0.97717 0.31215 0.59949 0.0
C342 C 0.92247 0.27238 0.66332 0.0
O343 O 0.93249 0.29769 0.6876 0.0
O344 O 0.93541 0.27397 0.62544 0.0
C345 C 0.92576 0.35507 0.74564 0.0
O346 O 0.90286 0.32454 0.73662 0.0
C347 C 0.96551 0.29315 0.50617 0.0
C348 C 0.00463 0.28116 0.49104 0.0
C349 C 0.97853 0.28308 0.47227 0.0
N350 N 0.98318 0.29726 0.54324 0.0
N351 N 0.00629 0.28965 0.53417 0.0
C352 C 0.93582 0.29742 0.50395 0.0
H353 H 0.9268 0.29811 0.53786 0.0
H354 H 0.94222 0.32084 0.4867 0.0
H355 H 0.91593 0.27691 0.48451 0.0
C356 C 0.96741 0.3914 0.61856 0.0
N357 N 0.96561 0.36228 0.62714 0.0
N358 N 0.97569 0.3527 0.59233 0.0
C359 C 0.98605 0.37687 0.56105 0.0
C360 C 0.98096 0.40213 0.57676 0.0
C361 C 0.95865 0.40995 0.65132 0.0
H362 H 0.97798 0.42064 0.6774 0.0
H363 H 0.93464 0.39275 0.66713 0.0
H364 H 0.95652 0.43016 0.63511 0.0
O365 O 0.00776 0.34792 0.6951 0.0
O366 O 0.01465 0.31997 0.63994 0.0
H367 H 0.02747 0.40438 0.51759 0.0
H368 H 0.99053 0.37413 0.49068 0.0
C369 C 0.00593 0.37901 0.52085 0.0
H370 H 0.01482 0.36104 0.52278 0.0
H371 H 0.02357 0.29083 0.55719 0.0
O372 O 0.9544 0.36671 0.72866 0.0
C373 C 0.02402 0.33607 0.67637 0.0
Co374 Co 0.67197 0.60655 0.66471 0.0
Co375 Co 0.70053 0.65844 0.58969 0.0
C376 C 0.74201 0.6384 0.64701 0.0
O377 O 0.71671 0.61495 0.66531 0.0
O378 O 0.73941 0.65736 0.61869 0.0
C379 C 0.64776 0.54821 0.72114 0.0
O380 O 0.66786 0.54027 0.70115 0.0
C381 C 0.72665 0.67132 0.49967 0.0
C382 C 0.72151 0.71388 0.47898 0.0
C383 C 0.73044 0.69142 0.4632 0.0
N384 N 0.71542 0.6811 0.53431 0.0
N385 N 0.71283 0.70686 0.52197 0.0
C386 C 0.73326 0.64312 0.50262 0.0
H387 H 0.71113 0.62011 0.49115 0.0
H388 H 0.75487 0.64795 0.48181 0.0
H389 H 0.738 0.63913 0.5375 0.0
C390 C 0.62281 0.56646 0.59741 0.0
N391 N 0.65164 0.5931 0.60936 0.0
N392 N 0.66179 0.61559 0.5779 0.0
C393 C 0.63884 0.60409 0.5451 0.0
C394 C 0.61357 0.57236 0.55619 0.0
C395 C 0.60195 0.53825 0.62798 0.0
H396 H 0.59537 0.54776 0.65778 0.0
H397 H 0.61632 0.52647 0.63887 0.0
H398 H 0.57883 0.51925 0.6119 0.0
O399 O 0.67076 0.64603 0.68453 0.0
O400 O 0.68893 0.68431 0.63166 0.0
H401 H 0.64674 0.64972 0.51712 0.0
H402 H 0.615 0.61299 0.48932 0.0
C403 C 0.63939 0.62427 0.50613 0.0
H404 H 0.65802 0.62591 0.48183 0.0
H405 H 0.70402 0.71885 0.54238 0.0
O406 O 0.64712 0.57399 0.70959 0.0
C407 C 0.67705 0.67427 0.67041 0.0
H408 H 0.01834 0.28485 0.72296 0.0
H409 H 0.08436 0.38826 0.69496 0.0
H410 H 0.11401 0.39401 0.76502 0.0
H411 H 0.00139 0.29491 0.82084 0.0
H412 H 0.99871 0.25943 0.84862 0.0
H413 H 0.99243 0.25826 0.78984 0.0
H414 H 0.03909 0.24476 0.77596 0.0
H415 H 0.04502 0.24474 0.83521 0.0
H416 H 0.07948 0.27073 0.79968 0.0
H417 H 0.12143 0.39413 0.84457 0.0
H418 H 0.11048 0.38787 0.92393 0.0
H419 H 0.04037 0.28351 0.90557 0.0
C420 C 0.04076 0.30787 0.73019 0.0
C421 C 0.04999 0.33585 0.70325 0.0
C422 C 0.07788 0.36638 0.71458 0.0
C423 C 0.09466 0.36982 0.75455 0.0
C424 C 0.08302 0.3425 0.78278 0.0
C425 C 0.05711 0.31174 0.77067 0.0
C426 C 0.04447 0.28851 0.8103 0.0
C427 C 0.00708 0.27452 0.81781 0.0
C428 C 0.05251 0.26053 0.80497 0.0
C429 C 0.06488 0.31194 0.84718 0.0
C430 C 0.08768 0.34259 0.83039 0.0
C431 C 0.10512 0.3698 0.8581 0.0
C432 C 0.09888 0.36584 0.90383 0.0
C433 C 0.07571 0.33469 0.92196 0.0
C434 C 0.05908 0.30736 0.89303 0.0
H435 H 0.63682 0.69274 0.9132 0.0
H436 H 0.72623 0.78837 0.91223 0.0
H437 H 0.72562 0.78816 0.83002 0.0
H438 H 0.66042 0.65907 0.83546 0.0
H439 H 0.62077 0.63399 0.80933 0.0
H440 H 0.62274 0.64595 0.86633 0.0
H441 H 0.58656 0.67226 0.84857 0.0
H442 H 0.58441 0.66025 0.79113 0.0
H443 H 0.59907 0.70291 0.80526 0.0
H444 H 0.72165 0.77254 0.74961 0.0
H445 H 0.71734 0.74122 0.68111 0.0
H446 H 0.63089 0.65564 0.73487 0.0
C447 C 0.65509 0.7145 0.89575 0.0
C448 C 0.68093 0.74106 0.91897 0.0
C449 C 0.70582 0.7681 0.8949 0.0
C450 C 0.70555 0.76825 0.84823 0.0
C451 C 0.68024 0.74111 0.82612 0.0
C452 C 0.65535 0.71475 0.84925 0.0
C453 C 0.63448 0.68604 0.81862 0.0
C454 C 0.63467 0.65445 0.8333 0.0
C455 C 0.59903 0.68003 0.81572 0.0
C456 C 0.65277 0.69946 0.77524 0.0
C457 C 0.67843 0.73166 0.77971 0.0
C458 C 0.70111 0.74766 0.74537 0.0
C459 C 0.69841 0.7298 0.70641 0.0
C460 C 0.67363 0.69618 0.70274 0.0
C461 C 0.64973 0.68152 0.73667 0.0
H462 H 0.33166 0.98322 0.72835 0.0
H463 H 0.25413 0.00456 0.69447 0.0
H464 H 0.22854 0.98429 0.76819 0.0
H465 H 0.27805 0.90836 0.80526 0.0
H466 H 0.31305 0.92072 0.84149 0.0
H467 H 0.31923 0.92747 0.78239 0.0
H468 H 0.36007 0.98958 0.797 0.0
H469 H 0.35356 0.98335 0.85573 0.0
H470 H 0.34629 0.01345 0.82824 0.0
H471 H 0.22206 0.97838 0.85083 0.0
H472 H 0.23003 0.97853 0.93236 0.0
H473 H 0.30993 0.95827 0.91116 0.0
C474 C 0.30826 0.98181 0.7357 0.0
C475 C 0.2946 0.99505 0.70599 0.0
C476 C 0.26451 0.99382 0.71665 0.0
C477 C 0.24994 0.98252 0.75854 0.0
C478 C 0.26537 0.97175 0.78855 0.0
C479 C 0.2933 0.97021 0.77701 0.0
C480 C 0.3077 0.96187 0.81663 0.0
C481 C 0.30429 0.92755 0.81111 0.0
C482 C 0.34401 0.98867 0.82486 0.0
C483 C 0.28521 0.96161 0.85291 0.0
C484 C 0.26064 0.96692 0.83617 0.0
C485 C 0.24023 0.97277 0.86418 0.0
C486 C 0.24506 0.97311 0.9103 0.0
C487 C 0.26984 0.96733 0.92766 0.0
C488 C 0.28977 0.96112 0.89863 0.0
H489 H 0.71901 0.03321 0.56514 0.0
H490 H 0.67385 0.92637 0.56846 0.0
H491 H 0.679 0.92828 0.65014 0.0
H492 H 0.77702 0.05006 0.66177 0.0
H493 H 0.7719 0.08411 0.67965 0.0
H494 H 0.77005 0.07443 0.62134 0.0
H495 H 0.71237 0.06974 0.61616 0.0
H496 H 0.71406 0.07921 0.6742 0.0
H497 H 0.67973 0.04166 0.65272 0.0
H498 H 0.68082 0.94174 0.73277 0.0
H499 H 0.67985 0.9659 0.80616 0.0
H500 H 0.72562 0.06321 0.74609 0.0
C501 C 0.71111 0.01022 0.58276 0.0
C502 C 0.69504 0.9796 0.56043 0.0
C503 C 0.68494 0.95011 0.58487 0.0
C504 C 0.68833 0.95098 0.63133 0.0
C505 C 0.70272 0.9816 0.65258 0.0
C506 C 0.71452 0.01074 0.6288 0.0
C507 C 0.7259 0.04024 0.65906 0.0
C508 C 0.76345 0.06358 0.65523 0.0
C509 C 0.70685 0.05875 0.65 0.0
C510 C 0.71683 0.02298 0.70348 0.0
C511 C 0.70418 0.98927 0.69957 0.0
C512 C 0.69138 0.96821 0.73632 0.0
C513 C 0.69087 0.98201 0.77777 0.0
C514 C 0.70249 0.01628 0.78137 0.0
C515 C 0.71651 0.03689 0.74411 0.0
H516 H 0.05227 0.70187 0.57028 0.0
H517 H 0.03949 0.78749 0.57453 0.0
H518 H 0.04786 0.79089 0.65604 0.0
H519 H 0.00398 0.66391 0.65585 0.0
H520 H 0.02677 0.64528 0.6779 0.0
H521 H 0.03018 0.65579 0.62015 0.0
H522 H 0.09382 0.69161 0.6281 0.0
H523 H 0.09056 0.6812 0.68632 0.0
H524 H 0.11124 0.72396 0.66932 0.0
H525 H 0.04677 0.77859 0.7369 0.0
H526 H 0.02868 0.74798 0.80772 0.0
H527 H 0.04013 0.66902 0.75076 0.0
C528 C 0.05313 0.72244 0.58801 0.0
C529 C 0.0464 0.74512 0.5661 0.0
C530 C 0.04538 0.77036 0.59079 0.0
C531 C 0.05034 0.77257 0.63699 0.0
C532 C 0.05607 0.74919 0.65795 0.0
C533 C 0.0574 0.72451 0.63409 0.0
C534 C 0.05714 0.69857 0.66451 0.0
C535 C 0.02777 0.66389 0.65399 0.0
C536 C 0.09017 0.69888 0.66191 0.0
C537 C 0.05315 0.71121 0.70908 0.0
C538 C 0.05396 0.74115 0.7049 0.0
C539 C 0.04689 0.75559 0.74077 0.0
C540 C 0.03683 0.73811 0.78107 0.0
C541 C 0.03318 0.70622 0.78464 0.0
C542 C 0.04325 0.69361 0.74901 0.0
H543 H 0.24155 0.25779 0.61102 0.0
H544 H 0.27632 0.35983 0.57441 0.0
H545 H 0.27101 0.37281 0.65158 0.0
H546 H 0.18762 0.25292 0.71023 0.0
H547 H 0.20142 0.2291 0.74146 0.0
H548 H 0.19732 0.22479 0.68186 0.0
H549 H 0.25843 0.23887 0.67539 0.0
H550 H 0.26237 0.24266 0.73463 0.0
H551 H 0.29047 0.27664 0.69986 0.0
H552 H 0.27561 0.37866 0.73268 0.0
H553 H 0.29473 0.3775 0.80867 0.0
H554 H 0.25816 0.27261 0.79633 0.0
C555 C 0.24667 0.28254 0.61897 0.0
C556 C 0.25777 0.30727 0.58574 0.0
C557 C 0.26572 0.33974 0.59802 0.0
C558 C 0.26308 0.34752 0.64231 0.0
C559 C 0.25278 0.32274 0.67438 0.0
C560 C 0.24473 0.29083 0.66325 0.0
C561 C 0.24068 0.27042 0.70448 0.0
C562 C 0.20461 0.24267 0.70981 0.0
C563 C 0.26441 0.25638 0.70352 0.0
C564 C 0.25007 0.29649 0.74034 0.0
C565 C 0.25584 0.32623 0.72238 0.0
C566 C 0.26999 0.35528 0.74747 0.0
C567 C 0.2805 0.35441 0.79086 0.0
C568 C 0.27668 0.32472 0.80874 0.0
C569 C 0.25958 0.29513 0.78414 0.0
H570 H 0.94836 0.63117 0.25454 0.0
H571 H 0.97595 0.72769 0.30779 0.0
H572 H 0.96127 0.74309 0.23655 0.0
H573 H 0.98716 0.6561 0.16304 0.0
H574 H 0.95864 0.62424 0.12596 0.0
H575 H 0.95791 0.61561 0.184 0.0
H576 H 0.89597 0.59832 0.1889 0.0
H577 H 0.89612 0.60609 0.13014 0.0
H578 H 0.88235 0.62602 0.16914 0.0
H579 H 0.96292 0.75432 0.15542 0.0
H580 H 0.97308 0.75745 0.07433 0.0
H581 H 0.94501 0.65392 0.07362 0.0
C582 C 0.9492 0.65472 0.25198 0.0
C583 C 0.96314 0.67818 0.2865 0.0
C584 C 0.96476 0.70913 0.282 0.0
C585 C 0.95669 0.71816 0.24138 0.0
C586 C 0.94633 0.69566 0.20619 0.0
C587 C 0.94148 0.66405 0.2116 0.0
C588 C 0.93611 0.64659 0.16737 0.0
C589 C 0.96148 0.63502 0.15969 0.0
C590 C 0.90051 0.61754 0.16367 0.0
C591 C 0.94174 0.67423 0.13604 0.0
C592 C 0.94678 0.70211 0.15887 0.0
C593 C 0.95759 0.73224 0.13711 0.0
C594 C 0.96357 0.7339 0.09115 0.0
C595 C 0.9587 0.70562 0.06748 0.0
C596 C 0.94715 0.67543 0.09026 0.0
H597 H 0.26006 0.26498 0.29454 0.0
H598 H 0.34701 0.25567 0.30979 0.0
H599 H 0.33865 0.23191 0.23435 0.0
H600 H 0.2128 0.19583 0.20642 0.0
H601 H 0.2015 0.22271 0.17789 0.0
H602 H 0.20492 0.22416 0.23766 0.0
H603 H 0.24589 0.28704 0.23294 0.0
H604 H 0.24375 0.2859 0.17349 0.0
H605 H 0.28323 0.30186 0.20067 0.0
H606 H 0.32935 0.22286 0.15235 0.0
H607 H 0.32186 0.23098 0.07355 0.0
H608 H 0.24699 0.25612 0.10932 0.0
C609 C 0.27558 0.25525 0.2832 0.0
C610 C 0.30325 0.26064 0.30853 0.0
C611 C 0.32482 0.25025 0.29162 0.0
C612 C 0.32039 0.2371 0.2485 0.0
C613 C 0.29465 0.23516 0.22253 0.0
C614 C 0.27239 0.24379 0.23949 0.0
C615 C 0.25236 0.24767 0.20267 0.0
C616 C 0.21572 0.22099 0.20638 0.0
C617 C 0.25661 0.28268 0.20246 0.0
C618 C 0.26821 0.24197 0.16227 0.0
C619 C 0.29158 0.23352 0.17436 0.0
C620 C 0.31102 0.22939 0.14264 0.0
C621 C 0.3071 0.23489 0.0977 0.0
C622 C 0.28487 0.24577 0.08482 0.0
C623 C 0.26438 0.24803 0.11771 0.0
H624 H 0.6122 0.95131 0.22846 0.0
H625 H 0.67783 0.0333 0.31334 0.0
H626 H 0.71334 0.06176 0.2484 0.0
H627 H 0.67359 0.94824 0.16939 0.0
H628 H 0.65223 0.93748 0.11681 0.0
H629 H 0.62901 0.92612 0.1678 0.0
H630 H 0.59822 0.95685 0.14317 0.0
H631 H 0.62084 0.96773 0.09156 0.0
H632 H 0.62175 -0.0004 0.12638 0.0
H633 H 0.74349 0.07946 0.17399 0.0
H634 H 0.76519 0.08424 0.09716 0.0
H635 H 0.68172 0.98812 0.06525 0.0
C636 C 0.63343 0.97573 0.23328 0.0
C637 C 0.64204 0.99029 0.27584 0.0
C638 C 0.67062 0.02185 0.28087 0.0
C639 C 0.69094 0.03816 0.24423 0.0
C640 C 0.68238 0.02243 0.20301 0.0
C641 C 0.65417 0.99197 0.19742 0.0
C642 C 0.65182 0.97879 0.15091 0.0
C643 C 0.65167 0.94571 0.15129 0.0
C644 C 0.62136 0.97556 0.12658 0.0
C645 C 0.68347 0.0062 0.13141 0.0
C646 C 0.70057 0.03151 0.1615 0.0
C647 C 0.73033 0.05973 0.15024 0.0
C648 C 0.74257 0.06219 0.10686 0.0
C649 C 0.72538 0.03622 0.07611 0.0
C650 C 0.69568 0.00792 0.08869 0.0
H651 H 0.32112 0.94871 0.26547 0.0
H652 H 0.3376 0.03088 0.18081 0.0
H653 H 0.33116 0.05956 0.24606 0.0
H654 H 0.25726 0.94644 0.32568 0.0
H655 H 0.26812 0.93539 0.37786 0.0
H656 H 0.27925 0.92382 0.32645 0.0
H657 H 0.34093 0.95382 0.35011 0.0
H658 H 0.32994 0.96499 0.40209 0.0
H659 H 0.36077 0.9966 0.3669 0.0
H660 H 0.31962 0.07761 0.32118 0.0
H661 H 0.30338 0.08251 0.3984 0.0
H662 H 0.29022 0.98602 0.42945 0.0
C663 C 0.32439 0.97317 0.26068 0.0
C664 C 0.33026 0.98773 0.21812 0.0
C665 C 0.3334 0.0194 0.21324 0.0
C666 C 0.32974 0.03583 0.25008 0.0
C667 C 0.32275 0.02013 0.29134 0.0
C668 C 0.32025 0.98952 0.29671 0.0
C669 C 0.30977 0.97641 0.3433 0.0
C670 C 0.27664 0.94359 0.34328 0.0
C671 C 0.33698 0.97275 0.36699 0.0
C672 C 0.30611 0.00408 0.3632 0.0
C673 C 0.31424 0.02943 0.33319 0.0
C674 C 0.31312 0.05784 0.34485 0.0
C675 C 0.30375 0.06038 0.38847 0.0
C676 C 0.29498 0.03433 0.4191 0.0
C677 C 0.29608 0.00591 0.40616 0.0
H678 H 0.97712 0.33074 0.42284 0.0
H679 H 0.96882 0.23437 0.41379 0.0
H680 H 0.96791 0.23733 0.33164 0.0
H681 H 0.92988 0.32621 0.31661 0.0
H682 H 0.95885 0.36905 0.30484 0.0
H683 H 0.9489 0.35517 0.36163 0.0
H684 H 0.01115 0.37897 0.37851 0.0
H685 H 0.02125 0.39279 0.32214 0.0
H686 H 0.0347 0.36584 0.34529 0.0
H687 H 0.97793 0.25495 0.25207 0.0
H688 H 0.00446 0.2877 0.18451 0.0
H689 H 0.0091 0.37381 0.2462 0.0
C690 C 0.9732 0.30952 0.40352 0.0
C691 C 0.97181 0.28181 0.4243 0.0
C692 C 0.96909 0.25541 0.39816 0.0
C693 C 0.96836 0.25685 0.3516 0.0
C694 C 0.97068 0.28502 0.33185 0.0
C695 C 0.97313 0.31095 0.35715 0.0
C696 C 0.9818 0.34097 0.32876 0.0
C697 C 0.95314 0.34827 0.32791 0.0
C698 C 0.01414 0.37138 0.34461 0.0
C699 C 0.98598 0.32868 0.28404 0.0
C700 C 0.97818 0.29595 0.28602 0.0
C701 C 0.98339 0.28034 0.24985 0.0
C702 C 0.99834 0.29907 0.2115 0.0
C703 C 0.00862 0.33317 0.21027 0.0
C704 C 0.00103 0.34764 0.24622 0.0
H705 H 0.7248 0.73577 0.21644 0.0
H706 H 0.69454 0.63397 0.18698 0.0
H707 H 0.71861 0.62952 0.25773 0.0
H708 H 0.80141 0.75437 0.29254 0.0
H709 H 0.791 0.77875 0.32846 0.0
H710 H 0.78444 0.77833 0.26932 0.0
H711 H 0.72328 0.76093 0.28401 0.0
H712 H 0.72911 0.76022 0.34273 0.0
H713 H 0.69759 0.7237 0.3152 0.0
H714 H 0.72625 0.62971 0.33791 0.0
H715 H 0.72242 0.63579 0.41755 0.0
H716 H 0.75025 0.73872 0.39896 0.0
C717 C 0.7258 0.71353 0.22355 0.0
C718 C 0.70907 0.68558 0.19588 0.0
C719 C 0.70846 0.65594 0.20711 0.0
C720 C 0.72188 0.6532 0.24746 0.0
C721 C 0.73577 0.68037 0.27609 0.0
C722 C 0.73866 0.71039 0.26417 0.0
C723 C 0.74821 0.73347 0.30386 0.0
C724 C 0.78336 0.76298 0.29821 0.0
C725 C 0.72303 0.7452 0.31189 0.0
C726 C 0.74703 0.71068 0.34057 0.0
C727 C 0.74074 0.68054 0.3237 0.0
C728 C 0.73297 0.65375 0.35147 0.0
C729 C 0.73113 0.65762 0.39738 0.0
C730 C 0.73744 0.68827 0.41561 0.0
C731 C 0.74624 0.71523 0.38649 0.0
H732 H 0.03652 0.59535 0.96587 0.0
H733 H 0.93164 0.52972 0.98637 0.0
H734 H 0.94294 0.48741 0.01797 0.0
H735 H 0.0549 0.53517 0.93076 0.0
H736 H 0.09438 0.55195 0.9582 0.0
H737 H 0.0789 0.57889 0.94216 0.0
H738 H 0.0841 0.59961 0.02326 0.0
H739 H 0.10034 0.5733 0.03942 0.0
H740 H 0.0647 0.57 0.0675 0.0
H741 H 0.96505 0.45031 0.04046 0.0
H742 H 0.99711 0.42286 0.05967 0.0
H743 H 0.08799 0.51213 0.02515 0.0
C744 C 0.01617 0.57255 0.97868 0.0
C745 C 0.98324 0.56595 0.97482 0.0
C746 C 0.95703 0.53539 0.99014 0.0
C747 C 0.96322 0.51116 0.00774 0.0
C748 C 0.99584 0.5179 0.00986 0.0
C749 C 0.02199 0.54804 0.9965 0.0
C750 C 0.05456 0.5483 0.00068 0.0
C751 C 0.07168 0.55391 0.95524 0.0
C752 C 0.07727 0.57435 0.03475 0.0
C753 C 0.04258 0.51347 0.01759 0.0
C754 C 0.0086 0.49636 0.0226 0.0
C755 C 0.99168 0.46353 0.0369 0.0
C756 C 0.01 0.44802 0.04727 0.0
C757 C 0.04486 0.46524 0.04319 0.0
C758 C 0.06129 0.49834 0.028 0.0
H759 H 0.52043 0.58175 0.00924 0.0
H760 H 0.58509 0.55694 0.08191 0.0
H761 H 0.54614 0.49734 0.06901 0.0
H762 H 0.4453 0.51668 0.04888 0.0
H763 H 0.42293 0.50856 0.99728 0.0
H764 H 0.45686 0.54939 0.00883 0.0
H765 H 0.48634 0.5488 0.93605 0.0
H766 H 0.45193 0.50848 0.9235 0.0
H767 H 0.49326 0.51471 0.92531 0.0
H768 H 0.49779 0.44012 0.05286 0.0
H769 H 0.44845 0.3901 0.0236 0.0
H770 H 0.41572 0.45202 0.96028 0.0
C771 C 0.52688 0.56372 0.02083 0.0
C772 C 0.55613 0.57379 0.04546 0.0
C773 C 0.56325 0.5496 0.06182 0.0
C774 C 0.54104 0.51573 0.05519 0.0
C775 C 0.51179 0.50646 0.03206 0.0
C776 C 0.50504 0.52977 0.01418 0.0
C777 C 0.47181 0.51323 0.99076 0.0
C778 C 0.44781 0.52253 0.01276 0.0
C779 C 0.4761 0.52181 0.94095 0.0
C780 C 0.46085 0.47704 0.99843 0.0
C781 C 0.48405 0.47364 0.02283 0.0
C782 C 0.47946 0.44252 0.03376 0.0
C783 C 0.45118 0.41423 0.01764 0.0
C784 C 0.42797 0.41729 0.99087 0.0
C785 C 0.43263 0.44907 0.9819 0.0
H786 H 0.5802 0.0558 0.99485 0.0
H787 H 0.57783 0.97074 0.93323 0.0
H788 H 0.51784 0.93724 0.94879 0.0
H789 H 0.51924 0.01057 0.08233 0.0
H790 H 0.50134 0.03694 0.07904 0.0
H791 H 0.54433 0.05317 0.0656 0.0
H792 H 0.53443 0.07167 0.98868 0.0
H793 H 0.49125 0.05486 0.00149 0.0
H794 H 0.50331 0.04151 0.95225 0.0
H795 H 0.45777 0.91379 0.96813 0.0
H796 H 0.40246 0.90064 0.99546 0.0
H797 H 0.44327 0.00108 0.04347 0.0
C798 C 0.56706 0.02989 0.98566 0.0
C799 C 0.58361 0.01552 0.96377 0.0
C800 C 0.56568 0.98185 0.95111 0.0
C801 C 0.53158 0.96281 0.95935 0.0
C802 C 0.51578 0.97789 0.98008 0.0
C803 C 0.53297 0.01057 0.99352 0.0
C804 C 0.50994 0.02094 0.0144 0.0
C805 C 0.51926 0.03099 0.06325 0.0
C806 C 0.50973 0.0489 0.9876 0.0
C807 C 0.47709 0.98902 0.01058 0.0
C808 C 0.48103 0.96455 0.99046 0.0
C809 C 0.45439 0.93278 0.98377 0.0
C810 C 0.42308 0.92559 0.99903 0.0
C811 C 0.41862 0.95004 0.02053 0.0
C812 C 0.44591 0.98224 0.02596 0.0
H813 H 0.54451 0.0038 0.45171 0.0
H814 H 0.48748 0.905 0.50605 0.0
H815 H 0.44525 0.91816 0.53311 0.0
H816 H 0.5254 0.04638 0.54102 0.0
H817 H 0.52337 0.07507 0.50285 0.0
H818 H 0.55004 0.0584 0.49106 0.0
H819 H 0.5212 0.03774 0.41475 0.0
H820 H 0.49393 0.05365 0.42677 0.0
H821 H 0.47701 0.01062 0.4127 0.0
H822 H 0.40778 0.94099 0.55041 0.0
H823 H 0.38024 0.97384 0.56355 0.0
H824 H 0.46093 0.05783 0.49737 0.0
C825 C 0.5236 0.9854 0.47054 0.0
C826 C 0.51937 0.95358 0.47766 0.0
C827 C 0.49128 0.92967 0.5011 0.0
C828 C 0.46711 0.93685 0.5162 0.0
C829 C 0.47141 0.96812 0.50755 0.0
C830 C 0.49919 0.99221 0.48588 0.0
C831 C 0.49738 0.0236 0.48011 0.0
C832 C 0.52573 0.05258 0.50526 0.0
C833 C 0.49738 0.03187 0.43064 0.0
C834 C 0.46416 0.01328 0.50151 0.0
C835 C 0.44956 0.98112 0.51698 0.0
C836 C 0.41894 0.96615 0.53832 0.0
C837 C 0.40327 0.9848 0.54515 0.0
C838 C 0.41811 0.01799 0.53049 0.0
C839 C 0.44878 0.03224 0.508 0.0
H840 H 0.9907 0.54542 0.42007 0.0
H841 H 0.05014 0.61513 0.52263 0.0
H842 H 0.04728 0.56911 0.56718 0.0
H843 H 0.93725 0.47808 0.49349 0.0
H844 H 0.9354 0.44655 0.45698 0.0
H845 H 0.94152 0.48492 0.43428 0.0
H846 H 0.99482 0.49391 0.39498 0.0
H847 H 0.98914 0.45579 0.41812 0.0
H848 H 0.02727 0.49393 0.42743 0.0
H849 H 0.04038 0.51608 0.59842 0.0
H850 H 0.02415 0.45879 0.61921 0.0
H851 H 0.96842 0.42278 0.49683 0.0
C852 C 0.00296 0.5509 0.45204 0.0
C853 C 0.0208 0.58381 0.46796 0.0
C854 C 0.03618 0.59008 0.51008 0.0
C855 C 0.03495 0.56414 0.53532 0.0
C856 C 0.01808 0.53211 0.51798 0.0
C857 C 0.00196 0.52532 0.47759 0.0
C858 C 0.98529 0.48867 0.46672 0.0
C859 C 0.94763 0.47367 0.46265 0.0
C860 C 1e-05 0.48274 0.4243 0.0
C861 C 0.99434 0.47578 0.5075 0.0
C862 C 0.0136 0.50139 0.53635 0.0
C863 C 0.02511 0.49586 0.57626 0.0
C864 C 0.0158 0.46325 0.58774 0.0
C865 C 0.99477 0.43643 0.55983 0.0
C866 C 0.9846 0.44287 0.51864 0.0
H867 H 0.58586 0.51091 0.51868 0.0
H868 H 0.56541 0.58903 0.55301 0.0
H869 H 0.50645 0.55262 0.53291 0.0
H870 H 0.52945 0.47911 0.4233 0.0
H871 H 0.51787 0.43676 0.43478 0.0
H872 H 0.55827 0.46973 0.45033 0.0
H873 H 0.54715 0.44814 0.53147 0.0
H874 H 0.50637 0.41562 0.51641 0.0
H875 H 0.51145 0.44399 0.56044 0.0
H876 H 0.44892 0.50617 0.51277 0.0
H877 H 0.39908 0.45624 0.48428 0.0
H878 H 0.45738 0.40899 0.46128 0.0
C879 C 0.56902 0.52049 0.52087 0.0
C880 C 0.58007 0.55286 0.53663 0.0
C881 C 0.55738 0.56449 0.54013 0.0
C882 C 0.52386 0.54386 0.52926 0.0
C883 C 0.51349 0.5117 0.51485 0.0
C884 C 0.53554 0.50029 0.50983 0.0
C885 C 0.51817 0.46483 0.49335 0.0
C886 C 0.53174 0.46248 0.44773 0.0
C887 C 0.52096 0.44179 0.52746 0.0
C888 C 0.48289 0.458 0.48987 0.0
C889 C 0.4806 0.4852 0.50297 0.0
C890 C 0.45047 0.48477 0.50247 0.0
C891 C 0.42225 0.45626 0.48676 0.0
C892 C 0.42443 0.42874 0.47159 0.0
C893 C 0.45503 0.42951 0.47373 0.0
H894 H 0.09755 0.49027 0.261 0.0
H895 H 0.18738 0.5465 0.18404 0.0
H896 H 0.18058 0.59564 0.18887 0.0
H897 H 0.05365 0.5172 0.20393 0.0
H898 H 0.02948 0.51836 0.24993 0.0
H899 H 0.04532 0.49028 0.25103 0.0
H900 H 0.07573 0.51507 0.32567 0.0
H901 H 0.0583 0.54186 0.32586 0.0
H902 H 0.10241 0.55921 0.33052 0.0
H903 H 0.15862 0.6356 0.19194 0.0
H904 H 0.12738 0.66514 0.20203 0.0
H905 H 0.04962 0.57919 0.26965 0.0
C906 C 0.11662 0.51329 0.24677 0.0
C907 C 0.14291 0.5146 0.22207 0.0
C908 C 0.16716 0.54505 0.20348 0.0
C909 C 0.16331 0.57298 0.20567 0.0
C910 C 0.13528 0.56985 0.22676 0.0
C911 C 0.11272 0.54089 0.24775 0.0
C912 C 0.08268 0.54217 0.26346 0.0
C913 C 0.05094 0.51542 0.24071 0.0
C914 C 0.07964 0.53945 0.3144 0.0
C915 C 0.09162 0.57625 0.2476 0.0
C916 C 0.12206 0.59203 0.22676 0.0
C917 C 0.13495 0.62362 0.20875 0.0
C918 C 0.11686 0.64003 0.21414 0.0
C919 C 0.08622 0.62455 0.23701 0.0
C920 C 0.07312 0.59187 0.25246 0.0
H921 H 0.48947 0.60309 0.23539 0.0
H922 H 0.5709 0.58894 0.27563 0.0
H923 H 0.53311 0.52879 0.27888 0.0
H924 H 0.42541 0.5344 0.30524 0.0
H925 H 0.39412 0.52416 0.26339 0.0
H926 H 0.42723 0.56623 0.26939 0.0
H927 H 0.44101 0.56626 0.18584 0.0
H928 H 0.40912 0.52364 0.18013 0.0
H929 H 0.45121 0.53612 0.16543 0.0
H930 H 0.48991 0.4711 0.26494 0.0
H931 H 0.43832 0.41764 0.26013 0.0
H932 H 0.38362 0.46867 0.23391 0.0
C933 C 0.49901 0.58749 0.24689 0.0
C934 C 0.53307 0.60049 0.2549 0.0
C935 C 0.54482 0.57929 0.26921 0.0
C936 C 0.5237 0.54513 0.27058 0.0
C937 C 0.49088 0.53283 0.25851 0.0
C938 C 0.47816 0.55324 0.24886 0.0
C939 C 0.4418 0.53333 0.23721 0.0
C940 C 0.4209 0.5399 0.27082 0.0
C941 C 0.43544 0.54027 0.18931 0.0
C942 C 0.4363 0.49863 0.24163 0.0
C943 C 0.46522 0.49908 0.25276 0.0
C944 C 0.46686 0.47031 0.25734 0.0
C945 C 0.43748 0.4401 0.25409 0.0
C946 C 0.40691 0.43911 0.24784 0.0
C947 C 0.40658 0.46865 0.23901 0.0
H948 H 0.3486 0.84969 0.25027 0.0
H949 H 0.34656 0.80676 0.12197 0.0
H950 H 0.38682 0.79109 0.1488 0.0
H951 H 0.4271 0.88991 0.26277 0.0
H952 H 0.42977 0.88438 0.32163 0.0
H953 H 0.39291 0.88131 0.29902 0.0
H954 H 0.35778 0.82249 0.33204 0.0
H955 H 0.39473 0.82557 0.35564 0.0
H956 H 0.36857 0.79119 0.32012 0.0
H957 H 0.43811 0.79574 0.18091 0.0
H958 H 0.49285 0.8176 0.21675 0.0
H959 H 0.46061 0.85656 0.32431 0.0
C960 C 0.35547 0.8355 0.22872 0.0
C961 C 0.34475 0.82938 0.18433 0.0
C962 C 0.35434 0.81127 0.1564 0.0
C963 C 0.37717 0.80225 0.17141 0.0
C964 C 0.38931 0.81083 0.21463 0.0
C965 C 0.37804 0.8263 0.24334 0.0
C966 C 0.39871 0.83816 0.28503 0.0
C967 C 0.41296 0.87563 0.29245 0.0
C968 C 0.37875 0.81814 0.3256 0.0
C969 C 0.42533 0.83014 0.27328 0.0
C970 C 0.41907 0.81338 0.23335 0.0
C971 C 0.44276 0.80783 0.21293 0.0
C972 C 0.47383 0.82049 0.2333 0.0
C973 C 0.48087 0.83894 0.27307 0.0
C974 C 0.45585 0.84251 0.29396 0.0
H975 H 0.96677 0.42031 0.7622 0.0
H976 H 0.86348 0.3434 0.7668 0.0
H977 H 0.84743 0.38609 0.77725 0.0
H978 H 0.96207 0.47889 0.83998 0.0
H979 H 0.99097 0.51373 0.80717 0.0
H980 H 0.99367 0.47657 0.80836 0.0
H981 H 0.99011 0.47434 0.72218 0.0
H982 H 0.98593 0.51061 0.72079 0.0
H983 H 0.9549 0.47284 0.69518 0.0
H984 H 0.84298 0.43826 0.78063 0.0
H985 H 0.85109 0.49488 0.78391 0.0
H986 H 0.9569 0.53543 0.76776 0.0
C987 C 0.94079 0.41223 0.76662 0.0
C988 C 0.91636 0.37859 0.76349 0.0
C989 C 0.88264 0.36911 0.76929 0.0
C990 C 0.87327 0.39317 0.77487 0.0
C991 C 0.89798 0.42634 0.77448 0.0
C992 C 0.93107 0.43576 0.7711 0.0
C993 C 0.9528 0.47279 0.7681 0.0
C994 C 0.97625 0.48628 0.8083 0.0
C995 C 0.97205 0.48322 0.72394 0.0
C996 C 0.92677 0.48282 0.76976 0.0
C997 C 0.89531 0.45588 0.77392 0.0
C998 C 0.86753 0.45955 0.77747 0.0
C999 C 0.87234 0.49173 0.77885 0.0
C1000 C 0.90463 0.51954 0.77622 0.0
C1001 C 0.93187 0.51477 0.76982 0.0
H1002 H 0.48225 0.37658 0.74241 0.0
H1003 H 0.44094 0.4356 0.79292 0.0
H1004 H 0.49639 0.48432 0.79572 0.0
H1005 H 0.55883 0.41467 0.79899 0.0
H1006 H 0.58362 0.41597 0.75223 0.0
H1007 H 0.54075 0.38416 0.75549 0.0
H1008 H 0.52889 0.40132 0.67862 0.0
H1009 H 0.572 0.43211 0.67443 0.0
H1010 H 0.54089 0.444 0.6689 0.0
H1011 H 0.55527 0.52443 0.80139 0.0
H1012 H 0.61333 0.56171 0.78127 0.0
H1013 H 0.61693 0.48042 0.71634 0.0
C1014 C 0.48483 0.39987 0.75336 0.0
C1015 C 0.45751 0.40191 0.76965 0.0
C1016 C 0.46171 0.43308 0.78217 0.0
C1017 C 0.49313 0.4609 0.78417 0.0
C1018 C 0.51984 0.45747 0.77146 0.0
C1019 C 0.51601 0.42845 0.75383 0.0
C1020 C 0.54875 0.43309 0.73732 0.0
C1021 C 0.55855 0.41063 0.76253 0.0
C1022 C 0.54756 0.42731 0.68682 0.0
C1023 C 0.57141 0.46917 0.74906 0.0
C1024 C 0.55415 0.48217 0.77021 0.0
C1025 C 0.5691 0.51483 0.78424 0.0
C1026 C 0.60211 0.53569 0.77302 0.0
C1027 C 0.61929 0.52391 0.74683 0.0
C1028 C 0.60442 0.48989 0.73681 0.0
H1029 H 0.62996 0.16358 0.78842 0.0
H1030 H 0.60593 0.06298 0.75687 0.0
H1031 H 0.55057 0.04992 0.73344 0.0
H1032 H 0.55367 0.14551 0.83148 0.0
H1033 H 0.55169 0.17962 0.8066 0.0
H1034 H 0.59123 0.18323 0.81807 0.0
H1035 H 0.60855 0.19745 0.73561 0.0
H1036 H 0.56942 0.19482 0.7241 0.0
H1037 H 0.58211 0.17021 0.69255 0.0
H1038 H 0.49639 0.04428 0.72658 0.0
H1039 H 0.44762 0.04981 0.71491 0.0
H1040 H 0.50608 0.15549 0.74108 0.0
C1041 C 0.61334 0.13913 0.77541 0.0
C1042 C 0.62206 0.11416 0.77526 0.0
C1043 C 0.59968 0.08243 0.75795 0.0
C1044 C 0.56808 0.07464 0.74466 0.0
C1045 C 0.55955 0.09909 0.74772 0.0
C1046 C 0.58165 0.13101 0.76095 0.0
C1047 C 0.56553 0.15234 0.76035 0.0
C1048 C 0.56554 0.16597 0.80691 0.0
C1049 C 0.5824 0.18036 0.7261 0.0
C1050 C 0.5308 0.12697 0.74595 0.0
C1051 C 0.52807 0.09638 0.73978 0.0
C1052 C 0.4983 0.06828 0.72974 0.0
C1053 C 0.4707 0.07176 0.72338 0.0
C1054 C 0.47326 0.10332 0.72565 0.0
C1055 C 0.50353 0.13118 0.73838 0.0
H1056 H 0.28056 0.4039 0.29748 0.0
H1057 H 0.21663 0.3018 0.3368 0.0
H1058 H 0.17377 0.29753 0.2845 0.0
H1059 H 0.21414 0.4239 0.2883 0.0
H1060 H 0.23342 0.45134 0.24187 0.0
H1061 H 0.25853 0.44582 0.28254 0.0
H1062 H 0.2854 0.42936 0.21947 0.0
H1063 H 0.25963 0.43388 0.17875 0.0
H1064 H 0.25948 0.39529 0.18337 0.0
H1065 H 0.14028 0.30305 0.223 0.0
H1066 H 0.11208 0.32146 0.17052 0.0
H1067 H 0.19545 0.42147 0.17637 0.0
C1068 C 0.25718 0.38093 0.29577 0.0
C1069 C 0.25164 0.35324 0.32134 0.0
C1070 C 0.221 0.32345 0.31806 0.0
C1071 C 0.19677 0.32066 0.28797 0.0
C1072 C 0.20343 0.3481 0.26211 0.0
C1073 C 0.2324 0.37799 0.26679 0.0
C1074 C 0.23271 0.40415 0.23662 0.0
C1075 C 0.23481 0.433 0.26397 0.0
C1076 C 0.26099 0.41639 0.20254 0.0
C1077 C 0.19933 0.38431 0.2143 0.0
C1078 C 0.18329 0.35179 0.22853 0.0
C1079 C 0.15245 0.3285 0.2119 0.0
C1080 C 0.13683 0.3391 0.18164 0.0
C1081 C 0.15171 0.37282 0.16924 0.0
C1082 C 0.18369 0.3955 0.18503 0.0
H1083 H 0.57222 0.81848 0.33699 0.0
H1084 H 0.673 0.9006 0.34063 0.0
H1085 H 0.68898 0.87283 0.28376 0.0
H1086 H 0.59248 0.75233 0.31689 0.0
H1087 H 0.55706 0.73036 0.28113 0.0
H1088 H 0.55579 0.75514 0.32615 0.0
H1089 H 0.54004 0.7869 0.26969 0.0
H1090 H 0.54286 0.76345 0.22411 0.0
H1091 H 0.56725 0.80797 0.22365 0.0
H1092 H 0.69197 0.83809 0.21955 0.0
H1093 H 0.68393 0.79471 0.16512 0.0
H1094 H 0.58072 0.73758 0.20319 0.0
C1095 C 0.59795 0.83013 0.32707 0.0
C1096 C 0.62138 0.86163 0.34348 0.0
C1097 C 0.6547 0.87621 0.32914 0.0
C1098 C 0.66389 0.86085 0.29629 0.0
C1099 C 0.63951 0.83087 0.27851 0.0
C1100 C 0.60741 0.81531 0.29435 0.0
C1101 C 0.58544 0.78382 0.2691 0.0
C1102 C 0.57191 0.75363 0.30016 0.0
C1103 C 0.55725 0.78568 0.24524 0.0
C1104 C 0.61005 0.7841 0.23623 0.0
C1105 C 0.6411 0.81145 0.24177 0.0
C1106 C 0.66776 0.81653 0.21511 0.0
C1107 C 0.66288 0.79207 0.18375 0.0
C1108 C 0.63165 0.76299 0.17971 0.0
C1109 C 0.6048 0.75973 0.20525 0.0
H1110 H 0.22658 0.81564 0.15215 0.0
H1111 H 0.21112 0.89986 0.15358 0.0
H1112 H 0.16699 0.87175 0.20985 0.0
H1113 H 0.13911 0.75047 0.17202 0.0
H1114 H 0.1521 0.72734 0.20623 0.0
H1115 H 0.17796 0.75222 0.16118 0.0
H1116 H 0.22633 0.78229 0.21707 0.0
H1117 H 0.20017 0.7585 0.2625 0.0
H1118 H 0.22127 0.80305 0.26442 0.0
H1119 H 0.12923 0.83659 0.27379 0.0
H1120 H 0.09445 0.79329 0.32862 0.0
H1121 H 0.13787 0.73457 0.28595 0.0
C1122 C 0.21302 0.82765 0.16293 0.0
C1123 C 0.22214 0.85983 0.14826 0.0
C1124 C 0.20416 0.87495 0.16373 0.0
C1125 C 0.17939 0.85936 0.19622 0.0
C1126 C 0.17281 0.82864 0.21244 0.0
C1127 C 0.18856 0.81262 0.19534 0.0
C1128 C 0.1785 0.7806 0.21953 0.0
C1129 C 0.16086 0.75091 0.18784 0.0
C1130 C 0.20835 0.78118 0.24221 0.0
C1131 C 0.15492 0.78119 0.25338 0.0
C1132 C 0.1519 0.80904 0.24911 0.0
C1133 C 0.13129 0.81459 0.27715 0.0
C1134 C 0.11202 0.79016 0.30869 0.0
C1135 C 0.11359 0.76068 0.31165 0.0
C1136 C 0.13621 0.7569 0.2846 0.0
H1137 H 0.85305 0.59872 0.80454 0.0
H1138 H 0.9135 0.70403 0.82905 0.0
H1139 H 0.87933 0.71467 0.77588 0.0
H1140 H 0.84282 0.60302 0.69045 0.0
H1141 H 0.80042 0.56996 0.68874 0.0
H1142 H 0.8278 0.57032 0.73115 0.0
H1143 H 0.78787 0.56785 0.79294 0.0
H1144 H 0.75979 0.56621 0.75069 0.0
H1145 H 0.77416 0.59777 0.79296 0.0
H1146 H 0.84113 0.71353 0.71409 0.0
H1147 H 0.79512 0.70008 0.66174 0.0
H1148 H 0.76017 0.59555 0.67955 0.0
C1149 C 0.85855 0.62397 0.79964 0.0
C1150 C 0.88576 0.65055 0.82103 0.0
C1151 C 0.89239 0.68327 0.81354 0.0
C1152 C 0.87343 0.68956 0.7829 0.0
C1153 C 0.84781 0.66282 0.76057 0.0
C1154 C 0.83981 0.63061 0.76962 0.0
C1155 C 0.81101 0.60611 0.74171 0.0
C1156 C 0.82114 0.58619 0.71122 0.0
C1157 C 0.78146 0.58314 0.77134 0.0
C1158 C 0.8041 0.62949 0.71518 0.0
C1159 C 0.82581 0.66214 0.72594 0.0
C1160 C 0.82392 0.68804 0.70561 0.0
C1161 C 0.79803 0.68021 0.67539 0.0
C1162 C 0.77431 0.64681 0.6664 0.0
C1163 C 0.77817 0.62131 0.68549 0.0
H1164 H 0.40001 0.17644 0.68058 0.0
H1165 H 0.29527 0.11039 0.65769 0.0
H1166 H 0.2821 0.14131 0.71287 0.0
H1167 H 0.39665 0.18474 0.79435 0.0
H1168 H 0.42696 0.22815 0.7972 0.0
H1169 H 0.42872 0.20316 0.75285 0.0
H1170 H 0.42626 0.24241 0.69395 0.0
H1171 H 0.42572 0.2682 0.73811 0.0
H1172 H 0.39354 0.25225 0.69667 0.0
H1173 H 0.28051 0.17479 0.77804 0.0
H1174 H 0.29046 0.21689 0.83523 0.0
H1175 H 0.39606 0.26286 0.81237 0.0
C1176 C 0.37433 0.16918 0.68608 0.0
C1177 C 0.34867 0.1411 0.66469 0.0
C1178 C 0.31535 0.13213 0.67313 0.0
C1179 C 0.30761 0.14926 0.70491 0.0
C1180 C 0.33349 0.17567 0.72725 0.0
C1181 C 0.36619 0.18635 0.71708 0.0
C1182 C 0.38938 0.21554 0.74567 0.0
C1183 C 0.41174 0.20738 0.77419 0.0
C1184 C 0.40993 0.24643 0.71689 0.0
C1185 C 0.36464 0.21919 0.77415 0.0
C1186 C 0.33254 0.19564 0.76353 0.0
C1187 C 0.30553 0.19357 0.78629 0.0
C1188 C 0.31143 0.21723 0.81923 0.0
C1189 C 0.34402 0.24286 0.82846 0.0
C1190 C 0.37092 0.24331 0.80626 0.0
H1191 H 0.91761 0.25314 0.74857 0.0
H1192 H 0.86791 0.22239 0.62128 0.0
H1193 H 0.81896 0.17668 0.65879 0.0
H1194 H 0.88106 0.16822 0.7991 0.0
H1195 H 0.87879 0.18381 0.85303 0.0
H1196 H 0.91139 0.20978 0.81498 0.0
H1197 H 0.89417 0.25442 0.82177 0.0
H1198 H 0.86109 0.22848 0.85894 0.0
H1199 H 0.85229 0.24378 0.80879 0.0
H1200 H 0.77291 0.14228 0.71145 0.0
H1201 H 0.73436 0.1168 0.77411 0.0
H1202 H 0.81479 0.16809 0.86772 0.0
C1203 C 0.89677 0.2361 0.7284 0.0
C1204 C 0.8963 0.24104 0.6821 0.0
C1205 C 0.86873 0.21862 0.65667 0.0
C1206 C 0.84089 0.19279 0.67778 0.0
C1207 C 0.8416 0.18962 0.72395 0.0
C1208 C 0.86915 0.21024 0.74882 0.0
C1209 C 0.86291 0.20346 0.79821 0.0
C1210 C 0.88484 0.19054 0.81746 0.0
C1211 C 0.8679 0.23437 0.82337 0.0
C1212 C 0.82692 0.17671 0.79764 0.0
C1213 C 0.81521 0.16905 0.75439 0.0
C1214 C 0.78202 0.14749 0.74525 0.0
C1215 C 0.76033 0.13333 0.78105 0.0
C1216 C 0.77182 0.1404 0.82551 0.0
C1217 C 0.8056 0.16206 0.834 0.0
loop_
_geom_bond_atom_site_label_1
_geom_bond_atom_site_label_2
_geom_bond_distance
_geom_bond_site_symmetry_2
_ccdc_geom_bond_type
Co0 O3 1.970 . S
Co0 N17 1.989 . S
Co0 O25 1.967 . S
Co0 O32 1.920 . S
Co1 O4 1.966 . S
Co1 N10 2.022 . S
Co1 N18 1.993 . S
Co1 O26 1.941 . S
C2 O3 1.258 . S
C2 O4 1.263 . S
O3 Co0 1.970 . S
O3 C2 1.258 . S
O4 Co1 1.966 . S
O4 C2 1.263 . S
C5 O6 1.235 . S
C5 O32 1.289 . S
O6 C5 1.235 . S
C7 C9 1.400 1_554 S
C7 N10 1.351 . S
C7 C12 1.501 . S
C8 C9 1.387 . S
C8 N11 1.341 1_556 S
C9 C7 1.400 1_556 S
C9 C8 1.387 . S
N10 Co1 2.022 . S
N10 C7 1.351 . S
N10 N11 1.365 . S
N11 C8 1.341 1_554 S
N11 N10 1.365 . S
N11 H31 0.862 1_455 S
C12 C7 1.501 . S
C12 H13 0.961 . S
C12 H14 0.961 1_554 S
C12 H15 0.960 . S
H13 C12 0.961 . S
H14 C12 0.961 1_556 S
H15 C12 0.960 . S
C16 N17 1.342 . S
C16 C20 1.401 . S
C16 C21 1.499 . S
N17 Co0 1.989 . S
N17 C16 1.342 . S
N17 N18 1.388 . S
N18 Co1 1.993 . S
N18 N17 1.388 . S
N18 C19 1.346 . S
C19 N18 1.346 . S
C19 C20 1.396 . S
C19 C29 1.510 1_554 S
C20 C16 1.401 . S
C20 C19 1.396 . S
C21 C16 1.499 . S
C21 H22 0.959 . S
C21 H23 0.960 . S
C21 H24 0.961 . S
H22 C21 0.959 . S
H23 C21 0.960 . S
H24 C21 0.961 . S
O25 Co0 1.967 . S
O25 C33 1.258 . S
O26 Co1 1.941 . S
O26 C33 1.266 . S
H27 C29 0.959 . S
H28 C29 0.961 . S
C29 C19 1.510 1_556 S
C29 H27 0.959 . S
C29 H28 0.961 . S
C29 H30 0.961 . S
H30 C29 0.961 . S
H31 N11 0.862 1_655 S
O32 Co0 1.920 . S
O32 C5 1.289 . S
C33 O25 1.258 . S
C33 O26 1.266 . S
Co34 O37 1.970 . S
Co34 N51 1.989 . S
Co34 O59 1.967 . S
Co34 O66 1.920 . S
Co35 O38 1.966 . S
Co35 N44 2.022 . S
Co35 N52 1.993 . S
Co35 O60 1.941 . S
C36 O37 1.258 . S
C36 O38 1.263 . S
O37 Co34 1.970 . S
O37 C36 1.258 . S
O38 Co35 1.966 . S
O38 C36 1.263 . S
C39 O40 1.235 . S
C39 O66 1.289 . S
O40 C39 1.235 . S
C41 C43 1.400 1_554 S
C41 N44 1.351 . S
C41 C46 1.501 . S
C42 C43 1.387 . S
C42 N45 1.341 1_556 S
C43 C41 1.400 1_556 S
C43 C42 1.387 . S
N44 Co35 2.022 . S
N44 C41 1.351 . S
N44 N45 1.365 . S
N45 C42 1.341 1_554 S
N45 N44 1.365 . S
N45 H65 0.862 . S
C46 C41 1.501 . S
C46 H47 0.961 . S
C46 H48 0.961 1_554 S
C46 H49 0.960 . S
H47 C46 0.961 . S
H48 C46 0.961 1_556 S
H49 C46 0.960 . S
C50 N51 1.342 . S
C50 C54 1.401 . S
C50 C55 1.499 . S
N51 Co34 1.989 . S
N51 C50 1.342 . S
N51 N52 1.388 . S
N52 Co35 1.993 . S
N52 N51 1.388 . S
N52 C53 1.346 . S
C53 N52 1.346 . S
C53 C54 1.396 . S
C53 C63 1.510 1_554 S
C54 C50 1.401 . S
C54 C53 1.396 . S
C55 C50 1.499 . S
C55 H56 0.959 . S
C55 H57 0.960 . S
C55 H58 0.961 . S
H56 C55 0.959 . S
H57 C55 0.960 . S
H58 C55 0.961 . S
O59 Co34 1.967 . S
O59 C67 1.258 . S
O60 Co35 1.941 . S
O60 C67 1.266 . S
H61 C63 0.959 . S
H62 C63 0.961 . S
C63 C53 1.510 1_556 S
C63 H61 0.959 . S
C63 H62 0.961 . S
C63 H64 0.961 . S
H64 C63 0.961 . S
H65 N45 0.862 . S
O66 Co34 1.920 . S
O66 C39 1.289 . S
C67 O59 1.258 . S
C67 O60 1.266 . S
Co68 O71 1.970 . S
Co68 N85 1.989 . S
Co68 O93 1.967 . S
Co68 O100 1.920 . S
Co69 O72 1.966 . S
Co69 N78 2.022 . S
Co69 N86 1.993 . S
Co69 O94 1.941 . S
C70 O71 1.258 . S
C70 O72 1.263 . S
O71 Co68 1.970 . S
O71 C70 1.258 . S
O72 Co69 1.966 . S
O72 C70 1.263 . S
C73 O74 1.235 . S
C73 O100 1.289 . S
O74 C73 1.235 . S
C75 C77 1.400 1_554 S
C75 N78 1.351 . S
C75 C80 1.501 . S
C76 C77 1.387 . S
C76 N79 1.341 1_556 S
C77 C75 1.400 1_556 S
C77 C76 1.387 . S
N78 Co69 2.022 . S
N78 C75 1.351 . S
N78 N79 1.365 . S
N79 C76 1.341 1_554 S
N79 N78 1.365 . S
N79 H99 0.862 1_565 S
C80 C75 1.501 . S
C80 H81 0.961 . S
C80 H82 0.961 1_554 S
C80 H83 0.960 . S
H81 C80 0.961 . S
H82 C80 0.961 1_556 S
H83 C80 0.960 . S
C84 N85 1.342 . S
C84 C88 1.401 . S
C84 C89 1.499 . S
N85 Co68 1.989 . S
N85 C84 1.342 . S
N85 N86 1.388 . S
N86 Co69 1.993 . S
N86 N85 1.388 . S
N86 C87 1.346 . S
C87 N86 1.346 . S
C87 C88 1.396 . S
C87 C97 1.510 1_554 S
C88 C84 1.401 . S
C88 C87 1.396 . S
C89 C84 1.499 . S
C89 H90 0.959 . S
C89 H91 0.960 . S
C89 H92 0.961 . S
H90 C89 0.959 . S
H91 C89 0.960 . S
H92 C89 0.961 . S
O93 Co68 1.967 . S
O93 C101 1.258 . S
O94 Co69 1.941 . S
O94 C101 1.266 . S
H95 C97 0.959 . S
H96 C97 0.961 . S
C97 C87 1.510 1_556 S
C97 H95 0.959 . S
C97 H96 0.961 . S
C97 H98 0.961 . S
H98 C97 0.961 . S
H99 N79 0.862 1_545 S
O100 Co68 1.920 . S
O100 C73 1.289 . S
C101 O93 1.258 . S
C101 O94 1.266 . S
Co102 O105 1.970 . S
Co102 N119 1.989 . S
Co102 O127 1.967 . S
Co102 O134 1.920 . S
Co103 O106 1.966 . S
Co103 N112 2.022 . S
Co103 N120 1.993 . S
Co103 O128 1.941 . S
C104 O105 1.258 . S
C104 O106 1.263 . S
O105 Co102 1.970 . S
O105 C104 1.258 . S
O106 Co103 1.966 . S
O106 C104 1.263 . S
C107 O108 1.235 . S
C107 O134 1.289 . S
O108 C107 1.235 . S
C109 C111 1.400 . S
C109 N112 1.351 . S
C109 C114 1.501 . S
C110 C111 1.387 . S
C110 N113 1.341 . S
C111 C109 1.400 . S
C111 C110 1.387 . S
N112 Co103 2.022 . S
N112 C109 1.351 . S
N112 N113 1.365 . S
N113 C110 1.341 . S
N113 N112 1.365 . S
N113 H133 0.862 1_565 S
C114 C109 1.501 . S
C114 H115 0.961 . S
C114 H116 0.961 . S
C114 H117 0.960 . S
H115 C114 0.961 . S
H116 C114 0.961 . S
H117 C114 0.960 . S
C118 N119 1.342 . S
C118 C122 1.401 . S
C118 C123 1.499 . S
N119 Co102 1.989 . S
N119 C118 1.342 . S
N119 N120 1.388 . S
N120 Co103 1.993 . S
N120 N119 1.388 . S
N120 C121 1.346 . S
C121 N120 1.346 . S
C121 C122 1.396 . S
C121 C131 1.510 . S
C122 C118 1.401 . S
C122 C121 1.396 . S
C123 C118 1.499 . S
C123 H124 0.959 . S
C123 H125 0.960 . S
C123 H126 0.961 . S
H124 C123 0.959 . S
H125 C123 0.960 . S
H126 C123 0.961 . S
O127 Co102 1.967 . S
O127 C135 1.258 . S
O128 Co103 1.941 . S
O128 C135 1.266 . S
H129 C131 0.959 . S
H130 C131 0.961 . S
C131 C121 1.510 . S
C131 H129 0.959 . S
C131 H130 0.961 . S
C131 H132 0.960 . S
H132 C131 0.960 . S
H133 N113 0.862 1_545 S
O134 Co102 1.920 . S
O134 C107 1.289 . S
C135 O127 1.258 . S
C135 O128 1.266 . S
Co136 O139 1.970 . S
Co136 N153 1.989 . S
Co136 O161 1.967 . S
Co136 O168 1.920 . S
Co137 O140 1.966 . S
Co137 N146 2.022 . S
Co137 N154 1.993 . S
Co137 O162 1.941 . S
C138 O139 1.258 . S
C138 O140 1.263 . S
O139 Co136 1.970 . S
O139 C138 1.258 . S
O140 Co137 1.966 . S
O140 C138 1.263 . S
C141 O142 1.235 . S
C141 O168 1.289 . S
O142 C141 1.235 . S
C143 C145 1.400 . S
C143 N146 1.351 . S
C143 C148 1.501 . S
C144 C145 1.387 . S
C144 N147 1.341 . S
C145 C143 1.400 . S
C145 C144 1.387 . S
N146 Co137 2.022 . S
N146 C143 1.351 . S
N146 N147 1.365 . S
N147 C144 1.341 . S
N147 N146 1.365 . S
N147 H167 0.862 1_455 S
C148 C143 1.501 . S
C148 H149 0.961 . S
C148 H150 0.961 . S
C148 H151 0.960 . S
H149 C148 0.961 . S
H150 C148 0.961 . S
H151 C148 0.960 . S
C152 N153 1.342 . S
C152 C156 1.401 . S
C152 C157 1.499 . S
N153 Co136 1.989 . S
N153 C152 1.342 . S
N153 N154 1.388 . S
N154 Co137 1.993 . S
N154 N153 1.388 . S
N154 C155 1.346 . S
C155 N154 1.346 . S
C155 C156 1.396 . S
C155 C165 1.510 . S
C156 C152 1.401 . S
C156 C155 1.396 . S
C157 C152 1.499 . S
C157 H158 0.959 . S
C157 H159 0.960 . S
C157 H160 0.961 . S
H158 C157 0.959 . S
H159 C157 0.960 . S
H160 C157 0.961 . S
O161 Co136 1.967 . S
O161 C169 1.258 . S
O162 Co137 1.941 . S
O162 C169 1.266 . S
H163 C165 0.959 . S
H164 C165 0.961 . S
C165 C155 1.510 . S
C165 H163 0.959 . S
C165 H164 0.961 . S
C165 H166 0.960 . S
H166 C165 0.960 . S
H167 N147 0.862 1_655 S
O168 Co136 1.920 . S
O168 C141 1.289 . S
C169 O161 1.258 . S
C169 O162 1.266 . S
Co170 O173 1.970 . S
Co170 N187 1.989 . S
Co170 O195 1.967 . S
Co170 O202 1.920 . S
Co171 O174 1.966 . S
Co171 N180 2.022 . S
Co171 N188 1.993 . S
Co171 O196 1.941 . S
C172 O173 1.258 . S
C172 O174 1.263 . S
O173 Co170 1.970 . S
O173 C172 1.258 . S
O174 Co171 1.966 . S
O174 C172 1.263 . S
C175 O176 1.235 . S
C175 O202 1.289 . S
O176 C175 1.235 . S
C177 C179 1.400 . S
C177 N180 1.351 . S
C177 C182 1.501 . S
C178 C179 1.387 . S
C178 N181 1.341 . S
C179 C177 1.400 . S
C179 C178 1.387 . S
N180 Co171 2.022 . S
N180 C177 1.351 . S
N180 N181 1.365 . S
N181 C178 1.341 . S
N181 N180 1.365 . S
N181 H201 0.862 . S
C182 C177 1.501 . S
C182 H183 0.961 . S
C182 H184 0.961 . S
C182 H185 0.960 . S
H183 C182 0.961 . S
H184 C182 0.961 . S
H185 C182 0.960 . S
C186 N187 1.342 . S
C186 C190 1.401 . S
C186 C191 1.499 . S
N187 Co170 1.989 . S
N187 C186 1.342 . S
N187 N188 1.388 . S
N188 Co171 1.993 . S
N188 N187 1.388 . S
N188 C189 1.346 . S
C189 N188 1.346 . S
C189 C190 1.396 . S
C189 C199 1.510 . S
C190 C186 1.401 . S
C190 C189 1.396 . S
C191 C186 1.499 . S
C191 H192 0.959 . S
C191 H193 0.960 . S
C191 H194 0.961 . S
H192 C191 0.959 . S
H193 C191 0.960 . S
H194 C191 0.961 . S
O195 Co170 1.967 . S
O195 C203 1.258 . S
O196 Co171 1.941 . S
O196 C203 1.266 . S
H197 C199 0.959 . S
H198 C199 0.961 . S
C199 C189 1.510 . S
C199 H197 0.959 . S
C199 H198 0.961 . S
C199 H200 0.960 . S
H200 C199 0.960 . S
H201 N181 0.862 . S
O202 Co170 1.920 . S
O202 C175 1.289 . S
C203 O195 1.258 . S
C203 O196 1.266 . S
Co204 O207 1.970 . S
Co204 N221 1.989 . S
Co204 O229 1.967 . S
Co204 O236 1.920 . S
Co205 O208 1.966 . S
Co205 N214 2.022 . S
Co205 N222 1.993 . S
Co205 O230 1.941 . S
C206 O207 1.258 . S
C206 O208 1.263 . S
O207 Co204 1.970 . S
O207 C206 1.258 . S
O208 Co205 1.966 . S
O208 C206 1.263 . S
C209 O210 1.235 . S
C209 O236 1.289 . S
O210 C209 1.235 . S
C211 C213 1.400 1_556 S
C211 N214 1.351 . S
C211 C216 1.501 . S
C212 C213 1.387 . S
C212 N215 1.341 1_554 S
C213 C211 1.400 1_554 S
C213 C212 1.387 . S
N214 Co205 2.022 . S
N214 C211 1.351 . S
N214 N215 1.365 . S
N215 C212 1.341 1_556 S
N215 N214 1.365 . S
N215 H235 0.862 1_655 S
C216 C211 1.501 . S
C216 H217 0.961 . S
C216 H218 0.961 1_556 S
C216 H219 0.960 . S
H217 C216 0.961 . S
H218 C216 0.961 1_554 S
H219 C216 0.960 . S
C220 N221 1.342 . S
C220 C224 1.401 . S
C220 C225 1.499 . S
N221 Co204 1.989 . S
N221 C220 1.342 . S
N221 N222 1.388 . S
N222 Co205 1.993 . S
N222 N221 1.388 . S
N222 C223 1.346 . S
C223 N222 1.346 . S
C223 C224 1.396 . S
C223 C233 1.510 1_556 S
C224 C220 1.401 . S
C224 C223 1.396 . S
C225 C220 1.499 . S
C225 H226 0.959 . S
C225 H227 0.960 . S
C225 H228 0.961 . S
H226 C225 0.959 . S
H227 C225 0.960 . S
H228 C225 0.961 . S
O229 Co204 1.967 . S
O229 C237 1.258 . S
O230 Co205 1.941 . S
O230 C237 1.266 . S
H231 C233 0.959 . S
H232 C233 0.961 . S
C233 C223 1.510 1_554 S
C233 H231 0.959 . S
C233 H232 0.961 . S
C233 H234 0.961 . S
H234 C233 0.961 . S
H235 N215 0.862 1_455 S
O236 Co204 1.920 . S
O236 C209 1.289 . S
C237 O229 1.258 . S
C237 O230 1.266 . S
Co238 O241 1.970 . S
Co238 N255 1.989 . S
Co238 O263 1.967 . S
Co238 O270 1.920 . S
Co239 O242 1.966 . S
Co239 N248 2.022 . S
Co239 N256 1.993 . S
Co239 O264 1.941 . S
C240 O241 1.258 . S
C240 O242 1.263 . S
O241 Co238 1.970 . S
O241 C240 1.258 . S
O242 Co239 1.966 . S
O242 C240 1.263 . S
C243 O244 1.235 . S
C243 O270 1.289 . S
O244 C243 1.235 . S
C245 C247 1.400 1_556 S
C245 N248 1.351 . S
C245 C250 1.501 . S
C246 C247 1.387 . S
C246 N249 1.341 1_554 S
C247 C245 1.400 1_554 S
C247 C246 1.387 . S
N248 Co239 2.022 . S
N248 C245 1.351 . S
N248 N249 1.365 . S
N249 C246 1.341 1_556 S
N249 N248 1.365 . S
N249 H269 0.862 . S
C250 C245 1.501 . S
C250 H251 0.961 . S
C250 H252 0.961 1_556 S
C250 H253 0.960 . S
H251 C250 0.961 . S
H252 C250 0.961 1_554 S
H253 C250 0.960 . S
C254 N255 1.342 . S
C254 C258 1.401 . S
C254 C259 1.499 . S
N255 Co238 1.989 . S
N255 C254 1.342 . S
N255 N256 1.388 . S
N256 Co239 1.993 . S
N256 N255 1.388 . S
N256 C257 1.346 . S
C257 N256 1.346 . S
C257 C258 1.396 . S
C257 C267 1.510 1_556 S
C258 C254 1.401 . S
C258 C257 1.396 . S
C259 C254 1.499 . S
C259 H260 0.959 . S
C259 H261 0.960 . S
C259 H262 0.961 . S
H260 C259 0.959 . S
H261 C259 0.960 . S
H262 C259 0.961 . S
O263 Co238 1.967 . S
O263 C271 1.258 . S
O264 Co239 1.941 . S
O264 C271 1.266 . S
H265 C267 0.959 . S
H266 C267 0.961 . S
C267 C257 1.510 1_554 S
C267 H265 0.959 . S
C267 H266 0.961 . S
C267 H268 0.961 . S
H268 C267 0.961 . S
H269 N249 0.862 . S
O270 Co238 1.920 . S
O270 C243 1.289 . S
C271 O263 1.258 . S
C271 O264 1.266 . S
Co272 O275 1.970 . S
Co272 N289 1.989 . S
Co272 O297 1.967 . S
Co272 O304 1.920 . S
Co273 O276 1.966 . S
Co273 N282 2.022 . S
Co273 N290 1.993 . S
Co273 O298 1.941 . S
C274 O275 1.258 . S
C274 O276 1.263 . S
O275 Co272 1.970 . S
O275 C274 1.258 . S
O276 Co273 1.966 . S
O276 C274 1.263 . S
C277 O278 1.235 . S
C277 O304 1.289 . S
O278 C277 1.235 . S
C279 C281 1.400 1_556 S
C279 N282 1.351 . S
C279 C284 1.501 . S
C280 C281 1.387 . S
C280 N283 1.341 1_554 S
C281 C279 1.400 1_554 S
C281 C280 1.387 . S
N282 Co273 2.022 . S
N282 C279 1.351 . S
N282 N283 1.365 . S
N283 C280 1.341 1_556 S
N283 N282 1.365 . S
N283 H303 0.862 1_545 S
C284 C279 1.501 . S
C284 H285 0.961 . S
C284 H286 0.961 1_556 S
C284 H287 0.960 . S
H285 C284 0.961 . S
H286 C284 0.961 1_554 S
H287 C284 0.960 . S
C288 N289 1.342 . S
C288 C292 1.401 . S
C288 C293 1.499 . S
N289 Co272 1.989 . S
N289 C288 1.342 . S
N289 N290 1.388 . S
N290 Co273 1.993 . S
N290 N289 1.388 . S
N290 C291 1.346 . S
C291 N290 1.346 . S
C291 C292 1.396 . S
C291 C301 1.510 1_556 S
C292 C288 1.401 . S
C292 C291 1.396 . S
C293 C288 1.499 . S
C293 H294 0.959 . S
C293 H295 0.960 . S
C293 H296 0.961 . S
H294 C293 0.959 . S
H295 C293 0.960 . S
H296 C293 0.961 . S
O297 Co272 1.967 . S
O297 C305 1.258 . S
O298 Co273 1.941 . S
O298 C305 1.266 . S
H299 C301 0.959 . S
H300 C301 0.961 . S
C301 C291 1.510 1_554 S
C301 H299 0.959 . S
C301 H300 0.961 . S
C301 H302 0.961 . S
H302 C301 0.961 . S
H303 N283 0.862 1_565 S
O304 Co272 1.920 . S
O304 C277 1.289 . S
C305 O297 1.258 . S
C305 O298 1.266 . S
Co306 O309 1.970 . S
Co306 N323 1.989 . S
Co306 O331 1.967 . S
Co306 O338 1.920 . S
Co307 O310 1.966 . S
Co307 N316 2.022 . S
Co307 N324 1.993 . S
Co307 O332 1.941 . S
C308 O309 1.258 . S
C308 O310 1.263 . S
O309 Co306 1.970 . S
O309 C308 1.258 . S
O310 Co307 1.966 . S
O310 C308 1.263 . S
C311 O312 1.235 . S
C311 O338 1.289 . S
O312 C311 1.235 . S
C313 C315 1.400 . S
C313 N316 1.351 . S
C313 C318 1.501 . S
C314 C315 1.387 . S
C314 N317 1.341 . S
C315 C313 1.400 . S
C315 C314 1.387 . S
N316 Co307 2.022 . S
N316 C313 1.351 . S
N316 N317 1.365 . S
N317 C314 1.341 . S
N317 N316 1.365 . S
N317 H337 0.862 1_545 S
C318 C313 1.501 . S
C318 H319 0.961 . S
C318 H320 0.961 . S
C318 H321 0.960 . S
H319 C318 0.961 . S
H320 C318 0.961 . S
H321 C318 0.960 . S
C322 N323 1.342 . S
C322 C326 1.401 . S
C322 C327 1.499 . S
N323 Co306 1.989 . S
N323 C322 1.342 . S
N323 N324 1.388 . S
N324 Co307 1.993 . S
N324 N323 1.388 . S
N324 C325 1.346 . S
C325 N324 1.346 . S
C325 C326 1.396 . S
C325 C335 1.510 . S
C326 C322 1.401 . S
C326 C325 1.396 . S
C327 C322 1.499 . S
C327 H328 0.959 . S
C327 H329 0.960 . S
C327 H330 0.961 . S
H328 C327 0.959 . S
H329 C327 0.960 . S
H330 C327 0.961 . S
O331 Co306 1.967 . S
O331 C339 1.258 . S
O332 Co307 1.941 . S
O332 C339 1.266 . S
H333 C335 0.959 . S
H334 C335 0.961 . S
C335 C325 1.510 . S
C335 H333 0.959 . S
C335 H334 0.961 . S
C335 H336 0.960 . S
H336 C335 0.960 . S
H337 N317 0.862 1_565 S
O338 Co306 1.920 . S
O338 C311 1.289 . S
C339 O331 1.258 . S
C339 O332 1.266 . S
Co340 O343 1.970 . S
Co340 N357 1.989 . S
Co340 O365 1.967 . S
Co340 O372 1.920 . S
Co341 O344 1.966 . S
Co341 N350 2.022 . S
Co341 N358 1.993 . S
Co341 O366 1.941 . S
C342 O343 1.258 . S
C342 O344 1.263 . S
O343 Co340 1.970 . S
O343 C342 1.258 . S
O344 Co341 1.966 . S
O344 C342 1.263 . S
C345 O346 1.235 . S
C345 O372 1.289 . S
O346 C345 1.235 . S
C347 C349 1.400 . S
C347 N350 1.351 . S
C347 C352 1.501 . S
C348 C349 1.387 . S
C348 N351 1.341 . S
C349 C347 1.400 . S
C349 C348 1.387 . S
N350 Co341 2.022 . S
N350 C347 1.351 . S
N350 N351 1.365 . S
N351 C348 1.341 . S
N351 N350 1.365 . S
N351 H371 0.862 1_655 S
C352 C347 1.501 . S
C352 H353 0.961 . S
C352 H354 0.961 . S
C352 H355 0.960 . S
H353 C352 0.961 . S
H354 C352 0.961 . S
H355 C352 0.960 . S
C356 N357 1.342 . S
C356 C360 1.401 . S
C356 C361 1.499 . S
N357 Co340 1.989 . S
N357 C356 1.342 . S
N357 N358 1.388 . S
N358 Co341 1.993 . S
N358 N357 1.388 . S
N358 C359 1.346 . S
C359 N358 1.346 . S
C359 C360 1.396 . S
C359 C369 1.510 . S
C360 C356 1.401 . S
C360 C359 1.396 . S
C361 C356 1.499 . S
C361 H362 0.959 . S
C361 H363 0.960 . S
C361 H364 0.961 . S
H362 C361 0.959 . S
H363 C361 0.960 . S
H364 C361 0.961 . S
O365 Co340 1.967 . S
O365 C373 1.258 . S
O366 Co341 1.941 . S
O366 C373 1.266 . S
H367 C369 0.959 . S
H368 C369 0.961 . S
C369 C359 1.510 . S
C369 H367 0.959 . S
C369 H368 0.961 . S
C369 H370 0.960 . S
H370 C369 0.960 . S
H371 N351 0.862 1_455 S
O372 Co340 1.920 . S
O372 C345 1.289 . S
C373 O365 1.258 . S
C373 O366 1.266 . S
Co374 O377 1.970 . S
Co374 N391 1.989 . S
Co374 O399 1.967 . S
Co374 O406 1.920 . S
Co375 O378 1.966 . S
Co375 N384 2.022 . S
Co375 N392 1.993 . S
Co375 O400 1.941 . S
C376 O377 1.258 . S
C376 O378 1.263 . S
O377 Co374 1.970 . S
O377 C376 1.258 . S
O378 Co375 1.966 . S
O378 C376 1.263 . S
C379 O380 1.235 . S
C379 O406 1.289 . S
O380 C379 1.235 . S
C381 C383 1.400 . S
C381 N384 1.351 . S
C381 C386 1.501 . S
C382 C383 1.387 . S
C382 N385 1.341 . S
C383 C381 1.400 . S
C383 C382 1.387 . S
N384 Co375 2.022 . S
N384 C381 1.351 . S
N384 N385 1.365 . S
N385 C382 1.341 . S
N385 N384 1.365 . S
N385 H405 0.862 . S
C386 C381 1.501 . S
C386 H387 0.961 . S
C386 H388 0.961 . S
C386 H389 0.960 . S
H387 C386 0.961 . S
H388 C386 0.961 . S
H389 C386 0.960 . S
C390 N391 1.342 . S
C390 C394 1.401 . S
C390 C395 1.499 . S
N391 Co374 1.989 . S
N391 C390 1.342 . S
N391 N392 1.388 . S
N392 Co375 1.993 . S
N392 N391 1.388 . S
N392 C393 1.346 . S
C393 N392 1.346 . S
C393 C394 1.396 . S
C393 C403 1.510 . S
C394 C390 1.401 . S
C394 C393 1.396 . S
C395 C390 1.499 . S
C395 H396 0.959 . S
C395 H397 0.960 . S
C395 H398 0.961 . S
H396 C395 0.959 . S
H397 C395 0.960 . S
H398 C395 0.961 . S
O399 Co374 1.967 . S
O399 C407 1.258 . S
O400 Co375 1.941 . S
O400 C407 1.266 . S
H401 C403 0.959 . S
H402 C403 0.961 . S
C403 C393 1.510 . S
C403 H401 0.959 . S
C403 H402 0.961 . S
C403 H404 0.960 . S
H404 C403 0.960 . S
H405 N385 0.862 . S
O406 Co374 1.920 . S
O406 C379 1.289 . S
C407 O399 1.258 . S
C407 O400 1.266 . S
H408 C420 0.930 . S
H409 C422 0.930 . S
H410 C423 0.930 . S
H411 C427 0.959 . S
H412 C427 0.959 . S
H413 C427 0.961 . S
H414 C428 0.960 . S
H415 C428 0.961 . S
H416 C428 0.959 1_455 S
H417 C431 0.929 . S
H418 C432 0.931 . S
H419 C434 0.930 . S
C420 H408 0.930 . S
C420 C421 1.399 . S
C420 C425 1.399 . S
C421 C420 1.399 . S
C421 C422 1.376 1_655 S
C422 H409 0.930 . S
C422 C421 1.376 1_455 S
C422 C423 1.388 . S
C423 H410 0.930 . S
C423 C422 1.388 . S
C423 C424 1.390 . S
C424 C423 1.390 . S
C424 C425 1.394 1_455 S
C424 C430 1.465 . S
C425 C420 1.399 . S
C425 C424 1.394 1_655 S
C425 C426 1.516 . S
C426 C425 1.516 . S
C426 C427 1.502 . S
C426 C428 1.561 . S
C426 C429 1.526 1_655 S
C427 H411 0.959 . S
C427 H412 0.959 . S
C427 H413 0.961 . S
C427 C426 1.502 . S
C428 H414 0.960 . S
C428 H415 0.961 . S
C428 H416 0.959 1_655 S
C428 C426 1.561 . S
C429 C426 1.526 1_455 S
C429 C430 1.396 . S
C429 C434 1.390 . S
C430 C424 1.465 . S
C430 C429 1.396 . S
C430 C431 1.399 . S
C431 H417 0.929 . S
C431 C430 1.399 . S
C431 C432 1.385 . S
C432 H418 0.931 . S
C432 C431 1.385 . S
C432 C433 1.389 . S
C433 C432 1.389 . S
C433 C434 1.387 . S
C434 H419 0.930 . S
C434 C429 1.390 . S
C434 C433 1.387 . S
H435 C447 0.930 . S
H436 C449 0.930 . S
H437 C450 0.930 . S
H438 C454 0.959 . S
H439 C454 0.959 . S
H440 C454 0.961 . S
H441 C455 0.960 . S
H442 C455 0.961 . S
H443 C455 0.959 . S
H444 C458 0.929 . S
H445 C459 0.931 . S
H446 C461 0.930 . S
C447 H435 0.930 . S
C447 C448 1.399 . S
C447 C452 1.399 . S
C448 C447 1.399 . S
C448 C449 1.376 . S
C449 H436 0.930 . S
C449 C448 1.376 . S
C449 C450 1.388 . S
C450 H437 0.930 . S
C450 C449 1.388 . S
C450 C451 1.390 . S
C451 C450 1.390 . S
C451 C452 1.394 . S
C451 C457 1.465 . S
C452 C447 1.399 . S
C452 C451 1.394 . S
C452 C453 1.516 . S
C453 C452 1.516 . S
C453 C454 1.502 . S
C453 C455 1.561 . S
C453 C456 1.526 . S
C454 H438 0.959 . S
C454 H439 0.959 . S
C454 H440 0.961 . S
C454 C453 1.502 . S
C455 H441 0.960 . S
C455 H442 0.961 . S
C455 H443 0.959 . S
C455 C453 1.561 . S
C456 C453 1.526 . S
C456 C457 1.396 . S
C456 C461 1.390 . S
C457 C451 1.465 . S
C457 C456 1.396 . S
C457 C458 1.399 . S
C458 H444 0.929 . S
C458 C457 1.399 . S
C458 C459 1.385 . S
C459 H445 0.931 . S
C459 C458 1.385 . S
C459 C460 1.389 . S
C460 C459 1.389 . S
C460 C461 1.387 . S
C461 H446 0.930 . S
C461 C456 1.390 . S
C461 C460 1.387 . S
H462 C474 0.930 . S
H463 C476 0.930 . S
H464 C477 0.930 . S
H465 C481 0.959 . S
H466 C481 0.959 . S
H467 C481 0.961 . S
H468 C482 0.960 . S
H469 C482 0.961 . S
H470 C482 0.959 . S
H471 C485 0.929 . S
H472 C486 0.931 1_545 S
H473 C488 0.930 . S
C474 H462 0.930 . S
C474 C475 1.399 1_565 S
C474 C479 1.399 . S
C475 C474 1.399 1_545 S
C475 C476 1.376 . S
C476 H463 0.930 . S
C476 C475 1.376 . S
C476 C477 1.388 . S
C477 H464 0.930 . S
C477 C476 1.388 . S
C477 C478 1.390 . S
C478 C477 1.390 . S
C478 C479 1.394 1_545 S
C478 C484 1.465 1_545 S
C479 C474 1.399 . S
C479 C478 1.394 1_565 S
C479 C480 1.516 . S
C480 C479 1.516 . S
C480 C481 1.502 . S
C480 C482 1.561 . S
C480 C483 1.526 . S
C481 H465 0.959 . S
C481 H466 0.959 . S
C481 H467 0.961 . S
C481 C480 1.502 . S
C482 H468 0.960 . S
C482 H469 0.961 . S
C482 H470 0.959 . S
C482 C480 1.561 . S
C483 C480 1.526 . S
C483 C484 1.396 . S
C483 C488 1.390 . S
C484 C478 1.465 1_565 S
C484 C483 1.396 . S
C484 C485 1.399 1_565 S
C485 H471 0.929 . S
C485 C484 1.399 1_545 S
C485 C486 1.385 1_545 S
C486 H472 0.931 1_565 S
C486 C485 1.385 1_565 S
C486 C487 1.389 . S
C487 C486 1.389 . S
C487 C488 1.387 . S
C488 H473 0.930 . S
C488 C483 1.390 . S
C488 C487 1.387 . S
H489 C501 0.930 1_545 S
H490 C503 0.930 . S
H491 C504 0.930 . S
H492 C508 0.959 . S
H493 C508 0.959 . S
H494 C508 0.961 . S
H495 C509 0.960 . S
H496 C509 0.961 . S
H497 C509 0.959 . S
H498 C512 0.929 . S
H499 C513 0.931 . S
H500 C515 0.930 . S
C501 H489 0.930 1_565 S
C501 C502 1.399 . S
C501 C506 1.399 . S
C502 C501 1.399 . S
C502 C503 1.376 . S
C503 H490 0.930 . S
C503 C502 1.376 . S
C503 C504 1.388 . S
C504 H491 0.930 . S
C504 C503 1.388 . S
C504 C505 1.390 . S
C505 C504 1.390 . S
C505 C506 1.394 . S
C505 C511 1.465 . S
C506 C501 1.399 . S
C506 C505 1.394 . S
C506 C507 1.516 1_565 S
C507 C506 1.516 1_545 S
C507 C508 1.502 . S
C507 C509 1.561 . S
C507 C510 1.526 . S
C508 H492 0.959 . S
C508 H493 0.959 . S
C508 H494 0.961 . S
C508 C507 1.502 . S
C509 H495 0.960 . S
C509 H496 0.961 . S
C509 H497 0.959 . S
C509 C507 1.561 . S
C510 C507 1.526 . S
C510 C511 1.396 1_545 S
C510 C515 1.390 . S
C511 C505 1.465 . S
C511 C510 1.396 1_565 S
C511 C512 1.399 . S
C512 H498 0.929 . S
C512 C511 1.399 . S
C512 C513 1.385 . S
C513 H499 0.931 . S
C513 C512 1.385 . S
C513 C514 1.389 1_565 S
C514 C513 1.389 1_545 S
C514 C515 1.387 . S
C515 H500 0.930 . S
C515 C510 1.390 . S
C515 C514 1.387 . S
H516 C528 0.930 . S
H517 C530 0.930 1_655 S
H518 C531 0.930 . S
H519 C535 0.959 . S
H520 C535 0.959 . S
H521 C535 0.961 . S
H522 C536 0.960 . S
H523 C536 0.961 . S
H524 C536 0.959 . S
H525 C539 0.929 . S
H526 C540 0.931 . S
H527 C542 0.930 . S
C528 H516 0.930 . S
C528 C529 1.399 . S
C528 C533 1.399 . S
C529 C528 1.399 . S
C529 C530 1.376 . S
C530 H517 0.930 1_455 S
C530 C529 1.376 . S
C530 C531 1.388 1_455 S
C531 H518 0.930 . S
C531 C530 1.388 1_655 S
C531 C532 1.390 1_655 S
C532 C531 1.390 1_455 S
C532 C533 1.394 . S
C532 C538 1.465 1_455 S
C533 C528 1.399 . S
C533 C532 1.394 . S
C533 C534 1.516 . S
C534 C533 1.516 . S
C534 C535 1.502 . S
C534 C536 1.561 . S
C534 C537 1.526 . S
C535 H519 0.959 . S
C535 H520 0.959 . S
C535 H521 0.961 . S
C535 C534 1.502 . S
C536 H522 0.960 . S
C536 H523 0.961 . S
C536 H524 0.959 . S
C536 C534 1.561 . S
C537 C534 1.526 . S
C537 C538 1.396 1_455 S
C537 C542 1.390 . S
C538 C532 1.465 1_655 S
C538 C537 1.396 1_655 S
C538 C539 1.399 . S
C539 H525 0.929 . S
C539 C538 1.399 . S
C539 C540 1.385 . S
C540 H526 0.931 . S
C540 C539 1.385 . S
C540 C541 1.389 . S
C541 C540 1.389 . S
C541 C542 1.387 1_655 S
C542 H527 0.930 . S
C542 C537 1.390 . S
C542 C541 1.387 1_455 S
H543 C555 0.930 . S
H544 C557 0.930 . S
H545 C558 0.930 . S
H546 C562 0.959 . S
H547 C562 0.959 . S
H548 C562 0.961 . S
H549 C563 0.960 . S
H550 C563 0.961 . S
H551 C563 0.959 . S
H552 C566 0.929 . S
H553 C567 0.931 . S
H554 C569 0.930 . S
C555 H543 0.930 . S
C555 C556 1.399 . S
C555 C560 1.399 . S
C556 C555 1.399 . S
C556 C557 1.376 . S
C557 H544 0.930 . S
C557 C556 1.376 . S
C557 C558 1.388 . S
C558 H545 0.930 . S
C558 C557 1.388 . S
C558 C559 1.390 . S
C559 C558 1.390 . S
C559 C560 1.394 . S
C559 C565 1.465 . S
C560 C555 1.399 . S
C560 C559 1.394 . S
C560 C561 1.516 . S
C561 C560 1.516 . S
C561 C562 1.502 . S
C561 C563 1.561 . S
C561 C564 1.526 . S
C562 H546 0.959 . S
C562 H547 0.959 . S
C562 H548 0.961 . S
C562 C561 1.502 . S
C563 H549 0.960 . S
C563 H550 0.961 . S
C563 H551 0.959 . S
C563 C561 1.561 . S
C564 C561 1.526 . S
C564 C565 1.396 . S
C564 C569 1.390 . S
C565 C559 1.465 . S
C565 C564 1.396 . S
C565 C566 1.399 . S
C566 H552 0.929 . S
C566 C565 1.399 . S
C566 C567 1.385 . S
C567 H553 0.931 . S
C567 C566 1.385 . S
C567 C568 1.389 . S
C568 C567 1.389 . S
C568 C569 1.387 . S
C569 H554 0.930 . S
C569 C564 1.390 . S
C569 C568 1.387 . S
H570 C582 0.930 . S
H571 C584 0.930 . S
H572 C585 0.930 . S
H573 C589 0.959 . S
H574 C589 0.959 1_655 S
H575 C589 0.961 . S
H576 C590 0.960 . S
H577 C590 0.961 . S
H578 C590 0.959 . S
H579 C593 0.929 . S
H580 C594 0.931 . S
H581 C596 0.930 . S
C582 H570 0.930 . S
C582 C583 1.399 . S
C582 C587 1.399 1_455 S
C583 C582 1.399 . S
C583 C584 1.376 . S
C584 H571 0.930 . S
C584 C583 1.376 . S
C584 C585 1.388 1_455 S
C585 H572 0.930 . S
C585 C584 1.388 1_655 S
C585 C586 1.390 . S
C586 C585 1.390 . S
C586 C587 1.394 . S
C586 C592 1.465 . S
C587 C582 1.399 1_655 S
C587 C586 1.394 . S
C587 C588 1.516 . S
C588 C587 1.516 . S
C588 C589 1.502 1_655 S
C588 C590 1.561 . S
C588 C591 1.526 . S
C589 H573 0.959 . S
C589 H574 0.959 1_455 S
C589 H575 0.961 . S
C589 C588 1.502 1_455 S
C590 H576 0.960 . S
C590 H577 0.961 . S
C590 H578 0.959 . S
C590 C588 1.561 . S
C591 C588 1.526 . S
C591 C592 1.396 . S
C591 C596 1.390 . S
C592 C586 1.465 . S
C592 C591 1.396 . S
C592 C593 1.399 . S
C593 H579 0.929 . S
C593 C592 1.399 . S
C593 C594 1.385 . S
C594 H580 0.931 . S
C594 C593 1.385 . S
C594 C595 1.389 . S
C595 C594 1.389 . S
C595 C596 1.387 . S
C596 H581 0.930 . S
C596 C591 1.390 . S
C596 C595 1.387 . S
H597 C609 0.930 . S
H598 C611 0.930 . S
H599 C612 0.930 . S
H600 C616 0.959 . S
H601 C616 0.959 . S
H602 C616 0.961 . S
H603 C617 0.960 . S
H604 C617 0.961 . S
H605 C617 0.959 . S
H606 C620 0.929 . S
H607 C621 0.931 . S
H608 C623 0.930 . S
C609 H597 0.930 . S
C609 C610 1.399 . S
C609 C614 1.399 . S
C610 C609 1.399 . S
C610 C611 1.376 . S
C611 H598 0.930 . S
C611 C610 1.376 . S
C611 C612 1.388 . S
C612 H599 0.930 . S
C612 C611 1.388 . S
C612 C613 1.390 . S
C613 C612 1.390 . S
C613 C614 1.394 . S
C613 C619 1.465 . S
C614 C609 1.399 . S
C614 C613 1.394 . S
C614 C615 1.516 . S
C615 C614 1.516 . S
C615 C616 1.502 . S
C615 C617 1.561 . S
C615 C618 1.526 . S
C616 H600 0.959 . S
C616 H601 0.959 . S
C616 H602 0.961 . S
C616 C615 1.502 . S
C617 H603 0.960 . S
C617 H604 0.961 . S
C617 H605 0.959 . S
C617 C615 1.561 . S
C618 C615 1.526 . S
C618 C619 1.396 . S
C618 C623 1.390 . S
C619 C613 1.465 . S
C619 C618 1.396 . S
C619 C620 1.399 . S
C620 H606 0.929 . S
C620 C619 1.399 . S
C620 C621 1.385 . S
C621 H607 0.931 . S
C621 C620 1.385 . S
C621 C622 1.389 . S
C622 C621 1.389 . S
C622 C623 1.387 . S
C623 H608 0.930 . S
C623 C618 1.390 . S
C623 C622 1.387 . S
H624 C636 0.930 . S
H625 C638 0.930 . S
H626 C639 0.930 . S
H627 C643 0.959 . S
H628 C643 0.959 . S
H629 C643 0.961 . S
H630 C644 0.960 . S
H631 C644 0.961 . S
H632 C644 0.959 1_545 S
H633 C647 0.929 . S
H634 C648 0.931 . S
H635 C650 0.930 . S
C636 H624 0.930 . S
C636 C637 1.399 . S
C636 C641 1.399 . S
C637 C636 1.399 . S
C637 C638 1.376 1_565 S
C638 H625 0.930 . S
C638 C637 1.376 1_545 S
C638 C639 1.388 . S
C639 H626 0.930 . S
C639 C638 1.388 . S
C639 C640 1.390 . S
C640 C639 1.390 . S
C640 C641 1.394 1_545 S
C640 C646 1.465 . S
C641 C636 1.399 . S
C641 C640 1.394 1_565 S
C641 C642 1.516 . S
C642 C641 1.516 . S
C642 C643 1.502 . S
C642 C644 1.561 . S
C642 C645 1.526 1_565 S
C643 H627 0.959 . S
C643 H628 0.959 . S
C643 H629 0.961 . S
C643 C642 1.502 . S
C644 H630 0.960 . S
C644 H631 0.961 . S
C644 H632 0.959 1_565 S
C644 C642 1.561 . S
C645 C642 1.526 1_545 S
C645 C646 1.396 . S
C645 C650 1.390 . S
C646 C640 1.465 . S
C646 C645 1.396 . S
C646 C647 1.399 . S
C647 H633 0.929 . S
C647 C646 1.399 . S
C647 C648 1.385 . S
C648 H634 0.931 . S
C648 C647 1.385 . S
C648 C649 1.389 . S
C649 C648 1.389 . S
C649 C650 1.387 . S
C650 H635 0.930 . S
C650 C645 1.390 . S
C650 C649 1.387 . S
H651 C663 0.930 . S
H652 C665 0.930 . S
H653 C666 0.930 . S
H654 C670 0.959 . S
H655 C670 0.959 . S
H656 C670 0.961 . S
H657 C671 0.960 . S
H658 C671 0.961 . S
H659 C671 0.959 . S
H660 C674 0.929 . S
H661 C675 0.931 . S
H662 C677 0.930 1_565 S
C663 H651 0.930 . S
C663 C664 1.399 . S
C663 C668 1.399 . S
C664 C663 1.399 . S
C664 C665 1.376 1_565 S
C665 H652 0.930 . S
C665 C664 1.376 1_545 S
C665 C666 1.388 . S
C666 H653 0.930 . S
C666 C665 1.388 . S
C666 C667 1.390 . S
C667 C666 1.390 . S
C667 C668 1.394 1_545 S
C667 C673 1.465 . S
C668 C663 1.399 . S
C668 C667 1.394 1_565 S
C668 C669 1.516 . S
C669 C668 1.516 . S
C669 C670 1.502 . S
C669 C671 1.561 . S
C669 C672 1.526 1_565 S
C670 H654 0.959 . S
C670 H655 0.959 . S
C670 H656 0.961 . S
C670 C669 1.502 . S
C671 H657 0.960 . S
C671 H658 0.961 . S
C671 H659 0.959 . S
C671 C669 1.561 . S
C672 C669 1.526 1_545 S
C672 C673 1.396 . S
C672 C677 1.390 . S
C673 C667 1.465 . S
C673 C672 1.396 . S
C673 C674 1.399 . S
C674 H660 0.929 . S
C674 C673 1.399 . S
C674 C675 1.385 . S
C675 H661 0.931 . S
C675 C674 1.385 . S
C675 C676 1.389 . S
C676 C675 1.389 . S
C676 C677 1.387 . S
C677 H662 0.930 1_545 S
C677 C672 1.390 . S
C677 C676 1.387 . S
H678 C690 0.930 . S
H679 C692 0.930 . S
H680 C693 0.930 . S
H681 C697 0.959 1_655 S
H682 C697 0.959 . S
H683 C697 0.961 . S
H684 C698 0.960 . S
H685 C698 0.961 . S
H686 C698 0.959 . S
H687 C701 0.929 . S
H688 C702 0.931 . S
H689 C704 0.930 . S
C690 H678 0.930 . S
C690 C691 1.399 . S
C690 C695 1.399 . S
C691 C690 1.399 . S
C691 C692 1.376 . S
C692 H679 0.930 . S
C692 C691 1.376 . S
C692 C693 1.388 . S
C693 H680 0.930 . S
C693 C692 1.388 . S
C693 C694 1.390 . S
C694 C693 1.390 . S
C694 C695 1.394 . S
C694 C700 1.465 . S
C695 C690 1.399 . S
C695 C694 1.394 . S
C695 C696 1.516 1_655 S
C696 C695 1.516 1_455 S
C696 C697 1.502 . S
C696 C698 1.561 . S
C696 C699 1.526 . S
C697 H681 0.959 1_455 S
C697 H682 0.959 . S
C697 H683 0.961 . S
C697 C696 1.502 . S
C698 H684 0.960 . S
C698 H685 0.961 . S
C698 H686 0.959 . S
C698 C696 1.561 . S
C699 C696 1.526 . S
C699 C700 1.396 1_455 S
C699 C704 1.390 . S
C700 C694 1.465 . S
C700 C699 1.396 1_655 S
C700 C701 1.399 . S
C701 H687 0.929 . S
C701 C700 1.399 . S
C701 C702 1.385 . S
C702 H688 0.931 . S
C702 C701 1.385 . S
C702 C703 1.389 1_655 S
C703 C702 1.389 1_455 S
C703 C704 1.387 . S
C704 H689 0.930 . S
C704 C699 1.390 . S
C704 C703 1.387 . S
H705 C717 0.930 . S
H706 C719 0.930 . S
H707 C720 0.930 . S
H708 C724 0.959 . S
H709 C724 0.959 . S
H710 C724 0.961 . S
H711 C725 0.960 . S
H712 C725 0.961 . S
H713 C725 0.959 . S
H714 C728 0.929 . S
H715 C729 0.931 . S
H716 C731 0.930 . S
C717 H705 0.930 . S
C717 C718 1.399 . S
C717 C722 1.399 . S
C718 C717 1.399 . S
C718 C719 1.376 . S
C719 H706 0.930 . S
C719 C718 1.376 . S
C719 C720 1.388 . S
C720 H707 0.930 . S
C720 C719 1.388 . S
C720 C721 1.390 . S
C721 C720 1.390 . S
C721 C722 1.394 . S
C721 C727 1.465 . S
C722 C717 1.399 . S
C722 C721 1.394 . S
C722 C723 1.516 . S
C723 C722 1.516 . S
C723 C724 1.502 . S
C723 C725 1.561 . S
C723 C726 1.526 . S
C724 H708 0.959 . S
C724 H709 0.959 . S
C724 H710 0.961 . S
C724 C723 1.502 . S
C725 H711 0.960 . S
C725 H712 0.961 . S
C725 H713 0.959 . S
C725 C723 1.561 . S
C726 C723 1.526 . S
C726 C727 1.396 . S
C726 C731 1.390 . S
C727 C721 1.465 . S
C727 C726 1.396 . S
C727 C728 1.399 . S
C728 H714 0.929 . S
C728 C727 1.399 . S
C728 C729 1.385 . S
C729 H715 0.931 . S
C729 C728 1.385 . S
C729 C730 1.389 . S
C730 C729 1.389 . S
C730 C731 1.387 . S
C731 H716 0.930 . S
C731 C726 1.390 . S
C731 C730 1.387 . S
H732 C744 0.930 . S
H733 C746 0.930 . S
H734 C747 0.930 . S
H735 C751 0.959 . S
H736 C751 0.959 . S
H737 C751 0.961 . S
H738 C752 0.960 . S
H739 C752 0.961 1_455 S
H740 C752 0.959 . S
H741 C755 0.929 . S
H742 C756 0.931 . S
H743 C758 0.930 . S
C744 H732 0.930 . S
C744 C745 1.399 1_554 S
C744 C749 1.399 . S
C745 C744 1.399 1_556 S
C745 C746 1.376 . S
C746 H733 0.930 . S
C746 C745 1.376 . S
C746 C747 1.388 . S
C747 H734 0.930 . S
C747 C746 1.388 . S
C747 C748 1.390 . S
C748 C747 1.390 . S
C748 C749 1.394 1_556 S
C748 C754 1.465 . S
C749 C744 1.399 . S
C749 C748 1.394 1_554 S
C749 C750 1.516 1_655 S
C750 C749 1.516 1_455 S
C750 C751 1.502 . S
C750 C752 1.561 1_455 S
C750 C753 1.526 . S
C751 H735 0.959 . S
C751 H736 0.959 . S
C751 H737 0.961 . S
C751 C750 1.502 . S
C752 H738 0.960 . S
C752 H739 0.961 1_655 S
C752 H740 0.959 . S
C752 C750 1.561 1_655 S
C753 C750 1.526 . S
C753 C754 1.396 1_454 S
C753 C758 1.390 . S
C754 C748 1.465 . S
C754 C753 1.396 1_656 S
C754 C755 1.399 . S
C755 H741 0.929 . S
C755 C754 1.399 . S
C755 C756 1.385 1_655 S
C756 H742 0.931 . S
C756 C755 1.385 1_455 S
C756 C757 1.389 1_556 S
C757 C756 1.389 1_554 S
C757 C758 1.387 . S
C758 H743 0.930 . S
C758 C753 1.390 . S
C758 C757 1.387 . S
H759 C771 0.930 . S
H760 C773 0.930 . S
H761 C774 0.930 . S
H762 C778 0.959 . S
H763 C778 0.959 . S
H764 C778 0.961 . S
H765 C779 0.960 . S
H766 C779 0.961 . S
H767 C779 0.959 . S
H768 C782 0.929 . S
H769 C783 0.931 . S
H770 C785 0.930 . S
C771 H759 0.930 . S
C771 C772 1.399 1_556 S
C771 C776 1.399 . S
C772 C771 1.399 1_554 S
C772 C773 1.376 . S
C773 H760 0.930 . S
C773 C772 1.376 . S
C773 C774 1.388 . S
C774 H761 0.930 . S
C774 C773 1.388 . S
C774 C775 1.390 . S
C775 C774 1.390 . S
C775 C776 1.394 1_554 S
C775 C781 1.465 . S
C776 C771 1.399 . S
C776 C775 1.394 1_556 S
C776 C777 1.516 . S
C777 C776 1.516 . S
C777 C778 1.502 . S
C777 C779 1.561 . S
C777 C780 1.526 . S
C778 H762 0.959 . S
C778 H763 0.959 . S
C778 H764 0.961 . S
C778 C777 1.502 . S
C779 H765 0.960 . S
C779 H766 0.961 . S
C779 H767 0.959 . S
C779 C777 1.561 . S
C780 C777 1.526 . S
C780 C781 1.396 1_556 S
C780 C785 1.390 . S
C781 C775 1.465 . S
C781 C780 1.396 1_554 S
C781 C782 1.399 . S
C782 H768 0.929 . S
C782 C781 1.399 . S
C782 C783 1.385 . S
C783 H769 0.931 . S
C783 C782 1.385 . S
C783 C784 1.389 1_554 S
C784 C783 1.389 1_556 S
C784 C785 1.387 . S
C785 H770 0.930 . S
C785 C780 1.390 . S
C785 C784 1.387 . S
H786 C798 0.930 . S
H787 C800 0.930 . S
H788 C801 0.930 1_565 S
H789 C805 0.959 . S
H790 C805 0.959 . S
H791 C805 0.961 1_545 S
H792 C806 0.960 . S
H793 C806 0.961 . S
H794 C806 0.959 . S
H795 C809 0.929 . S
H796 C810 0.931 . S
H797 C812 0.930 . S
C798 H786 0.930 . S
C798 C799 1.399 1_554 S
C798 C803 1.399 . S
C799 C798 1.399 1_556 S
C799 C800 1.376 . S
C800 H787 0.930 . S
C800 C799 1.376 . S
C800 C801 1.388 . S
C801 H788 0.930 1_545 S
C801 C800 1.388 . S
C801 C802 1.390 . S
C802 C801 1.390 . S
C802 C803 1.394 1_556 S
C802 C808 1.465 1_545 S
C803 C798 1.399 . S
C803 C802 1.394 1_554 S
C803 C804 1.516 . S
C804 C803 1.516 . S
C804 C805 1.502 1_545 S
C804 C806 1.561 . S
C804 C807 1.526 1_545 S
C805 H789 0.959 . S
C805 H790 0.959 . S
C805 H791 0.961 1_565 S
C805 C804 1.502 1_565 S
C806 H792 0.960 . S
C806 H793 0.961 . S
C806 H794 0.959 . S
C806 C804 1.561 . S
C807 C804 1.526 1_565 S
C807 C808 1.396 1_554 S
C807 C812 1.390 . S
C808 C802 1.465 1_565 S
C808 C807 1.396 1_556 S
C808 C809 1.399 . S
C809 H795 0.929 . S
C809 C808 1.399 . S
C809 C810 1.385 . S
C810 H796 0.931 . S
C810 C809 1.385 . S
C810 C811 1.389 1_556 S
C811 C810 1.389 1_554 S
C811 C812 1.387 . S
C812 H797 0.930 . S
C812 C807 1.390 . S
C812 C811 1.387 . S
H813 C825 0.930 1_545 S
H814 C827 0.930 . S
H815 C828 0.930 . S
H816 C832 0.959 . S
H817 C832 0.959 . S
H818 C832 0.961 . S
H819 C833 0.960 . S
H820 C833 0.961 . S
H821 C833 0.959 . S
H822 C836 0.929 . S
H823 C837 0.931 1_565 S
H824 C839 0.930 . S
C825 H813 0.930 1_565 S
C825 C826 1.399 . S
C825 C830 1.399 1_565 S
C826 C825 1.399 . S
C826 C827 1.376 . S
C827 H814 0.930 . S
C827 C826 1.376 . S
C827 C828 1.388 . S
C828 H815 0.930 . S
C828 C827 1.388 . S
C828 C829 1.390 . S
C829 C828 1.390 . S
C829 C830 1.394 1_565 S
C829 C835 1.465 . S
C830 C825 1.399 1_545 S
C830 C829 1.394 1_545 S
C830 C831 1.516 . S
C831 C830 1.516 . S
C831 C832 1.502 . S
C831 C833 1.561 . S
C831 C834 1.526 . S
C832 H816 0.959 . S
C832 H817 0.959 . S
C832 H818 0.961 . S
C832 C831 1.502 . S
C833 H819 0.960 . S
C833 H820 0.961 . S
C833 H821 0.959 . S
C833 C831 1.561 . S
C834 C831 1.526 . S
C834 C835 1.396 1_545 S
C834 C839 1.390 . S
C835 C829 1.465 . S
C835 C834 1.396 1_565 S
C835 C836 1.399 . S
C836 H822 0.929 . S
C836 C835 1.399 . S
C836 C837 1.385 1_565 S
C837 H823 0.931 1_545 S
C837 C836 1.385 1_545 S
C837 C838 1.389 . S
C838 C837 1.389 . S
C838 C839 1.387 . S
C839 H824 0.930 . S
C839 C834 1.390 . S
C839 C838 1.387 . S
H840 C852 0.930 . S
H841 C854 0.930 . S
H842 C855 0.930 . S
H843 C859 0.959 . S
H844 C859 0.959 . S
H845 C859 0.961 . S
H846 C860 0.960 . S
H847 C860 0.961 . S
H848 C860 0.959 . S
H849 C863 0.929 . S
H850 C864 0.931 . S
H851 C866 0.930 . S
C852 H840 0.930 . S
C852 C853 1.399 . S
C852 C857 1.399 . S
C853 C852 1.399 . S
C853 C854 1.376 . S
C854 H841 0.930 . S
C854 C853 1.376 . S
C854 C855 1.388 . S
C855 H842 0.930 . S
C855 C854 1.388 . S
C855 C856 1.390 . S
C856 C855 1.390 . S
C856 C857 1.394 . S
C856 C862 1.465 1_455 S
C857 C852 1.399 . S
C857 C856 1.394 . S
C857 C858 1.516 . S
C858 C857 1.516 . S
C858 C859 1.502 1_455 S
C858 C860 1.561 . S
C858 C861 1.526 1_455 S
C859 H843 0.959 . S
C859 H844 0.959 . S
C859 H845 0.961 . S
C859 C858 1.502 1_655 S
C860 H846 0.960 . S
C860 H847 0.961 . S
C860 H848 0.959 . S
C860 C858 1.561 . S
C861 C858 1.526 1_655 S
C861 C862 1.396 . S
C861 C866 1.390 . S
C862 C856 1.465 1_655 S
C862 C861 1.396 . S
C862 C863 1.399 . S
C863 H849 0.929 . S
C863 C862 1.399 . S
C863 C864 1.385 . S
C864 H850 0.931 . S
C864 C863 1.385 . S
C864 C865 1.389 . S
C865 C864 1.389 . S
C865 C866 1.387 . S
C866 H851 0.930 . S
C866 C861 1.390 . S
C866 C865 1.387 . S
H867 C879 0.930 . S
H868 C881 0.930 . S
H869 C882 0.930 . S
H870 C886 0.959 . S
H871 C886 0.959 . S
H872 C886 0.961 . S
H873 C887 0.960 . S
H874 C887 0.961 . S
H875 C887 0.959 . S
H876 C890 0.929 . S
H877 C891 0.931 . S
H878 C893 0.930 . S
C879 H867 0.930 . S
C879 C880 1.399 . S
C879 C884 1.399 . S
C880 C879 1.399 . S
C880 C881 1.376 . S
C881 H868 0.930 . S
C881 C880 1.376 . S
C881 C882 1.388 . S
C882 H869 0.930 . S
C882 C881 1.388 . S
C882 C883 1.390 . S
C883 C882 1.390 . S
C883 C884 1.394 . S
C883 C889 1.465 . S
C884 C879 1.399 . S
C884 C883 1.394 . S
C884 C885 1.516 . S
C885 C884 1.516 . S
C885 C886 1.502 . S
C885 C887 1.561 . S
C885 C888 1.526 . S
C886 H870 0.959 . S
C886 H871 0.959 . S
C886 H872 0.961 . S
C886 C885 1.502 . S
C887 H873 0.960 . S
C887 H874 0.961 . S
C887 H875 0.959 . S
C887 C885 1.561 . S
C888 C885 1.526 . S
C888 C889 1.396 . S
C888 C893 1.390 . S
C889 C883 1.465 . S
C889 C888 1.396 . S
C889 C890 1.399 . S
C890 H876 0.929 . S
C890 C889 1.399 . S
C890 C891 1.385 . S
C891 H877 0.931 . S
C891 C890 1.385 . S
C891 C892 1.389 . S
C892 C891 1.389 . S
C892 C893 1.387 . S
C893 H878 0.930 . S
C893 C888 1.390 . S
C893 C892 1.387 . S
H894 C906 0.930 . S
H895 C908 0.930 . S
H896 C909 0.930 . S
H897 C913 0.959 . S
H898 C913 0.959 . S
H899 C913 0.961 . S
H900 C914 0.960 . S
H901 C914 0.961 . S
H902 C914 0.959 . S
H903 C917 0.929 . S
H904 C918 0.931 . S
H905 C920 0.930 . S
C906 H894 0.930 . S
C906 C907 1.399 . S
C906 C911 1.399 . S
C907 C906 1.399 . S
C907 C908 1.376 . S
C908 H895 0.930 . S
C908 C907 1.376 . S
C908 C909 1.388 . S
C909 H896 0.930 . S
C909 C908 1.388 . S
C909 C910 1.390 . S
C910 C909 1.390 . S
C910 C911 1.394 . S
C910 C916 1.465 . S
C911 C906 1.399 . S
C911 C910 1.394 . S
C911 C912 1.516 . S
C912 C911 1.516 . S
C912 C913 1.502 . S
C912 C914 1.561 . S
C912 C915 1.526 . S
C913 H897 0.959 . S
C913 H898 0.959 . S
C913 H899 0.961 . S
C913 C912 1.502 . S
C914 H900 0.960 . S
C914 H901 0.961 . S
C914 H902 0.959 . S
C914 C912 1.561 . S
C915 C912 1.526 . S
C915 C916 1.396 . S
C915 C920 1.390 . S
C916 C910 1.465 . S
C916 C915 1.396 . S
C916 C917 1.399 . S
C917 H903 0.929 . S
C917 C916 1.399 . S
C917 C918 1.385 . S
C918 H904 0.931 . S
C918 C917 1.385 . S
C918 C919 1.389 . S
C919 C918 1.389 . S
C919 C920 1.387 . S
C920 H905 0.930 . S
C920 C915 1.390 . S
C920 C919 1.387 . S
H921 C933 0.930 . S
H922 C935 0.930 . S
H923 C936 0.930 . S
H924 C940 0.959 . S
H925 C940 0.959 . S
H926 C940 0.961 . S
H927 C941 0.960 . S
H928 C941 0.961 . S
H929 C941 0.959 . S
H930 C944 0.929 . S
H931 C945 0.931 . S
H932 C947 0.930 . S
C933 H921 0.930 . S
C933 C934 1.399 . S
C933 C938 1.399 . S
C934 C933 1.399 . S
C934 C935 1.376 . S
C935 H922 0.930 . S
C935 C934 1.376 . S
C935 C936 1.388 . S
C936 H923 0.930 . S
C936 C935 1.388 . S
C936 C937 1.390 . S
C937 C936 1.390 . S
C937 C938 1.394 . S
C937 C943 1.465 . S
C938 C933 1.399 . S
C938 C937 1.394 . S
C938 C939 1.516 . S
C939 C938 1.516 . S
C939 C940 1.502 . S
C939 C941 1.561 . S
C939 C942 1.526 . S
C940 H924 0.959 . S
C940 H925 0.959 . S
C940 H926 0.961 . S
C940 C939 1.502 . S
C941 H927 0.960 . S
C941 H928 0.961 . S
C941 H929 0.959 . S
C941 C939 1.561 . S
C942 C939 1.526 . S
C942 C943 1.396 . S
C942 C947 1.390 . S
C943 C937 1.465 . S
C943 C942 1.396 . S
C943 C944 1.399 . S
C944 H930 0.929 . S
C944 C943 1.399 . S
C944 C945 1.385 . S
C945 H931 0.931 . S
C945 C944 1.385 . S
C945 C946 1.389 . S
C946 C945 1.389 . S
C946 C947 1.387 . S
C947 H932 0.930 . S
C947 C942 1.390 . S
C947 C946 1.387 . S
H948 C960 0.930 . S
H949 C962 0.930 . S
H950 C963 0.930 . S
H951 C967 0.959 . S
H952 C967 0.959 . S
H953 C967 0.961 . S
H954 C968 0.960 . S
H955 C968 0.961 . S
H956 C968 0.959 . S
H957 C971 0.929 . S
H958 C972 0.931 . S
H959 C974 0.930 . S
C960 H948 0.930 . S
C960 C961 1.399 . S
C960 C965 1.399 . S
C961 C960 1.399 . S
C961 C962 1.376 . S
C962 H949 0.930 . S
C962 C961 1.376 . S
C962 C963 1.388 . S
C963 H950 0.930 . S
C963 C962 1.388 . S
C963 C964 1.390 . S
C964 C963 1.390 . S
C964 C965 1.394 . S
C964 C970 1.465 . S
C965 C960 1.399 . S
C965 C964 1.394 . S
C965 C966 1.516 . S
C966 C965 1.516 . S
C966 C967 1.502 . S
C966 C968 1.561 . S
C966 C969 1.526 . S
C967 H951 0.959 . S
C967 H952 0.959 . S
C967 H953 0.961 . S
C967 C966 1.502 . S
C968 H954 0.960 . S
C968 H955 0.961 . S
C968 H956 0.959 . S
C968 C966 1.561 . S
C969 C966 1.526 . S
C969 C970 1.396 . S
C969 C974 1.390 . S
C970 C964 1.465 . S
C970 C969 1.396 . S
C970 C971 1.399 . S
C971 H957 0.929 . S
C971 C970 1.399 . S
C971 C972 1.385 . S
C972 H958 0.931 . S
C972 C971 1.385 . S
C972 C973 1.389 . S
C973 C972 1.389 . S
C973 C974 1.387 . S
C974 H959 0.930 . S
C974 C969 1.390 . S
C974 C973 1.387 . S
H975 C987 0.930 . S
H976 C989 0.930 . S
H977 C990 0.930 . S
H978 C994 0.959 . S
H979 C994 0.959 . S
H980 C994 0.961 . S
H981 C995 0.960 . S
H982 C995 0.961 . S
H983 C995 0.959 . S
H984 C998 0.929 . S
H985 C999 0.931 . S
H986 C1001 0.930 . S
C987 H975 0.930 . S
C987 C988 1.399 . S
C987 C992 1.399 . S
C988 C987 1.399 . S
C988 C989 1.376 . S
C989 H976 0.930 . S
C989 C988 1.376 . S
C989 C990 1.388 . S
C990 H977 0.930 . S
C990 C989 1.388 . S
C990 C991 1.390 . S
C991 C990 1.390 . S
C991 C992 1.394 . S
C991 C997 1.465 . S
C992 C987 1.399 . S
C992 C991 1.394 . S
C992 C993 1.516 . S
C993 C992 1.516 . S
C993 C994 1.502 . S
C993 C995 1.561 . S
C993 C996 1.526 . S
C994 H978 0.959 . S
C994 H979 0.959 . S
C994 H980 0.961 . S
C994 C993 1.502 . S
C995 H981 0.960 . S
C995 H982 0.961 . S
C995 H983 0.959 . S
C995 C993 1.561 . S
C996 C993 1.526 . S
C996 C997 1.396 . S
C996 C1001 1.390 . S
C997 C991 1.465 . S
C997 C996 1.396 . S
C997 C998 1.399 . S
C998 H984 0.929 . S
C998 C997 1.399 . S
C998 C999 1.385 . S
C999 H985 0.931 . S
C999 C998 1.385 . S
C999 C1000 1.389 . S
C1000 C999 1.389 . S
C1000 C1001 1.387 . S
C1001 H986 0.930 . S
C1001 C996 1.390 . S
C1001 C1000 1.387 . S
H1002 C1014 0.930 . S
H1003 C1016 0.930 . S
H1004 C1017 0.930 . S
H1005 C1021 0.959 . S
H1006 C1021 0.959 . S
H1007 C1021 0.961 . S
H1008 C1022 0.960 . S
H1009 C1022 0.961 . S
H1010 C1022 0.959 . S
H1011 C1025 0.929 . S
H1012 C1026 0.931 . S
H1013 C1028 0.930 . S
C1014 H1002 0.930 . S
C1014 C1015 1.399 . S
C1014 C1019 1.399 . S
C1015 C1014 1.399 . S
C1015 C1016 1.376 . S
C1016 H1003 0.930 . S
C1016 C1015 1.376 . S
C1016 C1017 1.388 . S
C1017 H1004 0.930 . S
C1017 C1016 1.388 . S
C1017 C1018 1.390 . S
C1018 C1017 1.390 . S
C1018 C1019 1.394 . S
C1018 C1024 1.465 . S
C1019 C1014 1.399 . S
C1019 C1018 1.394 . S
C1019 C1020 1.516 . S
C1020 C1019 1.516 . S
C1020 C1021 1.502 . S
C1020 C1022 1.561 . S
C1020 C1023 1.526 . S
C1021 H1005 0.959 . S
C1021 H1006 0.959 . S
C1021 H1007 0.961 . S
C1021 C1020 1.502 . S
C1022 H1008 0.960 . S
C1022 H1009 0.961 . S
C1022 H1010 0.959 . S
C1022 C1020 1.561 . S
C1023 C1020 1.526 . S
C1023 C1024 1.396 . S
C1023 C1028 1.390 . S
C1024 C1018 1.465 . S
C1024 C1023 1.396 . S
C1024 C1025 1.399 . S
C1025 H1011 0.929 . S
C1025 C1024 1.399 . S
C1025 C1026 1.385 . S
C1026 H1012 0.931 . S
C1026 C1025 1.385 . S
C1026 C1027 1.389 . S
C1027 C1026 1.389 . S
C1027 C1028 1.387 . S
C1028 H1013 0.930 . S
C1028 C1023 1.390 . S
C1028 C1027 1.387 . S
H1029 C1041 0.930 . S
H1030 C1043 0.930 . S
H1031 C1044 0.930 . S
H1032 C1048 0.959 . S
H1033 C1048 0.959 . S
H1034 C1048 0.961 . S
H1035 C1049 0.960 . S
H1036 C1049 0.961 . S
H1037 C1049 0.959 . S
H1038 C1052 0.929 . S
H1039 C1053 0.931 . S
H1040 C1055 0.930 . S
C1041 H1029 0.930 . S
C1041 C1042 1.399 . S
C1041 C1046 1.399 . S
C1042 C1041 1.399 . S
C1042 C1043 1.376 . S
C1043 H1030 0.930 . S
C1043 C1042 1.376 . S
C1043 C1044 1.388 . S
C1044 H1031 0.930 . S
C1044 C1043 1.388 . S
C1044 C1045 1.390 . S
C1045 C1044 1.390 . S
C1045 C1046 1.394 . S
C1045 C1051 1.465 . S
C1046 C1041 1.399 . S
C1046 C1045 1.394 . S
C1046 C1047 1.516 . S
C1047 C1046 1.516 . S
C1047 C1048 1.502 . S
C1047 C1049 1.561 . S
C1047 C1050 1.526 . S
C1048 H1032 0.959 . S
C1048 H1033 0.959 . S
C1048 H1034 0.961 . S
C1048 C1047 1.502 . S
C1049 H1035 0.960 . S
C1049 H1036 0.961 . S
C1049 H1037 0.959 . S
C1049 C1047 1.561 . S
C1050 C1047 1.526 . S
C1050 C1051 1.396 . S
C1050 C1055 1.390 . S
C1051 C1045 1.465 . S
C1051 C1050 1.396 . S
C1051 C1052 1.399 . S
C1052 H1038 0.929 . S
C1052 C1051 1.399 . S
C1052 C1053 1.385 . S
C1053 H1039 0.931 . S
C1053 C1052 1.385 . S
C1053 C1054 1.389 . S
C1054 C1053 1.389 . S
C1054 C1055 1.387 . S
C1055 H1040 0.930 . S
C1055 C1050 1.390 . S
C1055 C1054 1.387 . S
H1056 C1068 0.930 . S
H1057 C1070 0.930 . S
H1058 C1071 0.930 . S
H1059 C1075 0.959 . S
H1060 C1075 0.959 . S
H1061 C1075 0.961 . S
H1062 C1076 0.960 . S
H1063 C1076 0.961 . S
H1064 C1076 0.959 . S
H1065 C1079 0.929 . S
H1066 C1080 0.931 . S
H1067 C1082 0.930 . S
C1068 H1056 0.930 . S
C1068 C1069 1.399 . S
C1068 C1073 1.399 . S
C1069 C1068 1.399 . S
C1069 C1070 1.376 . S
C1070 H1057 0.930 . S
C1070 C1069 1.376 . S
C1070 C1071 1.388 . S
C1071 H1058 0.930 . S
C1071 C1070 1.388 . S
C1071 C1072 1.390 . S
C1072 C1071 1.390 . S
C1072 C1073 1.394 . S
C1072 C1078 1.465 . S
C1073 C1068 1.399 . S
C1073 C1072 1.394 . S
C1073 C1074 1.516 . S
C1074 C1073 1.516 . S
C1074 C1075 1.502 . S
C1074 C1076 1.561 . S
C1074 C1077 1.526 . S
C1075 H1059 0.959 . S
C1075 H1060 0.959 . S
C1075 H1061 0.961 . S
C1075 C1074 1.502 . S
C1076 H1062 0.960 . S
C1076 H1063 0.961 . S
C1076 H1064 0.959 . S
C1076 C1074 1.561 . S
C1077 C1074 1.526 . S
C1077 C1078 1.396 . S
C1077 C1082 1.390 . S
C1078 C1072 1.465 . S
C1078 C1077 1.396 . S
C1078 C1079 1.399 . S
C1079 H1065 0.929 . S
C1079 C1078 1.399 . S
C1079 C1080 1.385 . S
C1080 H1066 0.931 . S
C1080 C1079 1.385 . S
C1080 C1081 1.389 . S
C1081 C1080 1.389 . S
C1081 C1082 1.387 . S
C1082 H1067 0.930 . S
C1082 C1077 1.390 . S
C1082 C1081 1.387 . S
H1083 C1095 0.930 . S
H1084 C1097 0.930 . S
H1085 C1098 0.930 . S
H1086 C1102 0.959 . S
H1087 C1102 0.959 . S
H1088 C1102 0.961 . S
H1089 C1103 0.960 . S
H1090 C1103 0.961 . S
H1091 C1103 0.959 . S
H1092 C1106 0.929 . S
H1093 C1107 0.931 . S
H1094 C1109 0.930 . S
C1095 H1083 0.930 . S
C1095 C1096 1.399 . S
C1095 C1100 1.399 . S
C1096 C1095 1.399 . S
C1096 C1097 1.376 . S
C1097 H1084 0.930 . S
C1097 C1096 1.376 . S
C1097 C1098 1.388 . S
C1098 H1085 0.930 . S
C1098 C1097 1.388 . S
C1098 C1099 1.390 . S
C1099 C1098 1.390 . S
C1099 C1100 1.394 . S
C1099 C1105 1.465 . S
C1100 C1095 1.399 . S
C1100 C1099 1.394 . S
C1100 C1101 1.516 . S
C1101 C1100 1.516 . S
C1101 C1102 1.502 . S
C1101 C1103 1.561 . S
C1101 C1104 1.526 . S
C1102 H1086 0.959 . S
C1102 H1087 0.959 . S
C1102 H1088 0.961 . S
C1102 C1101 1.502 . S
C1103 H1089 0.960 . S
C1103 H1090 0.961 . S
C1103 H1091 0.959 . S
C1103 C1101 1.561 . S
C1104 C1101 1.526 . S
C1104 C1105 1.396 . S
C1104 C1109 1.390 . S
C1105 C1099 1.465 . S
C1105 C1104 1.396 . S
C1105 C1106 1.399 . S
C1106 H1092 0.929 . S
C1106 C1105 1.399 . S
C1106 C1107 1.385 . S
C1107 H1093 0.931 . S
C1107 C1106 1.385 . S
C1107 C1108 1.389 . S
C1108 C1107 1.389 . S
C1108 C1109 1.387 . S
C1109 H1094 0.930 . S
C1109 C1104 1.390 . S
C1109 C1108 1.387 . S
H1110 C1122 0.930 . S
H1111 C1124 0.930 . S
H1112 C1125 0.930 . S
H1113 C1129 0.959 . S
H1114 C1129 0.959 . S
H1115 C1129 0.961 . S
H1116 C1130 0.960 . S
H1117 C1130 0.961 . S
H1118 C1130 0.959 . S
H1119 C1133 0.929 . S
H1120 C1134 0.931 . S
H1121 C1136 0.930 . S
C1122 H1110 0.930 . S
C1122 C1123 1.399 . S
C1122 C1127 1.399 . S
C1123 C1122 1.399 . S
C1123 C1124 1.376 . S
C1124 H1111 0.930 . S
C1124 C1123 1.376 . S
C1124 C1125 1.388 . S
C1125 H1112 0.930 . S
C1125 C1124 1.388 . S
C1125 C1126 1.390 . S
C1126 C1125 1.390 . S
C1126 C1127 1.394 . S
C1126 C1132 1.465 . S
C1127 C1122 1.399 . S
C1127 C1126 1.394 . S
C1127 C1128 1.516 . S
C1128 C1127 1.516 . S
C1128 C1129 1.502 . S
C1128 C1130 1.561 . S
C1128 C1131 1.526 . S
C1129 H1113 0.959 . S
C1129 H1114 0.959 . S
C1129 H1115 0.961 . S
C1129 C1128 1.502 . S
C1130 H1116 0.960 . S
C1130 H1117 0.961 . S
C1130 H1118 0.959 . S
C1130 C1128 1.561 . S
C1131 C1128 1.526 . S
C1131 C1132 1.396 . S
C1131 C1136 1.390 . S
C1132 C1126 1.465 . S
C1132 C1131 1.396 . S
C1132 C1133 1.399 . S
C1133 H1119 0.929 . S
C1133 C1132 1.399 . S
C1133 C1134 1.385 . S
C1134 H1120 0.931 . S
C1134 C1133 1.385 . S
C1134 C1135 1.389 . S
C1135 C1134 1.389 . S
C1135 C1136 1.387 . S
C1136 H1121 0.930 . S
C1136 C1131 1.390 . S
C1136 C1135 1.387 . S
H1137 C1149 0.930 . S
H1138 C1151 0.930 . S
H1139 C1152 0.930 . S
H1140 C1156 0.959 . S
H1141 C1156 0.959 . S
H1142 C1156 0.961 . S
H1143 C1157 0.960 . S
H1144 C1157 0.961 . S
H1145 C1157 0.959 . S
H1146 C1160 0.929 . S
H1147 C1161 0.931 . S
H1148 C1163 0.930 . S
C1149 H1137 0.930 . S
C1149 C1150 1.399 . S
C1149 C1154 1.399 . S
C1150 C1149 1.399 . S
C1150 C1151 1.376 . S
C1151 H1138 0.930 . S
C1151 C1150 1.376 . S
C1151 C1152 1.388 . S
C1152 H1139 0.930 . S
C1152 C1151 1.388 . S
C1152 C1153 1.390 . S
C1153 C1152 1.390 . S
C1153 C1154 1.394 . S
C1153 C1159 1.465 . S
C1154 C1149 1.399 . S
C1154 C1153 1.394 . S
C1154 C1155 1.516 . S
C1155 C1154 1.516 . S
C1155 C1156 1.502 . S
C1155 C1157 1.561 . S
C1155 C1158 1.526 . S
C1156 H1140 0.959 . S
C1156 H1141 0.959 . S
C1156 H1142 0.961 . S
C1156 C1155 1.502 . S
C1157 H1143 0.960 . S
C1157 H1144 0.961 . S
C1157 H1145 0.959 . S
C1157 C1155 1.561 . S
C1158 C1155 1.526 . S
C1158 C1159 1.396 . S
C1158 C1163 1.390 . S
C1159 C1153 1.465 . S
C1159 C1158 1.396 . S
C1159 C1160 1.399 . S
C1160 H1146 0.929 . S
C1160 C1159 1.399 . S
C1160 C1161 1.385 . S
C1161 H1147 0.931 . S
C1161 C1160 1.385 . S
C1161 C1162 1.389 . S
C1162 C1161 1.389 . S
C1162 C1163 1.387 . S
C1163 H1148 0.930 . S
C1163 C1158 1.390 . S
C1163 C1162 1.387 . S
H1164 C1176 0.930 . S
H1165 C1178 0.930 . S
H1166 C1179 0.930 . S
H1167 C1183 0.959 . S
H1168 C1183 0.959 . S
H1169 C1183 0.961 . S
H1170 C1184 0.960 . S
H1171 C1184 0.961 . S
H1172 C1184 0.959 . S
H1173 C1187 0.929 . S
H1174 C1188 0.931 . S
H1175 C1190 0.930 . S
C1176 H1164 0.930 . S
C1176 C1177 1.399 . S
C1176 C1181 1.399 . S
C1177 C1176 1.399 . S
C1177 C1178 1.376 . S
C1178 H1165 0.930 . S
C1178 C1177 1.376 . S
C1178 C1179 1.388 . S
C1179 H1166 0.930 . S
C1179 C1178 1.388 . S
C1179 C1180 1.390 . S
C1180 C1179 1.390 . S
C1180 C1181 1.394 . S
C1180 C1186 1.465 . S
C1181 C1176 1.399 . S
C1181 C1180 1.394 . S
C1181 C1182 1.516 . S
C1182 C1181 1.516 . S
C1182 C1183 1.502 . S
C1182 C1184 1.561 . S
C1182 C1185 1.526 . S
C1183 H1167 0.959 . S
C1183 H1168 0.959 . S
C1183 H1169 0.961 . S
C1183 C1182 1.502 . S
C1184 H1170 0.960 . S
C1184 H1171 0.961 . S
C1184 H1172 0.959 . S
C1184 C1182 1.561 . S
C1185 C1182 1.526 . S
C1185 C1186 1.396 . S
C1185 C1190 1.390 . S
C1186 C1180 1.465 . S
C1186 C1185 1.396 . S
C1186 C1187 1.399 . S
C1187 H1173 0.929 . S
C1187 C1186 1.399 . S
C1187 C1188 1.385 . S
C1188 H1174 0.931 . S
C1188 C1187 1.385 . S
C1188 C1189 1.389 . S
C1189 C1188 1.389 . S
C1189 C1190 1.387 . S
C1190 H1175 0.930 . S
C1190 C1185 1.390 . S
C1190 C1189 1.387 . S
H1191 C1203 0.930 . S
H1192 C1205 0.930 . S
H1193 C1206 0.930 . S
H1194 C1210 0.959 . S
H1195 C1210 0.959 . S
H1196 C1210 0.961 . S
H1197 C1211 0.960 . S
H1198 C1211 0.961 . S
H1199 C1211 0.959 . S
H1200 C1214 0.929 . S
H1201 C1215 0.931 . S
H1202 C1217 0.930 . S
C1203 H1191 0.930 . S
C1203 C1204 1.399 . S
C1203 C1208 1.399 . S
C1204 C1203 1.399 . S
C1204 C1205 1.376 . S
C1205 H1192 0.930 . S
C1205 C1204 1.376 . S
C1205 C1206 1.388 . S
C1206 H1193 0.930 . S
C1206 C1205 1.388 . S
C1206 C1207 1.390 . S
C1207 C1206 1.390 . S
C1207 C1208 1.394 . S
C1207 C1213 1.465 . S
C1208 C1203 1.399 . S
C1208 C1207 1.394 . S
C1208 C1209 1.516 . S
C1209 C1208 1.516 . S
C1209 C1210 1.502 . S
C1209 C1211 1.561 . S
C1209 C1212 1.526 . S
C1210 H1194 0.959 . S
C1210 H1195 0.959 . S
C1210 H1196 0.961 . S
C1210 C1209 1.502 . S
C1211 H1197 0.960 . S
C1211 H1198 0.961 . S
C1211 H1199 0.959 . S
C1211 C1209 1.561 . S
C1212 C1209 1.526 . S
C1212 C1213 1.396 . S
C1212 C1217 1.390 . S
C1213 C1207 1.465 . S
C1213 C1212 1.396 . S
C1213 C1214 1.399 . S
C1214 H1200 0.929 . S
C1214 C1213 1.399 . S
C1214 C1215 1.385 . S
C1215 H1201 0.931 . S
C1215 C1214 1.385 . S
C1215 C1216 1.389 . S
C1216 C1215 1.389 . S
C1216 C1217 1.387 . S
C1217 H1202 0.930 . S
C1217 C1212 1.390 . S
C1217 C1216 1.387 . S
C421 C373 1.487 . S
C433 C9 1.318 . S
C448 C43 1.364 . S
C460 C407 1.489 . S
C475 C339 1.443 . S
C487 C77 1.252 . S
C502 C111 1.305 . S
C514 C305 1.485 . S
C529 C145 1.306 . S
C541 C237 1.448 . S
C556 C179 1.242 . S
C568 C271 1.462 . S
C583 C169 1.481 . S
C595 C213 1.360 . S
C610 C203 1.447 . S
C622 C247 1.239 . S
C637 C135 1.490 . S
C649 C281 1.368 . S
C664 C101 1.481 . S
C676 C315 1.333 . S
C691 C349 1.363 . S
C703 C33 1.482 . S
C718 C67 1.447 . S
C730 C383 1.240 . S
C745 C224 1.221 . S
C757 C20 1.287 . S
C772 C54 1.223 . S
C784 C258 1.286 . S
C799 C292 1.217 . S
C811 C88 1.283 . S
C826 C122 1.217 . S
C838 C326 1.287 . S
C853 C156 1.279 . S
C865 C360 1.221 . S
C880 C394 1.271 . S
C892 C190 1.226 . S
C907 C5 0.720 . S
C919 C141 0.693 . S
C934 C39 0.614 . S
C946 C175 0.670 . S
C961 C73 0.648 . S
C973 C107 0.748 . S
C988 C345 0.741 . S
C1000 C209 0.611 . S
C1015 C243 0.631 . S
C1027 C379 0.707 . S
C1042 C277 0.715 . S
C1054 C311 0.623 . S
C1069 C172 1.465 . S
C1081 C2 1.383 . S
C1096 C104 1.458 . S
C1108 C36 1.388 . S
C1123 C70 1.372 . S
C1135 C138 1.472 . S
C1150 C206 1.452 . S
C1162 C376 1.424 . S
C1177 C308 1.413 . S
C1189 C240 1.460 . S
C1204 C342 1.460 . S
C1216 C274 1.372 . S
