# Generated by pormake.
# Topology ukh, (4)-cn, num edge types: 1
# Building blocks:
#     Node 0, Type 0, BuildingBlock: QUQFOY_clean_sbu_1, # of connection points: 4
#     Node 1, Type 0, BuildingBlock: QUQFOY_clean_sbu_1, # of connection points: 4
#     Node 2, Type 0, BuildingBlock: QUQFOY_clean_sbu_1, # of connection points: 4
#     Node 3, Type 0, BuildingBlock: QUQFOY_clean_sbu_1, # of connection points: 4
#     Node 4, Type 0, BuildingBlock: QUQFOY_clean_sbu_1, # of connection points: 4
#     Node 5, Type 0, BuildingBlock: QUQFOY_clean_sbu_1, # of connection points: 4
#     Node 6, Type 0, BuildingBlock: QUQFOY_clean_sbu_1, # of connection points: 4
#     Node 7, Type 0, BuildingBlock: QUQFOY_clean_sbu_1, # of connection points: 4
#     Node 8, Type 0, BuildingBlock: QUQFOY_clean_sbu_1, # of connection points: 4
#     Node 9, Type 0, BuildingBlock: QUQFOY_clean_sbu_1, # of connection points: 4
#     Node 10, Type 0, BuildingBlock: QUQFOY_clean_sbu_1, # of connection points: 4
#     Node 11, Type 0, BuildingBlock: QUQFOY_clean_sbu_1, # of connection points: 4
#     Edge 12, Type (0, 0), BuildingBlock: MIFKUJ_clean_linker_0, # of connection points: 2
#     Edge 13, Type (0, 0), BuildingBlock: MIFKUJ_clean_linker_0, # of connection points: 2
#     Edge 14, Type (0, 0), BuildingBlock: MIFKUJ_clean_linker_0, # of connection points: 2
#     Edge 15, Type (0, 0), BuildingBlock: MIFKUJ_clean_linker_0, # of connection points: 2
#     Edge 16, Type (0, 0), BuildingBlock: MIFKUJ_clean_linker_0, # of connection points: 2
#     Edge 17, Type (0, 0), BuildingBlock: MIFKUJ_clean_linker_0, # of connection points: 2
#     Edge 18, Type (0, 0), BuildingBlock: MIFKUJ_clean_linker_0, # of connection points: 2
#     Edge 19, Type (0, 0), BuildingBlock: MIFKUJ_clean_linker_0, # of connection points: 2
#     Edge 20, Type (0, 0), BuildingBlock: MIFKUJ_clean_linker_0, # of connection points: 2
#     Edge 21, Type (0, 0), BuildingBlock: MIFKUJ_clean_linker_0, # of connection points: 2
#     Edge 22, Type (0, 0), BuildingBlock: MIFKUJ_clean_linker_0, # of connection points: 2
#     Edge 23, Type (0, 0), BuildingBlock: MIFKUJ_clean_linker_0, # of connection points: 2
#     Edge 24, Type (0, 0), BuildingBlock: MIFKUJ_clean_linker_0, # of connection points: 2
#     Edge 25, Type (0, 0), BuildingBlock: MIFKUJ_clean_linker_0, # of connection points: 2
#     Edge 26, Type (0, 0), BuildingBlock: MIFKUJ_clean_linker_0, # of connection points: 2
#     Edge 27, Type (0, 0), BuildingBlock: MIFKUJ_clean_linker_0, # of connection points: 2
#     Edge 28, Type (0, 0), BuildingBlock: MIFKUJ_clean_linker_0, # of connection points: 2
#     Edge 29, Type (0, 0), BuildingBlock: MIFKUJ_clean_linker_0, # of connection points: 2
#     Edge 30, Type (0, 0), BuildingBlock: MIFKUJ_clean_linker_0, # of connection points: 2
#     Edge 31, Type (0, 0), BuildingBlock: MIFKUJ_clean_linker_0, # of connection points: 2
#     Edge 32, Type (0, 0), BuildingBlock: MIFKUJ_clean_linker_0, # of connection points: 2
#     Edge 33, Type (0, 0), BuildingBlock: MIFKUJ_clean_linker_0, # of connection points: 2
#     Edge 34, Type (0, 0), BuildingBlock: MIFKUJ_clean_linker_0, # of connection points: 2
#     Edge 35, Type (0, 0), BuildingBlock: MIFKUJ_clean_linker_0, # of connection points: 2
# Relax obj value: 0.056
# Max RMSD: 0.078
# Mean RMSD: 0.078
data_MOF--net-ukh--node1-QUQFOY_clean_sbu_1--edge1-MIFKUJ_clean_linker_0
_symmetry_space_group_name_H-M    P1
_symmetry_Int_Tables_number       1
_symmetry_cell_setting            triclinic
loop_
_symmetry_equiv_pos_as_xyz
'x, y, z'
_cell_length_a     43.003445
_cell_length_b     42.935084
_cell_length_c     85.181972
_cell_angle_alpha  89.956077
_cell_angle_beta   89.957581
_cell_angle_gamma 119.95332
loop_
_atom_site_label
_atom_site_type_symbol
_atom_site_fract_x
_atom_site_fract_y
_atom_site_fract_z
_atom_type_partial_charge
O0 O 0.32166 0.17748 0.04982 0.0
Cd1 Cd 0.31472 0.21537 0.06188 0.0
Cd2 Cd 0.35792 0.25555 0.03736 0.0
O3 O 0.36165 0.21042 0.03182 0.0
O4 O 0.28916 0.18728 0.08098 0.0
O5 O 0.34223 0.23648 0.08207 0.0
C6 C 0.31621 0.20957 0.08925 0.0
C7 C 0.40537 0.31446 0.04061 0.0
C8 C 0.34182 0.18012 0.03837 0.0
C9 C 0.2831 0.24389 0.03844 0.0
O10 O 0.31121 0.25322 0.03034 0.0
O11 O 0.28011 0.23077 0.05213 0.0
O12 O 0.39681 0.29957 0.02694 0.0
O13 O 0.3887 0.29482 0.05267 0.0
O14 O 0.14505 0.3091 0.3845 0.0
Cd15 Cd 0.10158 0.30678 0.39603 0.0
Cd16 Cd 0.10901 0.35066 0.37189 0.0
O17 O 0.15799 0.35333 0.36785 0.0
O18 O 0.1002 0.28235 0.41618 0.0
O19 O 0.11168 0.33849 0.41511 0.0
C20 C 0.1087 0.3119 0.42338 0.0
C21 C 0.09835 0.39881 0.37479 0.0
C22 C 0.1653 0.3306 0.37392 0.0
C23 C 0.04379 0.27748 0.3719 0.0
O24 O 0.06512 0.30468 0.36378 0.0
O25 O 0.05127 0.27467 0.3861 0.0
O26 O 0.10609 0.39071 0.3613 0.0
O27 O 0.09946 0.38126 0.38693 0.0
O28 O 0.84008 0.14556 0.71711 0.0
Cd29 Cd 0.80409 0.10235 0.73037 0.0
Cd30 Cd 0.75904 0.09925 0.70604 0.0
O31 O 0.80465 0.14625 0.69848 0.0
O32 O 0.83212 0.10689 0.74976 0.0
O33 O 0.7832 0.11137 0.75004 0.0
C34 C 0.80979 0.11253 0.75759 0.0
C35 C 0.70051 0.09006 0.70805 0.0
C36 C 0.83564 0.1594 0.70472 0.0
C37 C 0.77321 0.03742 0.70936 0.0
O38 O 0.75937 0.05244 0.70141 0.0
O39 O 0.79086 0.05204 0.72179 0.0
O40 O 0.71552 0.09283 0.6946 0.0
O41 O 0.71982 0.09536 0.72046 0.0
O42 O 0.70673 0.83831 0.0492 0.0
Cd43 Cd 0.70999 0.79854 0.0616 0.0
Cd44 Cd 0.66751 0.75946 0.03727 0.0
O45 O 0.66536 0.80545 0.03171 0.0
O46 O 0.73406 0.82333 0.08151 0.0
O47 O 0.67855 0.77768 0.08085 0.0
C48 C 0.70488 0.8021 0.0889 0.0
C49 C 0.61888 0.70107 0.04039 0.0
C50 C 0.68652 0.83592 0.03782 0.0
C51 C 0.74109 0.76858 0.03872 0.0
O52 O 0.7138 0.76069 0.0303 0.0
O53 O 0.74344 0.78094 0.05251 0.0
O54 O 0.62813 0.71606 0.02674 0.0
O55 O 0.63564 0.72036 0.05249 0.0
O56 O 0.87288 0.69849 0.38268 0.0
Cd57 Cd 0.91737 0.70702 0.39526 0.0
Cd58 Cd 0.91655 0.66284 0.37107 0.0
O59 O 0.86831 0.65964 0.36457 0.0
O60 O 0.91313 0.73304 0.4138 0.0
O61 O 0.91092 0.68077 0.41589 0.0
C62 C 0.90877 0.70667 0.42252 0.0
C63 C 0.92718 0.61459 0.37405 0.0
C64 C 0.85671 0.67872 0.37095 0.0
C65 C 0.97885 0.73889 0.37244 0.0
O66 O 0.96181 0.70976 0.36478 0.0
O67 O 0.96693 0.7427 0.38556 0.0
O68 O 0.92214 0.62441 0.3604 0.0
O69 O 0.92341 0.63046 0.3862 0.0
O70 O 0.17736 0.87191 0.7178 0.0
Cd71 Cd 0.21795 0.91512 0.72957 0.0
Cd72 Cd 0.25557 0.90921 0.70527 0.0
O73 O 0.20897 0.86062 0.70067 0.0
O74 O 0.19404 0.91582 0.74955 0.0
O75 O 0.23888 0.90469 0.74881 0.0
C76 C 0.21489 0.90732 0.75691 0.0
C77 C 0.314 0.91921 0.70847 0.0
C78 C 0.17887 0.85257 0.70686 0.0
C79 C 0.24793 0.97475 0.70598 0.0
O80 O 0.25485 0.95432 0.69774 0.0
O81 O 0.23599 0.96571 0.7199 0.0
O82 O 0.29864 0.91197 0.69489 0.0
O83 O 0.29497 0.91778 0.72052 0.0
O84 O 0.8398 0.6941 0.62551 0.0
Cd85 Cd 0.8058 0.70492 0.6126 0.0
Cd86 Cd 0.75994 0.66178 0.63687 0.0
O87 O 0.8044 0.65823 0.64423 0.0
O88 O 0.8372 0.72968 0.59416 0.0
O89 O 0.78541 0.67929 0.59194 0.0
C90 C 0.81433 0.70409 0.58539 0.0
C91 C 0.70101 0.61366 0.63405 0.0
C92 C 0.83517 0.67525 0.63772 0.0
C93 C 0.77617 0.7388 0.63448 0.0
O94 O 0.76176 0.70937 0.64206 0.0
O95 O 0.79386 0.74237 0.62197 0.0
O96 O 0.71547 0.6244 0.64769 0.0
O97 O 0.72102 0.62854 0.62187 0.0
O98 O 0.1498 0.83995 0.95695 0.0
Cd99 Cd 0.10628 0.80055 0.94481 0.0
Cd100 Cd 0.11041 0.76107 0.96884 0.0
O101 O 0.15905 0.80673 0.97404 0.0
O102 O 0.10673 0.82539 0.92493 0.0
O103 O 0.11608 0.77931 0.92551 0.0
C104 C 0.11431 0.80392 0.91749 0.0
C105 C 0.09966 0.70226 0.96589 0.0
C106 C 0.16819 0.8373 0.96802 0.0
C107 C 0.04618 0.7709 0.96809 0.0
O108 O 0.06582 0.76275 0.97623 0.0
O109 O 0.05572 0.78345 0.95428 0.0
O110 O 0.10614 0.71757 0.97947 0.0
O111 O 0.10219 0.72147 0.95373 0.0
O112 O 0.32625 0.15294 0.29284 0.0
Cd113 Cd 0.31509 0.10845 0.27951 0.0
Cd114 Cd 0.35704 0.10396 0.30381 0.0
O115 O 0.36158 0.15211 0.31147 0.0
O116 O 0.29081 0.11645 0.26127 0.0
O117 O 0.34088 0.1145 0.25879 0.0
C118 C 0.31639 0.11935 0.25242 0.0
C119 C 0.40451 0.09213 0.30102 0.0
C120 C 0.34506 0.16653 0.30509 0.0
C121 C 0.27994 0.04418 0.301 0.0
O122 O 0.30893 0.05885 0.30883 0.0
O123 O 0.27724 0.05859 0.28839 0.0
O124 O 0.39345 0.09551 0.31466 0.0
O125 O 0.39024 0.09803 0.28884 0.0
O126 O 0.17904 0.30919 0.62238 0.0
Cd127 Cd 0.22021 0.30802 0.61032 0.0
Cd128 Cd 0.25631 0.35057 0.63512 0.0
O129 O 0.20932 0.35151 0.63992 0.0
O130 O 0.19596 0.28312 0.59045 0.0
O131 O 0.23986 0.33954 0.59098 0.0
C132 C 0.21596 0.31264 0.58301 0.0
C133 C 0.31465 0.39941 0.63234 0.0
C134 C 0.17964 0.32918 0.63353 0.0
C135 C 0.25007 0.27806 0.63367 0.0
O136 O 0.25559 0.30454 0.64222 0.0
O137 O 0.23937 0.27599 0.61958 0.0
O138 O 0.29902 0.39036 0.64587 0.0
O139 O 0.29592 0.38254 0.62013 0.0
O140 O 0.87903 0.18007 0.95675 0.0
Cd141 Cd 0.92221 0.22094 0.94495 0.0
Cd142 Cd 0.91696 0.25772 0.96962 0.0
O143 O 0.86879 0.21124 0.97455 0.0
O144 O 0.92307 0.19724 0.92493 0.0
O145 O 0.91143 0.2418 0.92575 0.0
C146 C 0.91433 0.21799 0.91762 0.0
C147 C 0.92658 0.31591 0.96601 0.0
C148 C 0.86031 0.18135 0.96803 0.0
C149 C 0.98207 0.25001 0.9684 0.0
O150 O 0.96187 0.25667 0.97692 0.0
O151 O 0.9729 0.23876 0.95441 0.0
O152 O 0.91993 0.30111 0.97973 0.0
O153 O 0.92495 0.29647 0.95409 0.0
O154 O 0.70805 0.87148 0.28894 0.0
Cd155 Cd 0.71142 0.91454 0.27661 0.0
Cd156 Cd 0.66848 0.91101 0.30107 0.0
O157 O 0.66687 0.86298 0.30659 0.0
O158 O 0.73559 0.91372 0.25672 0.0
O159 O 0.68007 0.90382 0.25734 0.0
C160 C 0.7064 0.90554 0.24933 0.0
C161 C 0.6195 0.92048 0.29865 0.0
C162 C 0.68793 0.85363 0.30036 0.0
C163 C 0.74212 0.97586 0.29939 0.0
O164 O 0.71459 0.95659 0.30774 0.0
O165 O 0.7449 0.96549 0.28573 0.0
O166 O 0.62937 0.91467 0.31213 0.0
O167 O 0.6357 0.91798 0.28631 0.0
H168 H 0.59352 0.66045 0.06729 0.0
H169 H 0.55551 0.59502 0.06922 0.0
H170 H 0.54808 0.58773 0.01872 0.0
H171 H 0.585 0.65291 0.01674 0.0
H172 H 0.48606 0.54217 0.03057 0.0
H173 H 0.6078 0.57081 0.04071 0.0
H174 H 0.66601 0.6007 0.05446 0.0
H175 H 0.61355 0.55077 0.09777 0.0
H176 H 0.55494 0.52093 0.0843 0.0
H177 H 0.44024 0.3628 0.01706 0.0
H178 H 0.47523 0.4282 0.01898 0.0
H179 H 0.46256 0.42118 0.06929 0.0
H180 H 0.42732 0.35539 0.06748 0.0
H181 H 0.53188 0.47326 0.05973 0.0
H182 H 0.41023 0.44119 0.04853 0.0
H183 H 0.35295 0.41055 0.03409 0.0
H184 H 0.40657 0.46663 0.99193 0.0
H185 H 0.46427 0.49725 0.00608 0.0
C186 C 0.58335 0.64495 0.05661 0.0
C187 C 0.59246 0.66202 0.04185 0.0
C188 C 0.56184 0.60745 0.05772 0.0
C189 C 0.54941 0.58616 0.0441 0.0
C190 C 0.55733 0.60337 0.02942 0.0
C191 C 0.57853 0.64078 0.0283 0.0
C192 C 0.52899 0.54601 0.04498 0.0
C193 C 0.49632 0.5272 0.03685 0.0
C194 C 0.54176 0.52617 0.05345 0.0
C195 C 0.57696 0.54397 0.06154 0.0
C196 C 0.60866 0.56642 0.05319 0.0
C197 C 0.64172 0.58331 0.06092 0.0
C198 C 0.64347 0.57772 0.07699 0.0
C199 C 0.61215 0.55513 0.08533 0.0
C200 C 0.57901 0.5382 0.07766 0.0
C201 C 0.44524 0.37502 0.02858 0.0
C202 C 0.43077 0.35374 0.04212 0.0
C203 C 0.46513 0.41251 0.02964 0.0
C204 C 0.47104 0.42969 0.04425 0.0
C205 C 0.4582 0.40854 0.05788 0.0
C206 C 0.43808 0.37092 0.05683 0.0
C207 C 0.48944 0.46967 0.04511 0.0
C208 C 0.52159 0.48835 0.05357 0.0
C209 C 0.47636 0.48943 0.03686 0.0
C210 C 0.44163 0.4713 0.02834 0.0
C211 C 0.40985 0.4468 0.03616 0.0
C212 C 0.3773 0.42947 0.02803 0.0
C213 C 0.37614 0.43658 0.0121 0.0
C214 C 0.40751 0.46113 0.00427 0.0
C215 C 0.44014 0.47851 0.01234 0.0
H216 H 0.35091 0.42313 0.00582 0.0
H217 H 0.66909 0.59083 0.08296 0.0
H218 H 0.08232 0.43047 0.35076 0.0
H219 H 0.05421 0.4675 0.35229 0.0
H220 H 0.05613 0.46361 0.40288 0.0
H221 H 0.08318 0.42514 0.40139 0.0
H222 H 0.99395 0.4533 0.39418 0.0
H223 H 0.11382 0.54188 0.38075 0.0
H224 H 0.17054 0.56899 0.36581 0.0
H225 H 0.11475 0.56921 0.32407 0.0
H226 H 0.05759 0.54166 0.3387 0.0
H227 H 0.94577 0.59183 0.40082 0.0
H228 H 0.97507 0.55546 0.4025 0.0
H229 H 0.96895 0.54314 0.35217 0.0
H230 H 0.93992 0.57946 0.35039 0.0
H231 H 0.03581 0.56444 0.36272 0.0
H232 H 0.91535 0.47322 0.37661 0.0
H233 H 0.85944 0.44713 0.3921 0.0
H234 H 0.91823 0.45415 0.43394 0.0
H235 H 0.9746 0.48073 0.41872 0.0
C236 C 0.07728 0.43786 0.36224 0.0
C237 C 0.08527 0.42495 0.37596 0.0
C238 C 0.06123 0.45923 0.36311 0.0
C239 C 0.05339 0.46897 0.37771 0.0
C240 C 0.06189 0.4566 0.39146 0.0
C241 C 0.0776 0.43478 0.39059 0.0
C242 C 0.03505 0.49078 0.37851 0.0
C243 C 1.00354 0.47797 0.38752 0.0
C244 C 0.047 0.52273 0.36964 0.0
C245 C 0.08137 0.53944 0.36081 0.0
C246 C 0.1136 0.54749 0.36836 0.0
C247 C 0.14584 0.56297 0.35995 0.0
C248 C 0.14624 0.57075 0.344 0.0
C249 C 0.1144 0.56315 0.33643 0.0
C250 C 0.08208 0.54764 0.34478 0.0
C251 C 0.95011 0.58088 0.39013 0.0
C252 C 0.94044 0.58862 0.37547 0.0
C253 C 0.96691 0.56007 0.39111 0.0
C254 C 0.9743 0.54652 0.37746 0.0
C255 C 0.96372 0.55339 0.36287 0.0
C256 C 0.9469 0.57404 0.36189 0.0
C257 C 0.99453 0.52664 0.37816 0.0
C258 C 0.02643 0.5399 0.36946 0.0
C259 C 0.98311 0.49535 0.38741 0.0
C260 C 0.94924 0.47933 0.39656 0.0
C261 C 0.9164 0.46949 0.38914 0.0
C262 C 0.88462 0.45455 0.39786 0.0
C263 C 0.88529 0.44908 0.414 0.0
C264 C 0.91775 0.45845 0.42144 0.0
C265 C 0.94962 0.47343 0.41277 0.0
H266 H 0.86066 0.43751 0.42074 0.0
H267 H 0.17122 0.58272 0.33751 0.0
H268 H 0.35612 0.94179 0.73496 0.0
H269 H 0.42181 0.97178 0.73628 0.0
H270 H 0.42635 0.95762 0.6864 0.0
H271 H 0.361 0.9279 0.68495 0.0
H272 H 0.47286 0.95282 0.72833 0.0
H273 H 0.49624 0.03318 0.67106 0.0
H274 H 0.46512 0.05665 0.65473 0.0
H275 H 0.40995 0.0637 0.69542 0.0
H276 H 0.44109 0.0407 0.71202 0.0
H277 H 0.65263 0.07163 0.68392 0.0
H278 H 0.58749 0.04363 0.68554 0.0
H279 H 0.59415 0.05208 0.73603 0.0
H280 H 0.65952 0.07931 0.7345 0.0
H281 H 0.54153 0.06169 0.69539 0.0
H282 H 0.52048 0.98095 0.75259 0.0
H283 H 0.55022 0.95424 0.76779 0.0
H284 H 0.59998 0.94475 0.72574 0.0
H285 H 0.57018 0.97094 0.71027 0.0
C286 C 0.37106 0.94456 0.72431 0.0
C287 C 0.35319 0.93255 0.70983 0.0
C288 C 0.40865 0.96177 0.72508 0.0
C289 C 0.42914 0.96758 0.7114 0.0
C290 C 0.41123 0.95406 0.69708 0.0
C291 C 0.37375 0.93683 0.6963 0.0
C292 C 0.46916 0.98892 0.7119 0.0
C293 C 0.48789 0.97696 0.72132 0.0
C294 C 0.48888 0.02004 0.70252 0.0
C295 C 0.47077 0.0349 0.69275 0.0
C296 C 0.47763 0.03994 0.67653 0.0
C297 C 0.45996 0.05311 0.66723 0.0
C298 C 0.43547 0.06151 0.67403 0.0
C299 C 0.42881 0.05702 0.69016 0.0
C300 C 0.44644 0.04389 0.69952 0.0
C301 C 0.64036 0.06791 0.69539 0.0
C302 C 0.66143 0.07761 0.70909 0.0
C303 C 0.60297 0.05185 0.6963 0.0
C304 C 0.58559 0.04504 0.71091 0.0
C305 C 0.6067 0.05625 0.7246 0.0
C306 C 0.64418 0.07213 0.72371 0.0
C307 C 0.54545 0.02542 0.7117 0.0
C308 C 0.52662 0.03773 0.70251 0.0
C309 C 0.52566 0.99441 0.72117 0.0
C310 C 0.54345 0.97832 0.73033 0.0
C311 C 0.5377 0.97307 0.74659 0.0
C312 C 0.55457 0.95803 0.75525 0.0
C313 C 0.57709 0.94794 0.74774 0.0
C314 C 0.58266 0.95272 0.73155 0.0
C315 C 0.56582 0.9677 0.72284 0.0
H316 H 0.59015 0.93633 0.75447 0.0
H317 H 0.42167 0.07148 0.66678 0.0
H318 H 0.66035 0.59002 0.60717 0.0
H319 H 0.59493 0.55283 0.60524 0.0
H320 H 0.58752 0.54255 0.65567 0.0
H321 H 0.65271 0.57903 0.65766 0.0
H322 H 0.54182 0.48054 0.64279 0.0
H323 H 0.57093 0.60321 0.63564 0.0
H324 H 0.60109 0.66322 0.62332 0.0
H325 H 0.55175 0.61656 0.57916 0.0
H326 H 0.52167 0.55616 0.59119 0.0
H327 H 0.3619 0.43268 0.65636 0.0
H328 H 0.42724 0.46842 0.6549 0.0
H329 H 0.42226 0.46045 0.60442 0.0
H330 H 0.35654 0.42434 0.60577 0.0
H331 H 0.47368 0.52964 0.61544 0.0
H332 H 0.44171 0.40669 0.62369 0.0
H333 H 0.41081 0.34765 0.63686 0.0
H334 H 0.46535 0.39625 0.67991 0.0
H335 H 0.49617 0.4557 0.66705 0.0
C336 C 0.64484 0.57942 0.61784 0.0
C337 C 0.66188 0.58765 0.63257 0.0
C338 C 0.60735 0.55837 0.61673 0.0
C339 C 0.58606 0.54531 0.63033 0.0
C340 C 0.60319 0.55233 0.64499 0.0
C341 C 0.64059 0.57327 0.64611 0.0
C342 C 0.54598 0.5251 0.62944 0.0
C343 C 0.52701 0.4915 0.63691 0.0
C344 C 0.52638 0.53888 0.62153 0.0
C345 C 0.5444 0.57513 0.61427 0.0
C346 C 0.56675 0.60571 0.62327 0.0
C347 C 0.58379 0.6398 0.61635 0.0
C348 C 0.57843 0.64369 0.60046 0.0
C349 C 0.55594 0.61349 0.59147 0.0
C350 C 0.53887 0.57933 0.59833 0.0
C351 C 0.37454 0.4389 0.6449 0.0
C352 C 0.35384 0.42545 0.63117 0.0
C353 C 0.41201 0.45923 0.6441 0.0
C354 C 0.42976 0.4667 0.62957 0.0
C355 C 0.40918 0.45491 0.61577 0.0
C356 C 0.37159 0.43428 0.61657 0.0
C357 C 0.46974 0.48543 0.62893 0.0
C358 C 0.4886 0.51866 0.62119 0.0
C359 C 0.48929 0.47147 0.6367 0.0
C360 C 0.471 0.43571 0.64444 0.0
C361 C 0.4469 0.40484 0.636 0.0
C362 C 0.42943 0.37129 0.6434 0.0
C363 C 0.43605 0.36821 0.65922 0.0
C364 C 0.46022 0.39868 0.66766 0.0
C365 C 0.47772 0.4323 0.66032 0.0
H366 H 0.4225 0.34222 0.66494 0.0
H367 H 0.59163 0.6701 0.59512 0.0
H368 H 0.93567 0.36368 0.98918 0.0
H369 H 0.96361 0.4288 0.98713 0.0
H370 H 0.97486 0.42239 0.93709 0.0
H371 H 0.94751 0.35692 0.93913 0.0
H372 H 0.03552 0.47403 0.94882 0.0
H373 H 0.91324 0.44361 0.95309 0.0
H374 H 0.85197 0.41432 0.96404 0.0
H375 H 0.89297 0.46999 0.00765 0.0
H376 H 0.95457 0.49926 0.99704 0.0
H377 H 0.08584 0.66145 0.93915 0.0
H378 H 0.05617 0.59567 0.93741 0.0
H379 H 0.05136 0.58834 0.98792 0.0
H380 H 0.08122 0.65375 0.98977 0.0
H381 H 0.98532 0.544 0.97355 0.0
H382 H 0.10829 0.57167 0.96905 0.0
H383 H 0.16898 0.60113 0.95748 0.0
H384 H 0.12501 0.5509 0.91315 0.0
H385 H 0.06396 0.52151 0.92441 0.0
C386 C 0.94355 0.37596 0.97768 0.0
C387 C 0.93918 0.35493 0.96431 0.0
C388 C 0.95951 0.41334 0.97652 0.0
C389 C 0.97115 0.43071 0.96193 0.0
C390 C 0.96613 0.40972 0.94849 0.0
C391 C 0.95024 0.37222 0.94966 0.0
C392 C 0.98996 0.4708 0.96094 0.0
C393 C 0.02417 0.48927 0.95397 0.0
C394 C 0.9756 0.49094 0.96785 0.0
C395 C 0.93858 0.47341 0.9743 0.0
C396 C 0.90923 0.4494 0.96505 0.0
C397 C 0.87443 0.43284 0.97119 0.0
C398 C 0.86859 0.44023 0.98654 0.0
C399 C 0.89754 0.46427 0.99577 0.0
C400 C 0.9324 0.48089 0.98969 0.0
C401 C 0.07901 0.64586 0.94989 0.0
C402 C 0.08599 0.66296 0.9646 0.0
C403 C 0.06199 0.60825 0.94887 0.0
C404 C 0.0514 0.58704 0.96254 0.0
C405 C 0.05913 0.60411 0.97722 0.0
C406 C 0.07645 0.64161 0.97824 0.0
C407 C 0.03094 0.54703 0.96167 0.0
C408 C 0.99642 0.52866 0.96828 0.0
C409 C 0.04487 0.52705 0.95431 0.0
C410 C 0.08153 0.54475 0.94752 0.0
C411 C 0.11153 0.56719 0.95679 0.0
C412 C 0.146 0.58381 0.9503 0.0
C413 C 0.15084 0.57799 0.93458 0.0
C414 C 0.12122 0.55545 0.92532 0.0
C415 C 0.08668 0.53878 0.93175 0.0
H416 H 0.17755 0.59086 0.92958 0.0
H417 H 0.84163 0.42738 0.99127 0.0
H418 H 0.43645 0.07529 0.32467 0.0
H419 H 0.4734 0.04713 0.32256 0.0
H420 H 0.46798 0.04974 0.27205 0.0
H421 H 0.43013 0.07739 0.27409 0.0
H422 H 0.45624 0.98577 0.28135 0.0
H423 H 0.5461 0.10662 0.29235 0.0
H424 H 0.57479 0.16454 0.30639 0.0
H425 H 0.57955 0.11183 0.34843 0.0
H426 H 0.55042 0.05349 0.3347 0.0
H427 H 0.59436 0.93774 0.27225 0.0
H428 H 0.55766 0.96677 0.27117 0.0
H429 H 0.54966 0.96277 0.32167 0.0
H430 H 0.58613 0.93384 0.32286 0.0
H431 H 0.57052 0.02975 0.3104 0.0
H432 H 0.478 0.90842 0.29929 0.0
H433 H 0.44977 0.85093 0.28492 0.0
H434 H 0.45143 0.90571 0.24246 0.0
H435 H 0.48014 0.96365 0.25654 0.0
C436 C 0.44345 0.07036 0.31308 0.0
C437 C 0.43038 0.07881 0.29955 0.0
C438 C 0.46473 0.05427 0.31189 0.0
C439 C 0.4739 0.04654 0.29714 0.0
C440 C 0.46135 0.05543 0.28358 0.0
C441 C 0.4399 0.07148 0.28476 0.0
C442 C 0.49544 0.02802 0.29601 0.0
C443 C 0.48157 0.99578 0.28748 0.0
C444 C 0.52822 0.04057 0.30421 0.0
C445 C 0.5458 0.07562 0.31252 0.0
C446 C 0.55302 0.10733 0.30462 0.0
C447 C 0.5694 0.14025 0.31252 0.0
C448 C 0.57892 0.14185 0.3283 0.0
C449 C 0.57214 0.11054 0.33621 0.0
C450 C 0.55573 0.07755 0.32837 0.0
C451 C 0.58427 0.94247 0.28311 0.0
C452 C 0.59325 0.93341 0.29764 0.0
C453 C 0.56329 0.95911 0.28247 0.0
C454 C 0.55092 0.96707 0.29635 0.0
C455 C 0.559 0.95709 0.31081 0.0
C456 C 0.57973 0.94032 0.31146 0.0
C457 C 0.53105 0.9873 0.29595 0.0
C458 C 0.54531 0.01991 0.30419 0.0
C459 C 0.4988 0.9752 0.28741 0.0
C460 C 0.4816 0.94042 0.27893 0.0
C461 C 0.47266 0.90826 0.28685 0.0
C462 C 0.4565 0.87558 0.27877 0.0
C463 C 0.44891 0.87468 0.26277 0.0
C464 C 0.45738 0.90646 0.25484 0.0
C465 C 0.47357 0.93922 0.26287 0.0
H466 H 0.43639 0.84935 0.25654 0.0
H467 H 0.5916 0.16736 0.33439 0.0
H468 H 0.35152 0.1082 0.228 0.0
H469 H 0.3532 0.12568 0.20045 0.0
H470 H 0.28878 0.17382 0.21211 0.0
H471 H 0.28531 0.15456 0.23925 0.0
H472 H 0.26516 0.14193 0.18708 0.0
H473 H 0.38436 0.22358 0.20426 0.0
H474 H 0.44352 0.24223 0.216 0.0
H475 H 0.46434 0.18413 0.18044 0.0
H476 H 0.40509 0.16475 0.1686 0.0
H477 H 0.36139 0.25639 0.11165 0.0
H478 H 0.36299 0.24426 0.13973 0.0
H479 H 0.27751 0.13507 0.13288 0.0
H480 H 0.27475 0.14747 0.10521 0.0
H481 H 0.37755 0.20237 0.15589 0.0
H482 H 0.22469 0.10191 0.16387 0.0
H483 H 0.16699 0.09208 0.15341 0.0
H484 H 0.21607 0.20379 0.14112 0.0
H485 H 0.27393 0.21439 0.15168 0.0
C486 C 0.33769 0.12243 0.22461 0.0
C487 C 0.31813 0.12984 0.23575 0.0
C488 C 0.33889 0.13271 0.20889 0.0
C489 C 0.32152 0.15159 0.20412 0.0
C490 C 0.30226 0.15915 0.21535 0.0
C491 C 0.30033 0.14814 0.23091 0.0
C492 C 0.32232 0.16272 0.18744 0.0
C493 C 0.28984 0.15521 0.18032 0.0
C494 C 0.35449 0.18082 0.17858 0.0
C495 C 0.39015 0.19244 0.18564 0.0
C496 C 0.40145 0.21458 0.19901 0.0
C497 C 0.43502 0.22531 0.20567 0.0
C498 C 0.45763 0.2143 0.19899 0.0
C499 C 0.44677 0.1926 0.18561 0.0
C500 C 0.41322 0.18176 0.17891 0.0
C501 C 0.34277 0.22993 0.11621 0.0
C502 C 0.31762 0.20306 0.10625 0.0
C503 C 0.34381 0.22294 0.13223 0.0
C504 C 0.31995 0.18889 0.13854 0.0
C505 C 0.29554 0.16185 0.12847 0.0
C506 C 0.29406 0.16897 0.11258 0.0
C507 C 0.32039 0.18129 0.1556 0.0
C508 C 0.35299 0.18928 0.16273 0.0
C509 C 0.28853 0.16493 0.16471 0.0
C510 C 0.25373 0.15884 0.15844 0.0
C511 C 0.22313 0.1244 0.15899 0.0
C512 C 0.19041 0.11869 0.15303 0.0
C513 C 0.1879 0.14727 0.14656 0.0
C514 C 0.21808 0.18165 0.14608 0.0
C515 C 0.25086 0.18751 0.15203 0.0
H516 H 0.16254 0.14279 0.14195 0.0
H517 H 0.48361 0.22264 0.20416 0.0
H518 H 0.0944 0.25813 0.44416 0.0
H519 H 0.11306 0.26367 0.47154 0.0
H520 H 0.16139 0.37892 0.46856 0.0
H521 H 0.14264 0.37357 0.441 0.0
H522 H 0.20669 0.35702 0.48195 0.0
H523 H 0.08665 0.33357 0.48917 0.0
H524 H 0.02111 0.30158 0.48523 0.0
H525 H 0.01301 0.20511 0.5042 0.0
H526 H 0.07859 0.23638 0.50805 0.0
H527 H 0.24114 0.37393 0.56519 0.0
H528 H 0.22404 0.37863 0.53822 0.0
H529 H 0.15914 0.26308 0.5358 0.0
H530 H 0.17533 0.25832 0.56275 0.0
H531 H 0.12219 0.29182 0.52548 0.0
H532 H 0.24146 0.31235 0.51608 0.0
H533 H 0.30712 0.34257 0.51945 0.0
H534 H 0.31688 0.44243 0.50422 0.0
H535 H 0.25119 0.41288 0.50094 0.0
C536 C 0.10863 0.28467 0.44935 0.0
C537 C 0.11697 0.31542 0.4404 0.0
C538 C 0.11923 0.28778 0.46503 0.0
C539 C 0.13849 0.32169 0.47213 0.0
C540 C 0.14652 0.35249 0.46331 0.0
C541 C 0.13559 0.34937 0.44761 0.0
C542 C 0.15116 0.32464 0.48858 0.0
C543 C 0.18822 0.34337 0.49155 0.0
C544 C 0.1271 0.30615 0.50102 0.0
C545 C 0.0876 0.28727 0.49879 0.0
C546 C 0.07094 0.30546 0.49239 0.0
C547 C 0.03377 0.28746 0.49019 0.0
C548 C 0.01292 0.25132 0.49443 0.0
C549 C 0.0292 0.23311 0.50091 0.0
C550 C 0.06636 0.25097 0.50312 0.0
C551 C 0.22364 0.34953 0.55881 0.0
C552 C 0.20955 0.31576 0.56613 0.0
C553 C 0.21389 0.35224 0.54338 0.0
C554 C 0.19029 0.32118 0.53491 0.0
C555 C 0.17716 0.28745 0.54208 0.0
C556 C 0.1866 0.28476 0.5575 0.0
C557 C 0.17786 0.3235 0.51885 0.0
C558 C 0.14075 0.3058 0.51595 0.0
C559 C 0.20192 0.3427 0.50647 0.0
C560 C 0.24138 0.36051 0.50845 0.0
C561 C 0.25758 0.34083 0.51358 0.0
C562 C 0.29481 0.35782 0.51545 0.0
C563 C 0.31615 0.39442 0.5121 0.0
C564 C 0.30031 0.41409 0.50684 0.0
C565 C 0.26309 0.39724 0.50496 0.0
H566 H 0.34497 0.40753 0.51355 0.0
H567 H 0.98415 0.23743 0.49272 0.0
H568 H 0.77849 0.14144 0.77626 0.0
H569 H 0.79285 0.16061 0.80375 0.0
H570 H 0.8693 0.12345 0.80446 0.0
H571 H 0.85533 0.1045 0.77714 0.0
H572 H 0.82643 0.10359 0.83106 0.0
H573 H 0.89801 0.21052 0.79978 0.0
H574 H 0.90683 0.25634 0.78006 0.0
H575 H 0.84072 0.28519 0.80712 0.0
H576 H 0.83111 0.23916 0.8269 0.0
H577 H 0.9338 0.18327 0.89653 0.0
H578 H 0.91349 0.16741 0.86948 0.0
H579 H 0.85299 0.22249 0.87346 0.0
H580 H 0.87446 0.23966 0.9005 0.0
H581 H 0.88099 0.23255 0.84509 0.0
H582 H 0.81221 0.12957 0.87729 0.0
H583 H 0.80188 0.08358 0.89717 0.0
H584 H 0.85899 0.04609 0.86873 0.0
H585 H 0.87012 0.0922 0.84878 0.0
C586 C 0.79809 0.13707 0.78234 0.0
C587 C 0.81584 0.12154 0.77451 0.0
C588 C 0.80641 0.1482 0.798 0.0
C589 C 0.83238 0.14372 0.8061 0.0
C590 C 0.84922 0.1272 0.79844 0.0
C591 C 0.84123 0.11645 0.7828 0.0
C592 C 0.84279 0.15672 0.82247 0.0
C593 C 0.83857 0.13181 0.83412 0.0
C594 C 0.85761 0.19338 0.82655 0.0
C595 C 0.8635 0.22113 0.81471 0.0
C596 C 0.8851 0.22643 0.80145 0.0
C597 C 0.89029 0.25247 0.79028 0.0
C598 C 0.87425 0.27359 0.79231 0.0
C599 C 0.85307 0.26877 0.80555 0.0
C600 C 0.84776 0.24272 0.81674 0.0
C601 C 0.91652 0.19241 0.8916 0.0
C602 C 0.90549 0.21247 0.90069 0.0
C603 C 0.9047 0.18309 0.87615 0.0
C604 C 0.88083 0.19283 0.86954 0.0
C605 C 0.87114 0.21438 0.87833 0.0
C606 C 0.88346 0.22423 0.89377 0.0
C607 C 0.86535 0.17948 0.85367 0.0
C608 C 0.86851 0.20426 0.84212 0.0
C609 C 0.84916 0.14257 0.84968 0.0
C610 C 0.84222 0.11453 0.86159 0.0
C611 C 0.82275 0.11166 0.87532 0.0
C612 C 0.81673 0.08555 0.8866 0.0
C613 C 0.82983 0.06197 0.88423 0.0
C614 C 0.84888 0.06439 0.87056 0.0
C615 C 0.85502 0.09048 0.85925 0.0
H616 H 0.82516 0.0418 0.89298 0.0
H617 H 0.8783 0.29374 0.78365 0.0
H618 H 0.64353 0.77517 0.10671 0.0
H619 H 0.6387 0.78888 0.1343 0.0
H620 H 0.7539 0.85454 0.13692 0.0
H621 H 0.75892 0.84126 0.10948 0.0
H622 H 0.72416 0.81009 0.16296 0.0
H623 H 0.70504 0.89357 0.13182 0.0
H624 H 0.67431 0.90972 0.11169 0.0
H625 H 0.57493 0.85115 0.13688 0.0
H626 H 0.605 0.83424 0.15706 0.0
H627 H 0.76019 0.9189 0.2288 0.0
H628 H 0.75484 0.89804 0.2018 0.0
H629 H 0.63963 0.84881 0.20463 0.0
H630 H 0.64493 0.87063 0.23168 0.0
H631 H 0.66237 0.87807 0.1764 0.0
H632 H 0.68116 0.79827 0.20864 0.0
H633 H 0.71065 0.78091 0.22888 0.0
H634 H 0.80809 0.8293 0.20191 0.0
H635 H 0.77934 0.84742 0.18161 0.0
C636 C 0.66782 0.7922 0.11324 0.0
C637 C 0.70161 0.80722 0.1059 0.0
C638 C 0.66501 0.80015 0.12896 0.0
C639 C 0.69594 0.82298 0.13762 0.0
C640 C 0.72969 0.83691 0.13046 0.0
C641 C 0.73249 0.82933 0.11475 0.0
C642 C 0.69351 0.83334 0.15402 0.0
C643 C 0.71084 0.82513 0.1659 0.0
C644 C 0.67519 0.85201 0.15792 0.0
C645 C 0.65716 0.86228 0.14584 0.0
C646 C 0.67656 0.88387 0.13299 0.0
C647 C 0.65929 0.89322 0.12159 0.0
C648 C 0.62267 0.88137 0.12298 0.0
C649 C 0.60327 0.86024 0.1358 0.0
C650 C 0.62042 0.85079 0.14723 0.0
C651 C 0.73369 0.90394 0.22365 0.0
C652 C 0.70295 0.89617 0.23243 0.0
C653 C 0.73065 0.89181 0.20822 0.0
C654 C 0.69677 0.87101 0.20129 0.0
C655 C 0.66605 0.86455 0.20977 0.0
C656 C 0.66911 0.87707 0.22521 0.0
C657 C 0.69372 0.85549 0.18534 0.0
C658 C 0.67533 0.86265 0.17355 0.0
C659 C 0.71081 0.83551 0.18152 0.0
C660 C 0.72815 0.82444 0.19366 0.0
C661 C 0.70895 0.80542 0.20707 0.0
C662 C 0.72552 0.79542 0.21855 0.0
C663 C 0.76124 0.80406 0.2167 0.0
C664 C 0.78043 0.82265 0.20334 0.0
C665 C 0.76399 0.83275 0.19183 0.0
H666 H 0.77402 0.7963 0.2256 0.0
H667 H 0.60934 0.88864 0.11414 0.0
H668 H 0.87984 0.73648 0.57148 0.0
H669 H 0.89425 0.73446 0.54399 0.0
H670 H 0.78154 0.66785 0.53352 0.0
H671 H 0.76713 0.6682 0.56141 0.0
H672 H 0.81582 0.64494 0.51719 0.0
H673 H 0.83136 0.76172 0.52491 0.0
H674 H 0.85377 0.82078 0.53755 0.0
H675 H 0.96228 0.84786 0.52747 0.0
H676 H 0.94054 0.78876 0.51494 0.0
H677 H 0.88594 0.74782 0.43718 0.0
H678 H 0.86751 0.74488 0.4644 0.0
H679 H 0.89321 0.66135 0.4735 0.0
H680 H 0.91016 0.66306 0.44587 0.0
H681 H 0.89921 0.75906 0.49014 0.0
H682 H 0.84254 0.60744 0.50334 0.0
H683 H 0.81248 0.54938 0.48938 0.0
H684 H 0.77243 0.59375 0.45501 0.0
H685 H 0.80185 0.6519 0.46888 0.0
C686 C 0.85806 0.72145 0.56333 0.0
C687 C 0.82229 0.70284 0.56857 0.0
C688 C 0.86634 0.72043 0.54756 0.0
C689 C 0.83899 0.70174 0.53652 0.0
C690 C 0.80318 0.68261 0.54177 0.0
C691 C 0.79492 0.68294 0.55768 0.0
C692 C 0.84799 0.70247 0.51955 0.0
C693 C 0.83399 0.66992 0.51127 0.0
C694 C 0.87111 0.73505 0.51163 0.0
C695 C 0.88432 0.77069 0.51911 0.0
C696 C 0.86001 0.78018 0.52548 0.0
C697 C 0.8726 0.81367 0.53261 0.0
C698 C 0.90943 0.83802 0.53335 0.0
C699 C 0.93376 0.82896 0.52691 0.0
C700 C 0.92132 0.79548 0.51978 0.0
C701 C 0.88774 0.7288 0.44495 0.0
C702 C 0.89952 0.70564 0.43935 0.0
C703 C 0.87718 0.72717 0.46057 0.0
C704 C 0.87854 0.70266 0.47108 0.0
C705 C 0.8911 0.67998 0.4656 0.0
C706 C 0.90107 0.68115 0.44983 0.0
C707 C 0.86725 0.70151 0.48774 0.0
C708 C 0.88096 0.73404 0.49601 0.0
C709 C 0.84277 0.66906 0.49542 0.0
C710 C 0.82475 0.63412 0.48706 0.0
C711 C 0.82723 0.60476 0.49283 0.0
C712 C 0.81031 0.57184 0.48493 0.0
C713 C 0.79066 0.56792 0.47129 0.0
C714 C 0.78778 0.59686 0.46555 0.0
C715 C 0.8046 0.62982 0.47341 0.0
H716 H 0.77761 0.54242 0.46518 0.0
H717 H 0.91912 0.86393 0.53888 0.0
H718 H 0.10025 0.84407 0.89704 0.0
H719 H 0.11817 0.85712 0.86955 0.0
H720 H 0.16599 0.78969 0.87189 0.0
H721 H 0.14783 0.77622 0.89955 0.0
H722 H 0.21111 0.85802 0.85825 0.0
H723 H 0.09145 0.75967 0.85215 0.0
H724 H 0.02613 0.72539 0.85673 0.0
H725 H 0.0156 0.81238 0.83779 0.0
H726 H 0.08095 0.84742 0.8333 0.0
H727 H 0.24202 0.87306 0.77474 0.0
H728 H 0.22644 0.85232 0.80194 0.0
H729 H 0.15972 0.90096 0.80455 0.0
H730 H 0.17438 0.92081 0.77737 0.0
H731 H 0.12433 0.83575 0.81544 0.0
H732 H 0.24294 0.93628 0.82358 0.0
H733 H 0.30836 0.97283 0.81962 0.0
H734 H 0.32117 0.88471 0.83513 0.0
H735 H 0.25572 0.84746 0.839 0.0
C736 C 0.11425 0.83168 0.89169 0.0
C737 C 0.12255 0.80903 0.90047 0.0
C738 C 0.12444 0.83914 0.87596 0.0
C739 C 0.14331 0.82429 0.86865 0.0
C740 C 0.15142 0.8014 0.87731 0.0
C741 C 0.14084 0.79356 0.89306 0.0
C742 C 0.15525 0.83372 0.8521 0.0
C743 C 0.19217 0.85258 0.8488 0.0
C744 C 0.13053 0.82734 0.83987 0.0
C745 C 0.09117 0.80628 0.8425 0.0
C746 C 0.07525 0.77162 0.84908 0.0
C747 C 0.0382 0.75202 0.85164 0.0
C748 C 0.01673 0.76672 0.84759 0.0
C749 C 0.03226 0.80103 0.84093 0.0
C750 C 0.06931 0.82075 0.83836 0.0
C751 C 0.22444 0.87975 0.7812 0.0
C752 C 0.20938 0.89851 0.77388 0.0
C753 C 0.21556 0.8679 0.79676 0.0
C754 C 0.1919 0.87508 0.80535 0.0
C755 C 0.17781 0.89482 0.79817 0.0
C756 C 0.18637 0.90632 0.78262 0.0
C757 C 0.18035 0.86087 0.82157 0.0
C758 C 0.14339 0.84099 0.82481 0.0
C759 C 0.20508 0.86664 0.83374 0.0
C760 C 0.2444 0.88895 0.8314 0.0
C761 C 0.25967 0.92459 0.82602 0.0
C762 C 0.29677 0.94545 0.82381 0.0
C763 C 0.3189 0.93106 0.82707 0.0
C764 C 0.30399 0.8958 0.83258 0.0
C765 C 0.2669 0.87481 0.83479 0.0
H766 H 0.34761 0.94726 0.82536 0.0
H767 H 0.98805 0.75151 0.84958 0.0
H768 H 0.19728 0.84767 0.99754 0.0
H769 H 0.23788 0.90542 0.01006 0.0
H770 H 0.24613 0.9605 0.96658 0.0
H771 H 0.20548 0.90311 0.95404 0.0
H772 H 0.3119 0.99081 0.98356 0.0
H773 H 0.18651 0.95359 0.99158 0.0
H774 H 0.12453 0.91152 1.00011 0.0
H775 H 0.16162 0.91299 0.04705 0.0
H776 H 0.22394 0.95469 0.03872 0.0
H777 H 0.35019 0.16586 0.00779 0.0
H778 H 0.33122 0.10677 0.99635 0.0
H779 H 0.30631 0.05936 0.04263 0.0
H780 H 0.32371 0.11802 0.05397 0.0
H781 H 0.25241 0.02289 0.0253 0.0
H782 H 0.37743 0.06539 0.01831 0.0
H783 H 0.4396 0.10709 0.00992 0.0
H784 H 0.40522 0.09581 0.96192 0.0
H785 H 0.34273 0.05441 0.97004 0.0
C786 C 0.20845 0.87197 0.99054 0.0
C787 C 0.1979 0.87081 0.97483 0.0
C788 C 0.23154 0.90498 0.99773 0.0
C789 C 0.24475 0.93731 0.98929 0.0
C790 C 0.2363 0.93593 0.97331 0.0
C791 C 0.21292 0.90307 0.96619 0.0
C792 C 0.26402 0.97265 0.99739 0.0
C793 C 0.29899 0.998 0.99267 0.0
C794 C 0.24736 0.98175 0.00945 0.0
C795 C 0.2099 0.95688 0.01448 0.0
C796 C 0.18148 0.94469 0.00369 0.0
C797 C 0.14629 0.92096 0.00849 0.0
C798 C 0.13915 0.90949 0.0241 0.0
C799 C 0.16719 0.92183 0.03495 0.0
C800 C 0.20245 0.94551 0.0302 0.0
C801 C 0.34159 0.14298 0.01554 0.0
C802 C 0.33835 0.14658 0.03177 0.0
C803 C 0.33076 0.10911 0.009 0.0
C804 C 0.31729 0.07833 0.0186 0.0
C805 C 0.31629 0.08248 0.03492 0.0
C806 C 0.32645 0.11611 0.04141 0.0
C807 C 0.30079 0.04152 0.01163 0.0
C808 C 0.26595 0.01582 0.01644 0.0
C809 C 0.31777 0.03216 0.99975 0.0
C810 C 0.35533 0.05701 0.99481 0.0
C811 C 0.38307 0.07201 0.00598 0.0
C812 C 0.41838 0.09555 1.00127 0.0
C813 C 0.42634 0.10415 0.9854 0.0
C814 C 0.39901 0.08915 0.9742 0.0
C815 C 0.36365 0.0656 0.97885 0.0
H816 H 0.4537 0.12239 0.98178 0.0
H817 H 0.11189 0.89113 0.0278 0.0
H818 H 0.19552 0.29475 0.38774 0.0
H819 H 0.23791 0.27921 0.37623 0.0
H820 H 0.24504 0.3398 0.33465 0.0
H821 H 0.2023 0.35548 0.34613 0.0
H822 H 0.22916 0.27124 0.32796 0.0
H823 H 0.31693 0.36836 0.35899 0.0
H824 H 0.3421 0.40357 0.38319 0.0
H825 H 0.34122 0.31304 0.4051 0.0
H826 H 0.31557 0.27711 0.38111 0.0
H827 H 0.34233 0.22191 0.29097 0.0
H828 H 0.32451 0.26232 0.30297 0.0
H829 H 0.32165 0.21652 0.34843 0.0
H830 H 0.34142 0.17736 0.3365 0.0
H831 H 0.33979 0.28396 0.3522 0.0
H832 H 0.24546 0.18471 0.32418 0.0
H833 H 0.21686 0.14561 0.30128 0.0
H834 H 0.22559 0.23547 0.27535 0.0
H835 H 0.25471 0.27521 0.29805 0.0
C836 C 0.20656 0.30539 0.37626 0.0
C837 C 0.19535 0.32628 0.36784 0.0
C838 C 0.231 0.29659 0.36971 0.0
C839 C 0.24486 0.30844 0.35459 0.0
C840 C 0.23478 0.33043 0.34636 0.0
C841 C 0.21048 0.33952 0.35297 0.0
C842 C 0.26696 0.29492 0.34689 0.0
C843 C 0.25383 0.27478 0.33307 0.0
C844 C 0.29842 0.29832 0.35386 0.0
C845 C 0.31409 0.31996 0.36827 0.0
C846 C 0.32186 0.35587 0.369 0.0
C847 C 0.33626 0.37598 0.38268 0.0
C848 C 0.3432 0.36054 0.39568 0.0
C849 C 0.33583 0.32497 0.39502 0.0
C850 C 0.32141 0.30474 0.38138 0.0
C851 C 0.33899 0.22129 0.30359 0.0
C852 C 0.34309 0.19639 0.31279 0.0
C853 C 0.32846 0.24416 0.31044 0.0
C854 C 0.32049 0.24169 0.32656 0.0
C855 C 0.32732 0.21881 0.33596 0.0
C856 C 0.33875 0.19648 0.32914 0.0
C857 C 0.30195 0.26026 0.33327 0.0
C858 C 0.3155 0.28101 0.34695 0.0
C859 C 0.27039 0.25689 0.32636 0.0
C860 C 0.25261 0.23299 0.31274 0.0
C861 C 0.24147 0.19616 0.31356 0.0
C862 C 0.22516 0.17389 0.30062 0.0
C863 C 0.21951 0.18807 0.28685 0.0
C864 C 0.23006 0.22454 0.28601 0.0
C865 C 0.24645 0.24695 0.29891 0.0
H866 H 0.20688 0.17079 0.27684 0.0
H867 H 0.35433 0.37615 0.40626 0.0
H868 H 0.89945 0.20723 0.7181 0.0
H869 H 0.95646 0.24557 0.70477 0.0
H870 H 0.90325 0.21333 0.65995 0.0
H871 H 0.84581 0.17511 0.67327 0.0
H872 H 0.96173 0.20149 0.66338 0.0
H873 H 0.93707 0.29788 0.67096 0.0
H874 H 0.92102 0.33653 0.68627 0.0
H875 H 0.01406 0.37032 0.71526 0.0
H876 H 0.03042 0.33146 0.70026 0.0
H877 H 0.11566 0.30009 0.61821 0.0
H878 H 0.05652 0.28047 0.62942 0.0
H879 H 0.10487 0.32316 0.67444 0.0
H880 H 0.16457 0.3439 0.6631 0.0
H881 H 0.04777 0.33163 0.67032 0.0
H882 H 0.07038 0.23399 0.66606 0.0
H883 H 0.08756 0.19345 0.65309 0.0
H884 H 0.99982 0.15949 0.62083 0.0
H885 H 0.98237 0.20018 0.6335 0.0
C886 C 0.89967 0.20901 0.70541 0.0
C887 C 0.86807 0.18808 0.69675 0.0
C888 C 0.93232 0.23101 0.6978 0.0
C889 C 0.93418 0.23233 0.68135 0.0
C890 C 0.90241 0.21278 0.67266 0.0
C891 C 0.86955 0.19114 0.68029 0.0
C892 C 0.96973 0.25099 0.67335 0.0
C893 C 0.98022 0.23011 0.6646 0.0
C894 C 0.99451 0.28801 0.67556 0.0
C895 C 0.98481 0.31151 0.68456 0.0
C896 C 0.95396 0.31331 0.68068 0.0
C897 C 0.94483 0.33531 0.68929 0.0
C898 C 0.96646 0.35581 0.70175 0.0
C899 C 0.99732 0.35441 0.70561 0.0
C900 C 1.00656 0.33244 0.69704 0.0
C901 C 0.11384 0.30593 0.63044 0.0
C902 C 0.14485 0.32326 0.6398 0.0
C903 C 0.07992 0.29451 0.63686 0.0
C904 C 0.07604 0.29944 0.65289 0.0
C905 C 0.1071 0.31881 0.66206 0.0
C906 C 0.14124 0.33071 0.65557 0.0
C907 C 0.03959 0.28216 0.66017 0.0
C908 C 0.02908 0.30313 0.66891 0.0
C909 C 0.01493 0.24495 0.65828 0.0
C910 C 0.02531 0.22043 0.65062 0.0
C911 C 0.05492 0.21809 0.65612 0.0
C912 C 0.06468 0.19505 0.64884 0.0
C913 C 0.04486 0.174 0.63611 0.0
C914 C 0.01518 0.17586 0.63067 0.0
C915 C 1.00532 0.19889 0.6379 0.0
H916 H 0.05245 0.15617 0.63049 0.0
H917 H 0.95935 0.37282 0.7084 0.0
H918 H 0.71202 0.90124 0.05191 0.0
H919 H 0.73011 0.95894 0.03919 0.0
H920 H 0.69197 0.90514 0.99477 0.0
H921 H 0.67317 0.84708 0.00749 0.0
H922 H 0.76528 0.96128 0.99511 0.0
H923 H 0.64947 0.94244 0.00994 0.0
H924 H 0.59988 0.92886 0.02827 0.0
H925 H 0.66972 0.02137 0.05587 0.0
H926 H 0.71991 0.03523 0.03783 0.0
H927 H 0.82021 0.11856 0.95227 0.0
H928 H 0.77991 0.05937 0.96342 0.0
H929 H 0.79563 0.10647 0.00951 0.0
H930 H 0.8349 0.16618 0.99824 0.0
H931 H 0.72968 0.05207 0.00754 0.0
H932 H 0.84571 0.06837 0.9961 0.0
H933 H 0.89876 0.08287 0.97987 0.0
H934 H 0.83321 0.99621 0.94859 0.0
H935 H 0.77964 0.98149 0.96454 0.0
C936 C 0.70668 0.90156 0.0395 0.0
C937 C 0.6912 0.86957 0.0307 0.0
C938 C 0.71698 0.93458 0.03226 0.0
C939 C 0.71242 0.93636 0.01604 0.0
C940 C 0.69564 0.90433 0.00732 0.0
C941 C 0.68474 0.87117 0.01461 0.0
C942 C 0.72854 0.97185 0.00802 0.0
C943 C 0.75697 0.98086 0.99755 0.0
C944 C 0.7187 0.9979 0.01175 0.0
C945 C 0.68854 0.9897 0.02259 0.0
C946 C 0.65435 0.95972 0.01999 0.0
C947 C 0.62611 0.95201 0.03032 0.0
C948 C 0.63167 0.97419 0.04325 0.0
C949 C 0.66546 1.00419 0.04586 0.0
C950 C 0.69381 0.01201 0.03557 0.0
C951 C 0.81448 0.11643 0.96474 0.0
C952 C 0.83099 0.147 0.9744 0.0
C953 C 0.79159 0.08251 0.97113 0.0
C954 C 0.7855 0.07818 0.9874 0.0
C955 C 0.80006 0.10899 0.99694 0.0
C956 C 0.82248 0.14315 0.99049 0.0
C957 C 0.76635 0.04147 0.9945 0.0
C958 C 0.73766 0.03234 0.0049 0.0
C959 C 0.77645 0.01542 0.99101 0.0
C960 C 0.80861 0.02409 0.98142 0.0
C961 C 0.84257 0.05257 0.9857 0.0
C962 C 0.87273 0.0608 0.97656 0.0
C963 C 0.86934 0.04054 0.96318 0.0
C964 C 0.83578 0.01193 0.95894 0.0
C965 C 0.80551 1.00361 0.96803 0.0
H966 H 0.89272 0.04695 0.95612 0.0
H967 H 0.60977 0.96817 0.05123 0.0
H968 H 0.71317 0.81401 0.28587 0.0
H969 H 0.73061 0.77351 0.29814 0.0
H970 H 0.69234 0.78779 0.34284 0.0
H971 H 0.67426 0.82804 0.33057 0.0
H972 H 0.76484 0.80375 0.34269 0.0
H973 H 0.64929 0.70842 0.32647 0.0
H974 H 0.60057 0.67399 0.30759 0.0
H975 H 0.67132 0.65253 0.27996 0.0
H976 H 0.72065 0.68728 0.29856 0.0
H977 H 0.8117 0.69637 0.38581 0.0
H978 H 0.77261 0.71561 0.37376 0.0
H979 H 0.79699 0.69063 0.32795 0.0
H980 H 0.83563 0.67031 0.34006 0.0
H981 H 0.72856 0.67784 0.32887 0.0
H982 H 0.84422 0.77535 0.34189 0.0
H983 H 0.8966 0.81237 0.35869 0.0
H984 H 0.83039 0.83327 0.38971 0.0
H985 H 0.77749 0.79597 0.37318 0.0
C986 C 0.70769 0.8079 0.29825 0.0
C987 C 0.69237 0.82431 0.30726 0.0
C988 C 0.71761 0.78466 0.30524 0.0
C989 C 0.71279 0.77761 0.32141 0.0
C990 C 0.69621 0.7928 0.33033 0.0
C991 C 0.68571 0.81564 0.32329 0.0
C992 C 0.72837 0.75745 0.32918 0.0
C993 C 0.75635 0.77596 0.33993 0.0
C994 C 0.71841 0.72173 0.32502 0.0
C995 C 0.68876 0.70073 0.31384 0.0
C996 C 0.65456 0.69663 0.31629 0.0
C997 C 0.62681 0.67699 0.30566 0.0
C998 C 0.63286 0.66115 0.29256 0.0
C999 C 0.66667 0.66484 0.2901 0.0
C1000 C 0.69453 0.68447 0.3007 0.0
C1001 C 0.80806 0.69409 0.37319 0.0
C1002 C 0.82703 0.68212 0.36387 0.0
C1003 C 0.78583 0.7053 0.36631 0.0
C1004 C 0.78259 0.70553 0.34991 0.0
C1005 C 0.79924 0.69093 0.34062 0.0
C1006 C 0.82124 0.67922 0.34756 0.0
C1007 C 0.76469 0.72402 0.34257 0.0
C1008 C 0.73666 0.70544 0.3318 0.0
C1009 C 0.77509 0.76006 0.34641 0.0
C1010 C 0.80682 0.78254 0.3564 0.0
C1011 C 0.84077 0.7876 0.35236 0.0
C1012 C 0.87056 0.80867 0.36183 0.0
C1013 C 0.86679 0.82506 0.37529 0.0
C1014 C 0.83324 0.8205 0.3793 0.0
C1015 C 0.80335 0.79942 0.36988 0.0
H1016 H 0.88989 0.84138 0.3826 0.0
H1017 H 0.61134 0.64596 0.28434 0.0
H1018 H 0.16673 0.81824 0.67836 0.0
H1019 H 0.10834 0.77659 0.66665 0.0
H1020 H 0.0552 0.77864 0.70926 0.0
H1021 H 0.11316 0.81997 0.72101 0.0
H1022 H 0.02198 0.71094 0.69588 0.0
H1023 H 0.06427 0.83388 0.68002 0.0
H1024 H 0.10764 0.89236 0.66837 0.0
H1025 H 0.10204 0.84075 0.62446 0.0
H1026 H 0.05898 0.78186 0.63593 0.0
H1027 H 0.84905 0.67438 0.66907 0.0
H1028 H 0.90769 0.69348 0.68097 0.0
H1029 H 0.95311 0.70117 0.63495 0.0
H1030 H 0.89502 0.68361 0.62307 0.0
H1031 H 0.99207 0.75997 0.64921 0.0
H1032 H 0.94417 0.63708 0.66425 0.0
H1033 H 0.90057 0.57885 0.676 0.0
H1034 H 0.91595 0.62896 0.72113 0.0
H1035 H 0.95929 0.68761 0.70961 0.0
C1036 C 0.14268 0.80919 0.68536 0.0
C1037 C 0.14465 0.82275 0.70058 0.0
C1038 C 0.10929 0.7855 0.67862 0.0
C1039 C 0.0773 0.77483 0.687 0.0
C1040 C 0.07943 0.78648 0.70255 0.0
C1041 C 0.11267 0.81029 0.70923 0.0
C1042 C 0.04161 0.75444 0.67923 0.0
C1043 C 0.01531 0.72161 0.68569 0.0
C1044 C 0.03304 0.76806 0.6658 0.0
C1045 C 0.05877 0.80345 0.65888 0.0
C1046 C 0.07252 0.83498 0.66792 0.0
C1047 C 0.097 0.8682 0.66134 0.0
C1048 C 0.10767 0.87026 0.6457 0.0
C1049 C 0.0938 0.8391 0.63659 0.0
C1050 C 0.06936 0.80581 0.64311 0.0
C1051 C 0.8713 0.67906 0.66155 0.0
C1052 C 0.86744 0.67754 0.64514 0.0
C1053 C 0.90493 0.69003 0.66836 0.0
C1054 C 0.93512 0.69888 0.65889 0.0
C1055 C 0.93049 0.69484 0.64255 0.0
C1056 C 0.89716 0.68455 0.63576 0.0
C1057 C 0.97205 0.71601 0.66573 0.0
C1058 C 0.99865 0.74863 0.65919 0.0
C1059 C 0.98077 0.70205 0.67905 0.0
C1060 C 0.95477 0.66681 0.68603 0.0
C1061 C 0.93806 0.63574 0.67666 0.0
C1062 C 0.91343 0.60264 0.68328 0.0
C1063 C 0.90544 0.60022 0.69929 0.0
C1064 C 0.92214 0.63088 0.70872 0.0
C1065 C 0.94678 0.66405 0.70216 0.0
H1066 H 0.88636 0.57457 0.7044 0.0
H1067 H 0.12662 0.896 0.64063 0.0
H1068 H 0.03768 0.24898 0.95305 0.0
H1069 H 0.09087 0.25158 0.96476 0.0
H1070 H 0.05408 0.26008 0.01086 0.0
H1071 H 1.00174 0.25887 0.99923 0.0
H1072 H 0.12286 0.30227 0.00951 0.0
H1073 H 0.04297 0.17899 0.99592 0.0
H1074 H 1.00438 0.12844 0.97848 0.0
H1075 H 0.09497 0.15326 0.94904 0.0
H1076 H 0.13403 0.20427 0.9662 0.0
H1077 H 0.22465 0.24013 0.05336 0.0
H1078 H 0.17515 0.24458 0.04132 0.0
H1079 H 0.22461 0.25899 0.99584 0.0
H1080 H 0.27421 0.2551 0.00769 0.0
H1081 H 0.15044 0.20581 0.99692 0.0
H1082 H 0.23025 0.32885 0.01198 0.0
H1083 H 0.26742 0.37733 0.03056 0.0
H1084 H 0.17441 0.34972 0.05881 0.0
H1085 H 0.13676 0.30069 0.0405 0.0
C1086 C 0.04107 0.25165 0.96567 0.0
C1087 C 0.01536 0.25351 0.9752 0.0
C1088 C 0.0714 0.25295 0.97236 0.0
C1089 C 0.07618 0.25534 0.98874 0.0
C1090 C 0.05101 0.25818 0.99821 0.0
C1091 C 0.02101 0.2574 0.99152 0.0
C1092 C 0.10685 0.25402 0.99609 0.0
C1093 C 0.12859 0.28092 0.00687 0.0
C1094 C 0.11471 0.22643 0.99255 0.0
C1095 C 0.09133 0.19566 0.98226 0.0
C1096 C 0.0546 0.17382 0.98567 0.0
C1097 C 0.03266 0.14506 0.97584 0.0
C1098 C 0.0472 0.1377 0.96264 0.0
C1099 C 0.08374 0.15902 0.95926 0.0
C1100 C 0.1058 0.18784 0.96904 0.0
C1101 C 0.22503 0.24439 0.04081 0.0
C1102 C 0.25338 0.2473 0.03149 0.0
C1103 C 0.19682 0.247 0.03397 0.0
C1104 C 0.19636 0.25217 0.01771 0.0
C1105 C 0.22452 0.25498 0.0084 0.0
C1106 C 0.2529 0.25288 0.01523 0.0
C1107 C 0.1662 0.25396 0.01027 0.0
C1108 C 0.14461 0.22711 0.99951 0.0
C1109 C 0.1582 0.28127 0.01399 0.0
C1110 C 0.18076 0.31086 0.02496 0.0
C1111 C 0.21778 0.3329 0.02223 0.0
C1112 C 0.23892 0.36053 0.03269 0.0
C1113 C 0.2233 0.36654 0.04588 0.0
C1114 C 0.18648 0.345 0.0486 0.0
C1115 C 0.16522 0.31731 0.03818 0.0
H1116 H 0.23971 0.38794 0.05397 0.0
H1117 H 0.03016 0.11543 0.95505 0.0
H1118 H 0.80417 0.02625 0.2849 0.0
H1119 H 0.85417 0.07979 0.2967 0.0
H1120 H 0.79742 0.05458 0.34086 0.0
H1121 H 0.74711 1.00178 0.32909 0.0
H1122 H 0.82918 0.1239 0.33611 0.0
H1123 H 0.86491 0.03479 0.33379 0.0
H1124 H 0.87654 0.98976 0.32134 0.0
H1125 H 0.95503 0.07109 0.29107 0.0
H1126 H 0.9435 0.11655 0.30321 0.0
H1127 H 0.98346 0.22375 0.38616 0.0
H1128 H 0.93054 0.1747 0.3733 0.0
H1129 H 0.97812 0.21584 0.32798 0.0
H1130 H 0.03055 0.26515 0.34062 0.0
H1131 H 0.95146 0.13965 0.33322 0.0
H1132 H 0.91528 0.22908 0.33717 0.0
H1133 H 0.90362 0.27255 0.35109 0.0
H1134 H 0.82577 0.1879 0.38032 0.0
H1135 H 0.83738 0.14398 0.36671 0.0
C1136 C 0.80222 0.03226 0.29709 0.0
C1137 C 0.7717 0.00956 0.30606 0.0
C1138 C 0.83091 0.06278 0.30385 0.0
C1139 C 0.82982 0.07091 0.31976 0.0
C1140 C 0.79894 0.04888 0.32858 0.0
C1141 C 0.77019 0.01858 0.32182 0.0
C1142 C 0.86113 0.10175 0.32737 0.0
C1143 C 0.85582 0.12709 0.3356 0.0
C1144 C 0.89604 0.10622 0.32661 0.0
C1145 C 0.90305 0.07898 0.31929 0.0
C1146 C 0.88444 0.04301 0.32439 0.0
C1147 C 0.89105 0.01742 0.31741 0.0
C1148 C 0.91643 0.02754 0.30539 0.0
C1149 C 0.93533 0.06329 0.30036 0.0
C1150 C 0.92878 0.08898 0.3073 0.0
C1151 C 0.98252 0.22243 0.37346 0.0
C1152 C 1.01115 0.24835 0.36441 0.0
C1153 C 0.9523 0.19449 0.36615 0.0
C1154 C 0.95053 0.19178 0.34971 0.0
C1155 C 0.97904 0.21754 0.34067 0.0
C1156 C 1.00889 0.24576 0.34794 0.0
C1157 C 0.91938 0.16158 0.34187 0.0
C1158 C 0.92478 0.13639 0.33365 0.0
C1159 C 0.88453 0.15697 0.34285 0.0
C1160 C 0.87751 0.18332 0.35104 0.0
C1161 C 0.89595 0.21979 0.34667 0.0
C1162 C 0.88929 0.2445 0.35448 0.0
C1163 C 0.86405 0.23301 0.36662 0.0
C1164 C 0.84536 0.19677 0.37094 0.0
C1165 C 0.85196 0.17196 0.36317 0.0
H1166 H 0.85892 0.25218 0.37264 0.0
H1167 H 0.92153 1.00769 0.30001 0.0
H1168 H 0.81666 0.81016 0.62667 0.0
H1169 H 0.81641 0.86105 0.63951 0.0
H1170 H 0.72948 0.7877 0.66945 0.0
H1171 H 0.73023 0.73696 0.65702 0.0
H1172 H 0.77058 0.88381 0.64294 0.0
H1173 H 0.73839 0.82188 0.70567 0.0
H1174 H 0.74834 0.77958 0.72157 0.0
H1175 H 0.84066 0.80287 0.69364 0.0
H1176 H 0.83156 0.84566 0.67772 0.0
H1177 H 0.72329 0.98873 0.68929 0.0
H1178 H 0.72313 0.93733 0.67695 0.0
H1179 H 0.81888 0.96056 0.70258 0.0
H1180 H 0.81822 0.01111 0.71549 0.0
H1181 H 0.77863 0.89225 0.70105 0.0
H1182 H 0.82077 0.98664 0.66312 0.0
H1183 H 0.8192 0.03353 0.64697 0.0
H1184 H 0.72231 0.95367 0.6248 0.0
H1185 H 0.72305 0.90635 0.64097 0.0
C1186 C 0.79731 0.80489 0.6359 0.0
C1187 C 0.77374 0.76954 0.64094 0.0
C1188 C 0.79719 0.83399 0.64323 0.0
C1189 C 0.77342 0.82824 0.65567 0.0
C1190 C 0.74869 0.79287 0.66016 0.0
C1191 C 0.74904 0.76386 0.65298 0.0
C1192 C 0.77488 0.85911 0.66421 0.0
C1193 C 0.77233 0.88565 0.65564 0.0
C1194 C 0.77811 0.86208 0.68077 0.0
C1195 C 0.78405 0.8367 0.69041 0.0
C1196 C 0.76089 0.81808 0.70296 0.0
C1197 C 0.76637 0.794 0.71197 0.0
C1198 C 0.79504 0.78846 0.70858 0.0
C1199 C 0.81838 0.80708 0.69621 0.0
C1200 C 0.81305 0.83122 0.68719 0.0
C1201 C 0.74407 0.98262 0.69243 0.0
C1202 C 0.77092 1.00409 0.70327 0.0
C1203 C 0.74411 0.95338 0.68528 0.0
C1204 C 0.77154 0.94559 0.6885 0.0
C1205 C 0.79753 0.96611 0.69983 0.0
C1206 C 0.79712 0.99499 0.70721 0.0
C1207 C 0.77358 0.91663 0.67981 0.0
C1208 C 0.77683 0.89043 0.68835 0.0
C1209 C 0.77222 0.91465 0.66318 0.0
C1210 C 0.77182 0.943 0.65335 0.0
C1211 C 0.79902 0.97911 0.65487 0.0
C1212 C 0.79829 1.00576 0.6457 0.0
C1213 C 0.77063 0.9966 0.63489 0.0
C1214 C 0.7437 0.96074 0.63319 0.0
C1215 C 0.74428 0.93398 0.64234 0.0
H1216 H 0.77011 0.01727 0.62781 0.0
H1217 H 0.79922 0.76978 0.71556 0.0
H1218 H 0.79634 0.76724 0.05423 0.0
H1219 H 0.84662 0.76377 0.04261 0.0
H1220 H 0.80435 0.7605 0.99631 0.0
H1221 H 0.75342 0.76225 0.00785 0.0
H1222 H 0.82829 0.71686 0.99675 0.0
H1223 H 0.87642 0.83936 0.0132 0.0
H1224 H 0.89006 0.88859 0.03177 0.0
H1225 H 0.95063 0.85551 0.06038 0.0
H1226 H 0.93697 0.80578 0.04207 0.0
H1227 H 0.99214 0.77645 0.95353 0.0
H1228 H 0.93863 0.77245 0.96579 0.0
H1229 H 0.97203 0.75353 0.01081 0.0
H1230 H 0.0252 0.75717 0.99873 0.0
H1231 H 0.95306 0.80725 0.01127 0.0
H1232 H 0.90569 0.68562 0.99293 0.0
H1233 H 0.89289 0.63896 0.97308 0.0
H1234 H 0.83178 0.67443 0.94627 0.0
H1235 H 0.84465 0.72165 0.96587 0.0
C1236 C 0.79771 0.76557 0.04159 0.0
C1237 C 0.77097 0.76515 0.03197 0.0
C1238 C 0.82657 0.7638 0.03494 0.0
C1239 C 0.82972 0.76255 0.01854 0.0
C1240 C 0.80262 0.76144 0.00898 0.0
C1241 C 0.7735 0.76252 0.01561 0.0
C1242 C 0.86135 0.76291 0.01124 0.0
C1243 C 0.85554 0.73692 0.99982 0.0
C1244 C 0.89704 0.78872 0.01535 0.0
C1245 C 0.90535 0.81863 0.02635 0.0
C1246 C 0.89243 0.84243 0.02351 0.0
C1247 C 0.9002 0.87045 0.03398 0.0
C1248 C 0.92111 0.87511 0.04727 0.0
C1249 C 0.93439 0.85183 0.0501 0.0
C1250 C 0.92666 0.82374 0.03967 0.0
C1251 C 0.98797 0.77123 0.96602 0.0
C1252 C 0.01295 0.76711 0.97514 0.0
C1253 C 0.95737 0.76886 0.97299 0.0
C1254 C 0.9514 0.7626 0.98919 0.0
C1255 C 0.97618 0.75839 0.99829 0.0
C1256 C 1.0065 0.76035 0.99133 0.0
C1257 C 0.91983 0.7614 0.99681 0.0
C1258 C 0.92573 0.78723 0.00826 0.0
C1259 C 0.8843 0.73586 0.99255 0.0
C1260 C 0.87644 0.7074 0.98079 0.0
C1261 C 0.88979 0.68367 0.98274 0.0
C1262 C 0.88246 0.65708 0.97154 0.0
C1263 C 0.86161 0.6538 0.9584 0.0
C1264 C 0.84797 0.67704 0.95645 0.0
C1265 C 0.85524 0.70369 0.9676 0.0
H1266 H 0.85597 0.63319 0.94975 0.0
H1267 H 0.9271 0.89682 0.05536 0.0
H1268 H 0.01855 0.80822 0.3832 0.0
H1269 H 0.06999 0.85864 0.3703 0.0
H1270 H 0.0644 0.78834 0.33291 0.0
H1271 H 0.01347 0.73788 0.34575 0.0
H1272 H 0.13244 0.83256 0.34115 0.0
H1273 H 0.02971 0.84276 0.32792 0.0
H1274 H 0.97533 0.84644 0.33344 0.0
H1275 H 0.03819 0.94397 0.35936 0.0
H1276 H 0.09289 0.94057 0.3542 0.0
H1277 H 0.21184 1.00602 0.28875 0.0
H1278 H 0.16048 0.95203 0.29975 0.0
H1279 H 0.2263 0.95349 0.33825 0.0
H1280 H 0.27761 1.00675 0.3273 0.0
H1281 H 0.12602 0.94152 0.3273 0.0
H1282 H 0.2008 0.86883 0.34958 0.0
H1283 H 0.25289 0.86254 0.34221 0.0
H1284 H 0.24182 0.88566 0.29416 0.0
H1285 H 0.18939 0.89159 0.30119 0.0
C1286 C 0.02848 0.80342 0.37232 0.0
C1287 C 0.01173 0.76903 0.36547 0.0
C1288 C 0.05776 0.83229 0.36491 0.0
C1289 C 0.07071 0.82731 0.35053 0.0
C1290 C 0.05481 0.79281 0.34397 0.0
C1291 C 0.02559 0.764 0.35133 0.0
C1292 C 0.10028 0.85811 0.34209 0.0
C1293 C 0.13108 0.85642 0.33815 0.0
C1294 C 0.0981 0.88885 0.33783 0.0
C1295 C 0.06534 0.89123 0.34079 0.0
C1296 C 0.0319 0.86486 0.33488 0.0
C1297 C 1.00102 0.86691 0.33794 0.0
C1298 C 1.00329 0.89537 0.34678 0.0
C1299 C 0.03647 0.92191 0.35253 0.0
C1300 C 0.06742 0.91995 0.34954 0.0
C1301 C 0.21543 0.99466 0.29949 0.0
C1302 C 0.24891 0.01069 0.3071 0.0
C1303 C 0.18602 0.96392 0.30579 0.0
C1304 C 0.18964 0.94856 0.31975 0.0
C1305 C 0.223 0.96451 0.32734 0.0
C1306 C 0.25232 0.99511 0.32107 0.0
C1307 C 0.1585 0.91626 0.32663 0.0
C1308 C 0.12739 0.91767 0.33029 0.0
C1309 C 0.16009 0.88494 0.33035 0.0
C1310 C 0.19135 0.88097 0.32596 0.0
C1311 C 0.20938 0.87241 0.33743 0.0
C1312 C 0.23899 0.86894 0.33332 0.0
C1313 C 0.25072 0.87381 0.31774 0.0
C1314 C 0.23279 0.88203 0.30623 0.0
C1315 C 0.20316 0.8855 0.31028 0.0
H1316 H 0.27366 0.87114 0.31458 0.0
H1317 H 0.97935 0.89689 0.34914 0.0
H1318 H 0.2675 0.99881 0.67591 0.0
H1319 H 0.27151 0.05213 0.66383 0.0
H1320 H 0.24308 0.08069 0.70795 0.0
H1321 H 0.23814 0.0267 0.72009 0.0
H1322 H 0.20572 0.08715 0.68517 0.0
H1323 H 0.3295 0.12659 0.69315 0.0
H1324 H 0.38587 0.12482 0.69187 0.0
H1325 H 0.38255 0.1257 0.64151 0.0
H1326 H 0.32579 0.12686 0.64246 0.0
H1327 H 0.25579 0.26613 0.66466 0.0
H1328 H 0.25869 0.21585 0.67645 0.0
H1329 H 0.2571 0.17329 0.63046 0.0
H1330 H 0.25353 0.22345 0.61843 0.0
H1331 H 0.31064 0.17506 0.65395 0.0
H1332 H 0.18453 0.13445 0.64706 0.0
H1333 H 0.13059 0.14041 0.6495 0.0
H1334 H 0.14143 0.14552 0.69968 0.0
H1335 H 0.19583 0.1402 0.69751 0.0
C1336 C 0.26234 0.01651 0.68312 0.0
C1337 C 0.25248 0.00842 0.699 0.0
C1338 C 0.26483 0.04715 0.67619 0.0
C1339 C 0.25799 0.07068 0.68501 0.0
C1340 C 0.24851 0.06293 0.70091 0.0
C1341 C 0.2458 0.03211 0.70785 0.0
C1342 C 0.25926 0.10249 0.67744 0.0
C1343 C 0.2289 0.10658 0.67854 0.0
C1344 C 0.28924 0.12759 0.66852 0.0
C1345 C 0.32318 0.12648 0.66788 0.0
C1346 C 0.34058 0.12604 0.68179 0.0
C1347 C 0.37264 0.12521 0.68113 0.0
C1348 C 0.38775 0.12512 0.66662 0.0
C1349 C 0.37079 0.12576 0.65274 0.0
C1350 C 0.33868 0.12652 0.65334 0.0
C1351 C 0.25635 0.2463 0.65699 0.0
C1352 C 0.25428 0.24872 0.64058 0.0
C1353 C 0.25797 0.21757 0.66378 0.0
C1354 C 0.25797 0.19091 0.65431 0.0
C1355 C 0.25715 0.19373 0.63792 0.0
C1356 C 0.25497 0.22227 0.6311 0.0
C1357 C 0.25719 0.15934 0.6617 0.0
C1358 C 0.28757 0.15543 0.66058 0.0
C1359 C 0.22747 0.13464 0.67077 0.0
C1360 C 0.19447 0.1373 0.67211 0.0
C1361 C 0.17559 0.13716 0.6586 0.0
C1362 C 0.14491 0.14036 0.65994 0.0
C1363 C 0.13265 0.14344 0.67473 0.0
C1364 C 0.15099 0.14319 0.68822 0.0
C1365 C 0.18173 0.14005 0.68695 0.0
H1366 H 0.1089 0.14595 0.67574 0.0
H1367 H 0.4127 0.12473 0.66613 0.0
loop_
_geom_bond_atom_site_label_1
_geom_bond_atom_site_label_2
_geom_bond_distance
_geom_bond_site_symmetry_2
_ccdc_geom_bond_type
O0 Cd1 2.223 . S
O0 C8 1.315 . S
Cd1 O0 2.223 . S
Cd1 O4 2.297 . S
Cd1 O5 2.439 . S
Cd1 O11 2.240 . S
Cd2 O3 2.240 . S
Cd2 O10 2.223 . S
Cd2 O12 2.297 . S
Cd2 O13 2.439 . S
O3 Cd2 2.240 . S
O3 C8 1.279 . S
O4 Cd1 2.297 . S
O4 C6 1.247 . S
O5 Cd1 2.439 . S
O5 C6 1.208 . S
C6 O4 1.247 . S
C6 O5 1.208 . S
C7 O12 1.247 . S
C7 O13 1.208 . S
C8 O0 1.315 . S
C8 O3 1.279 . S
C9 O10 1.315 . S
C9 O11 1.279 . S
O10 Cd2 2.223 . S
O10 C9 1.315 . S
O11 Cd1 2.240 . S
O11 C9 1.279 . S
O12 Cd2 2.297 . S
O12 C7 1.247 . S
O13 Cd2 2.439 . S
O13 C7 1.208 . S
O14 Cd15 2.223 . S
O14 C22 1.315 . S
Cd15 O14 2.223 . S
Cd15 O18 2.297 . S
Cd15 O19 2.439 . S
Cd15 O25 2.240 . S
Cd16 O17 2.240 . S
Cd16 O24 2.223 . S
Cd16 O26 2.297 . S
Cd16 O27 2.439 . S
O17 Cd16 2.240 . S
O17 C22 1.279 . S
O18 Cd15 2.297 . S
O18 C20 1.247 . S
O19 Cd15 2.439 . S
O19 C20 1.208 . S
C20 O18 1.247 . S
C20 O19 1.208 . S
C21 O26 1.247 . S
C21 O27 1.208 . S
C22 O14 1.315 . S
C22 O17 1.279 . S
C23 O24 1.315 . S
C23 O25 1.279 . S
O24 Cd16 2.223 . S
O24 C23 1.315 . S
O25 Cd15 2.240 . S
O25 C23 1.279 . S
O26 Cd16 2.297 . S
O26 C21 1.247 . S
O27 Cd16 2.439 . S
O27 C21 1.208 . S
O28 Cd29 2.223 . S
O28 C36 1.315 . S
Cd29 O28 2.223 . S
Cd29 O32 2.297 . S
Cd29 O33 2.439 . S
Cd29 O39 2.240 . S
Cd30 O31 2.240 . S
Cd30 O38 2.223 . S
Cd30 O40 2.297 . S
Cd30 O41 2.439 . S
O31 Cd30 2.240 . S
O31 C36 1.279 . S
O32 Cd29 2.297 . S
O32 C34 1.247 . S
O33 Cd29 2.439 . S
O33 C34 1.208 . S
C34 O32 1.247 . S
C34 O33 1.208 . S
C35 O40 1.247 . S
C35 O41 1.208 . S
C36 O28 1.315 . S
C36 O31 1.279 . S
C37 O38 1.315 . S
C37 O39 1.279 . S
O38 Cd30 2.223 . S
O38 C37 1.315 . S
O39 Cd29 2.240 . S
O39 C37 1.279 . S
O40 Cd30 2.297 . S
O40 C35 1.247 . S
O41 Cd30 2.439 . S
O41 C35 1.208 . S
O42 Cd43 2.223 . S
O42 C50 1.315 . S
Cd43 O42 2.223 . S
Cd43 O46 2.297 . S
Cd43 O47 2.439 . S
Cd43 O53 2.240 . S
Cd44 O45 2.240 . S
Cd44 O52 2.223 . S
Cd44 O54 2.297 . S
Cd44 O55 2.439 . S
O45 Cd44 2.240 . S
O45 C50 1.279 . S
O46 Cd43 2.297 . S
O46 C48 1.247 . S
O47 Cd43 2.439 . S
O47 C48 1.208 . S
C48 O46 1.247 . S
C48 O47 1.208 . S
C49 O54 1.247 . S
C49 O55 1.208 . S
C50 O42 1.315 . S
C50 O45 1.279 . S
C51 O52 1.315 . S
C51 O53 1.279 . S
O52 Cd44 2.223 . S
O52 C51 1.315 . S
O53 Cd43 2.240 . S
O53 C51 1.279 . S
O54 Cd44 2.297 . S
O54 C49 1.247 . S
O55 Cd44 2.439 . S
O55 C49 1.208 . S
O56 Cd57 2.223 . S
O56 C64 1.315 . S
Cd57 O56 2.223 . S
Cd57 O60 2.297 . S
Cd57 O61 2.439 . S
Cd57 O67 2.240 . S
Cd58 O59 2.240 . S
Cd58 O66 2.223 . S
Cd58 O68 2.297 . S
Cd58 O69 2.439 . S
O59 Cd58 2.240 . S
O59 C64 1.279 . S
O60 Cd57 2.297 . S
O60 C62 1.247 . S
O61 Cd57 2.439 . S
O61 C62 1.208 . S
C62 O60 1.247 . S
C62 O61 1.208 . S
C63 O68 1.247 . S
C63 O69 1.208 . S
C64 O56 1.315 . S
C64 O59 1.279 . S
C65 O66 1.315 . S
C65 O67 1.279 . S
O66 Cd58 2.223 . S
O66 C65 1.315 . S
O67 Cd57 2.240 . S
O67 C65 1.279 . S
O68 Cd58 2.297 . S
O68 C63 1.247 . S
O69 Cd58 2.439 . S
O69 C63 1.208 . S
O70 Cd71 2.223 . S
O70 C78 1.315 . S
Cd71 O70 2.223 . S
Cd71 O74 2.297 . S
Cd71 O75 2.439 . S
Cd71 O81 2.240 . S
Cd72 O73 2.240 . S
Cd72 O80 2.223 . S
Cd72 O82 2.297 . S
Cd72 O83 2.439 . S
O73 Cd72 2.240 . S
O73 C78 1.279 . S
O74 Cd71 2.297 . S
O74 C76 1.247 . S
O75 Cd71 2.439 . S
O75 C76 1.208 . S
C76 O74 1.247 . S
C76 O75 1.208 . S
C77 O82 1.247 . S
C77 O83 1.208 . S
C78 O70 1.315 . S
C78 O73 1.279 . S
C79 O80 1.315 . S
C79 O81 1.279 . S
O80 Cd72 2.223 . S
O80 C79 1.315 . S
O81 Cd71 2.240 . S
O81 C79 1.279 . S
O82 Cd72 2.297 . S
O82 C77 1.247 . S
O83 Cd72 2.439 . S
O83 C77 1.208 . S
O84 Cd85 2.223 . S
O84 C92 1.315 . S
Cd85 O84 2.223 . S
Cd85 O88 2.297 . S
Cd85 O89 2.439 . S
Cd85 O95 2.240 . S
Cd86 O87 2.240 . S
Cd86 O94 2.223 . S
Cd86 O96 2.297 . S
Cd86 O97 2.439 . S
O87 Cd86 2.240 . S
O87 C92 1.279 . S
O88 Cd85 2.297 . S
O88 C90 1.247 . S
O89 Cd85 2.439 . S
O89 C90 1.208 . S
C90 O88 1.247 . S
C90 O89 1.208 . S
C91 O96 1.247 . S
C91 O97 1.208 . S
C92 O84 1.315 . S
C92 O87 1.279 . S
C93 O94 1.315 . S
C93 O95 1.279 . S
O94 Cd86 2.223 . S
O94 C93 1.315 . S
O95 Cd85 2.240 . S
O95 C93 1.279 . S
O96 Cd86 2.297 . S
O96 C91 1.247 . S
O97 Cd86 2.439 . S
O97 C91 1.208 . S
O98 Cd99 2.223 . S
O98 C106 1.315 . S
Cd99 O98 2.223 . S
Cd99 O102 2.297 . S
Cd99 O103 2.439 . S
Cd99 O109 2.240 . S
Cd100 O101 2.240 . S
Cd100 O108 2.223 . S
Cd100 O110 2.297 . S
Cd100 O111 2.439 . S
O101 Cd100 2.240 . S
O101 C106 1.279 . S
O102 Cd99 2.297 . S
O102 C104 1.247 . S
O103 Cd99 2.439 . S
O103 C104 1.208 . S
C104 O102 1.247 . S
C104 O103 1.208 . S
C105 O110 1.247 . S
C105 O111 1.208 . S
C106 O98 1.315 . S
C106 O101 1.279 . S
C107 O108 1.315 . S
C107 O109 1.279 . S
O108 Cd100 2.223 . S
O108 C107 1.315 . S
O109 Cd99 2.240 . S
O109 C107 1.279 . S
O110 Cd100 2.297 . S
O110 C105 1.247 . S
O111 Cd100 2.439 . S
O111 C105 1.208 . S
O112 Cd113 2.223 . S
O112 C120 1.315 . S
Cd113 O112 2.223 . S
Cd113 O116 2.297 . S
Cd113 O117 2.439 . S
Cd113 O123 2.240 . S
Cd114 O115 2.240 . S
Cd114 O122 2.223 . S
Cd114 O124 2.297 . S
Cd114 O125 2.439 . S
O115 Cd114 2.240 . S
O115 C120 1.279 . S
O116 Cd113 2.297 . S
O116 C118 1.247 . S
O117 Cd113 2.439 . S
O117 C118 1.208 . S
C118 O116 1.247 . S
C118 O117 1.208 . S
C119 O124 1.247 . S
C119 O125 1.208 . S
C120 O112 1.315 . S
C120 O115 1.279 . S
C121 O122 1.315 . S
C121 O123 1.279 . S
O122 Cd114 2.223 . S
O122 C121 1.315 . S
O123 Cd113 2.240 . S
O123 C121 1.279 . S
O124 Cd114 2.297 . S
O124 C119 1.247 . S
O125 Cd114 2.439 . S
O125 C119 1.208 . S
O126 Cd127 2.223 . S
O126 C134 1.315 . S
Cd127 O126 2.223 . S
Cd127 O130 2.297 . S
Cd127 O131 2.439 . S
Cd127 O137 2.240 . S
Cd128 O129 2.240 . S
Cd128 O136 2.223 . S
Cd128 O138 2.297 . S
Cd128 O139 2.439 . S
O129 Cd128 2.240 . S
O129 C134 1.279 . S
O130 Cd127 2.297 . S
O130 C132 1.247 . S
O131 Cd127 2.439 . S
O131 C132 1.208 . S
C132 O130 1.247 . S
C132 O131 1.208 . S
C133 O138 1.247 . S
C133 O139 1.208 . S
C134 O126 1.315 . S
C134 O129 1.279 . S
C135 O136 1.315 . S
C135 O137 1.279 . S
O136 Cd128 2.223 . S
O136 C135 1.315 . S
O137 Cd127 2.240 . S
O137 C135 1.279 . S
O138 Cd128 2.297 . S
O138 C133 1.247 . S
O139 Cd128 2.439 . S
O139 C133 1.208 . S
O140 Cd141 2.223 . S
O140 C148 1.315 . S
Cd141 O140 2.223 . S
Cd141 O144 2.297 . S
Cd141 O145 2.439 . S
Cd141 O151 2.240 . S
Cd142 O143 2.240 . S
Cd142 O150 2.223 . S
Cd142 O152 2.297 . S
Cd142 O153 2.439 . S
O143 Cd142 2.240 . S
O143 C148 1.279 . S
O144 Cd141 2.297 . S
O144 C146 1.247 . S
O145 Cd141 2.439 . S
O145 C146 1.208 . S
C146 O144 1.247 . S
C146 O145 1.208 . S
C147 O152 1.247 . S
C147 O153 1.208 . S
C148 O140 1.315 . S
C148 O143 1.279 . S
C149 O150 1.315 . S
C149 O151 1.279 . S
O150 Cd142 2.223 . S
O150 C149 1.315 . S
O151 Cd141 2.240 . S
O151 C149 1.279 . S
O152 Cd142 2.297 . S
O152 C147 1.247 . S
O153 Cd142 2.439 . S
O153 C147 1.208 . S
O154 Cd155 2.223 . S
O154 C162 1.315 . S
Cd155 O154 2.223 . S
Cd155 O158 2.297 . S
Cd155 O159 2.439 . S
Cd155 O165 2.240 . S
Cd156 O157 2.240 . S
Cd156 O164 2.223 . S
Cd156 O166 2.297 . S
Cd156 O167 2.439 . S
O157 Cd156 2.240 . S
O157 C162 1.279 . S
O158 Cd155 2.297 . S
O158 C160 1.247 . S
O159 Cd155 2.439 . S
O159 C160 1.208 . S
C160 O158 1.247 . S
C160 O159 1.208 . S
C161 O166 1.247 . S
C161 O167 1.208 . S
C162 O154 1.315 . S
C162 O157 1.279 . S
C163 O164 1.315 . S
C163 O165 1.279 . S
O164 Cd156 2.223 . S
O164 C163 1.315 . S
O165 Cd155 2.240 . S
O165 C163 1.279 . S
O166 Cd156 2.297 . S
O166 C161 1.247 . S
O167 Cd156 2.439 . S
O167 C161 1.208 . S
H168 C186 0.951 . S
H169 C188 0.951 . S
H170 C190 0.950 . S
H171 C191 0.950 . S
H172 C193 0.950 . S
H173 C196 0.950 . S
H174 C197 0.950 . S
H175 C199 0.950 . S
H176 C200 0.950 . S
H177 C201 0.951 . S
H178 C203 0.951 . S
H179 C205 0.950 . S
H180 C206 0.950 . S
H181 C208 0.950 . S
H182 C211 0.950 . S
H183 C212 0.950 . S
H184 C214 0.950 . S
H185 C215 0.950 . S
C186 H168 0.951 . S
C186 C187 1.366 . S
C186 C188 1.388 . S
C187 C186 1.366 . S
C187 C191 1.385 . S
C188 H169 0.951 . S
C188 C186 1.388 . S
C188 C189 1.366 . S
C189 C188 1.366 . S
C189 C190 1.414 . S
C189 C192 1.499 . S
C190 H170 0.950 . S
C190 C189 1.414 . S
C190 C191 1.374 . S
C191 H171 0.950 . S
C191 C187 1.385 . S
C191 C190 1.374 . S
C192 C189 1.499 . S
C192 C193 1.373 . S
C192 C194 1.389 . S
C193 H172 0.950 . S
C193 C192 1.373 . S
C193 C209 1.377 . S
C194 C192 1.389 . S
C194 C195 1.524 . S
C194 C208 1.377 . S
C195 C194 1.524 . S
C195 C196 1.397 . S
C195 C200 1.363 . S
C196 H173 0.950 . S
C196 C195 1.397 . S
C196 C197 1.334 . S
C197 H174 0.950 . S
C197 C196 1.334 . S
C197 C198 1.287 . S
C198 C197 1.287 . S
C198 C199 1.524 . S
C198 H217 0.913 . S
C199 H175 0.950 . S
C199 C198 1.524 . S
C199 C200 1.415 . S
C200 H176 0.950 . S
C200 C195 1.363 . S
C200 C199 1.415 . S
C201 H177 0.951 . S
C201 C202 1.366 . S
C201 C203 1.388 . S
C202 C201 1.366 . S
C202 C206 1.385 . S
C203 H178 0.951 . S
C203 C201 1.388 . S
C203 C204 1.366 . S
C204 C203 1.366 . S
C204 C205 1.414 . S
C204 C207 1.499 . S
C205 H179 0.950 . S
C205 C204 1.414 . S
C205 C206 1.374 . S
C206 H180 0.950 . S
C206 C202 1.385 . S
C206 C205 1.374 . S
C207 C204 1.499 . S
C207 C208 1.373 . S
C207 C209 1.389 . S
C208 H181 0.950 . S
C208 C194 1.377 . S
C208 C207 1.373 . S
C209 C193 1.377 . S
C209 C207 1.389 . S
C209 C210 1.524 . S
C210 C209 1.524 . S
C210 C211 1.397 . S
C210 C215 1.363 . S
C211 H182 0.950 . S
C211 C210 1.397 . S
C211 C212 1.334 1_554 S
C212 H183 0.950 . S
C212 C211 1.334 1_556 S
C212 C213 1.287 . S
C213 C212 1.287 . S
C213 C214 1.524 . S
C213 H216 0.999 . S
C214 H184 0.950 . S
C214 C213 1.524 . S
C214 C215 1.415 1_556 S
C215 H185 0.950 . S
C215 C210 1.363 . S
C215 C214 1.415 1_554 S
H216 C213 0.999 . S
H217 C198 0.913 . S
H218 C236 0.951 . S
H219 C238 0.951 1_655 S
H220 C240 0.950 . S
H221 C241 0.950 . S
H222 C243 0.950 . S
H223 C246 0.950 . S
H224 C247 0.950 . S
H225 C249 0.950 . S
H226 C250 0.950 . S
H227 C251 0.951 . S
H228 C253 0.951 1_455 S
H229 C255 0.950 . S
H230 C256 0.950 . S
H231 C258 0.950 . S
H232 C261 0.950 . S
H233 C262 0.950 . S
H234 C264 0.950 . S
H235 C265 0.950 . S
C236 H218 0.951 . S
C236 C237 1.366 . S
C236 C238 1.388 . S
C237 C236 1.366 . S
C237 C241 1.385 . S
C238 H219 0.951 1_455 S
C238 C236 1.388 . S
C238 C239 1.366 . S
C239 C238 1.366 . S
C239 C240 1.414 . S
C239 C242 1.499 . S
C240 H220 0.950 . S
C240 C239 1.414 . S
C240 C241 1.374 . S
C241 H221 0.950 . S
C241 C237 1.385 . S
C241 C240 1.374 . S
C242 C239 1.499 . S
C242 C243 1.373 . S
C242 C244 1.389 1_455 S
C243 H222 0.950 . S
C243 C242 1.373 . S
C243 C259 1.377 . S
C244 C242 1.389 1_655 S
C244 C245 1.524 . S
C244 C258 1.377 . S
C245 C244 1.524 . S
C245 C246 1.397 1_655 S
C245 C250 1.363 . S
C246 H223 0.950 . S
C246 C245 1.397 1_455 S
C246 C247 1.334 . S
C247 H224 0.950 . S
C247 C246 1.334 . S
C247 C248 1.290 1_455 S
C248 C247 1.290 1_655 S
C248 C249 1.520 . S
C248 H267 0.909 1_655 S
C249 H225 0.950 . S
C249 C248 1.520 . S
C249 C250 1.415 . S
C250 H226 0.950 . S
C250 C245 1.363 . S
C250 C249 1.415 . S
C251 H227 0.951 . S
C251 C252 1.366 . S
C251 C253 1.388 . S
C252 C251 1.366 . S
C252 C256 1.385 . S
C253 H228 0.951 1_655 S
C253 C251 1.388 . S
C253 C254 1.366 . S
C254 C253 1.366 . S
C254 C255 1.414 . S
C254 C257 1.499 . S
C255 H229 0.950 . S
C255 C254 1.414 . S
C255 C256 1.374 . S
C256 H230 0.950 . S
C256 C252 1.385 . S
C256 C255 1.374 . S
C257 C254 1.499 . S
C257 C258 1.373 . S
C257 C259 1.389 1_655 S
C258 H231 0.950 . S
C258 C244 1.377 . S
C258 C257 1.373 . S
C259 C243 1.377 . S
C259 C257 1.389 1_455 S
C259 C260 1.524 . S
C260 C259 1.524 . S
C260 C261 1.397 1_455 S
C260 C265 1.363 . S
C261 H232 0.950 . S
C261 C260 1.397 1_655 S
C261 C262 1.334 . S
C262 H233 0.950 . S
C262 C261 1.334 . S
C262 C263 1.290 1_655 S
C263 C262 1.290 1_455 S
C263 C264 1.520 . S
C263 H266 1.007 . S
C264 H234 0.950 . S
C264 C263 1.520 . S
C264 C265 1.415 . S
C265 H235 0.950 . S
C265 C260 1.363 . S
C265 C264 1.415 . S
H266 C263 1.007 . S
H267 C248 0.909 1_455 S
H268 C286 0.951 1_545 S
H269 C288 0.951 1_545 S
H270 C290 0.950 . S
H271 C291 0.950 . S
H272 C293 0.950 . S
H273 C296 0.950 1_565 S
H274 C297 0.950 . S
H275 C299 0.950 . S
H276 C300 0.950 . S
H277 C301 0.951 1_565 S
H278 C303 0.951 1_565 S
H279 C305 0.950 . S
H280 C306 0.950 . S
H281 C308 0.950 . S
H282 C311 0.950 1_545 S
H283 C312 0.950 . S
H284 C314 0.950 . S
H285 C315 0.950 . S
C286 H268 0.951 1_565 S
C286 C287 1.366 . S
C286 C288 1.388 . S
C287 C286 1.366 . S
C287 C291 1.385 . S
C288 H269 0.951 1_565 S
C288 C286 1.388 . S
C288 C289 1.366 . S
C289 C288 1.366 . S
C289 C290 1.414 . S
C289 C292 1.499 . S
C290 H270 0.950 . S
C290 C289 1.414 . S
C290 C291 1.374 . S
C291 H271 0.950 . S
C291 C287 1.385 . S
C291 C290 1.374 . S
C292 C289 1.499 . S
C292 C293 1.373 . S
C292 C294 1.389 1_565 S
C293 H272 0.950 . S
C293 C292 1.373 . S
C293 C309 1.377 . S
C294 C292 1.389 1_545 S
C294 C295 1.524 . S
C294 C308 1.377 . S
C295 C294 1.524 . S
C295 C296 1.397 . S
C295 C300 1.363 . S
C296 H273 0.950 1_545 S
C296 C295 1.397 . S
C296 C297 1.334 . S
C297 H274 0.950 . S
C297 C296 1.334 . S
C297 C298 1.287 . S
C298 C297 1.287 . S
C298 C299 1.524 . S
C298 H317 0.913 . S
C299 H275 0.950 . S
C299 C298 1.524 . S
C299 C300 1.415 . S
C300 H276 0.950 . S
C300 C295 1.363 . S
C300 C299 1.415 . S
C301 H277 0.951 1_545 S
C301 C302 1.366 . S
C301 C303 1.388 . S
C302 C301 1.366 . S
C302 C306 1.385 . S
C303 H278 0.951 1_545 S
C303 C301 1.388 . S
C303 C304 1.366 . S
C304 C303 1.366 . S
C304 C305 1.414 . S
C304 C307 1.499 . S
C305 H279 0.950 . S
C305 C304 1.414 . S
C305 C306 1.374 . S
C306 H280 0.950 . S
C306 C302 1.385 . S
C306 C305 1.374 . S
C307 C304 1.499 . S
C307 C308 1.373 . S
C307 C309 1.389 1_545 S
C308 H281 0.950 . S
C308 C294 1.377 . S
C308 C307 1.373 . S
C309 C293 1.377 . S
C309 C307 1.389 1_565 S
C309 C310 1.524 . S
C310 C309 1.524 . S
C310 C311 1.397 . S
C310 C315 1.363 . S
C311 H282 0.950 1_565 S
C311 C310 1.397 . S
C311 C312 1.334 . S
C312 H283 0.950 . S
C312 C311 1.334 . S
C312 C313 1.287 . S
C313 C312 1.287 . S
C313 C314 1.524 . S
C313 H316 0.999 . S
C314 H284 0.950 . S
C314 C313 1.524 . S
C314 C315 1.415 . S
C315 H285 0.950 . S
C315 C310 1.363 . S
C315 C314 1.415 . S
H316 C313 0.999 . S
H317 C298 0.913 . S
H318 C336 0.951 . S
H319 C338 0.951 . S
H320 C340 0.950 . S
H321 C341 0.950 . S
H322 C343 0.950 . S
H323 C346 0.950 . S
H324 C347 0.950 . S
H325 C349 0.950 . S
H326 C350 0.950 . S
H327 C351 0.951 . S
H328 C353 0.951 . S
H329 C355 0.950 . S
H330 C356 0.950 . S
H331 C358 0.950 . S
H332 C361 0.950 . S
H333 C362 0.950 . S
H334 C364 0.950 . S
H335 C365 0.950 . S
C336 H318 0.951 . S
C336 C337 1.366 . S
C336 C338 1.388 . S
C337 C336 1.366 . S
C337 C341 1.385 . S
C338 H319 0.951 . S
C338 C336 1.388 . S
C338 C339 1.366 . S
C339 C338 1.366 . S
C339 C340 1.414 . S
C339 C342 1.499 . S
C340 H320 0.950 . S
C340 C339 1.414 . S
C340 C341 1.374 . S
C341 H321 0.950 . S
C341 C337 1.385 . S
C341 C340 1.374 . S
C342 C339 1.499 . S
C342 C343 1.373 . S
C342 C344 1.389 . S
C343 H322 0.950 . S
C343 C342 1.373 . S
C343 C359 1.377 . S
C344 C342 1.389 . S
C344 C345 1.524 . S
C344 C358 1.377 . S
C345 C344 1.524 . S
C345 C346 1.397 . S
C345 C350 1.363 . S
C346 H323 0.950 . S
C346 C345 1.397 . S
C346 C347 1.334 . S
C347 H324 0.950 . S
C347 C346 1.334 . S
C347 C348 1.287 . S
C348 C347 1.287 . S
C348 C349 1.524 . S
C348 H367 0.913 . S
C349 H325 0.950 . S
C349 C348 1.524 . S
C349 C350 1.415 . S
C350 H326 0.950 . S
C350 C345 1.363 . S
C350 C349 1.415 . S
C351 H327 0.951 . S
C351 C352 1.366 . S
C351 C353 1.388 . S
C352 C351 1.366 . S
C352 C356 1.385 . S
C353 H328 0.951 . S
C353 C351 1.388 . S
C353 C354 1.366 . S
C354 C353 1.366 . S
C354 C355 1.414 . S
C354 C357 1.499 . S
C355 H329 0.950 . S
C355 C354 1.414 . S
C355 C356 1.374 . S
C356 H330 0.950 . S
C356 C352 1.385 . S
C356 C355 1.374 . S
C357 C354 1.499 . S
C357 C358 1.373 . S
C357 C359 1.389 . S
C358 H331 0.950 . S
C358 C344 1.377 . S
C358 C357 1.373 . S
C359 C343 1.377 . S
C359 C357 1.389 . S
C359 C360 1.524 . S
C360 C359 1.524 . S
C360 C361 1.397 . S
C360 C365 1.363 . S
C361 H332 0.950 . S
C361 C360 1.397 . S
C361 C362 1.334 . S
C362 H333 0.950 . S
C362 C361 1.334 . S
C362 C363 1.287 . S
C363 C362 1.287 . S
C363 C364 1.524 . S
C363 H366 0.999 . S
C364 H334 0.950 . S
C364 C363 1.524 . S
C364 C365 1.415 . S
C365 H335 0.950 . S
C365 C360 1.363 . S
C365 C364 1.415 . S
H366 C363 0.999 . S
H367 C348 0.913 . S
H368 C386 0.951 . S
H369 C388 0.951 . S
H370 C390 0.950 1_455 S
H371 C391 0.950 . S
H372 C393 0.950 . S
H373 C396 0.950 . S
H374 C397 0.950 . S
H375 C399 0.950 . S
H376 C400 0.950 . S
H377 C401 0.951 . S
H378 C403 0.951 . S
H379 C405 0.950 1_655 S
H380 C406 0.950 . S
H381 C408 0.950 . S
H382 C411 0.950 . S
H383 C412 0.906 1_554 S
H384 C414 0.950 . S
H385 C415 0.950 . S
C386 H368 0.951 . S
C386 C387 1.366 . S
C386 C388 1.388 . S
C387 C386 1.366 . S
C387 C391 1.385 . S
C388 H369 0.951 . S
C388 C386 1.388 . S
C388 C389 1.366 . S
C389 C388 1.366 . S
C389 C390 1.414 . S
C389 C392 1.499 . S
C390 H370 0.950 1_655 S
C390 C389 1.414 . S
C390 C391 1.374 . S
C391 H371 0.950 . S
C391 C387 1.385 . S
C391 C390 1.374 . S
C392 C389 1.499 . S
C392 C393 1.373 1_655 S
C392 C394 1.389 . S
C393 H372 0.950 . S
C393 C392 1.373 1_455 S
C393 C409 1.377 . S
C394 C392 1.389 . S
C394 C395 1.524 . S
C394 C408 1.377 . S
C395 C394 1.524 . S
C395 C396 1.397 . S
C395 C400 1.363 . S
C396 H373 0.950 . S
C396 C395 1.397 . S
C396 C397 1.334 . S
C397 H374 0.950 . S
C397 C396 1.334 . S
C397 C398 1.287 . S
C398 C397 1.287 . S
C398 C399 1.524 . S
C398 H417 0.913 . S
C399 H375 0.950 . S
C399 C398 1.524 . S
C399 C400 1.415 . S
C400 H376 0.950 . S
C400 C395 1.363 . S
C400 C399 1.415 . S
C401 H377 0.951 . S
C401 C402 1.366 . S
C401 C403 1.388 . S
C402 C401 1.366 . S
C402 C406 1.385 . S
C403 H378 0.951 . S
C403 C401 1.388 . S
C403 C404 1.366 . S
C404 C403 1.366 . S
C404 C405 1.414 . S
C404 C407 1.499 . S
C405 H379 0.950 1_455 S
C405 C404 1.414 . S
C405 C406 1.374 . S
C406 H380 0.950 . S
C406 C402 1.385 . S
C406 C405 1.374 . S
C407 C404 1.499 . S
C407 C408 1.373 1_455 S
C407 C409 1.389 . S
C408 H381 0.950 . S
C408 C394 1.377 . S
C408 C407 1.373 1_655 S
C409 C393 1.377 . S
C409 C407 1.389 . S
C409 C410 1.524 . S
C410 C409 1.524 . S
C410 C411 1.397 . S
C410 C415 1.363 . S
C411 H382 0.950 . S
C411 C410 1.397 . S
C411 C412 1.334 . S
C412 H383 0.906 1_556 S
C412 C411 1.334 . S
C412 C413 1.287 . S
C413 C412 1.287 . S
C413 C414 1.524 . S
C413 H416 0.999 . S
C414 H384 0.950 . S
C414 C413 1.524 . S
C414 C415 1.415 . S
C415 H385 0.950 . S
C415 C410 1.363 . S
C415 C414 1.415 . S
H416 C413 0.999 . S
H417 C398 0.913 . S
H418 C436 0.951 . S
H419 C438 0.951 . S
H420 C440 0.950 . S
H421 C441 0.950 . S
H422 C443 0.950 . S
H423 C446 0.950 . S
H424 C447 0.950 . S
H425 C449 0.950 . S
H426 C450 0.950 . S
H427 C451 0.951 . S
H428 C453 0.951 . S
H429 C455 0.950 . S
H430 C456 0.950 . S
H431 C458 0.950 . S
H432 C461 0.950 . S
H433 C462 0.950 . S
H434 C464 0.950 . S
H435 C465 0.950 . S
C436 H418 0.951 . S
C436 C437 1.366 . S
C436 C438 1.388 . S
C437 C436 1.366 . S
C437 C441 1.385 . S
C438 H419 0.951 . S
C438 C436 1.388 . S
C438 C439 1.366 . S
C439 C438 1.366 . S
C439 C440 1.414 . S
C439 C442 1.499 . S
C440 H420 0.950 . S
C440 C439 1.414 . S
C440 C441 1.374 . S
C441 H421 0.950 . S
C441 C437 1.385 . S
C441 C440 1.374 . S
C442 C439 1.499 . S
C442 C443 1.373 1_545 S
C442 C444 1.389 . S
C443 H422 0.950 . S
C443 C442 1.373 1_565 S
C443 C459 1.377 . S
C444 C442 1.389 . S
C444 C445 1.524 . S
C444 C458 1.377 . S
C445 C444 1.524 . S
C445 C446 1.397 . S
C445 C450 1.363 . S
C446 H423 0.950 . S
C446 C445 1.397 . S
C446 C447 1.334 . S
C447 H424 0.950 . S
C447 C446 1.334 . S
C447 C448 1.287 . S
C448 C447 1.287 . S
C448 C449 1.524 . S
C448 H467 0.913 . S
C449 H425 0.950 . S
C449 C448 1.524 . S
C449 C450 1.415 . S
C450 H426 0.950 . S
C450 C445 1.363 . S
C450 C449 1.415 . S
C451 H427 0.951 . S
C451 C452 1.366 . S
C451 C453 1.388 . S
C452 C451 1.366 . S
C452 C456 1.385 . S
C453 H428 0.951 . S
C453 C451 1.388 . S
C453 C454 1.366 . S
C454 C453 1.366 . S
C454 C455 1.414 . S
C454 C457 1.499 . S
C455 H429 0.950 . S
C455 C454 1.414 . S
C455 C456 1.374 . S
C456 H430 0.950 . S
C456 C452 1.385 . S
C456 C455 1.374 . S
C457 C454 1.499 . S
C457 C458 1.373 1_565 S
C457 C459 1.389 . S
C458 H431 0.950 . S
C458 C444 1.377 . S
C458 C457 1.373 1_545 S
C459 C443 1.377 . S
C459 C457 1.389 . S
C459 C460 1.524 . S
C460 C459 1.524 . S
C460 C461 1.397 . S
C460 C465 1.363 . S
C461 H432 0.950 . S
C461 C460 1.397 . S
C461 C462 1.334 . S
C462 H433 0.950 . S
C462 C461 1.334 . S
C462 C463 1.287 . S
C463 C462 1.287 . S
C463 C464 1.524 . S
C463 H466 0.999 . S
C464 H434 0.950 . S
C464 C463 1.524 . S
C464 C465 1.415 . S
C465 H435 0.950 . S
C465 C460 1.363 . S
C465 C464 1.415 . S
H466 C463 0.999 . S
H467 C448 0.913 . S
H468 C486 0.951 . S
H469 C488 0.951 . S
H470 C490 0.950 . S
H471 C491 0.950 . S
H472 C493 0.950 . S
H473 C496 0.950 . S
H474 C497 0.950 . S
H475 C499 0.950 . S
H476 C500 0.950 . S
H477 C501 0.951 . S
H478 C503 0.951 . S
H479 C505 0.950 . S
H480 C506 0.950 . S
H481 C508 0.950 . S
H482 C511 0.950 . S
H483 C512 0.950 . S
H484 C514 0.950 . S
H485 C515 0.950 . S
C486 H468 0.951 . S
C486 C487 1.366 . S
C486 C488 1.388 . S
C487 C486 1.366 . S
C487 C491 1.385 . S
C488 H469 0.951 . S
C488 C486 1.388 . S
C488 C489 1.366 . S
C489 C488 1.366 . S
C489 C490 1.414 . S
C489 C492 1.499 . S
C490 H470 0.950 . S
C490 C489 1.414 . S
C490 C491 1.374 . S
C491 H471 0.950 . S
C491 C487 1.385 . S
C491 C490 1.374 . S
C492 C489 1.499 . S
C492 C493 1.373 . S
C492 C494 1.389 . S
C493 H472 0.950 . S
C493 C492 1.373 . S
C493 C509 1.377 . S
C494 C492 1.389 . S
C494 C495 1.524 . S
C494 C508 1.377 . S
C495 C494 1.524 . S
C495 C496 1.397 . S
C495 C500 1.363 . S
C496 H473 0.950 . S
C496 C495 1.397 . S
C496 C497 1.334 . S
C497 H474 0.950 . S
C497 C496 1.334 . S
C497 C498 1.287 . S
C498 C497 1.287 . S
C498 C499 1.524 . S
C498 H517 0.913 . S
C499 H475 0.950 . S
C499 C498 1.524 . S
C499 C500 1.415 . S
C500 H476 0.950 . S
C500 C495 1.363 . S
C500 C499 1.415 . S
C501 H477 0.951 . S
C501 C502 1.366 . S
C501 C503 1.388 . S
C502 C501 1.366 . S
C502 C506 1.385 . S
C503 H478 0.951 . S
C503 C501 1.388 . S
C503 C504 1.366 . S
C504 C503 1.366 . S
C504 C505 1.414 . S
C504 C507 1.499 . S
C505 H479 0.950 . S
C505 C504 1.414 . S
C505 C506 1.374 . S
C506 H480 0.950 . S
C506 C502 1.385 . S
C506 C505 1.374 . S
C507 C504 1.499 . S
C507 C508 1.373 . S
C507 C509 1.389 . S
C508 H481 0.950 . S
C508 C494 1.377 . S
C508 C507 1.373 . S
C509 C493 1.377 . S
C509 C507 1.389 . S
C509 C510 1.524 . S
C510 C509 1.524 . S
C510 C511 1.397 . S
C510 C515 1.363 . S
C511 H482 0.950 . S
C511 C510 1.397 . S
C511 C512 1.334 . S
C512 H483 0.950 . S
C512 C511 1.334 . S
C512 C513 1.287 . S
C513 C512 1.287 . S
C513 C514 1.524 . S
C513 H516 0.999 . S
C514 H484 0.950 . S
C514 C513 1.524 . S
C514 C515 1.415 . S
C515 H485 0.950 . S
C515 C510 1.363 . S
C515 C514 1.415 . S
H516 C513 0.999 . S
H517 C498 0.913 . S
H518 C536 0.951 . S
H519 C538 0.951 . S
H520 C540 0.950 . S
H521 C541 0.950 . S
H522 C543 0.950 . S
H523 C546 0.950 . S
H524 C547 0.950 . S
H525 C549 0.950 . S
H526 C550 0.950 . S
H527 C551 0.951 . S
H528 C553 0.951 . S
H529 C555 0.950 . S
H530 C556 0.950 . S
H531 C558 0.950 . S
H532 C561 0.950 . S
H533 C562 0.950 . S
H534 C564 0.950 . S
H535 C565 0.950 . S
C536 H518 0.951 . S
C536 C537 1.366 . S
C536 C538 1.388 . S
C537 C536 1.366 . S
C537 C541 1.385 . S
C538 H519 0.951 . S
C538 C536 1.388 . S
C538 C539 1.366 . S
C539 C538 1.366 . S
C539 C540 1.414 . S
C539 C542 1.499 . S
C540 H520 0.950 . S
C540 C539 1.414 . S
C540 C541 1.374 . S
C541 H521 0.950 . S
C541 C537 1.385 . S
C541 C540 1.374 . S
C542 C539 1.499 . S
C542 C543 1.373 . S
C542 C544 1.389 . S
C543 H522 0.950 . S
C543 C542 1.373 . S
C543 C559 1.377 . S
C544 C542 1.389 . S
C544 C545 1.524 . S
C544 C558 1.377 . S
C545 C544 1.524 . S
C545 C546 1.397 . S
C545 C550 1.363 . S
C546 H523 0.950 . S
C546 C545 1.397 . S
C546 C547 1.334 . S
C547 H524 0.950 . S
C547 C546 1.334 . S
C547 C548 1.287 . S
C548 C547 1.287 . S
C548 C549 1.524 . S
C548 H567 0.913 1_455 S
C549 H525 0.950 . S
C549 C548 1.524 . S
C549 C550 1.415 . S
C550 H526 0.950 . S
C550 C545 1.363 . S
C550 C549 1.415 . S
C551 H527 0.951 . S
C551 C552 1.366 . S
C551 C553 1.388 . S
C552 C551 1.366 . S
C552 C556 1.385 . S
C553 H528 0.951 . S
C553 C551 1.388 . S
C553 C554 1.366 . S
C554 C553 1.366 . S
C554 C555 1.414 . S
C554 C557 1.499 . S
C555 H529 0.950 . S
C555 C554 1.414 . S
C555 C556 1.374 . S
C556 H530 0.950 . S
C556 C552 1.385 . S
C556 C555 1.374 . S
C557 C554 1.499 . S
C557 C558 1.373 . S
C557 C559 1.389 . S
C558 H531 0.950 . S
C558 C544 1.377 . S
C558 C557 1.373 . S
C559 C543 1.377 . S
C559 C557 1.389 . S
C559 C560 1.524 . S
C560 C559 1.524 . S
C560 C561 1.397 . S
C560 C565 1.363 . S
C561 H532 0.950 . S
C561 C560 1.397 . S
C561 C562 1.334 . S
C562 H533 0.950 . S
C562 C561 1.334 . S
C562 C563 1.287 . S
C563 C562 1.287 . S
C563 C564 1.524 . S
C563 H566 0.999 . S
C564 H534 0.950 . S
C564 C563 1.524 . S
C564 C565 1.415 . S
C565 H535 0.950 . S
C565 C560 1.363 . S
C565 C564 1.415 . S
H566 C563 0.999 . S
H567 C548 0.913 1_655 S
H568 C586 0.951 . S
H569 C588 0.951 . S
H570 C590 0.950 . S
H571 C591 0.950 . S
H572 C593 0.950 . S
H573 C596 0.950 . S
H574 C597 0.950 . S
H575 C599 0.950 . S
H576 C600 0.950 . S
H577 C601 0.951 . S
H578 C603 0.951 . S
H579 C605 0.950 . S
H580 C606 0.950 . S
H581 C608 0.950 . S
H582 C611 0.950 . S
H583 C612 0.950 . S
H584 C614 0.950 . S
H585 C615 0.950 . S
C586 H568 0.951 . S
C586 C587 1.366 . S
C586 C588 1.388 . S
C587 C586 1.366 . S
C587 C591 1.385 . S
C588 H569 0.951 . S
C588 C586 1.388 . S
C588 C589 1.366 . S
C589 C588 1.366 . S
C589 C590 1.414 . S
C589 C592 1.499 . S
C590 H570 0.950 . S
C590 C589 1.414 . S
C590 C591 1.374 . S
C591 H571 0.950 . S
C591 C587 1.385 . S
C591 C590 1.374 . S
C592 C589 1.499 . S
C592 C593 1.373 . S
C592 C594 1.389 . S
C593 H572 0.950 . S
C593 C592 1.373 . S
C593 C609 1.377 . S
C594 C592 1.389 . S
C594 C595 1.524 . S
C594 C608 1.377 . S
C595 C594 1.524 . S
C595 C596 1.397 . S
C595 C600 1.363 . S
C596 H573 0.950 . S
C596 C595 1.397 . S
C596 C597 1.334 . S
C597 H574 0.950 . S
C597 C596 1.334 . S
C597 C598 1.287 . S
C598 C597 1.287 . S
C598 C599 1.524 . S
C598 H617 0.913 . S
C599 H575 0.950 . S
C599 C598 1.524 . S
C599 C600 1.415 . S
C600 H576 0.950 . S
C600 C595 1.363 . S
C600 C599 1.415 . S
C601 H577 0.951 . S
C601 C602 1.366 . S
C601 C603 1.388 . S
C602 C601 1.366 . S
C602 C606 1.385 . S
C603 H578 0.951 . S
C603 C601 1.388 . S
C603 C604 1.366 . S
C604 C603 1.366 . S
C604 C605 1.414 . S
C604 C607 1.499 . S
C605 H579 0.950 . S
C605 C604 1.414 . S
C605 C606 1.374 . S
C606 H580 0.950 . S
C606 C602 1.385 . S
C606 C605 1.374 . S
C607 C604 1.499 . S
C607 C608 1.373 . S
C607 C609 1.389 . S
C608 H581 0.950 . S
C608 C594 1.377 . S
C608 C607 1.373 . S
C609 C593 1.377 . S
C609 C607 1.389 . S
C609 C610 1.524 . S
C610 C609 1.524 . S
C610 C611 1.397 . S
C610 C615 1.363 . S
C611 H582 0.950 . S
C611 C610 1.397 . S
C611 C612 1.334 . S
C612 H583 0.950 . S
C612 C611 1.334 . S
C612 C613 1.287 . S
C613 C612 1.287 . S
C613 C614 1.524 . S
C613 H616 0.999 . S
C614 H584 0.950 . S
C614 C613 1.524 . S
C614 C615 1.415 . S
C615 H585 0.950 . S
C615 C610 1.363 . S
C615 C614 1.415 . S
H616 C613 0.999 . S
H617 C598 0.913 . S
H618 C636 0.951 . S
H619 C638 0.951 . S
H620 C640 0.950 . S
H621 C641 0.950 . S
H622 C643 0.950 . S
H623 C646 0.950 . S
H624 C647 0.950 . S
H625 C649 0.950 . S
H626 C650 0.950 . S
H627 C651 0.951 . S
H628 C653 0.951 . S
H629 C655 0.950 . S
H630 C656 0.950 . S
H631 C658 0.950 . S
H632 C661 0.950 . S
H633 C662 0.950 . S
H634 C664 0.950 . S
H635 C665 0.950 . S
C636 H618 0.951 . S
C636 C637 1.366 . S
C636 C638 1.388 . S
C637 C636 1.366 . S
C637 C641 1.385 . S
C638 H619 0.951 . S
C638 C636 1.388 . S
C638 C639 1.366 . S
C639 C638 1.366 . S
C639 C640 1.414 . S
C639 C642 1.499 . S
C640 H620 0.950 . S
C640 C639 1.414 . S
C640 C641 1.374 . S
C641 H621 0.950 . S
C641 C637 1.385 . S
C641 C640 1.374 . S
C642 C639 1.499 . S
C642 C643 1.373 . S
C642 C644 1.389 . S
C643 H622 0.950 . S
C643 C642 1.373 . S
C643 C659 1.377 . S
C644 C642 1.389 . S
C644 C645 1.524 . S
C644 C658 1.377 . S
C645 C644 1.524 . S
C645 C646 1.397 . S
C645 C650 1.363 . S
C646 H623 0.950 . S
C646 C645 1.397 . S
C646 C647 1.334 . S
C647 H624 0.950 . S
C647 C646 1.334 . S
C647 C648 1.287 . S
C648 C647 1.287 . S
C648 C649 1.524 . S
C648 H667 0.913 . S
C649 H625 0.950 . S
C649 C648 1.524 . S
C649 C650 1.415 . S
C650 H626 0.950 . S
C650 C645 1.363 . S
C650 C649 1.415 . S
C651 H627 0.951 . S
C651 C652 1.366 . S
C651 C653 1.388 . S
C652 C651 1.366 . S
C652 C656 1.385 . S
C653 H628 0.951 . S
C653 C651 1.388 . S
C653 C654 1.366 . S
C654 C653 1.366 . S
C654 C655 1.414 . S
C654 C657 1.499 . S
C655 H629 0.950 . S
C655 C654 1.414 . S
C655 C656 1.374 . S
C656 H630 0.950 . S
C656 C652 1.385 . S
C656 C655 1.374 . S
C657 C654 1.499 . S
C657 C658 1.373 . S
C657 C659 1.389 . S
C658 H631 0.950 . S
C658 C644 1.377 . S
C658 C657 1.373 . S
C659 C643 1.377 . S
C659 C657 1.389 . S
C659 C660 1.524 . S
C660 C659 1.524 . S
C660 C661 1.397 . S
C660 C665 1.363 . S
C661 H632 0.950 . S
C661 C660 1.397 . S
C661 C662 1.334 . S
C662 H633 0.950 . S
C662 C661 1.334 . S
C662 C663 1.287 . S
C663 C662 1.287 . S
C663 C664 1.524 . S
C663 H666 0.999 . S
C664 H634 0.950 . S
C664 C663 1.524 . S
C664 C665 1.415 . S
C665 H635 0.950 . S
C665 C660 1.363 . S
C665 C664 1.415 . S
H666 C663 0.999 . S
H667 C648 0.913 . S
H668 C686 0.951 . S
H669 C688 0.951 . S
H670 C690 0.950 . S
H671 C691 0.950 . S
H672 C693 0.950 . S
H673 C696 0.950 . S
H674 C697 0.950 . S
H675 C699 0.950 . S
H676 C700 0.950 . S
H677 C701 0.951 . S
H678 C703 0.951 . S
H679 C705 0.950 . S
H680 C706 0.950 . S
H681 C708 0.950 . S
H682 C711 0.950 . S
H683 C712 0.950 . S
H684 C714 0.950 . S
H685 C715 0.950 . S
C686 H668 0.951 . S
C686 C687 1.366 . S
C686 C688 1.388 . S
C687 C686 1.366 . S
C687 C691 1.385 . S
C688 H669 0.951 . S
C688 C686 1.388 . S
C688 C689 1.366 . S
C689 C688 1.366 . S
C689 C690 1.414 . S
C689 C692 1.499 . S
C690 H670 0.950 . S
C690 C689 1.414 . S
C690 C691 1.374 . S
C691 H671 0.950 . S
C691 C687 1.385 . S
C691 C690 1.374 . S
C692 C689 1.499 . S
C692 C693 1.373 . S
C692 C694 1.389 . S
C693 H672 0.950 . S
C693 C692 1.373 . S
C693 C709 1.377 . S
C694 C692 1.389 . S
C694 C695 1.524 . S
C694 C708 1.377 . S
C695 C694 1.524 . S
C695 C696 1.397 . S
C695 C700 1.363 . S
C696 H673 0.950 . S
C696 C695 1.397 . S
C696 C697 1.334 . S
C697 H674 0.950 . S
C697 C696 1.334 . S
C697 C698 1.287 . S
C698 C697 1.287 . S
C698 C699 1.524 . S
C698 H717 0.913 . S
C699 H675 0.950 . S
C699 C698 1.524 . S
C699 C700 1.415 . S
C700 H676 0.950 . S
C700 C695 1.363 . S
C700 C699 1.415 . S
C701 H677 0.951 . S
C701 C702 1.366 . S
C701 C703 1.388 . S
C702 C701 1.366 . S
C702 C706 1.385 . S
C703 H678 0.951 . S
C703 C701 1.388 . S
C703 C704 1.366 . S
C704 C703 1.366 . S
C704 C705 1.414 . S
C704 C707 1.499 . S
C705 H679 0.950 . S
C705 C704 1.414 . S
C705 C706 1.374 . S
C706 H680 0.950 . S
C706 C702 1.385 . S
C706 C705 1.374 . S
C707 C704 1.499 . S
C707 C708 1.373 . S
C707 C709 1.389 . S
C708 H681 0.950 . S
C708 C694 1.377 . S
C708 C707 1.373 . S
C709 C693 1.377 . S
C709 C707 1.389 . S
C709 C710 1.524 . S
C710 C709 1.524 . S
C710 C711 1.397 . S
C710 C715 1.363 . S
C711 H682 0.950 . S
C711 C710 1.397 . S
C711 C712 1.334 . S
C712 H683 0.950 . S
C712 C711 1.334 . S
C712 C713 1.287 . S
C713 C712 1.287 . S
C713 C714 1.524 . S
C713 H716 0.999 . S
C714 H684 0.950 . S
C714 C713 1.524 . S
C714 C715 1.415 . S
C715 H685 0.950 . S
C715 C710 1.363 . S
C715 C714 1.415 . S
H716 C713 0.999 . S
H717 C698 0.913 . S
H718 C736 0.951 . S
H719 C738 0.951 . S
H720 C740 0.950 . S
H721 C741 0.950 . S
H722 C743 0.950 . S
H723 C746 0.950 . S
H724 C747 0.950 . S
H725 C749 0.950 . S
H726 C750 0.950 . S
H727 C751 0.951 . S
H728 C753 0.951 . S
H729 C755 0.950 . S
H730 C756 0.950 . S
H731 C758 0.950 . S
H732 C761 0.950 . S
H733 C762 0.950 . S
H734 C764 0.950 . S
H735 C765 0.950 . S
C736 H718 0.951 . S
C736 C737 1.366 . S
C736 C738 1.388 . S
C737 C736 1.366 . S
C737 C741 1.385 . S
C738 H719 0.951 . S
C738 C736 1.388 . S
C738 C739 1.366 . S
C739 C738 1.366 . S
C739 C740 1.414 . S
C739 C742 1.499 . S
C740 H720 0.950 . S
C740 C739 1.414 . S
C740 C741 1.374 . S
C741 H721 0.950 . S
C741 C737 1.385 . S
C741 C740 1.374 . S
C742 C739 1.499 . S
C742 C743 1.373 . S
C742 C744 1.389 . S
C743 H722 0.950 . S
C743 C742 1.373 . S
C743 C759 1.377 . S
C744 C742 1.389 . S
C744 C745 1.524 . S
C744 C758 1.377 . S
C745 C744 1.524 . S
C745 C746 1.397 . S
C745 C750 1.363 . S
C746 H723 0.950 . S
C746 C745 1.397 . S
C746 C747 1.334 . S
C747 H724 0.950 . S
C747 C746 1.334 . S
C747 C748 1.287 . S
C748 C747 1.287 . S
C748 C749 1.524 . S
C748 H767 0.913 . S
C749 H725 0.950 . S
C749 C748 1.524 . S
C749 C750 1.415 . S
C750 H726 0.950 . S
C750 C745 1.363 . S
C750 C749 1.415 . S
C751 H727 0.951 . S
C751 C752 1.366 . S
C751 C753 1.388 . S
C752 C751 1.366 . S
C752 C756 1.385 . S
C753 H728 0.951 . S
C753 C751 1.388 . S
C753 C754 1.366 . S
C754 C753 1.366 . S
C754 C755 1.414 . S
C754 C757 1.499 . S
C755 H729 0.950 . S
C755 C754 1.414 . S
C755 C756 1.374 . S
C756 H730 0.950 . S
C756 C752 1.385 . S
C756 C755 1.374 . S
C757 C754 1.499 . S
C757 C758 1.373 . S
C757 C759 1.389 . S
C758 H731 0.950 . S
C758 C744 1.377 . S
C758 C757 1.373 . S
C759 C743 1.377 . S
C759 C757 1.389 . S
C759 C760 1.524 . S
C760 C759 1.524 . S
C760 C761 1.397 . S
C760 C765 1.363 . S
C761 H732 0.950 . S
C761 C760 1.397 . S
C761 C762 1.334 . S
C762 H733 0.950 . S
C762 C761 1.334 . S
C762 C763 1.287 . S
C763 C762 1.287 . S
C763 C764 1.524 . S
C763 H766 0.999 . S
C764 H734 0.950 . S
C764 C763 1.524 . S
C764 C765 1.415 . S
C765 H735 0.950 . S
C765 C760 1.363 . S
C765 C764 1.415 . S
H766 C763 0.999 . S
H767 C748 0.913 . S
H768 C786 0.951 . S
H769 C788 0.951 1_554 S
H770 C790 0.950 . S
H771 C791 0.950 . S
H772 C793 0.950 . S
H773 C796 0.950 1_556 S
H774 C797 0.950 . S
H775 C799 0.950 . S
H776 C800 0.950 . S
H777 C801 0.951 . S
H778 C803 0.951 1_556 S
H779 C805 0.950 . S
H780 C806 0.950 . S
H781 C808 0.950 . S
H782 C811 0.950 1_554 S
H783 C812 0.950 . S
H784 C814 0.950 . S
H785 C815 0.950 . S
C786 H768 0.951 . S
C786 C787 1.366 . S
C786 C788 1.388 . S
C787 C786 1.366 . S
C787 C791 1.385 . S
C788 H769 0.951 1_556 S
C788 C786 1.388 . S
C788 C789 1.366 . S
C789 C788 1.366 . S
C789 C790 1.414 . S
C789 C792 1.499 . S
C790 H770 0.950 . S
C790 C789 1.414 . S
C790 C791 1.374 . S
C791 H771 0.950 . S
C791 C787 1.385 . S
C791 C790 1.374 . S
C792 C789 1.499 . S
C792 C793 1.373 . S
C792 C794 1.389 1_556 S
C793 H772 0.950 . S
C793 C792 1.373 . S
C793 C809 1.377 1_565 S
C794 C792 1.389 1_554 S
C794 C795 1.524 . S
C794 C808 1.377 1_565 S
C795 C794 1.524 . S
C795 C796 1.397 . S
C795 C800 1.363 . S
C796 H773 0.950 1_554 S
C796 C795 1.397 . S
C796 C797 1.334 . S
C797 H774 0.950 . S
C797 C796 1.334 . S
C797 C798 1.287 . S
C798 C797 1.287 . S
C798 C799 1.524 . S
C798 H817 0.913 . S
C799 H775 0.950 . S
C799 C798 1.524 . S
C799 C800 1.415 . S
C800 H776 0.950 . S
C800 C795 1.363 . S
C800 C799 1.415 . S
C801 H777 0.951 . S
C801 C802 1.366 . S
C801 C803 1.388 . S
C802 C801 1.366 . S
C802 C806 1.385 . S
C803 H778 0.951 1_554 S
C803 C801 1.388 . S
C803 C804 1.366 . S
C804 C803 1.366 . S
C804 C805 1.414 . S
C804 C807 1.499 . S
C805 H779 0.950 . S
C805 C804 1.414 . S
C805 C806 1.374 . S
C806 H780 0.950 . S
C806 C802 1.385 . S
C806 C805 1.374 . S
C807 C804 1.499 . S
C807 C808 1.373 . S
C807 C809 1.389 1_554 S
C808 H781 0.950 . S
C808 C794 1.377 1_545 S
C808 C807 1.373 . S
C809 C793 1.377 1_545 S
C809 C807 1.389 1_556 S
C809 C810 1.524 . S
C810 C809 1.524 . S
C810 C811 1.397 . S
C810 C815 1.363 . S
C811 H782 0.950 1_556 S
C811 C810 1.397 . S
C811 C812 1.334 . S
C812 H783 0.950 . S
C812 C811 1.334 . S
C812 C813 1.287 . S
C813 C812 1.287 . S
C813 C814 1.524 . S
C813 H816 0.999 . S
C814 H784 0.950 . S
C814 C813 1.524 . S
C814 C815 1.415 . S
C815 H785 0.950 . S
C815 C810 1.363 . S
C815 C814 1.415 . S
H816 C813 0.999 . S
H817 C798 0.913 . S
H818 C836 0.951 . S
H819 C838 0.951 . S
H820 C840 0.950 . S
H821 C841 0.950 . S
H822 C843 0.950 . S
H823 C846 0.950 . S
H824 C847 0.950 . S
H825 C849 0.950 . S
H826 C850 0.950 . S
H827 C851 0.951 . S
H828 C853 0.951 . S
H829 C855 0.950 . S
H830 C856 0.950 . S
H831 C858 0.950 . S
H832 C861 0.950 . S
H833 C862 0.950 . S
H834 C864 0.950 . S
H835 C865 0.950 . S
C836 H818 0.951 . S
C836 C837 1.366 . S
C836 C838 1.388 . S
C837 C836 1.366 . S
C837 C841 1.385 . S
C838 H819 0.951 . S
C838 C836 1.388 . S
C838 C839 1.366 . S
C839 C838 1.366 . S
C839 C840 1.414 . S
C839 C842 1.499 . S
C840 H820 0.950 . S
C840 C839 1.414 . S
C840 C841 1.374 . S
C841 H821 0.950 . S
C841 C837 1.385 . S
C841 C840 1.374 . S
C842 C839 1.499 . S
C842 C843 1.373 . S
C842 C844 1.389 . S
C843 H822 0.950 . S
C843 C842 1.373 . S
C843 C859 1.377 . S
C844 C842 1.389 . S
C844 C845 1.524 . S
C844 C858 1.377 . S
C845 C844 1.524 . S
C845 C846 1.397 . S
C845 C850 1.363 . S
C846 H823 0.950 . S
C846 C845 1.397 . S
C846 C847 1.334 . S
C847 H824 0.950 . S
C847 C846 1.334 . S
C847 C848 1.287 . S
C848 C847 1.287 . S
C848 C849 1.524 . S
C848 H867 0.913 . S
C849 H825 0.950 . S
C849 C848 1.524 . S
C849 C850 1.415 . S
C850 H826 0.950 . S
C850 C845 1.363 . S
C850 C849 1.415 . S
C851 H827 0.951 . S
C851 C852 1.366 . S
C851 C853 1.388 . S
C852 C851 1.366 . S
C852 C856 1.385 . S
C853 H828 0.951 . S
C853 C851 1.388 . S
C853 C854 1.366 . S
C854 C853 1.366 . S
C854 C855 1.414 . S
C854 C857 1.499 . S
C855 H829 0.950 . S
C855 C854 1.414 . S
C855 C856 1.374 . S
C856 H830 0.950 . S
C856 C852 1.385 . S
C856 C855 1.374 . S
C857 C854 1.499 . S
C857 C858 1.373 . S
C857 C859 1.389 . S
C858 H831 0.950 . S
C858 C844 1.377 . S
C858 C857 1.373 . S
C859 C843 1.377 . S
C859 C857 1.389 . S
C859 C860 1.524 . S
C860 C859 1.524 . S
C860 C861 1.397 . S
C860 C865 1.363 . S
C861 H832 0.950 . S
C861 C860 1.397 . S
C861 C862 1.334 . S
C862 H833 0.950 . S
C862 C861 1.334 . S
C862 C863 1.287 . S
C863 C862 1.287 . S
C863 C864 1.524 . S
C863 H866 0.999 . S
C864 H834 0.950 . S
C864 C863 1.524 . S
C864 C865 1.415 . S
C865 H835 0.950 . S
C865 C860 1.363 . S
C865 C864 1.415 . S
H866 C863 0.999 . S
H867 C848 0.913 . S
H868 C886 0.951 . S
H869 C888 0.951 . S
H870 C890 0.950 . S
H871 C891 0.950 . S
H872 C893 0.950 . S
H873 C896 0.950 . S
H874 C897 0.950 . S
H875 C899 0.950 . S
H876 C900 0.950 . S
H877 C901 0.951 . S
H878 C903 0.951 . S
H879 C905 0.950 . S
H880 C906 0.950 . S
H881 C908 0.950 . S
H882 C911 0.950 . S
H883 C912 0.950 . S
H884 C914 0.950 . S
H885 C915 0.950 . S
C886 H868 0.951 . S
C886 C887 1.366 . S
C886 C888 1.388 . S
C887 C886 1.366 . S
C887 C891 1.385 . S
C888 H869 0.951 . S
C888 C886 1.388 . S
C888 C889 1.366 . S
C889 C888 1.366 . S
C889 C890 1.414 . S
C889 C892 1.499 . S
C890 H870 0.950 . S
C890 C889 1.414 . S
C890 C891 1.374 . S
C891 H871 0.950 . S
C891 C887 1.385 . S
C891 C890 1.374 . S
C892 C889 1.499 . S
C892 C893 1.373 . S
C892 C894 1.389 . S
C893 H872 0.950 . S
C893 C892 1.373 . S
C893 C909 1.377 1_655 S
C894 C892 1.389 . S
C894 C895 1.524 . S
C894 C908 1.377 1_655 S
C895 C894 1.524 . S
C895 C896 1.397 . S
C895 C900 1.363 1_655 S
C896 H873 0.950 . S
C896 C895 1.397 . S
C896 C897 1.334 . S
C897 H874 0.950 . S
C897 C896 1.334 . S
C897 C898 1.287 . S
C898 C897 1.287 . S
C898 C899 1.524 1_655 S
C898 H917 0.913 . S
C899 H875 0.950 . S
C899 C898 1.524 1_455 S
C899 C900 1.415 . S
C900 H876 0.950 . S
C900 C895 1.363 1_455 S
C900 C899 1.415 . S
C901 H877 0.951 . S
C901 C902 1.366 . S
C901 C903 1.388 . S
C902 C901 1.366 . S
C902 C906 1.385 . S
C903 H878 0.951 . S
C903 C901 1.388 . S
C903 C904 1.366 . S
C904 C903 1.366 . S
C904 C905 1.414 . S
C904 C907 1.499 . S
C905 H879 0.950 . S
C905 C904 1.414 . S
C905 C906 1.374 . S
C906 H880 0.950 . S
C906 C902 1.385 . S
C906 C905 1.374 . S
C907 C904 1.499 . S
C907 C908 1.373 . S
C907 C909 1.389 . S
C908 H881 0.950 . S
C908 C894 1.377 1_455 S
C908 C907 1.373 . S
C909 C893 1.377 1_455 S
C909 C907 1.389 . S
C909 C910 1.524 . S
C910 C909 1.524 . S
C910 C911 1.397 . S
C910 C915 1.363 1_455 S
C911 H882 0.950 . S
C911 C910 1.397 . S
C911 C912 1.334 . S
C912 H883 0.950 . S
C912 C911 1.334 . S
C912 C913 1.287 . S
C913 C912 1.287 . S
C913 C914 1.524 1_455 S
C913 H916 0.999 . S
C914 H884 0.950 . S
C914 C913 1.524 1_655 S
C914 C915 1.415 . S
C915 H885 0.950 . S
C915 C910 1.363 1_655 S
C915 C914 1.415 . S
H916 C913 0.999 . S
H917 C898 0.913 . S
H918 C936 0.951 . S
H919 C938 0.951 . S
H920 C940 0.950 1_556 S
H921 C941 0.950 . S
H922 C943 0.950 . S
H923 C946 0.950 1_556 S
H924 C947 0.950 . S
H925 C949 0.950 . S
H926 C950 0.950 1_545 S
H927 C951 0.951 . S
H928 C953 0.951 . S
H929 C955 0.950 1_554 S
H930 C956 0.950 . S
H931 C958 0.950 . S
H932 C961 0.950 1_554 S
H933 C962 0.950 . S
H934 C964 0.950 . S
H935 C965 0.950 1_565 S
C936 H918 0.951 . S
C936 C937 1.366 . S
C936 C938 1.388 . S
C937 C936 1.366 . S
C937 C941 1.385 . S
C938 H919 0.951 . S
C938 C936 1.388 . S
C938 C939 1.366 . S
C939 C938 1.366 . S
C939 C940 1.414 . S
C939 C942 1.499 . S
C940 H920 0.950 1_554 S
C940 C939 1.414 . S
C940 C941 1.374 . S
C941 H921 0.950 . S
C941 C937 1.385 . S
C941 C940 1.374 . S
C942 C939 1.499 . S
C942 C943 1.362 1_554 S
C942 C944 1.389 . S
C943 H922 0.950 . S
C943 C942 1.362 1_556 S
C943 C959 1.387 1_565 S
C944 C942 1.389 . S
C944 C945 1.524 . S
C944 C958 1.387 1_565 S
C945 C944 1.524 . S
C945 C946 1.397 . S
C945 C950 1.363 . S
C946 H923 0.950 1_554 S
C946 C945 1.397 . S
C946 C947 1.334 . S
C947 H924 0.950 . S
C947 C946 1.334 . S
C947 C948 1.287 . S
C948 C947 1.287 . S
C948 C949 1.524 . S
C948 H967 0.913 . S
C949 H925 0.950 . S
C949 C948 1.524 . S
C949 C950 1.415 . S
C950 H926 0.950 1_565 S
C950 C945 1.363 . S
C950 C949 1.415 . S
C951 H927 0.951 . S
C951 C952 1.366 . S
C951 C953 1.388 . S
C952 C951 1.366 . S
C952 C956 1.385 . S
C953 H928 0.951 . S
C953 C951 1.388 . S
C953 C954 1.366 . S
C954 C953 1.366 . S
C954 C955 1.414 . S
C954 C957 1.499 . S
C955 H929 0.950 1_556 S
C955 C954 1.414 . S
C955 C956 1.374 . S
C956 H930 0.950 . S
C956 C952 1.385 . S
C956 C955 1.374 . S
C957 C954 1.499 . S
C957 C958 1.362 1_556 S
C957 C959 1.389 . S
C958 H931 0.950 . S
C958 C944 1.387 1_545 S
C958 C957 1.362 1_554 S
C959 C943 1.387 1_545 S
C959 C957 1.389 . S
C959 C960 1.524 . S
C960 C959 1.524 . S
C960 C961 1.397 . S
C960 C965 1.363 . S
C961 H932 0.950 1_556 S
C961 C960 1.397 . S
C961 C962 1.334 . S
C962 H933 0.950 . S
C962 C961 1.334 . S
C962 C963 1.287 . S
C963 C962 1.287 . S
C963 C964 1.524 . S
C963 H966 0.999 . S
C964 H934 0.950 . S
C964 C963 1.524 . S
C964 C965 1.415 . S
C965 H935 0.950 1_545 S
C965 C960 1.363 . S
C965 C964 1.415 . S
H966 C963 0.999 . S
H967 C948 0.913 . S
H968 C986 0.951 . S
H969 C988 0.951 . S
H970 C990 0.950 . S
H971 C991 0.950 . S
H972 C993 0.950 . S
H973 C996 0.950 . S
H974 C997 0.950 . S
H975 C999 0.950 . S
H976 C1000 0.950 . S
H977 C1001 0.951 . S
H978 C1003 0.951 . S
H979 C1005 0.950 . S
H980 C1006 0.950 . S
H981 C1008 0.950 . S
H982 C1011 0.950 . S
H983 C1012 0.950 . S
H984 C1014 0.950 . S
H985 C1015 0.950 . S
C986 H968 0.951 . S
C986 C987 1.366 . S
C986 C988 1.388 . S
C987 C986 1.366 . S
C987 C991 1.385 . S
C988 H969 0.951 . S
C988 C986 1.388 . S
C988 C989 1.366 . S
C989 C988 1.366 . S
C989 C990 1.414 . S
C989 C992 1.499 . S
C990 H970 0.950 . S
C990 C989 1.414 . S
C990 C991 1.374 . S
C991 H971 0.950 . S
C991 C987 1.385 . S
C991 C990 1.374 . S
C992 C989 1.499 . S
C992 C993 1.373 . S
C992 C994 1.389 . S
C993 H972 0.950 . S
C993 C992 1.373 . S
C993 C1009 1.377 . S
C994 C992 1.389 . S
C994 C995 1.524 . S
C994 C1008 1.377 . S
C995 C994 1.524 . S
C995 C996 1.397 . S
C995 C1000 1.363 . S
C996 H973 0.950 . S
C996 C995 1.397 . S
C996 C997 1.334 . S
C997 H974 0.950 . S
C997 C996 1.334 . S
C997 C998 1.287 . S
C998 C997 1.287 . S
C998 C999 1.524 . S
C998 H1017 0.913 . S
C999 H975 0.950 . S
C999 C998 1.524 . S
C999 C1000 1.415 . S
C1000 H976 0.950 . S
C1000 C995 1.363 . S
C1000 C999 1.415 . S
C1001 H977 0.951 . S
C1001 C1002 1.366 . S
C1001 C1003 1.388 . S
C1002 C1001 1.366 . S
C1002 C1006 1.385 . S
C1003 H978 0.951 . S
C1003 C1001 1.388 . S
C1003 C1004 1.366 . S
C1004 C1003 1.366 . S
C1004 C1005 1.414 . S
C1004 C1007 1.499 . S
C1005 H979 0.950 . S
C1005 C1004 1.414 . S
C1005 C1006 1.374 . S
C1006 H980 0.950 . S
C1006 C1002 1.385 . S
C1006 C1005 1.374 . S
C1007 C1004 1.499 . S
C1007 C1008 1.373 . S
C1007 C1009 1.389 . S
C1008 H981 0.950 . S
C1008 C994 1.377 . S
C1008 C1007 1.373 . S
C1009 C993 1.377 . S
C1009 C1007 1.389 . S
C1009 C1010 1.524 . S
C1010 C1009 1.524 . S
C1010 C1011 1.397 . S
C1010 C1015 1.363 . S
C1011 H982 0.950 . S
C1011 C1010 1.397 . S
C1011 C1012 1.334 . S
C1012 H983 0.950 . S
C1012 C1011 1.334 . S
C1012 C1013 1.287 . S
C1013 C1012 1.287 . S
C1013 C1014 1.524 . S
C1013 H1016 0.999 . S
C1014 H984 0.950 . S
C1014 C1013 1.524 . S
C1014 C1015 1.415 . S
C1015 H985 0.950 . S
C1015 C1010 1.363 . S
C1015 C1014 1.415 . S
H1016 C1013 0.999 . S
H1017 C998 0.913 . S
H1018 C1036 0.951 . S
H1019 C1038 0.951 . S
H1020 C1040 0.950 . S
H1021 C1041 0.950 . S
H1022 C1043 0.950 . S
H1023 C1046 0.950 . S
H1024 C1047 0.950 . S
H1025 C1049 0.950 . S
H1026 C1050 0.950 . S
H1027 C1051 0.951 . S
H1028 C1053 0.951 . S
H1029 C1055 0.950 . S
H1030 C1056 0.950 . S
H1031 C1058 0.950 . S
H1032 C1061 0.950 . S
H1033 C1062 0.950 . S
H1034 C1064 0.950 . S
H1035 C1065 0.950 . S
C1036 H1018 0.951 . S
C1036 C1037 1.366 . S
C1036 C1038 1.388 . S
C1037 C1036 1.366 . S
C1037 C1041 1.385 . S
C1038 H1019 0.951 . S
C1038 C1036 1.388 . S
C1038 C1039 1.366 . S
C1039 C1038 1.366 . S
C1039 C1040 1.414 . S
C1039 C1042 1.499 . S
C1040 H1020 0.950 . S
C1040 C1039 1.414 . S
C1040 C1041 1.374 . S
C1041 H1021 0.950 . S
C1041 C1037 1.385 . S
C1041 C1040 1.374 . S
C1042 C1039 1.499 . S
C1042 C1043 1.373 . S
C1042 C1044 1.389 . S
C1043 H1022 0.950 . S
C1043 C1042 1.373 . S
C1043 C1059 1.377 1_455 S
C1044 C1042 1.389 . S
C1044 C1045 1.524 . S
C1044 C1058 1.377 1_455 S
C1045 C1044 1.524 . S
C1045 C1046 1.397 . S
C1045 C1050 1.363 . S
C1046 H1023 0.950 . S
C1046 C1045 1.397 . S
C1046 C1047 1.334 . S
C1047 H1024 0.950 . S
C1047 C1046 1.334 . S
C1047 C1048 1.287 . S
C1048 C1047 1.287 . S
C1048 C1049 1.524 . S
C1048 H1067 0.913 . S
C1049 H1025 0.950 . S
C1049 C1048 1.524 . S
C1049 C1050 1.415 . S
C1050 H1026 0.950 . S
C1050 C1045 1.363 . S
C1050 C1049 1.415 . S
C1051 H1027 0.951 . S
C1051 C1052 1.366 . S
C1051 C1053 1.388 . S
C1052 C1051 1.366 . S
C1052 C1056 1.385 . S
C1053 H1028 0.951 . S
C1053 C1051 1.388 . S
C1053 C1054 1.366 . S
C1054 C1053 1.366 . S
C1054 C1055 1.414 . S
C1054 C1057 1.499 . S
C1055 H1029 0.950 . S
C1055 C1054 1.414 . S
C1055 C1056 1.374 . S
C1056 H1030 0.950 . S
C1056 C1052 1.385 . S
C1056 C1055 1.374 . S
C1057 C1054 1.499 . S
C1057 C1058 1.373 . S
C1057 C1059 1.389 . S
C1058 H1031 0.950 . S
C1058 C1044 1.377 1_655 S
C1058 C1057 1.373 . S
C1059 C1043 1.377 1_655 S
C1059 C1057 1.389 . S
C1059 C1060 1.524 . S
C1060 C1059 1.524 . S
C1060 C1061 1.397 . S
C1060 C1065 1.363 . S
C1061 H1032 0.950 . S
C1061 C1060 1.397 . S
C1061 C1062 1.334 . S
C1062 H1033 0.950 . S
C1062 C1061 1.334 . S
C1062 C1063 1.287 . S
C1063 C1062 1.287 . S
C1063 C1064 1.524 . S
C1063 H1066 0.999 . S
C1064 H1034 0.950 . S
C1064 C1063 1.524 . S
C1064 C1065 1.415 . S
C1065 H1035 0.950 . S
C1065 C1060 1.363 . S
C1065 C1064 1.415 . S
H1066 C1063 0.999 . S
H1067 C1048 0.913 . S
H1068 C1086 0.951 . S
H1069 C1088 0.951 . S
H1070 C1090 0.950 1_554 S
H1071 C1091 0.980 . S
H1072 C1093 0.950 . S
H1073 C1096 0.950 . S
H1074 C1097 0.950 . S
H1075 C1099 0.950 . S
H1076 C1100 0.950 . S
H1077 C1101 0.951 . S
H1078 C1103 0.951 . S
H1079 C1105 0.950 1_556 S
H1080 C1106 0.950 . S
H1081 C1108 0.950 . S
H1082 C1111 0.950 . S
H1083 C1112 0.950 . S
H1084 C1114 0.950 . S
H1085 C1115 0.950 . S
C1086 H1068 0.951 . S
C1086 C1087 1.363 1_455 S
C1086 C1088 1.388 . S
C1087 C1086 1.363 1_655 S
C1087 C1091 1.390 . S
C1088 H1069 0.951 . S
C1088 C1086 1.388 . S
C1088 C1089 1.366 . S
C1089 C1088 1.366 . S
C1089 C1090 1.414 . S
C1089 C1092 1.499 . S
C1090 H1070 0.950 1_556 S
C1090 C1089 1.414 . S
C1090 C1091 1.339 1_455 S
C1091 H1071 0.980 . S
C1091 C1087 1.390 . S
C1091 C1090 1.339 1_655 S
C1092 C1089 1.499 . S
C1092 C1093 1.373 1_556 S
C1092 C1094 1.389 . S
C1093 H1072 0.950 . S
C1093 C1092 1.373 1_554 S
C1093 C1109 1.377 . S
C1094 C1092 1.389 . S
C1094 C1095 1.524 . S
C1094 C1108 1.377 . S
C1095 C1094 1.524 . S
C1095 C1096 1.397 . S
C1095 C1100 1.363 . S
C1096 H1073 0.950 . S
C1096 C1095 1.397 . S
C1096 C1097 1.334 . S
C1097 H1074 0.950 . S
C1097 C1096 1.334 . S
C1097 C1098 1.287 . S
C1098 C1097 1.287 . S
C1098 C1099 1.524 . S
C1098 H1117 0.913 . S
C1099 H1075 0.950 . S
C1099 C1098 1.524 . S
C1099 C1100 1.415 . S
C1100 H1076 0.950 . S
C1100 C1095 1.363 . S
C1100 C1099 1.415 . S
C1101 H1077 0.951 . S
C1101 C1102 1.366 . S
C1101 C1103 1.388 . S
C1102 C1101 1.366 . S
C1102 C1106 1.385 . S
C1103 H1078 0.951 . S
C1103 C1101 1.388 . S
C1103 C1104 1.366 . S
C1104 C1103 1.366 . S
C1104 C1105 1.414 . S
C1104 C1107 1.499 . S
C1105 H1079 0.950 1_554 S
C1105 C1104 1.414 . S
C1105 C1106 1.374 . S
C1106 H1080 0.950 . S
C1106 C1102 1.385 . S
C1106 C1105 1.374 . S
C1107 C1104 1.499 . S
C1107 C1108 1.373 1_554 S
C1107 C1109 1.389 . S
C1108 H1081 0.950 . S
C1108 C1094 1.377 . S
C1108 C1107 1.373 1_556 S
C1109 C1093 1.377 . S
C1109 C1107 1.389 . S
C1109 C1110 1.524 . S
C1110 C1109 1.524 . S
C1110 C1111 1.397 . S
C1110 C1115 1.363 . S
C1111 H1082 0.950 . S
C1111 C1110 1.397 . S
C1111 C1112 1.334 . S
C1112 H1083 0.950 . S
C1112 C1111 1.334 . S
C1112 C1113 1.287 . S
C1113 C1112 1.287 . S
C1113 C1114 1.524 . S
C1113 H1116 0.999 . S
C1114 H1084 0.950 . S
C1114 C1113 1.524 . S
C1114 C1115 1.415 . S
C1115 H1085 0.950 . S
C1115 C1110 1.363 . S
C1115 C1114 1.415 . S
H1116 C1113 0.999 . S
H1117 C1098 0.913 . S
H1118 C1136 0.951 1_565 S
H1119 C1138 0.951 . S
H1120 C1140 0.950 . S
H1121 C1141 0.950 . S
H1122 C1143 0.950 . S
H1123 C1146 0.950 . S
H1124 C1147 0.950 . S
H1125 C1149 0.950 . S
H1126 C1150 0.950 . S
H1127 C1151 0.951 . S
H1128 C1153 0.951 . S
H1129 C1155 0.950 . S
H1130 C1156 0.950 . S
H1131 C1158 0.950 . S
H1132 C1161 0.950 . S
H1133 C1162 0.950 . S
H1134 C1164 0.950 . S
H1135 C1165 0.950 . S
C1136 H1118 0.951 1_545 S
C1136 C1137 1.366 1_545 S
C1136 C1138 1.388 . S
C1137 C1136 1.366 1_565 S
C1137 C1141 1.383 1_565 S
C1138 H1119 0.951 . S
C1138 C1136 1.388 . S
C1138 C1139 1.366 . S
C1139 C1138 1.366 . S
C1139 C1140 1.414 . S
C1139 C1142 1.499 . S
C1140 H1120 0.950 . S
C1140 C1139 1.414 . S
C1140 C1141 1.374 . S
C1141 H1121 0.950 . S
C1141 C1137 1.383 1_545 S
C1141 C1140 1.374 . S
C1142 C1139 1.499 . S
C1142 C1143 1.373 . S
C1142 C1144 1.389 . S
C1143 H1122 0.950 . S
C1143 C1142 1.373 . S
C1143 C1159 1.377 . S
C1144 C1142 1.389 . S
C1144 C1145 1.524 . S
C1144 C1158 1.377 . S
C1145 C1144 1.524 . S
C1145 C1146 1.397 . S
C1145 C1150 1.363 . S
C1146 H1123 0.950 . S
C1146 C1145 1.397 . S
C1146 C1147 1.334 1_545 S
C1147 H1124 0.950 . S
C1147 C1146 1.334 1_565 S
C1147 C1148 1.287 . S
C1148 C1147 1.287 . S
C1148 C1149 1.524 1_565 S
C1148 H1167 0.913 . S
C1149 H1125 0.950 . S
C1149 C1148 1.524 1_545 S
C1149 C1150 1.415 . S
C1150 H1126 0.950 . S
C1150 C1145 1.363 . S
C1150 C1149 1.415 . S
C1151 H1127 0.951 . S
C1151 C1152 1.362 1_655 S
C1151 C1153 1.388 . S
C1152 C1151 1.362 1_455 S
C1152 C1156 1.387 . S
C1153 H1128 0.951 . S
C1153 C1151 1.388 . S
C1153 C1154 1.366 . S
C1154 C1153 1.366 . S
C1154 C1155 1.414 . S
C1154 C1157 1.499 . S
C1155 H1129 0.950 . S
C1155 C1154 1.414 . S
C1155 C1156 1.374 1_655 S
C1156 H1130 0.950 . S
C1156 C1152 1.387 . S
C1156 C1155 1.374 1_455 S
C1157 C1154 1.499 . S
C1157 C1158 1.373 . S
C1157 C1159 1.389 . S
C1158 H1131 0.950 . S
C1158 C1144 1.377 . S
C1158 C1157 1.373 . S
C1159 C1143 1.377 . S
C1159 C1157 1.389 . S
C1159 C1160 1.524 . S
C1160 C1159 1.524 . S
C1160 C1161 1.397 . S
C1160 C1165 1.363 . S
C1161 H1132 0.950 . S
C1161 C1160 1.397 . S
C1161 C1162 1.334 . S
C1162 H1133 0.950 . S
C1162 C1161 1.334 . S
C1162 C1163 1.287 . S
C1163 C1162 1.287 . S
C1163 C1164 1.524 . S
C1163 H1166 0.999 . S
C1164 H1134 0.950 . S
C1164 C1163 1.524 . S
C1164 C1165 1.415 . S
C1165 H1135 0.950 . S
C1165 C1160 1.363 . S
C1165 C1164 1.415 . S
H1166 C1163 0.999 . S
H1167 C1148 0.913 . S
H1168 C1186 0.951 . S
H1169 C1188 0.951 . S
H1170 C1190 0.950 . S
H1171 C1191 0.950 . S
H1172 C1193 0.950 . S
H1173 C1196 0.950 . S
H1174 C1197 0.950 . S
H1175 C1199 0.950 . S
H1176 C1200 0.950 . S
H1177 C1201 0.951 . S
H1178 C1203 0.951 . S
H1179 C1205 0.950 . S
H1180 C1206 0.950 . S
H1181 C1208 0.950 . S
H1182 C1211 0.950 . S
H1183 C1212 0.950 . S
H1184 C1214 0.950 . S
H1185 C1215 0.950 . S
C1186 H1168 0.951 . S
C1186 C1187 1.366 . S
C1186 C1188 1.388 . S
C1187 C1186 1.366 . S
C1187 C1191 1.385 . S
C1188 H1169 0.951 . S
C1188 C1186 1.388 . S
C1188 C1189 1.366 . S
C1189 C1188 1.366 . S
C1189 C1190 1.414 . S
C1189 C1192 1.499 . S
C1190 H1170 0.950 . S
C1190 C1189 1.414 . S
C1190 C1191 1.374 . S
C1191 H1171 0.950 . S
C1191 C1187 1.385 . S
C1191 C1190 1.374 . S
C1192 C1189 1.499 . S
C1192 C1193 1.373 . S
C1192 C1194 1.389 . S
C1193 H1172 0.950 . S
C1193 C1192 1.373 . S
C1193 C1209 1.377 . S
C1194 C1192 1.389 . S
C1194 C1195 1.524 . S
C1194 C1208 1.377 . S
C1195 C1194 1.524 . S
C1195 C1196 1.397 . S
C1195 C1200 1.363 . S
C1196 H1173 0.950 . S
C1196 C1195 1.397 . S
C1196 C1197 1.334 . S
C1197 H1174 0.950 . S
C1197 C1196 1.334 . S
C1197 C1198 1.287 . S
C1198 C1197 1.287 . S
C1198 C1199 1.524 . S
C1198 H1217 0.913 . S
C1199 H1175 0.950 . S
C1199 C1198 1.524 . S
C1199 C1200 1.415 . S
C1200 H1176 0.950 . S
C1200 C1195 1.363 . S
C1200 C1199 1.415 . S
C1201 H1177 0.951 . S
C1201 C1202 1.364 1_565 S
C1201 C1203 1.388 . S
C1202 C1201 1.364 1_545 S
C1202 C1206 1.383 . S
C1203 H1178 0.951 . S
C1203 C1201 1.388 . S
C1203 C1204 1.366 . S
C1204 C1203 1.366 . S
C1204 C1205 1.414 . S
C1204 C1207 1.499 . S
C1205 H1179 0.950 . S
C1205 C1204 1.414 . S
C1205 C1206 1.374 1_565 S
C1206 H1180 0.950 . S
C1206 C1202 1.383 . S
C1206 C1205 1.374 1_545 S
C1207 C1204 1.499 . S
C1207 C1208 1.373 . S
C1207 C1209 1.389 . S
C1208 H1181 0.950 . S
C1208 C1194 1.377 . S
C1208 C1207 1.373 . S
C1209 C1193 1.377 . S
C1209 C1207 1.389 . S
C1209 C1210 1.524 . S
C1210 C1209 1.524 . S
C1210 C1211 1.397 . S
C1210 C1215 1.363 . S
C1211 H1182 0.950 . S
C1211 C1210 1.397 . S
C1211 C1212 1.334 . S
C1212 H1183 0.950 . S
C1212 C1211 1.334 . S
C1212 C1213 1.287 . S
C1213 C1212 1.287 . S
C1213 C1214 1.524 . S
C1213 H1216 0.999 . S
C1214 H1184 0.950 . S
C1214 C1213 1.524 . S
C1214 C1215 1.415 . S
C1215 H1185 0.950 . S
C1215 C1210 1.363 . S
C1215 C1214 1.415 . S
H1216 C1213 0.999 . S
H1217 C1198 0.913 . S
H1218 C1236 0.951 . S
H1219 C1238 0.951 . S
H1220 C1240 0.950 1_556 S
H1221 C1241 0.950 . S
H1222 C1243 0.950 . S
H1223 C1246 0.950 . S
H1224 C1247 0.950 . S
H1225 C1249 0.950 . S
H1226 C1250 0.950 . S
H1227 C1251 0.951 . S
H1228 C1253 0.951 . S
H1229 C1255 0.950 1_554 S
H1230 C1256 0.950 . S
H1231 C1258 0.950 . S
H1232 C1261 0.950 . S
H1233 C1262 0.950 . S
H1234 C1264 0.950 . S
H1235 C1265 0.950 . S
C1236 H1218 0.951 . S
C1236 C1237 1.366 . S
C1236 C1238 1.388 . S
C1237 C1236 1.366 . S
C1237 C1241 1.385 . S
C1238 H1219 0.951 . S
C1238 C1236 1.388 . S
C1238 C1239 1.366 . S
C1239 C1238 1.366 . S
C1239 C1240 1.414 . S
C1239 C1242 1.499 . S
C1240 H1220 0.950 1_554 S
C1240 C1239 1.414 . S
C1240 C1241 1.374 . S
C1241 H1221 0.950 . S
C1241 C1237 1.385 . S
C1241 C1240 1.374 . S
C1242 C1239 1.499 . S
C1242 C1243 1.373 1_554 S
C1242 C1244 1.389 . S
C1243 H1222 0.950 . S
C1243 C1242 1.373 1_556 S
C1243 C1259 1.377 . S
C1244 C1242 1.389 . S
C1244 C1245 1.524 . S
C1244 C1258 1.377 . S
C1245 C1244 1.524 . S
C1245 C1246 1.397 . S
C1245 C1250 1.363 . S
C1246 H1223 0.950 . S
C1246 C1245 1.397 . S
C1246 C1247 1.334 . S
C1247 H1224 0.950 . S
C1247 C1246 1.334 . S
C1247 C1248 1.287 . S
C1248 C1247 1.287 . S
C1248 C1249 1.524 . S
C1248 H1267 0.913 . S
C1249 H1225 0.950 . S
C1249 C1248 1.524 . S
C1249 C1250 1.415 . S
C1250 H1226 0.950 . S
C1250 C1245 1.363 . S
C1250 C1249 1.415 . S
C1251 H1227 0.951 . S
C1251 C1252 1.362 1_655 S
C1251 C1253 1.388 . S
C1252 C1251 1.362 1_455 S
C1252 C1256 1.384 1_455 S
C1253 H1228 0.951 . S
C1253 C1251 1.388 . S
C1253 C1254 1.366 . S
C1254 C1253 1.366 . S
C1254 C1255 1.414 . S
C1254 C1257 1.499 . S
C1255 H1229 0.950 1_556 S
C1255 C1254 1.414 . S
C1255 C1256 1.374 . S
C1256 H1230 0.950 . S
C1256 C1252 1.384 1_655 S
C1256 C1255 1.374 . S
C1257 C1254 1.499 . S
C1257 C1258 1.373 1_556 S
C1257 C1259 1.389 . S
C1258 H1231 0.950 . S
C1258 C1244 1.377 . S
C1258 C1257 1.373 1_554 S
C1259 C1243 1.377 . S
C1259 C1257 1.389 . S
C1259 C1260 1.524 . S
C1260 C1259 1.524 . S
C1260 C1261 1.397 . S
C1260 C1265 1.363 . S
C1261 H1232 0.950 . S
C1261 C1260 1.397 . S
C1261 C1262 1.334 . S
C1262 H1233 0.950 . S
C1262 C1261 1.334 . S
C1262 C1263 1.287 . S
C1263 C1262 1.287 . S
C1263 C1264 1.524 . S
C1263 H1266 0.999 . S
C1264 H1234 0.950 . S
C1264 C1263 1.524 . S
C1264 C1265 1.415 . S
C1265 H1235 0.950 . S
C1265 C1260 1.363 . S
C1265 C1264 1.415 . S
H1266 C1263 0.999 . S
H1267 C1248 0.913 . S
H1268 C1286 0.951 1_655 S
H1269 C1288 0.951 . S
H1270 C1290 0.950 . S
H1271 C1291 0.950 . S
H1272 C1293 0.950 . S
H1273 C1296 0.950 . S
H1274 C1297 0.950 . S
H1275 C1299 0.950 . S
H1276 C1300 0.950 . S
H1277 C1301 0.951 . S
H1278 C1303 0.951 . S
H1279 C1305 0.950 . S
H1280 C1306 0.950 . S
H1281 C1308 0.950 . S
H1282 C1311 0.950 . S
H1283 C1312 0.950 . S
H1284 C1314 0.950 . S
H1285 C1315 0.950 . S
C1286 H1268 0.951 1_455 S
C1286 C1287 1.367 1_455 S
C1286 C1288 1.388 . S
C1287 C1286 1.367 1_655 S
C1287 C1291 1.383 1_655 S
C1288 H1269 0.951 . S
C1288 C1286 1.388 . S
C1288 C1289 1.366 . S
C1289 C1288 1.366 . S
C1289 C1290 1.414 . S
C1289 C1292 1.499 . S
C1290 H1270 0.950 . S
C1290 C1289 1.414 . S
C1290 C1291 1.374 . S
C1291 H1271 0.950 . S
C1291 C1287 1.383 1_455 S
C1291 C1290 1.374 . S
C1292 C1289 1.499 . S
C1292 C1293 1.373 . S
C1292 C1294 1.389 . S
C1293 H1272 0.950 . S
C1293 C1292 1.373 . S
C1293 C1309 1.377 . S
C1294 C1292 1.389 . S
C1294 C1295 1.524 . S
C1294 C1308 1.377 . S
C1295 C1294 1.524 . S
C1295 C1296 1.397 . S
C1295 C1300 1.363 . S
C1296 H1273 0.950 . S
C1296 C1295 1.397 . S
C1296 C1297 1.334 1_455 S
C1297 H1274 0.950 . S
C1297 C1296 1.334 1_655 S
C1297 C1298 1.287 . S
C1298 C1297 1.287 . S
C1298 C1299 1.524 1_655 S
C1298 H1317 0.913 . S
C1299 H1275 0.950 . S
C1299 C1298 1.524 1_455 S
C1299 C1300 1.415 . S
C1300 H1276 0.950 . S
C1300 C1295 1.363 . S
C1300 C1299 1.415 . S
C1301 H1277 0.951 . S
C1301 C1302 1.362 1_565 S
C1301 C1303 1.388 . S
C1302 C1301 1.362 1_545 S
C1302 C1306 1.386 . S
C1303 H1278 0.951 . S
C1303 C1301 1.388 . S
C1303 C1304 1.366 . S
C1304 C1303 1.366 . S
C1304 C1305 1.414 . S
C1304 C1307 1.499 . S
C1305 H1279 0.950 . S
C1305 C1304 1.414 . S
C1305 C1306 1.374 1_565 S
C1306 H1280 0.950 . S
C1306 C1302 1.386 . S
C1306 C1305 1.374 1_545 S
C1307 C1304 1.499 . S
C1307 C1308 1.373 . S
C1307 C1309 1.389 . S
C1308 H1281 0.950 . S
C1308 C1294 1.377 . S
C1308 C1307 1.373 . S
C1309 C1293 1.377 . S
C1309 C1307 1.389 . S
C1309 C1310 1.524 . S
C1310 C1309 1.524 . S
C1310 C1311 1.397 . S
C1310 C1315 1.363 . S
C1311 H1282 0.950 . S
C1311 C1310 1.397 . S
C1311 C1312 1.334 . S
C1312 H1283 0.950 . S
C1312 C1311 1.334 . S
C1312 C1313 1.287 . S
C1313 C1312 1.287 . S
C1313 C1314 1.524 . S
C1313 H1316 0.999 . S
C1314 H1284 0.950 . S
C1314 C1313 1.524 . S
C1314 C1315 1.415 . S
C1315 H1285 0.950 . S
C1315 C1310 1.363 . S
C1315 C1314 1.415 . S
H1316 C1313 0.999 . S
H1317 C1298 0.913 . S
H1318 C1336 0.951 . S
H1319 C1338 0.951 . S
H1320 C1340 0.950 . S
H1321 C1341 0.950 1_565 S
H1322 C1343 0.950 . S
H1323 C1346 0.950 . S
H1324 C1347 0.950 . S
H1325 C1349 0.950 . S
H1326 C1350 0.950 . S
H1327 C1351 0.951 . S
H1328 C1353 0.951 . S
H1329 C1355 0.950 . S
H1330 C1356 0.950 . S
H1331 C1358 0.950 . S
H1332 C1361 0.950 . S
H1333 C1362 0.950 . S
H1334 C1364 0.950 . S
H1335 C1365 0.950 . S
C1336 H1318 0.951 . S
C1336 C1337 1.364 1_545 S
C1336 C1338 1.388 . S
C1337 C1336 1.364 1_565 S
C1337 C1341 1.381 1_565 S
C1338 H1319 0.951 . S
C1338 C1336 1.388 . S
C1338 C1339 1.366 . S
C1339 C1338 1.366 . S
C1339 C1340 1.414 . S
C1339 C1342 1.499 . S
C1340 H1320 0.950 . S
C1340 C1339 1.414 . S
C1340 C1341 1.374 . S
C1341 H1321 0.950 1_545 S
C1341 C1337 1.381 1_545 S
C1341 C1340 1.374 . S
C1342 C1339 1.499 . S
C1342 C1343 1.373 . S
C1342 C1344 1.389 . S
C1343 H1322 0.950 . S
C1343 C1342 1.373 . S
C1343 C1359 1.377 . S
C1344 C1342 1.389 . S
C1344 C1345 1.524 . S
C1344 C1358 1.377 . S
C1345 C1344 1.524 . S
C1345 C1346 1.397 . S
C1345 C1350 1.363 . S
C1346 H1323 0.950 . S
C1346 C1345 1.397 . S
C1346 C1347 1.334 . S
C1347 H1324 0.950 . S
C1347 C1346 1.334 . S
C1347 C1348 1.287 . S
C1348 C1347 1.287 . S
C1348 C1349 1.524 . S
C1348 H1367 0.913 . S
C1349 H1325 0.950 . S
C1349 C1348 1.524 . S
C1349 C1350 1.415 . S
C1350 H1326 0.950 . S
C1350 C1345 1.363 . S
C1350 C1349 1.415 . S
C1351 H1327 0.951 . S
C1351 C1352 1.366 . S
C1351 C1353 1.388 . S
C1352 C1351 1.366 . S
C1352 C1356 1.385 . S
C1353 H1328 0.951 . S
C1353 C1351 1.388 . S
C1353 C1354 1.366 . S
C1354 C1353 1.366 . S
C1354 C1355 1.414 . S
C1354 C1357 1.499 . S
C1355 H1329 0.950 . S
C1355 C1354 1.414 . S
C1355 C1356 1.374 . S
C1356 H1330 0.950 . S
C1356 C1352 1.385 . S
C1356 C1355 1.374 . S
C1357 C1354 1.499 . S
C1357 C1358 1.373 . S
C1357 C1359 1.389 . S
C1358 H1331 0.950 . S
C1358 C1344 1.377 . S
C1358 C1357 1.373 . S
C1359 C1343 1.377 . S
C1359 C1357 1.389 . S
C1359 C1360 1.524 . S
C1360 C1359 1.524 . S
C1360 C1361 1.397 . S
C1360 C1365 1.363 . S
C1361 H1332 0.950 . S
C1361 C1360 1.397 . S
C1361 C1362 1.334 . S
C1362 H1333 0.950 . S
C1362 C1361 1.334 . S
C1362 C1363 1.287 . S
C1363 C1362 1.287 . S
C1363 C1364 1.524 . S
C1363 H1366 0.999 . S
C1364 H1334 0.950 . S
C1364 C1363 1.524 . S
C1364 C1365 1.415 . S
C1365 H1335 0.950 . S
C1365 C1360 1.363 . S
C1365 C1364 1.415 . S
H1366 C1363 0.999 . S
H1367 C1348 0.913 . S
C187 C49 1.231 . S
C202 C7 1.232 . S
C237 C21 1.232 . S
C252 C63 1.231 . S
C287 C77 1.232 . S
C302 C35 1.232 . S
C337 C91 1.232 . S
C352 C133 1.232 . S
C387 C147 1.231 . S
C402 C105 1.231 . S
C437 C119 1.232 . S
C452 C161 1.232 . S
C487 C118 1.605 . S
C502 C6 1.606 . S
C537 C20 1.606 . S
C552 C132 1.605 . S
C587 C34 1.605 . S
C602 C146 1.606 . S
C637 C48 1.605 . S
C652 C160 1.605 . S
C687 C90 1.606 . S
C702 C62 1.605 . S
C737 C104 1.606 . S
C752 C76 1.606 . S
C787 C106 1.625 . S
C802 C8 1.624 . S
C837 C22 1.625 . S
C852 C120 1.625 . S
C887 C36 1.625 . S
C902 C134 1.626 . S
C937 C50 1.624 . S
C952 C148 1.625 . S
C987 C162 1.625 . S
C1002 C64 1.625 . S
C1037 C78 1.625 . S
C1052 C92 1.625 . S
C1087 C149 1.465 . S
C1102 C9 1.462 . S
C1137 C163 1.463 . S
C1152 C23 1.464 . S
C1187 C93 1.462 . S
C1202 C37 1.466 . S
C1237 C51 1.462 . S
C1252 C107 1.467 . S
C1287 C65 1.463 . S
C1302 C121 1.464 . S
C1337 C79 1.468 . S
C1352 C135 1.462 . S
