# Generated by pormake.
# Topology twf-e, (6)-cn, num edge types: 1
# Building blocks:
#     Node 0, Type 0, BuildingBlock: MIDCAF_clean_sbu_0, # of connection points: 6
#     Node 1, Type 0, BuildingBlock: MIDCAF_clean_sbu_0, # of connection points: 6
#     Node 2, Type 0, BuildingBlock: MIDCAF_clean_sbu_0, # of connection points: 6
#     Node 3, Type 0, BuildingBlock: MIDCAF_clean_sbu_0, # of connection points: 6
#     Node 4, Type 0, BuildingBlock: MIDCAF_clean_sbu_0, # of connection points: 6
#     Node 5, Type 0, BuildingBlock: MIDCAF_clean_sbu_0, # of connection points: 6
#     Node 6, Type 0, BuildingBlock: MIDCAF_clean_sbu_0, # of connection points: 6
#     Node 7, Type 0, BuildingBlock: MIDCAF_clean_sbu_0, # of connection points: 6
#     Node 8, Type 0, BuildingBlock: MIDCAF_clean_sbu_0, # of connection points: 6
#     Node 9, Type 0, BuildingBlock: MIDCAF_clean_sbu_0, # of connection points: 6
#     Node 10, Type 0, BuildingBlock: MIDCAF_clean_sbu_0, # of connection points: 6
#     Node 11, Type 0, BuildingBlock: MIDCAF_clean_sbu_0, # of connection points: 6
#     Node 12, Type 0, BuildingBlock: MIDCAF_clean_sbu_0, # of connection points: 6
#     Node 13, Type 0, BuildingBlock: MIDCAF_clean_sbu_0, # of connection points: 6
#     Node 14, Type 0, BuildingBlock: MIDCAF_clean_sbu_0, # of connection points: 6
#     Node 15, Type 0, BuildingBlock: MIDCAF_clean_sbu_0, # of connection points: 6
#     Node 16, Type 0, BuildingBlock: MIDCAF_clean_sbu_0, # of connection points: 6
#     Node 17, Type 0, BuildingBlock: MIDCAF_clean_sbu_0, # of connection points: 6
#     Node 18, Type 0, BuildingBlock: MIDCAF_clean_sbu_0, # of connection points: 6
#     Node 19, Type 0, BuildingBlock: MIDCAF_clean_sbu_0, # of connection points: 6
#     Node 20, Type 0, BuildingBlock: MIDCAF_clean_sbu_0, # of connection points: 6
#     Node 21, Type 0, BuildingBlock: MIDCAF_clean_sbu_0, # of connection points: 6
#     Node 22, Type 0, BuildingBlock: MIDCAF_clean_sbu_0, # of connection points: 6
#     Node 23, Type 0, BuildingBlock: MIDCAF_clean_sbu_0, # of connection points: 6
#     Node 24, Type 0, BuildingBlock: MIDCAF_clean_sbu_0, # of connection points: 6
#     Node 25, Type 0, BuildingBlock: MIDCAF_clean_sbu_0, # of connection points: 6
#     Node 26, Type 0, BuildingBlock: MIDCAF_clean_sbu_0, # of connection points: 6
#     Node 27, Type 0, BuildingBlock: MIDCAF_clean_sbu_0, # of connection points: 6
#     Node 28, Type 0, BuildingBlock: MIDCAF_clean_sbu_0, # of connection points: 6
#     Node 29, Type 0, BuildingBlock: MIDCAF_clean_sbu_0, # of connection points: 6
#     Node 30, Type 0, BuildingBlock: MIDCAF_clean_sbu_0, # of connection points: 6
#     Node 31, Type 0, BuildingBlock: MIDCAF_clean_sbu_0, # of connection points: 6
#     Node 32, Type 0, BuildingBlock: MIDCAF_clean_sbu_0, # of connection points: 6
#     Node 33, Type 0, BuildingBlock: MIDCAF_clean_sbu_0, # of connection points: 6
#     Node 34, Type 0, BuildingBlock: MIDCAF_clean_sbu_0, # of connection points: 6
#     Node 35, Type 0, BuildingBlock: MIDCAF_clean_sbu_0, # of connection points: 6
#     Node 36, Type 0, BuildingBlock: MIDCAF_clean_sbu_0, # of connection points: 6
#     Node 37, Type 0, BuildingBlock: MIDCAF_clean_sbu_0, # of connection points: 6
#     Node 38, Type 0, BuildingBlock: MIDCAF_clean_sbu_0, # of connection points: 6
#     Node 39, Type 0, BuildingBlock: MIDCAF_clean_sbu_0, # of connection points: 6
#     Node 40, Type 0, BuildingBlock: MIDCAF_clean_sbu_0, # of connection points: 6
#     Node 41, Type 0, BuildingBlock: MIDCAF_clean_sbu_0, # of connection points: 6
#     Node 42, Type 0, BuildingBlock: MIDCAF_clean_sbu_0, # of connection points: 6
#     Node 43, Type 0, BuildingBlock: MIDCAF_clean_sbu_0, # of connection points: 6
#     Node 44, Type 0, BuildingBlock: MIDCAF_clean_sbu_0, # of connection points: 6
#     Node 45, Type 0, BuildingBlock: MIDCAF_clean_sbu_0, # of connection points: 6
#     Node 46, Type 0, BuildingBlock: MIDCAF_clean_sbu_0, # of connection points: 6
#     Node 47, Type 0, BuildingBlock: MIDCAF_clean_sbu_0, # of connection points: 6
#     Edge 48, Type (0, 0), BuildingBlock: KIFKEQ_clean_linker_1, # of connection points: 2
#     Edge 49, Type (0, 0), BuildingBlock: KIFKEQ_clean_linker_1, # of connection points: 2
#     Edge 50, Type (0, 0), BuildingBlock: KIFKEQ_clean_linker_1, # of connection points: 2
#     Edge 51, Type (0, 0), BuildingBlock: KIFKEQ_clean_linker_1, # of connection points: 2
#     Edge 52, Type (0, 0), BuildingBlock: KIFKEQ_clean_linker_1, # of connection points: 2
#     Edge 53, Type (0, 0), BuildingBlock: KIFKEQ_clean_linker_1, # of connection points: 2
#     Edge 54, Type (0, 0), BuildingBlock: KIFKEQ_clean_linker_1, # of connection points: 2
#     Edge 55, Type (0, 0), BuildingBlock: KIFKEQ_clean_linker_1, # of connection points: 2
#     Edge 56, Type (0, 0), BuildingBlock: KIFKEQ_clean_linker_1, # of connection points: 2
#     Edge 57, Type (0, 0), BuildingBlock: KIFKEQ_clean_linker_1, # of connection points: 2
#     Edge 58, Type (0, 0), BuildingBlock: KIFKEQ_clean_linker_1, # of connection points: 2
#     Edge 59, Type (0, 0), BuildingBlock: KIFKEQ_clean_linker_1, # of connection points: 2
#     Edge 60, Type (0, 0), BuildingBlock: KIFKEQ_clean_linker_1, # of connection points: 2
#     Edge 61, Type (0, 0), BuildingBlock: KIFKEQ_clean_linker_1, # of connection points: 2
#     Edge 62, Type (0, 0), BuildingBlock: KIFKEQ_clean_linker_1, # of connection points: 2
#     Edge 63, Type (0, 0), BuildingBlock: KIFKEQ_clean_linker_1, # of connection points: 2
#     Edge 64, Type (0, 0), BuildingBlock: KIFKEQ_clean_linker_1, # of connection points: 2
#     Edge 65, Type (0, 0), BuildingBlock: KIFKEQ_clean_linker_1, # of connection points: 2
#     Edge 66, Type (0, 0), BuildingBlock: KIFKEQ_clean_linker_1, # of connection points: 2
#     Edge 67, Type (0, 0), BuildingBlock: KIFKEQ_clean_linker_1, # of connection points: 2
#     Edge 68, Type (0, 0), BuildingBlock: KIFKEQ_clean_linker_1, # of connection points: 2
#     Edge 69, Type (0, 0), BuildingBlock: KIFKEQ_clean_linker_1, # of connection points: 2
#     Edge 70, Type (0, 0), BuildingBlock: KIFKEQ_clean_linker_1, # of connection points: 2
#     Edge 71, Type (0, 0), BuildingBlock: KIFKEQ_clean_linker_1, # of connection points: 2
#     Edge 72, Type (0, 0), BuildingBlock: KIFKEQ_clean_linker_1, # of connection points: 2
#     Edge 73, Type (0, 0), BuildingBlock: KIFKEQ_clean_linker_1, # of connection points: 2
#     Edge 74, Type (0, 0), BuildingBlock: KIFKEQ_clean_linker_1, # of connection points: 2
#     Edge 75, Type (0, 0), BuildingBlock: KIFKEQ_clean_linker_1, # of connection points: 2
#     Edge 76, Type (0, 0), BuildingBlock: KIFKEQ_clean_linker_1, # of connection points: 2
#     Edge 77, Type (0, 0), BuildingBlock: KIFKEQ_clean_linker_1, # of connection points: 2
#     Edge 78, Type (0, 0), BuildingBlock: KIFKEQ_clean_linker_1, # of connection points: 2
#     Edge 79, Type (0, 0), BuildingBlock: KIFKEQ_clean_linker_1, # of connection points: 2
#     Edge 80, Type (0, 0), BuildingBlock: KIFKEQ_clean_linker_1, # of connection points: 2
#     Edge 81, Type (0, 0), BuildingBlock: KIFKEQ_clean_linker_1, # of connection points: 2
#     Edge 82, Type (0, 0), BuildingBlock: KIFKEQ_clean_linker_1, # of connection points: 2
#     Edge 83, Type (0, 0), BuildingBlock: KIFKEQ_clean_linker_1, # of connection points: 2
#     Edge 84, Type (0, 0), BuildingBlock: KIFKEQ_clean_linker_1, # of connection points: 2
#     Edge 85, Type (0, 0), BuildingBlock: KIFKEQ_clean_linker_1, # of connection points: 2
#     Edge 86, Type (0, 0), BuildingBlock: KIFKEQ_clean_linker_1, # of connection points: 2
#     Edge 87, Type (0, 0), BuildingBlock: KIFKEQ_clean_linker_1, # of connection points: 2
#     Edge 88, Type (0, 0), BuildingBlock: KIFKEQ_clean_linker_1, # of connection points: 2
#     Edge 89, Type (0, 0), BuildingBlock: KIFKEQ_clean_linker_1, # of connection points: 2
#     Edge 90, Type (0, 0), BuildingBlock: KIFKEQ_clean_linker_1, # of connection points: 2
#     Edge 91, Type (0, 0), BuildingBlock: KIFKEQ_clean_linker_1, # of connection points: 2
#     Edge 92, Type (0, 0), BuildingBlock: KIFKEQ_clean_linker_1, # of connection points: 2
#     Edge 93, Type (0, 0), BuildingBlock: KIFKEQ_clean_linker_1, # of connection points: 2
#     Edge 94, Type (0, 0), BuildingBlock: KIFKEQ_clean_linker_1, # of connection points: 2
#     Edge 95, Type (0, 0), BuildingBlock: KIFKEQ_clean_linker_1, # of connection points: 2
#     Edge 96, Type (0, 0), BuildingBlock: KIFKEQ_clean_linker_1, # of connection points: 2
#     Edge 97, Type (0, 0), BuildingBlock: KIFKEQ_clean_linker_1, # of connection points: 2
#     Edge 98, Type (0, 0), BuildingBlock: KIFKEQ_clean_linker_1, # of connection points: 2
#     Edge 99, Type (0, 0), BuildingBlock: KIFKEQ_clean_linker_1, # of connection points: 2
#     Edge 100, Type (0, 0), BuildingBlock: KIFKEQ_clean_linker_1, # of connection points: 2
#     Edge 101, Type (0, 0), BuildingBlock: KIFKEQ_clean_linker_1, # of connection points: 2
#     Edge 102, Type (0, 0), BuildingBlock: KIFKEQ_clean_linker_1, # of connection points: 2
#     Edge 103, Type (0, 0), BuildingBlock: KIFKEQ_clean_linker_1, # of connection points: 2
#     Edge 104, Type (0, 0), BuildingBlock: KIFKEQ_clean_linker_1, # of connection points: 2
#     Edge 105, Type (0, 0), BuildingBlock: KIFKEQ_clean_linker_1, # of connection points: 2
#     Edge 106, Type (0, 0), BuildingBlock: KIFKEQ_clean_linker_1, # of connection points: 2
#     Edge 107, Type (0, 0), BuildingBlock: KIFKEQ_clean_linker_1, # of connection points: 2
#     Edge 108, Type (0, 0), BuildingBlock: KIFKEQ_clean_linker_1, # of connection points: 2
#     Edge 109, Type (0, 0), BuildingBlock: KIFKEQ_clean_linker_1, # of connection points: 2
#     Edge 110, Type (0, 0), BuildingBlock: KIFKEQ_clean_linker_1, # of connection points: 2
#     Edge 111, Type (0, 0), BuildingBlock: KIFKEQ_clean_linker_1, # of connection points: 2
#     Edge 112, Type (0, 0), BuildingBlock: KIFKEQ_clean_linker_1, # of connection points: 2
#     Edge 113, Type (0, 0), BuildingBlock: KIFKEQ_clean_linker_1, # of connection points: 2
#     Edge 114, Type (0, 0), BuildingBlock: KIFKEQ_clean_linker_1, # of connection points: 2
#     Edge 115, Type (0, 0), BuildingBlock: KIFKEQ_clean_linker_1, # of connection points: 2
#     Edge 116, Type (0, 0), BuildingBlock: KIFKEQ_clean_linker_1, # of connection points: 2
#     Edge 117, Type (0, 0), BuildingBlock: KIFKEQ_clean_linker_1, # of connection points: 2
#     Edge 118, Type (0, 0), BuildingBlock: KIFKEQ_clean_linker_1, # of connection points: 2
#     Edge 119, Type (0, 0), BuildingBlock: KIFKEQ_clean_linker_1, # of connection points: 2
#     Edge 120, Type (0, 0), BuildingBlock: KIFKEQ_clean_linker_1, # of connection points: 2
#     Edge 121, Type (0, 0), BuildingBlock: KIFKEQ_clean_linker_1, # of connection points: 2
#     Edge 122, Type (0, 0), BuildingBlock: KIFKEQ_clean_linker_1, # of connection points: 2
#     Edge 123, Type (0, 0), BuildingBlock: KIFKEQ_clean_linker_1, # of connection points: 2
#     Edge 124, Type (0, 0), BuildingBlock: KIFKEQ_clean_linker_1, # of connection points: 2
#     Edge 125, Type (0, 0), BuildingBlock: KIFKEQ_clean_linker_1, # of connection points: 2
#     Edge 126, Type (0, 0), BuildingBlock: KIFKEQ_clean_linker_1, # of connection points: 2
#     Edge 127, Type (0, 0), BuildingBlock: KIFKEQ_clean_linker_1, # of connection points: 2
#     Edge 128, Type (0, 0), BuildingBlock: KIFKEQ_clean_linker_1, # of connection points: 2
#     Edge 129, Type (0, 0), BuildingBlock: KIFKEQ_clean_linker_1, # of connection points: 2
#     Edge 130, Type (0, 0), BuildingBlock: KIFKEQ_clean_linker_1, # of connection points: 2
#     Edge 131, Type (0, 0), BuildingBlock: KIFKEQ_clean_linker_1, # of connection points: 2
#     Edge 132, Type (0, 0), BuildingBlock: KIFKEQ_clean_linker_1, # of connection points: 2
#     Edge 133, Type (0, 0), BuildingBlock: KIFKEQ_clean_linker_1, # of connection points: 2
#     Edge 134, Type (0, 0), BuildingBlock: KIFKEQ_clean_linker_1, # of connection points: 2
#     Edge 135, Type (0, 0), BuildingBlock: KIFKEQ_clean_linker_1, # of connection points: 2
#     Edge 136, Type (0, 0), BuildingBlock: KIFKEQ_clean_linker_1, # of connection points: 2
#     Edge 137, Type (0, 0), BuildingBlock: KIFKEQ_clean_linker_1, # of connection points: 2
#     Edge 138, Type (0, 0), BuildingBlock: KIFKEQ_clean_linker_1, # of connection points: 2
#     Edge 139, Type (0, 0), BuildingBlock: KIFKEQ_clean_linker_1, # of connection points: 2
#     Edge 140, Type (0, 0), BuildingBlock: KIFKEQ_clean_linker_1, # of connection points: 2
#     Edge 141, Type (0, 0), BuildingBlock: KIFKEQ_clean_linker_1, # of connection points: 2
#     Edge 142, Type (0, 0), BuildingBlock: KIFKEQ_clean_linker_1, # of connection points: 2
#     Edge 143, Type (0, 0), BuildingBlock: KIFKEQ_clean_linker_1, # of connection points: 2
#     Edge 144, Type (0, 0), BuildingBlock: KIFKEQ_clean_linker_1, # of connection points: 2
#     Edge 145, Type (0, 0), BuildingBlock: KIFKEQ_clean_linker_1, # of connection points: 2
#     Edge 146, Type (0, 0), BuildingBlock: KIFKEQ_clean_linker_1, # of connection points: 2
#     Edge 147, Type (0, 0), BuildingBlock: KIFKEQ_clean_linker_1, # of connection points: 2
#     Edge 148, Type (0, 0), BuildingBlock: KIFKEQ_clean_linker_1, # of connection points: 2
#     Edge 149, Type (0, 0), BuildingBlock: KIFKEQ_clean_linker_1, # of connection points: 2
#     Edge 150, Type (0, 0), BuildingBlock: KIFKEQ_clean_linker_1, # of connection points: 2
#     Edge 151, Type (0, 0), BuildingBlock: KIFKEQ_clean_linker_1, # of connection points: 2
#     Edge 152, Type (0, 0), BuildingBlock: KIFKEQ_clean_linker_1, # of connection points: 2
#     Edge 153, Type (0, 0), BuildingBlock: KIFKEQ_clean_linker_1, # of connection points: 2
#     Edge 154, Type (0, 0), BuildingBlock: KIFKEQ_clean_linker_1, # of connection points: 2
#     Edge 155, Type (0, 0), BuildingBlock: KIFKEQ_clean_linker_1, # of connection points: 2
#     Edge 156, Type (0, 0), BuildingBlock: KIFKEQ_clean_linker_1, # of connection points: 2
#     Edge 157, Type (0, 0), BuildingBlock: KIFKEQ_clean_linker_1, # of connection points: 2
#     Edge 158, Type (0, 0), BuildingBlock: KIFKEQ_clean_linker_1, # of connection points: 2
#     Edge 159, Type (0, 0), BuildingBlock: KIFKEQ_clean_linker_1, # of connection points: 2
#     Edge 160, Type (0, 0), BuildingBlock: KIFKEQ_clean_linker_1, # of connection points: 2
#     Edge 161, Type (0, 0), BuildingBlock: KIFKEQ_clean_linker_1, # of connection points: 2
#     Edge 162, Type (0, 0), BuildingBlock: KIFKEQ_clean_linker_1, # of connection points: 2
#     Edge 163, Type (0, 0), BuildingBlock: KIFKEQ_clean_linker_1, # of connection points: 2
#     Edge 164, Type (0, 0), BuildingBlock: KIFKEQ_clean_linker_1, # of connection points: 2
#     Edge 165, Type (0, 0), BuildingBlock: KIFKEQ_clean_linker_1, # of connection points: 2
#     Edge 166, Type (0, 0), BuildingBlock: KIFKEQ_clean_linker_1, # of connection points: 2
#     Edge 167, Type (0, 0), BuildingBlock: KIFKEQ_clean_linker_1, # of connection points: 2
#     Edge 168, Type (0, 0), BuildingBlock: KIFKEQ_clean_linker_1, # of connection points: 2
#     Edge 169, Type (0, 0), BuildingBlock: KIFKEQ_clean_linker_1, # of connection points: 2
#     Edge 170, Type (0, 0), BuildingBlock: KIFKEQ_clean_linker_1, # of connection points: 2
#     Edge 171, Type (0, 0), BuildingBlock: KIFKEQ_clean_linker_1, # of connection points: 2
#     Edge 172, Type (0, 0), BuildingBlock: KIFKEQ_clean_linker_1, # of connection points: 2
#     Edge 173, Type (0, 0), BuildingBlock: KIFKEQ_clean_linker_1, # of connection points: 2
#     Edge 174, Type (0, 0), BuildingBlock: KIFKEQ_clean_linker_1, # of connection points: 2
#     Edge 175, Type (0, 0), BuildingBlock: KIFKEQ_clean_linker_1, # of connection points: 2
#     Edge 176, Type (0, 0), BuildingBlock: KIFKEQ_clean_linker_1, # of connection points: 2
#     Edge 177, Type (0, 0), BuildingBlock: KIFKEQ_clean_linker_1, # of connection points: 2
#     Edge 178, Type (0, 0), BuildingBlock: KIFKEQ_clean_linker_1, # of connection points: 2
#     Edge 179, Type (0, 0), BuildingBlock: KIFKEQ_clean_linker_1, # of connection points: 2
#     Edge 180, Type (0, 0), BuildingBlock: KIFKEQ_clean_linker_1, # of connection points: 2
#     Edge 181, Type (0, 0), BuildingBlock: KIFKEQ_clean_linker_1, # of connection points: 2
#     Edge 182, Type (0, 0), BuildingBlock: KIFKEQ_clean_linker_1, # of connection points: 2
#     Edge 183, Type (0, 0), BuildingBlock: KIFKEQ_clean_linker_1, # of connection points: 2
#     Edge 184, Type (0, 0), BuildingBlock: KIFKEQ_clean_linker_1, # of connection points: 2
#     Edge 185, Type (0, 0), BuildingBlock: KIFKEQ_clean_linker_1, # of connection points: 2
#     Edge 186, Type (0, 0), BuildingBlock: KIFKEQ_clean_linker_1, # of connection points: 2
#     Edge 187, Type (0, 0), BuildingBlock: KIFKEQ_clean_linker_1, # of connection points: 2
#     Edge 188, Type (0, 0), BuildingBlock: KIFKEQ_clean_linker_1, # of connection points: 2
#     Edge 189, Type (0, 0), BuildingBlock: KIFKEQ_clean_linker_1, # of connection points: 2
#     Edge 190, Type (0, 0), BuildingBlock: KIFKEQ_clean_linker_1, # of connection points: 2
#     Edge 191, Type (0, 0), BuildingBlock: KIFKEQ_clean_linker_1, # of connection points: 2
# Relax obj value: 0.393
# Max RMSD: 0.172
# Mean RMSD: 0.172
data_MOF--net-twf-e--node1-MIDCAF_clean_sbu_0--edge1-KIFKEQ_clean_linker_1
_symmetry_space_group_name_H-M    P1
_symmetry_Int_Tables_number       1
_symmetry_cell_setting            triclinic
loop_
_symmetry_equiv_pos_as_xyz
'x, y, z'
_cell_length_a     60.282248
_cell_length_b     60.372662
_cell_length_c     60.353202
_cell_angle_alpha  89.979336
_cell_angle_beta   89.9244
_cell_angle_gamma 89.979184
loop_
_atom_site_label
_atom_site_type_symbol
_atom_site_fract_x
_atom_site_fract_y
_atom_site_fract_z
_atom_type_partial_charge
Zn0 Zn 0.02211 0.19452 0.34634 0.0
Zn1 Zn 0.96677 0.18503 0.4037 0.0
Zn2 Zn 0.99462 0.19188 0.3777 0.0
C3 C 0.94492 0.20852 0.37321 0.0
C4 C 0.99465 0.2053 0.43007 0.0
O5 O 0.00525 0.15885 0.3632 0.0
O6 O 0.03167 0.16462 0.33849 0.0
C7 C 0.99036 0.22238 0.33291 0.0
O8 O 0.96538 0.21264 0.36854 0.0
O9 O 0.94051 0.19244 0.38578 0.0
O10 O 0.97378 0.20464 0.42893 0.0
O11 O 0.00617 0.20013 0.41271 0.0
O12 O 0.00503 0.21042 0.3241 0.0
O13 O 0.98428 0.21864 0.35315 0.0
O14 O 0.02153 0.20563 0.39506 0.0
O15 O 0.04161 0.21351 0.36534 0.0
C16 C 0.03837 0.21482 0.38599 0.0
O17 O 0.98689 0.15613 0.37757 0.0
O18 O 0.97107 0.15346 0.41041 0.0
C19 C 0.01982 0.15132 0.34936 0.0
C20 C 0.97893 0.14422 0.39345 0.0
Zn21 Zn 0.84347 0.03039 0.34996 0.0
Zn22 Zn 0.84899 0.97343 0.39505 0.0
Zn23 Zn 0.83946 0.00336 0.37532 0.0
C24 C 0.80552 0.96934 0.37878 0.0
C25 C 0.84885 0.00559 0.42652 0.0
O26 O 0.86399 0.02536 0.38898 0.0
O27 O 0.87604 0.02732 0.3546 0.0
C28 C 0.80722 0.0097 0.33499 0.0
O29 O 0.8066 0.99057 0.37868 0.0
O30 O 0.82297 0.95804 0.3816 0.0
O31 O 0.84645 0.98485 0.42582 0.0
O32 O 0.84993 0.01663 0.40828 0.0
O33 O 0.82516 0.01564 0.32579 0.0
O34 O 0.80718 0.00727 0.35622 0.0
O35 O 0.80727 0.02002 0.37832 0.0
O36 O 0.82687 0.05004 0.37257 0.0
C37 C 0.81011 0.041 0.38149 0.0
O38 O 0.86161 0.98526 0.35269 0.0
O39 O 0.87873 0.97077 0.38132 0.0
C40 C 0.87985 0.02892 0.37517 0.0
C41 C 0.87846 0.97528 0.36092 0.0
Zn42 Zn 0.97893 0.82405 0.36728 0.0
Zn43 Zn 0.05086 0.84383 0.40493 0.0
Zn44 Zn 0.01688 0.83153 0.384 0.0
C45 C 0.06376 0.80922 0.37642 0.0
C46 C 0.02459 0.83183 0.43893 0.0
O47 O 0.00373 0.86175 0.36614 0.0
O48 O 0.97278 0.85074 0.34993 0.0
C49 C 0.00756 0.79175 0.34927 0.0
O50 O 0.04286 0.8085 0.37198 0.0
O51 O 0.07123 0.82385 0.38932 0.0
O52 O 0.04429 0.83833 0.43647 0.0
O53 O 0.01238 0.82841 0.42164 0.0
O54 O 0.9875 0.79761 0.35039 0.0
O55 O 0.02242 0.80272 0.36019 0.0
O56 O 0.99434 0.81914 0.40973 0.0
O57 O 0.96115 0.81808 0.39423 0.0
C58 C 0.97345 0.81476 0.41079 0.0
O59 O 0.02438 0.86726 0.37523 0.0
O60 O 0.05256 0.87501 0.39725 0.0
C61 C 0.98681 0.86575 0.35358 0.0
C62 C 0.03879 0.88115 0.38284 0.0
Zn63 Zn 0.18685 0.99346 0.34979 0.0
Zn64 Zn 0.16391 0.05105 0.4026 0.0
Zn65 Zn 0.18029 0.02269 0.3767 0.0
C66 C 0.20045 0.07043 0.37919 0.0
C67 C 0.17992 0.01989 0.43097 0.0
O68 O 0.1484 0.00946 0.36189 0.0
O69 O 0.15826 0.9793 0.34385 0.0
C70 C 0.21143 0.02641 0.33308 0.0
O71 O 0.20184 0.0515 0.36941 0.0
O72 O 0.1856 0.07372 0.39359 0.0
O73 O 0.16813 0.0371 0.43165 0.0
O74 O 0.18654 0.0121 0.41214 0.0
O75 O 0.20013 0.0105 0.32567 0.0
O76 O 0.20778 0.03341 0.35303 0.0
O77 O 0.19421 0.99609 0.39695 0.0
O78 O 0.20779 0.97676 0.36903 0.0
C79 C 0.20628 0.9801 0.38963 0.0
O80 O 0.14454 0.03166 0.36826 0.0
O81 O 0.13354 0.05628 0.39315 0.0
C82 C 0.14312 0.99166 0.35119 0.0
C83 C 0.12964 0.04507 0.37604 0.0
Zn84 Zn 0.03872 0.83452 0.66715 0.0
Zn85 Zn 0.96174 0.85296 0.64163 0.0
Zn86 Zn 0.99851 0.83708 0.65436 0.0
C87 C 0.95813 0.81102 0.63906 0.0
C88 C 0.98468 0.84359 0.60208 0.0
O89 O 0.0116 0.87135 0.65792 0.0
O90 O 0.04629 0.86608 0.66875 0.0
C91 C 0.0149 0.80775 0.69559 0.0
O92 O 0.97807 0.81551 0.63333 0.0
O93 O 0.94834 0.82441 0.65171 0.0
O94 O 0.97046 0.85756 0.60875 0.0
O95 O 0.99444 0.83122 0.61678 0.0
O96 O 0.03363 0.8171 0.69464 0.0
O97 O 0.99985 0.81289 0.6815 0.0
O98 O 0.01371 0.82137 0.62682 0.0
O99 O 0.04769 0.81749 0.64027 0.0
C100 C 0.03358 0.81397 0.62523 0.0
O101 O 0.98902 0.87151 0.66681 0.0
O102 O 0.95371 0.87807 0.65965 0.0
C103 C 0.03083 0.87901 0.66326 0.0
C104 C 0.97145 0.88354 0.66909 0.0
Zn105 Zn 0.18537 0.05887 0.67336 0.0
Zn106 Zn 0.19325 0.9569 0.63194 0.0
Zn107 Zn 0.19578 0.99885 0.64205 0.0
C108 C 0.23439 0.96468 0.653 0.0
C109 C 0.19568 0.98414 0.5924 0.0
O110 O 0.16424 0.00296 0.65805 0.0
O111 O 0.17964 0.02668 0.67998 0.0
C112 C 0.22585 0.02191 0.68036 0.0
O113 O 0.22706 0.98468 0.65427 0.0
O114 O 0.22229 0.94954 0.6451 0.0
O115 O 0.19232 0.96462 0.59936 0.0
O116 O 0.19848 0.99987 0.60631 0.0
O117 O 0.21272 0.03852 0.68218 0.0
O118 O 0.22271 0.00625 0.66596 0.0
O119 O 0.19392 0.03293 0.63823 0.0
O120 O 0.19038 0.06864 0.64088 0.0
C121 C 0.19668 0.05194 0.62972 0.0
O122 O 0.16381 0.98156 0.65098 0.0
O123 O 0.16587 0.94536 0.64589 0.0
C124 C 0.16205 0.01822 0.67255 0.0
C125 C 0.155 0.96211 0.652 0.0
Zn126 Zn 0.99176 0.18388 0.66044 0.0
Zn127 Zn 0.06438 0.16775 0.62284 0.0
Zn128 Zn 0.03029 0.18097 0.6433 0.0
C129 C 0.07553 0.20454 0.65098 0.0
C130 C 0.04 0.18284 0.58873 0.0
O131 O 0.01742 0.14856 0.65763 0.0
O132 O 0.98464 0.15486 0.6728 0.0
C133 C 0.01814 0.21666 0.68105 0.0
O134 O 0.05477 0.20486 0.65609 0.0
O135 O 0.08296 0.18969 0.63824 0.0
O136 O 0.05875 0.17401 0.59137 0.0
O137 O 0.02746 0.18634 0.60582 0.0
O138 O 0.99935 0.20746 0.68117 0.0
O139 O 0.03345 0.20928 0.66793 0.0
O140 O 0.00833 0.19281 0.61753 0.0
O141 O 0.97549 0.19401 0.63388 0.0
C142 C 0.98755 0.19763 0.61716 0.0
O143 O 0.04044 0.14644 0.6532 0.0
O144 O 0.06876 0.13705 0.63181 0.0
C145 C 0.99998 0.14155 0.668 0.0
C146 C 0.05547 0.13239 0.64721 0.0
Zn147 Zn 0.84556 0.05657 0.6305 0.0
Zn148 Zn 0.83361 0.97513 0.65648 0.0
Zn149 Zn 0.83787 0.01567 0.64156 0.0
C150 C 0.8297 0.97336 0.61029 0.0
C151 C 0.79812 0.99839 0.67485 0.0
O152 O 0.87186 0.02737 0.6527 0.0
O153 O 0.8724 0.06363 0.64739 0.0
C154 C 0.8433 0.03137 0.59085 0.0
O155 O 0.83116 0.99453 0.61263 0.0
O156 O 0.83213 0.96072 0.6268 0.0
O157 O 0.8054 0.97888 0.67287 0.0
O158 O 0.8082 0.01448 0.66484 0.0
O159 O 0.84931 0.05006 0.59811 0.0
O160 O 0.83696 0.01615 0.60447 0.0
O161 O 0.80954 0.03516 0.65371 0.0
O162 O 0.81695 0.06864 0.64088 0.0
C163 C 0.80389 0.05553 0.65067 0.0
O164 O 0.86841 0.00551 0.65946 0.0
O165 O 0.861 0.97286 0.67439 0.0
C166 C 0.88174 0.0463 0.65434 0.0
C167 C 0.87409 0.98893 0.67168 0.0
Zn168 Zn 0.36165 0.04399 0.19304 0.0
Zn169 Zn 0.38776 0.96231 0.19069 0.0
Zn170 Zn 0.3766 0.00348 0.19278 0.0
C171 C 0.36027 0.96448 0.22635 0.0
C172 C 0.4269 0.98683 0.19988 0.0
O173 O 0.3635 0.01217 0.15938 0.0
O174 O 0.34742 0.04483 0.1635 0.0
C175 C 0.33956 0.02292 0.2276 0.0
O176 O 0.36066 0.98492 0.22012 0.0
O177 O 0.36902 0.94984 0.21425 0.0
O178 O 0.41998 0.9672 0.19759 0.0
O179 O 0.41302 0.00304 0.19886 0.0
O180 O 0.34246 0.04198 0.21954 0.0
O181 O 0.34997 0.00612 0.21927 0.0
O182 O 0.40391 0.02446 0.20256 0.0
O183 O 0.39101 0.05841 0.19776 0.0
C184 C 0.40653 0.04556 0.20347 0.0
O185 O 0.37276 0.99088 0.15809 0.0
O186 O 0.38133 0.95525 0.15977 0.0
C187 C 0.35222 0.02848 0.15139 0.0
C188 C 0.37563 0.97193 0.14861 0.0
Zn189 Zn 0.97613 0.35906 0.19079 0.0
Zn190 Zn 0.04973 0.39225 0.1693 0.0
Zn191 Zn 0.01327 0.37542 0.18183 0.0
C192 C 0.05946 0.36565 0.20574 0.0
C193 C 0.02524 0.42826 0.1826 0.0
O194 O 1.00076 0.35654 0.15232 0.0
O195 O 0.97143 0.33912 0.16557 0.0
C196 C 0.0029 0.34374 0.22428 0.0
O197 O 0.03816 0.36376 0.20594 0.0
O198 O 0.06887 0.37562 0.18993 0.0
O199 O 0.04478 0.42366 0.17672 0.0
O200 O 0.01076 0.4126 0.18468 0.0
O201 O 0.98266 0.34503 0.21931 0.0
O202 O 0.01764 0.35309 0.21181 0.0
O203 O 0.99041 0.40292 0.19118 0.0
O204 O 0.95791 0.38614 0.19263 0.0
C205 C 0.96925 0.40361 0.19436 0.0
O206 O 0.02198 0.36456 0.14683 0.0
O207 O 0.05146 0.38445 0.13788 0.0
C208 C 0.98455 0.3428 0.14972 0.0
C209 C 0.03697 0.3704 0.13262 0.0
Zn210 Zn 0.62059 0.02427 0.15994 0.0
Zn211 Zn 0.67791 0.99827 0.19165 0.0
Zn212 Zn 0.64218 0.01535 0.19353 0.0
C213 C 0.65184 0.97624 0.22226 0.0
C214 C 0.68395 0.02312 0.22566 0.0
O215 O 0.66106 0.03607 0.16817 0.0
O216 O 0.64439 0.02397 0.13789 0.0
C217 C 0.59215 0.00411 0.18574 0.0
O218 O 0.6476 0.99694 0.22355 0.0
O219 O 0.6652 0.97009 0.20734 0.0
O220 O 0.69528 0.0211 0.2082 0.0
O221 O 0.66319 0.01806 0.22488 0.0
O222 O 0.59802 1.00011 0.16598 0.0
O223 O 0.6058 0.01426 0.19852 0.0
O224 O 0.61685 0.03967 0.20111 0.0
O225 O 0.6124 0.05608 0.16916 0.0
C226 C 0.61081 0.0567 0.19001 0.0
O227 O 0.64629 0.98908 0.16698 0.0
O228 O 0.6819 0.99419 0.16035 0.0
C229 C 0.65968 0.03525 0.14678 0.0
C230 C 0.66378 0.985 0.15529 0.0
Zn231 Zn 0.05144 0.66176 0.19121 0.0
Zn232 Zn 0.97636 0.62934 0.17379 0.0
Zn233 Zn 0.01171 0.64497 0.18665 0.0
C234 C 0.96646 0.65631 0.20934 0.0
C235 C 0.99783 0.59281 0.18873 0.0
O236 O 0.02349 0.66227 0.15641 0.0
O237 O 0.05593 0.67796 0.16302 0.0
C238 C 0.02445 0.67882 0.22611 0.0
O239 O 0.98771 0.65596 0.21138 0.0
O240 O 0.95783 0.64996 0.19139 0.0
O241 O 0.97818 0.5984 0.18431 0.0
O242 O 0.01318 0.60774 0.18928 0.0
O243 O 0.04382 0.67882 0.2181 0.0
O244 O 0.00903 0.6674 0.21659 0.0
O245 O 0.03385 0.61737 0.19515 0.0
O246 O 0.06705 0.63295 0.19595 0.0
C247 C 0.05495 0.61601 0.19821 0.0
O248 O 0.00116 0.65622 0.15235 0.0
O249 O 0.97477 0.63326 0.14163 0.0
C250 C 0.0402 0.67393 0.14988 0.0
C251 C 0.98745 0.64927 0.13743 0.0
Zn252 Zn 0.36162 0.98804 0.82404 0.0
Zn253 Zn 0.40038 0.058 0.84933 0.0
Zn254 Zn 0.38025 0.02515 0.83412 0.0
C255 C 0.37573 0.07366 0.81363 0.0
C256 C 0.43456 0.03276 0.83561 0.0
O257 O 0.36037 0.0109 0.86244 0.0
O258 O 0.34188 0.98217 0.84938 0.0
C259 C 0.34893 0.01918 0.79147 0.0
O260 O 0.37192 0.05278 0.81102 0.0
O261 O 0.3855 0.08029 0.83087 0.0
O262 O 0.43183 0.05239 0.84211 0.0
O263 O 0.41749 0.02018 0.83253 0.0
O264 O 0.34837 0.99888 0.79642 0.0
O265 O 0.35946 0.03296 0.80402 0.0
O266 O 0.40613 0.00129 0.82521 0.0
O267 O 0.3886 0.96935 0.82117 0.0
C268 C 0.4064 0.98034 0.82115 0.0
O269 O 0.36845 0.03199 0.86876 0.0
O270 O 0.39221 0.05713 0.88065 0.0
C271 C 0.34666 0.99467 0.86539 0.0
C272 C 0.37591 0.04461 0.88432 0.0
Zn273 Zn 0.96898 0.39086 0.83001 0.0
Zn274 Zn 0.04943 0.36367 0.82697 0.0
Zn275 Zn 0.00887 0.3777 0.82969 0.0
C276 C 0.05161 0.40833 0.81867 0.0
C277 C 0.02705 0.34116 0.7938 0.0
O278 O 0.99652 0.3743 0.86453 0.0
O279 O 0.96334 0.38977 0.86168 0.0
C280 C 0.99306 0.42809 0.81958 0.0
O281 O 0.03049 0.40542 0.82009 0.0
O282 O 0.06472 0.3926 0.82296 0.0
O283 O 0.04659 0.34471 0.80037 0.0
O284 O 0.0106 0.3512 0.80325 0.0
O285 O 0.97317 0.42163 0.81883 0.0
O286 O 0.00866 0.41402 0.82363 0.0
O287 O 0.98908 0.36142 0.80314 0.0
O288 O 0.95419 0.36923 0.81081 0.0
C289 C 0.96825 0.36001 0.79837 0.0
O290 O 0.01741 0.36362 0.86285 0.0
O291 O 0.05037 0.349 0.85626 0.0
C292 C 0.97841 0.38145 0.87344 0.0
C293 C 0.03446 0.35247 0.86944 0.0
Zn294 Zn 0.63368 0.96772 0.84981 0.0
Zn295 Zn 0.66491 0.04513 0.82763 0.0
Zn296 Zn 0.64976 0.00454 0.83668 0.0
C297 C 0.61987 0.04303 0.81605 0.0
C298 C 0.68707 0.01426 0.79948 0.0
O299 O 0.66021 0.99833 0.8717 0.0
O300 O 0.64289 0.96726 0.88056 0.0
C301 C 0.59664 0.99089 0.838 0.0
O302 O 0.62206 0.02369 0.82468 0.0
O303 O 0.63602 0.05638 0.81563 0.0
O304 O 0.68714 0.03412 0.80607 0.0
O305 O 0.67342 1.00016 0.80809 0.0
O306 O 0.60143 0.97148 0.8441 0.0
O307 O 0.61235 0.0051 0.83476 0.0
O308 O 0.66153 0.97966 0.81278 0.0
O309 O 0.65041 0.94893 0.82921 0.0
C310 C 0.6594 0.95841 0.81288 0.0
O311 O 0.66648 0.01973 0.86615 0.0
O312 O 0.67612 0.05397 0.85711 0.0
C313 C 0.65541 0.98306 0.88585 0.0
C314 C 0.67522 0.03859 0.87123 0.0
Zn315 Zn 0.04669 0.62266 0.85071 0.0
Zn316 Zn 0.97761 0.66386 0.83735 0.0
Zn317 Zn 0.01444 0.64287 0.8391 0.0
C318 C 0.96742 0.62076 0.82547 0.0
C319 C 0.0056 0.68031 0.80306 0.0
O320 O 0.02599 0.64882 0.87455 0.0
O321 O 0.04715 0.6203 0.88327 0.0
C322 C 0.02277 0.59109 0.82999 0.0
O323 O 0.98865 0.61915 0.82772 0.0
O324 O 0.95768 0.63854 0.83071 0.0
O325 O 0.98645 0.68138 0.81147 0.0
O326 O 0.02018 0.6671 0.81143 0.0
O327 O 0.04282 0.59466 0.83462 0.0
O328 O 0.00846 0.60686 0.83217 0.0
O329 O 0.04054 0.65358 0.81612 0.0
O330 O 0.06821 0.64383 0.8377 0.0
C331 C 0.06154 0.65235 0.81981 0.0
O332 O 0.00529 0.65917 0.87097 0.0
O333 O 0.97517 0.67941 0.86605 0.0
C334 C 0.03766 0.63798 0.88893 0.0
C335 C 0.99047 0.67264 0.87853 0.0
Zn336 Zn 0.17401 0.39508 0.96369 0.0
Zn337 Zn 0.1879 0.35811 0.03568 0.0
Zn338 Zn 0.18558 0.37586 0.99752 0.0
C339 C 0.19966 0.4021 0.04092 0.0
C340 C 0.22289 0.33972 0.01014 0.0
O341 O 0.15005 0.36815 0.98851 0.0
O342 O 0.14161 0.39318 0.96324 0.0
C343 C 0.19161 0.42925 0.98592 0.0
O344 O 0.19676 0.40164 0.01982 0.0
O345 O 0.19499 0.38537 0.05259 0.0
O346 O 0.21378 0.33985 0.02897 0.0
O347 O 0.21454 0.35157 0.99431 0.0
O348 O 0.18643 0.42532 0.96609 0.0
O349 O 0.19128 0.41323 1.00019 0.0
O350 O 0.20911 0.36311 0.97239 0.0
O351 O 0.18975 0.37464 0.94368 0.0
C352 C 0.20657 0.36475 0.95124 0.0
O353 O 0.15344 0.36051 0.01029 0.0
O354 O 0.15973 0.3429 0.04174 0.0
C355 C 0.13574 0.37734 0.97548 0.0
C356 C 0.14639 0.34873 0.0268 0.0
Zn357 Zn 0.19681 0.67549 0.97102 0.0
Zn358 Zn 0.17555 0.62308 0.0507 0.0
Zn359 Zn 0.19084 0.64537 0.02033 0.0
C360 C 0.21091 0.65014 0.0671 0.0
C361 C 0.19429 0.59166 0.02356 0.0
O362 O 0.16042 0.65998 0.00633 0.0
O363 O 0.16395 0.67979 0.97524 0.0
C364 C 0.22687 0.68361 0.01294 0.0
O365 O 0.21377 0.6554 0.04663 0.0
O366 O 0.1946 0.63824 0.07268 0.0
O367 O 0.18526 0.59315 0.04236 0.0
O368 O 0.1971 0.60934 0.01189 0.0
O369 O 0.21947 0.68686 0.9935 0.0
O370 O 0.21847 0.66887 0.02606 0.0
O371 O 0.20139 0.63791 0.98947 0.0
O372 O 0.20642 0.64746 0.95494 0.0
C373 C 0.20802 0.63318 0.9702 0.0
O374 O 0.15656 0.65513 0.0298 0.0
O375 O 0.1435 0.62935 0.05228 0.0
C376 C 0.15199 0.67142 0.99034 0.0
C377 C 0.14071 0.64711 0.04169 0.0
Zn378 Zn 0.36191 0.18968 0.98206 0.0
Zn379 Zn 0.39556 0.16978 0.05533 0.0
Zn380 Zn 0.37657 0.18253 0.02108 0.0
C381 C 0.36792 0.20523 0.0673 0.0
C382 C 0.43095 0.18239 0.0322 0.0
O383 O 0.3586 0.15245 0.00768 0.0
O384 O 0.34559 0.1626 0.97501 0.0
C385 C 0.3435 0.22316 0.00918 0.0
O386 O 0.36515 0.20684 0.04617 0.0
O387 O 0.37821 0.18881 0.07515 0.0
O388 O 0.42721 0.17749 0.05213 0.0
O389 O 0.41447 0.18426 0.01856 0.0
O390 O 0.3446 0.21607 0.98956 0.0
O391 O 0.35393 0.21274 0.02481 0.0
O392 O 0.40398 0.1926 0.99947 0.0
O393 O 0.38978 0.19587 0.9659 0.0
C394 C 0.40615 0.19751 0.97881 0.0
O395 O 0.36557 0.14779 0.02997 0.0
O396 O 0.38875 0.13826 0.05674 0.0
C397 C 0.34784 0.14792 0.98968 0.0
C398 C 0.37297 0.13338 0.04403 0.0
Zn399 Zn 0.84647 0.39133 0.05233 0.0
Zn400 Zn 0.84209 0.35708 0.99013 0.0
Zn401 Zn 0.83746 0.37739 0.01997 0.0
C402 C 0.80881 0.3909 0.98614 0.0
C403 C 0.80553 0.33837 0.00738 0.0
O404 O 0.85795 0.3519 0.03567 0.0
O405 O 0.87578 0.37683 0.05523 0.0
C406 C 0.84536 0.42762 0.02412 0.0
O407 O 0.80509 0.3834 0.00583 0.0
O408 O 0.82563 0.38364 0.97577 0.0
O409 O 0.82365 0.33084 0.99985 0.0
O410 O 0.80503 0.35882 0.01355 0.0
O411 O 0.84263 0.42324 0.0444 0.0
O412 O 0.84846 0.41144 0.01057 0.0
O413 O 0.8045 0.38129 0.03396 0.0
O414 O 0.82058 0.3763 0.06624 0.0
C415 C 0.80304 0.37777 0.05492 0.0
O416 O 0.86283 0.39392 0.99957 0.0
O417 O 0.87492 0.36007 0.99392 0.0
C418 C 0.87428 0.35722 0.04809 0.0
C419 C 0.87868 0.38069 0.99414 0.0
Zn420 Zn 0.64796 0.82116 0.97333 0.0
Zn421 Zn 0.6308 0.86547 0.03094 0.0
Zn422 Zn 0.64628 0.83209 0.01592 0.0
C423 C 0.6187 0.82918 0.05744 0.0
C424 C 0.59539 0.84949 0.01183 0.0
O425 O 0.64887 0.85984 0.99457 0.0
O426 O 0.64378 0.8516 0.95962 0.0
C427 C 0.68337 0.80022 0.99382 0.0
O428 O 0.62003 0.82075 0.03786 0.0
O429 O 0.6249 0.849 0.06034 0.0
O430 O 0.60389 0.86869 0.01127 0.0
O431 O 0.60818 0.83281 0.01607 0.0
O432 O 0.67827 0.80734 0.97477 0.0
O433 O 0.67199 0.80658 0.01065 0.0
O434 O 0.61821 0.80851 0.01449 0.0
O435 O 0.62336 0.79925 0.97915 0.0
C436 C 0.61394 0.7959 0.99765 0.0
O437 O 0.66532 0.84776 0.0427 0.0
O438 O 0.66029 0.88072 0.02838 0.0
C439 C 0.64718 0.86585 0.97455 0.0
C440 C 0.67048 0.86837 0.0419 0.0
Zn441 Zn 0.85594 0.62965 0.96575 0.0
Zn442 Zn 0.83121 0.66232 0.04201 0.0
Zn443 Zn 0.84038 0.64481 0.00258 0.0
C444 C 0.82181 0.61609 0.04252 0.0
C445 C 0.8013 0.68137 0.01139 0.0
O446 O 0.87527 0.65593 0.99649 0.0
O447 O 0.8866 0.6401 0.96542 0.0
C448 C 0.84303 0.59208 0.98885 0.0
O449 O 0.82858 0.61708 0.02232 0.0
O450 O 0.82242 0.63309 0.05475 0.0
O451 O 0.80669 0.6815 0.0316 0.0
O452 O 0.81186 0.66883 0.99755 0.0
O453 O 0.85087 0.59749 0.97022 0.0
O454 O 0.83813 0.60732 0.00312 0.0
O455 O 0.81743 0.65713 0.97745 0.0
O456 O 0.8344 0.64561 0.94711 0.0
C457 C 0.81805 0.65501 0.95622 0.0
O458 O 0.86961 0.66078 0.01845 0.0
O459 O 0.86001 0.67597 0.05041 0.0
C460 C 0.89039 0.65248 0.98176 0.0
C461 C 0.8747 0.67165 0.03615 0.0
Zn462 Zn 0.39947 0.85152 0.96494 0.0
Zn463 Zn 0.35508 0.83886 0.02008 0.0
Zn464 Zn 0.37892 0.83859 0.99258 0.0
C465 C 0.38611 0.80339 0.02338 0.0
C466 C 0.33681 0.80654 0.99778 0.0
O467 O 0.3569 0.86232 0.9764 0.0
O468 O 0.38594 0.88178 0.96649 0.0
C469 C 0.42983 0.84591 0.99816 0.0
O470 O 0.38175 0.80427 0.00244 0.0
O471 O 0.37854 0.8188 0.03556 0.0
O472 O 0.32871 0.82373 0.00661 0.0
O473 O 0.35769 0.80661 0.99287 0.0
O474 O 0.42948 0.84543 0.97728 0.0
O475 O 0.41133 0.84742 0.00882 0.0
O476 O 0.38373 0.80757 0.97491 0.0
O477 O 0.38694 0.8282 0.94503 0.0
C478 C 0.38476 0.80922 0.95369 0.0
O479 O 0.39236 0.86122 0.01813 0.0
O480 O 0.35766 0.87141 0.0222 0.0
C481 C 0.36525 0.88055 0.96952 0.0
C482 C 0.37803 0.87587 0.02417 0.0
Zn483 Zn 0.63126 0.17003 0.9691 0.0
Zn484 Zn 0.67908 0.19516 0.02705 0.0
Zn485 Zn 0.64884 0.18719 0.00157 0.0
C486 C 0.63582 0.21235 0.04081 0.0
C487 C 0.68927 0.22367 0.99627 0.0
O488 O 0.66342 0.15363 0.99554 0.0
O489 O 0.64734 0.14249 0.96462 0.0
C490 C 0.59619 0.18005 0.99823 0.0
O491 O 0.62738 0.20013 0.02566 0.0
O492 O 0.6566 0.2133 0.04354 0.0
O493 O 0.70049 0.21259 0.00995 0.0
O494 O 0.66928 0.21752 0.9915 0.0
O495 O 0.60071 0.16926 0.98087 0.0
O496 O 0.61211 0.18904 0.00939 0.0
O497 O 0.65364 0.21092 0.97379 0.0
O498 O 0.63637 0.1932 0.94691 0.0
C499 C 0.64623 0.21026 0.95377 0.0
O500 O 0.66514 0.15702 0.0193 0.0
O501 O 0.68992 0.16942 0.04313 0.0
C502 C 0.66131 0.13939 0.97978 0.0
C503 C 0.67898 0.15345 0.03543 0.0
Zn504 Zn 0.54466 0.68617 0.86383 0.0
Zn505 Zn 0.46889 0.66296 0.88841 0.0
Zn506 Zn 0.50398 0.67638 0.874 0.0
C507 C 0.45777 0.69774 0.86265 0.0
C508 C 0.48744 0.67643 0.92551 0.0
O509 O 0.51818 0.64838 0.8546 0.0
O510 O 0.55164 0.66017 0.84528 0.0
C511 C 0.51634 0.7193 0.84551 0.0
O512 O 0.47892 0.70056 0.86367 0.0
O513 O 0.44991 0.67884 0.86686 0.0
O514 O 0.46768 0.6735 0.91944 0.0
O515 O 0.50314 0.67675 0.91094 0.0
O516 O 0.53633 0.7138 0.84852 0.0
O517 O 0.50059 0.70703 0.85325 0.0
O518 O 0.52376 0.68531 0.90358 0.0
O519 O 0.55869 0.68993 0.89346 0.0
C520 C 0.544 0.69026 0.90837 0.0
O521 O 0.49636 0.6419 0.86116 0.0
O522 O 0.47095 0.63077 0.88502 0.0
C523 C 0.53683 0.64544 0.84452 0.0
C524 C 0.48358 0.62656 0.86895 0.0
Zn525 Zn 0.34732 0.46275 0.90176 0.0
Zn526 Zn 0.32372 0.5338 0.86104 0.0
Zn527 Zn 0.33069 0.49482 0.88025 0.0
C528 C 0.31383 0.53802 0.90578 0.0
C529 C 0.2922 0.50237 0.84434 0.0
O530 O 0.36599 0.48774 0.8707 0.0
O531 O 0.37909 0.46323 0.89459 0.0
C532 C 0.32948 0.4868 0.93482 0.0
O533 O 0.31865 0.51728 0.90533 0.0
O534 O 0.31602 0.54992 0.88872 0.0
O535 O 0.29849 0.5223 0.84367 0.0
O536 O 0.30239 0.48818 0.85677 0.0
O537 O 0.33861 0.46814 0.93279 0.0
O538 O 0.32596 0.49881 0.91743 0.0
O539 O 0.30897 0.46746 0.86947 0.0
O540 O 0.32875 0.44123 0.88563 0.0
C541 C 0.31222 0.44686 0.87407 0.0
O542 O 0.36081 0.50972 0.86392 0.0
O543 O 0.35221 0.54059 0.84618 0.0
C544 C 0.38206 0.4757 0.87813 0.0
C545 C 0.36657 0.52656 0.85199 0.0
Zn546 Zn 0.47993 0.32914 0.86062 0.0
Zn547 Zn 0.58362 0.33654 0.89325 0.0
Zn548 Zn 0.51957 0.33178 0.87152 0.0
C549 C 0.56085 0.31199 0.8588 0.0
C550 C 0.54404 0.32492 0.9237 0.0
O551 O 0.50668 0.36514 0.86024 0.0
O552 O 0.47227 0.35892 0.84934 0.0
C553 C 0.50179 0.29744 0.83439 0.0
O554 O 0.54059 0.30843 0.8538 0.0
O555 O 0.56542 0.33154 0.86474 0.0
O556 O 0.56488 0.32763 0.92025 0.0
O557 O 0.52917 0.3262 0.90801 0.0
O558 O 0.48281 0.30529 0.83849 0.0
O559 O 0.51886 0.30535 0.84469 0.0
O560 O 0.50563 0.31889 0.90103 0.0
O561 O 0.4705 0.31945 0.89085 0.0
C562 C 0.4852 0.31478 0.90504 0.0
O563 O 0.52771 0.36709 0.86796 0.0
O564 O 0.5572 0.35066 0.87838 0.0
C565 C 0.48824 0.37213 0.85189 0.0
C566 C 0.54719 0.36885 0.8758 0.0
Zn567 Zn 0.67447 0.55086 0.89445 0.0
Zn568 Zn 0.68526 0.49398 0.85256 0.0
Zn569 Zn 0.68835 0.52126 0.87681 0.0
C570 C 0.71868 0.4864 0.88512 0.0
C571 C 0.72063 0.51526 0.83618 0.0
O572 O 0.66657 0.53618 0.85215 0.0
O573 O 0.6453 0.54876 0.87886 0.0
C574 C 0.67756 0.51985 0.92757 0.0
O575 O 0.72096 0.50723 0.88101 0.0
O576 O 0.70278 0.47628 0.87586 0.0
O577 O 0.70256 0.50866 0.82774 0.0
O578 O 0.72114 0.51842 0.85736 0.0
O579 O 0.67833 0.54066 0.92586 0.0
O580 O 0.67727 0.50802 0.9098 0.0
O581 O 0.71888 0.53846 0.88306 0.0
O582 O 0.69903 0.56894 0.88119 0.0
C583 C 0.71781 0.55961 0.88156 0.0
O584 O 0.66426 0.49795 0.89091 0.0
O585 O 0.65249 0.49355 0.85671 0.0
C586 C 0.64799 0.54412 0.85862 0.0
C587 C 0.64894 0.49188 0.87735 0.0
Zn588 Zn 0.46769 0.34856 0.11238 0.0
Zn589 Zn 0.52793 0.33211 0.16713 0.0
Zn590 Zn 0.49678 0.33628 0.13764 0.0
C591 C 0.54465 0.31965 0.12498 0.0
C592 C 0.49569 0.30094 0.17823 0.0
O593 O 0.48678 0.37181 0.14339 0.0
O594 O 0.46592 0.38072 0.11477 0.0
C595 C 0.49738 0.33018 0.08381 0.0
O596 O 0.52487 0.32462 0.11864 0.0
O597 O 0.55025 0.32188 0.14502 0.0
O598 O 0.51352 0.30937 0.18512 0.0
O599 O 0.48634 0.30839 0.16046 0.0
O600 O 0.47756 0.33677 0.08384 0.0
O601 O 0.5083 0.32961 0.10225 0.0
O602 O 0.46821 0.31393 0.14524 0.0
O603 O 0.4431 0.3325 0.12629 0.0
C604 C 0.44794 0.31658 0.13891 0.0
O605 O 0.50732 0.36819 0.15435 0.0
O606 O 0.53221 0.36146 0.18035 0.0
C607 C 0.47521 0.38625 0.1326 0.0
C608 C 0.52066 0.37514 0.16963 0.0
Zn609 Zn 0.69154 0.53464 0.16344 0.0
Zn610 Zn 0.66757 0.46085 0.13033 0.0
Zn611 Zn 0.68322 0.49656 0.14489 0.0
C612 C 0.707 0.45112 0.15309 0.0
C613 C 0.6767 0.48521 0.09209 0.0
O614 O 0.65327 0.5117 0.1605 0.0
O615 O 0.66256 0.54365 0.17586 0.0
C616 C 0.72232 0.50586 0.18228 0.0
O617 O 0.70685 0.47204 0.15719 0.0
O618 O 0.69136 0.4425 0.14225 0.0
O619 O 0.66774 0.46734 0.0982 0.0
O620 O 0.68473 0.49841 0.10698 0.0
O621 O 0.71537 0.52551 0.18376 0.0
O622 O 0.71273 0.49212 0.16881 0.0
O623 O 0.696 0.51629 0.11768 0.0
O624 O 0.70252 0.54781 0.13525 0.0
C625 C 0.70381 0.53612 0.11792 0.0
O626 O 0.64766 0.48976 0.15605 0.0
O627 O 0.63871 0.45651 0.14361 0.0
C628 C 0.64797 0.52945 0.17123 0.0
C629 C 0.63371 0.47357 0.15444 0.0
Zn630 Zn 0.55562 0.6765 0.12215 0.0
Zn631 Zn 0.47704 0.69009 0.1611 0.0
Zn632 Zn 0.51588 0.68511 0.13943 0.0
C633 C 0.47074 0.69746 0.1147 0.0
C634 C 0.50551 0.72353 0.17586 0.0
O635 O 0.52784 0.65157 0.14944 0.0
O636 O 0.56074 0.64655 0.13385 0.0
C637 C 0.52561 0.68463 0.08705 0.0
O638 O 0.49168 0.69335 0.11375 0.0
O639 O 0.46049 0.69626 0.13296 0.0
O640 O 0.48633 0.71583 0.17912 0.0
O641 O 0.51876 0.71432 0.16184 0.0
O642 O 0.54571 0.68013 0.0909 0.0
O643 O 0.51179 0.68707 0.10317 0.0
O644 O 0.53861 0.71151 0.14966 0.0
O645 O 0.57122 0.70172 0.13601 0.0
C646 C 0.55937 0.71545 0.14647 0.0
O647 O 0.50603 0.65438 0.15686 0.0
O648 O 0.47494 0.66056 0.1754 0.0
C649 C 0.54515 0.63952 0.14587 0.0
C650 C 0.49033 0.64758 0.16971 0.0
Zn651 Zn 0.34792 0.55904 0.12688 0.0
Zn652 Zn 0.32517 0.4908 0.1711 0.0
Zn653 Zn 0.33235 0.52669 0.14853 0.0
C654 C 0.3107 0.4843 0.12713 0.0
C655 C 0.29654 0.52264 0.18873 0.0
O656 O 0.36805 0.53387 0.15703 0.0
O657 O 0.3796 0.55962 0.13358 0.0
C658 C 0.33029 0.53335 0.09431 0.0
O659 O 0.31861 0.5039 0.12459 0.0
O660 O 0.31182 0.47473 0.14571 0.0
O661 O 0.30396 0.50344 0.19231 0.0
O662 O 0.3046 0.53455 0.17281 0.0
O663 O 0.33909 0.55219 0.09618 0.0
O664 O 0.32694 0.5214 0.11178 0.0
O665 O 0.31078 0.55425 0.15917 0.0
O666 O 0.32941 0.58092 0.14237 0.0
C667 C 0.31323 0.57488 0.1542 0.0
O668 O 0.36324 0.51136 0.16292 0.0
O669 O 0.35446 0.48094 0.1813 0.0
C670 C 0.38346 0.54675 0.14952 0.0
C671 C 0.36908 0.49392 0.17395 0.0
Zn672 Zn 0.89956 0.47632 0.65424 0.0
Zn673 Zn 0.85135 0.51749 0.68458 0.0
Zn674 Zn 0.88268 0.49073 0.68722 0.0
C675 C 0.87894 0.52961 0.71872 0.0
C676 C 0.83743 0.49294 0.71756 0.0
O677 O 0.85872 0.47429 0.6625 0.0
O678 O 0.87735 0.48012 0.63155 0.0
C679 C 0.9344 0.4936 0.67399 0.0
O680 O 0.87895 0.50843 0.71786 0.0
O681 O 0.86923 0.54011 0.7034 0.0
O682 O 0.82802 0.49935 0.69998 0.0
O683 O 0.85889 0.49157 0.71758 0.0
O684 O 0.92721 0.49439 0.65435 0.0
O685 O 0.92056 0.48859 0.6896 0.0
O686 O 0.90632 0.46522 0.69569 0.0
O687 O 0.90217 0.44461 0.66625 0.0
C688 C 0.90798 0.4463 0.68627 0.0
O689 O 0.88577 0.51536 0.65993 0.0
O690 O 0.85075 0.52281 0.65269 0.0
C691 C 0.85974 0.47402 0.64106 0.0
C692 C 0.87096 0.52397 0.6473 0.0
Zn693 Zn 0.54633 0.89546 0.67949 0.0
Zn694 Zn 0.49022 0.85324 0.69537 0.0
Zn695 Zn 0.51979 0.87418 0.69074 0.0
C696 C 0.49632 0.88737 0.72771 0.0
C697 C 0.51291 0.83416 0.72595 0.0
O698 O 0.53806 0.85562 0.66618 0.0
O699 O 0.53792 0.88706 0.64858 0.0
C700 C 0.51407 0.92468 0.68837 0.0
O701 O 0.51624 0.87985 0.72557 0.0
O702 O 0.48153 0.88069 0.71431 0.0
O703 O 0.49962 0.82664 0.71169 0.0
O704 O 0.52134 0.8536 0.72299 0.0
O705 O 0.53461 0.92329 0.69208 0.0
O706 O 0.50358 0.907 0.68252 0.0
O707 O 0.5406 0.87955 0.72001 0.0
O708 O 0.56896 0.87869 0.69723 0.0
C709 C 0.5617 0.87849 0.71689 0.0
O710 O 0.49236 0.88797 0.67066 0.0
O711 O 0.48782 0.85286 0.66288 0.0
C712 C 0.5399 0.86629 0.64802 0.0
C713 C 0.48523 0.87285 0.65747 0.0
Zn714 Zn 0.17116 0.50072 0.68389 0.0
Zn715 Zn 0.1264 0.55601 0.67034 0.0
Zn716 Zn 0.14866 0.52947 0.68266 0.0
C717 C 0.14206 0.56932 0.7109 0.0
C718 C 0.09812 0.52129 0.67794 0.0
O719 O 0.13553 0.50409 0.65971 0.0
O720 O 0.17049 0.49883 0.65125 0.0
C721 C 0.18986 0.52211 0.71616 0.0
O722 O 0.14299 0.54816 0.71307 0.0
O723 O 0.13991 0.57743 0.69169 0.0
O724 O 0.09767 0.5421 0.67964 0.0
O725 O 0.11685 0.51177 0.67391 0.0
O726 O 0.1979 0.51197 0.69971 0.0
O727 O 0.16952 0.52877 0.71499 0.0
O728 O 0.14405 0.52216 0.7172 0.0
O729 O 0.14489 0.48864 0.70307 0.0
C730 C 0.13756 0.5018 0.7178 0.0
O731 O 0.16917 0.5468 0.65862 0.0
O732 O 0.13884 0.55273 0.63957 0.0
C733 C 0.15035 0.49767 0.64572 0.0
C734 C 0.15976 0.5517 0.64027 0.0
Zn735 Zn 0.46335 0.12695 0.66595 0.0
Zn736 Zn 0.53763 0.15177 0.69012 0.0
Zn737 Zn 0.49954 0.14045 0.67956 0.0
C738 C 0.53745 0.10822 0.69936 0.0
C739 C 0.50966 0.1762 0.71792 0.0
O740 O 0.49654 0.14997 0.64352 0.0
O741 O 0.46538 0.133 0.63451 0.0
C742 C 0.4824 0.08838 0.6794 0.0
O743 O 0.51749 0.11136 0.69244 0.0
O744 O 0.55133 0.12379 0.69889 0.0
O745 O 0.52977 0.17238 0.71371 0.0
O746 O 0.49442 0.16538 0.70742 0.0
O747 O 0.46359 0.09505 0.67321 0.0
O748 O 0.4981 0.10272 0.68238 0.0
O749 O 0.47342 0.15336 0.7025 0.0
O750 O 0.44321 0.1453 0.6836 0.0
C751 C 0.45204 0.15294 0.7009 0.0
O752 O 0.51697 0.15813 0.65069 0.0
O753 O 0.54974 0.16676 0.66458 0.0
C754 C 0.482 0.14429 0.62889 0.0
C755 C 0.5363 0.16734 0.64867 0.0
Zn756 Zn 0.85568 0.4953 0.33757 0.0
Zn757 Zn 0.88945 0.55832 0.34714 0.0
Zn758 Zn 0.87606 0.52573 0.33715 0.0
C759 C 0.87854 0.5628 0.30375 0.0
C760 C 0.92642 0.53097 0.34799 0.0
O761 O 0.89207 0.50332 0.36171 0.0
O762 O 0.85794 0.49374 0.37001 0.0
C763 C 0.83507 0.51539 0.30499 0.0
O764 O 0.88123 0.54171 0.30513 0.0
O765 O 0.87596 0.57386 0.32133 0.0
O766 O 0.9216 0.55119 0.34566 0.0
O767 O 0.91045 0.51672 0.3485 0.0
O768 O 0.82812 0.50592 0.32234 0.0
O769 O 0.85543 0.52222 0.30478 0.0
O770 O 0.88059 0.51443 0.30332 0.0
O771 O 0.87999 0.48113 0.31784 0.0
C772 C 0.88642 0.49387 0.30239 0.0
O773 O 0.85049 0.53873 0.35932 0.0
O774 O 0.8749 0.55968 0.37627 0.0
C775 C 0.87802 0.49527 0.37571 0.0
C776 C 0.856 0.55079 0.37584 0.0
Zn777 Zn 0.49075 0.8962 0.35939 0.0
Zn778 Zn 0.52287 0.84417 0.32658 0.0
Zn779 Zn 0.50311 0.87884 0.32452 0.0
C780 C 0.54474 0.87164 0.29694 0.0
C781 C 0.49893 0.83846 0.29174 0.0
O782 O 0.48094 0.85744 0.34473 0.0
O783 O 0.49137 0.86929 0.37774 0.0
C784 C 0.50882 0.92839 0.33596 0.0
O785 O 0.52402 0.87606 0.29532 0.0
O786 O 0.55063 0.858 0.31168 0.0
O787 O 0.50047 0.82711 0.30923 0.0
O788 O 0.50342 0.85927 0.29278 0.0
O789 O 0.51272 0.92157 0.35547 0.0
O790 O 0.50082 0.91471 0.32181 0.0
O791 O 0.47613 0.90272 0.31833 0.0
O792 O 0.45899 0.9028 0.35036 0.0
C793 C 0.45864 0.90673 0.32984 0.0
O794 O 0.52725 0.87544 0.35305 0.0
O795 O 0.52699 0.83918 0.35765 0.0
C796 C 0.48057 0.85564 0.366 0.0
C797 C 0.53277 0.85812 0.36435 0.0
Zn798 Zn 0.12203 0.45996 0.36261 0.0
Zn799 Zn 0.16347 0.51854 0.34339 0.0
Zn800 Zn 0.14162 0.48687 0.33801 0.0
C801 C 0.13579 0.52593 0.30823 0.0
C802 C 0.186 0.50273 0.31065 0.0
O803 O 0.16525 0.47705 0.36529 0.0
O804 O 0.13926 0.46694 0.38908 0.0
C805 C 0.09045 0.49158 0.35029 0.0
O806 O 0.14201 0.50565 0.30739 0.0
O807 O 0.14053 0.53683 0.32547 0.0
O808 O 0.19245 0.51082 0.32881 0.0
O809 O 0.16581 0.49561 0.30943 0.0
O810 O 0.09192 0.4719 0.35711 0.0
O811 O 0.10833 0.50239 0.34565 0.0
O812 O 0.13226 0.45541 0.32302 0.0
O813 O 0.12737 0.43059 0.34902 0.0
C814 C 0.12898 0.43529 0.32874 0.0
O815 O 0.12922 0.50753 0.36726 0.0
O816 O 0.16189 0.52203 0.37499 0.0
C817 C 0.1594 0.47096 0.38495 0.0
C818 C 0.14203 0.51845 0.38051 0.0
Zn819 Zn 0.54447 0.12652 0.32488 0.0
Zn820 Zn 0.45937 0.18161 0.32925 0.0
Zn821 Zn 0.50912 0.14247 0.32574 0.0
C822 C 0.45882 0.14151 0.3167 0.0
C823 C 0.49686 0.18475 0.29297 0.0
O824 O 0.52433 0.1462 0.35886 0.0
O825 O 0.54891 0.11935 0.35638 0.0
C826 C 0.51875 0.09316 0.3119 0.0
O827 O 0.4768 0.14861 0.3247 0.0
O828 O 0.44186 0.15362 0.31923 0.0
O829 O 0.47978 0.19118 0.30364 0.0
O830 O 0.50849 0.16761 0.29865 0.0
O831 O 0.53775 0.10013 0.30653 0.0
O832 O 0.50516 0.10658 0.32112 0.0
O833 O 0.52963 0.1552 0.29799 0.0
O834 O 0.56302 0.15 0.31128 0.0
C835 C 0.55083 0.15672 0.29569 0.0
O836 O 0.50256 0.1567 0.35887 0.0
O837 O 0.47325 0.1798 0.36016 0.0
C838 C 0.5385 0.13316 0.36803 0.0
C839 C 0.48928 0.16976 0.36953 0.0
Zn840 Zn 0.67968 0.89621 0.47757 0.0
Zn841 Zn 0.68964 0.84828 0.5316 0.0
Zn842 Zn 0.68713 0.8731 0.50379 0.0
C843 C 0.72544 0.88013 0.52916 0.0
C844 C 0.71761 0.83011 0.50384 0.0
O845 O 0.66069 0.85807 0.485 0.0
O846 O 0.64734 0.89159 0.48297 0.0
C847 C 0.6905 0.92306 0.51127 0.0
O848 O 0.72255 0.87509 0.50856 0.0
O849 O 0.71162 0.87264 0.54322 0.0
O850 O 0.70207 0.82194 0.51525 0.0
O851 O 0.71762 0.85107 0.50011 0.0
O852 O 0.69533 0.92199 0.49096 0.0
O853 O 0.68209 0.90583 0.52068 0.0
O854 O 0.71741 0.87462 0.48423 0.0
O855 O 0.69576 0.87779 0.45521 0.0
C856 C 0.71493 0.87467 0.46302 0.0
O857 O 0.66923 0.88746 0.53143 0.0
O858 O 0.6571 0.85326 0.53349 0.0
C859 C 0.64424 0.87096 0.4816 0.0
C860 C 0.654 0.87365 0.53692 0.0
Zn861 Zn 0.67965 0.16782 0.49124 0.0
Zn862 Zn 0.65493 0.12156 0.53524 0.0
Zn863 Zn 0.68639 0.1384 0.51729 0.0
C864 C 0.68853 0.11545 0.56386 0.0
C865 C 0.67541 0.08684 0.51897 0.0
O866 O 0.65641 0.13453 0.4953 0.0
O867 O 0.64758 0.16945 0.48907 0.0
C868 C 0.71611 0.18289 0.50973 0.0
O869 O 0.69706 0.11704 0.54445 0.0
O870 O 0.66833 0.1203 0.56634 0.0
O871 O 0.65538 0.09306 0.51801 0.0
O872 O 0.69044 0.10162 0.52248 0.0
O873 O 0.69789 0.19203 0.50489 0.0
O874 O 0.71644 0.16154 0.51184 0.0
O875 O 0.71463 0.14092 0.49543 0.0
O876 O 0.69362 0.14778 0.467 0.0
C877 C 0.71099 0.13897 0.47466 0.0
O878 O 0.66307 0.16285 0.53454 0.0
O879 O 0.63188 0.14369 0.53277 0.0
C880 C 0.64275 0.14911 0.48778 0.0
C881 C 0.64178 0.16163 0.53701 0.0
Zn882 Zn 0.89496 0.68349 0.54526 0.0
Zn883 Zn 0.84295 0.67739 0.45383 0.0
Zn884 Zn 0.87781 0.68332 0.5101 0.0
C885 C 0.88468 0.69203 0.45827 0.0
C886 C 0.83635 0.71388 0.49389 0.0
O887 O 0.87552 0.64993 0.52599 0.0
O888 O 0.90457 0.65231 0.54798 0.0
C889 C 0.92556 0.70098 0.51866 0.0
O890 O 0.87709 0.68462 0.4763 0.0
O891 O 0.87372 0.68766 0.4409 0.0
O892 O 0.83272 0.70252 0.47631 0.0
O893 O 0.85233 0.70951 0.5075 0.0
O894 O 0.91885 0.70524 0.53804 0.0
O895 O 0.91298 0.68989 0.50568 0.0
O896 O 0.86527 0.71102 0.52901 0.0
O897 O 0.86659 0.69281 0.56002 0.0
C898 C 0.86296 0.71084 0.55011 0.0
O899 O 0.86147 0.65149 0.50851 0.0
O900 O 0.83931 0.66951 0.48688 0.0
C901 C 0.88982 0.64068 0.5389 0.0
C902 C 0.84554 0.65109 0.49451 0.0
Zn903 Zn 0.32921 0.84383 0.49657 0.0
Zn904 Zn 0.36101 0.9016 0.51724 0.0
Zn905 Zn 0.32978 0.87632 0.51501 0.0
C906 C 0.33955 0.90354 0.55796 0.0
C907 C 0.33347 0.92366 0.49505 0.0
O908 O 0.35547 0.87152 0.48742 0.0
O909 O 0.35948 0.83553 0.48935 0.0
C910 C 0.29657 0.83379 0.52015 0.0
O911 O 0.33414 0.88453 0.55009 0.0
O912 O 0.35044 0.91673 0.5458 0.0
O913 O 0.35256 0.91722 0.48896 0.0
O914 O 0.32217 0.91098 0.50778 0.0
O915 O 0.31383 0.82276 0.51615 0.0
O916 O 0.29791 0.85506 0.51902 0.0
O917 O 0.29695 0.87692 0.50362 0.0
O918 O 0.31073 0.86298 0.47327 0.0
C919 C 0.29642 0.87541 0.48249 0.0
O920 O 0.35132 0.86477 0.54186 0.0
O921 O 0.38045 0.87484 0.52235 0.0
C922 C 0.36598 0.85384 0.48182 0.0
C923 C 0.37243 0.86408 0.53853 0.0
Zn924 Zn 0.16969 0.32481 0.49234 0.0
Zn925 Zn 0.12338 0.34158 0.55412 0.0
Zn926 Zn 0.146 0.3318 0.52481 0.0
C927 C 0.15233 0.3155 0.57438 0.0
C928 C 0.09267 0.32248 0.53055 0.0
O929 O 0.16401 0.36269 0.51222 0.0
O930 O 0.18887 0.35054 0.48831 0.0
C931 C 0.18118 0.29156 0.52143 0.0
O932 O 0.15514 0.31052 0.55376 0.0
O933 O 0.1428 0.33348 0.57911 0.0
O934 O 0.09563 0.32453 0.55111 0.0
O935 O 0.10927 0.32578 0.51733 0.0
O936 O 0.18379 0.29741 0.50158 0.0
O937 O 0.16855 0.30304 0.53444 0.0
O938 O 0.1238 0.32016 0.49947 0.0
O939 O 0.14591 0.32064 0.47028 0.0
C940 C 0.12704 0.31723 0.47864 0.0
O941 O 0.15093 0.36793 0.53163 0.0
O942 O 0.11919 0.37328 0.54887 0.0
C943 C 0.18002 0.36653 0.49838 0.0
C944 C 0.13647 0.38116 0.54026 0.0
Zn945 Zn 0.34606 0.12041 0.46505 0.0
Zn946 Zn 0.33262 0.16401 0.53255 0.0
Zn947 Zn 0.33495 0.14052 0.49874 0.0
C948 C 0.31454 0.12173 0.54262 0.0
C949 C 0.30236 0.18308 0.50482 0.0
O950 O 0.37056 0.14714 0.4881 0.0
O951 O 0.37836 0.12215 0.46244 0.0
C952 C 0.32804 0.08784 0.49061 0.0
O953 O 0.32212 0.11691 0.52326 0.0
O954 O 0.317 0.14108 0.55016 0.0
O955 O 0.31373 0.18792 0.52164 0.0
O956 O 0.30689 0.16531 0.4937 0.0
O957 O 0.33359 0.09084 0.47072 0.0
O958 O 0.32846 0.10418 0.50445 0.0
O959 O 0.3113 0.15202 0.47294 0.0
O960 O 0.32931 0.13876 0.44406 0.0
C961 C 0.31296 0.14926 0.45181 0.0
O962 O 0.36812 0.15476 0.51016 0.0
O963 O 0.36238 0.17237 0.54169 0.0
C964 C 0.38443 0.1381 0.47439 0.0
C965 C 0.37565 0.16563 0.52706 0.0
Zn966 Zn 0.89864 0.34138 0.46637 0.0
Zn967 Zn 0.85949 0.3195 0.53278 0.0
Zn968 Zn 0.87769 0.33189 0.49754 0.0
C969 C 0.90269 0.31014 0.5392 0.0
C970 C 0.84113 0.29205 0.50091 0.0
O971 O 0.87359 0.36868 0.49339 0.0
O972 O 0.9037 0.37261 0.47312 0.0
C973 C 0.93097 0.32259 0.48677 0.0
O974 O 0.9025 0.31709 0.51906 0.0
O975 O 0.8854 0.31123 0.55091 0.0
O976 O 0.84191 0.29456 0.52161 0.0
O977 O 0.85264 0.30493 0.48813 0.0
O978 O 0.92678 0.32453 0.46641 0.0
O979 O 0.91506 0.32553 0.50094 0.0
O980 O 0.86518 0.31252 0.46862 0.0
O981 O 0.87735 0.33474 0.44252 0.0
C982 C 0.86691 0.31745 0.44787 0.0
O983 O 0.86118 0.36207 0.5132 0.0
O984 O 0.84335 0.34629 0.54098 0.0
C985 C 0.88807 0.38128 0.48387 0.0
C986 C 0.84808 0.36351 0.53014 0.0
Zn987 Zn 0.12084 0.68242 0.46424 0.0
Zn988 Zn 0.15371 0.69531 0.53566 0.0
Zn989 Zn 0.13871 0.68884 0.49775 0.0
C990 C 0.11056 0.70118 0.54145 0.0
C991 C 0.16951 0.73003 0.50889 0.0
O992 O 0.14306 0.65291 0.48995 0.0
O993 O 0.11367 0.65101 0.46843 0.0
C994 C 0.08798 0.70096 0.48483 0.0
O995 O 0.11297 0.69951 0.52036 0.0
O996 O 0.12641 0.69642 0.55422 0.0
O997 O 0.16662 0.72457 0.52887 0.0
O998 O 0.16199 0.71749 0.49329 0.0
O999 O 0.09401 0.70171 0.46481 0.0
O1000 O 0.10212 0.69496 0.49972 0.0
O1001 O 0.15141 0.71168 0.47195 0.0
O1002 O 0.14557 0.6898 0.44368 0.0
C1003 C 0.15256 0.70808 0.45093 0.0
O1004 O 0.15586 0.65785 0.50922 0.0
O1005 O 0.17404 0.6699 0.53854 0.0
C1006 C 0.12867 0.64131 0.47919 0.0
C1007 C 0.16972 0.65446 0.52517 0.0
H1008 H 0.99858 0.18202 0.56935 0.0
H1009 H 0.06714 0.19756 0.55606 0.0
H1010 H 0.98909 0.19167 0.53104 0.0
H1011 H 0.05789 0.20638 0.51771 0.0
H1012 H 0.03319 0.18721 0.44584 0.0
H1013 H 0.04481 0.1846 0.48455 0.0
H1014 H 0.9885 0.2242 0.50418 0.0
H1015 H 0.97738 0.22746 0.46541 0.0
C1016 C 0.0115 0.188 0.55843 0.0
C1017 C 0.03349 0.18952 0.56592 0.0
C1018 C 0.00614 0.19336 0.53643 0.0
C1019 C 0.02277 0.19984 0.52129 0.0
C1020 C 0.04473 0.20133 0.52885 0.0
C1021 C 0.05 0.19628 0.55085 0.0
C1022 C 0.02398 0.19633 0.45824 0.0
C1023 C 0.00469 0.20799 0.4524 0.0
C1024 C 0.03039 0.19452 0.48052 0.0
C1025 C 0.01742 0.20399 0.4975 0.0
C1026 C 0.99868 0.21646 0.49155 0.0
C1027 C 0.99246 0.21851 0.4693 0.0
H1028 H 0.81117 0.01581 0.56262 0.0
H1029 H 0.87824 0.04023 0.5642 0.0
H1030 H 0.81335 0.0124 0.52219 0.0
H1031 H 0.88036 0.03767 0.52388 0.0
H1032 H 0.88324 0.0031 0.45497 0.0
H1033 H 0.88202 0.00982 0.49485 0.0
H1034 H 0.81548 0.0356 0.48845 0.0
H1035 H 0.81691 0.02876 0.44836 0.0
C1036 C 0.82655 0.01983 0.55438 0.0
C1037 C 0.84476 0.0275 0.56662 0.0
C1038 C 0.82767 0.01846 0.53116 0.0
C1039 C 0.84706 0.0248 0.51968 0.0
C1040 C 0.86526 0.03241 0.53208 0.0
C1041 C 0.86406 0.03388 0.5552 0.0
C1042 C 0.86873 0.01101 0.46202 0.0
C1043 C 0.85042 0.01597 0.44857 0.0
C1044 C 0.8679 0.0147 0.4849 0.0
C1045 C 0.84856 0.02306 0.49499 0.0
C1046 C 0.83054 0.02889 0.48131 0.0
C1047 C 0.83149 0.02541 0.45831 0.0
H1048 H 0.9739 0.87193 0.56842 0.0
H1049 H 0.00357 0.80814 0.58031 0.0
H1050 H 0.98082 0.86781 0.52891 0.0
H1051 H 0.01169 0.80434 0.54081 0.0
H1052 H 0.00878 0.79724 0.46468 0.0
H1053 H 0.99721 0.79902 0.50373 0.0
H1054 H 0.011 0.86927 0.50408 0.0
H1055 H 0.02147 0.86741 0.46522 0.0
C1056 C 0.98208 0.85702 0.56266 0.0
C1057 C 0.98868 0.84057 0.57778 0.0
C1058 C 0.98621 0.8547 0.5399 0.0
C1059 C 0.99714 0.83586 0.53145 0.0
C1060 C 0.00321 0.81909 0.54652 0.0
C1061 C 0.99896 0.82142 0.56933 0.0
C1062 C 0.00848 0.81311 0.47297 0.0
C1063 C 0.01525 0.83232 0.4617 0.0
C1064 C 0.00231 0.81412 0.4955 0.0
C1065 C 0.00292 0.83437 0.50723 0.0
C1066 C 0.00972 0.85347 0.49569 0.0
C1067 C 0.01582 0.85243 0.47336 0.0
H1068 H 0.17963 0.95675 0.56053 0.0
H1069 H 0.21143 0.02031 0.56899 0.0
H1070 H 0.17839 0.96257 0.5207 0.0
H1071 H 0.2104 0.02596 0.52866 0.0
H1072 H 0.22004 0.01694 0.45185 0.0
H1073 H 0.22597 0.00755 0.49117 0.0
H1074 H 0.1566 0.99095 0.49745 0.0
H1075 H 0.15075 0.00068 0.45861 0.0
C1076 C 0.18656 0.97193 0.55391 0.0
C1077 C 0.1956 0.98811 0.56807 0.0
C1078 C 0.18581 0.97522 0.53103 0.0
C1079 C 0.19436 0.99464 0.52155 0.0
C1080 C 0.20389 0.0107 0.53553 0.0
C1081 C 0.20432 0.00756 0.55861 0.0
C1082 C 0.2063 0.01063 0.46157 0.0
C1083 C 0.18504 0.00907 0.45222 0.0
C1084 C 0.20959 0.0056 0.48407 0.0
C1085 C 0.19171 0.99864 0.49737 0.0
C1086 C 0.17072 0.99611 0.48759 0.0
C1087 C 0.16739 0.0015 0.46535 0.0
H1088 H 0.56367 0.97353 0.16903 0.0
H1089 H 0.56728 0.02725 0.2161 0.0
H1090 H 0.52389 0.97017 0.1759 0.0
H1091 H 0.52709 0.02416 0.22258 0.0
H1092 H 0.45097 0.0251 0.19278 0.0
H1093 H 0.49136 0.0295 0.19374 0.0
H1094 H 0.49842 0.96062 0.21126 0.0
H1095 H 0.4582 0.95646 0.21157 0.0
C1096 C 0.556 0.98444 0.18106 0.0
C1097 C 0.56865 0.00053 0.19214 0.0
C1098 C 0.53323 0.98252 0.18498 0.0
C1099 C 0.52243 0.99692 0.19974 0.0
C1100 C 0.53503 0.01289 0.21108 0.0
C1101 C 0.55802 0.01451 0.20751 0.0
C1102 C 0.46103 0.01116 0.19777 0.0
C1103 C 0.45119 0.99055 0.20248 0.0
C1104 C 0.4842 0.01363 0.19811 0.0
C1105 C 0.49798 0.99538 0.20257 0.0
C1106 C 0.48818 0.97495 0.20775 0.0
C1107 C 0.46511 0.9726 0.20787 0.0
H1108 H 0.96957 0.56094 0.20347 0.0
H1109 H 0.0364 0.57045 0.17959 0.0
H1110 H 0.97544 0.52097 0.20432 0.0
H1111 H 0.04239 0.53045 0.18053 0.0
H1112 H 0.05229 0.45902 0.2007 0.0
H1113 H 0.04583 0.49862 0.20484 0.0
H1114 H 0.98 0.49067 0.17777 0.0
H1115 H 0.98662 0.45082 0.17362 0.0
C1116 C 0.98565 0.55449 0.19867 0.0
C1117 C 0.00266 0.56891 0.19176 0.0
C1118 C 0.98894 0.53156 0.19901 0.0
C1119 C 0.00934 0.52243 0.19241 0.0
C1120 C 0.02656 0.53691 0.18603 0.0
C1121 C 0.02321 0.55988 0.18562 0.0
C1122 C 0.03634 0.4657 0.19581 0.0
C1123 C 0.01986 0.45179 0.18703 0.0
C1124 C 0.0327 0.48844 0.19808 0.0
C1125 C 0.01248 0.49792 0.1915 0.0
C1126 C 0.9957 0.4839 0.18324 0.0
C1127 C 0.99941 0.46106 0.18091 0.0
H1128 H 0.57708 0.03174 0.84193 0.0
H1129 H 0.5624 0.96326 0.82773 0.0
H1130 H 0.53778 0.04082 0.83871 0.0
H1131 H 0.52309 0.97225 0.82437 0.0
H1132 H 0.45284 0.99334 0.84878 0.0
H1133 H 0.49201 0.98269 0.84716 0.0
H1134 H 0.50725 0.04413 0.81365 0.0
H1135 H 0.46824 0.05474 0.81568 0.0
C1136 C 0.56552 0.01871 0.83769 0.0
C1137 C 0.57293 0.99685 0.83486 0.0
C1138 C 0.54293 0.02387 0.83584 0.0
C1139 C 0.52714 0.00727 0.83127 0.0
C1140 C 0.53465 0.98543 0.82821 0.0
C1141 C 0.55723 0.98029 0.83005 0.0
C1142 C 0.46455 0.00429 0.84069 0.0
C1143 C 0.45752 0.02476 0.8322 0.0
C1144 C 0.48702 0.99825 0.83976 0.0
C1145 C 0.50293 0.01266 0.83047 0.0
C1146 C 0.49562 0.03281 0.82134 0.0
C1147 C 0.47324 0.03883 0.82234 0.0
H1148 H 0.04873 0.56073 0.80952 0.0
H1149 H 0.9833 0.56953 0.83738 0.0
H1150 H 0.04141 0.52133 0.80451 0.0
H1151 H 0.97565 0.53006 0.83149 0.0
H1152 H 0.96733 0.45976 0.79997 0.0
H1153 H 0.97332 0.49987 0.79966 0.0
H1154 H 0.03508 0.49082 0.83458 0.0
H1155 H 0.02862 0.45094 0.83589 0.0
C1156 C 0.03257 0.55433 0.81413 0.0
C1157 C 0.01647 0.56828 0.82365 0.0
C1158 C 0.02845 0.53178 0.8113 0.0
C1159 C 0.00803 0.52268 0.8177 0.0
C1160 C 0.99148 0.53674 0.82624 0.0
C1161 C 0.99577 0.55934 0.82945 0.0
C1162 C 0.98227 0.46632 0.80745 0.0
C1163 C 0.99779 0.45209 0.8175 0.0
C1164 C 0.98563 0.48925 0.8073 0.0
C1165 C 0.0047 0.49838 0.81696 0.0
C1166 C 0.02039 0.48417 0.8267 0.0
C1167 C 0.01679 0.46131 0.82727 0.0
H1168 H 0.19237 0.57311 0.98158 0.0
H1169 H 0.20977 0.5584 0.04928 0.0
H1170 H 0.19501 0.53355 0.97254 0.0
H1171 H 0.21286 0.51929 0.04037 0.0
H1172 H 0.18295 0.45068 0.02514 0.0
H1173 H 0.18765 0.49001 0.03327 0.0
H1174 H 0.21614 0.50012 0.96831 0.0
H1175 H 0.21113 0.46082 0.96023 0.0
C1176 C 0.19744 0.56157 0.99433 0.0
C1177 C 0.2007 0.56896 0.01614 0.0
C1178 C 0.19886 0.53881 0.98924 0.0
C1179 C 0.20364 0.52297 0.00586 0.0
C1180 C 0.20846 0.53073 0.02726 0.0
C1181 C 0.20691 0.55329 0.03231 0.0
C1182 C 0.19069 0.46121 0.01283 0.0
C1183 C 0.19688 0.45253 0.99216 0.0
C1184 C 0.19338 0.48386 0.01742 0.0
C1185 C 0.20226 0.4985 0.00141 0.0
C1186 C 0.20893 0.48959 0.98093 0.0
C1187 C 0.2062 0.46698 0.97636 0.0
H1188 H 0.56201 0.1787 0.96936 0.0
H1189 H 0.5757 0.18773 0.03892 0.0
H1190 H 0.52274 0.18132 0.97627 0.0
H1191 H 0.53573 0.189 0.04634 0.0
H1192 H 0.46301 0.20581 0.05318 0.0
H1193 H 0.50251 0.20716 0.04491 0.0
H1194 H 0.49167 0.16439 0.98839 0.0
H1195 H 0.45191 0.16468 0.99599 0.0
C1196 C 0.55658 0.18107 0.98632 0.0
C1197 C 0.57217 0.18291 0.00363 0.0
C1198 C 0.5338 0.18236 0.99034 0.0
C1199 C 0.52553 0.18512 0.01195 0.0
C1200 C 0.54117 0.18721 0.02936 0.0
C1201 C 0.56421 0.18637 0.02521 0.0
C1202 C 0.46913 0.19706 0.03874 0.0
C1203 C 0.45439 0.18526 0.02515 0.0
C1204 C 0.49192 0.19753 0.03414 0.0
C1205 C 0.50082 0.18565 0.01611 0.0
C1206 C 0.48579 0.17414 0.00224 0.0
C1207 C 0.46286 0.1742 0.00655 0.0
H1208 H 0.83706 0.55839 0.95942 0.0
H1209 H 0.84481 0.57115 0.0293 0.0
H1210 H 0.83661 0.51864 0.96655 0.0
H1211 H 0.84463 0.53141 0.03653 0.0
H1212 H 0.82475 0.46062 0.04624 0.0
H1213 H 0.82227 0.49951 0.03711 0.0
H1214 H 0.85945 0.48781 0.97698 0.0
H1215 H 0.86121 0.44809 0.98592 0.0
C1216 C 0.83851 0.5527 0.97638 0.0
C1217 C 0.84065 0.56803 0.99386 0.0
C1218 C 0.83845 0.52984 0.98044 0.0
C1219 C 0.84065 0.52159 0.00211 0.0
C1220 C 0.8425 0.537 0.01963 0.0
C1221 C 0.84251 0.55989 0.01555 0.0
C1222 C 0.83252 0.46623 0.03105 0.0
C1223 C 0.84363 0.45121 0.01704 0.0
C1224 C 0.83116 0.48871 0.02586 0.0
C1225 C 0.84106 0.49712 0.00656 0.0
C1226 C 0.85158 0.482 0.99203 0.0
C1227 C 0.85273 0.45924 0.99715 0.0
H1228 H 0.56492 0.88087 1.00001 0.0
H1229 H 0.56966 0.81362 0.0238 0.0
H1230 H 0.52469 0.87892 0.00216 0.0
H1231 H 0.5292 0.81161 0.02598 0.0
H1232 H 0.45679 0.81048 0.99711 0.0
H1233 H 0.49681 0.81032 0.0027 0.0
H1234 H 0.49338 0.87751 0.02708 0.0
H1235 H 0.4531 0.87758 0.02102 0.0
C1236 C 0.5574 0.86557 0.0056 0.0
C1237 C 0.57069 0.84728 0.01139 0.0
C1238 C 0.53422 0.86455 0.00713 0.0
C1239 C 0.52348 0.84519 0.01448 0.0
C1240 C 0.53676 0.82678 0.02012 0.0
C1241 C 0.56003 0.82786 0.0187 0.0
C1242 C 0.46451 0.82491 0.0045 0.0
C1243 C 0.45179 0.84393 0.00893 0.0
C1244 C 0.48753 0.82487 0.00762 0.0
C1245 C 0.49857 0.84402 0.015 0.0
C1246 C 0.48556 0.86258 0.02096 0.0
C1247 C 0.46241 0.86254 0.01791 0.0
H1248 H 0.52386 0.66204 0.9477 0.0
H1249 H 0.46173 0.69644 0.95683 0.0
H1250 H 0.53232 0.66686 0.98694 0.0
H1251 H 0.47 0.70094 0.99634 0.0
H1252 H 0.48498 0.67494 0.06917 0.0
H1253 H 0.47479 0.67541 0.0299 0.0
H1254 H 0.54055 0.69835 0.0131 0.0
H1255 H 0.55055 0.6983 0.05224 0.0
C1256 C 0.51212 0.67079 0.95811 0.0
C1257 C 0.49236 0.67921 0.94924 0.0
C1258 C 0.51694 0.67357 0.98053 0.0
C1259 C 0.50187 0.68443 0.99462 0.0
C1260 C 0.48186 0.69247 0.98584 0.0
C1261 C 0.47715 0.68989 0.96331 0.0
C1262 C 0.49702 0.68062 0.05712 0.0
C1263 C 0.51848 0.6867 0.06375 0.0
C1264 C 0.49123 0.68082 0.03467 0.0
C1265 C 0.50697 0.68671 0.01849 0.0
C1266 C 0.52821 0.69342 0.02521 0.0
C1267 C 0.5339 0.6934 0.04759 0.0
H1268 H 0.31278 0.46242 0.9687 0.0
H1269 H 0.33514 0.52824 0.95235 0.0
H1270 H 0.30861 0.47321 0.00742 0.0
H1271 H 0.33141 0.53913 0.99109 0.0
H1272 H 0.31351 0.55765 0.06053 0.0
H1273 H 0.3088 0.54673 0.02196 0.0
H1274 H 0.33138 0.4807 0.03823 0.0
H1275 H 0.3352 0.49162 0.07704 0.0
C1276 C 0.31649 0.47934 0.97339 0.0
C1277 C 0.32398 0.4946 0.95745 0.0
C1278 C 0.3143 0.48549 0.99564 0.0
C1279 C 0.31986 0.50701 0.00262 0.0
C1280 C 0.32662 0.5225 0.98643 0.0
C1281 C 0.32868 0.51634 0.96412 0.0
C1282 C 0.31711 0.54069 0.05587 0.0
C1283 C 0.3247 0.52546 0.07177 0.0
C1284 C 0.31459 0.53446 0.0337 0.0
C1285 C 0.31998 0.51289 0.02673 0.0
C1286 C 0.32679 0.4974 0.04289 0.0
C1287 C 0.32905 0.50361 0.06518 0.0
H1288 H 0.56889 0.3087 0.9579 0.0
H1289 H 0.50423 0.33577 0.94333 0.0
H1290 H 0.55941 0.30733 0.99726 0.0
H1291 H 0.49444 0.33341 0.98248 0.0
H1292 H 0.47661 0.30856 0.05074 0.0
H1293 H 0.48826 0.30489 0.01227 0.0
H1294 H 0.5511 0.33511 0.02829 0.0
H1295 H 0.53918 0.33905 0.06711 0.0
C1296 C 0.5525 0.31401 0.963 0.0
C1297 C 0.53712 0.32186 0.94724 0.0
C1298 C 0.54714 0.3133 0.9856 0.0
C1299 C 0.52616 0.32015 0.99303 0.0
C1300 C 0.51064 0.32765 0.97727 0.0
C1301 C 0.51615 0.32876 0.95473 0.0
C1302 C 0.49309 0.31408 0.04617 0.0
C1303 C 0.50702 0.32403 0.062 0.0
C1304 C 0.49968 0.31211 0.02407 0.0
C1305 C 0.52045 0.32 0.01711 0.0
C1306 C 0.53499 0.32881 0.03315 0.0
C1307 C 0.52827 0.33096 0.0554 0.0
H1308 H 0.71206 0.52111 0.95581 0.0
H1309 H 0.64435 0.49895 0.95069 0.0
H1310 H 0.71199 0.5128 0.99549 0.0
H1311 H 0.64402 0.49078 0.9906 0.0
H1312 H 0.65993 0.45972 0.05875 0.0
H1313 H 0.66025 0.46631 0.01912 0.0
H1314 H 0.6944 0.52821 0.02957 0.0
H1315 H 0.69327 0.52196 0.06962 0.0
C1316 C 0.69729 0.51398 0.96317 0.0
C1317 C 0.67837 0.51021 0.95013 0.0
C1318 C 0.69713 0.50954 0.98597 0.0
C1319 C 0.67794 0.50135 0.9964 0.0
C1320 C 0.65917 0.49689 0.98313 0.0
C1321 C 0.65936 0.50136 0.96024 0.0
C1322 C 0.6676 0.47481 0.05278 0.0
C1323 C 0.67719 0.49008 0.06769 0.0
C1324 C 0.66764 0.4786 0.02989 0.0
C1325 C 0.67752 0.49767 0.02098 0.0
C1326 C 0.68699 0.5131 0.03578 0.0
C1327 C 0.68654 0.50947 0.05883 0.0
H1328 H 0.96506 0.5056 0.64327 0.0
H1329 H 0.95973 0.48569 0.71182 0.0
H1330 H 0.00499 0.50662 0.64627 0.0
H1331 H 1.00048 0.48684 0.71487 0.0
H1332 H 0.07055 0.52384 0.71303 0.0
H1333 H 0.0313 0.51397 0.71422 0.0
H1334 H 0.03757 0.48309 0.64998 0.0
H1335 H 0.077 0.49324 0.64888 0.0
C1336 C 0.97238 0.50137 0.6591 0.0
C1337 C 0.95894 0.49554 0.67733 0.0
C1338 C 0.99549 0.50172 0.66071 0.0
C1339 C 0.00619 0.4964 0.68066 0.0
C1340 C 0.99285 0.49095 0.69917 0.0
C1341 C 0.96947 0.4904 0.69749 0.0
C1342 C 0.06367 0.51428 0.69949 0.0
C1343 C 0.07684 0.50927 0.68087 0.0
C1344 C 0.04112 0.50862 0.70017 0.0
C1345 C 0.03102 0.49808 0.68205 0.0
C1346 C 0.04467 0.49156 0.66411 0.0
C1347 C 0.06736 0.49705 0.66354 0.0
H1348 H 0.52591 0.95658 0.71704 0.0
H1349 H 0.48027 0.94376 0.66352 0.0
H1350 H 0.51721 0.99584 0.71546 0.0
H1351 H 0.47115 0.98362 0.66219 0.0
H1352 H 0.45047 0.05652 0.68331 0.0
H1353 H 0.45511 0.01645 0.68628 0.0
H1354 H 0.52617 0.02467 0.68508 0.0
H1355 H 0.52155 0.06469 0.68088 0.0
C1356 C 0.51366 0.96213 0.70514 0.0
C1357 C 0.50398 0.94707 0.6902 0.0
C1358 C 0.50882 0.9847 0.70417 0.0
C1359 C 0.49393 0.99293 0.68838 0.0
C1360 C 0.48284 0.97773 0.67447 0.0
C1361 C 0.48789 0.95492 0.67532 0.0
C1362 C 0.46715 0.04985 0.68369 0.0
C1363 C 0.48572 0.06405 0.68248 0.0
C1364 C 0.46973 0.02683 0.6853 0.0
C1365 C 0.49096 0.01737 0.68605 0.0
C1366 C 0.50955 0.03149 0.68488 0.0
C1367 C 0.50695 0.05451 0.68282 0.0
H1368 H 0.94639 0.48951 0.35179 0.0
H1369 H 0.9615 0.5593 0.34723 0.0
H1370 H 0.98626 0.48132 0.35213 0.0
H1371 H 1.0007 0.55121 0.34672 0.0
H1372 H 0.07197 0.53091 0.36538 0.0
H1373 H 0.03228 0.54006 0.36631 0.0
H1374 H 0.01785 0.48051 0.32928 0.0
H1375 H 0.05706 0.47123 0.32923 0.0
C1376 C 0.95811 0.50308 0.3509 0.0
C1377 C 0.95051 0.52503 0.34947 0.0
C1378 C 0.98106 0.49843 0.35088 0.0
C1379 C 0.997 0.51561 0.34932 0.0
C1380 C 0.98924 0.53749 0.34827 0.0
C1381 C 0.9665 0.5421 0.3484 0.0
C1382 C 0.06029 0.52012 0.35709 0.0
C1383 C 0.06765 0.50043 0.34716 0.0
C1384 C 0.03746 0.52522 0.35768 0.0
C1385 C 0.02152 0.51082 0.3482 0.0
C1386 C 0.02927 0.49171 0.33738 0.0
C1387 C 0.05188 0.48657 0.33702 0.0
H1388 H 0.47959 0.06903 0.30893 0.0
H1389 H 0.55048 0.06233 0.31719 0.0
H1390 H 0.47567 0.02848 0.31334 0.0
H1391 H 0.54643 0.02275 0.32222 0.0
H1392 H 0.52554 0.96133 0.36199 0.0
H1393 H 0.52536 0.00109 0.35483 0.0
H1394 H 0.49304 0.99009 0.29208 0.0
H1395 H 0.49338 0.95003 0.29902 0.0
C1396 C 0.49424 0.05896 0.31147 0.0
C1397 C 0.51533 0.06886 0.31249 0.0
C1398 C 0.49202 0.03587 0.31398 0.0
C1399 C 0.51079 0.02263 0.31827 0.0
C1400 C 0.53173 0.03258 0.31901 0.0
C1401 C 0.534 0.05529 0.31595 0.0
C1402 C 0.51846 0.96729 0.34661 0.0
C1403 C 0.50967 0.95245 0.33099 0.0
C1404 C 0.51825 0.99006 0.34259 0.0
C1405 C 0.50905 0.9986 0.32299 0.0
C1406 C 0.49998 0.9839 0.30744 0.0
C1407 C 0.50042 0.961 0.31133 0.0
H1408 H 0.65976 0.94457 0.53702 0.0
H1409 H 0.72455 0.9518 0.50762 0.0
H1410 H 0.65787 0.98478 0.54247 0.0
H1411 H 0.72264 0.99178 0.51256 0.0
H1412 H 0.71462 0.0654 0.52955 0.0
H1413 H 0.72032 0.02543 0.53433 0.0
H1414 H 0.65227 0.01368 0.51539 0.0
H1415 H 0.64655 0.05314 0.51101 0.0
C1416 C 0.67395 0.95465 0.53256 0.0
C1417 C 0.69225 0.9451 0.52185 0.0
C1418 C 0.67276 0.97774 0.53529 0.0
C1419 C 0.68988 0.99167 0.52742 0.0
C1420 C 0.70913 0.98174 0.51881 0.0
C1421 C 0.71025 0.95876 0.51601 0.0
C1422 C 0.70094 0.05424 0.52636 0.0
C1423 C 0.68012 0.0626 0.51994 0.0
C1424 C 0.70416 0.03131 0.52917 0.0
C1425 C 0.68663 0.01623 0.52567 0.0
C1426 C 0.666 0.02469 0.51891 0.0
C1427 C 0.66281 0.04744 0.51609 0.0
H1428 H 0.06523 0.68695 0.52141 0.0
H1429 H 0.05737 0.72399 0.46068 0.0
H1430 H 0.02588 0.69182 0.52951 0.0
H1431 H 0.0177 0.72811 0.46843 0.0
H1432 H 0.94635 0.69504 0.47863 0.0
H1433 H 0.98587 0.69937 0.47057 0.0
H1434 H 0.997 0.72241 0.53732 0.0
H1435 H 0.95753 0.71875 0.54525 0.0
C1436 C 0.05523 0.69658 0.51005 0.0
C1437 C 0.06452 0.70542 0.49061 0.0
C1438 C 0.03266 0.69927 0.51463 0.0
C1439 C 0.01877 0.71036 0.49958 0.0
C1440 C 0.02805 0.71942 0.48025 0.0
C1441 C 0.05072 0.71706 0.47586 0.0
C1442 C 0.95711 0.70155 0.49139 0.0
C1443 C 0.94875 0.70642 0.51257 0.0
C1444 C 0.97974 0.70403 0.4868 0.0
C1445 C 0.99449 0.711 0.50342 0.0
C1446 C 0.98601 0.71679 0.52429 0.0
C1447 C 0.96337 0.71472 0.52876 0.0
H1448 H 0.29612 0.94574 0.5098 0.0
H1449 H 0.35872 0.95605 0.47627 0.0
H1450 H 0.29114 0.98613 0.51239 0.0
H1451 H 0.35392 0.99588 0.47954 0.0
H1452 H 0.35313 0.06139 0.51675 0.0
H1453 H 0.35114 0.02083 0.51862 0.0
H1454 H 0.29076 0.0219 0.48038 0.0
H1455 H 0.29317 0.06246 0.47793 0.0
C1456 C 0.3086 0.95651 0.50268 0.0
C1457 C 0.32787 0.94756 0.49291 0.0
C1458 C 0.30581 0.97958 0.50433 0.0
C1459 C 0.32242 0.99398 0.49663 0.0
C1460 C 0.34109 0.98508 0.486 0.0
C1461 C 0.34369 0.96221 0.48396 0.0
C1462 C 0.33903 0.05298 0.50948 0.0
C1463 C 0.3232 0.06492 0.49738 0.0
C1464 C 0.33796 0.02984 0.5104 0.0
C1465 C 0.32085 0.01833 0.49953 0.0
C1466 C 0.30402 0.03041 0.48897 0.0
C1467 C 0.30537 0.05355 0.48764 0.0
H1468 H 0.05872 0.30343 0.55336 0.0
H1469 H 0.0742 0.33329 0.49021 0.0
H1470 H 0.01975 0.30114 0.54295 0.0
H1471 H 0.03507 0.33062 0.47958 0.0
H1472 H 0.96511 0.30651 0.4617 0.0
H1473 H 0.00432 0.30411 0.4714 0.0
H1474 H 0.98934 0.32824 0.53706 0.0
H1475 H 0.95012 0.33102 0.52722 0.0
C1476 C 0.05386 0.3092 0.53707 0.0
C1477 C 0.06969 0.31833 0.52251 0.0
C1478 C 0.03146 0.308 0.53118 0.0
C1479 C 0.0242 0.31582 0.5105 0.0
C1480 C 0.04012 0.32425 0.49558 0.0
C1481 C 0.06258 0.32567 0.50159 0.0
C1482 C 0.97012 0.31112 0.4783 0.0
C1483 C 0.95434 0.31872 0.49377 0.0
C1484 C 0.99265 0.30985 0.4838 0.0
C1485 C 1.00004 0.31603 0.50497 0.0
C1486 C 0.98421 0.32309 0.52066 0.0
C1487 C 0.96167 0.32458 0.51508 0.0
H1488 H 0.9951 0.26501 0.34707 0.0
H1489 H 0.9766 0.22566 0.29049 0.0
H1490 H 0.00225 0.29672 0.32262 0.0
H1491 H 0.98338 0.25716 0.26614 0.0
H1492 H 0.02311 0.30349 0.22484 0.0
H1493 H 0.01784 0.27533 0.25359 0.0
H1494 H 0.98674 0.32407 0.29576 0.0
H1495 H 0.9921 0.35208 0.26694 0.0
C1496 C 0.99142 0.26349 0.32956 0.0
C1497 C 0.98493 0.24293 0.32073 0.0
C1498 C 0.99594 0.28153 0.31548 0.0
C1499 C 0.99412 0.27928 0.2923 0.0
C1500 C 0.98569 0.2593 0.2838 0.0
C1501 C 0.98121 0.24139 0.29781 0.0
C1502 C 0.01615 0.30837 0.24066 0.0
C1503 C 0.00832 0.33002 0.2438 0.0
C1504 C 0.01263 0.29216 0.25697 0.0
C1505 C 0.00127 0.29729 0.27678 0.0
C1506 C 0.99542 0.31948 0.28072 0.0
C1507 C 0.99872 0.3356 0.26431 0.0
H1508 H 0.76354 0.01123 0.34925 0.0
H1509 H 0.80392 0.0072 0.29024 0.0
H1510 H 0.73031 0.01629 0.32602 0.0
H1511 H 0.77117 0.01209 0.26741 0.0
H1512 H 0.71936 0.04946 0.2327 0.0
H1513 H 0.74702 0.04557 0.26176 0.0
H1514 H 0.70586 0.99722 0.29472 0.0
H1515 H 0.67777 0.00135 0.26539 0.0
C1516 C 0.76529 0.01103 0.33139 0.0
C1517 C 0.78646 0.00911 0.32161 0.0
C1518 C 0.74628 0.01398 0.31811 0.0
C1519 C 0.74818 0.01517 0.29487 0.0
C1520 C 0.76918 0.0119 0.28525 0.0
C1521 C 0.78799 0.00895 0.29838 0.0
C1522 C 0.71582 0.03855 0.24652 0.0
C1523 C 0.6964 0.02571 0.2467 0.0
C1524 C 0.7318 0.03611 0.26306 0.0
C1525 C 0.72894 0.02063 0.28024 0.0
C1526 C 0.7086 0.0092 0.28164 0.0
C1527 C 0.69243 0.01171 0.26496 0.0
H1528 H 0.98016 0.75747 0.34045 0.0
H1529 H 0.04529 0.78243 0.3244 0.0
H1530 H 0.98367 0.72913 0.31223 0.0
H1531 H 0.04875 0.75402 0.29547 0.0
H1532 H 0.05551 0.69035 0.2563 0.0
H1533 H 0.05252 0.71576 0.28718 0.0
H1534 H 0.98281 0.72457 0.27311 0.0
H1535 H 0.9858 0.69836 0.24212 0.0
C1536 C 0.99542 0.75678 0.33096 0.0
C1537 C 0.01245 0.77236 0.3347 0.0
C1538 C 0.99729 0.74058 0.31452 0.0
C1539 C 0.01628 0.73934 0.30111 0.0
C1540 C 0.03385 0.75431 0.30548 0.0
C1541 C 0.03198 0.77059 0.32214 0.0
C1542 C 0.03942 0.69756 0.2598 0.0
C1543 C 0.02089 0.69236 0.24652 0.0
C1544 C 0.03779 0.71237 0.27751 0.0
C1545 C 0.01756 0.72267 0.28263 0.0
C1546 C 0.99873 0.71692 0.26984 0.0
C1547 C 1.00035 0.70186 0.25204 0.0
H1548 H 0.33804 0.04927 0.26378 0.0
H1549 H 0.30549 0.99327 0.23377 0.0
H1550 H 0.30813 0.05237 0.29101 0.0
H1551 H 0.27516 0.99658 0.26086 0.0
H1552 H 0.21296 0.02963 0.28851 0.0
H1553 H 0.24585 0.02684 0.26523 0.0
H1554 H 0.28742 0.03305 0.32303 0.0
H1555 H 0.25415 0.0355 0.34659 0.0
C1556 C 0.32468 0.03729 0.26336 0.0
C1557 C 0.32408 0.02102 0.24665 0.0
C1558 C 0.30754 0.0391 0.27895 0.0
C1559 C 0.28907 0.025 0.27791 0.0
C1560 C 0.28904 0.00792 0.26191 0.0
C1561 C 0.30649 0.00582 0.24655 0.0
C1562 C 0.22911 0.03109 0.29625 0.0
C1563 C 0.23089 0.03295 0.31943 0.0
C1564 C 0.24797 0.02905 0.28292 0.0
C1565 C 0.26926 0.02904 0.29231 0.0
C1566 C 0.27122 0.03278 0.3153 0.0
C1567 C 0.25218 0.0346 0.32878 0.0
H1568 H 0.04462 0.70078 0.78926 0.0
H1569 H 0.97527 0.69333 0.7732 0.0
H1570 H 0.04747 0.7306 0.76159 0.0
H1571 H 0.97765 0.72323 0.74695 0.0
H1572 H 0.9884 0.77119 0.69116 0.0
H1573 H 0.98904 0.73764 0.71365 0.0
H1574 H 0.03668 0.76805 0.75767 0.0
H1575 H 0.03677 0.80104 0.73448 0.0
C1576 C 0.03015 0.70521 0.77959 0.0
C1577 C 0.00969 0.69487 0.78363 0.0
C1578 C 0.03162 0.72252 0.76397 0.0
C1579 C 0.01267 0.72974 0.75214 0.0
C1580 C 0.99269 0.71826 0.75537 0.0
C1581 C 0.99129 0.70108 0.77069 0.0
C1582 C 0.99871 0.7708 0.70585 0.0
C1583 C 0.0123 0.78889 0.71117 0.0
C1584 C 0.99922 0.75148 0.71876 0.0
C1585 C 0.01303 0.74989 0.73759 0.0
C1586 C 0.02623 0.76828 0.7431 0.0
C1587 C 0.02598 0.78742 0.72999 0.0
H1588 H 0.34785 0.99714 0.75285 0.0
H1589 H 0.32054 0.05463 0.78528 0.0
H1590 H 0.31931 0.9989 0.72483 0.0
H1591 H 0.29208 0.05724 0.75633 0.0
H1592 H 0.22732 0.03528 0.7232 0.0
H1593 H 0.25941 0.03847 0.74733 0.0
H1594 H 0.30126 0.01354 0.69467 0.0
H1595 H 0.26869 0.00952 0.67097 0.0
C1596 C 0.33614 0.01076 0.75346 0.0
C1597 C 0.33639 0.02568 0.77136 0.0
C1598 C 0.31966 0.0118 0.73727 0.0
C1599 C 0.30289 0.02794 0.73833 0.0
C1600 C 0.30431 0.04416 0.75521 0.0
C1601 C 0.32089 0.04301 0.77161 0.0
C1602 C 0.24338 0.03026 0.71688 0.0
C1603 C 0.24542 0.02175 0.69528 0.0
C1604 C 0.26193 0.03243 0.73063 0.0
C1605 C 0.28323 0.02652 0.72309 0.0
C1606 C 0.28521 0.01799 0.70136 0.0
C1607 C 0.26651 0.01549 0.68771 0.0
H1608 H 0.99398 0.31037 0.7881 0.0
H1609 H 0.05383 0.33552 0.75812 0.0
H1610 H 0.99287 0.28066 0.76065 0.0
H1611 H 0.05223 0.30674 0.72991 0.0
H1612 H 0.05639 0.23798 0.69635 0.0
H1613 H 0.058 0.26885 0.72287 0.0
H1614 H 0.98635 0.27131 0.72428 0.0
H1615 H 0.98482 0.24065 0.699 0.0
C1616 C 0.00657 0.30985 0.77528 0.0
C1617 C 0.02398 0.32523 0.77531 0.0
C1618 C 0.00602 0.2928 0.75945 0.0
C1619 C 0.02262 0.29099 0.74292 0.0
C1620 C 0.03949 0.30706 0.74257 0.0
C1621 C 0.04025 0.32378 0.75862 0.0
C1622 C 0.04108 0.24521 0.70235 0.0
C1623 C 0.02056 0.23647 0.6957 0.0
C1624 C 0.04191 0.26299 0.71753 0.0
C1625 C 0.02224 0.27254 0.72618 0.0
C1626 C 0.00187 0.26417 0.71876 0.0
C1627 C 0.00106 0.2465 0.70395 0.0
H1628 H 0.76708 0.96802 0.68695 0.0
H1629 H 0.78549 0.03633 0.69717 0.0
H1630 H 0.73955 0.97074 0.71625 0.0
H1631 H 0.75732 0.03932 0.7263 0.0
H1632 H 0.72901 0.0291 0.79524 0.0
H1633 H 0.75356 0.02617 0.76344 0.0
H1634 H 0.70522 0.98522 0.73013 0.0
H1635 H 0.68073 0.98782 0.76259 0.0
C1636 C 0.76498 0.98381 0.69522 0.0
C1637 C 0.77874 0.00191 0.68983 0.0
C1638 C 0.74901 0.98539 0.71201 0.0
C1639 C 0.74634 0.00511 0.72404 0.0
C1640 C 0.75922 0.02366 0.71777 0.0
C1641 C 0.77521 0.02209 0.70085 0.0
C1642 C 0.72373 0.01917 0.78124 0.0
C1643 C 0.70296 0.00856 0.78151 0.0
C1644 C 0.7377 0.01778 0.76281 0.0
C1645 C 0.73129 0.0059 0.74386 0.0
C1646 C 0.7108 0.99452 0.7444 0.0
C1647 C 0.69679 0.99581 0.76307 0.0
H1648 H 0.34008 0.25736 0.98067 0.0
H1649 H 0.31547 0.23495 0.04397 0.0
H1650 H 0.31265 0.28682 0.98001 0.0
H1651 H 0.2876 0.26473 0.04332 0.0
H1652 H 0.25124 0.33052 0.0434 0.0
H1653 H 0.28165 0.30443 0.04444 0.0
H1654 H 0.2727 0.29127 0.97472 0.0
H1655 H 0.2417 0.31792 0.97365 0.0
C1656 C 0.32895 0.25894 0.9947 0.0
C1657 C 0.32998 0.24365 0.01238 0.0
C1658 C 0.31299 0.27576 0.99413 0.0
C1659 C 0.29748 0.27802 0.01131 0.0
C1660 C 0.29926 0.26355 0.02972 0.0
C1661 C 0.31534 0.24653 0.03026 0.0
C1662 C 0.25569 0.3222 0.02812 0.0
C1663 C 0.24366 0.32619 0.00844 0.0
C1664 C 0.27317 0.30703 0.02884 0.0
C1665 C 0.27949 0.29526 0.00986 0.0
C1666 C 0.26829 0.3 0.98976 0.0
C1667 C 0.25055 0.31533 0.98904 0.0
H1668 H 0.29206 0.80428 0.99429 0.0
H1669 H 0.34969 0.76279 0.00275 0.0
H1670 H 0.268 0.77293 0.00183 0.0
H1671 H 0.3254 0.73106 0.01085 0.0
H1672 H 0.26944 0.67658 0.00053 0.0
H1673 H 0.29795 0.70514 0.99661 0.0
H1674 H 0.25614 0.75099 0.03238 0.0
H1675 H 0.22759 0.72243 0.03571 0.0
C1676 C 0.29962 0.78831 0.9975 0.0
C1677 C 0.32285 0.78611 0.9978 0.0
C1678 C 0.28577 0.77032 0.00222 0.0
C1679 C 0.29461 0.74943 0.00763 0.0
C1680 C 0.3179 0.74687 0.00687 0.0
C1681 C 0.33187 0.76501 0.00201 0.0
C1682 C 0.26685 0.69248 0.00846 0.0
C1683 C 0.24648 0.6971 0.01891 0.0
C1684 C 0.28312 0.70898 0.006 0.0
C1685 C 0.27928 0.73067 0.01369 0.0
C1686 C 0.25957 0.73469 0.02572 0.0
C1687 C 0.24334 0.71817 0.02816 0.0
H1688 H 0.80436 0.29397 0.00117 0.0
H1689 H 0.76096 0.35013 0.01042 0.0
H1690 H 0.77271 0.27035 0.99452 0.0
H1691 H 0.72866 0.32603 0.00349 0.0
H1692 H 0.68117 0.26265 0.0166 0.0
H1693 H 0.7074 0.29353 0.01864 0.0
H1694 H 0.74563 0.26417 0.96569 0.0
H1695 H 0.71985 0.23297 0.96444 0.0
C1696 C 0.78799 0.30135 0.0018 0.0
C1697 C 0.78534 0.32409 0.00612 0.0
C1698 C 0.76974 0.28775 0.9977 0.0
C1699 C 0.74806 0.29632 0.99772 0.0
C1700 C 0.74514 0.3189 0.00306 0.0
C1701 C 0.76362 0.33269 0.00715 0.0
C1702 C 0.69459 0.26343 0.00465 0.0
C1703 C 0.69834 0.24556 0.99014 0.0
C1704 C 0.70977 0.28105 0.00597 0.0
C1705 C 0.72903 0.28109 0.99277 0.0
C1706 C 0.73132 0.2644 0.97655 0.0
C1707 C 0.71631 0.2467 0.97546 0.0
H1708 H 0.79874 0.71114 0.97676 0.0
H1709 H 0.76204 0.68542 0.0324 0.0
H1710 H 0.77105 0.74063 0.97235 0.0
H1711 H 0.73395 0.71387 0.02756 0.0
H1712 H 0.70002 0.78041 0.03156 0.0
H1713 H 0.72812 0.75141 0.03401 0.0
H1714 H 0.73511 0.752 0.96274 0.0
H1715 H 0.70781 0.78149 0.96045 0.0
C1716 C 0.78437 0.71137 0.98756 0.0
C1717 C 0.78253 0.69594 0.00487 0.0
C1718 C 0.76848 0.72835 0.98517 0.0
C1719 C 0.75027 0.7301 0.99989 0.0
C1720 C 0.74796 0.71372 0.01633 0.0
C1721 C 0.76392 0.69709 0.01888 0.0
C1722 C 0.70769 0.77449 0.01644 0.0
C1723 C 0.70149 0.78337 0.99583 0.0
C1724 C 0.72372 0.75761 0.01777 0.0
C1725 C 0.7339 0.74892 0.99852 0.0
C1726 C 0.72796 0.75821 0.97798 0.0
C1727 C 0.7121 0.77516 0.97668 0.0
H1728 H 0.48183 0.72938 0.81706 0.0
H1729 H 0.54291 0.75527 0.84378 0.0
H1730 H 0.48105 0.75981 0.79012 0.0
H1731 H 0.54194 0.7857 0.81753 0.0
H1732 H 0.54929 0.81715 0.7477 0.0
H1733 H 0.54846 0.79117 0.779 0.0
H1734 H 0.47724 0.7985 0.78321 0.0
H1735 H 0.47822 0.82369 0.75169 0.0
C1736 C 0.49471 0.74187 0.81758 0.0
C1737 C 0.5125 0.73977 0.8324 0.0
C1738 C 0.49437 0.75933 0.80212 0.0
C1739 C 0.51171 0.77511 0.80132 0.0
C1740 C 0.52866 0.77363 0.81715 0.0
C1741 C 0.52906 0.75624 0.83239 0.0
C1742 C 0.53362 0.81353 0.75574 0.0
C1743 C 0.51386 0.8224 0.74739 0.0
C1744 C 0.53304 0.79861 0.77363 0.0
C1745 C 0.51267 0.79243 0.78356 0.0
C1746 C 0.49312 0.80237 0.77576 0.0
C1747 C 0.49372 0.81703 0.75787 0.0
H1748 H 0.2346 0.52136 0.72026 0.0
H1749 H 0.17472 0.52017 0.75942 0.0
H1750 H 0.25641 0.51233 0.75283 0.0
H1751 H 0.19665 0.51062 0.79236 0.0
H1752 H 0.25063 0.51821 0.84871 0.0
H1753 H 0.22401 0.52319 0.81874 0.0
H1754 H 0.26437 0.48168 0.77658 0.0
H1755 H 0.29123 0.47723 0.80667 0.0
C1756 C 0.22609 0.51944 0.73597 0.0
C1757 C 0.20287 0.52158 0.73717 0.0
C1758 C 0.2386 0.51384 0.75466 0.0
C1759 C 0.22837 0.51003 0.77527 0.0
C1760 C 0.20519 0.51328 0.77679 0.0
C1761 C 0.19259 0.51899 0.75795 0.0
C1762 C 0.25325 0.50929 0.83335 0.0
C1763 C 0.27286 0.49698 0.83021 0.0
C1764 C 0.23805 0.51233 0.81602 0.0
C1765 C 0.24217 0.50332 0.79493 0.0
C1766 C 0.26085 0.48936 0.79241 0.0
C1767 C 0.27605 0.4863 0.80982 0.0
H1768 H 0.47662 0.18046 0.75012 0.0
H1769 H 0.53368 0.21338 0.7222 0.0
H1770 H 0.47506 0.20868 0.7795 0.0
H1771 H 0.53202 0.24136 0.75085 0.0
H1772 H 0.53888 0.27611 0.81715 0.0
H1773 H 0.53944 0.24625 0.78958 0.0
H1774 H 0.46786 0.24728 0.78695 0.0
H1775 H 0.46725 0.27642 0.81442 0.0
C1776 C 0.48851 0.19386 0.74999 0.0
C1777 C 0.50532 0.19451 0.73389 0.0
C1778 C 0.48777 0.21001 0.76688 0.0
C1779 C 0.50377 0.22714 0.7679 0.0
C1780 C 0.51988 0.22815 0.75115 0.0
C1781 C 0.52063 0.21215 0.73451 0.0
C1782 C 0.52331 0.26989 0.81073 0.0
C1783 C 0.5031 0.27892 0.81799 0.0
C1784 C 0.52357 0.25281 0.79484 0.0
C1785 C 0.50363 0.24431 0.78588 0.0
C1786 C 0.48351 0.25309 0.79354 0.0
C1787 C 0.48325 0.27008 0.80926 0.0
H1788 H 0.76463 0.50564 0.84634 0.0
H1789 H 0.72197 0.52502 0.79243 0.0
H1790 H 0.79495 0.4988 0.8197 0.0
H1791 H 0.75187 0.51876 0.76622 0.0
H1792 H 0.79463 0.47979 0.72101 0.0
H1793 H 0.76879 0.48631 0.7512 0.0
H1794 H 0.82182 0.51321 0.79092 0.0
H1795 H 0.84808 0.50614 0.76037 0.0
C1796 C 0.76188 0.50903 0.82893 0.0
C1797 C 0.74074 0.51577 0.82156 0.0
C1798 C 0.77924 0.50498 0.81361 0.0
C1799 C 0.77582 0.50757 0.79058 0.0
C1800 C 0.75509 0.51579 0.78362 0.0
C1801 C 0.73791 0.51967 0.79876 0.0
C1802 C 0.80098 0.48663 0.73634 0.0
C1803 C 0.82353 0.49231 0.73817 0.0
C1804 C 0.78603 0.4907 0.75365 0.0
C1805 C 0.79292 0.5009 0.77348 0.0
C1806 C 0.81579 0.5054 0.77595 0.0
C1807 C 0.83092 0.50117 0.75848 0.0
H1808 H 0.51907 0.22351 0.2896 0.0
H1809 H 0.48331 0.17518 0.25123 0.0
H1810 H 0.51576 0.25015 0.25928 0.0
H1811 H 0.4795 0.20196 0.22083 0.0
H1812 H 0.49514 0.25741 0.16596 0.0
H1813 H 0.49778 0.22624 0.19204 0.0
H1814 H 0.48319 0.27068 0.24616 0.0
H1815 H 0.48089 0.30151 0.22024 0.0
C1816 C 0.51123 0.21835 0.27429 0.0
C1817 C 0.5018 0.19722 0.27256 0.0
C1818 C 0.5089 0.23372 0.25708 0.0
C1819 C 0.49678 0.22841 0.23784 0.0
C1820 C 0.48885 0.20663 0.23541 0.0
C1821 C 0.49123 0.19122 0.2527 0.0
C1822 C 0.49139 0.26021 0.1833 0.0
C1823 C 0.48741 0.28181 0.19104 0.0
C1824 C 0.49328 0.24244 0.1983 0.0
C1825 C 0.49142 0.24608 0.22129 0.0
C1826 C 0.48539 0.26736 0.22866 0.0
C1827 C 0.4835 0.28497 0.21375 0.0
H1828 H 0.7262 0.47741 0.21774 0.0
H1829 H 0.76285 0.52436 0.17842 0.0
H1830 H 0.75526 0.47872 0.24615 0.0
H1831 H 0.79164 0.52612 0.2067 0.0
H1832 H 0.84619 0.51733 0.26025 0.0
H1833 H 0.82142 0.51083 0.22853 0.0
H1834 H 0.76574 0.50537 0.27329 0.0
H1835 H 0.79024 0.51149 0.30449 0.0
C1836 C 0.74088 0.48732 0.21476 0.0
C1837 C 0.74238 0.50045 0.19562 0.0
C1838 C 0.7574 0.48849 0.23125 0.0
C1839 C 0.77581 0.50291 0.22909 0.0
C1840 C 0.77796 0.51475 0.20912 0.0
C1841 C 0.76144 0.51364 0.19276 0.0
C1842 C 0.82861 0.51508 0.26321 0.0
C1843 C 0.8203 0.51499 0.28502 0.0
C1844 C 0.81436 0.51118 0.24502 0.0
C1845 C 0.79145 0.50704 0.24819 0.0
C1846 C 0.78325 0.50772 0.27 0.0
C1847 C 0.79736 0.51158 0.28801 0.0
H1848 H 0.50166 0.7669 0.16437 0.0
H1849 H 0.52157 0.72348 0.21743 0.0
H1850 H 0.50081 0.7983 0.19028 0.0
H1851 H 0.52053 0.7546 0.24333 0.0
H1852 H 0.47748 0.79995 0.28465 0.0
H1853 H 0.48334 0.77415 0.25428 0.0
H1854 H 0.52434 0.82226 0.22079 0.0
H1855 H 0.5186 0.84838 0.25166 0.0
C1856 C 0.50684 0.76434 0.18136 0.0
C1857 C 0.51208 0.74296 0.18894 0.0
C1858 C 0.50618 0.78222 0.19619 0.0
C1859 C 0.51026 0.77877 0.21883 0.0
C1860 C 0.51709 0.75766 0.22598 0.0
C1861 C 0.51794 0.73991 0.21117 0.0
C1862 C 0.48733 0.80529 0.2706 0.0
C1863 C 0.49763 0.82616 0.27058 0.0
C1864 C 0.4909 0.79041 0.25333 0.0
C1865 C 0.50479 0.796 0.23552 0.0
C1866 C 0.51372 0.81751 0.23448 0.0
C1867 C 0.51022 0.83251 0.25198 0.0
H1868 H 0.29565 0.5462 0.22729 0.0
H1869 H 0.25422 0.51023 0.18181 0.0
H1870 H 0.26709 0.54294 0.25589 0.0
H1871 H 0.22601 0.50592 0.21043 0.0
H1872 H 0.17425 0.50723 0.26657 0.0
H1873 H 0.19846 0.51738 0.23553 0.0
H1874 H 0.25521 0.5146 0.27915 0.0
H1875 H 0.23099 0.50545 0.30996 0.0
C1876 C 0.27999 0.53846 0.22312 0.0
C1877 C 0.27695 0.52904 0.20211 0.0
C1878 C 0.26377 0.536 0.2397 0.0
C1879 C 0.24426 0.52358 0.23587 0.0
C1880 C 0.24058 0.51567 0.21423 0.0
C1881 C 0.25671 0.51835 0.19763 0.0
C1882 C 0.19193 0.50854 0.2694 0.0
C1883 C 0.20062 0.50547 0.2908 0.0
C1884 C 0.20589 0.51448 0.25159 0.0
C1885 C 0.22896 0.51734 0.25468 0.0
C1886 C 0.23757 0.51341 0.27602 0.0
C1887 C 0.22366 0.50776 0.29374 0.0
H1888 H 0.71685 0.79047 0.48307 0.0
H1889 H 0.7611 0.83739 0.5136 0.0
H1890 H 0.74685 0.76367 0.48035 0.0
H1891 H 0.79101 0.81002 0.51266 0.0
H1892 H 0.84483 0.75832 0.49501 0.0
H1893 H 0.81726 0.78818 0.49474 0.0
H1894 H 0.76511 0.73953 0.50286 0.0
H1895 H 0.79257 0.71012 0.5015 0.0
C1896 C 0.73317 0.79505 0.489 0.0
C1897 C 0.73676 0.81594 0.4984 0.0
C1898 C 0.75035 0.77956 0.48787 0.0
C1899 C 0.77139 0.78424 0.49694 0.0
C1900 C 0.77519 0.80568 0.50542 0.0
C1901 C 0.75807 0.82145 0.50594 0.0
C1902 C 0.82745 0.75425 0.49711 0.0
C1903 C 0.82072 0.73205 0.49848 0.0
C1904 C 0.81158 0.77131 0.49689 0.0
C1905 C 0.78872 0.76644 0.49832 0.0
C1906 C 0.78236 0.74411 0.50089 0.0
C1907 C 0.79811 0.72717 0.50058 0.0
H1908 H 0.84705 0.24802 0.5063 0.0
H1909 H 0.80074 0.29589 0.48078 0.0
H1910 H 0.81779 0.22012 0.5077 0.0
H1911 H 0.77132 0.26795 0.4817 0.0
H1912 H 0.71922 0.22704 0.51759 0.0
H1913 H 0.75034 0.25167 0.51087 0.0
H1914 H 0.79061 0.19574 0.49149 0.0
H1915 H 0.75918 0.17084 0.49875 0.0
C1916 C 0.8308 0.25224 0.4999 0.0
C1917 C 0.82638 0.27405 0.49292 0.0
C1918 C 0.81389 0.23625 0.50092 0.0
C1919 C 0.7919 0.24171 0.49527 0.0
C1920 C 0.78788 0.26314 0.48667 0.0
C1921 C 0.80488 0.2791 0.48559 0.0
C1922 C 0.73477 0.21988 0.51211 0.0
C1923 C 0.73661 0.19687 0.5088 0.0
C1924 C 0.75263 0.23412 0.50791 0.0
C1925 C 0.77305 0.22596 0.50005 0.0
C1926 C 0.77521 0.20277 0.49748 0.0
C1927 C 0.75722 0.18841 0.50181 0.0
H1928 H 0.16918 0.76744 0.53351 0.0
H1929 H 0.20024 0.73821 0.47608 0.0
H1930 H 0.19763 0.7961 0.53458 0.0
H1931 H 0.22898 0.76705 0.47723 0.0
H1932 H 0.29111 0.78932 0.5172 0.0
H1933 H 0.25767 0.76879 0.50949 0.0
H1934 H 0.21912 0.82881 0.51414 0.0
H1935 H 0.25336 0.85013 0.52106 0.0
C1936 C 0.18172 0.76759 0.52063 0.0
C1937 C 0.18267 0.75039 0.50484 0.0
C1938 C 0.19797 0.7841 0.52124 0.0
C1939 C 0.21569 0.78365 0.50622 0.0
C1940 C 0.21556 0.76764 0.48917 0.0
C1941 C 0.19906 0.75122 0.48837 0.0
C1942 C 0.27561 0.79839 0.51673 0.0
C1943 C 0.27509 0.82155 0.51975 0.0
C1944 C 0.25641 0.78652 0.51196 0.0
C1945 C 0.23585 0.79722 0.51057 0.0
C1946 C 0.23487 0.82019 0.51474 0.0
C1947 C 0.25439 0.83234 0.51899 0.0
H1948 H 0.17285 0.24995 0.50786 0.0
H1949 H 0.21871 0.28857 0.54644 0.0
H1950 H 0.20126 0.22189 0.50174 0.0
H1951 H 0.24716 0.26018 0.54105 0.0
H1952 H 0.30094 0.22758 0.50129 0.0
H1953 H 0.26933 0.25121 0.50968 0.0
H1954 H 0.22698 0.19356 0.51256 0.0
H1955 H 0.25888 0.16996 0.50349 0.0
C1956 C 0.18867 0.25177 0.51619 0.0
C1957 C 0.1934 0.27134 0.52795 0.0
C1958 C 0.20513 0.23578 0.51239 0.0
C1959 C 0.22685 0.23897 0.52025 0.0
C1960 C 0.23085 0.25743 0.53409 0.0
C1961 C 0.21435 0.27347 0.53779 0.0
C1962 C 0.28469 0.22004 0.5028 0.0
C1963 C 0.28236 0.19693 0.50125 0.0
C1964 C 0.26661 0.23354 0.50825 0.0
C1965 C 0.24559 0.22435 0.51261 0.0
C1966 C 0.24288 0.20132 0.50948 0.0
C1967 C 0.26109 0.18776 0.50387 0.0
H1968 H 0.03219 0.12632 0.3138 0.0
H1969 H 0.02352 0.12393 0.38465 0.0
H1970 H 0.05294 0.09158 0.31506 0.0
H1971 H 0.04463 0.09004 0.3863 0.0
H1972 H 0.08881 0.03609 0.39239 0.0
H1973 H 0.05442 0.05384 0.38098 0.0
H1974 H 0.08896 0.08365 0.32558 0.0
H1975 H 0.12262 0.0641 0.33607 0.0
C1976 C 0.03409 0.11792 0.32955 0.0
C1977 C 0.02607 0.12769 0.34911 0.0
C1978 C 0.0462 0.09814 0.33035 0.0
C1979 C 0.051 0.08801 0.35081 0.0
C1980 C 0.04119 0.09691 0.3701 0.0
C1981 C 0.02887 0.11647 0.36923 0.0
C1982 C 0.0886 0.04545 0.37707 0.0
C1983 C 0.10823 0.04867 0.36499 0.0
C1984 C 0.069 0.056 0.37071 0.0
C1985 C 0.06893 0.07098 0.35282 0.0
C1986 C 0.08812 0.0723 0.33943 0.0
C1987 C 0.10755 0.06107 0.3454 0.0
H1988 H 0.97239 0.1206 0.35576 0.0
H1989 H 0.97998 0.11382 0.42654 0.0
H1990 H 0.95609 0.08398 0.35399 0.0
H1991 H 0.96441 0.07659 0.42482 0.0
H1992 H 0.91778 0.02599 0.35142 0.0
H1993 H 0.95226 0.0454 0.35821 0.0
H1994 H 0.92572 0.06979 0.42022 0.0
H1995 H 0.89173 0.04893 0.41407 0.0
C1996 C 0.97148 0.11081 0.37079 0.0
C1997 C 0.97664 0.12015 0.39135 0.0
C1998 C 0.96224 0.08969 0.36984 0.0
C1999 C 0.95828 0.07761 0.38946 0.0
C2000 C 0.96659 0.08579 0.40956 0.0
C2001 C 0.97554 0.10703 0.41053 0.0
C2002 C 0.91965 0.0348 0.36695 0.0
C2003 C 0.90197 0.03636 0.38208 0.0
C2004 C 0.93941 0.04599 0.37076 0.0
C2005 C 0.94154 0.05967 0.38939 0.0
C2006 C 0.92471 0.05935 0.40567 0.0
C2007 C 0.90509 0.04759 0.40211 0.0
H2008 H 0.9894 0.90371 0.37759 0.0
H2009 H 0.96955 0.87822 0.31394 0.0
H2010 H 0.96679 0.93636 0.37165 0.0
H2011 H 0.94776 0.91156 0.30714 0.0
H2012 H 0.88034 0.94375 0.32875 0.0
H2013 H 0.91319 0.92181 0.32042 0.0
H2014 H 0.9536 0.96861 0.35666 0.0
H2015 H 0.92036 0.98894 0.3666 0.0
C2016 C 0.98116 0.90571 0.36176 0.0
C2017 C 0.98102 0.88837 0.34635 0.0
C2018 C 0.96803 0.92451 0.35826 0.0
C2019 C 0.95476 0.92651 0.33907 0.0
C2020 C 0.95705 0.91035 0.32243 0.0
C2021 C 0.96982 0.89137 0.32616 0.0
C2022 C 0.89641 0.94984 0.33396 0.0
C2023 C 0.89788 0.96831 0.3479 0.0
C2024 C 0.9154 0.93722 0.32929 0.0
C2025 C 0.93624 0.94305 0.3383 0.0
C2026 C 0.93789 0.96315 0.34992 0.0
C2027 C 0.91888 0.97529 0.3551 0.0
H2028 H 0.12625 0.96147 0.32227 0.0
H2029 H 0.1078 0.00262 0.37764 0.0
H2030 H 0.0922 0.94071 0.32626 0.0
H2031 H 0.07236 0.98366 0.38016 0.0
H2032 H 0.04601 0.91724 0.4077 0.0
H2033 H 0.06432 0.95054 0.39573 0.0
H2034 H 0.05522 0.93099 0.32732 0.0
H2035 H 0.03763 0.89659 0.33989 0.0
C2036 C 0.11441 0.96678 0.3347 0.0
C2037 C 0.11984 0.98376 0.34968 0.0
C2038 C 0.09458 0.95496 0.33686 0.0
C2039 C 0.07944 0.96 0.35391 0.0
C2040 C 0.08379 0.97873 0.36722 0.0
C2041 C 0.10395 0.99013 0.36544 0.0
C2042 C 0.0472 0.92043 0.39006 0.0
C2043 C 0.0409 0.90414 0.37475 0.0
C2044 C 0.0577 0.93975 0.38306 0.0
C2045 C 0.06207 0.94342 0.36044 0.0
C2046 C 0.05291 0.92845 0.34493 0.0
C2047 C 0.04246 0.90887 0.35205 0.0
H2048 H 0.11903 0.98472 0.63701 0.0
H2049 H 0.13903 0.93297 0.682 0.0
H2050 H 0.07993 0.97513 0.64321 0.0
H2051 H 0.10031 0.92362 0.68857 0.0
H2052 H 0.03648 0.90378 0.69991 0.0
H2053 H 0.06172 0.93534 0.70155 0.0
H2054 H 0.06279 0.93799 0.63007 0.0
H2055 H 0.03732 0.90664 0.62859 0.0
C2056 C 0.11496 0.97193 0.64891 0.0
C2057 C 0.13184 0.95949 0.65906 0.0
C2058 C 0.09267 0.96643 0.6524 0.0
C2059 C 0.08706 0.94876 0.66647 0.0
C2060 C 0.10404 0.9376 0.67794 0.0
C2061 C 0.12622 0.94274 0.67404 0.0
C2062 C 0.04104 0.91206 0.68464 0.0
C2063 C 0.03539 0.90278 0.66412 0.0
C2064 C 0.05553 0.93005 0.68556 0.0
C2065 C 0.06472 0.9386 0.66594 0.0
C2066 C 0.05604 0.93167 0.64546 0.0
C2067 C 0.04144 0.91371 0.64456 0.0
H2068 H 0.0433 0.09004 0.63767 0.0
H2069 H 0.07975 0.13 0.68412 0.0
H2070 H 0.06375 0.05724 0.64973 0.0
H2071 H 0.10144 0.0981 0.69505 0.0
H2072 H 0.14546 0.04149 0.70751 0.0
H2073 H 0.11198 0.0643 0.70834 0.0
H2074 H 0.0989 0.04659 0.64007 0.0
H2075 H 0.13136 0.02312 0.63995 0.0
C2076 C 0.0551 0.09155 0.65111 0.0
C2077 C 0.06002 0.11235 0.66007 0.0
C2078 C 0.0672 0.07291 0.65774 0.0
C2079 C 0.085 0.07502 0.67276 0.0
C2080 C 0.08799 0.09553 0.68349 0.0
C2081 C 0.07549 0.11396 0.67727 0.0
C2082 C 0.13507 0.04227 0.69289 0.0
C2083 C 0.14096 0.03059 0.67368 0.0
C2084 C 0.11592 0.05539 0.69329 0.0
C2085 C 0.10258 0.05759 0.67423 0.0
C2086 C 0.10821 0.0451 0.65531 0.0
C2087 C 0.12705 0.03168 0.65512 0.0
H2088 H 0.98909 0.12022 0.7061 0.0
H2089 H 0.99832 0.11012 0.63608 0.0
H2090 H 0.96632 0.08692 0.70813 0.0
H2091 H 0.97421 0.07788 0.63747 0.0
H2092 H 0.92057 0.02964 0.638 0.0
H2093 H 0.9577 0.04394 0.64606 0.0
H2094 H 0.9297 0.08514 0.69768 0.0
H2095 H 0.89335 0.07009 0.69009 0.0
C2096 C 0.98694 0.1103 0.6913 0.0
C2097 C 0.9953 0.11776 0.67092 0.0
C2098 C 0.97354 0.09141 0.69232 0.0
C2099 C 0.96745 0.08014 0.67281 0.0
C2100 C 0.97828 0.08602 0.65291 0.0
C2101 C 0.99224 0.10457 0.65205 0.0
C2102 C 0.92273 0.04081 0.65186 0.0
C2103 C 0.90422 0.0486 0.66363 0.0
C2104 C 0.94395 0.04936 0.65625 0.0
C2105 C 0.94691 0.06611 0.67228 0.0
C2106 C 0.92849 0.07217 0.68538 0.0
C2107 C 0.90745 0.06359 0.68102 0.0
H2108 H 0.94828 0.89178 0.70596 0.0
H2109 H 0.99242 0.92227 0.65886 0.0
H2110 H 0.93261 0.9273 0.71485 0.0
H2111 H 0.97797 0.95867 0.66881 0.0
H2112 H 0.9111 0.99086 0.64687 0.0
H2113 H 0.94561 0.97248 0.65531 0.0
H2114 H 0.92359 0.96263 0.72295 0.0
H2115 H 0.88818 0.97977 0.71355 0.0
C2116 C 0.95564 0.90642 0.69859 0.0
C2117 C 0.97131 0.90434 0.6816 0.0
C2118 C 0.94665 0.92706 0.70368 0.0
C2119 C 0.95319 0.94608 0.69178 0.0
C2120 C 0.97177 0.94433 0.67762 0.0
C2121 C 0.98049 0.9235 0.67223 0.0
C2122 C 0.9141 0.98567 0.66379 0.0
C2123 C 0.89701 0.98638 0.67946 0.0
C2124 C 0.93404 0.97503 0.66878 0.0
C2125 C 0.93726 0.965 0.68967 0.0
C2126 C 0.9214 0.96913 0.70638 0.0
C2127 C 0.90118 0.97919 0.70114 0.0
H2128 H 0.31456 0.04041 0.12948 0.0
H2129 H 0.38338 0.02398 0.11963 0.0
H2130 H 0.3135 0.05834 0.09339 0.0
H2131 H 0.38343 0.04373 0.08497 0.0
H2132 H 0.39012 0.09289 0.03487 0.0
H2133 H 0.37884 0.05813 0.05176 0.0
H2134 H 0.32313 0.09192 0.08223 0.0
H2135 H 0.3332 0.12554 0.06298 0.0
C2136 C 0.32931 0.04013 0.11921 0.0
C2137 C 0.34912 0.03111 0.12736 0.0
C2138 C 0.32892 0.05087 0.09866 0.0
C2139 C 0.34866 0.05386 0.08643 0.0
C2140 C 0.36775 0.04224 0.09353 0.0
C2141 C 0.36784 0.03074 0.11363 0.0
C2142 C 0.37479 0.09236 0.04426 0.0
C2143 C 0.36238 0.11174 0.04754 0.0
C2144 C 0.36851 0.07253 0.05444 0.0
C2145 C 0.35058 0.07203 0.06947 0.0
C2146 C 0.33703 0.09111 0.07095 0.0
C2147 C 0.34277 0.11066 0.05988 0.0
H2148 H 0.98815 0.36322 0.10941 0.0
H2149 H 0.96519 0.3033 0.14096 0.0
H2150 H 0.96334 0.35613 0.07818 0.0
H2151 H 0.94026 0.29644 0.10995 0.0
H2152 H 0.90987 0.33845 0.0272 0.0
H2153 H 0.94398 0.32709 0.04656 0.0
H2154 H 0.90841 0.32874 0.10864 0.0
H2155 H 0.87529 0.34153 0.08951 0.0
C2156 C 0.97885 0.34788 0.10908 0.0
C2157 C 0.97825 0.33403 0.12777 0.0
C2158 C 0.96458 0.34383 0.0912 0.0
C2159 C 0.94965 0.32592 0.09193 0.0
C2160 C 0.95153 0.31039 0.10909 0.0
C2161 C 0.96579 0.31437 0.12683 0.0
C2162 C 0.90937 0.33577 0.04485 0.0
C2163 C 0.89018 0.34106 0.05691 0.0
C2164 C 0.92877 0.32924 0.0559 0.0
C2165 C 0.92879 0.32713 0.07907 0.0
C2166 C 0.9088 0.32996 0.09073 0.0
C2167 C 0.88976 0.3371 0.07978 0.0
H2168 H 0.63503 0.95035 0.14678 0.0
H2169 H 0.69539 0.98151 0.12393 0.0
H2170 H 0.64179 0.91944 0.12125 0.0
H2171 H 0.70313 0.95037 0.10043 0.0
H2172 H 0.69574 0.90498 0.04076 0.0
H2173 H 0.6939 0.93371 0.0684 0.0
H2174 H 0.66377 0.88767 0.11446 0.0
H2175 H 0.66447 0.85911 0.0858 0.0
C2176 C 0.64953 0.95073 0.13616 0.0
C2177 C 0.66461 0.96837 0.13736 0.0
C2178 C 0.65375 0.93279 0.12193 0.0
C2179 C 0.67324 0.93213 0.10891 0.0
C2180 C 0.68783 0.9502 0.10983 0.0
C2181 C 0.68338 0.96816 0.12349 0.0
C2182 C 0.68971 0.9007 0.05715 0.0
C2183 C 0.68003 0.87995 0.06104 0.0
C2184 C 0.68841 0.9173 0.07308 0.0
C2185 C 0.678 0.91332 0.0936 0.0
C2186 C 0.67112 0.89157 0.09856 0.0
C2187 C 0.67214 0.87497 0.08238 0.0
H2188 H 0.03372 0.64478 0.11694 0.0
H2189 H 0.05604 0.71132 0.12973 0.0
H2190 H 0.05174 0.64518 0.08149 0.0
H2191 H 0.07285 0.71285 0.093 0.0
H2192 H 0.09845 0.63568 0.03076 0.0
H2193 H 0.06499 0.65082 0.04768 0.0
H2194 H 0.10528 0.7001 0.08101 0.0
H2195 H 0.13766 0.68639 0.06196 0.0
C2196 C 0.04144 0.66005 0.1115 0.0
C2197 C 0.04377 0.67789 0.12611 0.0
C2198 C 0.05193 0.66039 0.09092 0.0
C2199 C 0.06481 0.67878 0.08435 0.0
C2200 C 0.06416 0.69792 0.09777 0.0
C2201 C 0.05423 0.69726 0.11873 0.0
C2202 C 0.0997 0.65043 0.04089 0.0
C2203 C 0.12041 0.65979 0.04546 0.0
C2204 C 0.08063 0.65895 0.05096 0.0
C2205 C 0.08229 0.67599 0.0669 0.0
C2206 C 0.10288 0.68692 0.06914 0.0
C2207 C 0.1217 0.67901 0.05827 0.0
H2208 H 0.37188 0.99681 0.90256 0.0
H2209 H 0.30883 0.97343 0.87839 0.0
H2210 H 0.36918 0.97212 0.93389 0.0
H2211 H 0.30527 0.9493 0.9106 0.0
H2212 H 0.33216 0.8824 0.93893 0.0
H2213 H 0.32098 0.91556 0.9189 0.0
H2214 H 0.35732 0.95589 0.96574 0.0
H2215 H 0.37002 0.92244 0.98418 0.0
C2216 C 0.35679 0.9873 0.90462 0.0
C2217 C 0.34069 0.98693 0.88789 0.0
C2218 C 0.35519 0.97289 0.92271 0.0
C2219 C 0.33722 0.95801 0.92469 0.0
C2220 C 0.31974 0.95984 0.90934 0.0
C2221 C 0.32159 0.97395 0.89101 0.0
C2222 C 0.33697 0.89844 0.94537 0.0
C2223 C 0.35181 0.8999 0.96313 0.0
C2224 C 0.3306 0.91761 0.93388 0.0
C2225 C 0.33868 0.93866 0.94024 0.0
C2226 C 0.35133 0.94008 0.95977 0.0
C2227 C 0.35824 0.9209 0.97073 0.0
H2228 H 0.09886 0.40153 0.96844 0.0
H2229 H 0.1213 0.33423 0.97665 0.0
H2230 H 0.06526 0.38865 0.95125 0.0
H2231 H 0.0869 0.3208 0.95979 0.0
H2232 H 0.06141 0.32042 0.88598 0.0
H2233 H 0.07863 0.32092 0.92208 0.0
H2234 H 0.03233 0.37137 0.94336 0.0
H2235 H 0.01687 0.37244 0.90631 0.0
C2236 C 0.09609 0.38383 0.96735 0.0
C2237 C 0.1129 0.36891 0.97317 0.0
C2238 C 0.07659 0.37629 0.95761 0.0
C2239 C 0.07347 0.35358 0.95332 0.0
C2240 C 0.089 0.33845 0.96216 0.0
C2241 C 0.10864 0.34609 0.97201 0.0
C2242 C 0.05445 0.33117 0.89857 0.0
C2243 C 0.03801 0.34676 0.89306 0.0
C2244 C 0.06422 0.3313 0.91953 0.0
C2245 C 0.05754 0.34687 0.93557 0.0
C2246 C 0.03853 0.35974 0.93118 0.0
C2247 C 0.02918 0.36003 0.90997 0.0
H2248 H 0.65633 0.09775 0.99646 0.0
H2249 H 0.6982 0.13826 0.95526 0.0
H2250 H 0.66857 0.06474 0.97649 0.0
H2251 H 0.70931 0.10617 0.93429 0.0
H2252 H 0.64998 0.03429 0.90803 0.0
H2253 H 0.65559 0.05325 0.94293 0.0
H2254 H 0.72119 0.07314 0.92134 0.0
H2255 H 0.71444 0.05545 0.88565 0.0
C2256 C 0.66902 0.09939 0.98383 0.0
C2257 C 0.67624 0.12042 0.9772 0.0
C2258 C 0.6757 0.08057 0.97199 0.0
C2259 C 0.68908 0.0827 0.95289 0.0
C2260 C 0.69888 0.10348 0.94863 0.0
C2261 C 0.69259 0.12211 0.96078 0.0
C2262 C 0.66587 0.04207 0.91113 0.0
C2263 C 0.68167 0.04366 0.89419 0.0
C2264 C 0.66924 0.05298 0.93128 0.0
C2265 C 0.6887 0.06545 0.93502 0.0
C2266 C 0.70564 0.06452 0.91891 0.0
C2267 C 0.70194 0.05417 0.89851 0.0
H2268 H 0.99405 0.64209 0.91083 0.0
H2269 H 0.98077 0.71136 0.89988 0.0
H2270 H 0.97766 0.64431 0.947 0.0
H2271 H 0.96545 0.71438 0.93719 0.0
H2272 H 0.93068 0.63844 0.9964 0.0
H2273 H 0.96593 0.65141 0.98149 0.0
H2274 H 0.93127 0.70492 0.94844 0.0
H2275 H 0.89702 0.69309 0.96531 0.0
C2276 C 0.98877 0.65818 0.91678 0.0
C2277 C 0.98835 0.67645 0.90251 0.0
C2278 C 0.97924 0.65958 0.93778 0.0
C2279 C 0.96914 0.6794 0.94502 0.0
C2280 C 0.97199 0.69854 0.9319 0.0
C2281 C 0.98101 0.69695 0.91059 0.0
C2282 C 0.93105 0.6538 0.98711 0.0
C2283 C 0.9113 0.66476 0.98179 0.0
C2284 C 0.95117 0.66103 0.97811 0.0
C2285 C 0.9515 0.67844 0.96251 0.0
C2286 C 0.93208 0.69127 0.96001 0.0
C2287 C 0.91218 0.6845 0.9697 0.0
H2288 H 0.12496 0.3116 0.04115 0.0
H2289 H 0.11431 0.38004 0.02406 0.0
H2290 H 0.08926 0.3106 0.06007 0.0
H2291 H 0.07975 0.37998 0.04442 0.0
H2292 H 0.02613 0.3848 0.09123 0.0
H2293 H 0.04532 0.37384 0.05734 0.0
H2294 H 0.0782 0.32147 0.09377 0.0
H2295 H 0.05755 0.33147 0.12658 0.0
C2296 C 0.11462 0.32628 0.04097 0.0
C2297 C 0.12243 0.34592 0.03126 0.0
C2298 C 0.09427 0.32591 0.0522 0.0
C2299 C 0.08169 0.34546 0.05485 0.0
C2300 C 0.08858 0.36446 0.04301 0.0
C2301 C 0.10859 0.36458 0.03118 0.0
C2302 C 0.03652 0.37015 0.09146 0.0
C2303 C 0.04024 0.35883 0.1114 0.0
C2304 C 0.04801 0.36412 0.07215 0.0
C2305 C 0.06422 0.34723 0.07265 0.0
C2306 C 0.066 0.3345 0.09221 0.0
C2307 C 0.05403 0.34016 0.11126 0.0
H2308 H 0.12382 0.70488 0.97848 0.0
H2309 H 0.12655 0.63477 0.99133 0.0
H2310 H 0.08745 0.70049 0.96147 0.0
H2311 H 0.09166 0.62966 0.9726 0.0
H2312 H 0.0365 0.61785 0.92933 0.0
H2313 H 0.05641 0.6297 0.96232 0.0
H2314 H 0.07463 0.69044 0.92856 0.0
H2315 H 0.05273 0.67931 0.89697 0.0
C2316 C 0.11633 0.68858 0.97805 0.0
C2317 C 0.12792 0.67019 0.98617 0.0
C2318 C 0.09561 0.68589 0.9679 0.0
C2319 C 0.08657 0.66456 0.96463 0.0
C2320 C 0.09753 0.64645 0.97462 0.0
C2321 C 0.1178 0.64931 0.98545 0.0
C2322 C 0.04405 0.63413 0.92953 0.0
C2323 C 0.04336 0.6476 0.91062 0.0
C2324 C 0.05588 0.64085 0.9483 0.0
C2325 C 0.0683 0.66067 0.9481 0.0
C2326 C 0.06556 0.67505 0.92981 0.0
C2327 C 0.05296 0.66868 0.91144 0.0
H2328 H 0.36663 0.10957 0.00391 0.0
H2329 H 0.31685 0.13465 0.95955 0.0
H2330 H 0.36398 0.07342 0.98712 0.0
H2331 H 0.31709 0.09984 0.93972 0.0
H2332 H 0.33147 0.04695 0.89416 0.0
H2333 H 0.31619 0.06376 0.92782 0.0
H2334 H 0.38214 0.06426 0.95631 0.0
H2335 H 0.39653 0.04692 0.92359 0.0
C2336 C 0.35417 0.10704 0.99147 0.0
C2337 C 0.34167 0.12492 0.98361 0.0
C2338 C 0.35328 0.08644 0.98098 0.0
C2339 C 0.34127 0.08377 0.96114 0.0
C2340 C 0.32679 0.10096 0.95474 0.0
C2341 C 0.32682 0.1212 0.96604 0.0
C2342 C 0.34231 0.04974 0.90818 0.0
C2343 C 0.36523 0.04619 0.90622 0.0
C2344 C 0.33367 0.0597 0.92739 0.0
C2345 C 0.34792 0.06632 0.94474 0.0
C2346 C 0.37033 0.05969 0.94366 0.0
C2347 C 0.37881 0.04976 0.92466 0.0
H2348 H 0.96919 0.34766 0.90192 0.0
H2349 H 0.97809 0.41837 0.89804 0.0
H2350 H 0.95058 0.35201 0.9377 0.0
H2351 H 0.9596 0.42291 0.93382 0.0
H2352 H 0.88676 0.41512 0.96563 0.0
H2353 H 0.919 0.41762 0.94101 0.0
H2354 H 0.95072 0.36447 0.97691 0.0
H2355 H 0.91866 0.36203 0.00108 0.0
C2356 C 0.9681 0.36398 0.90929 0.0
C2357 C 0.97508 0.38265 0.89747 0.0
C2358 C 0.95739 0.36658 0.92971 0.0
C2359 C 0.95334 0.38791 0.9384 0.0
C2360 C 0.96222 0.40635 0.92742 0.0
C2361 C 0.97299 0.40373 0.90711 0.0
C2362 C 0.90107 0.40474 0.96885 0.0
C2363 C 0.90013 0.38817 0.98508 0.0
C2364 C 0.91952 0.40606 0.95472 0.0
C2365 C 0.93719 0.39084 0.95675 0.0
C2366 C 0.93721 0.37609 0.97465 0.0
C2367 C 0.91887 0.3748 0.98863 0.0
H2368 H 0.69482 0.96603 0.89806 0.0
H2369 H 0.63533 0.99617 0.9236 0.0
H2370 H 0.69605 0.94135 0.92987 0.0
H2371 H 0.63659 0.97173 0.95569 0.0
H2372 H 0.61885 0.89433 0.95442 0.0
H2373 H 0.62653 0.93239 0.94299 0.0
H2374 H 0.69263 0.92746 0.9702 0.0
H2375 H 0.68449 0.88944 0.98228 0.0
C2376 C 0.68305 0.96862 0.91139 0.0
C2377 C 0.66466 0.98248 0.90821 0.0
C2378 C 0.6836 0.95429 0.92958 0.0
C2379 C 0.66583 0.95404 0.94468 0.0
C2380 C 0.65017 0.97126 0.94392 0.0
C2381 C 0.64963 0.98551 0.92571 0.0
C2382 C 0.63484 0.90158 0.95822 0.0
C2383 C 0.65119 0.88911 0.96887 0.0
C2384 C 0.63919 0.92342 0.95203 0.0
C2385 C 0.66015 0.93299 0.95595 0.0
C2386 C 0.6763 0.9206 0.96722 0.0
C2387 C 0.67171 0.8989 0.97394 0.0
H2388 H 0.96622 0.68811 0.13442 0.0
H2389 H 0.99727 0.63744 0.09496 0.0
H2390 H 0.94447 0.69971 0.10296 0.0
H2391 H 0.97748 0.65051 0.06232 0.0
H2392 H 0.90791 0.64216 0.03252 0.0
H2393 H 0.94319 0.6433 0.05108 0.0
H2394 H 0.93033 0.71114 0.07089 0.0
H2395 H 0.89384 0.70885 0.0536 0.0
C2396 C 0.96939 0.68041 0.1185 0.0
C2397 C 0.98319 0.66183 0.11707 0.0
C2398 C 0.95684 0.68704 0.10022 0.0
C2399 C 0.95824 0.67547 0.07994 0.0
C2400 C 0.97488 0.65913 0.07782 0.0
C2401 C 0.98671 0.6519 0.0964 0.0
C2402 C 0.91296 0.65752 0.04031 0.0
C2403 C 0.89814 0.6753 0.04188 0.0
C2404 C 0.93344 0.65833 0.051 0.0
C2405 C 0.93979 0.67716 0.06333 0.0
C2406 C 0.92585 0.69595 0.06253 0.0
C2407 C 0.905 0.69483 0.05237 0.0
H2408 H 0.41065 0.97726 0.12158 0.0
H2409 H 0.34165 0.95871 0.12243 0.0
H2410 H 0.41525 0.9594 0.08539 0.0
H2411 H 0.34597 0.94118 0.08621 0.0
H2412 H 0.41275 0.88573 0.05227 0.0
H2413 H 0.41361 0.91729 0.07796 0.0
H2414 H 0.35602 0.94514 0.04588 0.0
H2415 H 0.35493 0.91377 0.0208 0.0
C2416 C 0.39623 0.97032 0.11343 0.0
C2417 C 0.37572 0.96955 0.12447 0.0
C2418 C 0.39894 0.95987 0.09292 0.0
C2419 C 0.38107 0.94872 0.08309 0.0
C2420 C 0.36003 0.94982 0.09327 0.0
C2421 C 0.35744 0.95998 0.11392 0.0
C2422 C 0.4009 0.89906 0.0502 0.0
C2423 C 0.38365 0.89719 0.03475 0.0
C2424 C 0.40133 0.91712 0.06488 0.0
C2425 C 0.38458 0.93345 0.06413 0.0
C2426 C 0.3689 0.93267 0.04706 0.0
C2427 C 0.36841 0.91473 0.0326 0.0
H2428 H 0.64681 0.12162 0.0409 0.0
H2429 H 0.71471 0.13702 0.0575 0.0
H2430 H 0.64729 0.09126 0.06811 0.0
H2431 H 0.71496 0.10696 0.08473 0.0
H2432 H 0.67188 0.07863 0.15303 0.0
H2433 H 0.67965 0.10531 0.12318 0.0
H2434 H 0.68076 0.05212 0.07561 0.0
H2435 H 0.67369 0.02545 0.10531 0.0
C2436 C 0.66202 0.11808 0.04975 0.0
C2437 C 0.68072 0.13174 0.047 0.0
C2438 C 0.66222 0.10088 0.06548 0.0
C2439 C 0.68109 0.09707 0.07869 0.0
C2440 C 0.70016 0.10978 0.07497 0.0
C2441 C 0.7 0.12685 0.05925 0.0
C2442 C 0.67493 0.07253 0.13642 0.0
C2443 C 0.67232 0.04991 0.13158 0.0
C2444 C 0.67901 0.08781 0.11929 0.0
C2445 C 0.68039 0.08072 0.0971 0.0
C2446 C 0.67952 0.058 0.09253 0.0
C2447 C 0.67574 0.04276 0.1096 0.0
H2448 H 0.53176 0.6055 0.86428 0.0
H2449 H 0.5581 0.63681 0.80574 0.0
H2450 H 0.55588 0.57404 0.85843 0.0
H2451 H 0.58138 0.60456 0.79867 0.0
H2452 H 0.6071 0.52618 0.85814 0.0
H2453 H 0.57372 0.54401 0.84429 0.0
H2454 H 0.61437 0.59543 0.81503 0.0
H2455 H 0.64751 0.57617 0.82722 0.0
C2456 C 0.54177 0.60501 0.84937 0.0
C2457 C 0.54334 0.62366 0.83566 0.0
C2458 C 0.5558 0.58687 0.84592 0.0
C2459 C 0.5714 0.58691 0.82842 0.0
C2460 C 0.57035 0.60424 0.81284 0.0
C2461 C 0.55674 0.62261 0.81664 0.0
C2462 C 0.60881 0.54046 0.84744 0.0
C2463 C 0.62981 0.54964 0.84343 0.0
C2464 C 0.58964 0.55107 0.83993 0.0
C2465 C 0.59105 0.57172 0.82918 0.0
C2466 C 0.6123 0.57958 0.82314 0.0
C2467 C 0.6315 0.56853 0.8301 0.0
H2468 H 0.39925 0.52493 0.88253 0.0
H2469 H 0.38665 0.54198 0.8144 0.0
H2470 H 0.43468 0.54353 0.88088 0.0
H2471 H 0.42312 0.55924 0.8118 0.0
H2472 H 0.4624 0.62233 0.83016 0.0
H2473 H 0.43832 0.59161 0.8214 0.0
H2474 H 0.46981 0.55253 0.87271 0.0
H2475 H 0.49238 0.5845 0.88261 0.0
C2476 C 0.40464 0.53177 0.86681 0.0
C2477 C 0.39023 0.53204 0.84862 0.0
C2478 C 0.42516 0.54252 0.86575 0.0
C2479 C 0.43203 0.55356 0.84627 0.0
C2480 C 0.41835 0.55178 0.82738 0.0
C2481 C 0.3975 0.54157 0.8287 0.0
C2482 C 0.46489 0.60678 0.8388 0.0
C2483 C 0.47917 0.60578 0.85705 0.0
C2484 C 0.45087 0.58898 0.83391 0.0
C2485 C 0.45123 0.5695 0.84688 0.0
C2486 C 0.4681 0.56747 0.86296 0.0
C2487 C 0.48158 0.5856 0.86831 0.0
H2488 H 0.38788 0.45765 0.83793 0.0
H2489 H 0.42324 0.4879 0.89192 0.0
H2490 H 0.4215 0.43983 0.82556 0.0
H2491 H 0.4579 0.47214 0.87834 0.0
H2492 H 0.47356 0.39347 0.81494 0.0
H2493 H 0.45509 0.42938 0.81424 0.0
H2494 H 0.47162 0.43829 0.88355 0.0
H2495 H 0.49157 0.40367 0.88318 0.0
C2496 C 0.40328 0.46151 0.84634 0.0
C2497 C 0.40305 0.47371 0.86602 0.0
C2498 C 0.42281 0.45129 0.83924 0.0
C2499 C 0.44264 0.45352 0.85151 0.0
C2500 C 0.44288 0.46889 0.86912 0.0
C2501 C 0.42311 0.47835 0.87673 0.0
C2502 C 0.47403 0.40378 0.82962 0.0
C2503 C 0.48383 0.39591 0.84914 0.0
C2504 C 0.46312 0.42424 0.82942 0.0
C2505 C 0.46076 0.43664 0.8491 0.0
C2506 C 0.47278 0.42963 0.86793 0.0
C2507 C 0.48431 0.40957 0.86785 0.0
H2508 H 0.58528 0.37492 0.89907 0.0
H2509 H 0.53171 0.41089 0.86819 0.0
H2510 H 0.60449 0.40925 0.90637 0.0
H2511 H 0.55049 0.44575 0.87653 0.0
H2512 H 0.61154 0.48726 0.85332 0.0
H2513 H 0.5819 0.46136 0.85939 0.0
H2514 H 0.60949 0.44457 0.92335 0.0
H2515 H 0.63993 0.47077 0.91689 0.0
C2516 C 0.57737 0.39022 0.89417 0.0
C2517 C 0.5572 0.39013 0.88256 0.0
C2518 C 0.58825 0.41006 0.89876 0.0
C2519 C 0.57918 0.43037 0.89192 0.0
C2520 C 0.55813 0.43038 0.88176 0.0
C2521 C 0.54731 0.41043 0.87701 0.0
C2522 C 0.61098 0.47867 0.86906 0.0
C2523 C 0.62831 0.48078 0.88447 0.0
C2524 C 0.59376 0.4638 0.87263 0.0
C2525 C 0.59344 0.45049 0.89169 0.0
C2526 C 0.60952 0.45427 0.90825 0.0
C2527 C 0.62686 0.46937 0.90467 0.0
H2528 H 0.53053 0.39766 0.2075 0.0
H2529 H 0.52407 0.40578 0.13685 0.0
H2530 H 0.5511 0.43234 0.20971 0.0
H2531 H 0.54581 0.43946 0.13855 0.0
H2532 H 0.62323 0.45497 0.19344 0.0
H2533 H 0.58762 0.43841 0.20142 0.0
H2534 H 0.55865 0.47441 0.14658 0.0
H2535 H 0.59509 0.48979 0.13796 0.0
C2536 C 0.53299 0.40725 0.19252 0.0
C2537 C 0.526 0.39892 0.17197 0.0
C2538 C 0.54503 0.42702 0.1937 0.0
C2539 C 0.55103 0.43847 0.17424 0.0
C2540 C 0.5417 0.43135 0.15401 0.0
C2541 C 0.52916 0.41187 0.15295 0.0
C2542 C 0.60897 0.46025 0.18387 0.0
C2543 C 0.61185 0.47371 0.1652 0.0
C2544 C 0.58836 0.45065 0.18835 0.0
C2545 C 0.57011 0.45441 0.17422 0.0
C2546 C 0.5724 0.47048 0.15741 0.0
C2547 C 0.59319 0.47977 0.15273 0.0
H2548 H 0.53198 0.59811 0.13348 0.0
H2549 H 0.56776 0.63415 0.18352 0.0
H2550 H 0.5481 0.56345 0.14674 0.0
H2551 H 0.5854 0.60042 0.19568 0.0
H2552 H 0.62809 0.54646 0.20815 0.0
H2553 H 0.59296 0.56651 0.20898 0.0
H2554 H 0.58176 0.54831 0.14046 0.0
H2555 H 0.6156 0.52692 0.14068 0.0
C2556 C 0.5427 0.59842 0.14787 0.0
C2557 C 0.54861 0.6186 0.15765 0.0
C2558 C 0.55233 0.57864 0.15525 0.0
C2559 C 0.56879 0.57891 0.17187 0.0
C2560 C 0.57284 0.59907 0.18298 0.0
C2561 C 0.56279 0.61864 0.17596 0.0
C2562 C 0.61747 0.54606 0.19368 0.0
C2563 C 0.62452 0.53543 0.17428 0.0
C2564 C 0.59747 0.55779 0.19397 0.0
C2565 C 0.58478 0.56009 0.17447 0.0
C2566 C 0.59079 0.54722 0.15589 0.0
C2567 C 0.61038 0.53489 0.15591 0.0
H2568 H 0.39251 0.56255 0.19025 0.0
H2569 H 0.42335 0.53564 0.13179 0.0
H2570 H 0.42736 0.57867 0.20135 0.0
H2571 H 0.45925 0.5486 0.14431 0.0
H2572 H 0.49417 0.61539 0.13935 0.0
H2573 H 0.47528 0.58057 0.14024 0.0
H2574 H 0.46076 0.5902 0.21002 0.0
H2575 H 0.47822 0.62651 0.20802 0.0
C2576 C 0.40718 0.55898 0.18049 0.0
C2577 C 0.4053 0.54819 0.16011 0.0
C2578 C 0.42747 0.56818 0.18685 0.0
C2579 C 0.44642 0.5662 0.17314 0.0
C2580 C 0.445 0.55197 0.15465 0.0
C2581 C 0.42446 0.54397 0.14765 0.0
C2582 C 0.48765 0.60965 0.15508 0.0
C2583 C 0.48716 0.62375 0.17345 0.0
C2584 C 0.47661 0.5894 0.15573 0.0
C2585 C 0.46505 0.58264 0.17497 0.0
C2586 C 0.46805 0.59525 0.19444 0.0
C2587 C 0.47844 0.61595 0.19351 0.0
H2588 H 0.3885 0.4644 0.20233 0.0
H2589 H 0.4017 0.50445 0.14476 0.0
H2590 H 0.42234 0.44375 0.19555 0.0
H2591 H 0.43733 0.48683 0.14018 0.0
H2592 H 0.46291 0.4225 0.10948 0.0
H2593 H 0.44414 0.45451 0.12368 0.0
H2594 H 0.45867 0.43347 0.19075 0.0
H2595 H 0.47625 0.40011 0.17604 0.0
C2596 C 0.3993 0.46972 0.18899 0.0
C2597 C 0.39252 0.48649 0.17432 0.0
C2598 C 0.41897 0.45798 0.18519 0.0
C2599 C 0.43257 0.46308 0.16685 0.0
C2600 C 0.42706 0.48175 0.15399 0.0
C2601 C 0.4069 0.49267 0.15715 0.0
C2602 C 0.46256 0.42492 0.12727 0.0
C2603 C 0.47057 0.40852 0.14162 0.0
C2604 C 0.45192 0.44361 0.13558 0.0
C2605 C 0.44925 0.44664 0.15858 0.0
C2606 C 0.45971 0.43146 0.17296 0.0
C2607 C 0.47014 0.41245 0.16455 0.0
H2608 H 0.84507 0.5265 0.61087 0.0
H2609 H 0.90927 0.54552 0.63598 0.0
H2610 H 0.85144 0.54782 0.5775 0.0
H2611 H 0.91494 0.56887 0.60354 0.0
H2612 H 0.92318 0.6115 0.5462 0.0
H2613 H 0.92056 0.57682 0.56669 0.0
H2614 H 0.84917 0.58455 0.56947 0.0
H2615 H 0.85197 0.6181 0.54759 0.0
C2616 C 0.86072 0.53509 0.60908 0.0
C2617 C 0.87665 0.5345 0.62604 0.0
C2618 C 0.86427 0.54761 0.59004 0.0
C2619 C 0.88343 0.56066 0.5879 0.0
C2620 C 0.90001 0.55895 0.60434 0.0
C2621 C 0.89675 0.54573 0.62311 0.0
C2622 C 0.90692 0.6052 0.55058 0.0
C2623 C 0.88777 0.61744 0.54564 0.0
C2624 C 0.90541 0.5855 0.56256 0.0
C2625 C 0.88475 0.57808 0.57044 0.0
C2626 C 0.86543 0.58946 0.56368 0.0
C2627 C 0.86694 0.60882 0.55114 0.0
H2628 H 0.41538 0.85262 0.53374 0.0
H2629 H 0.36539 0.86514 0.58346 0.0
H2630 H 0.4442 0.85829 0.56088 0.0
H2631 H 0.39439 0.8694 0.61138 0.0
H2632 H 0.44946 0.90039 0.65146 0.0
H2633 H 0.42143 0.89568 0.62235 0.0
H2634 H 0.46314 0.84642 0.59097 0.0
H2635 H 0.49112 0.85233 0.61885 0.0
C2636 C 0.41055 0.85564 0.55079 0.0
C2637 C 0.38814 0.85862 0.55641 0.0
C2638 C 0.42714 0.85902 0.56644 0.0
C2639 C 0.42177 0.86489 0.58835 0.0
C2640 C 0.3992 0.86568 0.5945 0.0
C2641 C 0.38252 0.86261 0.57864 0.0
C2642 C 0.45292 0.88947 0.63764 0.0
C2643 C 0.47246 0.8769 0.63719 0.0
C2644 C 0.43666 0.88623 0.62132 0.0
C2645 C 0.4397 0.87024 0.6045 0.0
C2646 C 0.46008 0.85899 0.60338 0.0
C2647 C 0.47628 0.86248 0.61935 0.0
H2648 H 0.10648 0.41427 0.53738 0.0
H2649 H 0.17513 0.40108 0.5525 0.0
H2650 H 0.10841 0.44907 0.5578 0.0
H2651 H 0.17711 0.43577 0.57318 0.0
H2652 H 0.11322 0.47469 0.63233 0.0
H2653 H 0.11031 0.4519 0.59885 0.0
H2654 H 0.17386 0.4763 0.57643 0.0
H2655 H 0.17683 0.49867 0.60973 0.0
C2656 C 0.12225 0.41932 0.54432 0.0
C2657 C 0.14058 0.40492 0.54372 0.0
C2658 C 0.12327 0.4391 0.55621 0.0
C2659 C 0.14266 0.44482 0.56764 0.0
C2660 C 0.16186 0.43179 0.56459 0.0
C2661 C 0.16084 0.41197 0.55261 0.0
C2662 C 0.12616 0.47566 0.6199 0.0
C2663 C 0.14536 0.48811 0.62379 0.0
C2664 C 0.12456 0.46266 0.60071 0.0
C2665 C 0.14208 0.46208 0.58515 0.0
C2666 C 0.16032 0.47607 0.58825 0.0
C2667 C 0.16194 0.4889 0.60734 0.0
H2668 H 0.56061 0.20461 0.64463 0.0
H2669 H 0.53233 0.15144 0.60623 0.0
H2670 H 0.58551 0.21376 0.6141 0.0
H2671 H 0.55716 0.16067 0.5755 0.0
H2672 H 0.60256 0.17747 0.52271 0.0
H2673 H 0.57211 0.18715 0.54722 0.0
H2674 H 0.61803 0.19101 0.60189 0.0
H2675 H 0.64856 0.18133 0.57706 0.0
C2676 C 0.55911 0.19544 0.62927 0.0
C2677 C 0.54458 0.17723 0.62782 0.0
C2678 C 0.57351 0.2006 0.61187 0.0
C2679 C 0.57364 0.18774 0.59253 0.0
C2680 C 0.55743 0.17102 0.59015 0.0
C2681 C 0.54303 0.16577 0.60768 0.0
C2682 C 0.60642 0.18183 0.53961 0.0
C2683 C 0.62802 0.1787 0.54787 0.0
C2684 C 0.58883 0.18693 0.5538 0.0
C2685 C 0.59251 0.18925 0.5766 0.0
C2686 C 0.61459 0.18929 0.58437 0.0
C2687 C 0.63224 0.18405 0.57008 0.0
H2688 H 0.85049 0.40384 0.47311 0.0
H2689 H 0.92031 0.41233 0.48583 0.0
H2690 H 0.85044 0.43771 0.45126 0.0
H2691 H 0.92038 0.4465 0.46425 0.0
H2692 H 0.91596 0.47367 0.39025 0.0
H2693 H 0.91869 0.45146 0.42427 0.0
H2694 H 0.85484 0.47614 0.44557 0.0
H2695 H 0.85151 0.49659 0.41139 0.0
C2696 C 0.86552 0.41366 0.47233 0.0
C2697 C 0.88539 0.40539 0.481 0.0
C2698 C 0.86564 0.43304 0.45956 0.0
C2699 C 0.88563 0.44458 0.45542 0.0
C2700 C 0.90487 0.43775 0.46656 0.0
C2701 C 0.90472 0.41839 0.47928 0.0
C2702 C 0.90292 0.47481 0.40257 0.0
C2703 C 0.88359 0.48694 0.39813 0.0
C2704 C 0.90441 0.46212 0.4221 0.0
C2705 C 0.88671 0.46167 0.43754 0.0
C2706 C 0.86852 0.47561 0.43392 0.0
C2707 C 0.86683 0.48772 0.41439 0.0
H2708 H 0.55122 0.89465 0.38454 0.0
H2709 H 0.54164 0.82405 0.3923 0.0
H2710 H 0.57449 0.89472 0.41784 0.0
H2711 H 0.56469 0.82425 0.42515 0.0
H2712 H 0.63696 0.83475 0.45539 0.0
H2713 H 0.60584 0.83054 0.42977 0.0
H2714 H 0.5735 0.88711 0.45939 0.0
H2715 H 0.60444 0.89122 0.485 0.0
C2716 C 0.5538 0.87929 0.39346 0.0
C2717 C 0.54486 0.85937 0.38558 0.0
C2718 C 0.56699 0.8793 0.41254 0.0
C2719 C 0.57144 0.8594 0.42392 0.0
C2720 C 0.56172 0.83973 0.41655 0.0
C2721 C 0.54851 0.83972 0.39769 0.0
C2722 C 0.62278 0.84566 0.45701 0.0
C2723 C 0.6232 0.8635 0.47186 0.0
C2724 C 0.60504 0.84338 0.44227 0.0
C2725 C 0.5876 0.85892 0.4423 0.0
C2726 C 0.587 0.87528 0.45872 0.0
C2727 C 0.6046 0.87748 0.47345 0.0
H2728 H 0.16713 0.5205 0.41697 0.0
H2729 H 0.10306 0.53969 0.39176 0.0
H2730 H 0.16207 0.54376 0.44899 0.0
H2731 H 0.09883 0.56528 0.42299 0.0
H2732 H 0.09503 0.61178 0.47904 0.0
H2733 H 0.09537 0.57575 0.46081 0.0
H2734 H 0.16633 0.5817 0.45172 0.0
H2735 H 0.16585 0.61717 0.47075 0.0
C2736 C 0.15142 0.52902 0.41878 0.0
C2737 C 0.13517 0.5277 0.40212 0.0
C2738 C 0.14881 0.54291 0.43694 0.0
C2739 C 0.13037 0.55695 0.43841 0.0
C2740 C 0.11324 0.55459 0.42257 0.0
C2741 C 0.11555 0.53988 0.40463 0.0
C2742 C 0.1108 0.60482 0.47396 0.0
C2743 C 0.13043 0.6172 0.47616 0.0
C2744 C 0.11094 0.58434 0.46321 0.0
C2745 C 0.13072 0.57594 0.45424 0.0
C2746 C 0.15071 0.58743 0.45848 0.0
C2747 C 0.15057 0.60781 0.46952 0.0
H2748 H 0.48225 0.20357 0.39883 0.0
H2749 H 0.49228 0.13303 0.39486 0.0
H2750 H 0.46466 0.19919 0.43488 0.0
H2751 H 0.47311 0.12811 0.42942 0.0
H2752 H 0.42353 0.1162 0.47838 0.0
H2753 H 0.45915 0.12756 0.46324 0.0
H2754 H 0.42997 0.1903 0.44392 0.0
H2755 H 0.3955 0.17958 0.46151 0.0
C2756 C 0.48135 0.18718 0.40609 0.0
C2757 C 0.48825 0.16861 0.39392 0.0
C2758 C 0.47078 0.18453 0.42658 0.0
C2759 C 0.46602 0.16317 0.4348 0.0
C2760 C 0.47595 0.14492 0.42397 0.0
C2761 C 0.48717 0.14768 0.4039 0.0
C2762 C 0.42522 0.13276 0.47165 0.0
C2763 C 0.40687 0.147 0.47088 0.0
C2764 C 0.44556 0.13923 0.4626 0.0
C2765 C 0.44757 0.15953 0.4512 0.0
C2766 C 0.42957 0.17453 0.45238 0.0
C2767 C 0.40954 0.16839 0.4624 0.0
H2768 H 0.57824 0.84314 0.64665 0.0
H2769 H 0.52739 0.87207 0.60558 0.0
H2770 H 0.60501 0.8475 0.61654 0.0
H2771 H 0.55405 0.8765 0.57549 0.0
H2772 H 0.61216 0.86653 0.52383 0.0
H2773 H 0.58124 0.85961 0.54905 0.0
H2774 H 0.62053 0.8844 0.60347 0.0
H2775 H 0.6515 0.89121 0.57806 0.0
C2776 C 0.57249 0.84918 0.63075 0.0
C2777 C 0.55087 0.85736 0.62836 0.0
C2778 C 0.58791 0.85226 0.61374 0.0
C2779 C 0.58172 0.8632 0.59411 0.0
C2780 C 0.55932 0.86834 0.59059 0.0
C2781 C 0.54397 0.86543 0.60764 0.0
C2782 C 0.6137 0.87154 0.541 0.0
C2783 C 0.63398 0.87962 0.5491 0.0
C2784 C 0.59618 0.86723 0.55547 0.0
C2785 C 0.59884 0.87074 0.57826 0.0
C2786 C 0.61836 0.88093 0.586 0.0
C2787 C 0.63584 0.88541 0.57145 0.0
H2788 H 0.54645 0.17038 0.39192 0.0
H2789 H 0.54407 0.09918 0.39663 0.0
H2790 H 0.56689 0.17201 0.4265 0.0
H2791 H 0.56315 0.10059 0.43218 0.0
H2792 H 0.63178 0.11084 0.46597 0.0
H2793 H 0.5999 0.10566 0.44173 0.0
H2794 H 0.57309 0.16853 0.46353 0.0
H2795 H 0.60594 0.17458 0.48551 0.0
C2796 C 0.54946 0.15516 0.40097 0.0
C2797 C 0.54415 0.13468 0.3916 0.0
C2798 C 0.56116 0.15599 0.42091 0.0
C2799 C 0.56724 0.13631 0.43206 0.0
C2800 C 0.5595 0.116 0.42375 0.0
C2801 C 0.54834 0.11518 0.40354 0.0
C2802 C 0.6188 0.12326 0.46586 0.0
C2803 C 0.62139 0.14311 0.47755 0.0
C2804 C 0.60036 0.1203 0.45206 0.0
C2805 C 0.58396 0.13694 0.45023 0.0
C2806 C 0.58562 0.15568 0.46386 0.0
C2807 C 0.60433 0.15896 0.47689 0.0
H2808 H 0.82342 0.58145 0.37777 0.0
H2809 H 0.85907 0.53345 0.41652 0.0
H2810 H 0.81489 0.6021 0.41124 0.0
H2811 H 0.84874 0.55245 0.45033 0.0
H2812 H 0.87121 0.61401 0.4898 0.0
H2813 H 0.86546 0.58393 0.46385 0.0
H2814 H 0.80155 0.61137 0.44611 0.0
H2815 H 0.80817 0.64229 0.47122 0.0
C2816 C 0.82788 0.57435 0.39366 0.0
C2817 C 0.84137 0.55549 0.39462 0.0
C2818 C 0.82315 0.58628 0.41298 0.0
C2819 C 0.83167 0.57932 0.43361 0.0
C2820 C 0.84244 0.5587 0.43474 0.0
C2821 C 0.84769 0.54722 0.41538 0.0
C2822 C 0.85578 0.61338 0.48064 0.0
C2823 C 0.84034 0.63067 0.48216 0.0
C2824 C 0.85229 0.59595 0.46583 0.0
C2825 C 0.83304 0.59519 0.45254 0.0
C2826 C 0.81678 0.61162 0.45558 0.0
C2827 C 0.82051 0.62929 0.47005 0.0
H2828 H 0.39721 0.82208 0.47734 0.0
H2829 H 0.37532 0.88384 0.44861 0.0
H2830 H 0.42264 0.81648 0.44677 0.0
H2831 H 0.40172 0.87863 0.41802 0.0
H2832 H 0.43662 0.85675 0.3567 0.0
H2833 H 0.40792 0.85531 0.38532 0.0
H2834 H 0.45617 0.83016 0.43189 0.0
H2835 H 0.48446 0.83125 0.40323 0.0
C2836 C 0.39812 0.83471 0.46462 0.0
C2837 C 0.3842 0.85342 0.46537 0.0
C2838 C 0.41275 0.83145 0.44704 0.0
C2839 C 0.41404 0.84689 0.42972 0.0
C2840 C 0.40074 0.86612 0.43085 0.0
C2841 C 0.38595 0.86937 0.44855 0.0
C2842 C 0.4407 0.84964 0.37268 0.0
C2843 C 0.46271 0.844 0.37776 0.0
C2844 C 0.42443 0.84944 0.38927 0.0
C2845 C 0.4299 0.84332 0.4111 0.0
C2846 C 0.45131 0.83506 0.41533 0.0
C2847 C 0.46751 0.83533 0.3988 0.0
H2848 H 0.19417 0.44186 0.38503 0.0
H2849 H 0.15636 0.48563 0.42676 0.0
H2850 H 0.20529 0.42081 0.41777 0.0
H2851 H 0.16939 0.46674 0.45937 0.0
H2852 H 0.15225 0.40225 0.49714 0.0
H2853 H 0.15512 0.43342 0.47212 0.0
H2854 H 0.22108 0.41257 0.45314 0.0
H2855 H 0.21791 0.38098 0.47819 0.0
C2856 C 0.18972 0.44812 0.40126 0.0
C2857 C 0.17495 0.46599 0.40322 0.0
C2858 C 0.19593 0.43592 0.42015 0.0
C2859 C 0.18774 0.44169 0.44135 0.0
C2860 C 0.17558 0.46139 0.44339 0.0
C2861 C 0.1688 0.47296 0.42459 0.0
C2862 C 0.16779 0.40486 0.48854 0.0
C2863 C 0.1848 0.38908 0.48977 0.0
C2864 C 0.16947 0.42279 0.47391 0.0
C2865 C 0.1883 0.42551 0.4602 0.0
C2866 C 0.20617 0.41084 0.46303 0.0
C2867 C 0.20445 0.39287 0.47763 0.0
H2868 H 0.40955 0.13794 0.51515 0.0
H2869 H 0.39573 0.19844 0.55029 0.0
H2870 H 0.44733 0.13838 0.52871 0.0
H2871 H 0.43199 0.19719 0.56694 0.0
H2872 H 0.48486 0.18616 0.61138 0.0
H2873 H 0.46783 0.19633 0.5761 0.0
H2874 H 0.46167 0.12663 0.55996 0.0
H2875 H 0.47995 0.11723 0.59388 0.0
C2876 C 0.41489 0.15187 0.52501 0.0
C2877 C 0.39973 0.16833 0.53124 0.0
C2878 C 0.43645 0.15175 0.53362 0.0
C2879 C 0.44288 0.1672 0.54998 0.0
C2880 C 0.42819 0.18483 0.55457 0.0
C2881 C 0.40703 0.18544 0.54518 0.0
C2882 C 0.48101 0.17325 0.59953 0.0
C2883 C 0.48313 0.15092 0.60547 0.0
C2884 C 0.47069 0.17896 0.57947 0.0
C2885 C 0.4618 0.16237 0.56549 0.0
C2886 C 0.46761 0.14019 0.57001 0.0
C2887 C 0.47827 0.13462 0.58969 0.0
H2888 H 0.8687 0.40433 0.52891 0.0
H2889 H 0.81133 0.37047 0.55511 0.0
H2890 H 0.8625 0.43457 0.5553 0.0
H2891 H 0.80551 0.40028 0.58168 0.0
H2892 H 0.83999 0.43351 0.64629 0.0
H2893 H 0.83038 0.40942 0.6151 0.0
H2894 H 0.83627 0.4648 0.5703 0.0
H2895 H 0.84546 0.48872 0.60136 0.0
C2896 C 0.85428 0.40374 0.5396 0.0
C2897 C 0.84068 0.38487 0.54 0.0
C2898 C 0.85078 0.42098 0.55489 0.0
C2899 C 0.83373 0.41957 0.5709 0.0
C2900 C 0.81897 0.40169 0.56985 0.0
C2901 C 0.82228 0.38468 0.55448 0.0
C2902 C 0.8378 0.44081 0.63004 0.0
C2903 C 0.84342 0.46307 0.62637 0.0
C2904 C 0.83264 0.42695 0.61204 0.0
C2905 C 0.83315 0.43513 0.59013 0.0
C2906 C 0.83611 0.45792 0.58689 0.0
C2907 C 0.84095 0.47174 0.60482 0.0
H2908 H 0.19114 0.5839 0.63634 0.0
H2909 H 0.1543 0.53558 0.59896 0.0
H2910 H 0.20027 0.60338 0.60221 0.0
H2911 H 0.16473 0.55383 0.56454 0.0
H2912 H 0.14547 0.61653 0.52378 0.0
H2913 H 0.15045 0.58536 0.54852 0.0
H2914 H 0.21495 0.61046 0.56733 0.0
H2915 H 0.20923 0.64231 0.54317 0.0
C2916 C 0.18609 0.57676 0.62067 0.0
C2917 C 0.17207 0.55828 0.62023 0.0
C2918 C 0.19128 0.58792 0.60095 0.0
C2919 C 0.1828 0.58055 0.5804 0.0
C2920 C 0.171 0.56046 0.57997 0.0
C2921 C 0.16534 0.54971 0.59969 0.0
C2922 C 0.16116 0.61483 0.53235 0.0
C2923 C 0.17682 0.63197 0.53173 0.0
C2924 C 0.16407 0.5969 0.54677 0.0
C2925 C 0.18289 0.59559 0.56064 0.0
C2926 C 0.1999 0.61124 0.55758 0.0
C2927 C 0.1968 0.62934 0.54344 0.0
H2928 H 0.04689 0.25701 0.37528 0.0
H2929 H 0.05875 0.2074 0.42528 0.0
H2930 H 0.06501 0.28479 0.39823 0.0
H2931 H 0.07759 0.23487 0.44822 0.0
H2932 H 0.09423 0.28994 0.49275 0.0
H2933 H 0.07043 0.26695 0.46998 0.0
H2934 H 0.10072 0.29448 0.41104 0.0
H2935 H 0.12308 0.3189 0.43392 0.0
C2936 C 0.05377 0.25208 0.39112 0.0
C2937 C 0.0515 0.23032 0.39882 0.0
C2938 C 0.06404 0.26792 0.40425 0.0
C2939 C 0.07251 0.26207 0.4251 0.0
C2940 C 0.07065 0.24003 0.43249 0.0
C2941 C 0.06005 0.22428 0.41944 0.0
C2942 C 0.09498 0.29189 0.47495 0.0
C2943 C 0.11011 0.3065 0.46506 0.0
C2944 C 0.08175 0.27832 0.4619 0.0
C2945 C 0.08399 0.27866 0.43876 0.0
C2946 C 0.09845 0.29399 0.42884 0.0
C2947 C 0.11133 0.30789 0.44191 0.0
H2948 H 0.70138 0.12068 0.43444 0.0
H2949 H 0.7537 0.12606 0.48295 0.0
H2950 H 0.72454 0.0958 0.41226 0.0
H2951 H 0.77696 0.10148 0.46053 0.0
H2952 H 0.81875 0.08124 0.39914 0.0
H2953 H 0.79472 0.10454 0.42156 0.0
H2954 H 0.74257 0.05583 0.41687 0.0
H2955 H 0.767 0.03197 0.39441 0.0
C2956 C 0.71792 0.11676 0.44024 0.0
C2957 C 0.72579 0.12549 0.46038 0.0
C2958 C 0.73104 0.10231 0.42766 0.0
C2959 C 0.75248 0.09661 0.43473 0.0
C2960 C 0.7605 0.10562 0.45467 0.0
C2961 C 0.74722 0.11973 0.46747 0.0
C2962 C 0.80214 0.07541 0.40278 0.0
C2963 C 0.79473 0.05477 0.39486 0.0
C2964 C 0.78845 0.08875 0.41578 0.0
C2965 C 0.76682 0.082 0.421 0.0
C2966 C 0.75919 0.06145 0.41299 0.0
C2967 C 0.77314 0.0478 0.40022 0.0
H2968 H 0.99442 0.78013 0.42958 0.0
H2969 H 0.93276 0.81648 0.43031 0.0
H2970 H 0.97637 0.74909 0.44828 0.0
H2971 H 0.91476 0.78553 0.44929 0.0
H2972 H 0.88963 0.72603 0.48693 0.0
H2973 H 0.91536 0.75718 0.48383 0.0
H2974 H 0.9444 0.72735 0.42562 0.0
H2975 H 0.91838 0.69629 0.42853 0.0
C2976 C 0.97732 0.78196 0.43485 0.0
C2977 C 0.96493 0.80067 0.42867 0.0
C2978 C 0.967 0.76413 0.44533 0.0
C2979 C 0.94423 0.76496 0.44996 0.0
C2980 C 0.93242 0.78463 0.44599 0.0
C2981 C 0.94266 0.80231 0.43518 0.0
C2982 C 0.90191 0.72588 0.47382 0.0
C2983 C 0.90227 0.70878 0.45803 0.0
C2984 C 0.91656 0.74366 0.47209 0.0
C2985 C 0.93188 0.74446 0.45465 0.0
C2986 C 0.93293 0.72684 0.43945 0.0
C2987 C 0.91801 0.70923 0.44096 0.0
H2988 H 0.24544 0.96028 0.38099 0.0
H2989 H 0.19547 0.96702 0.43183 0.0
H2990 H 0.26574 0.93436 0.40401 0.0
H2991 H 0.2155 0.94035 0.45491 0.0
H2992 H 0.27065 0.90905 0.4977 0.0
H2993 H 0.24833 0.93465 0.4761 0.0
H2994 H 0.26351 0.89747 0.41674 0.0
H2995 H 0.28676 0.87244 0.43832 0.0
C2996 C 0.23877 0.95611 0.39714 0.0
C2997 C 0.2189 0.96562 0.40467 0.0
C2998 C 0.2503 0.94108 0.41027 0.0
C2999 C 0.24207 0.93489 0.43116 0.0
C3000 C 0.22238 0.94482 0.43894 0.0
C3001 C 0.21093 0.96014 0.42581 0.0
C3002 C 0.26899 0.90616 0.48007 0.0
C3003 C 0.2805 0.88877 0.46966 0.0
C3004 C 0.25611 0.92083 0.46769 0.0
C3005 C 0.25426 0.91828 0.44465 0.0
C3006 C 0.26499 0.90024 0.43441 0.0
C3007 C 0.27813 0.88574 0.44676 0.0
H3008 H 0.06896 0.81524 0.59771 0.0
H3009 H 0.01113 0.77688 0.61529 0.0
H3010 H 0.08152 0.78521 0.57347 0.0
H3011 H 0.02402 0.74651 0.59148 0.0
H3012 H 0.09023 0.69703 0.58177 0.0
H3013 H 0.06509 0.72429 0.59856 0.0
H3014 H 0.06486 0.7617 0.53762 0.0
H3015 H 0.08989 0.73493 0.52098 0.0
C3016 C 0.05876 0.80058 0.59587 0.0
C3017 C 0.03908 0.79823 0.6079 0.0
C3018 C 0.06583 0.78352 0.5821 0.0
C3019 C 0.05355 0.76381 0.58075 0.0
C3020 C 0.03354 0.7617 0.5923 0.0
C3021 C 0.02622 0.77897 0.60573 0.0
C3022 C 0.08411 0.71065 0.57181 0.0
C3023 C 0.09172 0.71379 0.55008 0.0
C3024 C 0.06972 0.72608 0.58129 0.0
C3025 C 0.06321 0.74485 0.56919 0.0
C3026 C 0.06962 0.74718 0.54706 0.0
C3027 C 0.08381 0.73178 0.53758 0.0
H3028 H 0.23289 0.02789 0.61747 0.0
H3029 H 0.19313 0.0845 0.59915 0.0
H3030 H 0.26275 0.04094 0.59317 0.0
H3031 H 0.2229 0.09746 0.57498 0.0
H3032 H 0.29072 0.13114 0.57961 0.0
H3033 H 0.26085 0.10976 0.5957 0.0
H3034 H 0.27398 0.05628 0.55016 0.0
H3035 H 0.30414 0.078 0.53367 0.0
C3036 C 0.23011 0.0425 0.60742 0.0
C3037 C 0.21081 0.05531 0.61018 0.0
C3038 C 0.24722 0.04998 0.59364 0.0
C3039 C 0.24512 0.07033 0.58263 0.0
C3040 C 0.22489 0.08181 0.58355 0.0
C3041 C 0.20787 0.07439 0.59729 0.0
C3042 C 0.28762 0.11473 0.57305 0.0
C3043 C 0.29967 0.10646 0.55488 0.0
C3044 C 0.27032 0.10258 0.58221 0.0
C3045 C 0.2648 0.08173 0.57368 0.0
C3046 C 0.27777 0.07255 0.55671 0.0
C3047 C 0.29503 0.08495 0.54728 0.0
H3048 H 0.01003 0.22752 0.59209 0.0
H3049 H 0.94487 0.19962 0.60305 0.0
H3050 H 0.99368 0.25666 0.56914 0.0
H3051 H 0.92867 0.22904 0.58037 0.0
H3052 H 0.92907 0.28277 0.51525 0.0
H3053 H 0.95419 0.25458 0.52995 0.0
H3054 H 0.94195 0.27838 0.59621 0.0
H3055 H 0.91721 0.30702 0.5816 0.0
C3056 C 0.99236 0.22712 0.58891 0.0
C3057 C 0.97864 0.21131 0.59921 0.0
C3058 C 0.9831 0.24382 0.57593 0.0
C3059 C 0.9601 0.24487 0.57335 0.0
C3060 C 0.94652 0.22829 0.58231 0.0
C3061 C 0.95575 0.21156 0.59519 0.0
C3062 C 0.9326 0.2827 0.53283 0.0
C3063 C 0.9215 0.29718 0.54735 0.0
C3064 C 0.94677 0.26649 0.54116 0.0
C3065 C 0.9497 0.26457 0.56403 0.0
C3066 C 0.93981 0.27986 0.57845 0.0
C3067 C 0.92575 0.29613 0.57014 0.0
H3068 H 0.84076 0.93412 0.59077 0.0
H3069 H 0.79595 0.98959 0.58598 0.0
H3070 H 0.81727 0.91305 0.56523 0.0
H3071 H 0.77292 0.96891 0.56008 0.0
H3072 H 0.72292 0.90944 0.56251 0.0
H3073 H 0.75133 0.93485 0.57549 0.0
H3074 H 0.79642 0.91072 0.52535 0.0
H3075 H 0.76739 0.88526 0.51186 0.0
C3076 C 0.82653 0.94219 0.58335 0.0
C3077 C 0.8204 0.96367 0.58994 0.0
C3078 C 0.81314 0.93016 0.56873 0.0
C3079 C 0.79328 0.93937 0.56081 0.0
C3080 C 0.78821 0.9615 0.56592 0.0
C3081 C 0.80161 0.9735 0.58043 0.0
C3082 C 0.73887 0.90956 0.55419 0.0
C3083 C 0.7431 0.8953 0.53635 0.0
C3084 C 0.75503 0.92429 0.56144 0.0
C3085 C 0.77596 0.92489 0.55125 0.0
C3086 C 0.78032 0.91063 0.53334 0.0
C3087 C 0.76382 0.89613 0.52568 0.0
H3088 H 0.4257 0.08609 0.19852 0.0
H3089 H 0.42806 0.02626 0.2378 0.0
H3090 H 0.44664 0.10554 0.22716 0.0
H3091 H 0.44853 0.04592 0.26655 0.0
H3092 H 0.42791 0.10899 0.31494 0.0
H3093 H 0.42422 0.0808 0.286 0.0
H3094 H 0.48423 0.10448 0.25492 0.0
H3095 H 0.48821 0.13227 0.28411 0.0
C3096 C 0.43153 0.0769 0.2128 0.0
C3097 C 0.42513 0.05481 0.21609 0.0
C3098 C 0.44353 0.08797 0.22911 0.0
C3099 C 0.44887 0.07713 0.24897 0.0
C3100 C 0.44453 0.05447 0.25127 0.0
C3101 C 0.4329 0.04328 0.23479 0.0
C3102 C 0.44061 0.10765 0.30229 0.0
C3103 C 0.4584 0.12252 0.30173 0.0
C3104 C 0.43863 0.09153 0.28591 0.0
C3105 C 0.45413 0.0905 0.26853 0.0
C3106 C 0.47233 0.10488 0.26838 0.0
C3107 C 0.47454 0.12071 0.28502 0.0
H3108 H 0.92611 0.41535 0.18946 0.0
H3109 H 0.98697 0.43553 0.22124 0.0
H3110 H 0.90538 0.44131 0.21252 0.0
H3111 H 0.96618 0.46208 0.24386 0.0
H3112 H 0.91601 0.51417 0.27446 0.0
H3113 H 0.93671 0.49694 0.24374 0.0
H3114 H 0.90269 0.43523 0.25594 0.0
H3115 H 0.88256 0.45212 0.28657 0.0
C3116 C 0.93516 0.42594 0.20077 0.0
C3117 C 0.95818 0.42347 0.20348 0.0
C3118 C 0.92329 0.44076 0.21397 0.0
C3119 C 0.9342 0.45354 0.23002 0.0
C3120 C 0.95743 0.45254 0.23144 0.0
C3121 C 0.96934 0.43743 0.2184 0.0
C3122 C 0.91282 0.49703 0.2703 0.0
C3123 C 0.8977 0.48447 0.28283 0.0
C3124 C 0.9247 0.4872 0.25287 0.0
C3125 C 0.92111 0.46486 0.24742 0.0
C3126 C 0.90554 0.45257 0.25962 0.0
C3127 C 0.89413 0.4622 0.27723 0.0
H3128 H 0.61545 0.98433 0.24786 0.0
H3129 H 0.65816 0.93122 0.22585 0.0
H3130 H 0.59044 0.95744 0.2646 0.0
H3131 H 0.633 0.90419 0.24286 0.0
H3132 H 0.59008 0.86713 0.29733 0.0
H3133 H 0.61743 0.89156 0.27997 0.0
H3134 H 0.56453 0.92883 0.24947 0.0
H3135 H 0.53723 0.90454 0.26676 0.0
C3136 C 0.61976 0.96693 0.24693 0.0
C3137 C 0.63888 0.95997 0.2355 0.0
C3138 C 0.60524 0.95149 0.25632 0.0
C3139 C 0.60953 0.92865 0.25476 0.0
C3140 C 0.6292 0.92167 0.2443 0.0
C3141 C 0.64364 0.93716 0.23462 0.0
C3142 C 0.58429 0.88028 0.28658 0.0
C3143 C 0.56142 0.8839 0.28352 0.0
C3144 C 0.59999 0.8943 0.27666 0.0
C3145 C 0.59315 0.91236 0.26364 0.0
C3146 C 0.57033 0.91533 0.25977 0.0
C3147 C 0.55468 0.90125 0.26952 0.0
H3148 H 0.09678 0.59973 0.19246 0.0
H3149 H 0.03568 0.5885 0.22816 0.0
H3150 H 0.1159 0.57364 0.21704 0.0
H3151 H 0.05493 0.56282 0.25288 0.0
H3152 H 0.11186 0.56404 0.30908 0.0
H3153 H 0.09059 0.58065 0.27896 0.0
H3154 H 0.11151 0.5284 0.23493 0.0
H3155 H 0.1324 0.51117 0.26536 0.0
C3156 C 0.08731 0.59111 0.20506 0.0
C3157 C 0.06478 0.59612 0.20844 0.0
C3158 C 0.09823 0.57622 0.21905 0.0
C3159 C 0.08684 0.56649 0.23684 0.0
C3160 C 0.06398 0.57019 0.23921 0.0
C3161 C 0.05298 0.58476 0.225 0.0
C3162 C 0.112 0.55607 0.293 0.0
C3163 C 0.12391 0.53638 0.28955 0.0
C3164 C 0.09968 0.56548 0.27586 0.0
C3165 C 0.09933 0.55562 0.25482 0.0
C3166 C 0.1115 0.53616 0.25111 0.0
C3167 C 0.12347 0.52642 0.26846 0.0
H3168 H 0.43869 0.99823 0.7956 0.0
H3169 H 0.41952 0.93794 0.82901 0.0
H3170 H 0.46864 0.97849 0.77693 0.0
H3171 H 0.44926 0.91802 0.80988 0.0
H3172 H 0.50777 0.88876 0.77162 0.0
H3173 H 0.49247 0.91447 0.79953 0.0
H3174 H 0.45716 0.94913 0.74778 0.0
H3175 H 0.47158 0.92332 0.72053 0.0
C3176 C 0.44144 0.98096 0.7996 0.0
C3177 C 0.42693 0.96956 0.81376 0.0
C3178 C 0.45854 0.96969 0.7889 0.0
C3179 C 0.46116 0.9468 0.79201 0.0
C3180 C 0.44775 0.93575 0.80749 0.0
C3181 C 0.43062 0.94705 0.8182 0.0
C3182 C 0.49709 0.90222 0.76638 0.0
C3183 C 0.49057 0.90413 0.74417 0.0
C3184 C 0.48842 0.91683 0.78221 0.0
C3185 C 0.47383 0.93379 0.77569 0.0
C3186 C 0.46864 0.93643 0.7532 0.0
C3187 C 0.47672 0.92157 0.73764 0.0
H3188 H 0.09148 0.42784 0.8273 0.0
H3189 H 0.03264 0.434 0.78705 0.0
H3190 H 0.10961 0.45659 0.80512 0.0
H3191 H 0.0505 0.463 0.76534 0.0
H3192 H 0.10709 0.46997 0.7121 0.0
H3193 H 0.08306 0.45332 0.73977 0.0
H3194 H 0.10896 0.49783 0.78942 0.0
H3195 H 0.13299 0.51507 0.76118 0.0
C3196 C 0.08219 0.43589 0.81422 0.0
C3197 C 0.06066 0.42878 0.8089 0.0
C3198 C 0.09248 0.45244 0.80168 0.0
C3199 C 0.08144 0.46189 0.78351 0.0
C3200 C 0.05934 0.45592 0.77927 0.0
C3201 C 0.04909 0.43942 0.79177 0.0
C3202 C 0.10752 0.47638 0.72887 0.0
C3203 C 0.12208 0.49351 0.73467 0.0
C3204 C 0.09358 0.46702 0.74464 0.0
C3205 C 0.09412 0.47437 0.76669 0.0
C3206 C 0.10827 0.49195 0.77249 0.0
C3207 C 0.12196 0.50174 0.75643 0.0
H3208 H 0.59526 0.01369 0.79253 0.0
H3209 H 0.60114 0.08331 0.80811 0.0
H3210 H 0.56897 0.02246 0.76302 0.0
H3211 H 0.57465 0.0919 0.7786 0.0
H3212 H 0.51167 0.08716 0.72958 0.0
H3213 H 0.52607 0.06566 0.76094 0.0
H3214 H 0.59075 0.0645 0.73035 0.0
H3215 H 0.57666 0.08645 0.69941 0.0
C3216 C 0.59016 0.03075 0.79035 0.0
C3217 C 0.60012 0.04789 0.80265 0.0
C3218 C 0.57519 0.03567 0.77344 0.0
C3219 C 0.56987 0.05773 0.76888 0.0
C3220 C 0.57843 0.07472 0.78222 0.0
C3221 C 0.59358 0.06985 0.79896 0.0
C3222 C 0.52867 0.08133 0.72907 0.0
C3223 C 0.54321 0.08854 0.71232 0.0
C3224 C 0.53685 0.06917 0.74699 0.0
C3225 C 0.55941 0.06375 0.74785 0.0
C3226 C 0.57323 0.06853 0.72979 0.0
C3227 C 0.5652 0.08099 0.71214 0.0
H3228 H 0.98218 0.5903 0.7953 0.0
H3229 H 0.92292 0.61335 0.8283 0.0
H3230 H 0.95967 0.56604 0.77199 0.0
H3231 H 0.90038 0.58979 0.80431 0.0
H3232 H 0.87291 0.57237 0.73283 0.0
H3233 H 0.89385 0.59192 0.76157 0.0
H3234 H 0.93192 0.53272 0.77433 0.0
H3235 H 0.91077 0.51304 0.74597 0.0
C3236 C 0.96445 0.58966 0.79809 0.0
C3237 C 0.95441 0.60341 0.81398 0.0
C3238 C 0.95154 0.57594 0.78457 0.0
C3239 C 0.92828 0.57618 0.78628 0.0
C3240 C 0.91826 0.58944 0.80256 0.0
C3241 C 0.93119 0.60282 0.81634 0.0
C3242 C 0.88554 0.56348 0.74198 0.0
C3243 C 0.89015 0.54118 0.73719 0.0
C3244 C 0.89746 0.57461 0.75845 0.0
C3245 C 0.9145 0.5638 0.77014 0.0
C3246 C 0.91892 0.54145 0.76553 0.0
C3247 C 0.90671 0.53019 0.74939 0.0
H3248 H 0.22917 0.42965 0.02066 0.0
H3249 H 0.2 0.41409 0.08429 0.0
H3250 H 0.25691 0.4527 0.03893 0.0
H3251 H 0.22835 0.43649 0.10247 0.0
H3252 H 0.30212 0.44058 0.12182 0.0
H3253 H 0.27311 0.42442 0.09881 0.0
H3254 H 0.25941 0.48854 0.07036 0.0
H3255 H 0.28779 0.50506 0.09409 0.0
C3256 C 0.2281 0.43186 0.03842 0.0
C3257 C 0.21233 0.4202 0.05108 0.0
C3258 C 0.24411 0.44486 0.04882 0.0
C3259 C 0.24476 0.44591 0.07196 0.0
C3260 C 0.22813 0.43561 0.08454 0.0
C3261 C 0.21194 0.42292 0.07416 0.0
C3262 C 0.29324 0.45117 0.11035 0.0
C3263 C 0.29729 0.47404 0.10964 0.0
C3264 C 0.27664 0.44196 0.09733 0.0
C3265 C 0.264 0.45544 0.08326 0.0
C3266 C 0.26904 0.47798 0.08122 0.0
C3267 C 0.28546 0.4873 0.09455 0.0
H3268 H 0.24083 0.62081 0.99722 0.0
H3269 H 0.20634 0.60296 0.93713 0.0
H3270 H 0.26821 0.59173 0.99039 0.0
H3271 H 0.23338 0.57328 0.9307 0.0
H3272 H 0.28203 0.51762 0.92982 0.0
H3273 H 0.25494 0.53604 0.95378 0.0
H3274 H 0.29182 0.59705 0.94824 0.0
H3275 H 0.31846 0.57895 0.92363 0.0
C3276 C 0.23877 0.61007 0.98297 0.0
C3277 C 0.22185 0.61386 0.96746 0.0
C3278 C 0.25424 0.59347 0.97926 0.0
C3279 C 0.25252 0.58037 0.96027 0.0
C3280 C 0.2346 0.58312 0.94565 0.0
C3281 C 0.21943 0.60012 0.94908 0.0
C3282 C 0.28481 0.53472 0.93449 0.0
C3283 C 0.30208 0.54708 0.92488 0.0
C3284 C 0.26941 0.54512 0.94817 0.0
C3285 C 0.2716 0.56771 0.95269 0.0
C3286 C 0.29017 0.57945 0.94507 0.0
C3287 C 0.30524 0.56922 0.93094 0.0
H3288 H 0.43441 0.22211 0.00382 0.0
H3289 H 0.42108 0.20189 0.93642 0.0
H3290 H 0.45947 0.2507 0.99033 0.0
H3291 H 0.44579 0.23111 0.92306 0.0
H3292 H 0.4448 0.31134 0.92456 0.0
H3293 H 0.43149 0.2795 0.94568 0.0
H3294 H 0.49766 0.25243 0.94715 0.0
H3295 H 0.51117 0.28418 0.92577 0.0
C3296 C 0.43774 0.22289 0.98623 0.0
C3297 C 0.42594 0.20956 0.97117 0.0
C3298 C 0.45191 0.23945 0.97857 0.0
C3299 C 0.45436 0.24287 0.95581 0.0
C3300 C 0.44415 0.22845 0.94075 0.0
C3301 C 0.43006 0.21181 0.94838 0.0
C3302 C 0.45667 0.29904 0.93008 0.0
C3303 C 0.47897 0.30017 0.9235 0.0
C3304 C 0.44905 0.28086 0.94202 0.0
C3305 C 0.46364 0.26369 0.94762 0.0
C3306 C 0.48627 0.26564 0.94288 0.0
C3307 C 0.49395 0.28388 0.93088 0.0
H3308 H 0.76358 0.39666 0.9888 0.0
H3309 H 0.82314 0.42382 0.95979 0.0
H3310 H 0.74122 0.42265 0.96671 0.0
H3311 H 0.80108 0.44967 0.93805 0.0
H3312 H 0.75333 0.5023 0.91038 0.0
H3313 H 0.77417 0.48194 0.93885 0.0
H3314 H 0.73555 0.42333 0.92516 0.0
H3315 H 0.7151 0.44324 0.89696 0.0
C3316 C 0.77184 0.40842 0.97803 0.0
C3317 C 0.79496 0.408 0.97559 0.0
C3318 C 0.75913 0.42322 0.96537 0.0
C3319 C 0.76945 0.43805 0.95052 0.0
C3320 C 0.79266 0.43854 0.94937 0.0
C3321 C 0.80525 0.42357 0.96164 0.0
C3322 C 0.74949 0.48503 0.91337 0.0
C3323 C 0.73275 0.47435 0.90121 0.0
C3324 C 0.76125 0.47345 0.92975 0.0
C3325 C 0.75623 0.45113 0.93443 0.0
C3326 C 0.73948 0.44061 0.92229 0.0
C3327 C 0.72797 0.45201 0.90587 0.0
H3328 H 0.61446 0.75448 0.01494 0.0
H3329 H 0.57412 0.80075 0.97853 0.0
H3330 H 0.592 0.72376 0.00079 0.0
H3331 H 0.55188 0.77055 0.96425 0.0
H3332 H 0.51756 0.71673 0.93333 0.0
H3333 H 0.52814 0.73877 0.96535 0.0
H3334 H 0.59401 0.71059 0.96264 0.0
H3335 H 0.58289 0.68757 0.93137 0.0
C3336 C 0.60001 0.75811 0.00492 0.0
C3337 C 0.5958 0.77983 0.99789 0.0
C3338 C 0.58735 0.74056 0.99656 0.0
C3339 C 0.57042 0.74462 0.98103 0.0
C3340 C 0.56463 0.7667 0.97627 0.0
C3341 C 0.57733 0.78412 0.98451 0.0
C3342 C 0.53397 0.71447 0.94023 0.0
C3343 C 0.54933 0.7002 0.93006 0.0
C3344 C 0.54011 0.72729 0.95846 0.0
C3345 C 0.56197 0.72664 0.96648 0.0
C3346 C 0.57693 0.71131 0.95715 0.0
C3347 C 0.57068 0.69827 0.93905 0.0
H3348 H 0.81687 0.60282 0.08518 0.0
H3349 H 0.79763 0.58653 0.01818 0.0
H3350 H 0.78731 0.57913 0.09936 0.0
H3351 H 0.76814 0.56255 0.0326 0.0
H3352 H 0.70999 0.57859 0.10486 0.0
H3353 H 0.74143 0.59271 0.08357 0.0
H3354 H 0.7632 0.52592 0.07054 0.0
H3355 H 0.73173 0.51159 0.09213 0.0
C3356 C 0.80689 0.59352 0.07351 0.0
C3357 C 0.80942 0.59665 0.0506 0.0
C3358 C 0.79001 0.58003 0.08163 0.0
C3359 C 0.77548 0.56938 0.06697 0.0
C3360 C 0.77929 0.57064 0.0441 0.0
C3361 C 0.79622 0.58425 0.03592 0.0
C3362 C 0.72104 0.5669 0.09685 0.0
C3363 C 0.7184 0.54404 0.10003 0.0
C3364 C 0.73903 0.57496 0.08481 0.0
C3365 C 0.75463 0.5603 0.07573 0.0
C3366 C 0.75122 0.53741 0.0774 0.0
C3367 C 0.73319 0.5293 0.08958 0.0
H3368 H 0.39404 0.79687 0.06715 0.0
H3369 H 0.4053 0.76747 0.00281 0.0
H3370 H 0.41454 0.76681 0.08448 0.0
H3371 H 0.42633 0.73728 0.02052 0.0
H3372 H 0.42674 0.69413 0.10552 0.0
H3373 H 0.40571 0.71679 0.07931 0.0
H3374 H 0.46658 0.74508 0.05468 0.0
H3375 H 0.48772 0.72294 0.08132 0.0
C3376 C 0.40076 0.78394 0.05667 0.0
C3377 C 0.39796 0.78451 0.03355 0.0
C3378 C 0.41248 0.76676 0.06664 0.0
C3379 C 0.42182 0.74986 0.05377 0.0
C3380 C 0.41917 0.75023 0.03068 0.0
C3381 C 0.40716 0.76742 0.02063 0.0
C3382 C 0.4357 0.70467 0.09406 0.0
C3383 C 0.45888 0.70669 0.09539 0.0
C3384 C 0.42367 0.71751 0.07904 0.0
C3385 C 0.43464 0.73242 0.06499 0.0
C3386 C 0.45788 0.73334 0.06513 0.0
C3387 C 0.46994 0.72064 0.08033 0.0
H3388 H 0.63631 0.22183 0.08462 0.0
H3389 H 0.60807 0.24165 0.02204 0.0
H3390 H 0.6175 0.25271 0.10299 0.0
H3391 H 0.59022 0.27324 0.04 0.0
H3392 H 0.53458 0.29678 0.08774 0.0
H3393 H 0.55908 0.27451 0.06531 0.0
H3394 H 0.61447 0.29325 0.10669 0.0
H3395 H 0.58971 0.31656 0.12883 0.0
C3396 C 0.62581 0.23272 0.07495 0.0
C3397 C 0.62249 0.22888 0.05229 0.0
C3398 C 0.61553 0.25065 0.08528 0.0
C3399 C 0.60224 0.26524 0.07291 0.0
C3400 C 0.5999 0.2619 0.04999 0.0
C3401 C 0.60976 0.24371 0.0398 0.0
C3402 C 0.55211 0.29716 0.09139 0.0
C3403 C 0.56025 0.30888 0.10966 0.0
C3404 C 0.5662 0.28417 0.07865 0.0
C3405 C 0.58869 0.28215 0.08424 0.0
C3406 C 0.59714 0.29445 0.10209 0.0
C3407 C 0.58301 0.30779 0.11468 0.0
H3408 H 0.96722 0.7889 0.60012 0.0
H3409 H 0.91729 0.79704 0.65094 0.0
H3410 H 0.94083 0.76721 0.57812 0.0
H3411 H 0.89094 0.77672 0.62878 0.0
H3412 H 0.85816 0.71795 0.59416 0.0
H3413 H 0.88218 0.74133 0.61618 0.0
H3414 H 0.90713 0.77224 0.55652 0.0
H3415 H 0.88356 0.74814 0.53436 0.0
C3416 C 0.95078 0.78581 0.6067 0.0
C3417 C 0.94433 0.79468 0.62723 0.0
C3418 C 0.93553 0.77378 0.59396 0.0
C3419 C 0.91363 0.77051 0.60155 0.0
C3420 C 0.90763 0.77872 0.62245 0.0
C3421 C 0.92281 0.79045 0.63517 0.0
C3422 C 0.8681 0.73034 0.58577 0.0
C3423 C 0.86908 0.73097 0.56253 0.0
C3424 C 0.88209 0.74366 0.59839 0.0
C3425 C 0.89704 0.75829 0.58809 0.0
C3426 C 0.89629 0.76066 0.56493 0.0
C3427 C 0.88232 0.74722 0.55225 0.0
H3428 H 0.26767 0.98911 0.63562 0.0
H3429 H 0.25425 0.92782 0.66972 0.0
H3430 H 0.30042 0.97289 0.61901 0.0
H3431 H 0.28755 0.91149 0.65356 0.0
H3432 H 0.35289 0.9397 0.5819 0.0
H3433 H 0.33503 0.95513 0.61476 0.0
H3434 H 0.29032 0.89917 0.61648 0.0
H3435 H 0.3087 0.88349 0.58434 0.0
C3436 C 0.27261 0.97266 0.64085 0.0
C3437 C 0.25831 0.95971 0.65385 0.0
C3438 C 0.29138 0.96315 0.63106 0.0
C3439 C 0.29628 0.94054 0.63427 0.0
C3440 C 0.28389 0.92872 0.65013 0.0
C3441 C 0.26502 0.9382 0.65977 0.0
C3442 C 0.33961 0.93044 0.58968 0.0
C3443 C 0.33195 0.91056 0.58027 0.0
C3444 C 0.3293 0.93933 0.60849 0.0
C3445 C 0.31093 0.92868 0.61817 0.0
C3446 C 0.30452 0.90786 0.60975 0.0
C3447 C 0.31498 0.89887 0.59111 0.0
H3448 H 0.11971 0.20269 0.65831 0.0
H3449 H 0.06574 0.24879 0.64935 0.0
H3450 H 0.14578 0.23011 0.64401 0.0
H3451 H 0.09214 0.27661 0.63587 0.0
H3452 H 0.15125 0.32265 0.61889 0.0
H3453 H 0.13551 0.29722 0.64612 0.0
H3454 H 0.1377 0.2445 0.59807 0.0
H3455 H 0.15255 0.27012 0.57029 0.0
C3456 C 0.1136 0.21915 0.65456 0.0
C3457 C 0.09061 0.22349 0.65466 0.0
C3458 C 0.12854 0.23471 0.64612 0.0
C3459 C 0.12087 0.25521 0.63847 0.0
C3460 C 0.0984 0.26081 0.64166 0.0
C3461 C 0.08331 0.24501 0.6497 0.0
C3462 C 0.14916 0.30543 0.61428 0.0
C3463 C 0.15282 0.29854 0.59221 0.0
C3464 C 0.13999 0.29098 0.6299 0.0
C3465 C 0.1351 0.26911 0.62404 0.0
C3466 C 0.14134 0.26138 0.60292 0.0
C3467 C 0.15008 0.276 0.58707 0.0
H3468 H 0.76716 0.03001 0.64514 0.0
H3469 H 0.78813 0.09703 0.6587 0.0
H3470 H 0.73284 0.04411 0.62911 0.0
H3471 H 0.75353 0.11098 0.64303 0.0
H3472 H 0.68031 0.11867 0.60845 0.0
H3473 H 0.70253 0.10287 0.63882 0.0
H3474 H 0.74709 0.07391 0.59096 0.0
H3475 H 0.72566 0.09015 0.56083 0.0
C3476 C 0.76386 0.04762 0.64608 0.0
C3477 C 0.78052 0.06248 0.65266 0.0
C3478 C 0.74422 0.05567 0.63678 0.0
C3479 C 0.74086 0.07857 0.63462 0.0
C3480 C 0.75581 0.09325 0.64461 0.0
C3481 C 0.77559 0.08523 0.6536 0.0
C3482 C 0.69479 0.10881 0.60448 0.0
C3483 C 0.70128 0.10561 0.58228 0.0
C3484 C 0.70736 0.09977 0.62181 0.0
C3485 C 0.72614 0.08693 0.61705 0.0
C3486 C 0.73238 0.08346 0.59491 0.0
C3487 C 0.72021 0.09287 0.57771 0.0
H3488 H 0.94873 0.25356 0.3686 0.0
H3489 H 0.90054 0.20083 0.37287 0.0
H3490 H 0.92051 0.27997 0.38082 0.0
H3491 H 0.87262 0.22712 0.38564 0.0
H3492 H 0.86353 0.27232 0.45255 0.0
H3493 H 0.87676 0.24575 0.42509 0.0
H3494 H 0.88039 0.29764 0.37609 0.0
H3495 H 0.86643 0.32411 0.40321 0.0
C3496 C 0.93189 0.24777 0.371 0.0
C3497 C 0.927 0.22505 0.37015 0.0
C3498 C 0.91572 0.26288 0.37821 0.0
C3499 C 0.89451 0.25544 0.38467 0.0
C3500 C 0.88889 0.23322 0.38107 0.0
C3501 C 0.90489 0.21823 0.37358 0.0
C3502 C 0.8659 0.27787 0.43564 0.0
C3503 C 0.86438 0.30047 0.43027 0.0
C3504 C 0.87369 0.26265 0.4199 0.0
C3505 C 0.88012 0.2698 0.39861 0.0
C3506 C 0.87588 0.29177 0.39246 0.0
C3507 C 0.8677 0.30686 0.40802 0.0
H3508 H 0.79457 0.93141 0.35781 0.0
H3509 H 0.77086 0.97941 0.40521 0.0
H3510 H 0.77377 0.9023 0.37672 0.0
H3511 H 0.74997 0.95036 0.42409 0.0
H3512 H 0.75323 0.89593 0.47259 0.0
H3513 H 0.77189 0.91958 0.44574 0.0
H3514 H 0.73625 0.8878 0.39252 0.0
H3515 H 0.7176 0.86396 0.41943 0.0
C3516 C 0.78379 0.93593 0.37147 0.0
C3517 C 0.7846 0.95738 0.38049 0.0
C3518 C 0.77222 0.91924 0.38246 0.0
C3519 C 0.76133 0.92408 0.40236 0.0
C3520 C 0.75903 0.94625 0.40913 0.0
C3521 C 0.77048 0.96296 0.39803 0.0
C3522 C 0.75028 0.89312 0.45511 0.0
C3523 C 0.73358 0.87864 0.44804 0.0
C3524 C 0.76051 0.90702 0.43981 0.0
C3525 C 0.75444 0.90616 0.41735 0.0
C3526 C 0.74064 0.8891 0.40987 0.0
C3527 C 0.73029 0.87527 0.42522 0.0
H3528 H 0.10591 0.8115 0.36102 0.0
H3529 H 0.0564 0.76584 0.385 0.0
H3530 H 0.13526 0.78743 0.37533 0.0
H3531 H 0.08578 0.74186 0.39937 0.0
H3532 H 0.13867 0.75024 0.4591 0.0
H3533 H 0.11931 0.77291 0.4318 0.0
H3534 H 0.14241 0.7303 0.37939 0.0
H3535 H 0.16188 0.70736 0.40667 0.0
C3536 C 0.10136 0.7956 0.36801 0.0
C3537 C 0.07889 0.79058 0.37205 0.0
C3538 C 0.11816 0.78204 0.37648 0.0
C3539 C 0.11263 0.76315 0.38874 0.0
C3540 C 0.09033 0.75645 0.38994 0.0
C3541 C 0.07352 0.76998 0.38138 0.0
C3542 C 0.14074 0.74633 0.4417 0.0
C3543 C 0.15157 0.72678 0.4351 0.0
C3544 C 0.12934 0.75914 0.42611 0.0
C3545 C 0.12904 0.7529 0.4037 0.0
C3546 C 0.14228 0.7352 0.39665 0.0
C3547 C 0.15363 0.72231 0.41225 0.0
H3548 H 0.31426 0.15483 0.40719 0.0
H3549 H 0.26867 0.14659 0.46182 0.0
H3550 H 0.28673 0.13952 0.38183 0.0
H3551 H 0.24079 0.13217 0.43611 0.0
H3552 H 0.24566 0.06579 0.37693 0.0
H3553 H 0.27209 0.09367 0.3903 0.0
H3554 H 0.21957 0.14202 0.39368 0.0
H3555 H 0.1934 0.11457 0.37962 0.0
C3556 C 0.29793 0.15089 0.41361 0.0
C3557 C 0.2938 0.15158 0.43662 0.0
C3558 C 0.28231 0.1419 0.39908 0.0
C3559 C 0.26192 0.13428 0.40714 0.0
C3560 C 0.25652 0.1379 0.42956 0.0
C3561 C 0.27237 0.14647 0.44424 0.0
C3562 C 0.24007 0.08269 0.3792 0.0
C3563 C 0.21747 0.08797 0.37729 0.0
C3564 C 0.2551 0.09858 0.38713 0.0
C3565 C 0.24767 0.11983 0.39333 0.0
C3566 C 0.22562 0.12573 0.38917 0.0
C3567 C 0.21075 0.11004 0.38093 0.0
H3568 H 0.67013 0.91513 0.80579 0.0
H3569 H 0.64291 0.9731 0.774 0.0
H3570 H 0.64705 0.89149 0.78237 0.0
H3571 H 0.61976 0.94954 0.75091 0.0
H3572 H 0.55651 0.90753 0.75079 0.0
H3573 H 0.58682 0.92619 0.77018 0.0
H3574 H 0.63394 0.88109 0.74078 0.0
H3575 H 0.60365 0.86266 0.721 0.0
C3576 C 0.66031 0.92276 0.79284 0.0
C3577 C 0.6581 0.94597 0.79196 0.0
C3578 C 0.64678 0.90924 0.77976 0.0
C3579 C 0.63104 0.91883 0.7656 0.0
C3580 C 0.63139 0.94184 0.76221 0.0
C3581 C 0.64512 0.95532 0.77505 0.0
C3582 C 0.5732 0.90104 0.74918 0.0
C3583 C 0.57777 0.88365 0.73447 0.0
C3584 C 0.59058 0.91199 0.75987 0.0
C3585 C 0.61271 0.90543 0.75635 0.0
C3586 C 0.61705 0.88661 0.74347 0.0
C3587 C 0.59971 0.87593 0.73243 0.0
H3588 H 0.10651 0.65514 0.82296 0.0
H3589 H 0.05342 0.64819 0.77541 0.0
H3590 H 0.13192 0.63664 0.79741 0.0
H3591 H 0.07918 0.63019 0.74975 0.0
H3592 H 0.1498 0.61353 0.71129 0.0
H3593 H 0.13363 0.64044 0.73683 0.0
H3594 H 0.11026 0.5872 0.7783 0.0
H3595 H 0.12606 0.55995 0.75249 0.0
C3596 C 0.10052 0.65071 0.80664 0.0
C3597 C 0.07778 0.65264 0.80142 0.0
C3598 C 0.11504 0.63991 0.79219 0.0
C3599 C 0.10719 0.63158 0.77206 0.0
C3600 C 0.08538 0.63632 0.76543 0.0
C3601 C 0.07074 0.64693 0.77999 0.0
C3602 C 0.14181 0.60751 0.72621 0.0
C3603 C 0.13898 0.58459 0.72979 0.0
C3604 C 0.13253 0.62295 0.7407 0.0
C3605 C 0.12059 0.61576 0.75919 0.0
C3606 C 0.11946 0.59298 0.76399 0.0
C3607 C 0.12865 0.57744 0.74938 0.0
H3608 H 0.38018 0.06557 0.76917 0.0
H3609 H 0.37138 0.11833 0.81668 0.0
H3610 H 0.39556 0.09232 0.74268 0.0
H3611 H 0.38724 0.14474 0.79038 0.0
H3612 H 0.46295 0.14223 0.74345 0.0
H3613 H 0.43694 0.12663 0.77035 0.0
H3614 H 0.38198 0.1459 0.72908 0.0
H3615 H 0.40785 0.16226 0.7024 0.0
C3616 C 0.38042 0.08297 0.77357 0.0
C3617 C 0.37478 0.08976 0.79511 0.0
C3618 C 0.3895 0.09822 0.75853 0.0
C3619 C 0.39286 0.12041 0.76479 0.0
C3620 C 0.38487 0.1277 0.78529 0.0
C3621 C 0.37563 0.11256 0.80021 0.0
C3622 C 0.44534 0.14447 0.74072 0.0
C3623 C 0.43753 0.15355 0.72074 0.0
C3624 C 0.43045 0.13514 0.75593 0.0
C3625 C 0.4076 0.13475 0.75143 0.0
C3626 C 0.39957 0.1459 0.73276 0.0
C3627 C 0.4144 0.15548 0.71768 0.0
H3628 H 0.99327 0.36283 0.76079 0.0
H3629 H 0.92677 0.34921 0.78378 0.0
H3630 H 0.97823 0.37843 0.72686 0.0
H3631 H 0.91188 0.36483 0.74964 0.0
H3632 H 0.9075 0.40233 0.67452 0.0
H3633 H 0.9227 0.37095 0.69574 0.0
H3634 H 0.94568 0.41624 0.74592 0.0
H3635 H 0.93043 0.44738 0.72524 0.0
C3636 C 0.97556 0.36166 0.75804 0.0
C3637 C 0.96116 0.35555 0.77535 0.0
C3638 C 0.96696 0.37077 0.73857 0.0
C3639 C 0.94397 0.37316 0.73599 0.0
C3640 C 0.92969 0.36313 0.75134 0.0
C3641 C 0.93828 0.35412 0.77087 0.0
C3642 C 0.91595 0.40555 0.69001 0.0
C3643 C 0.9178 0.42732 0.69823 0.0
C3644 C 0.92458 0.38763 0.70205 0.0
C3645 C 0.93547 0.39139 0.7222 0.0
C3646 C 0.93752 0.41309 0.73024 0.0
C3647 C 0.92872 0.43086 0.71845 0.0
H3648 H 0.59269 0.09464 0.1721 0.0
H3649 H 0.60991 0.0638 0.23442 0.0
H3650 H 0.57989 0.12773 0.19224 0.0
H3651 H 0.59767 0.09671 0.25411 0.0
H3652 H 0.52967 0.15181 0.25577 0.0
H3653 H 0.54635 0.13192 0.22478 0.0
H3654 H 0.61104 0.14025 0.25395 0.0
H3655 H 0.5946 0.16045 0.28476 0.0
C3656 C 0.59376 0.09491 0.19001 0.0
C3657 C 0.60221 0.07653 0.20167 0.0
C3658 C 0.58656 0.11385 0.20144 0.0
C3659 C 0.58822 0.11485 0.22462 0.0
C3660 C 0.59667 0.09653 0.23618 0.0
C3661 C 0.60346 0.07758 0.22488 0.0
C3662 C 0.54758 0.15063 0.25498 0.0
C3663 C 0.56072 0.15693 0.2732 0.0
C3664 C 0.55711 0.13909 0.23722 0.0
C3665 C 0.57983 0.13399 0.23746 0.0
C3666 C 0.5934 0.14369 0.25365 0.0
C3667 C 0.58394 0.15539 0.27123 0.0
H3668 H 0.97755 0.64001 0.24982 0.0
H3669 H 0.92238 0.66594 0.21235 0.0
H3670 H 0.95217 0.6167 0.27083 0.0
H3671 H 0.89698 0.64248 0.23332 0.0
H3672 H 0.86025 0.60121 0.28939 0.0
H3673 H 0.88056 0.62991 0.26931 0.0
H3674 H 0.93271 0.58293 0.25517 0.0
H3675 H 0.91247 0.55436 0.27543 0.0
C3676 C 0.9599 0.64168 0.24686 0.0
C3677 C 0.95202 0.65431 0.22898 0.0
C3678 C 0.94541 0.62785 0.25849 0.0
C3679 C 0.9228 0.62696 0.25283 0.0
C3680 C 0.91441 0.64244 0.23766 0.0
C3681 C 0.92893 0.65618 0.22592 0.0
C3682 C 0.87558 0.59679 0.28109 0.0
C3683 C 0.88483 0.57558 0.28398 0.0
C3684 C 0.88735 0.6133 0.2699 0.0
C3685 C 0.9086 0.60886 0.26151 0.0
C3686 C 0.91666 0.58698 0.26218 0.0
C3687 C 0.9048 0.57042 0.27322 0.0
H3688 H 0.3503 0.92447 0.24508 0.0
H3689 H 0.3682 0.99178 0.26134 0.0
H3690 H 0.37044 0.91135 0.27756 0.0
H3691 H 0.38873 0.97848 0.29336 0.0
H3692 H 0.4567 0.93025 0.29137 0.0
H3693 H 0.42389 0.94646 0.274 0.0
H3694 H 0.38292 0.92199 0.32726 0.0
H3695 H 0.41596 0.90621 0.34521 0.0
C3696 C 0.35723 0.9366 0.25635 0.0
C3697 C 0.35839 0.95906 0.25017 0.0
C3698 C 0.36892 0.92903 0.27486 0.0
C3699 C 0.38152 0.94392 0.28745 0.0
C3700 C 0.37921 0.96673 0.2837 0.0
C3701 C 0.36723 0.97433 0.26539 0.0
C3702 C 0.44078 0.92854 0.29955 0.0
C3703 C 0.43891 0.91707 0.31968 0.0
C3704 C 0.42207 0.93791 0.2897 0.0
C3705 C 0.40108 0.93565 0.29955 0.0
C3706 C 0.39904 0.92414 0.3196 0.0
C3707 C 0.4179 0.91515 0.32976 0.0
H3708 H 0.04506 0.36264 0.2487 0.0
H3709 H 0.10433 0.36144 0.20838 0.0
H3710 H 0.06722 0.37299 0.28074 0.0
H3711 H 0.12636 0.37229 0.24038 0.0
H3712 H 0.13455 0.43817 0.28386 0.0
H3713 H 0.12177 0.41188 0.256 0.0
H3714 H 0.10018 0.36727 0.30761 0.0
H3715 H 0.11318 0.39342 0.33559 0.0
C3716 C 0.06291 0.36342 0.24688 0.0
C3717 C 0.07285 0.36174 0.22588 0.0
C3718 C 0.07563 0.36952 0.26525 0.0
C3719 C 0.09839 0.37405 0.26282 0.0
C3720 C 0.10877 0.36931 0.24256 0.0
C3721 C 0.09612 0.36297 0.22429 0.0
C3722 C 0.12755 0.42255 0.28928 0.0
C3723 C 0.12464 0.41802 0.31191 0.0
C3724 C 0.12039 0.40741 0.27334 0.0
C3725 C 0.10997 0.38754 0.27971 0.0
C3726 C 0.10812 0.38247 0.3023 0.0
C3727 C 0.11558 0.39747 0.31826 0.0
H3728 H 0.81326 0.66355 0.91211 0.0
H3729 H 0.77682 0.64432 0.97065 0.0
H3730 H 0.78897 0.6405 0.88943 0.0
H3731 H 0.75282 0.62112 0.94804 0.0
H3732 H 0.74959 0.55443 0.91282 0.0
H3733 H 0.77037 0.58496 0.92952 0.0
H3734 H 0.74825 0.6288 0.87754 0.0
H3735 H 0.72722 0.59831 0.86099 0.0
C3736 C 0.79923 0.65549 0.91995 0.0
C3737 C 0.79742 0.65505 0.94321 0.0
C3738 C 0.7856 0.64198 0.90701 0.0
C3739 C 0.7699 0.62825 0.91726 0.0
C3740 C 0.76544 0.63102 0.93994 0.0
C3741 C 0.77887 0.64475 0.95281 0.0
C3742 C 0.74999 0.57031 0.90444 0.0
C3743 C 0.73691 0.57408 0.88565 0.0
C3744 C 0.7614 0.58789 0.91424 0.0
C3745 C 0.76015 0.60934 0.90517 0.0
C3746 C 0.74912 0.61251 0.88501 0.0
C3747 C 0.73742 0.59502 0.8754 0.0
H3748 H 0.78878 0.35389 0.09001 0.0
H3749 H 0.77316 0.41082 0.04974 0.0
H3750 H 0.76911 0.37038 0.12129 0.0
H3751 H 0.75322 0.42728 0.08091 0.0
H3752 H 0.74777 0.46567 0.14129 0.0
H3753 H 0.76967 0.44313 0.11598 0.0
H3754 H 0.73398 0.38481 0.13706 0.0
H3755 H 0.71229 0.40739 0.16255 0.0
C3756 C 0.78008 0.36941 0.08754 0.0
C3757 C 0.78259 0.38122 0.06759 0.0
C3758 C 0.76919 0.37902 0.10556 0.0
C3759 C 0.76063 0.40054 0.1038 0.0
C3760 C 0.76052 0.411 0.08293 0.0
C3761 C 0.77132 0.40132 0.06487 0.0
C3762 C 0.74559 0.44785 0.14164 0.0
C3763 C 0.72772 0.43836 0.15311 0.0
C3764 C 0.75766 0.43503 0.12661 0.0
C3765 C 0.75247 0.41251 0.12362 0.0
C3766 C 0.73786 0.40226 0.13855 0.0
C3767 C 0.72578 0.41513 0.15354 0.0
H3768 H 0.6259 0.83562 0.10148 0.0
H3769 H 0.59023 0.79429 0.05516 0.0
H3770 H 0.61149 0.81336 0.1324 0.0
H3771 H 0.57537 0.77271 0.08607 0.0
H3772 H 0.53567 0.75346 0.14339 0.0
H3773 H 0.55023 0.78712 0.12684 0.0
H3774 H 0.61688 0.76258 0.13482 0.0
H3775 H 0.60238 0.72862 0.15141 0.0
C3776 C 0.61468 0.82205 0.09797 0.0
C3777 C 0.60905 0.81667 0.07599 0.0
C3778 C 0.60651 0.80944 0.11561 0.0
C3779 C 0.59214 0.79173 0.11145 0.0
C3780 C 0.58618 0.78662 0.08955 0.0
C3781 C 0.59474 0.79884 0.07192 0.0
C3782 C 0.55346 0.75578 0.14314 0.0
C3783 C 0.56787 0.73824 0.14835 0.0
C3784 C 0.56176 0.77501 0.13341 0.0
C3785 C 0.58454 0.77706 0.12932 0.0
C3786 C 0.59922 0.76124 0.1379 0.0
C3787 C 0.5909 0.74186 0.14744 0.0
H3788 H 0.25547 0.64389 0.06231 0.0
H3789 H 0.20486 0.65935 0.11051 0.0
H3790 H 0.27929 0.62987 0.09209 0.0
H3791 H 0.22846 0.64483 0.14007 0.0
H3792 H 0.31655 0.61918 0.16076 0.0
H3793 H 0.29226 0.6459 0.14237 0.0
H3794 H 0.24465 0.59414 0.13014 0.0
H3795 H 0.26916 0.56718 0.14799 0.0
C3796 C 0.24997 0.64555 0.07933 0.0
C3797 C 0.22831 0.6527 0.08409 0.0
C3798 C 0.26344 0.63721 0.09633 0.0
C3799 C 0.25543 0.63604 0.11821 0.0
C3800 C 0.23489 0.64552 0.12331 0.0
C3801 C 0.22155 0.65406 0.10641 0.0
C3802 C 0.30034 0.61372 0.15527 0.0
C3803 C 0.29486 0.59102 0.15562 0.0
C3804 C 0.28664 0.62898 0.14447 0.0
C3805 C 0.26692 0.62189 0.13456 0.0
C3806 C 0.25989 0.5999 0.13769 0.0
C3807 C 0.27374 0.58453 0.14826 0.0
H3808 H 0.37099 0.24947 0.05753 0.0
H3809 H 0.36197 0.20376 0.11185 0.0
H3810 H 0.38591 0.27689 0.08344 0.0
H3811 H 0.37788 0.23077 0.13737 0.0
H3812 H 0.45306 0.27142 0.14005 0.0
H3813 H 0.42479 0.24519 0.12712 0.0
H3814 H 0.3758 0.29719 0.12767 0.0
H3815 H 0.40362 0.32315 0.14134 0.0
C3816 C 0.37105 0.24567 0.07508 0.0
C3817 C 0.36563 0.22432 0.08255 0.0
C3818 C 0.37992 0.26124 0.08988 0.0
C3819 C 0.38349 0.2556 0.11223 0.0
C3820 C 0.3755 0.23535 0.12017 0.0
C3821 C 0.36618 0.22004 0.10554 0.0
C3822 C 0.436 0.27693 0.13872 0.0
C3823 C 0.43062 0.29939 0.14148 0.0
C3824 C 0.41988 0.262 0.13106 0.0
C3825 C 0.3983 0.26942 0.12604 0.0
C3826 C 0.39235 0.29119 0.13125 0.0
C3827 C 0.40828 0.30594 0.13925 0.0
H3828 H 0.2509 0.37036 0.95928 0.0
H3829 H 0.204 0.3567 0.90704 0.0
H3830 H 0.27642 0.3862 0.93192 0.0
H3831 H 0.22915 0.37338 0.88002 0.0
H3832 H 0.26719 0.45192 0.87732 0.0
H3833 H 0.24251 0.42314 0.89203 0.0
H3834 H 0.29408 0.37442 0.88365 0.0
H3835 H 0.31844 0.40281 0.86818 0.0
C3836 C 0.24652 0.36956 0.94189 0.0
C3837 C 0.22527 0.36257 0.93542 0.0
C3838 C 0.26098 0.37897 0.92627 0.0
C3839 C 0.25439 0.38143 0.90404 0.0
C3840 C 0.23445 0.37185 0.89709 0.0
C3841 C 0.22023 0.36206 0.91258 0.0
C3842 C 0.27278 0.43486 0.87725 0.0
C3843 C 0.29483 0.4297 0.87176 0.0
C3844 C 0.25878 0.41844 0.88599 0.0
C3845 C 0.26668 0.39675 0.88932 0.0
C3846 C 0.28772 0.39105 0.88137 0.0
C3847 C 0.30153 0.40731 0.87229 0.0
H3848 H 0.65655 0.21646 0.91041 0.0
H3849 H 0.62553 0.24779 0.96666 0.0
H3850 H 0.63665 0.24148 0.88544 0.0
H3851 H 0.60504 0.27236 0.94168 0.0
H3852 H 0.54853 0.28146 0.8897 0.0
H3853 H 0.57367 0.26015 0.91349 0.0
H3854 H 0.62965 0.2834 0.8754 0.0
H3855 H 0.60453 0.30512 0.85201 0.0
C3856 C 0.64633 0.22945 0.91746 0.0
C3857 C 0.6429 0.23046 0.94047 0.0
C3858 C 0.63466 0.24352 0.90317 0.0
C3859 C 0.61893 0.25847 0.91163 0.0
C3860 C 0.61686 0.26074 0.93473 0.0
C3861 C 0.62896 0.24704 0.94904 0.0
C3862 C 0.56612 0.28135 0.88596 0.0
C3863 C 0.57459 0.2944 0.86866 0.0
C3864 C 0.58054 0.26958 0.89984 0.0
C3865 C 0.60364 0.27037 0.89643 0.0
C3866 C 0.61196 0.2825 0.8784 0.0
C3867 C 0.59759 0.29465 0.86485 0.0
H3868 H 0.40091 0.76774 0.96339 0.0
H3869 H 0.37554 0.80788 0.90984 0.0
H3870 H 0.41552 0.74118 0.93617 0.0
H3871 H 0.39043 0.78161 0.88294 0.0
H3872 H 0.46853 0.74134 0.87012 0.0
H3873 H 0.44561 0.76711 0.89151 0.0
H3874 H 0.39017 0.72234 0.88712 0.0
H3875 H 0.41256 0.69675 0.86524 0.0
C3876 C 0.39775 0.77049 0.94597 0.0
C3877 C 0.38726 0.78996 0.93878 0.0
C3878 C 0.40629 0.75547 0.93042 0.0
C3879 C 0.40429 0.75975 0.90761 0.0
C3880 C 0.39223 0.77816 0.90046 0.0
C3881 C 0.38366 0.79306 0.91591 0.0
C3882 C 0.45121 0.73736 0.87281 0.0
C3883 C 0.44258 0.71673 0.86629 0.0
C3884 C 0.43823 0.75196 0.88535 0.0
C3885 C 0.41649 0.74619 0.89138 0.0
C3886 C 0.40705 0.72685 0.88288 0.0
C3887 C 0.41987 0.71239 0.87013 0.0
loop_
_geom_bond_atom_site_label_1
_geom_bond_atom_site_label_2
_geom_bond_distance
_geom_bond_site_symmetry_2
_ccdc_geom_bond_type
Zn0 O6 1.920 . S
Zn0 O12 1.898 . S
Zn0 O15 1.905 . S
Zn1 O9 1.905 . S
Zn1 O10 1.898 . S
Zn1 O18 1.920 . S
Zn2 O5 2.080 . S
Zn2 O8 2.114 1_455 S
Zn2 O11 2.120 . S
Zn2 O13 2.120 . S
Zn2 O14 2.114 . S
Zn2 O17 2.080 1_455 S
C3 O8 1.166 . S
C3 O9 1.182 . S
C4 O10 1.167 . S
C4 O11 1.299 1_655 S
O5 Zn2 2.080 . S
O5 C19 1.305 . S
O6 Zn0 1.920 . S
O6 C19 1.234 . S
C7 O12 1.167 . S
C7 O13 1.299 . S
O8 Zn2 2.114 1_655 S
O8 C3 1.166 . S
O9 Zn1 1.905 . S
O9 C3 1.182 . S
O10 Zn1 1.898 . S
O10 C4 1.167 . S
O11 Zn2 2.120 . S
O11 C4 1.299 1_455 S
O12 Zn0 1.898 . S
O12 C7 1.167 . S
O13 Zn2 2.120 . S
O13 C7 1.299 . S
O14 Zn2 2.114 . S
O14 C16 1.166 . S
O15 Zn0 1.905 . S
O15 C16 1.182 . S
C16 O14 1.166 . S
C16 O15 1.182 . S
O17 Zn2 2.080 1_655 S
O17 C20 1.305 . S
O18 Zn1 1.920 . S
O18 C20 1.234 . S
C19 O5 1.305 . S
C19 O6 1.234 . S
C20 O17 1.305 . S
C20 O18 1.234 . S
Zn21 O27 1.920 . S
Zn21 O33 1.898 . S
Zn21 O36 1.905 . S
Zn22 O30 1.905 . S
Zn22 O31 1.898 . S
Zn22 O39 1.920 . S
Zn23 O26 2.080 . S
Zn23 O29 2.114 1_545 S
Zn23 O32 2.120 . S
Zn23 O34 2.120 . S
Zn23 O35 2.114 . S
Zn23 O38 2.080 1_545 S
C24 O29 1.166 . S
C24 O30 1.182 . S
C25 O31 1.167 . S
C25 O32 1.299 1_565 S
O26 Zn23 2.080 . S
O26 C40 1.305 . S
O27 Zn21 1.920 . S
O27 C40 1.234 . S
C28 O33 1.167 . S
C28 O34 1.299 . S
O29 Zn23 2.114 1_565 S
O29 C24 1.166 . S
O30 Zn22 1.905 . S
O30 C24 1.182 . S
O31 Zn22 1.898 . S
O31 C25 1.167 . S
O32 Zn23 2.120 . S
O32 C25 1.299 1_545 S
O33 Zn21 1.898 . S
O33 C28 1.167 . S
O34 Zn23 2.120 . S
O34 C28 1.299 . S
O35 Zn23 2.114 . S
O35 C37 1.166 . S
O36 Zn21 1.905 . S
O36 C37 1.182 . S
C37 O35 1.166 . S
C37 O36 1.182 . S
O38 Zn23 2.080 1_565 S
O38 C41 1.305 . S
O39 Zn22 1.920 . S
O39 C41 1.234 . S
C40 O26 1.305 . S
C40 O27 1.234 . S
C41 O38 1.305 . S
C41 O39 1.234 . S
Zn42 O48 1.920 . S
Zn42 O54 1.898 . S
Zn42 O57 1.905 . S
Zn43 O51 1.905 . S
Zn43 O52 1.898 . S
Zn43 O60 1.920 . S
Zn44 O47 2.080 1_455 S
Zn44 O50 2.114 . S
Zn44 O53 2.120 . S
Zn44 O55 2.120 . S
Zn44 O56 2.114 1_455 S
Zn44 O59 2.080 . S
C45 O50 1.166 . S
C45 O51 1.182 . S
C46 O52 1.167 . S
C46 O53 1.299 . S
O47 Zn44 2.080 1_655 S
O47 C61 1.305 . S
O48 Zn42 1.920 . S
O48 C61 1.234 . S
C49 O54 1.167 1_455 S
C49 O55 1.299 . S
O50 Zn44 2.114 . S
O50 C45 1.166 . S
O51 Zn43 1.905 . S
O51 C45 1.182 . S
O52 Zn43 1.898 . S
O52 C46 1.167 . S
O53 Zn44 2.120 . S
O53 C46 1.299 . S
O54 Zn42 1.898 . S
O54 C49 1.167 1_655 S
O55 Zn44 2.120 . S
O55 C49 1.299 . S
O56 Zn44 2.114 1_655 S
O56 C58 1.166 . S
O57 Zn42 1.905 . S
O57 C58 1.182 . S
C58 O56 1.166 . S
C58 O57 1.182 . S
O59 Zn44 2.080 . S
O59 C62 1.305 . S
O60 Zn43 1.920 . S
O60 C62 1.234 . S
C61 O47 1.305 . S
C61 O48 1.234 . S
C62 O59 1.305 . S
C62 O60 1.234 . S
Zn63 O69 1.920 . S
Zn63 O75 1.898 . S
Zn63 O78 1.905 . S
Zn64 O72 1.905 . S
Zn64 O73 1.898 . S
Zn64 O81 1.920 . S
Zn65 O68 2.080 1_545 S
Zn65 O71 2.114 . S
Zn65 O74 2.120 . S
Zn65 O76 2.120 . S
Zn65 O77 2.114 1_545 S
Zn65 O80 2.080 . S
C66 O71 1.166 . S
C66 O72 1.182 . S
C67 O73 1.167 . S
C67 O74 1.299 . S
O68 Zn65 2.080 1_565 S
O68 C82 1.305 . S
O69 Zn63 1.920 . S
O69 C82 1.234 . S
C70 O75 1.167 1_545 S
C70 O76 1.299 . S
O71 Zn65 2.114 . S
O71 C66 1.166 . S
O72 Zn64 1.905 . S
O72 C66 1.182 . S
O73 Zn64 1.898 . S
O73 C67 1.167 . S
O74 Zn65 2.120 . S
O74 C67 1.299 . S
O75 Zn63 1.898 . S
O75 C70 1.167 1_565 S
O76 Zn65 2.120 . S
O76 C70 1.299 . S
O77 Zn65 2.114 1_565 S
O77 C79 1.166 . S
O78 Zn63 1.905 . S
O78 C79 1.182 . S
C79 O77 1.166 . S
C79 O78 1.182 . S
O80 Zn65 2.080 . S
O80 C83 1.305 . S
O81 Zn64 1.920 . S
O81 C83 1.234 . S
C82 O68 1.305 . S
C82 O69 1.234 . S
C83 O80 1.305 . S
C83 O81 1.234 . S
Zn84 O90 1.920 . S
Zn84 O96 1.898 . S
Zn84 O99 1.905 . S
Zn85 O93 1.905 . S
Zn85 O94 1.898 . S
Zn85 O102 1.920 . S
Zn86 O89 2.080 . S
Zn86 O92 2.114 1_455 S
Zn86 O95 2.120 . S
Zn86 O97 2.120 . S
Zn86 O98 2.114 . S
Zn86 O101 2.080 1_455 S
C87 O92 1.166 . S
C87 O93 1.182 . S
C88 O94 1.167 . S
C88 O95 1.299 1_655 S
O89 Zn86 2.080 . S
O89 C103 1.305 . S
O90 Zn84 1.920 . S
O90 C103 1.234 . S
C91 O96 1.167 . S
C91 O97 1.299 . S
O92 Zn86 2.114 1_655 S
O92 C87 1.166 . S
O93 Zn85 1.905 . S
O93 C87 1.182 . S
O94 Zn85 1.898 . S
O94 C88 1.167 . S
O95 Zn86 2.120 . S
O95 C88 1.299 1_455 S
O96 Zn84 1.898 . S
O96 C91 1.167 . S
O97 Zn86 2.120 . S
O97 C91 1.299 . S
O98 Zn86 2.114 . S
O98 C100 1.166 . S
O99 Zn84 1.905 . S
O99 C100 1.182 . S
C100 O98 1.166 . S
C100 O99 1.182 . S
O101 Zn86 2.080 1_655 S
O101 C104 1.305 . S
O102 Zn85 1.920 . S
O102 C104 1.234 . S
C103 O89 1.305 . S
C103 O90 1.234 . S
C104 O101 1.305 . S
C104 O102 1.234 . S
Zn105 O111 1.920 . S
Zn105 O117 1.898 . S
Zn105 O120 1.905 . S
Zn106 O114 1.905 . S
Zn106 O115 1.898 . S
Zn106 O123 1.920 . S
Zn107 O110 2.080 . S
Zn107 O113 2.114 1_545 S
Zn107 O116 2.120 . S
Zn107 O118 2.120 . S
Zn107 O119 2.114 . S
Zn107 O122 2.080 1_545 S
C108 O113 1.166 . S
C108 O114 1.182 . S
C109 O115 1.167 . S
C109 O116 1.299 1_565 S
O110 Zn107 2.080 . S
O110 C124 1.305 . S
O111 Zn105 1.920 . S
O111 C124 1.234 . S
C112 O117 1.167 . S
C112 O118 1.299 . S
O113 Zn107 2.114 1_565 S
O113 C108 1.166 . S
O114 Zn106 1.905 . S
O114 C108 1.182 . S
O115 Zn106 1.898 . S
O115 C109 1.167 . S
O116 Zn107 2.120 . S
O116 C109 1.299 1_545 S
O117 Zn105 1.898 . S
O117 C112 1.167 . S
O118 Zn107 2.120 . S
O118 C112 1.299 . S
O119 Zn107 2.114 . S
O119 C121 1.166 . S
O120 Zn105 1.905 . S
O120 C121 1.182 . S
C121 O119 1.166 . S
C121 O120 1.182 . S
O122 Zn107 2.080 1_565 S
O122 C125 1.305 . S
O123 Zn106 1.920 . S
O123 C125 1.234 . S
C124 O110 1.305 . S
C124 O111 1.234 . S
C125 O122 1.305 . S
C125 O123 1.234 . S
Zn126 O132 1.920 . S
Zn126 O138 1.898 . S
Zn126 O141 1.905 . S
Zn127 O135 1.905 . S
Zn127 O136 1.898 . S
Zn127 O144 1.920 . S
Zn128 O131 2.080 1_455 S
Zn128 O134 2.114 . S
Zn128 O137 2.120 . S
Zn128 O139 2.120 . S
Zn128 O140 2.114 1_455 S
Zn128 O143 2.080 . S
C129 O134 1.166 . S
C129 O135 1.182 . S
C130 O136 1.167 . S
C130 O137 1.299 . S
O131 Zn128 2.080 1_655 S
O131 C145 1.305 . S
O132 Zn126 1.920 . S
O132 C145 1.234 . S
C133 O138 1.167 1_455 S
C133 O139 1.299 . S
O134 Zn128 2.114 . S
O134 C129 1.166 . S
O135 Zn127 1.905 . S
O135 C129 1.182 . S
O136 Zn127 1.898 . S
O136 C130 1.167 . S
O137 Zn128 2.120 . S
O137 C130 1.299 . S
O138 Zn126 1.898 . S
O138 C133 1.167 1_655 S
O139 Zn128 2.120 . S
O139 C133 1.299 . S
O140 Zn128 2.114 1_655 S
O140 C142 1.166 . S
O141 Zn126 1.905 . S
O141 C142 1.182 . S
C142 O140 1.166 . S
C142 O141 1.182 . S
O143 Zn128 2.080 . S
O143 C146 1.305 . S
O144 Zn127 1.920 . S
O144 C146 1.234 . S
C145 O131 1.305 . S
C145 O132 1.234 . S
C146 O143 1.305 . S
C146 O144 1.234 . S
Zn147 O153 1.920 . S
Zn147 O159 1.898 . S
Zn147 O162 1.905 . S
Zn148 O156 1.905 . S
Zn148 O157 1.898 . S
Zn148 O165 1.920 . S
Zn149 O152 2.080 . S
Zn149 O155 2.114 1_545 S
Zn149 O158 2.120 . S
Zn149 O160 2.120 . S
Zn149 O161 2.114 . S
Zn149 O164 2.080 1_545 S
C150 O155 1.166 . S
C150 O156 1.182 . S
C151 O157 1.167 1_545 S
C151 O158 1.299 . S
O152 Zn149 2.080 . S
O152 C166 1.305 . S
O153 Zn147 1.920 . S
O153 C166 1.234 . S
C154 O159 1.167 . S
C154 O160 1.299 . S
O155 Zn149 2.114 1_565 S
O155 C150 1.166 . S
O156 Zn148 1.905 . S
O156 C150 1.182 . S
O157 Zn148 1.898 . S
O157 C151 1.167 1_565 S
O158 Zn149 2.120 . S
O158 C151 1.299 . S
O159 Zn147 1.898 . S
O159 C154 1.167 . S
O160 Zn149 2.120 . S
O160 C154 1.299 . S
O161 Zn149 2.114 . S
O161 C163 1.166 . S
O162 Zn147 1.905 . S
O162 C163 1.182 . S
C163 O161 1.166 . S
C163 O162 1.182 . S
O164 Zn149 2.080 1_565 S
O164 C167 1.305 . S
O165 Zn148 1.920 . S
O165 C167 1.234 . S
C166 O152 1.305 . S
C166 O153 1.234 . S
C167 O164 1.305 . S
C167 O165 1.234 . S
Zn168 O174 1.920 . S
Zn168 O180 1.898 . S
Zn168 O183 1.905 . S
Zn169 O177 1.905 . S
Zn169 O178 1.898 . S
Zn169 O186 1.920 . S
Zn170 O173 2.080 . S
Zn170 O176 2.114 1_545 S
Zn170 O179 2.120 . S
Zn170 O181 2.120 . S
Zn170 O182 2.114 . S
Zn170 O185 2.080 1_545 S
C171 O176 1.166 . S
C171 O177 1.182 . S
C172 O178 1.167 . S
C172 O179 1.299 1_565 S
O173 Zn170 2.080 . S
O173 C187 1.305 . S
O174 Zn168 1.920 . S
O174 C187 1.234 . S
C175 O180 1.167 . S
C175 O181 1.299 . S
O176 Zn170 2.114 1_565 S
O176 C171 1.166 . S
O177 Zn169 1.905 . S
O177 C171 1.182 . S
O178 Zn169 1.898 . S
O178 C172 1.167 . S
O179 Zn170 2.120 . S
O179 C172 1.299 1_545 S
O180 Zn168 1.898 . S
O180 C175 1.167 . S
O181 Zn170 2.120 . S
O181 C175 1.299 . S
O182 Zn170 2.114 . S
O182 C184 1.166 . S
O183 Zn168 1.905 . S
O183 C184 1.182 . S
C184 O182 1.166 . S
C184 O183 1.182 . S
O185 Zn170 2.080 1_565 S
O185 C188 1.305 . S
O186 Zn169 1.920 . S
O186 C188 1.234 . S
C187 O173 1.305 . S
C187 O174 1.234 . S
C188 O185 1.305 . S
C188 O186 1.234 . S
Zn189 O195 1.920 . S
Zn189 O201 1.898 . S
Zn189 O204 1.905 . S
Zn190 O198 1.905 . S
Zn190 O199 1.898 . S
Zn190 O207 1.920 . S
Zn191 O194 2.080 1_455 S
Zn191 O197 2.114 . S
Zn191 O200 2.120 . S
Zn191 O202 2.120 . S
Zn191 O203 2.114 1_455 S
Zn191 O206 2.080 . S
C192 O197 1.166 . S
C192 O198 1.182 . S
C193 O199 1.167 . S
C193 O200 1.299 . S
O194 Zn191 2.080 1_655 S
O194 C208 1.305 . S
O195 Zn189 1.920 . S
O195 C208 1.234 . S
C196 O201 1.167 1_455 S
C196 O202 1.299 . S
O197 Zn191 2.114 . S
O197 C192 1.166 . S
O198 Zn190 1.905 . S
O198 C192 1.182 . S
O199 Zn190 1.898 . S
O199 C193 1.167 . S
O200 Zn191 2.120 . S
O200 C193 1.299 . S
O201 Zn189 1.898 . S
O201 C196 1.167 1_655 S
O202 Zn191 2.120 . S
O202 C196 1.299 . S
O203 Zn191 2.114 1_655 S
O203 C205 1.166 . S
O204 Zn189 1.905 . S
O204 C205 1.182 . S
C205 O203 1.166 . S
C205 O204 1.182 . S
O206 Zn191 2.080 . S
O206 C209 1.305 . S
O207 Zn190 1.920 . S
O207 C209 1.234 . S
C208 O194 1.305 . S
C208 O195 1.234 . S
C209 O206 1.305 . S
C209 O207 1.234 . S
Zn210 O216 1.920 . S
Zn210 O222 1.898 . S
Zn210 O225 1.905 . S
Zn211 O219 1.905 . S
Zn211 O220 1.898 . S
Zn211 O228 1.920 . S
Zn212 O215 2.080 . S
Zn212 O218 2.114 1_545 S
Zn212 O221 2.120 . S
Zn212 O223 2.120 . S
Zn212 O224 2.114 . S
Zn212 O227 2.080 1_545 S
C213 O218 1.166 . S
C213 O219 1.182 . S
C214 O220 1.167 1_545 S
C214 O221 1.299 . S
O215 Zn212 2.080 . S
O215 C229 1.305 . S
O216 Zn210 1.920 . S
O216 C229 1.234 . S
C217 O222 1.167 . S
C217 O223 1.299 . S
O218 Zn212 2.114 1_565 S
O218 C213 1.166 . S
O219 Zn211 1.905 . S
O219 C213 1.182 . S
O220 Zn211 1.898 . S
O220 C214 1.167 1_565 S
O221 Zn212 2.120 . S
O221 C214 1.299 . S
O222 Zn210 1.898 . S
O222 C217 1.167 . S
O223 Zn212 2.120 . S
O223 C217 1.299 . S
O224 Zn212 2.114 . S
O224 C226 1.166 . S
O225 Zn210 1.905 . S
O225 C226 1.182 . S
C226 O224 1.166 . S
C226 O225 1.182 . S
O227 Zn212 2.080 1_565 S
O227 C230 1.305 . S
O228 Zn211 1.920 . S
O228 C230 1.234 . S
C229 O215 1.305 . S
C229 O216 1.234 . S
C230 O227 1.305 . S
C230 O228 1.234 . S
Zn231 O237 1.920 . S
Zn231 O243 1.898 . S
Zn231 O246 1.905 . S
Zn232 O240 1.905 . S
Zn232 O241 1.898 . S
Zn232 O249 1.920 . S
Zn233 O236 2.080 . S
Zn233 O239 2.114 1_455 S
Zn233 O242 2.120 . S
Zn233 O244 2.120 . S
Zn233 O245 2.114 . S
Zn233 O248 2.080 1_455 S
C234 O239 1.166 . S
C234 O240 1.182 . S
C235 O241 1.167 . S
C235 O242 1.299 1_655 S
O236 Zn233 2.080 . S
O236 C250 1.305 . S
O237 Zn231 1.920 . S
O237 C250 1.234 . S
C238 O243 1.167 . S
C238 O244 1.299 . S
O239 Zn233 2.114 1_655 S
O239 C234 1.166 . S
O240 Zn232 1.905 . S
O240 C234 1.182 . S
O241 Zn232 1.898 . S
O241 C235 1.167 . S
O242 Zn233 2.120 . S
O242 C235 1.299 1_455 S
O243 Zn231 1.898 . S
O243 C238 1.167 . S
O244 Zn233 2.120 . S
O244 C238 1.299 . S
O245 Zn233 2.114 . S
O245 C247 1.166 . S
O246 Zn231 1.905 . S
O246 C247 1.182 . S
C247 O245 1.166 . S
C247 O246 1.182 . S
O248 Zn233 2.080 1_655 S
O248 C251 1.305 . S
O249 Zn232 1.920 . S
O249 C251 1.234 . S
C250 O236 1.305 . S
C250 O237 1.234 . S
C251 O248 1.305 . S
C251 O249 1.234 . S
Zn252 O258 1.920 . S
Zn252 O264 1.898 . S
Zn252 O267 1.905 . S
Zn253 O261 1.905 . S
Zn253 O262 1.898 . S
Zn253 O270 1.920 . S
Zn254 O257 2.080 1_545 S
Zn254 O260 2.114 . S
Zn254 O263 2.120 . S
Zn254 O265 2.120 . S
Zn254 O266 2.114 1_545 S
Zn254 O269 2.080 . S
C255 O260 1.166 . S
C255 O261 1.182 . S
C256 O262 1.167 . S
C256 O263 1.299 . S
O257 Zn254 2.080 1_565 S
O257 C271 1.305 . S
O258 Zn252 1.920 . S
O258 C271 1.234 . S
C259 O264 1.167 1_545 S
C259 O265 1.299 . S
O260 Zn254 2.114 . S
O260 C255 1.166 . S
O261 Zn253 1.905 . S
O261 C255 1.182 . S
O262 Zn253 1.898 . S
O262 C256 1.167 . S
O263 Zn254 2.120 . S
O263 C256 1.299 . S
O264 Zn252 1.898 . S
O264 C259 1.167 1_565 S
O265 Zn254 2.120 . S
O265 C259 1.299 . S
O266 Zn254 2.114 1_565 S
O266 C268 1.166 . S
O267 Zn252 1.905 . S
O267 C268 1.182 . S
C268 O266 1.166 . S
C268 O267 1.182 . S
O269 Zn254 2.080 . S
O269 C272 1.305 . S
O270 Zn253 1.920 . S
O270 C272 1.234 . S
C271 O257 1.305 . S
C271 O258 1.234 . S
C272 O269 1.305 . S
C272 O270 1.234 . S
Zn273 O279 1.920 . S
Zn273 O285 1.898 . S
Zn273 O288 1.905 . S
Zn274 O282 1.905 . S
Zn274 O283 1.898 . S
Zn274 O291 1.920 . S
Zn275 O278 2.080 1_455 S
Zn275 O281 2.114 . S
Zn275 O284 2.120 . S
Zn275 O286 2.120 . S
Zn275 O287 2.114 1_455 S
Zn275 O290 2.080 . S
C276 O281 1.166 . S
C276 O282 1.182 . S
C277 O283 1.167 . S
C277 O284 1.299 . S
O278 Zn275 2.080 1_655 S
O278 C292 1.305 . S
O279 Zn273 1.920 . S
O279 C292 1.234 . S
C280 O285 1.167 . S
C280 O286 1.299 1_655 S
O281 Zn275 2.114 . S
O281 C276 1.166 . S
O282 Zn274 1.905 . S
O282 C276 1.182 . S
O283 Zn274 1.898 . S
O283 C277 1.167 . S
O284 Zn275 2.120 . S
O284 C277 1.299 . S
O285 Zn273 1.898 . S
O285 C280 1.167 . S
O286 Zn275 2.120 . S
O286 C280 1.299 1_455 S
O287 Zn275 2.114 1_655 S
O287 C289 1.166 . S
O288 Zn273 1.905 . S
O288 C289 1.182 . S
C289 O287 1.166 . S
C289 O288 1.182 . S
O290 Zn275 2.080 . S
O290 C293 1.305 . S
O291 Zn274 1.920 . S
O291 C293 1.234 . S
C292 O278 1.305 . S
C292 O279 1.234 . S
C293 O290 1.305 . S
C293 O291 1.234 . S
Zn294 O300 1.920 . S
Zn294 O306 1.898 . S
Zn294 O309 1.905 . S
Zn295 O303 1.905 . S
Zn295 O304 1.898 . S
Zn295 O312 1.920 . S
Zn296 O299 2.080 1_545 S
Zn296 O302 2.114 . S
Zn296 O305 2.120 . S
Zn296 O307 2.120 . S
Zn296 O308 2.114 1_545 S
Zn296 O311 2.080 . S
C297 O302 1.166 . S
C297 O303 1.182 . S
C298 O304 1.167 . S
C298 O305 1.299 . S
O299 Zn296 2.080 1_565 S
O299 C313 1.305 . S
O300 Zn294 1.920 . S
O300 C313 1.234 . S
C301 O306 1.167 . S
C301 O307 1.299 1_565 S
O302 Zn296 2.114 . S
O302 C297 1.166 . S
O303 Zn295 1.905 . S
O303 C297 1.182 . S
O304 Zn295 1.898 . S
O304 C298 1.167 . S
O305 Zn296 2.120 . S
O305 C298 1.299 . S
O306 Zn294 1.898 . S
O306 C301 1.167 . S
O307 Zn296 2.120 . S
O307 C301 1.299 1_545 S
O308 Zn296 2.114 1_565 S
O308 C310 1.166 . S
O309 Zn294 1.905 . S
O309 C310 1.182 . S
C310 O308 1.166 . S
C310 O309 1.182 . S
O311 Zn296 2.080 . S
O311 C314 1.305 . S
O312 Zn295 1.920 . S
O312 C314 1.234 . S
C313 O299 1.305 . S
C313 O300 1.234 . S
C314 O311 1.305 . S
C314 O312 1.234 . S
Zn315 O321 1.920 . S
Zn315 O327 1.898 . S
Zn315 O330 1.905 . S
Zn316 O324 1.905 . S
Zn316 O325 1.898 . S
Zn316 O333 1.920 . S
Zn317 O320 2.080 . S
Zn317 O323 2.114 1_455 S
Zn317 O326 2.120 . S
Zn317 O328 2.120 . S
Zn317 O329 2.114 . S
Zn317 O332 2.080 1_455 S
C318 O323 1.166 . S
C318 O324 1.182 . S
C319 O325 1.167 1_455 S
C319 O326 1.299 . S
O320 Zn317 2.080 . S
O320 C334 1.305 . S
O321 Zn315 1.920 . S
O321 C334 1.234 . S
C322 O327 1.167 . S
C322 O328 1.299 . S
O323 Zn317 2.114 1_655 S
O323 C318 1.166 . S
O324 Zn316 1.905 . S
O324 C318 1.182 . S
O325 Zn316 1.898 . S
O325 C319 1.167 1_655 S
O326 Zn317 2.120 . S
O326 C319 1.299 . S
O327 Zn315 1.898 . S
O327 C322 1.167 . S
O328 Zn317 2.120 . S
O328 C322 1.299 . S
O329 Zn317 2.114 . S
O329 C331 1.166 . S
O330 Zn315 1.905 . S
O330 C331 1.182 . S
C331 O329 1.166 . S
C331 O330 1.182 . S
O332 Zn317 2.080 1_655 S
O332 C335 1.305 . S
O333 Zn316 1.920 . S
O333 C335 1.234 . S
C334 O320 1.305 . S
C334 O321 1.234 . S
C335 O332 1.305 . S
C335 O333 1.234 . S
Zn336 O342 1.920 . S
Zn336 O348 1.898 . S
Zn336 O351 1.905 . S
Zn337 O345 1.905 . S
Zn337 O346 1.898 . S
Zn337 O354 1.920 . S
Zn338 O341 2.080 1_554 S
Zn338 O344 2.114 . S
Zn338 O347 2.120 . S
Zn338 O349 2.120 . S
Zn338 O350 2.114 1_554 S
Zn338 O353 2.080 . S
C339 O344 1.166 . S
C339 O345 1.182 . S
C340 O346 1.167 . S
C340 O347 1.299 . S
O341 Zn338 2.080 1_556 S
O341 C355 1.305 . S
O342 Zn336 1.920 . S
O342 C355 1.234 . S
C343 O348 1.167 . S
C343 O349 1.299 1_556 S
O344 Zn338 2.114 . S
O344 C339 1.166 . S
O345 Zn337 1.905 . S
O345 C339 1.182 . S
O346 Zn337 1.898 . S
O346 C340 1.167 . S
O347 Zn338 2.120 . S
O347 C340 1.299 . S
O348 Zn336 1.898 . S
O348 C343 1.167 . S
O349 Zn338 2.120 . S
O349 C343 1.299 1_554 S
O350 Zn338 2.114 1_556 S
O350 C352 1.166 . S
O351 Zn336 1.905 . S
O351 C352 1.182 . S
C352 O350 1.166 . S
C352 O351 1.182 . S
O353 Zn338 2.080 . S
O353 C356 1.305 . S
O354 Zn337 1.920 . S
O354 C356 1.234 . S
C355 O341 1.305 . S
C355 O342 1.234 . S
C356 O353 1.305 . S
C356 O354 1.234 . S
Zn357 O363 1.920 . S
Zn357 O369 1.898 . S
Zn357 O372 1.905 . S
Zn358 O366 1.905 . S
Zn358 O367 1.898 . S
Zn358 O375 1.920 . S
Zn359 O362 2.080 1_554 S
Zn359 O365 2.114 . S
Zn359 O368 2.120 . S
Zn359 O370 2.120 . S
Zn359 O371 2.114 1_554 S
Zn359 O374 2.080 . S
C360 O365 1.166 . S
C360 O366 1.182 . S
C361 O367 1.167 . S
C361 O368 1.299 . S
O362 Zn359 2.080 1_556 S
O362 C376 1.305 . S
O363 Zn357 1.920 . S
O363 C376 1.234 . S
C364 O369 1.167 1_554 S
C364 O370 1.299 . S
O365 Zn359 2.114 . S
O365 C360 1.166 . S
O366 Zn358 1.905 . S
O366 C360 1.182 . S
O367 Zn358 1.898 . S
O367 C361 1.167 . S
O368 Zn359 2.120 . S
O368 C361 1.299 . S
O369 Zn357 1.898 . S
O369 C364 1.167 1_556 S
O370 Zn359 2.120 . S
O370 C364 1.299 . S
O371 Zn359 2.114 1_556 S
O371 C373 1.166 . S
O372 Zn357 1.905 . S
O372 C373 1.182 . S
C373 O371 1.166 . S
C373 O372 1.182 . S
O374 Zn359 2.080 . S
O374 C377 1.305 . S
O375 Zn358 1.920 . S
O375 C377 1.234 . S
C376 O362 1.305 . S
C376 O363 1.234 . S
C377 O374 1.305 . S
C377 O375 1.234 . S
Zn378 O384 1.920 . S
Zn378 O390 1.898 . S
Zn378 O393 1.905 . S
Zn379 O387 1.905 . S
Zn379 O388 1.898 . S
Zn379 O396 1.920 . S
Zn380 O383 2.080 1_554 S
Zn380 O386 2.114 . S
Zn380 O389 2.120 . S
Zn380 O391 2.120 . S
Zn380 O392 2.114 1_554 S
Zn380 O395 2.080 . S
C381 O386 1.166 . S
C381 O387 1.182 . S
C382 O388 1.167 . S
C382 O389 1.299 . S
O383 Zn380 2.080 1_556 S
O383 C397 1.305 . S
O384 Zn378 1.920 . S
O384 C397 1.234 . S
C385 O390 1.167 1_554 S
C385 O391 1.299 . S
O386 Zn380 2.114 . S
O386 C381 1.166 . S
O387 Zn379 1.905 . S
O387 C381 1.182 . S
O388 Zn379 1.898 . S
O388 C382 1.167 . S
O389 Zn380 2.120 . S
O389 C382 1.299 . S
O390 Zn378 1.898 . S
O390 C385 1.167 1_556 S
O391 Zn380 2.120 . S
O391 C385 1.299 . S
O392 Zn380 2.114 1_556 S
O392 C394 1.166 . S
O393 Zn378 1.905 . S
O393 C394 1.182 . S
C394 O392 1.166 . S
C394 O393 1.182 . S
O395 Zn380 2.080 . S
O395 C398 1.305 . S
O396 Zn379 1.920 . S
O396 C398 1.234 . S
C397 O383 1.305 . S
C397 O384 1.234 . S
C398 O395 1.305 . S
C398 O396 1.234 . S
Zn399 O405 1.920 . S
Zn399 O411 1.898 . S
Zn399 O414 1.905 . S
Zn400 O408 1.905 . S
Zn400 O409 1.898 . S
Zn400 O417 1.920 . S
Zn401 O404 2.080 . S
Zn401 O407 2.114 1_554 S
Zn401 O410 2.120 . S
Zn401 O412 2.120 . S
Zn401 O413 2.114 . S
Zn401 O416 2.080 1_554 S
C402 O407 1.166 . S
C402 O408 1.182 . S
C403 O409 1.167 1_554 S
C403 O410 1.299 . S
O404 Zn401 2.080 . S
O404 C418 1.305 . S
O405 Zn399 1.920 . S
O405 C418 1.234 . S
C406 O411 1.167 . S
C406 O412 1.299 . S
O407 Zn401 2.114 1_556 S
O407 C402 1.166 . S
O408 Zn400 1.905 . S
O408 C402 1.182 . S
O409 Zn400 1.898 . S
O409 C403 1.167 1_556 S
O410 Zn401 2.120 . S
O410 C403 1.299 . S
O411 Zn399 1.898 . S
O411 C406 1.167 . S
O412 Zn401 2.120 . S
O412 C406 1.299 . S
O413 Zn401 2.114 . S
O413 C415 1.166 . S
O414 Zn399 1.905 . S
O414 C415 1.182 . S
C415 O413 1.166 . S
C415 O414 1.182 . S
O416 Zn401 2.080 1_556 S
O416 C419 1.305 . S
O417 Zn400 1.920 . S
O417 C419 1.234 . S
C418 O404 1.305 . S
C418 O405 1.234 . S
C419 O416 1.305 . S
C419 O417 1.234 . S
Zn420 O426 1.920 . S
Zn420 O432 1.898 . S
Zn420 O435 1.905 . S
Zn421 O429 1.905 . S
Zn421 O430 1.898 . S
Zn421 O438 1.920 . S
Zn422 O425 2.080 1_554 S
Zn422 O428 2.114 . S
Zn422 O431 2.120 . S
Zn422 O433 2.120 . S
Zn422 O434 2.114 1_554 S
Zn422 O437 2.080 . S
C423 O428 1.166 . S
C423 O429 1.182 . S
C424 O430 1.167 . S
C424 O431 1.299 . S
O425 Zn422 2.080 1_556 S
O425 C439 1.305 . S
O426 Zn420 1.920 . S
O426 C439 1.234 . S
C427 O432 1.167 1_554 S
C427 O433 1.299 . S
O428 Zn422 2.114 . S
O428 C423 1.166 . S
O429 Zn421 1.905 . S
O429 C423 1.182 . S
O430 Zn421 1.898 . S
O430 C424 1.167 . S
O431 Zn422 2.120 . S
O431 C424 1.299 . S
O432 Zn420 1.898 . S
O432 C427 1.167 1_556 S
O433 Zn422 2.120 . S
O433 C427 1.299 . S
O434 Zn422 2.114 1_556 S
O434 C436 1.166 . S
O435 Zn420 1.905 . S
O435 C436 1.182 . S
C436 O434 1.166 . S
C436 O435 1.182 . S
O437 Zn422 2.080 . S
O437 C440 1.305 . S
O438 Zn421 1.920 . S
O438 C440 1.234 . S
C439 O425 1.305 . S
C439 O426 1.234 . S
C440 O437 1.305 . S
C440 O438 1.234 . S
Zn441 O447 1.920 . S
Zn441 O453 1.898 . S
Zn441 O456 1.905 . S
Zn442 O450 1.905 . S
Zn442 O451 1.898 . S
Zn442 O459 1.920 . S
Zn443 O446 2.080 1_554 S
Zn443 O449 2.114 . S
Zn443 O452 2.120 . S
Zn443 O454 2.120 . S
Zn443 O455 2.114 1_554 S
Zn443 O458 2.080 . S
C444 O449 1.166 . S
C444 O450 1.182 . S
C445 O451 1.167 . S
C445 O452 1.299 . S
O446 Zn443 2.080 1_556 S
O446 C460 1.305 . S
O447 Zn441 1.920 . S
O447 C460 1.234 . S
C448 O453 1.167 . S
C448 O454 1.299 1_556 S
O449 Zn443 2.114 . S
O449 C444 1.166 . S
O450 Zn442 1.905 . S
O450 C444 1.182 . S
O451 Zn442 1.898 . S
O451 C445 1.167 . S
O452 Zn443 2.120 . S
O452 C445 1.299 . S
O453 Zn441 1.898 . S
O453 C448 1.167 . S
O454 Zn443 2.120 . S
O454 C448 1.299 1_554 S
O455 Zn443 2.114 1_556 S
O455 C457 1.166 . S
O456 Zn441 1.905 . S
O456 C457 1.182 . S
C457 O455 1.166 . S
C457 O456 1.182 . S
O458 Zn443 2.080 . S
O458 C461 1.305 . S
O459 Zn442 1.920 . S
O459 C461 1.234 . S
C460 O446 1.305 . S
C460 O447 1.234 . S
C461 O458 1.305 . S
C461 O459 1.234 . S
Zn462 O468 1.920 . S
Zn462 O474 1.898 . S
Zn462 O477 1.905 . S
Zn463 O471 1.905 . S
Zn463 O472 1.898 . S
Zn463 O480 1.920 . S
Zn464 O467 2.080 1_554 S
Zn464 O470 2.114 . S
Zn464 O473 2.120 . S
Zn464 O475 2.120 . S
Zn464 O476 2.114 1_554 S
Zn464 O479 2.080 . S
C465 O470 1.166 . S
C465 O471 1.182 . S
C466 O472 1.167 . S
C466 O473 1.299 . S
O467 Zn464 2.080 1_556 S
O467 C481 1.305 . S
O468 Zn462 1.920 . S
O468 C481 1.234 . S
C469 O474 1.167 . S
C469 O475 1.299 1_556 S
O470 Zn464 2.114 . S
O470 C465 1.166 . S
O471 Zn463 1.905 . S
O471 C465 1.182 . S
O472 Zn463 1.898 . S
O472 C466 1.167 . S
O473 Zn464 2.120 . S
O473 C466 1.299 . S
O474 Zn462 1.898 . S
O474 C469 1.167 . S
O475 Zn464 2.120 . S
O475 C469 1.299 1_554 S
O476 Zn464 2.114 1_556 S
O476 C478 1.166 . S
O477 Zn462 1.905 . S
O477 C478 1.182 . S
C478 O476 1.166 . S
C478 O477 1.182 . S
O479 Zn464 2.080 . S
O479 C482 1.305 . S
O480 Zn463 1.920 . S
O480 C482 1.234 . S
C481 O467 1.305 . S
C481 O468 1.234 . S
C482 O479 1.305 . S
C482 O480 1.234 . S
Zn483 O489 1.920 . S
Zn483 O495 1.898 . S
Zn483 O498 1.905 . S
Zn484 O492 1.905 . S
Zn484 O493 1.898 . S
Zn484 O501 1.920 . S
Zn485 O488 2.080 1_554 S
Zn485 O491 2.114 . S
Zn485 O494 2.120 . S
Zn485 O496 2.120 . S
Zn485 O497 2.114 1_554 S
Zn485 O500 2.080 . S
C486 O491 1.166 . S
C486 O492 1.182 . S
C487 O493 1.167 . S
C487 O494 1.299 . S
O488 Zn485 2.080 1_556 S
O488 C502 1.305 . S
O489 Zn483 1.920 . S
O489 C502 1.234 . S
C490 O495 1.167 . S
C490 O496 1.299 1_556 S
O491 Zn485 2.114 . S
O491 C486 1.166 . S
O492 Zn484 1.905 . S
O492 C486 1.182 . S
O493 Zn484 1.898 . S
O493 C487 1.167 . S
O494 Zn485 2.120 . S
O494 C487 1.299 . S
O495 Zn483 1.898 . S
O495 C490 1.167 . S
O496 Zn485 2.120 . S
O496 C490 1.299 1_554 S
O497 Zn485 2.114 1_556 S
O497 C499 1.166 . S
O498 Zn483 1.905 . S
O498 C499 1.182 . S
C499 O497 1.166 . S
C499 O498 1.182 . S
O500 Zn485 2.080 . S
O500 C503 1.305 . S
O501 Zn484 1.920 . S
O501 C503 1.234 . S
C502 O488 1.305 . S
C502 O489 1.234 . S
C503 O500 1.305 . S
C503 O501 1.234 . S
Zn504 O510 1.920 . S
Zn504 O516 1.898 . S
Zn504 O519 1.905 . S
Zn505 O513 1.905 . S
Zn505 O514 1.898 . S
Zn505 O522 1.920 . S
Zn506 O509 2.080 . S
Zn506 O512 2.114 . S
Zn506 O515 2.120 . S
Zn506 O517 2.120 . S
Zn506 O518 2.114 . S
Zn506 O521 2.080 . S
C507 O512 1.166 . S
C507 O513 1.182 . S
C508 O514 1.167 . S
C508 O515 1.299 . S
O509 Zn506 2.080 . S
O509 C523 1.305 . S
O510 Zn504 1.920 . S
O510 C523 1.234 . S
C511 O516 1.167 . S
C511 O517 1.299 . S
O512 Zn506 2.114 . S
O512 C507 1.166 . S
O513 Zn505 1.905 . S
O513 C507 1.182 . S
O514 Zn505 1.898 . S
O514 C508 1.167 . S
O515 Zn506 2.120 . S
O515 C508 1.299 . S
O516 Zn504 1.898 . S
O516 C511 1.167 . S
O517 Zn506 2.120 . S
O517 C511 1.299 . S
O518 Zn506 2.114 . S
O518 C520 1.166 . S
O519 Zn504 1.905 . S
O519 C520 1.182 . S
C520 O518 1.166 . S
C520 O519 1.182 . S
O521 Zn506 2.080 . S
O521 C524 1.305 . S
O522 Zn505 1.920 . S
O522 C524 1.234 . S
C523 O509 1.305 . S
C523 O510 1.234 . S
C524 O521 1.305 . S
C524 O522 1.234 . S
Zn525 O531 1.920 . S
Zn525 O537 1.898 . S
Zn525 O540 1.905 . S
Zn526 O534 1.905 . S
Zn526 O535 1.898 . S
Zn526 O543 1.920 . S
Zn527 O530 2.080 . S
Zn527 O533 2.114 . S
Zn527 O536 2.120 . S
Zn527 O538 2.120 . S
Zn527 O539 2.114 . S
Zn527 O542 2.080 . S
C528 O533 1.166 . S
C528 O534 1.182 . S
C529 O535 1.167 . S
C529 O536 1.299 . S
O530 Zn527 2.080 . S
O530 C544 1.305 . S
O531 Zn525 1.920 . S
O531 C544 1.234 . S
C532 O537 1.167 . S
C532 O538 1.299 . S
O533 Zn527 2.114 . S
O533 C528 1.166 . S
O534 Zn526 1.905 . S
O534 C528 1.182 . S
O535 Zn526 1.898 . S
O535 C529 1.167 . S
O536 Zn527 2.120 . S
O536 C529 1.299 . S
O537 Zn525 1.898 . S
O537 C532 1.167 . S
O538 Zn527 2.120 . S
O538 C532 1.299 . S
O539 Zn527 2.114 . S
O539 C541 1.166 . S
O540 Zn525 1.905 . S
O540 C541 1.182 . S
C541 O539 1.166 . S
C541 O540 1.182 . S
O542 Zn527 2.080 . S
O542 C545 1.305 . S
O543 Zn526 1.920 . S
O543 C545 1.234 . S
C544 O530 1.305 . S
C544 O531 1.234 . S
C545 O542 1.305 . S
C545 O543 1.234 . S
Zn546 O552 1.920 . S
Zn546 O558 1.898 . S
Zn546 O561 1.905 . S
Zn547 O555 1.905 . S
Zn547 O556 1.898 . S
Zn547 O564 1.920 . S
Zn548 O551 2.080 . S
Zn548 O554 2.114 . S
Zn548 O557 2.120 . S
Zn548 O559 2.120 . S
Zn548 O560 2.114 . S
Zn548 O563 2.080 . S
C549 O554 1.166 . S
C549 O555 1.182 . S
C550 O556 1.167 . S
C550 O557 1.299 . S
O551 Zn548 2.080 . S
O551 C565 1.305 . S
O552 Zn546 1.920 . S
O552 C565 1.234 . S
C553 O558 1.167 . S
C553 O559 1.299 . S
O554 Zn548 2.114 . S
O554 C549 1.166 . S
O555 Zn547 1.905 . S
O555 C549 1.182 . S
O556 Zn547 1.898 . S
O556 C550 1.167 . S
O557 Zn548 2.120 . S
O557 C550 1.299 . S
O558 Zn546 1.898 . S
O558 C553 1.167 . S
O559 Zn548 2.120 . S
O559 C553 1.299 . S
O560 Zn548 2.114 . S
O560 C562 1.166 . S
O561 Zn546 1.905 . S
O561 C562 1.182 . S
C562 O560 1.166 . S
C562 O561 1.182 . S
O563 Zn548 2.080 . S
O563 C566 1.305 . S
O564 Zn547 1.920 . S
O564 C566 1.234 . S
C565 O551 1.305 . S
C565 O552 1.234 . S
C566 O563 1.305 . S
C566 O564 1.234 . S
Zn567 O573 1.920 . S
Zn567 O579 1.898 . S
Zn567 O582 1.905 . S
Zn568 O576 1.905 . S
Zn568 O577 1.898 . S
Zn568 O585 1.920 . S
Zn569 O572 2.080 . S
Zn569 O575 2.114 . S
Zn569 O578 2.120 . S
Zn569 O580 2.120 . S
Zn569 O581 2.114 . S
Zn569 O584 2.080 . S
C570 O575 1.166 . S
C570 O576 1.182 . S
C571 O577 1.167 . S
C571 O578 1.299 . S
O572 Zn569 2.080 . S
O572 C586 1.305 . S
O573 Zn567 1.920 . S
O573 C586 1.234 . S
C574 O579 1.167 . S
C574 O580 1.299 . S
O575 Zn569 2.114 . S
O575 C570 1.166 . S
O576 Zn568 1.905 . S
O576 C570 1.182 . S
O577 Zn568 1.898 . S
O577 C571 1.167 . S
O578 Zn569 2.120 . S
O578 C571 1.299 . S
O579 Zn567 1.898 . S
O579 C574 1.167 . S
O580 Zn569 2.120 . S
O580 C574 1.299 . S
O581 Zn569 2.114 . S
O581 C583 1.166 . S
O582 Zn567 1.905 . S
O582 C583 1.182 . S
C583 O581 1.166 . S
C583 O582 1.182 . S
O584 Zn569 2.080 . S
O584 C587 1.305 . S
O585 Zn568 1.920 . S
O585 C587 1.234 . S
C586 O572 1.305 . S
C586 O573 1.234 . S
C587 O584 1.305 . S
C587 O585 1.234 . S
Zn588 O594 1.920 . S
Zn588 O600 1.898 . S
Zn588 O603 1.905 . S
Zn589 O597 1.905 . S
Zn589 O598 1.898 . S
Zn589 O606 1.920 . S
Zn590 O593 2.080 . S
Zn590 O596 2.114 . S
Zn590 O599 2.120 . S
Zn590 O601 2.120 . S
Zn590 O602 2.114 . S
Zn590 O605 2.080 . S
C591 O596 1.166 . S
C591 O597 1.182 . S
C592 O598 1.167 . S
C592 O599 1.299 . S
O593 Zn590 2.080 . S
O593 C607 1.305 . S
O594 Zn588 1.920 . S
O594 C607 1.234 . S
C595 O600 1.167 . S
C595 O601 1.299 . S
O596 Zn590 2.114 . S
O596 C591 1.166 . S
O597 Zn589 1.905 . S
O597 C591 1.182 . S
O598 Zn589 1.898 . S
O598 C592 1.167 . S
O599 Zn590 2.120 . S
O599 C592 1.299 . S
O600 Zn588 1.898 . S
O600 C595 1.167 . S
O601 Zn590 2.120 . S
O601 C595 1.299 . S
O602 Zn590 2.114 . S
O602 C604 1.166 . S
O603 Zn588 1.905 . S
O603 C604 1.182 . S
C604 O602 1.166 . S
C604 O603 1.182 . S
O605 Zn590 2.080 . S
O605 C608 1.305 . S
O606 Zn589 1.920 . S
O606 C608 1.234 . S
C607 O593 1.305 . S
C607 O594 1.234 . S
C608 O605 1.305 . S
C608 O606 1.234 . S
Zn609 O615 1.920 . S
Zn609 O621 1.898 . S
Zn609 O624 1.905 . S
Zn610 O618 1.905 . S
Zn610 O619 1.898 . S
Zn610 O627 1.920 . S
Zn611 O614 2.080 . S
Zn611 O617 2.114 . S
Zn611 O620 2.120 . S
Zn611 O622 2.120 . S
Zn611 O623 2.114 . S
Zn611 O626 2.080 . S
C612 O617 1.166 . S
C612 O618 1.182 . S
C613 O619 1.167 . S
C613 O620 1.299 . S
O614 Zn611 2.080 . S
O614 C628 1.305 . S
O615 Zn609 1.920 . S
O615 C628 1.234 . S
C616 O621 1.167 . S
C616 O622 1.299 . S
O617 Zn611 2.114 . S
O617 C612 1.166 . S
O618 Zn610 1.905 . S
O618 C612 1.182 . S
O619 Zn610 1.898 . S
O619 C613 1.167 . S
O620 Zn611 2.120 . S
O620 C613 1.299 . S
O621 Zn609 1.898 . S
O621 C616 1.167 . S
O622 Zn611 2.120 . S
O622 C616 1.299 . S
O623 Zn611 2.114 . S
O623 C625 1.166 . S
O624 Zn609 1.905 . S
O624 C625 1.182 . S
C625 O623 1.166 . S
C625 O624 1.182 . S
O626 Zn611 2.080 . S
O626 C629 1.305 . S
O627 Zn610 1.920 . S
O627 C629 1.234 . S
C628 O614 1.305 . S
C628 O615 1.234 . S
C629 O626 1.305 . S
C629 O627 1.234 . S
Zn630 O636 1.920 . S
Zn630 O642 1.898 . S
Zn630 O645 1.905 . S
Zn631 O639 1.905 . S
Zn631 O640 1.898 . S
Zn631 O648 1.920 . S
Zn632 O635 2.080 . S
Zn632 O638 2.114 . S
Zn632 O641 2.120 . S
Zn632 O643 2.120 . S
Zn632 O644 2.114 . S
Zn632 O647 2.080 . S
C633 O638 1.166 . S
C633 O639 1.182 . S
C634 O640 1.167 . S
C634 O641 1.299 . S
O635 Zn632 2.080 . S
O635 C649 1.305 . S
O636 Zn630 1.920 . S
O636 C649 1.234 . S
C637 O642 1.167 . S
C637 O643 1.299 . S
O638 Zn632 2.114 . S
O638 C633 1.166 . S
O639 Zn631 1.905 . S
O639 C633 1.182 . S
O640 Zn631 1.898 . S
O640 C634 1.167 . S
O641 Zn632 2.120 . S
O641 C634 1.299 . S
O642 Zn630 1.898 . S
O642 C637 1.167 . S
O643 Zn632 2.120 . S
O643 C637 1.299 . S
O644 Zn632 2.114 . S
O644 C646 1.166 . S
O645 Zn630 1.905 . S
O645 C646 1.182 . S
C646 O644 1.166 . S
C646 O645 1.182 . S
O647 Zn632 2.080 . S
O647 C650 1.305 . S
O648 Zn631 1.920 . S
O648 C650 1.234 . S
C649 O635 1.305 . S
C649 O636 1.234 . S
C650 O647 1.305 . S
C650 O648 1.234 . S
Zn651 O657 1.920 . S
Zn651 O663 1.898 . S
Zn651 O666 1.905 . S
Zn652 O660 1.905 . S
Zn652 O661 1.898 . S
Zn652 O669 1.920 . S
Zn653 O656 2.080 . S
Zn653 O659 2.114 . S
Zn653 O662 2.120 . S
Zn653 O664 2.120 . S
Zn653 O665 2.114 . S
Zn653 O668 2.080 . S
C654 O659 1.166 . S
C654 O660 1.182 . S
C655 O661 1.167 . S
C655 O662 1.299 . S
O656 Zn653 2.080 . S
O656 C670 1.305 . S
O657 Zn651 1.920 . S
O657 C670 1.234 . S
C658 O663 1.167 . S
C658 O664 1.299 . S
O659 Zn653 2.114 . S
O659 C654 1.166 . S
O660 Zn652 1.905 . S
O660 C654 1.182 . S
O661 Zn652 1.898 . S
O661 C655 1.167 . S
O662 Zn653 2.120 . S
O662 C655 1.299 . S
O663 Zn651 1.898 . S
O663 C658 1.167 . S
O664 Zn653 2.120 . S
O664 C658 1.299 . S
O665 Zn653 2.114 . S
O665 C667 1.166 . S
O666 Zn651 1.905 . S
O666 C667 1.182 . S
C667 O665 1.166 . S
C667 O666 1.182 . S
O668 Zn653 2.080 . S
O668 C671 1.305 . S
O669 Zn652 1.920 . S
O669 C671 1.234 . S
C670 O656 1.305 . S
C670 O657 1.234 . S
C671 O668 1.305 . S
C671 O669 1.234 . S
Zn672 O678 1.920 . S
Zn672 O684 1.898 . S
Zn672 O687 1.905 . S
Zn673 O681 1.905 . S
Zn673 O682 1.898 . S
Zn673 O690 1.920 . S
Zn674 O677 2.080 . S
Zn674 O680 2.114 . S
Zn674 O683 2.120 . S
Zn674 O685 2.120 . S
Zn674 O686 2.114 . S
Zn674 O689 2.080 . S
C675 O680 1.166 . S
C675 O681 1.182 . S
C676 O682 1.167 . S
C676 O683 1.299 . S
O677 Zn674 2.080 . S
O677 C691 1.305 . S
O678 Zn672 1.920 . S
O678 C691 1.234 . S
C679 O684 1.167 . S
C679 O685 1.299 . S
O680 Zn674 2.114 . S
O680 C675 1.166 . S
O681 Zn673 1.905 . S
O681 C675 1.182 . S
O682 Zn673 1.898 . S
O682 C676 1.167 . S
O683 Zn674 2.120 . S
O683 C676 1.299 . S
O684 Zn672 1.898 . S
O684 C679 1.167 . S
O685 Zn674 2.120 . S
O685 C679 1.299 . S
O686 Zn674 2.114 . S
O686 C688 1.166 . S
O687 Zn672 1.905 . S
O687 C688 1.182 . S
C688 O686 1.166 . S
C688 O687 1.182 . S
O689 Zn674 2.080 . S
O689 C692 1.305 . S
O690 Zn673 1.920 . S
O690 C692 1.234 . S
C691 O677 1.305 . S
C691 O678 1.234 . S
C692 O689 1.305 . S
C692 O690 1.234 . S
Zn693 O699 1.920 . S
Zn693 O705 1.898 . S
Zn693 O708 1.905 . S
Zn694 O702 1.905 . S
Zn694 O703 1.898 . S
Zn694 O711 1.920 . S
Zn695 O698 2.080 . S
Zn695 O701 2.114 . S
Zn695 O704 2.120 . S
Zn695 O706 2.120 . S
Zn695 O707 2.114 . S
Zn695 O710 2.080 . S
C696 O701 1.166 . S
C696 O702 1.182 . S
C697 O703 1.167 . S
C697 O704 1.299 . S
O698 Zn695 2.080 . S
O698 C712 1.305 . S
O699 Zn693 1.920 . S
O699 C712 1.234 . S
C700 O705 1.167 . S
C700 O706 1.299 . S
O701 Zn695 2.114 . S
O701 C696 1.166 . S
O702 Zn694 1.905 . S
O702 C696 1.182 . S
O703 Zn694 1.898 . S
O703 C697 1.167 . S
O704 Zn695 2.120 . S
O704 C697 1.299 . S
O705 Zn693 1.898 . S
O705 C700 1.167 . S
O706 Zn695 2.120 . S
O706 C700 1.299 . S
O707 Zn695 2.114 . S
O707 C709 1.166 . S
O708 Zn693 1.905 . S
O708 C709 1.182 . S
C709 O707 1.166 . S
C709 O708 1.182 . S
O710 Zn695 2.080 . S
O710 C713 1.305 . S
O711 Zn694 1.920 . S
O711 C713 1.234 . S
C712 O698 1.305 . S
C712 O699 1.234 . S
C713 O710 1.305 . S
C713 O711 1.234 . S
Zn714 O720 1.920 . S
Zn714 O726 1.898 . S
Zn714 O729 1.905 . S
Zn715 O723 1.905 . S
Zn715 O724 1.898 . S
Zn715 O732 1.920 . S
Zn716 O719 2.080 . S
Zn716 O722 2.114 . S
Zn716 O725 2.120 . S
Zn716 O727 2.120 . S
Zn716 O728 2.114 . S
Zn716 O731 2.080 . S
C717 O722 1.166 . S
C717 O723 1.182 . S
C718 O724 1.167 . S
C718 O725 1.299 . S
O719 Zn716 2.080 . S
O719 C733 1.305 . S
O720 Zn714 1.920 . S
O720 C733 1.234 . S
C721 O726 1.167 . S
C721 O727 1.299 . S
O722 Zn716 2.114 . S
O722 C717 1.166 . S
O723 Zn715 1.905 . S
O723 C717 1.182 . S
O724 Zn715 1.898 . S
O724 C718 1.167 . S
O725 Zn716 2.120 . S
O725 C718 1.299 . S
O726 Zn714 1.898 . S
O726 C721 1.167 . S
O727 Zn716 2.120 . S
O727 C721 1.299 . S
O728 Zn716 2.114 . S
O728 C730 1.166 . S
O729 Zn714 1.905 . S
O729 C730 1.182 . S
C730 O728 1.166 . S
C730 O729 1.182 . S
O731 Zn716 2.080 . S
O731 C734 1.305 . S
O732 Zn715 1.920 . S
O732 C734 1.234 . S
C733 O719 1.305 . S
C733 O720 1.234 . S
C734 O731 1.305 . S
C734 O732 1.234 . S
Zn735 O741 1.920 . S
Zn735 O747 1.898 . S
Zn735 O750 1.905 . S
Zn736 O744 1.905 . S
Zn736 O745 1.898 . S
Zn736 O753 1.920 . S
Zn737 O740 2.080 . S
Zn737 O743 2.114 . S
Zn737 O746 2.120 . S
Zn737 O748 2.120 . S
Zn737 O749 2.114 . S
Zn737 O752 2.080 . S
C738 O743 1.166 . S
C738 O744 1.182 . S
C739 O745 1.167 . S
C739 O746 1.299 . S
O740 Zn737 2.080 . S
O740 C754 1.305 . S
O741 Zn735 1.920 . S
O741 C754 1.234 . S
C742 O747 1.167 . S
C742 O748 1.299 . S
O743 Zn737 2.114 . S
O743 C738 1.166 . S
O744 Zn736 1.905 . S
O744 C738 1.182 . S
O745 Zn736 1.898 . S
O745 C739 1.167 . S
O746 Zn737 2.120 . S
O746 C739 1.299 . S
O747 Zn735 1.898 . S
O747 C742 1.167 . S
O748 Zn737 2.120 . S
O748 C742 1.299 . S
O749 Zn737 2.114 . S
O749 C751 1.166 . S
O750 Zn735 1.905 . S
O750 C751 1.182 . S
C751 O749 1.166 . S
C751 O750 1.182 . S
O752 Zn737 2.080 . S
O752 C755 1.305 . S
O753 Zn736 1.920 . S
O753 C755 1.234 . S
C754 O740 1.305 . S
C754 O741 1.234 . S
C755 O752 1.305 . S
C755 O753 1.234 . S
Zn756 O762 1.920 . S
Zn756 O768 1.898 . S
Zn756 O771 1.905 . S
Zn757 O765 1.905 . S
Zn757 O766 1.898 . S
Zn757 O774 1.920 . S
Zn758 O761 2.080 . S
Zn758 O764 2.114 . S
Zn758 O767 2.120 . S
Zn758 O769 2.120 . S
Zn758 O770 2.114 . S
Zn758 O773 2.080 . S
C759 O764 1.166 . S
C759 O765 1.182 . S
C760 O766 1.167 . S
C760 O767 1.299 . S
O761 Zn758 2.080 . S
O761 C775 1.305 . S
O762 Zn756 1.920 . S
O762 C775 1.234 . S
C763 O768 1.167 . S
C763 O769 1.299 . S
O764 Zn758 2.114 . S
O764 C759 1.166 . S
O765 Zn757 1.905 . S
O765 C759 1.182 . S
O766 Zn757 1.898 . S
O766 C760 1.167 . S
O767 Zn758 2.120 . S
O767 C760 1.299 . S
O768 Zn756 1.898 . S
O768 C763 1.167 . S
O769 Zn758 2.120 . S
O769 C763 1.299 . S
O770 Zn758 2.114 . S
O770 C772 1.166 . S
O771 Zn756 1.905 . S
O771 C772 1.182 . S
C772 O770 1.166 . S
C772 O771 1.182 . S
O773 Zn758 2.080 . S
O773 C776 1.305 . S
O774 Zn757 1.920 . S
O774 C776 1.234 . S
C775 O761 1.305 . S
C775 O762 1.234 . S
C776 O773 1.305 . S
C776 O774 1.234 . S
Zn777 O783 1.920 . S
Zn777 O789 1.898 . S
Zn777 O792 1.905 . S
Zn778 O786 1.905 . S
Zn778 O787 1.898 . S
Zn778 O795 1.920 . S
Zn779 O782 2.080 . S
Zn779 O785 2.114 . S
Zn779 O788 2.120 . S
Zn779 O790 2.120 . S
Zn779 O791 2.114 . S
Zn779 O794 2.080 . S
C780 O785 1.166 . S
C780 O786 1.182 . S
C781 O787 1.167 . S
C781 O788 1.299 . S
O782 Zn779 2.080 . S
O782 C796 1.305 . S
O783 Zn777 1.920 . S
O783 C796 1.234 . S
C784 O789 1.167 . S
C784 O790 1.299 . S
O785 Zn779 2.114 . S
O785 C780 1.166 . S
O786 Zn778 1.905 . S
O786 C780 1.182 . S
O787 Zn778 1.898 . S
O787 C781 1.167 . S
O788 Zn779 2.120 . S
O788 C781 1.299 . S
O789 Zn777 1.898 . S
O789 C784 1.167 . S
O790 Zn779 2.120 . S
O790 C784 1.299 . S
O791 Zn779 2.114 . S
O791 C793 1.166 . S
O792 Zn777 1.905 . S
O792 C793 1.182 . S
C793 O791 1.166 . S
C793 O792 1.182 . S
O794 Zn779 2.080 . S
O794 C797 1.305 . S
O795 Zn778 1.920 . S
O795 C797 1.234 . S
C796 O782 1.305 . S
C796 O783 1.234 . S
C797 O794 1.305 . S
C797 O795 1.234 . S
Zn798 O804 1.920 . S
Zn798 O810 1.898 . S
Zn798 O813 1.905 . S
Zn799 O807 1.905 . S
Zn799 O808 1.898 . S
Zn799 O816 1.920 . S
Zn800 O803 2.080 . S
Zn800 O806 2.114 . S
Zn800 O809 2.120 . S
Zn800 O811 2.120 . S
Zn800 O812 2.114 . S
Zn800 O815 2.080 . S
C801 O806 1.166 . S
C801 O807 1.182 . S
C802 O808 1.167 . S
C802 O809 1.299 . S
O803 Zn800 2.080 . S
O803 C817 1.305 . S
O804 Zn798 1.920 . S
O804 C817 1.234 . S
C805 O810 1.167 . S
C805 O811 1.299 . S
O806 Zn800 2.114 . S
O806 C801 1.166 . S
O807 Zn799 1.905 . S
O807 C801 1.182 . S
O808 Zn799 1.898 . S
O808 C802 1.167 . S
O809 Zn800 2.120 . S
O809 C802 1.299 . S
O810 Zn798 1.898 . S
O810 C805 1.167 . S
O811 Zn800 2.120 . S
O811 C805 1.299 . S
O812 Zn800 2.114 . S
O812 C814 1.166 . S
O813 Zn798 1.905 . S
O813 C814 1.182 . S
C814 O812 1.166 . S
C814 O813 1.182 . S
O815 Zn800 2.080 . S
O815 C818 1.305 . S
O816 Zn799 1.920 . S
O816 C818 1.234 . S
C817 O803 1.305 . S
C817 O804 1.234 . S
C818 O815 1.305 . S
C818 O816 1.234 . S
Zn819 O825 1.920 . S
Zn819 O831 1.898 . S
Zn819 O834 1.905 . S
Zn820 O828 1.905 . S
Zn820 O829 1.898 . S
Zn820 O837 1.920 . S
Zn821 O824 2.080 . S
Zn821 O827 2.114 . S
Zn821 O830 2.120 . S
Zn821 O832 2.120 . S
Zn821 O833 2.114 . S
Zn821 O836 2.080 . S
C822 O827 1.166 . S
C822 O828 1.182 . S
C823 O829 1.167 . S
C823 O830 1.299 . S
O824 Zn821 2.080 . S
O824 C838 1.305 . S
O825 Zn819 1.920 . S
O825 C838 1.234 . S
C826 O831 1.167 . S
C826 O832 1.299 . S
O827 Zn821 2.114 . S
O827 C822 1.166 . S
O828 Zn820 1.905 . S
O828 C822 1.182 . S
O829 Zn820 1.898 . S
O829 C823 1.167 . S
O830 Zn821 2.120 . S
O830 C823 1.299 . S
O831 Zn819 1.898 . S
O831 C826 1.167 . S
O832 Zn821 2.120 . S
O832 C826 1.299 . S
O833 Zn821 2.114 . S
O833 C835 1.166 . S
O834 Zn819 1.905 . S
O834 C835 1.182 . S
C835 O833 1.166 . S
C835 O834 1.182 . S
O836 Zn821 2.080 . S
O836 C839 1.305 . S
O837 Zn820 1.920 . S
O837 C839 1.234 . S
C838 O824 1.305 . S
C838 O825 1.234 . S
C839 O836 1.305 . S
C839 O837 1.234 . S
Zn840 O846 1.920 . S
Zn840 O852 1.898 . S
Zn840 O855 1.905 . S
Zn841 O849 1.905 . S
Zn841 O850 1.898 . S
Zn841 O858 1.920 . S
Zn842 O845 2.080 . S
Zn842 O848 2.114 . S
Zn842 O851 2.120 . S
Zn842 O853 2.120 . S
Zn842 O854 2.114 . S
Zn842 O857 2.080 . S
C843 O848 1.166 . S
C843 O849 1.182 . S
C844 O850 1.167 . S
C844 O851 1.299 . S
O845 Zn842 2.080 . S
O845 C859 1.305 . S
O846 Zn840 1.920 . S
O846 C859 1.234 . S
C847 O852 1.167 . S
C847 O853 1.299 . S
O848 Zn842 2.114 . S
O848 C843 1.166 . S
O849 Zn841 1.905 . S
O849 C843 1.182 . S
O850 Zn841 1.898 . S
O850 C844 1.167 . S
O851 Zn842 2.120 . S
O851 C844 1.299 . S
O852 Zn840 1.898 . S
O852 C847 1.167 . S
O853 Zn842 2.120 . S
O853 C847 1.299 . S
O854 Zn842 2.114 . S
O854 C856 1.166 . S
O855 Zn840 1.905 . S
O855 C856 1.182 . S
C856 O854 1.166 . S
C856 O855 1.182 . S
O857 Zn842 2.080 . S
O857 C860 1.305 . S
O858 Zn841 1.920 . S
O858 C860 1.234 . S
C859 O845 1.305 . S
C859 O846 1.234 . S
C860 O857 1.305 . S
C860 O858 1.234 . S
Zn861 O867 1.920 . S
Zn861 O873 1.898 . S
Zn861 O876 1.905 . S
Zn862 O870 1.905 . S
Zn862 O871 1.898 . S
Zn862 O879 1.920 . S
Zn863 O866 2.080 . S
Zn863 O869 2.114 . S
Zn863 O872 2.120 . S
Zn863 O874 2.120 . S
Zn863 O875 2.114 . S
Zn863 O878 2.080 . S
C864 O869 1.166 . S
C864 O870 1.182 . S
C865 O871 1.167 . S
C865 O872 1.299 . S
O866 Zn863 2.080 . S
O866 C880 1.305 . S
O867 Zn861 1.920 . S
O867 C880 1.234 . S
C868 O873 1.167 . S
C868 O874 1.299 . S
O869 Zn863 2.114 . S
O869 C864 1.166 . S
O870 Zn862 1.905 . S
O870 C864 1.182 . S
O871 Zn862 1.898 . S
O871 C865 1.167 . S
O872 Zn863 2.120 . S
O872 C865 1.299 . S
O873 Zn861 1.898 . S
O873 C868 1.167 . S
O874 Zn863 2.120 . S
O874 C868 1.299 . S
O875 Zn863 2.114 . S
O875 C877 1.166 . S
O876 Zn861 1.905 . S
O876 C877 1.182 . S
C877 O875 1.166 . S
C877 O876 1.182 . S
O878 Zn863 2.080 . S
O878 C881 1.305 . S
O879 Zn862 1.920 . S
O879 C881 1.234 . S
C880 O866 1.305 . S
C880 O867 1.234 . S
C881 O878 1.305 . S
C881 O879 1.234 . S
Zn882 O888 1.920 . S
Zn882 O894 1.898 . S
Zn882 O897 1.905 . S
Zn883 O891 1.905 . S
Zn883 O892 1.898 . S
Zn883 O900 1.920 . S
Zn884 O887 2.080 . S
Zn884 O890 2.114 . S
Zn884 O893 2.120 . S
Zn884 O895 2.120 . S
Zn884 O896 2.114 . S
Zn884 O899 2.080 . S
C885 O890 1.166 . S
C885 O891 1.182 . S
C886 O892 1.167 . S
C886 O893 1.299 . S
O887 Zn884 2.080 . S
O887 C901 1.305 . S
O888 Zn882 1.920 . S
O888 C901 1.234 . S
C889 O894 1.167 . S
C889 O895 1.299 . S
O890 Zn884 2.114 . S
O890 C885 1.166 . S
O891 Zn883 1.905 . S
O891 C885 1.182 . S
O892 Zn883 1.898 . S
O892 C886 1.167 . S
O893 Zn884 2.120 . S
O893 C886 1.299 . S
O894 Zn882 1.898 . S
O894 C889 1.167 . S
O895 Zn884 2.120 . S
O895 C889 1.299 . S
O896 Zn884 2.114 . S
O896 C898 1.166 . S
O897 Zn882 1.905 . S
O897 C898 1.182 . S
C898 O896 1.166 . S
C898 O897 1.182 . S
O899 Zn884 2.080 . S
O899 C902 1.305 . S
O900 Zn883 1.920 . S
O900 C902 1.234 . S
C901 O887 1.305 . S
C901 O888 1.234 . S
C902 O899 1.305 . S
C902 O900 1.234 . S
Zn903 O909 1.920 . S
Zn903 O915 1.898 . S
Zn903 O918 1.905 . S
Zn904 O912 1.905 . S
Zn904 O913 1.898 . S
Zn904 O921 1.920 . S
Zn905 O908 2.080 . S
Zn905 O911 2.114 . S
Zn905 O914 2.120 . S
Zn905 O916 2.120 . S
Zn905 O917 2.114 . S
Zn905 O920 2.080 . S
C906 O911 1.166 . S
C906 O912 1.182 . S
C907 O913 1.167 . S
C907 O914 1.299 . S
O908 Zn905 2.080 . S
O908 C922 1.305 . S
O909 Zn903 1.920 . S
O909 C922 1.234 . S
C910 O915 1.167 . S
C910 O916 1.299 . S
O911 Zn905 2.114 . S
O911 C906 1.166 . S
O912 Zn904 1.905 . S
O912 C906 1.182 . S
O913 Zn904 1.898 . S
O913 C907 1.167 . S
O914 Zn905 2.120 . S
O914 C907 1.299 . S
O915 Zn903 1.898 . S
O915 C910 1.167 . S
O916 Zn905 2.120 . S
O916 C910 1.299 . S
O917 Zn905 2.114 . S
O917 C919 1.166 . S
O918 Zn903 1.905 . S
O918 C919 1.182 . S
C919 O917 1.166 . S
C919 O918 1.182 . S
O920 Zn905 2.080 . S
O920 C923 1.305 . S
O921 Zn904 1.920 . S
O921 C923 1.234 . S
C922 O908 1.305 . S
C922 O909 1.234 . S
C923 O920 1.305 . S
C923 O921 1.234 . S
Zn924 O930 1.920 . S
Zn924 O936 1.898 . S
Zn924 O939 1.905 . S
Zn925 O933 1.905 . S
Zn925 O934 1.898 . S
Zn925 O942 1.920 . S
Zn926 O929 2.080 . S
Zn926 O932 2.114 . S
Zn926 O935 2.120 . S
Zn926 O937 2.120 . S
Zn926 O938 2.114 . S
Zn926 O941 2.080 . S
C927 O932 1.166 . S
C927 O933 1.182 . S
C928 O934 1.167 . S
C928 O935 1.299 . S
O929 Zn926 2.080 . S
O929 C943 1.305 . S
O930 Zn924 1.920 . S
O930 C943 1.234 . S
C931 O936 1.167 . S
C931 O937 1.299 . S
O932 Zn926 2.114 . S
O932 C927 1.166 . S
O933 Zn925 1.905 . S
O933 C927 1.182 . S
O934 Zn925 1.898 . S
O934 C928 1.167 . S
O935 Zn926 2.120 . S
O935 C928 1.299 . S
O936 Zn924 1.898 . S
O936 C931 1.167 . S
O937 Zn926 2.120 . S
O937 C931 1.299 . S
O938 Zn926 2.114 . S
O938 C940 1.166 . S
O939 Zn924 1.905 . S
O939 C940 1.182 . S
C940 O938 1.166 . S
C940 O939 1.182 . S
O941 Zn926 2.080 . S
O941 C944 1.305 . S
O942 Zn925 1.920 . S
O942 C944 1.234 . S
C943 O929 1.305 . S
C943 O930 1.234 . S
C944 O941 1.305 . S
C944 O942 1.234 . S
Zn945 O951 1.920 . S
Zn945 O957 1.898 . S
Zn945 O960 1.905 . S
Zn946 O954 1.905 . S
Zn946 O955 1.898 . S
Zn946 O963 1.920 . S
Zn947 O950 2.080 . S
Zn947 O953 2.114 . S
Zn947 O956 2.120 . S
Zn947 O958 2.120 . S
Zn947 O959 2.114 . S
Zn947 O962 2.080 . S
C948 O953 1.166 . S
C948 O954 1.182 . S
C949 O955 1.167 . S
C949 O956 1.299 . S
O950 Zn947 2.080 . S
O950 C964 1.305 . S
O951 Zn945 1.920 . S
O951 C964 1.234 . S
C952 O957 1.167 . S
C952 O958 1.299 . S
O953 Zn947 2.114 . S
O953 C948 1.166 . S
O954 Zn946 1.905 . S
O954 C948 1.182 . S
O955 Zn946 1.898 . S
O955 C949 1.167 . S
O956 Zn947 2.120 . S
O956 C949 1.299 . S
O957 Zn945 1.898 . S
O957 C952 1.167 . S
O958 Zn947 2.120 . S
O958 C952 1.299 . S
O959 Zn947 2.114 . S
O959 C961 1.166 . S
O960 Zn945 1.905 . S
O960 C961 1.182 . S
C961 O959 1.166 . S
C961 O960 1.182 . S
O962 Zn947 2.080 . S
O962 C965 1.305 . S
O963 Zn946 1.920 . S
O963 C965 1.234 . S
C964 O950 1.305 . S
C964 O951 1.234 . S
C965 O962 1.305 . S
C965 O963 1.234 . S
Zn966 O972 1.920 . S
Zn966 O978 1.898 . S
Zn966 O981 1.905 . S
Zn967 O975 1.905 . S
Zn967 O976 1.898 . S
Zn967 O984 1.920 . S
Zn968 O971 2.080 . S
Zn968 O974 2.114 . S
Zn968 O977 2.120 . S
Zn968 O979 2.120 . S
Zn968 O980 2.114 . S
Zn968 O983 2.080 . S
C969 O974 1.166 . S
C969 O975 1.182 . S
C970 O976 1.167 . S
C970 O977 1.299 . S
O971 Zn968 2.080 . S
O971 C985 1.305 . S
O972 Zn966 1.920 . S
O972 C985 1.234 . S
C973 O978 1.167 . S
C973 O979 1.299 . S
O974 Zn968 2.114 . S
O974 C969 1.166 . S
O975 Zn967 1.905 . S
O975 C969 1.182 . S
O976 Zn967 1.898 . S
O976 C970 1.167 . S
O977 Zn968 2.120 . S
O977 C970 1.299 . S
O978 Zn966 1.898 . S
O978 C973 1.167 . S
O979 Zn968 2.120 . S
O979 C973 1.299 . S
O980 Zn968 2.114 . S
O980 C982 1.166 . S
O981 Zn966 1.905 . S
O981 C982 1.182 . S
C982 O980 1.166 . S
C982 O981 1.182 . S
O983 Zn968 2.080 . S
O983 C986 1.305 . S
O984 Zn967 1.920 . S
O984 C986 1.234 . S
C985 O971 1.305 . S
C985 O972 1.234 . S
C986 O983 1.305 . S
C986 O984 1.234 . S
Zn987 O993 1.920 . S
Zn987 O999 1.898 . S
Zn987 O1002 1.905 . S
Zn988 O996 1.905 . S
Zn988 O997 1.898 . S
Zn988 O1005 1.920 . S
Zn989 O992 2.080 . S
Zn989 O995 2.114 . S
Zn989 O998 2.120 . S
Zn989 O1000 2.120 . S
Zn989 O1001 2.114 . S
Zn989 O1004 2.080 . S
C990 O995 1.166 . S
C990 O996 1.182 . S
C991 O997 1.167 . S
C991 O998 1.299 . S
O992 Zn989 2.080 . S
O992 C1006 1.305 . S
O993 Zn987 1.920 . S
O993 C1006 1.234 . S
C994 O999 1.167 . S
C994 O1000 1.299 . S
O995 Zn989 2.114 . S
O995 C990 1.166 . S
O996 Zn988 1.905 . S
O996 C990 1.182 . S
O997 Zn988 1.898 . S
O997 C991 1.167 . S
O998 Zn989 2.120 . S
O998 C991 1.299 . S
O999 Zn987 1.898 . S
O999 C994 1.167 . S
O1000 Zn989 2.120 . S
O1000 C994 1.299 . S
O1001 Zn989 2.114 . S
O1001 C1003 1.166 . S
O1002 Zn987 1.905 . S
O1002 C1003 1.182 . S
C1003 O1001 1.166 . S
C1003 O1002 1.182 . S
O1004 Zn989 2.080 . S
O1004 C1007 1.305 . S
O1005 Zn988 1.920 . S
O1005 C1007 1.234 . S
C1006 O992 1.305 . S
C1006 O993 1.234 . S
C1007 O1004 1.305 . S
C1007 O1005 1.234 . S
H1008 C1016 0.950 . S
H1009 C1021 0.950 . S
H1010 C1018 0.950 . S
H1011 C1020 0.950 . S
H1012 C1022 0.950 . S
H1013 C1024 0.950 . S
H1014 C1026 0.950 . S
H1015 C1027 0.950 . S
C1016 H1008 0.950 . S
C1016 C1017 1.386 1_655 S
C1016 C1018 1.391 . S
C1017 C1016 1.386 1_455 S
C1017 C1021 1.393 . S
C1018 H1010 0.950 . S
C1018 C1016 1.391 . S
C1018 C1019 1.400 1_655 S
C1019 C1018 1.400 1_455 S
C1019 C1020 1.398 . S
C1019 C1025 1.491 . S
C1020 H1011 0.950 . S
C1020 C1019 1.398 . S
C1020 C1021 1.391 . S
C1021 H1009 0.950 . S
C1021 C1017 1.393 . S
C1021 C1020 1.391 . S
C1022 H1012 0.950 . S
C1022 C1023 1.386 . S
C1022 C1024 1.391 . S
C1023 C1022 1.386 . S
C1023 C1027 1.393 1_455 S
C1024 H1013 0.950 . S
C1024 C1022 1.391 . S
C1024 C1025 1.400 . S
C1025 C1019 1.491 . S
C1025 C1024 1.400 . S
C1025 C1026 1.398 1_455 S
C1026 H1014 0.950 . S
C1026 C1025 1.398 1_655 S
C1026 C1027 1.391 . S
C1027 H1015 0.950 . S
C1027 C1023 1.393 1_655 S
C1027 C1026 1.391 . S
H1028 C1036 0.950 . S
H1029 C1041 0.950 . S
H1030 C1038 0.950 . S
H1031 C1040 0.950 . S
H1032 C1042 0.950 . S
H1033 C1044 0.950 . S
H1034 C1046 0.942 1_565 S
H1035 C1047 0.950 1_565 S
C1036 H1028 0.950 . S
C1036 C1037 1.386 . S
C1036 C1038 1.391 . S
C1037 C1036 1.386 . S
C1037 C1041 1.393 . S
C1038 H1030 0.950 . S
C1038 C1036 1.391 . S
C1038 C1039 1.400 . S
C1039 C1038 1.400 . S
C1039 C1040 1.398 . S
C1039 C1045 1.491 . S
C1040 H1031 0.950 . S
C1040 C1039 1.398 . S
C1040 C1041 1.391 . S
C1041 H1029 0.950 . S
C1041 C1037 1.393 . S
C1041 C1040 1.391 . S
C1042 H1032 0.950 . S
C1042 C1043 1.386 . S
C1042 C1044 1.391 . S
C1043 C1042 1.386 . S
C1043 C1047 1.393 . S
C1044 H1033 0.950 . S
C1044 C1042 1.391 . S
C1044 C1045 1.400 . S
C1045 C1039 1.491 . S
C1045 C1044 1.400 . S
C1045 C1046 1.398 . S
C1046 H1034 0.942 1_545 S
C1046 C1045 1.398 . S
C1046 C1047 1.391 . S
C1047 H1035 0.950 1_545 S
C1047 C1043 1.393 . S
C1047 C1046 1.391 . S
H1048 C1056 0.950 . S
H1049 C1061 0.950 . S
H1050 C1058 0.950 . S
H1051 C1060 0.950 . S
H1052 C1062 0.950 . S
H1053 C1064 0.950 . S
H1054 C1066 0.950 . S
H1055 C1067 0.950 . S
C1056 H1048 0.950 . S
C1056 C1057 1.386 . S
C1056 C1058 1.391 . S
C1057 C1056 1.386 . S
C1057 C1061 1.393 . S
C1058 H1050 0.950 . S
C1058 C1056 1.391 . S
C1058 C1059 1.400 . S
C1059 C1058 1.400 . S
C1059 C1060 1.398 . S
C1059 C1065 1.491 . S
C1060 H1051 0.950 . S
C1060 C1059 1.398 . S
C1060 C1061 1.391 . S
C1061 H1049 0.950 . S
C1061 C1057 1.393 . S
C1061 C1060 1.391 . S
C1062 H1052 0.950 . S
C1062 C1063 1.386 . S
C1062 C1064 1.391 . S
C1063 C1062 1.386 . S
C1063 C1067 1.393 . S
C1064 H1053 0.950 . S
C1064 C1062 1.391 . S
C1064 C1065 1.400 . S
C1065 C1059 1.491 . S
C1065 C1064 1.400 . S
C1065 C1066 1.398 . S
C1066 H1054 0.950 . S
C1066 C1065 1.398 . S
C1066 C1067 1.391 . S
C1067 H1055 0.950 . S
C1067 C1063 1.393 . S
C1067 C1066 1.391 . S
H1068 C1076 0.950 1_565 S
H1069 C1081 0.950 . S
H1070 C1078 0.949 . S
H1071 C1080 0.950 . S
H1072 C1082 0.950 . S
H1073 C1084 0.950 . S
H1074 C1086 0.945 1_565 S
H1075 C1087 0.950 . S
C1076 H1068 0.950 1_545 S
C1076 C1077 1.386 . S
C1076 C1078 1.391 . S
C1077 C1076 1.386 . S
C1077 C1081 1.393 . S
C1078 H1070 0.949 . S
C1078 C1076 1.391 . S
C1078 C1079 1.400 . S
C1079 C1078 1.400 . S
C1079 C1080 1.398 . S
C1079 C1085 1.491 . S
C1080 H1071 0.950 . S
C1080 C1079 1.398 . S
C1080 C1081 1.391 . S
C1081 H1069 0.950 . S
C1081 C1077 1.393 . S
C1081 C1080 1.391 . S
C1082 H1072 0.950 . S
C1082 C1083 1.386 . S
C1082 C1084 1.391 . S
C1083 C1082 1.386 . S
C1083 C1087 1.393 . S
C1084 H1073 0.950 . S
C1084 C1082 1.391 . S
C1084 C1085 1.400 . S
C1085 C1079 1.491 . S
C1085 C1084 1.400 . S
C1085 C1086 1.398 . S
C1086 H1074 0.945 1_545 S
C1086 C1085 1.398 . S
C1086 C1087 1.391 . S
C1087 H1075 0.950 . S
C1087 C1083 1.393 . S
C1087 C1086 1.391 . S
H1088 C1096 0.950 . S
H1089 C1101 0.950 . S
H1090 C1098 0.950 . S
H1091 C1100 0.950 . S
H1092 C1102 0.950 . S
H1093 C1104 0.950 . S
H1094 C1106 0.950 . S
H1095 C1107 0.950 . S
C1096 H1088 0.950 . S
C1096 C1097 1.386 1_565 S
C1096 C1098 1.391 . S
C1097 C1096 1.386 1_545 S
C1097 C1101 1.393 . S
C1098 H1090 0.950 . S
C1098 C1096 1.391 . S
C1098 C1099 1.400 1_565 S
C1099 C1098 1.400 1_545 S
C1099 C1100 1.398 . S
C1099 C1105 1.491 . S
C1100 H1091 0.950 . S
C1100 C1099 1.398 . S
C1100 C1101 1.391 . S
C1101 H1089 0.950 . S
C1101 C1097 1.393 . S
C1101 C1100 1.391 . S
C1102 H1092 0.950 . S
C1102 C1103 1.386 . S
C1102 C1104 1.391 . S
C1103 C1102 1.386 . S
C1103 C1107 1.393 1_545 S
C1104 H1093 0.950 . S
C1104 C1102 1.391 . S
C1104 C1105 1.400 . S
C1105 C1099 1.491 . S
C1105 C1104 1.400 . S
C1105 C1106 1.398 1_545 S
C1106 H1094 0.950 . S
C1106 C1105 1.398 1_565 S
C1106 C1107 1.391 . S
C1107 H1095 0.950 . S
C1107 C1103 1.393 1_565 S
C1107 C1106 1.391 . S
H1108 C1116 0.950 . S
H1109 C1121 0.950 . S
H1110 C1118 0.950 . S
H1111 C1120 0.950 . S
H1112 C1122 0.950 . S
H1113 C1124 0.950 . S
H1114 C1126 0.950 . S
H1115 C1127 0.950 . S
C1116 H1108 0.950 . S
C1116 C1117 1.386 1_655 S
C1116 C1118 1.391 . S
C1117 C1116 1.386 1_455 S
C1117 C1121 1.393 . S
C1118 H1110 0.950 . S
C1118 C1116 1.391 . S
C1118 C1119 1.400 1_655 S
C1119 C1118 1.400 1_455 S
C1119 C1120 1.398 . S
C1119 C1125 1.491 . S
C1120 H1111 0.950 . S
C1120 C1119 1.398 . S
C1120 C1121 1.391 . S
C1121 H1109 0.950 . S
C1121 C1117 1.393 . S
C1121 C1120 1.391 . S
C1122 H1112 0.950 . S
C1122 C1123 1.386 . S
C1122 C1124 1.391 . S
C1123 C1122 1.386 . S
C1123 C1127 1.393 1_455 S
C1124 H1113 0.950 . S
C1124 C1122 1.391 . S
C1124 C1125 1.400 . S
C1125 C1119 1.491 . S
C1125 C1124 1.400 . S
C1125 C1126 1.398 1_455 S
C1126 H1114 0.950 . S
C1126 C1125 1.398 1_655 S
C1126 C1127 1.391 . S
C1127 H1115 0.950 . S
C1127 C1123 1.393 1_655 S
C1127 C1126 1.391 . S
H1128 C1136 0.950 . S
H1129 C1141 0.950 . S
H1130 C1138 0.950 . S
H1131 C1140 0.950 . S
H1132 C1142 0.957 . S
H1133 C1144 0.950 . S
H1134 C1146 0.950 . S
H1135 C1147 0.950 . S
C1136 H1128 0.950 . S
C1136 C1137 1.386 . S
C1136 C1138 1.391 . S
C1137 C1136 1.386 . S
C1137 C1141 1.393 1_545 S
C1138 H1130 0.950 . S
C1138 C1136 1.391 . S
C1138 C1139 1.400 . S
C1139 C1138 1.400 . S
C1139 C1140 1.398 1_545 S
C1139 C1145 1.491 . S
C1140 H1131 0.950 . S
C1140 C1139 1.398 1_565 S
C1140 C1141 1.391 . S
C1141 H1129 0.950 . S
C1141 C1137 1.393 1_565 S
C1141 C1140 1.391 . S
C1142 H1132 0.957 . S
C1142 C1143 1.378 1_565 S
C1142 C1144 1.392 . S
C1143 C1142 1.378 1_545 S
C1143 C1147 1.393 . S
C1144 H1133 0.950 . S
C1144 C1142 1.392 . S
C1144 C1145 1.400 1_565 S
C1145 C1139 1.491 . S
C1145 C1144 1.400 1_545 S
C1145 C1146 1.398 . S
C1146 H1134 0.950 . S
C1146 C1145 1.398 . S
C1146 C1147 1.391 . S
C1147 H1135 0.950 . S
C1147 C1143 1.393 . S
C1147 C1146 1.391 . S
H1148 C1156 0.950 . S
H1149 C1161 0.950 . S
H1150 C1158 0.950 . S
H1151 C1160 0.950 . S
H1152 C1162 0.950 . S
H1153 C1164 0.950 . S
H1154 C1166 0.950 . S
H1155 C1167 0.950 . S
C1156 H1148 0.950 . S
C1156 C1157 1.386 . S
C1156 C1158 1.391 . S
C1157 C1156 1.386 . S
C1157 C1161 1.393 1_455 S
C1158 H1150 0.950 . S
C1158 C1156 1.391 . S
C1158 C1159 1.400 . S
C1159 C1158 1.400 . S
C1159 C1160 1.398 1_455 S
C1159 C1165 1.491 . S
C1160 H1151 0.950 . S
C1160 C1159 1.398 1_655 S
C1160 C1161 1.391 . S
C1161 H1149 0.950 . S
C1161 C1157 1.393 1_655 S
C1161 C1160 1.391 . S
C1162 H1152 0.950 . S
C1162 C1163 1.386 1_655 S
C1162 C1164 1.391 . S
C1163 C1162 1.386 1_455 S
C1163 C1167 1.393 . S
C1164 H1153 0.950 . S
C1164 C1162 1.391 . S
C1164 C1165 1.400 1_655 S
C1165 C1159 1.491 . S
C1165 C1164 1.400 1_455 S
C1165 C1166 1.398 . S
C1166 H1154 0.950 . S
C1166 C1165 1.398 . S
C1166 C1167 1.391 . S
C1167 H1155 0.950 . S
C1167 C1163 1.393 . S
C1167 C1166 1.391 . S
H1168 C1176 0.950 . S
H1169 C1181 0.950 . S
H1170 C1178 0.950 . S
H1171 C1180 0.950 . S
H1172 C1182 0.950 . S
H1173 C1184 0.950 . S
H1174 C1186 0.950 . S
H1175 C1187 0.950 . S
C1176 H1168 0.950 . S
C1176 C1177 1.386 1_556 S
C1176 C1178 1.391 . S
C1177 C1176 1.386 1_554 S
C1177 C1181 1.393 . S
C1178 H1170 0.950 . S
C1178 C1176 1.391 . S
C1178 C1179 1.400 1_556 S
C1179 C1178 1.400 1_554 S
C1179 C1180 1.398 . S
C1179 C1185 1.491 . S
C1180 H1171 0.950 . S
C1180 C1179 1.398 . S
C1180 C1181 1.391 . S
C1181 H1169 0.950 . S
C1181 C1177 1.393 . S
C1181 C1180 1.391 . S
C1182 H1172 0.950 . S
C1182 C1183 1.386 . S
C1182 C1184 1.391 . S
C1183 C1182 1.386 . S
C1183 C1187 1.393 1_554 S
C1184 H1173 0.950 . S
C1184 C1182 1.391 . S
C1184 C1185 1.400 . S
C1185 C1179 1.491 . S
C1185 C1184 1.400 . S
C1185 C1186 1.398 1_554 S
C1186 H1174 0.950 . S
C1186 C1185 1.398 1_556 S
C1186 C1187 1.391 . S
C1187 H1175 0.950 . S
C1187 C1183 1.393 1_556 S
C1187 C1186 1.391 . S
H1188 C1196 0.950 . S
H1189 C1201 0.950 . S
H1190 C1198 0.950 . S
H1191 C1200 0.950 . S
H1192 C1202 0.950 . S
H1193 C1204 0.950 . S
H1194 C1206 0.974 . S
H1195 C1207 0.935 1_556 S
C1196 H1188 0.950 . S
C1196 C1197 1.386 1_556 S
C1196 C1198 1.391 . S
C1197 C1196 1.386 1_554 S
C1197 C1201 1.393 . S
C1198 H1190 0.950 . S
C1198 C1196 1.391 . S
C1198 C1199 1.400 1_556 S
C1199 C1198 1.400 1_554 S
C1199 C1200 1.398 . S
C1199 C1205 1.491 . S
C1200 H1191 0.950 . S
C1200 C1199 1.398 . S
C1200 C1201 1.391 . S
C1201 H1189 0.950 . S
C1201 C1197 1.393 . S
C1201 C1200 1.391 . S
C1202 H1192 0.950 . S
C1202 C1203 1.386 . S
C1202 C1204 1.391 . S
C1203 C1202 1.386 . S
C1203 C1207 1.410 . S
C1204 H1193 0.950 . S
C1204 C1202 1.391 . S
C1204 C1205 1.400 . S
C1205 C1199 1.491 . S
C1205 C1204 1.400 . S
C1205 C1206 1.379 1_554 S
C1206 H1194 0.974 . S
C1206 C1205 1.379 1_556 S
C1206 C1207 1.388 1_556 S
C1207 H1195 0.935 1_554 S
C1207 C1203 1.410 . S
C1207 C1206 1.388 1_554 S
H1208 C1216 0.950 . S
H1209 C1221 0.950 . S
H1210 C1218 0.950 . S
H1211 C1220 0.950 . S
H1212 C1222 0.950 . S
H1213 C1224 0.950 . S
H1214 C1226 0.950 . S
H1215 C1227 0.950 . S
C1216 H1208 0.950 . S
C1216 C1217 1.386 1_556 S
C1216 C1218 1.391 . S
C1217 C1216 1.386 1_554 S
C1217 C1221 1.393 . S
C1218 H1210 0.950 . S
C1218 C1216 1.391 . S
C1218 C1219 1.400 1_556 S
C1219 C1218 1.400 1_554 S
C1219 C1220 1.398 . S
C1219 C1225 1.491 . S
C1220 H1211 0.950 . S
C1220 C1219 1.398 . S
C1220 C1221 1.391 . S
C1221 H1209 0.950 . S
C1221 C1217 1.393 . S
C1221 C1220 1.391 . S
C1222 H1212 0.950 . S
C1222 C1223 1.386 . S
C1222 C1224 1.391 . S
C1223 C1222 1.386 . S
C1223 C1227 1.393 1_554 S
C1224 H1213 0.950 . S
C1224 C1222 1.391 . S
C1224 C1225 1.400 . S
C1225 C1219 1.491 . S
C1225 C1224 1.400 . S
C1225 C1226 1.398 1_554 S
C1226 H1214 0.950 . S
C1226 C1225 1.398 1_556 S
C1226 C1227 1.391 . S
C1227 H1215 0.950 . S
C1227 C1223 1.393 1_556 S
C1227 C1226 1.391 . S
H1228 C1236 0.950 . S
H1229 C1241 0.950 . S
H1230 C1238 0.950 . S
H1231 C1240 0.950 . S
H1232 C1242 0.950 . S
H1233 C1244 0.950 . S
H1234 C1246 0.950 . S
H1235 C1247 0.950 . S
C1236 H1228 0.950 . S
C1236 C1237 1.386 . S
C1236 C1238 1.391 . S
C1237 C1236 1.386 . S
C1237 C1241 1.393 . S
C1238 H1230 0.950 . S
C1238 C1236 1.391 . S
C1238 C1239 1.400 . S
C1239 C1238 1.400 . S
C1239 C1240 1.398 . S
C1239 C1245 1.491 . S
C1240 H1231 0.950 . S
C1240 C1239 1.398 . S
C1240 C1241 1.391 . S
C1241 H1229 0.950 . S
C1241 C1237 1.393 . S
C1241 C1240 1.391 . S
C1242 H1232 0.950 . S
C1242 C1243 1.386 . S
C1242 C1244 1.391 . S
C1243 C1242 1.386 . S
C1243 C1247 1.393 . S
C1244 H1233 0.950 . S
C1244 C1242 1.391 . S
C1244 C1245 1.400 . S
C1245 C1239 1.491 . S
C1245 C1244 1.400 . S
C1245 C1246 1.398 . S
C1246 H1234 0.950 . S
C1246 C1245 1.398 . S
C1246 C1247 1.391 . S
C1247 H1235 0.950 . S
C1247 C1243 1.393 . S
C1247 C1246 1.391 . S
H1248 C1256 0.950 . S
H1249 C1261 0.950 . S
H1250 C1258 0.950 . S
H1251 C1260 0.950 . S
H1252 C1262 0.950 . S
H1253 C1264 0.950 . S
H1254 C1266 0.950 . S
H1255 C1267 0.950 . S
C1256 H1248 0.950 . S
C1256 C1257 1.386 . S
C1256 C1258 1.391 . S
C1257 C1256 1.386 . S
C1257 C1261 1.393 . S
C1258 H1250 0.950 . S
C1258 C1256 1.391 . S
C1258 C1259 1.400 . S
C1259 C1258 1.400 . S
C1259 C1260 1.398 . S
C1259 C1265 1.491 1_556 S
C1260 H1251 0.950 . S
C1260 C1259 1.398 . S
C1260 C1261 1.391 . S
C1261 H1249 0.950 . S
C1261 C1257 1.393 . S
C1261 C1260 1.391 . S
C1262 H1252 0.950 . S
C1262 C1263 1.386 . S
C1262 C1264 1.391 . S
C1263 C1262 1.386 . S
C1263 C1267 1.393 . S
C1264 H1253 0.950 . S
C1264 C1262 1.391 . S
C1264 C1265 1.400 . S
C1265 C1259 1.491 1_554 S
C1265 C1264 1.400 . S
C1265 C1266 1.398 . S
C1266 H1254 0.950 . S
C1266 C1265 1.398 . S
C1266 C1267 1.391 . S
C1267 H1255 0.950 . S
C1267 C1263 1.393 . S
C1267 C1266 1.391 . S
H1268 C1276 0.950 . S
H1269 C1281 0.950 . S
H1270 C1278 0.950 . S
H1271 C1280 0.950 . S
H1272 C1282 0.950 . S
H1273 C1284 0.950 . S
H1274 C1286 0.950 . S
H1275 C1287 0.950 . S
C1276 H1268 0.950 . S
C1276 C1277 1.386 . S
C1276 C1278 1.391 . S
C1277 C1276 1.386 . S
C1277 C1281 1.393 . S
C1278 H1270 0.950 . S
C1278 C1276 1.391 . S
C1278 C1279 1.400 . S
C1279 C1278 1.400 . S
C1279 C1280 1.398 . S
C1279 C1285 1.491 1_556 S
C1280 H1271 0.950 . S
C1280 C1279 1.398 . S
C1280 C1281 1.391 . S
C1281 H1269 0.950 . S
C1281 C1277 1.393 . S
C1281 C1280 1.391 . S
C1282 H1272 0.950 . S
C1282 C1283 1.386 . S
C1282 C1284 1.391 . S
C1283 C1282 1.386 . S
C1283 C1287 1.393 . S
C1284 H1273 0.950 . S
C1284 C1282 1.391 . S
C1284 C1285 1.400 . S
C1285 C1279 1.491 1_554 S
C1285 C1284 1.400 . S
C1285 C1286 1.398 . S
C1286 H1274 0.950 . S
C1286 C1285 1.398 . S
C1286 C1287 1.391 . S
C1287 H1275 0.950 . S
C1287 C1283 1.393 . S
C1287 C1286 1.391 . S
H1288 C1296 0.950 . S
H1289 C1301 0.950 . S
H1290 C1298 0.950 . S
H1291 C1300 0.950 . S
H1292 C1302 0.950 . S
H1293 C1304 0.950 . S
H1294 C1306 0.950 . S
H1295 C1307 0.950 . S
C1296 H1288 0.950 . S
C1296 C1297 1.386 . S
C1296 C1298 1.391 . S
C1297 C1296 1.386 . S
C1297 C1301 1.393 . S
C1298 H1290 0.950 . S
C1298 C1296 1.391 . S
C1298 C1299 1.400 . S
C1299 C1298 1.400 . S
C1299 C1300 1.398 . S
C1299 C1305 1.491 1_556 S
C1300 H1291 0.950 . S
C1300 C1299 1.398 . S
C1300 C1301 1.391 . S
C1301 H1289 0.950 . S
C1301 C1297 1.393 . S
C1301 C1300 1.391 . S
C1302 H1292 0.950 . S
C1302 C1303 1.386 . S
C1302 C1304 1.391 . S
C1303 C1302 1.386 . S
C1303 C1307 1.393 . S
C1304 H1293 0.950 . S
C1304 C1302 1.391 . S
C1304 C1305 1.400 . S
C1305 C1299 1.491 1_554 S
C1305 C1304 1.400 . S
C1305 C1306 1.398 . S
C1306 H1294 0.950 . S
C1306 C1305 1.398 . S
C1306 C1307 1.391 . S
C1307 H1295 0.950 . S
C1307 C1303 1.393 . S
C1307 C1306 1.391 . S
H1308 C1316 0.950 . S
H1309 C1321 0.950 . S
H1310 C1318 0.950 . S
H1311 C1320 0.950 . S
H1312 C1322 0.950 . S
H1313 C1324 0.950 . S
H1314 C1326 0.950 . S
H1315 C1327 0.950 . S
C1316 H1308 0.950 . S
C1316 C1317 1.386 . S
C1316 C1318 1.391 . S
C1317 C1316 1.386 . S
C1317 C1321 1.393 . S
C1318 H1310 0.950 . S
C1318 C1316 1.391 . S
C1318 C1319 1.400 . S
C1319 C1318 1.400 . S
C1319 C1320 1.398 . S
C1319 C1325 1.491 1_556 S
C1320 H1311 0.950 . S
C1320 C1319 1.398 . S
C1320 C1321 1.391 . S
C1321 H1309 0.950 . S
C1321 C1317 1.393 . S
C1321 C1320 1.391 . S
C1322 H1312 0.950 . S
C1322 C1323 1.386 . S
C1322 C1324 1.391 . S
C1323 C1322 1.386 . S
C1323 C1327 1.393 . S
C1324 H1313 0.950 . S
C1324 C1322 1.391 . S
C1324 C1325 1.400 . S
C1325 C1319 1.491 1_554 S
C1325 C1324 1.400 . S
C1325 C1326 1.398 . S
C1326 H1314 0.950 . S
C1326 C1325 1.398 . S
C1326 C1327 1.391 . S
C1327 H1315 0.950 . S
C1327 C1323 1.393 . S
C1327 C1326 1.391 . S
H1328 C1336 0.950 . S
H1329 C1341 0.950 . S
H1330 C1338 0.950 . S
H1331 C1340 0.950 . S
H1332 C1342 0.950 . S
H1333 C1344 0.950 . S
H1334 C1346 0.950 . S
H1335 C1347 0.950 . S
C1336 H1328 0.950 . S
C1336 C1337 1.386 . S
C1336 C1338 1.391 . S
C1337 C1336 1.386 . S
C1337 C1341 1.393 . S
C1338 H1330 0.950 . S
C1338 C1336 1.391 . S
C1338 C1339 1.400 . S
C1339 C1338 1.400 . S
C1339 C1340 1.398 . S
C1339 C1345 1.491 1_655 S
C1340 H1331 0.950 . S
C1340 C1339 1.398 . S
C1340 C1341 1.391 . S
C1341 H1329 0.950 . S
C1341 C1337 1.393 . S
C1341 C1340 1.391 . S
C1342 H1332 0.950 . S
C1342 C1343 1.386 . S
C1342 C1344 1.391 . S
C1343 C1342 1.386 . S
C1343 C1347 1.393 . S
C1344 H1333 0.950 . S
C1344 C1342 1.391 . S
C1344 C1345 1.400 . S
C1345 C1339 1.491 1_455 S
C1345 C1344 1.400 . S
C1345 C1346 1.398 . S
C1346 H1334 0.950 . S
C1346 C1345 1.398 . S
C1346 C1347 1.391 . S
C1347 H1335 0.950 . S
C1347 C1343 1.393 . S
C1347 C1346 1.391 . S
H1348 C1356 0.950 . S
H1349 C1361 0.950 . S
H1350 C1358 0.950 . S
H1351 C1360 0.950 . S
H1352 C1362 0.950 . S
H1353 C1364 0.950 . S
H1354 C1366 0.950 . S
H1355 C1367 0.950 . S
C1356 H1348 0.950 . S
C1356 C1357 1.386 . S
C1356 C1358 1.391 . S
C1357 C1356 1.386 . S
C1357 C1361 1.393 . S
C1358 H1350 0.950 . S
C1358 C1356 1.391 . S
C1358 C1359 1.400 . S
C1359 C1358 1.400 . S
C1359 C1360 1.398 . S
C1359 C1365 1.491 1_565 S
C1360 H1351 0.950 . S
C1360 C1359 1.398 . S
C1360 C1361 1.391 . S
C1361 H1349 0.950 . S
C1361 C1357 1.393 . S
C1361 C1360 1.391 . S
C1362 H1352 0.950 . S
C1362 C1363 1.386 . S
C1362 C1364 1.391 . S
C1363 C1362 1.386 . S
C1363 C1367 1.393 . S
C1364 H1353 0.950 . S
C1364 C1362 1.391 . S
C1364 C1365 1.400 . S
C1365 C1359 1.491 1_545 S
C1365 C1364 1.400 . S
C1365 C1366 1.398 . S
C1366 H1354 0.950 . S
C1366 C1365 1.398 . S
C1366 C1367 1.391 . S
C1367 H1355 0.950 . S
C1367 C1363 1.393 . S
C1367 C1366 1.391 . S
H1368 C1376 0.950 . S
H1369 C1381 0.950 . S
H1370 C1378 0.950 . S
H1371 C1380 0.950 . S
H1372 C1382 0.950 . S
H1373 C1384 0.950 . S
H1374 C1386 0.950 . S
H1375 C1387 0.950 . S
C1376 H1368 0.950 . S
C1376 C1377 1.386 . S
C1376 C1378 1.391 . S
C1377 C1376 1.386 . S
C1377 C1381 1.393 . S
C1378 H1370 0.950 . S
C1378 C1376 1.391 . S
C1378 C1379 1.400 . S
C1379 C1378 1.400 . S
C1379 C1380 1.398 . S
C1379 C1385 1.491 1_655 S
C1380 H1371 0.950 . S
C1380 C1379 1.398 . S
C1380 C1381 1.391 . S
C1381 H1369 0.950 . S
C1381 C1377 1.393 . S
C1381 C1380 1.391 . S
C1382 H1372 0.950 . S
C1382 C1383 1.386 . S
C1382 C1384 1.391 . S
C1383 C1382 1.386 . S
C1383 C1387 1.393 . S
C1384 H1373 0.950 . S
C1384 C1382 1.391 . S
C1384 C1385 1.400 . S
C1385 C1379 1.491 1_455 S
C1385 C1384 1.400 . S
C1385 C1386 1.398 . S
C1386 H1374 0.950 . S
C1386 C1385 1.398 . S
C1386 C1387 1.391 . S
C1387 H1375 0.950 . S
C1387 C1383 1.393 . S
C1387 C1386 1.391 . S
H1388 C1396 0.950 . S
H1389 C1401 0.950 . S
H1390 C1398 0.950 . S
H1391 C1400 0.950 . S
H1392 C1402 0.950 . S
H1393 C1404 0.950 . S
H1394 C1406 0.950 . S
H1395 C1407 0.950 . S
C1396 H1388 0.950 . S
C1396 C1397 1.386 . S
C1396 C1398 1.391 . S
C1397 C1396 1.386 . S
C1397 C1401 1.393 . S
C1398 H1390 0.950 . S
C1398 C1396 1.391 . S
C1398 C1399 1.400 . S
C1399 C1398 1.400 . S
C1399 C1400 1.398 . S
C1399 C1405 1.491 1_545 S
C1400 H1391 0.950 . S
C1400 C1399 1.398 . S
C1400 C1401 1.391 . S
C1401 H1389 0.950 . S
C1401 C1397 1.393 . S
C1401 C1400 1.391 . S
C1402 H1392 0.950 . S
C1402 C1403 1.386 . S
C1402 C1404 1.391 . S
C1403 C1402 1.386 . S
C1403 C1407 1.393 . S
C1404 H1393 0.950 . S
C1404 C1402 1.391 . S
C1404 C1405 1.400 . S
C1405 C1399 1.491 1_565 S
C1405 C1404 1.400 . S
C1405 C1406 1.398 . S
C1406 H1394 0.950 . S
C1406 C1405 1.398 . S
C1406 C1407 1.391 . S
C1407 H1395 0.950 . S
C1407 C1403 1.393 . S
C1407 C1406 1.391 . S
H1408 C1416 0.950 . S
H1409 C1421 0.950 . S
H1410 C1418 0.950 . S
H1411 C1420 0.950 . S
H1412 C1422 0.950 . S
H1413 C1424 0.950 . S
H1414 C1426 0.950 . S
H1415 C1427 0.950 . S
C1416 H1408 0.950 . S
C1416 C1417 1.386 . S
C1416 C1418 1.391 . S
C1417 C1416 1.386 . S
C1417 C1421 1.393 . S
C1418 H1410 0.950 . S
C1418 C1416 1.391 . S
C1418 C1419 1.400 . S
C1419 C1418 1.400 . S
C1419 C1420 1.398 . S
C1419 C1425 1.491 1_565 S
C1420 H1411 0.950 . S
C1420 C1419 1.398 . S
C1420 C1421 1.391 . S
C1421 H1409 0.950 . S
C1421 C1417 1.393 . S
C1421 C1420 1.391 . S
C1422 H1412 0.950 . S
C1422 C1423 1.386 . S
C1422 C1424 1.391 . S
C1423 C1422 1.386 . S
C1423 C1427 1.393 . S
C1424 H1413 0.950 . S
C1424 C1422 1.391 . S
C1424 C1425 1.400 . S
C1425 C1419 1.491 1_545 S
C1425 C1424 1.400 . S
C1425 C1426 1.398 . S
C1426 H1414 0.950 . S
C1426 C1425 1.398 . S
C1426 C1427 1.391 . S
C1427 H1415 0.950 . S
C1427 C1423 1.393 . S
C1427 C1426 1.391 . S
H1428 C1436 0.950 . S
H1429 C1441 0.950 . S
H1430 C1438 0.950 . S
H1431 C1440 0.950 . S
H1432 C1442 0.950 . S
H1433 C1444 0.950 . S
H1434 C1446 0.950 . S
H1435 C1447 0.950 . S
C1436 H1428 0.950 . S
C1436 C1437 1.386 . S
C1436 C1438 1.391 . S
C1437 C1436 1.386 . S
C1437 C1441 1.393 . S
C1438 H1430 0.950 . S
C1438 C1436 1.391 . S
C1438 C1439 1.400 . S
C1439 C1438 1.400 . S
C1439 C1440 1.398 . S
C1439 C1445 1.491 1_455 S
C1440 H1431 0.950 . S
C1440 C1439 1.398 . S
C1440 C1441 1.391 . S
C1441 H1429 0.950 . S
C1441 C1437 1.393 . S
C1441 C1440 1.391 . S
C1442 H1432 0.950 . S
C1442 C1443 1.386 . S
C1442 C1444 1.391 . S
C1443 C1442 1.386 . S
C1443 C1447 1.393 . S
C1444 H1433 0.950 . S
C1444 C1442 1.391 . S
C1444 C1445 1.400 . S
C1445 C1439 1.491 1_655 S
C1445 C1444 1.400 . S
C1445 C1446 1.398 . S
C1446 H1434 0.950 . S
C1446 C1445 1.398 . S
C1446 C1447 1.391 . S
C1447 H1435 0.950 . S
C1447 C1443 1.393 . S
C1447 C1446 1.391 . S
H1448 C1456 0.950 . S
H1449 C1461 0.950 . S
H1450 C1458 0.950 . S
H1451 C1460 0.950 . S
H1452 C1462 0.950 . S
H1453 C1464 0.950 . S
H1454 C1466 0.950 . S
H1455 C1467 0.950 . S
C1456 H1448 0.950 . S
C1456 C1457 1.386 . S
C1456 C1458 1.391 . S
C1457 C1456 1.386 . S
C1457 C1461 1.393 . S
C1458 H1450 0.950 . S
C1458 C1456 1.391 . S
C1458 C1459 1.400 . S
C1459 C1458 1.400 . S
C1459 C1460 1.398 . S
C1459 C1465 1.491 1_565 S
C1460 H1451 0.950 . S
C1460 C1459 1.398 . S
C1460 C1461 1.391 . S
C1461 H1449 0.950 . S
C1461 C1457 1.393 . S
C1461 C1460 1.391 . S
C1462 H1452 0.950 . S
C1462 C1463 1.386 . S
C1462 C1464 1.391 . S
C1463 C1462 1.386 . S
C1463 C1467 1.393 . S
C1464 H1453 0.950 . S
C1464 C1462 1.391 . S
C1464 C1465 1.400 . S
C1465 C1459 1.491 1_545 S
C1465 C1464 1.400 . S
C1465 C1466 1.398 . S
C1466 H1454 0.950 . S
C1466 C1465 1.398 . S
C1466 C1467 1.391 . S
C1467 H1455 0.950 . S
C1467 C1463 1.393 . S
C1467 C1466 1.391 . S
H1468 C1476 0.950 . S
H1469 C1481 0.950 . S
H1470 C1478 0.950 . S
H1471 C1480 0.950 . S
H1472 C1482 0.950 . S
H1473 C1484 0.950 . S
H1474 C1486 0.950 . S
H1475 C1487 0.950 . S
C1476 H1468 0.950 . S
C1476 C1477 1.386 . S
C1476 C1478 1.391 . S
C1477 C1476 1.386 . S
C1477 C1481 1.393 . S
C1478 H1470 0.950 . S
C1478 C1476 1.391 . S
C1478 C1479 1.400 . S
C1479 C1478 1.400 . S
C1479 C1480 1.398 . S
C1479 C1485 1.491 1_455 S
C1480 H1471 0.950 . S
C1480 C1479 1.398 . S
C1480 C1481 1.391 . S
C1481 H1469 0.950 . S
C1481 C1477 1.393 . S
C1481 C1480 1.391 . S
C1482 H1472 0.950 . S
C1482 C1483 1.386 . S
C1482 C1484 1.391 . S
C1483 C1482 1.386 . S
C1483 C1487 1.393 . S
C1484 H1473 0.950 . S
C1484 C1482 1.391 . S
C1484 C1485 1.400 . S
C1485 C1479 1.491 1_655 S
C1485 C1484 1.400 . S
C1485 C1486 1.398 . S
C1486 H1474 0.950 . S
C1486 C1485 1.398 . S
C1486 C1487 1.391 . S
C1487 H1475 0.950 . S
C1487 C1483 1.393 . S
C1487 C1486 1.391 . S
H1488 C1496 0.950 . S
H1489 C1501 0.950 . S
H1490 C1498 0.950 . S
H1491 C1500 0.950 . S
H1492 C1502 0.950 . S
H1493 C1504 0.950 . S
H1494 C1506 0.950 . S
H1495 C1507 0.950 . S
C1496 H1488 0.950 . S
C1496 C1497 1.386 . S
C1496 C1498 1.391 . S
C1497 C1496 1.386 . S
C1497 C1501 1.393 . S
C1498 H1490 0.950 . S
C1498 C1496 1.391 . S
C1498 C1499 1.400 . S
C1499 C1498 1.400 . S
C1499 C1500 1.398 . S
C1499 C1505 1.491 . S
C1500 H1491 0.950 . S
C1500 C1499 1.398 . S
C1500 C1501 1.391 . S
C1501 H1489 0.950 . S
C1501 C1497 1.393 . S
C1501 C1500 1.391 . S
C1502 H1492 0.950 . S
C1502 C1503 1.386 . S
C1502 C1504 1.391 . S
C1503 C1502 1.386 . S
C1503 C1507 1.393 . S
C1504 H1493 0.950 . S
C1504 C1502 1.391 . S
C1504 C1505 1.400 . S
C1505 C1499 1.491 . S
C1505 C1504 1.400 . S
C1505 C1506 1.398 . S
C1506 H1494 0.950 . S
C1506 C1505 1.398 . S
C1506 C1507 1.391 . S
C1507 H1495 0.950 . S
C1507 C1503 1.393 . S
C1507 C1506 1.391 . S
H1508 C1516 0.950 . S
H1509 C1521 0.935 1_565 S
H1510 C1518 0.950 . S
H1511 C1520 0.950 1_565 S
H1512 C1522 0.950 . S
H1513 C1524 0.949 . S
H1514 C1526 0.950 . S
H1515 C1527 0.950 . S
C1516 H1508 0.950 . S
C1516 C1517 1.386 . S
C1516 C1518 1.391 . S
C1517 C1516 1.386 . S
C1517 C1521 1.406 . S
C1518 H1510 0.950 . S
C1518 C1516 1.391 . S
C1518 C1519 1.400 . S
C1519 C1518 1.400 . S
C1519 C1520 1.398 . S
C1519 C1525 1.491 . S
C1520 H1511 0.950 1_545 S
C1520 C1519 1.398 . S
C1520 C1521 1.396 . S
C1521 H1509 0.935 1_545 S
C1521 C1517 1.406 . S
C1521 C1520 1.396 . S
C1522 H1512 0.950 . S
C1522 C1523 1.386 . S
C1522 C1524 1.391 . S
C1523 C1522 1.386 . S
C1523 C1527 1.393 . S
C1524 H1513 0.949 . S
C1524 C1522 1.391 . S
C1524 C1525 1.400 . S
C1525 C1519 1.491 . S
C1525 C1524 1.400 . S
C1525 C1526 1.398 . S
C1526 H1514 0.950 . S
C1526 C1525 1.398 . S
C1526 C1527 1.391 . S
C1527 H1515 0.950 . S
C1527 C1523 1.393 . S
C1527 C1526 1.391 . S
H1528 C1536 0.950 . S
H1529 C1541 0.950 . S
H1530 C1538 0.950 . S
H1531 C1540 0.950 . S
H1532 C1542 0.950 . S
H1533 C1544 0.950 . S
H1534 C1546 0.950 . S
H1535 C1547 0.950 . S
C1536 H1528 0.950 . S
C1536 C1537 1.386 1_655 S
C1536 C1538 1.391 . S
C1537 C1536 1.386 1_455 S
C1537 C1541 1.393 . S
C1538 H1530 0.950 . S
C1538 C1536 1.391 . S
C1538 C1539 1.400 1_655 S
C1539 C1538 1.400 1_455 S
C1539 C1540 1.398 . S
C1539 C1545 1.491 . S
C1540 H1531 0.950 . S
C1540 C1539 1.398 . S
C1540 C1541 1.391 . S
C1541 H1529 0.950 . S
C1541 C1537 1.393 . S
C1541 C1540 1.391 . S
C1542 H1532 0.950 . S
C1542 C1543 1.386 . S
C1542 C1544 1.391 . S
C1543 C1542 1.386 . S
C1543 C1547 1.393 1_455 S
C1544 H1533 0.950 . S
C1544 C1542 1.391 . S
C1544 C1545 1.400 . S
C1545 C1539 1.491 . S
C1545 C1544 1.400 . S
C1545 C1546 1.398 1_455 S
C1546 H1534 0.950 . S
C1546 C1545 1.398 1_655 S
C1546 C1547 1.391 . S
C1547 H1535 0.950 . S
C1547 C1543 1.393 1_655 S
C1547 C1546 1.391 . S
H1548 C1556 0.950 . S
H1549 C1561 0.950 . S
H1550 C1558 0.950 . S
H1551 C1560 0.938 1_565 S
H1552 C1562 0.934 1_565 S
H1553 C1564 0.950 1_565 S
H1554 C1566 0.950 . S
H1555 C1567 0.950 . S
C1556 H1548 0.950 . S
C1556 C1557 1.386 . S
C1556 C1558 1.391 . S
C1557 C1556 1.386 . S
C1557 C1561 1.393 1_545 S
C1558 H1550 0.950 . S
C1558 C1556 1.391 . S
C1558 C1559 1.400 . S
C1559 C1558 1.400 . S
C1559 C1560 1.415 . S
C1559 C1565 1.491 . S
C1560 H1551 0.938 1_545 S
C1560 C1559 1.415 . S
C1560 C1561 1.388 1_545 S
C1561 H1549 0.950 . S
C1561 C1557 1.393 1_565 S
C1561 C1560 1.388 1_565 S
C1562 H1552 0.934 1_545 S
C1562 C1563 1.386 . S
C1562 C1564 1.391 . S
C1563 C1562 1.386 . S
C1563 C1567 1.393 . S
C1564 H1553 0.950 1_545 S
C1564 C1562 1.391 . S
C1564 C1565 1.400 . S
C1565 C1559 1.491 . S
C1565 C1564 1.400 . S
C1565 C1566 1.398 . S
C1566 H1554 0.950 . S
C1566 C1565 1.398 . S
C1566 C1567 1.391 . S
C1567 H1555 0.950 . S
C1567 C1563 1.393 . S
C1567 C1566 1.391 . S
H1568 C1576 0.950 . S
H1569 C1581 0.950 . S
H1570 C1578 0.950 . S
H1571 C1580 0.950 . S
H1572 C1582 0.950 . S
H1573 C1584 0.950 . S
H1574 C1586 0.950 . S
H1575 C1587 0.950 . S
C1576 H1568 0.950 . S
C1576 C1577 1.386 . S
C1576 C1578 1.391 . S
C1577 C1576 1.386 . S
C1577 C1581 1.393 1_455 S
C1578 H1570 0.950 . S
C1578 C1576 1.391 . S
C1578 C1579 1.400 . S
C1579 C1578 1.400 . S
C1579 C1580 1.398 1_455 S
C1579 C1585 1.491 . S
C1580 H1571 0.950 . S
C1580 C1579 1.398 1_655 S
C1580 C1581 1.391 . S
C1581 H1569 0.950 . S
C1581 C1577 1.393 1_655 S
C1581 C1580 1.391 . S
C1582 H1572 0.950 . S
C1582 C1583 1.386 1_655 S
C1582 C1584 1.391 . S
C1583 C1582 1.386 1_455 S
C1583 C1587 1.393 . S
C1584 H1573 0.950 . S
C1584 C1582 1.391 . S
C1584 C1585 1.400 1_655 S
C1585 C1579 1.491 . S
C1585 C1584 1.400 1_455 S
C1585 C1586 1.398 . S
C1586 H1574 0.950 . S
C1586 C1585 1.398 . S
C1586 C1587 1.391 . S
C1587 H1575 0.950 . S
C1587 C1583 1.393 . S
C1587 C1586 1.391 . S
H1588 C1596 0.950 . S
H1589 C1601 0.950 . S
H1590 C1598 0.947 1_565 S
H1591 C1600 0.950 . S
H1592 C1602 0.950 . S
H1593 C1604 0.950 . S
H1594 C1606 0.946 1_565 S
H1595 C1607 0.938 1_565 S
C1596 H1588 0.950 . S
C1596 C1597 1.386 . S
C1596 C1598 1.391 . S
C1597 C1596 1.386 . S
C1597 C1601 1.393 . S
C1598 H1590 0.947 1_545 S
C1598 C1596 1.391 . S
C1598 C1599 1.400 . S
C1599 C1598 1.400 . S
C1599 C1600 1.398 . S
C1599 C1605 1.491 . S
C1600 H1591 0.950 . S
C1600 C1599 1.398 . S
C1600 C1601 1.391 . S
C1601 H1589 0.950 . S
C1601 C1597 1.393 . S
C1601 C1600 1.391 . S
C1602 H1592 0.950 . S
C1602 C1603 1.386 . S
C1602 C1604 1.391 . S
C1603 C1602 1.386 . S
C1603 C1607 1.403 . S
C1604 H1593 0.950 . S
C1604 C1602 1.391 . S
C1604 C1605 1.400 . S
C1605 C1599 1.491 . S
C1605 C1604 1.400 . S
C1605 C1606 1.398 . S
C1606 H1594 0.946 1_545 S
C1606 C1605 1.398 . S
C1606 C1607 1.395 . S
C1607 H1595 0.938 1_545 S
C1607 C1603 1.403 . S
C1607 C1606 1.395 . S
H1608 C1616 0.950 . S
H1609 C1621 0.950 . S
H1610 C1618 0.950 . S
H1611 C1620 0.950 . S
H1612 C1622 0.950 . S
H1613 C1624 0.950 . S
H1614 C1626 0.950 . S
H1615 C1627 0.950 . S
C1616 H1608 0.950 . S
C1616 C1617 1.386 1_655 S
C1616 C1618 1.391 . S
C1617 C1616 1.386 1_455 S
C1617 C1621 1.393 . S
C1618 H1610 0.950 . S
C1618 C1616 1.391 . S
C1618 C1619 1.400 1_655 S
C1619 C1618 1.400 1_455 S
C1619 C1620 1.398 . S
C1619 C1625 1.491 . S
C1620 H1611 0.950 . S
C1620 C1619 1.398 . S
C1620 C1621 1.391 . S
C1621 H1609 0.950 . S
C1621 C1617 1.393 . S
C1621 C1620 1.391 . S
C1622 H1612 0.950 . S
C1622 C1623 1.386 . S
C1622 C1624 1.391 . S
C1623 C1622 1.386 . S
C1623 C1627 1.393 1_455 S
C1624 H1613 0.950 . S
C1624 C1622 1.391 . S
C1624 C1625 1.400 . S
C1625 C1619 1.491 . S
C1625 C1624 1.400 . S
C1625 C1626 1.398 1_455 S
C1626 H1614 0.950 . S
C1626 C1625 1.398 1_655 S
C1626 C1627 1.391 . S
C1627 H1615 0.950 . S
C1627 C1623 1.393 1_655 S
C1627 C1626 1.391 . S
H1628 C1636 0.953 . S
H1629 C1641 0.950 . S
H1630 C1638 0.950 . S
H1631 C1640 0.950 . S
H1632 C1642 0.950 . S
H1633 C1644 0.950 . S
H1634 C1646 0.950 . S
H1635 C1647 0.950 . S
C1636 H1628 0.953 . S
C1636 C1637 1.382 1_565 S
C1636 C1638 1.392 . S
C1637 C1636 1.382 1_545 S
C1637 C1641 1.393 . S
C1638 H1630 0.950 . S
C1638 C1636 1.392 . S
C1638 C1639 1.400 1_565 S
C1639 C1638 1.400 1_545 S
C1639 C1640 1.398 . S
C1639 C1645 1.491 . S
C1640 H1631 0.950 . S
C1640 C1639 1.398 . S
C1640 C1641 1.391 . S
C1641 H1629 0.950 . S
C1641 C1637 1.393 . S
C1641 C1640 1.391 . S
C1642 H1632 0.950 . S
C1642 C1643 1.386 . S
C1642 C1644 1.391 . S
C1643 C1642 1.386 . S
C1643 C1647 1.393 1_545 S
C1644 H1633 0.950 . S
C1644 C1642 1.391 . S
C1644 C1645 1.400 . S
C1645 C1639 1.491 . S
C1645 C1644 1.400 . S
C1645 C1646 1.398 1_545 S
C1646 H1634 0.950 . S
C1646 C1645 1.398 1_565 S
C1646 C1647 1.391 . S
C1647 H1635 0.950 . S
C1647 C1643 1.393 1_565 S
C1647 C1646 1.391 . S
H1648 C1656 0.950 . S
H1649 C1661 0.950 . S
H1650 C1658 0.950 . S
H1651 C1660 0.950 . S
H1652 C1662 0.950 . S
H1653 C1664 0.950 . S
H1654 C1666 0.950 . S
H1655 C1667 0.950 . S
C1656 H1648 0.950 . S
C1656 C1657 1.386 1_556 S
C1656 C1658 1.391 . S
C1657 C1656 1.386 1_554 S
C1657 C1661 1.393 . S
C1658 H1650 0.950 . S
C1658 C1656 1.391 . S
C1658 C1659 1.400 1_556 S
C1659 C1658 1.400 1_554 S
C1659 C1660 1.398 . S
C1659 C1665 1.491 . S
C1660 H1651 0.950 . S
C1660 C1659 1.398 . S
C1660 C1661 1.391 . S
C1661 H1649 0.950 . S
C1661 C1657 1.393 . S
C1661 C1660 1.391 . S
C1662 H1652 0.950 . S
C1662 C1663 1.386 . S
C1662 C1664 1.391 . S
C1663 C1662 1.386 . S
C1663 C1667 1.393 1_554 S
C1664 H1653 0.950 . S
C1664 C1662 1.391 . S
C1664 C1665 1.400 . S
C1665 C1659 1.491 . S
C1665 C1664 1.400 . S
C1665 C1666 1.398 1_554 S
C1666 H1654 0.950 . S
C1666 C1665 1.398 1_556 S
C1666 C1667 1.391 . S
C1667 H1655 0.950 . S
C1667 C1663 1.393 1_556 S
C1667 C1666 1.391 . S
H1668 C1676 0.950 . S
H1669 C1681 0.950 . S
H1670 C1678 0.950 . S
H1671 C1680 0.950 . S
H1672 C1682 0.950 . S
H1673 C1684 0.950 . S
H1674 C1686 0.950 1_556 S
H1675 C1687 0.950 1_556 S
C1676 H1668 0.950 . S
C1676 C1677 1.386 1_556 S
C1676 C1678 1.391 . S
C1677 C1676 1.386 1_554 S
C1677 C1681 1.393 . S
C1678 H1670 0.950 . S
C1678 C1676 1.391 . S
C1678 C1679 1.400 1_556 S
C1679 C1678 1.400 1_554 S
C1679 C1680 1.398 . S
C1679 C1685 1.491 . S
C1680 H1671 0.950 . S
C1680 C1679 1.398 . S
C1680 C1681 1.391 . S
C1681 H1669 0.950 . S
C1681 C1677 1.393 . S
C1681 C1680 1.391 . S
C1682 H1672 0.950 . S
C1682 C1683 1.386 . S
C1682 C1684 1.391 . S
C1683 C1682 1.386 . S
C1683 C1687 1.393 . S
C1684 H1673 0.950 . S
C1684 C1682 1.391 . S
C1684 C1685 1.400 . S
C1685 C1679 1.491 . S
C1685 C1684 1.400 . S
C1685 C1686 1.398 . S
C1686 H1674 0.950 1_554 S
C1686 C1685 1.398 . S
C1686 C1687 1.391 . S
C1687 H1675 0.950 1_554 S
C1687 C1683 1.393 . S
C1687 C1686 1.391 . S
H1688 C1696 0.950 1_556 S
H1689 C1701 0.950 . S
H1690 C1698 0.948 . S
H1691 C1700 0.950 . S
H1692 C1702 0.950 . S
H1693 C1704 0.950 . S
H1694 C1706 0.950 . S
H1695 C1707 0.950 . S
C1696 H1688 0.950 1_554 S
C1696 C1697 1.386 . S
C1696 C1698 1.392 1_554 S
C1697 C1696 1.386 . S
C1697 C1701 1.393 . S
C1698 H1690 0.948 . S
C1698 C1696 1.392 1_556 S
C1698 C1699 1.402 1_556 S
C1699 C1698 1.402 1_554 S
C1699 C1700 1.398 . S
C1699 C1705 1.491 . S
C1700 H1691 0.950 . S
C1700 C1699 1.398 . S
C1700 C1701 1.391 . S
C1701 H1689 0.950 . S
C1701 C1697 1.393 . S
C1701 C1700 1.391 . S
C1702 H1692 0.950 . S
C1702 C1703 1.386 . S
C1702 C1704 1.391 . S
C1703 C1702 1.386 . S
C1703 C1707 1.393 1_554 S
C1704 H1693 0.950 . S
C1704 C1702 1.391 . S
C1704 C1705 1.400 . S
C1705 C1699 1.491 . S
C1705 C1704 1.400 . S
C1705 C1706 1.398 1_554 S
C1706 H1694 0.950 . S
C1706 C1705 1.398 1_556 S
C1706 C1707 1.391 . S
C1707 H1695 0.950 . S
C1707 C1703 1.393 1_556 S
C1707 C1706 1.391 . S
H1708 C1716 0.950 . S
H1709 C1721 0.950 . S
H1710 C1718 0.950 . S
H1711 C1720 0.950 . S
H1712 C1722 0.950 . S
H1713 C1724 0.950 . S
H1714 C1726 0.950 . S
H1715 C1727 0.950 . S
C1716 H1708 0.950 . S
C1716 C1717 1.386 1_556 S
C1716 C1718 1.391 . S
C1717 C1716 1.386 1_554 S
C1717 C1721 1.393 . S
C1718 H1710 0.950 . S
C1718 C1716 1.391 . S
C1718 C1719 1.400 1_556 S
C1719 C1718 1.400 1_554 S
C1719 C1720 1.398 . S
C1719 C1725 1.491 . S
C1720 H1711 0.950 . S
C1720 C1719 1.398 . S
C1720 C1721 1.391 . S
C1721 H1709 0.950 . S
C1721 C1717 1.393 . S
C1721 C1720 1.391 . S
C1722 H1712 0.950 . S
C1722 C1723 1.386 . S
C1722 C1724 1.391 . S
C1723 C1722 1.386 . S
C1723 C1727 1.393 1_554 S
C1724 H1713 0.950 . S
C1724 C1722 1.391 . S
C1724 C1725 1.400 . S
C1725 C1719 1.491 . S
C1725 C1724 1.400 . S
C1725 C1726 1.398 1_554 S
C1726 H1714 0.950 . S
C1726 C1725 1.398 1_556 S
C1726 C1727 1.391 . S
C1727 H1715 0.950 . S
C1727 C1723 1.393 1_556 S
C1727 C1726 1.391 . S
H1728 C1736 0.950 . S
H1729 C1741 0.950 . S
H1730 C1738 0.950 . S
H1731 C1740 0.950 . S
H1732 C1742 0.950 . S
H1733 C1744 0.950 . S
H1734 C1746 0.950 . S
H1735 C1747 0.950 . S
C1736 H1728 0.950 . S
C1736 C1737 1.386 . S
C1736 C1738 1.391 . S
C1737 C1736 1.386 . S
C1737 C1741 1.393 . S
C1738 H1730 0.950 . S
C1738 C1736 1.391 . S
C1738 C1739 1.400 . S
C1739 C1738 1.400 . S
C1739 C1740 1.398 . S
C1739 C1745 1.491 . S
C1740 H1731 0.950 . S
C1740 C1739 1.398 . S
C1740 C1741 1.391 . S
C1741 H1729 0.950 . S
C1741 C1737 1.393 . S
C1741 C1740 1.391 . S
C1742 H1732 0.950 . S
C1742 C1743 1.386 . S
C1742 C1744 1.391 . S
C1743 C1742 1.386 . S
C1743 C1747 1.393 . S
C1744 H1733 0.950 . S
C1744 C1742 1.391 . S
C1744 C1745 1.400 . S
C1745 C1739 1.491 . S
C1745 C1744 1.400 . S
C1745 C1746 1.398 . S
C1746 H1734 0.950 . S
C1746 C1745 1.398 . S
C1746 C1747 1.391 . S
C1747 H1735 0.950 . S
C1747 C1743 1.393 . S
C1747 C1746 1.391 . S
H1748 C1756 0.950 . S
H1749 C1761 0.950 . S
H1750 C1758 0.950 . S
H1751 C1760 0.950 . S
H1752 C1762 0.950 . S
H1753 C1764 0.950 . S
H1754 C1766 0.950 . S
H1755 C1767 0.950 . S
C1756 H1748 0.950 . S
C1756 C1757 1.386 . S
C1756 C1758 1.391 . S
C1757 C1756 1.386 . S
C1757 C1761 1.393 . S
C1758 H1750 0.950 . S
C1758 C1756 1.391 . S
C1758 C1759 1.400 . S
C1759 C1758 1.400 . S
C1759 C1760 1.398 . S
C1759 C1765 1.491 . S
C1760 H1751 0.950 . S
C1760 C1759 1.398 . S
C1760 C1761 1.391 . S
C1761 H1749 0.950 . S
C1761 C1757 1.393 . S
C1761 C1760 1.391 . S
C1762 H1752 0.950 . S
C1762 C1763 1.386 . S
C1762 C1764 1.391 . S
C1763 C1762 1.386 . S
C1763 C1767 1.393 . S
C1764 H1753 0.950 . S
C1764 C1762 1.391 . S
C1764 C1765 1.400 . S
C1765 C1759 1.491 . S
C1765 C1764 1.400 . S
C1765 C1766 1.398 . S
C1766 H1754 0.950 . S
C1766 C1765 1.398 . S
C1766 C1767 1.391 . S
C1767 H1755 0.950 . S
C1767 C1763 1.393 . S
C1767 C1766 1.391 . S
H1768 C1776 0.950 . S
H1769 C1781 0.950 . S
H1770 C1778 0.950 . S
H1771 C1780 0.950 . S
H1772 C1782 0.950 . S
H1773 C1784 0.950 . S
H1774 C1786 0.950 . S
H1775 C1787 0.950 . S
C1776 H1768 0.950 . S
C1776 C1777 1.386 . S
C1776 C1778 1.391 . S
C1777 C1776 1.386 . S
C1777 C1781 1.393 . S
C1778 H1770 0.950 . S
C1778 C1776 1.391 . S
C1778 C1779 1.400 . S
C1779 C1778 1.400 . S
C1779 C1780 1.398 . S
C1779 C1785 1.491 . S
C1780 H1771 0.950 . S
C1780 C1779 1.398 . S
C1780 C1781 1.391 . S
C1781 H1769 0.950 . S
C1781 C1777 1.393 . S
C1781 C1780 1.391 . S
C1782 H1772 0.950 . S
C1782 C1783 1.386 . S
C1782 C1784 1.391 . S
C1783 C1782 1.386 . S
C1783 C1787 1.393 . S
C1784 H1773 0.950 . S
C1784 C1782 1.391 . S
C1784 C1785 1.400 . S
C1785 C1779 1.491 . S
C1785 C1784 1.400 . S
C1785 C1786 1.398 . S
C1786 H1774 0.950 . S
C1786 C1785 1.398 . S
C1786 C1787 1.391 . S
C1787 H1775 0.950 . S
C1787 C1783 1.393 . S
C1787 C1786 1.391 . S
H1788 C1796 0.950 . S
H1789 C1801 0.950 . S
H1790 C1798 0.950 . S
H1791 C1800 0.950 . S
H1792 C1802 0.950 . S
H1793 C1804 0.950 . S
H1794 C1806 0.950 . S
H1795 C1807 0.950 . S
C1796 H1788 0.950 . S
C1796 C1797 1.386 . S
C1796 C1798 1.391 . S
C1797 C1796 1.386 . S
C1797 C1801 1.393 . S
C1798 H1790 0.950 . S
C1798 C1796 1.391 . S
C1798 C1799 1.400 . S
C1799 C1798 1.400 . S
C1799 C1800 1.398 . S
C1799 C1805 1.491 . S
C1800 H1791 0.950 . S
C1800 C1799 1.398 . S
C1800 C1801 1.391 . S
C1801 H1789 0.950 . S
C1801 C1797 1.393 . S
C1801 C1800 1.391 . S
C1802 H1792 0.950 . S
C1802 C1803 1.386 . S
C1802 C1804 1.391 . S
C1803 C1802 1.386 . S
C1803 C1807 1.393 . S
C1804 H1793 0.950 . S
C1804 C1802 1.391 . S
C1804 C1805 1.400 . S
C1805 C1799 1.491 . S
C1805 C1804 1.400 . S
C1805 C1806 1.398 . S
C1806 H1794 0.950 . S
C1806 C1805 1.398 . S
C1806 C1807 1.391 . S
C1807 H1795 0.950 . S
C1807 C1803 1.393 . S
C1807 C1806 1.391 . S
H1808 C1816 0.950 . S
H1809 C1821 0.950 . S
H1810 C1818 0.950 . S
H1811 C1820 0.950 . S
H1812 C1822 0.950 . S
H1813 C1824 0.950 . S
H1814 C1826 0.950 . S
H1815 C1827 0.950 . S
C1816 H1808 0.950 . S
C1816 C1817 1.386 . S
C1816 C1818 1.391 . S
C1817 C1816 1.386 . S
C1817 C1821 1.393 . S
C1818 H1810 0.950 . S
C1818 C1816 1.391 . S
C1818 C1819 1.400 . S
C1819 C1818 1.400 . S
C1819 C1820 1.398 . S
C1819 C1825 1.491 . S
C1820 H1811 0.950 . S
C1820 C1819 1.398 . S
C1820 C1821 1.391 . S
C1821 H1809 0.950 . S
C1821 C1817 1.393 . S
C1821 C1820 1.391 . S
C1822 H1812 0.950 . S
C1822 C1823 1.386 . S
C1822 C1824 1.391 . S
C1823 C1822 1.386 . S
C1823 C1827 1.393 . S
C1824 H1813 0.950 . S
C1824 C1822 1.391 . S
C1824 C1825 1.400 . S
C1825 C1819 1.491 . S
C1825 C1824 1.400 . S
C1825 C1826 1.398 . S
C1826 H1814 0.950 . S
C1826 C1825 1.398 . S
C1826 C1827 1.391 . S
C1827 H1815 0.950 . S
C1827 C1823 1.393 . S
C1827 C1826 1.391 . S
H1828 C1836 0.950 . S
H1829 C1841 0.950 . S
H1830 C1838 0.950 . S
H1831 C1840 0.950 . S
H1832 C1842 0.950 . S
H1833 C1844 0.950 . S
H1834 C1846 0.950 . S
H1835 C1847 0.950 . S
C1836 H1828 0.950 . S
C1836 C1837 1.386 . S
C1836 C1838 1.391 . S
C1837 C1836 1.386 . S
C1837 C1841 1.393 . S
C1838 H1830 0.950 . S
C1838 C1836 1.391 . S
C1838 C1839 1.400 . S
C1839 C1838 1.400 . S
C1839 C1840 1.398 . S
C1839 C1845 1.491 . S
C1840 H1831 0.950 . S
C1840 C1839 1.398 . S
C1840 C1841 1.391 . S
C1841 H1829 0.950 . S
C1841 C1837 1.393 . S
C1841 C1840 1.391 . S
C1842 H1832 0.950 . S
C1842 C1843 1.386 . S
C1842 C1844 1.391 . S
C1843 C1842 1.386 . S
C1843 C1847 1.393 . S
C1844 H1833 0.950 . S
C1844 C1842 1.391 . S
C1844 C1845 1.400 . S
C1845 C1839 1.491 . S
C1845 C1844 1.400 . S
C1845 C1846 1.398 . S
C1846 H1834 0.950 . S
C1846 C1845 1.398 . S
C1846 C1847 1.391 . S
C1847 H1835 0.950 . S
C1847 C1843 1.393 . S
C1847 C1846 1.391 . S
H1848 C1856 0.950 . S
H1849 C1861 0.950 . S
H1850 C1858 0.950 . S
H1851 C1860 0.950 . S
H1852 C1862 0.950 . S
H1853 C1864 0.950 . S
H1854 C1866 0.950 . S
H1855 C1867 0.950 . S
C1856 H1848 0.950 . S
C1856 C1857 1.386 . S
C1856 C1858 1.391 . S
C1857 C1856 1.386 . S
C1857 C1861 1.393 . S
C1858 H1850 0.950 . S
C1858 C1856 1.391 . S
C1858 C1859 1.400 . S
C1859 C1858 1.400 . S
C1859 C1860 1.398 . S
C1859 C1865 1.491 . S
C1860 H1851 0.950 . S
C1860 C1859 1.398 . S
C1860 C1861 1.391 . S
C1861 H1849 0.950 . S
C1861 C1857 1.393 . S
C1861 C1860 1.391 . S
C1862 H1852 0.950 . S
C1862 C1863 1.386 . S
C1862 C1864 1.391 . S
C1863 C1862 1.386 . S
C1863 C1867 1.393 . S
C1864 H1853 0.950 . S
C1864 C1862 1.391 . S
C1864 C1865 1.400 . S
C1865 C1859 1.491 . S
C1865 C1864 1.400 . S
C1865 C1866 1.398 . S
C1866 H1854 0.950 . S
C1866 C1865 1.398 . S
C1866 C1867 1.391 . S
C1867 H1855 0.950 . S
C1867 C1863 1.393 . S
C1867 C1866 1.391 . S
H1868 C1876 0.950 . S
H1869 C1881 0.950 . S
H1870 C1878 0.950 . S
H1871 C1880 0.950 . S
H1872 C1882 0.950 . S
H1873 C1884 0.950 . S
H1874 C1886 0.950 . S
H1875 C1887 0.950 . S
C1876 H1868 0.950 . S
C1876 C1877 1.386 . S
C1876 C1878 1.391 . S
C1877 C1876 1.386 . S
C1877 C1881 1.393 . S
C1878 H1870 0.950 . S
C1878 C1876 1.391 . S
C1878 C1879 1.400 . S
C1879 C1878 1.400 . S
C1879 C1880 1.398 . S
C1879 C1885 1.491 . S
C1880 H1871 0.950 . S
C1880 C1879 1.398 . S
C1880 C1881 1.391 . S
C1881 H1869 0.950 . S
C1881 C1877 1.393 . S
C1881 C1880 1.391 . S
C1882 H1872 0.950 . S
C1882 C1883 1.386 . S
C1882 C1884 1.391 . S
C1883 C1882 1.386 . S
C1883 C1887 1.393 . S
C1884 H1873 0.950 . S
C1884 C1882 1.391 . S
C1884 C1885 1.400 . S
C1885 C1879 1.491 . S
C1885 C1884 1.400 . S
C1885 C1886 1.398 . S
C1886 H1874 0.950 . S
C1886 C1885 1.398 . S
C1886 C1887 1.391 . S
C1887 H1875 0.950 . S
C1887 C1883 1.393 . S
C1887 C1886 1.391 . S
H1888 C1896 0.950 . S
H1889 C1901 0.950 . S
H1890 C1898 0.950 . S
H1891 C1900 0.950 . S
H1892 C1902 0.950 . S
H1893 C1904 0.950 . S
H1894 C1906 0.950 . S
H1895 C1907 0.950 . S
C1896 H1888 0.950 . S
C1896 C1897 1.386 . S
C1896 C1898 1.391 . S
C1897 C1896 1.386 . S
C1897 C1901 1.393 . S
C1898 H1890 0.950 . S
C1898 C1896 1.391 . S
C1898 C1899 1.400 . S
C1899 C1898 1.400 . S
C1899 C1900 1.398 . S
C1899 C1905 1.491 . S
C1900 H1891 0.950 . S
C1900 C1899 1.398 . S
C1900 C1901 1.391 . S
C1901 H1889 0.950 . S
C1901 C1897 1.393 . S
C1901 C1900 1.391 . S
C1902 H1892 0.950 . S
C1902 C1903 1.386 . S
C1902 C1904 1.391 . S
C1903 C1902 1.386 . S
C1903 C1907 1.393 . S
C1904 H1893 0.950 . S
C1904 C1902 1.391 . S
C1904 C1905 1.400 . S
C1905 C1899 1.491 . S
C1905 C1904 1.400 . S
C1905 C1906 1.398 . S
C1906 H1894 0.950 . S
C1906 C1905 1.398 . S
C1906 C1907 1.391 . S
C1907 H1895 0.950 . S
C1907 C1903 1.393 . S
C1907 C1906 1.391 . S
H1908 C1916 0.950 . S
H1909 C1921 0.950 . S
H1910 C1918 0.950 . S
H1911 C1920 0.950 . S
H1912 C1922 0.950 . S
H1913 C1924 0.950 . S
H1914 C1926 0.950 . S
H1915 C1927 0.950 . S
C1916 H1908 0.950 . S
C1916 C1917 1.386 . S
C1916 C1918 1.391 . S
C1917 C1916 1.386 . S
C1917 C1921 1.393 . S
C1918 H1910 0.950 . S
C1918 C1916 1.391 . S
C1918 C1919 1.400 . S
C1919 C1918 1.400 . S
C1919 C1920 1.398 . S
C1919 C1925 1.491 . S
C1920 H1911 0.950 . S
C1920 C1919 1.398 . S
C1920 C1921 1.391 . S
C1921 H1909 0.950 . S
C1921 C1917 1.393 . S
C1921 C1920 1.391 . S
C1922 H1912 0.950 . S
C1922 C1923 1.386 . S
C1922 C1924 1.391 . S
C1923 C1922 1.386 . S
C1923 C1927 1.393 . S
C1924 H1913 0.950 . S
C1924 C1922 1.391 . S
C1924 C1925 1.400 . S
C1925 C1919 1.491 . S
C1925 C1924 1.400 . S
C1925 C1926 1.398 . S
C1926 H1914 0.950 . S
C1926 C1925 1.398 . S
C1926 C1927 1.391 . S
C1927 H1915 0.950 . S
C1927 C1923 1.393 . S
C1927 C1926 1.391 . S
H1928 C1936 0.950 . S
H1929 C1941 0.950 . S
H1930 C1938 0.950 . S
H1931 C1940 0.950 . S
H1932 C1942 0.950 . S
H1933 C1944 0.950 . S
H1934 C1946 0.950 . S
H1935 C1947 0.950 . S
C1936 H1928 0.950 . S
C1936 C1937 1.386 . S
C1936 C1938 1.391 . S
C1937 C1936 1.386 . S
C1937 C1941 1.393 . S
C1938 H1930 0.950 . S
C1938 C1936 1.391 . S
C1938 C1939 1.400 . S
C1939 C1938 1.400 . S
C1939 C1940 1.398 . S
C1939 C1945 1.491 . S
C1940 H1931 0.950 . S
C1940 C1939 1.398 . S
C1940 C1941 1.391 . S
C1941 H1929 0.950 . S
C1941 C1937 1.393 . S
C1941 C1940 1.391 . S
C1942 H1932 0.950 . S
C1942 C1943 1.386 . S
C1942 C1944 1.391 . S
C1943 C1942 1.386 . S
C1943 C1947 1.393 . S
C1944 H1933 0.950 . S
C1944 C1942 1.391 . S
C1944 C1945 1.400 . S
C1945 C1939 1.491 . S
C1945 C1944 1.400 . S
C1945 C1946 1.398 . S
C1946 H1934 0.950 . S
C1946 C1945 1.398 . S
C1946 C1947 1.391 . S
C1947 H1935 0.950 . S
C1947 C1943 1.393 . S
C1947 C1946 1.391 . S
H1948 C1956 0.950 . S
H1949 C1961 0.950 . S
H1950 C1958 0.950 . S
H1951 C1960 0.950 . S
H1952 C1962 0.950 . S
H1953 C1964 0.950 . S
H1954 C1966 0.950 . S
H1955 C1967 0.950 . S
C1956 H1948 0.950 . S
C1956 C1957 1.386 . S
C1956 C1958 1.391 . S
C1957 C1956 1.386 . S
C1957 C1961 1.393 . S
C1958 H1950 0.950 . S
C1958 C1956 1.391 . S
C1958 C1959 1.400 . S
C1959 C1958 1.400 . S
C1959 C1960 1.398 . S
C1959 C1965 1.491 . S
C1960 H1951 0.950 . S
C1960 C1959 1.398 . S
C1960 C1961 1.391 . S
C1961 H1949 0.950 . S
C1961 C1957 1.393 . S
C1961 C1960 1.391 . S
C1962 H1952 0.950 . S
C1962 C1963 1.386 . S
C1962 C1964 1.391 . S
C1963 C1962 1.386 . S
C1963 C1967 1.393 . S
C1964 H1953 0.950 . S
C1964 C1962 1.391 . S
C1964 C1965 1.400 . S
C1965 C1959 1.491 . S
C1965 C1964 1.400 . S
C1965 C1966 1.398 . S
C1966 H1954 0.950 . S
C1966 C1965 1.398 . S
C1966 C1967 1.391 . S
C1967 H1955 0.950 . S
C1967 C1963 1.393 . S
C1967 C1966 1.391 . S
H1968 C1976 0.950 . S
H1969 C1981 0.950 . S
H1970 C1978 0.950 . S
H1971 C1980 0.950 . S
H1972 C1982 0.950 . S
H1973 C1984 0.950 . S
H1974 C1986 0.950 . S
H1975 C1987 0.950 . S
C1976 H1968 0.950 . S
C1976 C1977 1.386 . S
C1976 C1978 1.391 . S
C1977 C1976 1.386 . S
C1977 C1981 1.393 . S
C1978 H1970 0.950 . S
C1978 C1976 1.391 . S
C1978 C1979 1.400 . S
C1979 C1978 1.400 . S
C1979 C1980 1.398 . S
C1979 C1985 1.491 . S
C1980 H1971 0.950 . S
C1980 C1979 1.398 . S
C1980 C1981 1.391 . S
C1981 H1969 0.950 . S
C1981 C1977 1.393 . S
C1981 C1980 1.391 . S
C1982 H1972 0.950 . S
C1982 C1983 1.386 . S
C1982 C1984 1.391 . S
C1983 C1982 1.386 . S
C1983 C1987 1.393 . S
C1984 H1973 0.950 . S
C1984 C1982 1.391 . S
C1984 C1985 1.400 . S
C1985 C1979 1.491 . S
C1985 C1984 1.400 . S
C1985 C1986 1.398 . S
C1986 H1974 0.950 . S
C1986 C1985 1.398 . S
C1986 C1987 1.391 . S
C1987 H1975 0.950 . S
C1987 C1983 1.393 . S
C1987 C1986 1.391 . S
H1988 C1996 0.950 . S
H1989 C2001 0.950 . S
H1990 C1998 0.950 . S
H1991 C2000 0.950 . S
H1992 C2002 0.950 . S
H1993 C2004 0.950 . S
H1994 C2006 0.950 . S
H1995 C2007 0.950 . S
C1996 H1988 0.950 . S
C1996 C1997 1.386 . S
C1996 C1998 1.391 . S
C1997 C1996 1.386 . S
C1997 C2001 1.393 . S
C1998 H1990 0.950 . S
C1998 C1996 1.391 . S
C1998 C1999 1.400 . S
C1999 C1998 1.400 . S
C1999 C2000 1.398 . S
C1999 C2005 1.491 . S
C2000 H1991 0.950 . S
C2000 C1999 1.398 . S
C2000 C2001 1.391 . S
C2001 H1989 0.950 . S
C2001 C1997 1.393 . S
C2001 C2000 1.391 . S
C2002 H1992 0.950 . S
C2002 C2003 1.386 . S
C2002 C2004 1.391 . S
C2003 C2002 1.386 . S
C2003 C2007 1.393 . S
C2004 H1993 0.950 . S
C2004 C2002 1.391 . S
C2004 C2005 1.400 . S
C2005 C1999 1.491 . S
C2005 C2004 1.400 . S
C2005 C2006 1.398 . S
C2006 H1994 0.950 . S
C2006 C2005 1.398 . S
C2006 C2007 1.391 . S
C2007 H1995 0.950 . S
C2007 C2003 1.393 . S
C2007 C2006 1.391 . S
H2008 C2016 0.950 . S
H2009 C2021 0.950 . S
H2010 C2018 0.950 . S
H2011 C2020 0.950 . S
H2012 C2022 0.950 . S
H2013 C2024 0.950 . S
H2014 C2026 0.950 . S
H2015 C2027 0.950 . S
C2016 H2008 0.950 . S
C2016 C2017 1.386 . S
C2016 C2018 1.391 . S
C2017 C2016 1.386 . S
C2017 C2021 1.393 . S
C2018 H2010 0.950 . S
C2018 C2016 1.391 . S
C2018 C2019 1.400 . S
C2019 C2018 1.400 . S
C2019 C2020 1.398 . S
C2019 C2025 1.491 . S
C2020 H2011 0.950 . S
C2020 C2019 1.398 . S
C2020 C2021 1.391 . S
C2021 H2009 0.950 . S
C2021 C2017 1.393 . S
C2021 C2020 1.391 . S
C2022 H2012 0.950 . S
C2022 C2023 1.386 . S
C2022 C2024 1.391 . S
C2023 C2022 1.386 . S
C2023 C2027 1.393 . S
C2024 H2013 0.950 . S
C2024 C2022 1.391 . S
C2024 C2025 1.400 . S
C2025 C2019 1.491 . S
C2025 C2024 1.400 . S
C2025 C2026 1.398 . S
C2026 H2014 0.950 . S
C2026 C2025 1.398 . S
C2026 C2027 1.391 . S
C2027 H2015 0.950 . S
C2027 C2023 1.393 . S
C2027 C2026 1.391 . S
H2028 C2036 0.950 . S
H2029 C2041 0.950 . S
H2030 C2038 0.950 . S
H2031 C2040 0.950 . S
H2032 C2042 0.950 . S
H2033 C2044 0.950 . S
H2034 C2046 0.950 . S
H2035 C2047 0.950 . S
C2036 H2028 0.950 . S
C2036 C2037 1.386 . S
C2036 C2038 1.391 . S
C2037 C2036 1.386 . S
C2037 C2041 1.393 . S
C2038 H2030 0.950 . S
C2038 C2036 1.391 . S
C2038 C2039 1.400 . S
C2039 C2038 1.400 . S
C2039 C2040 1.398 . S
C2039 C2045 1.491 . S
C2040 H2031 0.950 . S
C2040 C2039 1.398 . S
C2040 C2041 1.391 . S
C2041 H2029 0.950 . S
C2041 C2037 1.393 . S
C2041 C2040 1.391 . S
C2042 H2032 0.950 . S
C2042 C2043 1.386 . S
C2042 C2044 1.391 . S
C2043 C2042 1.386 . S
C2043 C2047 1.393 . S
C2044 H2033 0.950 . S
C2044 C2042 1.391 . S
C2044 C2045 1.400 . S
C2045 C2039 1.491 . S
C2045 C2044 1.400 . S
C2045 C2046 1.398 . S
C2046 H2034 0.950 . S
C2046 C2045 1.398 . S
C2046 C2047 1.391 . S
C2047 H2035 0.950 . S
C2047 C2043 1.393 . S
C2047 C2046 1.391 . S
H2048 C2056 0.950 . S
H2049 C2061 0.950 . S
H2050 C2058 0.950 . S
H2051 C2060 0.950 . S
H2052 C2062 0.950 . S
H2053 C2064 0.950 . S
H2054 C2066 0.950 . S
H2055 C2067 0.950 . S
C2056 H2048 0.950 . S
C2056 C2057 1.386 . S
C2056 C2058 1.391 . S
C2057 C2056 1.386 . S
C2057 C2061 1.393 . S
C2058 H2050 0.950 . S
C2058 C2056 1.391 . S
C2058 C2059 1.400 . S
C2059 C2058 1.400 . S
C2059 C2060 1.398 . S
C2059 C2065 1.491 . S
C2060 H2051 0.950 . S
C2060 C2059 1.398 . S
C2060 C2061 1.391 . S
C2061 H2049 0.950 . S
C2061 C2057 1.393 . S
C2061 C2060 1.391 . S
C2062 H2052 0.950 . S
C2062 C2063 1.386 . S
C2062 C2064 1.391 . S
C2063 C2062 1.386 . S
C2063 C2067 1.393 . S
C2064 H2053 0.950 . S
C2064 C2062 1.391 . S
C2064 C2065 1.400 . S
C2065 C2059 1.491 . S
C2065 C2064 1.400 . S
C2065 C2066 1.398 . S
C2066 H2054 0.950 . S
C2066 C2065 1.398 . S
C2066 C2067 1.391 . S
C2067 H2055 0.950 . S
C2067 C2063 1.393 . S
C2067 C2066 1.391 . S
H2068 C2076 0.950 . S
H2069 C2081 0.950 . S
H2070 C2078 0.950 . S
H2071 C2080 0.950 . S
H2072 C2082 0.950 . S
H2073 C2084 0.950 . S
H2074 C2086 0.950 . S
H2075 C2087 0.950 . S
C2076 H2068 0.950 . S
C2076 C2077 1.386 . S
C2076 C2078 1.391 . S
C2077 C2076 1.386 . S
C2077 C2081 1.393 . S
C2078 H2070 0.950 . S
C2078 C2076 1.391 . S
C2078 C2079 1.400 . S
C2079 C2078 1.400 . S
C2079 C2080 1.398 . S
C2079 C2085 1.491 . S
C2080 H2071 0.950 . S
C2080 C2079 1.398 . S
C2080 C2081 1.391 . S
C2081 H2069 0.950 . S
C2081 C2077 1.393 . S
C2081 C2080 1.391 . S
C2082 H2072 0.950 . S
C2082 C2083 1.386 . S
C2082 C2084 1.391 . S
C2083 C2082 1.386 . S
C2083 C2087 1.393 . S
C2084 H2073 0.950 . S
C2084 C2082 1.391 . S
C2084 C2085 1.400 . S
C2085 C2079 1.491 . S
C2085 C2084 1.400 . S
C2085 C2086 1.398 . S
C2086 H2074 0.950 . S
C2086 C2085 1.398 . S
C2086 C2087 1.391 . S
C2087 H2075 0.950 . S
C2087 C2083 1.393 . S
C2087 C2086 1.391 . S
H2088 C2096 0.950 . S
H2089 C2101 0.950 . S
H2090 C2098 0.950 . S
H2091 C2100 0.950 . S
H2092 C2102 0.950 . S
H2093 C2104 0.950 . S
H2094 C2106 0.950 . S
H2095 C2107 0.950 . S
C2096 H2088 0.950 . S
C2096 C2097 1.386 . S
C2096 C2098 1.391 . S
C2097 C2096 1.386 . S
C2097 C2101 1.393 . S
C2098 H2090 0.950 . S
C2098 C2096 1.391 . S
C2098 C2099 1.400 . S
C2099 C2098 1.400 . S
C2099 C2100 1.398 . S
C2099 C2105 1.491 . S
C2100 H2091 0.950 . S
C2100 C2099 1.398 . S
C2100 C2101 1.391 . S
C2101 H2089 0.950 . S
C2101 C2097 1.393 . S
C2101 C2100 1.391 . S
C2102 H2092 0.950 . S
C2102 C2103 1.386 . S
C2102 C2104 1.391 . S
C2103 C2102 1.386 . S
C2103 C2107 1.393 . S
C2104 H2093 0.950 . S
C2104 C2102 1.391 . S
C2104 C2105 1.400 . S
C2105 C2099 1.491 . S
C2105 C2104 1.400 . S
C2105 C2106 1.398 . S
C2106 H2094 0.950 . S
C2106 C2105 1.398 . S
C2106 C2107 1.391 . S
C2107 H2095 0.950 . S
C2107 C2103 1.393 . S
C2107 C2106 1.391 . S
H2108 C2116 0.950 . S
H2109 C2121 0.950 . S
H2110 C2118 0.950 . S
H2111 C2120 0.950 . S
H2112 C2122 0.950 . S
H2113 C2124 0.950 . S
H2114 C2126 0.950 . S
H2115 C2127 0.950 . S
C2116 H2108 0.950 . S
C2116 C2117 1.386 . S
C2116 C2118 1.391 . S
C2117 C2116 1.386 . S
C2117 C2121 1.393 . S
C2118 H2110 0.950 . S
C2118 C2116 1.391 . S
C2118 C2119 1.400 . S
C2119 C2118 1.400 . S
C2119 C2120 1.398 . S
C2119 C2125 1.491 . S
C2120 H2111 0.950 . S
C2120 C2119 1.398 . S
C2120 C2121 1.391 . S
C2121 H2109 0.950 . S
C2121 C2117 1.393 . S
C2121 C2120 1.391 . S
C2122 H2112 0.950 . S
C2122 C2123 1.386 . S
C2122 C2124 1.391 . S
C2123 C2122 1.386 . S
C2123 C2127 1.393 . S
C2124 H2113 0.950 . S
C2124 C2122 1.391 . S
C2124 C2125 1.400 . S
C2125 C2119 1.491 . S
C2125 C2124 1.400 . S
C2125 C2126 1.398 . S
C2126 H2114 0.950 . S
C2126 C2125 1.398 . S
C2126 C2127 1.391 . S
C2127 H2115 0.950 . S
C2127 C2123 1.393 . S
C2127 C2126 1.391 . S
H2128 C2136 0.950 . S
H2129 C2141 0.950 . S
H2130 C2138 0.950 . S
H2131 C2140 0.950 . S
H2132 C2142 0.950 . S
H2133 C2144 0.950 . S
H2134 C2146 0.950 . S
H2135 C2147 0.950 . S
C2136 H2128 0.950 . S
C2136 C2137 1.386 . S
C2136 C2138 1.391 . S
C2137 C2136 1.386 . S
C2137 C2141 1.393 . S
C2138 H2130 0.950 . S
C2138 C2136 1.391 . S
C2138 C2139 1.400 . S
C2139 C2138 1.400 . S
C2139 C2140 1.398 . S
C2139 C2145 1.491 . S
C2140 H2131 0.950 . S
C2140 C2139 1.398 . S
C2140 C2141 1.391 . S
C2141 H2129 0.950 . S
C2141 C2137 1.393 . S
C2141 C2140 1.391 . S
C2142 H2132 0.950 . S
C2142 C2143 1.386 . S
C2142 C2144 1.391 . S
C2143 C2142 1.386 . S
C2143 C2147 1.393 . S
C2144 H2133 0.950 . S
C2144 C2142 1.391 . S
C2144 C2145 1.400 . S
C2145 C2139 1.491 . S
C2145 C2144 1.400 . S
C2145 C2146 1.398 . S
C2146 H2134 0.950 . S
C2146 C2145 1.398 . S
C2146 C2147 1.391 . S
C2147 H2135 0.950 . S
C2147 C2143 1.393 . S
C2147 C2146 1.391 . S
H2148 C2156 0.950 . S
H2149 C2161 0.950 . S
H2150 C2158 0.950 . S
H2151 C2160 0.950 . S
H2152 C2162 0.950 . S
H2153 C2164 0.950 . S
H2154 C2166 0.950 . S
H2155 C2167 0.950 . S
C2156 H2148 0.950 . S
C2156 C2157 1.386 . S
C2156 C2158 1.391 . S
C2157 C2156 1.386 . S
C2157 C2161 1.393 . S
C2158 H2150 0.950 . S
C2158 C2156 1.391 . S
C2158 C2159 1.400 . S
C2159 C2158 1.400 . S
C2159 C2160 1.398 . S
C2159 C2165 1.491 . S
C2160 H2151 0.950 . S
C2160 C2159 1.398 . S
C2160 C2161 1.391 . S
C2161 H2149 0.950 . S
C2161 C2157 1.393 . S
C2161 C2160 1.391 . S
C2162 H2152 0.950 . S
C2162 C2163 1.386 . S
C2162 C2164 1.391 . S
C2163 C2162 1.386 . S
C2163 C2167 1.393 . S
C2164 H2153 0.950 . S
C2164 C2162 1.391 . S
C2164 C2165 1.400 . S
C2165 C2159 1.491 . S
C2165 C2164 1.400 . S
C2165 C2166 1.398 . S
C2166 H2154 0.950 . S
C2166 C2165 1.398 . S
C2166 C2167 1.391 . S
C2167 H2155 0.950 . S
C2167 C2163 1.393 . S
C2167 C2166 1.391 . S
H2168 C2176 0.950 . S
H2169 C2181 0.950 . S
H2170 C2178 0.950 . S
H2171 C2180 0.950 . S
H2172 C2182 0.950 . S
H2173 C2184 0.950 . S
H2174 C2186 0.950 . S
H2175 C2187 0.950 . S
C2176 H2168 0.950 . S
C2176 C2177 1.386 . S
C2176 C2178 1.391 . S
C2177 C2176 1.386 . S
C2177 C2181 1.393 . S
C2178 H2170 0.950 . S
C2178 C2176 1.391 . S
C2178 C2179 1.400 . S
C2179 C2178 1.400 . S
C2179 C2180 1.398 . S
C2179 C2185 1.491 . S
C2180 H2171 0.950 . S
C2180 C2179 1.398 . S
C2180 C2181 1.391 . S
C2181 H2169 0.950 . S
C2181 C2177 1.393 . S
C2181 C2180 1.391 . S
C2182 H2172 0.950 . S
C2182 C2183 1.386 . S
C2182 C2184 1.391 . S
C2183 C2182 1.386 . S
C2183 C2187 1.393 . S
C2184 H2173 0.950 . S
C2184 C2182 1.391 . S
C2184 C2185 1.400 . S
C2185 C2179 1.491 . S
C2185 C2184 1.400 . S
C2185 C2186 1.398 . S
C2186 H2174 0.950 . S
C2186 C2185 1.398 . S
C2186 C2187 1.391 . S
C2187 H2175 0.950 . S
C2187 C2183 1.393 . S
C2187 C2186 1.391 . S
H2188 C2196 0.950 . S
H2189 C2201 0.950 . S
H2190 C2198 0.950 . S
H2191 C2200 0.950 . S
H2192 C2202 0.950 . S
H2193 C2204 0.950 . S
H2194 C2206 0.950 . S
H2195 C2207 0.950 . S
C2196 H2188 0.950 . S
C2196 C2197 1.386 . S
C2196 C2198 1.391 . S
C2197 C2196 1.386 . S
C2197 C2201 1.393 . S
C2198 H2190 0.950 . S
C2198 C2196 1.391 . S
C2198 C2199 1.400 . S
C2199 C2198 1.400 . S
C2199 C2200 1.398 . S
C2199 C2205 1.491 . S
C2200 H2191 0.950 . S
C2200 C2199 1.398 . S
C2200 C2201 1.391 . S
C2201 H2189 0.950 . S
C2201 C2197 1.393 . S
C2201 C2200 1.391 . S
C2202 H2192 0.950 . S
C2202 C2203 1.386 . S
C2202 C2204 1.391 . S
C2203 C2202 1.386 . S
C2203 C2207 1.393 . S
C2204 H2193 0.950 . S
C2204 C2202 1.391 . S
C2204 C2205 1.400 . S
C2205 C2199 1.491 . S
C2205 C2204 1.400 . S
C2205 C2206 1.398 . S
C2206 H2194 0.950 . S
C2206 C2205 1.398 . S
C2206 C2207 1.391 . S
C2207 H2195 0.950 . S
C2207 C2203 1.393 . S
C2207 C2206 1.391 . S
H2208 C2216 0.950 . S
H2209 C2221 0.950 . S
H2210 C2218 0.950 . S
H2211 C2220 0.950 . S
H2212 C2222 0.950 . S
H2213 C2224 0.950 . S
H2214 C2226 0.950 . S
H2215 C2227 0.950 . S
C2216 H2208 0.950 . S
C2216 C2217 1.386 . S
C2216 C2218 1.391 . S
C2217 C2216 1.386 . S
C2217 C2221 1.393 . S
C2218 H2210 0.950 . S
C2218 C2216 1.391 . S
C2218 C2219 1.400 . S
C2219 C2218 1.400 . S
C2219 C2220 1.398 . S
C2219 C2225 1.491 . S
C2220 H2211 0.950 . S
C2220 C2219 1.398 . S
C2220 C2221 1.391 . S
C2221 H2209 0.950 . S
C2221 C2217 1.393 . S
C2221 C2220 1.391 . S
C2222 H2212 0.950 . S
C2222 C2223 1.386 . S
C2222 C2224 1.391 . S
C2223 C2222 1.386 . S
C2223 C2227 1.393 . S
C2224 H2213 0.950 . S
C2224 C2222 1.391 . S
C2224 C2225 1.400 . S
C2225 C2219 1.491 . S
C2225 C2224 1.400 . S
C2225 C2226 1.398 . S
C2226 H2214 0.950 . S
C2226 C2225 1.398 . S
C2226 C2227 1.391 . S
C2227 H2215 0.950 . S
C2227 C2223 1.393 . S
C2227 C2226 1.391 . S
H2228 C2236 0.950 . S
H2229 C2241 0.950 . S
H2230 C2238 0.950 . S
H2231 C2240 0.950 . S
H2232 C2242 0.950 . S
H2233 C2244 0.950 . S
H2234 C2246 0.950 . S
H2235 C2247 0.950 . S
C2236 H2228 0.950 . S
C2236 C2237 1.386 . S
C2236 C2238 1.391 . S
C2237 C2236 1.386 . S
C2237 C2241 1.393 . S
C2238 H2230 0.950 . S
C2238 C2236 1.391 . S
C2238 C2239 1.400 . S
C2239 C2238 1.400 . S
C2239 C2240 1.398 . S
C2239 C2245 1.491 . S
C2240 H2231 0.950 . S
C2240 C2239 1.398 . S
C2240 C2241 1.391 . S
C2241 H2229 0.950 . S
C2241 C2237 1.393 . S
C2241 C2240 1.391 . S
C2242 H2232 0.950 . S
C2242 C2243 1.386 . S
C2242 C2244 1.391 . S
C2243 C2242 1.386 . S
C2243 C2247 1.393 . S
C2244 H2233 0.950 . S
C2244 C2242 1.391 . S
C2244 C2245 1.400 . S
C2245 C2239 1.491 . S
C2245 C2244 1.400 . S
C2245 C2246 1.398 . S
C2246 H2234 0.950 . S
C2246 C2245 1.398 . S
C2246 C2247 1.391 . S
C2247 H2235 0.950 . S
C2247 C2243 1.393 . S
C2247 C2246 1.391 . S
H2248 C2256 0.950 . S
H2249 C2261 0.950 . S
H2250 C2258 0.950 . S
H2251 C2260 0.950 . S
H2252 C2262 0.950 . S
H2253 C2264 0.950 . S
H2254 C2266 0.950 . S
H2255 C2267 0.950 . S
C2256 H2248 0.950 . S
C2256 C2257 1.386 . S
C2256 C2258 1.391 . S
C2257 C2256 1.386 . S
C2257 C2261 1.393 . S
C2258 H2250 0.950 . S
C2258 C2256 1.391 . S
C2258 C2259 1.400 . S
C2259 C2258 1.400 . S
C2259 C2260 1.398 . S
C2259 C2265 1.491 . S
C2260 H2251 0.950 . S
C2260 C2259 1.398 . S
C2260 C2261 1.391 . S
C2261 H2249 0.950 . S
C2261 C2257 1.393 . S
C2261 C2260 1.391 . S
C2262 H2252 0.950 . S
C2262 C2263 1.386 . S
C2262 C2264 1.391 . S
C2263 C2262 1.386 . S
C2263 C2267 1.393 . S
C2264 H2253 0.950 . S
C2264 C2262 1.391 . S
C2264 C2265 1.400 . S
C2265 C2259 1.491 . S
C2265 C2264 1.400 . S
C2265 C2266 1.398 . S
C2266 H2254 0.950 . S
C2266 C2265 1.398 . S
C2266 C2267 1.391 . S
C2267 H2255 0.950 . S
C2267 C2263 1.393 . S
C2267 C2266 1.391 . S
H2268 C2276 0.950 . S
H2269 C2281 0.950 . S
H2270 C2278 0.950 . S
H2271 C2280 0.950 . S
H2272 C2282 0.950 . S
H2273 C2284 0.950 . S
H2274 C2286 0.950 . S
H2275 C2287 0.950 . S
C2276 H2268 0.950 . S
C2276 C2277 1.386 . S
C2276 C2278 1.391 . S
C2277 C2276 1.386 . S
C2277 C2281 1.393 . S
C2278 H2270 0.950 . S
C2278 C2276 1.391 . S
C2278 C2279 1.400 . S
C2279 C2278 1.400 . S
C2279 C2280 1.398 . S
C2279 C2285 1.491 . S
C2280 H2271 0.950 . S
C2280 C2279 1.398 . S
C2280 C2281 1.391 . S
C2281 H2269 0.950 . S
C2281 C2277 1.393 . S
C2281 C2280 1.391 . S
C2282 H2272 0.950 . S
C2282 C2283 1.386 . S
C2282 C2284 1.391 . S
C2283 C2282 1.386 . S
C2283 C2287 1.393 . S
C2284 H2273 0.950 . S
C2284 C2282 1.391 . S
C2284 C2285 1.400 . S
C2285 C2279 1.491 . S
C2285 C2284 1.400 . S
C2285 C2286 1.398 . S
C2286 H2274 0.950 . S
C2286 C2285 1.398 . S
C2286 C2287 1.391 . S
C2287 H2275 0.950 . S
C2287 C2283 1.393 . S
C2287 C2286 1.391 . S
H2288 C2296 0.950 . S
H2289 C2301 0.950 . S
H2290 C2298 0.950 . S
H2291 C2300 0.950 . S
H2292 C2302 0.950 . S
H2293 C2304 0.950 . S
H2294 C2306 0.950 . S
H2295 C2307 0.950 . S
C2296 H2288 0.950 . S
C2296 C2297 1.386 . S
C2296 C2298 1.391 . S
C2297 C2296 1.386 . S
C2297 C2301 1.393 . S
C2298 H2290 0.950 . S
C2298 C2296 1.391 . S
C2298 C2299 1.400 . S
C2299 C2298 1.400 . S
C2299 C2300 1.398 . S
C2299 C2305 1.491 . S
C2300 H2291 0.950 . S
C2300 C2299 1.398 . S
C2300 C2301 1.391 . S
C2301 H2289 0.950 . S
C2301 C2297 1.393 . S
C2301 C2300 1.391 . S
C2302 H2292 0.950 . S
C2302 C2303 1.386 . S
C2302 C2304 1.391 . S
C2303 C2302 1.386 . S
C2303 C2307 1.393 . S
C2304 H2293 0.950 . S
C2304 C2302 1.391 . S
C2304 C2305 1.400 . S
C2305 C2299 1.491 . S
C2305 C2304 1.400 . S
C2305 C2306 1.398 . S
C2306 H2294 0.950 . S
C2306 C2305 1.398 . S
C2306 C2307 1.391 . S
C2307 H2295 0.950 . S
C2307 C2303 1.393 . S
C2307 C2306 1.391 . S
H2308 C2316 0.950 . S
H2309 C2321 0.950 . S
H2310 C2318 0.950 . S
H2311 C2320 0.950 . S
H2312 C2322 0.950 . S
H2313 C2324 0.950 . S
H2314 C2326 0.950 . S
H2315 C2327 0.950 . S
C2316 H2308 0.950 . S
C2316 C2317 1.386 . S
C2316 C2318 1.391 . S
C2317 C2316 1.386 . S
C2317 C2321 1.393 . S
C2318 H2310 0.950 . S
C2318 C2316 1.391 . S
C2318 C2319 1.400 . S
C2319 C2318 1.400 . S
C2319 C2320 1.398 . S
C2319 C2325 1.491 . S
C2320 H2311 0.950 . S
C2320 C2319 1.398 . S
C2320 C2321 1.391 . S
C2321 H2309 0.950 . S
C2321 C2317 1.393 . S
C2321 C2320 1.391 . S
C2322 H2312 0.950 . S
C2322 C2323 1.386 . S
C2322 C2324 1.391 . S
C2323 C2322 1.386 . S
C2323 C2327 1.393 . S
C2324 H2313 0.950 . S
C2324 C2322 1.391 . S
C2324 C2325 1.400 . S
C2325 C2319 1.491 . S
C2325 C2324 1.400 . S
C2325 C2326 1.398 . S
C2326 H2314 0.950 . S
C2326 C2325 1.398 . S
C2326 C2327 1.391 . S
C2327 H2315 0.950 . S
C2327 C2323 1.393 . S
C2327 C2326 1.391 . S
H2328 C2336 0.950 . S
H2329 C2341 0.950 . S
H2330 C2338 0.950 . S
H2331 C2340 0.950 . S
H2332 C2342 0.950 . S
H2333 C2344 0.950 . S
H2334 C2346 0.950 . S
H2335 C2347 0.950 . S
C2336 H2328 0.950 . S
C2336 C2337 1.386 . S
C2336 C2338 1.391 . S
C2337 C2336 1.386 . S
C2337 C2341 1.393 . S
C2338 H2330 0.950 . S
C2338 C2336 1.391 . S
C2338 C2339 1.400 . S
C2339 C2338 1.400 . S
C2339 C2340 1.398 . S
C2339 C2345 1.491 . S
C2340 H2331 0.950 . S
C2340 C2339 1.398 . S
C2340 C2341 1.391 . S
C2341 H2329 0.950 . S
C2341 C2337 1.393 . S
C2341 C2340 1.391 . S
C2342 H2332 0.950 . S
C2342 C2343 1.386 . S
C2342 C2344 1.391 . S
C2343 C2342 1.386 . S
C2343 C2347 1.393 . S
C2344 H2333 0.950 . S
C2344 C2342 1.391 . S
C2344 C2345 1.400 . S
C2345 C2339 1.491 . S
C2345 C2344 1.400 . S
C2345 C2346 1.398 . S
C2346 H2334 0.950 . S
C2346 C2345 1.398 . S
C2346 C2347 1.391 . S
C2347 H2335 0.950 . S
C2347 C2343 1.393 . S
C2347 C2346 1.391 . S
H2348 C2356 0.950 . S
H2349 C2361 0.950 . S
H2350 C2358 0.950 . S
H2351 C2360 0.950 . S
H2352 C2362 0.950 . S
H2353 C2364 0.950 . S
H2354 C2366 0.950 . S
H2355 C2367 0.950 . S
C2356 H2348 0.950 . S
C2356 C2357 1.386 . S
C2356 C2358 1.391 . S
C2357 C2356 1.386 . S
C2357 C2361 1.393 . S
C2358 H2350 0.950 . S
C2358 C2356 1.391 . S
C2358 C2359 1.400 . S
C2359 C2358 1.400 . S
C2359 C2360 1.398 . S
C2359 C2365 1.491 . S
C2360 H2351 0.950 . S
C2360 C2359 1.398 . S
C2360 C2361 1.391 . S
C2361 H2349 0.950 . S
C2361 C2357 1.393 . S
C2361 C2360 1.391 . S
C2362 H2352 0.950 . S
C2362 C2363 1.386 . S
C2362 C2364 1.391 . S
C2363 C2362 1.386 . S
C2363 C2367 1.393 . S
C2364 H2353 0.950 . S
C2364 C2362 1.391 . S
C2364 C2365 1.400 . S
C2365 C2359 1.491 . S
C2365 C2364 1.400 . S
C2365 C2366 1.398 . S
C2366 H2354 0.950 . S
C2366 C2365 1.398 . S
C2366 C2367 1.391 . S
C2367 H2355 0.950 . S
C2367 C2363 1.393 . S
C2367 C2366 1.391 . S
H2368 C2376 0.950 . S
H2369 C2381 0.950 . S
H2370 C2378 0.950 . S
H2371 C2380 0.950 . S
H2372 C2382 0.950 . S
H2373 C2384 0.950 . S
H2374 C2386 0.950 . S
H2375 C2387 0.950 . S
C2376 H2368 0.950 . S
C2376 C2377 1.386 . S
C2376 C2378 1.391 . S
C2377 C2376 1.386 . S
C2377 C2381 1.393 . S
C2378 H2370 0.950 . S
C2378 C2376 1.391 . S
C2378 C2379 1.400 . S
C2379 C2378 1.400 . S
C2379 C2380 1.398 . S
C2379 C2385 1.491 . S
C2380 H2371 0.950 . S
C2380 C2379 1.398 . S
C2380 C2381 1.391 . S
C2381 H2369 0.950 . S
C2381 C2377 1.393 . S
C2381 C2380 1.391 . S
C2382 H2372 0.950 . S
C2382 C2383 1.386 . S
C2382 C2384 1.391 . S
C2383 C2382 1.386 . S
C2383 C2387 1.393 . S
C2384 H2373 0.950 . S
C2384 C2382 1.391 . S
C2384 C2385 1.400 . S
C2385 C2379 1.491 . S
C2385 C2384 1.400 . S
C2385 C2386 1.398 . S
C2386 H2374 0.950 . S
C2386 C2385 1.398 . S
C2386 C2387 1.391 . S
C2387 H2375 0.950 . S
C2387 C2383 1.393 . S
C2387 C2386 1.391 . S
H2388 C2396 0.950 . S
H2389 C2401 0.950 . S
H2390 C2398 0.950 . S
H2391 C2400 0.950 . S
H2392 C2402 0.950 . S
H2393 C2404 0.950 . S
H2394 C2406 0.950 . S
H2395 C2407 0.950 . S
C2396 H2388 0.950 . S
C2396 C2397 1.386 . S
C2396 C2398 1.391 . S
C2397 C2396 1.386 . S
C2397 C2401 1.393 . S
C2398 H2390 0.950 . S
C2398 C2396 1.391 . S
C2398 C2399 1.400 . S
C2399 C2398 1.400 . S
C2399 C2400 1.398 . S
C2399 C2405 1.491 . S
C2400 H2391 0.950 . S
C2400 C2399 1.398 . S
C2400 C2401 1.391 . S
C2401 H2389 0.950 . S
C2401 C2397 1.393 . S
C2401 C2400 1.391 . S
C2402 H2392 0.950 . S
C2402 C2403 1.386 . S
C2402 C2404 1.391 . S
C2403 C2402 1.386 . S
C2403 C2407 1.393 . S
C2404 H2393 0.950 . S
C2404 C2402 1.391 . S
C2404 C2405 1.400 . S
C2405 C2399 1.491 . S
C2405 C2404 1.400 . S
C2405 C2406 1.398 . S
C2406 H2394 0.950 . S
C2406 C2405 1.398 . S
C2406 C2407 1.391 . S
C2407 H2395 0.950 . S
C2407 C2403 1.393 . S
C2407 C2406 1.391 . S
H2408 C2416 0.950 . S
H2409 C2421 0.950 . S
H2410 C2418 0.950 . S
H2411 C2420 0.950 . S
H2412 C2422 0.950 . S
H2413 C2424 0.950 . S
H2414 C2426 0.950 . S
H2415 C2427 0.950 . S
C2416 H2408 0.950 . S
C2416 C2417 1.386 . S
C2416 C2418 1.391 . S
C2417 C2416 1.386 . S
C2417 C2421 1.393 . S
C2418 H2410 0.950 . S
C2418 C2416 1.391 . S
C2418 C2419 1.400 . S
C2419 C2418 1.400 . S
C2419 C2420 1.398 . S
C2419 C2425 1.491 . S
C2420 H2411 0.950 . S
C2420 C2419 1.398 . S
C2420 C2421 1.391 . S
C2421 H2409 0.950 . S
C2421 C2417 1.393 . S
C2421 C2420 1.391 . S
C2422 H2412 0.950 . S
C2422 C2423 1.386 . S
C2422 C2424 1.391 . S
C2423 C2422 1.386 . S
C2423 C2427 1.393 . S
C2424 H2413 0.950 . S
C2424 C2422 1.391 . S
C2424 C2425 1.400 . S
C2425 C2419 1.491 . S
C2425 C2424 1.400 . S
C2425 C2426 1.398 . S
C2426 H2414 0.950 . S
C2426 C2425 1.398 . S
C2426 C2427 1.391 . S
C2427 H2415 0.950 . S
C2427 C2423 1.393 . S
C2427 C2426 1.391 . S
H2428 C2436 0.950 . S
H2429 C2441 0.950 . S
H2430 C2438 0.950 . S
H2431 C2440 0.950 . S
H2432 C2442 0.950 . S
H2433 C2444 0.950 . S
H2434 C2446 0.950 . S
H2435 C2447 0.950 . S
C2436 H2428 0.950 . S
C2436 C2437 1.386 . S
C2436 C2438 1.391 . S
C2437 C2436 1.386 . S
C2437 C2441 1.393 . S
C2438 H2430 0.950 . S
C2438 C2436 1.391 . S
C2438 C2439 1.400 . S
C2439 C2438 1.400 . S
C2439 C2440 1.398 . S
C2439 C2445 1.491 . S
C2440 H2431 0.950 . S
C2440 C2439 1.398 . S
C2440 C2441 1.391 . S
C2441 H2429 0.950 . S
C2441 C2437 1.393 . S
C2441 C2440 1.391 . S
C2442 H2432 0.950 . S
C2442 C2443 1.386 . S
C2442 C2444 1.391 . S
C2443 C2442 1.386 . S
C2443 C2447 1.393 . S
C2444 H2433 0.950 . S
C2444 C2442 1.391 . S
C2444 C2445 1.400 . S
C2445 C2439 1.491 . S
C2445 C2444 1.400 . S
C2445 C2446 1.398 . S
C2446 H2434 0.950 . S
C2446 C2445 1.398 . S
C2446 C2447 1.391 . S
C2447 H2435 0.950 . S
C2447 C2443 1.393 . S
C2447 C2446 1.391 . S
H2448 C2456 0.950 . S
H2449 C2461 0.950 . S
H2450 C2458 0.950 . S
H2451 C2460 0.950 . S
H2452 C2462 0.950 . S
H2453 C2464 0.950 . S
H2454 C2466 0.950 . S
H2455 C2467 0.950 . S
C2456 H2448 0.950 . S
C2456 C2457 1.386 . S
C2456 C2458 1.391 . S
C2457 C2456 1.386 . S
C2457 C2461 1.393 . S
C2458 H2450 0.950 . S
C2458 C2456 1.391 . S
C2458 C2459 1.400 . S
C2459 C2458 1.400 . S
C2459 C2460 1.398 . S
C2459 C2465 1.491 . S
C2460 H2451 0.950 . S
C2460 C2459 1.398 . S
C2460 C2461 1.391 . S
C2461 H2449 0.950 . S
C2461 C2457 1.393 . S
C2461 C2460 1.391 . S
C2462 H2452 0.950 . S
C2462 C2463 1.386 . S
C2462 C2464 1.391 . S
C2463 C2462 1.386 . S
C2463 C2467 1.393 . S
C2464 H2453 0.950 . S
C2464 C2462 1.391 . S
C2464 C2465 1.400 . S
C2465 C2459 1.491 . S
C2465 C2464 1.400 . S
C2465 C2466 1.398 . S
C2466 H2454 0.950 . S
C2466 C2465 1.398 . S
C2466 C2467 1.391 . S
C2467 H2455 0.950 . S
C2467 C2463 1.393 . S
C2467 C2466 1.391 . S
H2468 C2476 0.950 . S
H2469 C2481 0.950 . S
H2470 C2478 0.950 . S
H2471 C2480 0.950 . S
H2472 C2482 0.950 . S
H2473 C2484 0.950 . S
H2474 C2486 0.950 . S
H2475 C2487 0.950 . S
C2476 H2468 0.950 . S
C2476 C2477 1.386 . S
C2476 C2478 1.391 . S
C2477 C2476 1.386 . S
C2477 C2481 1.393 . S
C2478 H2470 0.950 . S
C2478 C2476 1.391 . S
C2478 C2479 1.400 . S
C2479 C2478 1.400 . S
C2479 C2480 1.398 . S
C2479 C2485 1.491 . S
C2480 H2471 0.950 . S
C2480 C2479 1.398 . S
C2480 C2481 1.391 . S
C2481 H2469 0.950 . S
C2481 C2477 1.393 . S
C2481 C2480 1.391 . S
C2482 H2472 0.950 . S
C2482 C2483 1.386 . S
C2482 C2484 1.391 . S
C2483 C2482 1.386 . S
C2483 C2487 1.393 . S
C2484 H2473 0.950 . S
C2484 C2482 1.391 . S
C2484 C2485 1.400 . S
C2485 C2479 1.491 . S
C2485 C2484 1.400 . S
C2485 C2486 1.398 . S
C2486 H2474 0.950 . S
C2486 C2485 1.398 . S
C2486 C2487 1.391 . S
C2487 H2475 0.950 . S
C2487 C2483 1.393 . S
C2487 C2486 1.391 . S
H2488 C2496 0.950 . S
H2489 C2501 0.950 . S
H2490 C2498 0.950 . S
H2491 C2500 0.950 . S
H2492 C2502 0.950 . S
H2493 C2504 0.950 . S
H2494 C2506 0.950 . S
H2495 C2507 0.950 . S
C2496 H2488 0.950 . S
C2496 C2497 1.386 . S
C2496 C2498 1.391 . S
C2497 C2496 1.386 . S
C2497 C2501 1.393 . S
C2498 H2490 0.950 . S
C2498 C2496 1.391 . S
C2498 C2499 1.400 . S
C2499 C2498 1.400 . S
C2499 C2500 1.398 . S
C2499 C2505 1.491 . S
C2500 H2491 0.950 . S
C2500 C2499 1.398 . S
C2500 C2501 1.391 . S
C2501 H2489 0.950 . S
C2501 C2497 1.393 . S
C2501 C2500 1.391 . S
C2502 H2492 0.950 . S
C2502 C2503 1.386 . S
C2502 C2504 1.391 . S
C2503 C2502 1.386 . S
C2503 C2507 1.393 . S
C2504 H2493 0.950 . S
C2504 C2502 1.391 . S
C2504 C2505 1.400 . S
C2505 C2499 1.491 . S
C2505 C2504 1.400 . S
C2505 C2506 1.398 . S
C2506 H2494 0.950 . S
C2506 C2505 1.398 . S
C2506 C2507 1.391 . S
C2507 H2495 0.950 . S
C2507 C2503 1.393 . S
C2507 C2506 1.391 . S
H2508 C2516 0.950 . S
H2509 C2521 0.950 . S
H2510 C2518 0.950 . S
H2511 C2520 0.950 . S
H2512 C2522 0.950 . S
H2513 C2524 0.950 . S
H2514 C2526 0.950 . S
H2515 C2527 0.950 . S
C2516 H2508 0.950 . S
C2516 C2517 1.386 . S
C2516 C2518 1.391 . S
C2517 C2516 1.386 . S
C2517 C2521 1.393 . S
C2518 H2510 0.950 . S
C2518 C2516 1.391 . S
C2518 C2519 1.400 . S
C2519 C2518 1.400 . S
C2519 C2520 1.398 . S
C2519 C2525 1.491 . S
C2520 H2511 0.950 . S
C2520 C2519 1.398 . S
C2520 C2521 1.391 . S
C2521 H2509 0.950 . S
C2521 C2517 1.393 . S
C2521 C2520 1.391 . S
C2522 H2512 0.950 . S
C2522 C2523 1.386 . S
C2522 C2524 1.391 . S
C2523 C2522 1.386 . S
C2523 C2527 1.393 . S
C2524 H2513 0.950 . S
C2524 C2522 1.391 . S
C2524 C2525 1.400 . S
C2525 C2519 1.491 . S
C2525 C2524 1.400 . S
C2525 C2526 1.398 . S
C2526 H2514 0.950 . S
C2526 C2525 1.398 . S
C2526 C2527 1.391 . S
C2527 H2515 0.950 . S
C2527 C2523 1.393 . S
C2527 C2526 1.391 . S
H2528 C2536 0.950 . S
H2529 C2541 0.950 . S
H2530 C2538 0.950 . S
H2531 C2540 0.950 . S
H2532 C2542 0.950 . S
H2533 C2544 0.950 . S
H2534 C2546 0.950 . S
H2535 C2547 0.950 . S
C2536 H2528 0.950 . S
C2536 C2537 1.386 . S
C2536 C2538 1.391 . S
C2537 C2536 1.386 . S
C2537 C2541 1.393 . S
C2538 H2530 0.950 . S
C2538 C2536 1.391 . S
C2538 C2539 1.400 . S
C2539 C2538 1.400 . S
C2539 C2540 1.398 . S
C2539 C2545 1.491 . S
C2540 H2531 0.950 . S
C2540 C2539 1.398 . S
C2540 C2541 1.391 . S
C2541 H2529 0.950 . S
C2541 C2537 1.393 . S
C2541 C2540 1.391 . S
C2542 H2532 0.950 . S
C2542 C2543 1.386 . S
C2542 C2544 1.391 . S
C2543 C2542 1.386 . S
C2543 C2547 1.393 . S
C2544 H2533 0.950 . S
C2544 C2542 1.391 . S
C2544 C2545 1.400 . S
C2545 C2539 1.491 . S
C2545 C2544 1.400 . S
C2545 C2546 1.398 . S
C2546 H2534 0.950 . S
C2546 C2545 1.398 . S
C2546 C2547 1.391 . S
C2547 H2535 0.950 . S
C2547 C2543 1.393 . S
C2547 C2546 1.391 . S
H2548 C2556 0.950 . S
H2549 C2561 0.950 . S
H2550 C2558 0.950 . S
H2551 C2560 0.950 . S
H2552 C2562 0.950 . S
H2553 C2564 0.950 . S
H2554 C2566 0.950 . S
H2555 C2567 0.950 . S
C2556 H2548 0.950 . S
C2556 C2557 1.386 . S
C2556 C2558 1.391 . S
C2557 C2556 1.386 . S
C2557 C2561 1.393 . S
C2558 H2550 0.950 . S
C2558 C2556 1.391 . S
C2558 C2559 1.400 . S
C2559 C2558 1.400 . S
C2559 C2560 1.398 . S
C2559 C2565 1.491 . S
C2560 H2551 0.950 . S
C2560 C2559 1.398 . S
C2560 C2561 1.391 . S
C2561 H2549 0.950 . S
C2561 C2557 1.393 . S
C2561 C2560 1.391 . S
C2562 H2552 0.950 . S
C2562 C2563 1.386 . S
C2562 C2564 1.391 . S
C2563 C2562 1.386 . S
C2563 C2567 1.393 . S
C2564 H2553 0.950 . S
C2564 C2562 1.391 . S
C2564 C2565 1.400 . S
C2565 C2559 1.491 . S
C2565 C2564 1.400 . S
C2565 C2566 1.398 . S
C2566 H2554 0.950 . S
C2566 C2565 1.398 . S
C2566 C2567 1.391 . S
C2567 H2555 0.950 . S
C2567 C2563 1.393 . S
C2567 C2566 1.391 . S
H2568 C2576 0.950 . S
H2569 C2581 0.950 . S
H2570 C2578 0.950 . S
H2571 C2580 0.950 . S
H2572 C2582 0.950 . S
H2573 C2584 0.950 . S
H2574 C2586 0.950 . S
H2575 C2587 0.950 . S
C2576 H2568 0.950 . S
C2576 C2577 1.386 . S
C2576 C2578 1.391 . S
C2577 C2576 1.386 . S
C2577 C2581 1.393 . S
C2578 H2570 0.950 . S
C2578 C2576 1.391 . S
C2578 C2579 1.400 . S
C2579 C2578 1.400 . S
C2579 C2580 1.398 . S
C2579 C2585 1.491 . S
C2580 H2571 0.950 . S
C2580 C2579 1.398 . S
C2580 C2581 1.391 . S
C2581 H2569 0.950 . S
C2581 C2577 1.393 . S
C2581 C2580 1.391 . S
C2582 H2572 0.950 . S
C2582 C2583 1.386 . S
C2582 C2584 1.391 . S
C2583 C2582 1.386 . S
C2583 C2587 1.393 . S
C2584 H2573 0.950 . S
C2584 C2582 1.391 . S
C2584 C2585 1.400 . S
C2585 C2579 1.491 . S
C2585 C2584 1.400 . S
C2585 C2586 1.398 . S
C2586 H2574 0.950 . S
C2586 C2585 1.398 . S
C2586 C2587 1.391 . S
C2587 H2575 0.950 . S
C2587 C2583 1.393 . S
C2587 C2586 1.391 . S
H2588 C2596 0.950 . S
H2589 C2601 0.950 . S
H2590 C2598 0.950 . S
H2591 C2600 0.950 . S
H2592 C2602 0.950 . S
H2593 C2604 0.950 . S
H2594 C2606 0.950 . S
H2595 C2607 0.950 . S
C2596 H2588 0.950 . S
C2596 C2597 1.386 . S
C2596 C2598 1.391 . S
C2597 C2596 1.386 . S
C2597 C2601 1.393 . S
C2598 H2590 0.950 . S
C2598 C2596 1.391 . S
C2598 C2599 1.400 . S
C2599 C2598 1.400 . S
C2599 C2600 1.398 . S
C2599 C2605 1.491 . S
C2600 H2591 0.950 . S
C2600 C2599 1.398 . S
C2600 C2601 1.391 . S
C2601 H2589 0.950 . S
C2601 C2597 1.393 . S
C2601 C2600 1.391 . S
C2602 H2592 0.950 . S
C2602 C2603 1.386 . S
C2602 C2604 1.391 . S
C2603 C2602 1.386 . S
C2603 C2607 1.393 . S
C2604 H2593 0.950 . S
C2604 C2602 1.391 . S
C2604 C2605 1.400 . S
C2605 C2599 1.491 . S
C2605 C2604 1.400 . S
C2605 C2606 1.398 . S
C2606 H2594 0.950 . S
C2606 C2605 1.398 . S
C2606 C2607 1.391 . S
C2607 H2595 0.950 . S
C2607 C2603 1.393 . S
C2607 C2606 1.391 . S
H2608 C2616 0.950 . S
H2609 C2621 0.950 . S
H2610 C2618 0.950 . S
H2611 C2620 0.950 . S
H2612 C2622 0.950 . S
H2613 C2624 0.950 . S
H2614 C2626 0.950 . S
H2615 C2627 0.950 . S
C2616 H2608 0.950 . S
C2616 C2617 1.386 . S
C2616 C2618 1.391 . S
C2617 C2616 1.386 . S
C2617 C2621 1.393 . S
C2618 H2610 0.950 . S
C2618 C2616 1.391 . S
C2618 C2619 1.400 . S
C2619 C2618 1.400 . S
C2619 C2620 1.398 . S
C2619 C2625 1.491 . S
C2620 H2611 0.950 . S
C2620 C2619 1.398 . S
C2620 C2621 1.391 . S
C2621 H2609 0.950 . S
C2621 C2617 1.393 . S
C2621 C2620 1.391 . S
C2622 H2612 0.950 . S
C2622 C2623 1.386 . S
C2622 C2624 1.391 . S
C2623 C2622 1.386 . S
C2623 C2627 1.393 . S
C2624 H2613 0.950 . S
C2624 C2622 1.391 . S
C2624 C2625 1.400 . S
C2625 C2619 1.491 . S
C2625 C2624 1.400 . S
C2625 C2626 1.398 . S
C2626 H2614 0.950 . S
C2626 C2625 1.398 . S
C2626 C2627 1.391 . S
C2627 H2615 0.950 . S
C2627 C2623 1.393 . S
C2627 C2626 1.391 . S
H2628 C2636 0.950 . S
H2629 C2641 0.950 . S
H2630 C2638 0.950 . S
H2631 C2640 0.950 . S
H2632 C2642 0.950 . S
H2633 C2644 0.950 . S
H2634 C2646 0.950 . S
H2635 C2647 0.950 . S
C2636 H2628 0.950 . S
C2636 C2637 1.386 . S
C2636 C2638 1.391 . S
C2637 C2636 1.386 . S
C2637 C2641 1.393 . S
C2638 H2630 0.950 . S
C2638 C2636 1.391 . S
C2638 C2639 1.400 . S
C2639 C2638 1.400 . S
C2639 C2640 1.398 . S
C2639 C2645 1.491 . S
C2640 H2631 0.950 . S
C2640 C2639 1.398 . S
C2640 C2641 1.391 . S
C2641 H2629 0.950 . S
C2641 C2637 1.393 . S
C2641 C2640 1.391 . S
C2642 H2632 0.950 . S
C2642 C2643 1.386 . S
C2642 C2644 1.391 . S
C2643 C2642 1.386 . S
C2643 C2647 1.393 . S
C2644 H2633 0.950 . S
C2644 C2642 1.391 . S
C2644 C2645 1.400 . S
C2645 C2639 1.491 . S
C2645 C2644 1.400 . S
C2645 C2646 1.398 . S
C2646 H2634 0.950 . S
C2646 C2645 1.398 . S
C2646 C2647 1.391 . S
C2647 H2635 0.950 . S
C2647 C2643 1.393 . S
C2647 C2646 1.391 . S
H2648 C2656 0.950 . S
H2649 C2661 0.950 . S
H2650 C2658 0.950 . S
H2651 C2660 0.950 . S
H2652 C2662 0.950 . S
H2653 C2664 0.950 . S
H2654 C2666 0.950 . S
H2655 C2667 0.950 . S
C2656 H2648 0.950 . S
C2656 C2657 1.386 . S
C2656 C2658 1.391 . S
C2657 C2656 1.386 . S
C2657 C2661 1.393 . S
C2658 H2650 0.950 . S
C2658 C2656 1.391 . S
C2658 C2659 1.400 . S
C2659 C2658 1.400 . S
C2659 C2660 1.398 . S
C2659 C2665 1.491 . S
C2660 H2651 0.950 . S
C2660 C2659 1.398 . S
C2660 C2661 1.391 . S
C2661 H2649 0.950 . S
C2661 C2657 1.393 . S
C2661 C2660 1.391 . S
C2662 H2652 0.950 . S
C2662 C2663 1.386 . S
C2662 C2664 1.391 . S
C2663 C2662 1.386 . S
C2663 C2667 1.393 . S
C2664 H2653 0.950 . S
C2664 C2662 1.391 . S
C2664 C2665 1.400 . S
C2665 C2659 1.491 . S
C2665 C2664 1.400 . S
C2665 C2666 1.398 . S
C2666 H2654 0.950 . S
C2666 C2665 1.398 . S
C2666 C2667 1.391 . S
C2667 H2655 0.950 . S
C2667 C2663 1.393 . S
C2667 C2666 1.391 . S
H2668 C2676 0.950 . S
H2669 C2681 0.950 . S
H2670 C2678 0.950 . S
H2671 C2680 0.950 . S
H2672 C2682 0.950 . S
H2673 C2684 0.950 . S
H2674 C2686 0.950 . S
H2675 C2687 0.950 . S
C2676 H2668 0.950 . S
C2676 C2677 1.386 . S
C2676 C2678 1.391 . S
C2677 C2676 1.386 . S
C2677 C2681 1.393 . S
C2678 H2670 0.950 . S
C2678 C2676 1.391 . S
C2678 C2679 1.400 . S
C2679 C2678 1.400 . S
C2679 C2680 1.398 . S
C2679 C2685 1.491 . S
C2680 H2671 0.950 . S
C2680 C2679 1.398 . S
C2680 C2681 1.391 . S
C2681 H2669 0.950 . S
C2681 C2677 1.393 . S
C2681 C2680 1.391 . S
C2682 H2672 0.950 . S
C2682 C2683 1.386 . S
C2682 C2684 1.391 . S
C2683 C2682 1.386 . S
C2683 C2687 1.393 . S
C2684 H2673 0.950 . S
C2684 C2682 1.391 . S
C2684 C2685 1.400 . S
C2685 C2679 1.491 . S
C2685 C2684 1.400 . S
C2685 C2686 1.398 . S
C2686 H2674 0.950 . S
C2686 C2685 1.398 . S
C2686 C2687 1.391 . S
C2687 H2675 0.950 . S
C2687 C2683 1.393 . S
C2687 C2686 1.391 . S
H2688 C2696 0.950 . S
H2689 C2701 0.950 . S
H2690 C2698 0.950 . S
H2691 C2700 0.950 . S
H2692 C2702 0.950 . S
H2693 C2704 0.950 . S
H2694 C2706 0.950 . S
H2695 C2707 0.950 . S
C2696 H2688 0.950 . S
C2696 C2697 1.386 . S
C2696 C2698 1.391 . S
C2697 C2696 1.386 . S
C2697 C2701 1.393 . S
C2698 H2690 0.950 . S
C2698 C2696 1.391 . S
C2698 C2699 1.400 . S
C2699 C2698 1.400 . S
C2699 C2700 1.398 . S
C2699 C2705 1.491 . S
C2700 H2691 0.950 . S
C2700 C2699 1.398 . S
C2700 C2701 1.391 . S
C2701 H2689 0.950 . S
C2701 C2697 1.393 . S
C2701 C2700 1.391 . S
C2702 H2692 0.950 . S
C2702 C2703 1.386 . S
C2702 C2704 1.391 . S
C2703 C2702 1.386 . S
C2703 C2707 1.393 . S
C2704 H2693 0.950 . S
C2704 C2702 1.391 . S
C2704 C2705 1.400 . S
C2705 C2699 1.491 . S
C2705 C2704 1.400 . S
C2705 C2706 1.398 . S
C2706 H2694 0.950 . S
C2706 C2705 1.398 . S
C2706 C2707 1.391 . S
C2707 H2695 0.950 . S
C2707 C2703 1.393 . S
C2707 C2706 1.391 . S
H2708 C2716 0.950 . S
H2709 C2721 0.950 . S
H2710 C2718 0.950 . S
H2711 C2720 0.950 . S
H2712 C2722 0.950 . S
H2713 C2724 0.950 . S
H2714 C2726 0.950 . S
H2715 C2727 0.950 . S
C2716 H2708 0.950 . S
C2716 C2717 1.386 . S
C2716 C2718 1.391 . S
C2717 C2716 1.386 . S
C2717 C2721 1.393 . S
C2718 H2710 0.950 . S
C2718 C2716 1.391 . S
C2718 C2719 1.400 . S
C2719 C2718 1.400 . S
C2719 C2720 1.398 . S
C2719 C2725 1.491 . S
C2720 H2711 0.950 . S
C2720 C2719 1.398 . S
C2720 C2721 1.391 . S
C2721 H2709 0.950 . S
C2721 C2717 1.393 . S
C2721 C2720 1.391 . S
C2722 H2712 0.950 . S
C2722 C2723 1.386 . S
C2722 C2724 1.391 . S
C2723 C2722 1.386 . S
C2723 C2727 1.393 . S
C2724 H2713 0.950 . S
C2724 C2722 1.391 . S
C2724 C2725 1.400 . S
C2725 C2719 1.491 . S
C2725 C2724 1.400 . S
C2725 C2726 1.398 . S
C2726 H2714 0.950 . S
C2726 C2725 1.398 . S
C2726 C2727 1.391 . S
C2727 H2715 0.950 . S
C2727 C2723 1.393 . S
C2727 C2726 1.391 . S
H2728 C2736 0.950 . S
H2729 C2741 0.950 . S
H2730 C2738 0.950 . S
H2731 C2740 0.950 . S
H2732 C2742 0.950 . S
H2733 C2744 0.950 . S
H2734 C2746 0.950 . S
H2735 C2747 0.950 . S
C2736 H2728 0.950 . S
C2736 C2737 1.386 . S
C2736 C2738 1.391 . S
C2737 C2736 1.386 . S
C2737 C2741 1.393 . S
C2738 H2730 0.950 . S
C2738 C2736 1.391 . S
C2738 C2739 1.400 . S
C2739 C2738 1.400 . S
C2739 C2740 1.398 . S
C2739 C2745 1.491 . S
C2740 H2731 0.950 . S
C2740 C2739 1.398 . S
C2740 C2741 1.391 . S
C2741 H2729 0.950 . S
C2741 C2737 1.393 . S
C2741 C2740 1.391 . S
C2742 H2732 0.950 . S
C2742 C2743 1.386 . S
C2742 C2744 1.391 . S
C2743 C2742 1.386 . S
C2743 C2747 1.393 . S
C2744 H2733 0.950 . S
C2744 C2742 1.391 . S
C2744 C2745 1.400 . S
C2745 C2739 1.491 . S
C2745 C2744 1.400 . S
C2745 C2746 1.398 . S
C2746 H2734 0.950 . S
C2746 C2745 1.398 . S
C2746 C2747 1.391 . S
C2747 H2735 0.950 . S
C2747 C2743 1.393 . S
C2747 C2746 1.391 . S
H2748 C2756 0.950 . S
H2749 C2761 0.950 . S
H2750 C2758 0.950 . S
H2751 C2760 0.950 . S
H2752 C2762 0.950 . S
H2753 C2764 0.950 . S
H2754 C2766 0.950 . S
H2755 C2767 0.950 . S
C2756 H2748 0.950 . S
C2756 C2757 1.386 . S
C2756 C2758 1.391 . S
C2757 C2756 1.386 . S
C2757 C2761 1.393 . S
C2758 H2750 0.950 . S
C2758 C2756 1.391 . S
C2758 C2759 1.400 . S
C2759 C2758 1.400 . S
C2759 C2760 1.398 . S
C2759 C2765 1.491 . S
C2760 H2751 0.950 . S
C2760 C2759 1.398 . S
C2760 C2761 1.391 . S
C2761 H2749 0.950 . S
C2761 C2757 1.393 . S
C2761 C2760 1.391 . S
C2762 H2752 0.950 . S
C2762 C2763 1.386 . S
C2762 C2764 1.391 . S
C2763 C2762 1.386 . S
C2763 C2767 1.393 . S
C2764 H2753 0.950 . S
C2764 C2762 1.391 . S
C2764 C2765 1.400 . S
C2765 C2759 1.491 . S
C2765 C2764 1.400 . S
C2765 C2766 1.398 . S
C2766 H2754 0.950 . S
C2766 C2765 1.398 . S
C2766 C2767 1.391 . S
C2767 H2755 0.950 . S
C2767 C2763 1.393 . S
C2767 C2766 1.391 . S
H2768 C2776 0.950 . S
H2769 C2781 0.950 . S
H2770 C2778 0.950 . S
H2771 C2780 0.950 . S
H2772 C2782 0.950 . S
H2773 C2784 0.950 . S
H2774 C2786 0.950 . S
H2775 C2787 0.950 . S
C2776 H2768 0.950 . S
C2776 C2777 1.386 . S
C2776 C2778 1.391 . S
C2777 C2776 1.386 . S
C2777 C2781 1.393 . S
C2778 H2770 0.950 . S
C2778 C2776 1.391 . S
C2778 C2779 1.400 . S
C2779 C2778 1.400 . S
C2779 C2780 1.398 . S
C2779 C2785 1.491 . S
C2780 H2771 0.950 . S
C2780 C2779 1.398 . S
C2780 C2781 1.391 . S
C2781 H2769 0.950 . S
C2781 C2777 1.393 . S
C2781 C2780 1.391 . S
C2782 H2772 0.950 . S
C2782 C2783 1.386 . S
C2782 C2784 1.391 . S
C2783 C2782 1.386 . S
C2783 C2787 1.393 . S
C2784 H2773 0.950 . S
C2784 C2782 1.391 . S
C2784 C2785 1.400 . S
C2785 C2779 1.491 . S
C2785 C2784 1.400 . S
C2785 C2786 1.398 . S
C2786 H2774 0.950 . S
C2786 C2785 1.398 . S
C2786 C2787 1.391 . S
C2787 H2775 0.950 . S
C2787 C2783 1.393 . S
C2787 C2786 1.391 . S
H2788 C2796 0.950 . S
H2789 C2801 0.950 . S
H2790 C2798 0.950 . S
H2791 C2800 0.950 . S
H2792 C2802 0.950 . S
H2793 C2804 0.950 . S
H2794 C2806 0.950 . S
H2795 C2807 0.950 . S
C2796 H2788 0.950 . S
C2796 C2797 1.386 . S
C2796 C2798 1.391 . S
C2797 C2796 1.386 . S
C2797 C2801 1.393 . S
C2798 H2790 0.950 . S
C2798 C2796 1.391 . S
C2798 C2799 1.400 . S
C2799 C2798 1.400 . S
C2799 C2800 1.398 . S
C2799 C2805 1.491 . S
C2800 H2791 0.950 . S
C2800 C2799 1.398 . S
C2800 C2801 1.391 . S
C2801 H2789 0.950 . S
C2801 C2797 1.393 . S
C2801 C2800 1.391 . S
C2802 H2792 0.950 . S
C2802 C2803 1.386 . S
C2802 C2804 1.391 . S
C2803 C2802 1.386 . S
C2803 C2807 1.393 . S
C2804 H2793 0.950 . S
C2804 C2802 1.391 . S
C2804 C2805 1.400 . S
C2805 C2799 1.491 . S
C2805 C2804 1.400 . S
C2805 C2806 1.398 . S
C2806 H2794 0.950 . S
C2806 C2805 1.398 . S
C2806 C2807 1.391 . S
C2807 H2795 0.950 . S
C2807 C2803 1.393 . S
C2807 C2806 1.391 . S
H2808 C2816 0.950 . S
H2809 C2821 0.950 . S
H2810 C2818 0.950 . S
H2811 C2820 0.950 . S
H2812 C2822 0.950 . S
H2813 C2824 0.950 . S
H2814 C2826 0.950 . S
H2815 C2827 0.950 . S
C2816 H2808 0.950 . S
C2816 C2817 1.386 . S
C2816 C2818 1.391 . S
C2817 C2816 1.386 . S
C2817 C2821 1.393 . S
C2818 H2810 0.950 . S
C2818 C2816 1.391 . S
C2818 C2819 1.400 . S
C2819 C2818 1.400 . S
C2819 C2820 1.398 . S
C2819 C2825 1.491 . S
C2820 H2811 0.950 . S
C2820 C2819 1.398 . S
C2820 C2821 1.391 . S
C2821 H2809 0.950 . S
C2821 C2817 1.393 . S
C2821 C2820 1.391 . S
C2822 H2812 0.950 . S
C2822 C2823 1.386 . S
C2822 C2824 1.391 . S
C2823 C2822 1.386 . S
C2823 C2827 1.393 . S
C2824 H2813 0.950 . S
C2824 C2822 1.391 . S
C2824 C2825 1.400 . S
C2825 C2819 1.491 . S
C2825 C2824 1.400 . S
C2825 C2826 1.398 . S
C2826 H2814 0.950 . S
C2826 C2825 1.398 . S
C2826 C2827 1.391 . S
C2827 H2815 0.950 . S
C2827 C2823 1.393 . S
C2827 C2826 1.391 . S
H2828 C2836 0.950 . S
H2829 C2841 0.950 . S
H2830 C2838 0.950 . S
H2831 C2840 0.950 . S
H2832 C2842 0.950 . S
H2833 C2844 0.950 . S
H2834 C2846 0.950 . S
H2835 C2847 0.950 . S
C2836 H2828 0.950 . S
C2836 C2837 1.386 . S
C2836 C2838 1.391 . S
C2837 C2836 1.386 . S
C2837 C2841 1.393 . S
C2838 H2830 0.950 . S
C2838 C2836 1.391 . S
C2838 C2839 1.400 . S
C2839 C2838 1.400 . S
C2839 C2840 1.398 . S
C2839 C2845 1.491 . S
C2840 H2831 0.950 . S
C2840 C2839 1.398 . S
C2840 C2841 1.391 . S
C2841 H2829 0.950 . S
C2841 C2837 1.393 . S
C2841 C2840 1.391 . S
C2842 H2832 0.950 . S
C2842 C2843 1.386 . S
C2842 C2844 1.391 . S
C2843 C2842 1.386 . S
C2843 C2847 1.393 . S
C2844 H2833 0.950 . S
C2844 C2842 1.391 . S
C2844 C2845 1.400 . S
C2845 C2839 1.491 . S
C2845 C2844 1.400 . S
C2845 C2846 1.398 . S
C2846 H2834 0.950 . S
C2846 C2845 1.398 . S
C2846 C2847 1.391 . S
C2847 H2835 0.950 . S
C2847 C2843 1.393 . S
C2847 C2846 1.391 . S
H2848 C2856 0.950 . S
H2849 C2861 0.950 . S
H2850 C2858 0.950 . S
H2851 C2860 0.950 . S
H2852 C2862 0.950 . S
H2853 C2864 0.950 . S
H2854 C2866 0.950 . S
H2855 C2867 0.950 . S
C2856 H2848 0.950 . S
C2856 C2857 1.386 . S
C2856 C2858 1.391 . S
C2857 C2856 1.386 . S
C2857 C2861 1.393 . S
C2858 H2850 0.950 . S
C2858 C2856 1.391 . S
C2858 C2859 1.400 . S
C2859 C2858 1.400 . S
C2859 C2860 1.398 . S
C2859 C2865 1.491 . S
C2860 H2851 0.950 . S
C2860 C2859 1.398 . S
C2860 C2861 1.391 . S
C2861 H2849 0.950 . S
C2861 C2857 1.393 . S
C2861 C2860 1.391 . S
C2862 H2852 0.950 . S
C2862 C2863 1.386 . S
C2862 C2864 1.391 . S
C2863 C2862 1.386 . S
C2863 C2867 1.393 . S
C2864 H2853 0.950 . S
C2864 C2862 1.391 . S
C2864 C2865 1.400 . S
C2865 C2859 1.491 . S
C2865 C2864 1.400 . S
C2865 C2866 1.398 . S
C2866 H2854 0.950 . S
C2866 C2865 1.398 . S
C2866 C2867 1.391 . S
C2867 H2855 0.950 . S
C2867 C2863 1.393 . S
C2867 C2866 1.391 . S
H2868 C2876 0.950 . S
H2869 C2881 0.950 . S
H2870 C2878 0.950 . S
H2871 C2880 0.950 . S
H2872 C2882 0.950 . S
H2873 C2884 0.950 . S
H2874 C2886 0.950 . S
H2875 C2887 0.950 . S
C2876 H2868 0.950 . S
C2876 C2877 1.386 . S
C2876 C2878 1.391 . S
C2877 C2876 1.386 . S
C2877 C2881 1.393 . S
C2878 H2870 0.950 . S
C2878 C2876 1.391 . S
C2878 C2879 1.400 . S
C2879 C2878 1.400 . S
C2879 C2880 1.398 . S
C2879 C2885 1.491 . S
C2880 H2871 0.950 . S
C2880 C2879 1.398 . S
C2880 C2881 1.391 . S
C2881 H2869 0.950 . S
C2881 C2877 1.393 . S
C2881 C2880 1.391 . S
C2882 H2872 0.950 . S
C2882 C2883 1.386 . S
C2882 C2884 1.391 . S
C2883 C2882 1.386 . S
C2883 C2887 1.393 . S
C2884 H2873 0.950 . S
C2884 C2882 1.391 . S
C2884 C2885 1.400 . S
C2885 C2879 1.491 . S
C2885 C2884 1.400 . S
C2885 C2886 1.398 . S
C2886 H2874 0.950 . S
C2886 C2885 1.398 . S
C2886 C2887 1.391 . S
C2887 H2875 0.950 . S
C2887 C2883 1.393 . S
C2887 C2886 1.391 . S
H2888 C2896 0.950 . S
H2889 C2901 0.950 . S
H2890 C2898 0.950 . S
H2891 C2900 0.950 . S
H2892 C2902 0.950 . S
H2893 C2904 0.950 . S
H2894 C2906 0.950 . S
H2895 C2907 0.950 . S
C2896 H2888 0.950 . S
C2896 C2897 1.386 . S
C2896 C2898 1.391 . S
C2897 C2896 1.386 . S
C2897 C2901 1.393 . S
C2898 H2890 0.950 . S
C2898 C2896 1.391 . S
C2898 C2899 1.400 . S
C2899 C2898 1.400 . S
C2899 C2900 1.398 . S
C2899 C2905 1.491 . S
C2900 H2891 0.950 . S
C2900 C2899 1.398 . S
C2900 C2901 1.391 . S
C2901 H2889 0.950 . S
C2901 C2897 1.393 . S
C2901 C2900 1.391 . S
C2902 H2892 0.950 . S
C2902 C2903 1.386 . S
C2902 C2904 1.391 . S
C2903 C2902 1.386 . S
C2903 C2907 1.393 . S
C2904 H2893 0.950 . S
C2904 C2902 1.391 . S
C2904 C2905 1.400 . S
C2905 C2899 1.491 . S
C2905 C2904 1.400 . S
C2905 C2906 1.398 . S
C2906 H2894 0.950 . S
C2906 C2905 1.398 . S
C2906 C2907 1.391 . S
C2907 H2895 0.950 . S
C2907 C2903 1.393 . S
C2907 C2906 1.391 . S
H2908 C2916 0.950 . S
H2909 C2921 0.950 . S
H2910 C2918 0.950 . S
H2911 C2920 0.950 . S
H2912 C2922 0.950 . S
H2913 C2924 0.950 . S
H2914 C2926 0.950 . S
H2915 C2927 0.950 . S
C2916 H2908 0.950 . S
C2916 C2917 1.386 . S
C2916 C2918 1.391 . S
C2917 C2916 1.386 . S
C2917 C2921 1.393 . S
C2918 H2910 0.950 . S
C2918 C2916 1.391 . S
C2918 C2919 1.400 . S
C2919 C2918 1.400 . S
C2919 C2920 1.398 . S
C2919 C2925 1.491 . S
C2920 H2911 0.950 . S
C2920 C2919 1.398 . S
C2920 C2921 1.391 . S
C2921 H2909 0.950 . S
C2921 C2917 1.393 . S
C2921 C2920 1.391 . S
C2922 H2912 0.950 . S
C2922 C2923 1.386 . S
C2922 C2924 1.391 . S
C2923 C2922 1.386 . S
C2923 C2927 1.393 . S
C2924 H2913 0.950 . S
C2924 C2922 1.391 . S
C2924 C2925 1.400 . S
C2925 C2919 1.491 . S
C2925 C2924 1.400 . S
C2925 C2926 1.398 . S
C2926 H2914 0.950 . S
C2926 C2925 1.398 . S
C2926 C2927 1.391 . S
C2927 H2915 0.950 . S
C2927 C2923 1.393 . S
C2927 C2926 1.391 . S
H2928 C2936 0.950 . S
H2929 C2941 0.950 . S
H2930 C2938 0.950 . S
H2931 C2940 0.950 . S
H2932 C2942 0.950 . S
H2933 C2944 0.950 . S
H2934 C2946 0.950 . S
H2935 C2947 0.950 . S
C2936 H2928 0.950 . S
C2936 C2937 1.386 . S
C2936 C2938 1.391 . S
C2937 C2936 1.386 . S
C2937 C2941 1.393 . S
C2938 H2930 0.950 . S
C2938 C2936 1.391 . S
C2938 C2939 1.400 . S
C2939 C2938 1.400 . S
C2939 C2940 1.398 . S
C2939 C2945 1.491 . S
C2940 H2931 0.950 . S
C2940 C2939 1.398 . S
C2940 C2941 1.391 . S
C2941 H2929 0.950 . S
C2941 C2937 1.393 . S
C2941 C2940 1.391 . S
C2942 H2932 0.950 . S
C2942 C2943 1.386 . S
C2942 C2944 1.391 . S
C2943 C2942 1.386 . S
C2943 C2947 1.393 . S
C2944 H2933 0.950 . S
C2944 C2942 1.391 . S
C2944 C2945 1.400 . S
C2945 C2939 1.491 . S
C2945 C2944 1.400 . S
C2945 C2946 1.398 . S
C2946 H2934 0.950 . S
C2946 C2945 1.398 . S
C2946 C2947 1.391 . S
C2947 H2935 0.950 . S
C2947 C2943 1.393 . S
C2947 C2946 1.391 . S
H2948 C2956 0.950 . S
H2949 C2961 0.950 . S
H2950 C2958 0.950 . S
H2951 C2960 0.950 . S
H2952 C2962 0.950 . S
H2953 C2964 0.950 . S
H2954 C2966 0.950 . S
H2955 C2967 0.950 . S
C2956 H2948 0.950 . S
C2956 C2957 1.386 . S
C2956 C2958 1.391 . S
C2957 C2956 1.386 . S
C2957 C2961 1.393 . S
C2958 H2950 0.950 . S
C2958 C2956 1.391 . S
C2958 C2959 1.400 . S
C2959 C2958 1.400 . S
C2959 C2960 1.398 . S
C2959 C2965 1.491 . S
C2960 H2951 0.950 . S
C2960 C2959 1.398 . S
C2960 C2961 1.391 . S
C2961 H2949 0.950 . S
C2961 C2957 1.393 . S
C2961 C2960 1.391 . S
C2962 H2952 0.950 . S
C2962 C2963 1.386 . S
C2962 C2964 1.391 . S
C2963 C2962 1.386 . S
C2963 C2967 1.393 . S
C2964 H2953 0.950 . S
C2964 C2962 1.391 . S
C2964 C2965 1.400 . S
C2965 C2959 1.491 . S
C2965 C2964 1.400 . S
C2965 C2966 1.398 . S
C2966 H2954 0.950 . S
C2966 C2965 1.398 . S
C2966 C2967 1.391 . S
C2967 H2955 0.950 . S
C2967 C2963 1.393 . S
C2967 C2966 1.391 . S
H2968 C2976 0.950 . S
H2969 C2981 0.950 . S
H2970 C2978 0.950 . S
H2971 C2980 0.950 . S
H2972 C2982 0.950 . S
H2973 C2984 0.950 . S
H2974 C2986 0.950 . S
H2975 C2987 0.950 . S
C2976 H2968 0.950 . S
C2976 C2977 1.386 . S
C2976 C2978 1.391 . S
C2977 C2976 1.386 . S
C2977 C2981 1.393 . S
C2978 H2970 0.950 . S
C2978 C2976 1.391 . S
C2978 C2979 1.400 . S
C2979 C2978 1.400 . S
C2979 C2980 1.398 . S
C2979 C2985 1.491 . S
C2980 H2971 0.950 . S
C2980 C2979 1.398 . S
C2980 C2981 1.391 . S
C2981 H2969 0.950 . S
C2981 C2977 1.393 . S
C2981 C2980 1.391 . S
C2982 H2972 0.950 . S
C2982 C2983 1.386 . S
C2982 C2984 1.391 . S
C2983 C2982 1.386 . S
C2983 C2987 1.393 . S
C2984 H2973 0.950 . S
C2984 C2982 1.391 . S
C2984 C2985 1.400 . S
C2985 C2979 1.491 . S
C2985 C2984 1.400 . S
C2985 C2986 1.398 . S
C2986 H2974 0.950 . S
C2986 C2985 1.398 . S
C2986 C2987 1.391 . S
C2987 H2975 0.950 . S
C2987 C2983 1.393 . S
C2987 C2986 1.391 . S
H2988 C2996 0.950 . S
H2989 C3001 0.950 . S
H2990 C2998 0.950 . S
H2991 C3000 0.950 . S
H2992 C3002 0.950 . S
H2993 C3004 0.950 . S
H2994 C3006 0.950 . S
H2995 C3007 0.950 . S
C2996 H2988 0.950 . S
C2996 C2997 1.386 . S
C2996 C2998 1.391 . S
C2997 C2996 1.386 . S
C2997 C3001 1.393 . S
C2998 H2990 0.950 . S
C2998 C2996 1.391 . S
C2998 C2999 1.400 . S
C2999 C2998 1.400 . S
C2999 C3000 1.398 . S
C2999 C3005 1.491 . S
C3000 H2991 0.950 . S
C3000 C2999 1.398 . S
C3000 C3001 1.391 . S
C3001 H2989 0.950 . S
C3001 C2997 1.393 . S
C3001 C3000 1.391 . S
C3002 H2992 0.950 . S
C3002 C3003 1.386 . S
C3002 C3004 1.391 . S
C3003 C3002 1.386 . S
C3003 C3007 1.393 . S
C3004 H2993 0.950 . S
C3004 C3002 1.391 . S
C3004 C3005 1.400 . S
C3005 C2999 1.491 . S
C3005 C3004 1.400 . S
C3005 C3006 1.398 . S
C3006 H2994 0.950 . S
C3006 C3005 1.398 . S
C3006 C3007 1.391 . S
C3007 H2995 0.950 . S
C3007 C3003 1.393 . S
C3007 C3006 1.391 . S
H3008 C3016 0.950 . S
H3009 C3021 0.950 . S
H3010 C3018 0.950 . S
H3011 C3020 0.950 . S
H3012 C3022 0.950 . S
H3013 C3024 0.950 . S
H3014 C3026 0.950 . S
H3015 C3027 0.950 . S
C3016 H3008 0.950 . S
C3016 C3017 1.386 . S
C3016 C3018 1.391 . S
C3017 C3016 1.386 . S
C3017 C3021 1.393 . S
C3018 H3010 0.950 . S
C3018 C3016 1.391 . S
C3018 C3019 1.400 . S
C3019 C3018 1.400 . S
C3019 C3020 1.398 . S
C3019 C3025 1.491 . S
C3020 H3011 0.950 . S
C3020 C3019 1.398 . S
C3020 C3021 1.391 . S
C3021 H3009 0.950 . S
C3021 C3017 1.393 . S
C3021 C3020 1.391 . S
C3022 H3012 0.950 . S
C3022 C3023 1.386 . S
C3022 C3024 1.391 . S
C3023 C3022 1.386 . S
C3023 C3027 1.393 . S
C3024 H3013 0.950 . S
C3024 C3022 1.391 . S
C3024 C3025 1.400 . S
C3025 C3019 1.491 . S
C3025 C3024 1.400 . S
C3025 C3026 1.398 . S
C3026 H3014 0.950 . S
C3026 C3025 1.398 . S
C3026 C3027 1.391 . S
C3027 H3015 0.950 . S
C3027 C3023 1.393 . S
C3027 C3026 1.391 . S
H3028 C3036 0.950 . S
H3029 C3041 0.950 . S
H3030 C3038 0.950 . S
H3031 C3040 0.950 . S
H3032 C3042 0.950 . S
H3033 C3044 0.950 . S
H3034 C3046 0.950 . S
H3035 C3047 0.950 . S
C3036 H3028 0.950 . S
C3036 C3037 1.386 . S
C3036 C3038 1.391 . S
C3037 C3036 1.386 . S
C3037 C3041 1.393 . S
C3038 H3030 0.950 . S
C3038 C3036 1.391 . S
C3038 C3039 1.400 . S
C3039 C3038 1.400 . S
C3039 C3040 1.398 . S
C3039 C3045 1.491 . S
C3040 H3031 0.950 . S
C3040 C3039 1.398 . S
C3040 C3041 1.391 . S
C3041 H3029 0.950 . S
C3041 C3037 1.393 . S
C3041 C3040 1.391 . S
C3042 H3032 0.950 . S
C3042 C3043 1.386 . S
C3042 C3044 1.391 . S
C3043 C3042 1.386 . S
C3043 C3047 1.393 . S
C3044 H3033 0.950 . S
C3044 C3042 1.391 . S
C3044 C3045 1.400 . S
C3045 C3039 1.491 . S
C3045 C3044 1.400 . S
C3045 C3046 1.398 . S
C3046 H3034 0.950 . S
C3046 C3045 1.398 . S
C3046 C3047 1.391 . S
C3047 H3035 0.950 . S
C3047 C3043 1.393 . S
C3047 C3046 1.391 . S
H3048 C3056 0.950 . S
H3049 C3061 0.950 . S
H3050 C3058 0.950 . S
H3051 C3060 0.950 . S
H3052 C3062 0.950 . S
H3053 C3064 0.950 . S
H3054 C3066 0.950 . S
H3055 C3067 0.950 . S
C3056 H3048 0.950 . S
C3056 C3057 1.386 . S
C3056 C3058 1.391 . S
C3057 C3056 1.386 . S
C3057 C3061 1.393 . S
C3058 H3050 0.950 . S
C3058 C3056 1.391 . S
C3058 C3059 1.400 . S
C3059 C3058 1.400 . S
C3059 C3060 1.398 . S
C3059 C3065 1.491 . S
C3060 H3051 0.950 . S
C3060 C3059 1.398 . S
C3060 C3061 1.391 . S
C3061 H3049 0.950 . S
C3061 C3057 1.393 . S
C3061 C3060 1.391 . S
C3062 H3052 0.950 . S
C3062 C3063 1.386 . S
C3062 C3064 1.391 . S
C3063 C3062 1.386 . S
C3063 C3067 1.393 . S
C3064 H3053 0.950 . S
C3064 C3062 1.391 . S
C3064 C3065 1.400 . S
C3065 C3059 1.491 . S
C3065 C3064 1.400 . S
C3065 C3066 1.398 . S
C3066 H3054 0.950 . S
C3066 C3065 1.398 . S
C3066 C3067 1.391 . S
C3067 H3055 0.950 . S
C3067 C3063 1.393 . S
C3067 C3066 1.391 . S
H3068 C3076 0.950 . S
H3069 C3081 0.950 . S
H3070 C3078 0.950 . S
H3071 C3080 0.950 . S
H3072 C3082 0.950 . S
H3073 C3084 0.950 . S
H3074 C3086 0.950 . S
H3075 C3087 0.950 . S
C3076 H3068 0.950 . S
C3076 C3077 1.386 . S
C3076 C3078 1.391 . S
C3077 C3076 1.386 . S
C3077 C3081 1.393 . S
C3078 H3070 0.950 . S
C3078 C3076 1.391 . S
C3078 C3079 1.400 . S
C3079 C3078 1.400 . S
C3079 C3080 1.398 . S
C3079 C3085 1.491 . S
C3080 H3071 0.950 . S
C3080 C3079 1.398 . S
C3080 C3081 1.391 . S
C3081 H3069 0.950 . S
C3081 C3077 1.393 . S
C3081 C3080 1.391 . S
C3082 H3072 0.950 . S
C3082 C3083 1.386 . S
C3082 C3084 1.391 . S
C3083 C3082 1.386 . S
C3083 C3087 1.393 . S
C3084 H3073 0.950 . S
C3084 C3082 1.391 . S
C3084 C3085 1.400 . S
C3085 C3079 1.491 . S
C3085 C3084 1.400 . S
C3085 C3086 1.398 . S
C3086 H3074 0.950 . S
C3086 C3085 1.398 . S
C3086 C3087 1.391 . S
C3087 H3075 0.950 . S
C3087 C3083 1.393 . S
C3087 C3086 1.391 . S
H3088 C3096 0.950 . S
H3089 C3101 0.950 . S
H3090 C3098 0.950 . S
H3091 C3100 0.950 . S
H3092 C3102 0.950 . S
H3093 C3104 0.950 . S
H3094 C3106 0.950 . S
H3095 C3107 0.950 . S
C3096 H3088 0.950 . S
C3096 C3097 1.386 . S
C3096 C3098 1.391 . S
C3097 C3096 1.386 . S
C3097 C3101 1.393 . S
C3098 H3090 0.950 . S
C3098 C3096 1.391 . S
C3098 C3099 1.400 . S
C3099 C3098 1.400 . S
C3099 C3100 1.398 . S
C3099 C3105 1.491 . S
C3100 H3091 0.950 . S
C3100 C3099 1.398 . S
C3100 C3101 1.391 . S
C3101 H3089 0.950 . S
C3101 C3097 1.393 . S
C3101 C3100 1.391 . S
C3102 H3092 0.950 . S
C3102 C3103 1.386 . S
C3102 C3104 1.391 . S
C3103 C3102 1.386 . S
C3103 C3107 1.393 . S
C3104 H3093 0.950 . S
C3104 C3102 1.391 . S
C3104 C3105 1.400 . S
C3105 C3099 1.491 . S
C3105 C3104 1.400 . S
C3105 C3106 1.398 . S
C3106 H3094 0.950 . S
C3106 C3105 1.398 . S
C3106 C3107 1.391 . S
C3107 H3095 0.950 . S
C3107 C3103 1.393 . S
C3107 C3106 1.391 . S
H3108 C3116 0.950 . S
H3109 C3121 0.950 . S
H3110 C3118 0.950 . S
H3111 C3120 0.950 . S
H3112 C3122 0.950 . S
H3113 C3124 0.950 . S
H3114 C3126 0.950 . S
H3115 C3127 0.950 . S
C3116 H3108 0.950 . S
C3116 C3117 1.386 . S
C3116 C3118 1.391 . S
C3117 C3116 1.386 . S
C3117 C3121 1.393 . S
C3118 H3110 0.950 . S
C3118 C3116 1.391 . S
C3118 C3119 1.400 . S
C3119 C3118 1.400 . S
C3119 C3120 1.398 . S
C3119 C3125 1.491 . S
C3120 H3111 0.950 . S
C3120 C3119 1.398 . S
C3120 C3121 1.391 . S
C3121 H3109 0.950 . S
C3121 C3117 1.393 . S
C3121 C3120 1.391 . S
C3122 H3112 0.950 . S
C3122 C3123 1.386 . S
C3122 C3124 1.391 . S
C3123 C3122 1.386 . S
C3123 C3127 1.393 . S
C3124 H3113 0.950 . S
C3124 C3122 1.391 . S
C3124 C3125 1.400 . S
C3125 C3119 1.491 . S
C3125 C3124 1.400 . S
C3125 C3126 1.398 . S
C3126 H3114 0.950 . S
C3126 C3125 1.398 . S
C3126 C3127 1.391 . S
C3127 H3115 0.950 . S
C3127 C3123 1.393 . S
C3127 C3126 1.391 . S
H3128 C3136 0.950 . S
H3129 C3141 0.950 . S
H3130 C3138 0.950 . S
H3131 C3140 0.950 . S
H3132 C3142 0.950 . S
H3133 C3144 0.950 . S
H3134 C3146 0.950 . S
H3135 C3147 0.950 . S
C3136 H3128 0.950 . S
C3136 C3137 1.386 . S
C3136 C3138 1.391 . S
C3137 C3136 1.386 . S
C3137 C3141 1.393 . S
C3138 H3130 0.950 . S
C3138 C3136 1.391 . S
C3138 C3139 1.400 . S
C3139 C3138 1.400 . S
C3139 C3140 1.398 . S
C3139 C3145 1.491 . S
C3140 H3131 0.950 . S
C3140 C3139 1.398 . S
C3140 C3141 1.391 . S
C3141 H3129 0.950 . S
C3141 C3137 1.393 . S
C3141 C3140 1.391 . S
C3142 H3132 0.950 . S
C3142 C3143 1.386 . S
C3142 C3144 1.391 . S
C3143 C3142 1.386 . S
C3143 C3147 1.393 . S
C3144 H3133 0.950 . S
C3144 C3142 1.391 . S
C3144 C3145 1.400 . S
C3145 C3139 1.491 . S
C3145 C3144 1.400 . S
C3145 C3146 1.398 . S
C3146 H3134 0.950 . S
C3146 C3145 1.398 . S
C3146 C3147 1.391 . S
C3147 H3135 0.950 . S
C3147 C3143 1.393 . S
C3147 C3146 1.391 . S
H3148 C3156 0.950 . S
H3149 C3161 0.950 . S
H3150 C3158 0.950 . S
H3151 C3160 0.950 . S
H3152 C3162 0.950 . S
H3153 C3164 0.950 . S
H3154 C3166 0.950 . S
H3155 C3167 0.950 . S
C3156 H3148 0.950 . S
C3156 C3157 1.386 . S
C3156 C3158 1.391 . S
C3157 C3156 1.386 . S
C3157 C3161 1.393 . S
C3158 H3150 0.950 . S
C3158 C3156 1.391 . S
C3158 C3159 1.400 . S
C3159 C3158 1.400 . S
C3159 C3160 1.398 . S
C3159 C3165 1.491 . S
C3160 H3151 0.950 . S
C3160 C3159 1.398 . S
C3160 C3161 1.391 . S
C3161 H3149 0.950 . S
C3161 C3157 1.393 . S
C3161 C3160 1.391 . S
C3162 H3152 0.950 . S
C3162 C3163 1.386 . S
C3162 C3164 1.391 . S
C3163 C3162 1.386 . S
C3163 C3167 1.393 . S
C3164 H3153 0.950 . S
C3164 C3162 1.391 . S
C3164 C3165 1.400 . S
C3165 C3159 1.491 . S
C3165 C3164 1.400 . S
C3165 C3166 1.398 . S
C3166 H3154 0.950 . S
C3166 C3165 1.398 . S
C3166 C3167 1.391 . S
C3167 H3155 0.950 . S
C3167 C3163 1.393 . S
C3167 C3166 1.391 . S
H3168 C3176 0.950 . S
H3169 C3181 0.950 . S
H3170 C3178 0.950 . S
H3171 C3180 0.950 . S
H3172 C3182 0.950 . S
H3173 C3184 0.950 . S
H3174 C3186 0.950 . S
H3175 C3187 0.950 . S
C3176 H3168 0.950 . S
C3176 C3177 1.386 . S
C3176 C3178 1.391 . S
C3177 C3176 1.386 . S
C3177 C3181 1.393 . S
C3178 H3170 0.950 . S
C3178 C3176 1.391 . S
C3178 C3179 1.400 . S
C3179 C3178 1.400 . S
C3179 C3180 1.398 . S
C3179 C3185 1.491 . S
C3180 H3171 0.950 . S
C3180 C3179 1.398 . S
C3180 C3181 1.391 . S
C3181 H3169 0.950 . S
C3181 C3177 1.393 . S
C3181 C3180 1.391 . S
C3182 H3172 0.950 . S
C3182 C3183 1.386 . S
C3182 C3184 1.391 . S
C3183 C3182 1.386 . S
C3183 C3187 1.393 . S
C3184 H3173 0.950 . S
C3184 C3182 1.391 . S
C3184 C3185 1.400 . S
C3185 C3179 1.491 . S
C3185 C3184 1.400 . S
C3185 C3186 1.398 . S
C3186 H3174 0.950 . S
C3186 C3185 1.398 . S
C3186 C3187 1.391 . S
C3187 H3175 0.950 . S
C3187 C3183 1.393 . S
C3187 C3186 1.391 . S
H3188 C3196 0.950 . S
H3189 C3201 0.950 . S
H3190 C3198 0.950 . S
H3191 C3200 0.950 . S
H3192 C3202 0.950 . S
H3193 C3204 0.950 . S
H3194 C3206 0.950 . S
H3195 C3207 0.950 . S
C3196 H3188 0.950 . S
C3196 C3197 1.386 . S
C3196 C3198 1.391 . S
C3197 C3196 1.386 . S
C3197 C3201 1.393 . S
C3198 H3190 0.950 . S
C3198 C3196 1.391 . S
C3198 C3199 1.400 . S
C3199 C3198 1.400 . S
C3199 C3200 1.398 . S
C3199 C3205 1.491 . S
C3200 H3191 0.950 . S
C3200 C3199 1.398 . S
C3200 C3201 1.391 . S
C3201 H3189 0.950 . S
C3201 C3197 1.393 . S
C3201 C3200 1.391 . S
C3202 H3192 0.950 . S
C3202 C3203 1.386 . S
C3202 C3204 1.391 . S
C3203 C3202 1.386 . S
C3203 C3207 1.393 . S
C3204 H3193 0.950 . S
C3204 C3202 1.391 . S
C3204 C3205 1.400 . S
C3205 C3199 1.491 . S
C3205 C3204 1.400 . S
C3205 C3206 1.398 . S
C3206 H3194 0.950 . S
C3206 C3205 1.398 . S
C3206 C3207 1.391 . S
C3207 H3195 0.950 . S
C3207 C3203 1.393 . S
C3207 C3206 1.391 . S
H3208 C3216 0.950 . S
H3209 C3221 0.950 . S
H3210 C3218 0.950 . S
H3211 C3220 0.950 . S
H3212 C3222 0.950 . S
H3213 C3224 0.950 . S
H3214 C3226 0.950 . S
H3215 C3227 0.950 . S
C3216 H3208 0.950 . S
C3216 C3217 1.386 . S
C3216 C3218 1.391 . S
C3217 C3216 1.386 . S
C3217 C3221 1.393 . S
C3218 H3210 0.950 . S
C3218 C3216 1.391 . S
C3218 C3219 1.400 . S
C3219 C3218 1.400 . S
C3219 C3220 1.398 . S
C3219 C3225 1.491 . S
C3220 H3211 0.950 . S
C3220 C3219 1.398 . S
C3220 C3221 1.391 . S
C3221 H3209 0.950 . S
C3221 C3217 1.393 . S
C3221 C3220 1.391 . S
C3222 H3212 0.950 . S
C3222 C3223 1.386 . S
C3222 C3224 1.391 . S
C3223 C3222 1.386 . S
C3223 C3227 1.393 . S
C3224 H3213 0.950 . S
C3224 C3222 1.391 . S
C3224 C3225 1.400 . S
C3225 C3219 1.491 . S
C3225 C3224 1.400 . S
C3225 C3226 1.398 . S
C3226 H3214 0.950 . S
C3226 C3225 1.398 . S
C3226 C3227 1.391 . S
C3227 H3215 0.950 . S
C3227 C3223 1.393 . S
C3227 C3226 1.391 . S
H3228 C3236 0.950 . S
H3229 C3241 0.950 . S
H3230 C3238 0.950 . S
H3231 C3240 0.950 . S
H3232 C3242 0.950 . S
H3233 C3244 0.950 . S
H3234 C3246 0.950 . S
H3235 C3247 0.950 . S
C3236 H3228 0.950 . S
C3236 C3237 1.386 . S
C3236 C3238 1.391 . S
C3237 C3236 1.386 . S
C3237 C3241 1.393 . S
C3238 H3230 0.950 . S
C3238 C3236 1.391 . S
C3238 C3239 1.400 . S
C3239 C3238 1.400 . S
C3239 C3240 1.398 . S
C3239 C3245 1.491 . S
C3240 H3231 0.950 . S
C3240 C3239 1.398 . S
C3240 C3241 1.391 . S
C3241 H3229 0.950 . S
C3241 C3237 1.393 . S
C3241 C3240 1.391 . S
C3242 H3232 0.950 . S
C3242 C3243 1.386 . S
C3242 C3244 1.391 . S
C3243 C3242 1.386 . S
C3243 C3247 1.393 . S
C3244 H3233 0.950 . S
C3244 C3242 1.391 . S
C3244 C3245 1.400 . S
C3245 C3239 1.491 . S
C3245 C3244 1.400 . S
C3245 C3246 1.398 . S
C3246 H3234 0.950 . S
C3246 C3245 1.398 . S
C3246 C3247 1.391 . S
C3247 H3235 0.950 . S
C3247 C3243 1.393 . S
C3247 C3246 1.391 . S
H3248 C3256 0.950 . S
H3249 C3261 0.950 . S
H3250 C3258 0.950 . S
H3251 C3260 0.950 . S
H3252 C3262 0.950 . S
H3253 C3264 0.950 . S
H3254 C3266 0.950 . S
H3255 C3267 0.950 . S
C3256 H3248 0.950 . S
C3256 C3257 1.386 . S
C3256 C3258 1.391 . S
C3257 C3256 1.386 . S
C3257 C3261 1.393 . S
C3258 H3250 0.950 . S
C3258 C3256 1.391 . S
C3258 C3259 1.400 . S
C3259 C3258 1.400 . S
C3259 C3260 1.398 . S
C3259 C3265 1.491 . S
C3260 H3251 0.950 . S
C3260 C3259 1.398 . S
C3260 C3261 1.391 . S
C3261 H3249 0.950 . S
C3261 C3257 1.393 . S
C3261 C3260 1.391 . S
C3262 H3252 0.950 . S
C3262 C3263 1.386 . S
C3262 C3264 1.391 . S
C3263 C3262 1.386 . S
C3263 C3267 1.393 . S
C3264 H3253 0.950 . S
C3264 C3262 1.391 . S
C3264 C3265 1.400 . S
C3265 C3259 1.491 . S
C3265 C3264 1.400 . S
C3265 C3266 1.398 . S
C3266 H3254 0.950 . S
C3266 C3265 1.398 . S
C3266 C3267 1.391 . S
C3267 H3255 0.950 . S
C3267 C3263 1.393 . S
C3267 C3266 1.391 . S
H3268 C3276 0.950 . S
H3269 C3281 0.950 . S
H3270 C3278 0.950 . S
H3271 C3280 0.950 . S
H3272 C3282 0.950 . S
H3273 C3284 0.950 . S
H3274 C3286 0.950 . S
H3275 C3287 0.950 . S
C3276 H3268 0.950 . S
C3276 C3277 1.386 . S
C3276 C3278 1.391 . S
C3277 C3276 1.386 . S
C3277 C3281 1.393 . S
C3278 H3270 0.950 . S
C3278 C3276 1.391 . S
C3278 C3279 1.400 . S
C3279 C3278 1.400 . S
C3279 C3280 1.398 . S
C3279 C3285 1.491 . S
C3280 H3271 0.950 . S
C3280 C3279 1.398 . S
C3280 C3281 1.391 . S
C3281 H3269 0.950 . S
C3281 C3277 1.393 . S
C3281 C3280 1.391 . S
C3282 H3272 0.950 . S
C3282 C3283 1.386 . S
C3282 C3284 1.391 . S
C3283 C3282 1.386 . S
C3283 C3287 1.393 . S
C3284 H3273 0.950 . S
C3284 C3282 1.391 . S
C3284 C3285 1.400 . S
C3285 C3279 1.491 . S
C3285 C3284 1.400 . S
C3285 C3286 1.398 . S
C3286 H3274 0.950 . S
C3286 C3285 1.398 . S
C3286 C3287 1.391 . S
C3287 H3275 0.950 . S
C3287 C3283 1.393 . S
C3287 C3286 1.391 . S
H3288 C3296 0.950 . S
H3289 C3301 0.950 . S
H3290 C3298 0.950 . S
H3291 C3300 0.950 . S
H3292 C3302 0.950 . S
H3293 C3304 0.950 . S
H3294 C3306 0.950 . S
H3295 C3307 0.950 . S
C3296 H3288 0.950 . S
C3296 C3297 1.386 . S
C3296 C3298 1.391 . S
C3297 C3296 1.386 . S
C3297 C3301 1.393 . S
C3298 H3290 0.950 . S
C3298 C3296 1.391 . S
C3298 C3299 1.400 . S
C3299 C3298 1.400 . S
C3299 C3300 1.398 . S
C3299 C3305 1.491 . S
C3300 H3291 0.950 . S
C3300 C3299 1.398 . S
C3300 C3301 1.391 . S
C3301 H3289 0.950 . S
C3301 C3297 1.393 . S
C3301 C3300 1.391 . S
C3302 H3292 0.950 . S
C3302 C3303 1.386 . S
C3302 C3304 1.391 . S
C3303 C3302 1.386 . S
C3303 C3307 1.393 . S
C3304 H3293 0.950 . S
C3304 C3302 1.391 . S
C3304 C3305 1.400 . S
C3305 C3299 1.491 . S
C3305 C3304 1.400 . S
C3305 C3306 1.398 . S
C3306 H3294 0.950 . S
C3306 C3305 1.398 . S
C3306 C3307 1.391 . S
C3307 H3295 0.950 . S
C3307 C3303 1.393 . S
C3307 C3306 1.391 . S
H3308 C3316 0.950 . S
H3309 C3321 0.950 . S
H3310 C3318 0.950 . S
H3311 C3320 0.950 . S
H3312 C3322 0.950 . S
H3313 C3324 0.950 . S
H3314 C3326 0.950 . S
H3315 C3327 0.950 . S
C3316 H3308 0.950 . S
C3316 C3317 1.386 . S
C3316 C3318 1.391 . S
C3317 C3316 1.386 . S
C3317 C3321 1.393 . S
C3318 H3310 0.950 . S
C3318 C3316 1.391 . S
C3318 C3319 1.400 . S
C3319 C3318 1.400 . S
C3319 C3320 1.398 . S
C3319 C3325 1.491 . S
C3320 H3311 0.950 . S
C3320 C3319 1.398 . S
C3320 C3321 1.391 . S
C3321 H3309 0.950 . S
C3321 C3317 1.393 . S
C3321 C3320 1.391 . S
C3322 H3312 0.950 . S
C3322 C3323 1.386 . S
C3322 C3324 1.391 . S
C3323 C3322 1.386 . S
C3323 C3327 1.393 . S
C3324 H3313 0.950 . S
C3324 C3322 1.391 . S
C3324 C3325 1.400 . S
C3325 C3319 1.491 . S
C3325 C3324 1.400 . S
C3325 C3326 1.398 . S
C3326 H3314 0.950 . S
C3326 C3325 1.398 . S
C3326 C3327 1.391 . S
C3327 H3315 0.950 . S
C3327 C3323 1.393 . S
C3327 C3326 1.391 . S
H3328 C3336 0.950 . S
H3329 C3341 0.950 . S
H3330 C3338 0.950 . S
H3331 C3340 0.950 . S
H3332 C3342 0.950 . S
H3333 C3344 0.950 . S
H3334 C3346 0.950 . S
H3335 C3347 0.950 . S
C3336 H3328 0.950 . S
C3336 C3337 1.386 . S
C3336 C3338 1.391 . S
C3337 C3336 1.386 . S
C3337 C3341 1.393 . S
C3338 H3330 0.950 . S
C3338 C3336 1.391 . S
C3338 C3339 1.400 . S
C3339 C3338 1.400 . S
C3339 C3340 1.398 . S
C3339 C3345 1.491 . S
C3340 H3331 0.950 . S
C3340 C3339 1.398 . S
C3340 C3341 1.391 . S
C3341 H3329 0.950 . S
C3341 C3337 1.393 . S
C3341 C3340 1.391 . S
C3342 H3332 0.950 . S
C3342 C3343 1.386 . S
C3342 C3344 1.391 . S
C3343 C3342 1.386 . S
C3343 C3347 1.393 . S
C3344 H3333 0.950 . S
C3344 C3342 1.391 . S
C3344 C3345 1.400 . S
C3345 C3339 1.491 . S
C3345 C3344 1.400 . S
C3345 C3346 1.398 . S
C3346 H3334 0.950 . S
C3346 C3345 1.398 . S
C3346 C3347 1.391 . S
C3347 H3335 0.950 . S
C3347 C3343 1.393 . S
C3347 C3346 1.391 . S
H3348 C3356 0.950 . S
H3349 C3361 0.950 . S
H3350 C3358 0.950 . S
H3351 C3360 0.950 . S
H3352 C3362 0.950 . S
H3353 C3364 0.950 . S
H3354 C3366 0.950 . S
H3355 C3367 0.950 . S
C3356 H3348 0.950 . S
C3356 C3357 1.386 . S
C3356 C3358 1.391 . S
C3357 C3356 1.386 . S
C3357 C3361 1.393 . S
C3358 H3350 0.950 . S
C3358 C3356 1.391 . S
C3358 C3359 1.400 . S
C3359 C3358 1.400 . S
C3359 C3360 1.398 . S
C3359 C3365 1.491 . S
C3360 H3351 0.950 . S
C3360 C3359 1.398 . S
C3360 C3361 1.391 . S
C3361 H3349 0.950 . S
C3361 C3357 1.393 . S
C3361 C3360 1.391 . S
C3362 H3352 0.950 . S
C3362 C3363 1.386 . S
C3362 C3364 1.391 . S
C3363 C3362 1.386 . S
C3363 C3367 1.393 . S
C3364 H3353 0.950 . S
C3364 C3362 1.391 . S
C3364 C3365 1.400 . S
C3365 C3359 1.491 . S
C3365 C3364 1.400 . S
C3365 C3366 1.398 . S
C3366 H3354 0.950 . S
C3366 C3365 1.398 . S
C3366 C3367 1.391 . S
C3367 H3355 0.950 . S
C3367 C3363 1.393 . S
C3367 C3366 1.391 . S
H3368 C3376 0.950 . S
H3369 C3381 0.950 . S
H3370 C3378 0.950 . S
H3371 C3380 0.950 . S
H3372 C3382 0.950 . S
H3373 C3384 0.950 . S
H3374 C3386 0.950 . S
H3375 C3387 0.950 . S
C3376 H3368 0.950 . S
C3376 C3377 1.386 . S
C3376 C3378 1.391 . S
C3377 C3376 1.386 . S
C3377 C3381 1.393 . S
C3378 H3370 0.950 . S
C3378 C3376 1.391 . S
C3378 C3379 1.400 . S
C3379 C3378 1.400 . S
C3379 C3380 1.398 . S
C3379 C3385 1.491 . S
C3380 H3371 0.950 . S
C3380 C3379 1.398 . S
C3380 C3381 1.391 . S
C3381 H3369 0.950 . S
C3381 C3377 1.393 . S
C3381 C3380 1.391 . S
C3382 H3372 0.950 . S
C3382 C3383 1.386 . S
C3382 C3384 1.391 . S
C3383 C3382 1.386 . S
C3383 C3387 1.393 . S
C3384 H3373 0.950 . S
C3384 C3382 1.391 . S
C3384 C3385 1.400 . S
C3385 C3379 1.491 . S
C3385 C3384 1.400 . S
C3385 C3386 1.398 . S
C3386 H3374 0.950 . S
C3386 C3385 1.398 . S
C3386 C3387 1.391 . S
C3387 H3375 0.950 . S
C3387 C3383 1.393 . S
C3387 C3386 1.391 . S
H3388 C3396 0.950 . S
H3389 C3401 0.950 . S
H3390 C3398 0.950 . S
H3391 C3400 0.950 . S
H3392 C3402 0.950 . S
H3393 C3404 0.950 . S
H3394 C3406 0.950 . S
H3395 C3407 0.950 . S
C3396 H3388 0.950 . S
C3396 C3397 1.386 . S
C3396 C3398 1.391 . S
C3397 C3396 1.386 . S
C3397 C3401 1.393 . S
C3398 H3390 0.950 . S
C3398 C3396 1.391 . S
C3398 C3399 1.400 . S
C3399 C3398 1.400 . S
C3399 C3400 1.398 . S
C3399 C3405 1.491 . S
C3400 H3391 0.950 . S
C3400 C3399 1.398 . S
C3400 C3401 1.391 . S
C3401 H3389 0.950 . S
C3401 C3397 1.393 . S
C3401 C3400 1.391 . S
C3402 H3392 0.950 . S
C3402 C3403 1.386 . S
C3402 C3404 1.391 . S
C3403 C3402 1.386 . S
C3403 C3407 1.393 . S
C3404 H3393 0.950 . S
C3404 C3402 1.391 . S
C3404 C3405 1.400 . S
C3405 C3399 1.491 . S
C3405 C3404 1.400 . S
C3405 C3406 1.398 . S
C3406 H3394 0.950 . S
C3406 C3405 1.398 . S
C3406 C3407 1.391 . S
C3407 H3395 0.950 . S
C3407 C3403 1.393 . S
C3407 C3406 1.391 . S
H3408 C3416 0.950 . S
H3409 C3421 0.950 . S
H3410 C3418 0.950 . S
H3411 C3420 0.950 . S
H3412 C3422 0.950 . S
H3413 C3424 0.950 . S
H3414 C3426 0.950 . S
H3415 C3427 0.950 . S
C3416 H3408 0.950 . S
C3416 C3417 1.386 . S
C3416 C3418 1.391 . S
C3417 C3416 1.386 . S
C3417 C3421 1.393 . S
C3418 H3410 0.950 . S
C3418 C3416 1.391 . S
C3418 C3419 1.400 . S
C3419 C3418 1.400 . S
C3419 C3420 1.398 . S
C3419 C3425 1.491 . S
C3420 H3411 0.950 . S
C3420 C3419 1.398 . S
C3420 C3421 1.391 . S
C3421 H3409 0.950 . S
C3421 C3417 1.393 . S
C3421 C3420 1.391 . S
C3422 H3412 0.950 . S
C3422 C3423 1.386 . S
C3422 C3424 1.391 . S
C3423 C3422 1.386 . S
C3423 C3427 1.393 . S
C3424 H3413 0.950 . S
C3424 C3422 1.391 . S
C3424 C3425 1.400 . S
C3425 C3419 1.491 . S
C3425 C3424 1.400 . S
C3425 C3426 1.398 . S
C3426 H3414 0.950 . S
C3426 C3425 1.398 . S
C3426 C3427 1.391 . S
C3427 H3415 0.950 . S
C3427 C3423 1.393 . S
C3427 C3426 1.391 . S
H3428 C3436 0.950 . S
H3429 C3441 0.950 . S
H3430 C3438 0.950 . S
H3431 C3440 0.950 . S
H3432 C3442 0.950 . S
H3433 C3444 0.950 . S
H3434 C3446 0.950 . S
H3435 C3447 0.950 . S
C3436 H3428 0.950 . S
C3436 C3437 1.386 . S
C3436 C3438 1.391 . S
C3437 C3436 1.386 . S
C3437 C3441 1.393 . S
C3438 H3430 0.950 . S
C3438 C3436 1.391 . S
C3438 C3439 1.400 . S
C3439 C3438 1.400 . S
C3439 C3440 1.398 . S
C3439 C3445 1.491 . S
C3440 H3431 0.950 . S
C3440 C3439 1.398 . S
C3440 C3441 1.391 . S
C3441 H3429 0.950 . S
C3441 C3437 1.393 . S
C3441 C3440 1.391 . S
C3442 H3432 0.950 . S
C3442 C3443 1.386 . S
C3442 C3444 1.391 . S
C3443 C3442 1.386 . S
C3443 C3447 1.393 . S
C3444 H3433 0.950 . S
C3444 C3442 1.391 . S
C3444 C3445 1.400 . S
C3445 C3439 1.491 . S
C3445 C3444 1.400 . S
C3445 C3446 1.398 . S
C3446 H3434 0.950 . S
C3446 C3445 1.398 . S
C3446 C3447 1.391 . S
C3447 H3435 0.950 . S
C3447 C3443 1.393 . S
C3447 C3446 1.391 . S
H3448 C3456 0.950 . S
H3449 C3461 0.950 . S
H3450 C3458 0.950 . S
H3451 C3460 0.950 . S
H3452 C3462 0.950 . S
H3453 C3464 0.950 . S
H3454 C3466 0.950 . S
H3455 C3467 0.950 . S
C3456 H3448 0.950 . S
C3456 C3457 1.386 . S
C3456 C3458 1.391 . S
C3457 C3456 1.386 . S
C3457 C3461 1.393 . S
C3458 H3450 0.950 . S
C3458 C3456 1.391 . S
C3458 C3459 1.400 . S
C3459 C3458 1.400 . S
C3459 C3460 1.398 . S
C3459 C3465 1.491 . S
C3460 H3451 0.950 . S
C3460 C3459 1.398 . S
C3460 C3461 1.391 . S
C3461 H3449 0.950 . S
C3461 C3457 1.393 . S
C3461 C3460 1.391 . S
C3462 H3452 0.950 . S
C3462 C3463 1.386 . S
C3462 C3464 1.391 . S
C3463 C3462 1.386 . S
C3463 C3467 1.393 . S
C3464 H3453 0.950 . S
C3464 C3462 1.391 . S
C3464 C3465 1.400 . S
C3465 C3459 1.491 . S
C3465 C3464 1.400 . S
C3465 C3466 1.398 . S
C3466 H3454 0.950 . S
C3466 C3465 1.398 . S
C3466 C3467 1.391 . S
C3467 H3455 0.950 . S
C3467 C3463 1.393 . S
C3467 C3466 1.391 . S
H3468 C3476 0.950 . S
H3469 C3481 0.950 . S
H3470 C3478 0.950 . S
H3471 C3480 0.950 . S
H3472 C3482 0.950 . S
H3473 C3484 0.950 . S
H3474 C3486 0.950 . S
H3475 C3487 0.950 . S
C3476 H3468 0.950 . S
C3476 C3477 1.386 . S
C3476 C3478 1.391 . S
C3477 C3476 1.386 . S
C3477 C3481 1.393 . S
C3478 H3470 0.950 . S
C3478 C3476 1.391 . S
C3478 C3479 1.400 . S
C3479 C3478 1.400 . S
C3479 C3480 1.398 . S
C3479 C3485 1.491 . S
C3480 H3471 0.950 . S
C3480 C3479 1.398 . S
C3480 C3481 1.391 . S
C3481 H3469 0.950 . S
C3481 C3477 1.393 . S
C3481 C3480 1.391 . S
C3482 H3472 0.950 . S
C3482 C3483 1.386 . S
C3482 C3484 1.391 . S
C3483 C3482 1.386 . S
C3483 C3487 1.393 . S
C3484 H3473 0.950 . S
C3484 C3482 1.391 . S
C3484 C3485 1.400 . S
C3485 C3479 1.491 . S
C3485 C3484 1.400 . S
C3485 C3486 1.398 . S
C3486 H3474 0.950 . S
C3486 C3485 1.398 . S
C3486 C3487 1.391 . S
C3487 H3475 0.950 . S
C3487 C3483 1.393 . S
C3487 C3486 1.391 . S
H3488 C3496 0.950 . S
H3489 C3501 0.950 . S
H3490 C3498 0.950 . S
H3491 C3500 0.950 . S
H3492 C3502 0.950 . S
H3493 C3504 0.950 . S
H3494 C3506 0.950 . S
H3495 C3507 0.950 . S
C3496 H3488 0.950 . S
C3496 C3497 1.386 . S
C3496 C3498 1.391 . S
C3497 C3496 1.386 . S
C3497 C3501 1.393 . S
C3498 H3490 0.950 . S
C3498 C3496 1.391 . S
C3498 C3499 1.400 . S
C3499 C3498 1.400 . S
C3499 C3500 1.398 . S
C3499 C3505 1.491 . S
C3500 H3491 0.950 . S
C3500 C3499 1.398 . S
C3500 C3501 1.391 . S
C3501 H3489 0.950 . S
C3501 C3497 1.393 . S
C3501 C3500 1.391 . S
C3502 H3492 0.950 . S
C3502 C3503 1.386 . S
C3502 C3504 1.391 . S
C3503 C3502 1.386 . S
C3503 C3507 1.393 . S
C3504 H3493 0.950 . S
C3504 C3502 1.391 . S
C3504 C3505 1.400 . S
C3505 C3499 1.491 . S
C3505 C3504 1.400 . S
C3505 C3506 1.398 . S
C3506 H3494 0.950 . S
C3506 C3505 1.398 . S
C3506 C3507 1.391 . S
C3507 H3495 0.950 . S
C3507 C3503 1.393 . S
C3507 C3506 1.391 . S
H3508 C3516 0.950 . S
H3509 C3521 0.950 . S
H3510 C3518 0.950 . S
H3511 C3520 0.950 . S
H3512 C3522 0.950 . S
H3513 C3524 0.950 . S
H3514 C3526 0.950 . S
H3515 C3527 0.950 . S
C3516 H3508 0.950 . S
C3516 C3517 1.386 . S
C3516 C3518 1.391 . S
C3517 C3516 1.386 . S
C3517 C3521 1.393 . S
C3518 H3510 0.950 . S
C3518 C3516 1.391 . S
C3518 C3519 1.400 . S
C3519 C3518 1.400 . S
C3519 C3520 1.398 . S
C3519 C3525 1.491 . S
C3520 H3511 0.950 . S
C3520 C3519 1.398 . S
C3520 C3521 1.391 . S
C3521 H3509 0.950 . S
C3521 C3517 1.393 . S
C3521 C3520 1.391 . S
C3522 H3512 0.950 . S
C3522 C3523 1.386 . S
C3522 C3524 1.391 . S
C3523 C3522 1.386 . S
C3523 C3527 1.393 . S
C3524 H3513 0.950 . S
C3524 C3522 1.391 . S
C3524 C3525 1.400 . S
C3525 C3519 1.491 . S
C3525 C3524 1.400 . S
C3525 C3526 1.398 . S
C3526 H3514 0.950 . S
C3526 C3525 1.398 . S
C3526 C3527 1.391 . S
C3527 H3515 0.950 . S
C3527 C3523 1.393 . S
C3527 C3526 1.391 . S
H3528 C3536 0.950 . S
H3529 C3541 0.950 . S
H3530 C3538 0.950 . S
H3531 C3540 0.950 . S
H3532 C3542 0.950 . S
H3533 C3544 0.950 . S
H3534 C3546 0.950 . S
H3535 C3547 0.950 . S
C3536 H3528 0.950 . S
C3536 C3537 1.386 . S
C3536 C3538 1.391 . S
C3537 C3536 1.386 . S
C3537 C3541 1.393 . S
C3538 H3530 0.950 . S
C3538 C3536 1.391 . S
C3538 C3539 1.400 . S
C3539 C3538 1.400 . S
C3539 C3540 1.398 . S
C3539 C3545 1.491 . S
C3540 H3531 0.950 . S
C3540 C3539 1.398 . S
C3540 C3541 1.391 . S
C3541 H3529 0.950 . S
C3541 C3537 1.393 . S
C3541 C3540 1.391 . S
C3542 H3532 0.950 . S
C3542 C3543 1.386 . S
C3542 C3544 1.391 . S
C3543 C3542 1.386 . S
C3543 C3547 1.393 . S
C3544 H3533 0.950 . S
C3544 C3542 1.391 . S
C3544 C3545 1.400 . S
C3545 C3539 1.491 . S
C3545 C3544 1.400 . S
C3545 C3546 1.398 . S
C3546 H3534 0.950 . S
C3546 C3545 1.398 . S
C3546 C3547 1.391 . S
C3547 H3535 0.950 . S
C3547 C3543 1.393 . S
C3547 C3546 1.391 . S
H3548 C3556 0.950 . S
H3549 C3561 0.950 . S
H3550 C3558 0.950 . S
H3551 C3560 0.950 . S
H3552 C3562 0.950 . S
H3553 C3564 0.950 . S
H3554 C3566 0.950 . S
H3555 C3567 0.950 . S
C3556 H3548 0.950 . S
C3556 C3557 1.386 . S
C3556 C3558 1.391 . S
C3557 C3556 1.386 . S
C3557 C3561 1.393 . S
C3558 H3550 0.950 . S
C3558 C3556 1.391 . S
C3558 C3559 1.400 . S
C3559 C3558 1.400 . S
C3559 C3560 1.398 . S
C3559 C3565 1.491 . S
C3560 H3551 0.950 . S
C3560 C3559 1.398 . S
C3560 C3561 1.391 . S
C3561 H3549 0.950 . S
C3561 C3557 1.393 . S
C3561 C3560 1.391 . S
C3562 H3552 0.950 . S
C3562 C3563 1.386 . S
C3562 C3564 1.391 . S
C3563 C3562 1.386 . S
C3563 C3567 1.393 . S
C3564 H3553 0.950 . S
C3564 C3562 1.391 . S
C3564 C3565 1.400 . S
C3565 C3559 1.491 . S
C3565 C3564 1.400 . S
C3565 C3566 1.398 . S
C3566 H3554 0.950 . S
C3566 C3565 1.398 . S
C3566 C3567 1.391 . S
C3567 H3555 0.950 . S
C3567 C3563 1.393 . S
C3567 C3566 1.391 . S
H3568 C3576 0.950 . S
H3569 C3581 0.950 . S
H3570 C3578 0.950 . S
H3571 C3580 0.950 . S
H3572 C3582 0.950 . S
H3573 C3584 0.950 . S
H3574 C3586 0.950 . S
H3575 C3587 0.950 . S
C3576 H3568 0.950 . S
C3576 C3577 1.386 . S
C3576 C3578 1.391 . S
C3577 C3576 1.386 . S
C3577 C3581 1.393 . S
C3578 H3570 0.950 . S
C3578 C3576 1.391 . S
C3578 C3579 1.400 . S
C3579 C3578 1.400 . S
C3579 C3580 1.398 . S
C3579 C3585 1.491 . S
C3580 H3571 0.950 . S
C3580 C3579 1.398 . S
C3580 C3581 1.391 . S
C3581 H3569 0.950 . S
C3581 C3577 1.393 . S
C3581 C3580 1.391 . S
C3582 H3572 0.950 . S
C3582 C3583 1.386 . S
C3582 C3584 1.391 . S
C3583 C3582 1.386 . S
C3583 C3587 1.393 . S
C3584 H3573 0.950 . S
C3584 C3582 1.391 . S
C3584 C3585 1.400 . S
C3585 C3579 1.491 . S
C3585 C3584 1.400 . S
C3585 C3586 1.398 . S
C3586 H3574 0.950 . S
C3586 C3585 1.398 . S
C3586 C3587 1.391 . S
C3587 H3575 0.950 . S
C3587 C3583 1.393 . S
C3587 C3586 1.391 . S
H3588 C3596 0.950 . S
H3589 C3601 0.950 . S
H3590 C3598 0.950 . S
H3591 C3600 0.950 . S
H3592 C3602 0.950 . S
H3593 C3604 0.950 . S
H3594 C3606 0.950 . S
H3595 C3607 0.950 . S
C3596 H3588 0.950 . S
C3596 C3597 1.386 . S
C3596 C3598 1.391 . S
C3597 C3596 1.386 . S
C3597 C3601 1.393 . S
C3598 H3590 0.950 . S
C3598 C3596 1.391 . S
C3598 C3599 1.400 . S
C3599 C3598 1.400 . S
C3599 C3600 1.398 . S
C3599 C3605 1.491 . S
C3600 H3591 0.950 . S
C3600 C3599 1.398 . S
C3600 C3601 1.391 . S
C3601 H3589 0.950 . S
C3601 C3597 1.393 . S
C3601 C3600 1.391 . S
C3602 H3592 0.950 . S
C3602 C3603 1.386 . S
C3602 C3604 1.391 . S
C3603 C3602 1.386 . S
C3603 C3607 1.393 . S
C3604 H3593 0.950 . S
C3604 C3602 1.391 . S
C3604 C3605 1.400 . S
C3605 C3599 1.491 . S
C3605 C3604 1.400 . S
C3605 C3606 1.398 . S
C3606 H3594 0.950 . S
C3606 C3605 1.398 . S
C3606 C3607 1.391 . S
C3607 H3595 0.950 . S
C3607 C3603 1.393 . S
C3607 C3606 1.391 . S
H3608 C3616 0.950 . S
H3609 C3621 0.950 . S
H3610 C3618 0.950 . S
H3611 C3620 0.950 . S
H3612 C3622 0.950 . S
H3613 C3624 0.950 . S
H3614 C3626 0.950 . S
H3615 C3627 0.950 . S
C3616 H3608 0.950 . S
C3616 C3617 1.386 . S
C3616 C3618 1.391 . S
C3617 C3616 1.386 . S
C3617 C3621 1.393 . S
C3618 H3610 0.950 . S
C3618 C3616 1.391 . S
C3618 C3619 1.400 . S
C3619 C3618 1.400 . S
C3619 C3620 1.398 . S
C3619 C3625 1.491 . S
C3620 H3611 0.950 . S
C3620 C3619 1.398 . S
C3620 C3621 1.391 . S
C3621 H3609 0.950 . S
C3621 C3617 1.393 . S
C3621 C3620 1.391 . S
C3622 H3612 0.950 . S
C3622 C3623 1.386 . S
C3622 C3624 1.391 . S
C3623 C3622 1.386 . S
C3623 C3627 1.393 . S
C3624 H3613 0.950 . S
C3624 C3622 1.391 . S
C3624 C3625 1.400 . S
C3625 C3619 1.491 . S
C3625 C3624 1.400 . S
C3625 C3626 1.398 . S
C3626 H3614 0.950 . S
C3626 C3625 1.398 . S
C3626 C3627 1.391 . S
C3627 H3615 0.950 . S
C3627 C3623 1.393 . S
C3627 C3626 1.391 . S
H3628 C3636 0.950 . S
H3629 C3641 0.950 . S
H3630 C3638 0.950 . S
H3631 C3640 0.950 . S
H3632 C3642 0.950 . S
H3633 C3644 0.950 . S
H3634 C3646 0.950 . S
H3635 C3647 0.950 . S
C3636 H3628 0.950 . S
C3636 C3637 1.386 . S
C3636 C3638 1.391 . S
C3637 C3636 1.386 . S
C3637 C3641 1.393 . S
C3638 H3630 0.950 . S
C3638 C3636 1.391 . S
C3638 C3639 1.400 . S
C3639 C3638 1.400 . S
C3639 C3640 1.398 . S
C3639 C3645 1.491 . S
C3640 H3631 0.950 . S
C3640 C3639 1.398 . S
C3640 C3641 1.391 . S
C3641 H3629 0.950 . S
C3641 C3637 1.393 . S
C3641 C3640 1.391 . S
C3642 H3632 0.950 . S
C3642 C3643 1.386 . S
C3642 C3644 1.391 . S
C3643 C3642 1.386 . S
C3643 C3647 1.393 . S
C3644 H3633 0.950 . S
C3644 C3642 1.391 . S
C3644 C3645 1.400 . S
C3645 C3639 1.491 . S
C3645 C3644 1.400 . S
C3645 C3646 1.398 . S
C3646 H3634 0.950 . S
C3646 C3645 1.398 . S
C3646 C3647 1.391 . S
C3647 H3635 0.950 . S
C3647 C3643 1.393 . S
C3647 C3646 1.391 . S
H3648 C3656 0.950 . S
H3649 C3661 0.950 . S
H3650 C3658 0.950 . S
H3651 C3660 0.950 . S
H3652 C3662 0.950 . S
H3653 C3664 0.950 . S
H3654 C3666 0.950 . S
H3655 C3667 0.950 . S
C3656 H3648 0.950 . S
C3656 C3657 1.386 . S
C3656 C3658 1.391 . S
C3657 C3656 1.386 . S
C3657 C3661 1.393 . S
C3658 H3650 0.950 . S
C3658 C3656 1.391 . S
C3658 C3659 1.400 . S
C3659 C3658 1.400 . S
C3659 C3660 1.398 . S
C3659 C3665 1.491 . S
C3660 H3651 0.950 . S
C3660 C3659 1.398 . S
C3660 C3661 1.391 . S
C3661 H3649 0.950 . S
C3661 C3657 1.393 . S
C3661 C3660 1.391 . S
C3662 H3652 0.950 . S
C3662 C3663 1.386 . S
C3662 C3664 1.391 . S
C3663 C3662 1.386 . S
C3663 C3667 1.393 . S
C3664 H3653 0.950 . S
C3664 C3662 1.391 . S
C3664 C3665 1.400 . S
C3665 C3659 1.491 . S
C3665 C3664 1.400 . S
C3665 C3666 1.398 . S
C3666 H3654 0.950 . S
C3666 C3665 1.398 . S
C3666 C3667 1.391 . S
C3667 H3655 0.950 . S
C3667 C3663 1.393 . S
C3667 C3666 1.391 . S
H3668 C3676 0.950 . S
H3669 C3681 0.950 . S
H3670 C3678 0.950 . S
H3671 C3680 0.950 . S
H3672 C3682 0.950 . S
H3673 C3684 0.950 . S
H3674 C3686 0.950 . S
H3675 C3687 0.950 . S
C3676 H3668 0.950 . S
C3676 C3677 1.386 . S
C3676 C3678 1.391 . S
C3677 C3676 1.386 . S
C3677 C3681 1.393 . S
C3678 H3670 0.950 . S
C3678 C3676 1.391 . S
C3678 C3679 1.400 . S
C3679 C3678 1.400 . S
C3679 C3680 1.398 . S
C3679 C3685 1.491 . S
C3680 H3671 0.950 . S
C3680 C3679 1.398 . S
C3680 C3681 1.391 . S
C3681 H3669 0.950 . S
C3681 C3677 1.393 . S
C3681 C3680 1.391 . S
C3682 H3672 0.950 . S
C3682 C3683 1.386 . S
C3682 C3684 1.391 . S
C3683 C3682 1.386 . S
C3683 C3687 1.393 . S
C3684 H3673 0.950 . S
C3684 C3682 1.391 . S
C3684 C3685 1.400 . S
C3685 C3679 1.491 . S
C3685 C3684 1.400 . S
C3685 C3686 1.398 . S
C3686 H3674 0.950 . S
C3686 C3685 1.398 . S
C3686 C3687 1.391 . S
C3687 H3675 0.950 . S
C3687 C3683 1.393 . S
C3687 C3686 1.391 . S
H3688 C3696 0.950 . S
H3689 C3701 0.950 . S
H3690 C3698 0.950 . S
H3691 C3700 0.950 . S
H3692 C3702 0.950 . S
H3693 C3704 0.950 . S
H3694 C3706 0.950 . S
H3695 C3707 0.950 . S
C3696 H3688 0.950 . S
C3696 C3697 1.386 . S
C3696 C3698 1.391 . S
C3697 C3696 1.386 . S
C3697 C3701 1.393 . S
C3698 H3690 0.950 . S
C3698 C3696 1.391 . S
C3698 C3699 1.400 . S
C3699 C3698 1.400 . S
C3699 C3700 1.398 . S
C3699 C3705 1.491 . S
C3700 H3691 0.950 . S
C3700 C3699 1.398 . S
C3700 C3701 1.391 . S
C3701 H3689 0.950 . S
C3701 C3697 1.393 . S
C3701 C3700 1.391 . S
C3702 H3692 0.950 . S
C3702 C3703 1.386 . S
C3702 C3704 1.391 . S
C3703 C3702 1.386 . S
C3703 C3707 1.393 . S
C3704 H3693 0.950 . S
C3704 C3702 1.391 . S
C3704 C3705 1.400 . S
C3705 C3699 1.491 . S
C3705 C3704 1.400 . S
C3705 C3706 1.398 . S
C3706 H3694 0.950 . S
C3706 C3705 1.398 . S
C3706 C3707 1.391 . S
C3707 H3695 0.950 . S
C3707 C3703 1.393 . S
C3707 C3706 1.391 . S
H3708 C3716 0.950 . S
H3709 C3721 0.950 . S
H3710 C3718 0.950 . S
H3711 C3720 0.950 . S
H3712 C3722 0.950 . S
H3713 C3724 0.950 . S
H3714 C3726 0.950 . S
H3715 C3727 0.950 . S
C3716 H3708 0.950 . S
C3716 C3717 1.386 . S
C3716 C3718 1.391 . S
C3717 C3716 1.386 . S
C3717 C3721 1.393 . S
C3718 H3710 0.950 . S
C3718 C3716 1.391 . S
C3718 C3719 1.400 . S
C3719 C3718 1.400 . S
C3719 C3720 1.398 . S
C3719 C3725 1.491 . S
C3720 H3711 0.950 . S
C3720 C3719 1.398 . S
C3720 C3721 1.391 . S
C3721 H3709 0.950 . S
C3721 C3717 1.393 . S
C3721 C3720 1.391 . S
C3722 H3712 0.950 . S
C3722 C3723 1.386 . S
C3722 C3724 1.391 . S
C3723 C3722 1.386 . S
C3723 C3727 1.393 . S
C3724 H3713 0.950 . S
C3724 C3722 1.391 . S
C3724 C3725 1.400 . S
C3725 C3719 1.491 . S
C3725 C3724 1.400 . S
C3725 C3726 1.398 . S
C3726 H3714 0.950 . S
C3726 C3725 1.398 . S
C3726 C3727 1.391 . S
C3727 H3715 0.950 . S
C3727 C3723 1.393 . S
C3727 C3726 1.391 . S
H3728 C3736 0.950 . S
H3729 C3741 0.950 . S
H3730 C3738 0.950 . S
H3731 C3740 0.950 . S
H3732 C3742 0.950 . S
H3733 C3744 0.950 . S
H3734 C3746 0.950 . S
H3735 C3747 0.950 . S
C3736 H3728 0.950 . S
C3736 C3737 1.386 . S
C3736 C3738 1.391 . S
C3737 C3736 1.386 . S
C3737 C3741 1.393 . S
C3738 H3730 0.950 . S
C3738 C3736 1.391 . S
C3738 C3739 1.400 . S
C3739 C3738 1.400 . S
C3739 C3740 1.398 . S
C3739 C3745 1.491 . S
C3740 H3731 0.950 . S
C3740 C3739 1.398 . S
C3740 C3741 1.391 . S
C3741 H3729 0.950 . S
C3741 C3737 1.393 . S
C3741 C3740 1.391 . S
C3742 H3732 0.950 . S
C3742 C3743 1.386 . S
C3742 C3744 1.391 . S
C3743 C3742 1.386 . S
C3743 C3747 1.393 . S
C3744 H3733 0.950 . S
C3744 C3742 1.391 . S
C3744 C3745 1.400 . S
C3745 C3739 1.491 . S
C3745 C3744 1.400 . S
C3745 C3746 1.398 . S
C3746 H3734 0.950 . S
C3746 C3745 1.398 . S
C3746 C3747 1.391 . S
C3747 H3735 0.950 . S
C3747 C3743 1.393 . S
C3747 C3746 1.391 . S
H3748 C3756 0.950 . S
H3749 C3761 0.950 . S
H3750 C3758 0.950 . S
H3751 C3760 0.950 . S
H3752 C3762 0.950 . S
H3753 C3764 0.950 . S
H3754 C3766 0.950 . S
H3755 C3767 0.950 . S
C3756 H3748 0.950 . S
C3756 C3757 1.386 . S
C3756 C3758 1.391 . S
C3757 C3756 1.386 . S
C3757 C3761 1.393 . S
C3758 H3750 0.950 . S
C3758 C3756 1.391 . S
C3758 C3759 1.400 . S
C3759 C3758 1.400 . S
C3759 C3760 1.398 . S
C3759 C3765 1.491 . S
C3760 H3751 0.950 . S
C3760 C3759 1.398 . S
C3760 C3761 1.391 . S
C3761 H3749 0.950 . S
C3761 C3757 1.393 . S
C3761 C3760 1.391 . S
C3762 H3752 0.950 . S
C3762 C3763 1.386 . S
C3762 C3764 1.391 . S
C3763 C3762 1.386 . S
C3763 C3767 1.393 . S
C3764 H3753 0.950 . S
C3764 C3762 1.391 . S
C3764 C3765 1.400 . S
C3765 C3759 1.491 . S
C3765 C3764 1.400 . S
C3765 C3766 1.398 . S
C3766 H3754 0.950 . S
C3766 C3765 1.398 . S
C3766 C3767 1.391 . S
C3767 H3755 0.950 . S
C3767 C3763 1.393 . S
C3767 C3766 1.391 . S
H3768 C3776 0.950 . S
H3769 C3781 0.950 . S
H3770 C3778 0.950 . S
H3771 C3780 0.950 . S
H3772 C3782 0.950 . S
H3773 C3784 0.950 . S
H3774 C3786 0.950 . S
H3775 C3787 0.950 . S
C3776 H3768 0.950 . S
C3776 C3777 1.386 . S
C3776 C3778 1.391 . S
C3777 C3776 1.386 . S
C3777 C3781 1.393 . S
C3778 H3770 0.950 . S
C3778 C3776 1.391 . S
C3778 C3779 1.400 . S
C3779 C3778 1.400 . S
C3779 C3780 1.398 . S
C3779 C3785 1.491 . S
C3780 H3771 0.950 . S
C3780 C3779 1.398 . S
C3780 C3781 1.391 . S
C3781 H3769 0.950 . S
C3781 C3777 1.393 . S
C3781 C3780 1.391 . S
C3782 H3772 0.950 . S
C3782 C3783 1.386 . S
C3782 C3784 1.391 . S
C3783 C3782 1.386 . S
C3783 C3787 1.393 . S
C3784 H3773 0.950 . S
C3784 C3782 1.391 . S
C3784 C3785 1.400 . S
C3785 C3779 1.491 . S
C3785 C3784 1.400 . S
C3785 C3786 1.398 . S
C3786 H3774 0.950 . S
C3786 C3785 1.398 . S
C3786 C3787 1.391 . S
C3787 H3775 0.950 . S
C3787 C3783 1.393 . S
C3787 C3786 1.391 . S
H3788 C3796 0.950 . S
H3789 C3801 0.950 . S
H3790 C3798 0.950 . S
H3791 C3800 0.950 . S
H3792 C3802 0.950 . S
H3793 C3804 0.950 . S
H3794 C3806 0.950 . S
H3795 C3807 0.950 . S
C3796 H3788 0.950 . S
C3796 C3797 1.386 . S
C3796 C3798 1.391 . S
C3797 C3796 1.386 . S
C3797 C3801 1.393 . S
C3798 H3790 0.950 . S
C3798 C3796 1.391 . S
C3798 C3799 1.400 . S
C3799 C3798 1.400 . S
C3799 C3800 1.398 . S
C3799 C3805 1.491 . S
C3800 H3791 0.950 . S
C3800 C3799 1.398 . S
C3800 C3801 1.391 . S
C3801 H3789 0.950 . S
C3801 C3797 1.393 . S
C3801 C3800 1.391 . S
C3802 H3792 0.950 . S
C3802 C3803 1.386 . S
C3802 C3804 1.391 . S
C3803 C3802 1.386 . S
C3803 C3807 1.393 . S
C3804 H3793 0.950 . S
C3804 C3802 1.391 . S
C3804 C3805 1.400 . S
C3805 C3799 1.491 . S
C3805 C3804 1.400 . S
C3805 C3806 1.398 . S
C3806 H3794 0.950 . S
C3806 C3805 1.398 . S
C3806 C3807 1.391 . S
C3807 H3795 0.950 . S
C3807 C3803 1.393 . S
C3807 C3806 1.391 . S
H3808 C3816 0.950 . S
H3809 C3821 0.950 . S
H3810 C3818 0.950 . S
H3811 C3820 0.950 . S
H3812 C3822 0.950 . S
H3813 C3824 0.950 . S
H3814 C3826 0.950 . S
H3815 C3827 0.950 . S
C3816 H3808 0.950 . S
C3816 C3817 1.386 . S
C3816 C3818 1.391 . S
C3817 C3816 1.386 . S
C3817 C3821 1.393 . S
C3818 H3810 0.950 . S
C3818 C3816 1.391 . S
C3818 C3819 1.400 . S
C3819 C3818 1.400 . S
C3819 C3820 1.398 . S
C3819 C3825 1.491 . S
C3820 H3811 0.950 . S
C3820 C3819 1.398 . S
C3820 C3821 1.391 . S
C3821 H3809 0.950 . S
C3821 C3817 1.393 . S
C3821 C3820 1.391 . S
C3822 H3812 0.950 . S
C3822 C3823 1.386 . S
C3822 C3824 1.391 . S
C3823 C3822 1.386 . S
C3823 C3827 1.393 . S
C3824 H3813 0.950 . S
C3824 C3822 1.391 . S
C3824 C3825 1.400 . S
C3825 C3819 1.491 . S
C3825 C3824 1.400 . S
C3825 C3826 1.398 . S
C3826 H3814 0.950 . S
C3826 C3825 1.398 . S
C3826 C3827 1.391 . S
C3827 H3815 0.950 . S
C3827 C3823 1.393 . S
C3827 C3826 1.391 . S
H3828 C3836 0.950 . S
H3829 C3841 0.950 . S
H3830 C3838 0.950 . S
H3831 C3840 0.950 . S
H3832 C3842 0.950 . S
H3833 C3844 0.950 . S
H3834 C3846 0.950 . S
H3835 C3847 0.950 . S
C3836 H3828 0.950 . S
C3836 C3837 1.386 . S
C3836 C3838 1.391 . S
C3837 C3836 1.386 . S
C3837 C3841 1.393 . S
C3838 H3830 0.950 . S
C3838 C3836 1.391 . S
C3838 C3839 1.400 . S
C3839 C3838 1.400 . S
C3839 C3840 1.398 . S
C3839 C3845 1.491 . S
C3840 H3831 0.950 . S
C3840 C3839 1.398 . S
C3840 C3841 1.391 . S
C3841 H3829 0.950 . S
C3841 C3837 1.393 . S
C3841 C3840 1.391 . S
C3842 H3832 0.950 . S
C3842 C3843 1.386 . S
C3842 C3844 1.391 . S
C3843 C3842 1.386 . S
C3843 C3847 1.393 . S
C3844 H3833 0.950 . S
C3844 C3842 1.391 . S
C3844 C3845 1.400 . S
C3845 C3839 1.491 . S
C3845 C3844 1.400 . S
C3845 C3846 1.398 . S
C3846 H3834 0.950 . S
C3846 C3845 1.398 . S
C3846 C3847 1.391 . S
C3847 H3835 0.950 . S
C3847 C3843 1.393 . S
C3847 C3846 1.391 . S
H3848 C3856 0.950 . S
H3849 C3861 0.950 . S
H3850 C3858 0.950 . S
H3851 C3860 0.950 . S
H3852 C3862 0.950 . S
H3853 C3864 0.950 . S
H3854 C3866 0.950 . S
H3855 C3867 0.950 . S
C3856 H3848 0.950 . S
C3856 C3857 1.386 . S
C3856 C3858 1.391 . S
C3857 C3856 1.386 . S
C3857 C3861 1.393 . S
C3858 H3850 0.950 . S
C3858 C3856 1.391 . S
C3858 C3859 1.400 . S
C3859 C3858 1.400 . S
C3859 C3860 1.398 . S
C3859 C3865 1.491 . S
C3860 H3851 0.950 . S
C3860 C3859 1.398 . S
C3860 C3861 1.391 . S
C3861 H3849 0.950 . S
C3861 C3857 1.393 . S
C3861 C3860 1.391 . S
C3862 H3852 0.950 . S
C3862 C3863 1.386 . S
C3862 C3864 1.391 . S
C3863 C3862 1.386 . S
C3863 C3867 1.393 . S
C3864 H3853 0.950 . S
C3864 C3862 1.391 . S
C3864 C3865 1.400 . S
C3865 C3859 1.491 . S
C3865 C3864 1.400 . S
C3865 C3866 1.398 . S
C3866 H3854 0.950 . S
C3866 C3865 1.398 . S
C3866 C3867 1.391 . S
C3867 H3855 0.950 . S
C3867 C3863 1.393 . S
C3867 C3866 1.391 . S
H3868 C3876 0.950 . S
H3869 C3881 0.950 . S
H3870 C3878 0.950 . S
H3871 C3880 0.950 . S
H3872 C3882 0.950 . S
H3873 C3884 0.950 . S
H3874 C3886 0.950 . S
H3875 C3887 0.950 . S
C3876 H3868 0.950 . S
C3876 C3877 1.386 . S
C3876 C3878 1.391 . S
C3877 C3876 1.386 . S
C3877 C3881 1.393 . S
C3878 H3870 0.950 . S
C3878 C3876 1.391 . S
C3878 C3879 1.400 . S
C3879 C3878 1.400 . S
C3879 C3880 1.398 . S
C3879 C3885 1.491 . S
C3880 H3871 0.950 . S
C3880 C3879 1.398 . S
C3880 C3881 1.391 . S
C3881 H3869 0.950 . S
C3881 C3877 1.393 . S
C3881 C3880 1.391 . S
C3882 H3872 0.950 . S
C3882 C3883 1.386 . S
C3882 C3884 1.391 . S
C3883 C3882 1.386 . S
C3883 C3887 1.393 . S
C3884 H3873 0.950 . S
C3884 C3882 1.391 . S
C3884 C3885 1.400 . S
C3885 C3879 1.491 . S
C3885 C3884 1.400 . S
C3885 C3886 1.398 . S
C3886 H3874 0.950 . S
C3886 C3885 1.398 . S
C3886 C3887 1.391 . S
C3887 H3875 0.950 . S
C3887 C3883 1.393 . S
C3887 C3886 1.391 . S
C1017 C130 1.440 . S
C1023 C4 1.437 1_455 S
C1037 C154 1.412 . S
C1043 C25 1.412 1_545 S
C1057 C88 1.448 1_455 S
C1063 C46 1.448 . S
C1077 C109 1.448 1_545 S
C1083 C67 1.448 . S
C1097 C217 1.441 . S
C1103 C172 1.439 1_545 S
C1117 C235 1.421 1_455 S
C1123 C193 1.424 . S
C1137 C301 1.417 1_545 S
C1143 C256 1.415 . S
C1157 C322 1.423 . S
C1163 C280 1.426 1_455 S
C1177 C361 1.421 . S
C1183 C343 1.419 1_554 S
C1197 C490 1.446 1_554 S
C1203 C382 1.447 . S
C1217 C448 1.441 1_554 S
C1223 C406 1.443 . S
C1237 C424 1.448 . S
C1243 C469 1.447 1_554 S
C1257 C508 1.438 . S
C1263 C637 1.436 . S
C1277 C532 1.444 . S
C1283 C658 1.446 . S
C1297 C550 1.448 . S
C1303 C595 1.448 . S
C1317 C574 1.413 . S
C1323 C613 1.415 . S
C1337 C679 1.448 . S
C1343 C718 1.448 . S
C1357 C700 1.416 . S
C1363 C742 1.418 . S
C1377 C760 1.421 . S
C1383 C805 1.419 . S
C1397 C826 1.413 . S
C1403 C784 1.412 . S
C1417 C847 1.448 . S
C1423 C865 1.448 . S
C1437 C994 1.422 . S
C1443 C889 1.420 . S
C1457 C907 1.417 . S
C1463 C952 1.420 . S
C1477 C928 1.440 . S
C1483 C973 1.442 . S
C1497 C7 1.509 . S
C1503 C196 1.509 . S
C1517 C28 1.510 . S
C1523 C214 1.511 . S
C1537 C49 1.527 . S
C1543 C238 1.528 . S
C1557 C175 1.511 . S
C1563 C70 1.512 . S
C1577 C319 1.534 . S
C1583 C91 1.533 . S
C1597 C259 1.510 . S
C1603 C112 1.511 . S
C1617 C277 1.535 . S
C1623 C133 1.534 . S
C1637 C151 1.515 . S
C1643 C298 1.515 . S
C1657 C385 1.526 . S
C1663 C340 1.527 . S
C1677 C466 1.543 . S
C1683 C364 1.543 . S
C1697 C403 1.544 . S
C1703 C487 1.544 . S
C1717 C445 1.531 . S
C1723 C427 1.530 . S
C1737 C511 1.526 . S
C1743 C697 1.525 . S
C1757 C721 1.543 . S
C1763 C529 1.543 . S
C1777 C739 1.521 . S
C1783 C553 1.520 . S
C1797 C571 1.511 . S
C1803 C676 1.511 . S
C1817 C823 1.537 . S
C1823 C592 1.536 . S
C1837 C616 1.544 . S
C1843 C763 1.544 . S
C1857 C634 1.510 . S
C1863 C781 1.510 . S
C1877 C655 1.546 . S
C1883 C802 1.546 . S
C1897 C844 1.543 . S
C1903 C886 1.543 . S
C1917 C970 1.510 . S
C1923 C868 1.510 . S
C1937 C991 1.519 . S
C1943 C910 1.520 . S
C1957 C931 1.519 . S
C1963 C949 1.519 . S
C1977 C19 1.315 . S
C1983 C83 1.317 . S
C1997 C20 1.311 . S
C2003 C40 1.332 . S
C2017 C61 1.354 . S
C2023 C41 1.272 . S
C2037 C82 1.316 . S
C2043 C62 1.302 . S
C2057 C125 1.278 . S
C2063 C103 1.355 . S
C2077 C146 1.270 . S
C2083 C124 1.350 . S
C2097 C145 1.313 . S
C2103 C166 1.309 . S
C2117 C104 1.318 . S
C2123 C167 1.320 . S
C2137 C187 1.313 . S
C2143 C398 1.316 . S
C2157 C208 1.353 . S
C2163 C418 1.285 . S
C2177 C230 1.341 . S
C2183 C440 1.302 . S
C2197 C250 1.350 . S
C2203 C377 1.290 . S
C2217 C271 1.352 . S
C2223 C481 1.271 . S
C2237 C355 1.275 . S
C2243 C293 1.339 . S
C2257 C502 1.284 . S
C2263 C314 1.329 . S
C2277 C335 1.344 . S
C2283 C460 1.299 . S
C2297 C356 1.318 . S
C2303 C209 1.318 . S
C2317 C376 1.313 . S
C2323 C334 1.312 . S
C2337 C397 1.331 . S
C2343 C272 1.282 . S
C2357 C292 1.316 . S
C2363 C419 1.314 . S
C2377 C313 1.318 . S
C2383 C439 1.319 . S
C2397 C251 1.317 . S
C2403 C461 1.323 . S
C2417 C188 1.278 . S
C2423 C482 1.335 . S
C2437 C503 1.355 . S
C2443 C229 1.277 . S
C2457 C523 1.349 . S
C2463 C586 1.292 . S
C2477 C545 1.350 . S
C2483 C524 1.270 . S
C2497 C544 1.302 . S
C2503 C565 1.341 . S
C2517 C566 1.288 . S
C2523 C587 1.351 . S
C2537 C608 1.324 . S
C2543 C629 1.289 . S
C2557 C649 1.271 . S
C2563 C628 1.352 . S
C2577 C670 1.309 . S
C2583 C650 1.313 . S
C2597 C671 1.317 . S
C2603 C607 1.300 . S
C2617 C692 1.313 . S
C2623 C901 1.313 . S
C2637 C923 1.279 . S
C2643 C713 1.334 . S
C2657 C944 1.279 . S
C2663 C733 1.334 . S
C2677 C755 1.314 . S
C2683 C881 1.307 . S
C2697 C985 1.310 . S
C2703 C775 1.313 . S
C2717 C797 1.346 . S
C2723 C859 1.271 . S
C2737 C818 1.313 . S
C2743 C1006 1.315 . S
C2757 C839 1.313 . S
C2763 C964 1.309 . S
C2777 C712 1.310 . S
C2783 C860 1.333 . S
C2797 C838 1.297 . S
C2803 C880 1.319 . S
C2817 C776 1.311 . S
C2823 C902 1.313 . S
C2837 C922 1.317 . S
C2843 C796 1.300 . S
C2857 C817 1.316 . S
C2863 C943 1.323 . S
C2877 C965 1.349 . S
C2883 C754 1.291 . S
C2897 C986 1.355 . S
C2903 C691 1.276 . S
C2917 C734 1.318 . S
C2923 C1007 1.317 . S
C2937 C16 0.976 . S
C2943 C940 0.944 . S
C2957 C877 0.950 . S
C2963 C37 0.984 . S
C2977 C58 0.980 . S
C2983 C885 0.944 . S
C2997 C79 0.977 . S
C3003 C919 0.943 . S
C3017 C100 0.944 . S
C3023 C990 0.980 . S
C3037 C121 0.983 . S
C3043 C948 0.957 . S
C3057 C142 0.985 . S
C3063 C969 0.950 . S
C3077 C150 0.950 . S
C3083 C843 0.963 . S
C3097 C184 0.945 . S
C3103 C822 0.982 . S
C3117 C205 0.957 . S
C3123 C772 0.954 . S
C3137 C213 0.952 . S
C3143 C780 0.984 . S
C3157 C247 0.945 . S
C3163 C801 0.983 . S
C3177 C268 0.984 . S
C3183 C696 0.951 . S
C3197 C276 0.948 . S
C3203 C730 0.965 . S
C3217 C297 0.984 . S
C3223 C738 0.947 . S
C3237 C318 0.983 . S
C3243 C675 0.957 . S
C3257 C339 0.982 . S
C3263 C654 0.959 . S
C3277 C373 0.984 . S
C3283 C528 0.953 . S
C3297 C394 0.953 . S
C3303 C562 0.984 . S
C3317 C402 0.976 . S
C3323 C570 0.943 . S
C3337 C436 0.969 . S
C3343 C520 0.946 . S
C3357 C444 0.952 . S
C3363 C625 0.984 . S
C3377 C465 0.945 . S
C3383 C633 0.971 . S
C3397 C486 0.947 . S
C3403 C591 0.968 . S
C3417 C87 0.915 . S
C3423 C898 0.889 . S
C3437 C108 0.884 . S
C3443 C906 0.914 . S
C3457 C129 0.873 . S
C3463 C927 0.908 . S
C3477 C163 0.906 . S
C3483 C864 0.915 . S
C3497 C3 0.886 . S
C3503 C982 0.849 . S
C3517 C24 0.848 . S
C3523 C856 0.840 . S
C3537 C45 0.841 . S
C3543 C1003 0.871 . S
C3557 C961 0.852 . S
C3563 C66 0.838 . S
C3577 C310 0.854 . S
C3583 C709 0.838 . S
C3597 C331 0.855 . S
C3603 C717 0.893 . S
C3617 C255 0.888 . S
C3623 C751 0.851 . S
C3637 C289 0.896 . S
C3643 C688 0.916 . S
C3657 C226 0.838 . S
C3663 C835 0.856 . S
C3677 C234 0.908 . S
C3683 C759 0.915 . S
C3697 C171 0.858 . S
C3703 C793 0.838 . S
C3717 C192 0.905 . S
C3723 C814 0.869 . S
C3737 C457 0.845 . S
C3743 C583 0.842 . S
C3757 C415 0.867 . S
C3763 C612 0.839 . S
C3777 C423 0.841 . S
C3783 C646 0.870 . S
C3797 C360 0.911 . S
C3803 C667 0.878 . S
C3817 C381 0.894 . S
C3823 C604 0.856 . S
C3837 C352 0.898 . S
C3843 C541 0.860 . S
C3857 C499 0.844 . S
C3863 C549 0.843 . S
C3877 C478 0.882 . S
C3883 C507 0.846 . S
