# Generated by pormake.
# Topology bcs, (6)-cn, num edge types: 1
# Building blocks:
#     Node 0, Type 0, BuildingBlock: BETDEL_clean_sbu_0, # of connection points: 6
#     Node 1, Type 0, BuildingBlock: BETDEL_clean_sbu_0, # of connection points: 6
#     Node 2, Type 0, BuildingBlock: BETDEL_clean_sbu_0, # of connection points: 6
#     Node 3, Type 0, BuildingBlock: BETDEL_clean_sbu_0, # of connection points: 6
#     Node 4, Type 0, BuildingBlock: BETDEL_clean_sbu_0, # of connection points: 6
#     Node 5, Type 0, BuildingBlock: BETDEL_clean_sbu_0, # of connection points: 6
#     Node 6, Type 0, BuildingBlock: BETDEL_clean_sbu_0, # of connection points: 6
#     Node 7, Type 0, BuildingBlock: BETDEL_clean_sbu_0, # of connection points: 6
#     Node 8, Type 0, BuildingBlock: BETDEL_clean_sbu_0, # of connection points: 6
#     Node 9, Type 0, BuildingBlock: BETDEL_clean_sbu_0, # of connection points: 6
#     Node 10, Type 0, BuildingBlock: BETDEL_clean_sbu_0, # of connection points: 6
#     Node 11, Type 0, BuildingBlock: BETDEL_clean_sbu_0, # of connection points: 6
#     Node 12, Type 0, BuildingBlock: BETDEL_clean_sbu_0, # of connection points: 6
#     Node 13, Type 0, BuildingBlock: BETDEL_clean_sbu_0, # of connection points: 6
#     Node 14, Type 0, BuildingBlock: BETDEL_clean_sbu_0, # of connection points: 6
#     Node 15, Type 0, BuildingBlock: BETDEL_clean_sbu_0, # of connection points: 6
#     Edge 16, Type (0, 0), BuildingBlock: ZUJKAS_clean_linker_0, # of connection points: 2
#     Edge 17, Type (0, 0), BuildingBlock: ZUJKAS_clean_linker_0, # of connection points: 2
#     Edge 18, Type (0, 0), BuildingBlock: ZUJKAS_clean_linker_0, # of connection points: 2
#     Edge 19, Type (0, 0), BuildingBlock: ZUJKAS_clean_linker_0, # of connection points: 2
#     Edge 20, Type (0, 0), BuildingBlock: ZUJKAS_clean_linker_0, # of connection points: 2
#     Edge 21, Type (0, 0), BuildingBlock: ZUJKAS_clean_linker_0, # of connection points: 2
#     Edge 22, Type (0, 0), BuildingBlock: ZUJKAS_clean_linker_0, # of connection points: 2
#     Edge 23, Type (0, 0), BuildingBlock: ZUJKAS_clean_linker_0, # of connection points: 2
#     Edge 24, Type (0, 0), BuildingBlock: ZUJKAS_clean_linker_0, # of connection points: 2
#     Edge 25, Type (0, 0), BuildingBlock: ZUJKAS_clean_linker_0, # of connection points: 2
#     Edge 26, Type (0, 0), BuildingBlock: ZUJKAS_clean_linker_0, # of connection points: 2
#     Edge 27, Type (0, 0), BuildingBlock: ZUJKAS_clean_linker_0, # of connection points: 2
#     Edge 28, Type (0, 0), BuildingBlock: ZUJKAS_clean_linker_0, # of connection points: 2
#     Edge 29, Type (0, 0), BuildingBlock: ZUJKAS_clean_linker_0, # of connection points: 2
#     Edge 30, Type (0, 0), BuildingBlock: ZUJKAS_clean_linker_0, # of connection points: 2
#     Edge 31, Type (0, 0), BuildingBlock: ZUJKAS_clean_linker_0, # of connection points: 2
#     Edge 32, Type (0, 0), BuildingBlock: ZUJKAS_clean_linker_0, # of connection points: 2
#     Edge 33, Type (0, 0), BuildingBlock: ZUJKAS_clean_linker_0, # of connection points: 2
#     Edge 34, Type (0, 0), BuildingBlock: ZUJKAS_clean_linker_0, # of connection points: 2
#     Edge 35, Type (0, 0), BuildingBlock: ZUJKAS_clean_linker_0, # of connection points: 2
#     Edge 36, Type (0, 0), BuildingBlock: ZUJKAS_clean_linker_0, # of connection points: 2
#     Edge 37, Type (0, 0), BuildingBlock: ZUJKAS_clean_linker_0, # of connection points: 2
#     Edge 38, Type (0, 0), BuildingBlock: ZUJKAS_clean_linker_0, # of connection points: 2
#     Edge 39, Type (0, 0), BuildingBlock: ZUJKAS_clean_linker_0, # of connection points: 2
#     Edge 40, Type (0, 0), BuildingBlock: ZUJKAS_clean_linker_0, # of connection points: 2
#     Edge 41, Type (0, 0), BuildingBlock: ZUJKAS_clean_linker_0, # of connection points: 2
#     Edge 42, Type (0, 0), BuildingBlock: ZUJKAS_clean_linker_0, # of connection points: 2
#     Edge 43, Type (0, 0), BuildingBlock: ZUJKAS_clean_linker_0, # of connection points: 2
#     Edge 44, Type (0, 0), BuildingBlock: ZUJKAS_clean_linker_0, # of connection points: 2
#     Edge 45, Type (0, 0), BuildingBlock: ZUJKAS_clean_linker_0, # of connection points: 2
#     Edge 46, Type (0, 0), BuildingBlock: ZUJKAS_clean_linker_0, # of connection points: 2
#     Edge 47, Type (0, 0), BuildingBlock: ZUJKAS_clean_linker_0, # of connection points: 2
#     Edge 48, Type (0, 0), BuildingBlock: ZUJKAS_clean_linker_0, # of connection points: 2
#     Edge 49, Type (0, 0), BuildingBlock: ZUJKAS_clean_linker_0, # of connection points: 2
#     Edge 50, Type (0, 0), BuildingBlock: ZUJKAS_clean_linker_0, # of connection points: 2
#     Edge 51, Type (0, 0), BuildingBlock: ZUJKAS_clean_linker_0, # of connection points: 2
#     Edge 52, Type (0, 0), BuildingBlock: ZUJKAS_clean_linker_0, # of connection points: 2
#     Edge 53, Type (0, 0), BuildingBlock: ZUJKAS_clean_linker_0, # of connection points: 2
#     Edge 54, Type (0, 0), BuildingBlock: ZUJKAS_clean_linker_0, # of connection points: 2
#     Edge 55, Type (0, 0), BuildingBlock: ZUJKAS_clean_linker_0, # of connection points: 2
#     Edge 56, Type (0, 0), BuildingBlock: ZUJKAS_clean_linker_0, # of connection points: 2
#     Edge 57, Type (0, 0), BuildingBlock: ZUJKAS_clean_linker_0, # of connection points: 2
#     Edge 58, Type (0, 0), BuildingBlock: ZUJKAS_clean_linker_0, # of connection points: 2
#     Edge 59, Type (0, 0), BuildingBlock: ZUJKAS_clean_linker_0, # of connection points: 2
#     Edge 60, Type (0, 0), BuildingBlock: ZUJKAS_clean_linker_0, # of connection points: 2
#     Edge 61, Type (0, 0), BuildingBlock: ZUJKAS_clean_linker_0, # of connection points: 2
#     Edge 62, Type (0, 0), BuildingBlock: ZUJKAS_clean_linker_0, # of connection points: 2
#     Edge 63, Type (0, 0), BuildingBlock: ZUJKAS_clean_linker_0, # of connection points: 2
# Relax obj value: 0.156
# Max RMSD: 0.233
# Mean RMSD: 0.196
data_MOF--net-bcs--node1-BETDEL_clean_sbu_0--edge1-ZUJKAS_clean_linker_0
_symmetry_space_group_name_H-M    P1
_symmetry_Int_Tables_number       1
_symmetry_cell_setting            triclinic
loop_
_symmetry_equiv_pos_as_xyz
'x, y, z'
_cell_length_a     46.359708
_cell_length_b     48.01582
_cell_length_c     43.979398
_cell_angle_alpha  91.89665
_cell_angle_beta   93.969961
_cell_angle_gamma 102.6017
loop_
_atom_site_label
_atom_site_type_symbol
_atom_site_fract_x
_atom_site_fract_y
_atom_site_fract_z
_atom_type_partial_charge
Dy0 Dy 0.01085 0.9802 0.97123 0.0
C1 C 0.95085 0.03904 0.05259 0.0
C2 C 0.04674 0.95806 0.9356 0.0
Dy3 Dy 0.98732 0.01709 0.01744 0.0
O4 O 0.02084 0.94449 0.94259 0.0
O5 O 0.05295 0.98385 0.94782 0.0
O6 O 0.96864 0.94647 0.97059 0.0
O7 O 0.98481 0.97179 0.0105 0.0
C8 C 0.96338 0.95322 -0.00178 0.0
C9 C 0.03484 0.04388 0.9904 0.0
O10 O 0.01413 0.99618 0.04979 0.0
O11 O 0.04203 0.98144 0.01314 0.0
O12 O 0.97878 0.0503 0.05076 0.0
O13 O 0.94295 0.01571 0.03547 0.0
O14 O 0.02981 0.05061 0.0181 0.0
O15 O 0.0132 0.02555 0.97817 0.0
O16 O 0.9824 0.99872 0.93852 0.0
O17 O 0.95668 0.01675 0.97522 0.0
C18 C 0.0372 0.98613 0.04208 0.0
C19 C 0.96027 0.01014 0.94635 0.0
Dy20 Dy 0.26145 0.73266 0.25247 0.0
C21 C 0.19578 0.81543 0.21044 0.0
C22 C 0.29776 0.69871 0.2735 0.0
Dy23 Dy 0.23151 0.78115 0.23154 0.0
O24 O 0.28218 0.69481 0.24744 0.0
O25 O 0.29349 0.72119 0.28824 0.0
O26 O 0.2226 0.70045 0.23018 0.0
O27 O 0.23591 0.74064 0.21164 0.0
C28 C 0.21656 0.71768 0.2097 0.0
C29 C 0.27654 0.79643 0.27406 0.0
O30 O 0.19698 0.75394 0.25766 0.0
O31 O 0.22672 0.72892 0.28537 0.0
O32 O 0.20156 0.79412 0.19489 0.0
O33 O 0.20943 0.81797 0.23749 0.0
O34 O 0.27022 0.8134 0.25345 0.0
O35 O 0.25723 0.77339 0.27247 0.0
O36 O 0.2953 0.75867 0.22458 0.0
O37 O 0.26567 0.78458 0.19806 0.0
C38 C 0.20127 0.73681 0.27976 0.0
C39 C 0.29075 0.7758 0.20254 0.0
Dy40 Dy 0.50113 0.00841 0.52902 0.0
C41 C 0.51785 0.95956 0.41066 0.0
C42 C 0.49649 0.03325 0.58469 0.0
Dy43 Dy 0.51591 0.98698 0.46556 0.0
O44 O 0.48195 0.00806 0.57454 0.0
O45 O 0.51421 0.04466 0.56464 0.0
O46 O 0.45482 0.98147 0.51926 0.0
O47 O 0.49125 0.96826 0.50254 0.0
C48 C 0.46359 0.9624 0.50281 0.0
C49 C 0.55461 0.03231 0.49117 0.0
O50 O 0.47827 0.00863 0.45286 0.0
O51 O 0.47919 0.03514 0.49836 0.0
O52 O 0.52855 0.9866 0.41711 0.0
O53 O 0.50552 0.94769 0.43404 0.0
O54 O 0.56213 0.01357 0.47312 0.0
O55 O 0.5269 0.02718 0.49239 0.0
O56 O 0.53815 0.9863 0.54252 0.0
O57 O 0.53996 0.96182 0.49625 0.0
C58 C 0.46999 0.02902 0.46915 0.0
C59 C 0.54794 0.96712 0.52584 0.0
Dy60 Dy 0.28593 0.223 0.75213 0.0
C61 C 0.20381 0.2967 0.76421 0.0
C62 C 0.32241 0.18745 0.73908 0.0
Dy63 Dy 0.23791 0.2598 0.74802 0.0
O64 O 0.3278 0.20712 0.76099 0.0
O65 O 0.29693 0.187 0.72452 0.0
O66 O 0.30606 0.24761 0.79564 0.0
O67 O 0.28463 0.26713 0.76152 0.0
C68 C 0.29638 0.27015 0.7883 0.0
C69 C 0.22686 0.21253 0.71181 0.0
O70 O 0.26916 0.283 0.71607 0.0
O71 O 0.2961 0.24779 0.70986 0.0
O72 O 0.19953 0.28109 0.73886 0.0
O73 O 0.22673 0.29226 0.78038 0.0
O74 O 0.21673 0.23501 0.70505 0.0
O75 O 0.23907 0.21561 0.73845 0.0
O76 O 0.25582 0.20006 0.7852 0.0
O77 O 0.22646 0.23362 0.78904 0.0
C78 C 0.28872 0.27194 0.70178 0.0
C79 C 0.23503 0.21032 0.79821 0.0
Dy80 Dy 0.02833 0.97606 0.49812 0.0
C81 C 0.94957 0.05461 0.47444 0.0
C82 C 0.06551 0.94213 0.51807 0.0
Dy83 Dy 0.98627 0.01966 0.49276 0.0
O84 O 0.03677 0.93461 0.5152 0.0
O85 O 0.07404 0.9681 0.50955 0.0
O86 O 0.01369 0.95786 0.45035 0.0
O87 O 0.98532 0.97645 0.47543 0.0
C88 C 0.98929 0.96707 0.44936 0.0
C89 C 0.0251 0.02789 0.54165 0.0
O90 O 0.95952 0.98646 0.52006 0.0
O91 O 0.99862 0.96595 0.53658 0.0
O92 O 0.97805 0.06269 0.48058 0.0
O93 O 0.94107 0.02751 0.47871 0.0
O94 O 1.00065 0.03699 0.54093 0.0
O95 O 0.02915 0.01904 0.51544 0.0
O96 O 0.05502 0.0096 0.47114 0.0
O97 O 0.01586 0.02985 0.45423 0.0
C98 C 0.97107 0.96943 0.53813 0.0
C99 C 0.04346 0.02647 0.45286 0.0
Dy100 Dy 0.25152 0.76201 0.76491 0.0
C101 C 0.30477 0.71084 0.66949 0.0
C102 C 0.23296 0.7961 0.80639 0.0
Dy103 Dy 0.28167 0.74081 0.71151 0.0
O104 O 0.22201 0.76891 0.80144 0.0
O105 O 0.25429 0.80459 0.78892 0.0
O106 O 0.22188 0.71855 0.76719 0.0
O107 O 0.2367 0.73313 0.72518 0.0
C108 C 0.22308 0.71197 0.73848 0.0
C109 C 0.30919 0.79108 0.73821 0.0
O110 O 0.25187 0.7632 0.68424 0.0
O111 O 0.23736 0.7866 0.7258 0.0
O112 O 0.31862 0.73454 0.68377 0.0
O113 O 0.27798 0.70341 0.67797 0.0
O114 O 0.30938 0.7852 0.7092 0.0
O115 O 0.29638 0.76948 0.75134 0.0
O116 O 0.28268 0.74092 0.79147 0.0
O117 O 0.29208 0.71364 0.75024 0.0
C118 C 0.23833 0.78232 0.69589 0.0
C119 C 0.29324 0.71958 0.78014 0.0
Dy120 Dy 0.53195 0.98146 0.98501 0.0
C121 C 0.46005 0.05316 0.04118 0.0
C122 C 0.56399 0.94966 0.95344 0.0
Dy123 Dy 0.49108 0.02117 0.00848 0.0
O124 O 0.57224 0.9629 0.97989 0.0
O125 O 0.53808 0.95383 0.94407 0.0
O126 O 0.55302 0.98406 0.03305 0.0
O127 O 0.53713 0.01875 0.01598 0.0
C128 C 0.54818 0.00921 0.03918 0.0
C129 C 0.47479 0.9948 0.95375 0.0
O130 O 0.52312 0.05307 0.98479 0.0
O131 O 0.54275 0.02014 0.95712 0.0
O132 O 0.45099 0.03965 0.015 0.0
O133 O 0.4863 0.04922 0.04964 0.0
O134 O 0.46932 0.01943 0.96127 0.0
O135 O 0.48587 0.9844 0.97652 0.0
O136 O 0.49924 0.94931 0.00701 0.0
O137 O 0.47973 0.98166 0.03561 0.0
C138 C 0.53882 0.04642 0.9626 0.0
C139 C 0.48343 0.9554 0.02927 0.0
Dy140 Dy 0.2802 0.24513 0.27688 0.0
C141 C 0.21456 0.28185 0.17521 0.0
C142 C 0.30447 0.21462 0.31935 0.0
Dy143 Dy 0.24152 0.25471 0.21893 0.0
O144 O 0.31437 0.24166 0.31513 0.0
O145 O 0.28096 0.20477 0.3011 0.0
O146 O 0.3079 0.28983 0.27554 0.0
O147 O 0.28805 0.26709 0.23498 0.0
C148 C 0.30226 0.29103 0.2462 0.0
C149 C 0.21923 0.20937 0.25078 0.0
O150 O 0.27018 0.22993 0.19539 0.0
O151 O 0.29276 0.21668 0.23999 0.0
O152 O 0.20269 0.2576 0.18627 0.0
O153 O 0.24151 0.29074 0.18733 0.0
O154 O 0.21378 0.20998 0.22137 0.0
O155 O 0.23372 0.23343 0.26121 0.0
O156 O 0.24975 0.26874 0.29962 0.0
O157 O 0.23225 0.28602 0.25474 0.0
C158 C 0.28777 0.21519 0.20969 0.0
C159 C 0.23489 0.28582 0.28508 0.0
Dy160 Dy 0.5261 0.47724 0.00534 0.0
C161 C 0.44458 0.54943 0.96815 0.0
C162 C 0.55977 0.44236 0.0303 0.0
Dy163 Dy 0.48578 0.52269 0.99363 0.0
O164 O 0.5325 0.43407 0.01882 0.0
O165 O 0.56892 0.4697 0.02755 0.0
O166 O 0.50969 0.45694 0.95839 0.0
O167 O 0.48323 0.47792 0.98337 0.0
C168 C 0.48522 0.46608 0.95808 0.0
C169 C 0.53685 0.54135 0.02738 0.0
O170 O 0.46033 0.49704 0.0289 0.0
O171 O 0.49428 0.46878 0.04205 0.0
O172 O 0.45467 0.55283 0.99682 0.0
O173 O 0.45671 0.53132 0.95399 0.0
O174 O 0.52378 0.55838 0.01194 0.0
O175 O 0.52045 0.51681 0.02657 0.0
O176 O 0.55414 0.50818 0.97642 0.0
O177 O 0.51565 0.52715 0.95514 0.0
C178 C 0.46926 0.47744 0.04574 0.0
C179 C 0.54329 0.52356 0.95579 0.0
Dy180 Dy 0.72711 0.25977 0.29536 0.0
C181 C 0.77784 0.20596 0.19883 0.0
C182 C 0.71494 0.29098 0.34353 0.0
Dy183 Dy 0.75359 0.23579 0.23987 0.0
O184 O 0.70875 0.26319 0.34091 0.0
O185 O 0.72838 0.30158 0.32015 0.0
O186 O 0.68149 0.23419 0.28027 0.0
O187 O 0.71889 0.219 0.26953 0.0
C188 C 0.69113 0.21486 0.26519 0.0
C189 C 0.77873 0.28967 0.2592 0.0
O190 O 0.71701 0.25236 0.21632 0.0
O191 O 0.71387 0.28439 0.256 0.0
O192 O 0.7926 0.22457 0.21943 0.0
O193 O 0.74949 0.20371 0.20028 0.0
O194 O 0.77669 0.28081 0.23079 0.0
O195 O 0.76931 0.26913 0.27543 0.0
O196 O 0.7579 0.23659 0.32043 0.0
O197 O 0.77013 0.21217 0.27816 0.0
C198 C 0.70801 0.27489 0.22702 0.0
C199 C 0.77107 0.21746 0.30811 0.0
Dy200 Dy 0.02619 0.48343 0.47272 0.0
C201 C 0.95796 0.5495 0.54369 0.0
C202 C 0.05536 0.45293 0.43595 0.0
Dy203 Dy 0.98827 0.52028 0.50686 0.0
O204 O 0.06614 0.4784 0.44823 0.0
O205 O 0.02813 0.44433 0.44308 0.0
O206 O 0.05746 0.48742 0.51465 0.0
O207 O 0.03514 0.5202 0.5054 0.0
C208 C 0.05173 0.51116 0.52476 0.0
C209 C 0.96324 0.49306 0.45438 0.0
O210 O 0.01236 0.5524 0.47702 0.0
O211 O 0.02378 0.51951 0.44199 0.0
O212 O 0.94691 0.52545 0.52847 0.0
O213 O 0.98604 0.55748 0.53932 0.0
O214 O 0.95792 0.51699 0.46443 0.0
O215 O 0.9793 0.48359 0.47396 0.0
O216 O 1.00286 0.45164 0.50352 0.0
O217 O 0.99124 0.48483 0.538 0.0
C218 C 0.02096 0.54566 0.45013 0.0
C219 C 0.99454 0.45879 0.53038 0.0
Dy220 Dy 0.77485 0.73048 0.24772 0.0
C221 C 0.6917 0.80368 0.25782 0.0
C222 C 0.80979 0.69404 0.23251 0.0
Dy223 Dy 0.72699 0.76739 0.24362 0.0
O224 O 0.81435 0.71079 0.25703 0.0
O225 O 0.78612 0.69709 0.21664 0.0
O226 O 0.79599 0.7554 0.29065 0.0
O227 O 0.77391 0.77486 0.25709 0.0
C228 C 0.78615 0.77797 0.2837 0.0
C229 C 0.7166 0.72032 0.20729 0.0
O230 O 0.75841 0.79095 0.21224 0.0
O231 O 0.78517 0.75566 0.20567 0.0
O232 O 0.68871 0.78821 0.2325 0.0
O233 O 0.71408 0.7995 0.27512 0.0
O234 O 0.7067 0.74277 0.20003 0.0
O235 O 0.72818 0.72331 0.23411 0.0
O236 O 0.74385 0.7074 0.28006 0.0
O237 O 0.71622 0.74219 0.28534 0.0
C238 C 0.77767 0.77979 0.19763 0.0
C239 C 0.72399 0.71838 0.29395 0.0
Dy240 Dy 0.78821 0.22219 0.74507 0.0
C241 C 0.72454 0.30944 0.71842 0.0
C242 C 0.81605 0.18152 0.76616 0.0
Dy243 Dy 0.75476 0.26972 0.73738 0.0
O244 O 0.7972 0.17806 0.7424 0.0
O245 O 0.81974 0.20717 0.77833 0.0
O246 O 0.78371 0.21382 0.69463 0.0
O247 O 0.74954 0.22722 0.71611 0.0
C248 C 0.75856 0.22149 0.69072 0.0
C249 C 0.78643 0.2714 0.79106 0.0
O250 O 0.71845 0.235 0.75037 0.0
O251 O 0.74981 0.20955 0.774 0.0
O252 O 0.72849 0.30272 0.74645 0.0
O253 O 0.73727 0.29456 0.70053 0.0
O254 O 0.76214 0.28058 0.78795 0.0
O255 O 0.79364 0.26478 0.76531 0.0
O256 O 0.82455 0.25476 0.72827 0.0
O257 O 0.79506 0.28571 0.71184 0.0
C258 C 0.72332 0.21557 0.76944 0.0
C259 C 0.8206 0.27734 0.7134 0.0
Dy260 Dy 0.77791 0.74219 0.77676 0.0
C261 C 0.71304 0.78226 0.67745 0.0
C262 C 0.80301 0.71229 0.81913 0.0
Dy263 Dy 0.7378 0.75185 0.71964 0.0
O264 O 0.81244 0.73937 0.8148 0.0
O265 O 0.77953 0.70202 0.80098 0.0
O266 O 0.80759 0.78578 0.77302 0.0
O267 O 0.78468 0.7629 0.73402 0.0
C268 C 0.80047 0.78662 0.74392 0.0
C269 C 0.71544 0.70731 0.75253 0.0
O270 O 0.76658 0.7271 0.69576 0.0
O271 O 0.78808 0.71222 0.74005 0.0
O272 O 0.70323 0.75522 0.68175 0.0
O273 O 0.73665 0.79218 0.69553 0.0
O274 O 0.70837 0.70806 0.72339 0.0
O275 O 0.73105 0.73114 0.76235 0.0
O276 O 0.74947 0.7672 0.80066 0.0
O277 O 0.72762 0.7818 0.75641 0.0
C278 C 0.78327 0.71126 0.70976 0.0
C279 C 0.73272 0.78296 0.78667 0.0
Dy280 Dy 0.52032 0.49817 0.5309 0.0
C281 C 0.46933 0.52016 0.41471 0.0
C282 C 0.54381 0.48166 0.58403 0.0
Dy283 Dy 0.4891 0.49911 0.46707 0.0
O284 O 0.5561 0.50333 0.569 0.0
O285 O 0.5183 0.4693 0.57031 0.0
O286 O 0.54658 0.54271 0.52565 0.0
O287 O 0.53398 0.51421 0.48732 0.0
C288 C 0.54611 0.53953 0.49614 0.0
C289 C 0.46308 0.45749 0.50137 0.0
O290 O 0.52149 0.47331 0.45456 0.0
O291 O 0.53348 0.46263 0.5044 0.0
O292 O 0.45746 0.49562 0.42517 0.0
O293 O 0.49233 0.53268 0.43246 0.0
O294 O 0.46187 0.45483 0.47172 0.0
O295 O 0.47545 0.48271 0.51044 0.0
O296 O 0.48837 0.52388 0.54418 0.0
O297 O 0.47326 0.53264 0.49452 0.0
C298 C 0.53427 0.45869 0.47447 0.0
C299 C 0.47387 0.53725 0.52455 0.0
Dy300 Dy 0.99623 0.50303 0.02991 0.0
C301 C 0.03787 0.46642 0.91671 0.0
C302 C 0.97892 0.52848 0.07982 0.0
Dy303 Dy 0.01994 0.49112 0.96674 0.0
O304 O 0.96349 0.5059 0.06456 0.0
O305 O 1.00414 0.53695 0.06811 0.0
O306 O 0.97362 0.45697 0.03196 0.0
O307 O 0.97989 0.47559 0.98939 0.0
C308 C 0.97239 0.45248 0.00255 0.0
C309 C 0.04424 0.54122 0.99548 0.0
O310 O 0.98361 0.512 0.94999 0.0
O311 O 0.97584 0.53042 -0.00227 0.0
O312 O 0.05375 0.48787 0.9334 0.0
O313 O 0.01183 0.45876 0.92698 0.0
O314 O 0.04122 0.53792 0.96586 0.0
O315 O 0.03654 0.51761 0.00752 0.0
O316 O 0.03245 0.48207 0.04669 0.0
O317 O 0.04057 0.46386 -0.0011 0.0
C318 C 0.97161 0.52884 0.96742 0.0
C319 C 0.04469 0.46543 0.02923 0.0
H320 H 0.25202 0.16961 0.83323 0.0
H321 H 0.22349 0.14103 0.87066 0.0
H322 H 0.1522 0.18439 0.85296 0.0
H323 H 0.18097 0.21375 0.8167 0.0
H324 H 0.16054 0.17825 0.91163 0.0
H325 H 0.15592 0.07411 0.85062 0.0
H326 H 0.19289 0.09377 0.8618 0.0
H327 H 0.17005 0.10776 0.83413 0.0
C328 C 0.23031 0.1731 0.83745 0.0
C329 C 0.2187 0.19384 0.82189 0.0
C330 C 0.21393 0.1566 0.85867 0.0
C331 C 0.1854 0.16009 0.86415 0.0
C332 C 0.17412 0.18123 0.84909 0.0
H333 H 0.03858 0.04311 0.92902 0.0
H334 H 0.07754 0.07108 0.90083 0.0
C335 C 0.19062 0.19802 0.82833 0.0
C336 C 0.1669 0.14178 0.88528 0.0
H337 H 0.13407 0.07262 0.89757 0.0
C338 C 0.15481 0.15513 0.90863 0.0
C339 C 0.15921 0.11161 0.88115 0.0
C340 C 0.16994 0.09594 0.85541 0.0
C341 C 0.13464 0.13933 0.92738 0.0
C342 C 0.12722 0.10914 0.92349 0.0
C343 C 0.13993 0.09573 0.90069 0.0
C344 C 0.10456 0.09122 0.94112 0.0
C345 C 0.12045 0.15531 0.95009 0.0
C346 C 0.107 0.09272 0.9732 0.0
C347 C 0.08439 0.07716 0.98935 0.0
C348 C 0.05938 0.05933 0.97367 0.0
C349 C 0.05759 0.05682 0.94167 0.0
C350 C 0.07989 0.07274 0.92555 0.0
H351 H 0.12238 0.178 0.94443 0.0
H352 H 0.0966 0.14523 0.95102 0.0
H353 H 0.13178 0.1551 0.97311 0.0
H354 H 0.12623 0.10612 0.98575 0.0
H355 H 0.08643 0.07912 0.01405 0.0
H356 H 0.08882 0.9689 0.03567 0.0
H357 H 0.11537 0.94532 0.07301 0.0
H358 H 0.05475 0.95694 0.13994 0.0
H359 H 0.0277 0.98043 0.10258 0.0
H360 H 0.14214 0.96174 0.13433 0.0
H361 H 0.04559 0.86872 0.12775 0.0
H362 H 0.04936 0.89596 0.10008 0.0
H363 H 0.03868 0.90324 0.13746 0.0
C364 C 0.08131 0.96683 0.05844 0.0
C365 C 0.05589 0.97616 0.06604 0.0
C366 C 0.09659 0.95345 0.07976 0.0
C367 C 0.08668 0.94909 0.10898 0.0
C368 C 0.06243 0.95987 0.11731 0.0
H369 H 0.18433 0.86206 0.24001 0.0
H370 H 0.15633 0.89589 0.21919 0.0
C371 C 0.04712 0.97336 0.09598 0.0
C372 C 0.10042 0.93113 0.12947 0.0
H373 H 0.08868 0.86413 0.15653 0.0
C374 C 0.13042 0.94057 0.13968 0.0
C375 C 0.08497 0.90344 0.13595 0.0
C376 C 0.05292 0.89201 0.12465 0.0
C377 C 0.1457 0.92263 0.15551 0.0
C378 C 0.1304 0.89473 0.16138 0.0
C379 C 0.10018 0.88562 0.15202 0.0
C380 C 0.14597 0.87381 0.17478 0.0
C381 C 0.17839 0.9331 0.16451 0.0
C382 C 0.14865 0.84992 0.15687 0.0
C383 C 0.16449 0.8306 0.16868 0.0
C384 C 0.17773 0.83488 0.19861 0.0
C385 C 0.17439 0.85841 0.2168 0.0
C386 C 0.15856 0.87776 0.20495 0.0
H387 H 0.18786 0.95344 0.15393 0.0
H388 H 0.18186 0.93677 0.18967 0.0
H389 H 0.19079 0.91683 0.15779 0.0
H390 H 0.13897 0.84654 0.13354 0.0
H391 H 0.1667 0.81257 0.15426 0.0
H392 H 0.40535 0.95535 0.48326 0.0
H393 H 0.37559 0.91604 0.45012 0.0
H394 H 0.44903 0.87394 0.45266 0.0
H395 H 0.47914 0.91382 0.48458 0.0
H396 H 0.42976 0.87672 0.39718 0.0
H397 H 0.33238 0.83635 0.46111 0.0
H398 H 0.33714 0.87414 0.45793 0.0
H399 H 0.36534 0.86017 0.47875 0.0
C400 C 0.41483 0.93741 0.47713 0.0
C401 C 0.44442 0.93751 0.48616 0.0
C402 C 0.39779 0.91484 0.45848 0.0
C403 C 0.40991 0.89176 0.44935 0.0
C404 C 0.43918 0.89142 0.45953 0.0
H405 H 0.28694 0.76698 0.32426 0.0
H406 H 0.32331 0.78401 0.36779 0.0
C407 C 0.45634 0.9142 0.47766 0.0
C408 C 0.3934 0.86998 0.42622 0.0
H409 H 0.32456 0.82909 0.40561 0.0
C410 C 0.40696 0.86578 0.39937 0.0
C411 C 0.36394 0.85509 0.42923 0.0
C412 C 0.34904 0.85644 0.45851 0.0
C413 C 0.39111 0.84889 0.37458 0.0
C414 C 0.36069 0.83669 0.37639 0.0
C415 C 0.34778 0.83893 0.40405 0.0
C416 C 0.34115 0.82473 0.34899 0.0
C417 C 0.40693 0.84499 0.34642 0.0
C418 C 0.33926 0.84197 0.3241 0.0
C419 C 0.31883 0.83224 0.29929 0.0
C420 C 0.29963 0.80528 0.29914 0.0
C421 C 0.30175 0.78777 0.32378 0.0
C422 C 0.32238 0.79748 0.34862 0.0
H423 H 0.43074 0.8456 0.35246 0.0
H424 H 0.39677 0.82446 0.33365 0.0
H425 H 0.4058 0.86277 0.33121 0.0
H426 H 0.3529 0.8634 0.3243 0.0
H427 H 0.31753 0.84619 0.28061 0.0
H428 H 0.37819 0.18962 0.76471 0.0
H429 H 0.41492 0.16472 0.74594 0.0
H430 H 0.35079 0.12208 0.6742 0.0
H431 H 0.31416 0.14705 0.69263 0.0
H432 H 0.41396 0.10511 0.73531 0.0
H433 H 0.42165 0.16468 0.62923 0.0
H434 H 0.40475 0.17569 0.66203 0.0
H435 H 0.38439 0.14737 0.63603 0.0
C436 C 0.3719 0.17471 0.74512 0.0
C437 C 0.34348 0.17038 0.72992 0.0
C438 C 0.39285 0.16053 0.73447 0.0
C439 C 0.38567 0.14198 0.70842 0.0
C440 C 0.35689 0.13672 0.69404 0.0
H441 H 0.4552 0.0132 0.62415 0.0
H442 H 0.43402 0.04154 0.65995 0.0
C443 C 0.33597 0.15088 0.70464 0.0
C444 C 0.40844 0.12883 0.69542 0.0
H445 H 0.4427 0.12362 0.63003 0.0
C446 C 0.42057 0.10934 0.71243 0.0
C447 C 0.41753 0.13495 0.66589 0.0
C448 C 0.40666 0.15703 0.64731 0.0
C449 C 0.4404 0.0946 0.69994 0.0
C450 C 0.44787 0.09928 0.66959 0.0
C451 C 0.43689 0.1199 0.65326 0.0
C452 C 0.46468 0.08143 0.65306 0.0
C453 C 0.45291 0.07401 0.71926 0.0
C454 C 0.48929 0.09429 0.63758 0.0
C455 C 0.50126 0.07812 0.61682 0.0
C456 C 0.48867 0.04889 0.61116 0.0
C457 C 0.46539 0.03569 0.62818 0.0
C458 C 0.45339 0.05185 0.64884 0.0
H459 H 0.45378 0.08016 0.74394 0.0
H460 H 0.43834 0.05236 0.71542 0.0
H461 H 0.47555 0.07294 0.7133 0.0
H462 H 0.49826 0.11711 0.64039 0.0
H463 H 0.51919 0.08881 0.60393 0.0
H464 H 0.12605 0.95479 0.5243 0.0
H465 H 0.15848 0.92703 0.5496 0.0
H466 H 0.08172 0.86338 0.56936 0.0
H467 H 0.0494 0.89057 0.54331 0.0
H468 H 0.16248 0.91397 0.60742 0.0
H469 H 0.1321 0.8131 0.53669 0.0
H470 H 0.12135 0.84531 0.52506 0.0
H471 H 0.10013 0.82258 0.55114 0.0
C472 C 0.11618 0.93464 0.53363 0.0
C473 C 0.08525 0.92471 0.53165 0.0
C474 C 0.1347 0.91882 0.54814 0.0
C475 C 0.12263 0.89281 0.56097 0.0
C476 C 0.09168 0.88291 0.55891 0.0
H477 H 0.2 0.81562 0.71067 0.0
H478 H 0.17383 0.84258 0.67677 0.0
C479 C 0.07319 0.89858 0.5442 0.0
C480 C 0.14219 0.87698 0.57822 0.0
H481 H 0.15706 0.81081 0.586 0.0
C482 C 0.16152 0.89148 0.60249 0.0
C483 C 0.1414 0.84774 0.57156 0.0
C484 C 0.12286 0.83137 0.54448 0.0
C485 C 0.17921 0.87738 0.62089 0.0
C486 C 0.17696 0.84771 0.61547 0.0
C487 C 0.1585 0.83344 0.59049 0.0
C488 C 0.19292 0.83099 0.63594 0.0
C489 C 0.20029 0.89455 0.64583 0.0
C490 C 0.2116 0.81453 0.6242 0.0
C491 C 0.22635 0.79863 0.64356 0.0
C492 C 0.22269 0.7989 0.67506 0.0
C493 C 0.20369 0.81515 0.68663 0.0
C494 C 0.1888 0.83079 0.66726 0.0
H495 H 0.20655 0.91747 0.6406 0.0
H496 H 0.18928 0.89323 0.66752 0.0
H497 H 0.22082 0.88633 0.6493 0.0
H498 H 0.21496 0.81415 0.60007 0.0
H499 H 0.24075 0.78631 0.63386 0.0
H500 H 0.34229 0.83803 0.71394 0.0
H501 H 0.37338 0.8803 0.74212 0.0
H502 H 0.34579 0.84485 0.82704 0.0
H503 H 0.31485 0.80287 0.79923 0.0
H504 H 0.34483 0.90406 0.82118 0.0
H505 H 0.45172 0.87751 0.79395 0.0
H506 H 0.42509 0.87934 0.7627 0.0
H507 H 0.41697 0.85149 0.78904 0.0
C508 C 0.3428 0.83944 0.73861 0.0
C509 C 0.32635 0.81726 0.7545 0.0
C510 C 0.36057 0.86345 0.7546 0.0
C511 C 0.362 0.86541 0.78657 0.0
C512 C 0.34493 0.84362 0.80233 0.0
H513 H 0.47273 0.93882 0.93918 0.0
H514 H 0.4481 0.91132 0.89315 0.0
C515 C 0.32729 0.8197 0.78644 0.0
C516 C 0.38173 0.88962 0.80421 0.0
H517 H 0.45416 0.91568 0.82951 0.0
C518 C 0.36878 0.90707 0.82265 0.0
C519 C 0.41288 0.8931 0.80604 0.0
C520 C 0.42767 0.87435 0.78706 0.0
C521 C 0.3861 0.92708 0.84413 0.0
C522 C 0.41722 0.92996 0.84669 0.0
C523 C 0.4303 0.91343 0.82724 0.0
C524 C 0.43595 0.94756 0.8718 0.0
C525 C 0.3708 0.94365 0.86517 0.0
C526 C 0.43813 0.97712 0.87437 0.0
C527 C 0.45191 0.99277 0.90071 0.0
C528 C 0.4639 0.97904 0.9246 0.0
C529 C 0.46349 0.94982 0.9211 0.0
C530 C 0.44954 0.93415 0.89484 0.0
H531 H 0.34642 0.93513 0.86371 0.0
H532 H 0.37965 0.94316 0.88921 0.0
H533 H 0.37495 0.96628 0.85887 0.0
H534 H 0.4282 0.98786 0.85653 0.0
H535 H 0.45234 0.0154 0.90279 0.0
H536 H 0.40789 0.06695 0.0222 0.0
H537 H 0.37922 0.09511 0.05001 0.0
H538 H 0.44365 0.10518 0.12745 0.0
H539 H 0.47295 0.07781 0.09918 0.0
H540 H 0.35163 0.08647 0.10025 0.0
H541 H 0.43791 0.18637 0.12013 0.0
H542 H 0.44212 0.15753 0.0947 0.0
H543 H 0.44981 0.15616 0.13527 0.0
C544 C 0.41608 0.07535 0.04509 0.0
C545 C 0.44283 0.07031 0.05839 0.0
C546 C 0.39961 0.09144 0.06104 0.0
C547 C 0.40937 0.10288 0.09077 0.0
C548 C 0.43592 0.09743 0.10428 0.0
H549 H 0.33249 0.18983 0.23032 0.0
H550 H 0.36088 0.1628 0.20085 0.0
C551 C 0.45259 0.08155 0.08818 0.0
C552 C 0.39131 0.11974 0.10771 0.0
H553 H 0.39473 0.18314 0.14746 0.0
C554 C 0.36109 0.1077 0.11033 0.0
C555 C 0.40338 0.14759 0.1209 0.0
C556 C 0.43499 0.16281 0.11737 0.0
C557 C 0.34298 0.12233 0.12616 0.0
C558 C 0.35523 0.14985 0.13977 0.0
C559 C 0.38534 0.162 0.13712 0.0
C560 C 0.33734 0.16612 0.15744 0.0
C561 C 0.31095 0.10804 0.12881 0.0
C562 C 0.31458 0.17718 0.14289 0.0
C563 C 0.2983 0.19294 0.15971 0.0
C564 C 0.30429 0.19782 0.19152 0.0
C565 C 0.32701 0.18649 0.20595 0.0
C566 C 0.34342 0.17103 0.1891 0.0
H567 H 0.30603 0.08505 0.12134 0.0
H568 H 0.30511 0.11 0.15274 0.0
H569 H 0.29656 0.11882 0.11434 0.0
H570 H 0.30964 0.17391 0.11843 0.0
H571 H 0.28108 0.20134 0.14776 0.0
H572 H 0.10294 0.03134 0.44722 0.0
H573 H 0.13379 0.06007 0.41162 0.0
H574 H 0.05699 0.08611 0.37138 0.0
H575 H 0.0261 0.05798 0.40714 0.0
H576 H 0.13178 0.05907 0.34837 0.0
H577 H 0.11387 0.16215 0.39508 0.0
H578 H 0.10362 0.12926 0.41434 0.0
H579 H 0.08009 0.13692 0.3829 0.0
C580 C 0.09256 0.04312 0.43076 0.0
C581 C 0.06206 0.04258 0.43031 0.0
C582 C 0.11025 0.0595 0.41039 0.0
C583 C 0.0978 0.07564 0.3892 0.0
C584 C 0.06721 0.07436 0.388 0.0
H585 H 0.17875 0.15987 0.23296 0.0
H586 H 0.15026 0.12579 0.26608 0.0
C587 C 0.04955 0.05815 0.40843 0.0
C588 C 0.11686 0.09428 0.36877 0.0
H589 H 0.13824 0.16358 0.34932 0.0
C590 C 0.13329 0.08194 0.3486 0.0
C591 C 0.11914 0.12417 0.36942 0.0
C592 C 0.10349 0.139 0.39179 0.0
C593 C 0.15161 0.09866 0.32874 0.0
C594 C 0.15309 0.12842 0.32871 0.0
C595 C 0.13691 0.14074 0.34915 0.0
C596 C 0.17176 0.14751 0.30831 0.0
C597 C 0.16964 0.0844 0.30846 0.0
C598 C 0.19309 0.17117 0.32095 0.0
C599 C 0.209 0.19078 0.30213 0.0
C600 C 0.20402 0.18711 0.27022 0.0
C601 C 0.18318 0.16309 0.25748 0.0
C602 C 0.16704 0.14352 0.27639 0.0
H603 H 0.17229 0.06352 0.31703 0.0
H604 H 0.15815 0.08042 0.28523 0.0
H605 H 0.19197 0.09821 0.30666 0.0
H606 H 0.19706 0.17476 0.34548 0.0
H607 H 0.22473 0.20919 0.31266 0.0
H608 H 0.83628 0.21255 0.19177 0.0
H609 H 0.86054 0.1799 0.16487 0.0
H610 H 0.77529 0.12541 0.13646 0.0
H611 H 0.7507 0.15845 0.16316 0.0
H612 H 0.85459 0.12211 0.17924 0.0
H613 H 0.8195 0.13365 0.05742 0.0
H614 H 0.8173 0.1598 0.08715 0.0
H615 H 0.79069 0.12634 0.08331 0.0
C616 C 0.82267 0.19386 0.17938 0.0
C617 C 0.79167 0.18792 0.17948 0.0
C618 C 0.83654 0.17523 0.1641 0.0
C619 C 0.81968 0.15035 0.14868 0.0
C620 C 0.78862 0.14473 0.14793 0.0
H621 H 0.89113 0.02026 0.05318 0.0
H622 H 0.85672 0.04416 0.07809 0.0
C623 C 0.77465 0.16353 0.16317 0.0
C624 C 0.83511 0.12967 0.13522 0.0
H625 H 0.85053 0.10163 0.06754 0.0
C626 C 0.85355 0.11744 0.15483 0.0
C627 C 0.83344 0.12352 0.10343 0.0
C628 C 0.81435 0.13659 0.08146 0.0
C629 C 0.87108 0.09981 0.14341 0.0
C630 C 0.87035 0.0946 0.11155 0.0
C631 C 0.851 0.10581 0.09198 0.0
C632 C 0.89103 0.07927 0.098 0.0
C633 C 0.89054 0.08718 0.16544 0.0
C634 C 0.92159 0.0912 0.10108 0.0
C635 C 0.9412 0.0777 0.08688 0.0
C636 C 0.93047 0.05212 0.06937 0.0
C637 C 0.89991 0.03995 0.06668 0.0
C638 C 0.88028 0.05355 0.08079 0.0
H639 H 0.88269 0.0867 0.18877 0.0
H640 H 0.89129 0.06513 0.15767 0.0
H641 H 0.91345 0.10046 0.16679 0.0
H642 H 0.9302 0.1113 0.1139 0.0
H643 H 0.96465 0.08756 0.08914 0.0
H644 H 0.04319 0.60225 0.46311 0.0
H645 H 0.06101 0.63844 0.42713 0.0
H646 H 0.0309 0.57624 0.35207 0.0
H647 H 0.01445 0.53957 0.38825 0.0
H648 H 0.08533 0.59875 0.34887 0.0
H649 H 0.03067 0.6879 0.3683 0.0
H650 H 0.0462 0.67905 0.40415 0.0
H651 H 0.01716 0.6531 0.38285 0.0
C652 C 0.03986 0.5965 0.43889 0.0
C653 C 0.02795 0.56816 0.42835 0.0
C654 C 0.04966 0.61728 0.41829 0.0
C655 C 0.04688 0.6102 0.38682 0.0
C656 C 0.03319 0.5822 0.37624 0.0
H657 H 0.14242 0.7334 0.26435 0.0
H658 H 0.10053 0.70429 0.28805 0.0
C659 C 0.02402 0.56126 0.39687 0.0
C660 C 0.06299 0.63041 0.36589 0.0
H661 H 0.08113 0.70116 0.35098 0.0
C662 C 0.08374 0.62095 0.34874 0.0
C663 C 0.0608 0.65935 0.36529 0.0
C664 C 0.03721 0.67028 0.38091 0.0
C665 C 0.10384 0.64001 0.33296 0.0
C666 C 0.10371 0.66937 0.33513 0.0
C667 C 0.08155 0.67865 0.35014 0.0
C668 C 0.12793 0.69057 0.32377 0.0
C669 C 0.12583 0.6287 0.31504 0.0
C670 C 0.15687 0.69326 0.33695 0.0
C671 C 0.18075 0.70958 0.32347 0.0
C672 C 0.17598 0.72369 0.29677 0.0
C673 C 0.14676 0.72269 0.28492 0.0
C674 C 0.12282 0.70613 0.29835 0.0
H675 H 0.1177 0.60564 0.30839 0.0
H676 H 0.13046 0.64067 0.29409 0.0
H677 H 0.14698 0.63118 0.32938 0.0
H678 H 0.16105 0.68164 0.3569 0.0
H679 H 0.20298 0.71027 0.33334 0.0
H680 H 0.57087 0.92514 0.49943 0.0
H681 H 0.59939 0.894 0.52422 0.0
H682 H 0.59732 0.93768 0.611 0.0
H683 H 0.56822 0.9688 0.58643 0.0
H684 H 0.6535 0.90551 0.5566 0.0
H685 H 0.56584 0.8544 0.6295 0.0
H686 H 0.55863 0.87607 0.59832 0.0
H687 H 0.57582 0.89267 0.63425 0.0
C688 C 0.57644 0.92827 0.5238 0.0
C689 C 0.56697 0.94946 0.54092 0.0
C690 C 0.59283 0.91038 0.53795 0.0
C691 C 0.6001 0.91309 0.56957 0.0
C692 C 0.59142 0.93471 0.58667 0.0
H693 H 0.73126 0.83912 0.66944 0.0
H694 H 0.70426 0.87023 0.64205 0.0
C695 C 0.57494 0.95266 0.57252 0.0
C696 C 0.61679 0.89326 0.58439 0.0
H697 H 0.61295 0.84309 0.63825 0.0
C698 C 0.64461 0.89185 0.57444 0.0
C699 C 0.60501 0.87503 0.6073 0.0
C700 C 0.57457 0.87432 0.61783 0.0
C701 C 0.66114 0.8731 0.58705 0.0
C702 C 0.64979 0.85556 0.61067 0.0
C703 C 0.62176 0.85664 0.62029 0.0
C704 C 0.66681 0.83629 0.62607 0.0
C705 C 0.69037 0.87193 0.57456 0.0
C706 C 0.65468 0.80679 0.62662 0.0
C707 C 0.67008 0.78892 0.64245 0.0
C708 C 0.6978 0.80027 0.65819 0.0
C709 C 0.71005 0.8297 0.6573 0.0
C710 C 0.69467 0.84752 0.64153 0.0
H711 H 0.69172 0.88001 0.5512 0.0
H712 H 0.70864 0.8856 0.5895 0.0
H713 H 0.69393 0.84979 0.57389 0.0
H714 H 0.63315 0.79764 0.61499 0.0
H715 H 0.66 0.76637 0.64293 0.0
H716 H 0.48271 0.43592 0.90399 0.0
H717 H 0.43857 0.418 0.86937 0.0
H718 H 0.3884 0.46373 0.92401 0.0
H719 H 0.43159 0.47935 0.95999 0.0
H720 H 0.36198 0.41237 0.91891 0.0
H721 H 0.38842 0.44148 0.80305 0.0
H722 H 0.41796 0.42674 0.81913 0.0
H723 H 0.41106 0.4592 0.83617 0.0
C724 C 0.46241 0.44259 0.90815 0.0
C725 C 0.46056 0.45915 0.93443 0.0
C726 C 0.43728 0.43277 0.88811 0.0
C727 C 0.41024 0.44001 0.89373 0.0
C728 C 0.40904 0.45813 0.91901 0.0
H729 H 0.28365 0.32026 0.7712 0.0
H730 H 0.30062 0.36715 0.79773 0.0
C731 C 0.43385 0.46721 0.93945 0.0
C732 C 0.38248 0.42408 0.87708 0.0
H733 H 0.35717 0.39239 0.80719 0.0
C734 C 0.3604 0.40881 0.89431 0.0
C735 C 0.3796 0.41997 0.84497 0.0
C736 C 0.40044 0.43807 0.82487 0.0
C737 C 0.33785 0.3869 0.88068 0.0
C738 C 0.33806 0.37967 0.84937 0.0
C739 C 0.35757 0.39743 0.83147 0.0
C740 C 0.32272 0.35127 0.83621 0.0
C741 C 0.31523 0.37052 0.90033 0.0
C742 C 0.32919 0.32683 0.84935 0.0
C743 C 0.31941 0.30008 0.83439 0.0
C744 C 0.30339 0.2975 0.80591 0.0
C745 C 0.2959 0.32174 0.79329 0.0
C746 C 0.30553 0.3485 0.80836 0.0
H747 H 0.30994 0.38491 0.91841 0.0
H748 H 0.29441 0.36006 0.88666 0.0
H749 H 0.32456 0.35386 0.91187 0.0
H750 H 0.34322 0.32861 0.87038 0.0
H751 H 0.3255 0.28169 0.84447 0.0
H752 H 0.81672 0.78958 0.33915 0.0
H753 H 0.84022 0.83673 0.36215 0.0
H754 H 0.80186 0.87651 0.28769 0.0
H755 H 0.77818 0.82926 0.26452 0.0
H756 H 0.86321 0.89336 0.29612 0.0
H757 H 0.81367 0.90253 0.40532 0.0
H758 H 0.82206 0.86801 0.40033 0.0
H759 H 0.79507 0.87833 0.37411 0.0
C760 C 0.81271 0.80837 0.32811 0.0
C761 C 0.79599 0.80591 0.30001 0.0
C762 C 0.8259 0.83527 0.34135 0.0
C763 C 0.82246 0.86002 0.3267 0.0
C764 C 0.80451 0.85761 0.29938 0.0
H765 H 0.94135 0.99026 0.44145 0.0
H766 H 0.89906 0.97543 0.40395 0.0
C767 C 0.79111 0.83066 0.28621 0.0
C768 C 0.84129 0.88771 0.33791 0.0
H769 H 0.86655 0.92473 0.40506 0.0
C770 C 0.86349 0.90097 0.31966 0.0
C771 C 0.84111 0.89808 0.36824 0.0
C772 C 0.81645 0.88615 0.38798 0.0
C773 C 0.88758 0.92205 0.33222 0.0
C774 C 0.88953 0.92942 0.36377 0.0
C775 C 0.86543 0.9187 0.38095 0.0
C776 C 0.91774 0.94392 0.38064 0.0
C777 C 0.91141 0.93499 0.31197 0.0
C778 C 0.94277 0.93195 0.37931 0.0
C779 C 0.96711 0.94082 0.40057 0.0
C780 C 0.96638 0.96126 0.42383 0.0
C781 C 0.94222 0.9744 0.42393 0.0
C782 C 0.91814 0.96598 0.40241 0.0
H783 H 0.90165 0.93705 0.28858 0.0
H784 H 0.92392 0.95637 0.32114 0.0
H785 H 0.92712 0.9207 0.31007 0.0
H786 H 0.94269 0.91432 0.36327 0.0
H787 H 0.98555 0.93035 0.40001 0.0
H788 H 0.43129 0.55858 0.49302 0.0
H789 H 0.39958 0.58797 0.51338 0.0
H790 H 0.44421 0.58901 0.60295 0.0
H791 H 0.4755 0.55893 0.583 0.0
H792 H 0.38459 0.57656 0.60432 0.0
H793 H 0.42008 0.67234 0.53727 0.0
H794 H 0.40692 0.63984 0.51431 0.0
H795 H 0.44014 0.64412 0.53932 0.0
C796 C 0.43457 0.56527 0.51701 0.0
C797 C 0.45596 0.55647 0.53642 0.0
C798 C 0.4165 0.58218 0.52856 0.0
C799 C 0.41983 0.59097 0.55956 0.0
C800 C 0.44134 0.58246 0.57892 0.0
H801 H 0.36187 0.72291 0.65541 0.0
H802 H 0.38702 0.69276 0.62602 0.0
C803 C 0.45922 0.56532 0.56747 0.0
C804 C 0.40027 0.60823 0.57221 0.0
H805 H 0.37952 0.67195 0.56728 0.0
C806 C 0.38341 0.59741 0.59622 0.0
C807 C 0.39896 0.63545 0.56163 0.0
C808 C 0.41768 0.64879 0.53692 0.0
C809 C 0.36562 0.61329 0.61036 0.0
C810 C 0.36404 0.64038 0.59956 0.0
C811 C 0.38052 0.651 0.57521 0.0
C812 C 0.34775 0.6592 0.61514 0.0
C813 C 0.3497 0.60141 0.63752 0.0
C814 C 0.31715 0.65062 0.61812 0.0
C815 C 0.30276 0.66774 0.63523 0.0
C816 C 0.31877 0.69378 0.64916 0.0
C817 C 0.34905 0.70288 0.64496 0.0
C818 C 0.36342 0.68571 0.62813 0.0
H819 H 0.35862 0.58358 0.64706 0.0
H820 H 0.3515 0.61829 0.65588 0.0
H821 H 0.32585 0.59309 0.63039 0.0
H822 H 0.30456 0.63049 0.60769 0.0
H823 H 0.27933 0.6604 0.63804 0.0
H824 H 0.57192 0.04051 0.91509 0.0
H825 H 0.59489 0.07723 0.88224 0.0
H826 H 0.55973 0.13996 0.93139 0.0
H827 H 0.53661 0.10316 0.96499 0.0
H828 H 0.56713 0.11403 0.8449 0.0
H829 H 0.65137 0.17198 0.93523 0.0
H830 H 0.6307 0.13608 0.93973 0.0
H831 H 0.61277 0.1655 0.94244 0.0
C832 C 0.56897 0.06206 0.91909 0.0
C833 C 0.5526 0.06895 0.94285 0.0
C834 C 0.582 0.08297 0.90013 0.0
C835 C 0.57897 0.11117 0.90452 0.0
C836 C 0.56238 0.11825 0.92789 0.0
H837 H 0.66765 0.22592 0.77016 0.0
H838 H 0.6288 0.20473 0.80274 0.0
C839 C 0.54926 0.09724 0.94701 0.0
C840 C 0.59455 0.1329 0.88503 0.0
H841 H 0.65852 0.18371 0.88464 0.0
C842 C 0.58674 0.12982 0.85352 0.0
C843 C 0.62007 0.15325 0.89662 0.0
C844 C 0.62948 0.15701 0.93032 0.0
C845 C 0.60502 0.14525 0.83297 0.0
C846 C 0.63146 0.16435 0.84449 0.0
C847 C 0.63818 0.1689 0.87609 0.0
C848 C 0.65426 0.17701 0.82429 0.0
C849 C 0.5971 0.13957 0.79913 0.0
C850 C 0.68127 0.16832 0.82579 0.0
C851 C 0.70348 0.18035 0.80737 0.0
C852 C 0.69902 0.20131 0.78717 0.0
C853 C 0.6717 0.20968 0.78539 0.0
C854 C 0.64948 0.19765 0.80394 0.0
H855 H 0.57757 0.12157 0.79403 0.0
H856 H 0.5919 0.15898 0.78911 0.0
H857 H 0.61615 0.13462 0.78774 0.0
H858 H 0.68519 0.15228 0.84137 0.0
H859 H 0.72425 0.17345 0.8093 0.0
H860 H 0.08279 0.43792 0.00224 0.0
H861 H 0.11244 0.407 0.02569 0.0
H862 H 0.07825 0.42023 0.11248 0.0
H863 H 0.04917 0.45204 0.08935 0.0
H864 H 0.13618 0.42254 0.11957 0.0
H865 H 0.083 0.32593 0.04733 0.0
H866 H 0.09885 0.35531 0.02521 0.0
H867 H 0.06845 0.35783 0.04775 0.0
C868 C 0.08152 0.43428 0.02634 0.0
C869 C 0.0634 0.44736 0.04386 0.0
C870 C 0.09837 0.41638 0.03968 0.0
C871 C 0.09707 0.41065 0.07071 0.0
C872 C 0.07948 0.42414 0.08843 0.0
H873 H 0.15532 0.27067 0.15845 0.0
H874 H 0.1275 0.30215 0.13271 0.0
C875 C 0.06286 0.44235 0.07517 0.0
C876 C 0.11434 0.39091 0.08477 0.0
H877 H 0.1268 0.32347 0.0778 0.0
C878 C 0.13404 0.40084 0.11049 0.0
C879 C 0.11126 0.36241 0.07326 0.0
C880 C 0.08902 0.34962 0.04708 0.0
C881 C 0.15095 0.38326 0.12478 0.0
C882 C 0.1488 0.35515 0.11248 0.0
C883 C 0.12883 0.34512 0.08698 0.0
C884 C 0.16615 0.33545 0.12645 0.0
C885 C 0.1703 0.39478 0.15342 0.0
C886 C 0.19725 0.34319 0.1307 0.0
C887 C 0.21317 0.3253 0.14566 0.0
C888 C 0.19831 0.2991 0.15615 0.0
C889 C 0.16736 0.29072 0.15056 0.0
C890 C 0.15144 0.30873 0.1359 0.0
H891 H 0.163 0.41291 0.16455 0.0
H892 H 0.17017 0.37793 0.17013 0.0
H893 H 0.19344 0.40273 0.14748 0.0
H894 H 0.20923 0.36327 0.12283 0.0
H895 H 0.23704 0.33223 0.14954 0.0
H896 H 0.60358 0.52979 0.9538 0.0
H897 H 0.63564 0.55818 0.91867 0.0
H898 H 0.55913 0.57912 0.87146 0.0
H899 H 0.52707 0.55118 0.90631 0.0
H900 H 0.63549 0.55584 0.85287 0.0
H901 H 0.61323 0.65742 0.89896 0.0
H902 H 0.60447 0.62449 0.91846 0.0
H903 H 0.58041 0.63082 0.88683 0.0
C904 C 0.59354 0.54021 0.93576 0.0
C905 C 0.56274 0.5384 0.93312 0.0
C906 C 0.61191 0.55642 0.91572 0.0
C907 C 0.5998 0.57113 0.89279 0.0
C908 C 0.569 0.56838 0.88934 0.0
H909 H 0.67554 0.6571 0.73619 0.0
H910 H 0.64945 0.62247 0.77036 0.0
C911 C 0.55069 0.5523 0.90931 0.0
C912 C 0.61923 0.59028 0.8731 0.0
H913 H 0.63834 0.65976 0.85358 0.0
C914 C 0.63629 0.57859 0.85309 0.0
C915 C 0.62054 0.62001 0.87374 0.0
C916 C 0.60392 0.63405 0.89584 0.0
C917 C 0.65404 0.5958 0.83311 0.0
C918 C 0.65441 0.62536 0.83295 0.0
C919 C 0.63787 0.63707 0.8535 0.0
C920 C 0.67186 0.64479 0.81192 0.0
C921 C 0.6725 0.58227 0.81265 0.0
C922 C 0.69292 0.66897 0.82384 0.0
C923 C 0.70755 0.68885 0.80443 0.0
C924 C 0.70142 0.685 0.77263 0.0
C925 C 0.68081 0.66052 0.76059 0.0
C926 C 0.66605 0.64063 0.78009 0.0
H927 H 0.67599 0.56164 0.82119 0.0
H928 H 0.66086 0.57797 0.78951 0.0
H929 H 0.69445 0.59672 0.81065 0.0
H930 H 0.69768 0.67273 0.84829 0.0
H931 H 0.72319 0.70759 0.81441 0.0
H932 H 0.68737 0.32295 0.23981 0.0
H933 H 0.66231 0.34982 0.20448 0.0
H934 H 0.66717 0.29004 0.13072 0.0
H935 H 0.69259 0.2631 0.16581 0.0
H936 H 0.68446 0.3471 0.11575 0.0
H937 H 0.57652 0.32708 0.16749 0.0
H938 H 0.60775 0.34158 0.19412 0.0
H939 H 0.60418 0.30666 0.17621 0.0
C940 C 0.68299 0.31535 0.21612 0.0
C941 C 0.69194 0.29073 0.20573 0.0
C942 C 0.66852 0.33071 0.19597 0.0
C943 C 0.6625 0.32174 0.16503 0.0
C944 C 0.67149 0.29728 0.15452 0.0
H945 H 0.54227 0.38531 0.03806 0.0
H946 H 0.56819 0.3554 0.06886 0.0
C947 C 0.68596 0.28187 0.17467 0.0
C948 C 0.64739 0.33824 0.14356 0.0
H949 H 0.58379 0.36234 0.13038 0.0
C950 C 0.66239 0.35033 0.11884 0.0
C951 C 0.61846 0.34215 0.14739 0.0
C952 C 0.60062 0.32847 0.17255 0.0
C953 C 0.64948 0.36675 0.09824 0.0
C954 C 0.62097 0.37151 0.10273 0.0
C955 C 0.60575 0.3589 0.12709 0.0
C956 C 0.60637 0.38939 0.08245 0.0
C957 C 0.66632 0.37851 0.07163 0.0
C958 C 0.61925 0.41845 0.07972 0.0
C959 C 0.60451 0.43556 0.06201 0.0
C960 C 0.57655 0.42394 0.0469 0.0
C961 C 0.56386 0.39481 0.04935 0.0
C962 C 0.57861 0.37772 0.067 0.0
H963 H 0.68372 0.3667 0.06671 0.0
H964 H 0.65116 0.3775 0.05074 0.0
H965 H 0.67737 0.40121 0.07713 0.0
H966 H 0.64035 0.42809 0.09193 0.0
H967 H 0.61466 0.45803 0.06076 0.0
H968 H 0.96178 0.43812 0.43535 0.0
H969 H 0.93388 0.41221 0.38992 0.0
H970 H 0.90774 0.48917 0.3624 0.0
H971 H 0.93497 0.51492 0.40818 0.0
H972 H 0.8611 0.44662 0.36535 0.0
H973 H 0.94277 0.40771 0.29952 0.0
H974 H 0.94646 0.39897 0.3387 0.0
H975 H 0.9536 0.4359 0.32903 0.0
C976 C 0.95056 0.44957 0.41925 0.0
C977 C 0.95012 0.47831 0.4253 0.0
C978 C 0.93488 0.43487 0.39316 0.0
C979 C 0.91902 0.44888 0.37258 0.0
C980 C 0.91993 0.47802 0.37791 0.0
H981 H 0.80934 0.33348 0.22804 0.0
H982 H 0.84232 0.37778 0.25022 0.0
C983 C 0.93536 0.49263 0.40409 0.0
C984 C 0.89815 0.43217 0.34828 0.0
H985 H 0.89199 0.37928 0.29301 0.0
C986 C 0.86797 0.43243 0.34899 0.0
C987 C 0.90709 0.41403 0.32658 0.0
C988 C 0.93931 0.41437 0.32318 0.0
C989 C 0.84631 0.41331 0.33034 0.0
C990 C 0.8551 0.39322 0.31092 0.0
C991 C 0.88535 0.39454 0.30826 0.0
C992 C 0.83341 0.36824 0.29684 0.0
C993 C 0.81412 0.4139 0.33259 0.0
C994 C 0.81767 0.34845 0.3158 0.0
C995 C 0.79918 0.32329 0.30333 0.0
C996 C 0.7961 0.31749 0.27166 0.0
C997 C 0.81129 0.3376 0.25254 0.0
C998 C 0.83007 0.36279 0.26511 0.0
H999 H 0.81158 0.4355 0.34011 0.0
H1000 H 0.80105 0.40748 0.31038 0.0
H1001 H 0.80475 0.39873 0.34974 0.0
H1002 H 0.82048 0.35202 0.34039 0.0
H1003 H 0.78802 0.30799 0.31859 0.0
H1004 H 0.57771 0.59344 0.51258 0.0
H1005 H 0.60796 0.62707 0.48034 0.0
H1006 H 0.5835 0.56597 0.40374 0.0
H1007 H 0.5533 0.53239 0.43573 0.0
H1008 H 0.65631 0.61776 0.4486 0.0
H1009 H 0.56622 0.63998 0.36978 0.0
H1010 H 0.55942 0.624 0.40594 0.0
H1011 H 0.56501 0.60261 0.37347 0.0
C1012 C 0.57861 0.58734 0.48879 0.0
C1013 C 0.56307 0.56042 0.47657 0.0
C1014 C 0.59589 0.6065 0.47046 0.0
C1015 C 0.59765 0.59911 0.4396 0.0
C1016 C 0.58199 0.57229 0.42735 0.0
H1017 H 0.72781 0.66569 0.31394 0.0
H1018 H 0.69833 0.63823 0.35135 0.0
C1019 C 0.56481 0.55311 0.44566 0.0
C1020 C 0.61675 0.6189 0.42041 0.0
H1021 H 0.61551 0.65505 0.35502 0.0
C1022 C 0.64742 0.62613 0.42826 0.0
C1023 C 0.605 0.62998 0.3941 0.0
C1024 C 0.57208 0.624 0.38541 0.0
C1025 C 0.6668 0.64355 0.40997 0.0
C1026 C 0.65517 0.65364 0.38297 0.0
C1027 C 0.6244 0.64706 0.3756 0.0
C1028 C 0.67443 0.67092 0.36182 0.0
C1029 C 0.69951 0.65112 0.41978 0.0
C1030 C 0.67059 0.69828 0.35512 0.0
C1031 C 0.68724 0.71396 0.33364 0.0
C1032 C 0.70798 0.70249 0.31827 0.0
C1033 C 0.71215 0.67523 0.32543 0.0
C1034 C 0.69542 0.65955 0.34693 0.0
H1035 H 0.70379 0.64831 0.44454 0.0
H1036 H 0.71084 0.63687 0.40702 0.0
H1037 H 0.70949 0.67354 0.41479 0.0
H1038 H 0.65444 0.70741 0.36631 0.0
H1039 H 0.68347 0.7349 0.32879 0.0
H1040 H 0.84308 0.26423 0.79642 0.0
H1041 H 0.8804 0.2818 0.83868 0.0
H1042 H 0.81451 0.31009 0.88895 0.0
H1043 H 0.77698 0.29222 0.84691 0.0
H1044 H 0.8927 0.3398 0.85316 0.0
H1045 H 0.86379 0.27944 0.95588 0.0
H1046 H 0.85025 0.26536 0.91766 0.0
H1047 H 0.83268 0.29007 0.93687 0.0
C1048 C 0.83636 0.27339 0.81688 0.0
C1049 C 0.80728 0.27719 0.81839 0.0
C1050 C 0.85767 0.28333 0.84099 0.0
C1051 C 0.85013 0.29699 0.86698 0.0
C1052 C 0.82062 0.29907 0.86934 0.0
H1053 H 0.91507 0.42522 0.00289 0.0
H1054 H 0.8895 0.38276 0.9714 0.0
C1055 C 0.79929 0.28914 0.84521 0.0
C1056 C 0.87366 0.31375 0.88875 0.0
H1057 H 0.89391 0.32727 0.96468 0.0
C1058 C 0.89353 0.33672 0.87751 0.0
C1059 C 0.87443 0.30964 0.92039 0.0
C1060 C 0.85432 0.28461 0.93342 0.0
C1061 C 0.91276 0.35703 0.89726 0.0
C1062 C 0.91262 0.3537 0.92912 0.0
C1063 C 0.89393 0.32976 0.94026 0.0
C1064 C 0.92906 0.37654 0.9511 0.0
C1065 C 0.93142 0.38285 0.88383 0.0
C1066 C 0.95986 0.38648 0.95081 0.0
C1067 C 0.97423 0.41104 0.96824 0.0
C1068 C 0.95805 0.4254 0.98657 0.0
C1069 C 0.92775 0.41438 0.9886 0.0
C1070 C 0.91326 0.39015 0.97079 0.0
H1071 H 0.92403 0.38507 0.85963 0.0
H1072 H 0.93066 0.40277 0.89701 0.0
H1073 H 0.95481 0.38071 0.88463 0.0
H1074 H 0.97257 0.37582 0.93641 0.0
H1075 H 0.99785 0.41893 0.96718 0.0
H1076 H 0.81616 0.76318 0.16001 0.0
H1077 H 0.8443 0.7915 0.12229 0.0
H1078 H 0.8029 0.86138 0.14265 0.0
H1079 H 0.77429 0.83316 0.18002 0.0
H1080 H 0.80751 0.85206 0.08015 0.0
H1081 H 0.9146 0.85789 0.14783 0.0
H1082 H 0.89351 0.82224 0.13839 0.0
H1083 H 0.87924 0.84557 0.16326 0.0
C1084 C 0.8129 0.78451 0.15638 0.0
C1085 C 0.79321 0.79601 0.1733 0.0
C1086 C 0.82906 0.80068 0.13487 0.0
C1087 C 0.82603 0.82868 0.13011 0.0
C1088 C 0.80562 0.83983 0.1461 0.0
H1089 H 0.95302 0.96313 0.05715 0.0
H1090 H 0.91728 0.93338 0.08749 0.0
C1091 C 0.78934 0.82366 0.16751 0.0
C1092 C 0.84497 0.84684 0.10942 0.0
H1093 H 0.917 0.87782 0.09946 0.0
C1094 C 0.83146 0.8577 0.08428 0.0
C1095 C 0.87615 0.85446 0.11521 0.0
C1096 C 0.89179 0.84469 0.14277 0.0
C1097 C 0.84839 0.87591 0.06461 0.0
C1098 C 0.87961 0.88303 0.07008 0.0
C1099 C 0.89305 0.87219 0.09525 0.0
C1100 C 0.89895 0.90227 0.05057 0.0
C1101 C 0.83271 0.88793 0.03865 0.0
C1102 C 0.90022 0.89481 0.01963 0.0
C1103 C 0.92052 0.91194 0.00215 0.0
C1104 C 0.94002 0.93654 0.0155 0.0
C1105 C 0.93822 0.94428 0.04627 0.0
C1106 C 0.91787 0.92729 0.06364 0.0
H1107 H 0.8089 0.88626 0.04214 0.0
H1108 H 0.84331 0.91069 0.03591 0.0
H1109 H 0.83408 0.87573 0.01712 0.0
H1110 H 0.8862 0.87531 0.00925 0.0
H1111 H 0.92157 0.90546 0.97849 0.0
H1112 H 0.80959 0.12675 0.74352 0.0
H1113 H 0.83226 0.08947 0.76542 0.0
H1114 H 0.87668 0.14918 0.83823 0.0
H1115 H 0.85447 0.18647 0.81634 0.0
H1116 H 0.91312 0.11666 0.81071 0.0
H1117 H 0.80753 0.04936 0.84466 0.0
H1118 H 0.80895 0.05856 0.80539 0.0
H1119 H 0.8106 0.08598 0.8346 0.0
C1120 C 0.82429 0.13185 0.76414 0.0
C1121 C 0.83028 0.15934 0.77839 0.0
C1122 C 0.83707 0.11057 0.77663 0.0
C1123 C 0.85583 0.11659 0.80355 0.0
C1124 C 0.86221 0.14419 0.81743 0.0
H1125 H 0.91519 0.03755 0.95323 0.0
H1126 H 0.8881 0.05783 0.91342 0.0
C1127 C 0.8495 0.16541 0.80497 0.0
C1128 C 0.86878 0.09432 0.81789 0.0
H1129 H 0.85161 0.03552 0.86017 0.0
C1130 C 0.89974 0.09859 0.82111 0.0
C1131 C 0.85108 0.07094 0.83143 0.0
C1132 C 0.81769 0.06586 0.82912 0.0
C1133 C 0.91365 0.08092 0.83889 0.0
C1134 C 0.89597 0.05808 0.8533 0.0
C1135 C 0.86497 0.05296 0.84886 0.0
C1136 C 0.90926 0.04193 0.87627 0.0
C1137 C 0.94707 0.08795 0.84369 0.0
C1138 C 0.92935 0.02543 0.86837 0.0
C1139 C 0.94513 0.01396 0.89112 0.0
C1140 C 0.94086 0.01873 0.92207 0.0
C1141 C 0.91925 0.03369 0.92966 0.0
C1142 C 0.90362 0.04521 0.90693 0.0
H1143 H 0.95707 0.10907 0.835 0.0
H1144 H 0.9543 0.08801 0.86831 0.0
H1145 H 0.95591 0.07144 0.83144 0.0
H1146 H 0.93358 0.02229 0.84472 0.0
H1147 H 0.96137 0.00224 0.88449 0.0
H1148 H 0.77244 0.20139 0.63652 0.0
H1149 H 0.73747 0.17791 0.59445 0.0
H1150 H 0.66535 0.19997 0.63975 0.0
H1151 H 0.70025 0.22361 0.68199 0.0
H1152 H 0.69103 0.13144 0.61559 0.0
H1153 H 0.6461 0.20866 0.54478 0.0
H1154 H 0.68259 0.21774 0.56478 0.0
H1155 H 0.6503 0.21532 0.58559 0.0
C1156 C 0.74926 0.20201 0.63707 0.0
C1157 C 0.73887 0.21374 0.66268 0.0
C1158 C 0.72938 0.18873 0.61299 0.0
C1159 C 0.69896 0.18731 0.61411 0.0
C1160 C 0.68884 0.20122 0.63839 0.0
H1161 H 0.54165 0.07669 0.52384 0.0
H1162 H 0.57701 0.1159 0.55233 0.0
C1163 C 0.70874 0.21451 0.66255 0.0
C1164 C 0.67773 0.16654 0.59362 0.0
H1165 H 0.62345 0.15952 0.53567 0.0
C1166 C 0.6764 0.13753 0.59792 0.0
C1167 C 0.65843 0.17477 0.57118 0.0
C1168 C 0.65934 0.20581 0.56602 0.0
C1169 C 0.65603 0.1163 0.58042 0.0
C1170 C 0.63711 0.12439 0.55738 0.0
C1171 C 0.63824 0.15348 0.55319 0.0
C1172 C 0.61585 0.10266 0.53782 0.0
C1173 C 0.65446 0.08542 0.58736 0.0
C1174 C 0.62608 0.08281 0.51972 0.0
C1175 C 0.60603 0.06011 0.50416 0.0
C1176 C 0.57546 0.05722 0.50613 0.0
C1177 C 0.56517 0.07804 0.52276 0.0
C1178 C 0.58527 0.10059 0.53866 0.0
H1179 H 0.66442 0.08333 0.61066 0.0
H1180 H 0.63118 0.07294 0.58537 0.0
H1181 H 0.66699 0.07582 0.57083 0.0
H1182 H 0.64963 0.08445 0.51831 0.0
H1183 H 0.61449 0.04455 0.49108 0.0
H1184 H 0.5132 0.90229 0.40384 0.0
H1185 H 0.53755 0.8778 0.36719 0.0
H1186 H 0.56343 0.95612 0.32078 0.0
H1187 H 0.54041 0.9811 0.35854 0.0
H1188 H 0.5372 0.86668 0.30737 0.0
H1189 H 0.64281 0.94194 0.34841 0.0
H1190 H 0.60873 0.94123 0.36595 0.0
H1191 H 0.61545 0.95874 0.33074 0.0
C1192 C 0.52356 0.91415 0.38545 0.0
C1193 C 0.52551 0.94368 0.38431 0.0
C1194 C 0.53746 0.90013 0.36448 0.0
C1195 C 0.55317 0.91535 0.34183 0.0
C1196 C 0.55232 0.94419 0.33871 0.0
H1197 H 0.64736 0.81898 0.22244 0.0
H1198 H 0.61292 0.84784 0.23857 0.0
C1199 C 0.53894 0.95837 0.36008 0.0
C1200 C 0.57286 0.90169 0.32401 0.0
H1201 H 0.64571 0.90596 0.31233 0.0
C1202 C 0.5609 0.87536 0.30818 0.0
C1203 C 0.60388 0.91288 0.32549 0.0
C1204 C 0.61858 0.94009 0.34376 0.0
C1205 C 0.57918 0.85945 0.29468 0.0
C1206 C 0.61017 0.87065 0.29628 0.0
C1207 C 0.62194 0.89748 0.31104 0.0
C1208 C 0.63124 0.8539 0.28559 0.0
C1209 C 0.56527 0.83019 0.28033 0.0
C1210 C 0.65364 0.84862 0.30632 0.0
C1211 C 0.67362 0.83278 0.29701 0.0
C1212 C 0.67145 0.82168 0.26684 0.0
C1213 C 0.64933 0.82719 0.24591 0.0
C1214 C 0.62952 0.84344 0.25516 0.0
H1215 H 0.54252 0.8221 0.28739 0.0
H1216 H 0.56375 0.83132 0.25513 0.0
H1217 H 0.5789 0.81456 0.28653 0.0
H1218 H 0.65546 0.85651 0.32991 0.0
H1219 H 0.69045 0.8288 0.31362 0.0
H1220 H 0.79256 0.17093 0.29204 0.0
H1221 H 0.82133 0.1448 0.32407 0.0
H1222 H 0.81724 0.20098 0.40145 0.0
H1223 H 0.78766 0.22704 0.36956 0.0
H1224 H 0.875 0.16407 0.35353 0.0
H1225 H 0.7933 0.1232 0.43693 0.0
H1226 H 0.7832 0.13858 0.40195 0.0
H1227 H 0.80111 0.16131 0.43421 0.0
C1228 C 0.79753 0.17771 0.31592 0.0
C1229 C 0.78771 0.20113 0.3282 0.0
C1230 C 0.81404 0.16269 0.33423 0.0
C1231 C 0.82123 0.17068 0.36527 0.0
C1232 C 0.81144 0.19401 0.37772 0.0
H1233 H 0.96406 0.11207 0.46741 0.0
H1234 H 0.93298 0.14164 0.4432 0.0
C1235 C 0.79466 0.20899 0.35941 0.0
C1236 C 0.84002 0.15515 0.38393 0.0
H1237 H 0.84167 0.11507 0.44658 0.0
C1238 C 0.86772 0.1534 0.37392 0.0
C1239 C 0.83038 0.14095 0.41034 0.0
C1240 C 0.80027 0.14081 0.42141 0.0
C1241 C 0.88594 0.13776 0.38937 0.0
C1242 C 0.87661 0.12405 0.41615 0.0
C1243 C 0.84894 0.12583 0.42625 0.0
C1244 C 0.89474 0.10678 0.43315 0.0
C1245 C 0.91457 0.1353 0.37622 0.0
C1246 C 0.8832 0.07761 0.43677 0.0
C1247 C 0.90079 0.06078 0.45098 0.0
C1248 C 0.93025 0.07284 0.4618 0.0
C1249 C 0.94149 0.1022 0.45907 0.0
C1250 C 0.92381 0.11906 0.44508 0.0
H1251 H 0.91459 0.14043 0.35177 0.0
H1252 H 0.93328 0.15062 0.38888 0.0
H1253 H 0.91857 0.11345 0.37833 0.0
H1254 H 0.8608 0.06767 0.42786 0.0
H1255 H 0.89157 0.03819 0.45278 0.0
H1256 H 0.70777 0.17667 0.2273 0.0
H1257 H 0.67589 0.13703 0.19695 0.0
H1258 H 0.6001 0.1529 0.24088 0.0
H1259 H 0.63178 0.19481 0.26859 0.0
H1260 H 0.64384 0.08966 0.2072 0.0
H1261 H 0.56768 0.15359 0.15676 0.0
H1262 H 0.60077 0.16989 0.18019 0.0
H1263 H 0.5679 0.15227 0.19741 0.0
C1264 C 0.68424 0.17211 0.22985 0.0
C1265 C 0.67206 0.18938 0.24923 0.0
C1266 C 0.666 0.14914 0.2129 0.0
C1267 C 0.6353 0.14235 0.21589 0.0
C1268 C 0.62342 0.1584 0.23708 0.0
H1269 H 0.55093 0.98959 0.09662 0.0
H1270 H 0.56606 0.01854 0.14452 0.0
C1271 C 0.64157 0.18217 0.25311 0.0
C1272 C 0.61617 0.11909 0.19588 0.0
H1273 H 0.55845 0.10534 0.1411 0.0
C1274 C 0.62514 0.09308 0.19272 0.0
C1275 C 0.59155 0.12345 0.17719 0.0
C1276 C 0.58154 0.15136 0.17781 0.0
C1277 C 0.61199 0.0724 0.16971 0.0
C1278 C 0.58781 0.07707 0.15059 0.0
C1279 C 0.57712 0.1019 0.15563 0.0
C1280 C 0.57606 0.05895 0.12258 0.0
C1281 C 0.62568 0.04695 0.16484 0.0
C1282 C 0.57508 0.07206 0.09455 0.0
C1283 C 0.56533 0.05574 0.06761 0.0
C1284 C 0.55717 0.02593 0.06803 0.0
C1285 C 0.5577 0.01261 0.0959 0.0
C1286 C 0.56652 0.0291 0.12315 0.0
H1287 H 0.64822 0.05027 0.17667 0.0
H1288 H 0.61166 0.02788 0.17415 0.0
H1289 H 0.62738 0.0424 0.14019 0.0
H1290 H 0.58236 0.09501 0.09338 0.0
H1291 H 0.565 0.06643 0.04631 0.0
H1292 H 0.73894 0.79556 0.84891 0.0
H1293 H 0.71114 0.82371 0.87842 0.0
H1294 H 0.66255 0.83856 0.79572 0.0
H1295 H 0.69017 0.81093 0.7661 0.0
H1296 H 0.70422 0.88505 0.86682 0.0
H1297 H 0.59871 0.80265 0.8571 0.0
H1298 H 0.63427 0.79389 0.85299 0.0
H1299 H 0.61713 0.81015 0.82262 0.0
C1300 C 0.72242 0.80488 0.83697 0.0
C1301 C 0.71689 0.80083 0.80504 0.0
C1302 C 0.70654 0.82099 0.85389 0.0
C1303 C 0.68453 0.83303 0.83933 0.0
C1304 C 0.67919 0.82927 0.80751 0.0
H1305 H 0.55234 0.92493 0.89544 0.0
H1306 H 0.58222 0.89737 0.86818 0.0
C1307 C 0.69518 0.81349 0.79059 0.0
C1308 C 0.66704 0.84961 0.8571 0.0
H1309 H 0.59725 0.84792 0.87882 0.0
C1310 C 0.68089 0.87689 0.86967 0.0
C1311 C 0.63652 0.8391 0.86048 0.0
C1312 C 0.62066 0.80977 0.84781 0.0
C1313 C 0.66491 0.89418 0.88496 0.0
C1314 C 0.63433 0.88359 0.88864 0.0
C1315 C 0.6206 0.85617 0.87613 0.0
C1316 C 0.61619 0.90055 0.9053 0.0
C1317 C 0.68083 0.92402 0.89603 0.0
C1318 C 0.62488 0.91128 0.93547 0.0
C1319 C 0.60797 0.92727 0.95092 0.0
C1320 C 0.58165 0.93255 0.93682 0.0
C1321 C 0.57255 0.92133 0.9069 0.0
C1322 C 0.58963 0.90552 0.89132 0.0
H1323 H 0.70067 0.93186 0.88332 0.0
H1324 H 0.66602 0.93927 0.89362 0.0
H1325 H 0.68847 0.92392 0.92049 0.0
H1326 H 0.64467 0.90711 0.94724 0.0
H1327 H 0.61545 0.93536 0.97407 0.0
H1328 H 0.98846 0.93693 0.58283 0.0
H1329 H 0.95778 0.90859 0.61857 0.0
H1330 H 0.88118 0.9364 0.58052 0.0
H1331 H 0.91184 0.96532 0.54486 0.0
H1332 H 0.88461 0.93659 0.64412 0.0
H1333 H 0.89917 0.83343 0.59425 0.0
H1334 H 0.93356 0.85802 0.6058 0.0
H1335 H 0.90942 0.86657 0.57542 0.0
C1336 C 0.9651 0.93713 0.58201 0.0
C1337 C 0.95259 0.95325 0.56072 0.0
C1338 C 0.94757 0.92079 0.60242 0.0
C1339 C 0.91709 0.91994 0.60182 0.0
C1340 C 0.90464 0.93662 0.58125 0.0
H1341 H 0.79208 0.78678 0.68215 0.0
H1342 H 0.81828 0.82105 0.64819 0.0
C1343 C 0.92221 0.95311 0.56086 0.0
C1344 C 0.89821 0.90126 0.62234 0.0
H1345 H 0.87664 0.83181 0.64121 0.0
C1346 C 0.88273 0.91366 0.64344 0.0
C1347 C 0.89542 0.87129 0.62109 0.0
C1348 C 0.91003 0.85646 0.59773 0.0
C1349 C 0.86501 0.89693 0.66376 0.0
C1350 C 0.86318 0.8671 0.66327 0.0
C1351 C 0.87825 0.85471 0.64179 0.0
C1352 C 0.84547 0.84807 0.68443 0.0
C1353 C 0.84805 0.91128 0.68516 0.0
C1354 C 0.85179 0.85196 0.71621 0.0
C1355 C 0.83654 0.83248 0.73578 0.0
C1356 C 0.81497 0.80865 0.72383 0.0
C1357 C 0.80841 0.80505 0.69208 0.0
C1358 C 0.82346 0.82457 0.67261 0.0
H1359 H 0.84518 0.93224 0.67699 0.0
H1360 H 0.82584 0.89761 0.68788 0.0
H1361 H 0.86051 0.91516 0.70793 0.0
H1362 H 0.86913 0.86955 0.72586 0.0
H1363 H 0.84217 0.83565 0.76015 0.0
H1364 H 0.25118 0.85384 0.81524 0.0
H1365 H 0.22384 0.88628 0.83858 0.0
H1366 H 0.15707 0.81399 0.86128 0.0
H1367 H 0.18423 0.78147 0.83814 0.0
H1368 H 0.14022 0.86039 0.82065 0.0
H1369 H 0.2035 0.89907 0.93212 0.0
H1370 H 0.2233 0.8961 0.89869 0.0
H1371 H 0.20356 0.86442 0.91479 0.0
C1372 C 0.23103 0.84491 0.82586 0.0
C1373 C 0.21963 0.81525 0.82482 0.0
C1374 C 0.21552 0.86341 0.83915 0.0
C1375 C 0.18857 0.85237 0.85153 0.0
C1376 C 0.17793 0.82275 0.85184 0.0
H1377 H 0.03773 0.9032 0.91361 0.0
H1378 H 0.07351 0.88022 0.89047 0.0
C1379 C 0.19345 0.80426 0.83869 0.0
C1380 C 0.16981 0.87153 0.86126 0.0
H1381 H 0.16004 0.91562 0.92009 0.0
C1382 C 0.14458 0.87266 0.84229 0.0
C1383 C 0.176 0.88767 0.88923 0.0
C1384 C 0.20299 0.88688 0.9101 0.0
C1385 C 0.12479 0.88913 0.85095 0.0
C1386 C 0.13015 0.90424 0.87964 0.0
C1387 C 0.15601 0.90392 0.89813 0.0
C1388 C 0.10815 0.91877 0.89184 0.0
C1389 C 0.0983 0.8901 0.82937 0.0
C1390 C 0.11596 0.94796 0.90061 0.0
C1391 C 0.0956 0.96108 0.91407 0.0
C1392 C 0.06729 0.94508 0.91903 0.0
C1393 C 0.05936 0.91601 0.90978 0.0
C1394 C 0.07971 0.90292 0.89645 0.0
H1395 H 0.10245 0.88543 0.80535 0.0
H1396 H 0.079 0.87361 0.83529 0.0
H1397 H 0.09241 0.91128 0.83099 0.0
H1398 H 0.1379 0.96045 0.89737 0.0
H1399 H 0.10221 0.98353 0.92114 0.0
H1400 H 0.0115 0.46613 0.59065 0.0
H1401 H 0.99756 0.43201 0.63003 0.0
H1402 H 0.94979 0.36988 0.56073 0.0
H1403 H 0.96545 0.40335 0.52131 0.0
H1404 H 0.94532 0.41635 0.64379 0.0
H1405 H 0.98031 0.31731 0.61462 0.0
H1406 H 0.99518 0.35037 0.59716 0.0
H1407 H 0.96104 0.32703 0.58137 0.0
C1408 C 0.99866 0.44486 0.58393 0.0
C1409 C 0.98919 0.43722 0.55323 0.0
C1410 C 0.99085 0.42538 0.60634 0.0
C1411 C 0.97285 0.39824 0.5984 0.0
C1412 C 0.96447 0.39028 0.56744 0.0
H1413 H 0.81941 0.31882 0.67297 0.0
H1414 H 0.86132 0.34801 0.65009 0.0
C1415 C 0.97304 0.40951 0.54494 0.0
C1416 C 0.95849 0.38043 0.62232 0.0
H1417 H 0.93305 0.31106 0.63936 0.0
C1418 C 0.94343 0.39342 0.64334 0.0
C1419 C 0.95639 0.35059 0.62242 0.0
C1420 C 0.97445 0.33568 0.60286 0.0
C1421 C 0.92427 0.37713 0.66244 0.0
C1422 C 0.91926 0.34706 0.65962 0.0
C1423 C 0.93635 0.33415 0.6408 0.0
C1424 C 0.89425 0.32885 0.67346 0.0
C1425 C 0.90875 0.39229 0.68463 0.0
C1426 C 0.89885 0.30765 0.69319 0.0
C1427 C 0.87482 0.29061 0.70603 0.0
C1428 C 0.84592 0.2946 0.69923 0.0
C1429 C 0.84143 0.3155 0.67898 0.0
C1430 C 0.86536 0.3323 0.66602 0.0
H1431 H 0.92245 0.41377 0.69198 0.0
H1432 H 0.88761 0.39536 0.67327 0.0
H1433 H 0.90374 0.37983 0.70518 0.0
H1434 H 0.921 0.30453 0.69889 0.0
H1435 H 0.87896 0.27462 0.72155 0.0
H1436 H 0.44853 0.02665 0.40883 0.0
H1437 H 0.41939 0.05784 0.38438 0.0
H1438 H 0.41989 0.10316 0.47074 0.0
H1439 H 0.4485 0.07204 0.4954 0.0
H1440 H 0.36487 0.09123 0.4395 0.0
H1441 H 0.45105 0.14088 0.3642 0.0
H1442 H 0.44082 0.10257 0.3603 0.0
H1443 H 0.45883 0.11975 0.39566 0.0
C1444 C 0.44238 0.04319 0.42266 0.0
C1445 C 0.45109 0.04684 0.45411 0.0
C1446 C 0.42587 0.06116 0.40858 0.0
C1447 C 0.41786 0.08322 0.4256 0.0
C1448 C 0.42592 0.08643 0.45707 0.0
H1449 H 0.35779 0.2302 0.3534 0.0
H1450 H 0.38474 0.1987 0.38081 0.0
C1451 C 0.44236 0.06855 0.47114 0.0
C1452 C 0.40101 0.10298 0.41088 0.0
H1453 H 0.40414 0.15277 0.35666 0.0
C1454 C 0.37347 0.10469 0.42139 0.0
C1455 C 0.41241 0.12093 0.38759 0.0
C1456 C 0.44252 0.12123 0.37641 0.0
C1457 C 0.35688 0.12348 0.40898 0.0
C1458 C 0.36788 0.1408 0.38507 0.0
C1459 C 0.39561 0.1394 0.37486 0.0
C1460 C 0.3508 0.16021 0.37 0.0
C1461 C 0.32796 0.12496 0.42202 0.0
C1462 C 0.32273 0.14915 0.3549 0.0
C1463 C 0.30731 0.1671 0.33941 0.0
C1464 C 0.31969 0.1965 0.33849 0.0
C1465 C 0.3476 0.20768 0.35393 0.0
C1466 C 0.36306 0.18968 0.36945 0.0
H1467 H 0.32687 0.11684 0.44537 0.0
H1468 H 0.32469 0.14719 0.42288 0.0
H1469 H 0.30938 0.1115 0.40729 0.0
H1470 H 0.31303 0.12646 0.35442 0.0
H1471 H 0.28595 0.1578 0.3275 0.0
H1472 H 0.56355 0.5091 0.06492 0.0
H1473 H 0.61266 0.52292 0.09231 0.0
H1474 H 0.62464 0.60629 0.05477 0.0
H1475 H 0.57681 0.59156 0.02526 0.0
H1476 H 0.67717 0.58856 0.06174 0.0
H1477 H 0.61661 0.57275 0.16765 0.0
H1478 H 0.6151 0.54204 0.14273 0.0
H1479 H 0.59688 0.56968 0.13056 0.0
C1480 C 0.57722 0.52997 0.06169 0.0
C1481 C 0.56663 0.54928 0.04297 0.0
C1482 C 0.60507 0.53794 0.0776 0.0
C1483 C 0.62204 0.56576 0.07596 0.0
C1484 C 0.61193 0.58464 0.05625 0.0
H1485 H 0.69991 0.7135 0.14669 0.0
H1486 H 0.69022 0.6691 0.11532 0.0
C1487 C 0.58447 0.5764 0.03975 0.0
C1488 C 0.64799 0.57715 0.09764 0.0
H1489 H 0.66258 0.60352 0.17116 0.0
C1490 C 0.67444 0.59115 0.0859 0.0
C1491 C 0.64465 0.57995 0.12929 0.0
C1492 C 0.61681 0.56546 0.14344 0.0
C1493 C 0.6959 0.61084 0.10422 0.0
C1494 C 0.69052 0.61648 0.13474 0.0
C1495 C 0.66636 0.59934 0.14754 0.0
C1496 C 0.70425 0.6439 0.1512 0.0
C1497 C 0.72291 0.62707 0.09017 0.0
C1498 C 0.71538 0.64448 0.18172 0.0
C1499 C 0.72029 0.66972 0.19979 0.0
C1500 C 0.71414 0.69464 0.18753 0.0
C1501 C 0.70464 0.69447 0.15661 0.0
C1502 C 0.69968 0.66924 0.13856 0.0
H1503 H 0.7302 0.61331 0.07279 0.0
H1504 H 0.7173 0.64552 0.07843 0.0
H1505 H 0.74156 0.63517 0.1077 0.0
H1506 H 0.71853 0.62505 0.19199 0.0
H1507 H 0.72764 0.66939 0.22368 0.0
H1508 H 0.19473 0.20088 0.65727 0.0
H1509 H 0.17155 0.1537 0.63418 0.0
H1510 H 0.21421 0.11414 0.70585 0.0
H1511 H 0.23705 0.16145 0.72951 0.0
H1512 H 0.19259 0.10501 0.61457 0.0
H1513 H 0.12469 0.08553 0.71491 0.0
H1514 H 0.14647 0.12057 0.70872 0.0
H1515 H 0.16447 0.09289 0.72092 0.0
C1516 C 0.19957 0.18216 0.6678 0.0
C1517 C 0.21723 0.18467 0.69531 0.0
C1518 C 0.18648 0.15526 0.65456 0.0
C1519 C 0.19093 0.13055 0.66863 0.0
C1520 C 0.21028 0.13301 0.69496 0.0
H1521 H 0.06803 0.99863 0.55364 0.0
H1522 H 0.11123 0.01259 0.59068 0.0
C1523 C 0.22334 0.15999 0.70831 0.0
C1524 C 0.17233 0.10281 0.65716 0.0
H1525 H 0.1062 0.05906 0.66959 0.0
C1526 C 0.17416 0.09415 0.62678 0.0
C1527 C 0.14856 0.08879 0.67348 0.0
C1528 C 0.14567 0.09731 0.7063 0.0
C1529 C 0.15094 0.07421 0.61103 0.0
C1530 C 0.1257 0.06231 0.62654 0.0
C1531 C 0.12559 0.06842 0.65791 0.0
C1532 C 0.09723 0.04929 0.60941 0.0
C1533 C 0.15226 0.06849 0.57722 0.0
C1534 C 0.07423 0.06413 0.60923 0.0
C1535 C 0.04957 0.05597 0.58834 0.0
C1536 C 0.04788 0.03314 0.56719 0.0
C1537 C 0.06959 0.01687 0.56911 0.0
C1538 C 0.09408 0.02473 0.59031 0.0
H1539 H 0.17225 0.08187 0.56825 0.0
H1540 H 0.15274 0.04574 0.57271 0.0
H1541 H 0.13232 0.07271 0.56434 0.0
H1542 H 0.07624 0.08314 0.62392 0.0
H1543 H 0.03288 0.06865 0.58744 0.0
H1544 H 0.72273 0.34874 0.34839 0.0
H1545 H 0.69421 0.37588 0.37761 0.0
H1546 H 0.65028 0.29849 0.41724 0.0
H1547 H 0.67857 0.27113 0.38776 0.0
H1548 H 0.61179 0.32772 0.38776 0.0
H1549 H 0.69418 0.40108 0.46749 0.0
H1550 H 0.7041 0.40144 0.42873 0.0
H1551 H 0.70186 0.36943 0.44939 0.0
C1552 C 0.70758 0.33765 0.36397 0.0
C1553 C 0.70269 0.30786 0.36577 0.0
C1554 C 0.6914 0.35319 0.38074 0.0
C1555 C 0.67026 0.33919 0.39968 0.0
C1556 C 0.66658 0.30965 0.4028 0.0
H1557 H 0.56375 0.4257 0.5087 0.0
H1558 H 0.59555 0.39517 0.49115 0.0
C1559 C 0.68279 0.2941 0.38605 0.0
C1560 C 0.64962 0.35473 0.41314 0.0
H1561 H 0.64667 0.41262 0.45892 0.0
C1562 C 0.61934 0.3461 0.4036 0.0
C1563 C 0.65958 0.3786 0.43382 0.0
C1564 C 0.69167 0.38807 0.44571 0.0
C1565 C 0.5988 0.3612 0.41358 0.0
C1566 C 0.60894 0.38575 0.43328 0.0
C1567 C 0.63907 0.39392 0.44354 0.0
C1568 C 0.58862 0.40334 0.44345 0.0
C1569 C 0.56645 0.35078 0.403 0.0
C1570 C 0.57414 0.41798 0.42234 0.0
C1571 C 0.55586 0.43549 0.43224 0.0
C1572 C 0.55192 0.43874 0.46347 0.0
C1573 C 0.56624 0.42372 0.48447 0.0
C1574 C 0.5845 0.40628 0.47454 0.0
H1575 H 0.5614 0.3281 0.39434 0.0
H1576 H 0.55216 0.35293 0.4218 0.0
H1577 H 0.56067 0.36389 0.38417 0.0
H1578 H 0.57743 0.41627 0.39826 0.0
H1579 H 0.5453 0.44686 0.4155 0.0
H1580 H 0.44802 0.95816 0.07591 0.0
H1581 H 0.4241 0.91896 0.10568 0.0
H1582 H 0.46319 0.86036 0.05466 0.0
H1583 H 0.48694 0.89934 0.02434 0.0
H1584 H 0.40375 0.841 0.05822 0.0
H1585 H 0.4583 0.87646 0.17286 0.0
H1586 H 0.44414 0.90446 0.15533 0.0
H1587 H 0.47307 0.89112 0.1384 0.0
C1588 C 0.45173 0.93701 0.0711 0.0
C1589 C 0.46933 0.93188 0.04771 0.0
C1590 C 0.43829 0.91469 0.08836 0.0
C1591 C 0.44245 0.88696 0.08274 0.0
C1592 C 0.46004 0.88173 0.0595 0.0
H1593 H 0.34751 0.76766 0.20776 0.0
H1594 H 0.38798 0.78772 0.17653 0.0
C1595 C 0.47347 0.90403 0.04217 0.0
C1596 C 0.42626 0.86321 0.09954 0.0
H1597 H 0.40927 0.84514 0.17139 0.0
C1598 C 0.40542 0.84145 0.08297 0.0
C1599 C 0.42901 0.86344 0.13174 0.0
C1600 C 0.4526 0.88497 0.15058 0.0
C1601 C 0.38535 0.82143 0.09791 0.0
C1602 C 0.38597 0.82369 0.13007 0.0
C1603 C 0.40858 0.84375 0.14667 0.0
C1604 C 0.36115 0.80849 0.14657 0.0
C1605 C 0.3629 0.7988 0.07911 0.0
C1606 C 0.33281 0.81364 0.13998 0.0
C1607 C 0.30976 0.8024 0.15774 0.0
C1608 C 0.31471 0.78595 0.18258 0.0
C1609 C 0.34299 0.78024 0.18874 0.0
C1610 C 0.36611 0.7916 0.17093 0.0
H1611 H 0.37169 0.79332 0.05737 0.0
H1612 H 0.35642 0.77906 0.09179 0.0
H1613 H 0.34275 0.80709 0.0733 0.0
H1614 H 0.32875 0.82727 0.12175 0.0
H1615 H 0.28826 0.80719 0.15235 0.0
H1616 H 0.95461 0.53095 0.90646 0.0
H1617 H 0.92553 0.56253 0.88288 0.0
H1618 H 0.91872 0.60077 0.97144 0.0
H1619 H 0.94718 0.56905 0.99524 0.0
H1620 H 0.86593 0.58929 0.93767 0.0
H1621 H 0.95407 0.64692 0.86918 0.0
H1622 H 0.94566 0.60888 0.86201 0.0
H1623 H 0.9614 0.62394 0.89905 0.0
C1624 C 0.94694 0.54606 0.92095 0.0
C1625 C 0.95339 0.54743 0.95279 0.0
C1626 C 0.93047 0.56427 0.90739 0.0
C1627 C 0.92035 0.58442 0.92531 0.0
C1628 C 0.92638 0.58552 0.9571 0.0
H1629 H 0.85518 0.72945 0.85476 0.0
H1630 H 0.88306 0.69899 0.88259 0.0
C1631 C 0.94271 0.5673 0.97067 0.0
C1632 C 0.90313 0.60414 0.91117 0.0
H1633 H 0.90595 0.6559 0.85923 0.0
C1634 C 0.87473 0.60392 0.92058 0.0
C1635 C 0.91476 0.6236 0.88925 0.0
C1636 C 0.94575 0.62614 0.87946 0.0
C1637 C 0.85747 0.62218 0.90831 0.0
C1638 C 0.86865 0.64086 0.88553 0.0
C1639 C 0.89727 0.64147 0.87653 0.0
C1640 C 0.85088 0.65958 0.87033 0.0
C1641 C 0.82761 0.62158 0.92025 0.0
C1642 C 0.82348 0.64764 0.85427 0.0
C1643 C 0.80748 0.66501 0.8386 0.0
C1644 C 0.81868 0.69466 0.83838 0.0
C1645 C 0.84592 0.7067 0.85472 0.0
C1646 C 0.86191 0.68929 0.87049 0.0
H1647 H 0.82626 0.61298 0.94338 0.0
H1648 H 0.82283 0.64326 0.92126 0.0
H1649 H 0.81013 0.60748 0.90479 0.0
H1650 H 0.81478 0.62476 0.85316 0.0
H1651 H 0.78668 0.65507 0.82596 0.0
H1652 H 0.41976 0.49201 0.0674 0.0
H1653 H 0.38856 0.46775 0.10578 0.0
H1654 H 0.44388 0.40651 0.11438 0.0
H1655 H 0.47537 0.43079 0.07714 0.0
H1656 H 0.35548 0.41474 0.10576 0.0
H1657 H 0.44056 0.42855 0.20225 0.0
H1658 H 0.44655 0.44805 0.16803 0.0
H1659 H 0.45291 0.41237 0.16976 0.0
C1660 C 0.42544 0.47355 0.07773 0.0
C1661 C 0.4503 0.46359 0.06934 0.0
C1662 C 0.40757 0.4597 0.09965 0.0
C1663 C 0.41425 0.43567 0.11356 0.0
C1664 C 0.43878 0.42554 0.10482 0.0
H1665 H 0.30518 0.29039 0.18467 0.0
H1666 H 0.32953 0.32888 0.15421 0.0
C1667 C 0.45671 0.43942 0.08325 0.0
C1668 C 0.39504 0.42007 0.13609 0.0
H1669 H 0.39846 0.38885 0.20446 0.0
C1670 C 0.36476 0.40949 0.12759 0.0
C1671 C 0.40683 0.41378 0.16498 0.0
C1672 C 0.43843 0.42659 0.17691 0.0
C1673 C 0.34647 0.39132 0.14629 0.0
C1674 C 0.35901 0.38276 0.17379 0.0
C1675 C 0.38883 0.39486 0.18316 0.0
C1676 C 0.34235 0.36005 0.19222 0.0
C1677 C 0.31393 0.38143 0.13622 0.0
C1678 C 0.34206 0.36428 0.224 0.0
C1679 C 0.32869 0.34198 0.24161 0.0
C1680 C 0.31524 0.31509 0.22773 0.0
C1681 C 0.31511 0.31099 0.19595 0.0
C1682 C 0.3288 0.33312 0.17844 0.0
H1683 H 0.30598 0.3976 0.12237 0.0
H1684 H 0.31048 0.36149 0.12165 0.0
H1685 H 0.30022 0.37718 0.15599 0.0
H1686 H 0.35253 0.38476 0.23524 0.0
H1687 H 0.32908 0.34569 0.26608 0.0
H1688 H 0.42255 0.59365 0.99144 0.0
H1689 H 0.39266 0.62231 0.96324 0.0
H1690 H 0.39281 0.5704 0.88133 0.0
H1691 H 0.42201 0.54167 0.90929 0.0
H1692 H 0.40856 0.65422 0.91338 0.0
H1693 H 0.30591 0.57222 0.8819 0.0
H1694 H 0.33342 0.56725 0.91111 0.0
H1695 H 0.33846 0.56095 0.87144 0.0
C1696 C 0.41572 0.58814 0.96756 0.0
C1697 C 0.42448 0.56541 0.95257 0.0
C1698 C 0.39876 0.60453 0.95146 0.0
C1699 C 0.39011 0.59824 0.92026 0.0
C1700 C 0.39857 0.57527 0.9055 0.0
H1701 H 0.31531 0.67243 0.7666 0.0
H1702 H 0.33827 0.64397 0.80216 0.0
C1703 C 0.41545 0.55897 0.9215 0.0
C1704 C 0.37396 0.61663 0.90239 0.0
H1705 H 0.31316 0.61438 0.853 0.0
C1706 C 0.38748 0.64563 0.90053 0.0
C1707 C 0.3465 0.60538 0.88555 0.0
C1708 C 0.33008 0.5748 0.88781 0.0
C1709 C 0.37488 0.66338 0.88134 0.0
C1710 C 0.34786 0.65189 0.86385 0.0
C1711 C 0.33399 0.62308 0.86626 0.0
C1712 C 0.33388 0.66929 0.84248 0.0
C1713 C 0.39112 0.69401 0.87907 0.0
C1714 C 0.32352 0.69279 0.85339 0.0
C1715 C 0.31036 0.70911 0.83316 0.0
C1716 C 0.30722 0.7022 0.80155 0.0
C1717 C 0.31744 0.67846 0.79074 0.0
C1718 C 0.33053 0.66212 0.81103 0.0
H1719 H 0.41451 0.69778 0.88873 0.0
H1720 H 0.39089 0.70015 0.85494 0.0
H1721 H 0.37986 0.70822 0.89198 0.0
H1722 H 0.32544 0.69842 0.87762 0.0
H1723 H 0.30265 0.72714 0.84236 0.0
H1724 H 0.08185 0.49054 0.57062 0.0
H1725 H 0.10719 0.51665 0.61712 0.0
H1726 H 0.07625 0.59146 0.59039 0.0
H1727 H 0.05037 0.56522 0.54423 0.0
H1728 H 0.15173 0.56226 0.61677 0.0
H1729 H 0.06304 0.59158 0.68012 0.0
H1730 H 0.05547 0.56418 0.64967 0.0
H1731 H 0.06027 0.60129 0.64118 0.0
C1732 C 0.08009 0.51243 0.57499 0.0
C1733 C 0.06443 0.52605 0.55389 0.0
C1734 C 0.09444 0.52724 0.60156 0.0
C1735 C 0.0933 0.55586 0.60738 0.0
C1736 C 0.0768 0.56917 0.58674 0.0
H1737 H 0.21784 0.69939 0.67756 0.0
H1738 H 0.18742 0.65695 0.65014 0.0
C1739 C 0.06226 0.55429 0.56027 0.0
C1740 C 0.11232 0.5729 0.63277 0.0
H1741 H 0.11222 0.62225 0.69028 0.0
C1742 C 0.14302 0.5749 0.63329 0.0
C1743 C 0.10094 0.58899 0.65462 0.0
C1744 C 0.06808 0.58616 0.65659 0.0
C1745 C 0.16278 0.59414 0.65366 0.0
C1746 C 0.15151 0.61212 0.67355 0.0
C1747 C 0.12077 0.60865 0.67465 0.0
C1748 C 0.17121 0.63667 0.69078 0.0
C1749 C 0.1956 0.59571 0.65301 0.0
C1750 C 0.17178 0.63945 0.72268 0.0
C1751 C 0.18922 0.66376 0.73844 0.0
C1752 C 0.20597 0.68563 0.72238 0.0
C1753 C 0.20543 0.68268 0.6905 0.0
C1754 C 0.18815 0.65842 0.67483 0.0
H1755 H 0.19996 0.5751 0.64445 0.0
H1756 H 0.20508 0.61239 0.63738 0.0
H1757 H 0.20728 0.60134 0.67603 0.0
H1758 H 0.15861 0.62293 0.73528 0.0
H1759 H 0.18925 0.66565 0.76305 0.0
H1760 H 0.33028 0.2568 0.66707 0.0
H1761 H 0.35978 0.28576 0.63074 0.0
H1762 H 0.31418 0.3535 0.6466 0.0
H1763 H 0.28427 0.32465 0.68263 0.0
H1764 H 0.32149 0.3433 0.58505 0.0
H1765 H 0.42744 0.35472 0.6565 0.0
H1766 H 0.40777 0.31849 0.6475 0.0
H1767 H 0.39177 0.34154 0.67098 0.0
C1768 C 0.32636 0.2778 0.66274 0.0
C1769 C 0.30503 0.28847 0.678 0.0
C1770 C 0.34339 0.29437 0.64208 0.0
C1771 C 0.33955 0.32197 0.63643 0.0
C1772 C 0.31761 0.33231 0.65078 0.0
H1773 H 0.45623 0.4639 0.56202 0.0
H1774 H 0.4265 0.42969 0.59385 0.0
C1775 C 0.30053 0.31575 0.6714 0.0
C1776 C 0.35866 0.34035 0.61595 0.0
H1777 H 0.43037 0.37421 0.60783 0.0
C1778 C 0.34531 0.35 0.58994 0.0
C1779 C 0.38968 0.34933 0.62265 0.0
C1780 C 0.40507 0.34074 0.65105 0.0
C1781 C 0.36215 0.36839 0.57038 0.0
C1782 C 0.39323 0.37697 0.5768 0.0
C1783 C 0.40658 0.36735 0.60283 0.0
C1784 C 0.41211 0.39701 0.55756 0.0
C1785 C 0.34644 0.37913 0.54351 0.0
C1786 C 0.41436 0.38973 0.52677 0.0
C1787 C 0.43137 0.40924 0.50854 0.0
C1788 C 0.44649 0.43626 0.5209 0.0
C1789 C 0.44483 0.4432 0.55191 0.0
C1790 C 0.42785 0.42371 0.5701 0.0
H1791 H 0.32223 0.37591 0.54581 0.0
H1792 H 0.3557 0.40221 0.5409 0.0
H1793 H 0.3496 0.36728 0.52235 0.0
H1794 H 0.40285 0.36902 0.51681 0.0
H1795 H 0.43244 0.4033 0.48474 0.0
H1796 H 0.20696 0.7477 0.15992 0.0
H1797 H 0.16768 0.73357 0.11855 0.0
H1798 H 0.13189 0.65729 0.16487 0.0
H1799 H 0.17053 0.67164 0.20643 0.0
H1800 H 0.16269 0.68608 0.08319 0.0
H1801 H 0.05679 0.68034 0.13452 0.0
H1802 H 0.0916 0.70059 0.15263 0.0
H1803 H 0.07991 0.6628 0.15784 0.0
C1804 C 0.19019 0.72832 0.16158 0.0
C1805 C 0.19168 0.71066 0.18622 0.0
C1806 C 0.1678 0.72032 0.138 0.0
C1807 C 0.14653 0.69469 0.13892 0.0
C1808 C 0.14751 0.67759 0.16411 0.0
H1809 H 0.06161 0.54838 0.0556 0.0
H1810 H 0.08116 0.59313 0.08518 0.0
C1811 C 0.16984 0.68556 0.18763 0.0
C1812 C 0.12635 0.68315 0.11178 0.0
H1813 H 0.05634 0.64407 0.09314 0.0
C1814 C 0.13916 0.67779 0.08482 0.0
C1815 C 0.09563 0.67271 0.11384 0.0
C1816 C 0.08019 0.67973 0.14122 0.0
C1817 C 0.12286 0.65924 0.06141 0.0
C1818 C 0.09303 0.64609 0.06516 0.0
C1819 C 0.07935 0.65402 0.09054 0.0
C1820 C 0.07816 0.61995 0.047 0.0
C1821 C 0.13841 0.65155 0.03435 0.0
C1822 C 0.06983 0.62033 0.01576 0.0
C1823 C 0.05856 0.59463 -0.00126 0.0
C1824 C 0.05548 0.56846 0.01292 0.0
C1825 C 0.06342 0.56829 0.04423 0.0
C1826 C 0.07453 0.59381 0.06114 0.0
H1827 H 0.16214 0.66277 0.03569 0.0
H1828 H 0.13703 0.62816 0.0328 0.0
H1829 H 0.12731 0.65729 0.01304 0.0
H1830 H 0.07245 0.64038 0.00455 0.0
H1831 H 0.05242 0.5952 0.97459 0.0
H1832 H 0.71973 0.33056 0.66204 0.0
H1833 H 0.68872 0.36336 0.64535 0.0
H1834 H 0.65738 0.36566 0.73537 0.0
H1835 H 0.68916 0.33383 0.75239 0.0
H1836 H 0.63014 0.35449 0.64271 0.0
H1837 H 0.67779 0.44933 0.72002 0.0
H1838 H 0.69588 0.41992 0.71561 0.0
H1839 H 0.66594 0.41741 0.74006 0.0
C1840 C 0.70648 0.3384 0.6783 0.0
C1841 C 0.70685 0.32987 0.70847 0.0
C1842 C 0.68879 0.35707 0.66879 0.0
C1843 C 0.67109 0.3673 0.68926 0.0
C1844 C 0.67145 0.3587 0.71943 0.0
H1845 H 0.52195 0.43516 0.61618 0.0
H1846 H 0.55113 0.40817 0.6473 0.0
C1847 C 0.68943 0.34034 0.72904 0.0
C1848 C 0.65093 0.38556 0.67847 0.0
H1849 H 0.63239 0.44971 0.69138 0.0
C1850 C 0.63066 0.37533 0.65332 0.0
C1851 C 0.65181 0.41281 0.69228 0.0
C1852 C 0.67422 0.42566 0.71829 0.0
C1853 C 0.6114 0.39168 0.64133 0.0
C1854 C 0.6117 0.41861 0.65561 0.0
C1855 C 0.63186 0.42882 0.68088 0.0
C1856 C 0.59314 0.43748 0.64276 0.0
C1857 C 0.59179 0.38037 0.61274 0.0
C1858 C 0.60682 0.46392 0.63202 0.0
C1859 C 0.59016 0.4796 0.61485 0.0
C1860 C 0.55963 0.46892 0.60803 0.0
C1861 C 0.54553 0.44368 0.62094 0.0
C1862 C 0.56218 0.42817 0.63847 0.0
H1863 H 0.59948 0.36295 0.60069 0.0
H1864 H 0.5689 0.3716 0.61895 0.0
H1865 H 0.59109 0.39763 0.59669 0.0
H1866 H 0.63066 0.47159 0.6353 0.0
H1867 H 0.60153 0.49909 0.60525 0.0
H1868 H 0.80188 0.65916 0.18147 0.0
H1869 H 0.83603 0.63151 0.16271 0.0
H1870 H 0.89682 0.66073 0.2418 0.0
H1871 H 0.86249 0.68843 0.26088 0.0
H1872 H 0.89564 0.65544 0.14995 0.0
H1873 H 0.8885 0.57247 0.23631 0.0
H1874 H 0.8607 0.59334 0.23065 0.0
H1875 H 0.89591 0.60914 0.25044 0.0
C1876 C 0.82238 0.65948 0.19503 0.0
C1877 C 0.8296 0.6759 0.22261 0.0
C1878 C 0.84187 0.64372 0.18427 0.0
C1879 C 0.86884 0.64397 0.20096 0.0
C1880 C 0.87593 0.65998 0.22881 0.0
H1881 H 1.00564 0.58 0.10833 0.0
H1882 H 0.98306 0.60932 0.14231 0.0
C1883 C 0.85638 0.67582 0.23961 0.0
C1884 C 0.88991 0.62845 0.18816 0.0
H1885 H 0.92015 0.57016 0.19704 0.0
C1886 C 0.9013 0.63697 0.16037 0.0
C1887 C 0.89708 0.60436 0.20185 0.0
C1888 C 0.88484 0.59403 0.23137 0.0
C1889 C 0.91901 0.62154 0.14538 0.0
C1890 C 0.92585 0.59715 0.15881 0.0
C1891 C 0.91507 0.58903 0.187 0.0
C1892 C 0.94147 0.57825 0.14226 0.0
C1893 C 0.92908 0.63067 0.1146 0.0
C1894 C 0.92605 0.55067 0.13216 0.0
C1895 C 0.93889 0.53391 0.11296 0.0
C1896 C 0.96743 0.54445 0.10364 0.0
C1897 C 0.98355 0.57143 0.11514 0.0
C1898 C 0.97066 0.58822 0.13439 0.0
H1899 H 0.91744 0.64674 0.10504 0.0
H1900 H 0.95321 0.64032 0.11692 0.0
H1901 H 0.92525 0.61198 0.09809 0.0
H1902 H 0.90352 0.54259 0.13801 0.0
H1903 H 0.92602 0.51316 0.10448 0.0
H1904 H 0.97751 0.59991 0.57807 0.0
H1905 H 0.94757 0.62697 0.60608 0.0
H1906 H 0.86855 0.5638 0.57589 0.0
H1907 H 0.89835 0.53649 0.54871 0.0
H1908 H 0.9031 0.65218 0.58714 0.0
H1909 H 0.85958 0.56835 0.6659 0.0
H1910 H 0.88949 0.56596 0.64251 0.0
H1911 H 0.8516 0.55616 0.62661 0.0
C1912 C 0.95378 0.5917 0.57769 0.0
C1913 C 0.94036 0.56589 0.56141 0.0
C1914 C 0.93664 0.60723 0.59361 0.0
C1915 C 0.90572 0.59728 0.59366 0.0
C1916 C 0.89235 0.57167 0.57702 0.0
H1917 H 0.78165 0.70286 0.64703 0.0
H1918 H 0.8104 0.67543 0.61805 0.0
C1919 C 0.90945 0.5561 0.5613 0.0
C1920 C 0.88735 0.6138 0.61057 0.0
H1921 H 0.83644 0.60795 0.66412 0.0
C1922 C 0.88861 0.64251 0.60405 0.0
C1923 C 0.86859 0.60145 0.63297 0.0
C1924 C 0.86741 0.57139 0.64267 0.0
C1925 C 0.87153 0.65898 0.61895 0.0
C1926 C 0.852 0.64632 0.64059 0.0
C1927 C 0.85101 0.6177 0.6473 0.0
C1928 C 0.83363 0.66263 0.6578 0.0
C1929 C 0.87522 0.69004 0.6119 0.0
C1930 C 0.83607 0.66387 0.68985 0.0
C1931 C 0.81934 0.67913 0.70644 0.0
C1932 C 0.79958 0.69372 0.69152 0.0
C1933 C 0.7967 0.69208 0.65937 0.0
C1934 C 0.8134 0.67658 0.64273 0.0
H1935 H 0.89643 0.69831 0.60157 0.0
H1936 H 0.85686 0.69241 0.59532 0.0
H1937 H 0.87457 0.70343 0.6328 0.0
H1938 H 0.85132 0.65328 0.70217 0.0
H1939 H 0.82231 0.67976 0.73111 0.0
H1940 H 0.49005 0.57318 0.39468 0.0
H1941 H 0.46176 0.60146 0.36448 0.0
H1942 H 0.3879 0.5288 0.35175 0.0
H1943 H 0.41599 0.50044 0.38234 0.0
H1944 H 0.43089 0.59541 0.30516 0.0
H1945 H 0.35618 0.59021 0.39946 0.0
H1946 H 0.3912 0.57957 0.40356 0.0
H1947 H 0.35954 0.55624 0.38347 0.0
C1948 C 0.46803 0.56304 0.38486 0.0
C1949 C 0.455 0.53476 0.3911 0.0
C1950 C 0.45192 0.57922 0.36763 0.0
C1951 C 0.42258 0.56735 0.35647 0.0
C1952 C 0.41037 0.53843 0.36065 0.0
H1953 H 0.30734 0.65096 0.24468 0.0
H1954 H 0.33847 0.61915 0.26368 0.0
C1955 C 0.42647 0.52223 0.37793 0.0
C1956 C 0.40404 0.58599 0.3431 0.0
H1957 H 0.34471 0.6148 0.35636 0.0
C1958 C 0.41195 0.59958 0.31619 0.0
C1959 C 0.37974 0.59178 0.358 0.0
C1960 C 0.37121 0.57893 0.38786 0.0
C1961 C 0.39597 0.61871 0.3036 0.0
C1962 C 0.37131 0.62403 0.3182 0.0
C1963 C 0.36354 0.61053 0.34517 0.0
C1964 C 0.35336 0.64378 0.30615 0.0
C1965 C 0.40602 0.63359 0.27525 0.0
C1966 C 0.35102 0.66787 0.324 0.0
C1967 C 0.33309 0.68594 0.3133 0.0
C1968 C 0.31714 0.68008 0.28466 0.0
C1969 C 0.31954 0.65601 0.2668 0.0
C1970 C 0.33744 0.63794 0.27752 0.0
H1971 H 0.42923 0.6327 0.27135 0.0
H1972 H 0.39155 0.62291 0.25516 0.0
H1973 H 0.40435 0.65631 0.27672 0.0
H1974 H 0.36302 0.67262 0.34625 0.0
H1975 H 0.33158 0.70437 0.32749 0.0
H1976 H 0.15296 0.30586 0.73476 0.0
H1977 H 0.1196 0.33459 0.75397 0.0
H1978 H 0.17787 0.35776 0.83593 0.0
H1979 H 0.21103 0.32908 0.81703 0.0
H1980 H 0.11716 0.33644 0.84578 0.0
H1981 H 0.13267 0.42311 0.76347 0.0
H1982 H 0.12365 0.38696 0.74759 0.0
H1983 H 0.15859 0.40024 0.76904 0.0
C1984 C 0.15872 0.31734 0.75672 0.0
C1985 C 0.18453 0.31529 0.77444 0.0
C1986 C 0.13974 0.33378 0.76761 0.0
C1987 C 0.14639 0.34843 0.79627 0.0
C1988 C 0.17236 0.34663 0.81374 0.0
H1989 H 0.09215 0.48035 0.89467 0.0
H1990 H 0.11458 0.45065 0.86138 0.0
C1991 C 0.1913 0.33029 0.8029 0.0
C1992 C 0.12592 0.36474 0.80897 0.0
H1993 H 0.09955 0.42545 0.80132 0.0
C1994 C 0.11302 0.35574 0.83592 0.0
C1995 C 0.12075 0.38996 0.79606 0.0
C1996 C 0.13474 0.40089 0.76755 0.0
C1997 C 0.09569 0.37168 0.85081 0.0
C1998 C 0.09077 0.3971 0.83813 0.0
C1999 C 0.10313 0.40579 0.81078 0.0
C2000 C 0.07547 0.41632 0.85467 0.0
C2001 C 0.08395 0.36187 0.88075 0.0
C2002 C 0.0457 0.40726 0.86109 0.0
C2003 C 0.03283 0.42421 0.88019 0.0
C2004 C 0.04956 0.45047 0.893 0.0
C2005 C 0.07879 0.46016 0.88516 0.0
C2006 C 0.0916 0.44325 0.8661 0.0
H2007 H 0.09431 0.34484 0.89011 0.0
H2008 H 0.08792 0.38003 0.89794 0.0
H2009 H 0.05967 0.3532 0.87725 0.0
H2010 H 0.03275 0.3867 0.85213 0.0
H2011 H 0.01022 0.41628 0.88587 0.0
H2012 H 0.22103 0.28279 0.34517 0.0
H2013 H 0.18999 0.30977 0.37151 0.0
H2014 H 0.18089 0.35684 0.29093 0.0
H2015 H 0.21106 0.32967 0.26439 0.0
H2016 H 0.19449 0.36533 0.38664 0.0
H2017 H 0.09534 0.32898 0.30611 0.0
H2018 H 0.12718 0.31312 0.30569 0.0
H2019 H 0.12701 0.34595 0.28708 0.0
C2020 C 0.21253 0.29898 0.3331 0.0
C2021 C 0.21841 0.30378 0.30249 0.0
C2022 C 0.19468 0.31438 0.34818 0.0
C2023 C 0.1823 0.33493 0.33304 0.0
C2024 C 0.18922 0.34052 0.30292 0.0
H2025 H 0.11145 0.47008 0.41806 0.0
H2026 H 0.14153 0.44111 0.39362 0.0
C2027 C 0.20679 0.32504 0.2878 0.0
C2028 C 0.16237 0.3507 0.3486 0.0
H2029 H 0.09472 0.36855 0.34028 0.0
C2030 C 0.17261 0.36586 0.37655 0.0
C2031 C 0.13347 0.35109 0.33593 0.0
C2032 C 0.11995 0.33366 0.30723 0.0
C2033 C 0.15528 0.38195 0.3916 0.0
C2034 C 0.12705 0.38363 0.37806 0.0
C2035 C 0.11646 0.36776 0.35057 0.0
C2036 C 0.10819 0.40161 0.392 0.0
C2037 C 0.16729 0.39656 0.4222 0.0
C2038 C 0.07874 0.38961 0.39805 0.0
C2039 C 0.06125 0.40635 0.41159 0.0
C2040 C 0.07279 0.4355 0.41935 0.0
C2041 C 0.10193 0.44765 0.41256 0.0
C2042 C 0.11931 0.43099 0.39885 0.0
H2043 H 0.18393 0.38605 0.43361 0.0
H2044 H 0.17844 0.41903 0.41887 0.0
H2045 H 0.14928 0.39657 0.43759 0.0
H2046 H 0.06942 0.36711 0.39281 0.0
H2047 H 0.0389 0.39634 0.41654 0.0
loop_
_geom_bond_atom_site_label_1
_geom_bond_atom_site_label_2
_geom_bond_distance
_geom_bond_site_symmetry_2
_ccdc_geom_bond_type
Dy0 O4 2.398 1_655 S
Dy0 O5 2.491 1_655 S
Dy0 O6 2.403 . S
Dy0 O7 2.664 1_556 S
Dy0 O11 2.326 1_656 S
Dy0 O15 2.310 1_665 S
Dy0 O16 2.356 . S
C1 O12 1.185 . S
C1 O13 1.355 . S
C2 O4 1.185 . S
C2 O5 1.355 . S
Dy3 O7 2.310 1_445 S
Dy3 O10 2.364 . S
Dy3 O12 2.398 1_455 S
Dy3 O13 2.491 1_455 S
Dy3 O14 2.403 . S
Dy3 O15 2.664 1_554 S
Dy3 O17 2.326 1_454 S
O4 Dy0 2.398 1_455 S
O4 C2 1.185 . S
O5 Dy0 2.491 1_455 S
O5 C2 1.355 . S
O6 Dy0 2.403 . S
O6 C8 1.254 1_556 S
O7 Dy0 2.664 1_554 S
O7 Dy3 2.310 1_665 S
O7 C8 1.268 . S
C8 O6 1.254 1_554 S
C8 O7 1.268 . S
C9 O14 1.254 1_556 S
C9 O15 1.268 . S
O10 Dy3 2.364 . S
O10 C18 1.235 1_545 S
O11 Dy0 2.326 1_454 S
O11 C18 1.267 . S
O12 C1 1.185 . S
O12 Dy3 2.398 1_655 S
O13 C1 1.355 . S
O13 Dy3 2.491 1_655 S
O14 Dy3 2.403 . S
O14 C9 1.254 1_554 S
O15 Dy0 2.310 1_445 S
O15 Dy3 2.664 1_556 S
O15 C9 1.268 . S
O16 Dy0 2.356 . S
O16 C19 1.243 1_565 S
O17 Dy3 2.326 1_656 S
O17 C19 1.267 . S
C18 O10 1.235 1_565 S
C18 O11 1.267 . S
C19 O16 1.243 1_545 S
C19 O17 1.267 . S
Dy20 O24 2.398 . S
Dy20 O25 2.491 . S
Dy20 O26 2.403 . S
Dy20 O27 2.664 . S
Dy20 O31 2.326 . S
Dy20 O35 2.310 . S
Dy20 O36 2.351 . S
C21 O32 1.185 . S
C21 O33 1.355 . S
C22 O24 1.185 . S
C22 O25 1.355 . S
Dy23 O27 2.310 . S
Dy23 O30 2.351 . S
Dy23 O32 2.398 . S
Dy23 O33 2.491 . S
Dy23 O34 2.403 . S
Dy23 O35 2.664 . S
Dy23 O37 2.326 . S
O24 Dy20 2.398 . S
O24 C22 1.185 . S
O25 Dy20 2.491 . S
O25 C22 1.355 . S
O26 Dy20 2.403 . S
O26 C28 1.254 . S
O27 Dy20 2.664 . S
O27 Dy23 2.310 . S
O27 C28 1.268 . S
C28 O26 1.254 . S
C28 O27 1.268 . S
C29 O34 1.254 . S
C29 O35 1.268 . S
O30 Dy23 2.351 . S
O30 C38 1.249 . S
O31 Dy20 2.326 . S
O31 C38 1.267 . S
O32 C21 1.185 . S
O32 Dy23 2.398 . S
O33 C21 1.355 . S
O33 Dy23 2.491 . S
O34 Dy23 2.403 . S
O34 C29 1.254 . S
O35 Dy20 2.310 . S
O35 Dy23 2.664 . S
O35 C29 1.268 . S
O36 Dy20 2.351 . S
O36 C39 1.249 . S
O37 Dy23 2.326 . S
O37 C39 1.267 . S
C38 O30 1.249 . S
C38 O31 1.267 . S
C39 O36 1.249 . S
C39 O37 1.267 . S
Dy40 O44 2.398 1_565 S
Dy40 O45 2.491 1_565 S
Dy40 O46 2.403 . S
Dy40 O47 2.664 . S
Dy40 O51 2.326 1_565 S
Dy40 O55 2.310 1_565 S
Dy40 O56 2.351 . S
C41 O52 1.185 . S
C41 O53 1.355 . S
C42 O44 1.185 . S
C42 O45 1.355 . S
Dy43 O47 2.310 1_545 S
Dy43 O50 2.351 . S
Dy43 O52 2.398 1_545 S
Dy43 O53 2.491 1_545 S
Dy43 O54 2.403 . S
Dy43 O55 2.664 . S
Dy43 O57 2.326 1_545 S
O44 Dy40 2.398 1_545 S
O44 C42 1.185 . S
O45 Dy40 2.491 1_545 S
O45 C42 1.355 . S
O46 Dy40 2.403 . S
O46 C48 1.254 . S
O47 Dy40 2.664 . S
O47 Dy43 2.310 1_565 S
O47 C48 1.268 . S
C48 O46 1.254 . S
C48 O47 1.268 . S
C49 O54 1.254 . S
C49 O55 1.268 . S
O50 Dy43 2.351 . S
O50 C58 1.249 . S
O51 Dy40 2.326 1_545 S
O51 C58 1.267 . S
O52 C41 1.185 . S
O52 Dy43 2.398 1_565 S
O53 C41 1.355 . S
O53 Dy43 2.491 1_565 S
O54 Dy43 2.403 . S
O54 C49 1.254 . S
O55 Dy40 2.310 1_545 S
O55 Dy43 2.664 . S
O55 C49 1.268 . S
O56 Dy40 2.351 . S
O56 C59 1.249 . S
O57 Dy43 2.326 1_565 S
O57 C59 1.267 . S
C58 O50 1.249 . S
C58 O51 1.267 . S
C59 O56 1.249 . S
C59 O57 1.267 . S
Dy60 O64 2.398 . S
Dy60 O65 2.491 . S
Dy60 O66 2.403 . S
Dy60 O67 2.664 . S
Dy60 O71 2.326 . S
Dy60 O75 2.310 . S
Dy60 O76 2.351 . S
C61 O72 1.185 . S
C61 O73 1.355 . S
C62 O64 1.185 . S
C62 O65 1.355 . S
Dy63 O67 2.310 . S
Dy63 O70 2.351 . S
Dy63 O72 2.398 . S
Dy63 O73 2.491 . S
Dy63 O74 2.403 . S
Dy63 O75 2.664 . S
Dy63 O77 2.326 . S
O64 Dy60 2.398 . S
O64 C62 1.185 . S
O65 Dy60 2.491 . S
O65 C62 1.355 . S
O66 Dy60 2.403 . S
O66 C68 1.254 . S
O67 Dy60 2.664 . S
O67 Dy63 2.310 . S
O67 C68 1.268 . S
C68 O66 1.254 . S
C68 O67 1.268 . S
C69 O74 1.254 . S
C69 O75 1.268 . S
O70 Dy63 2.351 . S
O70 C78 1.249 . S
O71 Dy60 2.326 . S
O71 C78 1.267 . S
O72 C61 1.185 . S
O72 Dy63 2.398 . S
O73 C61 1.355 . S
O73 Dy63 2.491 . S
O74 Dy63 2.403 . S
O74 C69 1.254 . S
O75 Dy60 2.310 . S
O75 Dy63 2.664 . S
O75 C69 1.268 . S
O76 Dy60 2.351 . S
O76 C79 1.249 . S
O77 Dy63 2.326 . S
O77 C79 1.267 . S
C78 O70 1.249 . S
C78 O71 1.267 . S
C79 O76 1.249 . S
C79 O77 1.267 . S
Dy80 O84 2.398 . S
Dy80 O85 2.491 . S
Dy80 O86 2.403 1_455 S
Dy80 O87 2.664 1_455 S
Dy80 O91 2.326 1_455 S
Dy80 O95 2.310 1_565 S
Dy80 O96 2.351 1_565 S
C81 O92 1.185 . S
C81 O93 1.355 . S
C82 O84 1.185 . S
C82 O85 1.355 . S
Dy83 O87 2.310 1_545 S
Dy83 O90 2.351 1_545 S
Dy83 O92 2.398 . S
Dy83 O93 2.491 . S
Dy83 O94 2.403 1_655 S
Dy83 O95 2.664 1_655 S
Dy83 O97 2.326 1_655 S
O84 Dy80 2.398 . S
O84 C82 1.185 . S
O85 Dy80 2.491 . S
O85 C82 1.355 . S
O86 Dy80 2.403 1_655 S
O86 C88 1.254 . S
O87 Dy80 2.664 1_655 S
O87 Dy83 2.310 1_565 S
O87 C88 1.268 . S
C88 O86 1.254 . S
C88 O87 1.268 . S
C89 O94 1.254 . S
C89 O95 1.268 . S
O90 Dy83 2.351 1_565 S
O90 C98 1.249 . S
O91 Dy80 2.326 1_655 S
O91 C98 1.267 . S
O92 C81 1.185 . S
O92 Dy83 2.398 . S
O93 C81 1.355 . S
O93 Dy83 2.491 . S
O94 Dy83 2.403 1_455 S
O94 C89 1.254 . S
O95 Dy80 2.310 1_545 S
O95 Dy83 2.664 1_455 S
O95 C89 1.268 . S
O96 Dy80 2.351 1_545 S
O96 C99 1.249 . S
O97 Dy83 2.326 1_455 S
O97 C99 1.267 . S
C98 O90 1.249 . S
C98 O91 1.267 . S
C99 O96 1.249 . S
C99 O97 1.267 . S
Dy100 O104 2.398 . S
Dy100 O105 2.491 . S
Dy100 O106 2.403 . S
Dy100 O107 2.664 . S
Dy100 O111 2.326 . S
Dy100 O115 2.310 . S
Dy100 O116 2.351 . S
C101 O112 1.185 . S
C101 O113 1.355 . S
C102 O104 1.185 . S
C102 O105 1.355 . S
Dy103 O107 2.310 . S
Dy103 O110 2.351 . S
Dy103 O112 2.398 . S
Dy103 O113 2.491 . S
Dy103 O114 2.403 . S
Dy103 O115 2.664 . S
Dy103 O117 2.326 . S
O104 Dy100 2.398 . S
O104 C102 1.185 . S
O105 Dy100 2.491 . S
O105 C102 1.355 . S
O106 Dy100 2.403 . S
O106 C108 1.254 . S
O107 Dy100 2.664 . S
O107 Dy103 2.310 . S
O107 C108 1.268 . S
C108 O106 1.254 . S
C108 O107 1.268 . S
C109 O114 1.254 . S
C109 O115 1.268 . S
O110 Dy103 2.351 . S
O110 C118 1.249 . S
O111 Dy100 2.326 . S
O111 C118 1.267 . S
O112 C101 1.185 . S
O112 Dy103 2.398 . S
O113 C101 1.355 . S
O113 Dy103 2.491 . S
O114 Dy103 2.403 . S
O114 C109 1.254 . S
O115 Dy100 2.310 . S
O115 Dy103 2.664 . S
O115 C109 1.268 . S
O116 Dy100 2.351 . S
O116 C119 1.249 . S
O117 Dy103 2.326 . S
O117 C119 1.267 . S
C118 O110 1.249 . S
C118 O111 1.267 . S
C119 O116 1.249 . S
C119 O117 1.267 . S
Dy120 O124 2.398 1_554 S
Dy120 O125 2.491 1_554 S
Dy120 O126 2.403 1_565 S
Dy120 O127 2.664 1_565 S
Dy120 O131 2.326 1_564 S
Dy120 O135 2.310 1_554 S
Dy120 O136 2.351 . S
C121 O132 1.185 . S
C121 O133 1.355 . S
C122 O124 1.185 . S
C122 O125 1.355 . S
Dy123 O127 2.293 1_556 S
Dy123 O130 2.376 . S
Dy123 O132 2.388 1_556 S
Dy123 O133 2.461 1_556 S
Dy123 O134 2.424 1_545 S
Dy123 O135 2.679 1_545 S
Dy123 O137 2.307 1_546 S
O124 Dy120 2.398 1_556 S
O124 C122 1.185 . S
O125 Dy120 2.491 1_556 S
O125 C122 1.355 . S
O126 Dy120 2.403 1_545 S
O126 C128 1.254 . S
O127 Dy120 2.664 1_545 S
O127 Dy123 2.293 1_554 S
O127 C128 1.268 . S
C128 O126 1.254 . S
C128 O127 1.268 . S
C129 O134 1.254 . S
C129 O135 1.268 . S
O130 Dy123 2.376 . S
O130 C138 1.249 . S
O131 Dy120 2.326 1_546 S
O131 C138 1.267 . S
O132 C121 1.185 . S
O132 Dy123 2.388 1_554 S
O133 C121 1.355 . S
O133 Dy123 2.461 1_554 S
O134 Dy123 2.424 1_565 S
O134 C129 1.254 . S
O135 Dy120 2.310 1_556 S
O135 Dy123 2.679 1_565 S
O135 C129 1.268 . S
O136 Dy120 2.351 . S
O136 C139 1.249 . S
O137 Dy123 2.307 1_564 S
O137 C139 1.267 . S
C138 O130 1.249 . S
C138 O131 1.267 . S
C139 O136 1.249 . S
C139 O137 1.267 . S
Dy140 O144 2.398 . S
Dy140 O145 2.491 . S
Dy140 O146 2.403 . S
Dy140 O147 2.664 . S
Dy140 O151 2.326 . S
Dy140 O155 2.310 . S
Dy140 O156 2.351 . S
C141 O152 1.185 . S
C141 O153 1.355 . S
C142 O144 1.185 . S
C142 O145 1.355 . S
Dy143 O147 2.310 . S
Dy143 O150 2.351 . S
Dy143 O152 2.398 . S
Dy143 O153 2.491 . S
Dy143 O154 2.403 . S
Dy143 O155 2.664 . S
Dy143 O157 2.326 . S
O144 Dy140 2.398 . S
O144 C142 1.185 . S
O145 Dy140 2.491 . S
O145 C142 1.355 . S
O146 Dy140 2.403 . S
O146 C148 1.254 . S
O147 Dy140 2.664 . S
O147 Dy143 2.310 . S
O147 C148 1.268 . S
C148 O146 1.254 . S
C148 O147 1.268 . S
C149 O154 1.254 . S
C149 O155 1.268 . S
O150 Dy143 2.351 . S
O150 C158 1.249 . S
O151 Dy140 2.326 . S
O151 C158 1.267 . S
O152 C141 1.185 . S
O152 Dy143 2.398 . S
O153 C141 1.355 . S
O153 Dy143 2.491 . S
O154 Dy143 2.403 . S
O154 C149 1.254 . S
O155 Dy140 2.310 . S
O155 Dy143 2.664 . S
O155 C149 1.268 . S
O156 Dy140 2.351 . S
O156 C159 1.249 . S
O157 Dy143 2.326 . S
O157 C159 1.267 . S
C158 O150 1.249 . S
C158 O151 1.267 . S
C159 O156 1.249 . S
C159 O157 1.267 . S
Dy160 O164 2.398 . S
Dy160 O165 2.491 . S
Dy160 O166 2.403 1_554 S
Dy160 O167 2.664 1_554 S
Dy160 O171 2.326 . S
Dy160 O175 2.310 . S
Dy160 O176 2.351 1_554 S
C161 O172 1.185 . S
C161 O173 1.355 . S
C162 O164 1.185 . S
C162 O165 1.355 . S
Dy163 O167 2.310 . S
Dy163 O170 2.351 1_556 S
Dy163 O172 2.398 . S
Dy163 O173 2.491 . S
Dy163 O174 2.403 1_556 S
Dy163 O175 2.664 1_556 S
Dy163 O177 2.326 . S
O164 Dy160 2.398 . S
O164 C162 1.185 . S
O165 Dy160 2.491 . S
O165 C162 1.355 . S
O166 Dy160 2.403 1_556 S
O166 C168 1.254 . S
O167 Dy160 2.664 1_556 S
O167 Dy163 2.310 . S
O167 C168 1.268 . S
C168 O166 1.254 . S
C168 O167 1.268 . S
C169 O174 1.254 . S
C169 O175 1.268 . S
O170 Dy163 2.351 1_554 S
O170 C178 1.249 . S
O171 Dy160 2.326 . S
O171 C178 1.267 . S
O172 C161 1.185 . S
O172 Dy163 2.398 . S
O173 C161 1.355 . S
O173 Dy163 2.491 . S
O174 Dy163 2.403 1_554 S
O174 C169 1.254 . S
O175 Dy160 2.310 . S
O175 Dy163 2.664 1_554 S
O175 C169 1.268 . S
O176 Dy160 2.351 1_556 S
O176 C179 1.249 . S
O177 Dy163 2.326 . S
O177 C179 1.267 . S
C178 O170 1.249 . S
C178 O171 1.267 . S
C179 O176 1.249 . S
C179 O177 1.267 . S
Dy180 O184 2.398 . S
Dy180 O185 2.491 . S
Dy180 O186 2.403 . S
Dy180 O187 2.664 . S
Dy180 O191 2.326 . S
Dy180 O195 2.310 . S
Dy180 O196 2.351 . S
C181 O192 1.185 . S
C181 O193 1.355 . S
C182 O184 1.185 . S
C182 O185 1.355 . S
Dy183 O187 2.310 . S
Dy183 O190 2.351 . S
Dy183 O192 2.398 . S
Dy183 O193 2.491 . S
Dy183 O194 2.403 . S
Dy183 O195 2.664 . S
Dy183 O197 2.326 . S
O184 Dy180 2.398 . S
O184 C182 1.185 . S
O185 Dy180 2.491 . S
O185 C182 1.355 . S
O186 Dy180 2.403 . S
O186 C188 1.254 . S
O187 Dy180 2.664 . S
O187 Dy183 2.310 . S
O187 C188 1.268 . S
C188 O186 1.254 . S
C188 O187 1.268 . S
C189 O194 1.254 . S
C189 O195 1.268 . S
O190 Dy183 2.351 . S
O190 C198 1.249 . S
O191 Dy180 2.326 . S
O191 C198 1.267 . S
O192 C181 1.185 . S
O192 Dy183 2.398 . S
O193 C181 1.355 . S
O193 Dy183 2.491 . S
O194 Dy183 2.403 . S
O194 C189 1.254 . S
O195 Dy180 2.310 . S
O195 Dy183 2.664 . S
O195 C189 1.268 . S
O196 Dy180 2.351 . S
O196 C199 1.249 . S
O197 Dy183 2.326 . S
O197 C199 1.267 . S
C198 O190 1.249 . S
C198 O191 1.267 . S
C199 O196 1.249 . S
C199 O197 1.267 . S
Dy200 O204 2.398 . S
Dy200 O205 2.491 . S
Dy200 O206 2.403 . S
Dy200 O207 2.664 . S
Dy200 O211 2.326 . S
Dy200 O215 2.310 1_455 S
Dy200 O216 2.351 1_455 S
C201 O212 1.185 . S
C201 O213 1.355 . S
C202 O204 1.185 . S
C202 O205 1.355 . S
Dy203 O207 2.310 1_655 S
Dy203 O210 2.351 1_655 S
Dy203 O212 2.398 . S
Dy203 O213 2.491 . S
Dy203 O214 2.403 . S
Dy203 O215 2.664 . S
Dy203 O217 2.326 . S
O204 Dy200 2.398 . S
O204 C202 1.185 . S
O205 Dy200 2.491 . S
O205 C202 1.355 . S
O206 Dy200 2.403 . S
O206 C208 1.254 . S
O207 Dy200 2.664 . S
O207 Dy203 2.310 1_455 S
O207 C208 1.268 . S
C208 O206 1.254 . S
C208 O207 1.268 . S
C209 O214 1.254 . S
C209 O215 1.268 . S
O210 Dy203 2.351 1_455 S
O210 C218 1.249 . S
O211 Dy200 2.326 . S
O211 C218 1.267 . S
O212 C201 1.185 . S
O212 Dy203 2.398 . S
O213 C201 1.355 . S
O213 Dy203 2.491 . S
O214 Dy203 2.403 . S
O214 C209 1.254 . S
O215 Dy200 2.310 1_655 S
O215 Dy203 2.664 . S
O215 C209 1.268 . S
O216 Dy200 2.351 1_655 S
O216 C219 1.249 . S
O217 Dy203 2.326 . S
O217 C219 1.267 . S
C218 O210 1.249 . S
C218 O211 1.267 . S
C219 O216 1.249 . S
C219 O217 1.267 . S
Dy220 O224 2.398 . S
Dy220 O225 2.491 . S
Dy220 O226 2.403 . S
Dy220 O227 2.664 . S
Dy220 O231 2.326 . S
Dy220 O235 2.310 . S
Dy220 O236 2.351 . S
C221 O232 1.185 . S
C221 O233 1.355 . S
C222 O224 1.185 . S
C222 O225 1.355 . S
Dy223 O227 2.310 . S
Dy223 O230 2.351 . S
Dy223 O232 2.398 . S
Dy223 O233 2.491 . S
Dy223 O234 2.403 . S
Dy223 O235 2.664 . S
Dy223 O237 2.326 . S
O224 Dy220 2.398 . S
O224 C222 1.185 . S
O225 Dy220 2.491 . S
O225 C222 1.355 . S
O226 Dy220 2.403 . S
O226 C228 1.254 . S
O227 Dy220 2.664 . S
O227 Dy223 2.310 . S
O227 C228 1.268 . S
C228 O226 1.254 . S
C228 O227 1.268 . S
C229 O234 1.254 . S
C229 O235 1.268 . S
O230 Dy223 2.351 . S
O230 C238 1.249 . S
O231 Dy220 2.326 . S
O231 C238 1.267 . S
O232 C221 1.185 . S
O232 Dy223 2.398 . S
O233 C221 1.355 . S
O233 Dy223 2.491 . S
O234 Dy223 2.403 . S
O234 C229 1.254 . S
O235 Dy220 2.310 . S
O235 Dy223 2.664 . S
O235 C229 1.268 . S
O236 Dy220 2.351 . S
O236 C239 1.249 . S
O237 Dy223 2.326 . S
O237 C239 1.267 . S
C238 O230 1.249 . S
C238 O231 1.267 . S
C239 O236 1.249 . S
C239 O237 1.267 . S
Dy240 O244 2.398 . S
Dy240 O245 2.491 . S
Dy240 O246 2.403 . S
Dy240 O247 2.664 . S
Dy240 O251 2.326 . S
Dy240 O255 2.310 . S
Dy240 O256 2.351 . S
C241 O252 1.185 . S
C241 O253 1.355 . S
C242 O244 1.185 . S
C242 O245 1.355 . S
Dy243 O247 2.310 . S
Dy243 O250 2.351 . S
Dy243 O252 2.398 . S
Dy243 O253 2.491 . S
Dy243 O254 2.403 . S
Dy243 O255 2.664 . S
Dy243 O257 2.326 . S
O244 Dy240 2.398 . S
O244 C242 1.185 . S
O245 Dy240 2.491 . S
O245 C242 1.355 . S
O246 Dy240 2.403 . S
O246 C248 1.254 . S
O247 Dy240 2.664 . S
O247 Dy243 2.310 . S
O247 C248 1.268 . S
C248 O246 1.254 . S
C248 O247 1.268 . S
C249 O254 1.254 . S
C249 O255 1.268 . S
O250 Dy243 2.351 . S
O250 C258 1.249 . S
O251 Dy240 2.326 . S
O251 C258 1.267 . S
O252 C241 1.185 . S
O252 Dy243 2.398 . S
O253 C241 1.355 . S
O253 Dy243 2.491 . S
O254 Dy243 2.403 . S
O254 C249 1.254 . S
O255 Dy240 2.310 . S
O255 Dy243 2.664 . S
O255 C249 1.268 . S
O256 Dy240 2.351 . S
O256 C259 1.249 . S
O257 Dy243 2.326 . S
O257 C259 1.267 . S
C258 O250 1.249 . S
C258 O251 1.267 . S
C259 O256 1.249 . S
C259 O257 1.267 . S
Dy260 O264 2.398 . S
Dy260 O265 2.491 . S
Dy260 O266 2.403 . S
Dy260 O267 2.664 . S
Dy260 O271 2.326 . S
Dy260 O275 2.310 . S
Dy260 O276 2.351 . S
C261 O272 1.185 . S
C261 O273 1.355 . S
C262 O264 1.185 . S
C262 O265 1.355 . S
Dy263 O267 2.310 . S
Dy263 O270 2.351 . S
Dy263 O272 2.398 . S
Dy263 O273 2.491 . S
Dy263 O274 2.403 . S
Dy263 O275 2.664 . S
Dy263 O277 2.326 . S
O264 Dy260 2.398 . S
O264 C262 1.185 . S
O265 Dy260 2.491 . S
O265 C262 1.355 . S
O266 Dy260 2.403 . S
O266 C268 1.254 . S
O267 Dy260 2.664 . S
O267 Dy263 2.310 . S
O267 C268 1.268 . S
C268 O266 1.254 . S
C268 O267 1.268 . S
C269 O274 1.254 . S
C269 O275 1.268 . S
O270 Dy263 2.351 . S
O270 C278 1.249 . S
O271 Dy260 2.326 . S
O271 C278 1.267 . S
O272 C261 1.185 . S
O272 Dy263 2.398 . S
O273 C261 1.355 . S
O273 Dy263 2.491 . S
O274 Dy263 2.403 . S
O274 C269 1.254 . S
O275 Dy260 2.310 . S
O275 Dy263 2.664 . S
O275 C269 1.268 . S
O276 Dy260 2.351 . S
O276 C279 1.249 . S
O277 Dy263 2.326 . S
O277 C279 1.267 . S
C278 O270 1.249 . S
C278 O271 1.267 . S
C279 O276 1.249 . S
C279 O277 1.267 . S
Dy280 O284 2.398 . S
Dy280 O285 2.491 . S
Dy280 O286 2.403 . S
Dy280 O287 2.664 . S
Dy280 O291 2.326 . S
Dy280 O295 2.310 . S
Dy280 O296 2.351 . S
C281 O292 1.185 . S
C281 O293 1.355 . S
C282 O284 1.185 . S
C282 O285 1.355 . S
Dy283 O287 2.310 . S
Dy283 O290 2.351 . S
Dy283 O292 2.398 . S
Dy283 O293 2.491 . S
Dy283 O294 2.403 . S
Dy283 O295 2.664 . S
Dy283 O297 2.326 . S
O284 Dy280 2.398 . S
O284 C282 1.185 . S
O285 Dy280 2.491 . S
O285 C282 1.355 . S
O286 Dy280 2.403 . S
O286 C288 1.254 . S
O287 Dy280 2.664 . S
O287 Dy283 2.310 . S
O287 C288 1.268 . S
C288 O286 1.254 . S
C288 O287 1.268 . S
C289 O294 1.254 . S
C289 O295 1.268 . S
O290 Dy283 2.351 . S
O290 C298 1.249 . S
O291 Dy280 2.326 . S
O291 C298 1.267 . S
O292 C281 1.185 . S
O292 Dy283 2.398 . S
O293 C281 1.355 . S
O293 Dy283 2.491 . S
O294 Dy283 2.403 . S
O294 C289 1.254 . S
O295 Dy280 2.310 . S
O295 Dy283 2.664 . S
O295 C289 1.268 . S
O296 Dy280 2.351 . S
O296 C299 1.249 . S
O297 Dy283 2.326 . S
O297 C299 1.267 . S
C298 O290 1.249 . S
C298 O291 1.267 . S
C299 O296 1.249 . S
C299 O297 1.267 . S
Dy300 O304 2.398 . S
Dy300 O305 2.491 . S
Dy300 O306 2.403 1_554 S
Dy300 O307 2.664 1_554 S
Dy300 O311 2.326 1_554 S
Dy300 O315 2.310 1_655 S
Dy300 O316 2.351 1_655 S
C301 O312 1.185 . S
C301 O313 1.355 . S
C302 O304 1.185 . S
C302 O305 1.355 . S
Dy303 O307 2.310 1_455 S
Dy303 O310 2.351 1_455 S
Dy303 O312 2.398 . S
Dy303 O313 2.491 . S
Dy303 O314 2.403 1_556 S
Dy303 O315 2.664 1_556 S
Dy303 O317 2.326 1_556 S
O304 Dy300 2.398 . S
O304 C302 1.185 . S
O305 Dy300 2.491 . S
O305 C302 1.355 . S
O306 Dy300 2.403 1_556 S
O306 C308 1.254 . S
O307 Dy300 2.664 1_556 S
O307 Dy303 2.310 1_655 S
O307 C308 1.268 . S
C308 O306 1.254 . S
C308 O307 1.268 . S
C309 O314 1.254 . S
C309 O315 1.268 . S
O310 Dy303 2.351 1_655 S
O310 C318 1.249 . S
O311 Dy300 2.326 1_556 S
O311 C318 1.267 . S
O312 C301 1.185 . S
O312 Dy303 2.398 . S
O313 C301 1.355 . S
O313 Dy303 2.491 . S
O314 Dy303 2.403 1_554 S
O314 C309 1.254 . S
O315 Dy300 2.310 1_455 S
O315 Dy303 2.664 1_554 S
O315 C309 1.268 . S
O316 Dy300 2.351 1_455 S
O316 C319 1.249 . S
O317 Dy303 2.326 1_554 S
O317 C319 1.267 . S
C318 O310 1.249 . S
C318 O311 1.267 . S
C319 O316 1.249 . S
C319 O317 1.267 . S
H320 C328 0.929 . S
H321 C330 0.930 . S
H322 C332 0.930 . S
H323 C335 0.929 . S
H324 C338 0.930 . S
H325 C340 0.960 . S
H326 C340 0.960 . S
H327 C340 0.960 . S
C328 H320 0.929 . S
C328 C329 1.377 . S
C328 C330 1.384 . S
C329 C328 1.377 . S
C329 C335 1.390 . S
C330 H321 0.930 . S
C330 C328 1.384 . S
C330 C331 1.372 . S
C331 C330 1.372 . S
C331 C332 1.400 . S
C331 C336 1.490 . S
C332 H322 0.930 . S
C332 C331 1.400 . S
C332 C335 1.386 . S
H333 C349 0.930 . S
H334 C350 0.931 . S
C335 H323 0.929 . S
C335 C329 1.390 . S
C335 C332 1.386 . S
C336 C331 1.490 . S
C336 C338 1.395 . S
C336 C339 1.403 . S
H337 C343 0.930 . S
C338 H324 0.930 . S
C338 C336 1.395 . S
C338 C341 1.403 . S
C339 C336 1.403 . S
C339 C340 1.524 . S
C339 C343 1.400 . S
C340 H325 0.960 . S
C340 H326 0.960 . S
C340 H327 0.960 . S
C340 C339 1.524 . S
C341 C338 1.403 . S
C341 C342 1.392 . S
C341 C345 1.495 . S
C342 C341 1.392 . S
C342 C343 1.385 . S
C342 C344 1.478 . S
C343 H337 0.930 . S
C343 C339 1.400 . S
C343 C342 1.385 . S
C344 C342 1.478 . S
C344 C346 1.381 . S
C344 C350 1.383 . S
C345 C341 1.495 . S
C345 H351 0.959 . S
C345 H352 0.961 . S
C345 H353 0.960 . S
C346 C344 1.381 . S
C346 C347 1.394 . S
C346 H354 0.930 . S
C347 C346 1.394 . S
C347 C348 1.383 . S
C347 H355 0.929 . S
C348 C347 1.383 . S
C348 C349 1.377 . S
C349 H333 0.930 . S
C349 C348 1.377 . S
C349 C350 1.379 . S
C350 H334 0.931 . S
C350 C344 1.383 . S
C350 C349 1.379 . S
H351 C345 0.959 . S
H352 C345 0.961 . S
H353 C345 0.960 . S
H354 C346 0.930 . S
H355 C347 0.929 . S
H356 C364 0.929 . S
H357 C366 0.930 . S
H358 C368 0.930 . S
H359 C371 0.929 . S
H360 C374 0.930 . S
H361 C376 0.960 . S
H362 C376 0.960 . S
H363 C376 0.960 . S
C364 H356 0.929 . S
C364 C365 1.377 . S
C364 C366 1.384 . S
C365 C364 1.377 . S
C365 C371 1.390 . S
C366 H357 0.930 . S
C366 C364 1.384 . S
C366 C367 1.372 . S
C367 C366 1.372 . S
C367 C368 1.400 . S
C367 C372 1.490 . S
C368 H358 0.930 . S
C368 C367 1.400 . S
C368 C371 1.386 . S
H369 C385 0.930 . S
H370 C386 0.931 . S
C371 H359 0.929 . S
C371 C365 1.390 . S
C371 C368 1.386 . S
C372 C367 1.490 . S
C372 C374 1.395 . S
C372 C375 1.403 . S
H373 C379 0.930 . S
C374 H360 0.930 . S
C374 C372 1.395 . S
C374 C377 1.403 . S
C375 C372 1.403 . S
C375 C376 1.524 . S
C375 C379 1.400 . S
C376 H361 0.960 . S
C376 H362 0.960 . S
C376 H363 0.960 . S
C376 C375 1.524 . S
C377 C374 1.403 . S
C377 C378 1.392 . S
C377 C381 1.495 . S
C378 C377 1.392 . S
C378 C379 1.385 . S
C378 C380 1.478 . S
C379 H373 0.930 . S
C379 C375 1.400 . S
C379 C378 1.385 . S
C380 C378 1.478 . S
C380 C382 1.381 . S
C380 C386 1.383 . S
C381 C377 1.495 . S
C381 H387 0.959 . S
C381 H388 0.961 . S
C381 H389 0.960 . S
C382 C380 1.381 . S
C382 C383 1.394 . S
C382 H390 0.930 . S
C383 C382 1.394 . S
C383 C384 1.383 . S
C383 H391 0.929 . S
C384 C383 1.383 . S
C384 C385 1.377 . S
C385 H369 0.930 . S
C385 C384 1.377 . S
C385 C386 1.379 . S
C386 H370 0.931 . S
C386 C380 1.383 . S
C386 C385 1.379 . S
H387 C381 0.959 . S
H388 C381 0.961 . S
H389 C381 0.960 . S
H390 C382 0.930 . S
H391 C383 0.929 . S
H392 C400 0.929 . S
H393 C402 0.930 . S
H394 C404 0.930 . S
H395 C407 0.929 . S
H396 C410 0.930 . S
H397 C412 0.960 . S
H398 C412 0.960 . S
H399 C412 0.960 . S
C400 H392 0.929 . S
C400 C401 1.377 . S
C400 C402 1.384 . S
C401 C400 1.377 . S
C401 C407 1.390 . S
C402 H393 0.930 . S
C402 C400 1.384 . S
C402 C403 1.372 . S
C403 C402 1.372 . S
C403 C404 1.400 . S
C403 C408 1.490 . S
C404 H394 0.930 . S
C404 C403 1.400 . S
C404 C407 1.386 . S
H405 C421 0.930 . S
H406 C422 0.931 . S
C407 H395 0.929 . S
C407 C401 1.390 . S
C407 C404 1.386 . S
C408 C403 1.490 . S
C408 C410 1.395 . S
C408 C411 1.403 . S
H409 C415 0.930 . S
C410 H396 0.930 . S
C410 C408 1.395 . S
C410 C413 1.403 . S
C411 C408 1.403 . S
C411 C412 1.524 . S
C411 C415 1.400 . S
C412 H397 0.960 . S
C412 H398 0.960 . S
C412 H399 0.960 . S
C412 C411 1.524 . S
C413 C410 1.403 . S
C413 C414 1.392 . S
C413 C417 1.495 . S
C414 C413 1.392 . S
C414 C415 1.385 . S
C414 C416 1.478 . S
C415 H409 0.930 . S
C415 C411 1.400 . S
C415 C414 1.385 . S
C416 C414 1.478 . S
C416 C418 1.381 . S
C416 C422 1.383 . S
C417 C413 1.495 . S
C417 H423 0.959 . S
C417 H424 0.961 . S
C417 H425 0.960 . S
C418 C416 1.381 . S
C418 C419 1.394 . S
C418 H426 0.930 . S
C419 C418 1.394 . S
C419 C420 1.383 . S
C419 H427 0.929 . S
C420 C419 1.383 . S
C420 C421 1.377 . S
C421 H405 0.930 . S
C421 C420 1.377 . S
C421 C422 1.379 . S
C422 H406 0.931 . S
C422 C416 1.383 . S
C422 C421 1.379 . S
H423 C417 0.959 . S
H424 C417 0.961 . S
H425 C417 0.960 . S
H426 C418 0.930 . S
H427 C419 0.929 . S
H428 C436 0.929 . S
H429 C438 0.930 . S
H430 C440 0.930 . S
H431 C443 0.929 . S
H432 C446 0.930 . S
H433 C448 0.960 . S
H434 C448 0.960 . S
H435 C448 0.960 . S
C436 H428 0.929 . S
C436 C437 1.377 . S
C436 C438 1.384 . S
C437 C436 1.377 . S
C437 C443 1.390 . S
C438 H429 0.930 . S
C438 C436 1.384 . S
C438 C439 1.372 . S
C439 C438 1.372 . S
C439 C440 1.400 . S
C439 C444 1.490 . S
C440 H430 0.930 . S
C440 C439 1.400 . S
C440 C443 1.386 . S
H441 C457 0.930 . S
H442 C458 0.931 . S
C443 H431 0.929 . S
C443 C437 1.390 . S
C443 C440 1.386 . S
C444 C439 1.490 . S
C444 C446 1.395 . S
C444 C447 1.403 . S
H445 C451 0.930 . S
C446 H432 0.930 . S
C446 C444 1.395 . S
C446 C449 1.403 . S
C447 C444 1.403 . S
C447 C448 1.524 . S
C447 C451 1.400 . S
C448 H433 0.960 . S
C448 H434 0.960 . S
C448 H435 0.960 . S
C448 C447 1.524 . S
C449 C446 1.403 . S
C449 C450 1.392 . S
C449 C453 1.495 . S
C450 C449 1.392 . S
C450 C451 1.385 . S
C450 C452 1.478 . S
C451 H445 0.930 . S
C451 C447 1.400 . S
C451 C450 1.385 . S
C452 C450 1.478 . S
C452 C454 1.381 . S
C452 C458 1.383 . S
C453 C449 1.495 . S
C453 H459 0.959 . S
C453 H460 0.961 . S
C453 H461 0.960 . S
C454 C452 1.381 . S
C454 C455 1.394 . S
C454 H462 0.930 . S
C455 C454 1.394 . S
C455 C456 1.383 . S
C455 H463 0.929 . S
C456 C455 1.383 . S
C456 C457 1.377 . S
C457 H441 0.930 . S
C457 C456 1.377 . S
C457 C458 1.379 . S
C458 H442 0.931 . S
C458 C452 1.383 . S
C458 C457 1.379 . S
H459 C453 0.959 . S
H460 C453 0.961 . S
H461 C453 0.960 . S
H462 C454 0.930 . S
H463 C455 0.929 . S
H464 C472 0.929 . S
H465 C474 0.930 . S
H466 C476 0.930 . S
H467 C479 0.929 . S
H468 C482 0.930 . S
H469 C484 0.960 . S
H470 C484 0.960 . S
H471 C484 0.960 . S
C472 H464 0.929 . S
C472 C473 1.377 . S
C472 C474 1.384 . S
C473 C472 1.377 . S
C473 C479 1.390 . S
C474 H465 0.930 . S
C474 C472 1.384 . S
C474 C475 1.372 . S
C475 C474 1.372 . S
C475 C476 1.400 . S
C475 C480 1.490 . S
C476 H466 0.930 . S
C476 C475 1.400 . S
C476 C479 1.386 . S
H477 C493 0.930 . S
H478 C494 0.931 . S
C479 H467 0.929 . S
C479 C473 1.390 . S
C479 C476 1.386 . S
C480 C475 1.490 . S
C480 C482 1.395 . S
C480 C483 1.403 . S
H481 C487 0.930 . S
C482 H468 0.930 . S
C482 C480 1.395 . S
C482 C485 1.403 . S
C483 C480 1.403 . S
C483 C484 1.524 . S
C483 C487 1.400 . S
C484 H469 0.960 . S
C484 H470 0.960 . S
C484 H471 0.960 . S
C484 C483 1.524 . S
C485 C482 1.403 . S
C485 C486 1.392 . S
C485 C489 1.495 . S
C486 C485 1.392 . S
C486 C487 1.385 . S
C486 C488 1.478 . S
C487 H481 0.930 . S
C487 C483 1.400 . S
C487 C486 1.385 . S
C488 C486 1.478 . S
C488 C490 1.381 . S
C488 C494 1.383 . S
C489 C485 1.495 . S
C489 H495 0.959 . S
C489 H496 0.961 . S
C489 H497 0.960 . S
C490 C488 1.381 . S
C490 C491 1.394 . S
C490 H498 0.930 . S
C491 C490 1.394 . S
C491 C492 1.383 . S
C491 H499 0.929 . S
C492 C491 1.383 . S
C492 C493 1.377 . S
C493 H477 0.930 . S
C493 C492 1.377 . S
C493 C494 1.379 . S
C494 H478 0.931 . S
C494 C488 1.383 . S
C494 C493 1.379 . S
H495 C489 0.959 . S
H496 C489 0.961 . S
H497 C489 0.960 . S
H498 C490 0.930 . S
H499 C491 0.929 . S
H500 C508 0.929 . S
H501 C510 0.930 . S
H502 C512 0.930 . S
H503 C515 0.929 . S
H504 C518 0.930 . S
H505 C520 0.960 . S
H506 C520 0.960 . S
H507 C520 0.960 . S
C508 H500 0.929 . S
C508 C509 1.377 . S
C508 C510 1.384 . S
C509 C508 1.377 . S
C509 C515 1.390 . S
C510 H501 0.930 . S
C510 C508 1.384 . S
C510 C511 1.372 . S
C511 C510 1.372 . S
C511 C512 1.400 . S
C511 C516 1.490 . S
C512 H502 0.930 . S
C512 C511 1.400 . S
C512 C515 1.386 . S
H513 C529 0.930 . S
H514 C530 0.931 . S
C515 H503 0.929 . S
C515 C509 1.390 . S
C515 C512 1.386 . S
C516 C511 1.490 . S
C516 C518 1.395 . S
C516 C519 1.403 . S
H517 C523 0.930 . S
C518 H504 0.930 . S
C518 C516 1.395 . S
C518 C521 1.403 . S
C519 C516 1.403 . S
C519 C520 1.524 . S
C519 C523 1.400 . S
C520 H505 0.960 . S
C520 H506 0.960 . S
C520 H507 0.960 . S
C520 C519 1.524 . S
C521 C518 1.403 . S
C521 C522 1.392 . S
C521 C525 1.495 . S
C522 C521 1.392 . S
C522 C523 1.385 . S
C522 C524 1.478 . S
C523 H517 0.930 . S
C523 C519 1.400 . S
C523 C522 1.385 . S
C524 C522 1.478 . S
C524 C526 1.381 . S
C524 C530 1.383 . S
C525 C521 1.495 . S
C525 H531 0.959 . S
C525 H532 0.961 . S
C525 H533 0.960 . S
C526 C524 1.381 . S
C526 C527 1.394 . S
C526 H534 0.930 . S
C527 C526 1.394 . S
C527 C528 1.383 . S
C527 H535 0.929 . S
C528 C527 1.383 . S
C528 C529 1.377 . S
C529 H513 0.930 . S
C529 C528 1.377 . S
C529 C530 1.379 . S
C530 H514 0.931 . S
C530 C524 1.383 . S
C530 C529 1.379 . S
H531 C525 0.959 . S
H532 C525 0.961 . S
H533 C525 0.960 . S
H534 C526 0.930 . S
H535 C527 0.929 . S
H536 C544 0.929 . S
H537 C546 0.930 . S
H538 C548 0.930 . S
H539 C551 0.929 . S
H540 C554 0.930 . S
H541 C556 0.960 . S
H542 C556 0.960 . S
H543 C556 0.960 . S
C544 H536 0.929 . S
C544 C545 1.377 . S
C544 C546 1.384 . S
C545 C544 1.377 . S
C545 C551 1.390 . S
C546 H537 0.930 . S
C546 C544 1.384 . S
C546 C547 1.372 . S
C547 C546 1.372 . S
C547 C548 1.400 . S
C547 C552 1.490 . S
C548 H538 0.930 . S
C548 C547 1.400 . S
C548 C551 1.386 . S
H549 C565 0.930 . S
H550 C566 0.931 . S
C551 H539 0.929 . S
C551 C545 1.390 . S
C551 C548 1.386 . S
C552 C547 1.490 . S
C552 C554 1.395 . S
C552 C555 1.403 . S
H553 C559 0.930 . S
C554 H540 0.930 . S
C554 C552 1.395 . S
C554 C557 1.403 . S
C555 C552 1.403 . S
C555 C556 1.524 . S
C555 C559 1.400 . S
C556 H541 0.960 . S
C556 H542 0.960 . S
C556 H543 0.960 . S
C556 C555 1.524 . S
C557 C554 1.403 . S
C557 C558 1.392 . S
C557 C561 1.495 . S
C558 C557 1.392 . S
C558 C559 1.385 . S
C558 C560 1.478 . S
C559 H553 0.930 . S
C559 C555 1.400 . S
C559 C558 1.385 . S
C560 C558 1.478 . S
C560 C562 1.381 . S
C560 C566 1.383 . S
C561 C557 1.495 . S
C561 H567 0.959 . S
C561 H568 0.961 . S
C561 H569 0.960 . S
C562 C560 1.381 . S
C562 C563 1.394 . S
C562 H570 0.930 . S
C563 C562 1.394 . S
C563 C564 1.383 . S
C563 H571 0.929 . S
C564 C563 1.383 . S
C564 C565 1.377 . S
C565 H549 0.930 . S
C565 C564 1.377 . S
C565 C566 1.379 . S
C566 H550 0.931 . S
C566 C560 1.383 . S
C566 C565 1.379 . S
H567 C561 0.959 . S
H568 C561 0.961 . S
H569 C561 0.960 . S
H570 C562 0.930 . S
H571 C563 0.929 . S
H572 C580 0.929 . S
H573 C582 0.930 . S
H574 C584 0.930 . S
H575 C587 0.929 . S
H576 C590 0.930 . S
H577 C592 0.960 . S
H578 C592 0.960 . S
H579 C592 0.960 . S
C580 H572 0.929 . S
C580 C581 1.377 . S
C580 C582 1.384 . S
C581 C580 1.377 . S
C581 C587 1.390 . S
C582 H573 0.930 . S
C582 C580 1.384 . S
C582 C583 1.372 . S
C583 C582 1.372 . S
C583 C584 1.400 . S
C583 C588 1.490 . S
C584 H574 0.930 . S
C584 C583 1.400 . S
C584 C587 1.386 . S
H585 C601 0.930 . S
H586 C602 0.931 . S
C587 H575 0.929 . S
C587 C581 1.390 . S
C587 C584 1.386 . S
C588 C583 1.490 . S
C588 C590 1.395 . S
C588 C591 1.403 . S
H589 C595 0.930 . S
C590 H576 0.930 . S
C590 C588 1.395 . S
C590 C593 1.403 . S
C591 C588 1.403 . S
C591 C592 1.524 . S
C591 C595 1.400 . S
C592 H577 0.960 . S
C592 H578 0.960 . S
C592 H579 0.960 . S
C592 C591 1.524 . S
C593 C590 1.403 . S
C593 C594 1.392 . S
C593 C597 1.495 . S
C594 C593 1.392 . S
C594 C595 1.385 . S
C594 C596 1.478 . S
C595 H589 0.930 . S
C595 C591 1.400 . S
C595 C594 1.385 . S
C596 C594 1.478 . S
C596 C598 1.381 . S
C596 C602 1.383 . S
C597 C593 1.495 . S
C597 H603 0.959 . S
C597 H604 0.961 . S
C597 H605 0.960 . S
C598 C596 1.381 . S
C598 C599 1.394 . S
C598 H606 0.930 . S
C599 C598 1.394 . S
C599 C600 1.383 . S
C599 H607 0.929 . S
C600 C599 1.383 . S
C600 C601 1.377 . S
C601 H585 0.930 . S
C601 C600 1.377 . S
C601 C602 1.379 . S
C602 H586 0.931 . S
C602 C596 1.383 . S
C602 C601 1.379 . S
H603 C597 0.959 . S
H604 C597 0.961 . S
H605 C597 0.960 . S
H606 C598 0.930 . S
H607 C599 0.929 . S
H608 C616 0.929 . S
H609 C618 0.930 . S
H610 C620 0.930 . S
H611 C623 0.929 . S
H612 C626 0.930 . S
H613 C628 0.960 . S
H614 C628 0.960 . S
H615 C628 0.960 . S
C616 H608 0.929 . S
C616 C617 1.377 . S
C616 C618 1.384 . S
C617 C616 1.377 . S
C617 C623 1.390 . S
C618 H609 0.930 . S
C618 C616 1.384 . S
C618 C619 1.372 . S
C619 C618 1.372 . S
C619 C620 1.400 . S
C619 C624 1.490 . S
C620 H610 0.930 . S
C620 C619 1.400 . S
C620 C623 1.386 . S
H621 C637 0.930 . S
H622 C638 0.931 . S
C623 H611 0.929 . S
C623 C617 1.390 . S
C623 C620 1.386 . S
C624 C619 1.490 . S
C624 C626 1.395 . S
C624 C627 1.403 . S
H625 C631 0.930 . S
C626 H612 0.930 . S
C626 C624 1.395 . S
C626 C629 1.403 . S
C627 C624 1.403 . S
C627 C628 1.524 . S
C627 C631 1.400 . S
C628 H613 0.960 . S
C628 H614 0.960 . S
C628 H615 0.960 . S
C628 C627 1.524 . S
C629 C626 1.403 . S
C629 C630 1.392 . S
C629 C633 1.495 . S
C630 C629 1.392 . S
C630 C631 1.385 . S
C630 C632 1.478 . S
C631 H625 0.930 . S
C631 C627 1.400 . S
C631 C630 1.385 . S
C632 C630 1.478 . S
C632 C634 1.381 . S
C632 C638 1.383 . S
C633 C629 1.495 . S
C633 H639 0.959 . S
C633 H640 0.961 . S
C633 H641 0.960 . S
C634 C632 1.381 . S
C634 C635 1.394 . S
C634 H642 0.930 . S
C635 C634 1.394 . S
C635 C636 1.383 . S
C635 H643 0.929 . S
C636 C635 1.383 . S
C636 C637 1.377 . S
C637 H621 0.930 . S
C637 C636 1.377 . S
C637 C638 1.379 . S
C638 H622 0.931 . S
C638 C632 1.383 . S
C638 C637 1.379 . S
H639 C633 0.959 . S
H640 C633 0.961 . S
H641 C633 0.960 . S
H642 C634 0.930 . S
H643 C635 0.929 . S
H644 C652 0.929 . S
H645 C654 0.930 . S
H646 C656 0.930 . S
H647 C659 0.929 . S
H648 C662 0.930 . S
H649 C664 0.960 . S
H650 C664 0.960 . S
H651 C664 0.960 . S
C652 H644 0.929 . S
C652 C653 1.377 . S
C652 C654 1.384 . S
C653 C652 1.377 . S
C653 C659 1.390 . S
C654 H645 0.930 . S
C654 C652 1.384 . S
C654 C655 1.372 . S
C655 C654 1.372 . S
C655 C656 1.400 . S
C655 C660 1.490 . S
C656 H646 0.930 . S
C656 C655 1.400 . S
C656 C659 1.386 . S
H657 C673 0.930 . S
H658 C674 0.931 . S
C659 H647 0.929 . S
C659 C653 1.390 . S
C659 C656 1.386 . S
C660 C655 1.490 . S
C660 C662 1.395 . S
C660 C663 1.403 . S
H661 C667 0.930 . S
C662 H648 0.930 . S
C662 C660 1.395 . S
C662 C665 1.403 . S
C663 C660 1.403 . S
C663 C664 1.524 . S
C663 C667 1.400 . S
C664 H649 0.960 . S
C664 H650 0.960 . S
C664 H651 0.960 . S
C664 C663 1.524 . S
C665 C662 1.403 . S
C665 C666 1.392 . S
C665 C669 1.495 . S
C666 C665 1.392 . S
C666 C667 1.385 . S
C666 C668 1.478 . S
C667 H661 0.930 . S
C667 C663 1.400 . S
C667 C666 1.385 . S
C668 C666 1.478 . S
C668 C670 1.381 . S
C668 C674 1.383 . S
C669 C665 1.495 . S
C669 H675 0.959 . S
C669 H676 0.961 . S
C669 H677 0.960 . S
C670 C668 1.381 . S
C670 C671 1.394 . S
C670 H678 0.930 . S
C671 C670 1.394 . S
C671 C672 1.383 . S
C671 H679 0.929 . S
C672 C671 1.383 . S
C672 C673 1.377 . S
C673 H657 0.930 . S
C673 C672 1.377 . S
C673 C674 1.379 . S
C674 H658 0.931 . S
C674 C668 1.383 . S
C674 C673 1.379 . S
H675 C669 0.959 . S
H676 C669 0.961 . S
H677 C669 0.960 . S
H678 C670 0.930 . S
H679 C671 0.929 . S
H680 C688 0.929 . S
H681 C690 0.930 . S
H682 C692 0.930 . S
H683 C695 0.929 . S
H684 C698 0.930 . S
H685 C700 0.960 . S
H686 C700 0.960 . S
H687 C700 0.960 . S
C688 H680 0.929 . S
C688 C689 1.377 . S
C688 C690 1.384 . S
C689 C688 1.377 . S
C689 C695 1.390 . S
C690 H681 0.930 . S
C690 C688 1.384 . S
C690 C691 1.372 . S
C691 C690 1.372 . S
C691 C692 1.400 . S
C691 C696 1.490 . S
C692 H682 0.930 . S
C692 C691 1.400 . S
C692 C695 1.386 . S
H693 C709 0.930 . S
H694 C710 0.931 . S
C695 H683 0.929 . S
C695 C689 1.390 . S
C695 C692 1.386 . S
C696 C691 1.490 . S
C696 C698 1.395 . S
C696 C699 1.403 . S
H697 C703 0.930 . S
C698 H684 0.930 . S
C698 C696 1.395 . S
C698 C701 1.403 . S
C699 C696 1.403 . S
C699 C700 1.524 . S
C699 C703 1.400 . S
C700 H685 0.960 . S
C700 H686 0.960 . S
C700 H687 0.960 . S
C700 C699 1.524 . S
C701 C698 1.403 . S
C701 C702 1.392 . S
C701 C705 1.495 . S
C702 C701 1.392 . S
C702 C703 1.385 . S
C702 C704 1.478 . S
C703 H697 0.930 . S
C703 C699 1.400 . S
C703 C702 1.385 . S
C704 C702 1.478 . S
C704 C706 1.381 . S
C704 C710 1.383 . S
C705 C701 1.495 . S
C705 H711 0.959 . S
C705 H712 0.961 . S
C705 H713 0.960 . S
C706 C704 1.381 . S
C706 C707 1.394 . S
C706 H714 0.930 . S
C707 C706 1.394 . S
C707 C708 1.383 . S
C707 H715 0.929 . S
C708 C707 1.383 . S
C708 C709 1.377 . S
C709 H693 0.930 . S
C709 C708 1.377 . S
C709 C710 1.379 . S
C710 H694 0.931 . S
C710 C704 1.383 . S
C710 C709 1.379 . S
H711 C705 0.959 . S
H712 C705 0.961 . S
H713 C705 0.960 . S
H714 C706 0.930 . S
H715 C707 0.929 . S
H716 C724 0.929 . S
H717 C726 0.930 . S
H718 C728 0.930 . S
H719 C731 0.929 . S
H720 C734 0.930 . S
H721 C736 0.960 . S
H722 C736 0.960 . S
H723 C736 0.960 . S
C724 H716 0.929 . S
C724 C725 1.377 . S
C724 C726 1.384 . S
C725 C724 1.377 . S
C725 C731 1.390 . S
C726 H717 0.930 . S
C726 C724 1.384 . S
C726 C727 1.372 . S
C727 C726 1.372 . S
C727 C728 1.400 . S
C727 C732 1.490 . S
C728 H718 0.930 . S
C728 C727 1.400 . S
C728 C731 1.386 . S
H729 C745 0.930 . S
H730 C746 0.931 . S
C731 H719 0.929 . S
C731 C725 1.390 . S
C731 C728 1.386 . S
C732 C727 1.490 . S
C732 C734 1.395 . S
C732 C735 1.403 . S
H733 C739 0.930 . S
C734 H720 0.930 . S
C734 C732 1.395 . S
C734 C737 1.403 . S
C735 C732 1.403 . S
C735 C736 1.524 . S
C735 C739 1.400 . S
C736 H721 0.960 . S
C736 H722 0.960 . S
C736 H723 0.960 . S
C736 C735 1.524 . S
C737 C734 1.403 . S
C737 C738 1.392 . S
C737 C741 1.495 . S
C738 C737 1.392 . S
C738 C739 1.385 . S
C738 C740 1.478 . S
C739 H733 0.930 . S
C739 C735 1.400 . S
C739 C738 1.385 . S
C740 C738 1.478 . S
C740 C742 1.381 . S
C740 C746 1.383 . S
C741 C737 1.495 . S
C741 H747 0.959 . S
C741 H748 0.961 . S
C741 H749 0.960 . S
C742 C740 1.381 . S
C742 C743 1.394 . S
C742 H750 0.930 . S
C743 C742 1.394 . S
C743 C744 1.383 . S
C743 H751 0.929 . S
C744 C743 1.383 . S
C744 C745 1.377 . S
C745 H729 0.930 . S
C745 C744 1.377 . S
C745 C746 1.379 . S
C746 H730 0.931 . S
C746 C740 1.383 . S
C746 C745 1.379 . S
H747 C741 0.959 . S
H748 C741 0.961 . S
H749 C741 0.960 . S
H750 C742 0.930 . S
H751 C743 0.929 . S
H752 C760 0.929 . S
H753 C762 0.930 . S
H754 C764 0.930 . S
H755 C767 0.929 . S
H756 C770 0.930 . S
H757 C772 0.960 . S
H758 C772 0.960 . S
H759 C772 0.960 . S
C760 H752 0.929 . S
C760 C761 1.377 . S
C760 C762 1.384 . S
C761 C760 1.377 . S
C761 C767 1.390 . S
C762 H753 0.930 . S
C762 C760 1.384 . S
C762 C763 1.372 . S
C763 C762 1.372 . S
C763 C764 1.400 . S
C763 C768 1.490 . S
C764 H754 0.930 . S
C764 C763 1.400 . S
C764 C767 1.386 . S
H765 C781 0.930 . S
H766 C782 0.931 . S
C767 H755 0.929 . S
C767 C761 1.390 . S
C767 C764 1.386 . S
C768 C763 1.490 . S
C768 C770 1.395 . S
C768 C771 1.403 . S
H769 C775 0.930 . S
C770 H756 0.930 . S
C770 C768 1.395 . S
C770 C773 1.403 . S
C771 C768 1.403 . S
C771 C772 1.524 . S
C771 C775 1.400 . S
C772 H757 0.960 . S
C772 H758 0.960 . S
C772 H759 0.960 . S
C772 C771 1.524 . S
C773 C770 1.403 . S
C773 C774 1.392 . S
C773 C777 1.495 . S
C774 C773 1.392 . S
C774 C775 1.385 . S
C774 C776 1.478 . S
C775 H769 0.930 . S
C775 C771 1.400 . S
C775 C774 1.385 . S
C776 C774 1.478 . S
C776 C778 1.381 . S
C776 C782 1.383 . S
C777 C773 1.495 . S
C777 H783 0.959 . S
C777 H784 0.961 . S
C777 H785 0.960 . S
C778 C776 1.381 . S
C778 C779 1.394 . S
C778 H786 0.930 . S
C779 C778 1.394 . S
C779 C780 1.383 . S
C779 H787 0.929 . S
C780 C779 1.383 . S
C780 C781 1.377 . S
C781 H765 0.930 . S
C781 C780 1.377 . S
C781 C782 1.379 . S
C782 H766 0.931 . S
C782 C776 1.383 . S
C782 C781 1.379 . S
H783 C777 0.959 . S
H784 C777 0.961 . S
H785 C777 0.960 . S
H786 C778 0.930 . S
H787 C779 0.929 . S
H788 C796 0.929 . S
H789 C798 0.930 . S
H790 C800 0.930 . S
H791 C803 0.929 . S
H792 C806 0.930 . S
H793 C808 0.960 . S
H794 C808 0.960 . S
H795 C808 0.960 . S
C796 H788 0.929 . S
C796 C797 1.377 . S
C796 C798 1.384 . S
C797 C796 1.377 . S
C797 C803 1.390 . S
C798 H789 0.930 . S
C798 C796 1.384 . S
C798 C799 1.372 . S
C799 C798 1.372 . S
C799 C800 1.400 . S
C799 C804 1.490 . S
C800 H790 0.930 . S
C800 C799 1.400 . S
C800 C803 1.386 . S
H801 C817 0.930 . S
H802 C818 0.931 . S
C803 H791 0.929 . S
C803 C797 1.390 . S
C803 C800 1.386 . S
C804 C799 1.490 . S
C804 C806 1.395 . S
C804 C807 1.403 . S
H805 C811 0.930 . S
C806 H792 0.930 . S
C806 C804 1.395 . S
C806 C809 1.403 . S
C807 C804 1.403 . S
C807 C808 1.524 . S
C807 C811 1.400 . S
C808 H793 0.960 . S
C808 H794 0.960 . S
C808 H795 0.960 . S
C808 C807 1.524 . S
C809 C806 1.403 . S
C809 C810 1.392 . S
C809 C813 1.495 . S
C810 C809 1.392 . S
C810 C811 1.385 . S
C810 C812 1.478 . S
C811 H805 0.930 . S
C811 C807 1.400 . S
C811 C810 1.385 . S
C812 C810 1.478 . S
C812 C814 1.381 . S
C812 C818 1.383 . S
C813 C809 1.495 . S
C813 H819 0.959 . S
C813 H820 0.961 . S
C813 H821 0.960 . S
C814 C812 1.381 . S
C814 C815 1.394 . S
C814 H822 0.930 . S
C815 C814 1.394 . S
C815 C816 1.383 . S
C815 H823 0.929 . S
C816 C815 1.383 . S
C816 C817 1.377 . S
C817 H801 0.930 . S
C817 C816 1.377 . S
C817 C818 1.379 . S
C818 H802 0.931 . S
C818 C812 1.383 . S
C818 C817 1.379 . S
H819 C813 0.959 . S
H820 C813 0.961 . S
H821 C813 0.960 . S
H822 C814 0.930 . S
H823 C815 0.929 . S
H824 C832 0.929 . S
H825 C834 0.930 . S
H826 C836 0.930 . S
H827 C839 0.929 . S
H828 C842 0.930 . S
H829 C844 0.960 . S
H830 C844 0.960 . S
H831 C844 0.960 . S
C832 H824 0.929 . S
C832 C833 1.377 . S
C832 C834 1.384 . S
C833 C832 1.377 . S
C833 C839 1.390 . S
C834 H825 0.930 . S
C834 C832 1.384 . S
C834 C835 1.372 . S
C835 C834 1.372 . S
C835 C836 1.400 . S
C835 C840 1.490 . S
C836 H826 0.930 . S
C836 C835 1.400 . S
C836 C839 1.386 . S
H837 C853 0.930 . S
H838 C854 0.931 . S
C839 H827 0.929 . S
C839 C833 1.390 . S
C839 C836 1.386 . S
C840 C835 1.490 . S
C840 C842 1.395 . S
C840 C843 1.403 . S
H841 C847 0.930 . S
C842 H828 0.930 . S
C842 C840 1.395 . S
C842 C845 1.403 . S
C843 C840 1.403 . S
C843 C844 1.524 . S
C843 C847 1.400 . S
C844 H829 0.960 . S
C844 H830 0.960 . S
C844 H831 0.960 . S
C844 C843 1.524 . S
C845 C842 1.403 . S
C845 C846 1.392 . S
C845 C849 1.495 . S
C846 C845 1.392 . S
C846 C847 1.385 . S
C846 C848 1.478 . S
C847 H841 0.930 . S
C847 C843 1.400 . S
C847 C846 1.385 . S
C848 C846 1.478 . S
C848 C850 1.381 . S
C848 C854 1.383 . S
C849 C845 1.495 . S
C849 H855 0.959 . S
C849 H856 0.961 . S
C849 H857 0.960 . S
C850 C848 1.381 . S
C850 C851 1.394 . S
C850 H858 0.930 . S
C851 C850 1.394 . S
C851 C852 1.383 . S
C851 H859 0.929 . S
C852 C851 1.383 . S
C852 C853 1.377 . S
C853 H837 0.930 . S
C853 C852 1.377 . S
C853 C854 1.379 . S
C854 H838 0.931 . S
C854 C848 1.383 . S
C854 C853 1.379 . S
H855 C849 0.959 . S
H856 C849 0.961 . S
H857 C849 0.960 . S
H858 C850 0.930 . S
H859 C851 0.929 . S
H860 C868 0.929 . S
H861 C870 0.930 . S
H862 C872 0.930 . S
H863 C875 0.929 . S
H864 C878 0.930 . S
H865 C880 0.960 . S
H866 C880 0.960 . S
H867 C880 0.960 . S
C868 H860 0.929 . S
C868 C869 1.377 . S
C868 C870 1.384 . S
C869 C868 1.377 . S
C869 C875 1.390 . S
C870 H861 0.930 . S
C870 C868 1.384 . S
C870 C871 1.372 . S
C871 C870 1.372 . S
C871 C872 1.400 . S
C871 C876 1.490 . S
C872 H862 0.930 . S
C872 C871 1.400 . S
C872 C875 1.386 . S
H873 C889 0.930 . S
H874 C890 0.931 . S
C875 H863 0.929 . S
C875 C869 1.390 . S
C875 C872 1.386 . S
C876 C871 1.490 . S
C876 C878 1.395 . S
C876 C879 1.403 . S
H877 C883 0.930 . S
C878 H864 0.930 . S
C878 C876 1.395 . S
C878 C881 1.403 . S
C879 C876 1.403 . S
C879 C880 1.524 . S
C879 C883 1.400 . S
C880 H865 0.960 . S
C880 H866 0.960 . S
C880 H867 0.960 . S
C880 C879 1.524 . S
C881 C878 1.403 . S
C881 C882 1.392 . S
C881 C885 1.495 . S
C882 C881 1.392 . S
C882 C883 1.385 . S
C882 C884 1.478 . S
C883 H877 0.930 . S
C883 C879 1.400 . S
C883 C882 1.385 . S
C884 C882 1.478 . S
C884 C886 1.381 . S
C884 C890 1.383 . S
C885 C881 1.495 . S
C885 H891 0.959 . S
C885 H892 0.961 . S
C885 H893 0.960 . S
C886 C884 1.381 . S
C886 C887 1.394 . S
C886 H894 0.930 . S
C887 C886 1.394 . S
C887 C888 1.383 . S
C887 H895 0.929 . S
C888 C887 1.383 . S
C888 C889 1.377 . S
C889 H873 0.930 . S
C889 C888 1.377 . S
C889 C890 1.379 . S
C890 H874 0.931 . S
C890 C884 1.383 . S
C890 C889 1.379 . S
H891 C885 0.959 . S
H892 C885 0.961 . S
H893 C885 0.960 . S
H894 C886 0.930 . S
H895 C887 0.929 . S
H896 C904 0.929 . S
H897 C906 0.930 . S
H898 C908 0.930 . S
H899 C911 0.929 . S
H900 C914 0.930 . S
H901 C916 0.960 . S
H902 C916 0.960 . S
H903 C916 0.960 . S
C904 H896 0.929 . S
C904 C905 1.377 . S
C904 C906 1.384 . S
C905 C904 1.377 . S
C905 C911 1.390 . S
C906 H897 0.930 . S
C906 C904 1.384 . S
C906 C907 1.372 . S
C907 C906 1.372 . S
C907 C908 1.400 . S
C907 C912 1.490 . S
C908 H898 0.930 . S
C908 C907 1.400 . S
C908 C911 1.386 . S
H909 C925 0.930 . S
H910 C926 0.931 . S
C911 H899 0.929 . S
C911 C905 1.390 . S
C911 C908 1.386 . S
C912 C907 1.490 . S
C912 C914 1.395 . S
C912 C915 1.403 . S
H913 C919 0.930 . S
C914 H900 0.930 . S
C914 C912 1.395 . S
C914 C917 1.403 . S
C915 C912 1.403 . S
C915 C916 1.524 . S
C915 C919 1.400 . S
C916 H901 0.960 . S
C916 H902 0.960 . S
C916 H903 0.960 . S
C916 C915 1.524 . S
C917 C914 1.403 . S
C917 C918 1.392 . S
C917 C921 1.495 . S
C918 C917 1.392 . S
C918 C919 1.385 . S
C918 C920 1.478 . S
C919 H913 0.930 . S
C919 C915 1.400 . S
C919 C918 1.385 . S
C920 C918 1.478 . S
C920 C922 1.381 . S
C920 C926 1.383 . S
C921 C917 1.495 . S
C921 H927 0.959 . S
C921 H928 0.961 . S
C921 H929 0.960 . S
C922 C920 1.381 . S
C922 C923 1.394 . S
C922 H930 0.930 . S
C923 C922 1.394 . S
C923 C924 1.383 . S
C923 H931 0.929 . S
C924 C923 1.383 . S
C924 C925 1.377 . S
C925 H909 0.930 . S
C925 C924 1.377 . S
C925 C926 1.379 . S
C926 H910 0.931 . S
C926 C920 1.383 . S
C926 C925 1.379 . S
H927 C921 0.959 . S
H928 C921 0.961 . S
H929 C921 0.960 . S
H930 C922 0.930 . S
H931 C923 0.929 . S
H932 C940 0.929 . S
H933 C942 0.930 . S
H934 C944 0.930 . S
H935 C947 0.929 . S
H936 C950 0.930 . S
H937 C952 0.960 . S
H938 C952 0.960 . S
H939 C952 0.960 . S
C940 H932 0.929 . S
C940 C941 1.377 . S
C940 C942 1.384 . S
C941 C940 1.377 . S
C941 C947 1.390 . S
C942 H933 0.930 . S
C942 C940 1.384 . S
C942 C943 1.372 . S
C943 C942 1.372 . S
C943 C944 1.400 . S
C943 C948 1.490 . S
C944 H934 0.930 . S
C944 C943 1.400 . S
C944 C947 1.386 . S
H945 C961 0.930 . S
H946 C962 0.931 . S
C947 H935 0.929 . S
C947 C941 1.390 . S
C947 C944 1.386 . S
C948 C943 1.490 . S
C948 C950 1.395 . S
C948 C951 1.403 . S
H949 C955 0.930 . S
C950 H936 0.930 . S
C950 C948 1.395 . S
C950 C953 1.403 . S
C951 C948 1.403 . S
C951 C952 1.524 . S
C951 C955 1.400 . S
C952 H937 0.960 . S
C952 H938 0.960 . S
C952 H939 0.960 . S
C952 C951 1.524 . S
C953 C950 1.403 . S
C953 C954 1.392 . S
C953 C957 1.495 . S
C954 C953 1.392 . S
C954 C955 1.385 . S
C954 C956 1.478 . S
C955 H949 0.930 . S
C955 C951 1.400 . S
C955 C954 1.385 . S
C956 C954 1.478 . S
C956 C958 1.381 . S
C956 C962 1.383 . S
C957 C953 1.495 . S
C957 H963 0.959 . S
C957 H964 0.961 . S
C957 H965 0.960 . S
C958 C956 1.381 . S
C958 C959 1.394 . S
C958 H966 0.930 . S
C959 C958 1.394 . S
C959 C960 1.383 . S
C959 H967 0.929 . S
C960 C959 1.383 . S
C960 C961 1.377 . S
C961 H945 0.930 . S
C961 C960 1.377 . S
C961 C962 1.379 . S
C962 H946 0.931 . S
C962 C956 1.383 . S
C962 C961 1.379 . S
H963 C957 0.959 . S
H964 C957 0.961 . S
H965 C957 0.960 . S
H966 C958 0.930 . S
H967 C959 0.929 . S
H968 C976 0.929 . S
H969 C978 0.930 . S
H970 C980 0.930 . S
H971 C983 0.929 . S
H972 C986 0.930 . S
H973 C988 0.960 . S
H974 C988 0.960 . S
H975 C988 0.960 . S
C976 H968 0.929 . S
C976 C977 1.377 . S
C976 C978 1.384 . S
C977 C976 1.377 . S
C977 C983 1.390 . S
C978 H969 0.930 . S
C978 C976 1.384 . S
C978 C979 1.372 . S
C979 C978 1.372 . S
C979 C980 1.400 . S
C979 C984 1.490 . S
C980 H970 0.930 . S
C980 C979 1.400 . S
C980 C983 1.386 . S
H981 C997 0.930 . S
H982 C998 0.931 . S
C983 H971 0.929 . S
C983 C977 1.390 . S
C983 C980 1.386 . S
C984 C979 1.490 . S
C984 C986 1.395 . S
C984 C987 1.403 . S
H985 C991 0.930 . S
C986 H972 0.930 . S
C986 C984 1.395 . S
C986 C989 1.403 . S
C987 C984 1.403 . S
C987 C988 1.524 . S
C987 C991 1.400 . S
C988 H973 0.960 . S
C988 H974 0.960 . S
C988 H975 0.960 . S
C988 C987 1.524 . S
C989 C986 1.403 . S
C989 C990 1.392 . S
C989 C993 1.495 . S
C990 C989 1.392 . S
C990 C991 1.385 . S
C990 C992 1.478 . S
C991 H985 0.930 . S
C991 C987 1.400 . S
C991 C990 1.385 . S
C992 C990 1.478 . S
C992 C994 1.381 . S
C992 C998 1.383 . S
C993 C989 1.495 . S
C993 H999 0.959 . S
C993 H1000 0.961 . S
C993 H1001 0.960 . S
C994 C992 1.381 . S
C994 C995 1.394 . S
C994 H1002 0.930 . S
C995 C994 1.394 . S
C995 C996 1.383 . S
C995 H1003 0.929 . S
C996 C995 1.383 . S
C996 C997 1.377 . S
C997 H981 0.930 . S
C997 C996 1.377 . S
C997 C998 1.379 . S
C998 H982 0.931 . S
C998 C992 1.383 . S
C998 C997 1.379 . S
H999 C993 0.959 . S
H1000 C993 0.961 . S
H1001 C993 0.960 . S
H1002 C994 0.930 . S
H1003 C995 0.929 . S
H1004 C1012 0.929 . S
H1005 C1014 0.930 . S
H1006 C1016 0.930 . S
H1007 C1019 0.929 . S
H1008 C1022 0.930 . S
H1009 C1024 0.960 . S
H1010 C1024 0.960 . S
H1011 C1024 0.960 . S
C1012 H1004 0.929 . S
C1012 C1013 1.377 . S
C1012 C1014 1.384 . S
C1013 C1012 1.377 . S
C1013 C1019 1.390 . S
C1014 H1005 0.930 . S
C1014 C1012 1.384 . S
C1014 C1015 1.372 . S
C1015 C1014 1.372 . S
C1015 C1016 1.400 . S
C1015 C1020 1.490 . S
C1016 H1006 0.930 . S
C1016 C1015 1.400 . S
C1016 C1019 1.386 . S
H1017 C1033 0.930 . S
H1018 C1034 0.931 . S
C1019 H1007 0.929 . S
C1019 C1013 1.390 . S
C1019 C1016 1.386 . S
C1020 C1015 1.490 . S
C1020 C1022 1.395 . S
C1020 C1023 1.403 . S
H1021 C1027 0.930 . S
C1022 H1008 0.930 . S
C1022 C1020 1.395 . S
C1022 C1025 1.403 . S
C1023 C1020 1.403 . S
C1023 C1024 1.524 . S
C1023 C1027 1.400 . S
C1024 H1009 0.960 . S
C1024 H1010 0.960 . S
C1024 H1011 0.960 . S
C1024 C1023 1.524 . S
C1025 C1022 1.403 . S
C1025 C1026 1.392 . S
C1025 C1029 1.495 . S
C1026 C1025 1.392 . S
C1026 C1027 1.385 . S
C1026 C1028 1.478 . S
C1027 H1021 0.930 . S
C1027 C1023 1.400 . S
C1027 C1026 1.385 . S
C1028 C1026 1.478 . S
C1028 C1030 1.381 . S
C1028 C1034 1.383 . S
C1029 C1025 1.495 . S
C1029 H1035 0.959 . S
C1029 H1036 0.961 . S
C1029 H1037 0.960 . S
C1030 C1028 1.381 . S
C1030 C1031 1.394 . S
C1030 H1038 0.930 . S
C1031 C1030 1.394 . S
C1031 C1032 1.383 . S
C1031 H1039 0.929 . S
C1032 C1031 1.383 . S
C1032 C1033 1.377 . S
C1033 H1017 0.930 . S
C1033 C1032 1.377 . S
C1033 C1034 1.379 . S
C1034 H1018 0.931 . S
C1034 C1028 1.383 . S
C1034 C1033 1.379 . S
H1035 C1029 0.959 . S
H1036 C1029 0.961 . S
H1037 C1029 0.960 . S
H1038 C1030 0.930 . S
H1039 C1031 0.929 . S
H1040 C1048 0.929 . S
H1041 C1050 0.930 . S
H1042 C1052 0.930 . S
H1043 C1055 0.929 . S
H1044 C1058 0.930 . S
H1045 C1060 0.960 . S
H1046 C1060 0.960 . S
H1047 C1060 0.960 . S
C1048 H1040 0.929 . S
C1048 C1049 1.377 . S
C1048 C1050 1.384 . S
C1049 C1048 1.377 . S
C1049 C1055 1.390 . S
C1050 H1041 0.930 . S
C1050 C1048 1.384 . S
C1050 C1051 1.372 . S
C1051 C1050 1.372 . S
C1051 C1052 1.400 . S
C1051 C1056 1.490 . S
C1052 H1042 0.930 . S
C1052 C1051 1.400 . S
C1052 C1055 1.386 . S
H1053 C1069 0.930 . S
H1054 C1070 0.931 . S
C1055 H1043 0.929 . S
C1055 C1049 1.390 . S
C1055 C1052 1.386 . S
C1056 C1051 1.490 . S
C1056 C1058 1.395 . S
C1056 C1059 1.403 . S
H1057 C1063 0.930 . S
C1058 H1044 0.930 . S
C1058 C1056 1.395 . S
C1058 C1061 1.403 . S
C1059 C1056 1.403 . S
C1059 C1060 1.524 . S
C1059 C1063 1.400 . S
C1060 H1045 0.960 . S
C1060 H1046 0.960 . S
C1060 H1047 0.960 . S
C1060 C1059 1.524 . S
C1061 C1058 1.403 . S
C1061 C1062 1.392 . S
C1061 C1065 1.495 . S
C1062 C1061 1.392 . S
C1062 C1063 1.385 . S
C1062 C1064 1.478 . S
C1063 H1057 0.930 . S
C1063 C1059 1.400 . S
C1063 C1062 1.385 . S
C1064 C1062 1.478 . S
C1064 C1066 1.381 . S
C1064 C1070 1.383 . S
C1065 C1061 1.495 . S
C1065 H1071 0.959 . S
C1065 H1072 0.961 . S
C1065 H1073 0.960 . S
C1066 C1064 1.381 . S
C1066 C1067 1.394 . S
C1066 H1074 0.930 . S
C1067 C1066 1.394 . S
C1067 C1068 1.383 . S
C1067 H1075 0.929 . S
C1068 C1067 1.383 . S
C1068 C1069 1.377 . S
C1069 H1053 0.930 . S
C1069 C1068 1.377 . S
C1069 C1070 1.379 . S
C1070 H1054 0.931 . S
C1070 C1064 1.383 . S
C1070 C1069 1.379 . S
H1071 C1065 0.959 . S
H1072 C1065 0.961 . S
H1073 C1065 0.960 . S
H1074 C1066 0.930 . S
H1075 C1067 0.929 . S
H1076 C1084 0.929 . S
H1077 C1086 0.930 . S
H1078 C1088 0.930 . S
H1079 C1091 0.929 . S
H1080 C1094 0.930 . S
H1081 C1096 0.960 . S
H1082 C1096 0.960 . S
H1083 C1096 0.960 . S
C1084 H1076 0.929 . S
C1084 C1085 1.377 . S
C1084 C1086 1.384 . S
C1085 C1084 1.377 . S
C1085 C1091 1.390 . S
C1086 H1077 0.930 . S
C1086 C1084 1.384 . S
C1086 C1087 1.372 . S
C1087 C1086 1.372 . S
C1087 C1088 1.400 . S
C1087 C1092 1.490 . S
C1088 H1078 0.930 . S
C1088 C1087 1.400 . S
C1088 C1091 1.386 . S
H1089 C1105 0.930 . S
H1090 C1106 0.931 . S
C1091 H1079 0.929 . S
C1091 C1085 1.390 . S
C1091 C1088 1.386 . S
C1092 C1087 1.490 . S
C1092 C1094 1.395 . S
C1092 C1095 1.403 . S
H1093 C1099 0.930 . S
C1094 H1080 0.930 . S
C1094 C1092 1.395 . S
C1094 C1097 1.403 . S
C1095 C1092 1.403 . S
C1095 C1096 1.524 . S
C1095 C1099 1.400 . S
C1096 H1081 0.960 . S
C1096 H1082 0.960 . S
C1096 H1083 0.960 . S
C1096 C1095 1.524 . S
C1097 C1094 1.403 . S
C1097 C1098 1.392 . S
C1097 C1101 1.495 . S
C1098 C1097 1.392 . S
C1098 C1099 1.385 . S
C1098 C1100 1.478 . S
C1099 H1093 0.930 . S
C1099 C1095 1.400 . S
C1099 C1098 1.385 . S
C1100 C1098 1.478 . S
C1100 C1102 1.381 . S
C1100 C1106 1.383 . S
C1101 C1097 1.495 . S
C1101 H1107 0.959 . S
C1101 H1108 0.961 . S
C1101 H1109 0.960 . S
C1102 C1100 1.381 . S
C1102 C1103 1.394 . S
C1102 H1110 0.930 . S
C1103 C1102 1.394 . S
C1103 C1104 1.383 . S
C1103 H1111 0.923 1_554 S
C1104 C1103 1.383 . S
C1104 C1105 1.377 . S
C1105 H1089 0.930 . S
C1105 C1104 1.377 . S
C1105 C1106 1.379 . S
C1106 H1090 0.931 . S
C1106 C1100 1.383 . S
C1106 C1105 1.379 . S
H1107 C1101 0.959 . S
H1108 C1101 0.961 . S
H1109 C1101 0.960 . S
H1110 C1102 0.930 . S
H1111 C1103 0.923 1_556 S
H1112 C1120 0.929 . S
H1113 C1122 0.930 . S
H1114 C1124 0.930 . S
H1115 C1127 0.929 . S
H1116 C1130 0.930 . S
H1117 C1132 0.960 . S
H1118 C1132 0.960 . S
H1119 C1132 0.960 . S
C1120 H1112 0.929 . S
C1120 C1121 1.377 . S
C1120 C1122 1.384 . S
C1121 C1120 1.377 . S
C1121 C1127 1.390 . S
C1122 H1113 0.930 . S
C1122 C1120 1.384 . S
C1122 C1123 1.372 . S
C1123 C1122 1.372 . S
C1123 C1124 1.400 . S
C1123 C1128 1.490 . S
C1124 H1114 0.930 . S
C1124 C1123 1.400 . S
C1124 C1127 1.386 . S
H1125 C1141 0.930 . S
H1126 C1142 0.931 . S
C1127 H1115 0.929 . S
C1127 C1121 1.390 . S
C1127 C1124 1.386 . S
C1128 C1123 1.490 . S
C1128 C1130 1.395 . S
C1128 C1131 1.403 . S
H1129 C1135 0.930 . S
C1130 H1116 0.930 . S
C1130 C1128 1.395 . S
C1130 C1133 1.403 . S
C1131 C1128 1.403 . S
C1131 C1132 1.524 . S
C1131 C1135 1.400 . S
C1132 H1117 0.960 . S
C1132 H1118 0.960 . S
C1132 H1119 0.960 . S
C1132 C1131 1.524 . S
C1133 C1130 1.403 . S
C1133 C1134 1.392 . S
C1133 C1137 1.495 . S
C1134 C1133 1.392 . S
C1134 C1135 1.385 . S
C1134 C1136 1.478 . S
C1135 H1129 0.930 . S
C1135 C1131 1.400 . S
C1135 C1134 1.385 . S
C1136 C1134 1.478 . S
C1136 C1138 1.381 . S
C1136 C1142 1.383 . S
C1137 C1133 1.495 . S
C1137 H1143 0.959 . S
C1137 H1144 0.961 . S
C1137 H1145 0.960 . S
C1138 C1136 1.381 . S
C1138 C1139 1.394 . S
C1138 H1146 0.930 . S
C1139 C1138 1.394 . S
C1139 C1140 1.383 . S
C1139 H1147 0.929 . S
C1140 C1139 1.383 . S
C1140 C1141 1.377 . S
C1141 H1125 0.930 . S
C1141 C1140 1.377 . S
C1141 C1142 1.379 . S
C1142 H1126 0.931 . S
C1142 C1136 1.383 . S
C1142 C1141 1.379 . S
H1143 C1137 0.959 . S
H1144 C1137 0.961 . S
H1145 C1137 0.960 . S
H1146 C1138 0.930 . S
H1147 C1139 0.929 . S
H1148 C1156 0.929 . S
H1149 C1158 0.930 . S
H1150 C1160 0.930 . S
H1151 C1163 0.929 . S
H1152 C1166 0.930 . S
H1153 C1168 0.960 . S
H1154 C1168 0.960 . S
H1155 C1168 0.960 . S
C1156 H1148 0.929 . S
C1156 C1157 1.377 . S
C1156 C1158 1.384 . S
C1157 C1156 1.377 . S
C1157 C1163 1.390 . S
C1158 H1149 0.930 . S
C1158 C1156 1.384 . S
C1158 C1159 1.372 . S
C1159 C1158 1.372 . S
C1159 C1160 1.400 . S
C1159 C1164 1.490 . S
C1160 H1150 0.930 . S
C1160 C1159 1.400 . S
C1160 C1163 1.386 . S
H1161 C1177 0.930 . S
H1162 C1178 0.931 . S
C1163 H1151 0.929 . S
C1163 C1157 1.390 . S
C1163 C1160 1.386 . S
C1164 C1159 1.490 . S
C1164 C1166 1.395 . S
C1164 C1167 1.403 . S
H1165 C1171 0.930 . S
C1166 H1152 0.930 . S
C1166 C1164 1.395 . S
C1166 C1169 1.403 . S
C1167 C1164 1.403 . S
C1167 C1168 1.524 . S
C1167 C1171 1.400 . S
C1168 H1153 0.960 . S
C1168 H1154 0.960 . S
C1168 H1155 0.960 . S
C1168 C1167 1.524 . S
C1169 C1166 1.403 . S
C1169 C1170 1.392 . S
C1169 C1173 1.495 . S
C1170 C1169 1.392 . S
C1170 C1171 1.385 . S
C1170 C1172 1.478 . S
C1171 H1165 0.930 . S
C1171 C1167 1.400 . S
C1171 C1170 1.385 . S
C1172 C1170 1.478 . S
C1172 C1174 1.381 . S
C1172 C1178 1.383 . S
C1173 C1169 1.495 . S
C1173 H1179 0.959 . S
C1173 H1180 0.961 . S
C1173 H1181 0.960 . S
C1174 C1172 1.381 . S
C1174 C1175 1.394 . S
C1174 H1182 0.930 . S
C1175 C1174 1.394 . S
C1175 C1176 1.383 . S
C1175 H1183 0.929 . S
C1176 C1175 1.383 . S
C1176 C1177 1.377 . S
C1177 H1161 0.930 . S
C1177 C1176 1.377 . S
C1177 C1178 1.379 . S
C1178 H1162 0.931 . S
C1178 C1172 1.383 . S
C1178 C1177 1.379 . S
H1179 C1173 0.959 . S
H1180 C1173 0.961 . S
H1181 C1173 0.960 . S
H1182 C1174 0.930 . S
H1183 C1175 0.929 . S
H1184 C1192 0.929 . S
H1185 C1194 0.930 . S
H1186 C1196 0.930 . S
H1187 C1199 0.929 . S
H1188 C1202 0.930 . S
H1189 C1204 0.960 . S
H1190 C1204 0.960 . S
H1191 C1204 0.960 . S
C1192 H1184 0.929 . S
C1192 C1193 1.377 . S
C1192 C1194 1.384 . S
C1193 C1192 1.377 . S
C1193 C1199 1.390 . S
C1194 H1185 0.930 . S
C1194 C1192 1.384 . S
C1194 C1195 1.372 . S
C1195 C1194 1.372 . S
C1195 C1196 1.400 . S
C1195 C1200 1.490 . S
C1196 H1186 0.930 . S
C1196 C1195 1.400 . S
C1196 C1199 1.386 . S
H1197 C1213 0.930 . S
H1198 C1214 0.931 . S
C1199 H1187 0.929 . S
C1199 C1193 1.390 . S
C1199 C1196 1.386 . S
C1200 C1195 1.490 . S
C1200 C1202 1.395 . S
C1200 C1203 1.403 . S
H1201 C1207 0.930 . S
C1202 H1188 0.930 . S
C1202 C1200 1.395 . S
C1202 C1205 1.403 . S
C1203 C1200 1.403 . S
C1203 C1204 1.524 . S
C1203 C1207 1.400 . S
C1204 H1189 0.960 . S
C1204 H1190 0.960 . S
C1204 H1191 0.960 . S
C1204 C1203 1.524 . S
C1205 C1202 1.403 . S
C1205 C1206 1.392 . S
C1205 C1209 1.495 . S
C1206 C1205 1.392 . S
C1206 C1207 1.385 . S
C1206 C1208 1.478 . S
C1207 H1201 0.930 . S
C1207 C1203 1.400 . S
C1207 C1206 1.385 . S
C1208 C1206 1.478 . S
C1208 C1210 1.381 . S
C1208 C1214 1.383 . S
C1209 C1205 1.495 . S
C1209 H1215 0.959 . S
C1209 H1216 0.961 . S
C1209 H1217 0.960 . S
C1210 C1208 1.381 . S
C1210 C1211 1.394 . S
C1210 H1218 0.930 . S
C1211 C1210 1.394 . S
C1211 C1212 1.383 . S
C1211 H1219 0.929 . S
C1212 C1211 1.383 . S
C1212 C1213 1.377 . S
C1213 H1197 0.930 . S
C1213 C1212 1.377 . S
C1213 C1214 1.379 . S
C1214 H1198 0.931 . S
C1214 C1208 1.383 . S
C1214 C1213 1.379 . S
H1215 C1209 0.959 . S
H1216 C1209 0.961 . S
H1217 C1209 0.960 . S
H1218 C1210 0.930 . S
H1219 C1211 0.929 . S
H1220 C1228 0.929 . S
H1221 C1230 0.930 . S
H1222 C1232 0.930 . S
H1223 C1235 0.929 . S
H1224 C1238 0.930 . S
H1225 C1240 0.960 . S
H1226 C1240 0.960 . S
H1227 C1240 0.960 . S
C1228 H1220 0.929 . S
C1228 C1229 1.377 . S
C1228 C1230 1.384 . S
C1229 C1228 1.377 . S
C1229 C1235 1.390 . S
C1230 H1221 0.930 . S
C1230 C1228 1.384 . S
C1230 C1231 1.372 . S
C1231 C1230 1.372 . S
C1231 C1232 1.400 . S
C1231 C1236 1.490 . S
C1232 H1222 0.930 . S
C1232 C1231 1.400 . S
C1232 C1235 1.386 . S
H1233 C1249 0.930 . S
H1234 C1250 0.931 . S
C1235 H1223 0.929 . S
C1235 C1229 1.390 . S
C1235 C1232 1.386 . S
C1236 C1231 1.490 . S
C1236 C1238 1.395 . S
C1236 C1239 1.403 . S
H1237 C1243 0.930 . S
C1238 H1224 0.930 . S
C1238 C1236 1.395 . S
C1238 C1241 1.403 . S
C1239 C1236 1.403 . S
C1239 C1240 1.524 . S
C1239 C1243 1.400 . S
C1240 H1225 0.960 . S
C1240 H1226 0.960 . S
C1240 H1227 0.960 . S
C1240 C1239 1.524 . S
C1241 C1238 1.403 . S
C1241 C1242 1.392 . S
C1241 C1245 1.495 . S
C1242 C1241 1.392 . S
C1242 C1243 1.385 . S
C1242 C1244 1.478 . S
C1243 H1237 0.930 . S
C1243 C1239 1.400 . S
C1243 C1242 1.385 . S
C1244 C1242 1.478 . S
C1244 C1246 1.381 . S
C1244 C1250 1.383 . S
C1245 C1241 1.495 . S
C1245 H1251 0.959 . S
C1245 H1252 0.961 . S
C1245 H1253 0.960 . S
C1246 C1244 1.381 . S
C1246 C1247 1.394 . S
C1246 H1254 0.930 . S
C1247 C1246 1.394 . S
C1247 C1248 1.383 . S
C1247 H1255 0.929 . S
C1248 C1247 1.383 . S
C1248 C1249 1.377 . S
C1249 H1233 0.930 . S
C1249 C1248 1.377 . S
C1249 C1250 1.379 . S
C1250 H1234 0.931 . S
C1250 C1244 1.383 . S
C1250 C1249 1.379 . S
H1251 C1245 0.959 . S
H1252 C1245 0.961 . S
H1253 C1245 0.960 . S
H1254 C1246 0.930 . S
H1255 C1247 0.929 . S
H1256 C1264 0.929 . S
H1257 C1266 0.930 . S
H1258 C1268 0.930 . S
H1259 C1271 0.929 . S
H1260 C1274 0.930 . S
H1261 C1276 0.960 . S
H1262 C1276 0.960 . S
H1263 C1276 0.960 . S
C1264 H1256 0.929 . S
C1264 C1265 1.377 . S
C1264 C1266 1.384 . S
C1265 C1264 1.377 . S
C1265 C1271 1.390 . S
C1266 H1257 0.930 . S
C1266 C1264 1.384 . S
C1266 C1267 1.372 . S
C1267 C1266 1.372 . S
C1267 C1268 1.400 . S
C1267 C1272 1.490 . S
C1268 H1258 0.930 . S
C1268 C1267 1.400 . S
C1268 C1271 1.386 . S
H1269 C1285 0.930 . S
H1270 C1286 0.931 . S
C1271 H1259 0.929 . S
C1271 C1265 1.390 . S
C1271 C1268 1.386 . S
C1272 C1267 1.490 . S
C1272 C1274 1.395 . S
C1272 C1275 1.403 . S
H1273 C1279 0.930 . S
C1274 H1260 0.930 . S
C1274 C1272 1.395 . S
C1274 C1277 1.403 . S
C1275 C1272 1.403 . S
C1275 C1276 1.524 . S
C1275 C1279 1.400 . S
C1276 H1261 0.960 . S
C1276 H1262 0.960 . S
C1276 H1263 0.960 . S
C1276 C1275 1.524 . S
C1277 C1274 1.403 . S
C1277 C1278 1.392 . S
C1277 C1281 1.495 . S
C1278 C1277 1.392 . S
C1278 C1279 1.385 . S
C1278 C1280 1.478 . S
C1279 H1273 0.930 . S
C1279 C1275 1.400 . S
C1279 C1278 1.385 . S
C1280 C1278 1.478 . S
C1280 C1282 1.381 . S
C1280 C1286 1.383 . S
C1281 C1277 1.495 . S
C1281 H1287 0.959 . S
C1281 H1288 0.961 . S
C1281 H1289 0.960 . S
C1282 C1280 1.381 . S
C1282 C1283 1.394 . S
C1282 H1290 0.930 . S
C1283 C1282 1.394 . S
C1283 C1284 1.383 . S
C1283 H1291 0.929 . S
C1284 C1283 1.383 . S
C1284 C1285 1.377 . S
C1285 H1269 0.930 . S
C1285 C1284 1.377 . S
C1285 C1286 1.379 . S
C1286 H1270 0.931 . S
C1286 C1280 1.383 . S
C1286 C1285 1.379 . S
H1287 C1281 0.959 . S
H1288 C1281 0.961 . S
H1289 C1281 0.960 . S
H1290 C1282 0.930 . S
H1291 C1283 0.929 . S
H1292 C1300 0.929 . S
H1293 C1302 0.930 . S
H1294 C1304 0.930 . S
H1295 C1307 0.929 . S
H1296 C1310 0.930 . S
H1297 C1312 0.960 . S
H1298 C1312 0.960 . S
H1299 C1312 0.960 . S
C1300 H1292 0.929 . S
C1300 C1301 1.377 . S
C1300 C1302 1.384 . S
C1301 C1300 1.377 . S
C1301 C1307 1.390 . S
C1302 H1293 0.930 . S
C1302 C1300 1.384 . S
C1302 C1303 1.372 . S
C1303 C1302 1.372 . S
C1303 C1304 1.400 . S
C1303 C1308 1.490 . S
C1304 H1294 0.930 . S
C1304 C1303 1.400 . S
C1304 C1307 1.386 . S
H1305 C1321 0.930 . S
H1306 C1322 0.931 . S
C1307 H1295 0.929 . S
C1307 C1301 1.390 . S
C1307 C1304 1.386 . S
C1308 C1303 1.490 . S
C1308 C1310 1.395 . S
C1308 C1311 1.403 . S
H1309 C1315 0.930 . S
C1310 H1296 0.930 . S
C1310 C1308 1.395 . S
C1310 C1313 1.403 . S
C1311 C1308 1.403 . S
C1311 C1312 1.524 . S
C1311 C1315 1.400 . S
C1312 H1297 0.960 . S
C1312 H1298 0.960 . S
C1312 H1299 0.960 . S
C1312 C1311 1.524 . S
C1313 C1310 1.403 . S
C1313 C1314 1.392 . S
C1313 C1317 1.495 . S
C1314 C1313 1.392 . S
C1314 C1315 1.385 . S
C1314 C1316 1.478 . S
C1315 H1309 0.930 . S
C1315 C1311 1.400 . S
C1315 C1314 1.385 . S
C1316 C1314 1.478 . S
C1316 C1318 1.381 . S
C1316 C1322 1.383 . S
C1317 C1313 1.495 . S
C1317 H1323 0.959 . S
C1317 H1324 0.961 . S
C1317 H1325 0.960 . S
C1318 C1316 1.381 . S
C1318 C1319 1.394 . S
C1318 H1326 0.930 . S
C1319 C1318 1.394 . S
C1319 C1320 1.383 . S
C1319 H1327 0.929 . S
C1320 C1319 1.383 . S
C1320 C1321 1.377 . S
C1321 H1305 0.930 . S
C1321 C1320 1.377 . S
C1321 C1322 1.379 . S
C1322 H1306 0.931 . S
C1322 C1316 1.383 . S
C1322 C1321 1.379 . S
H1323 C1317 0.959 . S
H1324 C1317 0.961 . S
H1325 C1317 0.960 . S
H1326 C1318 0.930 . S
H1327 C1319 0.929 . S
H1328 C1336 0.929 . S
H1329 C1338 0.930 . S
H1330 C1340 0.930 . S
H1331 C1343 0.929 . S
H1332 C1346 0.930 . S
H1333 C1348 0.960 . S
H1334 C1348 0.960 . S
H1335 C1348 0.960 . S
C1336 H1328 0.929 . S
C1336 C1337 1.377 . S
C1336 C1338 1.384 . S
C1337 C1336 1.377 . S
C1337 C1343 1.390 . S
C1338 H1329 0.930 . S
C1338 C1336 1.384 . S
C1338 C1339 1.372 . S
C1339 C1338 1.372 . S
C1339 C1340 1.400 . S
C1339 C1344 1.490 . S
C1340 H1330 0.930 . S
C1340 C1339 1.400 . S
C1340 C1343 1.386 . S
H1341 C1357 0.930 . S
H1342 C1358 0.931 . S
C1343 H1331 0.929 . S
C1343 C1337 1.390 . S
C1343 C1340 1.386 . S
C1344 C1339 1.490 . S
C1344 C1346 1.395 . S
C1344 C1347 1.403 . S
H1345 C1351 0.930 . S
C1346 H1332 0.930 . S
C1346 C1344 1.395 . S
C1346 C1349 1.403 . S
C1347 C1344 1.403 . S
C1347 C1348 1.524 . S
C1347 C1351 1.400 . S
C1348 H1333 0.960 . S
C1348 H1334 0.960 . S
C1348 H1335 0.960 . S
C1348 C1347 1.524 . S
C1349 C1346 1.403 . S
C1349 C1350 1.392 . S
C1349 C1353 1.495 . S
C1350 C1349 1.392 . S
C1350 C1351 1.385 . S
C1350 C1352 1.478 . S
C1351 H1345 0.930 . S
C1351 C1347 1.400 . S
C1351 C1350 1.385 . S
C1352 C1350 1.478 . S
C1352 C1354 1.381 . S
C1352 C1358 1.383 . S
C1353 C1349 1.495 . S
C1353 H1359 0.959 . S
C1353 H1360 0.961 . S
C1353 H1361 0.960 . S
C1354 C1352 1.381 . S
C1354 C1355 1.394 . S
C1354 H1362 0.930 . S
C1355 C1354 1.394 . S
C1355 C1356 1.383 . S
C1355 H1363 0.929 . S
C1356 C1355 1.383 . S
C1356 C1357 1.377 . S
C1357 H1341 0.930 . S
C1357 C1356 1.377 . S
C1357 C1358 1.379 . S
C1358 H1342 0.931 . S
C1358 C1352 1.383 . S
C1358 C1357 1.379 . S
H1359 C1353 0.959 . S
H1360 C1353 0.961 . S
H1361 C1353 0.960 . S
H1362 C1354 0.930 . S
H1363 C1355 0.929 . S
H1364 C1372 0.929 . S
H1365 C1374 0.930 . S
H1366 C1376 0.930 . S
H1367 C1379 0.929 . S
H1368 C1382 0.930 . S
H1369 C1384 0.960 . S
H1370 C1384 0.960 . S
H1371 C1384 0.960 . S
C1372 H1364 0.929 . S
C1372 C1373 1.377 . S
C1372 C1374 1.384 . S
C1373 C1372 1.377 . S
C1373 C1379 1.390 . S
C1374 H1365 0.930 . S
C1374 C1372 1.384 . S
C1374 C1375 1.372 . S
C1375 C1374 1.372 . S
C1375 C1376 1.400 . S
C1375 C1380 1.490 . S
C1376 H1366 0.930 . S
C1376 C1375 1.400 . S
C1376 C1379 1.386 . S
H1377 C1393 0.930 . S
H1378 C1394 0.931 . S
C1379 H1367 0.929 . S
C1379 C1373 1.390 . S
C1379 C1376 1.386 . S
C1380 C1375 1.490 . S
C1380 C1382 1.395 . S
C1380 C1383 1.403 . S
H1381 C1387 0.930 . S
C1382 H1368 0.930 . S
C1382 C1380 1.395 . S
C1382 C1385 1.403 . S
C1383 C1380 1.403 . S
C1383 C1384 1.524 . S
C1383 C1387 1.400 . S
C1384 H1369 0.960 . S
C1384 H1370 0.960 . S
C1384 H1371 0.960 . S
C1384 C1383 1.524 . S
C1385 C1382 1.403 . S
C1385 C1386 1.392 . S
C1385 C1389 1.495 . S
C1386 C1385 1.392 . S
C1386 C1387 1.385 . S
C1386 C1388 1.478 . S
C1387 H1381 0.930 . S
C1387 C1383 1.400 . S
C1387 C1386 1.385 . S
C1388 C1386 1.478 . S
C1388 C1390 1.381 . S
C1388 C1394 1.383 . S
C1389 C1385 1.495 . S
C1389 H1395 0.959 . S
C1389 H1396 0.961 . S
C1389 H1397 0.960 . S
C1390 C1388 1.381 . S
C1390 C1391 1.394 . S
C1390 H1398 0.930 . S
C1391 C1390 1.394 . S
C1391 C1392 1.383 . S
C1391 H1399 0.929 . S
C1392 C1391 1.383 . S
C1392 C1393 1.377 . S
C1393 H1377 0.930 . S
C1393 C1392 1.377 . S
C1393 C1394 1.379 . S
C1394 H1378 0.931 . S
C1394 C1388 1.383 . S
C1394 C1393 1.379 . S
H1395 C1389 0.959 . S
H1396 C1389 0.961 . S
H1397 C1389 0.960 . S
H1398 C1390 0.930 . S
H1399 C1391 0.929 . S
H1400 C1408 0.929 . S
H1401 C1410 0.930 . S
H1402 C1412 0.930 . S
H1403 C1415 0.929 . S
H1404 C1418 0.930 . S
H1405 C1420 0.960 . S
H1406 C1420 0.960 . S
H1407 C1420 0.960 . S
C1408 H1400 0.929 . S
C1408 C1409 1.377 . S
C1408 C1410 1.384 . S
C1409 C1408 1.377 . S
C1409 C1415 1.390 . S
C1410 H1401 0.930 . S
C1410 C1408 1.384 . S
C1410 C1411 1.372 . S
C1411 C1410 1.372 . S
C1411 C1412 1.400 . S
C1411 C1416 1.490 . S
C1412 H1402 0.930 . S
C1412 C1411 1.400 . S
C1412 C1415 1.386 . S
H1413 C1429 0.930 . S
H1414 C1430 0.931 . S
C1415 H1403 0.929 . S
C1415 C1409 1.390 . S
C1415 C1412 1.386 . S
C1416 C1411 1.490 . S
C1416 C1418 1.395 . S
C1416 C1419 1.403 . S
H1417 C1423 0.930 . S
C1418 H1404 0.930 . S
C1418 C1416 1.395 . S
C1418 C1421 1.403 . S
C1419 C1416 1.403 . S
C1419 C1420 1.524 . S
C1419 C1423 1.400 . S
C1420 H1405 0.960 . S
C1420 H1406 0.960 . S
C1420 H1407 0.960 . S
C1420 C1419 1.524 . S
C1421 C1418 1.403 . S
C1421 C1422 1.392 . S
C1421 C1425 1.495 . S
C1422 C1421 1.392 . S
C1422 C1423 1.385 . S
C1422 C1424 1.478 . S
C1423 H1417 0.930 . S
C1423 C1419 1.400 . S
C1423 C1422 1.385 . S
C1424 C1422 1.478 . S
C1424 C1426 1.381 . S
C1424 C1430 1.383 . S
C1425 C1421 1.495 . S
C1425 H1431 0.959 . S
C1425 H1432 0.961 . S
C1425 H1433 0.960 . S
C1426 C1424 1.381 . S
C1426 C1427 1.394 . S
C1426 H1434 0.930 . S
C1427 C1426 1.394 . S
C1427 C1428 1.383 . S
C1427 H1435 0.929 . S
C1428 C1427 1.383 . S
C1428 C1429 1.377 . S
C1429 H1413 0.930 . S
C1429 C1428 1.377 . S
C1429 C1430 1.379 . S
C1430 H1414 0.931 . S
C1430 C1424 1.383 . S
C1430 C1429 1.379 . S
H1431 C1425 0.959 . S
H1432 C1425 0.961 . S
H1433 C1425 0.960 . S
H1434 C1426 0.930 . S
H1435 C1427 0.929 . S
H1436 C1444 0.929 . S
H1437 C1446 0.930 . S
H1438 C1448 0.930 . S
H1439 C1451 0.929 . S
H1440 C1454 0.930 . S
H1441 C1456 0.960 . S
H1442 C1456 0.960 . S
H1443 C1456 0.960 . S
C1444 H1436 0.929 . S
C1444 C1445 1.377 . S
C1444 C1446 1.384 . S
C1445 C1444 1.377 . S
C1445 C1451 1.390 . S
C1446 H1437 0.930 . S
C1446 C1444 1.384 . S
C1446 C1447 1.372 . S
C1447 C1446 1.372 . S
C1447 C1448 1.400 . S
C1447 C1452 1.490 . S
C1448 H1438 0.930 . S
C1448 C1447 1.400 . S
C1448 C1451 1.386 . S
H1449 C1465 0.930 . S
H1450 C1466 0.931 . S
C1451 H1439 0.929 . S
C1451 C1445 1.390 . S
C1451 C1448 1.386 . S
C1452 C1447 1.490 . S
C1452 C1454 1.395 . S
C1452 C1455 1.403 . S
H1453 C1459 0.930 . S
C1454 H1440 0.930 . S
C1454 C1452 1.395 . S
C1454 C1457 1.403 . S
C1455 C1452 1.403 . S
C1455 C1456 1.524 . S
C1455 C1459 1.400 . S
C1456 H1441 0.960 . S
C1456 H1442 0.960 . S
C1456 H1443 0.960 . S
C1456 C1455 1.524 . S
C1457 C1454 1.403 . S
C1457 C1458 1.392 . S
C1457 C1461 1.495 . S
C1458 C1457 1.392 . S
C1458 C1459 1.385 . S
C1458 C1460 1.478 . S
C1459 H1453 0.930 . S
C1459 C1455 1.400 . S
C1459 C1458 1.385 . S
C1460 C1458 1.478 . S
C1460 C1462 1.381 . S
C1460 C1466 1.383 . S
C1461 C1457 1.495 . S
C1461 H1467 0.959 . S
C1461 H1468 0.961 . S
C1461 H1469 0.960 . S
C1462 C1460 1.381 . S
C1462 C1463 1.394 . S
C1462 H1470 0.930 . S
C1463 C1462 1.394 . S
C1463 C1464 1.383 . S
C1463 H1471 0.929 . S
C1464 C1463 1.383 . S
C1464 C1465 1.377 . S
C1465 H1449 0.930 . S
C1465 C1464 1.377 . S
C1465 C1466 1.379 . S
C1466 H1450 0.931 . S
C1466 C1460 1.383 . S
C1466 C1465 1.379 . S
H1467 C1461 0.959 . S
H1468 C1461 0.961 . S
H1469 C1461 0.960 . S
H1470 C1462 0.930 . S
H1471 C1463 0.929 . S
H1472 C1480 0.929 . S
H1473 C1482 0.930 . S
H1474 C1484 0.930 . S
H1475 C1487 0.929 . S
H1476 C1490 0.930 . S
H1477 C1492 0.960 . S
H1478 C1492 0.960 . S
H1479 C1492 0.960 . S
C1480 H1472 0.929 . S
C1480 C1481 1.377 . S
C1480 C1482 1.384 . S
C1481 C1480 1.377 . S
C1481 C1487 1.390 . S
C1482 H1473 0.930 . S
C1482 C1480 1.384 . S
C1482 C1483 1.372 . S
C1483 C1482 1.372 . S
C1483 C1484 1.400 . S
C1483 C1488 1.490 . S
C1484 H1474 0.930 . S
C1484 C1483 1.400 . S
C1484 C1487 1.386 . S
H1485 C1501 0.930 . S
H1486 C1502 0.931 . S
C1487 H1475 0.929 . S
C1487 C1481 1.390 . S
C1487 C1484 1.386 . S
C1488 C1483 1.490 . S
C1488 C1490 1.395 . S
C1488 C1491 1.403 . S
H1489 C1495 0.930 . S
C1490 H1476 0.930 . S
C1490 C1488 1.395 . S
C1490 C1493 1.403 . S
C1491 C1488 1.403 . S
C1491 C1492 1.524 . S
C1491 C1495 1.400 . S
C1492 H1477 0.960 . S
C1492 H1478 0.960 . S
C1492 H1479 0.960 . S
C1492 C1491 1.524 . S
C1493 C1490 1.403 . S
C1493 C1494 1.392 . S
C1493 C1497 1.495 . S
C1494 C1493 1.392 . S
C1494 C1495 1.385 . S
C1494 C1496 1.478 . S
C1495 H1489 0.930 . S
C1495 C1491 1.400 . S
C1495 C1494 1.385 . S
C1496 C1494 1.478 . S
C1496 C1498 1.381 . S
C1496 C1502 1.383 . S
C1497 C1493 1.495 . S
C1497 H1503 0.959 . S
C1497 H1504 0.961 . S
C1497 H1505 0.960 . S
C1498 C1496 1.381 . S
C1498 C1499 1.394 . S
C1498 H1506 0.930 . S
C1499 C1498 1.394 . S
C1499 C1500 1.383 . S
C1499 H1507 0.929 . S
C1500 C1499 1.383 . S
C1500 C1501 1.377 . S
C1501 H1485 0.930 . S
C1501 C1500 1.377 . S
C1501 C1502 1.379 . S
C1502 H1486 0.931 . S
C1502 C1496 1.383 . S
C1502 C1501 1.379 . S
H1503 C1497 0.959 . S
H1504 C1497 0.961 . S
H1505 C1497 0.960 . S
H1506 C1498 0.930 . S
H1507 C1499 0.929 . S
H1508 C1516 0.929 . S
H1509 C1518 0.930 . S
H1510 C1520 0.930 . S
H1511 C1523 0.929 . S
H1512 C1526 0.930 . S
H1513 C1528 0.960 . S
H1514 C1528 0.960 . S
H1515 C1528 0.960 . S
C1516 H1508 0.929 . S
C1516 C1517 1.377 . S
C1516 C1518 1.384 . S
C1517 C1516 1.377 . S
C1517 C1523 1.390 . S
C1518 H1509 0.930 . S
C1518 C1516 1.384 . S
C1518 C1519 1.372 . S
C1519 C1518 1.372 . S
C1519 C1520 1.400 . S
C1519 C1524 1.490 . S
C1520 H1510 0.930 . S
C1520 C1519 1.400 . S
C1520 C1523 1.386 . S
H1521 C1537 0.930 . S
H1522 C1538 0.931 . S
C1523 H1511 0.929 . S
C1523 C1517 1.390 . S
C1523 C1520 1.386 . S
C1524 C1519 1.490 . S
C1524 C1526 1.395 . S
C1524 C1527 1.403 . S
H1525 C1531 0.930 . S
C1526 H1512 0.930 . S
C1526 C1524 1.395 . S
C1526 C1529 1.403 . S
C1527 C1524 1.403 . S
C1527 C1528 1.524 . S
C1527 C1531 1.400 . S
C1528 H1513 0.960 . S
C1528 H1514 0.960 . S
C1528 H1515 0.960 . S
C1528 C1527 1.524 . S
C1529 C1526 1.403 . S
C1529 C1530 1.392 . S
C1529 C1533 1.495 . S
C1530 C1529 1.392 . S
C1530 C1531 1.385 . S
C1530 C1532 1.478 . S
C1531 H1525 0.930 . S
C1531 C1527 1.400 . S
C1531 C1530 1.385 . S
C1532 C1530 1.478 . S
C1532 C1534 1.381 . S
C1532 C1538 1.383 . S
C1533 C1529 1.495 . S
C1533 H1539 0.959 . S
C1533 H1540 0.961 . S
C1533 H1541 0.960 . S
C1534 C1532 1.381 . S
C1534 C1535 1.394 . S
C1534 H1542 0.930 . S
C1535 C1534 1.394 . S
C1535 C1536 1.383 . S
C1535 H1543 0.929 . S
C1536 C1535 1.383 . S
C1536 C1537 1.377 . S
C1537 H1521 0.930 . S
C1537 C1536 1.377 . S
C1537 C1538 1.379 . S
C1538 H1522 0.931 . S
C1538 C1532 1.383 . S
C1538 C1537 1.379 . S
H1539 C1533 0.959 . S
H1540 C1533 0.961 . S
H1541 C1533 0.960 . S
H1542 C1534 0.930 . S
H1543 C1535 0.929 . S
H1544 C1552 0.929 . S
H1545 C1554 0.930 . S
H1546 C1556 0.930 . S
H1547 C1559 0.929 . S
H1548 C1562 0.930 . S
H1549 C1564 0.960 . S
H1550 C1564 0.960 . S
H1551 C1564 0.960 . S
C1552 H1544 0.929 . S
C1552 C1553 1.377 . S
C1552 C1554 1.384 . S
C1553 C1552 1.377 . S
C1553 C1559 1.390 . S
C1554 H1545 0.930 . S
C1554 C1552 1.384 . S
C1554 C1555 1.372 . S
C1555 C1554 1.372 . S
C1555 C1556 1.400 . S
C1555 C1560 1.490 . S
C1556 H1546 0.930 . S
C1556 C1555 1.400 . S
C1556 C1559 1.386 . S
H1557 C1573 0.930 . S
H1558 C1574 0.931 . S
C1559 H1547 0.929 . S
C1559 C1553 1.390 . S
C1559 C1556 1.386 . S
C1560 C1555 1.490 . S
C1560 C1562 1.395 . S
C1560 C1563 1.403 . S
H1561 C1567 0.930 . S
C1562 H1548 0.930 . S
C1562 C1560 1.395 . S
C1562 C1565 1.403 . S
C1563 C1560 1.403 . S
C1563 C1564 1.524 . S
C1563 C1567 1.400 . S
C1564 H1549 0.960 . S
C1564 H1550 0.960 . S
C1564 H1551 0.960 . S
C1564 C1563 1.524 . S
C1565 C1562 1.403 . S
C1565 C1566 1.392 . S
C1565 C1569 1.495 . S
C1566 C1565 1.392 . S
C1566 C1567 1.385 . S
C1566 C1568 1.478 . S
C1567 H1561 0.930 . S
C1567 C1563 1.400 . S
C1567 C1566 1.385 . S
C1568 C1566 1.478 . S
C1568 C1570 1.381 . S
C1568 C1574 1.383 . S
C1569 C1565 1.495 . S
C1569 H1575 0.959 . S
C1569 H1576 0.961 . S
C1569 H1577 0.960 . S
C1570 C1568 1.381 . S
C1570 C1571 1.394 . S
C1570 H1578 0.930 . S
C1571 C1570 1.394 . S
C1571 C1572 1.383 . S
C1571 H1579 0.929 . S
C1572 C1571 1.383 . S
C1572 C1573 1.377 . S
C1573 H1557 0.930 . S
C1573 C1572 1.377 . S
C1573 C1574 1.379 . S
C1574 H1558 0.931 . S
C1574 C1568 1.383 . S
C1574 C1573 1.379 . S
H1575 C1569 0.959 . S
H1576 C1569 0.961 . S
H1577 C1569 0.960 . S
H1578 C1570 0.930 . S
H1579 C1571 0.929 . S
H1580 C1588 0.929 . S
H1581 C1590 0.930 . S
H1582 C1592 0.930 . S
H1583 C1595 0.929 . S
H1584 C1598 0.930 . S
H1585 C1600 0.960 . S
H1586 C1600 0.960 . S
H1587 C1600 0.960 . S
C1588 H1580 0.929 . S
C1588 C1589 1.377 . S
C1588 C1590 1.384 . S
C1589 C1588 1.377 . S
C1589 C1595 1.390 . S
C1590 H1581 0.930 . S
C1590 C1588 1.384 . S
C1590 C1591 1.372 . S
C1591 C1590 1.372 . S
C1591 C1592 1.400 . S
C1591 C1596 1.490 . S
C1592 H1582 0.930 . S
C1592 C1591 1.400 . S
C1592 C1595 1.386 . S
H1593 C1609 0.930 . S
H1594 C1610 0.931 . S
C1595 H1583 0.929 . S
C1595 C1589 1.390 . S
C1595 C1592 1.386 . S
C1596 C1591 1.490 . S
C1596 C1598 1.395 . S
C1596 C1599 1.403 . S
H1597 C1603 0.930 . S
C1598 H1584 0.930 . S
C1598 C1596 1.395 . S
C1598 C1601 1.403 . S
C1599 C1596 1.403 . S
C1599 C1600 1.524 . S
C1599 C1603 1.400 . S
C1600 H1585 0.960 . S
C1600 H1586 0.960 . S
C1600 H1587 0.960 . S
C1600 C1599 1.524 . S
C1601 C1598 1.403 . S
C1601 C1602 1.392 . S
C1601 C1605 1.495 . S
C1602 C1601 1.392 . S
C1602 C1603 1.385 . S
C1602 C1604 1.478 . S
C1603 H1597 0.930 . S
C1603 C1599 1.400 . S
C1603 C1602 1.385 . S
C1604 C1602 1.478 . S
C1604 C1606 1.381 . S
C1604 C1610 1.383 . S
C1605 C1601 1.495 . S
C1605 H1611 0.959 . S
C1605 H1612 0.961 . S
C1605 H1613 0.960 . S
C1606 C1604 1.381 . S
C1606 C1607 1.394 . S
C1606 H1614 0.930 . S
C1607 C1606 1.394 . S
C1607 C1608 1.383 . S
C1607 H1615 0.929 . S
C1608 C1607 1.383 . S
C1608 C1609 1.377 . S
C1609 H1593 0.930 . S
C1609 C1608 1.377 . S
C1609 C1610 1.379 . S
C1610 H1594 0.931 . S
C1610 C1604 1.383 . S
C1610 C1609 1.379 . S
H1611 C1605 0.959 . S
H1612 C1605 0.961 . S
H1613 C1605 0.960 . S
H1614 C1606 0.930 . S
H1615 C1607 0.929 . S
H1616 C1624 0.929 . S
H1617 C1626 0.930 . S
H1618 C1628 0.930 . S
H1619 C1631 0.929 . S
H1620 C1634 0.930 . S
H1621 C1636 0.960 . S
H1622 C1636 0.960 . S
H1623 C1636 0.960 . S
C1624 H1616 0.929 . S
C1624 C1625 1.377 . S
C1624 C1626 1.384 . S
C1625 C1624 1.377 . S
C1625 C1631 1.390 . S
C1626 H1617 0.930 . S
C1626 C1624 1.384 . S
C1626 C1627 1.372 . S
C1627 C1626 1.372 . S
C1627 C1628 1.400 . S
C1627 C1632 1.490 . S
C1628 H1618 0.930 . S
C1628 C1627 1.400 . S
C1628 C1631 1.386 . S
H1629 C1645 0.930 . S
H1630 C1646 0.931 . S
C1631 H1619 0.929 . S
C1631 C1625 1.390 . S
C1631 C1628 1.386 . S
C1632 C1627 1.490 . S
C1632 C1634 1.395 . S
C1632 C1635 1.403 . S
H1633 C1639 0.930 . S
C1634 H1620 0.930 . S
C1634 C1632 1.395 . S
C1634 C1637 1.403 . S
C1635 C1632 1.403 . S
C1635 C1636 1.524 . S
C1635 C1639 1.400 . S
C1636 H1621 0.960 . S
C1636 H1622 0.960 . S
C1636 H1623 0.960 . S
C1636 C1635 1.524 . S
C1637 C1634 1.403 . S
C1637 C1638 1.392 . S
C1637 C1641 1.495 . S
C1638 C1637 1.392 . S
C1638 C1639 1.385 . S
C1638 C1640 1.478 . S
C1639 H1633 0.930 . S
C1639 C1635 1.400 . S
C1639 C1638 1.385 . S
C1640 C1638 1.478 . S
C1640 C1642 1.381 . S
C1640 C1646 1.383 . S
C1641 C1637 1.495 . S
C1641 H1647 0.959 . S
C1641 H1648 0.961 . S
C1641 H1649 0.960 . S
C1642 C1640 1.381 . S
C1642 C1643 1.394 . S
C1642 H1650 0.930 . S
C1643 C1642 1.394 . S
C1643 C1644 1.383 . S
C1643 H1651 0.929 . S
C1644 C1643 1.383 . S
C1644 C1645 1.377 . S
C1645 H1629 0.930 . S
C1645 C1644 1.377 . S
C1645 C1646 1.379 . S
C1646 H1630 0.931 . S
C1646 C1640 1.383 . S
C1646 C1645 1.379 . S
H1647 C1641 0.959 . S
H1648 C1641 0.961 . S
H1649 C1641 0.960 . S
H1650 C1642 0.930 . S
H1651 C1643 0.929 . S
H1652 C1660 0.929 . S
H1653 C1662 0.930 . S
H1654 C1664 0.930 . S
H1655 C1667 0.929 . S
H1656 C1670 0.930 . S
H1657 C1672 0.960 . S
H1658 C1672 0.960 . S
H1659 C1672 0.960 . S
C1660 H1652 0.929 . S
C1660 C1661 1.377 . S
C1660 C1662 1.384 . S
C1661 C1660 1.377 . S
C1661 C1667 1.390 . S
C1662 H1653 0.930 . S
C1662 C1660 1.384 . S
C1662 C1663 1.372 . S
C1663 C1662 1.372 . S
C1663 C1664 1.400 . S
C1663 C1668 1.490 . S
C1664 H1654 0.930 . S
C1664 C1663 1.400 . S
C1664 C1667 1.386 . S
H1665 C1681 0.930 . S
H1666 C1682 0.931 . S
C1667 H1655 0.929 . S
C1667 C1661 1.390 . S
C1667 C1664 1.386 . S
C1668 C1663 1.490 . S
C1668 C1670 1.395 . S
C1668 C1671 1.403 . S
H1669 C1675 0.930 . S
C1670 H1656 0.930 . S
C1670 C1668 1.395 . S
C1670 C1673 1.403 . S
C1671 C1668 1.403 . S
C1671 C1672 1.524 . S
C1671 C1675 1.400 . S
C1672 H1657 0.960 . S
C1672 H1658 0.960 . S
C1672 H1659 0.960 . S
C1672 C1671 1.524 . S
C1673 C1670 1.403 . S
C1673 C1674 1.392 . S
C1673 C1677 1.495 . S
C1674 C1673 1.392 . S
C1674 C1675 1.385 . S
C1674 C1676 1.478 . S
C1675 H1669 0.930 . S
C1675 C1671 1.400 . S
C1675 C1674 1.385 . S
C1676 C1674 1.478 . S
C1676 C1678 1.381 . S
C1676 C1682 1.383 . S
C1677 C1673 1.495 . S
C1677 H1683 0.959 . S
C1677 H1684 0.961 . S
C1677 H1685 0.960 . S
C1678 C1676 1.381 . S
C1678 C1679 1.394 . S
C1678 H1686 0.930 . S
C1679 C1678 1.394 . S
C1679 C1680 1.383 . S
C1679 H1687 0.929 . S
C1680 C1679 1.383 . S
C1680 C1681 1.377 . S
C1681 H1665 0.930 . S
C1681 C1680 1.377 . S
C1681 C1682 1.379 . S
C1682 H1666 0.931 . S
C1682 C1676 1.383 . S
C1682 C1681 1.379 . S
H1683 C1677 0.959 . S
H1684 C1677 0.961 . S
H1685 C1677 0.960 . S
H1686 C1678 0.930 . S
H1687 C1679 0.929 . S
H1688 C1696 0.929 . S
H1689 C1698 0.930 . S
H1690 C1700 0.930 . S
H1691 C1703 0.929 . S
H1692 C1706 0.930 . S
H1693 C1708 0.960 . S
H1694 C1708 0.960 . S
H1695 C1708 0.960 . S
C1696 H1688 0.929 . S
C1696 C1697 1.377 . S
C1696 C1698 1.384 . S
C1697 C1696 1.377 . S
C1697 C1703 1.390 . S
C1698 H1689 0.930 . S
C1698 C1696 1.384 . S
C1698 C1699 1.372 . S
C1699 C1698 1.372 . S
C1699 C1700 1.400 . S
C1699 C1704 1.490 . S
C1700 H1690 0.930 . S
C1700 C1699 1.400 . S
C1700 C1703 1.386 . S
H1701 C1717 0.930 . S
H1702 C1718 0.931 . S
C1703 H1691 0.929 . S
C1703 C1697 1.390 . S
C1703 C1700 1.386 . S
C1704 C1699 1.490 . S
C1704 C1706 1.395 . S
C1704 C1707 1.403 . S
H1705 C1711 0.930 . S
C1706 H1692 0.930 . S
C1706 C1704 1.395 . S
C1706 C1709 1.403 . S
C1707 C1704 1.403 . S
C1707 C1708 1.524 . S
C1707 C1711 1.400 . S
C1708 H1693 0.960 . S
C1708 H1694 0.960 . S
C1708 H1695 0.960 . S
C1708 C1707 1.524 . S
C1709 C1706 1.403 . S
C1709 C1710 1.392 . S
C1709 C1713 1.495 . S
C1710 C1709 1.392 . S
C1710 C1711 1.385 . S
C1710 C1712 1.478 . S
C1711 H1705 0.930 . S
C1711 C1707 1.400 . S
C1711 C1710 1.385 . S
C1712 C1710 1.478 . S
C1712 C1714 1.381 . S
C1712 C1718 1.383 . S
C1713 C1709 1.495 . S
C1713 H1719 0.959 . S
C1713 H1720 0.961 . S
C1713 H1721 0.960 . S
C1714 C1712 1.381 . S
C1714 C1715 1.394 . S
C1714 H1722 0.930 . S
C1715 C1714 1.394 . S
C1715 C1716 1.383 . S
C1715 H1723 0.929 . S
C1716 C1715 1.383 . S
C1716 C1717 1.377 . S
C1717 H1701 0.930 . S
C1717 C1716 1.377 . S
C1717 C1718 1.379 . S
C1718 H1702 0.931 . S
C1718 C1712 1.383 . S
C1718 C1717 1.379 . S
H1719 C1713 0.959 . S
H1720 C1713 0.961 . S
H1721 C1713 0.960 . S
H1722 C1714 0.930 . S
H1723 C1715 0.929 . S
H1724 C1732 0.929 . S
H1725 C1734 0.930 . S
H1726 C1736 0.930 . S
H1727 C1739 0.929 . S
H1728 C1742 0.930 . S
H1729 C1744 0.960 . S
H1730 C1744 0.960 . S
H1731 C1744 0.960 . S
C1732 H1724 0.929 . S
C1732 C1733 1.377 . S
C1732 C1734 1.384 . S
C1733 C1732 1.377 . S
C1733 C1739 1.390 . S
C1734 H1725 0.930 . S
C1734 C1732 1.384 . S
C1734 C1735 1.372 . S
C1735 C1734 1.372 . S
C1735 C1736 1.400 . S
C1735 C1740 1.490 . S
C1736 H1726 0.930 . S
C1736 C1735 1.400 . S
C1736 C1739 1.386 . S
H1737 C1753 0.930 . S
H1738 C1754 0.931 . S
C1739 H1727 0.929 . S
C1739 C1733 1.390 . S
C1739 C1736 1.386 . S
C1740 C1735 1.490 . S
C1740 C1742 1.395 . S
C1740 C1743 1.403 . S
H1741 C1747 0.930 . S
C1742 H1728 0.930 . S
C1742 C1740 1.395 . S
C1742 C1745 1.403 . S
C1743 C1740 1.403 . S
C1743 C1744 1.524 . S
C1743 C1747 1.400 . S
C1744 H1729 0.960 . S
C1744 H1730 0.960 . S
C1744 H1731 0.960 . S
C1744 C1743 1.524 . S
C1745 C1742 1.403 . S
C1745 C1746 1.392 . S
C1745 C1749 1.495 . S
C1746 C1745 1.392 . S
C1746 C1747 1.385 . S
C1746 C1748 1.478 . S
C1747 H1741 0.930 . S
C1747 C1743 1.400 . S
C1747 C1746 1.385 . S
C1748 C1746 1.478 . S
C1748 C1750 1.381 . S
C1748 C1754 1.383 . S
C1749 C1745 1.495 . S
C1749 H1755 0.959 . S
C1749 H1756 0.961 . S
C1749 H1757 0.960 . S
C1750 C1748 1.381 . S
C1750 C1751 1.394 . S
C1750 H1758 0.930 . S
C1751 C1750 1.394 . S
C1751 C1752 1.383 . S
C1751 H1759 0.929 . S
C1752 C1751 1.383 . S
C1752 C1753 1.377 . S
C1753 H1737 0.930 . S
C1753 C1752 1.377 . S
C1753 C1754 1.379 . S
C1754 H1738 0.931 . S
C1754 C1748 1.383 . S
C1754 C1753 1.379 . S
H1755 C1749 0.959 . S
H1756 C1749 0.961 . S
H1757 C1749 0.960 . S
H1758 C1750 0.930 . S
H1759 C1751 0.929 . S
H1760 C1768 0.929 . S
H1761 C1770 0.930 . S
H1762 C1772 0.930 . S
H1763 C1775 0.929 . S
H1764 C1778 0.930 . S
H1765 C1780 0.960 . S
H1766 C1780 0.960 . S
H1767 C1780 0.960 . S
C1768 H1760 0.929 . S
C1768 C1769 1.377 . S
C1768 C1770 1.384 . S
C1769 C1768 1.377 . S
C1769 C1775 1.390 . S
C1770 H1761 0.930 . S
C1770 C1768 1.384 . S
C1770 C1771 1.372 . S
C1771 C1770 1.372 . S
C1771 C1772 1.400 . S
C1771 C1776 1.490 . S
C1772 H1762 0.930 . S
C1772 C1771 1.400 . S
C1772 C1775 1.386 . S
H1773 C1789 0.930 . S
H1774 C1790 0.931 . S
C1775 H1763 0.929 . S
C1775 C1769 1.390 . S
C1775 C1772 1.386 . S
C1776 C1771 1.490 . S
C1776 C1778 1.395 . S
C1776 C1779 1.403 . S
H1777 C1783 0.930 . S
C1778 H1764 0.930 . S
C1778 C1776 1.395 . S
C1778 C1781 1.403 . S
C1779 C1776 1.403 . S
C1779 C1780 1.524 . S
C1779 C1783 1.400 . S
C1780 H1765 0.960 . S
C1780 H1766 0.960 . S
C1780 H1767 0.960 . S
C1780 C1779 1.524 . S
C1781 C1778 1.403 . S
C1781 C1782 1.392 . S
C1781 C1785 1.495 . S
C1782 C1781 1.392 . S
C1782 C1783 1.385 . S
C1782 C1784 1.478 . S
C1783 H1777 0.930 . S
C1783 C1779 1.400 . S
C1783 C1782 1.385 . S
C1784 C1782 1.478 . S
C1784 C1786 1.381 . S
C1784 C1790 1.383 . S
C1785 C1781 1.495 . S
C1785 H1791 0.959 . S
C1785 H1792 0.961 . S
C1785 H1793 0.960 . S
C1786 C1784 1.381 . S
C1786 C1787 1.394 . S
C1786 H1794 0.930 . S
C1787 C1786 1.394 . S
C1787 C1788 1.383 . S
C1787 H1795 0.929 . S
C1788 C1787 1.383 . S
C1788 C1789 1.377 . S
C1789 H1773 0.930 . S
C1789 C1788 1.377 . S
C1789 C1790 1.379 . S
C1790 H1774 0.931 . S
C1790 C1784 1.383 . S
C1790 C1789 1.379 . S
H1791 C1785 0.959 . S
H1792 C1785 0.961 . S
H1793 C1785 0.960 . S
H1794 C1786 0.930 . S
H1795 C1787 0.929 . S
H1796 C1804 0.929 . S
H1797 C1806 0.930 . S
H1798 C1808 0.930 . S
H1799 C1811 0.929 . S
H1800 C1814 0.930 . S
H1801 C1816 0.960 . S
H1802 C1816 0.960 . S
H1803 C1816 0.960 . S
C1804 H1796 0.929 . S
C1804 C1805 1.377 . S
C1804 C1806 1.384 . S
C1805 C1804 1.377 . S
C1805 C1811 1.390 . S
C1806 H1797 0.930 . S
C1806 C1804 1.384 . S
C1806 C1807 1.372 . S
C1807 C1806 1.372 . S
C1807 C1808 1.400 . S
C1807 C1812 1.490 . S
C1808 H1798 0.930 . S
C1808 C1807 1.400 . S
C1808 C1811 1.386 . S
H1809 C1825 0.930 . S
H1810 C1826 0.931 . S
C1811 H1799 0.929 . S
C1811 C1805 1.390 . S
C1811 C1808 1.386 . S
C1812 C1807 1.490 . S
C1812 C1814 1.395 . S
C1812 C1815 1.403 . S
H1813 C1819 0.930 . S
C1814 H1800 0.930 . S
C1814 C1812 1.395 . S
C1814 C1817 1.403 . S
C1815 C1812 1.403 . S
C1815 C1816 1.524 . S
C1815 C1819 1.400 . S
C1816 H1801 0.960 . S
C1816 H1802 0.960 . S
C1816 H1803 0.960 . S
C1816 C1815 1.524 . S
C1817 C1814 1.403 . S
C1817 C1818 1.392 . S
C1817 C1821 1.495 . S
C1818 C1817 1.392 . S
C1818 C1819 1.385 . S
C1818 C1820 1.478 . S
C1819 H1813 0.930 . S
C1819 C1815 1.400 . S
C1819 C1818 1.385 . S
C1820 C1818 1.478 . S
C1820 C1822 1.381 . S
C1820 C1826 1.383 . S
C1821 C1817 1.495 . S
C1821 H1827 0.959 . S
C1821 H1828 0.961 . S
C1821 H1829 0.960 . S
C1822 C1820 1.381 . S
C1822 C1823 1.394 . S
C1822 H1830 0.930 . S
C1823 C1822 1.394 . S
C1823 C1824 1.383 . S
C1823 H1831 0.929 . S
C1824 C1823 1.383 . S
C1824 C1825 1.377 . S
C1825 H1809 0.930 . S
C1825 C1824 1.377 . S
C1825 C1826 1.379 . S
C1826 H1810 0.931 . S
C1826 C1820 1.383 . S
C1826 C1825 1.379 . S
H1827 C1821 0.959 . S
H1828 C1821 0.961 . S
H1829 C1821 0.960 . S
H1830 C1822 0.930 . S
H1831 C1823 0.929 . S
H1832 C1840 0.929 . S
H1833 C1842 0.930 . S
H1834 C1844 0.930 . S
H1835 C1847 0.929 . S
H1836 C1850 0.930 . S
H1837 C1852 0.960 . S
H1838 C1852 0.960 . S
H1839 C1852 0.960 . S
C1840 H1832 0.929 . S
C1840 C1841 1.377 . S
C1840 C1842 1.384 . S
C1841 C1840 1.377 . S
C1841 C1847 1.390 . S
C1842 H1833 0.930 . S
C1842 C1840 1.384 . S
C1842 C1843 1.372 . S
C1843 C1842 1.372 . S
C1843 C1844 1.400 . S
C1843 C1848 1.490 . S
C1844 H1834 0.930 . S
C1844 C1843 1.400 . S
C1844 C1847 1.386 . S
H1845 C1861 0.930 . S
H1846 C1862 0.931 . S
C1847 H1835 0.929 . S
C1847 C1841 1.390 . S
C1847 C1844 1.386 . S
C1848 C1843 1.490 . S
C1848 C1850 1.395 . S
C1848 C1851 1.403 . S
H1849 C1855 0.930 . S
C1850 H1836 0.930 . S
C1850 C1848 1.395 . S
C1850 C1853 1.403 . S
C1851 C1848 1.403 . S
C1851 C1852 1.524 . S
C1851 C1855 1.400 . S
C1852 H1837 0.960 . S
C1852 H1838 0.960 . S
C1852 H1839 0.960 . S
C1852 C1851 1.524 . S
C1853 C1850 1.403 . S
C1853 C1854 1.392 . S
C1853 C1857 1.495 . S
C1854 C1853 1.392 . S
C1854 C1855 1.385 . S
C1854 C1856 1.478 . S
C1855 H1849 0.930 . S
C1855 C1851 1.400 . S
C1855 C1854 1.385 . S
C1856 C1854 1.478 . S
C1856 C1858 1.381 . S
C1856 C1862 1.383 . S
C1857 C1853 1.495 . S
C1857 H1863 0.959 . S
C1857 H1864 0.961 . S
C1857 H1865 0.960 . S
C1858 C1856 1.381 . S
C1858 C1859 1.394 . S
C1858 H1866 0.930 . S
C1859 C1858 1.394 . S
C1859 C1860 1.383 . S
C1859 H1867 0.929 . S
C1860 C1859 1.383 . S
C1860 C1861 1.377 . S
C1861 H1845 0.930 . S
C1861 C1860 1.377 . S
C1861 C1862 1.379 . S
C1862 H1846 0.931 . S
C1862 C1856 1.383 . S
C1862 C1861 1.379 . S
H1863 C1857 0.959 . S
H1864 C1857 0.961 . S
H1865 C1857 0.960 . S
H1866 C1858 0.930 . S
H1867 C1859 0.929 . S
H1868 C1876 0.929 . S
H1869 C1878 0.930 . S
H1870 C1880 0.930 . S
H1871 C1883 0.929 . S
H1872 C1886 0.930 . S
H1873 C1888 0.960 . S
H1874 C1888 0.960 . S
H1875 C1888 0.960 . S
C1876 H1868 0.929 . S
C1876 C1877 1.377 . S
C1876 C1878 1.384 . S
C1877 C1876 1.377 . S
C1877 C1883 1.390 . S
C1878 H1869 0.930 . S
C1878 C1876 1.384 . S
C1878 C1879 1.372 . S
C1879 C1878 1.372 . S
C1879 C1880 1.400 . S
C1879 C1884 1.490 . S
C1880 H1870 0.930 . S
C1880 C1879 1.400 . S
C1880 C1883 1.386 . S
H1881 C1897 0.930 . S
H1882 C1898 0.931 . S
C1883 H1871 0.929 . S
C1883 C1877 1.390 . S
C1883 C1880 1.386 . S
C1884 C1879 1.490 . S
C1884 C1886 1.395 . S
C1884 C1887 1.403 . S
H1885 C1891 0.930 . S
C1886 H1872 0.930 . S
C1886 C1884 1.395 . S
C1886 C1889 1.403 . S
C1887 C1884 1.403 . S
C1887 C1888 1.524 . S
C1887 C1891 1.400 . S
C1888 H1873 0.960 . S
C1888 H1874 0.960 . S
C1888 H1875 0.960 . S
C1888 C1887 1.524 . S
C1889 C1886 1.403 . S
C1889 C1890 1.392 . S
C1889 C1893 1.495 . S
C1890 C1889 1.392 . S
C1890 C1891 1.385 . S
C1890 C1892 1.478 . S
C1891 H1885 0.930 . S
C1891 C1887 1.400 . S
C1891 C1890 1.385 . S
C1892 C1890 1.478 . S
C1892 C1894 1.381 . S
C1892 C1898 1.383 . S
C1893 C1889 1.495 . S
C1893 H1899 0.959 . S
C1893 H1900 0.961 . S
C1893 H1901 0.960 . S
C1894 C1892 1.381 . S
C1894 C1895 1.394 . S
C1894 H1902 0.930 . S
C1895 C1894 1.394 . S
C1895 C1896 1.383 . S
C1895 H1903 0.929 . S
C1896 C1895 1.383 . S
C1896 C1897 1.377 . S
C1897 H1881 0.930 . S
C1897 C1896 1.377 . S
C1897 C1898 1.379 . S
C1898 H1882 0.931 . S
C1898 C1892 1.383 . S
C1898 C1897 1.379 . S
H1899 C1893 0.959 . S
H1900 C1893 0.961 . S
H1901 C1893 0.960 . S
H1902 C1894 0.930 . S
H1903 C1895 0.929 . S
H1904 C1912 0.929 . S
H1905 C1914 0.930 . S
H1906 C1916 0.930 . S
H1907 C1919 0.929 . S
H1908 C1922 0.930 . S
H1909 C1924 0.960 . S
H1910 C1924 0.960 . S
H1911 C1924 0.960 . S
C1912 H1904 0.929 . S
C1912 C1913 1.377 . S
C1912 C1914 1.384 . S
C1913 C1912 1.377 . S
C1913 C1919 1.390 . S
C1914 H1905 0.930 . S
C1914 C1912 1.384 . S
C1914 C1915 1.372 . S
C1915 C1914 1.372 . S
C1915 C1916 1.400 . S
C1915 C1920 1.490 . S
C1916 H1906 0.930 . S
C1916 C1915 1.400 . S
C1916 C1919 1.386 . S
H1917 C1933 0.930 . S
H1918 C1934 0.931 . S
C1919 H1907 0.929 . S
C1919 C1913 1.390 . S
C1919 C1916 1.386 . S
C1920 C1915 1.490 . S
C1920 C1922 1.395 . S
C1920 C1923 1.403 . S
H1921 C1927 0.930 . S
C1922 H1908 0.930 . S
C1922 C1920 1.395 . S
C1922 C1925 1.403 . S
C1923 C1920 1.403 . S
C1923 C1924 1.524 . S
C1923 C1927 1.400 . S
C1924 H1909 0.960 . S
C1924 H1910 0.960 . S
C1924 H1911 0.960 . S
C1924 C1923 1.524 . S
C1925 C1922 1.403 . S
C1925 C1926 1.392 . S
C1925 C1929 1.495 . S
C1926 C1925 1.392 . S
C1926 C1927 1.385 . S
C1926 C1928 1.478 . S
C1927 H1921 0.930 . S
C1927 C1923 1.400 . S
C1927 C1926 1.385 . S
C1928 C1926 1.478 . S
C1928 C1930 1.381 . S
C1928 C1934 1.383 . S
C1929 C1925 1.495 . S
C1929 H1935 0.959 . S
C1929 H1936 0.961 . S
C1929 H1937 0.960 . S
C1930 C1928 1.381 . S
C1930 C1931 1.394 . S
C1930 H1938 0.930 . S
C1931 C1930 1.394 . S
C1931 C1932 1.383 . S
C1931 H1939 0.929 . S
C1932 C1931 1.383 . S
C1932 C1933 1.377 . S
C1933 H1917 0.930 . S
C1933 C1932 1.377 . S
C1933 C1934 1.379 . S
C1934 H1918 0.931 . S
C1934 C1928 1.383 . S
C1934 C1933 1.379 . S
H1935 C1929 0.959 . S
H1936 C1929 0.961 . S
H1937 C1929 0.960 . S
H1938 C1930 0.930 . S
H1939 C1931 0.929 . S
H1940 C1948 0.929 . S
H1941 C1950 0.930 . S
H1942 C1952 0.930 . S
H1943 C1955 0.929 . S
H1944 C1958 0.930 . S
H1945 C1960 0.960 . S
H1946 C1960 0.960 . S
H1947 C1960 0.960 . S
C1948 H1940 0.929 . S
C1948 C1949 1.377 . S
C1948 C1950 1.384 . S
C1949 C1948 1.377 . S
C1949 C1955 1.390 . S
C1950 H1941 0.930 . S
C1950 C1948 1.384 . S
C1950 C1951 1.372 . S
C1951 C1950 1.372 . S
C1951 C1952 1.400 . S
C1951 C1956 1.490 . S
C1952 H1942 0.930 . S
C1952 C1951 1.400 . S
C1952 C1955 1.386 . S
H1953 C1969 0.930 . S
H1954 C1970 0.931 . S
C1955 H1943 0.929 . S
C1955 C1949 1.390 . S
C1955 C1952 1.386 . S
C1956 C1951 1.490 . S
C1956 C1958 1.395 . S
C1956 C1959 1.403 . S
H1957 C1963 0.930 . S
C1958 H1944 0.930 . S
C1958 C1956 1.395 . S
C1958 C1961 1.403 . S
C1959 C1956 1.403 . S
C1959 C1960 1.524 . S
C1959 C1963 1.400 . S
C1960 H1945 0.960 . S
C1960 H1946 0.960 . S
C1960 H1947 0.960 . S
C1960 C1959 1.524 . S
C1961 C1958 1.403 . S
C1961 C1962 1.392 . S
C1961 C1965 1.495 . S
C1962 C1961 1.392 . S
C1962 C1963 1.385 . S
C1962 C1964 1.478 . S
C1963 H1957 0.930 . S
C1963 C1959 1.400 . S
C1963 C1962 1.385 . S
C1964 C1962 1.478 . S
C1964 C1966 1.381 . S
C1964 C1970 1.383 . S
C1965 C1961 1.495 . S
C1965 H1971 0.959 . S
C1965 H1972 0.961 . S
C1965 H1973 0.960 . S
C1966 C1964 1.381 . S
C1966 C1967 1.394 . S
C1966 H1974 0.930 . S
C1967 C1966 1.394 . S
C1967 C1968 1.383 . S
C1967 H1975 0.929 . S
C1968 C1967 1.383 . S
C1968 C1969 1.377 . S
C1969 H1953 0.930 . S
C1969 C1968 1.377 . S
C1969 C1970 1.379 . S
C1970 H1954 0.931 . S
C1970 C1964 1.383 . S
C1970 C1969 1.379 . S
H1971 C1965 0.959 . S
H1972 C1965 0.961 . S
H1973 C1965 0.960 . S
H1974 C1966 0.930 . S
H1975 C1967 0.929 . S
H1976 C1984 0.929 . S
H1977 C1986 0.930 . S
H1978 C1988 0.930 . S
H1979 C1991 0.929 . S
H1980 C1994 0.930 . S
H1981 C1996 0.960 . S
H1982 C1996 0.960 . S
H1983 C1996 0.960 . S
C1984 H1976 0.929 . S
C1984 C1985 1.377 . S
C1984 C1986 1.384 . S
C1985 C1984 1.377 . S
C1985 C1991 1.390 . S
C1986 H1977 0.930 . S
C1986 C1984 1.384 . S
C1986 C1987 1.372 . S
C1987 C1986 1.372 . S
C1987 C1988 1.400 . S
C1987 C1992 1.490 . S
C1988 H1978 0.930 . S
C1988 C1987 1.400 . S
C1988 C1991 1.386 . S
H1989 C2005 0.930 . S
H1990 C2006 0.931 . S
C1991 H1979 0.929 . S
C1991 C1985 1.390 . S
C1991 C1988 1.386 . S
C1992 C1987 1.490 . S
C1992 C1994 1.395 . S
C1992 C1995 1.403 . S
H1993 C1999 0.930 . S
C1994 H1980 0.930 . S
C1994 C1992 1.395 . S
C1994 C1997 1.403 . S
C1995 C1992 1.403 . S
C1995 C1996 1.524 . S
C1995 C1999 1.400 . S
C1996 H1981 0.960 . S
C1996 H1982 0.960 . S
C1996 H1983 0.960 . S
C1996 C1995 1.524 . S
C1997 C1994 1.403 . S
C1997 C1998 1.392 . S
C1997 C2001 1.495 . S
C1998 C1997 1.392 . S
C1998 C1999 1.385 . S
C1998 C2000 1.478 . S
C1999 H1993 0.930 . S
C1999 C1995 1.400 . S
C1999 C1998 1.385 . S
C2000 C1998 1.478 . S
C2000 C2002 1.381 . S
C2000 C2006 1.383 . S
C2001 C1997 1.495 . S
C2001 H2007 0.959 . S
C2001 H2008 0.961 . S
C2001 H2009 0.960 . S
C2002 C2000 1.381 . S
C2002 C2003 1.394 . S
C2002 H2010 0.930 . S
C2003 C2002 1.394 . S
C2003 C2004 1.383 . S
C2003 H2011 0.929 . S
C2004 C2003 1.383 . S
C2004 C2005 1.377 . S
C2005 H1989 0.930 . S
C2005 C2004 1.377 . S
C2005 C2006 1.379 . S
C2006 H1990 0.931 . S
C2006 C2000 1.383 . S
C2006 C2005 1.379 . S
H2007 C2001 0.959 . S
H2008 C2001 0.961 . S
H2009 C2001 0.960 . S
H2010 C2002 0.930 . S
H2011 C2003 0.929 . S
H2012 C2020 0.929 . S
H2013 C2022 0.930 . S
H2014 C2024 0.930 . S
H2015 C2027 0.929 . S
H2016 C2030 0.930 . S
H2017 C2032 0.960 . S
H2018 C2032 0.960 . S
H2019 C2032 0.960 . S
C2020 H2012 0.929 . S
C2020 C2021 1.377 . S
C2020 C2022 1.384 . S
C2021 C2020 1.377 . S
C2021 C2027 1.390 . S
C2022 H2013 0.930 . S
C2022 C2020 1.384 . S
C2022 C2023 1.372 . S
C2023 C2022 1.372 . S
C2023 C2024 1.400 . S
C2023 C2028 1.490 . S
C2024 H2014 0.930 . S
C2024 C2023 1.400 . S
C2024 C2027 1.386 . S
H2025 C2041 0.930 . S
H2026 C2042 0.931 . S
C2027 H2015 0.929 . S
C2027 C2021 1.390 . S
C2027 C2024 1.386 . S
C2028 C2023 1.490 . S
C2028 C2030 1.395 . S
C2028 C2031 1.403 . S
H2029 C2035 0.930 . S
C2030 H2016 0.930 . S
C2030 C2028 1.395 . S
C2030 C2033 1.403 . S
C2031 C2028 1.403 . S
C2031 C2032 1.524 . S
C2031 C2035 1.400 . S
C2032 H2017 0.960 . S
C2032 H2018 0.960 . S
C2032 H2019 0.960 . S
C2032 C2031 1.524 . S
C2033 C2030 1.403 . S
C2033 C2034 1.392 . S
C2033 C2037 1.495 . S
C2034 C2033 1.392 . S
C2034 C2035 1.385 . S
C2034 C2036 1.478 . S
C2035 H2029 0.930 . S
C2035 C2031 1.400 . S
C2035 C2034 1.385 . S
C2036 C2034 1.478 . S
C2036 C2038 1.381 . S
C2036 C2042 1.383 . S
C2037 C2033 1.495 . S
C2037 H2043 0.959 . S
C2037 H2044 0.961 . S
C2037 H2045 0.960 . S
C2038 C2036 1.381 . S
C2038 C2039 1.394 . S
C2038 H2046 0.930 . S
C2039 C2038 1.394 . S
C2039 C2040 1.383 . S
C2039 H2047 0.929 . S
C2040 C2039 1.383 . S
C2040 C2041 1.377 . S
C2041 H2025 0.930 . S
C2041 C2040 1.377 . S
C2041 C2042 1.379 . S
C2042 H2026 0.931 . S
C2042 C2036 1.383 . S
C2042 C2041 1.379 . S
H2043 C2037 0.959 . S
H2044 C2037 0.961 . S
H2045 C2037 0.960 . S
H2046 C2038 0.930 . S
H2047 C2039 0.929 . S
C329 C79 1.277 . S
C348 C9 1.279 . S
C365 C18 1.427 . S
C384 C21 1.435 . S
C401 C48 0.618 . S
C420 C29 0.646 . S
C437 C62 1.105 . S
C456 C42 1.089 . S
C473 C82 1.757 . S
C492 C118 1.766 . S
C509 C109 0.579 . S
C528 C129 0.558 . S
C545 C121 2.008 . S
C564 C158 1.997 . S
C581 C99 1.319 . S
C600 C149 1.334 . S
C617 C181 1.399 . S
C636 C1 1.383 . S
C653 C218 1.340 . S
C672 C38 1.366 . S
C689 C59 1.753 . S
C708 C261 1.753 . S
C725 C168 0.523 . S
C744 C68 0.571 . S
C761 C228 0.582 . S
C780 C88 0.637 . S
C797 C299 1.696 . S
C816 C101 1.714 . S
C833 C138 1.109 . S
C852 C258 1.076 . S
C869 C319 1.691 . S
C888 C141 1.695 . S
C905 C179 1.291 . S
C924 C269 1.320 . S
C941 C198 1.656 . S
C960 C162 1.647 . S
C977 C209 0.533 . S
C996 C189 0.574 . S
C1013 C288 1.357 . S
C1032 C239 1.352 . S
C1049 C249 0.502 . S
C1068 C308 0.517 . S
C1085 C238 1.284 . S
C1104 C8 1.296 . S
C1121 C242 1.444 . S
C1140 C19 1.398 . S
C1157 C248 0.625 . S
C1176 C49 0.583 . S
C1193 C41 1.117 . S
C1212 C221 1.130 . S
C1229 C199 1.754 . S
C1248 C81 1.773 . S
C1265 C188 0.588 . S
C1284 C128 0.548 . S
C1301 C279 1.988 . S
C1320 C122 2.020 . S
C1337 C98 1.327 . S
C1356 C268 1.342 . S
C1373 C102 1.400 . S
C1392 C2 1.390 . S
C1409 C219 1.349 . S
C1428 C259 1.356 . S
C1445 C58 1.751 . S
C1464 C142 1.761 . S
C1481 C169 0.547 . S
C1500 C229 0.551 . S
C1517 C69 0.591 . S
C1536 C89 0.543 . S
C1553 C182 1.715 . S
C1572 C298 1.687 . S
C1589 C139 1.118 . S
C1608 C39 1.142 . S
C1625 C318 1.688 . S
C1644 C262 1.691 . S
C1661 C178 1.294 . S
C1680 C148 1.314 . S
C1697 C161 1.668 . S
C1716 C119 1.636 . S
C1733 C208 0.528 . S
C1752 C108 0.578 . S
C1769 C78 1.336 . S
C1788 C289 1.340 . S
C1805 C28 0.488 . S
C1824 C309 0.496 . S
C1841 C241 1.120 . S
C1860 C282 1.117 . S
C1877 C222 1.203 . S
C1896 C302 1.219 . S
C1913 C201 1.969 . S
C1932 C278 1.931 . S
C1949 C281 1.121 . S
C1968 C22 1.096 . S
C1985 C61 1.200 . S
C2004 C301 1.215 . S
C2021 C159 1.948 . S
C2040 C202 1.950 . S
