# Generated by pormake.
# Topology pcb, (4)-cn, num edge types: 1
# Building blocks:
#     Node 0, Type 0, BuildingBlock: ICAMEG_clean_sbu_1, # of connection points: 4
#     Node 1, Type 0, BuildingBlock: ICAMEG_clean_sbu_1, # of connection points: 4
#     Node 2, Type 0, BuildingBlock: ICAMEG_clean_sbu_1, # of connection points: 4
#     Node 3, Type 0, BuildingBlock: ICAMEG_clean_sbu_1, # of connection points: 4
#     Node 4, Type 0, BuildingBlock: ICAMEG_clean_sbu_1, # of connection points: 4
#     Node 5, Type 0, BuildingBlock: ICAMEG_clean_sbu_1, # of connection points: 4
#     Node 6, Type 0, BuildingBlock: ICAMEG_clean_sbu_1, # of connection points: 4
#     Node 7, Type 0, BuildingBlock: ICAMEG_clean_sbu_1, # of connection points: 4
#     Node 8, Type 0, BuildingBlock: ICAMEG_clean_sbu_1, # of connection points: 4
#     Node 9, Type 0, BuildingBlock: ICAMEG_clean_sbu_1, # of connection points: 4
#     Node 10, Type 0, BuildingBlock: ICAMEG_clean_sbu_1, # of connection points: 4
#     Node 11, Type 0, BuildingBlock: ICAMEG_clean_sbu_1, # of connection points: 4
#     Node 12, Type 0, BuildingBlock: ICAMEG_clean_sbu_1, # of connection points: 4
#     Node 13, Type 0, BuildingBlock: ICAMEG_clean_sbu_1, # of connection points: 4
#     Node 14, Type 0, BuildingBlock: ICAMEG_clean_sbu_1, # of connection points: 4
#     Node 15, Type 0, BuildingBlock: ICAMEG_clean_sbu_1, # of connection points: 4
#     Edge 16, Type (0, 0), BuildingBlock: TEMPAE_clean_linker_10, # of connection points: 2
#     Edge 17, Type (0, 0), BuildingBlock: TEMPAE_clean_linker_10, # of connection points: 2
#     Edge 18, Type (0, 0), BuildingBlock: TEMPAE_clean_linker_10, # of connection points: 2
#     Edge 19, Type (0, 0), BuildingBlock: TEMPAE_clean_linker_10, # of connection points: 2
#     Edge 20, Type (0, 0), BuildingBlock: TEMPAE_clean_linker_10, # of connection points: 2
#     Edge 21, Type (0, 0), BuildingBlock: TEMPAE_clean_linker_10, # of connection points: 2
#     Edge 22, Type (0, 0), BuildingBlock: TEMPAE_clean_linker_10, # of connection points: 2
#     Edge 23, Type (0, 0), BuildingBlock: TEMPAE_clean_linker_10, # of connection points: 2
#     Edge 24, Type (0, 0), BuildingBlock: TEMPAE_clean_linker_10, # of connection points: 2
#     Edge 25, Type (0, 0), BuildingBlock: TEMPAE_clean_linker_10, # of connection points: 2
#     Edge 26, Type (0, 0), BuildingBlock: TEMPAE_clean_linker_10, # of connection points: 2
#     Edge 27, Type (0, 0), BuildingBlock: TEMPAE_clean_linker_10, # of connection points: 2
#     Edge 28, Type (0, 0), BuildingBlock: TEMPAE_clean_linker_10, # of connection points: 2
#     Edge 29, Type (0, 0), BuildingBlock: TEMPAE_clean_linker_10, # of connection points: 2
#     Edge 30, Type (0, 0), BuildingBlock: TEMPAE_clean_linker_10, # of connection points: 2
#     Edge 31, Type (0, 0), BuildingBlock: TEMPAE_clean_linker_10, # of connection points: 2
#     Edge 32, Type (0, 0), BuildingBlock: TEMPAE_clean_linker_10, # of connection points: 2
#     Edge 33, Type (0, 0), BuildingBlock: TEMPAE_clean_linker_10, # of connection points: 2
#     Edge 34, Type (0, 0), BuildingBlock: TEMPAE_clean_linker_10, # of connection points: 2
#     Edge 35, Type (0, 0), BuildingBlock: TEMPAE_clean_linker_10, # of connection points: 2
#     Edge 36, Type (0, 0), BuildingBlock: TEMPAE_clean_linker_10, # of connection points: 2
#     Edge 37, Type (0, 0), BuildingBlock: TEMPAE_clean_linker_10, # of connection points: 2
#     Edge 38, Type (0, 0), BuildingBlock: TEMPAE_clean_linker_10, # of connection points: 2
#     Edge 39, Type (0, 0), BuildingBlock: TEMPAE_clean_linker_10, # of connection points: 2
#     Edge 40, Type (0, 0), BuildingBlock: TEMPAE_clean_linker_10, # of connection points: 2
#     Edge 41, Type (0, 0), BuildingBlock: TEMPAE_clean_linker_10, # of connection points: 2
#     Edge 42, Type (0, 0), BuildingBlock: TEMPAE_clean_linker_10, # of connection points: 2
#     Edge 43, Type (0, 0), BuildingBlock: TEMPAE_clean_linker_10, # of connection points: 2
#     Edge 44, Type (0, 0), BuildingBlock: TEMPAE_clean_linker_10, # of connection points: 2
#     Edge 45, Type (0, 0), BuildingBlock: TEMPAE_clean_linker_10, # of connection points: 2
#     Edge 46, Type (0, 0), BuildingBlock: TEMPAE_clean_linker_10, # of connection points: 2
#     Edge 47, Type (0, 0), BuildingBlock: TEMPAE_clean_linker_10, # of connection points: 2
# Relax obj value: 0.342
# Max RMSD: 0.267
# Mean RMSD: 0.202
data_MOF--net-pcb--node1-ICAMEG_clean_sbu_1--edge1-TEMPAE_clean_linker_10
_symmetry_space_group_name_H-M    P1
_symmetry_Int_Tables_number       1
_symmetry_cell_setting            triclinic
loop_
_symmetry_equiv_pos_as_xyz
'x, y, z'
_cell_length_a     55.267563
_cell_length_b     43.949373
_cell_length_c     45.287717
_cell_angle_alpha  95.242377
_cell_angle_beta   94.100055
_cell_angle_gamma 99.386334
loop_
_atom_site_label
_atom_site_type_symbol
_atom_site_fract_x
_atom_site_fract_y
_atom_site_fract_z
_atom_type_partial_charge
Co0 Co 0.11507 0.11582 0.12085 0.0
Co1 Co 0.13018 0.19292 0.14393 0.0
O2 O 0.13617 0.15034 0.14547 0.0
C3 C 0.12134 0.092 0.18039 0.0
O4 O 0.12046 0.11935 0.19413 0.0
C5 C 0.1842 0.19769 0.1403 0.0
O6 O 0.17986 0.17354 0.12024 0.0
O7 O 0.13314 0.189 0.10018 0.0
O8 O 0.10953 0.14243 0.08816 0.0
H9 H 0.09064 0.27657 0.10185 0.0
H10 H 0.16465 0.10726 0.14436 0.0
O11 O 0.11975 0.08762 0.15211 0.0
H12 H 0.16378 0.0889 0.0352 0.0
H13 H 0.08991 0.00448 0.07749 0.0
H14 H 0.06729 0.10876 0.08446 0.0
H15 H 0.12713 0.10154 0.05832 0.0
H16 H 0.11709 0.04862 0.10683 0.0
O17 O 0.16654 0.20856 0.15155 0.0
H18 H 0.09792 0.22301 0.10506 0.0
H19 H 0.15126 0.25378 0.17844 0.0
H20 H 0.03969 0.06531 0.05463 0.0
H21 H 0.20159 0.0941 0.12218 0.0
H22 H 0.05093 0.01271 0.05102 0.0
H23 H 0.20134 0.08495 0.0672 0.0
O24 O 0.08611 0.12711 0.13959 0.0
H25 H 0.15718 0.18208 0.25022 0.0
H26 H 0.09421 0.21518 0.18347 0.0
H27 H 0.09037 0.21908 0.23752 0.0
H28 H 0.12206 0.20258 0.27132 0.0
H29 H 0.16009 0.17809 0.19598 0.0
H30 H 0.14473 0.30771 0.17585 0.0
H31 H 0.11416 0.31936 0.13743 0.0
O32 O 0.09331 0.17847 0.13726 0.0
C33 C 0.12075 0.16809 0.08113 0.0
C34 C 0.10397 0.27177 0.11875 0.0
C35 C 0.13435 0.28925 0.16026 0.0
N36 N 0.12486 0.23525 0.14203 0.0
C37 C 0.10812 0.24149 0.12071 0.0
C38 C 0.13801 0.25869 0.16156 0.0
C39 C 0.11718 0.29577 0.1387 0.0
C40 C 0.16431 0.10297 0.12045 0.0
N41 N 0.14374 0.10511 0.10269 0.0
C42 C 0.18532 0.09567 0.108 0.0
C43 C 0.18518 0.09059 0.07715 0.0
C44 C 0.16412 0.09282 0.05918 0.0
C45 C 0.14345 0.10012 0.07241 0.0
C46 C 0.08483 0.0273 0.07883 0.0
C47 C 0.0724 0.08599 0.08283 0.0
C48 C 0.10012 0.05239 0.09546 0.0
N49 N 0.09387 0.08131 0.09718 0.0
C50 C 0.05666 0.06145 0.06598 0.0
C51 C 0.06297 0.03194 0.06398 0.0
C52 C 0.07899 0.1533 0.14079 0.0
C53 C 0.14328 0.18941 0.23574 0.0
C54 C 0.10798 0.2077 0.19798 0.0
C55 C 0.10575 0.21009 0.22859 0.0
C56 C 0.12355 0.20087 0.24755 0.0
N57 N 0.12738 0.19643 0.18655 0.0
C58 C 0.1449 0.18735 0.205 0.0
Co59 Co 0.84798 0.13067 0.16157 0.0
Co60 Co 0.86817 0.1811 0.22494 0.0
O61 O 0.84666 0.16797 0.18799 0.0
C62 C 0.85228 0.1798 0.12021 0.0
O63 O 0.86546 0.19942 0.14118 0.0
C64 C 0.8182 0.17561 0.24544 0.0
O65 O 0.81374 0.14742 0.23162 0.0
O66 O 0.86189 0.13866 0.23868 0.0
O67 O 0.85282 0.10728 0.19616 0.0
H68 H 0.93526 0.17334 0.30342 0.0
H69 H 0.80614 0.16427 0.15396 0.0
O70 O 0.84319 0.15256 0.12548 0.0
H71 H 0.76906 0.0588 0.17301 0.0
H72 H 0.82148 0.05247 0.07189 0.0
H73 H 0.87949 0.08219 0.16167 0.0
H74 H 0.81388 0.07269 0.17056 0.0
H75 H 0.81968 0.09962 0.10511 0.0
O76 O 0.83929 0.19236 0.24532 0.0
H77 H 0.90836 0.15666 0.257 0.0
H78 H 0.8727 0.23464 0.27159 0.0
H79 H 0.88166 0.0346 0.12934 0.0
H80 H 0.76117 0.15136 0.15599 0.0
H81 H 0.85252 0.01948 0.08406 0.0
H82 H 0.74237 0.0983 0.16568 0.0
O83 O 0.8843 0.14258 0.16093 0.0
H84 H 0.84475 0.27599 0.18435 0.0
H85 H 0.91369 0.22672 0.22039 0.0
H86 H 0.92237 0.27869 0.20313 0.0
H87 H 0.88774 0.3037 0.18501 0.0
H88 H 0.83691 0.22389 0.20148 0.0
H89 H 0.89909 0.25204 0.31831 0.0
H90 H 0.9307 0.22136 0.33443 0.0
O91 O 0.89731 0.1703 0.20506 0.0
C92 C 0.85726 0.11174 0.22429 0.0
C93 C 0.9216 0.18696 0.29659 0.0
C94 C 0.90128 0.23111 0.30496 0.0
N95 N 0.88912 0.19479 0.26149 0.0
C96 C 0.90637 0.17768 0.27029 0.0
C97 C 0.88635 0.22111 0.27853 0.0
C98 C 0.91902 0.21389 0.31399 0.0
C99 C 0.79805 0.14108 0.15797 0.0
N100 N 0.81261 0.11925 0.16212 0.0
C101 C 0.7726 0.13393 0.15918 0.0
C102 C 0.76207 0.10417 0.16466 0.0
C103 C 0.77703 0.08201 0.1688 0.0
C104 C 0.80242 0.09002 0.16749 0.0
C105 C 0.83424 0.05879 0.09159 0.0
C106 C 0.86663 0.07567 0.14212 0.0
C107 C 0.83336 0.08551 0.11044 0.0
N108 N 0.84934 0.09353 0.13544 0.0
C109 C 0.86801 0.04874 0.12384 0.0
C110 C 0.85166 0.04028 0.09843 0.0
C111 C 0.90138 0.15678 0.18017 0.0
C112 C 0.85999 0.26537 0.19226 0.0
C113 C 0.89853 0.23737 0.2124 0.0
C114 C 0.90355 0.26685 0.20274 0.0
C115 C 0.88412 0.28088 0.1926 0.0
N116 N 0.87481 0.22232 0.21204 0.0
C117 C 0.85566 0.23592 0.20211 0.0
Co118 Co 0.89448 0.89157 0.17316 0.0
Co119 Co 0.87706 0.81367 0.176 0.0
O120 O 0.87456 0.85678 0.1891 0.0
C121 C 0.89138 0.91408 0.23833 0.0
O122 O 0.87981 0.88728 0.24466 0.0
C123 C 0.8228 0.81258 0.17077 0.0
O124 O 0.82637 0.83635 0.15507 0.0
O125 O 0.86941 0.82069 0.13374 0.0
O126 O 0.89267 0.86743 0.1332 0.0
H127 H 0.90455 0.72898 0.11125 0.0
H128 H 0.84895 0.90094 0.2019 0.0
O129 O 0.89767 0.91775 0.2122 0.0
H130 H 0.83778 0.93378 0.10139 0.0
H131 H 0.92195 0.00419 0.15994 0.0
H132 H 0.9363 0.89732 0.13518 0.0
H133 H 0.87528 0.9139 0.11733 0.0
H134 H 0.89615 0.96014 0.17865 0.0
O135 O 0.84105 0.80085 0.18047 0.0
H136 H 0.90177 0.78308 0.12848 0.0
H137 H 0.85604 0.7524 0.19514 0.0
H138 H 0.96241 0.9407 0.11579 0.0
H139 H 0.81143 0.92115 0.18708 0.0
H140 H 0.95532 0.99461 0.12815 0.0
H141 H 0.80562 0.93779 0.13647 0.0
O142 O 0.92481 0.87597 0.18568 0.0
H143 H 0.86359 0.81832 0.28479 0.0
H144 H 0.91594 0.78611 0.2081 0.0
H145 H 0.92593 0.77791 0.26038 0.0
H146 H 0.89962 0.79398 0.29915 0.0
H147 H 0.85444 0.82646 0.23228 0.0
H148 H 0.85814 0.69795 0.17845 0.0
H149 H 0.88262 0.68597 0.1363 0.0
O150 O 0.91338 0.82513 0.17161 0.0
C151 C 0.88028 0.84228 0.12 0.0
C152 C 0.89387 0.73391 0.12969 0.0
C153 C 0.8678 0.71649 0.16739 0.0
N154 N 0.87891 0.77091 0.16292 0.0
C155 C 0.89228 0.7645 0.13959 0.0
C156 C 0.86663 0.74737 0.17669 0.0
C157 C 0.88155 0.70979 0.14374 0.0
C158 C 0.84681 0.90848 0.18002 0.0
N159 N 0.86459 0.90673 0.16077 0.0
C160 C 0.82539 0.91972 0.17165 0.0
C161 C 0.82211 0.92899 0.14324 0.0
C162 C 0.84014 0.92674 0.12355 0.0
C163 C 0.86133 0.91538 0.1327 0.0
C164 C 0.9252 0.98081 0.15433 0.0
C165 C 0.93297 0.92067 0.14049 0.0
C166 C 0.91067 0.95575 0.16491 0.0
N167 N 0.91456 0.92611 0.15781 0.0
C168 C 0.94788 0.94517 0.12952 0.0
C169 C 0.9439 0.97541 0.1365 0.0
C170 C 0.92992 0.84903 0.17935 0.0
C171 C 0.8752 0.81122 0.2681 0.0
C172 C 0.90453 0.79346 0.22486 0.0
C173 C 0.91022 0.78861 0.25442 0.0
C174 C 0.89543 0.79759 0.27615 0.0
N175 N 0.88468 0.8069 0.21714 0.0
C176 C 0.87007 0.81571 0.23832 0.0
Co177 Co 0.15715 0.86046 0.14744 0.0
Co178 Co 0.1567 0.82816 0.21428 0.0
O179 O 0.16737 0.8317 0.17419 0.0
C180 C 0.14381 0.79975 0.10944 0.0
O181 O 0.13511 0.7862 0.13207 0.0
C182 C 0.21092 0.84283 0.2233 0.0
O183 O 0.20949 0.86534 0.20645 0.0
O184 O 0.16337 0.87413 0.22495 0.0
O185 O 0.16044 0.89365 0.18091 0.0
H186 H 0.10971 0.85267 0.30191 0.0
H187 H 0.19817 0.82725 0.13376 0.0
O188 O 0.15369 0.82825 0.11268 0.0
H189 H 0.23384 0.9384 0.14159 0.0
H190 H 0.15529 0.91076 0.0519 0.0
H191 H 0.12284 0.90579 0.15033 0.0
H192 H 0.1898 0.92169 0.14755 0.0
H193 H 0.16922 0.87593 0.08676 0.0
O194 O 0.19132 0.82569 0.22927 0.0
H195 H 0.12311 0.85768 0.25155 0.0
H196 H 0.16849 0.78955 0.26235 0.0
H197 H 0.10833 0.94085 0.11602 0.0
H198 H 0.24229 0.8429 0.12739 0.0
H199 H 0.12467 0.94362 0.06654 0.0
H200 H 0.26041 0.89884 0.13145 0.0
O201 O 0.1219 0.8471 0.15414 0.0
H202 H 0.17573 0.72532 0.17337 0.0
H203 H 0.11392 0.77869 0.21973 0.0
H204 H 0.10443 0.72214 0.20607 0.0
H205 H 0.13548 0.69507 0.18276 0.0
H206 H 0.18437 0.78188 0.18714 0.0
H207 H 0.15576 0.78399 0.31297 0.0
H208 H 0.12607 0.81561 0.33301 0.0
O209 O 0.12216 0.83077 0.19981 0.0
C210 C 0.16332 0.89672 0.20921 0.0
C211 C 0.12262 0.83873 0.29342 0.0
C212 C 0.14849 0.80021 0.29964 0.0
N213 N 0.14649 0.82385 0.25399 0.0
C214 C 0.13024 0.84143 0.26489 0.0
C215 C 0.15569 0.80353 0.271 0.0
C216 C 0.13182 0.81795 0.31086 0.0
C217 C 0.2059 0.85163 0.13527 0.0
N218 N 0.19145 0.87354 0.14104 0.0
C219 C 0.23089 0.86036 0.13176 0.0
C220 C 0.24106 0.89175 0.13408 0.0
C221 C 0.22617 0.91396 0.1398 0.0
C222 C 0.20127 0.90437 0.14325 0.0
C223 C 0.14811 0.90987 0.07348 0.0
C224 C 0.13009 0.90692 0.12883 0.0
C225 C 0.15589 0.89014 0.0933 0.0
N226 N 0.14693 0.88891 0.12061 0.0
C227 C 0.1218 0.92682 0.10952 0.0
C228 C 0.13093 0.9283 0.0817 0.0
C229 C 0.11092 0.83752 0.17629 0.0
C230 C 0.16208 0.73684 0.18359 0.0
C231 C 0.1275 0.7671 0.20952 0.0
C232 C 0.12204 0.73506 0.2019 0.0
C233 C 0.13948 0.71989 0.18883 0.0
N234 N 0.14973 0.78355 0.20437 0.0
C235 C 0.16691 0.76884 0.19155 0.0
Co236 Co 0.12353 0.8156 0.87618 0.0
Co237 Co 0.12156 0.74719 0.8323 0.0
O238 O 0.13531 0.79133 0.84335 0.0
C239 C 0.12392 0.85858 0.82843 0.0
O240 O 0.1152 0.83526 0.80823 0.0
C241 C 0.17568 0.74946 0.8373 0.0
O242 O 0.17743 0.7701 0.86049 0.0
O243 O 0.12827 0.73754 0.87406 0.0
O244 O 0.11754 0.77891 0.89901 0.0
H245 H 0.06818 0.64569 0.84392 0.0
H246 H 0.17152 0.84043 0.8549 0.0
O247 O 0.12886 0.85392 0.85532 0.0
H248 H 0.19038 0.82445 0.95984 0.0
H249 H 0.12568 0.90899 0.9503 0.0
H250 H 0.08152 0.80419 0.9133 0.0
H251 H 0.14755 0.81261 0.93677 0.0
H252 H 0.1402 0.87871 0.90865 0.0
O253 O 0.15487 0.73816 0.82341 0.0
H254 H 0.08565 0.70097 0.85737 0.0
H255 H 0.12904 0.69993 0.78369 0.0
H256 H 0.06655 0.83353 0.95522 0.0
H257 H 0.21446 0.85318 0.87716 0.0
H258 H 0.08871 0.88632 0.97404 0.0
H259 H 0.2241 0.845 0.92997 0.0
O260 O 0.0894 0.80484 0.85701 0.0
H261 H 0.14375 0.79523 0.73928 0.0
H262 H 0.07823 0.73245 0.78689 0.0
H263 H 0.06986 0.74528 0.73569 0.0
H264 H 0.10278 0.77684 0.71152 0.0
H265 H 0.15124 0.78213 0.79058 0.0
H266 H 0.11224 0.64456 0.76962 0.0
H267 H 0.08148 0.61712 0.79976 0.0
O268 O 0.08758 0.75469 0.84053 0.0
C269 C 0.12253 0.75164 0.89765 0.0
C270 C 0.08152 0.65742 0.83057 0.0
C271 C 0.10627 0.65677 0.78889 0.0
N272 N 0.10821 0.7037 0.82123 0.0
C273 C 0.09143 0.68873 0.83803 0.0
C274 C 0.11577 0.6881 0.79701 0.0
C275 C 0.08901 0.64139 0.8058 0.0
C276 C 0.17552 0.83725 0.87802 0.0
N277 N 0.15705 0.82585 0.89458 0.0
C278 C 0.19989 0.84433 0.89045 0.0
C279 C 0.20529 0.83967 0.92005 0.0
C280 C 0.18636 0.82809 0.93682 0.0
C281 C 0.1622 0.8213 0.92364 0.0
C282 C 0.11589 0.886 0.94233 0.0
C283 C 0.0913 0.82712 0.92138 0.0
C284 C 0.12397 0.86877 0.91867 0.0
N285 N 0.11179 0.83964 0.90861 0.0
C286 C 0.08271 0.84364 0.94511 0.0
C287 C 0.09514 0.87326 0.95564 0.0
C288 C 0.07733 0.77829 0.84665 0.0
C289 C 0.12927 0.7814 0.74954 0.0
C290 C 0.09262 0.74631 0.77659 0.0
C291 C 0.08779 0.75342 0.74755 0.0
C292 C 0.10628 0.77111 0.73399 0.0
N293 N 0.11524 0.75646 0.79168 0.0
C294 C 0.13344 0.77381 0.77854 0.0
Co295 Co 0.0897 0.13055 0.80085 0.0
Co296 Co 0.13367 0.19496 0.80689 0.0
O297 O 0.12088 0.15238 0.78938 0.0
C298 C 0.12203 0.08277 0.80441 0.0
O299 O 0.1396 0.10412 0.81824 0.0
C300 C 0.1492 0.22741 0.75526 0.0
O301 O 0.13501 0.24742 0.76324 0.0
O302 O 0.10275 0.20795 0.79064 0.0
O303 O 0.07627 0.17004 0.80651 0.0
H304 H 0.12748 0.29727 0.86259 0.0
H305 H 0.10836 0.10983 0.7441 0.0
O306 O 0.10157 0.08994 0.79535 0.0
H307 H 0.0265 0.13473 0.71608 0.0
H308 H 0.01734 0.04329 0.79373 0.0
H309 H 0.05718 0.1432 0.84826 0.0
H310 H 0.04271 0.13996 0.76876 0.0
H311 H 0.05641 0.07093 0.779 0.0
O312 O 0.1494 0.20334 0.76901 0.0
H313 H 0.11234 0.24343 0.84081 0.0
H314 H 0.18222 0.23754 0.80943 0.0
H315 H 0.01792 0.1166 0.86341 0.0
H316 H 0.09268 0.10384 0.6911 0.0
H317 H 0.99773 0.06626 0.83607 0.0
H318 H 0.0515 0.11646 0.67682 0.0
O319 O 0.10354 0.13668 0.8431 0.0
H320 H 0.20548 0.13851 0.8001 0.0
H321 H 0.16285 0.2034 0.8663 0.0
H322 H 0.19988 0.18501 0.88629 0.0
H323 H 0.22154 0.15242 0.85308 0.0
H324 H 0.16813 0.15697 0.7811 0.0
H325 H 0.19807 0.29135 0.83075 0.0
H326 H 0.17062 0.3216 0.85758 0.0
O327 O 0.11884 0.18736 0.84554 0.0
C328 C 0.08114 0.19611 0.79617 0.0
C329 C 0.13961 0.28433 0.85094 0.0
C330 C 0.17923 0.28101 0.83309 0.0
N331 N 0.14634 0.23734 0.82383 0.0
C332 C 0.13114 0.25383 0.83856 0.0
C333 C 0.17015 0.25054 0.82108 0.0
C334 C 0.16382 0.29796 0.84813 0.0
C335 C 0.09035 0.11511 0.73804 0.0
N336 N 0.07647 0.12513 0.75949 0.0
C337 C 0.08159 0.11177 0.70801 0.0
C338 C 0.05849 0.11887 0.70001 0.0
C339 C 0.04445 0.12912 0.72202 0.0
C340 C 0.05377 0.1321 0.75182 0.0
C341 C 0.02596 0.06521 0.80581 0.0
C342 C 0.04849 0.12136 0.83617 0.0
C343 C 0.04815 0.0809 0.79767 0.0
N344 N 0.05906 0.1087 0.81269 0.0
C345 C 0.02627 0.10637 0.8449 0.0
C346 C 0.01496 0.07812 0.82956 0.0
C347 C 0.11196 0.16279 0.85794 0.0
C348 C 0.19625 0.15278 0.81476 0.0
C349 C 0.17203 0.18904 0.85172 0.0
C350 C 0.19307 0.1788 0.86315 0.0
C351 C 0.20522 0.16054 0.84451 0.0
N352 N 0.16334 0.18135 0.82249 0.0
C353 C 0.17515 0.16342 0.8041 0.0
Co354 Co 0.8983 0.20346 0.85801 0.0
Co355 Co 0.85707 0.18437 0.79665 0.0
O356 O 0.86805 0.20911 0.83516 0.0
C357 C 0.86279 0.20218 0.90424 0.0
O358 O 0.84623 0.1845 0.88512 0.0
C359 C 0.84814 0.24873 0.78731 0.0
O360 O 0.86673 0.26113 0.80662 0.0
O361 O 0.88926 0.2 0.78124 0.0
O362 O 0.91417 0.19409 0.82081 0.0
H363 H 0.86695 0.11104 0.70826 0.0
H364 H 0.87887 0.26157 0.87204 0.0
O365 O 0.88391 0.21269 0.89635 0.0
H366 H 0.96223 0.29455 0.84155 0.0
H367 H 0.96642 0.22919 0.94102 0.0
H368 H 0.93181 0.15734 0.85252 0.0
H369 H 0.94592 0.2392 0.84328 0.0
H370 H 0.9285 0.2365 0.9124 0.0
O371 O 0.84288 0.21947 0.78106 0.0
H372 H 0.87968 0.14189 0.75677 0.0
H373 H 0.81181 0.17555 0.75432 0.0
H374 H 0.96999 0.1495 0.88019 0.0
H375 H 0.89467 0.31734 0.87123 0.0
H376 H 0.98755 0.18558 0.9248 0.0
H377 H 0.93657 0.33411 0.8557 0.0
O378 O 0.88484 0.15882 0.85833 0.0
H379 H 0.78217 0.19686 0.85019 0.0
H380 H 0.82526 0.12228 0.79626 0.0
H381 H 0.78605 0.10338 0.81657 0.0
H382 H 0.76416 0.14082 0.84368 0.0
H383 H 0.82166 0.21466 0.82993 0.0
H384 H 0.79849 0.14535 0.70564 0.0
H385 H 0.82609 0.11266 0.68236 0.0
O386 O 0.86995 0.14738 0.81066 0.0
C387 C 0.91041 0.19858 0.79364 0.0
C388 C 0.85474 0.12513 0.71821 0.0
C389 C 0.81632 0.14442 0.71673 0.0
N390 N 0.84647 0.16036 0.75846 0.0
C391 C 0.86182 0.1426 0.74571 0.0
C392 C 0.82401 0.16155 0.74426 0.0
C393 C 0.83182 0.12607 0.70368 0.0
C394 C 0.89722 0.26875 0.86558 0.0
N395 N 0.91138 0.24715 0.85758 0.0
C396 C 0.90603 0.30033 0.86504 0.0
C397 C 0.92953 0.30973 0.85628 0.0
C398 C 0.94392 0.28756 0.84831 0.0
C399 C 0.93452 0.25621 0.84917 0.0
C400 C 0.95896 0.21333 0.92161 0.0
C401 C 0.93938 0.17322 0.87184 0.0
C402 C 0.93743 0.21726 0.90539 0.0
N403 N 0.92799 0.19744 0.88073 0.0
C404 C 0.96098 0.16861 0.88746 0.0
C405 C 0.97081 0.18886 0.91249 0.0
C406 C 0.87627 0.13924 0.83606 0.0
C407 C 0.79152 0.18032 0.83838 0.0
C408 C 0.816 0.13868 0.80825 0.0
C409 C 0.79372 0.12786 0.81958 0.0
C410 C 0.78144 0.14887 0.83476 0.0
N411 N 0.82581 0.16956 0.81191 0.0
C412 C 0.81384 0.19029 0.82675 0.0
Co413 Co 0.89599 0.85731 0.8433 0.0
Co414 Co 0.85053 0.79481 0.84165 0.0
O415 O 0.86299 0.83532 0.82811 0.0
C416 C 0.86789 0.9098 0.85124 0.0
O417 O 0.85177 0.8928 0.86554 0.0
C418 C 0.83505 0.78514 0.77588 0.0
O419 O 0.85601 0.80137 0.77021 0.0
O420 O 0.87919 0.77801 0.82629 0.0
O421 O 0.90835 0.8174 0.8465 0.0
H422 H 0.85849 0.69887 0.89144 0.0
H423 H 0.87309 0.87293 0.78682 0.0
O424 O 0.88538 0.89834 0.84022 0.0
H425 H 0.95092 0.84014 0.76141 0.0
H426 H 0.97103 0.94044 0.84734 0.0
H427 H 0.93214 0.84862 0.89213 0.0
H428 H 0.93932 0.84149 0.81297 0.0
H429 H 0.92968 0.91291 0.82789 0.0
O430 O 0.83066 0.781 0.80256 0.0
H431 H 0.87326 0.75002 0.87491 0.0
H432 H 0.80162 0.75311 0.8358 0.0
H433 H 0.9737 0.87509 0.91191 0.0
H434 H 0.88416 0.87238 0.73494 0.0
H435 H 0.99343 0.92137 0.88949 0.0
H436 H 0.92328 0.85577 0.72195 0.0
O437 O 0.88598 0.85702 0.88459 0.0
H438 H 0.78104 0.85537 0.83579 0.0
H439 H 0.82641 0.79385 0.89871 0.0
H440 H 0.79217 0.81665 0.91837 0.0
H441 H 0.76916 0.8476 0.8868 0.0
H442 H 0.81561 0.83241 0.81712 0.0
H443 H 0.78615 0.70182 0.85161 0.0
H444 H 0.81465 0.6744 0.87977 0.0
O445 O 0.86923 0.80684 0.88186 0.0
C446 C 0.90158 0.78973 0.83441 0.0
C447 C 0.84589 0.7106 0.87922 0.0
C448 C 0.8053 0.71224 0.85684 0.0
N449 N 0.83833 0.75461 0.85448 0.0
C450 C 0.85413 0.73961 0.86984 0.0
C451 C 0.81419 0.74124 0.84785 0.0
C452 C 0.82129 0.69688 0.87265 0.0
C453 C 0.89023 0.86592 0.78134 0.0
N454 N 0.90549 0.85719 0.80286 0.0
C455 C 0.89637 0.86556 0.75193 0.0
C456 C 0.91831 0.85621 0.74465 0.0
C457 C 0.93382 0.84743 0.76676 0.0
C458 C 0.92709 0.84811 0.79592 0.0
C459 C 0.96262 0.92032 0.85733 0.0
C460 C 0.94059 0.86871 0.88221 0.0
C461 C 0.93913 0.90476 0.84653 0.0
N462 N 0.92845 0.87919 0.85887 0.0
C463 C 0.96413 0.88363 0.89354 0.0
C464 C 0.97518 0.9096 0.88096 0.0
C465 C 0.87792 0.83283 0.8968 0.0
C466 C 0.79087 0.84185 0.84973 0.0
C467 C 0.81655 0.80736 0.88485 0.0
C468 C 0.79714 0.82016 0.89609 0.0
C469 C 0.78424 0.83752 0.87836 0.0
N470 N 0.82294 0.81169 0.85672 0.0
C471 C 0.8104 0.82872 0.83924 0.0
Co472 Co 0.61504 0.61966 0.61442 0.0
Co473 Co 0.62727 0.69548 0.6418 0.0
O474 O 0.63503 0.65353 0.641 0.0
C475 C 0.62124 0.59112 0.67138 0.0
O476 O 0.61633 0.616 0.68647 0.0
C477 C 0.68189 0.70477 0.64012 0.0
O478 O 0.67904 0.68209 0.61853 0.0
O479 O 0.63116 0.69461 0.59828 0.0
O480 O 0.60797 0.64826 0.5841 0.0
H481 H 0.58464 0.7786 0.60384 0.0
H482 H 0.66569 0.61348 0.63608 0.0
O483 O 0.62153 0.58961 0.64321 0.0
H484 H 0.66437 0.6038 0.5266 0.0
H485 H 0.59421 0.51081 0.56327 0.0
H486 H 0.56676 0.6119 0.57897 0.0
H487 H 0.62703 0.61099 0.55115 0.0
H488 H 0.61998 0.55434 0.59509 0.0
O489 O 0.66314 0.71324 0.65102 0.0
H490 H 0.59417 0.72571 0.60419 0.0
H491 H 0.64535 0.75509 0.67991 0.0
H492 H 0.54055 0.56911 0.54668 0.0
H493 H 0.70338 0.60575 0.61241 0.0
H494 H 0.55422 0.5181 0.53868 0.0
H495 H 0.7029 0.60103 0.55728 0.0
O496 O 0.58551 0.62741 0.63433 0.0
H497 H 0.6527 0.67792 0.74677 0.0
H498 H 0.58968 0.71288 0.68155 0.0
H499 H 0.5846 0.71226 0.73514 0.0
H500 H 0.6163 0.69478 0.76817 0.0
H501 H 0.65689 0.67852 0.69296 0.0
H502 H 0.63658 0.80836 0.6802 0.0
H503 H 0.60593 0.82036 0.64205 0.0
O504 O 0.5908 0.67895 0.6337 0.0
C505 C 0.61928 0.67435 0.57822 0.0
C506 C 0.59799 0.77365 0.62062 0.0
C507 C 0.62716 0.79036 0.66345 0.0
N508 N 0.62018 0.73729 0.64214 0.0
C509 C 0.60342 0.74373 0.62097 0.0
C510 C 0.63211 0.76017 0.66312 0.0
C511 C 0.60996 0.79707 0.64205 0.0
C512 C 0.66527 0.61107 0.61208 0.0
N513 N 0.64418 0.61268 0.59506 0.0
C514 C 0.68669 0.60684 0.5988 0.0
C515 C 0.68642 0.60424 0.56787 0.0
C516 C 0.66482 0.60582 0.55064 0.0
C517 C 0.64375 0.61002 0.56469 0.0
C518 C 0.58805 0.53293 0.56656 0.0
C519 C 0.57291 0.58984 0.57548 0.0
C520 C 0.60253 0.55764 0.58465 0.0
N521 N 0.59492 0.58568 0.58883 0.0
C522 C 0.55796 0.56566 0.55722 0.0
C523 C 0.56563 0.53704 0.55276 0.0
C524 C 0.57735 0.65296 0.63661 0.0
C525 C 0.63879 0.68566 0.73262 0.0
C526 C 0.60349 0.70507 0.69573 0.0
C527 C 0.60055 0.70487 0.72608 0.0
C528 C 0.61835 0.69508 0.74461 0.0
N529 N 0.6236 0.6958 0.68413 0.0
C530 C 0.64112 0.68616 0.70215 0.0
Co531 Co 0.34613 0.62943 0.66094 0.0
Co532 Co 0.36756 0.67602 0.7264 0.0
O533 O 0.34606 0.6658 0.68914 0.0
C534 C 0.3531 0.6805 0.62195 0.0
O535 O 0.36926 0.69685 0.64244 0.0
C536 C 0.31702 0.67213 0.74399 0.0
O537 O 0.31148 0.64693 0.72527 0.0
O538 O 0.36007 0.63276 0.73763 0.0
O539 O 0.35012 0.60352 0.69394 0.0
H540 H 0.4339 0.66102 0.80282 0.0
H541 H 0.30561 0.66557 0.65512 0.0
O542 O 0.34191 0.65395 0.62658 0.0
H543 H 0.26538 0.55991 0.6694 0.0
H544 H 0.31732 0.55678 0.56792 0.0
H545 H 0.37599 0.57921 0.65758 0.0
H546 H 0.31036 0.57207 0.66748 0.0
H547 H 0.31684 0.60234 0.60383 0.0
O548 O 0.33903 0.68689 0.74792 0.0
H549 H 0.40688 0.64806 0.75609 0.0
H550 H 0.37325 0.7269 0.77594 0.0
H551 H 0.37685 0.53314 0.62249 0.0
H552 H 0.26052 0.65437 0.65651 0.0
H553 H 0.34739 0.5217 0.57725 0.0
H554 H 0.24013 0.60124 0.66385 0.0
O555 O 0.3826 0.63976 0.66052 0.0
H556 H 0.34696 0.77469 0.6912 0.0
H557 H 0.41402 0.72075 0.72428 0.0
H558 H 0.4241 0.7738 0.70981 0.0
H559 H 0.39042 0.80115 0.69318 0.0
H560 H 0.33772 0.72152 0.70561 0.0
H561 H 0.39978 0.74059 0.82303 0.0
H562 H 0.43043 0.70759 0.83666 0.0
O563 O 0.3963 0.66526 0.70553 0.0
C564 C 0.35465 0.60652 0.72209 0.0
C565 C 0.42067 0.67564 0.79708 0.0
C566 C 0.40149 0.72027 0.80845 0.0
N567 N 0.38864 0.68683 0.76321 0.0
C568 C 0.40537 0.66846 0.77062 0.0
C569 C 0.38648 0.71236 0.7818 0.0
C570 C 0.41869 0.70175 0.81607 0.0
C571 C 0.29684 0.64232 0.65801 0.0
N572 N 0.31062 0.6195 0.66128 0.0
C573 C 0.27131 0.63614 0.6589 0.0
C574 C 0.25989 0.60635 0.66308 0.0
C575 C 0.27406 0.58316 0.66624 0.0
C576 C 0.29954 0.59021 0.66529 0.0
C577 C 0.33024 0.5615 0.58756 0.0
C578 C 0.363 0.57429 0.63803 0.0
C579 C 0.33012 0.58734 0.60792 0.0
N580 N 0.3463 0.59337 0.63285 0.0
C581 C 0.36363 0.54821 0.61821 0.0
C582 C 0.34711 0.54182 0.59282 0.0
C583 C 0.39997 0.65253 0.68009 0.0
C584 C 0.36179 0.76305 0.69849 0.0
C585 C 0.39926 0.73247 0.71699 0.0
C586 C 0.40508 0.76253 0.70889 0.0
C587 C 0.38618 0.77786 0.69957 0.0
N588 N 0.37529 0.71812 0.71594 0.0
C589 C 0.35666 0.73299 0.70679 0.0
Co590 Co 0.37798 0.3756 0.66529 0.0
Co591 Co 0.36472 0.29852 0.67778 0.0
O592 O 0.36135 0.3422 0.68617 0.0
C593 C 0.38193 0.40285 0.73011 0.0
O594 O 0.372 0.37672 0.73953 0.0
C595 C 0.31026 0.29471 0.67046 0.0
O596 O 0.31322 0.31377 0.6498 0.0
O597 O 0.35686 0.29937 0.63416 0.0
O598 O 0.37203 0.34854 0.62701 0.0
H599 H 0.39427 0.20834 0.62385 0.0
H600 H 0.33617 0.3859 0.70104 0.0
O601 O 0.38493 0.40467 0.70268 0.0
H602 H 0.31171 0.40902 0.59985 0.0
H603 H 0.39941 0.48601 0.64146 0.0
H604 H 0.41399 0.37878 0.61964 0.0
H605 H 0.35161 0.39262 0.61111 0.0
H606 H 0.37801 0.4437 0.66708 0.0
O607 O 0.32884 0.286 0.68337 0.0
H608 H 0.39022 0.26325 0.6344 0.0
H609 H 0.34491 0.24064 0.70386 0.0
H610 H 0.43556 0.42037 0.59321 0.0
H611 H 0.29638 0.4028 0.6909 0.0
H612 H 0.42833 0.47443 0.60409 0.0
H613 H 0.28384 0.41446 0.63996 0.0
O614 O 0.41013 0.3621 0.67373 0.0
H615 H 0.35143 0.31538 0.78634 0.0
H616 H 0.40488 0.27725 0.71383 0.0
H617 H 0.41539 0.27576 0.76743 0.0
H618 H 0.38852 0.29479 0.80411 0.0
H619 H 0.34183 0.31699 0.73257 0.0
H620 H 0.34828 0.18543 0.69389 0.0
H621 H 0.3732 0.169 0.65372 0.0
O622 O 0.40064 0.31028 0.67246 0.0
C623 C 0.36275 0.3207 0.61745 0.0
C624 C 0.38341 0.21522 0.64147 0.0
C625 C 0.35758 0.20236 0.68075 0.0
N626 N 0.3675 0.25517 0.66985 0.0
C627 C 0.38111 0.24629 0.64759 0.0
C628 C 0.35568 0.23364 0.68625 0.0
C629 C 0.37157 0.19316 0.65822 0.0
C630 C 0.33113 0.39137 0.67896 0.0
N631 N 0.34651 0.3888 0.6569 0.0
C632 C 0.30843 0.40073 0.67328 0.0
C633 C 0.30139 0.40722 0.64469 0.0
C634 C 0.31701 0.40417 0.62218 0.0
C635 C 0.33959 0.39482 0.62871 0.0
C636 C 0.40269 0.46254 0.63648 0.0
C637 C 0.41062 0.40222 0.62434 0.0
C638 C 0.39067 0.43849 0.65098 0.0
N639 N 0.39461 0.40874 0.6447 0.0
C640 C 0.42295 0.42568 0.60937 0.0
C641 C 0.4189 0.45602 0.61551 0.0
C642 C 0.41623 0.33531 0.67332 0.0
C643 C 0.36327 0.30699 0.77058 0.0
C644 C 0.39323 0.28591 0.72964 0.0
C645 C 0.39921 0.28484 0.75997 0.0
C646 C 0.3841 0.29548 0.78054 0.0
N647 N 0.37278 0.29728 0.72004 0.0
C648 C 0.35787 0.30771 0.74008 0.0
Co649 Co 0.64314 0.35625 0.6472 0.0
Co650 Co 0.64462 0.32193 0.71222 0.0
O651 O 0.65572 0.32789 0.6727 0.0
C652 C 0.63697 0.29844 0.60532 0.0
O653 O 0.62598 0.28276 0.62538 0.0
C654 C 0.69886 0.3357 0.72247 0.0
O655 O 0.698 0.35962 0.7073 0.0
O656 O 0.65191 0.36744 0.72469 0.0
O657 O 0.64083 0.3862 0.68217 0.0
H658 H 0.59798 0.34325 0.80095 0.0
H659 H 0.68944 0.33393 0.63421 0.0
O660 O 0.64521 0.32733 0.61113 0.0
H661 H 0.71191 0.44772 0.65309 0.0
H662 H 0.6396 0.41354 0.556 0.0
H663 H 0.60289 0.3933 0.64988 0.0
H664 H 0.66899 0.422 0.65464 0.0
H665 H 0.656 0.37875 0.58911 0.0
O666 O 0.679 0.31814 0.72694 0.0
H667 H 0.61174 0.35072 0.7511 0.0
H668 H 0.65531 0.28006 0.75785 0.0
H669 H 0.58592 0.42821 0.61742 0.0
H670 H 0.73259 0.35874 0.63206 0.0
H671 H 0.60436 0.43864 0.57016 0.0
H672 H 0.74407 0.41602 0.64168 0.0
O673 O 0.60878 0.3358 0.65048 0.0
H674 H 0.66265 0.22057 0.66607 0.0
H675 H 0.60137 0.27232 0.71551 0.0
H676 H 0.59139 0.2163 0.69908 0.0
H677 H 0.62217 0.19005 0.67422 0.0
H678 H 0.67179 0.27661 0.68261 0.0
H679 H 0.64222 0.27205 0.80792 0.0
H680 H 0.61325 0.30367 0.82972 0.0
O681 O 0.60999 0.32566 0.69822 0.0
C682 C 0.64668 0.38928 0.7101 0.0
C683 C 0.61055 0.32926 0.79166 0.0
C684 C 0.63541 0.28933 0.79559 0.0
N685 N 0.63415 0.31568 0.75149 0.0
C686 C 0.61835 0.33333 0.76341 0.0
C687 C 0.6428 0.29402 0.76726 0.0
C688 C 0.61914 0.30707 0.8078 0.0
C689 C 0.69426 0.35889 0.63804 0.0
N690 N 0.67671 0.37648 0.64443 0.0
C691 C 0.71873 0.3728 0.63694 0.0
C692 C 0.72517 0.40494 0.6424 0.0
C693 C 0.70714 0.42274 0.64882 0.0
C694 C 0.68287 0.40803 0.64974 0.0
C695 C 0.63143 0.40923 0.57657 0.0
C696 C 0.61103 0.39771 0.62935 0.0
C697 C 0.64062 0.38951 0.59538 0.0
N698 N 0.63049 0.3841 0.62148 0.0
C699 C 0.6013 0.41745 0.61103 0.0
C700 C 0.61165 0.42329 0.58451 0.0
C701 C 0.59819 0.32859 0.6736 0.0
C702 C 0.64912 0.23173 0.67696 0.0
C703 C 0.61484 0.26109 0.70462 0.0
C704 C 0.6091 0.22935 0.69543 0.0
C705 C 0.62639 0.21463 0.6815 0.0
N706 N 0.63719 0.27768 0.70014 0.0
C707 C 0.65422 0.26343 0.68647 0.0
Co708 Co 0.62509 0.33306 0.36783 0.0
Co709 Co 0.62368 0.26398 0.32589 0.0
O710 O 0.63811 0.30779 0.3369 0.0
C711 C 0.64134 0.37778 0.32252 0.0
O712 O 0.64871 0.35648 0.3048 0.0
C713 C 0.67695 0.25931 0.33468 0.0
O714 O 0.67762 0.27188 0.36224 0.0
O715 O 0.62906 0.25494 0.36811 0.0
O716 O 0.61708 0.2967 0.39081 0.0
H717 H 0.56889 0.16334 0.3371 0.0
H718 H 0.67628 0.35039 0.35063 0.0
O719 O 0.63213 0.37126 0.34663 0.0
H720 H 0.68522 0.34591 0.459 0.0
H721 H 0.6233 0.42875 0.43752 0.0
H722 H 0.58075 0.32298 0.40133 0.0
H723 H 0.6441 0.33429 0.43139 0.0
H724 H 0.64041 0.39694 0.39922 0.0
O725 O 0.65705 0.25482 0.3177 0.0
H726 H 0.58668 0.21853 0.35038 0.0
H727 H 0.63164 0.216 0.27824 0.0
H728 H 0.56318 0.35386 0.43989 0.0
H729 H 0.71755 0.3619 0.37731 0.0
H730 H 0.58449 0.40716 0.45826 0.0
H731 H 0.72225 0.35972 0.43198 0.0
O732 O 0.59199 0.32298 0.34581 0.0
H733 H 0.64849 0.30892 0.23221 0.0
H734 H 0.58095 0.24972 0.27963 0.0
H735 H 0.5738 0.26145 0.22785 0.0
H736 H 0.60773 0.29119 0.20376 0.0
H737 H 0.65477 0.29697 0.28407 0.0
H738 H 0.61451 0.1607 0.26437 0.0
H739 H 0.58282 0.13404 0.29382 0.0
O740 O 0.58965 0.27204 0.33304 0.0
C741 C 0.62218 0.2695 0.39078 0.0
C742 C 0.58265 0.17471 0.32405 0.0
C743 C 0.60827 0.17322 0.28325 0.0
N744 N 0.61005 0.22053 0.31499 0.0
C745 C 0.59274 0.20598 0.33142 0.0
C746 C 0.61795 0.20452 0.29127 0.0
C747 C 0.59048 0.15828 0.29978 0.0
C748 C 0.67799 0.3498 0.37439 0.0
N749 N 0.6576 0.34247 0.38941 0.0
C750 C 0.7015 0.35613 0.3894 0.0
C751 C 0.70414 0.35481 0.42004 0.0
C752 C 0.68334 0.34698 0.43521 0.0
C753 C 0.66011 0.34058 0.41943 0.0
C754 C 0.61387 0.40553 0.42974 0.0
C755 C 0.59024 0.34607 0.40932 0.0
C756 C 0.62343 0.38743 0.40799 0.0
N757 N 0.61171 0.358 0.3982 0.0
C758 C 0.58015 0.36349 0.43111 0.0
C759 C 0.5921 0.3934 0.44138 0.0
C760 C 0.57966 0.2962 0.33683 0.0
C761 C 0.63355 0.29595 0.24246 0.0
C762 C 0.59576 0.26292 0.26943 0.0
C763 C 0.59162 0.26937 0.24004 0.0
C764 C 0.61068 0.28602 0.22652 0.0
N765 N 0.61824 0.27279 0.28494 0.0
C766 C 0.63701 0.28907 0.27181 0.0
Co767 Co 0.61492 0.64433 0.2966 0.0
Co768 Co 0.64517 0.71836 0.31173 0.0
O769 O 0.64335 0.67609 0.29221 0.0
C770 C 0.65294 0.6049 0.31062 0.0
O771 O 0.66231 0.62436 0.33391 0.0
C772 C 0.66349 0.72766 0.25162 0.0
O773 O 0.64694 0.70433 0.23912 0.0
O774 O 0.61322 0.72153 0.28949 0.0
O775 O 0.59268 0.67586 0.29935 0.0
H776 H 0.61112 0.80519 0.36514 0.0
H777 H 0.64449 0.6352 0.24552 0.0
O778 O 0.63572 0.61113 0.29322 0.0
H779 H 0.56034 0.63486 0.20105 0.0
H780 H 0.56104 0.53932 0.27506 0.0
H781 H 0.57418 0.64041 0.33607 0.0
H782 H 0.56955 0.6413 0.25554 0.0
H783 H 0.5959 0.57999 0.26808 0.0
O784 O 0.66419 0.73602 0.27936 0.0
H785 H 0.6097 0.75214 0.34132 0.0
H786 H 0.68427 0.77476 0.32224 0.0
H787 H 0.53887 0.60054 0.34347 0.0
H788 H 0.63601 0.62823 0.19087 0.0
H789 H 0.53215 0.54953 0.31289 0.0
H790 H 0.59368 0.62815 0.1683 0.0
O791 O 0.62253 0.65086 0.34058 0.0
H792 H 0.72951 0.68966 0.32201 0.0
H793 H 0.66578 0.73244 0.37532 0.0
H794 H 0.70435 0.72636 0.4032 0.0
H795 H 0.73659 0.70492 0.37652 0.0
H796 H 0.69053 0.6958 0.29502 0.0
H797 H 0.6864 0.82816 0.34557 0.0
H798 H 0.64968 0.84365 0.36736 0.0
O799 O 0.62712 0.70261 0.3458 0.0
C800 C 0.59318 0.70303 0.29144 0.0
C801 C 0.62726 0.79872 0.35575 0.0
C802 C 0.66949 0.81162 0.34473 0.0
N803 N 0.64688 0.7603 0.33043 0.0
C804 C 0.62658 0.76868 0.34226 0.0
C805 C 0.66814 0.78137 0.33143 0.0
C806 C 0.64889 0.82029 0.35697 0.0
C807 C 0.62599 0.6349 0.23585 0.0
N808 N 0.60756 0.63864 0.2537 0.0
C809 C 0.62131 0.63107 0.2049 0.0
C810 C 0.59757 0.63107 0.19225 0.0
C811 C 0.57886 0.63487 0.21061 0.0
C812 C 0.58422 0.63863 0.24146 0.0
C813 C 0.56376 0.56147 0.28851 0.0
C814 C 0.57131 0.61836 0.32253 0.0
C815 C 0.58353 0.58456 0.28473 0.0
N816 N 0.58707 0.61263 0.30158 0.0
C817 C 0.55131 0.59583 0.32688 0.0
C818 C 0.54755 0.56721 0.30973 0.0
C819 C 0.62411 0.6766 0.35665 0.0
C820 C 0.71563 0.69912 0.33387 0.0
C821 C 0.67967 0.72301 0.36353 0.0
C822 C 0.7015 0.71968 0.37945 0.0
C823 C 0.71958 0.70765 0.36446 0.0
N824 N 0.67594 0.71464 0.3335 0.0
C825 C 0.69355 0.70274 0.31869 0.0
Co826 Co 0.4065 0.72342 0.36613 0.0
Co827 Co 0.36756 0.69641 0.30188 0.0
O828 O 0.37577 0.72187 0.34071 0.0
C829 C 0.36645 0.71452 0.40855 0.0
O830 O 0.34859 0.71228 0.38737 0.0
C831 C 0.36173 0.76086 0.28944 0.0
O832 O 0.37904 0.77277 0.3106 0.0
O833 O 0.40148 0.70915 0.28905 0.0
O834 O 0.42554 0.72733 0.33103 0.0
H835 H 0.38169 0.61806 0.21981 0.0
H836 H 0.37259 0.7678 0.38079 0.0
O837 O 0.3889 0.71942 0.403 0.0
H838 H 0.45203 0.83277 0.36863 0.0
H839 H 0.46593 0.75608 0.45751 0.0
H840 H 0.4508 0.69436 0.35941 0.0
H841 H 0.4476 0.77579 0.36284 0.0
H842 H 0.42749 0.75503 0.42592 0.0
O843 O 0.3563 0.73164 0.28295 0.0
H844 H 0.39134 0.65033 0.26804 0.0
H845 H 0.32615 0.68856 0.25399 0.0
H846 H 0.48953 0.69486 0.39027 0.0
H847 H 0.3763 0.82462 0.38723 0.0
H848 H 0.49731 0.72594 0.43965 0.0
H849 H 0.41623 0.85758 0.38103 0.0
O850 O 0.4031 0.67718 0.36105 0.0
H851 H 0.2886 0.71507 0.34331 0.0
H852 H 0.33316 0.63617 0.29929 0.0
H853 H 0.29141 0.62002 0.31439 0.0
H854 H 0.26877 0.65966 0.33645 0.0
H855 H 0.33062 0.73003 0.32861 0.0
H856 H 0.31595 0.65696 0.20551 0.0
H857 H 0.34376 0.62128 0.18819 0.0
O858 O 0.37757 0.66017 0.31984 0.0
C859 C 0.42217 0.72136 0.30295 0.0
C860 C 0.36939 0.63346 0.22715 0.0
C861 C 0.33252 0.65534 0.2191 0.0
N862 N 0.35929 0.6712 0.2639 0.0
C863 C 0.37473 0.65173 0.25447 0.0
C864 C 0.33845 0.67326 0.24654 0.0
C865 C 0.34812 0.63531 0.2094 0.0
C866 C 0.39013 0.78185 0.37855 0.0
N867 N 0.40989 0.76835 0.37175 0.0
C868 C 0.39208 0.81409 0.38201 0.0
C869 C 0.41446 0.83257 0.37845 0.0
C870 C 0.43454 0.81867 0.37147 0.0
C871 C 0.4319 0.78636 0.36814 0.0
C872 C 0.46278 0.74252 0.43598 0.0
C873 C 0.45411 0.70808 0.38082 0.0
C874 C 0.44103 0.74179 0.41802 0.0
N875 N 0.43698 0.72483 0.39074 0.0
C876 C 0.47605 0.70822 0.39821 0.0
C877 C 0.48038 0.72562 0.42595 0.0
C878 C 0.3909 0.65548 0.34256 0.0
C879 C 0.29829 0.69756 0.3338 0.0
C880 C 0.32365 0.65344 0.30943 0.0
C881 C 0.2999 0.64421 0.31767 0.0
C882 C 0.28719 0.66647 0.32998 0.0
N883 N 0.3345 0.68394 0.31343 0.0
C884 C 0.32208 0.70591 0.32533 0.0
Co885 Co 0.39574 0.36959 0.3552 0.0
Co886 Co 0.35048 0.3072 0.33629 0.0
O887 O 0.3648 0.35023 0.33221 0.0
C888 C 0.38452 0.43066 0.37778 0.0
O889 O 0.38891 0.42317 0.40484 0.0
C890 C 0.33781 0.28082 0.27321 0.0
O891 O 0.35322 0.26152 0.27754 0.0
O892 O 0.38169 0.29414 0.32422 0.0
O893 O 0.40787 0.3292 0.35509 0.0
H894 H 0.35216 0.20096 0.3681 0.0
H895 H 0.3802 0.39444 0.29956 0.0
O896 O 0.38461 0.41089 0.35535 0.0
H897 H 0.46165 0.36673 0.28406 0.0
H898 H 0.47062 0.45251 0.38227 0.0
H899 H 0.42497 0.35349 0.40725 0.0
H900 H 0.44326 0.35934 0.33143 0.0
H901 H 0.43194 0.42784 0.35302 0.0
O902 O 0.33636 0.30238 0.29356 0.0
H903 H 0.36896 0.25565 0.36334 0.0
H904 H 0.30193 0.26647 0.31677 0.0
H905 H 0.46363 0.37729 0.43697 0.0
H906 H 0.39815 0.40271 0.25199 0.0
H907 H 0.48676 0.42716 0.42454 0.0
H908 H 0.43912 0.3887 0.24398 0.0
O909 O 0.38008 0.36118 0.39245 0.0
H910 H 0.28142 0.36828 0.32772 0.0
H911 H 0.31757 0.29406 0.385 0.0
H912 H 0.28008 0.31217 0.40057 0.0
H913 H 0.26165 0.34943 0.37173 0.0
H914 H 0.31917 0.34991 0.31323 0.0
H915 H 0.28449 0.21185 0.32079 0.0
H916 H 0.30965 0.1787 0.34669 0.0
O917 O 0.36323 0.31139 0.37953 0.0
C918 C 0.40296 0.30419 0.33765 0.0
C919 C 0.34102 0.21516 0.35676 0.0
C920 C 0.30305 0.22127 0.3302 0.0
N921 N 0.33649 0.26425 0.33974 0.0
C922 C 0.35044 0.24615 0.35399 0.0
C923 C 0.31305 0.25217 0.32793 0.0
C924 C 0.31717 0.20269 0.34474 0.0
C925 C 0.39814 0.38855 0.29633 0.0
N926 N 0.41068 0.37656 0.31832 0.0
C927 C 0.40817 0.39319 0.26932 0.0
C928 C 0.43115 0.3853 0.26483 0.0
C929 C 0.44381 0.37298 0.28731 0.0
C930 C 0.43324 0.36876 0.31406 0.0
C931 C 0.46071 0.43078 0.38792 0.0
C932 C 0.43489 0.37519 0.40169 0.0
C933 C 0.43877 0.41672 0.37147 0.0
N934 N 0.42616 0.38922 0.37841 0.0
C935 C 0.45679 0.38857 0.41861 0.0
C936 C 0.46976 0.41654 0.41162 0.0
C937 C 0.37052 0.33453 0.39916 0.0
C938 C 0.28925 0.35201 0.34045 0.0
C939 C 0.30985 0.3105 0.37252 0.0
C940 C 0.28852 0.32056 0.38136 0.0
C941 C 0.27818 0.34145 0.36516 0.0
N942 N 0.32058 0.32088 0.3482 0.0
C943 C 0.3106 0.34147 0.33231 0.0
C944 C 0.29528 0.28287 0.25152 0.0
C945 C 0.31792 0.27284 0.24852 0.0
C946 C 0.27472 0.27123 0.23124 0.0
C947 C 0.27695 0.24966 0.20678 0.0
C948 C 0.30015 0.24098 0.20254 0.0
C949 C 0.32028 0.25232 0.22369 0.0
C950 C 0.25026 0.28067 0.23704 0.0
C951 C 0.30348 0.21876 0.17631 0.0
C952 C 0.21814 0.19406 0.17787 0.0
C953 C 0.20929 0.20888 0.15434 0.0
C954 C 0.24052 0.20661 0.19455 0.0
C955 C 0.25451 0.23449 0.18721 0.0
C956 C 0.24603 0.24883 0.16258 0.0
C957 C 0.22329 0.23603 0.14664 0.0
C958 C 0.2486 0.19082 0.22089 0.0
C959 C 0.26055 0.27821 0.15369 0.0
H960 H 0.29316 0.29854 0.27071 0.0
H961 H 0.33772 0.24455 0.22115 0.0
H962 H 0.24232 0.28966 0.2171 0.0
H963 H 0.23709 0.26009 0.24164 0.0
H964 H 0.25185 0.2987 0.25627 0.0
H965 H 0.32317 0.21739 0.17411 0.0
H966 H 0.29355 0.19523 0.17893 0.0
H967 H 0.29548 0.2259 0.15538 0.0
H968 H 0.20703 0.17323 0.18394 0.0
H969 H 0.21619 0.24755 0.12855 0.0
H970 H 0.24914 0.20648 0.24168 0.0
H971 H 0.26747 0.18579 0.21892 0.0
H972 H 0.23608 0.16876 0.22298 0.0
H973 H 0.26045 0.29764 0.17111 0.0
H974 H 0.25287 0.28452 0.13218 0.0
H975 H 0.28003 0.27561 0.15182 0.0
C976 C 0.70039 0.24429 0.29214 0.0
C977 C 0.69906 0.24921 0.323 0.0
C978 C 0.72049 0.23326 0.28036 0.0
C979 C 0.73959 0.22642 0.29987 0.0
C980 C 0.73851 0.23163 0.33106 0.0
C981 C 0.71834 0.24327 0.34228 0.0
C982 C 0.72114 0.22861 0.24698 0.0
C983 C 0.75835 0.22422 0.35256 0.0
C984 C 0.7772 0.16882 0.26654 0.0
C985 C 0.79851 0.18843 0.26043 0.0
C986 C 0.75821 0.18081 0.28019 0.0
C987 C 0.76039 0.21325 0.28743 0.0
C988 C 0.78193 0.23315 0.28147 0.0
C989 C 0.80081 0.22049 0.26827 0.0
C990 C 0.73568 0.15878 0.28654 0.0
C991 C 0.78477 0.26789 0.28832 0.0
H992 H 0.68565 0.24907 0.27709 0.0
H993 H 0.71735 0.24686 0.36613 0.0
H994 H 0.73854 0.24159 0.2404 0.0
H995 H 0.7207 0.20372 0.23967 0.0
H996 H 0.70541 0.23639 0.23492 0.0
H997 H 0.75501 0.23005 0.37614 0.0
H998 H 0.75934 0.19915 0.34901 0.0
H999 H 0.77655 0.23716 0.34843 0.0
H1000 H 0.77535 0.14403 0.2607 0.0
H1001 H 0.81717 0.23583 0.26349 0.0
H1002 H 0.71925 0.16332 0.27322 0.0
H1003 H 0.73232 0.16258 0.31035 0.0
H1004 H 0.73747 0.1341 0.28122 0.0
H1005 H 0.77011 0.27665 0.27522 0.0
H1006 H 0.80295 0.28009 0.2831 0.0
H1007 H 0.78259 0.27393 0.31219 0.0
C1008 C 0.777 0.81185 0.16823 0.0
C1009 C 0.79769 0.79976 0.17845 0.0
C1010 C 0.75341 0.80053 0.17659 0.0
C1011 C 0.75045 0.7767 0.19577 0.0
C1012 C 0.77118 0.76397 0.20559 0.0
C1013 C 0.79445 0.77557 0.19679 0.0
C1014 C 0.73176 0.81461 0.16554 0.0
C1015 C 0.76894 0.73868 0.2262 0.0
C1016 C 0.69955 0.76918 0.24795 0.0
C1017 C 0.68361 0.7424 0.23482 0.0
C1018 C 0.72071 0.78135 0.23474 0.0
C1019 C 0.72619 0.76652 0.20756 0.0
C1020 C 0.70954 0.74045 0.19332 0.0
C1021 C 0.68842 0.72868 0.20712 0.0
C1022 C 0.73787 0.8092 0.25073 0.0
C1023 C 0.71463 0.72411 0.16424 0.0
H1024 H 0.77926 0.83045 0.15398 0.0
H1025 H 0.81024 0.76596 0.20481 0.0
H1026 H 0.71656 0.79613 0.15535 0.0
H1027 H 0.72464 0.82713 0.18455 0.0
H1028 H 0.7367 0.83112 0.1489 0.0
H1029 H 0.78658 0.73018 0.23061 0.0
H1030 H 0.76296 0.74752 0.24775 0.0
H1031 H 0.75472 0.71879 0.21652 0.0
H1032 H 0.69591 0.78022 0.26918 0.0
H1033 H 0.67624 0.70802 0.19678 0.0
H1034 H 0.74211 0.82729 0.23544 0.0
H1035 H 0.75554 0.80227 0.25829 0.0
H1036 H 0.73002 0.81948 0.27044 0.0
H1037 H 0.7194 0.74109 0.148 0.0
H1038 H 0.69865 0.70655 0.15435 0.0
H1039 H 0.73068 0.71227 0.16795 0.0
C1040 C 0.34058 0.80722 0.2928 0.0
C1041 C 0.34478 0.78006 0.27671 0.0
C1042 C 0.3207 0.82163 0.2839 0.0
C1043 C 0.30487 0.80863 0.25826 0.0
C1044 C 0.31022 0.78258 0.24079 0.0
C1045 C 0.33005 0.76859 0.25026 0.0
C1046 C 0.31565 0.84943 0.30307 0.0
C1047 C 0.29401 0.76812 0.21315 0.0
C1048 C 0.2369 0.81395 0.25416 0.0
C1049 C 0.23529 0.83603 0.23394 0.0
C1050 C 0.2596 0.80575 0.26307 0.0
C1051 C 0.28127 0.81984 0.25138 0.0
C1052 C 0.2799 0.84276 0.23158 0.0
C1053 C 0.25692 0.85064 0.22313 0.0
C1054 C 0.26025 0.78124 0.2843 0.0
C1055 C 0.30256 0.85818 0.21854 0.0
H1056 H 0.35182 0.8161 0.31334 0.0
H1057 H 0.33335 0.74774 0.23759 0.0
H1058 H 0.31167 0.86782 0.28914 0.0
H1059 H 0.29913 0.84253 0.31507 0.0
H1060 H 0.33135 0.85922 0.31975 0.0
H1061 H 0.30216 0.75011 0.20037 0.0
H1062 H 0.27585 0.75719 0.21953 0.0
H1063 H 0.29071 0.78609 0.19839 0.0
H1064 H 0.22032 0.80266 0.26276 0.0
H1065 H 0.25585 0.86769 0.20745 0.0
H1066 H 0.27396 0.79 0.30354 0.0
H1067 H 0.26604 0.76052 0.27289 0.0
H1068 H 0.24205 0.77395 0.29279 0.0
H1069 H 0.31731 0.86763 0.23649 0.0
H1070 H 0.29874 0.87727 0.2054 0.0
H1071 H 0.30972 0.84078 0.20378 0.0
C1072 C 0.27505 0.68565 0.74265 0.0
C1073 C 0.29733 0.68451 0.75893 0.0
C1074 C 0.25614 0.69777 0.75624 0.0
C1075 C 0.2592 0.70771 0.78714 0.0
C1076 C 0.28164 0.7062 0.80375 0.0
C1077 C 0.30069 0.69524 0.78925 0.0
C1078 C 0.23292 0.70007 0.73747 0.0
C1079 C 0.28527 0.71538 0.83691 0.0
C1080 C 0.21718 0.7608 0.81867 0.0
C1081 C 0.19789 0.73924 0.82671 0.0
C1082 C 0.23736 0.75092 0.80579 0.0
C1083 C 0.23862 0.71884 0.80209 0.0
C1084 C 0.21956 0.69716 0.81146 0.0
C1085 C 0.19912 0.7076 0.82302 0.0
C1086 C 0.25677 0.77465 0.79501 0.0
C1087 C 0.2206 0.66291 0.80895 0.0
H1088 H 0.27265 0.67766 0.71909 0.0
H1089 H 0.31795 0.69418 0.80178 0.0
H1090 H 0.21703 0.68461 0.74475 0.0
H1091 H 0.22902 0.7241 0.74043 0.0
H1092 H 0.23422 0.69355 0.71341 0.0
H1093 H 0.30367 0.71241 0.84663 0.0
H1094 H 0.28317 0.73993 0.84193 0.0
H1095 H 0.27092 0.70107 0.84807 0.0
H1096 H 0.21595 0.78526 0.82128 0.0
H1097 H 0.18411 0.69102 0.82935 0.0
H1098 H 0.25731 0.76975 0.77061 0.0
H1099 H 0.27522 0.77316 0.80554 0.0
H1100 H 0.25325 0.7987 0.79989 0.0
H1101 H 0.21904 0.65358 0.78518 0.0
H1102 H 0.20559 0.64957 0.81997 0.0
H1103 H 0.23855 0.65898 0.81913 0.0
C1104 C 0.18152 0.21422 0.72251 0.0
C1105 C 0.16948 0.23659 0.73643 0.0
C1106 C 0.20311 0.22297 0.70848 0.0
C1107 C 0.21332 0.25481 0.7092 0.0
C1108 C 0.20076 0.27748 0.72236 0.0
C1109 C 0.17885 0.26811 0.73546 0.0
C1110 C 0.21555 0.19808 0.69399 0.0
C1111 C 0.21128 0.31163 0.72433 0.0
C1112 C 0.28284 0.27528 0.70863 0.0
C1113 C 0.28541 0.28409 0.67988 0.0
C1114 C 0.25951 0.26587 0.71841 0.0
C1115 C 0.23816 0.26435 0.69867 0.0
C1116 C 0.24065 0.27261 0.66938 0.0
C1117 C 0.26424 0.28285 0.66047 0.0
C1118 C 0.25772 0.25807 0.75007 0.0
C1119 C 0.21841 0.27051 0.64745 0.0
H1120 H 0.17436 0.18984 0.7232 0.0
H1121 H 0.16986 0.28555 0.74653 0.0
H1122 H 0.22048 0.20366 0.67154 0.0
H1123 H 0.23288 0.19694 0.70747 0.0
H1124 H 0.2037 0.17486 0.69186 0.0
H1125 H 0.1985 0.32639 0.73351 0.0
H1126 H 0.22879 0.31648 0.73888 0.0
H1127 H 0.21559 0.31842 0.70206 0.0
H1128 H 0.29912 0.27639 0.72382 0.0
H1129 H 0.26615 0.28943 0.63815 0.0
H1130 H 0.24854 0.23369 0.75021 0.0
H1131 H 0.24628 0.27304 0.76176 0.0
H1132 H 0.27605 0.26118 0.7628 0.0
H1133 H 0.20758 0.24669 0.64514 0.0
H1134 H 0.22352 0.27641 0.62513 0.0
H1135 H 0.20623 0.28648 0.65577 0.0
C1136 C 0.82725 0.29536 0.79131 0.0
C1137 C 0.83064 0.2677 0.7754 0.0
C1138 C 0.80758 0.31031 0.78274 0.0
C1139 C 0.7912 0.29742 0.75753 0.0
C1140 C 0.79561 0.27065 0.74033 0.0
C1141 C 0.81516 0.25607 0.74955 0.0
C1142 C 0.80345 0.33875 0.8017 0.0
C1143 C 0.77884 0.25634 0.71308 0.0
C1144 C 0.72386 0.30597 0.75358 0.0
C1145 C 0.72289 0.32797 0.73315 0.0
C1146 C 0.74618 0.29685 0.76259 0.0
C1147 C 0.7681 0.30978 0.75067 0.0
C1148 C 0.76738 0.3326 0.73063 0.0
C1149 C 0.74478 0.34155 0.7222 0.0
C1150 C 0.74615 0.27261 0.7842 0.0
C1151 C 0.79028 0.34671 0.71723 0.0
H1152 H 0.83908 0.30437 0.81138 0.0
H1153 H 0.81784 0.23484 0.73699 0.0
H1154 H 0.80013 0.35726 0.7876 0.0
H1155 H 0.7868 0.33284 0.81375 0.0
H1156 H 0.81933 0.34799 0.81832 0.0
H1157 H 0.78622 0.23748 0.70051 0.0
H1158 H 0.76052 0.24656 0.71986 0.0
H1159 H 0.77606 0.27422 0.69799 0.0
H1160 H 0.70707 0.29553 0.76233 0.0
H1161 H 0.74418 0.35851 0.70634 0.0
H1162 H 0.7602 0.28098 0.80318 0.0
H1163 H 0.75105 0.25123 0.77296 0.0
H1164 H 0.72794 0.26653 0.79305 0.0
H1165 H 0.8053 0.35569 0.73498 0.0
H1166 H 0.78705 0.3659 0.70391 0.0
H1167 H 0.79676 0.32862 0.70257 0.0
C1168 C 0.79619 0.74903 0.75726 0.0
C1169 C 0.81548 0.77224 0.7517 0.0
C1170 C 0.77623 0.73808 0.73601 0.0
C1171 C 0.7753 0.75071 0.70838 0.0
C1172 C 0.79511 0.77339 0.70212 0.0
C1173 C 0.81505 0.78381 0.72383 0.0
C1174 C 0.75569 0.71368 0.74362 0.0
C1175 C 0.79477 0.78749 0.67298 0.0
C1176 C 0.72724 0.70426 0.64963 0.0
C1177 C 0.7068 0.71874 0.65428 0.0
C1178 C 0.75013 0.71534 0.66598 0.0
C1179 C 0.75266 0.7416 0.68731 0.0
C1180 C 0.73244 0.75727 0.69084 0.0
C1181 C 0.7098 0.74562 0.6744 0.0
C1182 C 0.7712 0.69792 0.66157 0.0
C1183 C 0.7343 0.78547 0.71315 0.0
H1184 H 0.79647 0.73961 0.77856 0.0
H1185 H 0.82985 0.80176 0.71936 0.0
H1186 H 0.73851 0.72358 0.74484 0.0
H1187 H 0.75202 0.69388 0.72594 0.0
H1188 H 0.75998 0.70478 0.76523 0.0
H1189 H 0.81248 0.80264 0.67037 0.0
H1190 H 0.7908 0.76904 0.65403 0.0
H1191 H 0.77983 0.80154 0.67171 0.0
H1192 H 0.72512 0.68349 0.63415 0.0
H1193 H 0.6942 0.75718 0.67796 0.0
H1194 H 0.77469 0.68584 0.68152 0.0
H1195 H 0.78831 0.7142 0.65901 0.0
H1196 H 0.76729 0.6804 0.64179 0.0
H1197 H 0.7364 0.77858 0.73604 0.0
H1198 H 0.71779 0.79679 0.71107 0.0
H1199 H 0.7508 0.80268 0.71029 0.0
C1200 C 0.11073 0.19327 0.90702 0.0
C1201 C 0.11306 0.16528 0.89083 0.0
C1202 C 0.1119 0.19615 0.93825 0.0
C1203 C 0.11622 0.1707 0.95371 0.0
C1204 C 0.11901 0.14253 0.93746 0.0
C1205 C 0.11704 0.14002 0.90619 0.0
C1206 C 0.10812 0.22625 0.95468 0.0
C1207 C 0.12419 0.11508 0.95311 0.0
C1208 C 0.14021 0.18438 0.03568 0.0
C1209 C 0.11914 0.17284 0.04927 0.0
C1210 C 0.13952 0.18424 0.00454 0.0
C1211 C 0.11705 0.17309 0.98683 0.0
C1212 C 0.09547 0.16289 0.00075 0.0
C1213 C 0.09688 0.16241 0.03174 0.0
C1214 C 0.16303 0.19459 0.99051 0.0
C1215 C 0.07102 0.15165 0.98284 0.0
H1216 H 0.10753 0.21283 0.8952 0.0
H1217 H 0.11913 0.11847 0.89374 0.0
H1218 H 0.09208 0.22194 0.96805 0.0
H1219 H 0.12443 0.236 0.97041 0.0
H1220 H 0.10492 0.24383 0.93936 0.0
H1221 H 0.12725 0.09548 0.93731 0.0
H1222 H 0.14071 0.12204 0.96921 0.0
H1223 H 0.10851 0.10681 0.96598 0.0
H1224 H 0.1575 0.19196 0.04923 0.0
H1225 H 0.08058 0.15346 0.04231 0.0
H1226 H 0.16053 0.21275 0.97566 0.0
H1227 H 0.16781 0.1747 0.97655 0.0
H1228 H 0.17872 0.20382 0.00739 0.0
H1229 H 0.06694 0.16901 0.96772 0.0
H1230 H 0.05563 0.14717 0.99722 0.0
H1231 H 0.07179 0.12988 0.96875 0.0
C1232 C 0.8351 0.19943 0.94592 0.0
C1233 C 0.85872 0.20621 0.93623 0.0
C1234 C 0.83178 0.1997 0.97645 0.0
C1235 C 0.85263 0.20598 0.99757 0.0
C1236 C 0.87637 0.2143 0.98792 0.0
C1237 C 0.87907 0.21471 0.95745 0.0
C1238 C 0.8061 0.19168 0.98598 0.0
C1239 C 0.89918 0.2204 0.00952 0.0
C1240 C 0.85007 0.21712 0.08165 0.0
C1241 C 0.85085 0.18701 0.08901 0.0
C1242 C 0.84925 0.2235 0.05171 0.0
C1243 C 0.85024 0.19941 0.02898 0.0
C1244 C 0.85095 0.16899 0.03647 0.0
C1245 C 0.85085 0.16311 0.06629 0.0
C1246 C 0.84767 0.25597 0.04443 0.0
C1247 C 0.85283 0.14279 0.01313 0.0
H1248 H 0.81927 0.19322 0.92966 0.0
H1249 H 0.89742 0.22 0.95024 0.0
H1250 H 0.80323 0.16778 0.99264 0.0
H1251 H 0.80352 0.20756 0.00557 0.0
H1252 H 0.79181 0.19291 0.96778 0.0
H1253 H 0.91605 0.22903 0.99874 0.0
H1254 H 0.89724 0.23762 0.02828 0.0
H1255 H 0.90169 0.19862 0.01906 0.0
H1256 H 0.84988 0.23554 0.09923 0.0
H1257 H 0.85172 0.13984 0.07195 0.0
H1258 H 0.83274 0.25542 0.02654 0.0
H1259 H 0.86513 0.26649 0.03602 0.0
H1260 H 0.84417 0.2711 0.06414 0.0
H1261 H 0.83709 0.13961 0.99589 0.0
H1262 H 0.85308 0.12045 0.02273 0.0
H1263 H 0.86992 0.14852 0.00184 0.0
C1264 C 0.88259 0.80776 0.94353 0.0
C1265 C 0.87916 0.83411 0.92956 0.0
C1266 C 0.8827 0.80786 0.97451 0.0
C1267 C 0.87859 0.8347 0.99185 0.0
C1268 C 0.8749 0.86132 0.9778 0.0
C1269 C 0.87558 0.86085 0.9468 0.0
C1270 C 0.88745 0.77937 0.98871 0.0
C1271 C 0.86994 0.89014 0.99547 0.0
C1272 C 0.85805 0.82565 0.06956 0.0
C1273 C 0.87981 0.83809 0.08731 0.0
C1274 C 0.85729 0.82455 0.03836 0.0
C1275 C 0.87899 0.83528 0.02479 0.0
C1276 C 0.90118 0.84682 0.04273 0.0
C1277 C 0.90122 0.84851 0.07377 0.0
C1278 C 0.83316 0.81273 0.01996 0.0
C1279 C 0.92488 0.85761 0.02918 0.0
H1280 H 0.88545 0.78707 0.9302 0.0
H1281 H 0.87259 0.88108 0.93595 0.0
H1282 H 0.90381 0.78545 0.00515 0.0
H1283 H 0.87158 0.77039 0.00096 0.0
H1284 H 0.89065 0.76055 0.97208 0.0
H1285 H 0.86636 0.90834 0.98105 0.0
H1286 H 0.85379 0.88424 0.00837 0.0
H1287 H 0.88592 0.89984 0.01172 0.0
H1288 H 0.84146 0.8179 0.08012 0.0
H1289 H 0.91811 0.85792 0.08756 0.0
H1290 H 0.83503 0.7928 0.00392 0.0
H1291 H 0.82805 0.83118 0.00678 0.0
H1292 H 0.81796 0.80533 0.0339 0.0
H1293 H 0.92894 0.83892 0.01307 0.0
H1294 H 0.94079 0.86443 0.04623 0.0
H1295 H 0.92298 0.87778 0.01671 0.0
C1296 C 0.13489 0.75085 0.07363 0.0
C1297 C 0.14051 0.78331 0.07897 0.0
C1298 C 0.13156 0.73601 0.04428 0.0
C1299 C 0.1335 0.75415 0.01995 0.0
C1300 C 0.13909 0.78687 0.02544 0.0
C1301 C 0.14269 0.8009 0.05469 0.0
C1302 C 0.12587 0.70109 0.03926 0.0
C1303 C 0.14122 0.80735 0.00037 0.0
C1304 C 0.1458 0.73511 0.94034 0.0
C1305 C 0.12312 0.73799 0.92605 0.0
C1306 C 0.14886 0.73599 0.97154 0.0
C1307 C 0.12874 0.73993 0.98846 0.0
C1308 C 0.10508 0.7384 0.9736 0.0
C1309 C 0.1026 0.73765 0.94251 0.0
C1310 C 0.17435 0.73711 0.98636 0.0
C1311 C 0.08306 0.74244 0.9905 0.0
H1312 H 0.13325 0.73711 0.0923 0.0
H1313 H 0.14678 0.82597 0.05845 0.0
H1314 H 0.10762 0.69356 0.02656 0.0
H1315 H 0.13968 0.69227 0.02569 0.0
H1316 H 0.12577 0.69028 0.0605 0.0
H1317 H 0.14509 0.83244 0.00845 0.0
H1318 H 0.15636 0.802 0.98713 0.0
H1319 H 0.12398 0.80272 0.98535 0.0
H1320 H 0.16175 0.73582 0.92762 0.0
H1321 H 0.0851 0.74014 0.93136 0.0
H1322 H 0.17366 0.7256 0.00716 0.0
H1323 H 0.18317 0.76168 0.99226 0.0
H1324 H 0.18608 0.7259 0.9713 0.0
H1325 H 0.08306 0.73021 0.01086 0.0
H1326 H 0.0655 0.73374 0.97653 0.0
H1327 H 0.08378 0.76748 0.99747 0.0
C1328 C 0.03755 0.12818 0.1537 0.0
C1329 C 0.05281 0.15438 0.14567 0.0
C1330 C 0.01288 0.12885 0.15882 0.0
C1331 C 0.00305 0.15628 0.15558 0.0
C1332 C 0.01823 0.18271 0.14718 0.0
C1333 C 0.04295 0.18151 0.1425 0.0
C1334 C 0.99739 0.10026 0.16805 0.0
C1335 C 0.00837 0.21229 0.1432 0.0
C1336 C 0.93321 0.14787 0.14484 0.0
C1337 C 0.92741 0.15736 0.17356 0.0
C1338 C 0.95776 0.14796 0.13853 0.0
C1339 C 0.977 0.15738 0.16154 0.0
C1340 C 0.97129 0.16711 0.19051 0.0
C1341 C 0.94664 0.16717 0.19612 0.0
C1342 C 0.96311 0.13777 0.10727 0.0
C1343 C 0.99122 0.17699 0.21575 0.0
H1344 H 0.04494 0.10711 0.15632 0.0
H1345 H 0.05451 0.20186 0.13621 0.0
H1346 H 0.99059 0.10575 0.19006 0.0
H1347 H 0.98101 0.09252 0.15188 0.0
H1348 H 0.00777 0.08076 0.16954 0.0
H1349 H 0.02236 0.23051 0.13583 0.0
H1350 H 0.99215 0.20755 0.12652 0.0
H1351 H 0.00211 0.2214 0.16446 0.0
H1352 H 0.91856 0.14042 0.12719 0.0
H1353 H 0.94244 0.17449 0.2184 0.0
H1354 H 0.97199 0.11688 0.10724 0.0
H1355 H 0.97621 0.15624 0.09887 0.0
H1356 H 0.9462 0.1323 0.09163 0.0
H1357 H 1.00126 0.15756 0.2194 0.0
H1358 H 0.98375 0.18427 0.23691 0.0
H1359 H 0.00482 0.19655 0.20999 0.0
C1360 C 0.87097 0.94677 0.27348 0.0
C1361 C 0.89144 0.94285 0.25789 0.0
C1362 C 0.86568 0.97667 0.28075 0.0
C1363 C 0.88089 0.00257 0.27144 0.0
C1364 C 0.90377 0.99885 0.26066 0.0
C1365 C 0.90885 0.96892 0.25422 0.0
C1366 C 0.8421 0.98008 0.29447 0.0
C1367 C 0.92096 0.02581 0.25111 0.0
C1368 C 0.8514 0.05443 0.22376 0.0
C1369 C 0.85877 0.08372 0.23986 0.0
C1370 C 0.85704 0.02761 0.23486 0.0
C1371 C 0.86995 0.02978 0.26336 0.0
C1372 C 0.87527 0.05876 0.28111 0.0
C1373 C 0.86985 0.08557 0.26901 0.0
C1374 C 0.85089 0.99735 0.21481 0.0
C1375 C 0.88797 0.06207 0.3121 0.0
H1376 H 0.85766 0.92667 0.27694 0.0
H1377 H 0.92505 0.96586 0.24286 0.0
H1378 H 0.84411 0.0025 0.30862 0.0
H1379 H 0.82719 0.97958 0.27658 0.0
H1380 H 0.83643 0.96078 0.30809 0.0
H1381 H 0.9394 0.01991 0.24748 0.0
H1382 H 0.91304 0.03252 0.22992 0.0
H1383 H 0.92325 0.04618 0.26801 0.0
H1384 H 0.84243 0.05248 0.20147 0.0
H1385 H 0.87536 0.10801 0.28185 0.0
H1386 H 0.83957 0.97947 0.22608 0.0
H1387 H 0.86806 0.98869 0.20972 0.0
H1388 H 0.84062 0.99976 0.19338 0.0
H1389 H 0.88526 0.03991 0.32235 0.0
H1390 H 0.88109 0.07995 0.32664 0.0
H1391 H 0.908 0.06993 0.3112 0.0
C1392 C 0.97493 0.87124 0.18816 0.0
C1393 C 0.95624 0.84564 0.17934 0.0
C1394 C 0.99987 0.8687 0.1873 0.0
C1395 C 0.00636 0.83991 0.17722 0.0
C1396 C 0.98766 0.81394 0.16839 0.0
C1397 C 0.96284 0.81708 0.16964 0.0
C1398 C 0.01928 0.89691 0.1971 0.0
C1399 C 0.99385 0.7829 0.15738 0.0
C1400 C 0.07033 0.84314 0.15043 0.0
C1401 C 0.08377 0.83572 0.1755 0.0
C1402 C 0.045 0.8438 0.1504 0.0
C1403 C 0.03279 0.83708 0.17609 0.0
C1404 C 0.04608 0.82889 0.20118 0.0
C1405 C 0.07134 0.82819 0.20055 0.0
C1406 C 0.03141 0.85243 0.12312 0.0
C1407 C 0.03378 0.82172 0.22906 0.0
H1408 H 0.97011 0.89343 0.19567 0.0
H1409 H 0.94861 0.79715 0.16268 0.0
H1410 H 0.03183 0.89195 0.21561 0.0
H1411 H 0.03062 0.90268 0.17848 0.0
H1412 H 0.01119 0.91752 0.20463 0.0
H1413 H 0.97715 0.76498 0.15131 0.0
H1414 H 0.00446 0.78523 0.13757 0.0
H1415 H 0.00567 0.77472 0.17476 0.0
H1416 H 0.07967 0.84895 0.13093 0.0
H1417 H 0.08143 0.82239 0.22007 0.0
H1418 H 0.02456 0.87445 0.12862 0.0
H1419 H 0.01513 0.83434 0.11562 0.0
H1420 H 0.04324 0.85536 0.1044 0.0
H1421 H 0.02689 0.84249 0.23866 0.0
H1422 H 0.04648 0.81459 0.24624 0.0
H1423 H 0.01764 0.80291 0.22367 0.0
C1424 C 0.13981 0.07014 0.22447 0.0
C1425 C 0.1256 0.06571 0.19702 0.0
C1426 C 0.1475 0.04477 0.23712 0.0
C1427 C 0.14078 0.01462 0.2218 0.0
C1428 C 0.12469 0.00999 0.19538 0.0
C1429 C 0.11736 0.03555 0.18338 0.0
C1430 C 0.16409 0.05067 0.26568 0.0
C1431 C 0.1167 0.97829 0.17832 0.0
C1432 C 0.17926 0.95273 0.21226 0.0
C1433 C 0.1644 0.92835 0.22355 0.0
C1434 C 0.17382 0.9828 0.21535 0.0
C1435 C 0.15295 0.9884 0.23003 0.0
C1436 C 0.14032 0.96489 0.24546 0.0
C1437 C 0.14615 0.93486 0.2419 0.0
C1438 C 0.1882 0.00724 0.19907 0.0
C1439 C 0.1186 0.97027 0.26234 0.0
H1440 H 0.14611 0.09346 0.23517 0.0
H1441 H 0.10595 0.03201 0.16245 0.0
H1442 H 0.16103 0.03079 0.27921 0.0
H1443 H 0.18357 0.05406 0.26035 0.0
H1444 H 0.1612 0.07196 0.27921 0.0
H1445 H 0.1026 0.97843 0.15961 0.0
H1446 H 0.13289 0.97017 0.16911 0.0
H1447 H 0.109 0.96123 0.19324 0.0
H1448 H 0.19366 0.94767 0.19848 0.0
H1449 H 0.13468 0.91599 0.25073 0.0
H1450 H 0.19179 0.03001 0.21273 0.0
H1451 H 0.17726 0.00984 0.17819 0.0
H1452 H 0.20606 0.00099 0.19316 0.0
H1453 H 0.12146 0.99423 0.27364 0.0
H1454 H 0.11521 0.95353 0.27917 0.0
H1455 H 0.10188 0.96711 0.24654 0.0
C1456 C 0.93309 0.7714 0.80493 0.0
C1457 C 0.92132 0.77145 0.83126 0.0
C1458 C 0.95777 0.76726 0.80499 0.0
C1459 C 0.97066 0.76272 0.83199 0.0
C1460 C 0.95787 0.75929 0.85782 0.0
C1461 C 0.93335 0.76403 0.85719 0.0
C1462 C 0.97069 0.77127 0.77701 0.0
C1463 C 0.97075 0.75404 0.88697 0.0
C1464 C 0.03585 0.74488 0.83324 0.0
C1465 C 0.05004 0.77431 0.8421 0.0
C1466 C 0.01002 0.7407 0.82948 0.0
C1467 C 0.99804 0.76655 0.83455 0.0
C1468 C 0.01222 0.79636 0.84309 0.0
C1469 C 0.03799 0.79985 0.84684 0.0
C1470 C 0.99552 0.70859 0.82053 0.0
C1471 C 1.00015 0.82461 0.8486 0.0
H1472 H 0.92388 0.77784 0.78507 0.0
H1473 H 0.92433 0.76476 0.87769 0.0
H1474 H 0.9822 0.79468 0.77906 0.0
H1475 H 0.98307 0.75401 0.77368 0.0
H1476 H 0.95741 0.76906 0.757 0.0
H1477 H 0.95746 0.74669 0.9033 0.0
H1478 H 0.98262 0.73619 0.88351 0.0
H1479 H 0.98278 0.77591 0.89669 0.0
H1480 H 0.04489 0.72494 0.8295 0.0
H1481 H 0.04869 0.82269 0.85358 0.0
H1482 H 0.98322 0.70852 0.80005 0.0
H1483 H 0.98363 0.70153 0.8383 0.0
H1484 H 0.00762 0.69106 0.81644 0.0
H1485 H 0.98812 0.82725 0.82863 0.0
H1486 H 0.0138 0.84628 0.85414 0.0
H1487 H 0.98828 0.82176 0.86726 0.0
C1488 C 0.12835 0.8991 0.79229 0.0
C1489 C 0.12606 0.89113 0.82135 0.0
C1490 C 0.12999 0.9302 0.78611 0.0
C1491 C 0.12864 0.95356 0.80942 0.0
C1492 C 0.12643 0.94551 0.83876 0.0
C1493 C 0.12541 0.91457 0.84437 0.0
C1494 C 0.13289 0.93804 0.75467 0.0
C1495 C 0.12432 0.96945 0.86421 0.0
C1496 C 0.1475 0.04048 0.80756 0.0
C1497 C 0.12456 0.04956 0.80202 0.0
C1498 C 0.14939 0.00896 0.80791 0.0
C1499 C 0.1278 0.98613 0.80331 0.0
C1500 C 0.10476 0.99514 0.79656 0.0
C1501 C 0.10347 0.02664 0.79571 0.0
C1502 C 0.17436 1.0002 0.81453 0.0
C1503 C 0.08118 0.97174 0.79216 0.0
H1504 H 0.12902 0.88111 0.77446 0.0
H1505 H 0.12339 0.90863 0.86687 0.0
H1506 H 0.11622 0.94636 0.74575 0.0
H1507 H 0.14871 0.9571 0.75438 0.0
H1508 H 0.1358 0.91777 0.73963 0.0
H1509 H 0.12302 0.9594 0.8858 0.0
H1510 H 0.1405 0.98835 0.86644 0.0
H1511 H 0.10771 0.98004 0.85962 0.0
H1512 H 0.16391 0.05801 0.81215 0.0
H1513 H 0.08564 0.03334 0.79141 0.0
H1514 H 0.17685 0.98028 0.79881 0.0
H1515 H 0.17579 0.9929 0.8373 0.0
H1516 H 0.18955 0.01982 0.81311 0.0
H1517 H 0.08287 0.95228 0.77547 0.0
H1518 H 0.06506 0.98217 0.78476 0.0
H1519 H 0.07757 0.96183 0.81342 0.0
C1520 C 0.04506 0.21629 0.81341 0.0
C1521 C 0.06002 0.21174 0.79031 0.0
C1522 C 0.02049 0.21966 0.80737 0.0
C1523 C 0.01057 0.21799 0.77739 0.0
C1524 C 0.02631 0.21639 0.75413 0.0
C1525 C 0.051 0.21332 0.7609 0.0
C1526 C 0.00451 0.22164 0.83299 0.0
C1527 C 0.01656 0.21469 0.72196 0.0
C1528 C 0.94485 0.17715 0.77344 0.0
C1529 C 0.93237 0.20229 0.77708 0.0
C1530 C 0.97017 0.18182 0.77014 0.0
C1531 C 0.9833 0.21247 0.77092 0.0
C1532 C 0.97021 0.23765 0.77136 0.0
C1533 C 0.94476 0.23222 0.77446 0.0
C1534 C 0.98328 0.1542 0.76949 0.0
C1535 C 0.98339 0.2706 0.77202 0.0
H1536 H 0.05205 0.21461 0.8361 0.0
H1537 H 0.06245 0.20908 0.74301 0.0
H1538 H 0.99332 0.24022 0.83083 0.0
H1539 H 0.9916 0.19942 0.83272 0.0
H1540 H 0.01557 0.22629 0.8549 0.0
H1541 H 0.03163 0.22078 0.70745 0.0
H1542 H 0.00713 0.19068 0.71438 0.0
H1543 H 0.00292 0.23036 0.7191 0.0
H1544 H 0.93527 0.15409 0.77605 0.0
H1545 H 0.93516 0.25172 0.77797 0.0
H1546 H 0.99366 0.1542 0.7914 0.0
H1547 H 0.99673 0.15546 0.75242 0.0
H1548 H 0.97023 0.13191 0.76473 0.0
H1549 H 0.99163 0.27897 0.79497 0.0
H1550 H 0.97057 0.28629 0.76537 0.0
H1551 H 0.99852 0.27209 0.7571 0.0
C1552 C 0.88762 0.96205 0.83955 0.0
C1553 C 0.86739 0.94328 0.84951 0.0
C1554 C 0.88835 0.99393 0.83854 0.0
C1555 C 0.86816 0.00757 0.8473 0.0
C1556 C 0.84754 0.98885 0.8572 0.0
C1557 C 0.84746 0.95691 0.85838 0.0
C1558 C 0.9108 0.01303 0.8281 0.0
C1559 C 0.82555 0.00256 0.86636 0.0
C1560 C 0.88126 0.09516 0.86642 0.0
C1561 C 0.87378 0.10556 0.83937 0.0
C1562 C 0.87892 0.06331 0.86962 0.0
C1563 C 0.86866 0.04131 0.84529 0.0
C1564 C 0.86066 0.05164 0.81815 0.0
C1565 C 0.86351 0.08354 0.81544 0.0
C1566 C 0.888 0.05321 0.89878 0.0
C1567 C 0.84954 0.02898 0.7917 0.0
H1568 H 0.90321 0.95194 0.83277 0.0
H1569 H 0.83176 0.94262 0.8661 0.0
H1570 H 0.90553 0.02362 0.80781 0.0
H1571 H 0.91876 0.03226 0.84542 0.0
H1572 H 0.92529 0.99903 0.82298 0.0
H1573 H 0.811 0.98495 0.87358 0.0
H1574 H 0.83134 0.02126 0.88487 0.0
H1575 H 0.81758 0.01322 0.84748 0.0
H1576 H 0.88922 0.11189 0.88506 0.0
H1577 H 0.85775 0.09115 0.79437 0.0
H1578 H 0.90356 0.04058 0.89531 0.0
H1579 H 0.8732 0.03697 0.90727 0.0
H1580 H 0.8943 0.07312 0.91603 0.0
H1581 H 0.86361 0.01567 0.78361 0.0
H1582 H 0.84245 0.04072 0.77302 0.0
H1583 H 0.83421 0.01205 0.79828 0.0
C1584 C 0.61521 0.7027 0.40506 0.0
C1585 C 0.622 0.67694 0.3891 0.0
C1586 C 0.61433 0.7044 0.43604 0.0
C1587 C 0.62081 0.68 0.45159 0.0
C1588 C 0.6277 0.65392 0.43564 0.0
C1589 C 0.62797 0.65256 0.40453 0.0
C1590 C 0.60637 0.73226 0.4521 0.0
C1591 C 0.63504 0.62762 0.45151 0.0
C1592 C 0.63973 0.69498 0.53491 0.0
C1593 C 0.61872 0.68004 0.54657 0.0
C1594 C 0.64061 0.69553 0.50398 0.0
C1595 C 0.6198 0.68137 0.48447 0.0
C1596 C 0.59815 0.66762 0.49635 0.0
C1597 C 0.59798 0.66681 0.5272 0.0
C1598 C 0.66415 0.71002 0.49212 0.0
C1599 C 0.57538 0.6529 0.47642 0.0
H1600 H 0.61047 0.7216 0.39328 0.0
H1601 H 0.63348 0.63276 0.39237 0.0
H1602 H 0.59 0.72469 0.46413 0.0
H1603 H 0.62122 0.74422 0.46897 0.0
H1604 H 0.60175 0.74915 0.43669 0.0
H1605 H 0.64066 0.60948 0.43601 0.0
H1606 H 0.65056 0.63664 0.46863 0.0
H1607 H 0.61945 0.61672 0.46323 0.0
H1608 H 0.65591 0.70476 0.54983 0.0
H1609 H 0.58169 0.65524 0.53621 0.0
H1610 H 0.66044 0.72763 0.47713 0.0
H1611 H 0.67177 0.69196 0.47876 0.0
H1612 H 0.6783 0.72121 0.51022 0.0
H1613 H 0.57004 0.66953 0.46118 0.0
H1614 H 0.55953 0.64519 0.48929 0.0
H1615 H 0.57926 0.6325 0.46242 0.0
C1616 C 0.33595 0.66977 0.56888 0.0
C1617 C 0.35 0.69038 0.59167 0.0
C1618 C 0.33578 0.67605 0.53913 0.0
C1619 C 0.34957 0.70398 0.53194 0.0
C1620 C 0.36217 0.72607 0.55501 0.0
C1621 C 0.36244 0.71888 0.58466 0.0
C1622 C 0.32244 0.65158 0.51525 0.0
C1623 C 0.37659 0.75647 0.54823 0.0
C1624 C 0.37778 0.69933 0.45834 0.0
C1625 C 0.36121 0.71143 0.43971 0.0
C1626 C 0.37417 0.69698 0.48834 0.0
C1627 C 0.35375 0.70771 0.5003 0.0
C1628 C 0.33704 0.72031 0.48171 0.0
C1629 C 0.34078 0.72163 0.45139 0.0
C1630 C 0.39208 0.68259 0.50712 0.0
C1631 C 0.31542 0.73262 0.49392 0.0
H1632 H 0.32603 0.64779 0.57399 0.0
H1633 H 0.37308 0.73512 0.60214 0.0
H1634 H 0.31093 0.66197 0.49923 0.0
H1635 H 0.33611 0.64127 0.50258 0.0
H1636 H 0.3105 0.63266 0.52466 0.0
H1637 H 0.38173 0.77311 0.56855 0.0
H1638 H 0.39372 0.75228 0.53839 0.0
H1639 H 0.3658 0.76721 0.53169 0.0
H1640 H 0.39354 0.69129 0.44929 0.0
H1641 H 0.32814 0.73135 0.43705 0.0
H1642 H 0.38214 0.66212 0.51646 0.0
H1643 H 0.40081 0.69943 0.52614 0.0
H1644 H 0.40684 0.67509 0.49424 0.0
H1645 H 0.30303 0.71377 0.50275 0.0
H1646 H 0.30463 0.74266 0.4768 0.0
H1647 H 0.32199 0.75074 0.51277 0.0
C1648 C 0.37928 0.35269 0.45369 0.0
C1649 C 0.3686 0.32953 0.43098 0.0
C1650 C 0.37741 0.34811 0.48379 0.0
C1651 C 0.36425 0.31986 0.49141 0.0
C1652 C 0.3535 0.29637 0.46866 0.0
C1653 C 0.35602 0.30134 0.43878 0.0
C1654 C 0.3895 0.37356 0.50748 0.0
C1655 C 0.33909 0.26611 0.47586 0.0
C1656 C 0.37809 0.30141 0.57058 0.0
C1657 C 0.3597 0.31357 0.58504 0.0
C1658 C 0.37927 0.30216 0.53977 0.0
C1659 C 0.36151 0.31521 0.52324 0.0
C1660 C 0.34208 0.32587 0.53766 0.0
C1661 C 0.3416 0.32527 0.56854 0.0
C1662 C 0.40044 0.29093 0.52534 0.0
C1663 C 0.3226 0.33952 0.52081 0.0
H1664 H 0.38924 0.37441 0.44799 0.0
H1665 H 0.34791 0.28309 0.42152 0.0
H1666 H 0.37534 0.38179 0.52087 0.0
H1667 H 0.40243 0.36448 0.52291 0.0
H1668 H 0.39978 0.39367 0.4979 0.0
H1669 H 0.33183 0.25019 0.45555 0.0
H1670 H 0.35091 0.25425 0.49016 0.0
H1671 H 0.32339 0.27065 0.48857 0.0
H1672 H 0.39243 0.29318 0.58367 0.0
H1673 H 0.32773 0.33525 0.58004 0.0
H1674 H 0.41283 0.31099 0.51833 0.0
H1675 H 0.39361 0.27487 0.50505 0.0
H1676 H 0.41136 0.27892 0.54065 0.0
H1677 H 0.33099 0.36193 0.51341 0.0
H1678 H 0.30739 0.34366 0.53461 0.0
H1679 H 0.31476 0.32387 0.50057 0.0
C1680 C 0.60231 0.26247 0.43729 0.0
C1681 C 0.62097 0.2562 0.41947 0.0
C1682 C 0.60464 0.26048 0.46798 0.0
C1683 C 0.62617 0.25184 0.48116 0.0
C1684 C 0.64353 0.24154 0.46267 0.0
C1685 C 0.64079 0.24399 0.43185 0.0
C1686 C 0.58554 0.27155 0.4866 0.0
C1687 C 0.6663 0.23115 0.47573 0.0
C1688 C 0.64779 0.30231 0.55319 0.0
C1689 C 0.6375 0.28402 0.57446 0.0
C1690 C 0.64543 0.29127 0.523 0.0
C1691 C 0.63287 0.26081 0.51362 0.0
C1692 C 0.62414 0.24127 0.53517 0.0
C1693 C 0.62633 0.25321 0.5654 0.0
C1694 C 0.65494 0.31311 0.50092 0.0
C1695 C 0.61131 0.20837 0.52624 0.0
H1696 H 0.58682 0.27159 0.42759 0.0
H1697 H 0.65525 0.23912 0.41809 0.0
H1698 H 0.58082 0.25584 0.5039 0.0
H1699 H 0.5931 0.29493 0.49811 0.0
H1700 H 0.56839 0.27311 0.47286 0.0
H1701 H 0.67433 0.21674 0.45886 0.0
H1702 H 0.68034 0.2518 0.48391 0.0
H1703 H 0.66217 0.21772 0.4949 0.0
H1704 H 0.65682 0.32598 0.55989 0.0
H1705 H 0.61858 0.23873 0.58169 0.0
H1706 H 0.63925 0.31837 0.48671 0.0
H1707 H 0.66688 0.30209 0.4861 0.0
H1708 H 0.66564 0.33535 0.51196 0.0
H1709 H 0.59182 0.20841 0.51849 0.0
H1710 H 0.61157 0.19411 0.54526 0.0
H1711 H 0.61998 0.1973 0.50768 0.0
C1712 C 0.53643 0.62542 0.64913 0.0
C1713 C 0.55104 0.65251 0.64189 0.0
C1714 C 0.51173 0.62497 0.65493 0.0
C1715 C 0.50124 0.65215 0.65319 0.0
C1716 C 0.51576 0.67944 0.64552 0.0
C1717 C 0.54047 0.67934 0.64012 0.0
C1718 C 0.49694 0.59548 0.66332 0.0
C1719 C 0.50523 0.70883 0.64317 0.0
C1720 C 0.43131 0.64382 0.64398 0.0
C1721 C 0.42587 0.65251 0.67306 0.0
C1722 C 0.45573 0.64376 0.63716 0.0
C1723 C 0.47521 0.65224 0.65999 0.0
C1724 C 0.46985 0.66088 0.68938 0.0
C1725 C 0.44532 0.66108 0.69552 0.0
C1726 C 0.4607 0.63474 0.60547 0.0
C1727 C 0.49005 0.66979 0.71443 0.0
H1728 H 0.54437 0.60458 0.65066 0.0
H1729 H 0.5515 0.70038 0.63445 0.0
H1730 H 0.49054 0.59971 0.68577 0.0
H1731 H 0.48031 0.58804 0.64748 0.0
H1732 H 0.50771 0.57624 0.66343 0.0
H1733 H 0.51873 0.72782 0.63612 0.0
H1734 H 0.48873 0.7043 0.62692 0.0
H1735 H 0.49924 0.71682 0.66499 0.0
H1736 H 0.41649 0.63727 0.62641 0.0
H1737 H 0.4414 0.66773 0.71809 0.0
H1738 H 0.47016 0.61431 0.60451 0.0
H1739 H 0.47317 0.65397 0.59726 0.0
H1740 H 0.44356 0.62907 0.59023 0.0
H1741 H 0.50049 0.65047 0.71661 0.0
H1742 H 0.48279 0.67558 0.73613 0.0
H1743 H 0.50325 0.69013 0.70942 0.0
C1744 C 0.36816 0.57796 0.76449 0.0
C1745 C 0.35555 0.57763 0.73638 0.0
C1746 C 0.37319 0.55024 0.77498 0.0
C1747 C 0.36567 0.52182 0.75673 0.0
C1748 C 0.35113 0.52122 0.72955 0.0
C1749 C 0.34617 0.54902 0.71991 0.0
C1750 C 0.38798 0.55187 0.80454 0.0
C1751 C 0.34255 0.49154 0.70918 0.0
C1752 C 0.40102 0.45773 0.74215 0.0
C1753 C 0.38388 0.43262 0.74868 0.0
C1754 C 0.39726 0.48821 0.74891 0.0
C1755 C 0.37589 0.49348 0.76266 0.0
C1756 C 0.361 0.46854 0.77393 0.0
C1757 C 0.36507 0.4381 0.76659 0.0
C1758 C 0.414 0.51409 0.73701 0.0
C1759 C 0.33885 0.47351 0.79014 0.0
H1760 H 0.37531 0.59991 0.77757 0.0
H1761 H 0.33606 0.54835 0.69842 0.0
H1762 H 0.38379 0.53001 0.81509 0.0
H1763 H 0.40788 0.55601 0.80113 0.0
H1764 H 0.38442 0.57142 0.82005 0.0
H1765 H 0.3303 0.49493 0.68965 0.0
H1766 H 0.35871 0.48256 0.70086 0.0
H1767 H 0.33246 0.4735 0.72145 0.0
H1768 H 0.41586 0.45344 0.72875 0.0
H1769 H 0.35192 0.41871 0.77199 0.0
H1770 H 0.41795 0.53498 0.75339 0.0
H1771 H 0.40476 0.52048 0.71646 0.0
H1772 H 0.43173 0.50714 0.73146 0.0
H1773 H 0.34243 0.49607 0.80423 0.0
H1774 H 0.33356 0.45458 0.80431 0.0
H1775 H 0.32303 0.47376 0.77368 0.0
C1776 C 0.55899 0.32283 0.69881 0.0
C1777 C 0.57098 0.32587 0.67264 0.0
C1778 C 0.53365 0.3232 0.69894 0.0
C1779 C 0.51982 0.32636 0.6722 0.0
C1780 C 0.53159 0.32844 0.64551 0.0
C1781 C 0.55702 0.3283 0.64607 0.0
C1782 C 0.52183 0.32113 0.72791 0.0
C1783 C 0.51742 0.33151 0.61648 0.0
C1784 C 0.45013 0.30395 0.66847 0.0
C1785 C 0.44276 0.33299 0.67328 0.0
C1786 C 0.47511 0.30145 0.66782 0.0
C1787 C 0.49322 0.32858 0.67239 0.0
C1788 C 0.48595 0.35794 0.67742 0.0
C1789 C 0.46084 0.3598 0.67766 0.0
C1790 C 0.4821 0.26976 0.66213 0.0
C1791 C 0.50474 0.38741 0.68265 0.0
H1792 H 0.56951 0.32096 0.71951 0.0
H1793 H 0.56602 0.33062 0.6257 0.0
H1794 H 0.51446 0.3427 0.73381 0.0
H1795 H 0.50607 0.30164 0.7255 0.0
H1796 H 0.53498 0.31774 0.74656 0.0
H1797 H 0.52898 0.33115 0.59741 0.0
H1798 H 0.50141 0.3124 0.61181 0.0
H1799 H 0.5101 0.3536 0.61811 0.0
H1800 H 0.43637 0.28306 0.66492 0.0
H1801 H 0.45541 0.38235 0.68143 0.0
H1802 H 0.49425 0.26525 0.68124 0.0
H1803 H 0.49263 0.26881 0.6422 0.0
H1804 H 0.46578 0.25096 0.6586 0.0
H1805 H 0.51766 0.38642 0.70231 0.0
H1806 H 0.49609 0.40839 0.6864 0.0
H1807 H 0.51579 0.38981 0.66324 0.0
C1808 C 0.63045 0.56516 0.71742 0.0
C1809 C 0.62616 0.56386 0.68636 0.0
C1810 C 0.63547 0.53897 0.731 0.0
C1811 C 0.63597 0.51097 0.71305 0.0
C1812 C 0.63155 0.50965 0.68173 0.0
C1813 C 0.62679 0.536 0.66889 0.0
C1814 C 0.64041 0.54126 0.76439 0.0
C1815 C 0.63172 0.48028 0.66156 0.0
C1816 C 0.66706 0.44306 0.72515 0.0
C1817 C 0.6464 0.42003 0.72529 0.0
C1818 C 0.66453 0.47438 0.72582 0.0
C1819 C 0.64071 0.4824 0.7261 0.0
C1820 C 0.62042 0.45953 0.73049 0.0
C1821 C 0.62353 0.42845 0.72992 0.0
C1822 C 0.68675 0.49798 0.7216 0.0
C1823 C 0.59471 0.46689 0.73095 0.0
H1824 H 0.63012 0.58666 0.73105 0.0
H1825 H 0.62338 0.53458 0.64491 0.0
H1826 H 0.62734 0.5234 0.7736 0.0
H1827 H 0.65922 0.53664 0.77025 0.0
H1828 H 0.6388 0.56446 0.77526 0.0
H1829 H 0.62741 0.48307 0.63772 0.0
H1830 H 0.65007 0.47321 0.66404 0.0
H1831 H 0.61802 0.46113 0.66786 0.0
H1832 H 0.68468 0.43636 0.7211 0.0
H1833 H 0.60752 0.41043 0.72957 0.0
H1834 H 0.68586 0.52089 0.73358 0.0
H1835 H 0.68732 0.50089 0.69755 0.0
H1836 H 0.70409 0.49039 0.72947 0.0
H1837 H 0.58242 0.4491 0.74136 0.0
H1838 H 0.58692 0.46734 0.70774 0.0
H1839 H 0.59479 0.48997 0.74314 0.0
C1840 C 0.4381 0.28188 0.35721 0.0
C1841 C 0.42385 0.28825 0.33246 0.0
C1842 C 0.46258 0.27788 0.35514 0.0
C1843 C 0.47313 0.28099 0.32776 0.0
C1844 C 0.45812 0.28475 0.30208 0.0
C1845 C 0.43347 0.28814 0.30471 0.0
C1846 C 0.47777 0.27348 0.38301 0.0
C1847 C 0.46867 0.28838 0.27254 0.0
C1848 C 0.54055 0.31822 0.33712 0.0
C1849 C 0.55239 0.29251 0.3323 0.0
C1850 C 0.51478 0.31481 0.3347 0.0
C1851 C 0.50038 0.28494 0.32733 0.0
C1852 C 0.51215 0.259 0.32163 0.0
C1853 C 0.53799 0.26308 0.32415 0.0
C1854 C 0.50294 0.34314 0.34088 0.0
C1855 C 0.49744 0.22682 0.31385 0.0
H1856 H 0.43067 0.28247 0.37875 0.0
H1857 H 0.42257 0.29383 0.28577 0.0
H1858 H 0.48927 0.25543 0.37836 0.0
H1859 H 0.49038 0.29548 0.39102 0.0
H1860 H 0.46609 0.2668 0.40112 0.0
H1861 H 0.45399 0.28588 0.25395 0.0
H1862 H 0.48005 0.31176 0.27335 0.0
H1863 H 0.4808 0.27109 0.26778 0.0
H1864 H 0.55142 0.34106 0.34333 0.0
H1865 H 0.54688 0.24302 0.32029 0.0
H1866 H 0.49252 0.34094 0.36085 0.0
H1867 H 0.48961 0.34507 0.32193 0.0
H1868 H 0.51667 0.3649 0.34471 0.0
H1869 H 0.48747 0.21957 0.33315 0.0
H1870 H 0.50927 0.20947 0.30775 0.0
H1871 H 0.4834 0.22665 0.29504 0.0
C1872 C 0.66454 0.42278 0.30001 0.0
C1873 C 0.64529 0.41066 0.31639 0.0
C1874 C 0.66957 0.45472 0.29681 0.0
C1875 C 0.65467 0.47474 0.3098 0.0
C1876 C 0.63483 0.46236 0.32569 0.0
C1877 C 0.63055 0.43061 0.329 0.0
C1878 C 0.69109 0.46717 0.28012 0.0
C1879 C 0.61811 0.48268 0.33936 0.0
C1880 C 0.67225 0.56171 0.32981 0.0
C1881 C 0.65837 0.57281 0.30729 0.0
C1882 C 0.67294 0.52982 0.32963 0.0
C1883 C 0.65918 0.50861 0.30663 0.0
C1884 C 0.64676 0.51997 0.28269 0.0
C1885 C 0.64675 0.5519 0.28316 0.0
C1886 C 0.68689 0.51867 0.35522 0.0
C1887 C 0.63165 0.49827 0.25786 0.0
H1888 H 0.67616 0.40749 0.29053 0.0
H1889 H 0.61557 0.42134 0.34159 0.0
H1890 H 0.68479 0.4796 0.26157 0.0
H1891 H 0.70452 0.48419 0.29523 0.0
H1892 H 0.70065 0.44853 0.27092 0.0
H1893 H 0.60313 0.46926 0.35035 0.0
H1894 H 0.62894 0.50064 0.35614 0.0
H1895 H 0.60967 0.49489 0.32197 0.0
H1896 H 0.68149 0.57764 0.34841 0.0
H1897 H 0.63631 0.56021 0.26532 0.0
H1898 H 0.69742 0.50067 0.34698 0.0
H1899 H 0.67367 0.50796 0.37018 0.0
H1900 H 0.69982 0.53792 0.36844 0.0
H1901 H 0.64212 0.48036 0.24929 0.0
H1902 H 0.62586 0.51078 0.23905 0.0
H1903 H 0.61487 0.48606 0.26657 0.0
C1904 C 0.56201 0.72818 0.2637 0.0
C1905 C 0.56925 0.71366 0.28835 0.0
C1906 C 0.5376 0.73357 0.25906 0.0
C1907 C 0.52037 0.72439 0.2797 0.0
C1908 C 0.5281 0.71087 0.3052 0.0
C1909 C 0.55232 0.70559 0.30907 0.0
C1910 C 0.53005 0.74788 0.23157 0.0
C1911 C 0.51063 0.70127 0.32822 0.0
C1912 C 0.46203 0.75347 0.29585 0.0
C1913 C 0.44457 0.72669 0.28698 0.0
C1914 C 0.48674 0.75472 0.29016 0.0
C1915 C 0.49413 0.72842 0.27539 0.0
C1916 C 0.47596 0.70295 0.26299 0.0
C1917 C 0.45125 0.70237 0.26895 0.0
C1918 C 0.5053 0.78255 0.30342 0.0
C1919 C 0.48299 0.67465 0.24667 0.0
H1920 H 0.57506 0.73402 0.24748 0.0
H1921 H 0.55799 0.6945 0.32823 0.0
H1922 H 0.51818 0.72985 0.21575 0.0
H1923 H 0.51912 0.76632 0.23719 0.0
H1924 H 0.54621 0.75788 0.22021 0.0
H1925 H 0.51977 0.6916 0.347 0.0
H1926 H 0.50281 0.72148 0.33737 0.0
H1927 H 0.49505 0.68348 0.31779 0.0
H1928 H 0.45675 0.77248 0.3095 0.0
H1929 H 0.43778 0.68161 0.26213 0.0
H1930 H 0.51987 0.78838 0.28824 0.0
H1931 H 0.51431 0.77716 0.32455 0.0
H1932 H 0.49646 0.80319 0.30838 0.0
H1933 H 0.4975 0.68137 0.23166 0.0
H1934 H 0.46689 0.65998 0.2334 0.0
H1935 H 0.4905 0.66054 0.26306 0.0
C1936 C 0.37953 0.48473 0.39601 0.0
C1937 C 0.38435 0.46355 0.37301 0.0
C1938 C 0.38101 0.51637 0.39221 0.0
C1939 C 0.38803 0.52717 0.36501 0.0
C1940 C 0.3931 0.5059 0.34182 0.0
C1941 C 0.39093 0.47434 0.34597 0.0
C1942 C 0.37487 0.5382 0.4172 0.0
C1943 C 0.40099 0.5165 0.31264 0.0
C1944 C 0.36914 0.60097 0.34094 0.0
C1945 C 0.39065 0.62288 0.34865 0.0
C1946 C 0.36793 0.57003 0.34676 0.0
C1947 C 0.38894 0.56042 0.36015 0.0
C1948 C 0.41078 0.58239 0.36808 0.0
C1949 C 0.41128 0.61352 0.36258 0.0
C1950 C 0.3441 0.54761 0.33855 0.0
C1951 C 0.43371 0.5729 0.38188 0.0
H1952 H 0.3745 0.47654 0.41696 0.0
H1953 H 0.39508 0.45823 0.32821 0.0
H1954 H 0.39086 0.55688 0.42413 0.0
H1955 H 0.35936 0.54947 0.4094 0.0
H1956 H 0.3697 0.52615 0.43694 0.0
H1957 H 0.4054 0.49727 0.2974 0.0
H1958 H 0.38613 0.5265 0.3013 0.0
H1959 H 0.41744 0.53503 0.31676 0.0
H1960 H 0.35296 0.60814 0.33086 0.0
H1961 H 0.42793 0.63039 0.36863 0.0
H1962 H 0.33802 0.5364 0.35838 0.0
H1963 H 0.34694 0.52895 0.32161 0.0
H1964 H 0.32912 0.55912 0.32952 0.0
H1965 H 0.4298 0.5626 0.40286 0.0
H1966 H 0.44916 0.59275 0.3868 0.0
H1967 H 0.43961 0.55484 0.36661 0.0
loop_
_geom_bond_atom_site_label_1
_geom_bond_atom_site_label_2
_geom_bond_distance
_geom_bond_site_symmetry_2
_ccdc_geom_bond_type
Co0 O2 2.143 . S
Co0 O8 2.074 . S
Co0 O11 2.093 . S
Co0 O24 2.097 . S
Co0 N41 2.151 . S
Co0 N49 2.214 . S
Co1 O2 2.160 . S
Co1 O7 2.058 . S
Co1 O17 2.057 . S
Co1 O32 2.037 . S
Co1 N36 2.145 . S
Co1 N57 2.257 . S
O2 Co0 2.143 . S
O2 Co1 2.160 . S
C3 O4 1.278 . S
C3 O11 1.224 . S
O4 C3 1.278 . S
C5 O6 1.245 . S
C5 O17 1.232 . S
O6 C5 1.245 . S
O7 Co1 2.058 . S
O7 C33 1.269 . S
O8 Co0 2.074 . S
O8 C33 1.257 . S
H9 C34 0.930 . S
H10 C40 0.930 . S
O11 Co0 2.093 . S
O11 C3 1.224 . S
H12 C44 0.929 . S
H13 C46 0.930 . S
H14 C47 0.930 . S
H15 C45 0.929 . S
H16 C48 0.928 . S
O17 Co1 2.057 . S
O17 C5 1.232 . S
H18 C37 0.929 . S
H19 C38 0.929 . S
H20 C50 0.931 . S
H21 C42 0.929 . S
H22 C51 0.930 . S
H23 C43 0.931 . S
O24 Co0 2.097 . S
O24 C52 1.214 . S
H25 C53 0.929 . S
H26 C54 0.929 . S
H27 C55 0.930 . S
H28 C56 0.929 . S
H29 C58 0.930 . S
H30 C35 0.930 . S
H31 C39 0.930 . S
O32 Co1 2.037 . S
O32 C52 1.234 . S
C33 O7 1.269 . S
C33 O8 1.257 . S
C34 H9 0.930 . S
C34 C37 1.388 . S
C34 C39 1.418 . S
C35 H30 0.930 . S
C35 C38 1.404 . S
C35 C39 1.353 . S
N36 Co1 2.145 . S
N36 C37 1.397 . S
N36 C38 1.334 . S
C37 H18 0.929 . S
C37 C34 1.388 . S
C37 N36 1.397 . S
C38 H19 0.929 . S
C38 C35 1.404 . S
C38 N36 1.334 . S
C39 H31 0.930 . S
C39 C34 1.418 . S
C39 C35 1.353 . S
C40 H10 0.930 . S
C40 N41 1.330 . S
C40 C42 1.446 . S
N41 Co0 2.151 . S
N41 C40 1.330 . S
N41 C45 1.418 . S
C42 H21 0.929 . S
C42 C40 1.446 . S
C42 C43 1.332 . S
C43 H23 0.931 . S
C43 C42 1.332 . S
C43 C44 1.267 . S
C44 H12 0.929 . S
C44 C43 1.267 . S
C44 C45 1.251 . S
C45 H15 0.929 . S
C45 N41 1.418 . S
C45 C44 1.251 . S
C46 H13 0.930 . S
C46 C48 1.406 . S
C46 C51 1.261 . S
C47 H14 0.930 . S
C47 N49 1.325 . S
C47 C50 1.357 . S
C48 H16 0.928 . S
C48 C46 1.406 . S
C48 N49 1.261 . S
N49 Co0 2.214 . S
N49 C47 1.325 . S
N49 C48 1.261 . S
C50 H20 0.931 . S
C50 C47 1.357 . S
C50 C51 1.312 . S
C51 H22 0.930 . S
C51 C46 1.261 . S
C51 C50 1.312 . S
C52 O24 1.214 . S
C52 O32 1.234 . S
C53 H25 0.929 . S
C53 C56 1.391 . S
C53 C58 1.391 . S
C54 H26 0.929 . S
C54 C55 1.390 . S
C54 N57 1.391 . S
C55 H27 0.930 . S
C55 C54 1.390 . S
C55 C56 1.392 . S
C56 H28 0.929 . S
C56 C53 1.391 . S
C56 C55 1.392 . S
N57 Co1 2.257 . S
N57 C54 1.391 . S
N57 C58 1.388 . S
C58 H29 0.930 . S
C58 C53 1.391 . S
C58 N57 1.388 . S
Co59 O61 2.143 . S
Co59 O67 2.074 . S
Co59 O70 2.093 . S
Co59 O83 2.097 . S
Co59 N100 2.151 . S
Co59 N108 2.214 . S
Co60 O61 2.160 . S
Co60 O66 2.058 . S
Co60 O76 2.057 . S
Co60 O91 2.037 . S
Co60 N95 2.145 . S
Co60 N116 2.257 . S
O61 Co59 2.143 . S
O61 Co60 2.160 . S
C62 O63 1.278 . S
C62 O70 1.224 . S
O63 C62 1.278 . S
C64 O65 1.245 . S
C64 O76 1.232 . S
O65 C64 1.245 . S
O66 Co60 2.058 . S
O66 C92 1.269 . S
O67 Co59 2.074 . S
O67 C92 1.257 . S
H68 C93 0.930 . S
H69 C99 0.930 . S
O70 Co59 2.093 . S
O70 C62 1.224 . S
H71 C103 0.929 . S
H72 C105 0.930 . S
H73 C106 0.930 . S
H74 C104 0.929 . S
H75 C107 0.928 . S
O76 Co60 2.057 . S
O76 C64 1.232 . S
H77 C96 0.929 . S
H78 C97 0.929 . S
H79 C109 0.931 . S
H80 C101 0.929 . S
H81 C110 0.930 . S
H82 C102 0.931 . S
O83 Co59 2.097 . S
O83 C111 1.214 . S
H84 C112 0.929 . S
H85 C113 0.929 . S
H86 C114 0.930 . S
H87 C115 0.929 . S
H88 C117 0.930 . S
H89 C94 0.930 . S
H90 C98 0.930 . S
O91 Co60 2.037 . S
O91 C111 1.234 . S
C92 O66 1.269 . S
C92 O67 1.257 . S
C93 H68 0.930 . S
C93 C96 1.388 . S
C93 C98 1.418 . S
C94 H89 0.930 . S
C94 C97 1.404 . S
C94 C98 1.353 . S
N95 Co60 2.145 . S
N95 C96 1.397 . S
N95 C97 1.334 . S
C96 H77 0.929 . S
C96 C93 1.388 . S
C96 N95 1.397 . S
C97 H78 0.929 . S
C97 C94 1.404 . S
C97 N95 1.334 . S
C98 H90 0.930 . S
C98 C93 1.418 . S
C98 C94 1.353 . S
C99 H69 0.930 . S
C99 N100 1.330 . S
C99 C101 1.446 . S
N100 Co59 2.151 . S
N100 C99 1.330 . S
N100 C104 1.418 . S
C101 H80 0.929 . S
C101 C99 1.446 . S
C101 C102 1.332 . S
C102 H82 0.931 . S
C102 C101 1.332 . S
C102 C103 1.267 . S
C103 H71 0.929 . S
C103 C102 1.267 . S
C103 C104 1.251 . S
C104 H74 0.929 . S
C104 N100 1.418 . S
C104 C103 1.251 . S
C105 H72 0.930 . S
C105 C107 1.406 . S
C105 C110 1.261 . S
C106 H73 0.930 . S
C106 N108 1.325 . S
C106 C109 1.357 . S
C107 H75 0.928 . S
C107 C105 1.406 . S
C107 N108 1.261 . S
N108 Co59 2.214 . S
N108 C106 1.325 . S
N108 C107 1.261 . S
C109 H79 0.931 . S
C109 C106 1.357 . S
C109 C110 1.312 . S
C110 H81 0.930 . S
C110 C105 1.261 . S
C110 C109 1.312 . S
C111 O83 1.214 . S
C111 O91 1.234 . S
C112 H84 0.929 . S
C112 C115 1.391 . S
C112 C117 1.391 . S
C113 H85 0.929 . S
C113 C114 1.390 . S
C113 N116 1.391 . S
C114 H86 0.930 . S
C114 C113 1.390 . S
C114 C115 1.392 . S
C115 H87 0.929 . S
C115 C112 1.391 . S
C115 C114 1.392 . S
N116 Co60 2.257 . S
N116 C113 1.391 . S
N116 C117 1.388 . S
C117 H88 0.930 . S
C117 C112 1.391 . S
C117 N116 1.388 . S
Co118 O120 2.143 . S
Co118 O126 2.074 . S
Co118 O129 2.093 . S
Co118 O142 2.097 . S
Co118 N159 2.151 . S
Co118 N167 2.214 . S
Co119 O120 2.160 . S
Co119 O125 2.058 . S
Co119 O135 2.057 . S
Co119 O150 2.037 . S
Co119 N154 2.145 . S
Co119 N175 2.257 . S
O120 Co118 2.143 . S
O120 Co119 2.160 . S
C121 O122 1.278 . S
C121 O129 1.224 . S
O122 C121 1.278 . S
C123 O124 1.245 . S
C123 O135 1.232 . S
O124 C123 1.245 . S
O125 Co119 2.058 . S
O125 C151 1.269 . S
O126 Co118 2.074 . S
O126 C151 1.257 . S
H127 C152 0.930 . S
H128 C158 0.930 . S
O129 Co118 2.093 . S
O129 C121 1.224 . S
H130 C162 0.929 . S
H131 C164 0.930 . S
H132 C165 0.930 . S
H133 C163 0.929 . S
H134 C166 0.928 . S
O135 Co119 2.057 . S
O135 C123 1.232 . S
H136 C155 0.929 . S
H137 C156 0.929 . S
H138 C168 0.931 . S
H139 C160 0.929 . S
H140 C169 0.930 . S
H141 C161 0.931 . S
O142 Co118 2.097 . S
O142 C170 1.214 . S
H143 C171 0.929 . S
H144 C172 0.929 . S
H145 C173 0.930 . S
H146 C174 0.929 . S
H147 C176 0.930 . S
H148 C153 0.930 . S
H149 C157 0.930 . S
O150 Co119 2.037 . S
O150 C170 1.234 . S
C151 O125 1.269 . S
C151 O126 1.257 . S
C152 H127 0.930 . S
C152 C155 1.388 . S
C152 C157 1.418 . S
C153 H148 0.930 . S
C153 C156 1.404 . S
C153 C157 1.353 . S
N154 Co119 2.145 . S
N154 C155 1.397 . S
N154 C156 1.334 . S
C155 H136 0.929 . S
C155 C152 1.388 . S
C155 N154 1.397 . S
C156 H137 0.929 . S
C156 C153 1.404 . S
C156 N154 1.334 . S
C157 H149 0.930 . S
C157 C152 1.418 . S
C157 C153 1.353 . S
C158 H128 0.930 . S
C158 N159 1.330 . S
C158 C160 1.446 . S
N159 Co118 2.151 . S
N159 C158 1.330 . S
N159 C163 1.418 . S
C160 H139 0.929 . S
C160 C158 1.446 . S
C160 C161 1.332 . S
C161 H141 0.931 . S
C161 C160 1.332 . S
C161 C162 1.267 . S
C162 H130 0.929 . S
C162 C161 1.267 . S
C162 C163 1.251 . S
C163 H133 0.929 . S
C163 N159 1.418 . S
C163 C162 1.251 . S
C164 H131 0.930 . S
C164 C166 1.406 . S
C164 C169 1.261 . S
C165 H132 0.930 . S
C165 N167 1.325 . S
C165 C168 1.357 . S
C166 H134 0.928 . S
C166 C164 1.406 . S
C166 N167 1.261 . S
N167 Co118 2.214 . S
N167 C165 1.325 . S
N167 C166 1.261 . S
C168 H138 0.931 . S
C168 C165 1.357 . S
C168 C169 1.312 . S
C169 H140 0.930 . S
C169 C164 1.261 . S
C169 C168 1.312 . S
C170 O142 1.214 . S
C170 O150 1.234 . S
C171 H143 0.929 . S
C171 C174 1.391 . S
C171 C176 1.391 . S
C172 H144 0.929 . S
C172 C173 1.390 . S
C172 N175 1.391 . S
C173 H145 0.930 . S
C173 C172 1.390 . S
C173 C174 1.392 . S
C174 H146 0.929 . S
C174 C171 1.391 . S
C174 C173 1.392 . S
N175 Co119 2.257 . S
N175 C172 1.391 . S
N175 C176 1.388 . S
C176 H147 0.930 . S
C176 C171 1.391 . S
C176 N175 1.388 . S
Co177 O179 2.143 . S
Co177 O185 2.074 . S
Co177 O188 2.093 . S
Co177 O201 2.097 . S
Co177 N218 2.151 . S
Co177 N226 2.214 . S
Co178 O179 2.160 . S
Co178 O184 2.058 . S
Co178 O194 2.057 . S
Co178 O209 2.037 . S
Co178 N213 2.145 . S
Co178 N234 2.257 . S
O179 Co177 2.143 . S
O179 Co178 2.160 . S
C180 O181 1.278 . S
C180 O188 1.224 . S
O181 C180 1.278 . S
C182 O183 1.245 . S
C182 O194 1.232 . S
O183 C182 1.245 . S
O184 Co178 2.058 . S
O184 C210 1.269 . S
O185 Co177 2.074 . S
O185 C210 1.257 . S
H186 C211 0.930 . S
H187 C217 0.930 . S
O188 Co177 2.093 . S
O188 C180 1.224 . S
H189 C221 0.929 . S
H190 C223 0.930 . S
H191 C224 0.930 . S
H192 C222 0.929 . S
H193 C225 0.928 . S
O194 Co178 2.057 . S
O194 C182 1.232 . S
H195 C214 0.929 . S
H196 C215 0.929 . S
H197 C227 0.931 . S
H198 C219 0.929 . S
H199 C228 0.930 . S
H200 C220 0.931 . S
O201 Co177 2.097 . S
O201 C229 1.214 . S
H202 C230 0.929 . S
H203 C231 0.929 . S
H204 C232 0.930 . S
H205 C233 0.929 . S
H206 C235 0.930 . S
H207 C212 0.930 . S
H208 C216 0.930 . S
O209 Co178 2.037 . S
O209 C229 1.234 . S
C210 O184 1.269 . S
C210 O185 1.257 . S
C211 H186 0.930 . S
C211 C214 1.388 . S
C211 C216 1.418 . S
C212 H207 0.930 . S
C212 C215 1.404 . S
C212 C216 1.353 . S
N213 Co178 2.145 . S
N213 C214 1.397 . S
N213 C215 1.334 . S
C214 H195 0.929 . S
C214 C211 1.388 . S
C214 N213 1.397 . S
C215 H196 0.929 . S
C215 C212 1.404 . S
C215 N213 1.334 . S
C216 H208 0.930 . S
C216 C211 1.418 . S
C216 C212 1.353 . S
C217 H187 0.930 . S
C217 N218 1.330 . S
C217 C219 1.446 . S
N218 Co177 2.151 . S
N218 C217 1.330 . S
N218 C222 1.418 . S
C219 H198 0.929 . S
C219 C217 1.446 . S
C219 C220 1.332 . S
C220 H200 0.931 . S
C220 C219 1.332 . S
C220 C221 1.267 . S
C221 H189 0.929 . S
C221 C220 1.267 . S
C221 C222 1.251 . S
C222 H192 0.929 . S
C222 N218 1.418 . S
C222 C221 1.251 . S
C223 H190 0.930 . S
C223 C225 1.406 . S
C223 C228 1.261 . S
C224 H191 0.930 . S
C224 N226 1.325 . S
C224 C227 1.357 . S
C225 H193 0.928 . S
C225 C223 1.406 . S
C225 N226 1.261 . S
N226 Co177 2.214 . S
N226 C224 1.325 . S
N226 C225 1.261 . S
C227 H197 0.931 . S
C227 C224 1.357 . S
C227 C228 1.312 . S
C228 H199 0.930 . S
C228 C223 1.261 . S
C228 C227 1.312 . S
C229 O201 1.214 . S
C229 O209 1.234 . S
C230 H202 0.929 . S
C230 C233 1.391 . S
C230 C235 1.391 . S
C231 H203 0.929 . S
C231 C232 1.390 . S
C231 N234 1.391 . S
C232 H204 0.930 . S
C232 C231 1.390 . S
C232 C233 1.392 . S
C233 H205 0.929 . S
C233 C230 1.391 . S
C233 C232 1.392 . S
N234 Co178 2.257 . S
N234 C231 1.391 . S
N234 C235 1.388 . S
C235 H206 0.930 . S
C235 C230 1.391 . S
C235 N234 1.388 . S
Co236 O238 2.143 . S
Co236 O244 2.074 . S
Co236 O247 2.093 . S
Co236 O260 2.097 . S
Co236 N277 2.151 . S
Co236 N285 2.214 . S
Co237 O238 2.160 . S
Co237 O243 2.058 . S
Co237 O253 2.057 . S
Co237 O268 2.037 . S
Co237 N272 2.145 . S
Co237 N293 2.257 . S
O238 Co236 2.143 . S
O238 Co237 2.160 . S
C239 O240 1.278 . S
C239 O247 1.224 . S
O240 C239 1.278 . S
C241 O242 1.245 . S
C241 O253 1.232 . S
O242 C241 1.245 . S
O243 Co237 2.058 . S
O243 C269 1.269 . S
O244 Co236 2.074 . S
O244 C269 1.257 . S
H245 C270 0.930 . S
H246 C276 0.930 . S
O247 Co236 2.093 . S
O247 C239 1.224 . S
H248 C280 0.929 . S
H249 C282 0.930 . S
H250 C283 0.930 . S
H251 C281 0.929 . S
H252 C284 0.928 . S
O253 Co237 2.057 . S
O253 C241 1.232 . S
H254 C273 0.929 . S
H255 C274 0.929 . S
H256 C286 0.931 . S
H257 C278 0.929 . S
H258 C287 0.930 . S
H259 C279 0.931 . S
O260 Co236 2.097 . S
O260 C288 1.214 . S
H261 C289 0.929 . S
H262 C290 0.929 . S
H263 C291 0.930 . S
H264 C292 0.929 . S
H265 C294 0.930 . S
H266 C271 0.930 . S
H267 C275 0.930 . S
O268 Co237 2.037 . S
O268 C288 1.234 . S
C269 O243 1.269 . S
C269 O244 1.257 . S
C270 H245 0.930 . S
C270 C273 1.388 . S
C270 C275 1.418 . S
C271 H266 0.930 . S
C271 C274 1.404 . S
C271 C275 1.353 . S
N272 Co237 2.145 . S
N272 C273 1.397 . S
N272 C274 1.334 . S
C273 H254 0.929 . S
C273 C270 1.388 . S
C273 N272 1.397 . S
C274 H255 0.929 . S
C274 C271 1.404 . S
C274 N272 1.334 . S
C275 H267 0.930 . S
C275 C270 1.418 . S
C275 C271 1.353 . S
C276 H246 0.930 . S
C276 N277 1.330 . S
C276 C278 1.446 . S
N277 Co236 2.151 . S
N277 C276 1.330 . S
N277 C281 1.418 . S
C278 H257 0.929 . S
C278 C276 1.446 . S
C278 C279 1.332 . S
C279 H259 0.931 . S
C279 C278 1.332 . S
C279 C280 1.267 . S
C280 H248 0.929 . S
C280 C279 1.267 . S
C280 C281 1.251 . S
C281 H251 0.929 . S
C281 N277 1.418 . S
C281 C280 1.251 . S
C282 H249 0.930 . S
C282 C284 1.406 . S
C282 C287 1.261 . S
C283 H250 0.930 . S
C283 N285 1.325 . S
C283 C286 1.357 . S
C284 H252 0.928 . S
C284 C282 1.406 . S
C284 N285 1.261 . S
N285 Co236 2.214 . S
N285 C283 1.325 . S
N285 C284 1.261 . S
C286 H256 0.931 . S
C286 C283 1.357 . S
C286 C287 1.312 . S
C287 H258 0.930 . S
C287 C282 1.261 . S
C287 C286 1.312 . S
C288 O260 1.214 . S
C288 O268 1.234 . S
C289 H261 0.929 . S
C289 C292 1.391 . S
C289 C294 1.391 . S
C290 H262 0.929 . S
C290 C291 1.390 . S
C290 N293 1.391 . S
C291 H263 0.930 . S
C291 C290 1.390 . S
C291 C292 1.392 . S
C292 H264 0.929 . S
C292 C289 1.391 . S
C292 C291 1.392 . S
N293 Co237 2.257 . S
N293 C290 1.391 . S
N293 C294 1.388 . S
C294 H265 0.930 . S
C294 C289 1.391 . S
C294 N293 1.388 . S
Co295 O297 2.143 . S
Co295 O303 2.074 . S
Co295 O306 2.093 . S
Co295 O319 2.097 . S
Co295 N336 2.151 . S
Co295 N344 2.214 . S
Co296 O297 2.160 . S
Co296 O302 2.058 . S
Co296 O312 2.057 . S
Co296 O327 2.037 . S
Co296 N331 2.145 . S
Co296 N352 2.257 . S
O297 Co295 2.143 . S
O297 Co296 2.160 . S
C298 O299 1.278 . S
C298 O306 1.224 . S
O299 C298 1.278 . S
C300 O301 1.245 . S
C300 O312 1.232 . S
O301 C300 1.245 . S
O302 Co296 2.058 . S
O302 C328 1.269 . S
O303 Co295 2.074 . S
O303 C328 1.257 . S
H304 C329 0.930 . S
H305 C335 0.930 . S
O306 Co295 2.093 . S
O306 C298 1.224 . S
H307 C339 0.929 . S
H308 C341 0.930 . S
H309 C342 0.930 . S
H310 C340 0.929 . S
H311 C343 0.928 . S
O312 Co296 2.057 . S
O312 C300 1.232 . S
H313 C332 0.929 . S
H314 C333 0.929 . S
H315 C345 0.931 . S
H316 C337 0.929 . S
H317 C346 0.930 1_655 S
H318 C338 0.931 . S
O319 Co295 2.097 . S
O319 C347 1.214 . S
H320 C348 0.929 . S
H321 C349 0.929 . S
H322 C350 0.930 . S
H323 C351 0.929 . S
H324 C353 0.930 . S
H325 C330 0.930 . S
H326 C334 0.930 . S
O327 Co296 2.037 . S
O327 C347 1.234 . S
C328 O302 1.269 . S
C328 O303 1.257 . S
C329 H304 0.930 . S
C329 C332 1.388 . S
C329 C334 1.418 . S
C330 H325 0.930 . S
C330 C333 1.404 . S
C330 C334 1.353 . S
N331 Co296 2.145 . S
N331 C332 1.397 . S
N331 C333 1.334 . S
C332 H313 0.929 . S
C332 C329 1.388 . S
C332 N331 1.397 . S
C333 H314 0.929 . S
C333 C330 1.404 . S
C333 N331 1.334 . S
C334 H326 0.930 . S
C334 C329 1.418 . S
C334 C330 1.353 . S
C335 H305 0.930 . S
C335 N336 1.330 . S
C335 C337 1.446 . S
N336 Co295 2.151 . S
N336 C335 1.330 . S
N336 C340 1.418 . S
C337 H316 0.929 . S
C337 C335 1.446 . S
C337 C338 1.332 . S
C338 H318 0.931 . S
C338 C337 1.332 . S
C338 C339 1.267 . S
C339 H307 0.929 . S
C339 C338 1.267 . S
C339 C340 1.251 . S
C340 H310 0.929 . S
C340 N336 1.418 . S
C340 C339 1.251 . S
C341 H308 0.930 . S
C341 C343 1.406 . S
C341 C346 1.261 . S
C342 H309 0.930 . S
C342 N344 1.325 . S
C342 C345 1.357 . S
C343 H311 0.928 . S
C343 C341 1.406 . S
C343 N344 1.261 . S
N344 Co295 2.214 . S
N344 C342 1.325 . S
N344 C343 1.261 . S
C345 H315 0.931 . S
C345 C342 1.357 . S
C345 C346 1.312 . S
C346 H317 0.930 1_455 S
C346 C341 1.261 . S
C346 C345 1.312 . S
C347 O319 1.214 . S
C347 O327 1.234 . S
C348 H320 0.929 . S
C348 C351 1.391 . S
C348 C353 1.391 . S
C349 H321 0.929 . S
C349 C350 1.390 . S
C349 N352 1.391 . S
C350 H322 0.930 . S
C350 C349 1.390 . S
C350 C351 1.392 . S
C351 H323 0.929 . S
C351 C348 1.391 . S
C351 C350 1.392 . S
N352 Co296 2.257 . S
N352 C349 1.391 . S
N352 C353 1.388 . S
C353 H324 0.930 . S
C353 C348 1.391 . S
C353 N352 1.388 . S
Co354 O356 2.143 . S
Co354 O362 2.074 . S
Co354 O365 2.093 . S
Co354 O378 2.097 . S
Co354 N395 2.151 . S
Co354 N403 2.214 . S
Co355 O356 2.160 . S
Co355 O361 2.058 . S
Co355 O371 2.057 . S
Co355 O386 2.037 . S
Co355 N390 2.145 . S
Co355 N411 2.257 . S
O356 Co354 2.143 . S
O356 Co355 2.160 . S
C357 O358 1.278 . S
C357 O365 1.224 . S
O358 C357 1.278 . S
C359 O360 1.245 . S
C359 O371 1.232 . S
O360 C359 1.245 . S
O361 Co355 2.058 . S
O361 C387 1.269 . S
O362 Co354 2.074 . S
O362 C387 1.257 . S
H363 C388 0.930 . S
H364 C394 0.930 . S
O365 Co354 2.093 . S
O365 C357 1.224 . S
H366 C398 0.929 . S
H367 C400 0.930 . S
H368 C401 0.930 . S
H369 C399 0.929 . S
H370 C402 0.928 . S
O371 Co355 2.057 . S
O371 C359 1.232 . S
H372 C391 0.929 . S
H373 C392 0.929 . S
H374 C404 0.931 . S
H375 C396 0.929 . S
H376 C405 0.930 . S
H377 C397 0.931 . S
O378 Co354 2.097 . S
O378 C406 1.214 . S
H379 C407 0.929 . S
H380 C408 0.929 . S
H381 C409 0.930 . S
H382 C410 0.929 . S
H383 C412 0.930 . S
H384 C389 0.930 . S
H385 C393 0.930 . S
O386 Co355 2.037 . S
O386 C406 1.234 . S
C387 O361 1.269 . S
C387 O362 1.257 . S
C388 H363 0.930 . S
C388 C391 1.388 . S
C388 C393 1.418 . S
C389 H384 0.930 . S
C389 C392 1.404 . S
C389 C393 1.353 . S
N390 Co355 2.145 . S
N390 C391 1.397 . S
N390 C392 1.334 . S
C391 H372 0.929 . S
C391 C388 1.388 . S
C391 N390 1.397 . S
C392 H373 0.929 . S
C392 C389 1.404 . S
C392 N390 1.334 . S
C393 H385 0.930 . S
C393 C388 1.418 . S
C393 C389 1.353 . S
C394 H364 0.930 . S
C394 N395 1.330 . S
C394 C396 1.446 . S
N395 Co354 2.151 . S
N395 C394 1.330 . S
N395 C399 1.418 . S
C396 H375 0.929 . S
C396 C394 1.446 . S
C396 C397 1.332 . S
C397 H377 0.931 . S
C397 C396 1.332 . S
C397 C398 1.267 . S
C398 H366 0.929 . S
C398 C397 1.267 . S
C398 C399 1.251 . S
C399 H369 0.929 . S
C399 N395 1.418 . S
C399 C398 1.251 . S
C400 H367 0.930 . S
C400 C402 1.406 . S
C400 C405 1.261 . S
C401 H368 0.930 . S
C401 N403 1.325 . S
C401 C404 1.357 . S
C402 H370 0.928 . S
C402 C400 1.406 . S
C402 N403 1.261 . S
N403 Co354 2.214 . S
N403 C401 1.325 . S
N403 C402 1.261 . S
C404 H374 0.931 . S
C404 C401 1.357 . S
C404 C405 1.312 . S
C405 H376 0.930 . S
C405 C400 1.261 . S
C405 C404 1.312 . S
C406 O378 1.214 . S
C406 O386 1.234 . S
C407 H379 0.929 . S
C407 C410 1.391 . S
C407 C412 1.391 . S
C408 H380 0.929 . S
C408 C409 1.390 . S
C408 N411 1.391 . S
C409 H381 0.930 . S
C409 C408 1.390 . S
C409 C410 1.392 . S
C410 H382 0.929 . S
C410 C407 1.391 . S
C410 C409 1.392 . S
N411 Co355 2.257 . S
N411 C408 1.391 . S
N411 C412 1.388 . S
C412 H383 0.930 . S
C412 C407 1.391 . S
C412 N411 1.388 . S
Co413 O415 2.143 . S
Co413 O421 2.074 . S
Co413 O424 2.093 . S
Co413 O437 2.097 . S
Co413 N454 2.151 . S
Co413 N462 2.214 . S
Co414 O415 2.160 . S
Co414 O420 2.058 . S
Co414 O430 2.057 . S
Co414 O445 2.037 . S
Co414 N449 2.145 . S
Co414 N470 2.257 . S
O415 Co413 2.143 . S
O415 Co414 2.160 . S
C416 O417 1.278 . S
C416 O424 1.224 . S
O417 C416 1.278 . S
C418 O419 1.245 . S
C418 O430 1.232 . S
O419 C418 1.245 . S
O420 Co414 2.058 . S
O420 C446 1.269 . S
O421 Co413 2.074 . S
O421 C446 1.257 . S
H422 C447 0.930 . S
H423 C453 0.930 . S
O424 Co413 2.093 . S
O424 C416 1.224 . S
H425 C457 0.929 . S
H426 C459 0.930 . S
H427 C460 0.930 . S
H428 C458 0.929 . S
H429 C461 0.928 . S
O430 Co414 2.057 . S
O430 C418 1.232 . S
H431 C450 0.929 . S
H432 C451 0.929 . S
H433 C463 0.931 . S
H434 C455 0.929 . S
H435 C464 0.930 . S
H436 C456 0.931 . S
O437 Co413 2.097 . S
O437 C465 1.214 . S
H438 C466 0.929 . S
H439 C467 0.929 . S
H440 C468 0.930 . S
H441 C469 0.929 . S
H442 C471 0.930 . S
H443 C448 0.930 . S
H444 C452 0.930 . S
O445 Co414 2.037 . S
O445 C465 1.234 . S
C446 O420 1.269 . S
C446 O421 1.257 . S
C447 H422 0.930 . S
C447 C450 1.388 . S
C447 C452 1.418 . S
C448 H443 0.930 . S
C448 C451 1.404 . S
C448 C452 1.353 . S
N449 Co414 2.145 . S
N449 C450 1.397 . S
N449 C451 1.334 . S
C450 H431 0.929 . S
C450 C447 1.388 . S
C450 N449 1.397 . S
C451 H432 0.929 . S
C451 C448 1.404 . S
C451 N449 1.334 . S
C452 H444 0.930 . S
C452 C447 1.418 . S
C452 C448 1.353 . S
C453 H423 0.930 . S
C453 N454 1.330 . S
C453 C455 1.446 . S
N454 Co413 2.151 . S
N454 C453 1.330 . S
N454 C458 1.418 . S
C455 H434 0.929 . S
C455 C453 1.446 . S
C455 C456 1.332 . S
C456 H436 0.931 . S
C456 C455 1.332 . S
C456 C457 1.267 . S
C457 H425 0.929 . S
C457 C456 1.267 . S
C457 C458 1.251 . S
C458 H428 0.929 . S
C458 N454 1.418 . S
C458 C457 1.251 . S
C459 H426 0.930 . S
C459 C461 1.406 . S
C459 C464 1.261 . S
C460 H427 0.930 . S
C460 N462 1.325 . S
C460 C463 1.357 . S
C461 H429 0.928 . S
C461 C459 1.406 . S
C461 N462 1.261 . S
N462 Co413 2.214 . S
N462 C460 1.325 . S
N462 C461 1.261 . S
C463 H433 0.931 . S
C463 C460 1.357 . S
C463 C464 1.312 . S
C464 H435 0.930 . S
C464 C459 1.261 . S
C464 C463 1.312 . S
C465 O437 1.214 . S
C465 O445 1.234 . S
C466 H438 0.929 . S
C466 C469 1.391 . S
C466 C471 1.391 . S
C467 H439 0.929 . S
C467 C468 1.390 . S
C467 N470 1.391 . S
C468 H440 0.930 . S
C468 C467 1.390 . S
C468 C469 1.392 . S
C469 H441 0.929 . S
C469 C466 1.391 . S
C469 C468 1.392 . S
N470 Co414 2.257 . S
N470 C467 1.391 . S
N470 C471 1.388 . S
C471 H442 0.930 . S
C471 C466 1.391 . S
C471 N470 1.388 . S
Co472 O474 2.143 . S
Co472 O480 2.074 . S
Co472 O483 2.093 . S
Co472 O496 2.097 . S
Co472 N513 2.151 . S
Co472 N521 2.214 . S
Co473 O474 2.160 . S
Co473 O479 2.058 . S
Co473 O489 2.057 . S
Co473 O504 2.037 . S
Co473 N508 2.145 . S
Co473 N529 2.257 . S
O474 Co472 2.143 . S
O474 Co473 2.160 . S
C475 O476 1.278 . S
C475 O483 1.224 . S
O476 C475 1.278 . S
C477 O478 1.245 . S
C477 O489 1.232 . S
O478 C477 1.245 . S
O479 Co473 2.058 . S
O479 C505 1.269 . S
O480 Co472 2.074 . S
O480 C505 1.257 . S
H481 C506 0.930 . S
H482 C512 0.930 . S
O483 Co472 2.093 . S
O483 C475 1.224 . S
H484 C516 0.929 . S
H485 C518 0.930 . S
H486 C519 0.930 . S
H487 C517 0.929 . S
H488 C520 0.928 . S
O489 Co473 2.057 . S
O489 C477 1.232 . S
H490 C509 0.929 . S
H491 C510 0.929 . S
H492 C522 0.931 . S
H493 C514 0.929 . S
H494 C523 0.930 . S
H495 C515 0.931 . S
O496 Co472 2.097 . S
O496 C524 1.214 . S
H497 C525 0.929 . S
H498 C526 0.929 . S
H499 C527 0.930 . S
H500 C528 0.929 . S
H501 C530 0.930 . S
H502 C507 0.930 . S
H503 C511 0.930 . S
O504 Co473 2.037 . S
O504 C524 1.234 . S
C505 O479 1.269 . S
C505 O480 1.257 . S
C506 H481 0.930 . S
C506 C509 1.388 . S
C506 C511 1.418 . S
C507 H502 0.930 . S
C507 C510 1.404 . S
C507 C511 1.353 . S
N508 Co473 2.145 . S
N508 C509 1.397 . S
N508 C510 1.334 . S
C509 H490 0.929 . S
C509 C506 1.388 . S
C509 N508 1.397 . S
C510 H491 0.929 . S
C510 C507 1.404 . S
C510 N508 1.334 . S
C511 H503 0.930 . S
C511 C506 1.418 . S
C511 C507 1.353 . S
C512 H482 0.930 . S
C512 N513 1.330 . S
C512 C514 1.446 . S
N513 Co472 2.151 . S
N513 C512 1.330 . S
N513 C517 1.418 . S
C514 H493 0.929 . S
C514 C512 1.446 . S
C514 C515 1.332 . S
C515 H495 0.931 . S
C515 C514 1.332 . S
C515 C516 1.267 . S
C516 H484 0.929 . S
C516 C515 1.267 . S
C516 C517 1.251 . S
C517 H487 0.929 . S
C517 N513 1.418 . S
C517 C516 1.251 . S
C518 H485 0.930 . S
C518 C520 1.406 . S
C518 C523 1.261 . S
C519 H486 0.930 . S
C519 N521 1.325 . S
C519 C522 1.357 . S
C520 H488 0.928 . S
C520 C518 1.406 . S
C520 N521 1.261 . S
N521 Co472 2.214 . S
N521 C519 1.325 . S
N521 C520 1.261 . S
C522 H492 0.931 . S
C522 C519 1.357 . S
C522 C523 1.312 . S
C523 H494 0.930 . S
C523 C518 1.261 . S
C523 C522 1.312 . S
C524 O496 1.214 . S
C524 O504 1.234 . S
C525 H497 0.929 . S
C525 C528 1.391 . S
C525 C530 1.391 . S
C526 H498 0.929 . S
C526 C527 1.390 . S
C526 N529 1.391 . S
C527 H499 0.930 . S
C527 C526 1.390 . S
C527 C528 1.392 . S
C528 H500 0.929 . S
C528 C525 1.391 . S
C528 C527 1.392 . S
N529 Co473 2.257 . S
N529 C526 1.391 . S
N529 C530 1.388 . S
C530 H501 0.930 . S
C530 C525 1.391 . S
C530 N529 1.388 . S
Co531 O533 2.143 . S
Co531 O539 2.074 . S
Co531 O542 2.093 . S
Co531 O555 2.097 . S
Co531 N572 2.151 . S
Co531 N580 2.214 . S
Co532 O533 2.160 . S
Co532 O538 2.058 . S
Co532 O548 2.057 . S
Co532 O563 2.037 . S
Co532 N567 2.145 . S
Co532 N588 2.257 . S
O533 Co531 2.143 . S
O533 Co532 2.160 . S
C534 O535 1.278 . S
C534 O542 1.224 . S
O535 C534 1.278 . S
C536 O537 1.245 . S
C536 O548 1.232 . S
O537 C536 1.245 . S
O538 Co532 2.058 . S
O538 C564 1.269 . S
O539 Co531 2.074 . S
O539 C564 1.257 . S
H540 C565 0.930 . S
H541 C571 0.930 . S
O542 Co531 2.093 . S
O542 C534 1.224 . S
H543 C575 0.929 . S
H544 C577 0.930 . S
H545 C578 0.930 . S
H546 C576 0.929 . S
H547 C579 0.928 . S
O548 Co532 2.057 . S
O548 C536 1.232 . S
H549 C568 0.929 . S
H550 C569 0.929 . S
H551 C581 0.931 . S
H552 C573 0.929 . S
H553 C582 0.930 . S
H554 C574 0.931 . S
O555 Co531 2.097 . S
O555 C583 1.214 . S
H556 C584 0.929 . S
H557 C585 0.929 . S
H558 C586 0.930 . S
H559 C587 0.929 . S
H560 C589 0.930 . S
H561 C566 0.930 . S
H562 C570 0.930 . S
O563 Co532 2.037 . S
O563 C583 1.234 . S
C564 O538 1.269 . S
C564 O539 1.257 . S
C565 H540 0.930 . S
C565 C568 1.388 . S
C565 C570 1.418 . S
C566 H561 0.930 . S
C566 C569 1.404 . S
C566 C570 1.353 . S
N567 Co532 2.145 . S
N567 C568 1.397 . S
N567 C569 1.334 . S
C568 H549 0.929 . S
C568 C565 1.388 . S
C568 N567 1.397 . S
C569 H550 0.929 . S
C569 C566 1.404 . S
C569 N567 1.334 . S
C570 H562 0.930 . S
C570 C565 1.418 . S
C570 C566 1.353 . S
C571 H541 0.930 . S
C571 N572 1.330 . S
C571 C573 1.446 . S
N572 Co531 2.151 . S
N572 C571 1.330 . S
N572 C576 1.418 . S
C573 H552 0.929 . S
C573 C571 1.446 . S
C573 C574 1.332 . S
C574 H554 0.931 . S
C574 C573 1.332 . S
C574 C575 1.267 . S
C575 H543 0.929 . S
C575 C574 1.267 . S
C575 C576 1.251 . S
C576 H546 0.929 . S
C576 N572 1.418 . S
C576 C575 1.251 . S
C577 H544 0.930 . S
C577 C579 1.406 . S
C577 C582 1.261 . S
C578 H545 0.930 . S
C578 N580 1.325 . S
C578 C581 1.357 . S
C579 H547 0.928 . S
C579 C577 1.406 . S
C579 N580 1.261 . S
N580 Co531 2.214 . S
N580 C578 1.325 . S
N580 C579 1.261 . S
C581 H551 0.931 . S
C581 C578 1.357 . S
C581 C582 1.312 . S
C582 H553 0.930 . S
C582 C577 1.261 . S
C582 C581 1.312 . S
C583 O555 1.214 . S
C583 O563 1.234 . S
C584 H556 0.929 . S
C584 C587 1.391 . S
C584 C589 1.391 . S
C585 H557 0.929 . S
C585 C586 1.390 . S
C585 N588 1.391 . S
C586 H558 0.930 . S
C586 C585 1.390 . S
C586 C587 1.392 . S
C587 H559 0.929 . S
C587 C584 1.391 . S
C587 C586 1.392 . S
N588 Co532 2.257 . S
N588 C585 1.391 . S
N588 C589 1.388 . S
C589 H560 0.930 . S
C589 C584 1.391 . S
C589 N588 1.388 . S
Co590 O592 2.143 . S
Co590 O598 2.074 . S
Co590 O601 2.093 . S
Co590 O614 2.097 . S
Co590 N631 2.151 . S
Co590 N639 2.214 . S
Co591 O592 2.160 . S
Co591 O597 2.058 . S
Co591 O607 2.057 . S
Co591 O622 2.037 . S
Co591 N626 2.145 . S
Co591 N647 2.257 . S
O592 Co590 2.143 . S
O592 Co591 2.160 . S
C593 O594 1.278 . S
C593 O601 1.224 . S
O594 C593 1.278 . S
C595 O596 1.245 . S
C595 O607 1.232 . S
O596 C595 1.245 . S
O597 Co591 2.058 . S
O597 C623 1.269 . S
O598 Co590 2.074 . S
O598 C623 1.257 . S
H599 C624 0.930 . S
H600 C630 0.930 . S
O601 Co590 2.093 . S
O601 C593 1.224 . S
H602 C634 0.929 . S
H603 C636 0.930 . S
H604 C637 0.930 . S
H605 C635 0.929 . S
H606 C638 0.928 . S
O607 Co591 2.057 . S
O607 C595 1.232 . S
H608 C627 0.929 . S
H609 C628 0.929 . S
H610 C640 0.931 . S
H611 C632 0.929 . S
H612 C641 0.930 . S
H613 C633 0.931 . S
O614 Co590 2.097 . S
O614 C642 1.214 . S
H615 C643 0.929 . S
H616 C644 0.929 . S
H617 C645 0.930 . S
H618 C646 0.929 . S
H619 C648 0.930 . S
H620 C625 0.930 . S
H621 C629 0.930 . S
O622 Co591 2.037 . S
O622 C642 1.234 . S
C623 O597 1.269 . S
C623 O598 1.257 . S
C624 H599 0.930 . S
C624 C627 1.388 . S
C624 C629 1.418 . S
C625 H620 0.930 . S
C625 C628 1.404 . S
C625 C629 1.353 . S
N626 Co591 2.145 . S
N626 C627 1.397 . S
N626 C628 1.334 . S
C627 H608 0.929 . S
C627 C624 1.388 . S
C627 N626 1.397 . S
C628 H609 0.929 . S
C628 C625 1.404 . S
C628 N626 1.334 . S
C629 H621 0.930 . S
C629 C624 1.418 . S
C629 C625 1.353 . S
C630 H600 0.930 . S
C630 N631 1.330 . S
C630 C632 1.446 . S
N631 Co590 2.151 . S
N631 C630 1.330 . S
N631 C635 1.418 . S
C632 H611 0.929 . S
C632 C630 1.446 . S
C632 C633 1.332 . S
C633 H613 0.931 . S
C633 C632 1.332 . S
C633 C634 1.267 . S
C634 H602 0.929 . S
C634 C633 1.267 . S
C634 C635 1.251 . S
C635 H605 0.929 . S
C635 N631 1.418 . S
C635 C634 1.251 . S
C636 H603 0.930 . S
C636 C638 1.406 . S
C636 C641 1.261 . S
C637 H604 0.930 . S
C637 N639 1.325 . S
C637 C640 1.357 . S
C638 H606 0.928 . S
C638 C636 1.406 . S
C638 N639 1.261 . S
N639 Co590 2.214 . S
N639 C637 1.325 . S
N639 C638 1.261 . S
C640 H610 0.931 . S
C640 C637 1.357 . S
C640 C641 1.312 . S
C641 H612 0.930 . S
C641 C636 1.261 . S
C641 C640 1.312 . S
C642 O614 1.214 . S
C642 O622 1.234 . S
C643 H615 0.929 . S
C643 C646 1.391 . S
C643 C648 1.391 . S
C644 H616 0.929 . S
C644 C645 1.390 . S
C644 N647 1.391 . S
C645 H617 0.930 . S
C645 C644 1.390 . S
C645 C646 1.392 . S
C646 H618 0.929 . S
C646 C643 1.391 . S
C646 C645 1.392 . S
N647 Co591 2.257 . S
N647 C644 1.391 . S
N647 C648 1.388 . S
C648 H619 0.930 . S
C648 C643 1.391 . S
C648 N647 1.388 . S
Co649 O651 2.143 . S
Co649 O657 2.074 . S
Co649 O660 2.093 . S
Co649 O673 2.097 . S
Co649 N690 2.151 . S
Co649 N698 2.214 . S
Co650 O651 2.160 . S
Co650 O656 2.058 . S
Co650 O666 2.057 . S
Co650 O681 2.037 . S
Co650 N685 2.145 . S
Co650 N706 2.257 . S
O651 Co649 2.143 . S
O651 Co650 2.160 . S
C652 O653 1.278 . S
C652 O660 1.224 . S
O653 C652 1.278 . S
C654 O655 1.245 . S
C654 O666 1.232 . S
O655 C654 1.245 . S
O656 Co650 2.058 . S
O656 C682 1.269 . S
O657 Co649 2.074 . S
O657 C682 1.257 . S
H658 C683 0.930 . S
H659 C689 0.930 . S
O660 Co649 2.093 . S
O660 C652 1.224 . S
H661 C693 0.929 . S
H662 C695 0.930 . S
H663 C696 0.930 . S
H664 C694 0.929 . S
H665 C697 0.928 . S
O666 Co650 2.057 . S
O666 C654 1.232 . S
H667 C686 0.929 . S
H668 C687 0.929 . S
H669 C699 0.931 . S
H670 C691 0.929 . S
H671 C700 0.930 . S
H672 C692 0.931 . S
O673 Co649 2.097 . S
O673 C701 1.214 . S
H674 C702 0.929 . S
H675 C703 0.929 . S
H676 C704 0.930 . S
H677 C705 0.929 . S
H678 C707 0.930 . S
H679 C684 0.930 . S
H680 C688 0.930 . S
O681 Co650 2.037 . S
O681 C701 1.234 . S
C682 O656 1.269 . S
C682 O657 1.257 . S
C683 H658 0.930 . S
C683 C686 1.388 . S
C683 C688 1.418 . S
C684 H679 0.930 . S
C684 C687 1.404 . S
C684 C688 1.353 . S
N685 Co650 2.145 . S
N685 C686 1.397 . S
N685 C687 1.334 . S
C686 H667 0.929 . S
C686 C683 1.388 . S
C686 N685 1.397 . S
C687 H668 0.929 . S
C687 C684 1.404 . S
C687 N685 1.334 . S
C688 H680 0.930 . S
C688 C683 1.418 . S
C688 C684 1.353 . S
C689 H659 0.930 . S
C689 N690 1.330 . S
C689 C691 1.446 . S
N690 Co649 2.151 . S
N690 C689 1.330 . S
N690 C694 1.418 . S
C691 H670 0.929 . S
C691 C689 1.446 . S
C691 C692 1.332 . S
C692 H672 0.931 . S
C692 C691 1.332 . S
C692 C693 1.267 . S
C693 H661 0.929 . S
C693 C692 1.267 . S
C693 C694 1.251 . S
C694 H664 0.929 . S
C694 N690 1.418 . S
C694 C693 1.251 . S
C695 H662 0.930 . S
C695 C697 1.406 . S
C695 C700 1.261 . S
C696 H663 0.930 . S
C696 N698 1.325 . S
C696 C699 1.357 . S
C697 H665 0.928 . S
C697 C695 1.406 . S
C697 N698 1.261 . S
N698 Co649 2.214 . S
N698 C696 1.325 . S
N698 C697 1.261 . S
C699 H669 0.931 . S
C699 C696 1.357 . S
C699 C700 1.312 . S
C700 H671 0.930 . S
C700 C695 1.261 . S
C700 C699 1.312 . S
C701 O673 1.214 . S
C701 O681 1.234 . S
C702 H674 0.929 . S
C702 C705 1.391 . S
C702 C707 1.391 . S
C703 H675 0.929 . S
C703 C704 1.390 . S
C703 N706 1.391 . S
C704 H676 0.930 . S
C704 C703 1.390 . S
C704 C705 1.392 . S
C705 H677 0.929 . S
C705 C702 1.391 . S
C705 C704 1.392 . S
N706 Co650 2.257 . S
N706 C703 1.391 . S
N706 C707 1.388 . S
C707 H678 0.930 . S
C707 C702 1.391 . S
C707 N706 1.388 . S
Co708 O710 2.143 . S
Co708 O716 2.074 . S
Co708 O719 2.093 . S
Co708 O732 2.097 . S
Co708 N749 2.151 . S
Co708 N757 2.214 . S
Co709 O710 2.160 . S
Co709 O715 2.058 . S
Co709 O725 2.057 . S
Co709 O740 2.037 . S
Co709 N744 2.145 . S
Co709 N765 2.257 . S
O710 Co708 2.143 . S
O710 Co709 2.160 . S
C711 O712 1.278 . S
C711 O719 1.224 . S
O712 C711 1.278 . S
C713 O714 1.245 . S
C713 O725 1.232 . S
O714 C713 1.245 . S
O715 Co709 2.058 . S
O715 C741 1.269 . S
O716 Co708 2.074 . S
O716 C741 1.257 . S
H717 C742 0.930 . S
H718 C748 0.930 . S
O719 Co708 2.093 . S
O719 C711 1.224 . S
H720 C752 0.929 . S
H721 C754 0.930 . S
H722 C755 0.930 . S
H723 C753 0.929 . S
H724 C756 0.928 . S
O725 Co709 2.057 . S
O725 C713 1.232 . S
H726 C745 0.929 . S
H727 C746 0.929 . S
H728 C758 0.931 . S
H729 C750 0.929 . S
H730 C759 0.930 . S
H731 C751 0.931 . S
O732 Co708 2.097 . S
O732 C760 1.214 . S
H733 C761 0.929 . S
H734 C762 0.929 . S
H735 C763 0.930 . S
H736 C764 0.929 . S
H737 C766 0.930 . S
H738 C743 0.930 . S
H739 C747 0.930 . S
O740 Co709 2.037 . S
O740 C760 1.234 . S
C741 O715 1.269 . S
C741 O716 1.257 . S
C742 H717 0.930 . S
C742 C745 1.388 . S
C742 C747 1.418 . S
C743 H738 0.930 . S
C743 C746 1.404 . S
C743 C747 1.353 . S
N744 Co709 2.145 . S
N744 C745 1.397 . S
N744 C746 1.334 . S
C745 H726 0.929 . S
C745 C742 1.388 . S
C745 N744 1.397 . S
C746 H727 0.929 . S
C746 C743 1.404 . S
C746 N744 1.334 . S
C747 H739 0.930 . S
C747 C742 1.418 . S
C747 C743 1.353 . S
C748 H718 0.930 . S
C748 N749 1.330 . S
C748 C750 1.446 . S
N749 Co708 2.151 . S
N749 C748 1.330 . S
N749 C753 1.418 . S
C750 H729 0.929 . S
C750 C748 1.446 . S
C750 C751 1.332 . S
C751 H731 0.931 . S
C751 C750 1.332 . S
C751 C752 1.267 . S
C752 H720 0.929 . S
C752 C751 1.267 . S
C752 C753 1.251 . S
C753 H723 0.929 . S
C753 N749 1.418 . S
C753 C752 1.251 . S
C754 H721 0.930 . S
C754 C756 1.406 . S
C754 C759 1.261 . S
C755 H722 0.930 . S
C755 N757 1.325 . S
C755 C758 1.357 . S
C756 H724 0.928 . S
C756 C754 1.406 . S
C756 N757 1.261 . S
N757 Co708 2.214 . S
N757 C755 1.325 . S
N757 C756 1.261 . S
C758 H728 0.931 . S
C758 C755 1.357 . S
C758 C759 1.312 . S
C759 H730 0.930 . S
C759 C754 1.261 . S
C759 C758 1.312 . S
C760 O732 1.214 . S
C760 O740 1.234 . S
C761 H733 0.929 . S
C761 C764 1.391 . S
C761 C766 1.391 . S
C762 H734 0.929 . S
C762 C763 1.390 . S
C762 N765 1.391 . S
C763 H735 0.930 . S
C763 C762 1.390 . S
C763 C764 1.392 . S
C764 H736 0.929 . S
C764 C761 1.391 . S
C764 C763 1.392 . S
N765 Co709 2.257 . S
N765 C762 1.391 . S
N765 C766 1.388 . S
C766 H737 0.930 . S
C766 C761 1.391 . S
C766 N765 1.388 . S
Co767 O769 2.143 . S
Co767 O775 2.074 . S
Co767 O778 2.093 . S
Co767 O791 2.097 . S
Co767 N808 2.151 . S
Co767 N816 2.214 . S
Co768 O769 2.160 . S
Co768 O774 2.058 . S
Co768 O784 2.057 . S
Co768 O799 2.037 . S
Co768 N803 2.145 . S
Co768 N824 2.257 . S
O769 Co767 2.143 . S
O769 Co768 2.160 . S
C770 O771 1.278 . S
C770 O778 1.224 . S
O771 C770 1.278 . S
C772 O773 1.245 . S
C772 O784 1.232 . S
O773 C772 1.245 . S
O774 Co768 2.058 . S
O774 C800 1.269 . S
O775 Co767 2.074 . S
O775 C800 1.257 . S
H776 C801 0.930 . S
H777 C807 0.930 . S
O778 Co767 2.093 . S
O778 C770 1.224 . S
H779 C811 0.929 . S
H780 C813 0.930 . S
H781 C814 0.930 . S
H782 C812 0.929 . S
H783 C815 0.928 . S
O784 Co768 2.057 . S
O784 C772 1.232 . S
H785 C804 0.929 . S
H786 C805 0.929 . S
H787 C817 0.931 . S
H788 C809 0.929 . S
H789 C818 0.930 . S
H790 C810 0.931 . S
O791 Co767 2.097 . S
O791 C819 1.214 . S
H792 C820 0.929 . S
H793 C821 0.929 . S
H794 C822 0.930 . S
H795 C823 0.929 . S
H796 C825 0.930 . S
H797 C802 0.930 . S
H798 C806 0.930 . S
O799 Co768 2.037 . S
O799 C819 1.234 . S
C800 O774 1.269 . S
C800 O775 1.257 . S
C801 H776 0.930 . S
C801 C804 1.388 . S
C801 C806 1.418 . S
C802 H797 0.930 . S
C802 C805 1.404 . S
C802 C806 1.353 . S
N803 Co768 2.145 . S
N803 C804 1.397 . S
N803 C805 1.334 . S
C804 H785 0.929 . S
C804 C801 1.388 . S
C804 N803 1.397 . S
C805 H786 0.929 . S
C805 C802 1.404 . S
C805 N803 1.334 . S
C806 H798 0.930 . S
C806 C801 1.418 . S
C806 C802 1.353 . S
C807 H777 0.930 . S
C807 N808 1.330 . S
C807 C809 1.446 . S
N808 Co767 2.151 . S
N808 C807 1.330 . S
N808 C812 1.418 . S
C809 H788 0.929 . S
C809 C807 1.446 . S
C809 C810 1.332 . S
C810 H790 0.931 . S
C810 C809 1.332 . S
C810 C811 1.267 . S
C811 H779 0.929 . S
C811 C810 1.267 . S
C811 C812 1.251 . S
C812 H782 0.929 . S
C812 N808 1.418 . S
C812 C811 1.251 . S
C813 H780 0.930 . S
C813 C815 1.406 . S
C813 C818 1.261 . S
C814 H781 0.930 . S
C814 N816 1.325 . S
C814 C817 1.357 . S
C815 H783 0.928 . S
C815 C813 1.406 . S
C815 N816 1.261 . S
N816 Co767 2.214 . S
N816 C814 1.325 . S
N816 C815 1.261 . S
C817 H787 0.931 . S
C817 C814 1.357 . S
C817 C818 1.312 . S
C818 H789 0.930 . S
C818 C813 1.261 . S
C818 C817 1.312 . S
C819 O791 1.214 . S
C819 O799 1.234 . S
C820 H792 0.929 . S
C820 C823 1.391 . S
C820 C825 1.391 . S
C821 H793 0.929 . S
C821 C822 1.390 . S
C821 N824 1.391 . S
C822 H794 0.930 . S
C822 C821 1.390 . S
C822 C823 1.392 . S
C823 H795 0.929 . S
C823 C820 1.391 . S
C823 C822 1.392 . S
N824 Co768 2.257 . S
N824 C821 1.391 . S
N824 C825 1.388 . S
C825 H796 0.930 . S
C825 C820 1.391 . S
C825 N824 1.388 . S
Co826 O828 2.143 . S
Co826 O834 2.074 . S
Co826 O837 2.093 . S
Co826 O850 2.097 . S
Co826 N867 2.151 . S
Co826 N875 2.214 . S
Co827 O828 2.160 . S
Co827 O833 2.058 . S
Co827 O843 2.057 . S
Co827 O858 2.037 . S
Co827 N862 2.145 . S
Co827 N883 2.257 . S
O828 Co826 2.143 . S
O828 Co827 2.160 . S
C829 O830 1.278 . S
C829 O837 1.224 . S
O830 C829 1.278 . S
C831 O832 1.245 . S
C831 O843 1.232 . S
O832 C831 1.245 . S
O833 Co827 2.058 . S
O833 C859 1.269 . S
O834 Co826 2.074 . S
O834 C859 1.257 . S
H835 C860 0.930 . S
H836 C866 0.930 . S
O837 Co826 2.093 . S
O837 C829 1.224 . S
H838 C870 0.929 . S
H839 C872 0.930 . S
H840 C873 0.930 . S
H841 C871 0.929 . S
H842 C874 0.928 . S
O843 Co827 2.057 . S
O843 C831 1.232 . S
H844 C863 0.929 . S
H845 C864 0.929 . S
H846 C876 0.931 . S
H847 C868 0.929 . S
H848 C877 0.930 . S
H849 C869 0.931 . S
O850 Co826 2.097 . S
O850 C878 1.214 . S
H851 C879 0.929 . S
H852 C880 0.929 . S
H853 C881 0.930 . S
H854 C882 0.929 . S
H855 C884 0.930 . S
H856 C861 0.930 . S
H857 C865 0.930 . S
O858 Co827 2.037 . S
O858 C878 1.234 . S
C859 O833 1.269 . S
C859 O834 1.257 . S
C860 H835 0.930 . S
C860 C863 1.388 . S
C860 C865 1.418 . S
C861 H856 0.930 . S
C861 C864 1.404 . S
C861 C865 1.353 . S
N862 Co827 2.145 . S
N862 C863 1.397 . S
N862 C864 1.334 . S
C863 H844 0.929 . S
C863 C860 1.388 . S
C863 N862 1.397 . S
C864 H845 0.929 . S
C864 C861 1.404 . S
C864 N862 1.334 . S
C865 H857 0.930 . S
C865 C860 1.418 . S
C865 C861 1.353 . S
C866 H836 0.930 . S
C866 N867 1.330 . S
C866 C868 1.446 . S
N867 Co826 2.151 . S
N867 C866 1.330 . S
N867 C871 1.418 . S
C868 H847 0.929 . S
C868 C866 1.446 . S
C868 C869 1.332 . S
C869 H849 0.931 . S
C869 C868 1.332 . S
C869 C870 1.267 . S
C870 H838 0.929 . S
C870 C869 1.267 . S
C870 C871 1.251 . S
C871 H841 0.929 . S
C871 N867 1.418 . S
C871 C870 1.251 . S
C872 H839 0.930 . S
C872 C874 1.406 . S
C872 C877 1.261 . S
C873 H840 0.930 . S
C873 N875 1.325 . S
C873 C876 1.357 . S
C874 H842 0.928 . S
C874 C872 1.406 . S
C874 N875 1.261 . S
N875 Co826 2.214 . S
N875 C873 1.325 . S
N875 C874 1.261 . S
C876 H846 0.931 . S
C876 C873 1.357 . S
C876 C877 1.312 . S
C877 H848 0.930 . S
C877 C872 1.261 . S
C877 C876 1.312 . S
C878 O850 1.214 . S
C878 O858 1.234 . S
C879 H851 0.929 . S
C879 C882 1.391 . S
C879 C884 1.391 . S
C880 H852 0.929 . S
C880 C881 1.390 . S
C880 N883 1.391 . S
C881 H853 0.930 . S
C881 C880 1.390 . S
C881 C882 1.392 . S
C882 H854 0.929 . S
C882 C879 1.391 . S
C882 C881 1.392 . S
N883 Co827 2.257 . S
N883 C880 1.391 . S
N883 C884 1.388 . S
C884 H855 0.930 . S
C884 C879 1.391 . S
C884 N883 1.388 . S
Co885 O887 2.143 . S
Co885 O893 2.074 . S
Co885 O896 2.093 . S
Co885 O909 2.097 . S
Co885 N926 2.151 . S
Co885 N934 2.214 . S
Co886 O887 2.160 . S
Co886 O892 2.058 . S
Co886 O902 2.057 . S
Co886 O917 2.037 . S
Co886 N921 2.145 . S
Co886 N942 2.257 . S
O887 Co885 2.143 . S
O887 Co886 2.160 . S
C888 O889 1.278 . S
C888 O896 1.224 . S
O889 C888 1.278 . S
C890 O891 1.245 . S
C890 O902 1.232 . S
O891 C890 1.245 . S
O892 Co886 2.058 . S
O892 C918 1.269 . S
O893 Co885 2.074 . S
O893 C918 1.257 . S
H894 C919 0.930 . S
H895 C925 0.930 . S
O896 Co885 2.093 . S
O896 C888 1.224 . S
H897 C929 0.929 . S
H898 C931 0.930 . S
H899 C932 0.930 . S
H900 C930 0.929 . S
H901 C933 0.928 . S
O902 Co886 2.057 . S
O902 C890 1.232 . S
H903 C922 0.929 . S
H904 C923 0.929 . S
H905 C935 0.931 . S
H906 C927 0.929 . S
H907 C936 0.930 . S
H908 C928 0.931 . S
O909 Co885 2.097 . S
O909 C937 1.214 . S
H910 C938 0.929 . S
H911 C939 0.929 . S
H912 C940 0.930 . S
H913 C941 0.929 . S
H914 C943 0.930 . S
H915 C920 0.930 . S
H916 C924 0.930 . S
O917 Co886 2.037 . S
O917 C937 1.234 . S
C918 O892 1.269 . S
C918 O893 1.257 . S
C919 H894 0.930 . S
C919 C922 1.388 . S
C919 C924 1.418 . S
C920 H915 0.930 . S
C920 C923 1.404 . S
C920 C924 1.353 . S
N921 Co886 2.145 . S
N921 C922 1.397 . S
N921 C923 1.334 . S
C922 H903 0.929 . S
C922 C919 1.388 . S
C922 N921 1.397 . S
C923 H904 0.929 . S
C923 C920 1.404 . S
C923 N921 1.334 . S
C924 H916 0.930 . S
C924 C919 1.418 . S
C924 C920 1.353 . S
C925 H895 0.930 . S
C925 N926 1.330 . S
C925 C927 1.446 . S
N926 Co885 2.151 . S
N926 C925 1.330 . S
N926 C930 1.418 . S
C927 H906 0.929 . S
C927 C925 1.446 . S
C927 C928 1.332 . S
C928 H908 0.931 . S
C928 C927 1.332 . S
C928 C929 1.267 . S
C929 H897 0.929 . S
C929 C928 1.267 . S
C929 C930 1.251 . S
C930 H900 0.929 . S
C930 N926 1.418 . S
C930 C929 1.251 . S
C931 H898 0.930 . S
C931 C933 1.406 . S
C931 C936 1.261 . S
C932 H899 0.930 . S
C932 N934 1.325 . S
C932 C935 1.357 . S
C933 H901 0.928 . S
C933 C931 1.406 . S
C933 N934 1.261 . S
N934 Co885 2.214 . S
N934 C932 1.325 . S
N934 C933 1.261 . S
C935 H905 0.931 . S
C935 C932 1.357 . S
C935 C936 1.312 . S
C936 H907 0.930 . S
C936 C931 1.261 . S
C936 C935 1.312 . S
C937 O909 1.214 . S
C937 O917 1.234 . S
C938 H910 0.929 . S
C938 C941 1.391 . S
C938 C943 1.391 . S
C939 H911 0.929 . S
C939 C940 1.390 . S
C939 N942 1.391 . S
C940 H912 0.930 . S
C940 C939 1.390 . S
C940 C941 1.392 . S
C941 H913 0.929 . S
C941 C938 1.391 . S
C941 C940 1.392 . S
N942 Co886 2.257 . S
N942 C939 1.391 . S
N942 C943 1.388 . S
C943 H914 0.930 . S
C943 C938 1.391 . S
C943 N942 1.388 . S
C944 C945 1.391 . S
C944 C946 1.394 . S
C944 H960 0.931 . S
C945 C944 1.391 . S
C945 C949 1.376 . S
C946 C944 1.394 . S
C946 C947 1.369 . S
C946 C950 1.531 . S
C947 C946 1.369 . S
C947 C948 1.410 . S
C947 C955 1.503 . S
C948 C947 1.410 . S
C948 C949 1.392 . S
C948 C951 1.511 . S
C949 C945 1.376 . S
C949 C948 1.392 . S
C949 H961 0.929 . S
C950 C946 1.531 . S
C950 H962 0.960 . S
C950 H963 0.962 . S
C950 H964 0.960 . S
C951 C948 1.511 . S
C951 H965 0.961 . S
C951 H966 0.961 . S
C951 H967 0.961 . S
C952 C953 1.370 . S
C952 C954 1.363 . S
C952 H968 0.931 . S
C953 C952 1.370 . S
C953 C957 1.408 . S
C954 C952 1.363 . S
C954 C955 1.370 . S
C954 C958 1.524 . S
C955 C947 1.503 . S
C955 C954 1.370 . S
C955 C956 1.403 . S
C956 C955 1.403 . S
C956 C957 1.404 . S
C956 C959 1.539 . S
C957 C953 1.408 . S
C957 C956 1.404 . S
C957 H969 0.930 . S
C958 C954 1.524 . S
C958 H970 0.956 . S
C958 H971 0.961 . S
C958 H972 0.961 . S
C959 C956 1.539 . S
C959 H973 0.958 . S
C959 H974 0.961 . S
C959 H975 0.960 . S
H960 C944 0.931 . S
H961 C949 0.929 . S
H962 C950 0.960 . S
H963 C950 0.962 . S
H964 C950 0.960 . S
H965 C951 0.961 . S
H966 C951 0.961 . S
H967 C951 0.961 . S
H968 C952 0.931 . S
H969 C957 0.930 . S
H970 C958 0.956 . S
H971 C958 0.961 . S
H972 C958 0.961 . S
H973 C959 0.958 . S
H974 C959 0.961 . S
H975 C959 0.960 . S
C976 C977 1.391 . S
C976 C978 1.394 . S
C976 H992 0.931 . S
C977 C976 1.391 . S
C977 C981 1.376 . S
C978 C976 1.394 . S
C978 C979 1.369 . S
C978 C982 1.531 . S
C979 C978 1.369 . S
C979 C980 1.410 . S
C979 C987 1.503 . S
C980 C979 1.410 . S
C980 C981 1.392 . S
C980 C983 1.511 . S
C981 C977 1.376 . S
C981 C980 1.392 . S
C981 H993 0.929 . S
C982 C978 1.531 . S
C982 H994 0.960 . S
C982 H995 0.962 . S
C982 H996 0.960 . S
C983 C980 1.511 . S
C983 H997 0.961 . S
C983 H998 0.961 . S
C983 H999 0.961 . S
C984 C985 1.370 . S
C984 C986 1.363 . S
C984 H1000 0.931 . S
C985 C984 1.370 . S
C985 C989 1.408 . S
C986 C984 1.363 . S
C986 C987 1.370 . S
C986 C990 1.524 . S
C987 C979 1.503 . S
C987 C986 1.370 . S
C987 C988 1.403 . S
C988 C987 1.403 . S
C988 C989 1.404 . S
C988 C991 1.539 . S
C989 C985 1.408 . S
C989 C988 1.404 . S
C989 H1001 0.930 . S
C990 C986 1.524 . S
C990 H1002 0.956 . S
C990 H1003 0.961 . S
C990 H1004 0.961 . S
C991 C988 1.539 . S
C991 H1005 0.958 . S
C991 H1006 0.961 . S
C991 H1007 0.960 . S
H992 C976 0.931 . S
H993 C981 0.929 . S
H994 C982 0.960 . S
H995 C982 0.962 . S
H996 C982 0.960 . S
H997 C983 0.961 . S
H998 C983 0.961 . S
H999 C983 0.961 . S
H1000 C984 0.931 . S
H1001 C989 0.930 . S
H1002 C990 0.956 . S
H1003 C990 0.961 . S
H1004 C990 0.961 . S
H1005 C991 0.958 . S
H1006 C991 0.961 . S
H1007 C991 0.960 . S
C1008 C1009 1.391 . S
C1008 C1010 1.394 . S
C1008 H1024 0.931 . S
C1009 C1008 1.391 . S
C1009 C1013 1.376 . S
C1010 C1008 1.394 . S
C1010 C1011 1.369 . S
C1010 C1014 1.531 . S
C1011 C1010 1.369 . S
C1011 C1012 1.410 . S
C1011 C1019 1.503 . S
C1012 C1011 1.410 . S
C1012 C1013 1.392 . S
C1012 C1015 1.511 . S
C1013 C1009 1.376 . S
C1013 C1012 1.392 . S
C1013 H1025 0.929 . S
C1014 C1010 1.531 . S
C1014 H1026 0.960 . S
C1014 H1027 0.962 . S
C1014 H1028 0.960 . S
C1015 C1012 1.511 . S
C1015 H1029 0.961 . S
C1015 H1030 0.961 . S
C1015 H1031 0.961 . S
C1016 C1017 1.370 . S
C1016 C1018 1.363 . S
C1016 H1032 0.931 . S
C1017 C1016 1.370 . S
C1017 C1021 1.408 . S
C1018 C1016 1.363 . S
C1018 C1019 1.370 . S
C1018 C1022 1.524 . S
C1019 C1011 1.503 . S
C1019 C1018 1.370 . S
C1019 C1020 1.403 . S
C1020 C1019 1.403 . S
C1020 C1021 1.404 . S
C1020 C1023 1.539 . S
C1021 C1017 1.408 . S
C1021 C1020 1.404 . S
C1021 H1033 0.930 . S
C1022 C1018 1.524 . S
C1022 H1034 0.956 . S
C1022 H1035 0.961 . S
C1022 H1036 0.961 . S
C1023 C1020 1.539 . S
C1023 H1037 0.958 . S
C1023 H1038 0.961 . S
C1023 H1039 0.960 . S
H1024 C1008 0.931 . S
H1025 C1013 0.929 . S
H1026 C1014 0.960 . S
H1027 C1014 0.962 . S
H1028 C1014 0.960 . S
H1029 C1015 0.961 . S
H1030 C1015 0.961 . S
H1031 C1015 0.961 . S
H1032 C1016 0.931 . S
H1033 C1021 0.930 . S
H1034 C1022 0.956 . S
H1035 C1022 0.961 . S
H1036 C1022 0.961 . S
H1037 C1023 0.958 . S
H1038 C1023 0.961 . S
H1039 C1023 0.960 . S
C1040 C1041 1.391 . S
C1040 C1042 1.394 . S
C1040 H1056 0.931 . S
C1041 C1040 1.391 . S
C1041 C1045 1.376 . S
C1042 C1040 1.394 . S
C1042 C1043 1.369 . S
C1042 C1046 1.531 . S
C1043 C1042 1.369 . S
C1043 C1044 1.410 . S
C1043 C1051 1.503 . S
C1044 C1043 1.410 . S
C1044 C1045 1.392 . S
C1044 C1047 1.511 . S
C1045 C1041 1.376 . S
C1045 C1044 1.392 . S
C1045 H1057 0.929 . S
C1046 C1042 1.531 . S
C1046 H1058 0.960 . S
C1046 H1059 0.962 . S
C1046 H1060 0.960 . S
C1047 C1044 1.511 . S
C1047 H1061 0.961 . S
C1047 H1062 0.961 . S
C1047 H1063 0.961 . S
C1048 C1049 1.370 . S
C1048 C1050 1.363 . S
C1048 H1064 0.931 . S
C1049 C1048 1.370 . S
C1049 C1053 1.408 . S
C1050 C1048 1.363 . S
C1050 C1051 1.370 . S
C1050 C1054 1.524 . S
C1051 C1043 1.503 . S
C1051 C1050 1.370 . S
C1051 C1052 1.403 . S
C1052 C1051 1.403 . S
C1052 C1053 1.404 . S
C1052 C1055 1.539 . S
C1053 C1049 1.408 . S
C1053 C1052 1.404 . S
C1053 H1065 0.930 . S
C1054 C1050 1.524 . S
C1054 H1066 0.956 . S
C1054 H1067 0.961 . S
C1054 H1068 0.961 . S
C1055 C1052 1.539 . S
C1055 H1069 0.958 . S
C1055 H1070 0.961 . S
C1055 H1071 0.960 . S
H1056 C1040 0.931 . S
H1057 C1045 0.929 . S
H1058 C1046 0.960 . S
H1059 C1046 0.962 . S
H1060 C1046 0.960 . S
H1061 C1047 0.961 . S
H1062 C1047 0.961 . S
H1063 C1047 0.961 . S
H1064 C1048 0.931 . S
H1065 C1053 0.930 . S
H1066 C1054 0.956 . S
H1067 C1054 0.961 . S
H1068 C1054 0.961 . S
H1069 C1055 0.958 . S
H1070 C1055 0.961 . S
H1071 C1055 0.960 . S
C1072 C1073 1.391 . S
C1072 C1074 1.394 . S
C1072 H1088 0.931 . S
C1073 C1072 1.391 . S
C1073 C1077 1.376 . S
C1074 C1072 1.394 . S
C1074 C1075 1.369 . S
C1074 C1078 1.531 . S
C1075 C1074 1.369 . S
C1075 C1076 1.410 . S
C1075 C1083 1.503 . S
C1076 C1075 1.410 . S
C1076 C1077 1.392 . S
C1076 C1079 1.511 . S
C1077 C1073 1.376 . S
C1077 C1076 1.392 . S
C1077 H1089 0.929 . S
C1078 C1074 1.531 . S
C1078 H1090 0.960 . S
C1078 H1091 0.962 . S
C1078 H1092 0.960 . S
C1079 C1076 1.511 . S
C1079 H1093 0.961 . S
C1079 H1094 0.961 . S
C1079 H1095 0.961 . S
C1080 C1081 1.370 . S
C1080 C1082 1.363 . S
C1080 H1096 0.931 . S
C1081 C1080 1.370 . S
C1081 C1085 1.408 . S
C1082 C1080 1.363 . S
C1082 C1083 1.370 . S
C1082 C1086 1.524 . S
C1083 C1075 1.503 . S
C1083 C1082 1.370 . S
C1083 C1084 1.403 . S
C1084 C1083 1.403 . S
C1084 C1085 1.404 . S
C1084 C1087 1.539 . S
C1085 C1081 1.408 . S
C1085 C1084 1.404 . S
C1085 H1097 0.930 . S
C1086 C1082 1.524 . S
C1086 H1098 0.956 . S
C1086 H1099 0.961 . S
C1086 H1100 0.961 . S
C1087 C1084 1.539 . S
C1087 H1101 0.958 . S
C1087 H1102 0.961 . S
C1087 H1103 0.960 . S
H1088 C1072 0.931 . S
H1089 C1077 0.929 . S
H1090 C1078 0.960 . S
H1091 C1078 0.962 . S
H1092 C1078 0.960 . S
H1093 C1079 0.961 . S
H1094 C1079 0.961 . S
H1095 C1079 0.961 . S
H1096 C1080 0.931 . S
H1097 C1085 0.930 . S
H1098 C1086 0.956 . S
H1099 C1086 0.961 . S
H1100 C1086 0.961 . S
H1101 C1087 0.958 . S
H1102 C1087 0.961 . S
H1103 C1087 0.960 . S
C1104 C1105 1.391 . S
C1104 C1106 1.394 . S
C1104 H1120 0.931 . S
C1105 C1104 1.391 . S
C1105 C1109 1.376 . S
C1106 C1104 1.394 . S
C1106 C1107 1.369 . S
C1106 C1110 1.531 . S
C1107 C1106 1.369 . S
C1107 C1108 1.410 . S
C1107 C1115 1.503 . S
C1108 C1107 1.410 . S
C1108 C1109 1.392 . S
C1108 C1111 1.511 . S
C1109 C1105 1.376 . S
C1109 C1108 1.392 . S
C1109 H1121 0.929 . S
C1110 C1106 1.531 . S
C1110 H1122 0.960 . S
C1110 H1123 0.962 . S
C1110 H1124 0.960 . S
C1111 C1108 1.511 . S
C1111 H1125 0.961 . S
C1111 H1126 0.961 . S
C1111 H1127 0.961 . S
C1112 C1113 1.370 . S
C1112 C1114 1.363 . S
C1112 H1128 0.931 . S
C1113 C1112 1.370 . S
C1113 C1117 1.408 . S
C1114 C1112 1.363 . S
C1114 C1115 1.370 . S
C1114 C1118 1.524 . S
C1115 C1107 1.503 . S
C1115 C1114 1.370 . S
C1115 C1116 1.403 . S
C1116 C1115 1.403 . S
C1116 C1117 1.404 . S
C1116 C1119 1.539 . S
C1117 C1113 1.408 . S
C1117 C1116 1.404 . S
C1117 H1129 0.930 . S
C1118 C1114 1.524 . S
C1118 H1130 0.956 . S
C1118 H1131 0.961 . S
C1118 H1132 0.961 . S
C1119 C1116 1.539 . S
C1119 H1133 0.958 . S
C1119 H1134 0.961 . S
C1119 H1135 0.960 . S
H1120 C1104 0.931 . S
H1121 C1109 0.929 . S
H1122 C1110 0.960 . S
H1123 C1110 0.962 . S
H1124 C1110 0.960 . S
H1125 C1111 0.961 . S
H1126 C1111 0.961 . S
H1127 C1111 0.961 . S
H1128 C1112 0.931 . S
H1129 C1117 0.930 . S
H1130 C1118 0.956 . S
H1131 C1118 0.961 . S
H1132 C1118 0.961 . S
H1133 C1119 0.958 . S
H1134 C1119 0.961 . S
H1135 C1119 0.960 . S
C1136 C1137 1.391 . S
C1136 C1138 1.394 . S
C1136 H1152 0.931 . S
C1137 C1136 1.391 . S
C1137 C1141 1.376 . S
C1138 C1136 1.394 . S
C1138 C1139 1.369 . S
C1138 C1142 1.531 . S
C1139 C1138 1.369 . S
C1139 C1140 1.410 . S
C1139 C1147 1.503 . S
C1140 C1139 1.410 . S
C1140 C1141 1.392 . S
C1140 C1143 1.511 . S
C1141 C1137 1.376 . S
C1141 C1140 1.392 . S
C1141 H1153 0.929 . S
C1142 C1138 1.531 . S
C1142 H1154 0.960 . S
C1142 H1155 0.962 . S
C1142 H1156 0.960 . S
C1143 C1140 1.511 . S
C1143 H1157 0.961 . S
C1143 H1158 0.961 . S
C1143 H1159 0.961 . S
C1144 C1145 1.370 . S
C1144 C1146 1.363 . S
C1144 H1160 0.931 . S
C1145 C1144 1.370 . S
C1145 C1149 1.408 . S
C1146 C1144 1.363 . S
C1146 C1147 1.370 . S
C1146 C1150 1.524 . S
C1147 C1139 1.503 . S
C1147 C1146 1.370 . S
C1147 C1148 1.403 . S
C1148 C1147 1.403 . S
C1148 C1149 1.404 . S
C1148 C1151 1.539 . S
C1149 C1145 1.408 . S
C1149 C1148 1.404 . S
C1149 H1161 0.930 . S
C1150 C1146 1.524 . S
C1150 H1162 0.956 . S
C1150 H1163 0.961 . S
C1150 H1164 0.961 . S
C1151 C1148 1.539 . S
C1151 H1165 0.958 . S
C1151 H1166 0.961 . S
C1151 H1167 0.960 . S
H1152 C1136 0.931 . S
H1153 C1141 0.929 . S
H1154 C1142 0.960 . S
H1155 C1142 0.962 . S
H1156 C1142 0.960 . S
H1157 C1143 0.961 . S
H1158 C1143 0.961 . S
H1159 C1143 0.961 . S
H1160 C1144 0.931 . S
H1161 C1149 0.930 . S
H1162 C1150 0.956 . S
H1163 C1150 0.961 . S
H1164 C1150 0.961 . S
H1165 C1151 0.958 . S
H1166 C1151 0.961 . S
H1167 C1151 0.960 . S
C1168 C1169 1.391 . S
C1168 C1170 1.394 . S
C1168 H1184 0.931 . S
C1169 C1168 1.391 . S
C1169 C1173 1.376 . S
C1170 C1168 1.394 . S
C1170 C1171 1.369 . S
C1170 C1174 1.531 . S
C1171 C1170 1.369 . S
C1171 C1172 1.410 . S
C1171 C1179 1.503 . S
C1172 C1171 1.410 . S
C1172 C1173 1.392 . S
C1172 C1175 1.511 . S
C1173 C1169 1.376 . S
C1173 C1172 1.392 . S
C1173 H1185 0.929 . S
C1174 C1170 1.531 . S
C1174 H1186 0.960 . S
C1174 H1187 0.962 . S
C1174 H1188 0.960 . S
C1175 C1172 1.511 . S
C1175 H1189 0.961 . S
C1175 H1190 0.961 . S
C1175 H1191 0.961 . S
C1176 C1177 1.370 . S
C1176 C1178 1.363 . S
C1176 H1192 0.931 . S
C1177 C1176 1.370 . S
C1177 C1181 1.408 . S
C1178 C1176 1.363 . S
C1178 C1179 1.370 . S
C1178 C1182 1.524 . S
C1179 C1171 1.503 . S
C1179 C1178 1.370 . S
C1179 C1180 1.403 . S
C1180 C1179 1.403 . S
C1180 C1181 1.404 . S
C1180 C1183 1.539 . S
C1181 C1177 1.408 . S
C1181 C1180 1.404 . S
C1181 H1193 0.930 . S
C1182 C1178 1.524 . S
C1182 H1194 0.956 . S
C1182 H1195 0.961 . S
C1182 H1196 0.961 . S
C1183 C1180 1.539 . S
C1183 H1197 0.958 . S
C1183 H1198 0.961 . S
C1183 H1199 0.960 . S
H1184 C1168 0.931 . S
H1185 C1173 0.929 . S
H1186 C1174 0.960 . S
H1187 C1174 0.962 . S
H1188 C1174 0.960 . S
H1189 C1175 0.961 . S
H1190 C1175 0.961 . S
H1191 C1175 0.961 . S
H1192 C1176 0.931 . S
H1193 C1181 0.930 . S
H1194 C1182 0.956 . S
H1195 C1182 0.961 . S
H1196 C1182 0.961 . S
H1197 C1183 0.958 . S
H1198 C1183 0.961 . S
H1199 C1183 0.960 . S
C1200 C1201 1.391 . S
C1200 C1202 1.394 . S
C1200 H1216 0.931 . S
C1201 C1200 1.391 . S
C1201 C1205 1.376 . S
C1202 C1200 1.394 . S
C1202 C1203 1.369 . S
C1202 C1206 1.531 . S
C1203 C1202 1.369 . S
C1203 C1204 1.410 . S
C1203 C1211 1.503 . S
C1204 C1203 1.410 . S
C1204 C1205 1.392 . S
C1204 C1207 1.511 . S
C1205 C1201 1.376 . S
C1205 C1204 1.392 . S
C1205 H1217 0.929 . S
C1206 C1202 1.531 . S
C1206 H1218 0.960 . S
C1206 H1219 0.962 . S
C1206 H1220 0.960 . S
C1207 C1204 1.511 . S
C1207 H1221 0.961 . S
C1207 H1222 0.961 . S
C1207 H1223 0.961 . S
C1208 C1209 1.370 . S
C1208 C1210 1.363 . S
C1208 H1224 0.931 . S
C1209 C1208 1.370 . S
C1209 C1213 1.408 . S
C1210 C1208 1.363 . S
C1210 C1211 1.370 1_554 S
C1210 C1214 1.524 1_554 S
C1211 C1203 1.503 . S
C1211 C1210 1.370 1_556 S
C1211 C1212 1.403 1_556 S
C1212 C1211 1.403 1_554 S
C1212 C1213 1.404 . S
C1212 C1215 1.539 1_554 S
C1213 C1209 1.408 . S
C1213 C1212 1.404 . S
C1213 H1225 0.930 . S
C1214 C1210 1.524 1_556 S
C1214 H1226 0.956 . S
C1214 H1227 0.961 . S
C1214 H1228 0.961 . S
C1215 C1212 1.539 1_556 S
C1215 H1229 0.958 . S
C1215 H1230 0.961 1_556 S
C1215 H1231 0.960 . S
H1216 C1200 0.931 . S
H1217 C1205 0.929 . S
H1218 C1206 0.960 . S
H1219 C1206 0.962 . S
H1220 C1206 0.960 . S
H1221 C1207 0.961 . S
H1222 C1207 0.961 . S
H1223 C1207 0.961 . S
H1224 C1208 0.931 . S
H1225 C1213 0.930 . S
H1226 C1214 0.956 . S
H1227 C1214 0.961 . S
H1228 C1214 0.961 . S
H1229 C1215 0.958 . S
H1230 C1215 0.961 1_554 S
H1231 C1215 0.960 . S
C1232 C1233 1.391 . S
C1232 C1234 1.394 . S
C1232 H1248 0.931 . S
C1233 C1232 1.391 . S
C1233 C1237 1.376 . S
C1234 C1232 1.394 . S
C1234 C1235 1.369 1_556 S
C1234 C1238 1.531 1_556 S
C1235 C1234 1.369 1_554 S
C1235 C1236 1.410 1_554 S
C1235 C1243 1.503 . S
C1236 C1235 1.410 1_556 S
C1236 C1237 1.392 . S
C1236 C1239 1.511 1_556 S
C1237 C1233 1.376 . S
C1237 C1236 1.392 . S
C1237 H1249 0.929 . S
C1238 C1234 1.531 1_554 S
C1238 H1250 0.960 . S
C1238 H1251 0.962 . S
C1238 H1252 0.960 1_554 S
C1239 C1236 1.511 1_554 S
C1239 H1253 0.961 . S
C1239 H1254 0.961 . S
C1239 H1255 0.961 . S
C1240 C1241 1.370 . S
C1240 C1242 1.363 . S
C1240 H1256 0.931 . S
C1241 C1240 1.370 . S
C1241 C1245 1.408 . S
C1242 C1240 1.363 . S
C1242 C1243 1.370 . S
C1242 C1246 1.524 . S
C1243 C1235 1.503 . S
C1243 C1242 1.370 . S
C1243 C1244 1.403 . S
C1244 C1243 1.403 . S
C1244 C1245 1.404 . S
C1244 C1247 1.539 . S
C1245 C1241 1.408 . S
C1245 C1244 1.404 . S
C1245 H1257 0.930 . S
C1246 C1242 1.524 . S
C1246 H1258 0.956 . S
C1246 H1259 0.961 . S
C1246 H1260 0.961 . S
C1247 C1244 1.539 . S
C1247 H1261 0.958 . S
C1247 H1262 0.961 . S
C1247 H1263 0.960 . S
H1248 C1232 0.931 . S
H1249 C1237 0.929 . S
H1250 C1238 0.960 . S
H1251 C1238 0.962 . S
H1252 C1238 0.960 1_556 S
H1253 C1239 0.961 . S
H1254 C1239 0.961 . S
H1255 C1239 0.961 . S
H1256 C1240 0.931 . S
H1257 C1245 0.930 . S
H1258 C1246 0.956 . S
H1259 C1246 0.961 . S
H1260 C1246 0.961 . S
H1261 C1247 0.958 . S
H1262 C1247 0.961 . S
H1263 C1247 0.960 . S
C1264 C1265 1.391 . S
C1264 C1266 1.394 . S
C1264 H1280 0.931 . S
C1265 C1264 1.391 . S
C1265 C1269 1.376 . S
C1266 C1264 1.394 . S
C1266 C1267 1.369 1_556 S
C1266 C1270 1.531 . S
C1267 C1266 1.369 1_554 S
C1267 C1268 1.410 1_554 S
C1267 C1275 1.503 . S
C1268 C1267 1.410 1_556 S
C1268 C1269 1.392 . S
C1268 C1271 1.511 1_556 S
C1269 C1265 1.376 . S
C1269 C1268 1.392 . S
C1269 H1281 0.929 . S
C1270 C1266 1.531 . S
C1270 H1282 0.960 1_556 S
C1270 H1283 0.962 . S
C1270 H1284 0.960 . S
C1271 C1268 1.511 1_554 S
C1271 H1285 0.961 . S
C1271 H1286 0.961 . S
C1271 H1287 0.961 . S
C1272 C1273 1.370 . S
C1272 C1274 1.363 . S
C1272 H1288 0.931 . S
C1273 C1272 1.370 . S
C1273 C1277 1.408 . S
C1274 C1272 1.363 . S
C1274 C1275 1.370 . S
C1274 C1278 1.524 . S
C1275 C1267 1.503 . S
C1275 C1274 1.370 . S
C1275 C1276 1.403 . S
C1276 C1275 1.403 . S
C1276 C1277 1.404 . S
C1276 C1279 1.539 . S
C1277 C1273 1.408 . S
C1277 C1276 1.404 . S
C1277 H1289 0.930 . S
C1278 C1274 1.524 . S
C1278 H1290 0.956 . S
C1278 H1291 0.961 . S
C1278 H1292 0.961 . S
C1279 C1276 1.539 . S
C1279 H1293 0.958 . S
C1279 H1294 0.961 . S
C1279 H1295 0.960 . S
H1280 C1264 0.931 . S
H1281 C1269 0.929 . S
H1282 C1270 0.960 1_554 S
H1283 C1270 0.962 . S
H1284 C1270 0.960 . S
H1285 C1271 0.961 . S
H1286 C1271 0.961 . S
H1287 C1271 0.961 . S
H1288 C1272 0.931 . S
H1289 C1277 0.930 . S
H1290 C1278 0.956 . S
H1291 C1278 0.961 . S
H1292 C1278 0.961 . S
H1293 C1279 0.958 . S
H1294 C1279 0.961 . S
H1295 C1279 0.960 . S
C1296 C1297 1.391 . S
C1296 C1298 1.394 . S
C1296 H1312 0.931 . S
C1297 C1296 1.391 . S
C1297 C1301 1.376 . S
C1298 C1296 1.394 . S
C1298 C1299 1.369 . S
C1298 C1302 1.531 . S
C1299 C1298 1.369 . S
C1299 C1300 1.410 . S
C1299 C1307 1.503 1_554 S
C1300 C1299 1.410 . S
C1300 C1301 1.392 . S
C1300 C1303 1.511 1_554 S
C1301 C1297 1.376 . S
C1301 C1300 1.392 . S
C1301 H1313 0.929 . S
C1302 C1298 1.531 . S
C1302 H1314 0.960 1_554 S
C1302 H1315 0.962 1_554 S
C1302 H1316 0.960 . S
C1303 C1300 1.511 1_556 S
C1303 H1317 0.961 1_556 S
C1303 H1318 0.961 . S
C1303 H1319 0.961 . S
C1304 C1305 1.370 . S
C1304 C1306 1.363 . S
C1304 H1320 0.931 . S
C1305 C1304 1.370 . S
C1305 C1309 1.408 . S
C1306 C1304 1.363 . S
C1306 C1307 1.370 . S
C1306 C1310 1.524 . S
C1307 C1299 1.503 1_556 S
C1307 C1306 1.370 . S
C1307 C1308 1.403 . S
C1308 C1307 1.403 . S
C1308 C1309 1.404 . S
C1308 C1311 1.539 . S
C1309 C1305 1.408 . S
C1309 C1308 1.404 . S
C1309 H1321 0.930 . S
C1310 C1306 1.524 . S
C1310 H1322 0.956 . S
C1310 H1323 0.961 . S
C1310 H1324 0.961 . S
C1311 C1308 1.539 . S
C1311 H1325 0.958 . S
C1311 H1326 0.961 . S
C1311 H1327 0.960 . S
H1312 C1296 0.931 . S
H1313 C1301 0.929 . S
H1314 C1302 0.960 1_556 S
H1315 C1302 0.962 1_556 S
H1316 C1302 0.960 . S
H1317 C1303 0.961 1_554 S
H1318 C1303 0.961 . S
H1319 C1303 0.961 . S
H1320 C1304 0.931 . S
H1321 C1309 0.930 . S
H1322 C1310 0.956 . S
H1323 C1310 0.961 . S
H1324 C1310 0.961 . S
H1325 C1311 0.958 . S
H1326 C1311 0.961 . S
H1327 C1311 0.960 . S
C1328 C1329 1.391 . S
C1328 C1330 1.394 . S
C1328 H1344 0.931 . S
C1329 C1328 1.391 . S
C1329 C1333 1.376 . S
C1330 C1328 1.394 . S
C1330 C1331 1.369 . S
C1330 C1334 1.531 1_455 S
C1331 C1330 1.369 . S
C1331 C1332 1.410 . S
C1331 C1339 1.503 1_455 S
C1332 C1331 1.410 . S
C1332 C1333 1.392 . S
C1332 C1335 1.511 . S
C1333 C1329 1.376 . S
C1333 C1332 1.392 . S
C1333 H1345 0.929 . S
C1334 C1330 1.531 1_655 S
C1334 H1346 0.960 . S
C1334 H1347 0.962 . S
C1334 H1348 0.960 1_655 S
C1335 C1332 1.511 . S
C1335 H1349 0.961 . S
C1335 H1350 0.961 . S
C1335 H1351 0.961 . S
C1336 C1337 1.370 . S
C1336 C1338 1.363 . S
C1336 H1352 0.931 . S
C1337 C1336 1.370 . S
C1337 C1341 1.408 . S
C1338 C1336 1.363 . S
C1338 C1339 1.370 . S
C1338 C1342 1.524 . S
C1339 C1331 1.503 1_655 S
C1339 C1338 1.370 . S
C1339 C1340 1.403 . S
C1340 C1339 1.403 . S
C1340 C1341 1.404 . S
C1340 C1343 1.539 1_655 S
C1341 C1337 1.408 . S
C1341 C1340 1.404 . S
C1341 H1353 0.930 . S
C1342 C1338 1.524 . S
C1342 H1354 0.956 . S
C1342 H1355 0.961 . S
C1342 H1356 0.961 . S
C1343 C1340 1.539 1_455 S
C1343 H1357 0.958 1_455 S
C1343 H1358 0.959 1_455 S
C1343 H1359 0.960 . S
H1344 C1328 0.931 . S
H1345 C1333 0.929 . S
H1346 C1334 0.960 . S
H1347 C1334 0.962 . S
H1348 C1334 0.960 1_455 S
H1349 C1335 0.961 . S
H1350 C1335 0.961 . S
H1351 C1335 0.961 . S
H1352 C1336 0.931 . S
H1353 C1341 0.930 . S
H1354 C1342 0.956 . S
H1355 C1342 0.961 . S
H1356 C1342 0.961 . S
H1357 C1343 0.958 1_655 S
H1358 C1343 0.959 1_655 S
H1359 C1343 0.960 . S
C1360 C1361 1.391 . S
C1360 C1362 1.394 . S
C1360 H1376 0.931 . S
C1361 C1360 1.391 . S
C1361 C1365 1.376 . S
C1362 C1360 1.394 . S
C1362 C1363 1.369 1_565 S
C1362 C1366 1.531 1_565 S
C1363 C1362 1.369 1_545 S
C1363 C1364 1.410 . S
C1363 C1371 1.503 . S
C1364 C1363 1.410 . S
C1364 C1365 1.392 1_545 S
C1364 C1367 1.511 . S
C1365 C1361 1.376 . S
C1365 C1364 1.392 1_565 S
C1365 H1377 0.929 . S
C1366 C1362 1.531 1_545 S
C1366 H1378 0.960 . S
C1366 H1379 0.962 . S
C1366 H1380 0.960 1_545 S
C1367 C1364 1.511 . S
C1367 H1381 0.961 . S
C1367 H1382 0.961 . S
C1367 H1383 0.961 . S
C1368 C1369 1.370 . S
C1368 C1370 1.363 . S
C1368 H1384 0.931 . S
C1369 C1368 1.370 . S
C1369 C1373 1.408 . S
C1370 C1368 1.363 . S
C1370 C1371 1.370 . S
C1370 C1374 1.524 . S
C1371 C1363 1.503 . S
C1371 C1370 1.370 . S
C1371 C1372 1.403 . S
C1372 C1371 1.403 . S
C1372 C1373 1.404 . S
C1372 C1375 1.539 . S
C1373 C1369 1.408 . S
C1373 C1372 1.404 . S
C1373 H1385 0.930 . S
C1374 C1370 1.524 . S
C1374 H1386 0.956 . S
C1374 H1387 0.961 . S
C1374 H1388 0.961 . S
C1375 C1372 1.539 . S
C1375 H1389 0.958 . S
C1375 H1390 0.961 . S
C1375 H1391 0.960 . S
H1376 C1360 0.931 . S
H1377 C1365 0.929 . S
H1378 C1366 0.960 . S
H1379 C1366 0.962 . S
H1380 C1366 0.960 1_565 S
H1381 C1367 0.961 . S
H1382 C1367 0.961 . S
H1383 C1367 0.961 . S
H1384 C1368 0.931 . S
H1385 C1373 0.930 . S
H1386 C1374 0.956 . S
H1387 C1374 0.961 . S
H1388 C1374 0.961 . S
H1389 C1375 0.958 . S
H1390 C1375 0.961 . S
H1391 C1375 0.960 . S
C1392 C1393 1.391 . S
C1392 C1394 1.394 . S
C1392 H1408 0.931 . S
C1393 C1392 1.391 . S
C1393 C1397 1.376 . S
C1394 C1392 1.394 . S
C1394 C1395 1.369 . S
C1394 C1398 1.531 1_655 S
C1395 C1394 1.369 . S
C1395 C1396 1.410 . S
C1395 C1403 1.503 1_655 S
C1396 C1395 1.410 . S
C1396 C1397 1.392 . S
C1396 C1399 1.511 . S
C1397 C1393 1.376 . S
C1397 C1396 1.392 . S
C1397 H1409 0.929 . S
C1398 C1394 1.531 1_455 S
C1398 H1410 0.960 . S
C1398 H1411 0.962 . S
C1398 H1412 0.960 . S
C1399 C1396 1.511 . S
C1399 H1413 0.961 . S
C1399 H1414 0.961 . S
C1399 H1415 0.961 . S
C1400 C1401 1.370 . S
C1400 C1402 1.363 . S
C1400 H1416 0.931 . S
C1401 C1400 1.370 . S
C1401 C1405 1.408 . S
C1402 C1400 1.363 . S
C1402 C1403 1.370 . S
C1402 C1406 1.524 . S
C1403 C1395 1.503 1_455 S
C1403 C1402 1.370 . S
C1403 C1404 1.403 . S
C1404 C1403 1.403 . S
C1404 C1405 1.404 . S
C1404 C1407 1.539 . S
C1405 C1401 1.408 . S
C1405 C1404 1.404 . S
C1405 H1417 0.930 . S
C1406 C1402 1.524 . S
C1406 H1418 0.956 . S
C1406 H1419 0.961 1_455 S
C1406 H1420 0.961 . S
C1407 C1404 1.539 . S
C1407 H1421 0.958 . S
C1407 H1422 0.961 . S
C1407 H1423 0.960 . S
H1408 C1392 0.931 . S
H1409 C1397 0.929 . S
H1410 C1398 0.960 . S
H1411 C1398 0.962 . S
H1412 C1398 0.960 . S
H1413 C1399 0.961 . S
H1414 C1399 0.961 . S
H1415 C1399 0.961 . S
H1416 C1400 0.931 . S
H1417 C1405 0.930 . S
H1418 C1406 0.956 . S
H1419 C1406 0.961 1_655 S
H1420 C1406 0.961 . S
H1421 C1407 0.958 . S
H1422 C1407 0.961 . S
H1423 C1407 0.960 . S
C1424 C1425 1.391 . S
C1424 C1426 1.394 . S
C1424 H1440 0.931 . S
C1425 C1424 1.391 . S
C1425 C1429 1.376 . S
C1426 C1424 1.394 . S
C1426 C1427 1.369 1_545 S
C1426 C1430 1.531 . S
C1427 C1426 1.369 1_565 S
C1427 C1428 1.406 1_565 S
C1427 C1435 1.503 . S
C1428 C1427 1.406 1_545 S
C1428 C1429 1.401 . S
C1428 C1431 1.506 1_545 S
C1429 C1425 1.376 . S
C1429 C1428 1.401 . S
C1429 H1441 0.929 . S
C1430 C1426 1.531 . S
C1430 H1442 0.960 1_545 S
C1430 H1443 0.962 . S
C1430 H1444 0.960 . S
C1431 C1428 1.506 1_565 S
C1431 H1445 0.961 . S
C1431 H1446 0.961 . S
C1431 H1447 0.961 . S
C1432 C1433 1.370 . S
C1432 C1434 1.363 . S
C1432 H1448 0.931 . S
C1433 C1432 1.370 . S
C1433 C1437 1.408 . S
C1434 C1432 1.363 . S
C1434 C1435 1.370 . S
C1434 C1438 1.524 . S
C1435 C1427 1.503 . S
C1435 C1434 1.370 . S
C1435 C1436 1.403 . S
C1436 C1435 1.403 . S
C1436 C1437 1.404 . S
C1436 C1439 1.539 . S
C1437 C1433 1.408 . S
C1437 C1436 1.404 . S
C1437 H1449 0.930 . S
C1438 C1434 1.524 . S
C1438 H1450 0.956 . S
C1438 H1451 0.961 . S
C1438 H1452 0.961 . S
C1439 C1436 1.539 . S
C1439 H1453 0.958 . S
C1439 H1454 0.961 . S
C1439 H1455 0.960 . S
H1440 C1424 0.931 . S
H1441 C1429 0.929 . S
H1442 C1430 0.960 1_565 S
H1443 C1430 0.962 . S
H1444 C1430 0.960 . S
H1445 C1431 0.961 . S
H1446 C1431 0.961 . S
H1447 C1431 0.961 . S
H1448 C1432 0.931 . S
H1449 C1437 0.930 . S
H1450 C1438 0.956 . S
H1451 C1438 0.961 . S
H1452 C1438 0.961 . S
H1453 C1439 0.958 . S
H1454 C1439 0.961 . S
H1455 C1439 0.960 . S
C1456 C1457 1.391 . S
C1456 C1458 1.394 . S
C1456 H1472 0.931 . S
C1457 C1456 1.391 . S
C1457 C1461 1.376 . S
C1458 C1456 1.394 . S
C1458 C1459 1.369 . S
C1458 C1462 1.531 . S
C1459 C1458 1.369 . S
C1459 C1460 1.410 . S
C1459 C1467 1.503 1_655 S
C1460 C1459 1.410 . S
C1460 C1461 1.392 . S
C1460 C1463 1.511 . S
C1461 C1457 1.376 . S
C1461 C1460 1.392 . S
C1461 H1473 0.929 . S
C1462 C1458 1.531 . S
C1462 H1474 0.960 1_655 S
C1462 H1475 0.962 . S
C1462 H1476 0.960 . S
C1463 C1460 1.511 . S
C1463 H1477 0.961 . S
C1463 H1478 0.961 . S
C1463 H1479 0.961 . S
C1464 C1465 1.370 . S
C1464 C1466 1.363 . S
C1464 H1480 0.931 . S
C1465 C1464 1.370 . S
C1465 C1469 1.408 . S
C1466 C1464 1.363 . S
C1466 C1467 1.370 . S
C1466 C1470 1.524 1_455 S
C1467 C1459 1.503 1_455 S
C1467 C1466 1.370 . S
C1467 C1468 1.403 . S
C1468 C1467 1.403 . S
C1468 C1469 1.404 . S
C1468 C1471 1.539 . S
C1469 C1465 1.408 . S
C1469 C1468 1.404 . S
C1469 H1481 0.930 . S
C1470 C1466 1.524 1_655 S
C1470 H1482 0.956 . S
C1470 H1483 0.961 . S
C1470 H1484 0.961 . S
C1471 C1468 1.539 . S
C1471 H1485 0.958 . S
C1471 H1486 0.961 . S
C1471 H1487 0.960 . S
H1472 C1456 0.931 . S
H1473 C1461 0.929 . S
H1474 C1462 0.960 1_455 S
H1475 C1462 0.962 . S
H1476 C1462 0.960 . S
H1477 C1463 0.961 . S
H1478 C1463 0.961 . S
H1479 C1463 0.961 . S
H1480 C1464 0.931 . S
H1481 C1469 0.930 . S
H1482 C1470 0.956 . S
H1483 C1470 0.961 . S
H1484 C1470 0.961 . S
H1485 C1471 0.958 . S
H1486 C1471 0.961 . S
H1487 C1471 0.960 . S
C1488 C1489 1.391 . S
C1488 C1490 1.394 . S
C1488 H1504 0.931 . S
C1489 C1488 1.391 . S
C1489 C1493 1.376 . S
C1490 C1488 1.394 . S
C1490 C1491 1.369 . S
C1490 C1494 1.531 . S
C1491 C1490 1.369 . S
C1491 C1492 1.410 . S
C1491 C1499 1.503 . S
C1492 C1491 1.410 . S
C1492 C1493 1.392 . S
C1492 C1495 1.511 . S
C1493 C1489 1.376 . S
C1493 C1492 1.392 . S
C1493 H1505 0.929 . S
C1494 C1490 1.531 . S
C1494 H1506 0.960 . S
C1494 H1507 0.962 . S
C1494 H1508 0.960 . S
C1495 C1492 1.511 . S
C1495 H1509 0.961 . S
C1495 H1510 0.961 . S
C1495 H1511 0.961 . S
C1496 C1497 1.370 . S
C1496 C1498 1.363 1_545 S
C1496 H1512 0.931 . S
C1497 C1496 1.370 . S
C1497 C1501 1.408 . S
C1498 C1496 1.363 1_565 S
C1498 C1499 1.370 . S
C1498 C1502 1.524 . S
C1499 C1491 1.503 . S
C1499 C1498 1.370 . S
C1499 C1500 1.403 . S
C1500 C1499 1.403 . S
C1500 C1501 1.404 1_565 S
C1500 C1503 1.539 . S
C1501 C1497 1.408 . S
C1501 C1500 1.404 1_545 S
C1501 H1513 0.930 . S
C1502 C1498 1.524 . S
C1502 H1514 0.956 . S
C1502 H1515 0.961 . S
C1502 H1516 0.961 . S
C1503 C1500 1.539 . S
C1503 H1517 0.958 . S
C1503 H1518 0.961 . S
C1503 H1519 0.960 . S
H1504 C1488 0.931 . S
H1505 C1493 0.929 . S
H1506 C1494 0.960 . S
H1507 C1494 0.962 . S
H1508 C1494 0.960 . S
H1509 C1495 0.961 . S
H1510 C1495 0.961 . S
H1511 C1495 0.961 . S
H1512 C1496 0.931 . S
H1513 C1501 0.930 . S
H1514 C1502 0.956 . S
H1515 C1502 0.961 . S
H1516 C1502 0.961 . S
H1517 C1503 0.958 . S
H1518 C1503 0.961 . S
H1519 C1503 0.960 . S
C1520 C1521 1.391 . S
C1520 C1522 1.394 . S
C1520 H1536 0.931 . S
C1521 C1520 1.391 . S
C1521 C1525 1.376 . S
C1522 C1520 1.394 . S
C1522 C1523 1.369 . S
C1522 C1526 1.531 . S
C1523 C1522 1.369 . S
C1523 C1524 1.410 . S
C1523 C1531 1.503 1_455 S
C1524 C1523 1.410 . S
C1524 C1525 1.392 . S
C1524 C1527 1.511 1_455 S
C1525 C1521 1.376 . S
C1525 C1524 1.392 . S
C1525 H1537 0.929 . S
C1526 C1522 1.531 . S
C1526 H1538 0.960 . S
C1526 H1539 0.962 . S
C1526 H1540 0.960 . S
C1527 C1524 1.511 1_655 S
C1527 H1541 0.961 . S
C1527 H1542 0.961 . S
C1527 H1543 0.961 . S
C1528 C1529 1.370 . S
C1528 C1530 1.363 . S
C1528 H1544 0.931 . S
C1529 C1528 1.370 . S
C1529 C1533 1.408 . S
C1530 C1528 1.363 . S
C1530 C1531 1.370 . S
C1530 C1534 1.524 . S
C1531 C1523 1.503 1_655 S
C1531 C1530 1.370 . S
C1531 C1532 1.403 . S
C1532 C1531 1.403 . S
C1532 C1533 1.404 . S
C1532 C1535 1.539 . S
C1533 C1529 1.408 . S
C1533 C1532 1.404 . S
C1533 H1545 0.930 . S
C1534 C1530 1.524 . S
C1534 H1546 0.956 1_655 S
C1534 H1547 0.961 . S
C1534 H1548 0.961 . S
C1535 C1532 1.539 . S
C1535 H1549 0.958 . S
C1535 H1550 0.961 . S
C1535 H1551 0.960 . S
H1536 C1520 0.931 . S
H1537 C1525 0.929 . S
H1538 C1526 0.960 . S
H1539 C1526 0.962 . S
H1540 C1526 0.960 . S
H1541 C1527 0.961 . S
H1542 C1527 0.961 . S
H1543 C1527 0.961 . S
H1544 C1528 0.931 . S
H1545 C1533 0.930 . S
H1546 C1534 0.956 1_455 S
H1547 C1534 0.961 . S
H1548 C1534 0.961 . S
H1549 C1535 0.958 . S
H1550 C1535 0.961 . S
H1551 C1535 0.960 . S
C1552 C1553 1.391 . S
C1552 C1554 1.394 1_565 S
C1552 H1568 0.931 . S
C1553 C1552 1.391 . S
C1553 C1557 1.376 . S
C1554 C1552 1.394 1_545 S
C1554 C1555 1.369 . S
C1554 C1558 1.531 . S
C1555 C1554 1.369 . S
C1555 C1556 1.410 . S
C1555 C1563 1.503 . S
C1556 C1555 1.410 . S
C1556 C1557 1.392 1_545 S
C1556 C1559 1.511 . S
C1557 C1553 1.376 . S
C1557 C1556 1.392 1_565 S
C1557 H1569 0.929 . S
C1558 C1554 1.531 . S
C1558 H1570 0.960 . S
C1558 H1571 0.962 . S
C1558 H1572 0.960 . S
C1559 C1556 1.511 . S
C1559 H1573 0.961 . S
C1559 H1574 0.961 . S
C1559 H1575 0.961 . S
C1560 C1561 1.370 . S
C1560 C1562 1.363 . S
C1560 H1576 0.931 . S
C1561 C1560 1.370 . S
C1561 C1565 1.408 . S
C1562 C1560 1.363 . S
C1562 C1563 1.370 . S
C1562 C1566 1.524 . S
C1563 C1555 1.503 . S
C1563 C1562 1.370 . S
C1563 C1564 1.403 . S
C1564 C1563 1.403 . S
C1564 C1565 1.404 . S
C1564 C1567 1.539 . S
C1565 C1561 1.408 . S
C1565 C1564 1.404 . S
C1565 H1577 0.930 . S
C1566 C1562 1.524 . S
C1566 H1578 0.956 . S
C1566 H1579 0.961 . S
C1566 H1580 0.961 . S
C1567 C1564 1.539 . S
C1567 H1581 0.958 . S
C1567 H1582 0.961 . S
C1567 H1583 0.960 . S
H1568 C1552 0.931 . S
H1569 C1557 0.929 . S
H1570 C1558 0.960 . S
H1571 C1558 0.962 . S
H1572 C1558 0.960 . S
H1573 C1559 0.961 . S
H1574 C1559 0.961 . S
H1575 C1559 0.961 . S
H1576 C1560 0.931 . S
H1577 C1565 0.930 . S
H1578 C1566 0.956 . S
H1579 C1566 0.961 . S
H1580 C1566 0.961 . S
H1581 C1567 0.958 . S
H1582 C1567 0.961 . S
H1583 C1567 0.960 . S
C1584 C1585 1.391 . S
C1584 C1586 1.394 . S
C1584 H1600 0.931 . S
C1585 C1584 1.391 . S
C1585 C1589 1.376 . S
C1586 C1584 1.394 . S
C1586 C1587 1.369 . S
C1586 C1590 1.531 . S
C1587 C1586 1.369 . S
C1587 C1588 1.410 . S
C1587 C1595 1.503 . S
C1588 C1587 1.410 . S
C1588 C1589 1.392 . S
C1588 C1591 1.511 . S
C1589 C1585 1.376 . S
C1589 C1588 1.392 . S
C1589 H1601 0.929 . S
C1590 C1586 1.531 . S
C1590 H1602 0.960 . S
C1590 H1603 0.962 . S
C1590 H1604 0.960 . S
C1591 C1588 1.511 . S
C1591 H1605 0.961 . S
C1591 H1606 0.961 . S
C1591 H1607 0.961 . S
C1592 C1593 1.370 . S
C1592 C1594 1.363 . S
C1592 H1608 0.931 . S
C1593 C1592 1.370 . S
C1593 C1597 1.408 . S
C1594 C1592 1.363 . S
C1594 C1595 1.370 . S
C1594 C1598 1.524 . S
C1595 C1587 1.503 . S
C1595 C1594 1.370 . S
C1595 C1596 1.403 . S
C1596 C1595 1.403 . S
C1596 C1597 1.404 . S
C1596 C1599 1.539 . S
C1597 C1593 1.408 . S
C1597 C1596 1.404 . S
C1597 H1609 0.930 . S
C1598 C1594 1.524 . S
C1598 H1610 0.956 . S
C1598 H1611 0.961 . S
C1598 H1612 0.961 . S
C1599 C1596 1.539 . S
C1599 H1613 0.958 . S
C1599 H1614 0.961 . S
C1599 H1615 0.960 . S
H1600 C1584 0.931 . S
H1601 C1589 0.929 . S
H1602 C1590 0.960 . S
H1603 C1590 0.962 . S
H1604 C1590 0.960 . S
H1605 C1591 0.961 . S
H1606 C1591 0.961 . S
H1607 C1591 0.961 . S
H1608 C1592 0.931 . S
H1609 C1597 0.930 . S
H1610 C1598 0.956 . S
H1611 C1598 0.961 . S
H1612 C1598 0.961 . S
H1613 C1599 0.958 . S
H1614 C1599 0.961 . S
H1615 C1599 0.960 . S
C1616 C1617 1.391 . S
C1616 C1618 1.394 . S
C1616 H1632 0.931 . S
C1617 C1616 1.391 . S
C1617 C1621 1.376 . S
C1618 C1616 1.394 . S
C1618 C1619 1.369 . S
C1618 C1622 1.531 . S
C1619 C1618 1.369 . S
C1619 C1620 1.410 . S
C1619 C1627 1.503 . S
C1620 C1619 1.410 . S
C1620 C1621 1.392 . S
C1620 C1623 1.511 . S
C1621 C1617 1.376 . S
C1621 C1620 1.392 . S
C1621 H1633 0.929 . S
C1622 C1618 1.531 . S
C1622 H1634 0.960 . S
C1622 H1635 0.962 . S
C1622 H1636 0.960 . S
C1623 C1620 1.511 . S
C1623 H1637 0.961 . S
C1623 H1638 0.961 . S
C1623 H1639 0.961 . S
C1624 C1625 1.370 . S
C1624 C1626 1.363 . S
C1624 H1640 0.931 . S
C1625 C1624 1.370 . S
C1625 C1629 1.408 . S
C1626 C1624 1.363 . S
C1626 C1627 1.370 . S
C1626 C1630 1.524 . S
C1627 C1619 1.503 . S
C1627 C1626 1.370 . S
C1627 C1628 1.403 . S
C1628 C1627 1.403 . S
C1628 C1629 1.404 . S
C1628 C1631 1.539 . S
C1629 C1625 1.408 . S
C1629 C1628 1.404 . S
C1629 H1641 0.930 . S
C1630 C1626 1.524 . S
C1630 H1642 0.956 . S
C1630 H1643 0.961 . S
C1630 H1644 0.961 . S
C1631 C1628 1.539 . S
C1631 H1645 0.958 . S
C1631 H1646 0.961 . S
C1631 H1647 0.960 . S
H1632 C1616 0.931 . S
H1633 C1621 0.929 . S
H1634 C1622 0.960 . S
H1635 C1622 0.962 . S
H1636 C1622 0.960 . S
H1637 C1623 0.961 . S
H1638 C1623 0.961 . S
H1639 C1623 0.961 . S
H1640 C1624 0.931 . S
H1641 C1629 0.930 . S
H1642 C1630 0.956 . S
H1643 C1630 0.961 . S
H1644 C1630 0.961 . S
H1645 C1631 0.958 . S
H1646 C1631 0.961 . S
H1647 C1631 0.960 . S
C1648 C1649 1.391 . S
C1648 C1650 1.394 . S
C1648 H1664 0.931 . S
C1649 C1648 1.391 . S
C1649 C1653 1.376 . S
C1650 C1648 1.394 . S
C1650 C1651 1.369 . S
C1650 C1654 1.531 . S
C1651 C1650 1.369 . S
C1651 C1652 1.410 . S
C1651 C1659 1.503 . S
C1652 C1651 1.410 . S
C1652 C1653 1.392 . S
C1652 C1655 1.511 . S
C1653 C1649 1.376 . S
C1653 C1652 1.392 . S
C1653 H1665 0.929 . S
C1654 C1650 1.531 . S
C1654 H1666 0.960 . S
C1654 H1667 0.962 . S
C1654 H1668 0.960 . S
C1655 C1652 1.511 . S
C1655 H1669 0.961 . S
C1655 H1670 0.961 . S
C1655 H1671 0.961 . S
C1656 C1657 1.370 . S
C1656 C1658 1.363 . S
C1656 H1672 0.931 . S
C1657 C1656 1.370 . S
C1657 C1661 1.408 . S
C1658 C1656 1.363 . S
C1658 C1659 1.370 . S
C1658 C1662 1.524 . S
C1659 C1651 1.503 . S
C1659 C1658 1.370 . S
C1659 C1660 1.403 . S
C1660 C1659 1.403 . S
C1660 C1661 1.404 . S
C1660 C1663 1.539 . S
C1661 C1657 1.408 . S
C1661 C1660 1.404 . S
C1661 H1673 0.930 . S
C1662 C1658 1.524 . S
C1662 H1674 0.956 . S
C1662 H1675 0.961 . S
C1662 H1676 0.961 . S
C1663 C1660 1.539 . S
C1663 H1677 0.958 . S
C1663 H1678 0.961 . S
C1663 H1679 0.960 . S
H1664 C1648 0.931 . S
H1665 C1653 0.929 . S
H1666 C1654 0.960 . S
H1667 C1654 0.962 . S
H1668 C1654 0.960 . S
H1669 C1655 0.961 . S
H1670 C1655 0.961 . S
H1671 C1655 0.961 . S
H1672 C1656 0.931 . S
H1673 C1661 0.930 . S
H1674 C1662 0.956 . S
H1675 C1662 0.961 . S
H1676 C1662 0.961 . S
H1677 C1663 0.958 . S
H1678 C1663 0.961 . S
H1679 C1663 0.960 . S
C1680 C1681 1.391 . S
C1680 C1682 1.394 . S
C1680 H1696 0.931 . S
C1681 C1680 1.391 . S
C1681 C1685 1.376 . S
C1682 C1680 1.394 . S
C1682 C1683 1.369 . S
C1682 C1686 1.531 . S
C1683 C1682 1.369 . S
C1683 C1684 1.410 . S
C1683 C1691 1.503 . S
C1684 C1683 1.410 . S
C1684 C1685 1.392 . S
C1684 C1687 1.511 . S
C1685 C1681 1.376 . S
C1685 C1684 1.392 . S
C1685 H1697 0.929 . S
C1686 C1682 1.531 . S
C1686 H1698 0.960 . S
C1686 H1699 0.962 . S
C1686 H1700 0.960 . S
C1687 C1684 1.511 . S
C1687 H1701 0.961 . S
C1687 H1702 0.961 . S
C1687 H1703 0.961 . S
C1688 C1689 1.370 . S
C1688 C1690 1.363 . S
C1688 H1704 0.931 . S
C1689 C1688 1.370 . S
C1689 C1693 1.408 . S
C1690 C1688 1.363 . S
C1690 C1691 1.370 . S
C1690 C1694 1.524 . S
C1691 C1683 1.503 . S
C1691 C1690 1.370 . S
C1691 C1692 1.403 . S
C1692 C1691 1.403 . S
C1692 C1693 1.404 . S
C1692 C1695 1.539 . S
C1693 C1689 1.408 . S
C1693 C1692 1.404 . S
C1693 H1705 0.930 . S
C1694 C1690 1.524 . S
C1694 H1706 0.956 . S
C1694 H1707 0.961 . S
C1694 H1708 0.961 . S
C1695 C1692 1.539 . S
C1695 H1709 0.958 . S
C1695 H1710 0.961 . S
C1695 H1711 0.960 . S
H1696 C1680 0.931 . S
H1697 C1685 0.929 . S
H1698 C1686 0.960 . S
H1699 C1686 0.962 . S
H1700 C1686 0.960 . S
H1701 C1687 0.961 . S
H1702 C1687 0.961 . S
H1703 C1687 0.961 . S
H1704 C1688 0.931 . S
H1705 C1693 0.930 . S
H1706 C1694 0.956 . S
H1707 C1694 0.961 . S
H1708 C1694 0.961 . S
H1709 C1695 0.958 . S
H1710 C1695 0.961 . S
H1711 C1695 0.960 . S
C1712 C1713 1.391 . S
C1712 C1714 1.394 . S
C1712 H1728 0.931 . S
C1713 C1712 1.391 . S
C1713 C1717 1.376 . S
C1714 C1712 1.394 . S
C1714 C1715 1.369 . S
C1714 C1718 1.531 . S
C1715 C1714 1.369 . S
C1715 C1716 1.410 . S
C1715 C1723 1.503 . S
C1716 C1715 1.410 . S
C1716 C1717 1.392 . S
C1716 C1719 1.511 . S
C1717 C1713 1.376 . S
C1717 C1716 1.392 . S
C1717 H1729 0.929 . S
C1718 C1714 1.531 . S
C1718 H1730 0.960 . S
C1718 H1731 0.962 . S
C1718 H1732 0.960 . S
C1719 C1716 1.511 . S
C1719 H1733 0.961 . S
C1719 H1734 0.961 . S
C1719 H1735 0.961 . S
C1720 C1721 1.370 . S
C1720 C1722 1.363 . S
C1720 H1736 0.931 . S
C1721 C1720 1.370 . S
C1721 C1725 1.408 . S
C1722 C1720 1.363 . S
C1722 C1723 1.370 . S
C1722 C1726 1.524 . S
C1723 C1715 1.503 . S
C1723 C1722 1.370 . S
C1723 C1724 1.403 . S
C1724 C1723 1.403 . S
C1724 C1725 1.404 . S
C1724 C1727 1.539 . S
C1725 C1721 1.408 . S
C1725 C1724 1.404 . S
C1725 H1737 0.930 . S
C1726 C1722 1.524 . S
C1726 H1738 0.956 . S
C1726 H1739 0.961 . S
C1726 H1740 0.961 . S
C1727 C1724 1.539 . S
C1727 H1741 0.958 . S
C1727 H1742 0.961 . S
C1727 H1743 0.960 . S
H1728 C1712 0.931 . S
H1729 C1717 0.929 . S
H1730 C1718 0.960 . S
H1731 C1718 0.962 . S
H1732 C1718 0.960 . S
H1733 C1719 0.961 . S
H1734 C1719 0.961 . S
H1735 C1719 0.961 . S
H1736 C1720 0.931 . S
H1737 C1725 0.930 . S
H1738 C1726 0.956 . S
H1739 C1726 0.961 . S
H1740 C1726 0.961 . S
H1741 C1727 0.958 . S
H1742 C1727 0.961 . S
H1743 C1727 0.960 . S
C1744 C1745 1.391 . S
C1744 C1746 1.394 . S
C1744 H1760 0.931 . S
C1745 C1744 1.391 . S
C1745 C1749 1.376 . S
C1746 C1744 1.394 . S
C1746 C1747 1.369 . S
C1746 C1750 1.531 . S
C1747 C1746 1.369 . S
C1747 C1748 1.410 . S
C1747 C1755 1.503 . S
C1748 C1747 1.410 . S
C1748 C1749 1.392 . S
C1748 C1751 1.511 . S
C1749 C1745 1.376 . S
C1749 C1748 1.392 . S
C1749 H1761 0.929 . S
C1750 C1746 1.531 . S
C1750 H1762 0.960 . S
C1750 H1763 0.962 . S
C1750 H1764 0.960 . S
C1751 C1748 1.511 . S
C1751 H1765 0.961 . S
C1751 H1766 0.961 . S
C1751 H1767 0.961 . S
C1752 C1753 1.370 . S
C1752 C1754 1.363 . S
C1752 H1768 0.931 . S
C1753 C1752 1.370 . S
C1753 C1757 1.408 . S
C1754 C1752 1.363 . S
C1754 C1755 1.370 . S
C1754 C1758 1.524 . S
C1755 C1747 1.503 . S
C1755 C1754 1.370 . S
C1755 C1756 1.403 . S
C1756 C1755 1.403 . S
C1756 C1757 1.404 . S
C1756 C1759 1.539 . S
C1757 C1753 1.408 . S
C1757 C1756 1.404 . S
C1757 H1769 0.930 . S
C1758 C1754 1.524 . S
C1758 H1770 0.956 . S
C1758 H1771 0.961 . S
C1758 H1772 0.961 . S
C1759 C1756 1.539 . S
C1759 H1773 0.958 . S
C1759 H1774 0.961 . S
C1759 H1775 0.960 . S
H1760 C1744 0.931 . S
H1761 C1749 0.929 . S
H1762 C1750 0.960 . S
H1763 C1750 0.962 . S
H1764 C1750 0.960 . S
H1765 C1751 0.961 . S
H1766 C1751 0.961 . S
H1767 C1751 0.961 . S
H1768 C1752 0.931 . S
H1769 C1757 0.930 . S
H1770 C1758 0.956 . S
H1771 C1758 0.961 . S
H1772 C1758 0.961 . S
H1773 C1759 0.958 . S
H1774 C1759 0.961 . S
H1775 C1759 0.960 . S
C1776 C1777 1.391 . S
C1776 C1778 1.394 . S
C1776 H1792 0.931 . S
C1777 C1776 1.391 . S
C1777 C1781 1.376 . S
C1778 C1776 1.394 . S
C1778 C1779 1.369 . S
C1778 C1782 1.531 . S
C1779 C1778 1.369 . S
C1779 C1780 1.410 . S
C1779 C1787 1.503 . S
C1780 C1779 1.410 . S
C1780 C1781 1.392 . S
C1780 C1783 1.511 . S
C1781 C1777 1.376 . S
C1781 C1780 1.392 . S
C1781 H1793 0.929 . S
C1782 C1778 1.531 . S
C1782 H1794 0.960 . S
C1782 H1795 0.962 . S
C1782 H1796 0.960 . S
C1783 C1780 1.511 . S
C1783 H1797 0.961 . S
C1783 H1798 0.961 . S
C1783 H1799 0.961 . S
C1784 C1785 1.370 . S
C1784 C1786 1.363 . S
C1784 H1800 0.931 . S
C1785 C1784 1.370 . S
C1785 C1789 1.408 . S
C1786 C1784 1.363 . S
C1786 C1787 1.370 . S
C1786 C1790 1.524 . S
C1787 C1779 1.503 . S
C1787 C1786 1.370 . S
C1787 C1788 1.403 . S
C1788 C1787 1.403 . S
C1788 C1789 1.404 . S
C1788 C1791 1.539 . S
C1789 C1785 1.408 . S
C1789 C1788 1.404 . S
C1789 H1801 0.930 . S
C1790 C1786 1.524 . S
C1790 H1802 0.956 . S
C1790 H1803 0.961 . S
C1790 H1804 0.961 . S
C1791 C1788 1.539 . S
C1791 H1805 0.958 . S
C1791 H1806 0.961 . S
C1791 H1807 0.960 . S
H1792 C1776 0.931 . S
H1793 C1781 0.929 . S
H1794 C1782 0.960 . S
H1795 C1782 0.962 . S
H1796 C1782 0.960 . S
H1797 C1783 0.961 . S
H1798 C1783 0.961 . S
H1799 C1783 0.961 . S
H1800 C1784 0.931 . S
H1801 C1789 0.930 . S
H1802 C1790 0.956 . S
H1803 C1790 0.961 . S
H1804 C1790 0.961 . S
H1805 C1791 0.958 . S
H1806 C1791 0.961 . S
H1807 C1791 0.960 . S
C1808 C1809 1.391 . S
C1808 C1810 1.394 . S
C1808 H1824 0.931 . S
C1809 C1808 1.391 . S
C1809 C1813 1.376 . S
C1810 C1808 1.394 . S
C1810 C1811 1.369 . S
C1810 C1814 1.531 . S
C1811 C1810 1.369 . S
C1811 C1812 1.410 . S
C1811 C1819 1.503 . S
C1812 C1811 1.410 . S
C1812 C1813 1.392 . S
C1812 C1815 1.511 . S
C1813 C1809 1.376 . S
C1813 C1812 1.392 . S
C1813 H1825 0.929 . S
C1814 C1810 1.531 . S
C1814 H1826 0.960 . S
C1814 H1827 0.962 . S
C1814 H1828 0.960 . S
C1815 C1812 1.511 . S
C1815 H1829 0.961 . S
C1815 H1830 0.961 . S
C1815 H1831 0.961 . S
C1816 C1817 1.370 . S
C1816 C1818 1.363 . S
C1816 H1832 0.931 . S
C1817 C1816 1.370 . S
C1817 C1821 1.408 . S
C1818 C1816 1.363 . S
C1818 C1819 1.370 . S
C1818 C1822 1.524 . S
C1819 C1811 1.503 . S
C1819 C1818 1.370 . S
C1819 C1820 1.403 . S
C1820 C1819 1.403 . S
C1820 C1821 1.404 . S
C1820 C1823 1.539 . S
C1821 C1817 1.408 . S
C1821 C1820 1.404 . S
C1821 H1833 0.930 . S
C1822 C1818 1.524 . S
C1822 H1834 0.956 . S
C1822 H1835 0.961 . S
C1822 H1836 0.961 . S
C1823 C1820 1.539 . S
C1823 H1837 0.958 . S
C1823 H1838 0.961 . S
C1823 H1839 0.960 . S
H1824 C1808 0.931 . S
H1825 C1813 0.929 . S
H1826 C1814 0.960 . S
H1827 C1814 0.962 . S
H1828 C1814 0.960 . S
H1829 C1815 0.961 . S
H1830 C1815 0.961 . S
H1831 C1815 0.961 . S
H1832 C1816 0.931 . S
H1833 C1821 0.930 . S
H1834 C1822 0.956 . S
H1835 C1822 0.961 . S
H1836 C1822 0.961 . S
H1837 C1823 0.958 . S
H1838 C1823 0.961 . S
H1839 C1823 0.960 . S
C1840 C1841 1.391 . S
C1840 C1842 1.394 . S
C1840 H1856 0.931 . S
C1841 C1840 1.391 . S
C1841 C1845 1.376 . S
C1842 C1840 1.394 . S
C1842 C1843 1.369 . S
C1842 C1846 1.531 . S
C1843 C1842 1.369 . S
C1843 C1844 1.410 . S
C1843 C1851 1.503 . S
C1844 C1843 1.410 . S
C1844 C1845 1.392 . S
C1844 C1847 1.511 . S
C1845 C1841 1.376 . S
C1845 C1844 1.392 . S
C1845 H1857 0.929 . S
C1846 C1842 1.531 . S
C1846 H1858 0.960 . S
C1846 H1859 0.962 . S
C1846 H1860 0.960 . S
C1847 C1844 1.511 . S
C1847 H1861 0.961 . S
C1847 H1862 0.961 . S
C1847 H1863 0.961 . S
C1848 C1849 1.370 . S
C1848 C1850 1.363 . S
C1848 H1864 0.931 . S
C1849 C1848 1.370 . S
C1849 C1853 1.408 . S
C1850 C1848 1.363 . S
C1850 C1851 1.370 . S
C1850 C1854 1.524 . S
C1851 C1843 1.503 . S
C1851 C1850 1.370 . S
C1851 C1852 1.403 . S
C1852 C1851 1.403 . S
C1852 C1853 1.404 . S
C1852 C1855 1.539 . S
C1853 C1849 1.408 . S
C1853 C1852 1.404 . S
C1853 H1865 0.930 . S
C1854 C1850 1.524 . S
C1854 H1866 0.956 . S
C1854 H1867 0.961 . S
C1854 H1868 0.961 . S
C1855 C1852 1.539 . S
C1855 H1869 0.958 . S
C1855 H1870 0.961 . S
C1855 H1871 0.960 . S
H1856 C1840 0.931 . S
H1857 C1845 0.929 . S
H1858 C1846 0.960 . S
H1859 C1846 0.962 . S
H1860 C1846 0.960 . S
H1861 C1847 0.961 . S
H1862 C1847 0.961 . S
H1863 C1847 0.961 . S
H1864 C1848 0.931 . S
H1865 C1853 0.930 . S
H1866 C1854 0.956 . S
H1867 C1854 0.961 . S
H1868 C1854 0.961 . S
H1869 C1855 0.958 . S
H1870 C1855 0.961 . S
H1871 C1855 0.960 . S
C1872 C1873 1.391 . S
C1872 C1874 1.394 . S
C1872 H1888 0.931 . S
C1873 C1872 1.391 . S
C1873 C1877 1.376 . S
C1874 C1872 1.394 . S
C1874 C1875 1.369 . S
C1874 C1878 1.531 . S
C1875 C1874 1.369 . S
C1875 C1876 1.410 . S
C1875 C1883 1.503 . S
C1876 C1875 1.410 . S
C1876 C1877 1.392 . S
C1876 C1879 1.511 . S
C1877 C1873 1.376 . S
C1877 C1876 1.392 . S
C1877 H1889 0.929 . S
C1878 C1874 1.531 . S
C1878 H1890 0.960 . S
C1878 H1891 0.962 . S
C1878 H1892 0.960 . S
C1879 C1876 1.511 . S
C1879 H1893 0.961 . S
C1879 H1894 0.961 . S
C1879 H1895 0.961 . S
C1880 C1881 1.370 . S
C1880 C1882 1.363 . S
C1880 H1896 0.931 . S
C1881 C1880 1.370 . S
C1881 C1885 1.408 . S
C1882 C1880 1.363 . S
C1882 C1883 1.370 . S
C1882 C1886 1.524 . S
C1883 C1875 1.503 . S
C1883 C1882 1.370 . S
C1883 C1884 1.403 . S
C1884 C1883 1.403 . S
C1884 C1885 1.404 . S
C1884 C1887 1.539 . S
C1885 C1881 1.408 . S
C1885 C1884 1.404 . S
C1885 H1897 0.930 . S
C1886 C1882 1.524 . S
C1886 H1898 0.956 . S
C1886 H1899 0.961 . S
C1886 H1900 0.961 . S
C1887 C1884 1.539 . S
C1887 H1901 0.958 . S
C1887 H1902 0.961 . S
C1887 H1903 0.960 . S
H1888 C1872 0.931 . S
H1889 C1877 0.929 . S
H1890 C1878 0.960 . S
H1891 C1878 0.962 . S
H1892 C1878 0.960 . S
H1893 C1879 0.961 . S
H1894 C1879 0.961 . S
H1895 C1879 0.961 . S
H1896 C1880 0.931 . S
H1897 C1885 0.930 . S
H1898 C1886 0.956 . S
H1899 C1886 0.961 . S
H1900 C1886 0.961 . S
H1901 C1887 0.958 . S
H1902 C1887 0.961 . S
H1903 C1887 0.960 . S
C1904 C1905 1.391 . S
C1904 C1906 1.394 . S
C1904 H1920 0.931 . S
C1905 C1904 1.391 . S
C1905 C1909 1.376 . S
C1906 C1904 1.394 . S
C1906 C1907 1.369 . S
C1906 C1910 1.531 . S
C1907 C1906 1.369 . S
C1907 C1908 1.410 . S
C1907 C1915 1.503 . S
C1908 C1907 1.410 . S
C1908 C1909 1.392 . S
C1908 C1911 1.511 . S
C1909 C1905 1.376 . S
C1909 C1908 1.392 . S
C1909 H1921 0.929 . S
C1910 C1906 1.531 . S
C1910 H1922 0.960 . S
C1910 H1923 0.962 . S
C1910 H1924 0.960 . S
C1911 C1908 1.511 . S
C1911 H1925 0.961 . S
C1911 H1926 0.961 . S
C1911 H1927 0.961 . S
C1912 C1913 1.370 . S
C1912 C1914 1.363 . S
C1912 H1928 0.931 . S
C1913 C1912 1.370 . S
C1913 C1917 1.408 . S
C1914 C1912 1.363 . S
C1914 C1915 1.370 . S
C1914 C1918 1.524 . S
C1915 C1907 1.503 . S
C1915 C1914 1.370 . S
C1915 C1916 1.403 . S
C1916 C1915 1.403 . S
C1916 C1917 1.404 . S
C1916 C1919 1.539 . S
C1917 C1913 1.408 . S
C1917 C1916 1.404 . S
C1917 H1929 0.930 . S
C1918 C1914 1.524 . S
C1918 H1930 0.956 . S
C1918 H1931 0.961 . S
C1918 H1932 0.961 . S
C1919 C1916 1.539 . S
C1919 H1933 0.958 . S
C1919 H1934 0.961 . S
C1919 H1935 0.960 . S
H1920 C1904 0.931 . S
H1921 C1909 0.929 . S
H1922 C1910 0.960 . S
H1923 C1910 0.962 . S
H1924 C1910 0.960 . S
H1925 C1911 0.961 . S
H1926 C1911 0.961 . S
H1927 C1911 0.961 . S
H1928 C1912 0.931 . S
H1929 C1917 0.930 . S
H1930 C1918 0.956 . S
H1931 C1918 0.961 . S
H1932 C1918 0.961 . S
H1933 C1919 0.958 . S
H1934 C1919 0.961 . S
H1935 C1919 0.960 . S
C1936 C1937 1.391 . S
C1936 C1938 1.394 . S
C1936 H1952 0.931 . S
C1937 C1936 1.391 . S
C1937 C1941 1.376 . S
C1938 C1936 1.394 . S
C1938 C1939 1.369 . S
C1938 C1942 1.531 . S
C1939 C1938 1.369 . S
C1939 C1940 1.410 . S
C1939 C1947 1.503 . S
C1940 C1939 1.410 . S
C1940 C1941 1.392 . S
C1940 C1943 1.511 . S
C1941 C1937 1.376 . S
C1941 C1940 1.392 . S
C1941 H1953 0.929 . S
C1942 C1938 1.531 . S
C1942 H1954 0.960 . S
C1942 H1955 0.962 . S
C1942 H1956 0.960 . S
C1943 C1940 1.511 . S
C1943 H1957 0.961 . S
C1943 H1958 0.961 . S
C1943 H1959 0.961 . S
C1944 C1945 1.370 . S
C1944 C1946 1.363 . S
C1944 H1960 0.931 . S
C1945 C1944 1.370 . S
C1945 C1949 1.408 . S
C1946 C1944 1.363 . S
C1946 C1947 1.370 . S
C1946 C1950 1.524 . S
C1947 C1939 1.503 . S
C1947 C1946 1.370 . S
C1947 C1948 1.403 . S
C1948 C1947 1.403 . S
C1948 C1949 1.404 . S
C1948 C1951 1.539 . S
C1949 C1945 1.408 . S
C1949 C1948 1.404 . S
C1949 H1961 0.930 . S
C1950 C1946 1.524 . S
C1950 H1962 0.956 . S
C1950 H1963 0.961 . S
C1950 H1964 0.961 . S
C1951 C1948 1.539 . S
C1951 H1965 0.958 . S
C1951 H1966 0.961 . S
C1951 H1967 0.960 . S
H1952 C1936 0.931 . S
H1953 C1941 0.929 . S
H1954 C1942 0.960 . S
H1955 C1942 0.962 . S
H1956 C1942 0.960 . S
H1957 C1943 0.961 . S
H1958 C1943 0.961 . S
H1959 C1943 0.961 . S
H1960 C1944 0.931 . S
H1961 C1949 0.930 . S
H1962 C1950 0.956 . S
H1963 C1950 0.961 . S
H1964 C1950 0.961 . S
H1965 C1951 0.958 . S
H1966 C1951 0.961 . S
H1967 C1951 0.960 . S
C945 C890 1.225 . S
C953 C5 1.233 . S
C977 C713 1.151 . S
C985 C64 1.193 . S
C1009 C123 1.558 . S
C1017 C772 1.519 . S
C1041 C831 1.419 . S
C1049 C182 1.465 . S
C1073 C536 1.162 . S
C1081 C241 1.185 . S
C1105 C300 1.526 . S
C1113 C595 1.563 . S
C1137 C359 1.453 . S
C1145 C654 1.456 . S
C1169 C418 1.204 . S
C1177 C477 1.232 . S
C1201 C347 2.268 . S
C1209 C33 2.231 . S
C1233 C357 1.156 . S
C1241 C62 1.195 . S
C1265 C465 1.643 . S
C1273 C151 1.620 . S
C1297 C180 1.630 . S
C1305 C269 1.657 . S
C1329 C52 1.465 . S
C1337 C111 1.472 . S
C1361 C121 1.319 . S
C1369 C92 1.336 . S
C1393 C170 1.350 . S
C1401 C229 1.348 . S
C1425 C3 1.291 . S
C1433 C210 1.271 . S
C1457 C446 1.173 . S
C1465 C288 1.164 . S
C1489 C239 1.802 . S
C1497 C298 1.806 . S
C1521 C328 1.383 . S
C1529 C387 1.353 . S
C1553 C416 2.044 . S
C1561 C406 2.063 . S
C1585 C819 2.270 . S
C1593 C505 2.230 . S
C1617 C534 1.236 . S
C1625 C829 1.210 . S
C1649 C937 1.637 . S
C1657 C623 1.603 . S
C1681 C741 1.665 . S
C1689 C652 1.620 . S
C1713 C524 1.468 . S
C1721 C583 1.471 . S
C1745 C564 1.347 . S
C1753 C593 1.304 . S
C1777 C701 1.330 . S
C1785 C642 1.348 . S
C1809 C475 1.258 . S
C1817 C682 1.255 . S
C1841 C918 1.201 . S
C1849 C760 1.181 . S
C1873 C711 1.827 . S
C1881 C770 1.817 . S
C1905 C800 1.332 . S
C1913 C859 1.326 . S
C1937 C888 2.010 . S
C1945 C878 2.069 . S
