# Generated by pormake.
# Topology unw, (4)-cn, num edge types: 1
# Building blocks:
#     Node 0, Type 0, BuildingBlock: CEKHIL_clean_sbu_0, # of connection points: 4
#     Node 1, Type 0, BuildingBlock: CEKHIL_clean_sbu_0, # of connection points: 4
#     Node 2, Type 0, BuildingBlock: CEKHIL_clean_sbu_0, # of connection points: 4
#     Node 3, Type 0, BuildingBlock: CEKHIL_clean_sbu_0, # of connection points: 4
#     Node 4, Type 0, BuildingBlock: CEKHIL_clean_sbu_0, # of connection points: 4
#     Node 5, Type 0, BuildingBlock: CEKHIL_clean_sbu_0, # of connection points: 4
#     Node 6, Type 0, BuildingBlock: CEKHIL_clean_sbu_0, # of connection points: 4
#     Node 7, Type 0, BuildingBlock: CEKHIL_clean_sbu_0, # of connection points: 4
#     Node 8, Type 0, BuildingBlock: CEKHIL_clean_sbu_0, # of connection points: 4
#     Node 9, Type 0, BuildingBlock: CEKHIL_clean_sbu_0, # of connection points: 4
#     Node 10, Type 0, BuildingBlock: CEKHIL_clean_sbu_0, # of connection points: 4
#     Node 11, Type 0, BuildingBlock: CEKHIL_clean_sbu_0, # of connection points: 4
#     Node 12, Type 0, BuildingBlock: CEKHIL_clean_sbu_0, # of connection points: 4
#     Node 13, Type 0, BuildingBlock: CEKHIL_clean_sbu_0, # of connection points: 4
#     Node 14, Type 0, BuildingBlock: CEKHIL_clean_sbu_0, # of connection points: 4
#     Node 15, Type 0, BuildingBlock: CEKHIL_clean_sbu_0, # of connection points: 4
#     Node 16, Type 0, BuildingBlock: CEKHIL_clean_sbu_0, # of connection points: 4
#     Node 17, Type 0, BuildingBlock: CEKHIL_clean_sbu_0, # of connection points: 4
#     Node 18, Type 0, BuildingBlock: CEKHIL_clean_sbu_0, # of connection points: 4
#     Node 19, Type 0, BuildingBlock: CEKHIL_clean_sbu_0, # of connection points: 4
#     Node 20, Type 0, BuildingBlock: CEKHIL_clean_sbu_0, # of connection points: 4
#     Node 21, Type 0, BuildingBlock: CEKHIL_clean_sbu_0, # of connection points: 4
#     Node 22, Type 0, BuildingBlock: CEKHIL_clean_sbu_0, # of connection points: 4
#     Node 23, Type 0, BuildingBlock: CEKHIL_clean_sbu_0, # of connection points: 4
#     Edge 24, Type (0, 0), BuildingBlock: OJICUG_clean_linker_0, # of connection points: 2
#     Edge 25, Type (0, 0), BuildingBlock: OJICUG_clean_linker_0, # of connection points: 2
#     Edge 26, Type (0, 0), BuildingBlock: OJICUG_clean_linker_0, # of connection points: 2
#     Edge 27, Type (0, 0), BuildingBlock: OJICUG_clean_linker_0, # of connection points: 2
#     Edge 28, Type (0, 0), BuildingBlock: OJICUG_clean_linker_0, # of connection points: 2
#     Edge 29, Type (0, 0), BuildingBlock: OJICUG_clean_linker_0, # of connection points: 2
#     Edge 30, Type (0, 0), BuildingBlock: OJICUG_clean_linker_0, # of connection points: 2
#     Edge 31, Type (0, 0), BuildingBlock: OJICUG_clean_linker_0, # of connection points: 2
#     Edge 32, Type (0, 0), BuildingBlock: OJICUG_clean_linker_0, # of connection points: 2
#     Edge 33, Type (0, 0), BuildingBlock: OJICUG_clean_linker_0, # of connection points: 2
#     Edge 34, Type (0, 0), BuildingBlock: OJICUG_clean_linker_0, # of connection points: 2
#     Edge 35, Type (0, 0), BuildingBlock: OJICUG_clean_linker_0, # of connection points: 2
#     Edge 36, Type (0, 0), BuildingBlock: OJICUG_clean_linker_0, # of connection points: 2
#     Edge 37, Type (0, 0), BuildingBlock: OJICUG_clean_linker_0, # of connection points: 2
#     Edge 38, Type (0, 0), BuildingBlock: OJICUG_clean_linker_0, # of connection points: 2
#     Edge 39, Type (0, 0), BuildingBlock: OJICUG_clean_linker_0, # of connection points: 2
#     Edge 40, Type (0, 0), BuildingBlock: OJICUG_clean_linker_0, # of connection points: 2
#     Edge 41, Type (0, 0), BuildingBlock: OJICUG_clean_linker_0, # of connection points: 2
#     Edge 42, Type (0, 0), BuildingBlock: OJICUG_clean_linker_0, # of connection points: 2
#     Edge 43, Type (0, 0), BuildingBlock: OJICUG_clean_linker_0, # of connection points: 2
#     Edge 44, Type (0, 0), BuildingBlock: OJICUG_clean_linker_0, # of connection points: 2
#     Edge 45, Type (0, 0), BuildingBlock: OJICUG_clean_linker_0, # of connection points: 2
#     Edge 46, Type (0, 0), BuildingBlock: OJICUG_clean_linker_0, # of connection points: 2
#     Edge 47, Type (0, 0), BuildingBlock: OJICUG_clean_linker_0, # of connection points: 2
#     Edge 48, Type (0, 0), BuildingBlock: OJICUG_clean_linker_0, # of connection points: 2
#     Edge 49, Type (0, 0), BuildingBlock: OJICUG_clean_linker_0, # of connection points: 2
#     Edge 50, Type (0, 0), BuildingBlock: OJICUG_clean_linker_0, # of connection points: 2
#     Edge 51, Type (0, 0), BuildingBlock: OJICUG_clean_linker_0, # of connection points: 2
#     Edge 52, Type (0, 0), BuildingBlock: OJICUG_clean_linker_0, # of connection points: 2
#     Edge 53, Type (0, 0), BuildingBlock: OJICUG_clean_linker_0, # of connection points: 2
#     Edge 54, Type (0, 0), BuildingBlock: OJICUG_clean_linker_0, # of connection points: 2
#     Edge 55, Type (0, 0), BuildingBlock: OJICUG_clean_linker_0, # of connection points: 2
#     Edge 56, Type (0, 0), BuildingBlock: OJICUG_clean_linker_0, # of connection points: 2
#     Edge 57, Type (0, 0), BuildingBlock: OJICUG_clean_linker_0, # of connection points: 2
#     Edge 58, Type (0, 0), BuildingBlock: OJICUG_clean_linker_0, # of connection points: 2
#     Edge 59, Type (0, 0), BuildingBlock: OJICUG_clean_linker_0, # of connection points: 2
#     Edge 60, Type (0, 0), BuildingBlock: OJICUG_clean_linker_0, # of connection points: 2
#     Edge 61, Type (0, 0), BuildingBlock: OJICUG_clean_linker_0, # of connection points: 2
#     Edge 62, Type (0, 0), BuildingBlock: OJICUG_clean_linker_0, # of connection points: 2
#     Edge 63, Type (0, 0), BuildingBlock: OJICUG_clean_linker_0, # of connection points: 2
#     Edge 64, Type (0, 0), BuildingBlock: OJICUG_clean_linker_0, # of connection points: 2
#     Edge 65, Type (0, 0), BuildingBlock: OJICUG_clean_linker_0, # of connection points: 2
#     Edge 66, Type (0, 0), BuildingBlock: OJICUG_clean_linker_0, # of connection points: 2
#     Edge 67, Type (0, 0), BuildingBlock: OJICUG_clean_linker_0, # of connection points: 2
#     Edge 68, Type (0, 0), BuildingBlock: OJICUG_clean_linker_0, # of connection points: 2
#     Edge 69, Type (0, 0), BuildingBlock: OJICUG_clean_linker_0, # of connection points: 2
#     Edge 70, Type (0, 0), BuildingBlock: OJICUG_clean_linker_0, # of connection points: 2
#     Edge 71, Type (0, 0), BuildingBlock: OJICUG_clean_linker_0, # of connection points: 2
# Relax obj value: 0.377
# Max RMSD: 0.303
# Mean RMSD: 0.288
data_MOF--net-unw--node1-CEKHIL_clean_sbu_0--edge1-OJICUG_clean_linker_0
_symmetry_space_group_name_H-M    P1
_symmetry_Int_Tables_number       1
_symmetry_cell_setting            triclinic
loop_
_symmetry_equiv_pos_as_xyz
'x, y, z'
_cell_length_a     32.359972
_cell_length_b     33.051387
_cell_length_c     32.689903
_cell_angle_alpha  90.039862
_cell_angle_beta   90.270384
_cell_angle_gamma 90.379253
loop_
_atom_site_label
_atom_site_type_symbol
_atom_site_fract_x
_atom_site_fract_y
_atom_site_fract_z
_atom_type_partial_charge
Co0 Co 0.1236 0.39495 0.20667 0.0
O1 O 0.11744 0.44221 0.17321 0.0
O2 O 0.16998 0.43191 0.21535 0.0
C3 C 0.05955 0.38681 0.23164 0.0
O4 O 0.13857 0.34817 0.24494 0.0
Co5 Co 0.07652 0.31889 0.17414 0.0
O6 O 0.10006 0.29452 0.22427 0.0
C7 C 0.15747 0.33823 0.1408 0.0
C8 C 0.15348 0.45381 0.18644 0.0
C9 C 0.12625 0.31097 0.24843 0.0
O10 O 0.1583 0.36939 0.16383 0.0
O11 O 0.12599 0.31483 0.13772 0.0
O12 O 0.08418 0.41417 0.24711 0.0
O13 O 0.071 0.37291 0.19645 0.0
Co14 Co 0.62346 0.10993 0.27839 0.0
O15 O 0.62518 0.06853 0.3192 0.0
O16 O 0.65817 0.06535 0.26022 0.0
C17 C 0.55601 0.12588 0.27542 0.0
O18 O 0.62708 0.14986 0.2305 0.0
Co19 Co 0.60608 0.19277 0.31794 0.0
O20 O 0.60299 0.20731 0.25943 0.0
C21 C 0.68839 0.16173 0.32474 0.0
C22 C 0.65192 0.05012 0.29653 0.0
C23 C 0.61453 0.18691 0.22838 0.0
O24 O 0.67552 0.13354 0.30126 0.0
O25 O 0.66428 0.18842 0.3395 0.0
O26 O 0.5694 0.09268 0.25881 0.0
O27 O 0.58129 0.14096 0.30255 0.0
Co28 Co 0.86185 0.56886 0.25534 0.0
O29 O 0.86546 0.51916 0.22652 0.0
O30 O 0.81353 0.53604 0.26705 0.0
C31 C 0.92671 0.57443 0.27844 0.0
O32 O 0.85016 0.61939 0.28912 0.0
Co33 Co 0.9116 0.63846 0.21489 0.0
O34 O 0.88916 0.66931 0.26166 0.0
C35 C 0.83064 0.61884 0.18203 0.0
C36 C 0.82857 0.51137 0.23975 0.0
C37 C 0.86354 0.65632 0.28815 0.0
O38 O 0.82807 0.59219 0.21008 0.0
O39 O 0.86348 0.63964 0.17588 0.0
O40 O 0.90065 0.55081 0.29718 0.0
O41 O 0.91493 0.58656 0.24259 0.0
Co42 Co 0.36493 0.85936 0.28714 0.0
O43 O 0.42384 0.86355 0.28073 0.0
O44 O 0.39161 0.8108 0.30757 0.0
C45 C 0.34778 0.92112 0.31021 0.0
O46 O 0.3047 0.84528 0.29801 0.0
Co47 Co 0.31171 0.9082 0.22616 0.0
O48 O 0.266 0.8892 0.26181 0.0
C49 C 0.35101 0.83546 0.19681 0.0
C50 C 0.42564 0.82603 0.29271 0.0
C51 C 0.26963 0.861 0.28817 0.0
O52 O 0.36232 0.83048 0.23381 0.0
O53 O 0.33121 0.86679 0.18508 0.0
O54 O 0.36394 0.89464 0.33504 0.0
O55 O 0.35107 0.91228 0.27167 0.0
Co56 Co 0.13911 0.62699 0.78417 0.0
O57 O 0.14001 0.58515 0.82468 0.0
O58 O 0.17399 0.58252 0.76621 0.0
C59 C 0.07139 0.64201 0.78005 0.0
O60 O 0.14315 0.66686 0.73641 0.0
Co61 Co 0.11857 0.71024 0.8218 0.0
O62 O 0.11509 0.72364 0.7629 0.0
C63 C 0.20095 0.67926 0.8336 0.0
C64 C 0.16643 0.56647 0.8019 0.0
C65 C 0.12842 0.703 0.73275 0.0
O66 O 0.19065 0.65112 0.80872 0.0
O67 O 0.17512 0.70509 0.84708 0.0
O68 O 0.08565 0.60943 0.76299 0.0
O69 O 0.09607 0.65737 0.80751 0.0
Co70 Co 0.36924 0.08771 0.71677 0.0
O71 O 0.37992 0.04006 0.68633 0.0
O72 O 0.32947 0.0465 0.73171 0.0
C73 C 0.43305 0.10587 0.73547 0.0
O74 O 0.35174 0.13472 0.75282 0.0
Co75 Co 0.40039 0.16441 0.67215 0.0
O76 O 0.37895 0.19018 0.72242 0.0
C77 C 0.32333 0.12877 0.64538 0.0
C78 C 0.34668 0.02539 0.70268 0.0
C79 C 0.3593 0.17313 0.75149 0.0
O80 O 0.32706 0.10466 0.6755 0.0
O81 O 0.35184 0.15364 0.63507 0.0
O82 O 0.41415 0.07678 0.75476 0.0
O83 O 0.4168 0.11529 0.70043 0.0
Co84 Co 0.86326 0.4041 0.73719 0.0
O85 O 0.92276 0.40961 0.73479 0.0
O86 O 0.88889 0.3518 0.7428 0.0
C87 C 0.84317 0.45474 0.77716 0.0
O88 O 0.80287 0.38514 0.74211 0.0
Co89 Co 0.80736 0.46104 0.69169 0.0
O90 O 0.76184 0.43597 0.72211 0.0
C91 C 0.83286 0.38651 0.65696 0.0
C92 C 0.9237 0.3701 0.73546 0.0
C93 C 0.76696 0.40161 0.73862 0.0
O94 O 0.86444 0.39771 0.67681 0.0
O95 O 0.80224 0.41048 0.65582 0.0
O96 O 0.85939 0.42222 0.79328 0.0
O97 O 0.84794 0.45904 0.73775 0.0
Co98 Co 0.65298 0.92913 0.77429 0.0
O99 O 0.65699 0.9815 0.74955 0.0
O100 O 0.70451 0.95563 0.79054 0.0
C101 C 0.58658 0.92746 0.79477 0.0
O102 O 0.65772 0.87501 0.80377 0.0
Co103 Co 0.59759 0.86836 0.72601 0.0
O104 O 0.61409 0.83182 0.77129 0.0
C105 C 0.67976 0.88536 0.69564 0.0
C106 C 0.69428 0.98361 0.76431 0.0
C107 C 0.64015 0.83999 0.79954 0.0
O108 O 0.68533 0.90628 0.72799 0.0
O109 O 0.64471 0.8698 0.68615 0.0
O110 O 0.61415 0.94712 0.81629 0.0
O111 O 0.59853 0.91774 0.75836 0.0
Co112 Co 0.23615 0.11737 0.38353 0.0
O113 O 0.25939 0.06803 0.40447 0.0
O114 O 0.21982 0.07185 0.3493 0.0
C115 C 0.21355 0.14774 0.44073 0.0
O116 O 0.20834 0.16481 0.35428 0.0
Co117 Co 0.28758 0.19322 0.40518 0.0
O118 O 0.23915 0.22049 0.3809 0.0
C119 C 0.31448 0.14408 0.33704 0.0
C120 C 0.24463 0.05034 0.37203 0.0
C121 C 0.21174 0.20368 0.35836 0.0
O122 O 0.28317 0.12221 0.34511 0.0
O123 O 0.32464 0.17456 0.35912 0.0
O124 O 0.19269 0.11817 0.42409 0.0
O125 O 0.25138 0.15123 0.42774 0.0
Co126 Co 0.90826 0.26216 0.37256 0.0
O127 O 0.92924 0.24008 0.42297 0.0
O128 O 0.8708 0.27413 0.41652 0.0
C129 C 0.96522 0.29016 0.346 0.0
O130 O 0.87703 0.28862 0.32496 0.0
Co131 Co 0.93637 0.2222 0.29217 0.0
O132 O 0.90611 0.26707 0.26646 0.0
C133 C 0.86314 0.19129 0.3339 0.0
C134 C 0.89464 0.25164 0.43917 0.0
C135 C 0.88052 0.28908 0.28558 0.0
O136 O 0.87518 0.21182 0.36472 0.0
O137 O 0.88359 0.19023 0.30055 0.0
O138 O 0.94516 0.30851 0.37491 0.0
O139 O 0.95508 0.25244 0.34019 0.0
Co140 Co 0.76304 0.86622 0.39975 0.0
O141 O 0.74152 0.91867 0.41199 0.0
O142 O 0.77714 0.90401 0.35636 0.0
C143 C 0.78918 0.84784 0.46082 0.0
O144 O 0.78886 0.81425 0.37837 0.0
Co145 Co 0.71507 0.79521 0.439 0.0
O146 O 0.76102 0.76362 0.41573 0.0
C147 C 0.68162 0.83105 0.3649 0.0
C148 C 0.75409 0.92972 0.37599 0.0
C149 C 0.78621 0.77662 0.38885 0.0
O150 O 0.71289 0.85451 0.36639 0.0
O151 O 0.67445 0.8047 0.3927 0.0
O152 O 0.80931 0.87279 0.43728 0.0
O153 O 0.75081 0.84182 0.45039 0.0
Co154 Co 0.10592 0.69341 0.38157 0.0
O155 O 0.10411 0.71419 0.43591 0.0
O156 O 0.15722 0.68148 0.40919 0.0
C157 C 0.04334 0.66528 0.37561 0.0
O158 O 0.11813 0.66866 0.32639 0.0
Co159 Co 0.04896 0.73504 0.31799 0.0
O160 O 0.07598 0.69706 0.27958 0.0
C161 C 0.12482 0.7759 0.34114 0.0
C162 C 0.14273 0.70381 0.43858 0.0
C163 C 0.10472 0.67275 0.2895 0.0
O164 O 0.13283 0.74478 0.36289 0.0
O165 O 0.09055 0.7802 0.32209 0.0
O166 O 0.07236 0.64628 0.3954 0.0
O167 O 0.05089 0.70304 0.36797 0.0
Co168 Co 0.24477 0.8569 0.58392 0.0
O169 O 0.22227 0.85365 0.53036 0.0
O170 O 0.26532 0.80882 0.5573 0.0
C171 C 0.263 0.9215 0.58859 0.0
O172 O 0.27386 0.85267 0.63898 0.0
Co173 Co 0.19294 0.90605 0.64547 0.0
O174 O 0.24038 0.89446 0.68216 0.0
C175 C 0.16573 0.82505 0.62509 0.0
C176 C 0.24031 0.81877 0.52763 0.0
C177 C 0.26997 0.87056 0.67385 0.0
O178 O 0.19903 0.82183 0.60468 0.0
O179 O 0.15447 0.85838 0.64132 0.0
O180 O 0.28562 0.89661 0.56757 0.0
O181 O 0.22573 0.90888 0.59583 0.0
Co182 Co 0.10753 0.26257 0.61382 0.0
O183 O 0.06685 0.30455 0.61412 0.0
O184 O 0.06127 0.24781 0.64936 0.0
C185 C 0.12252 0.25701 0.54658 0.0
O186 O 0.1468 0.21426 0.61904 0.0
Co187 Co 0.19346 0.29836 0.59327 0.0
O188 O 0.20556 0.23984 0.59157 0.0
C189 C 0.1634 0.30883 0.67538 0.0
C190 C 0.04715 0.28395 0.6416 0.0
C191 C 0.18403 0.21034 0.6052 0.0
O192 O 0.13315 0.28654 0.66409 0.0
O193 O 0.19099 0.32129 0.65042 0.0
O194 O 0.08871 0.24139 0.5613 0.0
O195 O 0.13957 0.28367 0.5707 0.0
Co196 Co 0.80158 0.13618 0.63203 0.0
O197 O 0.85065 0.13982 0.59889 0.0
O198 O 0.78737 0.15534 0.57821 0.0
C199 C 0.8073 0.0757 0.66308 0.0
O200 O 0.74451 0.13622 0.65775 0.0
Co201 Co 0.81458 0.1414 0.72573 0.0
O202 O 0.75492 0.12783 0.72545 0.0
C203 C 0.81987 0.21532 0.67844 0.0
C204 C 0.82688 0.15545 0.57092 0.0
C205 C 0.7312 0.12974 0.69425 0.0
O206 O 0.80906 0.19443 0.64736 0.0
O207 O 0.82727 0.19991 0.71354 0.0
O208 O 0.79661 0.07803 0.62469 0.0
O209 O 0.82437 0.10852 0.67733 0.0
Co210 Co 0.89638 0.75029 0.65055 0.0
O211 O 0.94351 0.71593 0.64846 0.0
O212 O 0.93821 0.76816 0.69025 0.0
C213 C 0.88282 0.75912 0.58335 0.0
O214 O 0.84947 0.79079 0.65828 0.0
Co215 Co 0.81781 0.70405 0.62277 0.0
O216 O 0.79607 0.75986 0.62574 0.0
C217 C 0.84833 0.68941 0.70441 0.0
C218 C 0.95838 0.73576 0.67943 0.0
C219 C 0.81239 0.79067 0.64314 0.0
O220 O 0.87418 0.71758 0.69687 0.0
O221 O 0.82359 0.67549 0.67712 0.0
O222 O 0.91254 0.7793 0.60117 0.0
O223 O 0.86955 0.72844 0.60445 0.0
Co224 Co 0.39699 0.23197 0.12938 0.0
O225 O 0.45055 0.20863 0.13034 0.0
O226 O 0.428 0.25096 0.17738 0.0
C227 C 0.38976 0.24817 0.06309 0.0
O228 O 0.34107 0.26011 0.13437 0.0
Co229 Co 0.33697 0.17252 0.08791 0.0
O230 O 0.30028 0.21938 0.09565 0.0
C231 C 0.35904 0.15543 0.1704 0.0
C232 C 0.45564 0.22447 0.16629 0.0
C233 C 0.30649 0.25184 0.11592 0.0
O234 O 0.37776 0.18912 0.16723 0.0
O235 O 0.3403 0.1394 0.13994 0.0
O236 O 0.4123 0.27057 0.08738 0.0
O237 O 0.38132 0.21237 0.07771 0.0
Co238 Co 0.39358 0.81366 0.89276 0.0
O239 O 0.40144 0.79494 0.94759 0.0
O240 O 0.34538 0.82597 0.92504 0.0
C241 C 0.45561 0.84164 0.87952 0.0
O242 O 0.37479 0.83575 0.83793 0.0
Co243 Co 0.44224 0.76813 0.82597 0.0
O244 O 0.41432 0.80711 0.78943 0.0
C245 C 0.36715 0.73084 0.85665 0.0
C246 C 0.36286 0.80421 0.95342 0.0
C247 C 0.38556 0.83086 0.80037 0.0
O248 O 0.36466 0.76186 0.87965 0.0
O249 O 0.39726 0.72563 0.83203 0.0
O250 O 0.42856 0.86135 0.90103 0.0
O251 O 0.44711 0.80363 0.87367 0.0
Co252 Co 0.26434 0.36713 0.89174 0.0
O253 O 0.24355 0.4189 0.9085 0.0
O254 O 0.278 0.40776 0.85126 0.0
C255 C 0.29236 0.34416 0.95017 0.0
O256 O 0.28999 0.31764 0.86476 0.0
Co257 Co 0.22158 0.29045 0.92504 0.0
O258 O 0.26806 0.2625 0.899 0.0
C259 C 0.19298 0.3266 0.84849 0.0
C260 C 0.25612 0.43243 0.87328 0.0
C261 C 0.29049 0.27923 0.87193 0.0
O262 O 0.21257 0.35828 0.85968 0.0
O263 O 0.19148 0.29481 0.87073 0.0
O264 O 0.31167 0.37086 0.92799 0.0
O265 O 0.25364 0.33839 0.94068 0.0
Co266 Co 0.58987 0.24432 0.84079 0.0
O267 O 0.58448 0.27905 0.88737 0.0
O268 O 0.63535 0.23533 0.87828 0.0
C269 C 0.52574 0.22021 0.8331 0.0
O270 O 0.60468 0.20414 0.79639 0.0
Co271 Co 0.54543 0.26975 0.76049 0.0
O272 O 0.56843 0.21848 0.73911 0.0
C273 C 0.6217 0.31087 0.78338 0.0
C274 C 0.61963 0.26455 0.89978 0.0
C275 C 0.59359 0.19656 0.75921 0.0
O276 O 0.62485 0.28625 0.81338 0.0
O277 O 0.59004 0.31212 0.75989 0.0
O278 O 0.54964 0.20577 0.86165 0.0
O279 O 0.53805 0.25413 0.81732 0.0
Co280 Co 0.72496 0.61828 0.90153 0.0
O281 O 0.7465 0.56452 0.90929 0.0
O282 O 0.71132 0.58452 0.85486 0.0
C283 C 0.69792 0.6321 0.96328 0.0
O284 O 0.69952 0.67191 0.88365 0.0
Co285 Co 0.77274 0.68582 0.9471 0.0
O286 O 0.72833 0.71974 0.92419 0.0
C287 C 0.80621 0.65673 0.8705 0.0
C288 C 0.7344 0.55708 0.87203 0.0
C289 C 0.70301 0.70887 0.89627 0.0
O290 O 0.77551 0.63252 0.87039 0.0
O291 O 0.81285 0.68159 0.89986 0.0
O292 O 0.67816 0.6089 0.93749 0.0
O293 O 0.7365 0.63874 0.95426 0.0
Co294 Co 0.59318 0.72584 0.15512 0.0
O295 O 0.54002 0.75098 0.1572 0.0
O296 O 0.56068 0.70399 0.20048 0.0
C297 C 0.60122 0.71423 0.08767 0.0
O298 O 0.64801 0.69544 0.1596 0.0
Co299 Co 0.65707 0.78432 0.11753 0.0
O300 O 0.69158 0.73546 0.12359 0.0
C301 C 0.63287 0.7989 0.20048 0.0
C302 C 0.53379 0.7319 0.19128 0.0
C303 C 0.68341 0.70271 0.14261 0.0
O304 O 0.61345 0.76556 0.19652 0.0
O305 O 0.65151 0.81556 0.17042 0.0
O306 O 0.57768 0.69067 0.10957 0.0
O307 O 0.61018 0.7485 0.10528 0.0
Co308 Co 0.25569 0.63834 0.083 0.0
O309 O 0.28571 0.64285 0.03299 0.0
O310 O 0.23542 0.68396 0.05189 0.0
C311 C 0.24272 0.572 0.08853 0.0
O312 O 0.21915 0.64195 0.13309 0.0
Co313 Co 0.30416 0.59821 0.15332 0.0
O314 O 0.25008 0.60344 0.18112 0.0
C315 C 0.32627 0.67991 0.13148 0.0
C316 C 0.26657 0.67699 0.02779 0.0
C317 C 0.21975 0.62451 0.16835 0.0
O318 O 0.29494 0.678 0.10792 0.0
O319 O 0.33877 0.64928 0.15185 0.0
O320 O 0.22107 0.5941 0.0634 0.0
O321 O 0.27721 0.58861 0.10051 0.0
Co322 Co 0.71603 0.36616 0.09689 0.0
O323 O 0.68593 0.37645 0.04775 0.0
O324 O 0.73384 0.32928 0.05429 0.0
C325 C 0.73265 0.42844 0.11745 0.0
O326 O 0.75257 0.34886 0.14495 0.0
Co327 Co 0.6719 0.39448 0.17598 0.0
O328 O 0.72431 0.3765 0.20155 0.0
C329 C 0.64483 0.3199 0.13687 0.0
C330 C 0.70492 0.34577 0.03203 0.0
C331 C 0.75276 0.35663 0.18377 0.0
O332 O 0.67516 0.32351 0.1124 0.0
O333 O 0.63482 0.34753 0.16231 0.0
O334 O 0.75299 0.41163 0.08776 0.0
O335 O 0.69737 0.41166 0.12541 0.0
C336 C 0.24172 0.51857 0.14426 0.0
C337 C 0.22162 0.53954 0.11245 0.0
H338 H 0.23594 0.47563 0.19346 0.0
C339 C 0.17904 0.53288 0.10663 0.0
H340 H 0.27441 0.52325 0.14986 0.0
C341 C 0.15702 0.50655 0.13195 0.0
C342 C 0.17683 0.48558 0.16379 0.0
H343 H 0.16223 0.54868 0.08284 0.0
H344 H 0.12431 0.50229 0.12609 0.0
C345 C 0.21955 0.49183 0.16968 0.0
C346 C 0.50869 0.18716 0.26493 0.0
C347 C 0.52719 0.15133 0.25056 0.0
H348 H 0.47092 0.23891 0.24982 0.0
C349 C 0.52252 0.14155 0.20895 0.0
H350 H 0.51206 0.19585 0.29671 0.0
C351 C 0.50164 0.16689 0.18221 0.0
C352 C 0.48271 0.20252 0.19593 0.0
H353 H 0.53652 0.11474 0.19612 0.0
H354 H 0.49982 0.15768 0.15045 0.0
C355 C 0.48584 0.21217 0.23796 0.0
C356 C 0.79876 0.44346 0.15316 0.0
C357 C 0.75602 0.4499 0.14988 0.0
H358 H 0.85439 0.45495 0.18625 0.0
C359 C 0.73608 0.47219 0.18058 0.0
H360 H 0.81496 0.42515 0.13098 0.0
C361 C 0.75908 0.48972 0.21263 0.0
C362 C 0.80214 0.48433 0.21479 0.0
H363 H 0.70297 0.47667 0.17933 0.0
H364 H 0.74353 0.50901 0.23439 0.0
C365 C 0.82131 0.45982 0.18549 0.0
C366 C 0.51561 0.79488 0.22789 0.0
C367 C 0.50932 0.75297 0.22328 0.0
H368 H 0.49614 0.85016 0.25513 0.0
C369 C 0.47991 0.73379 0.24826 0.0
H370 H 0.53875 0.81054 0.2099 0.0
C371 C 0.45477 0.757 0.27454 0.0
C372 C 0.45918 0.79959 0.27656 0.0
H373 H 0.47472 0.70148 0.24576 0.0
H374 H 0.43006 0.74198 0.29095 0.0
C375 C 0.49139 0.81769 0.25437 0.0
C376 C 0.20967 0.49211 0.87881 0.0
C377 C 0.23777 0.46966 0.85554 0.0
H378 H 0.16481 0.53902 0.88001 0.0
C379 C 0.24281 0.4796 0.81391 0.0
H380 H 0.20466 0.48522 0.91081 0.0
C381 C 0.21958 0.51081 0.79594 0.0
C382 C 0.19055 0.53229 0.81915 0.0
H383 H 0.26379 0.46253 0.79493 0.0
H384 H 0.22399 0.51776 0.76388 0.0
C385 C 0.18632 0.52275 0.86088 0.0
C386 C 0.49228 0.1525 0.82364 0.0
C387 C 0.49853 0.19229 0.80981 0.0
H388 H 0.46737 0.09377 0.81062 0.0
C389 C 0.4842 0.20289 0.77064 0.0
H390 H 0.50312 0.1432 0.85357 0.0
C391 C 0.46643 0.17379 0.74491 0.0
C392 C 0.45944 0.13427 0.759 0.0
H393 H 0.48802 0.23331 0.75908 0.0
H394 H 0.45713 0.1827 0.71442 0.0
C395 C 0.47256 0.12394 0.79868 0.0
C396 C 0.75893 0.5303 0.80434 0.0
C397 C 0.75654 0.52628 0.84716 0.0
H398 H 0.78932 0.51257 0.74899 0.0
C399 C 0.78207 0.49765 0.86639 0.0
H400 H 0.7403 0.55249 0.78849 0.0
C401 C 0.81005 0.47458 0.84366 0.0
C402 C 0.81384 0.47997 0.80113 0.0
H403 H 0.78142 0.49397 0.8993 0.0
H404 H 0.82936 0.45305 0.85963 0.0
C405 C 0.78759 0.50786 0.78171 0.0
C406 C 0.53206 0.87298 0.79757 0.0
C407 C 0.55059 0.90764 0.81487 0.0
H408 H 0.49019 0.82324 0.80564 0.0
C409 C 0.53732 0.92048 0.85364 0.0
H410 H 0.54091 0.86246 0.76758 0.0
C411 C 0.50646 0.89901 0.87461 0.0
C412 C 0.48938 0.86334 0.85802 0.0
H413 H 0.55094 0.94702 0.8679 0.0
H414 H 0.49648 0.90992 0.9042 0.0
C415 C 0.50277 0.85042 0.81941 0.0
C416 C 0.18621 0.24303 0.50254 0.0
C417 C 0.14538 0.23377 0.51454 0.0
H418 H 0.24056 0.22301 0.47028 0.0
C419 C 0.12747 0.19765 0.4999 0.0
H420 H 0.201 0.27065 0.51304 0.0
C421 C 0.15008 0.17042 0.47656 0.0
C422 C 0.19143 0.17829 0.46616 0.0
H423 H 0.09612 0.18927 0.50789 0.0
H424 H 0.13492 0.1426 0.46713 0.0
C425 C 0.20904 0.21555 0.47844 0.0
C426 C 0.88718 0.18001 0.52939 0.0
C427 C 0.84439 0.17933 0.53663 0.0
H428 H 0.93687 0.20415 0.49353 0.0
C429 C 0.81892 0.20524 0.51372 0.0
H430 H 0.90776 0.16093 0.54695 0.0
C431 C 0.83572 0.23081 0.48394 0.0
C432 C 0.87838 0.23083 0.47599 0.0
H433 H 0.78591 0.20606 0.51899 0.0
H434 H 0.81498 0.24955 0.46618 0.0
C435 C 0.90395 0.20528 0.49923 0.0
C436 C 0.79602 0.7878 0.50897 0.0
C437 C 0.81181 0.824 0.49234 0.0
H438 H 0.80682 0.73729 0.54917 0.0
C439 C 0.85184 0.83642 0.50376 0.0
H440 H 0.76553 0.77704 0.50037 0.0
C441 C 0.87513 0.81407 0.53167 0.0
C442 C 0.8594 0.7783 0.54907 0.0
H443 H 0.86528 0.86386 0.49135 0.0
H444 H 0.90541 0.82548 0.54023 0.0
C445 C 0.81983 0.76487 0.53668 0.0
C446 C 0.1648 0.77287 0.45489 0.0
C447 C 0.17086 0.73131 0.46064 0.0
H448 H 0.18443 0.83276 0.46825 0.0
C449 C 0.2049 0.71817 0.48372 0.0
H450 H 0.13962 0.78392 0.4361 0.0
C451 C 0.23039 0.74674 0.50366 0.0
C452 C 0.22286 0.78849 0.49911 0.0
H453 H 0.21069 0.68616 0.4876 0.0
H454 H 0.25459 0.73622 0.52395 0.0
C455 C 0.19101 0.80099 0.4729 0.0
C456 C 0.76116 0.02461 0.75785 0.0
C457 C 0.72608 0.00592 0.7404 0.0
H458 H 0.81516 0.06178 0.74701 0.0
C459 C 0.72193 0.00584 0.69762 0.0
H460 H 0.76569 0.0243 0.79069 0.0
C461 C 0.75065 0.02537 0.67286 0.0
C462 C 0.78411 0.04693 0.68994 0.0
H463 H 0.69616 0.99045 0.68294 0.0
H464 H 0.74511 0.02527 0.64017 0.0
C465 C 0.78974 0.04547 0.7328 0.0
C466 C -0.00221 0.72675 0.74654 0.0
C467 C 0.99032 0.71585 0.70542 0.0
H468 H 0.02913 0.71187 0.80307 0.0
C469 C 0.00888 0.68059 0.69038 0.0
H470 H 0.98339 0.75335 0.75936 0.0
C471 C 0.03306 0.65627 0.71551 0.0
C472 C 0.04082 0.6667 0.75657 0.0
H473 H 0.00389 0.67091 0.65907 0.0
H474 H 0.04654 0.6295 0.70205 0.0
C475 C 0.02322 0.70257 0.77181 0.0
C476 C 0.28105 0.99658 0.67463 0.0
C477 C 0.32412 0.99408 0.67959 0.0
H478 H 0.22783 0.97686 0.64035 0.0
C479 C 0.34662 0.96858 0.65378 0.0
H480 H 0.26312 0.01703 0.69329 0.0
C481 C 0.32684 0.94691 0.62283 0.0
C482 C 0.28385 0.94972 0.61719 0.0
H483 H 0.37994 0.96664 0.65648 0.0
H484 H 0.34537 0.92738 0.60375 0.0
C485 C 0.26106 0.97462 0.64356 0.0
C486 C 0.98734 0.28343 0.69183 0.0
C487 C 0.016 0.30463 0.66765 0.0
H488 H 0.93557 0.28748 0.73267 0.0
C489 C 0.01662 0.34721 0.66987 0.0
H490 H 0.98636 0.25067 0.69125 0.0
C491 C 0.98875 0.36816 0.6945 0.0
C492 C 0.95874 0.3473 0.71723 0.0
H493 H 0.03882 0.36467 0.65241 0.0
H494 H 0.98961 0.40092 0.69418 0.0
C495 C 0.95864 0.30457 0.71597 0.0
C496 C 0.73472 0.96928 0.31235 0.0
C497 C 0.73329 0.96411 0.35515 0.0
H498 H 0.70986 0.00029 0.25973 0.0
C499 C 0.70554 0.98774 0.37764 0.0
H500 H 0.75527 0.9511 0.29398 0.0
C501 C 0.67883 0.01447 0.35808 0.0
C502 C 0.6793 0.01915 0.31532 0.0
H503 H 0.70328 0.9846 0.41054 0.0
H504 H 0.65779 0.03168 0.37687 0.0
C505 C 0.70819 0.99687 0.29263 0.0
C506 C 0.97362 0.58 0.33933 0.0
C507 C 0.95932 0.59557 0.30187 0.0
H508 H 0.01223 0.58985 0.39209 0.0
C509 C 0.97226 0.63421 0.2897 0.0
H510 H 0.96398 0.55025 0.34957 0.0
C511 C 0.99641 0.65802 0.31556 0.0
C512 C 0.01184 0.64232 0.35238 0.0
H513 H 0.9627 0.64686 0.26075 0.0
H514 H 0.00363 0.68842 0.30592 0.0
C515 C 0.00056 0.60285 0.36394 0.0
C516 C 0.31564 0.95973 0.36805 0.0
C517 C 0.31982 0.95338 0.32571 0.0
H518 H 0.28785 0.99446 0.41588 0.0
C519 C 0.29537 0.97656 0.29892 0.0
H520 H 0.33357 0.9422 0.38968 0.0
C521 C 0.26819 0.00595 0.3141 0.0
C522 C 0.26518 0.01322 0.35643 0.0
H523 H 0.29748 0.97229 0.26616 0.0
H524 H 0.25108 0.02432 0.29254 0.0
C525 C 0.28892 0.98936 0.38316 0.0
C526 C 0.02412 0.37767 0.29887 0.0
C527 C 0.03134 0.36379 0.25891 0.0
H528 H -0.00196 0.36516 0.35758 0.0
C529 C 0.01629 0.32529 0.24771 0.0
H530 H 0.03528 0.40712 0.30863 0.0
C531 C 0.99681 0.30031 0.27649 0.0
C532 C 0.98986 0.31419 0.31648 0.0
H533 H 0.02082 0.31374 0.2171 0.0
H534 H 0.98678 0.2704 0.26719 0.0
C535 C 0.00327 0.35336 0.32713 0.0
C536 C 0.6872 0.69194 0.01094 0.0
C537 C 0.67462 0.65392 0.9957 0.0
H538 H 0.67227 0.74286 0.04904 0.0
C539 C 0.63658 0.63796 0.00881 0.0
H540 H 0.71612 0.70536 0.00128 0.0
C541 C 0.61231 0.65864 0.03713 0.0
C542 C 0.62474 0.6965 0.05277 0.0
H543 H 0.62561 0.609 0.99744 0.0
H544 H 0.58386 0.6445 0.04728 0.0
C545 C 0.66199 0.71347 0.03837 0.0
C546 C 0.27005 0.74623 0.99439 0.0
C547 C 0.28959 0.71126 0.00919 0.0
H548 H 0.27803 0.80412 0.9652 0.0
C549 C 0.33297 0.71099 0.01164 0.0
H550 H 0.23665 0.74786 0.99342 0.0
C551 C 0.35638 0.74371 0.99794 0.0
C552 C 0.33736 0.77739 0.97989 0.0
H553 H 0.34918 0.68543 0.02464 0.0
H554 H 0.38973 0.74131 -0.00071 0.0
C555 C 0.29376 0.77881 0.97921 0.0
C556 C 0.35525 0.33151 0.99217 0.0
C557 C 0.31631 0.31803 0.97864 0.0
H558 H 0.40889 0.31977 0.02823 0.0
C559 C 0.30319 0.27882 0.98972 0.0
H560 H 0.3667 0.36125 0.98383 0.0
C561 C 0.3286 0.25394 0.01406 0.0
C562 C 0.36655 0.26862 0.0295 0.0
H563 H 0.27361 0.26722 0.97936 0.0
H564 H 0.31786 0.22387 0.02177 0.0
C565 C 0.37977 0.30739 0.01734 0.0
C566 C 0.70017 0.28769 0.98201 0.0
C567 C 0.6877 0.32638 0.99477 0.0
H568 H 0.68814 0.2373 0.94185 0.0
C569 C 0.65371 0.34443 0.97526 0.0
H570 H 0.72599 0.27282 0.99672 0.0
C571 C 0.63153 0.3238 0.94514 0.0
C572 C 0.64306 0.28476 0.93304 0.0
H573 H 0.64316 0.37417 0.98421 0.0
H574 H 0.60526 0.33869 0.93124 0.0
C575 C 0.67818 0.26715 0.95107 0.0
C576 C 0.17213 0.29968 0.30928 0.0
C577 C 0.14448 0.28437 0.28 0.0
H578 H 0.21429 0.28638 0.3575 0.0
C579 C 0.13595 0.2424 0.27943 0.0
H580 H 0.17906 0.33175 0.31086 0.0
C581 C 0.15643 0.21611 0.30593 0.0
C582 C 0.18561 0.23122 0.33385 0.0
H583 H 0.1145 0.22943 0.25745 0.0
H584 H 0.15035 0.18392 0.30359 0.0
C585 C 0.19228 0.27345 0.33605 0.0
C586 C 0.80276 0.15429 0.3028 0.0
C587 C 0.82004 0.17598 0.33554 0.0
H588 H 0.74759 0.1326 0.27408 0.0
C589 C 0.79372 0.18956 0.36709 0.0
H590 H 0.82193 0.14359 0.27803 0.0
C591 C 0.75094 0.18448 0.36427 0.0
C592 C 0.73361 0.16463 0.3305 0.0
H593 H 0.80579 0.20645 0.39297 0.0
H594 H 0.73144 0.19682 0.388 0.0
C595 C 0.76005 0.14831 0.30055 0.0
C596 C 0.82072 0.67499 0.34885 0.0
C597 C 0.84734 0.68648 0.31722 0.0
H598 H 0.78116 0.69438 0.39681 0.0
C599 C 0.8569 0.72786 0.31196 0.0
H600 H 0.81305 0.64345 0.35397 0.0
C601 C 0.83843 0.75722 0.33628 0.0
C602 C 0.81028 0.74586 0.36664 0.0
H603 H 0.87761 0.7379 0.28804 0.0
H604 H 0.84528 0.78881 0.33042 0.0
C605 C 0.80254 0.70435 0.37344 0.0
C606 C 0.2337 0.81664 0.33865 0.0
C607 C 0.23145 0.84437 0.30636 0.0
H608 H 0.20172 0.77397 0.37556 0.0
C609 C 0.19245 0.85417 0.28991 0.0
H610 H 0.2631 0.80895 0.3525 0.0
C611 C 0.15684 0.83412 0.30328 0.0
C612 C 0.15962 0.80407 0.33345 0.0
H613 H 0.18958 0.87585 0.26525 0.0
H614 H 0.12766 0.84054 0.28836 0.0
C615 C 0.19822 0.79681 0.35212 0.0
C616 C 0.16057 0.71973 0.66562 0.0
C617 C 0.12809 0.72427 0.69324 0.0
H618 H 0.1973 0.74857 0.62009 0.0
C619 C 0.10032 0.75657 0.68798 0.0
H620 H 0.18194 0.69479 0.66854 0.0
C621 C 0.10951 0.78796 0.66112 0.0
C622 C 0.14614 0.78693 0.63862 0.0
H623 H 0.07411 0.76007 0.70811 0.0
H624 H 0.09039 0.81475 0.66135 0.0
C625 C 0.16933 0.75083 0.638 0.0
C626 C 0.27499 0.14754 0.58905 0.0
C627 C 0.28125 0.13431 0.62912 0.0
H628 H 0.23527 0.17926 0.54855 0.0
C629 C 0.2476 0.13382 0.65647 0.0
H630 H 0.3001 0.14749 0.56724 0.0
C631 C 0.21064 0.15311 0.64613 0.0
C632 C 0.20703 0.17221 0.60814 0.0
H633 H 0.25151 0.12323 0.6876 0.0
H634 H 0.18772 0.15791 0.66966 0.0
C635 C 0.23756 0.16529 0.57831 0.0
C636 C 0.86042 0.27662 0.66094 0.0
C637 C 0.82274 0.25912 0.67224 0.0
H638 H 0.89255 0.33097 0.6449 0.0
C639 C 0.78674 0.28264 0.67177 0.0
H640 H 0.8882 0.25854 0.65961 0.0
C641 C 0.78889 0.32402 0.66269 0.0
C642 C 0.82714 0.34223 0.65369 0.0
H643 H 0.75709 0.2691 0.67906 0.0
H644 H 0.76116 0.34203 0.66504 0.0
C645 C 0.8626 0.31777 0.65163 0.0
C646 C 0.74778 0.82683 0.62491 0.0
C647 C 0.78448 0.82541 0.64837 0.0
H648 H 0.6852 0.84706 0.62156 0.0
C649 C 0.78954 0.85236 0.68103 0.0
H650 H 0.74351 0.80739 0.5985 0.0
C651 C 0.75626 0.87602 0.69352 0.0
C652 C 0.71736 0.87233 0.67395 0.0
H653 H 0.81761 0.85245 0.69921 0.0
H654 H 0.76004 0.89402 0.72101 0.0
C655 C 0.7143 0.84969 0.6379 0.0
C656 C 0.36958 0.15687 0.2847 0.0
C657 C 0.33328 0.13704 0.29634 0.0
H658 H 0.40764 0.17563 0.23538 0.0
C659 C 0.3111 0.11446 0.26647 0.0
H660 H 0.38779 0.17376 0.30681 0.0
C661 C 0.32175 0.11641 0.22506 0.0
C662 C 0.35533 0.14026 0.21294 0.0
H663 H 0.28314 0.09808 0.27436 0.0
H664 H 0.30166 0.10235 0.20253 0.0
C665 C 0.38085 0.15777 0.24355 0.0
C666 C 0.85471 0.31195 0.21724 0.0
C667 C 0.85068 0.31179 0.2602 0.0
H668 H 0.82694 0.32577 0.1594 0.0
C669 C 0.81556 0.32918 0.27769 0.0
H670 H 0.8816 0.29913 0.20262 0.0
C671 C 0.78424 0.34449 0.25273 0.0
C672 C 0.78729 0.34256 0.20975 0.0
H673 H 0.81142 0.32952 0.31055 0.0
H674 H 0.75703 0.3567 0.26729 0.0
C675 C 0.82328 0.32698 0.1923 0.0
C676 C 0.61936 0.79193 0.27553 0.0
C677 C 0.6369 0.81438 0.243 0.0
H678 H 0.61941 0.77954 0.33985 0.0
C679 C 0.6617 0.84796 0.25245 0.0
H680 H 0.59912 0.76633 0.26965 0.0
C681 C 0.67226 0.85618 0.29316 0.0
C682 C 0.65908 0.83037 0.3252 0.0
H683 H 0.67501 0.86634 0.2284 0.0
H684 H 0.69358 0.88095 0.29901 0.0
C685 C 0.63062 0.7996 0.31612 0.0
C686 C 0.15235 0.65619 0.18637 0.0
C687 C 0.18511 0.63053 0.19669 0.0
H688 H 0.10028 0.6891 0.20773 0.0
C689 C 0.18632 0.61299 0.23589 0.0
H690 H 0.1501 0.66953 0.15619 0.0
C691 C 0.15789 0.62426 0.26549 0.0
C692 C 0.12756 0.65298 0.25632 0.0
H693 H 0.21057 0.59222 0.24457 0.0
H694 H 0.16119 0.61221 0.29614 0.0
C695 C 0.12366 0.66721 0.21593 0.0
C696 C 0.36863 0.83945 0.72642 0.0
C697 C 0.35966 0.84811 0.76761 0.0
H698 H 0.34704 0.83918 0.66454 0.0
C699 C 0.32259 0.86771 0.77708 0.0
H700 H 0.39715 0.82474 0.71791 0.0
C701 C 0.29386 0.87589 0.74635 0.0
C702 C 0.3016 0.86442 0.70566 0.0
H703 H 0.31477 0.87492 0.80842 0.0
H704 H 0.26491 0.88979 0.75483 0.0
C705 C 0.33976 0.8473 0.69579 0.0
C706 C 0.15567 0.29298 0.7899 0.0
C707 C 0.17896 0.32552 0.80522 0.0
H708 H 0.13225 0.26259 0.73693 0.0
C709 C 0.19463 0.35449 0.77735 0.0
H710 H 0.14343 0.27008 0.8103 0.0
C711 C 0.18937 0.34963 0.73517 0.0
C712 C 0.16733 0.31633 0.71989 0.0
H713 H 0.213 0.38 0.78788 0.0
H714 H 0.20303 0.37156 0.71456 0.0
C715 C 0.14953 0.2887 0.74775 0.0
C716 C 0.67261 0.11801 0.74112 0.0
C717 C 0.68673 0.13106 0.70268 0.0
H718 H 0.63058 0.12928 0.78997 0.0
C719 C 0.661 0.15501 0.67818 0.0
H720 H 0.69123 0.09821 0.76001 0.0
C721 C 0.62582 0.17226 0.69518 0.0
C722 C 0.61672 0.16578 0.7367 0.0
H723 H 0.67073 0.16479 0.64808 0.0
H724 H 0.60929 0.1947 0.67748 0.0
C725 C 0.63792 0.13574 0.75832 0.0
C726 C 0.85819 0.70355 0.77909 0.0
C727 C 0.84498 0.67684 0.74778 0.0
H728 H 0.85678 0.71816 0.84302 0.0
C729 C 0.82692 0.63991 0.75872 0.0
H730 H 0.8728 0.7322 0.77174 0.0
C731 C 0.81933 0.6313 0.79984 0.0
C732 C 0.82814 0.66004 0.83083 0.0
H733 H 0.81734 0.61834 0.73552 0.0
H734 H 0.80359 0.60326 0.807 0.0
C735 C 0.84953 0.69541 0.82018 0.0
C736 C 0.19949 0.29257 0.09741 0.0
C737 C 0.19774 0.32399 0.1259 0.0
H738 H 0.23547 0.24595 0.07123 0.0
C739 C 0.2343 0.33599 0.14656 0.0
H740 H 0.17211 0.28299 0.08075 0.0
C741 C 0.2707 0.31391 0.14223 0.0
C742 C 0.27118 0.27995 0.11669 0.0
H743 H 0.23407 0.36037 0.16873 0.0
H744 H 0.29751 0.32205 0.16047 0.0
C745 C 0.23591 0.27108 0.09253 0.0
C746 C 0.30034 0.70882 0.88685 0.0
C747 C 0.32917 0.70559 0.85477 0.0
H748 H 0.23686 0.70458 0.90501 0.0
C749 C 0.31655 0.68718 0.81809 0.0
H750 H 0.30935 0.72205 0.91578 0.0
C751 C 0.27503 0.67617 0.81233 0.0
C752 C 0.24545 0.68415 0.84282 0.0
H753 H 0.33778 0.68442 0.79274 0.0
H754 H 0.26556 0.66424 0.78284 0.0
C755 C 0.25876 0.69907 0.88069 0.0
C756 C 0.33491 0.26788 0.81095 0.0
C757 C 0.3134 0.25215 0.84448 0.0
H758 H 0.36617 0.25532 0.75537 0.0
C759 C 0.3099 0.20984 0.84899 0.0
H760 H 0.3383 0.30023 0.80665 0.0
C761 C 0.32542 0.18389 0.81924 0.0
C762 C 0.34503 0.19975 0.78464 0.0
H763 H 0.29372 0.19662 0.8747 0.0
H764 H 0.32122 0.15156 0.82295 0.0
C765 C 0.35064 0.24197 0.7814 0.0
C766 C 0.69724 0.32516 0.78969 0.0
C767 C 0.65825 0.33589 0.77383 0.0
H768 H 0.76232 0.33718 0.79055 0.0
C769 C 0.6553 0.36889 0.74714 0.0
H770 H 0.70063 0.2996 0.81014 0.0
C771 C 0.69067 0.39056 0.73628 0.0
C772 C 0.72974 0.37926 0.75143 0.0
H773 H 0.62576 0.37779 0.73441 0.0
H774 H 0.68743 0.41571 0.71531 0.0
C775 C 0.73269 0.34644 0.77832 0.0
C776 C 0.687 0.7822 0.88759 0.0
C777 C 0.68083 0.74174 0.875 0.0
H778 H 0.67942 0.84493 0.8735 0.0
C779 C 0.65761 0.73404 0.83952 0.0
H780 H 0.70436 0.78939 0.91508 0.0
C781 C 0.64302 0.76613 0.81588 0.0
C782 C 0.65171 0.80653 0.82708 0.0
H783 H 0.6522 0.70336 0.82902 0.0
H784 H 0.62646 0.75915 0.78786 0.0
C785 C 0.67289 0.81421 0.86372 0.0
C786 C 0.71715 0.64135 0.17307 0.0
C787 C 0.71801 0.67382 0.14567 0.0
H788 H 0.75233 0.59701 0.20496 0.0
C789 C 0.75457 0.68151 0.12342 0.0
H790 H 0.68937 0.6341 0.18999 0.0
C791 C 0.79089 0.66088 0.13237 0.0
C792 C 0.79122 0.63153 0.16312 0.0
H793 H 0.75605 0.70541 0.10081 0.0
H794 H 0.81917 0.66987 0.11718 0.0
C795 C 0.7534 0.62008 0.18145 0.0
C796 C 0.38005 0.767 0.18392 0.0
C797 C 0.35577 0.79965 0.17004 0.0
H798 H 0.3896 0.70293 0.18317 0.0
C799 C 0.32992 0.79373 0.13615 0.0
H800 H 0.40138 0.77092 0.20915 0.0
C801 C 0.32398 0.75478 0.1205 0.0
C802 C 0.34319 0.72104 0.13907 0.0
H803 H 0.31135 0.81824 0.12422 0.0
H804 H 0.30134 0.75087 0.0963 0.0
C805 C 0.37343 0.72791 0.169 0.0
C806 C 0.59038 0.27418 0.16286 0.0
C807 C 0.62827 0.2789 0.14326 0.0
H808 H 0.55655 0.23995 0.20573 0.0
C809 C 0.65515 0.24549 0.1406 0.0
H810 H 0.56896 0.29917 0.1649 0.0
C811 C 0.64773 0.21077 0.16405 0.0
C812 C 0.61325 0.20947 0.18966 0.0
H813 H 0.68458 0.2482 0.12515 0.0
H814 H 0.67151 0.18796 0.16638 0.0
C815 C 0.58299 0.2397 0.18586 0.0
loop_
_geom_bond_atom_site_label_1
_geom_bond_atom_site_label_2
_geom_bond_distance
_geom_bond_site_symmetry_2
_ccdc_geom_bond_type
Co0 O1 2.216 . S
Co0 O2 2.091 . S
Co0 O4 2.004 . S
Co0 O10 2.021 . S
Co0 O12 2.137 . S
Co0 O13 2.244 . S
O1 Co0 2.216 . S
O1 C8 1.247 . S
O2 Co0 2.091 . S
O2 C8 1.261 . S
C3 O12 1.247 . S
C3 O13 1.272 . S
O4 Co0 2.004 . S
O4 C9 1.259 . S
Co5 O6 2.061 . S
Co5 O11 2.052 . S
Co5 O13 2.135 . S
O6 Co5 2.061 . S
O6 C9 1.235 . S
C7 O10 1.238 . S
C7 O11 1.241 . S
C8 O1 1.247 . S
C8 O2 1.261 . S
C9 O4 1.259 . S
C9 O6 1.235 . S
O10 Co0 2.021 . S
O10 C7 1.238 . S
O11 Co5 2.052 . S
O11 C7 1.241 . S
O12 Co0 2.137 . S
O12 C3 1.247 . S
O13 Co0 2.244 . S
O13 C3 1.272 . S
O13 Co5 2.135 . S
Co14 O15 2.216 . S
Co14 O16 2.091 . S
Co14 O18 2.004 . S
Co14 O24 2.021 . S
Co14 O26 2.137 . S
Co14 O27 2.244 . S
O15 Co14 2.216 . S
O15 C22 1.247 . S
O16 Co14 2.091 . S
O16 C22 1.261 . S
C17 O26 1.247 . S
C17 O27 1.272 . S
O18 Co14 2.004 . S
O18 C23 1.259 . S
Co19 O20 2.061 . S
Co19 O25 2.052 . S
Co19 O27 2.135 . S
O20 Co19 2.061 . S
O20 C23 1.235 . S
C21 O24 1.238 . S
C21 O25 1.241 . S
C22 O15 1.247 . S
C22 O16 1.261 . S
C23 O18 1.259 . S
C23 O20 1.235 . S
O24 Co14 2.021 . S
O24 C21 1.238 . S
O25 Co19 2.052 . S
O25 C21 1.241 . S
O26 Co14 2.137 . S
O26 C17 1.247 . S
O27 Co14 2.244 . S
O27 C17 1.272 . S
O27 Co19 2.135 . S
Co28 O29 2.216 . S
Co28 O30 2.091 . S
Co28 O32 2.004 . S
Co28 O38 2.021 . S
Co28 O40 2.137 . S
Co28 O41 2.244 . S
O29 Co28 2.216 . S
O29 C36 1.247 . S
O30 Co28 2.091 . S
O30 C36 1.261 . S
C31 O40 1.247 . S
C31 O41 1.272 . S
O32 Co28 2.004 . S
O32 C37 1.259 . S
Co33 O34 2.061 . S
Co33 O39 2.052 . S
Co33 O41 2.135 . S
O34 Co33 2.061 . S
O34 C37 1.235 . S
C35 O38 1.238 . S
C35 O39 1.241 . S
C36 O29 1.247 . S
C36 O30 1.261 . S
C37 O32 1.259 . S
C37 O34 1.235 . S
O38 Co28 2.021 . S
O38 C35 1.238 . S
O39 Co33 2.052 . S
O39 C35 1.241 . S
O40 Co28 2.137 . S
O40 C31 1.247 . S
O41 Co28 2.244 . S
O41 C31 1.272 . S
O41 Co33 2.135 . S
Co42 O43 2.216 . S
Co42 O44 2.091 . S
Co42 O46 2.004 . S
Co42 O52 2.021 . S
Co42 O54 2.137 . S
Co42 O55 2.244 . S
O43 Co42 2.216 . S
O43 C50 1.247 . S
O44 Co42 2.091 . S
O44 C50 1.261 . S
C45 O54 1.247 . S
C45 O55 1.272 . S
O46 Co42 2.004 . S
O46 C51 1.259 . S
Co47 O48 2.061 . S
Co47 O53 2.052 . S
Co47 O55 2.135 . S
O48 Co47 2.061 . S
O48 C51 1.235 . S
C49 O52 1.238 . S
C49 O53 1.241 . S
C50 O43 1.247 . S
C50 O44 1.261 . S
C51 O46 1.259 . S
C51 O48 1.235 . S
O52 Co42 2.021 . S
O52 C49 1.238 . S
O53 Co47 2.052 . S
O53 C49 1.241 . S
O54 Co42 2.137 . S
O54 C45 1.247 . S
O55 Co42 2.244 . S
O55 C45 1.272 . S
O55 Co47 2.135 . S
Co56 O57 2.216 . S
Co56 O58 2.091 . S
Co56 O60 2.004 . S
Co56 O66 2.021 . S
Co56 O68 2.137 . S
Co56 O69 2.244 . S
O57 Co56 2.216 . S
O57 C64 1.247 . S
O58 Co56 2.091 . S
O58 C64 1.261 . S
C59 O68 1.247 . S
C59 O69 1.272 . S
O60 Co56 2.004 . S
O60 C65 1.259 . S
Co61 O62 2.061 . S
Co61 O67 2.052 . S
Co61 O69 2.135 . S
O62 Co61 2.061 . S
O62 C65 1.235 . S
C63 O66 1.238 . S
C63 O67 1.241 . S
C64 O57 1.247 . S
C64 O58 1.261 . S
C65 O60 1.259 . S
C65 O62 1.235 . S
O66 Co56 2.021 . S
O66 C63 1.238 . S
O67 Co61 2.052 . S
O67 C63 1.241 . S
O68 Co56 2.137 . S
O68 C59 1.247 . S
O69 Co56 2.244 . S
O69 C59 1.272 . S
O69 Co61 2.135 . S
Co70 O71 2.216 . S
Co70 O72 2.091 . S
Co70 O74 2.004 . S
Co70 O80 2.021 . S
Co70 O82 2.137 . S
Co70 O83 2.244 . S
O71 Co70 2.216 . S
O71 C78 1.247 . S
O72 Co70 2.091 . S
O72 C78 1.261 . S
C73 O82 1.247 . S
C73 O83 1.272 . S
O74 Co70 2.004 . S
O74 C79 1.259 . S
Co75 O76 2.061 . S
Co75 O81 2.052 . S
Co75 O83 2.135 . S
O76 Co75 2.061 . S
O76 C79 1.235 . S
C77 O80 1.238 . S
C77 O81 1.241 . S
C78 O71 1.247 . S
C78 O72 1.261 . S
C79 O74 1.259 . S
C79 O76 1.235 . S
O80 Co70 2.021 . S
O80 C77 1.238 . S
O81 Co75 2.052 . S
O81 C77 1.241 . S
O82 Co70 2.137 . S
O82 C73 1.247 . S
O83 Co70 2.244 . S
O83 C73 1.272 . S
O83 Co75 2.135 . S
Co84 O85 2.216 . S
Co84 O86 2.091 . S
Co84 O88 2.004 . S
Co84 O94 2.021 . S
Co84 O96 2.137 . S
Co84 O97 2.244 . S
O85 Co84 2.216 . S
O85 C92 1.247 . S
O86 Co84 2.091 . S
O86 C92 1.261 . S
C87 O96 1.247 . S
C87 O97 1.272 . S
O88 Co84 2.004 . S
O88 C93 1.259 . S
Co89 O90 2.061 . S
Co89 O95 2.052 . S
Co89 O97 2.135 . S
O90 Co89 2.061 . S
O90 C93 1.235 . S
C91 O94 1.238 . S
C91 O95 1.241 . S
C92 O85 1.247 . S
C92 O86 1.261 . S
C93 O88 1.259 . S
C93 O90 1.235 . S
O94 Co84 2.021 . S
O94 C91 1.238 . S
O95 Co89 2.052 . S
O95 C91 1.241 . S
O96 Co84 2.137 . S
O96 C87 1.247 . S
O97 Co84 2.244 . S
O97 C87 1.272 . S
O97 Co89 2.135 . S
Co98 O99 2.216 . S
Co98 O100 2.091 . S
Co98 O102 2.004 . S
Co98 O108 2.021 . S
Co98 O110 2.137 . S
Co98 O111 2.244 . S
O99 Co98 2.216 . S
O99 C106 1.247 . S
O100 Co98 2.091 . S
O100 C106 1.261 . S
C101 O110 1.247 . S
C101 O111 1.272 . S
O102 Co98 2.004 . S
O102 C107 1.259 . S
Co103 O104 2.061 . S
Co103 O109 2.052 . S
Co103 O111 2.135 . S
O104 Co103 2.061 . S
O104 C107 1.235 . S
C105 O108 1.238 . S
C105 O109 1.241 . S
C106 O99 1.247 . S
C106 O100 1.261 . S
C107 O102 1.259 . S
C107 O104 1.235 . S
O108 Co98 2.021 . S
O108 C105 1.238 . S
O109 Co103 2.052 . S
O109 C105 1.241 . S
O110 Co98 2.137 . S
O110 C101 1.247 . S
O111 Co98 2.244 . S
O111 C101 1.272 . S
O111 Co103 2.135 . S
Co112 O113 2.216 . S
Co112 O114 2.091 . S
Co112 O116 2.004 . S
Co112 O122 2.021 . S
Co112 O124 2.137 . S
Co112 O125 2.244 . S
O113 Co112 2.216 . S
O113 C120 1.247 . S
O114 Co112 2.091 . S
O114 C120 1.261 . S
C115 O124 1.247 . S
C115 O125 1.272 . S
O116 Co112 2.004 . S
O116 C121 1.259 . S
Co117 O118 2.061 . S
Co117 O123 2.052 . S
Co117 O125 2.135 . S
O118 Co117 2.061 . S
O118 C121 1.235 . S
C119 O122 1.238 . S
C119 O123 1.241 . S
C120 O113 1.247 . S
C120 O114 1.261 . S
C121 O116 1.259 . S
C121 O118 1.235 . S
O122 Co112 2.021 . S
O122 C119 1.238 . S
O123 Co117 2.052 . S
O123 C119 1.241 . S
O124 Co112 2.137 . S
O124 C115 1.247 . S
O125 Co112 2.244 . S
O125 C115 1.272 . S
O125 Co117 2.135 . S
Co126 O127 2.216 . S
Co126 O128 2.091 . S
Co126 O130 2.004 . S
Co126 O136 2.021 . S
Co126 O138 2.137 . S
Co126 O139 2.244 . S
O127 Co126 2.216 . S
O127 C134 1.247 . S
O128 Co126 2.091 . S
O128 C134 1.261 . S
C129 O138 1.247 . S
C129 O139 1.272 . S
O130 Co126 2.004 . S
O130 C135 1.259 . S
Co131 O132 2.061 . S
Co131 O137 2.052 . S
Co131 O139 2.135 . S
O132 Co131 2.061 . S
O132 C135 1.235 . S
C133 O136 1.238 . S
C133 O137 1.241 . S
C134 O127 1.247 . S
C134 O128 1.261 . S
C135 O130 1.259 . S
C135 O132 1.235 . S
O136 Co126 2.021 . S
O136 C133 1.238 . S
O137 Co131 2.052 . S
O137 C133 1.241 . S
O138 Co126 2.137 . S
O138 C129 1.247 . S
O139 Co126 2.244 . S
O139 C129 1.272 . S
O139 Co131 2.135 . S
Co140 O141 2.216 . S
Co140 O142 2.091 . S
Co140 O144 2.004 . S
Co140 O150 2.021 . S
Co140 O152 2.137 . S
Co140 O153 2.244 . S
O141 Co140 2.216 . S
O141 C148 1.247 . S
O142 Co140 2.091 . S
O142 C148 1.261 . S
C143 O152 1.247 . S
C143 O153 1.272 . S
O144 Co140 2.004 . S
O144 C149 1.259 . S
Co145 O146 2.061 . S
Co145 O151 2.052 . S
Co145 O153 2.135 . S
O146 Co145 2.061 . S
O146 C149 1.235 . S
C147 O150 1.238 . S
C147 O151 1.241 . S
C148 O141 1.247 . S
C148 O142 1.261 . S
C149 O144 1.259 . S
C149 O146 1.235 . S
O150 Co140 2.021 . S
O150 C147 1.238 . S
O151 Co145 2.052 . S
O151 C147 1.241 . S
O152 Co140 2.137 . S
O152 C143 1.247 . S
O153 Co140 2.244 . S
O153 C143 1.272 . S
O153 Co145 2.135 . S
Co154 O155 2.216 . S
Co154 O156 2.091 . S
Co154 O158 2.004 . S
Co154 O164 2.021 . S
Co154 O166 2.137 . S
Co154 O167 2.244 . S
O155 Co154 2.216 . S
O155 C162 1.247 . S
O156 Co154 2.091 . S
O156 C162 1.261 . S
C157 O166 1.247 . S
C157 O167 1.272 . S
O158 Co154 2.004 . S
O158 C163 1.259 . S
Co159 O160 2.061 . S
Co159 O165 2.052 . S
Co159 O167 2.135 . S
O160 Co159 2.061 . S
O160 C163 1.235 . S
C161 O164 1.238 . S
C161 O165 1.241 . S
C162 O155 1.247 . S
C162 O156 1.261 . S
C163 O158 1.259 . S
C163 O160 1.235 . S
O164 Co154 2.021 . S
O164 C161 1.238 . S
O165 Co159 2.052 . S
O165 C161 1.241 . S
O166 Co154 2.137 . S
O166 C157 1.247 . S
O167 Co154 2.244 . S
O167 C157 1.272 . S
O167 Co159 2.135 . S
Co168 O169 2.216 . S
Co168 O170 2.091 . S
Co168 O172 2.004 . S
Co168 O178 2.021 . S
Co168 O180 2.137 . S
Co168 O181 2.244 . S
O169 Co168 2.216 . S
O169 C176 1.247 . S
O170 Co168 2.091 . S
O170 C176 1.261 . S
C171 O180 1.247 . S
C171 O181 1.272 . S
O172 Co168 2.004 . S
O172 C177 1.259 . S
Co173 O174 2.061 . S
Co173 O179 2.052 . S
Co173 O181 2.135 . S
O174 Co173 2.061 . S
O174 C177 1.235 . S
C175 O178 1.238 . S
C175 O179 1.241 . S
C176 O169 1.247 . S
C176 O170 1.261 . S
C177 O172 1.259 . S
C177 O174 1.235 . S
O178 Co168 2.021 . S
O178 C175 1.238 . S
O179 Co173 2.052 . S
O179 C175 1.241 . S
O180 Co168 2.137 . S
O180 C171 1.247 . S
O181 Co168 2.244 . S
O181 C171 1.272 . S
O181 Co173 2.135 . S
Co182 O183 2.216 . S
Co182 O184 2.091 . S
Co182 O186 2.004 . S
Co182 O192 2.021 . S
Co182 O194 2.137 . S
Co182 O195 2.244 . S
O183 Co182 2.216 . S
O183 C190 1.247 . S
O184 Co182 2.091 . S
O184 C190 1.261 . S
C185 O194 1.247 . S
C185 O195 1.272 . S
O186 Co182 2.004 . S
O186 C191 1.259 . S
Co187 O188 2.061 . S
Co187 O193 2.052 . S
Co187 O195 2.135 . S
O188 Co187 2.061 . S
O188 C191 1.235 . S
C189 O192 1.238 . S
C189 O193 1.241 . S
C190 O183 1.247 . S
C190 O184 1.261 . S
C191 O186 1.259 . S
C191 O188 1.235 . S
O192 Co182 2.021 . S
O192 C189 1.238 . S
O193 Co187 2.052 . S
O193 C189 1.241 . S
O194 Co182 2.137 . S
O194 C185 1.247 . S
O195 Co182 2.244 . S
O195 C185 1.272 . S
O195 Co187 2.135 . S
Co196 O197 2.216 . S
Co196 O198 2.091 . S
Co196 O200 2.004 . S
Co196 O206 2.021 . S
Co196 O208 2.137 . S
Co196 O209 2.244 . S
O197 Co196 2.216 . S
O197 C204 1.247 . S
O198 Co196 2.091 . S
O198 C204 1.261 . S
C199 O208 1.247 . S
C199 O209 1.272 . S
O200 Co196 2.004 . S
O200 C205 1.259 . S
Co201 O202 2.061 . S
Co201 O207 2.052 . S
Co201 O209 2.135 . S
O202 Co201 2.061 . S
O202 C205 1.235 . S
C203 O206 1.238 . S
C203 O207 1.241 . S
C204 O197 1.247 . S
C204 O198 1.261 . S
C205 O200 1.259 . S
C205 O202 1.235 . S
O206 Co196 2.021 . S
O206 C203 1.238 . S
O207 Co201 2.052 . S
O207 C203 1.241 . S
O208 Co196 2.137 . S
O208 C199 1.247 . S
O209 Co196 2.244 . S
O209 C199 1.272 . S
O209 Co201 2.135 . S
Co210 O211 2.216 . S
Co210 O212 2.091 . S
Co210 O214 2.004 . S
Co210 O220 2.021 . S
Co210 O222 2.137 . S
Co210 O223 2.244 . S
O211 Co210 2.216 . S
O211 C218 1.247 . S
O212 Co210 2.091 . S
O212 C218 1.261 . S
C213 O222 1.247 . S
C213 O223 1.272 . S
O214 Co210 2.004 . S
O214 C219 1.259 . S
Co215 O216 2.061 . S
Co215 O221 2.052 . S
Co215 O223 2.135 . S
O216 Co215 2.061 . S
O216 C219 1.235 . S
C217 O220 1.238 . S
C217 O221 1.241 . S
C218 O211 1.247 . S
C218 O212 1.261 . S
C219 O214 1.259 . S
C219 O216 1.235 . S
O220 Co210 2.021 . S
O220 C217 1.238 . S
O221 Co215 2.052 . S
O221 C217 1.241 . S
O222 Co210 2.137 . S
O222 C213 1.247 . S
O223 Co210 2.244 . S
O223 C213 1.272 . S
O223 Co215 2.135 . S
Co224 O225 2.216 . S
Co224 O226 2.091 . S
Co224 O228 2.004 . S
Co224 O234 2.021 . S
Co224 O236 2.137 . S
Co224 O237 2.244 . S
O225 Co224 2.216 . S
O225 C232 1.247 . S
O226 Co224 2.091 . S
O226 C232 1.261 . S
C227 O236 1.247 . S
C227 O237 1.272 . S
O228 Co224 2.004 . S
O228 C233 1.259 . S
Co229 O230 2.061 . S
Co229 O235 2.052 . S
Co229 O237 2.135 . S
O230 Co229 2.061 . S
O230 C233 1.235 . S
C231 O234 1.238 . S
C231 O235 1.241 . S
C232 O225 1.247 . S
C232 O226 1.261 . S
C233 O228 1.259 . S
C233 O230 1.235 . S
O234 Co224 2.021 . S
O234 C231 1.238 . S
O235 Co229 2.052 . S
O235 C231 1.241 . S
O236 Co224 2.137 . S
O236 C227 1.247 . S
O237 Co224 2.244 . S
O237 C227 1.272 . S
O237 Co229 2.135 . S
Co238 O239 2.216 . S
Co238 O240 2.091 . S
Co238 O242 2.004 . S
Co238 O248 2.021 . S
Co238 O250 2.137 . S
Co238 O251 2.244 . S
O239 Co238 2.216 . S
O239 C246 1.247 . S
O240 Co238 2.091 . S
O240 C246 1.261 . S
C241 O250 1.247 . S
C241 O251 1.272 . S
O242 Co238 2.004 . S
O242 C247 1.259 . S
Co243 O244 2.061 . S
Co243 O249 2.052 . S
Co243 O251 2.135 . S
O244 Co243 2.061 . S
O244 C247 1.235 . S
C245 O248 1.238 . S
C245 O249 1.241 . S
C246 O239 1.247 . S
C246 O240 1.261 . S
C247 O242 1.259 . S
C247 O244 1.235 . S
O248 Co238 2.021 . S
O248 C245 1.238 . S
O249 Co243 2.052 . S
O249 C245 1.241 . S
O250 Co238 2.137 . S
O250 C241 1.247 . S
O251 Co238 2.244 . S
O251 C241 1.272 . S
O251 Co243 2.135 . S
Co252 O253 2.216 . S
Co252 O254 2.091 . S
Co252 O256 2.004 . S
Co252 O262 2.021 . S
Co252 O264 2.137 . S
Co252 O265 2.244 . S
O253 Co252 2.216 . S
O253 C260 1.247 . S
O254 Co252 2.091 . S
O254 C260 1.261 . S
C255 O264 1.247 . S
C255 O265 1.272 . S
O256 Co252 2.004 . S
O256 C261 1.259 . S
Co257 O258 2.061 . S
Co257 O263 2.052 . S
Co257 O265 2.135 . S
O258 Co257 2.061 . S
O258 C261 1.235 . S
C259 O262 1.238 . S
C259 O263 1.241 . S
C260 O253 1.247 . S
C260 O254 1.261 . S
C261 O256 1.259 . S
C261 O258 1.235 . S
O262 Co252 2.021 . S
O262 C259 1.238 . S
O263 Co257 2.052 . S
O263 C259 1.241 . S
O264 Co252 2.137 . S
O264 C255 1.247 . S
O265 Co252 2.244 . S
O265 C255 1.272 . S
O265 Co257 2.135 . S
Co266 O267 2.216 . S
Co266 O268 2.091 . S
Co266 O270 2.004 . S
Co266 O276 2.021 . S
Co266 O278 2.137 . S
Co266 O279 2.244 . S
O267 Co266 2.216 . S
O267 C274 1.247 . S
O268 Co266 2.091 . S
O268 C274 1.261 . S
C269 O278 1.247 . S
C269 O279 1.272 . S
O270 Co266 2.004 . S
O270 C275 1.259 . S
Co271 O272 2.061 . S
Co271 O277 2.052 . S
Co271 O279 2.135 . S
O272 Co271 2.061 . S
O272 C275 1.235 . S
C273 O276 1.238 . S
C273 O277 1.241 . S
C274 O267 1.247 . S
C274 O268 1.261 . S
C275 O270 1.259 . S
C275 O272 1.235 . S
O276 Co266 2.021 . S
O276 C273 1.238 . S
O277 Co271 2.052 . S
O277 C273 1.241 . S
O278 Co266 2.137 . S
O278 C269 1.247 . S
O279 Co266 2.244 . S
O279 C269 1.272 . S
O279 Co271 2.135 . S
Co280 O281 2.216 . S
Co280 O282 2.091 . S
Co280 O284 2.004 . S
Co280 O290 2.021 . S
Co280 O292 2.137 . S
Co280 O293 2.244 . S
O281 Co280 2.216 . S
O281 C288 1.247 . S
O282 Co280 2.091 . S
O282 C288 1.261 . S
C283 O292 1.247 . S
C283 O293 1.272 . S
O284 Co280 2.004 . S
O284 C289 1.259 . S
Co285 O286 2.061 . S
Co285 O291 2.052 . S
Co285 O293 2.135 . S
O286 Co285 2.061 . S
O286 C289 1.235 . S
C287 O290 1.238 . S
C287 O291 1.241 . S
C288 O281 1.247 . S
C288 O282 1.261 . S
C289 O284 1.259 . S
C289 O286 1.235 . S
O290 Co280 2.021 . S
O290 C287 1.238 . S
O291 Co285 2.052 . S
O291 C287 1.241 . S
O292 Co280 2.137 . S
O292 C283 1.247 . S
O293 Co280 2.244 . S
O293 C283 1.272 . S
O293 Co285 2.135 . S
Co294 O295 2.216 . S
Co294 O296 2.091 . S
Co294 O298 2.004 . S
Co294 O304 2.021 . S
Co294 O306 2.137 . S
Co294 O307 2.244 . S
O295 Co294 2.216 . S
O295 C302 1.247 . S
O296 Co294 2.091 . S
O296 C302 1.261 . S
C297 O306 1.247 . S
C297 O307 1.272 . S
O298 Co294 2.004 . S
O298 C303 1.259 . S
Co299 O300 2.061 . S
Co299 O305 2.052 . S
Co299 O307 2.135 . S
O300 Co299 2.061 . S
O300 C303 1.235 . S
C301 O304 1.238 . S
C301 O305 1.241 . S
C302 O295 1.247 . S
C302 O296 1.261 . S
C303 O298 1.259 . S
C303 O300 1.235 . S
O304 Co294 2.021 . S
O304 C301 1.238 . S
O305 Co299 2.052 . S
O305 C301 1.241 . S
O306 Co294 2.137 . S
O306 C297 1.247 . S
O307 Co294 2.244 . S
O307 C297 1.272 . S
O307 Co299 2.135 . S
Co308 O309 2.216 . S
Co308 O310 2.091 . S
Co308 O312 2.004 . S
Co308 O318 2.021 . S
Co308 O320 2.137 . S
Co308 O321 2.244 . S
O309 Co308 2.216 . S
O309 C316 1.247 . S
O310 Co308 2.091 . S
O310 C316 1.261 . S
C311 O320 1.247 . S
C311 O321 1.272 . S
O312 Co308 2.004 . S
O312 C317 1.259 . S
Co313 O314 2.061 . S
Co313 O319 2.052 . S
Co313 O321 2.135 . S
O314 Co313 2.061 . S
O314 C317 1.235 . S
C315 O318 1.238 . S
C315 O319 1.241 . S
C316 O309 1.247 . S
C316 O310 1.261 . S
C317 O312 1.259 . S
C317 O314 1.235 . S
O318 Co308 2.021 . S
O318 C315 1.238 . S
O319 Co313 2.052 . S
O319 C315 1.241 . S
O320 Co308 2.137 . S
O320 C311 1.247 . S
O321 Co308 2.244 . S
O321 C311 1.272 . S
O321 Co313 2.135 . S
Co322 O323 2.216 . S
Co322 O324 2.091 . S
Co322 O326 2.004 . S
Co322 O332 2.021 . S
Co322 O334 2.137 . S
Co322 O335 2.244 . S
O323 Co322 2.216 . S
O323 C330 1.247 . S
O324 Co322 2.091 . S
O324 C330 1.261 . S
C325 O334 1.247 . S
C325 O335 1.272 . S
O326 Co322 2.004 . S
O326 C331 1.259 . S
Co327 O328 2.061 . S
Co327 O333 2.052 . S
Co327 O335 2.135 . S
O328 Co327 2.061 . S
O328 C331 1.235 . S
C329 O332 1.238 . S
C329 O333 1.241 . S
C330 O323 1.247 . S
C330 O324 1.261 . S
C331 O326 1.259 . S
C331 O328 1.235 . S
O332 Co322 2.021 . S
O332 C329 1.238 . S
O333 Co327 2.052 . S
O333 C329 1.241 . S
O334 Co322 2.137 . S
O334 C325 1.247 . S
O335 Co322 2.244 . S
O335 C325 1.272 . S
O335 Co327 2.135 . S
C336 C337 1.387 . S
C336 H340 0.950 . S
C336 C345 1.390 . S
C337 C336 1.387 . S
C337 C339 1.387 . S
H338 C345 0.950 . S
C339 C337 1.387 . S
C339 C341 1.390 . S
C339 H343 0.950 . S
H340 C336 0.950 . S
C341 C339 1.390 . S
C341 C342 1.387 . S
C341 H344 0.950 . S
C342 C341 1.387 . S
C342 C345 1.387 . S
H343 C339 0.950 . S
H344 C341 0.950 . S
C345 C336 1.390 . S
C345 H338 0.950 . S
C345 C342 1.387 . S
C346 C347 1.387 . S
C346 H350 0.950 . S
C346 C355 1.390 . S
C347 C346 1.387 . S
C347 C349 1.387 . S
H348 C355 0.950 . S
C349 C347 1.387 . S
C349 C351 1.390 . S
C349 H353 0.950 . S
H350 C346 0.950 . S
C351 C349 1.390 . S
C351 C352 1.387 . S
C351 H354 0.950 . S
C352 C351 1.387 . S
C352 C355 1.387 . S
H353 C349 0.950 . S
H354 C351 0.950 . S
C355 C346 1.390 . S
C355 H348 0.950 . S
C355 C352 1.387 . S
C356 C357 1.387 . S
C356 H360 0.950 . S
C356 C365 1.390 . S
C357 C356 1.387 . S
C357 C359 1.387 . S
H358 C365 0.950 . S
C359 C357 1.387 . S
C359 C361 1.390 . S
C359 H363 0.950 . S
H360 C356 0.950 . S
C361 C359 1.390 . S
C361 C362 1.387 . S
C361 H364 0.950 . S
C362 C361 1.387 . S
C362 C365 1.387 . S
H363 C359 0.950 . S
H364 C361 0.950 . S
C365 C356 1.390 . S
C365 H358 0.950 . S
C365 C362 1.387 . S
C366 C367 1.387 . S
C366 H370 0.950 . S
C366 C375 1.390 . S
C367 C366 1.387 . S
C367 C369 1.387 . S
H368 C375 0.950 . S
C369 C367 1.387 . S
C369 C371 1.390 . S
C369 H373 0.950 . S
H370 C366 0.950 . S
C371 C369 1.390 . S
C371 C372 1.387 . S
C371 H374 0.950 . S
C372 C371 1.387 . S
C372 C375 1.387 . S
H373 C369 0.950 . S
H374 C371 0.950 . S
C375 C366 1.390 . S
C375 H368 0.950 . S
C375 C372 1.387 . S
C376 C377 1.387 . S
C376 H380 0.950 . S
C376 C385 1.390 . S
C377 C376 1.387 . S
C377 C379 1.387 . S
H378 C385 0.950 . S
C379 C377 1.387 . S
C379 C381 1.390 . S
C379 H383 0.950 . S
H380 C376 0.950 . S
C381 C379 1.390 . S
C381 C382 1.387 . S
C381 H384 0.950 . S
C382 C381 1.387 . S
C382 C385 1.387 . S
H383 C379 0.950 . S
H384 C381 0.950 . S
C385 C376 1.390 . S
C385 H378 0.950 . S
C385 C382 1.387 . S
C386 C387 1.387 . S
C386 H390 0.950 . S
C386 C395 1.390 . S
C387 C386 1.387 . S
C387 C389 1.387 . S
H388 C395 0.950 . S
C389 C387 1.387 . S
C389 C391 1.390 . S
C389 H393 0.950 . S
H390 C386 0.950 . S
C391 C389 1.390 . S
C391 C392 1.387 . S
C391 H394 0.950 . S
C392 C391 1.387 . S
C392 C395 1.387 . S
H393 C389 0.950 . S
H394 C391 0.950 . S
C395 C386 1.390 . S
C395 H388 0.950 . S
C395 C392 1.387 . S
C396 C397 1.387 . S
C396 H400 0.950 . S
C396 C405 1.390 . S
C397 C396 1.387 . S
C397 C399 1.387 . S
H398 C405 0.950 . S
C399 C397 1.387 . S
C399 C401 1.390 . S
C399 H403 0.950 . S
H400 C396 0.950 . S
C401 C399 1.390 . S
C401 C402 1.387 . S
C401 H404 0.950 . S
C402 C401 1.387 . S
C402 C405 1.387 . S
H403 C399 0.950 . S
H404 C401 0.950 . S
C405 C396 1.390 . S
C405 H398 0.950 . S
C405 C402 1.387 . S
C406 C407 1.387 . S
C406 H410 0.950 . S
C406 C415 1.390 . S
C407 C406 1.387 . S
C407 C409 1.387 . S
H408 C415 0.950 . S
C409 C407 1.387 . S
C409 C411 1.390 . S
C409 H413 0.950 . S
H410 C406 0.950 . S
C411 C409 1.390 . S
C411 C412 1.387 . S
C411 H414 0.950 . S
C412 C411 1.387 . S
C412 C415 1.387 . S
H413 C409 0.950 . S
H414 C411 0.950 . S
C415 C406 1.390 . S
C415 H408 0.950 . S
C415 C412 1.387 . S
C416 C417 1.387 . S
C416 H420 0.950 . S
C416 C425 1.390 . S
C417 C416 1.387 . S
C417 C419 1.387 . S
H418 C425 0.950 . S
C419 C417 1.387 . S
C419 C421 1.390 . S
C419 H423 0.950 . S
H420 C416 0.950 . S
C421 C419 1.390 . S
C421 C422 1.387 . S
C421 H424 0.950 . S
C422 C421 1.387 . S
C422 C425 1.387 . S
H423 C419 0.950 . S
H424 C421 0.950 . S
C425 C416 1.390 . S
C425 H418 0.950 . S
C425 C422 1.387 . S
C426 C427 1.387 . S
C426 H430 0.950 . S
C426 C435 1.390 . S
C427 C426 1.387 . S
C427 C429 1.387 . S
H428 C435 0.950 . S
C429 C427 1.387 . S
C429 C431 1.390 . S
C429 H433 0.950 . S
H430 C426 0.950 . S
C431 C429 1.390 . S
C431 C432 1.387 . S
C431 H434 0.950 . S
C432 C431 1.387 . S
C432 C435 1.387 . S
H433 C429 0.950 . S
H434 C431 0.950 . S
C435 C426 1.390 . S
C435 H428 0.950 . S
C435 C432 1.387 . S
C436 C437 1.387 . S
C436 H440 0.950 . S
C436 C445 1.390 . S
C437 C436 1.387 . S
C437 C439 1.387 . S
H438 C445 0.950 . S
C439 C437 1.387 . S
C439 C441 1.390 . S
C439 H443 0.950 . S
H440 C436 0.950 . S
C441 C439 1.390 . S
C441 C442 1.387 . S
C441 H444 0.950 . S
C442 C441 1.387 . S
C442 C445 1.387 . S
H443 C439 0.950 . S
H444 C441 0.950 . S
C445 C436 1.390 . S
C445 H438 0.950 . S
C445 C442 1.387 . S
C446 C447 1.387 . S
C446 H450 0.950 . S
C446 C455 1.390 . S
C447 C446 1.387 . S
C447 C449 1.387 . S
H448 C455 0.950 . S
C449 C447 1.387 . S
C449 C451 1.390 . S
C449 H453 0.950 . S
H450 C446 0.950 . S
C451 C449 1.390 . S
C451 C452 1.387 . S
C451 H454 0.950 . S
C452 C451 1.387 . S
C452 C455 1.387 . S
H453 C449 0.950 . S
H454 C451 0.950 . S
C455 C446 1.390 . S
C455 H448 0.950 . S
C455 C452 1.387 . S
C456 C457 1.387 . S
C456 H460 0.950 . S
C456 C465 1.390 . S
C457 C456 1.387 . S
C457 C459 1.387 . S
H458 C465 0.950 . S
C459 C457 1.387 . S
C459 C461 1.390 . S
C459 H463 0.950 1_545 S
H460 C456 0.950 . S
C461 C459 1.390 . S
C461 C462 1.387 . S
C461 H464 0.950 . S
C462 C461 1.387 . S
C462 C465 1.387 . S
H463 C459 0.950 1_565 S
H464 C461 0.950 . S
C465 C456 1.390 . S
C465 H458 0.950 . S
C465 C462 1.387 . S
C466 C467 1.387 . S
C466 H470 0.950 . S
C466 C475 1.390 . S
C467 C466 1.387 . S
C467 C469 1.387 . S
H468 C475 0.950 . S
C469 C467 1.387 . S
C469 C471 1.390 . S
C469 H473 0.950 . S
H470 C466 0.950 . S
C471 C469 1.390 . S
C471 C472 1.387 . S
C471 H474 0.950 . S
C472 C471 1.387 . S
C472 C475 1.387 . S
H473 C469 0.950 . S
H474 C471 0.950 . S
C475 C466 1.390 . S
C475 H468 0.950 . S
C475 C472 1.387 . S
C476 C477 1.387 . S
C476 H480 0.950 . S
C476 C485 1.390 . S
C477 C476 1.387 . S
C477 C479 1.387 1_565 S
H478 C485 0.950 . S
C479 C477 1.387 1_545 S
C479 C481 1.390 1_545 S
C479 H483 0.950 . S
H480 C476 0.950 . S
C481 C479 1.390 1_565 S
C481 C482 1.387 . S
C481 H484 0.950 . S
C482 C481 1.387 . S
C482 C485 1.387 . S
H483 C479 0.950 . S
H484 C481 0.950 . S
C485 C476 1.390 . S
C485 H478 0.950 . S
C485 C482 1.387 . S
C486 C487 1.387 . S
C486 H490 0.950 . S
C486 C495 1.390 . S
C487 C486 1.387 . S
C487 C489 1.387 . S
H488 C495 0.950 . S
C489 C487 1.387 . S
C489 C491 1.390 . S
C489 H493 0.950 . S
H490 C486 0.950 . S
C491 C489 1.390 . S
C491 C492 1.387 . S
C491 H494 0.950 . S
C492 C491 1.387 . S
C492 C495 1.387 . S
H493 C489 0.950 . S
H494 C491 0.950 . S
C495 C486 1.390 . S
C495 H488 0.950 . S
C495 C492 1.387 . S
C496 C497 1.387 . S
C496 H500 0.950 . S
C496 C505 1.390 . S
C497 C496 1.387 . S
C497 C499 1.387 . S
H498 C505 0.950 . S
C499 C497 1.387 . S
C499 C501 1.390 . S
C499 H503 0.950 . S
H500 C496 0.950 . S
C501 C499 1.390 . S
C501 C502 1.387 . S
C501 H504 0.950 . S
C502 C501 1.387 . S
C502 C505 1.387 . S
H503 C499 0.950 . S
H504 C501 0.950 . S
C505 C496 1.390 . S
C505 H498 0.950 . S
C505 C502 1.387 . S
C506 C507 1.387 . S
C506 H510 0.950 . S
C506 C515 1.390 . S
C507 C506 1.387 . S
C507 C509 1.387 . S
H508 C515 0.950 . S
C509 C507 1.387 . S
C509 C511 1.390 . S
C509 H513 0.950 . S
H510 C506 0.950 . S
C511 C509 1.390 . S
C511 C512 1.387 . S
C511 H514 0.950 . S
C512 C511 1.387 . S
C512 C515 1.387 . S
H513 C509 0.950 . S
H514 C511 0.950 . S
C515 C506 1.390 . S
C515 H508 0.950 . S
C515 C512 1.387 . S
C516 C517 1.394 . S
C516 H520 0.950 . S
C516 C525 1.390 . S
C517 C516 1.394 . S
C517 C519 1.374 1_565 S
H518 C525 0.950 . S
C519 C517 1.374 1_545 S
C519 C521 1.390 . S
C519 H523 0.950 . S
H520 C516 0.950 . S
C521 C519 1.390 . S
C521 C522 1.387 . S
C521 H524 0.950 . S
C522 C521 1.387 . S
C522 C525 1.387 1_545 S
H523 C519 0.950 . S
H524 C521 0.950 . S
C525 C516 1.390 . S
C525 H518 0.950 . S
C525 C522 1.387 1_565 S
C526 C527 1.387 . S
C526 H530 0.950 . S
C526 C535 1.390 1_455 S
C527 C526 1.387 . S
C527 C529 1.387 . S
H528 C535 0.950 . S
C529 C527 1.387 . S
C529 C531 1.390 . S
C529 H533 0.950 . S
H530 C526 0.950 . S
C531 C529 1.390 . S
C531 C532 1.387 . S
C531 H534 0.950 . S
C532 C531 1.387 . S
C532 C535 1.387 1_455 S
H533 C529 0.950 . S
H534 C531 0.950 . S
C535 C526 1.390 1_655 S
C535 H528 0.950 . S
C535 C532 1.387 1_655 S
C536 C537 1.387 . S
C536 H540 0.950 1_554 S
C536 C545 1.390 . S
C537 C536 1.387 . S
C537 C539 1.387 . S
H538 C545 0.950 . S
C539 C537 1.387 . S
C539 C541 1.390 . S
C539 H543 0.950 . S
H540 C536 0.950 1_556 S
C541 C539 1.390 . S
C541 C542 1.387 . S
C541 H544 0.950 . S
C542 C541 1.387 . S
C542 C545 1.387 . S
H543 C539 0.950 . S
H544 C541 0.950 . S
C545 C536 1.390 . S
C545 H538 0.950 . S
C545 C542 1.387 . S
C546 C547 1.387 . S
C546 H550 0.950 1_556 S
C546 C555 1.390 . S
C547 C546 1.387 . S
C547 C549 1.387 . S
H548 C555 0.950 . S
C549 C547 1.387 . S
C549 C551 1.390 . S
C549 H553 0.950 . S
H550 C546 0.950 1_554 S
C551 C549 1.390 . S
C551 C552 1.387 . S
C551 H554 0.950 . S
C552 C551 1.387 . S
C552 C555 1.387 . S
H553 C549 0.950 . S
H554 C551 0.950 . S
C555 C546 1.390 . S
C555 H548 0.950 . S
C555 C552 1.387 . S
C556 C557 1.387 . S
C556 H560 0.950 . S
C556 C565 1.390 . S
C557 C556 1.387 . S
C557 C559 1.387 . S
H558 C565 0.950 . S
C559 C557 1.387 . S
C559 C561 1.390 . S
C559 H563 0.950 1_554 S
H560 C556 0.950 . S
C561 C559 1.390 . S
C561 C562 1.387 . S
C561 H564 0.950 . S
C562 C561 1.387 . S
C562 C565 1.387 . S
H563 C559 0.950 1_556 S
H564 C561 0.950 . S
C565 C556 1.390 . S
C565 H558 0.950 . S
C565 C562 1.387 . S
C566 C567 1.387 . S
C566 H570 0.950 . S
C566 C575 1.390 . S
C567 C566 1.387 . S
C567 C569 1.387 1_556 S
H568 C575 0.950 . S
C569 C567 1.387 1_554 S
C569 C571 1.390 1_554 S
C569 H573 0.950 . S
H570 C566 0.950 . S
C571 C569 1.390 1_556 S
C571 C572 1.387 . S
C571 H574 0.950 1_556 S
C572 C571 1.387 . S
C572 C575 1.387 . S
H573 C569 0.950 . S
H574 C571 0.950 1_554 S
C575 C566 1.390 . S
C575 H568 0.950 . S
C575 C572 1.387 . S
C576 C577 1.387 . S
C576 H580 0.950 . S
C576 C585 1.390 . S
C577 C576 1.387 . S
C577 C579 1.387 . S
H578 C585 0.950 . S
C579 C577 1.387 . S
C579 C581 1.390 . S
C579 H583 0.950 . S
H580 C576 0.950 . S
C581 C579 1.390 . S
C581 C582 1.387 . S
C581 H584 0.950 . S
C582 C581 1.387 . S
C582 C585 1.387 . S
H583 C579 0.950 . S
H584 C581 0.950 . S
C585 C576 1.390 . S
C585 H578 0.950 . S
C585 C582 1.387 . S
C586 C587 1.387 . S
C586 H590 0.950 . S
C586 C595 1.390 . S
C587 C586 1.387 . S
C587 C589 1.387 . S
H588 C595 0.950 . S
C589 C587 1.387 . S
C589 C591 1.390 . S
C589 H593 0.950 . S
H590 C586 0.950 . S
C591 C589 1.390 . S
C591 C592 1.387 . S
C591 H594 0.950 . S
C592 C591 1.387 . S
C592 C595 1.387 . S
H593 C589 0.950 . S
H594 C591 0.950 . S
C595 C586 1.390 . S
C595 H588 0.950 . S
C595 C592 1.387 . S
C596 C597 1.387 . S
C596 H600 0.950 . S
C596 C605 1.390 . S
C597 C596 1.387 . S
C597 C599 1.387 . S
H598 C605 0.950 . S
C599 C597 1.387 . S
C599 C601 1.390 . S
C599 H603 0.950 . S
H600 C596 0.950 . S
C601 C599 1.390 . S
C601 C602 1.387 . S
C601 H604 0.950 . S
C602 C601 1.387 . S
C602 C605 1.387 . S
H603 C599 0.950 . S
H604 C601 0.950 . S
C605 C596 1.390 . S
C605 H598 0.950 . S
C605 C602 1.387 . S
C606 C607 1.387 . S
C606 H610 0.950 . S
C606 C615 1.390 . S
C607 C606 1.387 . S
C607 C609 1.387 . S
H608 C615 0.950 . S
C609 C607 1.387 . S
C609 C611 1.390 . S
C609 H613 0.950 . S
H610 C606 0.950 . S
C611 C609 1.390 . S
C611 C612 1.387 . S
C611 H614 0.950 . S
C612 C611 1.387 . S
C612 C615 1.387 . S
H613 C609 0.950 . S
H614 C611 0.950 . S
C615 C606 1.390 . S
C615 H608 0.950 . S
C615 C612 1.387 . S
C616 C617 1.387 . S
C616 H620 0.950 . S
C616 C625 1.390 . S
C617 C616 1.387 . S
C617 C619 1.387 . S
H618 C625 0.950 . S
C619 C617 1.387 . S
C619 C621 1.390 . S
C619 H623 0.950 . S
H620 C616 0.950 . S
C621 C619 1.390 . S
C621 C622 1.387 . S
C621 H624 0.950 . S
C622 C621 1.387 . S
C622 C625 1.387 . S
H623 C619 0.950 . S
H624 C621 0.950 . S
C625 C616 1.390 . S
C625 H618 0.950 . S
C625 C622 1.387 . S
C626 C627 1.387 . S
C626 H630 0.950 . S
C626 C635 1.390 . S
C627 C626 1.387 . S
C627 C629 1.387 . S
H628 C635 0.950 . S
C629 C627 1.387 . S
C629 C631 1.390 . S
C629 H633 0.950 . S
H630 C626 0.950 . S
C631 C629 1.390 . S
C631 C632 1.387 . S
C631 H634 0.950 . S
C632 C631 1.387 . S
C632 C635 1.387 . S
H633 C629 0.950 . S
H634 C631 0.950 . S
C635 C626 1.390 . S
C635 H628 0.950 . S
C635 C632 1.387 . S
C636 C637 1.387 . S
C636 H640 0.950 . S
C636 C645 1.390 . S
C637 C636 1.387 . S
C637 C639 1.387 . S
H638 C645 0.950 . S
C639 C637 1.387 . S
C639 C641 1.390 . S
C639 H643 0.950 . S
H640 C636 0.950 . S
C641 C639 1.390 . S
C641 C642 1.387 . S
C641 H644 0.950 . S
C642 C641 1.387 . S
C642 C645 1.387 . S
H643 C639 0.950 . S
H644 C641 0.950 . S
C645 C636 1.390 . S
C645 H638 0.950 . S
C645 C642 1.387 . S
C646 C647 1.387 . S
C646 H650 0.950 . S
C646 C655 1.390 . S
C647 C646 1.387 . S
C647 C649 1.387 . S
H648 C655 0.950 . S
C649 C647 1.387 . S
C649 C651 1.390 . S
C649 H653 0.950 . S
H650 C646 0.950 . S
C651 C649 1.390 . S
C651 C652 1.387 . S
C651 H654 0.950 . S
C652 C651 1.387 . S
C652 C655 1.387 . S
H653 C649 0.950 . S
H654 C651 0.950 . S
C655 C646 1.390 . S
C655 H648 0.950 . S
C655 C652 1.387 . S
C656 C657 1.387 . S
C656 H660 0.950 . S
C656 C665 1.390 . S
C657 C656 1.387 . S
C657 C659 1.387 . S
H658 C665 0.950 . S
C659 C657 1.387 . S
C659 C661 1.390 . S
C659 H663 0.950 . S
H660 C656 0.950 . S
C661 C659 1.390 . S
C661 C662 1.387 . S
C661 H664 0.950 . S
C662 C661 1.387 . S
C662 C665 1.387 . S
H663 C659 0.950 . S
H664 C661 0.950 . S
C665 C656 1.390 . S
C665 H658 0.950 . S
C665 C662 1.387 . S
C666 C667 1.387 . S
C666 H670 0.950 . S
C666 C675 1.390 . S
C667 C666 1.387 . S
C667 C669 1.387 . S
H668 C675 0.950 . S
C669 C667 1.387 . S
C669 C671 1.390 . S
C669 H673 0.950 . S
H670 C666 0.950 . S
C671 C669 1.390 . S
C671 C672 1.387 . S
C671 H674 0.950 . S
C672 C671 1.387 . S
C672 C675 1.387 . S
H673 C669 0.950 . S
H674 C671 0.950 . S
C675 C666 1.390 . S
C675 H668 0.950 . S
C675 C672 1.387 . S
C676 C677 1.387 . S
C676 H680 0.950 . S
C676 C685 1.390 . S
C677 C676 1.387 . S
C677 C679 1.387 . S
H678 C685 0.950 . S
C679 C677 1.387 . S
C679 C681 1.390 . S
C679 H683 0.950 . S
H680 C676 0.950 . S
C681 C679 1.390 . S
C681 C682 1.387 . S
C681 H684 0.950 . S
C682 C681 1.387 . S
C682 C685 1.387 . S
H683 C679 0.950 . S
H684 C681 0.950 . S
C685 C676 1.390 . S
C685 H678 0.950 . S
C685 C682 1.387 . S
C686 C687 1.387 . S
C686 H690 0.950 . S
C686 C695 1.390 . S
C687 C686 1.387 . S
C687 C689 1.387 . S
H688 C695 0.950 . S
C689 C687 1.387 . S
C689 C691 1.390 . S
C689 H693 0.950 . S
H690 C686 0.950 . S
C691 C689 1.390 . S
C691 C692 1.387 . S
C691 H694 0.950 . S
C692 C691 1.387 . S
C692 C695 1.387 . S
H693 C689 0.950 . S
H694 C691 0.950 . S
C695 C686 1.390 . S
C695 H688 0.950 . S
C695 C692 1.387 . S
C696 C697 1.387 . S
C696 H700 0.950 . S
C696 C705 1.390 . S
C697 C696 1.387 . S
C697 C699 1.387 . S
H698 C705 0.950 . S
C699 C697 1.387 . S
C699 C701 1.390 . S
C699 H703 0.950 . S
H700 C696 0.950 . S
C701 C699 1.390 . S
C701 C702 1.387 . S
C701 H704 0.950 . S
C702 C701 1.387 . S
C702 C705 1.387 . S
H703 C699 0.950 . S
H704 C701 0.950 . S
C705 C696 1.390 . S
C705 H698 0.950 . S
C705 C702 1.387 . S
C706 C707 1.387 . S
C706 H710 0.950 . S
C706 C715 1.390 . S
C707 C706 1.387 . S
C707 C709 1.387 . S
H708 C715 0.950 . S
C709 C707 1.387 . S
C709 C711 1.390 . S
C709 H713 0.950 . S
H710 C706 0.950 . S
C711 C709 1.390 . S
C711 C712 1.387 . S
C711 H714 0.950 . S
C712 C711 1.387 . S
C712 C715 1.387 . S
H713 C709 0.950 . S
H714 C711 0.950 . S
C715 C706 1.390 . S
C715 H708 0.950 . S
C715 C712 1.387 . S
C716 C717 1.387 . S
C716 H720 0.950 . S
C716 C725 1.390 . S
C717 C716 1.387 . S
C717 C719 1.387 . S
H718 C725 0.950 . S
C719 C717 1.387 . S
C719 C721 1.390 . S
C719 H723 0.950 . S
H720 C716 0.950 . S
C721 C719 1.390 . S
C721 C722 1.387 . S
C721 H724 0.950 . S
C722 C721 1.387 . S
C722 C725 1.387 . S
H723 C719 0.950 . S
H724 C721 0.950 . S
C725 C716 1.390 . S
C725 H718 0.950 . S
C725 C722 1.387 . S
C726 C727 1.387 . S
C726 H730 0.950 . S
C726 C735 1.390 . S
C727 C726 1.387 . S
C727 C729 1.387 . S
H728 C735 0.950 . S
C729 C727 1.387 . S
C729 C731 1.390 . S
C729 H733 0.950 . S
H730 C726 0.950 . S
C731 C729 1.390 . S
C731 C732 1.387 . S
C731 H734 0.950 . S
C732 C731 1.387 . S
C732 C735 1.387 . S
H733 C729 0.950 . S
H734 C731 0.950 . S
C735 C726 1.390 . S
C735 H728 0.950 . S
C735 C732 1.387 . S
C736 C737 1.387 . S
C736 H740 0.950 . S
C736 C745 1.390 . S
C737 C736 1.387 . S
C737 C739 1.387 . S
H738 C745 0.950 . S
C739 C737 1.387 . S
C739 C741 1.390 . S
C739 H743 0.950 . S
H740 C736 0.950 . S
C741 C739 1.390 . S
C741 C742 1.387 . S
C741 H744 0.950 . S
C742 C741 1.387 . S
C742 C745 1.387 . S
H743 C739 0.950 . S
H744 C741 0.950 . S
C745 C736 1.390 . S
C745 H738 0.950 . S
C745 C742 1.387 . S
C746 C747 1.387 . S
C746 H750 0.950 . S
C746 C755 1.390 . S
C747 C746 1.387 . S
C747 C749 1.387 . S
H748 C755 0.950 . S
C749 C747 1.387 . S
C749 C751 1.390 . S
C749 H753 0.950 . S
H750 C746 0.950 . S
C751 C749 1.390 . S
C751 C752 1.387 . S
C751 H754 0.950 . S
C752 C751 1.387 . S
C752 C755 1.387 . S
H753 C749 0.950 . S
H754 C751 0.950 . S
C755 C746 1.390 . S
C755 H748 0.950 . S
C755 C752 1.387 . S
C756 C757 1.387 . S
C756 H760 0.950 . S
C756 C765 1.390 . S
C757 C756 1.387 . S
C757 C759 1.387 . S
H758 C765 0.950 . S
C759 C757 1.387 . S
C759 C761 1.390 . S
C759 H763 0.950 . S
H760 C756 0.950 . S
C761 C759 1.390 . S
C761 C762 1.387 . S
C761 H764 0.950 . S
C762 C761 1.387 . S
C762 C765 1.387 . S
H763 C759 0.950 . S
H764 C761 0.950 . S
C765 C756 1.390 . S
C765 H758 0.950 . S
C765 C762 1.387 . S
C766 C767 1.387 . S
C766 H770 0.950 . S
C766 C775 1.390 . S
C767 C766 1.387 . S
C767 C769 1.387 . S
H768 C775 0.950 . S
C769 C767 1.387 . S
C769 C771 1.390 . S
C769 H773 0.950 . S
H770 C766 0.950 . S
C771 C769 1.390 . S
C771 C772 1.387 . S
C771 H774 0.950 . S
C772 C771 1.387 . S
C772 C775 1.387 . S
H773 C769 0.950 . S
H774 C771 0.950 . S
C775 C766 1.390 . S
C775 H768 0.950 . S
C775 C772 1.387 . S
C776 C777 1.387 . S
C776 H780 0.950 . S
C776 C785 1.390 . S
C777 C776 1.387 . S
C777 C779 1.387 . S
H778 C785 0.950 . S
C779 C777 1.387 . S
C779 C781 1.390 . S
C779 H783 0.950 . S
H780 C776 0.950 . S
C781 C779 1.390 . S
C781 C782 1.387 . S
C781 H784 0.950 . S
C782 C781 1.387 . S
C782 C785 1.387 . S
H783 C779 0.950 . S
H784 C781 0.950 . S
C785 C776 1.390 . S
C785 H778 0.950 . S
C785 C782 1.387 . S
C786 C787 1.387 . S
C786 H790 0.950 . S
C786 C795 1.390 . S
C787 C786 1.387 . S
C787 C789 1.387 . S
H788 C795 0.950 . S
C789 C787 1.387 . S
C789 C791 1.390 . S
C789 H793 0.950 . S
H790 C786 0.950 . S
C791 C789 1.390 . S
C791 C792 1.387 . S
C791 H794 0.950 . S
C792 C791 1.387 . S
C792 C795 1.387 . S
H793 C789 0.950 . S
H794 C791 0.950 . S
C795 C786 1.390 . S
C795 H788 0.950 . S
C795 C792 1.387 . S
C796 C797 1.387 . S
C796 H800 0.950 . S
C796 C805 1.390 . S
C797 C796 1.387 . S
C797 C799 1.387 . S
H798 C805 0.950 . S
C799 C797 1.387 . S
C799 C801 1.390 . S
C799 H803 0.950 . S
H800 C796 0.950 . S
C801 C799 1.390 . S
C801 C802 1.387 . S
C801 H804 0.950 . S
C802 C801 1.387 . S
C802 C805 1.387 . S
H803 C799 0.950 . S
H804 C801 0.950 . S
C805 C796 1.390 . S
C805 H798 0.950 . S
C805 C802 1.387 . S
C806 C807 1.387 . S
C806 H810 0.950 . S
C806 C815 1.390 . S
C807 C806 1.387 . S
C807 C809 1.387 . S
H808 C815 0.950 . S
C809 C807 1.387 . S
C809 C811 1.390 . S
C809 H813 0.950 . S
H810 C806 0.950 . S
C811 C809 1.390 . S
C811 C812 1.387 . S
C811 H814 0.950 . S
C812 C811 1.387 . S
C812 C815 1.387 . S
H813 C809 0.950 . S
H814 C811 0.950 . S
C815 C806 1.390 . S
C815 H808 0.950 . S
C815 C812 1.387 . S
C337 C311 2.072 . S
C342 C8 1.979 . S
C347 C17 2.033 . S
C352 C232 1.951 . S
C357 C325 2.037 . S
C362 C36 1.938 . S
C367 C302 1.957 . S
C372 C50 2.032 . S
C377 C260 2.032 . S
C382 C64 1.957 . S
C387 C269 1.890 . S
C392 C73 2.085 . S
C397 C288 2.074 . S
C402 C87 1.916 . S
C407 C101 2.059 . S
C412 C241 1.883 . S
C417 C185 2.066 . S
C422 C115 1.907 . S
C427 C204 1.964 . S
C432 C134 2.055 . S
C437 C143 1.915 . S
C442 C213 2.080 . S
C447 C162 2.057 . S
C452 C176 1.967 . S
C457 C106 1.979 1_545 S
C462 C199 2.072 . S
C467 C218 1.951 1_455 S
C472 C59 2.033 . S
C477 C78 1.938 1_565 S
C482 C171 2.038 . S
C487 C190 1.960 1_655 S
C492 C92 2.034 . S
C497 C148 2.034 . S
C502 C22 1.960 1_565 S
C507 C31 2.085 . S
C512 C157 1.889 1_655 S
C517 C45 1.928 . S
C522 C120 2.076 . S
C527 C3 2.057 . S
C532 C129 1.879 1_455 S
C537 C283 1.907 1_554 S
C542 C297 2.066 . S
C547 C316 1.967 1_556 S
C552 C246 2.057 . S
C557 C255 1.912 1_554 S
C562 C227 2.078 . S
C567 C330 1.969 1_556 S
C572 C274 2.058 . S
C577 C9 1.010 . S
C582 C121 1.230 . S
C587 C133 1.104 . S
C592 C21 1.288 . S
C597 C37 0.968 . S
C602 C149 1.176 . S
C607 C51 1.207 . S
C612 C161 1.093 . S
C617 C65 0.994 . S
C622 C175 1.261 . S
C627 C77 1.279 . S
C632 C191 1.016 . S
C637 C203 1.283 . S
C642 C91 1.108 . S
C647 C219 1.029 . S
C652 C105 1.279 . S
C657 C119 1.149 . S
C662 C231 1.322 . S
C667 C135 1.197 . S
C672 C331 0.964 . S
C677 C301 1.354 . S
C682 C147 1.170 . S
C687 C317 0.962 . S
C692 C163 1.170 . S
C697 C247 1.198 . S
C702 C177 0.965 . S
C707 C259 1.174 . S
C712 C189 1.352 . S
C717 C205 0.966 . S
C722 C275 1.173 . S
C727 C217 1.322 . S
C732 C287 1.149 . S
C737 C7 1.279 . S
C742 C233 1.032 . S
C747 C245 1.110 . S
C752 C63 1.287 . S
C757 C261 1.176 . S
C762 C79 0.969 . S
C767 C273 1.093 . S
C772 C93 1.207 . S
C777 C289 1.229 . S
C782 C107 1.012 . S
C787 C303 1.013 . S
C792 C35 1.278 . S
C797 C49 1.109 . S
C802 C315 1.281 . S
C807 C329 1.263 . S
C812 C23 0.997 . S
