# Generated by pormake.
# Topology lcs, (4)-cn, num edge types: 1
# Building blocks:
#     Node 0, Type 0, BuildingBlock: KUFVIS_clean_sbu_0, # of connection points: 4
#     Node 1, Type 0, BuildingBlock: KUFVIS_clean_sbu_0, # of connection points: 4
#     Node 2, Type 0, BuildingBlock: KUFVIS_clean_sbu_0, # of connection points: 4
#     Node 3, Type 0, BuildingBlock: KUFVIS_clean_sbu_0, # of connection points: 4
#     Node 4, Type 0, BuildingBlock: KUFVIS_clean_sbu_0, # of connection points: 4
#     Node 5, Type 0, BuildingBlock: KUFVIS_clean_sbu_0, # of connection points: 4
#     Node 6, Type 0, BuildingBlock: KUFVIS_clean_sbu_0, # of connection points: 4
#     Node 7, Type 0, BuildingBlock: KUFVIS_clean_sbu_0, # of connection points: 4
#     Node 8, Type 0, BuildingBlock: KUFVIS_clean_sbu_0, # of connection points: 4
#     Node 9, Type 0, BuildingBlock: KUFVIS_clean_sbu_0, # of connection points: 4
#     Node 10, Type 0, BuildingBlock: KUFVIS_clean_sbu_0, # of connection points: 4
#     Node 11, Type 0, BuildingBlock: KUFVIS_clean_sbu_0, # of connection points: 4
#     Node 12, Type 0, BuildingBlock: KUFVIS_clean_sbu_0, # of connection points: 4
#     Node 13, Type 0, BuildingBlock: KUFVIS_clean_sbu_0, # of connection points: 4
#     Node 14, Type 0, BuildingBlock: KUFVIS_clean_sbu_0, # of connection points: 4
#     Node 15, Type 0, BuildingBlock: KUFVIS_clean_sbu_0, # of connection points: 4
#     Node 16, Type 0, BuildingBlock: KUFVIS_clean_sbu_0, # of connection points: 4
#     Node 17, Type 0, BuildingBlock: KUFVIS_clean_sbu_0, # of connection points: 4
#     Node 18, Type 0, BuildingBlock: KUFVIS_clean_sbu_0, # of connection points: 4
#     Node 19, Type 0, BuildingBlock: KUFVIS_clean_sbu_0, # of connection points: 4
#     Node 20, Type 0, BuildingBlock: KUFVIS_clean_sbu_0, # of connection points: 4
#     Node 21, Type 0, BuildingBlock: KUFVIS_clean_sbu_0, # of connection points: 4
#     Node 22, Type 0, BuildingBlock: KUFVIS_clean_sbu_0, # of connection points: 4
#     Node 23, Type 0, BuildingBlock: KUFVIS_clean_sbu_0, # of connection points: 4
#     Edge 24, Type (0, 0), BuildingBlock: CIFDUS_clean_linker_0, # of connection points: 2
#     Edge 25, Type (0, 0), BuildingBlock: CIFDUS_clean_linker_0, # of connection points: 2
#     Edge 26, Type (0, 0), BuildingBlock: CIFDUS_clean_linker_0, # of connection points: 2
#     Edge 27, Type (0, 0), BuildingBlock: CIFDUS_clean_linker_0, # of connection points: 2
#     Edge 28, Type (0, 0), BuildingBlock: CIFDUS_clean_linker_0, # of connection points: 2
#     Edge 29, Type (0, 0), BuildingBlock: CIFDUS_clean_linker_0, # of connection points: 2
#     Edge 30, Type (0, 0), BuildingBlock: CIFDUS_clean_linker_0, # of connection points: 2
#     Edge 31, Type (0, 0), BuildingBlock: CIFDUS_clean_linker_0, # of connection points: 2
#     Edge 32, Type (0, 0), BuildingBlock: CIFDUS_clean_linker_0, # of connection points: 2
#     Edge 33, Type (0, 0), BuildingBlock: CIFDUS_clean_linker_0, # of connection points: 2
#     Edge 34, Type (0, 0), BuildingBlock: CIFDUS_clean_linker_0, # of connection points: 2
#     Edge 35, Type (0, 0), BuildingBlock: CIFDUS_clean_linker_0, # of connection points: 2
#     Edge 36, Type (0, 0), BuildingBlock: CIFDUS_clean_linker_0, # of connection points: 2
#     Edge 37, Type (0, 0), BuildingBlock: CIFDUS_clean_linker_0, # of connection points: 2
#     Edge 38, Type (0, 0), BuildingBlock: CIFDUS_clean_linker_0, # of connection points: 2
#     Edge 39, Type (0, 0), BuildingBlock: CIFDUS_clean_linker_0, # of connection points: 2
#     Edge 40, Type (0, 0), BuildingBlock: CIFDUS_clean_linker_0, # of connection points: 2
#     Edge 41, Type (0, 0), BuildingBlock: CIFDUS_clean_linker_0, # of connection points: 2
#     Edge 42, Type (0, 0), BuildingBlock: CIFDUS_clean_linker_0, # of connection points: 2
#     Edge 43, Type (0, 0), BuildingBlock: CIFDUS_clean_linker_0, # of connection points: 2
#     Edge 44, Type (0, 0), BuildingBlock: CIFDUS_clean_linker_0, # of connection points: 2
#     Edge 45, Type (0, 0), BuildingBlock: CIFDUS_clean_linker_0, # of connection points: 2
#     Edge 46, Type (0, 0), BuildingBlock: CIFDUS_clean_linker_0, # of connection points: 2
#     Edge 47, Type (0, 0), BuildingBlock: CIFDUS_clean_linker_0, # of connection points: 2
#     Edge 48, Type (0, 0), BuildingBlock: CIFDUS_clean_linker_0, # of connection points: 2
#     Edge 49, Type (0, 0), BuildingBlock: CIFDUS_clean_linker_0, # of connection points: 2
#     Edge 50, Type (0, 0), BuildingBlock: CIFDUS_clean_linker_0, # of connection points: 2
#     Edge 51, Type (0, 0), BuildingBlock: CIFDUS_clean_linker_0, # of connection points: 2
#     Edge 52, Type (0, 0), BuildingBlock: CIFDUS_clean_linker_0, # of connection points: 2
#     Edge 53, Type (0, 0), BuildingBlock: CIFDUS_clean_linker_0, # of connection points: 2
#     Edge 54, Type (0, 0), BuildingBlock: CIFDUS_clean_linker_0, # of connection points: 2
#     Edge 55, Type (0, 0), BuildingBlock: CIFDUS_clean_linker_0, # of connection points: 2
#     Edge 56, Type (0, 0), BuildingBlock: CIFDUS_clean_linker_0, # of connection points: 2
#     Edge 57, Type (0, 0), BuildingBlock: CIFDUS_clean_linker_0, # of connection points: 2
#     Edge 58, Type (0, 0), BuildingBlock: CIFDUS_clean_linker_0, # of connection points: 2
#     Edge 59, Type (0, 0), BuildingBlock: CIFDUS_clean_linker_0, # of connection points: 2
#     Edge 60, Type (0, 0), BuildingBlock: CIFDUS_clean_linker_0, # of connection points: 2
#     Edge 61, Type (0, 0), BuildingBlock: CIFDUS_clean_linker_0, # of connection points: 2
#     Edge 62, Type (0, 0), BuildingBlock: CIFDUS_clean_linker_0, # of connection points: 2
#     Edge 63, Type (0, 0), BuildingBlock: CIFDUS_clean_linker_0, # of connection points: 2
#     Edge 64, Type (0, 0), BuildingBlock: CIFDUS_clean_linker_0, # of connection points: 2
#     Edge 65, Type (0, 0), BuildingBlock: CIFDUS_clean_linker_0, # of connection points: 2
#     Edge 66, Type (0, 0), BuildingBlock: CIFDUS_clean_linker_0, # of connection points: 2
#     Edge 67, Type (0, 0), BuildingBlock: CIFDUS_clean_linker_0, # of connection points: 2
#     Edge 68, Type (0, 0), BuildingBlock: CIFDUS_clean_linker_0, # of connection points: 2
#     Edge 69, Type (0, 0), BuildingBlock: CIFDUS_clean_linker_0, # of connection points: 2
#     Edge 70, Type (0, 0), BuildingBlock: CIFDUS_clean_linker_0, # of connection points: 2
#     Edge 71, Type (0, 0), BuildingBlock: CIFDUS_clean_linker_0, # of connection points: 2
# Relax obj value: 0.012
# Max RMSD: 0.063
# Mean RMSD: 0.054
data_MOF--net-lcs--node1-KUFVIS_clean_sbu_0--edge1-CIFDUS_clean_linker_0
_symmetry_space_group_name_H-M    P1
_symmetry_Int_Tables_number       1
_symmetry_cell_setting            triclinic
loop_
_symmetry_equiv_pos_as_xyz
'x, y, z'
_cell_length_a     42.178107
_cell_length_b     43.006587
_cell_length_c     42.906011
_cell_angle_alpha  90.171394
_cell_angle_beta   91.303327
_cell_angle_gamma 91.038503
loop_
_atom_site_label
_atom_site_type_symbol
_atom_site_fract_x
_atom_site_fract_y
_atom_site_fract_z
_atom_type_partial_charge
Mn0 Mn 1.00746 0.25259 0.38124 0.0
Mn1 Mn 0.03472 0.29063 0.44588 0.0
C2 C 0.05691 0.2409 0.40222 0.0
C3 C 0.97928 0.21239 0.35579 0.0
C4 C 0.03686 0.31888 0.38136 0.0
O5 O 0.96733 0.27153 0.39795 0.0
O6 O 0.98784 0.29641 0.44019 0.0
C7 C 1.00131 0.25108 0.49152 0.0
N8 N 0.02879 0.26372 0.48076 0.0
C9 C 0.05944 0.23895 0.52132 0.0
C10 C 0.03144 0.22584 0.53294 0.0
C11 C 1.00226 0.23187 0.51793 0.0
C12 C 0.05702 0.25784 0.49487 0.0
H13 H 0.97883 0.25554 0.48001 0.0
C14 C 0.96437 0.28855 0.42209 0.0
O15 O 0.98513 0.2387 0.34221 0.0
O16 O 0.98871 0.20966 0.38466 0.0
N17 N 0.07916 0.28742 0.45531 0.0
C18 C 0.10405 0.30171 0.44113 0.0
C19 C 0.13494 0.29805 0.45332 0.0
C20 C 0.13993 0.28009 0.4802 0.0
C21 C 0.11391 0.26617 0.49481 0.0
C22 C 0.08363 0.2708 0.4817 0.0
H23 H 0.10044 0.31538 0.42039 0.0
O24 O 0.0496 0.2346 0.37336 0.0
O25 O 0.03475 0.25363 0.41852 0.0
O26 O 0.02339 0.29576 0.3674 0.0
O27 O 0.04267 0.31951 0.41075 0.0
C28 C 0.11687 0.24755 0.52164 0.0
C29 C 0.08967 0.23382 0.53479 0.0
H30 H 0.03208 0.211 0.5533 0.0
H31 H 0.98056 0.22173 0.52668 0.0
H32 H 0.15488 0.30891 0.44191 0.0
H33 H 0.16382 0.27704 0.48935 0.0
H34 H 0.14 0.24335 0.53213 0.0
H35 H 0.09228 0.21929 0.55524 0.0
Mn36 Mn 0.03149 0.78304 0.63747 0.0
Mn37 Mn 0.99874 0.80698 0.70422 0.0
C38 C 0.0482 0.8296 0.66068 0.0
C39 C 0.06893 0.75413 0.61118 0.0
C40 C 0.96532 0.81156 0.64101 0.0
O41 O 0.01098 0.74342 0.65414 0.0
O42 O 0.99108 0.76119 0.69906 0.0
C43 C 0.041 0.77392 0.74855 0.0
N44 N 0.0286 0.80098 0.73778 0.0
C45 C 0.05932 0.83096 0.77552 0.0
C46 C 0.07224 0.80339 0.78714 0.0
C47 C 0.06306 0.77476 0.77356 0.0
C48 C 0.03734 0.82867 0.75062 0.0
H49 H 0.03422 0.75187 0.73805 0.0
C50 C 0.99644 0.73927 0.6796 0.0
O51 O 0.04208 0.7614 0.59801 0.0
O52 O 0.07409 0.76366 0.63961 0.0
N53 N 1.00479 0.85053 0.71237 0.0
C54 C 0.99093 0.87507 0.69777 0.0
C55 C 0.99778 0.90542 0.70841 0.0
C56 C 0.01874 0.91024 0.73395 0.0
C57 C 0.03256 0.88462 0.74872 0.0
C58 C 0.0245 0.85488 0.73736 0.0
H59 H 0.97493 0.87154 0.67804 0.0
O60 O 0.05243 0.82486 0.63116 0.0
O61 O 0.03414 0.80706 0.67535 0.0
O62 O 0.98779 0.80019 0.62542 0.0
O63 O 0.96678 0.81492 0.67065 0.0
C64 C 0.05436 0.88746 0.77398 0.0
C65 C 0.06779 0.86066 0.78732 0.0
H66 H 0.08938 0.80395 0.80633 0.0
H67 H 0.07306 0.7534 0.7823 0.0
H68 H 0.98711 0.92508 0.69682 0.0
H69 H 0.02428 0.93371 0.74183 0.0
H70 H 0.06123 0.91017 0.78311 0.0
H71 H 0.0848 0.86316 0.8065 0.0
Mn72 Mn 0.51283 0.74601 0.87989 0.0
Mn73 Mn 0.5381 0.78604 0.94394 0.0
C74 C 0.55934 0.73214 0.90551 0.0
C75 C 0.48373 0.70639 0.85484 0.0
C76 C 0.54385 0.81114 0.8783 0.0
O77 O 0.47304 0.76805 0.89313 0.0
O78 O 0.4916 0.79223 0.93676 0.0
C79 C 0.50312 0.75084 0.99182 0.0
N80 N 0.53105 0.76179 0.98046 0.0
C81 C 0.56054 0.73999 0.02355 0.0
C82 C 0.53206 0.72864 0.03582 0.0
C83 C 0.50325 0.73404 0.01984 0.0
C84 C 0.55892 0.75674 0.99565 0.0
H85 H 0.48093 0.75488 0.97959 0.0
C86 C 0.46914 0.78502 0.91718 0.0
O87 O 0.49232 0.73143 0.84032 0.0
O88 O 0.49116 0.70458 0.88433 0.0
N89 N 0.58231 0.78182 0.95381 0.0
C90 C 0.60782 0.79236 0.93772 0.0
C91 C 0.63855 0.78781 0.94996 0.0
C92 C 0.64274 0.77266 0.97868 0.0
C93 C 0.61613 0.7622 0.99491 0.0
C94 C 0.58607 0.76753 0.98163 0.0
H95 H 0.60477 0.80381 0.91554 0.0
O96 O 0.55437 0.72506 0.87636 0.0
O97 O 0.53701 0.74751 0.91889 0.0
O98 O 0.53187 0.78722 0.86461 0.0
O99 O 0.54728 0.81321 0.90787 0.0
C100 C 0.61827 0.74594 0.02331 0.0
C101 C 0.5905 0.73482 0.03761 0.0
H102 H 0.53207 0.71552 0.05733 0.0
H103 H 0.48119 0.72523 0.02908 0.0
H104 H 0.65897 0.79579 0.9372 0.0
H105 H 0.66649 0.76887 0.98787 0.0
H106 H 0.64119 0.74139 0.03408 0.0
H107 H 0.59249 0.72195 0.05921 0.0
Mn108 Mn 0.52411 0.273 0.14351 0.0
Mn109 Mn 0.48839 0.29778 0.20828 0.0
C110 C 0.53986 0.31936 0.1671 0.0
C111 C 0.56545 0.2459 0.12077 0.0
C112 C 0.45825 0.30303 0.14355 0.0
O113 O 0.50273 0.23344 0.15934 0.0
O114 O 0.47963 0.25235 0.20226 0.0
C115 C 0.52698 0.26313 0.25455 0.0
N116 N 0.5162 0.29066 0.24326 0.0
C117 C 0.54628 0.31949 0.28235 0.0
C118 C 0.55751 0.29143 0.29452 0.0
C119 C 0.54783 0.26315 0.28054 0.0
C120 C 0.52536 0.31802 0.25655 0.0
H121 H 0.51983 0.24133 0.24374 0.0
C122 C 0.48598 0.23006 0.18359 0.0
O123 O 0.5394 0.25139 0.1051 0.0
O124 O 0.56669 0.25479 0.14959 0.0
N125 N 0.49547 0.3411 0.21698 0.0
C126 C 0.48354 0.36617 0.20165 0.0
C127 C 0.49134 0.39628 0.21243 0.0
C128 C 0.5113 0.4003 0.23883 0.0
C129 C 0.52314 0.37416 0.25434 0.0
C130 C 0.51421 0.34472 0.24277 0.0
H131 H 0.46844 0.36325 0.18117 0.0
O132 O 0.54519 0.31468 0.13782 0.0
O133 O 0.52487 0.29709 0.18121 0.0
O134 O 0.48068 0.29022 0.12879 0.0
O135 O 0.45893 0.30682 0.17315 0.0
C136 C 0.5439 0.37618 0.28049 0.0
C137 C 0.55549 0.34887 0.29447 0.0
H138 H 0.57377 0.29135 0.31443 0.0
H139 H 0.55653 0.24141 0.28969 0.0
H140 H 0.48221 0.41634 0.20025 0.0
H141 H 0.51762 0.42357 0.24682 0.0
H142 H 0.55138 0.39863 0.28982 0.0
H143 H 0.57171 0.35073 0.31435 0.0
Mn144 Mn 0.01382 0.7544 0.13667 0.0
Mn145 Mn 0.99492 0.80256 0.07713 0.0
C146 C 0.96316 0.75065 0.11284 0.0
C147 C 0.03643 0.70863 0.15651 0.0
C148 C 0.99279 0.82228 0.14482 0.0
O149 O 0.05774 0.77116 0.12451 0.0
O150 O 0.04071 0.80178 0.086 0.0
C151 C 0.02526 0.76534 0.0283 0.0
N152 N 0.99991 0.78129 0.03857 0.0
C153 C 0.97539 0.78097 0.98753 0.0
C154 C 1.00104 0.76424 0.97632 0.0
C155 C 0.02593 0.75608 0.9969 0.0
C156 C 0.97523 0.78793 0.0194 0.0
H157 H 0.04496 0.76022 0.04386 0.0
C158 C 0.0629 0.79071 0.1029 0.0
O159 O 0.03304 0.73315 0.17372 0.0
O160 O 0.02693 0.71071 0.12761 0.0
N161 N 0.95201 0.80829 0.06361 0.0
C162 C 0.93006 0.82597 0.07787 0.0
C163 C 0.90589 0.83982 0.05997 0.0
C164 C 0.90455 0.83556 0.02747 0.0
C165 C 0.92685 0.8166 0.0133 0.0
C166 C 0.95057 0.80365 0.03234 0.0
H167 H 0.93175 0.83052 0.1026 0.0
O168 O 0.96887 0.74005 0.1406 0.0
O169 O 0.98762 0.76247 0.09865 0.0
O170 O 1.00294 0.79681 0.15629 0.0
O171 O 0.98872 0.82658 0.1156 0.0
C172 C 0.92662 0.81026 0.98103 0.0
C173 C 0.95053 0.7919 0.96825 0.0
H174 H 1.00211 0.75797 0.9519 0.0
H175 H 0.04596 0.74345 0.9884 0.0
H176 H 0.8886 0.85416 0.07113 0.0
H177 H 0.88591 0.84633 0.01375 0.0
H178 H 0.90818 0.8194 0.96586 0.0
H179 H 0.95006 0.78708 0.94345 0.0
Mn180 Mn 0.53536 0.76888 0.38269 0.0
Mn181 Mn 0.51196 0.81284 0.44283 0.0
C182 C 0.57046 0.80385 0.40676 0.0
C183 C 0.55827 0.7235 0.36407 0.0
C184 C 0.49381 0.82676 0.37561 0.0
O185 O 0.49586 0.74556 0.39678 0.0
O186 O 0.48173 0.77682 0.43619 0.0
C187 C 0.52257 0.76696 0.49317 0.0
N188 N 0.52856 0.79549 0.48068 0.0
C189 C 0.56442 0.80908 0.52321 0.0
C190 C 0.55844 0.77992 0.53661 0.0
C191 C 0.53744 0.75878 0.52151 0.0
C192 C 0.54866 0.81606 0.49508 0.0
H193 H 0.50663 0.75051 0.48158 0.0
C194 C 0.4775 0.75257 0.41889 0.0
O195 O 0.54 0.74017 0.34621 0.0
O196 O 0.56225 0.73268 0.39267 0.0
N197 N 0.53945 0.84778 0.45209 0.0
C198 C 0.54444 0.874 0.43501 0.0
C199 C 0.56562 0.89714 0.44639 0.0
C200 C 0.58149 0.89308 0.47518 0.0
C201 C 0.57597 0.86593 0.49237 0.0
C202 C 0.55432 0.84381 0.48001 0.0
H203 H 0.53278 0.87698 0.41266 0.0
O204 O 0.57477 0.79504 0.37824 0.0
O205 O 0.54534 0.79249 0.41989 0.0
O206 O 0.50742 0.80331 0.36375 0.0
O207 O 0.49455 0.83293 0.40478 0.0
C208 C 0.5917 0.85959 0.5209 0.0
C209 C 0.58593 0.83119 0.53631 0.0
H210 H 0.57008 0.77342 0.55834 0.0
H211 H 0.53284 0.73616 0.53162 0.0
H212 H 0.56996 0.91791 0.43285 0.0
H213 H 0.59815 0.91078 0.48367 0.0
H214 H 0.60865 0.8762 0.53096 0.0
H215 H 0.5985 0.82641 0.55801 0.0
Mn216 Mn 0.51272 0.2527 0.64674 0.0
Mn217 Mn 0.49119 0.29511 0.58378 0.0
C218 C 0.46389 0.24257 0.6213 0.0
C219 C 0.53724 0.21088 0.67204 0.0
C220 C 0.48541 0.31895 0.64945 0.0
O221 O 0.55534 0.27229 0.63392 0.0
O222 O 0.53683 0.30082 0.59399 0.0
C223 C 0.52847 0.25984 0.53837 0.0
N224 N 0.50009 0.27068 0.5479 0.0
C225 C 0.47224 0.24408 0.50598 0.0
C226 C 0.50111 0.23269 0.49563 0.0
C227 C 0.52939 0.24078 0.51181 0.0
C228 C 0.47287 0.26356 0.53218 0.0
H229 H 0.55024 0.26548 0.55101 0.0
C230 C 0.55943 0.29186 0.61194 0.0
O231 O 0.53169 0.23678 0.68623 0.0
O232 O 0.52968 0.20949 0.64251 0.0
N233 N 0.44789 0.29207 0.57049 0.0
C234 C 0.42223 0.30597 0.58284 0.0
C235 C 0.39216 0.30092 0.5689 0.0
C236 C 0.3889 0.28143 0.5427 0.0
C237 C 0.41592 0.2685 0.52975 0.0
C238 C 0.44533 0.27536 0.54385 0.0
H239 H 0.42458 0.3203 0.60348 0.0
O240 O 0.4687 0.2347 0.65014 0.0
O241 O 0.48792 0.25611 0.60787 0.0
O242 O 0.49781 0.29519 0.66228 0.0
O243 O 0.48083 0.32128 0.62002 0.0
C244 C 0.41468 0.2475 0.50465 0.0
C245 C 0.44272 0.23582 0.4922 0.0
H246 H 0.50181 0.21749 0.47548 0.0
H247 H 0.5518 0.23203 0.50406 0.0
H248 H 0.37144 0.31116 0.5789 0.0
H249 H 0.3655 0.27603 0.53319 0.0
H250 H 0.39215 0.23842 0.49639 0.0
H251 H 0.44119 0.2196 0.47284 0.0
Mn252 Mn 0.02582 0.27277 0.8858 0.0
Mn253 Mn 1.00714 0.30933 0.95251 0.0
C254 C 0.06384 0.30283 0.91226 0.0
C255 C 0.0434 0.22833 0.86013 0.0
C256 C 0.98596 0.33149 0.88829 0.0
O257 O 0.98499 0.25054 0.89892 0.0
O258 O 0.97701 0.27364 0.94531 0.0
C259 C 0.02284 0.2599 0.99783 0.0
N260 N 0.02709 0.28952 0.98739 0.0
C261 C 0.06512 0.30109 0.02866 0.0
C262 C 0.06098 0.27077 0.03999 0.0
C263 C 0.03979 0.25008 0.02447 0.0
C264 C 0.0474 0.30963 1.00215 0.0
H265 H 1.0067 0.24388 0.98587 0.0
C266 C 0.96971 0.25342 0.92416 0.0
O267 O 0.02613 0.24875 0.84576 0.0
O268 O 0.04987 0.23342 0.88941 0.0
N269 N 0.03462 0.34409 0.96228 0.0
C270 C 0.03757 0.37172 0.94706 0.0
C271 C 0.05878 0.39463 0.95887 0.0
C272 C 0.07661 0.38897 0.98625 0.0
C273 C 0.07299 0.36045 1.00164 0.0
C274 C 0.05131 0.33859 0.98891 0.0
H275 H 0.02403 0.37616 0.92593 0.0
O276 O 0.06692 0.29657 0.88288 0.0
O277 O 0.03865 0.29125 0.92513 0.0
O278 O 1.00083 0.31146 0.87248 0.0
O279 O 0.98589 0.33193 0.91806 0.0
C280 C 0.09061 0.35257 0.02868 0.0
C281 C 0.08669 0.32291 0.04217 0.0
H282 H 0.07419 0.26303 0.06039 0.0
H283 H 0.03662 0.22659 0.03297 0.0
H284 H 0.06153 0.41654 0.94679 0.0
H285 H 0.09323 0.40655 0.99507 0.0
H286 H 0.10765 0.36896 0.03898 0.0
H287 H 0.10075 0.31695 0.06266 0.0
Mn288 Mn 0.38664 0.02319 0.25613 0.0
Mn289 Mn 0.32777 0.97063 0.26795 0.0
C290 C 0.36688 0.99294 0.21514 0.0
C291 C 0.40385 0.07343 0.24375 0.0
C292 C 0.39608 0.95997 0.28822 0.0
O293 O 0.3683 0.03771 0.29704 0.0
O294 O 0.32895 1.00201 0.30262 0.0
C295 C 0.27343 0.01267 0.25945 0.0
N296 N 0.2891 0.98667 0.25095 0.0
C297 C 0.2499 0.97472 0.21084 0.0
C298 C 0.23324 1.00125 0.21933 0.0
C299 C 0.24509 0.02032 0.24371 0.0
C300 C 0.27792 0.96818 0.22749 0.0
H301 H 0.28252 0.02753 0.27804 0.0
C302 C 0.34469 0.0264 0.31164 0.0
O303 O 0.42216 0.05449 0.2589 0.0
O304 O 0.37549 0.06347 0.23626 0.0
N305 N 0.32356 0.93952 0.23598 0.0
C306 C 0.3432 0.91561 0.22967 0.0
C307 C 0.33501 0.89461 0.20555 0.0
C308 C 0.30674 0.8984 0.18817 0.0
C309 C 0.28684 0.92311 0.19516 0.0
C310 C 0.29604 0.94308 0.21972 0.0
H311 H 0.36511 0.91278 0.24269 0.0
O312 O 0.39518 1.00515 0.21412 0.0
O313 O 0.35128 0.99848 0.24029 0.0
O314 O 0.40701 0.98596 0.27838 0.0
O315 O 0.36689 0.95169 0.28541 0.0
C316 C 0.25851 0.92901 0.17836 0.0
C317 C 0.24007 0.95483 0.18617 0.0
H318 H 0.21146 1.00733 0.20713 0.0
H319 H 0.23245 0.04092 0.25029 0.0
H320 H 0.3506 0.87571 0.20018 0.0
H321 H 0.30072 0.88242 0.1693 0.0
H322 H 0.25089 0.91407 0.15914 0.0
H323 H 0.21853 0.95934 0.17285 0.0
Mn324 Mn 0.26935 0.14469 0.51341 0.0
Mn325 Mn 0.2851 0.20933 0.47135 0.0
C326 C 0.31864 0.17037 0.52007 0.0
C327 C 0.24854 0.11867 0.55683 0.0
C328 C 0.29083 0.14416 0.44519 0.0
O329 O 0.2248 0.15642 0.49733 0.0
O330 O 0.23938 0.1989 0.47099 0.0
C331 C 0.25308 0.25321 0.51295 0.0
N332 N 0.27891 0.24527 0.49642 0.0
C333 C 0.30228 0.29626 0.50292 0.0
C334 C 0.27609 0.30503 0.5203 0.0
C335 C 0.25156 0.28327 0.52566 0.0
C336 C 0.30333 0.26544 0.4925 0.0
H337 H 0.23365 0.23686 0.51596 0.0
C338 C 0.21822 0.17971 0.48017 0.0
O339 O 0.2526 0.10473 0.53043 0.0
O340 O 0.25571 0.14816 0.55793 0.0
N341 N 0.32767 0.22451 0.46722 0.0
C342 C 0.34978 0.21305 0.44775 0.0
C343 C 0.37343 0.23297 0.43607 0.0
C344 C 0.37422 0.26457 0.4445 0.0
C345 C 0.35183 0.27576 0.46525 0.0
C346 C 0.32851 0.25489 0.47576 0.0
H347 H 0.34857 0.18915 0.44003 0.0
O348 O 0.31439 0.14152 0.52775 0.0
O349 O 0.29346 0.18445 0.50938 0.0
O350 O 0.28165 0.12987 0.46952 0.0
O351 O 0.2927 0.17375 0.44356 0.0
C352 C 0.35109 0.30706 0.47504 0.0
C353 C 0.3267 0.31715 0.49445 0.0
H354 H 0.27433 0.32853 0.52918 0.0
H355 H 0.23113 0.28992 0.53878 0.0
H356 H 0.39076 0.22407 0.42028 0.0
H357 H 0.39243 0.27987 0.43537 0.0
H358 H 0.36909 0.32358 0.46769 0.0
H359 H 0.32642 0.34122 0.5019 0.0
Mn360 Mn 0.15343 0.03367 0.77541 0.0
Mn361 Mn 0.21412 0.98755 0.75666 0.0
C362 C 0.17468 0.99987 0.81219 0.0
C363 C 0.1339 0.08051 0.79465 0.0
C364 C 0.14605 0.97251 0.73768 0.0
O365 O 0.17013 0.05461 0.73634 0.0
O366 O 0.20824 0.02083 0.72453 0.0
C367 C 0.26486 0.03545 0.76596 0.0
N368 N 0.25216 1.00703 0.77295 0.0
C369 C 0.29452 0.99718 0.80996 0.0
C370 C 0.30812 0.02625 0.803 0.0
C371 C 0.29319 0.04548 0.78094 0.0
C372 C 0.26624 0.98843 0.79429 0.0
H373 H 0.25343 0.05041 0.74915 0.0
C374 C 0.192 0.04519 0.71873 0.0
O375 O 0.11665 0.06251 0.77648 0.0
O376 O 0.16261 0.07174 0.80081 0.0
N377 N 0.22335 0.95458 0.78522 0.0
C378 C 0.20747 0.92703 0.78901 0.0
C379 C 0.21947 0.90498 0.81005 0.0
C380 C 0.24783 0.91136 0.82682 0.0
C381 C 0.26416 0.93956 0.82203 0.0
C382 C 0.25122 0.96049 0.80048 0.0
H383 H 0.1856 0.9221 0.77642 0.0
O384 O 0.14603 0.00988 0.81471 0.0
O385 O 0.19013 0.00986 0.78814 0.0
O386 O 0.13456 0.99751 0.74863 0.0
O387 O 0.17542 0.96572 0.7402 0.0
C388 C 0.29268 0.9478 0.83794 0.0
C389 C 0.30779 0.97664 0.83199 0.0
H390 H 0.32995 0.03409 0.81453 0.0
H391 H 0.30347 0.068 0.77553 0.0
H392 H 0.20674 0.88325 0.81355 0.0
H393 H 0.25681 0.89447 0.84332 0.0
H394 H 0.30312 0.93219 0.85491 0.0
H395 H 0.32962 0.98279 0.84449 0.0
Mn396 Mn 0.26558 0.89276 0.0192 0.0
Mn397 Mn 0.23765 0.82771 0.98286 0.0
C398 C 0.21784 0.87114 0.03401 0.0
C399 C 0.2975 0.9147 0.05903 0.0
C400 C 0.23205 0.89229 0.95446 0.0
O401 O 0.30406 0.87735 0.99697 0.0
O402 O 0.28408 0.83344 0.97513 0.0
C403 C 0.27333 0.78246 0.02118 0.0
N404 N 0.24519 0.79298 0.00958 0.0
C405 C 0.21626 0.75193 0.03504 0.0
C406 C 0.24496 0.74053 0.04706 0.0
C407 C 0.2736 0.75592 0.04017 0.0
C408 C 0.21747 0.7785 0.01628 0.0
H409 H 0.29541 0.79425 0.01603 0.0
C410 C 0.3071 0.85263 0.981 0.0
O411 O 0.28947 0.93079 0.03458 0.0
O412 O 0.28744 0.88614 0.06009 0.0
N413 N 0.1935 0.81821 0.98816 0.0
C414 C 0.16773 0.83289 0.97592 0.0
C415 C 0.1372 0.8206 0.98093 0.0
C416 C 0.13343 0.79324 0.99833 0.0
C417 C 0.16027 0.77837 0.0105 0.0
C418 C 0.19013 0.79158 1.00454 0.0
H419 H 0.17039 0.85421 0.96311 0.0
O420 O 0.22519 0.89982 0.04065 0.0
O421 O 0.23911 0.85544 0.01932 0.0
O422 O 0.24575 0.90741 0.97701 0.0
O423 O 0.22815 0.86268 0.95445 0.0
C424 C 0.15852 0.75132 0.02885 0.0
C425 C 0.18649 0.73818 0.04122 0.0
H426 H 0.24526 0.72009 0.06175 0.0
H427 H 0.29583 0.74735 0.04948 0.0
H428 H 0.1166 0.83237 0.97165 0.0
H429 H 0.10981 0.78405 1.00248 0.0
H430 H 0.13575 0.74071 0.03401 0.0
H431 H 0.18482 0.71762 0.05566 0.0
Mn432 Mn 0.26076 0.39807 0.02148 0.0
Mn433 Mn 0.26816 0.3358 0.97397 0.0
C434 C 0.21905 0.38272 0.98851 0.0
C435 C 0.24663 0.42079 0.06903 0.0
C436 C 0.29502 0.39921 0.95845 0.0
O437 O 0.29895 0.37638 0.041 0.0
O438 O 0.30338 0.33775 1.00599 0.0
C439 C 0.25563 0.28809 0.02205 0.0
N440 N 0.24873 0.30071 0.99367 0.0
C441 C 0.20866 0.26133 0.98289 0.0
C442 C 0.21548 0.24782 0.01192 0.0
C443 C 0.23898 0.26134 0.03163 0.0
C444 C 0.22591 0.28808 0.97469 0.0
H445 H 0.27371 0.29834 0.03726 0.0
C446 C 0.31312 0.35272 0.03039 0.0
O447 O 0.2665 0.43447 0.05062 0.0
O448 O 0.2361 0.39351 0.06044 0.0
N449 N 0.2363 0.32981 0.94186 0.0
C450 C 0.23162 0.34639 0.91519 0.0
C451 C 0.20851 0.33627 0.89318 0.0
C452 C 0.19076 0.30895 0.89856 0.0
C453 C 0.1963 0.292 0.92593 0.0
C454 C 0.21966 0.30323 0.94703 0.0
H455 H 0.24505 0.36743 0.91099 0.0
O456 O 0.22127 0.41099 0.99901 0.0
O457 O 0.24125 0.36389 0.9977 0.0
O458 O 0.28793 0.4121 0.98427 0.0
O459 O 0.28785 0.37098 0.95159 0.0
C460 C 0.17917 0.26469 0.93337 0.0
C461 C 0.18524 0.24945 0.9619 0.0
H462 H 0.20272 0.22717 0.01938 0.0
H463 H 0.2443 0.25112 0.05412 0.0
H464 H 0.20432 0.34955 0.87215 0.0
H465 H 0.17278 0.30135 0.88164 0.0
H466 H 0.16088 0.25553 0.91757 0.0
H467 H 0.17156 0.22876 0.96759 0.0
Mn468 Mn 0.74818 0.14786 1.00045 0.0
Mn469 Mn 0.79178 0.08922 0.97273 0.0
C470 C 0.73815 0.12857 0.95064 0.0
C471 C 0.70422 0.16492 0.02768 0.0
C472 C 0.81588 0.15622 0.97663 0.0
O473 O 0.7696 0.13071 0.0397 0.0
O474 O 0.79546 0.09014 0.01933 0.0
C475 C 0.75392 0.0366 0.99761 0.0
N476 N 0.767 0.05154 0.97295 0.0
C477 C 0.74615 0.01269 0.93716 0.0
C478 C 0.73284 0.99666 0.96224 0.0
C479 C 0.73666 0.00874 0.99258 0.0
C480 C 0.76328 0.04024 0.94363 0.0
H481 H 0.75646 0.04599 0.02089 0.0
C482 C 0.78709 0.10689 0.04245 0.0
O483 O 0.72931 0.18253 0.02464 0.0
O484 O 0.70509 0.13721 0.01582 0.0
N485 N 0.79006 0.08522 0.92825 0.0
C486 C 0.80226 0.10469 0.90639 0.0
C487 C 0.79928 0.09667 0.87469 0.0
C488 C 0.78387 0.0687 0.8658 0.0
C489 C 0.77166 0.04894 0.88871 0.0
C490 C 0.77562 0.05801 0.91996 0.0
H491 H 0.81388 0.12634 0.91304 0.0
O492 O 0.72905 0.15619 0.95821 0.0
O493 O 0.75265 0.11309 0.97253 0.0
O494 O 0.79065 0.16752 0.98767 0.0
O495 O 0.81897 0.12728 0.97064 0.0
C496 C 0.75511 0.02094 0.88172 0.0
C497 C 0.74238 1.00282 0.90593 0.0
H498 H 0.71929 0.9753 0.95843 0.0
H499 H 0.72618 0.99668 0.01202 0.0
H500 H 0.80865 0.11211 0.85715 0.0
H501 H 0.7813 0.06276 0.84131 0.0
H502 H 0.75157 0.0134 0.85776 0.0
H503 H 0.7292 0.98163 0.90021 0.0
Mn504 Mn 0.13317 0.50468 0.26312 0.0
Mn505 Mn 0.07079 0.51824 0.30901 0.0
C506 C 0.11447 0.46602 0.29604 0.0
C507 C 0.15394 0.48738 0.21571 0.0
C508 C 0.13762 0.53779 0.32737 0.0
O509 O 0.11487 0.54387 0.24326 0.0
O510 O 0.07789 0.55275 0.27888 0.0
C511 C 0.02329 0.5118 0.25729 0.0
N512 N 0.03419 0.50312 0.28605 0.0
C513 C 0.99152 0.46562 0.29081 0.0
C514 C 0.97978 0.4743 0.26133 0.0
C515 C 0.99579 0.49744 0.24448 0.0
C516 C 0.01918 0.48059 0.30228 0.0
H517 H 0.03549 0.5295 0.24414 0.0
C518 C 0.09341 0.56064 0.25476 0.0
O519 O 0.17031 0.50574 0.23432 0.0
O520 O 0.12539 0.48034 0.22407 0.0
N521 N 0.05961 0.48776 0.33954 0.0
C522 C 0.07257 0.48367 0.36857 0.0
C523 C 0.0589 0.46188 0.3888 0.0
C524 C 0.03147 0.44511 0.37933 0.0
C525 C 0.01762 0.45078 0.34994 0.0
C526 C 0.03229 0.47288 0.33084 0.0
H527 H 0.09323 0.49687 0.37618 0.0
O528 O 0.14301 0.46532 0.28557 0.0
O529 O 0.09704 0.48894 0.28631 0.0
O530 O 0.15 0.53062 0.30129 0.0
O531 O 0.10838 0.53285 0.33358 0.0
C532 C 0.98976 0.43545 0.33891 0.0
C533 C 0.97683 0.44272 0.30927 0.0
H534 H 0.95852 0.46334 0.25141 0.0
H535 H 0.98694 0.50422 0.22166 0.0
H536 H 0.06947 0.45805 0.41166 0.0
H537 H 0.0211 0.42817 0.3949 0.0
H538 H 0.97811 0.41801 0.35302 0.0
H539 H 0.95544 0.43072 0.301 0.0
Mn540 Mn 0.76729 0.8985 0.5154 0.0
Mn541 Mn 0.77557 0.83587 0.46882 0.0
C542 C 0.72639 0.88331 0.48159 0.0
C543 C 0.75246 0.92038 0.56278 0.0
C544 C 0.80348 0.89907 0.45366 0.0
O545 O 0.80495 0.87703 0.53575 0.0
O546 O 0.80977 0.83742 0.50198 0.0
C547 C 0.76048 0.78874 0.51674 0.0
N548 N 0.75467 0.80136 0.48814 0.0
C549 C 0.71297 0.76371 0.47707 0.0
C550 C 0.71867 0.7502 0.50632 0.0
C551 C 0.74246 0.76283 0.52627 0.0
C552 C 0.73162 0.78956 0.46889 0.0
H553 H 0.7787 0.79838 0.53218 0.0
C554 C 0.81901 0.85292 0.52624 0.0
O555 O 0.77241 0.93463 0.54484 0.0
O556 O 0.74204 0.89327 0.55359 0.0
N557 N 0.74458 0.8304 0.43582 0.0
C558 C 0.74132 0.84674 0.40881 0.0
C559 C 0.71829 0.8373 0.38642 0.0
C560 C 0.69905 0.81097 0.39185 0.0
C561 C 0.70313 0.79423 0.41959 0.0
C562 C 0.72659 0.80467 0.44099 0.0
H563 H 0.75583 0.86709 0.4046 0.0
O564 O 0.72829 0.91156 0.49219 0.0
O565 O 0.74834 0.86448 0.49136 0.0
O566 O 0.79519 0.9124 0.47886 0.0
O567 O 0.79673 0.87067 0.44703 0.0
C568 C 0.68448 0.7679 0.42708 0.0
C569 C 0.68931 0.75273 0.45585 0.0
H570 H 0.70481 0.73022 0.51376 0.0
H571 H 0.7469 0.75262 0.54893 0.0
H572 H 0.71525 0.85039 0.3651 0.0
H573 H 0.6811 0.80394 0.37467 0.0
H574 H 0.66603 0.75942 0.41108 0.0
H575 H 0.67452 0.73278 0.46154 0.0
Mn576 Mn 0.88085 0.02096 0.24823 0.0
Mn577 Mn 0.94809 0.01187 0.29137 0.0
C578 C 0.89764 0.05951 0.28265 0.0
C579 C 0.85499 0.03551 0.20179 0.0
C580 C 0.88544 0.98278 0.30906 0.0
O581 O 0.90236 0.98583 0.22597 0.0
O582 O 0.94474 0.97932 0.2578 0.0
C583 C 0.99155 0.02944 0.24078 0.0
N584 N 0.98094 0.03397 0.27017 0.0
C585 C 0.01789 0.07663 0.27874 0.0
C586 C 0.02932 0.07227 0.24865 0.0
C587 C 0.01604 0.04861 0.22957 0.0
C588 C 0.99334 0.05689 0.28859 0.0
H589 H 0.98137 0.0114 0.22593 0.0
C590 C 0.9275 0.97164 0.23391 0.0
O591 O 0.84251 0.01514 0.22037 0.0
O592 O 0.88233 0.04746 0.21015 0.0
N593 N 0.9559 0.04114 0.32456 0.0
C594 C 0.94286 0.04181 0.35331 0.0
C595 C 0.95394 0.06376 0.37546 0.0
C596 C 0.97861 0.08459 0.368 0.0
C597 C 0.99229 0.08294 0.33859 0.0
C598 C 0.98046 0.06033 0.31758 0.0
H599 H 0.92398 0.0259 0.35919 0.0
O600 O 0.86821 0.05773 0.27319 0.0
O601 O 0.91662 0.03901 0.2712 0.0
O602 O 0.87017 0.99153 0.28459 0.0
O603 O 0.91464 0.98973 0.31478 0.0
C604 C 0.01712 0.10292 0.32926 0.0
C605 C 0.0298 0.09988 0.29929 0.0
H606 H 0.04822 0.08699 0.23992 0.0
H607 H 0.02465 0.04517 0.20626 0.0
H608 H 0.94337 0.06473 0.39818 0.0
H609 H 0.98688 0.10172 0.38502 0.0
H610 H 0.02651 0.12084 0.34488 0.0
H611 H 0.04873 0.11553 0.29229 0.0
Mn612 Mn 0.25648 0.65479 0.50135 0.0
Mn613 Mn 0.29456 0.59275 0.47295 0.0
C614 C 0.24193 0.63462 0.45272 0.0
C615 C 0.21774 0.67675 0.53204 0.0
C616 C 0.32311 0.65822 0.47484 0.0
O617 O 0.2792 0.63708 0.53967 0.0
O618 O 0.29936 0.59329 0.51947 0.0
C619 C 0.25394 0.54256 0.49861 0.0
N620 N 0.26741 0.55667 0.47369 0.0
C621 C 0.24378 0.51886 0.43836 0.0
C622 C 0.23007 0.50365 0.46372 0.0
C623 C 0.23506 0.51564 0.49396 0.0
C624 C 0.26249 0.54552 0.44445 0.0
H625 H 0.25741 0.55189 0.52182 0.0
C626 C 0.29383 0.61145 0.54245 0.0
O627 O 0.24376 0.69167 0.52567 0.0
O628 O 0.21406 0.64884 0.52068 0.0
N629 N 0.29139 0.58901 0.42849 0.0
C630 C 0.30427 0.60774 0.40637 0.0
C631 C 0.30023 0.5998 0.37473 0.0
C632 C 0.28314 0.57265 0.36618 0.0
C633 C 0.27028 0.55363 0.38935 0.0
C634 C 0.27529 0.56259 0.42051 0.0
H635 H 0.31732 0.62869 0.41276 0.0
O636 O 0.23501 0.66299 0.46003 0.0
O637 O 0.25683 0.61894 0.4742 0.0
O638 O 0.29863 0.67114 0.48535 0.0
O639 O 0.32466 0.62889 0.47017 0.0
C640 C 0.25215 0.52647 0.38272 0.0
C641 C 0.23893 0.50909 0.40721 0.0
H642 H 0.21529 0.48302 0.46019 0.0
H643 H 0.22427 0.50423 0.51362 0.0
H644 H 0.31016 0.61465 0.35698 0.0
H645 H 0.27981 0.56677 0.34174 0.0
H646 H 0.24777 0.51904 0.35884 0.0
H647 H 0.22453 0.48859 0.40178 0.0
Mn648 Mn 0.37357 0.51962 0.75096 0.0
Mn649 Mn 0.43985 0.5075 0.79464 0.0
C650 C 0.39217 0.55755 0.78518 0.0
C651 C 0.34968 0.53563 0.70403 0.0
C652 C 0.37554 0.48164 0.81208 0.0
O653 O 0.39318 0.48312 0.72912 0.0
O654 O 0.43527 0.47524 0.76095 0.0
C655 C 0.48477 0.5229 0.74461 0.0
N656 N 0.47406 0.52794 0.77388 0.0
C657 C 0.51339 0.56839 0.78316 0.0
C658 C 0.52494 0.56347 0.75319 0.0
C659 C 0.51051 0.54068 0.73382 0.0
C660 C 0.48759 0.55003 0.79259 0.0
H661 H 0.47374 0.50552 0.72954 0.0
C662 C 0.41777 0.46808 0.73706 0.0
O663 O 0.33544 0.51614 0.72236 0.0
O664 O 0.37756 0.54574 0.71292 0.0
N665 N 0.44866 0.53649 0.8279 0.0
C666 C 0.43488 0.53829 0.85623 0.0
C667 C 0.44679 0.5597 0.87854 0.0
C668 C 0.47296 0.57888 0.87162 0.0
C669 C 0.48719 0.57622 0.84255 0.0
C670 C 0.47448 0.5542 0.82138 0.0
H671 H 0.4147 0.52383 0.86161 0.0
O672 O 0.3628 0.55732 0.77548 0.0
O673 O 0.41001 0.53591 0.7741 0.0
O674 O 0.36078 0.49111 0.78753 0.0
O675 O 0.40509 0.48699 0.81768 0.0
C676 C 0.51335 0.59472 0.83368 0.0
C677 C 0.52634 0.59091 0.80394 0.0
H678 H 0.54478 0.57713 0.74478 0.0
H679 H 0.5192 0.53683 0.71061 0.0
H680 H 0.43568 0.56155 0.90094 0.0
H681 H 0.48187 0.59561 0.88874 0.0
H682 H 0.52348 0.61214 0.84945 0.0
H683 H 0.54626 0.60548 0.79727 0.0
Mn684 Mn 0.63842 0.99613 0.75894 0.0
Mn685 Mn 0.57388 0.01135 0.80118 0.0
C686 C 0.619 0.95903 0.79282 0.0
C687 C 0.66062 0.97808 0.71291 0.0
C688 C 0.63993 0.03222 0.82125 0.0
O689 O 0.62067 0.03396 0.73681 0.0
O690 O 0.58114 0.04433 0.76917 0.0
C691 C 0.52827 1.00098 0.74842 0.0
N692 N 0.5385 0.99403 0.77789 0.0
C693 C 0.49727 0.95504 0.78295 0.0
C694 C 0.48624 0.96191 0.75273 0.0
C695 C 0.50184 0.98495 0.73538 0.0
C696 C 0.52384 0.97166 0.79464 0.0
H697 H 0.5402 0.01854 0.73486 0.0
C698 C 0.59805 0.05086 0.74556 0.0
O699 O 0.67638 0.99695 0.73151 0.0
O700 O 0.63204 0.97047 0.72076 0.0
N701 N 0.56244 0.98233 0.83298 0.0
C702 C 0.57431 0.9803 0.86268 0.0
C703 C 0.56088 0.95884 0.8834 0.0
C704 C 0.53473 0.94032 0.87368 0.0
C705 C 0.52179 0.94399 0.84357 0.0
C706 C 0.53618 0.96584 0.82399 0.0
H707 H 0.59383 0.99498 0.87049 0.0
O708 O 0.64789 0.95795 0.78328 0.0
O709 O 0.60162 0.98127 0.78135 0.0
O710 O 0.65363 0.02351 0.7964 0.0
O711 O 0.6103 0.02804 0.82619 0.0
C712 C 0.49509 0.92694 0.83227 0.0
C713 C 0.48294 0.93234 0.80191 0.0
H714 H 0.46582 0.94964 0.74261 0.0
H715 H 0.49353 0.99033 0.712 0.0
H716 H 0.57061 0.95665 0.90683 0.0
H717 H 0.52452 0.92366 0.88966 0.0
H718 H 0.4837 0.90965 0.84675 0.0
H719 H 0.46241 0.91907 0.79346 0.0
Mn720 Mn 0.76517 0.63844 0.02005 0.0
Mn721 Mn 0.79527 0.69725 0.97743 0.0
C722 C 0.81512 0.6597 0.03322 0.0
C723 C 0.73578 0.61956 0.06201 0.0
C724 C 0.79805 0.63047 0.95659 0.0
O725 O 0.72543 0.65347 0.99611 0.0
O726 O 0.75002 0.68955 0.96727 0.0
C727 C 0.75734 0.74532 1.00814 0.0
N728 N 0.78609 0.73411 1.00014 0.0
C729 C 0.8135 0.77328 0.03087 0.0
C730 C 0.78428 0.78537 0.03936 0.0
C731 C 0.75605 0.77145 0.02772 0.0
C732 C 0.81333 0.74769 0.01065 0.0
H733 H 0.73553 0.73426 0.99998 0.0
C734 C 0.72526 0.67406 0.97469 0.0
O735 O 0.74137 0.60225 0.03797 0.0
O736 O 0.74595 0.64816 0.061 0.0
N737 N 0.83877 0.70815 0.98435 0.0
C738 C 0.86488 0.69487 0.97222 0.0
C739 C 0.89507 0.7073 0.97988 0.0
C740 C 0.89794 0.73284 1.00027 0.0
C741 C 0.87053 0.74662 0.01148 0.0
C742 C 0.84119 0.73437 1.00163 0.0
H743 H 0.86268 0.67476 0.95716 0.0
O744 O 0.80704 0.63197 0.04201 0.0
O745 O 0.79359 0.67447 0.01705 0.0
O746 O 0.78213 0.61952 0.97934 0.0
O747 O 0.80565 0.65929 0.95401 0.0
C748 C 0.87108 0.77076 0.03353 0.0
C749 C 0.84277 0.78462 0.04281 0.0
H750 H 0.78324 0.80511 0.05502 0.0
H751 H 0.73336 0.7805 0.03426 0.0
H752 H 0.91607 0.69665 0.97093 0.0
H753 H 0.92125 0.74135 1.00753 0.0
H754 H 0.89303 0.7772 0.04515 0.0
H755 H 0.84374 0.80322 0.05989 0.0
Mn756 Mn 0.90257 0.52876 0.75166 0.0
Mn757 Mn 0.8393 0.48319 0.76828 0.0
C758 C 0.88056 0.49693 0.71311 0.0
C759 C 0.92123 0.57823 0.73779 0.0
C760 C 0.90697 0.46792 0.78825 0.0
O761 O 0.8875 0.54588 0.79296 0.0
O762 O 0.84218 0.51837 0.79882 0.0
C763 C 0.78921 0.5281 0.75219 0.0
N764 N 0.80257 0.49984 0.74797 0.0
C765 C 0.7638 0.48598 0.70807 0.0
C766 C 0.74948 0.51484 0.71215 0.0
C767 C 0.76228 0.536 0.73427 0.0
C768 C 0.7906 0.47942 0.72658 0.0
H769 H 0.79914 0.54453 0.76898 0.0
C770 C 0.86192 0.53998 0.80728 0.0
O771 O 0.93956 0.55875 0.75225 0.0
O772 O 0.89247 0.56894 0.73122 0.0
N773 N 0.833 0.44825 0.74093 0.0
C774 C 0.84937 0.42122 0.74018 0.0
C775 C 0.83935 0.39738 0.71957 0.0
C776 C 0.81248 0.40144 0.70018 0.0
C777 C 0.79558 0.42915 0.70189 0.0
C778 C 0.80642 0.4519 0.7232 0.0
H779 H 0.86997 0.41789 0.7551 0.0
O780 O 0.90882 0.50879 0.71021 0.0
O781 O 0.86558 0.50515 0.73797 0.0
O782 O 0.92075 0.49037 0.77402 0.0
O783 O 0.87677 0.46422 0.78891 0.0
C784 C 0.76851 0.43515 0.68317 0.0
C785 C 0.75272 0.46361 0.68616 0.0
H786 H 0.72875 0.52105 0.69832 0.0
H787 H 0.75147 0.55838 0.73743 0.0
H788 H 0.85241 0.37599 0.71854 0.0
H789 H 0.80504 0.38315 0.68406 0.0
H790 H 0.75978 0.41813 0.66625 0.0
H791 H 0.73211 0.46808 0.67144 0.0
Mn792 Mn 0.76013 0.39725 0.52579 0.0
Mn793 Mn 0.73425 0.32957 0.49297 0.0
C794 C 0.71266 0.37503 0.54133 0.0
C795 C 0.78948 0.42448 0.56427 0.0
C796 C 0.72649 0.39212 0.46115 0.0
O797 O 0.79986 0.38139 0.50538 0.0
O798 O 0.78034 0.33685 0.48442 0.0
C799 C 0.77241 0.28793 0.53321 0.0
N800 N 0.74368 0.29664 0.52138 0.0
C801 C 0.71691 0.25581 0.54928 0.0
C802 C 0.74623 0.24628 0.56157 0.0
C803 C 0.77408 0.26248 0.55357 0.0
C804 C 0.71671 0.28138 0.52916 0.0
H805 H 0.79389 0.30033 0.5272 0.0
C806 C 0.8032 0.35636 0.48985 0.0
O807 O 0.78158 0.43743 0.53798 0.0
O808 O 0.7814 0.3955 0.56777 0.0
N809 N 0.69064 0.3184 0.49913 0.0
C810 C 0.66411 0.331 0.48602 0.0
C811 C 0.63423 0.3176 0.49185 0.0
C812 C 0.63188 0.29118 0.51086 0.0
C813 C 0.6595 0.27833 0.52376 0.0
C814 C 0.68867 0.29259 0.51697 0.0
H815 H 0.66567 0.35152 0.4718 0.0
O816 O 0.7189 0.40433 0.54584 0.0
O817 O 0.73479 0.35905 0.52818 0.0
O818 O 0.74059 0.40839 0.48254 0.0
O819 O 0.72275 0.36256 0.46281 0.0
C820 C 0.65919 0.25225 0.54355 0.0
C821 C 0.68786 0.24109 0.55642 0.0
H822 H 0.74763 0.22667 0.5773 0.0
H823 H 0.7968 0.25536 0.56307 0.0
H824 H 0.61302 0.32776 0.48191 0.0
H825 H 0.60876 0.28112 0.51559 0.0
H826 H 0.63698 0.24089 0.54938 0.0
H827 H 0.68728 0.22126 0.57191 0.0
Mn828 Mn 0.64977 0.52345 0.27326 0.0
Mn829 Mn 0.71006 0.47422 0.26187 0.0
C830 C 0.66924 0.49345 0.31428 0.0
C831 C 0.62861 0.5718 0.28508 0.0
C832 C 0.64264 0.45902 0.24203 0.0
O833 O 0.66794 0.53955 0.2325 0.0
O834 O 0.70556 0.50375 0.22629 0.0
C835 C 0.76128 0.52202 0.26786 0.0
N836 N 0.74797 0.49461 0.27721 0.0
C837 C 0.78945 0.48748 0.31584 0.0
C838 C 0.8037 0.51554 0.3065 0.0
C839 C 0.7895 0.53292 0.28245 0.0
C840 C 0.76126 0.47788 0.30054 0.0
H841 H 0.75041 0.5355 0.24946 0.0
C842 C 0.6899 0.52733 0.21682 0.0
O843 O 0.61288 0.55127 0.26851 0.0
O844 O 0.65708 0.56458 0.29438 0.0
N845 N 0.7179 0.44412 0.29378 0.0
C846 C 0.70185 0.41695 0.29918 0.0
C847 C 0.71334 0.39645 0.32203 0.0
C848 C 0.74142 0.40391 0.33885 0.0
C849 C 0.75804 0.43155 0.33226 0.0
C850 C 0.74562 0.45088 0.30896 0.0
H851 H 0.68031 0.41106 0.2863 0.0
O852 O 0.64071 0.50419 0.31472 0.0
O853 O 0.68569 0.50059 0.28992 0.0
O854 O 0.63167 0.48517 0.25011 0.0
O855 O 0.67156 0.45144 0.2464 0.0
C856 C 0.78646 0.44068 0.34788 0.0
C857 C 0.80207 0.46871 0.33979 0.0
H858 H 0.82549 0.52401 0.31766 0.0
H859 H 0.80029 0.55466 0.27518 0.0
H860 H 0.70048 0.37506 0.3268 0.0
H861 H 0.75002 0.38822 0.35671 0.0
H862 H 0.79648 0.42635 0.3662 0.0
H863 H 0.82383 0.47554 0.35205 0.0
H864 H 0.06444 0.42672 0.28447 0.0
H865 H 0.14055 0.44657 0.35052 0.0
H866 H 0.12285 0.4034 0.38339 0.0
H867 H 0.08507 0.36069 0.39373 0.0
H868 H 0.01122 0.33812 0.32576 0.0
H869 H 0.02815 0.38196 0.2936 0.0
C870 C 0.07688 0.42162 0.30621 0.0
C871 C 0.10297 0.44036 0.31581 0.0
C872 C 0.06693 0.39634 0.32462 0.0
C873 C 0.1199 0.43283 0.34321 0.0
C874 C 0.1098 0.40817 0.36194 0.0
C875 C 0.07269 0.36525 0.37188 0.0
C876 C 0.04687 0.34603 0.36226 0.0
C877 C 0.08317 0.38992 0.35301 0.0
C878 C 0.03124 0.35239 0.33373 0.0
C879 C 0.04095 0.37744 0.31526 0.0
H880 H 0.94595 0.79646 0.58158 0.0
H881 H 0.91887 0.84965 0.66189 0.0
H882 H 0.87176 0.8674 0.63358 0.0
H883 H 0.83816 0.86818 0.58584 0.0
H884 H 0.8643 0.81326 0.50636 0.0
H885 H 0.91161 0.79594 0.53454 0.0
C886 C 0.92981 0.81198 0.59293 0.0
C887 C 0.93622 0.82178 0.62385 0.0
C888 C 0.90244 0.82184 0.57663 0.0
C889 C 0.91469 0.84165 0.63817 0.0
C890 C 0.88769 0.85189 0.62196 0.0
C891 C 0.85423 0.85247 0.57463 0.0
C892 C 0.8476 0.84221 0.54388 0.0
C893 C 0.88133 0.84221 0.59114 0.0
C894 C 0.86862 0.82155 0.52996 0.0
C895 C 0.8958 0.81164 0.54606 0.0
H896 H 0.43837 0.59641 0.76646 0.0
H897 H 0.37308 0.58056 0.84064 0.0
H898 H 0.39571 0.62551 0.86941 0.0
H899 H 0.43603 0.66806 0.87412 0.0
H900 H 0.49753 0.68637 0.79717 0.0
H901 H 0.47481 0.6416 0.76882 0.0
C902 C 0.42927 0.60287 0.78899 0.0
C903 C 0.40515 0.58476 0.80222 0.0
C904 C 0.44177 0.62909 0.80479 0.0
C905 C 0.39232 0.59391 0.83061 0.0
C906 C 0.4052 0.61954 0.84696 0.0
C907 C 0.44424 0.66221 0.8511 0.0
C908 C 0.46848 0.6802 0.83774 0.0
C909 C 0.4303 0.63704 0.83448 0.0
C910 C 0.47877 0.67282 0.80777 0.0
C911 C 0.46582 0.64727 0.79158 0.0
H912 H 0.56851 0.20263 0.0739 0.0
H913 H 0.62642 0.26052 0.13548 0.0
H914 H 0.67441 0.2414 0.11186 0.0
H915 H 0.70027 0.20843 0.07341 0.0
H916 H 0.64316 0.14672 0.01505 0.0
H917 H 0.59479 0.16682 0.03758 0.0
C918 C 0.59167 0.21097 0.08205 0.0
C919 C 0.59392 0.23305 0.10626 0.0
C920 C 0.61938 0.19912 0.06895 0.0
C921 C 0.62407 0.24342 0.11693 0.0
C922 C 0.65156 0.23257 0.10339 0.0
C923 C 0.67721 0.1994 0.0657 0.0
C924 C 0.67526 0.1763 0.04251 0.0
C925 C 0.64955 0.21045 0.07937 0.0
C926 C 0.64527 0.16448 0.03298 0.0
C927 C 0.61758 0.17603 0.04578 0.0
H928 H 0.09047 0.57607 0.19259 0.0
H929 H 0.07785 0.61329 0.28485 0.0
H930 H 0.06069 0.66254 0.26277 0.0
H931 H 0.04691 0.69451 0.21751 0.0
H932 H 0.05591 0.65709 0.12486 0.0
H933 H 0.07669 0.60875 0.14665 0.0
C934 C 0.08431 0.59514 0.20777 0.0
C935 C 0.08555 0.59101 0.24035 0.0
C936 C 0.07352 0.62336 0.19483 0.0
C937 C 0.07702 0.61579 0.25972 0.0
C938 C 0.06717 0.644 0.24711 0.0
C939 C 0.05357 0.67588 0.20203 0.0
C940 C 0.04986 0.67952 0.16958 0.0
C941 C 0.06493 0.64795 0.21474 0.0
C942 C 0.05843 0.65495 0.14994 0.0
C943 C 0.07036 0.62726 0.1624 0.0
H944 H 0.60721 0.85452 0.39375 0.0
H945 H 0.59538 0.78032 0.4599 0.0
H946 H 0.64202 0.79895 0.48976 0.0
H947 H 0.68743 0.83531 0.49601 0.0
H948 H 0.69962 0.90977 0.43031 0.0
H949 H 0.65147 0.89259 0.40151 0.0
C950 C 0.61482 0.84273 0.41486 0.0
C951 C 0.59751 0.81672 0.42524 0.0
C952 C 0.64177 0.85354 0.43184 0.0
C953 C 0.60784 0.80104 0.45215 0.0
C954 C 0.63457 0.81156 0.4691 0.0
C955 C 0.67959 0.84751 0.4752 0.0
C956 C 0.69753 0.87285 0.46435 0.0
C957 C 0.65188 0.83761 0.45903 0.0
C958 C 0.68649 0.88959 0.43839 0.0
C959 C 0.65902 0.8798 0.42201 0.0
H960 H 0.44507 0.36604 0.63502 0.0
H961 H 0.50417 0.33073 0.70988 0.0
H962 H 0.48882 0.37364 0.74337 0.0
H963 H 0.45865 0.42136 0.75155 0.0
H964 H 0.39786 0.45524 0.67728 0.0
H965 H 0.41376 0.41272 0.64366 0.0
C966 C 0.45464 0.36768 0.65864 0.0
C967 C 0.47583 0.3451 0.66978 0.0
C968 C 0.44535 0.3922 0.67801 0.0
C969 C 0.48775 0.34763 0.70061 0.0
C970 C 0.47903 0.37224 0.71983 0.0
C971 C 0.44887 0.41947 0.72801 0.0
C972 C 0.4271 0.44161 0.71705 0.0
C973 C 0.45784 0.39467 0.70879 0.0
C974 C 0.41453 0.43855 0.6865 0.0
C975 C 0.42369 0.41425 0.66715 0.0
H976 H 0.92113 0.2619 0.96389 0.0
H977 H 0.95676 0.19661 0.89721 0.0
H978 H 0.91291 0.16057 0.90807 0.0
H979 H 0.86472 0.14732 0.93694 0.0
H980 H 0.82775 0.21391 1.00158 0.0
H981 H 0.87194 0.24955 0.99117 0.0
C982 C 0.91936 0.23978 0.95171 0.0
C983 C 0.94238 0.23198 0.92984 0.0
C984 C 0.89385 0.21932 0.95777 0.0
C985 C 0.93939 0.20333 0.91406 0.0
C986 C 0.91436 0.18263 0.92035 0.0
C987 C 0.86629 0.16961 0.94879 0.0
C988 C 0.84288 0.1778 0.97012 0.0
C989 C 0.8915 0.19032 0.94224 0.0
C990 C 0.84529 0.20696 0.98501 0.0
C991 C 0.87062 0.22738 0.9791 0.0
H992 H 0.28628 0.08094 0.43487 0.0
H993 H 0.3201 0.16647 0.3935 0.0
H994 H 0.34099 0.13761 0.35007 0.0
H995 H 0.34999 0.08832 0.32331 0.0
H996 H 0.31353 1.00279 0.36193 0.0
H997 H 0.29359 0.03132 0.40672 0.0
C998 C 0.29813 0.0933 0.41634 0.0
C999 C 0.30169 0.12596 0.41787 0.0
C1000 C 0.30985 0.07652 0.39084 0.0
C1001 C 0.31698 0.14143 0.39332 0.0
C1002 C 0.32907 0.12492 0.36833 0.0
C1003 C 0.33793 0.07586 0.34167 0.0
C1004 C 0.33362 0.04341 0.33943 0.0
C1005 C 0.3258 0.09249 0.36689 0.0
C1006 C 0.3173 0.02775 0.36312 0.0
C1007 C 0.30584 0.04407 0.38873 0.0
H1008 H 0.2173 0.02412 0.66504 0.0
H1009 H 0.18372 0.10746 0.7085 0.0
H1010 H 0.19839 0.13782 0.66265 0.0
H1011 H 0.22189 0.14085 0.61016 0.0
H1012 H 0.25201 0.05644 0.56603 0.0
H1013 H 0.23762 0.02654 0.61194 0.0
C1014 C 0.21317 0.04893 0.6645 0.0
C1015 C 0.19962 0.06347 0.69033 0.0
C1016 C 0.2211 0.06615 0.63782 0.0
C1017 C 0.19404 0.09561 0.68897 0.0
C1018 C 0.20253 0.11303 0.66276 0.0
C1019 C 0.2252 0.11591 0.61062 0.0
C1020 C 0.23816 0.10098 0.58466 0.0
C1021 C 0.21624 0.09859 0.63705 0.0
C1022 C 0.24201 0.06857 0.58555 0.0
C1023 C 0.23386 0.05141 0.61188 0.0
H1024 H 0.15587 0.94558 0.83791 0.0
H1025 H 0.22654 0.01865 0.84671 0.0
H1026 H 0.24992 0.99319 0.89274 0.0
H1027 H 0.25032 0.94927 0.93049 0.0
H1028 H 0.18351 0.87311 0.91571 0.0
H1029 H 0.15889 0.90029 0.87242 0.0
C1030 C 0.17649 0.95576 0.8499 0.0
C1031 C 0.18987 0.98352 0.83873 0.0
C1032 C 0.19043 0.94042 0.87554 0.0
C1033 C 0.21631 0.99684 0.85458 0.0
C1034 C 0.22956 0.98236 0.88097 0.0
C1035 C 0.23029 0.93874 0.91788 0.0
C1036 C 0.21835 0.90944 0.92723 0.0
C1037 C 0.21689 0.95399 0.89167 0.0
C1038 C 0.19289 0.89585 0.90989 0.0
C1039 C 0.17873 0.91136 0.88485 0.0
H1040 H 0.28417 0.96552 0.09332 0.0
H1041 H 0.35157 0.89218 0.08456 0.0
H1042 H 0.38032 0.91075 0.1315 0.0
H1043 H 0.38498 0.94683 0.1764 0.0
H1044 H 0.31414 0.01648 0.18814 0.0
H1045 H 0.28804 1.00071 0.1389 0.0
C1046 C 0.30549 0.95406 0.10149 0.0
C1047 C 0.31629 0.92803 0.08533 0.0
C1048 C 0.32102 0.96406 0.12923 0.0
C1049 C 0.34324 0.91258 0.09654 0.0
C1050 C 0.35956 0.92311 0.12338 0.0
C1051 C 0.36379 0.95839 0.16807 0.0
C1052 C 0.35097 0.98221 0.18601 0.0
C1053 C 0.34848 0.94862 0.14014 0.0
C1054 C 0.32386 0.99751 0.17494 0.0
C1055 C 0.30908 0.98865 0.14673 0.0
H1056 H 0.33364 0.36596 0.09003 0.0
H1057 H 0.35794 0.3136 1.00829 0.0
H1058 H 0.40499 0.29409 0.03539 0.0
H1059 H 0.43933 0.29128 0.08271 0.0
H1060 H 0.41331 0.34218 0.16492 0.0
H1061 H 0.36732 0.36262 0.13729 0.0
C1062 C 0.34928 0.35041 0.07805 0.0
C1063 C 0.34212 0.34143 0.04706 0.0
C1064 C 0.37618 0.33882 0.09394 0.0
C1065 C 0.36265 0.32094 0.03214 0.0
C1066 C 0.38968 0.30974 0.04763 0.0
C1067 C 0.42366 0.30689 0.09457 0.0
C1068 C 0.4301 0.31508 0.12595 0.0
C1069 C 0.3967 0.31842 0.0786 0.0
C1070 C 0.4092 0.33525 0.14086 0.0
C1071 C 0.38275 0.34708 0.12505 0.0
H1072 H 0.95811 0.87306 0.13027 0.0
H1073 H 1.00783 0.82991 0.20731 0.0
H1074 H 0.99289 0.87265 0.2416 0.0
H1075 H 0.96501 0.92232 0.24969 0.0
H1076 H 0.91282 0.96259 0.17252 0.0
H1077 H 0.92928 0.92076 0.13845 0.0
C1078 C 0.96573 0.87278 0.15456 0.0
C1079 C 0.98416 0.84813 0.16606 0.0
C1080 C 0.95649 0.89698 0.17421 0.0
C1081 C 0.99362 0.84846 0.19773 0.0
C1082 C 0.98508 0.87294 0.21737 0.0
C1083 C 0.95732 0.92194 0.2254 0.0
C1084 C 0.93771 0.94568 0.21373 0.0
C1085 C 0.96643 0.89734 0.20588 0.0
C1086 C 0.92773 0.94462 0.18224 0.0
C1087 C 0.93721 0.92073 0.16266 0.0
H1088 H 0.15361 0.67043 0.52607 0.0
H1089 H 0.2278 0.71651 0.58045 0.0
H1090 H 0.18827 0.74315 0.61107 0.0
H1091 H 0.1326 0.75486 0.62116 0.0
H1092 H 0.05839 0.71296 0.56349 0.0
H1093 H 0.0977 0.68326 0.53536 0.0
C1094 C 0.16099 0.6861 0.54483 0.0
C1095 C 0.19347 0.69138 0.55122 0.0
C1096 C 0.1381 0.70223 0.56158 0.0
C1097 C 0.20287 0.71213 0.57517 0.0
C1098 C 0.1803 0.72736 0.59266 0.0
C1099 C 0.12507 0.73909 0.60254 0.0
C1100 C 0.09269 0.73597 0.59447 0.0
C1101 C 0.14786 0.72283 0.58589 0.0
C1102 C 0.08324 0.7158 0.57003 0.0
C1103 C 0.10568 0.69877 0.554 0.0
H1104 H 0.94398 0.72105 0.71091 0.0
H1105 H 0.02688 0.68549 0.66703 0.0
H1106 H 0.01225 0.63262 0.68288 0.0
H1107 H 0.97555 0.59622 0.70931 0.0
H1108 H 0.88995 0.63136 0.7482 0.0
H1109 H 0.9059 0.68452 0.73455 0.0
C1110 C 0.95878 0.70169 0.70482 0.0
C1111 C 0.9865 0.70717 0.68793 0.0
C1112 C 0.94977 0.67126 0.71329 0.0
C1113 C 1.0053 0.68184 0.67986 0.0
C1114 C 0.99704 0.65162 0.68905 0.0
C1115 C 0.9606 0.61563 0.7149 0.0
C1116 C 0.93185 0.61011 0.73002 0.0
C1117 C 0.96934 0.64602 0.70584 0.0
C1118 C 0.91225 0.63522 0.73663 0.0
C1119 C 0.92134 0.66557 0.72882 0.0
H1120 H 0.20036 0.21385 0.4305 0.0
H1121 H 0.16139 0.15967 0.50542 0.0
H1122 H 0.10754 0.17413 0.48835 0.0
H1123 H 0.07164 0.20372 0.45228 0.0
H1124 H 0.1127 0.25656 0.37763 0.0
H1125 H 0.16573 0.24103 0.39444 0.0
C1126 C 0.18019 0.20507 0.44326 0.0
C1127 C 0.18506 0.18583 0.46941 0.0
C1128 C 0.14965 0.21344 0.43338 0.0
C1129 C 0.15842 0.17441 0.48517 0.0
C1130 C 0.12764 0.18277 0.47545 0.0
C1131 C 0.09235 0.21206 0.4401 0.0
C1132 C 0.08854 0.23231 0.41452 0.0
C1133 C 0.12297 0.2026 0.44974 0.0
C1134 C 0.11525 0.24174 0.39788 0.0
C1135 C 0.14551 0.23276 0.4074 0.0
H1136 H 0.63931 0.39626 0.24883 0.0
H1137 H 0.59651 0.47236 0.19923 0.0
H1138 H 0.56096 0.43597 0.17097 0.0
H1139 H 0.54275 0.38205 0.15958 0.0
H1140 H 0.58246 0.30677 0.2127 0.0
H1141 H 0.61859 0.34306 0.24029 0.0
C1142 C 0.62224 0.40482 0.23181 0.0
C1143 C 0.62073 0.43683 0.22585 0.0
C1144 C 0.60135 0.38387 0.21627 0.0
C1145 C 0.59809 0.44773 0.20415 0.0
C1146 C 0.57785 0.42696 0.18792 0.0
C1147 C 0.55921 0.37382 0.17737 0.0
C1148 C 0.55976 0.34207 0.18459 0.0
C1149 C 0.57937 0.39495 0.19367 0.0
C1150 C 0.58135 0.33134 0.20731 0.0
C1151 C 0.60207 0.35201 0.22295 0.0
H1152 H 0.32345 0.80931 0.93755 0.0
H1153 H 0.3636 0.87878 1.00054 0.0
H1154 H 0.41685 0.86465 0.98578 0.0
H1155 H 0.45233 0.83138 0.95661 0.0
H1156 H 0.41266 0.76271 0.89256 0.0
H1157 H 0.35915 0.7779 0.906 0.0
C1158 C 0.34382 0.82146 0.94796 0.0
C1159 C 0.33934 0.84501 0.97025 0.0
C1160 C 0.3746 0.81335 0.93923 0.0
C1161 C 0.36615 0.86063 0.98327 0.0
C1162 C 0.39672 0.8525 0.97492 0.0
C1163 C 0.43201 0.81977 0.94547 0.0
C1164 C 0.43665 0.79579 0.92373 0.0
C1165 C 0.40126 0.82871 0.95317 0.0
C1166 C 0.40992 0.7813 0.90933 0.0
C1167 C 0.37924 0.78988 0.91709 0.0
H1168 H 0.89052 0.43144 0.837 0.0
H1169 H 0.9675 0.45061 0.77504 0.0
H1170 H 0.99826 0.40895 0.79923 0.0
H1171 H 1.00308 0.36654 0.83814 0.0
H1172 H 0.92726 0.35066 0.90222 0.0
H1173 H 0.89617 0.39123 0.87695 0.0
C1174 C 0.91406 0.42657 0.82879 0.0
C1175 C 0.92661 0.4441 0.80415 0.0
C1176 C 0.93174 0.40294 0.8431 0.0
C1177 C 0.95731 0.43764 0.79407 0.0
C1178 C 0.97485 0.41368 0.80779 0.0
C1179 C 0.97965 0.37189 0.84632 0.0
C1180 C 0.96728 0.35543 0.87176 0.0
C1181 C 0.96225 0.39604 0.83225 0.0
C1182 C 0.9372 0.36297 0.88262 0.0
C1183 C 0.91943 0.38618 0.86821 0.0
H1184 H 0.32542 0.21376 0.56599 0.0
H1185 H 0.37826 0.15834 0.50244 0.0
H1186 H 0.428 0.17385 0.52931 0.0
H1187 H 0.45685 0.20435 0.57057 0.0
H1188 H 0.40364 0.25602 0.63695 0.0
H1189 H 0.3539 0.24073 0.60985 0.0
C1190 C 0.34797 0.206 0.55745 0.0
C1191 C 0.34833 0.18621 0.53122 0.0
C1192 C 0.3764 0.21397 0.57396 0.0
C1193 C 0.37752 0.17465 0.5217 0.0
C1194 C 0.40589 0.18298 0.5375 0.0
C1195 C 0.43433 0.21236 0.57891 0.0
C1196 C 0.43396 0.23261 0.60478 0.0
C1197 C 0.40572 0.20285 0.56354 0.0
C1198 C 0.40455 0.24137 0.61642 0.0
C1199 C 0.37611 0.23256 0.60095 0.0
H1200 H 0.54589 0.68995 0.3108 0.0
H1201 H 0.60882 0.69545 0.39143 0.0
H1202 H 0.63751 0.65049 0.3731 0.0
H1203 H 0.64408 0.60855 0.33491 0.0
H1204 H 0.57929 0.6007 0.25598 0.0
H1205 H 0.55227 0.64754 0.27265 0.0
C1206 C 0.56592 0.6813 0.32428 0.0
C1207 C 0.57512 0.69601 0.35246 0.0
C1208 C 0.58209 0.655 0.31385 0.0
C1209 C 0.60105 0.68444 0.36976 0.0
C1210 C 0.61759 0.65877 0.35925 0.0
C1211 C 0.62426 0.61731 0.32121 0.0
C1212 C 0.61382 0.60132 0.29418 0.0
C1213 C 0.60827 0.64376 0.33141 0.0
C1214 C 0.58779 0.61264 0.2769 0.0
C1215 C 0.57228 0.6394 0.28644 0.0
H1216 H 0.07798 0.84202 0.07065 0.0
H1217 H 0.12107 0.7649 0.11861 0.0
H1218 H 0.1736 0.7829 0.10144 0.0
H1219 H 0.20679 0.82019 0.07072 0.0
H1220 H 0.16113 0.89585 0.02293 0.0
H1221 H 0.10978 0.87862 0.04208 0.0
C1222 C 0.09874 0.82891 0.07748 0.0
C1223 C 0.09546 0.80192 0.09572 0.0
C1224 C 0.12833 0.83905 0.06726 0.0
C1225 C 0.12287 0.78578 0.10468 0.0
C1226 C 0.15285 0.79601 0.09473 0.0
C1227 C 0.1854 0.83244 0.06422 0.0
C1228 C 0.18728 0.85845 0.04441 0.0
C1229 C 0.15579 0.82242 0.07558 0.0
C1230 C 0.1599 0.87525 0.03739 0.0
C1231 C 0.13065 0.86551 0.04843 0.0
H1232 H 0.70036 0.90299 0.59408 0.0
H1233 H 0.7773 0.97041 0.59571 0.0
H1234 H 0.75615 0.99423 0.64276 0.0
H1235 H 0.71512 0.99592 0.68337 0.0
H1236 H 0.63722 0.92939 0.67889 0.0
H1237 H 0.65937 0.90535 0.63307 0.0
C1238 C 0.71266 0.9228 0.60479 0.0
C1239 C 0.7405 0.93476 0.59156 0.0
C1240 C 0.70007 0.93665 0.63132 0.0
C1241 C 0.75586 0.96072 0.6055 0.0
C1242 C 0.74375 0.97434 0.63238 0.0
C1243 C 0.70305 0.97618 0.67232 0.0
C1244 C 0.67454 0.96449 0.68463 0.0
C1245 C 0.71577 0.96255 0.6455 0.0
C1246 C 0.6591 0.93898 0.66992 0.0
C1247 C 0.67179 0.92511 0.64371 0.0
H1248 H 0.88892 0.98802 0.37226 0.0
H1249 H 0.84285 0.93552 0.2979 0.0
H1250 H 0.81445 0.90403 0.33613 0.0
H1251 H 0.8028 0.89171 0.39061 0.0
H1252 H 0.84466 0.94785 0.46474 0.0
H1253 H 0.87488 0.97772 0.42665 0.0
C1254 C 0.87281 0.96965 0.36441 0.0
C1255 C 0.86824 0.96391 0.33229 0.0
C1256 C 0.85582 0.95239 0.38649 0.0
C1257 C 0.84676 0.94034 0.3225 0.0
C1258 C 0.83058 0.92234 0.34434 0.0
C1259 C 0.81842 0.91051 0.39849 0.0
C1260 C 0.82149 0.91746 0.43055 0.0
C1261 C 0.83491 0.9282 0.3764 0.0
C1262 C 0.84178 0.94208 0.44023 0.0
C1263 C 0.8591 0.95911 0.41846 0.0
H1264 H 0.78938 0.04947 0.06879 0.0
H1265 H 0.81248 0.14603 0.08651 0.0
H1266 H 0.83621 0.13256 0.13723 0.0
H1267 H 0.85165 0.09292 0.17604 0.0
H1268 H 0.82327 0.99724 0.16083 0.0
H1269 H 0.8002 0.01058 0.10975 0.0
C1270 C 0.79947 0.06753 0.08386 0.0
C1271 C 0.79942 0.09867 0.07389 0.0
C1272 C 0.81214 0.0597 0.1134 0.0
C1273 C 0.8122 0.12192 0.09377 0.0
C1274 C 0.82586 0.11421 0.12269 0.0
C1275 C 0.84027 0.07509 0.16152 0.0
C1276 C 0.83935 0.04412 0.17194 0.0
C1277 C 0.82616 0.08315 0.13267 0.0
C1278 C 0.82418 0.02123 0.15324 0.0
C1279 C 0.8111 0.02885 0.12403 0.0
H1280 H 0.67932 0.0835 0.82083 0.0
H1281 H 0.64484 0.00983 0.87963 0.0
H1282 H 0.67235 0.03301 0.92472 0.0
H1283 H 0.70437 0.07529 0.9481 0.0
H1284 H 0.73951 0.14954 0.89067 0.0
H1285 H 0.7137 0.12543 0.84441 0.0
C1286 C 0.67818 0.07252 0.84351 0.0
C1287 C 0.6595 0.04541 0.84716 0.0
C1288 C 0.69414 0.08613 0.86953 0.0
C1289 C 0.65817 0.03125 0.87654 0.0
C1290 C 0.67407 0.04439 0.90229 0.0
C1291 C 0.70682 0.08581 0.9253 0.0
C1292 C 0.72457 0.11346 0.92239 0.0
C1293 C 0.69177 0.07199 0.89916 0.0
C1294 C 0.72646 0.1278 0.89314 0.0
C1295 C 0.71171 0.11404 0.86679 0.0
H1296 H 0.61968 0.73117 0.88725 0.0
H1297 H 0.55885 0.69982 0.96029 0.0
H1298 H 0.60429 0.67681 0.98803 0.0
H1299 H 0.66263 0.66815 0.99248 0.0
H1300 H 0.72162 0.6984 0.91691 0.0
H1301 H 0.6759 0.71896 0.88936 0.0
C1302 C 0.61649 0.71938 0.90932 0.0
C1303 C 0.58648 0.7185 0.92259 0.0
C1304 C 0.64251 0.7059 0.92471 0.0
C1305 C 0.58221 0.70209 0.9505 0.0
C1306 C 0.6081 0.68862 0.96613 0.0
C1307 C 0.66531 0.67875 0.96978 0.0
C1308 C 0.69572 0.68194 0.95708 0.0
C1309 C 0.6386 0.69079 0.95369 0.0
C1310 C 0.69868 0.69592 0.92759 0.0
C1311 C 0.6725 0.70776 0.91167 0.0
H1312 H 0.081 0.11289 0.77743 0.0
H1313 H 0.15813 0.11157 0.84522 0.0
H1314 H 0.13654 0.15643 0.87174 0.0
H1315 H 0.09551 0.19575 0.87631 0.0
H1316 H 0.02007 0.19988 0.80704 0.0
H1317 H 0.0411 0.15433 0.78054 0.0
C1318 C 0.09308 0.12251 0.79795 0.0
C1319 C 0.1211 0.10878 0.80936 0.0
C1320 C 0.08076 0.14877 0.81291 0.0
C1321 C 0.13662 0.12169 0.83584 0.0
C1322 C 0.12422 0.14731 0.85113 0.0
C1323 C 0.08361 0.18661 0.85546 0.0
C1324 C 0.0561 0.20095 0.84383 0.0
C1325 C 0.09625 0.16094 0.84 0.0
C1326 C 0.04126 0.18919 0.81649 0.0
C1327 C 0.05327 0.16314 0.80135 0.0
H1328 H 0.94839 0.33486 0.46249 0.0
H1329 H 0.90713 0.26544 0.40019 0.0
H1330 H 0.85405 0.28047 0.41513 0.0
H1331 H 0.81908 0.31233 0.44692 0.0
H1332 H 0.86027 0.38286 0.50799 0.0
H1333 H 0.91332 0.36846 0.49236 0.0
C1334 C 0.92782 0.32302 0.45209 0.0
C1335 C 0.93198 0.29889 0.43029 0.0
C1336 C 0.89718 0.33198 0.46059 0.0
C1337 C 0.90486 0.28411 0.41695 0.0
C1338 C 0.87439 0.29265 0.42555 0.0
C1339 C 0.83962 0.32467 0.45677 0.0
C1340 C 0.83545 0.34863 0.47876 0.0
C1341 C 0.87023 0.31641 0.4475 0.0
C1342 C 0.86253 0.36441 0.49099 0.0
C1343 C 0.89299 0.35611 0.48213 0.0
H1344 H 0.57098 0.91787 0.78035 0.0
H1345 H 0.64249 0.94306 0.84952 0.0
H1346 H 0.62526 0.89989 0.88265 0.0
H1347 H 0.58969 0.85501 0.89189 0.0
H1348 H 0.52056 0.82753 0.82094 0.0
H1349 H 0.53662 0.87164 0.78878 0.0
C1350 C 0.58244 0.91398 0.80286 0.0
C1351 C 0.6071 0.93411 0.81318 0.0
C1352 C 0.5729 0.88866 0.82137 0.0
C1353 C 0.62287 0.92821 0.84164 0.0
C1354 C 0.61309 0.90352 0.86048 0.0
C1355 C 0.57816 0.85864 0.86939 0.0
C1356 C 0.55396 0.83792 0.85887 0.0
C1357 C 0.58805 0.88363 0.85064 0.0
C1358 C 0.53941 0.84294 0.82953 0.0
C1359 C 0.54856 0.86819 0.8111 0.0
H1360 H 0.93452 0.17022 0.37436 0.0
H1361 H 0.99351 0.19525 0.29731 0.0
H1362 H 0.97394 0.14975 0.26797 0.0
H1363 H 0.94099 0.10202 0.2647 0.0
H1364 H 0.87773 0.07951 0.33895 0.0
H1365 H 0.89733 0.12506 0.36876 0.0
C1366 C 0.94284 0.1657 0.35108 0.0
C1367 C 0.9655 0.18583 0.338 0.0
C1368 C 0.93062 0.14005 0.33388 0.0
C1369 C 0.97593 0.18008 0.30771 0.0
C1370 C 0.96479 0.15409 0.29095 0.0
C1371 C 0.93167 0.10716 0.28747 0.0
C1372 C 0.90904 0.087 0.30038 0.0
C1373 C 0.94234 0.13379 0.30388 0.0
C1374 C 0.89587 0.09444 0.32913 0.0
C1375 C 0.90702 0.12044 0.34608 0.0
H1376 H 0.57242 0.10409 0.76677 0.0
H1377 H 0.60615 0.06109 0.68322 0.0
H1378 H 0.59046 0.10662 0.65272 0.0
H1379 H 0.56555 0.15848 0.64967 0.0
H1380 H 0.53533 0.20206 0.73444 0.0
H1381 H 0.55125 0.15673 0.76441 0.0
C1382 C 0.57639 0.10469 0.74189 0.0
C1383 C 0.5902 0.07911 0.72728 0.0
C1384 C 0.56788 0.13115 0.72465 0.0
C1385 C 0.59561 0.08049 0.69507 0.0
C1386 C 0.58654 0.10649 0.6776 0.0
C1387 C 0.56262 0.15805 0.67471 0.0
C1388 C 0.54911 0.18364 0.68971 0.0
C1389 C 0.57243 0.13193 0.69209 0.0
C1390 C 0.54574 0.18281 0.72224 0.0
C1391 C 0.55474 0.1568 0.73946 0.0
H1392 H 0.18177 0.33271 1.001 0.0
H1393 H 0.19017 0.41117 0.93947 0.0
H1394 H 0.14199 0.3941 0.91071 0.0
H1395 H 0.09872 0.35525 0.90171 0.0
H1396 H 0.09159 0.27609 0.96252 0.0
H1397 H 0.13808 0.29463 0.99276 0.0
C1398 C 0.17315 0.34579 0.98106 0.0
C1399 C 0.19001 0.37236 0.97143 0.0
C1400 C 0.14562 0.33573 0.96465 0.0
C1401 C 0.1779 0.39012 0.94664 0.0
C1402 C 0.15043 0.38037 0.93024 0.0
C1403 C 0.10736 0.34229 0.92171 0.0
C1404 C 0.09128 0.315 0.93067 0.0
C1405 C 0.13435 0.35294 0.93874 0.0
C1406 C 0.10303 0.29779 0.95601 0.0
C1407 C 0.12967 0.30828 0.97316 0.0
H1408 H 0.42876 0.76248 0.45817 0.0
H1409 H 0.4651 0.69417 0.39495 0.0
H1410 H 0.42141 0.65855 0.40727 0.0
H1411 H 0.37256 0.64667 0.43612 0.0
H1412 H 0.336 0.71616 0.49793 0.0
H1413 H 0.38011 0.7511 0.48614 0.0
C1414 C 0.42722 0.73983 0.44701 0.0
C1415 C 0.45035 0.73117 0.42563 0.0
C1416 C 0.40194 0.71948 0.45404 0.0
C1417 C 0.44767 0.70165 0.4114 0.0
C1418 C 0.42269 0.68115 0.41851 0.0
C1419 C 0.37433 0.66939 0.4471 0.0
C1420 C 0.35087 0.67866 0.4679 0.0
C1421 C 0.39967 0.68978 0.43985 0.0
C1422 C 0.35352 0.70836 0.48171 0.0
C1423 C 0.3788 0.72843 0.47501 0.0
H1424 H 0.81941 0.52772 0.85318 0.0
H1425 H 0.88716 0.59705 0.82271 0.0
H1426 H 0.87377 0.63062 0.86619 0.0
H1427 H 0.84214 0.64103 0.91212 0.0
H1428 H 0.77546 0.57139 0.94395 0.0
H1429 H 0.78927 0.53731 0.90082 0.0
C1430 C 0.83128 0.55016 0.85605 0.0
C1431 C 0.85422 0.55978 0.83451 0.0
C1432 C 0.82368 0.56937 0.88139 0.0
C1433 C 0.86952 0.58888 0.83888 0.0
C1434 C 0.86181 0.60819 0.86374 0.0
C1435 C 0.83063 0.61837 0.90977 0.0
C1436 C 0.80764 0.60896 0.93133 0.0
C1437 C 0.83884 0.59876 0.88504 0.0
C1438 C 0.79327 0.57933 0.92786 0.0
C1439 C 0.80108 0.55981 0.90309 0.0
H1440 H 0.6824 0.58684 0.19505 0.0
H1441 H 0.7145 0.49611 0.16818 0.0
H1442 H 0.72861 0.51589 0.11711 0.0
H1443 H 0.73437 0.55934 0.08066 0.0
H1444 H 0.70642 0.65111 0.10828 0.0
H1445 H 0.68791 0.63064 0.15801 0.0
C1446 C 0.69229 0.57141 0.17792 0.0
C1447 C 0.69746 0.54003 0.18559 0.0
C1448 C 0.70109 0.58314 0.14859 0.0
C1449 C 0.71054 0.52041 0.16313 0.0
C1450 C 0.71853 0.53167 0.13379 0.0
C1451 C 0.72379 0.57478 0.09737 0.0
C1452 C 0.72155 0.60665 0.09065 0.0
C1453 C 0.71423 0.56303 0.12634 0.0
C1454 C 0.70832 0.62645 0.11283 0.0
C1455 C 0.69782 0.61476 0.14134 0.0
H1456 H 0.74428 0.44797 0.43494 0.0
H1457 H 0.67697 0.3717 0.42404 0.0
H1458 H 0.65161 0.39759 0.38018 0.0
H1459 H 0.64883 0.44136 0.3435 0.0
H1460 H 0.72026 0.51401 0.34879 0.0
H1461 H 0.74338 0.49059 0.39602 0.0
C1462 C 0.72398 0.43711 0.42305 0.0
C1463 C 0.71225 0.40811 0.43347 0.0
C1464 C 0.71012 0.45161 0.39667 0.0
C1465 C 0.68633 0.39414 0.41717 0.0
C1466 C 0.6717 0.40896 0.39191 0.0
C1467 C 0.66944 0.45198 0.3551 0.0
C1468 C 0.68322 0.47896 0.34253 0.0
C1469 C 0.68338 0.43764 0.38138 0.0
C1470 C 0.7097 0.49282 0.35782 0.0
C1471 C 0.72284 0.47948 0.38484 0.0
H1472 H 0.83173 0.51379 0.6754 0.0
H1473 H 0.8993 0.44137 0.69108 0.0
H1474 H 0.87704 0.41205 0.64633 0.0
H1475 H 0.83744 0.40675 0.60317 0.0
H1476 H 0.77436 0.48228 0.58363 0.0
H1477 H 0.79542 0.51067 0.62941 0.0
C1478 C 0.84124 0.49143 0.66906 0.0
C1479 C 0.86605 0.47889 0.68711 0.0
C1480 C 0.8292 0.47544 0.64255 0.0
C1481 C 0.87945 0.45079 0.67796 0.0
C1482 C 0.86687 0.43418 0.65233 0.0
C1483 C 0.82859 0.42955 0.60886 0.0
C1484 C 0.80444 0.44248 0.5902 0.0
C1485 C 0.84159 0.44618 0.63456 0.0
C1486 C 0.79319 0.47208 0.59757 0.0
C1487 C 0.80511 0.48823 0.62379 0.0
H1488 H 0.46012 0.08931 0.21857 0.0
H1489 H 0.37169 0.12726 0.2477 0.0
H1490 H 0.38936 0.17938 0.23196 0.0
H1491 H 0.43014 0.21412 0.20993 0.0
H1492 H 0.51632 0.17531 0.1758 0.0
H1493 H 0.49936 0.12353 0.19305 0.0
C1494 C 0.44489 0.1091 0.22157 0.0
C1495 C 0.4149 0.10475 0.23464 0.0
C1496 C 0.45472 0.13872 0.21132 0.0
C1497 C 0.39495 0.13026 0.23781 0.0
C1498 C 0.40503 0.15999 0.2288 0.0
C1499 C 0.4451 0.19426 0.20617 0.0
C1500 C 0.47447 0.19849 0.19174 0.0
C1501 C 0.43485 0.16449 0.21549 0.0
C1502 C 0.49351 0.17256 0.18668 0.0
C1503 C 0.48391 0.14301 0.19671 0.0
H1504 H 0.04745 0.89299 0.65487 0.0
H1505 H 0.0939 0.81844 0.70354 0.0
H1506 H 0.12888 0.85581 0.73099 0.0
H1507 H 0.1463 0.90952 0.74114 0.0
H1508 H 0.09677 0.98507 0.69738 0.0
H1509 H 0.06263 0.94774 0.66833 0.0
C1510 C 0.06519 0.88513 0.6716 0.0
C1511 C 0.06795 0.85314 0.67754 0.0
C1512 C 0.08459 0.90693 0.68814 0.0
C1513 C 0.09113 0.84304 0.69901 0.0
C1514 C 0.11116 0.86437 0.71462 0.0
C1515 C 0.1281 0.91788 0.72528 0.0
C1516 C 0.12435 0.95004 0.7212 0.0
C1517 C 0.10809 0.89635 0.70942 0.0
C1518 C 0.10016 0.96041 0.70091 0.0
C1519 C 0.08075 0.93908 0.68419 0.0
H1520 H 0.49254 0.88996 0.37697 0.0
H1521 H 0.45325 0.81017 0.32778 0.0
H1522 H 0.41904 0.84411 0.29649 0.0
H1523 H 0.39894 0.89658 0.28461 0.0
H1524 H 0.44247 0.97651 0.33025 0.0
H1525 H 0.4765 0.94251 0.3614 0.0
C1526 C 0.47669 0.88001 0.35925 0.0
C1527 C 0.47529 0.84756 0.35484 0.0
C1528 C 0.4578 0.89974 0.3408 0.0
C1529 C 0.45484 0.83508 0.33153 0.0
C1530 C 0.43518 0.85447 0.31375 0.0
C1531 C 0.41602 0.90654 0.3012 0.0
C1532 C 0.41802 0.93905 0.30525 0.0
C1533 C 0.43623 0.88684 0.31838 0.0
C1534 C 0.44054 0.9516 0.32664 0.0
C1535 C 0.45992 0.93215 0.34454 0.0
H1536 H 0.82336 0.70868 0.07334 0.0
H1537 H 0.87466 0.64022 0.02247 0.0
H1538 H 0.92519 0.66349 0.04101 0.0
H1539 H 0.95493 0.70527 0.06958 0.0
H1540 H 0.90399 0.77052 0.12474 0.0
H1541 H 0.85334 0.74688 0.10687 0.0
C1542 C 0.84567 0.69905 0.06625 0.0
C1543 C 0.84544 0.67388 0.04512 0.0
C1544 C 0.87467 0.71213 0.07773 0.0
C1545 C 0.87437 0.66039 0.03764 0.0
C1546 C 0.90324 0.67362 0.04836 0.0
C1547 C 0.93265 0.71483 0.07688 0.0
C1548 C 0.93306 0.74078 0.09699 0.0
C1549 C 0.90372 0.70013 0.0676 0.0
C1550 C 0.90416 0.75155 0.10808 0.0
C1551 C 0.87525 0.73759 0.09838 0.0
H1552 H 0.57283 0.34258 0.57755 0.0
H1553 H 0.61846 0.26994 0.63015 0.0
H1554 H 0.67049 0.28925 0.61311 0.0
H1555 H 0.70273 0.32592 0.58089 0.0
H1556 H 0.65503 0.39733 0.52858 0.0
H1557 H 0.60396 0.37928 0.54786 0.0
C1558 C 0.59406 0.33083 0.58549 0.0
C1559 C 0.59158 0.30464 0.605 0.0
C1560 C 0.62353 0.34173 0.57534 0.0
C1561 C 0.61958 0.29021 0.61527 0.0
C1562 C 0.64932 0.30117 0.60539 0.0
C1563 C 0.681 0.3371 0.57349 0.0
C1564 C 0.6823 0.36207 0.55231 0.0
C1565 C 0.65155 0.32664 0.58495 0.0
C1566 C 0.65435 0.37751 0.54411 0.0
C1567 C 0.62522 0.36729 0.55523 0.0
H1568 H 0.19226 0.40742 0.09899 0.0
H1569 H 0.27353 0.46966 0.10211 0.0
H1570 H 0.25242 0.49598 0.14781 0.0
H1571 H 0.21028 0.50135 0.18703 0.0
H1572 H 0.12794 0.44033 0.18089 0.0
H1573 H 0.14989 0.41383 0.13634 0.0
C1574 C 0.20551 0.42661 0.10978 0.0
C1575 C 0.23462 0.43632 0.09733 0.0
C1576 C 0.19285 0.44208 0.13549 0.0
C1577 C 0.25114 0.46162 0.1113 0.0
C1578 C 0.23903 0.47671 0.13742 0.0
C1579 C 0.19713 0.48235 0.17585 0.0
C1580 C 0.16745 0.47293 0.18746 0.0
C1581 C 0.2098 0.46722 0.14972 0.0
C1582 C 0.15073 0.44827 0.17253 0.0
C1583 C 0.16332 0.43293 0.14703 0.0
H1584 H 0.38258 0.48431 0.87533 0.0
H1585 H 0.32754 0.43918 0.80177 0.0
H1586 H 0.29838 0.40905 0.84052 0.0
H1587 H 0.28902 0.3954 0.89525 0.0
H1588 H 0.3401 0.44469 0.96886 0.0
H1589 H 0.37038 0.47364 0.93007 0.0
C1590 C 0.3642 0.46799 0.8677 0.0
C1591 C 0.35744 0.46389 0.83562 0.0
C1592 C 0.34684 0.45159 0.89015 0.0
C1593 C 0.33321 0.4428 0.82629 0.0
C1594 C 0.31658 0.42555 0.84844 0.0
C1595 C 0.30665 0.41255 0.90286 0.0
C1596 C 0.31238 0.41775 0.93497 0.0
C1597 C 0.32324 0.42974 0.88043 0.0
C1598 C 0.33517 0.44031 0.94433 0.0
C1599 C 0.35254 0.45677 0.92216 0.0
H1600 H 0.28813 0.55476 0.56991 0.0
H1601 H 0.32499 0.64776 0.58552 0.0
H1602 H 0.34596 0.63249 0.63685 0.0
H1603 H 0.35468 0.59225 0.67689 0.0
H1604 H 0.31291 0.50084 0.66366 0.0
H1605 H 0.2927 0.51583 0.61193 0.0
C1606 C 0.30069 0.57165 0.58461 0.0
C1607 C 0.30533 0.60226 0.57388 0.0
C1608 C 0.3117 0.56296 0.61451 0.0
C1609 C 0.3212 0.62407 0.59333 0.0
C1610 C 0.33321 0.61533 0.62262 0.0
C1611 C 0.34101 0.57571 0.66268 0.0
C1612 C 0.33545 0.54543 0.67387 0.0
C1613 C 0.32873 0.5848 0.63339 0.0
C1614 C 0.31738 0.5243 0.65552 0.0
C1615 C 0.30596 0.53283 0.62591 0.0
H1616 H 0.17966 0.58717 0.32489 0.0
H1617 H 0.14145 0.51816 0.38698 0.0
H1618 H 0.1701 0.54202 0.43097 0.0
H1619 H 0.20473 0.58337 0.45248 0.0
H1620 H 0.243 0.65349 0.39194 0.0
H1621 H 0.21573 0.62874 0.3468 0.0
C1622 C 0.17798 0.57727 0.34802 0.0
C1623 C 0.15807 0.55115 0.35275 0.0
C1624 C 0.19446 0.59144 0.37352 0.0
C1625 C 0.15593 0.53863 0.38285 0.0
C1626 C 0.17242 0.55222 0.40804 0.0
C1627 C 0.20739 0.59293 0.42929 0.0
C1628 C 0.22654 0.61953 0.42521 0.0
C1629 C 0.19146 0.57878 0.40374 0.0
C1630 C 0.22881 0.63259 0.39538 0.0
C1631 C 0.21325 0.61843 0.36964 0.0
loop_
_geom_bond_atom_site_label_1
_geom_bond_atom_site_label_2
_geom_bond_distance
_geom_bond_site_symmetry_2
_ccdc_geom_bond_type
Mn0 O5 2.095 1_455 S
Mn0 O15 2.162 1_455 S
Mn0 O16 2.297 1_455 S
Mn0 O24 2.385 . S
Mn0 O25 2.209 . S
Mn0 O26 2.094 . S
Mn1 O6 2.121 1_455 S
Mn1 N8 2.257 . S
Mn1 N17 2.282 . S
Mn1 O25 2.215 . S
Mn1 O27 2.117 . S
C2 O24 1.234 . S
C2 O25 1.283 . S
C3 O15 1.281 . S
C3 O16 1.236 . S
C4 O26 1.240 . S
C4 O27 1.264 . S
O5 Mn0 2.095 1_655 S
O5 C14 1.250 . S
O6 Mn1 2.121 1_655 S
O6 C14 1.258 . S
C7 N8 1.326 . S
C7 C11 1.460 . S
C7 H13 0.929 1_455 S
N8 Mn1 2.257 . S
N8 C7 1.326 . S
N8 C12 1.362 . S
C9 C10 1.258 . S
C9 C12 1.431 . S
C9 C29 1.449 . S
C10 C9 1.258 . S
C10 C11 1.477 . S
C10 H30 0.931 . S
C11 C7 1.460 . S
C11 C10 1.477 . S
C11 H31 0.930 . S
C12 N8 1.362 . S
C12 C9 1.431 . S
C12 C22 1.476 . S
H13 C7 0.929 1_655 S
C14 O5 1.250 . S
C14 O6 1.258 . S
O15 Mn0 2.162 1_655 S
O15 C3 1.281 . S
O16 Mn0 2.297 1_655 S
O16 C3 1.236 . S
N17 Mn1 2.282 . S
N17 C18 1.328 . S
N17 C22 1.318 . S
C18 N17 1.328 . S
C18 C19 1.457 . S
C18 H23 0.929 . S
C19 C18 1.457 . S
C19 C20 1.291 . S
C19 H32 0.931 . S
C20 C19 1.291 . S
C20 C21 1.373 . S
C20 H33 0.929 . S
C21 C20 1.373 . S
C21 C22 1.396 . S
C21 C28 1.403 . S
C22 C12 1.476 . S
C22 N17 1.318 . S
C22 C21 1.396 . S
H23 C18 0.929 . S
O24 Mn0 2.385 . S
O24 C2 1.234 . S
O25 Mn0 2.209 . S
O25 Mn1 2.215 . S
O25 C2 1.283 . S
O26 Mn0 2.094 . S
O26 C4 1.240 . S
O27 Mn1 2.117 . S
O27 C4 1.264 . S
C28 C21 1.403 . S
C28 C29 1.399 . S
C28 H34 0.929 . S
C29 C9 1.449 . S
C29 C28 1.399 . S
C29 H35 0.930 . S
H30 C10 0.931 . S
H31 C11 0.930 . S
H32 C19 0.931 . S
H33 C20 0.929 . S
H34 C28 0.929 . S
H35 C29 0.930 . S
Mn36 O41 2.095 1_455 S
Mn36 O51 2.162 . S
Mn36 O52 2.297 . S
Mn36 O60 2.385 . S
Mn36 O61 2.209 . S
Mn36 O62 2.094 1_455 S
Mn37 O42 2.121 . S
Mn37 N44 2.257 . S
Mn37 N53 2.282 . S
Mn37 O61 2.215 1_655 S
Mn37 O63 2.117 . S
C38 O60 1.234 . S
C38 O61 1.283 . S
C39 O51 1.281 . S
C39 O52 1.236 . S
C40 O62 1.240 . S
C40 O63 1.264 . S
O41 Mn36 2.095 1_655 S
O41 C50 1.250 . S
O42 Mn37 2.121 . S
O42 C50 1.258 . S
C43 N44 1.326 . S
C43 C47 1.460 . S
C43 H49 0.929 . S
N44 Mn37 2.257 . S
N44 C43 1.326 . S
N44 C48 1.362 . S
C45 C46 1.258 . S
C45 C48 1.431 . S
C45 C65 1.449 . S
C46 C45 1.258 . S
C46 C47 1.477 . S
C46 H66 0.931 . S
C47 C43 1.460 . S
C47 C46 1.477 . S
C47 H67 0.930 . S
C48 N44 1.362 . S
C48 C45 1.431 . S
C48 C58 1.476 . S
H49 C43 0.929 . S
C50 O41 1.250 . S
C50 O42 1.258 . S
O51 Mn36 2.162 . S
O51 C39 1.281 . S
O52 Mn36 2.297 . S
O52 C39 1.236 . S
N53 Mn37 2.282 . S
N53 C54 1.328 . S
N53 C58 1.318 . S
C54 N53 1.328 . S
C54 C55 1.457 . S
C54 H59 0.929 . S
C55 C54 1.457 . S
C55 C56 1.291 . S
C55 H68 0.931 . S
C56 C55 1.291 . S
C56 C57 1.373 . S
C56 H69 0.929 . S
C57 C56 1.373 . S
C57 C58 1.396 . S
C57 C64 1.403 . S
C58 C48 1.476 . S
C58 N53 1.318 . S
C58 C57 1.396 . S
H59 C54 0.929 . S
O60 Mn36 2.385 . S
O60 C38 1.234 . S
O61 Mn36 2.209 . S
O61 Mn37 2.215 1_455 S
O61 C38 1.283 . S
O62 Mn36 2.094 1_655 S
O62 C40 1.240 . S
O63 Mn37 2.117 . S
O63 C40 1.264 . S
C64 C57 1.403 . S
C64 C65 1.399 . S
C64 H70 0.929 . S
C65 C45 1.449 . S
C65 C64 1.399 . S
C65 H71 0.930 . S
H66 C46 0.931 . S
H67 C47 0.930 . S
H68 C55 0.931 . S
H69 C56 0.929 . S
H70 C64 0.929 . S
H71 C65 0.930 . S
Mn72 O77 2.095 . S
Mn72 O87 2.162 . S
Mn72 O88 2.297 . S
Mn72 O96 2.385 . S
Mn72 O97 2.209 . S
Mn72 O98 2.094 . S
Mn73 O78 2.121 . S
Mn73 N80 2.257 . S
Mn73 N89 2.282 . S
Mn73 O97 2.215 . S
Mn73 O99 2.117 . S
C74 O96 1.234 . S
C74 O97 1.283 . S
C75 O87 1.281 . S
C75 O88 1.236 . S
C76 O98 1.240 . S
C76 O99 1.264 . S
O77 Mn72 2.095 . S
O77 C86 1.250 . S
O78 Mn73 2.121 . S
O78 C86 1.258 . S
C79 N80 1.326 . S
C79 C83 1.460 1_556 S
C79 H85 0.929 . S
N80 Mn73 2.257 . S
N80 C79 1.326 . S
N80 C84 1.362 . S
C81 C82 1.258 . S
C81 C84 1.431 1_554 S
C81 C101 1.449 . S
C82 C81 1.258 . S
C82 C83 1.477 . S
C82 H102 0.931 . S
C83 C79 1.460 1_554 S
C83 C82 1.477 . S
C83 H103 0.930 . S
C84 N80 1.362 . S
C84 C81 1.431 1_556 S
C84 C94 1.476 . S
H85 C79 0.929 . S
C86 O77 1.250 . S
C86 O78 1.258 . S
O87 Mn72 2.162 . S
O87 C75 1.281 . S
O88 Mn72 2.297 . S
O88 C75 1.236 . S
N89 Mn73 2.282 . S
N89 C90 1.328 . S
N89 C94 1.318 . S
C90 N89 1.328 . S
C90 C91 1.457 . S
C90 H95 0.929 . S
C91 C90 1.457 . S
C91 C92 1.291 . S
C91 H104 0.931 . S
C92 C91 1.291 . S
C92 C93 1.373 . S
C92 H105 0.929 . S
C93 C92 1.373 . S
C93 C94 1.396 . S
C93 C100 1.403 1_556 S
C94 C84 1.476 . S
C94 N89 1.318 . S
C94 C93 1.396 . S
H95 C90 0.929 . S
O96 Mn72 2.385 . S
O96 C74 1.234 . S
O97 Mn72 2.209 . S
O97 Mn73 2.215 . S
O97 C74 1.283 . S
O98 Mn72 2.094 . S
O98 C76 1.240 . S
O99 Mn73 2.117 . S
O99 C76 1.264 . S
C100 C93 1.403 1_554 S
C100 C101 1.399 . S
C100 H106 0.929 . S
C101 C81 1.449 . S
C101 C100 1.399 . S
C101 H107 0.930 . S
H102 C82 0.931 . S
H103 C83 0.930 . S
H104 C91 0.931 . S
H105 C92 0.929 . S
H106 C100 0.929 . S
H107 C101 0.930 . S
Mn108 O113 2.095 . S
Mn108 O123 2.162 . S
Mn108 O124 2.297 . S
Mn108 O132 2.385 . S
Mn108 O133 2.209 . S
Mn108 O134 2.094 . S
Mn109 O114 2.121 . S
Mn109 N116 2.257 . S
Mn109 N125 2.282 . S
Mn109 O133 2.215 . S
Mn109 O135 2.117 . S
C110 O132 1.234 . S
C110 O133 1.283 . S
C111 O123 1.281 . S
C111 O124 1.236 . S
C112 O134 1.240 . S
C112 O135 1.264 . S
O113 Mn108 2.095 . S
O113 C122 1.250 . S
O114 Mn109 2.121 . S
O114 C122 1.258 . S
C115 N116 1.326 . S
C115 C119 1.460 . S
C115 H121 0.929 . S
N116 Mn109 2.257 . S
N116 C115 1.326 . S
N116 C120 1.362 . S
C117 C118 1.258 . S
C117 C120 1.431 . S
C117 C137 1.449 . S
C118 C117 1.258 . S
C118 C119 1.477 . S
C118 H138 0.931 . S
C119 C115 1.460 . S
C119 C118 1.477 . S
C119 H139 0.930 . S
C120 N116 1.362 . S
C120 C117 1.431 . S
C120 C130 1.476 . S
H121 C115 0.929 . S
C122 O113 1.250 . S
C122 O114 1.258 . S
O123 Mn108 2.162 . S
O123 C111 1.281 . S
O124 Mn108 2.297 . S
O124 C111 1.236 . S
N125 Mn109 2.282 . S
N125 C126 1.328 . S
N125 C130 1.318 . S
C126 N125 1.328 . S
C126 C127 1.457 . S
C126 H131 0.929 . S
C127 C126 1.457 . S
C127 C128 1.291 . S
C127 H140 0.931 . S
C128 C127 1.291 . S
C128 C129 1.373 . S
C128 H141 0.929 . S
C129 C128 1.373 . S
C129 C130 1.396 . S
C129 C136 1.403 . S
C130 C120 1.476 . S
C130 N125 1.318 . S
C130 C129 1.396 . S
H131 C126 0.929 . S
O132 Mn108 2.385 . S
O132 C110 1.234 . S
O133 Mn108 2.209 . S
O133 Mn109 2.215 . S
O133 C110 1.283 . S
O134 Mn108 2.094 . S
O134 C112 1.240 . S
O135 Mn109 2.117 . S
O135 C112 1.264 . S
C136 C129 1.403 . S
C136 C137 1.399 . S
C136 H142 0.929 . S
C137 C117 1.449 . S
C137 C136 1.399 . S
C137 H143 0.930 . S
H138 C118 0.931 . S
H139 C119 0.930 . S
H140 C127 0.931 . S
H141 C128 0.929 . S
H142 C136 0.929 . S
H143 C137 0.930 . S
Mn144 O149 2.095 . S
Mn144 O159 2.162 . S
Mn144 O160 2.297 . S
Mn144 O168 2.385 1_455 S
Mn144 O169 2.209 1_455 S
Mn144 O170 2.094 1_455 S
Mn145 O150 2.121 1_655 S
Mn145 N152 2.257 . S
Mn145 N161 2.282 . S
Mn145 O169 2.215 . S
Mn145 O171 2.117 . S
C146 O168 1.234 . S
C146 O169 1.283 . S
C147 O159 1.281 . S
C147 O160 1.236 . S
C148 O170 1.240 . S
C148 O171 1.264 . S
O149 Mn144 2.095 . S
O149 C158 1.250 . S
O150 Mn145 2.121 1_455 S
O150 C158 1.258 . S
C151 N152 1.326 . S
C151 C155 1.460 1_554 S
C151 H157 0.929 1_655 S
N152 Mn145 2.257 . S
N152 C151 1.326 . S
N152 C156 1.362 . S
C153 C154 1.258 . S
C153 C156 1.431 1_556 S
C153 C173 1.449 . S
C154 C153 1.258 . S
C154 C155 1.477 . S
C154 H174 0.931 . S
C155 C151 1.460 1_556 S
C155 C154 1.477 . S
C155 H175 0.930 1_655 S
C156 N152 1.362 . S
C156 C153 1.431 1_554 S
C156 C166 1.476 . S
H157 C151 0.929 1_455 S
C158 O149 1.250 . S
C158 O150 1.258 . S
O159 Mn144 2.162 . S
O159 C147 1.281 . S
O160 Mn144 2.297 . S
O160 C147 1.236 . S
N161 Mn145 2.282 . S
N161 C162 1.328 . S
N161 C166 1.318 . S
C162 N161 1.328 . S
C162 C163 1.457 . S
C162 H167 0.929 . S
C163 C162 1.457 . S
C163 C164 1.291 . S
C163 H176 0.931 . S
C164 C163 1.291 . S
C164 C165 1.373 . S
C164 H177 0.929 . S
C165 C164 1.373 . S
C165 C166 1.396 . S
C165 C172 1.403 . S
C166 C156 1.476 . S
C166 N161 1.318 . S
C166 C165 1.396 . S
H167 C162 0.929 . S
O168 Mn144 2.385 1_655 S
O168 C146 1.234 . S
O169 Mn144 2.209 1_655 S
O169 Mn145 2.215 . S
O169 C146 1.283 . S
O170 Mn144 2.094 1_655 S
O170 C148 1.240 . S
O171 Mn145 2.117 . S
O171 C148 1.264 . S
C172 C165 1.403 . S
C172 C173 1.399 1_554 S
C172 H178 0.932 . S
C173 C153 1.449 . S
C173 C172 1.399 1_556 S
C173 H179 0.930 . S
H174 C154 0.931 . S
H175 C155 0.930 1_455 S
H176 C163 0.931 . S
H177 C164 0.929 . S
H178 C172 0.932 . S
H179 C173 0.930 . S
Mn180 O185 2.095 . S
Mn180 O195 2.162 . S
Mn180 O196 2.297 . S
Mn180 O204 2.385 . S
Mn180 O205 2.209 . S
Mn180 O206 2.094 . S
Mn181 O186 2.121 . S
Mn181 N188 2.257 . S
Mn181 N197 2.282 . S
Mn181 O205 2.215 . S
Mn181 O207 2.117 . S
C182 O204 1.234 . S
C182 O205 1.283 . S
C183 O195 1.281 . S
C183 O196 1.236 . S
C184 O206 1.240 . S
C184 O207 1.264 . S
O185 Mn180 2.095 . S
O185 C194 1.250 . S
O186 Mn181 2.121 . S
O186 C194 1.258 . S
C187 N188 1.326 . S
C187 C191 1.460 . S
C187 H193 0.929 . S
N188 Mn181 2.257 . S
N188 C187 1.326 . S
N188 C192 1.362 . S
C189 C190 1.258 . S
C189 C192 1.431 . S
C189 C209 1.449 . S
C190 C189 1.258 . S
C190 C191 1.477 . S
C190 H210 0.931 . S
C191 C187 1.460 . S
C191 C190 1.477 . S
C191 H211 0.930 . S
C192 N188 1.362 . S
C192 C189 1.431 . S
C192 C202 1.476 . S
H193 C187 0.929 . S
C194 O185 1.250 . S
C194 O186 1.258 . S
O195 Mn180 2.162 . S
O195 C183 1.281 . S
O196 Mn180 2.297 . S
O196 C183 1.236 . S
N197 Mn181 2.282 . S
N197 C198 1.328 . S
N197 C202 1.318 . S
C198 N197 1.328 . S
C198 C199 1.457 . S
C198 H203 0.929 . S
C199 C198 1.457 . S
C199 C200 1.291 . S
C199 H212 0.931 . S
C200 C199 1.291 . S
C200 C201 1.373 . S
C200 H213 0.929 . S
C201 C200 1.373 . S
C201 C202 1.396 . S
C201 C208 1.403 . S
C202 C192 1.476 . S
C202 N197 1.318 . S
C202 C201 1.396 . S
H203 C198 0.929 . S
O204 Mn180 2.385 . S
O204 C182 1.234 . S
O205 Mn180 2.209 . S
O205 Mn181 2.215 . S
O205 C182 1.283 . S
O206 Mn180 2.094 . S
O206 C184 1.240 . S
O207 Mn181 2.117 . S
O207 C184 1.264 . S
C208 C201 1.403 . S
C208 C209 1.399 . S
C208 H214 0.929 . S
C209 C189 1.449 . S
C209 C208 1.399 . S
C209 H215 0.930 . S
H210 C190 0.931 . S
H211 C191 0.930 . S
H212 C199 0.931 . S
H213 C200 0.929 . S
H214 C208 0.929 . S
H215 C209 0.930 . S
Mn216 O221 2.095 . S
Mn216 O231 2.162 . S
Mn216 O232 2.297 . S
Mn216 O240 2.385 . S
Mn216 O241 2.209 . S
Mn216 O242 2.094 . S
Mn217 O222 2.121 . S
Mn217 N224 2.257 . S
Mn217 N233 2.282 . S
Mn217 O241 2.215 . S
Mn217 O243 2.117 . S
C218 O240 1.234 . S
C218 O241 1.283 . S
C219 O231 1.281 . S
C219 O232 1.236 . S
C220 O242 1.240 . S
C220 O243 1.264 . S
O221 Mn216 2.095 . S
O221 C230 1.250 . S
O222 Mn217 2.121 . S
O222 C230 1.258 . S
C223 N224 1.326 . S
C223 C227 1.460 . S
C223 H229 0.929 . S
N224 Mn217 2.257 . S
N224 C223 1.326 . S
N224 C228 1.362 . S
C225 C226 1.258 . S
C225 C228 1.431 . S
C225 C245 1.449 . S
C226 C225 1.258 . S
C226 C227 1.477 . S
C226 H246 0.931 . S
C227 C223 1.460 . S
C227 C226 1.477 . S
C227 H247 0.930 . S
C228 N224 1.362 . S
C228 C225 1.431 . S
C228 C238 1.476 . S
H229 C223 0.929 . S
C230 O221 1.250 . S
C230 O222 1.258 . S
O231 Mn216 2.162 . S
O231 C219 1.281 . S
O232 Mn216 2.297 . S
O232 C219 1.236 . S
N233 Mn217 2.282 . S
N233 C234 1.328 . S
N233 C238 1.318 . S
C234 N233 1.328 . S
C234 C235 1.457 . S
C234 H239 0.929 . S
C235 C234 1.457 . S
C235 C236 1.291 . S
C235 H248 0.931 . S
C236 C235 1.291 . S
C236 C237 1.373 . S
C236 H249 0.929 . S
C237 C236 1.373 . S
C237 C238 1.396 . S
C237 C244 1.403 . S
C238 C228 1.476 . S
C238 N233 1.318 . S
C238 C237 1.396 . S
H239 C234 0.929 . S
O240 Mn216 2.385 . S
O240 C218 1.234 . S
O241 Mn216 2.209 . S
O241 Mn217 2.215 . S
O241 C218 1.283 . S
O242 Mn216 2.094 . S
O242 C220 1.240 . S
O243 Mn217 2.117 . S
O243 C220 1.264 . S
C244 C237 1.403 . S
C244 C245 1.399 . S
C244 H250 0.929 . S
C245 C225 1.449 . S
C245 C244 1.399 . S
C245 H251 0.930 . S
H246 C226 0.931 . S
H247 C227 0.930 . S
H248 C235 0.931 . S
H249 C236 0.929 . S
H250 C244 0.929 . S
H251 C245 0.930 . S
Mn252 O257 2.095 1_455 S
Mn252 O267 2.162 . S
Mn252 O268 2.297 . S
Mn252 O276 2.385 . S
Mn252 O277 2.209 . S
Mn252 O278 2.094 1_455 S
Mn253 O258 2.121 . S
Mn253 N260 2.257 1_655 S
Mn253 N269 2.282 1_655 S
Mn253 O277 2.215 1_655 S
Mn253 O279 2.117 . S
C254 O276 1.234 . S
C254 O277 1.283 . S
C255 O267 1.281 . S
C255 O268 1.236 . S
C256 O278 1.240 . S
C256 O279 1.264 . S
O257 Mn252 2.095 1_655 S
O257 C266 1.250 . S
O258 Mn253 2.121 . S
O258 C266 1.258 . S
C259 N260 1.323 1_654 S
C259 C263 1.457 1_655 S
C259 H265 0.936 1_554 S
N260 Mn253 2.257 1_455 S
N260 C259 1.323 1_456 S
N260 C264 1.362 . S
C261 C262 1.258 . S
C261 C264 1.431 1_554 S
C261 C281 1.449 . S
C262 C261 1.258 . S
C262 C263 1.477 . S
C262 H282 0.931 . S
C263 C259 1.457 1_455 S
C263 C262 1.477 . S
C263 H283 0.930 . S
C264 N260 1.362 . S
C264 C261 1.431 1_556 S
C264 C274 1.476 . S
H265 C259 0.936 1_556 S
C266 O257 1.250 . S
C266 O258 1.258 . S
O267 Mn252 2.162 . S
O267 C255 1.281 . S
O268 Mn252 2.297 . S
O268 C255 1.236 . S
N269 Mn253 2.282 1_455 S
N269 C270 1.328 . S
N269 C274 1.318 . S
C270 N269 1.328 . S
C270 C271 1.457 . S
C270 H275 0.929 . S
C271 C270 1.457 . S
C271 C272 1.291 . S
C271 H284 0.931 . S
C272 C271 1.291 . S
C272 C273 1.373 . S
C272 H285 0.929 . S
C273 C272 1.373 . S
C273 C274 1.396 . S
C273 C280 1.403 1_556 S
C274 C264 1.476 . S
C274 N269 1.318 . S
C274 C273 1.396 . S
H275 C270 0.929 . S
O276 Mn252 2.385 . S
O276 C254 1.234 . S
O277 Mn252 2.209 . S
O277 Mn253 2.215 1_455 S
O277 C254 1.283 . S
O278 Mn252 2.094 1_655 S
O278 C256 1.240 . S
O279 Mn253 2.117 . S
O279 C256 1.264 . S
C280 C273 1.403 1_554 S
C280 C281 1.399 . S
C280 H286 0.929 . S
C281 C261 1.449 . S
C281 C280 1.399 . S
C281 H287 0.930 . S
H282 C262 0.931 . S
H283 C263 0.930 . S
H284 C271 0.931 . S
H285 C272 0.929 . S
H286 C280 0.929 . S
H287 C281 0.930 . S
Mn288 O293 2.095 . S
Mn288 O303 2.162 . S
Mn288 O304 2.297 . S
Mn288 O312 2.385 1_545 S
Mn288 O313 2.209 1_545 S
Mn288 O314 2.094 1_545 S
Mn289 O294 2.121 1_565 S
Mn289 N296 2.257 . S
Mn289 N305 2.282 . S
Mn289 O313 2.215 . S
Mn289 O315 2.117 . S
C290 O312 1.234 . S
C290 O313 1.283 . S
C291 O303 1.281 . S
C291 O304 1.236 . S
C292 O314 1.240 . S
C292 O315 1.264 . S
O293 Mn288 2.095 . S
O293 C302 1.250 . S
O294 Mn289 2.121 1_545 S
O294 C302 1.258 . S
C295 N296 1.326 . S
C295 C299 1.460 . S
C295 H301 0.929 1_565 S
N296 Mn289 2.257 . S
N296 C295 1.326 . S
N296 C300 1.362 . S
C297 C298 1.258 . S
C297 C300 1.431 . S
C297 C317 1.449 . S
C298 C297 1.258 . S
C298 C299 1.477 . S
C298 H318 0.931 . S
C299 C295 1.460 . S
C299 C298 1.477 . S
C299 H319 0.930 . S
C300 N296 1.362 . S
C300 C297 1.431 . S
C300 C310 1.476 . S
H301 C295 0.929 1_545 S
C302 O293 1.250 . S
C302 O294 1.258 . S
O303 Mn288 2.162 . S
O303 C291 1.281 . S
O304 Mn288 2.297 . S
O304 C291 1.236 . S
N305 Mn289 2.282 . S
N305 C306 1.328 . S
N305 C310 1.318 . S
C306 N305 1.328 . S
C306 C307 1.457 . S
C306 H311 0.929 . S
C307 C306 1.457 . S
C307 C308 1.291 . S
C307 H320 0.931 . S
C308 C307 1.291 . S
C308 C309 1.373 . S
C308 H321 0.929 . S
C309 C308 1.373 . S
C309 C310 1.396 . S
C309 C316 1.403 . S
C310 C300 1.476 . S
C310 N305 1.318 . S
C310 C309 1.396 . S
H311 C306 0.929 . S
O312 Mn288 2.385 1_565 S
O312 C290 1.234 . S
O313 Mn288 2.209 1_565 S
O313 Mn289 2.215 . S
O313 C290 1.283 . S
O314 Mn288 2.094 1_565 S
O314 C292 1.240 . S
O315 Mn289 2.117 . S
O315 C292 1.264 . S
C316 C309 1.403 . S
C316 C317 1.399 . S
C316 H322 0.929 . S
C317 C297 1.449 . S
C317 C316 1.399 . S
C317 H323 0.930 . S
H318 C298 0.931 . S
H319 C299 0.930 . S
H320 C307 0.931 . S
H321 C308 0.929 . S
H322 C316 0.929 . S
H323 C317 0.930 . S
Mn324 O329 2.095 . S
Mn324 O339 2.162 . S
Mn324 O340 2.297 . S
Mn324 O348 2.385 . S
Mn324 O349 2.209 . S
Mn324 O350 2.094 . S
Mn325 O330 2.121 . S
Mn325 N332 2.257 . S
Mn325 N341 2.282 . S
Mn325 O349 2.215 . S
Mn325 O351 2.117 . S
C326 O348 1.234 . S
C326 O349 1.283 . S
C327 O339 1.281 . S
C327 O340 1.236 . S
C328 O350 1.240 . S
C328 O351 1.264 . S
O329 Mn324 2.095 . S
O329 C338 1.250 . S
O330 Mn325 2.121 . S
O330 C338 1.258 . S
C331 N332 1.326 . S
C331 C335 1.460 . S
C331 H337 0.929 . S
N332 Mn325 2.257 . S
N332 C331 1.326 . S
N332 C336 1.362 . S
C333 C334 1.258 . S
C333 C336 1.431 . S
C333 C353 1.449 . S
C334 C333 1.258 . S
C334 C335 1.477 . S
C334 H354 0.931 . S
C335 C331 1.460 . S
C335 C334 1.477 . S
C335 H355 0.930 . S
C336 N332 1.362 . S
C336 C333 1.431 . S
C336 C346 1.476 . S
H337 C331 0.929 . S
C338 O329 1.250 . S
C338 O330 1.258 . S
O339 Mn324 2.162 . S
O339 C327 1.281 . S
O340 Mn324 2.297 . S
O340 C327 1.236 . S
N341 Mn325 2.282 . S
N341 C342 1.328 . S
N341 C346 1.318 . S
C342 N341 1.328 . S
C342 C343 1.457 . S
C342 H347 0.929 . S
C343 C342 1.457 . S
C343 C344 1.291 . S
C343 H356 0.931 . S
C344 C343 1.291 . S
C344 C345 1.373 . S
C344 H357 0.929 . S
C345 C344 1.373 . S
C345 C346 1.396 . S
C345 C352 1.403 . S
C346 C336 1.476 . S
C346 N341 1.318 . S
C346 C345 1.396 . S
H347 C342 0.929 . S
O348 Mn324 2.385 . S
O348 C326 1.234 . S
O349 Mn324 2.209 . S
O349 Mn325 2.215 . S
O349 C326 1.283 . S
O350 Mn324 2.094 . S
O350 C328 1.240 . S
O351 Mn325 2.117 . S
O351 C328 1.264 . S
C352 C345 1.403 . S
C352 C353 1.399 . S
C352 H358 0.929 . S
C353 C333 1.449 . S
C353 C352 1.399 . S
C353 H359 0.930 . S
H354 C334 0.931 . S
H355 C335 0.930 . S
H356 C343 0.931 . S
H357 C344 0.929 . S
H358 C352 0.929 . S
H359 C353 0.930 . S
Mn360 O365 2.095 . S
Mn360 O375 2.162 . S
Mn360 O376 2.297 . S
Mn360 O384 2.385 1_545 S
Mn360 O385 2.209 1_545 S
Mn360 O386 2.094 1_545 S
Mn361 O366 2.121 1_565 S
Mn361 N368 2.257 . S
Mn361 N377 2.282 . S
Mn361 O385 2.215 . S
Mn361 O387 2.117 . S
C362 O384 1.234 . S
C362 O385 1.283 . S
C363 O375 1.281 . S
C363 O376 1.236 . S
C364 O386 1.240 . S
C364 O387 1.264 . S
O365 Mn360 2.095 . S
O365 C374 1.250 . S
O366 Mn361 2.121 1_545 S
O366 C374 1.258 . S
C367 N368 1.326 . S
C367 C371 1.460 . S
C367 H373 0.940 . S
N368 Mn361 2.257 . S
N368 C367 1.326 . S
N368 C372 1.362 . S
C369 C370 1.258 . S
C369 C372 1.431 . S
C369 C389 1.449 . S
C370 C369 1.258 . S
C370 C371 1.477 . S
C370 H390 0.931 . S
C371 C367 1.460 . S
C371 C370 1.477 . S
C371 H391 0.930 . S
C372 N368 1.362 . S
C372 C369 1.431 . S
C372 C382 1.476 . S
H373 C367 0.940 . S
C374 O365 1.250 . S
C374 O366 1.258 . S
O375 Mn360 2.162 . S
O375 C363 1.281 . S
O376 Mn360 2.297 . S
O376 C363 1.236 . S
N377 Mn361 2.282 . S
N377 C378 1.328 . S
N377 C382 1.318 . S
C378 N377 1.328 . S
C378 C379 1.457 . S
C378 H383 0.929 . S
C379 C378 1.457 . S
C379 C380 1.291 . S
C379 H392 0.931 . S
C380 C379 1.291 . S
C380 C381 1.373 . S
C380 H393 0.929 . S
C381 C380 1.373 . S
C381 C382 1.396 . S
C381 C388 1.403 . S
C382 C372 1.476 . S
C382 N377 1.318 . S
C382 C381 1.396 . S
H383 C378 0.929 . S
O384 Mn360 2.385 1_565 S
O384 C362 1.234 . S
O385 Mn360 2.209 1_565 S
O385 Mn361 2.215 . S
O385 C362 1.283 . S
O386 Mn360 2.094 1_565 S
O386 C364 1.240 . S
O387 Mn361 2.117 . S
O387 C364 1.264 . S
C388 C381 1.403 . S
C388 C389 1.399 . S
C388 H394 0.929 . S
C389 C369 1.449 . S
C389 C388 1.399 . S
C389 H395 0.930 . S
H390 C370 0.931 . S
H391 C371 0.930 . S
H392 C379 0.931 . S
H393 C380 0.929 . S
H394 C388 0.929 . S
H395 C389 0.930 . S
Mn396 O401 2.095 1_554 S
Mn396 O411 2.162 . S
Mn396 O412 2.297 . S
Mn396 O420 2.385 . S
Mn396 O421 2.209 . S
Mn396 O422 2.094 1_554 S
Mn397 O402 2.121 . S
Mn397 N404 2.257 . S
Mn397 N413 2.282 . S
Mn397 O421 2.215 1_556 S
Mn397 O423 2.117 . S
C398 O420 1.234 . S
C398 O421 1.283 . S
C399 O411 1.281 . S
C399 O412 1.236 . S
C400 O422 1.240 . S
C400 O423 1.264 . S
O401 Mn396 2.095 1_556 S
O401 C410 1.250 . S
O402 Mn397 2.121 . S
O402 C410 1.258 . S
C403 N404 1.326 . S
C403 C407 1.460 . S
C403 H409 0.929 . S
N404 Mn397 2.257 . S
N404 C403 1.326 . S
N404 C408 1.362 . S
C405 C406 1.258 . S
C405 C408 1.431 . S
C405 C425 1.449 . S
C406 C405 1.258 . S
C406 C407 1.477 . S
C406 H426 0.931 . S
C407 C403 1.460 . S
C407 C406 1.477 . S
C407 H427 0.930 . S
C408 N404 1.362 . S
C408 C405 1.431 . S
C408 C418 1.476 . S
H409 C403 0.929 . S
C410 O401 1.250 . S
C410 O402 1.258 . S
O411 Mn396 2.162 . S
O411 C399 1.281 . S
O412 Mn396 2.297 . S
O412 C399 1.236 . S
N413 Mn397 2.282 . S
N413 C414 1.328 . S
N413 C418 1.318 . S
C414 N413 1.328 . S
C414 C415 1.457 . S
C414 H419 0.929 . S
C415 C414 1.457 . S
C415 C416 1.291 . S
C415 H428 0.931 . S
C416 C415 1.291 . S
C416 C417 1.373 . S
C416 H429 0.929 . S
C417 C416 1.373 . S
C417 C418 1.396 . S
C417 C424 1.403 . S
C418 C408 1.476 . S
C418 N413 1.318 . S
C418 C417 1.396 . S
H419 C414 0.929 . S
O420 Mn396 2.385 . S
O420 C398 1.234 . S
O421 Mn396 2.209 . S
O421 Mn397 2.215 1_554 S
O421 C398 1.283 . S
O422 Mn396 2.094 1_556 S
O422 C400 1.240 . S
O423 Mn397 2.117 . S
O423 C400 1.264 . S
C424 C417 1.403 . S
C424 C425 1.399 . S
C424 H430 0.929 . S
C425 C405 1.449 . S
C425 C424 1.399 . S
C425 H431 0.930 . S
H426 C406 0.931 . S
H427 C407 0.930 . S
H428 C415 0.931 . S
H429 C416 0.929 . S
H430 C424 0.929 . S
H431 C425 0.930 . S
Mn432 O437 2.095 . S
Mn432 O447 2.162 . S
Mn432 O448 2.297 . S
Mn432 O456 2.385 1_554 S
Mn432 O457 2.209 1_554 S
Mn432 O458 2.094 1_554 S
Mn433 O438 2.118 1_556 S
Mn433 N440 2.257 . S
Mn433 N449 2.282 . S
Mn433 O457 2.215 . S
Mn433 O459 2.117 . S
C434 O456 1.234 . S
C434 O457 1.283 . S
C435 O447 1.281 . S
C435 O448 1.236 . S
C436 O458 1.240 . S
C436 O459 1.264 . S
O437 Mn432 2.095 . S
O437 C446 1.250 . S
O438 Mn433 2.118 1_554 S
O438 C446 1.261 . S
C439 N440 1.326 . S
C439 C443 1.460 . S
C439 H445 0.929 . S
N440 Mn433 2.257 . S
N440 C439 1.326 . S
N440 C444 1.362 . S
C441 C442 1.258 . S
C441 C444 1.431 . S
C441 C461 1.449 . S
C442 C441 1.258 . S
C442 C443 1.477 . S
C442 H462 0.931 . S
C443 C439 1.460 . S
C443 C442 1.477 . S
C443 H463 0.930 . S
C444 N440 1.362 . S
C444 C441 1.431 . S
C444 C454 1.476 . S
H445 C439 0.929 . S
C446 O437 1.250 . S
C446 O438 1.261 . S
O447 Mn432 2.162 . S
O447 C435 1.281 . S
O448 Mn432 2.297 . S
O448 C435 1.236 . S
N449 Mn433 2.282 . S
N449 C450 1.328 . S
N449 C454 1.318 . S
C450 N449 1.328 . S
C450 C451 1.457 . S
C450 H455 0.929 . S
C451 C450 1.457 . S
C451 C452 1.291 . S
C451 H464 0.931 . S
C452 C451 1.291 . S
C452 C453 1.373 . S
C452 H465 0.929 . S
C453 C452 1.373 . S
C453 C454 1.396 . S
C453 C460 1.403 . S
C454 C444 1.476 . S
C454 N449 1.318 . S
C454 C453 1.396 . S
H455 C450 0.929 . S
O456 Mn432 2.385 1_556 S
O456 C434 1.234 . S
O457 Mn432 2.209 1_556 S
O457 Mn433 2.215 . S
O457 C434 1.283 . S
O458 Mn432 2.094 1_556 S
O458 C436 1.240 . S
O459 Mn433 2.117 . S
O459 C436 1.264 . S
C460 C453 1.403 . S
C460 C461 1.399 . S
C460 H466 0.929 . S
C461 C441 1.449 . S
C461 C460 1.399 . S
C461 H467 0.930 . S
H462 C442 0.931 . S
H463 C443 0.930 . S
H464 C451 0.931 . S
H465 C452 0.929 . S
H466 C460 0.929 . S
H467 C461 0.930 . S
Mn468 O473 2.095 . S
Mn468 O483 2.162 . S
Mn468 O484 2.297 . S
Mn468 O492 2.385 1_554 S
Mn468 O493 2.209 1_554 S
Mn468 O494 2.094 1_554 S
Mn469 O474 2.121 1_556 S
Mn469 N476 2.257 . S
Mn469 N485 2.282 . S
Mn469 O493 2.215 . S
Mn469 O495 2.117 . S
C470 O492 1.234 . S
C470 O493 1.283 . S
C471 O483 1.281 . S
C471 O484 1.236 . S
C472 O494 1.240 . S
C472 O495 1.264 . S
O473 Mn468 2.095 . S
O473 C482 1.250 . S
O474 Mn469 2.121 1_554 S
O474 C482 1.258 . S
C475 N476 1.326 . S
C475 C479 1.460 1_545 S
C475 H481 0.929 1_556 S
N476 Mn469 2.257 . S
N476 C475 1.326 . S
N476 C480 1.362 . S
C477 C478 1.258 1_545 S
C477 C480 1.431 . S
C477 C497 1.449 1_545 S
C478 C477 1.258 1_565 S
C478 C479 1.477 . S
C478 H498 0.931 . S
C479 C475 1.460 1_565 S
C479 C478 1.477 . S
C479 H499 0.927 1_556 S
C480 N476 1.362 . S
C480 C477 1.431 . S
C480 C490 1.476 . S
H481 C475 0.929 1_554 S
C482 O473 1.250 . S
C482 O474 1.258 . S
O483 Mn468 2.162 . S
O483 C471 1.281 . S
O484 Mn468 2.297 . S
O484 C471 1.236 . S
N485 Mn469 2.282 . S
N485 C486 1.328 . S
N485 C490 1.318 . S
C486 N485 1.328 . S
C486 C487 1.457 . S
C486 H491 0.929 . S
C487 C486 1.457 . S
C487 C488 1.291 . S
C487 H500 0.931 . S
C488 C487 1.291 . S
C488 C489 1.373 . S
C488 H501 0.929 . S
C489 C488 1.373 . S
C489 C490 1.396 . S
C489 C496 1.403 . S
C490 C480 1.476 . S
C490 N485 1.318 . S
C490 C489 1.396 . S
H491 C486 0.929 . S
O492 Mn468 2.385 1_556 S
O492 C470 1.234 . S
O493 Mn468 2.209 1_556 S
O493 Mn469 2.215 . S
O493 C470 1.283 . S
O494 Mn468 2.094 1_556 S
O494 C472 1.240 . S
O495 Mn469 2.117 . S
O495 C472 1.264 . S
C496 C489 1.403 . S
C496 C497 1.399 1_545 S
C496 H502 0.929 . S
C497 C477 1.449 1_565 S
C497 C496 1.399 1_565 S
C497 H503 0.930 . S
H498 C478 0.931 . S
H499 C479 0.927 1_554 S
H500 C487 0.931 . S
H501 C488 0.929 . S
H502 C496 0.929 . S
H503 C497 0.930 . S
Mn504 O509 2.095 . S
Mn504 O519 2.162 . S
Mn504 O520 2.297 . S
Mn504 O528 2.385 . S
Mn504 O529 2.209 . S
Mn504 O530 2.094 . S
Mn505 O510 2.121 . S
Mn505 N512 2.257 . S
Mn505 N521 2.282 . S
Mn505 O529 2.215 . S
Mn505 O531 2.117 . S
C506 O528 1.234 . S
C506 O529 1.283 . S
C507 O519 1.281 . S
C507 O520 1.236 . S
C508 O530 1.240 . S
C508 O531 1.264 . S
O509 Mn504 2.095 . S
O509 C518 1.250 . S
O510 Mn505 2.121 . S
O510 C518 1.258 . S
C511 N512 1.326 . S
C511 C515 1.460 1_455 S
C511 H517 0.929 . S
N512 Mn505 2.257 . S
N512 C511 1.326 . S
N512 C516 1.362 . S
C513 C514 1.258 . S
C513 C516 1.431 1_655 S
C513 C533 1.449 . S
C514 C513 1.258 . S
C514 C515 1.477 . S
C514 H534 0.931 . S
C515 C511 1.460 1_655 S
C515 C514 1.477 . S
C515 H535 0.930 . S
C516 N512 1.362 . S
C516 C513 1.431 1_455 S
C516 C526 1.476 . S
H517 C511 0.929 . S
C518 O509 1.250 . S
C518 O510 1.258 . S
O519 Mn504 2.162 . S
O519 C507 1.281 . S
O520 Mn504 2.297 . S
O520 C507 1.236 . S
N521 Mn505 2.282 . S
N521 C522 1.328 . S
N521 C526 1.318 . S
C522 N521 1.328 . S
C522 C523 1.457 . S
C522 H527 0.929 . S
C523 C522 1.457 . S
C523 C524 1.291 . S
C523 H536 0.931 . S
C524 C523 1.291 . S
C524 C525 1.373 . S
C524 H537 0.929 . S
C525 C524 1.373 . S
C525 C526 1.396 . S
C525 C532 1.403 . S
C526 C516 1.476 . S
C526 N521 1.318 . S
C526 C525 1.396 . S
H527 C522 0.929 . S
O528 Mn504 2.385 . S
O528 C506 1.234 . S
O529 Mn504 2.209 . S
O529 Mn505 2.215 . S
O529 C506 1.283 . S
O530 Mn504 2.094 . S
O530 C508 1.240 . S
O531 Mn505 2.117 . S
O531 C508 1.264 . S
C532 C525 1.403 . S
C532 C533 1.399 1_455 S
C532 H538 0.929 . S
C533 C513 1.449 . S
C533 C532 1.399 1_655 S
C533 H539 0.930 . S
H534 C514 0.931 . S
H535 C515 0.930 . S
H536 C523 0.931 . S
H537 C524 0.929 . S
H538 C532 0.929 . S
H539 C533 0.930 . S
Mn540 O545 2.095 . S
Mn540 O555 2.162 . S
Mn540 O556 2.297 . S
Mn540 O564 2.385 . S
Mn540 O565 2.209 . S
Mn540 O566 2.094 . S
Mn541 O546 2.121 . S
Mn541 N548 2.257 . S
Mn541 N557 2.282 . S
Mn541 O565 2.215 . S
Mn541 O567 2.117 . S
C542 O564 1.234 . S
C542 O565 1.283 . S
C543 O555 1.281 . S
C543 O556 1.236 . S
C544 O566 1.240 . S
C544 O567 1.264 . S
O545 Mn540 2.095 . S
O545 C554 1.250 . S
O546 Mn541 2.121 . S
O546 C554 1.258 . S
C547 N548 1.326 . S
C547 C551 1.460 . S
C547 H553 0.929 . S
N548 Mn541 2.257 . S
N548 C547 1.326 . S
N548 C552 1.362 . S
C549 C550 1.258 . S
C549 C552 1.431 . S
C549 C569 1.449 . S
C550 C549 1.258 . S
C550 C551 1.477 . S
C550 H570 0.931 . S
C551 C547 1.460 . S
C551 C550 1.477 . S
C551 H571 0.930 . S
C552 N548 1.362 . S
C552 C549 1.431 . S
C552 C562 1.476 . S
H553 C547 0.929 . S
C554 O545 1.250 . S
C554 O546 1.258 . S
O555 Mn540 2.162 . S
O555 C543 1.281 . S
O556 Mn540 2.297 . S
O556 C543 1.236 . S
N557 Mn541 2.282 . S
N557 C558 1.328 . S
N557 C562 1.318 . S
C558 N557 1.328 . S
C558 C559 1.457 . S
C558 H563 0.929 . S
C559 C558 1.457 . S
C559 C560 1.291 . S
C559 H572 0.931 . S
C560 C559 1.291 . S
C560 C561 1.373 . S
C560 H573 0.929 . S
C561 C560 1.373 . S
C561 C562 1.396 . S
C561 C568 1.403 . S
C562 C552 1.476 . S
C562 N557 1.318 . S
C562 C561 1.396 . S
H563 C558 0.929 . S
O564 Mn540 2.385 . S
O564 C542 1.234 . S
O565 Mn540 2.209 . S
O565 Mn541 2.215 . S
O565 C542 1.283 . S
O566 Mn540 2.094 . S
O566 C544 1.240 . S
O567 Mn541 2.117 . S
O567 C544 1.264 . S
C568 C561 1.403 . S
C568 C569 1.399 . S
C568 H574 0.929 . S
C569 C549 1.449 . S
C569 C568 1.399 . S
C569 H575 0.930 . S
H570 C550 0.931 . S
H571 C551 0.930 . S
H572 C559 0.931 . S
H573 C560 0.929 . S
H574 C568 0.929 . S
H575 C569 0.930 . S
Mn576 O581 2.095 1_545 S
Mn576 O591 2.162 . S
Mn576 O592 2.297 . S
Mn576 O600 2.385 . S
Mn576 O601 2.209 . S
Mn576 O602 2.094 1_545 S
Mn577 O582 2.121 . S
Mn577 N584 2.257 1_565 S
Mn577 N593 2.282 1_565 S
Mn577 O601 2.215 1_565 S
Mn577 O603 2.117 . S
C578 O600 1.234 . S
C578 O601 1.283 . S
C579 O591 1.281 . S
C579 O592 1.236 . S
C580 O602 1.240 . S
C580 O603 1.264 . S
O581 Mn576 2.095 1_565 S
O581 C590 1.250 . S
O582 Mn577 2.121 . S
O582 C590 1.258 . S
C583 N584 1.326 1_465 S
C583 C587 1.460 1_565 S
C583 H589 0.929 1_455 S
N584 Mn577 2.257 1_545 S
N584 C583 1.326 1_645 S
N584 C588 1.362 . S
C585 C586 1.258 . S
C585 C588 1.431 1_455 S
C585 C605 1.449 . S
C586 C585 1.258 . S
C586 C587 1.477 . S
C586 H606 0.931 . S
C587 C583 1.460 1_545 S
C587 C586 1.477 . S
C587 H607 0.930 1_545 S
C588 N584 1.362 . S
C588 C585 1.431 1_655 S
C588 C598 1.476 . S
H589 C583 0.929 1_655 S
C590 O581 1.250 . S
C590 O582 1.258 . S
O591 Mn576 2.162 . S
O591 C579 1.281 . S
O592 Mn576 2.297 . S
O592 C579 1.236 . S
N593 Mn577 2.282 1_545 S
N593 C594 1.328 . S
N593 C598 1.318 . S
C594 N593 1.328 . S
C594 C595 1.457 . S
C594 H599 0.929 . S
C595 C594 1.457 . S
C595 C596 1.291 . S
C595 H608 0.931 . S
C596 C595 1.291 . S
C596 C597 1.373 . S
C596 H609 0.929 . S
C597 C596 1.373 . S
C597 C598 1.396 . S
C597 C604 1.403 1_655 S
C598 C588 1.476 . S
C598 N593 1.318 . S
C598 C597 1.396 . S
H599 C594 0.929 . S
O600 Mn576 2.385 . S
O600 C578 1.234 . S
O601 Mn576 2.209 . S
O601 Mn577 2.215 1_545 S
O601 C578 1.283 . S
O602 Mn576 2.094 1_565 S
O602 C580 1.240 . S
O603 Mn577 2.117 . S
O603 C580 1.264 . S
C604 C597 1.403 1_455 S
C604 C605 1.399 . S
C604 H610 0.929 . S
C605 C585 1.449 . S
C605 C604 1.399 . S
C605 H611 0.930 . S
H606 C586 0.931 . S
H607 C587 0.930 1_565 S
H608 C595 0.931 . S
H609 C596 0.929 . S
H610 C604 0.929 . S
H611 C605 0.930 . S
Mn612 O617 2.095 . S
Mn612 O627 2.162 . S
Mn612 O628 2.297 . S
Mn612 O636 2.385 . S
Mn612 O637 2.209 . S
Mn612 O638 2.094 . S
Mn613 O618 2.121 . S
Mn613 N620 2.257 . S
Mn613 N629 2.282 . S
Mn613 O637 2.215 . S
Mn613 O639 2.117 . S
C614 O636 1.234 . S
C614 O637 1.283 . S
C615 O627 1.281 . S
C615 O628 1.236 . S
C616 O638 1.240 . S
C616 O639 1.264 . S
O617 Mn612 2.095 . S
O617 C626 1.250 . S
O618 Mn613 2.121 . S
O618 C626 1.258 . S
C619 N620 1.326 . S
C619 C623 1.460 . S
C619 H625 0.929 . S
N620 Mn613 2.257 . S
N620 C619 1.326 . S
N620 C624 1.362 . S
C621 C622 1.258 . S
C621 C624 1.431 . S
C621 C641 1.449 . S
C622 C621 1.258 . S
C622 C623 1.477 . S
C622 H642 0.931 . S
C623 C619 1.460 . S
C623 C622 1.477 . S
C623 H643 0.930 . S
C624 N620 1.362 . S
C624 C621 1.431 . S
C624 C634 1.476 . S
H625 C619 0.929 . S
C626 O617 1.250 . S
C626 O618 1.258 . S
O627 Mn612 2.162 . S
O627 C615 1.281 . S
O628 Mn612 2.297 . S
O628 C615 1.236 . S
N629 Mn613 2.282 . S
N629 C630 1.328 . S
N629 C634 1.318 . S
C630 N629 1.328 . S
C630 C631 1.457 . S
C630 H635 0.929 . S
C631 C630 1.457 . S
C631 C632 1.291 . S
C631 H644 0.931 . S
C632 C631 1.291 . S
C632 C633 1.373 . S
C632 H645 0.929 . S
C633 C632 1.373 . S
C633 C634 1.396 . S
C633 C640 1.403 . S
C634 C624 1.476 . S
C634 N629 1.318 . S
C634 C633 1.396 . S
H635 C630 0.929 . S
O636 Mn612 2.385 . S
O636 C614 1.234 . S
O637 Mn612 2.209 . S
O637 Mn613 2.215 . S
O637 C614 1.283 . S
O638 Mn612 2.094 . S
O638 C616 1.240 . S
O639 Mn613 2.117 . S
O639 C616 1.264 . S
C640 C633 1.403 . S
C640 C641 1.399 . S
C640 H646 0.929 . S
C641 C621 1.449 . S
C641 C640 1.399 . S
C641 H647 0.930 . S
H642 C622 0.931 . S
H643 C623 0.930 . S
H644 C631 0.931 . S
H645 C632 0.929 . S
H646 C640 0.929 . S
H647 C641 0.930 . S
Mn648 O653 2.095 . S
Mn648 O663 2.162 . S
Mn648 O664 2.297 . S
Mn648 O672 2.385 . S
Mn648 O673 2.209 . S
Mn648 O674 2.094 . S
Mn649 O654 2.121 . S
Mn649 N656 2.257 . S
Mn649 N665 2.282 . S
Mn649 O673 2.215 . S
Mn649 O675 2.117 . S
C650 O672 1.234 . S
C650 O673 1.283 . S
C651 O663 1.281 . S
C651 O664 1.236 . S
C652 O674 1.240 . S
C652 O675 1.264 . S
O653 Mn648 2.095 . S
O653 C662 1.250 . S
O654 Mn649 2.121 . S
O654 C662 1.258 . S
C655 N656 1.326 . S
C655 C659 1.460 . S
C655 H661 0.929 . S
N656 Mn649 2.257 . S
N656 C655 1.326 . S
N656 C660 1.362 . S
C657 C658 1.258 . S
C657 C660 1.431 . S
C657 C677 1.449 . S
C658 C657 1.258 . S
C658 C659 1.477 . S
C658 H678 0.931 . S
C659 C655 1.460 . S
C659 C658 1.477 . S
C659 H679 0.930 . S
C660 N656 1.362 . S
C660 C657 1.431 . S
C660 C670 1.476 . S
H661 C655 0.929 . S
C662 O653 1.250 . S
C662 O654 1.258 . S
O663 Mn648 2.162 . S
O663 C651 1.281 . S
O664 Mn648 2.297 . S
O664 C651 1.236 . S
N665 Mn649 2.282 . S
N665 C666 1.328 . S
N665 C670 1.318 . S
C666 N665 1.328 . S
C666 C667 1.457 . S
C666 H671 0.929 . S
C667 C666 1.457 . S
C667 C668 1.291 . S
C667 H680 0.931 . S
C668 C667 1.291 . S
C668 C669 1.373 . S
C668 H681 0.929 . S
C669 C668 1.373 . S
C669 C670 1.396 . S
C669 C676 1.403 . S
C670 C660 1.476 . S
C670 N665 1.318 . S
C670 C669 1.396 . S
H671 C666 0.929 . S
O672 Mn648 2.385 . S
O672 C650 1.234 . S
O673 Mn648 2.209 . S
O673 Mn649 2.215 . S
O673 C650 1.283 . S
O674 Mn648 2.094 . S
O674 C652 1.240 . S
O675 Mn649 2.117 . S
O675 C652 1.264 . S
C676 C669 1.403 . S
C676 C677 1.399 . S
C676 H682 0.929 . S
C677 C657 1.449 . S
C677 C676 1.399 . S
C677 H683 0.930 . S
H678 C658 0.931 . S
H679 C659 0.930 . S
H680 C667 0.931 . S
H681 C668 0.929 . S
H682 C676 0.929 . S
H683 C677 0.930 . S
Mn684 O689 2.095 . S
Mn684 O699 2.162 1_545 S
Mn684 O700 2.297 1_545 S
Mn684 O708 2.385 1_545 S
Mn684 O709 2.209 1_545 S
Mn684 O710 2.094 . S
Mn685 O690 2.121 . S
Mn685 N692 2.257 . S
Mn685 N701 2.282 1_545 S
Mn685 O709 2.215 1_545 S
Mn685 O711 2.117 . S
C686 O708 1.234 . S
C686 O709 1.283 . S
C687 O699 1.281 . S
C687 O700 1.236 . S
C688 O710 1.240 . S
C688 O711 1.264 . S
O689 Mn684 2.095 . S
O689 C698 1.250 . S
O690 Mn685 2.121 . S
O690 C698 1.258 . S
C691 N692 1.326 . S
C691 C695 1.460 . S
C691 H697 0.929 . S
N692 Mn685 2.257 . S
N692 C691 1.326 . S
N692 C696 1.362 1_545 S
C693 C694 1.258 . S
C693 C696 1.431 . S
C693 C713 1.449 . S
C694 C693 1.258 . S
C694 C695 1.477 1_565 S
C694 H714 0.931 . S
C695 C691 1.460 . S
C695 C694 1.477 1_545 S
C695 H715 0.930 . S
C696 N692 1.362 1_565 S
C696 C693 1.431 . S
C696 C706 1.476 . S
H697 C691 0.929 . S
C698 O689 1.250 . S
C698 O690 1.258 . S
O699 Mn684 2.162 1_565 S
O699 C687 1.281 . S
O700 Mn684 2.297 1_565 S
O700 C687 1.236 . S
N701 Mn685 2.282 1_565 S
N701 C702 1.328 . S
N701 C706 1.318 . S
C702 N701 1.328 . S
C702 C703 1.457 . S
C702 H707 0.929 . S
C703 C702 1.457 . S
C703 C704 1.291 . S
C703 H716 0.931 . S
C704 C703 1.291 . S
C704 C705 1.373 . S
C704 H717 0.929 . S
C705 C704 1.373 . S
C705 C706 1.396 . S
C705 C712 1.403 . S
C706 C696 1.476 . S
C706 N701 1.318 . S
C706 C705 1.396 . S
H707 C702 0.929 . S
O708 Mn684 2.385 1_565 S
O708 C686 1.234 . S
O709 Mn684 2.209 1_565 S
O709 Mn685 2.215 1_565 S
O709 C686 1.283 . S
O710 Mn684 2.094 . S
O710 C688 1.240 . S
O711 Mn685 2.117 . S
O711 C688 1.264 . S
C712 C705 1.403 . S
C712 C713 1.399 . S
C712 H718 0.929 . S
C713 C693 1.449 . S
C713 C712 1.399 . S
C713 H719 0.930 . S
H714 C694 0.931 . S
H715 C695 0.930 . S
H716 C703 0.931 . S
H717 C704 0.929 . S
H718 C712 0.929 . S
H719 C713 0.930 . S
Mn720 O725 2.095 1_554 S
Mn720 O735 2.162 . S
Mn720 O736 2.297 . S
Mn720 O744 2.385 . S
Mn720 O745 2.209 . S
Mn720 O746 2.094 1_554 S
Mn721 O726 2.121 . S
Mn721 N728 2.257 . S
Mn721 N737 2.282 . S
Mn721 O745 2.215 1_556 S
Mn721 O747 2.117 . S
C722 O744 1.234 . S
C722 O745 1.283 . S
C723 O735 1.281 . S
C723 O736 1.236 . S
C724 O746 1.240 . S
C724 O747 1.264 . S
O725 Mn720 2.095 1_556 S
O725 C734 1.250 . S
O726 Mn721 2.121 . S
O726 C734 1.258 . S
C727 N728 1.326 . S
C727 C731 1.460 . S
C727 H733 0.929 . S
N728 Mn721 2.257 . S
N728 C727 1.326 . S
N728 C732 1.362 . S
C729 C730 1.258 . S
C729 C732 1.431 . S
C729 C749 1.449 . S
C730 C729 1.258 . S
C730 C731 1.477 . S
C730 H750 0.931 . S
C731 C727 1.460 . S
C731 C730 1.477 . S
C731 H751 0.930 . S
C732 N728 1.362 . S
C732 C729 1.431 . S
C732 C742 1.476 . S
H733 C727 0.929 . S
C734 O725 1.250 . S
C734 O726 1.258 . S
O735 Mn720 2.162 . S
O735 C723 1.281 . S
O736 Mn720 2.297 . S
O736 C723 1.236 . S
N737 Mn721 2.282 . S
N737 C738 1.328 . S
N737 C742 1.318 . S
C738 N737 1.328 . S
C738 C739 1.457 . S
C738 H743 0.929 . S
C739 C738 1.457 . S
C739 C740 1.291 . S
C739 H752 0.931 . S
C740 C739 1.291 . S
C740 C741 1.373 . S
C740 H753 0.929 . S
C741 C740 1.373 . S
C741 C742 1.396 . S
C741 C748 1.403 . S
C742 C732 1.476 . S
C742 N737 1.318 . S
C742 C741 1.396 . S
H743 C738 0.929 . S
O744 Mn720 2.385 . S
O744 C722 1.234 . S
O745 Mn720 2.209 . S
O745 Mn721 2.215 1_554 S
O745 C722 1.283 . S
O746 Mn720 2.094 1_556 S
O746 C724 1.240 . S
O747 Mn721 2.117 . S
O747 C724 1.264 . S
C748 C741 1.403 . S
C748 C749 1.399 . S
C748 H754 0.929 . S
C749 C729 1.449 . S
C749 C748 1.399 . S
C749 H755 0.930 . S
H750 C730 0.931 . S
H751 C731 0.930 . S
H752 C739 0.931 . S
H753 C740 0.929 . S
H754 C748 0.929 . S
H755 C749 0.930 . S
Mn756 O761 2.095 . S
Mn756 O771 2.162 . S
Mn756 O772 2.297 . S
Mn756 O780 2.385 . S
Mn756 O781 2.209 . S
Mn756 O782 2.094 . S
Mn757 O762 2.121 . S
Mn757 N764 2.257 . S
Mn757 N773 2.282 . S
Mn757 O781 2.215 . S
Mn757 O783 2.117 . S
C758 O780 1.234 . S
C758 O781 1.283 . S
C759 O771 1.281 . S
C759 O772 1.236 . S
C760 O782 1.240 . S
C760 O783 1.264 . S
O761 Mn756 2.095 . S
O761 C770 1.250 . S
O762 Mn757 2.121 . S
O762 C770 1.258 . S
C763 N764 1.326 . S
C763 C767 1.460 . S
C763 H769 0.929 . S
N764 Mn757 2.257 . S
N764 C763 1.326 . S
N764 C768 1.362 . S
C765 C766 1.258 . S
C765 C768 1.431 . S
C765 C785 1.449 . S
C766 C765 1.258 . S
C766 C767 1.477 . S
C766 H786 0.931 . S
C767 C763 1.460 . S
C767 C766 1.477 . S
C767 H787 0.930 . S
C768 N764 1.362 . S
C768 C765 1.431 . S
C768 C778 1.476 . S
H769 C763 0.929 . S
C770 O761 1.250 . S
C770 O762 1.258 . S
O771 Mn756 2.162 . S
O771 C759 1.281 . S
O772 Mn756 2.297 . S
O772 C759 1.236 . S
N773 Mn757 2.282 . S
N773 C774 1.328 . S
N773 C778 1.318 . S
C774 N773 1.328 . S
C774 C775 1.457 . S
C774 H779 0.929 . S
C775 C774 1.457 . S
C775 C776 1.291 . S
C775 H788 0.931 . S
C776 C775 1.291 . S
C776 C777 1.373 . S
C776 H789 0.929 . S
C777 C776 1.373 . S
C777 C778 1.396 . S
C777 C784 1.403 . S
C778 C768 1.476 . S
C778 N773 1.318 . S
C778 C777 1.396 . S
H779 C774 0.929 . S
O780 Mn756 2.385 . S
O780 C758 1.234 . S
O781 Mn756 2.209 . S
O781 Mn757 2.215 . S
O781 C758 1.283 . S
O782 Mn756 2.094 . S
O782 C760 1.240 . S
O783 Mn757 2.117 . S
O783 C760 1.264 . S
C784 C777 1.403 . S
C784 C785 1.399 . S
C784 H790 0.929 . S
C785 C765 1.449 . S
C785 C784 1.399 . S
C785 H791 0.930 . S
H786 C766 0.931 . S
H787 C767 0.930 . S
H788 C775 0.931 . S
H789 C776 0.929 . S
H790 C784 0.929 . S
H791 C785 0.930 . S
Mn792 O797 2.095 . S
Mn792 O807 2.162 . S
Mn792 O808 2.297 . S
Mn792 O816 2.385 . S
Mn792 O817 2.209 . S
Mn792 O818 2.094 . S
Mn793 O798 2.121 . S
Mn793 N800 2.257 . S
Mn793 N809 2.282 . S
Mn793 O817 2.215 . S
Mn793 O819 2.117 . S
C794 O816 1.234 . S
C794 O817 1.283 . S
C795 O807 1.281 . S
C795 O808 1.236 . S
C796 O818 1.240 . S
C796 O819 1.264 . S
O797 Mn792 2.095 . S
O797 C806 1.250 . S
O798 Mn793 2.121 . S
O798 C806 1.258 . S
C799 N800 1.326 . S
C799 C803 1.460 . S
C799 H805 0.929 . S
N800 Mn793 2.257 . S
N800 C799 1.326 . S
N800 C804 1.362 . S
C801 C802 1.258 . S
C801 C804 1.431 . S
C801 C821 1.449 . S
C802 C801 1.258 . S
C802 C803 1.477 . S
C802 H822 0.931 . S
C803 C799 1.460 . S
C803 C802 1.477 . S
C803 H823 0.930 . S
C804 N800 1.362 . S
C804 C801 1.431 . S
C804 C814 1.476 . S
H805 C799 0.929 . S
C806 O797 1.250 . S
C806 O798 1.258 . S
O807 Mn792 2.162 . S
O807 C795 1.281 . S
O808 Mn792 2.297 . S
O808 C795 1.236 . S
N809 Mn793 2.282 . S
N809 C810 1.328 . S
N809 C814 1.318 . S
C810 N809 1.328 . S
C810 C811 1.457 . S
C810 H815 0.929 . S
C811 C810 1.457 . S
C811 C812 1.291 . S
C811 H824 0.931 . S
C812 C811 1.291 . S
C812 C813 1.373 . S
C812 H825 0.929 . S
C813 C812 1.373 . S
C813 C814 1.396 . S
C813 C820 1.403 . S
C814 C804 1.476 . S
C814 N809 1.318 . S
C814 C813 1.396 . S
H815 C810 0.929 . S
O816 Mn792 2.385 . S
O816 C794 1.234 . S
O817 Mn792 2.209 . S
O817 Mn793 2.215 . S
O817 C794 1.283 . S
O818 Mn792 2.094 . S
O818 C796 1.240 . S
O819 Mn793 2.117 . S
O819 C796 1.264 . S
C820 C813 1.403 . S
C820 C821 1.399 . S
C820 H826 0.929 . S
C821 C801 1.449 . S
C821 C820 1.399 . S
C821 H827 0.930 . S
H822 C802 0.931 . S
H823 C803 0.930 . S
H824 C811 0.931 . S
H825 C812 0.929 . S
H826 C820 0.929 . S
H827 C821 0.930 . S
Mn828 O833 2.095 . S
Mn828 O843 2.162 . S
Mn828 O844 2.297 . S
Mn828 O852 2.385 . S
Mn828 O853 2.209 . S
Mn828 O854 2.094 . S
Mn829 O834 2.121 . S
Mn829 N836 2.257 . S
Mn829 N845 2.282 . S
Mn829 O853 2.215 . S
Mn829 O855 2.117 . S
C830 O852 1.234 . S
C830 O853 1.283 . S
C831 O843 1.281 . S
C831 O844 1.236 . S
C832 O854 1.240 . S
C832 O855 1.264 . S
O833 Mn828 2.095 . S
O833 C842 1.250 . S
O834 Mn829 2.121 . S
O834 C842 1.258 . S
C835 N836 1.326 . S
C835 C839 1.460 . S
C835 H841 0.929 . S
N836 Mn829 2.257 . S
N836 C835 1.326 . S
N836 C840 1.362 . S
C837 C838 1.258 . S
C837 C840 1.431 . S
C837 C857 1.449 . S
C838 C837 1.258 . S
C838 C839 1.477 . S
C838 H858 0.931 . S
C839 C835 1.460 . S
C839 C838 1.477 . S
C839 H859 0.930 . S
C840 N836 1.362 . S
C840 C837 1.431 . S
C840 C850 1.476 . S
H841 C835 0.929 . S
C842 O833 1.250 . S
C842 O834 1.258 . S
O843 Mn828 2.162 . S
O843 C831 1.281 . S
O844 Mn828 2.297 . S
O844 C831 1.236 . S
N845 Mn829 2.282 . S
N845 C846 1.328 . S
N845 C850 1.318 . S
C846 N845 1.328 . S
C846 C847 1.457 . S
C846 H851 0.929 . S
C847 C846 1.457 . S
C847 C848 1.291 . S
C847 H860 0.931 . S
C848 C847 1.291 . S
C848 C849 1.373 . S
C848 H861 0.929 . S
C849 C848 1.373 . S
C849 C850 1.396 . S
C849 C856 1.403 . S
C850 C840 1.476 . S
C850 N845 1.318 . S
C850 C849 1.396 . S
H851 C846 0.929 . S
O852 Mn828 2.385 . S
O852 C830 1.234 . S
O853 Mn828 2.209 . S
O853 Mn829 2.215 . S
O853 C830 1.283 . S
O854 Mn828 2.094 . S
O854 C832 1.240 . S
O855 Mn829 2.117 . S
O855 C832 1.264 . S
C856 C849 1.403 . S
C856 C857 1.399 . S
C856 H862 0.929 . S
C857 C837 1.449 . S
C857 C856 1.399 . S
C857 H863 0.930 . S
H858 C838 0.931 . S
H859 C839 0.930 . S
H860 C847 0.931 . S
H861 C848 0.929 . S
H862 C856 0.929 . S
H863 C857 0.930 . S
H864 C870 0.930 . S
H865 C873 0.930 . S
H866 C874 0.930 . S
H867 C875 0.930 . S
H868 C878 0.943 . S
H869 C879 0.930 . S
C870 H864 0.930 . S
C870 C871 1.355 . S
C870 C872 1.415 . S
C871 C870 1.355 . S
C871 C873 1.419 . S
C872 C870 1.415 . S
C872 C877 1.425 . S
C872 C879 1.409 . S
C873 H865 0.930 . S
C873 C871 1.419 . S
C873 C874 1.362 . S
C874 H866 0.930 . S
C874 C873 1.362 . S
C874 C877 1.409 . S
C875 H867 0.930 . S
C875 C876 1.355 . S
C875 C877 1.415 . S
C876 C875 1.355 . S
C876 C878 1.419 . S
C877 C872 1.425 . S
C877 C874 1.409 . S
C877 C875 1.415 . S
C878 H868 0.943 . S
C878 C876 1.419 . S
C878 C879 1.362 . S
C879 H869 0.930 . S
C879 C872 1.409 . S
C879 C878 1.362 . S
H880 C886 0.930 . S
H881 C889 0.930 . S
H882 C890 0.930 . S
H883 C891 0.930 . S
H884 C894 0.930 . S
H885 C895 0.930 . S
C886 H880 0.930 . S
C886 C887 1.355 . S
C886 C888 1.415 . S
C887 C886 1.355 . S
C887 C889 1.419 . S
C888 C886 1.415 . S
C888 C893 1.425 . S
C888 C895 1.409 . S
C889 H881 0.930 . S
C889 C887 1.419 . S
C889 C890 1.362 . S
C890 H882 0.930 . S
C890 C889 1.362 . S
C890 C893 1.409 . S
C891 H883 0.930 . S
C891 C892 1.355 . S
C891 C893 1.415 . S
C892 C891 1.355 . S
C892 C894 1.419 . S
C893 C888 1.425 . S
C893 C890 1.409 . S
C893 C891 1.415 . S
C894 H884 0.930 . S
C894 C892 1.419 . S
C894 C895 1.362 . S
C895 H885 0.930 . S
C895 C888 1.409 . S
C895 C894 1.362 . S
H896 C902 0.930 . S
H897 C905 0.930 . S
H898 C906 0.930 . S
H899 C907 0.930 . S
H900 C910 0.930 . S
H901 C911 0.930 . S
C902 H896 0.930 . S
C902 C903 1.355 . S
C902 C904 1.415 . S
C903 C902 1.355 . S
C903 C905 1.419 . S
C904 C902 1.415 . S
C904 C909 1.425 . S
C904 C911 1.409 . S
C905 H897 0.930 . S
C905 C903 1.419 . S
C905 C906 1.362 . S
C906 H898 0.930 . S
C906 C905 1.362 . S
C906 C909 1.409 . S
C907 H899 0.930 . S
C907 C908 1.355 . S
C907 C909 1.415 . S
C908 C907 1.355 . S
C908 C910 1.419 . S
C909 C904 1.425 . S
C909 C906 1.409 . S
C909 C907 1.415 . S
C910 H900 0.930 . S
C910 C908 1.419 . S
C910 C911 1.362 . S
C911 H901 0.930 . S
C911 C904 1.409 . S
C911 C910 1.362 . S
H912 C918 0.930 . S
H913 C921 0.930 . S
H914 C922 0.930 . S
H915 C923 0.930 . S
H916 C926 0.930 . S
H917 C927 0.930 . S
C918 H912 0.930 . S
C918 C919 1.355 . S
C918 C920 1.415 . S
C919 C918 1.355 . S
C919 C921 1.419 . S
C920 C918 1.415 . S
C920 C925 1.425 . S
C920 C927 1.409 . S
C921 H913 0.930 . S
C921 C919 1.419 . S
C921 C922 1.362 . S
C922 H914 0.930 . S
C922 C921 1.362 . S
C922 C925 1.409 . S
C923 H915 0.930 . S
C923 C924 1.355 . S
C923 C925 1.415 . S
C924 C923 1.355 . S
C924 C926 1.419 . S
C925 C920 1.425 . S
C925 C922 1.409 . S
C925 C923 1.415 . S
C926 H916 0.930 . S
C926 C924 1.419 . S
C926 C927 1.362 . S
C927 H917 0.930 . S
C927 C920 1.409 . S
C927 C926 1.362 . S
H928 C934 0.930 . S
H929 C937 0.930 . S
H930 C938 0.930 . S
H931 C939 0.930 . S
H932 C942 0.930 . S
H933 C943 0.930 . S
C934 H928 0.930 . S
C934 C935 1.355 . S
C934 C936 1.415 . S
C935 C934 1.355 . S
C935 C937 1.419 . S
C936 C934 1.415 . S
C936 C941 1.425 . S
C936 C943 1.409 . S
C937 H929 0.930 . S
C937 C935 1.419 . S
C937 C938 1.362 . S
C938 H930 0.930 . S
C938 C937 1.362 . S
C938 C941 1.409 . S
C939 H931 0.930 . S
C939 C940 1.355 . S
C939 C941 1.415 . S
C940 C939 1.355 . S
C940 C942 1.419 . S
C941 C936 1.425 . S
C941 C938 1.409 . S
C941 C939 1.415 . S
C942 H932 0.930 . S
C942 C940 1.419 . S
C942 C943 1.362 . S
C943 H933 0.930 . S
C943 C936 1.409 . S
C943 C942 1.362 . S
H944 C950 0.930 . S
H945 C953 0.930 . S
H946 C954 0.930 . S
H947 C955 0.930 . S
H948 C958 0.930 . S
H949 C959 0.930 . S
C950 H944 0.930 . S
C950 C951 1.355 . S
C950 C952 1.415 . S
C951 C950 1.355 . S
C951 C953 1.419 . S
C952 C950 1.415 . S
C952 C957 1.425 . S
C952 C959 1.409 . S
C953 H945 0.930 . S
C953 C951 1.419 . S
C953 C954 1.362 . S
C954 H946 0.930 . S
C954 C953 1.362 . S
C954 C957 1.409 . S
C955 H947 0.930 . S
C955 C956 1.355 . S
C955 C957 1.415 . S
C956 C955 1.355 . S
C956 C958 1.419 . S
C957 C952 1.425 . S
C957 C954 1.409 . S
C957 C955 1.415 . S
C958 H948 0.930 . S
C958 C956 1.419 . S
C958 C959 1.362 . S
C959 H949 0.930 . S
C959 C952 1.409 . S
C959 C958 1.362 . S
H960 C966 0.930 . S
H961 C969 0.930 . S
H962 C970 0.930 . S
H963 C971 0.930 . S
H964 C974 0.930 . S
H965 C975 0.930 . S
C966 H960 0.930 . S
C966 C967 1.355 . S
C966 C968 1.415 . S
C967 C966 1.355 . S
C967 C969 1.419 . S
C968 C966 1.415 . S
C968 C973 1.425 . S
C968 C975 1.409 . S
C969 H961 0.930 . S
C969 C967 1.419 . S
C969 C970 1.362 . S
C970 H962 0.930 . S
C970 C969 1.362 . S
C970 C973 1.409 . S
C971 H963 0.930 . S
C971 C972 1.355 . S
C971 C973 1.415 . S
C972 C971 1.355 . S
C972 C974 1.419 . S
C973 C968 1.425 . S
C973 C970 1.409 . S
C973 C971 1.415 . S
C974 H964 0.930 . S
C974 C972 1.419 . S
C974 C975 1.362 . S
C975 H965 0.930 . S
C975 C968 1.409 . S
C975 C974 1.362 . S
H976 C982 0.930 . S
H977 C985 0.930 . S
H978 C986 0.930 . S
H979 C987 0.930 . S
H980 C990 0.909 1_554 S
H981 C991 0.930 . S
C982 H976 0.930 . S
C982 C983 1.355 . S
C982 C984 1.415 . S
C983 C982 1.355 . S
C983 C985 1.419 . S
C984 C982 1.415 . S
C984 C989 1.425 . S
C984 C991 1.409 . S
C985 H977 0.930 . S
C985 C983 1.419 . S
C985 C986 1.362 . S
C986 H978 0.930 . S
C986 C985 1.362 . S
C986 C989 1.409 . S
C987 H979 0.930 . S
C987 C988 1.355 . S
C987 C989 1.415 . S
C988 C987 1.355 . S
C988 C990 1.419 . S
C989 C984 1.425 . S
C989 C986 1.409 . S
C989 C987 1.415 . S
C990 H980 0.909 1_556 S
C990 C988 1.419 . S
C990 C991 1.362 . S
C991 H981 0.930 . S
C991 C984 1.409 . S
C991 C990 1.362 . S
H992 C998 0.930 . S
H993 C1001 0.930 . S
H994 C1002 0.930 . S
H995 C1003 0.930 . S
H996 C1006 0.930 . S
H997 C1007 0.930 . S
C998 H992 0.930 . S
C998 C999 1.355 . S
C998 C1000 1.415 . S
C999 C998 1.355 . S
C999 C1001 1.419 . S
C1000 C998 1.415 . S
C1000 C1005 1.425 . S
C1000 C1007 1.409 . S
C1001 H993 0.930 . S
C1001 C999 1.419 . S
C1001 C1002 1.362 . S
C1002 H994 0.930 . S
C1002 C1001 1.362 . S
C1002 C1005 1.409 . S
C1003 H995 0.930 . S
C1003 C1004 1.355 . S
C1003 C1005 1.415 . S
C1004 C1003 1.355 . S
C1004 C1006 1.419 . S
C1005 C1000 1.425 . S
C1005 C1002 1.409 . S
C1005 C1003 1.415 . S
C1006 H996 0.930 . S
C1006 C1004 1.419 . S
C1006 C1007 1.362 . S
C1007 H997 0.930 . S
C1007 C1000 1.409 . S
C1007 C1006 1.362 . S
H1008 C1014 0.930 . S
H1009 C1017 0.930 . S
H1010 C1018 0.930 . S
H1011 C1019 0.930 . S
H1012 C1022 0.930 . S
H1013 C1023 0.930 . S
C1014 H1008 0.930 . S
C1014 C1015 1.355 . S
C1014 C1016 1.415 . S
C1015 C1014 1.355 . S
C1015 C1017 1.419 . S
C1016 C1014 1.415 . S
C1016 C1021 1.425 . S
C1016 C1023 1.409 . S
C1017 H1009 0.930 . S
C1017 C1015 1.419 . S
C1017 C1018 1.362 . S
C1018 H1010 0.930 . S
C1018 C1017 1.362 . S
C1018 C1021 1.409 . S
C1019 H1011 0.930 . S
C1019 C1020 1.355 . S
C1019 C1021 1.415 . S
C1020 C1019 1.355 . S
C1020 C1022 1.419 . S
C1021 C1016 1.425 . S
C1021 C1018 1.409 . S
C1021 C1019 1.415 . S
C1022 H1012 0.930 . S
C1022 C1020 1.419 . S
C1022 C1023 1.362 . S
C1023 H1013 0.930 . S
C1023 C1016 1.409 . S
C1023 C1022 1.362 . S
H1024 C1030 0.930 . S
H1025 C1033 0.930 1_545 S
H1026 C1034 0.930 . S
H1027 C1035 0.930 . S
H1028 C1038 0.930 . S
H1029 C1039 0.930 . S
C1030 H1024 0.930 . S
C1030 C1031 1.355 . S
C1030 C1032 1.415 . S
C1031 C1030 1.355 . S
C1031 C1033 1.419 . S
C1032 C1030 1.415 . S
C1032 C1037 1.425 . S
C1032 C1039 1.409 . S
C1033 H1025 0.930 1_565 S
C1033 C1031 1.419 . S
C1033 C1034 1.362 . S
C1034 H1026 0.930 . S
C1034 C1033 1.362 . S
C1034 C1037 1.409 . S
C1035 H1027 0.930 . S
C1035 C1036 1.355 . S
C1035 C1037 1.415 . S
C1036 C1035 1.355 . S
C1036 C1038 1.419 . S
C1037 C1032 1.425 . S
C1037 C1034 1.409 . S
C1037 C1035 1.415 . S
C1038 H1028 0.930 . S
C1038 C1036 1.419 . S
C1038 C1039 1.362 . S
C1039 H1029 0.930 . S
C1039 C1032 1.409 . S
C1039 C1038 1.362 . S
H1040 C1046 0.930 . S
H1041 C1049 0.930 . S
H1042 C1050 0.930 . S
H1043 C1051 0.930 . S
H1044 C1054 0.930 1_545 S
H1045 C1055 0.930 . S
C1046 H1040 0.930 . S
C1046 C1047 1.355 . S
C1046 C1048 1.415 . S
C1047 C1046 1.355 . S
C1047 C1049 1.419 . S
C1048 C1046 1.415 . S
C1048 C1053 1.425 . S
C1048 C1055 1.409 . S
C1049 H1041 0.930 . S
C1049 C1047 1.419 . S
C1049 C1050 1.362 . S
C1050 H1042 0.930 . S
C1050 C1049 1.362 . S
C1050 C1053 1.409 . S
C1051 H1043 0.930 . S
C1051 C1052 1.355 . S
C1051 C1053 1.415 . S
C1052 C1051 1.355 . S
C1052 C1054 1.419 . S
C1053 C1048 1.425 . S
C1053 C1050 1.409 . S
C1053 C1051 1.415 . S
C1054 H1044 0.930 1_565 S
C1054 C1052 1.419 . S
C1054 C1055 1.362 . S
C1055 H1045 0.930 . S
C1055 C1048 1.409 . S
C1055 C1054 1.362 . S
H1056 C1062 0.930 . S
H1057 C1065 0.930 1_556 S
H1058 C1066 0.930 . S
H1059 C1067 0.930 . S
H1060 C1070 0.930 . S
H1061 C1071 0.930 . S
C1062 H1056 0.930 . S
C1062 C1063 1.355 . S
C1062 C1064 1.415 . S
C1063 C1062 1.355 . S
C1063 C1065 1.419 . S
C1064 C1062 1.415 . S
C1064 C1069 1.425 . S
C1064 C1071 1.409 . S
C1065 H1057 0.930 1_554 S
C1065 C1063 1.419 . S
C1065 C1066 1.362 . S
C1066 H1058 0.930 . S
C1066 C1065 1.362 . S
C1066 C1069 1.409 . S
C1067 H1059 0.930 . S
C1067 C1068 1.355 . S
C1067 C1069 1.415 . S
C1068 C1067 1.355 . S
C1068 C1070 1.419 . S
C1069 C1064 1.425 . S
C1069 C1066 1.409 . S
C1069 C1067 1.415 . S
C1070 H1060 0.930 . S
C1070 C1068 1.419 . S
C1070 C1071 1.362 . S
C1071 H1061 0.930 . S
C1071 C1064 1.409 . S
C1071 C1070 1.362 . S
H1072 C1078 0.959 . S
H1073 C1081 0.930 . S
H1074 C1082 0.930 . S
H1075 C1083 0.930 . S
H1076 C1086 0.930 . S
H1077 C1087 0.930 . S
C1078 H1072 0.959 . S
C1078 C1079 1.355 . S
C1078 C1080 1.415 . S
C1079 C1078 1.355 . S
C1079 C1081 1.419 . S
C1080 C1078 1.415 . S
C1080 C1085 1.425 . S
C1080 C1087 1.409 . S
C1081 H1073 0.930 . S
C1081 C1079 1.419 . S
C1081 C1082 1.362 . S
C1082 H1074 0.930 . S
C1082 C1081 1.362 . S
C1082 C1085 1.409 . S
C1083 H1075 0.930 . S
C1083 C1084 1.355 . S
C1083 C1085 1.415 . S
C1084 C1083 1.355 . S
C1084 C1086 1.419 . S
C1085 C1080 1.425 . S
C1085 C1082 1.409 . S
C1085 C1083 1.415 . S
C1086 H1076 0.930 . S
C1086 C1084 1.419 . S
C1086 C1087 1.362 . S
C1087 H1077 0.930 . S
C1087 C1080 1.409 . S
C1087 C1086 1.362 . S
H1088 C1094 0.930 . S
H1089 C1097 0.930 . S
H1090 C1098 0.930 . S
H1091 C1099 0.930 . S
H1092 C1102 0.930 . S
H1093 C1103 0.930 . S
C1094 H1088 0.930 . S
C1094 C1095 1.355 . S
C1094 C1096 1.415 . S
C1095 C1094 1.355 . S
C1095 C1097 1.419 . S
C1096 C1094 1.415 . S
C1096 C1101 1.425 . S
C1096 C1103 1.409 . S
C1097 H1089 0.930 . S
C1097 C1095 1.419 . S
C1097 C1098 1.362 . S
C1098 H1090 0.930 . S
C1098 C1097 1.362 . S
C1098 C1101 1.409 . S
C1099 H1091 0.930 . S
C1099 C1100 1.355 . S
C1099 C1101 1.415 . S
C1100 C1099 1.355 . S
C1100 C1102 1.419 . S
C1101 C1096 1.425 . S
C1101 C1098 1.409 . S
C1101 C1099 1.415 . S
C1102 H1092 0.930 . S
C1102 C1100 1.419 . S
C1102 C1103 1.362 . S
C1103 H1093 0.930 . S
C1103 C1096 1.409 . S
C1103 C1102 1.362 . S
H1104 C1110 0.930 . S
H1105 C1113 0.930 . S
H1106 C1114 0.930 . S
H1107 C1115 0.930 . S
H1108 C1118 0.930 . S
H1109 C1119 0.930 . S
C1110 H1104 0.930 . S
C1110 C1111 1.355 . S
C1110 C1112 1.415 . S
C1111 C1110 1.355 . S
C1111 C1113 1.419 . S
C1112 C1110 1.415 . S
C1112 C1117 1.425 . S
C1112 C1119 1.409 . S
C1113 H1105 0.930 . S
C1113 C1111 1.419 . S
C1113 C1114 1.362 . S
C1114 H1106 0.930 . S
C1114 C1113 1.362 . S
C1114 C1117 1.409 . S
C1115 H1107 0.930 . S
C1115 C1116 1.355 . S
C1115 C1117 1.415 . S
C1116 C1115 1.355 . S
C1116 C1118 1.419 . S
C1117 C1112 1.425 . S
C1117 C1114 1.409 . S
C1117 C1115 1.415 . S
C1118 H1108 0.930 . S
C1118 C1116 1.419 . S
C1118 C1119 1.362 . S
C1119 H1109 0.930 . S
C1119 C1112 1.409 . S
C1119 C1118 1.362 . S
H1120 C1126 0.930 . S
H1121 C1129 0.930 . S
H1122 C1130 0.930 . S
H1123 C1131 0.930 . S
H1124 C1134 0.930 . S
H1125 C1135 0.930 . S
C1126 H1120 0.930 . S
C1126 C1127 1.355 . S
C1126 C1128 1.415 . S
C1127 C1126 1.355 . S
C1127 C1129 1.419 . S
C1128 C1126 1.415 . S
C1128 C1133 1.425 . S
C1128 C1135 1.409 . S
C1129 H1121 0.930 . S
C1129 C1127 1.419 . S
C1129 C1130 1.362 . S
C1130 H1122 0.930 . S
C1130 C1129 1.362 . S
C1130 C1133 1.409 . S
C1131 H1123 0.930 . S
C1131 C1132 1.355 . S
C1131 C1133 1.415 . S
C1132 C1131 1.355 . S
C1132 C1134 1.419 . S
C1133 C1128 1.425 . S
C1133 C1130 1.409 . S
C1133 C1131 1.415 . S
C1134 H1124 0.930 . S
C1134 C1132 1.419 . S
C1134 C1135 1.362 . S
C1135 H1125 0.930 . S
C1135 C1128 1.409 . S
C1135 C1134 1.362 . S
H1136 C1142 0.930 . S
H1137 C1145 0.930 . S
H1138 C1146 0.930 . S
H1139 C1147 0.930 . S
H1140 C1150 0.930 . S
H1141 C1151 0.930 . S
C1142 H1136 0.930 . S
C1142 C1143 1.355 . S
C1142 C1144 1.415 . S
C1143 C1142 1.355 . S
C1143 C1145 1.419 . S
C1144 C1142 1.415 . S
C1144 C1149 1.425 . S
C1144 C1151 1.409 . S
C1145 H1137 0.930 . S
C1145 C1143 1.419 . S
C1145 C1146 1.362 . S
C1146 H1138 0.930 . S
C1146 C1145 1.362 . S
C1146 C1149 1.409 . S
C1147 H1139 0.930 . S
C1147 C1148 1.355 . S
C1147 C1149 1.415 . S
C1148 C1147 1.355 . S
C1148 C1150 1.419 . S
C1149 C1144 1.425 . S
C1149 C1146 1.409 . S
C1149 C1147 1.415 . S
C1150 H1140 0.930 . S
C1150 C1148 1.419 . S
C1150 C1151 1.362 . S
C1151 H1141 0.930 . S
C1151 C1144 1.409 . S
C1151 C1150 1.362 . S
H1152 C1158 0.930 . S
H1153 C1161 0.930 1_554 S
H1154 C1162 0.930 . S
H1155 C1163 0.930 . S
H1156 C1166 0.930 . S
H1157 C1167 0.930 . S
C1158 H1152 0.930 . S
C1158 C1159 1.355 . S
C1158 C1160 1.415 . S
C1159 C1158 1.355 . S
C1159 C1161 1.419 . S
C1160 C1158 1.415 . S
C1160 C1165 1.425 . S
C1160 C1167 1.409 . S
C1161 H1153 0.930 1_556 S
C1161 C1159 1.419 . S
C1161 C1162 1.362 . S
C1162 H1154 0.930 . S
C1162 C1161 1.362 . S
C1162 C1165 1.409 . S
C1163 H1155 0.930 . S
C1163 C1164 1.355 . S
C1163 C1165 1.415 . S
C1164 C1163 1.355 . S
C1164 C1166 1.419 . S
C1165 C1160 1.425 . S
C1165 C1162 1.409 . S
C1165 C1163 1.415 . S
C1166 H1156 0.930 . S
C1166 C1164 1.419 . S
C1166 C1167 1.362 . S
C1167 H1157 0.930 . S
C1167 C1160 1.409 . S
C1167 C1166 1.362 . S
H1168 C1174 0.930 . S
H1169 C1177 0.930 . S
H1170 C1178 0.930 . S
H1171 C1179 0.930 . S
H1172 C1182 0.930 . S
H1173 C1183 0.930 . S
C1174 H1168 0.930 . S
C1174 C1175 1.355 . S
C1174 C1176 1.415 . S
C1175 C1174 1.355 . S
C1175 C1177 1.419 . S
C1176 C1174 1.415 . S
C1176 C1181 1.425 . S
C1176 C1183 1.409 . S
C1177 H1169 0.930 . S
C1177 C1175 1.419 . S
C1177 C1178 1.362 . S
C1178 H1170 0.930 . S
C1178 C1177 1.362 . S
C1178 C1181 1.409 . S
C1179 H1171 0.930 . S
C1179 C1180 1.355 . S
C1179 C1181 1.415 . S
C1180 C1179 1.355 . S
C1180 C1182 1.419 . S
C1181 C1176 1.425 . S
C1181 C1178 1.409 . S
C1181 C1179 1.415 . S
C1182 H1172 0.930 . S
C1182 C1180 1.419 . S
C1182 C1183 1.362 . S
C1183 H1173 0.930 . S
C1183 C1176 1.409 . S
C1183 C1182 1.362 . S
H1184 C1190 0.930 . S
H1185 C1193 0.930 . S
H1186 C1194 0.930 . S
H1187 C1195 0.930 . S
H1188 C1198 0.930 . S
H1189 C1199 0.930 . S
C1190 H1184 0.930 . S
C1190 C1191 1.355 . S
C1190 C1192 1.415 . S
C1191 C1190 1.355 . S
C1191 C1193 1.419 . S
C1192 C1190 1.415 . S
C1192 C1197 1.425 . S
C1192 C1199 1.409 . S
C1193 H1185 0.930 . S
C1193 C1191 1.419 . S
C1193 C1194 1.362 . S
C1194 H1186 0.930 . S
C1194 C1193 1.362 . S
C1194 C1197 1.409 . S
C1195 H1187 0.930 . S
C1195 C1196 1.355 . S
C1195 C1197 1.415 . S
C1196 C1195 1.355 . S
C1196 C1198 1.419 . S
C1197 C1192 1.425 . S
C1197 C1194 1.409 . S
C1197 C1195 1.415 . S
C1198 H1188 0.930 . S
C1198 C1196 1.419 . S
C1198 C1199 1.362 . S
C1199 H1189 0.930 . S
C1199 C1192 1.409 . S
C1199 C1198 1.362 . S
H1200 C1206 0.930 . S
H1201 C1209 0.930 . S
H1202 C1210 0.930 . S
H1203 C1211 0.930 . S
H1204 C1214 0.930 . S
H1205 C1215 0.930 . S
C1206 H1200 0.930 . S
C1206 C1207 1.355 . S
C1206 C1208 1.415 . S
C1207 C1206 1.355 . S
C1207 C1209 1.419 . S
C1208 C1206 1.415 . S
C1208 C1213 1.425 . S
C1208 C1215 1.409 . S
C1209 H1201 0.930 . S
C1209 C1207 1.419 . S
C1209 C1210 1.362 . S
C1210 H1202 0.930 . S
C1210 C1209 1.362 . S
C1210 C1213 1.409 . S
C1211 H1203 0.930 . S
C1211 C1212 1.355 . S
C1211 C1213 1.415 . S
C1212 C1211 1.355 . S
C1212 C1214 1.419 . S
C1213 C1208 1.425 . S
C1213 C1210 1.409 . S
C1213 C1211 1.415 . S
C1214 H1204 0.930 . S
C1214 C1212 1.419 . S
C1214 C1215 1.362 . S
C1215 H1205 0.930 . S
C1215 C1208 1.409 . S
C1215 C1214 1.362 . S
H1216 C1222 0.930 . S
H1217 C1225 0.930 . S
H1218 C1226 0.930 . S
H1219 C1227 0.930 . S
H1220 C1230 0.930 . S
H1221 C1231 0.930 . S
C1222 H1216 0.930 . S
C1222 C1223 1.355 . S
C1222 C1224 1.415 . S
C1223 C1222 1.355 . S
C1223 C1225 1.419 . S
C1224 C1222 1.415 . S
C1224 C1229 1.425 . S
C1224 C1231 1.409 . S
C1225 H1217 0.930 . S
C1225 C1223 1.419 . S
C1225 C1226 1.362 . S
C1226 H1218 0.930 . S
C1226 C1225 1.362 . S
C1226 C1229 1.409 . S
C1227 H1219 0.930 . S
C1227 C1228 1.355 . S
C1227 C1229 1.415 . S
C1228 C1227 1.355 . S
C1228 C1230 1.419 . S
C1229 C1224 1.425 . S
C1229 C1226 1.409 . S
C1229 C1227 1.415 . S
C1230 H1220 0.930 . S
C1230 C1228 1.419 . S
C1230 C1231 1.362 . S
C1231 H1221 0.930 . S
C1231 C1224 1.409 . S
C1231 C1230 1.362 . S
H1232 C1238 0.930 . S
H1233 C1241 0.930 . S
H1234 C1242 0.930 . S
H1235 C1243 0.930 . S
H1236 C1246 0.930 . S
H1237 C1247 0.930 . S
C1238 H1232 0.930 . S
C1238 C1239 1.355 . S
C1238 C1240 1.415 . S
C1239 C1238 1.355 . S
C1239 C1241 1.419 . S
C1240 C1238 1.415 . S
C1240 C1245 1.425 . S
C1240 C1247 1.409 . S
C1241 H1233 0.930 . S
C1241 C1239 1.419 . S
C1241 C1242 1.362 . S
C1242 H1234 0.930 . S
C1242 C1241 1.362 . S
C1242 C1245 1.409 . S
C1243 H1235 0.930 . S
C1243 C1244 1.355 . S
C1243 C1245 1.415 . S
C1244 C1243 1.355 . S
C1244 C1246 1.419 . S
C1245 C1240 1.425 . S
C1245 C1242 1.409 . S
C1245 C1243 1.415 . S
C1246 H1236 0.930 . S
C1246 C1244 1.419 . S
C1246 C1247 1.362 . S
C1247 H1237 0.930 . S
C1247 C1240 1.409 . S
C1247 C1246 1.362 . S
H1248 C1254 0.930 . S
H1249 C1257 0.930 . S
H1250 C1258 0.930 . S
H1251 C1259 0.930 . S
H1252 C1262 0.930 . S
H1253 C1263 0.930 . S
C1254 H1248 0.930 . S
C1254 C1255 1.355 . S
C1254 C1256 1.415 . S
C1255 C1254 1.355 . S
C1255 C1257 1.419 . S
C1256 C1254 1.415 . S
C1256 C1261 1.425 . S
C1256 C1263 1.409 . S
C1257 H1249 0.930 . S
C1257 C1255 1.419 . S
C1257 C1258 1.362 . S
C1258 H1250 0.930 . S
C1258 C1257 1.362 . S
C1258 C1261 1.409 . S
C1259 H1251 0.930 . S
C1259 C1260 1.355 . S
C1259 C1261 1.415 . S
C1260 C1259 1.355 . S
C1260 C1262 1.419 . S
C1261 C1256 1.425 . S
C1261 C1258 1.409 . S
C1261 C1259 1.415 . S
C1262 H1252 0.930 . S
C1262 C1260 1.419 . S
C1262 C1263 1.362 . S
C1263 H1253 0.930 . S
C1263 C1256 1.409 . S
C1263 C1262 1.362 . S
H1264 C1270 0.930 . S
H1265 C1273 0.930 . S
H1266 C1274 0.930 . S
H1267 C1275 0.930 . S
H1268 C1278 0.930 . S
H1269 C1279 0.930 . S
C1270 H1264 0.930 . S
C1270 C1271 1.355 . S
C1270 C1272 1.415 . S
C1271 C1270 1.355 . S
C1271 C1273 1.419 . S
C1272 C1270 1.415 . S
C1272 C1277 1.425 . S
C1272 C1279 1.409 . S
C1273 H1265 0.930 . S
C1273 C1271 1.419 . S
C1273 C1274 1.362 . S
C1274 H1266 0.930 . S
C1274 C1273 1.362 . S
C1274 C1277 1.409 . S
C1275 H1267 0.930 . S
C1275 C1276 1.355 . S
C1275 C1277 1.415 . S
C1276 C1275 1.355 . S
C1276 C1278 1.419 . S
C1277 C1272 1.425 . S
C1277 C1274 1.409 . S
C1277 C1275 1.415 . S
C1278 H1268 0.930 . S
C1278 C1276 1.419 . S
C1278 C1279 1.362 . S
C1279 H1269 0.930 . S
C1279 C1272 1.409 . S
C1279 C1278 1.362 . S
H1280 C1286 0.930 . S
H1281 C1289 0.930 . S
H1282 C1290 0.930 . S
H1283 C1291 0.930 . S
H1284 C1294 0.930 . S
H1285 C1295 0.930 . S
C1286 H1280 0.930 . S
C1286 C1287 1.355 . S
C1286 C1288 1.415 . S
C1287 C1286 1.355 . S
C1287 C1289 1.419 . S
C1288 C1286 1.415 . S
C1288 C1293 1.425 . S
C1288 C1295 1.409 . S
C1289 H1281 0.930 . S
C1289 C1287 1.419 . S
C1289 C1290 1.362 . S
C1290 H1282 0.930 . S
C1290 C1289 1.362 . S
C1290 C1293 1.409 . S
C1291 H1283 0.930 . S
C1291 C1292 1.355 . S
C1291 C1293 1.415 . S
C1292 C1291 1.355 . S
C1292 C1294 1.419 . S
C1293 C1288 1.425 . S
C1293 C1290 1.409 . S
C1293 C1291 1.415 . S
C1294 H1284 0.930 . S
C1294 C1292 1.419 . S
C1294 C1295 1.362 . S
C1295 H1285 0.930 . S
C1295 C1288 1.409 . S
C1295 C1294 1.362 . S
H1296 C1302 0.930 . S
H1297 C1305 0.930 . S
H1298 C1306 0.930 . S
H1299 C1307 0.930 . S
H1300 C1310 0.930 . S
H1301 C1311 0.930 . S
C1302 H1296 0.930 . S
C1302 C1303 1.355 . S
C1302 C1304 1.415 . S
C1303 C1302 1.355 . S
C1303 C1305 1.419 . S
C1304 C1302 1.415 . S
C1304 C1309 1.425 . S
C1304 C1311 1.409 . S
C1305 H1297 0.930 . S
C1305 C1303 1.419 . S
C1305 C1306 1.362 . S
C1306 H1298 0.930 . S
C1306 C1305 1.362 . S
C1306 C1309 1.409 . S
C1307 H1299 0.930 . S
C1307 C1308 1.355 . S
C1307 C1309 1.415 . S
C1308 C1307 1.355 . S
C1308 C1310 1.419 . S
C1309 C1304 1.425 . S
C1309 C1306 1.409 . S
C1309 C1307 1.415 . S
C1310 H1300 0.930 . S
C1310 C1308 1.419 . S
C1310 C1311 1.362 . S
C1311 H1301 0.930 . S
C1311 C1304 1.409 . S
C1311 C1310 1.362 . S
H1312 C1318 0.930 . S
H1313 C1321 0.930 . S
H1314 C1322 0.930 . S
H1315 C1323 0.930 . S
H1316 C1326 0.930 . S
H1317 C1327 0.930 . S
C1318 H1312 0.930 . S
C1318 C1319 1.355 . S
C1318 C1320 1.415 . S
C1319 C1318 1.355 . S
C1319 C1321 1.419 . S
C1320 C1318 1.415 . S
C1320 C1325 1.425 . S
C1320 C1327 1.409 . S
C1321 H1313 0.930 . S
C1321 C1319 1.419 . S
C1321 C1322 1.362 . S
C1322 H1314 0.930 . S
C1322 C1321 1.362 . S
C1322 C1325 1.409 . S
C1323 H1315 0.930 . S
C1323 C1324 1.355 . S
C1323 C1325 1.415 . S
C1324 C1323 1.355 . S
C1324 C1326 1.419 . S
C1325 C1320 1.425 . S
C1325 C1322 1.409 . S
C1325 C1323 1.415 . S
C1326 H1316 0.930 . S
C1326 C1324 1.419 . S
C1326 C1327 1.362 . S
C1327 H1317 0.930 . S
C1327 C1320 1.409 . S
C1327 C1326 1.362 . S
H1328 C1334 0.930 . S
H1329 C1337 0.930 . S
H1330 C1338 0.930 . S
H1331 C1339 0.930 . S
H1332 C1342 0.930 . S
H1333 C1343 0.930 . S
C1334 H1328 0.930 . S
C1334 C1335 1.355 . S
C1334 C1336 1.415 . S
C1335 C1334 1.355 . S
C1335 C1337 1.419 . S
C1336 C1334 1.415 . S
C1336 C1341 1.425 . S
C1336 C1343 1.409 . S
C1337 H1329 0.930 . S
C1337 C1335 1.419 . S
C1337 C1338 1.362 . S
C1338 H1330 0.930 . S
C1338 C1337 1.362 . S
C1338 C1341 1.409 . S
C1339 H1331 0.930 . S
C1339 C1340 1.355 . S
C1339 C1341 1.415 . S
C1340 C1339 1.355 . S
C1340 C1342 1.419 . S
C1341 C1336 1.425 . S
C1341 C1338 1.409 . S
C1341 C1339 1.415 . S
C1342 H1332 0.930 . S
C1342 C1340 1.419 . S
C1342 C1343 1.362 . S
C1343 H1333 0.930 . S
C1343 C1336 1.409 . S
C1343 C1342 1.362 . S
H1344 C1350 0.930 . S
H1345 C1353 0.930 . S
H1346 C1354 0.930 . S
H1347 C1355 0.930 . S
H1348 C1358 0.930 . S
H1349 C1359 0.930 . S
C1350 H1344 0.930 . S
C1350 C1351 1.355 . S
C1350 C1352 1.415 . S
C1351 C1350 1.355 . S
C1351 C1353 1.419 . S
C1352 C1350 1.415 . S
C1352 C1357 1.425 . S
C1352 C1359 1.409 . S
C1353 H1345 0.930 . S
C1353 C1351 1.419 . S
C1353 C1354 1.362 . S
C1354 H1346 0.930 . S
C1354 C1353 1.362 . S
C1354 C1357 1.409 . S
C1355 H1347 0.930 . S
C1355 C1356 1.355 . S
C1355 C1357 1.415 . S
C1356 C1355 1.355 . S
C1356 C1358 1.419 . S
C1357 C1352 1.425 . S
C1357 C1354 1.409 . S
C1357 C1355 1.415 . S
C1358 H1348 0.930 . S
C1358 C1356 1.419 . S
C1358 C1359 1.362 . S
C1359 H1349 0.930 . S
C1359 C1352 1.409 . S
C1359 C1358 1.362 . S
H1360 C1366 0.930 . S
H1361 C1369 0.930 1_455 S
H1362 C1370 0.930 1_455 S
H1363 C1371 0.930 . S
H1364 C1374 0.930 . S
H1365 C1375 0.930 . S
C1366 H1360 0.930 . S
C1366 C1367 1.355 . S
C1366 C1368 1.415 . S
C1367 C1366 1.355 . S
C1367 C1369 1.419 . S
C1368 C1366 1.415 . S
C1368 C1373 1.425 . S
C1368 C1375 1.409 . S
C1369 H1361 0.930 1_655 S
C1369 C1367 1.419 . S
C1369 C1370 1.362 . S
C1370 H1362 0.930 1_655 S
C1370 C1369 1.362 . S
C1370 C1373 1.409 . S
C1371 H1363 0.930 . S
C1371 C1372 1.355 . S
C1371 C1373 1.415 . S
C1372 C1371 1.355 . S
C1372 C1374 1.419 . S
C1373 C1368 1.425 . S
C1373 C1370 1.409 . S
C1373 C1371 1.415 . S
C1374 H1364 0.930 . S
C1374 C1372 1.419 . S
C1374 C1375 1.362 . S
C1375 H1365 0.930 . S
C1375 C1368 1.409 . S
C1375 C1374 1.362 . S
H1376 C1382 0.930 . S
H1377 C1385 0.930 . S
H1378 C1386 0.930 . S
H1379 C1387 0.930 . S
H1380 C1390 0.930 . S
H1381 C1391 0.930 . S
C1382 H1376 0.930 . S
C1382 C1383 1.355 . S
C1382 C1384 1.415 . S
C1383 C1382 1.355 . S
C1383 C1385 1.419 . S
C1384 C1382 1.415 . S
C1384 C1389 1.425 . S
C1384 C1391 1.409 . S
C1385 H1377 0.930 . S
C1385 C1383 1.419 . S
C1385 C1386 1.362 . S
C1386 H1378 0.930 . S
C1386 C1385 1.362 . S
C1386 C1389 1.409 . S
C1387 H1379 0.930 . S
C1387 C1388 1.355 . S
C1387 C1389 1.415 . S
C1388 C1387 1.355 . S
C1388 C1390 1.419 . S
C1389 C1384 1.425 . S
C1389 C1386 1.409 . S
C1389 C1387 1.415 . S
C1390 H1380 0.930 . S
C1390 C1388 1.419 . S
C1390 C1391 1.362 . S
C1391 H1381 0.930 . S
C1391 C1384 1.409 . S
C1391 C1390 1.362 . S
H1392 C1398 0.930 . S
H1393 C1401 0.930 . S
H1394 C1402 0.930 . S
H1395 C1403 0.930 . S
H1396 C1406 0.930 . S
H1397 C1407 0.930 . S
C1398 H1392 0.930 . S
C1398 C1399 1.355 . S
C1398 C1400 1.415 . S
C1399 C1398 1.355 . S
C1399 C1401 1.419 . S
C1400 C1398 1.415 . S
C1400 C1405 1.425 . S
C1400 C1407 1.409 . S
C1401 H1393 0.930 . S
C1401 C1399 1.419 . S
C1401 C1402 1.362 . S
C1402 H1394 0.930 . S
C1402 C1401 1.362 . S
C1402 C1405 1.409 . S
C1403 H1395 0.930 . S
C1403 C1404 1.355 . S
C1403 C1405 1.415 . S
C1404 C1403 1.355 . S
C1404 C1406 1.419 . S
C1405 C1400 1.425 . S
C1405 C1402 1.409 . S
C1405 C1403 1.415 . S
C1406 H1396 0.930 . S
C1406 C1404 1.419 . S
C1406 C1407 1.362 . S
C1407 H1397 0.930 . S
C1407 C1400 1.409 . S
C1407 C1406 1.362 . S
H1408 C1414 0.930 . S
H1409 C1417 0.930 . S
H1410 C1418 0.930 . S
H1411 C1419 0.930 . S
H1412 C1422 0.930 . S
H1413 C1423 0.930 . S
C1414 H1408 0.930 . S
C1414 C1415 1.355 . S
C1414 C1416 1.415 . S
C1415 C1414 1.355 . S
C1415 C1417 1.419 . S
C1416 C1414 1.415 . S
C1416 C1421 1.425 . S
C1416 C1423 1.409 . S
C1417 H1409 0.930 . S
C1417 C1415 1.419 . S
C1417 C1418 1.362 . S
C1418 H1410 0.930 . S
C1418 C1417 1.362 . S
C1418 C1421 1.409 . S
C1419 H1411 0.930 . S
C1419 C1420 1.355 . S
C1419 C1421 1.415 . S
C1420 C1419 1.355 . S
C1420 C1422 1.419 . S
C1421 C1416 1.425 . S
C1421 C1418 1.409 . S
C1421 C1419 1.415 . S
C1422 H1412 0.930 . S
C1422 C1420 1.419 . S
C1422 C1423 1.362 . S
C1423 H1413 0.930 . S
C1423 C1416 1.409 . S
C1423 C1422 1.362 . S
H1424 C1430 0.930 . S
H1425 C1433 0.930 . S
H1426 C1434 0.930 . S
H1427 C1435 0.930 . S
H1428 C1438 0.930 . S
H1429 C1439 0.930 . S
C1430 H1424 0.930 . S
C1430 C1431 1.355 . S
C1430 C1432 1.415 . S
C1431 C1430 1.355 . S
C1431 C1433 1.419 . S
C1432 C1430 1.415 . S
C1432 C1437 1.425 . S
C1432 C1439 1.409 . S
C1433 H1425 0.930 . S
C1433 C1431 1.419 . S
C1433 C1434 1.362 . S
C1434 H1426 0.930 . S
C1434 C1433 1.362 . S
C1434 C1437 1.409 . S
C1435 H1427 0.930 . S
C1435 C1436 1.355 . S
C1435 C1437 1.415 . S
C1436 C1435 1.355 . S
C1436 C1438 1.419 . S
C1437 C1432 1.425 . S
C1437 C1434 1.409 . S
C1437 C1435 1.415 . S
C1438 H1428 0.930 . S
C1438 C1436 1.419 . S
C1438 C1439 1.362 . S
C1439 H1429 0.930 . S
C1439 C1432 1.409 . S
C1439 C1438 1.362 . S
H1440 C1446 0.930 . S
H1441 C1449 0.930 . S
H1442 C1450 0.930 . S
H1443 C1451 0.930 . S
H1444 C1454 0.930 . S
H1445 C1455 0.930 . S
C1446 H1440 0.930 . S
C1446 C1447 1.355 . S
C1446 C1448 1.415 . S
C1447 C1446 1.355 . S
C1447 C1449 1.419 . S
C1448 C1446 1.415 . S
C1448 C1453 1.425 . S
C1448 C1455 1.409 . S
C1449 H1441 0.930 . S
C1449 C1447 1.419 . S
C1449 C1450 1.362 . S
C1450 H1442 0.930 . S
C1450 C1449 1.362 . S
C1450 C1453 1.409 . S
C1451 H1443 0.930 . S
C1451 C1452 1.355 . S
C1451 C1453 1.415 . S
C1452 C1451 1.355 . S
C1452 C1454 1.419 . S
C1453 C1448 1.425 . S
C1453 C1450 1.409 . S
C1453 C1451 1.415 . S
C1454 H1444 0.930 . S
C1454 C1452 1.419 . S
C1454 C1455 1.362 . S
C1455 H1445 0.930 . S
C1455 C1448 1.409 . S
C1455 C1454 1.362 . S
H1456 C1462 0.930 . S
H1457 C1465 0.930 . S
H1458 C1466 0.930 . S
H1459 C1467 0.930 . S
H1460 C1470 0.930 . S
H1461 C1471 0.930 . S
C1462 H1456 0.930 . S
C1462 C1463 1.355 . S
C1462 C1464 1.415 . S
C1463 C1462 1.355 . S
C1463 C1465 1.419 . S
C1464 C1462 1.415 . S
C1464 C1469 1.425 . S
C1464 C1471 1.409 . S
C1465 H1457 0.930 . S
C1465 C1463 1.419 . S
C1465 C1466 1.362 . S
C1466 H1458 0.930 . S
C1466 C1465 1.362 . S
C1466 C1469 1.409 . S
C1467 H1459 0.930 . S
C1467 C1468 1.355 . S
C1467 C1469 1.415 . S
C1468 C1467 1.355 . S
C1468 C1470 1.419 . S
C1469 C1464 1.425 . S
C1469 C1466 1.409 . S
C1469 C1467 1.415 . S
C1470 H1460 0.930 . S
C1470 C1468 1.419 . S
C1470 C1471 1.362 . S
C1471 H1461 0.930 . S
C1471 C1464 1.409 . S
C1471 C1470 1.362 . S
H1472 C1478 0.930 . S
H1473 C1481 0.930 . S
H1474 C1482 0.930 . S
H1475 C1483 0.930 . S
H1476 C1486 0.930 . S
H1477 C1487 0.930 . S
C1478 H1472 0.930 . S
C1478 C1479 1.355 . S
C1478 C1480 1.415 . S
C1479 C1478 1.355 . S
C1479 C1481 1.419 . S
C1480 C1478 1.415 . S
C1480 C1485 1.425 . S
C1480 C1487 1.409 . S
C1481 H1473 0.930 . S
C1481 C1479 1.419 . S
C1481 C1482 1.362 . S
C1482 H1474 0.930 . S
C1482 C1481 1.362 . S
C1482 C1485 1.409 . S
C1483 H1475 0.930 . S
C1483 C1484 1.355 . S
C1483 C1485 1.415 . S
C1484 C1483 1.355 . S
C1484 C1486 1.419 . S
C1485 C1480 1.425 . S
C1485 C1482 1.409 . S
C1485 C1483 1.415 . S
C1486 H1476 0.930 . S
C1486 C1484 1.419 . S
C1486 C1487 1.362 . S
C1487 H1477 0.930 . S
C1487 C1480 1.409 . S
C1487 C1486 1.362 . S
H1488 C1494 0.930 . S
H1489 C1497 0.930 . S
H1490 C1498 0.930 . S
H1491 C1499 0.930 . S
H1492 C1502 0.930 . S
H1493 C1503 0.930 . S
C1494 H1488 0.930 . S
C1494 C1495 1.355 . S
C1494 C1496 1.415 . S
C1495 C1494 1.355 . S
C1495 C1497 1.419 . S
C1496 C1494 1.415 . S
C1496 C1501 1.425 . S
C1496 C1503 1.409 . S
C1497 H1489 0.930 . S
C1497 C1495 1.419 . S
C1497 C1498 1.362 . S
C1498 H1490 0.930 . S
C1498 C1497 1.362 . S
C1498 C1501 1.409 . S
C1499 H1491 0.930 . S
C1499 C1500 1.355 . S
C1499 C1501 1.415 . S
C1500 C1499 1.355 . S
C1500 C1502 1.419 . S
C1501 C1496 1.425 . S
C1501 C1498 1.409 . S
C1501 C1499 1.415 . S
C1502 H1492 0.930 . S
C1502 C1500 1.419 . S
C1502 C1503 1.362 . S
C1503 H1493 0.930 . S
C1503 C1496 1.409 . S
C1503 C1502 1.362 . S
H1504 C1510 0.930 . S
H1505 C1513 0.930 . S
H1506 C1514 0.930 . S
H1507 C1515 0.930 . S
H1508 C1518 0.930 . S
H1509 C1519 0.930 . S
C1510 H1504 0.930 . S
C1510 C1511 1.355 . S
C1510 C1512 1.415 . S
C1511 C1510 1.355 . S
C1511 C1513 1.419 . S
C1512 C1510 1.415 . S
C1512 C1517 1.425 . S
C1512 C1519 1.409 . S
C1513 H1505 0.930 . S
C1513 C1511 1.419 . S
C1513 C1514 1.362 . S
C1514 H1506 0.930 . S
C1514 C1513 1.362 . S
C1514 C1517 1.409 . S
C1515 H1507 0.930 . S
C1515 C1516 1.355 . S
C1515 C1517 1.415 . S
C1516 C1515 1.355 . S
C1516 C1518 1.419 . S
C1517 C1512 1.425 . S
C1517 C1514 1.409 . S
C1517 C1515 1.415 . S
C1518 H1508 0.930 . S
C1518 C1516 1.419 . S
C1518 C1519 1.362 . S
C1519 H1509 0.930 . S
C1519 C1512 1.409 . S
C1519 C1518 1.362 . S
H1520 C1526 0.930 . S
H1521 C1529 0.930 . S
H1522 C1530 0.930 . S
H1523 C1531 0.930 . S
H1524 C1534 0.930 . S
H1525 C1535 0.930 . S
C1526 H1520 0.930 . S
C1526 C1527 1.355 . S
C1526 C1528 1.415 . S
C1527 C1526 1.355 . S
C1527 C1529 1.419 . S
C1528 C1526 1.415 . S
C1528 C1533 1.425 . S
C1528 C1535 1.409 . S
C1529 H1521 0.930 . S
C1529 C1527 1.419 . S
C1529 C1530 1.362 . S
C1530 H1522 0.930 . S
C1530 C1529 1.362 . S
C1530 C1533 1.409 . S
C1531 H1523 0.930 . S
C1531 C1532 1.355 . S
C1531 C1533 1.415 . S
C1532 C1531 1.355 . S
C1532 C1534 1.419 . S
C1533 C1528 1.425 . S
C1533 C1530 1.409 . S
C1533 C1531 1.415 . S
C1534 H1524 0.930 . S
C1534 C1532 1.419 . S
C1534 C1535 1.362 . S
C1535 H1525 0.930 . S
C1535 C1528 1.409 . S
C1535 C1534 1.362 . S
H1536 C1542 0.930 . S
H1537 C1545 0.930 . S
H1538 C1546 0.930 . S
H1539 C1547 0.930 . S
H1540 C1550 0.930 . S
H1541 C1551 0.930 . S
C1542 H1536 0.930 . S
C1542 C1543 1.355 . S
C1542 C1544 1.415 . S
C1543 C1542 1.355 . S
C1543 C1545 1.419 . S
C1544 C1542 1.415 . S
C1544 C1549 1.425 . S
C1544 C1551 1.409 . S
C1545 H1537 0.930 . S
C1545 C1543 1.419 . S
C1545 C1546 1.362 . S
C1546 H1538 0.930 . S
C1546 C1545 1.362 . S
C1546 C1549 1.409 . S
C1547 H1539 0.930 . S
C1547 C1548 1.355 . S
C1547 C1549 1.415 . S
C1548 C1547 1.355 . S
C1548 C1550 1.419 . S
C1549 C1544 1.425 . S
C1549 C1546 1.409 . S
C1549 C1547 1.415 . S
C1550 H1540 0.930 . S
C1550 C1548 1.419 . S
C1550 C1551 1.362 . S
C1551 H1541 0.930 . S
C1551 C1544 1.409 . S
C1551 C1550 1.362 . S
H1552 C1558 0.930 . S
H1553 C1561 0.930 . S
H1554 C1562 0.930 . S
H1555 C1563 0.930 . S
H1556 C1566 0.930 . S
H1557 C1567 0.930 . S
C1558 H1552 0.930 . S
C1558 C1559 1.355 . S
C1558 C1560 1.415 . S
C1559 C1558 1.355 . S
C1559 C1561 1.419 . S
C1560 C1558 1.415 . S
C1560 C1565 1.425 . S
C1560 C1567 1.409 . S
C1561 H1553 0.930 . S
C1561 C1559 1.419 . S
C1561 C1562 1.362 . S
C1562 H1554 0.930 . S
C1562 C1561 1.362 . S
C1562 C1565 1.409 . S
C1563 H1555 0.930 . S
C1563 C1564 1.355 . S
C1563 C1565 1.415 . S
C1564 C1563 1.355 . S
C1564 C1566 1.419 . S
C1565 C1560 1.425 . S
C1565 C1562 1.409 . S
C1565 C1563 1.415 . S
C1566 H1556 0.930 . S
C1566 C1564 1.419 . S
C1566 C1567 1.362 . S
C1567 H1557 0.930 . S
C1567 C1560 1.409 . S
C1567 C1566 1.362 . S
H1568 C1574 0.930 . S
H1569 C1577 0.930 . S
H1570 C1578 0.930 . S
H1571 C1579 0.930 . S
H1572 C1582 0.930 . S
H1573 C1583 0.930 . S
C1574 H1568 0.930 . S
C1574 C1575 1.355 . S
C1574 C1576 1.415 . S
C1575 C1574 1.355 . S
C1575 C1577 1.419 . S
C1576 C1574 1.415 . S
C1576 C1581 1.425 . S
C1576 C1583 1.409 . S
C1577 H1569 0.930 . S
C1577 C1575 1.419 . S
C1577 C1578 1.362 . S
C1578 H1570 0.930 . S
C1578 C1577 1.362 . S
C1578 C1581 1.409 . S
C1579 H1571 0.930 . S
C1579 C1580 1.355 . S
C1579 C1581 1.415 . S
C1580 C1579 1.355 . S
C1580 C1582 1.419 . S
C1581 C1576 1.425 . S
C1581 C1578 1.409 . S
C1581 C1579 1.415 . S
C1582 H1572 0.930 . S
C1582 C1580 1.419 . S
C1582 C1583 1.362 . S
C1583 H1573 0.930 . S
C1583 C1576 1.409 . S
C1583 C1582 1.362 . S
H1584 C1590 0.930 . S
H1585 C1593 0.930 . S
H1586 C1594 0.930 . S
H1587 C1595 0.930 . S
H1588 C1598 0.930 . S
H1589 C1599 0.930 . S
C1590 H1584 0.930 . S
C1590 C1591 1.355 . S
C1590 C1592 1.415 . S
C1591 C1590 1.355 . S
C1591 C1593 1.419 . S
C1592 C1590 1.415 . S
C1592 C1597 1.425 . S
C1592 C1599 1.409 . S
C1593 H1585 0.930 . S
C1593 C1591 1.419 . S
C1593 C1594 1.362 . S
C1594 H1586 0.930 . S
C1594 C1593 1.362 . S
C1594 C1597 1.409 . S
C1595 H1587 0.930 . S
C1595 C1596 1.355 . S
C1595 C1597 1.415 . S
C1596 C1595 1.355 . S
C1596 C1598 1.419 . S
C1597 C1592 1.425 . S
C1597 C1594 1.409 . S
C1597 C1595 1.415 . S
C1598 H1588 0.930 . S
C1598 C1596 1.419 . S
C1598 C1599 1.362 . S
C1599 H1589 0.930 . S
C1599 C1592 1.409 . S
C1599 C1598 1.362 . S
H1600 C1606 0.930 . S
H1601 C1609 0.930 . S
H1602 C1610 0.930 . S
H1603 C1611 0.930 . S
H1604 C1614 0.930 . S
H1605 C1615 0.930 . S
C1606 H1600 0.930 . S
C1606 C1607 1.355 . S
C1606 C1608 1.415 . S
C1607 C1606 1.355 . S
C1607 C1609 1.419 . S
C1608 C1606 1.415 . S
C1608 C1613 1.425 . S
C1608 C1615 1.409 . S
C1609 H1601 0.930 . S
C1609 C1607 1.419 . S
C1609 C1610 1.362 . S
C1610 H1602 0.930 . S
C1610 C1609 1.362 . S
C1610 C1613 1.409 . S
C1611 H1603 0.930 . S
C1611 C1612 1.355 . S
C1611 C1613 1.415 . S
C1612 C1611 1.355 . S
C1612 C1614 1.419 . S
C1613 C1608 1.425 . S
C1613 C1610 1.409 . S
C1613 C1611 1.415 . S
C1614 H1604 0.930 . S
C1614 C1612 1.419 . S
C1614 C1615 1.362 . S
C1615 H1605 0.930 . S
C1615 C1608 1.409 . S
C1615 C1614 1.362 . S
H1616 C1622 0.930 . S
H1617 C1625 0.930 . S
H1618 C1626 0.930 . S
H1619 C1627 0.930 . S
H1620 C1630 0.930 . S
H1621 C1631 0.930 . S
C1622 H1616 0.930 . S
C1622 C1623 1.355 . S
C1622 C1624 1.415 . S
C1623 C1622 1.355 . S
C1623 C1625 1.419 . S
C1624 C1622 1.415 . S
C1624 C1629 1.425 . S
C1624 C1631 1.409 . S
C1625 H1617 0.930 . S
C1625 C1623 1.419 . S
C1625 C1626 1.362 . S
C1626 H1618 0.930 . S
C1626 C1625 1.362 . S
C1626 C1629 1.409 . S
C1627 H1619 0.930 . S
C1627 C1628 1.355 . S
C1627 C1629 1.415 . S
C1628 C1627 1.355 . S
C1628 C1630 1.419 . S
C1629 C1624 1.425 . S
C1629 C1626 1.409 . S
C1629 C1627 1.415 . S
C1630 H1620 0.930 . S
C1630 C1628 1.419 . S
C1630 C1631 1.362 . S
C1631 H1621 0.930 . S
C1631 C1624 1.409 . S
C1631 C1630 1.362 . S
C871 C506 1.423 . S
C876 C4 1.470 . S
C887 C40 1.290 . S
C892 C554 1.251 . S
C903 C650 1.431 . S
C908 C75 1.457 . S
C919 C111 1.333 . S
C924 C471 1.334 . S
C935 C518 1.416 . S
C940 C147 1.479 . S
C951 C182 1.301 . S
C956 C542 1.308 . S
C967 C220 1.448 . S
C972 C662 1.416 . S
C983 C266 1.263 . S
C988 C472 1.299 . S
C999 C328 1.430 . S
C1004 C302 1.379 . S
C1015 C374 1.468 . S
C1020 C327 1.474 . S
C1031 C362 1.457 . S
C1036 C400 1.447 . S
C1047 C399 1.459 . S
C1052 C290 1.460 . S
C1063 C446 1.234 . S
C1068 C112 1.283 . S
C1079 C148 1.437 . S
C1084 C590 1.402 . S
C1095 C615 1.327 . S
C1100 C39 1.329 . S
C1111 C50 1.387 . S
C1116 C759 1.385 . S
C1127 C338 1.609 . S
C1132 C2 1.581 . S
C1143 C832 1.449 . S
C1148 C110 1.445 . S
C1159 C410 1.606 . S
C1164 C86 1.597 . S
C1175 C760 1.436 . S
C1180 C256 1.421 . S
C1191 C326 1.554 . S
C1196 C218 1.552 . S
C1207 C183 1.446 . S
C1212 C831 1.437 . S
C1223 C158 1.598 . S
C1228 C398 1.580 . S
C1239 C543 1.437 . S
C1244 C687 1.446 . S
C1255 C580 1.448 . S
C1260 C544 1.440 . S
C1271 C482 1.345 . S
C1276 C579 1.385 . S
C1287 C688 1.428 . S
C1292 C470 1.409 . S
C1303 C74 1.610 . S
C1308 C734 1.559 . S
C1319 C363 1.439 . S
C1324 C255 1.432 . S
C1335 C14 1.600 . S
C1340 C806 1.582 . S
C1351 C686 1.419 . S
C1356 C76 1.466 . S
C1367 C3 1.461 . S
C1372 C578 1.416 . S
C1383 C698 1.452 . S
C1388 C219 1.473 . S
C1399 C434 1.297 . S
C1404 C254 1.315 . S
C1415 C194 1.277 . S
C1420 C616 1.306 . S
C1431 C770 1.389 . S
C1436 C724 1.436 . S
C1447 C842 1.417 . S
C1452 C723 1.479 . S
C1463 C796 1.460 . S
C1468 C830 1.467 . S
C1479 C758 1.448 . S
C1484 C795 1.457 . S
C1495 C291 1.391 . S
C1500 C122 1.369 . S
C1511 C38 1.419 . S
C1516 C364 1.448 . S
C1527 C184 1.422 . S
C1532 C292 1.439 . S
C1543 C722 1.557 . S
C1548 C146 1.550 . S
C1559 C230 1.610 . S
C1564 C794 1.579 . S
C1575 C435 1.433 . S
C1580 C507 1.443 . S
C1591 C652 1.448 . S
C1596 C436 1.438 . S
C1607 C626 1.371 . S
C1612 C651 1.383 . S
C1623 C508 1.419 . S
C1628 C614 1.424 . S
