# Generated by pormake.
# Topology crb, (4)-cn, num edge types: 1
# Building blocks:
#     Node 0, Type 0, BuildingBlock: UXUYUI_clean_sbu_0, # of connection points: 4
#     Node 1, Type 0, BuildingBlock: UXUYUI_clean_sbu_0, # of connection points: 4
#     Node 2, Type 0, BuildingBlock: UXUYUI_clean_sbu_0, # of connection points: 4
#     Node 3, Type 0, BuildingBlock: UXUYUI_clean_sbu_0, # of connection points: 4
#     Node 4, Type 0, BuildingBlock: UXUYUI_clean_sbu_0, # of connection points: 4
#     Node 5, Type 0, BuildingBlock: UXUYUI_clean_sbu_0, # of connection points: 4
#     Node 6, Type 0, BuildingBlock: UXUYUI_clean_sbu_0, # of connection points: 4
#     Node 7, Type 0, BuildingBlock: UXUYUI_clean_sbu_0, # of connection points: 4
#     Edge 8, Type (0, 0), BuildingBlock: OJICUG_clean_linker_0, # of connection points: 2
#     Edge 9, Type (0, 0), BuildingBlock: OJICUG_clean_linker_0, # of connection points: 2
#     Edge 10, Type (0, 0), BuildingBlock: OJICUG_clean_linker_0, # of connection points: 2
#     Edge 11, Type (0, 0), BuildingBlock: OJICUG_clean_linker_0, # of connection points: 2
#     Edge 12, Type (0, 0), BuildingBlock: OJICUG_clean_linker_0, # of connection points: 2
#     Edge 13, Type (0, 0), BuildingBlock: OJICUG_clean_linker_0, # of connection points: 2
#     Edge 14, Type (0, 0), BuildingBlock: OJICUG_clean_linker_0, # of connection points: 2
#     Edge 15, Type (0, 0), BuildingBlock: OJICUG_clean_linker_0, # of connection points: 2
#     Edge 16, Type (0, 0), BuildingBlock: OJICUG_clean_linker_0, # of connection points: 2
#     Edge 17, Type (0, 0), BuildingBlock: OJICUG_clean_linker_0, # of connection points: 2
#     Edge 18, Type (0, 0), BuildingBlock: OJICUG_clean_linker_0, # of connection points: 2
#     Edge 19, Type (0, 0), BuildingBlock: OJICUG_clean_linker_0, # of connection points: 2
#     Edge 20, Type (0, 0), BuildingBlock: OJICUG_clean_linker_0, # of connection points: 2
#     Edge 21, Type (0, 0), BuildingBlock: OJICUG_clean_linker_0, # of connection points: 2
#     Edge 22, Type (0, 0), BuildingBlock: OJICUG_clean_linker_0, # of connection points: 2
#     Edge 23, Type (0, 0), BuildingBlock: OJICUG_clean_linker_0, # of connection points: 2
# Relax obj value: 0.060
# Max RMSD: 0.078
# Mean RMSD: 0.078
data_MOF--net-crb--node1-UXUYUI_clean_sbu_0--edge1-OJICUG_clean_linker_0
_symmetry_space_group_name_H-M    P1
_symmetry_Int_Tables_number       1
_symmetry_cell_setting            triclinic
loop_
_symmetry_equiv_pos_as_xyz
'x, y, z'
_cell_length_a     50.717279
_cell_length_b     50.692959
_cell_length_c     30.127355
_cell_angle_alpha  90.041341
_cell_angle_beta   90.02526
_cell_angle_gamma 89.886377
loop_
_atom_site_label
_atom_site_type_symbol
_atom_site_fract_x
_atom_site_fract_y
_atom_site_fract_z
_atom_type_partial_charge
Li0 Li 0.31073 0.31899 0.05522 0.0
Li1 Li 0.35381 0.32352 0.01621 0.0
Li2 Li 0.32092 0.35773 0.0126 0.0
Li3 Li 0.31336 0.31765 0.97344 0.0
C4 C 0.34157 0.36699 0.09039 0.0
N5 N 0.34484 0.41408 0.13629 0.0
C6 C 0.36576 0.37993 0.09438 0.0
C7 C 0.31909 0.37786 0.11013 0.0
C8 C 0.36699 0.40375 0.11763 0.0
C9 C 0.32114 0.40172 0.1331 0.0
C10 C 0.33791 0.27169 0.04125 0.0
C11 C 0.34398 0.22493 0.05171 0.0
N12 N 0.35483 0.22967 0.09224 0.0
C13 C 0.34909 0.27612 0.08303 0.0
C14 C 0.33526 0.24592 0.02547 0.0
C15 C 0.35752 0.2546 0.10829 0.0
C16 C 0.2755 0.28594 0.10347 0.0
N17 N 0.29444 0.30474 0.10724 0.0
C18 C 0.29248 0.30231 0.18646 0.0
C19 C 0.30312 0.31289 0.14766 0.0
C20 C 0.27296 0.2827 0.18388 0.0
C21 C 0.26448 0.27456 0.14151 0.0
H22 H 0.26925 0.27949 0.07088 0.0
H23 H 0.31861 0.32741 0.1499 0.0
C24 C 0.40563 0.33986 1.00946 0.0
N25 N 0.39116 0.31775 0.01671 0.0
C26 C 0.4331 0.33866 1.00863 0.0
C27 C 0.43049 0.29175 0.02182 0.0
C28 C 0.40299 0.29384 0.02192 0.0
C29 C 0.44599 0.31442 0.01545 0.0
H30 H 0.39571 0.35849 1.00397 0.0
H31 H 0.39127 0.27629 0.02598 0.0
C32 C 0.26892 0.3484 0.98482 0.0
N33 N 0.23113 0.37068 0.93034 0.0
C34 C 0.27646 0.3626 0.94716 0.0
C35 C 0.24217 0.34551 0.99475 0.0
C36 C 0.25706 0.37372 0.92004 0.0
C37 C 0.22336 0.35694 0.9668 0.0
C38 C 0.35749 0.33611 0.92821 0.0
C39 C 0.36744 0.35517 0.89929 0.0
C40 C 0.3635 0.30949 0.92119 0.0
C41 C 0.38317 0.34728 0.8636 0.0
C42 C 0.3793 0.3024 0.88513 0.0
N43 N 0.38873 0.32128 0.85732 0.0
C44 C 0.33985 0.40883 0.99919 0.0
C45 C 0.29502 0.40815 0.02127 0.0
C46 C 0.33976 0.43635 0.99849 0.0
N47 N 0.31774 0.39536 0.01053 0.0
C48 C 0.29394 0.43571 0.02045 0.0
C49 C 0.31655 0.45025 1.00902 0.0
H50 H 0.35773 0.39811 0.9914 0.0
H51 H 0.27779 0.397 0.03082 0.0
C52 C 0.28474 0.27946 0.92388 0.0
N53 N 0.29847 0.30237 0.92073 0.0
C54 C 0.27377 0.26789 0.88593 0.0
C55 C 0.29146 0.30361 0.8422 0.0
C56 C 0.30167 0.31466 0.88099 0.0
C57 C 0.27719 0.27987 0.84413 0.0
H58 H 0.28222 0.27022 0.95596 0.0
H59 H 0.31225 0.33309 0.87919 0.0
O60 O 0.33978 0.344 0.06674 0.0
O61 O 0.32895 0.29234 0.01622 0.0
O62 O 0.28747 0.33711 0.01183 0.0
O63 O 0.34226 0.34371 0.96348 0.0
H64 H 0.38338 0.37172 0.07965 0.0
H65 H 0.30016 0.36819 0.10705 0.0
H66 H 0.38556 0.41405 0.1208 0.0
H67 H 0.30386 0.41047 0.14818 0.0
H68 H 0.34208 0.20486 0.0399 0.0
H69 H 0.3514 0.29593 0.09574 0.0
H70 H 0.32651 0.24219 0.99328 0.0
H71 H 0.36624 0.25773 0.14064 0.0
H72 H 0.29948 0.30956 0.21813 0.0
H73 H 0.24986 0.2592 0.13764 0.0
H74 H 0.44407 0.35656 1.00227 0.0
H75 H 0.43946 0.27263 0.02727 0.0
H76 H 0.29704 0.36512 0.93896 0.0
H77 H 0.23603 0.33452 0.02375 0.0
H78 H 0.26262 0.38477 0.89082 0.0
H79 H 0.20259 0.35486 0.97408 0.0
H80 H 0.36304 0.37586 0.90441 0.0
H81 H 0.35607 0.29443 0.94324 0.0
H82 H 0.39099 0.36183 0.84091 0.0
H83 H 0.38409 0.28189 0.87927 0.0
H84 H 0.35786 0.44656 0.99045 0.0
H85 H 0.27552 0.44544 0.02837 0.0
H86 H 0.2625 0.24992 0.88954 0.0
H87 H 0.2951 0.3135 0.81099 0.0
Li88 Li 0.68785 0.35245 1.00829 0.0
Li89 Li 0.69423 0.31161 0.05055 0.0
Li90 Li 0.69255 0.31045 0.96674 0.0
Li91 Li 0.65281 0.31745 0.01221 0.0
C92 C 0.74172 0.34106 0.99781 0.0
N93 N 0.78836 0.36714 0.97983 0.0
C94 C 0.75901 0.34756 0.03225 0.0
C95 C 0.74848 0.34733 0.9541 0.0
C96 C 0.78239 0.36089 0.02254 0.0
C97 C 0.77205 0.36064 0.94571 0.0
C98 C 0.66752 0.34324 0.10533 0.0
C99 C 0.65788 0.32742 0.17907 0.0
N100 N 0.66853 0.34977 0.19641 0.0
C101 C 0.67817 0.36615 0.12389 0.0
C102 C 0.65709 0.32381 0.13312 0.0
C103 C 0.67856 0.36905 0.17001 0.0
C104 C 0.67427 0.40406 0.98498 0.0
N105 N 0.69289 0.38981 1.00687 0.0
C106 C 0.71471 0.42943 0.02951 0.0
C107 C 0.71291 0.40189 0.02894 0.0
C108 C 0.69572 0.44468 1.00704 0.0
C109 C 0.67554 0.4315 0.98401 0.0
H110 H 0.65811 0.39411 0.96872 0.0
H111 H 0.72694 0.39026 0.04749 0.0
C112 C 0.70845 0.27071 0.11023 0.0
N113 N 0.71058 0.29701 0.10229 0.0
C114 C 0.71922 0.25974 0.14876 0.0
C115 C 0.73449 0.30308 0.16996 0.0
C116 C 0.72344 0.31318 0.13106 0.0
C117 C 0.73239 0.27602 0.17936 0.0
H118 H 0.69828 0.25823 0.08671 0.0
H119 H 0.7247 0.33405 0.12424 0.0
C120 C 0.66251 0.34764 0.91782 0.0
N121 N 0.65756 0.36688 0.83236 0.0
C122 C 0.63972 0.34254 0.89316 0.0
C123 C 0.68254 0.36295 0.89924 0.0
C124 C 0.63765 0.35231 0.84994 0.0
C125 C 0.67974 0.3724 0.85596 0.0
C126 C 0.65808 0.26599 1.00768 0.0
C127 C 0.65303 0.25391 0.96685 0.0
C128 C 0.64419 0.25794 0.04536 0.0
C129 C 0.63388 0.2342 0.96428 0.0
C130 C 0.62517 0.23819 0.04142 0.0
N131 N 0.62043 0.22684 1.00129 0.0
C132 C 0.73194 0.28557 0.9151 0.0
C133 C 0.6917 0.29248 0.87687 0.0
C134 C 0.74339 0.2747 0.87703 0.0
N135 N 0.70667 0.29455 0.91417 0.0
C136 C 0.70237 0.2819 0.83801 0.0
C137 C 0.72862 0.27301 0.83765 0.0
H138 H 0.74334 0.28717 0.94534 0.0
H139 H 0.6714 0.29886 0.87725 0.0
C140 C 0.60238 0.32241 0.05047 0.0
N141 N 0.61545 0.31259 0.01472 0.0
C142 C 0.57493 0.32125 0.05256 0.0
C143 C 0.57472 0.29977 0.98096 0.0
C144 C 0.60226 0.30113 0.98049 0.0
C145 C 0.56062 0.31028 0.01712 0.0
H146 H 0.6132 0.33172 0.07703 0.0
H147 H 0.61307 0.2936 0.95228 0.0
O148 O 0.71875 0.32791 1.00679 0.0
O149 O 0.66728 0.33991 0.06023 0.0
O150 O 0.6649 0.33805 0.96015 0.0
O151 O 0.67649 0.28559 0.01072 0.0
H152 H 0.75439 0.34254 0.06618 0.0
H153 H 0.73588 0.34174 0.9268 0.0
H154 H 0.79581 0.36623 0.04896 0.0
H155 H 0.77743 0.36569 0.91203 0.0
H156 H 0.65006 0.31245 0.20093 0.0
H157 H 0.68612 0.38149 0.10296 0.0
H158 H 0.64867 0.30603 0.11936 0.0
H159 H 0.68686 0.38662 0.1848 0.0
H160 H 0.7303 0.4386 0.04855 0.0
H161 H 0.66066 0.44223 0.9656 0.0
H162 H 0.71745 0.23872 0.15431 0.0
H163 H 0.74412 0.31644 0.19284 0.0
H164 H 0.62383 0.33106 0.90709 0.0
H165 H 0.69985 0.36792 0.91829 0.0
H166 H 0.62021 0.34833 0.83041 0.0
H167 H 0.69514 0.38424 0.84121 0.0
H168 H 0.66366 0.25978 0.93741 0.0
H169 H 0.64797 0.26693 0.07727 0.0
H170 H 0.62967 0.22478 0.93284 0.0
H171 H 0.61416 0.23189 0.07027 0.0
H172 H 0.76372 0.26819 0.87818 0.0
H173 H 0.69011 0.28044 0.80868 0.0
H174 H 0.56506 0.32916 0.08153 0.0
H175 H 0.56462 0.2914 0.95261 0.0
Li176 Li 0.65661 0.6874 1.0082 0.0
Li177 Li 0.69598 0.6942 0.05307 0.0
Li178 Li 0.69786 0.6923 0.96884 0.0
Li179 Li 0.69014 0.65192 0.01264 0.0
C180 C 0.66141 0.73784 1.00836 0.0
N181 N 0.62144 0.77492 1.00855 0.0
C182 C 0.65103 0.74695 0.04851 0.0
C183 C 0.6516 0.7477 0.9683 0.0
C184 C 0.63079 0.76568 0.04791 0.0
C185 C 0.63135 0.76642 0.9691 0.0
C186 C 0.67127 0.65499 0.10208 0.0
C187 C 0.69844 0.63074 0.15368 0.0
N188 N 0.67819 0.63049 0.18324 0.0
C189 C 0.65065 0.65431 0.13286 0.0
C190 C 0.69529 0.64298 0.11251 0.0
C191 C 0.65457 0.64191 0.17374 0.0
C192 C 0.60674 0.69502 0.96647 0.0
N193 N 0.61943 0.69384 1.00614 0.0
C194 C 0.5786 0.69888 0.04495 0.0
C195 C 0.60603 0.69619 0.04499 0.0
C196 C 0.56482 0.69946 1.00441 0.0
C197 C 0.57941 0.69803 0.96481 0.0
H198 H 0.61773 0.69332 0.93604 0.0
H199 H 0.61664 0.69561 0.07606 0.0
C200 C 0.73529 0.71966 0.10415 0.0
N201 N 0.71009 0.7106 0.10481 0.0
C202 C 0.74629 0.73112 0.14205 0.0
C203 C 0.70492 0.72445 0.18018 0.0
C204 C 0.69476 0.71308 0.14159 0.0
C205 C 0.7311 0.73351 0.1809 0.0
H206 H 0.74693 0.71773 0.07425 0.0
H207 H 0.67457 0.70633 0.14094 0.0
C208 C 0.66846 0.6594 0.91591 0.0
N209 N 0.66507 0.64861 0.82613 0.0
C210 C 0.6741 0.6341 0.90002 0.0
C211 C 0.66096 0.67918 0.8861 0.0
C212 C 0.6723 0.62905 0.85452 0.0
C213 C 0.65941 0.67335 0.84085 0.0
C214 C 0.74598 0.66396 0.01481 0.0
C215 C 0.75849 0.65655 0.9754 0.0
C216 C 0.75905 0.66033 0.05527 0.0
C217 C 0.78354 0.64509 0.97711 0.0
C218 C 0.78411 0.64884 0.05562 0.0
N219 N 0.79573 0.64149 0.01686 0.0
C220 C 0.71799 0.73336 0.91574 0.0
C221 C 0.72248 0.69104 0.88315 0.0
C222 C 0.72895 0.7452 0.87818 0.0
N223 N 0.7147 0.70677 0.91737 0.0
C224 C 0.73328 0.70205 0.84483 0.0
C225 C 0.73648 0.72949 0.84189 0.0
H226 H 0.71179 0.74543 0.94346 0.0
H227 H 0.71991 0.66993 0.8852 0.0
C228 C 0.67568 0.60045 0.0363 0.0
N229 N 0.6944 0.61433 0.0141 0.0
C230 C 0.67655 0.57298 0.03737 0.0
C231 C 0.71545 0.57426 0.99124 0.0
C232 C 0.71406 0.60182 0.99171 0.0
C233 C 0.69642 0.55939 0.01413 0.0
H234 H 0.65976 0.6107 0.05278 0.0
H235 H 0.72812 0.6131 0.97284 0.0
O236 O 0.68061 0.71887 1.00828 0.0
O237 O 0.66789 0.66738 0.06204 0.0
O238 O 0.67025 0.66466 0.9604 0.0
O239 O 0.72158 0.67565 0.01364 0.0
H240 H 0.65831 0.7394 0.07977 0.0
H241 H 0.6594 0.74084 0.93694 0.0
H242 H 0.62246 0.77279 0.07873 0.0
H243 H 0.62347 0.77413 0.93835 0.0
H244 H 0.71696 0.62136 0.16206 0.0
H245 H 0.63182 0.66329 0.1254 0.0
H246 H 0.71115 0.64275 0.08876 0.0
H247 H 0.63881 0.64133 0.19791 0.0
H248 H 0.56832 0.6997 0.0764 0.0
H249 H 0.56985 0.69903 0.93272 0.0
H250 H 0.7666 0.73764 0.14112 0.0
H251 H 0.69229 0.72639 0.20897 0.0
H252 H 0.67971 0.61849 0.92254 0.0
H253 H 0.65702 0.699 0.8976 0.0
H254 H 0.67663 0.60956 0.8418 0.0
H255 H 0.65386 0.68854 0.81742 0.0
H256 H 0.74884 0.65924 0.94383 0.0
H257 H 0.7501 0.66643 0.08617 0.0
H258 H 0.7933 0.63907 0.94681 0.0
H259 H 0.79436 0.64584 0.08671 0.0
H260 H 0.73097 0.76646 0.87715 0.0
H261 H 0.73917 0.6892 0.81784 0.0
H262 H 0.66163 0.56255 0.05605 0.0
H263 H 0.73079 0.56477 0.97198 0.0
Li264 Li 0.32532 0.65734 1.0066 0.0
Li265 Li 0.31768 0.69772 0.05237 0.0
Li266 Li 0.3163 0.69813 0.96794 0.0
Li267 Li 0.35767 0.69295 1.00693 0.0
C268 C 0.27466 0.65998 0.01625 0.0
N269 N 0.23995 0.6187 0.02838 0.0
C270 C 0.26712 0.65257 0.05906 0.0
C271 C 0.26451 0.64647 0.9796 0.0
C272 C 0.24953 0.63164 0.0645 0.0
C273 C 0.247 0.62563 0.98643 0.0
C274 C 0.36908 0.66475 0.07791 0.0
C275 C 0.40705 0.6776 0.12105 0.0
N276 N 0.41781 0.65333 0.11437 0.0
C277 C 0.38054 0.63993 0.07145 0.0
C278 C 0.38243 0.68374 0.10295 0.0
C279 C 0.40517 0.63453 0.0902 0.0
C280 C 0.32116 0.6065 0.9674 0.0
N281 N 0.32074 0.61987 1.00648 0.0
C282 C 0.316 0.57953 0.04684 0.0
C283 C 0.31793 0.60703 0.0458 0.0
C284 C 0.31673 0.56508 1.00694 0.0
C285 C 0.31893 0.57907 0.96682 0.0
H286 H 0.32352 0.61706 0.93664 0.0
H287 H 0.3178 0.61816 0.07645 0.0
C288 C 0.27793 0.72287 0.10271 0.0
N289 N 0.30195 0.71107 0.10535 0.0
C290 C 0.26588 0.733 0.14084 0.0
C291 C 0.30367 0.7189 0.18356 0.0
C292 C 0.31469 0.70856 0.1448 0.0
C293 C 0.27886 0.73138 0.18211 0.0
H294 H 0.26807 0.72427 0.07095 0.0
H295 H 0.3336 0.69879 0.14616 0.0
C296 C 0.34737 0.67324 0.91092 0.0
N297 N 0.35193 0.67656 0.81964 0.0
C298 C 0.36951 0.68507 0.89182 0.0
C299 C 0.32756 0.6631 0.88351 0.0
C300 C 0.37146 0.68652 0.84563 0.0
C301 C 0.33021 0.665 0.83748 0.0
C302 C 0.34489 0.74709 0.019 0.0
C303 C 0.35182 0.76421 0.98459 0.0
C304 C 0.34974 0.75446 0.06298 0.0
C305 C 0.36372 0.78831 0.99473 0.0
C306 C 0.36165 0.77874 0.07177 0.0
N307 N 0.36835 0.79502 0.03775 0.0
C308 C 0.27333 0.71137 0.91079 0.0
C309 C 0.31496 0.72768 0.88823 0.0
C310 C 0.26143 0.722 0.87288 0.0
N311 N 0.2997 0.71416 0.91748 0.0
C312 C 0.30398 0.73838 0.84978 0.0
C313 C 0.27689 0.73548 0.84154 0.0
H314 H 0.26158 0.70069 0.93467 0.0
H315 H 0.33584 0.72972 0.89429 0.0
C316 C 0.40908 0.67663 0.99192 0.0
N317 N 0.39527 0.69836 1.00465 0.0
C318 C 0.43657 0.67696 0.99111 0.0
C319 C 0.43538 0.72231 0.0155 0.0
C320 C 0.40787 0.721 0.01635 0.0
C321 C 0.45018 0.70004 1.00298 0.0
H322 H 0.39865 0.6588 0.98306 0.0
H323 H 0.39684 0.73801 0.02688 0.0
O324 O 0.29247 0.67988 0.01033 0.0
O325 O 0.34527 0.67063 0.05888 0.0
O326 O 0.34502 0.67179 0.95613 0.0
O327 O 0.33292 0.72356 0.00972 0.0
H328 H 0.27499 0.66266 0.0878 0.0
H329 H 0.27032 0.65183 0.94626 0.0
H330 H 0.24361 0.6256 0.09744 0.0
H331 H 0.23909 0.6149 0.95839 0.0
H332 H 0.41768 0.69219 0.14017 0.0
H333 H 0.37075 0.62511 0.05163 0.0
H334 H 0.37418 0.70324 0.10752 0.0
H335 H 0.4143 0.61545 0.08531 0.0
H336 H 0.31471 0.56973 0.07866 0.0
H337 H 0.31905 0.56898 0.93514 0.0
H338 H 0.2465 0.74179 0.13787 0.0
H339 H 0.31477 0.71743 0.21414 0.0
H340 H 0.38491 0.69332 0.91234 0.0
H341 H 0.31 0.65441 0.8976 0.0
H342 H 0.38845 0.69569 0.83044 0.0
H343 H 0.31492 0.65743 0.81593 0.0
H344 H 0.34815 0.75897 0.95041 0.0
H345 H 0.34465 0.74153 0.09005 0.0
H346 H 0.36927 0.80169 0.9684 0.0
H347 H 0.36561 0.78462 0.10565 0.0
H348 H 0.24049 0.71924 0.8677 0.0
H349 H 0.31655 0.74893 0.82682 0.0
H350 H 0.44699 0.65909 0.98207 0.0
H351 H 0.44491 0.74066 0.02442 0.0
Li352 Li 0.81486 0.8145 0.55354 0.0
Li353 Li 0.8549 0.82147 0.50882 0.0
Li354 Li 0.81927 0.85628 0.51368 0.0
Li355 Li 0.81286 0.81609 0.46954 0.0
C356 C 0.847 0.84525 0.60553 0.0
N357 N 0.85582 0.8515 0.69549 0.0
C358 C 0.87087 0.83714 0.62432 0.0
C359 C 0.82779 0.85693 0.63243 0.0
C360 C 0.87492 0.84037 0.66988 0.0
C361 C 0.83256 0.8598 0.67784 0.0
C362 C 0.84661 0.76807 0.50721 0.0
C363 C 0.87292 0.73702 0.46556 0.0
N364 N 0.87806 0.7235 0.50357 0.0
C365 C 0.85186 0.75364 0.54575 0.0
C366 C 0.85696 0.7595 0.46668 0.0
C367 C 0.86791 0.73126 0.54328 0.0
C368 C 0.7744 0.79457 0.60852 0.0
N369 N 0.8009 0.79828 0.60582 0.0
C370 C 0.80694 0.77982 0.67816 0.0
C371 C 0.81721 0.79082 0.63941 0.0
C372 C 0.77963 0.77604 0.68212 0.0
C373 C 0.76329 0.78339 0.64654 0.0
H374 H 0.76187 0.80039 0.58118 0.0
H375 H 0.83825 0.7933 0.63615 0.0
C376 C 0.90572 0.83284 0.47791 0.0
N377 N 0.89225 0.8167 0.5058 0.0
C378 C 0.93317 0.83183 0.47596 0.0
C379 C 0.93262 0.79777 0.53198 0.0
C380 C 0.90509 0.79928 0.53251 0.0
C381 C 0.94708 0.81441 0.50373 0.0
H382 H 0.8952 0.84699 0.45778 0.0
H383 H 0.89408 0.78725 0.55549 0.0
C384 C 0.76694 0.84838 0.51708 0.0
N385 N 0.72407 0.88195 0.52295 0.0
C386 C 0.75266 0.85505 0.47902 0.0
C387 C 0.75911 0.85841 0.55824 0.0
C388 C 0.73113 0.87215 0.48263 0.0
C389 C 0.73748 0.87545 0.5605 0.0
C390 C 0.84444 0.84661 0.41671 0.0
C391 C 0.83558 0.86886 0.39368 0.0
C392 C 0.85831 0.82695 0.394 0.0
C393 C 0.84024 0.87077 0.34809 0.0
C394 C 0.86258 0.82957 0.34842 0.0
N395 N 0.85349 0.85123 0.32657 0.0
C396 C 0.82704 0.90717 0.54808 0.0
C397 C 0.79866 0.90632 0.48568 0.0
C398 C 0.82569 0.93462 0.54976 0.0
N399 N 0.81372 0.89359 0.51632 0.0
C400 C 0.797 0.93387 0.48578 0.0
C401 C 0.81098 0.94845 0.51778 0.0
H402 H 0.83935 0.8968 0.57148 0.0
H403 H 0.78866 0.89517 0.46018 0.0
C404 C 0.79459 0.77488 0.41436 0.0
N405 N 0.7969 0.80152 0.41751 0.0
C406 C 0.78385 0.76338 0.37628 0.0
C407 C 0.77745 0.80698 0.34575 0.0
C408 C 0.78833 0.81761 0.38439 0.0
C409 C 0.77521 0.77948 0.34117 0.0
H410 H 0.80121 0.7625 0.44136 0.0
H411 H 0.78988 0.83875 0.38794 0.0
O412 O 0.84259 0.842 0.56101 0.0
O413 O 0.83097 0.79009 0.50906 0.0
O414 O 0.78823 0.83184 0.51412 0.0
O415 O 0.83978 0.84423 0.4613 0.0
H416 H 0.88611 0.82839 0.60403 0.0
H417 H 0.80943 0.86377 0.61837 0.0
H418 H 0.89325 0.83404 0.68487 0.0
H419 H 0.81779 0.86868 0.69904 0.0
H420 H 0.88113 0.73025 0.43442 0.0
H421 H 0.84378 0.75972 0.57728 0.0
H422 H 0.85252 0.7699 0.43632 0.0
H423 H 0.87229 0.72005 0.57293 0.0
H424 H 0.82027 0.77398 0.70449 0.0
H425 H 0.74211 0.78089 0.64833 0.0
H426 H 0.94336 0.84481 0.45322 0.0
H427 H 0.94244 0.78439 0.55461 0.0
H428 H 0.75823 0.84727 0.44698 0.0
H429 H 0.7695 0.85297 0.58817 0.0
H430 H 0.72004 0.87764 0.45337 0.0
H431 H 0.73129 0.88345 0.59214 0.0
H432 H 0.82513 0.88443 0.41071 0.0
H433 H 0.86589 0.80997 0.41146 0.0
H434 H 0.83333 0.88779 0.32982 0.0
H435 H 0.87319 0.81443 0.33045 0.0
H436 H 0.83646 0.94488 0.57554 0.0
H437 H 0.78572 0.9436 0.46002 0.0
H438 H 0.78271 0.74209 0.37414 0.0
H439 H 0.7706 0.82019 0.31997 0.0
Li440 Li 0.18943 0.85671 0.50735 0.0
Li441 Li 0.1954 0.81698 0.55225 0.0
Li442 Li 0.1949 0.81541 0.4678 0.0
Li443 Li 0.15384 0.82302 0.50983 0.0
C444 C 0.24003 0.85126 0.51045 0.0
N445 N 0.27776 0.89041 0.51409 0.0
C446 C 0.2495 0.86002 0.55144 0.0
C447 C 0.24988 0.86223 0.4713 0.0
C448 C 0.26855 0.87987 0.55259 0.0
C449 C 0.26891 0.88205 0.47385 0.0
C450 C 0.15558 0.84352 0.5994 0.0
C451 C 0.12977 0.81901 0.65239 0.0
N452 N 0.12994 0.84018 0.68013 0.0
C453 C 0.1553 0.86513 0.62826 0.0
C454 C 0.14257 0.82035 0.61142 0.0
C455 C 0.14231 0.86302 0.66899 0.0
C456 C 0.19275 0.90738 0.46758 0.0
N457 N 0.19552 0.89398 0.50633 0.0
C458 C 0.20306 0.93428 0.54572 0.0
C459 C 0.20095 0.90678 0.54494 0.0
C460 C 0.19958 0.94875 0.50631 0.0
C461 C 0.1949 0.93481 0.46673 0.0
H462 H 0.18829 0.89691 0.4374 0.0
H463 H 0.2031 0.89564 0.57532 0.0
C464 C 0.22084 0.77754 0.60299 0.0
N465 N 0.2107 0.80237 0.60472 0.0
C466 C 0.23161 0.76595 0.641 0.0
C467 C 0.2217 0.80585 0.6817 0.0
C468 C 0.2113 0.81672 0.64286 0.0
C469 C 0.23195 0.78009 0.68114 0.0
H470 H 0.22035 0.76666 0.5721 0.0
H471 H 0.20384 0.83668 0.64315 0.0
C472 C 0.16271 0.84483 0.41382 0.0
N473 N 0.15324 0.84782 0.3236 0.0
C474 C 0.13798 0.83811 0.39679 0.0
C475 C 0.18259 0.85321 0.38495 0.0
C476 C 0.13359 0.83973 0.35108 0.0
C477 C 0.17743 0.85454 0.33946 0.0
C478 C 0.1662 0.76722 0.51376 0.0
C479 C 0.16027 0.75344 0.47484 0.0
C480 C 0.16135 0.75541 0.55489 0.0
C481 C 0.14899 0.72838 0.47766 0.0
C482 C 0.15007 0.73031 0.55635 0.0
N483 N 0.14414 0.71743 0.51802 0.0
C484 C 0.23625 0.7945 0.41528 0.0
C485 C 0.19399 0.79085 0.38226 0.0
C486 C 0.24799 0.78296 0.378 0.0
N487 N 0.20972 0.79842 0.41659 0.0
C488 C 0.20495 0.77981 0.34402 0.0
C489 C 0.23226 0.77583 0.34159 0.0
H490 H 0.24831 0.80051 0.44311 0.0
H491 H 0.17291 0.79362 0.38427 0.0
C492 C 0.10213 0.83832 0.52936 0.0
N493 N 0.11639 0.81871 0.51004 0.0
C494 C 0.07466 0.83731 0.52973 0.0
C495 C 0.07683 0.79624 0.48918 0.0
C496 C 0.10434 0.79794 0.48998 0.0
C497 C 0.06158 0.81618 0.50911 0.0
H498 H 0.11211 0.85496 0.54421 0.0
H499 H 0.11596 0.78306 0.47348 0.0
O500 O 0.22085 0.8324 0.50871 0.0
O501 O 0.16842 0.84521 0.55954 0.0
O502 O 0.16736 0.8432 0.45849 0.0
O503 O 0.17764 0.79166 0.51155 0.0
H504 H 0.24199 0.85178 0.58204 0.0
H505 H 0.2428 0.85558 0.43932 0.0
H506 H 0.27595 0.88697 0.58408 0.0
H507 H 0.27663 0.89082 0.44383 0.0
H508 H 0.11962 0.80116 0.66205 0.0
H509 H 0.16507 0.88332 0.6194 0.0
H510 H 0.14203 0.80375 0.58907 0.0
H511 H 0.14205 0.87954 0.69173 0.0
H512 H 0.20646 0.9441 0.57712 0.0
H513 H 0.19258 0.94498 0.43538 0.0
H514 H 0.23922 0.746 0.63914 0.0
H515 H 0.22206 0.81762 0.7117 0.0
H516 H 0.12232 0.83174 0.41859 0.0
H517 H 0.20193 0.85821 0.39745 0.0
H518 H 0.11455 0.83455 0.33746 0.0
H519 H 0.19269 0.86081 0.31674 0.0
H520 H 0.16402 0.76209 0.44275 0.0
H521 H 0.1664 0.76535 0.58547 0.0
H522 H 0.1441 0.71763 0.44775 0.0
H523 H 0.14613 0.72101 0.58797 0.0
H524 H 0.26917 0.78017 0.3772 0.0
H525 H 0.19219 0.77425 0.31674 0.0
H526 H 0.06383 0.853 0.54599 0.0
H527 H 0.06766 0.77987 0.47206 0.0
Li528 Li 0.19729 0.1955 0.55531 0.0
Li529 Li 0.15555 0.1888 0.5166 0.0
Li530 Li 0.18917 0.15574 0.51222 0.0
Li531 Li 0.1949 0.19782 0.47349 0.0
C532 C 0.1739 0.14751 0.59469 0.0
N533 N 0.18169 0.10474 0.65002 0.0
C534 C 0.15239 0.13275 0.60948 0.0
C535 C 0.19937 0.14059 0.60822 0.0
C536 C 0.15674 0.11118 0.63741 0.0
C537 C 0.2029 0.11889 0.63614 0.0
C538 C 0.16731 0.24078 0.54374 0.0
C539 C 0.15988 0.28677 0.56002 0.0
N540 N 0.14688 0.27985 0.59773 0.0
C541 C 0.1539 0.23411 0.58268 0.0
C542 C 0.17038 0.26729 0.53231 0.0
C543 C 0.14371 0.25416 0.60952 0.0
C544 C 0.23251 0.22851 0.60338 0.0
N545 N 0.21289 0.21043 0.60747 0.0
C546 C 0.21412 0.21424 0.68661 0.0
C547 C 0.20337 0.20345 0.64801 0.0
C548 C 0.23439 0.23292 0.68347 0.0
C549 C 0.2435 0.24022 0.64119 0.0
H550 H 0.23946 0.23397 0.57071 0.0
H551 H 0.18721 0.1897 0.65049 0.0
C552 C 0.10354 0.17153 0.52682 0.0
N553 N 0.11812 0.19338 0.51818 0.0
C554 C 0.07606 0.17287 0.52686 0.0
C555 C 0.07899 0.21911 0.50809 0.0
C556 C 0.10647 0.21689 0.50856 0.0
C557 C 0.06341 0.19691 0.51747 0.0
H558 H 0.11332 0.1529 0.53272 0.0
H559 H 0.11845 0.23383 0.50058 0.0
C560 C 0.24103 0.16906 0.48515 0.0
N561 N 0.28082 0.15011 0.43118 0.0
C562 C 0.23488 0.1555 0.44607 0.0
C563 C 0.2674 0.17304 0.49671 0.0
C564 C 0.25528 0.14606 0.41925 0.0
C565 C 0.28724 0.16328 0.46901 0.0
C566 C 0.14706 0.17262 0.43503 0.0
C567 C 0.13157 0.15069 0.4247 0.0
C568 C 0.14023 0.19739 0.41811 0.0
C569 C 0.10937 0.15394 0.39774 0.0
C570 C 0.11789 0.19982 0.39127 0.0
N571 N 0.10304 0.17823 0.38176 0.0
C572 C 0.17139 0.10395 0.50724 0.0
C573 C 0.21783 0.10625 0.51452 0.0
C574 C 0.17233 0.07645 0.50681 0.0
N575 N 0.19392 0.11824 0.5105 0.0
C576 C 0.21972 0.07872 0.5139 0.0
C577 C 0.19675 0.0634 0.50973 0.0
H578 H 0.15259 0.11399 0.50579 0.0
H579 H 0.23544 0.11795 0.51857 0.0
C580 C 0.2243 0.23582 0.42478 0.0
N581 N 0.20902 0.21391 0.42125 0.0
C582 C 0.23499 0.24748 0.38674 0.0
C583 C 0.21386 0.21393 0.34226 0.0
C584 C 0.20387 0.20276 0.38111 0.0
C585 C 0.22966 0.23658 0.34475 0.0
H586 H 0.22821 0.24419 0.45717 0.0
H587 H 0.1921 0.18505 0.3792 0.0
O588 O 0.17021 0.16822 0.56622 0.0
O589 O 0.17775 0.22158 0.51704 0.0
O590 O 0.22146 0.17885 0.51173 0.0
O591 O 0.16839 0.17006 0.46252 0.0
H592 H 0.13254 0.13785 0.59956 0.0
H593 H 0.21627 0.15167 0.59677 0.0
H594 H 0.14028 0.09955 0.64904 0.0
H595 H 0.22251 0.11322 0.64664 0.0
H596 H 0.16209 0.30738 0.55158 0.0
H597 H 0.15132 0.21371 0.59212 0.0
H598 H 0.18079 0.27275 0.50233 0.0
H599 H 0.13328 0.24929 0.63972 0.0
H600 H 0.20628 0.20846 0.71859 0.0
H601 H 0.25911 0.2546 0.63749 0.0
H602 H 0.06484 0.15512 0.53324 0.0
H603 H 0.07006 0.23803 0.50071 0.0
H604 H 0.2146 0.15218 0.43658 0.0
H605 H 0.27246 0.1836 0.52677 0.0
H606 H 0.25081 0.13551 0.38895 0.0
H607 H 0.30775 0.16621 0.47757 0.0
H608 H 0.13656 0.13138 0.43737 0.0
H609 H 0.15181 0.21464 0.42626 0.0
H610 H 0.09716 0.13716 0.38958 0.0
H611 H 0.11229 0.21889 0.37821 0.0
H612 H 0.15402 0.06555 0.50485 0.0
H613 H 0.23898 0.06959 0.5162 0.0
H614 H 0.24701 0.26501 0.39006 0.0
H615 H 0.20962 0.20467 0.31065 0.0
Li616 Li 0.81643 0.19739 0.54895 0.0
Li617 Li 0.82319 0.15469 0.50692 0.0
Li618 Li 0.85686 0.19143 0.50819 0.0
Li619 Li 0.81701 0.1967 0.46868 0.0
C620 C 0.84323 0.16432 0.60264 0.0
N621 N 0.84115 0.15431 0.69278 0.0
C622 C 0.83463 0.13981 0.61812 0.0
C623 C 0.85097 0.18366 0.63308 0.0
C624 C 0.83369 0.13514 0.6638 0.0
C625 C 0.8497 0.17825 0.67849 0.0
C626 C 0.76769 0.18461 0.49474 0.0
C627 C 0.72737 0.17406 0.45629 0.0
N628 N 0.71872 0.19917 0.46291 0.0
C629 C 0.75839 0.21027 0.50136 0.0
C630 C 0.75207 0.16629 0.47219 0.0
C631 C 0.73358 0.21727 0.48493 0.0
C632 C 0.7988 0.23789 0.60728 0.0
N633 N 0.79918 0.21139 0.60033 0.0
C634 C 0.77533 0.20406 0.66766 0.0
C635 C 0.78718 0.19453 0.62898 0.0
C636 C 0.77529 0.23129 0.6764 0.0
C637 C 0.78696 0.24831 0.64533 0.0
H638 H 0.80769 0.25096 0.58329 0.0
H639 H 0.78705 0.17361 0.622 0.0
C640 C 0.83944 0.10279 0.49424 0.0
N641 N 0.81853 0.11764 0.50729 0.0
C642 C 0.83792 0.07534 0.4949 0.0
C643 C 0.79341 0.07891 0.52301 0.0
C644 C 0.79571 0.10639 0.52136 0.0
C645 C 0.81479 0.06296 0.5099 0.0
H646 H 0.85733 0.11237 0.48328 0.0
H647 H 0.77952 0.11876 0.53209 0.0
C648 C 0.85349 0.24101 0.50978 0.0
N649 N 0.89563 0.27551 0.51217 0.0
C650 C 0.86543 0.24928 0.47036 0.0
C651 C 0.86299 0.25036 0.55042 0.0
C652 C 0.88671 0.2667 0.47226 0.0
C653 C 0.88429 0.26779 0.55093 0.0
C654 C 0.84284 0.16604 0.41246 0.0
C655 C 0.85285 0.18518 0.38365 0.0
C656 C 0.83087 0.14348 0.39495 0.0
C657 C 0.85056 0.18152 0.33785 0.0
C658 C 0.82902 0.14052 0.34895 0.0
N659 N 0.83879 0.15945 0.32159 0.0
C660 C 0.90658 0.20049 0.54908 0.0
C661 C 0.90848 0.19443 0.47122 0.0
C662 C 0.93401 0.20242 0.55138 0.0
N663 N 0.8944 0.19646 0.50946 0.0
C664 C 0.93597 0.19629 0.47194 0.0
C665 C 0.94912 0.20002 0.51251 0.0
H666 H 0.89507 0.20191 0.57904 0.0
H667 H 0.89847 0.19076 0.44024 0.0
C668 C 0.80153 0.23784 0.40987 0.0
N669 N 0.80001 0.21143 0.41715 0.0
C670 C 0.79018 0.24895 0.37195 0.0
C671 C 0.77501 0.20564 0.35049 0.0
C672 C 0.78666 0.19539 0.38878 0.0
C673 C 0.77691 0.23274 0.3414 0.0
H674 H 0.81152 0.25034 0.43353 0.0
H675 H 0.78525 0.17453 0.39563 0.0
O676 O 0.84411 0.16926 0.55797 0.0
O677 O 0.79215 0.17757 0.50966 0.0
O678 O 0.83312 0.22333 0.50862 0.0
O679 O 0.84471 0.16934 0.45749 0.0
H680 H 0.82874 0.12452 0.59521 0.0
H681 H 0.85727 0.20287 0.6219 0.0
H682 H 0.82701 0.11628 0.6762 0.0
H683 H 0.85537 0.19314 0.70237 0.0
H684 H 0.71511 0.16014 0.43856 0.0
H685 H 0.77034 0.22471 0.51851 0.0
H686 H 0.7591 0.14638 0.4666 0.0
H687 H 0.72617 0.2371 0.48957 0.0
H688 H 0.76609 0.1903 0.69027 0.0
H689 H 0.78734 0.26943 0.65072 0.0
H690 H 0.85474 0.06398 0.48364 0.0
H691 H 0.77533 0.0703 0.53538 0.0
H692 H 0.85854 0.24214 0.43863 0.0
H693 H 0.85432 0.24395 0.58132 0.0
H694 H 0.89619 0.27314 0.44201 0.0
H695 H 0.89191 0.27505 0.58216 0.0
H696 H 0.86194 0.20287 0.39643 0.0
H697 H 0.82272 0.12858 0.41654 0.0
H698 H 0.85805 0.19628 0.31524 0.0
H699 H 0.81968 0.12323 0.335 0.0
H700 H 0.94328 0.2056 0.58331 0.0
H701 H 0.94683 0.19395 0.44124 0.0
H702 H 0.79162 0.27004 0.3668 0.0
H703 H 0.7651 0.19236 0.32784 0.0
C704 C 0.30116 0.49412 0.03921 0.0
C705 C 0.31606 0.47968 1.00813 0.0
H706 H 0.28914 0.53213 0.06271 0.0
C707 C 0.3308 0.49362 0.97636 0.0
H708 H 0.2898 0.48414 0.06454 0.0
C709 C 0.33098 0.52116 0.97606 0.0
C710 C 0.31612 0.53565 1.00712 0.0
H711 H 0.3422 0.48328 0.95142 0.0
H712 H 0.34316 0.53106 0.95174 0.0
C713 C 0.30109 0.52173 0.03858 0.0
C714 C 0.49017 0.33364 0.03478 0.0
C715 C 0.47535 0.31298 0.01621 0.0
H716 H 0.52829 0.34934 0.04868 0.0
C717 C 0.48886 0.29113 0.99833 0.0
H718 H 0.48054 0.35061 0.04949 0.0
C719 C 0.51644 0.29008 0.99891 0.0
C720 C 0.53122 0.3109 0.01717 0.0
H721 H 0.47816 0.27496 0.98331 0.0
H722 H 0.52616 0.27285 0.98526 0.0
C723 C 0.51767 0.3327 0.035 0.0
C724 C 0.67248 0.48847 0.01024 0.0
C725 C 0.69621 0.47408 1.00891 0.0
H726 H 0.65389 0.5262 0.0114 0.0
C727 C 0.72016 0.48804 1.00957 0.0
H728 H 0.65361 0.47854 0.01067 0.0
C729 C 0.72033 0.51564 0.0115 0.0
C730 C 0.69654 0.52999 0.01246 0.0
H731 H 0.73884 0.4777 1.00815 0.0
H732 H 0.73914 0.52569 0.01262 0.0
C733 C 0.67264 0.51597 0.01155 0.0
C734 C 0.49361 0.71488 0.03509 0.0
C735 C 0.47955 0.70069 1.00267 0.0
H736 H 0.53131 0.7262 0.06056 0.0
C737 C 0.49383 0.68668 0.97029 0.0
H738 H 0.48335 0.72566 0.06089 0.0
C739 C 0.52135 0.68643 0.97081 0.0
C740 C 0.53545 0.70047 1.00336 0.0
H741 H 0.48377 0.67585 0.94436 0.0
H742 H 0.53153 0.67476 0.94603 0.0
C743 C 0.52119 0.71487 0.03531 0.0
C744 C 0.83479 0.99149 0.52692 0.0
C745 C 0.81147 0.97784 0.51656 0.0
H746 H 0.85392 0.02869 0.53417 0.0
C747 C 0.78901 0.99249 0.50438 0.0
H748 H 0.85264 0.98097 0.53571 0.0
C749 C 0.78996 0.02008 0.50237 0.0
C750 C 0.81336 0.03366 0.51263 0.0
H751 H 0.77064 0.98269 0.49657 0.0
H752 H 0.77245 0.03071 0.49212 0.0
C753 C 0.83567 0.01897 0.52529 0.0
C754 C 0.01847 0.79152 0.51154 0.0
C755 C 0.03225 0.81545 0.50738 0.0
H756 H 0.98092 0.77228 0.51299 0.0
C757 C 0.01776 0.83887 0.50155 0.0
H758 H 0.02896 0.77313 0.51647 0.0
C759 C 0.99026 0.83845 0.50042 0.0
C760 C 0.97643 0.81456 0.50457 0.0
H761 H 0.02764 0.85763 0.49751 0.0
H762 H 0.97986 0.857 0.49686 0.0
C763 C 0.99089 0.79107 0.51009 0.0
C764 C 0.18108 0.01975 0.48048 0.0
C765 C 0.19809 0.03404 0.50837 0.0
H766 H 0.16782 0.98198 0.45861 0.0
C767 C 0.21605 0.02003 0.53511 0.0
H768 H 0.16725 0.02982 0.45894 0.0
C769 C 0.21678 0.99242 0.53422 0.0
C770 C 0.19954 0.97815 0.50663 0.0
H771 H 0.22927 0.03036 0.55733 0.0
H772 H 0.23094 0.98228 0.55505 0.0
C773 C 0.18171 0.99222 0.47978 0.0
C774 C 0.99335 0.21331 0.48208 0.0
C775 C 0.97841 0.20018 0.51456 0.0
H776 H 0.03186 0.22253 0.45743 0.0
C777 C 0.99168 0.18652 0.5485 0.0
H778 H 0.98372 0.22417 0.45569 0.0
C779 C 0.0192 0.18571 0.54964 0.0
C780 C 0.03415 0.19859 0.51694 0.0
H781 H 0.98079 0.17595 0.57375 0.0
H782 H 0.0288 0.17498 0.57623 0.0
C783 C 0.02092 0.21258 0.48333 0.0
C784 C 0.26727 0.25605 0.30175 0.0
C785 C 0.24067 0.24855 0.30374 0.0
H786 H 0.29852 0.27176 0.26232 0.0
C787 C 0.22472 0.25222 0.26607 0.0
H788 H 0.28014 0.25309 0.33002 0.0
C789 C 0.23511 0.26332 0.22733 0.0
C790 C 0.26181 0.27077 0.22513 0.0
H791 H 0.20406 0.24687 0.26677 0.0
H792 H 0.22206 0.26641 0.19936 0.0
C793 C 0.27776 0.26685 0.26287 0.0
C794 C 0.73009 0.24562 0.24521 0.0
C795 C 0.74377 0.26491 0.2209 0.0
H796 H 0.72953 0.22072 0.30256 0.0
C797 C 0.76835 0.27362 0.23671 0.0
H798 H 0.71092 0.23879 0.23438 0.0
C799 C 0.77901 0.26328 0.27582 0.0
C800 C 0.76535 0.24397 0.30011 0.0
H801 H 0.7796 0.28815 0.21847 0.0
H802 H 0.7982 0.2701 0.28661 0.0
C803 C 0.74075 0.23528 0.28433 0.0
C804 C 0.74712 0.74571 0.30243 0.0
C805 C 0.76392 0.7677 0.30009 0.0
H806 H 0.72391 0.71753 0.26688 0.0
C807 C 0.76987 0.77833 0.25817 0.0
H808 H 0.74189 0.73717 0.33416 0.0
C809 C 0.75926 0.76728 0.21958 0.0
C810 C 0.74244 0.7453 0.22193 0.0
H811 H 0.78297 0.79507 0.25508 0.0
H812 H 0.76402 0.77616 0.18791 0.0
C813 C 0.73654 0.73464 0.26385 0.0
C814 C 0.23923 0.77588 0.25944 0.0
C815 C 0.24423 0.76449 0.30103 0.0
H816 H 0.2469 0.77518 0.1898 0.0
C817 C 0.26053 0.74217 0.30358 0.0
H818 H 0.22689 0.79328 0.25674 0.0
C819 C 0.27143 0.73122 0.26509 0.0
C820 C 0.26676 0.74271 0.2232 0.0
H821 H 0.26443 0.73289 0.3353 0.0
H822 H 0.28324 0.71352 0.26831 0.0
C823 C 0.25057 0.76531 0.22104 0.0
C824 C 0.23024 0.77112 0.76314 0.0
C825 C 0.24315 0.76818 0.72212 0.0
H826 H 0.23071 0.76306 0.83297 0.0
C827 C 0.26698 0.75401 0.7206 0.0
H828 H 0.21172 0.78172 0.7653 0.0
C829 C 0.27783 0.74333 0.7593 0.0
C830 C 0.265 0.74639 0.80036 0.0
H831 H 0.2775 0.75156 0.68959 0.0
H832 H 0.29623 0.73253 0.75705 0.0
C833 C 0.24098 0.76023 0.8018 0.0
C834 C 0.26433 0.24017 0.79824 0.0
C835 C 0.26611 0.26777 0.80284 0.0
H836 H 0.25291 0.20762 0.75701 0.0
C837 C 0.25741 0.28371 0.76736 0.0
H838 H 0.27126 0.22715 0.82421 0.0
C839 C 0.24755 0.27239 0.72839 0.0
C840 C 0.24563 0.2449 0.72421 0.0
H841 H 0.25783 0.305 0.76977 0.0
H842 H 0.24088 0.28518 0.70184 0.0
C843 C 0.254 0.22891 0.75956 0.0
C844 C 0.75642 0.23948 0.79762 0.0
C845 C 0.74051 0.26221 0.79636 0.0
H846 H 0.77987 0.21193 0.76077 0.0
C847 C 0.73606 0.27463 0.75531 0.0
H848 H 0.76005 0.22934 0.82867 0.0
C849 C 0.74735 0.26463 0.71644 0.0
C850 C 0.76319 0.24186 0.71767 0.0
H851 H 0.7241 0.29232 0.75329 0.0
H852 H 0.74345 0.27459 0.68532 0.0
C853 C 0.76755 0.22936 0.75868 0.0
C854 C 0.73869 0.73331 0.75896 0.0
C855 C 0.74738 0.74162 0.80101 0.0
H856 H 0.74203 0.73769 0.68847 0.0
C857 C 0.76656 0.76152 0.80369 0.0
H858 H 0.72374 0.71818 0.75587 0.0
C859 C 0.77703 0.77268 0.76511 0.0
C860 C 0.76834 0.76435 0.72306 0.0
H861 H 0.77375 0.76821 0.83562 0.0
H862 H 0.79178 0.78799 0.76819 0.0
C863 C 0.74897 0.74464 0.7204 0.0
loop_
_geom_bond_atom_site_label_1
_geom_bond_atom_site_label_2
_geom_bond_distance
_geom_bond_site_symmetry_2
_ccdc_geom_bond_type
Li0 N17 1.990 . S
Li0 O60 1.956 . S
Li0 O61 1.981 . S
Li0 O62 1.954 1_554 S
Li1 N25 1.991 . S
Li1 O60 1.959 1_556 S
Li1 O61 1.956 1_556 S
Li1 O63 1.972 . S
Li2 N47 1.991 . S
Li2 O60 1.976 . S
Li2 O62 1.956 1_554 S
Li2 O63 1.955 1_554 S
Li3 N53 1.990 . S
Li3 O61 1.950 1_556 S
Li3 O62 1.977 . S
Li3 O63 1.956 . S
C4 C6 1.348 . S
C4 C7 1.356 . S
C4 O60 1.325 . S
N5 C8 1.314 . S
N5 C9 1.279 . S
C6 C4 1.348 . S
C6 C8 1.353 . S
C6 H64 0.929 . S
C7 C4 1.356 . S
C7 C9 1.358 . S
C7 H65 0.930 . S
C8 N5 1.314 . S
C8 C6 1.353 . S
C8 H66 0.930 . S
C9 N5 1.279 . S
C9 C7 1.358 . S
C9 H67 0.930 . S
C10 C13 1.345 . S
C10 C14 1.358 1_554 S
C10 O61 1.325 . S
C11 N12 1.279 . S
C11 C14 1.358 . S
C11 H68 0.930 . S
N12 C11 1.279 . S
N12 C15 1.314 1_556 S
C13 C10 1.345 . S
C13 C15 1.353 . S
C13 H69 0.929 . S
C14 C10 1.358 1_556 S
C14 C11 1.358 . S
C14 H70 0.930 . S
C15 N12 1.314 1_554 S
C15 C13 1.353 . S
C15 H71 0.930 . S
C16 N17 1.314 . S
C16 C21 1.353 . S
C16 H22 0.930 . S
N17 Li0 1.990 . S
N17 C16 1.314 . S
N17 C19 1.279 . S
C18 C19 1.358 . S
C18 C20 1.356 . S
C18 H72 0.930 . S
C19 N17 1.279 . S
C19 C18 1.358 . S
C19 H23 0.930 . S
C20 C18 1.356 . S
C20 C21 1.348 . S
C21 C16 1.353 . S
C21 C20 1.348 . S
C21 H73 0.929 . S
H22 C16 0.930 . S
H23 C19 0.930 . S
C24 N25 1.314 . S
C24 C26 1.353 . S
C24 H30 0.930 . S
N25 Li1 1.991 . S
N25 C24 1.314 . S
N25 C28 1.279 1_556 S
C26 C24 1.353 . S
C26 C29 1.346 1_556 S
C26 H74 0.929 . S
C27 C28 1.358 . S
C27 C29 1.357 . S
C27 H75 0.930 . S
C28 N25 1.279 1_554 S
C28 C27 1.358 . S
C28 H31 0.930 . S
C29 C26 1.346 1_554 S
C29 C27 1.357 . S
H30 C24 0.930 . S
H31 C28 0.930 . S
C32 C34 1.345 1_554 S
C32 C35 1.358 . S
C32 O62 1.325 1_554 S
N33 C36 1.314 1_554 S
N33 C37 1.279 . S
C34 C32 1.345 1_556 S
C34 C36 1.353 . S
C34 H76 0.929 . S
C35 C32 1.358 . S
C35 C37 1.358 . S
C35 H77 0.930 . S
C36 N33 1.314 1_556 S
C36 C34 1.353 . S
C36 H78 0.930 . S
C37 N33 1.279 . S
C37 C35 1.358 . S
C37 H79 0.930 . S
C38 C39 1.348 . S
C38 C40 1.356 . S
C38 O63 1.325 . S
C39 C38 1.348 . S
C39 C41 1.353 . S
C39 H80 0.929 . S
C40 C38 1.356 . S
C40 C42 1.358 . S
C40 H81 0.930 . S
C41 C39 1.353 . S
C41 N43 1.314 . S
C41 H82 0.930 . S
C42 C40 1.358 . S
C42 N43 1.279 . S
C42 H83 0.930 . S
N43 C41 1.314 . S
N43 C42 1.279 . S
C44 C46 1.353 . S
C44 N47 1.314 . S
C44 H50 0.930 . S
C45 N47 1.279 1_556 S
C45 C48 1.358 . S
C45 H51 0.930 . S
C46 C44 1.353 . S
C46 C49 1.348 1_554 S
C46 H84 0.929 . S
N47 Li2 1.991 . S
N47 C44 1.314 . S
N47 C45 1.279 1_554 S
C48 C45 1.358 . S
C48 C49 1.356 . S
C48 H85 0.930 . S
C49 C46 1.348 1_556 S
C49 C48 1.356 . S
H50 C44 0.930 . S
H51 C45 0.930 . S
C52 N53 1.314 . S
C52 C54 1.353 . S
C52 H58 0.930 . S
N53 Li3 1.990 . S
N53 C52 1.314 . S
N53 C56 1.279 . S
C54 C52 1.353 . S
C54 C57 1.348 . S
C54 H86 0.929 . S
C55 C56 1.358 . S
C55 C57 1.356 . S
C55 H87 0.930 . S
C56 N53 1.279 . S
C56 C55 1.358 . S
C56 H59 0.930 . S
C57 C54 1.348 . S
C57 C55 1.356 . S
H58 C52 0.930 . S
H59 C56 0.930 . S
O60 Li0 1.956 . S
O60 Li1 1.959 1_554 S
O60 Li2 1.976 . S
O60 C4 1.325 . S
O61 Li0 1.981 . S
O61 Li1 1.956 1_554 S
O61 Li3 1.950 1_554 S
O61 C10 1.325 . S
O62 Li0 1.954 1_556 S
O62 Li2 1.956 1_556 S
O62 Li3 1.977 . S
O62 C32 1.325 1_556 S
O63 Li1 1.972 . S
O63 Li2 1.955 1_556 S
O63 Li3 1.956 . S
O63 C38 1.325 . S
H64 C6 0.929 . S
H65 C7 0.930 . S
H66 C8 0.930 . S
H67 C9 0.930 . S
H68 C11 0.930 . S
H69 C13 0.929 . S
H70 C14 0.930 . S
H71 C15 0.930 . S
H72 C18 0.930 . S
H73 C21 0.929 . S
H74 C26 0.929 . S
H75 C27 0.930 . S
H76 C34 0.929 . S
H77 C35 0.930 . S
H78 C36 0.930 . S
H79 C37 0.930 . S
H80 C39 0.929 . S
H81 C40 0.930 . S
H82 C41 0.930 . S
H83 C42 0.930 . S
H84 C46 0.929 . S
H85 C48 0.930 . S
H86 C54 0.929 . S
H87 C55 0.930 . S
Li88 N105 1.991 . S
Li88 O148 1.956 1_556 S
Li88 O149 1.959 1_556 S
Li88 O150 1.972 . S
Li89 N113 1.990 . S
Li89 O148 1.981 . S
Li89 O149 1.956 . S
Li89 O151 1.954 1_554 S
Li90 N135 1.990 . S
Li90 O148 1.950 1_556 S
Li90 O150 1.956 . S
Li90 O151 1.977 . S
Li91 N141 1.991 . S
Li91 O149 1.976 . S
Li91 O150 1.955 1_554 S
Li91 O151 1.956 1_554 S
C92 C94 1.345 . S
C92 C95 1.358 1_554 S
C92 O148 1.325 . S
N93 C96 1.314 1_556 S
N93 C97 1.279 . S
C94 C92 1.345 . S
C94 C96 1.353 . S
C94 H152 0.929 . S
C95 C92 1.358 1_556 S
C95 C97 1.358 . S
C95 H153 0.930 . S
C96 N93 1.314 1_554 S
C96 C94 1.353 . S
C96 H154 0.930 . S
C97 N93 1.279 . S
C97 C95 1.358 . S
C97 H155 0.930 . S
C98 C101 1.348 . S
C98 C102 1.356 . S
C98 O149 1.325 . S
C99 N100 1.279 . S
C99 C102 1.358 . S
C99 H156 0.930 . S
N100 C99 1.279 . S
N100 C103 1.314 . S
C101 C98 1.348 . S
C101 C103 1.353 . S
C101 H157 0.929 . S
C102 C98 1.356 . S
C102 C99 1.358 . S
C102 H158 0.930 . S
C103 N100 1.314 . S
C103 C101 1.353 . S
C103 H159 0.930 . S
C104 N105 1.314 . S
C104 C109 1.353 . S
C104 H110 0.930 . S
N105 Li88 1.991 . S
N105 C104 1.314 . S
N105 C107 1.279 1_556 S
C106 C107 1.358 . S
C106 C108 1.357 . S
C106 H160 0.930 . S
C107 N105 1.279 1_554 S
C107 C106 1.358 . S
C107 H111 0.930 . S
C108 C106 1.357 . S
C108 C109 1.346 1_554 S
C109 C104 1.353 . S
C109 C108 1.346 1_556 S
C109 H161 0.929 . S
H110 C104 0.930 . S
H111 C107 0.930 . S
C112 N113 1.314 . S
C112 C114 1.353 . S
C112 H118 0.930 . S
N113 Li89 1.990 . S
N113 C112 1.314 . S
N113 C116 1.279 . S
C114 C112 1.353 . S
C114 C117 1.348 . S
C114 H162 0.929 . S
C115 C116 1.358 . S
C115 C117 1.356 . S
C115 H163 0.930 . S
C116 N113 1.279 . S
C116 C115 1.358 . S
C116 H119 0.930 . S
C117 C114 1.348 . S
C117 C115 1.356 . S
H118 C112 0.930 . S
H119 C116 0.930 . S
C120 C122 1.348 . S
C120 C123 1.356 . S
C120 O150 1.325 . S
N121 C124 1.314 . S
N121 C125 1.279 . S
C122 C120 1.348 . S
C122 C124 1.353 . S
C122 H164 0.929 . S
C123 C120 1.356 . S
C123 C125 1.358 . S
C123 H165 0.930 . S
C124 N121 1.314 . S
C124 C122 1.353 . S
C124 H166 0.930 . S
C125 N121 1.279 . S
C125 C123 1.358 . S
C125 H167 0.930 . S
C126 C127 1.345 1_554 S
C126 C128 1.358 . S
C126 O151 1.325 1_554 S
C127 C126 1.345 1_556 S
C127 C129 1.353 . S
C127 H168 0.929 . S
C128 C126 1.358 . S
C128 C130 1.358 . S
C128 H169 0.930 . S
C129 C127 1.353 . S
C129 N131 1.314 1_556 S
C129 H170 0.930 . S
C130 C128 1.358 . S
C130 N131 1.279 . S
C130 H171 0.930 . S
N131 C129 1.314 1_554 S
N131 C130 1.279 . S
C132 C134 1.353 . S
C132 N135 1.314 . S
C132 H138 0.930 . S
C133 N135 1.279 . S
C133 C136 1.358 . S
C133 H139 0.930 . S
C134 C132 1.353 . S
C134 C137 1.348 . S
C134 H172 0.929 . S
N135 Li90 1.990 . S
N135 C132 1.314 . S
N135 C133 1.279 . S
C136 C133 1.358 . S
C136 C137 1.356 . S
C136 H173 0.930 . S
C137 C134 1.348 . S
C137 C136 1.356 . S
H138 C132 0.930 . S
H139 C133 0.930 . S
C140 N141 1.314 . S
C140 C142 1.353 . S
C140 H146 0.930 . S
N141 Li91 1.991 . S
N141 C140 1.314 . S
N141 C144 1.279 1_554 S
C142 C140 1.353 . S
C142 C145 1.348 1_554 S
C142 H174 0.929 . S
C143 C144 1.358 . S
C143 C145 1.356 . S
C143 H175 0.930 . S
C144 N141 1.279 1_556 S
C144 C143 1.358 . S
C144 H147 0.930 . S
C145 C142 1.348 1_556 S
C145 C143 1.356 . S
H146 C140 0.930 . S
H147 C144 0.930 . S
O148 Li88 1.956 1_554 S
O148 Li89 1.981 . S
O148 Li90 1.950 1_554 S
O148 C92 1.325 . S
O149 Li88 1.959 1_554 S
O149 Li89 1.956 . S
O149 Li91 1.976 . S
O149 C98 1.325 . S
O150 Li88 1.972 . S
O150 Li90 1.956 . S
O150 Li91 1.955 1_556 S
O150 C120 1.325 . S
O151 Li89 1.954 1_556 S
O151 Li90 1.977 . S
O151 Li91 1.956 1_556 S
O151 C126 1.325 1_556 S
H152 C94 0.929 . S
H153 C95 0.930 . S
H154 C96 0.930 . S
H155 C97 0.930 . S
H156 C99 0.930 . S
H157 C101 0.929 . S
H158 C102 0.930 . S
H159 C103 0.930 . S
H160 C106 0.930 . S
H161 C109 0.929 . S
H162 C114 0.929 . S
H163 C115 0.930 . S
H164 C122 0.929 . S
H165 C123 0.930 . S
H166 C124 0.930 . S
H167 C125 0.930 . S
H168 C127 0.929 . S
H169 C128 0.930 . S
H170 C129 0.930 . S
H171 C130 0.930 . S
H172 C134 0.929 . S
H173 C136 0.930 . S
H174 C142 0.929 . S
H175 C143 0.930 . S
Li176 N193 1.991 . S
Li176 O236 1.956 1_556 S
Li176 O237 1.959 1_556 S
Li176 O238 1.972 . S
Li177 N201 1.990 . S
Li177 O236 1.981 . S
Li177 O237 1.956 . S
Li177 O239 1.954 1_554 S
Li178 N223 1.990 . S
Li178 O236 1.950 1_556 S
Li178 O238 1.956 . S
Li178 O239 1.977 . S
Li179 N229 1.991 . S
Li179 O237 1.976 . S
Li179 O238 1.955 1_554 S
Li179 O239 1.956 1_554 S
C180 C182 1.345 . S
C180 C183 1.358 1_554 S
C180 O236 1.325 . S
N181 C184 1.314 1_556 S
N181 C185 1.279 . S
C182 C180 1.345 . S
C182 C184 1.353 . S
C182 H240 0.929 . S
C183 C180 1.358 1_556 S
C183 C185 1.358 . S
C183 H241 0.930 . S
C184 N181 1.314 1_554 S
C184 C182 1.353 . S
C184 H242 0.930 . S
C185 N181 1.279 . S
C185 C183 1.358 . S
C185 H243 0.930 . S
C186 C189 1.348 . S
C186 C190 1.356 . S
C186 O237 1.325 . S
C187 N188 1.279 . S
C187 C190 1.358 . S
C187 H244 0.930 . S
N188 C187 1.279 . S
N188 C191 1.314 . S
C189 C186 1.348 . S
C189 C191 1.353 . S
C189 H245 0.929 . S
C190 C186 1.356 . S
C190 C187 1.358 . S
C190 H246 0.930 . S
C191 N188 1.314 . S
C191 C189 1.353 . S
C191 H247 0.930 . S
C192 N193 1.314 . S
C192 C197 1.353 . S
C192 H198 0.930 . S
N193 Li176 1.991 . S
N193 C192 1.314 . S
N193 C195 1.279 1_556 S
C194 C195 1.358 . S
C194 C196 1.357 . S
C194 H248 0.930 . S
C195 N193 1.279 1_554 S
C195 C194 1.358 . S
C195 H199 0.930 . S
C196 C194 1.357 . S
C196 C197 1.346 1_554 S
C197 C192 1.353 . S
C197 C196 1.346 1_556 S
C197 H249 0.929 . S
H198 C192 0.930 . S
H199 C195 0.930 . S
C200 N201 1.314 . S
C200 C202 1.353 . S
C200 H206 0.930 . S
N201 Li177 1.990 . S
N201 C200 1.314 . S
N201 C204 1.279 . S
C202 C200 1.353 . S
C202 C205 1.348 . S
C202 H250 0.929 . S
C203 C204 1.358 . S
C203 C205 1.356 . S
C203 H251 0.930 . S
C204 N201 1.279 . S
C204 C203 1.358 . S
C204 H207 0.930 . S
C205 C202 1.348 . S
C205 C203 1.356 . S
H206 C200 0.930 . S
H207 C204 0.930 . S
C208 C210 1.348 . S
C208 C211 1.356 . S
C208 O238 1.325 . S
N209 C212 1.314 . S
N209 C213 1.279 . S
C210 C208 1.348 . S
C210 C212 1.353 . S
C210 H252 0.929 . S
C211 C208 1.356 . S
C211 C213 1.358 . S
C211 H253 0.930 . S
C212 N209 1.314 . S
C212 C210 1.353 . S
C212 H254 0.930 . S
C213 N209 1.279 . S
C213 C211 1.358 . S
C213 H255 0.930 . S
C214 C215 1.345 1_554 S
C214 C216 1.358 . S
C214 O239 1.325 1_554 S
C215 C214 1.345 1_556 S
C215 C217 1.353 . S
C215 H256 0.929 . S
C216 C214 1.358 . S
C216 C218 1.358 . S
C216 H257 0.930 . S
C217 C215 1.353 . S
C217 N219 1.314 1_556 S
C217 H258 0.930 . S
C218 C216 1.358 . S
C218 N219 1.279 . S
C218 H259 0.930 . S
N219 C217 1.314 1_554 S
N219 C218 1.279 . S
C220 C222 1.353 . S
C220 N223 1.314 . S
C220 H226 0.930 . S
C221 N223 1.279 . S
C221 C224 1.358 . S
C221 H227 0.930 . S
C222 C220 1.353 . S
C222 C225 1.348 . S
C222 H260 0.929 . S
N223 Li178 1.990 . S
N223 C220 1.314 . S
N223 C221 1.279 . S
C224 C221 1.358 . S
C224 C225 1.356 . S
C224 H261 0.930 . S
C225 C222 1.348 . S
C225 C224 1.356 . S
H226 C220 0.930 . S
H227 C221 0.930 . S
C228 N229 1.314 . S
C228 C230 1.353 . S
C228 H234 0.930 . S
N229 Li179 1.991 . S
N229 C228 1.314 . S
N229 C232 1.279 1_554 S
C230 C228 1.353 . S
C230 C233 1.348 1_554 S
C230 H262 0.929 . S
C231 C232 1.358 . S
C231 C233 1.356 . S
C231 H263 0.930 . S
C232 N229 1.279 1_556 S
C232 C231 1.358 . S
C232 H235 0.930 . S
C233 C230 1.348 1_556 S
C233 C231 1.356 . S
H234 C228 0.930 . S
H235 C232 0.930 . S
O236 Li176 1.956 1_554 S
O236 Li177 1.981 . S
O236 Li178 1.950 1_554 S
O236 C180 1.325 . S
O237 Li176 1.959 1_554 S
O237 Li177 1.956 . S
O237 Li179 1.976 . S
O237 C186 1.325 . S
O238 Li176 1.972 . S
O238 Li178 1.956 . S
O238 Li179 1.955 1_556 S
O238 C208 1.325 . S
O239 Li177 1.954 1_556 S
O239 Li178 1.977 . S
O239 Li179 1.956 1_556 S
O239 C214 1.325 1_556 S
H240 C182 0.929 . S
H241 C183 0.930 . S
H242 C184 0.930 . S
H243 C185 0.930 . S
H244 C187 0.930 . S
H245 C189 0.929 . S
H246 C190 0.930 . S
H247 C191 0.930 . S
H248 C194 0.930 . S
H249 C197 0.929 . S
H250 C202 0.929 . S
H251 C203 0.930 . S
H252 C210 0.929 . S
H253 C211 0.930 . S
H254 C212 0.930 . S
H255 C213 0.930 . S
H256 C215 0.929 . S
H257 C216 0.930 . S
H258 C217 0.930 . S
H259 C218 0.930 . S
H260 C222 0.929 . S
H261 C224 0.930 . S
H262 C230 0.929 . S
H263 C231 0.930 . S
Li264 N281 1.991 . S
Li264 O324 1.956 1_556 S
Li264 O325 1.959 1_556 S
Li264 O326 1.972 . S
Li265 N289 1.990 . S
Li265 O324 1.981 . S
Li265 O325 1.956 . S
Li265 O327 1.954 1_554 S
Li266 N311 1.990 . S
Li266 O324 1.950 1_556 S
Li266 O326 1.956 . S
Li266 O327 1.977 . S
Li267 N317 1.991 . S
Li267 O325 1.976 . S
Li267 O326 1.955 1_554 S
Li267 O327 1.956 1_554 S
C268 C270 1.345 . S
C268 C271 1.358 1_554 S
C268 O324 1.325 . S
N269 C272 1.314 1_556 S
N269 C273 1.279 . S
C270 C268 1.345 . S
C270 C272 1.353 . S
C270 H328 0.929 . S
C271 C268 1.358 1_556 S
C271 C273 1.358 . S
C271 H329 0.930 . S
C272 N269 1.314 1_554 S
C272 C270 1.353 . S
C272 H330 0.930 . S
C273 N269 1.279 . S
C273 C271 1.358 . S
C273 H331 0.930 . S
C274 C277 1.348 . S
C274 C278 1.356 . S
C274 O325 1.325 . S
C275 N276 1.279 . S
C275 C278 1.358 . S
C275 H332 0.930 . S
N276 C275 1.279 . S
N276 C279 1.314 . S
C277 C274 1.348 . S
C277 C279 1.353 . S
C277 H333 0.929 . S
C278 C274 1.356 . S
C278 C275 1.358 . S
C278 H334 0.930 . S
C279 N276 1.314 . S
C279 C277 1.353 . S
C279 H335 0.930 . S
C280 N281 1.314 . S
C280 C285 1.353 . S
C280 H286 0.930 . S
N281 Li264 1.991 . S
N281 C280 1.314 . S
N281 C283 1.279 1_556 S
C282 C283 1.358 . S
C282 C284 1.357 . S
C282 H336 0.930 . S
C283 N281 1.279 1_554 S
C283 C282 1.358 . S
C283 H287 0.930 . S
C284 C282 1.357 . S
C284 C285 1.346 1_554 S
C285 C280 1.353 . S
C285 C284 1.346 1_556 S
C285 H337 0.929 . S
H286 C280 0.930 . S
H287 C283 0.930 . S
C288 N289 1.314 . S
C288 C290 1.353 . S
C288 H294 0.930 . S
N289 Li265 1.990 . S
N289 C288 1.314 . S
N289 C292 1.279 . S
C290 C288 1.353 . S
C290 C293 1.348 . S
C290 H338 0.929 . S
C291 C292 1.358 . S
C291 C293 1.356 . S
C291 H339 0.930 . S
C292 N289 1.279 . S
C292 C291 1.358 . S
C292 H295 0.930 . S
C293 C290 1.348 . S
C293 C291 1.356 . S
H294 C288 0.930 . S
H295 C292 0.930 . S
C296 C298 1.348 . S
C296 C299 1.356 . S
C296 O326 1.325 . S
N297 C300 1.314 . S
N297 C301 1.279 . S
C298 C296 1.348 . S
C298 C300 1.353 . S
C298 H340 0.929 . S
C299 C296 1.356 . S
C299 C301 1.358 . S
C299 H341 0.930 . S
C300 N297 1.314 . S
C300 C298 1.353 . S
C300 H342 0.930 . S
C301 N297 1.279 . S
C301 C299 1.358 . S
C301 H343 0.930 . S
C302 C303 1.345 1_554 S
C302 C304 1.358 . S
C302 O327 1.325 1_554 S
C303 C302 1.345 1_556 S
C303 C305 1.353 . S
C303 H344 0.929 . S
C304 C302 1.358 . S
C304 C306 1.358 . S
C304 H345 0.930 . S
C305 C303 1.353 . S
C305 N307 1.314 1_556 S
C305 H346 0.930 . S
C306 C304 1.358 . S
C306 N307 1.279 . S
C306 H347 0.930 . S
N307 C305 1.314 1_554 S
N307 C306 1.279 . S
C308 C310 1.353 . S
C308 N311 1.314 . S
C308 H314 0.930 . S
C309 N311 1.279 . S
C309 C312 1.358 . S
C309 H315 0.930 . S
C310 C308 1.353 . S
C310 C313 1.348 . S
C310 H348 0.929 . S
N311 Li266 1.990 . S
N311 C308 1.314 . S
N311 C309 1.279 . S
C312 C309 1.358 . S
C312 C313 1.356 . S
C312 H349 0.930 . S
C313 C310 1.348 . S
C313 C312 1.356 . S
H314 C308 0.930 . S
H315 C309 0.930 . S
C316 N317 1.314 . S
C316 C318 1.353 . S
C316 H322 0.930 . S
N317 Li267 1.991 . S
N317 C316 1.314 . S
N317 C320 1.279 1_554 S
C318 C316 1.353 . S
C318 C321 1.348 1_554 S
C318 H350 0.929 . S
C319 C320 1.358 . S
C319 C321 1.356 . S
C319 H351 0.930 . S
C320 N317 1.279 1_556 S
C320 C319 1.358 . S
C320 H323 0.930 . S
C321 C318 1.348 1_556 S
C321 C319 1.356 . S
H322 C316 0.930 . S
H323 C320 0.930 . S
O324 Li264 1.956 1_554 S
O324 Li265 1.981 . S
O324 Li266 1.950 1_554 S
O324 C268 1.325 . S
O325 Li264 1.959 1_554 S
O325 Li265 1.956 . S
O325 Li267 1.976 . S
O325 C274 1.325 . S
O326 Li264 1.972 . S
O326 Li266 1.956 . S
O326 Li267 1.955 1_556 S
O326 C296 1.325 . S
O327 Li265 1.954 1_556 S
O327 Li266 1.977 . S
O327 Li267 1.956 1_556 S
O327 C302 1.325 1_556 S
H328 C270 0.929 . S
H329 C271 0.930 . S
H330 C272 0.930 . S
H331 C273 0.930 . S
H332 C275 0.930 . S
H333 C277 0.929 . S
H334 C278 0.930 . S
H335 C279 0.930 . S
H336 C282 0.930 . S
H337 C285 0.929 . S
H338 C290 0.929 . S
H339 C291 0.930 . S
H340 C298 0.929 . S
H341 C299 0.930 . S
H342 C300 0.930 . S
H343 C301 0.930 . S
H344 C303 0.929 . S
H345 C304 0.930 . S
H346 C305 0.930 . S
H347 C306 0.930 . S
H348 C310 0.929 . S
H349 C312 0.930 . S
H350 C318 0.929 . S
H351 C319 0.930 . S
Li352 N369 1.990 . S
Li352 O412 1.956 . S
Li352 O413 1.970 . S
Li352 O414 1.961 . S
Li353 N377 1.990 . S
Li353 O412 1.970 . S
Li353 O413 1.956 . S
Li353 O415 1.961 . S
Li354 N399 1.990 . S
Li354 O412 1.961 . S
Li354 O414 1.956 . S
Li354 O415 1.970 . S
Li355 N405 1.990 . S
Li355 O413 1.961 . S
Li355 O414 1.970 . S
Li355 O415 1.956 . S
C356 C358 1.348 . S
C356 C359 1.356 . S
C356 O412 1.325 . S
N357 C360 1.314 . S
N357 C361 1.279 . S
C358 C356 1.348 . S
C358 C360 1.353 . S
C358 H416 0.929 . S
C359 C356 1.356 . S
C359 C361 1.358 . S
C359 H417 0.930 . S
C360 N357 1.314 . S
C360 C358 1.353 . S
C360 H418 0.930 . S
C361 N357 1.279 . S
C361 C359 1.358 . S
C361 H419 0.930 . S
C362 C365 1.348 . S
C362 C366 1.356 . S
C362 O413 1.325 . S
C363 N364 1.279 . S
C363 C366 1.358 . S
C363 H420 0.930 . S
N364 C363 1.279 . S
N364 C367 1.314 . S
C365 C362 1.348 . S
C365 C367 1.353 . S
C365 H421 0.929 . S
C366 C362 1.356 . S
C366 C363 1.358 . S
C366 H422 0.930 . S
C367 N364 1.314 . S
C367 C365 1.353 . S
C367 H423 0.930 . S
C368 N369 1.314 . S
C368 C373 1.353 . S
C368 H374 0.930 . S
N369 Li352 1.990 . S
N369 C368 1.314 . S
N369 C371 1.279 . S
C370 C371 1.358 . S
C370 C372 1.356 . S
C370 H424 0.930 . S
C371 N369 1.279 . S
C371 C370 1.358 . S
C371 H375 0.930 . S
C372 C370 1.356 . S
C372 C373 1.348 . S
C373 C368 1.353 . S
C373 C372 1.348 . S
C373 H425 0.929 . S
H374 C368 0.930 . S
H375 C371 0.930 . S
C376 N377 1.314 . S
C376 C378 1.353 . S
C376 H382 0.930 . S
N377 Li353 1.990 . S
N377 C376 1.314 . S
N377 C380 1.279 . S
C378 C376 1.353 . S
C378 C381 1.348 . S
C378 H426 0.929 . S
C379 C380 1.358 . S
C379 C381 1.356 . S
C379 H427 0.930 . S
C380 N377 1.279 . S
C380 C379 1.358 . S
C380 H383 0.930 . S
C381 C378 1.348 . S
C381 C379 1.356 . S
H382 C376 0.930 . S
H383 C380 0.930 . S
C384 C386 1.348 . S
C384 C387 1.356 . S
C384 O414 1.325 . S
N385 C388 1.314 . S
N385 C389 1.279 . S
C386 C384 1.348 . S
C386 C388 1.353 . S
C386 H428 0.929 . S
C387 C384 1.356 . S
C387 C389 1.358 . S
C387 H429 0.930 . S
C388 N385 1.314 . S
C388 C386 1.353 . S
C388 H430 0.930 . S
C389 N385 1.279 . S
C389 C387 1.358 . S
C389 H431 0.930 . S
C390 C391 1.348 . S
C390 C392 1.356 . S
C390 O415 1.325 . S
C391 C390 1.348 . S
C391 C393 1.353 . S
C391 H432 0.929 . S
C392 C390 1.356 . S
C392 C394 1.358 . S
C392 H433 0.930 . S
C393 C391 1.353 . S
C393 N395 1.314 . S
C393 H434 0.930 . S
C394 C392 1.358 . S
C394 N395 1.279 . S
C394 H435 0.930 . S
N395 C393 1.314 . S
N395 C394 1.279 . S
C396 C398 1.353 . S
C396 N399 1.314 . S
C396 H402 0.930 . S
C397 N399 1.279 . S
C397 C400 1.358 . S
C397 H403 0.930 . S
C398 C396 1.353 . S
C398 C401 1.348 . S
C398 H436 0.929 . S
N399 Li354 1.990 . S
N399 C396 1.314 . S
N399 C397 1.279 . S
C400 C397 1.358 . S
C400 C401 1.356 . S
C400 H437 0.930 . S
C401 C398 1.348 . S
C401 C400 1.356 . S
H402 C396 0.930 . S
H403 C397 0.930 . S
C404 N405 1.314 . S
C404 C406 1.353 . S
C404 H410 0.930 . S
N405 Li355 1.990 . S
N405 C404 1.314 . S
N405 C408 1.279 . S
C406 C404 1.353 . S
C406 C409 1.348 . S
C406 H438 0.929 . S
C407 C408 1.358 . S
C407 C409 1.356 . S
C407 H439 0.930 . S
C408 N405 1.279 . S
C408 C407 1.358 . S
C408 H411 0.930 . S
C409 C406 1.348 . S
C409 C407 1.356 . S
H410 C404 0.930 . S
H411 C408 0.930 . S
O412 Li352 1.956 . S
O412 Li353 1.970 . S
O412 Li354 1.961 . S
O412 C356 1.325 . S
O413 Li352 1.970 . S
O413 Li353 1.956 . S
O413 Li355 1.961 . S
O413 C362 1.325 . S
O414 Li352 1.961 . S
O414 Li354 1.956 . S
O414 Li355 1.970 . S
O414 C384 1.325 . S
O415 Li353 1.961 . S
O415 Li354 1.970 . S
O415 Li355 1.956 . S
O415 C390 1.325 . S
H416 C358 0.929 . S
H417 C359 0.930 . S
H418 C360 0.930 . S
H419 C361 0.930 . S
H420 C363 0.930 . S
H421 C365 0.929 . S
H422 C366 0.930 . S
H423 C367 0.930 . S
H424 C370 0.930 . S
H425 C373 0.929 . S
H426 C378 0.929 . S
H427 C379 0.930 . S
H428 C386 0.929 . S
H429 C387 0.930 . S
H430 C388 0.930 . S
H431 C389 0.930 . S
H432 C391 0.929 . S
H433 C392 0.930 . S
H434 C393 0.930 . S
H435 C394 0.930 . S
H436 C398 0.929 . S
H437 C400 0.930 . S
H438 C406 0.929 . S
H439 C407 0.930 . S
Li440 N457 1.990 . S
Li440 O500 1.956 . S
Li440 O501 1.970 . S
Li440 O502 1.961 . S
Li441 N465 1.990 . S
Li441 O500 1.970 . S
Li441 O501 1.956 . S
Li441 O503 1.961 . S
Li442 N487 1.990 . S
Li442 O500 1.961 . S
Li442 O502 1.956 . S
Li442 O503 1.970 . S
Li443 N493 1.990 . S
Li443 O501 1.961 . S
Li443 O502 1.970 . S
Li443 O503 1.956 . S
C444 C446 1.348 . S
C444 C447 1.356 . S
C444 O500 1.325 . S
N445 C448 1.314 . S
N445 C449 1.279 . S
C446 C444 1.348 . S
C446 C448 1.353 . S
C446 H504 0.929 . S
C447 C444 1.356 . S
C447 C449 1.358 . S
C447 H505 0.930 . S
C448 N445 1.314 . S
C448 C446 1.353 . S
C448 H506 0.930 . S
C449 N445 1.279 . S
C449 C447 1.358 . S
C449 H507 0.930 . S
C450 C453 1.348 . S
C450 C454 1.356 . S
C450 O501 1.325 . S
C451 N452 1.279 . S
C451 C454 1.358 . S
C451 H508 0.930 . S
N452 C451 1.279 . S
N452 C455 1.314 . S
C453 C450 1.348 . S
C453 C455 1.353 . S
C453 H509 0.929 . S
C454 C450 1.356 . S
C454 C451 1.358 . S
C454 H510 0.930 . S
C455 N452 1.314 . S
C455 C453 1.353 . S
C455 H511 0.930 . S
C456 N457 1.314 . S
C456 C461 1.353 . S
C456 H462 0.930 . S
N457 Li440 1.990 . S
N457 C456 1.314 . S
N457 C459 1.279 . S
C458 C459 1.358 . S
C458 C460 1.356 . S
C458 H512 0.930 . S
C459 N457 1.279 . S
C459 C458 1.358 . S
C459 H463 0.930 . S
C460 C458 1.356 . S
C460 C461 1.348 . S
C461 C456 1.353 . S
C461 C460 1.348 . S
C461 H513 0.929 . S
H462 C456 0.930 . S
H463 C459 0.930 . S
C464 N465 1.314 . S
C464 C466 1.353 . S
C464 H470 0.930 . S
N465 Li441 1.990 . S
N465 C464 1.314 . S
N465 C468 1.279 . S
C466 C464 1.353 . S
C466 C469 1.348 . S
C466 H514 0.929 . S
C467 C468 1.358 . S
C467 C469 1.356 . S
C467 H515 0.930 . S
C468 N465 1.279 . S
C468 C467 1.358 . S
C468 H471 0.930 . S
C469 C466 1.348 . S
C469 C467 1.356 . S
H470 C464 0.930 . S
H471 C468 0.930 . S
C472 C474 1.348 . S
C472 C475 1.356 . S
C472 O502 1.325 . S
N473 C476 1.314 . S
N473 C477 1.279 . S
C474 C472 1.348 . S
C474 C476 1.353 . S
C474 H516 0.929 . S
C475 C472 1.356 . S
C475 C477 1.358 . S
C475 H517 0.930 . S
C476 N473 1.314 . S
C476 C474 1.353 . S
C476 H518 0.930 . S
C477 N473 1.279 . S
C477 C475 1.358 . S
C477 H519 0.930 . S
C478 C479 1.348 . S
C478 C480 1.356 . S
C478 O503 1.325 . S
C479 C478 1.348 . S
C479 C481 1.353 . S
C479 H520 0.929 . S
C480 C478 1.356 . S
C480 C482 1.358 . S
C480 H521 0.930 . S
C481 C479 1.353 . S
C481 N483 1.314 . S
C481 H522 0.930 . S
C482 C480 1.358 . S
C482 N483 1.279 . S
C482 H523 0.930 . S
N483 C481 1.314 . S
N483 C482 1.279 . S
C484 C486 1.353 . S
C484 N487 1.314 . S
C484 H490 0.930 . S
C485 N487 1.279 . S
C485 C488 1.358 . S
C485 H491 0.930 . S
C486 C484 1.353 . S
C486 C489 1.348 . S
C486 H524 0.929 . S
N487 Li442 1.990 . S
N487 C484 1.314 . S
N487 C485 1.279 . S
C488 C485 1.358 . S
C488 C489 1.356 . S
C488 H525 0.930 . S
C489 C486 1.348 . S
C489 C488 1.356 . S
H490 C484 0.930 . S
H491 C485 0.930 . S
C492 N493 1.314 . S
C492 C494 1.353 . S
C492 H498 0.930 . S
N493 Li443 1.990 . S
N493 C492 1.314 . S
N493 C496 1.279 . S
C494 C492 1.353 . S
C494 C497 1.348 . S
C494 H526 0.929 . S
C495 C496 1.358 . S
C495 C497 1.356 . S
C495 H527 0.930 . S
C496 N493 1.279 . S
C496 C495 1.358 . S
C496 H499 0.930 . S
C497 C494 1.348 . S
C497 C495 1.356 . S
H498 C492 0.930 . S
H499 C496 0.930 . S
O500 Li440 1.956 . S
O500 Li441 1.970 . S
O500 Li442 1.961 . S
O500 C444 1.325 . S
O501 Li440 1.970 . S
O501 Li441 1.956 . S
O501 Li443 1.961 . S
O501 C450 1.325 . S
O502 Li440 1.961 . S
O502 Li442 1.956 . S
O502 Li443 1.970 . S
O502 C472 1.325 . S
O503 Li441 1.961 . S
O503 Li442 1.970 . S
O503 Li443 1.956 . S
O503 C478 1.325 . S
H504 C446 0.929 . S
H505 C447 0.930 . S
H506 C448 0.930 . S
H507 C449 0.930 . S
H508 C451 0.930 . S
H509 C453 0.929 . S
H510 C454 0.930 . S
H511 C455 0.930 . S
H512 C458 0.930 . S
H513 C461 0.929 . S
H514 C466 0.929 . S
H515 C467 0.930 . S
H516 C474 0.929 . S
H517 C475 0.930 . S
H518 C476 0.930 . S
H519 C477 0.930 . S
H520 C479 0.929 . S
H521 C480 0.930 . S
H522 C481 0.930 . S
H523 C482 0.930 . S
H524 C486 0.929 . S
H525 C488 0.930 . S
H526 C494 0.929 . S
H527 C495 0.930 . S
Li528 N545 1.990 . S
Li528 O588 1.956 . S
Li528 O589 1.970 . S
Li528 O590 1.961 . S
Li529 N553 1.990 . S
Li529 O588 1.970 . S
Li529 O589 1.956 . S
Li529 O591 1.961 . S
Li530 N575 1.990 . S
Li530 O588 1.961 . S
Li530 O590 1.956 . S
Li530 O591 1.970 . S
Li531 N581 1.990 . S
Li531 O589 1.961 . S
Li531 O590 1.970 . S
Li531 O591 1.956 . S
C532 C534 1.348 . S
C532 C535 1.356 . S
C532 O588 1.325 . S
N533 C536 1.314 . S
N533 C537 1.279 . S
C534 C532 1.348 . S
C534 C536 1.353 . S
C534 H592 0.929 . S
C535 C532 1.356 . S
C535 C537 1.358 . S
C535 H593 0.930 . S
C536 N533 1.314 . S
C536 C534 1.353 . S
C536 H594 0.930 . S
C537 N533 1.279 . S
C537 C535 1.358 . S
C537 H595 0.930 . S
C538 C541 1.348 . S
C538 C542 1.356 . S
C538 O589 1.325 . S
C539 N540 1.279 . S
C539 C542 1.358 . S
C539 H596 0.930 . S
N540 C539 1.279 . S
N540 C543 1.314 . S
C541 C538 1.348 . S
C541 C543 1.353 . S
C541 H597 0.929 . S
C542 C538 1.356 . S
C542 C539 1.358 . S
C542 H598 0.930 . S
C543 N540 1.314 . S
C543 C541 1.353 . S
C543 H599 0.930 . S
C544 N545 1.314 . S
C544 C549 1.353 . S
C544 H550 0.930 . S
N545 Li528 1.990 . S
N545 C544 1.314 . S
N545 C547 1.279 . S
C546 C547 1.358 . S
C546 C548 1.356 . S
C546 H600 0.930 . S
C547 N545 1.279 . S
C547 C546 1.358 . S
C547 H551 0.930 . S
C548 C546 1.356 . S
C548 C549 1.348 . S
C549 C544 1.353 . S
C549 C548 1.348 . S
C549 H601 0.929 . S
H550 C544 0.930 . S
H551 C547 0.930 . S
C552 N553 1.314 . S
C552 C554 1.353 . S
C552 H558 0.930 . S
N553 Li529 1.990 . S
N553 C552 1.314 . S
N553 C556 1.279 . S
C554 C552 1.353 . S
C554 C557 1.348 . S
C554 H602 0.929 . S
C555 C556 1.358 . S
C555 C557 1.356 . S
C555 H603 0.930 . S
C556 N553 1.279 . S
C556 C555 1.358 . S
C556 H559 0.930 . S
C557 C554 1.348 . S
C557 C555 1.356 . S
H558 C552 0.930 . S
H559 C556 0.930 . S
C560 C562 1.348 . S
C560 C563 1.356 . S
C560 O590 1.325 . S
N561 C564 1.314 . S
N561 C565 1.279 . S
C562 C560 1.348 . S
C562 C564 1.353 . S
C562 H604 0.929 . S
C563 C560 1.356 . S
C563 C565 1.358 . S
C563 H605 0.930 . S
C564 N561 1.314 . S
C564 C562 1.353 . S
C564 H606 0.930 . S
C565 N561 1.279 . S
C565 C563 1.358 . S
C565 H607 0.930 . S
C566 C567 1.348 . S
C566 C568 1.356 . S
C566 O591 1.325 . S
C567 C566 1.348 . S
C567 C569 1.353 . S
C567 H608 0.929 . S
C568 C566 1.356 . S
C568 C570 1.358 . S
C568 H609 0.930 . S
C569 C567 1.353 . S
C569 N571 1.314 . S
C569 H610 0.930 . S
C570 C568 1.358 . S
C570 N571 1.279 . S
C570 H611 0.930 . S
N571 C569 1.314 . S
N571 C570 1.279 . S
C572 C574 1.353 . S
C572 N575 1.314 . S
C572 H578 0.930 . S
C573 N575 1.279 . S
C573 C576 1.358 . S
C573 H579 0.930 . S
C574 C572 1.353 . S
C574 C577 1.348 . S
C574 H612 0.929 . S
N575 Li530 1.990 . S
N575 C572 1.314 . S
N575 C573 1.279 . S
C576 C573 1.358 . S
C576 C577 1.356 . S
C576 H613 0.930 . S
C577 C574 1.348 . S
C577 C576 1.356 . S
H578 C572 0.930 . S
H579 C573 0.930 . S
C580 N581 1.314 . S
C580 C582 1.353 . S
C580 H586 0.930 . S
N581 Li531 1.990 . S
N581 C580 1.314 . S
N581 C584 1.279 . S
C582 C580 1.353 . S
C582 C585 1.348 . S
C582 H614 0.929 . S
C583 C584 1.358 . S
C583 C585 1.356 . S
C583 H615 0.930 . S
C584 N581 1.279 . S
C584 C583 1.358 . S
C584 H587 0.930 . S
C585 C582 1.348 . S
C585 C583 1.356 . S
H586 C580 0.930 . S
H587 C584 0.930 . S
O588 Li528 1.956 . S
O588 Li529 1.970 . S
O588 Li530 1.961 . S
O588 C532 1.325 . S
O589 Li528 1.970 . S
O589 Li529 1.956 . S
O589 Li531 1.961 . S
O589 C538 1.325 . S
O590 Li528 1.961 . S
O590 Li530 1.956 . S
O590 Li531 1.970 . S
O590 C560 1.325 . S
O591 Li529 1.961 . S
O591 Li530 1.970 . S
O591 Li531 1.956 . S
O591 C566 1.325 . S
H592 C534 0.929 . S
H593 C535 0.930 . S
H594 C536 0.930 . S
H595 C537 0.930 . S
H596 C539 0.930 . S
H597 C541 0.929 . S
H598 C542 0.930 . S
H599 C543 0.930 . S
H600 C546 0.930 . S
H601 C549 0.929 . S
H602 C554 0.929 . S
H603 C555 0.930 . S
H604 C562 0.929 . S
H605 C563 0.930 . S
H606 C564 0.930 . S
H607 C565 0.930 . S
H608 C567 0.929 . S
H609 C568 0.930 . S
H610 C569 0.930 . S
H611 C570 0.930 . S
H612 C574 0.929 . S
H613 C576 0.930 . S
H614 C582 0.929 . S
H615 C583 0.930 . S
Li616 N633 1.990 . S
Li616 O676 1.956 . S
Li616 O677 1.970 . S
Li616 O678 1.961 . S
Li617 N641 1.990 . S
Li617 O676 1.970 . S
Li617 O677 1.956 . S
Li617 O679 1.961 . S
Li618 N663 1.990 . S
Li618 O676 1.961 . S
Li618 O678 1.956 . S
Li618 O679 1.970 . S
Li619 N669 1.990 . S
Li619 O677 1.961 . S
Li619 O678 1.970 . S
Li619 O679 1.956 . S
C620 C622 1.348 . S
C620 C623 1.356 . S
C620 O676 1.325 . S
N621 C624 1.314 . S
N621 C625 1.279 . S
C622 C620 1.348 . S
C622 C624 1.353 . S
C622 H680 0.929 . S
C623 C620 1.356 . S
C623 C625 1.358 . S
C623 H681 0.930 . S
C624 N621 1.314 . S
C624 C622 1.353 . S
C624 H682 0.930 . S
C625 N621 1.279 . S
C625 C623 1.358 . S
C625 H683 0.930 . S
C626 C629 1.348 . S
C626 C630 1.356 . S
C626 O677 1.325 . S
C627 N628 1.279 . S
C627 C630 1.358 . S
C627 H684 0.930 . S
N628 C627 1.279 . S
N628 C631 1.314 . S
C629 C626 1.348 . S
C629 C631 1.353 . S
C629 H685 0.929 . S
C630 C626 1.356 . S
C630 C627 1.358 . S
C630 H686 0.930 . S
C631 N628 1.314 . S
C631 C629 1.353 . S
C631 H687 0.930 . S
C632 N633 1.314 . S
C632 C637 1.353 . S
C632 H638 0.930 . S
N633 Li616 1.990 . S
N633 C632 1.314 . S
N633 C635 1.279 . S
C634 C635 1.358 . S
C634 C636 1.356 . S
C634 H688 0.930 . S
C635 N633 1.279 . S
C635 C634 1.358 . S
C635 H639 0.930 . S
C636 C634 1.356 . S
C636 C637 1.348 . S
C637 C632 1.353 . S
C637 C636 1.348 . S
C637 H689 0.929 . S
H638 C632 0.930 . S
H639 C635 0.930 . S
C640 N641 1.314 . S
C640 C642 1.353 . S
C640 H646 0.930 . S
N641 Li617 1.990 . S
N641 C640 1.314 . S
N641 C644 1.279 . S
C642 C640 1.353 . S
C642 C645 1.348 . S
C642 H690 0.929 . S
C643 C644 1.358 . S
C643 C645 1.356 . S
C643 H691 0.930 . S
C644 N641 1.279 . S
C644 C643 1.358 . S
C644 H647 0.930 . S
C645 C642 1.348 . S
C645 C643 1.356 . S
H646 C640 0.930 . S
H647 C644 0.930 . S
C648 C650 1.348 . S
C648 C651 1.356 . S
C648 O678 1.325 . S
N649 C652 1.314 . S
N649 C653 1.279 . S
C650 C648 1.348 . S
C650 C652 1.353 . S
C650 H692 0.929 . S
C651 C648 1.356 . S
C651 C653 1.358 . S
C651 H693 0.930 . S
C652 N649 1.314 . S
C652 C650 1.353 . S
C652 H694 0.930 . S
C653 N649 1.279 . S
C653 C651 1.358 . S
C653 H695 0.930 . S
C654 C655 1.348 . S
C654 C656 1.356 . S
C654 O679 1.325 . S
C655 C654 1.348 . S
C655 C657 1.353 . S
C655 H696 0.929 . S
C656 C654 1.356 . S
C656 C658 1.358 . S
C656 H697 0.930 . S
C657 C655 1.353 . S
C657 N659 1.314 . S
C657 H698 0.930 . S
C658 C656 1.358 . S
C658 N659 1.279 . S
C658 H699 0.930 . S
N659 C657 1.314 . S
N659 C658 1.279 . S
C660 C662 1.353 . S
C660 N663 1.314 . S
C660 H666 0.930 . S
C661 N663 1.279 . S
C661 C664 1.358 . S
C661 H667 0.930 . S
C662 C660 1.353 . S
C662 C665 1.348 . S
C662 H700 0.929 . S
N663 Li618 1.990 . S
N663 C660 1.314 . S
N663 C661 1.279 . S
C664 C661 1.358 . S
C664 C665 1.356 . S
C664 H701 0.930 . S
C665 C662 1.348 . S
C665 C664 1.356 . S
H666 C660 0.930 . S
H667 C661 0.930 . S
C668 N669 1.314 . S
C668 C670 1.353 . S
C668 H674 0.930 . S
N669 Li619 1.990 . S
N669 C668 1.314 . S
N669 C672 1.279 . S
C670 C668 1.353 . S
C670 C673 1.348 . S
C670 H702 0.929 . S
C671 C672 1.358 . S
C671 C673 1.356 . S
C671 H703 0.930 . S
C672 N669 1.279 . S
C672 C671 1.358 . S
C672 H675 0.930 . S
C673 C670 1.348 . S
C673 C671 1.356 . S
H674 C668 0.930 . S
H675 C672 0.930 . S
O676 Li616 1.956 . S
O676 Li617 1.970 . S
O676 Li618 1.961 . S
O676 C620 1.325 . S
O677 Li616 1.970 . S
O677 Li617 1.956 . S
O677 Li619 1.961 . S
O677 C626 1.325 . S
O678 Li616 1.961 . S
O678 Li618 1.956 . S
O678 Li619 1.970 . S
O678 C648 1.325 . S
O679 Li617 1.961 . S
O679 Li618 1.970 . S
O679 Li619 1.956 . S
O679 C654 1.325 . S
H680 C622 0.929 . S
H681 C623 0.930 . S
H682 C624 0.930 . S
H683 C625 0.930 . S
H684 C627 0.930 . S
H685 C629 0.929 . S
H686 C630 0.930 . S
H687 C631 0.930 . S
H688 C634 0.930 . S
H689 C637 0.929 . S
H690 C642 0.929 . S
H691 C643 0.930 . S
H692 C650 0.929 . S
H693 C651 0.930 . S
H694 C652 0.930 . S
H695 C653 0.930 . S
H696 C655 0.929 . S
H697 C656 0.930 . S
H698 C657 0.930 . S
H699 C658 0.930 . S
H700 C662 0.929 . S
H701 C664 0.930 . S
H702 C670 0.929 . S
H703 C671 0.930 . S
C704 C705 1.387 . S
C704 H708 0.950 . S
C704 C713 1.390 1_556 S
C705 C704 1.387 . S
C705 C707 1.387 . S
H706 C713 0.950 . S
C707 C705 1.387 . S
C707 C709 1.390 1_556 S
C707 H711 0.950 . S
H708 C704 0.950 . S
C709 C707 1.390 1_554 S
C709 C710 1.387 . S
C709 H712 0.950 . S
C710 C709 1.387 . S
C710 C713 1.387 . S
H711 C707 0.950 . S
H712 C709 0.950 . S
C713 C704 1.390 1_554 S
C713 H706 0.950 . S
C713 C710 1.387 . S
C714 C715 1.387 . S
C714 H718 0.950 . S
C714 C723 1.390 . S
C715 C714 1.387 . S
C715 C717 1.387 . S
H716 C723 0.950 . S
C717 C715 1.387 . S
C717 C719 1.390 . S
C717 H721 0.950 . S
H718 C714 0.950 . S
C719 C717 1.390 . S
C719 C720 1.387 1_554 S
C719 H722 0.950 . S
C720 C719 1.387 1_556 S
C720 C723 1.387 1_556 S
H721 C717 0.950 . S
H722 C719 0.950 . S
C723 C714 1.390 . S
C723 H716 0.950 . S
C723 C720 1.387 1_554 S
C724 C725 1.387 . S
C724 H728 0.950 . S
C724 C733 1.390 . S
C725 C724 1.387 . S
C725 C727 1.387 . S
H726 C733 0.950 . S
C727 C725 1.387 . S
C727 C729 1.390 . S
C727 H731 0.950 . S
H728 C724 0.950 . S
C729 C727 1.390 . S
C729 C730 1.387 1_554 S
C729 H732 0.950 . S
C730 C729 1.387 1_556 S
C730 C733 1.387 1_556 S
H731 C727 0.950 . S
H732 C729 0.950 . S
C733 C724 1.390 . S
C733 H726 0.950 . S
C733 C730 1.387 1_554 S
C734 C735 1.387 . S
C734 H738 0.950 . S
C734 C743 1.390 1_556 S
C735 C734 1.387 . S
C735 C737 1.387 . S
H736 C743 0.950 . S
C737 C735 1.387 . S
C737 C739 1.390 1_556 S
C737 H741 0.950 . S
H738 C734 0.950 . S
C739 C737 1.390 1_554 S
C739 C740 1.387 . S
C739 H742 0.950 . S
C740 C739 1.387 . S
C740 C743 1.387 . S
H741 C737 0.950 . S
H742 C739 0.950 . S
C743 C734 1.390 1_554 S
C743 H736 0.950 . S
C743 C740 1.387 . S
C744 C745 1.387 . S
C744 H748 0.950 . S
C744 C753 1.390 1_565 S
C745 C744 1.387 . S
C745 C747 1.387 . S
H746 C753 0.950 . S
C747 C745 1.387 . S
C747 C749 1.390 1_565 S
C747 H751 0.950 . S
H748 C744 0.950 . S
C749 C747 1.390 1_545 S
C749 C750 1.387 . S
C749 H752 0.950 . S
C750 C749 1.387 . S
C750 C753 1.387 . S
H751 C747 0.950 . S
H752 C749 0.950 . S
C753 C744 1.390 1_545 S
C753 H746 0.950 . S
C753 C750 1.387 . S
C754 C755 1.387 . S
C754 H758 0.950 . S
C754 C763 1.390 1_455 S
C755 C754 1.387 . S
C755 C757 1.387 . S
H756 C763 0.950 . S
C757 C755 1.387 . S
C757 C759 1.390 1_455 S
C757 H761 0.950 . S
H758 C754 0.950 . S
C759 C757 1.390 1_655 S
C759 C760 1.387 . S
C759 H762 0.950 . S
C760 C759 1.387 . S
C760 C763 1.387 . S
H761 C757 0.950 . S
H762 C759 0.950 . S
C763 C754 1.390 1_655 S
C763 H756 0.950 . S
C763 C760 1.387 . S
C764 C765 1.387 . S
C764 H768 0.950 . S
C764 C773 1.390 1_545 S
C765 C764 1.387 . S
C765 C767 1.387 . S
H766 C773 0.950 . S
C767 C765 1.387 . S
C767 C769 1.390 1_545 S
C767 H771 0.950 . S
H768 C764 0.950 . S
C769 C767 1.390 1_565 S
C769 C770 1.387 . S
C769 H772 0.950 . S
C770 C769 1.387 . S
C770 C773 1.387 . S
H771 C767 0.950 . S
H772 C769 0.950 . S
C773 C764 1.390 1_565 S
C773 H766 0.950 . S
C773 C770 1.387 . S
C774 C775 1.387 . S
C774 H778 0.950 . S
C774 C783 1.390 1_655 S
C775 C774 1.387 . S
C775 C777 1.387 . S
H776 C783 0.950 . S
C777 C775 1.387 . S
C777 C779 1.390 1_655 S
C777 H781 0.950 . S
H778 C774 0.950 . S
C779 C777 1.390 1_455 S
C779 C780 1.387 . S
C779 H782 0.950 . S
C780 C779 1.387 . S
C780 C783 1.387 . S
H781 C777 0.950 . S
H782 C779 0.950 . S
C783 C774 1.390 1_455 S
C783 H776 0.950 . S
C783 C780 1.387 . S
C784 C785 1.387 . S
C784 H788 0.950 . S
C784 C793 1.390 . S
C785 C784 1.387 . S
C785 C787 1.387 . S
H786 C793 0.950 . S
C787 C785 1.387 . S
C787 C789 1.390 . S
C787 H791 0.950 . S
H788 C784 0.950 . S
C789 C787 1.390 . S
C789 C790 1.387 . S
C789 H792 0.950 . S
C790 C789 1.387 . S
C790 C793 1.387 . S
H791 C787 0.950 . S
H792 C789 0.950 . S
C793 C784 1.390 . S
C793 H786 0.950 . S
C793 C790 1.387 . S
C794 C795 1.387 . S
C794 H798 0.950 . S
C794 C803 1.390 . S
C795 C794 1.387 . S
C795 C797 1.387 . S
H796 C803 0.950 . S
C797 C795 1.387 . S
C797 C799 1.390 . S
C797 H801 0.950 . S
H798 C794 0.950 . S
C799 C797 1.390 . S
C799 C800 1.387 . S
C799 H802 0.950 . S
C800 C799 1.387 . S
C800 C803 1.387 . S
H801 C797 0.950 . S
H802 C799 0.950 . S
C803 C794 1.390 . S
C803 H796 0.950 . S
C803 C800 1.387 . S
C804 C805 1.387 . S
C804 H808 0.950 . S
C804 C813 1.390 . S
C805 C804 1.387 . S
C805 C807 1.387 . S
H806 C813 0.950 . S
C807 C805 1.387 . S
C807 C809 1.390 . S
C807 H811 0.950 . S
H808 C804 0.950 . S
C809 C807 1.390 . S
C809 C810 1.387 . S
C809 H812 0.950 . S
C810 C809 1.387 . S
C810 C813 1.387 . S
H811 C807 0.950 . S
H812 C809 0.950 . S
C813 C804 1.390 . S
C813 H806 0.950 . S
C813 C810 1.387 . S
C814 C815 1.387 . S
C814 H818 0.950 . S
C814 C823 1.390 . S
C815 C814 1.387 . S
C815 C817 1.387 . S
H816 C823 0.950 . S
C817 C815 1.387 . S
C817 C819 1.390 . S
C817 H821 0.950 . S
H818 C814 0.950 . S
C819 C817 1.390 . S
C819 C820 1.387 . S
C819 H822 0.950 . S
C820 C819 1.387 . S
C820 C823 1.387 . S
H821 C817 0.950 . S
H822 C819 0.950 . S
C823 C814 1.390 . S
C823 H816 0.950 . S
C823 C820 1.387 . S
C824 C825 1.387 . S
C824 H828 0.950 . S
C824 C833 1.390 . S
C825 C824 1.387 . S
C825 C827 1.387 . S
H826 C833 0.950 . S
C827 C825 1.387 . S
C827 C829 1.390 . S
C827 H831 0.950 . S
H828 C824 0.950 . S
C829 C827 1.390 . S
C829 C830 1.387 . S
C829 H832 0.950 . S
C830 C829 1.387 . S
C830 C833 1.387 . S
H831 C827 0.950 . S
H832 C829 0.950 . S
C833 C824 1.390 . S
C833 H826 0.950 . S
C833 C830 1.387 . S
C834 C835 1.387 . S
C834 H838 0.950 . S
C834 C843 1.390 . S
C835 C834 1.387 . S
C835 C837 1.387 . S
H836 C843 0.950 . S
C837 C835 1.387 . S
C837 C839 1.390 . S
C837 H841 0.950 . S
H838 C834 0.950 . S
C839 C837 1.390 . S
C839 C840 1.387 . S
C839 H842 0.950 . S
C840 C839 1.387 . S
C840 C843 1.387 . S
H841 C837 0.950 . S
H842 C839 0.950 . S
C843 C834 1.390 . S
C843 H836 0.950 . S
C843 C840 1.387 . S
C844 C845 1.387 . S
C844 H848 0.950 . S
C844 C853 1.390 . S
C845 C844 1.387 . S
C845 C847 1.387 . S
H846 C853 0.950 . S
C847 C845 1.387 . S
C847 C849 1.390 . S
C847 H851 0.950 . S
H848 C844 0.950 . S
C849 C847 1.390 . S
C849 C850 1.387 . S
C849 H852 0.950 . S
C850 C849 1.387 . S
C850 C853 1.387 . S
H851 C847 0.950 . S
H852 C849 0.950 . S
C853 C844 1.390 . S
C853 H846 0.950 . S
C853 C850 1.387 . S
C854 C855 1.387 . S
C854 H858 0.950 . S
C854 C863 1.390 . S
C855 C854 1.387 . S
C855 C857 1.387 . S
H856 C863 0.950 . S
C857 C855 1.387 . S
C857 C859 1.390 . S
C857 H861 0.950 . S
H858 C854 0.950 . S
C859 C857 1.390 . S
C859 C860 1.387 . S
C859 H862 0.950 . S
C860 C859 1.387 . S
C860 C863 1.387 . S
H861 C857 0.950 . S
H862 C859 0.950 . S
C863 C854 1.390 . S
C863 H856 0.950 . S
C863 C860 1.387 . S
C705 C49 1.517 . S
C710 C284 1.517 . S
C715 C29 1.517 . S
C720 C145 1.517 . S
C725 C108 1.517 . S
C730 C233 1.517 . S
C735 C321 1.517 . S
C740 C196 1.517 . S
C745 C401 1.517 . S
C750 C645 1.517 . S
C755 C497 1.517 . S
C760 C381 1.517 . S
C765 C577 1.517 . S
C770 C460 1.517 . S
C775 C665 1.517 . S
C780 C557 1.517 . S
C785 C585 1.382 . S
C790 C20 1.380 . S
C795 C117 1.382 . S
C800 C673 1.379 . S
C805 C409 1.382 . S
C810 C205 1.380 . S
C815 C489 1.382 . S
C820 C293 1.379 . S
C825 C469 1.382 . S
C830 C313 1.385 . S
C835 C57 1.382 . S
C840 C548 1.384 . S
C845 C137 1.382 . S
C850 C636 1.385 . S
C855 C225 1.382 . S
C860 C372 1.385 . S
