# Generated by pormake.
# Topology vbw, (6)-cn, num edge types: 1
# Building blocks:
#     Node 0, Type 0, BuildingBlock: IZENUY_clean_sbu_0, # of connection points: 6
#     Node 1, Type 0, BuildingBlock: IZENUY_clean_sbu_0, # of connection points: 6
#     Node 2, Type 0, BuildingBlock: IZENUY_clean_sbu_0, # of connection points: 6
#     Node 3, Type 0, BuildingBlock: IZENUY_clean_sbu_0, # of connection points: 6
#     Node 4, Type 0, BuildingBlock: IZENUY_clean_sbu_0, # of connection points: 6
#     Node 5, Type 0, BuildingBlock: IZENUY_clean_sbu_0, # of connection points: 6
#     Node 6, Type 0, BuildingBlock: IZENUY_clean_sbu_0, # of connection points: 6
#     Node 7, Type 0, BuildingBlock: IZENUY_clean_sbu_0, # of connection points: 6
#     Node 8, Type 0, BuildingBlock: IZENUY_clean_sbu_0, # of connection points: 6
#     Node 9, Type 0, BuildingBlock: IZENUY_clean_sbu_0, # of connection points: 6
#     Node 10, Type 0, BuildingBlock: IZENUY_clean_sbu_0, # of connection points: 6
#     Node 11, Type 0, BuildingBlock: IZENUY_clean_sbu_0, # of connection points: 6
#     Node 12, Type 0, BuildingBlock: IZENUY_clean_sbu_0, # of connection points: 6
#     Node 13, Type 0, BuildingBlock: IZENUY_clean_sbu_0, # of connection points: 6
#     Node 14, Type 0, BuildingBlock: IZENUY_clean_sbu_0, # of connection points: 6
#     Node 15, Type 0, BuildingBlock: IZENUY_clean_sbu_0, # of connection points: 6
#     Edge 16, Type (0, 0), BuildingBlock: OJICUG_clean_linker_0, # of connection points: 2
#     Edge 17, Type (0, 0), BuildingBlock: OJICUG_clean_linker_0, # of connection points: 2
#     Edge 18, Type (0, 0), BuildingBlock: OJICUG_clean_linker_0, # of connection points: 2
#     Edge 19, Type (0, 0), BuildingBlock: OJICUG_clean_linker_0, # of connection points: 2
#     Edge 20, Type (0, 0), BuildingBlock: OJICUG_clean_linker_0, # of connection points: 2
#     Edge 21, Type (0, 0), BuildingBlock: OJICUG_clean_linker_0, # of connection points: 2
#     Edge 22, Type (0, 0), BuildingBlock: OJICUG_clean_linker_0, # of connection points: 2
#     Edge 23, Type (0, 0), BuildingBlock: OJICUG_clean_linker_0, # of connection points: 2
#     Edge 24, Type (0, 0), BuildingBlock: OJICUG_clean_linker_0, # of connection points: 2
#     Edge 25, Type (0, 0), BuildingBlock: OJICUG_clean_linker_0, # of connection points: 2
#     Edge 26, Type (0, 0), BuildingBlock: OJICUG_clean_linker_0, # of connection points: 2
#     Edge 27, Type (0, 0), BuildingBlock: OJICUG_clean_linker_0, # of connection points: 2
#     Edge 28, Type (0, 0), BuildingBlock: OJICUG_clean_linker_0, # of connection points: 2
#     Edge 29, Type (0, 0), BuildingBlock: OJICUG_clean_linker_0, # of connection points: 2
#     Edge 30, Type (0, 0), BuildingBlock: OJICUG_clean_linker_0, # of connection points: 2
#     Edge 31, Type (0, 0), BuildingBlock: OJICUG_clean_linker_0, # of connection points: 2
#     Edge 32, Type (0, 0), BuildingBlock: OJICUG_clean_linker_0, # of connection points: 2
#     Edge 33, Type (0, 0), BuildingBlock: OJICUG_clean_linker_0, # of connection points: 2
#     Edge 34, Type (0, 0), BuildingBlock: OJICUG_clean_linker_0, # of connection points: 2
#     Edge 35, Type (0, 0), BuildingBlock: OJICUG_clean_linker_0, # of connection points: 2
#     Edge 36, Type (0, 0), BuildingBlock: OJICUG_clean_linker_0, # of connection points: 2
#     Edge 37, Type (0, 0), BuildingBlock: OJICUG_clean_linker_0, # of connection points: 2
#     Edge 38, Type (0, 0), BuildingBlock: OJICUG_clean_linker_0, # of connection points: 2
#     Edge 39, Type (0, 0), BuildingBlock: OJICUG_clean_linker_0, # of connection points: 2
#     Edge 40, Type (0, 0), BuildingBlock: OJICUG_clean_linker_0, # of connection points: 2
#     Edge 41, Type (0, 0), BuildingBlock: OJICUG_clean_linker_0, # of connection points: 2
#     Edge 42, Type (0, 0), BuildingBlock: OJICUG_clean_linker_0, # of connection points: 2
#     Edge 43, Type (0, 0), BuildingBlock: OJICUG_clean_linker_0, # of connection points: 2
#     Edge 44, Type (0, 0), BuildingBlock: OJICUG_clean_linker_0, # of connection points: 2
#     Edge 45, Type (0, 0), BuildingBlock: OJICUG_clean_linker_0, # of connection points: 2
#     Edge 46, Type (0, 0), BuildingBlock: OJICUG_clean_linker_0, # of connection points: 2
#     Edge 47, Type (0, 0), BuildingBlock: OJICUG_clean_linker_0, # of connection points: 2
#     Edge 48, Type (0, 0), BuildingBlock: OJICUG_clean_linker_0, # of connection points: 2
#     Edge 49, Type (0, 0), BuildingBlock: OJICUG_clean_linker_0, # of connection points: 2
#     Edge 50, Type (0, 0), BuildingBlock: OJICUG_clean_linker_0, # of connection points: 2
#     Edge 51, Type (0, 0), BuildingBlock: OJICUG_clean_linker_0, # of connection points: 2
#     Edge 52, Type (0, 0), BuildingBlock: OJICUG_clean_linker_0, # of connection points: 2
#     Edge 53, Type (0, 0), BuildingBlock: OJICUG_clean_linker_0, # of connection points: 2
#     Edge 54, Type (0, 0), BuildingBlock: OJICUG_clean_linker_0, # of connection points: 2
#     Edge 55, Type (0, 0), BuildingBlock: OJICUG_clean_linker_0, # of connection points: 2
#     Edge 56, Type (0, 0), BuildingBlock: OJICUG_clean_linker_0, # of connection points: 2
#     Edge 57, Type (0, 0), BuildingBlock: OJICUG_clean_linker_0, # of connection points: 2
#     Edge 58, Type (0, 0), BuildingBlock: OJICUG_clean_linker_0, # of connection points: 2
#     Edge 59, Type (0, 0), BuildingBlock: OJICUG_clean_linker_0, # of connection points: 2
#     Edge 60, Type (0, 0), BuildingBlock: OJICUG_clean_linker_0, # of connection points: 2
#     Edge 61, Type (0, 0), BuildingBlock: OJICUG_clean_linker_0, # of connection points: 2
#     Edge 62, Type (0, 0), BuildingBlock: OJICUG_clean_linker_0, # of connection points: 2
#     Edge 63, Type (0, 0), BuildingBlock: OJICUG_clean_linker_0, # of connection points: 2
# Relax obj value: 0.218
# Max RMSD: 0.233
# Mean RMSD: 0.232
data_MOF--net-vbw--node1-IZENUY_clean_sbu_0--edge1-OJICUG_clean_linker_0
_symmetry_space_group_name_H-M    P1
_symmetry_Int_Tables_number       1
_symmetry_cell_setting            triclinic
loop_
_symmetry_equiv_pos_as_xyz
'x, y, z'
_cell_length_a     41.205361
_cell_length_b     33.481125
_cell_length_c     20.126527
_cell_angle_alpha  90.000036
_cell_angle_beta   90.000176
_cell_angle_gamma 89.998454
loop_
_atom_site_label
_atom_site_type_symbol
_atom_site_fract_x
_atom_site_fract_y
_atom_site_fract_z
_atom_type_partial_charge
Fe0 Fe 0.1341 0.23835 0.12127 0.0
Fe1 Fe 0.13116 0.15872 0.19627 0.0
O2 O 0.14701 0.18849 0.13151 0.0
Fe3 Fe 0.17634 0.16845 0.07734 0.0
O4 O 0.20551 0.20472 0.10385 0.0
O5 O 0.17364 0.25635 0.08948 0.0
O6 O 0.14816 0.25157 0.2029 0.0
C7 C 0.13809 0.23576 0.2556 0.0
C8 C 0.13851 0.2192 0.99212 0.0
O9 O 0.12509 0.20124 0.25464 0.0
C10 C 0.13581 0.10517 0.0859 0.0
O11 O 0.09226 0.22878 0.15051 0.0
O12 O 0.09057 0.16351 0.16345 0.0
O13 O 0.16403 0.19919 1.00468 0.0
O14 O 0.11948 0.22841 0.03848 0.0
C15 C 0.19569 0.13979 0.20284 0.0
O16 O 0.13437 0.11108 0.14852 0.0
O17 O 0.14841 0.13099 0.04855 0.0
C18 C 0.0763 0.19634 0.15366 0.0
O19 O 0.17108 0.15287 0.23302 0.0
O20 O 0.19478 0.13504 0.14021 0.0
C21 C 0.20189 0.24134 0.09342 0.0
Fe22 Fe 0.3808 0.89491 0.69625 0.0
Fe23 Fe 0.33562 0.88517 0.57732 0.0
O24 O 0.36496 0.86514 0.63148 0.0
Fe25 Fe 0.37788 0.81528 0.62122 0.0
O26 O 0.36384 0.80204 0.70284 0.0
O27 O 0.38688 0.85238 0.75461 0.0
O28 O 0.34088 0.90074 0.733 0.0
C29 C 0.31627 0.91382 0.70282 0.0
C30 C 0.43567 0.85733 0.65363 0.0
O31 O 0.31718 0.91858 0.64021 0.0
C32 C 0.37346 0.83445 0.49208 0.0
O33 O 0.37758 0.94256 0.64852 0.0
O34 O 0.36355 0.92265 0.54854 0.0
O35 O 0.41973 0.82487 0.65046 0.0
O36 O 0.42139 0.89015 0.66344 0.0
C37 C 0.3101 0.81228 0.59338 0.0
O38 O 0.34793 0.85446 0.50465 0.0
O39 O 0.3925 0.82525 0.53843 0.0
C40 C 0.37614 0.94846 0.5859 0.0
O41 O 0.30647 0.84889 0.60383 0.0
O42 O 0.33835 0.79728 0.58943 0.0
C43 C 0.37389 0.81785 0.75555 0.0
Fe44 Fe 0.13411 0.81528 0.9326 0.0
Fe45 Fe 0.13119 0.89491 0.85759 0.0
O46 O 0.14703 0.86514 0.92236 0.0
Fe47 Fe 0.17637 0.88516 0.97652 0.0
O48 O 0.20552 0.84888 0.95 0.0
O49 O 0.17364 0.79727 0.96439 0.0
O50 O 0.14816 0.80204 0.85099 0.0
C51 C 0.1381 0.81786 0.79827 0.0
C52 C 0.13853 0.83443 0.06176 0.0
O53 O 0.12511 0.85239 0.79922 0.0
C54 C 0.13584 0.94845 0.96796 0.0
O55 O 0.09227 0.82487 0.90337 0.0
O56 O 0.0906 0.89014 0.89039 0.0
O57 O 0.16406 0.85444 0.04919 0.0
O58 O 0.11949 0.82523 1.0154 0.0
C59 C 0.19572 0.91382 0.85104 0.0
O60 O 0.13441 0.94255 0.90534 0.0
O61 O 0.14844 0.92264 1.00532 0.0
C62 C 0.07632 0.85732 0.90018 0.0
O63 O 0.17112 0.90074 0.82085 0.0
O64 O 0.19481 0.91857 0.91365 0.0
C65 C 0.2019 0.81227 0.96044 0.0
Fe66 Fe 0.38076 0.15874 0.35763 0.0
Fe67 Fe 0.33558 0.16846 0.47656 0.0
O68 O 0.36491 0.1885 0.42239 0.0
Fe69 Fe 0.37781 0.23837 0.43263 0.0
O70 O 0.36376 0.25159 0.35101 0.0
O71 O 0.38683 0.20126 0.29926 0.0
O72 O 0.34084 0.15288 0.32088 0.0
C73 C 0.31623 0.1398 0.35107 0.0
C74 C 0.43561 0.19636 0.40022 0.0
O75 O 0.31714 0.13505 0.41369 0.0
C76 C 0.37341 0.21921 0.56179 0.0
O77 O 0.37756 0.11109 0.40537 0.0
O78 O 0.36352 0.131 0.50535 0.0
O79 O 0.41966 0.2288 0.40339 0.0
O80 O 0.42135 0.16352 0.39044 0.0
C81 C 0.31003 0.24135 0.46049 0.0
O82 O 0.34789 0.19919 0.54923 0.0
O83 O 0.39244 0.22842 0.51542 0.0
C84 C 0.37612 0.10519 0.46799 0.0
O85 O 0.30641 0.20473 0.45005 0.0
O86 O 0.33828 0.25636 0.46443 0.0
C87 C 0.37382 0.23578 0.29831 0.0
Fe88 Fe 0.8808 0.895 0.85746 0.0
Fe89 Fe 0.87785 0.81536 0.93245 0.0
O90 O 0.86495 0.86523 0.92222 0.0
Fe91 Fe 0.83561 0.88527 0.97638 0.0
O92 O 0.81718 0.91869 0.91351 0.0
O93 O 0.84088 0.90085 0.82071 0.0
O94 O 0.88687 0.85248 0.79909 0.0
C95 C 0.87387 0.81795 0.79813 0.0
C96 C 0.87616 0.94854 0.96782 0.0
O97 O 0.86379 0.80215 0.85083 0.0
C98 C 0.87344 0.83452 0.06161 0.0
O99 O 0.92139 0.89021 0.89028 0.0
O100 O 0.91969 0.82493 0.90322 0.0
O101 O 0.86355 0.92273 1.00518 0.0
O102 O 0.87759 0.94264 0.90521 0.0
C103 C 0.81006 0.8124 0.96032 0.0
O104 O 0.89247 0.8253 1.01525 0.0
O105 O 0.84792 0.85454 0.04905 0.0
C106 C 0.93565 0.85738 0.90007 0.0
O107 O 0.83831 0.79737 0.96424 0.0
O108 O 0.80644 0.84901 0.94986 0.0
C109 C 0.81627 0.91394 0.85089 0.0
Fe110 Fe 0.67633 0.16856 0.47641 0.0
Fe111 Fe 0.63115 0.15883 0.35748 0.0
O112 O 0.64699 0.18859 0.42226 0.0
Fe113 Fe 0.63408 0.23845 0.43252 0.0
O114 O 0.67361 0.25646 0.46431 0.0
O115 O 0.70549 0.20484 0.4499 0.0
O116 O 0.69477 0.13515 0.41353 0.0
C117 C 0.69568 0.13991 0.35091 0.0
C118 C 0.6385 0.21928 0.56167 0.0
O119 O 0.67107 0.153 0.32073 0.0
C120 C 0.57629 0.19641 0.40012 0.0
O121 O 0.6484 0.13108 0.5052 0.0
O122 O 0.63437 0.11118 0.40522 0.0
O123 O 0.61946 0.22849 0.51532 0.0
O124 O 0.66402 0.19927 0.54909 0.0
C125 C 0.63806 0.23589 0.29819 0.0
O126 O 0.59056 0.16359 0.3903 0.0
O127 O 0.59223 0.22887 0.40329 0.0
C128 C 0.6358 0.10528 0.46783 0.0
O129 O 0.62507 0.20136 0.29913 0.0
O130 O 0.64812 0.25169 0.3509 0.0
C131 C 0.70186 0.24145 0.46037 0.0
Fe132 Fe 0.88076 0.15881 0.19615 0.0
Fe133 Fe 0.87784 0.23844 0.12112 0.0
O134 O 0.86492 0.18858 0.13137 0.0
Fe135 Fe 0.83559 0.16854 0.07721 0.0
O136 O 0.81714 0.13514 0.14009 0.0
O137 O 0.84084 0.15297 0.23289 0.0
O138 O 0.88684 0.20133 0.25451 0.0
C139 C 0.87386 0.23586 0.25545 0.0
C140 C 0.87612 0.10526 0.08578 0.0
O141 O 0.86379 0.25167 0.20274 0.0
C142 C 0.87342 0.21927 0.99197 0.0
O143 O 0.92135 0.16357 0.16334 0.0
O144 O 0.91968 0.22885 0.15035 0.0
O145 O 0.86352 0.13107 0.04842 0.0
O146 O 0.87755 0.11116 0.1484 0.0
C147 C 0.81005 0.24144 0.09327 0.0
O148 O 0.89245 0.22848 0.03832 0.0
O149 O 0.84789 0.19927 1.00455 0.0
C150 C 0.93563 0.19639 0.15354 0.0
O151 O 0.8383 0.25645 0.08934 0.0
O152 O 0.80643 0.20482 0.10373 0.0
C153 C 0.81623 0.1399 0.2027 0.0
Fe154 Fe 0.63415 0.81537 0.62109 0.0
Fe155 Fe 0.67638 0.88529 0.57717 0.0
O156 O 0.64705 0.86524 0.63133 0.0
Fe157 Fe 0.6312 0.895 0.69611 0.0
O158 O 0.62513 0.85247 0.75446 0.0
O159 O 0.6482 0.80215 0.70271 0.0
O160 O 0.67369 0.79738 0.58929 0.0
C161 C 0.70193 0.81241 0.59321 0.0
C162 C 0.57634 0.85738 0.6535 0.0
O163 O 0.70555 0.84902 0.60367 0.0
C164 C 0.63583 0.94855 0.58575 0.0
O165 O 0.61952 0.82532 0.5383 0.0
O166 O 0.66407 0.85456 0.5045 0.0
O167 O 0.59061 0.89021 0.6633 0.0
O168 O 0.5923 0.82494 0.65033 0.0
C169 C 0.69572 0.91394 0.70267 0.0
O170 O 0.64843 0.92275 0.54839 0.0
O171 O 0.6344 0.94265 0.64837 0.0
C172 C 0.63855 0.83455 0.49193 0.0
O173 O 0.69481 0.9187 0.64005 0.0
O174 O 0.67112 0.90085 0.73285 0.0
C175 C 0.63813 0.81795 0.75541 0.0
Fe176 Fe 0.63411 0.73845 0.12108 0.0
Fe177 Fe 0.6312 0.65883 0.19611 0.0
O178 O 0.64703 0.68859 0.13133 0.0
Fe179 Fe 0.67637 0.66856 0.07717 0.0
O180 O 0.70553 0.70484 0.10368 0.0
O181 O 0.67365 0.75646 0.08929 0.0
O182 O 0.64816 0.75169 0.2027 0.0
C183 C 0.63811 0.73588 0.25541 0.0
C184 C 0.63853 0.71928 0.99193 0.0
O185 O 0.62512 0.70135 0.25447 0.0
C186 C 0.63584 0.60527 0.08576 0.0
O187 O 0.59227 0.72887 0.15032 0.0
O188 O 0.5906 0.66359 0.16331 0.0
O189 O 0.66406 0.69928 1.0045 0.0
O190 O 0.6195 0.72849 0.03828 0.0
C191 C 0.69573 0.63991 0.20267 0.0
O192 O 0.63441 0.61118 0.14837 0.0
O193 O 0.64844 0.63109 0.04839 0.0
C194 C 0.57633 0.69641 0.15351 0.0
O195 O 0.67112 0.65299 0.23285 0.0
O196 O 0.69482 0.63516 0.14005 0.0
C197 C 0.7019 0.74145 0.09324 0.0
Fe198 Fe 0.88075 0.395 0.69614 0.0
Fe199 Fe 0.83558 0.38527 0.5772 0.0
O200 O 0.86491 0.36523 0.63138 0.0
Fe201 Fe 0.87781 0.31536 0.62115 0.0
O202 O 0.86375 0.30215 0.70277 0.0
O203 O 0.88682 0.35248 0.75451 0.0
O204 O 0.84083 0.40086 0.73288 0.0
C205 C 0.81623 0.41394 0.70269 0.0
C206 C 0.93561 0.35738 0.65356 0.0
O207 O 0.81714 0.41869 0.64007 0.0
C208 C 0.8734 0.33452 0.49199 0.0
O209 O 0.87755 0.44264 0.64838 0.0
O210 O 0.86351 0.42273 0.54841 0.0
O211 O 0.91965 0.32493 0.65039 0.0
O212 O 0.92134 0.39021 0.66333 0.0
C213 C 0.81003 0.31239 0.59329 0.0
O214 O 0.84789 0.35453 0.50455 0.0
O215 O 0.89243 0.3253 0.53836 0.0
C216 C 0.87611 0.44854 0.58577 0.0
O217 O 0.80641 0.349 0.60372 0.0
O218 O 0.83827 0.29737 0.58935 0.0
C219 C 0.87382 0.31796 0.75548 0.0
Fe220 Fe 0.6341 0.31537 0.9325 0.0
Fe221 Fe 0.63115 0.395 0.85749 0.0
O222 O 0.647 0.36523 0.92226 0.0
Fe223 Fe 0.67634 0.38527 0.97642 0.0
O224 O 0.70551 0.349 0.94991 0.0
O225 O 0.67364 0.29737 0.96429 0.0
O226 O 0.64816 0.30214 0.85088 0.0
C227 C 0.63809 0.31795 0.79817 0.0
C228 C 0.63851 0.33453 0.06165 0.0
O229 O 0.62508 0.35247 0.79913 0.0
C230 C 0.6358 0.44855 0.96785 0.0
O231 O 0.59226 0.32494 0.90326 0.0
O232 O 0.59057 0.39021 0.89031 0.0
O233 O 0.66403 0.35454 0.04909 0.0
O234 O 0.61948 0.32532 1.01529 0.0
C235 C 0.69568 0.41393 0.85092 0.0
O236 O 0.63436 0.44264 0.90524 0.0
O237 O 0.6484 0.42274 1.00521 0.0
C238 C 0.5763 0.35738 0.90011 0.0
O239 O 0.67107 0.40085 0.82074 0.0
O240 O 0.69478 0.41868 0.91354 0.0
C241 C 0.70189 0.31239 0.96036 0.0
Fe242 Fe 0.87789 0.73844 0.43247 0.0
Fe243 Fe 0.88081 0.65881 0.35745 0.0
O244 O 0.86497 0.68858 0.42222 0.0
Fe245 Fe 0.83563 0.66856 0.47638 0.0
O246 O 0.80647 0.70484 0.44986 0.0
O247 O 0.83835 0.75645 0.46425 0.0
O248 O 0.86384 0.75167 0.35085 0.0
C249 C 0.8739 0.73586 0.29814 0.0
C250 C 0.87346 0.71928 0.56162 0.0
O251 O 0.88689 0.70133 0.29909 0.0
C252 C 0.87614 0.60526 0.46781 0.0
O253 O 0.91973 0.72885 0.40324 0.0
O254 O 0.9214 0.66357 0.39027 0.0
O255 O 0.84794 0.69928 0.54904 0.0
O256 O 0.8925 0.72849 0.51526 0.0
C257 C 0.81627 0.6399 0.35088 0.0
O258 O 0.87758 0.61117 0.4052 0.0
O259 O 0.86355 0.63108 0.50517 0.0
C260 C 0.93567 0.69639 0.40007 0.0
O261 O 0.84088 0.65298 0.3207 0.0
O262 O 0.81718 0.63515 0.4135 0.0
C263 C 0.8101 0.74145 0.4603 0.0
Fe264 Fe 0.38076 0.39491 0.85762 0.0
Fe265 Fe 0.37784 0.31529 0.93266 0.0
O266 O 0.36492 0.36515 0.9224 0.0
Fe267 Fe 0.33558 0.38519 0.97656 0.0
O268 O 0.31714 0.41859 0.91368 0.0
O269 O 0.34083 0.40075 0.82088 0.0
O270 O 0.38684 0.35239 0.79927 0.0
C271 C 0.37385 0.31785 0.79833 0.0
C272 C 0.37612 0.44846 0.96797 0.0
O273 O 0.36379 0.30205 0.85104 0.0
C274 C 0.37342 0.33446 0.06181 0.0
O275 O 0.42135 0.39015 0.89043 0.0
O276 O 0.41968 0.32487 0.90342 0.0
O277 O 0.36351 0.42266 1.00534 0.0
O278 O 0.37754 0.44256 0.90536 0.0
C279 C 0.31005 0.31229 0.96051 0.0
O280 O 0.39245 0.32525 1.01545 0.0
O281 O 0.34789 0.35447 0.04923 0.0
C282 C 0.43563 0.35733 0.90023 0.0
O283 O 0.3383 0.29728 0.96445 0.0
O284 O 0.30642 0.3489 0.95005 0.0
C285 C 0.31623 0.41383 0.85106 0.0
Fe286 Fe 0.17638 0.66844 0.47653 0.0
Fe287 Fe 0.1312 0.65872 0.3576 0.0
O288 O 0.14705 0.68848 0.42236 0.0
Fe289 Fe 0.13415 0.73835 0.4326 0.0
O290 O 0.17369 0.75634 0.46439 0.0
O291 O 0.20555 0.70471 0.45002 0.0
O292 O 0.19482 0.63503 0.41366 0.0
C293 C 0.19573 0.63978 0.35104 0.0
C294 C 0.13856 0.71919 0.56176 0.0
O295 O 0.17112 0.65286 0.32085 0.0
C296 C 0.07635 0.69634 0.40019 0.0
O297 O 0.14844 0.63098 0.50532 0.0
O298 O 0.13441 0.61107 0.40535 0.0
O299 O 0.11953 0.72841 0.51539 0.0
O300 O 0.16407 0.69917 0.54919 0.0
C301 C 0.13813 0.73576 0.29827 0.0
O302 O 0.09061 0.66351 0.39041 0.0
O303 O 0.0923 0.72878 0.40336 0.0
C304 C 0.13584 0.60517 0.46796 0.0
O305 O 0.12513 0.70124 0.29923 0.0
O306 O 0.1482 0.75157 0.35097 0.0
C307 C 0.20193 0.74132 0.46047 0.0
Fe308 Fe 0.37785 0.73837 0.12124 0.0
Fe309 Fe 0.33562 0.66846 0.07732 0.0
O310 O 0.36495 0.6885 0.13148 0.0
Fe311 Fe 0.3808 0.65874 0.19625 0.0
O312 O 0.38687 0.70127 0.25461 0.0
O313 O 0.36379 0.75159 0.20286 0.0
O314 O 0.33831 0.75636 0.08944 0.0
C315 C 0.31006 0.74134 0.09337 0.0
C316 C 0.43565 0.69636 0.15363 0.0
O317 O 0.30645 0.70472 0.10383 0.0
C318 C 0.37617 0.60519 0.0859 0.0
O319 O 0.39247 0.72842 0.03844 0.0
O320 O 0.34792 0.69918 1.00465 0.0
O321 O 0.42139 0.66353 0.16343 0.0
O322 O 0.41969 0.72881 0.15047 0.0
C323 C 0.31628 0.6398 0.20282 0.0
O324 O 0.36356 0.631 0.04853 0.0
O325 O 0.3776 0.61109 0.14851 0.0
C326 C 0.37344 0.7192 0.99208 0.0
O327 O 0.31719 0.63505 0.1402 0.0
O328 O 0.34088 0.65289 0.233 0.0
C329 C 0.37387 0.73579 0.25556 0.0
Fe330 Fe 0.13407 0.31528 0.62125 0.0
Fe331 Fe 0.17633 0.38517 0.57735 0.0
O332 O 0.14699 0.36514 0.63151 0.0
Fe333 Fe 0.13115 0.3949 0.69628 0.0
O334 O 0.12507 0.35238 0.75463 0.0
O335 O 0.14812 0.30204 0.70287 0.0
O336 O 0.17361 0.29727 0.58947 0.0
C337 C 0.20186 0.31228 0.59341 0.0
C338 C 0.07628 0.35732 0.65365 0.0
O339 O 0.20549 0.34889 0.60387 0.0
C340 C 0.1358 0.44845 0.58592 0.0
O341 O 0.11946 0.32523 0.53845 0.0
O342 O 0.16402 0.35445 0.50468 0.0
O343 O 0.09056 0.39014 0.66346 0.0
O344 O 0.09223 0.32486 0.65048 0.0
C345 C 0.19568 0.41382 0.70285 0.0
O346 O 0.1484 0.42264 0.54856 0.0
O347 O 0.13437 0.44255 0.64853 0.0
C348 C 0.1385 0.33444 0.4921 0.0
O349 O 0.19477 0.41857 0.64023 0.0
O350 O 0.17107 0.40074 0.73303 0.0
C351 C 0.13805 0.31785 0.75558 0.0
C352 C 0.2263 0.13195 0.31051 0.0
C353 C 0.22637 0.13283 0.24052 0.0
H354 H 0.25442 0.13266 0.4002 0.0
C355 C 0.25644 0.13167 0.20746 0.0
H356 H 0.20363 0.13289 0.33773 0.0
C357 C 0.28562 0.13195 0.24339 0.0
C358 C 0.28555 0.13283 0.31338 0.0
H359 H 0.2575 0.13265 0.15371 0.0
H360 H 0.30829 0.1329 0.21617 0.0
C361 C 0.25549 0.13167 0.34645 0.0
C362 C 0.25647 0.92193 0.84643 0.0
C363 C 0.2264 0.92078 0.81335 0.0
H364 H 0.30832 0.9207 0.83772 0.0
C365 C 0.22633 0.92166 0.74337 0.0
H366 H 0.25753 0.92094 0.90018 0.0
C367 C 0.25552 0.92194 0.70744 0.0
C368 C 0.28559 0.92078 0.74051 0.0
H369 H 0.20367 0.92073 0.71615 0.0
H370 H 0.25446 0.92097 0.65369 0.0
C371 C 0.28566 0.92165 0.8105 0.0
C372 C 0.75647 0.92206 0.70728 0.0
C373 C 0.7264 0.9209 0.74035 0.0
H374 H 0.80832 0.92084 0.71599 0.0
C375 C 0.72634 0.92178 0.81034 0.0
H376 H 0.75753 0.92108 0.65353 0.0
C377 C 0.75553 0.92206 0.84627 0.0
C378 C 0.78559 0.9209 0.8132 0.0
H379 H 0.70367 0.92084 0.83756 0.0
H380 H 0.75446 0.92108 0.90002 0.0
C381 C 0.78566 0.92178 0.74321 0.0
C382 C 0.72629 0.13208 0.24324 0.0
C383 C 0.72636 0.13295 0.31323 0.0
H384 H 0.75442 0.13278 0.15356 0.0
C385 C 0.75643 0.13178 0.3463 0.0
H386 H 0.70363 0.13303 0.21602 0.0
C387 C 0.78562 0.13205 0.31037 0.0
C388 C 0.78555 0.13294 0.24038 0.0
H389 H 0.75749 0.13276 0.40005 0.0
H390 H 0.80828 0.13299 0.33759 0.0
C391 C 0.75548 0.13179 0.20731 0.0
C392 C 0.78566 0.63207 0.24321 0.0
C393 C 0.78559 0.63295 0.3132 0.0
H394 H 0.75754 0.63278 0.15353 0.0
C395 C 0.75553 0.63179 0.34627 0.0
H396 H 0.80833 0.63301 0.21599 0.0
C397 C 0.72634 0.63207 0.31034 0.0
C398 C 0.72641 0.63295 0.24035 0.0
H399 H 0.75447 0.63277 0.40002 0.0
H400 H 0.70367 0.63301 0.33756 0.0
C401 C 0.75647 0.63179 0.20728 0.0
C402 C 0.72629 0.42177 0.74324 0.0
C403 C 0.72636 0.42089 0.81323 0.0
H404 H 0.75441 0.42106 0.65356 0.0
C405 C 0.75643 0.42207 0.8463 0.0
H406 H 0.70362 0.42082 0.71603 0.0
C407 C 0.78562 0.42179 0.81036 0.0
C408 C 0.78555 0.4209 0.74038 0.0
H409 H 0.75749 0.42109 0.90005 0.0
H410 H 0.80828 0.42086 0.83758 0.0
C411 C 0.75548 0.42205 0.70731 0.0
C412 C 0.28561 0.42167 0.74339 0.0
C413 C 0.28554 0.42078 0.81338 0.0
H414 H 0.25749 0.42096 0.65371 0.0
C415 C 0.25548 0.42194 0.84645 0.0
H416 H 0.30828 0.42073 0.71617 0.0
C417 C 0.22629 0.42165 0.81052 0.0
C418 C 0.22636 0.42078 0.74053 0.0
H419 H 0.25442 0.42095 0.9002 0.0
H420 H 0.20362 0.42071 0.83774 0.0
C421 C 0.25642 0.42194 0.70746 0.0
C422 C 0.25553 0.63166 0.20744 0.0
C423 C 0.2856 0.63283 0.24051 0.0
H424 H 0.20368 0.63287 0.21615 0.0
C425 C 0.28567 0.63196 0.3105 0.0
H426 H 0.25447 0.63264 0.15369 0.0
C427 C 0.25648 0.63167 0.34643 0.0
C428 C 0.22641 0.63282 0.31336 0.0
H429 H 0.30833 0.63291 0.33772 0.0
H430 H 0.25754 0.63266 0.40018 0.0
C431 C 0.22634 0.63193 0.24337 0.0
C432 C 0.11502 0.275 0.92376 0.0
C433 C 0.13623 0.24204 0.92898 0.0
H434 H 0.09947 0.32537 0.86597 0.0
C435 C 0.15791 0.23453 0.87667 0.0
H436 H 0.09818 0.28205 0.96338 0.0
C437 C 0.15858 0.25946 0.82094 0.0
C438 C 0.13787 0.29283 0.81638 0.0
H439 H 0.17479 0.20978 0.87924 0.0
H440 H 0.17569 0.2528 0.78158 0.0
C441 C 0.11601 0.30027 0.86835 0.0
C442 C 0.39695 0.77866 0.4237 0.0
C443 C 0.37573 0.81161 0.42894 0.0
H444 H 0.41249 0.72828 0.36591 0.0
C445 C 0.35403 0.81911 0.37665 0.0
H446 H 0.41379 0.77161 0.46331 0.0
C447 C 0.35335 0.79418 0.32093 0.0
C448 C 0.37407 0.76081 0.31636 0.0
H449 H 0.33715 0.84386 0.37923 0.0
H450 H 0.33623 0.80083 0.28159 0.0
C451 C 0.39594 0.75338 0.3683 0.0
C452 C 0.11606 0.75335 0.18552 0.0
C453 C 0.13793 0.76078 0.23747 0.0
H454 H 0.09821 0.77157 0.09051 0.0
C455 C 0.15864 0.79416 0.2329 0.0
H456 H 0.09952 0.72824 0.18791 0.0
C457 C 0.15795 0.81909 0.17718 0.0
C458 C 0.13626 0.81158 0.12489 0.0
H459 H 0.17576 0.80082 0.27224 0.0
H460 H 0.17483 0.84384 0.1746 0.0
C461 C 0.11505 0.77862 0.13012 0.0
C462 C 0.3959 0.30027 0.68556 0.0
C463 C 0.37404 0.29284 0.73752 0.0
H464 H 0.41373 0.28206 0.59053 0.0
C465 C 0.35333 0.25946 0.73297 0.0
H466 H 0.41244 0.32538 0.68794 0.0
C467 C 0.35401 0.23454 0.67723 0.0
C468 C 0.37569 0.24205 0.62492 0.0
H469 H 0.33623 0.2528 0.77232 0.0
H470 H 0.33713 0.20978 0.67466 0.0
C471 C 0.3969 0.27501 0.63015 0.0
C472 C 0.85404 0.81918 0.17705 0.0
C473 C 0.87572 0.81167 0.12474 0.0
H474 H 0.83626 0.80091 0.27213 0.0
C475 C 0.89693 0.77871 0.12996 0.0
H476 H 0.83716 0.84393 0.17448 0.0
C477 C 0.89594 0.75344 0.18537 0.0
C478 C 0.87408 0.76088 0.23733 0.0
H479 H 0.91377 0.77166 0.09034 0.0
H480 H 0.91248 0.72834 0.18775 0.0
C481 C 0.85337 0.79425 0.23278 0.0
C482 C 0.61501 0.27508 0.63004 0.0
C483 C 0.63622 0.24213 0.6248 0.0
H484 H 0.59947 0.32546 0.68783 0.0
C485 C 0.65792 0.23463 0.67709 0.0
H486 H 0.59816 0.28212 0.59043 0.0
C487 C 0.65861 0.25956 0.73281 0.0
C488 C 0.63789 0.29293 0.73738 0.0
H489 H 0.67481 0.20988 0.67451 0.0
H490 H 0.67572 0.25291 0.77215 0.0
C491 C 0.61602 0.30035 0.68544 0.0
C492 C 0.85331 0.25957 0.82084 0.0
C493 C 0.87402 0.29294 0.81627 0.0
H494 H 0.83711 0.20988 0.87913 0.0
C495 C 0.89589 0.30036 0.86822 0.0
H496 H 0.83619 0.25291 0.7815 0.0
C497 C 0.8969 0.27508 0.92361 0.0
C498 C 0.87569 0.24213 0.92885 0.0
H499 H 0.91243 0.32547 0.86583 0.0
H500 H 0.91375 0.28213 0.96323 0.0
C501 C 0.85399 0.23463 0.87655 0.0
C502 C 0.61606 0.75347 0.36817 0.0
C503 C 0.63791 0.76091 0.31621 0.0
H504 H 0.59822 0.77169 0.4632 0.0
C505 C 0.65862 0.79428 0.32076 0.0
H506 H 0.59952 0.72836 0.36579 0.0
C507 C 0.65795 0.81921 0.37649 0.0
C508 C 0.63627 0.8117 0.4288 0.0
H509 H 0.67573 0.80094 0.2814 0.0
H510 H 0.67483 0.84397 0.37906 0.0
C511 C 0.61506 0.77874 0.42358 0.0
C512 C 0.61505 0.77509 0.92356 0.0
C513 C 0.63626 0.74213 0.9288 0.0
H514 H 0.59952 0.82547 0.86577 0.0
C515 C 0.65795 0.73462 0.8765 0.0
H516 H 0.59821 0.78214 0.96317 0.0
C517 C 0.65864 0.75955 0.82077 0.0
C518 C 0.63793 0.79293 0.81621 0.0
H519 H 0.67483 0.70986 0.87908 0.0
H520 H 0.67575 0.75289 0.78143 0.0
C521 C 0.61606 0.80036 0.86816 0.0
C522 C 0.85401 0.31918 0.37654 0.0
C523 C 0.87569 0.31167 0.42886 0.0
H524 H 0.83623 0.30092 0.28145 0.0
C525 C 0.89689 0.27871 0.42364 0.0
H526 H 0.83713 0.34394 0.37911 0.0
C527 C 0.8959 0.25344 0.36823 0.0
C528 C 0.87404 0.26088 0.31626 0.0
H529 H 0.91373 0.27165 0.46326 0.0
H530 H 0.91243 0.22833 0.36585 0.0
C531 C 0.85333 0.29426 0.32081 0.0
C532 C 0.65791 0.3192 0.1771 0.0
C533 C 0.63622 0.31169 0.12479 0.0
H534 H 0.67569 0.30093 0.27218 0.0
C535 C 0.61501 0.27874 0.13002 0.0
H536 H 0.6748 0.34395 0.17452 0.0
C537 C 0.61601 0.25347 0.18543 0.0
C538 C 0.63787 0.2609 0.23739 0.0
H539 H 0.59817 0.27169 0.0904 0.0
H540 H 0.59946 0.22837 0.18782 0.0
C541 C 0.65859 0.29428 0.23283 0.0
C542 C 0.85403 0.73463 0.67704 0.0
C543 C 0.87573 0.74214 0.62475 0.0
H544 H 0.83623 0.75291 0.77209 0.0
C545 C 0.89695 0.77509 0.62999 0.0
H546 H 0.83715 0.70988 0.67445 0.0
C547 C 0.89594 0.80036 0.68539 0.0
C548 C 0.87406 0.79294 0.73733 0.0
H549 H 0.91379 0.78213 0.59038 0.0
H550 H 0.91248 0.82546 0.68778 0.0
C551 C 0.85335 0.75957 0.73276 0.0
C552 C 0.35331 0.29418 0.23295 0.0
C553 C 0.37402 0.26081 0.23751 0.0
H554 H 0.33712 0.34387 0.17465 0.0
C555 C 0.39589 0.25338 0.18557 0.0
H556 H 0.3362 0.30084 0.27229 0.0
C557 C 0.3969 0.27866 0.13017 0.0
C558 C 0.37569 0.31161 0.12493 0.0
H559 H 0.41244 0.22827 0.18795 0.0
H560 H 0.41375 0.27161 0.09056 0.0
C561 C 0.354 0.31912 0.17723 0.0
C562 C 0.15863 0.75946 0.73292 0.0
C563 C 0.13792 0.79284 0.73747 0.0
H564 H 0.17484 0.70978 0.67463 0.0
C565 C 0.11606 0.80027 0.68551 0.0
H566 H 0.17573 0.7528 0.77228 0.0
C567 C 0.11506 0.775 0.6301 0.0
C568 C 0.13627 0.74204 0.62488 0.0
H569 H 0.09952 0.82538 0.68788 0.0
H570 H 0.09823 0.78205 0.59048 0.0
C571 C 0.15795 0.73453 0.6772 0.0
C572 C 0.35404 0.73453 0.87664 0.0
C573 C 0.37573 0.74205 0.92895 0.0
H574 H 0.33627 0.7528 0.78155 0.0
C575 C 0.39694 0.775 0.92372 0.0
H576 H 0.33716 0.70978 0.87921 0.0
C577 C 0.39594 0.80027 0.86832 0.0
C578 C 0.37408 0.79284 0.81635 0.0
H579 H 0.41377 0.78205 0.96335 0.0
H580 H 0.41248 0.82538 0.86594 0.0
C581 C 0.35337 0.75946 0.82091 0.0
C582 C 0.15792 0.31909 0.37669 0.0
C583 C 0.13622 0.31159 0.42898 0.0
H584 H 0.17573 0.3008 0.28163 0.0
C585 C 0.11501 0.27863 0.42374 0.0
H586 H 0.17481 0.34384 0.37927 0.0
C587 C 0.11602 0.25336 0.36834 0.0
C588 C 0.13789 0.26078 0.3164 0.0
H589 H 0.09817 0.27159 0.46335 0.0
H590 H 0.09948 0.22826 0.36595 0.0
C591 C 0.15861 0.29415 0.32096 0.0
C592 C 0.02288 0.1609 0.15595 0.0
C593 C 0.04032 0.19691 0.15192 0.0
H594 H 0.97656 0.13251 0.15941 0.0
C595 C 0.02299 0.23299 0.1469 0.0
H596 H 0.03534 0.13249 0.15947 0.0
C597 C 0.98897 0.23301 0.14687 0.0
C598 C 0.97162 0.19693 0.15186 0.0
H599 H 0.03566 0.26126 0.14349 0.0
H600 H 0.97631 0.26128 0.14343 0.0
C601 C 0.98904 0.16091 0.15592 0.0
C602 C 0.48901 0.82071 0.64686 0.0
C603 C 0.47166 0.85679 0.65188 0.0
H604 H 0.5357 0.79246 0.64338 0.0
C605 C 0.48908 0.89281 0.65592 0.0
H606 H 0.47635 0.79244 0.64344 0.0
C607 C 0.52292 0.89282 0.65589 0.0
C608 C 0.54036 0.85681 0.65182 0.0
H609 H 0.4766 0.92121 0.65944 0.0
H610 H 0.53538 0.92123 0.65939 0.0
C611 C 0.52302 0.82073 0.64683 0.0
C612 C 0.98897 0.82072 0.90682 0.0
C613 C 0.97164 0.85681 0.90181 0.0
H614 H 0.03564 0.79243 0.91027 0.0
C615 C 0.98908 0.89281 0.89779 0.0
H616 H 0.97629 0.79246 0.91022 0.0
C617 C 0.02291 0.8928 0.89782 0.0
C618 C 0.04034 0.85678 0.90187 0.0
H619 H 0.97661 0.92122 0.89429 0.0
H620 H 0.03539 0.9212 0.89434 0.0
C621 C 0.02298 0.82071 0.90685 0.0
C622 C 0.48893 0.23301 0.4069 0.0
C623 C 0.4716 0.19693 0.40191 0.0
H624 H 0.53561 0.2613 0.41028 0.0
C625 C 0.48904 0.16092 0.39786 0.0
H626 H 0.47626 0.26128 0.41033 0.0
C627 C 0.52288 0.16093 0.39783 0.0
C628 C 0.5403 0.19696 0.40186 0.0
H629 H 0.47658 0.13251 0.39437 0.0
H630 H 0.53536 0.13253 0.39432 0.0
C631 C 0.52295 0.23303 0.40687 0.0
C632 C 0.52299 0.73303 0.14683 0.0
C633 C 0.54034 0.69696 0.15182 0.0
H634 H 0.4763 0.76128 0.14345 0.0
C635 C 0.52292 0.66093 0.15588 0.0
H636 H 0.53564 0.7613 0.1434 0.0
C637 C 0.48908 0.66092 0.15591 0.0
C638 C 0.47164 0.69693 0.15188 0.0
H639 H 0.5354 0.63253 0.15938 0.0
H640 H 0.47662 0.63251 0.15943 0.0
C641 C 0.48897 0.73301 0.14687 0.0
C642 C 0.98904 0.39282 0.65591 0.0
C643 C 0.9716 0.35681 0.65186 0.0
H644 H 0.03535 0.4212 0.65944 0.0
C645 C 0.98893 0.32072 0.64689 0.0
H646 H 0.97657 0.42123 0.6594 0.0
C647 C 0.02295 0.32071 0.64691 0.0
C648 C 0.0403 0.35678 0.65191 0.0
H649 H 0.97626 0.29246 0.64346 0.0
H650 H 0.03561 0.29243 0.6435 0.0
C651 C 0.02288 0.3928 0.65594 0.0
C652 C 0.52298 0.32073 0.90687 0.0
C653 C 0.54031 0.35681 0.90185 0.0
H654 H 0.47631 0.29244 0.91034 0.0
C655 C 0.52287 0.39282 0.89782 0.0
H656 H 0.53566 0.29246 0.91028 0.0
C657 C 0.48903 0.39281 0.89786 0.0
C658 C 0.47161 0.35679 0.90192 0.0
H659 H 0.53534 0.42123 0.89431 0.0
H660 H 0.47655 0.42121 0.89436 0.0
C661 C 0.48897 0.32072 0.9069 0.0
C662 C 0.02303 0.73299 0.40685 0.0
C663 C 0.04036 0.69691 0.40188 0.0
H664 H 0.97635 0.76128 0.41023 0.0
C665 C 0.02292 0.6609 0.39782 0.0
H666 H 0.0357 0.76126 0.41028 0.0
C667 C 0.98908 0.66091 0.39779 0.0
C668 C 0.97166 0.69694 0.40181 0.0
H669 H 0.03539 0.63249 0.39433 0.0
H670 H 0.97661 0.63251 0.39428 0.0
C671 C 0.98901 0.73301 0.40682 0.0
C672 C 0.12786 0.0309 0.09627 0.0
C673 C 0.12919 0.06525 0.05645 0.0
H674 H 0.12856 0.96704 0.09937 0.0
C675 C 0.12795 0.0607 0.98677 0.0
H676 H 0.12863 0.03325 0.14993 0.0
C677 C 0.12786 1.02272 0.95759 0.0
C678 C 0.12921 0.98838 0.99741 0.0
H679 H 0.12852 0.08658 0.9545 0.0
H680 H 0.12863 1.02038 0.90394 0.0
C681 C 0.12796 0.99292 0.06709 0.0
C682 C 0.38409 1.02273 0.59629 0.0
C683 C 0.38276 0.98839 0.55646 0.0
H684 H 0.3834 0.08659 0.5994 0.0
C685 C 0.38401 0.99294 0.48679 0.0
H686 H 0.38332 1.02039 0.64994 0.0
C687 C 0.3841 0.03093 0.45761 0.0
C688 C 0.38275 0.06527 0.49743 0.0
H689 H 0.38344 0.96706 0.4545 0.0
H690 H 0.38334 0.03327 0.40395 0.0
C691 C 0.384 0.06071 0.56711 0.0
C692 C 0.88409 0.031 0.09615 0.0
C693 C 0.88274 0.06534 0.05633 0.0
H694 H 0.88343 0.96713 0.09924 0.0
C695 C 0.88399 0.06079 0.98665 0.0
H696 H 0.88333 0.03334 0.1498 0.0
C697 C 0.8841 1.02281 0.95746 0.0
C698 C 0.88277 0.98847 0.99728 0.0
H699 H 0.88341 0.08668 0.95437 0.0
H700 H 0.88333 1.02047 0.90381 0.0
C701 C 0.88401 0.99302 0.06696 0.0
C702 C 0.62794 0.0608 0.56695 0.0
C703 C 0.62919 0.06535 0.49727 0.0
H704 H 0.62862 1.02047 0.64979 0.0
C705 C 0.62785 0.03101 0.45745 0.0
H706 H 0.62852 0.08668 0.59923 0.0
C707 C 0.62795 0.99303 0.48663 0.0
C708 C 0.6292 0.98848 0.55631 0.0
H709 H 0.62862 0.03335 0.4038 0.0
H710 H 0.62854 0.96715 0.45435 0.0
C711 C 0.62785 1.02282 0.59613 0.0
C712 C 0.62786 0.53101 0.09615 0.0
C713 C 0.62921 0.56535 0.05632 0.0
H714 H 0.62852 0.46715 0.09925 0.0
C715 C 0.62796 0.5608 0.98664 0.0
H716 H 0.62863 0.53336 0.1498 0.0
C717 C 0.62785 0.52282 0.95746 0.0
C718 C 0.62919 0.48848 0.99729 0.0
H719 H 0.62855 0.58668 0.95436 0.0
H720 H 0.62862 0.52047 0.90381 0.0
C721 C 0.62794 0.49303 0.06697 0.0
C722 C 0.88401 0.56079 0.56694 0.0
C723 C 0.88276 0.56534 0.49726 0.0
H724 H 0.88333 0.52047 0.64978 0.0
C725 C 0.88409 0.53099 0.45745 0.0
H726 H 0.88343 0.58667 0.59922 0.0
C727 C 0.88399 0.49301 0.48663 0.0
C728 C 0.88274 0.48847 0.55631 0.0
H729 H 0.88332 0.53333 0.40379 0.0
H730 H 0.8834 0.46713 0.45436 0.0
C731 C 0.8841 0.52281 0.59613 0.0
C732 C 0.3841 0.52273 0.95759 0.0
C733 C 0.38275 0.48839 0.99742 0.0
H734 H 0.38345 0.58659 0.95449 0.0
C735 C 0.384 0.49294 0.0671 0.0
H736 H 0.38334 0.52038 0.90394 0.0
C737 C 0.3841 0.53092 0.09628 0.0
C738 C 0.38278 0.56526 0.05645 0.0
H739 H 0.3834 0.46706 0.09938 0.0
H740 H 0.38334 0.53326 0.14993 0.0
C741 C 0.38402 0.56071 0.98677 0.0
C742 C 0.12786 0.53091 0.4576 0.0
C743 C 0.12921 0.56525 0.49742 0.0
H744 H 0.12851 0.46705 0.45451 0.0
C745 C 0.12797 0.5607 0.5671 0.0
H746 H 0.12862 0.53325 0.40395 0.0
C747 C 0.12786 0.52272 0.59629 0.0
C748 C 0.12919 0.48838 0.55647 0.0
H749 H 0.12856 0.58659 0.59938 0.0
H750 H 0.12863 0.52038 0.64994 0.0
C751 C 0.12794 0.49293 0.48679 0.0
C752 C 0.26119 0.24699 0.07424 0.0
C753 C 0.22972 0.26202 0.0639 0.0
H754 H 0.31133 0.25022 0.04776 0.0
C755 C 0.22472 0.29203 1.01642 0.0
H756 H 0.2656 0.22349 0.11016 0.0
C757 C 0.25075 0.30661 0.97966 0.0
C758 C 0.28223 0.29159 0.99 0.0
H759 H 0.20061 0.30339 1.00614 0.0
H760 H 0.24634 0.33011 0.94374 0.0
C761 C 0.28722 0.26157 0.03748 0.0
C762 C 0.28727 0.76158 0.51639 0.0
C763 C 0.28227 0.79159 0.56387 0.0
H764 H 0.26565 0.72349 0.44371 0.0
C765 C 0.25079 0.80661 0.57421 0.0
H766 H 0.31138 0.75022 0.50612 0.0
C767 C 0.22476 0.79203 0.53745 0.0
C768 C 0.22976 0.76202 0.48997 0.0
H769 H 0.24638 0.83011 0.61014 0.0
H770 H 0.20065 0.80338 0.54772 0.0
C771 C 0.26124 0.74699 0.47963 0.0
C772 C 0.2612 0.8066 0.97959 0.0
C773 C 0.22972 0.79158 0.98996 0.0
H774 H 0.31134 0.80338 1.00607 0.0
C775 C 0.22473 0.76158 0.03746 0.0
H776 H 0.26561 0.83009 0.94365 0.0
C777 C 0.25076 0.74701 0.07422 0.0
C778 C 0.28224 0.76203 0.06386 0.0
H779 H 0.20062 0.75023 0.04774 0.0
H780 H 0.24635 0.72351 0.11016 0.0
C781 C 0.28723 0.79203 1.01636 0.0
C782 C 0.25073 0.247 0.47966 0.0
C783 C 0.2822 0.26203 0.49002 0.0
H784 H 0.20058 0.25023 0.50612 0.0
C785 C 0.2872 0.29202 0.53753 0.0
H786 H 0.24631 0.22351 0.44371 0.0
C787 C 0.26116 0.30659 0.57429 0.0
C788 C 0.22968 0.29157 0.56392 0.0
H789 H 0.3113 0.30337 0.54782 0.0
H790 H 0.26557 0.33008 0.61024 0.0
C791 C 0.22469 0.26157 0.51642 0.0
C792 C 0.78723 0.7617 0.03731 0.0
C793 C 0.78224 0.7917 0.98982 0.0
H794 H 0.76562 0.72363 0.11001 0.0
C795 C 0.75076 0.80672 0.97946 0.0
H796 H 0.81134 0.75035 0.04759 0.0
C797 C 0.72473 0.79215 1.01623 0.0
C798 C 0.72972 0.76214 0.06372 0.0
H799 H 0.74634 0.83022 0.94353 0.0
H800 H 0.70062 0.8035 1.00594 0.0
C801 C 0.7612 0.74712 0.07407 0.0
C802 C 0.7872 0.26171 0.51627 0.0
C803 C 0.7822 0.29171 0.56377 0.0
H804 H 0.76558 0.22364 0.44357 0.0
C805 C 0.75072 0.30673 0.57412 0.0
H806 H 0.81131 0.25036 0.50598 0.0
C807 C 0.72469 0.29215 0.53735 0.0
C808 C 0.72969 0.26215 0.48986 0.0
H809 H 0.74631 0.33022 0.61006 0.0
H810 H 0.70058 0.3035 0.54764 0.0
C811 C 0.76116 0.24713 0.4795 0.0
C812 C 0.76119 0.30673 0.97954 0.0
C813 C 0.72971 0.2917 0.98988 0.0
H814 H 0.81133 0.3035 1.00601 0.0
C815 C 0.72472 0.2617 0.03737 0.0
H816 H 0.7656 0.33023 0.9436 0.0
C817 C 0.75075 0.24712 0.07414 0.0
C818 C 0.78223 0.26214 0.06378 0.0
H819 H 0.70061 0.25035 0.04765 0.0
H820 H 0.74634 0.22363 0.11007 0.0
C821 C 0.78722 0.29215 1.0163 0.0
C822 C 0.78727 0.79215 0.53729 0.0
C823 C 0.78227 0.76215 0.48981 0.0
H824 H 0.76565 0.83024 0.60997 0.0
C825 C 0.75079 0.74712 0.47946 0.0
H826 H 0.81138 0.80351 0.54756 0.0
C827 C 0.72476 0.7617 0.51622 0.0
C828 C 0.72976 0.79171 0.5637 0.0
H829 H 0.74638 0.72363 0.44353 0.0
H830 H 0.70065 0.75035 0.50594 0.0
C831 C 0.76124 0.80673 0.57405 0.0
loop_
_geom_bond_atom_site_label_1
_geom_bond_atom_site_label_2
_geom_bond_distance
_geom_bond_site_symmetry_2
_ccdc_geom_bond_type
Fe0 O2 1.918 . S
Fe0 O5 1.997 . S
Fe0 O6 2.002 . S
Fe0 O11 1.976 . S
Fe0 O14 1.996 1_554 S
Fe1 O2 1.918 . S
Fe1 O9 1.997 . S
Fe1 O12 1.996 . S
Fe1 O16 1.976 . S
Fe1 O19 2.002 . S
O2 Fe0 1.918 . S
O2 Fe1 1.918 . S
O2 Fe3 1.918 . S
Fe3 O2 1.918 . S
Fe3 O4 2.002 . S
Fe3 O13 1.976 1_554 S
Fe3 O17 1.996 . S
Fe3 O20 1.997 . S
O4 Fe3 2.002 . S
O4 C21 1.295 . S
O5 Fe0 1.997 . S
O5 C21 1.235 . S
O6 Fe0 2.002 . S
O6 C7 1.295 . S
C7 O6 1.295 . S
C7 O9 1.235 . S
C8 O13 1.287 . S
C8 O14 1.255 . S
O9 Fe1 1.997 . S
O9 C7 1.235 . S
C10 O16 1.287 . S
C10 O17 1.255 . S
O11 Fe0 1.976 . S
O11 C18 1.287 . S
O12 Fe1 1.996 . S
O12 C18 1.255 . S
O13 Fe3 1.976 1_556 S
O13 C8 1.287 . S
O14 Fe0 1.996 1_556 S
O14 C8 1.255 . S
C15 O19 1.295 . S
C15 O20 1.235 . S
O16 Fe1 1.976 . S
O16 C10 1.287 . S
O17 Fe3 1.996 . S
O17 C10 1.255 . S
C18 O11 1.287 . S
C18 O12 1.255 . S
O19 Fe1 2.002 . S
O19 C15 1.295 . S
O20 Fe3 1.997 . S
O20 C15 1.235 . S
C21 O4 1.295 . S
C21 O5 1.235 . S
Fe22 O24 1.918 . S
Fe22 O27 1.997 . S
Fe22 O28 2.002 . S
Fe22 O33 1.976 . S
Fe22 O36 1.996 . S
Fe23 O24 1.918 . S
Fe23 O31 1.997 . S
Fe23 O34 1.996 . S
Fe23 O38 1.976 . S
Fe23 O41 2.002 . S
O24 Fe22 1.918 . S
O24 Fe23 1.918 . S
O24 Fe25 1.918 . S
Fe25 O24 1.918 . S
Fe25 O26 2.002 . S
Fe25 O35 1.976 . S
Fe25 O39 1.996 . S
Fe25 O42 1.997 . S
O26 Fe25 2.002 . S
O26 C43 1.295 . S
O27 Fe22 1.997 . S
O27 C43 1.235 . S
O28 Fe22 2.002 . S
O28 C29 1.295 . S
C29 O28 1.295 . S
C29 O31 1.235 . S
C30 O35 1.287 . S
C30 O36 1.255 . S
O31 Fe23 1.997 . S
O31 C29 1.235 . S
C32 O38 1.287 . S
C32 O39 1.255 . S
O33 Fe22 1.976 . S
O33 C40 1.287 . S
O34 Fe23 1.996 . S
O34 C40 1.255 . S
O35 Fe25 1.976 . S
O35 C30 1.287 . S
O36 Fe22 1.996 . S
O36 C30 1.255 . S
C37 O41 1.295 . S
C37 O42 1.235 . S
O38 Fe23 1.976 . S
O38 C32 1.287 . S
O39 Fe25 1.996 . S
O39 C32 1.255 . S
C40 O33 1.287 . S
C40 O34 1.255 . S
O41 Fe23 2.002 . S
O41 C37 1.295 . S
O42 Fe25 1.997 . S
O42 C37 1.235 . S
C43 O26 1.295 . S
C43 O27 1.235 . S
Fe44 O46 1.918 . S
Fe44 O49 1.997 . S
Fe44 O50 2.002 . S
Fe44 O55 1.976 . S
Fe44 O58 1.996 1_556 S
Fe45 O46 1.918 . S
Fe45 O53 1.997 . S
Fe45 O56 1.996 . S
Fe45 O60 1.976 . S
Fe45 O63 2.002 . S
O46 Fe44 1.918 . S
O46 Fe45 1.918 . S
O46 Fe47 1.918 . S
Fe47 O46 1.918 . S
Fe47 O48 2.002 . S
Fe47 O57 1.976 1_556 S
Fe47 O61 1.996 . S
Fe47 O64 1.997 . S
O48 Fe47 2.002 . S
O48 C65 1.295 . S
O49 Fe44 1.997 . S
O49 C65 1.235 . S
O50 Fe44 2.002 . S
O50 C51 1.295 . S
C51 O50 1.295 . S
C51 O53 1.235 . S
C52 O57 1.287 . S
C52 O58 1.255 . S
O53 Fe45 1.997 . S
O53 C51 1.235 . S
C54 O60 1.287 . S
C54 O61 1.255 . S
O55 Fe44 1.976 . S
O55 C62 1.287 . S
O56 Fe45 1.996 . S
O56 C62 1.255 . S
O57 Fe47 1.976 1_554 S
O57 C52 1.287 . S
O58 Fe44 1.996 1_554 S
O58 C52 1.255 . S
C59 O63 1.295 . S
C59 O64 1.235 . S
O60 Fe45 1.976 . S
O60 C54 1.287 . S
O61 Fe47 1.996 . S
O61 C54 1.255 . S
C62 O55 1.287 . S
C62 O56 1.255 . S
O63 Fe45 2.002 . S
O63 C59 1.295 . S
O64 Fe47 1.997 . S
O64 C59 1.235 . S
C65 O48 1.295 . S
C65 O49 1.235 . S
Fe66 O68 1.918 . S
Fe66 O71 1.997 . S
Fe66 O72 2.002 . S
Fe66 O77 1.976 . S
Fe66 O80 1.996 . S
Fe67 O68 1.918 . S
Fe67 O75 1.997 . S
Fe67 O78 1.996 . S
Fe67 O82 1.976 . S
Fe67 O85 2.002 . S
O68 Fe66 1.918 . S
O68 Fe67 1.918 . S
O68 Fe69 1.918 . S
Fe69 O68 1.918 . S
Fe69 O70 2.002 . S
Fe69 O79 1.976 . S
Fe69 O83 1.996 . S
Fe69 O86 1.997 . S
O70 Fe69 2.002 . S
O70 C87 1.295 . S
O71 Fe66 1.997 . S
O71 C87 1.235 . S
O72 Fe66 2.002 . S
O72 C73 1.295 . S
C73 O72 1.295 . S
C73 O75 1.235 . S
C74 O79 1.287 . S
C74 O80 1.255 . S
O75 Fe67 1.997 . S
O75 C73 1.235 . S
C76 O82 1.287 . S
C76 O83 1.255 . S
O77 Fe66 1.976 . S
O77 C84 1.287 . S
O78 Fe67 1.996 . S
O78 C84 1.255 . S
O79 Fe69 1.976 . S
O79 C74 1.287 . S
O80 Fe66 1.996 . S
O80 C74 1.255 . S
C81 O85 1.295 . S
C81 O86 1.235 . S
O82 Fe67 1.976 . S
O82 C76 1.287 . S
O83 Fe69 1.996 . S
O83 C76 1.255 . S
C84 O77 1.287 . S
C84 O78 1.255 . S
O85 Fe67 2.002 . S
O85 C81 1.295 . S
O86 Fe69 1.997 . S
O86 C81 1.235 . S
C87 O70 1.295 . S
C87 O71 1.235 . S
Fe88 O90 1.918 . S
Fe88 O93 1.997 . S
Fe88 O94 2.002 . S
Fe88 O99 1.976 . S
Fe88 O102 1.996 . S
Fe89 O90 1.918 . S
Fe89 O97 1.997 . S
Fe89 O100 1.996 . S
Fe89 O104 1.976 1_556 S
Fe89 O107 2.002 . S
O90 Fe88 1.918 . S
O90 Fe89 1.918 . S
O90 Fe91 1.918 . S
Fe91 O90 1.918 . S
Fe91 O92 2.002 . S
Fe91 O101 1.976 . S
Fe91 O105 1.996 1_556 S
Fe91 O108 1.997 . S
O92 Fe91 2.002 . S
O92 C109 1.295 . S
O93 Fe88 1.997 . S
O93 C109 1.235 . S
O94 Fe88 2.002 . S
O94 C95 1.295 . S
C95 O94 1.295 . S
C95 O97 1.235 . S
C96 O101 1.287 . S
C96 O102 1.255 . S
O97 Fe89 1.997 . S
O97 C95 1.235 . S
C98 O104 1.287 . S
C98 O105 1.255 . S
O99 Fe88 1.976 . S
O99 C106 1.287 . S
O100 Fe89 1.996 . S
O100 C106 1.255 . S
O101 Fe91 1.976 . S
O101 C96 1.287 . S
O102 Fe88 1.996 . S
O102 C96 1.255 . S
C103 O107 1.295 . S
C103 O108 1.235 . S
O104 Fe89 1.976 1_554 S
O104 C98 1.287 . S
O105 Fe91 1.996 1_554 S
O105 C98 1.255 . S
C106 O99 1.287 . S
C106 O100 1.255 . S
O107 Fe89 2.002 . S
O107 C103 1.295 . S
O108 Fe91 1.997 . S
O108 C103 1.235 . S
C109 O92 1.295 . S
C109 O93 1.235 . S
Fe110 O112 1.918 . S
Fe110 O115 1.997 . S
Fe110 O116 2.002 . S
Fe110 O121 1.976 . S
Fe110 O124 1.996 . S
Fe111 O112 1.918 . S
Fe111 O119 1.997 . S
Fe111 O122 1.996 . S
Fe111 O126 1.976 . S
Fe111 O129 2.002 . S
O112 Fe110 1.918 . S
O112 Fe111 1.918 . S
O112 Fe113 1.918 . S
Fe113 O112 1.918 . S
Fe113 O114 2.002 . S
Fe113 O123 1.976 . S
Fe113 O127 1.996 . S
Fe113 O130 1.997 . S
O114 Fe113 2.002 . S
O114 C131 1.295 . S
O115 Fe110 1.997 . S
O115 C131 1.235 . S
O116 Fe110 2.002 . S
O116 C117 1.295 . S
C117 O116 1.295 . S
C117 O119 1.235 . S
C118 O123 1.287 . S
C118 O124 1.255 . S
O119 Fe111 1.997 . S
O119 C117 1.235 . S
C120 O126 1.287 . S
C120 O127 1.255 . S
O121 Fe110 1.976 . S
O121 C128 1.287 . S
O122 Fe111 1.996 . S
O122 C128 1.255 . S
O123 Fe113 1.976 . S
O123 C118 1.287 . S
O124 Fe110 1.996 . S
O124 C118 1.255 . S
C125 O129 1.295 . S
C125 O130 1.235 . S
O126 Fe111 1.976 . S
O126 C120 1.287 . S
O127 Fe113 1.996 . S
O127 C120 1.255 . S
C128 O121 1.287 . S
C128 O122 1.255 . S
O129 Fe111 2.002 . S
O129 C125 1.295 . S
O130 Fe113 1.997 . S
O130 C125 1.235 . S
C131 O114 1.295 . S
C131 O115 1.235 . S
Fe132 O134 1.918 . S
Fe132 O137 1.997 . S
Fe132 O138 2.002 . S
Fe132 O143 1.976 . S
Fe132 O146 1.996 . S
Fe133 O134 1.918 . S
Fe133 O141 1.997 . S
Fe133 O144 1.996 . S
Fe133 O148 1.976 1_554 S
Fe133 O151 2.002 . S
O134 Fe132 1.918 . S
O134 Fe133 1.918 . S
O134 Fe135 1.918 . S
Fe135 O134 1.918 . S
Fe135 O136 2.002 . S
Fe135 O145 1.976 . S
Fe135 O149 1.996 1_554 S
Fe135 O152 1.997 . S
O136 Fe135 2.002 . S
O136 C153 1.295 . S
O137 Fe132 1.997 . S
O137 C153 1.235 . S
O138 Fe132 2.002 . S
O138 C139 1.295 . S
C139 O138 1.295 . S
C139 O141 1.235 . S
C140 O145 1.287 . S
C140 O146 1.255 . S
O141 Fe133 1.997 . S
O141 C139 1.235 . S
C142 O148 1.287 . S
C142 O149 1.255 . S
O143 Fe132 1.976 . S
O143 C150 1.287 . S
O144 Fe133 1.996 . S
O144 C150 1.255 . S
O145 Fe135 1.976 . S
O145 C140 1.287 . S
O146 Fe132 1.996 . S
O146 C140 1.255 . S
C147 O151 1.295 . S
C147 O152 1.235 . S
O148 Fe133 1.976 1_556 S
O148 C142 1.287 . S
O149 Fe135 1.996 1_556 S
O149 C142 1.255 . S
C150 O143 1.287 . S
C150 O144 1.255 . S
O151 Fe133 2.002 . S
O151 C147 1.295 . S
O152 Fe135 1.997 . S
O152 C147 1.235 . S
C153 O136 1.295 . S
C153 O137 1.235 . S
Fe154 O156 1.918 . S
Fe154 O159 1.997 . S
Fe154 O160 2.002 . S
Fe154 O165 1.976 . S
Fe154 O168 1.996 . S
Fe155 O156 1.918 . S
Fe155 O163 1.997 . S
Fe155 O166 1.996 . S
Fe155 O170 1.976 . S
Fe155 O173 2.002 . S
O156 Fe154 1.918 . S
O156 Fe155 1.918 . S
O156 Fe157 1.918 . S
Fe157 O156 1.918 . S
Fe157 O158 2.002 . S
Fe157 O167 1.976 . S
Fe157 O171 1.996 . S
Fe157 O174 1.997 . S
O158 Fe157 2.002 . S
O158 C175 1.295 . S
O159 Fe154 1.997 . S
O159 C175 1.235 . S
O160 Fe154 2.002 . S
O160 C161 1.295 . S
C161 O160 1.295 . S
C161 O163 1.235 . S
C162 O167 1.287 . S
C162 O168 1.255 . S
O163 Fe155 1.997 . S
O163 C161 1.235 . S
C164 O170 1.287 . S
C164 O171 1.255 . S
O165 Fe154 1.976 . S
O165 C172 1.287 . S
O166 Fe155 1.996 . S
O166 C172 1.255 . S
O167 Fe157 1.976 . S
O167 C162 1.287 . S
O168 Fe154 1.996 . S
O168 C162 1.255 . S
C169 O173 1.295 . S
C169 O174 1.235 . S
O170 Fe155 1.976 . S
O170 C164 1.287 . S
O171 Fe157 1.996 . S
O171 C164 1.255 . S
C172 O165 1.287 . S
C172 O166 1.255 . S
O173 Fe155 2.002 . S
O173 C169 1.295 . S
O174 Fe157 1.997 . S
O174 C169 1.235 . S
C175 O158 1.295 . S
C175 O159 1.235 . S
Fe176 O178 1.918 . S
Fe176 O181 1.997 . S
Fe176 O182 2.002 . S
Fe176 O187 1.976 . S
Fe176 O190 1.996 1_554 S
Fe177 O178 1.918 . S
Fe177 O185 1.997 . S
Fe177 O188 1.996 . S
Fe177 O192 1.976 . S
Fe177 O195 2.002 . S
O178 Fe176 1.918 . S
O178 Fe177 1.918 . S
O178 Fe179 1.918 . S
Fe179 O178 1.918 . S
Fe179 O180 2.002 . S
Fe179 O189 1.976 1_554 S
Fe179 O193 1.996 . S
Fe179 O196 1.997 . S
O180 Fe179 2.002 . S
O180 C197 1.295 . S
O181 Fe176 1.997 . S
O181 C197 1.235 . S
O182 Fe176 2.002 . S
O182 C183 1.295 . S
C183 O182 1.295 . S
C183 O185 1.235 . S
C184 O189 1.287 . S
C184 O190 1.255 . S
O185 Fe177 1.997 . S
O185 C183 1.235 . S
C186 O192 1.287 . S
C186 O193 1.255 . S
O187 Fe176 1.976 . S
O187 C194 1.287 . S
O188 Fe177 1.996 . S
O188 C194 1.255 . S
O189 Fe179 1.976 1_556 S
O189 C184 1.287 . S
O190 Fe176 1.996 1_556 S
O190 C184 1.255 . S
C191 O195 1.295 . S
C191 O196 1.235 . S
O192 Fe177 1.976 . S
O192 C186 1.287 . S
O193 Fe179 1.996 . S
O193 C186 1.255 . S
C194 O187 1.287 . S
C194 O188 1.255 . S
O195 Fe177 2.002 . S
O195 C191 1.295 . S
O196 Fe179 1.997 . S
O196 C191 1.235 . S
C197 O180 1.295 . S
C197 O181 1.235 . S
Fe198 O200 1.918 . S
Fe198 O203 1.997 . S
Fe198 O204 2.002 . S
Fe198 O209 1.976 . S
Fe198 O212 1.996 . S
Fe199 O200 1.918 . S
Fe199 O207 1.997 . S
Fe199 O210 1.996 . S
Fe199 O214 1.976 . S
Fe199 O217 2.002 . S
O200 Fe198 1.918 . S
O200 Fe199 1.918 . S
O200 Fe201 1.918 . S
Fe201 O200 1.918 . S
Fe201 O202 2.002 . S
Fe201 O211 1.976 . S
Fe201 O215 1.996 . S
Fe201 O218 1.997 . S
O202 Fe201 2.002 . S
O202 C219 1.295 . S
O203 Fe198 1.997 . S
O203 C219 1.235 . S
O204 Fe198 2.002 . S
O204 C205 1.295 . S
C205 O204 1.295 . S
C205 O207 1.235 . S
C206 O211 1.287 . S
C206 O212 1.255 . S
O207 Fe199 1.997 . S
O207 C205 1.235 . S
C208 O214 1.287 . S
C208 O215 1.255 . S
O209 Fe198 1.976 . S
O209 C216 1.287 . S
O210 Fe199 1.996 . S
O210 C216 1.255 . S
O211 Fe201 1.976 . S
O211 C206 1.287 . S
O212 Fe198 1.996 . S
O212 C206 1.255 . S
C213 O217 1.295 . S
C213 O218 1.235 . S
O214 Fe199 1.976 . S
O214 C208 1.287 . S
O215 Fe201 1.996 . S
O215 C208 1.255 . S
C216 O209 1.287 . S
C216 O210 1.255 . S
O217 Fe199 2.002 . S
O217 C213 1.295 . S
O218 Fe201 1.997 . S
O218 C213 1.235 . S
C219 O202 1.295 . S
C219 O203 1.235 . S
Fe220 O222 1.918 . S
Fe220 O225 1.997 . S
Fe220 O226 2.002 . S
Fe220 O231 1.976 . S
Fe220 O234 1.996 1_556 S
Fe221 O222 1.918 . S
Fe221 O229 1.997 . S
Fe221 O232 1.996 . S
Fe221 O236 1.976 . S
Fe221 O239 2.002 . S
O222 Fe220 1.918 . S
O222 Fe221 1.918 . S
O222 Fe223 1.918 . S
Fe223 O222 1.918 . S
Fe223 O224 2.002 . S
Fe223 O233 1.976 1_556 S
Fe223 O237 1.996 . S
Fe223 O240 1.997 . S
O224 Fe223 2.002 . S
O224 C241 1.295 . S
O225 Fe220 1.997 . S
O225 C241 1.235 . S
O226 Fe220 2.002 . S
O226 C227 1.295 . S
C227 O226 1.295 . S
C227 O229 1.235 . S
C228 O233 1.287 . S
C228 O234 1.255 . S
O229 Fe221 1.997 . S
O229 C227 1.235 . S
C230 O236 1.287 . S
C230 O237 1.255 . S
O231 Fe220 1.976 . S
O231 C238 1.287 . S
O232 Fe221 1.996 . S
O232 C238 1.255 . S
O233 Fe223 1.976 1_554 S
O233 C228 1.287 . S
O234 Fe220 1.996 1_554 S
O234 C228 1.255 . S
C235 O239 1.295 . S
C235 O240 1.235 . S
O236 Fe221 1.976 . S
O236 C230 1.287 . S
O237 Fe223 1.996 . S
O237 C230 1.255 . S
C238 O231 1.287 . S
C238 O232 1.255 . S
O239 Fe221 2.002 . S
O239 C235 1.295 . S
O240 Fe223 1.997 . S
O240 C235 1.235 . S
C241 O224 1.295 . S
C241 O225 1.235 . S
Fe242 O244 1.918 . S
Fe242 O247 1.997 . S
Fe242 O248 2.002 . S
Fe242 O253 1.976 . S
Fe242 O256 1.996 . S
Fe243 O244 1.918 . S
Fe243 O251 1.997 . S
Fe243 O254 1.996 . S
Fe243 O258 1.976 . S
Fe243 O261 2.002 . S
O244 Fe242 1.918 . S
O244 Fe243 1.918 . S
O244 Fe245 1.918 . S
Fe245 O244 1.918 . S
Fe245 O246 2.002 . S
Fe245 O255 1.976 . S
Fe245 O259 1.996 . S
Fe245 O262 1.997 . S
O246 Fe245 2.002 . S
O246 C263 1.295 . S
O247 Fe242 1.997 . S
O247 C263 1.235 . S
O248 Fe242 2.002 . S
O248 C249 1.295 . S
C249 O248 1.295 . S
C249 O251 1.235 . S
C250 O255 1.287 . S
C250 O256 1.255 . S
O251 Fe243 1.997 . S
O251 C249 1.235 . S
C252 O258 1.287 . S
C252 O259 1.255 . S
O253 Fe242 1.976 . S
O253 C260 1.287 . S
O254 Fe243 1.996 . S
O254 C260 1.255 . S
O255 Fe245 1.976 . S
O255 C250 1.287 . S
O256 Fe242 1.996 . S
O256 C250 1.255 . S
C257 O261 1.295 . S
C257 O262 1.235 . S
O258 Fe243 1.976 . S
O258 C252 1.287 . S
O259 Fe245 1.996 . S
O259 C252 1.255 . S
C260 O253 1.287 . S
C260 O254 1.255 . S
O261 Fe243 2.002 . S
O261 C257 1.295 . S
O262 Fe245 1.997 . S
O262 C257 1.235 . S
C263 O246 1.295 . S
C263 O247 1.235 . S
Fe264 O266 1.918 . S
Fe264 O269 1.997 . S
Fe264 O270 2.002 . S
Fe264 O275 1.976 . S
Fe264 O278 1.996 . S
Fe265 O266 1.918 . S
Fe265 O273 1.997 . S
Fe265 O276 1.996 . S
Fe265 O280 1.976 1_556 S
Fe265 O283 2.002 . S
O266 Fe264 1.918 . S
O266 Fe265 1.918 . S
O266 Fe267 1.918 . S
Fe267 O266 1.918 . S
Fe267 O268 2.002 . S
Fe267 O277 1.976 . S
Fe267 O281 1.996 1_556 S
Fe267 O284 1.997 . S
O268 Fe267 2.002 . S
O268 C285 1.295 . S
O269 Fe264 1.997 . S
O269 C285 1.235 . S
O270 Fe264 2.002 . S
O270 C271 1.295 . S
C271 O270 1.295 . S
C271 O273 1.235 . S
C272 O277 1.287 . S
C272 O278 1.255 . S
O273 Fe265 1.997 . S
O273 C271 1.235 . S
C274 O280 1.287 . S
C274 O281 1.255 . S
O275 Fe264 1.976 . S
O275 C282 1.287 . S
O276 Fe265 1.996 . S
O276 C282 1.255 . S
O277 Fe267 1.976 . S
O277 C272 1.287 . S
O278 Fe264 1.996 . S
O278 C272 1.255 . S
C279 O283 1.295 . S
C279 O284 1.235 . S
O280 Fe265 1.976 1_554 S
O280 C274 1.287 . S
O281 Fe267 1.996 1_554 S
O281 C274 1.255 . S
C282 O275 1.287 . S
C282 O276 1.255 . S
O283 Fe265 2.002 . S
O283 C279 1.295 . S
O284 Fe267 1.997 . S
O284 C279 1.235 . S
C285 O268 1.295 . S
C285 O269 1.235 . S
Fe286 O288 1.918 . S
Fe286 O291 1.997 . S
Fe286 O292 2.002 . S
Fe286 O297 1.976 . S
Fe286 O300 1.996 . S
Fe287 O288 1.918 . S
Fe287 O295 1.997 . S
Fe287 O298 1.996 . S
Fe287 O302 1.976 . S
Fe287 O305 2.002 . S
O288 Fe286 1.918 . S
O288 Fe287 1.918 . S
O288 Fe289 1.918 . S
Fe289 O288 1.918 . S
Fe289 O290 2.002 . S
Fe289 O299 1.976 . S
Fe289 O303 1.996 . S
Fe289 O306 1.997 . S
O290 Fe289 2.002 . S
O290 C307 1.295 . S
O291 Fe286 1.997 . S
O291 C307 1.235 . S
O292 Fe286 2.002 . S
O292 C293 1.295 . S
C293 O292 1.295 . S
C293 O295 1.235 . S
C294 O299 1.287 . S
C294 O300 1.255 . S
O295 Fe287 1.997 . S
O295 C293 1.235 . S
C296 O302 1.287 . S
C296 O303 1.255 . S
O297 Fe286 1.976 . S
O297 C304 1.287 . S
O298 Fe287 1.996 . S
O298 C304 1.255 . S
O299 Fe289 1.976 . S
O299 C294 1.287 . S
O300 Fe286 1.996 . S
O300 C294 1.255 . S
C301 O305 1.295 . S
C301 O306 1.235 . S
O302 Fe287 1.976 . S
O302 C296 1.287 . S
O303 Fe289 1.996 . S
O303 C296 1.255 . S
C304 O297 1.287 . S
C304 O298 1.255 . S
O305 Fe287 2.002 . S
O305 C301 1.295 . S
O306 Fe289 1.997 . S
O306 C301 1.235 . S
C307 O290 1.295 . S
C307 O291 1.235 . S
Fe308 O310 1.918 . S
Fe308 O313 1.997 . S
Fe308 O314 2.002 . S
Fe308 O319 1.976 1_554 S
Fe308 O322 1.996 . S
Fe309 O310 1.918 . S
Fe309 O317 1.997 . S
Fe309 O320 1.996 1_554 S
Fe309 O324 1.976 . S
Fe309 O327 2.002 . S
O310 Fe308 1.918 . S
O310 Fe309 1.918 . S
O310 Fe311 1.918 . S
Fe311 O310 1.918 . S
Fe311 O312 2.002 . S
Fe311 O321 1.976 . S
Fe311 O325 1.996 . S
Fe311 O328 1.997 . S
O312 Fe311 2.002 . S
O312 C329 1.295 . S
O313 Fe308 1.997 . S
O313 C329 1.235 . S
O314 Fe308 2.002 . S
O314 C315 1.295 . S
C315 O314 1.295 . S
C315 O317 1.235 . S
C316 O321 1.287 . S
C316 O322 1.255 . S
O317 Fe309 1.997 . S
O317 C315 1.235 . S
C318 O324 1.287 . S
C318 O325 1.255 . S
O319 Fe308 1.976 1_556 S
O319 C326 1.287 . S
O320 Fe309 1.996 1_556 S
O320 C326 1.255 . S
O321 Fe311 1.976 . S
O321 C316 1.287 . S
O322 Fe308 1.996 . S
O322 C316 1.255 . S
C323 O327 1.295 . S
C323 O328 1.235 . S
O324 Fe309 1.976 . S
O324 C318 1.287 . S
O325 Fe311 1.996 . S
O325 C318 1.255 . S
C326 O319 1.287 . S
C326 O320 1.255 . S
O327 Fe309 2.002 . S
O327 C323 1.295 . S
O328 Fe311 1.997 . S
O328 C323 1.235 . S
C329 O312 1.295 . S
C329 O313 1.235 . S
Fe330 O332 1.918 . S
Fe330 O335 1.997 . S
Fe330 O336 2.002 . S
Fe330 O341 1.976 . S
Fe330 O344 1.996 . S
Fe331 O332 1.918 . S
Fe331 O339 1.997 . S
Fe331 O342 1.996 . S
Fe331 O346 1.976 . S
Fe331 O349 2.002 . S
O332 Fe330 1.918 . S
O332 Fe331 1.918 . S
O332 Fe333 1.918 . S
Fe333 O332 1.918 . S
Fe333 O334 2.002 . S
Fe333 O343 1.976 . S
Fe333 O347 1.996 . S
Fe333 O350 1.997 . S
O334 Fe333 2.002 . S
O334 C351 1.295 . S
O335 Fe330 1.997 . S
O335 C351 1.235 . S
O336 Fe330 2.002 . S
O336 C337 1.295 . S
C337 O336 1.295 . S
C337 O339 1.235 . S
C338 O343 1.287 . S
C338 O344 1.255 . S
O339 Fe331 1.997 . S
O339 C337 1.235 . S
C340 O346 1.287 . S
C340 O347 1.255 . S
O341 Fe330 1.976 . S
O341 C348 1.287 . S
O342 Fe331 1.996 . S
O342 C348 1.255 . S
O343 Fe333 1.976 . S
O343 C338 1.287 . S
O344 Fe330 1.996 . S
O344 C338 1.255 . S
C345 O349 1.295 . S
C345 O350 1.235 . S
O346 Fe331 1.976 . S
O346 C340 1.287 . S
O347 Fe333 1.996 . S
O347 C340 1.255 . S
C348 O341 1.287 . S
C348 O342 1.255 . S
O349 Fe331 2.002 . S
O349 C345 1.295 . S
O350 Fe333 1.997 . S
O350 C345 1.235 . S
C351 O334 1.295 . S
C351 O335 1.235 . S
C352 C353 1.387 . S
C352 H356 0.950 . S
C352 C361 1.390 . S
C353 C352 1.387 . S
C353 C355 1.387 . S
H354 C361 0.950 . S
C355 C353 1.387 . S
C355 C357 1.390 . S
C355 H359 0.950 . S
H356 C352 0.950 . S
C357 C355 1.390 . S
C357 C358 1.387 . S
C357 H360 0.950 . S
C358 C357 1.387 . S
C358 C361 1.387 . S
H359 C355 0.950 . S
H360 C357 0.950 . S
C361 C352 1.390 . S
C361 H354 0.950 . S
C361 C358 1.387 . S
C362 C363 1.387 . S
C362 H366 0.950 . S
C362 C371 1.390 . S
C363 C362 1.387 . S
C363 C365 1.387 . S
H364 C371 0.950 . S
C365 C363 1.387 . S
C365 C367 1.390 . S
C365 H369 0.950 . S
H366 C362 0.950 . S
C367 C365 1.390 . S
C367 C368 1.387 . S
C367 H370 0.950 . S
C368 C367 1.387 . S
C368 C371 1.387 . S
H369 C365 0.950 . S
H370 C367 0.950 . S
C371 C362 1.390 . S
C371 H364 0.950 . S
C371 C368 1.387 . S
C372 C373 1.387 . S
C372 H376 0.950 . S
C372 C381 1.390 . S
C373 C372 1.387 . S
C373 C375 1.387 . S
H374 C381 0.950 . S
C375 C373 1.387 . S
C375 C377 1.390 . S
C375 H379 0.950 . S
H376 C372 0.950 . S
C377 C375 1.390 . S
C377 C378 1.387 . S
C377 H380 0.950 . S
C378 C377 1.387 . S
C378 C381 1.387 . S
H379 C375 0.950 . S
H380 C377 0.950 . S
C381 C372 1.390 . S
C381 H374 0.950 . S
C381 C378 1.387 . S
C382 C383 1.387 . S
C382 H386 0.950 . S
C382 C391 1.390 . S
C383 C382 1.387 . S
C383 C385 1.387 . S
H384 C391 0.950 . S
C385 C383 1.387 . S
C385 C387 1.390 . S
C385 H389 0.950 . S
H386 C382 0.950 . S
C387 C385 1.390 . S
C387 C388 1.387 . S
C387 H390 0.950 . S
C388 C387 1.387 . S
C388 C391 1.387 . S
H389 C385 0.950 . S
H390 C387 0.950 . S
C391 C382 1.390 . S
C391 H384 0.950 . S
C391 C388 1.387 . S
C392 C393 1.387 . S
C392 H396 0.950 . S
C392 C401 1.390 . S
C393 C392 1.387 . S
C393 C395 1.387 . S
H394 C401 0.950 . S
C395 C393 1.387 . S
C395 C397 1.390 . S
C395 H399 0.950 . S
H396 C392 0.950 . S
C397 C395 1.390 . S
C397 C398 1.387 . S
C397 H400 0.950 . S
C398 C397 1.387 . S
C398 C401 1.387 . S
H399 C395 0.950 . S
H400 C397 0.950 . S
C401 C392 1.390 . S
C401 H394 0.950 . S
C401 C398 1.387 . S
C402 C403 1.387 . S
C402 H406 0.950 . S
C402 C411 1.390 . S
C403 C402 1.387 . S
C403 C405 1.387 . S
H404 C411 0.950 . S
C405 C403 1.387 . S
C405 C407 1.390 . S
C405 H409 0.950 . S
H406 C402 0.950 . S
C407 C405 1.390 . S
C407 C408 1.387 . S
C407 H410 0.950 . S
C408 C407 1.387 . S
C408 C411 1.387 . S
H409 C405 0.950 . S
H410 C407 0.950 . S
C411 C402 1.390 . S
C411 H404 0.950 . S
C411 C408 1.387 . S
C412 C413 1.387 . S
C412 H416 0.950 . S
C412 C421 1.390 . S
C413 C412 1.387 . S
C413 C415 1.387 . S
H414 C421 0.950 . S
C415 C413 1.387 . S
C415 C417 1.390 . S
C415 H419 0.950 . S
H416 C412 0.950 . S
C417 C415 1.390 . S
C417 C418 1.387 . S
C417 H420 0.950 . S
C418 C417 1.387 . S
C418 C421 1.387 . S
H419 C415 0.950 . S
H420 C417 0.950 . S
C421 C412 1.390 . S
C421 H414 0.950 . S
C421 C418 1.387 . S
C422 C423 1.387 . S
C422 H426 0.950 . S
C422 C431 1.390 . S
C423 C422 1.387 . S
C423 C425 1.387 . S
H424 C431 0.950 . S
C425 C423 1.387 . S
C425 C427 1.390 . S
C425 H429 0.950 . S
H426 C422 0.950 . S
C427 C425 1.390 . S
C427 C428 1.387 . S
C427 H430 0.950 . S
C428 C427 1.387 . S
C428 C431 1.387 . S
H429 C425 0.950 . S
H430 C427 0.950 . S
C431 C422 1.390 . S
C431 H424 0.950 . S
C431 C428 1.387 . S
C432 C433 1.387 . S
C432 H436 0.950 . S
C432 C441 1.390 . S
C433 C432 1.387 . S
C433 C435 1.387 . S
H434 C441 0.950 . S
C435 C433 1.387 . S
C435 C437 1.390 . S
C435 H439 0.950 . S
H436 C432 0.950 . S
C437 C435 1.390 . S
C437 C438 1.387 . S
C437 H440 0.950 . S
C438 C437 1.387 . S
C438 C441 1.387 . S
H439 C435 0.950 . S
H440 C437 0.950 . S
C441 C432 1.390 . S
C441 H434 0.950 . S
C441 C438 1.387 . S
C442 C443 1.387 . S
C442 H446 0.950 . S
C442 C451 1.390 . S
C443 C442 1.387 . S
C443 C445 1.387 . S
H444 C451 0.950 . S
C445 C443 1.387 . S
C445 C447 1.390 . S
C445 H449 0.950 . S
H446 C442 0.950 . S
C447 C445 1.390 . S
C447 C448 1.387 . S
C447 H450 0.950 . S
C448 C447 1.387 . S
C448 C451 1.387 . S
H449 C445 0.950 . S
H450 C447 0.950 . S
C451 C442 1.390 . S
C451 H444 0.950 . S
C451 C448 1.387 . S
C452 C453 1.387 . S
C452 H456 0.950 . S
C452 C461 1.390 . S
C453 C452 1.387 . S
C453 C455 1.387 . S
H454 C461 0.950 . S
C455 C453 1.387 . S
C455 C457 1.390 . S
C455 H459 0.950 . S
H456 C452 0.950 . S
C457 C455 1.390 . S
C457 C458 1.387 . S
C457 H460 0.950 . S
C458 C457 1.387 . S
C458 C461 1.387 . S
H459 C455 0.950 . S
H460 C457 0.950 . S
C461 C452 1.390 . S
C461 H454 0.950 . S
C461 C458 1.387 . S
C462 C463 1.387 . S
C462 H466 0.950 . S
C462 C471 1.390 . S
C463 C462 1.387 . S
C463 C465 1.387 . S
H464 C471 0.950 . S
C465 C463 1.387 . S
C465 C467 1.390 . S
C465 H469 0.950 . S
H466 C462 0.950 . S
C467 C465 1.390 . S
C467 C468 1.387 . S
C467 H470 0.950 . S
C468 C467 1.387 . S
C468 C471 1.387 . S
H469 C465 0.950 . S
H470 C467 0.950 . S
C471 C462 1.390 . S
C471 H464 0.950 . S
C471 C468 1.387 . S
C472 C473 1.387 . S
C472 H476 0.950 . S
C472 C481 1.390 . S
C473 C472 1.387 . S
C473 C475 1.387 . S
H474 C481 0.950 . S
C475 C473 1.387 . S
C475 C477 1.390 . S
C475 H479 0.950 . S
H476 C472 0.950 . S
C477 C475 1.390 . S
C477 C478 1.387 . S
C477 H480 0.950 . S
C478 C477 1.387 . S
C478 C481 1.387 . S
H479 C475 0.950 . S
H480 C477 0.950 . S
C481 C472 1.390 . S
C481 H474 0.950 . S
C481 C478 1.387 . S
C482 C483 1.387 . S
C482 H486 0.950 . S
C482 C491 1.390 . S
C483 C482 1.387 . S
C483 C485 1.387 . S
H484 C491 0.950 . S
C485 C483 1.387 . S
C485 C487 1.390 . S
C485 H489 0.950 . S
H486 C482 0.950 . S
C487 C485 1.390 . S
C487 C488 1.387 . S
C487 H490 0.950 . S
C488 C487 1.387 . S
C488 C491 1.387 . S
H489 C485 0.950 . S
H490 C487 0.950 . S
C491 C482 1.390 . S
C491 H484 0.950 . S
C491 C488 1.387 . S
C492 C493 1.387 . S
C492 H496 0.950 . S
C492 C501 1.390 . S
C493 C492 1.387 . S
C493 C495 1.387 . S
H494 C501 0.950 . S
C495 C493 1.387 . S
C495 C497 1.390 . S
C495 H499 0.950 . S
H496 C492 0.950 . S
C497 C495 1.390 . S
C497 C498 1.387 . S
C497 H500 0.950 . S
C498 C497 1.387 . S
C498 C501 1.387 . S
H499 C495 0.950 . S
H500 C497 0.950 . S
C501 C492 1.390 . S
C501 H494 0.950 . S
C501 C498 1.387 . S
C502 C503 1.387 . S
C502 H506 0.950 . S
C502 C511 1.390 . S
C503 C502 1.387 . S
C503 C505 1.387 . S
H504 C511 0.950 . S
C505 C503 1.387 . S
C505 C507 1.390 . S
C505 H509 0.950 . S
H506 C502 0.950 . S
C507 C505 1.390 . S
C507 C508 1.387 . S
C507 H510 0.950 . S
C508 C507 1.387 . S
C508 C511 1.387 . S
H509 C505 0.950 . S
H510 C507 0.950 . S
C511 C502 1.390 . S
C511 H504 0.950 . S
C511 C508 1.387 . S
C512 C513 1.387 . S
C512 H516 0.950 . S
C512 C521 1.390 . S
C513 C512 1.387 . S
C513 C515 1.387 . S
H514 C521 0.950 . S
C515 C513 1.387 . S
C515 C517 1.390 . S
C515 H519 0.950 . S
H516 C512 0.950 . S
C517 C515 1.390 . S
C517 C518 1.387 . S
C517 H520 0.950 . S
C518 C517 1.387 . S
C518 C521 1.387 . S
H519 C515 0.950 . S
H520 C517 0.950 . S
C521 C512 1.390 . S
C521 H514 0.950 . S
C521 C518 1.387 . S
C522 C523 1.387 . S
C522 H526 0.950 . S
C522 C531 1.390 . S
C523 C522 1.387 . S
C523 C525 1.387 . S
H524 C531 0.950 . S
C525 C523 1.387 . S
C525 C527 1.390 . S
C525 H529 0.950 . S
H526 C522 0.950 . S
C527 C525 1.390 . S
C527 C528 1.387 . S
C527 H530 0.950 . S
C528 C527 1.387 . S
C528 C531 1.387 . S
H529 C525 0.950 . S
H530 C527 0.950 . S
C531 C522 1.390 . S
C531 H524 0.950 . S
C531 C528 1.387 . S
C532 C533 1.387 . S
C532 H536 0.950 . S
C532 C541 1.390 . S
C533 C532 1.387 . S
C533 C535 1.387 . S
H534 C541 0.950 . S
C535 C533 1.387 . S
C535 C537 1.390 . S
C535 H539 0.950 . S
H536 C532 0.950 . S
C537 C535 1.390 . S
C537 C538 1.387 . S
C537 H540 0.950 . S
C538 C537 1.387 . S
C538 C541 1.387 . S
H539 C535 0.950 . S
H540 C537 0.950 . S
C541 C532 1.390 . S
C541 H534 0.950 . S
C541 C538 1.387 . S
C542 C543 1.387 . S
C542 H546 0.950 . S
C542 C551 1.390 . S
C543 C542 1.387 . S
C543 C545 1.387 . S
H544 C551 0.950 . S
C545 C543 1.387 . S
C545 C547 1.390 . S
C545 H549 0.950 . S
H546 C542 0.950 . S
C547 C545 1.390 . S
C547 C548 1.387 . S
C547 H550 0.950 . S
C548 C547 1.387 . S
C548 C551 1.387 . S
H549 C545 0.950 . S
H550 C547 0.950 . S
C551 C542 1.390 . S
C551 H544 0.950 . S
C551 C548 1.387 . S
C552 C553 1.387 . S
C552 H556 0.950 . S
C552 C561 1.390 . S
C553 C552 1.387 . S
C553 C555 1.387 . S
H554 C561 0.950 . S
C555 C553 1.387 . S
C555 C557 1.390 . S
C555 H559 0.950 . S
H556 C552 0.950 . S
C557 C555 1.390 . S
C557 C558 1.387 . S
C557 H560 0.950 . S
C558 C557 1.387 . S
C558 C561 1.387 . S
H559 C555 0.950 . S
H560 C557 0.950 . S
C561 C552 1.390 . S
C561 H554 0.950 . S
C561 C558 1.387 . S
C562 C563 1.387 . S
C562 H566 0.950 . S
C562 C571 1.390 . S
C563 C562 1.387 . S
C563 C565 1.387 . S
H564 C571 0.950 . S
C565 C563 1.387 . S
C565 C567 1.390 . S
C565 H569 0.950 . S
H566 C562 0.950 . S
C567 C565 1.390 . S
C567 C568 1.387 . S
C567 H570 0.950 . S
C568 C567 1.387 . S
C568 C571 1.387 . S
H569 C565 0.950 . S
H570 C567 0.950 . S
C571 C562 1.390 . S
C571 H564 0.950 . S
C571 C568 1.387 . S
C572 C573 1.387 . S
C572 H576 0.950 . S
C572 C581 1.390 . S
C573 C572 1.387 . S
C573 C575 1.387 . S
H574 C581 0.950 . S
C575 C573 1.387 . S
C575 C577 1.390 . S
C575 H579 0.950 . S
H576 C572 0.950 . S
C577 C575 1.390 . S
C577 C578 1.387 . S
C577 H580 0.950 . S
C578 C577 1.387 . S
C578 C581 1.387 . S
H579 C575 0.950 . S
H580 C577 0.950 . S
C581 C572 1.390 . S
C581 H574 0.950 . S
C581 C578 1.387 . S
C582 C583 1.387 . S
C582 H586 0.950 . S
C582 C591 1.390 . S
C583 C582 1.387 . S
C583 C585 1.387 . S
H584 C591 0.950 . S
C585 C583 1.387 . S
C585 C587 1.390 . S
C585 H589 0.950 . S
H586 C582 0.950 . S
C587 C585 1.390 . S
C587 C588 1.387 . S
C587 H590 0.950 . S
C588 C587 1.387 . S
C588 C591 1.387 . S
H589 C585 0.950 . S
H590 C587 0.950 . S
C591 C582 1.390 . S
C591 H584 0.950 . S
C591 C588 1.387 . S
C592 C593 1.387 . S
C592 H596 0.950 . S
C592 C601 1.390 1_455 S
C593 C592 1.387 . S
C593 C595 1.387 . S
H594 C601 0.950 . S
C595 C593 1.387 . S
C595 C597 1.390 1_455 S
C595 H599 0.950 . S
H596 C592 0.950 . S
C597 C595 1.390 1_655 S
C597 C598 1.387 . S
C597 H600 0.950 . S
C598 C597 1.387 . S
C598 C601 1.387 . S
H599 C595 0.950 . S
H600 C597 0.950 . S
C601 C592 1.390 1_655 S
C601 H594 0.950 . S
C601 C598 1.387 . S
C602 C603 1.387 . S
C602 H606 0.950 . S
C602 C611 1.390 . S
C603 C602 1.387 . S
C603 C605 1.387 . S
H604 C611 0.950 . S
C605 C603 1.387 . S
C605 C607 1.390 . S
C605 H609 0.950 . S
H606 C602 0.950 . S
C607 C605 1.390 . S
C607 C608 1.387 . S
C607 H610 0.950 . S
C608 C607 1.387 . S
C608 C611 1.387 . S
H609 C605 0.950 . S
H610 C607 0.950 . S
C611 C602 1.390 . S
C611 H604 0.950 . S
C611 C608 1.387 . S
C612 C613 1.387 . S
C612 H616 0.950 . S
C612 C621 1.390 1_655 S
C613 C612 1.387 . S
C613 C615 1.387 . S
H614 C621 0.950 . S
C615 C613 1.387 . S
C615 C617 1.390 1_655 S
C615 H619 0.950 . S
H616 C612 0.950 . S
C617 C615 1.390 1_455 S
C617 C618 1.387 . S
C617 H620 0.950 . S
C618 C617 1.387 . S
C618 C621 1.387 . S
H619 C615 0.950 . S
H620 C617 0.950 . S
C621 C612 1.390 1_455 S
C621 H614 0.950 . S
C621 C618 1.387 . S
C622 C623 1.387 . S
C622 H626 0.950 . S
C622 C631 1.390 . S
C623 C622 1.387 . S
C623 C625 1.387 . S
H624 C631 0.950 . S
C625 C623 1.387 . S
C625 C627 1.390 . S
C625 H629 0.950 . S
H626 C622 0.950 . S
C627 C625 1.390 . S
C627 C628 1.387 . S
C627 H630 0.950 . S
C628 C627 1.387 . S
C628 C631 1.387 . S
H629 C625 0.950 . S
H630 C627 0.950 . S
C631 C622 1.390 . S
C631 H624 0.950 . S
C631 C628 1.387 . S
C632 C633 1.387 . S
C632 H636 0.950 . S
C632 C641 1.390 . S
C633 C632 1.387 . S
C633 C635 1.387 . S
H634 C641 0.950 . S
C635 C633 1.387 . S
C635 C637 1.390 . S
C635 H639 0.950 . S
H636 C632 0.950 . S
C637 C635 1.390 . S
C637 C638 1.387 . S
C637 H640 0.950 . S
C638 C637 1.387 . S
C638 C641 1.387 . S
H639 C635 0.950 . S
H640 C637 0.950 . S
C641 C632 1.390 . S
C641 H634 0.950 . S
C641 C638 1.387 . S
C642 C643 1.387 . S
C642 H646 0.950 . S
C642 C651 1.390 1_655 S
C643 C642 1.387 . S
C643 C645 1.387 . S
H644 C651 0.950 . S
C645 C643 1.387 . S
C645 C647 1.390 1_655 S
C645 H649 0.950 . S
H646 C642 0.950 . S
C647 C645 1.390 1_455 S
C647 C648 1.387 . S
C647 H650 0.950 . S
C648 C647 1.387 . S
C648 C651 1.387 . S
H649 C645 0.950 . S
H650 C647 0.950 . S
C651 C642 1.390 1_455 S
C651 H644 0.950 . S
C651 C648 1.387 . S
C652 C653 1.387 . S
C652 H656 0.950 . S
C652 C661 1.390 . S
C653 C652 1.387 . S
C653 C655 1.387 . S
H654 C661 0.950 . S
C655 C653 1.387 . S
C655 C657 1.390 . S
C655 H659 0.950 . S
H656 C652 0.950 . S
C657 C655 1.390 . S
C657 C658 1.387 . S
C657 H660 0.950 . S
C658 C657 1.387 . S
C658 C661 1.387 . S
H659 C655 0.950 . S
H660 C657 0.950 . S
C661 C652 1.390 . S
C661 H654 0.950 . S
C661 C658 1.387 . S
C662 C663 1.387 . S
C662 H666 0.950 . S
C662 C671 1.390 1_455 S
C663 C662 1.387 . S
C663 C665 1.387 . S
H664 C671 0.950 . S
C665 C663 1.387 . S
C665 C667 1.390 1_455 S
C665 H669 0.950 . S
H666 C662 0.950 . S
C667 C665 1.390 1_655 S
C667 C668 1.387 . S
C667 H670 0.950 . S
C668 C667 1.387 . S
C668 C671 1.387 . S
H669 C665 0.950 . S
H670 C667 0.950 . S
C671 C662 1.390 1_655 S
C671 H664 0.950 . S
C671 C668 1.387 . S
C672 C673 1.387 . S
C672 H676 0.950 . S
C672 C681 1.390 1_544 S
C673 C672 1.387 . S
C673 C675 1.387 . S
H674 C681 0.950 . S
C675 C673 1.387 . S
C675 C677 1.390 1_544 S
C675 H679 0.950 . S
H676 C672 0.950 . S
C677 C675 1.390 1_566 S
C677 C678 1.387 . S
C677 H680 0.950 . S
C678 C677 1.387 . S
C678 C681 1.387 . S
H679 C675 0.950 . S
H680 C677 0.950 . S
C681 C672 1.390 1_566 S
C681 H674 0.950 . S
C681 C678 1.387 . S
C682 C683 1.387 . S
C682 H686 0.950 . S
C682 C691 1.390 1_565 S
C683 C682 1.387 . S
C683 C685 1.387 . S
H684 C691 0.950 . S
C685 C683 1.387 . S
C685 C687 1.390 1_565 S
C685 H689 0.950 . S
H686 C682 0.950 . S
C687 C685 1.390 1_545 S
C687 C688 1.387 . S
C687 H690 0.950 . S
C688 C687 1.387 . S
C688 C691 1.387 . S
H689 C685 0.950 . S
H690 C687 0.950 . S
C691 C682 1.390 1_545 S
C691 H684 0.950 . S
C691 C688 1.387 . S
C692 C693 1.387 . S
C692 H696 0.950 . S
C692 C701 1.390 1_544 S
C693 C692 1.387 . S
C693 C695 1.387 . S
H694 C701 0.950 . S
C695 C693 1.387 . S
C695 C697 1.390 1_544 S
C695 H699 0.950 . S
H696 C692 0.950 . S
C697 C695 1.390 1_566 S
C697 C698 1.387 . S
C697 H700 0.950 . S
C698 C697 1.387 . S
C698 C701 1.387 . S
H699 C695 0.950 . S
H700 C697 0.950 . S
C701 C692 1.390 1_566 S
C701 H694 0.950 . S
C701 C698 1.387 . S
C702 C703 1.387 . S
C702 H706 0.950 . S
C702 C711 1.390 1_545 S
C703 C702 1.387 . S
C703 C705 1.387 . S
H704 C711 0.950 . S
C705 C703 1.387 . S
C705 C707 1.390 1_545 S
C705 H709 0.950 . S
H706 C702 0.950 . S
C707 C705 1.390 1_565 S
C707 C708 1.387 . S
C707 H710 0.950 . S
C708 C707 1.387 . S
C708 C711 1.387 . S
H709 C705 0.950 . S
H710 C707 0.950 . S
C711 C702 1.390 1_565 S
C711 H704 0.950 . S
C711 C708 1.387 . S
C712 C713 1.387 . S
C712 H716 0.950 . S
C712 C721 1.390 1_554 S
C713 C712 1.387 . S
C713 C715 1.387 . S
H714 C721 0.950 . S
C715 C713 1.387 . S
C715 C717 1.390 1_554 S
C715 H719 0.950 . S
H716 C712 0.950 . S
C717 C715 1.390 1_556 S
C717 C718 1.387 . S
C717 H720 0.950 . S
C718 C717 1.387 . S
C718 C721 1.387 . S
H719 C715 0.950 . S
H720 C717 0.950 . S
C721 C712 1.390 1_556 S
C721 H714 0.950 . S
C721 C718 1.387 . S
C722 C723 1.387 . S
C722 H726 0.950 . S
C722 C731 1.390 . S
C723 C722 1.387 . S
C723 C725 1.387 . S
H724 C731 0.950 . S
C725 C723 1.387 . S
C725 C727 1.390 . S
C725 H729 0.950 . S
H726 C722 0.950 . S
C727 C725 1.390 . S
C727 C728 1.387 . S
C727 H730 0.950 . S
C728 C727 1.387 . S
C728 C731 1.387 . S
H729 C725 0.950 . S
H730 C727 0.950 . S
C731 C722 1.390 . S
C731 H724 0.950 . S
C731 C728 1.387 . S
C732 C733 1.387 . S
C732 H736 0.950 . S
C732 C741 1.390 1_556 S
C733 C732 1.387 . S
C733 C735 1.387 . S
H734 C741 0.950 . S
C735 C733 1.387 . S
C735 C737 1.390 1_556 S
C735 H739 0.950 . S
H736 C732 0.950 . S
C737 C735 1.390 1_554 S
C737 C738 1.387 . S
C737 H740 0.950 . S
C738 C737 1.387 . S
C738 C741 1.387 . S
H739 C735 0.950 . S
H740 C737 0.950 . S
C741 C732 1.390 1_554 S
C741 H734 0.950 . S
C741 C738 1.387 . S
C742 C743 1.387 . S
C742 H746 0.950 . S
C742 C751 1.390 . S
C743 C742 1.387 . S
C743 C745 1.387 . S
H744 C751 0.950 . S
C745 C743 1.387 . S
C745 C747 1.390 . S
C745 H749 0.950 . S
H746 C742 0.950 . S
C747 C745 1.390 . S
C747 C748 1.387 . S
C747 H750 0.950 . S
C748 C747 1.387 . S
C748 C751 1.387 . S
H749 C745 0.950 . S
H750 C747 0.950 . S
C751 C742 1.390 . S
C751 H744 0.950 . S
C751 C748 1.387 . S
C752 C753 1.387 . S
C752 H756 0.950 . S
C752 C761 1.390 1_554 S
C753 C752 1.387 . S
C753 C755 1.387 . S
H754 C761 0.950 . S
C755 C753 1.387 . S
C755 C757 1.390 1_554 S
C755 H759 0.950 . S
H756 C752 0.950 . S
C757 C755 1.390 1_556 S
C757 C758 1.387 . S
C757 H760 0.950 . S
C758 C757 1.387 . S
C758 C761 1.387 . S
H759 C755 0.950 . S
H760 C757 0.950 . S
C761 C752 1.390 1_556 S
C761 H754 0.950 . S
C761 C758 1.387 . S
C762 C763 1.387 . S
C762 H766 0.950 . S
C762 C771 1.390 . S
C763 C762 1.387 . S
C763 C765 1.387 . S
H764 C771 0.950 . S
C765 C763 1.387 . S
C765 C767 1.390 . S
C765 H769 0.950 . S
H766 C762 0.950 . S
C767 C765 1.390 . S
C767 C768 1.387 . S
C767 H770 0.950 . S
C768 C767 1.387 . S
C768 C771 1.387 . S
H769 C765 0.950 . S
H770 C767 0.950 . S
C771 C762 1.390 . S
C771 H764 0.950 . S
C771 C768 1.387 . S
C772 C773 1.387 . S
C772 H776 0.950 . S
C772 C781 1.390 1_556 S
C773 C772 1.387 . S
C773 C775 1.387 . S
H774 C781 0.950 . S
C775 C773 1.387 . S
C775 C777 1.390 1_556 S
C775 H779 0.950 . S
H776 C772 0.950 . S
C777 C775 1.390 1_554 S
C777 C778 1.387 . S
C777 H780 0.950 . S
C778 C777 1.387 . S
C778 C781 1.387 . S
H779 C775 0.950 . S
H780 C777 0.950 . S
C781 C772 1.390 1_554 S
C781 H774 0.950 . S
C781 C778 1.387 . S
C782 C783 1.387 . S
C782 H786 0.950 . S
C782 C791 1.390 . S
C783 C782 1.387 . S
C783 C785 1.387 . S
H784 C791 0.950 . S
C785 C783 1.387 . S
C785 C787 1.390 . S
C785 H789 0.950 . S
H786 C782 0.950 . S
C787 C785 1.390 . S
C787 C788 1.387 . S
C787 H790 0.950 . S
C788 C787 1.387 . S
C788 C791 1.387 . S
H789 C785 0.950 . S
H790 C787 0.950 . S
C791 C782 1.390 . S
C791 H784 0.950 . S
C791 C788 1.387 . S
C792 C793 1.387 . S
C792 H796 0.950 . S
C792 C801 1.390 1_556 S
C793 C792 1.387 . S
C793 C795 1.387 . S
H794 C801 0.950 . S
C795 C793 1.387 . S
C795 C797 1.390 1_556 S
C795 H799 0.950 . S
H796 C792 0.950 . S
C797 C795 1.390 1_554 S
C797 C798 1.387 . S
C797 H800 0.950 . S
C798 C797 1.387 . S
C798 C801 1.387 . S
H799 C795 0.950 . S
H800 C797 0.950 . S
C801 C792 1.390 1_554 S
C801 H794 0.950 . S
C801 C798 1.387 . S
C802 C803 1.387 . S
C802 H806 0.950 . S
C802 C811 1.390 . S
C803 C802 1.387 . S
C803 C805 1.387 . S
H804 C811 0.950 . S
C805 C803 1.387 . S
C805 C807 1.390 . S
C805 H809 0.950 . S
H806 C802 0.950 . S
C807 C805 1.390 . S
C807 C808 1.387 . S
C807 H810 0.950 . S
C808 C807 1.387 . S
C808 C811 1.387 . S
H809 C805 0.950 . S
H810 C807 0.950 . S
C811 C802 1.390 . S
C811 H804 0.950 . S
C811 C808 1.387 . S
C812 C813 1.387 . S
C812 H816 0.950 . S
C812 C821 1.390 1_556 S
C813 C812 1.387 . S
C813 C815 1.387 . S
H814 C821 0.950 . S
C815 C813 1.387 . S
C815 C817 1.390 1_556 S
C815 H819 0.950 . S
H816 C812 0.950 . S
C817 C815 1.390 1_554 S
C817 C818 1.387 . S
C817 H820 0.950 . S
C818 C817 1.387 . S
C818 C821 1.387 . S
H819 C815 0.950 . S
H820 C817 0.950 . S
C821 C812 1.390 1_554 S
C821 H814 0.950 . S
C821 C818 1.387 . S
C822 C823 1.387 . S
C822 H826 0.950 . S
C822 C831 1.390 . S
C823 C822 1.387 . S
C823 C825 1.387 . S
H824 C831 0.950 . S
C825 C823 1.387 . S
C825 C827 1.390 . S
C825 H829 0.950 . S
H826 C822 0.950 . S
C827 C825 1.390 . S
C827 C828 1.387 . S
C827 H830 0.950 . S
C828 C827 1.387 . S
C828 C831 1.387 . S
H829 C825 0.950 . S
H830 C827 0.950 . S
C831 C822 1.390 . S
C831 H824 0.950 . S
C831 C828 1.387 . S
C353 C15 1.518 . S
C358 C73 1.518 . S
C363 C59 1.518 . S
C368 C29 1.518 . S
C373 C169 1.529 . S
C378 C109 1.529 . S
C383 C117 1.529 . S
C388 C153 1.529 . S
C393 C257 1.519 . S
C398 C191 1.519 . S
C403 C235 1.519 . S
C408 C205 1.519 . S
C413 C285 1.529 . S
C418 C345 1.529 . S
C423 C323 1.529 . S
C428 C293 1.529 . S
C433 C8 1.557 . S
C438 C351 1.629 . S
C443 C32 1.557 . S
C448 C329 1.629 . S
C453 C301 1.629 . S
C458 C52 1.557 . S
C463 C271 1.629 . S
C468 C76 1.557 . S
C473 C98 1.571 . S
C478 C249 1.630 . S
C483 C118 1.568 . S
C488 C227 1.629 . S
C493 C219 1.630 . S
C498 C142 1.570 . S
C503 C183 1.629 . S
C508 C172 1.568 . S
C513 C184 1.557 . S
C518 C175 1.629 . S
C523 C208 1.556 . S
C528 C139 1.629 . S
C533 C228 1.554 . S
C538 C125 1.628 . S
C543 C250 1.554 . S
C548 C95 1.628 . S
C553 C87 1.630 . S
C558 C274 1.571 . S
C563 C51 1.630 . S
C568 C294 1.571 . S
C573 C326 1.569 . S
C578 C43 1.629 . S
C583 C348 1.571 . S
C588 C7 1.630 . S
C593 C18 1.458 . S
C598 C150 1.457 . S
C603 C30 1.457 . S
C608 C162 1.457 . S
C613 C106 1.456 . S
C618 C62 1.457 . S
C623 C74 1.457 . S
C628 C120 1.457 . S
C633 C194 1.457 . S
C638 C316 1.457 . S
C643 C206 1.457 . S
C648 C338 1.457 . S
C653 C238 1.457 . S
C658 C282 1.457 . S
C663 C296 1.456 . S
C668 C260 1.457 . S
C673 C10 1.531 . S
C678 C54 1.531 . S
C683 C40 1.531 . S
C688 C84 1.531 . S
C693 C140 1.532 . S
C698 C96 1.532 . S
C703 C128 1.532 . S
C708 C164 1.532 . S
C713 C186 1.531 . S
C718 C230 1.531 . S
C723 C252 1.531 . S
C728 C216 1.531 . S
C733 C272 1.532 . S
C738 C318 1.532 . S
C743 C304 1.532 . S
C748 C340 1.532 . S
C753 C21 1.146 . S
C758 C279 1.159 . S
C763 C37 1.143 . S
C768 C307 1.156 . S
C773 C65 1.146 . S
C778 C315 1.159 . S
C783 C81 1.146 . S
C788 C337 1.159 . S
C793 C103 1.159 . S
C798 C197 1.146 . S
C803 C213 1.144 . S
C808 C131 1.157 . S
C813 C241 1.146 . S
C818 C147 1.159 . S
C823 C263 1.144 . S
C828 C161 1.157 . S
