# Generated by pormake.
# Topology dft, (4)-cn, num edge types: 1
# Building blocks:
#     Node 0, Type 0, BuildingBlock: UXUYUI_clean_sbu_0, # of connection points: 4
#     Node 1, Type 0, BuildingBlock: UXUYUI_clean_sbu_0, # of connection points: 4
#     Node 2, Type 0, BuildingBlock: UXUYUI_clean_sbu_0, # of connection points: 4
#     Node 3, Type 0, BuildingBlock: UXUYUI_clean_sbu_0, # of connection points: 4
#     Node 4, Type 0, BuildingBlock: UXUYUI_clean_sbu_0, # of connection points: 4
#     Node 5, Type 0, BuildingBlock: UXUYUI_clean_sbu_0, # of connection points: 4
#     Node 6, Type 0, BuildingBlock: UXUYUI_clean_sbu_0, # of connection points: 4
#     Node 7, Type 0, BuildingBlock: UXUYUI_clean_sbu_0, # of connection points: 4
#     Edge 8, Type (0, 0), BuildingBlock: OJICUG_clean_linker_0, # of connection points: 2
#     Edge 9, Type (0, 0), BuildingBlock: OJICUG_clean_linker_0, # of connection points: 2
#     Edge 10, Type (0, 0), BuildingBlock: OJICUG_clean_linker_0, # of connection points: 2
#     Edge 11, Type (0, 0), BuildingBlock: OJICUG_clean_linker_0, # of connection points: 2
#     Edge 12, Type (0, 0), BuildingBlock: OJICUG_clean_linker_0, # of connection points: 2
#     Edge 13, Type (0, 0), BuildingBlock: OJICUG_clean_linker_0, # of connection points: 2
#     Edge 14, Type (0, 0), BuildingBlock: OJICUG_clean_linker_0, # of connection points: 2
#     Edge 15, Type (0, 0), BuildingBlock: OJICUG_clean_linker_0, # of connection points: 2
#     Edge 16, Type (0, 0), BuildingBlock: OJICUG_clean_linker_0, # of connection points: 2
#     Edge 17, Type (0, 0), BuildingBlock: OJICUG_clean_linker_0, # of connection points: 2
#     Edge 18, Type (0, 0), BuildingBlock: OJICUG_clean_linker_0, # of connection points: 2
#     Edge 19, Type (0, 0), BuildingBlock: OJICUG_clean_linker_0, # of connection points: 2
#     Edge 20, Type (0, 0), BuildingBlock: OJICUG_clean_linker_0, # of connection points: 2
#     Edge 21, Type (0, 0), BuildingBlock: OJICUG_clean_linker_0, # of connection points: 2
#     Edge 22, Type (0, 0), BuildingBlock: OJICUG_clean_linker_0, # of connection points: 2
#     Edge 23, Type (0, 0), BuildingBlock: OJICUG_clean_linker_0, # of connection points: 2
# Relax obj value: 0.226
# Max RMSD: 0.178
# Mean RMSD: 0.177
data_MOF--net-dft--node1-UXUYUI_clean_sbu_0--edge1-OJICUG_clean_linker_0
_symmetry_space_group_name_H-M    P1
_symmetry_Int_Tables_number       1
_symmetry_cell_setting            triclinic
loop_
_symmetry_equiv_pos_as_xyz
'x, y, z'
_cell_length_a     41.523776
_cell_length_b     41.446983
_cell_length_c     47.909852
_cell_angle_alpha  89.999771
_cell_angle_beta   89.999965
_cell_angle_gamma 90.000709
loop_
_atom_site_label
_atom_site_type_symbol
_atom_site_fract_x
_atom_site_fract_y
_atom_site_fract_z
_atom_type_partial_charge
Li0 Li 0.26689 0.01708 0.20029 0.0
Li1 Li 0.31635 0.98519 0.1982 0.0
Li2 Li 0.28009 0.98919 0.1562 0.0
Li3 Li 0.26569 0.95677 0.19691 0.0
C4 C 0.31068 0.05554 0.17006 0.0
N5 N 0.32285 0.11982 0.15882 0.0
C6 C 0.33606 0.07146 0.1834 0.0
C7 C 0.29184 0.07221 0.15065 0.0
C8 C 0.34173 0.10399 0.17754 0.0
C9 C 0.29827 0.10472 0.14535 0.0
C10 C 0.29846 0.98546 0.2524 0.0
C11 C 0.32932 0.95926 0.28852 0.0
N12 N 0.33118 0.98771 0.30258 0.0
C13 C 0.30041 0.01437 0.26733 0.0
C14 C 0.31275 0.9576 0.26318 0.0
C15 C 0.31715 0.01503 0.29262 0.0
C16 C 0.21354 0.04773 0.22223 0.0
N17 N 0.24509 0.05289 0.21626 0.0
C18 C 0.24166 0.10698 0.23329 0.0
C19 C 0.25949 0.08164 0.22186 0.0
C20 C 0.20884 0.10247 0.23923 0.0
C21 C 0.19484 0.07231 0.23364 0.0
H22 H 0.20283 0.02448 0.21789 0.0
H23 H 0.28482 0.0849 0.21781 0.0
C24 C 0.37948 0.96362 0.19334 0.0
N25 N 0.36048 0.9838 0.20843 0.0
C26 C 0.41282 0.96447 0.19647 0.0
C27 C 0.40648 0.00603 0.23146 0.0
C28 C 0.37319 0.00448 0.22754 0.0
C29 C 0.42671 0.98645 0.21522 0.0
H30 H 0.36886 0.94782 0.17794 0.0
H31 H 0.35772 0.02096 0.23868 0.0
C32 C 0.21352 -0.00276 0.1603 0.0
N33 N 0.16214 0.01407 0.12662 0.0
C34 C 0.19191 0.97367 0.15108 0.0
C35 C 0.20863 0.02945 0.15278 0.0
C36 C 0.1662 0.98263 0.13395 0.0
C37 C 0.18262 0.03746 0.13565 0.0
C38 C 0.30546 0.91833 0.1684 0.0
C39 C 0.29631 0.90363 0.14338 0.0
C40 C 0.31721 0.89945 0.19031 0.0
C41 C 0.29848 0.87011 0.1409 0.0
C42 C 0.319 0.86601 0.18702 0.0
N43 N 0.30964 0.85215 0.1626 0.0
C44 C 0.30099 0.00979 0.10323 0.0
C45 C 0.25673 0.97372 0.10232 0.0
C46 C 0.30105 0.01161 0.07415 0.0
N47 N 0.2788 0.99137 0.11666 0.0
C48 C 0.25599 0.9747 0.07321 0.0
C49 C 0.27833 0.9939 0.05873 0.0
H50 H 0.31879 0.02296 0.11511 0.0
H51 H 0.24013 0.95835 0.11345 0.0
C52 C 0.23562 0.91571 0.23568 0.0
N53 N 0.24207 0.91992 0.20813 0.0
C54 C 0.21502 0.89104 0.24431 0.0
C55 C 0.20895 0.87494 0.19609 0.0
C56 C 0.22946 0.90005 0.1884 0.0
C57 C 0.20091 0.87059 0.22433 0.0
H58 H 0.2455 0.93227 0.25086 0.0
H59 H 0.23446 0.90437 0.16659 0.0
O60 O 0.30484 0.02365 0.17555 0.0
O61 O 0.28214 0.98434 0.22763 0.0
O62 O 0.23887 0.98884 0.17707 0.0
O63 O 0.30322 0.95108 0.17134 0.0
H64 H 0.35109 0.05893 0.19826 0.0
H65 H 0.27272 0.06012 0.13952 0.0
H66 H 0.36115 0.11664 0.18786 0.0
H67 H 0.28381 0.1179 0.13043 0.0
H68 H 0.34062 0.93791 0.29704 0.0
H69 H 0.28931 0.03611 0.25941 0.0
H70 H 0.311 0.93492 0.25215 0.0
H71 H 0.31902 0.03728 0.30431 0.0
H72 H 0.25349 0.1297 0.23771 0.0
H73 H 0.16955 0.06787 0.2376 0.0
H74 H 0.42764 0.94883 0.18371 0.0
H75 H 0.41634 0.02361 0.24584 0.0
H76 H 0.19507 0.94868 0.15693 0.0
H77 H 0.2245 0.04814 0.16034 0.0
H78 H 0.14946 0.96459 0.12649 0.0
H79 H 0.17863 0.06229 0.12963 0.0
H80 H 0.28745 0.91791 0.12613 0.0
H81 H 0.32485 0.91052 0.20963 0.0
H82 H 0.29128 0.85838 0.12172 0.0
H83 H 0.32788 0.85108 0.20387 0.0
H84 H 0.3186 0.02688 0.06391 0.0
H85 H 0.23854 0.96006 0.06218 0.0
H86 H 0.20912 0.88899 0.26625 0.0
H87 H 0.19896 0.85956 0.18 0.0
Li88 Li 0.98842 0.28669 0.65682 0.0
Li89 Li 0.983 0.31843 0.70044 0.0
Li90 Li 0.01368 0.26774 0.70023 0.0
Li91 Li 0.95491 0.26879 0.69628 0.0
C92 C 0.04619 0.32111 0.66346 0.0
N93 N 0.09264 0.34862 0.62971 0.0
C94 C 0.04862 0.35467 0.66139 0.0
C95 C 0.06744 0.30155 0.64843 0.0
C96 C 0.07227 0.36811 0.64421 0.0
C97 C 0.09073 0.31592 0.63146 0.0
C98 C 0.9171 0.30676 0.66855 0.0
C99 C 0.86296 0.31311 0.68593 0.0
N100 N 0.85128 0.30188 0.66125 0.0
C101 C 0.90458 0.29548 0.64329 0.0
C102 C 0.89616 0.31586 0.69 0.0
C103 C 0.87122 0.29313 0.64003 0.0
C104 C 0.97886 0.26208 0.60313 0.0
N105 N 0.9915 0.28752 0.61723 0.0
C106 C 0.00678 0.31286 0.57447 0.0
C107 C 0.00474 0.31294 0.60352 0.0
C108 C 0.99371 0.28701 0.5591 0.0
C109 C 0.97934 0.26148 0.574 0.0
H110 H 0.96779 0.24248 0.61455 0.0
H111 H 0.01364 0.33344 0.61502 0.0
C112 C 0.00636 0.37346 0.72962 0.0
N113 N 0.98239 0.36163 0.71319 0.0
C114 C 0.00824 0.40653 0.73501 0.0
C115 C 0.96059 0.4143 0.70674 0.0
C116 C 0.95938 0.38115 0.70222 0.0
C117 C 0.98567 0.42733 0.72276 0.0
H118 H 0.02493 0.3575 0.73731 0.0
H119 H 0.94103 0.37122 0.68876 0.0
C120 C -0.00166 0.21393 0.66965 0.0
N121 N 0.02483 0.15337 0.66252 0.0
C122 C 0.9859 0.18755 0.68428 0.0
C123 C 0.02395 0.20948 0.65115 0.0
C124 C -0.00029 0.15713 0.68046 0.0
C125 C 0.0371 0.17868 0.6479 0.0
C126 C 0.98476 0.29868 0.75279 0.0
C127 C 0.01417 0.29836 0.76698 0.0
C128 C 0.95883 0.31607 0.76373 0.0
C129 C 0.01723 0.31574 0.79183 0.0
C130 C 0.96288 0.33319 0.7886 0.0
N131 N 0.99175 0.33268 0.80201 0.0
C132 C 0.07977 0.25513 0.71151 0.0
C133 C 0.04258 0.21695 0.72929 0.0
C134 C 0.1056 0.23709 0.72173 0.0
N135 N 0.04908 0.24449 0.71501 0.0
C136 C 0.06762 0.19806 0.7397 0.0
C137 C 0.09969 0.20794 0.73581 0.0
H138 H 0.08424 0.27766 0.7009 0.0
H139 H 0.01789 0.20953 0.73239 0.0
C140 C 0.90409 0.22641 0.68481 0.0
N141 N 0.91777 0.24461 0.70519 0.0
C142 C 0.87879 0.20554 0.69117 0.0
C143 C 0.88182 0.22308 0.73926 0.0
C144 C 0.907 0.24369 0.73193 0.0
C145 C 0.86779 0.20319 0.71884 0.0
H146 H 0.91349 0.22746 0.66377 0.0
H147 H 0.91871 0.25811 0.74775 0.0
O148 O 0.02307 0.30755 0.68007 0.0
O149 O 0.94968 0.30857 0.67238 0.0
O150 O 0.98531 0.24392 0.6733 0.0
O151 O 0.98133 0.28195 0.72837 0.0
H152 H 0.0323 0.37019 0.67275 0.0
H153 H 0.06591 0.27556 0.64981 0.0
H154 H 0.07438 0.39403 0.64235 0.0
H155 H 0.10727 0.30107 0.61966 0.0
H156 H 0.84648 0.31985 0.70242 0.0
H157 H 0.92043 0.28842 0.62646 0.0
H158 H 0.90548 0.32464 0.70966 0.0
H159 H 0.86119 0.28429 0.62065 0.0
H160 H 0.01863 0.33294 0.56435 0.0
H161 H 0.96803 0.2414 0.56342 0.0
H162 H 0.0282 0.41594 0.74708 0.0
H163 H 0.94289 0.42978 0.69689 0.0
H164 H 0.96602 0.19061 0.69865 0.0
H165 H 0.03353 0.22957 0.63939 0.0
H166 H 0.99049 0.13653 0.69178 0.0
H167 H 0.05702 0.17489 0.63373 0.0
H168 H 0.03448 0.28501 0.75885 0.0
H169 H 0.93592 0.31656 0.75302 0.0
H170 H 0.03988 0.31582 0.80298 0.0
H171 H 0.94308 0.34692 0.79723 0.0
H172 H 0.12989 0.24598 0.71879 0.0
H173 H 0.06187 0.17567 0.75022 0.0
H174 H 0.86845 0.19089 0.67474 0.0
H175 H 0.87446 0.22169 0.76091 0.0
Li176 Li 0.67485 0.00691 0.1982 0.0
Li177 Li 0.72431 0.975 0.2003 0.0
Li178 Li 0.72551 0.03531 0.19691 0.0
Li179 Li 0.71111 0.00289 0.15621 0.0
C180 C 0.69271 0.00662 0.2524 0.0
N181 N 0.65992 0.00435 0.30254 0.0
C182 C 0.69073 0.9777 0.26731 0.0
C183 C 0.67842 0.03448 0.26318 0.0
C184 C 0.67395 0.97703 0.29258 0.0
C185 C 0.66181 0.03281 0.2885 0.0
C186 C 0.68055 0.93655 0.17003 0.0
C187 C 0.69304 0.88742 0.14528 0.0
N188 N 0.66846 0.87228 0.1587 0.0
C189 C 0.65517 0.92059 0.18332 0.0
C190 C 0.69943 0.91992 0.15062 0.0
C191 C 0.64953 0.88807 0.17742 0.0
C192 C 0.61173 0.02856 0.19342 0.0
N193 N 0.63073 0.0083 0.20844 0.0
C194 C 0.58472 0.986 0.23141 0.0
C195 C 0.61801 0.98755 0.22749 0.0
C196 C 0.5645 0.00566 0.21524 0.0
C197 C 0.5784 0.02771 0.19656 0.0
H198 H 0.62236 0.04441 0.17808 0.0
H199 H 0.63348 0.97101 0.23858 0.0
C200 C 0.77764 0.94436 0.22227 0.0
N201 N 0.74609 0.9392 0.21627 0.0
C202 C 0.79634 0.91979 0.23369 0.0
C203 C 0.74954 0.88509 0.23328 0.0
C204 C 0.7317 0.91044 0.22186 0.0
C205 C 0.78235 0.88961 0.23925 0.0
H206 H 0.78835 0.96762 0.21795 0.0
H207 H 0.70638 0.90717 0.21778 0.0
C208 C 0.68578 0.07376 0.16839 0.0
N209 N 0.68167 0.13994 0.16254 0.0
C210 C 0.6949 0.08843 0.14334 0.0
C211 C 0.67409 0.09267 0.19029 0.0
C212 C 0.69277 0.12194 0.14084 0.0
C213 C 0.67233 0.12611 0.18699 0.0
C214 C 0.7777 -0.00515 0.16032 0.0
C215 C 0.79929 0.01843 0.15111 0.0
C216 C 0.78262 0.96264 0.15283 0.0
C217 C 0.82502 0.00948 0.13399 0.0
C218 C 0.80866 0.95464 0.13572 0.0
N219 N 0.82911 0.97804 0.12669 0.0
C220 C 0.7556 0.07636 0.23569 0.0
C221 C 0.76174 0.09203 0.18841 0.0
C222 C 0.7762 0.10102 0.24432 0.0
N223 N 0.74914 0.07216 0.20814 0.0
C224 C 0.78225 0.11714 0.1961 0.0
C225 C 0.7903 0.12148 0.22435 0.0
H226 H 0.74573 0.05979 0.25087 0.0
H227 H 0.75674 0.08773 0.1666 0.0
C228 C 0.6902 0.98231 0.10323 0.0
N229 N 0.7124 0.00071 0.11666 0.0
C230 C 0.69014 0.98048 0.07416 0.0
C231 C 0.73523 0.01736 0.07322 0.0
C232 C 0.73448 0.01835 0.10232 0.0
C233 C 0.71287 -0.00181 0.05873 0.0
H234 H 0.67239 0.96915 0.11511 0.0
H235 H 0.7511 0.03371 0.11345 0.0
O236 O 0.70906 0.00775 0.22764 0.0
O237 O 0.68635 0.96843 0.17556 0.0
O238 O 0.68798 0.04101 0.17134 0.0
O239 O 0.75232 0.00323 0.17708 0.0
H240 H 0.70183 0.95596 0.25938 0.0
H241 H 0.68019 0.05716 0.25216 0.0
H242 H 0.67206 0.95477 0.30426 0.0
H243 H 0.6505 0.05416 0.29702 0.0
H244 H 0.70754 0.87427 0.13036 0.0
H245 H 0.64009 0.93308 0.19818 0.0
H246 H 0.71856 0.93205 0.13953 0.0
H247 H 0.6301 0.87538 0.1877 0.0
H248 H 0.57485 0.96837 0.24574 0.0
H249 H 0.56358 0.04342 0.18385 0.0
H250 H 0.82162 0.92423 0.23767 0.0
H251 H 0.73771 0.86237 0.23769 0.0
H252 H 0.70372 0.07412 0.12609 0.0
H253 H 0.66648 0.08164 0.20963 0.0
H254 H 0.69995 0.13365 0.12164 0.0
H255 H 0.66351 0.14107 0.20384 0.0
H256 H 0.79611 0.04342 0.15694 0.0
H257 H 0.76676 0.94394 0.16039 0.0
H258 H 0.84176 0.02754 0.12654 0.0
H259 H 0.81267 0.9298 0.12971 0.0
H260 H 0.78211 0.10306 0.26626 0.0
H261 H 0.79224 0.13253 0.18002 0.0
H262 H 0.67258 0.96523 0.06391 0.0
H263 H 0.75268 0.032 0.06219 0.0
Li264 Li 0.97752 0.72435 0.70023 0.0
Li265 Li 0.03629 0.72329 0.69628 0.0
Li266 Li 0.00278 0.70539 0.65683 0.0
Li267 Li 0.0082 0.67365 0.70045 0.0
C268 C 0.99284 0.77815 0.66966 0.0
N269 N 0.96629 0.83869 0.66256 0.0
C270 C 0.00526 0.80453 0.68429 0.0
C271 C 0.96721 0.78258 0.65117 0.0
C272 C 0.99143 0.83494 0.68048 0.0
C273 C 0.95403 0.81337 0.64794 0.0
C274 C 0.00644 0.69341 0.75279 0.0
C275 C 0.02833 0.6589 0.78861 0.0
N276 N -0.00053 0.65942 0.80203 0.0
C277 C 0.97704 0.69375 0.767 0.0
C278 C 0.03237 0.67602 0.76374 0.0
C279 C 0.97399 0.67637 0.79185 0.0
C280 C 0.91143 0.73697 0.71149 0.0
N281 N 0.94212 0.7476 0.71501 0.0
C282 C 0.92359 0.79402 0.73972 0.0
C283 C 0.94862 0.77512 0.72931 0.0
C284 C 0.89151 0.78416 0.7358 0.0
C285 C 0.8856 0.75502 0.7217 0.0
H286 H 0.90696 0.71446 0.70086 0.0
H287 H 0.97333 0.78252 0.73243 0.0
C288 C 0.0871 0.7657 0.68481 0.0
N289 N 0.07343 0.74748 0.70518 0.0
C290 C 0.11238 0.78657 0.69117 0.0
C291 C 0.10939 0.769 0.73926 0.0
C292 C 0.08421 0.74839 0.73193 0.0
C293 C 0.1234 0.78891 0.71884 0.0
H294 H 0.07768 0.76466 0.66378 0.0
H295 H 0.07252 0.73396 0.74774 0.0
C296 C 0.94504 0.67095 0.66345 0.0
N297 N 0.89864 0.64337 0.62969 0.0
C298 C 0.94265 0.63738 0.66139 0.0
C299 C 0.92378 0.69047 0.64841 0.0
C300 C 0.91903 0.62391 0.6442 0.0
C301 C 0.90051 0.67607 0.63143 0.0
C302 C 0.0741 0.68533 0.66855 0.0
C303 C 0.08662 0.69663 0.6433 0.0
C304 C 0.09504 0.67622 0.68999 0.0
C305 C 0.11997 0.69898 0.64004 0.0
C306 C 0.12824 0.67897 0.68593 0.0
N307 N 0.13991 0.69022 0.66125 0.0
C308 C 0.01232 0.73002 0.60313 0.0
C309 C 0.98649 0.67913 0.60352 0.0
C310 C 0.01184 0.73062 0.574 0.0
N311 N -0.00031 0.70457 0.61724 0.0
C312 C 0.98445 0.67921 0.57447 0.0
C313 C -0.00251 0.70508 0.55911 0.0
H314 H 0.02336 0.74963 0.61456 0.0
H315 H 0.97761 0.65862 0.61502 0.0
C316 C 0.98486 0.61863 0.72964 0.0
N317 N 0.00882 0.63046 0.71319 0.0
C318 C 0.98298 0.58556 0.73503 0.0
C319 C 0.0306 0.57778 0.70672 0.0
C320 C 0.03182 0.61093 0.70221 0.0
C321 C 0.00553 0.56476 0.72276 0.0
H322 H 0.9663 0.63459 0.73734 0.0
H323 H 0.05015 0.62087 0.68873 0.0
O324 O 0.00589 0.74817 0.6733 0.0
O325 O 0.00987 0.71014 0.72837 0.0
O326 O 0.96812 0.68453 0.68008 0.0
O327 O 0.04152 0.68352 0.67238 0.0
H328 H 0.02516 0.80149 0.69865 0.0
H329 H 0.95763 0.76248 0.63942 0.0
H330 H 0.00064 0.85555 0.6918 0.0
H331 H 0.93409 0.81715 0.63378 0.0
H332 H 0.04813 0.64518 0.79723 0.0
H333 H 0.95673 0.7071 0.75887 0.0
H334 H 0.05529 0.67552 0.75301 0.0
H335 H 0.95134 0.6763 0.80301 0.0
H336 H 0.92934 0.8164 0.75026 0.0
H337 H 0.86131 0.74615 0.71874 0.0
H338 H 0.12271 0.80123 0.67474 0.0
H339 H 0.11676 0.77038 0.7609 0.0
H340 H 0.95898 0.62188 0.67275 0.0
H341 H 0.92527 0.71646 0.64979 0.0
H342 H 0.91695 0.59798 0.64234 0.0
H343 H 0.88396 0.6909 0.61962 0.0
H344 H 0.07076 0.7037 0.62648 0.0
H345 H 0.08572 0.66743 0.70965 0.0
H346 H 0.13 0.70784 0.62066 0.0
H347 H 0.14472 0.67223 0.70241 0.0
H348 H 0.02313 0.75071 0.56343 0.0
H349 H 0.97262 0.65912 0.56435 0.0
H350 H 0.96303 0.57615 0.74711 0.0
H351 H 0.04828 0.5623 0.69685 0.0
Li352 Li 0.26569 0.03531 0.79959 0.0
Li353 Li 0.28009 0.00289 0.84029 0.0
Li354 Li 0.31635 0.00689 0.79829 0.0
Li355 Li 0.26689 0.975 0.7962 0.0
C356 C 0.30547 0.07374 0.82809 0.0
N357 N 0.30967 0.13992 0.8339 0.0
C358 C 0.29632 0.08845 0.85312 0.0
C359 C 0.31722 0.09263 0.80619 0.0
C360 C 0.29851 0.12196 0.85561 0.0
C361 C 0.31902 0.12606 0.80948 0.0
C362 C 0.21352 -0.00515 0.83619 0.0
C363 C 0.1826 0.95464 0.86084 0.0
N364 N 0.16214 0.97804 0.86988 0.0
C365 C 0.19192 0.01842 0.84541 0.0
C366 C 0.20862 0.96264 0.84371 0.0
C367 C 0.16621 0.00948 0.86255 0.0
C368 C 0.23561 0.07636 0.76081 0.0
N369 N 0.24207 0.07216 0.78837 0.0
C370 C 0.20897 0.11715 0.8004 0.0
C371 C 0.22948 0.09204 0.80809 0.0
C372 C 0.20092 0.12149 0.77216 0.0
C373 C 0.21501 0.10103 0.75219 0.0
H374 H 0.24547 0.05979 0.74563 0.0
H375 H 0.23448 0.08773 0.82991 0.0
C376 C 0.30098 0.98227 0.89326 0.0
N377 N 0.2788 0.00071 0.87984 0.0
C378 C 0.30104 0.98045 0.92234 0.0
C379 C 0.25599 0.01737 0.92328 0.0
C380 C 0.25674 0.01836 0.89418 0.0
C381 C 0.27833 -0.00183 0.93776 0.0
H382 H 0.31878 0.9691 0.88138 0.0
H383 H 0.24014 0.03374 0.88305 0.0
C384 C 0.29846 0.00663 0.74409 0.0
N385 N 0.33118 0.0044 0.69391 0.0
C386 C 0.30041 0.97772 0.72916 0.0
C387 C 0.31274 0.0345 0.73331 0.0
C388 C 0.31715 0.97706 0.70387 0.0
C389 C 0.32931 0.03284 0.70797 0.0
C390 C 0.31067 0.93653 0.82643 0.0
C391 C 0.33605 0.92062 0.81308 0.0
C392 C 0.29182 0.91986 0.84582 0.0
C393 C 0.34172 0.88809 0.81894 0.0
C394 C 0.29825 0.88735 0.85112 0.0
N395 N 0.32282 0.87225 0.83765 0.0
C396 C 0.37948 0.02846 0.80316 0.0
C397 C 0.37319 0.98761 0.76895 0.0
C398 C 0.41282 0.0276 0.80003 0.0
N399 N 0.36048 0.00828 0.78806 0.0
C400 C 0.40648 0.98605 0.76503 0.0
C401 C 0.42671 0.00563 0.78127 0.0
H402 H 0.36886 0.04425 0.81855 0.0
H403 H 0.35772 0.97113 0.75781 0.0
C404 C 0.21353 0.94435 0.77426 0.0
N405 N 0.24509 0.9392 0.78023 0.0
C406 C 0.19483 0.91978 0.76284 0.0
C407 C 0.24165 0.8851 0.76319 0.0
C408 C 0.25949 0.91045 0.77461 0.0
C409 C 0.20883 0.88962 0.75725 0.0
H410 H 0.20282 0.9676 0.77861 0.0
H411 H 0.28481 0.90719 0.77866 0.0
O412 O 0.30322 0.04099 0.82516 0.0
O413 O 0.23887 0.00324 0.81942 0.0
O414 O 0.28214 0.00774 0.76886 0.0
O415 O 0.30484 0.96842 0.82094 0.0
H416 H 0.28747 0.07417 0.87037 0.0
H417 H 0.32485 0.08156 0.78687 0.0
H418 H 0.29131 0.13369 0.87479 0.0
H419 H 0.3279 0.14099 0.79263 0.0
H420 H 0.1786 0.92981 0.86687 0.0
H421 H 0.19509 0.04341 0.83956 0.0
H422 H 0.22448 0.94395 0.83615 0.0
H423 H 0.14947 0.02752 0.87 0.0
H424 H 0.19899 0.13254 0.81649 0.0
H425 H 0.2091 0.10307 0.73025 0.0
H426 H 0.31859 0.96517 0.93258 0.0
H427 H 0.23855 0.03202 0.93431 0.0
H428 H 0.28932 0.95598 0.73708 0.0
H429 H 0.31099 0.05717 0.74434 0.0
H430 H 0.31903 0.95481 0.69218 0.0
H431 H 0.34061 0.0542 0.69945 0.0
H432 H 0.35109 0.93314 0.79823 0.0
H433 H 0.2727 0.93195 0.85695 0.0
H434 H 0.36114 0.87543 0.80862 0.0
H435 H 0.28378 0.87417 0.86604 0.0
H436 H 0.42764 0.04325 0.81279 0.0
H437 H 0.41634 0.96848 0.75065 0.0
H438 H 0.16954 0.92421 0.75889 0.0
H439 H 0.25348 0.86239 0.75876 0.0
Li440 Li 0.00822 0.31844 0.29605 0.0
Li441 Li 0.00281 0.2867 0.33967 0.0
Li442 Li 0.03631 0.2688 0.30021 0.0
Li443 Li 0.97754 0.26774 0.29627 0.0
C444 C 0.07413 0.30678 0.32793 0.0
N445 N 0.13995 0.30191 0.33519 0.0
C446 C 0.08667 0.29548 0.35317 0.0
C447 C 0.09505 0.31589 0.30647 0.0
C448 C 0.12003 0.29314 0.35641 0.0
C449 C 0.12825 0.31315 0.31052 0.0
C450 C 0.94503 0.32111 0.33303 0.0
C451 C 0.90048 0.31593 0.36503 0.0
N452 N 0.89857 0.34863 0.36677 0.0
C453 C 0.9426 0.35467 0.3351 0.0
C454 C 0.92378 0.30156 0.34806 0.0
C455 C 0.91894 0.36811 0.35227 0.0
C456 C 0.98486 0.37346 0.26686 0.0
N457 N 0.00882 0.36163 0.2833 0.0
C458 C 0.03059 0.41432 0.28978 0.0
C459 C 0.03181 0.38117 0.29429 0.0
C460 C 0.00552 0.42733 0.27374 0.0
C461 C 0.98297 0.40653 0.26147 0.0
H462 H 0.9663 0.35749 0.25916 0.0
H463 H 0.05015 0.37124 0.30777 0.0
C464 C 0.0124 0.26209 0.39337 0.0
N465 N -0.00027 0.28752 0.37927 0.0
C466 C 0.01193 0.2615 0.4225 0.0
C467 C 0.98444 0.31285 0.42203 0.0
C468 C 0.98647 0.31294 0.39298 0.0
C469 C -0.00246 0.28702 0.43739 0.0
H470 H 0.02348 0.24251 0.38194 0.0
H471 H 0.97755 0.33342 0.38148 0.0
C472 C 0.00645 0.29867 0.2437 0.0
N473 N -0.00055 0.33265 0.19447 0.0
C474 C 0.97704 0.29833 0.22951 0.0
C475 C 0.03237 0.31607 0.23275 0.0
C476 C 0.97398 0.3157 0.20466 0.0
C477 C 0.02831 0.33318 0.20788 0.0
C478 C 0.99289 0.21394 0.32687 0.0
C479 C 0.00531 0.18755 0.31225 0.0
C480 C 0.96728 0.20951 0.34539 0.0
C481 C 0.9915 0.15713 0.3161 0.0
C482 C 0.95413 0.17872 0.34865 0.0
N483 N 0.96639 0.15339 0.33404 0.0
C484 C 0.08712 0.2264 0.31168 0.0
C485 C 0.08423 0.24371 0.26456 0.0
C486 C 0.11241 0.20553 0.30531 0.0
N487 N 0.07345 0.24461 0.29131 0.0
C488 C 0.10941 0.22309 0.25723 0.0
C489 C 0.12342 0.20319 0.27765 0.0
H490 H 0.07772 0.22744 0.33272 0.0
H491 H 0.07253 0.25813 0.24875 0.0
C492 C 0.91145 0.25513 0.28499 0.0
N493 N 0.94214 0.24448 0.2815 0.0
C494 C 0.88562 0.23708 0.27478 0.0
C495 C 0.9236 0.19804 0.25682 0.0
C496 C 0.94864 0.21693 0.26723 0.0
C497 C 0.89153 0.20792 0.26071 0.0
H498 H 0.90698 0.27766 0.29559 0.0
H499 H 0.97334 0.20952 0.26413 0.0
O500 O 0.04154 0.30858 0.32411 0.0
O501 O 0.96815 0.30755 0.31643 0.0
O502 O 0.00989 0.28195 0.26813 0.0
O503 O 0.00592 0.24392 0.3232 0.0
H504 H 0.07083 0.28841 0.37 0.0
H505 H 0.08571 0.32468 0.28681 0.0
H506 H 0.13007 0.28429 0.37579 0.0
H507 H 0.14472 0.3199 0.29402 0.0
H508 H 0.88393 0.30108 0.37682 0.0
H509 H 0.95893 0.37019 0.32374 0.0
H510 H 0.9253 0.27557 0.34668 0.0
H511 H 0.91684 0.39404 0.35412 0.0
H512 H 0.04827 0.4298 0.29965 0.0
H513 H 0.96302 0.41593 0.24939 0.0
H514 H 0.02326 0.24143 0.43307 0.0
H515 H 0.97257 0.33292 0.43215 0.0
H516 H 0.95673 0.28498 0.23764 0.0
H517 H 0.05529 0.31657 0.24347 0.0
H518 H 0.95133 0.31577 0.1935 0.0
H519 H 0.04811 0.34691 0.19925 0.0
H520 H 0.02519 0.19059 0.29788 0.0
H521 H 0.95771 0.22961 0.35713 0.0
H522 H 0.00072 0.13652 0.30479 0.0
H523 H 0.93421 0.17494 0.36284 0.0
H524 H 0.12274 0.19087 0.32174 0.0
H525 H 0.11677 0.22171 0.23558 0.0
H526 H 0.86134 0.24597 0.27771 0.0
H527 H 0.92935 0.17564 0.24631 0.0
Li528 Li 0.71111 0.98921 0.84029 0.0
Li529 Li 0.72551 0.95679 0.79959 0.0
Li530 Li 0.7243 0.0171 0.7962 0.0
Li531 Li 0.67485 0.9852 0.7983 0.0
C532 C 0.77769 -0.00275 0.83618 0.0
N533 N 0.82911 0.01404 0.86983 0.0
C534 C 0.79927 0.97366 0.8454 0.0
C535 C 0.78263 0.02946 0.84368 0.0
C536 C 0.82501 0.9826 0.86252 0.0
C537 C 0.80866 0.03745 0.86079 0.0
C538 C 0.68577 0.91835 0.82812 0.0
C539 C 0.67233 0.86599 0.80951 0.0
N540 N 0.68165 0.85217 0.83396 0.0
C541 C 0.69489 0.90368 0.85316 0.0
C542 C 0.67409 0.89943 0.8062 0.0
C543 C 0.69274 0.87016 0.85567 0.0
C544 C 0.6902 0.00981 0.89326 0.0
N545 N 0.7124 0.9914 0.87984 0.0
C546 C 0.73522 0.97474 0.92328 0.0
C547 C 0.73447 0.97375 0.89418 0.0
C548 C 0.71287 0.99393 0.93777 0.0
C549 C 0.69015 0.01164 0.92234 0.0
H550 H 0.6724 0.02298 0.88139 0.0
H551 H 0.75108 0.95838 0.88305 0.0
C552 C 0.75562 0.91576 0.76082 0.0
N553 N 0.74914 0.91995 0.78837 0.0
C554 C 0.77622 0.8911 0.75218 0.0
C555 C 0.78224 0.87495 0.8004 0.0
C556 C 0.76173 0.90006 0.80809 0.0
C557 C 0.79031 0.87063 0.77215 0.0
H558 H 0.74576 0.93235 0.74564 0.0
H559 H 0.75671 0.90435 0.8299 0.0
C560 C 0.68055 0.05556 0.82647 0.0
N561 N 0.66846 0.11983 0.83778 0.0
C562 C 0.65516 0.07151 0.81317 0.0
C563 C 0.69944 0.07219 0.84586 0.0
C564 C 0.64953 0.10404 0.81908 0.0
C565 C 0.69305 0.10469 0.8512 0.0
C566 C 0.69271 0.98548 0.7441 0.0
C567 C 0.69073 0.0144 0.72919 0.0
C568 C 0.67844 0.95761 0.73332 0.0
C569 C 0.67395 0.01507 0.70392 0.0
C570 C 0.66183 0.95928 0.708 0.0
N571 N 0.65993 0.98774 0.69396 0.0
C572 C 0.77764 0.04774 0.77423 0.0
C573 C 0.7317 0.08167 0.77464 0.0
C574 C 0.79633 0.07232 0.76281 0.0
N575 N 0.74609 0.05291 0.78023 0.0
C576 C 0.74953 0.10701 0.76321 0.0
C577 C 0.78234 0.10249 0.75724 0.0
H578 H 0.78835 0.02449 0.77856 0.0
H579 H 0.70638 0.08494 0.77871 0.0
C580 C 0.61174 0.96354 0.80308 0.0
N581 N 0.63073 0.9838 0.78805 0.0
C582 C 0.5784 0.96437 0.79993 0.0
C583 C 0.58472 0.00609 0.76509 0.0
C584 C 0.61801 0.00455 0.76901 0.0
C585 C 0.5645 0.98643 0.78125 0.0
H586 H 0.62236 0.94768 0.81842 0.0
H587 H 0.63348 0.02108 0.75792 0.0
O588 O 0.75232 0.98888 0.81942 0.0
O589 O 0.68798 0.9511 0.82516 0.0
O590 O 0.68635 0.02367 0.82094 0.0
O591 O 0.70906 0.98436 0.76886 0.0
H592 H 0.79608 0.94867 0.83957 0.0
H593 H 0.76678 0.04816 0.83611 0.0
H594 H 0.84173 0.96454 0.86998 0.0
H595 H 0.81269 0.06228 0.8668 0.0
H596 H 0.66351 0.85104 0.79266 0.0
H597 H 0.70369 0.91798 0.87042 0.0
H598 H 0.66649 0.91047 0.78687 0.0
H599 H 0.69992 0.85846 0.87487 0.0
H600 H 0.75267 0.9601 0.93431 0.0
H601 H 0.67259 0.0269 0.93259 0.0
H602 H 0.78215 0.88908 0.73024 0.0
H603 H 0.79221 0.85955 0.81648 0.0
H604 H 0.64008 0.05902 0.79832 0.0
H605 H 0.71857 0.06006 0.85696 0.0
H606 H 0.6301 0.11672 0.80879 0.0
H607 H 0.70755 0.11784 0.86612 0.0
H608 H 0.70181 0.03614 0.73712 0.0
H609 H 0.68021 0.93493 0.74434 0.0
H610 H 0.67205 0.03733 0.69224 0.0
H611 H 0.65053 0.93793 0.69948 0.0
H612 H 0.82162 0.06788 0.75883 0.0
H613 H 0.7377 0.12973 0.7588 0.0
H614 H 0.56358 0.94866 0.81264 0.0
H615 H 0.57485 0.02372 0.75076 0.0
Li616 Li 0.95489 0.7233 0.30022 0.0
Li617 Li 0.01367 0.72435 0.29627 0.0
Li618 Li 0.98298 0.67365 0.29606 0.0
Li619 Li 0.9884 0.7054 0.33968 0.0
C620 C 0.98476 0.69341 0.24371 0.0
N621 N 0.99176 0.6594 0.19449 0.0
C622 C 0.01417 0.69373 0.22952 0.0
C623 C 0.95883 0.67602 0.23276 0.0
C624 C 0.01724 0.67634 0.20468 0.0
C625 C 0.96289 0.65889 0.20789 0.0
C626 C -0.00169 0.77816 0.32687 0.0
C627 C 0.03704 0.8134 0.34868 0.0
N628 N 0.02477 0.83872 0.33406 0.0
C629 C 0.98588 0.80455 0.31225 0.0
C630 C 0.0239 0.7826 0.3454 0.0
C631 C -0.00033 0.83497 0.31611 0.0
C632 C 0.90407 0.76568 0.31169 0.0
N633 N 0.91776 0.74749 0.29131 0.0
C634 C 0.88181 0.76902 0.25723 0.0
C635 C 0.90699 0.74841 0.26456 0.0
C636 C 0.86779 0.78891 0.27765 0.0
C637 C 0.87878 0.78655 0.30532 0.0
H638 H 0.91348 0.76463 0.33272 0.0
H639 H 0.9187 0.73399 0.24875 0.0
C640 C 0.07976 0.73694 0.28496 0.0
N641 N 0.04907 0.7476 0.28149 0.0
C642 C 0.10559 0.75499 0.27475 0.0
C643 C 0.06761 0.79405 0.25682 0.0
C644 C 0.04257 0.77516 0.26724 0.0
C645 C 0.09968 0.78415 0.26069 0.0
H646 H 0.08423 0.7144 0.29555 0.0
H647 H 0.01788 0.78259 0.26415 0.0
C648 C 0.91707 0.68532 0.32794 0.0
N649 N 0.85126 0.6902 0.33521 0.0
C650 C 0.90454 0.6966 0.35319 0.0
C651 C 0.89615 0.67623 0.30648 0.0
C652 C 0.87118 0.69894 0.35644 0.0
C653 C 0.86295 0.67897 0.31053 0.0
C654 C 0.0462 0.67101 0.33303 0.0
C655 C 0.04866 0.63745 0.33509 0.0
C656 C 0.06744 0.69058 0.34804 0.0
C657 C 0.07234 0.62403 0.35226 0.0
C658 C 0.09076 0.67623 0.365 0.0
N659 N 0.0927 0.64354 0.36674 0.0
C660 C 0.00635 0.61863 0.26689 0.0
C661 C 0.95936 0.61094 0.29427 0.0
C662 C 0.00823 0.58556 0.2615 0.0
N663 N 0.98238 0.63046 0.28331 0.0
C664 C 0.96057 0.57779 0.28975 0.0
C665 C 0.98565 0.56476 0.27374 0.0
H666 H 0.02493 0.63459 0.25921 0.0
H667 H 0.94101 0.62087 0.30773 0.0
C668 C 0.97879 0.72999 0.39338 0.0
N669 N 0.99148 0.70457 0.37927 0.0
C670 C 0.97926 0.73059 0.42251 0.0
C671 C 0.00679 0.67926 0.42204 0.0
C672 C 0.00476 0.67917 0.39299 0.0
C673 C 0.99368 0.70508 0.4374 0.0
H674 H 0.96769 0.74957 0.38195 0.0
H675 H 0.01371 0.65869 0.38149 0.0
O676 O 0.98132 0.71014 0.26813 0.0
O677 O 0.9853 0.74817 0.3232 0.0
O678 O 0.94966 0.68352 0.32412 0.0
O679 O 0.02305 0.68454 0.31643 0.0
H680 H 0.03448 0.70707 0.23766 0.0
H681 H 0.93591 0.67553 0.24347 0.0
H682 H 0.03989 0.67626 0.19353 0.0
H683 H 0.94309 0.64517 0.19926 0.0
H684 H 0.05694 0.81719 0.36287 0.0
H685 H 0.96601 0.80149 0.29787 0.0
H686 H 0.03348 0.7625 0.35715 0.0
H687 H 0.99046 0.85558 0.30479 0.0
H688 H 0.87446 0.77041 0.23558 0.0
H689 H 0.86844 0.8012 0.32175 0.0
H690 H 0.12987 0.74608 0.27766 0.0
H691 H 0.06187 0.81645 0.24632 0.0
H692 H 0.92038 0.70365 0.37002 0.0
H693 H 0.90548 0.66746 0.28681 0.0
H694 H 0.86114 0.70778 0.37582 0.0
H695 H 0.84648 0.67224 0.29403 0.0
H696 H 0.03234 0.62191 0.32375 0.0
H697 H 0.06589 0.71657 0.34666 0.0
H698 H 0.07447 0.5981 0.35411 0.0
H699 H 0.10731 0.69109 0.37678 0.0
H700 H 0.0282 0.57615 0.24943 0.0
H701 H 0.94287 0.56231 0.2996 0.0
H702 H 0.96791 0.75065 0.43308 0.0
H703 H 0.01869 0.65921 0.43216 0.0
C704 C 0.24912 -0.00444 0.01282 0.0
C705 C 0.27828 -0.00497 0.02774 0.0
H706 H 0.22624 -0.00347 0.97282 0.0
C707 C 0.30743 -0.0045 0.01281 0.0
H708 H 0.22624 -0.00444 0.02367 0.0
C709 C 0.30742 -0.00345 0.98368 0.0
C710 C 0.27828 -0.00297 0.96876 0.0
H711 H 0.33032 0.99471 0.02361 0.0
H712 H 0.33032 -0.00266 0.97288 0.0
C713 C 0.24912 -0.00348 0.98367 0.0
C714 C -0.00513 0.31607 0.5128 0.0
C715 C -0.00531 0.28693 0.5279 0.0
H716 H -0.0024 0.33914 0.47321 0.0
C717 C -0.00456 0.25778 0.51283 0.0
H718 H 0.9936 0.33914 0.52329 0.0
C719 C -0.00416 0.25778 0.48367 0.0
C720 C -0.00345 0.28693 0.4686 0.0
H721 H -0.00404 0.23473 0.52342 0.0
H722 H -0.00466 0.23473 0.47308 0.0
C723 C -0.00365 0.31607 0.4837 0.0
C724 C 0.74207 -0.00443 0.98368 0.0
C725 C 0.71292 -0.00494 0.96876 0.0
H726 H 0.76496 -0.00347 0.02367 0.0
C727 C 0.68377 -0.00446 0.98369 0.0
H728 H 0.76496 -0.00444 0.97283 0.0
C729 C 0.68377 -0.00341 0.01281 0.0
C730 C 0.71292 -0.00294 0.02774 0.0
H731 H 0.66088 -0.00524 0.97289 0.0
H732 H 0.66088 -0.00262 0.02361 0.0
C733 C 0.74208 -0.00347 0.01282 0.0
C734 C -0.00466 0.73432 0.48367 0.0
C735 C -0.00534 0.70516 0.4686 0.0
H736 H -0.00481 0.75736 0.52343 0.0
C737 C -0.00512 0.67603 0.4837 0.0
H738 H -0.00418 0.75736 0.47308 0.0
C739 C -0.00363 0.67603 0.5128 0.0
C740 C -0.00349 0.70516 0.52791 0.0
H741 H 0.99366 0.65295 0.47321 0.0
H742 H -0.00234 0.65295 0.52329 0.0
C743 C -0.00426 0.73431 0.51284 0.0
C744 C 0.47892 0.99362 0.24111 0.0
C745 C 0.46205 0.99099 0.21577 0.0
H746 H 0.52487 0.00024 0.26086 0.0
C747 C 0.47903 0.99359 0.19053 0.0
H748 H 0.46634 0.99167 0.26085 0.0
C749 C 0.51217 -0.00134 0.19054 0.0
C750 C 0.52915 0.00114 0.21579 0.0
H751 H 0.4666 0.99211 0.17069 0.0
H752 H 0.5246 0.00023 0.1707 0.0
C753 C 0.5123 -0.00161 0.24111 0.0
C754 C 0.99329 0.4793 0.74886 0.0
C755 C 0.99048 0.46254 0.72349 0.0
H756 H -0.00022 0.5255 0.76855 0.0
C757 C 0.99294 0.47948 0.69824 0.0
H758 H 0.9915 0.46657 0.76855 0.0
C759 C -0.00178 0.51262 0.69824 0.0
C760 C 0.00072 0.52954 0.72349 0.0
H761 H 0.99116 0.46695 0.67844 0.0
H762 H -4e-05 0.52515 0.67844 0.0
C763 C -0.00205 0.51278 0.74886 0.0
C764 C 0.51217 0.99342 0.80596 0.0
C765 C 0.52915 0.99094 0.78071 0.0
H766 H 0.4666 -4e-05 0.8258 0.0
C767 C 0.5123 0.9937 0.75538 0.0
H768 H 0.5246 0.99185 0.82579 0.0
C769 C 0.47892 -0.00154 0.75538 0.0
C770 C 0.46205 0.00109 0.78072 0.0
H771 H 0.52487 0.99185 0.73564 0.0
H772 H 0.46634 0.00041 0.73565 0.0
C773 C 0.47903 -0.00151 0.80596 0.0
C774 C -0.00205 0.47931 0.24764 0.0
C775 C 0.0007 0.46254 0.273 0.0
H776 H 0.99151 0.52552 0.22795 0.0
C777 C -0.00182 0.47947 0.29826 0.0
H778 H -0.00021 0.46659 0.22795 0.0
C779 C 0.9929 0.51261 0.29826 0.0
C780 C 0.99046 0.52955 0.27301 0.0
H781 H -8e-05 0.46694 0.31806 0.0
H782 H 0.99111 0.52513 0.31806 0.0
C783 C 0.99329 0.51279 0.24764 0.0
C784 C 0.17124 0.18498 0.24958 0.0
C785 C 0.14744 0.17834 0.26964 0.0
H786 H 0.20927 0.16618 0.22415 0.0
C787 C 0.14538 0.14706 0.28082 0.0
H788 H 0.17364 0.20893 0.24078 0.0
C789 C 0.16594 0.12272 0.27152 0.0
C790 C 0.18899 0.12905 0.25077 0.0
H791 H 0.1271 0.141 0.29608 0.0
H792 H 0.16346 0.09877 0.28033 0.0
C793 C 0.19184 0.16058 0.24026 0.0
C794 C 0.8458 0.14707 0.71564 0.0
C795 C 0.84376 0.17835 0.72684 0.0
H796 H 0.8277 0.0988 0.71613 0.0
C797 C 0.81997 0.18499 0.74691 0.0
H798 H 0.86407 0.14102 0.70038 0.0
C799 C 0.79936 0.1606 0.75623 0.0
C800 C 0.80219 0.12907 0.7457 0.0
H801 H 0.81758 0.20894 0.75572 0.0
H802 H 0.78195 0.16619 0.77235 0.0
C803 C 0.82523 0.12274 0.72494 0.0
C804 C 0.8458 0.84503 0.28085 0.0
C805 C 0.84376 0.81375 0.26965 0.0
H806 H 0.8277 0.8933 0.28037 0.0
C807 C 0.81997 0.80711 0.24957 0.0
H808 H 0.86406 0.85107 0.29612 0.0
C809 C 0.79936 0.83151 0.24026 0.0
C810 C 0.8022 0.86303 0.25079 0.0
H811 H 0.81758 0.78317 0.24076 0.0
H812 H 0.78195 0.82592 0.22414 0.0
C813 C 0.82524 0.86936 0.27156 0.0
C814 C 0.17123 0.80711 0.7469 0.0
C815 C 0.14742 0.81375 0.72684 0.0
H816 H 0.20927 0.82591 0.77232 0.0
C817 C 0.14536 0.84504 0.71566 0.0
H818 H 0.17364 0.78316 0.75569 0.0
C819 C 0.16592 0.86937 0.72496 0.0
C820 C 0.18898 0.86304 0.74571 0.0
H821 H 0.12708 0.85109 0.70041 0.0
H822 H 0.16344 0.89332 0.71616 0.0
C823 C 0.19184 0.8315 0.75622 0.0
C824 C 0.84257 0.84179 0.78027 0.0
C825 C 0.81498 0.84653 0.76376 0.0
H826 H 0.88792 0.81798 0.78475 0.0
C827 C 0.81206 0.82935 0.73858 0.0
H828 H 0.84586 0.8549 0.79961 0.0
C829 C 0.83658 0.80861 0.72977 0.0
C830 C 0.86451 0.80451 0.74598 0.0
H831 H 0.79097 0.83215 0.72551 0.0
H832 H 0.83401 0.79652 0.70986 0.0
C833 C 0.86697 0.82095 0.77154 0.0
C834 C 0.17917 0.82928 0.25788 0.0
C835 C 0.17623 0.8465 0.23272 0.0
H836 H 0.15724 0.79642 0.28659 0.0
C837 C 0.14861 0.8418 0.21623 0.0
H838 H 0.20028 0.83206 0.27093 0.0
C839 C 0.12421 0.82098 0.22497 0.0
C840 C 0.12669 0.8045 0.25051 0.0
H841 H 0.14531 0.85494 0.19691 0.0
H842 H 0.10324 0.81803 0.21177 0.0
C843 C 0.15465 0.80855 0.2667 0.0
C844 C 0.12424 0.17113 0.77154 0.0
C845 C 0.1267 0.18759 0.74599 0.0
H846 H 0.14534 0.13718 0.7996 0.0
C847 C 0.15465 0.18352 0.72979 0.0
H848 H 0.10327 0.17409 0.78474 0.0
C849 C 0.17916 0.16278 0.7386 0.0
C850 C 0.17624 0.14558 0.76377 0.0
H851 H 0.15723 0.19563 0.70988 0.0
H852 H 0.20027 0.16 0.72554 0.0
C853 C 0.14864 0.15031 0.78027 0.0
C854 C 0.86699 0.17111 0.22498 0.0
C855 C 0.86453 0.18758 0.25053 0.0
H856 H 0.84589 0.13715 0.19691 0.0
C857 C 0.83658 0.1835 0.26673 0.0
H858 H 0.88796 0.17407 0.21178 0.0
C859 C 0.81206 0.16277 0.25791 0.0
C860 C 0.81498 0.14557 0.23274 0.0
H861 H 0.83399 0.19562 0.28662 0.0
H862 H 0.79095 0.15999 0.27096 0.0
C863 C 0.84259 0.15029 0.21624 0.0
loop_
_geom_bond_atom_site_label_1
_geom_bond_atom_site_label_2
_geom_bond_distance
_geom_bond_site_symmetry_2
_ccdc_geom_bond_type
Li0 N17 1.990 . S
Li0 O60 1.956 . S
Li0 O61 1.970 . S
Li0 O62 1.972 . S
Li1 N25 1.990 1_545 S
Li1 O60 1.977 . S
Li1 O61 1.956 . S
Li1 O63 1.955 1_545 S
Li2 N47 1.990 . S
Li2 O60 1.961 . S
Li2 O62 1.956 . S
Li2 O63 1.970 1_545 S
Li3 N53 1.990 . S
Li3 O61 1.961 1_565 S
Li3 O62 1.959 1_565 S
Li3 O63 1.956 . S
C4 C6 1.348 . S
C4 C7 1.356 . S
C4 O60 1.325 . S
N5 C8 1.314 . S
N5 C9 1.279 . S
C6 C4 1.348 . S
C6 C8 1.353 . S
C6 H64 0.929 . S
C7 C4 1.356 . S
C7 C9 1.358 . S
C7 H65 0.930 . S
C8 N5 1.314 . S
C8 C6 1.353 . S
C8 H66 0.930 . S
C9 N5 1.279 . S
C9 C7 1.358 . S
C9 H67 0.930 . S
C10 C13 1.370 . S
C10 C14 1.335 1_545 S
C10 O61 1.325 . S
C11 N12 1.297 . S
C11 C14 1.358 . S
C11 H68 0.930 . S
N12 C11 1.297 . S
N12 C15 1.296 1_565 S
C13 C10 1.370 . S
C13 C15 1.353 . S
C13 H69 0.929 . S
C14 C10 1.335 1_565 S
C14 C11 1.358 . S
C14 H70 0.930 . S
C15 N12 1.296 1_545 S
C15 C13 1.353 . S
C15 H71 0.930 . S
C16 N17 1.314 . S
C16 C21 1.353 . S
C16 H22 0.930 . S
N17 Li0 1.990 . S
N17 C16 1.314 . S
N17 C19 1.279 . S
C18 C19 1.358 . S
C18 C20 1.356 . S
C18 H72 0.930 . S
C19 N17 1.279 . S
C19 C18 1.358 . S
C19 H23 0.930 . S
C20 C18 1.356 . S
C20 C21 1.348 . S
C21 C16 1.353 . S
C21 C20 1.348 . S
C21 H73 0.929 . S
H22 C16 0.930 . S
H23 C19 0.930 . S
C24 N25 1.314 . S
C24 C26 1.353 . S
C24 H30 0.930 . S
N25 Li1 1.990 1_565 S
N25 C24 1.314 . S
N25 C28 1.279 1_565 S
C26 C24 1.353 . S
C26 C29 1.338 1_565 S
C26 H74 0.929 . S
C27 C28 1.358 . S
C27 C29 1.362 . S
C27 H75 0.930 . S
C28 N25 1.279 1_545 S
C28 C27 1.358 . S
C28 H31 0.930 . S
C29 C26 1.338 1_545 S
C29 C27 1.362 . S
H30 C24 0.930 . S
H31 C28 0.930 . S
C32 C34 1.319 1_545 S
C32 C35 1.385 . S
C32 O62 1.325 . S
N33 C36 1.314 1_545 S
N33 C37 1.279 . S
C34 C32 1.319 1_565 S
C34 C36 1.353 . S
C34 H76 0.929 . S
C35 C32 1.385 . S
C35 C37 1.358 . S
C35 H77 0.930 . S
C36 N33 1.314 1_565 S
C36 C34 1.353 . S
C36 H78 0.930 . S
C37 N33 1.279 . S
C37 C35 1.358 . S
C37 H79 0.930 . S
C38 C39 1.348 . S
C38 C40 1.356 . S
C38 O63 1.325 . S
C39 C38 1.348 . S
C39 C41 1.353 . S
C39 H80 0.929 . S
C40 C38 1.356 . S
C40 C42 1.358 . S
C40 H81 0.930 . S
C41 C39 1.353 . S
C41 N43 1.314 . S
C41 H82 0.930 . S
C42 C40 1.358 . S
C42 N43 1.279 . S
C42 H83 0.930 . S
N43 C41 1.314 . S
N43 C42 1.279 . S
C44 C46 1.353 . S
C44 N47 1.314 . S
C44 H50 0.930 . S
C45 N47 1.279 1_565 S
C45 C48 1.358 . S
C45 H51 0.930 . S
C46 C44 1.353 . S
C46 C49 1.357 . S
C46 H84 0.929 . S
N47 Li2 1.990 . S
N47 C44 1.314 . S
N47 C45 1.279 1_545 S
C48 C45 1.358 . S
C48 C49 1.351 1_565 S
C48 H85 0.930 . S
C49 C46 1.357 . S
C49 C48 1.351 1_545 S
H50 C44 0.930 . S
H51 C45 0.930 . S
C52 N53 1.314 . S
C52 C54 1.353 . S
C52 H58 0.930 . S
N53 Li3 1.990 . S
N53 C52 1.314 . S
N53 C56 1.279 . S
C54 C52 1.353 . S
C54 C57 1.348 . S
C54 H86 0.929 . S
C55 C56 1.358 . S
C55 C57 1.356 . S
C55 H87 0.930 . S
C56 N53 1.279 . S
C56 C55 1.358 . S
C56 H59 0.930 . S
C57 C54 1.348 . S
C57 C55 1.356 . S
H58 C52 0.930 . S
H59 C56 0.930 . S
O60 Li0 1.956 . S
O60 Li1 1.977 . S
O60 Li2 1.961 . S
O60 C4 1.325 . S
O61 Li0 1.970 . S
O61 Li1 1.956 . S
O61 Li3 1.961 1_545 S
O61 C10 1.325 . S
O62 Li0 1.972 . S
O62 Li2 1.956 . S
O62 Li3 1.959 1_545 S
O62 C32 1.325 . S
O63 Li1 1.955 1_565 S
O63 Li2 1.970 1_565 S
O63 Li3 1.956 . S
O63 C38 1.325 . S
H64 C6 0.929 . S
H65 C7 0.930 . S
H66 C8 0.930 . S
H67 C9 0.930 . S
H68 C11 0.930 . S
H69 C13 0.929 . S
H70 C14 0.930 . S
H71 C15 0.930 . S
H72 C18 0.930 . S
H73 C21 0.929 . S
H74 C26 0.929 . S
H75 C27 0.930 . S
H76 C34 0.929 . S
H77 C35 0.930 . S
H78 C36 0.930 . S
H79 C37 0.930 . S
H80 C39 0.929 . S
H81 C40 0.930 . S
H82 C41 0.930 . S
H83 C42 0.930 . S
H84 C46 0.929 . S
H85 C48 0.930 . S
H86 C54 0.929 . S
H87 C55 0.930 . S
Li88 N105 1.990 . S
Li88 O148 1.956 . S
Li88 O149 1.970 1_455 S
Li88 O150 1.960 1_455 S
Li89 N113 1.992 . S
Li89 O148 1.951 1_655 S
Li89 O149 1.974 . S
Li89 O151 1.960 1_655 S
Li90 N135 1.990 . S
Li90 O148 1.961 . S
Li90 O150 1.943 1_455 S
Li90 O151 1.970 . S
Li91 N141 1.990 . S
Li91 O149 1.961 . S
Li91 O150 1.983 . S
Li91 O151 1.956 1_655 S
C92 C94 1.348 . S
C92 C95 1.356 . S
C92 O148 1.325 . S
N93 C96 1.314 . S
N93 C97 1.279 . S
C94 C92 1.348 . S
C94 C96 1.353 . S
C94 H152 0.929 . S
C95 C92 1.356 . S
C95 C97 1.358 . S
C95 H153 0.930 . S
C96 N93 1.314 . S
C96 C94 1.353 . S
C96 H154 0.930 . S
C97 N93 1.279 . S
C97 C95 1.358 . S
C97 H155 0.930 . S
C98 C101 1.348 . S
C98 C102 1.356 . S
C98 O149 1.325 . S
C99 N100 1.279 . S
C99 C102 1.358 . S
C99 H156 0.930 . S
N100 C99 1.279 . S
N100 C103 1.314 . S
C101 C98 1.348 . S
C101 C103 1.353 . S
C101 H157 0.929 . S
C102 C98 1.356 . S
C102 C99 1.358 . S
C102 H158 0.930 . S
C103 N100 1.314 . S
C103 C101 1.353 . S
C103 H159 0.930 . S
C104 N105 1.314 1_655 S
C104 C109 1.353 . S
C104 H110 0.930 . S
N105 Li88 1.990 . S
N105 C104 1.314 1_455 S
N105 C107 1.279 . S
C106 C107 1.358 . S
C106 C108 1.374 . S
C106 H160 0.930 . S
C107 N105 1.279 . S
C107 C106 1.358 . S
C107 H111 0.930 . S
C108 C106 1.374 . S
C108 C109 1.333 1_455 S
C109 C104 1.353 . S
C109 C108 1.333 1_655 S
C109 H161 0.929 . S
H110 C104 0.930 . S
H111 C107 0.930 . S
C112 N113 1.314 1_455 S
C112 C114 1.353 . S
C112 H118 0.930 . S
N113 Li89 1.992 . S
N113 C112 1.314 1_655 S
N113 C116 1.279 . S
C114 C112 1.353 . S
C114 C117 1.360 . S
C114 H162 0.929 . S
C115 C116 1.358 . S
C115 C117 1.341 1_655 S
C115 H163 0.930 . S
C116 N113 1.279 . S
C116 C115 1.358 . S
C116 H119 0.930 . S
C117 C114 1.360 . S
C117 C115 1.341 1_455 S
H118 C112 0.930 . S
H119 C116 0.930 . S
C120 C122 1.334 1_455 S
C120 C123 1.373 . S
C120 O150 1.324 1_455 S
N121 C124 1.314 1_455 S
N121 C125 1.279 . S
C122 C120 1.334 1_655 S
C122 C124 1.353 . S
C122 H164 0.929 . S
C123 C120 1.373 . S
C123 C125 1.358 . S
C123 H165 0.930 . S
C124 N121 1.314 1_655 S
C124 C122 1.353 . S
C124 H166 0.930 . S
C125 N121 1.279 . S
C125 C123 1.358 . S
C125 H167 0.930 . S
C126 C127 1.361 . S
C126 C128 1.340 1_455 S
C126 O151 1.326 . S
C127 C126 1.361 . S
C127 C129 1.353 . S
C127 H168 0.929 . S
C128 C126 1.340 1_655 S
C128 C130 1.358 . S
C128 H169 0.930 . S
C129 C127 1.353 . S
C129 N131 1.314 1_455 S
C129 H170 0.930 . S
C130 C128 1.358 . S
C130 N131 1.279 . S
C130 H171 0.930 . S
N131 C129 1.314 1_655 S
N131 C130 1.279 . S
C132 C134 1.353 . S
C132 N135 1.314 . S
C132 H138 0.930 . S
C133 N135 1.279 . S
C133 C136 1.358 . S
C133 H139 0.930 . S
C134 C132 1.353 . S
C134 C137 1.348 . S
C134 H172 0.929 . S
N135 Li90 1.990 . S
N135 C132 1.314 . S
N135 C133 1.279 . S
C136 C133 1.358 . S
C136 C137 1.356 . S
C136 H173 0.930 . S
C137 C134 1.348 . S
C137 C136 1.356 . S
H138 C132 0.930 . S
H139 C133 0.930 . S
C140 N141 1.314 . S
C140 C142 1.353 . S
C140 H146 0.930 . S
N141 Li91 1.990 . S
N141 C140 1.314 . S
N141 C144 1.279 . S
C142 C140 1.353 . S
C142 C145 1.348 . S
C142 H174 0.929 . S
C143 C144 1.358 . S
C143 C145 1.356 . S
C143 H175 0.930 . S
C144 N141 1.279 . S
C144 C143 1.358 . S
C144 H147 0.930 . S
C145 C142 1.348 . S
C145 C143 1.356 . S
H146 C140 0.930 . S
H147 C144 0.930 . S
O148 Li88 1.956 . S
O148 Li89 1.951 1_455 S
O148 Li90 1.961 . S
O148 C92 1.325 . S
O149 Li88 1.970 1_655 S
O149 Li89 1.974 . S
O149 Li91 1.961 . S
O149 C98 1.325 . S
O150 Li88 1.960 1_655 S
O150 Li90 1.943 1_655 S
O150 Li91 1.983 . S
O150 C120 1.324 1_655 S
O151 Li89 1.960 1_455 S
O151 Li90 1.970 . S
O151 Li91 1.956 1_455 S
O151 C126 1.326 . S
H152 C94 0.929 . S
H153 C95 0.930 . S
H154 C96 0.930 . S
H155 C97 0.930 . S
H156 C99 0.930 . S
H157 C101 0.929 . S
H158 C102 0.930 . S
H159 C103 0.930 . S
H160 C106 0.930 . S
H161 C109 0.929 . S
H162 C114 0.929 . S
H163 C115 0.930 . S
H164 C122 0.929 . S
H165 C123 0.930 . S
H166 C124 0.930 . S
H167 C125 0.930 . S
H168 C127 0.929 . S
H169 C128 0.930 . S
H170 C129 0.930 . S
H171 C130 0.930 . S
H172 C134 0.929 . S
H173 C136 0.930 . S
H174 C142 0.929 . S
H175 C143 0.930 . S
Li176 N193 1.990 . S
Li176 O236 1.956 . S
Li176 O237 1.970 1_545 S
Li176 O238 1.961 . S
Li177 N201 1.990 . S
Li177 O236 1.970 1_565 S
Li177 O237 1.956 . S
Li177 O239 1.961 1_565 S
Li178 N223 1.990 . S
Li178 O236 1.961 . S
Li178 O238 1.956 . S
Li178 O239 1.970 . S
Li179 N229 1.989 1_545 S
Li179 O237 1.961 1_545 S
Li179 O238 1.970 . S
Li179 O239 1.956 . S
C180 C182 1.348 1_545 S
C180 C183 1.356 . S
C180 O236 1.325 . S
N181 C184 1.314 1_545 S
N181 C185 1.279 . S
C182 C180 1.348 1_565 S
C182 C184 1.353 . S
C182 H240 0.929 . S
C183 C180 1.356 . S
C183 C185 1.358 . S
C183 H241 0.930 . S
C184 N181 1.314 1_565 S
C184 C182 1.353 . S
C184 H242 0.930 . S
C185 N181 1.279 . S
C185 C183 1.358 . S
C185 H243 0.930 . S
C186 C189 1.348 . S
C186 C190 1.356 . S
C186 O237 1.325 . S
C187 N188 1.279 . S
C187 C190 1.358 . S
C187 H244 0.930 . S
N188 C187 1.279 . S
N188 C191 1.314 . S
C189 C186 1.348 . S
C189 C191 1.353 . S
C189 H245 0.929 . S
C190 C186 1.356 . S
C190 C187 1.358 . S
C190 H246 0.930 . S
C191 N188 1.314 . S
C191 C189 1.353 . S
C191 H247 0.930 . S
C192 N193 1.314 . S
C192 C197 1.353 . S
C192 H198 0.930 . S
N193 Li176 1.990 . S
N193 C192 1.314 . S
N193 C195 1.279 1_545 S
C194 C195 1.358 . S
C194 C196 1.356 1_565 S
C194 H248 0.930 . S
C195 N193 1.279 1_565 S
C195 C194 1.358 . S
C195 H199 0.930 . S
C196 C194 1.356 1_545 S
C196 C197 1.348 . S
C197 C192 1.353 . S
C197 C196 1.348 . S
C197 H249 0.929 . S
H198 C192 0.930 . S
H199 C195 0.930 . S
C200 N201 1.314 . S
C200 C202 1.353 . S
C200 H206 0.930 . S
N201 Li177 1.990 . S
N201 C200 1.314 . S
N201 C204 1.279 . S
C202 C200 1.353 . S
C202 C205 1.348 . S
C202 H250 0.929 . S
C203 C204 1.358 . S
C203 C205 1.356 . S
C203 H251 0.930 . S
C204 N201 1.279 . S
C204 C203 1.358 . S
C204 H207 0.930 . S
C205 C202 1.348 . S
C205 C203 1.356 . S
H206 C200 0.930 . S
H207 C204 0.930 . S
C208 C210 1.348 . S
C208 C211 1.356 . S
C208 O238 1.325 . S
N209 C212 1.314 . S
N209 C213 1.279 . S
C210 C208 1.348 . S
C210 C212 1.353 . S
C210 H252 0.929 . S
C211 C208 1.356 . S
C211 C213 1.358 . S
C211 H253 0.930 . S
C212 N209 1.314 . S
C212 C210 1.353 . S
C212 H254 0.930 . S
C213 N209 1.279 . S
C213 C211 1.358 . S
C213 H255 0.930 . S
C214 C215 1.348 . S
C214 C216 1.356 1_545 S
C214 O239 1.325 . S
C215 C214 1.348 . S
C215 C217 1.353 . S
C215 H256 0.929 . S
C216 C214 1.356 1_565 S
C216 C218 1.358 . S
C216 H257 0.930 . S
C217 C215 1.353 . S
C217 N219 1.321 . S
C217 H258 0.930 . S
C218 C216 1.358 . S
C218 N219 1.273 1_565 S
C218 H259 0.930 . S
N219 C217 1.321 . S
N219 C218 1.273 1_545 S
C220 C222 1.353 . S
C220 N223 1.314 . S
C220 H226 0.930 . S
C221 N223 1.279 . S
C221 C224 1.358 . S
C221 H227 0.930 . S
C222 C220 1.353 . S
C222 C225 1.348 . S
C222 H260 0.929 . S
N223 Li178 1.990 . S
N223 C220 1.314 . S
N223 C221 1.279 . S
C224 C221 1.358 . S
C224 C225 1.356 . S
C224 H261 0.930 . S
C225 C222 1.348 . S
C225 C224 1.356 . S
H226 C220 0.930 . S
H227 C221 0.930 . S
C228 N229 1.320 . S
C228 C230 1.353 . S
C228 H234 0.930 . S
N229 Li179 1.989 1_565 S
N229 C228 1.320 . S
N229 C232 1.274 1_565 S
C230 C228 1.353 . S
C230 C233 1.348 1_565 S
C230 H262 0.929 . S
C231 C232 1.358 . S
C231 C233 1.356 . S
C231 H263 0.930 . S
C232 N229 1.274 1_545 S
C232 C231 1.358 . S
C232 H235 0.930 . S
C233 C230 1.348 1_545 S
C233 C231 1.356 . S
H234 C228 0.930 . S
H235 C232 0.930 . S
O236 Li176 1.956 . S
O236 Li177 1.970 1_545 S
O236 Li178 1.961 . S
O236 C180 1.325 . S
O237 Li176 1.970 1_565 S
O237 Li177 1.956 . S
O237 Li179 1.961 1_565 S
O237 C186 1.325 . S
O238 Li176 1.961 . S
O238 Li178 1.956 . S
O238 Li179 1.970 . S
O238 C208 1.325 . S
O239 Li177 1.961 1_545 S
O239 Li178 1.970 . S
O239 Li179 1.956 . S
O239 C214 1.325 . S
H240 C182 0.929 . S
H241 C183 0.930 . S
H242 C184 0.930 . S
H243 C185 0.930 . S
H244 C187 0.930 . S
H245 C189 0.929 . S
H246 C190 0.930 . S
H247 C191 0.930 . S
H248 C194 0.930 . S
H249 C197 0.929 . S
H250 C202 0.929 . S
H251 C203 0.930 . S
H252 C210 0.929 . S
H253 C211 0.930 . S
H254 C212 0.930 . S
H255 C213 0.930 . S
H256 C215 0.929 . S
H257 C216 0.930 . S
H258 C217 0.930 . S
H259 C218 0.930 . S
H260 C222 0.929 . S
H261 C224 0.930 . S
H262 C230 0.929 . S
H263 C231 0.930 . S
Li264 N281 1.990 . S
Li264 O324 1.956 1_655 S
Li264 O325 1.968 1_655 S
Li264 O326 1.961 . S
Li265 N289 1.990 . S
Li265 O324 1.970 . S
Li265 O325 1.959 . S
Li265 O327 1.961 . S
Li266 N311 1.990 1_455 S
Li266 O324 1.961 . S
Li266 O326 1.958 1_455 S
Li266 O327 1.968 . S
Li267 N317 1.990 . S
Li267 O325 1.961 . S
Li267 O326 1.970 1_455 S
Li267 O327 1.956 . S
C268 C270 1.348 . S
C268 C271 1.356 1_455 S
C268 O324 1.325 . S
N269 C272 1.314 1_655 S
N269 C273 1.279 . S
C270 C268 1.348 . S
C270 C272 1.353 . S
C270 H328 0.929 . S
C271 C268 1.356 1_655 S
C271 C273 1.358 . S
C271 H329 0.930 . S
C272 N269 1.314 1_455 S
C272 C270 1.353 . S
C272 H330 0.930 . S
C273 N269 1.279 . S
C273 C271 1.358 . S
C273 H331 0.930 . S
C274 C277 1.348 1_455 S
C274 C278 1.356 . S
C274 O325 1.325 . S
C275 N276 1.279 . S
C275 C278 1.358 . S
C275 H332 0.930 . S
N276 C275 1.279 . S
N276 C279 1.314 1_455 S
C277 C274 1.348 1_655 S
C277 C279 1.353 . S
C277 H333 0.929 . S
C278 C274 1.356 . S
C278 C275 1.358 . S
C278 H334 0.930 . S
C279 N276 1.314 1_655 S
C279 C277 1.353 . S
C279 H335 0.930 . S
C280 N281 1.314 . S
C280 C285 1.353 . S
C280 H286 0.930 . S
N281 Li264 1.990 . S
N281 C280 1.314 . S
N281 C283 1.279 . S
C282 C283 1.358 . S
C282 C284 1.356 . S
C282 H336 0.930 . S
C283 N281 1.279 . S
C283 C282 1.358 . S
C283 H287 0.930 . S
C284 C282 1.356 . S
C284 C285 1.348 . S
C285 C280 1.353 . S
C285 C284 1.348 . S
C285 H337 0.929 . S
H286 C280 0.930 . S
H287 C283 0.930 . S
C288 N289 1.314 . S
C288 C290 1.353 . S
C288 H294 0.930 . S
N289 Li265 1.990 . S
N289 C288 1.314 . S
N289 C292 1.279 . S
C290 C288 1.353 . S
C290 C293 1.348 . S
C290 H338 0.929 . S
C291 C292 1.358 . S
C291 C293 1.356 . S
C291 H339 0.930 . S
C292 N289 1.279 . S
C292 C291 1.358 . S
C292 H295 0.930 . S
C293 C290 1.348 . S
C293 C291 1.356 . S
H294 C288 0.930 . S
H295 C292 0.930 . S
C296 C298 1.348 . S
C296 C299 1.356 . S
C296 O326 1.325 . S
N297 C300 1.314 . S
N297 C301 1.279 . S
C298 C296 1.348 . S
C298 C300 1.353 . S
C298 H340 0.929 . S
C299 C296 1.356 . S
C299 C301 1.358 . S
C299 H341 0.930 . S
C300 N297 1.314 . S
C300 C298 1.353 . S
C300 H342 0.930 . S
C301 N297 1.279 . S
C301 C299 1.358 . S
C301 H343 0.930 . S
C302 C303 1.348 . S
C302 C304 1.356 . S
C302 O327 1.325 . S
C303 C302 1.348 . S
C303 C305 1.353 . S
C303 H344 0.929 . S
C304 C302 1.356 . S
C304 C306 1.358 . S
C304 H345 0.930 . S
C305 C303 1.353 . S
C305 N307 1.314 . S
C305 H346 0.930 . S
C306 C304 1.358 . S
C306 N307 1.279 . S
C306 H347 0.930 . S
N307 C305 1.314 . S
N307 C306 1.279 . S
C308 C310 1.353 . S
C308 N311 1.314 1_455 S
C308 H314 0.930 . S
C309 N311 1.279 . S
C309 C312 1.358 . S
C309 H315 0.930 . S
C310 C308 1.353 . S
C310 C313 1.348 . S
C310 H348 0.929 . S
N311 Li266 1.990 1_655 S
N311 C308 1.314 1_655 S
N311 C309 1.279 . S
C312 C309 1.358 . S
C312 C313 1.356 1_655 S
C312 H349 0.930 . S
C313 C310 1.348 . S
C313 C312 1.356 1_455 S
H314 C308 0.930 . S
H315 C309 0.930 . S
C316 N317 1.314 1_655 S
C316 C318 1.353 . S
C316 H322 0.930 . S
N317 Li267 1.990 . S
N317 C316 1.314 1_455 S
N317 C320 1.279 . S
C318 C316 1.353 . S
C318 C321 1.348 1_655 S
C318 H350 0.929 . S
C319 C320 1.358 . S
C319 C321 1.356 . S
C319 H351 0.930 . S
C320 N317 1.279 . S
C320 C319 1.358 . S
C320 H323 0.930 . S
C321 C318 1.348 1_455 S
C321 C319 1.356 . S
H322 C316 0.930 . S
H323 C320 0.930 . S
O324 Li264 1.956 1_455 S
O324 Li265 1.970 . S
O324 Li266 1.961 . S
O324 C268 1.325 . S
O325 Li264 1.968 1_455 S
O325 Li265 1.959 . S
O325 Li267 1.961 . S
O325 C274 1.325 . S
O326 Li264 1.961 . S
O326 Li266 1.958 1_655 S
O326 Li267 1.970 1_655 S
O326 C296 1.325 . S
O327 Li265 1.961 . S
O327 Li266 1.968 . S
O327 Li267 1.956 . S
O327 C302 1.325 . S
H328 C270 0.929 . S
H329 C271 0.930 . S
H330 C272 0.930 . S
H331 C273 0.930 . S
H332 C275 0.930 . S
H333 C277 0.929 . S
H334 C278 0.930 . S
H335 C279 0.930 . S
H336 C282 0.930 . S
H337 C285 0.929 . S
H338 C290 0.929 . S
H339 C291 0.930 . S
H340 C298 0.929 . S
H341 C299 0.930 . S
H342 C300 0.930 . S
H343 C301 0.930 . S
H344 C303 0.929 . S
H345 C304 0.930 . S
H346 C305 0.930 . S
H347 C306 0.930 . S
H348 C310 0.929 . S
H349 C312 0.930 . S
H350 C318 0.929 . S
H351 C319 0.930 . S
Li352 N369 1.990 . S
Li352 O412 1.956 . S
Li352 O413 1.970 . S
Li352 O414 1.961 . S
Li353 N377 1.989 1_545 S
Li353 O412 1.970 . S
Li353 O413 1.956 . S
Li353 O415 1.961 1_545 S
Li354 N399 1.990 . S
Li354 O412 1.961 . S
Li354 O414 1.956 . S
Li354 O415 1.970 1_545 S
Li355 N405 1.990 . S
Li355 O413 1.961 1_565 S
Li355 O414 1.970 1_565 S
Li355 O415 1.956 . S
C356 C358 1.348 . S
C356 C359 1.356 . S
C356 O412 1.325 . S
N357 C360 1.314 . S
N357 C361 1.279 . S
C358 C356 1.348 . S
C358 C360 1.353 . S
C358 H416 0.929 . S
C359 C356 1.356 . S
C359 C361 1.358 . S
C359 H417 0.930 . S
C360 N357 1.314 . S
C360 C358 1.353 . S
C360 H418 0.930 . S
C361 N357 1.279 . S
C361 C359 1.358 . S
C361 H419 0.930 . S
C362 C365 1.348 . S
C362 C366 1.356 1_545 S
C362 O413 1.325 . S
C363 N364 1.273 1_565 S
C363 C366 1.358 . S
C363 H420 0.930 . S
N364 C363 1.273 1_545 S
N364 C367 1.321 . S
C365 C362 1.348 . S
C365 C367 1.353 . S
C365 H421 0.929 . S
C366 C362 1.356 1_565 S
C366 C363 1.358 . S
C366 H422 0.930 . S
C367 N364 1.321 . S
C367 C365 1.353 . S
C367 H423 0.930 . S
C368 N369 1.314 . S
C368 C373 1.353 . S
C368 H374 0.930 . S
N369 Li352 1.990 . S
N369 C368 1.314 . S
N369 C371 1.279 . S
C370 C371 1.358 . S
C370 C372 1.356 . S
C370 H424 0.930 . S
C371 N369 1.279 . S
C371 C370 1.358 . S
C371 H375 0.930 . S
C372 C370 1.356 . S
C372 C373 1.348 . S
C373 C368 1.353 . S
C373 C372 1.348 . S
C373 H425 0.929 . S
H374 C368 0.930 . S
H375 C371 0.930 . S
C376 N377 1.320 . S
C376 C378 1.353 . S
C376 H382 0.930 . S
N377 Li353 1.989 1_565 S
N377 C376 1.320 . S
N377 C380 1.274 1_565 S
C378 C376 1.353 . S
C378 C381 1.348 1_565 S
C378 H426 0.929 . S
C379 C380 1.358 . S
C379 C381 1.356 . S
C379 H427 0.930 . S
C380 N377 1.274 1_545 S
C380 C379 1.358 . S
C380 H383 0.930 . S
C381 C378 1.348 1_545 S
C381 C379 1.356 . S
H382 C376 0.930 . S
H383 C380 0.930 . S
C384 C386 1.348 1_545 S
C384 C387 1.356 . S
C384 O414 1.325 . S
N385 C388 1.314 1_545 S
N385 C389 1.279 . S
C386 C384 1.348 1_565 S
C386 C388 1.353 . S
C386 H428 0.929 . S
C387 C384 1.356 . S
C387 C389 1.358 . S
C387 H429 0.930 . S
C388 N385 1.314 1_565 S
C388 C386 1.353 . S
C388 H430 0.930 . S
C389 N385 1.279 . S
C389 C387 1.358 . S
C389 H431 0.930 . S
C390 C391 1.348 . S
C390 C392 1.356 . S
C390 O415 1.325 . S
C391 C390 1.348 . S
C391 C393 1.353 . S
C391 H432 0.929 . S
C392 C390 1.356 . S
C392 C394 1.358 . S
C392 H433 0.930 . S
C393 C391 1.353 . S
C393 N395 1.314 . S
C393 H434 0.930 . S
C394 C392 1.358 . S
C394 N395 1.279 . S
C394 H435 0.930 . S
N395 C393 1.314 . S
N395 C394 1.279 . S
C396 C398 1.353 . S
C396 N399 1.314 . S
C396 H402 0.930 . S
C397 N399 1.279 1_565 S
C397 C400 1.358 . S
C397 H403 0.930 . S
C398 C396 1.353 . S
C398 C401 1.348 . S
C398 H436 0.929 . S
N399 Li354 1.990 . S
N399 C396 1.314 . S
N399 C397 1.279 1_545 S
C400 C397 1.358 . S
C400 C401 1.356 1_565 S
C400 H437 0.930 . S
C401 C398 1.348 . S
C401 C400 1.356 1_545 S
H402 C396 0.930 . S
H403 C397 0.930 . S
C404 N405 1.314 . S
C404 C406 1.353 . S
C404 H410 0.930 . S
N405 Li355 1.990 . S
N405 C404 1.314 . S
N405 C408 1.279 . S
C406 C404 1.353 . S
C406 C409 1.348 . S
C406 H438 0.929 . S
C407 C408 1.358 . S
C407 C409 1.356 . S
C407 H439 0.930 . S
C408 N405 1.279 . S
C408 C407 1.358 . S
C408 H411 0.930 . S
C409 C406 1.348 . S
C409 C407 1.356 . S
H410 C404 0.930 . S
H411 C408 0.930 . S
O412 Li352 1.956 . S
O412 Li353 1.970 . S
O412 Li354 1.961 . S
O412 C356 1.325 . S
O413 Li352 1.970 . S
O413 Li353 1.956 . S
O413 Li355 1.961 1_545 S
O413 C362 1.325 . S
O414 Li352 1.961 . S
O414 Li354 1.956 . S
O414 Li355 1.970 1_545 S
O414 C384 1.325 . S
O415 Li353 1.961 1_565 S
O415 Li354 1.970 1_565 S
O415 Li355 1.956 . S
O415 C390 1.325 . S
H416 C358 0.929 . S
H417 C359 0.930 . S
H418 C360 0.930 . S
H419 C361 0.930 . S
H420 C363 0.930 . S
H421 C365 0.929 . S
H422 C366 0.930 . S
H423 C367 0.930 . S
H424 C370 0.930 . S
H425 C373 0.929 . S
H426 C378 0.929 . S
H427 C379 0.930 . S
H428 C386 0.929 . S
H429 C387 0.930 . S
H430 C388 0.930 . S
H431 C389 0.930 . S
H432 C391 0.929 . S
H433 C392 0.930 . S
H434 C393 0.930 . S
H435 C394 0.930 . S
H436 C398 0.929 . S
H437 C400 0.930 . S
H438 C406 0.929 . S
H439 C407 0.930 . S
Li440 N457 1.990 . S
Li440 O500 1.956 . S
Li440 O501 1.970 1_455 S
Li440 O502 1.961 . S
Li441 N465 1.990 1_455 S
Li441 O500 1.968 . S
Li441 O501 1.958 1_455 S
Li441 O503 1.961 . S
Li442 N487 1.990 . S
Li442 O500 1.961 . S
Li442 O502 1.959 . S
Li442 O503 1.970 . S
Li443 N493 1.990 . S
Li443 O501 1.961 . S
Li443 O502 1.968 1_655 S
Li443 O503 1.956 1_655 S
C444 C446 1.348 . S
C444 C447 1.356 . S
C444 O500 1.325 . S
N445 C448 1.314 . S
N445 C449 1.279 . S
C446 C444 1.348 . S
C446 C448 1.353 . S
C446 H504 0.929 . S
C447 C444 1.356 . S
C447 C449 1.358 . S
C447 H505 0.930 . S
C448 N445 1.314 . S
C448 C446 1.353 . S
C448 H506 0.930 . S
C449 N445 1.279 . S
C449 C447 1.358 . S
C449 H507 0.930 . S
C450 C453 1.348 . S
C450 C454 1.356 . S
C450 O501 1.325 . S
C451 N452 1.279 . S
C451 C454 1.358 . S
C451 H508 0.930 . S
N452 C451 1.279 . S
N452 C455 1.314 . S
C453 C450 1.348 . S
C453 C455 1.353 . S
C453 H509 0.929 . S
C454 C450 1.356 . S
C454 C451 1.358 . S
C454 H510 0.930 . S
C455 N452 1.314 . S
C455 C453 1.353 . S
C455 H511 0.930 . S
C456 N457 1.314 1_655 S
C456 C461 1.353 . S
C456 H462 0.930 . S
N457 Li440 1.990 . S
N457 C456 1.314 1_455 S
N457 C459 1.279 . S
C458 C459 1.358 . S
C458 C460 1.356 . S
C458 H512 0.930 . S
C459 N457 1.279 . S
C459 C458 1.358 . S
C459 H463 0.930 . S
C460 C458 1.356 . S
C460 C461 1.348 1_455 S
C461 C456 1.353 . S
C461 C460 1.348 1_655 S
C461 H513 0.929 . S
H462 C456 0.930 . S
H463 C459 0.930 . S
C464 N465 1.314 1_455 S
C464 C466 1.353 . S
C464 H470 0.930 . S
N465 Li441 1.990 1_655 S
N465 C464 1.314 1_655 S
N465 C468 1.279 . S
C466 C464 1.353 . S
C466 C469 1.348 . S
C466 H514 0.929 . S
C467 C468 1.358 . S
C467 C469 1.356 1_655 S
C467 H515 0.930 . S
C468 N465 1.279 . S
C468 C467 1.358 . S
C468 H471 0.930 . S
C469 C466 1.348 . S
C469 C467 1.356 1_455 S
H470 C464 0.930 . S
H471 C468 0.930 . S
C472 C474 1.348 1_455 S
C472 C475 1.356 . S
C472 O502 1.325 . S
N473 C476 1.314 1_455 S
N473 C477 1.279 . S
C474 C472 1.348 1_655 S
C474 C476 1.353 . S
C474 H516 0.929 . S
C475 C472 1.356 . S
C475 C477 1.358 . S
C475 H517 0.930 . S
C476 N473 1.314 1_655 S
C476 C474 1.353 . S
C476 H518 0.930 . S
C477 N473 1.279 . S
C477 C475 1.358 . S
C477 H519 0.930 . S
C478 C479 1.348 . S
C478 C480 1.356 1_455 S
C478 O503 1.325 . S
C479 C478 1.348 . S
C479 C481 1.353 . S
C479 H520 0.929 . S
C480 C478 1.356 1_655 S
C480 C482 1.358 . S
C480 H521 0.930 . S
C481 C479 1.353 . S
C481 N483 1.314 1_455 S
C481 H522 0.930 . S
C482 C480 1.358 . S
C482 N483 1.279 . S
C482 H523 0.930 . S
N483 C481 1.314 1_655 S
N483 C482 1.279 . S
C484 C486 1.353 . S
C484 N487 1.314 . S
C484 H490 0.930 . S
C485 N487 1.279 . S
C485 C488 1.358 . S
C485 H491 0.930 . S
C486 C484 1.353 . S
C486 C489 1.348 . S
C486 H524 0.929 . S
N487 Li442 1.990 . S
N487 C484 1.314 . S
N487 C485 1.279 . S
C488 C485 1.358 . S
C488 C489 1.356 . S
C488 H525 0.930 . S
C489 C486 1.348 . S
C489 C488 1.356 . S
H490 C484 0.930 . S
H491 C485 0.930 . S
C492 N493 1.314 . S
C492 C494 1.353 . S
C492 H498 0.930 . S
N493 Li443 1.990 . S
N493 C492 1.314 . S
N493 C496 1.279 . S
C494 C492 1.353 . S
C494 C497 1.348 . S
C494 H526 0.929 . S
C495 C496 1.358 . S
C495 C497 1.356 . S
C495 H527 0.930 . S
C496 N493 1.279 . S
C496 C495 1.358 . S
C496 H499 0.930 . S
C497 C494 1.348 . S
C497 C495 1.356 . S
H498 C492 0.930 . S
H499 C496 0.930 . S
O500 Li440 1.956 . S
O500 Li441 1.968 . S
O500 Li442 1.961 . S
O500 C444 1.325 . S
O501 Li440 1.970 1_655 S
O501 Li441 1.958 1_655 S
O501 Li443 1.961 . S
O501 C450 1.325 . S
O502 Li440 1.961 . S
O502 Li442 1.959 . S
O502 Li443 1.968 1_455 S
O502 C472 1.325 . S
O503 Li441 1.961 . S
O503 Li442 1.970 . S
O503 Li443 1.956 1_455 S
O503 C478 1.325 . S
H504 C446 0.929 . S
H505 C447 0.930 . S
H506 C448 0.930 . S
H507 C449 0.930 . S
H508 C451 0.930 . S
H509 C453 0.929 . S
H510 C454 0.930 . S
H511 C455 0.930 . S
H512 C458 0.930 . S
H513 C461 0.929 . S
H514 C466 0.929 . S
H515 C467 0.930 . S
H516 C474 0.929 . S
H517 C475 0.930 . S
H518 C476 0.930 . S
H519 C477 0.930 . S
H520 C479 0.929 . S
H521 C480 0.930 . S
H522 C481 0.930 . S
H523 C482 0.930 . S
H524 C486 0.929 . S
H525 C488 0.930 . S
H526 C494 0.929 . S
H527 C495 0.930 . S
Li528 N545 1.990 . S
Li528 O588 1.956 . S
Li528 O589 1.970 1_545 S
Li528 O590 1.961 . S
Li529 N553 1.990 . S
Li529 O588 1.959 1_565 S
Li529 O589 1.956 . S
Li529 O591 1.961 1_565 S
Li530 N575 1.990 . S
Li530 O588 1.972 . S
Li530 O590 1.956 . S
Li530 O591 1.970 . S
Li531 N581 1.990 1_545 S
Li531 O589 1.955 1_545 S
Li531 O590 1.977 . S
Li531 O591 1.956 . S
C532 C534 1.319 1_545 S
C532 C535 1.385 . S
C532 O588 1.325 . S
N533 C536 1.314 1_545 S
N533 C537 1.279 . S
C534 C532 1.319 1_565 S
C534 C536 1.353 . S
C534 H592 0.929 . S
C535 C532 1.385 . S
C535 C537 1.358 . S
C535 H593 0.930 . S
C536 N533 1.314 1_565 S
C536 C534 1.353 . S
C536 H594 0.930 . S
C537 N533 1.279 . S
C537 C535 1.358 . S
C537 H595 0.930 . S
C538 C541 1.348 . S
C538 C542 1.356 . S
C538 O589 1.325 . S
C539 N540 1.279 . S
C539 C542 1.358 . S
C539 H596 0.930 . S
N540 C539 1.279 . S
N540 C543 1.314 . S
C541 C538 1.348 . S
C541 C543 1.353 . S
C541 H597 0.929 . S
C542 C538 1.356 . S
C542 C539 1.358 . S
C542 H598 0.930 . S
C543 N540 1.314 . S
C543 C541 1.353 . S
C543 H599 0.930 . S
C544 N545 1.314 . S
C544 C549 1.353 . S
C544 H550 0.930 . S
N545 Li528 1.990 . S
N545 C544 1.314 . S
N545 C547 1.279 1_545 S
C546 C547 1.358 . S
C546 C548 1.351 1_565 S
C546 H600 0.930 . S
C547 N545 1.279 1_565 S
C547 C546 1.358 . S
C547 H551 0.930 . S
C548 C546 1.351 1_545 S
C548 C549 1.357 . S
C549 C544 1.353 . S
C549 C548 1.357 . S
C549 H601 0.929 . S
H550 C544 0.930 . S
H551 C547 0.930 . S
C552 N553 1.314 . S
C552 C554 1.353 . S
C552 H558 0.930 . S
N553 Li529 1.990 . S
N553 C552 1.314 . S
N553 C556 1.279 . S
C554 C552 1.353 . S
C554 C557 1.348 . S
C554 H602 0.929 . S
C555 C556 1.358 . S
C555 C557 1.356 . S
C555 H603 0.930 . S
C556 N553 1.279 . S
C556 C555 1.358 . S
C556 H559 0.930 . S
C557 C554 1.348 . S
C557 C555 1.356 . S
H558 C552 0.930 . S
H559 C556 0.930 . S
C560 C562 1.348 . S
C560 C563 1.356 . S
C560 O590 1.325 . S
N561 C564 1.314 . S
N561 C565 1.279 . S
C562 C560 1.348 . S
C562 C564 1.353 . S
C562 H604 0.929 . S
C563 C560 1.356 . S
C563 C565 1.358 . S
C563 H605 0.930 . S
C564 N561 1.314 . S
C564 C562 1.353 . S
C564 H606 0.930 . S
C565 N561 1.279 . S
C565 C563 1.358 . S
C565 H607 0.930 . S
C566 C567 1.370 . S
C566 C568 1.334 1_545 S
C566 O591 1.325 . S
C567 C566 1.370 . S
C567 C569 1.353 . S
C567 H608 0.929 . S
C568 C566 1.334 1_565 S
C568 C570 1.358 . S
C568 H609 0.930 . S
C569 C567 1.353 . S
C569 N571 1.296 1_545 S
C569 H610 0.930 . S
C570 C568 1.358 . S
C570 N571 1.297 . S
C570 H611 0.930 . S
N571 C569 1.296 1_565 S
N571 C570 1.297 . S
C572 C574 1.353 . S
C572 N575 1.314 . S
C572 H578 0.930 . S
C573 N575 1.279 . S
C573 C576 1.358 . S
C573 H579 0.930 . S
C574 C572 1.353 . S
C574 C577 1.348 . S
C574 H612 0.929 . S
N575 Li530 1.990 . S
N575 C572 1.314 . S
N575 C573 1.279 . S
C576 C573 1.358 . S
C576 C577 1.356 . S
C576 H613 0.930 . S
C577 C574 1.348 . S
C577 C576 1.356 . S
H578 C572 0.930 . S
H579 C573 0.930 . S
C580 N581 1.314 . S
C580 C582 1.353 . S
C580 H586 0.930 . S
N581 Li531 1.990 1_565 S
N581 C580 1.314 . S
N581 C584 1.279 1_565 S
C582 C580 1.353 . S
C582 C585 1.338 1_565 S
C582 H614 0.929 . S
C583 C584 1.358 . S
C583 C585 1.362 . S
C583 H615 0.930 . S
C584 N581 1.279 1_545 S
C584 C583 1.358 . S
C584 H587 0.930 . S
C585 C582 1.338 1_545 S
C585 C583 1.362 . S
H586 C580 0.930 . S
H587 C584 0.930 . S
O588 Li528 1.956 . S
O588 Li529 1.959 1_545 S
O588 Li530 1.972 . S
O588 C532 1.325 . S
O589 Li528 1.970 1_565 S
O589 Li529 1.956 . S
O589 Li531 1.955 1_565 S
O589 C538 1.325 . S
O590 Li528 1.961 . S
O590 Li530 1.956 . S
O590 Li531 1.977 . S
O590 C560 1.325 . S
O591 Li529 1.961 1_545 S
O591 Li530 1.970 . S
O591 Li531 1.956 . S
O591 C566 1.325 . S
H592 C534 0.929 . S
H593 C535 0.930 . S
H594 C536 0.930 . S
H595 C537 0.930 . S
H596 C539 0.930 . S
H597 C541 0.929 . S
H598 C542 0.930 . S
H599 C543 0.930 . S
H600 C546 0.930 . S
H601 C549 0.929 . S
H602 C554 0.929 . S
H603 C555 0.930 . S
H604 C562 0.929 . S
H605 C563 0.930 . S
H606 C564 0.930 . S
H607 C565 0.930 . S
H608 C567 0.929 . S
H609 C568 0.930 . S
H610 C569 0.930 . S
H611 C570 0.930 . S
H612 C574 0.929 . S
H613 C576 0.930 . S
H614 C582 0.929 . S
H615 C583 0.930 . S
Li616 N633 1.990 . S
Li616 O676 1.956 1_655 S
Li616 O677 1.982 . S
Li616 O678 1.961 . S
Li617 N641 1.990 . S
Li617 O676 1.970 . S
Li617 O677 1.943 1_455 S
Li617 O679 1.961 . S
Li618 N663 1.992 . S
Li618 O676 1.960 1_655 S
Li618 O678 1.974 . S
Li618 O679 1.951 1_655 S
Li619 N669 1.990 . S
Li619 O677 1.960 1_455 S
Li619 O678 1.970 1_455 S
Li619 O679 1.956 . S
C620 C622 1.361 . S
C620 C623 1.340 1_455 S
C620 O676 1.326 . S
N621 C624 1.314 1_655 S
N621 C625 1.279 . S
C622 C620 1.361 . S
C622 C624 1.353 . S
C622 H680 0.929 . S
C623 C620 1.340 1_655 S
C623 C625 1.358 . S
C623 H681 0.930 . S
C624 N621 1.314 1_455 S
C624 C622 1.353 . S
C624 H682 0.930 . S
C625 N621 1.279 . S
C625 C623 1.358 . S
C625 H683 0.930 . S
C626 C629 1.334 1_455 S
C626 C630 1.373 . S
C626 O677 1.324 1_455 S
C627 N628 1.279 . S
C627 C630 1.358 . S
C627 H684 0.930 . S
N628 C627 1.279 . S
N628 C631 1.314 1_455 S
C629 C626 1.334 1_655 S
C629 C631 1.353 . S
C629 H685 0.929 . S
C630 C626 1.373 . S
C630 C627 1.358 . S
C630 H686 0.930 . S
C631 N628 1.314 1_655 S
C631 C629 1.353 . S
C631 H687 0.930 . S
C632 N633 1.314 . S
C632 C637 1.353 . S
C632 H638 0.930 . S
N633 Li616 1.990 . S
N633 C632 1.314 . S
N633 C635 1.279 . S
C634 C635 1.358 . S
C634 C636 1.356 . S
C634 H688 0.930 . S
C635 N633 1.279 . S
C635 C634 1.358 . S
C635 H639 0.930 . S
C636 C634 1.356 . S
C636 C637 1.348 . S
C637 C632 1.353 . S
C637 C636 1.348 . S
C637 H689 0.929 . S
H638 C632 0.930 . S
H639 C635 0.930 . S
C640 N641 1.314 . S
C640 C642 1.353 . S
C640 H646 0.930 . S
N641 Li617 1.990 . S
N641 C640 1.314 . S
N641 C644 1.279 . S
C642 C640 1.353 . S
C642 C645 1.348 . S
C642 H690 0.929 . S
C643 C644 1.358 . S
C643 C645 1.356 . S
C643 H691 0.930 . S
C644 N641 1.279 . S
C644 C643 1.358 . S
C644 H647 0.930 . S
C645 C642 1.348 . S
C645 C643 1.356 . S
H646 C640 0.930 . S
H647 C644 0.930 . S
C648 C650 1.348 . S
C648 C651 1.356 . S
C648 O678 1.325 . S
N649 C652 1.314 . S
N649 C653 1.279 . S
C650 C648 1.348 . S
C650 C652 1.353 . S
C650 H692 0.929 . S
C651 C648 1.356 . S
C651 C653 1.358 . S
C651 H693 0.930 . S
C652 N649 1.314 . S
C652 C650 1.353 . S
C652 H694 0.930 . S
C653 N649 1.279 . S
C653 C651 1.358 . S
C653 H695 0.930 . S
C654 C655 1.348 . S
C654 C656 1.356 . S
C654 O679 1.325 . S
C655 C654 1.348 . S
C655 C657 1.353 . S
C655 H696 0.929 . S
C656 C654 1.356 . S
C656 C658 1.358 . S
C656 H697 0.930 . S
C657 C655 1.353 . S
C657 N659 1.314 . S
C657 H698 0.930 . S
C658 C656 1.358 . S
C658 N659 1.279 . S
C658 H699 0.930 . S
N659 C657 1.314 . S
N659 C658 1.279 . S
C660 C662 1.353 . S
C660 N663 1.314 1_455 S
C660 H666 0.930 . S
C661 N663 1.279 . S
C661 C664 1.358 . S
C661 H667 0.930 . S
C662 C660 1.353 . S
C662 C665 1.360 . S
C662 H700 0.929 . S
N663 Li618 1.992 . S
N663 C660 1.314 1_655 S
N663 C661 1.279 . S
C664 C661 1.358 . S
C664 C665 1.341 1_655 S
C664 H701 0.930 . S
C665 C662 1.360 . S
C665 C664 1.341 1_455 S
H666 C660 0.930 . S
H667 C661 0.930 . S
C668 N669 1.314 1_655 S
C668 C670 1.353 . S
C668 H674 0.930 . S
N669 Li619 1.990 . S
N669 C668 1.314 1_455 S
N669 C672 1.279 . S
C670 C668 1.353 . S
C670 C673 1.333 1_655 S
C670 H702 0.929 . S
C671 C672 1.358 . S
C671 C673 1.374 . S
C671 H703 0.930 . S
C672 N669 1.279 . S
C672 C671 1.358 . S
C672 H675 0.930 . S
C673 C670 1.333 1_455 S
C673 C671 1.374 . S
H674 C668 0.930 . S
H675 C672 0.930 . S
O676 Li616 1.956 1_455 S
O676 Li617 1.970 . S
O676 Li618 1.960 1_455 S
O676 C620 1.326 . S
O677 Li616 1.982 . S
O677 Li617 1.943 1_655 S
O677 Li619 1.960 1_655 S
O677 C626 1.324 1_655 S
O678 Li616 1.961 . S
O678 Li618 1.974 . S
O678 Li619 1.970 1_655 S
O678 C648 1.325 . S
O679 Li617 1.961 . S
O679 Li618 1.951 1_455 S
O679 Li619 1.956 . S
O679 C654 1.325 . S
H680 C622 0.929 . S
H681 C623 0.930 . S
H682 C624 0.930 . S
H683 C625 0.930 . S
H684 C627 0.930 . S
H685 C629 0.929 . S
H686 C630 0.930 . S
H687 C631 0.930 . S
H688 C634 0.930 . S
H689 C637 0.929 . S
H690 C642 0.929 . S
H691 C643 0.930 . S
H692 C650 0.929 . S
H693 C651 0.930 . S
H694 C652 0.930 . S
H695 C653 0.930 . S
H696 C655 0.929 . S
H697 C656 0.930 . S
H698 C657 0.930 . S
H699 C658 0.930 . S
H700 C662 0.929 . S
H701 C664 0.930 . S
H702 C670 0.929 . S
H703 C671 0.930 . S
C704 C705 1.387 . S
C704 H708 0.950 . S
C704 C713 1.391 1_554 S
C705 C704 1.387 . S
C705 C707 1.387 . S
H706 C713 0.950 . S
C707 C705 1.387 . S
C707 C709 1.391 1_554 S
C707 H711 0.950 . S
H708 C704 0.950 . S
C709 C707 1.391 1_556 S
C709 C710 1.387 . S
C709 H712 0.950 . S
C710 C709 1.387 . S
C710 C713 1.387 . S
H711 C707 0.950 . S
H712 C709 0.950 . S
C713 C704 1.391 1_556 S
C713 H706 0.950 . S
C713 C710 1.387 . S
C714 C715 1.387 . S
C714 H718 0.950 . S
C714 C723 1.391 . S
C715 C714 1.387 . S
C715 C717 1.387 . S
H716 C723 0.950 . S
C717 C715 1.387 . S
C717 C719 1.391 . S
C717 H721 0.950 . S
H718 C714 0.950 . S
C719 C717 1.391 . S
C719 C720 1.387 . S
C719 H722 0.950 . S
C720 C719 1.387 . S
C720 C723 1.387 . S
H721 C717 0.950 . S
H722 C719 0.950 . S
C723 C714 1.391 . S
C723 H716 0.950 . S
C723 C720 1.387 . S
C724 C725 1.387 . S
C724 H728 0.950 . S
C724 C733 1.391 1_556 S
C725 C724 1.387 . S
C725 C727 1.387 . S
H726 C733 0.950 . S
C727 C725 1.387 . S
C727 C729 1.391 1_556 S
C727 H731 0.950 . S
H728 C724 0.950 . S
C729 C727 1.391 1_554 S
C729 C730 1.387 . S
C729 H732 0.950 . S
C730 C729 1.387 . S
C730 C733 1.387 . S
H731 C727 0.950 . S
H732 C729 0.950 . S
C733 C724 1.391 1_554 S
C733 H726 0.950 . S
C733 C730 1.387 . S
C734 C735 1.387 . S
C734 H738 0.950 . S
C734 C743 1.391 . S
C735 C734 1.387 . S
C735 C737 1.387 . S
H736 C743 0.950 . S
C737 C735 1.387 . S
C737 C739 1.391 . S
C737 H741 0.950 . S
H738 C734 0.950 . S
C739 C737 1.391 . S
C739 C740 1.387 . S
C739 H742 0.950 . S
C740 C739 1.387 . S
C740 C743 1.387 . S
H741 C737 0.950 . S
H742 C739 0.950 . S
C743 C734 1.391 . S
C743 H736 0.950 . S
C743 C740 1.387 . S
C744 C745 1.387 . S
C744 H748 0.950 . S
C744 C753 1.391 . S
C745 C744 1.387 . S
C745 C747 1.387 . S
H746 C753 0.950 . S
C747 C745 1.387 . S
C747 C749 1.390 . S
C747 H751 0.950 . S
H748 C744 0.950 . S
C749 C747 1.390 . S
C749 C750 1.387 . S
C749 H752 0.950 . S
C750 C749 1.387 . S
C750 C753 1.388 . S
H751 C747 0.950 . S
H752 C749 0.950 . S
C753 C744 1.391 . S
C753 H746 0.950 . S
C753 C750 1.388 . S
C754 C755 1.387 . S
C754 H758 0.950 . S
C754 C763 1.390 . S
C755 C754 1.387 . S
C755 C757 1.387 . S
H756 C763 0.950 . S
C757 C755 1.387 . S
C757 C759 1.390 . S
C757 H761 0.950 . S
H758 C754 0.950 . S
C759 C757 1.390 . S
C759 C760 1.388 . S
C759 H762 0.950 . S
C760 C759 1.388 . S
C760 C763 1.388 . S
H761 C757 0.950 . S
H762 C759 0.950 . S
C763 C754 1.390 . S
C763 H756 0.950 . S
C763 C760 1.388 . S
C764 C765 1.387 . S
C764 H768 0.950 . S
C764 C773 1.390 . S
C765 C764 1.387 . S
C765 C767 1.387 . S
H766 C773 0.950 . S
C767 C765 1.387 . S
C767 C769 1.390 . S
C767 H771 0.950 . S
H768 C764 0.950 . S
C769 C767 1.390 . S
C769 C770 1.387 . S
C769 H772 0.950 . S
C770 C769 1.387 . S
C770 C773 1.387 . S
H771 C767 0.950 . S
H772 C769 0.950 . S
C773 C764 1.390 . S
C773 H766 0.950 . S
C773 C770 1.387 . S
C774 C775 1.388 . S
C774 H778 0.950 . S
C774 C783 1.390 . S
C775 C774 1.388 . S
C775 C777 1.388 . S
H776 C783 0.950 . S
C777 C775 1.388 . S
C777 C779 1.390 . S
C777 H781 0.950 . S
H778 C774 0.950 . S
C779 C777 1.390 . S
C779 C780 1.387 . S
C779 H782 0.950 . S
C780 C779 1.387 . S
C780 C783 1.387 . S
H781 C777 0.950 . S
H782 C779 0.950 . S
C783 C774 1.390 . S
C783 H776 0.950 . S
C783 C780 1.387 . S
C784 C785 1.387 . S
C784 H788 0.950 . S
C784 C793 1.390 . S
C785 C784 1.387 . S
C785 C787 1.387 . S
H786 C793 0.950 . S
C787 C785 1.387 . S
C787 C789 1.390 . S
C787 H791 0.950 . S
H788 C784 0.950 . S
C789 C787 1.390 . S
C789 C790 1.387 . S
C789 H792 0.950 . S
C790 C789 1.387 . S
C790 C793 1.387 . S
H791 C787 0.950 . S
H792 C789 0.950 . S
C793 C784 1.390 . S
C793 H786 0.950 . S
C793 C790 1.387 . S
C794 C795 1.387 . S
C794 H798 0.950 . S
C794 C803 1.390 . S
C795 C794 1.387 . S
C795 C797 1.387 . S
H796 C803 0.950 . S
C797 C795 1.387 . S
C797 C799 1.390 . S
C797 H801 0.950 . S
H798 C794 0.950 . S
C799 C797 1.390 . S
C799 C800 1.387 . S
C799 H802 0.950 . S
C800 C799 1.387 . S
C800 C803 1.387 . S
H801 C797 0.950 . S
H802 C799 0.950 . S
C803 C794 1.390 . S
C803 H796 0.950 . S
C803 C800 1.387 . S
C804 C805 1.387 . S
C804 H808 0.950 . S
C804 C813 1.390 . S
C805 C804 1.387 . S
C805 C807 1.387 . S
H806 C813 0.950 . S
C807 C805 1.387 . S
C807 C809 1.390 . S
C807 H811 0.950 . S
H808 C804 0.950 . S
C809 C807 1.390 . S
C809 C810 1.387 . S
C809 H812 0.950 . S
C810 C809 1.387 . S
C810 C813 1.387 . S
H811 C807 0.950 . S
H812 C809 0.950 . S
C813 C804 1.390 . S
C813 H806 0.950 . S
C813 C810 1.387 . S
C814 C815 1.387 . S
C814 H818 0.950 . S
C814 C823 1.390 . S
C815 C814 1.387 . S
C815 C817 1.387 . S
H816 C823 0.950 . S
C817 C815 1.387 . S
C817 C819 1.390 . S
C817 H821 0.950 . S
H818 C814 0.950 . S
C819 C817 1.390 . S
C819 C820 1.387 . S
C819 H822 0.950 . S
C820 C819 1.387 . S
C820 C823 1.387 . S
H821 C817 0.950 . S
H822 C819 0.950 . S
C823 C814 1.390 . S
C823 H816 0.950 . S
C823 C820 1.387 . S
C824 C825 1.387 . S
C824 H828 0.950 . S
C824 C833 1.390 . S
C825 C824 1.387 . S
C825 C827 1.387 . S
H826 C833 0.950 . S
C827 C825 1.387 . S
C827 C829 1.390 . S
C827 H831 0.950 . S
H828 C824 0.950 . S
C829 C827 1.390 . S
C829 C830 1.387 . S
C829 H832 0.950 . S
C830 C829 1.387 . S
C830 C833 1.387 . S
H831 C827 0.950 . S
H832 C829 0.950 . S
C833 C824 1.390 . S
C833 H826 0.950 . S
C833 C830 1.387 . S
C834 C835 1.387 . S
C834 H838 0.950 . S
C834 C843 1.390 . S
C835 C834 1.387 . S
C835 C837 1.387 . S
H836 C843 0.950 . S
C837 C835 1.387 . S
C837 C839 1.390 . S
C837 H841 0.950 . S
H838 C834 0.950 . S
C839 C837 1.390 . S
C839 C840 1.387 . S
C839 H842 0.950 . S
C840 C839 1.387 . S
C840 C843 1.387 . S
H841 C837 0.950 . S
H842 C839 0.950 . S
C843 C834 1.390 . S
C843 H836 0.950 . S
C843 C840 1.387 . S
C844 C845 1.387 . S
C844 H848 0.950 . S
C844 C853 1.390 . S
C845 C844 1.387 . S
C845 C847 1.387 . S
H846 C853 0.950 . S
C847 C845 1.387 . S
C847 C849 1.390 . S
C847 H851 0.950 . S
H848 C844 0.950 . S
C849 C847 1.390 . S
C849 C850 1.387 . S
C849 H852 0.950 . S
C850 C849 1.387 . S
C850 C853 1.387 . S
H851 C847 0.950 . S
H852 C849 0.950 . S
C853 C844 1.390 . S
C853 H846 0.950 . S
C853 C850 1.387 . S
C854 C855 1.387 . S
C854 H858 0.950 . S
C854 C863 1.390 . S
C855 C854 1.387 . S
C855 C857 1.387 . S
H856 C863 0.950 . S
C857 C855 1.387 . S
C857 C859 1.390 . S
C857 H861 0.950 . S
H858 C854 0.950 . S
C859 C857 1.390 . S
C859 C860 1.387 . S
C859 H862 0.950 . S
C860 C859 1.387 . S
C860 C863 1.387 . S
H861 C857 0.950 . S
H862 C859 0.950 . S
C863 C854 1.390 . S
C863 H856 0.950 . S
C863 C860 1.387 . S
C705 C49 1.583 . S
C710 C381 1.583 . S
C715 C108 1.581 . S
C720 C469 1.581 . S
C725 C548 1.583 . S
C730 C233 1.583 . S
C735 C673 1.581 . S
C740 C313 1.581 . S
C745 C29 0.932 . S
C750 C196 0.930 . S
C755 C117 0.933 . S
C760 C321 0.934 . S
C765 C585 0.931 . S
C770 C401 0.930 . S
C775 C460 0.934 . S
C780 C665 0.933 . S
C785 C489 1.394 . S
C790 C20 1.385 . S
C795 C145 1.395 . S
C800 C577 1.383 . S
C805 C636 1.395 . S
C810 C205 1.383 . S
C815 C293 1.394 . S
C820 C409 1.385 . S
C825 C557 1.392 . S
C830 C284 1.383 . S
C835 C57 1.394 . S
C840 C645 1.381 . S
C845 C137 1.383 . S
C850 C372 1.392 . S
C855 C497 1.383 . S
C860 C225 1.392 . S
