# Generated by pormake.
# Topology qtz-e, (6)-cn, num edge types: 1
# Building blocks:
#     Node 0, Type 0, BuildingBlock: KUMBOL_clean_sbu_0, # of connection points: 6
#     Node 1, Type 0, BuildingBlock: KUMBOL_clean_sbu_0, # of connection points: 6
#     Node 2, Type 0, BuildingBlock: KUMBOL_clean_sbu_0, # of connection points: 6
#     Node 3, Type 0, BuildingBlock: KUMBOL_clean_sbu_0, # of connection points: 6
#     Node 4, Type 0, BuildingBlock: KUMBOL_clean_sbu_0, # of connection points: 6
#     Node 5, Type 0, BuildingBlock: KUMBOL_clean_sbu_0, # of connection points: 6
#     Edge 6, Type (0, 0), BuildingBlock: MIFKUJ_clean_linker_0, # of connection points: 2
#     Edge 7, Type (0, 0), BuildingBlock: MIFKUJ_clean_linker_0, # of connection points: 2
#     Edge 8, Type (0, 0), BuildingBlock: MIFKUJ_clean_linker_0, # of connection points: 2
#     Edge 9, Type (0, 0), BuildingBlock: MIFKUJ_clean_linker_0, # of connection points: 2
#     Edge 10, Type (0, 0), BuildingBlock: MIFKUJ_clean_linker_0, # of connection points: 2
#     Edge 11, Type (0, 0), BuildingBlock: MIFKUJ_clean_linker_0, # of connection points: 2
#     Edge 12, Type (0, 0), BuildingBlock: MIFKUJ_clean_linker_0, # of connection points: 2
#     Edge 13, Type (0, 0), BuildingBlock: MIFKUJ_clean_linker_0, # of connection points: 2
#     Edge 14, Type (0, 0), BuildingBlock: MIFKUJ_clean_linker_0, # of connection points: 2
#     Edge 15, Type (0, 0), BuildingBlock: MIFKUJ_clean_linker_0, # of connection points: 2
#     Edge 16, Type (0, 0), BuildingBlock: MIFKUJ_clean_linker_0, # of connection points: 2
#     Edge 17, Type (0, 0), BuildingBlock: MIFKUJ_clean_linker_0, # of connection points: 2
#     Edge 18, Type (0, 0), BuildingBlock: MIFKUJ_clean_linker_0, # of connection points: 2
#     Edge 19, Type (0, 0), BuildingBlock: MIFKUJ_clean_linker_0, # of connection points: 2
#     Edge 20, Type (0, 0), BuildingBlock: MIFKUJ_clean_linker_0, # of connection points: 2
#     Edge 21, Type (0, 0), BuildingBlock: MIFKUJ_clean_linker_0, # of connection points: 2
#     Edge 22, Type (0, 0), BuildingBlock: MIFKUJ_clean_linker_0, # of connection points: 2
#     Edge 23, Type (0, 0), BuildingBlock: MIFKUJ_clean_linker_0, # of connection points: 2
# Relax obj value: 0.057
# Max RMSD: 0.139
# Mean RMSD: 0.139
data_MOF--net-qtz-e--node1-KUMBOL_clean_sbu_0--edge1-MIFKUJ_clean_linker_0
_symmetry_space_group_name_H-M    P1
_symmetry_Int_Tables_number       1
_symmetry_cell_setting            triclinic
loop_
_symmetry_equiv_pos_as_xyz
'x, y, z'
_cell_length_a     37.866195
_cell_length_b     37.910456
_cell_length_c     57.010924
_cell_angle_alpha  90.051685
_cell_angle_beta   89.952256
_cell_angle_gamma 120.02647
loop_
_atom_site_label
_atom_site_type_symbol
_atom_site_fract_x
_atom_site_fract_y
_atom_site_fract_z
_atom_type_partial_charge
Gd0 Gd 0.18632 0.38037 0.99829 0.0
Gd1 Gd 0.22325 0.47839 0.02934 0.0
C2 C 0.31138 0.60139 0.99622 0.0
C3 C 0.3722 0.62408 0.02003 0.0
C4 C 0.311 0.55948 0.02834 0.0
C5 C 0.29127 0.56542 0.00969 0.0
C6 C 0.35152 0.58895 0.03393 0.0
C7 C 0.35217 0.63028 1.0012 0.0
C8 C 0.28954 0.60778 0.97858 0.0
C9 C 0.24829 0.57953 0.97542 0.0
N10 N 0.25175 0.53704 1.00549 0.0
C11 C 0.22955 0.54463 0.98945 0.0
H12 H 0.19758 0.52331 0.98682 0.0
C13 C 0.30748 0.51915 0.06088 0.0
N14 N 0.29029 0.52499 0.04126 0.0
C15 C 0.34762 0.54747 0.06709 0.0
C16 C 0.36989 0.58236 0.05344 0.0
H17 H 0.29054 0.49216 0.07145 0.0
H18 H 0.36822 0.6579 0.9909 0.0
H19 H 0.23328 0.35514 0.03987 0.0
H20 H 0.30392 0.6349 0.96776 0.0
H21 H 0.23086 0.58459 0.96216 0.0
H22 H 0.40346 0.64692 0.02391 0.0
H23 H 0.10555 0.3465 0.96313 0.0
H24 H 0.14611 0.24159 0.06987 0.0
H25 H 0.21619 0.29998 0.06796 0.0
H26 H 0.02449 0.20359 0.02586 0.0
H27 H 0.36139 0.54235 0.08238 0.0
H28 H 0.40099 0.60424 0.05829 0.0
H29 H 0.07405 0.20644 0.05472 0.0
H30 H 0.03502 0.28825 0.96059 0.0
N31 N 0.17297 0.32916 0.02611 0.0
C32 C 0.1531 0.26606 0.05773 0.0
C33 C 0.19284 0.29884 0.05652 0.0
C34 C 0.12329 0.26463 0.04267 0.0
C35 C 0.13441 0.29693 0.02672 0.0
C36 C 0.20241 0.33009 0.0404 0.0
N37 N 0.11918 0.32576 0.99463 0.0
C38 C 0.10656 0.29528 0.01052 0.0
C39 C 0.05471 0.28996 0.97482 0.0
C40 C 0.04055 0.25928 0.99176 0.0
C41 C 0.09457 0.3228 0.9763 0.0
C42 C 0.06678 0.26129 0.00966 0.0
H43 H 0.00976 0.23367 0.99049 0.0
O44 O 0.18432 0.36293 0.96168 0.0
O45 O 0.22204 0.44721 0.99636 0.0
O46 O 0.16543 0.46147 0.00959 0.0
O47 O 0.13234 0.39124 1.00215 0.0
O48 O 0.18608 0.41783 0.96761 0.0
O49 O 0.22338 0.35493 0.98603 0.0
O50 O 0.21474 0.49358 0.06485 0.0
O51 O 0.18445 0.4108 0.03131 0.0
O52 O 0.25276 0.40642 0.01122 0.0
O53 O 0.27862 0.47536 0.0198 0.0
O54 O 0.21977 0.43906 0.06008 0.0
O55 O 0.1877 0.50786 0.03534 0.0
C56 C 0.21268 0.45271 0.97607 0.0
C57 C 0.05499 0.22983 0.02612 0.0
C58 C 0.08323 0.23146 0.04257 0.0
C59 C 0.21 0.34993 0.96449 0.0
C60 C 0.19964 0.311 0.95293 0.0
C61 C 0.16911 0.27412 0.96235 0.0
C62 C 0.22047 0.31054 0.93239 0.0
C63 C 0.2111 0.27326 0.92156 0.0
C64 C 0.15948 0.23728 0.95164 0.0
C65 C 0.18027 0.23676 0.9315 0.0
C66 C 0.13295 0.42653 1.00383 0.0
C67 C 0.19219 0.40448 0.0519 0.0
C68 C 0.19624 0.51282 0.05768 0.0
C69 C 0.21191 0.55409 0.06708 0.0
C70 C 0.23348 0.58879 0.05291 0.0
C71 C 0.20575 0.55882 0.09081 0.0
C72 C 0.22054 0.59783 0.10037 0.0
C73 C 0.24784 0.62761 0.06227 0.0
C74 C 0.24135 0.63222 0.08588 0.0
C75 C 0.28355 0.44383 0.01574 0.0
H76 H 0.15282 0.27381 0.97802 0.0
H77 H 0.24441 0.33893 0.92519 0.0
H78 H 0.1358 0.20892 0.95901 0.0
H79 H 0.17192 0.20766 0.92354 0.0
H80 H 0.23892 0.58606 0.03458 0.0
H81 H 0.18936 0.5321 0.10182 0.0
H82 H 0.26423 0.65419 0.05122 0.0
H83 H 0.25334 0.66264 0.09294 0.0
Gd84 Gd 0.81957 0.19201 0.33349 0.0
Gd85 Gd 0.78206 0.24858 0.36881 0.0
C86 C 0.77155 0.34881 0.33047 0.0
C87 C 0.82519 0.41013 0.34893 0.0
C88 C 0.81151 0.34339 0.36189 0.0
C89 C 0.78147 0.32499 0.34506 0.0
C90 C 0.83278 0.38607 0.36457 0.0
C91 C 0.79457 0.39151 0.33191 0.0
C92 C 0.73775 0.329 0.31563 0.0
C93 C 0.71367 0.28661 0.31646 0.0
N94 N 0.75946 0.28367 0.34446 0.0
C95 C 0.72467 0.26434 0.33132 0.0
H96 H 0.70595 0.23159 0.33158 0.0
C97 C 0.841 0.3353 0.39655 0.0
N98 N 0.81751 0.31914 0.37691 0.0
C99 C 0.86311 0.37753 0.39984 0.0
C100 C 0.85966 0.40309 0.3835 0.0
H101 H 0.84411 0.31555 0.40902 0.0
H102 H 0.78788 0.41034 0.32056 0.0
H103 H 0.89848 0.23672 0.37172 0.0
H104 H 0.72918 0.34616 0.30409 0.0
H105 H 0.68681 0.27103 0.30552 0.0
H106 H 0.84166 0.44303 0.35046 0.0
H107 H 0.75643 0.10802 0.30404 0.0
H108 H 0.92011 0.14517 0.40004 0.0
H109 H 0.93751 0.21718 0.3975 0.0
H110 H 0.82313 0.0239 0.36007 0.0
H111 H 0.8829 0.39032 0.41491 0.0
H112 H 0.87667 0.43578 0.38614 0.0
H113 H 0.8778 0.07345 0.38573 0.0
H114 H 0.73666 0.03522 0.30283 0.0
N115 N 0.85816 0.17628 0.35964 0.0
C116 C 0.90258 0.15354 0.38866 0.0
C117 C 0.91259 0.19421 0.38719 0.0
C118 C 0.87056 0.12427 0.37508 0.0
C119 C 0.84849 0.13669 0.36067 0.0
C120 C 0.89032 0.20518 0.37233 0.0
N121 N 0.79805 0.12217 0.33228 0.0
C122 C 0.81743 0.10876 0.34655 0.0
C123 C 0.75923 0.05548 0.31533 0.0
C124 C 0.77791 0.04087 0.33049 0.0
C125 C 0.77031 0.0966 0.31617 0.0
C126 C 0.80793 0.06772 0.34605 0.0
H127 H 0.7697 0.0091 0.32962 0.0
O128 O 0.82346 0.18062 0.29643 0.0
O129 O 0.80167 0.23904 0.33386 0.0
O130 O 0.72915 0.19169 0.35339 0.0
O131 O 0.75161 0.14788 0.33979 0.0
O132 O 0.77972 0.19776 0.30638 0.0
O133 O 0.87853 0.21912 0.31601 0.0
O134 O 0.76739 0.24767 0.40576 0.0
O135 O 0.79618 0.19823 0.36821 0.0
O136 O 0.87198 0.25723 0.34024 0.0
O137 O 0.84712 0.29335 0.36125 0.0
O138 O 0.81507 0.23517 0.39734 0.0
O139 O 0.72042 0.23086 0.37946 0.0
C140 C 0.78226 0.23059 0.31478 0.0
C141 C 0.82965 0.05517 0.36043 0.0
C142 C 0.86081 0.08336 0.37499 0.0
C143 C 0.86308 0.20297 0.29569 0.0
C144 C 0.88513 0.18741 0.28169 0.0
C145 C 0.88369 0.15095 0.2878 0.0
C146 C 0.90723 0.20899 0.26161 0.0
C147 C 0.92707 0.19373 0.24734 0.0
C148 C 0.90367 0.13592 0.27398 0.0
C149 C 0.92503 0.15694 0.25389 0.0
C150 C 0.72216 0.15575 0.34569 0.0
C151 C 0.81257 0.20294 0.3881 0.0
C152 C 0.73023 0.23935 0.40147 0.0
C153 C 0.71781 0.26632 0.41268 0.0
C154 C 0.7244 0.30203 0.40146 0.0
C155 C 0.69979 0.25671 0.43495 0.0
C156 C 0.68862 0.28283 0.44609 0.0
C157 C 0.71423 0.32847 0.41257 0.0
C158 C 0.69662 0.31912 0.4348 0.0
C159 C 0.87648 0.2907 0.35057 0.0
H160 H 0.86704 0.13409 0.30318 0.0
H161 H 0.90822 0.23713 0.25689 0.0
H162 H 0.9025 0.10774 0.2788 0.0
H163 H 0.94035 0.14456 0.2436 0.0
H164 H 0.73723 0.30949 0.38413 0.0
H165 H 0.69379 0.22857 0.44331 0.0
H166 H 0.71987 0.35619 0.40387 0.0
H167 H 0.68923 0.3403 0.44313 0.0
Gd168 Gd 0.62235 0.8118 0.66478 0.0
Gd169 Gd 0.52448 0.74952 0.69573 0.0
C170 C 0.39739 0.71018 0.66757 0.0
C171 C 0.37597 0.74811 0.6925 0.0
C172 C 0.44292 0.75504 0.69758 0.0
C173 C 0.43535 0.72838 0.67917 0.0
C174 C 0.4132 0.76494 0.7046 0.0
C175 C 0.36804 0.7207 0.67405 0.0
C176 C 0.38949 0.68093 0.65033 0.0
C177 C 0.41873 0.66986 0.64533 0.0
N178 N 0.46419 0.71854 0.67343 0.0
C179 C 0.45579 0.68853 0.6574 0.0
H180 H 0.47771 0.67903 0.65366 0.0
C181 C 0.48689 0.79498 0.72823 0.0
N182 N 0.4792 0.77077 0.70892 0.0
C183 C 0.45834 0.80554 0.73586 0.0
C184 C 0.42149 0.79084 0.72386 0.0
H185 H 0.51522 0.80659 0.73767 0.0
H186 H 0.33882 0.70722 0.66521 0.0
H187 H 0.64626 0.88554 0.70535 0.0
H188 H 0.36046 0.66596 0.64133 0.0
H189 H 0.41265 0.64659 0.63241 0.0
H190 H 0.35283 0.75548 0.69756 0.0
H191 H 0.66057 0.76767 0.63037 0.0
H192 H 0.7534 0.90556 0.74158 0.0
H193 H 0.6978 0.921 0.73588 0.0
H194 H 0.79419 0.8223 0.69953 0.0
H195 H 0.46472 0.82472 0.75112 0.0
H196 H 0.39936 0.79901 0.72986 0.0
H197 H 0.78865 0.86784 0.72823 0.0
H198 H 0.71828 0.75438 0.6303 0.0
N199 N 0.67189 0.84977 0.69354 0.0
C200 C 0.73088 0.88993 0.72798 0.0
C201 C 0.69963 0.89882 0.72476 0.0
C202 C 0.73332 0.86178 0.71318 0.0
C203 C 0.70315 0.84221 0.69579 0.0
C204 C 0.67041 0.87859 0.70728 0.0
N205 N 0.67753 0.79977 0.66277 0.0
C206 C 0.70602 0.8163 0.67989 0.0
C207 C 0.71504 0.77159 0.64446 0.0
C208 C 0.74328 0.78628 0.66279 0.0
C209 C 0.68255 0.77925 0.64451 0.0
C210 C 0.73944 0.8096 0.68059 0.0
H211 H 0.76854 0.78048 0.66267 0.0
O212 O 0.64115 0.82748 0.62842 0.0
O213 O 0.55529 0.77935 0.66255 0.0
O214 O 0.54145 0.70913 0.67541 0.0
O215 O 0.61166 0.747 0.66768 0.0
O216 O 0.58566 0.775 0.63352 0.0
O217 O 0.64938 0.87464 0.6528 0.0
O218 O 0.50986 0.72561 0.7312 0.0
O219 O 0.59211 0.77876 0.69766 0.0
O220 O 0.59434 0.85097 0.67694 0.0
O221 O 0.52546 0.80643 0.68512 0.0
O222 O 0.56371 0.78541 0.72644 0.0
O223 O 0.49502 0.68443 0.70156 0.0
C224 C 0.55036 0.76518 0.64205 0.0
C225 C 0.76857 0.82749 0.69851 0.0
C226 C 0.76545 0.85346 0.71483 0.0
C227 C 0.65482 0.86626 0.63134 0.0
C228 C 0.69429 0.89425 0.6201 0.0
C229 C 0.73051 0.89838 0.62919 0.0
C230 C 0.69578 0.91655 0.59987 0.0
C231 C 0.73345 0.9431 0.58883 0.0
C232 C 0.7677 0.92414 0.61831 0.0
C233 C 0.76924 0.94621 0.59835 0.0
C234 C 0.5765 0.71211 0.66925 0.0
C235 C 0.59834 0.7927 0.71826 0.0
C236 C 0.48942 0.688 0.72384 0.0
C237 C 0.44734 0.66398 0.73268 0.0
C238 C 0.41373 0.64777 0.71736 0.0
C239 C 0.44053 0.65871 0.75691 0.0
C240 C 0.40063 0.63737 0.76583 0.0
C241 C 0.37411 0.62642 0.72607 0.0
C242 C 0.36748 0.62113 0.75016 0.0
C243 C 0.55639 0.84328 0.68104 0.0
H244 H 0.73001 0.88156 0.64464 0.0
H245 H 0.66776 0.91357 0.59297 0.0
H246 H 0.79553 0.92692 0.62535 0.0
H247 H 0.79861 0.9654 0.59018 0.0
H248 H 0.41783 0.65101 0.69862 0.0
H249 H 0.46629 0.67189 0.76879 0.0
H250 H 0.34849 0.61378 0.7141 0.0
H251 H 0.33639 0.60381 0.75648 0.0
Gd252 Gd 0.80716 0.62553 1.00055 0.0
Gd253 Gd 0.77125 0.52995 0.03409 0.0
C254 C 0.67736 0.40285 0.00845 0.0
C255 C 0.62018 0.38522 0.0346 0.0
C256 C 0.68274 0.45047 0.0385 0.0
C257 C 0.69962 0.44092 0.01975 0.0
C258 C 0.64297 0.4226 0.04628 0.0
C259 C 0.63735 0.37537 0.01571 0.0
C260 C 0.69633 0.39314 0.99056 0.0
C261 C 0.737 0.42034 0.98503 0.0
N262 N 0.73846 0.46806 0.01326 0.0
C263 C 0.75806 0.45743 0.99705 0.0
H264 H 0.78969 0.47802 0.99286 0.0
C265 C 0.69074 0.49697 0.06855 0.0
N266 N 0.70539 0.48709 0.04922 0.0
C267 C 0.6516 0.4702 0.07699 0.0
C268 C 0.62744 0.43299 0.06571 0.0
H269 H 0.70895 0.52567 0.07739 0.0
H270 H 0.61969 0.34613 0.00711 0.0
H271 H 0.75769 0.6486 0.04181 0.0
H272 H 0.6802 0.36435 0.98131 0.0
H273 H 0.75204 0.41271 0.97148 0.0
H274 H 0.58948 0.36352 0.04023 0.0
H275 H 0.88981 0.66003 0.96689 0.0
H276 H 0.84161 0.76403 0.07155 0.0
H277 H 0.77246 0.70365 0.06962 0.0
H278 H 0.96349 0.80676 0.02688 0.0
H279 H 0.6402 0.4783 0.09226 0.0
H280 H 0.59713 0.41228 0.0723 0.0
H281 H 0.91246 0.80239 0.05531 0.0
H282 H 0.9593 0.71997 0.96441 0.0
N283 N 0.8182 0.67653 0.02812 0.0
C284 C 0.8354 0.73971 0.05931 0.0
C285 C 0.79631 0.70578 0.0582 0.0
C286 C 0.86574 0.7423 0.04423 0.0
C287 C 0.85617 0.7097 0.02873 0.0
C288 C 0.78805 0.67456 0.04224 0.0
N289 N 0.87397 0.68093 0.99759 0.0
C290 C 0.88498 0.71194 0.01298 0.0
C291 C 0.93883 0.718 0.97826 0.0
C292 C 0.95123 0.7495 0.99458 0.0
C293 C 0.89959 0.68413 0.97975 0.0
C294 C 0.92395 0.74711 0.01193 0.0
H295 H 0.98147 0.77599 0.99322 0.0
O296 O 0.81038 0.64179 0.96366 0.0
O297 O 0.77187 0.5585 1.00007 0.0
O298 O 0.82808 0.54498 0.01378 0.0
O299 O 0.86119 0.6147 1.00476 0.0
O300 O 0.80718 0.58645 0.97072 0.0
O301 O 0.77123 0.6515 0.98708 0.0
O302 O 0.78241 0.51575 0.06931 0.0
O303 O 0.81018 0.5975 0.03422 0.0
O304 O 0.73993 0.59891 0.0122 0.0
O305 O 0.71521 0.53131 0.02368 0.0
O306 O 0.7778 0.57191 0.06411 0.0
O307 O 0.80774 0.50131 0.03899 0.0
C308 C 0.78116 0.55203 0.97993 0.0
C309 C 0.93383 0.77938 0.02754 0.0
C310 C 0.90479 0.77693 0.0437 0.0
C311 C 0.78521 0.65562 0.96572 0.0
C312 C 0.79685 0.69446 0.95359 0.0
C313 C 0.82952 0.73096 0.96199 0.0
C314 C 0.77569 0.69518 0.93327 0.0
C315 C 0.78736 0.73224 0.9214 0.0
C316 C 0.84131 0.76754 0.95037 0.0
C317 C 0.82062 0.76825 0.93027 0.0
C318 C 0.86085 0.57974 0.00798 0.0
C319 C 0.80458 0.60574 0.05483 0.0
C320 C 0.80125 0.49713 0.06155 0.0
C321 C 0.78786 0.45641 0.07122 0.0
C322 C 0.76599 0.42117 0.05751 0.0
C323 C 0.79737 0.45277 0.0945 0.0
C324 C 0.78506 0.41421 0.10415 0.0
C325 C 0.75353 0.38286 0.06697 0.0
C326 C 0.76286 0.37927 0.09017 0.0
C327 C 0.70959 0.56186 0.0179 0.0
H328 H 0.84599 0.73119 0.97751 0.0
H329 H 0.74995 0.66715 0.92697 0.0
H330 H 0.86679 0.79554 0.95691 0.0
H331 H 0.83109 0.79713 0.92148 0.0
H332 H 0.75866 0.42302 0.03947 0.0
H333 H 0.8148 0.48001 0.10497 0.0
H334 H 0.73656 0.35586 0.0563 0.0
H335 H 0.7523 0.3491 0.09722 0.0
Gd336 Gd 0.19467 0.81522 0.33113 0.0
Gd337 Gd 0.24512 0.76994 0.36522 0.0
C338 C 0.26287 0.66589 0.33918 0.0
C339 C 0.21805 0.61028 0.36496 0.0
C340 C 0.22452 0.6771 0.3693 0.0
C341 C 0.25108 0.69147 0.3505 0.0
C342 C 0.20797 0.63645 0.37691 0.0
C343 C 0.24562 0.62504 0.34619 0.0
C344 C 0.29263 0.68246 0.32167 0.0
C345 C 0.31039 0.72374 0.31613 0.0
N346 N 0.26705 0.73104 0.34408 0.0
C347 C 0.29753 0.74779 0.32779 0.0
H348 H 0.31186 0.7797 0.32353 0.0
C349 C 0.19247 0.69146 0.4005 0.0
N350 N 0.21566 0.70329 0.38054 0.0
C351 C 0.17509 0.65136 0.4086 0.0
C352 C 0.18246 0.62358 0.39659 0.0
H353 H 0.18636 0.71258 0.40986 0.0
H354 H 0.25401 0.60484 0.33752 0.0
H355 H 0.11927 0.76745 0.37134 0.0
H356 H 0.30286 0.66387 0.31288 0.0
H357 H 0.33416 0.73723 0.30303 0.0
H358 H 0.20545 0.57888 0.37044 0.0
H359 H 0.25153 0.89993 0.30031 0.0
H360 H 0.09223 0.85468 0.40075 0.0
H361 H 0.07935 0.78413 0.39823 0.0
H362 H 0.18084 0.97732 0.3591 0.0
H363 H 0.15596 0.64191 0.42407 0.0
H364 H 0.169 0.59255 0.40293 0.0
H365 H 0.12989 0.92638 0.38593 0.0
H366 H 0.2665 0.9713 0.2992 0.0
N367 N 0.15541 0.82809 0.35836 0.0
C368 C 0.11008 0.84758 0.38881 0.0
C369 C 0.10261 0.80772 0.38736 0.0
C370 C 0.14003 0.87767 0.37454 0.0
C371 C 0.1626 0.86691 0.35937 0.0
C372 C 0.12538 0.79837 0.37186 0.0
N373 N 0.21157 0.88389 0.32961 0.0
C374 C 0.19163 0.89569 0.34457 0.0
C375 C 0.24558 0.95046 0.31216 0.0
C376 C 0.22637 0.9635 0.328 0.0
C377 C 0.23719 0.91013 0.31292 0.0
C378 C 0.19847 0.93585 0.34419 0.0
H379 H 0.23251 0.99462 0.32721 0.0
O380 O 0.18516 0.82508 0.29459 0.0
O381 O 0.2188 0.77296 0.33099 0.0
O382 O 0.29112 0.8235 0.34385 0.0
O383 O 0.2619 0.86383 0.33573 0.0
O384 O 0.23159 0.80984 0.30175 0.0
O385 O 0.134 0.78268 0.31579 0.0
O386 O 0.27123 0.77672 0.40013 0.0
O387 O 0.22356 0.81497 0.3651 0.0
O388 O 0.14819 0.74881 0.34069 0.0
O389 O 0.18265 0.71815 0.35755 0.0
O390 O 0.21396 0.78238 0.39531 0.0
O391 O 0.31055 0.80268 0.36982 0.0
C392 C 0.23471 0.78036 0.31084 0.0
C393 C 0.1763 0.94675 0.35935 0.0
C394 C 0.14724 0.91775 0.37456 0.0
C395 C 0.14598 0.7996 0.2952 0.0
C396 C 0.11933 0.81184 0.28308 0.0
C397 C 0.11558 0.84452 0.2915 0.0
C398 C 0.09683 0.79015 0.26307 0.0
C399 C 0.07025 0.80078 0.25172 0.0
C400 C 0.08979 0.8555 0.28025 0.0
C401 C 0.06728 0.83388 0.2606 0.0
C402 C 0.29393 0.85851 0.33778 0.0
C403 C 0.20972 0.81066 0.38568 0.0
C404 C 0.30837 0.79343 0.39197 0.0
C405 C 0.33321 0.77552 0.39962 0.0
C406 C 0.34936 0.75948 0.38329 0.0
C407 C 0.34151 0.775 0.42354 0.0
C408 C 0.3659 0.7589 0.43106 0.0
C409 C 0.37291 0.7428 0.39074 0.0
C410 C 0.38134 0.74261 0.4145 0.0
C411 C 0.14941 0.71694 0.34953 0.0
H412 H 0.13248 0.86144 0.3068 0.0
H413 H 0.09942 0.7646 0.25667 0.0
H414 H 0.08715 0.88088 0.28682 0.0
H415 H 0.04777 0.84338 0.2522 0.0
H416 H 0.34442 0.76021 0.36475 0.0
H417 H 0.32974 0.78789 0.43621 0.0
H418 H 0.38508 0.73045 0.37803 0.0
H419 H 0.39987 0.72969 0.41995 0.0
Gd420 Gd 0.38024 0.18993 0.66722 0.0
Gd421 Gd 0.47709 0.24455 0.70055 0.0
C422 C 0.59947 0.27235 0.66942 0.0
C423 C 0.6168 0.22998 0.69319 0.0
C424 C 0.55396 0.23087 0.70048 0.0
C425 C 0.56278 0.25786 0.68211 0.0
C426 C 0.58104 0.21691 0.70638 0.0
C427 C 0.626 0.25766 0.67475 0.0
C428 C 0.60898 0.30207 0.65223 0.0
C429 C 0.5831 0.31787 0.64877 0.0
N430 N 0.53661 0.27169 0.6775 0.0
C431 C 0.54731 0.30293 0.66201 0.0
H432 H 0.52771 0.31565 0.65931 0.0
C433 C 0.51012 0.19378 0.73189 0.0
N434 N 0.51886 0.21837 0.71269 0.0
C435 C 0.536 0.17906 0.73837 0.0
C436 C 0.57145 0.1904 0.72545 0.0
H437 H 0.48272 0.18481 0.74192 0.0
H438 H 0.65411 0.26815 0.66503 0.0
H439 H 0.35295 0.11466 0.70713 0.0
H440 H 0.63673 0.31381 0.64199 0.0
H441 H 0.59072 0.34147 0.63585 0.0
H442 H 0.63783 0.21935 0.69733 0.0
H443 H 0.3487 0.2414 0.63424 0.0
H444 H 0.23932 0.08789 0.73726 0.0
H445 H 0.29689 0.07511 0.73443 0.0
H446 H 0.20511 0.17745 0.69672 0.0
H447 H 0.52858 0.15898 0.75331 0.0
H448 H 0.59141 0.17892 0.7305 0.0
H449 H 0.20599 0.12755 0.72383 0.0
H450 H 0.29187 0.25589 0.63304 0.0
N451 N 0.32823 0.15078 0.6945 0.0
C452 C 0.26418 0.10602 0.72542 0.0
C453 C 0.29648 0.09842 0.72369 0.0
C454 C 0.26381 0.136 0.71132 0.0
C455 C 0.29655 0.1579 0.69569 0.0
C456 C 0.32825 0.12095 0.70796 0.0
N457 N 0.32687 0.20458 0.66484 0.0
C458 C 0.296 0.18591 0.68047 0.0
C459 C 0.29278 0.23638 0.6466 0.0
C460 C 0.26178 0.21905 0.66335 0.0
C461 C 0.32487 0.22817 0.64734 0.0
C462 C 0.2627 0.19283 0.6803 0.0
H463 H 0.23674 0.22515 0.66264 0.0
O464 O 0.36327 0.17857 0.63033 0.0
O465 O 0.44715 0.21849 0.66653 0.0
O466 O 0.4637 0.28934 0.68261 0.0
O467 O 0.39476 0.25585 0.67147 0.0
O468 O 0.42055 0.22903 0.63776 0.0
O469 O 0.35323 0.12858 0.65277 0.0
O470 O 0.49438 0.26706 0.73623 0.0
O471 O 0.40976 0.21916 0.70121 0.0
O472 O 0.40299 0.14593 0.678 0.0
O473 O 0.47093 0.18532 0.68991 0.0
O474 O 0.43495 0.2096 0.73057 0.0
O475 O 0.51126 0.3095 0.70717 0.0
C476 C 0.45442 0.23491 0.64658 0.0
C477 C 0.23082 0.17234 0.69646 0.0
C478 C 0.23133 0.1439 0.71191 0.0
C479 C 0.34931 0.13951 0.63167 0.0
C480 C 0.31065 0.11282 0.61922 0.0
C481 C 0.27404 0.10903 0.62742 0.0
C482 C 0.31025 0.09106 0.59892 0.0
C483 C 0.27328 0.06532 0.58699 0.0
C484 C 0.23756 0.0841 0.61564 0.0
C485 C 0.23709 0.06249 0.59567 0.0
C486 C 0.43028 0.28929 0.67581 0.0
C487 C 0.40149 0.20451 0.72166 0.0
C488 C 0.51688 0.30473 0.72926 0.0
C489 C 0.55952 0.32594 0.73755 0.0
C490 C 0.59191 0.33622 0.72188 0.0
C491 C 0.56798 0.33456 0.76149 0.0
C492 C 0.60832 0.35197 0.76988 0.0
C493 C 0.63152 0.35186 0.73009 0.0
C494 C 0.63969 0.35911 0.75393 0.0
C495 C 0.43912 0.15031 0.6837 0.0
H496 H 0.27367 0.12539 0.6429 0.0
H497 H 0.33849 0.09367 0.5927 0.0
H498 H 0.20943 0.08153 0.62202 0.0
H499 H 0.20827 0.04383 0.58683 0.0
H500 H 0.58692 0.33215 0.70329 0.0
H501 H 0.54317 0.32834 0.77335 0.0
H502 H 0.65603 0.35855 0.7179 0.0
H503 H 0.67078 0.37079 0.75977 0.0
H504 H 0.19268 0.69712 0.31404 0.0
H505 H 0.19153 0.64896 0.28505 0.0
H506 H 0.28079 0.7495 0.2436 0.0
H507 H 0.28285 0.7974 0.2729 0.0
H508 H 0.16475 0.6452 0.24252 0.0
H509 H 0.32984 0.73112 0.21058 0.0
H510 H 0.40039 0.76416 0.22565 0.0
H511 H 0.36016 0.68345 0.28486 0.0
H512 H 0.28911 0.65047 0.2703 0.0
H513 H 0.19364 0.64518 0.12063 0.0
H514 H 0.19116 0.6578 0.16255 0.0
H515 H 0.23398 0.57441 0.17881 0.0
H516 H 0.23666 0.56179 0.13686 0.0
H517 H 0.28028 0.65 0.1987 0.0
H518 H 0.14056 0.5479 0.19489 0.0
H519 H 0.07047 0.51169 0.17925 0.0
H520 H 0.05894 0.61724 0.19154 0.0
H521 H 0.12916 0.65431 0.20695 0.0
C522 C 0.21296 0.70876 0.29913 0.0
C523 C 0.23817 0.75087 0.29572 0.0
C524 C 0.2123 0.68125 0.28257 0.0
C525 C 0.23652 0.69552 0.2623 0.0
C526 C 0.26275 0.7376 0.2594 0.0
C527 C 0.26353 0.76501 0.27597 0.0
C528 C 0.22958 0.66779 0.24235 0.0
C529 C 0.1899 0.64561 0.23316 0.0
C530 C 0.26219 0.6679 0.23022 0.0
C531 C 0.30429 0.68872 0.23955 0.0
C532 C 0.33607 0.72065 0.2269 0.0
C533 C 0.37605 0.73941 0.23537 0.0
C534 C 0.38467 0.72605 0.25628 0.0
C535 C 0.35331 0.69396 0.26878 0.0
C536 C 0.31315 0.67549 0.26056 0.0
C537 C 0.2021 0.62927 0.13319 0.0
C538 C 0.21554 0.60273 0.12562 0.0
C539 C 0.20027 0.63613 0.15707 0.0
C540 C 0.21205 0.61671 0.17369 0.0
C541 C 0.22447 0.58937 0.1662 0.0
C542 C 0.22592 0.58218 0.14231 0.0
C543 C 0.21581 0.62879 0.19855 0.0
C544 C 0.25489 0.64835 0.20848 0.0
C545 C 0.18256 0.62606 0.21134 0.0
C546 C 0.14027 0.60396 0.202 0.0
C547 C 0.12321 0.56352 0.19409 0.0
C548 C 0.08342 0.5428 0.1853 0.0
C549 C 0.06029 0.56217 0.18437 0.0
C550 C 0.07689 0.60227 0.19227 0.0
C551 C 0.11667 0.62312 0.20108 0.0
H552 H 0.02949 0.54608 0.17756 0.0
H553 H 0.41567 0.74044 0.26276 0.0
H554 H 0.48427 0.28519 0.60947 0.0
H555 H 0.53284 0.28771 0.58018 0.0
H556 H 0.54621 0.19739 0.61888 0.0
H557 H 0.49725 0.19431 0.64793 0.0
H558 H 0.62375 0.27289 0.59364 0.0
H559 H 0.48872 0.15391 0.58272 0.0
H560 H 0.4142 0.12492 0.58475 0.0
H561 H 0.42126 0.20887 0.53188 0.0
H562 H 0.49597 0.23876 0.52986 0.0
H563 H 0.70382 0.24775 0.48409 0.0
H564 H 0.66842 0.23028 0.52195 0.0
H565 H 0.59185 0.27731 0.49798 0.0
H566 H 0.62524 0.29257 0.45995 0.0
H567 H 0.54774 0.20899 0.52027 0.0
H568 H 0.6785 0.33282 0.5336 0.0
H569 H 0.75366 0.37299 0.53473 0.0
H570 H 0.75604 0.28783 0.58342 0.0
H571 H 0.68085 0.24691 0.58235 0.0
C572 C 0.49824 0.26653 0.61191 0.0
C573 C 0.4875 0.23996 0.63104 0.0
C574 C 0.52613 0.26825 0.59539 0.0
C575 C 0.54314 0.24297 0.59763 0.0
C576 C 0.53382 0.21756 0.61718 0.0
C577 C 0.50574 0.21574 0.63369 0.0
C578 C 0.56476 0.23846 0.57748 0.0
C579 C 0.60738 0.25807 0.57769 0.0
C580 C 0.54301 0.21931 0.55685 0.0
C581 C 0.49785 0.19857 0.55619 0.0
C582 C 0.4743 0.16598 0.57145 0.0
C583 C 0.43206 0.14951 0.57265 0.0
C584 C 0.41304 0.1652 0.55853 0.0
C585 C 0.43608 0.19681 0.54283 0.0
C586 C 0.47835 0.21346 0.54161 0.0
C587 C 0.67906 0.25383 0.48682 0.0
C588 C 0.66756 0.2719 0.46909 0.0
C589 C 0.65914 0.24416 0.50852 0.0
C590 C 0.6278 0.25286 0.51284 0.0
C591 C 0.61597 0.27031 0.49503 0.0
C592 C 0.63547 0.27954 0.47337 0.0
C593 C 0.60731 0.24485 0.5359 0.0
C594 C 0.56451 0.22262 0.5363 0.0
C595 C 0.62908 0.26193 0.55698 0.0
C596 C 0.67417 0.28656 0.55765 0.0
C597 C 0.69509 0.32253 0.5444 0.0
C598 C 0.73768 0.34545 0.54506 0.0
C599 C 0.75962 0.33289 0.55907 0.0
C600 C 0.73901 0.29746 0.57252 0.0
C601 C 0.69643 0.2744 0.57191 0.0
H602 H 0.79259 0.35068 0.55956 0.0
H603 H 0.38051 0.15312 0.55984 0.0
H604 H 0.19032 0.48137 0.93931 0.0
H605 H 0.23464 0.52591 0.90821 0.0
H606 H 0.34023 0.53963 0.9452 0.0
H607 H 0.29608 0.49636 0.97668 0.0
H608 H 0.3591 0.60828 0.92012 0.0
H609 H 0.29889 0.46711 0.90636 0.0
H610 H 0.24405 0.39531 0.90507 0.0
H611 H 0.18129 0.42432 0.85264 0.0
H612 H 0.23542 0.49656 0.85392 0.0
H613 H 0.4419 0.61793 0.79804 0.0
H614 H 0.42346 0.59925 0.83926 0.0
H615 H 0.32393 0.62299 0.83214 0.0
H616 H 0.34272 0.64294 0.79131 0.0
H617 H 0.31375 0.53441 0.84428 0.0
H618 H 0.381 0.68176 0.86293 0.0
H619 H 0.44249 0.74984 0.86492 0.0
H620 H 0.5016 0.70235 0.90838 0.0
H621 H 0.44065 0.63382 0.90632 0.0
C622 C 0.22307 0.49491 0.94105 0.0
C623 C 0.23988 0.48559 0.96028 0.0
C624 C 0.24832 0.52025 0.92337 0.0
C625 C 0.29054 0.53518 0.92424 0.0
C626 C 0.30772 0.52833 0.94424 0.0
C627 C 0.28244 0.50355 0.9622 0.0
C628 C 0.31524 0.55275 0.90291 0.0
C629 C 0.34947 0.59206 0.90356 0.0
C630 C 0.30353 0.53089 0.88151 0.0
C631 C 0.27111 0.48733 0.88035 0.0
C632 C 0.27328 0.45824 0.89465 0.0
C633 C 0.24233 0.41745 0.89392 0.0
C634 C 0.20919 0.40524 0.87881 0.0
C635 C 0.20698 0.43382 0.86435 0.0
C636 C 0.23781 0.47471 0.86505 0.0
C637 C 0.41685 0.62035 0.80546 0.0
C638 C 0.39329 0.63127 0.79138 0.0
C639 C 0.40647 0.60972 0.82895 0.0
C640 C 0.37258 0.61005 0.83854 0.0
C641 C 0.35038 0.62291 0.82492 0.0
C642 C 0.36085 0.63379 0.80158 0.0
C643 C 0.35583 0.59074 0.86127 0.0
C644 C 0.32343 0.55056 0.86087 0.0
C645 C 0.37019 0.61133 0.88284 0.0
C646 C 0.40651 0.65259 0.88419 0.0
C647 C 0.40728 0.68573 0.87267 0.0
C648 C 0.44199 0.72443 0.87387 0.0
C649 C 0.476 0.73039 0.88669 0.0
C650 C 0.47529 0.69768 0.89842 0.0
C651 C 0.44066 0.65893 0.89725 0.0
H652 H 0.50285 0.76037 0.8876 0.0
H653 H 0.18527 0.37362 0.87828 0.0
H654 H 0.7332 0.21804 0.27775 0.0
H655 H 0.74169 0.26707 0.24727 0.0
H656 H 0.84617 0.36131 0.28392 0.0
H657 H 0.8381 0.31209 0.31419 0.0
H658 H 0.74204 0.33913 0.24705 0.0
H659 H 0.91051 0.41362 0.24956 0.0
H660 H 0.96706 0.40062 0.25793 0.0
H661 H 0.89657 0.27963 0.22993 0.0
H662 H 0.83943 0.29174 0.22197 0.0
H663 H 0.78184 0.45565 0.1428 0.0
H664 H 0.79244 0.44408 0.18379 0.0
H665 H 0.81934 0.35098 0.16196 0.0
H666 H 0.81083 0.36375 0.12109 0.0
H667 H 0.86609 0.3914 0.19753 0.0
H668 H 0.72148 0.32929 0.1778 0.0
H669 H 0.66009 0.33092 0.16497 0.0
H670 H 0.67473 0.41136 0.22193 0.0
H671 H 0.73651 0.41053 0.23492 0.0
C672 C 0.7576 0.24937 0.27939 0.0
C673 C 0.78468 0.26151 0.29836 0.0
C674 C 0.76236 0.27734 0.2621 0.0
C675 C 0.79465 0.31772 0.26334 0.0
C676 C 0.82127 0.3302 0.28257 0.0
C677 C 0.81648 0.30216 0.2999 0.0
C678 C 0.80156 0.34544 0.24352 0.0
C679 C 0.76951 0.35145 0.23645 0.0
C680 C 0.83728 0.36126 0.22973 0.0
C681 C 0.87082 0.35345 0.23538 0.0
C682 C 0.90711 0.38419 0.24538 0.0
C683 C 0.93916 0.37693 0.25013 0.0
C684 C 0.93532 0.3392 0.24463 0.0
C685 C 0.89936 0.30863 0.23446 0.0
C686 C 0.86709 0.31561 0.22993 0.0
C687 C 0.79097 0.43341 0.14673 0.0
C688 C 0.79489 0.41011 0.12877 0.0
C689 C 0.79678 0.4267 0.17015 0.0
C690 C 0.80611 0.3963 0.17592 0.0
C691 C 0.81211 0.37459 0.15792 0.0
C692 C 0.80666 0.38149 0.13458 0.0
C693 C 0.8059 0.38386 0.20052 0.0
C694 C 0.83931 0.38086 0.20858 0.0
C695 C 0.7709 0.36982 0.21491 0.0
C696 C 0.73385 0.37032 0.20711 0.0
C697 C 0.71174 0.34755 0.18747 0.0
C698 C 0.67688 0.34829 0.18019 0.0
C699 C 0.66361 0.37136 0.19257 0.0
C700 C 0.68512 0.39362 0.21231 0.0
C701 C 0.72005 0.39303 0.21963 0.0
H702 H 0.6366 0.37188 0.18692 0.0
H703 H 0.96025 0.33373 0.24815 0.0
H704 H 0.49705 0.79406 0.64385 0.0
H705 H 0.44656 0.7849 0.61431 0.0
H706 H 0.47774 0.70744 0.57448 0.0
H707 H 0.52715 0.71539 0.60449 0.0
H708 H 0.47079 0.8133 0.5717 0.0
H709 H 0.4164 0.65243 0.54124 0.0
H710 H 0.38874 0.58245 0.55639 0.0
H711 H 0.33099 0.60892 0.6131 0.0
H712 H 0.35927 0.6795 0.59853 0.0
H713 H 0.44086 0.7859 0.44998 0.0
H714 H 0.45771 0.78449 0.49124 0.0
H715 H 0.33077 0.73218 0.50981 0.0
H716 H 0.31367 0.73351 0.46836 0.0
H717 H 0.36978 0.69046 0.52829 0.0
H718 H 0.39025 0.82597 0.52493 0.0
H719 H 0.41728 0.89473 0.50822 0.0
H720 H 0.53975 0.91877 0.51826 0.0
H721 H 0.51347 0.84997 0.53472 0.0
C722 C 0.49195 0.77378 0.62932 0.0
C723 C 0.51544 0.75481 0.62662 0.0
C724 C 0.46314 0.76863 0.61239 0.0
C725 C 0.45786 0.74498 0.59233 0.0
C726 C 0.48028 0.7248 0.59011 0.0
C727 C 0.50889 0.72976 0.6071 0.0
C728 C 0.43534 0.74764 0.57184 0.0
C729 C 0.44811 0.78644 0.56245 0.0
C730 C 0.40588 0.71273 0.5597 0.0
C731 C 0.39023 0.67114 0.56901 0.0
C732 C 0.39802 0.64333 0.55704 0.0
C733 C 0.38239 0.60369 0.56555 0.0
C734 C 0.35835 0.59137 0.58579 0.0
C735 C 0.34994 0.61869 0.59756 0.0
C736 C 0.36608 0.6586 0.58932 0.0
C737 C 0.4166 0.7742 0.46289 0.0
C738 C 0.37599 0.75965 0.4561 0.0
C739 C 0.42625 0.77367 0.4864 0.0
C740 C 0.39546 0.75848 0.50347 0.0
C741 C 0.35487 0.74415 0.49681 0.0
C742 C 0.34522 0.74507 0.47325 0.0
C743 C 0.40592 0.75598 0.52808 0.0
C744 C 0.39135 0.71732 0.538 0.0
C745 C 0.4339 0.79108 0.54065 0.0
C746 C 0.44984 0.8327 0.53098 0.0
C747 C 0.42294 0.84583 0.52345 0.0
C748 C 0.43813 0.88483 0.51404 0.0
C749 C 0.4802 0.91108 0.51216 0.0
C750 C 0.50717 0.89842 0.51974 0.0
C751 C 0.49213 0.85944 0.52915 0.0
H752 H 0.4919 0.94126 0.50486 0.0
H753 H 0.34608 0.56062 0.5923 0.0
H754 H 0.80664 0.52447 0.94403 0.0
H755 H 0.76399 0.47484 0.91424 0.0
H756 H 0.65586 0.45202 0.952 0.0
H757 H 0.69833 0.50209 0.98162 0.0
H758 H 0.66488 0.37983 0.92118 0.0
H759 H 0.6663 0.51267 0.92067 0.0
H760 H 0.70791 0.58709 0.9263 0.0
H761 H 0.79047 0.59379 0.87248 0.0
H762 H 0.74986 0.51932 0.86695 0.0
H763 H 0.56196 0.31569 0.80954 0.0
H764 H 0.57846 0.33955 0.85005 0.0
H765 H 0.69505 0.43827 0.82729 0.0
H766 H 0.67723 0.4176 0.78699 0.0
H767 H 0.66659 0.46699 0.85573 0.0
H768 H 0.67769 0.34473 0.85539 0.0
H769 H 0.65218 0.27118 0.85056 0.0
H770 H 0.56137 0.24424 0.90347 0.0
H771 H 0.58607 0.31766 0.90841 0.0
C772 C 0.77381 0.50795 0.94627 0.0
C773 C 0.75568 0.5168 0.96507 0.0
C774 C 0.74959 0.47937 0.92949 0.0
C775 C 0.70698 0.4598 0.93114 0.0
C776 C 0.68875 0.46646 0.95074 0.0
C777 C 0.71302 0.49523 0.96754 0.0
C778 C 0.68275 0.44066 0.90999 0.0
C779 C 0.66422 0.39846 0.90693 0.0
C780 C 0.683 0.46544 0.89148 0.0
C781 C 0.70518 0.5105 0.89348 0.0
C782 C 0.69331 0.53006 0.91005 0.0
C783 C 0.71677 0.57222 0.91325 0.0
C784 C 0.75188 0.5951 0.89979 0.0
C785 C 0.7633 0.576 0.88291 0.0
C786 C 0.74007 0.53386 0.87971 0.0
C787 C 0.59084 0.34286 0.81312 0.0
C788 C 0.61833 0.36449 0.79484 0.0
C789 C 0.60047 0.3561 0.83637 0.0
C790 C 0.63818 0.3905 0.84181 0.0
C791 C 0.66567 0.4117 0.82362 0.0
C792 C 0.65567 0.39929 0.80047 0.0
C793 C 0.6496 0.40572 0.86617 0.0
C794 C 0.66575 0.44762 0.86998 0.0
C795 C 0.64819 0.38063 0.88502 0.0
C796 C 0.63334 0.33658 0.88202 0.0
C797 C 0.65207 0.32308 0.86585 0.0
C798 C 0.6378 0.28144 0.86312 0.0
C799 C 0.60507 0.25305 0.87664 0.0
C800 C 0.58663 0.26626 0.89297 0.0
C801 C 0.60075 0.30787 0.89574 0.0
H802 H 0.59408 0.22082 0.87451 0.0
H803 H 0.77036 0.62761 0.90245 0.0
H804 H 0.35126 0.51857 0.01219 0.0
H805 H 0.42187 0.53639 0.01125 0.0
H806 H 0.38632 0.40914 0.01341 0.0
H807 H 0.31398 0.39067 0.01551 0.0
H808 H 0.44938 0.45477 0.04309 0.0
H809 H 0.4205 0.46459 0.96251 0.0
H810 H 0.39259 0.48637 0.93016 0.0
H811 H 0.47713 0.61173 0.94609 0.0
H812 H 0.50509 0.59075 0.97884 0.0
H813 H 0.64273 0.48634 0.01493 0.0
H814 H 0.57161 0.4673 0.01342 0.0
H815 H 0.60509 0.59402 0.01383 0.0
H816 H 0.67782 0.61379 0.01559 0.0
H817 H 0.54285 0.54794 0.98193 0.0
H818 H 0.56915 0.53934 0.06307 0.0
H819 H 0.59265 0.51911 0.09819 0.0
H820 H 0.5113 0.39298 0.08228 0.0
H821 H 0.4877 0.41241 0.04686 0.0
C822 C 0.35795 0.49404 0.01284 0.0
C823 C 0.32658 0.45304 0.01436 0.0
C824 C 0.39871 0.50445 0.01189 0.0
C825 C 0.40959 0.47421 0.01184 0.0
C826 C 0.37858 0.43304 0.01329 0.0
C827 C 0.3373 0.42249 0.01442 0.0
C828 C 0.45355 0.48637 0.01099 0.0
C829 C 0.46965 0.47438 0.02943 0.0
C830 C 0.4803 0.51332 0.99362 0.0
C831 C 0.46477 0.52606 0.97326 0.0
C832 C 0.43309 0.49682 0.95918 0.0
C833 C 0.41722 0.50902 0.94077 0.0
C834 C 0.43302 0.5504 0.9361 0.0
C835 C 0.46491 0.57968 0.94974 0.0
C836 C 0.48083 0.56764 0.96821 0.0
C837 C 0.63542 0.51049 0.01506 0.0
C838 C 0.66631 0.55176 0.016 0.0
C839 C 0.59442 0.49937 0.01405 0.0
C840 C 0.58281 0.5291 0.01397 0.0
C841 C 0.61337 0.5705 0.01406 0.0
C842 C 0.65488 0.58179 0.0151 0.0
C843 C 0.53861 0.51614 0.01403 0.0
C844 C 0.5225 0.52804 0.99546 0.0
C845 C 0.51175 0.48918 0.03133 0.0
C846 C 0.52685 0.47735 0.05221 0.0
C847 C 0.55656 0.50728 0.06691 0.0
C848 C 0.56977 0.49596 0.08694 0.0
C849 C 0.55331 0.4548 0.09252 0.0
C850 C 0.52386 0.42485 0.07799 0.0
C851 C 0.51057 0.436 0.05794 0.0
H852 H 0.56352 0.44609 0.10805 0.0
H853 H 0.42057 0.55977 0.92191 0.0
H854 H 0.11125 0.67638 0.30968 0.0
H855 H 0.06605 0.60245 0.3059 0.0
H856 H 0.06398 0.5907 0.38128 0.0
H857 H 0.10981 0.6642 0.38486 0.0
H858 H 0.08335 0.54045 0.3625 0.0
H859 H 0.97869 0.57508 0.3463 0.0
H860 H 0.94778 0.60944 0.32491 0.0
H861 H 0.95108 0.55124 0.26096 0.0
H862 H 0.98249 0.51691 0.28192 0.0
H863 H 0.92068 0.34283 0.38507 0.0
H864 H 0.96987 0.41526 0.3807 0.0
H865 H 0.96523 0.40107 0.30546 0.0
H866 H 0.91525 0.3281 0.30993 0.0
H867 H 0.95362 0.46351 0.31854 0.0
H868 H 0.05173 0.42388 0.33517 0.0
H869 H 0.08255 0.38911 0.35616 0.0
H870 H 0.09243 0.45691 0.41859 0.0
H871 H 0.06106 0.49164 0.3981 0.0
C872 C 0.09975 0.65805 0.32541 0.0
C873 C 0.11349 0.67584 0.34758 0.0
C874 C 0.07414 0.61575 0.32326 0.0
C875 C 0.06146 0.59072 0.34331 0.0
C876 C 0.07342 0.60912 0.36552 0.0
C877 C 0.09933 0.65116 0.36761 0.0
C878 C 0.03877 0.54532 0.3414 0.0
C879 C 0.05469 0.5237 0.35311 0.0
C880 C 1.0024 0.52326 0.32821 0.0
C881 C 0.98341 0.54382 0.31564 0.0
C882 C 0.97314 0.56988 0.32764 0.0
C883 C 0.95546 0.58929 0.3156 0.0
C884 C 0.94761 0.58264 0.29157 0.0
C885 C 0.95727 0.55643 0.27956 0.0
C886 C 0.97498 0.53697 0.29152 0.0
C887 C 0.93128 0.3549 0.36765 0.0
C888 C 0.91473 0.32984 0.34789 0.0
C889 C 0.95931 0.39637 0.36513 0.0
C890 C 0.9715 0.41377 0.34274 0.0
C891 C 0.95641 0.38834 0.32291 0.0
C892 C 0.92842 0.34658 0.32548 0.0
C893 C 0.99752 0.45884 0.34037 0.0
C894 C 0.98242 0.48037 0.32777 0.0
C895 C 0.03475 0.48094 0.35271 0.0
C896 C 0.05373 0.46016 0.36512 0.0
C897 C 0.06016 0.43116 0.35343 0.0
C898 C 0.07779 0.41148 0.36524 0.0
C899 C 0.08937 0.42074 0.38871 0.0
C900 C 0.08342 0.44975 0.40041 0.0
C901 C 0.06576 0.46948 0.3887 0.0
H902 H 0.10301 0.40547 0.39781 0.0
H903 H 0.93394 0.59771 0.28228 0.0
H904 H 0.51289 0.15579 0.67907 0.0
H905 H 0.52914 0.1022 0.67669 0.0
H906 H 0.40099 0.01232 0.67758 0.0
H907 H 0.38413 0.06715 0.68131 0.0
H908 H 0.44487 0.99198 0.70662 0.0
H909 H 0.45704 0.03328 0.62677 0.0
H910 H 0.47904 0.08384 0.5949 0.0
H911 H 0.60447 0.12601 0.61168 0.0
H912 H 0.58322 0.07598 0.64387 0.0
H913 H 0.48066 0.83358 0.67637 0.0
H914 H 0.46065 0.88481 0.67531 0.0
H915 H 0.58676 0.97942 0.67965 0.0
H916 H 0.60758 0.92728 0.68107 0.0
H917 H 0.5413 0.99545 0.64635 0.0
H918 H 0.52881 0.95734 0.72749 0.0
H919 H 0.50674 0.9122 0.76205 0.0
H920 H 0.38135 0.86586 0.74328 0.0
H921 H 0.40266 0.91042 0.70846 0.0
C922 C 0.48783 0.1248 0.67917 0.0
C923 C 0.44709 0.11595 0.68093 0.0
C924 C 0.49733 0.094 0.67734 0.0
C925 C 0.46639 0.05318 0.67653 0.0
C926 C 0.42542 0.04375 0.67803 0.0
C927 C 0.41578 0.075 0.68008 0.0
C928 C 0.47785 0.02101 0.67511 0.0
C929 C 0.46515 0.9921 0.69312 0.0
C930 C 0.50549 0.02211 0.65791 0.0
C931 C 0.5185 0.05095 0.63783 0.0
C932 C 0.48932 0.05337 0.6237 0.0
C933 C 0.50167 0.08198 0.60559 0.0
C934 C 0.54314 0.10823 0.60131 0.0
C935 C 0.57235 0.10566 0.61502 0.0
C936 C 0.56017 0.0771 0.63316 0.0
C937 C 0.50448 0.86513 0.67745 0.0
C938 C 0.54588 0.87612 0.6794 0.0
C939 C 0.49279 0.89452 0.67671 0.0
C940 C 0.52204 0.93594 0.67784 0.0
C941 C 0.56362 0.94749 0.67894 0.0
C942 C 0.57549 0.91775 0.67978 0.0
C943 C 0.50836 0.96651 0.67796 0.0
C944 C 0.52067 0.99507 0.65969 0.0
C945 C 0.4802 0.96506 0.69489 0.0
C946 C 0.46735 0.93703 0.71528 0.0
C947 C 0.49654 0.93722 0.73059 0.0
C948 C 0.48416 0.9119 0.7503 0.0
C949 C 0.44266 0.88637 0.75492 0.0
C950 C 0.41346 0.88582 0.73974 0.0
C951 C 0.42568 0.9111 0.72002 0.0
H952 H 0.43314 0.86684 0.77021 0.0
H953 H 0.55262 0.13053 0.58736 0.0
H954 H 0.53772 0.66616 0.63164 0.0
H955 H 0.51444 0.59368 0.62659 0.0
H956 H 0.58109 0.59652 0.6886 0.0
H957 H 0.60545 0.66966 0.69316 0.0
H958 H 0.58001 0.54231 0.65781 0.0
H959 H 0.47931 0.56616 0.6935 0.0
H960 H 0.43549 0.59632 0.69754 0.0
H961 H 0.37975 0.54608 0.63101 0.0
H962 H 0.42323 0.51488 0.62675 0.0
H963 H 0.46629 0.35088 0.70651 0.0
H964 H 0.49077 0.4228 0.69932 0.0
H965 H 0.43191 0.39327 0.63169 0.0
H966 H 0.40715 0.32029 0.6389 0.0
H967 H 0.42872 0.45908 0.65914 0.0
H968 H 0.52586 0.42374 0.62955 0.0
H969 H 0.56622 0.38937 0.63237 0.0
H970 H 0.62803 0.46088 0.69307 0.0
H971 H 0.58765 0.49554 0.69069 0.0
C972 C 0.5488 0.65162 0.64356 0.0
C973 C 0.57388 0.67342 0.66253 0.0
C974 C 0.53504 0.61009 0.64088 0.0
C975 C 0.54521 0.58931 0.65751 0.0
C976 C 0.57278 0.6118 0.67554 0.0
C977 C 0.58697 0.65363 0.67806 0.0
C978 C 0.52393 0.54387 0.65746 0.0
C979 C 0.54698 0.52422 0.65806 0.0
C980 C 0.48072 0.51989 0.65754 0.0
C981 C 0.4547 0.53859 0.65972 0.0
C982 C 0.45786 0.56174 0.67967 0.0
C983 C 0.43301 0.57897 0.68201 0.0
C984 C 0.40489 0.57341 0.66449 0.0
C985 C 0.40154 0.55039 0.64457 0.0
C986 C 0.42616 0.53275 0.64222 0.0
C987 C 0.45773 0.35955 0.6903 0.0
C988 C 0.43503 0.33014 0.6732 0.0
C989 C 0.47188 0.40067 0.68619 0.0
C990 C 0.4639 0.41344 0.66479 0.0
C991 C 0.43857 0.38396 0.64828 0.0
C992 C 0.4242 0.34237 0.65245 0.0
C993 C 0.48481 0.45775 0.65952 0.0
C994 C 0.46172 0.47719 0.65812 0.0
C995 C 0.52796 0.4815 0.65906 0.0
C996 C 0.55363 0.46212 0.65998 0.0
C997 C 0.54802 0.4321 0.64353 0.0
C998 C 0.5709 0.41253 0.64506 0.0
C999 C 0.59965 0.42282 0.66294 0.0
C1000 C 0.60576 0.45294 0.67922 0.0
C1001 C 0.58297 0.47266 0.67774 0.0
H1002 H 0.61725 0.40754 0.66417 0.0
H1003 H 0.38557 0.58671 0.66642 0.0
H1004 H 0.12118 0.46056 0.96539 0.0
H1005 H 0.07398 0.48678 0.96202 0.0
H1006 H 0.01967 0.4311 0.02831 0.0
H1007 H 0.06629 0.40388 0.03123 0.0
H1008 H 0.96297 0.42979 1.00092 0.0
H1009 H 0.09671 0.53106 0.02432 0.0
H1010 H 0.17124 0.57451 0.02234 0.0
H1011 H 0.16088 0.6258 0.95742 0.0
H1012 H 0.08596 0.58207 0.95881 0.0
H1013 H 0.89429 0.5576 0.04205 0.0
H1014 H 0.94196 0.53248 0.03717 0.0
H1015 H 0.95774 0.56787 0.96436 0.0
H1016 H 0.90922 0.59296 0.96924 0.0
H1017 H 0.03297 0.58015 0.9917 0.0
H1018 H 0.89678 0.47542 0.96952 0.0
H1019 H 0.82253 0.43557 0.97515 0.0
H1020 H 0.83944 0.39533 0.04246 0.0
H1021 H 0.91421 0.43485 0.03702 0.0
C1022 C 0.09783 0.45238 0.97865 0.0
C1023 C 0.0966 0.42946 0.99829 0.0
C1024 C 0.07135 0.46796 0.97695 0.0
C1025 C 0.04384 0.46183 0.99519 0.0
C1026 C 0.04062 0.43639 0.01402 0.0
C1027 C 0.06693 0.42044 0.0156 0.0
C1028 C 0.02088 0.48441 0.99553 0.0
C1029 C 0.97848 0.46264 0.99898 0.0
C1030 C 0.04073 0.52742 0.99282 0.0
C1031 C 0.08576 0.55296 0.99154 0.0
C1032 C 0.11031 0.55126 0.00948 0.0
C1033 C 0.15266 0.57602 0.0085 0.0
C1034 C 0.17088 0.60295 0.9898 0.0
C1035 C 0.14673 0.60493 0.97191 0.0
C1036 C 0.1043 0.58015 0.97278 0.0
C1037 C 0.90902 0.56133 0.02519 0.0
C1038 C 0.89845 0.57748 1.00606 0.0
C1039 C 0.93602 0.54672 0.02239 0.0
C1040 C 0.95296 0.5478 1.00035 0.0
C1041 C 0.94497 0.5668 0.98153 0.0
C1042 C 0.91763 0.58145 0.98435 0.0
C1043 C 0.97548 0.5254 0.99688 0.0
C1044 C 0.01766 0.54722 0.99313 0.0
C1045 C 0.95567 0.4826 0.99965 0.0
C1046 C 0.91093 0.4581 1.00288 0.0
C1047 C 0.88464 0.4581 0.98553 0.0
C1048 C 0.84245 0.43554 0.98869 0.0
C1049 C 0.82614 0.41294 0.0092 0.0
C1050 C 0.8521 0.41277 0.02656 0.0
C1051 C 0.8944 0.43508 0.02339 0.0
H1052 H 0.79342 0.39546 0.01159 0.0
H1053 H 0.20368 0.62241 0.98923 0.0
H1054 H 0.35528 0.85264 0.31738 0.0
H1055 H 0.42734 0.90397 0.31596 0.0
H1056 H 0.40054 0.99206 0.34657 0.0
H1057 H 0.32744 0.94029 0.34768 0.0
H1058 H 0.46121 0.02718 0.31381 0.0
H1059 H 0.43317 0.94068 0.3804 0.0
H1060 H 0.40707 0.87597 0.40196 0.0
H1061 H 0.48684 0.84798 0.3628 0.0
H1062 H 0.51289 0.91216 0.34065 0.0
H1063 H 0.6557 0.16132 0.35858 0.0
H1064 H 0.58417 0.11128 0.35449 0.0
H1065 H 0.6155 0.0268 0.32348 0.0
H1066 H 0.68835 0.07708 0.32797 0.0
H1067 H 0.55293 0.98951 0.35521 0.0
H1068 H 0.58235 0.07887 0.28946 0.0
H1069 H 0.61015 0.14586 0.27028 0.0
H1070 H 0.52818 0.17011 0.30996 0.0
H1071 H 0.50033 0.10352 0.32966 0.0
C1072 C 0.36455 0.88309 0.32352 0.0
C1073 C 0.33575 0.89231 0.33292 0.0
C1074 C 0.40587 0.91242 0.32278 0.0
C1075 C 0.41966 0.95163 0.33176 0.0
C1076 C 0.39069 0.96188 0.33972 0.0
C1077 C 0.34894 0.9324 0.34027 0.0
C1078 C 0.46437 0.98076 0.33385 0.0
C1079 C 0.48116 0.0191 0.32308 0.0
C1080 C 0.49071 0.97001 0.34558 0.0
C1081 C 0.47479 0.93115 0.35872 0.0
C1082 C 0.44489 0.92057 0.37621 0.0
C1083 C 0.43013 0.884 0.38857 0.0
C1084 C 0.44535 0.85796 0.38377 0.0
C1085 C 0.47513 0.86824 0.3665 0.0
C1086 C 0.4899 0.90471 0.35404 0.0
C1087 C 0.64788 0.13224 0.35083 0.0
C1088 C 0.67834 0.12367 0.34336 0.0
C1089 C 0.60658 0.10357 0.34842 0.0
C1090 C 0.59421 0.0655 0.33821 0.0
C1091 C 0.62428 0.05615 0.33123 0.0
C1092 C 0.66598 0.08499 0.33374 0.0
C1093 C 0.54981 0.03586 0.33509 0.0
C1094 C 0.53302 0.99744 0.34575 0.0
C1095 C 0.52347 0.04666 0.32343 0.0
C1096 C 0.53943 0.08628 0.31115 0.0
C1097 C 0.57038 0.09856 0.29417 0.0
C1098 C 0.58615 0.13647 0.28321 0.0
C1099 C 0.57099 0.16226 0.28893 0.0
C1100 C 0.53991 0.15011 0.30555 0.0
C1101 C 0.52408 0.11226 0.3166 0.0
H1102 H 0.5833 0.19163 0.28046 0.0
H1103 H 0.43427 0.82994 0.39354 0.0
H1104 H 0.37443 0.16442 0.7628 0.0
H1105 H 0.33634 0.17578 0.79352 0.0
H1106 H 0.3218 0.25874 0.74826 0.0
H1107 H 0.36081 0.24776 0.71745 0.0
H1108 H 0.34919 0.29323 0.79003 0.0
H1109 H 0.22608 0.16423 0.76989 0.0
H1110 H 0.18431 0.09071 0.76108 0.0
H1111 H 0.23401 0.06255 0.8211 0.0
H1112 H 0.27448 0.13573 0.83092 0.0
H1113 H 0.2274 0.31714 0.88041 0.0
H1114 H 0.25566 0.30693 0.84387 0.0
H1115 H 0.27287 0.21507 0.87796 0.0
H1116 H 0.2438 0.22442 0.91402 0.0
H1117 H 0.23868 0.18659 0.8385 0.0
H1118 H 0.35369 0.31522 0.86175 0.0
H1119 H 0.38887 0.3878 0.87295 0.0
H1120 H 0.35594 0.41808 0.80705 0.0
H1121 H 0.32009 0.34557 0.79558 0.0
C1122 C 0.3621 0.18419 0.75913 0.0
C1123 C 0.37032 0.20479 0.73757 0.0
C1124 C 0.34008 0.19061 0.77675 0.0
C1125 C 0.32561 0.21794 0.77338 0.0
C1126 C 0.33241 0.23741 0.75143 0.0
C1127 C 0.35442 0.23083 0.73369 0.0
C1128 C 0.30723 0.22882 0.79355 0.0
C1129 C 0.32444 0.26992 0.80035 0.0
C1130 C 0.27563 0.19878 0.80758 0.0
C1131 C 0.25362 0.15528 0.80092 0.0
C1132 C 0.22828 0.14232 0.78108 0.0
C1133 C 0.20455 0.10076 0.77606 0.0
C1134 C 0.20689 0.07206 0.79034 0.0
C1135 C 0.2324 0.08481 0.80996 0.0
C1136 C 0.25538 0.12625 0.81542 0.0
C1137 C 0.23782 0.29523 0.88015 0.0
C1138 C 0.23302 0.27137 0.90012 0.0
C1139 C 0.25406 0.2894 0.85922 0.0
C1140 C 0.2666 0.26011 0.85792 0.0
C1141 C 0.26318 0.23754 0.87821 0.0
C1142 C 0.24657 0.24298 0.89892 0.0
C1143 C 0.28114 0.25093 0.83538 0.0
C1144 C 0.2632 0.21009 0.82813 0.0
C1145 C 0.31213 0.28132 0.82109 0.0
C1146 C 0.3338 0.32491 0.82793 0.0
C1147 C 0.35367 0.33732 0.84973 0.0
C1148 C 0.37378 0.37845 0.85611 0.0
C1149 C 0.37452 0.40752 0.84075 0.0
C1150 C 0.35527 0.39552 0.81894 0.0
C1151 C 0.33507 0.35442 0.81249 0.0
H1152 H 0.39009 0.43935 0.84573 0.0
H1153 H 0.18875 0.03993 0.78628 0.0
H1154 H 0.9807 0.27578 0.24092 0.0
H1155 H 0.02191 0.30943 0.20605 0.0
H1156 H 0.96518 0.19427 0.16954 0.0
H1157 H 0.92476 0.16062 0.20435 0.0
H1158 H 0.04284 0.22926 0.16331 0.0
H1159 H 0.94497 0.27509 0.15816 0.0
H1160 H 0.90792 0.30799 0.174 0.0
H1161 H 0.02073 0.42082 0.18133 0.0
H1162 H 0.05856 0.38841 0.16593 0.0
H1163 H 0.10825 0.35984 0.04804 0.0
H1164 H 0.05937 0.32015 0.07918 0.0
H1165 H 0.15913 0.34301 0.12497 0.0
H1166 H 0.20775 0.38209 0.09396 0.0
H1167 H 0.05711 0.35296 0.1248 0.0
H1168 H 0.14406 0.28254 0.1508 0.0
H1169 H 0.17577 0.24186 0.13925 0.0
H1170 H 0.0764 0.17175 0.09211 0.0
H1171 H 0.04511 0.21328 0.1027 0.0
C1172 C 0.97666 0.25777 0.22535 0.0
C1173 C 0.94964 0.21539 0.22556 0.0
C1174 C 1.00024 0.27707 0.20534 0.0
C1175 C 0.99678 0.25455 0.18493 0.0
C1176 C 0.96885 0.21245 0.18499 0.0
C1177 C 0.9457 0.19317 0.20498 0.0
C1178 C 0.02345 0.27389 0.1639 0.0
C1179 C 0.04561 0.25623 0.15494 0.0
C1180 C 0.02756 0.30923 0.15275 0.0
C1181 C 0.00465 0.3292 0.16104 0.0
C1182 C 0.9619 0.30689 0.1632 0.0
C1183 C 0.94076 0.32544 0.17213 0.0
C1184 C 0.96196 0.36643 0.17872 0.0
C1185 C 0.00434 0.38905 0.17624 0.0
C1186 C 0.02565 0.37061 0.1674 0.0
C1187 C 0.11966 0.35529 0.0645 0.0
C1188 C 0.16193 0.37367 0.06842 0.0
C1189 C 0.09169 0.33289 0.08239 0.0
C1190 C 0.10539 0.32815 0.10449 0.0
C1191 C 0.14755 0.34533 0.10804 0.0
C1192 C 0.1754 0.36782 0.09028 0.0
C1193 C 0.07626 0.30815 0.12443 0.0
C1194 C 0.05387 0.32583 0.1332 0.0
C1195 C 0.07178 0.27285 0.13557 0.0
C1196 C 0.09284 0.25143 0.12713 0.0
C1197 C 0.12956 0.25905 0.13757 0.0
C1198 C 0.14738 0.23583 0.13123 0.0
C1199 C 0.12816 0.20432 0.1149 0.0
C1200 C 0.09134 0.19631 0.10466 0.0
C1201 C 0.07385 0.22002 0.11058 0.0
H1202 H 0.14178 0.1861 0.11017 0.0
H1203 H 0.94555 0.38067 0.18573 0.0
H1204 H 0.79179 0.02177 0.57852 0.0
H1205 H 0.80023 0.06016 0.54274 0.0
H1206 H 0.68951 0.95997 0.51486 0.0
H1207 H 0.68174 0.9204 0.55051 0.0
H1208 H 0.7451 0.98842 0.48164 0.0
H1209 H 0.69473 0.05027 0.53367 0.0
H1210 H 0.68923 0.0828 0.56989 0.0
H1211 H 0.81091 0.18261 0.55967 0.0
H1212 H 0.81737 0.15041 0.52355 0.0
H1213 H 0.75498 0.12117 0.38612 0.0
H1214 H 0.73706 0.07154 0.41786 0.0
H1215 H 0.84116 0.15955 0.45752 0.0
H1216 H 0.85761 0.20961 0.42638 0.0
H1217 H 0.77823 0.13248 0.48379 0.0
H1218 H 0.82973 0.04856 0.44013 0.0
H1219 H 0.8311 0.00873 0.40616 0.0
H1220 H 0.70092 0.95144 0.39983 0.0
H1221 H 0.69868 0.98934 0.43455 0.0
C1222 C 0.76919 0.00763 0.5648 0.0
C1223 C 0.73618 0.96766 0.56751 0.0
C1224 C 0.77383 0.02996 0.54434 0.0
C1225 C 0.74533 0.01339 0.52599 0.0
C1226 C 0.71197 0.97366 0.52869 0.0
C1227 C 0.70733 0.95115 0.54923 0.0
C1228 C 0.75149 0.03728 0.50386 0.0
C1229 C 0.75176 0.01977 0.48216 0.0
C1230 C 0.76027 0.07829 0.50419 0.0
C1231 C 0.75664 0.09773 0.52598 0.0
C1232 C 0.72045 0.07899 0.53924 0.0
C1233 C 0.71713 0.09741 0.55974 0.0
C1234 C 0.74973 0.1347 0.5671 0.0
C1235 C 0.78569 0.1537 0.55396 0.0
C1236 C 0.78918 0.1354 0.53345 0.0
C1237 C 0.77473 0.12944 0.4013 0.0
C1238 C 0.80781 0.16935 0.40372 0.0
C1239 C 0.76453 0.10086 0.41953 0.0
C1240 C 0.78767 0.11137 0.44037 0.0
C1241 C 0.82242 0.15043 0.44187 0.0
C1242 C 0.83208 0.17907 0.42394 0.0
C1243 C 0.77377 0.08428 0.46167 0.0
C1244 C 0.77162 0.10116 0.48328 0.0
C1245 C 0.7626 0.0426 0.4612 0.0
C1246 C 0.76414 0.02219 0.43953 0.0
C1247 C 0.80151 0.0277 0.43132 0.0
C1248 C 0.80238 0.00522 0.41211 0.0
C1249 C 0.7662 0.978 0.40065 0.0
C1250 C 0.72895 0.9727 0.40862 0.0
C1251 C 0.72781 0.99433 0.4282 0.0
H1252 H 0.76701 0.96085 0.38567 0.0
H1253 H 0.74709 0.14892 0.58297 0.0
H1254 H 0.6355 0.74624 0.71628 0.0
H1255 H 0.67198 0.73476 0.74838 0.0
H1256 H 0.66375 0.82514 0.79021 0.0
H1257 H 0.6262 0.83564 0.75856 0.0
H1258 H 0.74236 0.82694 0.79278 0.0
H1259 H 0.59697 0.7361 0.80164 0.0
H1260 H 0.52912 0.68409 0.7875 0.0
H1261 H 0.57384 0.60175 0.77453 0.0
H1262 H 0.64219 0.65356 0.78851 0.0
H1263 H 0.76595 0.78936 0.91036 0.0
H1264 H 0.73813 0.79792 0.87364 0.0
H1265 H 0.73169 0.68882 0.84627 0.0
H1266 H 0.75987 0.68011 0.88321 0.0
H1267 H 0.66482 0.6935 0.83315 0.0
H1268 H 0.80872 0.78201 0.82962 0.0
H1269 H 0.87647 0.83478 0.84354 0.0
H1270 H 0.83598 0.92222 0.84537 0.0
H1271 H 0.76775 0.86979 0.83179 0.0
C1272 C 0.64245 0.76441 0.73208 0.0
C1273 C 0.62839 0.79221 0.73483 0.0
C1274 C 0.66305 0.75763 0.75048 0.0
C1275 C 0.67042 0.77892 0.77181 0.0
C1276 C 0.65853 0.8084 0.77396 0.0
C1277 C 0.63718 0.81447 0.75584 0.0
C1278 C 0.6875 0.76848 0.79258 0.0
C1279 C 0.72538 0.79785 0.80167 0.0
C1280 C 0.6658 0.73021 0.80394 0.0
C1281 C 0.62474 0.69882 0.79585 0.0
C1282 C 0.5924 0.70701 0.7956 0.0
C1283 C 0.55384 0.67756 0.78765 0.0
C1284 C 0.54718 0.63969 0.77999 0.0
C1285 C 0.57906 0.63114 0.78042 0.0
C1286 C 0.61771 0.66051 0.78839 0.0
C1287 C 0.75872 0.7671 0.89657 0.0
C1288 C 0.76585 0.73433 0.89976 0.0
C1289 C 0.74275 0.77207 0.87549 0.0
C1290 C 0.73359 0.7446 0.85682 0.0
C1291 C 0.73873 0.71067 0.86028 0.0
C1292 C 0.75473 0.70561 0.8815 0.0
C1293 C 0.71967 0.75225 0.8337 0.0
C1294 C 0.68227 0.7224 0.82415 0.0
C1295 C 0.74193 0.79012 0.82185 0.0
C1296 C 0.78301 0.82186 0.82986 0.0
C1297 C 0.81417 0.81241 0.83315 0.0
C1298 C 0.85267 0.84227 0.84095 0.0
C1299 C 0.8605 0.8818 0.84538 0.0
C1300 C 0.82986 0.89158 0.84195 0.0
C1301 C 0.79127 0.86181 0.83418 0.0
H1302 H 0.89034 0.90488 0.85142 0.0
H1303 H 0.51729 0.61694 0.77381 0.0
H1304 H 0.98999 0.7757 0.24311 0.0
H1305 H 0.95009 0.74309 0.20798 0.0
H1306 H 0.05313 0.74066 0.17756 0.0
H1307 H 0.09366 0.77404 0.2128 0.0
H1308 H 0.01821 0.76697 0.14577 0.0
H1309 H 0.97166 0.65313 0.19591 0.0
H1310 H 0.94558 0.61285 0.23219 0.0
H1311 H 0.83615 0.61992 0.22721 0.0
H1312 H 0.86182 0.66078 0.19107 0.0
H1313 H 0.88795 0.64048 0.05086 0.0
H1314 H 0.938 0.67489 0.08207 0.0
H1315 H 0.84434 0.67424 0.12554 0.0
H1316 H 0.79405 0.6379 0.0948 0.0
H1317 H 0.88019 0.64494 0.14963 0.0
H1318 H 0.946 0.78153 0.10727 0.0
H1319 H 0.97959 0.82644 0.07328 0.0
H1320 H 0.05294 0.77063 0.0628 0.0
H1321 H 0.02139 0.72706 0.09755 0.0
C1322 C 0.00428 0.76823 0.22899 0.0
C1323 C 0.04522 0.77776 0.23083 0.0
C1324 C 0.98124 0.74922 0.20891 0.0
C1325 C 0.99834 0.73906 0.19002 0.0
C1326 C 0.03911 0.7481 0.19184 0.0
C1327 C 0.06219 0.76692 0.21209 0.0
C1328 C 0.97372 0.72025 0.16827 0.0
C1329 C 0.98825 0.73991 0.1466 0.0
C1330 C 0.93452 0.68497 0.16911 0.0
C1331 C 0.91884 0.66035 0.19085 0.0
C1332 C 0.94217 0.6464 0.20264 0.0
C1333 C 0.92744 0.6234 0.22317 0.0
C1334 C 0.88928 0.61391 0.23203 0.0
C1335 C 0.86573 0.62733 0.22034 0.0
C1336 C 0.88034 0.65037 0.19981 0.0
C1337 C 0.87838 0.64897 0.06675 0.0
C1338 C 0.83702 0.63674 0.07027 0.0
C1339 C 0.90718 0.66883 0.08472 0.0
C1340 C 0.89542 0.67759 0.10645 0.0
C1341 C 0.85452 0.66775 0.10918 0.0
C1342 C 0.82573 0.64729 0.09147 0.0
C1343 C 0.92383 0.69274 0.12721 0.0
C1344 C 0.9101 0.67204 0.14875 0.0
C1345 C 0.96396 0.72664 0.1262 0.0
C1346 C 0.98093 0.75071 0.10462 0.0
C1347 C 0.96906 0.77869 0.09756 0.0
C1348 C 0.98796 0.8041 0.07832 0.0
C1349 C 0.0179 0.80095 0.06567 0.0
C1350 C 0.02957 0.77287 0.07251 0.0
C1351 C 0.01154 0.74815 0.09212 0.0
H1352 H 0.03223 0.82044 0.05067 0.0
H1353 H 0.87793 0.5961 0.24792 0.0
H1354 H 0.21587 0.98667 0.57593 0.0
H1355 H 0.20919 0.94904 0.53996 0.0
H1356 H 0.32008 0.05069 0.51337 0.0
H1357 H 0.32621 0.08914 0.54925 0.0
H1358 H 0.26363 0.02149 0.47957 0.0
H1359 H 0.31722 0.96256 0.53175 0.0
H1360 H 0.32302 0.93061 0.56809 0.0
H1361 H 0.2031 0.82833 0.55695 0.0
H1362 H 0.19634 0.85992 0.52069 0.0
H1363 H 0.26254 0.89362 0.38343 0.0
H1364 H 0.27703 0.94248 0.41532 0.0
H1365 H 0.17543 0.84984 0.45459 0.0
H1366 H 0.16275 0.80075 0.42343 0.0
H1367 H 0.23723 0.87961 0.48116 0.0
H1368 H 0.17987 0.95684 0.43741 0.0
H1369 H 0.17564 0.99493 0.40341 0.0
H1370 H 0.30625 0.06123 0.398 0.0
H1371 H 0.31121 0.02509 0.43279 0.0
C1372 C 0.23892 1.00122 0.56247 0.0
C1373 C 0.27158 0.04125 0.56562 0.0
C1374 C 0.23524 0.97939 0.54189 0.0
C1375 C 0.26427 0.99667 0.52383 0.0
C1376 C 0.29723 0.03648 0.52696 0.0
C1377 C 0.30096 0.05838 0.54765 0.0
C1378 C 0.25928 0.97333 0.50159 0.0
C1379 C 0.25843 0.99064 0.47994 0.0
C1380 C 0.25227 0.93294 0.50178 0.0
C1381 C 0.25616 0.91379 0.52359 0.0
C1382 C 0.29195 0.9334 0.53714 0.0
C1383 C 0.29544 0.91532 0.55771 0.0
C1384 C 0.26341 0.8775 0.56485 0.0
C1385 C 0.22787 0.85764 0.5514 0.0
C1386 C 0.22422 0.8756 0.53083 0.0
C1387 C 0.24249 0.8842 0.39853 0.0
C1388 C 0.21124 0.84338 0.40084 0.0
C1389 C 0.25074 0.91227 0.41686 0.0
C1390 C 0.22741 0.90027 0.43768 0.0
C1391 C 0.19431 0.86017 0.439 0.0
C1392 C 0.18671 0.83208 0.42102 0.0
C1393 C 0.23966 0.92702 0.45915 0.0
C1394 C 0.24234 0.91043 0.48074 0.0
C1395 C 0.24874 0.9681 0.45888 0.0
C1396 C 0.24585 0.9879 0.43731 0.0
C1397 C 0.20761 0.97935 0.42881 0.0
C1398 C 0.20511 1.00081 0.40957 0.0
C1399 C 0.24061 0.03003 0.39834 0.0
C1400 C 0.27877 0.03842 0.40661 0.0
C1401 C 0.28146 0.0178 0.42624 0.0
H1402 H 0.23855 0.04634 0.38331 0.0
H1403 H 0.26617 0.86355 0.58078 0.0
loop_
_geom_bond_atom_site_label_1
_geom_bond_atom_site_label_2
_geom_bond_distance
_geom_bond_site_symmetry_2
_ccdc_geom_bond_type
Gd0 N31 2.661 1_556 S
Gd0 N37 2.601 . S
Gd0 O44 2.545 . S
Gd0 O45 2.606 . S
Gd0 O47 2.429 . S
Gd0 O48 2.545 . S
Gd0 O49 2.412 . S
Gd0 O51 2.362 1_556 S
Gd0 O52 2.324 1_556 S
Gd0 C59 2.828 . S
Gd1 N10 2.661 . S
Gd1 N14 2.601 . S
Gd1 O45 2.362 1_554 S
Gd1 O46 2.324 . S
Gd1 O50 2.545 . S
Gd1 O51 2.606 . S
Gd1 O53 2.429 . S
Gd1 O54 2.545 . S
Gd1 O55 2.412 . S
Gd1 C68 2.828 . S
C2 C5 1.407 1_556 S
C2 C7 1.431 . S
C2 C8 1.412 . S
C3 C6 1.445 . S
C3 C7 1.309 1_554 S
C3 H22 0.928 . S
C4 C5 1.436 . S
C4 C6 1.413 . S
C4 N14 1.359 . S
C5 C2 1.407 1_554 S
C5 C4 1.436 . S
C5 N10 1.351 . S
C6 C3 1.445 . S
C6 C4 1.413 . S
C6 C16 1.391 . S
C7 C2 1.431 . S
C7 C3 1.309 1_556 S
C7 H18 0.930 . S
C8 C2 1.412 . S
C8 C9 1.355 . S
C8 H20 0.930 . S
C9 C8 1.355 . S
C9 C11 1.402 . S
C9 H21 0.930 . S
N10 Gd1 2.661 . S
N10 C5 1.351 . S
N10 C11 1.307 1_554 S
C11 C9 1.402 . S
C11 N10 1.307 1_556 S
C11 H12 0.930 . S
H12 C11 0.930 . S
C13 N14 1.334 . S
C13 C15 1.394 . S
C13 H17 0.930 . S
N14 Gd1 2.601 . S
N14 C4 1.359 . S
N14 C13 1.334 . S
C15 C13 1.394 . S
C15 C16 1.359 . S
C15 H27 0.930 . S
C16 C6 1.391 . S
C16 C15 1.359 . S
C16 H28 0.929 . S
H17 C13 0.930 . S
H18 C7 0.930 . S
H19 C36 0.930 . S
H20 C8 0.930 . S
H21 C9 0.930 . S
H22 C3 0.928 . S
H23 C41 0.930 . S
H24 C32 0.930 . S
H25 C33 0.930 . S
H26 C57 0.929 . S
H27 C15 0.930 . S
H28 C16 0.929 . S
H29 C58 0.930 . S
H30 C39 0.930 . S
N31 Gd0 2.661 1_554 S
N31 C35 1.350 . S
N31 C36 1.307 . S
C32 H24 0.930 . S
C32 C33 1.355 . S
C32 C34 1.412 . S
C33 H25 0.930 . S
C33 C32 1.355 . S
C33 C36 1.402 . S
C34 C32 1.412 . S
C34 C35 1.417 . S
C34 C58 1.431 . S
C35 N31 1.350 . S
C35 C34 1.417 . S
C35 C38 1.426 . S
C36 H19 0.930 . S
C36 N31 1.307 . S
C36 C33 1.402 . S
N37 Gd0 2.601 . S
N37 C38 1.359 1_556 S
N37 C41 1.334 . S
C38 C35 1.426 . S
C38 N37 1.359 1_554 S
C38 C42 1.413 . S
C39 H30 0.930 . S
C39 C40 1.359 . S
C39 C41 1.394 . S
C40 C39 1.359 . S
C40 C42 1.391 1_556 S
C40 H43 0.929 . S
C41 H23 0.930 . S
C41 N37 1.334 . S
C41 C39 1.394 . S
C42 C38 1.413 . S
C42 C40 1.391 1_554 S
C42 C57 1.437 . S
H43 C40 0.929 . S
O44 Gd0 2.545 . S
O44 C59 1.258 . S
O45 Gd0 2.606 . S
O45 Gd1 2.362 1_556 S
O45 C56 1.284 . S
O46 Gd1 2.324 . S
O46 C66 1.254 . S
O47 Gd0 2.429 . S
O47 C66 1.268 1_556 S
O48 Gd0 2.545 . S
O48 C56 1.250 . S
O49 Gd0 2.412 . S
O49 C59 1.252 . S
O50 Gd1 2.545 . S
O50 C68 1.258 . S
O51 Gd0 2.362 1_554 S
O51 Gd1 2.606 . S
O51 C67 1.284 . S
O52 Gd0 2.324 1_554 S
O52 C75 1.254 . S
O53 Gd1 2.429 . S
O53 C75 1.268 . S
O54 Gd1 2.545 . S
O54 C67 1.250 . S
O55 Gd1 2.412 . S
O55 C68 1.252 . S
C56 O45 1.284 . S
C56 O48 1.250 . S
C57 H26 0.929 . S
C57 C42 1.437 . S
C57 C58 1.317 . S
C58 H29 0.930 . S
C58 C34 1.431 . S
C58 C57 1.317 . S
C59 Gd0 2.828 . S
C59 O44 1.258 . S
C59 O49 1.252 . S
C59 C60 1.497 . S
C60 C59 1.497 . S
C60 C61 1.395 . S
C60 C62 1.380 . S
C61 C60 1.395 . S
C61 C64 1.398 . S
C61 H76 0.930 . S
C62 C60 1.380 . S
C62 C63 1.391 . S
C62 H77 0.930 . S
C63 C62 1.391 . S
C63 C65 1.387 . S
C64 C61 1.398 . S
C64 C65 1.380 . S
C64 H78 0.930 . S
C65 C63 1.387 . S
C65 C64 1.380 . S
C65 H79 0.930 . S
C66 O46 1.254 . S
C66 O47 1.268 1_554 S
C67 O51 1.284 . S
C67 O54 1.250 . S
C68 Gd1 2.828 . S
C68 O50 1.258 . S
C68 O55 1.252 . S
C68 C69 1.497 . S
C69 C68 1.497 . S
C69 C70 1.395 . S
C69 C71 1.380 . S
C70 C69 1.395 . S
C70 C73 1.398 . S
C70 H80 0.930 . S
C71 C69 1.380 . S
C71 C72 1.391 . S
C71 H81 0.930 . S
C72 C71 1.391 . S
C72 C74 1.387 . S
C73 C70 1.398 . S
C73 C74 1.380 . S
C73 H82 0.930 . S
C74 C72 1.387 . S
C74 C73 1.380 . S
C74 H83 0.930 . S
C75 O52 1.254 . S
C75 O53 1.268 . S
H76 C61 0.930 . S
H77 C62 0.930 . S
H78 C64 0.930 . S
H79 C65 0.930 . S
H80 C70 0.930 . S
H81 C71 0.930 . S
H82 C73 0.930 . S
H83 C74 0.930 . S
Gd84 N115 2.661 . S
Gd84 N121 2.601 . S
Gd84 O128 2.545 . S
Gd84 O129 2.606 . S
Gd84 O131 2.429 . S
Gd84 O132 2.545 . S
Gd84 O133 2.412 . S
Gd84 O135 2.362 . S
Gd84 O136 2.324 . S
Gd84 C143 2.828 . S
Gd85 N94 2.661 . S
Gd85 N98 2.601 . S
Gd85 O129 2.362 . S
Gd85 O130 2.324 . S
Gd85 O134 2.545 . S
Gd85 O135 2.606 . S
Gd85 O137 2.429 . S
Gd85 O138 2.545 . S
Gd85 O139 2.412 . S
Gd85 C152 2.828 . S
C86 C89 1.417 . S
C86 C91 1.431 . S
C86 C92 1.412 . S
C87 C90 1.437 . S
C87 C91 1.317 . S
C87 H106 0.929 . S
C88 C89 1.426 . S
C88 C90 1.413 . S
C88 N98 1.359 . S
C89 C86 1.417 . S
C89 C88 1.426 . S
C89 N94 1.350 . S
C90 C87 1.437 . S
C90 C88 1.413 . S
C90 C100 1.391 . S
C91 C86 1.431 . S
C91 C87 1.317 . S
C91 H102 0.930 . S
C92 C86 1.412 . S
C92 C93 1.355 . S
C92 H104 0.930 . S
C93 C92 1.355 . S
C93 C95 1.402 . S
C93 H105 0.930 . S
N94 Gd85 2.661 . S
N94 C89 1.350 . S
N94 C95 1.307 . S
C95 C93 1.402 . S
C95 N94 1.307 . S
C95 H96 0.930 . S
H96 C95 0.930 . S
C97 N98 1.334 . S
C97 C99 1.394 . S
C97 H101 0.930 . S
N98 Gd85 2.601 . S
N98 C88 1.359 . S
N98 C97 1.334 . S
C99 C97 1.394 . S
C99 C100 1.359 . S
C99 H111 0.930 . S
C100 C90 1.391 . S
C100 C99 1.359 . S
C100 H112 0.929 . S
H101 C97 0.930 . S
H102 C91 0.930 . S
H103 C120 0.930 . S
H104 C92 0.930 . S
H105 C93 0.930 . S
H106 C87 0.929 . S
H107 C125 0.930 . S
H108 C116 0.930 . S
H109 C117 0.930 . S
H110 C141 0.929 . S
H111 C99 0.930 . S
H112 C100 0.929 . S
H113 C142 0.930 . S
H114 C123 0.930 . S
N115 Gd84 2.661 . S
N115 C119 1.350 . S
N115 C120 1.307 . S
C116 H108 0.930 . S
C116 C117 1.355 . S
C116 C118 1.412 . S
C117 H109 0.930 . S
C117 C116 1.355 . S
C117 C120 1.402 . S
C118 C116 1.412 . S
C118 C119 1.417 . S
C118 C142 1.431 . S
C119 N115 1.350 . S
C119 C118 1.417 . S
C119 C122 1.426 . S
C120 H103 0.930 . S
C120 N115 1.307 . S
C120 C117 1.402 . S
N121 Gd84 2.601 . S
N121 C122 1.359 . S
N121 C125 1.334 . S
C122 C119 1.426 . S
C122 N121 1.359 . S
C122 C126 1.413 . S
C123 H114 0.930 . S
C123 C124 1.359 . S
C123 C125 1.394 . S
C124 C123 1.359 . S
C124 C126 1.391 . S
C124 H127 0.929 . S
C125 H107 0.930 . S
C125 N121 1.334 . S
C125 C123 1.394 . S
C126 C122 1.413 . S
C126 C124 1.391 . S
C126 C141 1.437 . S
H127 C124 0.929 . S
O128 Gd84 2.545 . S
O128 C143 1.258 . S
O129 Gd84 2.606 . S
O129 Gd85 2.362 . S
O129 C140 1.284 . S
O130 Gd85 2.324 . S
O130 C150 1.254 . S
O131 Gd84 2.429 . S
O131 C150 1.268 . S
O132 Gd84 2.545 . S
O132 C140 1.250 . S
O133 Gd84 2.412 . S
O133 C143 1.252 . S
O134 Gd85 2.545 . S
O134 C152 1.258 . S
O135 Gd84 2.362 . S
O135 Gd85 2.606 . S
O135 C151 1.284 . S
O136 Gd84 2.324 . S
O136 C159 1.254 . S
O137 Gd85 2.429 . S
O137 C159 1.268 . S
O138 Gd85 2.545 . S
O138 C151 1.250 . S
O139 Gd85 2.412 . S
O139 C152 1.252 . S
C140 O129 1.284 . S
C140 O132 1.250 . S
C141 H110 0.929 . S
C141 C126 1.437 . S
C141 C142 1.317 . S
C142 H113 0.930 . S
C142 C118 1.431 . S
C142 C141 1.317 . S
C143 Gd84 2.828 . S
C143 O128 1.258 . S
C143 O133 1.252 . S
C143 C144 1.497 . S
C144 C143 1.497 . S
C144 C145 1.395 . S
C144 C146 1.380 . S
C145 C144 1.395 . S
C145 C148 1.398 . S
C145 H160 0.930 . S
C146 C144 1.380 . S
C146 C147 1.391 . S
C146 H161 0.930 . S
C147 C146 1.391 . S
C147 C149 1.387 . S
C148 C145 1.398 . S
C148 C149 1.380 . S
C148 H162 0.930 . S
C149 C147 1.387 . S
C149 C148 1.380 . S
C149 H163 0.930 . S
C150 O130 1.254 . S
C150 O131 1.268 . S
C151 O135 1.284 . S
C151 O138 1.250 . S
C152 Gd85 2.828 . S
C152 O134 1.258 . S
C152 O139 1.252 . S
C152 C153 1.497 . S
C153 C152 1.497 . S
C153 C154 1.395 . S
C153 C155 1.380 . S
C154 C153 1.395 . S
C154 C157 1.398 . S
C154 H164 0.930 . S
C155 C153 1.380 . S
C155 C156 1.391 . S
C155 H165 0.930 . S
C156 C155 1.391 . S
C156 C158 1.387 . S
C157 C154 1.398 . S
C157 C158 1.380 . S
C157 H166 0.930 . S
C158 C156 1.387 . S
C158 C157 1.380 . S
C158 H167 0.930 . S
C159 O136 1.254 . S
C159 O137 1.268 . S
H160 C145 0.930 . S
H161 C146 0.930 . S
H162 C148 0.930 . S
H163 C149 0.930 . S
H164 C154 0.930 . S
H165 C155 0.930 . S
H166 C157 0.930 . S
H167 C158 0.930 . S
Gd168 N199 2.661 . S
Gd168 N205 2.601 . S
Gd168 O212 2.545 . S
Gd168 O213 2.606 . S
Gd168 O215 2.429 . S
Gd168 O216 2.545 . S
Gd168 O217 2.412 . S
Gd168 O219 2.362 . S
Gd168 O220 2.324 . S
Gd168 C227 2.828 . S
Gd169 N178 2.661 . S
Gd169 N182 2.601 . S
Gd169 O213 2.362 . S
Gd169 O214 2.324 . S
Gd169 O218 2.545 . S
Gd169 O219 2.606 . S
Gd169 O221 2.429 . S
Gd169 O222 2.545 . S
Gd169 O223 2.412 . S
Gd169 C236 2.828 . S
C170 C173 1.417 . S
C170 C175 1.431 . S
C170 C176 1.412 . S
C171 C174 1.437 . S
C171 C175 1.317 . S
C171 H190 0.929 . S
C172 C173 1.426 . S
C172 C174 1.413 . S
C172 N182 1.359 . S
C173 C170 1.417 . S
C173 C172 1.426 . S
C173 N178 1.350 . S
C174 C171 1.437 . S
C174 C172 1.413 . S
C174 C184 1.391 . S
C175 C170 1.431 . S
C175 C171 1.317 . S
C175 H186 0.930 . S
C176 C170 1.412 . S
C176 C177 1.355 . S
C176 H188 0.930 . S
C177 C176 1.355 . S
C177 C179 1.402 . S
C177 H189 0.930 . S
N178 Gd169 2.661 . S
N178 C173 1.350 . S
N178 C179 1.307 . S
C179 C177 1.402 . S
C179 N178 1.307 . S
C179 H180 0.930 . S
H180 C179 0.930 . S
C181 N182 1.334 . S
C181 C183 1.394 . S
C181 H185 0.930 . S
N182 Gd169 2.601 . S
N182 C172 1.359 . S
N182 C181 1.334 . S
C183 C181 1.394 . S
C183 C184 1.359 . S
C183 H195 0.930 . S
C184 C174 1.391 . S
C184 C183 1.359 . S
C184 H196 0.929 . S
H185 C181 0.930 . S
H186 C175 0.930 . S
H187 C204 0.930 . S
H188 C176 0.930 . S
H189 C177 0.930 . S
H190 C171 0.929 . S
H191 C209 0.930 . S
H192 C200 0.930 . S
H193 C201 0.930 . S
H194 C225 0.929 . S
H195 C183 0.930 . S
H196 C184 0.929 . S
H197 C226 0.930 . S
H198 C207 0.930 . S
N199 Gd168 2.661 . S
N199 C203 1.350 . S
N199 C204 1.307 . S
C200 H192 0.930 . S
C200 C201 1.355 . S
C200 C202 1.412 . S
C201 H193 0.930 . S
C201 C200 1.355 . S
C201 C204 1.402 . S
C202 C200 1.412 . S
C202 C203 1.417 . S
C202 C226 1.431 . S
C203 N199 1.350 . S
C203 C202 1.417 . S
C203 C206 1.426 . S
C204 H187 0.930 . S
C204 N199 1.307 . S
C204 C201 1.402 . S
N205 Gd168 2.601 . S
N205 C206 1.359 . S
N205 C209 1.334 . S
C206 C203 1.426 . S
C206 N205 1.359 . S
C206 C210 1.413 . S
C207 H198 0.930 . S
C207 C208 1.359 . S
C207 C209 1.394 . S
C208 C207 1.359 . S
C208 C210 1.391 . S
C208 H211 0.929 . S
C209 H191 0.930 . S
C209 N205 1.334 . S
C209 C207 1.394 . S
C210 C206 1.413 . S
C210 C208 1.391 . S
C210 C225 1.437 . S
H211 C208 0.929 . S
O212 Gd168 2.545 . S
O212 C227 1.258 . S
O213 Gd168 2.606 . S
O213 Gd169 2.362 . S
O213 C224 1.284 . S
O214 Gd169 2.324 . S
O214 C234 1.254 . S
O215 Gd168 2.429 . S
O215 C234 1.268 . S
O216 Gd168 2.545 . S
O216 C224 1.250 . S
O217 Gd168 2.412 . S
O217 C227 1.252 . S
O218 Gd169 2.545 . S
O218 C236 1.258 . S
O219 Gd168 2.362 . S
O219 Gd169 2.606 . S
O219 C235 1.284 . S
O220 Gd168 2.324 . S
O220 C243 1.254 . S
O221 Gd169 2.429 . S
O221 C243 1.268 . S
O222 Gd169 2.545 . S
O222 C235 1.250 . S
O223 Gd169 2.412 . S
O223 C236 1.252 . S
C224 O213 1.284 . S
C224 O216 1.250 . S
C225 H194 0.929 . S
C225 C210 1.437 . S
C225 C226 1.317 . S
C226 H197 0.930 . S
C226 C202 1.431 . S
C226 C225 1.317 . S
C227 Gd168 2.828 . S
C227 O212 1.258 . S
C227 O217 1.252 . S
C227 C228 1.497 . S
C228 C227 1.497 . S
C228 C229 1.395 . S
C228 C230 1.380 . S
C229 C228 1.395 . S
C229 C232 1.398 . S
C229 H244 0.930 . S
C230 C228 1.380 . S
C230 C231 1.391 . S
C230 H245 0.930 . S
C231 C230 1.391 . S
C231 C233 1.387 . S
C232 C229 1.398 . S
C232 C233 1.380 . S
C232 H246 0.930 . S
C233 C231 1.387 . S
C233 C232 1.380 . S
C233 H247 0.930 . S
C234 O214 1.254 . S
C234 O215 1.268 . S
C235 O219 1.284 . S
C235 O222 1.250 . S
C236 Gd169 2.828 . S
C236 O218 1.258 . S
C236 O223 1.252 . S
C236 C237 1.497 . S
C237 C236 1.497 . S
C237 C238 1.395 . S
C237 C239 1.380 . S
C238 C237 1.395 . S
C238 C241 1.398 . S
C238 H248 0.930 . S
C239 C237 1.380 . S
C239 C240 1.391 . S
C239 H249 0.930 . S
C240 C239 1.391 . S
C240 C242 1.387 . S
C241 C238 1.398 . S
C241 C242 1.380 . S
C241 H250 0.930 . S
C242 C240 1.387 . S
C242 C241 1.380 . S
C242 H251 0.930 . S
C243 O220 1.254 . S
C243 O221 1.268 . S
H244 C229 0.930 . S
H245 C230 0.930 . S
H246 C232 0.930 . S
H247 C233 0.930 . S
H248 C238 0.930 . S
H249 C239 0.930 . S
H250 C241 0.930 . S
H251 C242 0.930 . S
Gd252 N283 2.661 1_556 S
Gd252 N289 2.601 . S
Gd252 O296 2.545 . S
Gd252 O297 2.606 . S
Gd252 O299 2.429 . S
Gd252 O300 2.545 . S
Gd252 O301 2.412 . S
Gd252 O303 2.362 1_556 S
Gd252 O304 2.324 1_556 S
Gd252 C311 2.828 . S
Gd253 N262 2.661 . S
Gd253 N266 2.601 . S
Gd253 O297 2.362 1_554 S
Gd253 O298 2.324 . S
Gd253 O302 2.545 . S
Gd253 O303 2.606 . S
Gd253 O305 2.429 . S
Gd253 O306 2.545 . S
Gd253 O307 2.412 . S
Gd253 C320 2.828 . S
C254 C257 1.407 1_556 S
C254 C259 1.431 . S
C254 C260 1.412 . S
C255 C258 1.445 . S
C255 C259 1.309 1_554 S
C255 H274 0.928 . S
C256 C257 1.436 . S
C256 C258 1.413 . S
C256 N266 1.359 . S
C257 C254 1.407 1_554 S
C257 C256 1.436 . S
C257 N262 1.351 . S
C258 C255 1.445 . S
C258 C256 1.413 . S
C258 C268 1.391 . S
C259 C254 1.431 . S
C259 C255 1.309 1_556 S
C259 H270 0.930 . S
C260 C254 1.412 . S
C260 C261 1.355 . S
C260 H272 0.930 . S
C261 C260 1.355 . S
C261 C263 1.402 . S
C261 H273 0.930 . S
N262 Gd253 2.661 . S
N262 C257 1.351 . S
N262 C263 1.307 1_554 S
C263 C261 1.402 . S
C263 N262 1.307 1_556 S
C263 H264 0.930 . S
H264 C263 0.930 . S
C265 N266 1.334 . S
C265 C267 1.394 . S
C265 H269 0.930 . S
N266 Gd253 2.601 . S
N266 C256 1.359 . S
N266 C265 1.334 . S
C267 C265 1.394 . S
C267 C268 1.359 . S
C267 H279 0.930 . S
C268 C258 1.391 . S
C268 C267 1.359 . S
C268 H280 0.929 . S
H269 C265 0.930 . S
H270 C259 0.930 . S
H271 C288 0.930 . S
H272 C260 0.930 . S
H273 C261 0.930 . S
H274 C255 0.928 . S
H275 C293 0.930 . S
H276 C284 0.930 . S
H277 C285 0.930 . S
H278 C309 0.929 . S
H279 C267 0.930 . S
H280 C268 0.929 . S
H281 C310 0.930 . S
H282 C291 0.930 . S
N283 Gd252 2.661 1_554 S
N283 C287 1.350 . S
N283 C288 1.307 . S
C284 H276 0.930 . S
C284 C285 1.355 . S
C284 C286 1.412 . S
C285 H277 0.930 . S
C285 C284 1.355 . S
C285 C288 1.402 . S
C286 C284 1.412 . S
C286 C287 1.417 . S
C286 C310 1.431 . S
C287 N283 1.350 . S
C287 C286 1.417 . S
C287 C290 1.426 . S
C288 H271 0.930 . S
C288 N283 1.307 . S
C288 C285 1.402 . S
N289 Gd252 2.601 . S
N289 C290 1.359 1_556 S
N289 C293 1.334 . S
C290 C287 1.426 . S
C290 N289 1.359 1_554 S
C290 C294 1.413 . S
C291 H282 0.930 . S
C291 C292 1.359 . S
C291 C293 1.394 . S
C292 C291 1.359 . S
C292 C294 1.391 1_556 S
C292 H295 0.929 . S
C293 H275 0.930 . S
C293 N289 1.334 . S
C293 C291 1.394 . S
C294 C290 1.413 . S
C294 C292 1.391 1_554 S
C294 C309 1.437 . S
H295 C292 0.929 . S
O296 Gd252 2.545 . S
O296 C311 1.258 . S
O297 Gd252 2.606 . S
O297 Gd253 2.362 1_556 S
O297 C308 1.284 . S
O298 Gd253 2.324 . S
O298 C318 1.254 . S
O299 Gd252 2.429 . S
O299 C318 1.268 1_556 S
O300 Gd252 2.545 . S
O300 C308 1.250 . S
O301 Gd252 2.412 . S
O301 C311 1.252 . S
O302 Gd253 2.545 . S
O302 C320 1.258 . S
O303 Gd252 2.362 1_554 S
O303 Gd253 2.606 . S
O303 C319 1.284 . S
O304 Gd252 2.324 1_554 S
O304 C327 1.254 . S
O305 Gd253 2.429 . S
O305 C327 1.268 . S
O306 Gd253 2.545 . S
O306 C319 1.250 . S
O307 Gd253 2.412 . S
O307 C320 1.252 . S
C308 O297 1.284 . S
C308 O300 1.250 . S
C309 H278 0.929 . S
C309 C294 1.437 . S
C309 C310 1.317 . S
C310 H281 0.930 . S
C310 C286 1.431 . S
C310 C309 1.317 . S
C311 Gd252 2.828 . S
C311 O296 1.258 . S
C311 O301 1.252 . S
C311 C312 1.497 . S
C312 C311 1.497 . S
C312 C313 1.395 . S
C312 C314 1.380 . S
C313 C312 1.395 . S
C313 C316 1.398 . S
C313 H328 0.930 . S
C314 C312 1.380 . S
C314 C315 1.391 . S
C314 H329 0.930 . S
C315 C314 1.391 . S
C315 C317 1.387 . S
C316 C313 1.398 . S
C316 C317 1.380 . S
C316 H330 0.930 . S
C317 C315 1.387 . S
C317 C316 1.380 . S
C317 H331 0.930 . S
C318 O298 1.254 . S
C318 O299 1.268 1_554 S
C319 O303 1.284 . S
C319 O306 1.250 . S
C320 Gd253 2.828 . S
C320 O302 1.258 . S
C320 O307 1.252 . S
C320 C321 1.497 . S
C321 C320 1.497 . S
C321 C322 1.395 . S
C321 C323 1.380 . S
C322 C321 1.395 . S
C322 C325 1.398 . S
C322 H332 0.930 . S
C323 C321 1.380 . S
C323 C324 1.391 . S
C323 H333 0.930 . S
C324 C323 1.391 . S
C324 C326 1.387 . S
C325 C322 1.398 . S
C325 C326 1.380 . S
C325 H334 0.930 . S
C326 C324 1.387 . S
C326 C325 1.380 . S
C326 H335 0.930 . S
C327 O304 1.254 . S
C327 O305 1.268 . S
H328 C313 0.930 . S
H329 C314 0.930 . S
H330 C316 0.930 . S
H331 C317 0.930 . S
H332 C322 0.930 . S
H333 C323 0.930 . S
H334 C325 0.930 . S
H335 C326 0.930 . S
Gd336 N367 2.661 . S
Gd336 N373 2.601 . S
Gd336 O380 2.545 . S
Gd336 O381 2.606 . S
Gd336 O383 2.429 . S
Gd336 O384 2.545 . S
Gd336 O385 2.412 . S
Gd336 O387 2.362 . S
Gd336 O388 2.324 . S
Gd336 C395 2.828 . S
Gd337 N346 2.661 . S
Gd337 N350 2.601 . S
Gd337 O381 2.362 . S
Gd337 O382 2.324 . S
Gd337 O386 2.545 . S
Gd337 O387 2.606 . S
Gd337 O389 2.429 . S
Gd337 O390 2.545 . S
Gd337 O391 2.412 . S
Gd337 C404 2.828 . S
C338 C341 1.417 . S
C338 C343 1.431 . S
C338 C344 1.412 . S
C339 C342 1.437 . S
C339 C343 1.317 . S
C339 H358 0.929 . S
C340 C341 1.426 . S
C340 C342 1.413 . S
C340 N350 1.359 . S
C341 C338 1.417 . S
C341 C340 1.426 . S
C341 N346 1.350 . S
C342 C339 1.437 . S
C342 C340 1.413 . S
C342 C352 1.391 . S
C343 C338 1.431 . S
C343 C339 1.317 . S
C343 H354 0.930 . S
C344 C338 1.412 . S
C344 C345 1.355 . S
C344 H356 0.930 . S
C345 C344 1.355 . S
C345 C347 1.402 . S
C345 H357 0.930 . S
N346 Gd337 2.661 . S
N346 C341 1.350 . S
N346 C347 1.307 . S
C347 C345 1.402 . S
C347 N346 1.307 . S
C347 H348 0.930 . S
H348 C347 0.930 . S
C349 N350 1.334 . S
C349 C351 1.394 . S
C349 H353 0.930 . S
N350 Gd337 2.601 . S
N350 C340 1.359 . S
N350 C349 1.334 . S
C351 C349 1.394 . S
C351 C352 1.359 . S
C351 H363 0.930 . S
C352 C342 1.391 . S
C352 C351 1.359 . S
C352 H364 0.929 . S
H353 C349 0.930 . S
H354 C343 0.930 . S
H355 C372 0.930 . S
H356 C344 0.930 . S
H357 C345 0.930 . S
H358 C339 0.929 . S
H359 C377 0.930 . S
H360 C368 0.930 . S
H361 C369 0.930 . S
H362 C393 0.929 . S
H363 C351 0.930 . S
H364 C352 0.929 . S
H365 C394 0.930 . S
H366 C375 0.930 . S
N367 Gd336 2.661 . S
N367 C371 1.350 . S
N367 C372 1.307 . S
C368 H360 0.930 . S
C368 C369 1.355 . S
C368 C370 1.412 . S
C369 H361 0.930 . S
C369 C368 1.355 . S
C369 C372 1.402 . S
C370 C368 1.412 . S
C370 C371 1.417 . S
C370 C394 1.431 . S
C371 N367 1.350 . S
C371 C370 1.417 . S
C371 C374 1.426 . S
C372 H355 0.930 . S
C372 N367 1.307 . S
C372 C369 1.402 . S
N373 Gd336 2.601 . S
N373 C374 1.359 . S
N373 C377 1.334 . S
C374 C371 1.426 . S
C374 N373 1.359 . S
C374 C378 1.413 . S
C375 H366 0.930 . S
C375 C376 1.359 . S
C375 C377 1.394 . S
C376 C375 1.359 . S
C376 C378 1.391 . S
C376 H379 0.929 . S
C377 H359 0.930 . S
C377 N373 1.334 . S
C377 C375 1.394 . S
C378 C374 1.413 . S
C378 C376 1.391 . S
C378 C393 1.437 . S
H379 C376 0.929 . S
O380 Gd336 2.545 . S
O380 C395 1.258 . S
O381 Gd336 2.606 . S
O381 Gd337 2.362 . S
O381 C392 1.284 . S
O382 Gd337 2.324 . S
O382 C402 1.254 . S
O383 Gd336 2.429 . S
O383 C402 1.268 . S
O384 Gd336 2.545 . S
O384 C392 1.250 . S
O385 Gd336 2.412 . S
O385 C395 1.252 . S
O386 Gd337 2.545 . S
O386 C404 1.258 . S
O387 Gd336 2.362 . S
O387 Gd337 2.606 . S
O387 C403 1.284 . S
O388 Gd336 2.324 . S
O388 C411 1.254 . S
O389 Gd337 2.429 . S
O389 C411 1.268 . S
O390 Gd337 2.545 . S
O390 C403 1.250 . S
O391 Gd337 2.412 . S
O391 C404 1.252 . S
C392 O381 1.284 . S
C392 O384 1.250 . S
C393 H362 0.929 . S
C393 C378 1.437 . S
C393 C394 1.317 . S
C394 H365 0.930 . S
C394 C370 1.431 . S
C394 C393 1.317 . S
C395 Gd336 2.828 . S
C395 O380 1.258 . S
C395 O385 1.252 . S
C395 C396 1.497 . S
C396 C395 1.497 . S
C396 C397 1.395 . S
C396 C398 1.380 . S
C397 C396 1.395 . S
C397 C400 1.398 . S
C397 H412 0.930 . S
C398 C396 1.380 . S
C398 C399 1.391 . S
C398 H413 0.930 . S
C399 C398 1.391 . S
C399 C401 1.387 . S
C400 C397 1.398 . S
C400 C401 1.380 . S
C400 H414 0.930 . S
C401 C399 1.387 . S
C401 C400 1.380 . S
C401 H415 0.930 . S
C402 O382 1.254 . S
C402 O383 1.268 . S
C403 O387 1.284 . S
C403 O390 1.250 . S
C404 Gd337 2.828 . S
C404 O386 1.258 . S
C404 O391 1.252 . S
C404 C405 1.497 . S
C405 C404 1.497 . S
C405 C406 1.395 . S
C405 C407 1.380 . S
C406 C405 1.395 . S
C406 C409 1.398 . S
C406 H416 0.930 . S
C407 C405 1.380 . S
C407 C408 1.391 . S
C407 H417 0.930 . S
C408 C407 1.391 . S
C408 C410 1.387 . S
C409 C406 1.398 . S
C409 C410 1.380 . S
C409 H418 0.930 . S
C410 C408 1.387 . S
C410 C409 1.380 . S
C410 H419 0.930 . S
C411 O388 1.254 . S
C411 O389 1.268 . S
H412 C397 0.930 . S
H413 C398 0.930 . S
H414 C400 0.930 . S
H415 C401 0.930 . S
H416 C406 0.930 . S
H417 C407 0.930 . S
H418 C409 0.930 . S
H419 C410 0.930 . S
Gd420 N451 2.661 . S
Gd420 N457 2.601 . S
Gd420 O464 2.545 . S
Gd420 O465 2.606 . S
Gd420 O467 2.429 . S
Gd420 O468 2.545 . S
Gd420 O469 2.412 . S
Gd420 O471 2.362 . S
Gd420 O472 2.324 . S
Gd420 C479 2.828 . S
Gd421 N430 2.661 . S
Gd421 N434 2.601 . S
Gd421 O465 2.362 . S
Gd421 O466 2.324 . S
Gd421 O470 2.545 . S
Gd421 O471 2.606 . S
Gd421 O473 2.429 . S
Gd421 O474 2.545 . S
Gd421 O475 2.412 . S
Gd421 C488 2.828 . S
C422 C425 1.417 . S
C422 C427 1.431 . S
C422 C428 1.412 . S
C423 C426 1.437 . S
C423 C427 1.317 . S
C423 H442 0.929 . S
C424 C425 1.426 . S
C424 C426 1.413 . S
C424 N434 1.359 . S
C425 C422 1.417 . S
C425 C424 1.426 . S
C425 N430 1.350 . S
C426 C423 1.437 . S
C426 C424 1.413 . S
C426 C436 1.391 . S
C427 C422 1.431 . S
C427 C423 1.317 . S
C427 H438 0.930 . S
C428 C422 1.412 . S
C428 C429 1.355 . S
C428 H440 0.930 . S
C429 C428 1.355 . S
C429 C431 1.402 . S
C429 H441 0.930 . S
N430 Gd421 2.661 . S
N430 C425 1.350 . S
N430 C431 1.307 . S
C431 C429 1.402 . S
C431 N430 1.307 . S
C431 H432 0.930 . S
H432 C431 0.930 . S
C433 N434 1.334 . S
C433 C435 1.394 . S
C433 H437 0.930 . S
N434 Gd421 2.601 . S
N434 C424 1.359 . S
N434 C433 1.334 . S
C435 C433 1.394 . S
C435 C436 1.359 . S
C435 H447 0.930 . S
C436 C426 1.391 . S
C436 C435 1.359 . S
C436 H448 0.929 . S
H437 C433 0.930 . S
H438 C427 0.930 . S
H439 C456 0.930 . S
H440 C428 0.930 . S
H441 C429 0.930 . S
H442 C423 0.929 . S
H443 C461 0.930 . S
H444 C452 0.930 . S
H445 C453 0.930 . S
H446 C477 0.929 . S
H447 C435 0.930 . S
H448 C436 0.929 . S
H449 C478 0.930 . S
H450 C459 0.930 . S
N451 Gd420 2.661 . S
N451 C455 1.350 . S
N451 C456 1.307 . S
C452 H444 0.930 . S
C452 C453 1.355 . S
C452 C454 1.412 . S
C453 H445 0.930 . S
C453 C452 1.355 . S
C453 C456 1.402 . S
C454 C452 1.412 . S
C454 C455 1.417 . S
C454 C478 1.431 . S
C455 N451 1.350 . S
C455 C454 1.417 . S
C455 C458 1.426 . S
C456 H439 0.930 . S
C456 N451 1.307 . S
C456 C453 1.402 . S
N457 Gd420 2.601 . S
N457 C458 1.359 . S
N457 C461 1.334 . S
C458 C455 1.426 . S
C458 N457 1.359 . S
C458 C462 1.413 . S
C459 H450 0.930 . S
C459 C460 1.359 . S
C459 C461 1.394 . S
C460 C459 1.359 . S
C460 C462 1.391 . S
C460 H463 0.929 . S
C461 H443 0.930 . S
C461 N457 1.334 . S
C461 C459 1.394 . S
C462 C458 1.413 . S
C462 C460 1.391 . S
C462 C477 1.437 . S
H463 C460 0.929 . S
O464 Gd420 2.545 . S
O464 C479 1.258 . S
O465 Gd420 2.606 . S
O465 Gd421 2.362 . S
O465 C476 1.284 . S
O466 Gd421 2.324 . S
O466 C486 1.254 . S
O467 Gd420 2.429 . S
O467 C486 1.268 . S
O468 Gd420 2.545 . S
O468 C476 1.250 . S
O469 Gd420 2.412 . S
O469 C479 1.252 . S
O470 Gd421 2.545 . S
O470 C488 1.258 . S
O471 Gd420 2.362 . S
O471 Gd421 2.606 . S
O471 C487 1.284 . S
O472 Gd420 2.324 . S
O472 C495 1.254 . S
O473 Gd421 2.429 . S
O473 C495 1.268 . S
O474 Gd421 2.545 . S
O474 C487 1.250 . S
O475 Gd421 2.412 . S
O475 C488 1.252 . S
C476 O465 1.284 . S
C476 O468 1.250 . S
C477 H446 0.929 . S
C477 C462 1.437 . S
C477 C478 1.317 . S
C478 H449 0.930 . S
C478 C454 1.431 . S
C478 C477 1.317 . S
C479 Gd420 2.828 . S
C479 O464 1.258 . S
C479 O469 1.252 . S
C479 C480 1.497 . S
C480 C479 1.497 . S
C480 C481 1.395 . S
C480 C482 1.380 . S
C481 C480 1.395 . S
C481 C484 1.398 . S
C481 H496 0.930 . S
C482 C480 1.380 . S
C482 C483 1.391 . S
C482 H497 0.930 . S
C483 C482 1.391 . S
C483 C485 1.387 . S
C484 C481 1.398 . S
C484 C485 1.380 . S
C484 H498 0.930 . S
C485 C483 1.387 . S
C485 C484 1.380 . S
C485 H499 0.930 . S
C486 O466 1.254 . S
C486 O467 1.268 . S
C487 O471 1.284 . S
C487 O474 1.250 . S
C488 Gd421 2.828 . S
C488 O470 1.258 . S
C488 O475 1.252 . S
C488 C489 1.497 . S
C489 C488 1.497 . S
C489 C490 1.395 . S
C489 C491 1.380 . S
C490 C489 1.395 . S
C490 C493 1.398 . S
C490 H500 0.930 . S
C491 C489 1.380 . S
C491 C492 1.391 . S
C491 H501 0.930 . S
C492 C491 1.391 . S
C492 C494 1.387 . S
C493 C490 1.398 . S
C493 C494 1.380 . S
C493 H502 0.930 . S
C494 C492 1.387 . S
C494 C493 1.380 . S
C494 H503 0.930 . S
C495 O472 1.254 . S
C495 O473 1.268 . S
H496 C481 0.930 . S
H497 C482 0.930 . S
H498 C484 0.930 . S
H499 C485 0.930 . S
H500 C490 0.930 . S
H501 C491 0.930 . S
H502 C493 0.930 . S
H503 C494 0.930 . S
H504 C522 0.951 . S
H505 C524 0.951 . S
H506 C526 0.950 . S
H507 C527 0.950 . S
H508 C529 0.950 . S
H509 C532 0.950 . S
H510 C533 0.950 . S
H511 C535 0.950 . S
H512 C536 0.950 . S
H513 C537 0.951 . S
H514 C539 0.951 . S
H515 C541 0.950 . S
H516 C542 0.950 . S
H517 C544 0.950 . S
H518 C547 0.950 . S
H519 C548 0.950 . S
H520 C550 0.950 . S
H521 C551 0.950 . S
C522 H504 0.951 . S
C522 C523 1.366 . S
C522 C524 1.388 . S
C523 C522 1.366 . S
C523 C527 1.385 . S
C524 H505 0.951 . S
C524 C522 1.388 . S
C524 C525 1.366 . S
C525 C524 1.366 . S
C525 C526 1.414 . S
C525 C528 1.499 . S
C526 H506 0.950 . S
C526 C525 1.414 . S
C526 C527 1.374 . S
C527 H507 0.950 . S
C527 C523 1.385 . S
C527 C526 1.374 . S
C528 C525 1.499 . S
C528 C529 1.373 . S
C528 C530 1.389 . S
C529 H508 0.950 . S
C529 C528 1.373 . S
C529 C545 1.377 . S
C530 C528 1.389 . S
C530 C531 1.524 . S
C530 C544 1.377 . S
C531 C530 1.524 . S
C531 C532 1.397 . S
C531 C536 1.363 . S
C532 H509 0.950 . S
C532 C531 1.397 . S
C532 C533 1.334 . S
C533 H510 0.950 . S
C533 C532 1.334 . S
C533 C534 1.287 . S
C534 C533 1.287 . S
C534 C535 1.524 . S
C534 H553 0.913 . S
C535 H511 0.950 . S
C535 C534 1.524 . S
C535 C536 1.415 . S
C536 H512 0.950 . S
C536 C531 1.363 . S
C536 C535 1.415 . S
C537 H513 0.951 . S
C537 C538 1.366 . S
C537 C539 1.388 . S
C538 C537 1.366 . S
C538 C542 1.385 . S
C539 H514 0.951 . S
C539 C537 1.388 . S
C539 C540 1.366 . S
C540 C539 1.366 . S
C540 C541 1.414 . S
C540 C543 1.499 . S
C541 H515 0.950 . S
C541 C540 1.414 . S
C541 C542 1.374 . S
C542 H516 0.950 . S
C542 C538 1.385 . S
C542 C541 1.374 . S
C543 C540 1.499 . S
C543 C544 1.373 . S
C543 C545 1.389 . S
C544 H517 0.950 . S
C544 C530 1.377 . S
C544 C543 1.373 . S
C545 C529 1.377 . S
C545 C543 1.389 . S
C545 C546 1.524 . S
C546 C545 1.524 . S
C546 C547 1.397 . S
C546 C551 1.363 . S
C547 H518 0.950 . S
C547 C546 1.397 . S
C547 C548 1.334 . S
C548 H519 0.950 . S
C548 C547 1.334 . S
C548 C549 1.287 . S
C549 C548 1.287 . S
C549 C550 1.524 . S
C549 H552 0.999 . S
C550 H520 0.950 . S
C550 C549 1.524 . S
C550 C551 1.415 . S
C551 H521 0.950 . S
C551 C546 1.363 . S
C551 C550 1.415 . S
H552 C549 0.999 . S
H553 C534 0.913 . S
H554 C572 0.951 . S
H555 C574 0.951 . S
H556 C576 0.950 . S
H557 C577 0.950 . S
H558 C579 0.950 . S
H559 C582 0.950 . S
H560 C583 0.950 . S
H561 C585 0.950 . S
H562 C586 0.950 . S
H563 C587 0.951 . S
H564 C589 0.951 . S
H565 C591 0.950 . S
H566 C592 0.950 . S
H567 C594 0.950 . S
H568 C597 0.950 . S
H569 C598 0.950 . S
H570 C600 0.950 . S
H571 C601 0.950 . S
C572 H554 0.951 . S
C572 C573 1.366 . S
C572 C574 1.388 . S
C573 C572 1.366 . S
C573 C577 1.385 . S
C574 H555 0.951 . S
C574 C572 1.388 . S
C574 C575 1.366 . S
C575 C574 1.366 . S
C575 C576 1.414 . S
C575 C578 1.499 . S
C576 H556 0.950 . S
C576 C575 1.414 . S
C576 C577 1.374 . S
C577 H557 0.950 . S
C577 C573 1.385 . S
C577 C576 1.374 . S
C578 C575 1.499 . S
C578 C579 1.373 . S
C578 C580 1.389 . S
C579 H558 0.950 . S
C579 C578 1.373 . S
C579 C595 1.377 . S
C580 C578 1.389 . S
C580 C581 1.524 . S
C580 C594 1.377 . S
C581 C580 1.524 . S
C581 C582 1.397 . S
C581 C586 1.363 . S
C582 H559 0.950 . S
C582 C581 1.397 . S
C582 C583 1.334 . S
C583 H560 0.950 . S
C583 C582 1.334 . S
C583 C584 1.287 . S
C584 C583 1.287 . S
C584 C585 1.524 . S
C584 H603 0.913 . S
C585 H561 0.950 . S
C585 C584 1.524 . S
C585 C586 1.415 . S
C586 H562 0.950 . S
C586 C581 1.363 . S
C586 C585 1.415 . S
C587 H563 0.951 . S
C587 C588 1.366 . S
C587 C589 1.388 . S
C588 C587 1.366 . S
C588 C592 1.385 . S
C589 H564 0.951 . S
C589 C587 1.388 . S
C589 C590 1.366 . S
C590 C589 1.366 . S
C590 C591 1.414 . S
C590 C593 1.499 . S
C591 H565 0.950 . S
C591 C590 1.414 . S
C591 C592 1.374 . S
C592 H566 0.950 . S
C592 C588 1.385 . S
C592 C591 1.374 . S
C593 C590 1.499 . S
C593 C594 1.373 . S
C593 C595 1.389 . S
C594 H567 0.950 . S
C594 C580 1.377 . S
C594 C593 1.373 . S
C595 C579 1.377 . S
C595 C593 1.389 . S
C595 C596 1.524 . S
C596 C595 1.524 . S
C596 C597 1.397 . S
C596 C601 1.363 . S
C597 H568 0.950 . S
C597 C596 1.397 . S
C597 C598 1.334 . S
C598 H569 0.950 . S
C598 C597 1.334 . S
C598 C599 1.287 . S
C599 C598 1.287 . S
C599 C600 1.524 . S
C599 H602 0.999 . S
C600 H570 0.950 . S
C600 C599 1.524 . S
C600 C601 1.415 . S
C601 H571 0.950 . S
C601 C596 1.363 . S
C601 C600 1.415 . S
H602 C599 0.999 . S
H603 C584 0.913 . S
H604 C622 0.951 . S
H605 C624 0.951 . S
H606 C626 0.950 . S
H607 C627 0.950 . S
H608 C629 0.950 . S
H609 C632 0.950 . S
H610 C633 0.950 . S
H611 C635 0.950 . S
H612 C636 0.950 . S
H613 C637 0.951 . S
H614 C639 0.951 . S
H615 C641 0.950 . S
H616 C642 0.950 . S
H617 C644 0.950 . S
H618 C647 0.950 . S
H619 C648 0.950 . S
H620 C650 0.950 . S
H621 C651 0.950 . S
C622 H604 0.951 . S
C622 C623 1.366 . S
C622 C624 1.388 . S
C623 C622 1.366 . S
C623 C627 1.385 . S
C624 H605 0.951 . S
C624 C622 1.388 . S
C624 C625 1.366 . S
C625 C624 1.366 . S
C625 C626 1.414 . S
C625 C628 1.499 . S
C626 H606 0.950 . S
C626 C625 1.414 . S
C626 C627 1.374 . S
C627 H607 0.950 . S
C627 C623 1.385 . S
C627 C626 1.374 . S
C628 C625 1.499 . S
C628 C629 1.373 . S
C628 C630 1.389 . S
C629 H608 0.950 . S
C629 C628 1.373 . S
C629 C645 1.377 . S
C630 C628 1.389 . S
C630 C631 1.524 . S
C630 C644 1.377 . S
C631 C630 1.524 . S
C631 C632 1.397 . S
C631 C636 1.363 . S
C632 H609 0.950 . S
C632 C631 1.397 . S
C632 C633 1.334 . S
C633 H610 0.950 . S
C633 C632 1.334 . S
C633 C634 1.287 . S
C634 C633 1.287 . S
C634 C635 1.524 . S
C634 H653 0.913 . S
C635 H611 0.950 . S
C635 C634 1.524 . S
C635 C636 1.415 . S
C636 H612 0.950 . S
C636 C631 1.363 . S
C636 C635 1.415 . S
C637 H613 0.951 . S
C637 C638 1.366 . S
C637 C639 1.388 . S
C638 C637 1.366 . S
C638 C642 1.385 . S
C639 H614 0.951 . S
C639 C637 1.388 . S
C639 C640 1.366 . S
C640 C639 1.366 . S
C640 C641 1.414 . S
C640 C643 1.499 . S
C641 H615 0.950 . S
C641 C640 1.414 . S
C641 C642 1.374 . S
C642 H616 0.950 . S
C642 C638 1.385 . S
C642 C641 1.374 . S
C643 C640 1.499 . S
C643 C644 1.373 . S
C643 C645 1.389 . S
C644 H617 0.950 . S
C644 C630 1.377 . S
C644 C643 1.373 . S
C645 C629 1.377 . S
C645 C643 1.389 . S
C645 C646 1.524 . S
C646 C645 1.524 . S
C646 C647 1.397 . S
C646 C651 1.363 . S
C647 H618 0.950 . S
C647 C646 1.397 . S
C647 C648 1.334 . S
C648 H619 0.950 . S
C648 C647 1.334 . S
C648 C649 1.287 . S
C649 C648 1.287 . S
C649 C650 1.524 . S
C649 H652 0.999 . S
C650 H620 0.950 . S
C650 C649 1.524 . S
C650 C651 1.415 . S
C651 H621 0.950 . S
C651 C646 1.363 . S
C651 C650 1.415 . S
H652 C649 0.999 . S
H653 C634 0.913 . S
H654 C672 0.951 . S
H655 C674 0.951 . S
H656 C676 0.950 . S
H657 C677 0.950 . S
H658 C679 0.950 . S
H659 C682 0.950 . S
H660 C683 0.950 . S
H661 C685 0.950 . S
H662 C686 0.950 . S
H663 C687 0.951 . S
H664 C689 0.951 . S
H665 C691 0.950 . S
H666 C692 0.950 . S
H667 C694 0.950 . S
H668 C697 0.950 . S
H669 C698 0.950 . S
H670 C700 0.950 . S
H671 C701 0.950 . S
C672 H654 0.951 . S
C672 C673 1.366 . S
C672 C674 1.388 . S
C673 C672 1.366 . S
C673 C677 1.385 . S
C674 H655 0.951 . S
C674 C672 1.388 . S
C674 C675 1.366 . S
C675 C674 1.366 . S
C675 C676 1.414 . S
C675 C678 1.499 . S
C676 H656 0.950 . S
C676 C675 1.414 . S
C676 C677 1.374 . S
C677 H657 0.950 . S
C677 C673 1.385 . S
C677 C676 1.374 . S
C678 C675 1.499 . S
C678 C679 1.373 . S
C678 C680 1.389 . S
C679 H658 0.950 . S
C679 C678 1.373 . S
C679 C695 1.377 . S
C680 C678 1.389 . S
C680 C681 1.524 . S
C680 C694 1.377 . S
C681 C680 1.524 . S
C681 C682 1.397 . S
C681 C686 1.363 . S
C682 H659 0.950 . S
C682 C681 1.397 . S
C682 C683 1.334 . S
C683 H660 0.950 . S
C683 C682 1.334 . S
C683 C684 1.287 . S
C684 C683 1.287 . S
C684 C685 1.524 . S
C684 H703 0.913 . S
C685 H661 0.950 . S
C685 C684 1.524 . S
C685 C686 1.415 . S
C686 H662 0.950 . S
C686 C681 1.363 . S
C686 C685 1.415 . S
C687 H663 0.951 . S
C687 C688 1.366 . S
C687 C689 1.388 . S
C688 C687 1.366 . S
C688 C692 1.385 . S
C689 H664 0.951 . S
C689 C687 1.388 . S
C689 C690 1.366 . S
C690 C689 1.366 . S
C690 C691 1.414 . S
C690 C693 1.499 . S
C691 H665 0.950 . S
C691 C690 1.414 . S
C691 C692 1.374 . S
C692 H666 0.950 . S
C692 C688 1.385 . S
C692 C691 1.374 . S
C693 C690 1.499 . S
C693 C694 1.373 . S
C693 C695 1.389 . S
C694 H667 0.950 . S
C694 C680 1.377 . S
C694 C693 1.373 . S
C695 C679 1.377 . S
C695 C693 1.389 . S
C695 C696 1.524 . S
C696 C695 1.524 . S
C696 C697 1.397 . S
C696 C701 1.363 . S
C697 H668 0.950 . S
C697 C696 1.397 . S
C697 C698 1.334 . S
C698 H669 0.950 . S
C698 C697 1.334 . S
C698 C699 1.287 . S
C699 C698 1.287 . S
C699 C700 1.524 . S
C699 H702 0.999 . S
C700 H670 0.950 . S
C700 C699 1.524 . S
C700 C701 1.415 . S
C701 H671 0.950 . S
C701 C696 1.363 . S
C701 C700 1.415 . S
H702 C699 0.999 . S
H703 C684 0.913 . S
H704 C722 0.951 . S
H705 C724 0.951 . S
H706 C726 0.950 . S
H707 C727 0.950 . S
H708 C729 0.950 . S
H709 C732 0.950 . S
H710 C733 0.950 . S
H711 C735 0.950 . S
H712 C736 0.950 . S
H713 C737 0.951 . S
H714 C739 0.951 . S
H715 C741 0.950 . S
H716 C742 0.950 . S
H717 C744 0.950 . S
H718 C747 0.950 . S
H719 C748 0.950 . S
H720 C750 0.950 . S
H721 C751 0.950 . S
C722 H704 0.951 . S
C722 C723 1.366 . S
C722 C724 1.388 . S
C723 C722 1.366 . S
C723 C727 1.385 . S
C724 H705 0.951 . S
C724 C722 1.388 . S
C724 C725 1.366 . S
C725 C724 1.366 . S
C725 C726 1.414 . S
C725 C728 1.499 . S
C726 H706 0.950 . S
C726 C725 1.414 . S
C726 C727 1.374 . S
C727 H707 0.950 . S
C727 C723 1.385 . S
C727 C726 1.374 . S
C728 C725 1.499 . S
C728 C729 1.373 . S
C728 C730 1.389 . S
C729 H708 0.950 . S
C729 C728 1.373 . S
C729 C745 1.377 . S
C730 C728 1.389 . S
C730 C731 1.524 . S
C730 C744 1.377 . S
C731 C730 1.524 . S
C731 C732 1.397 . S
C731 C736 1.363 . S
C732 H709 0.950 . S
C732 C731 1.397 . S
C732 C733 1.334 . S
C733 H710 0.950 . S
C733 C732 1.334 . S
C733 C734 1.287 . S
C734 C733 1.287 . S
C734 C735 1.524 . S
C734 H753 0.913 . S
C735 H711 0.950 . S
C735 C734 1.524 . S
C735 C736 1.415 . S
C736 H712 0.950 . S
C736 C731 1.363 . S
C736 C735 1.415 . S
C737 H713 0.951 . S
C737 C738 1.366 . S
C737 C739 1.388 . S
C738 C737 1.366 . S
C738 C742 1.385 . S
C739 H714 0.951 . S
C739 C737 1.388 . S
C739 C740 1.366 . S
C740 C739 1.366 . S
C740 C741 1.414 . S
C740 C743 1.499 . S
C741 H715 0.950 . S
C741 C740 1.414 . S
C741 C742 1.374 . S
C742 H716 0.950 . S
C742 C738 1.385 . S
C742 C741 1.374 . S
C743 C740 1.499 . S
C743 C744 1.373 . S
C743 C745 1.389 . S
C744 H717 0.950 . S
C744 C730 1.377 . S
C744 C743 1.373 . S
C745 C729 1.377 . S
C745 C743 1.389 . S
C745 C746 1.524 . S
C746 C745 1.524 . S
C746 C747 1.397 . S
C746 C751 1.363 . S
C747 H718 0.950 . S
C747 C746 1.397 . S
C747 C748 1.334 . S
C748 H719 0.950 . S
C748 C747 1.334 . S
C748 C749 1.287 . S
C749 C748 1.287 . S
C749 C750 1.524 . S
C749 H752 0.999 . S
C750 H720 0.950 . S
C750 C749 1.524 . S
C750 C751 1.415 . S
C751 H721 0.950 . S
C751 C746 1.363 . S
C751 C750 1.415 . S
H752 C749 0.999 . S
H753 C734 0.913 . S
H754 C772 0.951 . S
H755 C774 0.951 . S
H756 C776 0.950 . S
H757 C777 0.950 . S
H758 C779 0.950 . S
H759 C782 0.950 . S
H760 C783 0.950 . S
H761 C785 0.950 . S
H762 C786 0.950 . S
H763 C787 0.951 . S
H764 C789 0.951 . S
H765 C791 0.950 . S
H766 C792 0.950 . S
H767 C794 0.950 . S
H768 C797 0.950 . S
H769 C798 0.950 . S
H770 C800 0.950 . S
H771 C801 0.950 . S
C772 H754 0.951 . S
C772 C773 1.366 . S
C772 C774 1.388 . S
C773 C772 1.366 . S
C773 C777 1.385 . S
C774 H755 0.951 . S
C774 C772 1.388 . S
C774 C775 1.366 . S
C775 C774 1.366 . S
C775 C776 1.414 . S
C775 C778 1.499 . S
C776 H756 0.950 . S
C776 C775 1.414 . S
C776 C777 1.374 . S
C777 H757 0.950 . S
C777 C773 1.385 . S
C777 C776 1.374 . S
C778 C775 1.499 . S
C778 C779 1.373 . S
C778 C780 1.389 . S
C779 H758 0.950 . S
C779 C778 1.373 . S
C779 C795 1.377 . S
C780 C778 1.389 . S
C780 C781 1.524 . S
C780 C794 1.377 . S
C781 C780 1.524 . S
C781 C782 1.397 . S
C781 C786 1.363 . S
C782 H759 0.950 . S
C782 C781 1.397 . S
C782 C783 1.334 . S
C783 H760 0.950 . S
C783 C782 1.334 . S
C783 C784 1.287 . S
C784 C783 1.287 . S
C784 C785 1.524 . S
C784 H803 0.913 . S
C785 H761 0.950 . S
C785 C784 1.524 . S
C785 C786 1.415 . S
C786 H762 0.950 . S
C786 C781 1.363 . S
C786 C785 1.415 . S
C787 H763 0.951 . S
C787 C788 1.366 . S
C787 C789 1.388 . S
C788 C787 1.366 . S
C788 C792 1.385 . S
C789 H764 0.951 . S
C789 C787 1.388 . S
C789 C790 1.366 . S
C790 C789 1.366 . S
C790 C791 1.414 . S
C790 C793 1.499 . S
C791 H765 0.950 . S
C791 C790 1.414 . S
C791 C792 1.374 . S
C792 H766 0.950 . S
C792 C788 1.385 . S
C792 C791 1.374 . S
C793 C790 1.499 . S
C793 C794 1.373 . S
C793 C795 1.389 . S
C794 H767 0.950 . S
C794 C780 1.377 . S
C794 C793 1.373 . S
C795 C779 1.377 . S
C795 C793 1.389 . S
C795 C796 1.524 . S
C796 C795 1.524 . S
C796 C797 1.397 . S
C796 C801 1.363 . S
C797 H768 0.950 . S
C797 C796 1.397 . S
C797 C798 1.334 . S
C798 H769 0.950 . S
C798 C797 1.334 . S
C798 C799 1.287 . S
C799 C798 1.287 . S
C799 C800 1.524 . S
C799 H802 0.999 . S
C800 H770 0.950 . S
C800 C799 1.524 . S
C800 C801 1.415 . S
C801 H771 0.950 . S
C801 C796 1.363 . S
C801 C800 1.415 . S
H802 C799 0.999 . S
H803 C784 0.913 . S
H804 C822 0.951 . S
H805 C824 0.951 . S
H806 C826 0.950 . S
H807 C827 0.950 . S
H808 C829 0.950 . S
H809 C832 0.950 . S
H810 C833 0.950 . S
H811 C835 0.950 . S
H812 C836 0.950 . S
H813 C837 0.951 . S
H814 C839 0.951 . S
H815 C841 0.950 . S
H816 C842 0.950 . S
H817 C844 0.950 . S
H818 C847 0.950 . S
H819 C848 0.950 . S
H820 C850 0.950 . S
H821 C851 0.950 . S
C822 H804 0.951 . S
C822 C823 1.366 . S
C822 C824 1.388 . S
C823 C822 1.366 . S
C823 C827 1.385 . S
C824 H805 0.951 . S
C824 C822 1.388 . S
C824 C825 1.366 . S
C825 C824 1.366 . S
C825 C826 1.414 . S
C825 C828 1.499 . S
C826 H806 0.950 . S
C826 C825 1.414 . S
C826 C827 1.374 . S
C827 H807 0.950 . S
C827 C823 1.385 . S
C827 C826 1.374 . S
C828 C825 1.499 . S
C828 C829 1.373 . S
C828 C830 1.389 1_554 S
C829 H808 0.950 . S
C829 C828 1.373 . S
C829 C845 1.377 . S
C830 C828 1.389 1_556 S
C830 C831 1.524 . S
C830 C844 1.377 . S
C831 C830 1.524 . S
C831 C832 1.397 . S
C831 C836 1.363 . S
C832 H809 0.950 . S
C832 C831 1.397 . S
C832 C833 1.334 . S
C833 H810 0.950 . S
C833 C832 1.334 . S
C833 C834 1.287 . S
C834 C833 1.287 . S
C834 C835 1.524 . S
C834 H853 0.913 . S
C835 H811 0.950 . S
C835 C834 1.524 . S
C835 C836 1.415 . S
C836 H812 0.950 . S
C836 C831 1.363 . S
C836 C835 1.415 . S
C837 H813 0.951 . S
C837 C838 1.366 . S
C837 C839 1.388 . S
C838 C837 1.366 . S
C838 C842 1.385 . S
C839 H814 0.951 . S
C839 C837 1.388 . S
C839 C840 1.366 . S
C840 C839 1.366 . S
C840 C841 1.414 . S
C840 C843 1.499 . S
C841 H815 0.950 . S
C841 C840 1.414 . S
C841 C842 1.374 . S
C842 H816 0.950 . S
C842 C838 1.385 . S
C842 C841 1.374 . S
C843 C840 1.499 . S
C843 C844 1.373 1_554 S
C843 C845 1.389 . S
C844 H817 0.950 . S
C844 C830 1.377 . S
C844 C843 1.373 1_556 S
C845 C829 1.377 . S
C845 C843 1.389 . S
C845 C846 1.524 . S
C846 C845 1.524 . S
C846 C847 1.397 . S
C846 C851 1.363 . S
C847 H818 0.950 . S
C847 C846 1.397 . S
C847 C848 1.334 . S
C848 H819 0.950 . S
C848 C847 1.334 . S
C848 C849 1.287 . S
C849 C848 1.287 . S
C849 C850 1.524 . S
C849 H852 0.999 . S
C850 H820 0.950 . S
C850 C849 1.524 . S
C850 C851 1.415 . S
C851 H821 0.950 . S
C851 C846 1.363 . S
C851 C850 1.415 . S
H852 C849 0.999 . S
H853 C834 0.913 . S
H854 C872 0.951 . S
H855 C874 0.951 . S
H856 C876 0.950 . S
H857 C877 0.950 . S
H858 C879 0.950 . S
H859 C882 0.950 . S
H860 C883 0.950 . S
H861 C885 0.950 . S
H862 C886 0.950 . S
H863 C887 0.951 . S
H864 C889 0.951 . S
H865 C891 0.950 . S
H866 C892 0.950 . S
H867 C894 0.950 . S
H868 C897 0.950 . S
H869 C898 0.950 . S
H870 C900 0.950 . S
H871 C901 0.950 . S
C872 H854 0.951 . S
C872 C873 1.366 . S
C872 C874 1.388 . S
C873 C872 1.366 . S
C873 C877 1.385 . S
C874 H855 0.951 . S
C874 C872 1.388 . S
C874 C875 1.366 . S
C875 C874 1.366 . S
C875 C876 1.414 . S
C875 C878 1.499 . S
C876 H856 0.950 . S
C876 C875 1.414 . S
C876 C877 1.374 . S
C877 H857 0.950 . S
C877 C873 1.385 . S
C877 C876 1.374 . S
C878 C875 1.499 . S
C878 C879 1.373 . S
C878 C880 1.389 . S
C879 H858 0.950 . S
C879 C878 1.373 . S
C879 C895 1.377 1_455 S
C880 C878 1.389 . S
C880 C881 1.524 . S
C880 C894 1.377 1_455 S
C881 C880 1.524 . S
C881 C882 1.397 1_455 S
C881 C886 1.363 . S
C882 H859 0.950 . S
C882 C881 1.397 1_655 S
C882 C883 1.334 . S
C883 H860 0.950 . S
C883 C882 1.334 . S
C883 C884 1.287 1_655 S
C884 C883 1.287 1_455 S
C884 C885 1.524 . S
C884 H903 0.913 . S
C885 H861 0.950 . S
C885 C884 1.524 . S
C885 C886 1.415 . S
C886 H862 0.950 . S
C886 C881 1.363 . S
C886 C885 1.415 . S
C887 H863 0.951 . S
C887 C888 1.366 . S
C887 C889 1.388 . S
C888 C887 1.366 . S
C888 C892 1.385 . S
C889 H864 0.951 . S
C889 C887 1.388 . S
C889 C890 1.366 . S
C890 C889 1.366 . S
C890 C891 1.414 . S
C890 C893 1.499 . S
C891 H865 0.950 . S
C891 C890 1.414 . S
C891 C892 1.374 . S
C892 H866 0.950 . S
C892 C888 1.385 . S
C892 C891 1.374 . S
C893 C890 1.499 . S
C893 C894 1.373 . S
C893 C895 1.389 . S
C894 H867 0.950 . S
C894 C880 1.377 1_655 S
C894 C893 1.373 . S
C895 C879 1.377 1_655 S
C895 C893 1.389 . S
C895 C896 1.524 . S
C896 C895 1.524 . S
C896 C897 1.397 1_655 S
C896 C901 1.363 . S
C897 H868 0.950 . S
C897 C896 1.397 1_455 S
C897 C898 1.334 . S
C898 H869 0.950 . S
C898 C897 1.334 . S
C898 C899 1.287 1_455 S
C899 C898 1.287 1_655 S
C899 C900 1.524 . S
C899 H902 0.999 . S
C900 H870 0.950 . S
C900 C899 1.524 . S
C900 C901 1.415 . S
C901 H871 0.950 . S
C901 C896 1.363 . S
C901 C900 1.415 . S
H902 C899 0.999 . S
H903 C884 0.913 . S
H904 C922 0.951 . S
H905 C924 0.951 . S
H906 C926 0.950 . S
H907 C927 0.950 . S
H908 C929 0.950 . S
H909 C932 0.950 . S
H910 C933 0.950 . S
H911 C935 0.950 . S
H912 C936 0.950 . S
H913 C937 0.951 . S
H914 C939 0.951 . S
H915 C941 0.950 . S
H916 C942 0.950 . S
H917 C944 0.950 . S
H918 C947 0.950 . S
H919 C948 0.950 . S
H920 C950 0.950 . S
H921 C951 0.950 . S
C922 H904 0.951 . S
C922 C923 1.366 . S
C922 C924 1.388 . S
C923 C922 1.366 . S
C923 C927 1.385 . S
C924 H905 0.951 . S
C924 C922 1.388 . S
C924 C925 1.366 . S
C925 C924 1.366 . S
C925 C926 1.414 . S
C925 C928 1.499 . S
C926 H906 0.950 . S
C926 C925 1.414 . S
C926 C927 1.374 . S
C927 H907 0.950 . S
C927 C923 1.385 . S
C927 C926 1.374 . S
C928 C925 1.499 . S
C928 C929 1.373 1_545 S
C928 C930 1.389 . S
C929 H908 0.950 . S
C929 C928 1.373 1_565 S
C929 C945 1.377 . S
C930 C928 1.389 . S
C930 C931 1.524 . S
C930 C944 1.377 . S
C931 C930 1.524 . S
C931 C932 1.397 . S
C931 C936 1.363 . S
C932 H909 0.950 . S
C932 C931 1.397 . S
C932 C933 1.334 . S
C933 H910 0.950 . S
C933 C932 1.334 . S
C933 C934 1.287 . S
C934 C933 1.287 . S
C934 C935 1.524 . S
C934 H953 0.913 . S
C935 H911 0.950 . S
C935 C934 1.524 . S
C935 C936 1.415 . S
C936 H912 0.950 . S
C936 C931 1.363 . S
C936 C935 1.415 . S
C937 H913 0.951 . S
C937 C938 1.366 . S
C937 C939 1.388 . S
C938 C937 1.366 . S
C938 C942 1.385 . S
C939 H914 0.951 . S
C939 C937 1.388 . S
C939 C940 1.366 . S
C940 C939 1.366 . S
C940 C941 1.414 . S
C940 C943 1.499 . S
C941 H915 0.950 . S
C941 C940 1.414 . S
C941 C942 1.374 . S
C942 H916 0.950 . S
C942 C938 1.385 . S
C942 C941 1.374 . S
C943 C940 1.499 . S
C943 C944 1.373 1_565 S
C943 C945 1.389 . S
C944 H917 0.950 . S
C944 C930 1.377 . S
C944 C943 1.373 1_545 S
C945 C929 1.377 . S
C945 C943 1.389 . S
C945 C946 1.524 . S
C946 C945 1.524 . S
C946 C947 1.397 . S
C946 C951 1.363 . S
C947 H918 0.950 . S
C947 C946 1.397 . S
C947 C948 1.334 . S
C948 H919 0.950 . S
C948 C947 1.334 . S
C948 C949 1.287 . S
C949 C948 1.287 . S
C949 C950 1.524 . S
C949 H952 0.999 . S
C950 H920 0.950 . S
C950 C949 1.524 . S
C950 C951 1.415 . S
C951 H921 0.950 . S
C951 C946 1.363 . S
C951 C950 1.415 . S
H952 C949 0.999 . S
H953 C934 0.913 . S
H954 C972 0.951 . S
H955 C974 0.951 . S
H956 C976 0.950 . S
H957 C977 0.950 . S
H958 C979 0.950 . S
H959 C982 0.950 . S
H960 C983 0.950 . S
H961 C985 0.950 . S
H962 C986 0.950 . S
H963 C987 0.951 . S
H964 C989 0.951 . S
H965 C991 0.950 . S
H966 C992 0.950 . S
H967 C994 0.950 . S
H968 C997 0.950 . S
H969 C998 0.950 . S
H970 C1000 0.950 . S
H971 C1001 0.950 . S
C972 H954 0.951 . S
C972 C973 1.366 . S
C972 C974 1.388 . S
C973 C972 1.366 . S
C973 C977 1.385 . S
C974 H955 0.951 . S
C974 C972 1.388 . S
C974 C975 1.366 . S
C975 C974 1.366 . S
C975 C976 1.414 . S
C975 C978 1.499 . S
C976 H956 0.950 . S
C976 C975 1.414 . S
C976 C977 1.374 . S
C977 H957 0.950 . S
C977 C973 1.385 . S
C977 C976 1.374 . S
C978 C975 1.499 . S
C978 C979 1.373 . S
C978 C980 1.389 . S
C979 H958 0.950 . S
C979 C978 1.373 . S
C979 C995 1.377 . S
C980 C978 1.389 . S
C980 C981 1.524 . S
C980 C994 1.377 . S
C981 C980 1.524 . S
C981 C982 1.397 . S
C981 C986 1.363 . S
C982 H959 0.950 . S
C982 C981 1.397 . S
C982 C983 1.334 . S
C983 H960 0.950 . S
C983 C982 1.334 . S
C983 C984 1.287 . S
C984 C983 1.287 . S
C984 C985 1.524 . S
C984 H1003 0.913 . S
C985 H961 0.950 . S
C985 C984 1.524 . S
C985 C986 1.415 . S
C986 H962 0.950 . S
C986 C981 1.363 . S
C986 C985 1.415 . S
C987 H963 0.951 . S
C987 C988 1.366 . S
C987 C989 1.388 . S
C988 C987 1.366 . S
C988 C992 1.385 . S
C989 H964 0.951 . S
C989 C987 1.388 . S
C989 C990 1.366 . S
C990 C989 1.366 . S
C990 C991 1.414 . S
C990 C993 1.499 . S
C991 H965 0.950 . S
C991 C990 1.414 . S
C991 C992 1.374 . S
C992 H966 0.950 . S
C992 C988 1.385 . S
C992 C991 1.374 . S
C993 C990 1.499 . S
C993 C994 1.373 . S
C993 C995 1.389 . S
C994 H967 0.950 . S
C994 C980 1.377 . S
C994 C993 1.373 . S
C995 C979 1.377 . S
C995 C993 1.389 . S
C995 C996 1.524 . S
C996 C995 1.524 . S
C996 C997 1.397 . S
C996 C1001 1.363 . S
C997 H968 0.950 . S
C997 C996 1.397 . S
C997 C998 1.334 . S
C998 H969 0.950 . S
C998 C997 1.334 . S
C998 C999 1.287 . S
C999 C998 1.287 . S
C999 C1000 1.524 . S
C999 H1002 0.999 . S
C1000 H970 0.950 . S
C1000 C999 1.524 . S
C1000 C1001 1.415 . S
C1001 H971 0.950 . S
C1001 C996 1.363 . S
C1001 C1000 1.415 . S
H1002 C999 0.999 . S
H1003 C984 0.913 . S
H1004 C1022 0.951 . S
H1005 C1024 0.951 . S
H1006 C1026 0.950 . S
H1007 C1027 0.950 . S
H1008 C1029 0.950 1_556 S
H1009 C1032 0.950 . S
H1010 C1033 0.950 . S
H1011 C1035 0.950 . S
H1012 C1036 0.950 . S
H1013 C1037 0.951 . S
H1014 C1039 0.951 . S
H1015 C1041 0.950 . S
H1016 C1042 0.950 . S
H1017 C1044 0.950 . S
H1018 C1047 0.950 . S
H1019 C1048 0.950 . S
H1020 C1050 0.950 . S
H1021 C1051 0.950 1_554 S
C1022 H1004 0.951 . S
C1022 C1023 1.366 1_556 S
C1022 C1024 1.388 . S
C1023 C1022 1.366 1_554 S
C1023 C1027 1.385 . S
C1024 H1005 0.951 . S
C1024 C1022 1.388 . S
C1024 C1025 1.366 1_556 S
C1025 C1024 1.366 1_554 S
C1025 C1026 1.414 . S
C1025 C1028 1.499 . S
C1026 H1006 0.950 . S
C1026 C1025 1.414 . S
C1026 C1027 1.374 . S
C1027 H1007 0.950 . S
C1027 C1023 1.385 . S
C1027 C1026 1.374 . S
C1028 C1025 1.499 . S
C1028 C1029 1.373 1_455 S
C1028 C1030 1.389 . S
C1029 H1008 0.950 1_554 S
C1029 C1028 1.373 1_655 S
C1029 C1045 1.375 1_554 S
C1030 C1028 1.389 . S
C1030 C1031 1.524 . S
C1030 C1044 1.377 . S
C1031 C1030 1.524 . S
C1031 C1032 1.397 . S
C1031 C1036 1.363 . S
C1032 H1009 0.950 . S
C1032 C1031 1.397 . S
C1032 C1033 1.334 . S
C1033 H1010 0.950 . S
C1033 C1032 1.334 . S
C1033 C1034 1.287 . S
C1034 C1033 1.287 . S
C1034 C1035 1.524 . S
C1034 H1053 0.913 . S
C1035 H1011 0.950 . S
C1035 C1034 1.524 . S
C1035 C1036 1.415 . S
C1036 H1012 0.950 . S
C1036 C1031 1.363 . S
C1036 C1035 1.415 . S
C1037 H1013 0.951 . S
C1037 C1038 1.366 . S
C1037 C1039 1.388 . S
C1038 C1037 1.366 . S
C1038 C1042 1.385 1_554 S
C1039 H1014 0.951 . S
C1039 C1037 1.388 . S
C1039 C1040 1.366 . S
C1040 C1039 1.366 . S
C1040 C1041 1.414 1_554 S
C1040 C1043 1.499 . S
C1041 H1015 0.950 . S
C1041 C1040 1.414 1_556 S
C1041 C1042 1.374 . S
C1042 H1016 0.950 . S
C1042 C1038 1.385 1_556 S
C1042 C1041 1.374 . S
C1043 C1040 1.499 . S
C1043 C1044 1.373 1_655 S
C1043 C1045 1.385 1_554 S
C1044 H1017 0.950 . S
C1044 C1030 1.377 . S
C1044 C1043 1.373 1_455 S
C1045 C1029 1.375 1_556 S
C1045 C1043 1.385 1_556 S
C1045 C1046 1.531 . S
C1046 C1045 1.531 . S
C1046 C1047 1.397 . S
C1046 C1051 1.363 . S
C1047 H1018 0.950 . S
C1047 C1046 1.397 . S
C1047 C1048 1.334 . S
C1048 H1019 0.950 . S
C1048 C1047 1.334 . S
C1048 C1049 1.287 . S
C1049 C1048 1.287 . S
C1049 C1050 1.524 . S
C1049 H1052 0.999 . S
C1050 H1020 0.950 . S
C1050 C1049 1.524 . S
C1050 C1051 1.415 . S
C1051 H1021 0.950 1_556 S
C1051 C1046 1.363 . S
C1051 C1050 1.415 . S
H1052 C1049 0.999 . S
H1053 C1034 0.913 . S
H1054 C1072 0.951 . S
H1055 C1074 0.951 . S
H1056 C1076 0.950 . S
H1057 C1077 0.950 . S
H1058 C1079 0.950 . S
H1059 C1082 0.950 . S
H1060 C1083 0.950 . S
H1061 C1085 0.950 . S
H1062 C1086 0.950 . S
H1063 C1087 0.951 . S
H1064 C1089 0.951 . S
H1065 C1091 0.950 . S
H1066 C1092 0.950 . S
H1067 C1094 0.950 . S
H1068 C1097 0.950 . S
H1069 C1098 0.950 . S
H1070 C1100 0.950 . S
H1071 C1101 0.950 . S
C1072 H1054 0.951 . S
C1072 C1073 1.366 . S
C1072 C1074 1.388 . S
C1073 C1072 1.366 . S
C1073 C1077 1.385 . S
C1074 H1055 0.951 . S
C1074 C1072 1.388 . S
C1074 C1075 1.366 . S
C1075 C1074 1.366 . S
C1075 C1076 1.414 . S
C1075 C1078 1.499 . S
C1076 H1056 0.950 . S
C1076 C1075 1.414 . S
C1076 C1077 1.374 . S
C1077 H1057 0.950 . S
C1077 C1073 1.385 . S
C1077 C1076 1.374 . S
C1078 C1075 1.499 . S
C1078 C1079 1.373 1_565 S
C1078 C1080 1.389 . S
C1079 H1058 0.950 . S
C1079 C1078 1.373 1_545 S
C1079 C1095 1.377 . S
C1080 C1078 1.389 . S
C1080 C1081 1.524 . S
C1080 C1094 1.377 . S
C1081 C1080 1.524 . S
C1081 C1082 1.397 . S
C1081 C1086 1.363 . S
C1082 H1059 0.950 . S
C1082 C1081 1.397 . S
C1082 C1083 1.334 . S
C1083 H1060 0.950 . S
C1083 C1082 1.334 . S
C1083 C1084 1.287 . S
C1084 C1083 1.287 . S
C1084 C1085 1.524 . S
C1084 H1103 0.913 . S
C1085 H1061 0.950 . S
C1085 C1084 1.524 . S
C1085 C1086 1.415 . S
C1086 H1062 0.950 . S
C1086 C1081 1.363 . S
C1086 C1085 1.415 . S
C1087 H1063 0.951 . S
C1087 C1088 1.366 . S
C1087 C1089 1.388 . S
C1088 C1087 1.366 . S
C1088 C1092 1.385 . S
C1089 H1064 0.951 . S
C1089 C1087 1.388 . S
C1089 C1090 1.366 . S
C1090 C1089 1.366 . S
C1090 C1091 1.414 . S
C1090 C1093 1.499 . S
C1091 H1065 0.950 . S
C1091 C1090 1.414 . S
C1091 C1092 1.374 . S
C1092 H1066 0.950 . S
C1092 C1088 1.385 . S
C1092 C1091 1.374 . S
C1093 C1090 1.499 . S
C1093 C1094 1.373 1_545 S
C1093 C1095 1.389 . S
C1094 H1067 0.950 . S
C1094 C1080 1.377 . S
C1094 C1093 1.373 1_565 S
C1095 C1079 1.377 . S
C1095 C1093 1.389 . S
C1095 C1096 1.524 . S
C1096 C1095 1.524 . S
C1096 C1097 1.397 . S
C1096 C1101 1.363 . S
C1097 H1068 0.950 . S
C1097 C1096 1.397 . S
C1097 C1098 1.334 . S
C1098 H1069 0.950 . S
C1098 C1097 1.334 . S
C1098 C1099 1.287 . S
C1099 C1098 1.287 . S
C1099 C1100 1.524 . S
C1099 H1102 0.999 . S
C1100 H1070 0.950 . S
C1100 C1099 1.524 . S
C1100 C1101 1.415 . S
C1101 H1071 0.950 . S
C1101 C1096 1.363 . S
C1101 C1100 1.415 . S
H1102 C1099 0.999 . S
H1103 C1084 0.913 . S
H1104 C1122 0.951 . S
H1105 C1124 0.951 . S
H1106 C1126 0.950 . S
H1107 C1127 0.950 . S
H1108 C1129 0.950 . S
H1109 C1132 0.950 . S
H1110 C1133 0.950 . S
H1111 C1135 0.950 . S
H1112 C1136 0.950 . S
H1113 C1137 0.951 . S
H1114 C1139 0.951 . S
H1115 C1141 0.950 . S
H1116 C1142 0.950 . S
H1117 C1144 0.950 . S
H1118 C1147 0.950 . S
H1119 C1148 0.950 . S
H1120 C1150 0.950 . S
H1121 C1151 0.950 . S
C1122 H1104 0.951 . S
C1122 C1123 1.366 . S
C1122 C1124 1.388 . S
C1123 C1122 1.366 . S
C1123 C1127 1.385 . S
C1124 H1105 0.951 . S
C1124 C1122 1.388 . S
C1124 C1125 1.366 . S
C1125 C1124 1.366 . S
C1125 C1126 1.414 . S
C1125 C1128 1.499 . S
C1126 H1106 0.950 . S
C1126 C1125 1.414 . S
C1126 C1127 1.374 . S
C1127 H1107 0.950 . S
C1127 C1123 1.385 . S
C1127 C1126 1.374 . S
C1128 C1125 1.499 . S
C1128 C1129 1.373 . S
C1128 C1130 1.389 . S
C1129 H1108 0.950 . S
C1129 C1128 1.373 . S
C1129 C1145 1.377 . S
C1130 C1128 1.389 . S
C1130 C1131 1.524 . S
C1130 C1144 1.377 . S
C1131 C1130 1.524 . S
C1131 C1132 1.397 . S
C1131 C1136 1.363 . S
C1132 H1109 0.950 . S
C1132 C1131 1.397 . S
C1132 C1133 1.334 . S
C1133 H1110 0.950 . S
C1133 C1132 1.334 . S
C1133 C1134 1.287 . S
C1134 C1133 1.287 . S
C1134 C1135 1.524 . S
C1134 H1153 0.913 . S
C1135 H1111 0.950 . S
C1135 C1134 1.524 . S
C1135 C1136 1.415 . S
C1136 H1112 0.950 . S
C1136 C1131 1.363 . S
C1136 C1135 1.415 . S
C1137 H1113 0.951 . S
C1137 C1138 1.366 . S
C1137 C1139 1.388 . S
C1138 C1137 1.366 . S
C1138 C1142 1.385 . S
C1139 H1114 0.951 . S
C1139 C1137 1.388 . S
C1139 C1140 1.366 . S
C1140 C1139 1.366 . S
C1140 C1141 1.414 . S
C1140 C1143 1.499 . S
C1141 H1115 0.950 . S
C1141 C1140 1.414 . S
C1141 C1142 1.374 . S
C1142 H1116 0.950 . S
C1142 C1138 1.385 . S
C1142 C1141 1.374 . S
C1143 C1140 1.499 . S
C1143 C1144 1.373 . S
C1143 C1145 1.389 . S
C1144 H1117 0.950 . S
C1144 C1130 1.377 . S
C1144 C1143 1.373 . S
C1145 C1129 1.377 . S
C1145 C1143 1.389 . S
C1145 C1146 1.524 . S
C1146 C1145 1.524 . S
C1146 C1147 1.397 . S
C1146 C1151 1.363 . S
C1147 H1118 0.950 . S
C1147 C1146 1.397 . S
C1147 C1148 1.334 . S
C1148 H1119 0.950 . S
C1148 C1147 1.334 . S
C1148 C1149 1.287 . S
C1149 C1148 1.287 . S
C1149 C1150 1.524 . S
C1149 H1152 0.999 . S
C1150 H1120 0.950 . S
C1150 C1149 1.524 . S
C1150 C1151 1.415 . S
C1151 H1121 0.950 . S
C1151 C1146 1.363 . S
C1151 C1150 1.415 . S
H1152 C1149 0.999 . S
H1153 C1134 0.913 . S
H1154 C1172 0.951 1_455 S
H1155 C1174 0.951 . S
H1156 C1176 0.950 . S
H1157 C1177 0.950 . S
H1158 C1179 0.950 . S
H1159 C1182 0.950 1_655 S
H1160 C1183 0.950 1_655 S
H1161 C1185 0.950 . S
H1162 C1186 0.950 . S
H1163 C1187 0.951 . S
H1164 C1189 0.951 . S
H1165 C1191 0.950 . S
H1166 C1192 0.950 . S
H1167 C1194 0.950 . S
H1168 C1197 0.950 . S
H1169 C1198 0.950 . S
H1170 C1200 0.950 1_655 S
H1171 C1201 0.950 1_655 S
C1172 H1154 0.951 1_655 S
C1172 C1173 1.366 . S
C1172 C1174 1.388 1_655 S
C1173 C1172 1.366 . S
C1173 C1177 1.385 . S
C1174 H1155 0.951 . S
C1174 C1172 1.388 1_455 S
C1174 C1175 1.366 . S
C1175 C1174 1.366 . S
C1175 C1176 1.414 1_455 S
C1175 C1178 1.499 . S
C1176 H1156 0.950 . S
C1176 C1175 1.414 1_655 S
C1176 C1177 1.374 . S
C1177 H1157 0.950 . S
C1177 C1173 1.385 . S
C1177 C1176 1.374 . S
C1178 C1175 1.499 . S
C1178 C1179 1.373 . S
C1178 C1180 1.389 . S
C1179 H1158 0.950 . S
C1179 C1178 1.373 . S
C1179 C1195 1.377 . S
C1180 C1178 1.389 . S
C1180 C1181 1.524 . S
C1180 C1194 1.377 . S
C1181 C1180 1.524 . S
C1181 C1182 1.397 . S
C1181 C1186 1.363 . S
C1182 H1159 0.950 1_455 S
C1182 C1181 1.397 . S
C1182 C1183 1.334 . S
C1183 H1160 0.950 1_455 S
C1183 C1182 1.334 . S
C1183 C1184 1.287 . S
C1184 C1183 1.287 . S
C1184 C1185 1.524 . S
C1184 H1203 0.913 . S
C1185 H1161 0.950 . S
C1185 C1184 1.524 . S
C1185 C1186 1.415 . S
C1186 H1162 0.950 . S
C1186 C1181 1.363 . S
C1186 C1185 1.415 . S
C1187 H1163 0.951 . S
C1187 C1188 1.366 . S
C1187 C1189 1.388 . S
C1188 C1187 1.366 . S
C1188 C1192 1.385 . S
C1189 H1164 0.951 . S
C1189 C1187 1.388 . S
C1189 C1190 1.366 . S
C1190 C1189 1.366 . S
C1190 C1191 1.414 . S
C1190 C1193 1.499 . S
C1191 H1165 0.950 . S
C1191 C1190 1.414 . S
C1191 C1192 1.374 . S
C1192 H1166 0.950 . S
C1192 C1188 1.385 . S
C1192 C1191 1.374 . S
C1193 C1190 1.499 . S
C1193 C1194 1.373 . S
C1193 C1195 1.389 . S
C1194 H1167 0.950 . S
C1194 C1180 1.377 . S
C1194 C1193 1.373 . S
C1195 C1179 1.377 . S
C1195 C1193 1.389 . S
C1195 C1196 1.524 . S
C1196 C1195 1.524 . S
C1196 C1197 1.397 . S
C1196 C1201 1.363 . S
C1197 H1168 0.950 . S
C1197 C1196 1.397 . S
C1197 C1198 1.334 . S
C1198 H1169 0.950 . S
C1198 C1197 1.334 . S
C1198 C1199 1.287 . S
C1199 C1198 1.287 . S
C1199 C1200 1.524 . S
C1199 H1202 0.999 . S
C1200 H1170 0.950 1_455 S
C1200 C1199 1.524 . S
C1200 C1201 1.415 . S
C1201 H1171 0.950 1_455 S
C1201 C1196 1.363 . S
C1201 C1200 1.415 . S
H1202 C1199 0.999 . S
H1203 C1184 0.913 . S
H1204 C1222 0.951 . S
H1205 C1224 0.951 1_545 S
H1206 C1226 0.950 1_545 S
H1207 C1227 0.950 . S
H1208 C1229 0.950 1_565 S
H1209 C1232 0.950 . S
H1210 C1233 0.950 . S
H1211 C1235 0.950 . S
H1212 C1236 0.950 . S
H1213 C1237 0.951 . S
H1214 C1239 0.951 . S
H1215 C1241 0.950 . S
H1216 C1242 0.950 . S
H1217 C1244 0.950 . S
H1218 C1247 0.950 . S
H1219 C1248 0.948 1_565 S
H1220 C1250 0.950 . S
H1221 C1251 0.950 . S
C1222 H1204 0.951 . S
C1222 C1223 1.366 . S
C1222 C1224 1.388 . S
C1223 C1222 1.366 . S
C1223 C1227 1.385 . S
C1224 H1205 0.951 1_565 S
C1224 C1222 1.388 . S
C1224 C1225 1.366 1_565 S
C1225 C1224 1.366 1_545 S
C1225 C1226 1.414 1_545 S
C1225 C1228 1.499 . S
C1226 H1206 0.950 1_565 S
C1226 C1225 1.414 1_565 S
C1226 C1227 1.374 . S
C1227 H1207 0.950 . S
C1227 C1223 1.385 . S
C1227 C1226 1.374 . S
C1228 C1225 1.499 . S
C1228 C1229 1.373 . S
C1228 C1230 1.389 . S
C1229 H1208 0.950 1_545 S
C1229 C1228 1.373 . S
C1229 C1245 1.377 . S
C1230 C1228 1.389 . S
C1230 C1231 1.524 . S
C1230 C1244 1.377 . S
C1231 C1230 1.524 . S
C1231 C1232 1.397 . S
C1231 C1236 1.363 . S
C1232 H1209 0.950 . S
C1232 C1231 1.397 . S
C1232 C1233 1.334 . S
C1233 H1210 0.950 . S
C1233 C1232 1.334 . S
C1233 C1234 1.287 . S
C1234 C1233 1.287 . S
C1234 C1235 1.524 . S
C1234 H1253 0.913 . S
C1235 H1211 0.950 . S
C1235 C1234 1.524 . S
C1235 C1236 1.415 . S
C1236 H1212 0.950 . S
C1236 C1231 1.363 . S
C1236 C1235 1.415 . S
C1237 H1213 0.951 . S
C1237 C1238 1.366 . S
C1237 C1239 1.388 . S
C1238 C1237 1.366 . S
C1238 C1242 1.385 . S
C1239 H1214 0.951 . S
C1239 C1237 1.388 . S
C1239 C1240 1.366 . S
C1240 C1239 1.366 . S
C1240 C1241 1.414 . S
C1240 C1243 1.499 . S
C1241 H1215 0.950 . S
C1241 C1240 1.414 . S
C1241 C1242 1.374 . S
C1242 H1216 0.950 . S
C1242 C1238 1.385 . S
C1242 C1241 1.374 . S
C1243 C1240 1.499 . S
C1243 C1244 1.373 . S
C1243 C1245 1.389 . S
C1244 H1217 0.950 . S
C1244 C1230 1.377 . S
C1244 C1243 1.373 . S
C1245 C1229 1.377 . S
C1245 C1243 1.389 . S
C1245 C1246 1.524 . S
C1246 C1245 1.524 . S
C1246 C1247 1.397 . S
C1246 C1251 1.363 . S
C1247 H1218 0.950 . S
C1247 C1246 1.397 . S
C1247 C1248 1.335 . S
C1248 H1219 0.948 1_545 S
C1248 C1247 1.335 . S
C1248 C1249 1.289 1_545 S
C1249 C1248 1.289 1_565 S
C1249 C1250 1.524 . S
C1249 H1252 0.999 . S
C1250 H1220 0.950 . S
C1250 C1249 1.524 . S
C1250 C1251 1.415 1_565 S
C1251 H1221 0.950 . S
C1251 C1246 1.363 . S
C1251 C1250 1.415 1_545 S
H1252 C1249 0.999 . S
H1253 C1234 0.913 . S
H1254 C1272 0.951 . S
H1255 C1274 0.951 . S
H1256 C1276 0.950 . S
H1257 C1277 0.950 . S
H1258 C1279 0.950 . S
H1259 C1282 0.950 . S
H1260 C1283 0.950 . S
H1261 C1285 0.950 . S
H1262 C1286 0.950 . S
H1263 C1287 0.951 . S
H1264 C1289 0.951 . S
H1265 C1291 0.950 . S
H1266 C1292 0.950 . S
H1267 C1294 0.950 . S
H1268 C1297 0.950 . S
H1269 C1298 0.950 . S
H1270 C1300 0.950 . S
H1271 C1301 0.950 . S
C1272 H1254 0.951 . S
C1272 C1273 1.366 . S
C1272 C1274 1.388 . S
C1273 C1272 1.366 . S
C1273 C1277 1.385 . S
C1274 H1255 0.951 . S
C1274 C1272 1.388 . S
C1274 C1275 1.366 . S
C1275 C1274 1.366 . S
C1275 C1276 1.414 . S
C1275 C1278 1.499 . S
C1276 H1256 0.950 . S
C1276 C1275 1.414 . S
C1276 C1277 1.374 . S
C1277 H1257 0.950 . S
C1277 C1273 1.385 . S
C1277 C1276 1.374 . S
C1278 C1275 1.499 . S
C1278 C1279 1.373 . S
C1278 C1280 1.389 . S
C1279 H1258 0.950 . S
C1279 C1278 1.373 . S
C1279 C1295 1.377 . S
C1280 C1278 1.389 . S
C1280 C1281 1.524 . S
C1280 C1294 1.377 . S
C1281 C1280 1.524 . S
C1281 C1282 1.397 . S
C1281 C1286 1.363 . S
C1282 H1259 0.950 . S
C1282 C1281 1.397 . S
C1282 C1283 1.334 . S
C1283 H1260 0.950 . S
C1283 C1282 1.334 . S
C1283 C1284 1.287 . S
C1284 C1283 1.287 . S
C1284 C1285 1.524 . S
C1284 H1303 0.913 . S
C1285 H1261 0.950 . S
C1285 C1284 1.524 . S
C1285 C1286 1.415 . S
C1286 H1262 0.950 . S
C1286 C1281 1.363 . S
C1286 C1285 1.415 . S
C1287 H1263 0.951 . S
C1287 C1288 1.366 . S
C1287 C1289 1.388 . S
C1288 C1287 1.366 . S
C1288 C1292 1.385 . S
C1289 H1264 0.951 . S
C1289 C1287 1.388 . S
C1289 C1290 1.366 . S
C1290 C1289 1.366 . S
C1290 C1291 1.414 . S
C1290 C1293 1.499 . S
C1291 H1265 0.950 . S
C1291 C1290 1.414 . S
C1291 C1292 1.374 . S
C1292 H1266 0.950 . S
C1292 C1288 1.385 . S
C1292 C1291 1.374 . S
C1293 C1290 1.499 . S
C1293 C1294 1.373 . S
C1293 C1295 1.389 . S
C1294 H1267 0.950 . S
C1294 C1280 1.377 . S
C1294 C1293 1.373 . S
C1295 C1279 1.377 . S
C1295 C1293 1.389 . S
C1295 C1296 1.524 . S
C1296 C1295 1.524 . S
C1296 C1297 1.397 . S
C1296 C1301 1.363 . S
C1297 H1268 0.950 . S
C1297 C1296 1.397 . S
C1297 C1298 1.334 . S
C1298 H1269 0.950 . S
C1298 C1297 1.334 . S
C1298 C1299 1.287 . S
C1299 C1298 1.287 . S
C1299 C1300 1.524 . S
C1299 H1302 0.999 . S
C1300 H1270 0.950 . S
C1300 C1299 1.524 . S
C1300 C1301 1.415 . S
C1301 H1271 0.950 . S
C1301 C1296 1.363 . S
C1301 C1300 1.415 . S
H1302 C1299 0.999 . S
H1303 C1284 0.913 . S
H1304 C1322 0.951 . S
H1305 C1324 0.951 . S
H1306 C1326 0.950 . S
H1307 C1327 0.950 . S
H1308 C1329 0.950 1_455 S
H1309 C1332 0.950 . S
H1310 C1333 0.950 . S
H1311 C1335 0.950 . S
H1312 C1336 0.950 . S
H1313 C1337 0.951 . S
H1314 C1339 0.951 . S
H1315 C1341 0.950 . S
H1316 C1342 0.950 . S
H1317 C1344 0.950 . S
H1318 C1347 0.950 . S
H1319 C1348 0.949 . S
H1320 C1350 0.950 . S
H1321 C1351 0.950 . S
C1322 H1304 0.951 . S
C1322 C1323 1.366 . S
C1322 C1324 1.388 1_455 S
C1323 C1322 1.366 . S
C1323 C1327 1.385 . S
C1324 H1305 0.951 . S
C1324 C1322 1.388 1_655 S
C1324 C1325 1.366 . S
C1325 C1324 1.366 . S
C1325 C1326 1.414 1_655 S
C1325 C1328 1.499 . S
C1326 H1306 0.950 . S
C1326 C1325 1.414 1_455 S
C1326 C1327 1.374 . S
C1327 H1307 0.950 . S
C1327 C1323 1.385 . S
C1327 C1326 1.374 . S
C1328 C1325 1.499 . S
C1328 C1329 1.373 . S
C1328 C1330 1.389 . S
C1329 H1308 0.950 1_655 S
C1329 C1328 1.373 . S
C1329 C1345 1.377 . S
C1330 C1328 1.389 . S
C1330 C1331 1.524 . S
C1330 C1344 1.377 . S
C1331 C1330 1.524 . S
C1331 C1332 1.397 . S
C1331 C1336 1.363 . S
C1332 H1309 0.950 . S
C1332 C1331 1.397 . S
C1332 C1333 1.334 . S
C1333 H1310 0.950 . S
C1333 C1332 1.334 . S
C1333 C1334 1.287 . S
C1334 C1333 1.287 . S
C1334 C1335 1.524 . S
C1334 H1353 0.913 . S
C1335 H1311 0.950 . S
C1335 C1334 1.524 . S
C1335 C1336 1.415 . S
C1336 H1312 0.950 . S
C1336 C1331 1.363 . S
C1336 C1335 1.415 . S
C1337 H1313 0.951 . S
C1337 C1338 1.366 . S
C1337 C1339 1.388 . S
C1338 C1337 1.366 . S
C1338 C1342 1.385 . S
C1339 H1314 0.951 . S
C1339 C1337 1.388 . S
C1339 C1340 1.366 . S
C1340 C1339 1.366 . S
C1340 C1341 1.414 . S
C1340 C1343 1.499 . S
C1341 H1315 0.950 . S
C1341 C1340 1.414 . S
C1341 C1342 1.374 . S
C1342 H1316 0.950 . S
C1342 C1338 1.385 . S
C1342 C1341 1.374 . S
C1343 C1340 1.499 . S
C1343 C1344 1.373 . S
C1343 C1345 1.389 . S
C1344 H1317 0.950 . S
C1344 C1330 1.377 . S
C1344 C1343 1.373 . S
C1345 C1329 1.377 . S
C1345 C1343 1.389 . S
C1345 C1346 1.524 . S
C1346 C1345 1.524 . S
C1346 C1347 1.397 . S
C1346 C1351 1.363 1_655 S
C1347 H1318 0.950 . S
C1347 C1346 1.397 . S
C1347 C1348 1.333 . S
C1348 H1319 0.949 . S
C1348 C1347 1.333 . S
C1348 C1349 1.288 1_655 S
C1349 C1348 1.288 1_455 S
C1349 C1350 1.524 . S
C1349 H1352 0.999 . S
C1350 H1320 0.950 . S
C1350 C1349 1.524 . S
C1350 C1351 1.415 . S
C1351 H1321 0.950 . S
C1351 C1346 1.363 1_455 S
C1351 C1350 1.415 . S
H1352 C1349 0.999 . S
H1353 C1334 0.913 . S
H1354 C1372 0.951 . S
H1355 C1374 0.951 . S
H1356 C1376 0.950 . S
H1357 C1377 0.950 . S
H1358 C1379 0.950 1_545 S
H1359 C1382 0.950 . S
H1360 C1383 0.950 . S
H1361 C1385 0.950 . S
H1362 C1386 0.950 . S
H1363 C1387 0.951 . S
H1364 C1389 0.951 . S
H1365 C1391 0.950 . S
H1366 C1392 0.950 . S
H1367 C1394 0.950 . S
H1368 C1397 0.950 . S
H1369 C1398 0.950 . S
H1370 C1400 0.950 . S
H1371 C1401 0.950 . S
C1372 H1354 0.951 . S
C1372 C1373 1.366 . S
C1372 C1374 1.388 1_545 S
C1373 C1372 1.366 . S
C1373 C1377 1.385 . S
C1374 H1355 0.951 . S
C1374 C1372 1.388 1_565 S
C1374 C1375 1.366 . S
C1375 C1374 1.366 . S
C1375 C1376 1.414 1_565 S
C1375 C1378 1.499 . S
C1376 H1356 0.950 . S
C1376 C1375 1.414 1_545 S
C1376 C1377 1.374 . S
C1377 H1357 0.950 . S
C1377 C1373 1.385 . S
C1377 C1376 1.374 . S
C1378 C1375 1.499 . S
C1378 C1379 1.373 . S
C1378 C1380 1.389 . S
C1379 H1358 0.950 1_565 S
C1379 C1378 1.373 . S
C1379 C1395 1.377 . S
C1380 C1378 1.389 . S
C1380 C1381 1.524 . S
C1380 C1394 1.377 . S
C1381 C1380 1.524 . S
C1381 C1382 1.397 . S
C1381 C1386 1.363 . S
C1382 H1359 0.950 . S
C1382 C1381 1.397 . S
C1382 C1383 1.334 . S
C1383 H1360 0.950 . S
C1383 C1382 1.334 . S
C1383 C1384 1.287 . S
C1384 C1383 1.287 . S
C1384 C1385 1.524 . S
C1384 H1403 0.913 . S
C1385 H1361 0.950 . S
C1385 C1384 1.524 . S
C1385 C1386 1.415 . S
C1386 H1362 0.950 . S
C1386 C1381 1.363 . S
C1386 C1385 1.415 . S
C1387 H1363 0.951 . S
C1387 C1388 1.366 . S
C1387 C1389 1.388 . S
C1388 C1387 1.366 . S
C1388 C1392 1.385 . S
C1389 H1364 0.951 . S
C1389 C1387 1.388 . S
C1389 C1390 1.366 . S
C1390 C1389 1.366 . S
C1390 C1391 1.414 . S
C1390 C1393 1.499 . S
C1391 H1365 0.950 . S
C1391 C1390 1.414 . S
C1391 C1392 1.374 . S
C1392 H1366 0.950 . S
C1392 C1388 1.385 . S
C1392 C1391 1.374 . S
C1393 C1390 1.499 . S
C1393 C1394 1.373 . S
C1393 C1395 1.389 . S
C1394 H1367 0.950 . S
C1394 C1380 1.377 . S
C1394 C1393 1.373 . S
C1395 C1379 1.377 . S
C1395 C1393 1.389 . S
C1395 C1396 1.524 . S
C1396 C1395 1.524 . S
C1396 C1397 1.397 . S
C1396 C1401 1.363 1_565 S
C1397 H1368 0.950 . S
C1397 C1396 1.397 . S
C1397 C1398 1.334 . S
C1398 H1369 0.950 . S
C1398 C1397 1.334 . S
C1398 C1399 1.287 1_565 S
C1399 C1398 1.287 1_545 S
C1399 C1400 1.524 . S
C1399 H1402 0.999 . S
C1400 H1370 0.950 . S
C1400 C1399 1.524 . S
C1400 C1401 1.415 . S
C1401 H1371 0.950 . S
C1401 C1396 1.363 1_545 S
C1401 C1400 1.415 . S
H1402 C1399 0.999 . S
H1403 C1384 0.913 . S
C523 C392 1.108 . S
C538 C72 0.988 . S
C573 C476 1.109 . S
C588 C156 0.991 . S
C623 C56 1.109 . S
C638 C240 0.989 . S
C673 C140 1.109 . S
C688 C324 0.991 . S
C723 C224 1.108 . S
C738 C408 0.988 . S
C773 C308 1.109 . S
C788 C492 0.991 . S
C823 C75 1.622 . S
C838 C327 1.623 . S
C873 C411 1.622 . S
C888 C159 1.623 . S
C923 C495 1.622 . S
C938 C243 1.623 . S
C973 C234 1.679 . S
C988 C486 1.679 . S
C1023 C66 1.679 . S
C1038 C318 1.680 . S
C1073 C402 1.680 . S
C1088 C150 1.680 . S
C1123 C487 1.191 . S
C1138 C63 1.180 . S
C1173 C147 1.180 . S
C1188 C67 1.192 . S
C1223 C231 1.181 . S
C1238 C151 1.192 . S
C1273 C235 1.193 . S
C1288 C315 1.182 . S
C1323 C399 1.180 . S
C1338 C319 1.192 . S
C1373 C483 1.180 . S
C1388 C403 1.192 . S
