# Generated by pormake.
# Topology pbg, (3)-cn, num edge types: 1
# Building blocks:
#     Node 0, Type 0, BuildingBlock: WUSLED_clean_sbu_0, # of connection points: 3
#     Node 1, Type 0, BuildingBlock: WUSLED_clean_sbu_0, # of connection points: 3
#     Node 2, Type 0, BuildingBlock: WUSLED_clean_sbu_0, # of connection points: 3
#     Node 3, Type 0, BuildingBlock: WUSLED_clean_sbu_0, # of connection points: 3
#     Node 4, Type 0, BuildingBlock: WUSLED_clean_sbu_0, # of connection points: 3
#     Node 5, Type 0, BuildingBlock: WUSLED_clean_sbu_0, # of connection points: 3
#     Node 6, Type 0, BuildingBlock: WUSLED_clean_sbu_0, # of connection points: 3
#     Node 7, Type 0, BuildingBlock: WUSLED_clean_sbu_0, # of connection points: 3
#     Node 8, Type 0, BuildingBlock: WUSLED_clean_sbu_0, # of connection points: 3
#     Node 9, Type 0, BuildingBlock: WUSLED_clean_sbu_0, # of connection points: 3
#     Node 10, Type 0, BuildingBlock: WUSLED_clean_sbu_0, # of connection points: 3
#     Node 11, Type 0, BuildingBlock: WUSLED_clean_sbu_0, # of connection points: 3
#     Node 12, Type 0, BuildingBlock: WUSLED_clean_sbu_0, # of connection points: 3
#     Node 13, Type 0, BuildingBlock: WUSLED_clean_sbu_0, # of connection points: 3
#     Node 14, Type 0, BuildingBlock: WUSLED_clean_sbu_0, # of connection points: 3
#     Node 15, Type 0, BuildingBlock: WUSLED_clean_sbu_0, # of connection points: 3
#     Node 16, Type 0, BuildingBlock: WUSLED_clean_sbu_0, # of connection points: 3
#     Node 17, Type 0, BuildingBlock: WUSLED_clean_sbu_0, # of connection points: 3
#     Node 18, Type 0, BuildingBlock: WUSLED_clean_sbu_0, # of connection points: 3
#     Node 19, Type 0, BuildingBlock: WUSLED_clean_sbu_0, # of connection points: 3
#     Node 20, Type 0, BuildingBlock: WUSLED_clean_sbu_0, # of connection points: 3
#     Node 21, Type 0, BuildingBlock: WUSLED_clean_sbu_0, # of connection points: 3
#     Node 22, Type 0, BuildingBlock: WUSLED_clean_sbu_0, # of connection points: 3
#     Node 23, Type 0, BuildingBlock: WUSLED_clean_sbu_0, # of connection points: 3
#     Node 24, Type 0, BuildingBlock: WUSLED_clean_sbu_0, # of connection points: 3
#     Node 25, Type 0, BuildingBlock: WUSLED_clean_sbu_0, # of connection points: 3
#     Node 26, Type 0, BuildingBlock: WUSLED_clean_sbu_0, # of connection points: 3
#     Node 27, Type 0, BuildingBlock: WUSLED_clean_sbu_0, # of connection points: 3
#     Node 28, Type 0, BuildingBlock: WUSLED_clean_sbu_0, # of connection points: 3
#     Node 29, Type 0, BuildingBlock: WUSLED_clean_sbu_0, # of connection points: 3
#     Node 30, Type 0, BuildingBlock: WUSLED_clean_sbu_0, # of connection points: 3
#     Node 31, Type 0, BuildingBlock: WUSLED_clean_sbu_0, # of connection points: 3
#     Node 32, Type 0, BuildingBlock: WUSLED_clean_sbu_0, # of connection points: 3
#     Node 33, Type 0, BuildingBlock: WUSLED_clean_sbu_0, # of connection points: 3
#     Node 34, Type 0, BuildingBlock: WUSLED_clean_sbu_0, # of connection points: 3
#     Node 35, Type 0, BuildingBlock: WUSLED_clean_sbu_0, # of connection points: 3
#     Node 36, Type 0, BuildingBlock: WUSLED_clean_sbu_0, # of connection points: 3
#     Node 37, Type 0, BuildingBlock: WUSLED_clean_sbu_0, # of connection points: 3
#     Node 38, Type 0, BuildingBlock: WUSLED_clean_sbu_0, # of connection points: 3
#     Node 39, Type 0, BuildingBlock: WUSLED_clean_sbu_0, # of connection points: 3
#     Node 40, Type 0, BuildingBlock: WUSLED_clean_sbu_0, # of connection points: 3
#     Node 41, Type 0, BuildingBlock: WUSLED_clean_sbu_0, # of connection points: 3
#     Node 42, Type 0, BuildingBlock: WUSLED_clean_sbu_0, # of connection points: 3
#     Node 43, Type 0, BuildingBlock: WUSLED_clean_sbu_0, # of connection points: 3
#     Node 44, Type 0, BuildingBlock: WUSLED_clean_sbu_0, # of connection points: 3
#     Node 45, Type 0, BuildingBlock: WUSLED_clean_sbu_0, # of connection points: 3
#     Node 46, Type 0, BuildingBlock: WUSLED_clean_sbu_0, # of connection points: 3
#     Node 47, Type 0, BuildingBlock: WUSLED_clean_sbu_0, # of connection points: 3
#     Node 48, Type 0, BuildingBlock: WUSLED_clean_sbu_0, # of connection points: 3
#     Node 49, Type 0, BuildingBlock: WUSLED_clean_sbu_0, # of connection points: 3
#     Node 50, Type 0, BuildingBlock: WUSLED_clean_sbu_0, # of connection points: 3
#     Node 51, Type 0, BuildingBlock: WUSLED_clean_sbu_0, # of connection points: 3
#     Node 52, Type 0, BuildingBlock: WUSLED_clean_sbu_0, # of connection points: 3
#     Node 53, Type 0, BuildingBlock: WUSLED_clean_sbu_0, # of connection points: 3
#     Node 54, Type 0, BuildingBlock: WUSLED_clean_sbu_0, # of connection points: 3
#     Node 55, Type 0, BuildingBlock: WUSLED_clean_sbu_0, # of connection points: 3
#     Node 56, Type 0, BuildingBlock: WUSLED_clean_sbu_0, # of connection points: 3
#     Node 57, Type 0, BuildingBlock: WUSLED_clean_sbu_0, # of connection points: 3
#     Node 58, Type 0, BuildingBlock: WUSLED_clean_sbu_0, # of connection points: 3
#     Node 59, Type 0, BuildingBlock: WUSLED_clean_sbu_0, # of connection points: 3
#     Node 60, Type 0, BuildingBlock: WUSLED_clean_sbu_0, # of connection points: 3
#     Node 61, Type 0, BuildingBlock: WUSLED_clean_sbu_0, # of connection points: 3
#     Node 62, Type 0, BuildingBlock: WUSLED_clean_sbu_0, # of connection points: 3
#     Node 63, Type 0, BuildingBlock: WUSLED_clean_sbu_0, # of connection points: 3
#     Node 64, Type 0, BuildingBlock: WUSLED_clean_sbu_0, # of connection points: 3
#     Node 65, Type 0, BuildingBlock: WUSLED_clean_sbu_0, # of connection points: 3
#     Node 66, Type 0, BuildingBlock: WUSLED_clean_sbu_0, # of connection points: 3
#     Node 67, Type 0, BuildingBlock: WUSLED_clean_sbu_0, # of connection points: 3
#     Node 68, Type 0, BuildingBlock: WUSLED_clean_sbu_0, # of connection points: 3
#     Node 69, Type 0, BuildingBlock: WUSLED_clean_sbu_0, # of connection points: 3
#     Node 70, Type 0, BuildingBlock: WUSLED_clean_sbu_0, # of connection points: 3
#     Node 71, Type 0, BuildingBlock: WUSLED_clean_sbu_0, # of connection points: 3
#     Node 72, Type 0, BuildingBlock: WUSLED_clean_sbu_0, # of connection points: 3
#     Node 73, Type 0, BuildingBlock: WUSLED_clean_sbu_0, # of connection points: 3
#     Node 74, Type 0, BuildingBlock: WUSLED_clean_sbu_0, # of connection points: 3
#     Node 75, Type 0, BuildingBlock: WUSLED_clean_sbu_0, # of connection points: 3
#     Node 76, Type 0, BuildingBlock: WUSLED_clean_sbu_0, # of connection points: 3
#     Node 77, Type 0, BuildingBlock: WUSLED_clean_sbu_0, # of connection points: 3
#     Node 78, Type 0, BuildingBlock: WUSLED_clean_sbu_0, # of connection points: 3
#     Node 79, Type 0, BuildingBlock: WUSLED_clean_sbu_0, # of connection points: 3
#     Node 80, Type 0, BuildingBlock: WUSLED_clean_sbu_0, # of connection points: 3
#     Node 81, Type 0, BuildingBlock: WUSLED_clean_sbu_0, # of connection points: 3
#     Node 82, Type 0, BuildingBlock: WUSLED_clean_sbu_0, # of connection points: 3
#     Node 83, Type 0, BuildingBlock: WUSLED_clean_sbu_0, # of connection points: 3
#     Node 84, Type 0, BuildingBlock: WUSLED_clean_sbu_0, # of connection points: 3
#     Node 85, Type 0, BuildingBlock: WUSLED_clean_sbu_0, # of connection points: 3
#     Node 86, Type 0, BuildingBlock: WUSLED_clean_sbu_0, # of connection points: 3
#     Node 87, Type 0, BuildingBlock: WUSLED_clean_sbu_0, # of connection points: 3
#     Node 88, Type 0, BuildingBlock: WUSLED_clean_sbu_0, # of connection points: 3
#     Node 89, Type 0, BuildingBlock: WUSLED_clean_sbu_0, # of connection points: 3
#     Node 90, Type 0, BuildingBlock: WUSLED_clean_sbu_0, # of connection points: 3
#     Node 91, Type 0, BuildingBlock: WUSLED_clean_sbu_0, # of connection points: 3
#     Node 92, Type 0, BuildingBlock: WUSLED_clean_sbu_0, # of connection points: 3
#     Node 93, Type 0, BuildingBlock: WUSLED_clean_sbu_0, # of connection points: 3
#     Node 94, Type 0, BuildingBlock: WUSLED_clean_sbu_0, # of connection points: 3
#     Node 95, Type 0, BuildingBlock: WUSLED_clean_sbu_0, # of connection points: 3
#     Edge 96, Type (0, 0), BuildingBlock: EZIPEK_clean_linker_0, # of connection points: 2
#     Edge 97, Type (0, 0), BuildingBlock: EZIPEK_clean_linker_0, # of connection points: 2
#     Edge 98, Type (0, 0), BuildingBlock: EZIPEK_clean_linker_0, # of connection points: 2
#     Edge 99, Type (0, 0), BuildingBlock: EZIPEK_clean_linker_0, # of connection points: 2
#     Edge 100, Type (0, 0), BuildingBlock: EZIPEK_clean_linker_0, # of connection points: 2
#     Edge 101, Type (0, 0), BuildingBlock: EZIPEK_clean_linker_0, # of connection points: 2
#     Edge 102, Type (0, 0), BuildingBlock: EZIPEK_clean_linker_0, # of connection points: 2
#     Edge 103, Type (0, 0), BuildingBlock: EZIPEK_clean_linker_0, # of connection points: 2
#     Edge 104, Type (0, 0), BuildingBlock: EZIPEK_clean_linker_0, # of connection points: 2
#     Edge 105, Type (0, 0), BuildingBlock: EZIPEK_clean_linker_0, # of connection points: 2
#     Edge 106, Type (0, 0), BuildingBlock: EZIPEK_clean_linker_0, # of connection points: 2
#     Edge 107, Type (0, 0), BuildingBlock: EZIPEK_clean_linker_0, # of connection points: 2
#     Edge 108, Type (0, 0), BuildingBlock: EZIPEK_clean_linker_0, # of connection points: 2
#     Edge 109, Type (0, 0), BuildingBlock: EZIPEK_clean_linker_0, # of connection points: 2
#     Edge 110, Type (0, 0), BuildingBlock: EZIPEK_clean_linker_0, # of connection points: 2
#     Edge 111, Type (0, 0), BuildingBlock: EZIPEK_clean_linker_0, # of connection points: 2
#     Edge 112, Type (0, 0), BuildingBlock: EZIPEK_clean_linker_0, # of connection points: 2
#     Edge 113, Type (0, 0), BuildingBlock: EZIPEK_clean_linker_0, # of connection points: 2
#     Edge 114, Type (0, 0), BuildingBlock: EZIPEK_clean_linker_0, # of connection points: 2
#     Edge 115, Type (0, 0), BuildingBlock: EZIPEK_clean_linker_0, # of connection points: 2
#     Edge 116, Type (0, 0), BuildingBlock: EZIPEK_clean_linker_0, # of connection points: 2
#     Edge 117, Type (0, 0), BuildingBlock: EZIPEK_clean_linker_0, # of connection points: 2
#     Edge 118, Type (0, 0), BuildingBlock: EZIPEK_clean_linker_0, # of connection points: 2
#     Edge 119, Type (0, 0), BuildingBlock: EZIPEK_clean_linker_0, # of connection points: 2
#     Edge 120, Type (0, 0), BuildingBlock: EZIPEK_clean_linker_0, # of connection points: 2
#     Edge 121, Type (0, 0), BuildingBlock: EZIPEK_clean_linker_0, # of connection points: 2
#     Edge 122, Type (0, 0), BuildingBlock: EZIPEK_clean_linker_0, # of connection points: 2
#     Edge 123, Type (0, 0), BuildingBlock: EZIPEK_clean_linker_0, # of connection points: 2
#     Edge 124, Type (0, 0), BuildingBlock: EZIPEK_clean_linker_0, # of connection points: 2
#     Edge 125, Type (0, 0), BuildingBlock: EZIPEK_clean_linker_0, # of connection points: 2
#     Edge 126, Type (0, 0), BuildingBlock: EZIPEK_clean_linker_0, # of connection points: 2
#     Edge 127, Type (0, 0), BuildingBlock: EZIPEK_clean_linker_0, # of connection points: 2
#     Edge 128, Type (0, 0), BuildingBlock: EZIPEK_clean_linker_0, # of connection points: 2
#     Edge 129, Type (0, 0), BuildingBlock: EZIPEK_clean_linker_0, # of connection points: 2
#     Edge 130, Type (0, 0), BuildingBlock: EZIPEK_clean_linker_0, # of connection points: 2
#     Edge 131, Type (0, 0), BuildingBlock: EZIPEK_clean_linker_0, # of connection points: 2
#     Edge 132, Type (0, 0), BuildingBlock: EZIPEK_clean_linker_0, # of connection points: 2
#     Edge 133, Type (0, 0), BuildingBlock: EZIPEK_clean_linker_0, # of connection points: 2
#     Edge 134, Type (0, 0), BuildingBlock: EZIPEK_clean_linker_0, # of connection points: 2
#     Edge 135, Type (0, 0), BuildingBlock: EZIPEK_clean_linker_0, # of connection points: 2
#     Edge 136, Type (0, 0), BuildingBlock: EZIPEK_clean_linker_0, # of connection points: 2
#     Edge 137, Type (0, 0), BuildingBlock: EZIPEK_clean_linker_0, # of connection points: 2
#     Edge 138, Type (0, 0), BuildingBlock: EZIPEK_clean_linker_0, # of connection points: 2
#     Edge 139, Type (0, 0), BuildingBlock: EZIPEK_clean_linker_0, # of connection points: 2
#     Edge 140, Type (0, 0), BuildingBlock: EZIPEK_clean_linker_0, # of connection points: 2
#     Edge 141, Type (0, 0), BuildingBlock: EZIPEK_clean_linker_0, # of connection points: 2
#     Edge 142, Type (0, 0), BuildingBlock: EZIPEK_clean_linker_0, # of connection points: 2
#     Edge 143, Type (0, 0), BuildingBlock: EZIPEK_clean_linker_0, # of connection points: 2
#     Edge 144, Type (0, 0), BuildingBlock: EZIPEK_clean_linker_0, # of connection points: 2
#     Edge 145, Type (0, 0), BuildingBlock: EZIPEK_clean_linker_0, # of connection points: 2
#     Edge 146, Type (0, 0), BuildingBlock: EZIPEK_clean_linker_0, # of connection points: 2
#     Edge 147, Type (0, 0), BuildingBlock: EZIPEK_clean_linker_0, # of connection points: 2
#     Edge 148, Type (0, 0), BuildingBlock: EZIPEK_clean_linker_0, # of connection points: 2
#     Edge 149, Type (0, 0), BuildingBlock: EZIPEK_clean_linker_0, # of connection points: 2
#     Edge 150, Type (0, 0), BuildingBlock: EZIPEK_clean_linker_0, # of connection points: 2
#     Edge 151, Type (0, 0), BuildingBlock: EZIPEK_clean_linker_0, # of connection points: 2
#     Edge 152, Type (0, 0), BuildingBlock: EZIPEK_clean_linker_0, # of connection points: 2
#     Edge 153, Type (0, 0), BuildingBlock: EZIPEK_clean_linker_0, # of connection points: 2
#     Edge 154, Type (0, 0), BuildingBlock: EZIPEK_clean_linker_0, # of connection points: 2
#     Edge 155, Type (0, 0), BuildingBlock: EZIPEK_clean_linker_0, # of connection points: 2
#     Edge 156, Type (0, 0), BuildingBlock: EZIPEK_clean_linker_0, # of connection points: 2
#     Edge 157, Type (0, 0), BuildingBlock: EZIPEK_clean_linker_0, # of connection points: 2
#     Edge 158, Type (0, 0), BuildingBlock: EZIPEK_clean_linker_0, # of connection points: 2
#     Edge 159, Type (0, 0), BuildingBlock: EZIPEK_clean_linker_0, # of connection points: 2
#     Edge 160, Type (0, 0), BuildingBlock: EZIPEK_clean_linker_0, # of connection points: 2
#     Edge 161, Type (0, 0), BuildingBlock: EZIPEK_clean_linker_0, # of connection points: 2
#     Edge 162, Type (0, 0), BuildingBlock: EZIPEK_clean_linker_0, # of connection points: 2
#     Edge 163, Type (0, 0), BuildingBlock: EZIPEK_clean_linker_0, # of connection points: 2
#     Edge 164, Type (0, 0), BuildingBlock: EZIPEK_clean_linker_0, # of connection points: 2
#     Edge 165, Type (0, 0), BuildingBlock: EZIPEK_clean_linker_0, # of connection points: 2
#     Edge 166, Type (0, 0), BuildingBlock: EZIPEK_clean_linker_0, # of connection points: 2
#     Edge 167, Type (0, 0), BuildingBlock: EZIPEK_clean_linker_0, # of connection points: 2
#     Edge 168, Type (0, 0), BuildingBlock: EZIPEK_clean_linker_0, # of connection points: 2
#     Edge 169, Type (0, 0), BuildingBlock: EZIPEK_clean_linker_0, # of connection points: 2
#     Edge 170, Type (0, 0), BuildingBlock: EZIPEK_clean_linker_0, # of connection points: 2
#     Edge 171, Type (0, 0), BuildingBlock: EZIPEK_clean_linker_0, # of connection points: 2
#     Edge 172, Type (0, 0), BuildingBlock: EZIPEK_clean_linker_0, # of connection points: 2
#     Edge 173, Type (0, 0), BuildingBlock: EZIPEK_clean_linker_0, # of connection points: 2
#     Edge 174, Type (0, 0), BuildingBlock: EZIPEK_clean_linker_0, # of connection points: 2
#     Edge 175, Type (0, 0), BuildingBlock: EZIPEK_clean_linker_0, # of connection points: 2
#     Edge 176, Type (0, 0), BuildingBlock: EZIPEK_clean_linker_0, # of connection points: 2
#     Edge 177, Type (0, 0), BuildingBlock: EZIPEK_clean_linker_0, # of connection points: 2
#     Edge 178, Type (0, 0), BuildingBlock: EZIPEK_clean_linker_0, # of connection points: 2
#     Edge 179, Type (0, 0), BuildingBlock: EZIPEK_clean_linker_0, # of connection points: 2
#     Edge 180, Type (0, 0), BuildingBlock: EZIPEK_clean_linker_0, # of connection points: 2
#     Edge 181, Type (0, 0), BuildingBlock: EZIPEK_clean_linker_0, # of connection points: 2
#     Edge 182, Type (0, 0), BuildingBlock: EZIPEK_clean_linker_0, # of connection points: 2
#     Edge 183, Type (0, 0), BuildingBlock: EZIPEK_clean_linker_0, # of connection points: 2
#     Edge 184, Type (0, 0), BuildingBlock: EZIPEK_clean_linker_0, # of connection points: 2
#     Edge 185, Type (0, 0), BuildingBlock: EZIPEK_clean_linker_0, # of connection points: 2
#     Edge 186, Type (0, 0), BuildingBlock: EZIPEK_clean_linker_0, # of connection points: 2
#     Edge 187, Type (0, 0), BuildingBlock: EZIPEK_clean_linker_0, # of connection points: 2
#     Edge 188, Type (0, 0), BuildingBlock: EZIPEK_clean_linker_0, # of connection points: 2
#     Edge 189, Type (0, 0), BuildingBlock: EZIPEK_clean_linker_0, # of connection points: 2
#     Edge 190, Type (0, 0), BuildingBlock: EZIPEK_clean_linker_0, # of connection points: 2
#     Edge 191, Type (0, 0), BuildingBlock: EZIPEK_clean_linker_0, # of connection points: 2
#     Edge 192, Type (0, 0), BuildingBlock: EZIPEK_clean_linker_0, # of connection points: 2
#     Edge 193, Type (0, 0), BuildingBlock: EZIPEK_clean_linker_0, # of connection points: 2
#     Edge 194, Type (0, 0), BuildingBlock: EZIPEK_clean_linker_0, # of connection points: 2
#     Edge 195, Type (0, 0), BuildingBlock: EZIPEK_clean_linker_0, # of connection points: 2
#     Edge 196, Type (0, 0), BuildingBlock: EZIPEK_clean_linker_0, # of connection points: 2
#     Edge 197, Type (0, 0), BuildingBlock: EZIPEK_clean_linker_0, # of connection points: 2
#     Edge 198, Type (0, 0), BuildingBlock: EZIPEK_clean_linker_0, # of connection points: 2
#     Edge 199, Type (0, 0), BuildingBlock: EZIPEK_clean_linker_0, # of connection points: 2
#     Edge 200, Type (0, 0), BuildingBlock: EZIPEK_clean_linker_0, # of connection points: 2
#     Edge 201, Type (0, 0), BuildingBlock: EZIPEK_clean_linker_0, # of connection points: 2
#     Edge 202, Type (0, 0), BuildingBlock: EZIPEK_clean_linker_0, # of connection points: 2
#     Edge 203, Type (0, 0), BuildingBlock: EZIPEK_clean_linker_0, # of connection points: 2
#     Edge 204, Type (0, 0), BuildingBlock: EZIPEK_clean_linker_0, # of connection points: 2
#     Edge 205, Type (0, 0), BuildingBlock: EZIPEK_clean_linker_0, # of connection points: 2
#     Edge 206, Type (0, 0), BuildingBlock: EZIPEK_clean_linker_0, # of connection points: 2
#     Edge 207, Type (0, 0), BuildingBlock: EZIPEK_clean_linker_0, # of connection points: 2
#     Edge 208, Type (0, 0), BuildingBlock: EZIPEK_clean_linker_0, # of connection points: 2
#     Edge 209, Type (0, 0), BuildingBlock: EZIPEK_clean_linker_0, # of connection points: 2
#     Edge 210, Type (0, 0), BuildingBlock: EZIPEK_clean_linker_0, # of connection points: 2
#     Edge 211, Type (0, 0), BuildingBlock: EZIPEK_clean_linker_0, # of connection points: 2
#     Edge 212, Type (0, 0), BuildingBlock: EZIPEK_clean_linker_0, # of connection points: 2
#     Edge 213, Type (0, 0), BuildingBlock: EZIPEK_clean_linker_0, # of connection points: 2
#     Edge 214, Type (0, 0), BuildingBlock: EZIPEK_clean_linker_0, # of connection points: 2
#     Edge 215, Type (0, 0), BuildingBlock: EZIPEK_clean_linker_0, # of connection points: 2
#     Edge 216, Type (0, 0), BuildingBlock: EZIPEK_clean_linker_0, # of connection points: 2
#     Edge 217, Type (0, 0), BuildingBlock: EZIPEK_clean_linker_0, # of connection points: 2
#     Edge 218, Type (0, 0), BuildingBlock: EZIPEK_clean_linker_0, # of connection points: 2
#     Edge 219, Type (0, 0), BuildingBlock: EZIPEK_clean_linker_0, # of connection points: 2
#     Edge 220, Type (0, 0), BuildingBlock: EZIPEK_clean_linker_0, # of connection points: 2
#     Edge 221, Type (0, 0), BuildingBlock: EZIPEK_clean_linker_0, # of connection points: 2
#     Edge 222, Type (0, 0), BuildingBlock: EZIPEK_clean_linker_0, # of connection points: 2
#     Edge 223, Type (0, 0), BuildingBlock: EZIPEK_clean_linker_0, # of connection points: 2
#     Edge 224, Type (0, 0), BuildingBlock: EZIPEK_clean_linker_0, # of connection points: 2
#     Edge 225, Type (0, 0), BuildingBlock: EZIPEK_clean_linker_0, # of connection points: 2
#     Edge 226, Type (0, 0), BuildingBlock: EZIPEK_clean_linker_0, # of connection points: 2
#     Edge 227, Type (0, 0), BuildingBlock: EZIPEK_clean_linker_0, # of connection points: 2
#     Edge 228, Type (0, 0), BuildingBlock: EZIPEK_clean_linker_0, # of connection points: 2
#     Edge 229, Type (0, 0), BuildingBlock: EZIPEK_clean_linker_0, # of connection points: 2
#     Edge 230, Type (0, 0), BuildingBlock: EZIPEK_clean_linker_0, # of connection points: 2
#     Edge 231, Type (0, 0), BuildingBlock: EZIPEK_clean_linker_0, # of connection points: 2
#     Edge 232, Type (0, 0), BuildingBlock: EZIPEK_clean_linker_0, # of connection points: 2
#     Edge 233, Type (0, 0), BuildingBlock: EZIPEK_clean_linker_0, # of connection points: 2
#     Edge 234, Type (0, 0), BuildingBlock: EZIPEK_clean_linker_0, # of connection points: 2
#     Edge 235, Type (0, 0), BuildingBlock: EZIPEK_clean_linker_0, # of connection points: 2
#     Edge 236, Type (0, 0), BuildingBlock: EZIPEK_clean_linker_0, # of connection points: 2
#     Edge 237, Type (0, 0), BuildingBlock: EZIPEK_clean_linker_0, # of connection points: 2
#     Edge 238, Type (0, 0), BuildingBlock: EZIPEK_clean_linker_0, # of connection points: 2
#     Edge 239, Type (0, 0), BuildingBlock: EZIPEK_clean_linker_0, # of connection points: 2
# Relax obj value: 0.000
# Max RMSD: 0.005
# Mean RMSD: 0.005
data_MOF--net-pbg--node1-WUSLED_clean_sbu_0--edge1-EZIPEK_clean_linker_0
_symmetry_space_group_name_H-M    P1
_symmetry_Int_Tables_number       1
_symmetry_cell_setting            triclinic
loop_
_symmetry_equiv_pos_as_xyz
'x, y, z'
_cell_length_a     126.07897
_cell_length_b     126.09741
_cell_length_c     126.18339
_cell_angle_alpha  90.000062
_cell_angle_beta   90.004482
_cell_angle_gamma 89.953909
loop_
_atom_site_label
_atom_site_type_symbol
_atom_site_fract_x
_atom_site_fract_y
_atom_site_fract_z
_atom_type_partial_charge
C0 C 0.18619 0.24623 0.38224 0.0
C1 C 0.19448 0.25366 0.38308 0.0
C2 C 0.18452 0.26627 0.37231 0.0
C3 C 0.19362 0.26362 0.37818 0.0
C4 C 0.17633 0.2588 0.37137 0.0
C5 C 0.17715 0.24889 0.37631 0.0
U6 U 0.19991 0.22008 0.39067 0.0
O7 O 0.19931 0.21167 0.40593 0.0
O8 O 0.19313 0.20397 0.39163 0.0
C9 C 0.19416 0.20351 0.40198 0.0
C10 C 0.18655 0.23585 0.38775 0.0
C11 C 0.18471 0.19997 0.40796 0.0
C12 C 0.16889 0.20371 0.41839 0.0
C13 C 0.17759 0.20727 0.41246 0.0
C14 C 0.17416 0.18551 0.41524 0.0
C15 C 0.16712 0.1928 0.41984 0.0
C16 C 0.18289 0.18907 0.40936 0.0
C17 C 0.22888 0.21498 0.3813 0.0
C18 C 0.23859 0.19828 0.38052 0.0
C19 C 0.24793 0.2149 0.3782 0.0
C20 C 0.23841 0.22044 0.37952 0.0
C21 C 0.2481 0.20379 0.37861 0.0
C22 C 0.22903 0.20384 0.38186 0.0
C23 C 0.21893 0.22114 0.38212 0.0
O24 O 0.18682 0.22741 0.38164 0.0
O25 O 0.19283 0.2351 0.39603 0.0
O26 O 0.21666 0.22507 0.3915 0.0
O27 O 0.2106 0.21729 0.37717 0.0
H28 H 0.20155 0.25183 0.38758 0.0
H29 H 0.20004 0.26927 0.37899 0.0
H30 H 0.16925 0.26069 0.36687 0.0
H31 H 0.17065 0.24332 0.37557 0.0
H32 H 0.16353 0.20947 0.42186 0.0
H33 H 0.1788 0.21572 0.41145 0.0
H34 H 0.17292 0.17707 0.41626 0.0
H35 H 0.18828 0.1833 0.40596 0.0
H36 H 0.23857 0.1897 0.3809 0.0
H37 H 0.25518 0.21928 0.37676 0.0
H38 H 0.23846 0.22902 0.37904 0.0
H39 H 0.22177 0.19947 0.38323 0.0
C40 C 0.05725 0.93669 0.63351 0.0
C41 C 0.05514 0.94246 0.62421 0.0
C42 C 0.03751 0.93462 0.62311 0.0
C43 C 0.04535 0.94141 0.61903 0.0
C44 C 0.03956 0.92902 0.63251 0.0
C45 C 0.04935 0.93003 0.63764 0.0
U46 U 0.08322 0.95091 0.64133 0.0
O47 O 0.09174 0.95064 0.65662 0.0
O48 O 0.09947 0.94461 0.64226 0.0
C49 C 0.10007 0.94584 0.65259 0.0
C50 C 0.06766 0.93722 0.63889 0.0
C51 C 0.10436 0.93679 0.65869 0.0
C52 C 0.10631 0.91782 0.66189 0.0
C53 C 0.10153 0.92625 0.6564 0.0
C54 C 0.11658 0.93036 0.67219 0.0
C55 C 0.11395 0.91983 0.66976 0.0
C56 C 0.11183 0.93876 0.6667 0.0
C57 C 0.08795 0.97973 0.6316 0.0
C58 C 0.10461 0.98935 0.62977 0.0
C59 C 0.08795 0.99891 0.62934 0.0
C60 C 0.08245 0.98938 0.63073 0.0
C61 C 0.09906 0.99897 0.62877 0.0
C62 C 0.0991 0.97978 0.63119 0.0
C63 C 0.0818 0.96979 0.63253 0.0
O64 O 0.07606 0.93753 0.63272 0.0
O65 O 0.0683 0.94374 0.64699 0.0
O66 O 0.07796 0.96759 0.64196 0.0
O67 O 0.08563 0.96142 0.62763 0.0
H68 H 0.0611 0.94768 0.62089 0.0
H69 H 0.04391 0.94581 0.6118 0.0
H70 H 0.03361 0.92375 0.63578 0.0
H71 H 0.0508 0.92552 0.64481 0.0
H72 H 0.10419 0.90974 0.6599 0.0
H73 H 0.09578 0.92454 0.65026 0.0
H74 H 0.12245 0.93207 0.67822 0.0
H75 H 0.11413 0.94682 0.66859 0.0
H76 H 0.1132 0.98925 0.62939 0.0
H77 H 0.08353 1.00625 0.6286 0.0
H78 H 0.07386 0.98952 0.63101 0.0
H79 H 0.10352 0.97245 0.63187 0.0
C80 C 0.36904 0.80786 0.88206 0.0
C81 C 0.35994 0.80287 0.87801 0.0
C82 C 0.37066 0.78801 0.87184 0.0
C83 C 0.36075 0.79299 0.87294 0.0
C84 C 0.37974 0.79302 0.87589 0.0
C85 C 0.37893 0.80286 0.88096 0.0
U86 U 0.35455 0.83363 0.88987 0.0
O87 O 0.35484 0.84231 0.90502 0.0
O88 O 0.36067 0.84998 0.89055 0.0
C89 C 0.3595 0.85067 0.90088 0.0
C90 C 0.36846 0.81825 0.88742 0.0
C91 C 0.36863 0.855 0.9068 0.0
C92 C 0.3861 0.8532 0.91486 0.0
C93 C 0.37754 0.84878 0.90927 0.0
C94 C 0.37691 0.87007 0.91556 0.0
C95 C 0.38584 0.86389 0.91803 0.0
C96 C 0.36838 0.86566 0.91 0.0
C97 C 0.32572 0.83803 0.88012 0.0
C98 C 0.31537 0.85419 0.88239 0.0
C99 C 0.30733 0.83873 0.8743 0.0
C100 C 0.31686 0.83315 0.87549 0.0
C101 C 0.30651 0.84929 0.87771 0.0
C102 C 0.32493 0.84859 0.88359 0.0
C103 C 0.33567 0.83192 0.88109 0.0
O104 O 0.36797 0.82658 0.88117 0.0
O105 O 0.36196 0.81887 0.89554 0.0
O106 O 0.33793 0.82826 0.89058 0.0
O107 O 0.34397 0.83584 0.87616 0.0
H108 H 0.35224 0.80662 0.87876 0.0
H109 H 0.35367 0.78926 0.86984 0.0
H110 H 0.38745 0.78931 0.8751 0.0
H111 H 0.38604 0.80658 0.88402 0.0
H112 H 0.39294 0.84833 0.91666 0.0
H113 H 0.37789 0.84054 0.90685 0.0
H114 H 0.37657 0.87833 0.9179 0.0
H115 H 0.36158 0.87059 0.90817 0.0
H116 H 0.31487 0.86232 0.8851 0.0
H117 H 0.30059 0.83481 0.87069 0.0
H118 H 0.31732 0.82502 0.87276 0.0
H119 H 0.33169 0.85248 0.88718 0.0
C120 C 0.49823 0.11906 0.13208 0.0
C121 C 0.50344 0.10987 0.12851 0.0
C122 C 0.51808 0.12058 0.12184 0.0
C123 C 0.51332 0.11063 0.12344 0.0
C124 C 0.51285 0.12974 0.12541 0.0
C125 C 0.50301 0.12898 0.13049 0.0
U126 U 0.47241 0.10478 0.14019 0.0
O127 O 0.46372 0.10544 0.15531 0.0
O128 O 0.45608 0.11106 0.14073 0.0
C129 C 0.45541 0.11012 0.15108 0.0
C130 C 0.48784 0.11856 0.13745 0.0
C131 C 0.45104 0.11935 0.15685 0.0
C132 C 0.45314 0.13526 0.16762 0.0
C133 C 0.45761 0.12683 0.16188 0.0
C134 C 0.43554 0.12893 0.16325 0.0
C135 C 0.44206 0.13636 0.16837 0.0
C136 C 0.43999 0.12051 0.15756 0.0
C137 C 0.46769 0.07569 0.13118 0.0
C138 C 0.45183 0.06584 0.12612 0.0
C139 C 0.46742 0.05638 0.13215 0.0
C140 C 0.47273 0.06603 0.13353 0.0
C141 C 0.45696 0.0562 0.12832 0.0
C142 C 0.45713 0.07552 0.12755 0.0
C143 C 0.47387 0.08567 0.13191 0.0
O144 O 0.47952 0.11796 0.13121 0.0
O145 O 0.48721 0.11221 0.14569 0.0
O146 O 0.47768 0.08811 0.1413 0.0
O147 O 0.4702 0.09394 0.12672 0.0
H148 H 0.49987 0.10214 0.12964 0.0
H149 H 0.51723 0.10348 0.12071 0.0
H150 H 0.51638 0.13748 0.12423 0.0
H151 H 0.49912 0.13616 0.13317 0.0
H152 H 0.4583 0.14091 0.17151 0.0
H153 H 0.46616 0.12611 0.16143 0.0
H154 H 0.42699 0.12963 0.16372 0.0
H155 H 0.43479 0.11483 0.15376 0.0
H156 H 0.44376 0.06587 0.12316 0.0
H157 H 0.47152 0.04904 0.1339 0.0
H158 H 0.48088 0.06594 0.13627 0.0
H159 H 0.45302 0.08282 0.12566 0.0
C160 C 0.1879 0.80766 0.17177 0.0
C161 C 0.19519 0.79945 0.16966 0.0
C162 C 0.18586 0.7877 0.18184 0.0
C163 C 0.19416 0.78956 0.17464 0.0
C164 C 0.17866 0.7959 0.18403 0.0
C165 C 0.17965 0.80576 0.17902 0.0
U166 U 0.20157 0.83395 0.16359 0.0
O167 O 0.20104 0.84247 0.14834 0.0
O168 O 0.19478 0.85002 0.1627 0.0
C169 C 0.1961 0.85071 0.15239 0.0
C170 C 0.18835 0.81802 0.16619 0.0
C171 C 0.18702 0.8549 0.14628 0.0
C172 C 0.16856 0.85428 0.1406 0.0
C173 C 0.17711 0.84981 0.14619 0.0
C174 C 0.1798 0.86885 0.13507 0.0
C175 C 0.16984 0.86388 0.13506 0.0
C176 C 0.1883 0.86439 0.14062 0.0
C177 C 0.22989 0.84026 0.17351 0.0
C178 C 0.23796 0.85754 0.17654 0.0
C179 C 0.24908 0.84193 0.17521 0.0
C180 C 0.24004 0.83566 0.1736 0.0
C181 C 0.2481 0.8529 0.1768 0.0
C182 C 0.22893 0.85129 0.17487 0.0
C183 C 0.22043 0.83336 0.17252 0.0
O184 O 0.18832 0.82651 0.17223 0.0
O185 O 0.19484 0.81882 0.15807 0.0
O186 O 0.2185 0.82944 0.16306 0.0
O187 O 0.21182 0.83659 0.17743 0.0
H188 H 0.20163 0.80062 0.1641 0.0
H189 H 0.19979 0.78332 0.17284 0.0
H190 H 0.1722 0.79463 0.18954 0.0
H191 H 0.17388 0.8119 0.18073 0.0
H192 H 0.16093 0.85035 0.14071 0.0
H193 H 0.17596 0.84248 0.15051 0.0
H194 H 0.18093 0.87625 0.13087 0.0
H195 H 0.19588 0.86844 0.1406 0.0
H196 H 0.23705 0.866 0.17774 0.0
H197 H 0.25683 0.8382 0.17537 0.0
H198 H 0.24097 0.82718 0.17259 0.0
H199 H 0.22121 0.85506 0.1748 0.0
C200 C 0.49697 0.93531 0.42159 0.0
C201 C 0.50379 0.94389 0.42372 0.0
C202 C 0.51652 0.9319 0.43199 0.0
C203 C 0.51353 0.94218 0.42887 0.0
C204 C 0.50967 0.92339 0.42989 0.0
C205 C 0.50001 0.92508 0.42473 0.0
U206 U 0.47171 0.95096 0.41363 0.0
O207 O 0.46333 0.95111 0.3983 0.0
O208 O 0.45527 0.94518 0.4125 0.0
C209 C 0.45481 0.94653 0.40219 0.0
C210 C 0.48674 0.93667 0.41603 0.0
C211 C 0.45047 0.93755 0.39607 0.0
C212 C 0.45164 0.91955 0.38916 0.0
C213 C 0.45616 0.92806 0.39473 0.0
C214 C 0.43576 0.92995 0.38614 0.0
C215 C 0.44138 0.92043 0.38487 0.0
C216 C 0.44027 0.93844 0.39169 0.0
C217 C 0.46734 0.97949 0.42406 0.0
C218 C 0.4522 0.9907 0.41979 0.0
C219 C 0.46567 0.99703 0.43193 0.0
C220 C 0.47123 0.98749 0.43074 0.0
C221 C 0.45613 0.99872 0.42646 0.0
C222 C 0.45777 0.98113 0.4186 0.0
C223 C 0.47344 0.96955 0.42298 0.0
O224 O 0.47826 0.93713 0.42208 0.0
O225 O 0.48651 0.94349 0.40815 0.0
O226 O 0.47729 0.96751 0.41352 0.0
O227 O 0.46937 0.96116 0.42761 0.0
H228 H 0.5016 0.95186 0.42139 0.0
H229 H 0.51869 0.94885 0.43047 0.0
H230 H 0.51183 0.91542 0.43226 0.0
H231 H 0.49488 0.91837 0.42317 0.0
H232 H 0.45608 0.91224 0.38829 0.0
H233 H 0.46403 0.92721 0.39808 0.0
H234 H 0.42784 0.93077 0.38293 0.0
H235 H 0.43575 0.94568 0.39265 0.0
H236 H 0.44485 0.99187 0.41549 0.0
H237 H 0.46883 1.00312 0.4371 0.0
H238 H 0.47859 0.98637 0.43503 0.0
H239 H 0.45464 0.97503 0.41342 0.0
C240 C 0.3682 0.24756 0.67162 0.0
C241 C 0.35933 0.25219 0.67654 0.0
C242 C 0.37002 0.26743 0.68176 0.0
C243 C 0.36024 0.26208 0.68157 0.0
C244 C 0.37884 0.26279 0.6768 0.0
C245 C 0.37793 0.25294 0.67178 0.0
U246 U 0.35364 0.22175 0.6639 0.0
O247 O 0.35416 0.2129 0.64887 0.0
O248 O 0.35983 0.20538 0.66349 0.0
C249 C 0.35888 0.20464 0.65315 0.0
C250 C 0.36756 0.23711 0.66639 0.0
C251 C 0.36812 0.20019 0.64739 0.0
C252 C 0.38284 0.2018 0.63496 0.0
C253 C 0.3745 0.20643 0.6407 0.0
C254 C 0.37867 0.18471 0.64266 0.0
C255 C 0.38496 0.19088 0.63588 0.0
C256 C 0.37032 0.18932 0.64834 0.0
C257 C 0.32462 0.21739 0.6731 0.0
C258 C 0.31494 0.20073 0.67462 0.0
C259 C 0.30543 0.21742 0.67534 0.0
C260 C 0.31499 0.22291 0.67406 0.0
C261 C 0.30533 0.2063 0.67571 0.0
C262 C 0.32452 0.20624 0.67331 0.0
C263 C 0.3346 0.22349 0.67227 0.0
O264 O 0.36691 0.22887 0.67273 0.0
O265 O 0.36114 0.23646 0.6582 0.0
O266 O 0.33702 0.22714 0.66282 0.0
O267 O 0.34283 0.21971 0.67743 0.0
H268 H 0.35175 0.24815 0.67651 0.0
H269 H 0.35335 0.26553 0.68537 0.0
H270 H 0.38645 0.26678 0.67688 0.0
H271 H 0.38486 0.24949 0.66804 0.0
H272 H 0.38761 0.20669 0.62977 0.0
H273 H 0.37299 0.21484 0.63982 0.0
H274 H 0.38017 0.17629 0.64348 0.0
H275 H 0.3655 0.18435 0.65342 0.0
H276 H 0.315 0.19215 0.67486 0.0
H277 H 0.29811 0.22185 0.67614 0.0
H278 H 0.31489 0.2315 0.67393 0.0
H279 H 0.33185 0.2018 0.67257 0.0
C280 C 0.05757 0.11894 0.92118 0.0
C281 C 0.05373 0.11057 0.92745 0.0
C282 C 0.03784 0.12078 0.93159 0.0
C283 C 0.04392 0.11149 0.93262 0.0
C284 C 0.04167 0.1291 0.92527 0.0
C285 C 0.05146 0.12818 0.92011 0.0
U286 U 0.08335 0.10436 0.91353 0.0
O287 O 0.0919 0.10438 0.89828 0.0
O288 O 0.09965 0.11051 0.91258 0.0
C289 C 0.10027 0.10915 0.90227 0.0
C290 C 0.06793 0.11828 0.91578 0.0
C291 C 0.1045 0.11818 0.89614 0.0
C292 C 0.1041 0.13673 0.89073 0.0
C293 C 0.09961 0.1282 0.89631 0.0
C294 C 0.11828 0.12527 0.88464 0.0
C295 C 0.11351 0.13533 0.88491 0.0
C296 C 0.11381 0.11678 0.89021 0.0
C297 C 0.08786 0.07572 0.92375 0.0
C298 C 0.10406 0.06539 0.9217 0.0
C299 C 0.08853 0.05736 0.92965 0.0
C300 C 0.08295 0.06687 0.92836 0.0
C301 C 0.09912 0.05654 0.92635 0.0
C302 C 0.09846 0.07493 0.9204 0.0
C303 C 0.08174 0.08565 0.92266 0.0
O304 O 0.0763 0.11792 0.92199 0.0
O305 O 0.06851 0.11162 0.9078 0.0
O306 O 0.07799 0.08773 0.91316 0.0
O307 O 0.08569 0.09404 0.92741 0.0
H308 H 0.05834 0.10337 0.92836 0.0
H309 H 0.0411 0.10499 0.93748 0.0
H310 H 0.0371 0.13633 0.92439 0.0
H311 H 0.05429 0.13472 0.91532 0.0
H312 H 0.10032 0.14444 0.89105 0.0
H313 H 0.09242 0.12944 0.90085 0.0
H314 H 0.12554 0.12404 0.88022 0.0
H315 H 0.1177 0.10912 0.88998 0.0
H316 H 0.11223 0.0649 0.91908 0.0
H317 H 0.08458 0.05063 0.93324 0.0
H318 H 0.07478 0.06732 0.931 0.0
H319 H 0.10238 0.08168 0.91682 0.0
C320 C 0.38502 0.18742 0.24822 0.0
C321 C 0.37701 0.19464 0.25106 0.0
C322 C 0.37453 0.18548 0.26789 0.0
C323 C 0.37179 0.19367 0.26083 0.0
C324 C 0.38266 0.17839 0.26511 0.0
C325 C 0.38785 0.17936 0.25535 0.0
U326 U 0.39189 0.20135 0.22191 0.0
O327 O 0.40672 0.20109 0.21268 0.0
O328 O 0.39209 0.19474 0.20573 0.0
C329 C 0.40239 0.19594 0.20471 0.0
C330 C 0.39022 0.18786 0.23774 0.0
C331 C 0.40832 0.18674 0.20034 0.0
C332 C 0.42307 0.17419 0.20075 0.0
C333 C 0.41725 0.18242 0.20548 0.0
C334 C 0.41108 0.17434 0.18577 0.0
C335 C 0.42005 0.17012 0.19083 0.0
C336 C 0.4053 0.18258 0.19046 0.0
C337 C 0.38091 0.22971 0.21703 0.0
C338 C 0.38067 0.23923 0.20027 0.0
C339 C 0.37407 0.24768 0.21603 0.0
C340 C 0.37668 0.23868 0.22196 0.0
C341 C 0.375 0.24785 0.20483 0.0
C342 C 0.38326 0.23017 0.20621 0.0
C343 C 0.38264 0.22002 0.22337 0.0
O344 O 0.38382 0.18791 0.22952 0.0
O345 O 0.39813 0.19458 0.23679 0.0
O346 O 0.39238 0.2182 0.22661 0.0
O347 O 0.37779 0.21144 0.21999 0.0
H348 H 0.37471 0.20092 0.24567 0.0
H349 H 0.36553 0.1992 0.26284 0.0
H350 H 0.38487 0.17203 0.27044 0.0
H351 H 0.39399 0.1737 0.2533 0.0
H352 H 0.42998 0.17105 0.20478 0.0
H353 H 0.41982 0.18546 0.21309 0.0
H354 H 0.40863 0.17133 0.17811 0.0
H355 H 0.39852 0.18581 0.18628 0.0
H356 H 0.38339 0.23931 0.19219 0.0
H357 H 0.37137 0.25451 0.22044 0.0
H358 H 0.37532 0.23872 0.23044 0.0
H359 H 0.38711 0.22353 0.20234 0.0
C360 C 0.11951 0.13206 0.49599 0.0
C361 C 0.11093 0.12929 0.50256 0.0
C362 C 0.12312 0.12167 0.5155 0.0
C363 C 0.11273 0.12414 0.51228 0.0
C364 C 0.13164 0.12442 0.5089 0.0
C365 C 0.12985 0.12956 0.49925 0.0
U366 U 0.10378 0.14 0.47076 0.0
O367 O 0.10317 0.15546 0.46267 0.0
O368 O 0.10977 0.14166 0.45442 0.0
C369 C 0.10799 0.15192 0.45414 0.0
C370 C 0.11805 0.13766 0.4858 0.0
C371 C 0.11669 0.15859 0.45002 0.0
C372 C 0.13379 0.16732 0.45191 0.0
C373 C 0.1259 0.16054 0.45589 0.0
C374 C 0.12365 0.16974 0.43595 0.0
C375 C 0.13244 0.1729 0.44221 0.0
C376 C 0.1158 0.16297 0.4399 0.0
C377 C 0.07532 0.12948 0.46618 0.0
C378 C 0.06531 0.13039 0.44969 0.0
C379 C 0.05652 0.12508 0.46591 0.0
C380 C 0.06607 0.12626 0.47145 0.0
C381 C 0.05607 0.1271 0.45499 0.0
C382 C 0.07488 0.13159 0.45525 0.0
C383 C 0.08529 0.13043 0.47227 0.0
O384 O 0.11771 0.13168 0.47728 0.0
O385 O 0.11109 0.14543 0.48565 0.0
O386 O 0.08723 0.13979 0.47642 0.0
O387 O 0.09374 0.12598 0.46808 0.0
H388 H 0.10288 0.13112 0.50019 0.0
H389 H 0.10606 0.12205 0.51725 0.0
H390 H 0.13971 0.12256 0.51123 0.0
H391 H 0.13658 0.13163 0.49432 0.0
H392 H 0.14097 0.16781 0.4565 0.0
H393 H 0.12704 0.15674 0.46351 0.0
H394 H 0.12273 0.17229 0.42784 0.0
H395 H 0.109 0.16112 0.43497 0.0
H396 H 0.0651 0.13202 0.44126 0.0
H397 H 0.04949 0.12256 0.47014 0.0
H398 H 0.06624 0.1246 0.47988 0.0
H399 H 0.08192 0.13412 0.45103 0.0
C400 C 0.17208 0.86911 0.74728 0.0
C401 C 0.17831 0.86072 0.75116 0.0
C402 C 0.18232 0.8709 0.76709 0.0
C403 C 0.18341 0.86162 0.76101 0.0
C404 C 0.17603 0.87923 0.76322 0.0
C405 C 0.17095 0.87833 0.75339 0.0
U406 U 0.16474 0.85456 0.72144 0.0
O407 O 0.14963 0.85457 0.71267 0.0
O408 O 0.16403 0.86069 0.70511 0.0
C409 C 0.15373 0.8593 0.70434 0.0
C410 C 0.16679 0.86848 0.73686 0.0
C411 C 0.14764 0.86827 0.69991 0.0
C412 C 0.14011 0.88602 0.70121 0.0
C413 C 0.14578 0.87758 0.70576 0.0
C414 C 0.13809 0.87593 0.685 0.0
C415 C 0.13626 0.88526 0.69078 0.0
C416 C 0.14373 0.86751 0.68953 0.0
C417 C 0.17506 0.82595 0.71706 0.0
C418 C 0.17186 0.81521 0.70135 0.0
C419 C 0.18204 0.80799 0.71595 0.0
C420 C 0.18079 0.81751 0.72151 0.0
C421 C 0.17759 0.80675 0.70584 0.0
C422 C 0.1706 0.82476 0.70693 0.0
C423 C 0.17389 0.83586 0.72319 0.0
O424 O 0.17309 0.86812 0.72858 0.0
O425 O 0.1588 0.86182 0.73618 0.0
O426 O 0.16433 0.83793 0.7268 0.0
O427 O 0.17869 0.84425 0.71931 0.0
H428 H 0.17928 0.85354 0.74656 0.0
H429 H 0.18825 0.85512 0.76387 0.0
H430 H 0.17511 0.88645 0.76778 0.0
H431 H 0.16617 0.88488 0.75053 0.0
H432 H 0.1388 0.89318 0.70578 0.0
H433 H 0.14875 0.87832 0.71378 0.0
H434 H 0.13521 0.87521 0.67694 0.0
H435 H 0.14509 0.86041 0.6849 0.0
H436 H 0.16834 0.81438 0.69356 0.0
H437 H 0.18647 0.80157 0.71955 0.0
H438 H 0.18429 0.81828 0.72931 0.0
H439 H 0.16615 0.83119 0.70337 0.0
C440 C 0.43488 0.92214 0.99597 0.0
C441 C 0.4435 0.92494 1.00248 0.0
C442 C 0.43138 0.93269 1.0154 0.0
C443 C 0.44175 0.93017 1.01216 0.0
C444 C 0.42282 0.92991 1.00885 0.0
C445 C 0.42456 0.92468 0.99924 0.0
U446 U 0.45067 0.91393 0.97089 0.0
O447 O 0.45091 0.89841 0.96278 0.0
O448 O 0.44499 0.91251 0.95448 0.0
C449 C 0.44629 0.90216 0.95422 0.0
C450 C 0.4363 0.91648 0.98581 0.0
C451 C 0.43732 0.89593 0.94995 0.0
C452 C 0.41839 0.89293 0.9475 0.0
C453 C 0.42673 0.8985 0.95231 0.0
C454 C 0.4311 0.88195 0.93818 0.0
C455 C 0.42051 0.88468 0.94031 0.0
C456 C 0.43942 0.88753 0.94295 0.0
C457 C 0.47921 0.92437 0.96659 0.0
C458 C 0.49009 0.92097 0.95101 0.0
C459 C 0.49714 0.93142 0.9655 0.0
C460 C 0.48759 0.9302 0.97101 0.0
C461 C 0.49847 0.92682 0.95546 0.0
C462 C 0.48051 0.91975 0.95654 0.0
C463 C 0.46923 0.92334 0.97261 0.0
O464 O 0.4368 0.92244 0.97728 0.0
O465 O 0.44316 0.90862 0.98572 0.0
O466 O 0.4672 0.91392 0.97657 0.0
O467 O 0.46085 0.92789 0.96841 0.0
H468 H 0.45154 0.92307 1.00009 0.0
H469 H 0.44845 0.93229 1.01709 0.0
H470 H 0.41477 0.9318 1.0112 0.0
H471 H 0.41781 0.9226 0.99435 0.0
H472 H 0.41027 0.89515 0.94925 0.0
H473 H 0.42491 0.90493 0.95771 0.0
H474 H 0.43291 0.87562 0.93265 0.0
H475 H 0.44753 0.88542 0.94101 0.0
H476 H 0.49099 0.91735 0.94328 0.0
H477 H 0.50351 0.93595 0.96906 0.0
H478 H 0.48674 0.93384 0.97875 0.0
H479 H 0.47413 0.91522 0.953 0.0
C480 C 0.38403 0.86783 0.30681 0.0
C481 C 0.38695 0.86123 0.29827 0.0
C482 C 0.37391 0.86981 0.28687 0.0
C483 C 0.38194 0.86223 0.2884 0.0
C484 C 0.37094 0.87634 0.29538 0.0
C485 C 0.37597 0.87539 0.30522 0.0
U486 U 0.39182 0.85407 0.33311 0.0
O487 O 0.40703 0.85425 0.34177 0.0
O488 O 0.39269 0.86071 0.3492 0.0
C489 C 0.403 0.85932 0.34993 0.0
C490 C 0.38958 0.86738 0.3172 0.0
C491 C 0.40919 0.86839 0.35403 0.0
C492 C 0.41272 0.88735 0.35536 0.0
C493 C 0.40717 0.87886 0.35076 0.0
C494 C 0.42254 0.87499 0.36632 0.0
C495 C 0.42036 0.88547 0.36326 0.0
C496 C 0.417 0.86653 0.36174 0.0
C497 C 0.38069 0.82583 0.33845 0.0
C498 C 0.38058 0.81638 0.35525 0.0
C499 C 0.37361 0.80796 0.33964 0.0
C500 C 0.37626 0.8169 0.33363 0.0
C501 C 0.37471 0.80784 0.35082 0.0
C502 C 0.38321 0.82537 0.34923 0.0
C503 C 0.38235 0.83549 0.33206 0.0
O504 O 0.38351 0.86754 0.32567 0.0
O505 O 0.39762 0.86077 0.31807 0.0
O506 O 0.392 0.83718 0.32849 0.0
O507 O 0.37771 0.84413 0.33557 0.0
H508 H 0.39316 0.85536 0.29917 0.0
H509 H 0.38436 0.85714 0.28192 0.0
H510 H 0.36478 0.88225 0.29436 0.0
H511 H 0.37363 0.88065 0.3116 0.0
H512 H 0.41092 0.89538 0.35291 0.0
H513 H 0.4012 0.88048 0.34481 0.0
H514 H 0.42839 0.87338 0.37239 0.0
H515 H 0.41867 0.85853 0.36438 0.0
H516 H 0.38343 0.81629 0.36329 0.0
H517 H 0.37072 0.80117 0.33532 0.0
H518 H 0.37475 0.81685 0.32517 0.0
H519 H 0.38721 0.83197 0.35301 0.0
C520 C 0.43638 0.13173 0.55734 0.0
C521 C 0.44475 0.13236 0.54999 0.0
C522 C 0.43469 0.12176 0.53734 0.0
C523 C 0.44389 0.12745 0.54005 0.0
C524 C 0.42641 0.12103 0.54473 0.0
C525 C 0.42723 0.12598 0.55462 0.0
U526 U 0.45038 0.14018 0.58326 0.0
O527 O 0.44961 0.15534 0.59187 0.0
O528 O 0.444 0.14076 0.59954 0.0
C529 C 0.44483 0.15114 0.60013 0.0
C530 C 0.43678 0.13719 0.56773 0.0
C531 C 0.43552 0.15689 0.60445 0.0
C532 C 0.42146 0.17012 0.60302 0.0
C533 C 0.42979 0.16434 0.59842 0.0
C534 C 0.42431 0.16098 0.61965 0.0
C535 C 0.41869 0.16851 0.61369 0.0
C536 C 0.43265 0.15524 0.61508 0.0
C537 C 0.47945 0.13124 0.58806 0.0
C538 C 0.48899 0.12983 0.6048 0.0
C539 C 0.49863 0.12899 0.58822 0.0
C540 C 0.48912 0.13025 0.58264 0.0
C541 C 0.49864 0.12869 0.59933 0.0
C542 C 0.47945 0.13111 0.59921 0.0
C543 C 0.46952 0.13194 0.58186 0.0
O544 O 0.4373 0.13103 0.57612 0.0
O545 O 0.44295 0.14557 0.56843 0.0
O546 O 0.46706 0.14134 0.57808 0.0
O547 O 0.46129 0.12677 0.58564 0.0
H548 H 0.4519 0.13671 0.55189 0.0
H549 H 0.45037 0.1281 0.53446 0.0
H550 H 0.41926 0.11668 0.5428 0.0
H551 H 0.42068 0.1254 0.56014 0.0
H552 H 0.41721 0.17591 0.59829 0.0
H553 H 0.43181 0.16579 0.5902 0.0
H554 H 0.42231 0.15962 0.62789 0.0
H555 H 0.43697 0.1496 0.61991 0.0
H556 H 0.48885 0.12964 0.61338 0.0
H557 H 0.50599 0.12815 0.58386 0.0
H558 H 0.4893 0.13031 0.57405 0.0
H559 H 0.47209 0.13188 0.60357 0.0
C560 C 0.17111 0.18545 0.80734 0.0
C561 C 0.17263 0.19388 0.80019 0.0
C562 C 0.18193 0.18207 0.78802 0.0
C563 C 0.178 0.19219 0.79056 0.0
C564 C 0.18042 0.1737 0.79519 0.0
C565 C 0.17505 0.17537 0.80473 0.0
U566 U 0.1632 0.20084 0.83276 0.0
O567 O 0.14786 0.20107 0.84118 0.0
O568 O 0.16204 0.19483 0.84908 0.0
C569 C 0.15174 0.19631 0.8496 0.0
C570 C 0.1654 0.18677 0.8175 0.0
C571 C 0.14551 0.18736 0.85387 0.0
C572 C 0.14064 0.16866 0.85413 0.0
C573 C 0.14616 0.17713 0.84948 0.0
C574 C 0.13361 0.18057 0.86746 0.0
C575 C 0.1344 0.17031 0.86322 0.0
C576 C 0.13912 0.18902 0.86282 0.0
C577 C 0.17463 0.22893 0.83768 0.0
C578 C 0.17386 0.23869 0.85428 0.0
C579 C 0.18227 0.24654 0.83909 0.0
C580 C 0.17974 0.23759 0.83305 0.0
C581 C 0.18036 0.24692 0.85016 0.0
C582 C 0.17134 0.22969 0.84824 0.0
C583 C 0.173 0.21922 0.83135 0.0
O584 O 0.17134 0.1869 0.82606 0.0
O585 O 0.15767 0.19378 0.81777 0.0
O586 O 0.1634 0.21758 0.82765 0.0
O587 O 0.17746 0.21058 0.83511 0.0
H588 H 0.1697 0.20174 0.80203 0.0
H589 H 0.17912 0.19875 0.78514 0.0
H590 H 0.18341 0.16585 0.79338 0.0
H591 H 0.17397 0.16876 0.81011 0.0
H592 H 0.14136 0.1608 0.85076 0.0
H593 H 0.15106 0.17569 0.84257 0.0
H594 H 0.12886 0.182 0.87448 0.0
H595 H 0.13852 0.19683 0.86634 0.0
H596 H 0.17044 0.23905 0.86209 0.0
H597 H 0.18571 0.25315 0.83487 0.0
H598 H 0.18186 0.23742 0.82473 0.0
H599 H 0.16682 0.22332 0.85182 0.0
C600 C 0.11904 0.92158 0.05667 0.0
C601 C 0.11101 0.92848 0.05319 0.0
C602 C 0.12088 0.93198 0.03694 0.0
C603 C 0.11193 0.93366 0.04338 0.0
C604 C 0.12884 0.925 0.04041 0.0
C605 C 0.12792 0.91985 0.0502 0.0
U606 U 0.1047 0.9143 0.08267 0.0
O607 O 0.1045 0.89905 0.09125 0.0
O608 O 0.11108 0.91323 0.09886 0.0
C609 C 0.10947 0.90295 0.09954 0.0
C610 C 0.11841 0.91619 0.06704 0.0
C611 C 0.11835 0.89659 0.1038 0.0
C612 C 0.13709 0.8919 0.10453 0.0
C613 C 0.12872 0.89757 0.09984 0.0
C614 C 0.12477 0.88407 0.11701 0.0
C615 C 0.13517 0.88519 0.11322 0.0
C616 C 0.11644 0.88972 0.11233 0.0
C617 C 0.07642 0.92528 0.08776 0.0
C618 C 0.06311 0.91871 0.10014 0.0
C619 C 0.06081 0.9359 0.09188 0.0
C620 C 0.07041 0.93456 0.08647 0.0
C621 C 0.05704 0.92795 0.09869 0.0
C622 C 0.07275 0.91738 0.09473 0.0
C623 C 0.08621 0.92392 0.08145 0.0
O624 O 0.11835 0.92241 0.0754 0.0
O625 O 0.11155 0.90838 0.06773 0.0
O626 O 0.08801 0.9144 0.0776 0.0
O627 O 0.09478 0.9285 0.0852 0.0
H628 H 0.10409 0.92991 0.05807 0.0
H629 H 0.10572 0.93902 0.04084 0.0
H630 H 0.1358 0.92361 0.03557 0.0
H631 H 0.1342 0.91455 0.05275 0.0
H632 H 0.14507 0.89288 0.10152 0.0
H633 H 0.13037 0.90283 0.09326 0.0
H634 H 0.12314 0.87895 0.12371 0.0
H635 H 0.1085 0.88887 0.11551 0.0
H636 H 0.06033 0.91249 0.10536 0.0
H637 H 0.05625 0.94308 0.09066 0.0
H638 H 0.07308 0.94074 0.08113 0.0
H639 H 0.07726 0.91016 0.09588 0.0
C640 C 0.24742 0.3822 0.18493 0.0
C641 C 0.25452 0.38061 0.19338 0.0
C642 C 0.26689 0.37164 0.18152 0.0
C643 C 0.26422 0.37537 0.19168 0.0
C644 C 0.25976 0.37321 0.17313 0.0
C645 C 0.25013 0.37844 0.17482 0.0
U646 U 0.22216 0.39068 0.2004 0.0
O647 O 0.21386 0.40605 0.20016 0.0
O648 O 0.20575 0.39177 0.19447 0.0
C649 C 0.20538 0.40213 0.19555 0.0
C650 C 0.23722 0.38785 0.18623 0.0
C651 C 0.20108 0.4081 0.18642 0.0
C652 C 0.20332 0.41876 0.17045 0.0
C653 C 0.20771 0.41296 0.17888 0.0
C654 C 0.18567 0.4148 0.1769 0.0
C655 C 0.19225 0.41972 0.1694 0.0
C656 C 0.19004 0.40906 0.18533 0.0
C657 C 0.21749 0.38101 0.22917 0.0
C658 C 0.20077 0.37912 0.23869 0.0
C659 C 0.21737 0.37894 0.24836 0.0
C660 C 0.22293 0.38029 0.23885 0.0
C661 C 0.20626 0.37826 0.24835 0.0
C662 C 0.20634 0.3805 0.22916 0.0
C663 C 0.22367 0.38182 0.21923 0.0
O664 O 0.22871 0.38187 0.1868 0.0
O665 O 0.23705 0.39588 0.19289 0.0
O666 O 0.22766 0.3912 0.21701 0.0
O667 O 0.21974 0.37697 0.21089 0.0
H668 H 0.25259 0.38342 0.20126 0.0
H669 H 0.26962 0.3742 0.19825 0.0
H670 H 0.26166 0.37037 0.16525 0.0
H671 H 0.24478 0.37958 0.16819 0.0
H672 H 0.20854 0.42249 0.16474 0.0
H673 H 0.21625 0.4123 0.17954 0.0
H674 H 0.17712 0.41544 0.17624 0.0
H675 H 0.18479 0.40539 0.19104 0.0
H676 H 0.1922 0.37864 0.23853 0.0
H677 H 0.22174 0.37831 0.25573 0.0
H678 H 0.23151 0.38064 0.23904 0.0
H679 H 0.20196 0.38106 0.2218 0.0
C680 C 0.74805 0.17056 0.86735 0.0
C681 C 0.75023 0.17985 0.86158 0.0
C682 C 0.76788 0.18079 0.86941 0.0
C683 C 0.76007 0.18493 0.86262 0.0
C684 C 0.76577 0.17139 0.87499 0.0
C685 C 0.75594 0.16633 0.87398 0.0
U686 U 0.72145 0.16368 0.8538 0.0
O687 O 0.71238 0.14876 0.85421 0.0
O688 O 0.70539 0.16332 0.86066 0.0
C689 C 0.70432 0.15305 0.85925 0.0
C690 C 0.73753 0.16541 0.86698 0.0
C691 C 0.70003 0.14702 0.86832 0.0
C692 C 0.7016 0.13949 0.88603 0.0
C693 C 0.70605 0.1451 0.8775 0.0
C694 C 0.68517 0.13763 0.87625 0.0
C695 C 0.69111 0.13575 0.88546 0.0
C696 C 0.6896 0.14322 0.86776 0.0
C697 C 0.71531 0.17406 0.82565 0.0
C698 C 0.69808 0.17773 0.81771 0.0
C699 C 0.71351 0.17565 0.80647 0.0
C700 C 0.71981 0.17388 0.81546 0.0
C701 C 0.70262 0.17769 0.80754 0.0
C702 C 0.70435 0.17589 0.82669 0.0
C703 C 0.72225 0.17277 0.83504 0.0
O704 O 0.72928 0.17178 0.86709 0.0
O705 O 0.73649 0.15749 0.86028 0.0
O706 O 0.72585 0.16316 0.83686 0.0
O707 O 0.71926 0.17773 0.84371 0.0
H708 H 0.74427 0.18325 0.8564 0.0
H709 H 0.76155 0.19217 0.85825 0.0
H710 H 0.7717 0.16806 0.88025 0.0
H711 H 0.75443 0.15919 0.8785 0.0
H712 H 0.70629 0.13813 0.89309 0.0
H713 H 0.71411 0.14799 0.87808 0.0
H714 H 0.67706 0.13484 0.87567 0.0
H715 H 0.68483 0.14463 0.86075 0.0
H716 H 0.68968 0.17927 0.81869 0.0
H717 H 0.71716 0.17557 0.7987 0.0
H718 H 0.72823 0.17249 0.81447 0.0
H719 H 0.70067 0.17603 0.83444 0.0
C720 C 0.13217 0.49763 0.11829 0.0
C721 C 0.1275 0.5021 0.10929 0.0
C722 C 0.11871 0.51576 0.12018 0.0
C723 C 0.12118 0.51123 0.11016 0.0
C724 C 0.12471 0.51189 0.12887 0.0
C725 C 0.13106 0.50281 0.12801 0.0
U726 U 0.14159 0.47235 0.10394 0.0
O727 O 0.15705 0.46421 0.10461 0.0
O728 O 0.14271 0.45602 0.11006 0.0
C729 C 0.15311 0.45577 0.10931 0.0
C730 C 0.13822 0.48761 0.11777 0.0
C731 C 0.15892 0.45149 0.11863 0.0
C732 C 0.17368 0.4519 0.13117 0.0
C733 C 0.16792 0.45658 0.12287 0.0
C734 C 0.1615 0.43707 0.13126 0.0
C735 C 0.17053 0.44208 0.1354 0.0
C736 C 0.15579 0.4417 0.12295 0.0
C737 C 0.13233 0.46752 0.07496 0.0
C738 C 0.13069 0.45088 0.06525 0.0
C739 C 0.13009 0.46759 0.05579 0.0
C740 C 0.13142 0.47305 0.06535 0.0
C741 C 0.12962 0.45647 0.05567 0.0
C742 C 0.13205 0.45637 0.07484 0.0
C743 C 0.13304 0.47362 0.08494 0.0
O744 O 0.13246 0.47895 0.11726 0.0
O745 O 0.14641 0.48744 0.11133 0.0
O746 O 0.14236 0.47766 0.08728 0.0
O747 O 0.12811 0.46965 0.09322 0.0
H748 H 0.12876 0.49856 0.10156 0.0
H749 H 0.11853 0.51466 0.10281 0.0
H750 H 0.12467 0.51582 0.13647 0.0
H751 H 0.13508 0.49983 0.13499 0.0
H752 H 0.18064 0.45588 0.13424 0.0
H753 H 0.17061 0.46409 0.1197 0.0
H754 H 0.15896 0.42948 0.13438 0.0
H755 H 0.14897 0.43754 0.11978 0.0
H756 H 0.13038 0.4423 0.06531 0.0
H757 H 0.12929 0.47203 0.04848 0.0
H758 H 0.13159 0.48164 0.06525 0.0
H759 H 0.13274 0.45191 0.08215 0.0
C760 C 0.80765 0.88254 0.36907 0.0
C761 C 0.80047 0.88125 0.36062 0.0
C762 C 0.78824 0.8718 0.37223 0.0
C763 C 0.79081 0.87593 0.3622 0.0
C764 C 0.79546 0.87304 0.38061 0.0
C765 C 0.80505 0.87836 0.37904 0.0
U766 U 0.83287 0.89138 0.35383 0.0
O767 O 0.84081 0.90699 0.35397 0.0
O768 O 0.8492 0.89289 0.35975 0.0
C769 C 0.84937 0.90325 0.3586 0.0
C770 C 0.81776 0.88837 0.3679 0.0
C771 C 0.85354 0.90942 0.36766 0.0
C772 C 0.8562 0.91207 0.38661 0.0
C773 C 0.85143 0.90654 0.37822 0.0
C774 C 0.86499 0.92361 0.37404 0.0
C775 C 0.86311 0.92058 0.38457 0.0
C776 C 0.86025 0.91808 0.36566 0.0
C777 C 0.8377 0.88148 0.32514 0.0
C778 C 0.85442 0.88127 0.31545 0.0
C779 C 0.83794 0.87783 0.3062 0.0
C780 C 0.83233 0.87915 0.31568 0.0
C781 C 0.84902 0.87881 0.30602 0.0
C782 C 0.84879 0.88261 0.32496 0.0
C783 C 0.83155 0.8823 0.33508 0.0
O784 O 0.8264 0.88255 0.36746 0.0
O785 O 0.81787 0.89638 0.36123 0.0
O786 O 0.8274 0.89163 0.33721 0.0
O787 O 0.83564 0.87763 0.34346 0.0
H788 H 0.80231 0.88438 0.35284 0.0
H789 H 0.78535 0.87502 0.35564 0.0
H790 H 0.79363 0.8699 0.38839 0.0
H791 H 0.81045 0.87927 0.38567 0.0
H792 H 0.85465 0.90961 0.39469 0.0
H793 H 0.84627 0.89991 0.37996 0.0
H794 H 0.87029 0.93014 0.3723 0.0
H795 H 0.862 0.92043 0.35759 0.0
H796 H 0.86297 0.88208 0.31545 0.0
H797 H 0.83364 0.87596 0.299 0.0
H798 H 0.82379 0.87823 0.31565 0.0
H799 H 0.8531 0.88442 0.33217 0.0
C800 C 0.92319 0.05865 0.11819 0.0
C801 C 0.92241 0.05121 0.1099 0.0
C802 C 0.93309 0.03858 0.11993 0.0
C803 C 0.92729 0.04125 0.11079 0.0
C804 C 0.93398 0.04606 0.12813 0.0
C805 C 0.92905 0.05598 0.12727 0.0
U806 U 0.91519 0.08498 0.10456 0.0
O807 O 0.89995 0.09349 0.10487 0.0
O808 O 0.91415 0.10102 0.11149 0.0
C809 C 0.90382 0.10158 0.11019 0.0
C810 C 0.9177 0.06904 0.11779 0.0
C811 C 0.89763 0.10513 0.1195 0.0
C812 C 0.88669 0.10143 0.13497 0.0
C813 C 0.89277 0.09784 0.12638 0.0
C814 C 0.89038 0.11962 0.13004 0.0
C815 C 0.88543 0.11235 0.13685 0.0
C816 C 0.89641 0.11603 0.12142 0.0
C817 C 0.92552 0.09045 0.07602 0.0
C818 C 0.91894 0.1032 0.06308 0.0
C819 C 0.93554 0.09405 0.05993 0.0
C820 C 0.93441 0.08869 0.06957 0.0
C821 C 0.92778 0.10128 0.05656 0.0
C822 C 0.91781 0.09783 0.07276 0.0
C823 C 0.92435 0.08415 0.08582 0.0
O824 O 0.92381 0.07748 0.1178 0.0
O825 O 0.90959 0.06989 0.11128 0.0
O826 O 0.91488 0.08025 0.08778 0.0
O827 O 0.92909 0.08786 0.09432 0.0
H828 H 0.91796 0.05304 0.10279 0.0
H829 H 0.92652 0.03559 0.10438 0.0
H830 H 0.93841 0.04417 0.13523 0.0
H831 H 0.92974 0.06155 0.13377 0.0
H832 H 0.88295 0.0957 0.14015 0.0
H833 H 0.89363 0.08939 0.12508 0.0
H834 H 0.88951 0.12806 0.13136 0.0
H835 H 0.90009 0.12178 0.11622 0.0
H836 H 0.91287 0.10876 0.0606 0.0
H837 H 0.94241 0.09246 0.05501 0.0
H838 H 0.94044 0.08302 0.07192 0.0
H839 H 0.91089 0.09932 0.07762 0.0
C840 C 0.3075 0.67169 0.6863 0.0
C841 C 0.30506 0.68047 0.69272 0.0
C842 C 0.28769 0.68197 0.68435 0.0
C843 C 0.29522 0.68559 0.69173 0.0
C844 C 0.29009 0.67309 0.67808 0.0
C845 C 0.29992 0.668 0.67905 0.0
U846 U 0.33365 0.66443 0.70044 0.0
O847 O 0.34246 0.64933 0.70033 0.0
O848 O 0.34988 0.66372 0.69403 0.0
C849 C 0.35069 0.65343 0.69542 0.0
C850 C 0.31796 0.66641 0.68682 0.0
C851 C 0.35491 0.64733 0.68636 0.0
C852 C 0.35315 0.63972 0.6687 0.0
C853 C 0.3488 0.64538 0.67725 0.0
C854 C 0.3697 0.63789 0.6783 0.0
C855 C 0.36365 0.63597 0.66916 0.0
C856 C 0.36536 0.64352 0.68682 0.0
C857 C 0.3384 0.67489 0.72895 0.0
C858 C 0.35345 0.67052 0.74024 0.0
C859 C 0.34017 0.68299 0.74637 0.0
C860 C 0.33462 0.68176 0.73684 0.0
C861 C 0.3496 0.67736 0.74817 0.0
C862 C 0.34788 0.66929 0.73068 0.0
C863 C 0.33218 0.67364 0.71912 0.0
O864 O 0.32628 0.6727 0.68697 0.0
O865 O 0.31876 0.65844 0.69348 0.0
O866 O 0.32857 0.66407 0.71713 0.0
O867 O 0.33594 0.67842 0.71066 0.0
H868 H 0.31078 0.68342 0.6984 0.0
H869 H 0.29351 0.69243 0.69664 0.0
H870 H 0.28439 0.67018 0.67235 0.0
H871 H 0.30164 0.66124 0.67404 0.0
H872 H 0.34838 0.63834 0.66169 0.0
H873 H 0.34073 0.64828 0.67673 0.0
H874 H 0.37781 0.63509 0.67879 0.0
H875 H 0.3702 0.64496 0.69377 0.0
H876 H 0.36071 0.66609 0.7415 0.0
H877 H 0.33707 0.68829 0.75238 0.0
H878 H 0.32732 0.68615 0.73566 0.0
H879 H 0.35092 0.66394 0.72468 0.0
C880 C 0.13513 0.55703 0.43685 0.0
C881 C 0.12582 0.55496 0.44261 0.0
C882 C 0.12467 0.53735 0.43474 0.0
C883 C 0.12061 0.54519 0.44153 0.0
C884 C 0.13409 0.53936 0.42915 0.0
C885 C 0.13926 0.54913 0.43019 0.0
U886 U 0.14215 0.58324 0.45091 0.0
O887 O 0.15723 0.59212 0.451 0.0
O888 O 0.14285 0.59943 0.44447 0.0
C889 C 0.15314 0.60028 0.44596 0.0
C890 C 0.14048 0.56745 0.43737 0.0
C891 C 0.15935 0.60452 0.43697 0.0
C892 C 0.1629 0.60613 0.41805 0.0
C893 C 0.15737 0.60139 0.42646 0.0
C894 C 0.17266 0.61695 0.43056 0.0
C895 C 0.17051 0.61403 0.42004 0.0
C896 C 0.16712 0.61224 0.43894 0.0
C897 C 0.13069 0.5881 0.47908 0.0
C898 C 0.1304 0.60479 0.48874 0.0
C899 C 0.12362 0.58899 0.49695 0.0
C900 C 0.12632 0.58312 0.48794 0.0
C901 C 0.1246 0.60019 0.49723 0.0
C902 C 0.13309 0.59892 0.47967 0.0
C903 C 0.1325 0.58183 0.46937 0.0
O904 O 0.13424 0.57581 0.43727 0.0
O905 O 0.1483 0.56827 0.44421 0.0
O906 O 0.14222 0.57841 0.46773 0.0
O907 O 0.1279 0.58537 0.46072 0.0
H908 H 0.12251 0.56093 0.44782 0.0
H909 H 0.11336 0.54378 0.44592 0.0
H910 H 0.13735 0.53341 0.42388 0.0
H911 H 0.14643 0.55056 0.42568 0.0
H912 H 0.16113 0.60378 0.40999 0.0
H913 H 0.15142 0.59544 0.42475 0.0
H914 H 0.17849 0.62302 0.43226 0.0
H915 H 0.16877 0.61477 0.44698 0.0
H916 H 0.13316 0.61286 0.48892 0.0
H917 H 0.12081 0.58454 0.5037 0.0
H918 H 0.12491 0.57464 0.48789 0.0
H919 H 0.13704 0.60282 0.47312 0.0
C920 C 0.42185 0.49801 0.93623 0.0
C921 C 0.42896 0.50148 0.94406 0.0
C922 C 0.43196 0.51787 0.93427 0.0
C923 C 0.434 0.51135 0.94308 0.0
C924 C 0.42475 0.51443 0.92653 0.0
C925 C 0.41974 0.50458 0.92751 0.0
U926 U 0.41479 0.47198 0.95065 0.0
O927 O 0.39985 0.46295 0.95047 0.0
O928 O 0.41443 0.45566 0.94437 0.0
C929 C 0.40411 0.45478 0.94559 0.0
C930 C 0.41671 0.48751 0.93684 0.0
C931 C 0.39818 0.45035 0.93648 0.0
C932 C 0.38581 0.4521 0.92172 0.0
C933 C 0.39166 0.45668 0.93 0.0
C934 C 0.39305 0.43486 0.92616 0.0
C935 C 0.38645 0.44114 0.91976 0.0
C936 C 0.39884 0.43942 0.93445 0.0
C937 C 0.42489 0.46753 0.97929 0.0
C938 C 0.42205 0.45156 0.98977 0.0
C939 C 0.43147 0.46647 0.99739 0.0
C940 C 0.43023 0.47209 0.98791 0.0
C941 C 0.42739 0.45617 0.99841 0.0
C942 C 0.4208 0.45721 0.98026 0.0
C943 C 0.42373 0.47372 0.96943 0.0
O944 O 0.42314 0.47931 0.93721 0.0
O945 O 0.40869 0.4867 0.94345 0.0
O946 O 0.41414 0.47721 0.9673 0.0
O947 O 0.42867 0.46997 0.96106 0.0
H948 H 0.43069 0.49652 0.95086 0.0
H949 H 0.43955 0.51387 0.94913 0.0
H950 H 0.42308 0.51934 0.91968 0.0
H951 H 0.41427 0.50204 0.92139 0.0
H952 H 0.38077 0.45707 0.91686 0.0
H953 H 0.39102 0.46514 0.93139 0.0
H954 H 0.39365 0.4264 0.92478 0.0
H955 H 0.40379 0.43439 0.93934 0.0
H956 H 0.41883 0.44363 0.99042 0.0
H957 H 0.43559 0.47016 1.00395 0.0
H958 H 0.43343 0.48004 0.98731 0.0
H959 H 0.41665 0.45355 0.97369 0.0
C960 C 0.86941 0.80794 0.67423 0.0
C961 C 0.8601 0.80187 0.6751 0.0
C962 C 0.86995 0.78762 0.68367 0.0
C963 C 0.86039 0.79178 0.67974 0.0
C964 C 0.87922 0.79374 0.68296 0.0
C965 C 0.87895 0.80381 0.67825 0.0
U966 U 0.85583 0.83415 0.66664 0.0
O967 O 0.8622 0.85037 0.66577 0.0
O968 O 0.85587 0.84281 0.65144 0.0
C969 C 0.8607 0.85111 0.65548 0.0
C970 C 0.86937 0.81843 0.66897 0.0
C971 C 0.86948 0.85564 0.64917 0.0
C972 C 0.88828 0.85823 0.64553 0.0
C973 C 0.88016 0.85321 0.65126 0.0
C974 C 0.87514 0.86794 0.63542 0.0
C975 C 0.88581 0.86571 0.63764 0.0
C976 C 0.86705 0.86295 0.64114 0.0
C977 C 0.82716 0.83903 0.67646 0.0
C978 C 0.81744 0.85568 0.67515 0.0
C979 C 0.80847 0.8398 0.68118 0.0
C980 C 0.81789 0.83404 0.68004 0.0
C981 C 0.80817 0.85066 0.67878 0.0
C982 C 0.82689 0.8499 0.67399 0.0
C983 C 0.83699 0.83273 0.67554 0.0
O984 O 0.86304 0.81941 0.66074 0.0
O985 O 0.86914 0.82673 0.67527 0.0
O986 O 0.84538 0.83654 0.68041 0.0
O987 O 0.83915 0.82894 0.66608 0.0
H988 H 0.85263 0.80489 0.67211 0.0
H989 H 0.85314 0.78719 0.68024 0.0
H990 H 0.88666 0.79067 0.68597 0.0
H991 H 0.88622 0.80835 0.67767 0.0
H992 H 0.89648 0.85642 0.64736 0.0
H993 H 0.88222 0.84758 0.65741 0.0
H994 H 0.87308 0.87369 0.62938 0.0
H995 H 0.85887 0.86494 0.63941 0.0
H996 H 0.81734 0.86405 0.67323 0.0
H997 H 0.8014 0.83579 0.68397 0.0
H998 H 0.81794 0.82567 0.68199 0.0
H999 H 0.83396 0.85389 0.6712 0.0
C1000 C 0.99572 0.11933 0.4234 0.0
C1001 C 0.99854 0.1126 0.43182 0.0
C1002 C 1.01564 0.12147 0.43342 0.0
C1003 C 1.00843 0.11367 0.43681 0.0
C1004 C 1.01286 0.12809 0.42491 0.0
C1005 C 1.00298 0.12702 0.41995 0.0
U1006 U 0.96959 0.10494 0.41651 0.0
O1007 O 0.95333 0.11129 0.41578 0.0
O1008 O 0.96073 0.10481 0.40145 0.0
C1009 C 0.95247 0.1097 0.40552 0.0
C1010 C 0.98522 0.11867 0.41823 0.0
C1011 C 0.94807 0.11858 0.39929 0.0
C1012 C 0.94887 0.13664 0.3925 0.0
C1013 C 0.95347 0.12827 0.39823 0.0
C1014 C 0.93353 0.1257 0.38878 0.0
C1015 C 0.93884 0.13542 0.38778 0.0
C1016 C 0.93811 0.11735 0.39448 0.0
C1017 C 0.96468 0.07661 0.4271 0.0
C1018 C 0.94907 0.06594 0.42319 0.0
C1019 C 0.96283 0.05895 0.43464 0.0
C1020 C 0.96859 0.06835 0.43345 0.0
C1021 C 0.95304 0.05765 0.42951 0.0
C1022 C 0.95486 0.07537 0.42199 0.0
C1023 C 0.97106 0.08634 0.42588 0.0
O1024 O 0.98441 0.11189 0.41036 0.0
O1025 O 0.97696 0.11853 0.42459 0.0
O1026 O 0.96735 0.09487 0.4306 0.0
O1027 O 0.97473 0.08825 0.41632 0.0
H1028 H 0.99306 0.10659 0.43458 0.0
H1029 H 1.01043 0.10849 0.44336 0.0
H1030 H 1.01831 0.13414 0.42218 0.0
H1031 H 1.00096 0.13229 0.41347 0.0
H1032 H 0.95307 0.14411 0.39184 0.0
H1033 H 0.96116 0.12936 0.40189 0.0
H1034 H 0.92579 0.12461 0.38522 0.0
H1035 H 0.93382 0.10995 0.39522 0.0
H1036 H 0.94154 0.06507 0.41915 0.0
H1037 H 0.96602 0.05265 0.43954 0.0
H1038 H 0.97616 0.06916 0.43745 0.0
H1039 H 0.95171 0.08166 0.41706 0.0
C1040 C 0.68512 0.24592 0.1739 0.0
C1041 C 0.69272 0.24936 0.18128 0.0
C1042 C 0.68284 0.26577 0.18401 0.0
C1043 C 0.69158 0.25923 0.18631 0.0
C1044 C 0.67533 0.26236 0.17655 0.0
C1045 C 0.67646 0.25252 0.17154 0.0
U1046 U 0.69986 0.22002 0.16682 0.0
O1047 O 0.69371 0.20368 0.16618 0.0
O1048 O 0.69993 0.21116 0.15178 0.0
C1049 C 0.69517 0.20286 0.1559 0.0
C1050 C 0.68591 0.23546 0.16871 0.0
C1051 C 0.68625 0.19837 0.14979 0.0
C1052 C 0.6694 0.2001 0.14048 0.0
C1053 C 0.67773 0.20466 0.14629 0.0
C1054 C 0.67801 0.18295 0.14164 0.0
C1055 C 0.66949 0.1892 0.13813 0.0
C1056 C 0.68631 0.1875 0.14741 0.0
C1057 C 0.72837 0.21539 0.17717 0.0
C1058 C 0.74074 0.20188 0.17101 0.0
C1059 C 0.74484 0.21216 0.18671 0.0
C1060 C 0.73526 0.21767 0.1856 0.0
C1061 C 0.7477 0.20428 0.17939 0.0
C1062 C 0.73113 0.20739 0.16992 0.0
C1063 C 0.71852 0.22166 0.17602 0.0
O1064 O 0.69264 0.23477 0.16078 0.0
O1065 O 0.68625 0.22721 0.17506 0.0
O1066 O 0.71009 0.21789 0.18084 0.0
O1067 O 0.71647 0.22534 0.16649 0.0
H1068 H 0.69946 0.24439 0.1832 0.0
H1069 H 0.69746 0.26172 0.19205 0.0
H1070 H 0.66854 0.26729 0.17467 0.0
H1071 H 0.67051 0.25001 0.16587 0.0
H1072 H 0.66287 0.20503 0.13787 0.0
H1073 H 0.67752 0.21307 0.14807 0.0
H1074 H 0.6782 0.17453 0.13993 0.0
H1075 H 0.6928 0.18252 0.15004 0.0
H1076 H 0.74281 0.19583 0.16529 0.0
H1077 H 0.75009 0.21412 0.19322 0.0
H1078 H 0.73328 0.2238 0.19128 0.0
H1079 H 0.72591 0.20549 0.16337 0.0
C1080 C 0.55882 0.93473 0.92395 0.0
C1081 C 0.55482 0.94292 0.93037 0.0
C1082 C 0.53892 0.93253 0.93397 0.0
C1083 C 0.54492 0.94182 0.93535 0.0
C1084 C 0.5429 0.92441 0.92748 0.0
C1085 C 0.55277 0.92551 0.92252 0.0
U1086 U 0.5847 0.94948 0.91685 0.0
O1087 O 0.60107 0.94329 0.91638 0.0
O1088 O 0.59366 0.94941 0.90187 0.0
C1089 C 0.60189 0.94455 0.90607 0.0
C1090 C 0.5693 0.93552 0.91881 0.0
C1091 C 0.60641 0.93551 0.90007 0.0
C1092 C 0.6052 0.92161 0.88668 0.0
C1093 C 0.60044 0.92973 0.89262 0.0
C1094 C 0.62187 0.92477 0.89567 0.0
C1095 C 0.61597 0.91909 0.88814 0.0
C1096 C 0.61714 0.9329 0.90156 0.0
C1097 C 0.5892 0.97809 0.92686 0.0
C1098 C 0.60503 0.98859 0.92342 0.0
C1099 C 0.59057 0.99611 0.9336 0.0
C1100 C 0.58489 0.98665 0.93251 0.0
C1101 C 0.60068 0.99717 0.92907 0.0
C1102 C 0.59932 0.9791 0.92232 0.0
C1103 C 0.58295 0.96825 0.92581 0.0
O1104 O 0.57001 0.94218 0.91083 0.0
O1105 O 0.5775 0.93597 0.92522 0.0
O1106 O 0.58673 0.95988 0.93072 0.0
O1107 O 0.57936 0.9661 0.91627 0.0
H1108 H 0.55937 0.9501 0.93157 0.0
H1109 H 0.54198 0.94816 0.94034 0.0
H1110 H 0.5384 0.91719 0.92633 0.0
H1111 H 0.55572 0.91911 0.9176 0.0
H1112 H 0.60052 0.91732 0.88091 0.0
H1113 H 0.59215 0.93156 0.89131 0.0
H1114 H 0.63018 0.92296 0.89692 0.0
H1115 H 0.62192 0.93726 0.90722 0.0
H1116 H 0.61281 0.98927 0.91985 0.0
H1117 H 0.58708 1.00264 0.93797 0.0
H1118 H 0.57709 0.98602 0.93606 0.0
H1119 H 0.60278 0.97257 0.91793 0.0
C1120 C 0.86997 0.24553 0.87923 0.0
C1121 C 0.86182 0.25315 0.87986 0.0
C1122 C 0.8723 0.26554 0.86936 0.0
C1123 C 0.863 0.26308 0.87499 0.0
C1124 C 0.88036 0.25789 0.86861 0.0
C1125 C 0.87921 0.248 0.87352 0.0
U1126 U 0.85544 0.21977 0.88742 0.0
O1127 O 0.8616 0.20347 0.88847 0.0
O1128 O 0.85561 0.21138 0.90275 0.0
C1129 C 0.86025 0.20292 0.89879 0.0
C1130 C 0.86926 0.23517 0.88474 0.0
C1131 C 0.86918 0.19851 0.90495 0.0
C1132 C 0.88769 0.1985 0.91048 0.0
C1133 C 0.8793 0.20317 0.90482 0.0
C1134 C 0.87589 0.1846 0.91652 0.0
C1135 C 0.88604 0.18914 0.91631 0.0
C1136 C 0.86753 0.18926 0.91089 0.0
C1137 C 0.82675 0.21484 0.87778 0.0
C1138 C 0.81741 0.19793 0.87733 0.0
C1139 C 0.80769 0.21431 0.87473 0.0
C1140 C 0.8171 0.22007 0.87592 0.0
C1141 C 0.80778 0.2032 0.87536 0.0
C1142 C 0.82683 0.20371 0.87855 0.0
C1143 C 0.83658 0.22116 0.87857 0.0
O1144 O 0.86281 0.2346 0.89291 0.0
O1145 O 0.86889 0.22672 0.87865 0.0
O1146 O 0.84496 0.21731 0.87371 0.0
O1147 O 0.83878 0.22512 0.88795 0.0
H1148 H 0.8546 0.25148 0.88419 0.0
H1149 H 0.85669 0.26888 0.87566 0.0
H1150 H 0.88758 0.25962 0.8643 0.0
H1151 H 0.88561 0.24228 0.87294 0.0
H1152 H 0.89548 0.2021 0.9102 0.0
H1153 H 0.88072 0.21032 0.90028 0.0
H1154 H 0.87447 0.17738 0.92095 0.0
H1155 H 0.85979 0.18554 0.91108 0.0
H1156 H 0.81761 0.18936 0.87787 0.0
H1157 H 0.80034 0.21851 0.87324 0.0
H1158 H 0.81685 0.22864 0.87529 0.0
H1159 H 0.83419 0.19951 0.88001 0.0
C1160 C 0.55909 0.11965 0.63038 0.0
C1161 C 0.5568 0.11443 0.6208 0.0
C1162 C 0.53905 0.12212 0.62065 0.0
C1163 C 0.54685 0.11568 0.61596 0.0
C1164 C 0.54128 0.12714 0.63033 0.0
C1165 C 0.55122 0.12593 0.63513 0.0
U1166 U 0.58538 0.10532 0.63693 0.0
O1167 O 0.60166 0.11171 0.63724 0.0
O1168 O 0.59457 0.10531 0.65177 0.0
C1169 C 0.60268 0.11029 0.64751 0.0
C1170 C 0.56968 0.119 0.63538 0.0
C1171 C 0.60724 0.11926 0.65356 0.0
C1172 C 0.60597 0.13334 0.66674 0.0
C1173 C 0.60119 0.12525 0.66077 0.0
C1174 C 0.6228 0.12968 0.65825 0.0
C1175 C 0.61682 0.13558 0.66554 0.0
C1176 C 0.61805 0.12159 0.65233 0.0
C1177 C 0.59019 0.07692 0.62643 0.0
C1178 C 0.60387 0.06465 0.63239 0.0
C1179 C 0.59344 0.0605 0.61681 0.0
C1180 C 0.58787 0.07003 0.618 0.0
C1181 C 0.60143 0.05769 0.62403 0.0
C1182 C 0.5983 0.07421 0.63358 0.0
C1183 C 0.58382 0.08667 0.62771 0.0
O1184 O 0.57064 0.11229 0.6433 0.0
O1185 O 0.57786 0.11886 0.62892 0.0
O1186 O 0.58738 0.09516 0.62285 0.0
O1187 O 0.58029 0.08865 0.63732 0.0
H1188 H 0.56272 0.1095 0.617 0.0
H1189 H 0.54528 0.11172 0.60851 0.0
H1190 H 0.53536 0.13212 0.63408 0.0
H1191 H 0.55281 0.13002 0.64251 0.0
H1192 H 0.60123 0.13781 0.67234 0.0
H1193 H 0.59283 0.12363 0.66187 0.0
H1194 H 0.63118 0.13128 0.6572 0.0
H1195 H 0.62288 0.11706 0.64685 0.0
H1196 H 0.61001 0.06261 0.63804 0.0
H1197 H 0.59144 0.05525 0.61031 0.0
H1198 H 0.58164 0.07197 0.61241 0.0
H1199 H 0.60023 0.07943 0.64012 0.0
C1200 C 0.68391 0.81034 0.37885 0.0
C1201 C 0.69265 0.80559 0.37382 0.0
C1202 C 0.68178 0.79035 0.369 0.0
C1203 C 0.69158 0.79565 0.36892 0.0
C1204 C 0.67306 0.79513 0.374 0.0
C1205 C 0.67412 0.80504 0.37889 0.0
U1206 U 0.69902 0.83581 0.38655 0.0
O1207 O 0.69302 0.85216 0.38815 0.0
O1208 O 0.69965 0.84395 0.40196 0.0
C1209 C 0.69486 0.85249 0.3984 0.0
C1210 C 0.68481 0.82069 0.38424 0.0
C1211 C 0.68625 0.8567 0.40512 0.0
C1212 C 0.66894 0.85523 0.41351 0.0
C1213 C 0.67672 0.85123 0.40661 0.0
C1214 C 0.67988 0.87046 0.417 0.0
C1215 C 0.67072 0.8645 0.41967 0.0
C1216 C 0.68761 0.8665 0.4101 0.0
C1217 C 0.72773 0.84007 0.37692 0.0
C1218 C 0.7387 0.85511 0.38192 0.0
C1219 C 0.7463 0.8408 0.37186 0.0
C1220 C 0.73644 0.83571 0.37164 0.0
C1221 C 0.74799 0.85012 0.37793 0.0
C1222 C 0.72882 0.84999 0.38174 0.0
C1223 C 0.71768 0.83408 0.37734 0.0
O1224 O 0.69153 0.8211 0.39219 0.0
O1225 O 0.6853 0.82907 0.37806 0.0
O1226 O 0.70942 0.8385 0.37276 0.0
O1227 O 0.71541 0.82983 0.38657 0.0
H1228 H 0.70027 0.80955 0.37371 0.0
H1229 H 0.69839 0.79209 0.36508 0.0
H1230 H 0.66544 0.79118 0.37413 0.0
H1231 H 0.6673 0.80857 0.38274 0.0
H1232 H 0.66153 0.851 0.41364 0.0
H1233 H 0.67525 0.8439 0.40237 0.0
H1234 H 0.68118 0.87834 0.42006 0.0
H1235 H 0.69469 0.87114 0.40864 0.0
H1236 H 0.73874 0.86304 0.38506 0.0
H1237 H 0.75253 0.83729 0.36715 0.0
H1238 H 0.73565 0.82831 0.36735 0.0
H1239 H 0.72202 0.85381 0.38536 0.0
C1240 C 0.99601 0.93505 0.12912 0.0
C1241 C 1.00215 0.94413 0.12711 0.0
C1242 C 1.01603 0.93319 0.11924 0.0
C1243 C 1.01211 0.9432 0.12221 0.0
C1244 C 1.00985 0.92415 0.12119 0.0
C1245 C 0.99994 0.92507 0.1261 0.0
U1246 U 0.97011 0.94945 0.13712 0.0
O1247 O 0.9538 0.94315 0.13768 0.0
O1248 O 0.96142 0.94887 0.15223 0.0
C1249 C 0.95312 0.94417 0.14802 0.0
C1250 C 0.98559 0.93568 0.13445 0.0
C1251 C 0.94866 0.93503 0.15388 0.0
C1252 C 0.95043 0.9199 0.16578 0.0
C1253 C 0.95505 0.92814 0.15989 0.0
C1254 C 0.93304 0.92522 0.15958 0.0
C1255 C 0.93937 0.91842 0.16569 0.0
C1256 C 0.93764 0.93345 0.15374 0.0
C1257 C 0.96509 0.97842 0.12808 0.0
C1258 C 0.94913 0.98807 0.12288 0.0
C1259 C 0.96433 0.99768 0.12958 0.0
C1260 C 0.96984 0.98811 0.13082 0.0
C1261 C 0.95397 0.99775 0.12552 0.0
C1262 C 0.95462 0.97848 0.12417 0.0
C1263 C 0.97144 0.96852 0.12877 0.0
O1264 O 0.98493 0.94206 0.14267 0.0
O1265 O 0.97727 0.93622 0.1282 0.0
O1266 O 0.96786 0.96021 0.12359 0.0
O1267 O 0.97531 0.96613 0.13814 0.0
H1268 H 0.99927 0.95191 0.12934 0.0
H1269 H 1.01676 0.95027 0.12073 0.0
H1270 H 1.01273 0.91637 0.11894 0.0
H1271 H 0.99533 0.91797 0.12757 0.0
H1272 H 0.95544 0.91473 0.17046 0.0
H1273 H 0.96357 0.92919 0.16013 0.0
H1274 H 0.92451 0.92421 0.1594 0.0
H1275 H 0.93256 0.93868 0.14918 0.0
H1276 H 0.94113 0.98796 0.11973 0.0
H1277 H 0.96821 1.00505 0.13166 0.0
H1278 H 0.97791 0.9883 0.13377 0.0
H1279 H 0.95072 0.97115 0.12198 0.0
C1280 C 0.67437 0.86991 0.8082 0.0
C1281 C 0.68312 0.86353 0.80552 0.0
C1282 C 0.6843 0.87216 0.78827 0.0
C1283 C 0.68806 0.86466 0.79562 0.0
C1284 C 0.67545 0.87839 0.7909 0.0
C1285 C 0.67054 0.87727 0.80079 0.0
U1286 U 0.66766 0.85561 0.83443 0.0
O1287 O 0.66728 0.86204 0.85068 0.0
O1288 O 0.65277 0.85565 0.84352 0.0
C1289 C 0.657 0.86065 0.85164 0.0
C1290 C 0.66931 0.86928 0.81875 0.0
C1291 C 0.65093 0.86967 0.8561 0.0
C1292 C 0.63801 0.88399 0.85455 0.0
C1293 C 0.64399 0.87583 0.8499 0.0
C1294 C 0.64594 0.88005 0.87159 0.0
C1295 C 0.63892 0.88613 0.86545 0.0
C1296 C 0.65187 0.8719 0.86696 0.0
C1297 C 0.67813 0.82717 0.83922 0.0
C1298 C 0.67305 0.81566 0.85387 0.0
C1299 C 0.6868 0.81009 0.84165 0.0
C1300 C 0.68562 0.81958 0.83603 0.0
C1301 C 0.68049 0.80802 0.85058 0.0
C1302 C 0.67188 0.82519 0.84823 0.0
C1303 C 0.67687 0.83693 0.83288 0.0
O1304 O 0.66139 0.86258 0.81966 0.0
O1305 O 0.67577 0.86911 0.82693 0.0
O1306 O 0.68172 0.84541 0.83649 0.0
O1307 O 0.66726 0.83892 0.82936 0.0
H1308 H 0.68618 0.85777 0.81111 0.0
H1309 H 0.69488 0.85979 0.79373 0.0
H1310 H 0.67243 0.8842 0.78534 0.0
H1311 H 0.66381 0.88226 0.80271 0.0
H1312 H 0.63263 0.88859 0.84969 0.0
H1313 H 0.64313 0.87429 0.8415 0.0
H1314 H 0.64675 0.88158 0.88 0.0
H1315 H 0.65714 0.86724 0.8719 0.0
H1316 H 0.6681 0.8142 0.86073 0.0
H1317 H 0.69256 0.8043 0.83899 0.0
H1318 H 0.69051 0.82096 0.8291 0.0
H1319 H 0.66606 0.83095 0.85083 0.0
C1320 C 0.93607 0.92491 0.55817 0.0
C1321 C 0.94544 0.92595 0.55223 0.0
C1322 C 0.93561 0.93428 0.53783 0.0
C1323 C 0.9452 0.93056 0.54213 0.0
C1324 C 0.92627 0.93338 0.54382 0.0
C1325 C 0.9265 0.9287 0.5539 0.0
U1326 U 0.94966 0.9173 0.58438 0.0
O1327 O 0.94331 0.91687 0.60065 0.0
O1328 O 0.94924 0.90228 0.59326 0.0
C1329 C 0.94461 0.90657 0.60155 0.0
C1330 C 0.93609 0.91975 0.56871 0.0
C1331 C 0.93569 0.90058 0.60621 0.0
C1332 C 0.91809 0.8927 0.60523 0.0
C1333 C 0.92636 0.89847 0.6005 0.0
C1334 C 0.92842 0.89111 0.62135 0.0
C1335 C 0.91907 0.88899 0.6157 0.0
C1336 C 0.93665 0.89685 0.61664 0.0
C1337 C 0.97854 0.92653 0.58913 0.0
C1338 C 0.9879 0.92712 0.60602 0.0
C1339 C 0.99762 0.92938 0.58962 0.0
C1340 C 0.9882 0.92821 0.58388 0.0
C1341 C 0.99755 0.92891 0.60073 0.0
C1342 C 0.97845 0.92592 0.60026 0.0
C1343 C 0.96869 0.92573 0.58282 0.0
O1344 O 0.94227 0.91141 0.56973 0.0
O1345 O 0.9365 0.92615 0.57692 0.0
O1346 O 0.9604 0.93088 0.58649 0.0
O1347 O 0.96633 0.91626 0.57916 0.0
H1348 H 0.95293 0.92314 0.55537 0.0
H1349 H 0.95249 0.93121 0.53765 0.0
H1350 H 0.9188 0.93622 0.54065 0.0
H1351 H 0.91918 0.92799 0.55835 0.0
H1352 H 0.91091 0.89117 0.60077 0.0
H1353 H 0.92547 0.90129 0.59244 0.0
H1354 H 0.92932 0.88834 0.62943 0.0
H1355 H 0.94379 0.89839 0.62116 0.0
H1356 H 0.9877 0.9267 0.61459 0.0
H1357 H 1.00498 0.93073 0.5854 0.0
H1358 H 0.98844 0.92871 0.57531 0.0
H1359 H 0.97109 0.9246 0.60448 0.0
C1360 C 0.88142 0.18512 0.30828 0.0
C1361 C 0.8752 0.19346 0.30429 0.0
C1362 C 0.87141 0.18318 0.28836 0.0
C1363 C 0.87022 0.19249 0.29438 0.0
C1364 C 0.87767 0.17489 0.29236 0.0
C1365 C 0.88264 0.17586 0.30224 0.0
U1366 U 0.88855 0.19975 0.33417 0.0
O1367 O 0.88945 0.19358 0.35045 0.0
O1368 O 0.90374 0.19996 0.34287 0.0
C1369 C 0.89974 0.19513 0.35118 0.0
C1370 C 0.88668 0.18585 0.31871 0.0
C1371 C 0.90603 0.18627 0.35559 0.0
C1372 C 0.91021 0.16746 0.35707 0.0
C1373 C 0.90456 0.17575 0.35222 0.0
C1374 C 0.91899 0.18013 0.36852 0.0
C1375 C 0.91739 0.16959 0.36532 0.0
C1376 C 0.91336 0.18839 0.36369 0.0
C1377 C 0.878 0.22815 0.33889 0.0
C1378 C 0.882 0.23897 0.35437 0.0
C1379 C 0.87044 0.24582 0.34064 0.0
C1380 C 0.87161 0.23637 0.33495 0.0
C1381 C 0.87563 0.24721 0.35037 0.0
C1382 C 0.88317 0.22948 0.34866 0.0
C1383 C 0.87916 0.21834 0.33261 0.0
O1384 O 0.89456 0.19264 0.31939 0.0
O1385 O 0.88036 0.1861 0.32699 0.0
O1386 O 0.87448 0.20986 0.33644 0.0
O1387 O 0.8887 0.21639 0.32887 0.0
H1388 H 0.87417 0.20067 0.30883 0.0
H1389 H 0.8654 0.19896 0.29143 0.0
H1390 H 0.87868 0.16765 0.28785 0.0
H1391 H 0.88741 0.16934 0.30518 0.0
H1392 H 0.90885 0.15937 0.35451 0.0
H1393 H 0.89895 0.17394 0.34598 0.0
H1394 H 0.92448 0.18193 0.37487 0.0
H1395 H 0.91459 0.19644 0.36642 0.0
H1396 H 0.88608 0.2399 0.36186 0.0
H1397 H 0.86551 0.25209 0.33742 0.0
H1398 H 0.86756 0.23549 0.32743 0.0
H1399 H 0.88813 0.22322 0.35183 0.0
C1400 C 0.62071 0.13078 0.05807 0.0
C1401 C 0.61243 0.12444 0.05415 0.0
C1402 C 0.62277 0.12051 0.03829 0.0
C1403 C 0.61346 0.11934 0.04431 0.0
C1404 C 0.631 0.12689 0.04221 0.0
C1405 C 0.62997 0.13198 0.05202 0.0
U1406 U 0.60607 0.13813 0.08391 0.0
O1407 O 0.61226 0.1393 0.10016 0.0
O1408 O 0.60575 0.15345 0.09238 0.0
C1409 C 0.6107 0.1496 0.10071 0.0
C1410 C 0.61993 0.13616 0.06843 0.0
C1411 C 0.61953 0.15603 0.105 0.0
C1412 C 0.63832 0.15884 0.1086 0.0
C1413 C 0.63021 0.15306 0.10364 0.0
C1414 C 0.62526 0.1708 0.11605 0.0
C1415 C 0.63589 0.16767 0.11494 0.0
C1416 C 0.61716 0.16502 0.11113 0.0
C1417 C 0.5778 0.12735 0.08893 0.0
C1418 C 0.56566 0.13331 0.10272 0.0
C1419 C 0.5613 0.11788 0.09215 0.0
C1420 C 0.57081 0.11903 0.08655 0.0
C1421 C 0.55861 0.12504 0.10023 0.0
C1422 C 0.57521 0.13445 0.09711 0.0
C1423 C 0.58758 0.12853 0.08259 0.0
O1424 O 0.61305 0.14397 0.06901 0.0
O1425 O 0.61978 0.12996 0.0768 0.0
O1426 O 0.59612 0.12397 0.08644 0.0
O1427 O 0.58941 0.13802 0.07869 0.0
H1428 H 0.60522 0.12342 0.0587 0.0
H1429 H 0.60703 0.11443 0.04142 0.0
H1430 H 0.63824 0.12789 0.0377 0.0
H1431 H 0.63644 0.13683 0.05491 0.0
H1432 H 0.64648 0.15631 0.10765 0.0
H1433 H 0.63225 0.14618 0.09894 0.0
H1434 H 0.62323 0.17759 0.1209 0.0
H1435 H 0.609 0.16744 0.11231 0.0
H1436 H 0.56372 0.13893 0.10892 0.0
H1437 H 0.55597 0.11145 0.09012 0.0
H1438 H 0.57267 0.11346 0.08028 0.0
H1439 H 0.58051 0.14092 0.09908 0.0
C1440 C 0.67383 0.18543 0.74631 0.0
C1441 C 0.67873 0.19421 0.75098 0.0
C1442 C 0.6806 0.1846 0.76791 0.0
C1443 C 0.68235 0.19371 0.76149 0.0
C1444 C 0.67685 0.17548 0.76251 0.0
C1445 C 0.67326 0.17597 0.75203 0.0
U1446 U 0.66768 0.19944 0.71975 0.0
O1447 O 0.66786 0.19284 0.70354 0.0
O1448 O 0.65304 0.19896 0.7103 0.0
C1449 C 0.65757 0.19397 0.70235 0.0
C1450 C 0.66937 0.18585 0.73551 0.0
C1451 C 0.65177 0.18479 0.69787 0.0
C1452 C 0.63863 0.17066 0.69919 0.0
C1453 C 0.64454 0.17882 0.70392 0.0
C1454 C 0.64725 0.17416 0.6824 0.0
C1455 C 0.6399 0.16832 0.68837 0.0
C1456 C 0.65311 0.18232 0.6871 0.0
C1457 C 0.67681 0.22836 0.71501 0.0
C1458 C 0.67994 0.23756 0.69831 0.0
C1459 C 0.67751 0.24765 0.71447 0.0
C1460 C 0.67623 0.23821 0.72016 0.0
C1461 C 0.67945 0.24741 0.70351 0.0
C1462 C 0.67859 0.2281 0.70401 0.0
C1463 C 0.6759 0.21855 0.72139 0.0
O1464 O 0.66119 0.19218 0.73421 0.0
O1465 O 0.67623 0.18641 0.72768 0.0
O1466 O 0.68127 0.21025 0.71805 0.0
O1467 O 0.66635 0.21615 0.7248 0.0
H1468 H 0.67981 0.20145 0.74649 0.0
H1469 H 0.68672 0.20049 0.76428 0.0
H1470 H 0.67675 0.16776 0.7662 0.0
H1471 H 0.67003 0.16889 0.74838 0.0
H1472 H 0.633 0.16624 0.70393 0.0
H1473 H 0.64335 0.18055 0.71224 0.0
H1474 H 0.64835 0.17247 0.67405 0.0
H1475 H 0.65859 0.18683 0.68227 0.0
H1476 H 0.68142 0.23721 0.68986 0.0
H1477 H 0.6771 0.25516 0.71862 0.0
H1478 H 0.67488 0.2386 0.72863 0.0
H1479 H 0.67905 0.22061 0.69984 0.0
C1480 C 0.62017 0.92515 0.49477 0.0
C1481 C 0.61441 0.93438 0.49723 0.0
C1482 C 0.62258 0.93499 0.51474 0.0
C1483 C 0.61562 0.93928 0.50715 0.0
C1484 C 0.62818 0.92568 0.51232 0.0
C1485 C 0.627 0.92082 0.50242 0.0
U1486 U 0.60575 0.9177 0.4687 0.0
O1487 O 0.61227 0.9167 0.45249 0.0
O1488 O 0.60586 0.90249 0.46017 0.0
C1489 C 0.61097 0.90638 0.45197 0.0
C1490 C 0.61947 0.92002 0.48426 0.0
C1491 C 0.6202 0.90018 0.44819 0.0
C1492 C 0.63531 0.88859 0.45145 0.0
C1493 C 0.62691 0.89479 0.45527 0.0
C1494 C 0.6306 0.89327 0.43344 0.0
C1495 C 0.6372 0.88775 0.4405 0.0
C1496 C 0.62216 0.89941 0.43725 0.0
C1497 C 0.57685 0.9268 0.46399 0.0
C1498 C 0.56629 0.92236 0.44849 0.0
C1499 C 0.55814 0.93132 0.46321 0.0
C1500 C 0.5679 0.93154 0.46848 0.0
C1501 C 0.55679 0.92578 0.45352 0.0
C1502 C 0.57608 0.92253 0.45379 0.0
C1503 C 0.5868 0.92638 0.47014 0.0
O1504 O 0.61298 0.91191 0.48353 0.0
O1505 O 0.61903 0.92636 0.47599 0.0
O1506 O 0.59504 0.93128 0.46605 0.0
O1507 O 0.58919 0.91707 0.47416 0.0
H1508 H 0.60906 0.93785 0.49147 0.0
H1509 H 0.61122 0.94645 0.50887 0.0
H1510 H 0.63357 0.92225 0.51807 0.0
H1511 H 0.63151 0.91371 0.50069 0.0
H1512 H 0.64033 0.88441 0.45703 0.0
H1513 H 0.62559 0.89528 0.46374 0.0
H1514 H 0.63194 0.89273 0.42497 0.0
H1515 H 0.61708 0.9035 0.43165 0.0
H1516 H 0.5665 0.91969 0.4404 0.0
H1517 H 0.55168 0.93559 0.46689 0.0
H1518 H 0.56843 0.9354 0.47614 0.0
H1519 H 0.58305 0.91935 0.44991 0.0
C1520 C 0.8808 0.8696 0.24601 0.0
C1521 C 0.8718 0.86355 0.24859 0.0
C1522 C 0.87078 0.87212 0.26588 0.0
C1523 C 0.86682 0.86481 0.25845 0.0
C1524 C 0.87988 0.87801 0.26336 0.0
C1525 C 0.88483 0.87677 0.2535 0.0
U1526 U 0.88772 0.85517 0.21987 0.0
O1527 O 0.8882 0.86155 0.2036 0.0
O1528 O 0.90269 0.85522 0.21088 0.0
C1529 C 0.8985 0.86023 0.20274 0.0
C1530 C 0.8859 0.86889 0.23549 0.0
C1531 C 0.90456 0.86927 0.19827 0.0
C1532 C 0.91892 0.88221 0.19903 0.0
C1533 C 0.91293 0.87415 0.20382 0.0
C1534 C 0.9082 0.88077 0.18318 0.0
C1535 C 0.91663 0.88554 0.18865 0.0
C1536 C 0.90225 0.8727 0.18794 0.0
C1537 C 0.87746 0.82667 0.21508 0.0
C1538 C 0.88173 0.81578 0.19973 0.0
C1539 C 0.86982 0.80906 0.21321 0.0
C1540 C 0.87093 0.81852 0.2189 0.0
C1541 C 0.87524 0.80759 0.20361 0.0
C1542 C 0.88283 0.82528 0.20543 0.0
C1543 C 0.87861 0.83645 0.22141 0.0
O1544 O 0.89386 0.86221 0.23466 0.0
O1545 O 0.8795 0.86866 0.22727 0.0
O1546 O 0.87374 0.84491 0.21773 0.0
O1547 O 0.88818 0.83848 0.22499 0.0
H1548 H 0.86857 0.85795 0.24294 0.0
H1549 H 0.85981 0.86019 0.26026 0.0
H1550 H 0.88306 0.88367 0.26898 0.0
H1551 H 0.89175 0.88152 0.25167 0.0
H1552 H 0.9254 0.8858 0.20338 0.0
H1553 H 0.91492 0.87168 0.2118 0.0
H1554 H 0.9063 0.88322 0.17517 0.0
H1555 H 0.8959 0.86903 0.18346 0.0
H1556 H 0.88598 0.81478 0.19233 0.0
H1557 H 0.86479 0.80283 0.21634 0.0
H1558 H 0.86672 0.81945 0.22633 0.0
H1559 H 0.88791 0.83148 0.20236 0.0
C1560 C 0.93511 0.13111 0.99531 0.0
C1561 C 0.94414 0.12816 1.00117 0.0
C1562 C 0.93291 0.1214 1.01536 0.0
C1563 C 0.94304 0.12336 1.01114 0.0
C1564 C 0.92392 0.12428 1.00947 0.0
C1565 C 0.92502 0.12909 0.99954 0.0
U1566 U 0.95008 0.13842 0.96964 0.0
O1567 O 0.94412 0.13936 0.95328 0.0
O1568 O 0.95036 0.15363 0.96101 0.0
C1569 C 0.94567 0.14965 0.9526 0.0
C1570 C 0.93599 0.1364 0.9849 0.0
C1571 C 0.93685 0.15592 0.94811 0.0
C1572 C 0.91824 0.16107 0.94746 0.0
C1573 C 0.92653 0.15539 0.95227 0.0
C1574 C 0.93054 0.16798 0.93443 0.0
C1575 C 0.92018 0.16734 0.93845 0.0
C1576 C 0.9388 0.16232 0.93922 0.0
C1577 C 0.97854 0.12801 0.96518 0.0
C1578 C 0.98922 0.13167 0.94953 0.0
C1579 C 0.99642 0.12088 0.9637 0.0
C1580 C 0.98695 0.12203 0.96936 0.0
C1581 C 0.99765 0.1257 0.95375 0.0
C1582 C 0.97972 0.13282 0.95521 0.0
C1583 C 0.96868 0.12909 0.97139 0.0
O1584 O 0.94272 0.14433 0.98431 0.0
O1585 O 0.93635 0.13012 0.9766 0.0
O1586 O 0.96026 0.1244 0.96745 0.0
O1587 O 0.96666 0.1386 0.97515 0.0
H1588 H 0.95201 0.12962 0.99804 0.0
H1589 H 0.95007 0.12116 1.01556 0.0
H1590 H 0.91605 0.12281 1.01259 0.0
H1591 H 0.91796 0.1313 0.99515 0.0
H1592 H 0.91029 0.16046 0.95066 0.0
H1593 H 0.92487 0.15049 0.95913 0.0
H1594 H 0.93219 0.17275 0.92749 0.0
H1595 H 0.9467 0.16282 0.93589 0.0
H1596 H 0.99004 0.13546 0.94187 0.0
H1597 H 1.00283 0.11626 0.96709 0.0
H1598 H 0.98619 0.11825 0.97704 0.0
H1599 H 0.97331 0.13746 0.95185 0.0
C1600 C 0.80911 0.67392 0.86876 0.0
C1601 C 0.80693 0.6835 0.86347 0.0
C1602 C 0.78925 0.68401 0.8713 0.0
C1603 C 0.79707 0.68851 0.86476 0.0
C1604 C 0.79139 0.67436 0.87642 0.0
C1605 C 0.80123 0.66937 0.87517 0.0
U1606 U 0.83524 0.6668 0.85434 0.0
O1607 O 0.85146 0.66582 0.86067 0.0
O1608 O 0.84389 0.65158 0.85417 0.0
C1609 C 0.85217 0.65554 0.8591 0.0
C1610 C 0.81959 0.66868 0.86802 0.0
C1611 C 0.85648 0.64921 0.86797 0.0
C1612 C 0.85788 0.64507 0.88678 0.0
C1613 C 0.85311 0.65076 0.87848 0.0
C1614 C 0.86922 0.63607 0.87415 0.0
C1615 C 0.86604 0.63776 0.88467 0.0
C1616 C 0.86448 0.64175 0.86588 0.0
C1617 C 0.84032 0.67731 0.82603 0.0
C1618 C 0.85653 0.67435 0.81595 0.0
C1619 C 0.84181 0.68374 0.8079 0.0
C1620 C 0.83596 0.68259 0.81726 0.0
C1621 C 0.85213 0.67963 0.80716 0.0
C1622 C 0.85066 0.67319 0.82533 0.0
C1623 C 0.83391 0.6762 0.83575 0.0
O1624 O 0.82033 0.6608 0.86125 0.0
O1625 O 0.82793 0.67494 0.86792 0.0
O1626 O 0.83766 0.68087 0.84427 0.0
O1627 O 0.83011 0.66669 0.83765 0.0
H1628 H 0.81287 0.68714 0.85846 0.0
H1629 H 0.79557 0.69595 0.86073 0.0
H1630 H 0.78546 0.67075 0.88148 0.0
H1631 H 0.80275 0.662 0.87932 0.0
H1632 H 0.85533 0.64649 0.89485 0.0
H1633 H 0.84694 0.65647 0.88027 0.0
H1634 H 0.8755 0.63049 0.87237 0.0
H1635 H 0.86719 0.64045 0.85783 0.0
H1636 H 0.86448 0.67111 0.81551 0.0
H1637 H 0.83828 0.68781 0.80122 0.0
H1638 H 0.828 0.68581 0.81764 0.0
H1639 H 0.85416 0.66908 0.83201 0.0
C1640 C 0.30949 0.88147 0.18454 0.0
C1641 C 0.30465 0.87682 0.19336 0.0
C1642 C 0.28786 0.8748 0.18353 0.0
C1643 C 0.29412 0.87324 0.19277 0.0
C1644 C 0.29344 0.87826 0.1744 0.0
C1645 C 0.30393 0.88181 0.17497 0.0
U1646 U 0.33596 0.88748 0.19878 0.0
O1647 O 0.35224 0.8873 0.19238 0.0
O1648 O 0.34544 0.90212 0.19842 0.0
C1649 C 0.35351 0.89756 0.19364 0.0
C1650 C 0.32031 0.88591 0.18505 0.0
C1651 C 0.35813 0.90339 0.18461 0.0
C1652 C 0.3565 0.9131 0.16799 0.0
C1653 C 0.35184 0.90732 0.17629 0.0
C1654 C 0.37375 0.911 0.17621 0.0
C1655 C 0.36749 0.915 0.16792 0.0
C1656 C 0.3691 0.90525 0.18448 0.0
C1657 C 0.34051 0.87818 0.22761 0.0
C1658 C 0.35734 0.87562 0.23677 0.0
C1659 C 0.34105 0.87688 0.24685 0.0
C1660 C 0.33531 0.87818 0.23744 0.0
C1661 C 0.3521 0.87553 0.2466 0.0
C1662 C 0.3516 0.87697 0.22734 0.0
C1663 C 0.33414 0.87915 0.21781 0.0
O1664 O 0.32157 0.89406 0.19142 0.0
O1665 O 0.32813 0.87904 0.18562 0.0
O1666 O 0.33752 0.87382 0.20951 0.0
O1667 O 0.33077 0.88873 0.21543 0.0
H1668 H 0.30902 0.87591 0.2007 0.0
H1669 H 0.29118 0.86908 0.19962 0.0
H1670 H 0.28988 0.87817 0.16662 0.0
H1671 H 0.30772 0.88484 0.16788 0.0
H1672 H 0.35156 0.9161 0.16164 0.0
H1673 H 0.34336 0.90597 0.17624 0.0
H1674 H 0.38223 0.91235 0.17628 0.0
H1675 H 0.37409 0.9023 0.19082 0.0
H1676 H 0.36587 0.8746 0.2364 0.0
H1677 H 0.33686 0.87685 0.25435 0.0
H1678 H 0.32677 0.87909 0.23784 0.0
H1679 H 0.3558 0.87698 0.21985 0.0
C1680 C 0.92398 0.55921 0.93406 0.0
C1681 C 0.9314 0.55576 0.94163 0.0
C1682 C 0.93411 0.53936 0.93174 0.0
C1683 C 0.93644 0.54589 0.94046 0.0
C1684 C 0.92661 0.54279 0.92426 0.0
C1685 C 0.9216 0.55263 0.92541 0.0
U1686 U 0.91695 0.58502 0.94892 0.0
O1687 O 0.91619 0.60138 0.94289 0.0
O1688 O 0.90185 0.59383 0.94917 0.0
C1689 C 0.90591 0.60218 0.94445 0.0
C1690 C 0.91876 0.56966 0.9349 0.0
C1691 C 0.89971 0.60668 0.9356 0.0
C1692 C 0.89287 0.60599 0.91756 0.0
C1693 C 0.89856 0.60131 0.92591 0.0
C1694 C 0.88935 0.62136 0.92854 0.0
C1695 C 0.88827 0.61608 0.91882 0.0
C1696 C 0.89502 0.6167 0.93686 0.0
C1697 C 0.92747 0.58949 0.97733 0.0
C1698 C 0.92259 0.60429 0.98874 0.0
C1699 C 0.93582 0.59164 0.99459 0.0
C1700 C 0.93469 0.58605 0.98507 0.0
C1701 C 0.92976 0.60077 0.99652 0.0
C1702 C 0.92145 0.59868 0.97919 0.0
C1703 C 0.92631 0.58326 0.9675 0.0
O1704 O 0.91088 0.57031 0.94169 0.0
O1705 O 0.92511 0.57792 0.93522 0.0
O1706 O 0.93104 0.58711 0.95906 0.0
O1707 O 0.91676 0.57959 0.9655 0.0
H1708 H 0.93334 0.56071 0.94837 0.0
H1709 H 0.94221 0.54338 0.94631 0.0
H1710 H 0.92471 0.53787 0.91748 0.0
H1711 H 0.9159 0.55516 0.9195 0.0
H1712 H 0.89214 0.60181 0.9101 0.0
H1713 H 0.90214 0.59358 0.92479 0.0
H1714 H 0.88589 0.62915 0.92965 0.0
H1715 H 0.89583 0.62097 0.94427 0.0
H1716 H 0.91783 0.61131 0.99009 0.0
H1717 H 0.94139 0.5888 1.00049 0.0
H1718 H 0.9394 0.57897 0.98379 0.0
H1719 H 0.91585 0.60147 0.9733 0.0
C1720 C 0.24485 0.17522 0.68454 0.0
C1721 C 0.24703 0.18486 0.6897 0.0
C1722 C 0.26481 0.18511 0.6821 0.0
C1723 C 0.25693 0.18978 0.68847 0.0
C1724 C 0.26268 0.1754 0.6771 0.0
C1725 C 0.25279 0.17051 0.6783 0.0
U1726 U 0.21901 0.1676 0.69921 0.0
O1727 O 0.20264 0.16674 0.69318 0.0
O1728 O 0.21047 0.15237 0.69907 0.0
C1729 C 0.20201 0.15642 0.69451 0.0
C1730 C 0.23435 0.17002 0.68527 0.0
C1731 C 0.19751 0.15034 0.68558 0.0
C1732 C 0.19846 0.14315 0.66769 0.0
C1733 C 0.20309 0.14885 0.67606 0.0
C1734 C 0.1827 0.14034 0.67831 0.0
C1735 C 0.18821 0.13888 0.66876 0.0
C1736 C 0.18732 0.14601 0.68664 0.0
C1737 C 0.21465 0.17668 0.7281 0.0
C1738 C 0.19943 0.17179 0.73888 0.0
C1739 C 0.21361 0.18192 0.74659 0.0
C1740 C 0.21886 0.18204 0.73681 0.0
C1741 C 0.20426 0.17589 0.74819 0.0
C1742 C 0.2047 0.17187 0.72908 0.0
C1743 C 0.22076 0.17624 0.71813 0.0
O1744 O 0.23373 0.16185 0.69169 0.0
O1745 O 0.22603 0.1763 0.68581 0.0
O1746 O 0.21664 0.1812 0.70994 0.0
O1747 O 0.2247 0.16691 0.71568 0.0
H1748 H 0.24106 0.18862 0.69459 0.0
H1749 H 0.25843 0.19727 0.6924 0.0
H1750 H 0.26865 0.17167 0.67218 0.0
H1751 H 0.25129 0.16308 0.67425 0.0
H1752 H 0.20282 0.14213 0.66036 0.0
H1753 H 0.21097 0.15214 0.67509 0.0
H1754 H 0.17479 0.13714 0.67927 0.0
H1755 H 0.18289 0.14708 0.69392 0.0
H1756 H 0.1915 0.16866 0.73882 0.0
H1757 H 0.21702 0.1867 0.75282 0.0
H1758 H 0.22627 0.18633 0.73609 0.0
H1759 H 0.20099 0.1682 0.72226 0.0
C1760 C 0.13103 0.9964 0.9346 0.0
C1761 C 0.12357 0.99979 0.94215 0.0
C1762 C 0.12083 1.01621 0.93231 0.0
C1763 C 0.11849 1.00964 0.941 0.0
C1764 C 0.12837 1.01284 0.92484 0.0
C1765 C 0.13342 1.00301 0.92598 0.0
U1766 U 0.1384 0.97054 0.94933 0.0
O1767 O 0.13944 0.95425 0.94319 0.0
O1768 O 0.15369 0.962 0.94947 0.0
C1769 C 0.14976 0.95367 0.94459 0.0
C1770 C 0.13633 0.98598 0.93542 0.0
C1771 C 0.15607 0.94933 0.93569 0.0
C1772 C 0.15848 0.9453 0.91695 0.0
C1773 C 0.15275 0.95028 0.92509 0.0
C1774 C 0.17108 0.93865 0.92982 0.0
C1775 C 0.16761 0.93935 0.91927 0.0
C1776 C 0.16535 0.94358 0.93795 0.0
C1777 C 0.12808 0.96577 0.97779 0.0
C1778 C 0.13115 0.94974 0.98812 0.0
C1779 C 0.12164 0.96451 0.99592 0.0
C1780 C 0.12276 0.97022 0.98648 0.0
C1781 C 0.12582 0.95423 0.99683 0.0
C1782 C 0.13228 0.95548 0.97865 0.0
C1783 C 0.12912 0.97205 0.96797 0.0
O1784 O 0.14424 0.98539 0.94219 0.0
O1785 O 0.13008 0.97765 0.93573 0.0
O1786 O 0.12443 0.96816 0.95952 0.0
O1787 O 0.13861 0.97586 0.96596 0.0
H1788 H 0.12163 0.9948 0.94886 0.0
H1789 H 0.11269 1.0121 0.94683 0.0
H1790 H 0.13028 1.01779 0.91809 0.0
H1791 H 0.13915 1.00054 0.92008 0.0
H1792 H 0.15568 0.94593 0.90885 0.0
H1793 H 0.14564 0.95468 0.92312 0.0
H1794 H 0.1781 0.9341 0.93178 0.0
H1795 H 0.16805 0.94273 0.94606 0.0
H1796 H 0.13445 0.94183 0.98868 0.0
H1797 H 0.11752 0.96811 1.00255 0.0
H1798 H 0.11947 0.97815 0.98597 0.0
H1799 H 0.13642 0.95192 0.97202 0.0
C1800 C 0.74545 0.37972 0.37033 0.0
C1801 C 0.7485 0.37166 0.36327 0.0
C1802 C 0.76534 0.36963 0.37257 0.0
C1803 C 0.75838 0.36663 0.3644 0.0
C1804 C 0.76232 0.37778 0.37953 0.0
C1805 C 0.75246 0.38277 0.37842 0.0
U1806 U 0.71987 0.38754 0.35539 0.0
O1807 O 0.70345 0.38851 0.36125 0.0
O1808 O 0.71141 0.40284 0.35547 0.0
C1809 C 0.70289 0.39884 0.35996 0.0
C1810 C 0.73502 0.38501 0.36953 0.0
C1811 C 0.69837 0.40493 0.36887 0.0
C1812 C 0.69895 0.41148 0.38702 0.0
C1813 C 0.70362 0.4058 0.37866 0.0
C1814 C 0.68382 0.41551 0.37588 0.0
C1815 C 0.68899 0.41633 0.38569 0.0
C1816 C 0.68848 0.40986 0.36754 0.0
C1817 C 0.71568 0.3786 0.32647 0.0
C1818 C 0.69971 0.38199 0.31618 0.0
C1819 C 0.7152 0.37493 0.30758 0.0
C1820 C 0.72055 0.37477 0.31729 0.0
C1821 C 0.70497 0.3795 0.30653 0.0
C1822 C 0.70509 0.38189 0.32592 0.0
C1823 C 0.72175 0.37896 0.33646 0.0
O1824 O 0.73453 0.39317 0.36308 0.0
O1825 O 0.72671 0.37876 0.36884 0.0
O1826 O 0.71757 0.37399 0.34461 0.0
O1827 O 0.72573 0.38825 0.33897 0.0
H1828 H 0.74323 0.36922 0.35695 0.0
H1829 H 0.76057 0.36037 0.35895 0.0
H1830 H 0.76757 0.38021 0.38588 0.0
H1831 H 0.75026 0.38898 0.38394 0.0
H1832 H 0.70304 0.412 0.39455 0.0
H1833 H 0.71126 0.40204 0.37983 0.0
H1834 H 0.67614 0.41917 0.3747 0.0
H1835 H 0.68431 0.40927 0.36006 0.0
H1836 H 0.69139 0.38383 0.31654 0.0
H1837 H 0.71922 0.37132 0.30094 0.0
H1838 H 0.72855 0.37164 0.31763 0.0
H1839 H 0.70095 0.38433 0.33304 0.0
C1840 C 0.92434 0.49577 0.61966 0.0
C1841 C 0.93183 0.49918 0.61215 0.0
C1842 C 0.93446 0.5156 0.62202 0.0
C1843 C 0.93686 0.50904 0.61333 0.0
C1844 C 0.92689 0.51221 0.62944 0.0
C1845 C 0.92189 0.50237 0.62827 0.0
U1846 U 0.9172 0.46998 0.60479 0.0
O1847 O 0.91651 0.4536 0.6108 0.0
O1848 O 0.9021 0.46118 0.60467 0.0
C1849 C 0.90622 0.45281 0.60933 0.0
C1850 C 0.91914 0.48531 0.61883 0.0
C1851 C 0.90009 0.44826 0.61819 0.0
C1852 C 0.89318 0.44896 0.6362 0.0
C1853 C 0.89884 0.45367 0.62785 0.0
C1854 C 0.88993 0.43349 0.6253 0.0
C1855 C 0.88873 0.43881 0.63499 0.0
C1856 C 0.89556 0.43818 0.61697 0.0
C1857 C 0.92739 0.46553 0.57627 0.0
C1858 C 0.92371 0.44983 0.56566 0.0
C1859 C 0.93432 0.46406 0.55834 0.0
C1860 C 0.93325 0.46974 0.56781 0.0
C1861 C 0.92956 0.45408 0.55717 0.0
C1862 C 0.92263 0.45552 0.57516 0.0
C1863 C 0.92634 0.47177 0.58611 0.0
O1864 O 0.91119 0.48468 0.61212 0.0
O1865 O 0.92549 0.47705 0.61842 0.0
O1866 O 0.93116 0.46791 0.5945 0.0
O1867 O 0.91681 0.47544 0.58821 0.0
H1868 H 0.93382 0.4942 0.60545 0.0
H1869 H 0.94268 0.51152 0.60753 0.0
H1870 H 0.92493 0.51715 0.63619 0.0
H1871 H 0.91614 0.49988 0.63415 0.0
H1872 H 0.89236 0.45317 0.64364 0.0
H1873 H 0.90229 0.46145 0.62894 0.0
H1874 H 0.88658 0.42565 0.62421 0.0
H1875 H 0.89645 0.43388 0.60959 0.0
H1876 H 0.91996 0.44214 0.5649 0.0
H1877 H 0.93885 0.46747 0.55188 0.0
H1878 H 0.93697 0.47745 0.56851 0.0
H1879 H 0.91808 0.45214 0.58161 0.0
C1880 C 0.63072 0.55847 0.12004 0.0
C1881 C 0.62674 0.55328 0.11103 0.0
C1882 C 0.62061 0.53859 0.12201 0.0
C1883 C 0.62173 0.54339 0.11201 0.0
C1884 C 0.62456 0.54382 0.13099 0.0
C1885 C 0.62958 0.55368 0.13001 0.0
U1886 U 0.63861 0.58424 0.10546 0.0
O1887 O 0.63978 0.6005 0.11166 0.0
O1888 O 0.65401 0.59258 0.10551 0.0
C1889 C 0.65011 0.60097 0.11032 0.0
C1890 C 0.63617 0.5688 0.11929 0.0
C1891 C 0.65641 0.6053 0.11922 0.0
C1892 C 0.65895 0.60904 0.138 0.0
C1893 C 0.65325 0.60407 0.12984 0.0
C1894 C 0.67119 0.61626 0.12509 0.0
C1895 C 0.66788 0.61528 0.13566 0.0
C1896 C 0.66549 0.61132 0.11695 0.0
C1897 C 0.62879 0.58948 0.07681 0.0
C1898 C 0.62324 0.60538 0.06726 0.0
C1899 C 0.63032 0.59039 0.05757 0.0
C1900 C 0.63165 0.58485 0.06709 0.0
C1901 C 0.62602 0.60066 0.05756 0.0
C1902 C 0.62463 0.59985 0.07681 0.0
C1903 C 0.62962 0.5831 0.08667 0.0
O1904 O 0.64416 0.56932 0.11262 0.0
O1905 O 0.63002 0.57722 0.11895 0.0
O1906 O 0.62478 0.58678 0.09514 0.0
O1907 O 0.63898 0.579 0.08877 0.0
H1908 H 0.62753 0.55685 0.10326 0.0
H1909 H 0.6187 0.53948 0.10499 0.0
H1910 H 0.62376 0.54027 0.13877 0.0
H1911 H 0.63259 0.55755 0.13706 0.0
H1912 H 0.65628 0.60819 0.14612 0.0
H1913 H 0.64629 0.59944 0.13181 0.0
H1914 H 0.67805 0.62104 0.12312 0.0
H1915 H 0.66805 0.6124 0.10882 0.0
H1916 H 0.61991 0.6133 0.06742 0.0
H1917 H 0.6325 0.58661 0.05018 0.0
H1918 H 0.63479 0.57685 0.06685 0.0
H1919 H 0.62232 0.60366 0.08415 0.0
C1920 C 0.68666 0.74766 0.88242 0.0
C1921 C 0.69564 0.75229 0.87772 0.0
C1922 C 0.68506 0.76753 0.87225 0.0
C1923 C 0.69484 0.76218 0.87267 0.0
C1924 C 0.67612 0.76289 0.87697 0.0
C1925 C 0.67692 0.75304 0.88201 0.0
U1926 U 0.70094 0.72169 0.89015 0.0
O1927 O 0.70042 0.71286 0.90519 0.0
O1928 O 0.69459 0.70539 0.89061 0.0
C1929 C 0.69556 0.70467 0.90096 0.0
C1930 C 0.68718 0.73722 0.88768 0.0
C1931 C 0.68631 0.70029 0.90677 0.0
C1932 C 0.67279 0.70133 0.92058 0.0
C1933 C 0.68106 0.70602 0.91478 0.0
C1934 C 0.67476 0.68521 0.91034 0.0
C1935 C 0.66962 0.69087 0.91843 0.0
C1936 C 0.68303 0.68987 0.90459 0.0
C1937 C 0.72986 0.71699 0.88076 0.0
C1938 C 0.73939 0.70022 0.87938 0.0
C1939 C 0.749 0.7168 0.87816 0.0
C1940 C 0.7395 0.7224 0.87951 0.0
C1941 C 0.74901 0.70568 0.87801 0.0
C1942 C 0.72987 0.70583 0.88076 0.0
C1943 C 0.71995 0.7232 0.88165 0.0
O1944 O 0.6877 0.72895 0.88136 0.0
O1945 O 0.69362 0.7365 0.89585 0.0
O1946 O 0.71762 0.72688 0.89112 0.0
O1947 O 0.71164 0.71949 0.87655 0.0
H1948 H 0.70322 0.74824 0.87794 0.0
H1949 H 0.70182 0.76563 0.86905 0.0
H1950 H 0.66852 0.76689 0.8767 0.0
H1951 H 0.66991 0.74959 0.88558 0.0
H1952 H 0.66893 0.70582 0.92679 0.0
H1953 H 0.6834 0.71406 0.91666 0.0
H1954 H 0.67244 0.67713 0.90856 0.0
H1955 H 0.68698 0.68526 0.89851 0.0
H1956 H 0.73925 0.69163 0.87932 0.0
H1957 H 0.75634 0.72115 0.87714 0.0
H1958 H 0.73968 0.73099 0.87947 0.0
H1959 H 0.72253 0.70148 0.88173 0.0
C1960 C 0.55754 0.43594 0.13286 0.0
C1961 C 0.55455 0.44338 0.12512 0.0
C1962 C 0.53773 0.43422 0.12259 0.0
C1963 C 0.54471 0.44252 0.12001 0.0
C1964 C 0.54067 0.42689 0.13043 0.0
C1965 C 0.5505 0.42775 0.13552 0.0
U1966 U 0.58376 0.44994 0.13997 0.0
O1967 O 0.59275 0.44969 0.15493 0.0
O1968 O 0.59999 0.44342 0.14042 0.0
C1969 C 0.60088 0.44468 0.15071 0.0
C1970 C 0.56802 0.43638 0.13806 0.0
C1971 C 0.60518 0.43554 0.15669 0.0
C1972 C 0.60308 0.42037 0.1685 0.0
C1973 C 0.59864 0.42875 0.16265 0.0
C1974 C 0.62059 0.42538 0.1624 0.0
C1975 C 0.6141 0.41864 0.16842 0.0
C1976 C 0.61616 0.43375 0.1566 0.0
C1977 C 0.58857 0.4785 0.12959 0.0
C1978 C 0.60253 0.49064 0.13515 0.0
C1979 C 0.59126 0.49519 0.12027 0.0
C1980 C 0.58579 0.48562 0.1215 0.0
C1981 C 0.59963 0.49781 0.12712 0.0
C1982 C 0.59704 0.48103 0.13638 0.0
C1983 C 0.58232 0.46868 0.13087 0.0
O1984 O 0.57627 0.43655 0.13169 0.0
O1985 O 0.5689 0.44301 0.14604 0.0
O1986 O 0.57878 0.46667 0.14046 0.0
O1987 O 0.58596 0.46022 0.126 0.0
H1988 H 0.55987 0.44977 0.12297 0.0
H1989 H 0.54257 0.44824 0.11397 0.0
H1990 H 0.5354 0.42044 0.13252 0.0
H1991 H 0.55266 0.42193 0.14146 0.0
H1992 H 0.59794 0.41526 0.1731 0.0
H1993 H 0.59013 0.42995 0.16283 0.0
H1994 H 0.62909 0.42418 0.16223 0.0
H1995 H 0.62136 0.43889 0.15208 0.0
H1996 H 0.60896 0.49253 0.14051 0.0
H1997 H 0.58891 0.50061 0.11404 0.0
H1998 H 0.57928 0.48382 0.11619 0.0
H1999 H 0.59933 0.47564 0.14266 0.0
C2000 C 0.86865 0.30713 0.38292 0.0
C2001 C 0.86014 0.30304 0.377 0.0
C2002 C 0.8706 0.2874 0.37252 0.0
C2003 C 0.86112 0.29323 0.37183 0.0
C2004 C 0.87906 0.29149 0.37848 0.0
C2005 C 0.87809 0.30127 0.38363 0.0
U2006 U 0.85382 0.33271 0.3907 0.0
O2007 O 0.85382 0.34126 0.40595 0.0
O2008 O 0.85975 0.3491 0.39161 0.0
C2009 C 0.85841 0.3497 0.40193 0.0
C2010 C 0.86792 0.31748 0.38833 0.0
C2011 C 0.86737 0.35415 0.40802 0.0
C2012 C 0.88593 0.3542 0.41337 0.0
C2013 C 0.87751 0.34951 0.40781 0.0
C2014 C 0.87415 0.36808 0.41952 0.0
C2015 C 0.88432 0.36356 0.41922 0.0
C2016 C 0.86575 0.36341 0.41397 0.0
C2017 C 0.82506 0.33695 0.38079 0.0
C2018 C 0.81492 0.35336 0.38201 0.0
C2019 C 0.80637 0.33726 0.37596 0.0
C2020 C 0.81592 0.33173 0.37718 0.0
C2021 C 0.8058 0.34812 0.37834 0.0
C2022 C 0.8245 0.34781 0.38324 0.0
C2023 C 0.83504 0.3309 0.38174 0.0
O2024 O 0.8674 0.32584 0.38213 0.0
O2025 O 0.86132 0.31798 0.39637 0.0
O2026 O 0.83726 0.32713 0.3912 0.0
O2027 O 0.84336 0.33491 0.37691 0.0
H2028 H 0.85279 0.30745 0.37635 0.0
H2029 H 0.85451 0.29021 0.36725 0.0
H2030 H 0.88644 0.28711 0.37909 0.0
H2031 H 0.88474 0.30429 0.38816 0.0
H2032 H 0.89374 0.35061 0.41303 0.0
H2033 H 0.87891 0.34236 0.40326 0.0
H2034 H 0.87274 0.3753 0.42396 0.0
H2035 H 0.85799 0.3671 0.41423 0.0
H2036 H 0.81462 0.36173 0.38391 0.0
H2037 H 0.79942 0.33308 0.37314 0.0
H2038 H 0.81619 0.32336 0.37524 0.0
H2039 H 0.83147 0.35198 0.38605 0.0
C2040 C 0.99692 0.61948 0.63232 0.0
C2041 C 1.00373 0.61094 0.63001 0.0
C2042 C 1.01639 0.62306 0.62185 0.0
C2043 C 1.01343 0.61273 0.62481 0.0
C2044 C 1.00955 0.63154 0.62413 0.0
C2045 C 0.99992 0.62976 0.62932 0.0
U2046 U 0.97182 0.60371 0.6406 0.0
O2047 O 0.96365 0.60362 0.65605 0.0
O2048 O 0.95538 0.60945 0.64192 0.0
C2049 C 0.95506 0.60816 0.65225 0.0
C2050 C 0.98674 0.61805 0.63796 0.0
C2051 C 0.95077 0.61717 0.65839 0.0
C2052 C 0.9511 0.6357 0.66383 0.0
C2053 C 0.95565 0.62718 0.65829 0.0
C2054 C 0.93686 0.62425 0.66975 0.0
C2055 C 0.94162 0.6343 0.66954 0.0
C2056 C 0.9414 0.61576 0.66422 0.0
C2057 C 0.96745 0.57508 0.63043 0.0
C2058 C 0.95125 0.56478 0.63252 0.0
C2059 C 0.96681 0.55666 0.62471 0.0
C2060 C 0.97238 0.56618 0.62593 0.0
C2061 C 0.9562 0.55589 0.62797 0.0
C2062 C 0.95684 0.57433 0.63375 0.0
C2063 C 0.97351 0.58505 0.63137 0.0
O2064 O 0.97822 0.61751 0.63199 0.0
O2065 O 0.98665 0.61126 0.64587 0.0
O2066 O 0.97749 0.58716 0.64076 0.0
O2067 O 0.96935 0.59341 0.62673 0.0
H2068 H 1.00157 0.60293 0.63222 0.0
H2069 H 1.0186 0.60609 0.62308 0.0
H2070 H 1.01168 0.63955 0.62189 0.0
H2071 H 0.9948 0.63645 0.63103 0.0
H2072 H 0.95487 0.64341 0.66356 0.0
H2073 H 0.96288 0.62843 0.65382 0.0
H2074 H 0.92955 0.62301 0.67408 0.0
H2075 H 0.93752 0.6081 0.66439 0.0
H2076 H 0.94307 0.56433 0.63511 0.0
H2077 H 0.97077 0.54989 0.6212 0.0
H2078 H 0.98056 0.5666 0.62331 0.0
H2079 H 0.95289 0.58112 0.63725 0.0
C2080 C 0.68727 0.30779 0.67191 0.0
C2081 C 0.69429 0.29944 0.66946 0.0
C2082 C 0.68523 0.28783 0.68197 0.0
C2083 C 0.69325 0.28955 0.67444 0.0
C2084 C 0.67829 0.29618 0.68449 0.0
C2085 C 0.67928 0.30604 0.67948 0.0
U2086 U 0.70134 0.33381 0.6638 0.0
O2087 O 0.70119 0.34226 0.64848 0.0
O2088 O 0.69498 0.35003 0.66275 0.0
C2089 C 0.69632 0.35059 0.65243 0.0
C2090 C 0.68777 0.31818 0.66635 0.0
C2091 C 0.6873 0.3548 0.64623 0.0
C2092 C 0.66837 0.35618 0.64253 0.0
C2093 C 0.67681 0.35151 0.6481 0.0
C2094 C 0.68081 0.36728 0.633 0.0
C2095 C 0.67031 0.36418 0.63501 0.0
C2096 C 0.68922 0.36264 0.63857 0.0
C2097 C 0.72998 0.33857 0.67413 0.0
C2098 C 0.7421 0.35257 0.66865 0.0
C2099 C 0.74687 0.34093 0.68317 0.0
C2100 C 0.73724 0.33555 0.682 0.0
C2101 C 0.7494 0.34944 0.67648 0.0
C2102 C 0.73243 0.34717 0.66748 0.0
C2103 C 0.72006 0.33246 0.67297 0.0
O2104 O 0.6879 0.32666 0.67241 0.0
O2105 O 0.69422 0.3189 0.65819 0.0
O2106 O 0.71803 0.32866 0.66348 0.0
O2107 O 0.71164 0.33639 0.67768 0.0
H2108 H 0.70051 0.3005 0.66365 0.0
H2109 H 0.69868 0.28321 0.67238 0.0
H2110 H 0.67205 0.29501 0.69027 0.0
H2111 H 0.67372 0.31229 0.68145 0.0
H2112 H 0.66032 0.35368 0.64419 0.0
H2113 H 0.67514 0.34546 0.65397 0.0
H2114 H 0.68247 0.37344 0.62725 0.0
H2115 H 0.69724 0.3653 0.63702 0.0
H2116 H 0.74393 0.35912 0.66341 0.0
H2117 H 0.75239 0.3384 0.68924 0.0
H2118 H 0.7355 0.32894 0.6872 0.0
H2119 H 0.72692 0.34964 0.66137 0.0
C2120 C 0.9967 0.4355 0.92181 0.0
C2121 C 1.0033 0.4441 0.92443 0.0
C2122 C 1.01611 0.43202 0.93243 0.0
C2123 C 1.01297 0.44236 0.9297 0.0
C2124 C 1.00947 0.42347 0.92983 0.0
C2125 C 0.99987 0.4252 0.92457 0.0
U2126 U 0.97163 0.45124 0.91334 0.0
O2127 O 0.9636 0.45137 0.89779 0.0
O2128 O 0.95522 0.44551 0.91184 0.0
C2129 C 0.95501 0.4468 0.90151 0.0
C2130 C 0.98656 0.4369 0.91609 0.0
C2131 C 0.95076 0.43782 0.89529 0.0
C2132 C 0.94961 0.41894 0.89137 0.0
C2133 C 0.95428 0.42737 0.89694 0.0
C2134 C 0.93806 0.43132 0.88229 0.0
C2135 C 0.94139 0.42085 0.88408 0.0
C2136 C 0.94271 0.43973 0.88785 0.0
C2137 C 0.96716 0.47985 0.92353 0.0
C2138 C 0.95098 0.49018 0.92126 0.0
C2139 C 0.96645 0.49825 0.9293 0.0
C2140 C 0.97204 0.48873 0.92811 0.0
C2141 C 0.95588 0.49905 0.92591 0.0
C2142 C 0.95659 0.48063 0.92007 0.0
C2143 C 0.97323 0.46987 0.92262 0.0
O2144 O 0.97798 0.43743 0.92198 0.0
O2145 O 0.98651 0.4437 0.90818 0.0
O2146 O 0.97729 0.46778 0.91326 0.0
O2147 O 0.96903 0.46151 0.9272 0.0
H2148 H 1.00099 0.45213 0.92239 0.0
H2149 H 1.01798 0.44905 0.93167 0.0
H2150 H 1.01174 0.41545 0.9319 0.0
H2151 H 0.99491 0.41847 0.92262 0.0
H2152 H 0.95227 0.41091 0.89287 0.0
H2153 H 0.96049 0.42572 0.90264 0.0
H2154 H 0.93173 0.43296 0.87672 0.0
H2155 H 0.93988 0.44773 0.88647 0.0
H2156 H 0.94283 0.49066 0.91858 0.0
H2157 H 0.97037 0.505 0.93288 0.0
H2158 H 0.98018 0.48828 0.93083 0.0
H2159 H 0.95268 0.47386 0.9165 0.0
C2160 C 0.86888 0.74739 0.17151 0.0
C2161 C 0.86029 0.75151 0.17729 0.0
C2162 C 0.87062 0.76724 0.1817 0.0
C2163 C 0.86116 0.76138 0.18235 0.0
C2164 C 0.87916 0.76313 0.17586 0.0
C2165 C 0.87829 0.75328 0.17081 0.0
U2166 U 0.85451 0.72138 0.16435 0.0
O2167 O 0.85454 0.71252 0.1493 0.0
O2168 O 0.86083 0.7051 0.1637 0.0
C2169 C 0.8594 0.70427 0.15342 0.0
C2170 C 0.86829 0.73695 0.16625 0.0
C2171 C 0.86841 0.69991 0.14733 0.0
C2172 C 0.88545 0.70181 0.13841 0.0
C2173 C 0.87699 0.70627 0.14415 0.0
C2174 C 0.87682 0.68466 0.139 0.0
C2175 C 0.88541 0.69097 0.13582 0.0
C2176 C 0.8684 0.6891 0.1447 0.0
C2177 C 0.82604 0.71664 0.17493 0.0
C2178 C 0.81322 0.7036 0.1687 0.0
C2179 C 0.80997 0.71316 0.18504 0.0
C2180 C 0.81956 0.71859 0.18376 0.0
C2181 C 0.80668 0.70568 0.17749 0.0
C2182 C 0.82285 0.70903 0.16743 0.0
C2183 C 0.83587 0.72288 0.17363 0.0
O2184 O 0.86807 0.72868 0.17258 0.0
O2185 O 0.86156 0.73619 0.15833 0.0
O2186 O 0.83784 0.72654 0.16407 0.0
O2187 O 0.84436 0.71917 0.17841 0.0
H2188 H 0.85297 0.74707 0.17792 0.0
H2189 H 0.85449 0.76442 0.18683 0.0
H2190 H 0.88652 0.76752 0.17528 0.0
H2191 H 0.88501 0.75023 0.16639 0.0
H2192 H 0.89203 0.70679 0.13606 0.0
H2193 H 0.87717 0.71462 0.14612 0.0
H2194 H 0.87667 0.67628 0.13711 0.0
H2195 H 0.86186 0.68407 0.14709 0.0
H2196 H 0.81081 0.69786 0.16279 0.0
H2197 H 0.80504 0.71488 0.19186 0.0
H2198 H 0.82187 0.72442 0.18963 0.0
H2199 H 0.82774 0.70738 0.16057 0.0
C2200 C 0.55734 0.61827 0.42085 0.0
C2201 C 0.55473 0.61147 0.42929 0.0
C2202 C 0.53758 0.62022 0.43122 0.0
C2203 C 0.54491 0.61246 0.43445 0.0
C2204 C 0.54015 0.62688 0.42268 0.0
C2205 C 0.54995 0.62591 0.41756 0.0
U2206 U 0.58341 0.6041 0.41315 0.0
O2207 O 0.59195 0.60442 0.39788 0.0
O2208 O 0.59961 0.61048 0.41226 0.0
C2209 C 0.60021 0.60931 0.40192 0.0
C2210 C 0.56776 0.61773 0.41552 0.0
C2211 C 0.60441 0.61843 0.39583 0.0
C2212 C 0.60756 0.63737 0.39356 0.0
C2213 C 0.60277 0.62897 0.39907 0.0
C2214 C 0.61543 0.62483 0.38132 0.0
C2215 C 0.61402 0.63534 0.38471 0.0
C2216 C 0.61068 0.61646 0.38684 0.0
C2217 C 0.58838 0.57533 0.42291 0.0
C2218 C 0.60517 0.56586 0.42449 0.0
C2219 C 0.5886 0.55619 0.42546 0.0
C2220 C 0.58298 0.56566 0.42406 0.0
C2221 C 0.59973 0.55621 0.42576 0.0
C2222 C 0.59953 0.57536 0.42306 0.0
C2223 C 0.58213 0.58522 0.42196 0.0
O2224 O 0.57612 0.61743 0.42174 0.0
O2225 O 0.56845 0.61118 0.40745 0.0
O2226 O 0.57829 0.58738 0.41252 0.0
O2227 O 0.58587 0.59362 0.42687 0.0
H2228 H 0.5603 0.6055 0.43194 0.0
H2229 H 0.54307 0.60724 0.44101 0.0
H2230 H 0.5346 0.6329 0.42007 0.0
H2231 H 0.5518 0.63122 0.41106 0.0
H2232 H 0.60638 0.64542 0.39629 0.0
H2233 H 0.59795 0.63071 0.40597 0.0
H2234 H 0.62038 0.62311 0.37451 0.0
H2235 H 0.61206 0.6084 0.3842 0.0
H2236 H 0.61375 0.56602 0.42467 0.0
H2237 H 0.58427 0.54883 0.4264 0.0
H2238 H 0.57439 0.56545 0.42398 0.0
H2239 H 0.60387 0.58272 0.42218 0.0
C2240 C 0.88538 0.68645 0.74766 0.0
C2241 C 0.87835 0.6944 0.75104 0.0
C2242 C 0.8749 0.68463 0.76735 0.0
C2243 C 0.87313 0.69349 0.76083 0.0
C2244 C 0.88203 0.67675 0.764 0.0
C2245 C 0.88722 0.67766 0.75424 0.0
U2246 U 0.89231 0.70055 0.72146 0.0
O2247 O 0.90734 0.70054 0.7125 0.0
O2248 O 0.89292 0.69403 0.7053 0.0
C2249 C 0.90319 0.69552 0.70437 0.0
C2250 C 0.89067 0.68698 0.73724 0.0
C2251 C 0.90935 0.68649 0.70013 0.0
C2252 C 0.91415 0.66777 0.69996 0.0
C2253 C 0.90862 0.67629 0.70455 0.0
C2254 C 0.92133 0.6796 0.68664 0.0
C2255 C 0.92047 0.66936 0.69091 0.0
C2256 C 0.91581 0.68809 0.69122 0.0
C2257 C 0.88097 0.72874 0.71646 0.0
C2258 C 0.8805 0.73818 0.69965 0.0
C2259 C 0.87414 0.74673 0.71546 0.0
C2260 C 0.87683 0.73775 0.7214 0.0
C2261 C 0.87489 0.74682 0.70424 0.0
C2262 C 0.88318 0.72915 0.70561 0.0
C2263 C 0.88275 0.71907 0.72282 0.0
O2264 O 0.88435 0.68696 0.72896 0.0
O2265 O 0.89847 0.69383 0.73638 0.0
O2266 O 0.89246 0.7174 0.72622 0.0
O2267 O 0.87809 0.71042 0.71936 0.0
H2268 H 0.87682 0.70124 0.74607 0.0
H2269 H 0.86765 0.69964 0.76327 0.0
H2270 H 0.88349 0.66986 0.76891 0.0
H2271 H 0.89261 0.67144 0.75177 0.0
H2272 H 0.91337 0.65992 0.70335 0.0
H2273 H 0.90368 0.67489 0.71143 0.0
H2274 H 0.92614 0.68099 0.67967 0.0
H2275 H 0.91647 0.69589 0.68769 0.0
H2276 H 0.8831 0.73821 0.69153 0.0
H2277 H 0.87152 0.75359 0.71986 0.0
H2278 H 0.87559 0.73785 0.7299 0.0
H2279 H 0.88697 0.72248 0.70172 0.0
C2280 C 0.61849 0.63167 0.99689 0.0
C2281 C 0.61012 0.63226 1.00425 0.0
C2282 C 0.62026 0.62173 1.0169 0.0
C2283 C 0.61102 0.62736 1.01419 0.0
C2284 C 0.62855 0.62103 1.0095 0.0
C2285 C 0.62767 0.62597 0.9996 0.0
U2286 U 0.60438 0.64014 0.97101 0.0
O2287 O 0.60515 0.6553 0.9624 0.0
O2288 O 0.61071 0.64071 0.95471 0.0
C2289 C 0.60985 0.65108 0.9541 0.0
C2290 C 0.61803 0.63712 0.9865 0.0
C2291 C 0.61911 0.65682 0.94974 0.0
C2292 C 0.63423 0.66873 0.95161 0.0
C2293 C 0.62586 0.66296 0.95615 0.0
C2294 C 0.62934 0.66215 0.93426 0.0
C2295 C 0.636 0.6684 0.94062 0.0
C2296 C 0.62097 0.65644 0.93878 0.0
C2297 C 0.57532 0.63129 0.96624 0.0
C2298 C 0.5658 0.63025 0.94946 0.0
C2299 C 0.55617 0.62885 0.96602 0.0
C2300 C 0.56566 0.63005 0.97163 0.0
C2301 C 0.55616 0.62887 0.9549 0.0
C2302 C 0.57532 0.63147 0.9551 0.0
C2303 C 0.58524 0.63195 0.97245 0.0
O2304 O 0.61748 0.63096 0.97811 0.0
O2305 O 0.61187 0.64551 0.98582 0.0
O2306 O 0.58772 0.64134 0.97624 0.0
O2307 O 0.59346 0.62676 0.96867 0.0
H2308 H 0.60293 0.63658 1.00236 0.0
H2309 H 0.60454 0.62798 1.01979 0.0
H2310 H 0.63573 0.61672 1.01143 0.0
H2311 H 0.63423 0.62542 0.99408 0.0
H2312 H 0.63928 0.6735 0.95665 0.0
H2313 H 0.6246 0.66339 0.96463 0.0
H2314 H 0.63057 0.66178 0.92577 0.0
H2315 H 0.61586 0.65178 0.93367 0.0
H2316 H 0.56594 0.63031 0.94088 0.0
H2317 H 0.54882 0.62781 0.97034 0.0
H2318 H 0.56549 0.62987 0.98022 0.0
H2319 H 0.58267 0.63244 0.95076 0.0
C2320 C 0.67305 0.36958 0.24681 0.0
C2321 C 0.67577 0.36093 0.25331 0.0
C2322 C 0.68339 0.37299 0.26636 0.0
C2323 C 0.68091 0.36264 0.26306 0.0
C2324 C 0.68067 0.38157 0.25983 0.0
C2325 C 0.67555 0.37988 0.25016 0.0
U2326 U 0.66494 0.354 0.22151 0.0
O2327 O 0.64966 0.35419 0.21304 0.0
O2328 O 0.66403 0.35991 0.20509 0.0
C2329 C 0.65366 0.35891 0.20465 0.0
C2330 C 0.66756 0.36823 0.23655 0.0
C2331 C 0.64773 0.36808 0.20024 0.0
C2332 C 0.6338 0.38149 0.20125 0.0
C2333 C 0.63961 0.37323 0.20593 0.0
C2334 C 0.64419 0.37972 0.18522 0.0
C2335 C 0.63603 0.38478 0.19084 0.0
C2336 C 0.64996 0.37144 0.18986 0.0
C2337 C 0.67477 0.32524 0.21713 0.0
C2338 C 0.67248 0.31497 0.20094 0.0
C2339 C 0.68051 0.30682 0.21638 0.0
C2340 C 0.67934 0.31633 0.22198 0.0
C2341 C 0.67711 0.30606 0.20581 0.0
C2342 C 0.67131 0.3245 0.20656 0.0
C2343 C 0.67386 0.33519 0.22323 0.0
O2344 O 0.67366 0.36761 0.22814 0.0
O2345 O 0.65956 0.36154 0.23631 0.0
O2346 O 0.66442 0.33742 0.22704 0.0
O2347 O 0.67869 0.3435 0.21921 0.0
H2348 H 0.67394 0.3529 0.25086 0.0
H2349 H 0.68298 0.35591 0.26799 0.0
H2350 H 0.68254 0.38961 0.26223 0.0
H2351 H 0.67352 0.38665 0.24527 0.0
H2352 H 0.62752 0.38529 0.20572 0.0
H2353 H 0.63769 0.37082 0.21394 0.0
H2354 H 0.64603 0.38212 0.17718 0.0
H2355 H 0.65611 0.36757 0.18527 0.0
H2356 H 0.66979 0.31452 0.1928 0.0
H2357 H 0.68408 0.30005 0.22027 0.0
H2358 H 0.68206 0.31674 0.23011 0.0
H2359 H 0.66775 0.33129 0.20268 0.0
C2360 C 0.9357 0.42141 0.49727 0.0
C2361 C 0.94409 0.42771 0.50098 0.0
C2362 C 0.93409 0.43185 0.51699 0.0
C2363 C 0.94329 0.43291 0.51079 0.0
C2364 C 0.92575 0.42548 0.51329 0.0
C2365 C 0.92655 0.4203 0.50351 0.0
U2366 U 0.94993 0.41366 0.47134 0.0
O2367 O 0.94971 0.39842 0.46276 0.0
O2368 O 0.94359 0.41279 0.45511 0.0
C2369 C 0.94493 0.40247 0.45444 0.0
C2370 C 0.93621 0.41601 0.4869 0.0
C2371 C 0.93594 0.39635 0.45011 0.0
C2372 C 0.91727 0.39138 0.44992 0.0
C2373 C 0.92573 0.39694 0.45455 0.0
C2374 C 0.92916 0.38447 0.4365 0.0
C2375 C 0.91892 0.38517 0.44081 0.0
C2376 C 0.93759 0.39002 0.44112 0.0
C2377 C 0.97869 0.42349 0.46629 0.0
C2378 C 0.98839 0.42946 0.45066 0.0
C2379 C 0.99797 0.42208 0.46556 0.0
C2380 C 0.98838 0.42055 0.47095 0.0
C2381 C 0.99806 0.42664 0.45541 0.0
C2382 C 0.97878 0.42789 0.45603 0.0
C2383 C 0.96878 0.42253 0.47258 0.0
O2384 O 0.93652 0.42223 0.47855 0.0
O2385 O 0.94282 0.40797 0.48624 0.0
O2386 O 0.96665 0.41311 0.47649 0.0
O2387 O 0.96033 0.42747 0.46897 0.0
H2388 H 0.95122 0.42866 0.49627 0.0
H2389 H 0.9498 0.4378 0.51351 0.0
H2390 H 0.91859 0.42457 0.51795 0.0
H2391 H 0.91999 0.41547 0.50078 0.0
H2392 H 0.90941 0.39202 0.45333 0.0
H2393 H 0.92429 0.40179 0.46149 0.0
H2394 H 0.93059 0.37975 0.42948 0.0
H2395 H 0.9454 0.38947 0.43757 0.0
H2396 H 0.9883 0.433 0.44283 0.0
H2397 H 1.00534 0.41985 0.46937 0.0
H2398 H 0.98856 0.41723 0.47887 0.0
H2399 H 0.97146 0.43027 0.45221 0.0
C2400 C 0.88284 0.37012 0.80776 0.0
C2401 C 0.88017 0.36147 0.80125 0.0
C2402 C 0.8724 0.37349 0.78824 0.0
C2403 C 0.87499 0.36315 0.79152 0.0
C2404 C 0.87506 0.38208 0.79478 0.0
C2405 C 0.88023 0.38041 0.80444 0.0
U2406 U 0.89124 0.35468 0.83307 0.0
O2407 O 0.90665 0.35496 0.84132 0.0
O2408 O 0.89237 0.36067 0.84942 0.0
C2409 C 0.90272 0.35952 0.84983 0.0
C2410 C 0.88843 0.36881 0.81797 0.0
C2411 C 0.90872 0.36861 0.85411 0.0
C2412 C 0.91511 0.3868 0.85301 0.0
C2413 C 0.90961 0.37822 0.84854 0.0
C2414 C 0.91895 0.37624 0.86858 0.0
C2415 C 0.91978 0.38588 0.86309 0.0
C2416 C 0.91347 0.36768 0.86412 0.0
C2417 C 0.88167 0.32584 0.83798 0.0
C2418 C 0.87624 0.31605 0.85376 0.0
C2419 C 0.88301 0.30656 0.83852 0.0
C2420 C 0.88438 0.31618 0.83314 0.0
C2421 C 0.87883 0.3064 0.84883 0.0
C2422 C 0.87766 0.3257 0.8484 0.0
C2423 C 0.88244 0.3358 0.83174 0.0
O2424 O 0.88242 0.36825 0.82646 0.0
O2425 O 0.89644 0.36212 0.81816 0.0
O2426 O 0.89177 0.33804 0.82766 0.0
O2427 O 0.87753 0.34419 0.83554 0.0
H2428 H 0.88209 0.35345 0.80367 0.0
H2429 H 0.87297 0.35642 0.78659 0.0
H2430 H 0.87311 0.39011 0.7924 0.0
H2431 H 0.88222 0.38719 0.80932 0.0
H2432 H 0.91564 0.3942 0.84867 0.0
H2433 H 0.90597 0.37909 0.84081 0.0
H2434 H 0.92247 0.37538 0.87637 0.0
H2435 H 0.91287 0.36034 0.86855 0.0
H2436 H 0.87299 0.3161 0.86171 0.0
H2437 H 0.88506 0.2992 0.83457 0.0
H2438 H 0.88741 0.31605 0.82511 0.0
H2439 H 0.87547 0.33299 0.85236 0.0
C2440 C 0.93596 0.63295 0.05667 0.0
C2441 C 0.94486 0.62795 0.0522 0.0
C2442 C 0.93431 0.62256 0.03693 0.0
C2443 C 0.94404 0.62279 0.04238 0.0
C2444 C 0.92544 0.62757 0.04142 0.0
C2445 C 0.92627 0.63272 0.05121 0.0
U2446 U 0.95031 0.64077 0.08251 0.0
O2447 O 0.95031 0.65615 0.09089 0.0
O2448 O 0.94402 0.64195 0.09872 0.0
C2449 C 0.94538 0.65228 0.09921 0.0
C2450 C 0.93656 0.63846 0.06698 0.0
C2451 C 0.9364 0.65858 0.1034 0.0
C2452 C 0.9175 0.66121 0.10656 0.0
C2453 C 0.92579 0.65556 0.10172 0.0
C2454 C 0.93027 0.67313 0.11453 0.0
C2455 C 0.91969 0.66995 0.11311 0.0
C2456 C 0.93854 0.66748 0.10973 0.0
C2457 C 0.97879 0.63026 0.08759 0.0
C2458 C 0.99218 0.63717 0.09969 0.0
C2459 C 0.99445 0.61978 0.09186 0.0
C2460 C 0.98481 0.62095 0.08649 0.0
C2461 C 0.99826 0.62791 0.09843 0.0
C2462 C 0.98249 0.63834 0.09432 0.0
C2463 C 0.96895 0.63141 0.08133 0.0
O2464 O 0.93676 0.63234 0.07541 0.0
O2465 O 0.9433 0.64639 0.06755 0.0
O2466 O 0.96699 0.64086 0.07737 0.0
O2467 O 0.96046 0.62675 0.08517 0.0
H2468 H 0.95241 0.62803 0.0563 0.0
H2469 H 0.95096 0.61894 0.03904 0.0
H2470 H 0.91788 0.62746 0.03735 0.0
H2471 H 0.91932 0.63654 0.05453 0.0
H2472 H 0.90939 0.65864 0.10537 0.0
H2473 H 0.92392 0.64874 0.09686 0.0
H2474 H 0.93212 0.67985 0.11955 0.0
H2475 H 0.94665 0.66993 0.11115 0.0
H2476 H 0.99499 0.64353 0.10473 0.0
H2477 H 0.99902 0.61258 0.09079 0.0
H2478 H 0.98211 0.61463 0.08134 0.0
H2479 H 0.97798 0.64558 0.09532 0.0
C2480 C 0.67177 0.68679 0.30735 0.0
C2481 C 0.68084 0.69283 0.30502 0.0
C2482 C 0.68197 0.6847 0.28753 0.0
C2483 C 0.68592 0.69177 0.29518 0.0
C2484 C 0.6728 0.67882 0.2898 0.0
C2485 C 0.66775 0.67985 0.29963 0.0
U2486 U 0.66443 0.70112 0.33334 0.0
O2487 O 0.6494 0.7009 0.34224 0.0
O2488 O 0.66394 0.69489 0.34966 0.0
C2489 C 0.65363 0.69614 0.3505 0.0
C2490 C 0.66653 0.68734 0.31782 0.0
C2491 C 0.6477 0.68705 0.35489 0.0
C2492 C 0.63876 0.67002 0.35298 0.0
C2493 C 0.64438 0.67853 0.34851 0.0
C2494 C 0.63974 0.67844 0.37021 0.0
C2495 C 0.63641 0.66992 0.36387 0.0
C2496 C 0.64533 0.68692 0.36575 0.0
C2497 C 0.67451 0.72986 0.33765 0.0
C2498 C 0.66968 0.74154 0.35224 0.0
C2499 C 0.68274 0.74722 0.33935 0.0
C2500 C 0.68162 0.73758 0.33398 0.0
C2501 C 0.67676 0.7493 0.3485 0.0
C2502 C 0.66856 0.73186 0.34685 0.0
C2503 C 0.67335 0.71991 0.33158 0.0
O2504 O 0.67285 0.68766 0.3261 0.0
O2505 O 0.65845 0.69388 0.31858 0.0
O2506 O 0.66378 0.71775 0.32806 0.0
O2507 O 0.67828 0.71157 0.33541 0.0
H2508 H 0.68406 0.69826 0.31084 0.0
H2509 H 0.69299 0.69638 0.29357 0.0
H2510 H 0.66962 0.67334 0.28399 0.0
H2511 H 0.66076 0.67513 0.30126 0.0
H2512 H 0.63629 0.6635 0.34797 0.0
H2513 H 0.64616 0.67847 0.34011 0.0
H2514 H 0.63803 0.67849 0.37863 0.0
H2515 H 0.64782 0.6934 0.37081 0.0
H2516 H 0.66499 0.74302 0.35928 0.0
H2517 H 0.68823 0.7531 0.33634 0.0
H2518 H 0.68627 0.73618 0.3269 0.0
H2519 H 0.66303 0.726 0.34981 0.0
C2520 C 0.61887 0.42162 0.55734 0.0
C2521 C 0.60999 0.42659 0.55279 0.0
C2522 C 0.62059 0.43187 0.53752 0.0
C2523 C 0.61084 0.43168 0.54293 0.0
C2524 C 0.62943 0.42687 0.54207 0.0
C2525 C 0.62857 0.42179 0.5519 0.0
U2526 U 0.60427 0.41376 0.58302 0.0
O2527 O 0.60467 0.3986 0.59171 0.0
O2528 O 0.61032 0.41313 0.59939 0.0
C2529 C 0.60921 0.40279 0.6001 0.0
C2530 C 0.61826 0.41629 0.56773 0.0
C2531 C 0.61831 0.39692 0.60456 0.0
C2532 C 0.63639 0.39014 0.6035 0.0
C2533 C 0.62784 0.39563 0.59892 0.0
C2534 C 0.62596 0.38714 0.61934 0.0
C2535 C 0.63551 0.38589 0.61377 0.0
C2536 C 0.61744 0.3926 0.61477 0.0
C2537 C 0.57528 0.42316 0.58728 0.0
C2538 C 0.56547 0.42435 0.60388 0.0
C2539 C 0.55615 0.42585 0.58715 0.0
C2540 C 0.56574 0.42453 0.58171 0.0
C2541 C 0.55595 0.42584 0.59827 0.0
C2542 C 0.57508 0.42301 0.59842 0.0
C2543 C 0.5853 0.4223 0.58123 0.0
O2544 O 0.61764 0.42256 0.57603 0.0
O2545 O 0.61182 0.40812 0.56832 0.0
O2546 O 0.58768 0.41285 0.57754 0.0
O2547 O 0.59354 0.42736 0.58512 0.0
H2548 H 0.60243 0.42656 0.55688 0.0
H2549 H 0.60394 0.43552 0.53955 0.0
H2550 H 0.63701 0.42695 0.53803 0.0
H2551 H 0.63551 0.41801 0.55528 0.0
H2552 H 0.64371 0.38929 0.59909 0.0
H2553 H 0.62867 0.39892 0.59103 0.0
H2554 H 0.62513 0.38395 0.62727 0.0
H2555 H 0.61016 0.39351 0.61925 0.0
H2556 H 0.56546 0.42429 0.61246 0.0
H2557 H 0.54889 0.42696 0.5827 0.0
H2558 H 0.56571 0.42469 0.57313 0.0
H2559 H 0.58234 0.42195 0.60288 0.0
C2560 C 0.74819 0.88307 0.686 0.0
C2561 C 0.75106 0.87494 0.69306 0.0
C2562 C 0.76807 0.87293 0.6841 0.0
C2563 C 0.76094 0.86989 0.69211 0.0
C2564 C 0.76525 0.88117 0.67718 0.0
C2565 C 0.75539 0.88619 0.67812 0.0
U2566 U 0.72205 0.89033 0.70016 0.0
O2567 O 0.713 0.90526 0.69971 0.0
O2568 O 0.70575 0.89059 0.69381 0.0
C2569 C 0.70484 0.90091 0.69489 0.0
C2570 C 0.73766 0.88819 0.68648 0.0
C2571 C 0.70042 0.90672 0.6857 0.0
C2572 C 0.70234 0.9182 0.67027 0.0
C2573 C 0.70689 0.91246 0.67866 0.0
C2574 C 0.68487 0.91239 0.67574 0.0
C2575 C 0.69129 0.91822 0.66877 0.0
C2576 C 0.6894 0.9067 0.68413 0.0
C2577 C 0.7175 0.88077 0.72898 0.0
C2578 C 0.70076 0.88094 0.73863 0.0
C2579 C 0.71711 0.87684 0.74786 0.0
C2580 C 0.72277 0.87811 0.73841 0.0
C2581 C 0.70607 0.87821 0.74805 0.0
C2582 C 0.70644 0.88223 0.72915 0.0
C2583 C 0.72372 0.88175 0.71911 0.0
O2584 O 0.72946 0.88178 0.6869 0.0
O2585 O 0.7368 0.89633 0.69293 0.0
O2586 O 0.72723 0.89129 0.71683 0.0
O2587 O 0.72005 0.87665 0.7108 0.0
H2588 H 0.74563 0.87242 0.69922 0.0
H2589 H 0.76298 0.86354 0.69752 0.0
H2590 H 0.77065 0.88363 0.67096 0.0
H2591 H 0.75333 0.89244 0.6726 0.0
H2592 H 0.70742 0.92264 0.66497 0.0
H2593 H 0.71541 0.91257 0.67969 0.0
H2594 H 0.67634 0.91229 0.67472 0.0
H2595 H 0.68426 0.90235 0.68946 0.0
H2596 H 0.69224 0.88206 0.73863 0.0
H2597 H 0.72134 0.87476 0.75504 0.0
H2598 H 0.73129 0.87695 0.73844 0.0
H2599 H 0.70223 0.8843 0.72196 0.0
C2600 C 0.24771 0.67144 0.36858 0.0
C2601 C 0.2507 0.67936 0.36134 0.0
C2602 C 0.26756 0.68162 0.37051 0.0
C2603 C 0.26055 0.68442 0.36231 0.0
C2604 C 0.26462 0.6736 0.37765 0.0
C2605 C 0.25477 0.66857 0.37669 0.0
U2606 U 0.22161 0.6645 0.35428 0.0
O2607 O 0.21272 0.64946 0.35423 0.0
O2608 O 0.20535 0.66385 0.36062 0.0
C2609 C 0.20449 0.65358 0.35914 0.0
C2610 C 0.23724 0.66624 0.368 0.0
C2611 C 0.20021 0.64744 0.36814 0.0
C2612 C 0.20163 0.64023 0.38599 0.0
C2613 C 0.20607 0.64587 0.37748 0.0
C2614 C 0.18551 0.63763 0.37588 0.0
C2615 C 0.19129 0.63611 0.38525 0.0
C2616 C 0.18993 0.64325 0.36739 0.0
C2617 C 0.21695 0.67525 0.32588 0.0
C2618 C 0.20252 0.67027 0.31405 0.0
C2619 C 0.21471 0.68422 0.30895 0.0
C2620 C 0.2202 0.68291 0.3185 0.0
C2621 C 0.20586 0.67788 0.30662 0.0
C2622 C 0.20803 0.66897 0.32363 0.0
C2623 C 0.22316 0.67388 0.3357 0.0
O2624 O 0.22898 0.6726 0.36786 0.0
O2625 O 0.23643 0.65835 0.36125 0.0
O2626 O 0.22674 0.66427 0.33761 0.0
O2627 O 0.21943 0.67861 0.3442 0.0
H2628 H 0.24537 0.68168 0.35501 0.0
H2629 H 0.26269 0.69059 0.35673 0.0
H2630 H 0.26991 0.67133 0.38403 0.0
H2631 H 0.25262 0.66248 0.38235 0.0
H2632 H 0.2062 0.63917 0.39318 0.0
H2633 H 0.21401 0.64907 0.37821 0.0
H2634 H 0.17752 0.63455 0.37517 0.0
H2635 H 0.18528 0.64439 0.36026 0.0
H2636 H 0.19572 0.6653 0.31238 0.0
H2637 H 0.21741 0.69012 0.30332 0.0
H2638 H 0.22706 0.68783 0.32008 0.0
H2639 H 0.20539 0.66302 0.32924 0.0
C2640 C 0.63297 0.99713 0.618 0.0
C2641 C 0.62956 1.00244 0.60882 0.0
C2642 C 0.62281 1.01703 0.61955 0.0
C2643 C 0.62453 1.01234 0.60959 0.0
C2644 C 0.6262 1.0117 0.62871 0.0
C2645 C 0.63124 1.00183 0.62794 0.0
U2646 U 0.64096 0.97135 0.60361 0.0
O2647 O 0.65606 0.96259 0.60412 0.0
O2648 O 0.64148 0.95499 0.6098 0.0
C2649 C 0.65185 0.95434 0.60892 0.0
C2650 C 0.63831 0.98673 0.61747 0.0
C2651 C 0.65763 0.94995 0.61819 0.0
C2652 C 0.67166 0.95082 0.6315 0.0
C2653 C 0.66591 0.95552 0.62321 0.0
C2654 C 0.66086 0.93502 0.63004 0.0
C2655 C 0.6692 0.94051 0.63494 0.0
C2656 C 0.65516 0.93968 0.62173 0.0
C2657 C 0.63169 0.96704 0.5746 0.0
C2658 C 0.63093 0.95044 0.56474 0.0
C2659 C 0.62862 0.96715 0.55555 0.0
C2660 C 0.62992 0.9726 0.56512 0.0
C2661 C 0.62905 0.95604 0.55529 0.0
C2662 C 0.63226 0.95591 0.57434 0.0
C2663 C 0.63253 0.97308 0.5846 0.0
O2664 O 0.63204 0.97843 0.61686 0.0
O2665 O 0.64654 0.98608 0.61112 0.0
O2666 O 0.64198 0.97674 0.58701 0.0
O2667 O 0.62743 0.9692 0.59282 0.0
H2668 H 0.63079 0.99893 0.60108 0.0
H2669 H 0.62194 1.01633 0.60244 0.0
H2670 H 0.62492 1.01517 0.63646 0.0
H2671 H 0.6338 0.99786 0.63511 0.0
H2672 H 0.67807 0.95519 0.63518 0.0
H2673 H 0.66803 0.96344 0.62066 0.0
H2674 H 0.65885 0.92706 0.63256 0.0
H2675 H 0.64888 0.93519 0.61796 0.0
H2676 H 0.63132 0.94186 0.56468 0.0
H2677 H 0.62719 0.9716 0.54834 0.0
H2678 H 0.62944 0.98118 0.56514 0.0
H2679 H 0.63363 0.95146 0.58156 0.0
C2680 C 0.30705 0.38343 0.86851 0.0
C2681 C 0.30301 0.37766 0.85988 0.0
C2682 C 0.28716 0.37329 0.87006 0.0
C2683 C 0.29311 0.37262 0.86066 0.0
C2684 C 0.29119 0.37913 0.87863 0.0
C2685 C 0.30106 0.38416 0.87785 0.0
U2686 U 0.33322 0.39098 0.85449 0.0
O2687 O 0.34216 0.40595 0.8552 0.0
O2688 O 0.34946 0.39126 0.86101 0.0
C2689 C 0.35028 0.40161 0.86009 0.0
C2690 C 0.31754 0.38859 0.86806 0.0
C2691 C 0.35464 0.40735 0.86938 0.0
C2692 C 0.35338 0.42076 0.88326 0.0
C2693 C 0.34873 0.415 0.87496 0.0
C2694 C 0.36983 0.41117 0.88069 0.0
C2695 C 0.36399 0.41892 0.88615 0.0
C2696 C 0.36521 0.40546 0.87238 0.0
C2697 C 0.33825 0.38183 0.82553 0.0
C2698 C 0.35429 0.37671 0.81597 0.0
C2699 C 0.33886 0.38274 0.80624 0.0
C2700 C 0.33338 0.38415 0.81578 0.0
C2701 C 0.34932 0.37891 0.80624 0.0
C2702 C 0.34881 0.37818 0.82554 0.0
C2703 C 0.33192 0.38267 0.8354 0.0
O2704 O 0.32576 0.38219 0.86758 0.0
O2705 O 0.31837 0.39678 0.86166 0.0
O2706 O 0.32821 0.39213 0.83776 0.0
O2707 O 0.33538 0.37743 0.84372 0.0
H2708 H 0.30752 0.377 0.85261 0.0
H2709 H 0.29013 0.36813 0.85397 0.0
H2710 H 0.28673 0.37973 0.88594 0.0
H2711 H 0.30405 0.38856 0.88459 0.0
H2712 H 0.34875 0.42671 0.88738 0.0
H2713 H 0.34057 0.41663 0.87282 0.0
H2714 H 0.37802 0.40964 0.8828 0.0
H2715 H 0.36995 0.39965 0.86818 0.0
H2716 H 0.36235 0.37375 0.81614 0.0
H2717 H 0.33489 0.38448 0.79882 0.0
H2718 H 0.32525 0.38691 0.81555 0.0
H2719 H 0.35279 0.37631 0.83292 0.0
C2720 C 0.42119 0.55758 0.61933 0.0
C2721 C 0.42315 0.55065 0.6108 0.0
C2722 C 0.43204 0.53825 0.62269 0.0
C2723 C 0.42853 0.54103 0.61249 0.0
C2724 C 0.43008 0.5452 0.63116 0.0
C2725 C 0.4247 0.55475 0.62949 0.0
U2726 U 0.41314 0.58296 0.60392 0.0
O2727 O 0.39773 0.5913 0.60373 0.0
O2728 O 0.41189 0.59929 0.60988 0.0
C2729 C 0.40157 0.59973 0.6085 0.0
C2730 C 0.41546 0.56774 0.61801 0.0
C2731 C 0.39533 0.60398 0.61748 0.0
C2732 C 0.39208 0.60601 0.63642 0.0
C2733 C 0.39761 0.60121 0.62803 0.0
C2734 C 0.38172 0.61615 0.62381 0.0
C2735 C 0.38418 0.61361 0.63436 0.0
C2736 C 0.38726 0.61138 0.61545 0.0
C2737 C 0.42447 0.58773 0.57571 0.0
C2738 C 0.42521 0.60447 0.56616 0.0
C2739 C 0.43097 0.58843 0.55761 0.0
C2740 C 0.42829 0.58262 0.56666 0.0
C2741 C 0.43055 0.59967 0.55747 0.0
C2742 C 0.42253 0.59865 0.57526 0.0
C2743 C 0.42286 0.58152 0.5855 0.0
O2744 O 0.42138 0.57631 0.61782 0.0
O2745 O 0.4077 0.56796 0.61104 0.0
O2746 O 0.41328 0.57778 0.5872 0.0
O2747 O 0.42733 0.58535 0.5941 0.0
H2748 H 0.42054 0.55268 0.60288 0.0
H2749 H 0.43 0.53578 0.60585 0.0
H2750 H 0.43275 0.54322 0.63908 0.0
H2751 H 0.42328 0.55996 0.63618 0.0
H2752 H 0.39409 0.60396 0.6445 0.0
H2753 H 0.40379 0.59551 0.62979 0.0
H2754 H 0.37566 0.62199 0.62206 0.0
H2755 H 0.38537 0.61364 0.60738 0.0
H2756 H 0.42283 0.61267 0.5661 0.0
H2757 H 0.43334 0.58392 0.55074 0.0
H2758 H 0.42931 0.57409 0.56661 0.0
H2759 H 0.41898 0.60269 0.58196 0.0
C2760 C 0.80836 0.17288 0.18562 0.0
C2761 C 0.80297 0.17631 0.19475 0.0
C2762 C 0.78848 0.18307 0.18388 0.0
C2763 C 0.79308 0.18136 0.19389 0.0
C2764 C 0.7939 0.17969 0.17477 0.0
C2765 C 0.80375 0.17463 0.17564 0.0
U2766 U 0.83423 0.16532 0.20006 0.0
O2767 O 0.84263 0.15002 0.20057 0.0
O2768 O 0.85045 0.16392 0.19367 0.0
C2769 C 0.85098 0.15368 0.19554 0.0
C2770 C 0.81871 0.16741 0.18626 0.0
C2771 C 0.85507 0.14698 0.18685 0.0
C2772 C 0.85318 0.13829 0.16974 0.0
C2773 C 0.84924 0.14513 0.1776 0.0
C2774 C 0.86903 0.1356 0.18 0.0
C2775 C 0.86278 0.13255 0.17116 0.0
C2776 C 0.86513 0.14243 0.18782 0.0
C2777 C 0.83898 0.17603 0.22844 0.0
C2778 C 0.85444 0.17223 0.23938 0.0
C2779 C 0.84025 0.18319 0.24631 0.0
C2780 C 0.83473 0.18208 0.23675 0.0
C2781 C 0.85013 0.17826 0.24771 0.0
C2782 C 0.8489 0.17112 0.22979 0.0
C2783 C 0.83284 0.17491 0.21855 0.0
O2784 O 0.82712 0.17356 0.18637 0.0
O2785 O 0.81933 0.15953 0.19306 0.0
O2786 O 0.82888 0.16546 0.21667 0.0
O2787 O 0.83688 0.1794 0.21006 0.0
H2788 H 0.8064 0.17507 0.20252 0.0
H2789 H 0.78903 0.18394 0.201 0.0
H2790 H 0.79049 0.18096 0.167 0.0
H2791 H 0.80778 0.17206 0.1685 0.0
H2792 H 0.84863 0.13788 0.16254 0.0
H2793 H 0.84168 0.14904 0.17642 0.0
H2794 H 0.87709 0.13289 0.18098 0.0
H2795 H 0.87003 0.14419 0.19465 0.0
H2796 H 0.86205 0.16836 0.24033 0.0
H2797 H 0.83679 0.18785 0.25264 0.0
H2798 H 0.82709 0.18592 0.23586 0.0
H2799 H 0.85231 0.16641 0.22347 0.0
C2800 C 0.6333 0.05706 0.93573 0.0
C2801 C 0.62678 0.05336 0.94397 0.0
C2802 C 0.62287 0.03734 0.93388 0.0
C2803 C 0.62159 0.04356 0.94305 0.0
C2804 C 0.62944 0.04104 0.9257 0.0
C2805 C 0.63461 0.05082 0.92662 0.0
U2806 U 0.64092 0.08282 0.9503 0.0
O2807 O 0.65624 0.09128 0.95044 0.0
O2808 O 0.64202 0.09911 0.94418 0.0
C2809 C 0.65234 0.09966 0.94562 0.0
C2810 C 0.63874 0.0674 0.93641 0.0
C2811 C 0.65862 0.10394 0.9367 0.0
C2812 C 0.66209 0.10598 0.91781 0.0
C2813 C 0.65645 0.10119 0.92612 0.0
C2814 C 0.67231 0.11608 0.93054 0.0
C2815 C 0.66999 0.11355 0.91996 0.0
C2816 C 0.66667 0.11133 0.93883 0.0
C2817 C 0.63047 0.08747 0.97878 0.0
C2818 C 0.63404 0.10308 0.98957 0.0
C2819 C 0.6233 0.08881 0.99663 0.0
C2820 C 0.62449 0.08321 0.98713 0.0
C2821 C 0.62807 0.09877 0.99794 0.0
C2822 C 0.63524 0.09746 0.98004 0.0
C2823 C 0.63158 0.0813 0.96891 0.0
O2824 O 0.63256 0.0758 0.93668 0.0
O2825 O 0.64667 0.06795 0.94314 0.0
O2826 O 0.64108 0.07748 0.96692 0.0
O2827 O 0.62693 0.08526 0.96047 0.0
H2828 H 0.62568 0.05807 0.95107 0.0
H2829 H 0.61654 0.04085 0.94944 0.0
H2830 H 0.63051 0.03637 0.91857 0.0
H2831 H 0.6396 0.05353 0.92019 0.0
H2832 H 0.66019 0.10392 0.90969 0.0
H2833 H 0.65029 0.0955 0.92428 0.0
H2834 H 0.67836 0.1219 0.93237 0.0
H2835 H 0.66846 0.11356 0.94692 0.0
H2836 H 0.6378 0.11075 0.99044 0.0
H2837 H 0.61867 0.08536 1.003 0.0
H2838 H 0.62075 0.07552 0.98632 0.0
H2839 H 0.63988 0.10087 0.97367 0.0
C2840 C 0.9203 0.99785 0.43635 0.0
C2841 C 0.92639 1.0018 0.4448 0.0
C2842 C 0.93064 1.01761 0.43452 0.0
C2843 C 0.93153 1.01163 0.44389 0.0
C2844 C 0.92447 1.01368 0.42614 0.0
C2845 C 0.91935 1.00388 0.42705 0.0
U2846 U 0.91344 0.97166 0.45057 0.0
O2847 O 0.89852 0.96257 0.45045 0.0
O2848 O 0.91306 0.95544 0.4441 0.0
C2849 C 0.90278 0.95443 0.4455 0.0
C2850 C 0.91509 0.98738 0.43693 0.0
C2851 C 0.89676 0.95013 0.43644 0.0
C2852 C 0.88836 0.95203 0.41914 0.0
C2853 C 0.894 0.95644 0.42767 0.0
C2854 C 0.88817 0.93501 0.42805 0.0
C2855 C 0.88543 0.94127 0.41928 0.0
C2856 C 0.89378 0.93941 0.43656 0.0
C2857 C 0.92457 0.96685 0.47886 0.0
C2858 C 0.92539 0.95004 0.48828 0.0
C2859 C 0.93109 0.96603 0.49695 0.0
C2860 C 0.92838 0.9719 0.48794 0.0
C2861 C 0.93069 0.95479 0.49702 0.0
C2862 C 0.9227 0.95592 0.47922 0.0
C2863 C 0.92282 0.97317 0.46915 0.0
O2864 O 0.92149 0.97915 0.43702 0.0
O2865 O 0.90723 0.98651 0.44372 0.0
O2866 O 0.91309 0.97648 0.46739 0.0
O2867 O 0.92759 0.96972 0.46056 0.0
H2868 H 0.92724 0.99725 0.45203 0.0
H2869 H 0.93627 1.01453 0.45043 0.0
H2870 H 0.92371 1.01816 0.41886 0.0
H2871 H 0.9147 1.00095 0.42045 0.0
H2872 H 0.88634 0.95697 0.41242 0.0
H2873 H 0.89625 0.96472 0.42742 0.0
H2874 H 0.88602 0.9267 0.42829 0.0
H2875 H 0.89584 0.93441 0.44323 0.0
H2876 H 0.92305 0.94183 0.48826 0.0
H2877 H 0.93344 0.9705 0.50386 0.0
H2878 H 0.92936 0.98044 0.48806 0.0
H2879 H 0.91916 0.95193 0.47249 0.0
C2880 C 0.37008 0.3094 0.17572 0.0
C2881 C 0.36078 0.30329 0.17623 0.0
C2882 C 0.37045 0.28892 0.1848 0.0
C2883 C 0.36098 0.29312 0.18069 0.0
C2884 C 0.37971 0.29508 0.18445 0.0
C2885 C 0.37953 0.30523 0.17991 0.0
U2886 U 0.35641 0.33545 0.16783 0.0
O2887 O 0.36256 0.35181 0.16733 0.0
O2888 O 0.35694 0.34419 0.15275 0.0
C2889 C 0.36146 0.35256 0.15699 0.0
C2890 C 0.37013 0.31996 0.17062 0.0
C2891 C 0.3705 0.35712 0.15112 0.0
C2892 C 0.38763 0.35555 0.14232 0.0
C2893 C 0.3793 0.35096 0.1481 0.0
C2894 C 0.37849 0.37246 0.14258 0.0
C2895 C 0.38726 0.36634 0.1395 0.0
C2896 C 0.37018 0.36788 0.14833 0.0
C2897 C 0.32719 0.33959 0.17616 0.0
C2898 C 0.31641 0.35489 0.17148 0.0
C2899 C 0.30856 0.34036 0.18099 0.0
C2900 C 0.31837 0.33517 0.18118 0.0
C2901 C 0.30703 0.3499 0.17523 0.0
C2902 C 0.32625 0.34967 0.17162 0.0
C2903 C 0.33722 0.33358 0.17586 0.0
O2904 O 0.36419 0.32094 0.1621 0.0
O2905 O 0.36943 0.32816 0.17701 0.0
O2906 O 0.34525 0.33767 0.18109 0.0
O2907 O 0.33995 0.32979 0.16655 0.0
H2908 H 0.35338 0.30634 0.1731 0.0
H2909 H 0.35374 0.2885 0.18092 0.0
H2910 H 0.38709 0.29199 0.1876 0.0
H2911 H 0.38679 0.30981 0.1796 0.0
H2912 H 0.39436 0.35072 0.14005 0.0
H2913 H 0.37969 0.34264 0.15019 0.0
H2914 H 0.37807 0.38079 0.14051 0.0
H2915 H 0.36347 0.37276 0.15057 0.0
H2916 H 0.3165 0.36292 0.16859 0.0
H2917 H 0.30224 0.33678 0.18551 0.0
H2918 H 0.31905 0.32764 0.18526 0.0
H2919 H 0.33314 0.35353 0.16823 0.0
C2920 C 0.49607 0.62011 0.92308 0.0
C2921 C 0.4983 0.61465 0.93254 0.0
C2922 C 0.51592 0.62256 0.93318 0.0
C2923 C 0.50815 0.61589 0.93757 0.0
C2924 C 0.51375 0.62786 0.92364 0.0
C2925 C 0.5039 0.62665 0.91865 0.0
U2926 U 0.47012 0.6055 0.91598 0.0
O2927 O 0.45382 0.61165 0.91504 0.0
O2928 O 0.46144 0.60522 0.90079 0.0
C2929 C 0.45311 0.61007 0.90476 0.0
C2930 C 0.48561 0.61935 0.91783 0.0
C2931 C 0.44871 0.61891 0.89845 0.0
C2932 C 0.44742 0.63769 0.8941 0.0
C2933 C 0.45223 0.6294 0.89977 0.0
C2934 C 0.43572 0.62507 0.88557 0.0
C2935 C 0.43906 0.63558 0.88703 0.0
C2936 C 0.44051 0.61681 0.89124 0.0
C2937 C 0.46547 0.57711 0.92655 0.0
C2938 C 0.44934 0.56683 0.92388 0.0
C2939 C 0.46438 0.55892 0.93287 0.0
C2940 C 0.47006 0.56836 0.93166 0.0
C2941 C 0.45398 0.55807 0.92899 0.0
C2942 C 0.45506 0.57631 0.92266 0.0
C2943 C 0.47172 0.58693 0.92539 0.0
O2944 O 0.48493 0.61258 0.90994 0.0
O2945 O 0.47727 0.61919 0.92409 0.0
O2946 O 0.46786 0.59542 0.93005 0.0
O2947 O 0.47546 0.58886 0.91586 0.0
H2948 H 0.49239 0.60952 0.93609 0.0
H2949 H 0.50968 0.61172 0.94492 0.0
H2950 H 0.51964 0.63302 0.92012 0.0
H2951 H 0.50236 0.63093 0.91136 0.0
H2952 H 0.4501 0.64576 0.89534 0.0
H2953 H 0.45856 0.63119 0.9053 0.0
H2954 H 0.42929 0.62329 0.88017 0.0
H2955 H 0.43768 0.60878 0.89011 0.0
H2956 H 0.44134 0.56631 0.92081 0.0
H2957 H 0.46809 0.55224 0.93681 0.0
H2958 H 0.47809 0.56883 0.93471 0.0
H2959 H 0.45138 0.58297 0.91868 0.0
C2960 C 0.18521 0.74639 0.67428 0.0
C2961 C 0.19337 0.75026 0.6808 0.0
C2962 C 0.18314 0.76631 0.68429 0.0
C2963 C 0.19234 0.76017 0.68578 0.0
C2964 C 0.17505 0.76245 0.67769 0.0
C2965 C 0.17609 0.75257 0.67273 0.0
U2966 U 0.19982 0.72043 0.66705 0.0
O2967 O 0.19363 0.70407 0.66672 0.0
O2968 O 0.19954 0.71142 0.65211 0.0
C2969 C 0.19475 0.70321 0.6564 0.0
C2970 C 0.18591 0.73588 0.66916 0.0
C2971 C 0.18568 0.69858 0.65052 0.0
C2972 C 0.17239 0.69914 0.63647 0.0
C2973 C 0.18043 0.70409 0.64236 0.0
C2974 C 0.17456 0.68318 0.64693 0.0
C2975 C 0.16944 0.68862 0.63868 0.0
C2976 C 0.18261 0.68811 0.65277 0.0
C2977 C 0.2286 0.71588 0.67659 0.0
C2978 C 0.23815 0.69908 0.67628 0.0
C2979 C 0.24754 0.71534 0.68032 0.0
C2980 C 0.2381 0.72107 0.67917 0.0
C2981 C 0.24763 0.7043 0.67892 0.0
C2982 C 0.22869 0.70483 0.6751 0.0
C2983 C 0.21875 0.72216 0.67568 0.0
O2984 O 0.19244 0.73512 0.66108 0.0
O2985 O 0.18644 0.7277 0.6756 0.0
O2986 O 0.21043 0.71847 0.68075 0.0
O2987 O 0.21646 0.72575 0.66617 0.0
H2988 H 0.20048 0.7456 0.68209 0.0
H2989 H 0.19865 0.76301 0.69085 0.0
H2990 H 0.16791 0.76706 0.67645 0.0
H2991 H 0.16971 0.74972 0.66773 0.0
H2992 H 0.16853 0.70346 0.63013 0.0
H2993 H 0.18262 0.71217 0.64042 0.0
H2994 H 0.17241 0.67507 0.64876 0.0
H2995 H 0.18657 0.68366 0.65897 0.0
H2996 H 0.23808 0.69056 0.67514 0.0
H2997 H 0.25477 0.71951 0.68234 0.0
H2998 H 0.2382 0.72959 0.68034 0.0
H2999 H 0.22145 0.70067 0.67308 0.0
C3000 C 0.05913 0.43559 0.42552 0.0
C3001 C 0.05164 0.44385 0.42494 0.0
C3002 C 0.039 0.43337 0.43514 0.0
C3003 C 0.04164 0.44273 0.42969 0.0
C3004 C 0.04653 0.4252 0.43582 0.0
C3005 C 0.05648 0.42629 0.43104 0.0
U3006 U 0.08506 0.44997 0.4175 0.0
O3007 O 0.10138 0.44366 0.41688 0.0
O3008 O 0.09374 0.44949 0.40238 0.0
C3009 C 0.10205 0.44476 0.40655 0.0
C3010 C 0.06957 0.43624 0.42016 0.0
C3011 C 0.1065 0.43565 0.40063 0.0
C3012 C 0.10468 0.42049 0.38878 0.0
C3013 C 0.10008 0.42872 0.39471 0.0
C3014 C 0.12211 0.42591 0.39476 0.0
C3015 C 0.11575 0.41906 0.38874 0.0
C3016 C 0.11753 0.43413 0.40064 0.0
C3017 C 0.09007 0.47876 0.42673 0.0
C3018 C 0.10706 0.48794 0.42722 0.0
C3019 C 0.09075 0.49785 0.42954 0.0
C3020 C 0.08491 0.48848 0.42842 0.0
C3021 C 0.10187 0.49764 0.42902 0.0
C3022 C 0.1012 0.47855 0.42607 0.0
C3023 C 0.08366 0.46897 0.426 0.0
O3024 O 0.07026 0.44259 0.41191 0.0
O3025 O 0.07792 0.4367 0.42638 0.0
O3026 O 0.08735 0.46065 0.43108 0.0
O3027 O 0.07985 0.46665 0.41659 0.0
H3028 H 0.05347 0.45113 0.42076 0.0
H3029 H 0.03594 0.44913 0.42909 0.0
H3030 H 0.04466 0.41793 0.43999 0.0
H3031 H 0.06211 0.41981 0.43156 0.0
H3032 H 0.09964 0.41528 0.38418 0.0
H3033 H 0.09155 0.42972 0.39458 0.0
H3034 H 0.13065 0.42494 0.39484 0.0
H3035 H 0.12263 0.43939 0.40512 0.0
H3036 H 0.11563 0.48764 0.42676 0.0
H3037 H 0.08661 0.50525 0.4309 0.0
H3038 H 0.07634 0.48881 0.42896 0.0
H3039 H 0.10534 0.47114 0.42474 0.0
C3040 C 0.36914 0.74633 0.37987 0.0
C3041 C 0.35996 0.75266 0.3797 0.0
C3042 C 0.36967 0.76687 0.37092 0.0
C3043 C 0.36024 0.76286 0.3753 0.0
C3044 C 0.3788 0.76051 0.37095 0.0
C3045 C 0.37854 0.75033 0.37542 0.0
U3046 U 0.35562 0.71995 0.38704 0.0
O3047 O 0.36206 0.70367 0.38709 0.0
O3048 O 0.35617 0.71075 0.40185 0.0
C3049 C 0.36092 0.70261 0.39739 0.0
C3050 C 0.36914 0.73569 0.38481 0.0
C3051 C 0.37001 0.698 0.4032 0.0
C3052 C 0.38573 0.69964 0.41433 0.0
C3053 C 0.37749 0.70435 0.40849 0.0
C3054 C 0.37917 0.68223 0.40954 0.0
C3055 C 0.38658 0.68853 0.41493 0.0
C3056 C 0.37096 0.68692 0.40374 0.0
C3057 C 0.3267 0.7154 0.37785 0.0
C3058 C 0.31691 0.69883 0.37948 0.0
C3059 C 0.30805 0.7146 0.37298 0.0
C3060 C 0.31748 0.72034 0.37407 0.0
C3061 C 0.30769 0.70381 0.37565 0.0
C3062 C 0.32637 0.7046 0.38057 0.0
C3063 C 0.33654 0.72167 0.37873 0.0
O3064 O 0.36303 0.73449 0.39317 0.0
O3065 O 0.36869 0.7276 0.37826 0.0
O3066 O 0.34479 0.71804 0.3735 0.0
O3067 O 0.33896 0.72511 0.38826 0.0
H3068 H 0.35259 0.74976 0.38302 0.0
H3069 H 0.3531 0.76765 0.37532 0.0
H3070 H 0.38614 0.76345 0.3676 0.0
H3071 H 0.38571 0.74558 0.37546 0.0
H3072 H 0.3914 0.70463 0.41841 0.0
H3073 H 0.37692 0.71292 0.40818 0.0
H3074 H 0.37972 0.67366 0.40988 0.0
H3075 H 0.36527 0.68188 0.39974 0.0
H3076 H 0.31677 0.69051 0.3816 0.0
H3077 H 0.30102 0.71858 0.37004 0.0
H3078 H 0.31757 0.72866 0.37192 0.0
H3079 H 0.33341 0.70064 0.38352 0.0
C3080 C 0.05942 0.62089 0.12861 0.0
C3081 C 0.05318 0.61186 0.12664 0.0
C3082 C 0.0394 0.6229 0.11878 0.0
C3083 C 0.04323 0.61287 0.12178 0.0
C3084 C 0.04567 0.63189 0.12067 0.0
C3085 C 0.0556 0.63089 0.12556 0.0
U3086 U 0.08481 0.60587 0.13677 0.0
O3087 O 0.10134 0.61158 0.13751 0.0
O3088 O 0.09338 0.60606 0.15196 0.0
C3089 C 0.10186 0.61053 0.14786 0.0
C3090 C 0.06982 0.62014 0.13397 0.0
C3091 C 0.10645 0.61957 0.15377 0.0
C3092 C 0.10489 0.63462 0.16581 0.0
C3093 C 0.10016 0.62646 0.1599 0.0
C3094 C 0.12219 0.62923 0.15942 0.0
C3095 C 0.11595 0.63604 0.16564 0.0
C3096 C 0.11748 0.62108 0.15355 0.0
C3097 C 0.08814 0.57659 0.12765 0.0
C3098 C 0.10418 0.56582 0.12639 0.0
C3099 C 0.08691 0.55745 0.1256 0.0
C3100 C 0.08203 0.56734 0.12672 0.0
C3101 C 0.098 0.5566 0.12538 0.0
C3102 C 0.09927 0.57577 0.12754 0.0
C3103 C 0.08258 0.58689 0.12837 0.0
O3104 O 0.0703 0.61385 0.14226 0.0
O3105 O 0.07814 0.61929 0.12774 0.0
O3106 O 0.08688 0.59494 0.12332 0.0
O3107 O 0.07881 0.58947 0.13773 0.0
H3108 H 0.05599 0.60406 0.1289 0.0
H3109 H 0.0385 0.60584 0.12035 0.0
H3110 H 0.04287 0.63969 0.11839 0.0
H3111 H 0.06028 0.63794 0.127 0.0
H3112 H 0.09994 0.63979 0.17057 0.0
H3113 H 0.09163 0.62549 0.16019 0.0
H3114 H 0.13072 0.63019 0.15917 0.0
H3115 H 0.12248 0.61585 0.14892 0.0
H3116 H 0.11275 0.5653 0.12626 0.0
H3117 H 0.08201 0.55043 0.12485 0.0
H3118 H 0.07345 0.56779 0.12677 0.0
H3119 H 0.10415 0.5828 0.12825 0.0
C3120 C 0.18569 0.30847 0.87923 0.0
C3121 C 0.19473 0.30194 0.87954 0.0
C3122 C 0.18519 0.28792 0.87028 0.0
C3123 C 0.19446 0.29174 0.87514 0.0
C3124 C 0.1762 0.29449 0.86983 0.0
C3125 C 0.17645 0.30467 0.8743 0.0
U3126 U 0.19893 0.33505 0.88632 0.0
O3127 O 0.19222 0.35123 0.8865 0.0
O3128 O 0.19844 0.34421 0.90116 0.0
C3129 C 0.19339 0.35223 0.89681 0.0
C3130 C 0.18563 0.31911 0.8842 0.0
C3131 C 0.18426 0.35669 0.90273 0.0
C3132 C 0.17113 0.3559 0.91692 0.0
C3133 C 0.17917 0.35107 0.91093 0.0
C3134 C 0.17296 0.37192 0.90651 0.0
C3135 C 0.16801 0.36639 0.91479 0.0
C3136 C 0.18101 0.36713 0.90056 0.0
C3137 C 0.22769 0.33993 0.87667 0.0
C3138 C 0.23853 0.35533 0.88095 0.0
C3139 C 0.24538 0.34177 0.86918 0.0
C3140 C 0.23591 0.33608 0.87024 0.0
C3141 C 0.24678 0.35141 0.87455 0.0
C3142 C 0.22903 0.34962 0.88201 0.0
C3143 C 0.21791 0.33361 0.87772 0.0
O3144 O 0.19182 0.32037 0.8925 0.0
O3145 O 0.18587 0.32723 0.87767 0.0
O3146 O 0.20955 0.33719 0.87263 0.0
O3147 O 0.21566 0.33014 0.88729 0.0
H3148 H 0.20198 0.30468 0.88324 0.0
H3149 H 0.20148 0.2868 0.87554 0.0
H3150 H 0.16899 0.29169 0.8661 0.0
H3151 H 0.16939 0.30956 0.87396 0.0
H3152 H 0.16741 0.3515 0.92329 0.0
H3153 H 0.18151 0.34303 0.91281 0.0
H3154 H 0.17067 0.38002 0.90474 0.0
H3155 H 0.18484 0.37165 0.89434 0.0
H3156 H 0.23948 0.36275 0.88517 0.0
H3157 H 0.25164 0.33862 0.86422 0.0
H3158 H 0.23503 0.32863 0.86606 0.0
H3159 H 0.22277 0.35272 0.88701 0.0
C3160 C 0.49541 0.43482 0.62924 0.0
C3161 C 0.49773 0.44027 0.61979 0.0
C3162 C 0.51538 0.43236 0.61936 0.0
C3163 C 0.50764 0.43902 0.61488 0.0
C3164 C 0.51311 0.42707 0.62888 0.0
C3165 C 0.5032 0.42828 0.63376 0.0
U3166 U 0.46955 0.44953 0.63685 0.0
O3167 O 0.45317 0.44349 0.63764 0.0
O3168 O 0.46096 0.44932 0.65204 0.0
C3169 C 0.45252 0.44476 0.64795 0.0
C3170 C 0.4849 0.43557 0.6344 0.0
C3171 C 0.448 0.4358 0.65398 0.0
C3172 C 0.44941 0.41843 0.66231 0.0
C3173 C 0.45402 0.42678 0.65656 0.0
C3174 C 0.43278 0.42804 0.66294 0.0
C3175 C 0.43875 0.41901 0.66553 0.0
C3176 C 0.43737 0.43636 0.65722 0.0
C3177 C 0.46512 0.47846 0.62794 0.0
C3178 C 0.44958 0.48897 0.63244 0.0
C3179 C 0.46414 0.49711 0.62322 0.0
C3180 C 0.46949 0.48738 0.62305 0.0
C3181 C 0.45449 0.49845 0.62885 0.0
C3182 C 0.45495 0.47922 0.63232 0.0
C3183 C 0.47128 0.46851 0.62832 0.0
O3184 O 0.48426 0.44198 0.64259 0.0
O3185 O 0.4766 0.43616 0.6281 0.0
O3186 O 0.46721 0.46033 0.62331 0.0
O3187 O 0.47521 0.46601 0.63764 0.0
H3188 H 0.49186 0.4454 0.61617 0.0
H3189 H 0.50925 0.44318 0.60755 0.0
H3190 H 0.51897 0.4219 0.63247 0.0
H3191 H 0.50159 0.42401 0.64103 0.0
H3192 H 0.45413 0.4115 0.6642 0.0
H3193 H 0.46223 0.42619 0.65411 0.0
H3194 H 0.42454 0.42863 0.66533 0.0
H3195 H 0.4326 0.44325 0.65531 0.0
H3196 H 0.44151 0.48875 0.6352 0.0
H3197 H 0.4677 0.50351 0.6188 0.0
H3198 H 0.4771 0.48684 0.61909 0.0
H3199 H 0.45114 0.47226 0.63561 0.0
C3200 C 0.17451 0.36899 0.30836 0.0
C3201 C 0.18442 0.36424 0.30644 0.0
C3202 C 0.18458 0.37143 0.2885 0.0
C3203 C 0.18942 0.36547 0.29658 0.0
C3204 C 0.17458 0.37597 0.29036 0.0
C3205 C 0.16961 0.37478 0.30021 0.0
U3206 U 0.16699 0.35504 0.33465 0.0
O3207 O 0.16654 0.36162 0.35085 0.0
O3208 O 0.15195 0.35562 0.3435 0.0
C3209 C 0.1562 0.36058 0.35163 0.0
C3210 C 0.16933 0.36849 0.31888 0.0
C3211 C 0.15031 0.36978 0.35603 0.0
C3212 C 0.13592 0.38272 0.35536 0.0
C3213 C 0.14184 0.3746 0.35057 0.0
C3214 C 0.14693 0.38148 0.37103 0.0
C3215 C 0.13839 0.38617 0.36566 0.0
C3216 C 0.15281 0.37336 0.36628 0.0
C3217 C 0.17626 0.32617 0.33996 0.0
C3218 C 0.18153 0.31672 0.35599 0.0
C3219 C 0.17487 0.30692 0.3409 0.0
C3220 C 0.17357 0.31642 0.3353 0.0
C3221 C 0.17894 0.30698 0.35125 0.0
C3222 C 0.18018 0.32625 0.35041 0.0
C3223 C 0.17546 0.33599 0.33352 0.0
O3224 O 0.16116 0.36208 0.31973 0.0
O3225 O 0.17564 0.36819 0.32717 0.0
O3226 O 0.18062 0.34438 0.33695 0.0
O3227 O 0.16602 0.33828 0.32971 0.0
H3228 H 0.18835 0.35971 0.31258 0.0
H3229 H 0.19713 0.36189 0.29529 0.0
H3230 H 0.17071 0.38058 0.28423 0.0
H3231 H 0.16198 0.37853 0.30151 0.0
H3232 H 0.12934 0.38623 0.35109 0.0
H3233 H 0.13968 0.372 0.34268 0.0
H3234 H 0.14896 0.38403 0.37898 0.0
H3235 H 0.15923 0.36973 0.37069 0.0
H3236 H 0.18468 0.31693 0.36398 0.0
H3237 H 0.17283 0.29949 0.3371 0.0
H3238 H 0.1706 0.31613 0.32725 0.0
H3239 H 0.18233 0.33363 0.35423 0.0
C3240 C 0.43522 0.42415 0.05847 0.0
C3241 C 0.44318 0.431 0.05476 0.0
C3242 C 0.43299 0.43437 0.03869 0.0
C3243 C 0.44207 0.43609 0.04493 0.0
C3244 C 0.42509 0.42745 0.04238 0.0
C3245 C 0.4262 0.42239 0.05219 0.0
U3246 U 0.45015 0.41677 0.08413 0.0
O3247 O 0.44421 0.41576 0.10048 0.0
O3248 O 0.45044 0.4015 0.09269 0.0
C3249 C 0.44572 0.40545 0.10109 0.0
C3250 C 0.43607 0.41882 0.06885 0.0
C3251 C 0.43694 0.39913 0.10562 0.0
C3252 C 0.41815 0.39608 0.10896 0.0
C3253 C 0.42624 0.40175 0.10385 0.0
C3254 C 0.43131 0.38491 0.11741 0.0
C3255 C 0.42064 0.38769 0.11587 0.0
C3256 C 0.43938 0.3906 0.11233 0.0
C3257 C 0.47863 0.42703 0.08868 0.0
C3258 C 0.48858 0.42502 0.1051 0.0
C3259 C 0.49714 0.43237 0.08956 0.0
C3260 C 0.4877 0.43126 0.08384 0.0
C3261 C 0.49766 0.42928 0.10023 0.0
C3262 C 0.47912 0.42389 0.09936 0.0
C3263 C 0.46878 0.42603 0.08244 0.0
O3264 O 0.44284 0.4109 0.06939 0.0
O3265 O 0.43644 0.42507 0.07718 0.0
O3266 O 0.46035 0.43075 0.08636 0.0
O3267 O 0.46674 0.41656 0.07861 0.0
H3268 H 0.45021 0.43245 0.05949 0.0
H3269 H 0.44824 0.4414 0.04221 0.0
H3270 H 0.41804 0.42603 0.03769 0.0
H3271 H 0.41998 0.41713 0.05491 0.0
H3272 H 0.40996 0.39833 0.10767 0.0
H3273 H 0.42415 0.4083 0.09869 0.0
H3274 H 0.43339 0.37848 0.1227 0.0
H3275 H 0.44757 0.38845 0.11382 0.0
H3276 H 0.48884 0.42256 0.11332 0.0
H3277 H 0.50406 0.43565 0.08567 0.0
H3278 H 0.48748 0.43372 0.07562 0.0
H3279 H 0.4722 0.42059 0.10323 0.0
C3280 C 0.38085 0.68493 0.80867 0.0
C3281 C 0.37533 0.69351 0.80418 0.0
C3282 C 0.37086 0.68275 0.78876 0.0
C3283 C 0.37037 0.69243 0.79428 0.0
C3284 C 0.37641 0.67421 0.79326 0.0
C3285 C 0.38136 0.67529 0.80313 0.0
U3286 U 0.38795 0.69982 0.83443 0.0
O3287 O 0.38879 0.69377 0.85077 0.0
O3288 O 0.40309 0.70008 0.84317 0.0
C3289 C 0.39906 0.69534 0.85153 0.0
C3290 C 0.3861 0.68578 0.81909 0.0
C3291 C 0.4053 0.6865 0.85599 0.0
C3292 C 0.41192 0.66836 0.85542 0.0
C3293 C 0.40621 0.67671 0.85075 0.0
C3294 C 0.41592 0.67954 0.87051 0.0
C3295 C 0.41677 0.66971 0.86536 0.0
C3296 C 0.41024 0.68786 0.86586 0.0
C3297 C 0.37738 0.72822 0.83902 0.0
C3298 C 0.38302 0.74011 0.85315 0.0
C3299 C 0.36831 0.74504 0.84181 0.0
C3300 C 0.36944 0.73551 0.83624 0.0
C3301 C 0.37513 0.74745 0.85027 0.0
C3302 C 0.38414 0.73055 0.84757 0.0
C3303 C 0.37855 0.7184 0.83276 0.0
O3304 O 0.39396 0.69259 0.81972 0.0
O3305 O 0.37977 0.68611 0.82736 0.0
O3306 O 0.37384 0.70993 0.83661 0.0
O3307 O 0.38808 0.71642 0.82902 0.0
H3308 H 0.37485 0.70101 0.80834 0.0
H3309 H 0.3661 0.6991 0.79095 0.0
H3310 H 0.37686 0.66669 0.78913 0.0
H3311 H 0.38558 0.66858 0.80645 0.0
H3312 H 0.41246 0.66082 0.85134 0.0
H3313 H 0.40244 0.67551 0.84313 0.0
H3314 H 0.41958 0.68072 0.87819 0.0
H3315 H 0.40961 0.69534 0.87003 0.0
H3316 H 0.38836 0.74184 0.85965 0.0
H3317 H 0.36218 0.75059 0.83947 0.0
H3318 H 0.36415 0.73386 0.82967 0.0
H3319 H 0.39031 0.72502 0.84986 0.0
C3320 C 0.11926 0.62874 0.55896 0.0
C3321 C 0.11 0.62842 0.55276 0.0
C3322 C 0.11969 0.61983 0.53841 0.0
C3323 C 0.11023 0.62405 0.54255 0.0
C3324 C 0.1289 0.61999 0.54466 0.0
C3325 C 0.12869 0.62443 0.55485 0.0
U3326 U 0.10577 0.63662 0.58516 0.0
O3327 O 0.11215 0.63699 0.60144 0.0
O3328 O 0.10651 0.65165 0.59395 0.0
C3329 C 0.11122 0.64735 0.6022 0.0
C3330 C 0.11932 0.63378 0.56955 0.0
C3331 C 0.1204 0.65313 0.60667 0.0
C3332 C 0.13525 0.66541 0.60503 0.0
C3333 C 0.12707 0.65947 0.60036 0.0
C3334 C 0.13034 0.6586 0.62229 0.0
C3335 C 0.1369 0.66506 0.61604 0.0
C3336 C 0.12217 0.6527 0.61765 0.0
C3337 C 0.0765 0.62853 0.58957 0.0
C3338 C 0.06609 0.63263 0.60527 0.0
C3339 C 0.05771 0.62438 0.59026 0.0
C3340 C 0.06744 0.62416 0.58494 0.0
C3341 C 0.05651 0.62955 0.60018 0.0
C3342 C 0.07585 0.63245 0.59992 0.0
C3343 C 0.08649 0.62877 0.58347 0.0
O3344 O 0.11343 0.64232 0.57058 0.0
O3345 O 0.11863 0.62734 0.57771 0.0
O3346 O 0.09452 0.62345 0.58746 0.0
O3347 O 0.08925 0.63808 0.57969 0.0
H3348 H 0.10263 0.63164 0.55576 0.0
H3349 H 0.10304 0.62397 0.53786 0.0
H3350 H 0.13625 0.61676 0.54161 0.0
H3351 H 0.13591 0.62459 0.55949 0.0
H3352 H 0.14022 0.67035 0.60007 0.0
H3353 H 0.12587 0.65994 0.59188 0.0
H3354 H 0.13149 0.65821 0.63079 0.0
H3355 H 0.11711 0.64791 0.62267 0.0
H3356 H 0.06639 0.63499 0.61345 0.0
H3357 H 0.05117 0.62037 0.58647 0.0
H3358 H 0.06787 0.62055 0.57716 0.0
H3359 H 0.08291 0.63531 0.60389 0.0
C3360 C 0.17484 0.68509 0.24596 0.0
C3361 C 0.17944 0.694 0.25081 0.0
C3362 C 0.18478 0.68318 0.26591 0.0
C3363 C 0.18438 0.69305 0.26074 0.0
C3364 C 0.18016 0.67431 0.26105 0.0
C3365 C 0.17523 0.67527 0.25116 0.0
U3366 U 0.16742 0.69952 0.21993 0.0
O3367 O 0.16698 0.69313 0.20366 0.0
O3368 O 0.15241 0.69914 0.21105 0.0
C3369 C 0.15664 0.69424 0.20287 0.0
C3370 C 0.16966 0.68577 0.23549 0.0
C3371 C 0.15073 0.6851 0.1984 0.0
C3372 C 0.13656 0.67195 0.19916 0.0
C3373 C 0.14248 0.68004 0.20398 0.0
C3374 C 0.14712 0.6737 0.18323 0.0
C3375 C 0.13879 0.66877 0.18872 0.0
C3376 C 0.153 0.6818 0.18801 0.0
C3377 C 0.17693 0.72828 0.21487 0.0
C3378 C 0.18062 0.73747 0.19827 0.0
C3379 C 0.17728 0.74759 0.21424 0.0
C3380 C 0.17592 0.73815 0.21993 0.0
C3381 C 0.17973 0.74733 0.20339 0.0
C3382 C 0.1792 0.72801 0.20396 0.0
C3383 C 0.17604 0.71847 0.22128 0.0
O3384 O 0.16158 0.69233 0.23473 0.0
O3385 O 0.17605 0.68621 0.22727 0.0
O3386 O 0.18114 0.71007 0.21778 0.0
O3387 O 0.16657 0.71625 0.22503 0.0
H3388 H 0.17925 0.70165 0.2469 0.0
H3389 H 0.18793 0.69998 0.26436 0.0
H3390 H 0.1804 0.66664 0.26491 0.0
H3391 H 0.17173 0.6683 0.24754 0.0
H3392 H 0.13016 0.66824 0.20352 0.0
H3393 H 0.14052 0.68242 0.21199 0.0
H3394 H 0.14896 0.67137 0.17518 0.0
H3395 H 0.15925 0.68561 0.18352 0.0
H3396 H 0.1825 0.73711 0.1899 0.0
H3397 H 0.17655 0.75511 0.21833 0.0
H3398 H 0.1742 0.73856 0.22833 0.0
H3399 H 0.18001 0.72051 0.19984 0.0
C3400 C 0.1199 0.42574 0.99518 0.0
C3401 C 0.11481 0.43541 0.99748 0.0
C3402 C 0.12259 0.43548 1.01518 0.0
C3403 C 0.11617 0.44025 1.0074 0.0
C3404 C 0.12749 0.42574 1.01293 0.0
C3405 C 0.12617 0.42093 1.00302 0.0
U3406 U 0.10513 0.4182 0.96934 0.0
O3407 O 0.11116 0.41766 0.95293 0.0
O3408 O 0.10549 0.40311 0.96058 0.0
C3409 C 0.11009 0.40732 0.95223 0.0
C3410 C 0.11912 0.42067 0.98463 0.0
C3411 C 0.11914 0.40143 0.94761 0.0
C3412 C 0.13405 0.38918 0.94903 0.0
C3413 C 0.12593 0.39511 0.95382 0.0
C3414 C 0.12885 0.39597 0.93184 0.0
C3415 C 0.13554 0.38954 0.93799 0.0
C3416 C 0.12073 0.40184 0.93661 0.0
C3417 C 0.07607 0.42676 0.96508 0.0
C3418 C 0.06582 0.42308 0.94917 0.0
C3419 C 0.05718 0.43051 0.96445 0.0
C3420 C 0.06688 0.43074 0.96983 0.0
C3421 C 0.05615 0.42571 0.95433 0.0
C3422 C 0.07555 0.42326 0.95458 0.0
C3423 C 0.08604 0.42646 0.97121 0.0
O3424 O 0.11281 0.41241 0.98395 0.0
O3425 O 0.11841 0.42704 0.9764 0.0
O3426 O 0.09414 0.43162 0.96717 0.0
O3427 O 0.08867 0.41713 0.97504 0.0
H3428 H 0.1099 0.43926 0.99158 0.0
H3429 H 0.11231 0.44776 1.00899 0.0
H3430 H 0.13246 0.42193 1.01882 0.0
H3431 H 0.13016 0.41349 1.00142 0.0
H3432 H 0.13914 0.38427 0.95391 0.0
H3433 H 0.12488 0.39466 0.96233 0.0
H3434 H 0.12986 0.39635 0.92332 0.0
H3435 H 0.11558 0.40663 0.93166 0.0
H3436 H 0.06621 0.42106 0.9409 0.0
H3437 H 0.05053 0.43423 0.96837 0.0
H3438 H 0.06719 0.43404 0.97776 0.0
H3439 H 0.08269 0.42071 0.95053 0.0
C3440 C 0.37988 0.36994 0.7455 0.0
C3441 C 0.38087 0.36199 0.75327 0.0
C3442 C 0.37002 0.37231 0.7655 0.0
C3443 C 0.37601 0.36319 0.7632 0.0
C3444 C 0.36892 0.38017 0.7577 0.0
C3445 C 0.37383 0.379 0.74781 0.0
U3446 U 0.38774 0.35544 0.71964 0.0
O3447 O 0.38895 0.36163 0.70338 0.0
O3448 O 0.40311 0.35525 0.71124 0.0
C3449 C 0.39925 0.3601 0.70286 0.0
C3450 C 0.38539 0.36922 0.73513 0.0
C3451 C 0.40564 0.36892 0.69851 0.0
C3452 C 0.40891 0.38776 0.69565 0.0
C3453 C 0.40317 0.3796 0.70059 0.0
C3454 C 0.41982 0.37469 0.68674 0.0
C3455 C 0.4172 0.38535 0.68859 0.0
C3456 C 0.41409 0.36656 0.69165 0.0
C3457 C 0.37722 0.32702 0.71476 0.0
C3458 C 0.38221 0.31559 0.70003 0.0
C3459 C 0.36877 0.30984 0.71248 0.0
C3460 C 0.36991 0.31934 0.71809 0.0
C3461 C 0.37493 0.30786 0.70343 0.0
C3462 C 0.38335 0.32513 0.70566 0.0
C3463 C 0.37833 0.33686 0.72101 0.0
O3464 O 0.39344 0.36259 0.73449 0.0
O3465 O 0.3793 0.36907 0.72667 0.0
O3466 O 0.37373 0.34534 0.71707 0.0
O3467 O 0.38781 0.33879 0.7249 0.0
H3468 H 0.38547 0.3549 0.75173 0.0
H3469 H 0.37694 0.35703 0.76911 0.0
H3470 H 0.36433 0.38726 0.75931 0.0
H3471 H 0.37298 0.38526 0.74198 0.0
H3472 H 0.40677 0.39594 0.69717 0.0
H3473 H 0.3967 0.38162 0.70586 0.0
H3474 H 0.42618 0.37267 0.68132 0.0
H3475 H 0.41612 0.35839 0.68992 0.0
H3476 H 0.38704 0.3142 0.69307 0.0
H3477 H 0.36312 0.30398 0.71523 0.0
H3478 H 0.36511 0.32066 0.72509 0.0
H3479 H 0.38903 0.33098 0.70295 0.0
C3480 C 0.43624 0.6296 0.49637 0.0
C3481 C 0.44559 0.62844 0.50233 0.0
C3482 C 0.43567 0.62012 0.51666 0.0
C3483 C 0.44529 0.62378 0.5124 0.0
C3484 C 0.42635 0.62112 0.51065 0.0
C3485 C 0.42664 0.62585 0.50059 0.0
U3486 U 0.44979 0.63746 0.47021 0.0
O3487 O 0.44337 0.63838 0.45402 0.0
O3488 O 0.44952 0.65274 0.46168 0.0
C3489 C 0.44462 0.64872 0.45342 0.0
C3490 C 0.43629 0.63491 0.48592 0.0
C3491 C 0.43567 0.65499 0.44906 0.0
C3492 C 0.41721 0.65675 0.44355 0.0
C3493 C 0.42526 0.65099 0.44864 0.0
C3494 C 0.42974 0.67071 0.4395 0.0
C3495 C 0.41943 0.6666 0.43883 0.0
C3496 C 0.43778 0.66495 0.44454 0.0
C3497 C 0.47857 0.62792 0.46522 0.0
C3498 C 0.48817 0.62881 0.44849 0.0
C3499 C 0.4974 0.62369 0.46454 0.0
C3500 C 0.48798 0.62481 0.4703 0.0
C3501 C 0.49757 0.62564 0.4536 0.0
C3502 C 0.47873 0.62996 0.45427 0.0
C3503 C 0.46873 0.62874 0.47152 0.0
O3504 O 0.44258 0.64318 0.48501 0.0
O3505 O 0.4366 0.62864 0.47759 0.0
O3506 O 0.46038 0.62381 0.4677 0.0
O3507 O 0.46649 0.63816 0.47537 0.0
H3508 H 0.4531 0.63123 0.49923 0.0
H3509 H 0.45257 0.62305 0.51691 0.0
H3510 H 0.41886 0.61832 0.51379 0.0
H3511 H 0.41934 0.62665 0.49614 0.0
H3512 H 0.40929 0.65345 0.44312 0.0
H3513 H 0.42338 0.64334 0.45205 0.0
H3514 H 0.43162 0.67829 0.43591 0.0
H3515 H 0.44574 0.66818 0.44472 0.0
H3516 H 0.48817 0.63038 0.44005 0.0
H3517 H 0.50456 0.62126 0.46862 0.0
H3518 H 0.48802 0.6232 0.47873 0.0
H3519 H 0.47155 0.63237 0.4502 0.0
C3520 C 0.30864 0.17298 0.36912 0.0
C3521 C 0.30599 0.18214 0.36333 0.0
C3522 C 0.28861 0.18269 0.37179 0.0
C3523 C 0.29605 0.18697 0.36468 0.0
C3524 C 0.29121 0.17344 0.37743 0.0
C3525 C 0.30114 0.16864 0.37611 0.0
U3526 U 0.33477 0.16652 0.35443 0.0
O3527 O 0.35106 0.16586 0.36065 0.0
O3528 O 0.34375 0.15152 0.35409 0.0
C3529 C 0.35199 0.15561 0.35896 0.0
C3530 C 0.3192 0.16796 0.36826 0.0
C3531 C 0.35646 0.14933 0.36776 0.0
C3532 C 0.35634 0.14329 0.3861 0.0
C3533 C 0.35163 0.14902 0.37779 0.0
C3534 C 0.37064 0.13803 0.37439 0.0
C3535 C 0.36592 0.13782 0.38446 0.0
C3536 C 0.36595 0.14374 0.36612 0.0
C3537 C 0.33959 0.17724 0.32621 0.0
C3538 C 0.35628 0.17573 0.31661 0.0
C3539 C 0.34071 0.18268 0.30775 0.0
C3540 C 0.33482 0.18137 0.31706 0.0
C3541 C 0.35148 0.17988 0.30745 0.0
C3542 C 0.35037 0.1744 0.32594 0.0
C3543 C 0.33316 0.17599 0.33591 0.0
O3544 O 0.32004 0.16016 0.36141 0.0
O3545 O 0.32739 0.17441 0.36813 0.0
O3546 O 0.3368 0.1807 0.34446 0.0
O3547 O 0.32953 0.16641 0.33777 0.0
H3548 H 0.31164 0.1856 0.35787 0.0
H3549 H 0.29419 0.19409 0.36026 0.0
H3550 H 0.28558 0.17001 0.38293 0.0
H3551 H 0.30302 0.16159 0.38064 0.0
H3552 H 0.3526 0.14323 0.39382 0.0
H3553 H 0.3443 0.15329 0.37921 0.0
H3554 H 0.37804 0.13388 0.37298 0.0
H3555 H 0.3698 0.14389 0.35844 0.0
H3556 H 0.36458 0.17349 0.31652 0.0
H3557 H 0.33687 0.18587 0.30076 0.0
H3558 H 0.32651 0.1836 0.31711 0.0
H3559 H 0.35418 0.17117 0.33293 0.0
C3560 C 0.8104 0.37977 0.68406 0.0
C3561 C 0.80517 0.37557 0.69296 0.0
C3562 C 0.79042 0.36991 0.68182 0.0
C3563 C 0.79524 0.37068 0.69184 0.0
C3564 C 0.79569 0.37407 0.67295 0.0
C3565 C 0.80559 0.37896 0.67407 0.0
U3566 U 0.83573 0.38795 0.69924 0.0
O3567 O 0.85215 0.38923 0.69348 0.0
O3568 O 0.8439 0.40342 0.69923 0.0
C3569 C 0.85248 0.39957 0.69474 0.0
C3570 C 0.82073 0.38519 0.68498 0.0
C3571 C 0.8569 0.40575 0.68584 0.0
C3572 C 0.85845 0.4097 0.667 0.0
C3573 C 0.85365 0.40407 0.67532 0.0
C3574 C 0.86962 0.41888 0.67964 0.0
C3575 C 0.86653 0.41708 0.66911 0.0
C3576 C 0.86484 0.41326 0.68792 0.0
C3577 C 0.84001 0.37902 0.72816 0.0
C3578 C 0.856 0.38235 0.73842 0.0
C3579 C 0.84048 0.37546 0.74708 0.0
C3580 C 0.83512 0.37529 0.73737 0.0
C3581 C 0.85074 0.37996 0.74809 0.0
C3582 C 0.85062 0.38223 0.72869 0.0
C3583 C 0.83396 0.37929 0.71815 0.0
O3584 O 0.82105 0.39333 0.69148 0.0
O3585 O 0.82912 0.37903 0.68574 0.0
O3586 O 0.83825 0.37442 0.71 0.0
O3587 O 0.8298 0.38852 0.71565 0.0
H3588 H 0.80876 0.37612 0.70074 0.0
H3589 H 0.79131 0.36749 0.69877 0.0
H3590 H 0.79211 0.37354 0.66516 0.0
H3591 H 0.80948 0.38216 0.66711 0.0
H3592 H 0.85597 0.4082 0.65892 0.0
H3593 H 0.84752 0.39832 0.67353 0.0
H3594 H 0.87584 0.42453 0.68142 0.0
H3595 H 0.86747 0.41467 0.69598 0.0
H3596 H 0.86434 0.38412 0.73804 0.0
H3597 H 0.83644 0.37192 0.75374 0.0
H3598 H 0.8271 0.37221 0.73706 0.0
H3599 H 0.85477 0.38458 0.72155 0.0
C3600 C 0.42416 0.05892 0.43396 0.0
C3601 C 0.42975 0.05454 0.44254 0.0
C3602 C 0.43443 0.03913 0.43184 0.0
C3603 C 0.43485 0.04469 0.44149 0.0
C3604 C 0.42881 0.04352 0.42329 0.0
C3605 C 0.42372 0.05333 0.42435 0.0
U3606 U 0.41654 0.08461 0.44876 0.0
O3607 O 0.41556 0.10095 0.4427 0.0
O3608 O 0.40126 0.09316 0.44882 0.0
C3609 C 0.40525 0.10157 0.44414 0.0
C3610 C 0.41878 0.06929 0.43477 0.0
C3611 C 0.39904 0.10602 0.43527 0.0
C3612 C 0.39424 0.10678 0.41659 0.0
C3613 C 0.39987 0.102 0.42492 0.0
C3614 C 0.38675 0.11948 0.42892 0.0
C3615 C 0.3877 0.11561 0.41853 0.0
C3616 C 0.39237 0.11472 0.43721 0.0
C3617 C 0.42642 0.08952 0.4774 0.0
C3618 C 0.43183 0.10544 0.48697 0.0
C3619 C 0.42496 0.09036 0.49665 0.0
C3620 C 0.42365 0.08483 0.48712 0.0
C3621 C 0.42914 0.10068 0.49667 0.0
C3622 C 0.43046 0.09993 0.47742 0.0
C3623 C 0.42554 0.08319 0.46752 0.0
O3624 O 0.41082 0.06981 0.44147 0.0
O3625 O 0.42501 0.07763 0.43518 0.0
O3626 O 0.43042 0.08687 0.45908 0.0
O3627 O 0.41613 0.07922 0.4654 0.0
H3628 H 0.43018 0.05874 0.45002 0.0
H3629 H 0.43916 0.04144 0.44816 0.0
H3630 H 0.42841 0.03936 0.41579 0.0
H3631 H 0.41946 0.05658 0.41764 0.0
H3632 H 0.39508 0.1037 0.40862 0.0
H3633 H 0.40497 0.09529 0.42326 0.0
H3634 H 0.38177 0.12629 0.43057 0.0
H3635 H 0.39163 0.11794 0.44514 0.0
H3636 H 0.43507 0.11339 0.48682 0.0
H3637 H 0.42283 0.08654 0.50404 0.0
H3638 H 0.42059 0.07681 0.48735 0.0
H3639 H 0.43269 0.10378 0.47008 0.0
C3640 C 0.74583 0.675 0.18483 0.0
C3641 C 0.75165 0.67786 0.19389 0.0
C3642 C 0.76578 0.68495 0.18277 0.0
C3643 C 0.76158 0.68279 0.19286 0.0
C3644 C 0.75992 0.68213 0.17374 0.0
C3645 C 0.75004 0.6772 0.17477 0.0
U3646 U 0.72019 0.66721 0.19966 0.0
O3647 O 0.70378 0.66651 0.19369 0.0
O3648 O 0.71153 0.65206 0.19948 0.0
C3649 C 0.70311 0.65619 0.19492 0.0
C3650 C 0.73543 0.66967 0.18561 0.0
C3651 C 0.69857 0.6502 0.18595 0.0
C3652 C 0.70026 0.64084 0.16914 0.0
C3653 C 0.70485 0.64663 0.17746 0.0
C3654 C 0.68309 0.64219 0.17767 0.0
C3655 C 0.68933 0.63858 0.1692 0.0
C3656 C 0.68768 0.64794 0.18597 0.0
C3657 C 0.71568 0.67672 0.22842 0.0
C3658 C 0.69886 0.67688 0.23793 0.0
C3659 C 0.71527 0.67994 0.24744 0.0
C3660 C 0.72097 0.67879 0.23799 0.0
C3661 C 0.70418 0.67905 0.24748 0.0
C3662 C 0.70458 0.67571 0.22846 0.0
C3663 C 0.72192 0.67592 0.21854 0.0
O3664 O 0.73488 0.66154 0.19212 0.0
O3665 O 0.72711 0.67593 0.18619 0.0
O3666 O 0.71807 0.68091 0.21024 0.0
O3667 O 0.7257 0.66648 0.21624 0.0
H3668 H 0.74854 0.67627 0.20173 0.0
H3669 H 0.76598 0.68494 0.19992 0.0
H3670 H 0.76302 0.68375 0.1659 0.0
H3671 H 0.74567 0.67506 0.16769 0.0
H3672 H 0.70519 0.63815 0.16264 0.0
H3673 H 0.71328 0.6483 0.17728 0.0
H3674 H 0.67466 0.64055 0.17785 0.0
H3675 H 0.6827 0.65063 0.19244 0.0
H3676 H 0.6903 0.67614 0.23782 0.0
H3677 H 0.7195 0.68158 0.25473 0.0
H3678 H 0.72952 0.6796 0.23814 0.0
H3679 H 0.70034 0.67408 0.22117 0.0
C3680 C 0.63139 0.49609 0.43523 0.0
C3681 C 0.62175 0.49828 0.4404 0.0
C3682 C 0.62136 0.51598 0.43262 0.0
C3683 C 0.61676 0.50815 0.43908 0.0
C3684 C 0.63108 0.51385 0.42763 0.0
C3685 C 0.63603 0.50399 0.42891 0.0
U3686 U 0.63834 0.46998 0.44974 0.0
O3687 O 0.63927 0.45373 0.44345 0.0
O3688 O 0.65351 0.46125 0.45001 0.0
C3689 C 0.64954 0.45296 0.4451 0.0
C3690 C 0.6366 0.4856 0.436 0.0
C3691 C 0.65589 0.44856 0.43629 0.0
C3692 C 0.66029 0.44719 0.41754 0.0
C3693 C 0.6546 0.45204 0.42579 0.0
C3694 C 0.66879 0.43553 0.43022 0.0
C3695 C 0.66735 0.43883 0.41969 0.0
C3696 C 0.66311 0.44036 0.43844 0.0
C3697 C 0.62758 0.46508 0.47801 0.0
C3698 C 0.63248 0.45023 0.48936 0.0
C3699 C 0.61914 0.46278 0.49521 0.0
C3700 C 0.6203 0.46843 0.48573 0.0
C3701 C 0.62525 0.45367 0.49712 0.0
C3702 C 0.63364 0.4559 0.47985 0.0
C3703 C 0.62881 0.47141 0.46825 0.0
O3704 O 0.64444 0.48485 0.44282 0.0
O3705 O 0.63031 0.47728 0.43608 0.0
O3706 O 0.62418 0.46764 0.45972 0.0
O3707 O 0.63836 0.47516 0.46639 0.0
H3708 H 0.61803 0.49233 0.44535 0.0
H3709 H 0.60928 0.50965 0.44301 0.0
H3710 H 0.63476 0.51978 0.42263 0.0
H3711 H 0.64346 0.50247 0.42486 0.0
H3712 H 0.65906 0.44983 0.40946 0.0
H3713 H 0.64907 0.45837 0.42396 0.0
H3714 H 0.67418 0.42909 0.43204 0.0
H3715 H 0.66422 0.43755 0.44648 0.0
H3716 H 0.63727 0.44323 0.49071 0.0
H3717 H 0.61354 0.46556 0.50109 0.0
H3718 H 0.61556 0.47549 0.48446 0.0
H3719 H 0.63929 0.45318 0.47399 0.0
C3720 C 0.24613 0.88083 0.86979 0.0
C3721 C 0.24964 0.87351 0.86216 0.0
C3722 C 0.26607 0.87086 0.872 0.0
C3723 C 0.25954 0.86855 0.86327 0.0
C3724 C 0.26259 0.87827 0.87954 0.0
C3725 C 0.2527 0.88321 0.87844 0.0
U3726 U 0.22018 0.88784 0.8551 0.0
O3727 O 0.20382 0.88828 0.86124 0.0
O3728 O 0.21118 0.90281 0.85517 0.0
C3729 C 0.20291 0.89858 0.8599 0.0
C3730 C 0.23561 0.88594 0.86903 0.0
C3731 C 0.19838 0.90457 0.86888 0.0
C3732 C 0.20014 0.91435 0.88544 0.0
C3733 C 0.20474 0.90858 0.8771 0.0
C3734 C 0.18281 0.91211 0.87746 0.0
C3735 C 0.18913 0.91616 0.88566 0.0
C3736 C 0.1874 0.90638 0.86914 0.0
C3737 C 0.21574 0.87781 0.8265 0.0
C3738 C 0.20008 0.88154 0.81583 0.0
C3739 C 0.21426 0.87077 0.8086 0.0
C3740 C 0.21992 0.87186 0.81808 0.0
C3741 C 0.20431 0.87562 0.80739 0.0
C3742 C 0.20576 0.88263 0.82534 0.0
C3743 C 0.22198 0.87887 0.83634 0.0
O3744 O 0.23485 0.89394 0.8624 0.0
O3745 O 0.22743 0.8795 0.86861 0.0
O3746 O 0.21821 0.87395 0.84471 0.0
O3747 O 0.22553 0.88843 0.83849 0.0
H3748 H 0.24468 0.87158 0.85541 0.0
H3749 H 0.26209 0.86284 0.85737 0.0
H3750 H 0.2675 0.88016 0.88633 0.0
H3751 H 0.25014 0.88883 0.88441 0.0
H3752 H 0.20514 0.91738 0.89173 0.0
H3753 H 0.21323 0.90726 0.87707 0.0
H3754 H 0.17431 0.91339 0.8775 0.0
H3755 H 0.18235 0.90335 0.86288 0.0
H3756 H 0.19241 0.88535 0.81503 0.0
H3757 H 0.21766 0.86619 0.80218 0.0
H3758 H 0.22761 0.86808 0.81883 0.0
H3759 H 0.2024 0.88725 0.83176 0.0
C3760 C 0.42706 0.99515 0.11912 0.0
C3761 C 0.42606 1.00296 0.11121 0.0
C3762 C 0.43685 1.01518 0.12159 0.0
C3763 C 0.43088 1.0129 0.11246 0.0
C3764 C 0.438 1.00732 0.12939 0.0
C3765 C 0.43313 0.99742 0.12818 0.0
U3766 U 0.41816 0.96973 0.10439 0.0
O3767 O 0.4168 0.95336 0.11025 0.0
O3768 O 0.40259 0.96175 0.1047 0.0
C3769 C 0.40643 0.95315 0.10917 0.0
C3770 C 0.42148 0.98482 0.11841 0.0
C3771 C 0.40026 0.9487 0.1181 0.0
C3772 C 0.39801 0.94463 0.13685 0.0
C3773 C 0.40363 0.94968 0.12869 0.0
C3774 C 0.38545 0.93782 0.12403 0.0
C3775 C 0.38895 0.93856 0.13456 0.0
C3776 C 0.39107 0.94283 0.11588 0.0
C3777 C 0.4265 0.96528 0.07532 0.0
C3778 C 0.42268 0.94936 0.06512 0.0
C3779 C 0.42993 0.96468 0.05639 0.0
C3780 C 0.4303 0.97005 0.06608 0.0
C3781 C 0.42518 0.95453 0.05543 0.0
C3782 C 0.423 0.95476 0.07484 0.0
C3783 C 0.42647 0.97135 0.08532 0.0
O3784 O 0.41308 0.98445 0.11224 0.0
O3785 O 0.42748 0.97632 0.11767 0.0
O3786 O 0.43145 0.96701 0.09338 0.0
O3787 O 0.41734 0.97561 0.08798 0.0
H3788 H 0.42145 1.00144 0.10413 0.0
H3789 H 0.42991 1.01885 0.10634 0.0
H3790 H 0.44257 1.00892 0.13648 0.0
H3791 H 0.43399 0.99156 0.1344 0.0
H3792 H 0.40083 0.94529 0.14494 0.0
H3793 H 0.41068 0.95418 0.13061 0.0
H3794 H 0.37849 0.93317 0.1221 0.0
H3795 H 0.38834 0.94195 0.10778 0.0
H3796 H 0.4207 0.94108 0.06554 0.0
H3797 H 0.43353 0.96862 0.04969 0.0
H3798 H 0.43359 0.97799 0.06636 0.0
H3799 H 0.42059 0.95069 0.08201 0.0
C3800 C 0.1302 0.05932 0.61932 0.0
C3801 C 0.12045 0.05719 0.61435 0.0
C3802 C 0.12026 0.0394 0.62194 0.0
C3803 C 0.11551 0.04731 0.61567 0.0
C3804 C 0.13008 0.04149 0.62675 0.0
C3805 C 0.13499 0.05136 0.62547 0.0
U3806 U 0.13794 0.08507 0.60452 0.0
O3807 O 0.13899 0.10143 0.61049 0.0
O3808 O 0.15329 0.09347 0.60458 0.0
C3809 C 0.14932 0.10194 0.60918 0.0
C3810 C 0.13544 0.06979 0.61851 0.0
C3811 C 0.1555 0.10641 0.61808 0.0
C3812 C 0.15922 0.10832 0.63693 0.0
C3813 C 0.15363 0.10342 0.62865 0.0
C3814 C 0.16876 0.11904 0.62417 0.0
C3815 C 0.16676 0.11624 0.63475 0.0
C3816 C 0.16318 0.11417 0.61592 0.0
C3817 C 0.12891 0.08945 0.57561 0.0
C3818 C 0.13237 0.10539 0.56532 0.0
C3819 C 0.12515 0.08998 0.55674 0.0
C3820 C 0.125 0.08462 0.56646 0.0
C3821 C 0.12979 0.10016 0.55568 0.0
C3822 C 0.13227 0.10001 0.57506 0.0
C3823 C 0.12928 0.08336 0.5856 0.0
O3824 O 0.1436 0.07034 0.61206 0.0
O3825 O 0.12921 0.07814 0.61794 0.0
O3826 O 0.12436 0.08753 0.59378 0.0
O3827 O 0.13858 0.07932 0.58805 0.0
H3828 H 0.11662 0.06318 0.60953 0.0
H3829 H 0.10794 0.04584 0.61188 0.0
H3830 H 0.13388 0.0355 0.6316 0.0
H3831 H 0.1425 0.05282 0.62937 0.0
H3832 H 0.15756 0.10606 0.64504 0.0
H3833 H 0.14774 0.09744 0.63049 0.0
H3834 H 0.17453 0.12513 0.62233 0.0
H3835 H 0.16474 0.11659 0.60783 0.0
H3836 H 0.13426 0.1137 0.56569 0.0
H3837 H 0.12149 0.08599 0.55011 0.0
H3838 H 0.12181 0.07665 0.5668 0.0
H3839 H 0.13477 0.10412 0.58217 0.0
C3840 C 0.17606 0.28437 0.37129 0.0
C3841 C 0.18347 0.27692 0.36722 0.0
C3842 C 0.18893 0.28982 0.35369 0.0
C3843 C 0.18069 0.29676 0.357 0.0
N3844 N 0.16537 0.30002 0.36798 0.0
N3845 N 0.19587 0.27189 0.35356 0.0
C3846 C 0.17398 0.29388 0.36556 0.0
C3847 C 0.18964 0.27947 0.35816 0.0
N3848 N 0.17123 0.2825 0.38081 0.0
N3849 N 0.19627 0.29324 0.34649 0.0
H3850 H 0.19659 0.26421 0.35656 0.0
H3851 H 0.19962 0.27291 0.34628 0.0
H3852 H 0.19607 0.30078 0.3431 0.0
H3853 H 0.2031 0.28898 0.34461 0.0
H3854 H 0.16663 0.28811 0.38475 0.0
H3855 H 0.17261 0.27566 0.38527 0.0
H3856 H 0.15953 0.29773 0.37334 0.0
H3857 H 0.16357 0.30703 0.36397 0.0
C3858 C 1.0194 0.9413 0.61773 0.0
C3859 C 1.02721 0.93317 0.61744 0.0
C3860 C 1.01503 0.92183 0.6073 0.0
C3861 C 1.00763 0.9303 0.60676 0.0
N3862 N 1.0033 0.94861 0.61013 0.0
N3863 N 0.03318 0.91635 0.61058 0.0
C3864 C 1.00996 0.94018 0.61163 0.0
C3865 C 1.02521 0.9236 0.61186 0.0
N3866 N 1.02087 0.94993 0.62412 0.0
N3867 N 1.01221 0.912 0.60369 0.0
H3868 H 0.04075 0.91736 0.61376 0.0
H3869 H 0.0326 0.90977 0.60563 0.0
H3870 H 1.00486 0.91043 0.60025 0.0
H3871 H 1.01677 0.90522 0.60491 0.0
H3872 H 1.01501 0.95556 0.62559 0.0
H3873 H 0.02769 0.95104 0.62867 0.0
H3874 H 1.00513 0.95633 0.61243 0.0
H3875 H 0.99625 0.94807 0.60584 0.0
C3876 C 0.36937 0.75823 0.86612 0.0
C3877 C 0.3741 0.7578 0.85592 0.0
C3878 C 0.37555 0.77724 0.85576 0.0
C3879 C 0.37164 0.77759 0.8663 0.0
N3880 N 0.36627 0.7684 0.88216 0.0
N3881 N 0.38327 0.76665 0.84168 0.0
C3882 C 0.36894 0.76807 0.87167 0.0
C3883 C 0.37762 0.76725 0.85091 0.0
N3884 N 0.36497 0.74928 0.87037 0.0
N3885 N 0.37698 0.78648 0.85026 0.0
H3886 H 0.38495 0.75949 0.83789 0.0
H3887 H 0.38706 0.77312 0.83823 0.0
H3888 H 0.37561 0.79394 0.85356 0.0
H3889 H 0.37867 0.78674 0.84219 0.0
H3890 H 0.36038 0.74928 0.87723 0.0
H3891 H 0.36521 0.74192 0.8666 0.0
H3892 H 0.36538 0.76167 0.88685 0.0
H3893 H 0.36573 0.77546 0.88644 0.0
C3894 C 0.54792 0.1198 0.11631 0.0
C3895 C 0.54826 0.12399 0.10587 0.0
C3896 C 0.52878 0.12484 0.10555 0.0
C3897 C 0.52849 0.12151 0.11629 0.0
N3898 N 0.53775 0.11725 0.13245 0.0
N3899 N 0.53921 0.1321 0.09111 0.0
C3900 C 0.53806 0.11937 0.12183 0.0
C3901 C 0.53873 0.12695 0.10064 0.0
N3902 N 0.55698 0.11591 0.12083 0.0
N3903 N 0.51954 0.12571 0.09994 0.0
H3904 H 0.54634 0.13379 0.08727 0.0
H3905 H 0.53264 0.13551 0.08744 0.0
H3906 H 0.5121 0.12431 0.10328 0.0
H3907 H 0.51926 0.12696 0.09179 0.0
H3908 H 0.55709 0.11168 0.12792 0.0
H3909 H 0.56435 0.11616 0.11708 0.0
H3910 H 0.54448 0.11681 0.13721 0.0
H3911 H 0.53068 0.11672 0.13672 0.0
C3912 C 0.17598 0.77046 0.18409 0.0
C3913 C 0.18458 0.77712 0.18702 0.0
C3914 C 0.19079 0.76353 0.19952 0.0
C3915 C 0.18153 0.75744 0.19748 0.0
N3916 N 0.16449 0.75582 0.18894 0.0
N3917 N 0.19932 0.78073 0.19865 0.0
C3918 C 0.17391 0.76109 0.19004 0.0
C3919 C 0.19178 0.77384 0.19503 0.0
N3920 N 0.16996 0.77294 0.17542 0.0
N3921 N 0.19878 0.75932 0.20552 0.0
H3922 H 0.20029 0.78835 0.19559 0.0
H3923 H 0.20401 0.77924 0.20527 0.0
H3924 H 0.19838 0.75177 0.20888 0.0
H3925 H 0.20618 0.76289 0.20637 0.0
H3926 H 0.16431 0.76785 0.17221 0.0
H3927 H 0.17127 0.77969 0.17083 0.0
H3928 H 0.15815 0.75875 0.18454 0.0
H3929 H 0.16267 0.74895 0.19316 0.0
C3930 C 0.52722 0.93087 0.44882 0.0
C3931 C 0.52671 0.92984 0.43763 0.0
C3932 C 0.54418 0.92129 0.43788 0.0
C3933 C 0.54575 0.92469 0.4485 0.0
N3934 N 0.53573 0.92452 0.46475 0.0
N3935 N 0.53501 0.9242 0.42133 0.0
C3936 C 0.5364 0.92723 0.4543 0.0
C3937 C 0.5353 0.92512 0.43211 0.0
N3938 N 0.51898 0.93533 0.45426 0.0
N3939 N 0.5497 0.9128 0.43409 0.0
H3940 H 0.5286 0.92683 0.41679 0.0
H3941 H 0.54153 0.92163 0.41693 0.0
H3942 H 0.5542 0.90801 0.43913 0.0
H3943 H 0.54827 0.90945 0.42667 0.0
H3944 H 0.51947 0.93729 0.46227 0.0
H3945 H 0.51198 0.93777 0.4506 0.0
H3946 H 0.5288 0.92522 0.46919 0.0
H3947 H 0.54171 0.92016 0.46849 0.0
C3948 C 0.37828 0.28822 0.70215 0.0
C3949 C 0.37385 0.29757 0.6977 0.0
C3950 C 0.36751 0.28728 0.6824 0.0
C3951 C 0.37115 0.27782 0.68731 0.0
N3952 N 0.37853 0.26899 0.70257 0.0
N3953 N 0.36293 0.30588 0.68439 0.0
C3954 C 0.37613 0.27821 0.6974 0.0
C3955 C 0.3681 0.29707 0.68803 0.0
N3956 N 0.38482 0.28896 0.71077 0.0
N3957 N 0.36377 0.28695 0.67224 0.0
H3958 H 0.36328 0.3132 0.68822 0.0
H3959 H 0.35765 0.30577 0.67805 0.0
H3960 H 0.36309 0.27992 0.66793 0.0
H3961 H 0.36211 0.29369 0.66778 0.0
H3962 H 0.38923 0.28262 0.7137 0.0
H3963 H 0.38657 0.29614 0.71448 0.0
H3964 H 0.38108 0.2687 0.71041 0.0
H3965 H 0.37712 0.26151 0.69933 0.0
C3966 C 1.01687 0.13046 0.95121 0.0
C3967 C 1.00787 0.12458 0.94788 0.0
C3968 C 1.01831 0.11678 0.93338 0.0
C3969 C 1.02752 0.12195 0.93728 0.0
N3970 N 0.03601 0.13239 0.95084 0.0
N3971 N 1.00027 0.111 0.9368 0.0
C3972 C 1.02692 0.12843 0.94646 0.0
C3973 C 1.00865 0.11743 0.93922 0.0
N3974 N 1.01575 0.13821 0.9587 0.0
N3975 N 1.01871 0.11152 0.92391 0.0
H3976 H 0.99304 0.11132 0.94082 0.0
H3977 H 1.00071 0.10479 0.93138 0.0
H3978 H 1.02565 0.11079 0.91947 0.0
H3979 H 1.01203 0.1086 0.92004 0.0
H3980 H 1.02173 0.14356 0.96064 0.0
H3981 H 1.00853 0.13991 0.96238 0.0
H3982 H 0.03626 0.13618 0.95817 0.0
H3983 H 0.04351 0.1311 0.94759 0.0
C3984 C 0.37071 0.19094 0.28676 0.0
C3985 C 0.36866 0.18408 0.27807 0.0
C3986 C 0.35631 0.17378 0.28908 0.0
C3987 C 0.35765 0.18119 0.29744 0.0
N3988 N 0.36494 0.19765 0.30385 0.0
N3989 N 0.35833 0.16997 0.27034 0.0
C3990 C 0.36454 0.19 0.29618 0.0
C3991 C 0.36114 0.17576 0.27907 0.0
N3992 N 0.37878 0.19815 0.28611 0.0
N3993 N 0.35065 0.1647 0.2908 0.0
H3994 H 0.36168 0.17117 0.26288 0.0
H3995 H 0.35206 0.1646 0.27027 0.0
H3996 H 0.34695 0.16301 0.298 0.0
H3997 H 0.35035 0.15844 0.28543 0.0
H3998 H 0.38146 0.20258 0.29254 0.0
H3999 H 0.38341 0.19912 0.27932 0.0
H4000 H 0.36887 0.20485 0.3029 0.0
H4001 H 0.36066 0.19716 0.31091 0.0
C4002 C 0.12524 0.10484 0.52604 0.0
C4003 C 0.12531 0.11609 0.52569 0.0
C4004 C 0.1333 0.11632 0.54341 0.0
C4005 C 0.13079 0.10541 0.54474 0.0
N4006 N 0.13271 0.08939 0.53453 0.0
N4007 N 0.12927 0.1327 0.53433 0.0
C4008 C 0.12906 0.09956 0.53525 0.0
C4009 C 0.12927 0.12188 0.53448 0.0
N4010 N 0.1215 0.09916 0.51762 0.0
N4011 N 0.14124 0.12075 0.54924 0.0
H4012 H 0.12648 0.13709 0.52789 0.0
H4013 H 0.13125 0.13722 0.54097 0.0
H4014 H 0.14628 0.11608 0.55386 0.0
H4015 H 0.14398 0.12845 0.54801 0.0
H4016 H 0.12024 0.091 0.51795 0.0
H4017 H 0.11893 0.1027 0.5106 0.0
H4018 H 0.13262 0.08501 0.52753 0.0
H4019 H 0.13721 0.08596 0.54058 0.0
C4020 C 0.19713 0.87852 0.77812 0.0
C4021 C 0.18794 0.87205 0.77745 0.0
C4022 C 0.18978 0.86745 0.7963 0.0
C4023 C 0.19845 0.87458 0.79715 0.0
N4024 N 0.20933 0.88823 0.78938 0.0
N4025 N 0.1745 0.86161 0.78614 0.0
C4026 C 0.20183 0.8805 0.78819 0.0
C4027 C 0.18398 0.86685 0.78662 0.0
N4028 N 0.20157 0.88251 0.76907 0.0
N4029 N 0.18731 0.86099 0.80464 0.0
H4030 H 0.17009 0.86093 0.77918 0.0
H4031 H 0.17059 0.85867 0.79279 0.0
H4032 H 0.19129 0.86128 0.81188 0.0
H4033 H 0.18188 0.85479 0.80415 0.0
H4034 H 0.2089 0.88629 0.76889 0.0
H4035 H 0.19835 0.88126 0.76156 0.0
H4036 H 0.2113 0.89361 0.78344 0.0
H4037 H 0.21297 0.88989 0.79662 0.0
C4038 C 0.42943 0.94962 1.0258 0.0
C4039 C 0.42925 0.93837 1.02554 0.0
C4040 C 0.42136 0.93836 0.0433 0.0
C4041 C 0.424 0.94924 0.04453 0.0
N4042 N 0.42216 0.9652 0.03423 0.0
N4043 N 0.42515 0.92186 0.03432 0.0
C4044 C 0.42572 0.95501 0.035 0.0
C4045 C 0.42527 0.93269 0.03439 0.0
N4046 N 0.43316 0.9552 1.01731 0.0
N4047 N 0.41341 0.93405 0.04922 0.0
H4048 H 0.42786 0.91739 0.0279 0.0
H4049 H 0.42316 0.91742 0.041 0.0
H4050 H 0.40848 0.93881 0.05387 0.0
H4051 H 0.41057 0.92638 0.04806 0.0
H4052 H 0.43451 0.96335 1.01757 0.0
H4053 H 0.43564 0.95159 1.0103 0.0
H4054 H 0.42225 0.96953 0.0272 0.0
H4055 H 0.41775 0.96872 0.04029 0.0
C4056 C 0.35698 0.8642 0.26232 0.0
C4057 C 0.35811 0.87388 0.25667 0.0
C4058 C 0.37074 0.8802 0.27008 0.0
C4059 C 0.36867 0.87105 0.27632 0.0
N4060 N 0.35862 0.85504 0.27914 0.0
N4061 N 0.36482 0.89177 0.25591 0.0
C4062 C 0.36148 0.86322 0.27263 0.0
C4063 C 0.36468 0.88206 0.26074 0.0
N4064 N 0.35187 0.85583 0.2577 0.0
N4065 N 0.37871 0.88697 0.27293 0.0
H4066 H 0.36049 0.89345 0.24906 0.0
H4067 H 0.36851 0.8984 0.25916 0.0
H4068 H 0.38336 0.88584 0.27968 0.0
H4069 H 0.38136 0.89314 0.26813 0.0
H4070 H 0.35177 0.84823 0.26094 0.0
H4071 H 0.34854 0.85623 0.25015 0.0
H4072 H 0.35253 0.84975 0.27737 0.0
H4073 H 0.3617 0.85404 0.28674 0.0
C4074 C 0.43966 0.10744 0.52425 0.0
C4075 C 0.43364 0.11664 0.52672 0.0
C4076 C 0.42426 0.11508 0.5097 0.0
C4077 C 0.43085 0.10638 0.5069 0.0
N4078 N 0.44623 0.0956 0.5106 0.0
N4079 N 0.4217 0.13045 0.52098 0.0
C4080 C 0.43897 0.10295 0.51392 0.0
C4081 C 0.42637 0.12082 0.51919 0.0
N4082 N 0.44574 0.10275 0.53191 0.0
N4083 N 0.41574 0.11761 0.5035 0.0
H4084 H 0.42311 0.13492 0.52779 0.0
H4085 H 0.41722 0.13444 0.51531 0.0
H4086 H 0.41391 0.11359 0.49652 0.0
H4087 H 0.40997 0.12309 0.50573 0.0
H4088 H 0.44936 0.09539 0.53095 0.0
H4089 H 0.44644 0.10577 0.53957 0.0
H4090 H 0.45298 0.09361 0.51492 0.0
H4091 H 0.44603 0.09219 0.50307 0.0
C4092 C 0.18898 0.17069 0.76096 0.0
C4093 C 0.19927 0.17495 0.75926 0.0
C4094 C 0.19888 0.18204 0.77743 0.0
C4095 C 0.18782 0.18004 0.77796 0.0
N4096 N 0.17215 0.17256 0.76991 0.0
N4097 N 0.21538 0.17661 0.76939 0.0
C4098 C 0.18281 0.17441 0.76961 0.0
C4099 C 0.20474 0.17844 0.76849 0.0
N4100 N 0.186 0.16166 0.75584 0.0
N4101 N 0.20384 0.18737 0.78545 0.0
H4102 H 0.21951 0.17222 0.76371 0.0
H4103 H 0.21967 0.17804 0.7763 0.0
H4104 H 0.19993 0.18982 0.79231 0.0
H4105 H 0.21165 0.19001 0.78489 0.0
H4106 H 0.1789 0.15772 0.75742 0.0
H4107 H 0.19144 0.15718 0.7515 0.0
H4108 H 0.16805 0.16928 0.76352 0.0
H4109 H 0.16733 0.17509 0.77614 0.0
C4110 C 0.13121 0.95104 1.01578 0.0
C4111 C 0.12472 0.94829 1.007 0.0
C4112 C 0.11625 0.93429 1.01761 0.0
C4113 C 0.12208 0.93767 1.02663 0.0
N4114 N 0.1339 0.95028 0.0348 0.0
N4115 N 0.11002 0.93837 0.99987 0.0
C4116 C 0.12924 0.94633 1.02585 0.0
C4117 C 0.11695 0.94019 1.008 0.0
N4118 N 0.13946 0.95793 1.0144 0.0
N4119 N 0.1103 0.92525 1.01814 0.0
H4120 H 0.11037 0.94244 0.99267 0.0
H4121 H 0.10344 0.93344 1.00051 0.0
H4122 H 0.10952 0.92079 1.02506 0.0
H4123 H 0.10681 0.9217 1.01156 0.0
H4124 H 0.14519 0.95937 1.02016 0.0
H4125 H 0.14112 0.96156 1.00716 0.0
H4126 H 0.13826 0.95728 0.03495 0.0
H4127 H 0.13268 0.94704 0.04231 0.0
C4128 C 0.28669 0.34917 0.17728 0.0
C4129 C 0.29595 0.35485 0.17424 0.0
C4130 C 0.28547 0.37126 0.17424 0.0
C4131 C 0.27705 0.36593 0.17946 0.0
N4132 N 0.26955 0.34956 0.18592 0.0
N4133 N 0.29954 0.36876 0.16166 0.0
C4134 C 0.27762 0.3548 0.18096 0.0
C4135 C 0.29426 0.36533 0.17043 0.0
N4136 N 0.28593 0.33862 0.17499 0.0
N4137 N 0.2851 0.38199 0.17285 0.0
H4138 H 0.30398 0.36354 0.15701 0.0
H4139 H 0.298 0.37602 0.15802 0.0
H4140 H 0.27876 0.38663 0.17544 0.0
H4141 H 0.29153 0.38628 0.1699 0.0
H4142 H 0.27902 0.33422 0.17608 0.0
H4143 H 0.29175 0.33471 0.17059 0.0
H4144 H 0.27011 0.34163 0.1882 0.0
H4145 H 0.26263 0.35333 0.18845 0.0
C4146 C 0.79026 0.19664 0.88233 0.0
C4147 C 0.79772 0.19713 0.87392 0.0
C4148 C 0.78604 0.1861 0.86288 0.0
C4149 C 0.77818 0.18643 0.87093 0.0
N4150 N 0.77208 0.19336 0.88768 0.0
N4151 N 0.80221 0.19364 0.85568 0.0
C4152 C 0.7801 0.19206 0.8805 0.0
C4153 C 0.79548 0.19221 0.86405 0.0
N4154 N 0.793 0.20031 0.89215 0.0
N4155 N 0.78463 0.17967 0.85427 0.0
H4156 H 0.80926 0.19793 0.85626 0.0
H4157 H 0.80044 0.1913 0.84797 0.0
H4158 H 0.77781 0.17513 0.85313 0.0
H4159 H 0.79053 0.17816 0.8487 0.0
H4160 H 0.78839 0.19913 0.89889 0.0
H4161 H 0.80033 0.20378 0.89376 0.0
H4162 H 0.7726 0.19834 0.89423 0.0
H4163 H 0.76452 0.19016 0.88663 0.0
C4164 C 0.10352 0.54129 0.11385 0.0
C4165 C 0.10293 0.54593 0.12407 0.0
C4166 C 0.10812 0.52886 0.13181 0.0
C4167 C 0.11094 0.52503 0.12158 0.0
N4168 N 0.10223 0.5247 0.10459 0.0
N4169 N 0.10466 0.54405 0.14302 0.0
C4170 C 0.10621 0.53039 0.11286 0.0
C4171 C 0.10522 0.53968 0.13313 0.0
N4172 N 0.10144 0.54722 0.10504 0.0
N4173 N 0.10646 0.52181 0.13985 0.0
H4174 H 0.10232 0.55188 0.14435 0.0
H4175 H 0.10732 0.54011 0.14978 0.0
H4176 H 0.10666 0.51363 0.13856 0.0
H4177 H 0.10343 0.52398 0.14722 0.0
H4178 H 0.10271 0.54436 0.09739 0.0
H4179 H 0.09931 0.55521 0.10542 0.0
H4180 H 0.09793 0.52812 0.09841 0.0
H4181 H 0.10163 0.51645 0.10495 0.0
C4182 C 0.76975 0.8712 0.37972 0.0
C4183 C 0.77808 0.86607 0.37416 0.0
C4184 C 0.76832 0.8493 0.3756 0.0
C4185 C 0.75914 0.85492 0.37901 0.0
N4186 N 0.75578 0.86821 0.3923 0.0
N4187 N 0.78539 0.84996 0.36684 0.0
C4188 C 0.76095 0.86517 0.38332 0.0
C4189 C 0.7774 0.85503 0.37211 0.0
N4190 N 0.77021 0.88185 0.38163 0.0
N4191 N 0.76904 0.83866 0.3774 0.0
H4192 H 0.79233 0.85378 0.36445 0.0
H4193 H 0.78474 0.84216 0.36418 0.0
H4194 H 0.76325 0.8346 0.38171 0.0
H4195 H 0.7759 0.83426 0.37603 0.0
H4196 H 0.76384 0.88604 0.38485 0.0
H4197 H 0.77656 0.88656 0.3792 0.0
H4198 H 0.75743 0.87526 0.39628 0.0
H4199 H 0.75129 0.86283 0.3967 0.0
C4200 C 0.93972 1.01095 0.13048 0.0
C4201 C 0.94831 1.00803 0.12381 0.0
C4202 C 0.94727 1.02534 0.11491 0.0
C4203 C 0.93817 0.02793 0.12102 0.0
N4204 N 0.92449 1.02239 0.13317 0.0
N4205 N 0.95892 1.01154 0.1083 0.0
C4206 C 0.93403 1.02048 0.12839 0.0
C4207 C 0.95169 1.01497 0.11561 0.0
N4208 N 0.93725 1.00481 0.13906 0.0
N4209 N 0.95193 0.03292 0.10873 0.0
H4210 H 0.96228 1.00398 0.1085 0.0
H4211 H 0.96085 1.0158 0.1015 0.0
H4212 H 0.94897 0.04061 0.10802 0.0
H4213 H 0.95924 0.03188 0.10502 0.0
H4214 H 0.93187 1.00712 0.14488 0.0
H4215 H 0.94123 0.99779 0.14087 0.0
H4216 H 0.92051 1.01678 0.13774 0.0
H4217 H 0.92005 0.02924 0.13178 0.0
C4218 C 0.26925 0.68652 0.69069 0.0
C4219 C 0.27737 0.68763 0.68297 0.0
C4220 C 0.26549 0.69858 0.67205 0.0
C4221 C 0.25774 0.69827 0.68021 0.0
N4222 N 0.25272 0.69323 0.69794 0.0
N4223 N 0.2839 0.69601 0.66708 0.0
C4224 C 0.25975 0.69258 0.68971 0.0
C4225 C 0.27567 0.69401 0.67385 0.0
N4226 N 0.27048 0.67941 0.69879 0.0
N4227 N 0.26301 0.703 0.66247 0.0
H4228 H 0.29147 0.69284 0.66813 0.0
H4229 H 0.2835 0.70152 0.66095 0.0
H4230 H 0.25566 0.70648 0.66089 0.0
H4231 H 0.26786 0.70245 0.65582 0.0
H4232 H 0.26442 0.67737 0.704 0.0
H4233 H 0.27734 0.67488 0.69979 0.0
H4234 H 0.25428 0.69028 0.70549 0.0
H4235 H 0.24563 0.69747 0.69747 0.0
C4236 C 0.10866 0.51502 0.42192 0.0
C4237 C 0.10803 0.50765 0.4304 0.0
C4238 C 0.11914 0.5193 0.44138 0.0
C4239 C 0.11894 0.52709 0.43326 0.0
N4240 N 0.11216 0.53311 0.41642 0.0
N4241 N 0.11134 0.5033 0.4487 0.0
C4242 C 0.11334 0.52515 0.42368 0.0
C4243 C 0.11292 0.50993 0.44027 0.0
N4244 N 0.10502 0.51223 0.4121 0.0
N4245 N 0.12555 0.5207 0.45001 0.0
H4246 H 0.10697 0.49631 0.44817 0.0
H4247 H 0.11366 0.50512 0.45641 0.0
H4248 H 0.13019 0.52746 0.4511 0.0
H4249 H 0.12696 0.51483 0.45564 0.0
H4250 H 0.10629 0.51676 0.40532 0.0
H4251 H 0.10147 0.50492 0.41054 0.0
H4252 H 0.1072 0.53258 0.40985 0.0
H4253 H 0.11543 0.54064 0.41743 0.0
C4254 C 0.44596 0.52909 0.92551 0.0
C4255 C 0.43757 0.52821 0.93296 0.0
C4256 C 0.44025 0.5468 0.9382 0.0
C4257 C 0.44807 0.54789 0.93017 0.0
N4258 N 0.45718 0.54066 0.91501 0.0
N4259 N 0.42557 0.53656 0.94527 0.0
C4260 C 0.45059 0.53919 0.92349 0.0
C4261 C 0.43439 0.53717 0.93901 0.0
N4262 N 0.44976 0.52019 0.92061 0.0
N4263 N 0.43866 0.55486 0.94528 0.0
H4264 H 0.42114 0.52962 0.94613 0.0
H4265 H 0.42213 0.5431 0.94896 0.0
H4266 H 0.44269 0.56207 0.94486 0.0
H4267 H 0.43397 0.55414 0.95202 0.0
H4268 H 0.4566 0.52009 0.91599 0.0
H4269 H 0.44657 0.51265 0.92186 0.0
H4270 H 0.45842 0.53497 0.90917 0.0
H4271 H 0.46075 0.54793 0.91331 0.0
C4272 C 0.86485 0.76458 0.70261 0.0
C4273 C 0.87086 0.75634 0.6978 0.0
C4274 C 0.87381 0.76799 0.68248 0.0
C4275 C 0.87016 0.7768 0.68848 0.0
N4276 N 0.86213 0.78345 0.70454 0.0
N4277 N 0.87196 0.74912 0.68018 0.0
C4278 C 0.86557 0.77508 0.6986 0.0
C4279 C 0.87296 0.7576 0.68681 0.0
N4280 N 0.85721 0.76209 0.70986 0.0
N4281 N 0.87797 0.76946 0.6726 0.0
H4282 H 0.86875 0.74197 0.68282 0.0
H4283 H 0.87252 0.74971 0.67196 0.0
H4284 H 0.87827 0.77685 0.6689 0.0
H4285 H 0.88173 0.76339 0.66843 0.0
H4286 H 0.8519 0.76765 0.71291 0.0
H4287 H 0.85528 0.75423 0.71158 0.0
H4288 H 0.8597 0.78262 0.7124 0.0
H4289 H 0.86252 0.79129 0.70192 0.0
C4290 C 0.03782 0.13362 0.45014 0.0
C4291 C 0.04585 0.12578 0.44916 0.0
C4292 C 0.03441 0.11555 0.43714 0.0
C4293 C 1.02605 0.12289 0.4389 0.0
N4294 N 1.01918 0.13805 0.44832 0.0
N4295 N 0.05137 0.10855 0.44299 0.0
C4296 C 0.02759 0.13171 0.44574 0.0
C4297 C 0.04403 0.11654 0.44299 0.0
N4298 N 0.04006 0.14302 0.45505 0.0
N4299 N 0.03327 0.10781 0.42964 0.0
H4300 H 0.05857 0.10905 0.44705 0.0
H4301 H 0.05002 0.10112 0.43965 0.0
H4302 H 1.02633 0.1068 0.42525 0.0
H4303 H 0.03946 0.10294 0.42714 0.0
H4304 H 0.03495 0.14951 0.45501 0.0
H4305 H 0.04744 0.14468 0.45841 0.0
H4306 H 1.0195 0.14388 0.45415 0.0
H4307 H 1.01157 0.13691 0.44527 0.0
C4308 C 0.67362 0.27711 0.19764 0.0
C4309 C 0.6814 0.27614 0.18956 0.0
C4310 C 0.68673 0.29467 0.19245 0.0
C4311 C 0.6784 0.29586 0.19994 0.0
N4312 N 0.6628 0.28882 0.20842 0.0
N4313 N 0.69423 0.28436 0.17803 0.0
C4314 C 0.67152 0.28724 0.20218 0.0
C4315 C 0.68765 0.28503 0.18661 0.0
N4316 N 0.66849 0.26827 0.20124 0.0
N4317 N 0.69398 0.30263 0.19116 0.0
H4318 H 0.69518 0.27742 0.17363 0.0
H4319 H 0.69811 0.29086 0.17475 0.0
H4320 H 0.6935 0.30984 0.19519 0.0
H4321 H 0.7009 0.30181 0.18674 0.0
H4322 H 0.6636 0.26824 0.20789 0.0
H4323 H 0.6698 0.26072 0.19813 0.0
H4324 H 0.65684 0.28319 0.20942 0.0
H4325 H 0.66102 0.29612 0.21189 0.0
C4326 C 0.51933 0.93634 0.93557 0.0
C4327 C 0.52853 0.93114 0.93947 0.0
C4328 C 0.51775 0.92219 0.95301 0.0
C4329 C 0.50875 0.9281 0.94971 0.0
N4330 N 0.50119 0.94192 0.93888 0.0
N4331 N 0.53691 0.92039 0.95287 0.0
C4332 C 0.50959 0.93548 0.94125 0.0
C4333 C 0.52785 0.92441 0.94846 0.0
N4334 N 0.51982 0.94185 0.92625 0.0
N4335 N 0.51659 0.91424 0.96029 0.0
H4336 H 0.54444 0.92181 0.94976 0.0
H4337 H 0.53708 0.9164 0.96009 0.0
H4338 H 0.50933 0.91241 0.96381 0.0
H4339 H 0.52258 0.90888 0.96218 0.0
H4340 H 0.51317 0.94482 0.92235 0.0
H4341 H 0.52682 0.94274 0.92193 0.0
H4342 H 0.50167 0.94827 0.93363 0.0
H4343 H 0.49391 0.94145 0.94277 0.0
C4344 C 0.86776 0.2789 0.85515 0.0
C4345 C 0.8737 0.27617 0.86431 0.0
C4346 C 0.88346 0.293 0.86298 0.0
C4347 C 0.87693 0.29608 0.85434 0.0
N4348 N 0.86152 0.29287 0.84349 0.0
N4349 N 0.88577 0.28144 0.87817 0.0
C4350 C 0.86868 0.28928 0.85079 0.0
C4351 C 0.88114 0.28347 0.86858 0.0
N4352 N 0.86152 0.27144 0.85035 0.0
N4353 N 0.89211 0.29898 0.8656 0.0
H4354 H 0.88422 0.2746 0.88255 0.0
H4355 H 0.89038 0.28695 0.88224 0.0
H4356 H 0.89409 0.30599 0.86168 0.0
H4357 H 0.89783 0.29655 0.87103 0.0
H4358 H 0.85794 0.27258 0.843 0.0
H4359 H 0.86066 0.26375 0.85326 0.0
H4360 H 0.85468 0.28872 0.84144 0.0
H4361 H 0.86188 0.30043 0.84017 0.0
C4362 C 0.51607 0.13562 0.60616 0.0
C4363 C 0.50881 0.12708 0.60517 0.0
C4364 C 0.52093 0.11558 0.61523 0.0
C4365 C 0.5286 0.12381 0.61533 0.0
N4366 N 0.53419 0.14114 0.60949 0.0
N4367 N 0.50483 0.10851 0.6074 0.0
C4368 C 0.52636 0.13371 0.61042 0.0
C4369 C 0.51137 0.11694 0.60935 0.0
N4370 N 0.51303 0.14561 0.60327 0.0
N4371 N 0.52263 0.10658 0.62103 0.0
H4372 H 0.49771 0.10921 0.60324 0.0
H4373 H 0.50684 0.1007 0.60916 0.0
H4374 H 0.52953 0.10529 0.62541 0.0
H4375 H 0.51687 0.10079 0.62224 0.0
H4376 H 0.51751 0.15237 0.60485 0.0
H4377 H 0.50559 0.1473 0.60006 0.0
H4378 H 0.53341 0.14802 0.60499 0.0
H4379 H 0.54183 0.14004 0.61246 0.0
C4380 C 0.68379 0.76057 0.36347 0.0
C4381 C 0.67781 0.75975 0.35397 0.0
C4382 C 0.67529 0.77908 0.35384 0.0
C4383 C 0.68055 0.7798 0.36376 0.0
N4384 N 0.68838 0.77113 0.37888 0.0
N4385 N 0.66637 0.76788 0.34099 0.0
C4386 C 0.68441 0.77051 0.36882 0.0
C4387 C 0.67313 0.76893 0.3494 0.0
N4388 N 0.68917 0.75192 0.36719 0.0
N4389 N 0.67264 0.78814 0.34849 0.0
H4390 H 0.66461 0.76059 0.33752 0.0
H4391 H 0.6618 0.77409 0.33803 0.0
H4392 H 0.67406 0.79572 0.3515 0.0
H4393 H 0.66987 0.78819 0.34072 0.0
H4394 H 0.69463 0.75226 0.37337 0.0
H4395 H 0.68882 0.74449 0.36356 0.0
H4396 H 0.69023 0.76452 0.38347 0.0
H4397 H 0.68906 0.77827 0.38301 0.0
C4398 C 1.02712 0.93049 0.10287 0.0
C4399 C 1.02658 0.9321 0.11399 0.0
C4400 C 0.04606 0.93175 0.115 0.0
C4401 C 0.04654 0.92923 0.10404 0.0
N4402 N 0.03755 0.92452 0.08784 0.0
N4403 N 0.03534 0.93279 0.13095 0.0
C4404 C 0.03706 0.92815 0.09805 0.0
C4405 C 0.03601 0.93233 0.12014 0.0
N4406 N 1.01814 0.93147 0.09687 0.0
N4407 N 0.0552 0.93393 0.12041 0.0
H4408 H 0.02815 0.93339 0.13498 0.0
H4409 H 0.04183 0.93177 0.13596 0.0
H4410 H 0.06269 0.93351 0.11693 0.0
H4411 H 0.05533 0.93695 0.12808 0.0
H4412 H 1.01817 0.93156 0.08862 0.0
H4413 H 1.01071 0.93309 0.10012 0.0
H4414 H 0.03088 0.92245 0.08343 0.0
H4415 H 0.04467 0.92271 0.08404 0.0
C4416 C 0.70056 0.88482 0.76605 0.0
C4417 C 0.70013 0.87679 0.75818 0.0
C4418 C 0.68853 0.86613 0.76966 0.0
C4419 C 0.68978 0.87371 0.77789 0.0
N4420 N 0.69829 0.88948 0.78456 0.0
N4421 N 0.69498 0.85914 0.75294 0.0
C4422 C 0.69615 0.88286 0.77626 0.0
C4423 C 0.69444 0.86726 0.7601 0.0
N4424 N 0.70495 0.89444 0.76367 0.0
N4425 N 0.68143 0.85803 0.77086 0.0
H4426 H 0.69911 0.85972 0.7458 0.0
H4427 H 0.69203 0.85158 0.7544 0.0
H4428 H 0.677 0.85692 0.77776 0.0
H4429 H 0.67928 0.85292 0.76475 0.0
H4430 H 0.70448 0.90101 0.76865 0.0
H4431 H 0.7083 0.89615 0.75631 0.0
H4432 H 0.7038 0.89561 0.78419 0.0
H4433 H 0.69523 0.88831 0.79216 0.0
C4434 C 0.94049 0.95343 0.51492 0.0
C4435 C 0.93477 0.94845 0.50659 0.0
C4436 C 0.93212 0.93301 0.51816 0.0
C4437 C 0.93545 0.9391 0.52703 0.0
N4438 N 0.94286 0.95539 0.53382 0.0
N4439 N 0.93435 0.9308 0.49933 0.0
C4440 C 0.93973 0.94937 0.52539 0.0
C4441 C 0.933 0.93738 0.5078 0.0
N4442 N 0.94793 0.96093 0.51257 0.0
N4443 N 0.92824 0.923 0.51954 0.0
H4444 H 0.9376 0.93355 0.49224 0.0
H4445 H 0.93404 0.92256 0.4999 0.0
H4446 H 0.92793 0.91928 0.52692 0.0
H4447 H 0.92472 0.91872 0.51341 0.0
H4448 H 0.95305 0.96413 0.51821 0.0
H4449 H 0.94993 0.96273 0.50474 0.0
H4450 H 0.94505 0.96333 0.53305 0.0
H4451 H 0.94244 0.95274 0.54164 0.0
C4452 C 0.8523 0.17345 0.26696 0.0
C4453 C 0.85583 0.17933 0.25804 0.0
C4454 C 0.87009 0.18714 0.2688 0.0
C4455 C 0.86597 0.18198 0.27792 0.0
N4456 N 0.85223 0.17151 0.28609 0.0
N4457 N 0.86709 0.19289 0.25068 0.0
C4458 C 0.85681 0.17548 0.27711 0.0
C4459 C 0.86447 0.18648 0.25901 0.0
N4460 N 0.84482 0.1657 0.26567 0.0
N4461 N 0.87954 0.1924 0.26942 0.0
H4462 H 0.86326 0.19255 0.24336 0.0
H4463 H 0.87249 0.19911 0.25124 0.0
H4464 H 0.88382 0.19314 0.27645 0.0
H4465 H 0.88357 0.19532 0.26283 0.0
H4466 H 0.84275 0.16035 0.2716 0.0
H4467 H 0.84131 0.16401 0.25838 0.0
H4468 H 0.84491 0.16771 0.28617 0.0
H4469 H 0.85532 0.1728 0.29365 0.0
C4470 C 0.61888 0.1189 1.01873 0.0
C4471 C 0.62404 0.11494 0.02793 0.0
C4472 C 0.63275 0.1012 1.01719 0.0
C4473 C 0.62688 0.10457 1.00819 0.0
N4474 N 0.61323 0.11562 1.00063 0.0
N4475 N 0.63459 0.10138 0.03633 0.0
C4476 C 0.61964 0.11316 1.00902 0.0
C4477 C 0.63063 0.10583 0.02726 0.0
N4478 N 0.61352 0.12832 1.01921 0.0
N4479 N 0.64058 0.09378 1.01603 0.0
H4480 H 0.63324 0.10455 0.04384 0.0
H4481 H 0.63846 0.09409 0.03651 0.0
H4482 H 0.64235 0.0902 1.00879 0.0
H4483 H 0.64592 0.09182 1.02201 0.0
H4484 H 0.6106 0.13224 1.01256 0.0
H4485 H 0.61271 0.13268 1.02618 0.0
H4486 H 0.60696 0.12098 1.0011 0.0
H4487 H 0.61364 0.11169 0.99337 0.0
C4488 C 0.68859 0.1723 0.79436 0.0
C4489 C 0.69592 0.17999 0.79806 0.0
C4490 C 0.68892 0.19256 0.78495 0.0
C4491 C 0.68368 0.1841 0.77967 0.0
N4492 N 0.67216 0.16981 0.78491 0.0
N4493 N 0.70277 0.19786 0.7971 0.0
C4494 C 0.68162 0.17495 0.78591 0.0
C4495 C 0.69601 0.19025 0.79342 0.0
N4496 N 0.68841 0.16238 0.79868 0.0
N4497 N 0.68557 0.20272 0.78338 0.0
H4498 H 0.70772 0.19671 0.80363 0.0
H4499 H 0.70387 0.20507 0.79321 0.0
H4500 H 0.67869 0.20436 0.77909 0.0
H4501 H 0.68846 0.20916 0.78768 0.0
H4502 H 0.68391 0.15622 0.79549 0.0
H4503 H 0.69339 0.16009 0.80488 0.0
H4504 H 0.6698 0.16368 0.78993 0.0
H4505 H 0.66614 0.17274 0.78003 0.0
C4506 C 0.61627 0.9397 0.53314 0.0
C4507 C 0.6242 0.94035 0.52517 0.0
C4508 C 0.63576 0.95012 0.53744 0.0
C4509 C 0.62747 0.95032 0.54505 0.0
N4510 N 0.60928 0.94667 0.54966 0.0
N4511 N 0.64082 0.94756 0.51907 0.0
C4512 C 0.61756 0.94547 0.54277 0.0
C4513 C 0.63378 0.94594 0.52715 0.0
N4514 N 0.60765 0.9333 0.53163 0.0
N4515 N 0.64563 0.95369 0.54017 0.0
H4516 H 0.63965 0.94465 0.51143 0.0
H4517 H 0.64738 0.95254 0.51969 0.0
H4518 H 0.64737 0.95685 0.54761 0.0
H4519 H 0.6523 0.95271 0.5354 0.0
H4520 H 0.60219 0.93156 0.53757 0.0
H4521 H 0.60641 0.92901 0.52468 0.0
H4522 H 0.60154 0.94438 0.54791 0.0
H4523 H 0.60995 0.95072 0.55683 0.0
C4524 C 0.85484 0.88528 0.28805 0.0
C4525 C 0.85492 0.8772 0.29588 0.0
C4526 C 0.86618 0.86615 0.28442 0.0
C4527 C 0.86527 0.87382 0.27622 0.0
N4528 N 0.85741 0.88995 0.26958 0.0
N4529 N 0.85936 0.85934 0.30106 0.0
C4530 C 0.85924 0.8832 0.27787 0.0
C4531 C 0.86025 0.86746 0.29394 0.0
N4532 N 0.85078 0.89505 0.29045 0.0
N4533 N 0.87298 0.85778 0.28322 0.0
H4534 H 0.8552 0.86003 0.30817 0.0
H4535 H 0.86202 0.85166 0.29957 0.0
H4536 H 0.87741 0.85654 0.27635 0.0
H4537 H 0.8749 0.85256 0.28932 0.0
H4538 H 0.85152 0.90163 0.28552 0.0
H4539 H 0.84744 0.89684 0.2978 0.0
H4540 H 0.85213 0.89629 0.26995 0.0
H4541 H 0.86048 0.8887 0.262 0.0
C4542 C 0.93224 0.1173 0.04541 0.0
C4543 C 0.92884 0.10658 0.04603 0.0
C4544 C 0.92906 0.10534 1.02658 0.0
C4545 C 0.93166 0.11627 1.02595 0.0
N4546 N 0.9342 0.13312 0.03461 0.0
N4547 N 0.92235 0.09086 0.03732 0.0
C4548 C 0.93283 0.12239 0.03533 0.0
C4549 C 0.92678 0.10073 0.03663 0.0
N4550 N 0.93524 0.12251 0.05443 0.0
N4551 N 0.92906 0.09929 1.01759 0.0
H4552 H 0.92058 0.08722 0.04453 0.0
H4553 H 0.91958 0.08664 0.03079 0.0
H4554 H 0.93059 0.10241 1.01008 0.0
H4555 H 0.9284 0.09107 1.01763 0.0
H4556 H 0.93891 0.1299 0.05441 0.0
H4557 H 0.9348 0.11909 0.06194 0.0
H4558 H 0.93391 0.1382 0.04111 0.0
H4559 H 0.93483 0.13709 0.02739 0.0
C4560 C 0.76654 0.69891 0.88481 0.0
C4561 C 0.75916 0.6998 0.87636 0.0
C4562 C 0.77111 0.68953 0.86486 0.0
C4563 C 0.77888 0.6895 0.873 0.0
N4564 N 0.78471 0.69556 0.89017 0.0
N4565 N 0.75495 0.69734 0.85788 0.0
C4566 C 0.77679 0.69456 0.88284 0.0
C4567 C 0.76159 0.69547 0.86625 0.0
N4568 N 0.76365 0.70198 0.89479 0.0
N4569 N 0.77268 0.6836 0.85592 0.0
H4570 H 0.74785 0.70153 0.85861 0.0
H4571 H 0.75684 0.69546 0.85008 0.0
H4572 H 0.77955 0.67918 0.85461 0.0
H4573 H 0.76684 0.68234 0.85022 0.0
H4574 H 0.7682 0.70047 0.90151 0.0
H4575 H 0.75624 0.70525 0.89652 0.0
H4576 H 0.78405 0.70016 0.89698 0.0
H4577 H 0.79232 0.69252 0.88901 0.0
C4578 C 0.26211 0.85982 0.18932 0.0
C4579 C 0.25762 0.85958 0.17899 0.0
C4580 C 0.26999 0.87356 0.17362 0.0
C4581 C 0.27608 0.87179 0.18293 0.0
N4582 N 0.27206 0.87061 0.20154 0.0
N4583 N 0.25734 0.86643 0.16111 0.0
C4584 C 0.27061 0.86692 0.19149 0.0
C4585 C 0.26152 0.86658 0.1711 0.0
N4586 N 0.25823 0.8534 0.19711 0.0
N4587 N 0.27114 0.88283 0.16816 0.0
H4588 H 0.25113 0.86144 0.15892 0.0
H4589 H 0.26067 0.87068 0.15485 0.0
H4590 H 0.27599 0.88892 0.17096 0.0
H4591 H 0.26623 0.88501 0.16187 0.0
H4592 H 0.262 0.85252 0.20442 0.0
H4593 H 0.25168 0.84847 0.19605 0.0
H4594 H 0.26763 0.86801 0.208 0.0
H4595 H 0.27642 0.8775 0.203 0.0
C4596 C 0.94256 0.51045 0.93558 0.0
C4597 C 0.95002 0.50926 0.92723 0.0
C4598 C 0.94771 0.52802 0.92247 0.0
C4599 C 0.93965 0.52899 0.93027 0.0
N4600 N 0.92817 0.52078 0.94314 0.0
N4601 N 0.95845 0.51631 0.91161 0.0
C4602 C 0.93673 0.5201 0.93653 0.0
C4603 C 0.95224 0.51789 0.92035 0.0
N4604 N 0.9413 0.50249 0.94282 0.0
N4605 N 0.9513 0.53686 0.91732 0.0
H4606 H 0.96193 0.50901 0.90982 0.0
H4607 H 0.95944 0.52194 0.90566 0.0
H4608 H 0.94818 0.54442 0.91865 0.0
H4609 H 0.95793 0.53689 0.91241 0.0
H4610 H 0.93691 0.50331 0.94976 0.0
H4611 H 0.94533 0.49528 0.94233 0.0
H4612 H 0.9249 0.51427 0.94703 0.0
H4613 H 0.92376 0.52772 0.9441 0.0
C4614 C 0.28788 0.19954 0.66872 0.0
C4615 C 0.29511 0.20055 0.67729 0.0
C4616 C 0.28288 0.19061 0.68877 0.0
C4617 C 0.27525 0.19048 0.68048 0.0
N4618 N 0.26979 0.19624 0.66309 0.0
N4619 N 0.29896 0.19843 0.69589 0.0
C4620 C 0.27757 0.19532 0.67059 0.0
C4621 C 0.29246 0.19645 0.68744 0.0
N4622 N 0.29099 0.20238 0.65874 0.0
N4623 N 0.28111 0.18487 0.69779 0.0
H4624 H 0.3061 0.20255 0.69521 0.0
H4625 H 0.2969 0.19673 0.70369 0.0
H4626 H 0.27419 0.18052 0.69906 0.0
H4627 H 0.28683 0.18368 0.70362 0.0
H4628 H 0.28655 0.20076 0.65197 0.0
H4629 H 0.29845 0.20555 0.65708 0.0
H4630 H 0.27062 0.20069 0.6562 0.0
H4631 H 0.26213 0.19329 0.66417 0.0
C4632 C 0.10276 0.03769 0.92085 0.0
C4633 C 0.10496 0.04632 0.92773 0.0
C4634 C 0.11817 0.03547 0.93712 0.0
C4635 C 0.11527 1.02657 0.93085 0.0
N4636 N 0.10368 1.0187 0.91785 0.0
N4637 N 0.11359 0.0531 0.94337 0.0
C4638 C 0.10725 0.02755 0.92301 0.0
C4639 C 0.11236 0.04512 0.93613 0.0
N4640 N 0.09659 0.03926 0.91207 0.0
N4641 N 0.12668 0.03478 0.9438 0.0
H4642 H 0.10958 0.06032 0.94284 0.0
H4643 H 0.11793 0.05228 0.95033 0.0
H4644 H 0.13106 0.02783 0.9448 0.0
H4645 H 0.12994 0.04128 0.9477 0.0
H4646 H 0.09563 0.03362 0.90612 0.0
H4647 H 0.09314 0.04656 0.91025 0.0
H4648 H 0.09707 1.01868 0.91291 0.0
H4649 H 0.10677 1.01115 0.91921 0.0
C4650 C 0.79394 0.3605 0.36801 0.0
C4651 C 0.79556 0.35392 0.37699 0.0
C4652 C 0.7771 0.35689 0.38252 0.0
C4653 C 0.77574 0.36414 0.37401 0.0
N4654 N 0.7833 0.37419 0.35962 0.0
N4655 N 0.78935 0.34719 0.39375 0.0
C4656 C 0.78429 0.36632 0.36701 0.0
C4657 C 0.78732 0.3525 0.38453 0.0
N4658 N 0.80149 0.36093 0.36024 0.0
N4659 N 0.76854 0.35393 0.38847 0.0
H4660 H 0.79672 0.34383 0.39548 0.0
H4661 H 0.78405 0.34687 0.40008 0.0
H4662 H 0.76093 0.35695 0.38724 0.0
H4663 H 0.76876 0.34782 0.39402 0.0
H4664 H 0.8003 0.36461 0.35295 0.0
H4665 H 0.8087 0.3569 0.36074 0.0
H4666 H 0.7896 0.37697 0.35508 0.0
H4667 H 0.77635 0.37857 0.35862 0.0
C4668 C 0.95249 0.53707 0.63354 0.0
C4669 C 0.95035 0.54568 0.62661 0.0
C4670 C 0.93715 0.53485 0.6172 0.0
C4671 C 0.94 0.52596 0.62351 0.0
N4672 N 0.9515 0.5181 0.63661 0.0
N4673 N 0.9418 0.55243 0.6109 0.0
C4674 C 0.94797 0.52694 0.6314 0.0
C4675 C 0.94298 0.54448 0.61818 0.0
N4676 N 0.9586 0.53866 0.64234 0.0
N4677 N 0.92866 0.53417 0.61049 0.0
H4678 H 0.94583 0.55963 0.61142 0.0
H4679 H 0.93749 0.5516 0.60392 0.0
H4680 H 0.92426 0.52724 0.60951 0.0
H4681 H 0.92544 0.54068 0.60655 0.0
H4682 H 0.95952 0.53304 0.64832 0.0
H4683 H 0.96206 0.54595 0.64415 0.0
H4684 H 0.95808 0.51808 0.64158 0.0
H4685 H 0.9484 0.51055 0.63527 0.0
C4686 C 0.60469 0.52768 0.12709 0.0
C4687 C 0.61523 0.52812 0.12316 0.0
C4688 C 0.61535 0.50871 0.12122 0.0
C4689 C 0.60515 0.50822 0.12597 0.0
N4690 N 0.59077 0.51701 0.13499 0.0
N4691 N 0.63124 0.51906 0.11794 0.0
C4692 C 0.6 0.51766 0.12934 0.0
C4693 C 0.62074 0.51862 0.12062 0.0
N4694 N 0.59904 0.53685 0.12838 0.0
N4695 N 0.61974 0.49974 0.11699 0.0
H4696 H 0.63541 0.52617 0.11728 0.0
H4697 H 0.63603 0.51238 0.11716 0.0
H4698 H 0.61609 0.49233 0.11737 0.0
H4699 H 0.62659 0.49976 0.11238 0.0
H4700 H 0.59097 0.53703 0.13009 0.0
H4701 H 0.60222 0.54434 0.12687 0.0
H4702 H 0.58722 0.5235 0.13868 0.0
H4703 H 0.58709 0.50983 0.13679 0.0
C4704 C 0.67728 0.78835 0.85167 0.0
C4705 C 0.68153 0.7977 0.85628 0.0
C4706 C 0.68753 0.78739 0.8717 0.0
C4707 C 0.68406 0.77793 0.86667 0.0
N4708 N 0.67715 0.76911 0.8512 0.0
N4709 N 0.69205 0.80601 0.86989 0.0
C4710 C 0.67935 0.77833 0.85646 0.0
C4711 C 0.68703 0.79719 0.86609 0.0
N4712 N 0.67096 0.78908 0.84289 0.0
N4713 N 0.691 0.78704 0.88196 0.0
H4714 H 0.69177 0.81334 0.86606 0.0
H4715 H 0.69717 0.8059 0.87636 0.0
H4716 H 0.69161 0.78001 0.88626 0.0
H4717 H 0.69251 0.79378 0.88648 0.0
H4718 H 0.66666 0.78273 0.83983 0.0
H4719 H 0.66926 0.79626 0.83916 0.0
H4720 H 0.67482 0.76884 0.84329 0.0
H4721 H 0.67851 0.76163 0.85446 0.0
C4722 C 0.51876 0.43978 0.11934 0.0
C4723 C 0.52742 0.43299 0.11689 0.0
C4724 C 0.51616 0.42306 0.10447 0.0
C4725 C 0.5078 0.43041 0.10622 0.0
N4726 N 0.50153 0.44664 0.11415 0.0
N4727 N 0.53495 0.41922 0.10597 0.0
C4728 C 0.5092 0.43901 0.11335 0.0
C4729 C 0.52627 0.42491 0.10914 0.0
N4730 N 0.51957 0.44673 0.12762 0.0
N4731 N 0.51432 0.41415 0.09858 0.0
H4732 H 0.54249 0.42033 0.10919 0.0
H4733 H 0.5349 0.41405 0.09954 0.0
H4734 H 0.50704 0.41256 0.09499 0.0
H4735 H 0.5197 0.40791 0.09796 0.0
H4736 H 0.51318 0.45105 0.13057 0.0
H4737 H 0.52645 0.44756 0.13213 0.0
H4738 H 0.50255 0.45371 0.11828 0.0
H4739 H 0.49438 0.44628 0.11001 0.0
C4740 C 0.86771 0.25808 0.3652 0.0
C4741 C 0.87451 0.25743 0.35625 0.0
C4742 C 0.87791 0.27659 0.3574 0.0
C4743 C 0.8718 0.27708 0.36684 0.0
N4744 N 0.8622 0.26809 0.38069 0.0
N4745 N 0.88745 0.2656 0.34481 0.0
C4746 C 0.86706 0.26776 0.37101 0.0
C4747 C 0.88 0.26657 0.35262 0.0
N4748 N 0.86162 0.24955 0.36794 0.0
N4749 N 0.88143 0.28575 0.3528 0.0
H4750 H 0.88918 0.25841 0.34111 0.0
H4751 H 0.89255 0.2717 0.34261 0.0
H4752 H 0.88009 0.29323 0.35607 0.0
H4753 H 0.8849 0.28605 0.34532 0.0
H4754 H 0.85564 0.24987 0.37362 0.0
H4755 H 0.86197 0.24231 0.36396 0.0
H4756 H 0.85963 0.26136 0.38472 0.0
H4757 H 0.86147 0.27503 0.38512 0.0
C4758 C 0.04409 0.63362 0.61608 0.0
C4759 C 0.04552 0.63059 0.60533 0.0
C4760 C 1.02695 0.62459 0.60498 0.0
C4761 C 1.02655 0.62523 0.61619 0.0
N4762 N 0.03502 0.63023 0.63261 0.0
N4763 N 0.03534 0.63146 0.58921 0.0
C4764 C 0.03522 0.62968 0.62181 0.0
C4765 C 0.0361 0.62835 0.59954 0.0
N4766 N 0.04973 0.6419 0.62013 0.0
N4767 N 1.01864 0.62038 0.59947 0.0
H4768 H 0.04131 0.6359 0.58558 0.0
H4769 H 0.02836 0.63099 0.58482 0.0
H4770 H 1.01166 0.61783 0.60311 0.0
H4771 H 1.01903 0.61871 0.59138 0.0
H4772 H 0.0484 0.645 0.62767 0.0
H4773 H 0.05425 0.6468 0.61523 0.0
H4774 H 0.0416 0.63258 0.63703 0.0
H4775 H 0.02863 0.62752 0.63711 0.0
C4776 C 0.67514 0.27077 0.68461 0.0
C4777 C 0.68398 0.27726 0.68717 0.0
C4778 C 0.69058 0.26344 0.69922 0.0
C4779 C 0.68114 0.25752 0.69758 0.0
N4780 N 0.66367 0.25626 0.68989 0.0
N4781 N 0.69933 0.28052 0.6981 0.0
C4782 C 0.67321 0.26137 0.69057 0.0
C4783 C 0.69151 0.27379 0.69478 0.0
N4784 N 0.66874 0.27343 0.67627 0.0
N4785 N 0.69879 0.25905 0.70478 0.0
H4786 H 0.70026 0.28817 0.69508 0.0
H4787 H 0.70433 0.27889 0.70446 0.0
H4788 H 0.69844 0.25148 0.70808 0.0
H4789 H 0.70628 0.26249 0.70529 0.0
H4790 H 0.66286 0.26845 0.6733 0.0
H4791 H 0.66993 0.2802 0.67168 0.0
H4792 H 0.65716 0.25933 0.68585 0.0
H4793 H 0.66195 0.24937 0.69412 0.0
C4794 C 0.04396 0.42183 0.93822 0.0
C4795 C 0.04523 0.42462 0.94905 0.0
C4796 C 1.02653 0.43025 0.94937 0.0
C4797 C 1.02626 0.4299 0.93813 0.0
N4798 N 0.03498 0.42546 0.92169 0.0
N4799 N 0.03489 0.4231 0.96502 0.0
C4800 C 0.03507 0.42574 0.9325 0.0
C4801 C 0.0357 0.42652 0.9548 0.0
N4802 N 0.04981 0.41377 0.93402 0.0
N4803 N 1.01808 0.43416 0.9549 0.0
H4804 H 0.0409 0.41863 0.96858 0.0
H4805 H 0.02785 0.42332 0.96935 0.0
H4806 H 1.01109 0.43667 0.95125 0.0
H4807 H 1.01836 0.43563 0.96302 0.0
H4808 H 0.04862 0.41083 0.9264 0.0
H4809 H 0.05444 0.40887 0.93883 0.0
H4810 H 0.04165 0.42334 0.91727 0.0
H4811 H 0.02858 0.42816 0.91719 0.0
C4812 C 0.87964 0.78822 0.20159 0.0
C4813 C 0.87423 0.79733 0.19778 0.0
C4814 C 0.86707 0.7869 0.18295 0.0
C4815 C 0.87172 0.77761 0.1873 0.0
N4816 N 0.88108 0.76903 0.20159 0.0
N4817 N 0.86161 0.80516 0.18575 0.0
C4818 C 0.87764 0.77816 0.19686 0.0
C4819 C 0.86762 0.79663 0.18869 0.0
N4820 N 0.88693 0.78923 0.20955 0.0
N4821 N 0.86239 0.7865 0.17319 0.0
H4822 H 0.8619 0.81244 0.18967 0.0
H4823 H 0.85575 0.80482 0.17995 0.0
H4824 H 0.86172 0.77951 0.16882 0.0
H4825 H 0.8599 0.79319 0.16905 0.0
H4826 H 0.89198 0.78313 0.2119 0.0
H4827 H 0.88859 0.79645 0.21323 0.0
H4828 H 0.88439 0.76879 0.20914 0.0
H4829 H 0.87981 0.76153 0.19835 0.0
C4830 C 0.52582 0.63038 0.44379 0.0
C4831 C 0.52728 0.62158 0.43691 0.0
C4832 C 0.50941 0.61514 0.44134 0.0
C4833 C 0.50767 0.62437 0.44755 0.0
N4834 N 0.51346 0.64164 0.45332 0.0
N4835 N 0.51996 0.60648 0.42776 0.0
C4836 C 0.51567 0.63224 0.44838 0.0
C4837 C 0.51893 0.6142 0.4353 0.0
N4838 N 0.53425 0.63674 0.44623 0.0
N4839 N 0.50212 0.60712 0.44147 0.0
H4840 H 0.52682 0.6055 0.42324 0.0
H4841 H 0.51375 0.60159 0.42538 0.0
H4842 H 0.49502 0.60758 0.44568 0.0
H4843 H 0.50346 0.59971 0.4381 0.0
H4844 H 0.53401 0.64256 0.45207 0.0
H4845 H 0.5418 0.63563 0.44304 0.0
H4846 H 0.51854 0.64815 0.45319 0.0
H4847 H 0.50614 0.64327 0.45682 0.0
C4848 C 0.87227 0.68931 0.78662 0.0
C4849 C 0.86909 0.6834 0.77759 0.0
C4850 C 0.85567 0.67418 0.7883 0.0
C4851 C 0.85821 0.68075 0.79707 0.0
N4852 N 0.86787 0.69558 0.80428 0.0
N4853 N 0.85675 0.67138 0.7693 0.0
C4854 C 0.86624 0.68859 0.79616 0.0
C4855 C 0.86051 0.67614 0.77829 0.0
N4856 N 0.88124 0.69537 0.78618 0.0
N4857 N 0.84885 0.66586 0.78961 0.0
H4858 H 0.86009 0.67259 0.76184 0.0
H4859 H 0.8498 0.66694 0.76907 0.0
H4860 H 0.84512 0.6642 0.79681 0.0
H4861 H 0.84755 0.66008 0.78387 0.0
H4862 H 0.88466 0.69894 0.79279 0.0
H4863 H 0.88579 0.69617 0.77932 0.0
H4864 H 0.87273 0.70222 0.80367 0.0
H4865 H 0.86371 0.69522 0.81142 0.0
C4866 C 0.61542 0.60737 0.02999 0.0
C4867 C 0.62136 0.61661 0.02752 0.0
C4868 C 0.63075 0.61512 0.04454 0.0
C4869 C 0.62424 0.60637 0.04734 0.0
N4870 N 0.60897 0.59547 0.04364 0.0
N4871 N 0.63318 0.6305 0.03326 0.0
C4872 C 0.61616 0.60288 0.04032 0.0
C4873 C 0.6286 0.62084 0.03505 0.0
N4874 N 0.60938 0.60264 1.02234 0.0
N4875 N 0.63925 0.61772 0.05074 0.0
H4876 H 0.63174 0.63496 1.02644 0.0
H4877 H 0.63764 0.63453 0.03892 0.0
H4878 H 0.64111 0.61371 0.05773 0.0
H4879 H 0.64497 0.62324 0.04852 0.0
H4880 H 0.60582 0.59525 1.0233 0.0
H4881 H 0.60865 0.60566 1.01468 0.0
H4882 H 0.60223 0.59344 0.03932 0.0
H4883 H 0.6092 0.59206 0.05117 0.0
C4884 C 0.68321 0.37904 0.28537 0.0
C4885 C 0.68899 0.37509 0.27656 0.0
C4886 C 0.70554 0.3788 0.2861 0.0
C4887 C 0.6997 0.38052 0.2956 0.0
N4888 N 0.68437 0.39097 0.30016 0.0
N4889 N 0.7059 0.37127 0.26845 0.0
C4890 C 0.68879 0.38304 0.2943 0.0
C4891 C 0.70024 0.37499 0.2769 0.0
N4892 N 0.67239 0.37905 0.28524 0.0
N4893 N 0.71569 0.38247 0.28535 0.0
H4894 H 0.70235 0.36871 0.26144 0.0
H4895 H 0.71407 0.37 0.26877 0.0
H4896 H 0.71912 0.38698 0.29139 0.0
H4897 H 0.72005 0.38239 0.27834 0.0
H4898 H 0.66789 0.38102 0.29189 0.0
H4899 H 0.66798 0.37627 0.27881 0.0
H4900 H 0.67666 0.39373 0.29894 0.0
H4901 H 0.68904 0.39598 0.30481 0.0
C4902 C 0.93779 0.43957 0.5461 0.0
C4903 C 0.93059 0.44819 0.54696 0.0
C4904 C 0.9265 0.44671 0.52797 0.0
C4905 C 0.93304 0.43756 0.52731 0.0
N4906 N 0.94367 0.42426 0.536 0.0
N4907 N 0.91679 0.45894 0.53922 0.0
C4908 C 0.93835 0.43371 0.53646 0.0
C4909 C 0.92458 0.45147 0.53802 0.0
N4910 N 0.94435 0.4372 0.5544 0.0
N4911 N 0.9224 0.45106 0.51892 0.0
H4912 H 0.91517 0.46262 0.54645 0.0
H4913 H 0.91135 0.46084 0.53331 0.0
H4914 H 0.92361 0.44779 0.51142 0.0
H4915 H 0.91856 0.45837 0.51871 0.0
H4916 H 0.95059 0.43181 0.55389 0.0
H4917 H 0.94409 0.44123 0.56162 0.0
H4918 H 0.9467 0.42042 0.54265 0.0
H4919 H 0.94434 0.41981 0.52907 0.0
C4920 C 0.86696 0.38346 0.76028 0.0
C4921 C 0.85604 0.38098 0.75901 0.0
C4922 C 0.85554 0.37551 0.77773 0.0
C4923 C 0.86679 0.37557 0.77804 0.0
N4924 N 0.88338 0.37945 0.76932 0.0
N4925 N 0.84009 0.38304 0.7693 0.0
C4926 C 0.87255 0.37947 0.76921 0.0
C4927 C 0.85022 0.37931 0.76853 0.0
N4928 N 0.87139 0.39135 0.75437 0.0
N4929 N 0.84989 0.37182 0.78619 0.0
H4930 H 0.83666 0.38756 0.76327 0.0
H4931 H 0.83575 0.38299 0.77633 0.0
H4932 H 0.85346 0.36924 0.7932 0.0
H4933 H 0.84172 0.37058 0.7859 0.0
H4934 H 0.8791 0.39408 0.75556 0.0
H4935 H 0.86672 0.39635 0.74971 0.0
H4936 H 0.88787 0.38137 0.76265 0.0
H4937 H 0.88779 0.37669 0.77575 0.0
C4938 C 0.93708 0.6218 1.01713 0.0
C4939 C 0.93331 0.61695 1.02656 0.0
C4940 C 0.92626 0.60208 1.01613 0.0
C4941 C 0.93081 0.60649 1.00683 0.0
N4942 N 0.94189 0.61972 0.99862 0.0
N4943 N 0.92579 0.60173 0.03535 0.0
C4944 C 0.93659 0.61614 1.00737 0.0
C4945 C 0.9283 0.60687 1.02614 0.0
N4946 N 0.94084 0.63197 1.01747 0.0
N4947 N 0.9197 0.59348 1.01534 0.0
H4948 H 0.92712 0.60501 0.04282 0.0
H4949 H 0.92322 0.5939 0.03563 0.0
H4950 H 0.91802 0.58975 1.00816 0.0
H4951 H 0.91521 0.59059 1.02163 0.0
H4952 H 0.9426 0.63639 1.01073 0.0
H4953 H 0.94144 0.63631 1.02448 0.0
H4954 H 0.9472 0.62603 0.99878 0.0
H4955 H 0.94164 0.61585 0.99132 0.0
C4956 C 0.68691 0.69122 0.26927 0.0
C4957 C 0.68757 0.68325 0.27719 0.0
C4958 C 0.698 0.67205 0.26512 0.0
C4959 C 0.69818 0.6804 0.25758 0.0
N4960 N 0.69411 0.69851 0.25298 0.0
N4961 N 0.69508 0.66677 0.28337 0.0
C4962 C 0.69298 0.69015 0.25979 0.0
C4963 C 0.69347 0.67383 0.2753 0.0
N4964 N 0.68023 0.69965 0.27066 0.0
N4965 N 0.70194 0.6623 0.26243 0.0
H4966 H 0.69193 0.6678 0.29094 0.0
H4967 H 0.70026 0.66036 0.28284 0.0
H4968 H 0.70538 0.66072 0.25507 0.0
H4969 H 0.701 0.65557 0.2671 0.0
H4970 H 0.6785 0.70512 0.26472 0.0
H4971 H 0.6757 0.70071 0.27749 0.0
H4972 H 0.69155 0.70617 0.25471 0.0
H4973 H 0.69835 0.69799 0.2459 0.0
C4974 C 0.61842 0.43827 0.50794 0.0
C4975 C 0.6242 0.44792 0.50742 0.0
C4976 C 0.62667 0.44753 0.52674 0.0
C4977 C 0.62165 0.43747 0.52714 0.0
N4978 N 0.61411 0.42246 0.51803 0.0
N4979 N 0.63531 0.46091 0.51596 0.0
C4980 C 0.61789 0.43261 0.51771 0.0
C4981 C 0.62874 0.45232 0.51673 0.0
N4982 N 0.61315 0.4347 0.49917 0.0
N4983 N 0.62917 0.45267 0.53595 0.0
H4984 H 0.63701 0.46465 0.50878 0.0
H4985 H 0.6398 0.46379 0.52226 0.0
H4986 H 0.62782 0.4494 0.54342 0.0
H4987 H 0.63175 0.4605 0.53624 0.0
H4988 H 0.60783 0.42838 0.49931 0.0
H4989 H 0.61344 0.43856 0.49187 0.0
H4990 H 0.61237 0.41803 0.51129 0.0
H4991 H 0.61349 0.41812 0.52504 0.0
C4992 C 0.7869 0.86927 0.68988 0.0
C4993 C 0.77841 0.86729 0.68275 0.0
C4994 C 0.7899 0.85548 0.67233 0.0
C4995 C 0.79805 0.85669 0.67999 0.0
N4996 N 0.80391 0.86354 0.69684 0.0
N4997 N 0.77121 0.8573 0.66813 0.0
C4998 C 0.79645 0.86328 0.68899 0.0
C4999 C 0.77975 0.86007 0.67422 0.0
N5000 N 0.78594 0.87711 0.69731 0.0
N5001 N 0.79195 0.85017 0.66311 0.0
H5002 H 0.76365 0.86047 0.66926 0.0
H5003 H 0.77138 0.85122 0.66256 0.0
H5004 H 0.79927 0.84666 0.66148 0.0
H5005 H 0.78674 0.85 0.65671 0.0
H5006 H 0.79223 0.87974 0.70197 0.0
H5007 H 0.77906 0.88161 0.69824 0.0
H5008 H 0.80271 0.8672 0.70413 0.0
H5009 H 0.81105 0.85938 0.69641 0.0
C5010 C 0.28648 0.68496 0.36489 0.0
C5011 C 0.2779 0.68723 0.37183 0.0
C5012 C 0.28931 0.69932 0.382 0.0
C5013 C 0.29756 0.6978 0.3745 0.0
N5014 N 0.3036 0.69036 0.35797 0.0
N5015 N 0.27055 0.69775 0.386 0.0
C5016 C 0.29604 0.69093 0.36571 0.0
C5017 C 0.27916 0.69473 0.38013 0.0
N5018 N 0.28559 0.67687 0.35773 0.0
N5019 N 0.29126 0.70491 0.39107 0.0
H5020 H 0.263 0.69459 0.38487 0.0
H5021 H 0.27068 0.70402 0.39137 0.0
H5022 H 0.29858 0.70841 0.3927 0.0
H5023 H 0.28597 0.70533 0.39739 0.0
H5024 H 0.29193 0.67404 0.35325 0.0
H5025 H 0.2787 0.67238 0.35685 0.0
H5026 H 0.30248 0.68646 0.35079 0.0
H5027 H 0.31075 0.6945 0.35835 0.0
C5028 C 0.61752 0.04691 0.61895 0.0
C5029 C 0.607 0.0473 0.62296 0.0
C5030 C 0.60652 0.02782 0.62363 0.0
C5031 C 0.61732 1.02747 0.62048 0.0
N5032 N 0.63364 0.03662 0.6166 0.0
N5033 N 0.59203 0.03831 0.63073 0.0
C5034 C 0.62298 0.03701 0.61854 0.0
C5035 C 0.60164 0.0378 0.62574 0.0
N5036 N 0.62218 0.05596 0.61522 0.0
N5037 N 0.60082 1.01862 0.62431 0.0
H5038 H 0.58821 0.04546 0.63242 0.0
H5039 H 0.58825 0.03175 0.63401 0.0
H5040 H 0.60414 1.01117 0.6229 0.0
H5041 H 0.59264 1.01841 0.62541 0.0
H5042 H 0.62935 0.05604 0.61113 0.0
H5043 H 0.61847 0.06335 0.61546 0.0
H5044 H 0.63846 0.04332 0.61631 0.0
H5045 H 0.63787 0.02953 0.61609 0.0
C5046 C 0.25778 0.3663 0.86693 0.0
C5047 C 0.25704 0.35724 0.87358 0.0
C5048 C 0.2762 0.35815 0.87705 0.0
C5049 C 0.27679 0.36768 0.8711 0.0
N5050 N 0.26796 0.38177 0.86166 0.0
N5051 N 0.26507 0.34552 0.88636 0.0
C5052 C 0.26752 0.37202 0.86638 0.0
C5053 C 0.26613 0.35344 0.87904 0.0
N5054 N 0.24928 0.36922 0.86087 0.0
N5055 N 0.28531 0.35341 0.88054 0.0
H5056 H 0.25784 0.34186 0.88801 0.0
H5057 H 0.27115 0.34317 0.89144 0.0
H5058 H 0.29283 0.35663 0.87928 0.0
H5059 H 0.28553 0.34587 0.88389 0.0
H5060 H 0.24966 0.37499 0.85498 0.0
H5061 H 0.242 0.36531 0.86114 0.0
H5062 H 0.26127 0.38591 0.85912 0.0
H5063 H 0.27495 0.38613 0.861 0.0
C5064 C 0.43882 0.51093 0.63364 0.0
C5065 C 0.44934 0.50945 0.62986 0.0
C5066 C 0.44908 0.52782 0.62326 0.0
C5067 C 0.43793 0.52819 0.62473 0.0
N5068 N 0.422 0.51979 0.6312 0.0
N5069 N 0.46538 0.51977 0.62926 0.0
C5070 C 0.43274 0.51964 0.62986 0.0
C5071 C 0.45486 0.51883 0.6269 0.0
N5072 N 0.43545 0.50553 0.64237 0.0
N5073 N 0.4542 0.53604 0.61841 0.0
H5074 H 0.46937 0.51401 0.63368 0.0
H5075 H 0.46966 0.52676 0.62824 0.0
H5076 H 0.45033 0.54293 0.61595 0.0
H5077 H 0.46215 0.53562 0.61615 0.0
H5078 H 0.42815 0.50693 0.64599 0.0
H5079 H 0.44073 0.50112 0.64698 0.0
H5080 H 0.41782 0.51326 0.63409 0.0
H5081 H 0.41724 0.52605 0.62862 0.0
C5082 C 0.75855 0.18818 0.18432 0.0
C5083 C 0.75812 0.19873 0.18042 0.0
C5084 C 0.7776 0.19933 0.17981 0.0
C5085 C 0.778 0.1885 0.18288 0.0
N5086 N 0.76893 0.1721 0.18656 0.0
N5087 N 0.76705 0.21382 0.17281 0.0
C5088 C 0.76849 0.18278 0.18472 0.0
C5089 C 0.76761 0.20417 0.17771 0.0
N5090 N 0.74951 0.18344 0.18797 0.0
N5091 N 0.78678 0.20507 0.1792 0.0
H5092 H 0.75989 0.21762 0.17113 0.0
H5093 H 0.7736 0.21767 0.16959 0.0
H5094 H 0.79424 0.20178 0.18059 0.0
H5095 H 0.78695 0.21326 0.17817 0.0
H5096 H 0.74946 0.17623 0.19199 0.0
H5097 H 0.7421 0.1871 0.18773 0.0
H5098 H 0.76225 0.16724 0.18678 0.0
H5099 H 0.77604 0.16791 0.18707 0.0
C5100 C 0.61502 1.00825 0.93754 0.0
C5101 C 0.60659 1.00737 0.93014 0.0
C5102 C 0.60821 1.02634 0.92596 0.0
C5103 C 0.61719 1.02702 0.93272 0.0
N5104 N 0.6302 1.01835 0.94371 0.0
N5105 N 0.59623 1.01503 0.91602 0.0
C5106 C 0.62089 1.01789 0.93818 0.0
C5107 C 0.60348 1.01627 0.92398 0.0
N5108 N 0.61721 0.99999 0.94421 0.0
N5109 N 0.60398 0.03537 0.92169 0.0
H5110 H 0.59258 1.0078 0.91436 0.0
H5111 H 0.59448 1.02091 0.9105 0.0
H5112 H 0.60723 0.04287 0.92293 0.0
H5113 H 0.59678 0.03557 0.91766 0.0
H5114 H 0.62244 1.00053 0.95057 0.0
H5115 H 0.61317 0.99278 0.9439 0.0
H5116 H 0.63396 1.01171 0.94688 0.0
H5117 H 0.63466 1.02528 0.94443 0.0
C5118 C 0.93233 0.03722 0.43818 0.0
C5119 C 0.93638 0.0279 0.43333 0.0
C5120 C 0.9506 0.03834 0.42506 0.0
C5121 C 0.9471 0.04747 0.43063 0.0
N5122 N 0.93557 0.05539 0.44366 0.0
N5123 N 0.95025 1.01916 0.42349 0.0
C5124 C 0.9382 0.04686 0.43751 0.0
C5125 C 0.94577 0.02834 0.42713 0.0
N5126 N 0.9227 0.03693 0.44316 0.0
N5127 N 0.95836 0.03928 0.41755 0.0
H5128 H 0.94693 1.0117 0.42481 0.0
H5129 H 0.9577 1.01882 0.41995 0.0
H5130 H 0.96211 0.04645 0.41583 0.0
H5131 H 0.96047 0.03318 0.41239 0.0
H5132 H 0.91874 0.04367 0.44582 0.0
H5133 H 0.91825 0.03001 0.44392 0.0
H5134 H 0.92994 0.0551 0.44969 0.0
H5135 H 0.9396 0.06261 0.4433 0.0
C5136 C 0.37347 0.25887 0.18751 0.0
C5137 C 0.37108 0.25742 0.19842 0.0
C5138 C 0.3657 0.27613 0.19939 0.0
C5139 C 0.37056 0.27803 0.18943 0.0
N5140 N 0.37884 0.27098 0.17365 0.0
N5141 N 0.35712 0.26293 0.21023 0.0
C5142 C 0.37441 0.26933 0.18338 0.0
C5143 C 0.36491 0.26556 0.20321 0.0
N5144 N 0.37266 0.25051 0.18072 0.0
N5145 N 0.36206 0.28439 0.20537 0.0
H5146 H 0.35521 0.25503 0.21181 0.0
H5147 H 0.35171 0.26841 0.21324 0.0
H5148 H 0.3625 0.29227 0.20289 0.0
H5149 H 0.35942 0.28342 0.21314 0.0
H5150 H 0.37346 0.25123 0.17253 0.0
H5151 H 0.36937 0.24331 0.18314 0.0
H5152 H 0.38273 0.26499 0.16948 0.0
H5153 H 0.37921 0.27843 0.17008 0.0
C5154 C 0.53865 0.63581 0.94825 0.0
C5155 C 0.54601 0.62733 0.949 0.0
C5156 C 0.53407 0.61601 0.93855 0.0
C5157 C 0.5263 0.62417 0.93866 0.0
N5158 N 0.52048 0.64125 0.945 0.0
N5159 N 0.55021 0.60887 0.94625 0.0
C5160 C 0.5284 0.63393 0.94388 0.0
C5161 C 0.54358 0.61729 0.94451 0.0
N5162 N 0.54155 0.64574 0.95147 0.0
N5163 N 0.53251 0.60718 0.93246 0.0
H5164 H 0.5573 0.60952 0.95046 0.0
H5165 H 0.5483 0.6011 0.94424 0.0
H5166 H 0.52564 0.60595 0.92801 0.0
H5167 H 0.53834 0.60149 0.93111 0.0
H5168 H 0.537 0.6525 0.95008 0.0
H5169 H 0.54896 0.64741 0.95476 0.0
H5170 H 0.52115 0.648 0.94971 0.0
H5171 H 0.51287 0.64016 0.94195 0.0
C5172 C 0.18718 0.78584 0.68603 0.0
C5173 C 0.18181 0.7767 0.68981 0.0
C5174 C 0.17277 0.78755 0.70325 0.0
C5175 C 0.17884 0.79648 0.70008 0.0
N5176 N 0.19292 0.80388 0.68949 0.0
N5177 N 0.17075 0.76842 0.70301 0.0
C5178 C 0.18635 0.79556 0.69173 0.0
C5179 C 0.17494 0.77744 0.6987 0.0
N5180 N 0.19283 0.7853 0.67679 0.0
N5181 N 0.16472 0.7888 0.7104 0.0
H5182 H 0.17213 0.76088 0.6999 0.0
H5183 H 0.16665 0.76828 0.71017 0.0
H5184 H 0.16292 0.79606 0.71392 0.0
H5185 H 0.15926 0.78287 0.71219 0.0
H5186 H 0.19595 0.79192 0.67298 0.0
H5187 H 0.19371 0.7783 0.67247 0.0
H5188 H 0.19935 0.80334 0.68434 0.0
H5189 H 0.19246 0.81116 0.6934 0.0
C5190 C 1.0256 0.43774 0.44937 0.0
C5191 C 0.0283 0.43202 0.44006 0.0
C5192 C 1.01138 0.42238 0.44108 0.0
C5193 C 1.00836 0.42867 0.44991 0.0
N5194 N 1.01167 0.44375 0.46119 0.0
N5195 N 1.02297 0.4204 0.42586 0.0
C5196 C 1.01521 0.43677 0.45369 0.0
C5197 C 1.02095 0.42477 0.43556 0.0
N5198 N 0.03309 0.4438 0.45434 0.0
N5199 N 1.00533 0.41387 0.43819 0.0
H5200 H 0.02984 0.42201 0.42155 0.0
H5201 H 1.01743 0.41595 0.42164 0.0
H5202 H 0.99828 0.41186 0.44203 0.0
H5203 H 1.00771 0.4083 0.43259 0.0
H5204 H 0.03197 0.44719 0.46178 0.0
H5205 H 0.04079 0.4447 0.45145 0.0
H5206 H 1.01586 0.4505 0.46345 0.0
H5207 H 1.00409 0.44334 0.46449 0.0
C5208 C 0.37331 0.79685 0.36818 0.0
C5209 C 0.3707 0.79837 0.35733 0.0
C5210 C 0.36482 0.77982 0.35649 0.0
C5211 C 0.36987 0.77778 0.36633 0.0
N5212 N 0.37872 0.78459 0.38189 0.0
N5213 N 0.35636 0.79325 0.34581 0.0
C5214 C 0.37409 0.78636 0.37228 0.0
C5215 C 0.36422 0.79041 0.35268 0.0
N5216 N 0.37285 0.80522 0.375 0.0
N5217 N 0.36082 0.77166 0.3506 0.0
H5218 H 0.35464 0.8012 0.34424 0.0
H5219 H 0.35074 0.78793 0.34292 0.0
H5220 H 0.3611 0.76377 0.35307 0.0
H5221 H 0.35802 0.7727 0.34289 0.0
H5222 H 0.37383 0.80446 0.38317 0.0
H5223 H 0.36963 0.81249 0.37267 0.0
H5224 H 0.38286 0.79047 0.38597 0.0
H5225 H 0.379 0.77712 0.38545 0.0
C5226 C 1.01944 0.62399 0.11982 0.0
C5227 C 0.02882 0.62405 0.11359 0.0
C5228 C 1.01823 0.62773 0.09766 0.0
C5229 C 1.00879 0.62678 0.10373 0.0
N5230 N 1.00025 0.62247 0.12027 0.0
N5231 N 0.03714 0.62437 0.0964 0.0
C5232 C 1.00935 0.62449 0.11474 0.0
C5233 C 0.02821 0.62547 0.10245 0.0
N5234 N 1.02019 0.62374 0.13063 0.0
N5235 N 1.01767 0.63114 0.08739 0.0
H5236 H 0.0446 0.62282 0.09963 0.0
H5237 H 0.03705 0.62412 0.08816 0.0
H5238 H 1.01052 0.63289 0.0836 0.0
H5239 H 1.0243 0.63312 0.08288 0.0
H5240 H 1.01375 0.62488 0.13567 0.0
H5241 H 1.02742 0.62319 0.13462 0.0
H5242 H 1.00017 0.61961 0.12801 0.0
H5243 H 0.99273 0.62285 0.11684 0.0
C5244 C 0.18099 0.25802 0.86749 0.0
C5245 C 0.18419 0.25636 0.85682 0.0
C5246 C 0.19053 0.27477 0.85622 0.0
C5247 C 0.18497 0.277 0.86573 0.0
N5248 N 0.1751 0.2705 0.88081 0.0
N5249 N 0.19935 0.26107 0.8462 0.0
C5250 C 0.18023 0.26855 0.87148 0.0
C5251 C 0.19113 0.26414 0.85253 0.0
N5252 N 0.18082 0.24968 0.87436 0.0
N5253 N 0.19505 0.28279 0.85052 0.0
H5254 H 0.20102 0.25307 0.84485 0.0
H5255 H 0.20525 0.26625 0.84364 0.0
H5256 H 0.19479 0.2907 0.85291 0.0
H5257 H 0.19827 0.28162 0.843 0.0
H5258 H 0.1794 0.25051 0.88246 0.0
H5259 H 0.18391 0.2423 0.87224 0.0
H5260 H 0.1706 0.26474 0.88468 0.0
H5261 H 0.17481 0.27798 0.88431 0.0
C5262 C 0.53828 0.41901 0.60461 0.0
C5263 C 0.5457 0.42745 0.60398 0.0
C5264 C 0.53362 0.43884 0.61423 0.0
C5265 C 0.52582 0.43072 0.614 0.0
N5266 N 0.52004 0.41366 0.60757 0.0
N5267 N 0.54992 0.44588 0.60681 0.0
C5268 C 0.52797 0.42095 0.60881 0.0
C5269 C 0.54323 0.4375 0.60842 0.0
N5270 N 0.5412 0.40906 0.60144 0.0
N5271 N 0.53198 0.44769 0.62027 0.0
H5272 H 0.55708 0.44519 0.60272 0.0
H5273 H 0.54801 0.45367 0.60878 0.0
H5274 H 0.52504 0.44896 0.62459 0.0
H5275 H 0.53781 0.45335 0.62171 0.0
H5276 H 0.5366 0.40233 0.60276 0.0
H5277 H 0.54865 0.40735 0.59827 0.0
H5278 H 0.52076 0.40691 0.60287 0.0
H5279 H 0.51239 0.4148 0.61049 0.0
C5280 C 0.19451 0.38324 0.2758 0.0
C5281 C 0.19008 0.37316 0.27815 0.0
C5282 C 0.19675 0.36625 0.2612 0.0
C5283 C 0.20043 0.37654 0.2585 0.0
N5284 N 0.20135 0.39522 0.26239 0.0
N5285 N 0.18545 0.35551 0.27247 0.0
C5286 C 0.19888 0.38516 0.26557 0.0
C5287 C 0.19078 0.36477 0.27067 0.0
N5288 N 0.19489 0.39088 0.28348 0.0
N5289 N 0.19925 0.35781 0.25486 0.0
H5290 H 0.18103 0.35413 0.27932 0.0
H5291 H 0.18467 0.34953 0.26683 0.0
H5292 H 0.20348 0.35859 0.2478 0.0
H5293 H 0.19788 0.34995 0.25698 0.0
H5294 H 0.19904 0.39797 0.28266 0.0
H5295 H 0.19181 0.38978 0.29108 0.0
H5296 H 0.19933 0.40198 0.26669 0.0
H5297 H 0.20464 0.39691 0.255 0.0
C5298 C 0.43731 0.43647 1.01926 0.0
C5299 C 0.43161 0.43994 0.02833 0.0
C5300 C 0.42226 0.45314 1.01745 0.0
C5301 C 0.42864 0.45032 1.00862 0.0
N5302 N 0.4433 0.44038 1.0014 0.0
N5303 N 0.41986 0.45261 0.03652 0.0
C5304 C 0.43646 0.44226 1.0096 0.0
C5305 C 0.4244 0.44856 0.02755 0.0
N5306 N 0.4433 0.42744 1.01981 0.0
N5307 N 0.41395 0.45999 1.01612 0.0
H5308 H 0.42121 0.44947 0.04405 0.0
H5309 H 0.41546 0.4596 0.03665 0.0
H5310 H 0.41216 0.46352 1.00886 0.0
H5311 H 0.4083 0.46148 1.02194 0.0
H5312 H 0.4467 0.42383 1.01321 0.0
H5313 H 0.44419 0.42305 1.02676 0.0
H5314 H 0.44991 0.43548 1.00202 0.0
H5315 H 0.44284 0.44436 0.99417 0.0
C5316 C 0.35114 0.67353 0.76769 0.0
C5317 C 0.35528 0.67852 0.75849 0.0
C5318 C 0.37008 0.68566 0.76898 0.0
C5319 C 0.36543 0.68144 0.77833 0.0
N5320 N 0.35073 0.67275 0.7869 0.0
N5321 N 0.36779 0.69056 0.75052 0.0
C5322 C 0.35573 0.67575 0.77777 0.0
C5323 C 0.36452 0.68492 0.75917 0.0
N5324 N 0.34302 0.66642 0.76675 0.0
N5325 N 0.37996 0.69009 0.76944 0.0
H5326 H 0.36401 0.69012 0.74318 0.0
H5327 H 0.37373 0.69628 0.75079 0.0
H5328 H 0.38421 0.69088 0.77649 0.0
H5329 H 0.3843 0.69224 0.76276 0.0
H5330 H 0.34041 0.66164 0.77295 0.0
H5331 H 0.33944 0.66461 0.75952 0.0
H5332 H 0.34309 0.66963 0.78709 0.0
H5333 H 0.35385 0.67419 0.79442 0.0
C5334 C 0.12303 0.61742 0.50839 0.0
C5335 C 0.12059 0.60654 0.5068 0.0
C5336 C 0.11494 0.60543 0.5254 0.0
C5337 C 0.11986 0.61534 0.52747 0.0
N5338 N 0.12834 0.63113 0.5207 0.0
N5339 N 0.10648 0.59476 0.51198 0.0
C5340 C 0.12386 0.62144 0.5189 0.0
C5341 C 0.11427 0.60172 0.51479 0.0
N5342 N 0.12238 0.62431 0.50009 0.0
N5343 N 0.11114 0.5994 0.53354 0.0
H5344 H 0.10468 0.59327 0.50405 0.0
H5345 H 0.10097 0.59174 0.51735 0.0
H5346 H 0.11148 0.60181 0.54145 0.0
H5347 H 0.10845 0.59166 0.53247 0.0
H5348 H 0.12322 0.63249 0.50091 0.0
H5349 H 0.11916 0.62198 0.49283 0.0
H5350 H 0.13234 0.63533 0.51481 0.0
H5351 H 0.12864 0.63462 0.52819 0.0
C5352 C 0.19047 0.68458 0.29569 0.0
C5353 C 0.20031 0.6791 0.29624 0.0
C5354 C 0.20044 0.67733 0.27684 0.0
C5355 C 0.19021 0.68201 0.27637 0.0
N5356 N 0.17474 0.68873 0.28538 0.0
N5357 N 0.21388 0.66876 0.28762 0.0
C5358 C 0.18502 0.68527 0.28581 0.0
C5359 C 0.20508 0.67506 0.28688 0.0
N5360 N 0.18651 0.68941 0.30455 0.0
N5361 N 0.20586 0.67532 0.26766 0.0
H5362 H 0.21752 0.66693 0.29482 0.0
H5363 H 0.21707 0.66461 0.28123 0.0
H5364 H 0.20271 0.67683 0.26017 0.0
H5365 H 0.21379 0.67301 0.26746 0.0
H5366 H 0.18002 0.69451 0.30444 0.0
H5367 H 0.19022 0.68898 0.31193 0.0
H5368 H 0.17011 0.69008 0.29207 0.0
H5369 H 0.17055 0.68947 0.27829 0.0
C5370 C 0.13636 0.44971 0.03813 0.0
C5371 C 0.12788 0.45075 0.04546 0.0
C5372 C 0.11618 0.44093 0.03334 0.0
C5373 C 0.12438 0.44078 1.02562 0.0
N5374 N 0.14175 0.44645 1.01997 0.0
N5375 N 0.1093 0.44875 0.04951 0.0
C5376 C 0.13434 0.44555 0.02783 0.0
C5377 C 0.11767 0.44673 0.04292 0.0
N5378 N 0.14641 0.45246 0.04113 0.0
N5379 N 0.10711 0.43525 0.03165 0.0
H5380 H 0.11009 0.45285 0.05665 0.0
H5381 H 0.10145 0.4471 0.04754 0.0
H5382 H 0.10572 0.43095 1.02473 0.0
H5383 H 0.10133 0.43408 0.03743 0.0
H5384 H 0.15312 0.45083 0.0366 0.0
H5385 H 0.14817 0.45559 0.04858 0.0
H5386 H 0.14869 0.45085 1.02073 0.0
H5387 H 0.14056 0.44354 1.01232 0.0
C5388 C 0.35606 0.36747 0.77901 0.0
C5389 C 0.36497 0.37372 0.77612 0.0
C5390 C 0.36331 0.38376 0.79275 0.0
C5391 C 0.35494 0.37696 0.79599 0.0
N5392 N 0.34472 0.36106 0.79315 0.0
N5393 N 0.37835 0.38644 0.78108 0.0
C5394 C 0.35172 0.36843 0.78939 0.0
C5395 C 0.36896 0.38148 0.78324 0.0
N5396 N 0.35149 0.36089 0.77171 0.0
N5397 N 0.3656 0.39263 0.79855 0.0
H5398 H 0.38276 0.38493 0.77424 0.0
H5399 H 0.38225 0.39133 0.78647 0.0
H5400 H 0.36165 0.39458 0.80554 0.0
H5401 H 0.37079 0.39851 0.79598 0.0
H5402 H 0.34431 0.35703 0.77296 0.0
H5403 H 0.3544 0.35998 0.76403 0.0
H5404 H 0.34294 0.35405 0.78916 0.0
H5405 H 0.34143 0.36144 0.80072 0.0
C5406 C 0.43296 0.61704 0.54668 0.0
C5407 C 0.43467 0.60597 0.5479 0.0
C5408 C 0.43967 0.605 0.52911 0.0
C5409 C 0.43544 0.6153 0.52746 0.0
N5410 N 0.42831 0.63146 0.53492 0.0
N5411 N 0.4478 0.59342 0.54196 0.0
C5412 C 0.43213 0.62142 0.53632 0.0
C5413 C 0.44039 0.60094 0.53958 0.0
N5414 N 0.43432 0.62362 0.55515 0.0
N5415 N 0.44279 0.59895 0.52069 0.0
H5416 H 0.4498 0.59164 0.54979 0.0
H5417 H 0.45292 0.59018 0.53633 0.0
H5418 H 0.4424 0.60161 0.51287 0.0
H5419 H 0.44493 0.591 0.52148 0.0
H5420 H 0.43406 0.63186 0.55458 0.0
H5421 H 0.4375 0.62085 0.56227 0.0
H5422 H 0.42479 0.63576 0.54104 0.0
H5423 H 0.42804 0.63518 0.52754 0.0
C5424 C 0.26046 0.19306 0.36709 0.0
C5425 C 0.2583 0.19798 0.37698 0.0
C5426 C 0.27628 0.19363 0.38311 0.0
C5427 C 0.27816 0.18799 0.37354 0.0
N5428 N 0.27149 0.1808 0.35715 0.0
N5429 N 0.26338 0.20145 0.39506 0.0
C5430 C 0.27009 0.18727 0.36573 0.0
C5431 C 0.266 0.19783 0.38518 0.0
N5432 N 0.25349 0.19421 0.35888 0.0
N5433 N 0.28445 0.19532 0.39004 0.0
H5434 H 0.25594 0.2046 0.39686 0.0
H5435 H 0.26823 0.20051 0.40167 0.0
H5436 H 0.29209 0.19241 0.38879 0.0
H5437 H 0.2839 0.20035 0.39656 0.0
H5438 H 0.25515 0.19186 0.35114 0.0
H5439 H 0.24632 0.19828 0.35959 0.0
H5440 H 0.26548 0.17901 0.35178 0.0
H5441 H 0.27843 0.17648 0.35586 0.0
C5442 C 0.7793 0.3543 0.67621 0.0
C5443 C 0.77988 0.36468 0.68053 0.0
C5444 C 0.76049 0.36491 0.68269 0.0
C5445 C 0.75986 0.35488 0.6776 0.0
N5446 N 0.76841 0.34078 0.66793 0.0
N5447 N 0.77103 0.38058 0.6864 0.0
C5448 C 0.7692 0.34979 0.67391 0.0
C5449 C 0.77047 0.37019 0.68336 0.0
N5450 N 0.78841 0.34863 0.6746 0.0
N5451 N 0.75162 0.36923 0.68718 0.0
H5452 H 0.77818 0.38467 0.6871 0.0
H5453 H 0.7644 0.3854 0.68743 0.0
H5454 H 0.74417 0.36566 0.68674 0.0
H5455 H 0.75176 0.3759 0.69203 0.0
H5456 H 0.78849 0.34063 0.67258 0.0
H5457 H 0.79594 0.35168 0.67614 0.0
H5458 H 0.77481 0.33732 0.66403 0.0
H5459 H 0.76116 0.33723 0.6661 0.0
C5460 C 0.44118 1.00962 0.43413 0.0
C5461 C 0.45037 1.00901 0.42766 0.0
C5462 C 0.44967 0.02828 0.42481 0.0
C5463 C 0.44 0.02875 0.43056 0.0
N5464 N 0.42564 1.01972 0.43935 0.0
N5465 N 0.46243 1.01736 0.41542 0.0
C5466 C 0.4355 1.01937 0.43486 0.0
C5467 C 0.45436 1.01824 0.4226 0.0
N5468 N 0.43807 1.00096 0.43986 0.0
N5469 N 0.45454 0.03746 0.42173 0.0
H5470 H 0.46607 1.01015 0.4136 0.0
H5471 H 0.46493 1.02358 0.4106 0.0
H5472 H 0.45133 0.04495 0.42318 0.0
H5473 H 0.46215 0.03773 0.41856 0.0
H5474 H 0.43217 1.0012 0.44563 0.0
H5475 H 0.44196 0.99366 0.43946 0.0
H5476 H 0.4214 1.01299 0.44156 0.0
H5477 H 0.42129 1.02673 0.44013 0.0
C5478 C 0.78671 0.70597 0.17668 0.0
C5479 C 0.79622 0.70026 0.1787 0.0
C5480 C 0.78579 0.68429 0.18273 0.0
C5481 C 0.7763 0.69025 0.18158 0.0
N5482 N 0.76765 0.70712 0.17908 0.0
N5483 N 0.80489 0.68449 0.18514 0.0
C5484 C 0.77674 0.7012 0.17901 0.0
C5485 C 0.79578 0.68954 0.18213 0.0
N5486 N 0.78721 0.71584 0.17221 0.0
N5487 N 0.78525 0.67355 0.18409 0.0
H5488 H 0.81235 0.68804 0.18473 0.0
H5489 H 0.805 0.6771 0.18882 0.0
H5490 H 0.77809 0.66945 0.18472 0.0
H5491 H 0.79184 0.66858 0.18378 0.0
H5492 H 0.78059 0.71994 0.16947 0.0
H5493 H 0.79435 0.71959 0.17038 0.0
H5494 H 0.76756 0.71535 0.17844 0.0
H5495 H 0.7602 0.7039 0.18066 0.0
C5496 C 0.60664 0.53874 0.41899 0.0
C5497 C 0.60562 0.54607 0.42745 0.0
C5498 C 0.61575 0.5341 0.43905 0.0
C5499 C 0.61591 0.52636 0.43088 0.0
N5500 N 0.6101 0.52059 0.4136 0.0
N5501 N 0.60782 0.55022 0.44597 0.0
C5502 C 0.61098 0.52849 0.42097 0.0
C5503 C 0.60981 0.54362 0.43761 0.0
N5504 N 0.60372 0.54167 0.40897 0.0
N5505 N 0.62155 0.5325 0.44806 0.0
H5506 H 0.60363 0.55731 0.44521 0.0
H5507 H 0.60959 0.5483 0.4538 0.0
H5508 H 0.62597 0.52563 0.44941 0.0
H5509 H 0.62272 0.53831 0.45381 0.0
H5510 H 0.60533 0.53714 0.40226 0.0
H5511 H 0.60046 0.54908 0.40723 0.0
H5512 H 0.60559 0.52128 0.40672 0.0
H5513 H 0.61313 0.51298 0.41477 0.0
C5514 C 0.29504 0.86263 0.86814 0.0
C5515 C 0.29627 0.85511 0.87644 0.0
C5516 C 0.27749 0.85726 0.88118 0.0
C5517 C 0.27647 0.86537 0.87343 0.0
N5518 N 0.28463 0.877 0.86066 0.0
N5519 N 0.28926 0.84653 0.89199 0.0
C5520 C 0.28536 0.8684 0.86722 0.0
C5521 C 0.28765 0.85279 0.88329 0.0
N5522 N 0.30301 0.86399 0.86092 0.0
N5523 N 0.26866 0.85357 0.88628 0.0
H5524 H 0.29657 0.8431 0.89377 0.0
H5525 H 0.28362 0.84546 0.89792 0.0
H5526 H 0.26109 0.85664 0.88496 0.0
H5527 H 0.26867 0.8469 0.89114 0.0
H5528 H 0.30217 0.86843 0.85401 0.0
H5529 H 0.31025 0.86001 0.86139 0.0
H5530 H 0.29112 0.88034 0.85681 0.0
H5531 H 0.27766 0.88136 0.85972 0.0
C5532 C 0.45066 0.02887 0.11685 0.0
C5533 C 0.44179 1.02584 0.12308 0.0
C5534 C 0.44321 0.04247 0.13317 0.0
C5535 C 0.45153 0.04585 0.12638 0.0
N5536 N 0.46182 0.04318 0.11049 0.0
N5537 N 0.42833 0.03058 0.13581 0.0
C5538 C 0.45486 0.0393 0.11784 0.0
C5539 C 0.43769 0.03289 0.13086 0.0
N5540 N 0.45534 1.02164 0.11025 0.0
N5541 N 0.44083 0.04821 0.14204 0.0
H5542 H 0.42402 1.02369 0.13428 0.0
H5543 H 0.42435 0.03591 0.14071 0.0
H5544 H 0.44469 0.05526 0.14401 0.0
H5545 H 0.43567 0.04556 0.14791 0.0
H5546 H 0.46252 1.023 0.10641 0.0
H5547 H 0.45254 1.01392 0.10933 0.0
H5548 H 0.46367 0.03923 0.10348 0.0
H5549 H 0.46501 0.0508 0.1109 0.0
C5550 C 0.11022 1.0267 0.63366 0.0
C5551 C 0.11489 0.02899 0.62367 0.0
C5552 C 0.10874 1.01179 0.61685 0.0
C5553 C 0.10482 1.00917 0.62707 0.0
N5554 N 0.10335 1.01332 0.64565 0.0
N5555 N 0.12016 1.0231 0.60627 0.0
C5556 C 0.10601 1.0164 0.63561 0.0
C5557 C 0.11458 1.02136 0.6154 0.0
N5558 N 0.10946 0.03449 0.64115 0.0
N5559 N 0.10659 1.00529 0.60845 0.0
H5560 H 0.12449 0.03001 0.60491 0.0
H5561 H 0.12122 1.01737 0.60042 0.0
H5562 H 0.10246 0.99816 0.60921 0.0
H5563 H 0.10815 1.00733 0.60061 0.0
H5564 H 0.10513 0.03369 0.64813 0.0
H5565 H 0.11241 0.04213 0.64001 0.0
H5566 H 0.10509 1.01776 0.65238 0.0
H5567 H 0.10019 1.00587 0.64737 0.0
C5568 C 0.13873 0.18663 0.42843 0.0
C5569 C 0.14054 0.18095 0.43799 0.0
C5570 C 0.15934 0.18591 0.43696 0.0
C5571 C 0.15789 0.18907 0.42625 0.0
N5572 N 0.14593 0.19259 0.41171 0.0
N5573 N 0.15058 0.18431 0.45385 0.0
C5574 C 0.14749 0.18958 0.42198 0.0
C5575 C 0.15034 0.18301 0.44313 0.0
N5576 N 0.12889 0.19063 0.42636 0.0
N5577 N 0.16925 0.18573 0.44132 0.0
H5578 H 0.14359 0.18474 0.45827 0.0
H5579 H 0.15732 0.18671 0.45798 0.0
H5580 H 0.17599 0.18828 0.43726 0.0
H5581 H 0.17077 0.18243 0.44874 0.0
H5582 H 0.12731 0.19568 0.42001 0.0
H5583 H 0.12274 0.19007 0.43187 0.0
H5584 H 0.13857 0.19203 0.40798 0.0
H5585 H 0.15212 0.19484 0.4067 0.0
C5586 C 0.11968 0.89619 0.68797 0.0
C5587 C 0.13056 0.89432 0.6857 0.0
C5588 C 0.13021 0.90849 0.67232 0.0
C5589 C 0.11958 0.91091 0.67518 0.0
N5590 N 0.10464 0.90818 0.68677 0.0
N5591 N 0.1467 0.89975 0.67704 0.0
C5592 C 0.11443 0.90506 0.6833 0.0
C5593 C 0.13597 0.90079 0.67824 0.0
N5594 N 0.11429 0.88929 0.69435 0.0
N5595 N 0.13469 0.91331 0.66371 0.0
H5596 H 0.15118 0.89417 0.68119 0.0
H5597 H 0.15131 0.90499 0.67262 0.0
H5598 H 0.13074 0.91899 0.65917 0.0
H5599 H 0.14195 0.91105 0.6605 0.0
H5600 H 0.1061 0.88949 0.69538 0.0
H5601 H 0.1179 0.88282 0.69804 0.0
H5602 H 0.10094 0.90501 0.69343 0.0
H5603 H 0.10052 0.91456 0.68346 0.0
C5604 C 0.40531 0.87164 0.94001 0.0
C5605 C 0.41169 0.87919 0.93462 0.0
C5606 C 0.40201 0.87558 0.9181 0.0
C5607 C 0.395 0.8688 0.92371 0.0
N5608 N 0.38902 0.86138 0.94026 0.0
N5609 N 0.41512 0.88961 0.91897 0.0
C5610 C 0.3964 0.86709 0.93475 0.0
C5611 C 0.40978 0.88149 0.92377 0.0
N5612 N 0.40795 0.8686 0.95007 0.0
N5613 N 0.40142 0.87615 0.90729 0.0
H5614 H 0.42085 0.89415 0.92284 0.0
H5615 H 0.41327 0.89246 0.91145 0.0
H5616 H 0.39582 0.87197 0.90287 0.0
H5617 H 0.40703 0.88001 0.90263 0.0
H5618 H 0.40435 0.86232 0.95403 0.0
H5619 H 0.41437 0.87181 0.95419 0.0
H5620 H 0.3889 0.86084 0.94849 0.0
H5621 H 0.38249 0.85779 0.93665 0.0
C5622 C 0.42585 0.15099 0.18934 0.0
C5623 C 0.42637 0.16158 0.18556 0.0
C5624 C 0.43718 0.15568 0.17045 0.0
C5625 C 0.43717 0.1452 0.17456 0.0
N5626 N 0.43337 0.13327 0.18899 0.0
N5627 N 0.4343 0.1744 0.17382 0.0
C5628 C 0.43206 0.14298 0.18435 0.0
C5629 C 0.43258 0.16404 0.1765 0.0
N5630 N 0.41908 0.14849 0.19742 0.0
N5631 N 0.4412 0.15758 0.16057 0.0
H5632 H 0.43111 0.18073 0.17809 0.0
H5633 H 0.43965 0.17676 0.16799 0.0
H5634 H 0.44467 0.1517 0.15591 0.0
H5635 H 0.44034 0.16479 0.15663 0.0
H5636 H 0.41744 0.14073 0.19973 0.0
H5637 H 0.41441 0.15411 0.2013 0.0
H5638 H 0.43079 0.13151 0.19663 0.0
H5639 H 0.43789 0.12724 0.18559 0.0
C5640 C 0.14861 0.87034 0.1143 0.0
C5641 C 0.1441 0.87967 0.11873 0.0
C5642 C 0.15556 0.87781 0.13438 0.0
C5643 C 0.16071 0.86903 0.12955 0.0
N5644 N 0.16316 0.8577 0.11437 0.0
N5645 N 0.14432 0.89327 0.13215 0.0
C5646 C 0.1575 0.86549 0.11936 0.0
C5647 C 0.14787 0.88367 0.12855 0.0
N5648 N 0.14419 0.86595 0.10544 0.0
N5649 N 0.15784 0.88037 0.14466 0.0
H5650 H 0.13867 0.89779 0.12814 0.0
H5651 H 0.14761 0.8972 0.13863 0.0
H5652 H 0.16346 0.87629 0.14917 0.0
H5653 H 0.15355 0.88591 0.14903 0.0
H5654 H 0.14633 0.85855 0.10247 0.0
H5655 H 0.13779 0.86936 0.10146 0.0
H5656 H 0.16201 0.85557 0.10649 0.0
H5657 H 0.16958 0.85385 0.1179 0.0
C5658 C 0.42267 0.89733 0.37915 0.0
C5659 C 0.42579 0.89448 0.36871 0.0
C5660 C 0.43884 0.90897 0.36864 0.0
C5661 C 0.43628 0.91127 0.37936 0.0
N5662 N 0.42706 0.90659 0.39542 0.0
N5663 N 0.43784 0.89647 0.35402 0.0
C5664 C 0.42856 0.90514 0.38478 0.0
C5665 C 0.43416 0.9 0.36359 0.0
N5666 N 0.41385 0.89282 0.38355 0.0
N5667 N 0.44551 0.91555 0.3632 0.0
H5668 H 0.43453 0.89002 0.35005 0.0
H5669 H 0.44465 0.8994 0.3504 0.0
H5670 H 0.44922 0.92208 0.36668 0.0
H5671 H 0.44678 0.91504 0.35506 0.0
H5672 H 0.41047 0.8954 0.39062 0.0
H5673 H 0.40933 0.88708 0.37968 0.0
H5674 H 0.42243 0.9016 0.40008 0.0
H5675 H 0.43118 0.91227 0.39981 0.0
C5676 C 0.39112 0.1789 0.62111 0.0
C5677 C 0.39367 0.18579 0.62965 0.0
C5678 C 0.41264 0.18271 0.6264 0.0
C5679 C 0.41004 0.17483 0.61878 0.0
N5680 N 0.39677 0.16442 0.60979 0.0
N5681 N 0.4068 0.19327 0.64136 0.0
C5682 C 0.39926 0.17268 0.61634 0.0
C5683 C 0.40443 0.18747 0.63252 0.0
N5684 N 0.38094 0.1785 0.6174 0.0
N5685 N 0.42296 0.18582 0.62759 0.0
H5686 H 0.40103 0.19691 0.64604 0.0
H5687 H 0.4144 0.19378 0.64455 0.0
H5688 H 0.42917 0.18255 0.62321 0.0
H5689 H 0.42524 0.19229 0.63219 0.0
H5690 H 0.37878 0.1745 0.61051 0.0
H5691 H 0.37479 0.18298 0.62066 0.0
H5692 H 0.38906 0.16169 0.60866 0.0
H5693 H 0.40248 0.15969 0.60612 0.0
C5694 C 0.13347 0.15705 0.8781 0.0
C5695 C 0.12904 0.16125 0.86864 0.0
C5696 C 0.1147 0.14806 0.86949 0.0
C5697 C 0.11866 0.14445 0.87939 0.0
N5698 N 0.13078 0.14659 0.89401 0.0
N5699 N 0.11469 0.16186 0.85605 0.0
C5700 C 0.12777 0.14926 0.88395 0.0
C5701 C 0.11944 0.15705 0.86452 0.0
N5702 N 0.14331 0.16028 0.88133 0.0
N5703 N 0.1066 0.14269 0.86468 0.0
H5704 H 0.118 0.16835 0.85214 0.0
H5705 H 0.10711 0.15995 0.85338 0.0
H5706 H 0.10285 0.13618 0.86814 0.0
H5707 H 0.10412 0.14416 0.85695 0.0
H5708 H 0.14749 0.15668 0.88747 0.0
H5709 H 0.14772 0.16599 0.87729 0.0
H5710 H 0.13661 0.15063 0.89824 0.0
H5711 H 0.12683 0.1409 0.89853 0.0
C5712 C 0.18742 0.42166 0.15007 0.0
C5713 C 0.18745 0.42589 0.1605 0.0
C5714 C 0.1763 0.44075 0.15454 0.0
C5715 C 0.17679 0.43684 0.14399 0.0
N5716 N 0.18463 0.42487 0.13132 0.0
N5717 N 0.18379 0.44051 0.17225 0.0
C5718 C 0.18291 0.42768 0.14164 0.0
C5719 C 0.18245 0.43576 0.1626 0.0
N5720 N 0.19132 0.4117 0.14827 0.0
N5721 N 0.16962 0.44895 0.15694 0.0
H5722 H 0.18828 0.43711 0.17832 0.0
H5723 H 0.18129 0.4482 0.17392 0.0
H5724 H 0.16502 0.45282 0.15127 0.0
H5725 H 0.16799 0.45137 0.16466 0.0
H5726 H 0.19042 0.4077 0.14111 0.0
H5727 H 0.19471 0.40704 0.15421 0.0
H5728 H 0.18992 0.41895 0.12904 0.0
H5729 H 0.18149 0.42911 0.12494 0.0
C5730 C 0.67281 0.12988 0.90882 0.0
C5731 C 0.67554 0.1192 0.91116 0.0
C5732 C 0.6883 0.11921 0.89641 0.0
C5733 C 0.68612 0.13011 0.8946 0.0
N5734 N 0.67771 0.14634 0.90018 0.0
N5735 N 0.68699 0.10415 0.90835 0.0
C5736 C 0.67878 0.13559 0.90113 0.0
C5737 C 0.68361 0.11398 0.90527 0.0
N5738 N 0.66425 0.13444 0.91368 0.0
N5739 N 0.6946 0.11376 0.88947 0.0
H5740 H 0.68368 0.10006 0.91473 0.0
H5741 H 0.69361 0.10039 0.90514 0.0
H5742 H 0.6983 0.11735 0.88301 0.0
H5743 H 0.69554 0.10556 0.88963 0.0
H5744 H 0.66113 0.14176 0.91147 0.0
H5745 H 0.65967 0.13053 0.91934 0.0
H5746 H 0.67338 0.15098 0.90546 0.0
H5747 H 0.68192 0.1508 0.89462 0.0
C5748 C 0.86331 0.93332 0.40003 0.0
C5749 C 0.86879 0.92603 0.39343 0.0
C5750 C 0.88539 0.92987 0.40291 0.0
C5751 C 0.87972 0.93638 0.41013 0.0
N5752 N 0.86307 0.9433 0.4165 0.0
N5753 N 0.88466 0.91607 0.38954 0.0
C5754 C 0.86861 0.93785 0.40894 0.0
C5755 C 0.87974 0.92396 0.39512 0.0
N5756 N 0.85312 0.93615 0.39761 0.0
N5757 N 0.89622 0.92955 0.40332 0.0
H5758 H 0.88081 0.91155 0.38379 0.0
H5759 H 0.89228 0.91337 0.39123 0.0
H5760 H 0.90063 0.93373 0.40894 0.0
H5761 H 0.90089 0.9259 0.39757 0.0
H5762 H 0.84906 0.94226 0.40139 0.0
H5763 H 0.84898 0.93294 0.39122 0.0
H5764 H 0.85483 0.94363 0.41675 0.0
H5765 H 0.8667 0.94686 0.42302 0.0
C5766 C 0.87636 0.1185 0.16508 0.0
C5767 C 0.86697 0.12442 0.16311 0.0
C5768 C 0.86829 0.11956 0.14431 0.0
C5769 C 0.87889 0.11613 0.14596 0.0
N5770 N 0.89309 0.11215 0.1582 0.0
N5771 N 0.85124 0.12149 0.15272 0.0
C5772 C 0.88292 0.11544 0.15644 0.0
C5773 C 0.86199 0.12255 0.15319 0.0
N5774 N 0.87815 0.11445 0.17494 0.0
N5775 N 0.86415 0.11992 0.13432 0.0
H5776 H 0.84667 0.12107 0.15961 0.0
H5777 H 0.8472 0.11924 0.14588 0.0
H5778 H 0.8683 0.11732 0.12765 0.0
H5779 H 0.85683 0.12341 0.13267 0.0
H5780 H 0.88435 0.10924 0.17663 0.0
H5781 H 0.87254 0.11516 0.18098 0.0
H5782 H 0.89668 0.11257 0.16563 0.0
H5783 H 0.89818 0.10981 0.15211 0.0
C5784 C 0.37082 0.61412 0.64929 0.0
C5785 C 0.37878 0.61931 0.64325 0.0
C5786 C 0.37576 0.63573 0.65331 0.0
C5787 C 0.36852 0.63028 0.65999 0.0
N5788 N 0.36013 0.61397 0.6653 0.0
N5789 N 0.39005 0.63451 0.6405 0.0
C5790 C 0.3663 0.61938 0.65823 0.0
C5791 C 0.38157 0.62998 0.64552 0.0
N5792 N 0.36737 0.6043 0.6463 0.0
N5793 N 0.37686 0.64648 0.65422 0.0
H5794 H 0.39452 0.63057 0.63477 0.0
H5795 H 0.39323 0.64182 0.64264 0.0
H5796 H 0.37277 0.65095 0.65985 0.0
H5797 H 0.3811 0.65109 0.64885 0.0
H5798 H 0.36081 0.60056 0.64964 0.0
H5799 H 0.37055 0.60019 0.63987 0.0
H5800 H 0.35917 0.60577 0.66517 0.0
H5801 H 0.35655 0.61758 0.67183 0.0
C5802 C 0.18423 0.61455 0.40545 0.0
C5803 C 0.17592 0.61963 0.41112 0.0
C5804 C 0.17867 0.63587 0.4007 0.0
C5805 C 0.1863 0.63049 0.3944 0.0
N5806 N 0.19541 0.61434 0.38977 0.0
N5807 N 0.16405 0.6345 0.41311 0.0
C5808 C 0.18884 0.61972 0.39651 0.0
C5809 C 0.17282 0.63013 0.40846 0.0
N5810 N 0.18792 0.60493 0.4088 0.0
N5811 N 0.17722 0.64654 0.39945 0.0
H5812 H 0.15954 0.63057 0.41881 0.0
H5813 H 0.16068 0.64164 0.41067 0.0
H5814 H 0.18132 0.65101 0.39382 0.0
H5815 H 0.17266 0.65115 0.40457 0.0
H5816 H 0.1947 0.60132 0.40576 0.0
H5817 H 0.18467 0.60088 0.41524 0.0
H5818 H 0.19664 0.60618 0.39015 0.0
H5819 H 0.19905 0.6179 0.38326 0.0
C5820 C 0.37698 0.43287 0.89213 0.0
C5821 C 0.36915 0.42522 0.89476 0.0
C5822 C 0.37143 0.42946 0.91363 0.0
C5823 C 0.38015 0.43611 0.91107 0.0
N5824 N 0.39217 0.44312 0.89796 0.0
N5825 N 0.35979 0.4152 0.90808 0.0
C5826 C 0.38316 0.43758 0.90032 0.0
C5827 C 0.36657 0.42327 0.90554 0.0
N5828 N 0.37834 0.43583 0.88179 0.0
N5829 N 0.36762 0.42928 0.92377 0.0
H5830 H 0.35605 0.4105 0.90239 0.0
H5831 H 0.35853 0.4126 0.9158 0.0
H5832 H 0.37095 0.43375 0.92989 0.0
H5833 H 0.36062 0.42547 0.92593 0.0
H5834 H 0.38311 0.44215 0.87947 0.0
H5835 H 0.37393 0.4326 0.87559 0.0
H5836 H 0.39544 0.44345 0.89039 0.0
H5837 H 0.3969 0.44671 0.90371 0.0
C5838 C 0.89652 0.88231 0.63473 0.0
C5839 C 0.89437 0.8716 0.63196 0.0
C5840 C 0.90869 0.87213 0.61873 0.0
C5841 C 0.91027 0.88306 0.62095 0.0
N5842 N 0.90456 0.89905 0.62973 0.0
N5843 N 0.89722 0.85674 0.6203 0.0
C5844 C 0.90385 0.88829 0.62857 0.0
C5845 C 0.90013 0.86662 0.62366 0.0
N5846 N 0.8918 0.88665 0.64347 0.0
N5847 N 0.91557 0.86693 0.61216 0.0
H5848 H 0.8911 0.85243 0.62381 0.0
H5849 H 0.9003 0.85313 0.61355 0.0
H5850 H 0.92181 0.87073 0.60829 0.0
H5851 H 0.9156 0.85874 0.61115 0.0
H5852 H 0.8939 0.894 0.6466 0.0
H5853 H 0.88638 0.88254 0.64817 0.0
H5854 H 0.89932 0.9035 0.63429 0.0
H5855 H 0.90985 0.90369 0.62538 0.0
C5856 C 0.93662 0.14689 0.37151 0.0
C5857 C 0.93364 0.1444 0.38207 0.0
C5858 C 0.91942 0.15772 0.38124 0.0
C5859 C 0.92292 0.16078 0.37099 0.0
N5860 N 0.93578 0.15944 0.35693 0.0
N5861 N 0.92341 0.14856 0.39767 0.0
C5862 C 0.93179 0.15568 0.36627 0.0
C5863 C 0.92537 0.15015 0.38713 0.0
N5864 N 0.94385 0.14065 0.36637 0.0
N5865 N 0.91018 0.1618 0.38521 0.0
H5866 H 0.92757 0.14306 0.40224 0.0
H5867 H 0.91832 0.1533 0.40211 0.0
H5868 H 0.9056 0.16737 0.38115 0.0
H5869 H 0.90657 0.15903 0.39209 0.0
H5870 H 0.9455 0.14128 0.35832 0.0
H5871 H 0.94767 0.13427 0.37001 0.0
H5872 H 0.94291 0.15685 0.35364 0.0
H5873 H 0.93238 0.16576 0.35282 0.0
C5874 C 0.64544 0.17192 0.13197 0.0
C5875 C 0.64442 0.17339 0.12085 0.0
C5876 C 0.66006 0.18504 0.12096 0.0
C5877 C 0.66059 0.18416 0.13217 0.0
N5878 N 0.65273 0.17833 0.14857 0.0
N5879 N 0.64962 0.18263 0.10496 0.0
C5880 C 0.65295 0.17805 0.13774 0.0
C5881 C 0.65142 0.18032 0.11539 0.0
N5882 N 0.63949 0.16436 0.13696 0.0
N5883 N 0.66801 0.1901 0.1156 0.0
H5884 H 0.64342 0.17928 0.10063 0.0
H5885 H 0.65371 0.18848 0.10082 0.0
H5886 H 0.67435 0.19379 0.1194 0.0
H5887 H 0.66875 0.18998 0.10738 0.0
H5888 H 0.64069 0.16207 0.1448 0.0
H5889 H 0.63392 0.15967 0.13303 0.0
H5890 H 0.64666 0.175 0.15307 0.0
H5891 H 0.65813 0.18269 0.15306 0.0
C5892 C 0.62402 0.89181 0.8775 0.0
C5893 C 0.63244 0.89464 0.87058 0.0
C5894 C 0.6287 0.91349 0.8738 0.0
C5895 C 0.62121 0.91063 0.88171 0.0
N5896 N 0.61264 0.89705 0.89208 0.0
N5897 N 0.64374 0.90812 0.86309 0.0
C5898 C 0.61907 0.89978 0.8838 0.0
C5899 C 0.63501 0.90548 0.86894 0.0
N5900 N 0.62059 0.88154 0.87786 0.0
N5901 N 0.62959 0.92385 0.87075 0.0
H5902 H 0.64855 0.9025 0.85938 0.0
H5903 H 0.64673 0.9158 0.86261 0.0
H5904 H 0.62506 0.92992 0.87409 0.0
H5905 H 0.63408 0.92631 0.86427 0.0
H5906 H 0.61378 0.87916 0.88189 0.0
H5907 H 0.62399 0.87551 0.87332 0.0
H5908 H 0.61174 0.8893 0.89476 0.0
H5909 H 0.60885 0.90263 0.89687 0.0
C5910 C 0.90725 0.16869 0.92332 0.0
C5911 C 0.91134 0.17294 0.93291 0.0
C5912 C 0.89849 0.18759 0.93192 0.0
C5913 C 0.89499 0.18379 0.92192 0.0
N5914 N 0.89715 0.17175 0.90724 0.0
N5915 N 0.912 0.18716 0.94564 0.0
C5916 C 0.8997 0.17462 0.91738 0.0
C5917 C 0.90727 0.1826 0.93703 0.0
N5918 N 0.91035 0.15882 0.92006 0.0
N5919 N 0.89321 0.19578 0.93669 0.0
H5920 H 0.91833 0.18366 0.94966 0.0
H5921 H 0.91021 0.19475 0.94834 0.0
H5922 H 0.88687 0.19973 0.93312 0.0
H5923 H 0.89457 0.19816 0.94447 0.0
H5924 H 0.9068 0.15477 0.91381 0.0
H5925 H 0.91588 0.15424 0.92418 0.0
H5926 H 0.90114 0.16587 0.90304 0.0
H5927 H 0.89163 0.17587 0.90265 0.0
C5928 C 0.63564 0.14902 0.68507 0.0
C5929 C 0.63341 0.1599 0.68316 0.0
C5930 C 0.62029 0.15488 0.66965 0.0
C5931 C 0.62208 0.14401 0.67199 0.0
N5932 N 0.6298 0.13077 0.68341 0.0
N5933 N 0.62212 0.17318 0.6753 0.0
C5934 C 0.62926 0.1411 0.68016 0.0
C5935 C 0.62527 0.16282 0.67594 0.0
N5936 N 0.64412 0.14626 0.69123 0.0
N5937 N 0.61417 0.15762 0.66113 0.0
H5938 H 0.62555 0.1792 0.67981 0.0
H5939 H 0.61549 0.17566 0.67103 0.0
H5940 H 0.61036 0.15206 0.65635 0.0
H5941 H 0.61355 0.16535 0.65828 0.0
H5942 H 0.64688 0.13851 0.69194 0.0
H5943 H 0.64896 0.15181 0.69498 0.0
H5944 H 0.63404 0.12831 0.69006 0.0
H5945 H 0.62522 0.12477 0.68004 0.0
C5946 C 0.66508 0.8777 0.43422 0.0
C5947 C 0.66277 0.86868 0.42788 0.0
C5948 C 0.64397 0.87065 0.43258 0.0
C5949 C 0.64606 0.88101 0.43649 0.0
N5950 N 0.65887 0.89443 0.44121 0.0
N5951 N 0.65164 0.85334 0.43001 0.0
C5952 C 0.65671 0.88451 0.43747 0.0
C5953 C 0.6526 0.86408 0.42942 0.0
N5954 N 0.67497 0.87885 0.43846 0.0
N5955 N 0.63381 0.867 0.43193 0.0
H5956 H 0.65832 0.84844 0.4303 0.0
H5957 H 0.64458 0.84952 0.432 0.0
H5958 H 0.62729 0.87132 0.43464 0.0
H5959 H 0.63187 0.85993 0.4281 0.0
H5960 H 0.67687 0.88472 0.44395 0.0
H5961 H 0.68077 0.873 0.43756 0.0
H5962 H 0.66647 0.89769 0.44104 0.0
H5963 H 0.65298 0.89969 0.4437 0.0
C5964 C 0.922 0.9047 0.18632 0.0
C5965 C 0.92313 0.8939 0.18335 0.0
C5966 C 0.93496 0.89912 0.16876 0.0
C5967 C 0.9343 0.90985 0.17211 0.0
N5968 N 0.929 0.9226 0.18532 0.0
N5969 N 0.93236 0.88058 0.1732 0.0
C5970 C 0.92836 0.91256 0.18128 0.0
C5971 C 0.93013 0.89104 0.175 0.0
N5972 N 0.91453 0.90752 0.19366 0.0
N5973 N 0.93984 0.89668 0.1594 0.0
H5974 H 0.92901 0.87446 0.17764 0.0
H5975 H 0.93823 0.87801 0.16799 0.0
H5976 H 0.94352 0.90235 0.15463 0.0
H5977 H 0.93953 0.8892 0.15593 0.0
H5978 H 0.91248 0.91536 0.19528 0.0
H5979 H 0.90974 0.90202 0.19755 0.0
H5980 H 0.92576 0.92478 0.1926 0.0
H5981 H 0.9336 0.92854 0.18187 0.0
C5982 C 0.87199 0.61852 0.9074 0.0
C5983 C 0.88261 0.62137 0.90986 0.0
C5984 C 0.88194 0.63556 0.89654 0.0
C5985 C 0.87164 0.63219 0.89349 0.0
N5986 N 0.85739 0.61954 0.89488 0.0
N5987 N 0.89834 0.63136 0.90568 0.0
C5988 C 0.8668 0.6234 0.89861 0.0
C5989 C 0.88777 0.62954 0.90411 0.0
N5990 N 0.86676 0.61138 0.91366 0.0
N5991 N 0.88602 0.64473 0.89244 0.0
H5992 H 0.90287 0.62716 0.91119 0.0
H5993 H 0.90285 0.63639 0.90093 0.0
H5994 H 0.88202 0.64935 0.88687 0.0
H5995 H 0.89296 0.64825 0.89519 0.0
H5996 H 0.85868 0.60984 0.91304 0.0
H5997 H 0.87036 0.60753 0.92004 0.0
H5998 H 0.85401 0.61247 0.89748 0.0
H5999 H 0.85331 0.62298 0.88856 0.0
C6000 C 0.37195 0.93232 0.15892 0.0
C6001 C 0.37258 0.92107 0.15913 0.0
C6002 C 0.3846 0.9214 0.14381 0.0
C6003 C 0.38334 0.93258 0.1431 0.0
N6004 N 0.37453 0.94853 0.14886 0.0
N6005 N 0.37796 0.90475 0.15078 0.0
C6006 C 0.37665 0.938 0.15035 0.0
C6007 C 0.37846 0.91557 0.15127 0.0
N6008 N 0.36716 0.93759 0.16709 0.0
N6009 N 0.39196 0.9164 0.1376 0.0
H6010 H 0.37358 0.90021 0.15612 0.0
H6011 H 0.3811 0.90032 0.14456 0.0
H6012 H 0.39662 0.92038 0.13206 0.0
H6013 H 0.3941 0.90848 0.13856 0.0
H6014 H 0.36748 0.94579 0.16804 0.0
H6015 H 0.36352 0.93371 0.17342 0.0
H6016 H 0.36883 0.95269 0.15315 0.0
H6017 H 0.37789 0.95296 0.14274 0.0
C6018 C 0.17511 0.13832 0.65372 0.0
C6019 C 0.18302 0.13312 0.65981 0.0
C6020 C 0.18084 0.11705 0.64897 0.0
C6021 C 0.17229 0.12195 0.64352 0.0
N6022 N 0.16015 0.13663 0.64175 0.0
N6023 N 0.19252 0.11714 0.66428 0.0
C6024 C 0.16912 0.13243 0.64618 0.0
C6025 C 0.18566 0.12237 0.65771 0.0
N6026 N 0.17352 0.14898 0.65495 0.0
N6027 N 0.18456 0.10744 0.64559 0.0
H6028 H 0.19632 0.12081 0.67064 0.0
H6029 H 0.19387 0.109 0.66393 0.0
H6030 H 0.18116 0.10327 0.63931 0.0
H6031 H 0.19149 0.10397 0.64845 0.0
H6032 H 0.16872 0.15347 0.64996 0.0
H6033 H 0.17772 0.15355 0.66042 0.0
H6034 H 0.15674 0.14374 0.64422 0.0
H6035 H 0.15555 0.13258 0.6362 0.0
C6036 C 0.18447 0.9334 0.89474 0.0
C6037 C 0.18409 0.92214 0.89455 0.0
C6038 C 0.17233 0.92224 0.91007 0.0
C6039 C 0.17333 0.93344 0.91074 0.0
N6040 N 0.18168 0.94957 0.90481 0.0
N6041 N 0.17926 0.90572 0.90304 0.0
C6042 C 0.17978 0.939 0.90337 0.0
C6043 C 0.17848 0.91653 0.90252 0.0
N6044 N 0.18901 0.93875 0.88648 0.0
N6045 N 0.16518 0.91709 0.91639 0.0
H6046 H 0.18365 0.90127 0.89762 0.0
H6047 H 0.17634 0.90125 0.90932 0.0
H6048 H 0.1605 0.92098 0.92199 0.0
H6049 H 0.16322 0.90912 0.91549 0.0
H6050 H 0.18848 0.94693 0.88552 0.0
H6051 H 0.19265 0.93493 0.88011 0.0
H6052 H 0.18722 0.95384 0.90042 0.0
H6053 H 0.17835 0.95393 0.911 0.0
C6054 C 0.6753 0.41707 0.40018 0.0
C6055 C 0.68373 0.42204 0.39463 0.0
C6056 C 0.68195 0.43778 0.40601 0.0
C6057 C 0.67293 0.43316 0.41092 0.0
N6058 N 0.65996 0.41913 0.4116 0.0
N6059 N 0.69424 0.43762 0.3912 0.0
C6060 C 0.66932 0.42299 0.4077 0.0
C6061 C 0.68684 0.43254 0.39726 0.0
N6062 N 0.6732 0.40657 0.39846 0.0
N6063 N 0.68601 0.44704 0.40992 0.0
H6064 H 0.6981 0.43399 0.38485 0.0
H6065 H 0.696 0.44565 0.39193 0.0
H6066 H 0.68257 0.45115 0.41622 0.0
H6067 H 0.69323 0.45023 0.40749 0.0
H6068 H 0.66796 0.40216 0.40306 0.0
H6069 H 0.67738 0.40198 0.39298 0.0
H6070 H 0.65629 0.41233 0.4087 0.0
H6071 H 0.65536 0.42321 0.41713 0.0
C6072 C 0.87241 0.43626 0.64631 0.0
C6073 C 0.88307 0.43351 0.64393 0.0
C6074 C 0.88248 0.41938 0.65733 0.0
C6075 C 0.87212 0.42266 0.66029 0.0
N6076 N 0.85774 0.43517 0.65875 0.0
N6077 N 0.89889 0.42369 0.64827 0.0
C6078 C 0.86722 0.43137 0.65509 0.0
C6079 C 0.88829 0.42541 0.64976 0.0
N6080 N 0.86714 0.44332 0.63999 0.0
N6081 N 0.88664 0.41027 0.6615 0.0
H6082 H 0.9034 0.42791 0.64277 0.0
H6083 H 0.90343 0.41873 0.65307 0.0
H6084 H 0.88265 0.40564 0.66707 0.0
H6085 H 0.89364 0.40681 0.65881 0.0
H6086 H 0.85903 0.44477 0.64054 0.0
H6087 H 0.87072 0.44717 0.63361 0.0
H6088 H 0.8543 0.44219 0.65609 0.0
H6089 H 0.85366 0.43172 0.66506 0.0
C6090 C 0.68511 0.62136 0.1599 0.0
C6091 C 0.68428 0.63258 0.16034 0.0
C6092 C 0.67211 0.63234 0.14514 0.0
C6093 C 0.67354 0.6212 0.14421 0.0
N6094 N 0.68266 0.60529 0.14958 0.0
N6095 N 0.67855 0.64897 0.15235 0.0
C6096 C 0.6804 0.61575 0.15129 0.0
C6097 C 0.67823 0.63814 0.15265 0.0
N6098 N 0.6901 0.61602 0.16791 0.0
N6099 N 0.6646 0.63734 0.13911 0.0
H6100 H 0.6829 0.65348 0.15775 0.0
H6101 H 0.67527 0.65346 0.14625 0.0
H6102 H 0.65994 0.63338 0.13354 0.0
H6103 H 0.66235 0.6452 0.14023 0.0
H6104 H 0.68994 0.60781 0.16871 0.0
H6105 H 0.69378 0.61985 0.17425 0.0
H6106 H 0.68847 0.60114 0.15373 0.0
H6107 H 0.6793 0.60092 0.14341 0.0
C6108 C 0.64221 0.6837 0.92937 0.0
C6109 C 0.64472 0.67467 0.93563 0.0
C6110 C 0.66367 0.6775 0.93203 0.0
C6111 C 0.66104 0.68567 0.92474 0.0
N6112 N 0.6477 0.69573 0.91542 0.0
N6113 N 0.65772 0.6621 0.9419 0.0
C6114 C 0.65028 0.68859 0.92316 0.0
C6115 C 0.65543 0.67136 0.93673 0.0
N6116 N 0.63215 0.68775 0.92958 0.0
N6117 N 0.67405 0.67578 0.93467 0.0
H6118 H 0.65193 0.65741 0.94547 0.0
H6119 H 0.66521 0.65864 0.94192 0.0
H6120 H 0.68028 0.68015 0.93144 0.0
H6121 H 0.67641 0.67071 0.94075 0.0
H6122 H 0.63007 0.69494 0.92609 0.0
H6123 H 0.62606 0.6844 0.93406 0.0
H6124 H 0.63994 0.69728 0.91306 0.0
H6125 H 0.65336 0.6995 0.91072 0.0
C6126 C 0.62508 0.41225 0.18385 0.0
C6127 C 0.61897 0.40984 0.1747 0.0
C6128 C 0.62257 0.39087 0.17737 0.0
C6129 C 0.62974 0.39341 0.18568 0.0
N6130 N 0.63888 0.40664 0.19602 0.0
N6131 N 0.61295 0.39699 0.16189 0.0
C6132 C 0.63124 0.40414 0.18874 0.0
C6133 C 0.61795 0.39917 0.17125 0.0
N6134 N 0.62478 0.42225 0.18802 0.0
N6135 N 0.61997 0.38051 0.1755 0.0
H6136 H 0.60944 0.40283 0.15719 0.0
H6137 H 0.61301 0.38954 0.15835 0.0
H6138 H 0.62315 0.37424 0.17986 0.0
H6139 H 0.61397 0.3782 0.17032 0.0
H6140 H 0.62815 0.42425 0.19528 0.0
H6141 H 0.62031 0.42837 0.18468 0.0
H6142 H 0.64118 0.41438 0.19769 0.0
H6143 H 0.64355 0.40095 0.19979 0.0
C6144 C 0.89791 0.37814 0.42018 0.0
C6145 C 0.89332 0.36893 0.42473 0.0
C6146 C 0.90592 0.36998 0.43958 0.0
C6147 C 0.9099 0.37967 0.43546 0.0
N6148 N 0.9086 0.39391 0.42278 0.0
N6149 N 0.89184 0.35683 0.43944 0.0
C6150 C 0.90558 0.38401 0.42601 0.0
C6151 C 0.89703 0.36504 0.43463 0.0
N6152 N 0.89515 0.3811 0.41012 0.0
N6153 N 0.91083 0.36534 0.44805 0.0
H6154 H 0.88542 0.35294 0.43599 0.0
H6155 H 0.89338 0.35438 0.44717 0.0
H6156 H 0.91725 0.36879 0.45197 0.0
H6157 H 0.9091 0.35772 0.45072 0.0
H6158 H 0.89905 0.38703 0.40589 0.0
H6159 H 0.88954 0.37703 0.40561 0.0
H6160 H 0.90491 0.39802 0.41664 0.0
H6161 H 0.91422 0.39844 0.42681 0.0
C6162 C 0.9216 0.65609 0.67605 0.0
C6163 C 0.92588 0.66026 0.68559 0.0
C6164 C 0.94019 0.64701 0.68497 0.0
C6165 C 0.93639 0.64343 0.67499 0.0
N6166 N 0.92453 0.64564 0.66017 0.0
N6167 N 0.94002 0.66079 0.69842 0.0
C6168 C 0.92738 0.64828 0.67029 0.0
C6169 C 0.9354 0.65601 0.68986 0.0
N6170 N 0.91182 0.65937 0.67266 0.0
N6171 N 0.94819 0.6416 0.6899 0.0
H6172 H 0.93667 0.6673 0.70228 0.0
H6173 H 0.94754 0.65884 0.70121 0.0
H6174 H 0.95198 0.63508 0.68649 0.0
H6175 H 0.95055 0.64304 0.69768 0.0
H6176 H 0.90773 0.6558 0.66644 0.0
H6177 H 0.90735 0.66508 0.67664 0.0
H6178 H 0.91878 0.64971 0.65585 0.0
H6179 H 0.92853 0.63993 0.65572 0.0
C6180 C 0.65066 0.38574 0.62676 0.0
C6181 C 0.64465 0.38037 0.6189 0.0
C6182 C 0.65598 0.36461 0.62101 0.0
C6183 C 0.66135 0.36966 0.62951 0.0
N6184 N 0.66278 0.38438 0.64163 0.0
N6185 N 0.64057 0.36427 0.60946 0.0
C6186 C 0.65841 0.38006 0.6327 0.0
C6187 C 0.64704 0.36968 0.61626 0.0
N6188 N 0.64915 0.39636 0.62834 0.0
N6189 N 0.65961 0.3551 0.61727 0.0
H6190 H 0.63407 0.36776 0.60571 0.0
H6191 H 0.64114 0.35614 0.60812 0.0
H6192 H 0.66604 0.35112 0.62062 0.0
H6193 H 0.6568 0.35155 0.61038 0.0
H6194 H 0.65405 0.40099 0.63309 0.0
H6195 H 0.64352 0.40078 0.62417 0.0
H6196 H 0.66013 0.39142 0.64504 0.0
H6197 H 0.66848 0.38049 0.64619 0.0
C6198 C 0.93582 0.39769 0.86524 0.0
C6199 C 0.92526 0.39508 0.86815 0.0
C6200 C 0.92566 0.40872 0.88206 0.0
C6201 C 0.93591 0.41188 0.87863 0.0
N6202 N 0.95017 0.41051 0.86599 0.0
N6203 N 0.90944 0.39918 0.87806 0.0
C6204 C 0.94084 0.40667 0.86994 0.0
C6205 C 0.91998 0.40091 0.8762 0.0
N6206 N 0.94116 0.39139 0.85821 0.0
N6207 N 0.9215 0.41293 0.89114 0.0
H6208 H 0.90503 0.3935 0.87398 0.0
H6209 H 0.90484 0.40396 0.88298 0.0
H6210 H 0.92539 0.41866 0.89564 0.0
H6211 H 0.91461 0.41012 0.89472 0.0
H6212 H 0.94923 0.39213 0.85665 0.0
H6213 H 0.93769 0.38488 0.85449 0.0
H6214 H 0.9536 0.40783 0.85897 0.0
H6215 H 0.95412 0.41698 0.86929 0.0
C6216 C 0.90199 0.67985 0.13564 0.0
C6217 C 0.89447 0.68604 0.12999 0.0
C6218 C 0.90407 0.68252 0.11339 0.0
C6219 C 0.91097 0.67552 0.11889 0.0
N6220 N 0.91555 0.66621 0.13495 0.0
N6221 N 0.88744 0.69226 0.11335 0.0
C6222 C 0.90968 0.67384 0.12995 0.0
C6223 C 0.89528 0.68712 0.11882 0.0
N6224 N 0.90194 0.67992 0.14648 0.0
N6225 N 0.90612 0.68502 0.10304 0.0
H6226 H 0.88099 0.69587 0.11707 0.0
H6227 H 0.88691 0.69229 0.10512 0.0
H6228 H 0.91243 0.68175 0.09881 0.0
H6229 H 0.9021 0.69093 0.0989 0.0
H6230 H 0.90791 0.67654 0.15107 0.0
H6231 H 0.89641 0.68418 0.15091 0.0
H6232 H 0.91416 0.66378 0.14272 0.0
H6233 H 0.92124 0.66162 0.13108 0.0
C6234 C 0.61409 0.65118 0.37242 0.0
C6235 C 0.61971 0.64417 0.37922 0.0
C6236 C 0.6364 0.65322 0.37479 0.0
C6237 C 0.63066 0.66082 0.3688 0.0
N6238 N 0.6139 0.66795 0.36297 0.0
N6239 N 0.63593 0.63947 0.38822 0.0
C6240 C 0.61945 0.66004 0.36789 0.0
C6241 C 0.63081 0.64544 0.38076 0.0
N6242 N 0.60371 0.64917 0.37005 0.0
N6243 N 0.64725 0.65327 0.37455 0.0
H6244 H 0.63212 0.63372 0.39278 0.0
H6245 H 0.64373 0.64082 0.39055 0.0
H6246 H 0.65162 0.65886 0.37031 0.0
H6247 H 0.6519 0.64725 0.37778 0.0
H6248 H 0.59948 0.65327 0.36427 0.0
H6249 H 0.59952 0.64281 0.37328 0.0
H6250 H 0.60566 0.66849 0.36308 0.0
H6251 H 0.61756 0.67446 0.35942 0.0
C6252 C 0.68709 0.92075 0.64935 0.0
C6253 C 0.68631 0.9244 0.65997 0.0
C6254 C 0.67418 0.93857 0.65425 0.0
C6255 C 0.67547 0.93531 0.64355 0.0
N6256 N 0.68484 0.92473 0.63068 0.0
N6257 N 0.68092 0.93801 0.67225 0.0
C6258 C 0.68244 0.92682 0.64103 0.0
C6259 C 0.68039 0.93369 0.66233 0.0
N6260 N 0.69189 0.91126 0.64725 0.0
N6261 N 0.6667 0.94602 0.65675 0.0
H6262 H 0.68542 0.9347 0.67835 0.0
H6263 H 0.67769 0.94537 0.67418 0.0
H6264 H 0.662 0.94977 0.65107 0.0
H6265 H 0.66455 0.94786 0.6645 0.0
H6266 H 0.69165 0.90759 0.63986 0.0
H6267 H 0.69542 0.90659 0.6531 0.0
H6268 H 0.69071 0.9194 0.62836 0.0
H6269 H 0.68164 0.92904 0.62438 0.0
C6270 C 0.41076 0.38419 0.13286 0.0
C6271 C 0.41213 0.38208 0.12189 0.0
C6272 C 0.39694 0.36986 0.12234 0.0
C6273 C 0.3961 0.37138 0.13346 0.0
N6274 N 0.4033 0.37852 0.14965 0.0
N6275 N 0.4077 0.3717 0.10648 0.0
C6276 C 0.40334 0.37813 0.13882 0.0
C6277 C 0.40554 0.37456 0.1167 0.0
N6278 N 0.41628 0.39228 0.13751 0.0
N6279 N 0.38932 0.3642 0.1171 0.0
H6280 H 0.41386 0.37503 0.10209 0.0
H6281 H 0.40395 0.36544 0.10262 0.0
H6282 H 0.383 0.36052 0.12097 0.0
H6283 H 0.3888 0.3638 0.10888 0.0
H6284 H 0.41479 0.39499 0.14516 0.0
H6285 H 0.42177 0.39692 0.13343 0.0
H6286 H 0.40911 0.38236 0.15408 0.0
H6287 H 0.39797 0.37421 0.15428 0.0
C6288 C 0.43814 0.64932 0.87248 0.0
C6289 C 0.43345 0.6444 0.88145 0.0
C6290 C 0.4174 0.6552 0.87904 0.0
C6291 C 0.42244 0.66076 0.87065 0.0
N6292 N 0.43809 0.66418 0.86024 0.0
N6293 N 0.41935 0.64373 0.89435 0.0
C6294 C 0.43295 0.6581 0.86759 0.0
C6295 C 0.42327 0.64764 0.88502 0.0
N6296 N 0.44741 0.64539 0.86845 0.0
N6297 N 0.40689 0.65695 0.88108 0.0
H6298 H 0.42339 0.63818 0.89895 0.0
H6299 H 0.41253 0.64664 0.89799 0.0
H6300 H 0.40234 0.66245 0.87691 0.0
H6301 H 0.40244 0.65234 0.88629 0.0
H6302 H 0.45066 0.64783 0.86127 0.0
H6303 H 0.45149 0.63906 0.8719 0.0
H6304 H 0.44613 0.66343 0.85852 0.0
H6305 H 0.43449 0.67055 0.85638 0.0
C6306 C 0.15616 0.6686 0.62026 0.0
C6307 C 0.14534 0.6716 0.62117 0.0
C6308 C 0.15026 0.68574 0.63365 0.0
C6309 C 0.16113 0.68313 0.63226 0.0
N6310 N 0.1746 0.67357 0.62263 0.0
N6311 N 0.13228 0.6843 0.62696 0.0
C6312 C 0.16413 0.675 0.62507 0.0
C6313 C 0.14245 0.68057 0.62734 0.0
N6314 N 0.1588 0.65941 0.61515 0.0
N6315 N 0.14735 0.69284 0.6413 0.0
H6316 H 0.12636 0.68075 0.6224 0.0
H6317 H 0.12992 0.69144 0.63038 0.0
H6318 H 0.15282 0.69682 0.64606 0.0
H6319 H 0.13951 0.69417 0.64353 0.0
H6320 H 0.1664 0.65617 0.61527 0.0
H6321 H 0.15322 0.65454 0.61149 0.0
H6322 H 0.17722 0.66855 0.61662 0.0
H6323 H 0.18064 0.67814 0.62595 0.0
C6324 C 0.13294 0.40532 0.36796 0.0
C6325 C 0.13191 0.39453 0.37101 0.0
C6326 C 0.12023 0.39977 0.38571 0.0
C6327 C 0.12079 0.41049 0.3823 0.0
N6328 N 0.12586 0.42319 0.36897 0.0
N6329 N 0.12289 0.38122 0.38134 0.0
C6330 C 0.1266 0.41318 0.37304 0.0
C6331 C 0.12503 0.39168 0.37946 0.0
N6332 N 0.14028 0.40813 0.3605 0.0
N6333 N 0.11549 0.39736 0.39515 0.0
H6334 H 0.12622 0.37509 0.37689 0.0
H6335 H 0.1171 0.37866 0.38663 0.0
H6336 H 0.11184 0.40304 0.39993 0.0
H6337 H 0.11589 0.3899 0.39866 0.0
H6338 H 0.14227 0.41596 0.3588 0.0
H6339 H 0.14504 0.40262 0.35657 0.0
H6340 H 0.129 0.42536 0.36165 0.0
H6341 H 0.12127 0.42913 0.37246 0.0
C6342 C 0.40286 0.67785 0.43823 0.0
C6343 C 0.41108 0.67242 0.43277 0.0
C6344 C 0.40402 0.67885 0.41577 0.0
C6345 C 0.39524 0.6834 0.42116 0.0
N6346 N 0.38547 0.6861 0.43736 0.0
N6347 N 0.41864 0.66636 0.41628 0.0
C6348 C 0.39444 0.68261 0.43236 0.0
C6349 C 0.41144 0.67256 0.42151 0.0
N6350 N 0.40327 0.67873 0.44902 0.0
N6351 N 0.4054 0.68077 0.4052 0.0
H6352 H 0.42419 0.66162 0.42018 0.0
H6353 H 0.41855 0.66519 0.40812 0.0
H6354 H 0.40011 0.6853 0.40073 0.0
H6355 H 0.41222 0.67867 0.40105 0.0
H6356 H 0.39818 0.68354 0.45339 0.0
H6357 H 0.40927 0.6753 0.45357 0.0
H6358 H 0.38386 0.68467 0.44532 0.0
H6359 H 0.37922 0.68975 0.43336 0.0
C6360 C 0.13356 0.6496 0.18619 0.0
C6361 C 0.13231 0.66043 0.18337 0.0
C6362 C 0.12036 0.65531 0.16885 0.0
C6363 C 0.12112 0.64454 0.17206 0.0
N6364 N 0.12666 0.63167 0.18506 0.0
N6365 N 0.12287 0.67381 0.1735 0.0
C6366 C 0.12719 0.64176 0.18113 0.0
C6367 C 0.1252 0.66334 0.17514 0.0
N6368 N 0.14113 0.64674 0.1934 0.0
N6369 N 0.11537 0.65783 0.15956 0.0
H6370 H 0.12621 0.6799 0.17798 0.0
H6371 H 0.11691 0.67639 0.16839 0.0
H6372 H 0.11171 0.6522 0.15475 0.0
H6373 H 0.11561 0.66536 0.15618 0.0
H6374 H 0.14326 0.6389 0.1949 0.0
H6375 H 0.14593 0.65223 0.1973 0.0
H6376 H 0.13 0.62942 0.19227 0.0
H6377 H 0.12204 0.62575 0.18159 0.0
C6378 C 0.1411 0.37412 0.92657 0.0
C6379 C 0.14398 0.38308 0.93275 0.0
C6380 C 0.16275 0.37987 0.92857 0.0
C6381 C 0.15974 0.37176 0.92136 0.0
N6382 N 0.14593 0.36196 0.91247 0.0
N6383 N 0.1574 0.39537 0.93864 0.0
C6384 C 0.14887 0.36906 0.92012 0.0
C6385 C 0.15478 0.38617 0.93352 0.0
N6386 N 0.13097 0.37029 0.92707 0.0
N6387 N 0.17323 0.38138 0.93087 0.0
H6388 H 0.15182 0.40017 0.9424 0.0
H6389 H 0.16495 0.39868 0.93843 0.0
H6390 H 0.17928 0.37689 0.92744 0.0
H6391 H 0.17589 0.38639 0.93687 0.0
H6392 H 0.12864 0.36315 0.92364 0.0
H6393 H 0.12509 0.37377 0.93173 0.0
H6394 H 0.13808 0.36057 0.91035 0.0
H6395 H 0.15138 0.35806 0.90762 0.0
C6396 C 0.42056 0.39568 0.67184 0.0
C6397 C 0.42285 0.39394 0.68272 0.0
C6398 C 0.43537 0.40889 0.68248 0.0
C6399 C 0.43364 0.4101 0.67142 0.0
N6400 N 0.42604 0.40355 0.65517 0.0
N6401 N 0.43358 0.39773 0.69806 0.0
C6402 C 0.42665 0.40316 0.66598 0.0
C6403 C 0.43059 0.40023 0.68795 0.0
N6404 N 0.41229 0.39043 0.66718 0.0
N6405 N 0.44132 0.41622 0.68781 0.0
H6406 H 0.43018 0.39152 0.70234 0.0
H6407 H 0.43998 0.40124 0.70192 0.0
H6408 H 0.44508 0.42255 0.68404 0.0
H6409 H 0.4419 0.4165 0.69603 0.0
H6410 H 0.40945 0.3922 0.65963 0.0
H6411 H 0.40763 0.3849 0.67119 0.0
H6412 H 0.42199 0.39796 0.65064 0.0
H6413 H 0.43034 0.40895 0.65062 0.0
C6414 C 0.38026 0.13685 0.39829 0.0
C6415 C 0.3713 0.13215 0.39335 0.0
C6416 C 0.37267 0.11685 0.40535 0.0
C6417 C 0.38214 0.12115 0.40967 0.0
N6418 N 0.39594 0.13436 0.40915 0.0
N6419 N 0.35977 0.1171 0.39106 0.0
C6420 C 0.38621 0.13091 0.40582 0.0
C6421 C 0.36771 0.12198 0.39658 0.0
N6422 N 0.3829 0.14711 0.39599 0.0
N6423 N 0.36826 0.10803 0.40985 0.0
H6424 H 0.35586 0.12067 0.38471 0.0
H6425 H 0.35757 0.10923 0.39224 0.0
H6426 H 0.37174 0.10399 0.41617 0.0
H6427 H 0.36077 0.10517 0.40786 0.0
H6428 H 0.38859 0.15139 0.40016 0.0
H6429 H 0.37876 0.1517 0.3905 0.0
H6430 H 0.39988 0.14079 0.40579 0.0
H6431 H 0.40053 0.13026 0.41468 0.0
loop_
_geom_bond_atom_site_label_1
_geom_bond_atom_site_label_2
_geom_bond_distance
_geom_bond_site_symmetry_2
_ccdc_geom_bond_type
C0 C1 1.264 . S
C0 C5 1.479 . S
C0 C10 1.465 . S
C1 C0 1.264 . S
C1 C3 1.339 . S
C1 H28 0.931 . S
C2 C3 1.395 . S
C2 C4 1.320 . S
C3 C1 1.339 . S
C3 C2 1.395 . S
C3 H29 0.929 . S
C4 C2 1.320 . S
C4 C5 1.405 . S
C4 H30 0.930 . S
C5 C0 1.479 . S
C5 C4 1.405 . S
C5 H31 0.931 . S
U6 O7 2.454 . S
U6 O8 2.458 . S
U6 C9 2.984 . S
U6 C10 2.847 . S
U6 C23 2.882 . S
U6 O24 2.441 . S
U6 O25 2.420 . S
U6 O26 2.455 . S
U6 O27 2.449 . S
O7 U6 2.454 . S
O7 C9 1.353 . S
O8 U6 2.458 . S
O8 C9 1.286 . S
C9 U6 2.984 . S
C9 O7 1.353 . S
C9 O8 1.286 . S
C9 C11 1.363 . S
C10 C0 1.465 . S
C10 U6 2.847 . S
C10 O24 1.249 . S
C10 O25 1.202 . S
C11 C9 1.363 . S
C11 C13 1.408 . S
C11 C16 1.342 . S
C12 C13 1.310 . S
C12 C15 1.461 . S
C12 H32 0.932 . S
C13 C11 1.408 . S
C13 C12 1.310 . S
C13 H33 0.930 . S
C14 C15 1.474 . S
C14 C16 1.285 . S
C14 H34 0.929 . S
C15 C12 1.461 . S
C15 C14 1.474 . S
C16 C11 1.342 . S
C16 C14 1.285 . S
C16 H35 0.930 . S
C17 C20 1.424 . S
C17 C22 1.245 . S
C17 C23 1.428 . S
C18 C21 1.260 . S
C18 C22 1.477 . S
C18 H36 0.932 . S
C19 C20 1.384 . S
C19 C21 1.479 . S
C19 H37 0.929 . S
C20 C17 1.424 . S
C20 C19 1.384 . S
C20 H38 0.928 . S
C21 C18 1.260 . S
C21 C19 1.479 . S
C22 C17 1.245 . S
C22 C18 1.477 . S
C22 H39 0.932 . S
C23 U6 2.882 . S
C23 C17 1.428 . S
C23 O26 1.301 . S
C23 O27 1.282 . S
O24 U6 2.441 . S
O24 C10 1.249 . S
O25 U6 2.420 . S
O25 C10 1.202 . S
O26 U6 2.455 . S
O26 C23 1.301 . S
O27 U6 2.449 . S
O27 C23 1.282 . S
H28 C1 0.931 . S
H29 C3 0.929 . S
H30 C4 0.930 . S
H31 C5 0.931 . S
H32 C12 0.932 . S
H33 C13 0.930 . S
H34 C14 0.929 . S
H35 C16 0.930 . S
H36 C18 0.932 . S
H37 C19 0.929 . S
H38 C20 0.928 . S
H39 C22 0.932 . S
C40 C41 1.264 . S
C40 C45 1.479 . S
C40 C50 1.465 . S
C41 C40 1.264 . S
C41 C43 1.339 . S
C41 H68 0.931 . S
C42 C43 1.395 . S
C42 C44 1.320 . S
C43 C41 1.339 . S
C43 C42 1.395 . S
C43 H69 0.929 . S
C44 C42 1.320 . S
C44 C45 1.405 . S
C44 H70 0.930 . S
C45 C40 1.479 . S
C45 C44 1.405 . S
C45 H71 0.931 . S
U46 O47 2.454 . S
U46 O48 2.458 . S
U46 C49 2.984 . S
U46 C50 2.847 . S
U46 C63 2.882 . S
U46 O64 2.441 . S
U46 O65 2.420 . S
U46 O66 2.455 . S
U46 O67 2.449 . S
O47 U46 2.454 . S
O47 C49 1.353 . S
O48 U46 2.458 . S
O48 C49 1.286 . S
C49 U46 2.984 . S
C49 O47 1.353 . S
C49 O48 1.286 . S
C49 C51 1.363 . S
C50 C40 1.465 . S
C50 U46 2.847 . S
C50 O64 1.249 . S
C50 O65 1.202 . S
C51 C49 1.363 . S
C51 C53 1.408 . S
C51 C56 1.342 . S
C52 C53 1.310 . S
C52 C55 1.461 . S
C52 H72 0.932 . S
C53 C51 1.408 . S
C53 C52 1.310 . S
C53 H73 0.930 . S
C54 C55 1.474 . S
C54 C56 1.285 . S
C54 H74 0.929 . S
C55 C52 1.461 . S
C55 C54 1.474 . S
C56 C51 1.342 . S
C56 C54 1.285 . S
C56 H75 0.930 . S
C57 C60 1.424 . S
C57 C62 1.245 . S
C57 C63 1.428 . S
C58 C61 1.260 . S
C58 C62 1.477 . S
C58 H76 0.932 . S
C59 C60 1.384 . S
C59 C61 1.479 . S
C59 H77 0.929 . S
C60 C57 1.424 . S
C60 C59 1.384 . S
C60 H78 0.928 . S
C61 C58 1.260 . S
C61 C59 1.479 . S
C62 C57 1.245 . S
C62 C58 1.477 . S
C62 H79 0.932 . S
C63 U46 2.882 . S
C63 C57 1.428 . S
C63 O66 1.301 . S
C63 O67 1.282 . S
O64 U46 2.441 . S
O64 C50 1.249 . S
O65 U46 2.420 . S
O65 C50 1.202 . S
O66 U46 2.455 . S
O66 C63 1.301 . S
O67 U46 2.449 . S
O67 C63 1.282 . S
H68 C41 0.931 . S
H69 C43 0.929 . S
H70 C44 0.930 . S
H71 C45 0.931 . S
H72 C52 0.932 . S
H73 C53 0.930 . S
H74 C54 0.929 . S
H75 C56 0.930 . S
H76 C58 0.932 . S
H77 C59 0.929 . S
H78 C60 0.928 . S
H79 C62 0.932 . S
C80 C81 1.264 . S
C80 C85 1.479 . S
C80 C90 1.465 . S
C81 C80 1.264 . S
C81 C83 1.339 . S
C81 H108 0.931 . S
C82 C83 1.395 . S
C82 C84 1.320 . S
C83 C81 1.339 . S
C83 C82 1.395 . S
C83 H109 0.929 . S
C84 C82 1.320 . S
C84 C85 1.405 . S
C84 H110 0.930 . S
C85 C80 1.479 . S
C85 C84 1.405 . S
C85 H111 0.931 . S
U86 O87 2.454 . S
U86 O88 2.458 . S
U86 C89 2.984 . S
U86 C90 2.847 . S
U86 C103 2.882 . S
U86 O104 2.441 . S
U86 O105 2.420 . S
U86 O106 2.455 . S
U86 O107 2.449 . S
O87 U86 2.454 . S
O87 C89 1.353 . S
O88 U86 2.458 . S
O88 C89 1.286 . S
C89 U86 2.984 . S
C89 O87 1.353 . S
C89 O88 1.286 . S
C89 C91 1.363 . S
C90 C80 1.465 . S
C90 U86 2.847 . S
C90 O104 1.249 . S
C90 O105 1.202 . S
C91 C89 1.363 . S
C91 C93 1.408 . S
C91 C96 1.342 . S
C92 C93 1.310 . S
C92 C95 1.461 . S
C92 H112 0.932 . S
C93 C91 1.408 . S
C93 C92 1.310 . S
C93 H113 0.930 . S
C94 C95 1.474 . S
C94 C96 1.285 . S
C94 H114 0.929 . S
C95 C92 1.461 . S
C95 C94 1.474 . S
C96 C91 1.342 . S
C96 C94 1.285 . S
C96 H115 0.930 . S
C97 C100 1.424 . S
C97 C102 1.245 . S
C97 C103 1.428 . S
C98 C101 1.260 . S
C98 C102 1.477 . S
C98 H116 0.932 . S
C99 C100 1.384 . S
C99 C101 1.479 . S
C99 H117 0.929 . S
C100 C97 1.424 . S
C100 C99 1.384 . S
C100 H118 0.928 . S
C101 C98 1.260 . S
C101 C99 1.479 . S
C102 C97 1.245 . S
C102 C98 1.477 . S
C102 H119 0.932 . S
C103 U86 2.882 . S
C103 C97 1.428 . S
C103 O106 1.301 . S
C103 O107 1.282 . S
O104 U86 2.441 . S
O104 C90 1.249 . S
O105 U86 2.420 . S
O105 C90 1.202 . S
O106 U86 2.455 . S
O106 C103 1.301 . S
O107 U86 2.449 . S
O107 C103 1.282 . S
H108 C81 0.931 . S
H109 C83 0.929 . S
H110 C84 0.930 . S
H111 C85 0.931 . S
H112 C92 0.932 . S
H113 C93 0.930 . S
H114 C94 0.929 . S
H115 C96 0.930 . S
H116 C98 0.932 . S
H117 C99 0.929 . S
H118 C100 0.928 . S
H119 C102 0.932 . S
C120 C121 1.264 . S
C120 C125 1.479 . S
C120 C130 1.465 . S
C121 C120 1.264 . S
C121 C123 1.339 . S
C121 H148 0.931 . S
C122 C123 1.395 . S
C122 C124 1.320 . S
C123 C121 1.339 . S
C123 C122 1.395 . S
C123 H149 0.929 . S
C124 C122 1.320 . S
C124 C125 1.405 . S
C124 H150 0.930 . S
C125 C120 1.479 . S
C125 C124 1.405 . S
C125 H151 0.931 . S
U126 O127 2.454 . S
U126 O128 2.458 . S
U126 C129 2.984 . S
U126 C130 2.847 . S
U126 C143 2.882 . S
U126 O144 2.441 . S
U126 O145 2.420 . S
U126 O146 2.455 . S
U126 O147 2.449 . S
O127 U126 2.454 . S
O127 C129 1.353 . S
O128 U126 2.458 . S
O128 C129 1.286 . S
C129 U126 2.984 . S
C129 O127 1.353 . S
C129 O128 1.286 . S
C129 C131 1.363 . S
C130 C120 1.465 . S
C130 U126 2.847 . S
C130 O144 1.249 . S
C130 O145 1.202 . S
C131 C129 1.363 . S
C131 C133 1.408 . S
C131 C136 1.342 . S
C132 C133 1.310 . S
C132 C135 1.461 . S
C132 H152 0.932 . S
C133 C131 1.408 . S
C133 C132 1.310 . S
C133 H153 0.930 . S
C134 C135 1.474 . S
C134 C136 1.285 . S
C134 H154 0.929 . S
C135 C132 1.461 . S
C135 C134 1.474 . S
C136 C131 1.342 . S
C136 C134 1.285 . S
C136 H155 0.930 . S
C137 C140 1.424 . S
C137 C142 1.245 . S
C137 C143 1.428 . S
C138 C141 1.260 . S
C138 C142 1.477 . S
C138 H156 0.932 . S
C139 C140 1.384 . S
C139 C141 1.479 . S
C139 H157 0.929 . S
C140 C137 1.424 . S
C140 C139 1.384 . S
C140 H158 0.928 . S
C141 C138 1.260 . S
C141 C139 1.479 . S
C142 C137 1.245 . S
C142 C138 1.477 . S
C142 H159 0.932 . S
C143 U126 2.882 . S
C143 C137 1.428 . S
C143 O146 1.301 . S
C143 O147 1.282 . S
O144 U126 2.441 . S
O144 C130 1.249 . S
O145 U126 2.420 . S
O145 C130 1.202 . S
O146 U126 2.455 . S
O146 C143 1.301 . S
O147 U126 2.449 . S
O147 C143 1.282 . S
H148 C121 0.931 . S
H149 C123 0.929 . S
H150 C124 0.930 . S
H151 C125 0.931 . S
H152 C132 0.932 . S
H153 C133 0.930 . S
H154 C134 0.929 . S
H155 C136 0.930 . S
H156 C138 0.932 . S
H157 C139 0.929 . S
H158 C140 0.928 . S
H159 C142 0.932 . S
C160 C161 1.264 . S
C160 C165 1.479 . S
C160 C170 1.465 . S
C161 C160 1.264 . S
C161 C163 1.339 . S
C161 H188 0.931 . S
C162 C163 1.395 . S
C162 C164 1.320 . S
C163 C161 1.339 . S
C163 C162 1.395 . S
C163 H189 0.929 . S
C164 C162 1.320 . S
C164 C165 1.405 . S
C164 H190 0.930 . S
C165 C160 1.479 . S
C165 C164 1.405 . S
C165 H191 0.931 . S
U166 O167 2.454 . S
U166 O168 2.458 . S
U166 C169 2.984 . S
U166 C170 2.847 . S
U166 C183 2.882 . S
U166 O184 2.441 . S
U166 O185 2.420 . S
U166 O186 2.455 . S
U166 O187 2.449 . S
O167 U166 2.454 . S
O167 C169 1.353 . S
O168 U166 2.458 . S
O168 C169 1.286 . S
C169 U166 2.984 . S
C169 O167 1.353 . S
C169 O168 1.286 . S
C169 C171 1.363 . S
C170 C160 1.465 . S
C170 U166 2.847 . S
C170 O184 1.249 . S
C170 O185 1.202 . S
C171 C169 1.363 . S
C171 C173 1.408 . S
C171 C176 1.342 . S
C172 C173 1.310 . S
C172 C175 1.461 . S
C172 H192 0.932 . S
C173 C171 1.408 . S
C173 C172 1.310 . S
C173 H193 0.930 . S
C174 C175 1.474 . S
C174 C176 1.285 . S
C174 H194 0.929 . S
C175 C172 1.461 . S
C175 C174 1.474 . S
C176 C171 1.342 . S
C176 C174 1.285 . S
C176 H195 0.930 . S
C177 C180 1.424 . S
C177 C182 1.245 . S
C177 C183 1.428 . S
C178 C181 1.260 . S
C178 C182 1.477 . S
C178 H196 0.932 . S
C179 C180 1.384 . S
C179 C181 1.479 . S
C179 H197 0.929 . S
C180 C177 1.424 . S
C180 C179 1.384 . S
C180 H198 0.928 . S
C181 C178 1.260 . S
C181 C179 1.479 . S
C182 C177 1.245 . S
C182 C178 1.477 . S
C182 H199 0.932 . S
C183 U166 2.882 . S
C183 C177 1.428 . S
C183 O186 1.301 . S
C183 O187 1.282 . S
O184 U166 2.441 . S
O184 C170 1.249 . S
O185 U166 2.420 . S
O185 C170 1.202 . S
O186 U166 2.455 . S
O186 C183 1.301 . S
O187 U166 2.449 . S
O187 C183 1.282 . S
H188 C161 0.931 . S
H189 C163 0.929 . S
H190 C164 0.930 . S
H191 C165 0.931 . S
H192 C172 0.932 . S
H193 C173 0.930 . S
H194 C174 0.929 . S
H195 C176 0.930 . S
H196 C178 0.932 . S
H197 C179 0.929 . S
H198 C180 0.928 . S
H199 C182 0.932 . S
C200 C201 1.264 . S
C200 C205 1.479 . S
C200 C210 1.465 . S
C201 C200 1.264 . S
C201 C203 1.339 . S
C201 H228 0.931 . S
C202 C203 1.395 . S
C202 C204 1.320 . S
C203 C201 1.339 . S
C203 C202 1.395 . S
C203 H229 0.929 . S
C204 C202 1.320 . S
C204 C205 1.405 . S
C204 H230 0.930 . S
C205 C200 1.479 . S
C205 C204 1.405 . S
C205 H231 0.931 . S
U206 O207 2.454 . S
U206 O208 2.458 . S
U206 C209 2.984 . S
U206 C210 2.847 . S
U206 C223 2.882 . S
U206 O224 2.441 . S
U206 O225 2.420 . S
U206 O226 2.455 . S
U206 O227 2.449 . S
O207 U206 2.454 . S
O207 C209 1.353 . S
O208 U206 2.458 . S
O208 C209 1.286 . S
C209 U206 2.984 . S
C209 O207 1.353 . S
C209 O208 1.286 . S
C209 C211 1.363 . S
C210 C200 1.465 . S
C210 U206 2.847 . S
C210 O224 1.249 . S
C210 O225 1.202 . S
C211 C209 1.363 . S
C211 C213 1.408 . S
C211 C216 1.342 . S
C212 C213 1.310 . S
C212 C215 1.461 . S
C212 H232 0.932 . S
C213 C211 1.408 . S
C213 C212 1.310 . S
C213 H233 0.930 . S
C214 C215 1.474 . S
C214 C216 1.285 . S
C214 H234 0.929 . S
C215 C212 1.461 . S
C215 C214 1.474 . S
C216 C211 1.342 . S
C216 C214 1.285 . S
C216 H235 0.930 . S
C217 C220 1.424 . S
C217 C222 1.245 . S
C217 C223 1.428 . S
C218 C221 1.260 . S
C218 C222 1.477 . S
C218 H236 0.932 . S
C219 C220 1.384 . S
C219 C221 1.479 . S
C219 H237 0.929 . S
C220 C217 1.424 . S
C220 C219 1.384 . S
C220 H238 0.928 . S
C221 C218 1.260 . S
C221 C219 1.479 . S
C222 C217 1.245 . S
C222 C218 1.477 . S
C222 H239 0.932 . S
C223 U206 2.882 . S
C223 C217 1.428 . S
C223 O226 1.301 . S
C223 O227 1.282 . S
O224 U206 2.441 . S
O224 C210 1.249 . S
O225 U206 2.420 . S
O225 C210 1.202 . S
O226 U206 2.455 . S
O226 C223 1.301 . S
O227 U206 2.449 . S
O227 C223 1.282 . S
H228 C201 0.931 . S
H229 C203 0.929 . S
H230 C204 0.930 . S
H231 C205 0.931 . S
H232 C212 0.932 . S
H233 C213 0.930 . S
H234 C214 0.929 . S
H235 C216 0.930 . S
H236 C218 0.932 . S
H237 C219 0.929 . S
H238 C220 0.928 . S
H239 C222 0.932 . S
C240 C241 1.264 . S
C240 C245 1.479 . S
C240 C250 1.465 . S
C241 C240 1.264 . S
C241 C243 1.339 . S
C241 H268 0.931 . S
C242 C243 1.395 . S
C242 C244 1.320 . S
C243 C241 1.339 . S
C243 C242 1.395 . S
C243 H269 0.929 . S
C244 C242 1.320 . S
C244 C245 1.405 . S
C244 H270 0.930 . S
C245 C240 1.479 . S
C245 C244 1.405 . S
C245 H271 0.931 . S
U246 O247 2.454 . S
U246 O248 2.458 . S
U246 C249 2.984 . S
U246 C250 2.847 . S
U246 C263 2.882 . S
U246 O264 2.441 . S
U246 O265 2.420 . S
U246 O266 2.455 . S
U246 O267 2.449 . S
O247 U246 2.454 . S
O247 C249 1.353 . S
O248 U246 2.458 . S
O248 C249 1.286 . S
C249 U246 2.984 . S
C249 O247 1.353 . S
C249 O248 1.286 . S
C249 C251 1.363 . S
C250 C240 1.465 . S
C250 U246 2.847 . S
C250 O264 1.249 . S
C250 O265 1.202 . S
C251 C249 1.363 . S
C251 C253 1.408 . S
C251 C256 1.342 . S
C252 C253 1.310 . S
C252 C255 1.461 . S
C252 H272 0.932 . S
C253 C251 1.408 . S
C253 C252 1.310 . S
C253 H273 0.930 . S
C254 C255 1.474 . S
C254 C256 1.285 . S
C254 H274 0.929 . S
C255 C252 1.461 . S
C255 C254 1.474 . S
C256 C251 1.342 . S
C256 C254 1.285 . S
C256 H275 0.930 . S
C257 C260 1.424 . S
C257 C262 1.245 . S
C257 C263 1.428 . S
C258 C261 1.260 . S
C258 C262 1.477 . S
C258 H276 0.932 . S
C259 C260 1.384 . S
C259 C261 1.479 . S
C259 H277 0.929 . S
C260 C257 1.424 . S
C260 C259 1.384 . S
C260 H278 0.928 . S
C261 C258 1.260 . S
C261 C259 1.479 . S
C262 C257 1.245 . S
C262 C258 1.477 . S
C262 H279 0.932 . S
C263 U246 2.882 . S
C263 C257 1.428 . S
C263 O266 1.301 . S
C263 O267 1.282 . S
O264 U246 2.441 . S
O264 C250 1.249 . S
O265 U246 2.420 . S
O265 C250 1.202 . S
O266 U246 2.455 . S
O266 C263 1.301 . S
O267 U246 2.449 . S
O267 C263 1.282 . S
H268 C241 0.931 . S
H269 C243 0.929 . S
H270 C244 0.930 . S
H271 C245 0.931 . S
H272 C252 0.932 . S
H273 C253 0.930 . S
H274 C254 0.929 . S
H275 C256 0.930 . S
H276 C258 0.932 . S
H277 C259 0.929 . S
H278 C260 0.928 . S
H279 C262 0.932 . S
C280 C281 1.264 . S
C280 C285 1.479 . S
C280 C290 1.465 . S
C281 C280 1.264 . S
C281 C283 1.339 . S
C281 H308 0.931 . S
C282 C283 1.395 . S
C282 C284 1.320 . S
C283 C281 1.339 . S
C283 C282 1.395 . S
C283 H309 0.929 . S
C284 C282 1.320 . S
C284 C285 1.405 . S
C284 H310 0.930 . S
C285 C280 1.479 . S
C285 C284 1.405 . S
C285 H311 0.931 . S
U286 O287 2.454 . S
U286 O288 2.458 . S
U286 C289 2.984 . S
U286 C290 2.847 . S
U286 C303 2.882 . S
U286 O304 2.441 . S
U286 O305 2.420 . S
U286 O306 2.455 . S
U286 O307 2.449 . S
O287 U286 2.454 . S
O287 C289 1.353 . S
O288 U286 2.458 . S
O288 C289 1.286 . S
C289 U286 2.984 . S
C289 O287 1.353 . S
C289 O288 1.286 . S
C289 C291 1.363 . S
C290 C280 1.465 . S
C290 U286 2.847 . S
C290 O304 1.249 . S
C290 O305 1.202 . S
C291 C289 1.363 . S
C291 C293 1.408 . S
C291 C296 1.342 . S
C292 C293 1.310 . S
C292 C295 1.461 . S
C292 H312 0.932 . S
C293 C291 1.408 . S
C293 C292 1.310 . S
C293 H313 0.930 . S
C294 C295 1.474 . S
C294 C296 1.285 . S
C294 H314 0.929 . S
C295 C292 1.461 . S
C295 C294 1.474 . S
C296 C291 1.342 . S
C296 C294 1.285 . S
C296 H315 0.930 . S
C297 C300 1.424 . S
C297 C302 1.245 . S
C297 C303 1.428 . S
C298 C301 1.260 . S
C298 C302 1.477 . S
C298 H316 0.932 . S
C299 C300 1.384 . S
C299 C301 1.479 . S
C299 H317 0.929 . S
C300 C297 1.424 . S
C300 C299 1.384 . S
C300 H318 0.928 . S
C301 C298 1.260 . S
C301 C299 1.479 . S
C302 C297 1.245 . S
C302 C298 1.477 . S
C302 H319 0.932 . S
C303 U286 2.882 . S
C303 C297 1.428 . S
C303 O306 1.301 . S
C303 O307 1.282 . S
O304 U286 2.441 . S
O304 C290 1.249 . S
O305 U286 2.420 . S
O305 C290 1.202 . S
O306 U286 2.455 . S
O306 C303 1.301 . S
O307 U286 2.449 . S
O307 C303 1.282 . S
H308 C281 0.931 . S
H309 C283 0.929 . S
H310 C284 0.930 . S
H311 C285 0.931 . S
H312 C292 0.932 . S
H313 C293 0.930 . S
H314 C294 0.929 . S
H315 C296 0.930 . S
H316 C298 0.932 . S
H317 C299 0.929 . S
H318 C300 0.928 . S
H319 C302 0.932 . S
C320 C321 1.264 . S
C320 C325 1.479 . S
C320 C330 1.465 . S
C321 C320 1.264 . S
C321 C323 1.339 . S
C321 H348 0.931 . S
C322 C323 1.395 . S
C322 C324 1.320 . S
C323 C321 1.339 . S
C323 C322 1.395 . S
C323 H349 0.929 . S
C324 C322 1.320 . S
C324 C325 1.405 . S
C324 H350 0.930 . S
C325 C320 1.479 . S
C325 C324 1.405 . S
C325 H351 0.931 . S
U326 O327 2.454 . S
U326 O328 2.458 . S
U326 C329 2.984 . S
U326 C330 2.847 . S
U326 C343 2.882 . S
U326 O344 2.441 . S
U326 O345 2.420 . S
U326 O346 2.455 . S
U326 O347 2.449 . S
O327 U326 2.454 . S
O327 C329 1.353 . S
O328 U326 2.458 . S
O328 C329 1.286 . S
C329 U326 2.984 . S
C329 O327 1.353 . S
C329 O328 1.286 . S
C329 C331 1.363 . S
C330 C320 1.465 . S
C330 U326 2.847 . S
C330 O344 1.249 . S
C330 O345 1.202 . S
C331 C329 1.363 . S
C331 C333 1.408 . S
C331 C336 1.342 . S
C332 C333 1.310 . S
C332 C335 1.461 . S
C332 H352 0.932 . S
C333 C331 1.408 . S
C333 C332 1.310 . S
C333 H353 0.930 . S
C334 C335 1.474 . S
C334 C336 1.285 . S
C334 H354 0.929 . S
C335 C332 1.461 . S
C335 C334 1.474 . S
C336 C331 1.342 . S
C336 C334 1.285 . S
C336 H355 0.930 . S
C337 C340 1.424 . S
C337 C342 1.245 . S
C337 C343 1.428 . S
C338 C341 1.260 . S
C338 C342 1.477 . S
C338 H356 0.932 . S
C339 C340 1.384 . S
C339 C341 1.479 . S
C339 H357 0.929 . S
C340 C337 1.424 . S
C340 C339 1.384 . S
C340 H358 0.928 . S
C341 C338 1.260 . S
C341 C339 1.479 . S
C342 C337 1.245 . S
C342 C338 1.477 . S
C342 H359 0.932 . S
C343 U326 2.882 . S
C343 C337 1.428 . S
C343 O346 1.301 . S
C343 O347 1.282 . S
O344 U326 2.441 . S
O344 C330 1.249 . S
O345 U326 2.420 . S
O345 C330 1.202 . S
O346 U326 2.455 . S
O346 C343 1.301 . S
O347 U326 2.449 . S
O347 C343 1.282 . S
H348 C321 0.931 . S
H349 C323 0.929 . S
H350 C324 0.930 . S
H351 C325 0.931 . S
H352 C332 0.932 . S
H353 C333 0.930 . S
H354 C334 0.929 . S
H355 C336 0.930 . S
H356 C338 0.932 . S
H357 C339 0.929 . S
H358 C340 0.928 . S
H359 C342 0.932 . S
C360 C361 1.264 . S
C360 C365 1.479 . S
C360 C370 1.465 . S
C361 C360 1.264 . S
C361 C363 1.339 . S
C361 H388 0.931 . S
C362 C363 1.395 . S
C362 C364 1.320 . S
C363 C361 1.339 . S
C363 C362 1.395 . S
C363 H389 0.929 . S
C364 C362 1.320 . S
C364 C365 1.405 . S
C364 H390 0.930 . S
C365 C360 1.479 . S
C365 C364 1.405 . S
C365 H391 0.931 . S
U366 O367 2.454 . S
U366 O368 2.458 . S
U366 C369 2.984 . S
U366 C370 2.847 . S
U366 C383 2.882 . S
U366 O384 2.441 . S
U366 O385 2.420 . S
U366 O386 2.455 . S
U366 O387 2.449 . S
O367 U366 2.454 . S
O367 C369 1.353 . S
O368 U366 2.458 . S
O368 C369 1.286 . S
C369 U366 2.984 . S
C369 O367 1.353 . S
C369 O368 1.286 . S
C369 C371 1.363 . S
C370 C360 1.465 . S
C370 U366 2.847 . S
C370 O384 1.249 . S
C370 O385 1.202 . S
C371 C369 1.363 . S
C371 C373 1.408 . S
C371 C376 1.342 . S
C372 C373 1.310 . S
C372 C375 1.461 . S
C372 H392 0.932 . S
C373 C371 1.408 . S
C373 C372 1.310 . S
C373 H393 0.930 . S
C374 C375 1.474 . S
C374 C376 1.285 . S
C374 H394 0.929 . S
C375 C372 1.461 . S
C375 C374 1.474 . S
C376 C371 1.342 . S
C376 C374 1.285 . S
C376 H395 0.930 . S
C377 C380 1.424 . S
C377 C382 1.245 . S
C377 C383 1.428 . S
C378 C381 1.260 . S
C378 C382 1.477 . S
C378 H396 0.932 . S
C379 C380 1.384 . S
C379 C381 1.479 . S
C379 H397 0.929 . S
C380 C377 1.424 . S
C380 C379 1.384 . S
C380 H398 0.928 . S
C381 C378 1.260 . S
C381 C379 1.479 . S
C382 C377 1.245 . S
C382 C378 1.477 . S
C382 H399 0.932 . S
C383 U366 2.882 . S
C383 C377 1.428 . S
C383 O386 1.301 . S
C383 O387 1.282 . S
O384 U366 2.441 . S
O384 C370 1.249 . S
O385 U366 2.420 . S
O385 C370 1.202 . S
O386 U366 2.455 . S
O386 C383 1.301 . S
O387 U366 2.449 . S
O387 C383 1.282 . S
H388 C361 0.931 . S
H389 C363 0.929 . S
H390 C364 0.930 . S
H391 C365 0.931 . S
H392 C372 0.932 . S
H393 C373 0.930 . S
H394 C374 0.929 . S
H395 C376 0.930 . S
H396 C378 0.932 . S
H397 C379 0.929 . S
H398 C380 0.928 . S
H399 C382 0.932 . S
C400 C401 1.264 . S
C400 C405 1.479 . S
C400 C410 1.465 . S
C401 C400 1.264 . S
C401 C403 1.339 . S
C401 H428 0.931 . S
C402 C403 1.395 . S
C402 C404 1.320 . S
C403 C401 1.339 . S
C403 C402 1.395 . S
C403 H429 0.929 . S
C404 C402 1.320 . S
C404 C405 1.405 . S
C404 H430 0.930 . S
C405 C400 1.479 . S
C405 C404 1.405 . S
C405 H431 0.931 . S
U406 O407 2.454 . S
U406 O408 2.458 . S
U406 C409 2.984 . S
U406 C410 2.847 . S
U406 C423 2.882 . S
U406 O424 2.441 . S
U406 O425 2.420 . S
U406 O426 2.455 . S
U406 O427 2.449 . S
O407 U406 2.454 . S
O407 C409 1.353 . S
O408 U406 2.458 . S
O408 C409 1.286 . S
C409 U406 2.984 . S
C409 O407 1.353 . S
C409 O408 1.286 . S
C409 C411 1.363 . S
C410 C400 1.465 . S
C410 U406 2.847 . S
C410 O424 1.249 . S
C410 O425 1.202 . S
C411 C409 1.363 . S
C411 C413 1.408 . S
C411 C416 1.342 . S
C412 C413 1.310 . S
C412 C415 1.461 . S
C412 H432 0.932 . S
C413 C411 1.408 . S
C413 C412 1.310 . S
C413 H433 0.930 . S
C414 C415 1.474 . S
C414 C416 1.285 . S
C414 H434 0.929 . S
C415 C412 1.461 . S
C415 C414 1.474 . S
C416 C411 1.342 . S
C416 C414 1.285 . S
C416 H435 0.930 . S
C417 C420 1.424 . S
C417 C422 1.245 . S
C417 C423 1.428 . S
C418 C421 1.260 . S
C418 C422 1.477 . S
C418 H436 0.932 . S
C419 C420 1.384 . S
C419 C421 1.479 . S
C419 H437 0.929 . S
C420 C417 1.424 . S
C420 C419 1.384 . S
C420 H438 0.928 . S
C421 C418 1.260 . S
C421 C419 1.479 . S
C422 C417 1.245 . S
C422 C418 1.477 . S
C422 H439 0.932 . S
C423 U406 2.882 . S
C423 C417 1.428 . S
C423 O426 1.301 . S
C423 O427 1.282 . S
O424 U406 2.441 . S
O424 C410 1.249 . S
O425 U406 2.420 . S
O425 C410 1.202 . S
O426 U406 2.455 . S
O426 C423 1.301 . S
O427 U406 2.449 . S
O427 C423 1.282 . S
H428 C401 0.931 . S
H429 C403 0.929 . S
H430 C404 0.930 . S
H431 C405 0.931 . S
H432 C412 0.932 . S
H433 C413 0.930 . S
H434 C414 0.929 . S
H435 C416 0.930 . S
H436 C418 0.932 . S
H437 C419 0.929 . S
H438 C420 0.928 . S
H439 C422 0.932 . S
C440 C441 1.264 . S
C440 C445 1.479 . S
C440 C450 1.465 . S
C441 C440 1.264 . S
C441 C443 1.339 . S
C441 H468 0.931 . S
C442 C443 1.395 . S
C442 C444 1.320 . S
C443 C441 1.339 . S
C443 C442 1.395 . S
C443 H469 0.929 . S
C444 C442 1.320 . S
C444 C445 1.405 . S
C444 H470 0.930 . S
C445 C440 1.479 . S
C445 C444 1.405 . S
C445 H471 0.931 . S
U446 O447 2.454 . S
U446 O448 2.458 . S
U446 C449 2.984 . S
U446 C450 2.847 . S
U446 C463 2.882 . S
U446 O464 2.441 . S
U446 O465 2.420 . S
U446 O466 2.455 . S
U446 O467 2.449 . S
O447 U446 2.454 . S
O447 C449 1.353 . S
O448 U446 2.458 . S
O448 C449 1.286 . S
C449 U446 2.984 . S
C449 O447 1.353 . S
C449 O448 1.286 . S
C449 C451 1.363 . S
C450 C440 1.465 . S
C450 U446 2.847 . S
C450 O464 1.249 . S
C450 O465 1.202 . S
C451 C449 1.363 . S
C451 C453 1.408 . S
C451 C456 1.342 . S
C452 C453 1.310 . S
C452 C455 1.461 . S
C452 H472 0.932 . S
C453 C451 1.408 . S
C453 C452 1.310 . S
C453 H473 0.930 . S
C454 C455 1.474 . S
C454 C456 1.285 . S
C454 H474 0.929 . S
C455 C452 1.461 . S
C455 C454 1.474 . S
C456 C451 1.342 . S
C456 C454 1.285 . S
C456 H475 0.930 . S
C457 C460 1.424 . S
C457 C462 1.245 . S
C457 C463 1.428 . S
C458 C461 1.260 . S
C458 C462 1.477 . S
C458 H476 0.932 . S
C459 C460 1.384 . S
C459 C461 1.479 . S
C459 H477 0.929 . S
C460 C457 1.424 . S
C460 C459 1.384 . S
C460 H478 0.928 . S
C461 C458 1.260 . S
C461 C459 1.479 . S
C462 C457 1.245 . S
C462 C458 1.477 . S
C462 H479 0.932 . S
C463 U446 2.882 . S
C463 C457 1.428 . S
C463 O466 1.301 . S
C463 O467 1.282 . S
O464 U446 2.441 . S
O464 C450 1.249 . S
O465 U446 2.420 . S
O465 C450 1.202 . S
O466 U446 2.455 . S
O466 C463 1.301 . S
O467 U446 2.449 . S
O467 C463 1.282 . S
H468 C441 0.931 . S
H469 C443 0.929 . S
H470 C444 0.930 . S
H471 C445 0.931 . S
H472 C452 0.932 . S
H473 C453 0.930 . S
H474 C454 0.929 . S
H475 C456 0.930 . S
H476 C458 0.932 . S
H477 C459 0.929 . S
H478 C460 0.928 . S
H479 C462 0.932 . S
C480 C481 1.264 . S
C480 C485 1.479 . S
C480 C490 1.465 . S
C481 C480 1.264 . S
C481 C483 1.339 . S
C481 H508 0.931 . S
C482 C483 1.395 . S
C482 C484 1.320 . S
C483 C481 1.339 . S
C483 C482 1.395 . S
C483 H509 0.929 . S
C484 C482 1.320 . S
C484 C485 1.405 . S
C484 H510 0.930 . S
C485 C480 1.479 . S
C485 C484 1.405 . S
C485 H511 0.931 . S
U486 O487 2.454 . S
U486 O488 2.458 . S
U486 C489 2.984 . S
U486 C490 2.847 . S
U486 C503 2.882 . S
U486 O504 2.441 . S
U486 O505 2.420 . S
U486 O506 2.455 . S
U486 O507 2.449 . S
O487 U486 2.454 . S
O487 C489 1.353 . S
O488 U486 2.458 . S
O488 C489 1.286 . S
C489 U486 2.984 . S
C489 O487 1.353 . S
C489 O488 1.286 . S
C489 C491 1.363 . S
C490 C480 1.465 . S
C490 U486 2.847 . S
C490 O504 1.249 . S
C490 O505 1.202 . S
C491 C489 1.363 . S
C491 C493 1.408 . S
C491 C496 1.342 . S
C492 C493 1.310 . S
C492 C495 1.461 . S
C492 H512 0.932 . S
C493 C491 1.408 . S
C493 C492 1.310 . S
C493 H513 0.930 . S
C494 C495 1.474 . S
C494 C496 1.285 . S
C494 H514 0.929 . S
C495 C492 1.461 . S
C495 C494 1.474 . S
C496 C491 1.342 . S
C496 C494 1.285 . S
C496 H515 0.930 . S
C497 C500 1.424 . S
C497 C502 1.245 . S
C497 C503 1.428 . S
C498 C501 1.260 . S
C498 C502 1.477 . S
C498 H516 0.932 . S
C499 C500 1.384 . S
C499 C501 1.479 . S
C499 H517 0.929 . S
C500 C497 1.424 . S
C500 C499 1.384 . S
C500 H518 0.928 . S
C501 C498 1.260 . S
C501 C499 1.479 . S
C502 C497 1.245 . S
C502 C498 1.477 . S
C502 H519 0.932 . S
C503 U486 2.882 . S
C503 C497 1.428 . S
C503 O506 1.301 . S
C503 O507 1.282 . S
O504 U486 2.441 . S
O504 C490 1.249 . S
O505 U486 2.420 . S
O505 C490 1.202 . S
O506 U486 2.455 . S
O506 C503 1.301 . S
O507 U486 2.449 . S
O507 C503 1.282 . S
H508 C481 0.931 . S
H509 C483 0.929 . S
H510 C484 0.930 . S
H511 C485 0.931 . S
H512 C492 0.932 . S
H513 C493 0.930 . S
H514 C494 0.929 . S
H515 C496 0.930 . S
H516 C498 0.932 . S
H517 C499 0.929 . S
H518 C500 0.928 . S
H519 C502 0.932 . S
C520 C521 1.264 . S
C520 C525 1.479 . S
C520 C530 1.465 . S
C521 C520 1.264 . S
C521 C523 1.339 . S
C521 H548 0.931 . S
C522 C523 1.395 . S
C522 C524 1.320 . S
C523 C521 1.339 . S
C523 C522 1.395 . S
C523 H549 0.929 . S
C524 C522 1.320 . S
C524 C525 1.405 . S
C524 H550 0.930 . S
C525 C520 1.479 . S
C525 C524 1.405 . S
C525 H551 0.931 . S
U526 O527 2.454 . S
U526 O528 2.458 . S
U526 C529 2.984 . S
U526 C530 2.847 . S
U526 C543 2.882 . S
U526 O544 2.441 . S
U526 O545 2.420 . S
U526 O546 2.455 . S
U526 O547 2.449 . S
O527 U526 2.454 . S
O527 C529 1.353 . S
O528 U526 2.458 . S
O528 C529 1.286 . S
C529 U526 2.984 . S
C529 O527 1.353 . S
C529 O528 1.286 . S
C529 C531 1.363 . S
C530 C520 1.465 . S
C530 U526 2.847 . S
C530 O544 1.249 . S
C530 O545 1.202 . S
C531 C529 1.363 . S
C531 C533 1.408 . S
C531 C536 1.342 . S
C532 C533 1.310 . S
C532 C535 1.461 . S
C532 H552 0.932 . S
C533 C531 1.408 . S
C533 C532 1.310 . S
C533 H553 0.930 . S
C534 C535 1.474 . S
C534 C536 1.285 . S
C534 H554 0.929 . S
C535 C532 1.461 . S
C535 C534 1.474 . S
C536 C531 1.342 . S
C536 C534 1.285 . S
C536 H555 0.930 . S
C537 C540 1.424 . S
C537 C542 1.245 . S
C537 C543 1.428 . S
C538 C541 1.260 . S
C538 C542 1.477 . S
C538 H556 0.932 . S
C539 C540 1.384 . S
C539 C541 1.479 . S
C539 H557 0.929 . S
C540 C537 1.424 . S
C540 C539 1.384 . S
C540 H558 0.928 . S
C541 C538 1.260 . S
C541 C539 1.479 . S
C542 C537 1.245 . S
C542 C538 1.477 . S
C542 H559 0.932 . S
C543 U526 2.882 . S
C543 C537 1.428 . S
C543 O546 1.301 . S
C543 O547 1.282 . S
O544 U526 2.441 . S
O544 C530 1.249 . S
O545 U526 2.420 . S
O545 C530 1.202 . S
O546 U526 2.455 . S
O546 C543 1.301 . S
O547 U526 2.449 . S
O547 C543 1.282 . S
H548 C521 0.931 . S
H549 C523 0.929 . S
H550 C524 0.930 . S
H551 C525 0.931 . S
H552 C532 0.932 . S
H553 C533 0.930 . S
H554 C534 0.929 . S
H555 C536 0.930 . S
H556 C538 0.932 . S
H557 C539 0.929 . S
H558 C540 0.928 . S
H559 C542 0.932 . S
C560 C561 1.264 . S
C560 C565 1.479 . S
C560 C570 1.465 . S
C561 C560 1.264 . S
C561 C563 1.339 . S
C561 H588 0.931 . S
C562 C563 1.395 . S
C562 C564 1.320 . S
C563 C561 1.339 . S
C563 C562 1.395 . S
C563 H589 0.929 . S
C564 C562 1.320 . S
C564 C565 1.405 . S
C564 H590 0.930 . S
C565 C560 1.479 . S
C565 C564 1.405 . S
C565 H591 0.931 . S
U566 O567 2.454 . S
U566 O568 2.458 . S
U566 C569 2.984 . S
U566 C570 2.847 . S
U566 C583 2.882 . S
U566 O584 2.441 . S
U566 O585 2.420 . S
U566 O586 2.455 . S
U566 O587 2.449 . S
O567 U566 2.454 . S
O567 C569 1.353 . S
O568 U566 2.458 . S
O568 C569 1.286 . S
C569 U566 2.984 . S
C569 O567 1.353 . S
C569 O568 1.286 . S
C569 C571 1.363 . S
C570 C560 1.465 . S
C570 U566 2.847 . S
C570 O584 1.249 . S
C570 O585 1.202 . S
C571 C569 1.363 . S
C571 C573 1.408 . S
C571 C576 1.342 . S
C572 C573 1.310 . S
C572 C575 1.461 . S
C572 H592 0.932 . S
C573 C571 1.408 . S
C573 C572 1.310 . S
C573 H593 0.930 . S
C574 C575 1.474 . S
C574 C576 1.285 . S
C574 H594 0.929 . S
C575 C572 1.461 . S
C575 C574 1.474 . S
C576 C571 1.342 . S
C576 C574 1.285 . S
C576 H595 0.930 . S
C577 C580 1.424 . S
C577 C582 1.245 . S
C577 C583 1.428 . S
C578 C581 1.260 . S
C578 C582 1.477 . S
C578 H596 0.932 . S
C579 C580 1.384 . S
C579 C581 1.479 . S
C579 H597 0.929 . S
C580 C577 1.424 . S
C580 C579 1.384 . S
C580 H598 0.928 . S
C581 C578 1.260 . S
C581 C579 1.479 . S
C582 C577 1.245 . S
C582 C578 1.477 . S
C582 H599 0.932 . S
C583 U566 2.882 . S
C583 C577 1.428 . S
C583 O586 1.301 . S
C583 O587 1.282 . S
O584 U566 2.441 . S
O584 C570 1.249 . S
O585 U566 2.420 . S
O585 C570 1.202 . S
O586 U566 2.455 . S
O586 C583 1.301 . S
O587 U566 2.449 . S
O587 C583 1.282 . S
H588 C561 0.931 . S
H589 C563 0.929 . S
H590 C564 0.930 . S
H591 C565 0.931 . S
H592 C572 0.932 . S
H593 C573 0.930 . S
H594 C574 0.929 . S
H595 C576 0.930 . S
H596 C578 0.932 . S
H597 C579 0.929 . S
H598 C580 0.928 . S
H599 C582 0.932 . S
C600 C601 1.264 . S
C600 C605 1.479 . S
C600 C610 1.465 . S
C601 C600 1.264 . S
C601 C603 1.339 . S
C601 H628 0.931 . S
C602 C603 1.395 . S
C602 C604 1.320 . S
C603 C601 1.339 . S
C603 C602 1.395 . S
C603 H629 0.929 . S
C604 C602 1.320 . S
C604 C605 1.405 . S
C604 H630 0.930 . S
C605 C600 1.479 . S
C605 C604 1.405 . S
C605 H631 0.931 . S
U606 O607 2.454 . S
U606 O608 2.458 . S
U606 C609 2.984 . S
U606 C610 2.847 . S
U606 C623 2.882 . S
U606 O624 2.441 . S
U606 O625 2.420 . S
U606 O626 2.455 . S
U606 O627 2.449 . S
O607 U606 2.454 . S
O607 C609 1.353 . S
O608 U606 2.458 . S
O608 C609 1.286 . S
C609 U606 2.984 . S
C609 O607 1.353 . S
C609 O608 1.286 . S
C609 C611 1.363 . S
C610 C600 1.465 . S
C610 U606 2.847 . S
C610 O624 1.249 . S
C610 O625 1.202 . S
C611 C609 1.363 . S
C611 C613 1.408 . S
C611 C616 1.342 . S
C612 C613 1.310 . S
C612 C615 1.461 . S
C612 H632 0.932 . S
C613 C611 1.408 . S
C613 C612 1.310 . S
C613 H633 0.930 . S
C614 C615 1.474 . S
C614 C616 1.285 . S
C614 H634 0.929 . S
C615 C612 1.461 . S
C615 C614 1.474 . S
C616 C611 1.342 . S
C616 C614 1.285 . S
C616 H635 0.930 . S
C617 C620 1.424 . S
C617 C622 1.245 . S
C617 C623 1.428 . S
C618 C621 1.260 . S
C618 C622 1.477 . S
C618 H636 0.932 . S
C619 C620 1.384 . S
C619 C621 1.479 . S
C619 H637 0.929 . S
C620 C617 1.424 . S
C620 C619 1.384 . S
C620 H638 0.928 . S
C621 C618 1.260 . S
C621 C619 1.479 . S
C622 C617 1.245 . S
C622 C618 1.477 . S
C622 H639 0.932 . S
C623 U606 2.882 . S
C623 C617 1.428 . S
C623 O626 1.301 . S
C623 O627 1.282 . S
O624 U606 2.441 . S
O624 C610 1.249 . S
O625 U606 2.420 . S
O625 C610 1.202 . S
O626 U606 2.455 . S
O626 C623 1.301 . S
O627 U606 2.449 . S
O627 C623 1.282 . S
H628 C601 0.931 . S
H629 C603 0.929 . S
H630 C604 0.930 . S
H631 C605 0.931 . S
H632 C612 0.932 . S
H633 C613 0.930 . S
H634 C614 0.929 . S
H635 C616 0.930 . S
H636 C618 0.932 . S
H637 C619 0.929 . S
H638 C620 0.928 . S
H639 C622 0.932 . S
C640 C641 1.264 . S
C640 C645 1.479 . S
C640 C650 1.465 . S
C641 C640 1.264 . S
C641 C643 1.339 . S
C641 H668 0.931 . S
C642 C643 1.395 . S
C642 C644 1.320 . S
C643 C641 1.339 . S
C643 C642 1.395 . S
C643 H669 0.929 . S
C644 C642 1.320 . S
C644 C645 1.405 . S
C644 H670 0.930 . S
C645 C640 1.479 . S
C645 C644 1.405 . S
C645 H671 0.931 . S
U646 O647 2.454 . S
U646 O648 2.458 . S
U646 C649 2.984 . S
U646 C650 2.847 . S
U646 C663 2.882 . S
U646 O664 2.441 . S
U646 O665 2.420 . S
U646 O666 2.455 . S
U646 O667 2.449 . S
O647 U646 2.454 . S
O647 C649 1.353 . S
O648 U646 2.458 . S
O648 C649 1.286 . S
C649 U646 2.984 . S
C649 O647 1.353 . S
C649 O648 1.286 . S
C649 C651 1.363 . S
C650 C640 1.465 . S
C650 U646 2.847 . S
C650 O664 1.249 . S
C650 O665 1.202 . S
C651 C649 1.363 . S
C651 C653 1.408 . S
C651 C656 1.342 . S
C652 C653 1.310 . S
C652 C655 1.461 . S
C652 H672 0.932 . S
C653 C651 1.408 . S
C653 C652 1.310 . S
C653 H673 0.930 . S
C654 C655 1.474 . S
C654 C656 1.285 . S
C654 H674 0.929 . S
C655 C652 1.461 . S
C655 C654 1.474 . S
C656 C651 1.342 . S
C656 C654 1.285 . S
C656 H675 0.930 . S
C657 C660 1.424 . S
C657 C662 1.245 . S
C657 C663 1.428 . S
C658 C661 1.260 . S
C658 C662 1.477 . S
C658 H676 0.932 . S
C659 C660 1.384 . S
C659 C661 1.479 . S
C659 H677 0.929 . S
C660 C657 1.424 . S
C660 C659 1.384 . S
C660 H678 0.928 . S
C661 C658 1.260 . S
C661 C659 1.479 . S
C662 C657 1.245 . S
C662 C658 1.477 . S
C662 H679 0.932 . S
C663 U646 2.882 . S
C663 C657 1.428 . S
C663 O666 1.301 . S
C663 O667 1.282 . S
O664 U646 2.441 . S
O664 C650 1.249 . S
O665 U646 2.420 . S
O665 C650 1.202 . S
O666 U646 2.455 . S
O666 C663 1.301 . S
O667 U646 2.449 . S
O667 C663 1.282 . S
H668 C641 0.931 . S
H669 C643 0.929 . S
H670 C644 0.930 . S
H671 C645 0.931 . S
H672 C652 0.932 . S
H673 C653 0.930 . S
H674 C654 0.929 . S
H675 C656 0.930 . S
H676 C658 0.932 . S
H677 C659 0.929 . S
H678 C660 0.928 . S
H679 C662 0.932 . S
C680 C681 1.264 . S
C680 C685 1.479 . S
C680 C690 1.465 . S
C681 C680 1.264 . S
C681 C683 1.339 . S
C681 H708 0.931 . S
C682 C683 1.395 . S
C682 C684 1.320 . S
C683 C681 1.339 . S
C683 C682 1.395 . S
C683 H709 0.929 . S
C684 C682 1.320 . S
C684 C685 1.405 . S
C684 H710 0.930 . S
C685 C680 1.479 . S
C685 C684 1.405 . S
C685 H711 0.931 . S
U686 O687 2.454 . S
U686 O688 2.458 . S
U686 C689 2.984 . S
U686 C690 2.847 . S
U686 C703 2.882 . S
U686 O704 2.441 . S
U686 O705 2.420 . S
U686 O706 2.455 . S
U686 O707 2.449 . S
O687 U686 2.454 . S
O687 C689 1.353 . S
O688 U686 2.458 . S
O688 C689 1.286 . S
C689 U686 2.984 . S
C689 O687 1.353 . S
C689 O688 1.286 . S
C689 C691 1.363 . S
C690 C680 1.465 . S
C690 U686 2.847 . S
C690 O704 1.249 . S
C690 O705 1.202 . S
C691 C689 1.363 . S
C691 C693 1.408 . S
C691 C696 1.342 . S
C692 C693 1.310 . S
C692 C695 1.461 . S
C692 H712 0.932 . S
C693 C691 1.408 . S
C693 C692 1.310 . S
C693 H713 0.930 . S
C694 C695 1.474 . S
C694 C696 1.285 . S
C694 H714 0.929 . S
C695 C692 1.461 . S
C695 C694 1.474 . S
C696 C691 1.342 . S
C696 C694 1.285 . S
C696 H715 0.930 . S
C697 C700 1.424 . S
C697 C702 1.245 . S
C697 C703 1.428 . S
C698 C701 1.260 . S
C698 C702 1.477 . S
C698 H716 0.932 . S
C699 C700 1.384 . S
C699 C701 1.479 . S
C699 H717 0.929 . S
C700 C697 1.424 . S
C700 C699 1.384 . S
C700 H718 0.928 . S
C701 C698 1.260 . S
C701 C699 1.479 . S
C702 C697 1.245 . S
C702 C698 1.477 . S
C702 H719 0.932 . S
C703 U686 2.882 . S
C703 C697 1.428 . S
C703 O706 1.301 . S
C703 O707 1.282 . S
O704 U686 2.441 . S
O704 C690 1.249 . S
O705 U686 2.420 . S
O705 C690 1.202 . S
O706 U686 2.455 . S
O706 C703 1.301 . S
O707 U686 2.449 . S
O707 C703 1.282 . S
H708 C681 0.931 . S
H709 C683 0.929 . S
H710 C684 0.930 . S
H711 C685 0.931 . S
H712 C692 0.932 . S
H713 C693 0.930 . S
H714 C694 0.929 . S
H715 C696 0.930 . S
H716 C698 0.932 . S
H717 C699 0.929 . S
H718 C700 0.928 . S
H719 C702 0.932 . S
C720 C721 1.264 . S
C720 C725 1.479 . S
C720 C730 1.465 . S
C721 C720 1.264 . S
C721 C723 1.339 . S
C721 H748 0.931 . S
C722 C723 1.395 . S
C722 C724 1.320 . S
C723 C721 1.339 . S
C723 C722 1.395 . S
C723 H749 0.929 . S
C724 C722 1.320 . S
C724 C725 1.405 . S
C724 H750 0.930 . S
C725 C720 1.479 . S
C725 C724 1.405 . S
C725 H751 0.931 . S
U726 O727 2.454 . S
U726 O728 2.458 . S
U726 C729 2.984 . S
U726 C730 2.847 . S
U726 C743 2.882 . S
U726 O744 2.441 . S
U726 O745 2.420 . S
U726 O746 2.455 . S
U726 O747 2.449 . S
O727 U726 2.454 . S
O727 C729 1.353 . S
O728 U726 2.458 . S
O728 C729 1.286 . S
C729 U726 2.984 . S
C729 O727 1.353 . S
C729 O728 1.286 . S
C729 C731 1.363 . S
C730 C720 1.465 . S
C730 U726 2.847 . S
C730 O744 1.249 . S
C730 O745 1.202 . S
C731 C729 1.363 . S
C731 C733 1.408 . S
C731 C736 1.342 . S
C732 C733 1.310 . S
C732 C735 1.461 . S
C732 H752 0.932 . S
C733 C731 1.408 . S
C733 C732 1.310 . S
C733 H753 0.930 . S
C734 C735 1.474 . S
C734 C736 1.285 . S
C734 H754 0.929 . S
C735 C732 1.461 . S
C735 C734 1.474 . S
C736 C731 1.342 . S
C736 C734 1.285 . S
C736 H755 0.930 . S
C737 C740 1.424 . S
C737 C742 1.245 . S
C737 C743 1.428 . S
C738 C741 1.260 . S
C738 C742 1.477 . S
C738 H756 0.932 . S
C739 C740 1.384 . S
C739 C741 1.479 . S
C739 H757 0.929 . S
C740 C737 1.424 . S
C740 C739 1.384 . S
C740 H758 0.928 . S
C741 C738 1.260 . S
C741 C739 1.479 . S
C742 C737 1.245 . S
C742 C738 1.477 . S
C742 H759 0.932 . S
C743 U726 2.882 . S
C743 C737 1.428 . S
C743 O746 1.301 . S
C743 O747 1.282 . S
O744 U726 2.441 . S
O744 C730 1.249 . S
O745 U726 2.420 . S
O745 C730 1.202 . S
O746 U726 2.455 . S
O746 C743 1.301 . S
O747 U726 2.449 . S
O747 C743 1.282 . S
H748 C721 0.931 . S
H749 C723 0.929 . S
H750 C724 0.930 . S
H751 C725 0.931 . S
H752 C732 0.932 . S
H753 C733 0.930 . S
H754 C734 0.929 . S
H755 C736 0.930 . S
H756 C738 0.932 . S
H757 C739 0.929 . S
H758 C740 0.928 . S
H759 C742 0.932 . S
C760 C761 1.264 . S
C760 C765 1.479 . S
C760 C770 1.465 . S
C761 C760 1.264 . S
C761 C763 1.339 . S
C761 H788 0.931 . S
C762 C763 1.395 . S
C762 C764 1.320 . S
C763 C761 1.339 . S
C763 C762 1.395 . S
C763 H789 0.929 . S
C764 C762 1.320 . S
C764 C765 1.405 . S
C764 H790 0.930 . S
C765 C760 1.479 . S
C765 C764 1.405 . S
C765 H791 0.931 . S
U766 O767 2.454 . S
U766 O768 2.458 . S
U766 C769 2.984 . S
U766 C770 2.847 . S
U766 C783 2.882 . S
U766 O784 2.441 . S
U766 O785 2.420 . S
U766 O786 2.455 . S
U766 O787 2.449 . S
O767 U766 2.454 . S
O767 C769 1.353 . S
O768 U766 2.458 . S
O768 C769 1.286 . S
C769 U766 2.984 . S
C769 O767 1.353 . S
C769 O768 1.286 . S
C769 C771 1.363 . S
C770 C760 1.465 . S
C770 U766 2.847 . S
C770 O784 1.249 . S
C770 O785 1.202 . S
C771 C769 1.363 . S
C771 C773 1.408 . S
C771 C776 1.342 . S
C772 C773 1.310 . S
C772 C775 1.461 . S
C772 H792 0.932 . S
C773 C771 1.408 . S
C773 C772 1.310 . S
C773 H793 0.930 . S
C774 C775 1.474 . S
C774 C776 1.285 . S
C774 H794 0.929 . S
C775 C772 1.461 . S
C775 C774 1.474 . S
C776 C771 1.342 . S
C776 C774 1.285 . S
C776 H795 0.930 . S
C777 C780 1.424 . S
C777 C782 1.245 . S
C777 C783 1.428 . S
C778 C781 1.260 . S
C778 C782 1.477 . S
C778 H796 0.932 . S
C779 C780 1.384 . S
C779 C781 1.479 . S
C779 H797 0.929 . S
C780 C777 1.424 . S
C780 C779 1.384 . S
C780 H798 0.928 . S
C781 C778 1.260 . S
C781 C779 1.479 . S
C782 C777 1.245 . S
C782 C778 1.477 . S
C782 H799 0.932 . S
C783 U766 2.882 . S
C783 C777 1.428 . S
C783 O786 1.301 . S
C783 O787 1.282 . S
O784 U766 2.441 . S
O784 C770 1.249 . S
O785 U766 2.420 . S
O785 C770 1.202 . S
O786 U766 2.455 . S
O786 C783 1.301 . S
O787 U766 2.449 . S
O787 C783 1.282 . S
H788 C761 0.931 . S
H789 C763 0.929 . S
H790 C764 0.930 . S
H791 C765 0.931 . S
H792 C772 0.932 . S
H793 C773 0.930 . S
H794 C774 0.929 . S
H795 C776 0.930 . S
H796 C778 0.932 . S
H797 C779 0.929 . S
H798 C780 0.928 . S
H799 C782 0.932 . S
C800 C801 1.264 . S
C800 C805 1.479 . S
C800 C810 1.465 . S
C801 C800 1.264 . S
C801 C803 1.339 . S
C801 H828 0.931 . S
C802 C803 1.395 . S
C802 C804 1.320 . S
C803 C801 1.339 . S
C803 C802 1.395 . S
C803 H829 0.929 . S
C804 C802 1.320 . S
C804 C805 1.405 . S
C804 H830 0.930 . S
C805 C800 1.479 . S
C805 C804 1.405 . S
C805 H831 0.931 . S
U806 O807 2.454 . S
U806 O808 2.458 . S
U806 C809 2.984 . S
U806 C810 2.847 . S
U806 C823 2.882 . S
U806 O824 2.441 . S
U806 O825 2.420 . S
U806 O826 2.455 . S
U806 O827 2.449 . S
O807 U806 2.454 . S
O807 C809 1.353 . S
O808 U806 2.458 . S
O808 C809 1.286 . S
C809 U806 2.984 . S
C809 O807 1.353 . S
C809 O808 1.286 . S
C809 C811 1.363 . S
C810 C800 1.465 . S
C810 U806 2.847 . S
C810 O824 1.249 . S
C810 O825 1.202 . S
C811 C809 1.363 . S
C811 C813 1.408 . S
C811 C816 1.342 . S
C812 C813 1.310 . S
C812 C815 1.461 . S
C812 H832 0.932 . S
C813 C811 1.408 . S
C813 C812 1.310 . S
C813 H833 0.930 . S
C814 C815 1.474 . S
C814 C816 1.285 . S
C814 H834 0.929 . S
C815 C812 1.461 . S
C815 C814 1.474 . S
C816 C811 1.342 . S
C816 C814 1.285 . S
C816 H835 0.930 . S
C817 C820 1.424 . S
C817 C822 1.245 . S
C817 C823 1.428 . S
C818 C821 1.260 . S
C818 C822 1.477 . S
C818 H836 0.932 . S
C819 C820 1.384 . S
C819 C821 1.479 . S
C819 H837 0.929 . S
C820 C817 1.424 . S
C820 C819 1.384 . S
C820 H838 0.928 . S
C821 C818 1.260 . S
C821 C819 1.479 . S
C822 C817 1.245 . S
C822 C818 1.477 . S
C822 H839 0.932 . S
C823 U806 2.882 . S
C823 C817 1.428 . S
C823 O826 1.301 . S
C823 O827 1.282 . S
O824 U806 2.441 . S
O824 C810 1.249 . S
O825 U806 2.420 . S
O825 C810 1.202 . S
O826 U806 2.455 . S
O826 C823 1.301 . S
O827 U806 2.449 . S
O827 C823 1.282 . S
H828 C801 0.931 . S
H829 C803 0.929 . S
H830 C804 0.930 . S
H831 C805 0.931 . S
H832 C812 0.932 . S
H833 C813 0.930 . S
H834 C814 0.929 . S
H835 C816 0.930 . S
H836 C818 0.932 . S
H837 C819 0.929 . S
H838 C820 0.928 . S
H839 C822 0.932 . S
C840 C841 1.264 . S
C840 C845 1.479 . S
C840 C850 1.465 . S
C841 C840 1.264 . S
C841 C843 1.339 . S
C841 H868 0.931 . S
C842 C843 1.395 . S
C842 C844 1.320 . S
C843 C841 1.339 . S
C843 C842 1.395 . S
C843 H869 0.929 . S
C844 C842 1.320 . S
C844 C845 1.405 . S
C844 H870 0.930 . S
C845 C840 1.479 . S
C845 C844 1.405 . S
C845 H871 0.931 . S
U846 O847 2.454 . S
U846 O848 2.458 . S
U846 C849 2.984 . S
U846 C850 2.847 . S
U846 C863 2.882 . S
U846 O864 2.441 . S
U846 O865 2.420 . S
U846 O866 2.455 . S
U846 O867 2.449 . S
O847 U846 2.454 . S
O847 C849 1.353 . S
O848 U846 2.458 . S
O848 C849 1.286 . S
C849 U846 2.984 . S
C849 O847 1.353 . S
C849 O848 1.286 . S
C849 C851 1.363 . S
C850 C840 1.465 . S
C850 U846 2.847 . S
C850 O864 1.249 . S
C850 O865 1.202 . S
C851 C849 1.363 . S
C851 C853 1.408 . S
C851 C856 1.342 . S
C852 C853 1.310 . S
C852 C855 1.461 . S
C852 H872 0.932 . S
C853 C851 1.408 . S
C853 C852 1.310 . S
C853 H873 0.930 . S
C854 C855 1.474 . S
C854 C856 1.285 . S
C854 H874 0.929 . S
C855 C852 1.461 . S
C855 C854 1.474 . S
C856 C851 1.342 . S
C856 C854 1.285 . S
C856 H875 0.930 . S
C857 C860 1.424 . S
C857 C862 1.245 . S
C857 C863 1.428 . S
C858 C861 1.260 . S
C858 C862 1.477 . S
C858 H876 0.932 . S
C859 C860 1.384 . S
C859 C861 1.479 . S
C859 H877 0.929 . S
C860 C857 1.424 . S
C860 C859 1.384 . S
C860 H878 0.928 . S
C861 C858 1.260 . S
C861 C859 1.479 . S
C862 C857 1.245 . S
C862 C858 1.477 . S
C862 H879 0.932 . S
C863 U846 2.882 . S
C863 C857 1.428 . S
C863 O866 1.301 . S
C863 O867 1.282 . S
O864 U846 2.441 . S
O864 C850 1.249 . S
O865 U846 2.420 . S
O865 C850 1.202 . S
O866 U846 2.455 . S
O866 C863 1.301 . S
O867 U846 2.449 . S
O867 C863 1.282 . S
H868 C841 0.931 . S
H869 C843 0.929 . S
H870 C844 0.930 . S
H871 C845 0.931 . S
H872 C852 0.932 . S
H873 C853 0.930 . S
H874 C854 0.929 . S
H875 C856 0.930 . S
H876 C858 0.932 . S
H877 C859 0.929 . S
H878 C860 0.928 . S
H879 C862 0.932 . S
C880 C881 1.264 . S
C880 C885 1.479 . S
C880 C890 1.465 . S
C881 C880 1.264 . S
C881 C883 1.339 . S
C881 H908 0.931 . S
C882 C883 1.395 . S
C882 C884 1.320 . S
C883 C881 1.339 . S
C883 C882 1.395 . S
C883 H909 0.929 . S
C884 C882 1.320 . S
C884 C885 1.405 . S
C884 H910 0.930 . S
C885 C880 1.479 . S
C885 C884 1.405 . S
C885 H911 0.931 . S
U886 O887 2.454 . S
U886 O888 2.458 . S
U886 C889 2.984 . S
U886 C890 2.847 . S
U886 C903 2.882 . S
U886 O904 2.441 . S
U886 O905 2.420 . S
U886 O906 2.455 . S
U886 O907 2.449 . S
O887 U886 2.454 . S
O887 C889 1.353 . S
O888 U886 2.458 . S
O888 C889 1.286 . S
C889 U886 2.984 . S
C889 O887 1.353 . S
C889 O888 1.286 . S
C889 C891 1.363 . S
C890 C880 1.465 . S
C890 U886 2.847 . S
C890 O904 1.249 . S
C890 O905 1.202 . S
C891 C889 1.363 . S
C891 C893 1.408 . S
C891 C896 1.342 . S
C892 C893 1.310 . S
C892 C895 1.461 . S
C892 H912 0.932 . S
C893 C891 1.408 . S
C893 C892 1.310 . S
C893 H913 0.930 . S
C894 C895 1.474 . S
C894 C896 1.285 . S
C894 H914 0.929 . S
C895 C892 1.461 . S
C895 C894 1.474 . S
C896 C891 1.342 . S
C896 C894 1.285 . S
C896 H915 0.930 . S
C897 C900 1.424 . S
C897 C902 1.245 . S
C897 C903 1.428 . S
C898 C901 1.260 . S
C898 C902 1.477 . S
C898 H916 0.932 . S
C899 C900 1.384 . S
C899 C901 1.479 . S
C899 H917 0.929 . S
C900 C897 1.424 . S
C900 C899 1.384 . S
C900 H918 0.928 . S
C901 C898 1.260 . S
C901 C899 1.479 . S
C902 C897 1.245 . S
C902 C898 1.477 . S
C902 H919 0.932 . S
C903 U886 2.882 . S
C903 C897 1.428 . S
C903 O906 1.301 . S
C903 O907 1.282 . S
O904 U886 2.441 . S
O904 C890 1.249 . S
O905 U886 2.420 . S
O905 C890 1.202 . S
O906 U886 2.455 . S
O906 C903 1.301 . S
O907 U886 2.449 . S
O907 C903 1.282 . S
H908 C881 0.931 . S
H909 C883 0.929 . S
H910 C884 0.930 . S
H911 C885 0.931 . S
H912 C892 0.932 . S
H913 C893 0.930 . S
H914 C894 0.929 . S
H915 C896 0.930 . S
H916 C898 0.932 . S
H917 C899 0.929 . S
H918 C900 0.928 . S
H919 C902 0.932 . S
C920 C921 1.264 . S
C920 C925 1.479 . S
C920 C930 1.465 . S
C921 C920 1.264 . S
C921 C923 1.339 . S
C921 H948 0.931 . S
C922 C923 1.395 . S
C922 C924 1.320 . S
C923 C921 1.339 . S
C923 C922 1.395 . S
C923 H949 0.929 . S
C924 C922 1.320 . S
C924 C925 1.405 . S
C924 H950 0.930 . S
C925 C920 1.479 . S
C925 C924 1.405 . S
C925 H951 0.931 . S
U926 O927 2.454 . S
U926 O928 2.458 . S
U926 C929 2.984 . S
U926 C930 2.847 . S
U926 C943 2.882 . S
U926 O944 2.441 . S
U926 O945 2.420 . S
U926 O946 2.455 . S
U926 O947 2.449 . S
O927 U926 2.454 . S
O927 C929 1.353 . S
O928 U926 2.458 . S
O928 C929 1.286 . S
C929 U926 2.984 . S
C929 O927 1.353 . S
C929 O928 1.286 . S
C929 C931 1.363 . S
C930 C920 1.465 . S
C930 U926 2.847 . S
C930 O944 1.249 . S
C930 O945 1.202 . S
C931 C929 1.363 . S
C931 C933 1.408 . S
C931 C936 1.342 . S
C932 C933 1.310 . S
C932 C935 1.461 . S
C932 H952 0.932 . S
C933 C931 1.408 . S
C933 C932 1.310 . S
C933 H953 0.930 . S
C934 C935 1.474 . S
C934 C936 1.285 . S
C934 H954 0.929 . S
C935 C932 1.461 . S
C935 C934 1.474 . S
C936 C931 1.342 . S
C936 C934 1.285 . S
C936 H955 0.930 . S
C937 C940 1.424 . S
C937 C942 1.245 . S
C937 C943 1.428 . S
C938 C941 1.260 . S
C938 C942 1.477 . S
C938 H956 0.932 . S
C939 C940 1.384 . S
C939 C941 1.479 . S
C939 H957 0.929 . S
C940 C937 1.424 . S
C940 C939 1.384 . S
C940 H958 0.928 . S
C941 C938 1.260 . S
C941 C939 1.479 . S
C942 C937 1.245 . S
C942 C938 1.477 . S
C942 H959 0.932 . S
C943 U926 2.882 . S
C943 C937 1.428 . S
C943 O946 1.301 . S
C943 O947 1.282 . S
O944 U926 2.441 . S
O944 C930 1.249 . S
O945 U926 2.420 . S
O945 C930 1.202 . S
O946 U926 2.455 . S
O946 C943 1.301 . S
O947 U926 2.449 . S
O947 C943 1.282 . S
H948 C921 0.931 . S
H949 C923 0.929 . S
H950 C924 0.930 . S
H951 C925 0.931 . S
H952 C932 0.932 . S
H953 C933 0.930 . S
H954 C934 0.929 . S
H955 C936 0.930 . S
H956 C938 0.932 . S
H957 C939 0.929 . S
H958 C940 0.928 . S
H959 C942 0.932 . S
C960 C961 1.264 . S
C960 C965 1.479 . S
C960 C970 1.465 . S
C961 C960 1.264 . S
C961 C963 1.339 . S
C961 H988 0.931 . S
C962 C963 1.395 . S
C962 C964 1.320 . S
C963 C961 1.339 . S
C963 C962 1.395 . S
C963 H989 0.929 . S
C964 C962 1.320 . S
C964 C965 1.405 . S
C964 H990 0.930 . S
C965 C960 1.479 . S
C965 C964 1.405 . S
C965 H991 0.931 . S
U966 O967 2.454 . S
U966 O968 2.458 . S
U966 C969 2.984 . S
U966 C970 2.847 . S
U966 C983 2.882 . S
U966 O984 2.441 . S
U966 O985 2.420 . S
U966 O986 2.455 . S
U966 O987 2.449 . S
O967 U966 2.454 . S
O967 C969 1.353 . S
O968 U966 2.458 . S
O968 C969 1.286 . S
C969 U966 2.984 . S
C969 O967 1.353 . S
C969 O968 1.286 . S
C969 C971 1.363 . S
C970 C960 1.465 . S
C970 U966 2.847 . S
C970 O984 1.249 . S
C970 O985 1.202 . S
C971 C969 1.363 . S
C971 C973 1.408 . S
C971 C976 1.342 . S
C972 C973 1.310 . S
C972 C975 1.461 . S
C972 H992 0.932 . S
C973 C971 1.408 . S
C973 C972 1.310 . S
C973 H993 0.930 . S
C974 C975 1.474 . S
C974 C976 1.285 . S
C974 H994 0.929 . S
C975 C972 1.461 . S
C975 C974 1.474 . S
C976 C971 1.342 . S
C976 C974 1.285 . S
C976 H995 0.930 . S
C977 C980 1.424 . S
C977 C982 1.245 . S
C977 C983 1.428 . S
C978 C981 1.260 . S
C978 C982 1.477 . S
C978 H996 0.932 . S
C979 C980 1.384 . S
C979 C981 1.479 . S
C979 H997 0.929 . S
C980 C977 1.424 . S
C980 C979 1.384 . S
C980 H998 0.928 . S
C981 C978 1.260 . S
C981 C979 1.479 . S
C982 C977 1.245 . S
C982 C978 1.477 . S
C982 H999 0.932 . S
C983 U966 2.882 . S
C983 C977 1.428 . S
C983 O986 1.301 . S
C983 O987 1.282 . S
O984 U966 2.441 . S
O984 C970 1.249 . S
O985 U966 2.420 . S
O985 C970 1.202 . S
O986 U966 2.455 . S
O986 C983 1.301 . S
O987 U966 2.449 . S
O987 C983 1.282 . S
H988 C961 0.931 . S
H989 C963 0.929 . S
H990 C964 0.930 . S
H991 C965 0.931 . S
H992 C972 0.932 . S
H993 C973 0.930 . S
H994 C974 0.929 . S
H995 C976 0.930 . S
H996 C978 0.932 . S
H997 C979 0.929 . S
H998 C980 0.928 . S
H999 C982 0.932 . S
C1000 C1001 1.264 . S
C1000 C1005 1.479 . S
C1000 C1010 1.465 . S
C1001 C1000 1.264 . S
C1001 C1003 1.339 . S
C1001 H1028 0.931 . S
C1002 C1003 1.395 . S
C1002 C1004 1.320 . S
C1003 C1001 1.339 . S
C1003 C1002 1.395 . S
C1003 H1029 0.929 . S
C1004 C1002 1.320 . S
C1004 C1005 1.405 . S
C1004 H1030 0.930 . S
C1005 C1000 1.479 . S
C1005 C1004 1.405 . S
C1005 H1031 0.931 . S
U1006 O1007 2.454 . S
U1006 O1008 2.458 . S
U1006 C1009 2.984 . S
U1006 C1010 2.847 . S
U1006 C1023 2.882 . S
U1006 O1024 2.441 . S
U1006 O1025 2.420 . S
U1006 O1026 2.455 . S
U1006 O1027 2.449 . S
O1007 U1006 2.454 . S
O1007 C1009 1.353 . S
O1008 U1006 2.458 . S
O1008 C1009 1.286 . S
C1009 U1006 2.984 . S
C1009 O1007 1.353 . S
C1009 O1008 1.286 . S
C1009 C1011 1.363 . S
C1010 C1000 1.465 . S
C1010 U1006 2.847 . S
C1010 O1024 1.249 . S
C1010 O1025 1.202 . S
C1011 C1009 1.363 . S
C1011 C1013 1.408 . S
C1011 C1016 1.342 . S
C1012 C1013 1.310 . S
C1012 C1015 1.461 . S
C1012 H1032 0.932 . S
C1013 C1011 1.408 . S
C1013 C1012 1.310 . S
C1013 H1033 0.930 . S
C1014 C1015 1.474 . S
C1014 C1016 1.285 . S
C1014 H1034 0.929 . S
C1015 C1012 1.461 . S
C1015 C1014 1.474 . S
C1016 C1011 1.342 . S
C1016 C1014 1.285 . S
C1016 H1035 0.930 . S
C1017 C1020 1.424 . S
C1017 C1022 1.245 . S
C1017 C1023 1.428 . S
C1018 C1021 1.260 . S
C1018 C1022 1.477 . S
C1018 H1036 0.932 . S
C1019 C1020 1.384 . S
C1019 C1021 1.479 . S
C1019 H1037 0.929 . S
C1020 C1017 1.424 . S
C1020 C1019 1.384 . S
C1020 H1038 0.928 . S
C1021 C1018 1.260 . S
C1021 C1019 1.479 . S
C1022 C1017 1.245 . S
C1022 C1018 1.477 . S
C1022 H1039 0.932 . S
C1023 U1006 2.882 . S
C1023 C1017 1.428 . S
C1023 O1026 1.301 . S
C1023 O1027 1.282 . S
O1024 U1006 2.441 . S
O1024 C1010 1.249 . S
O1025 U1006 2.420 . S
O1025 C1010 1.202 . S
O1026 U1006 2.455 . S
O1026 C1023 1.301 . S
O1027 U1006 2.449 . S
O1027 C1023 1.282 . S
H1028 C1001 0.931 . S
H1029 C1003 0.929 . S
H1030 C1004 0.930 . S
H1031 C1005 0.931 . S
H1032 C1012 0.932 . S
H1033 C1013 0.930 . S
H1034 C1014 0.929 . S
H1035 C1016 0.930 . S
H1036 C1018 0.932 . S
H1037 C1019 0.929 . S
H1038 C1020 0.928 . S
H1039 C1022 0.932 . S
C1040 C1041 1.264 . S
C1040 C1045 1.479 . S
C1040 C1050 1.465 . S
C1041 C1040 1.264 . S
C1041 C1043 1.339 . S
C1041 H1068 0.931 . S
C1042 C1043 1.395 . S
C1042 C1044 1.320 . S
C1043 C1041 1.339 . S
C1043 C1042 1.395 . S
C1043 H1069 0.929 . S
C1044 C1042 1.320 . S
C1044 C1045 1.405 . S
C1044 H1070 0.930 . S
C1045 C1040 1.479 . S
C1045 C1044 1.405 . S
C1045 H1071 0.931 . S
U1046 O1047 2.454 . S
U1046 O1048 2.458 . S
U1046 C1049 2.984 . S
U1046 C1050 2.847 . S
U1046 C1063 2.882 . S
U1046 O1064 2.441 . S
U1046 O1065 2.420 . S
U1046 O1066 2.455 . S
U1046 O1067 2.449 . S
O1047 U1046 2.454 . S
O1047 C1049 1.353 . S
O1048 U1046 2.458 . S
O1048 C1049 1.286 . S
C1049 U1046 2.984 . S
C1049 O1047 1.353 . S
C1049 O1048 1.286 . S
C1049 C1051 1.363 . S
C1050 C1040 1.465 . S
C1050 U1046 2.847 . S
C1050 O1064 1.249 . S
C1050 O1065 1.202 . S
C1051 C1049 1.363 . S
C1051 C1053 1.408 . S
C1051 C1056 1.342 . S
C1052 C1053 1.310 . S
C1052 C1055 1.461 . S
C1052 H1072 0.932 . S
C1053 C1051 1.408 . S
C1053 C1052 1.310 . S
C1053 H1073 0.930 . S
C1054 C1055 1.474 . S
C1054 C1056 1.285 . S
C1054 H1074 0.929 . S
C1055 C1052 1.461 . S
C1055 C1054 1.474 . S
C1056 C1051 1.342 . S
C1056 C1054 1.285 . S
C1056 H1075 0.930 . S
C1057 C1060 1.424 . S
C1057 C1062 1.245 . S
C1057 C1063 1.428 . S
C1058 C1061 1.260 . S
C1058 C1062 1.477 . S
C1058 H1076 0.932 . S
C1059 C1060 1.384 . S
C1059 C1061 1.479 . S
C1059 H1077 0.929 . S
C1060 C1057 1.424 . S
C1060 C1059 1.384 . S
C1060 H1078 0.928 . S
C1061 C1058 1.260 . S
C1061 C1059 1.479 . S
C1062 C1057 1.245 . S
C1062 C1058 1.477 . S
C1062 H1079 0.932 . S
C1063 U1046 2.882 . S
C1063 C1057 1.428 . S
C1063 O1066 1.301 . S
C1063 O1067 1.282 . S
O1064 U1046 2.441 . S
O1064 C1050 1.249 . S
O1065 U1046 2.420 . S
O1065 C1050 1.202 . S
O1066 U1046 2.455 . S
O1066 C1063 1.301 . S
O1067 U1046 2.449 . S
O1067 C1063 1.282 . S
H1068 C1041 0.931 . S
H1069 C1043 0.929 . S
H1070 C1044 0.930 . S
H1071 C1045 0.931 . S
H1072 C1052 0.932 . S
H1073 C1053 0.930 . S
H1074 C1054 0.929 . S
H1075 C1056 0.930 . S
H1076 C1058 0.932 . S
H1077 C1059 0.929 . S
H1078 C1060 0.928 . S
H1079 C1062 0.932 . S
C1080 C1081 1.264 . S
C1080 C1085 1.479 . S
C1080 C1090 1.465 . S
C1081 C1080 1.264 . S
C1081 C1083 1.339 . S
C1081 H1108 0.931 . S
C1082 C1083 1.395 . S
C1082 C1084 1.320 . S
C1083 C1081 1.339 . S
C1083 C1082 1.395 . S
C1083 H1109 0.929 . S
C1084 C1082 1.320 . S
C1084 C1085 1.405 . S
C1084 H1110 0.930 . S
C1085 C1080 1.479 . S
C1085 C1084 1.405 . S
C1085 H1111 0.931 . S
U1086 O1087 2.454 . S
U1086 O1088 2.458 . S
U1086 C1089 2.984 . S
U1086 C1090 2.847 . S
U1086 C1103 2.882 . S
U1086 O1104 2.441 . S
U1086 O1105 2.420 . S
U1086 O1106 2.455 . S
U1086 O1107 2.449 . S
O1087 U1086 2.454 . S
O1087 C1089 1.353 . S
O1088 U1086 2.458 . S
O1088 C1089 1.286 . S
C1089 U1086 2.984 . S
C1089 O1087 1.353 . S
C1089 O1088 1.286 . S
C1089 C1091 1.363 . S
C1090 C1080 1.465 . S
C1090 U1086 2.847 . S
C1090 O1104 1.249 . S
C1090 O1105 1.202 . S
C1091 C1089 1.363 . S
C1091 C1093 1.408 . S
C1091 C1096 1.342 . S
C1092 C1093 1.310 . S
C1092 C1095 1.461 . S
C1092 H1112 0.932 . S
C1093 C1091 1.408 . S
C1093 C1092 1.310 . S
C1093 H1113 0.930 . S
C1094 C1095 1.474 . S
C1094 C1096 1.285 . S
C1094 H1114 0.929 . S
C1095 C1092 1.461 . S
C1095 C1094 1.474 . S
C1096 C1091 1.342 . S
C1096 C1094 1.285 . S
C1096 H1115 0.930 . S
C1097 C1100 1.424 . S
C1097 C1102 1.245 . S
C1097 C1103 1.428 . S
C1098 C1101 1.260 . S
C1098 C1102 1.477 . S
C1098 H1116 0.932 . S
C1099 C1100 1.384 . S
C1099 C1101 1.479 . S
C1099 H1117 0.929 . S
C1100 C1097 1.424 . S
C1100 C1099 1.384 . S
C1100 H1118 0.928 . S
C1101 C1098 1.260 . S
C1101 C1099 1.479 . S
C1102 C1097 1.245 . S
C1102 C1098 1.477 . S
C1102 H1119 0.932 . S
C1103 U1086 2.882 . S
C1103 C1097 1.428 . S
C1103 O1106 1.301 . S
C1103 O1107 1.282 . S
O1104 U1086 2.441 . S
O1104 C1090 1.249 . S
O1105 U1086 2.420 . S
O1105 C1090 1.202 . S
O1106 U1086 2.455 . S
O1106 C1103 1.301 . S
O1107 U1086 2.449 . S
O1107 C1103 1.282 . S
H1108 C1081 0.931 . S
H1109 C1083 0.929 . S
H1110 C1084 0.930 . S
H1111 C1085 0.931 . S
H1112 C1092 0.932 . S
H1113 C1093 0.930 . S
H1114 C1094 0.929 . S
H1115 C1096 0.930 . S
H1116 C1098 0.932 . S
H1117 C1099 0.929 . S
H1118 C1100 0.928 . S
H1119 C1102 0.932 . S
C1120 C1121 1.264 . S
C1120 C1125 1.479 . S
C1120 C1130 1.465 . S
C1121 C1120 1.264 . S
C1121 C1123 1.339 . S
C1121 H1148 0.931 . S
C1122 C1123 1.395 . S
C1122 C1124 1.320 . S
C1123 C1121 1.339 . S
C1123 C1122 1.395 . S
C1123 H1149 0.929 . S
C1124 C1122 1.320 . S
C1124 C1125 1.405 . S
C1124 H1150 0.930 . S
C1125 C1120 1.479 . S
C1125 C1124 1.405 . S
C1125 H1151 0.931 . S
U1126 O1127 2.454 . S
U1126 O1128 2.458 . S
U1126 C1129 2.984 . S
U1126 C1130 2.847 . S
U1126 C1143 2.882 . S
U1126 O1144 2.441 . S
U1126 O1145 2.420 . S
U1126 O1146 2.455 . S
U1126 O1147 2.449 . S
O1127 U1126 2.454 . S
O1127 C1129 1.353 . S
O1128 U1126 2.458 . S
O1128 C1129 1.286 . S
C1129 U1126 2.984 . S
C1129 O1127 1.353 . S
C1129 O1128 1.286 . S
C1129 C1131 1.363 . S
C1130 C1120 1.465 . S
C1130 U1126 2.847 . S
C1130 O1144 1.249 . S
C1130 O1145 1.202 . S
C1131 C1129 1.363 . S
C1131 C1133 1.408 . S
C1131 C1136 1.342 . S
C1132 C1133 1.310 . S
C1132 C1135 1.461 . S
C1132 H1152 0.932 . S
C1133 C1131 1.408 . S
C1133 C1132 1.310 . S
C1133 H1153 0.930 . S
C1134 C1135 1.474 . S
C1134 C1136 1.285 . S
C1134 H1154 0.929 . S
C1135 C1132 1.461 . S
C1135 C1134 1.474 . S
C1136 C1131 1.342 . S
C1136 C1134 1.285 . S
C1136 H1155 0.930 . S
C1137 C1140 1.424 . S
C1137 C1142 1.245 . S
C1137 C1143 1.428 . S
C1138 C1141 1.260 . S
C1138 C1142 1.477 . S
C1138 H1156 0.932 . S
C1139 C1140 1.384 . S
C1139 C1141 1.479 . S
C1139 H1157 0.929 . S
C1140 C1137 1.424 . S
C1140 C1139 1.384 . S
C1140 H1158 0.928 . S
C1141 C1138 1.260 . S
C1141 C1139 1.479 . S
C1142 C1137 1.245 . S
C1142 C1138 1.477 . S
C1142 H1159 0.932 . S
C1143 U1126 2.882 . S
C1143 C1137 1.428 . S
C1143 O1146 1.301 . S
C1143 O1147 1.282 . S
O1144 U1126 2.441 . S
O1144 C1130 1.249 . S
O1145 U1126 2.420 . S
O1145 C1130 1.202 . S
O1146 U1126 2.455 . S
O1146 C1143 1.301 . S
O1147 U1126 2.449 . S
O1147 C1143 1.282 . S
H1148 C1121 0.931 . S
H1149 C1123 0.929 . S
H1150 C1124 0.930 . S
H1151 C1125 0.931 . S
H1152 C1132 0.932 . S
H1153 C1133 0.930 . S
H1154 C1134 0.929 . S
H1155 C1136 0.930 . S
H1156 C1138 0.932 . S
H1157 C1139 0.929 . S
H1158 C1140 0.928 . S
H1159 C1142 0.932 . S
C1160 C1161 1.264 . S
C1160 C1165 1.479 . S
C1160 C1170 1.465 . S
C1161 C1160 1.264 . S
C1161 C1163 1.339 . S
C1161 H1188 0.931 . S
C1162 C1163 1.395 . S
C1162 C1164 1.320 . S
C1163 C1161 1.339 . S
C1163 C1162 1.395 . S
C1163 H1189 0.929 . S
C1164 C1162 1.320 . S
C1164 C1165 1.405 . S
C1164 H1190 0.930 . S
C1165 C1160 1.479 . S
C1165 C1164 1.405 . S
C1165 H1191 0.931 . S
U1166 O1167 2.454 . S
U1166 O1168 2.458 . S
U1166 C1169 2.984 . S
U1166 C1170 2.847 . S
U1166 C1183 2.882 . S
U1166 O1184 2.441 . S
U1166 O1185 2.420 . S
U1166 O1186 2.455 . S
U1166 O1187 2.449 . S
O1167 U1166 2.454 . S
O1167 C1169 1.353 . S
O1168 U1166 2.458 . S
O1168 C1169 1.286 . S
C1169 U1166 2.984 . S
C1169 O1167 1.353 . S
C1169 O1168 1.286 . S
C1169 C1171 1.363 . S
C1170 C1160 1.465 . S
C1170 U1166 2.847 . S
C1170 O1184 1.249 . S
C1170 O1185 1.202 . S
C1171 C1169 1.363 . S
C1171 C1173 1.408 . S
C1171 C1176 1.342 . S
C1172 C1173 1.310 . S
C1172 C1175 1.461 . S
C1172 H1192 0.932 . S
C1173 C1171 1.408 . S
C1173 C1172 1.310 . S
C1173 H1193 0.930 . S
C1174 C1175 1.474 . S
C1174 C1176 1.285 . S
C1174 H1194 0.929 . S
C1175 C1172 1.461 . S
C1175 C1174 1.474 . S
C1176 C1171 1.342 . S
C1176 C1174 1.285 . S
C1176 H1195 0.930 . S
C1177 C1180 1.424 . S
C1177 C1182 1.245 . S
C1177 C1183 1.428 . S
C1178 C1181 1.260 . S
C1178 C1182 1.477 . S
C1178 H1196 0.932 . S
C1179 C1180 1.384 . S
C1179 C1181 1.479 . S
C1179 H1197 0.929 . S
C1180 C1177 1.424 . S
C1180 C1179 1.384 . S
C1180 H1198 0.928 . S
C1181 C1178 1.260 . S
C1181 C1179 1.479 . S
C1182 C1177 1.245 . S
C1182 C1178 1.477 . S
C1182 H1199 0.932 . S
C1183 U1166 2.882 . S
C1183 C1177 1.428 . S
C1183 O1186 1.301 . S
C1183 O1187 1.282 . S
O1184 U1166 2.441 . S
O1184 C1170 1.249 . S
O1185 U1166 2.420 . S
O1185 C1170 1.202 . S
O1186 U1166 2.455 . S
O1186 C1183 1.301 . S
O1187 U1166 2.449 . S
O1187 C1183 1.282 . S
H1188 C1161 0.931 . S
H1189 C1163 0.929 . S
H1190 C1164 0.930 . S
H1191 C1165 0.931 . S
H1192 C1172 0.932 . S
H1193 C1173 0.930 . S
H1194 C1174 0.929 . S
H1195 C1176 0.930 . S
H1196 C1178 0.932 . S
H1197 C1179 0.929 . S
H1198 C1180 0.928 . S
H1199 C1182 0.932 . S
C1200 C1201 1.264 . S
C1200 C1205 1.479 . S
C1200 C1210 1.465 . S
C1201 C1200 1.264 . S
C1201 C1203 1.339 . S
C1201 H1228 0.931 . S
C1202 C1203 1.395 . S
C1202 C1204 1.320 . S
C1203 C1201 1.339 . S
C1203 C1202 1.395 . S
C1203 H1229 0.929 . S
C1204 C1202 1.320 . S
C1204 C1205 1.405 . S
C1204 H1230 0.930 . S
C1205 C1200 1.479 . S
C1205 C1204 1.405 . S
C1205 H1231 0.931 . S
U1206 O1207 2.454 . S
U1206 O1208 2.458 . S
U1206 C1209 2.984 . S
U1206 C1210 2.847 . S
U1206 C1223 2.882 . S
U1206 O1224 2.441 . S
U1206 O1225 2.420 . S
U1206 O1226 2.455 . S
U1206 O1227 2.449 . S
O1207 U1206 2.454 . S
O1207 C1209 1.353 . S
O1208 U1206 2.458 . S
O1208 C1209 1.286 . S
C1209 U1206 2.984 . S
C1209 O1207 1.353 . S
C1209 O1208 1.286 . S
C1209 C1211 1.363 . S
C1210 C1200 1.465 . S
C1210 U1206 2.847 . S
C1210 O1224 1.249 . S
C1210 O1225 1.202 . S
C1211 C1209 1.363 . S
C1211 C1213 1.408 . S
C1211 C1216 1.342 . S
C1212 C1213 1.310 . S
C1212 C1215 1.461 . S
C1212 H1232 0.932 . S
C1213 C1211 1.408 . S
C1213 C1212 1.310 . S
C1213 H1233 0.930 . S
C1214 C1215 1.474 . S
C1214 C1216 1.285 . S
C1214 H1234 0.929 . S
C1215 C1212 1.461 . S
C1215 C1214 1.474 . S
C1216 C1211 1.342 . S
C1216 C1214 1.285 . S
C1216 H1235 0.930 . S
C1217 C1220 1.424 . S
C1217 C1222 1.245 . S
C1217 C1223 1.428 . S
C1218 C1221 1.260 . S
C1218 C1222 1.477 . S
C1218 H1236 0.932 . S
C1219 C1220 1.384 . S
C1219 C1221 1.479 . S
C1219 H1237 0.929 . S
C1220 C1217 1.424 . S
C1220 C1219 1.384 . S
C1220 H1238 0.928 . S
C1221 C1218 1.260 . S
C1221 C1219 1.479 . S
C1222 C1217 1.245 . S
C1222 C1218 1.477 . S
C1222 H1239 0.932 . S
C1223 U1206 2.882 . S
C1223 C1217 1.428 . S
C1223 O1226 1.301 . S
C1223 O1227 1.282 . S
O1224 U1206 2.441 . S
O1224 C1210 1.249 . S
O1225 U1206 2.420 . S
O1225 C1210 1.202 . S
O1226 U1206 2.455 . S
O1226 C1223 1.301 . S
O1227 U1206 2.449 . S
O1227 C1223 1.282 . S
H1228 C1201 0.931 . S
H1229 C1203 0.929 . S
H1230 C1204 0.930 . S
H1231 C1205 0.931 . S
H1232 C1212 0.932 . S
H1233 C1213 0.930 . S
H1234 C1214 0.929 . S
H1235 C1216 0.930 . S
H1236 C1218 0.932 . S
H1237 C1219 0.929 . S
H1238 C1220 0.928 . S
H1239 C1222 0.932 . S
C1240 C1241 1.264 . S
C1240 C1245 1.479 . S
C1240 C1250 1.465 . S
C1241 C1240 1.264 . S
C1241 C1243 1.339 . S
C1241 H1268 0.931 . S
C1242 C1243 1.395 . S
C1242 C1244 1.320 . S
C1243 C1241 1.339 . S
C1243 C1242 1.395 . S
C1243 H1269 0.929 . S
C1244 C1242 1.320 . S
C1244 C1245 1.405 . S
C1244 H1270 0.930 . S
C1245 C1240 1.479 . S
C1245 C1244 1.405 . S
C1245 H1271 0.931 . S
U1246 O1247 2.454 . S
U1246 O1248 2.458 . S
U1246 C1249 2.984 . S
U1246 C1250 2.847 . S
U1246 C1263 2.882 . S
U1246 O1264 2.441 . S
U1246 O1265 2.420 . S
U1246 O1266 2.455 . S
U1246 O1267 2.449 . S
O1247 U1246 2.454 . S
O1247 C1249 1.353 . S
O1248 U1246 2.458 . S
O1248 C1249 1.286 . S
C1249 U1246 2.984 . S
C1249 O1247 1.353 . S
C1249 O1248 1.286 . S
C1249 C1251 1.363 . S
C1250 C1240 1.465 . S
C1250 U1246 2.847 . S
C1250 O1264 1.249 . S
C1250 O1265 1.202 . S
C1251 C1249 1.363 . S
C1251 C1253 1.408 . S
C1251 C1256 1.342 . S
C1252 C1253 1.310 . S
C1252 C1255 1.461 . S
C1252 H1272 0.932 . S
C1253 C1251 1.408 . S
C1253 C1252 1.310 . S
C1253 H1273 0.930 . S
C1254 C1255 1.474 . S
C1254 C1256 1.285 . S
C1254 H1274 0.929 . S
C1255 C1252 1.461 . S
C1255 C1254 1.474 . S
C1256 C1251 1.342 . S
C1256 C1254 1.285 . S
C1256 H1275 0.930 . S
C1257 C1260 1.424 . S
C1257 C1262 1.245 . S
C1257 C1263 1.428 . S
C1258 C1261 1.260 . S
C1258 C1262 1.477 . S
C1258 H1276 0.932 . S
C1259 C1260 1.384 . S
C1259 C1261 1.479 . S
C1259 H1277 0.929 . S
C1260 C1257 1.424 . S
C1260 C1259 1.384 . S
C1260 H1278 0.928 . S
C1261 C1258 1.260 . S
C1261 C1259 1.479 . S
C1262 C1257 1.245 . S
C1262 C1258 1.477 . S
C1262 H1279 0.932 . S
C1263 U1246 2.882 . S
C1263 C1257 1.428 . S
C1263 O1266 1.301 . S
C1263 O1267 1.282 . S
O1264 U1246 2.441 . S
O1264 C1250 1.249 . S
O1265 U1246 2.420 . S
O1265 C1250 1.202 . S
O1266 U1246 2.455 . S
O1266 C1263 1.301 . S
O1267 U1246 2.449 . S
O1267 C1263 1.282 . S
H1268 C1241 0.931 . S
H1269 C1243 0.929 . S
H1270 C1244 0.930 . S
H1271 C1245 0.931 . S
H1272 C1252 0.932 . S
H1273 C1253 0.930 . S
H1274 C1254 0.929 . S
H1275 C1256 0.930 . S
H1276 C1258 0.932 . S
H1277 C1259 0.929 . S
H1278 C1260 0.928 . S
H1279 C1262 0.932 . S
C1280 C1281 1.264 . S
C1280 C1285 1.479 . S
C1280 C1290 1.465 . S
C1281 C1280 1.264 . S
C1281 C1283 1.339 . S
C1281 H1308 0.931 . S
C1282 C1283 1.395 . S
C1282 C1284 1.320 . S
C1283 C1281 1.339 . S
C1283 C1282 1.395 . S
C1283 H1309 0.929 . S
C1284 C1282 1.320 . S
C1284 C1285 1.405 . S
C1284 H1310 0.930 . S
C1285 C1280 1.479 . S
C1285 C1284 1.405 . S
C1285 H1311 0.931 . S
U1286 O1287 2.454 . S
U1286 O1288 2.458 . S
U1286 C1289 2.984 . S
U1286 C1290 2.847 . S
U1286 C1303 2.882 . S
U1286 O1304 2.441 . S
U1286 O1305 2.420 . S
U1286 O1306 2.455 . S
U1286 O1307 2.449 . S
O1287 U1286 2.454 . S
O1287 C1289 1.353 . S
O1288 U1286 2.458 . S
O1288 C1289 1.286 . S
C1289 U1286 2.984 . S
C1289 O1287 1.353 . S
C1289 O1288 1.286 . S
C1289 C1291 1.363 . S
C1290 C1280 1.465 . S
C1290 U1286 2.847 . S
C1290 O1304 1.249 . S
C1290 O1305 1.202 . S
C1291 C1289 1.363 . S
C1291 C1293 1.408 . S
C1291 C1296 1.342 . S
C1292 C1293 1.310 . S
C1292 C1295 1.461 . S
C1292 H1312 0.932 . S
C1293 C1291 1.408 . S
C1293 C1292 1.310 . S
C1293 H1313 0.930 . S
C1294 C1295 1.474 . S
C1294 C1296 1.285 . S
C1294 H1314 0.929 . S
C1295 C1292 1.461 . S
C1295 C1294 1.474 . S
C1296 C1291 1.342 . S
C1296 C1294 1.285 . S
C1296 H1315 0.930 . S
C1297 C1300 1.424 . S
C1297 C1302 1.245 . S
C1297 C1303 1.428 . S
C1298 C1301 1.260 . S
C1298 C1302 1.477 . S
C1298 H1316 0.932 . S
C1299 C1300 1.384 . S
C1299 C1301 1.479 . S
C1299 H1317 0.929 . S
C1300 C1297 1.424 . S
C1300 C1299 1.384 . S
C1300 H1318 0.928 . S
C1301 C1298 1.260 . S
C1301 C1299 1.479 . S
C1302 C1297 1.245 . S
C1302 C1298 1.477 . S
C1302 H1319 0.932 . S
C1303 U1286 2.882 . S
C1303 C1297 1.428 . S
C1303 O1306 1.301 . S
C1303 O1307 1.282 . S
O1304 U1286 2.441 . S
O1304 C1290 1.249 . S
O1305 U1286 2.420 . S
O1305 C1290 1.202 . S
O1306 U1286 2.455 . S
O1306 C1303 1.301 . S
O1307 U1286 2.449 . S
O1307 C1303 1.282 . S
H1308 C1281 0.931 . S
H1309 C1283 0.929 . S
H1310 C1284 0.930 . S
H1311 C1285 0.931 . S
H1312 C1292 0.932 . S
H1313 C1293 0.930 . S
H1314 C1294 0.929 . S
H1315 C1296 0.930 . S
H1316 C1298 0.932 . S
H1317 C1299 0.929 . S
H1318 C1300 0.928 . S
H1319 C1302 0.932 . S
C1320 C1321 1.264 . S
C1320 C1325 1.479 . S
C1320 C1330 1.465 . S
C1321 C1320 1.264 . S
C1321 C1323 1.339 . S
C1321 H1348 0.931 . S
C1322 C1323 1.395 . S
C1322 C1324 1.320 . S
C1323 C1321 1.339 . S
C1323 C1322 1.395 . S
C1323 H1349 0.929 . S
C1324 C1322 1.320 . S
C1324 C1325 1.405 . S
C1324 H1350 0.930 . S
C1325 C1320 1.479 . S
C1325 C1324 1.405 . S
C1325 H1351 0.931 . S
U1326 O1327 2.454 . S
U1326 O1328 2.458 . S
U1326 C1329 2.984 . S
U1326 C1330 2.847 . S
U1326 C1343 2.882 . S
U1326 O1344 2.441 . S
U1326 O1345 2.420 . S
U1326 O1346 2.455 . S
U1326 O1347 2.449 . S
O1327 U1326 2.454 . S
O1327 C1329 1.353 . S
O1328 U1326 2.458 . S
O1328 C1329 1.286 . S
C1329 U1326 2.984 . S
C1329 O1327 1.353 . S
C1329 O1328 1.286 . S
C1329 C1331 1.363 . S
C1330 C1320 1.465 . S
C1330 U1326 2.847 . S
C1330 O1344 1.249 . S
C1330 O1345 1.202 . S
C1331 C1329 1.363 . S
C1331 C1333 1.408 . S
C1331 C1336 1.342 . S
C1332 C1333 1.310 . S
C1332 C1335 1.461 . S
C1332 H1352 0.932 . S
C1333 C1331 1.408 . S
C1333 C1332 1.310 . S
C1333 H1353 0.930 . S
C1334 C1335 1.474 . S
C1334 C1336 1.285 . S
C1334 H1354 0.929 . S
C1335 C1332 1.461 . S
C1335 C1334 1.474 . S
C1336 C1331 1.342 . S
C1336 C1334 1.285 . S
C1336 H1355 0.930 . S
C1337 C1340 1.424 . S
C1337 C1342 1.245 . S
C1337 C1343 1.428 . S
C1338 C1341 1.260 . S
C1338 C1342 1.477 . S
C1338 H1356 0.932 . S
C1339 C1340 1.384 . S
C1339 C1341 1.479 . S
C1339 H1357 0.929 . S
C1340 C1337 1.424 . S
C1340 C1339 1.384 . S
C1340 H1358 0.928 . S
C1341 C1338 1.260 . S
C1341 C1339 1.479 . S
C1342 C1337 1.245 . S
C1342 C1338 1.477 . S
C1342 H1359 0.932 . S
C1343 U1326 2.882 . S
C1343 C1337 1.428 . S
C1343 O1346 1.301 . S
C1343 O1347 1.282 . S
O1344 U1326 2.441 . S
O1344 C1330 1.249 . S
O1345 U1326 2.420 . S
O1345 C1330 1.202 . S
O1346 U1326 2.455 . S
O1346 C1343 1.301 . S
O1347 U1326 2.449 . S
O1347 C1343 1.282 . S
H1348 C1321 0.931 . S
H1349 C1323 0.929 . S
H1350 C1324 0.930 . S
H1351 C1325 0.931 . S
H1352 C1332 0.932 . S
H1353 C1333 0.930 . S
H1354 C1334 0.929 . S
H1355 C1336 0.930 . S
H1356 C1338 0.932 . S
H1357 C1339 0.929 . S
H1358 C1340 0.928 . S
H1359 C1342 0.932 . S
C1360 C1361 1.264 . S
C1360 C1365 1.479 . S
C1360 C1370 1.465 . S
C1361 C1360 1.264 . S
C1361 C1363 1.339 . S
C1361 H1388 0.931 . S
C1362 C1363 1.395 . S
C1362 C1364 1.320 . S
C1363 C1361 1.339 . S
C1363 C1362 1.395 . S
C1363 H1389 0.929 . S
C1364 C1362 1.320 . S
C1364 C1365 1.405 . S
C1364 H1390 0.930 . S
C1365 C1360 1.479 . S
C1365 C1364 1.405 . S
C1365 H1391 0.931 . S
U1366 O1367 2.454 . S
U1366 O1368 2.458 . S
U1366 C1369 2.984 . S
U1366 C1370 2.847 . S
U1366 C1383 2.882 . S
U1366 O1384 2.441 . S
U1366 O1385 2.420 . S
U1366 O1386 2.455 . S
U1366 O1387 2.449 . S
O1367 U1366 2.454 . S
O1367 C1369 1.353 . S
O1368 U1366 2.458 . S
O1368 C1369 1.286 . S
C1369 U1366 2.984 . S
C1369 O1367 1.353 . S
C1369 O1368 1.286 . S
C1369 C1371 1.363 . S
C1370 C1360 1.465 . S
C1370 U1366 2.847 . S
C1370 O1384 1.249 . S
C1370 O1385 1.202 . S
C1371 C1369 1.363 . S
C1371 C1373 1.408 . S
C1371 C1376 1.342 . S
C1372 C1373 1.310 . S
C1372 C1375 1.461 . S
C1372 H1392 0.932 . S
C1373 C1371 1.408 . S
C1373 C1372 1.310 . S
C1373 H1393 0.930 . S
C1374 C1375 1.474 . S
C1374 C1376 1.285 . S
C1374 H1394 0.929 . S
C1375 C1372 1.461 . S
C1375 C1374 1.474 . S
C1376 C1371 1.342 . S
C1376 C1374 1.285 . S
C1376 H1395 0.930 . S
C1377 C1380 1.424 . S
C1377 C1382 1.245 . S
C1377 C1383 1.428 . S
C1378 C1381 1.260 . S
C1378 C1382 1.477 . S
C1378 H1396 0.932 . S
C1379 C1380 1.384 . S
C1379 C1381 1.479 . S
C1379 H1397 0.929 . S
C1380 C1377 1.424 . S
C1380 C1379 1.384 . S
C1380 H1398 0.928 . S
C1381 C1378 1.260 . S
C1381 C1379 1.479 . S
C1382 C1377 1.245 . S
C1382 C1378 1.477 . S
C1382 H1399 0.932 . S
C1383 U1366 2.882 . S
C1383 C1377 1.428 . S
C1383 O1386 1.301 . S
C1383 O1387 1.282 . S
O1384 U1366 2.441 . S
O1384 C1370 1.249 . S
O1385 U1366 2.420 . S
O1385 C1370 1.202 . S
O1386 U1366 2.455 . S
O1386 C1383 1.301 . S
O1387 U1366 2.449 . S
O1387 C1383 1.282 . S
H1388 C1361 0.931 . S
H1389 C1363 0.929 . S
H1390 C1364 0.930 . S
H1391 C1365 0.931 . S
H1392 C1372 0.932 . S
H1393 C1373 0.930 . S
H1394 C1374 0.929 . S
H1395 C1376 0.930 . S
H1396 C1378 0.932 . S
H1397 C1379 0.929 . S
H1398 C1380 0.928 . S
H1399 C1382 0.932 . S
C1400 C1401 1.264 . S
C1400 C1405 1.479 . S
C1400 C1410 1.465 . S
C1401 C1400 1.264 . S
C1401 C1403 1.339 . S
C1401 H1428 0.931 . S
C1402 C1403 1.395 . S
C1402 C1404 1.320 . S
C1403 C1401 1.339 . S
C1403 C1402 1.395 . S
C1403 H1429 0.929 . S
C1404 C1402 1.320 . S
C1404 C1405 1.405 . S
C1404 H1430 0.930 . S
C1405 C1400 1.479 . S
C1405 C1404 1.405 . S
C1405 H1431 0.931 . S
U1406 O1407 2.454 . S
U1406 O1408 2.458 . S
U1406 C1409 2.984 . S
U1406 C1410 2.847 . S
U1406 C1423 2.882 . S
U1406 O1424 2.441 . S
U1406 O1425 2.420 . S
U1406 O1426 2.455 . S
U1406 O1427 2.449 . S
O1407 U1406 2.454 . S
O1407 C1409 1.353 . S
O1408 U1406 2.458 . S
O1408 C1409 1.286 . S
C1409 U1406 2.984 . S
C1409 O1407 1.353 . S
C1409 O1408 1.286 . S
C1409 C1411 1.363 . S
C1410 C1400 1.465 . S
C1410 U1406 2.847 . S
C1410 O1424 1.249 . S
C1410 O1425 1.202 . S
C1411 C1409 1.363 . S
C1411 C1413 1.408 . S
C1411 C1416 1.342 . S
C1412 C1413 1.310 . S
C1412 C1415 1.461 . S
C1412 H1432 0.932 . S
C1413 C1411 1.408 . S
C1413 C1412 1.310 . S
C1413 H1433 0.930 . S
C1414 C1415 1.474 . S
C1414 C1416 1.285 . S
C1414 H1434 0.929 . S
C1415 C1412 1.461 . S
C1415 C1414 1.474 . S
C1416 C1411 1.342 . S
C1416 C1414 1.285 . S
C1416 H1435 0.930 . S
C1417 C1420 1.424 . S
C1417 C1422 1.245 . S
C1417 C1423 1.428 . S
C1418 C1421 1.260 . S
C1418 C1422 1.477 . S
C1418 H1436 0.932 . S
C1419 C1420 1.384 . S
C1419 C1421 1.479 . S
C1419 H1437 0.929 . S
C1420 C1417 1.424 . S
C1420 C1419 1.384 . S
C1420 H1438 0.928 . S
C1421 C1418 1.260 . S
C1421 C1419 1.479 . S
C1422 C1417 1.245 . S
C1422 C1418 1.477 . S
C1422 H1439 0.932 . S
C1423 U1406 2.882 . S
C1423 C1417 1.428 . S
C1423 O1426 1.301 . S
C1423 O1427 1.282 . S
O1424 U1406 2.441 . S
O1424 C1410 1.249 . S
O1425 U1406 2.420 . S
O1425 C1410 1.202 . S
O1426 U1406 2.455 . S
O1426 C1423 1.301 . S
O1427 U1406 2.449 . S
O1427 C1423 1.282 . S
H1428 C1401 0.931 . S
H1429 C1403 0.929 . S
H1430 C1404 0.930 . S
H1431 C1405 0.931 . S
H1432 C1412 0.932 . S
H1433 C1413 0.930 . S
H1434 C1414 0.929 . S
H1435 C1416 0.930 . S
H1436 C1418 0.932 . S
H1437 C1419 0.929 . S
H1438 C1420 0.928 . S
H1439 C1422 0.932 . S
C1440 C1441 1.264 . S
C1440 C1445 1.479 . S
C1440 C1450 1.465 . S
C1441 C1440 1.264 . S
C1441 C1443 1.339 . S
C1441 H1468 0.931 . S
C1442 C1443 1.395 . S
C1442 C1444 1.320 . S
C1443 C1441 1.339 . S
C1443 C1442 1.395 . S
C1443 H1469 0.929 . S
C1444 C1442 1.320 . S
C1444 C1445 1.405 . S
C1444 H1470 0.930 . S
C1445 C1440 1.479 . S
C1445 C1444 1.405 . S
C1445 H1471 0.931 . S
U1446 O1447 2.454 . S
U1446 O1448 2.458 . S
U1446 C1449 2.984 . S
U1446 C1450 2.847 . S
U1446 C1463 2.882 . S
U1446 O1464 2.441 . S
U1446 O1465 2.420 . S
U1446 O1466 2.455 . S
U1446 O1467 2.449 . S
O1447 U1446 2.454 . S
O1447 C1449 1.353 . S
O1448 U1446 2.458 . S
O1448 C1449 1.286 . S
C1449 U1446 2.984 . S
C1449 O1447 1.353 . S
C1449 O1448 1.286 . S
C1449 C1451 1.363 . S
C1450 C1440 1.465 . S
C1450 U1446 2.847 . S
C1450 O1464 1.249 . S
C1450 O1465 1.202 . S
C1451 C1449 1.363 . S
C1451 C1453 1.408 . S
C1451 C1456 1.342 . S
C1452 C1453 1.310 . S
C1452 C1455 1.461 . S
C1452 H1472 0.932 . S
C1453 C1451 1.408 . S
C1453 C1452 1.310 . S
C1453 H1473 0.930 . S
C1454 C1455 1.474 . S
C1454 C1456 1.285 . S
C1454 H1474 0.929 . S
C1455 C1452 1.461 . S
C1455 C1454 1.474 . S
C1456 C1451 1.342 . S
C1456 C1454 1.285 . S
C1456 H1475 0.930 . S
C1457 C1460 1.424 . S
C1457 C1462 1.245 . S
C1457 C1463 1.428 . S
C1458 C1461 1.260 . S
C1458 C1462 1.477 . S
C1458 H1476 0.932 . S
C1459 C1460 1.384 . S
C1459 C1461 1.479 . S
C1459 H1477 0.929 . S
C1460 C1457 1.424 . S
C1460 C1459 1.384 . S
C1460 H1478 0.928 . S
C1461 C1458 1.260 . S
C1461 C1459 1.479 . S
C1462 C1457 1.245 . S
C1462 C1458 1.477 . S
C1462 H1479 0.932 . S
C1463 U1446 2.882 . S
C1463 C1457 1.428 . S
C1463 O1466 1.301 . S
C1463 O1467 1.282 . S
O1464 U1446 2.441 . S
O1464 C1450 1.249 . S
O1465 U1446 2.420 . S
O1465 C1450 1.202 . S
O1466 U1446 2.455 . S
O1466 C1463 1.301 . S
O1467 U1446 2.449 . S
O1467 C1463 1.282 . S
H1468 C1441 0.931 . S
H1469 C1443 0.929 . S
H1470 C1444 0.930 . S
H1471 C1445 0.931 . S
H1472 C1452 0.932 . S
H1473 C1453 0.930 . S
H1474 C1454 0.929 . S
H1475 C1456 0.930 . S
H1476 C1458 0.932 . S
H1477 C1459 0.929 . S
H1478 C1460 0.928 . S
H1479 C1462 0.932 . S
C1480 C1481 1.264 . S
C1480 C1485 1.479 . S
C1480 C1490 1.465 . S
C1481 C1480 1.264 . S
C1481 C1483 1.339 . S
C1481 H1508 0.931 . S
C1482 C1483 1.395 . S
C1482 C1484 1.320 . S
C1483 C1481 1.339 . S
C1483 C1482 1.395 . S
C1483 H1509 0.929 . S
C1484 C1482 1.320 . S
C1484 C1485 1.405 . S
C1484 H1510 0.930 . S
C1485 C1480 1.479 . S
C1485 C1484 1.405 . S
C1485 H1511 0.931 . S
U1486 O1487 2.454 . S
U1486 O1488 2.458 . S
U1486 C1489 2.984 . S
U1486 C1490 2.847 . S
U1486 C1503 2.882 . S
U1486 O1504 2.441 . S
U1486 O1505 2.420 . S
U1486 O1506 2.455 . S
U1486 O1507 2.449 . S
O1487 U1486 2.454 . S
O1487 C1489 1.353 . S
O1488 U1486 2.458 . S
O1488 C1489 1.286 . S
C1489 U1486 2.984 . S
C1489 O1487 1.353 . S
C1489 O1488 1.286 . S
C1489 C1491 1.363 . S
C1490 C1480 1.465 . S
C1490 U1486 2.847 . S
C1490 O1504 1.249 . S
C1490 O1505 1.202 . S
C1491 C1489 1.363 . S
C1491 C1493 1.408 . S
C1491 C1496 1.342 . S
C1492 C1493 1.310 . S
C1492 C1495 1.461 . S
C1492 H1512 0.932 . S
C1493 C1491 1.408 . S
C1493 C1492 1.310 . S
C1493 H1513 0.930 . S
C1494 C1495 1.474 . S
C1494 C1496 1.285 . S
C1494 H1514 0.929 . S
C1495 C1492 1.461 . S
C1495 C1494 1.474 . S
C1496 C1491 1.342 . S
C1496 C1494 1.285 . S
C1496 H1515 0.930 . S
C1497 C1500 1.424 . S
C1497 C1502 1.245 . S
C1497 C1503 1.428 . S
C1498 C1501 1.260 . S
C1498 C1502 1.477 . S
C1498 H1516 0.932 . S
C1499 C1500 1.384 . S
C1499 C1501 1.479 . S
C1499 H1517 0.929 . S
C1500 C1497 1.424 . S
C1500 C1499 1.384 . S
C1500 H1518 0.928 . S
C1501 C1498 1.260 . S
C1501 C1499 1.479 . S
C1502 C1497 1.245 . S
C1502 C1498 1.477 . S
C1502 H1519 0.932 . S
C1503 U1486 2.882 . S
C1503 C1497 1.428 . S
C1503 O1506 1.301 . S
C1503 O1507 1.282 . S
O1504 U1486 2.441 . S
O1504 C1490 1.249 . S
O1505 U1486 2.420 . S
O1505 C1490 1.202 . S
O1506 U1486 2.455 . S
O1506 C1503 1.301 . S
O1507 U1486 2.449 . S
O1507 C1503 1.282 . S
H1508 C1481 0.931 . S
H1509 C1483 0.929 . S
H1510 C1484 0.930 . S
H1511 C1485 0.931 . S
H1512 C1492 0.932 . S
H1513 C1493 0.930 . S
H1514 C1494 0.929 . S
H1515 C1496 0.930 . S
H1516 C1498 0.932 . S
H1517 C1499 0.929 . S
H1518 C1500 0.928 . S
H1519 C1502 0.932 . S
C1520 C1521 1.264 . S
C1520 C1525 1.479 . S
C1520 C1530 1.465 . S
C1521 C1520 1.264 . S
C1521 C1523 1.339 . S
C1521 H1548 0.931 . S
C1522 C1523 1.395 . S
C1522 C1524 1.320 . S
C1523 C1521 1.339 . S
C1523 C1522 1.395 . S
C1523 H1549 0.929 . S
C1524 C1522 1.320 . S
C1524 C1525 1.405 . S
C1524 H1550 0.930 . S
C1525 C1520 1.479 . S
C1525 C1524 1.405 . S
C1525 H1551 0.931 . S
U1526 O1527 2.454 . S
U1526 O1528 2.458 . S
U1526 C1529 2.984 . S
U1526 C1530 2.847 . S
U1526 C1543 2.882 . S
U1526 O1544 2.441 . S
U1526 O1545 2.420 . S
U1526 O1546 2.455 . S
U1526 O1547 2.449 . S
O1527 U1526 2.454 . S
O1527 C1529 1.353 . S
O1528 U1526 2.458 . S
O1528 C1529 1.286 . S
C1529 U1526 2.984 . S
C1529 O1527 1.353 . S
C1529 O1528 1.286 . S
C1529 C1531 1.363 . S
C1530 C1520 1.465 . S
C1530 U1526 2.847 . S
C1530 O1544 1.249 . S
C1530 O1545 1.202 . S
C1531 C1529 1.363 . S
C1531 C1533 1.408 . S
C1531 C1536 1.342 . S
C1532 C1533 1.310 . S
C1532 C1535 1.461 . S
C1532 H1552 0.932 . S
C1533 C1531 1.408 . S
C1533 C1532 1.310 . S
C1533 H1553 0.930 . S
C1534 C1535 1.474 . S
C1534 C1536 1.285 . S
C1534 H1554 0.929 . S
C1535 C1532 1.461 . S
C1535 C1534 1.474 . S
C1536 C1531 1.342 . S
C1536 C1534 1.285 . S
C1536 H1555 0.930 . S
C1537 C1540 1.424 . S
C1537 C1542 1.245 . S
C1537 C1543 1.428 . S
C1538 C1541 1.260 . S
C1538 C1542 1.477 . S
C1538 H1556 0.932 . S
C1539 C1540 1.384 . S
C1539 C1541 1.479 . S
C1539 H1557 0.929 . S
C1540 C1537 1.424 . S
C1540 C1539 1.384 . S
C1540 H1558 0.928 . S
C1541 C1538 1.260 . S
C1541 C1539 1.479 . S
C1542 C1537 1.245 . S
C1542 C1538 1.477 . S
C1542 H1559 0.932 . S
C1543 U1526 2.882 . S
C1543 C1537 1.428 . S
C1543 O1546 1.301 . S
C1543 O1547 1.282 . S
O1544 U1526 2.441 . S
O1544 C1530 1.249 . S
O1545 U1526 2.420 . S
O1545 C1530 1.202 . S
O1546 U1526 2.455 . S
O1546 C1543 1.301 . S
O1547 U1526 2.449 . S
O1547 C1543 1.282 . S
H1548 C1521 0.931 . S
H1549 C1523 0.929 . S
H1550 C1524 0.930 . S
H1551 C1525 0.931 . S
H1552 C1532 0.932 . S
H1553 C1533 0.930 . S
H1554 C1534 0.929 . S
H1555 C1536 0.930 . S
H1556 C1538 0.932 . S
H1557 C1539 0.929 . S
H1558 C1540 0.928 . S
H1559 C1542 0.932 . S
C1560 C1561 1.264 . S
C1560 C1565 1.479 . S
C1560 C1570 1.465 . S
C1561 C1560 1.264 . S
C1561 C1563 1.339 . S
C1561 H1588 0.931 . S
C1562 C1563 1.395 . S
C1562 C1564 1.320 . S
C1563 C1561 1.339 . S
C1563 C1562 1.395 . S
C1563 H1589 0.929 . S
C1564 C1562 1.320 . S
C1564 C1565 1.405 . S
C1564 H1590 0.930 . S
C1565 C1560 1.479 . S
C1565 C1564 1.405 . S
C1565 H1591 0.931 . S
U1566 O1567 2.454 . S
U1566 O1568 2.458 . S
U1566 C1569 2.984 . S
U1566 C1570 2.847 . S
U1566 C1583 2.882 . S
U1566 O1584 2.441 . S
U1566 O1585 2.420 . S
U1566 O1586 2.455 . S
U1566 O1587 2.449 . S
O1567 U1566 2.454 . S
O1567 C1569 1.353 . S
O1568 U1566 2.458 . S
O1568 C1569 1.286 . S
C1569 U1566 2.984 . S
C1569 O1567 1.353 . S
C1569 O1568 1.286 . S
C1569 C1571 1.363 . S
C1570 C1560 1.465 . S
C1570 U1566 2.847 . S
C1570 O1584 1.249 . S
C1570 O1585 1.202 . S
C1571 C1569 1.363 . S
C1571 C1573 1.408 . S
C1571 C1576 1.342 . S
C1572 C1573 1.310 . S
C1572 C1575 1.461 . S
C1572 H1592 0.932 . S
C1573 C1571 1.408 . S
C1573 C1572 1.310 . S
C1573 H1593 0.930 . S
C1574 C1575 1.474 . S
C1574 C1576 1.285 . S
C1574 H1594 0.929 . S
C1575 C1572 1.461 . S
C1575 C1574 1.474 . S
C1576 C1571 1.342 . S
C1576 C1574 1.285 . S
C1576 H1595 0.930 . S
C1577 C1580 1.424 . S
C1577 C1582 1.245 . S
C1577 C1583 1.428 . S
C1578 C1581 1.260 . S
C1578 C1582 1.477 . S
C1578 H1596 0.932 . S
C1579 C1580 1.384 . S
C1579 C1581 1.479 . S
C1579 H1597 0.929 . S
C1580 C1577 1.424 . S
C1580 C1579 1.384 . S
C1580 H1598 0.928 . S
C1581 C1578 1.260 . S
C1581 C1579 1.479 . S
C1582 C1577 1.245 . S
C1582 C1578 1.477 . S
C1582 H1599 0.932 . S
C1583 U1566 2.882 . S
C1583 C1577 1.428 . S
C1583 O1586 1.301 . S
C1583 O1587 1.282 . S
O1584 U1566 2.441 . S
O1584 C1570 1.249 . S
O1585 U1566 2.420 . S
O1585 C1570 1.202 . S
O1586 U1566 2.455 . S
O1586 C1583 1.301 . S
O1587 U1566 2.449 . S
O1587 C1583 1.282 . S
H1588 C1561 0.931 . S
H1589 C1563 0.929 . S
H1590 C1564 0.930 . S
H1591 C1565 0.931 . S
H1592 C1572 0.932 . S
H1593 C1573 0.930 . S
H1594 C1574 0.929 . S
H1595 C1576 0.930 . S
H1596 C1578 0.932 . S
H1597 C1579 0.929 . S
H1598 C1580 0.928 . S
H1599 C1582 0.932 . S
C1600 C1601 1.264 . S
C1600 C1605 1.479 . S
C1600 C1610 1.465 . S
C1601 C1600 1.264 . S
C1601 C1603 1.339 . S
C1601 H1628 0.931 . S
C1602 C1603 1.395 . S
C1602 C1604 1.320 . S
C1603 C1601 1.339 . S
C1603 C1602 1.395 . S
C1603 H1629 0.929 . S
C1604 C1602 1.320 . S
C1604 C1605 1.405 . S
C1604 H1630 0.930 . S
C1605 C1600 1.479 . S
C1605 C1604 1.405 . S
C1605 H1631 0.931 . S
U1606 O1607 2.454 . S
U1606 O1608 2.458 . S
U1606 C1609 2.984 . S
U1606 C1610 2.847 . S
U1606 C1623 2.882 . S
U1606 O1624 2.441 . S
U1606 O1625 2.420 . S
U1606 O1626 2.455 . S
U1606 O1627 2.449 . S
O1607 U1606 2.454 . S
O1607 C1609 1.353 . S
O1608 U1606 2.458 . S
O1608 C1609 1.286 . S
C1609 U1606 2.984 . S
C1609 O1607 1.353 . S
C1609 O1608 1.286 . S
C1609 C1611 1.363 . S
C1610 C1600 1.465 . S
C1610 U1606 2.847 . S
C1610 O1624 1.249 . S
C1610 O1625 1.202 . S
C1611 C1609 1.363 . S
C1611 C1613 1.408 . S
C1611 C1616 1.342 . S
C1612 C1613 1.310 . S
C1612 C1615 1.461 . S
C1612 H1632 0.932 . S
C1613 C1611 1.408 . S
C1613 C1612 1.310 . S
C1613 H1633 0.930 . S
C1614 C1615 1.474 . S
C1614 C1616 1.285 . S
C1614 H1634 0.929 . S
C1615 C1612 1.461 . S
C1615 C1614 1.474 . S
C1616 C1611 1.342 . S
C1616 C1614 1.285 . S
C1616 H1635 0.930 . S
C1617 C1620 1.424 . S
C1617 C1622 1.245 . S
C1617 C1623 1.428 . S
C1618 C1621 1.260 . S
C1618 C1622 1.477 . S
C1618 H1636 0.932 . S
C1619 C1620 1.384 . S
C1619 C1621 1.479 . S
C1619 H1637 0.929 . S
C1620 C1617 1.424 . S
C1620 C1619 1.384 . S
C1620 H1638 0.928 . S
C1621 C1618 1.260 . S
C1621 C1619 1.479 . S
C1622 C1617 1.245 . S
C1622 C1618 1.477 . S
C1622 H1639 0.932 . S
C1623 U1606 2.882 . S
C1623 C1617 1.428 . S
C1623 O1626 1.301 . S
C1623 O1627 1.282 . S
O1624 U1606 2.441 . S
O1624 C1610 1.249 . S
O1625 U1606 2.420 . S
O1625 C1610 1.202 . S
O1626 U1606 2.455 . S
O1626 C1623 1.301 . S
O1627 U1606 2.449 . S
O1627 C1623 1.282 . S
H1628 C1601 0.931 . S
H1629 C1603 0.929 . S
H1630 C1604 0.930 . S
H1631 C1605 0.931 . S
H1632 C1612 0.932 . S
H1633 C1613 0.930 . S
H1634 C1614 0.929 . S
H1635 C1616 0.930 . S
H1636 C1618 0.932 . S
H1637 C1619 0.929 . S
H1638 C1620 0.928 . S
H1639 C1622 0.932 . S
C1640 C1641 1.264 . S
C1640 C1645 1.479 . S
C1640 C1650 1.465 . S
C1641 C1640 1.264 . S
C1641 C1643 1.339 . S
C1641 H1668 0.931 . S
C1642 C1643 1.395 . S
C1642 C1644 1.320 . S
C1643 C1641 1.339 . S
C1643 C1642 1.395 . S
C1643 H1669 0.929 . S
C1644 C1642 1.320 . S
C1644 C1645 1.405 . S
C1644 H1670 0.930 . S
C1645 C1640 1.479 . S
C1645 C1644 1.405 . S
C1645 H1671 0.931 . S
U1646 O1647 2.454 . S
U1646 O1648 2.458 . S
U1646 C1649 2.984 . S
U1646 C1650 2.847 . S
U1646 C1663 2.882 . S
U1646 O1664 2.441 . S
U1646 O1665 2.420 . S
U1646 O1666 2.455 . S
U1646 O1667 2.449 . S
O1647 U1646 2.454 . S
O1647 C1649 1.353 . S
O1648 U1646 2.458 . S
O1648 C1649 1.286 . S
C1649 U1646 2.984 . S
C1649 O1647 1.353 . S
C1649 O1648 1.286 . S
C1649 C1651 1.363 . S
C1650 C1640 1.465 . S
C1650 U1646 2.847 . S
C1650 O1664 1.249 . S
C1650 O1665 1.202 . S
C1651 C1649 1.363 . S
C1651 C1653 1.408 . S
C1651 C1656 1.342 . S
C1652 C1653 1.310 . S
C1652 C1655 1.461 . S
C1652 H1672 0.932 . S
C1653 C1651 1.408 . S
C1653 C1652 1.310 . S
C1653 H1673 0.930 . S
C1654 C1655 1.474 . S
C1654 C1656 1.285 . S
C1654 H1674 0.929 . S
C1655 C1652 1.461 . S
C1655 C1654 1.474 . S
C1656 C1651 1.342 . S
C1656 C1654 1.285 . S
C1656 H1675 0.930 . S
C1657 C1660 1.424 . S
C1657 C1662 1.245 . S
C1657 C1663 1.428 . S
C1658 C1661 1.260 . S
C1658 C1662 1.477 . S
C1658 H1676 0.932 . S
C1659 C1660 1.384 . S
C1659 C1661 1.479 . S
C1659 H1677 0.929 . S
C1660 C1657 1.424 . S
C1660 C1659 1.384 . S
C1660 H1678 0.928 . S
C1661 C1658 1.260 . S
C1661 C1659 1.479 . S
C1662 C1657 1.245 . S
C1662 C1658 1.477 . S
C1662 H1679 0.932 . S
C1663 U1646 2.882 . S
C1663 C1657 1.428 . S
C1663 O1666 1.301 . S
C1663 O1667 1.282 . S
O1664 U1646 2.441 . S
O1664 C1650 1.249 . S
O1665 U1646 2.420 . S
O1665 C1650 1.202 . S
O1666 U1646 2.455 . S
O1666 C1663 1.301 . S
O1667 U1646 2.449 . S
O1667 C1663 1.282 . S
H1668 C1641 0.931 . S
H1669 C1643 0.929 . S
H1670 C1644 0.930 . S
H1671 C1645 0.931 . S
H1672 C1652 0.932 . S
H1673 C1653 0.930 . S
H1674 C1654 0.929 . S
H1675 C1656 0.930 . S
H1676 C1658 0.932 . S
H1677 C1659 0.929 . S
H1678 C1660 0.928 . S
H1679 C1662 0.932 . S
C1680 C1681 1.264 . S
C1680 C1685 1.479 . S
C1680 C1690 1.465 . S
C1681 C1680 1.264 . S
C1681 C1683 1.339 . S
C1681 H1708 0.931 . S
C1682 C1683 1.395 . S
C1682 C1684 1.320 . S
C1683 C1681 1.339 . S
C1683 C1682 1.395 . S
C1683 H1709 0.929 . S
C1684 C1682 1.320 . S
C1684 C1685 1.405 . S
C1684 H1710 0.930 . S
C1685 C1680 1.479 . S
C1685 C1684 1.405 . S
C1685 H1711 0.931 . S
U1686 O1687 2.454 . S
U1686 O1688 2.458 . S
U1686 C1689 2.984 . S
U1686 C1690 2.847 . S
U1686 C1703 2.882 . S
U1686 O1704 2.441 . S
U1686 O1705 2.420 . S
U1686 O1706 2.455 . S
U1686 O1707 2.449 . S
O1687 U1686 2.454 . S
O1687 C1689 1.353 . S
O1688 U1686 2.458 . S
O1688 C1689 1.286 . S
C1689 U1686 2.984 . S
C1689 O1687 1.353 . S
C1689 O1688 1.286 . S
C1689 C1691 1.363 . S
C1690 C1680 1.465 . S
C1690 U1686 2.847 . S
C1690 O1704 1.249 . S
C1690 O1705 1.202 . S
C1691 C1689 1.363 . S
C1691 C1693 1.408 . S
C1691 C1696 1.342 . S
C1692 C1693 1.310 . S
C1692 C1695 1.461 . S
C1692 H1712 0.932 . S
C1693 C1691 1.408 . S
C1693 C1692 1.310 . S
C1693 H1713 0.930 . S
C1694 C1695 1.474 . S
C1694 C1696 1.285 . S
C1694 H1714 0.929 . S
C1695 C1692 1.461 . S
C1695 C1694 1.474 . S
C1696 C1691 1.342 . S
C1696 C1694 1.285 . S
C1696 H1715 0.930 . S
C1697 C1700 1.424 . S
C1697 C1702 1.245 . S
C1697 C1703 1.428 . S
C1698 C1701 1.260 . S
C1698 C1702 1.477 . S
C1698 H1716 0.932 . S
C1699 C1700 1.384 . S
C1699 C1701 1.479 . S
C1699 H1717 0.929 . S
C1700 C1697 1.424 . S
C1700 C1699 1.384 . S
C1700 H1718 0.928 . S
C1701 C1698 1.260 . S
C1701 C1699 1.479 . S
C1702 C1697 1.245 . S
C1702 C1698 1.477 . S
C1702 H1719 0.932 . S
C1703 U1686 2.882 . S
C1703 C1697 1.428 . S
C1703 O1706 1.301 . S
C1703 O1707 1.282 . S
O1704 U1686 2.441 . S
O1704 C1690 1.249 . S
O1705 U1686 2.420 . S
O1705 C1690 1.202 . S
O1706 U1686 2.455 . S
O1706 C1703 1.301 . S
O1707 U1686 2.449 . S
O1707 C1703 1.282 . S
H1708 C1681 0.931 . S
H1709 C1683 0.929 . S
H1710 C1684 0.930 . S
H1711 C1685 0.931 . S
H1712 C1692 0.932 . S
H1713 C1693 0.930 . S
H1714 C1694 0.929 . S
H1715 C1696 0.930 . S
H1716 C1698 0.932 . S
H1717 C1699 0.929 . S
H1718 C1700 0.928 . S
H1719 C1702 0.932 . S
C1720 C1721 1.264 . S
C1720 C1725 1.479 . S
C1720 C1730 1.465 . S
C1721 C1720 1.264 . S
C1721 C1723 1.339 . S
C1721 H1748 0.931 . S
C1722 C1723 1.395 . S
C1722 C1724 1.320 . S
C1723 C1721 1.339 . S
C1723 C1722 1.395 . S
C1723 H1749 0.929 . S
C1724 C1722 1.320 . S
C1724 C1725 1.405 . S
C1724 H1750 0.930 . S
C1725 C1720 1.479 . S
C1725 C1724 1.405 . S
C1725 H1751 0.931 . S
U1726 O1727 2.454 . S
U1726 O1728 2.458 . S
U1726 C1729 2.984 . S
U1726 C1730 2.847 . S
U1726 C1743 2.882 . S
U1726 O1744 2.441 . S
U1726 O1745 2.420 . S
U1726 O1746 2.455 . S
U1726 O1747 2.449 . S
O1727 U1726 2.454 . S
O1727 C1729 1.353 . S
O1728 U1726 2.458 . S
O1728 C1729 1.286 . S
C1729 U1726 2.984 . S
C1729 O1727 1.353 . S
C1729 O1728 1.286 . S
C1729 C1731 1.363 . S
C1730 C1720 1.465 . S
C1730 U1726 2.847 . S
C1730 O1744 1.249 . S
C1730 O1745 1.202 . S
C1731 C1729 1.363 . S
C1731 C1733 1.408 . S
C1731 C1736 1.342 . S
C1732 C1733 1.310 . S
C1732 C1735 1.461 . S
C1732 H1752 0.932 . S
C1733 C1731 1.408 . S
C1733 C1732 1.310 . S
C1733 H1753 0.930 . S
C1734 C1735 1.474 . S
C1734 C1736 1.285 . S
C1734 H1754 0.929 . S
C1735 C1732 1.461 . S
C1735 C1734 1.474 . S
C1736 C1731 1.342 . S
C1736 C1734 1.285 . S
C1736 H1755 0.930 . S
C1737 C1740 1.424 . S
C1737 C1742 1.245 . S
C1737 C1743 1.428 . S
C1738 C1741 1.260 . S
C1738 C1742 1.477 . S
C1738 H1756 0.932 . S
C1739 C1740 1.384 . S
C1739 C1741 1.479 . S
C1739 H1757 0.929 . S
C1740 C1737 1.424 . S
C1740 C1739 1.384 . S
C1740 H1758 0.928 . S
C1741 C1738 1.260 . S
C1741 C1739 1.479 . S
C1742 C1737 1.245 . S
C1742 C1738 1.477 . S
C1742 H1759 0.932 . S
C1743 U1726 2.882 . S
C1743 C1737 1.428 . S
C1743 O1746 1.301 . S
C1743 O1747 1.282 . S
O1744 U1726 2.441 . S
O1744 C1730 1.249 . S
O1745 U1726 2.420 . S
O1745 C1730 1.202 . S
O1746 U1726 2.455 . S
O1746 C1743 1.301 . S
O1747 U1726 2.449 . S
O1747 C1743 1.282 . S
H1748 C1721 0.931 . S
H1749 C1723 0.929 . S
H1750 C1724 0.930 . S
H1751 C1725 0.931 . S
H1752 C1732 0.932 . S
H1753 C1733 0.930 . S
H1754 C1734 0.929 . S
H1755 C1736 0.930 . S
H1756 C1738 0.932 . S
H1757 C1739 0.929 . S
H1758 C1740 0.928 . S
H1759 C1742 0.932 . S
C1760 C1761 1.264 . S
C1760 C1765 1.479 . S
C1760 C1770 1.465 . S
C1761 C1760 1.264 . S
C1761 C1763 1.339 . S
C1761 H1788 0.931 . S
C1762 C1763 1.395 . S
C1762 C1764 1.320 . S
C1763 C1761 1.339 . S
C1763 C1762 1.395 . S
C1763 H1789 0.929 . S
C1764 C1762 1.320 . S
C1764 C1765 1.405 . S
C1764 H1790 0.930 . S
C1765 C1760 1.479 . S
C1765 C1764 1.405 . S
C1765 H1791 0.931 . S
U1766 O1767 2.454 . S
U1766 O1768 2.458 . S
U1766 C1769 2.984 . S
U1766 C1770 2.847 . S
U1766 C1783 2.882 . S
U1766 O1784 2.441 . S
U1766 O1785 2.420 . S
U1766 O1786 2.455 . S
U1766 O1787 2.449 . S
O1767 U1766 2.454 . S
O1767 C1769 1.353 . S
O1768 U1766 2.458 . S
O1768 C1769 1.286 . S
C1769 U1766 2.984 . S
C1769 O1767 1.353 . S
C1769 O1768 1.286 . S
C1769 C1771 1.363 . S
C1770 C1760 1.465 . S
C1770 U1766 2.847 . S
C1770 O1784 1.249 . S
C1770 O1785 1.202 . S
C1771 C1769 1.363 . S
C1771 C1773 1.408 . S
C1771 C1776 1.342 . S
C1772 C1773 1.310 . S
C1772 C1775 1.461 . S
C1772 H1792 0.932 . S
C1773 C1771 1.408 . S
C1773 C1772 1.310 . S
C1773 H1793 0.930 . S
C1774 C1775 1.474 . S
C1774 C1776 1.285 . S
C1774 H1794 0.929 . S
C1775 C1772 1.461 . S
C1775 C1774 1.474 . S
C1776 C1771 1.342 . S
C1776 C1774 1.285 . S
C1776 H1795 0.930 . S
C1777 C1780 1.424 . S
C1777 C1782 1.245 . S
C1777 C1783 1.428 . S
C1778 C1781 1.260 . S
C1778 C1782 1.477 . S
C1778 H1796 0.932 . S
C1779 C1780 1.384 . S
C1779 C1781 1.479 . S
C1779 H1797 0.929 . S
C1780 C1777 1.424 . S
C1780 C1779 1.384 . S
C1780 H1798 0.928 . S
C1781 C1778 1.260 . S
C1781 C1779 1.479 . S
C1782 C1777 1.245 . S
C1782 C1778 1.477 . S
C1782 H1799 0.932 . S
C1783 U1766 2.882 . S
C1783 C1777 1.428 . S
C1783 O1786 1.301 . S
C1783 O1787 1.282 . S
O1784 U1766 2.441 . S
O1784 C1770 1.249 . S
O1785 U1766 2.420 . S
O1785 C1770 1.202 . S
O1786 U1766 2.455 . S
O1786 C1783 1.301 . S
O1787 U1766 2.449 . S
O1787 C1783 1.282 . S
H1788 C1761 0.931 . S
H1789 C1763 0.929 . S
H1790 C1764 0.930 . S
H1791 C1765 0.931 . S
H1792 C1772 0.932 . S
H1793 C1773 0.930 . S
H1794 C1774 0.929 . S
H1795 C1776 0.930 . S
H1796 C1778 0.932 . S
H1797 C1779 0.929 . S
H1798 C1780 0.928 . S
H1799 C1782 0.932 . S
C1800 C1801 1.264 . S
C1800 C1805 1.479 . S
C1800 C1810 1.465 . S
C1801 C1800 1.264 . S
C1801 C1803 1.339 . S
C1801 H1828 0.931 . S
C1802 C1803 1.395 . S
C1802 C1804 1.320 . S
C1803 C1801 1.339 . S
C1803 C1802 1.395 . S
C1803 H1829 0.929 . S
C1804 C1802 1.320 . S
C1804 C1805 1.405 . S
C1804 H1830 0.930 . S
C1805 C1800 1.479 . S
C1805 C1804 1.405 . S
C1805 H1831 0.931 . S
U1806 O1807 2.454 . S
U1806 O1808 2.458 . S
U1806 C1809 2.984 . S
U1806 C1810 2.847 . S
U1806 C1823 2.882 . S
U1806 O1824 2.441 . S
U1806 O1825 2.420 . S
U1806 O1826 2.455 . S
U1806 O1827 2.449 . S
O1807 U1806 2.454 . S
O1807 C1809 1.353 . S
O1808 U1806 2.458 . S
O1808 C1809 1.286 . S
C1809 U1806 2.984 . S
C1809 O1807 1.353 . S
C1809 O1808 1.286 . S
C1809 C1811 1.363 . S
C1810 C1800 1.465 . S
C1810 U1806 2.847 . S
C1810 O1824 1.249 . S
C1810 O1825 1.202 . S
C1811 C1809 1.363 . S
C1811 C1813 1.408 . S
C1811 C1816 1.342 . S
C1812 C1813 1.310 . S
C1812 C1815 1.461 . S
C1812 H1832 0.932 . S
C1813 C1811 1.408 . S
C1813 C1812 1.310 . S
C1813 H1833 0.930 . S
C1814 C1815 1.474 . S
C1814 C1816 1.285 . S
C1814 H1834 0.929 . S
C1815 C1812 1.461 . S
C1815 C1814 1.474 . S
C1816 C1811 1.342 . S
C1816 C1814 1.285 . S
C1816 H1835 0.930 . S
C1817 C1820 1.424 . S
C1817 C1822 1.245 . S
C1817 C1823 1.428 . S
C1818 C1821 1.260 . S
C1818 C1822 1.477 . S
C1818 H1836 0.932 . S
C1819 C1820 1.384 . S
C1819 C1821 1.479 . S
C1819 H1837 0.929 . S
C1820 C1817 1.424 . S
C1820 C1819 1.384 . S
C1820 H1838 0.928 . S
C1821 C1818 1.260 . S
C1821 C1819 1.479 . S
C1822 C1817 1.245 . S
C1822 C1818 1.477 . S
C1822 H1839 0.932 . S
C1823 U1806 2.882 . S
C1823 C1817 1.428 . S
C1823 O1826 1.301 . S
C1823 O1827 1.282 . S
O1824 U1806 2.441 . S
O1824 C1810 1.249 . S
O1825 U1806 2.420 . S
O1825 C1810 1.202 . S
O1826 U1806 2.455 . S
O1826 C1823 1.301 . S
O1827 U1806 2.449 . S
O1827 C1823 1.282 . S
H1828 C1801 0.931 . S
H1829 C1803 0.929 . S
H1830 C1804 0.930 . S
H1831 C1805 0.931 . S
H1832 C1812 0.932 . S
H1833 C1813 0.930 . S
H1834 C1814 0.929 . S
H1835 C1816 0.930 . S
H1836 C1818 0.932 . S
H1837 C1819 0.929 . S
H1838 C1820 0.928 . S
H1839 C1822 0.932 . S
C1840 C1841 1.264 . S
C1840 C1845 1.479 . S
C1840 C1850 1.465 . S
C1841 C1840 1.264 . S
C1841 C1843 1.339 . S
C1841 H1868 0.931 . S
C1842 C1843 1.395 . S
C1842 C1844 1.320 . S
C1843 C1841 1.339 . S
C1843 C1842 1.395 . S
C1843 H1869 0.929 . S
C1844 C1842 1.320 . S
C1844 C1845 1.405 . S
C1844 H1870 0.930 . S
C1845 C1840 1.479 . S
C1845 C1844 1.405 . S
C1845 H1871 0.931 . S
U1846 O1847 2.454 . S
U1846 O1848 2.458 . S
U1846 C1849 2.984 . S
U1846 C1850 2.847 . S
U1846 C1863 2.882 . S
U1846 O1864 2.441 . S
U1846 O1865 2.420 . S
U1846 O1866 2.455 . S
U1846 O1867 2.449 . S
O1847 U1846 2.454 . S
O1847 C1849 1.353 . S
O1848 U1846 2.458 . S
O1848 C1849 1.286 . S
C1849 U1846 2.984 . S
C1849 O1847 1.353 . S
C1849 O1848 1.286 . S
C1849 C1851 1.363 . S
C1850 C1840 1.465 . S
C1850 U1846 2.847 . S
C1850 O1864 1.249 . S
C1850 O1865 1.202 . S
C1851 C1849 1.363 . S
C1851 C1853 1.408 . S
C1851 C1856 1.342 . S
C1852 C1853 1.310 . S
C1852 C1855 1.461 . S
C1852 H1872 0.932 . S
C1853 C1851 1.408 . S
C1853 C1852 1.310 . S
C1853 H1873 0.930 . S
C1854 C1855 1.474 . S
C1854 C1856 1.285 . S
C1854 H1874 0.929 . S
C1855 C1852 1.461 . S
C1855 C1854 1.474 . S
C1856 C1851 1.342 . S
C1856 C1854 1.285 . S
C1856 H1875 0.930 . S
C1857 C1860 1.424 . S
C1857 C1862 1.245 . S
C1857 C1863 1.428 . S
C1858 C1861 1.260 . S
C1858 C1862 1.477 . S
C1858 H1876 0.932 . S
C1859 C1860 1.384 . S
C1859 C1861 1.479 . S
C1859 H1877 0.929 . S
C1860 C1857 1.424 . S
C1860 C1859 1.384 . S
C1860 H1878 0.928 . S
C1861 C1858 1.260 . S
C1861 C1859 1.479 . S
C1862 C1857 1.245 . S
C1862 C1858 1.477 . S
C1862 H1879 0.932 . S
C1863 U1846 2.882 . S
C1863 C1857 1.428 . S
C1863 O1866 1.301 . S
C1863 O1867 1.282 . S
O1864 U1846 2.441 . S
O1864 C1850 1.249 . S
O1865 U1846 2.420 . S
O1865 C1850 1.202 . S
O1866 U1846 2.455 . S
O1866 C1863 1.301 . S
O1867 U1846 2.449 . S
O1867 C1863 1.282 . S
H1868 C1841 0.931 . S
H1869 C1843 0.929 . S
H1870 C1844 0.930 . S
H1871 C1845 0.931 . S
H1872 C1852 0.932 . S
H1873 C1853 0.930 . S
H1874 C1854 0.929 . S
H1875 C1856 0.930 . S
H1876 C1858 0.932 . S
H1877 C1859 0.929 . S
H1878 C1860 0.928 . S
H1879 C1862 0.932 . S
C1880 C1881 1.264 . S
C1880 C1885 1.479 . S
C1880 C1890 1.465 . S
C1881 C1880 1.264 . S
C1881 C1883 1.339 . S
C1881 H1908 0.931 . S
C1882 C1883 1.395 . S
C1882 C1884 1.320 . S
C1883 C1881 1.339 . S
C1883 C1882 1.395 . S
C1883 H1909 0.929 . S
C1884 C1882 1.320 . S
C1884 C1885 1.405 . S
C1884 H1910 0.930 . S
C1885 C1880 1.479 . S
C1885 C1884 1.405 . S
C1885 H1911 0.931 . S
U1886 O1887 2.454 . S
U1886 O1888 2.458 . S
U1886 C1889 2.984 . S
U1886 C1890 2.847 . S
U1886 C1903 2.882 . S
U1886 O1904 2.441 . S
U1886 O1905 2.420 . S
U1886 O1906 2.455 . S
U1886 O1907 2.449 . S
O1887 U1886 2.454 . S
O1887 C1889 1.353 . S
O1888 U1886 2.458 . S
O1888 C1889 1.286 . S
C1889 U1886 2.984 . S
C1889 O1887 1.353 . S
C1889 O1888 1.286 . S
C1889 C1891 1.363 . S
C1890 C1880 1.465 . S
C1890 U1886 2.847 . S
C1890 O1904 1.249 . S
C1890 O1905 1.202 . S
C1891 C1889 1.363 . S
C1891 C1893 1.408 . S
C1891 C1896 1.342 . S
C1892 C1893 1.310 . S
C1892 C1895 1.461 . S
C1892 H1912 0.932 . S
C1893 C1891 1.408 . S
C1893 C1892 1.310 . S
C1893 H1913 0.930 . S
C1894 C1895 1.474 . S
C1894 C1896 1.285 . S
C1894 H1914 0.929 . S
C1895 C1892 1.461 . S
C1895 C1894 1.474 . S
C1896 C1891 1.342 . S
C1896 C1894 1.285 . S
C1896 H1915 0.930 . S
C1897 C1900 1.424 . S
C1897 C1902 1.245 . S
C1897 C1903 1.428 . S
C1898 C1901 1.260 . S
C1898 C1902 1.477 . S
C1898 H1916 0.932 . S
C1899 C1900 1.384 . S
C1899 C1901 1.479 . S
C1899 H1917 0.929 . S
C1900 C1897 1.424 . S
C1900 C1899 1.384 . S
C1900 H1918 0.928 . S
C1901 C1898 1.260 . S
C1901 C1899 1.479 . S
C1902 C1897 1.245 . S
C1902 C1898 1.477 . S
C1902 H1919 0.932 . S
C1903 U1886 2.882 . S
C1903 C1897 1.428 . S
C1903 O1906 1.301 . S
C1903 O1907 1.282 . S
O1904 U1886 2.441 . S
O1904 C1890 1.249 . S
O1905 U1886 2.420 . S
O1905 C1890 1.202 . S
O1906 U1886 2.455 . S
O1906 C1903 1.301 . S
O1907 U1886 2.449 . S
O1907 C1903 1.282 . S
H1908 C1881 0.931 . S
H1909 C1883 0.929 . S
H1910 C1884 0.930 . S
H1911 C1885 0.931 . S
H1912 C1892 0.932 . S
H1913 C1893 0.930 . S
H1914 C1894 0.929 . S
H1915 C1896 0.930 . S
H1916 C1898 0.932 . S
H1917 C1899 0.929 . S
H1918 C1900 0.928 . S
H1919 C1902 0.932 . S
C1920 C1921 1.264 . S
C1920 C1925 1.479 . S
C1920 C1930 1.465 . S
C1921 C1920 1.264 . S
C1921 C1923 1.339 . S
C1921 H1948 0.931 . S
C1922 C1923 1.395 . S
C1922 C1924 1.320 . S
C1923 C1921 1.339 . S
C1923 C1922 1.395 . S
C1923 H1949 0.929 . S
C1924 C1922 1.320 . S
C1924 C1925 1.405 . S
C1924 H1950 0.930 . S
C1925 C1920 1.479 . S
C1925 C1924 1.405 . S
C1925 H1951 0.931 . S
U1926 O1927 2.454 . S
U1926 O1928 2.458 . S
U1926 C1929 2.984 . S
U1926 C1930 2.847 . S
U1926 C1943 2.882 . S
U1926 O1944 2.441 . S
U1926 O1945 2.420 . S
U1926 O1946 2.455 . S
U1926 O1947 2.449 . S
O1927 U1926 2.454 . S
O1927 C1929 1.353 . S
O1928 U1926 2.458 . S
O1928 C1929 1.286 . S
C1929 U1926 2.984 . S
C1929 O1927 1.353 . S
C1929 O1928 1.286 . S
C1929 C1931 1.363 . S
C1930 C1920 1.465 . S
C1930 U1926 2.847 . S
C1930 O1944 1.249 . S
C1930 O1945 1.202 . S
C1931 C1929 1.363 . S
C1931 C1933 1.408 . S
C1931 C1936 1.342 . S
C1932 C1933 1.310 . S
C1932 C1935 1.461 . S
C1932 H1952 0.932 . S
C1933 C1931 1.408 . S
C1933 C1932 1.310 . S
C1933 H1953 0.930 . S
C1934 C1935 1.474 . S
C1934 C1936 1.285 . S
C1934 H1954 0.929 . S
C1935 C1932 1.461 . S
C1935 C1934 1.474 . S
C1936 C1931 1.342 . S
C1936 C1934 1.285 . S
C1936 H1955 0.930 . S
C1937 C1940 1.424 . S
C1937 C1942 1.245 . S
C1937 C1943 1.428 . S
C1938 C1941 1.260 . S
C1938 C1942 1.477 . S
C1938 H1956 0.932 . S
C1939 C1940 1.384 . S
C1939 C1941 1.479 . S
C1939 H1957 0.929 . S
C1940 C1937 1.424 . S
C1940 C1939 1.384 . S
C1940 H1958 0.928 . S
C1941 C1938 1.260 . S
C1941 C1939 1.479 . S
C1942 C1937 1.245 . S
C1942 C1938 1.477 . S
C1942 H1959 0.932 . S
C1943 U1926 2.882 . S
C1943 C1937 1.428 . S
C1943 O1946 1.301 . S
C1943 O1947 1.282 . S
O1944 U1926 2.441 . S
O1944 C1930 1.249 . S
O1945 U1926 2.420 . S
O1945 C1930 1.202 . S
O1946 U1926 2.455 . S
O1946 C1943 1.301 . S
O1947 U1926 2.449 . S
O1947 C1943 1.282 . S
H1948 C1921 0.931 . S
H1949 C1923 0.929 . S
H1950 C1924 0.930 . S
H1951 C1925 0.931 . S
H1952 C1932 0.932 . S
H1953 C1933 0.930 . S
H1954 C1934 0.929 . S
H1955 C1936 0.930 . S
H1956 C1938 0.932 . S
H1957 C1939 0.929 . S
H1958 C1940 0.928 . S
H1959 C1942 0.932 . S
C1960 C1961 1.264 . S
C1960 C1965 1.479 . S
C1960 C1970 1.465 . S
C1961 C1960 1.264 . S
C1961 C1963 1.339 . S
C1961 H1988 0.931 . S
C1962 C1963 1.395 . S
C1962 C1964 1.320 . S
C1963 C1961 1.339 . S
C1963 C1962 1.395 . S
C1963 H1989 0.929 . S
C1964 C1962 1.320 . S
C1964 C1965 1.405 . S
C1964 H1990 0.930 . S
C1965 C1960 1.479 . S
C1965 C1964 1.405 . S
C1965 H1991 0.931 . S
U1966 O1967 2.454 . S
U1966 O1968 2.458 . S
U1966 C1969 2.984 . S
U1966 C1970 2.847 . S
U1966 C1983 2.882 . S
U1966 O1984 2.441 . S
U1966 O1985 2.420 . S
U1966 O1986 2.455 . S
U1966 O1987 2.449 . S
O1967 U1966 2.454 . S
O1967 C1969 1.353 . S
O1968 U1966 2.458 . S
O1968 C1969 1.286 . S
C1969 U1966 2.984 . S
C1969 O1967 1.353 . S
C1969 O1968 1.286 . S
C1969 C1971 1.363 . S
C1970 C1960 1.465 . S
C1970 U1966 2.847 . S
C1970 O1984 1.249 . S
C1970 O1985 1.202 . S
C1971 C1969 1.363 . S
C1971 C1973 1.408 . S
C1971 C1976 1.342 . S
C1972 C1973 1.310 . S
C1972 C1975 1.461 . S
C1972 H1992 0.932 . S
C1973 C1971 1.408 . S
C1973 C1972 1.310 . S
C1973 H1993 0.930 . S
C1974 C1975 1.474 . S
C1974 C1976 1.285 . S
C1974 H1994 0.929 . S
C1975 C1972 1.461 . S
C1975 C1974 1.474 . S
C1976 C1971 1.342 . S
C1976 C1974 1.285 . S
C1976 H1995 0.930 . S
C1977 C1980 1.424 . S
C1977 C1982 1.245 . S
C1977 C1983 1.428 . S
C1978 C1981 1.260 . S
C1978 C1982 1.477 . S
C1978 H1996 0.932 . S
C1979 C1980 1.384 . S
C1979 C1981 1.479 . S
C1979 H1997 0.929 . S
C1980 C1977 1.424 . S
C1980 C1979 1.384 . S
C1980 H1998 0.928 . S
C1981 C1978 1.260 . S
C1981 C1979 1.479 . S
C1982 C1977 1.245 . S
C1982 C1978 1.477 . S
C1982 H1999 0.932 . S
C1983 U1966 2.882 . S
C1983 C1977 1.428 . S
C1983 O1986 1.301 . S
C1983 O1987 1.282 . S
O1984 U1966 2.441 . S
O1984 C1970 1.249 . S
O1985 U1966 2.420 . S
O1985 C1970 1.202 . S
O1986 U1966 2.455 . S
O1986 C1983 1.301 . S
O1987 U1966 2.449 . S
O1987 C1983 1.282 . S
H1988 C1961 0.931 . S
H1989 C1963 0.929 . S
H1990 C1964 0.930 . S
H1991 C1965 0.931 . S
H1992 C1972 0.932 . S
H1993 C1973 0.930 . S
H1994 C1974 0.929 . S
H1995 C1976 0.930 . S
H1996 C1978 0.932 . S
H1997 C1979 0.929 . S
H1998 C1980 0.928 . S
H1999 C1982 0.932 . S
C2000 C2001 1.264 . S
C2000 C2005 1.479 . S
C2000 C2010 1.465 . S
C2001 C2000 1.264 . S
C2001 C2003 1.339 . S
C2001 H2028 0.931 . S
C2002 C2003 1.395 . S
C2002 C2004 1.320 . S
C2003 C2001 1.339 . S
C2003 C2002 1.395 . S
C2003 H2029 0.929 . S
C2004 C2002 1.320 . S
C2004 C2005 1.405 . S
C2004 H2030 0.930 . S
C2005 C2000 1.479 . S
C2005 C2004 1.405 . S
C2005 H2031 0.931 . S
U2006 O2007 2.454 . S
U2006 O2008 2.458 . S
U2006 C2009 2.984 . S
U2006 C2010 2.847 . S
U2006 C2023 2.882 . S
U2006 O2024 2.441 . S
U2006 O2025 2.420 . S
U2006 O2026 2.455 . S
U2006 O2027 2.449 . S
O2007 U2006 2.454 . S
O2007 C2009 1.353 . S
O2008 U2006 2.458 . S
O2008 C2009 1.286 . S
C2009 U2006 2.984 . S
C2009 O2007 1.353 . S
C2009 O2008 1.286 . S
C2009 C2011 1.363 . S
C2010 C2000 1.465 . S
C2010 U2006 2.847 . S
C2010 O2024 1.249 . S
C2010 O2025 1.202 . S
C2011 C2009 1.363 . S
C2011 C2013 1.408 . S
C2011 C2016 1.342 . S
C2012 C2013 1.310 . S
C2012 C2015 1.461 . S
C2012 H2032 0.932 . S
C2013 C2011 1.408 . S
C2013 C2012 1.310 . S
C2013 H2033 0.930 . S
C2014 C2015 1.474 . S
C2014 C2016 1.285 . S
C2014 H2034 0.929 . S
C2015 C2012 1.461 . S
C2015 C2014 1.474 . S
C2016 C2011 1.342 . S
C2016 C2014 1.285 . S
C2016 H2035 0.930 . S
C2017 C2020 1.424 . S
C2017 C2022 1.245 . S
C2017 C2023 1.428 . S
C2018 C2021 1.260 . S
C2018 C2022 1.477 . S
C2018 H2036 0.932 . S
C2019 C2020 1.384 . S
C2019 C2021 1.479 . S
C2019 H2037 0.929 . S
C2020 C2017 1.424 . S
C2020 C2019 1.384 . S
C2020 H2038 0.928 . S
C2021 C2018 1.260 . S
C2021 C2019 1.479 . S
C2022 C2017 1.245 . S
C2022 C2018 1.477 . S
C2022 H2039 0.932 . S
C2023 U2006 2.882 . S
C2023 C2017 1.428 . S
C2023 O2026 1.301 . S
C2023 O2027 1.282 . S
O2024 U2006 2.441 . S
O2024 C2010 1.249 . S
O2025 U2006 2.420 . S
O2025 C2010 1.202 . S
O2026 U2006 2.455 . S
O2026 C2023 1.301 . S
O2027 U2006 2.449 . S
O2027 C2023 1.282 . S
H2028 C2001 0.931 . S
H2029 C2003 0.929 . S
H2030 C2004 0.930 . S
H2031 C2005 0.931 . S
H2032 C2012 0.932 . S
H2033 C2013 0.930 . S
H2034 C2014 0.929 . S
H2035 C2016 0.930 . S
H2036 C2018 0.932 . S
H2037 C2019 0.929 . S
H2038 C2020 0.928 . S
H2039 C2022 0.932 . S
C2040 C2041 1.264 . S
C2040 C2045 1.479 . S
C2040 C2050 1.465 . S
C2041 C2040 1.264 . S
C2041 C2043 1.339 . S
C2041 H2068 0.931 . S
C2042 C2043 1.395 . S
C2042 C2044 1.320 . S
C2043 C2041 1.339 . S
C2043 C2042 1.395 . S
C2043 H2069 0.929 . S
C2044 C2042 1.320 . S
C2044 C2045 1.405 . S
C2044 H2070 0.930 . S
C2045 C2040 1.479 . S
C2045 C2044 1.405 . S
C2045 H2071 0.931 . S
U2046 O2047 2.454 . S
U2046 O2048 2.458 . S
U2046 C2049 2.984 . S
U2046 C2050 2.847 . S
U2046 C2063 2.882 . S
U2046 O2064 2.441 . S
U2046 O2065 2.420 . S
U2046 O2066 2.455 . S
U2046 O2067 2.449 . S
O2047 U2046 2.454 . S
O2047 C2049 1.353 . S
O2048 U2046 2.458 . S
O2048 C2049 1.286 . S
C2049 U2046 2.984 . S
C2049 O2047 1.353 . S
C2049 O2048 1.286 . S
C2049 C2051 1.363 . S
C2050 C2040 1.465 . S
C2050 U2046 2.847 . S
C2050 O2064 1.249 . S
C2050 O2065 1.202 . S
C2051 C2049 1.363 . S
C2051 C2053 1.408 . S
C2051 C2056 1.342 . S
C2052 C2053 1.310 . S
C2052 C2055 1.461 . S
C2052 H2072 0.932 . S
C2053 C2051 1.408 . S
C2053 C2052 1.310 . S
C2053 H2073 0.930 . S
C2054 C2055 1.474 . S
C2054 C2056 1.285 . S
C2054 H2074 0.929 . S
C2055 C2052 1.461 . S
C2055 C2054 1.474 . S
C2056 C2051 1.342 . S
C2056 C2054 1.285 . S
C2056 H2075 0.930 . S
C2057 C2060 1.424 . S
C2057 C2062 1.245 . S
C2057 C2063 1.428 . S
C2058 C2061 1.260 . S
C2058 C2062 1.477 . S
C2058 H2076 0.932 . S
C2059 C2060 1.384 . S
C2059 C2061 1.479 . S
C2059 H2077 0.929 . S
C2060 C2057 1.424 . S
C2060 C2059 1.384 . S
C2060 H2078 0.928 . S
C2061 C2058 1.260 . S
C2061 C2059 1.479 . S
C2062 C2057 1.245 . S
C2062 C2058 1.477 . S
C2062 H2079 0.932 . S
C2063 U2046 2.882 . S
C2063 C2057 1.428 . S
C2063 O2066 1.301 . S
C2063 O2067 1.282 . S
O2064 U2046 2.441 . S
O2064 C2050 1.249 . S
O2065 U2046 2.420 . S
O2065 C2050 1.202 . S
O2066 U2046 2.455 . S
O2066 C2063 1.301 . S
O2067 U2046 2.449 . S
O2067 C2063 1.282 . S
H2068 C2041 0.931 . S
H2069 C2043 0.929 . S
H2070 C2044 0.930 . S
H2071 C2045 0.931 . S
H2072 C2052 0.932 . S
H2073 C2053 0.930 . S
H2074 C2054 0.929 . S
H2075 C2056 0.930 . S
H2076 C2058 0.932 . S
H2077 C2059 0.929 . S
H2078 C2060 0.928 . S
H2079 C2062 0.932 . S
C2080 C2081 1.264 . S
C2080 C2085 1.479 . S
C2080 C2090 1.465 . S
C2081 C2080 1.264 . S
C2081 C2083 1.339 . S
C2081 H2108 0.931 . S
C2082 C2083 1.395 . S
C2082 C2084 1.320 . S
C2083 C2081 1.339 . S
C2083 C2082 1.395 . S
C2083 H2109 0.929 . S
C2084 C2082 1.320 . S
C2084 C2085 1.405 . S
C2084 H2110 0.930 . S
C2085 C2080 1.479 . S
C2085 C2084 1.405 . S
C2085 H2111 0.931 . S
U2086 O2087 2.454 . S
U2086 O2088 2.458 . S
U2086 C2089 2.984 . S
U2086 C2090 2.847 . S
U2086 C2103 2.882 . S
U2086 O2104 2.441 . S
U2086 O2105 2.420 . S
U2086 O2106 2.455 . S
U2086 O2107 2.449 . S
O2087 U2086 2.454 . S
O2087 C2089 1.353 . S
O2088 U2086 2.458 . S
O2088 C2089 1.286 . S
C2089 U2086 2.984 . S
C2089 O2087 1.353 . S
C2089 O2088 1.286 . S
C2089 C2091 1.363 . S
C2090 C2080 1.465 . S
C2090 U2086 2.847 . S
C2090 O2104 1.249 . S
C2090 O2105 1.202 . S
C2091 C2089 1.363 . S
C2091 C2093 1.408 . S
C2091 C2096 1.342 . S
C2092 C2093 1.310 . S
C2092 C2095 1.461 . S
C2092 H2112 0.932 . S
C2093 C2091 1.408 . S
C2093 C2092 1.310 . S
C2093 H2113 0.930 . S
C2094 C2095 1.474 . S
C2094 C2096 1.285 . S
C2094 H2114 0.929 . S
C2095 C2092 1.461 . S
C2095 C2094 1.474 . S
C2096 C2091 1.342 . S
C2096 C2094 1.285 . S
C2096 H2115 0.930 . S
C2097 C2100 1.424 . S
C2097 C2102 1.245 . S
C2097 C2103 1.428 . S
C2098 C2101 1.260 . S
C2098 C2102 1.477 . S
C2098 H2116 0.932 . S
C2099 C2100 1.384 . S
C2099 C2101 1.479 . S
C2099 H2117 0.929 . S
C2100 C2097 1.424 . S
C2100 C2099 1.384 . S
C2100 H2118 0.928 . S
C2101 C2098 1.260 . S
C2101 C2099 1.479 . S
C2102 C2097 1.245 . S
C2102 C2098 1.477 . S
C2102 H2119 0.932 . S
C2103 U2086 2.882 . S
C2103 C2097 1.428 . S
C2103 O2106 1.301 . S
C2103 O2107 1.282 . S
O2104 U2086 2.441 . S
O2104 C2090 1.249 . S
O2105 U2086 2.420 . S
O2105 C2090 1.202 . S
O2106 U2086 2.455 . S
O2106 C2103 1.301 . S
O2107 U2086 2.449 . S
O2107 C2103 1.282 . S
H2108 C2081 0.931 . S
H2109 C2083 0.929 . S
H2110 C2084 0.930 . S
H2111 C2085 0.931 . S
H2112 C2092 0.932 . S
H2113 C2093 0.930 . S
H2114 C2094 0.929 . S
H2115 C2096 0.930 . S
H2116 C2098 0.932 . S
H2117 C2099 0.929 . S
H2118 C2100 0.928 . S
H2119 C2102 0.932 . S
C2120 C2121 1.264 . S
C2120 C2125 1.479 . S
C2120 C2130 1.465 . S
C2121 C2120 1.264 . S
C2121 C2123 1.339 . S
C2121 H2148 0.931 . S
C2122 C2123 1.395 . S
C2122 C2124 1.320 . S
C2123 C2121 1.339 . S
C2123 C2122 1.395 . S
C2123 H2149 0.929 . S
C2124 C2122 1.320 . S
C2124 C2125 1.405 . S
C2124 H2150 0.930 . S
C2125 C2120 1.479 . S
C2125 C2124 1.405 . S
C2125 H2151 0.931 . S
U2126 O2127 2.454 . S
U2126 O2128 2.458 . S
U2126 C2129 2.984 . S
U2126 C2130 2.847 . S
U2126 C2143 2.882 . S
U2126 O2144 2.441 . S
U2126 O2145 2.420 . S
U2126 O2146 2.455 . S
U2126 O2147 2.449 . S
O2127 U2126 2.454 . S
O2127 C2129 1.353 . S
O2128 U2126 2.458 . S
O2128 C2129 1.286 . S
C2129 U2126 2.984 . S
C2129 O2127 1.353 . S
C2129 O2128 1.286 . S
C2129 C2131 1.363 . S
C2130 C2120 1.465 . S
C2130 U2126 2.847 . S
C2130 O2144 1.249 . S
C2130 O2145 1.202 . S
C2131 C2129 1.363 . S
C2131 C2133 1.408 . S
C2131 C2136 1.342 . S
C2132 C2133 1.310 . S
C2132 C2135 1.461 . S
C2132 H2152 0.932 . S
C2133 C2131 1.408 . S
C2133 C2132 1.310 . S
C2133 H2153 0.930 . S
C2134 C2135 1.474 . S
C2134 C2136 1.285 . S
C2134 H2154 0.929 . S
C2135 C2132 1.461 . S
C2135 C2134 1.474 . S
C2136 C2131 1.342 . S
C2136 C2134 1.285 . S
C2136 H2155 0.930 . S
C2137 C2140 1.424 . S
C2137 C2142 1.245 . S
C2137 C2143 1.428 . S
C2138 C2141 1.260 . S
C2138 C2142 1.477 . S
C2138 H2156 0.932 . S
C2139 C2140 1.384 . S
C2139 C2141 1.479 . S
C2139 H2157 0.929 . S
C2140 C2137 1.424 . S
C2140 C2139 1.384 . S
C2140 H2158 0.928 . S
C2141 C2138 1.260 . S
C2141 C2139 1.479 . S
C2142 C2137 1.245 . S
C2142 C2138 1.477 . S
C2142 H2159 0.932 . S
C2143 U2126 2.882 . S
C2143 C2137 1.428 . S
C2143 O2146 1.301 . S
C2143 O2147 1.282 . S
O2144 U2126 2.441 . S
O2144 C2130 1.249 . S
O2145 U2126 2.420 . S
O2145 C2130 1.202 . S
O2146 U2126 2.455 . S
O2146 C2143 1.301 . S
O2147 U2126 2.449 . S
O2147 C2143 1.282 . S
H2148 C2121 0.931 . S
H2149 C2123 0.929 . S
H2150 C2124 0.930 . S
H2151 C2125 0.931 . S
H2152 C2132 0.932 . S
H2153 C2133 0.930 . S
H2154 C2134 0.929 . S
H2155 C2136 0.930 . S
H2156 C2138 0.932 . S
H2157 C2139 0.929 . S
H2158 C2140 0.928 . S
H2159 C2142 0.932 . S
C2160 C2161 1.264 . S
C2160 C2165 1.479 . S
C2160 C2170 1.465 . S
C2161 C2160 1.264 . S
C2161 C2163 1.339 . S
C2161 H2188 0.931 . S
C2162 C2163 1.395 . S
C2162 C2164 1.320 . S
C2163 C2161 1.339 . S
C2163 C2162 1.395 . S
C2163 H2189 0.929 . S
C2164 C2162 1.320 . S
C2164 C2165 1.405 . S
C2164 H2190 0.930 . S
C2165 C2160 1.479 . S
C2165 C2164 1.405 . S
C2165 H2191 0.931 . S
U2166 O2167 2.454 . S
U2166 O2168 2.458 . S
U2166 C2169 2.984 . S
U2166 C2170 2.847 . S
U2166 C2183 2.882 . S
U2166 O2184 2.441 . S
U2166 O2185 2.420 . S
U2166 O2186 2.455 . S
U2166 O2187 2.449 . S
O2167 U2166 2.454 . S
O2167 C2169 1.353 . S
O2168 U2166 2.458 . S
O2168 C2169 1.286 . S
C2169 U2166 2.984 . S
C2169 O2167 1.353 . S
C2169 O2168 1.286 . S
C2169 C2171 1.363 . S
C2170 C2160 1.465 . S
C2170 U2166 2.847 . S
C2170 O2184 1.249 . S
C2170 O2185 1.202 . S
C2171 C2169 1.363 . S
C2171 C2173 1.408 . S
C2171 C2176 1.342 . S
C2172 C2173 1.310 . S
C2172 C2175 1.461 . S
C2172 H2192 0.932 . S
C2173 C2171 1.408 . S
C2173 C2172 1.310 . S
C2173 H2193 0.930 . S
C2174 C2175 1.474 . S
C2174 C2176 1.285 . S
C2174 H2194 0.929 . S
C2175 C2172 1.461 . S
C2175 C2174 1.474 . S
C2176 C2171 1.342 . S
C2176 C2174 1.285 . S
C2176 H2195 0.930 . S
C2177 C2180 1.424 . S
C2177 C2182 1.245 . S
C2177 C2183 1.428 . S
C2178 C2181 1.260 . S
C2178 C2182 1.477 . S
C2178 H2196 0.932 . S
C2179 C2180 1.384 . S
C2179 C2181 1.479 . S
C2179 H2197 0.929 . S
C2180 C2177 1.424 . S
C2180 C2179 1.384 . S
C2180 H2198 0.928 . S
C2181 C2178 1.260 . S
C2181 C2179 1.479 . S
C2182 C2177 1.245 . S
C2182 C2178 1.477 . S
C2182 H2199 0.932 . S
C2183 U2166 2.882 . S
C2183 C2177 1.428 . S
C2183 O2186 1.301 . S
C2183 O2187 1.282 . S
O2184 U2166 2.441 . S
O2184 C2170 1.249 . S
O2185 U2166 2.420 . S
O2185 C2170 1.202 . S
O2186 U2166 2.455 . S
O2186 C2183 1.301 . S
O2187 U2166 2.449 . S
O2187 C2183 1.282 . S
H2188 C2161 0.931 . S
H2189 C2163 0.929 . S
H2190 C2164 0.930 . S
H2191 C2165 0.931 . S
H2192 C2172 0.932 . S
H2193 C2173 0.930 . S
H2194 C2174 0.929 . S
H2195 C2176 0.930 . S
H2196 C2178 0.932 . S
H2197 C2179 0.929 . S
H2198 C2180 0.928 . S
H2199 C2182 0.932 . S
C2200 C2201 1.264 . S
C2200 C2205 1.479 . S
C2200 C2210 1.465 . S
C2201 C2200 1.264 . S
C2201 C2203 1.339 . S
C2201 H2228 0.931 . S
C2202 C2203 1.395 . S
C2202 C2204 1.320 . S
C2203 C2201 1.339 . S
C2203 C2202 1.395 . S
C2203 H2229 0.929 . S
C2204 C2202 1.320 . S
C2204 C2205 1.405 . S
C2204 H2230 0.930 . S
C2205 C2200 1.479 . S
C2205 C2204 1.405 . S
C2205 H2231 0.931 . S
U2206 O2207 2.454 . S
U2206 O2208 2.458 . S
U2206 C2209 2.984 . S
U2206 C2210 2.847 . S
U2206 C2223 2.882 . S
U2206 O2224 2.441 . S
U2206 O2225 2.420 . S
U2206 O2226 2.455 . S
U2206 O2227 2.449 . S
O2207 U2206 2.454 . S
O2207 C2209 1.353 . S
O2208 U2206 2.458 . S
O2208 C2209 1.286 . S
C2209 U2206 2.984 . S
C2209 O2207 1.353 . S
C2209 O2208 1.286 . S
C2209 C2211 1.363 . S
C2210 C2200 1.465 . S
C2210 U2206 2.847 . S
C2210 O2224 1.249 . S
C2210 O2225 1.202 . S
C2211 C2209 1.363 . S
C2211 C2213 1.408 . S
C2211 C2216 1.342 . S
C2212 C2213 1.310 . S
C2212 C2215 1.461 . S
C2212 H2232 0.932 . S
C2213 C2211 1.408 . S
C2213 C2212 1.310 . S
C2213 H2233 0.930 . S
C2214 C2215 1.474 . S
C2214 C2216 1.285 . S
C2214 H2234 0.929 . S
C2215 C2212 1.461 . S
C2215 C2214 1.474 . S
C2216 C2211 1.342 . S
C2216 C2214 1.285 . S
C2216 H2235 0.930 . S
C2217 C2220 1.424 . S
C2217 C2222 1.245 . S
C2217 C2223 1.428 . S
C2218 C2221 1.260 . S
C2218 C2222 1.477 . S
C2218 H2236 0.932 . S
C2219 C2220 1.384 . S
C2219 C2221 1.479 . S
C2219 H2237 0.929 . S
C2220 C2217 1.424 . S
C2220 C2219 1.384 . S
C2220 H2238 0.928 . S
C2221 C2218 1.260 . S
C2221 C2219 1.479 . S
C2222 C2217 1.245 . S
C2222 C2218 1.477 . S
C2222 H2239 0.932 . S
C2223 U2206 2.882 . S
C2223 C2217 1.428 . S
C2223 O2226 1.301 . S
C2223 O2227 1.282 . S
O2224 U2206 2.441 . S
O2224 C2210 1.249 . S
O2225 U2206 2.420 . S
O2225 C2210 1.202 . S
O2226 U2206 2.455 . S
O2226 C2223 1.301 . S
O2227 U2206 2.449 . S
O2227 C2223 1.282 . S
H2228 C2201 0.931 . S
H2229 C2203 0.929 . S
H2230 C2204 0.930 . S
H2231 C2205 0.931 . S
H2232 C2212 0.932 . S
H2233 C2213 0.930 . S
H2234 C2214 0.929 . S
H2235 C2216 0.930 . S
H2236 C2218 0.932 . S
H2237 C2219 0.929 . S
H2238 C2220 0.928 . S
H2239 C2222 0.932 . S
C2240 C2241 1.264 . S
C2240 C2245 1.479 . S
C2240 C2250 1.465 . S
C2241 C2240 1.264 . S
C2241 C2243 1.339 . S
C2241 H2268 0.931 . S
C2242 C2243 1.395 . S
C2242 C2244 1.320 . S
C2243 C2241 1.339 . S
C2243 C2242 1.395 . S
C2243 H2269 0.929 . S
C2244 C2242 1.320 . S
C2244 C2245 1.405 . S
C2244 H2270 0.930 . S
C2245 C2240 1.479 . S
C2245 C2244 1.405 . S
C2245 H2271 0.931 . S
U2246 O2247 2.454 . S
U2246 O2248 2.458 . S
U2246 C2249 2.984 . S
U2246 C2250 2.847 . S
U2246 C2263 2.882 . S
U2246 O2264 2.441 . S
U2246 O2265 2.420 . S
U2246 O2266 2.455 . S
U2246 O2267 2.449 . S
O2247 U2246 2.454 . S
O2247 C2249 1.353 . S
O2248 U2246 2.458 . S
O2248 C2249 1.286 . S
C2249 U2246 2.984 . S
C2249 O2247 1.353 . S
C2249 O2248 1.286 . S
C2249 C2251 1.363 . S
C2250 C2240 1.465 . S
C2250 U2246 2.847 . S
C2250 O2264 1.249 . S
C2250 O2265 1.202 . S
C2251 C2249 1.363 . S
C2251 C2253 1.408 . S
C2251 C2256 1.342 . S
C2252 C2253 1.310 . S
C2252 C2255 1.461 . S
C2252 H2272 0.932 . S
C2253 C2251 1.408 . S
C2253 C2252 1.310 . S
C2253 H2273 0.930 . S
C2254 C2255 1.474 . S
C2254 C2256 1.285 . S
C2254 H2274 0.929 . S
C2255 C2252 1.461 . S
C2255 C2254 1.474 . S
C2256 C2251 1.342 . S
C2256 C2254 1.285 . S
C2256 H2275 0.930 . S
C2257 C2260 1.424 . S
C2257 C2262 1.245 . S
C2257 C2263 1.428 . S
C2258 C2261 1.260 . S
C2258 C2262 1.477 . S
C2258 H2276 0.932 . S
C2259 C2260 1.384 . S
C2259 C2261 1.479 . S
C2259 H2277 0.929 . S
C2260 C2257 1.424 . S
C2260 C2259 1.384 . S
C2260 H2278 0.928 . S
C2261 C2258 1.260 . S
C2261 C2259 1.479 . S
C2262 C2257 1.245 . S
C2262 C2258 1.477 . S
C2262 H2279 0.932 . S
C2263 U2246 2.882 . S
C2263 C2257 1.428 . S
C2263 O2266 1.301 . S
C2263 O2267 1.282 . S
O2264 U2246 2.441 . S
O2264 C2250 1.249 . S
O2265 U2246 2.420 . S
O2265 C2250 1.202 . S
O2266 U2246 2.455 . S
O2266 C2263 1.301 . S
O2267 U2246 2.449 . S
O2267 C2263 1.282 . S
H2268 C2241 0.931 . S
H2269 C2243 0.929 . S
H2270 C2244 0.930 . S
H2271 C2245 0.931 . S
H2272 C2252 0.932 . S
H2273 C2253 0.930 . S
H2274 C2254 0.929 . S
H2275 C2256 0.930 . S
H2276 C2258 0.932 . S
H2277 C2259 0.929 . S
H2278 C2260 0.928 . S
H2279 C2262 0.932 . S
C2280 C2281 1.264 . S
C2280 C2285 1.479 . S
C2280 C2290 1.465 . S
C2281 C2280 1.264 . S
C2281 C2283 1.339 . S
C2281 H2308 0.931 . S
C2282 C2283 1.395 . S
C2282 C2284 1.320 . S
C2283 C2281 1.339 . S
C2283 C2282 1.395 . S
C2283 H2309 0.929 . S
C2284 C2282 1.320 . S
C2284 C2285 1.405 . S
C2284 H2310 0.930 . S
C2285 C2280 1.479 . S
C2285 C2284 1.405 . S
C2285 H2311 0.931 . S
U2286 O2287 2.454 . S
U2286 O2288 2.458 . S
U2286 C2289 2.984 . S
U2286 C2290 2.847 . S
U2286 C2303 2.882 . S
U2286 O2304 2.441 . S
U2286 O2305 2.420 . S
U2286 O2306 2.455 . S
U2286 O2307 2.449 . S
O2287 U2286 2.454 . S
O2287 C2289 1.353 . S
O2288 U2286 2.458 . S
O2288 C2289 1.286 . S
C2289 U2286 2.984 . S
C2289 O2287 1.353 . S
C2289 O2288 1.286 . S
C2289 C2291 1.363 . S
C2290 C2280 1.465 . S
C2290 U2286 2.847 . S
C2290 O2304 1.249 . S
C2290 O2305 1.202 . S
C2291 C2289 1.363 . S
C2291 C2293 1.408 . S
C2291 C2296 1.342 . S
C2292 C2293 1.310 . S
C2292 C2295 1.461 . S
C2292 H2312 0.932 . S
C2293 C2291 1.408 . S
C2293 C2292 1.310 . S
C2293 H2313 0.930 . S
C2294 C2295 1.474 . S
C2294 C2296 1.285 . S
C2294 H2314 0.929 . S
C2295 C2292 1.461 . S
C2295 C2294 1.474 . S
C2296 C2291 1.342 . S
C2296 C2294 1.285 . S
C2296 H2315 0.930 . S
C2297 C2300 1.424 . S
C2297 C2302 1.245 . S
C2297 C2303 1.428 . S
C2298 C2301 1.260 . S
C2298 C2302 1.477 . S
C2298 H2316 0.932 . S
C2299 C2300 1.384 . S
C2299 C2301 1.479 . S
C2299 H2317 0.929 . S
C2300 C2297 1.424 . S
C2300 C2299 1.384 . S
C2300 H2318 0.928 . S
C2301 C2298 1.260 . S
C2301 C2299 1.479 . S
C2302 C2297 1.245 . S
C2302 C2298 1.477 . S
C2302 H2319 0.932 . S
C2303 U2286 2.882 . S
C2303 C2297 1.428 . S
C2303 O2306 1.301 . S
C2303 O2307 1.282 . S
O2304 U2286 2.441 . S
O2304 C2290 1.249 . S
O2305 U2286 2.420 . S
O2305 C2290 1.202 . S
O2306 U2286 2.455 . S
O2306 C2303 1.301 . S
O2307 U2286 2.449 . S
O2307 C2303 1.282 . S
H2308 C2281 0.931 . S
H2309 C2283 0.929 . S
H2310 C2284 0.930 . S
H2311 C2285 0.931 . S
H2312 C2292 0.932 . S
H2313 C2293 0.930 . S
H2314 C2294 0.929 . S
H2315 C2296 0.930 . S
H2316 C2298 0.932 . S
H2317 C2299 0.929 . S
H2318 C2300 0.928 . S
H2319 C2302 0.932 . S
C2320 C2321 1.264 . S
C2320 C2325 1.479 . S
C2320 C2330 1.465 . S
C2321 C2320 1.264 . S
C2321 C2323 1.339 . S
C2321 H2348 0.931 . S
C2322 C2323 1.395 . S
C2322 C2324 1.320 . S
C2323 C2321 1.339 . S
C2323 C2322 1.395 . S
C2323 H2349 0.929 . S
C2324 C2322 1.320 . S
C2324 C2325 1.405 . S
C2324 H2350 0.930 . S
C2325 C2320 1.479 . S
C2325 C2324 1.405 . S
C2325 H2351 0.931 . S
U2326 O2327 2.454 . S
U2326 O2328 2.458 . S
U2326 C2329 2.984 . S
U2326 C2330 2.847 . S
U2326 C2343 2.882 . S
U2326 O2344 2.441 . S
U2326 O2345 2.420 . S
U2326 O2346 2.455 . S
U2326 O2347 2.449 . S
O2327 U2326 2.454 . S
O2327 C2329 1.353 . S
O2328 U2326 2.458 . S
O2328 C2329 1.286 . S
C2329 U2326 2.984 . S
C2329 O2327 1.353 . S
C2329 O2328 1.286 . S
C2329 C2331 1.363 . S
C2330 C2320 1.465 . S
C2330 U2326 2.847 . S
C2330 O2344 1.249 . S
C2330 O2345 1.202 . S
C2331 C2329 1.363 . S
C2331 C2333 1.408 . S
C2331 C2336 1.342 . S
C2332 C2333 1.310 . S
C2332 C2335 1.461 . S
C2332 H2352 0.932 . S
C2333 C2331 1.408 . S
C2333 C2332 1.310 . S
C2333 H2353 0.930 . S
C2334 C2335 1.474 . S
C2334 C2336 1.285 . S
C2334 H2354 0.929 . S
C2335 C2332 1.461 . S
C2335 C2334 1.474 . S
C2336 C2331 1.342 . S
C2336 C2334 1.285 . S
C2336 H2355 0.930 . S
C2337 C2340 1.424 . S
C2337 C2342 1.245 . S
C2337 C2343 1.428 . S
C2338 C2341 1.260 . S
C2338 C2342 1.477 . S
C2338 H2356 0.932 . S
C2339 C2340 1.384 . S
C2339 C2341 1.479 . S
C2339 H2357 0.929 . S
C2340 C2337 1.424 . S
C2340 C2339 1.384 . S
C2340 H2358 0.928 . S
C2341 C2338 1.260 . S
C2341 C2339 1.479 . S
C2342 C2337 1.245 . S
C2342 C2338 1.477 . S
C2342 H2359 0.932 . S
C2343 U2326 2.882 . S
C2343 C2337 1.428 . S
C2343 O2346 1.301 . S
C2343 O2347 1.282 . S
O2344 U2326 2.441 . S
O2344 C2330 1.249 . S
O2345 U2326 2.420 . S
O2345 C2330 1.202 . S
O2346 U2326 2.455 . S
O2346 C2343 1.301 . S
O2347 U2326 2.449 . S
O2347 C2343 1.282 . S
H2348 C2321 0.931 . S
H2349 C2323 0.929 . S
H2350 C2324 0.930 . S
H2351 C2325 0.931 . S
H2352 C2332 0.932 . S
H2353 C2333 0.930 . S
H2354 C2334 0.929 . S
H2355 C2336 0.930 . S
H2356 C2338 0.932 . S
H2357 C2339 0.929 . S
H2358 C2340 0.928 . S
H2359 C2342 0.932 . S
C2360 C2361 1.264 . S
C2360 C2365 1.479 . S
C2360 C2370 1.465 . S
C2361 C2360 1.264 . S
C2361 C2363 1.339 . S
C2361 H2388 0.931 . S
C2362 C2363 1.395 . S
C2362 C2364 1.320 . S
C2363 C2361 1.339 . S
C2363 C2362 1.395 . S
C2363 H2389 0.929 . S
C2364 C2362 1.320 . S
C2364 C2365 1.405 . S
C2364 H2390 0.930 . S
C2365 C2360 1.479 . S
C2365 C2364 1.405 . S
C2365 H2391 0.931 . S
U2366 O2367 2.454 . S
U2366 O2368 2.458 . S
U2366 C2369 2.984 . S
U2366 C2370 2.847 . S
U2366 C2383 2.882 . S
U2366 O2384 2.441 . S
U2366 O2385 2.420 . S
U2366 O2386 2.455 . S
U2366 O2387 2.449 . S
O2367 U2366 2.454 . S
O2367 C2369 1.353 . S
O2368 U2366 2.458 . S
O2368 C2369 1.286 . S
C2369 U2366 2.984 . S
C2369 O2367 1.353 . S
C2369 O2368 1.286 . S
C2369 C2371 1.363 . S
C2370 C2360 1.465 . S
C2370 U2366 2.847 . S
C2370 O2384 1.249 . S
C2370 O2385 1.202 . S
C2371 C2369 1.363 . S
C2371 C2373 1.408 . S
C2371 C2376 1.342 . S
C2372 C2373 1.310 . S
C2372 C2375 1.461 . S
C2372 H2392 0.932 . S
C2373 C2371 1.408 . S
C2373 C2372 1.310 . S
C2373 H2393 0.930 . S
C2374 C2375 1.474 . S
C2374 C2376 1.285 . S
C2374 H2394 0.929 . S
C2375 C2372 1.461 . S
C2375 C2374 1.474 . S
C2376 C2371 1.342 . S
C2376 C2374 1.285 . S
C2376 H2395 0.930 . S
C2377 C2380 1.424 . S
C2377 C2382 1.245 . S
C2377 C2383 1.428 . S
C2378 C2381 1.260 . S
C2378 C2382 1.477 . S
C2378 H2396 0.932 . S
C2379 C2380 1.384 . S
C2379 C2381 1.479 . S
C2379 H2397 0.929 . S
C2380 C2377 1.424 . S
C2380 C2379 1.384 . S
C2380 H2398 0.928 . S
C2381 C2378 1.260 . S
C2381 C2379 1.479 . S
C2382 C2377 1.245 . S
C2382 C2378 1.477 . S
C2382 H2399 0.932 . S
C2383 U2366 2.882 . S
C2383 C2377 1.428 . S
C2383 O2386 1.301 . S
C2383 O2387 1.282 . S
O2384 U2366 2.441 . S
O2384 C2370 1.249 . S
O2385 U2366 2.420 . S
O2385 C2370 1.202 . S
O2386 U2366 2.455 . S
O2386 C2383 1.301 . S
O2387 U2366 2.449 . S
O2387 C2383 1.282 . S
H2388 C2361 0.931 . S
H2389 C2363 0.929 . S
H2390 C2364 0.930 . S
H2391 C2365 0.931 . S
H2392 C2372 0.932 . S
H2393 C2373 0.930 . S
H2394 C2374 0.929 . S
H2395 C2376 0.930 . S
H2396 C2378 0.932 . S
H2397 C2379 0.929 . S
H2398 C2380 0.928 . S
H2399 C2382 0.932 . S
C2400 C2401 1.264 . S
C2400 C2405 1.479 . S
C2400 C2410 1.465 . S
C2401 C2400 1.264 . S
C2401 C2403 1.339 . S
C2401 H2428 0.931 . S
C2402 C2403 1.395 . S
C2402 C2404 1.320 . S
C2403 C2401 1.339 . S
C2403 C2402 1.395 . S
C2403 H2429 0.929 . S
C2404 C2402 1.320 . S
C2404 C2405 1.405 . S
C2404 H2430 0.930 . S
C2405 C2400 1.479 . S
C2405 C2404 1.405 . S
C2405 H2431 0.931 . S
U2406 O2407 2.454 . S
U2406 O2408 2.458 . S
U2406 C2409 2.984 . S
U2406 C2410 2.847 . S
U2406 C2423 2.882 . S
U2406 O2424 2.441 . S
U2406 O2425 2.420 . S
U2406 O2426 2.455 . S
U2406 O2427 2.449 . S
O2407 U2406 2.454 . S
O2407 C2409 1.353 . S
O2408 U2406 2.458 . S
O2408 C2409 1.286 . S
C2409 U2406 2.984 . S
C2409 O2407 1.353 . S
C2409 O2408 1.286 . S
C2409 C2411 1.363 . S
C2410 C2400 1.465 . S
C2410 U2406 2.847 . S
C2410 O2424 1.249 . S
C2410 O2425 1.202 . S
C2411 C2409 1.363 . S
C2411 C2413 1.408 . S
C2411 C2416 1.342 . S
C2412 C2413 1.310 . S
C2412 C2415 1.461 . S
C2412 H2432 0.932 . S
C2413 C2411 1.408 . S
C2413 C2412 1.310 . S
C2413 H2433 0.930 . S
C2414 C2415 1.474 . S
C2414 C2416 1.285 . S
C2414 H2434 0.929 . S
C2415 C2412 1.461 . S
C2415 C2414 1.474 . S
C2416 C2411 1.342 . S
C2416 C2414 1.285 . S
C2416 H2435 0.930 . S
C2417 C2420 1.424 . S
C2417 C2422 1.245 . S
C2417 C2423 1.428 . S
C2418 C2421 1.260 . S
C2418 C2422 1.477 . S
C2418 H2436 0.932 . S
C2419 C2420 1.384 . S
C2419 C2421 1.479 . S
C2419 H2437 0.929 . S
C2420 C2417 1.424 . S
C2420 C2419 1.384 . S
C2420 H2438 0.928 . S
C2421 C2418 1.260 . S
C2421 C2419 1.479 . S
C2422 C2417 1.245 . S
C2422 C2418 1.477 . S
C2422 H2439 0.932 . S
C2423 U2406 2.882 . S
C2423 C2417 1.428 . S
C2423 O2426 1.301 . S
C2423 O2427 1.282 . S
O2424 U2406 2.441 . S
O2424 C2410 1.249 . S
O2425 U2406 2.420 . S
O2425 C2410 1.202 . S
O2426 U2406 2.455 . S
O2426 C2423 1.301 . S
O2427 U2406 2.449 . S
O2427 C2423 1.282 . S
H2428 C2401 0.931 . S
H2429 C2403 0.929 . S
H2430 C2404 0.930 . S
H2431 C2405 0.931 . S
H2432 C2412 0.932 . S
H2433 C2413 0.930 . S
H2434 C2414 0.929 . S
H2435 C2416 0.930 . S
H2436 C2418 0.932 . S
H2437 C2419 0.929 . S
H2438 C2420 0.928 . S
H2439 C2422 0.932 . S
C2440 C2441 1.264 . S
C2440 C2445 1.479 . S
C2440 C2450 1.465 . S
C2441 C2440 1.264 . S
C2441 C2443 1.339 . S
C2441 H2468 0.931 . S
C2442 C2443 1.395 . S
C2442 C2444 1.320 . S
C2443 C2441 1.339 . S
C2443 C2442 1.395 . S
C2443 H2469 0.929 . S
C2444 C2442 1.320 . S
C2444 C2445 1.405 . S
C2444 H2470 0.930 . S
C2445 C2440 1.479 . S
C2445 C2444 1.405 . S
C2445 H2471 0.931 . S
U2446 O2447 2.454 . S
U2446 O2448 2.458 . S
U2446 C2449 2.984 . S
U2446 C2450 2.847 . S
U2446 C2463 2.882 . S
U2446 O2464 2.441 . S
U2446 O2465 2.420 . S
U2446 O2466 2.455 . S
U2446 O2467 2.449 . S
O2447 U2446 2.454 . S
O2447 C2449 1.353 . S
O2448 U2446 2.458 . S
O2448 C2449 1.286 . S
C2449 U2446 2.984 . S
C2449 O2447 1.353 . S
C2449 O2448 1.286 . S
C2449 C2451 1.363 . S
C2450 C2440 1.465 . S
C2450 U2446 2.847 . S
C2450 O2464 1.249 . S
C2450 O2465 1.202 . S
C2451 C2449 1.363 . S
C2451 C2453 1.408 . S
C2451 C2456 1.342 . S
C2452 C2453 1.310 . S
C2452 C2455 1.461 . S
C2452 H2472 0.932 . S
C2453 C2451 1.408 . S
C2453 C2452 1.310 . S
C2453 H2473 0.930 . S
C2454 C2455 1.474 . S
C2454 C2456 1.285 . S
C2454 H2474 0.929 . S
C2455 C2452 1.461 . S
C2455 C2454 1.474 . S
C2456 C2451 1.342 . S
C2456 C2454 1.285 . S
C2456 H2475 0.930 . S
C2457 C2460 1.424 . S
C2457 C2462 1.245 . S
C2457 C2463 1.428 . S
C2458 C2461 1.260 . S
C2458 C2462 1.477 . S
C2458 H2476 0.932 . S
C2459 C2460 1.384 . S
C2459 C2461 1.479 . S
C2459 H2477 0.929 . S
C2460 C2457 1.424 . S
C2460 C2459 1.384 . S
C2460 H2478 0.928 . S
C2461 C2458 1.260 . S
C2461 C2459 1.479 . S
C2462 C2457 1.245 . S
C2462 C2458 1.477 . S
C2462 H2479 0.932 . S
C2463 U2446 2.882 . S
C2463 C2457 1.428 . S
C2463 O2466 1.301 . S
C2463 O2467 1.282 . S
O2464 U2446 2.441 . S
O2464 C2450 1.249 . S
O2465 U2446 2.420 . S
O2465 C2450 1.202 . S
O2466 U2446 2.455 . S
O2466 C2463 1.301 . S
O2467 U2446 2.449 . S
O2467 C2463 1.282 . S
H2468 C2441 0.931 . S
H2469 C2443 0.929 . S
H2470 C2444 0.930 . S
H2471 C2445 0.931 . S
H2472 C2452 0.932 . S
H2473 C2453 0.930 . S
H2474 C2454 0.929 . S
H2475 C2456 0.930 . S
H2476 C2458 0.932 . S
H2477 C2459 0.929 . S
H2478 C2460 0.928 . S
H2479 C2462 0.932 . S
C2480 C2481 1.264 . S
C2480 C2485 1.479 . S
C2480 C2490 1.465 . S
C2481 C2480 1.264 . S
C2481 C2483 1.339 . S
C2481 H2508 0.931 . S
C2482 C2483 1.395 . S
C2482 C2484 1.320 . S
C2483 C2481 1.339 . S
C2483 C2482 1.395 . S
C2483 H2509 0.929 . S
C2484 C2482 1.320 . S
C2484 C2485 1.405 . S
C2484 H2510 0.930 . S
C2485 C2480 1.479 . S
C2485 C2484 1.405 . S
C2485 H2511 0.931 . S
U2486 O2487 2.454 . S
U2486 O2488 2.458 . S
U2486 C2489 2.984 . S
U2486 C2490 2.847 . S
U2486 C2503 2.882 . S
U2486 O2504 2.441 . S
U2486 O2505 2.420 . S
U2486 O2506 2.455 . S
U2486 O2507 2.449 . S
O2487 U2486 2.454 . S
O2487 C2489 1.353 . S
O2488 U2486 2.458 . S
O2488 C2489 1.286 . S
C2489 U2486 2.984 . S
C2489 O2487 1.353 . S
C2489 O2488 1.286 . S
C2489 C2491 1.363 . S
C2490 C2480 1.465 . S
C2490 U2486 2.847 . S
C2490 O2504 1.249 . S
C2490 O2505 1.202 . S
C2491 C2489 1.363 . S
C2491 C2493 1.408 . S
C2491 C2496 1.342 . S
C2492 C2493 1.310 . S
C2492 C2495 1.461 . S
C2492 H2512 0.932 . S
C2493 C2491 1.408 . S
C2493 C2492 1.310 . S
C2493 H2513 0.930 . S
C2494 C2495 1.474 . S
C2494 C2496 1.285 . S
C2494 H2514 0.929 . S
C2495 C2492 1.461 . S
C2495 C2494 1.474 . S
C2496 C2491 1.342 . S
C2496 C2494 1.285 . S
C2496 H2515 0.930 . S
C2497 C2500 1.424 . S
C2497 C2502 1.245 . S
C2497 C2503 1.428 . S
C2498 C2501 1.260 . S
C2498 C2502 1.477 . S
C2498 H2516 0.932 . S
C2499 C2500 1.384 . S
C2499 C2501 1.479 . S
C2499 H2517 0.929 . S
C2500 C2497 1.424 . S
C2500 C2499 1.384 . S
C2500 H2518 0.928 . S
C2501 C2498 1.260 . S
C2501 C2499 1.479 . S
C2502 C2497 1.245 . S
C2502 C2498 1.477 . S
C2502 H2519 0.932 . S
C2503 U2486 2.882 . S
C2503 C2497 1.428 . S
C2503 O2506 1.301 . S
C2503 O2507 1.282 . S
O2504 U2486 2.441 . S
O2504 C2490 1.249 . S
O2505 U2486 2.420 . S
O2505 C2490 1.202 . S
O2506 U2486 2.455 . S
O2506 C2503 1.301 . S
O2507 U2486 2.449 . S
O2507 C2503 1.282 . S
H2508 C2481 0.931 . S
H2509 C2483 0.929 . S
H2510 C2484 0.930 . S
H2511 C2485 0.931 . S
H2512 C2492 0.932 . S
H2513 C2493 0.930 . S
H2514 C2494 0.929 . S
H2515 C2496 0.930 . S
H2516 C2498 0.932 . S
H2517 C2499 0.929 . S
H2518 C2500 0.928 . S
H2519 C2502 0.932 . S
C2520 C2521 1.264 . S
C2520 C2525 1.479 . S
C2520 C2530 1.465 . S
C2521 C2520 1.264 . S
C2521 C2523 1.339 . S
C2521 H2548 0.931 . S
C2522 C2523 1.395 . S
C2522 C2524 1.320 . S
C2523 C2521 1.339 . S
C2523 C2522 1.395 . S
C2523 H2549 0.929 . S
C2524 C2522 1.320 . S
C2524 C2525 1.405 . S
C2524 H2550 0.930 . S
C2525 C2520 1.479 . S
C2525 C2524 1.405 . S
C2525 H2551 0.931 . S
U2526 O2527 2.454 . S
U2526 O2528 2.458 . S
U2526 C2529 2.984 . S
U2526 C2530 2.847 . S
U2526 C2543 2.882 . S
U2526 O2544 2.441 . S
U2526 O2545 2.420 . S
U2526 O2546 2.455 . S
U2526 O2547 2.449 . S
O2527 U2526 2.454 . S
O2527 C2529 1.353 . S
O2528 U2526 2.458 . S
O2528 C2529 1.286 . S
C2529 U2526 2.984 . S
C2529 O2527 1.353 . S
C2529 O2528 1.286 . S
C2529 C2531 1.363 . S
C2530 C2520 1.465 . S
C2530 U2526 2.847 . S
C2530 O2544 1.249 . S
C2530 O2545 1.202 . S
C2531 C2529 1.363 . S
C2531 C2533 1.408 . S
C2531 C2536 1.342 . S
C2532 C2533 1.310 . S
C2532 C2535 1.461 . S
C2532 H2552 0.932 . S
C2533 C2531 1.408 . S
C2533 C2532 1.310 . S
C2533 H2553 0.930 . S
C2534 C2535 1.474 . S
C2534 C2536 1.285 . S
C2534 H2554 0.929 . S
C2535 C2532 1.461 . S
C2535 C2534 1.474 . S
C2536 C2531 1.342 . S
C2536 C2534 1.285 . S
C2536 H2555 0.930 . S
C2537 C2540 1.424 . S
C2537 C2542 1.245 . S
C2537 C2543 1.428 . S
C2538 C2541 1.260 . S
C2538 C2542 1.477 . S
C2538 H2556 0.932 . S
C2539 C2540 1.384 . S
C2539 C2541 1.479 . S
C2539 H2557 0.929 . S
C2540 C2537 1.424 . S
C2540 C2539 1.384 . S
C2540 H2558 0.928 . S
C2541 C2538 1.260 . S
C2541 C2539 1.479 . S
C2542 C2537 1.245 . S
C2542 C2538 1.477 . S
C2542 H2559 0.932 . S
C2543 U2526 2.882 . S
C2543 C2537 1.428 . S
C2543 O2546 1.301 . S
C2543 O2547 1.282 . S
O2544 U2526 2.441 . S
O2544 C2530 1.249 . S
O2545 U2526 2.420 . S
O2545 C2530 1.202 . S
O2546 U2526 2.455 . S
O2546 C2543 1.301 . S
O2547 U2526 2.449 . S
O2547 C2543 1.282 . S
H2548 C2521 0.931 . S
H2549 C2523 0.929 . S
H2550 C2524 0.930 . S
H2551 C2525 0.931 . S
H2552 C2532 0.932 . S
H2553 C2533 0.930 . S
H2554 C2534 0.929 . S
H2555 C2536 0.930 . S
H2556 C2538 0.932 . S
H2557 C2539 0.929 . S
H2558 C2540 0.928 . S
H2559 C2542 0.932 . S
C2560 C2561 1.264 . S
C2560 C2565 1.479 . S
C2560 C2570 1.465 . S
C2561 C2560 1.264 . S
C2561 C2563 1.339 . S
C2561 H2588 0.931 . S
C2562 C2563 1.395 . S
C2562 C2564 1.320 . S
C2563 C2561 1.339 . S
C2563 C2562 1.395 . S
C2563 H2589 0.929 . S
C2564 C2562 1.320 . S
C2564 C2565 1.405 . S
C2564 H2590 0.930 . S
C2565 C2560 1.479 . S
C2565 C2564 1.405 . S
C2565 H2591 0.931 . S
U2566 O2567 2.454 . S
U2566 O2568 2.458 . S
U2566 C2569 2.984 . S
U2566 C2570 2.847 . S
U2566 C2583 2.882 . S
U2566 O2584 2.441 . S
U2566 O2585 2.420 . S
U2566 O2586 2.455 . S
U2566 O2587 2.449 . S
O2567 U2566 2.454 . S
O2567 C2569 1.353 . S
O2568 U2566 2.458 . S
O2568 C2569 1.286 . S
C2569 U2566 2.984 . S
C2569 O2567 1.353 . S
C2569 O2568 1.286 . S
C2569 C2571 1.363 . S
C2570 C2560 1.465 . S
C2570 U2566 2.847 . S
C2570 O2584 1.249 . S
C2570 O2585 1.202 . S
C2571 C2569 1.363 . S
C2571 C2573 1.408 . S
C2571 C2576 1.342 . S
C2572 C2573 1.310 . S
C2572 C2575 1.461 . S
C2572 H2592 0.932 . S
C2573 C2571 1.408 . S
C2573 C2572 1.310 . S
C2573 H2593 0.930 . S
C2574 C2575 1.474 . S
C2574 C2576 1.285 . S
C2574 H2594 0.929 . S
C2575 C2572 1.461 . S
C2575 C2574 1.474 . S
C2576 C2571 1.342 . S
C2576 C2574 1.285 . S
C2576 H2595 0.930 . S
C2577 C2580 1.424 . S
C2577 C2582 1.245 . S
C2577 C2583 1.428 . S
C2578 C2581 1.260 . S
C2578 C2582 1.477 . S
C2578 H2596 0.932 . S
C2579 C2580 1.384 . S
C2579 C2581 1.479 . S
C2579 H2597 0.929 . S
C2580 C2577 1.424 . S
C2580 C2579 1.384 . S
C2580 H2598 0.928 . S
C2581 C2578 1.260 . S
C2581 C2579 1.479 . S
C2582 C2577 1.245 . S
C2582 C2578 1.477 . S
C2582 H2599 0.932 . S
C2583 U2566 2.882 . S
C2583 C2577 1.428 . S
C2583 O2586 1.301 . S
C2583 O2587 1.282 . S
O2584 U2566 2.441 . S
O2584 C2570 1.249 . S
O2585 U2566 2.420 . S
O2585 C2570 1.202 . S
O2586 U2566 2.455 . S
O2586 C2583 1.301 . S
O2587 U2566 2.449 . S
O2587 C2583 1.282 . S
H2588 C2561 0.931 . S
H2589 C2563 0.929 . S
H2590 C2564 0.930 . S
H2591 C2565 0.931 . S
H2592 C2572 0.932 . S
H2593 C2573 0.930 . S
H2594 C2574 0.929 . S
H2595 C2576 0.930 . S
H2596 C2578 0.932 . S
H2597 C2579 0.929 . S
H2598 C2580 0.928 . S
H2599 C2582 0.932 . S
C2600 C2601 1.264 . S
C2600 C2605 1.479 . S
C2600 C2610 1.465 . S
C2601 C2600 1.264 . S
C2601 C2603 1.339 . S
C2601 H2628 0.931 . S
C2602 C2603 1.395 . S
C2602 C2604 1.320 . S
C2603 C2601 1.339 . S
C2603 C2602 1.395 . S
C2603 H2629 0.929 . S
C2604 C2602 1.320 . S
C2604 C2605 1.405 . S
C2604 H2630 0.930 . S
C2605 C2600 1.479 . S
C2605 C2604 1.405 . S
C2605 H2631 0.931 . S
U2606 O2607 2.454 . S
U2606 O2608 2.458 . S
U2606 C2609 2.984 . S
U2606 C2610 2.847 . S
U2606 C2623 2.882 . S
U2606 O2624 2.441 . S
U2606 O2625 2.420 . S
U2606 O2626 2.455 . S
U2606 O2627 2.449 . S
O2607 U2606 2.454 . S
O2607 C2609 1.353 . S
O2608 U2606 2.458 . S
O2608 C2609 1.286 . S
C2609 U2606 2.984 . S
C2609 O2607 1.353 . S
C2609 O2608 1.286 . S
C2609 C2611 1.363 . S
C2610 C2600 1.465 . S
C2610 U2606 2.847 . S
C2610 O2624 1.249 . S
C2610 O2625 1.202 . S
C2611 C2609 1.363 . S
C2611 C2613 1.408 . S
C2611 C2616 1.342 . S
C2612 C2613 1.310 . S
C2612 C2615 1.461 . S
C2612 H2632 0.932 . S
C2613 C2611 1.408 . S
C2613 C2612 1.310 . S
C2613 H2633 0.930 . S
C2614 C2615 1.474 . S
C2614 C2616 1.285 . S
C2614 H2634 0.929 . S
C2615 C2612 1.461 . S
C2615 C2614 1.474 . S
C2616 C2611 1.342 . S
C2616 C2614 1.285 . S
C2616 H2635 0.930 . S
C2617 C2620 1.424 . S
C2617 C2622 1.245 . S
C2617 C2623 1.428 . S
C2618 C2621 1.260 . S
C2618 C2622 1.477 . S
C2618 H2636 0.932 . S
C2619 C2620 1.384 . S
C2619 C2621 1.479 . S
C2619 H2637 0.929 . S
C2620 C2617 1.424 . S
C2620 C2619 1.384 . S
C2620 H2638 0.928 . S
C2621 C2618 1.260 . S
C2621 C2619 1.479 . S
C2622 C2617 1.245 . S
C2622 C2618 1.477 . S
C2622 H2639 0.932 . S
C2623 U2606 2.882 . S
C2623 C2617 1.428 . S
C2623 O2626 1.301 . S
C2623 O2627 1.282 . S
O2624 U2606 2.441 . S
O2624 C2610 1.249 . S
O2625 U2606 2.420 . S
O2625 C2610 1.202 . S
O2626 U2606 2.455 . S
O2626 C2623 1.301 . S
O2627 U2606 2.449 . S
O2627 C2623 1.282 . S
H2628 C2601 0.931 . S
H2629 C2603 0.929 . S
H2630 C2604 0.930 . S
H2631 C2605 0.931 . S
H2632 C2612 0.932 . S
H2633 C2613 0.930 . S
H2634 C2614 0.929 . S
H2635 C2616 0.930 . S
H2636 C2618 0.932 . S
H2637 C2619 0.929 . S
H2638 C2620 0.928 . S
H2639 C2622 0.932 . S
C2640 C2641 1.264 . S
C2640 C2645 1.479 . S
C2640 C2650 1.465 . S
C2641 C2640 1.264 . S
C2641 C2643 1.339 . S
C2641 H2668 0.931 . S
C2642 C2643 1.395 . S
C2642 C2644 1.320 . S
C2643 C2641 1.339 . S
C2643 C2642 1.395 . S
C2643 H2669 0.929 . S
C2644 C2642 1.320 . S
C2644 C2645 1.405 . S
C2644 H2670 0.930 . S
C2645 C2640 1.479 . S
C2645 C2644 1.405 . S
C2645 H2671 0.931 . S
U2646 O2647 2.454 . S
U2646 O2648 2.458 . S
U2646 C2649 2.984 . S
U2646 C2650 2.847 . S
U2646 C2663 2.882 . S
U2646 O2664 2.441 . S
U2646 O2665 2.420 . S
U2646 O2666 2.455 . S
U2646 O2667 2.449 . S
O2647 U2646 2.454 . S
O2647 C2649 1.353 . S
O2648 U2646 2.458 . S
O2648 C2649 1.286 . S
C2649 U2646 2.984 . S
C2649 O2647 1.353 . S
C2649 O2648 1.286 . S
C2649 C2651 1.363 . S
C2650 C2640 1.465 . S
C2650 U2646 2.847 . S
C2650 O2664 1.249 . S
C2650 O2665 1.202 . S
C2651 C2649 1.363 . S
C2651 C2653 1.408 . S
C2651 C2656 1.342 . S
C2652 C2653 1.310 . S
C2652 C2655 1.461 . S
C2652 H2672 0.932 . S
C2653 C2651 1.408 . S
C2653 C2652 1.310 . S
C2653 H2673 0.930 . S
C2654 C2655 1.474 . S
C2654 C2656 1.285 . S
C2654 H2674 0.929 . S
C2655 C2652 1.461 . S
C2655 C2654 1.474 . S
C2656 C2651 1.342 . S
C2656 C2654 1.285 . S
C2656 H2675 0.930 . S
C2657 C2660 1.424 . S
C2657 C2662 1.245 . S
C2657 C2663 1.428 . S
C2658 C2661 1.260 . S
C2658 C2662 1.477 . S
C2658 H2676 0.932 . S
C2659 C2660 1.384 . S
C2659 C2661 1.479 . S
C2659 H2677 0.929 . S
C2660 C2657 1.424 . S
C2660 C2659 1.384 . S
C2660 H2678 0.928 . S
C2661 C2658 1.260 . S
C2661 C2659 1.479 . S
C2662 C2657 1.245 . S
C2662 C2658 1.477 . S
C2662 H2679 0.932 . S
C2663 U2646 2.882 . S
C2663 C2657 1.428 . S
C2663 O2666 1.301 . S
C2663 O2667 1.282 . S
O2664 U2646 2.441 . S
O2664 C2650 1.249 . S
O2665 U2646 2.420 . S
O2665 C2650 1.202 . S
O2666 U2646 2.455 . S
O2666 C2663 1.301 . S
O2667 U2646 2.449 . S
O2667 C2663 1.282 . S
H2668 C2641 0.931 . S
H2669 C2643 0.929 . S
H2670 C2644 0.930 . S
H2671 C2645 0.931 . S
H2672 C2652 0.932 . S
H2673 C2653 0.930 . S
H2674 C2654 0.929 . S
H2675 C2656 0.930 . S
H2676 C2658 0.932 . S
H2677 C2659 0.929 . S
H2678 C2660 0.928 . S
H2679 C2662 0.932 . S
C2680 C2681 1.264 . S
C2680 C2685 1.479 . S
C2680 C2690 1.465 . S
C2681 C2680 1.264 . S
C2681 C2683 1.339 . S
C2681 H2708 0.931 . S
C2682 C2683 1.395 . S
C2682 C2684 1.320 . S
C2683 C2681 1.339 . S
C2683 C2682 1.395 . S
C2683 H2709 0.929 . S
C2684 C2682 1.320 . S
C2684 C2685 1.405 . S
C2684 H2710 0.930 . S
C2685 C2680 1.479 . S
C2685 C2684 1.405 . S
C2685 H2711 0.931 . S
U2686 O2687 2.454 . S
U2686 O2688 2.458 . S
U2686 C2689 2.984 . S
U2686 C2690 2.847 . S
U2686 C2703 2.882 . S
U2686 O2704 2.441 . S
U2686 O2705 2.420 . S
U2686 O2706 2.455 . S
U2686 O2707 2.449 . S
O2687 U2686 2.454 . S
O2687 C2689 1.353 . S
O2688 U2686 2.458 . S
O2688 C2689 1.286 . S
C2689 U2686 2.984 . S
C2689 O2687 1.353 . S
C2689 O2688 1.286 . S
C2689 C2691 1.363 . S
C2690 C2680 1.465 . S
C2690 U2686 2.847 . S
C2690 O2704 1.249 . S
C2690 O2705 1.202 . S
C2691 C2689 1.363 . S
C2691 C2693 1.408 . S
C2691 C2696 1.342 . S
C2692 C2693 1.310 . S
C2692 C2695 1.461 . S
C2692 H2712 0.932 . S
C2693 C2691 1.408 . S
C2693 C2692 1.310 . S
C2693 H2713 0.930 . S
C2694 C2695 1.474 . S
C2694 C2696 1.285 . S
C2694 H2714 0.929 . S
C2695 C2692 1.461 . S
C2695 C2694 1.474 . S
C2696 C2691 1.342 . S
C2696 C2694 1.285 . S
C2696 H2715 0.930 . S
C2697 C2700 1.424 . S
C2697 C2702 1.245 . S
C2697 C2703 1.428 . S
C2698 C2701 1.260 . S
C2698 C2702 1.477 . S
C2698 H2716 0.932 . S
C2699 C2700 1.384 . S
C2699 C2701 1.479 . S
C2699 H2717 0.929 . S
C2700 C2697 1.424 . S
C2700 C2699 1.384 . S
C2700 H2718 0.928 . S
C2701 C2698 1.260 . S
C2701 C2699 1.479 . S
C2702 C2697 1.245 . S
C2702 C2698 1.477 . S
C2702 H2719 0.932 . S
C2703 U2686 2.882 . S
C2703 C2697 1.428 . S
C2703 O2706 1.301 . S
C2703 O2707 1.282 . S
O2704 U2686 2.441 . S
O2704 C2690 1.249 . S
O2705 U2686 2.420 . S
O2705 C2690 1.202 . S
O2706 U2686 2.455 . S
O2706 C2703 1.301 . S
O2707 U2686 2.449 . S
O2707 C2703 1.282 . S
H2708 C2681 0.931 . S
H2709 C2683 0.929 . S
H2710 C2684 0.930 . S
H2711 C2685 0.931 . S
H2712 C2692 0.932 . S
H2713 C2693 0.930 . S
H2714 C2694 0.929 . S
H2715 C2696 0.930 . S
H2716 C2698 0.932 . S
H2717 C2699 0.929 . S
H2718 C2700 0.928 . S
H2719 C2702 0.932 . S
C2720 C2721 1.264 . S
C2720 C2725 1.479 . S
C2720 C2730 1.465 . S
C2721 C2720 1.264 . S
C2721 C2723 1.339 . S
C2721 H2748 0.931 . S
C2722 C2723 1.395 . S
C2722 C2724 1.320 . S
C2723 C2721 1.339 . S
C2723 C2722 1.395 . S
C2723 H2749 0.929 . S
C2724 C2722 1.320 . S
C2724 C2725 1.405 . S
C2724 H2750 0.930 . S
C2725 C2720 1.479 . S
C2725 C2724 1.405 . S
C2725 H2751 0.931 . S
U2726 O2727 2.454 . S
U2726 O2728 2.458 . S
U2726 C2729 2.984 . S
U2726 C2730 2.847 . S
U2726 C2743 2.882 . S
U2726 O2744 2.441 . S
U2726 O2745 2.420 . S
U2726 O2746 2.455 . S
U2726 O2747 2.449 . S
O2727 U2726 2.454 . S
O2727 C2729 1.353 . S
O2728 U2726 2.458 . S
O2728 C2729 1.286 . S
C2729 U2726 2.984 . S
C2729 O2727 1.353 . S
C2729 O2728 1.286 . S
C2729 C2731 1.363 . S
C2730 C2720 1.465 . S
C2730 U2726 2.847 . S
C2730 O2744 1.249 . S
C2730 O2745 1.202 . S
C2731 C2729 1.363 . S
C2731 C2733 1.408 . S
C2731 C2736 1.342 . S
C2732 C2733 1.310 . S
C2732 C2735 1.461 . S
C2732 H2752 0.932 . S
C2733 C2731 1.408 . S
C2733 C2732 1.310 . S
C2733 H2753 0.930 . S
C2734 C2735 1.474 . S
C2734 C2736 1.285 . S
C2734 H2754 0.929 . S
C2735 C2732 1.461 . S
C2735 C2734 1.474 . S
C2736 C2731 1.342 . S
C2736 C2734 1.285 . S
C2736 H2755 0.930 . S
C2737 C2740 1.424 . S
C2737 C2742 1.245 . S
C2737 C2743 1.428 . S
C2738 C2741 1.260 . S
C2738 C2742 1.477 . S
C2738 H2756 0.932 . S
C2739 C2740 1.384 . S
C2739 C2741 1.479 . S
C2739 H2757 0.929 . S
C2740 C2737 1.424 . S
C2740 C2739 1.384 . S
C2740 H2758 0.928 . S
C2741 C2738 1.260 . S
C2741 C2739 1.479 . S
C2742 C2737 1.245 . S
C2742 C2738 1.477 . S
C2742 H2759 0.932 . S
C2743 U2726 2.882 . S
C2743 C2737 1.428 . S
C2743 O2746 1.301 . S
C2743 O2747 1.282 . S
O2744 U2726 2.441 . S
O2744 C2730 1.249 . S
O2745 U2726 2.420 . S
O2745 C2730 1.202 . S
O2746 U2726 2.455 . S
O2746 C2743 1.301 . S
O2747 U2726 2.449 . S
O2747 C2743 1.282 . S
H2748 C2721 0.931 . S
H2749 C2723 0.929 . S
H2750 C2724 0.930 . S
H2751 C2725 0.931 . S
H2752 C2732 0.932 . S
H2753 C2733 0.930 . S
H2754 C2734 0.929 . S
H2755 C2736 0.930 . S
H2756 C2738 0.932 . S
H2757 C2739 0.929 . S
H2758 C2740 0.928 . S
H2759 C2742 0.932 . S
C2760 C2761 1.264 . S
C2760 C2765 1.479 . S
C2760 C2770 1.465 . S
C2761 C2760 1.264 . S
C2761 C2763 1.339 . S
C2761 H2788 0.931 . S
C2762 C2763 1.395 . S
C2762 C2764 1.320 . S
C2763 C2761 1.339 . S
C2763 C2762 1.395 . S
C2763 H2789 0.929 . S
C2764 C2762 1.320 . S
C2764 C2765 1.405 . S
C2764 H2790 0.930 . S
C2765 C2760 1.479 . S
C2765 C2764 1.405 . S
C2765 H2791 0.931 . S
U2766 O2767 2.454 . S
U2766 O2768 2.458 . S
U2766 C2769 2.984 . S
U2766 C2770 2.847 . S
U2766 C2783 2.882 . S
U2766 O2784 2.441 . S
U2766 O2785 2.420 . S
U2766 O2786 2.455 . S
U2766 O2787 2.449 . S
O2767 U2766 2.454 . S
O2767 C2769 1.353 . S
O2768 U2766 2.458 . S
O2768 C2769 1.286 . S
C2769 U2766 2.984 . S
C2769 O2767 1.353 . S
C2769 O2768 1.286 . S
C2769 C2771 1.363 . S
C2770 C2760 1.465 . S
C2770 U2766 2.847 . S
C2770 O2784 1.249 . S
C2770 O2785 1.202 . S
C2771 C2769 1.363 . S
C2771 C2773 1.408 . S
C2771 C2776 1.342 . S
C2772 C2773 1.310 . S
C2772 C2775 1.461 . S
C2772 H2792 0.932 . S
C2773 C2771 1.408 . S
C2773 C2772 1.310 . S
C2773 H2793 0.930 . S
C2774 C2775 1.474 . S
C2774 C2776 1.285 . S
C2774 H2794 0.929 . S
C2775 C2772 1.461 . S
C2775 C2774 1.474 . S
C2776 C2771 1.342 . S
C2776 C2774 1.285 . S
C2776 H2795 0.930 . S
C2777 C2780 1.424 . S
C2777 C2782 1.245 . S
C2777 C2783 1.428 . S
C2778 C2781 1.260 . S
C2778 C2782 1.477 . S
C2778 H2796 0.932 . S
C2779 C2780 1.384 . S
C2779 C2781 1.479 . S
C2779 H2797 0.929 . S
C2780 C2777 1.424 . S
C2780 C2779 1.384 . S
C2780 H2798 0.928 . S
C2781 C2778 1.260 . S
C2781 C2779 1.479 . S
C2782 C2777 1.245 . S
C2782 C2778 1.477 . S
C2782 H2799 0.932 . S
C2783 U2766 2.882 . S
C2783 C2777 1.428 . S
C2783 O2786 1.301 . S
C2783 O2787 1.282 . S
O2784 U2766 2.441 . S
O2784 C2770 1.249 . S
O2785 U2766 2.420 . S
O2785 C2770 1.202 . S
O2786 U2766 2.455 . S
O2786 C2783 1.301 . S
O2787 U2766 2.449 . S
O2787 C2783 1.282 . S
H2788 C2761 0.931 . S
H2789 C2763 0.929 . S
H2790 C2764 0.930 . S
H2791 C2765 0.931 . S
H2792 C2772 0.932 . S
H2793 C2773 0.930 . S
H2794 C2774 0.929 . S
H2795 C2776 0.930 . S
H2796 C2778 0.932 . S
H2797 C2779 0.929 . S
H2798 C2780 0.928 . S
H2799 C2782 0.932 . S
C2800 C2801 1.264 . S
C2800 C2805 1.479 . S
C2800 C2810 1.465 . S
C2801 C2800 1.264 . S
C2801 C2803 1.339 . S
C2801 H2828 0.931 . S
C2802 C2803 1.395 . S
C2802 C2804 1.320 . S
C2803 C2801 1.339 . S
C2803 C2802 1.395 . S
C2803 H2829 0.929 . S
C2804 C2802 1.320 . S
C2804 C2805 1.405 . S
C2804 H2830 0.930 . S
C2805 C2800 1.479 . S
C2805 C2804 1.405 . S
C2805 H2831 0.931 . S
U2806 O2807 2.454 . S
U2806 O2808 2.458 . S
U2806 C2809 2.984 . S
U2806 C2810 2.847 . S
U2806 C2823 2.882 . S
U2806 O2824 2.441 . S
U2806 O2825 2.420 . S
U2806 O2826 2.455 . S
U2806 O2827 2.449 . S
O2807 U2806 2.454 . S
O2807 C2809 1.353 . S
O2808 U2806 2.458 . S
O2808 C2809 1.286 . S
C2809 U2806 2.984 . S
C2809 O2807 1.353 . S
C2809 O2808 1.286 . S
C2809 C2811 1.363 . S
C2810 C2800 1.465 . S
C2810 U2806 2.847 . S
C2810 O2824 1.249 . S
C2810 O2825 1.202 . S
C2811 C2809 1.363 . S
C2811 C2813 1.408 . S
C2811 C2816 1.342 . S
C2812 C2813 1.310 . S
C2812 C2815 1.461 . S
C2812 H2832 0.932 . S
C2813 C2811 1.408 . S
C2813 C2812 1.310 . S
C2813 H2833 0.930 . S
C2814 C2815 1.474 . S
C2814 C2816 1.285 . S
C2814 H2834 0.929 . S
C2815 C2812 1.461 . S
C2815 C2814 1.474 . S
C2816 C2811 1.342 . S
C2816 C2814 1.285 . S
C2816 H2835 0.930 . S
C2817 C2820 1.424 . S
C2817 C2822 1.245 . S
C2817 C2823 1.428 . S
C2818 C2821 1.260 . S
C2818 C2822 1.477 . S
C2818 H2836 0.932 . S
C2819 C2820 1.384 . S
C2819 C2821 1.479 . S
C2819 H2837 0.929 . S
C2820 C2817 1.424 . S
C2820 C2819 1.384 . S
C2820 H2838 0.928 . S
C2821 C2818 1.260 . S
C2821 C2819 1.479 . S
C2822 C2817 1.245 . S
C2822 C2818 1.477 . S
C2822 H2839 0.932 . S
C2823 U2806 2.882 . S
C2823 C2817 1.428 . S
C2823 O2826 1.301 . S
C2823 O2827 1.282 . S
O2824 U2806 2.441 . S
O2824 C2810 1.249 . S
O2825 U2806 2.420 . S
O2825 C2810 1.202 . S
O2826 U2806 2.455 . S
O2826 C2823 1.301 . S
O2827 U2806 2.449 . S
O2827 C2823 1.282 . S
H2828 C2801 0.931 . S
H2829 C2803 0.929 . S
H2830 C2804 0.930 . S
H2831 C2805 0.931 . S
H2832 C2812 0.932 . S
H2833 C2813 0.930 . S
H2834 C2814 0.929 . S
H2835 C2816 0.930 . S
H2836 C2818 0.932 . S
H2837 C2819 0.929 . S
H2838 C2820 0.928 . S
H2839 C2822 0.932 . S
C2840 C2841 1.264 . S
C2840 C2845 1.479 . S
C2840 C2850 1.465 . S
C2841 C2840 1.264 . S
C2841 C2843 1.339 . S
C2841 H2868 0.931 . S
C2842 C2843 1.395 . S
C2842 C2844 1.320 . S
C2843 C2841 1.339 . S
C2843 C2842 1.395 . S
C2843 H2869 0.929 . S
C2844 C2842 1.320 . S
C2844 C2845 1.405 . S
C2844 H2870 0.930 . S
C2845 C2840 1.479 . S
C2845 C2844 1.405 . S
C2845 H2871 0.931 . S
U2846 O2847 2.454 . S
U2846 O2848 2.458 . S
U2846 C2849 2.984 . S
U2846 C2850 2.847 . S
U2846 C2863 2.882 . S
U2846 O2864 2.441 . S
U2846 O2865 2.420 . S
U2846 O2866 2.455 . S
U2846 O2867 2.449 . S
O2847 U2846 2.454 . S
O2847 C2849 1.353 . S
O2848 U2846 2.458 . S
O2848 C2849 1.286 . S
C2849 U2846 2.984 . S
C2849 O2847 1.353 . S
C2849 O2848 1.286 . S
C2849 C2851 1.363 . S
C2850 C2840 1.465 . S
C2850 U2846 2.847 . S
C2850 O2864 1.249 . S
C2850 O2865 1.202 . S
C2851 C2849 1.363 . S
C2851 C2853 1.408 . S
C2851 C2856 1.342 . S
C2852 C2853 1.310 . S
C2852 C2855 1.461 . S
C2852 H2872 0.932 . S
C2853 C2851 1.408 . S
C2853 C2852 1.310 . S
C2853 H2873 0.930 . S
C2854 C2855 1.474 . S
C2854 C2856 1.285 . S
C2854 H2874 0.929 . S
C2855 C2852 1.461 . S
C2855 C2854 1.474 . S
C2856 C2851 1.342 . S
C2856 C2854 1.285 . S
C2856 H2875 0.930 . S
C2857 C2860 1.424 . S
C2857 C2862 1.245 . S
C2857 C2863 1.428 . S
C2858 C2861 1.260 . S
C2858 C2862 1.477 . S
C2858 H2876 0.932 . S
C2859 C2860 1.384 . S
C2859 C2861 1.479 . S
C2859 H2877 0.929 . S
C2860 C2857 1.424 . S
C2860 C2859 1.384 . S
C2860 H2878 0.928 . S
C2861 C2858 1.260 . S
C2861 C2859 1.479 . S
C2862 C2857 1.245 . S
C2862 C2858 1.477 . S
C2862 H2879 0.932 . S
C2863 U2846 2.882 . S
C2863 C2857 1.428 . S
C2863 O2866 1.301 . S
C2863 O2867 1.282 . S
O2864 U2846 2.441 . S
O2864 C2850 1.249 . S
O2865 U2846 2.420 . S
O2865 C2850 1.202 . S
O2866 U2846 2.455 . S
O2866 C2863 1.301 . S
O2867 U2846 2.449 . S
O2867 C2863 1.282 . S
H2868 C2841 0.931 . S
H2869 C2843 0.929 . S
H2870 C2844 0.930 . S
H2871 C2845 0.931 . S
H2872 C2852 0.932 . S
H2873 C2853 0.930 . S
H2874 C2854 0.929 . S
H2875 C2856 0.930 . S
H2876 C2858 0.932 . S
H2877 C2859 0.929 . S
H2878 C2860 0.928 . S
H2879 C2862 0.932 . S
C2880 C2881 1.264 . S
C2880 C2885 1.479 . S
C2880 C2890 1.465 . S
C2881 C2880 1.264 . S
C2881 C2883 1.339 . S
C2881 H2908 0.931 . S
C2882 C2883 1.395 . S
C2882 C2884 1.320 . S
C2883 C2881 1.339 . S
C2883 C2882 1.395 . S
C2883 H2909 0.929 . S
C2884 C2882 1.320 . S
C2884 C2885 1.405 . S
C2884 H2910 0.930 . S
C2885 C2880 1.479 . S
C2885 C2884 1.405 . S
C2885 H2911 0.931 . S
U2886 O2887 2.454 . S
U2886 O2888 2.458 . S
U2886 C2889 2.984 . S
U2886 C2890 2.847 . S
U2886 C2903 2.882 . S
U2886 O2904 2.441 . S
U2886 O2905 2.420 . S
U2886 O2906 2.455 . S
U2886 O2907 2.449 . S
O2887 U2886 2.454 . S
O2887 C2889 1.353 . S
O2888 U2886 2.458 . S
O2888 C2889 1.286 . S
C2889 U2886 2.984 . S
C2889 O2887 1.353 . S
C2889 O2888 1.286 . S
C2889 C2891 1.363 . S
C2890 C2880 1.465 . S
C2890 U2886 2.847 . S
C2890 O2904 1.249 . S
C2890 O2905 1.202 . S
C2891 C2889 1.363 . S
C2891 C2893 1.408 . S
C2891 C2896 1.342 . S
C2892 C2893 1.310 . S
C2892 C2895 1.461 . S
C2892 H2912 0.932 . S
C2893 C2891 1.408 . S
C2893 C2892 1.310 . S
C2893 H2913 0.930 . S
C2894 C2895 1.474 . S
C2894 C2896 1.285 . S
C2894 H2914 0.929 . S
C2895 C2892 1.461 . S
C2895 C2894 1.474 . S
C2896 C2891 1.342 . S
C2896 C2894 1.285 . S
C2896 H2915 0.930 . S
C2897 C2900 1.424 . S
C2897 C2902 1.245 . S
C2897 C2903 1.428 . S
C2898 C2901 1.260 . S
C2898 C2902 1.477 . S
C2898 H2916 0.932 . S
C2899 C2900 1.384 . S
C2899 C2901 1.479 . S
C2899 H2917 0.929 . S
C2900 C2897 1.424 . S
C2900 C2899 1.384 . S
C2900 H2918 0.928 . S
C2901 C2898 1.260 . S
C2901 C2899 1.479 . S
C2902 C2897 1.245 . S
C2902 C2898 1.477 . S
C2902 H2919 0.932 . S
C2903 U2886 2.882 . S
C2903 C2897 1.428 . S
C2903 O2906 1.301 . S
C2903 O2907 1.282 . S
O2904 U2886 2.441 . S
O2904 C2890 1.249 . S
O2905 U2886 2.420 . S
O2905 C2890 1.202 . S
O2906 U2886 2.455 . S
O2906 C2903 1.301 . S
O2907 U2886 2.449 . S
O2907 C2903 1.282 . S
H2908 C2881 0.931 . S
H2909 C2883 0.929 . S
H2910 C2884 0.930 . S
H2911 C2885 0.931 . S
H2912 C2892 0.932 . S
H2913 C2893 0.930 . S
H2914 C2894 0.929 . S
H2915 C2896 0.930 . S
H2916 C2898 0.932 . S
H2917 C2899 0.929 . S
H2918 C2900 0.928 . S
H2919 C2902 0.932 . S
C2920 C2921 1.264 . S
C2920 C2925 1.479 . S
C2920 C2930 1.465 . S
C2921 C2920 1.264 . S
C2921 C2923 1.339 . S
C2921 H2948 0.931 . S
C2922 C2923 1.395 . S
C2922 C2924 1.320 . S
C2923 C2921 1.339 . S
C2923 C2922 1.395 . S
C2923 H2949 0.929 . S
C2924 C2922 1.320 . S
C2924 C2925 1.405 . S
C2924 H2950 0.930 . S
C2925 C2920 1.479 . S
C2925 C2924 1.405 . S
C2925 H2951 0.931 . S
U2926 O2927 2.454 . S
U2926 O2928 2.458 . S
U2926 C2929 2.984 . S
U2926 C2930 2.847 . S
U2926 C2943 2.882 . S
U2926 O2944 2.441 . S
U2926 O2945 2.420 . S
U2926 O2946 2.455 . S
U2926 O2947 2.449 . S
O2927 U2926 2.454 . S
O2927 C2929 1.353 . S
O2928 U2926 2.458 . S
O2928 C2929 1.286 . S
C2929 U2926 2.984 . S
C2929 O2927 1.353 . S
C2929 O2928 1.286 . S
C2929 C2931 1.363 . S
C2930 C2920 1.465 . S
C2930 U2926 2.847 . S
C2930 O2944 1.249 . S
C2930 O2945 1.202 . S
C2931 C2929 1.363 . S
C2931 C2933 1.408 . S
C2931 C2936 1.342 . S
C2932 C2933 1.310 . S
C2932 C2935 1.461 . S
C2932 H2952 0.932 . S
C2933 C2931 1.408 . S
C2933 C2932 1.310 . S
C2933 H2953 0.930 . S
C2934 C2935 1.474 . S
C2934 C2936 1.285 . S
C2934 H2954 0.929 . S
C2935 C2932 1.461 . S
C2935 C2934 1.474 . S
C2936 C2931 1.342 . S
C2936 C2934 1.285 . S
C2936 H2955 0.930 . S
C2937 C2940 1.424 . S
C2937 C2942 1.245 . S
C2937 C2943 1.428 . S
C2938 C2941 1.260 . S
C2938 C2942 1.477 . S
C2938 H2956 0.932 . S
C2939 C2940 1.384 . S
C2939 C2941 1.479 . S
C2939 H2957 0.929 . S
C2940 C2937 1.424 . S
C2940 C2939 1.384 . S
C2940 H2958 0.928 . S
C2941 C2938 1.260 . S
C2941 C2939 1.479 . S
C2942 C2937 1.245 . S
C2942 C2938 1.477 . S
C2942 H2959 0.932 . S
C2943 U2926 2.882 . S
C2943 C2937 1.428 . S
C2943 O2946 1.301 . S
C2943 O2947 1.282 . S
O2944 U2926 2.441 . S
O2944 C2930 1.249 . S
O2945 U2926 2.420 . S
O2945 C2930 1.202 . S
O2946 U2926 2.455 . S
O2946 C2943 1.301 . S
O2947 U2926 2.449 . S
O2947 C2943 1.282 . S
H2948 C2921 0.931 . S
H2949 C2923 0.929 . S
H2950 C2924 0.930 . S
H2951 C2925 0.931 . S
H2952 C2932 0.932 . S
H2953 C2933 0.930 . S
H2954 C2934 0.929 . S
H2955 C2936 0.930 . S
H2956 C2938 0.932 . S
H2957 C2939 0.929 . S
H2958 C2940 0.928 . S
H2959 C2942 0.932 . S
C2960 C2961 1.264 . S
C2960 C2965 1.479 . S
C2960 C2970 1.465 . S
C2961 C2960 1.264 . S
C2961 C2963 1.339 . S
C2961 H2988 0.931 . S
C2962 C2963 1.395 . S
C2962 C2964 1.320 . S
C2963 C2961 1.339 . S
C2963 C2962 1.395 . S
C2963 H2989 0.929 . S
C2964 C2962 1.320 . S
C2964 C2965 1.405 . S
C2964 H2990 0.930 . S
C2965 C2960 1.479 . S
C2965 C2964 1.405 . S
C2965 H2991 0.931 . S
U2966 O2967 2.454 . S
U2966 O2968 2.458 . S
U2966 C2969 2.984 . S
U2966 C2970 2.847 . S
U2966 C2983 2.882 . S
U2966 O2984 2.441 . S
U2966 O2985 2.420 . S
U2966 O2986 2.455 . S
U2966 O2987 2.449 . S
O2967 U2966 2.454 . S
O2967 C2969 1.353 . S
O2968 U2966 2.458 . S
O2968 C2969 1.286 . S
C2969 U2966 2.984 . S
C2969 O2967 1.353 . S
C2969 O2968 1.286 . S
C2969 C2971 1.363 . S
C2970 C2960 1.465 . S
C2970 U2966 2.847 . S
C2970 O2984 1.249 . S
C2970 O2985 1.202 . S
C2971 C2969 1.363 . S
C2971 C2973 1.408 . S
C2971 C2976 1.342 . S
C2972 C2973 1.310 . S
C2972 C2975 1.461 . S
C2972 H2992 0.932 . S
C2973 C2971 1.408 . S
C2973 C2972 1.310 . S
C2973 H2993 0.930 . S
C2974 C2975 1.474 . S
C2974 C2976 1.285 . S
C2974 H2994 0.929 . S
C2975 C2972 1.461 . S
C2975 C2974 1.474 . S
C2976 C2971 1.342 . S
C2976 C2974 1.285 . S
C2976 H2995 0.930 . S
C2977 C2980 1.424 . S
C2977 C2982 1.245 . S
C2977 C2983 1.428 . S
C2978 C2981 1.260 . S
C2978 C2982 1.477 . S
C2978 H2996 0.932 . S
C2979 C2980 1.384 . S
C2979 C2981 1.479 . S
C2979 H2997 0.929 . S
C2980 C2977 1.424 . S
C2980 C2979 1.384 . S
C2980 H2998 0.928 . S
C2981 C2978 1.260 . S
C2981 C2979 1.479 . S
C2982 C2977 1.245 . S
C2982 C2978 1.477 . S
C2982 H2999 0.932 . S
C2983 U2966 2.882 . S
C2983 C2977 1.428 . S
C2983 O2986 1.301 . S
C2983 O2987 1.282 . S
O2984 U2966 2.441 . S
O2984 C2970 1.249 . S
O2985 U2966 2.420 . S
O2985 C2970 1.202 . S
O2986 U2966 2.455 . S
O2986 C2983 1.301 . S
O2987 U2966 2.449 . S
O2987 C2983 1.282 . S
H2988 C2961 0.931 . S
H2989 C2963 0.929 . S
H2990 C2964 0.930 . S
H2991 C2965 0.931 . S
H2992 C2972 0.932 . S
H2993 C2973 0.930 . S
H2994 C2974 0.929 . S
H2995 C2976 0.930 . S
H2996 C2978 0.932 . S
H2997 C2979 0.929 . S
H2998 C2980 0.928 . S
H2999 C2982 0.932 . S
C3000 C3001 1.264 . S
C3000 C3005 1.479 . S
C3000 C3010 1.465 . S
C3001 C3000 1.264 . S
C3001 C3003 1.339 . S
C3001 H3028 0.931 . S
C3002 C3003 1.395 . S
C3002 C3004 1.320 . S
C3003 C3001 1.339 . S
C3003 C3002 1.395 . S
C3003 H3029 0.929 . S
C3004 C3002 1.320 . S
C3004 C3005 1.405 . S
C3004 H3030 0.930 . S
C3005 C3000 1.479 . S
C3005 C3004 1.405 . S
C3005 H3031 0.931 . S
U3006 O3007 2.454 . S
U3006 O3008 2.458 . S
U3006 C3009 2.984 . S
U3006 C3010 2.847 . S
U3006 C3023 2.882 . S
U3006 O3024 2.441 . S
U3006 O3025 2.420 . S
U3006 O3026 2.455 . S
U3006 O3027 2.449 . S
O3007 U3006 2.454 . S
O3007 C3009 1.353 . S
O3008 U3006 2.458 . S
O3008 C3009 1.286 . S
C3009 U3006 2.984 . S
C3009 O3007 1.353 . S
C3009 O3008 1.286 . S
C3009 C3011 1.363 . S
C3010 C3000 1.465 . S
C3010 U3006 2.847 . S
C3010 O3024 1.249 . S
C3010 O3025 1.202 . S
C3011 C3009 1.363 . S
C3011 C3013 1.408 . S
C3011 C3016 1.342 . S
C3012 C3013 1.310 . S
C3012 C3015 1.461 . S
C3012 H3032 0.932 . S
C3013 C3011 1.408 . S
C3013 C3012 1.310 . S
C3013 H3033 0.930 . S
C3014 C3015 1.474 . S
C3014 C3016 1.285 . S
C3014 H3034 0.929 . S
C3015 C3012 1.461 . S
C3015 C3014 1.474 . S
C3016 C3011 1.342 . S
C3016 C3014 1.285 . S
C3016 H3035 0.930 . S
C3017 C3020 1.424 . S
C3017 C3022 1.245 . S
C3017 C3023 1.428 . S
C3018 C3021 1.260 . S
C3018 C3022 1.477 . S
C3018 H3036 0.932 . S
C3019 C3020 1.384 . S
C3019 C3021 1.479 . S
C3019 H3037 0.929 . S
C3020 C3017 1.424 . S
C3020 C3019 1.384 . S
C3020 H3038 0.928 . S
C3021 C3018 1.260 . S
C3021 C3019 1.479 . S
C3022 C3017 1.245 . S
C3022 C3018 1.477 . S
C3022 H3039 0.932 . S
C3023 U3006 2.882 . S
C3023 C3017 1.428 . S
C3023 O3026 1.301 . S
C3023 O3027 1.282 . S
O3024 U3006 2.441 . S
O3024 C3010 1.249 . S
O3025 U3006 2.420 . S
O3025 C3010 1.202 . S
O3026 U3006 2.455 . S
O3026 C3023 1.301 . S
O3027 U3006 2.449 . S
O3027 C3023 1.282 . S
H3028 C3001 0.931 . S
H3029 C3003 0.929 . S
H3030 C3004 0.930 . S
H3031 C3005 0.931 . S
H3032 C3012 0.932 . S
H3033 C3013 0.930 . S
H3034 C3014 0.929 . S
H3035 C3016 0.930 . S
H3036 C3018 0.932 . S
H3037 C3019 0.929 . S
H3038 C3020 0.928 . S
H3039 C3022 0.932 . S
C3040 C3041 1.264 . S
C3040 C3045 1.479 . S
C3040 C3050 1.465 . S
C3041 C3040 1.264 . S
C3041 C3043 1.339 . S
C3041 H3068 0.931 . S
C3042 C3043 1.395 . S
C3042 C3044 1.320 . S
C3043 C3041 1.339 . S
C3043 C3042 1.395 . S
C3043 H3069 0.929 . S
C3044 C3042 1.320 . S
C3044 C3045 1.405 . S
C3044 H3070 0.930 . S
C3045 C3040 1.479 . S
C3045 C3044 1.405 . S
C3045 H3071 0.931 . S
U3046 O3047 2.454 . S
U3046 O3048 2.458 . S
U3046 C3049 2.984 . S
U3046 C3050 2.847 . S
U3046 C3063 2.882 . S
U3046 O3064 2.441 . S
U3046 O3065 2.420 . S
U3046 O3066 2.455 . S
U3046 O3067 2.449 . S
O3047 U3046 2.454 . S
O3047 C3049 1.353 . S
O3048 U3046 2.458 . S
O3048 C3049 1.286 . S
C3049 U3046 2.984 . S
C3049 O3047 1.353 . S
C3049 O3048 1.286 . S
C3049 C3051 1.363 . S
C3050 C3040 1.465 . S
C3050 U3046 2.847 . S
C3050 O3064 1.249 . S
C3050 O3065 1.202 . S
C3051 C3049 1.363 . S
C3051 C3053 1.408 . S
C3051 C3056 1.342 . S
C3052 C3053 1.310 . S
C3052 C3055 1.461 . S
C3052 H3072 0.932 . S
C3053 C3051 1.408 . S
C3053 C3052 1.310 . S
C3053 H3073 0.930 . S
C3054 C3055 1.474 . S
C3054 C3056 1.285 . S
C3054 H3074 0.929 . S
C3055 C3052 1.461 . S
C3055 C3054 1.474 . S
C3056 C3051 1.342 . S
C3056 C3054 1.285 . S
C3056 H3075 0.930 . S
C3057 C3060 1.424 . S
C3057 C3062 1.245 . S
C3057 C3063 1.428 . S
C3058 C3061 1.260 . S
C3058 C3062 1.477 . S
C3058 H3076 0.932 . S
C3059 C3060 1.384 . S
C3059 C3061 1.479 . S
C3059 H3077 0.929 . S
C3060 C3057 1.424 . S
C3060 C3059 1.384 . S
C3060 H3078 0.928 . S
C3061 C3058 1.260 . S
C3061 C3059 1.479 . S
C3062 C3057 1.245 . S
C3062 C3058 1.477 . S
C3062 H3079 0.932 . S
C3063 U3046 2.882 . S
C3063 C3057 1.428 . S
C3063 O3066 1.301 . S
C3063 O3067 1.282 . S
O3064 U3046 2.441 . S
O3064 C3050 1.249 . S
O3065 U3046 2.420 . S
O3065 C3050 1.202 . S
O3066 U3046 2.455 . S
O3066 C3063 1.301 . S
O3067 U3046 2.449 . S
O3067 C3063 1.282 . S
H3068 C3041 0.931 . S
H3069 C3043 0.929 . S
H3070 C3044 0.930 . S
H3071 C3045 0.931 . S
H3072 C3052 0.932 . S
H3073 C3053 0.930 . S
H3074 C3054 0.929 . S
H3075 C3056 0.930 . S
H3076 C3058 0.932 . S
H3077 C3059 0.929 . S
H3078 C3060 0.928 . S
H3079 C3062 0.932 . S
C3080 C3081 1.264 . S
C3080 C3085 1.479 . S
C3080 C3090 1.465 . S
C3081 C3080 1.264 . S
C3081 C3083 1.339 . S
C3081 H3108 0.931 . S
C3082 C3083 1.395 . S
C3082 C3084 1.320 . S
C3083 C3081 1.339 . S
C3083 C3082 1.395 . S
C3083 H3109 0.929 . S
C3084 C3082 1.320 . S
C3084 C3085 1.405 . S
C3084 H3110 0.930 . S
C3085 C3080 1.479 . S
C3085 C3084 1.405 . S
C3085 H3111 0.931 . S
U3086 O3087 2.454 . S
U3086 O3088 2.458 . S
U3086 C3089 2.984 . S
U3086 C3090 2.847 . S
U3086 C3103 2.882 . S
U3086 O3104 2.441 . S
U3086 O3105 2.420 . S
U3086 O3106 2.455 . S
U3086 O3107 2.449 . S
O3087 U3086 2.454 . S
O3087 C3089 1.353 . S
O3088 U3086 2.458 . S
O3088 C3089 1.286 . S
C3089 U3086 2.984 . S
C3089 O3087 1.353 . S
C3089 O3088 1.286 . S
C3089 C3091 1.363 . S
C3090 C3080 1.465 . S
C3090 U3086 2.847 . S
C3090 O3104 1.249 . S
C3090 O3105 1.202 . S
C3091 C3089 1.363 . S
C3091 C3093 1.408 . S
C3091 C3096 1.342 . S
C3092 C3093 1.310 . S
C3092 C3095 1.461 . S
C3092 H3112 0.932 . S
C3093 C3091 1.408 . S
C3093 C3092 1.310 . S
C3093 H3113 0.930 . S
C3094 C3095 1.474 . S
C3094 C3096 1.285 . S
C3094 H3114 0.929 . S
C3095 C3092 1.461 . S
C3095 C3094 1.474 . S
C3096 C3091 1.342 . S
C3096 C3094 1.285 . S
C3096 H3115 0.930 . S
C3097 C3100 1.424 . S
C3097 C3102 1.245 . S
C3097 C3103 1.428 . S
C3098 C3101 1.260 . S
C3098 C3102 1.477 . S
C3098 H3116 0.932 . S
C3099 C3100 1.384 . S
C3099 C3101 1.479 . S
C3099 H3117 0.929 . S
C3100 C3097 1.424 . S
C3100 C3099 1.384 . S
C3100 H3118 0.928 . S
C3101 C3098 1.260 . S
C3101 C3099 1.479 . S
C3102 C3097 1.245 . S
C3102 C3098 1.477 . S
C3102 H3119 0.932 . S
C3103 U3086 2.882 . S
C3103 C3097 1.428 . S
C3103 O3106 1.301 . S
C3103 O3107 1.282 . S
O3104 U3086 2.441 . S
O3104 C3090 1.249 . S
O3105 U3086 2.420 . S
O3105 C3090 1.202 . S
O3106 U3086 2.455 . S
O3106 C3103 1.301 . S
O3107 U3086 2.449 . S
O3107 C3103 1.282 . S
H3108 C3081 0.931 . S
H3109 C3083 0.929 . S
H3110 C3084 0.930 . S
H3111 C3085 0.931 . S
H3112 C3092 0.932 . S
H3113 C3093 0.930 . S
H3114 C3094 0.929 . S
H3115 C3096 0.930 . S
H3116 C3098 0.932 . S
H3117 C3099 0.929 . S
H3118 C3100 0.928 . S
H3119 C3102 0.932 . S
C3120 C3121 1.264 . S
C3120 C3125 1.479 . S
C3120 C3130 1.465 . S
C3121 C3120 1.264 . S
C3121 C3123 1.339 . S
C3121 H3148 0.931 . S
C3122 C3123 1.395 . S
C3122 C3124 1.320 . S
C3123 C3121 1.339 . S
C3123 C3122 1.395 . S
C3123 H3149 0.929 . S
C3124 C3122 1.320 . S
C3124 C3125 1.405 . S
C3124 H3150 0.930 . S
C3125 C3120 1.479 . S
C3125 C3124 1.405 . S
C3125 H3151 0.931 . S
U3126 O3127 2.454 . S
U3126 O3128 2.458 . S
U3126 C3129 2.984 . S
U3126 C3130 2.847 . S
U3126 C3143 2.882 . S
U3126 O3144 2.441 . S
U3126 O3145 2.420 . S
U3126 O3146 2.455 . S
U3126 O3147 2.449 . S
O3127 U3126 2.454 . S
O3127 C3129 1.353 . S
O3128 U3126 2.458 . S
O3128 C3129 1.286 . S
C3129 U3126 2.984 . S
C3129 O3127 1.353 . S
C3129 O3128 1.286 . S
C3129 C3131 1.363 . S
C3130 C3120 1.465 . S
C3130 U3126 2.847 . S
C3130 O3144 1.249 . S
C3130 O3145 1.202 . S
C3131 C3129 1.363 . S
C3131 C3133 1.408 . S
C3131 C3136 1.342 . S
C3132 C3133 1.310 . S
C3132 C3135 1.461 . S
C3132 H3152 0.932 . S
C3133 C3131 1.408 . S
C3133 C3132 1.310 . S
C3133 H3153 0.930 . S
C3134 C3135 1.474 . S
C3134 C3136 1.285 . S
C3134 H3154 0.929 . S
C3135 C3132 1.461 . S
C3135 C3134 1.474 . S
C3136 C3131 1.342 . S
C3136 C3134 1.285 . S
C3136 H3155 0.930 . S
C3137 C3140 1.424 . S
C3137 C3142 1.245 . S
C3137 C3143 1.428 . S
C3138 C3141 1.260 . S
C3138 C3142 1.477 . S
C3138 H3156 0.932 . S
C3139 C3140 1.384 . S
C3139 C3141 1.479 . S
C3139 H3157 0.929 . S
C3140 C3137 1.424 . S
C3140 C3139 1.384 . S
C3140 H3158 0.928 . S
C3141 C3138 1.260 . S
C3141 C3139 1.479 . S
C3142 C3137 1.245 . S
C3142 C3138 1.477 . S
C3142 H3159 0.932 . S
C3143 U3126 2.882 . S
C3143 C3137 1.428 . S
C3143 O3146 1.301 . S
C3143 O3147 1.282 . S
O3144 U3126 2.441 . S
O3144 C3130 1.249 . S
O3145 U3126 2.420 . S
O3145 C3130 1.202 . S
O3146 U3126 2.455 . S
O3146 C3143 1.301 . S
O3147 U3126 2.449 . S
O3147 C3143 1.282 . S
H3148 C3121 0.931 . S
H3149 C3123 0.929 . S
H3150 C3124 0.930 . S
H3151 C3125 0.931 . S
H3152 C3132 0.932 . S
H3153 C3133 0.930 . S
H3154 C3134 0.929 . S
H3155 C3136 0.930 . S
H3156 C3138 0.932 . S
H3157 C3139 0.929 . S
H3158 C3140 0.928 . S
H3159 C3142 0.932 . S
C3160 C3161 1.264 . S
C3160 C3165 1.479 . S
C3160 C3170 1.465 . S
C3161 C3160 1.264 . S
C3161 C3163 1.339 . S
C3161 H3188 0.931 . S
C3162 C3163 1.395 . S
C3162 C3164 1.320 . S
C3163 C3161 1.339 . S
C3163 C3162 1.395 . S
C3163 H3189 0.929 . S
C3164 C3162 1.320 . S
C3164 C3165 1.405 . S
C3164 H3190 0.930 . S
C3165 C3160 1.479 . S
C3165 C3164 1.405 . S
C3165 H3191 0.931 . S
U3166 O3167 2.454 . S
U3166 O3168 2.458 . S
U3166 C3169 2.984 . S
U3166 C3170 2.847 . S
U3166 C3183 2.882 . S
U3166 O3184 2.441 . S
U3166 O3185 2.420 . S
U3166 O3186 2.455 . S
U3166 O3187 2.449 . S
O3167 U3166 2.454 . S
O3167 C3169 1.353 . S
O3168 U3166 2.458 . S
O3168 C3169 1.286 . S
C3169 U3166 2.984 . S
C3169 O3167 1.353 . S
C3169 O3168 1.286 . S
C3169 C3171 1.363 . S
C3170 C3160 1.465 . S
C3170 U3166 2.847 . S
C3170 O3184 1.249 . S
C3170 O3185 1.202 . S
C3171 C3169 1.363 . S
C3171 C3173 1.408 . S
C3171 C3176 1.342 . S
C3172 C3173 1.310 . S
C3172 C3175 1.461 . S
C3172 H3192 0.932 . S
C3173 C3171 1.408 . S
C3173 C3172 1.310 . S
C3173 H3193 0.930 . S
C3174 C3175 1.474 . S
C3174 C3176 1.285 . S
C3174 H3194 0.929 . S
C3175 C3172 1.461 . S
C3175 C3174 1.474 . S
C3176 C3171 1.342 . S
C3176 C3174 1.285 . S
C3176 H3195 0.930 . S
C3177 C3180 1.424 . S
C3177 C3182 1.245 . S
C3177 C3183 1.428 . S
C3178 C3181 1.260 . S
C3178 C3182 1.477 . S
C3178 H3196 0.932 . S
C3179 C3180 1.384 . S
C3179 C3181 1.479 . S
C3179 H3197 0.929 . S
C3180 C3177 1.424 . S
C3180 C3179 1.384 . S
C3180 H3198 0.928 . S
C3181 C3178 1.260 . S
C3181 C3179 1.479 . S
C3182 C3177 1.245 . S
C3182 C3178 1.477 . S
C3182 H3199 0.932 . S
C3183 U3166 2.882 . S
C3183 C3177 1.428 . S
C3183 O3186 1.301 . S
C3183 O3187 1.282 . S
O3184 U3166 2.441 . S
O3184 C3170 1.249 . S
O3185 U3166 2.420 . S
O3185 C3170 1.202 . S
O3186 U3166 2.455 . S
O3186 C3183 1.301 . S
O3187 U3166 2.449 . S
O3187 C3183 1.282 . S
H3188 C3161 0.931 . S
H3189 C3163 0.929 . S
H3190 C3164 0.930 . S
H3191 C3165 0.931 . S
H3192 C3172 0.932 . S
H3193 C3173 0.930 . S
H3194 C3174 0.929 . S
H3195 C3176 0.930 . S
H3196 C3178 0.932 . S
H3197 C3179 0.929 . S
H3198 C3180 0.928 . S
H3199 C3182 0.932 . S
C3200 C3201 1.264 . S
C3200 C3205 1.479 . S
C3200 C3210 1.465 . S
C3201 C3200 1.264 . S
C3201 C3203 1.339 . S
C3201 H3228 0.931 . S
C3202 C3203 1.395 . S
C3202 C3204 1.320 . S
C3203 C3201 1.339 . S
C3203 C3202 1.395 . S
C3203 H3229 0.929 . S
C3204 C3202 1.320 . S
C3204 C3205 1.405 . S
C3204 H3230 0.930 . S
C3205 C3200 1.479 . S
C3205 C3204 1.405 . S
C3205 H3231 0.931 . S
U3206 O3207 2.454 . S
U3206 O3208 2.458 . S
U3206 C3209 2.984 . S
U3206 C3210 2.847 . S
U3206 C3223 2.882 . S
U3206 O3224 2.441 . S
U3206 O3225 2.420 . S
U3206 O3226 2.455 . S
U3206 O3227 2.449 . S
O3207 U3206 2.454 . S
O3207 C3209 1.353 . S
O3208 U3206 2.458 . S
O3208 C3209 1.286 . S
C3209 U3206 2.984 . S
C3209 O3207 1.353 . S
C3209 O3208 1.286 . S
C3209 C3211 1.363 . S
C3210 C3200 1.465 . S
C3210 U3206 2.847 . S
C3210 O3224 1.249 . S
C3210 O3225 1.202 . S
C3211 C3209 1.363 . S
C3211 C3213 1.408 . S
C3211 C3216 1.342 . S
C3212 C3213 1.310 . S
C3212 C3215 1.461 . S
C3212 H3232 0.932 . S
C3213 C3211 1.408 . S
C3213 C3212 1.310 . S
C3213 H3233 0.930 . S
C3214 C3215 1.474 . S
C3214 C3216 1.285 . S
C3214 H3234 0.929 . S
C3215 C3212 1.461 . S
C3215 C3214 1.474 . S
C3216 C3211 1.342 . S
C3216 C3214 1.285 . S
C3216 H3235 0.930 . S
C3217 C3220 1.424 . S
C3217 C3222 1.245 . S
C3217 C3223 1.428 . S
C3218 C3221 1.260 . S
C3218 C3222 1.477 . S
C3218 H3236 0.932 . S
C3219 C3220 1.384 . S
C3219 C3221 1.479 . S
C3219 H3237 0.929 . S
C3220 C3217 1.424 . S
C3220 C3219 1.384 . S
C3220 H3238 0.928 . S
C3221 C3218 1.260 . S
C3221 C3219 1.479 . S
C3222 C3217 1.245 . S
C3222 C3218 1.477 . S
C3222 H3239 0.932 . S
C3223 U3206 2.882 . S
C3223 C3217 1.428 . S
C3223 O3226 1.301 . S
C3223 O3227 1.282 . S
O3224 U3206 2.441 . S
O3224 C3210 1.249 . S
O3225 U3206 2.420 . S
O3225 C3210 1.202 . S
O3226 U3206 2.455 . S
O3226 C3223 1.301 . S
O3227 U3206 2.449 . S
O3227 C3223 1.282 . S
H3228 C3201 0.931 . S
H3229 C3203 0.929 . S
H3230 C3204 0.930 . S
H3231 C3205 0.931 . S
H3232 C3212 0.932 . S
H3233 C3213 0.930 . S
H3234 C3214 0.929 . S
H3235 C3216 0.930 . S
H3236 C3218 0.932 . S
H3237 C3219 0.929 . S
H3238 C3220 0.928 . S
H3239 C3222 0.932 . S
C3240 C3241 1.264 . S
C3240 C3245 1.479 . S
C3240 C3250 1.465 . S
C3241 C3240 1.264 . S
C3241 C3243 1.339 . S
C3241 H3268 0.931 . S
C3242 C3243 1.395 . S
C3242 C3244 1.320 . S
C3243 C3241 1.339 . S
C3243 C3242 1.395 . S
C3243 H3269 0.929 . S
C3244 C3242 1.320 . S
C3244 C3245 1.405 . S
C3244 H3270 0.930 . S
C3245 C3240 1.479 . S
C3245 C3244 1.405 . S
C3245 H3271 0.931 . S
U3246 O3247 2.454 . S
U3246 O3248 2.458 . S
U3246 C3249 2.984 . S
U3246 C3250 2.847 . S
U3246 C3263 2.882 . S
U3246 O3264 2.441 . S
U3246 O3265 2.420 . S
U3246 O3266 2.455 . S
U3246 O3267 2.449 . S
O3247 U3246 2.454 . S
O3247 C3249 1.353 . S
O3248 U3246 2.458 . S
O3248 C3249 1.286 . S
C3249 U3246 2.984 . S
C3249 O3247 1.353 . S
C3249 O3248 1.286 . S
C3249 C3251 1.363 . S
C3250 C3240 1.465 . S
C3250 U3246 2.847 . S
C3250 O3264 1.249 . S
C3250 O3265 1.202 . S
C3251 C3249 1.363 . S
C3251 C3253 1.408 . S
C3251 C3256 1.342 . S
C3252 C3253 1.310 . S
C3252 C3255 1.461 . S
C3252 H3272 0.932 . S
C3253 C3251 1.408 . S
C3253 C3252 1.310 . S
C3253 H3273 0.930 . S
C3254 C3255 1.474 . S
C3254 C3256 1.285 . S
C3254 H3274 0.929 . S
C3255 C3252 1.461 . S
C3255 C3254 1.474 . S
C3256 C3251 1.342 . S
C3256 C3254 1.285 . S
C3256 H3275 0.930 . S
C3257 C3260 1.424 . S
C3257 C3262 1.245 . S
C3257 C3263 1.428 . S
C3258 C3261 1.260 . S
C3258 C3262 1.477 . S
C3258 H3276 0.932 . S
C3259 C3260 1.384 . S
C3259 C3261 1.479 . S
C3259 H3277 0.929 . S
C3260 C3257 1.424 . S
C3260 C3259 1.384 . S
C3260 H3278 0.928 . S
C3261 C3258 1.260 . S
C3261 C3259 1.479 . S
C3262 C3257 1.245 . S
C3262 C3258 1.477 . S
C3262 H3279 0.932 . S
C3263 U3246 2.882 . S
C3263 C3257 1.428 . S
C3263 O3266 1.301 . S
C3263 O3267 1.282 . S
O3264 U3246 2.441 . S
O3264 C3250 1.249 . S
O3265 U3246 2.420 . S
O3265 C3250 1.202 . S
O3266 U3246 2.455 . S
O3266 C3263 1.301 . S
O3267 U3246 2.449 . S
O3267 C3263 1.282 . S
H3268 C3241 0.931 . S
H3269 C3243 0.929 . S
H3270 C3244 0.930 . S
H3271 C3245 0.931 . S
H3272 C3252 0.932 . S
H3273 C3253 0.930 . S
H3274 C3254 0.929 . S
H3275 C3256 0.930 . S
H3276 C3258 0.932 . S
H3277 C3259 0.929 . S
H3278 C3260 0.928 . S
H3279 C3262 0.932 . S
C3280 C3281 1.264 . S
C3280 C3285 1.479 . S
C3280 C3290 1.465 . S
C3281 C3280 1.264 . S
C3281 C3283 1.339 . S
C3281 H3308 0.931 . S
C3282 C3283 1.395 . S
C3282 C3284 1.320 . S
C3283 C3281 1.339 . S
C3283 C3282 1.395 . S
C3283 H3309 0.929 . S
C3284 C3282 1.320 . S
C3284 C3285 1.405 . S
C3284 H3310 0.930 . S
C3285 C3280 1.479 . S
C3285 C3284 1.405 . S
C3285 H3311 0.931 . S
U3286 O3287 2.454 . S
U3286 O3288 2.458 . S
U3286 C3289 2.984 . S
U3286 C3290 2.847 . S
U3286 C3303 2.882 . S
U3286 O3304 2.441 . S
U3286 O3305 2.420 . S
U3286 O3306 2.455 . S
U3286 O3307 2.449 . S
O3287 U3286 2.454 . S
O3287 C3289 1.353 . S
O3288 U3286 2.458 . S
O3288 C3289 1.286 . S
C3289 U3286 2.984 . S
C3289 O3287 1.353 . S
C3289 O3288 1.286 . S
C3289 C3291 1.363 . S
C3290 C3280 1.465 . S
C3290 U3286 2.847 . S
C3290 O3304 1.249 . S
C3290 O3305 1.202 . S
C3291 C3289 1.363 . S
C3291 C3293 1.408 . S
C3291 C3296 1.342 . S
C3292 C3293 1.310 . S
C3292 C3295 1.461 . S
C3292 H3312 0.932 . S
C3293 C3291 1.408 . S
C3293 C3292 1.310 . S
C3293 H3313 0.930 . S
C3294 C3295 1.474 . S
C3294 C3296 1.285 . S
C3294 H3314 0.929 . S
C3295 C3292 1.461 . S
C3295 C3294 1.474 . S
C3296 C3291 1.342 . S
C3296 C3294 1.285 . S
C3296 H3315 0.930 . S
C3297 C3300 1.424 . S
C3297 C3302 1.245 . S
C3297 C3303 1.428 . S
C3298 C3301 1.260 . S
C3298 C3302 1.477 . S
C3298 H3316 0.932 . S
C3299 C3300 1.384 . S
C3299 C3301 1.479 . S
C3299 H3317 0.929 . S
C3300 C3297 1.424 . S
C3300 C3299 1.384 . S
C3300 H3318 0.928 . S
C3301 C3298 1.260 . S
C3301 C3299 1.479 . S
C3302 C3297 1.245 . S
C3302 C3298 1.477 . S
C3302 H3319 0.932 . S
C3303 U3286 2.882 . S
C3303 C3297 1.428 . S
C3303 O3306 1.301 . S
C3303 O3307 1.282 . S
O3304 U3286 2.441 . S
O3304 C3290 1.249 . S
O3305 U3286 2.420 . S
O3305 C3290 1.202 . S
O3306 U3286 2.455 . S
O3306 C3303 1.301 . S
O3307 U3286 2.449 . S
O3307 C3303 1.282 . S
H3308 C3281 0.931 . S
H3309 C3283 0.929 . S
H3310 C3284 0.930 . S
H3311 C3285 0.931 . S
H3312 C3292 0.932 . S
H3313 C3293 0.930 . S
H3314 C3294 0.929 . S
H3315 C3296 0.930 . S
H3316 C3298 0.932 . S
H3317 C3299 0.929 . S
H3318 C3300 0.928 . S
H3319 C3302 0.932 . S
C3320 C3321 1.264 . S
C3320 C3325 1.479 . S
C3320 C3330 1.465 . S
C3321 C3320 1.264 . S
C3321 C3323 1.339 . S
C3321 H3348 0.931 . S
C3322 C3323 1.395 . S
C3322 C3324 1.320 . S
C3323 C3321 1.339 . S
C3323 C3322 1.395 . S
C3323 H3349 0.929 . S
C3324 C3322 1.320 . S
C3324 C3325 1.405 . S
C3324 H3350 0.930 . S
C3325 C3320 1.479 . S
C3325 C3324 1.405 . S
C3325 H3351 0.931 . S
U3326 O3327 2.454 . S
U3326 O3328 2.458 . S
U3326 C3329 2.984 . S
U3326 C3330 2.847 . S
U3326 C3343 2.882 . S
U3326 O3344 2.441 . S
U3326 O3345 2.420 . S
U3326 O3346 2.455 . S
U3326 O3347 2.449 . S
O3327 U3326 2.454 . S
O3327 C3329 1.353 . S
O3328 U3326 2.458 . S
O3328 C3329 1.286 . S
C3329 U3326 2.984 . S
C3329 O3327 1.353 . S
C3329 O3328 1.286 . S
C3329 C3331 1.363 . S
C3330 C3320 1.465 . S
C3330 U3326 2.847 . S
C3330 O3344 1.249 . S
C3330 O3345 1.202 . S
C3331 C3329 1.363 . S
C3331 C3333 1.408 . S
C3331 C3336 1.342 . S
C3332 C3333 1.310 . S
C3332 C3335 1.461 . S
C3332 H3352 0.932 . S
C3333 C3331 1.408 . S
C3333 C3332 1.310 . S
C3333 H3353 0.930 . S
C3334 C3335 1.474 . S
C3334 C3336 1.285 . S
C3334 H3354 0.929 . S
C3335 C3332 1.461 . S
C3335 C3334 1.474 . S
C3336 C3331 1.342 . S
C3336 C3334 1.285 . S
C3336 H3355 0.930 . S
C3337 C3340 1.424 . S
C3337 C3342 1.245 . S
C3337 C3343 1.428 . S
C3338 C3341 1.260 . S
C3338 C3342 1.477 . S
C3338 H3356 0.932 . S
C3339 C3340 1.384 . S
C3339 C3341 1.479 . S
C3339 H3357 0.929 . S
C3340 C3337 1.424 . S
C3340 C3339 1.384 . S
C3340 H3358 0.928 . S
C3341 C3338 1.260 . S
C3341 C3339 1.479 . S
C3342 C3337 1.245 . S
C3342 C3338 1.477 . S
C3342 H3359 0.932 . S
C3343 U3326 2.882 . S
C3343 C3337 1.428 . S
C3343 O3346 1.301 . S
C3343 O3347 1.282 . S
O3344 U3326 2.441 . S
O3344 C3330 1.249 . S
O3345 U3326 2.420 . S
O3345 C3330 1.202 . S
O3346 U3326 2.455 . S
O3346 C3343 1.301 . S
O3347 U3326 2.449 . S
O3347 C3343 1.282 . S
H3348 C3321 0.931 . S
H3349 C3323 0.929 . S
H3350 C3324 0.930 . S
H3351 C3325 0.931 . S
H3352 C3332 0.932 . S
H3353 C3333 0.930 . S
H3354 C3334 0.929 . S
H3355 C3336 0.930 . S
H3356 C3338 0.932 . S
H3357 C3339 0.929 . S
H3358 C3340 0.928 . S
H3359 C3342 0.932 . S
C3360 C3361 1.264 . S
C3360 C3365 1.479 . S
C3360 C3370 1.465 . S
C3361 C3360 1.264 . S
C3361 C3363 1.339 . S
C3361 H3388 0.931 . S
C3362 C3363 1.395 . S
C3362 C3364 1.320 . S
C3363 C3361 1.339 . S
C3363 C3362 1.395 . S
C3363 H3389 0.929 . S
C3364 C3362 1.320 . S
C3364 C3365 1.405 . S
C3364 H3390 0.930 . S
C3365 C3360 1.479 . S
C3365 C3364 1.405 . S
C3365 H3391 0.931 . S
U3366 O3367 2.454 . S
U3366 O3368 2.458 . S
U3366 C3369 2.984 . S
U3366 C3370 2.847 . S
U3366 C3383 2.882 . S
U3366 O3384 2.441 . S
U3366 O3385 2.420 . S
U3366 O3386 2.455 . S
U3366 O3387 2.449 . S
O3367 U3366 2.454 . S
O3367 C3369 1.353 . S
O3368 U3366 2.458 . S
O3368 C3369 1.286 . S
C3369 U3366 2.984 . S
C3369 O3367 1.353 . S
C3369 O3368 1.286 . S
C3369 C3371 1.363 . S
C3370 C3360 1.465 . S
C3370 U3366 2.847 . S
C3370 O3384 1.249 . S
C3370 O3385 1.202 . S
C3371 C3369 1.363 . S
C3371 C3373 1.408 . S
C3371 C3376 1.342 . S
C3372 C3373 1.310 . S
C3372 C3375 1.461 . S
C3372 H3392 0.932 . S
C3373 C3371 1.408 . S
C3373 C3372 1.310 . S
C3373 H3393 0.930 . S
C3374 C3375 1.474 . S
C3374 C3376 1.285 . S
C3374 H3394 0.929 . S
C3375 C3372 1.461 . S
C3375 C3374 1.474 . S
C3376 C3371 1.342 . S
C3376 C3374 1.285 . S
C3376 H3395 0.930 . S
C3377 C3380 1.424 . S
C3377 C3382 1.245 . S
C3377 C3383 1.428 . S
C3378 C3381 1.260 . S
C3378 C3382 1.477 . S
C3378 H3396 0.932 . S
C3379 C3380 1.384 . S
C3379 C3381 1.479 . S
C3379 H3397 0.929 . S
C3380 C3377 1.424 . S
C3380 C3379 1.384 . S
C3380 H3398 0.928 . S
C3381 C3378 1.260 . S
C3381 C3379 1.479 . S
C3382 C3377 1.245 . S
C3382 C3378 1.477 . S
C3382 H3399 0.932 . S
C3383 U3366 2.882 . S
C3383 C3377 1.428 . S
C3383 O3386 1.301 . S
C3383 O3387 1.282 . S
O3384 U3366 2.441 . S
O3384 C3370 1.249 . S
O3385 U3366 2.420 . S
O3385 C3370 1.202 . S
O3386 U3366 2.455 . S
O3386 C3383 1.301 . S
O3387 U3366 2.449 . S
O3387 C3383 1.282 . S
H3388 C3361 0.931 . S
H3389 C3363 0.929 . S
H3390 C3364 0.930 . S
H3391 C3365 0.931 . S
H3392 C3372 0.932 . S
H3393 C3373 0.930 . S
H3394 C3374 0.929 . S
H3395 C3376 0.930 . S
H3396 C3378 0.932 . S
H3397 C3379 0.929 . S
H3398 C3380 0.928 . S
H3399 C3382 0.932 . S
C3400 C3401 1.264 . S
C3400 C3405 1.479 . S
C3400 C3410 1.465 . S
C3401 C3400 1.264 . S
C3401 C3403 1.339 . S
C3401 H3428 0.931 . S
C3402 C3403 1.395 . S
C3402 C3404 1.320 . S
C3403 C3401 1.339 . S
C3403 C3402 1.395 . S
C3403 H3429 0.929 . S
C3404 C3402 1.320 . S
C3404 C3405 1.405 . S
C3404 H3430 0.930 . S
C3405 C3400 1.479 . S
C3405 C3404 1.405 . S
C3405 H3431 0.931 . S
U3406 O3407 2.454 . S
U3406 O3408 2.458 . S
U3406 C3409 2.984 . S
U3406 C3410 2.847 . S
U3406 C3423 2.882 . S
U3406 O3424 2.441 . S
U3406 O3425 2.420 . S
U3406 O3426 2.455 . S
U3406 O3427 2.449 . S
O3407 U3406 2.454 . S
O3407 C3409 1.353 . S
O3408 U3406 2.458 . S
O3408 C3409 1.286 . S
C3409 U3406 2.984 . S
C3409 O3407 1.353 . S
C3409 O3408 1.286 . S
C3409 C3411 1.363 . S
C3410 C3400 1.465 . S
C3410 U3406 2.847 . S
C3410 O3424 1.249 . S
C3410 O3425 1.202 . S
C3411 C3409 1.363 . S
C3411 C3413 1.408 . S
C3411 C3416 1.342 . S
C3412 C3413 1.310 . S
C3412 C3415 1.461 . S
C3412 H3432 0.932 . S
C3413 C3411 1.408 . S
C3413 C3412 1.310 . S
C3413 H3433 0.930 . S
C3414 C3415 1.474 . S
C3414 C3416 1.285 . S
C3414 H3434 0.929 . S
C3415 C3412 1.461 . S
C3415 C3414 1.474 . S
C3416 C3411 1.342 . S
C3416 C3414 1.285 . S
C3416 H3435 0.930 . S
C3417 C3420 1.424 . S
C3417 C3422 1.245 . S
C3417 C3423 1.428 . S
C3418 C3421 1.260 . S
C3418 C3422 1.477 . S
C3418 H3436 0.932 . S
C3419 C3420 1.384 . S
C3419 C3421 1.479 . S
C3419 H3437 0.929 . S
C3420 C3417 1.424 . S
C3420 C3419 1.384 . S
C3420 H3438 0.928 . S
C3421 C3418 1.260 . S
C3421 C3419 1.479 . S
C3422 C3417 1.245 . S
C3422 C3418 1.477 . S
C3422 H3439 0.932 . S
C3423 U3406 2.882 . S
C3423 C3417 1.428 . S
C3423 O3426 1.301 . S
C3423 O3427 1.282 . S
O3424 U3406 2.441 . S
O3424 C3410 1.249 . S
O3425 U3406 2.420 . S
O3425 C3410 1.202 . S
O3426 U3406 2.455 . S
O3426 C3423 1.301 . S
O3427 U3406 2.449 . S
O3427 C3423 1.282 . S
H3428 C3401 0.931 . S
H3429 C3403 0.929 . S
H3430 C3404 0.930 . S
H3431 C3405 0.931 . S
H3432 C3412 0.932 . S
H3433 C3413 0.930 . S
H3434 C3414 0.929 . S
H3435 C3416 0.930 . S
H3436 C3418 0.932 . S
H3437 C3419 0.929 . S
H3438 C3420 0.928 . S
H3439 C3422 0.932 . S
C3440 C3441 1.264 . S
C3440 C3445 1.479 . S
C3440 C3450 1.465 . S
C3441 C3440 1.264 . S
C3441 C3443 1.339 . S
C3441 H3468 0.931 . S
C3442 C3443 1.395 . S
C3442 C3444 1.320 . S
C3443 C3441 1.339 . S
C3443 C3442 1.395 . S
C3443 H3469 0.929 . S
C3444 C3442 1.320 . S
C3444 C3445 1.405 . S
C3444 H3470 0.930 . S
C3445 C3440 1.479 . S
C3445 C3444 1.405 . S
C3445 H3471 0.931 . S
U3446 O3447 2.454 . S
U3446 O3448 2.458 . S
U3446 C3449 2.984 . S
U3446 C3450 2.847 . S
U3446 C3463 2.882 . S
U3446 O3464 2.441 . S
U3446 O3465 2.420 . S
U3446 O3466 2.455 . S
U3446 O3467 2.449 . S
O3447 U3446 2.454 . S
O3447 C3449 1.353 . S
O3448 U3446 2.458 . S
O3448 C3449 1.286 . S
C3449 U3446 2.984 . S
C3449 O3447 1.353 . S
C3449 O3448 1.286 . S
C3449 C3451 1.363 . S
C3450 C3440 1.465 . S
C3450 U3446 2.847 . S
C3450 O3464 1.249 . S
C3450 O3465 1.202 . S
C3451 C3449 1.363 . S
C3451 C3453 1.408 . S
C3451 C3456 1.342 . S
C3452 C3453 1.310 . S
C3452 C3455 1.461 . S
C3452 H3472 0.932 . S
C3453 C3451 1.408 . S
C3453 C3452 1.310 . S
C3453 H3473 0.930 . S
C3454 C3455 1.474 . S
C3454 C3456 1.285 . S
C3454 H3474 0.929 . S
C3455 C3452 1.461 . S
C3455 C3454 1.474 . S
C3456 C3451 1.342 . S
C3456 C3454 1.285 . S
C3456 H3475 0.930 . S
C3457 C3460 1.424 . S
C3457 C3462 1.245 . S
C3457 C3463 1.428 . S
C3458 C3461 1.260 . S
C3458 C3462 1.477 . S
C3458 H3476 0.932 . S
C3459 C3460 1.384 . S
C3459 C3461 1.479 . S
C3459 H3477 0.929 . S
C3460 C3457 1.424 . S
C3460 C3459 1.384 . S
C3460 H3478 0.928 . S
C3461 C3458 1.260 . S
C3461 C3459 1.479 . S
C3462 C3457 1.245 . S
C3462 C3458 1.477 . S
C3462 H3479 0.932 . S
C3463 U3446 2.882 . S
C3463 C3457 1.428 . S
C3463 O3466 1.301 . S
C3463 O3467 1.282 . S
O3464 U3446 2.441 . S
O3464 C3450 1.249 . S
O3465 U3446 2.420 . S
O3465 C3450 1.202 . S
O3466 U3446 2.455 . S
O3466 C3463 1.301 . S
O3467 U3446 2.449 . S
O3467 C3463 1.282 . S
H3468 C3441 0.931 . S
H3469 C3443 0.929 . S
H3470 C3444 0.930 . S
H3471 C3445 0.931 . S
H3472 C3452 0.932 . S
H3473 C3453 0.930 . S
H3474 C3454 0.929 . S
H3475 C3456 0.930 . S
H3476 C3458 0.932 . S
H3477 C3459 0.929 . S
H3478 C3460 0.928 . S
H3479 C3462 0.932 . S
C3480 C3481 1.264 . S
C3480 C3485 1.479 . S
C3480 C3490 1.465 . S
C3481 C3480 1.264 . S
C3481 C3483 1.339 . S
C3481 H3508 0.931 . S
C3482 C3483 1.395 . S
C3482 C3484 1.320 . S
C3483 C3481 1.339 . S
C3483 C3482 1.395 . S
C3483 H3509 0.929 . S
C3484 C3482 1.320 . S
C3484 C3485 1.405 . S
C3484 H3510 0.930 . S
C3485 C3480 1.479 . S
C3485 C3484 1.405 . S
C3485 H3511 0.931 . S
U3486 O3487 2.454 . S
U3486 O3488 2.458 . S
U3486 C3489 2.984 . S
U3486 C3490 2.847 . S
U3486 C3503 2.882 . S
U3486 O3504 2.441 . S
U3486 O3505 2.420 . S
U3486 O3506 2.455 . S
U3486 O3507 2.449 . S
O3487 U3486 2.454 . S
O3487 C3489 1.353 . S
O3488 U3486 2.458 . S
O3488 C3489 1.286 . S
C3489 U3486 2.984 . S
C3489 O3487 1.353 . S
C3489 O3488 1.286 . S
C3489 C3491 1.363 . S
C3490 C3480 1.465 . S
C3490 U3486 2.847 . S
C3490 O3504 1.249 . S
C3490 O3505 1.202 . S
C3491 C3489 1.363 . S
C3491 C3493 1.408 . S
C3491 C3496 1.342 . S
C3492 C3493 1.310 . S
C3492 C3495 1.461 . S
C3492 H3512 0.932 . S
C3493 C3491 1.408 . S
C3493 C3492 1.310 . S
C3493 H3513 0.930 . S
C3494 C3495 1.474 . S
C3494 C3496 1.285 . S
C3494 H3514 0.929 . S
C3495 C3492 1.461 . S
C3495 C3494 1.474 . S
C3496 C3491 1.342 . S
C3496 C3494 1.285 . S
C3496 H3515 0.930 . S
C3497 C3500 1.424 . S
C3497 C3502 1.245 . S
C3497 C3503 1.428 . S
C3498 C3501 1.260 . S
C3498 C3502 1.477 . S
C3498 H3516 0.932 . S
C3499 C3500 1.384 . S
C3499 C3501 1.479 . S
C3499 H3517 0.929 . S
C3500 C3497 1.424 . S
C3500 C3499 1.384 . S
C3500 H3518 0.928 . S
C3501 C3498 1.260 . S
C3501 C3499 1.479 . S
C3502 C3497 1.245 . S
C3502 C3498 1.477 . S
C3502 H3519 0.932 . S
C3503 U3486 2.882 . S
C3503 C3497 1.428 . S
C3503 O3506 1.301 . S
C3503 O3507 1.282 . S
O3504 U3486 2.441 . S
O3504 C3490 1.249 . S
O3505 U3486 2.420 . S
O3505 C3490 1.202 . S
O3506 U3486 2.455 . S
O3506 C3503 1.301 . S
O3507 U3486 2.449 . S
O3507 C3503 1.282 . S
H3508 C3481 0.931 . S
H3509 C3483 0.929 . S
H3510 C3484 0.930 . S
H3511 C3485 0.931 . S
H3512 C3492 0.932 . S
H3513 C3493 0.930 . S
H3514 C3494 0.929 . S
H3515 C3496 0.930 . S
H3516 C3498 0.932 . S
H3517 C3499 0.929 . S
H3518 C3500 0.928 . S
H3519 C3502 0.932 . S
C3520 C3521 1.264 . S
C3520 C3525 1.479 . S
C3520 C3530 1.465 . S
C3521 C3520 1.264 . S
C3521 C3523 1.339 . S
C3521 H3548 0.931 . S
C3522 C3523 1.395 . S
C3522 C3524 1.320 . S
C3523 C3521 1.339 . S
C3523 C3522 1.395 . S
C3523 H3549 0.929 . S
C3524 C3522 1.320 . S
C3524 C3525 1.405 . S
C3524 H3550 0.930 . S
C3525 C3520 1.479 . S
C3525 C3524 1.405 . S
C3525 H3551 0.931 . S
U3526 O3527 2.454 . S
U3526 O3528 2.458 . S
U3526 C3529 2.984 . S
U3526 C3530 2.847 . S
U3526 C3543 2.882 . S
U3526 O3544 2.441 . S
U3526 O3545 2.420 . S
U3526 O3546 2.455 . S
U3526 O3547 2.449 . S
O3527 U3526 2.454 . S
O3527 C3529 1.353 . S
O3528 U3526 2.458 . S
O3528 C3529 1.286 . S
C3529 U3526 2.984 . S
C3529 O3527 1.353 . S
C3529 O3528 1.286 . S
C3529 C3531 1.363 . S
C3530 C3520 1.465 . S
C3530 U3526 2.847 . S
C3530 O3544 1.249 . S
C3530 O3545 1.202 . S
C3531 C3529 1.363 . S
C3531 C3533 1.408 . S
C3531 C3536 1.342 . S
C3532 C3533 1.310 . S
C3532 C3535 1.461 . S
C3532 H3552 0.932 . S
C3533 C3531 1.408 . S
C3533 C3532 1.310 . S
C3533 H3553 0.930 . S
C3534 C3535 1.474 . S
C3534 C3536 1.285 . S
C3534 H3554 0.929 . S
C3535 C3532 1.461 . S
C3535 C3534 1.474 . S
C3536 C3531 1.342 . S
C3536 C3534 1.285 . S
C3536 H3555 0.930 . S
C3537 C3540 1.424 . S
C3537 C3542 1.245 . S
C3537 C3543 1.428 . S
C3538 C3541 1.260 . S
C3538 C3542 1.477 . S
C3538 H3556 0.932 . S
C3539 C3540 1.384 . S
C3539 C3541 1.479 . S
C3539 H3557 0.929 . S
C3540 C3537 1.424 . S
C3540 C3539 1.384 . S
C3540 H3558 0.928 . S
C3541 C3538 1.260 . S
C3541 C3539 1.479 . S
C3542 C3537 1.245 . S
C3542 C3538 1.477 . S
C3542 H3559 0.932 . S
C3543 U3526 2.882 . S
C3543 C3537 1.428 . S
C3543 O3546 1.301 . S
C3543 O3547 1.282 . S
O3544 U3526 2.441 . S
O3544 C3530 1.249 . S
O3545 U3526 2.420 . S
O3545 C3530 1.202 . S
O3546 U3526 2.455 . S
O3546 C3543 1.301 . S
O3547 U3526 2.449 . S
O3547 C3543 1.282 . S
H3548 C3521 0.931 . S
H3549 C3523 0.929 . S
H3550 C3524 0.930 . S
H3551 C3525 0.931 . S
H3552 C3532 0.932 . S
H3553 C3533 0.930 . S
H3554 C3534 0.929 . S
H3555 C3536 0.930 . S
H3556 C3538 0.932 . S
H3557 C3539 0.929 . S
H3558 C3540 0.928 . S
H3559 C3542 0.932 . S
C3560 C3561 1.264 . S
C3560 C3565 1.479 . S
C3560 C3570 1.465 . S
C3561 C3560 1.264 . S
C3561 C3563 1.339 . S
C3561 H3588 0.931 . S
C3562 C3563 1.395 . S
C3562 C3564 1.320 . S
C3563 C3561 1.339 . S
C3563 C3562 1.395 . S
C3563 H3589 0.929 . S
C3564 C3562 1.320 . S
C3564 C3565 1.405 . S
C3564 H3590 0.930 . S
C3565 C3560 1.479 . S
C3565 C3564 1.405 . S
C3565 H3591 0.931 . S
U3566 O3567 2.454 . S
U3566 O3568 2.458 . S
U3566 C3569 2.984 . S
U3566 C3570 2.847 . S
U3566 C3583 2.882 . S
U3566 O3584 2.441 . S
U3566 O3585 2.420 . S
U3566 O3586 2.455 . S
U3566 O3587 2.449 . S
O3567 U3566 2.454 . S
O3567 C3569 1.353 . S
O3568 U3566 2.458 . S
O3568 C3569 1.286 . S
C3569 U3566 2.984 . S
C3569 O3567 1.353 . S
C3569 O3568 1.286 . S
C3569 C3571 1.363 . S
C3570 C3560 1.465 . S
C3570 U3566 2.847 . S
C3570 O3584 1.249 . S
C3570 O3585 1.202 . S
C3571 C3569 1.363 . S
C3571 C3573 1.408 . S
C3571 C3576 1.342 . S
C3572 C3573 1.310 . S
C3572 C3575 1.461 . S
C3572 H3592 0.932 . S
C3573 C3571 1.408 . S
C3573 C3572 1.310 . S
C3573 H3593 0.930 . S
C3574 C3575 1.474 . S
C3574 C3576 1.285 . S
C3574 H3594 0.929 . S
C3575 C3572 1.461 . S
C3575 C3574 1.474 . S
C3576 C3571 1.342 . S
C3576 C3574 1.285 . S
C3576 H3595 0.930 . S
C3577 C3580 1.424 . S
C3577 C3582 1.245 . S
C3577 C3583 1.428 . S
C3578 C3581 1.260 . S
C3578 C3582 1.477 . S
C3578 H3596 0.932 . S
C3579 C3580 1.384 . S
C3579 C3581 1.479 . S
C3579 H3597 0.929 . S
C3580 C3577 1.424 . S
C3580 C3579 1.384 . S
C3580 H3598 0.928 . S
C3581 C3578 1.260 . S
C3581 C3579 1.479 . S
C3582 C3577 1.245 . S
C3582 C3578 1.477 . S
C3582 H3599 0.932 . S
C3583 U3566 2.882 . S
C3583 C3577 1.428 . S
C3583 O3586 1.301 . S
C3583 O3587 1.282 . S
O3584 U3566 2.441 . S
O3584 C3570 1.249 . S
O3585 U3566 2.420 . S
O3585 C3570 1.202 . S
O3586 U3566 2.455 . S
O3586 C3583 1.301 . S
O3587 U3566 2.449 . S
O3587 C3583 1.282 . S
H3588 C3561 0.931 . S
H3589 C3563 0.929 . S
H3590 C3564 0.930 . S
H3591 C3565 0.931 . S
H3592 C3572 0.932 . S
H3593 C3573 0.930 . S
H3594 C3574 0.929 . S
H3595 C3576 0.930 . S
H3596 C3578 0.932 . S
H3597 C3579 0.929 . S
H3598 C3580 0.928 . S
H3599 C3582 0.932 . S
C3600 C3601 1.264 . S
C3600 C3605 1.479 . S
C3600 C3610 1.465 . S
C3601 C3600 1.264 . S
C3601 C3603 1.339 . S
C3601 H3628 0.931 . S
C3602 C3603 1.395 . S
C3602 C3604 1.320 . S
C3603 C3601 1.339 . S
C3603 C3602 1.395 . S
C3603 H3629 0.929 . S
C3604 C3602 1.320 . S
C3604 C3605 1.405 . S
C3604 H3630 0.930 . S
C3605 C3600 1.479 . S
C3605 C3604 1.405 . S
C3605 H3631 0.931 . S
U3606 O3607 2.454 . S
U3606 O3608 2.458 . S
U3606 C3609 2.984 . S
U3606 C3610 2.847 . S
U3606 C3623 2.882 . S
U3606 O3624 2.441 . S
U3606 O3625 2.420 . S
U3606 O3626 2.455 . S
U3606 O3627 2.449 . S
O3607 U3606 2.454 . S
O3607 C3609 1.353 . S
O3608 U3606 2.458 . S
O3608 C3609 1.286 . S
C3609 U3606 2.984 . S
C3609 O3607 1.353 . S
C3609 O3608 1.286 . S
C3609 C3611 1.363 . S
C3610 C3600 1.465 . S
C3610 U3606 2.847 . S
C3610 O3624 1.249 . S
C3610 O3625 1.202 . S
C3611 C3609 1.363 . S
C3611 C3613 1.408 . S
C3611 C3616 1.342 . S
C3612 C3613 1.310 . S
C3612 C3615 1.461 . S
C3612 H3632 0.932 . S
C3613 C3611 1.408 . S
C3613 C3612 1.310 . S
C3613 H3633 0.930 . S
C3614 C3615 1.474 . S
C3614 C3616 1.285 . S
C3614 H3634 0.929 . S
C3615 C3612 1.461 . S
C3615 C3614 1.474 . S
C3616 C3611 1.342 . S
C3616 C3614 1.285 . S
C3616 H3635 0.930 . S
C3617 C3620 1.424 . S
C3617 C3622 1.245 . S
C3617 C3623 1.428 . S
C3618 C3621 1.260 . S
C3618 C3622 1.477 . S
C3618 H3636 0.932 . S
C3619 C3620 1.384 . S
C3619 C3621 1.479 . S
C3619 H3637 0.929 . S
C3620 C3617 1.424 . S
C3620 C3619 1.384 . S
C3620 H3638 0.928 . S
C3621 C3618 1.260 . S
C3621 C3619 1.479 . S
C3622 C3617 1.245 . S
C3622 C3618 1.477 . S
C3622 H3639 0.932 . S
C3623 U3606 2.882 . S
C3623 C3617 1.428 . S
C3623 O3626 1.301 . S
C3623 O3627 1.282 . S
O3624 U3606 2.441 . S
O3624 C3610 1.249 . S
O3625 U3606 2.420 . S
O3625 C3610 1.202 . S
O3626 U3606 2.455 . S
O3626 C3623 1.301 . S
O3627 U3606 2.449 . S
O3627 C3623 1.282 . S
H3628 C3601 0.931 . S
H3629 C3603 0.929 . S
H3630 C3604 0.930 . S
H3631 C3605 0.931 . S
H3632 C3612 0.932 . S
H3633 C3613 0.930 . S
H3634 C3614 0.929 . S
H3635 C3616 0.930 . S
H3636 C3618 0.932 . S
H3637 C3619 0.929 . S
H3638 C3620 0.928 . S
H3639 C3622 0.932 . S
C3640 C3641 1.264 . S
C3640 C3645 1.479 . S
C3640 C3650 1.465 . S
C3641 C3640 1.264 . S
C3641 C3643 1.339 . S
C3641 H3668 0.931 . S
C3642 C3643 1.395 . S
C3642 C3644 1.320 . S
C3643 C3641 1.339 . S
C3643 C3642 1.395 . S
C3643 H3669 0.929 . S
C3644 C3642 1.320 . S
C3644 C3645 1.405 . S
C3644 H3670 0.930 . S
C3645 C3640 1.479 . S
C3645 C3644 1.405 . S
C3645 H3671 0.931 . S
U3646 O3647 2.454 . S
U3646 O3648 2.458 . S
U3646 C3649 2.984 . S
U3646 C3650 2.847 . S
U3646 C3663 2.882 . S
U3646 O3664 2.441 . S
U3646 O3665 2.420 . S
U3646 O3666 2.455 . S
U3646 O3667 2.449 . S
O3647 U3646 2.454 . S
O3647 C3649 1.353 . S
O3648 U3646 2.458 . S
O3648 C3649 1.286 . S
C3649 U3646 2.984 . S
C3649 O3647 1.353 . S
C3649 O3648 1.286 . S
C3649 C3651 1.363 . S
C3650 C3640 1.465 . S
C3650 U3646 2.847 . S
C3650 O3664 1.249 . S
C3650 O3665 1.202 . S
C3651 C3649 1.363 . S
C3651 C3653 1.408 . S
C3651 C3656 1.342 . S
C3652 C3653 1.310 . S
C3652 C3655 1.461 . S
C3652 H3672 0.932 . S
C3653 C3651 1.408 . S
C3653 C3652 1.310 . S
C3653 H3673 0.930 . S
C3654 C3655 1.474 . S
C3654 C3656 1.285 . S
C3654 H3674 0.929 . S
C3655 C3652 1.461 . S
C3655 C3654 1.474 . S
C3656 C3651 1.342 . S
C3656 C3654 1.285 . S
C3656 H3675 0.930 . S
C3657 C3660 1.424 . S
C3657 C3662 1.245 . S
C3657 C3663 1.428 . S
C3658 C3661 1.260 . S
C3658 C3662 1.477 . S
C3658 H3676 0.932 . S
C3659 C3660 1.384 . S
C3659 C3661 1.479 . S
C3659 H3677 0.929 . S
C3660 C3657 1.424 . S
C3660 C3659 1.384 . S
C3660 H3678 0.928 . S
C3661 C3658 1.260 . S
C3661 C3659 1.479 . S
C3662 C3657 1.245 . S
C3662 C3658 1.477 . S
C3662 H3679 0.932 . S
C3663 U3646 2.882 . S
C3663 C3657 1.428 . S
C3663 O3666 1.301 . S
C3663 O3667 1.282 . S
O3664 U3646 2.441 . S
O3664 C3650 1.249 . S
O3665 U3646 2.420 . S
O3665 C3650 1.202 . S
O3666 U3646 2.455 . S
O3666 C3663 1.301 . S
O3667 U3646 2.449 . S
O3667 C3663 1.282 . S
H3668 C3641 0.931 . S
H3669 C3643 0.929 . S
H3670 C3644 0.930 . S
H3671 C3645 0.931 . S
H3672 C3652 0.932 . S
H3673 C3653 0.930 . S
H3674 C3654 0.929 . S
H3675 C3656 0.930 . S
H3676 C3658 0.932 . S
H3677 C3659 0.929 . S
H3678 C3660 0.928 . S
H3679 C3662 0.932 . S
C3680 C3681 1.264 . S
C3680 C3685 1.479 . S
C3680 C3690 1.465 . S
C3681 C3680 1.264 . S
C3681 C3683 1.339 . S
C3681 H3708 0.931 . S
C3682 C3683 1.395 . S
C3682 C3684 1.320 . S
C3683 C3681 1.339 . S
C3683 C3682 1.395 . S
C3683 H3709 0.929 . S
C3684 C3682 1.320 . S
C3684 C3685 1.405 . S
C3684 H3710 0.930 . S
C3685 C3680 1.479 . S
C3685 C3684 1.405 . S
C3685 H3711 0.931 . S
U3686 O3687 2.454 . S
U3686 O3688 2.458 . S
U3686 C3689 2.984 . S
U3686 C3690 2.847 . S
U3686 C3703 2.882 . S
U3686 O3704 2.441 . S
U3686 O3705 2.420 . S
U3686 O3706 2.455 . S
U3686 O3707 2.449 . S
O3687 U3686 2.454 . S
O3687 C3689 1.353 . S
O3688 U3686 2.458 . S
O3688 C3689 1.286 . S
C3689 U3686 2.984 . S
C3689 O3687 1.353 . S
C3689 O3688 1.286 . S
C3689 C3691 1.363 . S
C3690 C3680 1.465 . S
C3690 U3686 2.847 . S
C3690 O3704 1.249 . S
C3690 O3705 1.202 . S
C3691 C3689 1.363 . S
C3691 C3693 1.408 . S
C3691 C3696 1.342 . S
C3692 C3693 1.310 . S
C3692 C3695 1.461 . S
C3692 H3712 0.932 . S
C3693 C3691 1.408 . S
C3693 C3692 1.310 . S
C3693 H3713 0.930 . S
C3694 C3695 1.474 . S
C3694 C3696 1.285 . S
C3694 H3714 0.929 . S
C3695 C3692 1.461 . S
C3695 C3694 1.474 . S
C3696 C3691 1.342 . S
C3696 C3694 1.285 . S
C3696 H3715 0.930 . S
C3697 C3700 1.424 . S
C3697 C3702 1.245 . S
C3697 C3703 1.428 . S
C3698 C3701 1.260 . S
C3698 C3702 1.477 . S
C3698 H3716 0.932 . S
C3699 C3700 1.384 . S
C3699 C3701 1.479 . S
C3699 H3717 0.929 . S
C3700 C3697 1.424 . S
C3700 C3699 1.384 . S
C3700 H3718 0.928 . S
C3701 C3698 1.260 . S
C3701 C3699 1.479 . S
C3702 C3697 1.245 . S
C3702 C3698 1.477 . S
C3702 H3719 0.932 . S
C3703 U3686 2.882 . S
C3703 C3697 1.428 . S
C3703 O3706 1.301 . S
C3703 O3707 1.282 . S
O3704 U3686 2.441 . S
O3704 C3690 1.249 . S
O3705 U3686 2.420 . S
O3705 C3690 1.202 . S
O3706 U3686 2.455 . S
O3706 C3703 1.301 . S
O3707 U3686 2.449 . S
O3707 C3703 1.282 . S
H3708 C3681 0.931 . S
H3709 C3683 0.929 . S
H3710 C3684 0.930 . S
H3711 C3685 0.931 . S
H3712 C3692 0.932 . S
H3713 C3693 0.930 . S
H3714 C3694 0.929 . S
H3715 C3696 0.930 . S
H3716 C3698 0.932 . S
H3717 C3699 0.929 . S
H3718 C3700 0.928 . S
H3719 C3702 0.932 . S
C3720 C3721 1.264 . S
C3720 C3725 1.479 . S
C3720 C3730 1.465 . S
C3721 C3720 1.264 . S
C3721 C3723 1.339 . S
C3721 H3748 0.931 . S
C3722 C3723 1.395 . S
C3722 C3724 1.320 . S
C3723 C3721 1.339 . S
C3723 C3722 1.395 . S
C3723 H3749 0.929 . S
C3724 C3722 1.320 . S
C3724 C3725 1.405 . S
C3724 H3750 0.930 . S
C3725 C3720 1.479 . S
C3725 C3724 1.405 . S
C3725 H3751 0.931 . S
U3726 O3727 2.454 . S
U3726 O3728 2.458 . S
U3726 C3729 2.984 . S
U3726 C3730 2.847 . S
U3726 C3743 2.882 . S
U3726 O3744 2.441 . S
U3726 O3745 2.420 . S
U3726 O3746 2.455 . S
U3726 O3747 2.449 . S
O3727 U3726 2.454 . S
O3727 C3729 1.353 . S
O3728 U3726 2.458 . S
O3728 C3729 1.286 . S
C3729 U3726 2.984 . S
C3729 O3727 1.353 . S
C3729 O3728 1.286 . S
C3729 C3731 1.363 . S
C3730 C3720 1.465 . S
C3730 U3726 2.847 . S
C3730 O3744 1.249 . S
C3730 O3745 1.202 . S
C3731 C3729 1.363 . S
C3731 C3733 1.408 . S
C3731 C3736 1.342 . S
C3732 C3733 1.310 . S
C3732 C3735 1.461 . S
C3732 H3752 0.932 . S
C3733 C3731 1.408 . S
C3733 C3732 1.310 . S
C3733 H3753 0.930 . S
C3734 C3735 1.474 . S
C3734 C3736 1.285 . S
C3734 H3754 0.929 . S
C3735 C3732 1.461 . S
C3735 C3734 1.474 . S
C3736 C3731 1.342 . S
C3736 C3734 1.285 . S
C3736 H3755 0.930 . S
C3737 C3740 1.424 . S
C3737 C3742 1.245 . S
C3737 C3743 1.428 . S
C3738 C3741 1.260 . S
C3738 C3742 1.477 . S
C3738 H3756 0.932 . S
C3739 C3740 1.384 . S
C3739 C3741 1.479 . S
C3739 H3757 0.929 . S
C3740 C3737 1.424 . S
C3740 C3739 1.384 . S
C3740 H3758 0.928 . S
C3741 C3738 1.260 . S
C3741 C3739 1.479 . S
C3742 C3737 1.245 . S
C3742 C3738 1.477 . S
C3742 H3759 0.932 . S
C3743 U3726 2.882 . S
C3743 C3737 1.428 . S
C3743 O3746 1.301 . S
C3743 O3747 1.282 . S
O3744 U3726 2.441 . S
O3744 C3730 1.249 . S
O3745 U3726 2.420 . S
O3745 C3730 1.202 . S
O3746 U3726 2.455 . S
O3746 C3743 1.301 . S
O3747 U3726 2.449 . S
O3747 C3743 1.282 . S
H3748 C3721 0.931 . S
H3749 C3723 0.929 . S
H3750 C3724 0.930 . S
H3751 C3725 0.931 . S
H3752 C3732 0.932 . S
H3753 C3733 0.930 . S
H3754 C3734 0.929 . S
H3755 C3736 0.930 . S
H3756 C3738 0.932 . S
H3757 C3739 0.929 . S
H3758 C3740 0.928 . S
H3759 C3742 0.932 . S
C3760 C3761 1.264 . S
C3760 C3765 1.479 . S
C3760 C3770 1.465 . S
C3761 C3760 1.264 . S
C3761 C3763 1.339 . S
C3761 H3788 0.931 . S
C3762 C3763 1.395 . S
C3762 C3764 1.320 . S
C3763 C3761 1.339 . S
C3763 C3762 1.395 . S
C3763 H3789 0.929 . S
C3764 C3762 1.320 . S
C3764 C3765 1.405 . S
C3764 H3790 0.930 . S
C3765 C3760 1.479 . S
C3765 C3764 1.405 . S
C3765 H3791 0.931 . S
U3766 O3767 2.454 . S
U3766 O3768 2.458 . S
U3766 C3769 2.984 . S
U3766 C3770 2.847 . S
U3766 C3783 2.882 . S
U3766 O3784 2.441 . S
U3766 O3785 2.420 . S
U3766 O3786 2.455 . S
U3766 O3787 2.449 . S
O3767 U3766 2.454 . S
O3767 C3769 1.353 . S
O3768 U3766 2.458 . S
O3768 C3769 1.286 . S
C3769 U3766 2.984 . S
C3769 O3767 1.353 . S
C3769 O3768 1.286 . S
C3769 C3771 1.363 . S
C3770 C3760 1.465 . S
C3770 U3766 2.847 . S
C3770 O3784 1.249 . S
C3770 O3785 1.202 . S
C3771 C3769 1.363 . S
C3771 C3773 1.408 . S
C3771 C3776 1.342 . S
C3772 C3773 1.310 . S
C3772 C3775 1.461 . S
C3772 H3792 0.932 . S
C3773 C3771 1.408 . S
C3773 C3772 1.310 . S
C3773 H3793 0.930 . S
C3774 C3775 1.474 . S
C3774 C3776 1.285 . S
C3774 H3794 0.929 . S
C3775 C3772 1.461 . S
C3775 C3774 1.474 . S
C3776 C3771 1.342 . S
C3776 C3774 1.285 . S
C3776 H3795 0.930 . S
C3777 C3780 1.424 . S
C3777 C3782 1.245 . S
C3777 C3783 1.428 . S
C3778 C3781 1.260 . S
C3778 C3782 1.477 . S
C3778 H3796 0.932 . S
C3779 C3780 1.384 . S
C3779 C3781 1.479 . S
C3779 H3797 0.929 . S
C3780 C3777 1.424 . S
C3780 C3779 1.384 . S
C3780 H3798 0.928 . S
C3781 C3778 1.260 . S
C3781 C3779 1.479 . S
C3782 C3777 1.245 . S
C3782 C3778 1.477 . S
C3782 H3799 0.932 . S
C3783 U3766 2.882 . S
C3783 C3777 1.428 . S
C3783 O3786 1.301 . S
C3783 O3787 1.282 . S
O3784 U3766 2.441 . S
O3784 C3770 1.249 . S
O3785 U3766 2.420 . S
O3785 C3770 1.202 . S
O3786 U3766 2.455 . S
O3786 C3783 1.301 . S
O3787 U3766 2.449 . S
O3787 C3783 1.282 . S
H3788 C3761 0.931 . S
H3789 C3763 0.929 . S
H3790 C3764 0.930 . S
H3791 C3765 0.931 . S
H3792 C3772 0.932 . S
H3793 C3773 0.930 . S
H3794 C3774 0.929 . S
H3795 C3776 0.930 . S
H3796 C3778 0.932 . S
H3797 C3779 0.929 . S
H3798 C3780 0.928 . S
H3799 C3782 0.932 . S
C3800 C3801 1.264 . S
C3800 C3805 1.479 . S
C3800 C3810 1.465 . S
C3801 C3800 1.264 . S
C3801 C3803 1.339 . S
C3801 H3828 0.931 . S
C3802 C3803 1.395 . S
C3802 C3804 1.320 . S
C3803 C3801 1.339 . S
C3803 C3802 1.395 . S
C3803 H3829 0.929 . S
C3804 C3802 1.320 . S
C3804 C3805 1.405 . S
C3804 H3830 0.930 . S
C3805 C3800 1.479 . S
C3805 C3804 1.405 . S
C3805 H3831 0.931 . S
U3806 O3807 2.454 . S
U3806 O3808 2.458 . S
U3806 C3809 2.984 . S
U3806 C3810 2.847 . S
U3806 C3823 2.882 . S
U3806 O3824 2.441 . S
U3806 O3825 2.420 . S
U3806 O3826 2.455 . S
U3806 O3827 2.449 . S
O3807 U3806 2.454 . S
O3807 C3809 1.353 . S
O3808 U3806 2.458 . S
O3808 C3809 1.286 . S
C3809 U3806 2.984 . S
C3809 O3807 1.353 . S
C3809 O3808 1.286 . S
C3809 C3811 1.363 . S
C3810 C3800 1.465 . S
C3810 U3806 2.847 . S
C3810 O3824 1.249 . S
C3810 O3825 1.202 . S
C3811 C3809 1.363 . S
C3811 C3813 1.408 . S
C3811 C3816 1.342 . S
C3812 C3813 1.310 . S
C3812 C3815 1.461 . S
C3812 H3832 0.932 . S
C3813 C3811 1.408 . S
C3813 C3812 1.310 . S
C3813 H3833 0.930 . S
C3814 C3815 1.474 . S
C3814 C3816 1.285 . S
C3814 H3834 0.929 . S
C3815 C3812 1.461 . S
C3815 C3814 1.474 . S
C3816 C3811 1.342 . S
C3816 C3814 1.285 . S
C3816 H3835 0.930 . S
C3817 C3820 1.424 . S
C3817 C3822 1.245 . S
C3817 C3823 1.428 . S
C3818 C3821 1.260 . S
C3818 C3822 1.477 . S
C3818 H3836 0.932 . S
C3819 C3820 1.384 . S
C3819 C3821 1.479 . S
C3819 H3837 0.929 . S
C3820 C3817 1.424 . S
C3820 C3819 1.384 . S
C3820 H3838 0.928 . S
C3821 C3818 1.260 . S
C3821 C3819 1.479 . S
C3822 C3817 1.245 . S
C3822 C3818 1.477 . S
C3822 H3839 0.932 . S
C3823 U3806 2.882 . S
C3823 C3817 1.428 . S
C3823 O3826 1.301 . S
C3823 O3827 1.282 . S
O3824 U3806 2.441 . S
O3824 C3810 1.249 . S
O3825 U3806 2.420 . S
O3825 C3810 1.202 . S
O3826 U3806 2.455 . S
O3826 C3823 1.301 . S
O3827 U3806 2.449 . S
O3827 C3823 1.282 . S
H3828 C3801 0.931 . S
H3829 C3803 0.929 . S
H3830 C3804 0.930 . S
H3831 C3805 0.931 . S
H3832 C3812 0.932 . S
H3833 C3813 0.930 . S
H3834 C3814 0.929 . S
H3835 C3816 0.930 . S
H3836 C3818 0.932 . S
H3837 C3819 0.929 . S
H3838 C3820 0.928 . S
H3839 C3822 0.932 . S
C3840 C3841 1.363 . S
C3840 C3846 1.379 . S
C3840 N3848 1.356 . S
C3841 C3840 1.363 . S
C3841 C3847 1.363 . S
C3842 C3843 1.363 . S
C3842 C3847 1.379 . S
C3842 N3849 1.356 . S
C3843 C3842 1.363 . S
C3843 C3846 1.363 . S
N3844 C3846 1.356 . S
N3844 H3856 0.984 . S
N3844 H3857 0.985 . S
N3845 C3847 1.356 . S
N3845 H3850 0.984 . S
N3845 H3851 0.985 . S
C3846 C3840 1.379 . S
C3846 C3843 1.363 . S
C3846 N3844 1.356 . S
C3847 C3841 1.363 . S
C3847 C3842 1.379 . S
C3847 N3845 1.356 . S
N3848 C3840 1.356 . S
N3848 H3854 0.984 . S
N3848 H3855 0.984 . S
N3849 C3842 1.356 . S
N3849 H3852 0.984 . S
N3849 H3853 0.985 . S
H3850 N3845 0.984 . S
H3851 N3845 0.985 . S
H3852 N3849 0.984 . S
H3853 N3849 0.985 . S
H3854 N3848 0.984 . S
H3855 N3848 0.984 . S
H3856 N3844 0.984 . S
H3857 N3844 0.985 . S
C3858 C3859 1.363 . S
C3858 C3864 1.379 . S
C3858 N3866 1.356 . S
C3859 C3858 1.363 . S
C3859 C3865 1.363 . S
C3860 C3861 1.363 . S
C3860 C3865 1.379 . S
C3860 N3867 1.356 . S
C3861 C3860 1.363 . S
C3861 C3864 1.363 . S
N3862 C3864 1.356 . S
N3862 H3874 0.984 . S
N3862 H3875 0.985 . S
N3863 C3865 1.356 1_455 S
N3863 H3868 0.984 . S
N3863 H3869 0.985 . S
C3864 C3858 1.379 . S
C3864 C3861 1.363 . S
C3864 N3862 1.356 . S
C3865 C3859 1.363 . S
C3865 C3860 1.379 . S
C3865 N3863 1.356 1_655 S
N3866 C3858 1.356 . S
N3866 H3872 0.984 . S
N3866 H3873 0.984 1_655 S
N3867 C3860 1.356 . S
N3867 H3870 0.984 . S
N3867 H3871 0.985 . S
H3868 N3863 0.984 . S
H3869 N3863 0.985 . S
H3870 N3867 0.984 . S
H3871 N3867 0.985 . S
H3872 N3866 0.984 . S
H3873 N3866 0.984 1_455 S
H3874 N3862 0.984 . S
H3875 N3862 0.985 . S
C3876 C3877 1.363 . S
C3876 C3882 1.379 . S
C3876 N3884 1.356 . S
C3877 C3876 1.363 . S
C3877 C3883 1.363 . S
C3878 C3879 1.363 . S
C3878 C3883 1.379 . S
C3878 N3885 1.356 . S
C3879 C3878 1.363 . S
C3879 C3882 1.363 . S
N3880 C3882 1.356 . S
N3880 H3892 0.984 . S
N3880 H3893 0.985 . S
N3881 C3883 1.356 . S
N3881 H3886 0.984 . S
N3881 H3887 0.985 . S
C3882 C3876 1.379 . S
C3882 C3879 1.363 . S
C3882 N3880 1.356 . S
C3883 C3877 1.363 . S
C3883 C3878 1.379 . S
C3883 N3881 1.356 . S
N3884 C3876 1.356 . S
N3884 H3890 0.984 . S
N3884 H3891 0.984 . S
N3885 C3878 1.356 . S
N3885 H3888 0.984 . S
N3885 H3889 0.985 . S
H3886 N3881 0.984 . S
H3887 N3881 0.985 . S
H3888 N3885 0.984 . S
H3889 N3885 0.985 . S
H3890 N3884 0.984 . S
H3891 N3884 0.984 . S
H3892 N3880 0.984 . S
H3893 N3880 0.985 . S
C3894 C3895 1.363 . S
C3894 C3900 1.379 . S
C3894 N3902 1.356 . S
C3895 C3894 1.363 . S
C3895 C3901 1.363 . S
C3896 C3897 1.363 . S
C3896 C3901 1.379 . S
C3896 N3903 1.356 . S
C3897 C3896 1.363 . S
C3897 C3900 1.363 . S
N3898 C3900 1.356 . S
N3898 H3910 0.984 . S
N3898 H3911 0.985 . S
N3899 C3901 1.356 . S
N3899 H3904 0.984 . S
N3899 H3905 0.985 . S
C3900 C3894 1.379 . S
C3900 C3897 1.363 . S
C3900 N3898 1.356 . S
C3901 C3895 1.363 . S
C3901 C3896 1.379 . S
C3901 N3899 1.356 . S
N3902 C3894 1.356 . S
N3902 H3908 0.984 . S
N3902 H3909 0.984 . S
N3903 C3896 1.356 . S
N3903 H3906 0.984 . S
N3903 H3907 0.985 . S
H3904 N3899 0.984 . S
H3905 N3899 0.985 . S
H3906 N3903 0.984 . S
H3907 N3903 0.985 . S
H3908 N3902 0.984 . S
H3909 N3902 0.984 . S
H3910 N3898 0.984 . S
H3911 N3898 0.985 . S
C3912 C3913 1.363 . S
C3912 C3918 1.379 . S
C3912 N3920 1.356 . S
C3913 C3912 1.363 . S
C3913 C3919 1.363 . S
C3914 C3915 1.363 . S
C3914 C3919 1.379 . S
C3914 N3921 1.356 . S
C3915 C3914 1.363 . S
C3915 C3918 1.363 . S
N3916 C3918 1.356 . S
N3916 H3928 0.984 . S
N3916 H3929 0.985 . S
N3917 C3919 1.356 . S
N3917 H3922 0.984 . S
N3917 H3923 0.985 . S
C3918 C3912 1.379 . S
C3918 C3915 1.363 . S
C3918 N3916 1.356 . S
C3919 C3913 1.363 . S
C3919 C3914 1.379 . S
C3919 N3917 1.356 . S
N3920 C3912 1.356 . S
N3920 H3926 0.984 . S
N3920 H3927 0.984 . S
N3921 C3914 1.356 . S
N3921 H3924 0.984 . S
N3921 H3925 0.985 . S
H3922 N3917 0.984 . S
H3923 N3917 0.985 . S
H3924 N3921 0.984 . S
H3925 N3921 0.985 . S
H3926 N3920 0.984 . S
H3927 N3920 0.984 . S
H3928 N3916 0.984 . S
H3929 N3916 0.985 . S
C3930 C3931 1.363 . S
C3930 C3936 1.379 . S
C3930 N3938 1.356 . S
C3931 C3930 1.363 . S
C3931 C3937 1.363 . S
C3932 C3933 1.363 . S
C3932 C3937 1.379 . S
C3932 N3939 1.356 . S
C3933 C3932 1.363 . S
C3933 C3936 1.363 . S
N3934 C3936 1.356 . S
N3934 H3946 0.984 . S
N3934 H3947 0.985 . S
N3935 C3937 1.356 . S
N3935 H3940 0.984 . S
N3935 H3941 0.985 . S
C3936 C3930 1.379 . S
C3936 C3933 1.363 . S
C3936 N3934 1.356 . S
C3937 C3931 1.363 . S
C3937 C3932 1.379 . S
C3937 N3935 1.356 . S
N3938 C3930 1.356 . S
N3938 H3944 0.984 . S
N3938 H3945 0.984 . S
N3939 C3932 1.356 . S
N3939 H3942 0.984 . S
N3939 H3943 0.985 . S
H3940 N3935 0.984 . S
H3941 N3935 0.985 . S
H3942 N3939 0.984 . S
H3943 N3939 0.985 . S
H3944 N3938 0.984 . S
H3945 N3938 0.984 . S
H3946 N3934 0.984 . S
H3947 N3934 0.985 . S
C3948 C3949 1.363 . S
C3948 C3954 1.379 . S
C3948 N3956 1.356 . S
C3949 C3948 1.363 . S
C3949 C3955 1.363 . S
C3950 C3951 1.363 . S
C3950 C3955 1.379 . S
C3950 N3957 1.356 . S
C3951 C3950 1.363 . S
C3951 C3954 1.363 . S
N3952 C3954 1.356 . S
N3952 H3964 0.984 . S
N3952 H3965 0.985 . S
N3953 C3955 1.356 . S
N3953 H3958 0.984 . S
N3953 H3959 0.985 . S
C3954 C3948 1.379 . S
C3954 C3951 1.363 . S
C3954 N3952 1.356 . S
C3955 C3949 1.363 . S
C3955 C3950 1.379 . S
C3955 N3953 1.356 . S
N3956 C3948 1.356 . S
N3956 H3962 0.984 . S
N3956 H3963 0.984 . S
N3957 C3950 1.356 . S
N3957 H3960 0.984 . S
N3957 H3961 0.985 . S
H3958 N3953 0.984 . S
H3959 N3953 0.985 . S
H3960 N3957 0.984 . S
H3961 N3957 0.985 . S
H3962 N3956 0.984 . S
H3963 N3956 0.984 . S
H3964 N3952 0.984 . S
H3965 N3952 0.985 . S
C3966 C3967 1.363 . S
C3966 C3972 1.379 . S
C3966 N3974 1.356 . S
C3967 C3966 1.363 . S
C3967 C3973 1.363 . S
C3968 C3969 1.363 . S
C3968 C3973 1.379 . S
C3968 N3975 1.356 . S
C3969 C3968 1.363 . S
C3969 C3972 1.363 . S
N3970 C3972 1.356 1_455 S
N3970 H3982 0.984 . S
N3970 H3983 0.985 . S
N3971 C3973 1.356 . S
N3971 H3976 0.984 . S
N3971 H3977 0.985 . S
C3972 C3966 1.379 . S
C3972 C3969 1.363 . S
C3972 N3970 1.356 1_655 S
C3973 C3967 1.363 . S
C3973 C3968 1.379 . S
C3973 N3971 1.356 . S
N3974 C3966 1.356 . S
N3974 H3980 0.984 . S
N3974 H3981 0.984 . S
N3975 C3968 1.356 . S
N3975 H3978 0.984 . S
N3975 H3979 0.985 . S
H3976 N3971 0.984 . S
H3977 N3971 0.985 . S
H3978 N3975 0.984 . S
H3979 N3975 0.985 . S
H3980 N3974 0.984 . S
H3981 N3974 0.984 . S
H3982 N3970 0.984 . S
H3983 N3970 0.985 . S
C3984 C3985 1.363 . S
C3984 C3990 1.379 . S
C3984 N3992 1.356 . S
C3985 C3984 1.363 . S
C3985 C3991 1.363 . S
C3986 C3987 1.363 . S
C3986 C3991 1.379 . S
C3986 N3993 1.356 . S
C3987 C3986 1.363 . S
C3987 C3990 1.363 . S
N3988 C3990 1.356 . S
N3988 H4000 0.984 . S
N3988 H4001 0.985 . S
N3989 C3991 1.356 . S
N3989 H3994 0.984 . S
N3989 H3995 0.985 . S
C3990 C3984 1.379 . S
C3990 C3987 1.363 . S
C3990 N3988 1.356 . S
C3991 C3985 1.363 . S
C3991 C3986 1.379 . S
C3991 N3989 1.356 . S
N3992 C3984 1.356 . S
N3992 H3998 0.984 . S
N3992 H3999 0.984 . S
N3993 C3986 1.356 . S
N3993 H3996 0.984 . S
N3993 H3997 0.985 . S
H3994 N3989 0.984 . S
H3995 N3989 0.985 . S
H3996 N3993 0.984 . S
H3997 N3993 0.985 . S
H3998 N3992 0.984 . S
H3999 N3992 0.984 . S
H4000 N3988 0.984 . S
H4001 N3988 0.985 . S
C4002 C4003 1.363 . S
C4002 C4008 1.379 . S
C4002 N4010 1.356 . S
C4003 C4002 1.363 . S
C4003 C4009 1.363 . S
C4004 C4005 1.363 . S
C4004 C4009 1.379 . S
C4004 N4011 1.356 . S
C4005 C4004 1.363 . S
C4005 C4008 1.363 . S
N4006 C4008 1.356 . S
N4006 H4018 0.984 . S
N4006 H4019 0.985 . S
N4007 C4009 1.356 . S
N4007 H4012 0.984 . S
N4007 H4013 0.985 . S
C4008 C4002 1.379 . S
C4008 C4005 1.363 . S
C4008 N4006 1.356 . S
C4009 C4003 1.363 . S
C4009 C4004 1.379 . S
C4009 N4007 1.356 . S
N4010 C4002 1.356 . S
N4010 H4016 0.984 . S
N4010 H4017 0.984 . S
N4011 C4004 1.356 . S
N4011 H4014 0.984 . S
N4011 H4015 0.985 . S
H4012 N4007 0.984 . S
H4013 N4007 0.985 . S
H4014 N4011 0.984 . S
H4015 N4011 0.985 . S
H4016 N4010 0.984 . S
H4017 N4010 0.984 . S
H4018 N4006 0.984 . S
H4019 N4006 0.985 . S
C4020 C4021 1.363 . S
C4020 C4026 1.379 . S
C4020 N4028 1.356 . S
C4021 C4020 1.363 . S
C4021 C4027 1.363 . S
C4022 C4023 1.363 . S
C4022 C4027 1.379 . S
C4022 N4029 1.356 . S
C4023 C4022 1.363 . S
C4023 C4026 1.363 . S
N4024 C4026 1.356 . S
N4024 H4036 0.984 . S
N4024 H4037 0.985 . S
N4025 C4027 1.356 . S
N4025 H4030 0.984 . S
N4025 H4031 0.985 . S
C4026 C4020 1.379 . S
C4026 C4023 1.363 . S
C4026 N4024 1.356 . S
C4027 C4021 1.363 . S
C4027 C4022 1.379 . S
C4027 N4025 1.356 . S
N4028 C4020 1.356 . S
N4028 H4034 0.984 . S
N4028 H4035 0.984 . S
N4029 C4022 1.356 . S
N4029 H4032 0.984 . S
N4029 H4033 0.985 . S
H4030 N4025 0.984 . S
H4031 N4025 0.985 . S
H4032 N4029 0.984 . S
H4033 N4029 0.985 . S
H4034 N4028 0.984 . S
H4035 N4028 0.984 . S
H4036 N4024 0.984 . S
H4037 N4024 0.985 . S
C4038 C4039 1.363 . S
C4038 C4044 1.379 . S
C4038 N4046 1.356 1_554 S
C4039 C4038 1.363 . S
C4039 C4045 1.363 . S
C4040 C4041 1.363 . S
C4040 C4045 1.379 . S
C4040 N4047 1.356 . S
C4041 C4040 1.363 . S
C4041 C4044 1.363 . S
N4042 C4044 1.356 . S
N4042 H4054 0.984 . S
N4042 H4055 0.985 . S
N4043 C4045 1.356 . S
N4043 H4048 0.984 1_554 S
N4043 H4049 0.985 . S
C4044 C4038 1.379 . S
C4044 C4041 1.363 . S
C4044 N4042 1.356 . S
C4045 C4039 1.363 . S
C4045 C4040 1.379 . S
C4045 N4043 1.356 . S
N4046 C4038 1.356 1_556 S
N4046 H4052 0.984 . S
N4046 H4053 0.984 . S
N4047 C4040 1.356 . S
N4047 H4050 0.984 . S
N4047 H4051 0.985 . S
H4048 N4043 0.984 1_556 S
H4049 N4043 0.985 . S
H4050 N4047 0.984 . S
H4051 N4047 0.985 . S
H4052 N4046 0.984 . S
H4053 N4046 0.984 . S
H4054 N4042 0.984 . S
H4055 N4042 0.985 . S
C4056 C4057 1.363 . S
C4056 C4062 1.379 . S
C4056 N4064 1.356 . S
C4057 C4056 1.363 . S
C4057 C4063 1.363 . S
C4058 C4059 1.363 . S
C4058 C4063 1.379 . S
C4058 N4065 1.356 . S
C4059 C4058 1.363 . S
C4059 C4062 1.363 . S
N4060 C4062 1.356 . S
N4060 H4072 0.984 . S
N4060 H4073 0.985 . S
N4061 C4063 1.356 . S
N4061 H4066 0.984 . S
N4061 H4067 0.985 . S
C4062 C4056 1.379 . S
C4062 C4059 1.363 . S
C4062 N4060 1.356 . S
C4063 C4057 1.363 . S
C4063 C4058 1.379 . S
C4063 N4061 1.356 . S
N4064 C4056 1.356 . S
N4064 H4070 0.984 . S
N4064 H4071 0.984 . S
N4065 C4058 1.356 . S
N4065 H4068 0.984 . S
N4065 H4069 0.985 . S
H4066 N4061 0.984 . S
H4067 N4061 0.985 . S
H4068 N4065 0.984 . S
H4069 N4065 0.985 . S
H4070 N4064 0.984 . S
H4071 N4064 0.984 . S
H4072 N4060 0.984 . S
H4073 N4060 0.985 . S
C4074 C4075 1.363 . S
C4074 C4080 1.379 . S
C4074 N4082 1.356 . S
C4075 C4074 1.363 . S
C4075 C4081 1.363 . S
C4076 C4077 1.363 . S
C4076 C4081 1.379 . S
C4076 N4083 1.356 . S
C4077 C4076 1.363 . S
C4077 C4080 1.363 . S
N4078 C4080 1.356 . S
N4078 H4090 0.984 . S
N4078 H4091 0.985 . S
N4079 C4081 1.356 . S
N4079 H4084 0.984 . S
N4079 H4085 0.985 . S
C4080 C4074 1.379 . S
C4080 C4077 1.363 . S
C4080 N4078 1.356 . S
C4081 C4075 1.363 . S
C4081 C4076 1.379 . S
C4081 N4079 1.356 . S
N4082 C4074 1.356 . S
N4082 H4088 0.984 . S
N4082 H4089 0.984 . S
N4083 C4076 1.356 . S
N4083 H4086 0.984 . S
N4083 H4087 0.985 . S
H4084 N4079 0.984 . S
H4085 N4079 0.985 . S
H4086 N4083 0.984 . S
H4087 N4083 0.985 . S
H4088 N4082 0.984 . S
H4089 N4082 0.984 . S
H4090 N4078 0.984 . S
H4091 N4078 0.985 . S
C4092 C4093 1.363 . S
C4092 C4098 1.379 . S
C4092 N4100 1.356 . S
C4093 C4092 1.363 . S
C4093 C4099 1.363 . S
C4094 C4095 1.363 . S
C4094 C4099 1.379 . S
C4094 N4101 1.356 . S
C4095 C4094 1.363 . S
C4095 C4098 1.363 . S
N4096 C4098 1.356 . S
N4096 H4108 0.984 . S
N4096 H4109 0.985 . S
N4097 C4099 1.356 . S
N4097 H4102 0.984 . S
N4097 H4103 0.985 . S
C4098 C4092 1.379 . S
C4098 C4095 1.363 . S
C4098 N4096 1.356 . S
C4099 C4093 1.363 . S
C4099 C4094 1.379 . S
C4099 N4097 1.356 . S
N4100 C4092 1.356 . S
N4100 H4106 0.984 . S
N4100 H4107 0.984 . S
N4101 C4094 1.356 . S
N4101 H4104 0.984 . S
N4101 H4105 0.985 . S
H4102 N4097 0.984 . S
H4103 N4097 0.985 . S
H4104 N4101 0.984 . S
H4105 N4101 0.985 . S
H4106 N4100 0.984 . S
H4107 N4100 0.984 . S
H4108 N4096 0.984 . S
H4109 N4096 0.985 . S
C4110 C4111 1.363 . S
C4110 C4116 1.379 . S
C4110 N4118 1.356 . S
C4111 C4110 1.363 . S
C4111 C4117 1.363 . S
C4112 C4113 1.363 . S
C4112 C4117 1.379 . S
C4112 N4119 1.356 . S
C4113 C4112 1.363 . S
C4113 C4116 1.363 . S
N4114 C4116 1.356 1_554 S
N4114 H4126 0.984 . S
N4114 H4127 0.985 . S
N4115 C4117 1.356 . S
N4115 H4120 0.984 . S
N4115 H4121 0.985 . S
C4116 C4110 1.379 . S
C4116 C4113 1.363 . S
C4116 N4114 1.356 1_556 S
C4117 C4111 1.363 . S
C4117 C4112 1.379 . S
C4117 N4115 1.356 . S
N4118 C4110 1.356 . S
N4118 H4124 0.984 . S
N4118 H4125 0.984 . S
N4119 C4112 1.356 . S
N4119 H4122 0.984 . S
N4119 H4123 0.985 . S
H4120 N4115 0.984 . S
H4121 N4115 0.985 . S
H4122 N4119 0.984 . S
H4123 N4119 0.985 . S
H4124 N4118 0.984 . S
H4125 N4118 0.984 . S
H4126 N4114 0.984 . S
H4127 N4114 0.985 . S
C4128 C4129 1.363 . S
C4128 C4134 1.379 . S
C4128 N4136 1.356 . S
C4129 C4128 1.363 . S
C4129 C4135 1.363 . S
C4130 C4131 1.363 . S
C4130 C4135 1.379 . S
C4130 N4137 1.356 . S
C4131 C4130 1.363 . S
C4131 C4134 1.363 . S
N4132 C4134 1.356 . S
N4132 H4144 0.984 . S
N4132 H4145 0.985 . S
N4133 C4135 1.356 . S
N4133 H4138 0.984 . S
N4133 H4139 0.985 . S
C4134 C4128 1.379 . S
C4134 C4131 1.363 . S
C4134 N4132 1.356 . S
C4135 C4129 1.363 . S
C4135 C4130 1.379 . S
C4135 N4133 1.356 . S
N4136 C4128 1.356 . S
N4136 H4142 0.984 . S
N4136 H4143 0.984 . S
N4137 C4130 1.356 . S
N4137 H4140 0.984 . S
N4137 H4141 0.985 . S
H4138 N4133 0.984 . S
H4139 N4133 0.985 . S
H4140 N4137 0.984 . S
H4141 N4137 0.985 . S
H4142 N4136 0.984 . S
H4143 N4136 0.984 . S
H4144 N4132 0.984 . S
H4145 N4132 0.985 . S
C4146 C4147 1.363 . S
C4146 C4152 1.379 . S
C4146 N4154 1.356 . S
C4147 C4146 1.363 . S
C4147 C4153 1.363 . S
C4148 C4149 1.363 . S
C4148 C4153 1.379 . S
C4148 N4155 1.356 . S
C4149 C4148 1.363 . S
C4149 C4152 1.363 . S
N4150 C4152 1.356 . S
N4150 H4162 0.984 . S
N4150 H4163 0.985 . S
N4151 C4153 1.356 . S
N4151 H4156 0.984 . S
N4151 H4157 0.985 . S
C4152 C4146 1.379 . S
C4152 C4149 1.363 . S
C4152 N4150 1.356 . S
C4153 C4147 1.363 . S
C4153 C4148 1.379 . S
C4153 N4151 1.356 . S
N4154 C4146 1.356 . S
N4154 H4160 0.984 . S
N4154 H4161 0.984 . S
N4155 C4148 1.356 . S
N4155 H4158 0.984 . S
N4155 H4159 0.985 . S
H4156 N4151 0.984 . S
H4157 N4151 0.985 . S
H4158 N4155 0.984 . S
H4159 N4155 0.985 . S
H4160 N4154 0.984 . S
H4161 N4154 0.984 . S
H4162 N4150 0.984 . S
H4163 N4150 0.985 . S
C4164 C4165 1.363 . S
C4164 C4170 1.379 . S
C4164 N4172 1.356 . S
C4165 C4164 1.363 . S
C4165 C4171 1.363 . S
C4166 C4167 1.363 . S
C4166 C4171 1.379 . S
C4166 N4173 1.356 . S
C4167 C4166 1.363 . S
C4167 C4170 1.363 . S
N4168 C4170 1.356 . S
N4168 H4180 0.984 . S
N4168 H4181 0.985 . S
N4169 C4171 1.356 . S
N4169 H4174 0.984 . S
N4169 H4175 0.985 . S
C4170 C4164 1.379 . S
C4170 C4167 1.363 . S
C4170 N4168 1.356 . S
C4171 C4165 1.363 . S
C4171 C4166 1.379 . S
C4171 N4169 1.356 . S
N4172 C4164 1.356 . S
N4172 H4178 0.984 . S
N4172 H4179 0.984 . S
N4173 C4166 1.356 . S
N4173 H4176 0.984 . S
N4173 H4177 0.985 . S
H4174 N4169 0.984 . S
H4175 N4169 0.985 . S
H4176 N4173 0.984 . S
H4177 N4173 0.985 . S
H4178 N4172 0.984 . S
H4179 N4172 0.984 . S
H4180 N4168 0.984 . S
H4181 N4168 0.985 . S
C4182 C4183 1.363 . S
C4182 C4188 1.379 . S
C4182 N4190 1.356 . S
C4183 C4182 1.363 . S
C4183 C4189 1.363 . S
C4184 C4185 1.363 . S
C4184 C4189 1.379 . S
C4184 N4191 1.356 . S
C4185 C4184 1.363 . S
C4185 C4188 1.363 . S
N4186 C4188 1.356 . S
N4186 H4198 0.984 . S
N4186 H4199 0.985 . S
N4187 C4189 1.356 . S
N4187 H4192 0.984 . S
N4187 H4193 0.985 . S
C4188 C4182 1.379 . S
C4188 C4185 1.363 . S
C4188 N4186 1.356 . S
C4189 C4183 1.363 . S
C4189 C4184 1.379 . S
C4189 N4187 1.356 . S
N4190 C4182 1.356 . S
N4190 H4196 0.984 . S
N4190 H4197 0.984 . S
N4191 C4184 1.356 . S
N4191 H4194 0.984 . S
N4191 H4195 0.985 . S
H4192 N4187 0.984 . S
H4193 N4187 0.985 . S
H4194 N4191 0.984 . S
H4195 N4191 0.985 . S
H4196 N4190 0.984 . S
H4197 N4190 0.984 . S
H4198 N4186 0.984 . S
H4199 N4186 0.985 . S
C4200 C4201 1.363 . S
C4200 C4206 1.379 . S
C4200 N4208 1.356 . S
C4201 C4200 1.363 . S
C4201 C4207 1.363 . S
C4202 C4203 1.363 . S
C4202 C4207 1.379 . S
C4202 N4209 1.356 1_565 S
C4203 C4202 1.363 . S
C4203 C4206 1.363 . S
N4204 C4206 1.356 . S
N4204 H4216 0.984 . S
N4204 H4217 0.985 1_565 S
N4205 C4207 1.356 . S
N4205 H4210 0.984 . S
N4205 H4211 0.985 . S
C4206 C4200 1.379 . S
C4206 C4203 1.363 . S
C4206 N4204 1.356 . S
C4207 C4201 1.363 . S
C4207 C4202 1.379 . S
C4207 N4205 1.356 . S
N4208 C4200 1.356 . S
N4208 H4214 0.984 . S
N4208 H4215 0.984 . S
N4209 C4202 1.356 1_545 S
N4209 H4212 0.984 . S
N4209 H4213 0.995 . S
H4210 N4205 0.984 . S
H4211 N4205 0.985 . S
H4212 N4209 0.984 . S
H4213 N4209 0.995 . S
H4214 N4208 0.984 . S
H4215 N4208 0.984 . S
H4216 N4204 0.984 . S
H4217 N4204 0.985 1_545 S
C4218 C4219 1.363 . S
C4218 C4224 1.379 . S
C4218 N4226 1.356 . S
C4219 C4218 1.363 . S
C4219 C4225 1.363 . S
C4220 C4221 1.363 . S
C4220 C4225 1.379 . S
C4220 N4227 1.356 . S
C4221 C4220 1.363 . S
C4221 C4224 1.363 . S
N4222 C4224 1.356 . S
N4222 H4234 0.984 . S
N4222 H4235 0.985 . S
N4223 C4225 1.356 . S
N4223 H4228 0.984 . S
N4223 H4229 0.985 . S
C4224 C4218 1.379 . S
C4224 C4221 1.363 . S
C4224 N4222 1.356 . S
C4225 C4219 1.363 . S
C4225 C4220 1.379 . S
C4225 N4223 1.356 . S
N4226 C4218 1.356 . S
N4226 H4232 0.984 . S
N4226 H4233 0.984 . S
N4227 C4220 1.356 . S
N4227 H4230 0.984 . S
N4227 H4231 0.985 . S
H4228 N4223 0.984 . S
H4229 N4223 0.985 . S
H4230 N4227 0.984 . S
H4231 N4227 0.985 . S
H4232 N4226 0.984 . S
H4233 N4226 0.984 . S
H4234 N4222 0.984 . S
H4235 N4222 0.985 . S
C4236 C4237 1.363 . S
C4236 C4242 1.379 . S
C4236 N4244 1.356 . S
C4237 C4236 1.363 . S
C4237 C4243 1.363 . S
C4238 C4239 1.363 . S
C4238 C4243 1.379 . S
C4238 N4245 1.356 . S
C4239 C4238 1.363 . S
C4239 C4242 1.363 . S
N4240 C4242 1.356 . S
N4240 H4252 0.984 . S
N4240 H4253 0.985 . S
N4241 C4243 1.356 . S
N4241 H4246 0.984 . S
N4241 H4247 0.985 . S
C4242 C4236 1.379 . S
C4242 C4239 1.363 . S
C4242 N4240 1.356 . S
C4243 C4237 1.363 . S
C4243 C4238 1.379 . S
C4243 N4241 1.356 . S
N4244 C4236 1.356 . S
N4244 H4250 0.984 . S
N4244 H4251 0.984 . S
N4245 C4238 1.356 . S
N4245 H4248 0.984 . S
N4245 H4249 0.985 . S
H4246 N4241 0.984 . S
H4247 N4241 0.985 . S
H4248 N4245 0.984 . S
H4249 N4245 0.985 . S
H4250 N4244 0.984 . S
H4251 N4244 0.984 . S
H4252 N4240 0.984 . S
H4253 N4240 0.985 . S
C4254 C4255 1.363 . S
C4254 C4260 1.379 . S
C4254 N4262 1.356 . S
C4255 C4254 1.363 . S
C4255 C4261 1.363 . S
C4256 C4257 1.363 . S
C4256 C4261 1.379 . S
C4256 N4263 1.356 . S
C4257 C4256 1.363 . S
C4257 C4260 1.363 . S
N4258 C4260 1.356 . S
N4258 H4270 0.984 . S
N4258 H4271 0.985 . S
N4259 C4261 1.356 . S
N4259 H4264 0.984 . S
N4259 H4265 0.985 . S
C4260 C4254 1.379 . S
C4260 C4257 1.363 . S
C4260 N4258 1.356 . S
C4261 C4255 1.363 . S
C4261 C4256 1.379 . S
C4261 N4259 1.356 . S
N4262 C4254 1.356 . S
N4262 H4268 0.984 . S
N4262 H4269 0.984 . S
N4263 C4256 1.356 . S
N4263 H4266 0.984 . S
N4263 H4267 0.985 . S
H4264 N4259 0.984 . S
H4265 N4259 0.985 . S
H4266 N4263 0.984 . S
H4267 N4263 0.985 . S
H4268 N4262 0.984 . S
H4269 N4262 0.984 . S
H4270 N4258 0.984 . S
H4271 N4258 0.985 . S
C4272 C4273 1.363 . S
C4272 C4278 1.379 . S
C4272 N4280 1.356 . S
C4273 C4272 1.363 . S
C4273 C4279 1.363 . S
C4274 C4275 1.363 . S
C4274 C4279 1.379 . S
C4274 N4281 1.356 . S
C4275 C4274 1.363 . S
C4275 C4278 1.363 . S
N4276 C4278 1.356 . S
N4276 H4288 0.984 . S
N4276 H4289 0.985 . S
N4277 C4279 1.356 . S
N4277 H4282 0.984 . S
N4277 H4283 0.985 . S
C4278 C4272 1.379 . S
C4278 C4275 1.363 . S
C4278 N4276 1.356 . S
C4279 C4273 1.363 . S
C4279 C4274 1.379 . S
C4279 N4277 1.356 . S
N4280 C4272 1.356 . S
N4280 H4286 0.984 . S
N4280 H4287 0.984 . S
N4281 C4274 1.356 . S
N4281 H4284 0.984 . S
N4281 H4285 0.985 . S
H4282 N4277 0.984 . S
H4283 N4277 0.985 . S
H4284 N4281 0.984 . S
H4285 N4281 0.985 . S
H4286 N4280 0.984 . S
H4287 N4280 0.984 . S
H4288 N4276 0.984 . S
H4289 N4276 0.985 . S
C4290 C4291 1.363 . S
C4290 C4296 1.379 . S
C4290 N4298 1.356 . S
C4291 C4290 1.363 . S
C4291 C4297 1.363 . S
C4292 C4293 1.363 . S
C4292 C4297 1.379 . S
C4292 N4299 1.356 . S
C4293 C4292 1.363 . S
C4293 C4296 1.363 . S
N4294 C4296 1.356 1_655 S
N4294 H4306 0.984 . S
N4294 H4307 0.985 . S
N4295 C4297 1.356 . S
N4295 H4300 0.984 . S
N4295 H4301 0.985 . S
C4296 C4290 1.379 . S
C4296 C4293 1.363 . S
C4296 N4294 1.356 1_455 S
C4297 C4291 1.363 . S
C4297 C4292 1.379 . S
C4297 N4295 1.356 . S
N4298 C4290 1.356 . S
N4298 H4304 0.984 . S
N4298 H4305 0.984 . S
N4299 C4292 1.356 . S
N4299 H4302 1.022 . S
N4299 H4303 0.985 . S
H4300 N4295 0.984 . S
H4301 N4295 0.985 . S
H4302 N4299 1.022 . S
H4303 N4299 0.985 . S
H4304 N4298 0.984 . S
H4305 N4298 0.984 . S
H4306 N4294 0.984 . S
H4307 N4294 0.985 . S
C4308 C4309 1.363 . S
C4308 C4314 1.379 . S
C4308 N4316 1.356 . S
C4309 C4308 1.363 . S
C4309 C4315 1.363 . S
C4310 C4311 1.363 . S
C4310 C4315 1.379 . S
C4310 N4317 1.356 . S
C4311 C4310 1.363 . S
C4311 C4314 1.363 . S
N4312 C4314 1.356 . S
N4312 H4324 0.984 . S
N4312 H4325 0.985 . S
N4313 C4315 1.356 . S
N4313 H4318 0.984 . S
N4313 H4319 0.985 . S
C4314 C4308 1.379 . S
C4314 C4311 1.363 . S
C4314 N4312 1.356 . S
C4315 C4309 1.363 . S
C4315 C4310 1.379 . S
C4315 N4313 1.356 . S
N4316 C4308 1.356 . S
N4316 H4322 0.984 . S
N4316 H4323 0.984 . S
N4317 C4310 1.356 . S
N4317 H4320 0.984 . S
N4317 H4321 0.985 . S
H4318 N4313 0.984 . S
H4319 N4313 0.985 . S
H4320 N4317 0.984 . S
H4321 N4317 0.985 . S
H4322 N4316 0.984 . S
H4323 N4316 0.984 . S
H4324 N4312 0.984 . S
H4325 N4312 0.985 . S
C4326 C4327 1.363 . S
C4326 C4332 1.379 . S
C4326 N4334 1.356 . S
C4327 C4326 1.363 . S
C4327 C4333 1.363 . S
C4328 C4329 1.363 . S
C4328 C4333 1.379 . S
C4328 N4335 1.356 . S
C4329 C4328 1.363 . S
C4329 C4332 1.363 . S
N4330 C4332 1.356 . S
N4330 H4342 0.984 . S
N4330 H4343 0.985 . S
N4331 C4333 1.356 . S
N4331 H4336 0.984 . S
N4331 H4337 0.985 . S
C4332 C4326 1.379 . S
C4332 C4329 1.363 . S
C4332 N4330 1.356 . S
C4333 C4327 1.363 . S
C4333 C4328 1.379 . S
C4333 N4331 1.356 . S
N4334 C4326 1.356 . S
N4334 H4340 0.984 . S
N4334 H4341 0.984 . S
N4335 C4328 1.356 . S
N4335 H4338 0.984 . S
N4335 H4339 0.985 . S
H4336 N4331 0.984 . S
H4337 N4331 0.985 . S
H4338 N4335 0.984 . S
H4339 N4335 0.985 . S
H4340 N4334 0.984 . S
H4341 N4334 0.984 . S
H4342 N4330 0.984 . S
H4343 N4330 0.985 . S
C4344 C4345 1.363 . S
C4344 C4350 1.379 . S
C4344 N4352 1.356 . S
C4345 C4344 1.363 . S
C4345 C4351 1.363 . S
C4346 C4347 1.363 . S
C4346 C4351 1.379 . S
C4346 N4353 1.356 . S
C4347 C4346 1.363 . S
C4347 C4350 1.363 . S
N4348 C4350 1.356 . S
N4348 H4360 0.984 . S
N4348 H4361 0.985 . S
N4349 C4351 1.356 . S
N4349 H4354 0.984 . S
N4349 H4355 0.985 . S
C4350 C4344 1.379 . S
C4350 C4347 1.363 . S
C4350 N4348 1.356 . S
C4351 C4345 1.363 . S
C4351 C4346 1.379 . S
C4351 N4349 1.356 . S
N4352 C4344 1.356 . S
N4352 H4358 0.984 . S
N4352 H4359 0.984 . S
N4353 C4346 1.356 . S
N4353 H4356 0.984 . S
N4353 H4357 0.985 . S
H4354 N4349 0.984 . S
H4355 N4349 0.985 . S
H4356 N4353 0.984 . S
H4357 N4353 0.985 . S
H4358 N4352 0.984 . S
H4359 N4352 0.984 . S
H4360 N4348 0.984 . S
H4361 N4348 0.985 . S
C4362 C4363 1.363 . S
C4362 C4368 1.379 . S
C4362 N4370 1.356 . S
C4363 C4362 1.363 . S
C4363 C4369 1.363 . S
C4364 C4365 1.363 . S
C4364 C4369 1.379 . S
C4364 N4371 1.356 . S
C4365 C4364 1.363 . S
C4365 C4368 1.363 . S
N4366 C4368 1.356 . S
N4366 H4378 0.984 . S
N4366 H4379 0.985 . S
N4367 C4369 1.356 . S
N4367 H4372 0.984 . S
N4367 H4373 0.985 . S
C4368 C4362 1.379 . S
C4368 C4365 1.363 . S
C4368 N4366 1.356 . S
C4369 C4363 1.363 . S
C4369 C4364 1.379 . S
C4369 N4367 1.356 . S
N4370 C4362 1.356 . S
N4370 H4376 0.984 . S
N4370 H4377 0.984 . S
N4371 C4364 1.356 . S
N4371 H4374 0.984 . S
N4371 H4375 0.985 . S
H4372 N4367 0.984 . S
H4373 N4367 0.985 . S
H4374 N4371 0.984 . S
H4375 N4371 0.985 . S
H4376 N4370 0.984 . S
H4377 N4370 0.984 . S
H4378 N4366 0.984 . S
H4379 N4366 0.985 . S
C4380 C4381 1.363 . S
C4380 C4386 1.379 . S
C4380 N4388 1.356 . S
C4381 C4380 1.363 . S
C4381 C4387 1.363 . S
C4382 C4383 1.363 . S
C4382 C4387 1.379 . S
C4382 N4389 1.356 . S
C4383 C4382 1.363 . S
C4383 C4386 1.363 . S
N4384 C4386 1.356 . S
N4384 H4396 0.984 . S
N4384 H4397 0.985 . S
N4385 C4387 1.356 . S
N4385 H4390 0.984 . S
N4385 H4391 0.985 . S
C4386 C4380 1.379 . S
C4386 C4383 1.363 . S
C4386 N4384 1.356 . S
C4387 C4381 1.363 . S
C4387 C4382 1.379 . S
C4387 N4385 1.356 . S
N4388 C4380 1.356 . S
N4388 H4394 0.984 . S
N4388 H4395 0.984 . S
N4389 C4382 1.356 . S
N4389 H4392 0.984 . S
N4389 H4393 0.985 . S
H4390 N4385 0.984 . S
H4391 N4385 0.985 . S
H4392 N4389 0.984 . S
H4393 N4389 0.985 . S
H4394 N4388 0.984 . S
H4395 N4388 0.984 . S
H4396 N4384 0.984 . S
H4397 N4384 0.985 . S
C4398 C4399 1.363 . S
C4398 C4404 1.379 . S
C4398 N4406 1.356 1_455 S
C4399 C4398 1.363 . S
C4399 C4405 1.363 . S
C4400 C4401 1.363 . S
C4400 C4405 1.379 . S
C4400 N4407 1.356 . S
C4401 C4400 1.363 . S
C4401 C4404 1.363 . S
N4402 C4404 1.356 . S
N4402 H4414 0.984 . S
N4402 H4415 0.985 . S
N4403 C4405 1.356 . S
N4403 H4408 0.987 1_455 S
N4403 H4409 0.985 . S
C4404 C4398 1.379 . S
C4404 C4401 1.363 . S
C4404 N4402 1.356 . S
C4405 C4399 1.363 . S
C4405 C4400 1.379 . S
C4405 N4403 1.356 . S
N4406 C4398 1.356 1_655 S
N4406 H4412 0.984 . S
N4406 H4413 0.984 . S
N4407 C4400 1.356 . S
N4407 H4410 0.984 . S
N4407 H4411 0.985 . S
H4408 N4403 0.987 1_655 S
H4409 N4403 0.985 . S
H4410 N4407 0.984 . S
H4411 N4407 0.985 . S
H4412 N4406 0.984 . S
H4413 N4406 0.984 . S
H4414 N4402 0.984 . S
H4415 N4402 0.985 . S
C4416 C4417 1.363 . S
C4416 C4422 1.379 . S
C4416 N4424 1.356 . S
C4417 C4416 1.363 . S
C4417 C4423 1.363 . S
C4418 C4419 1.363 . S
C4418 C4423 1.379 . S
C4418 N4425 1.356 . S
C4419 C4418 1.363 . S
C4419 C4422 1.363 . S
N4420 C4422 1.356 . S
N4420 H4432 0.984 . S
N4420 H4433 0.985 . S
N4421 C4423 1.356 . S
N4421 H4426 0.984 . S
N4421 H4427 0.985 . S
C4422 C4416 1.379 . S
C4422 C4419 1.363 . S
C4422 N4420 1.356 . S
C4423 C4417 1.363 . S
C4423 C4418 1.379 . S
C4423 N4421 1.356 . S
N4424 C4416 1.356 . S
N4424 H4430 0.984 . S
N4424 H4431 0.984 . S
N4425 C4418 1.356 . S
N4425 H4428 0.984 . S
N4425 H4429 0.985 . S
H4426 N4421 0.984 . S
H4427 N4421 0.985 . S
H4428 N4425 0.984 . S
H4429 N4425 0.985 . S
H4430 N4424 0.984 . S
H4431 N4424 0.984 . S
H4432 N4420 0.984 . S
H4433 N4420 0.985 . S
C4434 C4435 1.363 . S
C4434 C4440 1.379 . S
C4434 N4442 1.356 . S
C4435 C4434 1.363 . S
C4435 C4441 1.363 . S
C4436 C4437 1.363 . S
C4436 C4441 1.379 . S
C4436 N4443 1.356 . S
C4437 C4436 1.363 . S
C4437 C4440 1.363 . S
N4438 C4440 1.356 . S
N4438 H4450 0.984 . S
N4438 H4451 0.985 . S
N4439 C4441 1.356 . S
N4439 H4444 0.984 . S
N4439 H4445 0.985 . S
C4440 C4434 1.379 . S
C4440 C4437 1.363 . S
C4440 N4438 1.356 . S
C4441 C4435 1.363 . S
C4441 C4436 1.379 . S
C4441 N4439 1.356 . S
N4442 C4434 1.356 . S
N4442 H4448 0.984 . S
N4442 H4449 0.984 . S
N4443 C4436 1.356 . S
N4443 H4446 0.984 . S
N4443 H4447 0.985 . S
H4444 N4439 0.984 . S
H4445 N4439 0.985 . S
H4446 N4443 0.984 . S
H4447 N4443 0.985 . S
H4448 N4442 0.984 . S
H4449 N4442 0.984 . S
H4450 N4438 0.984 . S
H4451 N4438 0.985 . S
C4452 C4453 1.363 . S
C4452 C4458 1.379 . S
C4452 N4460 1.356 . S
C4453 C4452 1.363 . S
C4453 C4459 1.363 . S
C4454 C4455 1.363 . S
C4454 C4459 1.379 . S
C4454 N4461 1.356 . S
C4455 C4454 1.363 . S
C4455 C4458 1.363 . S
N4456 C4458 1.356 . S
N4456 H4468 0.984 . S
N4456 H4469 0.985 . S
N4457 C4459 1.356 . S
N4457 H4462 0.984 . S
N4457 H4463 0.985 . S
C4458 C4452 1.379 . S
C4458 C4455 1.363 . S
C4458 N4456 1.356 . S
C4459 C4453 1.363 . S
C4459 C4454 1.379 . S
C4459 N4457 1.356 . S
N4460 C4452 1.356 . S
N4460 H4466 0.984 . S
N4460 H4467 0.984 . S
N4461 C4454 1.356 . S
N4461 H4464 0.984 . S
N4461 H4465 0.985 . S
H4462 N4457 0.984 . S
H4463 N4457 0.985 . S
H4464 N4461 0.984 . S
H4465 N4461 0.985 . S
H4466 N4460 0.984 . S
H4467 N4460 0.984 . S
H4468 N4456 0.984 . S
H4469 N4456 0.985 . S
C4470 C4471 1.363 . S
C4470 C4476 1.379 . S
C4470 N4478 1.356 . S
C4471 C4470 1.363 . S
C4471 C4477 1.363 . S
C4472 C4473 1.363 . S
C4472 C4477 1.379 . S
C4472 N4479 1.356 . S
C4473 C4472 1.363 . S
C4473 C4476 1.363 . S
N4474 C4476 1.356 . S
N4474 H4486 0.984 . S
N4474 H4487 0.985 . S
N4475 C4477 1.356 1_554 S
N4475 H4480 0.984 . S
N4475 H4481 0.985 . S
C4476 C4470 1.379 . S
C4476 C4473 1.363 . S
C4476 N4474 1.356 . S
C4477 C4471 1.363 . S
C4477 C4472 1.379 . S
C4477 N4475 1.356 1_556 S
N4478 C4470 1.356 . S
N4478 H4484 0.984 . S
N4478 H4485 0.984 . S
N4479 C4472 1.356 . S
N4479 H4482 0.984 . S
N4479 H4483 0.985 . S
H4480 N4475 0.984 . S
H4481 N4475 0.985 . S
H4482 N4479 0.984 . S
H4483 N4479 0.985 . S
H4484 N4478 0.984 . S
H4485 N4478 0.984 . S
H4486 N4474 0.984 . S
H4487 N4474 0.985 . S
C4488 C4489 1.363 . S
C4488 C4494 1.379 . S
C4488 N4496 1.356 . S
C4489 C4488 1.363 . S
C4489 C4495 1.363 . S
C4490 C4491 1.363 . S
C4490 C4495 1.379 . S
C4490 N4497 1.356 . S
C4491 C4490 1.363 . S
C4491 C4494 1.363 . S
N4492 C4494 1.356 . S
N4492 H4504 0.984 . S
N4492 H4505 0.985 . S
N4493 C4495 1.356 . S
N4493 H4498 0.984 . S
N4493 H4499 0.985 . S
C4494 C4488 1.379 . S
C4494 C4491 1.363 . S
C4494 N4492 1.356 . S
C4495 C4489 1.363 . S
C4495 C4490 1.379 . S
C4495 N4493 1.356 . S
N4496 C4488 1.356 . S
N4496 H4502 0.984 . S
N4496 H4503 0.984 . S
N4497 C4490 1.356 . S
N4497 H4500 0.984 . S
N4497 H4501 0.985 . S
H4498 N4493 0.984 . S
H4499 N4493 0.985 . S
H4500 N4497 0.984 . S
H4501 N4497 0.985 . S
H4502 N4496 0.984 . S
H4503 N4496 0.984 . S
H4504 N4492 0.984 . S
H4505 N4492 0.985 . S
C4506 C4507 1.363 . S
C4506 C4512 1.379 . S
C4506 N4514 1.356 . S
C4507 C4506 1.363 . S
C4507 C4513 1.363 . S
C4508 C4509 1.363 . S
C4508 C4513 1.379 . S
C4508 N4515 1.356 . S
C4509 C4508 1.363 . S
C4509 C4512 1.363 . S
N4510 C4512 1.356 . S
N4510 H4522 0.984 . S
N4510 H4523 0.985 . S
N4511 C4513 1.356 . S
N4511 H4516 0.984 . S
N4511 H4517 0.985 . S
C4512 C4506 1.379 . S
C4512 C4509 1.363 . S
C4512 N4510 1.356 . S
C4513 C4507 1.363 . S
C4513 C4508 1.379 . S
C4513 N4511 1.356 . S
N4514 C4506 1.356 . S
N4514 H4520 0.984 . S
N4514 H4521 0.984 . S
N4515 C4508 1.356 . S
N4515 H4518 0.984 . S
N4515 H4519 0.985 . S
H4516 N4511 0.984 . S
H4517 N4511 0.985 . S
H4518 N4515 0.984 . S
H4519 N4515 0.985 . S
H4520 N4514 0.984 . S
H4521 N4514 0.984 . S
H4522 N4510 0.984 . S
H4523 N4510 0.985 . S
C4524 C4525 1.363 . S
C4524 C4530 1.379 . S
C4524 N4532 1.356 . S
C4525 C4524 1.363 . S
C4525 C4531 1.363 . S
C4526 C4527 1.363 . S
C4526 C4531 1.379 . S
C4526 N4533 1.356 . S
C4527 C4526 1.363 . S
C4527 C4530 1.363 . S
N4528 C4530 1.356 . S
N4528 H4540 0.984 . S
N4528 H4541 0.985 . S
N4529 C4531 1.356 . S
N4529 H4534 0.984 . S
N4529 H4535 0.985 . S
C4530 C4524 1.379 . S
C4530 C4527 1.363 . S
C4530 N4528 1.356 . S
C4531 C4525 1.363 . S
C4531 C4526 1.379 . S
C4531 N4529 1.356 . S
N4532 C4524 1.356 . S
N4532 H4538 0.984 . S
N4532 H4539 0.984 . S
N4533 C4526 1.356 . S
N4533 H4536 0.984 . S
N4533 H4537 0.985 . S
H4534 N4529 0.984 . S
H4535 N4529 0.985 . S
H4536 N4533 0.984 . S
H4537 N4533 0.985 . S
H4538 N4532 0.984 . S
H4539 N4532 0.984 . S
H4540 N4528 0.984 . S
H4541 N4528 0.985 . S
C4542 C4543 1.363 . S
C4542 C4548 1.379 . S
C4542 N4550 1.356 . S
C4543 C4542 1.363 . S
C4543 C4549 1.363 . S
C4544 C4545 1.363 . S
C4544 C4549 1.379 . S
C4544 N4551 1.356 1_554 S
C4545 C4544 1.363 . S
C4545 C4548 1.363 . S
N4546 C4548 1.356 . S
N4546 H4558 0.984 . S
N4546 H4559 1.081 . S
N4547 C4549 1.356 . S
N4547 H4552 0.984 . S
N4547 H4553 0.985 . S
C4548 C4542 1.379 . S
C4548 C4545 1.363 . S
C4548 N4546 1.356 . S
C4549 C4543 1.363 . S
C4549 C4544 1.379 . S
C4549 N4547 1.356 . S
N4550 C4542 1.356 . S
N4550 H4556 0.984 . S
N4550 H4557 0.984 . S
N4551 C4544 1.356 1_556 S
N4551 H4554 0.984 . S
N4551 H4555 0.985 . S
H4552 N4547 0.984 . S
H4553 N4547 0.985 . S
H4554 N4551 0.984 . S
H4555 N4551 0.985 . S
H4556 N4550 0.984 . S
H4557 N4550 0.984 . S
H4558 N4546 0.984 . S
H4559 N4546 1.081 . S
C4560 C4561 1.363 . S
C4560 C4566 1.379 . S
C4560 N4568 1.356 . S
C4561 C4560 1.363 . S
C4561 C4567 1.363 . S
C4562 C4563 1.363 . S
C4562 C4567 1.379 . S
C4562 N4569 1.356 . S
C4563 C4562 1.363 . S
C4563 C4566 1.363 . S
N4564 C4566 1.356 . S
N4564 H4576 0.984 . S
N4564 H4577 0.985 . S
N4565 C4567 1.356 . S
N4565 H4570 0.984 . S
N4565 H4571 0.985 . S
C4566 C4560 1.379 . S
C4566 C4563 1.363 . S
C4566 N4564 1.356 . S
C4567 C4561 1.363 . S
C4567 C4562 1.379 . S
C4567 N4565 1.356 . S
N4568 C4560 1.356 . S
N4568 H4574 0.984 . S
N4568 H4575 0.984 . S
N4569 C4562 1.356 . S
N4569 H4572 0.984 . S
N4569 H4573 0.985 . S
H4570 N4565 0.984 . S
H4571 N4565 0.985 . S
H4572 N4569 0.984 . S
H4573 N4569 0.985 . S
H4574 N4568 0.984 . S
H4575 N4568 0.984 . S
H4576 N4564 0.984 . S
H4577 N4564 0.985 . S
C4578 C4579 1.363 . S
C4578 C4584 1.379 . S
C4578 N4586 1.356 . S
C4579 C4578 1.363 . S
C4579 C4585 1.363 . S
C4580 C4581 1.363 . S
C4580 C4585 1.379 . S
C4580 N4587 1.356 . S
C4581 C4580 1.363 . S
C4581 C4584 1.363 . S
N4582 C4584 1.356 . S
N4582 H4594 0.984 . S
N4582 H4595 0.985 . S
N4583 C4585 1.356 . S
N4583 H4588 0.984 . S
N4583 H4589 0.985 . S
C4584 C4578 1.379 . S
C4584 C4581 1.363 . S
C4584 N4582 1.356 . S
C4585 C4579 1.363 . S
C4585 C4580 1.379 . S
C4585 N4583 1.356 . S
N4586 C4578 1.356 . S
N4586 H4592 0.984 . S
N4586 H4593 0.984 . S
N4587 C4580 1.356 . S
N4587 H4590 0.984 . S
N4587 H4591 0.985 . S
H4588 N4583 0.984 . S
H4589 N4583 0.985 . S
H4590 N4587 0.984 . S
H4591 N4587 0.985 . S
H4592 N4586 0.984 . S
H4593 N4586 0.984 . S
H4594 N4582 0.984 . S
H4595 N4582 0.985 . S
C4596 C4597 1.363 . S
C4596 C4602 1.379 . S
C4596 N4604 1.356 . S
C4597 C4596 1.363 . S
C4597 C4603 1.363 . S
C4598 C4599 1.363 . S
C4598 C4603 1.379 . S
C4598 N4605 1.356 . S
C4599 C4598 1.363 . S
C4599 C4602 1.363 . S
N4600 C4602 1.356 . S
N4600 H4612 0.984 . S
N4600 H4613 0.985 . S
N4601 C4603 1.356 . S
N4601 H4606 0.984 . S
N4601 H4607 0.985 . S
C4602 C4596 1.379 . S
C4602 C4599 1.363 . S
C4602 N4600 1.356 . S
C4603 C4597 1.363 . S
C4603 C4598 1.379 . S
C4603 N4601 1.356 . S
N4604 C4596 1.356 . S
N4604 H4610 0.984 . S
N4604 H4611 0.984 . S
N4605 C4598 1.356 . S
N4605 H4608 0.984 . S
N4605 H4609 0.985 . S
H4606 N4601 0.984 . S
H4607 N4601 0.985 . S
H4608 N4605 0.984 . S
H4609 N4605 0.985 . S
H4610 N4604 0.984 . S
H4611 N4604 0.984 . S
H4612 N4600 0.984 . S
H4613 N4600 0.985 . S
C4614 C4615 1.363 . S
C4614 C4620 1.379 . S
C4614 N4622 1.356 . S
C4615 C4614 1.363 . S
C4615 C4621 1.363 . S
C4616 C4617 1.363 . S
C4616 C4621 1.379 . S
C4616 N4623 1.356 . S
C4617 C4616 1.363 . S
C4617 C4620 1.363 . S
N4618 C4620 1.356 . S
N4618 H4630 0.984 . S
N4618 H4631 0.985 . S
N4619 C4621 1.356 . S
N4619 H4624 0.984 . S
N4619 H4625 0.985 . S
C4620 C4614 1.379 . S
C4620 C4617 1.363 . S
C4620 N4618 1.356 . S
C4621 C4615 1.363 . S
C4621 C4616 1.379 . S
C4621 N4619 1.356 . S
N4622 C4614 1.356 . S
N4622 H4628 0.984 . S
N4622 H4629 0.984 . S
N4623 C4616 1.356 . S
N4623 H4626 0.984 . S
N4623 H4627 0.985 . S
H4624 N4619 0.984 . S
H4625 N4619 0.985 . S
H4626 N4623 0.984 . S
H4627 N4623 0.985 . S
H4628 N4622 0.984 . S
H4629 N4622 0.984 . S
H4630 N4618 0.984 . S
H4631 N4618 0.985 . S
C4632 C4633 1.363 . S
C4632 C4638 1.379 . S
C4632 N4640 1.356 . S
C4633 C4632 1.363 . S
C4633 C4639 1.363 . S
C4634 C4635 1.363 . S
C4634 C4639 1.379 . S
C4634 N4641 1.356 . S
C4635 C4634 1.363 . S
C4635 C4638 1.363 . S
N4636 C4638 1.356 1_565 S
N4636 H4648 0.984 . S
N4636 H4649 0.985 . S
N4637 C4639 1.356 . S
N4637 H4642 0.984 . S
N4637 H4643 0.985 . S
C4638 C4632 1.379 . S
C4638 C4635 1.363 . S
C4638 N4636 1.356 1_545 S
C4639 C4633 1.363 . S
C4639 C4634 1.379 . S
C4639 N4637 1.356 . S
N4640 C4632 1.356 . S
N4640 H4646 0.984 . S
N4640 H4647 0.984 . S
N4641 C4634 1.356 . S
N4641 H4644 0.984 . S
N4641 H4645 0.985 . S
H4642 N4637 0.984 . S
H4643 N4637 0.985 . S
H4644 N4641 0.984 . S
H4645 N4641 0.985 . S
H4646 N4640 0.984 . S
H4647 N4640 0.984 . S
H4648 N4636 0.984 . S
H4649 N4636 0.985 . S
C4650 C4651 1.363 . S
C4650 C4656 1.379 . S
C4650 N4658 1.356 . S
C4651 C4650 1.363 . S
C4651 C4657 1.363 . S
C4652 C4653 1.363 . S
C4652 C4657 1.379 . S
C4652 N4659 1.356 . S
C4653 C4652 1.363 . S
C4653 C4656 1.363 . S
N4654 C4656 1.356 . S
N4654 H4666 0.984 . S
N4654 H4667 0.985 . S
N4655 C4657 1.356 . S
N4655 H4660 0.984 . S
N4655 H4661 0.985 . S
C4656 C4650 1.379 . S
C4656 C4653 1.363 . S
C4656 N4654 1.356 . S
C4657 C4651 1.363 . S
C4657 C4652 1.379 . S
C4657 N4655 1.356 . S
N4658 C4650 1.356 . S
N4658 H4664 0.984 . S
N4658 H4665 0.984 . S
N4659 C4652 1.356 . S
N4659 H4662 0.984 . S
N4659 H4663 0.985 . S
H4660 N4655 0.984 . S
H4661 N4655 0.985 . S
H4662 N4659 0.984 . S
H4663 N4659 0.985 . S
H4664 N4658 0.984 . S
H4665 N4658 0.984 . S
H4666 N4654 0.984 . S
H4667 N4654 0.985 . S
C4668 C4669 1.363 . S
C4668 C4674 1.379 . S
C4668 N4676 1.356 . S
C4669 C4668 1.363 . S
C4669 C4675 1.363 . S
C4670 C4671 1.363 . S
C4670 C4675 1.379 . S
C4670 N4677 1.356 . S
C4671 C4670 1.363 . S
C4671 C4674 1.363 . S
N4672 C4674 1.356 . S
N4672 H4684 0.984 . S
N4672 H4685 0.985 . S
N4673 C4675 1.356 . S
N4673 H4678 0.984 . S
N4673 H4679 0.985 . S
C4674 C4668 1.379 . S
C4674 C4671 1.363 . S
C4674 N4672 1.356 . S
C4675 C4669 1.363 . S
C4675 C4670 1.379 . S
C4675 N4673 1.356 . S
N4676 C4668 1.356 . S
N4676 H4682 0.984 . S
N4676 H4683 0.984 . S
N4677 C4670 1.356 . S
N4677 H4680 0.984 . S
N4677 H4681 0.985 . S
H4678 N4673 0.984 . S
H4679 N4673 0.985 . S
H4680 N4677 0.984 . S
H4681 N4677 0.985 . S
H4682 N4676 0.984 . S
H4683 N4676 0.984 . S
H4684 N4672 0.984 . S
H4685 N4672 0.985 . S
C4686 C4687 1.363 . S
C4686 C4692 1.379 . S
C4686 N4694 1.356 . S
C4687 C4686 1.363 . S
C4687 C4693 1.363 . S
C4688 C4689 1.363 . S
C4688 C4693 1.379 . S
C4688 N4695 1.356 . S
C4689 C4688 1.363 . S
C4689 C4692 1.363 . S
N4690 C4692 1.356 . S
N4690 H4702 0.984 . S
N4690 H4703 0.985 . S
N4691 C4693 1.356 . S
N4691 H4696 0.984 . S
N4691 H4697 0.985 . S
C4692 C4686 1.379 . S
C4692 C4689 1.363 . S
C4692 N4690 1.356 . S
C4693 C4687 1.363 . S
C4693 C4688 1.379 . S
C4693 N4691 1.356 . S
N4694 C4686 1.356 . S
N4694 H4700 0.984 . S
N4694 H4701 0.984 . S
N4695 C4688 1.356 . S
N4695 H4698 0.984 . S
N4695 H4699 0.985 . S
H4696 N4691 0.984 . S
H4697 N4691 0.985 . S
H4698 N4695 0.984 . S
H4699 N4695 0.985 . S
H4700 N4694 0.984 . S
H4701 N4694 0.984 . S
H4702 N4690 0.984 . S
H4703 N4690 0.985 . S
C4704 C4705 1.363 . S
C4704 C4710 1.379 . S
C4704 N4712 1.356 . S
C4705 C4704 1.363 . S
C4705 C4711 1.363 . S
C4706 C4707 1.363 . S
C4706 C4711 1.379 . S
C4706 N4713 1.356 . S
C4707 C4706 1.363 . S
C4707 C4710 1.363 . S
N4708 C4710 1.356 . S
N4708 H4720 0.984 . S
N4708 H4721 0.985 . S
N4709 C4711 1.356 . S
N4709 H4714 0.984 . S
N4709 H4715 0.985 . S
C4710 C4704 1.379 . S
C4710 C4707 1.363 . S
C4710 N4708 1.356 . S
C4711 C4705 1.363 . S
C4711 C4706 1.379 . S
C4711 N4709 1.356 . S
N4712 C4704 1.356 . S
N4712 H4718 0.984 . S
N4712 H4719 0.984 . S
N4713 C4706 1.356 . S
N4713 H4716 0.984 . S
N4713 H4717 0.985 . S
H4714 N4709 0.984 . S
H4715 N4709 0.985 . S
H4716 N4713 0.984 . S
H4717 N4713 0.985 . S
H4718 N4712 0.984 . S
H4719 N4712 0.984 . S
H4720 N4708 0.984 . S
H4721 N4708 0.985 . S
C4722 C4723 1.363 . S
C4722 C4728 1.379 . S
C4722 N4730 1.356 . S
C4723 C4722 1.363 . S
C4723 C4729 1.363 . S
C4724 C4725 1.363 . S
C4724 C4729 1.379 . S
C4724 N4731 1.356 . S
C4725 C4724 1.363 . S
C4725 C4728 1.363 . S
N4726 C4728 1.356 . S
N4726 H4738 0.984 . S
N4726 H4739 0.985 . S
N4727 C4729 1.356 . S
N4727 H4732 0.984 . S
N4727 H4733 0.985 . S
C4728 C4722 1.379 . S
C4728 C4725 1.363 . S
C4728 N4726 1.356 . S
C4729 C4723 1.363 . S
C4729 C4724 1.379 . S
C4729 N4727 1.356 . S
N4730 C4722 1.356 . S
N4730 H4736 0.984 . S
N4730 H4737 0.984 . S
N4731 C4724 1.356 . S
N4731 H4734 0.984 . S
N4731 H4735 0.985 . S
H4732 N4727 0.984 . S
H4733 N4727 0.985 . S
H4734 N4731 0.984 . S
H4735 N4731 0.985 . S
H4736 N4730 0.984 . S
H4737 N4730 0.984 . S
H4738 N4726 0.984 . S
H4739 N4726 0.985 . S
C4740 C4741 1.363 . S
C4740 C4746 1.379 . S
C4740 N4748 1.356 . S
C4741 C4740 1.363 . S
C4741 C4747 1.363 . S
C4742 C4743 1.363 . S
C4742 C4747 1.379 . S
C4742 N4749 1.356 . S
C4743 C4742 1.363 . S
C4743 C4746 1.363 . S
N4744 C4746 1.356 . S
N4744 H4756 0.984 . S
N4744 H4757 0.985 . S
N4745 C4747 1.356 . S
N4745 H4750 0.984 . S
N4745 H4751 0.985 . S
C4746 C4740 1.379 . S
C4746 C4743 1.363 . S
C4746 N4744 1.356 . S
C4747 C4741 1.363 . S
C4747 C4742 1.379 . S
C4747 N4745 1.356 . S
N4748 C4740 1.356 . S
N4748 H4754 0.984 . S
N4748 H4755 0.984 . S
N4749 C4742 1.356 . S
N4749 H4752 0.984 . S
N4749 H4753 0.985 . S
H4750 N4745 0.984 . S
H4751 N4745 0.985 . S
H4752 N4749 0.984 . S
H4753 N4749 0.985 . S
H4754 N4748 0.984 . S
H4755 N4748 0.984 . S
H4756 N4744 0.984 . S
H4757 N4744 0.985 . S
C4758 C4759 1.363 . S
C4758 C4764 1.379 . S
C4758 N4766 1.356 . S
C4759 C4758 1.363 . S
C4759 C4765 1.363 . S
C4760 C4761 1.363 . S
C4760 C4765 1.379 . S
C4760 N4767 1.356 1_455 S
C4761 C4760 1.363 . S
C4761 C4764 1.363 . S
N4762 C4764 1.356 . S
N4762 H4774 0.984 . S
N4762 H4775 0.985 1_455 S
N4763 C4765 1.356 . S
N4763 H4768 0.984 . S
N4763 H4769 0.985 . S
C4764 C4758 1.379 . S
C4764 C4761 1.363 . S
C4764 N4762 1.356 . S
C4765 C4759 1.363 . S
C4765 C4760 1.379 . S
C4765 N4763 1.356 . S
N4766 C4758 1.356 . S
N4766 H4772 0.984 . S
N4766 H4773 0.984 . S
N4767 C4760 1.356 1_655 S
N4767 H4770 0.984 . S
N4767 H4771 0.985 . S
H4768 N4763 0.984 . S
H4769 N4763 0.985 . S
H4770 N4767 0.984 . S
H4771 N4767 0.985 . S
H4772 N4766 0.984 . S
H4773 N4766 0.984 . S
H4774 N4762 0.984 . S
H4775 N4762 0.985 1_655 S
C4776 C4777 1.363 . S
C4776 C4782 1.379 . S
C4776 N4784 1.356 . S
C4777 C4776 1.363 . S
C4777 C4783 1.363 . S
C4778 C4779 1.363 . S
C4778 C4783 1.379 . S
C4778 N4785 1.356 . S
C4779 C4778 1.363 . S
C4779 C4782 1.363 . S
N4780 C4782 1.356 . S
N4780 H4792 0.984 . S
N4780 H4793 0.985 . S
N4781 C4783 1.356 . S
N4781 H4786 0.984 . S
N4781 H4787 0.985 . S
C4782 C4776 1.379 . S
C4782 C4779 1.363 . S
C4782 N4780 1.356 . S
C4783 C4777 1.363 . S
C4783 C4778 1.379 . S
C4783 N4781 1.356 . S
N4784 C4776 1.356 . S
N4784 H4790 0.984 . S
N4784 H4791 0.984 . S
N4785 C4778 1.356 . S
N4785 H4788 0.984 . S
N4785 H4789 0.985 . S
H4786 N4781 0.984 . S
H4787 N4781 0.985 . S
H4788 N4785 0.984 . S
H4789 N4785 0.985 . S
H4790 N4784 0.984 . S
H4791 N4784 0.984 . S
H4792 N4780 0.984 . S
H4793 N4780 0.985 . S
C4794 C4795 1.363 . S
C4794 C4800 1.379 . S
C4794 N4802 1.356 . S
C4795 C4794 1.363 . S
C4795 C4801 1.363 . S
C4796 C4797 1.363 . S
C4796 C4801 1.379 . S
C4796 N4803 1.356 1_455 S
C4797 C4796 1.363 . S
C4797 C4800 1.363 . S
N4798 C4800 1.356 . S
N4798 H4810 0.984 . S
N4798 H4811 0.985 1_455 S
N4799 C4801 1.356 . S
N4799 H4804 0.984 . S
N4799 H4805 0.985 . S
C4800 C4794 1.379 . S
C4800 C4797 1.363 . S
C4800 N4798 1.356 . S
C4801 C4795 1.363 . S
C4801 C4796 1.379 . S
C4801 N4799 1.356 . S
N4802 C4794 1.356 . S
N4802 H4808 0.984 . S
N4802 H4809 0.984 . S
N4803 C4796 1.356 1_655 S
N4803 H4806 0.984 . S
N4803 H4807 0.985 . S
H4804 N4799 0.984 . S
H4805 N4799 0.985 . S
H4806 N4803 0.984 . S
H4807 N4803 0.985 . S
H4808 N4802 0.984 . S
H4809 N4802 0.984 . S
H4810 N4798 0.984 . S
H4811 N4798 0.985 1_655 S
C4812 C4813 1.363 . S
C4812 C4818 1.379 . S
C4812 N4820 1.356 . S
C4813 C4812 1.363 . S
C4813 C4819 1.363 . S
C4814 C4815 1.363 . S
C4814 C4819 1.379 . S
C4814 N4821 1.356 . S
C4815 C4814 1.363 . S
C4815 C4818 1.363 . S
N4816 C4818 1.356 . S
N4816 H4828 0.984 . S
N4816 H4829 0.985 . S
N4817 C4819 1.356 . S
N4817 H4822 0.984 . S
N4817 H4823 0.985 . S
C4818 C4812 1.379 . S
C4818 C4815 1.363 . S
C4818 N4816 1.356 . S
C4819 C4813 1.363 . S
C4819 C4814 1.379 . S
C4819 N4817 1.356 . S
N4820 C4812 1.356 . S
N4820 H4826 0.984 . S
N4820 H4827 0.984 . S
N4821 C4814 1.356 . S
N4821 H4824 0.984 . S
N4821 H4825 0.985 . S
H4822 N4817 0.984 . S
H4823 N4817 0.985 . S
H4824 N4821 0.984 . S
H4825 N4821 0.985 . S
H4826 N4820 0.984 . S
H4827 N4820 0.984 . S
H4828 N4816 0.984 . S
H4829 N4816 0.985 . S
C4830 C4831 1.363 . S
C4830 C4836 1.379 . S
C4830 N4838 1.356 . S
C4831 C4830 1.363 . S
C4831 C4837 1.363 . S
C4832 C4833 1.363 . S
C4832 C4837 1.379 . S
C4832 N4839 1.356 . S
C4833 C4832 1.363 . S
C4833 C4836 1.363 . S
N4834 C4836 1.356 . S
N4834 H4846 0.984 . S
N4834 H4847 0.985 . S
N4835 C4837 1.356 . S
N4835 H4840 0.984 . S
N4835 H4841 0.985 . S
C4836 C4830 1.379 . S
C4836 C4833 1.363 . S
C4836 N4834 1.356 . S
C4837 C4831 1.363 . S
C4837 C4832 1.379 . S
C4837 N4835 1.356 . S
N4838 C4830 1.356 . S
N4838 H4844 0.984 . S
N4838 H4845 0.984 . S
N4839 C4832 1.356 . S
N4839 H4842 0.984 . S
N4839 H4843 0.985 . S
H4840 N4835 0.984 . S
H4841 N4835 0.985 . S
H4842 N4839 0.984 . S
H4843 N4839 0.985 . S
H4844 N4838 0.984 . S
H4845 N4838 0.984 . S
H4846 N4834 0.984 . S
H4847 N4834 0.985 . S
C4848 C4849 1.363 . S
C4848 C4854 1.379 . S
C4848 N4856 1.356 . S
C4849 C4848 1.363 . S
C4849 C4855 1.363 . S
C4850 C4851 1.363 . S
C4850 C4855 1.379 . S
C4850 N4857 1.356 . S
C4851 C4850 1.363 . S
C4851 C4854 1.363 . S
N4852 C4854 1.356 . S
N4852 H4864 0.984 . S
N4852 H4865 0.985 . S
N4853 C4855 1.356 . S
N4853 H4858 0.984 . S
N4853 H4859 0.985 . S
C4854 C4848 1.379 . S
C4854 C4851 1.363 . S
C4854 N4852 1.356 . S
C4855 C4849 1.363 . S
C4855 C4850 1.379 . S
C4855 N4853 1.356 . S
N4856 C4848 1.356 . S
N4856 H4862 0.984 . S
N4856 H4863 0.984 . S
N4857 C4850 1.356 . S
N4857 H4860 0.984 . S
N4857 H4861 0.985 . S
H4858 N4853 0.984 . S
H4859 N4853 0.985 . S
H4860 N4857 0.984 . S
H4861 N4857 0.985 . S
H4862 N4856 0.984 . S
H4863 N4856 0.984 . S
H4864 N4852 0.984 . S
H4865 N4852 0.985 . S
C4866 C4867 1.363 . S
C4866 C4872 1.379 . S
C4866 N4874 1.356 1_554 S
C4867 C4866 1.363 . S
C4867 C4873 1.363 . S
C4868 C4869 1.363 . S
C4868 C4873 1.379 . S
C4868 N4875 1.356 . S
C4869 C4868 1.363 . S
C4869 C4872 1.363 . S
N4870 C4872 1.356 . S
N4870 H4882 0.984 . S
N4870 H4883 0.985 . S
N4871 C4873 1.356 . S
N4871 H4876 0.984 1_554 S
N4871 H4877 0.985 . S
C4872 C4866 1.379 . S
C4872 C4869 1.363 . S
C4872 N4870 1.356 . S
C4873 C4867 1.363 . S
C4873 C4868 1.379 . S
C4873 N4871 1.356 . S
N4874 C4866 1.356 1_556 S
N4874 H4880 0.984 . S
N4874 H4881 0.984 . S
N4875 C4868 1.356 . S
N4875 H4878 0.984 . S
N4875 H4879 0.985 . S
H4876 N4871 0.984 1_556 S
H4877 N4871 0.985 . S
H4878 N4875 0.984 . S
H4879 N4875 0.985 . S
H4880 N4874 0.984 . S
H4881 N4874 0.984 . S
H4882 N4870 0.984 . S
H4883 N4870 0.985 . S
C4884 C4885 1.363 . S
C4884 C4890 1.379 . S
C4884 N4892 1.356 . S
C4885 C4884 1.363 . S
C4885 C4891 1.363 . S
C4886 C4887 1.363 . S
C4886 C4891 1.379 . S
C4886 N4893 1.356 . S
C4887 C4886 1.363 . S
C4887 C4890 1.363 . S
N4888 C4890 1.356 . S
N4888 H4900 0.984 . S
N4888 H4901 0.985 . S
N4889 C4891 1.356 . S
N4889 H4894 0.984 . S
N4889 H4895 0.985 . S
C4890 C4884 1.379 . S
C4890 C4887 1.363 . S
C4890 N4888 1.356 . S
C4891 C4885 1.363 . S
C4891 C4886 1.379 . S
C4891 N4889 1.356 . S
N4892 C4884 1.356 . S
N4892 H4898 0.984 . S
N4892 H4899 0.984 . S
N4893 C4886 1.356 . S
N4893 H4896 0.984 . S
N4893 H4897 0.985 . S
H4894 N4889 0.984 . S
H4895 N4889 0.985 . S
H4896 N4893 0.984 . S
H4897 N4893 0.985 . S
H4898 N4892 0.984 . S
H4899 N4892 0.984 . S
H4900 N4888 0.984 . S
H4901 N4888 0.985 . S
C4902 C4903 1.363 . S
C4902 C4908 1.379 . S
C4902 N4910 1.356 . S
C4903 C4902 1.363 . S
C4903 C4909 1.363 . S
C4904 C4905 1.363 . S
C4904 C4909 1.379 . S
C4904 N4911 1.356 . S
C4905 C4904 1.363 . S
C4905 C4908 1.363 . S
N4906 C4908 1.356 . S
N4906 H4918 0.984 . S
N4906 H4919 0.985 . S
N4907 C4909 1.356 . S
N4907 H4912 0.984 . S
N4907 H4913 0.985 . S
C4908 C4902 1.379 . S
C4908 C4905 1.363 . S
C4908 N4906 1.356 . S
C4909 C4903 1.363 . S
C4909 C4904 1.379 . S
C4909 N4907 1.356 . S
N4910 C4902 1.356 . S
N4910 H4916 0.984 . S
N4910 H4917 0.984 . S
N4911 C4904 1.356 . S
N4911 H4914 0.984 . S
N4911 H4915 0.985 . S
H4912 N4907 0.984 . S
H4913 N4907 0.985 . S
H4914 N4911 0.984 . S
H4915 N4911 0.985 . S
H4916 N4910 0.984 . S
H4917 N4910 0.984 . S
H4918 N4906 0.984 . S
H4919 N4906 0.985 . S
C4920 C4921 1.363 . S
C4920 C4926 1.379 . S
C4920 N4928 1.356 . S
C4921 C4920 1.363 . S
C4921 C4927 1.363 . S
C4922 C4923 1.363 . S
C4922 C4927 1.379 . S
C4922 N4929 1.356 . S
C4923 C4922 1.363 . S
C4923 C4926 1.363 . S
N4924 C4926 1.356 . S
N4924 H4936 0.984 . S
N4924 H4937 0.985 . S
N4925 C4927 1.356 . S
N4925 H4930 0.984 . S
N4925 H4931 0.985 . S
C4926 C4920 1.379 . S
C4926 C4923 1.363 . S
C4926 N4924 1.356 . S
C4927 C4921 1.363 . S
C4927 C4922 1.379 . S
C4927 N4925 1.356 . S
N4928 C4920 1.356 . S
N4928 H4934 0.984 . S
N4928 H4935 0.984 . S
N4929 C4922 1.356 . S
N4929 H4932 0.984 . S
N4929 H4933 0.985 . S
H4930 N4925 0.984 . S
H4931 N4925 0.985 . S
H4932 N4929 0.984 . S
H4933 N4929 0.985 . S
H4934 N4928 0.984 . S
H4935 N4928 0.984 . S
H4936 N4924 0.984 . S
H4937 N4924 0.985 . S
C4938 C4939 1.363 . S
C4938 C4944 1.379 . S
C4938 N4946 1.356 . S
C4939 C4938 1.363 . S
C4939 C4945 1.363 . S
C4940 C4941 1.363 . S
C4940 C4945 1.379 . S
C4940 N4947 1.356 . S
C4941 C4940 1.363 . S
C4941 C4944 1.363 . S
N4942 C4944 1.356 . S
N4942 H4954 0.984 . S
N4942 H4955 0.985 . S
N4943 C4945 1.356 1_554 S
N4943 H4948 0.984 . S
N4943 H4949 0.985 . S
C4944 C4938 1.379 . S
C4944 C4941 1.363 . S
C4944 N4942 1.356 . S
C4945 C4939 1.363 . S
C4945 C4940 1.379 . S
C4945 N4943 1.356 1_556 S
N4946 C4938 1.356 . S
N4946 H4952 0.984 . S
N4946 H4953 0.984 . S
N4947 C4940 1.356 . S
N4947 H4950 0.984 . S
N4947 H4951 0.985 . S
H4948 N4943 0.984 . S
H4949 N4943 0.985 . S
H4950 N4947 0.984 . S
H4951 N4947 0.985 . S
H4952 N4946 0.984 . S
H4953 N4946 0.984 . S
H4954 N4942 0.984 . S
H4955 N4942 0.985 . S
C4956 C4957 1.363 . S
C4956 C4962 1.379 . S
C4956 N4964 1.356 . S
C4957 C4956 1.363 . S
C4957 C4963 1.363 . S
C4958 C4959 1.363 . S
C4958 C4963 1.379 . S
C4958 N4965 1.356 . S
C4959 C4958 1.363 . S
C4959 C4962 1.363 . S
N4960 C4962 1.356 . S
N4960 H4972 0.984 . S
N4960 H4973 0.985 . S
N4961 C4963 1.356 . S
N4961 H4966 0.984 . S
N4961 H4967 0.985 . S
C4962 C4956 1.379 . S
C4962 C4959 1.363 . S
C4962 N4960 1.356 . S
C4963 C4957 1.363 . S
C4963 C4958 1.379 . S
C4963 N4961 1.356 . S
N4964 C4956 1.356 . S
N4964 H4970 0.984 . S
N4964 H4971 0.984 . S
N4965 C4958 1.356 . S
N4965 H4968 0.984 . S
N4965 H4969 0.985 . S
H4966 N4961 0.984 . S
H4967 N4961 0.985 . S
H4968 N4965 0.984 . S
H4969 N4965 0.985 . S
H4970 N4964 0.984 . S
H4971 N4964 0.984 . S
H4972 N4960 0.984 . S
H4973 N4960 0.985 . S
C4974 C4975 1.363 . S
C4974 C4980 1.379 . S
C4974 N4982 1.356 . S
C4975 C4974 1.363 . S
C4975 C4981 1.363 . S
C4976 C4977 1.363 . S
C4976 C4981 1.379 . S
C4976 N4983 1.356 . S
C4977 C4976 1.363 . S
C4977 C4980 1.363 . S
N4978 C4980 1.356 . S
N4978 H4990 0.984 . S
N4978 H4991 0.985 . S
N4979 C4981 1.356 . S
N4979 H4984 0.984 . S
N4979 H4985 0.985 . S
C4980 C4974 1.379 . S
C4980 C4977 1.363 . S
C4980 N4978 1.356 . S
C4981 C4975 1.363 . S
C4981 C4976 1.379 . S
C4981 N4979 1.356 . S
N4982 C4974 1.356 . S
N4982 H4988 0.984 . S
N4982 H4989 0.984 . S
N4983 C4976 1.356 . S
N4983 H4986 0.984 . S
N4983 H4987 0.985 . S
H4984 N4979 0.984 . S
H4985 N4979 0.985 . S
H4986 N4983 0.984 . S
H4987 N4983 0.985 . S
H4988 N4982 0.984 . S
H4989 N4982 0.984 . S
H4990 N4978 0.984 . S
H4991 N4978 0.985 . S
C4992 C4993 1.363 . S
C4992 C4998 1.379 . S
C4992 N5000 1.356 . S
C4993 C4992 1.363 . S
C4993 C4999 1.363 . S
C4994 C4995 1.363 . S
C4994 C4999 1.379 . S
C4994 N5001 1.356 . S
C4995 C4994 1.363 . S
C4995 C4998 1.363 . S
N4996 C4998 1.356 . S
N4996 H5008 0.984 . S
N4996 H5009 0.985 . S
N4997 C4999 1.356 . S
N4997 H5002 0.984 . S
N4997 H5003 0.985 . S
C4998 C4992 1.379 . S
C4998 C4995 1.363 . S
C4998 N4996 1.356 . S
C4999 C4993 1.363 . S
C4999 C4994 1.379 . S
C4999 N4997 1.356 . S
N5000 C4992 1.356 . S
N5000 H5006 0.984 . S
N5000 H5007 0.984 . S
N5001 C4994 1.356 . S
N5001 H5004 0.984 . S
N5001 H5005 0.985 . S
H5002 N4997 0.984 . S
H5003 N4997 0.985 . S
H5004 N5001 0.984 . S
H5005 N5001 0.985 . S
H5006 N5000 0.984 . S
H5007 N5000 0.984 . S
H5008 N4996 0.984 . S
H5009 N4996 0.985 . S
C5010 C5011 1.363 . S
C5010 C5016 1.379 . S
C5010 N5018 1.356 . S
C5011 C5010 1.363 . S
C5011 C5017 1.363 . S
C5012 C5013 1.363 . S
C5012 C5017 1.379 . S
C5012 N5019 1.356 . S
C5013 C5012 1.363 . S
C5013 C5016 1.363 . S
N5014 C5016 1.356 . S
N5014 H5026 0.984 . S
N5014 H5027 0.985 . S
N5015 C5017 1.356 . S
N5015 H5020 0.984 . S
N5015 H5021 0.985 . S
C5016 C5010 1.379 . S
C5016 C5013 1.363 . S
C5016 N5014 1.356 . S
C5017 C5011 1.363 . S
C5017 C5012 1.379 . S
C5017 N5015 1.356 . S
N5018 C5010 1.356 . S
N5018 H5024 0.984 . S
N5018 H5025 0.984 . S
N5019 C5012 1.356 . S
N5019 H5022 0.984 . S
N5019 H5023 0.985 . S
H5020 N5015 0.984 . S
H5021 N5015 0.985 . S
H5022 N5019 0.984 . S
H5023 N5019 0.985 . S
H5024 N5018 0.984 . S
H5025 N5018 0.984 . S
H5026 N5014 0.984 . S
H5027 N5014 0.985 . S
C5028 C5029 1.363 . S
C5028 C5034 1.379 . S
C5028 N5036 1.356 . S
C5029 C5028 1.363 . S
C5029 C5035 1.363 . S
C5030 C5031 1.363 . S
C5030 C5035 1.379 . S
C5030 N5037 1.356 1_545 S
C5031 C5030 1.363 . S
C5031 C5034 1.363 . S
N5032 C5034 1.356 . S
N5032 H5044 0.984 . S
N5032 H5045 0.985 . S
N5033 C5035 1.356 . S
N5033 H5038 0.984 . S
N5033 H5039 0.985 . S
C5034 C5028 1.379 . S
C5034 C5031 1.363 . S
C5034 N5032 1.356 . S
C5035 C5029 1.363 . S
C5035 C5030 1.379 . S
C5035 N5033 1.356 . S
N5036 C5028 1.356 . S
N5036 H5042 0.984 . S
N5036 H5043 0.984 . S
N5037 C5030 1.356 1_565 S
N5037 H5040 0.984 . S
N5037 H5041 0.985 . S
H5038 N5033 0.984 . S
H5039 N5033 0.985 . S
H5040 N5037 0.984 . S
H5041 N5037 0.985 . S
H5042 N5036 0.984 . S
H5043 N5036 0.984 . S
H5044 N5032 0.984 . S
H5045 N5032 0.985 . S
C5046 C5047 1.363 . S
C5046 C5052 1.379 . S
C5046 N5054 1.356 . S
C5047 C5046 1.363 . S
C5047 C5053 1.363 . S
C5048 C5049 1.363 . S
C5048 C5053 1.379 . S
C5048 N5055 1.356 . S
C5049 C5048 1.363 . S
C5049 C5052 1.363 . S
N5050 C5052 1.356 . S
N5050 H5062 0.984 . S
N5050 H5063 0.985 . S
N5051 C5053 1.356 . S
N5051 H5056 0.984 . S
N5051 H5057 0.985 . S
C5052 C5046 1.379 . S
C5052 C5049 1.363 . S
C5052 N5050 1.356 . S
C5053 C5047 1.363 . S
C5053 C5048 1.379 . S
C5053 N5051 1.356 . S
N5054 C5046 1.356 . S
N5054 H5060 0.984 . S
N5054 H5061 0.984 . S
N5055 C5048 1.356 . S
N5055 H5058 0.984 . S
N5055 H5059 0.985 . S
H5056 N5051 0.984 . S
H5057 N5051 0.985 . S
H5058 N5055 0.984 . S
H5059 N5055 0.985 . S
H5060 N5054 0.984 . S
H5061 N5054 0.984 . S
H5062 N5050 0.984 . S
H5063 N5050 0.985 . S
C5064 C5065 1.363 . S
C5064 C5070 1.379 . S
C5064 N5072 1.356 . S
C5065 C5064 1.363 . S
C5065 C5071 1.363 . S
C5066 C5067 1.363 . S
C5066 C5071 1.379 . S
C5066 N5073 1.356 . S
C5067 C5066 1.363 . S
C5067 C5070 1.363 . S
N5068 C5070 1.356 . S
N5068 H5080 0.984 . S
N5068 H5081 0.985 . S
N5069 C5071 1.356 . S
N5069 H5074 0.984 . S
N5069 H5075 0.985 . S
C5070 C5064 1.379 . S
C5070 C5067 1.363 . S
C5070 N5068 1.356 . S
C5071 C5065 1.363 . S
C5071 C5066 1.379 . S
C5071 N5069 1.356 . S
N5072 C5064 1.356 . S
N5072 H5078 0.984 . S
N5072 H5079 0.984 . S
N5073 C5066 1.356 . S
N5073 H5076 0.984 . S
N5073 H5077 0.985 . S
H5074 N5069 0.984 . S
H5075 N5069 0.985 . S
H5076 N5073 0.984 . S
H5077 N5073 0.985 . S
H5078 N5072 0.984 . S
H5079 N5072 0.984 . S
H5080 N5068 0.984 . S
H5081 N5068 0.985 . S
C5082 C5083 1.363 . S
C5082 C5088 1.379 . S
C5082 N5090 1.356 . S
C5083 C5082 1.363 . S
C5083 C5089 1.363 . S
C5084 C5085 1.363 . S
C5084 C5089 1.379 . S
C5084 N5091 1.356 . S
C5085 C5084 1.363 . S
C5085 C5088 1.363 . S
N5086 C5088 1.356 . S
N5086 H5098 0.984 . S
N5086 H5099 0.985 . S
N5087 C5089 1.356 . S
N5087 H5092 0.984 . S
N5087 H5093 0.985 . S
C5088 C5082 1.379 . S
C5088 C5085 1.363 . S
C5088 N5086 1.356 . S
C5089 C5083 1.363 . S
C5089 C5084 1.379 . S
C5089 N5087 1.356 . S
N5090 C5082 1.356 . S
N5090 H5096 0.984 . S
N5090 H5097 0.984 . S
N5091 C5084 1.356 . S
N5091 H5094 0.984 . S
N5091 H5095 0.985 . S
H5092 N5087 0.984 . S
H5093 N5087 0.985 . S
H5094 N5091 0.984 . S
H5095 N5091 0.985 . S
H5096 N5090 0.984 . S
H5097 N5090 0.984 . S
H5098 N5086 0.984 . S
H5099 N5086 0.985 . S
C5100 C5101 1.363 . S
C5100 C5106 1.379 . S
C5100 N5108 1.356 . S
C5101 C5100 1.363 . S
C5101 C5107 1.363 . S
C5102 C5103 1.363 . S
C5102 C5107 1.379 . S
C5102 N5109 1.356 1_565 S
C5103 C5102 1.363 . S
C5103 C5106 1.363 . S
N5104 C5106 1.356 . S
N5104 H5116 0.984 . S
N5104 H5117 0.985 . S
N5105 C5107 1.356 . S
N5105 H5110 0.984 . S
N5105 H5111 0.985 . S
C5106 C5100 1.379 . S
C5106 C5103 1.363 . S
C5106 N5104 1.356 . S
C5107 C5101 1.363 . S
C5107 C5102 1.379 . S
C5107 N5105 1.356 . S
N5108 C5100 1.356 . S
N5108 H5114 0.984 . S
N5108 H5115 0.984 . S
N5109 C5102 1.356 1_545 S
N5109 H5112 0.984 . S
N5109 H5113 0.985 . S
H5110 N5105 0.984 . S
H5111 N5105 0.985 . S
H5112 N5109 0.984 . S
H5113 N5109 0.985 . S
H5114 N5108 0.984 . S
H5115 N5108 0.984 . S
H5116 N5104 0.984 . S
H5117 N5104 0.985 . S
C5118 C5119 1.363 . S
C5118 C5124 1.379 . S
C5118 N5126 1.356 . S
C5119 C5118 1.363 . S
C5119 C5125 1.363 . S
C5120 C5121 1.363 . S
C5120 C5125 1.379 . S
C5120 N5127 1.356 . S
C5121 C5120 1.363 . S
C5121 C5124 1.363 . S
N5122 C5124 1.356 . S
N5122 H5134 0.984 . S
N5122 H5135 0.985 . S
N5123 C5125 1.356 1_565 S
N5123 H5128 0.984 . S
N5123 H5129 0.985 . S
C5124 C5118 1.379 . S
C5124 C5121 1.363 . S
C5124 N5122 1.356 . S
C5125 C5119 1.363 . S
C5125 C5120 1.379 . S
C5125 N5123 1.356 1_545 S
N5126 C5118 1.356 . S
N5126 H5132 0.984 . S
N5126 H5133 0.984 . S
N5127 C5120 1.356 . S
N5127 H5130 0.984 . S
N5127 H5131 0.985 . S
H5128 N5123 0.984 . S
H5129 N5123 0.985 . S
H5130 N5127 0.984 . S
H5131 N5127 0.985 . S
H5132 N5126 0.984 . S
H5133 N5126 0.984 . S
H5134 N5122 0.984 . S
H5135 N5122 0.985 . S
C5136 C5137 1.363 . S
C5136 C5142 1.379 . S
C5136 N5144 1.356 . S
C5137 C5136 1.363 . S
C5137 C5143 1.363 . S
C5138 C5139 1.363 . S
C5138 C5143 1.379 . S
C5138 N5145 1.356 . S
C5139 C5138 1.363 . S
C5139 C5142 1.363 . S
N5140 C5142 1.356 . S
N5140 H5152 0.984 . S
N5140 H5153 0.985 . S
N5141 C5143 1.356 . S
N5141 H5146 0.984 . S
N5141 H5147 0.985 . S
C5142 C5136 1.379 . S
C5142 C5139 1.363 . S
C5142 N5140 1.356 . S
C5143 C5137 1.363 . S
C5143 C5138 1.379 . S
C5143 N5141 1.356 . S
N5144 C5136 1.356 . S
N5144 H5150 0.984 . S
N5144 H5151 0.984 . S
N5145 C5138 1.356 . S
N5145 H5148 0.984 . S
N5145 H5149 0.985 . S
H5146 N5141 0.984 . S
H5147 N5141 0.985 . S
H5148 N5145 0.984 . S
H5149 N5145 0.985 . S
H5150 N5144 0.984 . S
H5151 N5144 0.984 . S
H5152 N5140 0.984 . S
H5153 N5140 0.985 . S
C5154 C5155 1.363 . S
C5154 C5160 1.379 . S
C5154 N5162 1.356 . S
C5155 C5154 1.363 . S
C5155 C5161 1.363 . S
C5156 C5157 1.363 . S
C5156 C5161 1.379 . S
C5156 N5163 1.356 . S
C5157 C5156 1.363 . S
C5157 C5160 1.363 . S
N5158 C5160 1.356 . S
N5158 H5170 0.984 . S
N5158 H5171 0.985 . S
N5159 C5161 1.356 . S
N5159 H5164 0.984 . S
N5159 H5165 0.985 . S
C5160 C5154 1.379 . S
C5160 C5157 1.363 . S
C5160 N5158 1.356 . S
C5161 C5155 1.363 . S
C5161 C5156 1.379 . S
C5161 N5159 1.356 . S
N5162 C5154 1.356 . S
N5162 H5168 0.984 . S
N5162 H5169 0.984 . S
N5163 C5156 1.356 . S
N5163 H5166 0.984 . S
N5163 H5167 0.985 . S
H5164 N5159 0.984 . S
H5165 N5159 0.985 . S
H5166 N5163 0.984 . S
H5167 N5163 0.985 . S
H5168 N5162 0.984 . S
H5169 N5162 0.984 . S
H5170 N5158 0.984 . S
H5171 N5158 0.985 . S
C5172 C5173 1.363 . S
C5172 C5178 1.379 . S
C5172 N5180 1.356 . S
C5173 C5172 1.363 . S
C5173 C5179 1.363 . S
C5174 C5175 1.363 . S
C5174 C5179 1.379 . S
C5174 N5181 1.356 . S
C5175 C5174 1.363 . S
C5175 C5178 1.363 . S
N5176 C5178 1.356 . S
N5176 H5188 0.984 . S
N5176 H5189 0.985 . S
N5177 C5179 1.356 . S
N5177 H5182 0.984 . S
N5177 H5183 0.985 . S
C5178 C5172 1.379 . S
C5178 C5175 1.363 . S
C5178 N5176 1.356 . S
C5179 C5173 1.363 . S
C5179 C5174 1.379 . S
C5179 N5177 1.356 . S
N5180 C5172 1.356 . S
N5180 H5186 0.984 . S
N5180 H5187 0.984 . S
N5181 C5174 1.356 . S
N5181 H5184 0.984 . S
N5181 H5185 0.985 . S
H5182 N5177 0.984 . S
H5183 N5177 0.985 . S
H5184 N5181 0.984 . S
H5185 N5181 0.985 . S
H5186 N5180 0.984 . S
H5187 N5180 0.984 . S
H5188 N5176 0.984 . S
H5189 N5176 0.985 . S
C5190 C5191 1.363 . S
C5190 C5196 1.379 . S
C5190 N5198 1.356 1_655 S
C5191 C5190 1.363 . S
C5191 C5197 1.363 . S
C5192 C5193 1.363 . S
C5192 C5197 1.379 . S
C5192 N5199 1.356 . S
C5193 C5192 1.363 . S
C5193 C5196 1.363 . S
N5194 C5196 1.356 . S
N5194 H5206 0.984 . S
N5194 H5207 0.985 . S
N5195 C5197 1.356 . S
N5195 H5200 0.984 1_655 S
N5195 H5201 0.985 . S
C5196 C5190 1.379 . S
C5196 C5193 1.363 . S
C5196 N5194 1.356 . S
C5197 C5191 1.363 . S
C5197 C5192 1.379 . S
C5197 N5195 1.356 . S
N5198 C5190 1.356 1_455 S
N5198 H5204 0.984 . S
N5198 H5205 0.984 . S
N5199 C5192 1.356 . S
N5199 H5202 0.984 . S
N5199 H5203 0.985 . S
H5200 N5195 0.984 1_455 S
H5201 N5195 0.985 . S
H5202 N5199 0.984 . S
H5203 N5199 0.985 . S
H5204 N5198 0.984 . S
H5205 N5198 0.984 . S
H5206 N5194 0.984 . S
H5207 N5194 0.985 . S
C5208 C5209 1.363 . S
C5208 C5214 1.379 . S
C5208 N5216 1.356 . S
C5209 C5208 1.363 . S
C5209 C5215 1.363 . S
C5210 C5211 1.363 . S
C5210 C5215 1.379 . S
C5210 N5217 1.356 . S
C5211 C5210 1.363 . S
C5211 C5214 1.363 . S
N5212 C5214 1.356 . S
N5212 H5224 0.984 . S
N5212 H5225 0.985 . S
N5213 C5215 1.356 . S
N5213 H5218 0.984 . S
N5213 H5219 0.985 . S
C5214 C5208 1.379 . S
C5214 C5211 1.363 . S
C5214 N5212 1.356 . S
C5215 C5209 1.363 . S
C5215 C5210 1.379 . S
C5215 N5213 1.356 . S
N5216 C5208 1.356 . S
N5216 H5222 0.984 . S
N5216 H5223 0.984 . S
N5217 C5210 1.356 . S
N5217 H5220 0.984 . S
N5217 H5221 0.985 . S
H5218 N5213 0.984 . S
H5219 N5213 0.985 . S
H5220 N5217 0.984 . S
H5221 N5217 0.985 . S
H5222 N5216 0.984 . S
H5223 N5216 0.984 . S
H5224 N5212 0.984 . S
H5225 N5212 0.985 . S
C5226 C5227 1.363 . S
C5226 C5232 1.379 . S
C5226 N5234 1.356 . S
C5227 C5226 1.363 . S
C5227 C5233 1.363 . S
C5228 C5229 1.363 . S
C5228 C5233 1.379 . S
C5228 N5235 1.356 . S
C5229 C5228 1.363 . S
C5229 C5232 1.363 . S
N5230 C5232 1.356 . S
N5230 H5242 0.984 . S
N5230 H5243 0.985 . S
N5231 C5233 1.356 1_455 S
N5231 H5236 0.984 . S
N5231 H5237 0.985 . S
C5232 C5226 1.379 . S
C5232 C5229 1.363 . S
C5232 N5230 1.356 . S
C5233 C5227 1.363 . S
C5233 C5228 1.379 . S
C5233 N5231 1.356 1_655 S
N5234 C5226 1.356 . S
N5234 H5240 0.984 . S
N5234 H5241 0.943 1_655 S
N5235 C5228 1.356 . S
N5235 H5238 0.984 . S
N5235 H5239 0.985 . S
H5236 N5231 0.984 . S
H5237 N5231 0.985 . S
H5238 N5235 0.984 . S
H5239 N5235 0.985 . S
H5240 N5234 0.984 . S
H5241 N5234 0.943 1_455 S
H5242 N5230 0.984 . S
H5243 N5230 0.985 . S
C5244 C5245 1.363 . S
C5244 C5250 1.379 . S
C5244 N5252 1.356 . S
C5245 C5244 1.363 . S
C5245 C5251 1.363 . S
C5246 C5247 1.363 . S
C5246 C5251 1.379 . S
C5246 N5253 1.356 . S
C5247 C5246 1.363 . S
C5247 C5250 1.363 . S
N5248 C5250 1.356 . S
N5248 H5260 0.984 . S
N5248 H5261 0.985 . S
N5249 C5251 1.356 . S
N5249 H5254 0.984 . S
N5249 H5255 0.985 . S
C5250 C5244 1.379 . S
C5250 C5247 1.363 . S
C5250 N5248 1.356 . S
C5251 C5245 1.363 . S
C5251 C5246 1.379 . S
C5251 N5249 1.356 . S
N5252 C5244 1.356 . S
N5252 H5258 0.984 . S
N5252 H5259 0.984 . S
N5253 C5246 1.356 . S
N5253 H5256 0.984 . S
N5253 H5257 0.985 . S
H5254 N5249 0.984 . S
H5255 N5249 0.985 . S
H5256 N5253 0.984 . S
H5257 N5253 0.985 . S
H5258 N5252 0.984 . S
H5259 N5252 0.984 . S
H5260 N5248 0.984 . S
H5261 N5248 0.985 . S
C5262 C5263 1.363 . S
C5262 C5268 1.379 . S
C5262 N5270 1.356 . S
C5263 C5262 1.363 . S
C5263 C5269 1.363 . S
C5264 C5265 1.363 . S
C5264 C5269 1.379 . S
C5264 N5271 1.356 . S
C5265 C5264 1.363 . S
C5265 C5268 1.363 . S
N5266 C5268 1.356 . S
N5266 H5278 0.984 . S
N5266 H5279 0.985 . S
N5267 C5269 1.356 . S
N5267 H5272 0.984 . S
N5267 H5273 0.985 . S
C5268 C5262 1.379 . S
C5268 C5265 1.363 . S
C5268 N5266 1.356 . S
C5269 C5263 1.363 . S
C5269 C5264 1.379 . S
C5269 N5267 1.356 . S
N5270 C5262 1.356 . S
N5270 H5276 0.984 . S
N5270 H5277 0.984 . S
N5271 C5264 1.356 . S
N5271 H5274 0.984 . S
N5271 H5275 0.985 . S
H5272 N5267 0.984 . S
H5273 N5267 0.985 . S
H5274 N5271 0.984 . S
H5275 N5271 0.985 . S
H5276 N5270 0.984 . S
H5277 N5270 0.984 . S
H5278 N5266 0.984 . S
H5279 N5266 0.985 . S
C5280 C5281 1.363 . S
C5280 C5286 1.379 . S
C5280 N5288 1.356 . S
C5281 C5280 1.363 . S
C5281 C5287 1.363 . S
C5282 C5283 1.363 . S
C5282 C5287 1.379 . S
C5282 N5289 1.356 . S
C5283 C5282 1.363 . S
C5283 C5286 1.363 . S
N5284 C5286 1.356 . S
N5284 H5296 0.984 . S
N5284 H5297 0.985 . S
N5285 C5287 1.356 . S
N5285 H5290 0.984 . S
N5285 H5291 0.985 . S
C5286 C5280 1.379 . S
C5286 C5283 1.363 . S
C5286 N5284 1.356 . S
C5287 C5281 1.363 . S
C5287 C5282 1.379 . S
C5287 N5285 1.356 . S
N5288 C5280 1.356 . S
N5288 H5294 0.984 . S
N5288 H5295 0.984 . S
N5289 C5282 1.356 . S
N5289 H5292 0.984 . S
N5289 H5293 0.985 . S
H5290 N5285 0.984 . S
H5291 N5285 0.985 . S
H5292 N5289 0.984 . S
H5293 N5289 0.985 . S
H5294 N5288 0.984 . S
H5295 N5288 0.984 . S
H5296 N5284 0.984 . S
H5297 N5284 0.985 . S
C5298 C5299 1.363 . S
C5298 C5304 1.379 . S
C5298 N5306 1.356 . S
C5299 C5298 1.363 . S
C5299 C5305 1.363 . S
C5300 C5301 1.363 . S
C5300 C5305 1.379 . S
C5300 N5307 1.356 . S
C5301 C5300 1.363 . S
C5301 C5304 1.363 . S
N5302 C5304 1.356 . S
N5302 H5314 0.984 . S
N5302 H5315 0.985 . S
N5303 C5305 1.356 1_554 S
N5303 H5308 0.984 . S
N5303 H5309 0.985 . S
C5304 C5298 1.379 . S
C5304 C5301 1.363 . S
C5304 N5302 1.356 . S
C5305 C5299 1.363 . S
C5305 C5300 1.379 . S
C5305 N5303 1.356 1_556 S
N5306 C5298 1.356 . S
N5306 H5312 0.984 . S
N5306 H5313 0.984 . S
N5307 C5300 1.356 . S
N5307 H5310 0.984 . S
N5307 H5311 0.985 . S
H5308 N5303 0.984 . S
H5309 N5303 0.985 . S
H5310 N5307 0.984 . S
H5311 N5307 0.985 . S
H5312 N5306 0.984 . S
H5313 N5306 0.984 . S
H5314 N5302 0.984 . S
H5315 N5302 0.985 . S
C5316 C5317 1.363 . S
C5316 C5322 1.379 . S
C5316 N5324 1.356 . S
C5317 C5316 1.363 . S
C5317 C5323 1.363 . S
C5318 C5319 1.363 . S
C5318 C5323 1.379 . S
C5318 N5325 1.356 . S
C5319 C5318 1.363 . S
C5319 C5322 1.363 . S
N5320 C5322 1.356 . S
N5320 H5332 0.984 . S
N5320 H5333 0.985 . S
N5321 C5323 1.356 . S
N5321 H5326 0.984 . S
N5321 H5327 0.985 . S
C5322 C5316 1.379 . S
C5322 C5319 1.363 . S
C5322 N5320 1.356 . S
C5323 C5317 1.363 . S
C5323 C5318 1.379 . S
C5323 N5321 1.356 . S
N5324 C5316 1.356 . S
N5324 H5330 0.984 . S
N5324 H5331 0.984 . S
N5325 C5318 1.356 . S
N5325 H5328 0.984 . S
N5325 H5329 0.985 . S
H5326 N5321 0.984 . S
H5327 N5321 0.985 . S
H5328 N5325 0.984 . S
H5329 N5325 0.985 . S
H5330 N5324 0.984 . S
H5331 N5324 0.984 . S
H5332 N5320 0.984 . S
H5333 N5320 0.985 . S
C5334 C5335 1.363 . S
C5334 C5340 1.379 . S
C5334 N5342 1.356 . S
C5335 C5334 1.363 . S
C5335 C5341 1.363 . S
C5336 C5337 1.363 . S
C5336 C5341 1.379 . S
C5336 N5343 1.356 . S
C5337 C5336 1.363 . S
C5337 C5340 1.363 . S
N5338 C5340 1.356 . S
N5338 H5350 0.984 . S
N5338 H5351 0.985 . S
N5339 C5341 1.356 . S
N5339 H5344 0.984 . S
N5339 H5345 0.985 . S
C5340 C5334 1.379 . S
C5340 C5337 1.363 . S
C5340 N5338 1.356 . S
C5341 C5335 1.363 . S
C5341 C5336 1.379 . S
C5341 N5339 1.356 . S
N5342 C5334 1.356 . S
N5342 H5348 0.984 . S
N5342 H5349 0.984 . S
N5343 C5336 1.356 . S
N5343 H5346 0.984 . S
N5343 H5347 0.985 . S
H5344 N5339 0.984 . S
H5345 N5339 0.985 . S
H5346 N5343 0.984 . S
H5347 N5343 0.985 . S
H5348 N5342 0.984 . S
H5349 N5342 0.984 . S
H5350 N5338 0.984 . S
H5351 N5338 0.985 . S
C5352 C5353 1.363 . S
C5352 C5358 1.379 . S
C5352 N5360 1.356 . S
C5353 C5352 1.363 . S
C5353 C5359 1.363 . S
C5354 C5355 1.363 . S
C5354 C5359 1.379 . S
C5354 N5361 1.356 . S
C5355 C5354 1.363 . S
C5355 C5358 1.363 . S
N5356 C5358 1.356 . S
N5356 H5368 0.984 . S
N5356 H5369 0.985 . S
N5357 C5359 1.356 . S
N5357 H5362 0.984 . S
N5357 H5363 0.985 . S
C5358 C5352 1.379 . S
C5358 C5355 1.363 . S
C5358 N5356 1.356 . S
C5359 C5353 1.363 . S
C5359 C5354 1.379 . S
C5359 N5357 1.356 . S
N5360 C5352 1.356 . S
N5360 H5366 0.984 . S
N5360 H5367 0.984 . S
N5361 C5354 1.356 . S
N5361 H5364 0.984 . S
N5361 H5365 0.985 . S
H5362 N5357 0.984 . S
H5363 N5357 0.985 . S
H5364 N5361 0.984 . S
H5365 N5361 0.985 . S
H5366 N5360 0.984 . S
H5367 N5360 0.984 . S
H5368 N5356 0.984 . S
H5369 N5356 0.985 . S
C5370 C5371 1.363 . S
C5370 C5376 1.379 . S
C5370 N5378 1.356 . S
C5371 C5370 1.363 . S
C5371 C5377 1.363 . S
C5372 C5373 1.363 . S
C5372 C5377 1.379 . S
C5372 N5379 1.356 . S
C5373 C5372 1.363 . S
C5373 C5376 1.363 . S
N5374 C5376 1.356 1_556 S
N5374 H5386 0.984 . S
N5374 H5387 0.985 . S
N5375 C5377 1.356 . S
N5375 H5380 0.984 . S
N5375 H5381 0.985 . S
C5376 C5370 1.379 . S
C5376 C5373 1.363 . S
C5376 N5374 1.356 1_554 S
C5377 C5371 1.363 . S
C5377 C5372 1.379 . S
C5377 N5375 1.356 . S
N5378 C5370 1.356 . S
N5378 H5384 0.984 . S
N5378 H5385 0.984 . S
N5379 C5372 1.356 . S
N5379 H5382 0.984 1_554 S
N5379 H5383 0.985 . S
H5380 N5375 0.984 . S
H5381 N5375 0.985 . S
H5382 N5379 0.984 1_556 S
H5383 N5379 0.985 . S
H5384 N5378 0.984 . S
H5385 N5378 0.984 . S
H5386 N5374 0.984 . S
H5387 N5374 0.985 . S
C5388 C5389 1.363 . S
C5388 C5394 1.379 . S
C5388 N5396 1.356 . S
C5389 C5388 1.363 . S
C5389 C5395 1.363 . S
C5390 C5391 1.363 . S
C5390 C5395 1.379 . S
C5390 N5397 1.356 . S
C5391 C5390 1.363 . S
C5391 C5394 1.363 . S
N5392 C5394 1.356 . S
N5392 H5404 0.984 . S
N5392 H5405 0.985 . S
N5393 C5395 1.356 . S
N5393 H5398 0.984 . S
N5393 H5399 0.985 . S
C5394 C5388 1.379 . S
C5394 C5391 1.363 . S
C5394 N5392 1.356 . S
C5395 C5389 1.363 . S
C5395 C5390 1.379 . S
C5395 N5393 1.356 . S
N5396 C5388 1.356 . S
N5396 H5402 0.984 . S
N5396 H5403 0.984 . S
N5397 C5390 1.356 . S
N5397 H5400 0.984 . S
N5397 H5401 0.985 . S
H5398 N5393 0.984 . S
H5399 N5393 0.985 . S
H5400 N5397 0.984 . S
H5401 N5397 0.985 . S
H5402 N5396 0.984 . S
H5403 N5396 0.984 . S
H5404 N5392 0.984 . S
H5405 N5392 0.985 . S
C5406 C5407 1.363 . S
C5406 C5412 1.379 . S
C5406 N5414 1.356 . S
C5407 C5406 1.363 . S
C5407 C5413 1.363 . S
C5408 C5409 1.363 . S
C5408 C5413 1.379 . S
C5408 N5415 1.356 . S
C5409 C5408 1.363 . S
C5409 C5412 1.363 . S
N5410 C5412 1.356 . S
N5410 H5422 0.984 . S
N5410 H5423 0.985 . S
N5411 C5413 1.356 . S
N5411 H5416 0.984 . S
N5411 H5417 0.985 . S
C5412 C5406 1.379 . S
C5412 C5409 1.363 . S
C5412 N5410 1.356 . S
C5413 C5407 1.363 . S
C5413 C5408 1.379 . S
C5413 N5411 1.356 . S
N5414 C5406 1.356 . S
N5414 H5420 0.984 . S
N5414 H5421 0.984 . S
N5415 C5408 1.356 . S
N5415 H5418 0.984 . S
N5415 H5419 0.985 . S
H5416 N5411 0.984 . S
H5417 N5411 0.985 . S
H5418 N5415 0.984 . S
H5419 N5415 0.985 . S
H5420 N5414 0.984 . S
H5421 N5414 0.984 . S
H5422 N5410 0.984 . S
H5423 N5410 0.985 . S
C5424 C5425 1.363 . S
C5424 C5430 1.379 . S
C5424 N5432 1.356 . S
C5425 C5424 1.363 . S
C5425 C5431 1.363 . S
C5426 C5427 1.363 . S
C5426 C5431 1.379 . S
C5426 N5433 1.356 . S
C5427 C5426 1.363 . S
C5427 C5430 1.363 . S
N5428 C5430 1.356 . S
N5428 H5440 0.984 . S
N5428 H5441 0.985 . S
N5429 C5431 1.356 . S
N5429 H5434 0.984 . S
N5429 H5435 0.985 . S
C5430 C5424 1.379 . S
C5430 C5427 1.363 . S
C5430 N5428 1.356 . S
C5431 C5425 1.363 . S
C5431 C5426 1.379 . S
C5431 N5429 1.356 . S
N5432 C5424 1.356 . S
N5432 H5438 0.984 . S
N5432 H5439 0.984 . S
N5433 C5426 1.356 . S
N5433 H5436 0.984 . S
N5433 H5437 0.985 . S
H5434 N5429 0.984 . S
H5435 N5429 0.985 . S
H5436 N5433 0.984 . S
H5437 N5433 0.985 . S
H5438 N5432 0.984 . S
H5439 N5432 0.984 . S
H5440 N5428 0.984 . S
H5441 N5428 0.985 . S
C5442 C5443 1.363 . S
C5442 C5448 1.379 . S
C5442 N5450 1.356 . S
C5443 C5442 1.363 . S
C5443 C5449 1.363 . S
C5444 C5445 1.363 . S
C5444 C5449 1.379 . S
C5444 N5451 1.356 . S
C5445 C5444 1.363 . S
C5445 C5448 1.363 . S
N5446 C5448 1.356 . S
N5446 H5458 0.984 . S
N5446 H5459 0.985 . S
N5447 C5449 1.356 . S
N5447 H5452 0.984 . S
N5447 H5453 0.985 . S
C5448 C5442 1.379 . S
C5448 C5445 1.363 . S
C5448 N5446 1.356 . S
C5449 C5443 1.363 . S
C5449 C5444 1.379 . S
C5449 N5447 1.356 . S
N5450 C5442 1.356 . S
N5450 H5456 0.984 . S
N5450 H5457 0.984 . S
N5451 C5444 1.356 . S
N5451 H5454 0.984 . S
N5451 H5455 0.985 . S
H5452 N5447 0.984 . S
H5453 N5447 0.985 . S
H5454 N5451 0.984 . S
H5455 N5451 0.985 . S
H5456 N5450 0.984 . S
H5457 N5450 0.984 . S
H5458 N5446 0.984 . S
H5459 N5446 0.985 . S
C5460 C5461 1.363 . S
C5460 C5466 1.379 . S
C5460 N5468 1.356 . S
C5461 C5460 1.363 . S
C5461 C5467 1.363 . S
C5462 C5463 1.363 . S
C5462 C5467 1.379 . S
C5462 N5469 1.356 1_565 S
C5463 C5462 1.363 . S
C5463 C5466 1.363 . S
N5464 C5466 1.356 . S
N5464 H5476 0.984 . S
N5464 H5477 0.985 . S
N5465 C5467 1.356 . S
N5465 H5470 0.984 . S
N5465 H5471 0.985 . S
C5466 C5460 1.379 . S
C5466 C5463 1.363 . S
C5466 N5464 1.356 . S
C5467 C5461 1.363 . S
C5467 C5462 1.379 . S
C5467 N5465 1.356 . S
N5468 C5460 1.356 . S
N5468 H5474 0.984 . S
N5468 H5475 0.984 . S
N5469 C5462 1.356 1_545 S
N5469 H5472 0.984 . S
N5469 H5473 0.985 . S
H5470 N5465 0.984 . S
H5471 N5465 0.985 . S
H5472 N5469 0.984 . S
H5473 N5469 0.985 . S
H5474 N5468 0.984 . S
H5475 N5468 0.984 . S
H5476 N5464 0.984 . S
H5477 N5464 0.985 . S
C5478 C5479 1.363 . S
C5478 C5484 1.379 . S
C5478 N5486 1.356 . S
C5479 C5478 1.363 . S
C5479 C5485 1.363 . S
C5480 C5481 1.363 . S
C5480 C5485 1.379 . S
C5480 N5487 1.356 . S
C5481 C5480 1.363 . S
C5481 C5484 1.363 . S
N5482 C5484 1.356 . S
N5482 H5494 0.984 . S
N5482 H5495 0.985 . S
N5483 C5485 1.356 . S
N5483 H5488 0.984 . S
N5483 H5489 0.985 . S
C5484 C5478 1.379 . S
C5484 C5481 1.363 . S
C5484 N5482 1.356 . S
C5485 C5479 1.363 . S
C5485 C5480 1.379 . S
C5485 N5483 1.356 . S
N5486 C5478 1.356 . S
N5486 H5492 0.984 . S
N5486 H5493 0.984 . S
N5487 C5480 1.356 . S
N5487 H5490 0.984 . S
N5487 H5491 0.985 . S
H5488 N5483 0.984 . S
H5489 N5483 0.985 . S
H5490 N5487 0.984 . S
H5491 N5487 0.985 . S
H5492 N5486 0.984 . S
H5493 N5486 0.984 . S
H5494 N5482 0.984 . S
H5495 N5482 0.985 . S
C5496 C5497 1.363 . S
C5496 C5502 1.379 . S
C5496 N5504 1.356 . S
C5497 C5496 1.363 . S
C5497 C5503 1.363 . S
C5498 C5499 1.363 . S
C5498 C5503 1.379 . S
C5498 N5505 1.356 . S
C5499 C5498 1.363 . S
C5499 C5502 1.363 . S
N5500 C5502 1.356 . S
N5500 H5512 0.984 . S
N5500 H5513 0.985 . S
N5501 C5503 1.356 . S
N5501 H5506 0.984 . S
N5501 H5507 0.985 . S
C5502 C5496 1.379 . S
C5502 C5499 1.363 . S
C5502 N5500 1.356 . S
C5503 C5497 1.363 . S
C5503 C5498 1.379 . S
C5503 N5501 1.356 . S
N5504 C5496 1.356 . S
N5504 H5510 0.984 . S
N5504 H5511 0.984 . S
N5505 C5498 1.356 . S
N5505 H5508 0.984 . S
N5505 H5509 0.985 . S
H5506 N5501 0.984 . S
H5507 N5501 0.985 . S
H5508 N5505 0.984 . S
H5509 N5505 0.985 . S
H5510 N5504 0.984 . S
H5511 N5504 0.984 . S
H5512 N5500 0.984 . S
H5513 N5500 0.985 . S
C5514 C5515 1.363 . S
C5514 C5520 1.379 . S
C5514 N5522 1.356 . S
C5515 C5514 1.363 . S
C5515 C5521 1.363 . S
C5516 C5517 1.363 . S
C5516 C5521 1.379 . S
C5516 N5523 1.356 . S
C5517 C5516 1.363 . S
C5517 C5520 1.363 . S
N5518 C5520 1.356 . S
N5518 H5530 0.984 . S
N5518 H5531 0.985 . S
N5519 C5521 1.356 . S
N5519 H5524 0.984 . S
N5519 H5525 0.985 . S
C5520 C5514 1.379 . S
C5520 C5517 1.363 . S
C5520 N5518 1.356 . S
C5521 C5515 1.363 . S
C5521 C5516 1.379 . S
C5521 N5519 1.356 . S
N5522 C5514 1.356 . S
N5522 H5528 0.984 . S
N5522 H5529 0.984 . S
N5523 C5516 1.356 . S
N5523 H5526 0.984 . S
N5523 H5527 0.985 . S
H5524 N5519 0.984 . S
H5525 N5519 0.985 . S
H5526 N5523 0.984 . S
H5527 N5523 0.985 . S
H5528 N5522 0.984 . S
H5529 N5522 0.984 . S
H5530 N5518 0.984 . S
H5531 N5518 0.985 . S
C5532 C5533 1.363 . S
C5532 C5538 1.379 . S
C5532 N5540 1.332 1_545 S
C5533 C5532 1.363 . S
C5533 C5539 1.363 . S
C5534 C5535 1.363 . S
C5534 C5539 1.379 . S
C5534 N5541 1.356 . S
C5535 C5534 1.363 . S
C5535 C5538 1.363 . S
N5536 C5538 1.356 . S
N5536 H5548 0.984 . S
N5536 H5549 0.985 . S
N5537 C5539 1.356 . S
N5537 H5542 0.984 1_545 S
N5537 H5543 0.985 . S
C5538 C5532 1.379 . S
C5538 C5535 1.363 . S
C5538 N5536 1.356 . S
C5539 C5533 1.363 . S
C5539 C5534 1.379 . S
C5539 N5537 1.356 . S
N5540 C5532 1.332 1_565 S
N5540 H5546 0.978 1_565 S
N5540 H5547 1.014 . S
N5541 C5534 1.356 . S
N5541 H5544 0.984 . S
N5541 H5545 0.985 . S
H5542 N5537 0.984 1_565 S
H5543 N5537 0.985 . S
H5544 N5541 0.984 . S
H5545 N5541 0.985 . S
H5546 N5540 0.978 1_545 S
H5547 N5540 1.014 . S
H5548 N5536 0.984 . S
H5549 N5536 0.985 . S
C5550 C5551 1.363 . S
C5550 C5556 1.379 . S
C5550 N5558 1.356 1_565 S
C5551 C5550 1.363 . S
C5551 C5557 1.363 . S
C5552 C5553 1.363 . S
C5552 C5557 1.379 . S
C5552 N5559 1.356 . S
C5553 C5552 1.363 . S
C5553 C5556 1.363 . S
N5554 C5556 1.356 . S
N5554 H5566 0.984 . S
N5554 H5567 0.985 . S
N5555 C5557 1.356 . S
N5555 H5560 0.984 1_565 S
N5555 H5561 0.985 . S
C5556 C5550 1.379 . S
C5556 C5553 1.363 . S
C5556 N5554 1.356 . S
C5557 C5551 1.363 . S
C5557 C5552 1.379 . S
C5557 N5555 1.356 . S
N5558 C5550 1.356 1_545 S
N5558 H5564 0.984 . S
N5558 H5565 0.984 . S
N5559 C5552 1.356 . S
N5559 H5562 0.984 . S
N5559 H5563 0.985 . S
H5560 N5555 0.984 1_545 S
H5561 N5555 0.985 . S
H5562 N5559 0.984 . S
H5563 N5559 0.985 . S
H5564 N5558 0.984 . S
H5565 N5558 0.984 . S
H5566 N5554 0.984 . S
H5567 N5554 0.985 . S
C5568 C5569 1.363 . S
C5568 C5574 1.379 . S
C5568 N5576 1.356 . S
C5569 C5568 1.363 . S
C5569 C5575 1.363 . S
C5570 C5571 1.363 . S
C5570 C5575 1.379 . S
C5570 N5577 1.356 . S
C5571 C5570 1.363 . S
C5571 C5574 1.363 . S
N5572 C5574 1.356 . S
N5572 H5584 0.984 . S
N5572 H5585 0.985 . S
N5573 C5575 1.356 . S
N5573 H5578 0.984 . S
N5573 H5579 0.985 . S
C5574 C5568 1.379 . S
C5574 C5571 1.363 . S
C5574 N5572 1.356 . S
C5575 C5569 1.363 . S
C5575 C5570 1.379 . S
C5575 N5573 1.356 . S
N5576 C5568 1.356 . S
N5576 H5582 0.984 . S
N5576 H5583 0.984 . S
N5577 C5570 1.356 . S
N5577 H5580 0.984 . S
N5577 H5581 0.985 . S
H5578 N5573 0.984 . S
H5579 N5573 0.985 . S
H5580 N5577 0.984 . S
H5581 N5577 0.985 . S
H5582 N5576 0.984 . S
H5583 N5576 0.984 . S
H5584 N5572 0.984 . S
H5585 N5572 0.985 . S
C5586 C5587 1.363 . S
C5586 C5592 1.379 . S
C5586 N5594 1.356 . S
C5587 C5586 1.363 . S
C5587 C5593 1.363 . S
C5588 C5589 1.363 . S
C5588 C5593 1.379 . S
C5588 N5595 1.356 . S
C5589 C5588 1.363 . S
C5589 C5592 1.363 . S
N5590 C5592 1.356 . S
N5590 H5602 0.984 . S
N5590 H5603 0.985 . S
N5591 C5593 1.356 . S
N5591 H5596 0.984 . S
N5591 H5597 0.985 . S
C5592 C5586 1.379 . S
C5592 C5589 1.363 . S
C5592 N5590 1.356 . S
C5593 C5587 1.363 . S
C5593 C5588 1.379 . S
C5593 N5591 1.356 . S
N5594 C5586 1.356 . S
N5594 H5600 0.984 . S
N5594 H5601 0.984 . S
N5595 C5588 1.356 . S
N5595 H5598 0.984 . S
N5595 H5599 0.985 . S
H5596 N5591 0.984 . S
H5597 N5591 0.985 . S
H5598 N5595 0.984 . S
H5599 N5595 0.985 . S
H5600 N5594 0.984 . S
H5601 N5594 0.984 . S
H5602 N5590 0.984 . S
H5603 N5590 0.985 . S
C5604 C5605 1.363 . S
C5604 C5610 1.379 . S
C5604 N5612 1.356 . S
C5605 C5604 1.363 . S
C5605 C5611 1.363 . S
C5606 C5607 1.363 . S
C5606 C5611 1.379 . S
C5606 N5613 1.356 . S
C5607 C5606 1.363 . S
C5607 C5610 1.363 . S
N5608 C5610 1.356 . S
N5608 H5620 0.984 . S
N5608 H5621 0.985 . S
N5609 C5611 1.356 . S
N5609 H5614 0.984 . S
N5609 H5615 0.985 . S
C5610 C5604 1.379 . S
C5610 C5607 1.363 . S
C5610 N5608 1.356 . S
C5611 C5605 1.363 . S
C5611 C5606 1.379 . S
C5611 N5609 1.356 . S
N5612 C5604 1.356 . S
N5612 H5618 0.984 . S
N5612 H5619 0.984 . S
N5613 C5606 1.356 . S
N5613 H5616 0.984 . S
N5613 H5617 0.985 . S
H5614 N5609 0.984 . S
H5615 N5609 0.985 . S
H5616 N5613 0.984 . S
H5617 N5613 0.985 . S
H5618 N5612 0.984 . S
H5619 N5612 0.984 . S
H5620 N5608 0.984 . S
H5621 N5608 0.985 . S
C5622 C5623 1.363 . S
C5622 C5628 1.379 . S
C5622 N5630 1.356 . S
C5623 C5622 1.363 . S
C5623 C5629 1.363 . S
C5624 C5625 1.363 . S
C5624 C5629 1.379 . S
C5624 N5631 1.356 . S
C5625 C5624 1.363 . S
C5625 C5628 1.363 . S
N5626 C5628 1.356 . S
N5626 H5638 0.984 . S
N5626 H5639 0.985 . S
N5627 C5629 1.356 . S
N5627 H5632 0.984 . S
N5627 H5633 0.985 . S
C5628 C5622 1.379 . S
C5628 C5625 1.363 . S
C5628 N5626 1.356 . S
C5629 C5623 1.363 . S
C5629 C5624 1.379 . S
C5629 N5627 1.356 . S
N5630 C5622 1.356 . S
N5630 H5636 0.984 . S
N5630 H5637 0.984 . S
N5631 C5624 1.356 . S
N5631 H5634 0.984 . S
N5631 H5635 0.985 . S
H5632 N5627 0.984 . S
H5633 N5627 0.985 . S
H5634 N5631 0.984 . S
H5635 N5631 0.985 . S
H5636 N5630 0.984 . S
H5637 N5630 0.984 . S
H5638 N5626 0.984 . S
H5639 N5626 0.985 . S
C5640 C5641 1.363 . S
C5640 C5646 1.379 . S
C5640 N5648 1.356 . S
C5641 C5640 1.363 . S
C5641 C5647 1.363 . S
C5642 C5643 1.363 . S
C5642 C5647 1.379 . S
C5642 N5649 1.356 . S
C5643 C5642 1.363 . S
C5643 C5646 1.363 . S
N5644 C5646 1.356 . S
N5644 H5656 0.984 . S
N5644 H5657 0.985 . S
N5645 C5647 1.356 . S
N5645 H5650 0.984 . S
N5645 H5651 0.985 . S
C5646 C5640 1.379 . S
C5646 C5643 1.363 . S
C5646 N5644 1.356 . S
C5647 C5641 1.363 . S
C5647 C5642 1.379 . S
C5647 N5645 1.356 . S
N5648 C5640 1.356 . S
N5648 H5654 0.984 . S
N5648 H5655 0.984 . S
N5649 C5642 1.356 . S
N5649 H5652 0.984 . S
N5649 H5653 0.985 . S
H5650 N5645 0.984 . S
H5651 N5645 0.985 . S
H5652 N5649 0.984 . S
H5653 N5649 0.985 . S
H5654 N5648 0.984 . S
H5655 N5648 0.984 . S
H5656 N5644 0.984 . S
H5657 N5644 0.985 . S
C5658 C5659 1.363 . S
C5658 C5664 1.379 . S
C5658 N5666 1.356 . S
C5659 C5658 1.363 . S
C5659 C5665 1.363 . S
C5660 C5661 1.363 . S
C5660 C5665 1.379 . S
C5660 N5667 1.356 . S
C5661 C5660 1.363 . S
C5661 C5664 1.363 . S
N5662 C5664 1.356 . S
N5662 H5674 0.984 . S
N5662 H5675 0.985 . S
N5663 C5665 1.356 . S
N5663 H5668 0.984 . S
N5663 H5669 0.985 . S
C5664 C5658 1.379 . S
C5664 C5661 1.363 . S
C5664 N5662 1.356 . S
C5665 C5659 1.363 . S
C5665 C5660 1.379 . S
C5665 N5663 1.356 . S
N5666 C5658 1.356 . S
N5666 H5672 0.984 . S
N5666 H5673 0.984 . S
N5667 C5660 1.356 . S
N5667 H5670 0.984 . S
N5667 H5671 0.985 . S
H5668 N5663 0.984 . S
H5669 N5663 0.985 . S
H5670 N5667 0.984 . S
H5671 N5667 0.985 . S
H5672 N5666 0.984 . S
H5673 N5666 0.984 . S
H5674 N5662 0.984 . S
H5675 N5662 0.985 . S
C5676 C5677 1.363 . S
C5676 C5682 1.379 . S
C5676 N5684 1.356 . S
C5677 C5676 1.363 . S
C5677 C5683 1.363 . S
C5678 C5679 1.363 . S
C5678 C5683 1.379 . S
C5678 N5685 1.356 . S
C5679 C5678 1.363 . S
C5679 C5682 1.363 . S
N5680 C5682 1.356 . S
N5680 H5692 0.984 . S
N5680 H5693 0.985 . S
N5681 C5683 1.356 . S
N5681 H5686 0.984 . S
N5681 H5687 0.985 . S
C5682 C5676 1.379 . S
C5682 C5679 1.363 . S
C5682 N5680 1.356 . S
C5683 C5677 1.363 . S
C5683 C5678 1.379 . S
C5683 N5681 1.356 . S
N5684 C5676 1.356 . S
N5684 H5690 0.984 . S
N5684 H5691 0.984 . S
N5685 C5678 1.356 . S
N5685 H5688 0.984 . S
N5685 H5689 0.985 . S
H5686 N5681 0.984 . S
H5687 N5681 0.985 . S
H5688 N5685 0.984 . S
H5689 N5685 0.985 . S
H5690 N5684 0.984 . S
H5691 N5684 0.984 . S
H5692 N5680 0.984 . S
H5693 N5680 0.985 . S
C5694 C5695 1.363 . S
C5694 C5700 1.379 . S
C5694 N5702 1.356 . S
C5695 C5694 1.363 . S
C5695 C5701 1.363 . S
C5696 C5697 1.363 . S
C5696 C5701 1.379 . S
C5696 N5703 1.356 . S
C5697 C5696 1.363 . S
C5697 C5700 1.363 . S
N5698 C5700 1.356 . S
N5698 H5710 0.984 . S
N5698 H5711 0.985 . S
N5699 C5701 1.356 . S
N5699 H5704 0.984 . S
N5699 H5705 0.985 . S
C5700 C5694 1.379 . S
C5700 C5697 1.363 . S
C5700 N5698 1.356 . S
C5701 C5695 1.363 . S
C5701 C5696 1.379 . S
C5701 N5699 1.356 . S
N5702 C5694 1.356 . S
N5702 H5708 0.984 . S
N5702 H5709 0.984 . S
N5703 C5696 1.356 . S
N5703 H5706 0.984 . S
N5703 H5707 0.985 . S
H5704 N5699 0.984 . S
H5705 N5699 0.985 . S
H5706 N5703 0.984 . S
H5707 N5703 0.985 . S
H5708 N5702 0.984 . S
H5709 N5702 0.984 . S
H5710 N5698 0.984 . S
H5711 N5698 0.985 . S
C5712 C5713 1.363 . S
C5712 C5718 1.379 . S
C5712 N5720 1.356 . S
C5713 C5712 1.363 . S
C5713 C5719 1.363 . S
C5714 C5715 1.363 . S
C5714 C5719 1.379 . S
C5714 N5721 1.356 . S
C5715 C5714 1.363 . S
C5715 C5718 1.363 . S
N5716 C5718 1.356 . S
N5716 H5728 0.984 . S
N5716 H5729 0.985 . S
N5717 C5719 1.356 . S
N5717 H5722 0.984 . S
N5717 H5723 0.985 . S
C5718 C5712 1.379 . S
C5718 C5715 1.363 . S
C5718 N5716 1.356 . S
C5719 C5713 1.363 . S
C5719 C5714 1.379 . S
C5719 N5717 1.356 . S
N5720 C5712 1.356 . S
N5720 H5726 0.984 . S
N5720 H5727 0.984 . S
N5721 C5714 1.356 . S
N5721 H5724 0.984 . S
N5721 H5725 0.985 . S
H5722 N5717 0.984 . S
H5723 N5717 0.985 . S
H5724 N5721 0.984 . S
H5725 N5721 0.985 . S
H5726 N5720 0.984 . S
H5727 N5720 0.984 . S
H5728 N5716 0.984 . S
H5729 N5716 0.985 . S
C5730 C5731 1.363 . S
C5730 C5736 1.379 . S
C5730 N5738 1.356 . S
C5731 C5730 1.363 . S
C5731 C5737 1.363 . S
C5732 C5733 1.363 . S
C5732 C5737 1.379 . S
C5732 N5739 1.356 . S
C5733 C5732 1.363 . S
C5733 C5736 1.363 . S
N5734 C5736 1.356 . S
N5734 H5746 0.984 . S
N5734 H5747 0.985 . S
N5735 C5737 1.356 . S
N5735 H5740 0.984 . S
N5735 H5741 0.985 . S
C5736 C5730 1.379 . S
C5736 C5733 1.363 . S
C5736 N5734 1.356 . S
C5737 C5731 1.363 . S
C5737 C5732 1.379 . S
C5737 N5735 1.356 . S
N5738 C5730 1.356 . S
N5738 H5744 0.984 . S
N5738 H5745 0.984 . S
N5739 C5732 1.356 . S
N5739 H5742 0.984 . S
N5739 H5743 0.985 . S
H5740 N5735 0.984 . S
H5741 N5735 0.985 . S
H5742 N5739 0.984 . S
H5743 N5739 0.985 . S
H5744 N5738 0.984 . S
H5745 N5738 0.984 . S
H5746 N5734 0.984 . S
H5747 N5734 0.985 . S
C5748 C5749 1.363 . S
C5748 C5754 1.379 . S
C5748 N5756 1.356 . S
C5749 C5748 1.363 . S
C5749 C5755 1.363 . S
C5750 C5751 1.363 . S
C5750 C5755 1.379 . S
C5750 N5757 1.356 . S
C5751 C5750 1.363 . S
C5751 C5754 1.363 . S
N5752 C5754 1.356 . S
N5752 H5764 0.984 . S
N5752 H5765 0.985 . S
N5753 C5755 1.356 . S
N5753 H5758 0.984 . S
N5753 H5759 0.985 . S
C5754 C5748 1.379 . S
C5754 C5751 1.363 . S
C5754 N5752 1.356 . S
C5755 C5749 1.363 . S
C5755 C5750 1.379 . S
C5755 N5753 1.356 . S
N5756 C5748 1.356 . S
N5756 H5762 0.984 . S
N5756 H5763 0.984 . S
N5757 C5750 1.356 . S
N5757 H5760 0.984 . S
N5757 H5761 0.985 . S
H5758 N5753 0.984 . S
H5759 N5753 0.985 . S
H5760 N5757 0.984 . S
H5761 N5757 0.985 . S
H5762 N5756 0.984 . S
H5763 N5756 0.984 . S
H5764 N5752 0.984 . S
H5765 N5752 0.985 . S
C5766 C5767 1.363 . S
C5766 C5772 1.379 . S
C5766 N5774 1.356 . S
C5767 C5766 1.363 . S
C5767 C5773 1.363 . S
C5768 C5769 1.363 . S
C5768 C5773 1.379 . S
C5768 N5775 1.356 . S
C5769 C5768 1.363 . S
C5769 C5772 1.363 . S
N5770 C5772 1.356 . S
N5770 H5782 0.984 . S
N5770 H5783 0.985 . S
N5771 C5773 1.356 . S
N5771 H5776 0.984 . S
N5771 H5777 0.985 . S
C5772 C5766 1.379 . S
C5772 C5769 1.363 . S
C5772 N5770 1.356 . S
C5773 C5767 1.363 . S
C5773 C5768 1.379 . S
C5773 N5771 1.356 . S
N5774 C5766 1.356 . S
N5774 H5780 0.984 . S
N5774 H5781 0.984 . S
N5775 C5768 1.356 . S
N5775 H5778 0.984 . S
N5775 H5779 0.985 . S
H5776 N5771 0.984 . S
H5777 N5771 0.985 . S
H5778 N5775 0.984 . S
H5779 N5775 0.985 . S
H5780 N5774 0.984 . S
H5781 N5774 0.984 . S
H5782 N5770 0.984 . S
H5783 N5770 0.985 . S
C5784 C5785 1.363 . S
C5784 C5790 1.379 . S
C5784 N5792 1.356 . S
C5785 C5784 1.363 . S
C5785 C5791 1.363 . S
C5786 C5787 1.363 . S
C5786 C5791 1.379 . S
C5786 N5793 1.356 . S
C5787 C5786 1.363 . S
C5787 C5790 1.363 . S
N5788 C5790 1.356 . S
N5788 H5800 0.984 . S
N5788 H5801 0.985 . S
N5789 C5791 1.356 . S
N5789 H5794 0.984 . S
N5789 H5795 0.985 . S
C5790 C5784 1.379 . S
C5790 C5787 1.363 . S
C5790 N5788 1.356 . S
C5791 C5785 1.363 . S
C5791 C5786 1.379 . S
C5791 N5789 1.356 . S
N5792 C5784 1.356 . S
N5792 H5798 0.984 . S
N5792 H5799 0.984 . S
N5793 C5786 1.356 . S
N5793 H5796 0.984 . S
N5793 H5797 0.985 . S
H5794 N5789 0.984 . S
H5795 N5789 0.985 . S
H5796 N5793 0.984 . S
H5797 N5793 0.985 . S
H5798 N5792 0.984 . S
H5799 N5792 0.984 . S
H5800 N5788 0.984 . S
H5801 N5788 0.985 . S
C5802 C5803 1.363 . S
C5802 C5808 1.379 . S
C5802 N5810 1.356 . S
C5803 C5802 1.363 . S
C5803 C5809 1.363 . S
C5804 C5805 1.363 . S
C5804 C5809 1.379 . S
C5804 N5811 1.356 . S
C5805 C5804 1.363 . S
C5805 C5808 1.363 . S
N5806 C5808 1.356 . S
N5806 H5818 0.984 . S
N5806 H5819 0.985 . S
N5807 C5809 1.356 . S
N5807 H5812 0.984 . S
N5807 H5813 0.985 . S
C5808 C5802 1.379 . S
C5808 C5805 1.363 . S
C5808 N5806 1.356 . S
C5809 C5803 1.363 . S
C5809 C5804 1.379 . S
C5809 N5807 1.356 . S
N5810 C5802 1.356 . S
N5810 H5816 0.984 . S
N5810 H5817 0.984 . S
N5811 C5804 1.356 . S
N5811 H5814 0.984 . S
N5811 H5815 0.985 . S
H5812 N5807 0.984 . S
H5813 N5807 0.985 . S
H5814 N5811 0.984 . S
H5815 N5811 0.985 . S
H5816 N5810 0.984 . S
H5817 N5810 0.984 . S
H5818 N5806 0.984 . S
H5819 N5806 0.985 . S
C5820 C5821 1.363 . S
C5820 C5826 1.379 . S
C5820 N5828 1.356 . S
C5821 C5820 1.363 . S
C5821 C5827 1.363 . S
C5822 C5823 1.363 . S
C5822 C5827 1.379 . S
C5822 N5829 1.356 . S
C5823 C5822 1.363 . S
C5823 C5826 1.363 . S
N5824 C5826 1.356 . S
N5824 H5836 0.984 . S
N5824 H5837 0.985 . S
N5825 C5827 1.356 . S
N5825 H5830 0.984 . S
N5825 H5831 0.985 . S
C5826 C5820 1.379 . S
C5826 C5823 1.363 . S
C5826 N5824 1.356 . S
C5827 C5821 1.363 . S
C5827 C5822 1.379 . S
C5827 N5825 1.356 . S
N5828 C5820 1.356 . S
N5828 H5834 0.984 . S
N5828 H5835 0.984 . S
N5829 C5822 1.356 . S
N5829 H5832 0.984 . S
N5829 H5833 0.985 . S
H5830 N5825 0.984 . S
H5831 N5825 0.985 . S
H5832 N5829 0.984 . S
H5833 N5829 0.985 . S
H5834 N5828 0.984 . S
H5835 N5828 0.984 . S
H5836 N5824 0.984 . S
H5837 N5824 0.985 . S
C5838 C5839 1.363 . S
C5838 C5844 1.379 . S
C5838 N5846 1.356 . S
C5839 C5838 1.363 . S
C5839 C5845 1.363 . S
C5840 C5841 1.363 . S
C5840 C5845 1.379 . S
C5840 N5847 1.356 . S
C5841 C5840 1.363 . S
C5841 C5844 1.363 . S
N5842 C5844 1.356 . S
N5842 H5854 0.984 . S
N5842 H5855 0.985 . S
N5843 C5845 1.356 . S
N5843 H5848 0.984 . S
N5843 H5849 0.985 . S
C5844 C5838 1.379 . S
C5844 C5841 1.363 . S
C5844 N5842 1.356 . S
C5845 C5839 1.363 . S
C5845 C5840 1.379 . S
C5845 N5843 1.356 . S
N5846 C5838 1.356 . S
N5846 H5852 0.984 . S
N5846 H5853 0.984 . S
N5847 C5840 1.356 . S
N5847 H5850 0.984 . S
N5847 H5851 0.985 . S
H5848 N5843 0.984 . S
H5849 N5843 0.985 . S
H5850 N5847 0.984 . S
H5851 N5847 0.985 . S
H5852 N5846 0.984 . S
H5853 N5846 0.984 . S
H5854 N5842 0.984 . S
H5855 N5842 0.985 . S
C5856 C5857 1.363 . S
C5856 C5862 1.379 . S
C5856 N5864 1.356 . S
C5857 C5856 1.363 . S
C5857 C5863 1.363 . S
C5858 C5859 1.363 . S
C5858 C5863 1.379 . S
C5858 N5865 1.356 . S
C5859 C5858 1.363 . S
C5859 C5862 1.363 . S
N5860 C5862 1.356 . S
N5860 H5872 0.984 . S
N5860 H5873 0.985 . S
N5861 C5863 1.356 . S
N5861 H5866 0.984 . S
N5861 H5867 0.985 . S
C5862 C5856 1.379 . S
C5862 C5859 1.363 . S
C5862 N5860 1.356 . S
C5863 C5857 1.363 . S
C5863 C5858 1.379 . S
C5863 N5861 1.356 . S
N5864 C5856 1.356 . S
N5864 H5870 0.984 . S
N5864 H5871 0.984 . S
N5865 C5858 1.356 . S
N5865 H5868 0.984 . S
N5865 H5869 0.985 . S
H5866 N5861 0.984 . S
H5867 N5861 0.985 . S
H5868 N5865 0.984 . S
H5869 N5865 0.985 . S
H5870 N5864 0.984 . S
H5871 N5864 0.984 . S
H5872 N5860 0.984 . S
H5873 N5860 0.985 . S
C5874 C5875 1.363 . S
C5874 C5880 1.379 . S
C5874 N5882 1.356 . S
C5875 C5874 1.363 . S
C5875 C5881 1.363 . S
C5876 C5877 1.363 . S
C5876 C5881 1.379 . S
C5876 N5883 1.356 . S
C5877 C5876 1.363 . S
C5877 C5880 1.363 . S
N5878 C5880 1.356 . S
N5878 H5890 0.984 . S
N5878 H5891 0.985 . S
N5879 C5881 1.356 . S
N5879 H5884 0.984 . S
N5879 H5885 0.985 . S
C5880 C5874 1.379 . S
C5880 C5877 1.363 . S
C5880 N5878 1.356 . S
C5881 C5875 1.363 . S
C5881 C5876 1.379 . S
C5881 N5879 1.356 . S
N5882 C5874 1.356 . S
N5882 H5888 0.984 . S
N5882 H5889 0.984 . S
N5883 C5876 1.356 . S
N5883 H5886 0.984 . S
N5883 H5887 0.985 . S
H5884 N5879 0.984 . S
H5885 N5879 0.985 . S
H5886 N5883 0.984 . S
H5887 N5883 0.985 . S
H5888 N5882 0.984 . S
H5889 N5882 0.984 . S
H5890 N5878 0.984 . S
H5891 N5878 0.985 . S
C5892 C5893 1.363 . S
C5892 C5898 1.379 . S
C5892 N5900 1.356 . S
C5893 C5892 1.363 . S
C5893 C5899 1.363 . S
C5894 C5895 1.363 . S
C5894 C5899 1.379 . S
C5894 N5901 1.356 . S
C5895 C5894 1.363 . S
C5895 C5898 1.363 . S
N5896 C5898 1.356 . S
N5896 H5908 0.984 . S
N5896 H5909 0.985 . S
N5897 C5899 1.356 . S
N5897 H5902 0.984 . S
N5897 H5903 0.985 . S
C5898 C5892 1.379 . S
C5898 C5895 1.363 . S
C5898 N5896 1.356 . S
C5899 C5893 1.363 . S
C5899 C5894 1.379 . S
C5899 N5897 1.356 . S
N5900 C5892 1.356 . S
N5900 H5906 0.984 . S
N5900 H5907 0.984 . S
N5901 C5894 1.356 . S
N5901 H5904 0.984 . S
N5901 H5905 0.985 . S
H5902 N5897 0.984 . S
H5903 N5897 0.985 . S
H5904 N5901 0.984 . S
H5905 N5901 0.985 . S
H5906 N5900 0.984 . S
H5907 N5900 0.984 . S
H5908 N5896 0.984 . S
H5909 N5896 0.985 . S
C5910 C5911 1.363 . S
C5910 C5916 1.379 . S
C5910 N5918 1.356 . S
C5911 C5910 1.363 . S
C5911 C5917 1.363 . S
C5912 C5913 1.363 . S
C5912 C5917 1.379 . S
C5912 N5919 1.356 . S
C5913 C5912 1.363 . S
C5913 C5916 1.363 . S
N5914 C5916 1.356 . S
N5914 H5926 0.984 . S
N5914 H5927 0.985 . S
N5915 C5917 1.356 . S
N5915 H5920 0.984 . S
N5915 H5921 0.985 . S
C5916 C5910 1.379 . S
C5916 C5913 1.363 . S
C5916 N5914 1.356 . S
C5917 C5911 1.363 . S
C5917 C5912 1.379 . S
C5917 N5915 1.356 . S
N5918 C5910 1.356 . S
N5918 H5924 0.984 . S
N5918 H5925 0.984 . S
N5919 C5912 1.356 . S
N5919 H5922 0.984 . S
N5919 H5923 0.985 . S
H5920 N5915 0.984 . S
H5921 N5915 0.985 . S
H5922 N5919 0.984 . S
H5923 N5919 0.985 . S
H5924 N5918 0.984 . S
H5925 N5918 0.984 . S
H5926 N5914 0.984 . S
H5927 N5914 0.985 . S
C5928 C5929 1.363 . S
C5928 C5934 1.379 . S
C5928 N5936 1.356 . S
C5929 C5928 1.363 . S
C5929 C5935 1.363 . S
C5930 C5931 1.363 . S
C5930 C5935 1.379 . S
C5930 N5937 1.356 . S
C5931 C5930 1.363 . S
C5931 C5934 1.363 . S
N5932 C5934 1.356 . S
N5932 H5944 0.984 . S
N5932 H5945 0.985 . S
N5933 C5935 1.356 . S
N5933 H5938 0.984 . S
N5933 H5939 0.985 . S
C5934 C5928 1.379 . S
C5934 C5931 1.363 . S
C5934 N5932 1.356 . S
C5935 C5929 1.363 . S
C5935 C5930 1.379 . S
C5935 N5933 1.356 . S
N5936 C5928 1.356 . S
N5936 H5942 0.984 . S
N5936 H5943 0.984 . S
N5937 C5930 1.356 . S
N5937 H5940 0.984 . S
N5937 H5941 0.985 . S
H5938 N5933 0.984 . S
H5939 N5933 0.985 . S
H5940 N5937 0.984 . S
H5941 N5937 0.985 . S
H5942 N5936 0.984 . S
H5943 N5936 0.984 . S
H5944 N5932 0.984 . S
H5945 N5932 0.985 . S
C5946 C5947 1.363 . S
C5946 C5952 1.379 . S
C5946 N5954 1.356 . S
C5947 C5946 1.363 . S
C5947 C5953 1.363 . S
C5948 C5949 1.363 . S
C5948 C5953 1.379 . S
C5948 N5955 1.356 . S
C5949 C5948 1.363 . S
C5949 C5952 1.363 . S
N5950 C5952 1.356 . S
N5950 H5962 0.984 . S
N5950 H5963 0.985 . S
N5951 C5953 1.356 . S
N5951 H5956 0.984 . S
N5951 H5957 0.985 . S
C5952 C5946 1.379 . S
C5952 C5949 1.363 . S
C5952 N5950 1.356 . S
C5953 C5947 1.363 . S
C5953 C5948 1.379 . S
C5953 N5951 1.356 . S
N5954 C5946 1.356 . S
N5954 H5960 0.984 . S
N5954 H5961 0.984 . S
N5955 C5948 1.356 . S
N5955 H5958 0.984 . S
N5955 H5959 0.985 . S
H5956 N5951 0.984 . S
H5957 N5951 0.985 . S
H5958 N5955 0.984 . S
H5959 N5955 0.985 . S
H5960 N5954 0.984 . S
H5961 N5954 0.984 . S
H5962 N5950 0.984 . S
H5963 N5950 0.985 . S
C5964 C5965 1.363 . S
C5964 C5970 1.379 . S
C5964 N5972 1.356 . S
C5965 C5964 1.363 . S
C5965 C5971 1.363 . S
C5966 C5967 1.363 . S
C5966 C5971 1.379 . S
C5966 N5973 1.356 . S
C5967 C5966 1.363 . S
C5967 C5970 1.363 . S
N5968 C5970 1.356 . S
N5968 H5980 0.984 . S
N5968 H5981 0.985 . S
N5969 C5971 1.356 . S
N5969 H5974 0.984 . S
N5969 H5975 0.985 . S
C5970 C5964 1.379 . S
C5970 C5967 1.363 . S
C5970 N5968 1.356 . S
C5971 C5965 1.363 . S
C5971 C5966 1.379 . S
C5971 N5969 1.356 . S
N5972 C5964 1.356 . S
N5972 H5978 0.984 . S
N5972 H5979 0.984 . S
N5973 C5966 1.356 . S
N5973 H5976 0.984 . S
N5973 H5977 0.985 . S
H5974 N5969 0.984 . S
H5975 N5969 0.985 . S
H5976 N5973 0.984 . S
H5977 N5973 0.985 . S
H5978 N5972 0.984 . S
H5979 N5972 0.984 . S
H5980 N5968 0.984 . S
H5981 N5968 0.985 . S
C5982 C5983 1.363 . S
C5982 C5988 1.379 . S
C5982 N5990 1.356 . S
C5983 C5982 1.363 . S
C5983 C5989 1.363 . S
C5984 C5985 1.363 . S
C5984 C5989 1.379 . S
C5984 N5991 1.356 . S
C5985 C5984 1.363 . S
C5985 C5988 1.363 . S
N5986 C5988 1.356 . S
N5986 H5998 0.984 . S
N5986 H5999 0.985 . S
N5987 C5989 1.356 . S
N5987 H5992 0.984 . S
N5987 H5993 0.985 . S
C5988 C5982 1.379 . S
C5988 C5985 1.363 . S
C5988 N5986 1.356 . S
C5989 C5983 1.363 . S
C5989 C5984 1.379 . S
C5989 N5987 1.356 . S
N5990 C5982 1.356 . S
N5990 H5996 0.984 . S
N5990 H5997 0.984 . S
N5991 C5984 1.356 . S
N5991 H5994 0.984 . S
N5991 H5995 0.985 . S
H5992 N5987 0.984 . S
H5993 N5987 0.985 . S
H5994 N5991 0.984 . S
H5995 N5991 0.985 . S
H5996 N5990 0.984 . S
H5997 N5990 0.984 . S
H5998 N5986 0.984 . S
H5999 N5986 0.985 . S
C6000 C6001 1.363 . S
C6000 C6006 1.379 . S
C6000 N6008 1.356 . S
C6001 C6000 1.363 . S
C6001 C6007 1.363 . S
C6002 C6003 1.363 . S
C6002 C6007 1.379 . S
C6002 N6009 1.356 . S
C6003 C6002 1.363 . S
C6003 C6006 1.363 . S
N6004 C6006 1.356 . S
N6004 H6016 0.984 . S
N6004 H6017 0.985 . S
N6005 C6007 1.356 . S
N6005 H6010 0.984 . S
N6005 H6011 0.985 . S
C6006 C6000 1.379 . S
C6006 C6003 1.363 . S
C6006 N6004 1.356 . S
C6007 C6001 1.363 . S
C6007 C6002 1.379 . S
C6007 N6005 1.356 . S
N6008 C6000 1.356 . S
N6008 H6014 0.984 . S
N6008 H6015 0.984 . S
N6009 C6002 1.356 . S
N6009 H6012 0.984 . S
N6009 H6013 0.985 . S
H6010 N6005 0.984 . S
H6011 N6005 0.985 . S
H6012 N6009 0.984 . S
H6013 N6009 0.985 . S
H6014 N6008 0.984 . S
H6015 N6008 0.984 . S
H6016 N6004 0.984 . S
H6017 N6004 0.985 . S
C6018 C6019 1.363 . S
C6018 C6024 1.379 . S
C6018 N6026 1.356 . S
C6019 C6018 1.363 . S
C6019 C6025 1.363 . S
C6020 C6021 1.363 . S
C6020 C6025 1.379 . S
C6020 N6027 1.356 . S
C6021 C6020 1.363 . S
C6021 C6024 1.363 . S
N6022 C6024 1.356 . S
N6022 H6034 0.984 . S
N6022 H6035 0.985 . S
N6023 C6025 1.356 . S
N6023 H6028 0.984 . S
N6023 H6029 0.985 . S
C6024 C6018 1.379 . S
C6024 C6021 1.363 . S
C6024 N6022 1.356 . S
C6025 C6019 1.363 . S
C6025 C6020 1.379 . S
C6025 N6023 1.356 . S
N6026 C6018 1.356 . S
N6026 H6032 0.984 . S
N6026 H6033 0.984 . S
N6027 C6020 1.356 . S
N6027 H6030 0.984 . S
N6027 H6031 0.985 . S
H6028 N6023 0.984 . S
H6029 N6023 0.985 . S
H6030 N6027 0.984 . S
H6031 N6027 0.985 . S
H6032 N6026 0.984 . S
H6033 N6026 0.984 . S
H6034 N6022 0.984 . S
H6035 N6022 0.985 . S
C6036 C6037 1.363 . S
C6036 C6042 1.379 . S
C6036 N6044 1.356 . S
C6037 C6036 1.363 . S
C6037 C6043 1.363 . S
C6038 C6039 1.363 . S
C6038 C6043 1.379 . S
C6038 N6045 1.356 . S
C6039 C6038 1.363 . S
C6039 C6042 1.363 . S
N6040 C6042 1.356 . S
N6040 H6052 0.984 . S
N6040 H6053 0.985 . S
N6041 C6043 1.356 . S
N6041 H6046 0.984 . S
N6041 H6047 0.985 . S
C6042 C6036 1.379 . S
C6042 C6039 1.363 . S
C6042 N6040 1.356 . S
C6043 C6037 1.363 . S
C6043 C6038 1.379 . S
C6043 N6041 1.356 . S
N6044 C6036 1.356 . S
N6044 H6050 0.984 . S
N6044 H6051 0.984 . S
N6045 C6038 1.356 . S
N6045 H6048 0.984 . S
N6045 H6049 0.985 . S
H6046 N6041 0.984 . S
H6047 N6041 0.985 . S
H6048 N6045 0.984 . S
H6049 N6045 0.985 . S
H6050 N6044 0.984 . S
H6051 N6044 0.984 . S
H6052 N6040 0.984 . S
H6053 N6040 0.985 . S
C6054 C6055 1.363 . S
C6054 C6060 1.379 . S
C6054 N6062 1.356 . S
C6055 C6054 1.363 . S
C6055 C6061 1.363 . S
C6056 C6057 1.363 . S
C6056 C6061 1.379 . S
C6056 N6063 1.356 . S
C6057 C6056 1.363 . S
C6057 C6060 1.363 . S
N6058 C6060 1.356 . S
N6058 H6070 0.984 . S
N6058 H6071 0.985 . S
N6059 C6061 1.356 . S
N6059 H6064 0.984 . S
N6059 H6065 0.985 . S
C6060 C6054 1.379 . S
C6060 C6057 1.363 . S
C6060 N6058 1.356 . S
C6061 C6055 1.363 . S
C6061 C6056 1.379 . S
C6061 N6059 1.356 . S
N6062 C6054 1.356 . S
N6062 H6068 0.984 . S
N6062 H6069 0.984 . S
N6063 C6056 1.356 . S
N6063 H6066 0.984 . S
N6063 H6067 0.985 . S
H6064 N6059 0.984 . S
H6065 N6059 0.985 . S
H6066 N6063 0.984 . S
H6067 N6063 0.985 . S
H6068 N6062 0.984 . S
H6069 N6062 0.984 . S
H6070 N6058 0.984 . S
H6071 N6058 0.985 . S
C6072 C6073 1.363 . S
C6072 C6078 1.379 . S
C6072 N6080 1.356 . S
C6073 C6072 1.363 . S
C6073 C6079 1.363 . S
C6074 C6075 1.363 . S
C6074 C6079 1.379 . S
C6074 N6081 1.356 . S
C6075 C6074 1.363 . S
C6075 C6078 1.363 . S
N6076 C6078 1.356 . S
N6076 H6088 0.984 . S
N6076 H6089 0.985 . S
N6077 C6079 1.356 . S
N6077 H6082 0.984 . S
N6077 H6083 0.985 . S
C6078 C6072 1.379 . S
C6078 C6075 1.363 . S
C6078 N6076 1.356 . S
C6079 C6073 1.363 . S
C6079 C6074 1.379 . S
C6079 N6077 1.356 . S
N6080 C6072 1.356 . S
N6080 H6086 0.984 . S
N6080 H6087 0.984 . S
N6081 C6074 1.356 . S
N6081 H6084 0.984 . S
N6081 H6085 0.985 . S
H6082 N6077 0.984 . S
H6083 N6077 0.985 . S
H6084 N6081 0.984 . S
H6085 N6081 0.985 . S
H6086 N6080 0.984 . S
H6087 N6080 0.984 . S
H6088 N6076 0.984 . S
H6089 N6076 0.985 . S
C6090 C6091 1.363 . S
C6090 C6096 1.379 . S
C6090 N6098 1.356 . S
C6091 C6090 1.363 . S
C6091 C6097 1.363 . S
C6092 C6093 1.363 . S
C6092 C6097 1.379 . S
C6092 N6099 1.356 . S
C6093 C6092 1.363 . S
C6093 C6096 1.363 . S
N6094 C6096 1.356 . S
N6094 H6106 0.984 . S
N6094 H6107 0.985 . S
N6095 C6097 1.356 . S
N6095 H6100 0.984 . S
N6095 H6101 0.985 . S
C6096 C6090 1.379 . S
C6096 C6093 1.363 . S
C6096 N6094 1.356 . S
C6097 C6091 1.363 . S
C6097 C6092 1.379 . S
C6097 N6095 1.356 . S
N6098 C6090 1.356 . S
N6098 H6104 0.984 . S
N6098 H6105 0.984 . S
N6099 C6092 1.356 . S
N6099 H6102 0.984 . S
N6099 H6103 0.985 . S
H6100 N6095 0.984 . S
H6101 N6095 0.985 . S
H6102 N6099 0.984 . S
H6103 N6099 0.985 . S
H6104 N6098 0.984 . S
H6105 N6098 0.984 . S
H6106 N6094 0.984 . S
H6107 N6094 0.985 . S
C6108 C6109 1.363 . S
C6108 C6114 1.379 . S
C6108 N6116 1.356 . S
C6109 C6108 1.363 . S
C6109 C6115 1.363 . S
C6110 C6111 1.363 . S
C6110 C6115 1.379 . S
C6110 N6117 1.356 . S
C6111 C6110 1.363 . S
C6111 C6114 1.363 . S
N6112 C6114 1.356 . S
N6112 H6124 0.984 . S
N6112 H6125 0.985 . S
N6113 C6115 1.356 . S
N6113 H6118 0.984 . S
N6113 H6119 0.985 . S
C6114 C6108 1.379 . S
C6114 C6111 1.363 . S
C6114 N6112 1.356 . S
C6115 C6109 1.363 . S
C6115 C6110 1.379 . S
C6115 N6113 1.356 . S
N6116 C6108 1.356 . S
N6116 H6122 0.984 . S
N6116 H6123 0.984 . S
N6117 C6110 1.356 . S
N6117 H6120 0.984 . S
N6117 H6121 0.985 . S
H6118 N6113 0.984 . S
H6119 N6113 0.985 . S
H6120 N6117 0.984 . S
H6121 N6117 0.985 . S
H6122 N6116 0.984 . S
H6123 N6116 0.984 . S
H6124 N6112 0.984 . S
H6125 N6112 0.985 . S
C6126 C6127 1.363 . S
C6126 C6132 1.379 . S
C6126 N6134 1.356 . S
C6127 C6126 1.363 . S
C6127 C6133 1.363 . S
C6128 C6129 1.363 . S
C6128 C6133 1.379 . S
C6128 N6135 1.356 . S
C6129 C6128 1.363 . S
C6129 C6132 1.363 . S
N6130 C6132 1.356 . S
N6130 H6142 0.984 . S
N6130 H6143 0.985 . S
N6131 C6133 1.356 . S
N6131 H6136 0.984 . S
N6131 H6137 0.985 . S
C6132 C6126 1.379 . S
C6132 C6129 1.363 . S
C6132 N6130 1.356 . S
C6133 C6127 1.363 . S
C6133 C6128 1.379 . S
C6133 N6131 1.356 . S
N6134 C6126 1.356 . S
N6134 H6140 0.984 . S
N6134 H6141 0.984 . S
N6135 C6128 1.356 . S
N6135 H6138 0.984 . S
N6135 H6139 0.985 . S
H6136 N6131 0.984 . S
H6137 N6131 0.985 . S
H6138 N6135 0.984 . S
H6139 N6135 0.985 . S
H6140 N6134 0.984 . S
H6141 N6134 0.984 . S
H6142 N6130 0.984 . S
H6143 N6130 0.985 . S
C6144 C6145 1.363 . S
C6144 C6150 1.379 . S
C6144 N6152 1.356 . S
C6145 C6144 1.363 . S
C6145 C6151 1.363 . S
C6146 C6147 1.363 . S
C6146 C6151 1.379 . S
C6146 N6153 1.356 . S
C6147 C6146 1.363 . S
C6147 C6150 1.363 . S
N6148 C6150 1.356 . S
N6148 H6160 0.984 . S
N6148 H6161 0.985 . S
N6149 C6151 1.356 . S
N6149 H6154 0.984 . S
N6149 H6155 0.985 . S
C6150 C6144 1.379 . S
C6150 C6147 1.363 . S
C6150 N6148 1.356 . S
C6151 C6145 1.363 . S
C6151 C6146 1.379 . S
C6151 N6149 1.356 . S
N6152 C6144 1.356 . S
N6152 H6158 0.984 . S
N6152 H6159 0.984 . S
N6153 C6146 1.356 . S
N6153 H6156 0.984 . S
N6153 H6157 0.985 . S
H6154 N6149 0.984 . S
H6155 N6149 0.985 . S
H6156 N6153 0.984 . S
H6157 N6153 0.985 . S
H6158 N6152 0.984 . S
H6159 N6152 0.984 . S
H6160 N6148 0.984 . S
H6161 N6148 0.985 . S
C6162 C6163 1.363 . S
C6162 C6168 1.379 . S
C6162 N6170 1.356 . S
C6163 C6162 1.363 . S
C6163 C6169 1.363 . S
C6164 C6165 1.363 . S
C6164 C6169 1.379 . S
C6164 N6171 1.356 . S
C6165 C6164 1.363 . S
C6165 C6168 1.363 . S
N6166 C6168 1.356 . S
N6166 H6178 0.984 . S
N6166 H6179 0.985 . S
N6167 C6169 1.356 . S
N6167 H6172 0.984 . S
N6167 H6173 0.985 . S
C6168 C6162 1.379 . S
C6168 C6165 1.363 . S
C6168 N6166 1.356 . S
C6169 C6163 1.363 . S
C6169 C6164 1.379 . S
C6169 N6167 1.356 . S
N6170 C6162 1.356 . S
N6170 H6176 0.984 . S
N6170 H6177 0.984 . S
N6171 C6164 1.356 . S
N6171 H6174 0.984 . S
N6171 H6175 0.985 . S
H6172 N6167 0.984 . S
H6173 N6167 0.985 . S
H6174 N6171 0.984 . S
H6175 N6171 0.985 . S
H6176 N6170 0.984 . S
H6177 N6170 0.984 . S
H6178 N6166 0.984 . S
H6179 N6166 0.985 . S
C6180 C6181 1.363 . S
C6180 C6186 1.379 . S
C6180 N6188 1.356 . S
C6181 C6180 1.363 . S
C6181 C6187 1.363 . S
C6182 C6183 1.363 . S
C6182 C6187 1.379 . S
C6182 N6189 1.356 . S
C6183 C6182 1.363 . S
C6183 C6186 1.363 . S
N6184 C6186 1.356 . S
N6184 H6196 0.984 . S
N6184 H6197 0.985 . S
N6185 C6187 1.356 . S
N6185 H6190 0.984 . S
N6185 H6191 0.985 . S
C6186 C6180 1.379 . S
C6186 C6183 1.363 . S
C6186 N6184 1.356 . S
C6187 C6181 1.363 . S
C6187 C6182 1.379 . S
C6187 N6185 1.356 . S
N6188 C6180 1.356 . S
N6188 H6194 0.984 . S
N6188 H6195 0.984 . S
N6189 C6182 1.356 . S
N6189 H6192 0.984 . S
N6189 H6193 0.985 . S
H6190 N6185 0.984 . S
H6191 N6185 0.985 . S
H6192 N6189 0.984 . S
H6193 N6189 0.985 . S
H6194 N6188 0.984 . S
H6195 N6188 0.984 . S
H6196 N6184 0.984 . S
H6197 N6184 0.985 . S
C6198 C6199 1.363 . S
C6198 C6204 1.379 . S
C6198 N6206 1.356 . S
C6199 C6198 1.363 . S
C6199 C6205 1.363 . S
C6200 C6201 1.363 . S
C6200 C6205 1.379 . S
C6200 N6207 1.356 . S
C6201 C6200 1.363 . S
C6201 C6204 1.363 . S
N6202 C6204 1.356 . S
N6202 H6214 0.984 . S
N6202 H6215 0.985 . S
N6203 C6205 1.356 . S
N6203 H6208 0.984 . S
N6203 H6209 0.985 . S
C6204 C6198 1.379 . S
C6204 C6201 1.363 . S
C6204 N6202 1.356 . S
C6205 C6199 1.363 . S
C6205 C6200 1.379 . S
C6205 N6203 1.356 . S
N6206 C6198 1.356 . S
N6206 H6212 0.984 . S
N6206 H6213 0.984 . S
N6207 C6200 1.356 . S
N6207 H6210 0.984 . S
N6207 H6211 0.985 . S
H6208 N6203 0.984 . S
H6209 N6203 0.985 . S
H6210 N6207 0.984 . S
H6211 N6207 0.985 . S
H6212 N6206 0.984 . S
H6213 N6206 0.984 . S
H6214 N6202 0.984 . S
H6215 N6202 0.985 . S
C6216 C6217 1.363 . S
C6216 C6222 1.379 . S
C6216 N6224 1.356 . S
C6217 C6216 1.363 . S
C6217 C6223 1.363 . S
C6218 C6219 1.363 . S
C6218 C6223 1.379 . S
C6218 N6225 1.356 . S
C6219 C6218 1.363 . S
C6219 C6222 1.363 . S
N6220 C6222 1.356 . S
N6220 H6232 0.984 . S
N6220 H6233 0.985 . S
N6221 C6223 1.356 . S
N6221 H6226 0.984 . S
N6221 H6227 0.985 . S
C6222 C6216 1.379 . S
C6222 C6219 1.363 . S
C6222 N6220 1.356 . S
C6223 C6217 1.363 . S
C6223 C6218 1.379 . S
C6223 N6221 1.356 . S
N6224 C6216 1.356 . S
N6224 H6230 0.984 . S
N6224 H6231 0.984 . S
N6225 C6218 1.356 . S
N6225 H6228 0.984 . S
N6225 H6229 0.985 . S
H6226 N6221 0.984 . S
H6227 N6221 0.985 . S
H6228 N6225 0.984 . S
H6229 N6225 0.985 . S
H6230 N6224 0.984 . S
H6231 N6224 0.984 . S
H6232 N6220 0.984 . S
H6233 N6220 0.985 . S
C6234 C6235 1.363 . S
C6234 C6240 1.379 . S
C6234 N6242 1.356 . S
C6235 C6234 1.363 . S
C6235 C6241 1.363 . S
C6236 C6237 1.363 . S
C6236 C6241 1.379 . S
C6236 N6243 1.356 . S
C6237 C6236 1.363 . S
C6237 C6240 1.363 . S
N6238 C6240 1.356 . S
N6238 H6250 0.984 . S
N6238 H6251 0.985 . S
N6239 C6241 1.356 . S
N6239 H6244 0.984 . S
N6239 H6245 0.985 . S
C6240 C6234 1.379 . S
C6240 C6237 1.363 . S
C6240 N6238 1.356 . S
C6241 C6235 1.363 . S
C6241 C6236 1.379 . S
C6241 N6239 1.356 . S
N6242 C6234 1.356 . S
N6242 H6248 0.984 . S
N6242 H6249 0.984 . S
N6243 C6236 1.356 . S
N6243 H6246 0.984 . S
N6243 H6247 0.985 . S
H6244 N6239 0.984 . S
H6245 N6239 0.985 . S
H6246 N6243 0.984 . S
H6247 N6243 0.985 . S
H6248 N6242 0.984 . S
H6249 N6242 0.984 . S
H6250 N6238 0.984 . S
H6251 N6238 0.985 . S
C6252 C6253 1.363 . S
C6252 C6258 1.379 . S
C6252 N6260 1.356 . S
C6253 C6252 1.363 . S
C6253 C6259 1.363 . S
C6254 C6255 1.363 . S
C6254 C6259 1.379 . S
C6254 N6261 1.356 . S
C6255 C6254 1.363 . S
C6255 C6258 1.363 . S
N6256 C6258 1.356 . S
N6256 H6268 0.984 . S
N6256 H6269 0.985 . S
N6257 C6259 1.356 . S
N6257 H6262 0.984 . S
N6257 H6263 0.985 . S
C6258 C6252 1.379 . S
C6258 C6255 1.363 . S
C6258 N6256 1.356 . S
C6259 C6253 1.363 . S
C6259 C6254 1.379 . S
C6259 N6257 1.356 . S
N6260 C6252 1.356 . S
N6260 H6266 0.984 . S
N6260 H6267 0.984 . S
N6261 C6254 1.356 . S
N6261 H6264 0.984 . S
N6261 H6265 0.985 . S
H6262 N6257 0.984 . S
H6263 N6257 0.985 . S
H6264 N6261 0.984 . S
H6265 N6261 0.985 . S
H6266 N6260 0.984 . S
H6267 N6260 0.984 . S
H6268 N6256 0.984 . S
H6269 N6256 0.985 . S
C6270 C6271 1.363 . S
C6270 C6276 1.379 . S
C6270 N6278 1.356 . S
C6271 C6270 1.363 . S
C6271 C6277 1.363 . S
C6272 C6273 1.363 . S
C6272 C6277 1.379 . S
C6272 N6279 1.356 . S
C6273 C6272 1.363 . S
C6273 C6276 1.363 . S
N6274 C6276 1.356 . S
N6274 H6286 0.984 . S
N6274 H6287 0.985 . S
N6275 C6277 1.356 . S
N6275 H6280 0.984 . S
N6275 H6281 0.985 . S
C6276 C6270 1.379 . S
C6276 C6273 1.363 . S
C6276 N6274 1.356 . S
C6277 C6271 1.363 . S
C6277 C6272 1.379 . S
C6277 N6275 1.356 . S
N6278 C6270 1.356 . S
N6278 H6284 0.984 . S
N6278 H6285 0.984 . S
N6279 C6272 1.356 . S
N6279 H6282 0.984 . S
N6279 H6283 0.985 . S
H6280 N6275 0.984 . S
H6281 N6275 0.985 . S
H6282 N6279 0.984 . S
H6283 N6279 0.985 . S
H6284 N6278 0.984 . S
H6285 N6278 0.984 . S
H6286 N6274 0.984 . S
H6287 N6274 0.985 . S
C6288 C6289 1.363 . S
C6288 C6294 1.379 . S
C6288 N6296 1.356 . S
C6289 C6288 1.363 . S
C6289 C6295 1.363 . S
C6290 C6291 1.363 . S
C6290 C6295 1.379 . S
C6290 N6297 1.356 . S
C6291 C6290 1.363 . S
C6291 C6294 1.363 . S
N6292 C6294 1.356 . S
N6292 H6304 0.984 . S
N6292 H6305 0.985 . S
N6293 C6295 1.356 . S
N6293 H6298 0.984 . S
N6293 H6299 0.985 . S
C6294 C6288 1.379 . S
C6294 C6291 1.363 . S
C6294 N6292 1.356 . S
C6295 C6289 1.363 . S
C6295 C6290 1.379 . S
C6295 N6293 1.356 . S
N6296 C6288 1.356 . S
N6296 H6302 0.984 . S
N6296 H6303 0.984 . S
N6297 C6290 1.356 . S
N6297 H6300 0.984 . S
N6297 H6301 0.985 . S
H6298 N6293 0.984 . S
H6299 N6293 0.985 . S
H6300 N6297 0.984 . S
H6301 N6297 0.985 . S
H6302 N6296 0.984 . S
H6303 N6296 0.984 . S
H6304 N6292 0.984 . S
H6305 N6292 0.985 . S
C6306 C6307 1.363 . S
C6306 C6312 1.379 . S
C6306 N6314 1.356 . S
C6307 C6306 1.363 . S
C6307 C6313 1.363 . S
C6308 C6309 1.363 . S
C6308 C6313 1.379 . S
C6308 N6315 1.356 . S
C6309 C6308 1.363 . S
C6309 C6312 1.363 . S
N6310 C6312 1.356 . S
N6310 H6322 0.984 . S
N6310 H6323 0.985 . S
N6311 C6313 1.356 . S
N6311 H6316 0.984 . S
N6311 H6317 0.985 . S
C6312 C6306 1.379 . S
C6312 C6309 1.363 . S
C6312 N6310 1.356 . S
C6313 C6307 1.363 . S
C6313 C6308 1.379 . S
C6313 N6311 1.356 . S
N6314 C6306 1.356 . S
N6314 H6320 0.984 . S
N6314 H6321 0.984 . S
N6315 C6308 1.356 . S
N6315 H6318 0.984 . S
N6315 H6319 0.985 . S
H6316 N6311 0.984 . S
H6317 N6311 0.985 . S
H6318 N6315 0.984 . S
H6319 N6315 0.985 . S
H6320 N6314 0.984 . S
H6321 N6314 0.984 . S
H6322 N6310 0.984 . S
H6323 N6310 0.985 . S
C6324 C6325 1.363 . S
C6324 C6330 1.379 . S
C6324 N6332 1.356 . S
C6325 C6324 1.363 . S
C6325 C6331 1.363 . S
C6326 C6327 1.363 . S
C6326 C6331 1.379 . S
C6326 N6333 1.356 . S
C6327 C6326 1.363 . S
C6327 C6330 1.363 . S
N6328 C6330 1.356 . S
N6328 H6340 0.984 . S
N6328 H6341 0.985 . S
N6329 C6331 1.356 . S
N6329 H6334 0.984 . S
N6329 H6335 0.985 . S
C6330 C6324 1.379 . S
C6330 C6327 1.363 . S
C6330 N6328 1.356 . S
C6331 C6325 1.363 . S
C6331 C6326 1.379 . S
C6331 N6329 1.356 . S
N6332 C6324 1.356 . S
N6332 H6338 0.984 . S
N6332 H6339 0.984 . S
N6333 C6326 1.356 . S
N6333 H6336 0.984 . S
N6333 H6337 0.985 . S
H6334 N6329 0.984 . S
H6335 N6329 0.985 . S
H6336 N6333 0.984 . S
H6337 N6333 0.985 . S
H6338 N6332 0.984 . S
H6339 N6332 0.984 . S
H6340 N6328 0.984 . S
H6341 N6328 0.985 . S
C6342 C6343 1.363 . S
C6342 C6348 1.379 . S
C6342 N6350 1.356 . S
C6343 C6342 1.363 . S
C6343 C6349 1.363 . S
C6344 C6345 1.363 . S
C6344 C6349 1.379 . S
C6344 N6351 1.356 . S
C6345 C6344 1.363 . S
C6345 C6348 1.363 . S
N6346 C6348 1.356 . S
N6346 H6358 0.984 . S
N6346 H6359 0.985 . S
N6347 C6349 1.356 . S
N6347 H6352 0.984 . S
N6347 H6353 0.985 . S
C6348 C6342 1.379 . S
C6348 C6345 1.363 . S
C6348 N6346 1.356 . S
C6349 C6343 1.363 . S
C6349 C6344 1.379 . S
C6349 N6347 1.356 . S
N6350 C6342 1.356 . S
N6350 H6356 0.984 . S
N6350 H6357 0.984 . S
N6351 C6344 1.356 . S
N6351 H6354 0.984 . S
N6351 H6355 0.985 . S
H6352 N6347 0.984 . S
H6353 N6347 0.985 . S
H6354 N6351 0.984 . S
H6355 N6351 0.985 . S
H6356 N6350 0.984 . S
H6357 N6350 0.984 . S
H6358 N6346 0.984 . S
H6359 N6346 0.985 . S
C6360 C6361 1.363 . S
C6360 C6366 1.379 . S
C6360 N6368 1.356 . S
C6361 C6360 1.363 . S
C6361 C6367 1.363 . S
C6362 C6363 1.363 . S
C6362 C6367 1.379 . S
C6362 N6369 1.356 . S
C6363 C6362 1.363 . S
C6363 C6366 1.363 . S
N6364 C6366 1.356 . S
N6364 H6376 0.984 . S
N6364 H6377 0.985 . S
N6365 C6367 1.356 . S
N6365 H6370 0.984 . S
N6365 H6371 0.985 . S
C6366 C6360 1.379 . S
C6366 C6363 1.363 . S
C6366 N6364 1.356 . S
C6367 C6361 1.363 . S
C6367 C6362 1.379 . S
C6367 N6365 1.356 . S
N6368 C6360 1.356 . S
N6368 H6374 0.984 . S
N6368 H6375 0.984 . S
N6369 C6362 1.356 . S
N6369 H6372 0.984 . S
N6369 H6373 0.985 . S
H6370 N6365 0.984 . S
H6371 N6365 0.985 . S
H6372 N6369 0.984 . S
H6373 N6369 0.985 . S
H6374 N6368 0.984 . S
H6375 N6368 0.984 . S
H6376 N6364 0.984 . S
H6377 N6364 0.985 . S
C6378 C6379 1.363 . S
C6378 C6384 1.379 . S
C6378 N6386 1.356 . S
C6379 C6378 1.363 . S
C6379 C6385 1.363 . S
C6380 C6381 1.363 . S
C6380 C6385 1.379 . S
C6380 N6387 1.356 . S
C6381 C6380 1.363 . S
C6381 C6384 1.363 . S
N6382 C6384 1.356 . S
N6382 H6394 0.984 . S
N6382 H6395 0.985 . S
N6383 C6385 1.356 . S
N6383 H6388 0.984 . S
N6383 H6389 0.985 . S
C6384 C6378 1.379 . S
C6384 C6381 1.363 . S
C6384 N6382 1.356 . S
C6385 C6379 1.363 . S
C6385 C6380 1.379 . S
C6385 N6383 1.356 . S
N6386 C6378 1.356 . S
N6386 H6392 0.984 . S
N6386 H6393 0.984 . S
N6387 C6380 1.356 . S
N6387 H6390 0.984 . S
N6387 H6391 0.985 . S
H6388 N6383 0.984 . S
H6389 N6383 0.985 . S
H6390 N6387 0.984 . S
H6391 N6387 0.985 . S
H6392 N6386 0.984 . S
H6393 N6386 0.984 . S
H6394 N6382 0.984 . S
H6395 N6382 0.985 . S
C6396 C6397 1.363 . S
C6396 C6402 1.379 . S
C6396 N6404 1.356 . S
C6397 C6396 1.363 . S
C6397 C6403 1.363 . S
C6398 C6399 1.363 . S
C6398 C6403 1.379 . S
C6398 N6405 1.356 . S
C6399 C6398 1.363 . S
C6399 C6402 1.363 . S
N6400 C6402 1.356 . S
N6400 H6412 0.984 . S
N6400 H6413 0.985 . S
N6401 C6403 1.356 . S
N6401 H6406 0.984 . S
N6401 H6407 0.985 . S
C6402 C6396 1.379 . S
C6402 C6399 1.363 . S
C6402 N6400 1.356 . S
C6403 C6397 1.363 . S
C6403 C6398 1.379 . S
C6403 N6401 1.356 . S
N6404 C6396 1.356 . S
N6404 H6410 0.984 . S
N6404 H6411 0.984 . S
N6405 C6398 1.356 . S
N6405 H6408 0.984 . S
N6405 H6409 0.985 . S
H6406 N6401 0.984 . S
H6407 N6401 0.985 . S
H6408 N6405 0.984 . S
H6409 N6405 0.985 . S
H6410 N6404 0.984 . S
H6411 N6404 0.984 . S
H6412 N6400 0.984 . S
H6413 N6400 0.985 . S
C6414 C6415 1.363 . S
C6414 C6420 1.379 . S
C6414 N6422 1.356 . S
C6415 C6414 1.363 . S
C6415 C6421 1.363 . S
C6416 C6417 1.363 . S
C6416 C6421 1.379 . S
C6416 N6423 1.356 . S
C6417 C6416 1.363 . S
C6417 C6420 1.363 . S
N6418 C6420 1.356 . S
N6418 H6430 0.984 . S
N6418 H6431 0.985 . S
N6419 C6421 1.356 . S
N6419 H6424 0.984 . S
N6419 H6425 0.985 . S
C6420 C6414 1.379 . S
C6420 C6417 1.363 . S
C6420 N6418 1.356 . S
C6421 C6415 1.363 . S
C6421 C6416 1.379 . S
C6421 N6419 1.356 . S
N6422 C6414 1.356 . S
N6422 H6428 0.984 . S
N6422 H6429 0.984 . S
N6423 C6416 1.356 . S
N6423 H6426 0.984 . S
N6423 H6427 0.985 . S
H6424 N6419 0.984 . S
H6425 N6419 0.985 . S
H6426 N6423 0.984 . S
H6427 N6423 0.985 . S
H6428 N6422 0.984 . S
H6429 N6422 0.984 . S
H6430 N6418 0.984 . S
H6431 N6418 0.985 . S
C3841 C2 1.517 . S
C3843 C3221 1.494 . S
C3859 C42 1.518 1_655 S
C3861 C1341 1.495 . S
C3877 C3301 1.494 . S
C3879 C82 1.517 . S
C3895 C1421 1.494 . S
C3897 C122 1.517 . S
C3913 C162 1.517 . S
C3915 C3381 1.494 . S
C3931 C202 1.517 . S
C3933 C1501 1.494 . S
C3949 C3461 1.495 . S
C3951 C242 1.518 . S
C3967 C1581 1.494 . S
C3969 C282 1.517 1_655 S
C3985 C322 1.517 . S
C3987 C3541 1.494 . S
C4003 C362 1.517 . S
C4005 C3821 1.494 . S
C4021 C402 1.518 . S
C4023 C3741 1.495 . S
C4039 C442 1.517 1_554 S
C4041 C3781 1.494 . S
C4057 C1661 1.494 . S
C4059 C482 1.517 . S
C4075 C522 1.518 . S
C4077 C3621 1.495 . S
C4093 C1741 1.494 . S
C4095 C562 1.517 . S
C4111 C1781 1.494 . S
C4113 C602 1.517 1_556 S
C4129 C2901 1.494 . S
C4131 C642 1.517 . S
C4147 C1141 1.495 . S
C4149 C682 1.518 . S
C4165 C3101 1.494 . S
C4167 C722 1.517 . S
C4183 C762 1.518 . S
C4185 C1221 1.494 . S
C4201 C1261 1.494 . S
C4203 C802 1.517 1_565 S
C4219 C842 1.517 . S
C4221 C2981 1.494 . S
C4237 C3021 1.495 . S
C4239 C882 1.518 . S
C4255 C922 1.518 . S
C4257 C2941 1.494 . S
C4273 C2261 1.522 . S
C4275 C962 1.492 . S
C4291 C381 1.522 . S
C4293 C1002 1.492 1_455 S
C4309 C1042 1.492 . S
C4311 C2341 1.522 . S
C4327 C1082 1.492 . S
C4329 C461 1.522 . S
C4345 C1122 1.492 . S
C4347 C2421 1.522 . S
C4363 C541 1.522 . S
C4365 C1162 1.492 . S
C4381 C2501 1.522 . S
C4383 C1202 1.492 . S
C4399 C1242 1.492 1_455 S
C4401 C621 1.522 . S
C4417 C2581 1.522 . S
C4419 C1282 1.492 . S
C4435 C2861 1.522 . S
C4437 C1322 1.492 . S
C4453 C2781 1.522 . S
C4455 C1362 1.492 . S
C4471 C1402 1.492 1_556 S
C4473 C2821 1.522 . S
C4489 C701 1.522 . S
C4491 C1442 1.492 . S
C4507 C1482 1.492 . S
C4509 C2661 1.522 . S
C4525 C781 1.522 . S
C4527 C1522 1.492 . S
C4543 C821 1.522 . S
C4545 C1562 1.492 1_554 S
C4561 C1941 1.522 . S
C4563 C1602 1.492 . S
C4579 C181 1.522 . S
C4581 C1642 1.492 . S
C4597 C2141 1.522 . S
C4599 C1682 1.492 . S
C4615 C261 1.522 . S
C4617 C1722 1.492 . S
C4633 C301 1.522 . S
C4635 C1762 1.492 1_545 S
C4651 C2021 1.522 . S
C4653 C1802 1.492 . S
C4669 C2061 1.522 . S
C4671 C1842 1.492 . S
C4687 C1882 1.492 . S
C4689 C1981 1.522 . S
C4705 C1301 1.494 . S
C4707 C1922 1.517 . S
C4723 C1962 1.518 . S
C4725 C3261 1.495 . S
C4741 C1381 1.494 . S
C4743 C2002 1.517 . S
C4759 C3341 1.494 . S
C4761 C2042 1.517 1_455 S
C4777 C2082 1.517 . S
C4779 C1461 1.494 . S
C4795 C3421 1.494 . S
C4797 C2122 1.517 1_455 S
C4813 C1541 1.495 . S
C4815 C2162 1.518 . S
C4831 C2202 1.517 . S
C4833 C3501 1.494 . S
C4849 C2242 1.517 . S
C4851 C1621 1.494 . S
C4867 C2282 1.517 1_554 S
C4869 C1901 1.494 . S
C4885 C2322 1.518 . S
C4887 C1821 1.494 . S
C4903 C1861 1.494 . S
C4905 C2362 1.517 . S
C4921 C3581 1.494 . S
C4923 C2402 1.517 . S
C4939 C2442 1.518 1_556 S
C4941 C1701 1.495 . S
C4957 C2482 1.517 . S
C4959 C3661 1.494 . S
C4975 C3701 1.494 . S
C4977 C2522 1.517 . S
C4993 C2562 1.517 . S
C4995 C981 1.494 . S
C5011 C2602 1.518 . S
C5013 C3061 1.495 . S
C5029 C1181 1.494 . S
C5031 C2642 1.517 1_545 S
C5047 C3141 1.494 . S
C5049 C2682 1.518 . S
C5065 C3181 1.494 . S
C5067 C2722 1.517 . S
C5083 C1061 1.494 . S
C5085 C2762 1.517 . S
C5101 C1101 1.495 . S
C5103 C2802 1.518 1_565 S
C5119 C2842 1.518 1_545 S
C5121 C1021 1.494 . S
C5137 C341 1.522 . S
C5139 C2882 1.492 . S
C5155 C2301 1.522 . S
C5157 C2922 1.492 . S
C5173 C2962 1.492 . S
C5175 C421 1.522 . S
C5191 C3002 1.492 1_655 S
C5193 C2381 1.522 . S
C5209 C501 1.522 . S
C5211 C3042 1.492 . S
C5227 C3082 1.492 1_655 S
C5229 C2461 1.522 . S
C5245 C581 1.522 . S
C5247 C3122 1.492 . S
C5263 C2541 1.522 . S
C5265 C3162 1.492 . S
C5281 C3202 1.492 . S
C5283 C661 1.522 . S
C5299 C3242 1.492 1_556 S
C5301 C941 1.522 . S
C5317 C861 1.522 . S
C5319 C3282 1.492 . S
C5335 C901 1.522 . S
C5337 C3322 1.492 . S
C5353 C2621 1.522 . S
C5355 C3362 1.492 . S
C5371 C741 1.522 . S
C5373 C3402 1.492 1_554 S
C5389 C3442 1.492 . S
C5391 C2701 1.522 . S
C5407 C2741 1.522 . S
C5409 C3482 1.492 . S
C5425 C21 1.522 . S
C5427 C3522 1.492 . S
C5443 C3562 1.492 . S
C5445 C2101 1.522 . S
C5461 C221 1.522 . S
C5463 C3602 1.492 1_565 S
C5479 C2181 1.522 . S
C5481 C3642 1.492 . S
C5497 C2221 1.522 . S
C5499 C3682 1.492 . S
C5515 C101 1.522 . S
C5517 C3722 1.492 . S
C5533 C3762 1.492 1_545 S
C5535 C141 1.522 . S
C5551 C3802 1.492 1_565 S
C5553 C61 1.522 . S
C5569 C375 1.511 . S
C5571 C15 1.511 . S
C5587 C415 1.511 . S
C5589 C55 1.511 . S
C5605 C455 1.511 . S
C5607 C95 1.511 . S
C5623 C335 1.511 . S
C5625 C135 1.511 . S
C5641 C615 1.511 . S
C5643 C175 1.511 . S
C5659 C495 1.511 . S
C5661 C215 1.511 . S
C5677 C255 1.511 . S
C5679 C535 1.511 . S
C5695 C575 1.511 . S
C5697 C295 1.511 . S
C5713 C655 1.511 . S
C5715 C735 1.511 . S
C5731 C2815 1.511 . S
C5733 C695 1.511 . S
C5749 C775 1.511 . S
C5751 C2855 1.511 . S
C5767 C2775 1.511 . S
C5769 C815 1.511 . S
C5785 C2735 1.511 . S
C5787 C855 1.511 . S
C5803 C895 1.511 . S
C5805 C2615 1.511 . S
C5821 C2695 1.511 . S
C5823 C935 1.511 . S
C5839 C975 1.510 . S
C5841 C1335 1.510 . S
C5857 C1015 1.510 . S
C5859 C1375 1.510 . S
C5875 C1415 1.510 . S
C5877 C1055 1.510 . S
C5893 C1295 1.510 . S
C5895 C1095 1.510 . S
C5911 C1575 1.510 . S
C5913 C1135 1.510 . S
C5929 C1455 1.510 . S
C5931 C1175 1.510 . S
C5947 C1215 1.510 . S
C5949 C1495 1.510 . S
C5965 C1535 1.510 . S
C5967 C1255 1.510 . S
C5983 C1695 1.510 . S
C5985 C1615 1.510 . S
C6001 C1655 1.510 . S
C6003 C3775 1.510 . S
C6019 C1735 1.510 . S
C6021 C3815 1.510 . S
C6037 C3735 1.510 . S
C6039 C1775 1.510 . S
C6055 C1815 1.510 . S
C6057 C3695 1.510 . S
C6073 C1855 1.510 . S
C6075 C3575 1.510 . S
C6091 C3655 1.510 . S
C6093 C1895 1.510 . S
C6109 C2295 1.511 . S
C6111 C1935 1.511 . S
C6127 C1975 1.511 . S
C6129 C2335 1.511 . S
C6145 C2015 1.511 . S
C6147 C2375 1.511 . S
C6163 C2255 1.511 . S
C6165 C2055 1.511 . S
C6181 C2535 1.511 . S
C6183 C2095 1.511 . S
C6199 C2415 1.511 . S
C6201 C2135 1.511 . S
C6217 C2175 1.511 . S
C6219 C2455 1.511 . S
C6235 C2215 1.511 . S
C6237 C2495 1.511 . S
C6253 C2575 1.511 . S
C6255 C2655 1.511 . S
C6271 C3255 1.510 . S
C6273 C2895 1.510 . S
C6289 C2935 1.510 . S
C6291 C3295 1.510 . S
C6307 C3335 1.510 . S
C6309 C2975 1.510 . S
C6325 C3215 1.510 . S
C6327 C3015 1.510 . S
C6343 C3495 1.510 . S
C6345 C3055 1.510 . S
C6361 C3375 1.510 . S
C6363 C3095 1.510 . S
C6379 C3415 1.510 . S
C6381 C3135 1.510 . S
C6397 C3455 1.510 . S
C6399 C3175 1.510 . S
C6415 C3535 1.510 . S
C6417 C3615 1.510 . S
