# Generated by pormake.
# Topology uoo, (4)-cn, num edge types: 1
# Building blocks:
#     Node 0, Type 0, BuildingBlock: QUQFOY_clean_sbu_3, # of connection points: 4
#     Node 1, Type 0, BuildingBlock: QUQFOY_clean_sbu_3, # of connection points: 4
#     Node 2, Type 0, BuildingBlock: QUQFOY_clean_sbu_3, # of connection points: 4
#     Node 3, Type 0, BuildingBlock: QUQFOY_clean_sbu_3, # of connection points: 4
#     Node 4, Type 0, BuildingBlock: QUQFOY_clean_sbu_3, # of connection points: 4
#     Node 5, Type 0, BuildingBlock: QUQFOY_clean_sbu_3, # of connection points: 4
#     Edge 6, Type (0, 0), BuildingBlock: UVAHIK_clean_linker_0, # of connection points: 2
#     Edge 7, Type (0, 0), BuildingBlock: UVAHIK_clean_linker_0, # of connection points: 2
#     Edge 8, Type (0, 0), BuildingBlock: UVAHIK_clean_linker_0, # of connection points: 2
#     Edge 9, Type (0, 0), BuildingBlock: UVAHIK_clean_linker_0, # of connection points: 2
#     Edge 10, Type (0, 0), BuildingBlock: UVAHIK_clean_linker_0, # of connection points: 2
#     Edge 11, Type (0, 0), BuildingBlock: UVAHIK_clean_linker_0, # of connection points: 2
#     Edge 12, Type (0, 0), BuildingBlock: UVAHIK_clean_linker_0, # of connection points: 2
#     Edge 13, Type (0, 0), BuildingBlock: UVAHIK_clean_linker_0, # of connection points: 2
#     Edge 14, Type (0, 0), BuildingBlock: UVAHIK_clean_linker_0, # of connection points: 2
#     Edge 15, Type (0, 0), BuildingBlock: UVAHIK_clean_linker_0, # of connection points: 2
#     Edge 16, Type (0, 0), BuildingBlock: UVAHIK_clean_linker_0, # of connection points: 2
#     Edge 17, Type (0, 0), BuildingBlock: UVAHIK_clean_linker_0, # of connection points: 2
# Relax obj value: 0.207
# Max RMSD: 0.153
# Mean RMSD: 0.152
data_MOF--net-uoo--node1-QUQFOY_clean_sbu_3--edge1-UVAHIK_clean_linker_0
_symmetry_space_group_name_H-M    P1
_symmetry_Int_Tables_number       1
_symmetry_cell_setting            triclinic
loop_
_symmetry_equiv_pos_as_xyz
'x, y, z'
_cell_length_a     32.962251
_cell_length_b     32.563126
_cell_length_c     54.746173
_cell_angle_alpha  89.924093
_cell_angle_beta   89.967743
_cell_angle_gamma 120.2423
loop_
_atom_site_label
_atom_site_type_symbol
_atom_site_fract_x
_atom_site_fract_y
_atom_site_fract_z
_atom_type_partial_charge
C0 C 0.18891 0.31984 -0.01198 0.0
O1 O 0.17505 0.33397 0.96992 0.0
Cd2 Cd 0.09666 0.31267 0.96109 0.0
O3 O 0.15935 0.28776 0.00244 0.0
Cd4 Cd 0.07082 0.23727 0.0024 0.0
C5 C 0.06044 0.20041 0.94297 0.0
O6 O 0.06716 0.30936 0.00099 0.0
O7 O -0.00029 0.24654 -0.00216 0.0
O8 O 0.08124 0.22619 0.04606 0.0
C9 C 0.02324 0.29123 0.00056 0.0
O10 O 0.06376 0.23995 0.93756 0.0
C11 C 0.04363 0.18637 0.04816 0.0
O12 O 0.06621 0.19122 0.96494 0.0
O13 O 0.02018 0.16881 0.02875 0.0
C14 C 0.6971 0.06955 0.34675 0.0
O15 O 0.71153 0.09916 0.36423 0.0
Cd16 Cd 0.78997 0.15914 0.37177 0.0
O17 O 0.72615 0.06669 0.33236 0.0
Cd18 Cd 0.8148 0.10701 0.33184 0.0
C19 C 0.82853 0.08688 0.39196 0.0
O20 O 0.8184 0.18277 0.3314 0.0
O21 O 0.88589 0.18885 0.33489 0.0
O22 O 0.80542 0.0848 0.28826 0.0
C23 C 0.86234 0.20934 0.33139 0.0
O24 O 0.82454 0.12298 0.39639 0.0
C25 C 0.84226 0.08177 0.28684 0.0
O26 O 0.8221 0.06987 0.37039 0.0
O27 O 0.86441 0.08707 0.30664 0.0
C28 C 0.59017 0.86365 0.65806 0.0
O29 O 0.57147 0.83444 0.64059 0.0
Cd30 Cd 0.58235 0.76937 0.63186 0.0
O31 O 0.62084 0.86251 0.67185 0.0
Cd32 Cd 0.66188 0.81505 0.67225 0.0
C33 C 0.69476 0.83502 0.61179 0.0
O34 O 0.58645 0.74279 0.67173 0.0
O35 O 0.64469 0.73097 0.66941 0.0
O36 O 0.67426 0.83753 0.71565 0.0
C37 C 0.60077 0.71348 0.67178 0.0
O38 O 0.65282 0.80283 0.60712 0.0
C39 C 0.71314 0.83859 0.7176 0.0
O40 O 0.70716 0.84944 0.63367 0.0
O41 O 0.72958 0.83122 0.69817 0.0
C42 C 0.68188 0.60029 -0.00735 0.0
O43 O 0.69121 0.58231 0.97445 0.0
Cd44 Cd 0.76611 0.59397 0.96399 0.0
O45 O 0.71448 0.63078 0.00636 0.0
Cd46 Cd 0.80274 0.67263 0.00485 0.0
C47 C 0.81174 0.70772 0.94495 0.0
O48 O 0.79912 0.59654 0.00295 0.0
O49 O 0.86869 0.65636 -0.00082 0.0
O50 O 0.79666 0.68537 0.04872 0.0
C51 C 0.84261 0.61183 0.00178 0.0
O52 O 0.80265 0.66594 0.93963 0.0
C53 C 0.83541 0.72424 0.05012 0.0
O54 O 0.81023 0.71916 0.96709 0.0
O55 O 0.85785 0.74055 0.03027 0.0
C56 C 0.20519 0.8649 0.34269 0.0
O57 O 0.19491 0.83578 0.36026 0.0
Cd58 Cd 0.11975 0.76982 0.36913 0.0
O59 O 0.17329 0.86355 0.32889 0.0
Cd60 Cd 0.08492 0.81543 0.32961 0.0
C61 C 0.0717 0.83338 0.39016 0.0
O62 O 0.08816 0.74282 0.32958 0.0
O63 O 0.01864 0.73173 0.33356 0.0
O64 O 0.09014 0.8355 0.28586 0.0
C65 C 0.04461 0.71387 0.33027 0.0
O66 O 0.08071 0.8004 0.39439 0.0
C67 C 0.05213 0.83644 0.28511 0.0
O68 O 0.07501 0.84958 0.36855 0.0
O69 O 0.03094 0.83073 0.30531 0.0
C70 C 0.30539 0.07192 0.6544 0.0
O71 O 0.32071 0.10211 0.63712 0.0
Cd72 Cd 0.30069 0.16097 0.62894 0.0
O73 O 0.27285 0.06811 0.66861 0.0
Cd74 Cd 0.22342 0.10728 0.66988 0.0
C75 C 0.18973 0.08569 0.60956 0.0
O76 O 0.29439 0.18313 0.66938 0.0
O77 O 0.23263 0.18899 0.66762 0.0
O78 O 0.2133 0.08657 0.71363 0.0
C79 C 0.27685 0.20963 0.66999 0.0
O80 O 0.22988 0.12113 0.60465 0.0
C81 C 0.17178 0.07935 0.7152 0.0
O82 O 0.17907 0.07043 0.63146 0.0
O83 O 0.1532 0.0822 0.69543 0.0
C84 C 0.10641 0.07456 0.74081 0.0
C85 C 0.14842 0.07345 0.73921 0.0
C86 C 0.08829 0.07685 0.76356 0.0
C87 C 0.09452 0.06216 0.83043 0.0
H88 H 0.06749 0.16482 0.83404 0.0
C89 C 0.08255 0.14598 0.92203 0.0
C90 C 0.05556 0.1683 0.92265 0.0
C91 C 0.08636 0.12513 0.90037 0.0
C92 C 0.07369 0.1352 0.83344 0.0
H93 H 0.2027 0.07086 0.76036 0.0
H94 H 0.17081 0.07451 0.80009 0.0
H95 H 0.08698 0.14419 0.79502 0.0
H96 H 0.00809 0.18261 0.90195 0.0
H97 H 0.01228 0.14395 0.86481 0.0
H98 H 0.0813 0.05329 0.86898 0.0
C99 C 0.15195 0.07368 0.78373 0.0
C100 C 0.08512 0.12351 0.81094 0.0
C101 C 0.17031 0.07176 0.76094 0.0
C102 C 0.0295 0.166 0.90191 0.0
C103 C 0.03245 0.14433 0.8805 0.0
C104 C 0.08248 0.07351 0.85302 0.0
C105 C 0.11152 0.07772 0.78527 0.0
C106 C 0.09609 0.08718 0.80915 0.0
C107 C 0.06262 0.12553 0.87902 0.0
C108 C 0.07227 0.11053 0.85488 0.0
H109 H 0.08855 0.07577 0.72446 0.0
H110 H 0.05671 0.07927 0.76415 0.0
H111 H 0.10258 0.03379 0.82961 0.0
H112 H 0.10339 0.14767 0.93769 0.0
H113 H 0.11012 0.1113 0.90004 0.0
C114 C 0.90876 0.09015 0.26094 0.0
C115 C 0.86149 0.07814 0.26293 0.0
C116 C 0.92931 0.09436 0.238 0.0
C117 C 0.9062 0.06299 0.17296 0.0
H118 H 0.01809 0.18519 0.16173 0.0
C119 C -0.02244 0.13134 0.07567 0.0
C120 C 0.02557 0.16419 0.07241 0.0
C121 C -0.04096 0.11544 0.09908 0.0
C122 C -0.01243 0.15038 0.16452 0.0
H123 H 0.79808 0.05853 0.2424 0.0
H124 H 0.83377 0.06472 0.20233 0.0
H125 H -0.01714 0.16547 0.20215 0.0
H126 H 0.09231 0.20392 0.09101 0.0
H127 H 0.06073 0.17442 0.13163 0.0
H128 H 0.9111 0.04735 0.1355 0.0
C129 C 0.85494 0.07127 0.21856 0.0
C130 C -0.0328 0.13923 0.18778 0.0
C131 C 0.83456 0.06782 0.2415 0.0
C132 C 0.05509 0.17888 0.09294 0.0
C133 C 0.03675 0.16228 0.11631 0.0
C134 C 0.92706 0.07375 0.14975 0.0
C135 C 0.90287 0.08587 0.21655 0.0
C136 C 0.92598 0.09571 0.19219 0.0
C137 C -0.0118 0.13133 0.11985 0.0
C138 C -0.03226 0.11795 0.14505 0.0
H139 H 0.93057 0.09847 0.27705 0.0
H140 H -0.03378 0.1053 0.237 0.0
H141 H 0.87462 0.029 0.17591 0.0
H142 H -0.04622 0.11961 0.06025 0.0
H143 H 0.92147 0.09225 0.10085 0.0
C144 C 0.85744 0.08789 0.4342 0.0
C145 C 0.83524 0.06216 0.41297 0.0
C146 C 0.85591 0.06438 0.45584 0.0
C147 C 0.81966 0.9451 0.48321 0.0
H148 H 0.79227 -0.00061 0.53946 0.0
C149 C 0.71623 0.83713 0.56778 0.0
C150 C 0.72692 0.85899 0.59088 0.0
C151 C 0.74071 0.86231 0.54696 0.0
C152 C 0.80083 -0.01588 0.52413 0.0
H153 H 0.79629 -0.0084 0.39741 0.0
H154 H 0.79232 0.95025 0.43538 0.0
H155 H 0.81419 0.04249 0.50108 0.0
H156 H 0.77387 0.92369 0.61037 0.0
H157 H 0.81675 -0.03212 0.5739 0.0
H158 H 0.8039 0.88554 0.50629 0.0
C159 C 0.81178 -0.01127 0.43527 0.0
C160 C 0.8135 0.00894 0.50199 0.0
C161 C 0.81398 0.0124 0.41344 0.0
C162 C 0.76474 0.9058 0.59287 0.0
C163 C 0.78904 0.93122 0.57195 0.0
C164 C 0.80663 0.92008 0.50539 0.0
C165 C 0.83134 0.01441 0.45699 0.0
C166 C 0.82242 -0.01047 0.48108 0.0
C167 C 0.77635 0.91017 0.54865 0.0
C168 C 0.79629 0.93897 0.52601 0.0
H169 H 0.87458 0.12633 0.43432 0.0
H170 H 0.87265 0.08549 0.47193 0.0
H171 H 0.82695 0.9293 0.46767 0.0
H172 H 0.68746 0.80101 0.56559 0.0
H173 H 0.72974 0.84504 0.52936 0.0
C174 C 0.83478 0.73469 0.90184 0.0
C175 C 0.81847 0.74059 0.92456 0.0
C176 C 0.83308 0.75901 0.88117 0.0
C177 C 0.76101 0.80341 0.85571 0.0
H178 H 0.85521 0.85417 0.80454 0.0
C179 C 0.71955 0.85636 0.7625 0.0
C180 C 0.73561 0.84344 0.74173 0.0
C181 C 0.73649 0.85498 0.78576 0.0
C182 C 0.82832 0.8398 0.81853 0.0
H183 H 0.78961 0.7784 0.94364 0.0
H184 H 0.78592 0.82052 0.90729 0.0
H185 H 0.87381 0.83231 0.84389 0.0
H186 H 0.78331 0.82049 0.72905 0.0
H187 H 0.81172 0.81659 0.76947 0.0
H188 H 0.71454 0.80811 0.83019 0.0
C189 C 0.80023 0.79713 0.9056 0.0
C190 C 0.83917 0.82758 0.84115 0.0
C191 C 0.8027 0.77334 0.92643 0.0
C192 C 0.77036 0.83092 0.74465 0.0
C193 C 0.78686 0.82893 0.76793 0.0
C194 C 0.74994 0.81503 0.83302 0.0
C195 C 0.81434 0.7893 0.88263 0.0
C196 C 0.80536 0.80846 0.85985 0.0
C197 C 0.76946 0.83998 0.78891 0.0
C198 C 0.78313 0.83256 0.8139 0.0
H199 H 0.84717 0.70974 0.89981 0.0
H200 H 0.84391 0.75192 0.86375 0.0
H201 H 0.73395 0.7881 0.86961 0.0
H202 H 0.69302 0.86652 0.76086 0.0
H203 H 0.72299 0.86485 0.80133 0.0
C204 C 0.05674 0.84908 0.23967 0.0
C205 C 0.03099 0.83864 0.26155 0.0
C206 C 0.03487 0.84468 0.21711 0.0
C207 C 0.92063 0.77491 0.18827 0.0
H208 H -0.02594 0.86503 0.13489 0.0
C209 C 0.82715 0.73339 0.09506 0.0
C210 C 0.85541 0.74683 0.07402 0.0
C211 C 0.84703 0.75052 0.11806 0.0
C212 C -0.04118 0.83914 0.14947 0.0
H213 H -0.03757 0.8171 0.2769 0.0
H214 H 0.92421 0.80876 0.2375 0.0
H215 H 0.0127 0.88464 0.1747 0.0
H216 H 0.92659 0.7898 0.06056 0.0
H217 H -0.03845 0.8182 0.10057 0.0
H218 H 0.8682 0.7283 0.16313 0.0
C219 C -0.03867 0.82042 0.23784 0.0
C220 C -0.01908 0.8506 0.17234 0.0
C221 C -0.01667 0.8255 0.26041 0.0
C222 C 0.90378 0.779 0.0764 0.0
C223 C 0.92381 0.79549 0.09945 0.0
C224 C 0.89897 0.76311 0.16537 0.0
C225 C -0.01337 0.82907 0.21593 0.0
C226 C -0.03786 0.8185 0.19196 0.0
C227 C 0.89587 0.78084 0.12071 0.0
C228 C 0.91781 0.7949 0.14553 0.0
H229 H 0.09349 0.85925 0.23992 0.0
H230 H 0.05523 0.85136 0.20052 0.0
H231 H 0.90571 0.74911 0.20294 0.0
H232 H 0.78969 0.70892 0.09382 0.0
H233 H 0.82401 0.73933 0.13381 0.0
C234 C 0.16621 0.08111 0.56575 0.0
C235 C 0.15815 0.05938 0.58887 0.0
C236 C 0.14284 0.05459 0.54508 0.0
C237 C 0.09346 0.93353 0.5224 0.0
H238 H 0.05741 -0.01882 0.46648 0.0
C239 C 0.04311 0.82921 0.43281 0.0
C240 C 0.06258 0.8558 0.41138 0.0
C241 C 0.04271 0.85149 0.45452 0.0
C242 C 0.06753 -0.03259 0.48187 0.0
H243 H 0.11683 -0.00678 0.60857 0.0
H244 H 0.07594 0.94672 0.57237 0.0
H245 H 0.07771 0.02501 0.50499 0.0
H246 H 0.09453 0.9263 0.39557 0.0
H247 H 0.09522 -0.03434 0.43366 0.0
H248 H 0.0857 0.87735 0.49929 0.0
C249 C 0.10074 -0.01566 0.57028 0.0
C250 C 0.07898 -0.00754 0.50398 0.0
C251 C 0.12388 0.01105 0.59106 0.0
C252 C 0.07902 0.90484 0.41176 0.0
C253 C 0.07933 0.92736 0.43366 0.0
C254 C 0.08238 0.90873 0.50032 0.0
C255 C 0.11101 0.00554 0.54695 0.0
C256 C 0.09281 -0.02381 0.52441 0.0
C257 C 0.06264 0.90115 0.45554 0.0
C258 C 0.06992 0.92562 0.47959 0.0
H259 H 0.19219 0.11835 0.56341 0.0
H260 H 0.15188 0.07205 0.52744 0.0
H261 H 0.10483 0.92041 0.53757 0.0
H262 H 0.02967 0.79123 0.43301 0.0
H263 H 0.02821 0.82984 0.47074 0.0
C264 C 0.25761 0.34721 0.01668 0.0
C265 C 0.23994 0.34463 -0.00701 0.0
C266 C 0.30546 0.37787 0.0216 0.0
C267 C 0.40523 0.48763 -0.00304 0.0
H268 H 0.48583 0.45309 0.03206 0.0
C269 C 0.60064 0.57204 0.97854 0.0
C270 C 0.63212 0.58339 -0.00198 0.0
C271 C 0.55249 0.54926 -0.01719 0.0
C272 C 0.46349 0.46356 0.02271 0.0
H273 H 0.25907 0.36914 0.9556 0.0
H274 H 0.34177 0.42148 0.96407 0.0
H275 H 0.40102 0.39683 0.03013 0.0
H276 H 0.63836 0.58099 0.03731 0.0
H277 H 0.5531 0.53963 0.04483 0.0
H278 H 0.4676 0.55322 -0.01148 0.0
C279 C 0.31876 0.40117 0.97901 0.0
C280 C 0.41507 0.43135 0.02154 0.0
C281 C 0.27136 0.37085 0.97413 0.0
C282 C 0.61468 0.57298 0.02203 0.0
C283 C 0.5661 0.54908 0.0263 0.0
C284 C 0.45336 0.51956 -0.00194 0.0
C285 C 0.33611 0.40629 0.0029 0.0
C286 C 0.38582 0.44244 0.00782 0.0
C287 C 0.53463 0.53652 0.00664 0.0
C288 C 0.48318 0.50718 0.01017 0.0
H289 H 0.23418 0.32747 0.03158 0.0
H290 H 0.31804 0.38089 0.04015 0.0
H291 H 0.38334 0.49764 -0.01321 0.0
H292 H 0.61325 0.57962 0.95987 0.0
H293 H 0.52905 0.53958 0.96729 0.0
C294 C 0.93252 0.29199 0.3308 0.0
C295 C 0.88364 0.26149 0.33019 0.0
C296 C -0.04836 0.34135 0.32986 0.0
C297 C 0.92155 0.43301 0.3125 0.0
H298 H 0.02438 0.51444 0.35547 0.0
C299 C -0.02226 0.62963 0.32985 0.0
C300 C 0.02623 0.66213 0.32974 0.0
C301 C -0.03895 0.58072 0.32931 0.0
C302 C -0.00408 0.49216 0.34321 0.0
H303 H 0.81649 0.25869 0.32812 0.0
H304 H 0.84959 0.34407 0.32691 0.0
H305 H -0.00484 0.4291 0.35504 0.0
H306 H 0.09527 0.66902 0.32897 0.0
H307 H 0.06613 0.58397 0.32804 0.0
H308 H 0.92192 0.49602 0.30094 0.0
C309 C 0.87333 0.33022 0.32766 0.0
C310 C -0.02068 0.44333 0.34289 0.0
C311 C 0.85434 0.28118 0.32854 0.0
C312 C 0.05766 0.64487 0.32912 0.0
C313 C 0.04102 0.59613 0.32873 0.0
C314 C 0.938 0.48176 0.31291 0.0
C315 C 0.92216 0.36094 0.32827 0.0
C316 C 0.94171 0.41316 0.32766 0.0
C317 C -0.00741 0.56354 0.32882 0.0
C318 C -0.02481 0.5118 0.32834 0.0
H319 H -0.04408 0.27778 0.332 0.0
H320 H -0.01055 0.36413 0.33015 0.0
H321 H 0.89306 0.41084 0.30023 0.0
H322 H -0.04726 0.64193 0.33032 0.0
H323 H 0.92349 0.55634 0.3296 0.0
C324 C 0.33382 0.03045 0.68245 0.0
C325 C 0.32946 0.0447 0.65881 0.0
C326 C 0.36482 0.01355 0.68686 0.0
C327 C 0.47225 0.0243 0.66016 0.0
H328 H 0.44444 0.91196 0.69761 0.0
C329 C 0.56024 0.91526 0.64308 0.0
C330 C 0.57326 0.89697 0.66285 0.0
C331 C 0.53688 0.94032 0.64702 0.0
C332 C 0.45303 0.94403 0.68756 0.0
H333 H 0.35077 0.04861 0.62099 0.0
H334 H 0.40357 0.01846 0.62853 0.0
H335 H 0.38674 0.93844 0.69591 0.0
H336 H 0.57341 0.89149 0.70229 0.0
H337 H 0.53117 0.93486 0.70923 0.0
H338 H 0.53743 0.02881 0.6509 0.0
C339 C 0.3845 0.02171 0.64382 0.0
C340 C 0.41999 0.95904 0.68652 0.0
C341 C 0.35392 0.0386 0.63947 0.0
C342 C 0.56411 0.90575 0.68677 0.0
C343 C 0.53969 0.9301 0.69072 0.0
C344 C 0.50501 0.00928 0.66113 0.0
C345 C 0.39169 0.01072 0.66765 0.0
C346 C 0.42864 -0.0017 0.67204 0.0
C347 C 0.52527 0.94693 0.67081 0.0
C348 C 0.49507 -0.0319 0.67414 0.0
H349 H 0.31548 0.03494 0.69771 0.0
H350 H 0.36946 0.00496 0.70539 0.0
H351 H 0.48044 0.05549 0.6494 0.0
H352 H 0.5668 0.90884 0.62447 0.0
H353 H 0.52579 0.95247 0.63132 0.0
C354 C 0.28927 0.29251 0.67091 0.0
C355 C 0.30758 0.2618 0.67103 0.0
C356 C 0.31951 0.34185 0.6719 0.0
C357 C 0.44112 0.43246 0.68901 0.0
H358 H 0.42055 0.51553 0.64652 0.0
C359 C 0.5826 0.62876 0.67233 0.0
C360 C 0.56713 0.66181 0.67225 0.0
C361 C 0.55007 0.57997 0.67278 0.0
C362 C 0.4265 0.49281 0.65867 0.0
H363 H 0.37184 0.25866 0.67219 0.0
H364 H 0.42403 0.34392 0.67355 0.0
H365 H 0.36398 0.43037 0.64682 0.0
H366 H 0.50553 0.66973 0.67263 0.0
H367 H 0.44913 0.58495 0.67348 0.0
H368 H 0.50389 0.49479 0.70065 0.0
C369 C 0.38652 0.33026 0.67313 0.0
C370 C 0.39402 0.44408 0.6589 0.0
C371 C 0.35649 0.28128 0.67216 0.0
C372 C 0.51863 0.64517 0.67261 0.0
C373 C 0.48623 0.59656 0.67296 0.0
C374 C 0.47363 0.48111 0.68873 0.0
C375 C 0.36849 0.36117 0.67309 0.0
C376 C 0.4012 0.41331 0.67392 0.0
C377 C 0.50154 0.56341 0.67303 0.0
C378 C 0.46683 0.51177 0.67344 0.0
H379 H 0.25172 0.27847 0.6701 0.0
H380 H 0.30458 0.36482 0.672 0.0
H381 H 0.44725 0.40981 0.70112 0.0
H382 H 0.61975 0.64056 0.67204 0.0
H383 H 0.56288 0.55518 0.6726 0.0
C384 C 0.82925 0.52932 0.00178 0.0
C385 C 0.86078 0.5786 0.00119 0.0
C386 C 0.84567 0.49736 0.0012 0.0
C387 C -0.05108 0.48771 -0.01575 0.0
H388 H 0.89013 0.37541 0.02549 0.0
C389 C 0.0315 0.37154 0.00059 0.0
C390 C 0.00207 0.32188 0.00023 0.0
C391 C 0.01267 0.40139 2e-05 0.0
C392 C 0.90646 0.40627 0.01364 0.0
H393 H 0.9343 0.63308 -0.00035 0.0
H394 H -0.03679 0.57712 -0.00104 0.0
H395 H 0.8614 0.43136 0.0263 0.0
H396 H 0.92968 0.26453 -0.00078 0.0
H397 H 0.89647 0.3171 -0.00172 0.0
H398 H -0.00566 0.4629 0.97184 0.0
C399 C 0.92567 0.56323 -0.00049 0.0
C400 C 0.89009 0.43838 0.01411 0.0
C401 C 0.90918 0.5953 3e-05 0.0
C402 C -0.04681 0.30265 -0.00051 0.0
C403 C 0.93424 0.33271 -0.00096 0.0
C404 C -0.03464 0.45571 -0.01615 0.0
C405 C 0.89405 0.51387 9e-05 0.0
C406 C 0.91129 0.47961 -0.00049 0.0
C407 C -0.03611 0.38241 -0.00083 0.0
C408 C -0.05546 0.41483 -0.00134 0.0
H409 H 0.79169 0.51527 0.00258 0.0
H410 H 0.82035 0.45963 0.00129 0.0
H411 H -0.03457 0.5186 0.97243 0.0
H412 H 0.06934 0.38758 0.00127 0.0
H413 H 0.03641 0.43948 0.00056 0.0
C414 C 0.62753 0.02868 0.31859 0.0
C415 C 0.64592 0.0422 0.34229 0.0
C416 C 0.57974 0.01198 0.31418 0.0
C417 C 0.48333 0.02292 0.34103 0.0
H418 H 0.39878 0.91164 0.30328 0.0
C419 C 0.28639 0.91679 0.35762 0.0
C420 C 0.25531 0.89821 0.33784 0.0
C421 C 0.33473 0.94132 0.35376 0.0
C422 C 0.42225 0.94342 0.31342 0.0
H423 H 0.62818 0.04492 0.38018 0.0
H424 H 0.54546 0.01522 0.37262 0.0
H425 H 0.48261 0.93715 0.30505 0.0
H426 H 0.25005 0.89177 0.29844 0.0
H427 H 0.33551 0.93433 0.29164 0.0
H428 H 0.42309 0.02827 0.35023 0.0
C429 C 0.56787 0.01883 0.3573 0.0
C430 C 0.47011 0.95787 0.3145 0.0
C431 C 0.61522 0.03548 0.36166 0.0
C432 C 0.27341 0.90628 0.31396 0.0
C433 C 0.32212 0.93015 0.3101 0.0
C434 C 0.43576 0.00851 0.33998 0.0
C435 C 0.54992 0.00864 0.33344 0.0
C436 C 0.50073 -0.00326 0.32908 0.0
C437 C 0.35315 0.94717 0.33005 0.0
C438 C 0.40445 -0.0323 0.32687 0.0
H439 H 0.65045 0.03366 0.3033 0.0
H440 H 0.5667 0.00402 0.29563 0.0
H441 H 0.50634 0.05382 0.35188 0.0
H442 H 0.27327 0.91087 0.3762 0.0
H443 H 0.35772 0.95358 0.36951 0.0
loop_
_geom_bond_atom_site_label_1
_geom_bond_atom_site_label_2
_geom_bond_distance
_geom_bond_site_symmetry_2
_ccdc_geom_bond_type
C0 O1 1.306 . S
C0 O3 1.160 . S
O1 C0 1.306 . S
O1 Cd2 2.228 1_554 S
Cd2 O1 2.228 1_556 S
Cd2 O6 2.273 1_556 S
Cd2 O10 2.277 . S
O3 C0 1.160 . S
O3 Cd4 2.203 . S
Cd4 O3 2.203 . S
Cd4 O6 2.411 . S
Cd4 O7 2.333 . S
Cd4 O8 2.352 . S
Cd4 O12 2.277 1_554 S
Cd4 O13 2.356 . S
C5 O10 1.209 . S
C5 O12 1.226 . S
O6 Cd2 2.273 1_554 S
O6 Cd4 2.411 . S
O6 C9 1.320 . S
O7 Cd4 2.333 . S
O7 C9 1.214 . S
O8 Cd4 2.352 . S
O8 C11 1.258 . S
C9 O6 1.320 . S
C9 O7 1.214 . S
O10 Cd2 2.277 . S
O10 C5 1.209 . S
C11 O8 1.258 . S
C11 O13 1.282 . S
O12 Cd4 2.277 1_556 S
O12 C5 1.226 . S
O13 Cd4 2.356 . S
O13 C11 1.282 . S
C14 O15 1.306 . S
C14 O17 1.160 . S
O15 C14 1.306 . S
O15 Cd16 2.228 . S
Cd16 O15 2.228 . S
Cd16 O20 2.273 . S
Cd16 O24 2.277 . S
O17 C14 1.160 . S
O17 Cd18 2.203 . S
Cd18 O17 2.203 . S
Cd18 O20 2.411 . S
Cd18 O21 2.333 . S
Cd18 O22 2.352 . S
Cd18 O26 2.277 . S
Cd18 O27 2.356 . S
C19 O24 1.209 . S
C19 O26 1.226 . S
O20 Cd16 2.273 . S
O20 Cd18 2.411 . S
O20 C23 1.320 . S
O21 Cd18 2.333 . S
O21 C23 1.214 . S
O22 Cd18 2.352 . S
O22 C25 1.258 . S
C23 O20 1.320 . S
C23 O21 1.214 . S
O24 Cd16 2.277 . S
O24 C19 1.209 . S
C25 O22 1.258 . S
C25 O27 1.282 . S
O26 Cd18 2.277 . S
O26 C19 1.226 . S
O27 Cd18 2.356 . S
O27 C25 1.282 . S
C28 O29 1.306 . S
C28 O31 1.160 . S
O29 C28 1.306 . S
O29 Cd30 2.228 . S
Cd30 O29 2.228 . S
Cd30 O34 2.273 . S
Cd30 O38 2.277 . S
O31 C28 1.160 . S
O31 Cd32 2.203 . S
Cd32 O31 2.203 . S
Cd32 O34 2.411 . S
Cd32 O35 2.333 . S
Cd32 O36 2.352 . S
Cd32 O40 2.277 . S
Cd32 O41 2.356 . S
C33 O38 1.209 . S
C33 O40 1.226 . S
O34 Cd30 2.273 . S
O34 Cd32 2.411 . S
O34 C37 1.320 . S
O35 Cd32 2.333 . S
O35 C37 1.214 . S
O36 Cd32 2.352 . S
O36 C39 1.258 . S
C37 O34 1.320 . S
C37 O35 1.214 . S
O38 Cd30 2.277 . S
O38 C33 1.209 . S
C39 O36 1.258 . S
C39 O41 1.282 . S
O40 Cd32 2.277 . S
O40 C33 1.226 . S
O41 Cd32 2.356 . S
O41 C39 1.282 . S
C42 O43 1.306 . S
C42 O45 1.160 . S
O43 C42 1.306 . S
O43 Cd44 2.228 1_554 S
Cd44 O43 2.228 1_556 S
Cd44 O48 2.273 1_556 S
Cd44 O52 2.277 . S
O45 C42 1.160 . S
O45 Cd46 2.203 . S
Cd46 O45 2.203 . S
Cd46 O48 2.411 . S
Cd46 O49 2.333 . S
Cd46 O50 2.352 . S
Cd46 O54 2.277 1_554 S
Cd46 O55 2.356 . S
C47 O52 1.209 . S
C47 O54 1.226 . S
O48 Cd44 2.273 1_554 S
O48 Cd46 2.411 . S
O48 C51 1.320 . S
O49 Cd46 2.333 . S
O49 C51 1.214 . S
O50 Cd46 2.352 . S
O50 C53 1.258 . S
C51 O48 1.320 . S
C51 O49 1.214 . S
O52 Cd44 2.277 . S
O52 C47 1.209 . S
C53 O50 1.258 . S
C53 O55 1.282 . S
O54 Cd46 2.277 1_556 S
O54 C47 1.226 . S
O55 Cd46 2.356 . S
O55 C53 1.282 . S
C56 O57 1.306 . S
C56 O59 1.160 . S
O57 C56 1.306 . S
O57 Cd58 2.228 . S
Cd58 O57 2.228 . S
Cd58 O62 2.273 . S
Cd58 O66 2.277 . S
O59 C56 1.160 . S
O59 Cd60 2.203 . S
Cd60 O59 2.203 . S
Cd60 O62 2.411 . S
Cd60 O63 2.333 . S
Cd60 O64 2.352 . S
Cd60 O68 2.277 . S
Cd60 O69 2.356 . S
C61 O66 1.209 . S
C61 O68 1.226 . S
O62 Cd58 2.273 . S
O62 Cd60 2.411 . S
O62 C65 1.320 . S
O63 Cd60 2.333 . S
O63 C65 1.214 . S
O64 Cd60 2.352 . S
O64 C67 1.258 . S
C65 O62 1.320 . S
C65 O63 1.214 . S
O66 Cd58 2.277 . S
O66 C61 1.209 . S
C67 O64 1.258 . S
C67 O69 1.282 . S
O68 Cd60 2.277 . S
O68 C61 1.226 . S
O69 Cd60 2.356 . S
O69 C67 1.282 . S
C70 O71 1.306 . S
C70 O73 1.160 . S
O71 C70 1.306 . S
O71 Cd72 2.228 . S
Cd72 O71 2.228 . S
Cd72 O76 2.273 . S
Cd72 O80 2.277 . S
O73 C70 1.160 . S
O73 Cd74 2.203 . S
Cd74 O73 2.203 . S
Cd74 O76 2.411 . S
Cd74 O77 2.333 . S
Cd74 O78 2.352 . S
Cd74 O82 2.277 . S
Cd74 O83 2.356 . S
C75 O80 1.209 . S
C75 O82 1.226 . S
O76 Cd72 2.273 . S
O76 Cd74 2.411 . S
O76 C79 1.320 . S
O77 Cd74 2.333 . S
O77 C79 1.214 . S
O78 Cd74 2.352 . S
O78 C81 1.258 . S
C79 O76 1.320 . S
C79 O77 1.214 . S
O80 Cd72 2.277 . S
O80 C75 1.209 . S
C81 O78 1.258 . S
C81 O83 1.282 . S
O82 Cd74 2.277 . S
O82 C75 1.226 . S
O83 Cd74 2.356 . S
O83 C81 1.282 . S
C84 C85 1.349 . S
C84 C86 1.327 . S
C84 H109 0.950 . S
C85 C84 1.349 . S
C85 C101 1.349 . S
C86 C84 1.327 . S
C86 C105 1.429 . S
C86 H110 0.950 . S
C87 C104 1.574 . S
C87 C106 1.368 . S
C87 H111 0.949 . S
H88 C92 0.949 . S
C89 C90 1.349 . S
C89 C91 1.327 . S
C89 H112 0.950 . S
C90 C89 1.349 . S
C90 C102 1.349 . S
C91 C89 1.327 . S
C91 C107 1.429 . S
C91 H113 0.950 . S
C92 H88 0.949 . S
C92 C100 1.574 . S
C92 C108 1.368 . S
H93 C101 0.950 . S
H94 C99 0.950 . S
H95 C100 0.949 . S
H96 C102 0.950 . S
H97 C103 0.950 . S
H98 C104 0.949 . S
C99 H94 0.950 . S
C99 C101 1.327 . S
C99 C105 1.429 . S
C100 C92 1.574 . S
C100 H95 0.949 . S
C100 C106 1.368 . S
C101 C85 1.349 . S
C101 H93 0.950 . S
C101 C99 1.327 . S
C102 C90 1.349 . S
C102 H96 0.950 . S
C102 C103 1.327 . S
C103 H97 0.950 . S
C103 C102 1.327 . S
C103 C107 1.429 . S
C104 C87 1.574 . S
C104 H98 0.949 . S
C104 C108 1.368 . S
C105 C86 1.429 . S
C105 C99 1.429 . S
C105 C106 1.523 . S
C106 C87 1.368 . S
C106 C100 1.368 . S
C106 C105 1.523 . S
C107 C91 1.429 . S
C107 C103 1.429 . S
C107 C108 1.523 . S
C108 C92 1.368 . S
C108 C104 1.368 . S
C108 C107 1.523 . S
H109 C84 0.950 . S
H110 C86 0.950 . S
H111 C87 0.949 . S
H112 C89 0.950 . S
H113 C91 0.950 . S
C114 C115 1.349 . S
C114 C116 1.327 . S
C114 H139 0.950 . S
C115 C114 1.349 . S
C115 C131 1.349 . S
C116 C114 1.327 . S
C116 C135 1.429 . S
C116 H140 0.950 1_655 S
C117 C134 1.574 . S
C117 C136 1.368 . S
C117 H141 0.949 . S
H118 C122 0.949 . S
C119 C120 1.349 . S
C119 C121 1.327 . S
C119 H142 0.950 . S
C120 C119 1.349 . S
C120 C132 1.349 . S
C121 C119 1.327 . S
C121 C137 1.429 . S
C121 H143 0.950 1_455 S
C122 H118 0.949 . S
C122 C130 1.574 . S
C122 C138 1.368 . S
H123 C131 0.950 . S
H124 C129 0.950 . S
H125 C130 0.949 . S
H126 C132 0.950 . S
H127 C133 0.950 . S
H128 C134 0.949 . S
C129 H124 0.950 . S
C129 C131 1.327 . S
C129 C135 1.429 . S
C130 C122 1.574 . S
C130 H125 0.949 . S
C130 C136 1.368 1_455 S
C131 C115 1.349 . S
C131 H123 0.950 . S
C131 C129 1.327 . S
C132 C120 1.349 . S
C132 H126 0.950 . S
C132 C133 1.327 . S
C133 H127 0.950 . S
C133 C132 1.327 . S
C133 C137 1.429 . S
C134 C117 1.574 . S
C134 H128 0.949 . S
C134 C138 1.368 1_655 S
C135 C116 1.429 . S
C135 C129 1.429 . S
C135 C136 1.523 . S
C136 C117 1.368 . S
C136 C130 1.368 1_655 S
C136 C135 1.523 . S
C137 C121 1.429 . S
C137 C133 1.429 . S
C137 C138 1.523 . S
C138 C122 1.368 . S
C138 C134 1.368 1_455 S
C138 C137 1.523 . S
H139 C114 0.950 . S
H140 C116 0.950 1_455 S
H141 C117 0.949 . S
H142 C119 0.950 . S
H143 C121 0.950 1_655 S
C144 C145 1.349 . S
C144 C146 1.327 . S
C144 H169 0.950 . S
C145 C144 1.349 . S
C145 C161 1.349 . S
C146 C144 1.327 . S
C146 C165 1.429 . S
C146 H170 0.950 . S
C147 C164 1.574 . S
C147 C166 1.368 1_565 S
C147 H171 0.949 . S
H148 C152 0.949 . S
C149 C150 1.349 . S
C149 C151 1.327 . S
C149 H172 0.950 . S
C150 C149 1.349 . S
C150 C162 1.349 . S
C151 C149 1.327 . S
C151 C167 1.429 . S
C151 H173 0.950 . S
C152 H148 0.949 . S
C152 C160 1.574 . S
C152 C168 1.368 1_545 S
H153 C161 0.950 . S
H154 C159 0.950 1_565 S
H155 C160 0.949 . S
H156 C162 0.950 . S
H157 C163 0.950 1_545 S
H158 C164 0.949 . S
C159 H154 0.950 1_545 S
C159 C161 1.327 . S
C159 C165 1.429 . S
C160 C152 1.574 . S
C160 H155 0.949 . S
C160 C166 1.368 . S
C161 C145 1.349 . S
C161 H153 0.950 . S
C161 C159 1.327 . S
C162 C150 1.349 . S
C162 H156 0.950 . S
C162 C163 1.327 . S
C163 H157 0.950 1_565 S
C163 C162 1.327 . S
C163 C167 1.429 . S
C164 C147 1.574 . S
C164 H158 0.949 . S
C164 C168 1.368 . S
C165 C146 1.429 . S
C165 C159 1.429 . S
C165 C166 1.523 . S
C166 C147 1.368 1_545 S
C166 C160 1.368 . S
C166 C165 1.523 . S
C167 C151 1.429 . S
C167 C163 1.429 . S
C167 C168 1.523 . S
C168 C152 1.368 1_565 S
C168 C164 1.368 . S
C168 C167 1.523 . S
H169 C144 0.950 . S
H170 C146 0.950 . S
H171 C147 0.949 . S
H172 C149 0.950 . S
H173 C151 0.950 . S
C174 C175 1.349 . S
C174 C176 1.327 . S
C174 H199 0.950 . S
C175 C174 1.349 . S
C175 C191 1.349 . S
C176 C174 1.327 . S
C176 C195 1.429 . S
C176 H200 0.950 . S
C177 C194 1.574 . S
C177 C196 1.368 . S
C177 H201 0.949 . S
H178 C182 0.949 . S
C179 C180 1.349 . S
C179 C181 1.327 . S
C179 H202 0.950 . S
C180 C179 1.349 . S
C180 C192 1.349 . S
C181 C179 1.327 . S
C181 C197 1.429 . S
C181 H203 0.950 . S
C182 H178 0.949 . S
C182 C190 1.574 . S
C182 C198 1.368 . S
H183 C191 0.950 . S
H184 C189 0.950 . S
H185 C190 0.949 . S
H186 C192 0.950 . S
H187 C193 0.950 . S
H188 C194 0.949 . S
C189 H184 0.950 . S
C189 C191 1.327 . S
C189 C195 1.429 . S
C190 C182 1.574 . S
C190 H185 0.949 . S
C190 C196 1.368 . S
C191 C175 1.349 . S
C191 H183 0.950 . S
C191 C189 1.327 . S
C192 C180 1.349 . S
C192 H186 0.950 . S
C192 C193 1.327 . S
C193 H187 0.950 . S
C193 C192 1.327 . S
C193 C197 1.429 . S
C194 C177 1.574 . S
C194 H188 0.949 . S
C194 C198 1.368 . S
C195 C176 1.429 . S
C195 C189 1.429 . S
C195 C196 1.523 . S
C196 C177 1.368 . S
C196 C190 1.368 . S
C196 C195 1.523 . S
C197 C181 1.429 . S
C197 C193 1.429 . S
C197 C198 1.523 . S
C198 C182 1.368 . S
C198 C194 1.368 . S
C198 C197 1.523 . S
H199 C174 0.950 . S
H200 C176 0.950 . S
H201 C177 0.949 . S
H202 C179 0.950 . S
H203 C181 0.950 . S
C204 C205 1.349 . S
C204 C206 1.327 . S
C204 H229 0.950 . S
C205 C204 1.349 . S
C205 C221 1.349 . S
C206 C204 1.327 . S
C206 C225 1.429 . S
C206 H230 0.950 . S
C207 C224 1.574 . S
C207 C226 1.368 1_655 S
C207 H231 0.949 . S
H208 C212 0.949 . S
C209 C210 1.349 . S
C209 C211 1.327 . S
C209 H232 0.950 . S
C210 C209 1.349 . S
C210 C222 1.349 . S
C211 C209 1.327 . S
C211 C227 1.429 . S
C211 H233 0.950 . S
C212 H208 0.949 . S
C212 C220 1.574 . S
C212 C228 1.368 1_455 S
H213 C221 0.950 . S
H214 C219 0.950 1_655 S
H215 C220 0.949 . S
H216 C222 0.950 . S
H217 C223 0.950 1_455 S
H218 C224 0.949 . S
C219 H214 0.950 1_455 S
C219 C221 1.327 . S
C219 C225 1.429 . S
C220 C212 1.574 . S
C220 H215 0.949 . S
C220 C226 1.368 . S
C221 C205 1.349 . S
C221 H213 0.950 . S
C221 C219 1.327 . S
C222 C210 1.349 . S
C222 H216 0.950 . S
C222 C223 1.327 . S
C223 H217 0.950 1_655 S
C223 C222 1.327 . S
C223 C227 1.429 . S
C224 C207 1.574 . S
C224 H218 0.949 . S
C224 C228 1.368 . S
C225 C206 1.429 . S
C225 C219 1.429 . S
C225 C226 1.523 . S
C226 C207 1.368 1_455 S
C226 C220 1.368 . S
C226 C225 1.523 . S
C227 C211 1.429 . S
C227 C223 1.429 . S
C227 C228 1.523 . S
C228 C212 1.368 1_655 S
C228 C224 1.368 . S
C228 C227 1.523 . S
H229 C204 0.950 . S
H230 C206 0.950 . S
H231 C207 0.949 . S
H232 C209 0.950 . S
H233 C211 0.950 . S
C234 C235 1.349 . S
C234 C236 1.327 . S
C234 H259 0.950 . S
C235 C234 1.349 . S
C235 C251 1.349 . S
C236 C234 1.327 . S
C236 C255 1.429 . S
C236 H260 0.950 . S
C237 C254 1.574 . S
C237 C256 1.368 1_565 S
C237 H261 0.949 . S
H238 C242 0.949 . S
C239 C240 1.349 . S
C239 C241 1.327 . S
C239 H262 0.950 . S
C240 C239 1.349 . S
C240 C252 1.349 . S
C241 C239 1.327 . S
C241 C257 1.429 . S
C241 H263 0.950 . S
C242 H238 0.949 . S
C242 C250 1.574 . S
C242 C258 1.368 1_545 S
H243 C251 0.950 . S
H244 C249 0.950 1_565 S
H245 C250 0.949 . S
H246 C252 0.950 . S
H247 C253 0.950 1_545 S
H248 C254 0.949 . S
C249 H244 0.950 1_545 S
C249 C251 1.327 . S
C249 C255 1.429 . S
C250 C242 1.574 . S
C250 H245 0.949 . S
C250 C256 1.368 . S
C251 C235 1.349 . S
C251 H243 0.950 . S
C251 C249 1.327 . S
C252 C240 1.349 . S
C252 H246 0.950 . S
C252 C253 1.327 . S
C253 H247 0.950 1_565 S
C253 C252 1.327 . S
C253 C257 1.429 . S
C254 C237 1.574 . S
C254 H248 0.949 . S
C254 C258 1.368 . S
C255 C236 1.429 . S
C255 C249 1.429 . S
C255 C256 1.523 . S
C256 C237 1.368 1_545 S
C256 C250 1.368 . S
C256 C255 1.523 . S
C257 C241 1.429 . S
C257 C253 1.429 . S
C257 C258 1.523 . S
C258 C242 1.368 1_565 S
C258 C254 1.368 . S
C258 C257 1.523 . S
H259 C234 0.950 . S
H260 C236 0.950 . S
H261 C237 0.949 . S
H262 C239 0.950 . S
H263 C241 0.950 . S
C264 C265 1.349 . S
C264 C266 1.327 . S
C264 H289 0.950 . S
C265 C264 1.349 . S
C265 C281 1.349 . S
C266 C264 1.327 . S
C266 C285 1.429 . S
C266 H290 0.950 . S
C267 C284 1.574 . S
C267 C286 1.368 . S
C267 H291 0.949 1_554 S
H268 C272 0.949 . S
C269 C270 1.349 . S
C269 C271 1.327 . S
C269 H292 0.950 1_554 S
C270 C269 1.349 . S
C270 C282 1.349 . S
C271 C269 1.327 . S
C271 C287 1.429 . S
C271 H293 0.950 1_554 S
C272 H268 0.949 . S
C272 C280 1.574 . S
C272 C288 1.368 . S
H273 C281 0.950 1_556 S
H274 C279 0.950 1_556 S
H275 C280 0.949 . S
H276 C282 0.950 . S
H277 C283 0.950 . S
H278 C284 0.949 1_556 S
C279 H274 0.950 1_554 S
C279 C281 1.327 . S
C279 C285 1.429 . S
C280 C272 1.574 . S
C280 H275 0.949 . S
C280 C286 1.368 . S
C281 C265 1.349 . S
C281 H273 0.950 1_554 S
C281 C279 1.327 . S
C282 C270 1.349 . S
C282 H276 0.950 . S
C282 C283 1.327 . S
C283 H277 0.950 . S
C283 C282 1.327 . S
C283 C287 1.429 . S
C284 C267 1.574 . S
C284 H278 0.949 1_554 S
C284 C288 1.368 . S
C285 C266 1.429 . S
C285 C279 1.429 . S
C285 C286 1.523 . S
C286 C267 1.368 . S
C286 C280 1.368 . S
C286 C285 1.523 . S
C287 C271 1.429 . S
C287 C283 1.429 . S
C287 C288 1.523 . S
C288 C272 1.368 . S
C288 C284 1.368 . S
C288 C287 1.523 . S
H289 C264 0.950 . S
H290 C266 0.950 . S
H291 C267 0.949 1_556 S
H292 C269 0.950 1_556 S
H293 C271 0.950 1_556 S
C294 C295 1.349 . S
C294 C296 1.327 . S
C294 H319 0.950 . S
C295 C294 1.349 . S
C295 C311 1.349 . S
C296 C294 1.327 . S
C296 C315 1.429 . S
C296 H320 0.950 1_655 S
C297 C314 1.574 . S
C297 C316 1.368 . S
C297 H321 0.949 . S
H298 C302 0.949 . S
C299 C300 1.349 . S
C299 C301 1.327 . S
C299 H322 0.950 . S
C300 C299 1.349 . S
C300 C312 1.349 . S
C301 C299 1.327 . S
C301 C317 1.429 . S
C301 H323 0.950 1_455 S
C302 H298 0.949 . S
C302 C310 1.574 . S
C302 C318 1.368 . S
H303 C311 0.950 . S
H304 C309 0.950 . S
H305 C310 0.949 . S
H306 C312 0.950 . S
H307 C313 0.950 . S
H308 C314 0.949 . S
C309 H304 0.950 . S
C309 C311 1.327 . S
C309 C315 1.429 . S
C310 C302 1.574 . S
C310 H305 0.949 . S
C310 C316 1.368 1_455 S
C311 C295 1.349 . S
C311 H303 0.950 . S
C311 C309 1.327 . S
C312 C300 1.349 . S
C312 H306 0.950 . S
C312 C313 1.327 . S
C313 H307 0.950 . S
C313 C312 1.327 . S
C313 C317 1.429 . S
C314 C297 1.574 . S
C314 H308 0.949 . S
C314 C318 1.368 1_655 S
C315 C296 1.429 . S
C315 C309 1.429 . S
C315 C316 1.523 . S
C316 C297 1.368 . S
C316 C310 1.368 1_655 S
C316 C315 1.523 . S
C317 C301 1.429 . S
C317 C313 1.429 . S
C317 C318 1.523 . S
C318 C302 1.368 . S
C318 C314 1.368 1_455 S
C318 C317 1.523 . S
H319 C294 0.950 . S
H320 C296 0.950 1_455 S
H321 C297 0.949 . S
H322 C299 0.950 . S
H323 C301 0.950 1_655 S
C324 C325 1.349 . S
C324 C326 1.327 . S
C324 H349 0.950 . S
C325 C324 1.349 . S
C325 C341 1.349 . S
C326 C324 1.327 . S
C326 C345 1.429 . S
C326 H350 0.950 1_545 S
C327 C344 1.574 . S
C327 C346 1.368 . S
C327 H351 0.949 . S
H328 C332 0.949 . S
C329 C330 1.349 . S
C329 C331 1.327 . S
C329 H352 0.950 . S
C330 C329 1.349 . S
C330 C342 1.349 . S
C331 C329 1.327 . S
C331 C347 1.429 . S
C331 H353 0.950 1_565 S
C332 H328 0.949 . S
C332 C340 1.574 . S
C332 C348 1.368 . S
H333 C341 0.950 . S
H334 C339 0.950 . S
H335 C340 0.949 . S
H336 C342 0.950 . S
H337 C343 0.950 . S
H338 C344 0.949 . S
C339 H334 0.950 . S
C339 C341 1.327 . S
C339 C345 1.429 . S
C340 C332 1.574 . S
C340 H335 0.949 . S
C340 C346 1.368 1_565 S
C341 C325 1.349 . S
C341 H333 0.950 . S
C341 C339 1.327 . S
C342 C330 1.349 . S
C342 H336 0.950 . S
C342 C343 1.327 . S
C343 H337 0.950 . S
C343 C342 1.327 . S
C343 C347 1.429 . S
C344 C327 1.574 . S
C344 H338 0.949 . S
C344 C348 1.368 1_545 S
C345 C326 1.429 . S
C345 C339 1.429 . S
C345 C346 1.523 . S
C346 C327 1.368 . S
C346 C340 1.368 1_545 S
C346 C345 1.523 . S
C347 C331 1.429 . S
C347 C343 1.429 . S
C347 C348 1.523 . S
C348 C332 1.368 . S
C348 C344 1.368 1_565 S
C348 C347 1.523 . S
H349 C324 0.950 . S
H350 C326 0.950 1_565 S
H351 C327 0.949 . S
H352 C329 0.950 . S
H353 C331 0.950 1_545 S
C354 C355 1.349 . S
C354 C356 1.327 . S
C354 H379 0.950 . S
C355 C354 1.349 . S
C355 C371 1.349 . S
C356 C354 1.327 . S
C356 C375 1.429 . S
C356 H380 0.950 . S
C357 C374 1.574 . S
C357 C376 1.368 . S
C357 H381 0.949 . S
H358 C362 0.949 . S
C359 C360 1.349 . S
C359 C361 1.327 . S
C359 H382 0.950 . S
C360 C359 1.349 . S
C360 C372 1.349 . S
C361 C359 1.327 . S
C361 C377 1.429 . S
C361 H383 0.950 . S
C362 H358 0.949 . S
C362 C370 1.574 . S
C362 C378 1.368 . S
H363 C371 0.950 . S
H364 C369 0.950 . S
H365 C370 0.949 . S
H366 C372 0.950 . S
H367 C373 0.950 . S
H368 C374 0.949 . S
C369 H364 0.950 . S
C369 C371 1.327 . S
C369 C375 1.429 . S
C370 C362 1.574 . S
C370 H365 0.949 . S
C370 C376 1.368 . S
C371 C355 1.349 . S
C371 H363 0.950 . S
C371 C369 1.327 . S
C372 C360 1.349 . S
C372 H366 0.950 . S
C372 C373 1.327 . S
C373 H367 0.950 . S
C373 C372 1.327 . S
C373 C377 1.429 . S
C374 C357 1.574 . S
C374 H368 0.949 . S
C374 C378 1.368 . S
C375 C356 1.429 . S
C375 C369 1.429 . S
C375 C376 1.523 . S
C376 C357 1.368 . S
C376 C370 1.368 . S
C376 C375 1.523 . S
C377 C361 1.429 . S
C377 C373 1.429 . S
C377 C378 1.523 . S
C378 C362 1.368 . S
C378 C374 1.368 . S
C378 C377 1.523 . S
H379 C354 0.950 . S
H380 C356 0.950 . S
H381 C357 0.949 . S
H382 C359 0.950 . S
H383 C361 0.950 . S
C384 C385 1.349 . S
C384 C386 1.327 . S
C384 H409 0.950 . S
C385 C384 1.349 . S
C385 C401 1.349 1_554 S
C386 C384 1.327 . S
C386 C405 1.429 . S
C386 H410 0.950 . S
C387 C404 1.574 . S
C387 C406 1.368 1_456 S
C387 H411 0.949 . S
H388 C392 0.949 . S
C389 C390 1.349 1_556 S
C389 C391 1.327 . S
C389 H412 0.950 . S
C390 C389 1.349 1_554 S
C390 C402 1.349 . S
C391 C389 1.327 . S
C391 C407 1.429 1_556 S
C391 H413 0.950 . S
C392 H388 0.949 . S
C392 C400 1.574 . S
C392 C408 1.368 1_655 S
H393 C401 0.950 . S
H394 C399 0.950 1_455 S
H395 C400 0.949 . S
H396 C402 0.950 . S
H397 C403 0.950 1_655 S
H398 C404 0.949 . S
C399 H394 0.950 1_655 S
C399 C401 1.327 . S
C399 C405 1.429 1_556 S
C400 C392 1.574 . S
C400 H395 0.949 . S
C400 C406 1.368 . S
C401 C385 1.349 1_556 S
C401 H393 0.950 . S
C401 C399 1.327 . S
C402 C390 1.349 . S
C402 H396 0.950 . S
C402 C403 1.327 . S
C403 H397 0.950 1_455 S
C403 C402 1.327 . S
C403 C407 1.429 . S
C404 C387 1.574 . S
C404 H398 0.949 . S
C404 C408 1.368 1_556 S
C405 C386 1.429 . S
C405 C399 1.429 1_554 S
C405 C406 1.523 . S
C406 C387 1.368 1_654 S
C406 C400 1.368 . S
C406 C405 1.523 . S
C407 C391 1.429 1_554 S
C407 C403 1.429 . S
C407 C408 1.523 . S
C408 C392 1.368 1_455 S
C408 C404 1.368 1_554 S
C408 C407 1.523 . S
H409 C384 0.950 . S
H410 C386 0.950 . S
H411 C387 0.949 . S
H412 C389 0.950 . S
H413 C391 0.950 . S
C414 C415 1.349 . S
C414 C416 1.327 . S
C414 H439 0.950 . S
C415 C414 1.349 . S
C415 C431 1.349 . S
C416 C414 1.327 . S
C416 C435 1.429 . S
C416 H440 0.950 1_545 S
C417 C434 1.574 . S
C417 C436 1.368 . S
C417 H441 0.949 . S
H418 C422 0.949 . S
C419 C420 1.349 . S
C419 C421 1.327 . S
C419 H442 0.950 . S
C420 C419 1.349 . S
C420 C432 1.349 . S
C421 C419 1.327 . S
C421 C437 1.429 . S
C421 H443 0.950 1_565 S
C422 H418 0.949 . S
C422 C430 1.574 . S
C422 C438 1.368 . S
H423 C431 0.950 . S
H424 C429 0.950 . S
H425 C430 0.949 . S
H426 C432 0.950 . S
H427 C433 0.950 . S
H428 C434 0.949 . S
C429 H424 0.950 . S
C429 C431 1.327 . S
C429 C435 1.429 . S
C430 C422 1.574 . S
C430 H425 0.949 . S
C430 C436 1.368 1_565 S
C431 C415 1.349 . S
C431 H423 0.950 . S
C431 C429 1.327 . S
C432 C420 1.349 . S
C432 H426 0.950 . S
C432 C433 1.327 . S
C433 H427 0.950 . S
C433 C432 1.327 . S
C433 C437 1.429 . S
C434 C417 1.574 . S
C434 H428 0.949 . S
C434 C438 1.368 1_545 S
C435 C416 1.429 . S
C435 C429 1.429 . S
C435 C436 1.523 . S
C436 C417 1.368 . S
C436 C430 1.368 1_545 S
C436 C435 1.523 . S
C437 C421 1.429 . S
C437 C433 1.429 . S
C437 C438 1.523 . S
C438 C422 1.368 . S
C438 C434 1.368 1_565 S
C438 C437 1.523 . S
H439 C414 0.950 . S
H440 C416 0.950 1_565 S
H441 C417 0.949 . S
H442 C419 0.950 . S
H443 C421 0.950 1_545 S
C85 C81 1.177 . S
C90 C5 1.174 . S
C115 C25 1.194 . S
C120 C11 1.194 . S
C145 C19 1.158 . S
C150 C33 1.159 . S
C175 C47 1.174 . S
C180 C39 1.177 . S
C205 C67 1.195 . S
C210 C53 1.194 . S
C235 C75 1.159 . S
C240 C61 1.158 . S
C265 C0 1.375 . S
C270 C42 1.375 . S
C295 C23 1.355 . S
C300 C65 1.355 . S
C325 C70 1.319 . S
C330 C28 1.319 . S
C355 C79 1.300 . S
C360 C37 1.300 . S
C385 C51 1.355 . S
C390 C9 1.355 . S
C415 C14 1.319 . S
C420 C56 1.319 . S
