# Generated by pormake.
# Topology npo, (4)-cn, num edge types: 1
# Building blocks:
#     Node 0, Type 0, BuildingBlock: NAHDIM_clean_sbu_0, # of connection points: 4
#     Node 1, Type 0, BuildingBlock: NAHDIM_clean_sbu_0, # of connection points: 4
#     Node 2, Type 0, BuildingBlock: NAHDIM_clean_sbu_0, # of connection points: 4
#     Node 3, Type 0, BuildingBlock: NAHDIM_clean_sbu_0, # of connection points: 4
#     Node 4, Type 0, BuildingBlock: NAHDIM_clean_sbu_0, # of connection points: 4
#     Node 5, Type 0, BuildingBlock: NAHDIM_clean_sbu_0, # of connection points: 4
#     Edge 6, Type (0, 0), BuildingBlock: KIFKEQ_clean_linker_1, # of connection points: 2
#     Edge 7, Type (0, 0), BuildingBlock: KIFKEQ_clean_linker_1, # of connection points: 2
#     Edge 8, Type (0, 0), BuildingBlock: KIFKEQ_clean_linker_1, # of connection points: 2
#     Edge 9, Type (0, 0), BuildingBlock: KIFKEQ_clean_linker_1, # of connection points: 2
#     Edge 10, Type (0, 0), BuildingBlock: KIFKEQ_clean_linker_1, # of connection points: 2
#     Edge 11, Type (0, 0), BuildingBlock: KIFKEQ_clean_linker_1, # of connection points: 2
#     Edge 12, Type (0, 0), BuildingBlock: KIFKEQ_clean_linker_1, # of connection points: 2
#     Edge 13, Type (0, 0), BuildingBlock: KIFKEQ_clean_linker_1, # of connection points: 2
#     Edge 14, Type (0, 0), BuildingBlock: KIFKEQ_clean_linker_1, # of connection points: 2
#     Edge 15, Type (0, 0), BuildingBlock: KIFKEQ_clean_linker_1, # of connection points: 2
#     Edge 16, Type (0, 0), BuildingBlock: KIFKEQ_clean_linker_1, # of connection points: 2
#     Edge 17, Type (0, 0), BuildingBlock: KIFKEQ_clean_linker_1, # of connection points: 2
# Relax obj value: 0.248
# Max RMSD: 0.224
# Mean RMSD: 0.223
data_MOF--net-npo--node1-NAHDIM_clean_sbu_0--edge1-KIFKEQ_clean_linker_1
_symmetry_space_group_name_H-M    P1
_symmetry_Int_Tables_number       1
_symmetry_cell_setting            triclinic
loop_
_symmetry_equiv_pos_as_xyz
'x, y, z'
_cell_length_a     41.91663
_cell_length_b     44.104666
_cell_length_c     25.64729
_cell_angle_alpha  92.302737
_cell_angle_beta   90.084601
_cell_angle_gamma 118.30087
loop_
_atom_site_label
_atom_site_type_symbol
_atom_site_fract_x
_atom_site_fract_y
_atom_site_fract_z
_atom_type_partial_charge
C0 C 0.50006 0.05082 0.30586 0.0
O1 O 0.52067 0.0465 0.27101 0.0
O2 O 0.56456 0.13073 0.24602 0.0
Zn3 Zn 0.51004 0.10473 0.23948 0.0
O4 O 0.49294 0.07597 0.1723 0.0
C5 C 0.4798 0.14865 0.20542 0.0
O6 O 0.47389 0.13128 0.16052 0.0
O7 O 0.49117 0.07433 0.30016 0.0
C8 C 0.50769 0.08652 0.12879 0.0
O9 O 0.53563 0.11747 0.12689 0.0
C10 C 0.58765 0.12326 0.22534 0.0
O11 O 0.57662 0.09513 0.1953 0.0
O12 O 0.49318 0.14064 0.24369 0.0
C13 C 0.47123 0.54676 0.5953 0.0
O14 O 0.44674 0.5232 0.62396 0.0
O15 O 0.4213 0.56741 0.68964 0.0
Zn16 Zn 0.47542 0.58893 0.68428 0.0
O17 O 0.49521 0.57123 0.73973 0.0
C18 C 0.48644 0.65013 0.73827 0.0
O19 O 0.47036 0.62763 0.77416 0.0
O20 O 0.48798 0.57775 0.61334 0.0
C21 C 0.52598 0.58937 0.76201 0.0
O22 O 0.54652 0.62104 0.74783 0.0
C23 C 0.4019 0.54192 0.717 0.0
O24 O 0.41719 0.52677 0.74252 0.0
O25 O 0.49368 0.63984 0.6951 0.0
C26 C 0.91972 0.43425 0.39365 0.0
O27 O 0.91722 0.45662 0.36385 0.0
O28 O 0.85017 0.41264 0.29999 0.0
Zn29 Zn 0.88203 0.39011 0.30611 0.0
O30 O 0.91866 0.40684 0.24938 0.0
C31 C 0.83368 0.32591 0.25414 0.0
O32 O 0.84215 0.34572 0.21403 0.0
O33 O 0.90675 0.40308 0.37679 0.0
C34 C 0.93203 0.38968 0.22604 0.0
O35 O 0.92314 0.35846 0.24046 0.0
C36 C 0.84916 0.42778 0.25935 0.0
O37 O 0.87003 0.42954 0.22018 0.0
O38 O 0.84894 0.33901 0.29821 0.0
C39 C 0.43981 0.92245 0.63826 0.0
O40 O 0.46598 0.92137 0.66503 0.0
O41 O 0.42622 0.85592 0.72066 0.0
Zn42 Zn 0.40036 0.88443 0.72326 0.0
O43 O 0.42056 0.9198 0.78266 0.0
C44 C 0.33828 0.83583 0.77485 0.0
O45 O 0.36308 0.84314 0.81156 0.0
O46 O 0.40792 0.90812 0.65585 0.0
C47 C 0.40177 0.93144 0.80635 0.0
O48 O 0.36792 0.92039 0.79137 0.0
C49 C 0.44493 0.85449 0.75861 0.0
O50 O 0.44866 0.87302 0.8018 0.0
O51 O 0.34752 0.85167 0.73265 0.0
C52 C 0.58865 0.49927 0.07972 0.0
O53 O 0.62234 0.50992 0.09511 0.0
O54 O 0.62334 0.4685 0.17824 0.0
Zn55 Zn 0.57204 0.46073 0.17339 0.0
O56 O 0.56111 0.48343 0.23491 0.0
C57 C 0.54249 0.39578 0.21677 0.0
O58 O 0.56435 0.41556 0.25488 0.0
O59 O 0.56297 0.47823 0.10696 0.0
C60 C 0.52834 0.47441 0.24559 0.0
O61 O 0.5024 0.45142 0.21467 0.0
C62 C 0.64319 0.48102 0.2192 0.0
O63 O 0.63081 0.49129 0.25942 0.0
O64 O 0.53992 0.4096 0.17555 0.0
C65 C 0.06033 0.48248 0.8914 0.0
O66 O 0.05329 0.46183 0.84971 0.0
O67 O 0.1488 0.53063 0.80994 0.0
Zn68 Zn 0.1034 0.53434 0.81978 0.0
O69 O 0.06955 0.51018 0.75862 0.0
C70 C 0.13224 0.59998 0.77817 0.0
O71 O 0.13078 0.58095 0.73654 0.0
O72 O 0.08085 0.51463 0.88768 0.0
C73 C 0.04455 0.51725 0.74629 0.0
O74 O 0.0398 0.53989 0.77549 0.0
C75 C 0.15107 0.50372 0.79635 0.0
O76 O 0.12137 0.47414 0.78923 0.0
O77 O 0.11969 0.58522 0.82054 0.0
H78 H 0.47703 0.18628 0.12546 0.0
H79 H 0.4772 0.18407 0.29366 0.0
H80 H 0.4847 0.24444 0.13147 0.0
H81 H 0.48302 0.24176 0.29989 0.0
H82 H 0.55484 0.35868 0.28874 0.0
H83 H 0.53123 0.2968 0.28815 0.0
H84 H 0.46437 0.28476 0.15215 0.0
H85 H 0.48952 0.34726 0.15149 0.0
C86 C 0.47763 0.19786 0.16375 0.0
C87 C 0.47714 0.18086 0.20911 0.0
C88 C 0.48184 0.23125 0.16725 0.0
C89 C 0.48509 0.24816 0.21624 0.0
C90 C 0.48165 0.22995 0.26153 0.0
C91 C 0.47804 0.19678 0.25801 0.0
C92 C 0.53478 0.34285 0.25905 0.0
C93 C 0.52439 0.35789 0.21978 0.0
C94 C 0.52091 0.30719 0.25894 0.0
C95 C 0.49591 0.28559 0.21994 0.0
C96 C 0.48409 0.3006 0.1822 0.0
C97 C 0.49835 0.3364 0.18194 0.0
H98 H 0.36382 0.57079 0.67391 0.0
H99 H 0.35241 0.49069 0.77594 0.0
H100 H 0.30209 0.55876 0.6919 0.0
H101 H 0.29033 0.47882 0.79409 0.0
H102 H 0.16807 0.4518 0.77274 0.0
H103 H 0.22772 0.45799 0.75072 0.0
H104 H 0.27453 0.56851 0.77311 0.0
H105 H 0.21555 0.56256 0.79484 0.0
C106 C 0.34807 0.5504 0.69985 0.0
C107 C 0.36319 0.53194 0.72393 0.0
C108 C 0.31275 0.54363 0.7103 0.0
C109 C 0.29164 0.51817 0.74489 0.0
C110 C 0.30603 0.49855 0.76717 0.0
C111 C 0.34158 0.50545 0.75691 0.0
C112 C 0.19116 0.47737 0.7731 0.0
C113 C 0.18704 0.50668 0.78532 0.0
C114 C 0.22524 0.48087 0.76066 0.0
C115 C 0.25559 0.51374 0.75968 0.0
C116 C 0.25148 0.54289 0.77269 0.0
C117 C 0.21767 0.53942 0.7855 0.0
H118 H 0.61933 0.17448 0.30061 0.0
H119 H 0.6441 0.12748 0.16656 0.0
H120 H 0.68249 0.21849 0.30842 0.0
H121 H 0.70775 0.17188 0.1745 0.0
H122 H 0.79576 0.28992 0.16595 0.0
H123 H 0.73903 0.23592 0.16096 0.0
H124 H 0.74503 0.22781 0.32752 0.0
H125 H 0.80167 0.28192 0.33274 0.0
C126 C 0.63838 0.17332 0.27315 0.0
C127 C 0.62669 0.14767 0.23273 0.0
C128 C 0.67465 0.19839 0.27791 0.0
C129 C 0.70007 0.1986 0.24209 0.0
C130 C 0.68867 0.17238 0.2025 0.0
C131 C 0.65232 0.14694 0.19811 0.0
C132 C 0.78535 0.27632 0.20139 0.0
C133 C 0.80294 0.29049 0.24985 0.0
C134 C 0.75296 0.24526 0.19845 0.0
C135 C 0.73743 0.22787 0.24394 0.0
C136 C 0.75617 0.24093 0.29193 0.0
C137 C 0.78867 0.27186 0.29484 0.0
H138 H 0.48037 0.83986 0.83537 0.0
H139 H 0.4426 0.81337 0.67473 0.0
H140 H 0.49923 0.79526 0.83221 0.0
H141 H 0.46077 0.76858 0.67195 0.0
H142 H 0.51315 0.70138 0.66851 0.0
H143 H 0.51125 0.75584 0.6745 0.0
H144 H 0.46647 0.73238 0.82834 0.0
H145 H 0.46904 0.67841 0.82287 0.0
C146 C 0.47641 0.82478 0.79926 0.0
C147 C 0.45966 0.82993 0.75546 0.0
C148 C 0.4871 0.79916 0.79753 0.0
C149 C 0.48137 0.77828 0.75192 0.0
C150 C 0.46602 0.78447 0.70751 0.0
C151 C 0.45529 0.80999 0.70925 0.0
C152 C 0.50353 0.70815 0.704 0.0
C153 C 0.49078 0.68535 0.74493 0.0
C154 C 0.50228 0.73927 0.7073 0.0
C155 C 0.48828 0.74823 0.7516 0.0
C156 C 0.47765 0.7264 0.79381 0.0
C157 C 0.47891 0.69531 0.79052 0.0
H158 H 0.68983 0.50083 0.30357 0.0
H159 H 0.67477 0.45853 0.14499 0.0
H160 H 0.74347 0.49325 0.31371 0.0
H161 H 0.72782 0.45035 0.15553 0.0
H162 H 0.83914 0.46039 0.17741 0.0
H163 H 0.79333 0.47908 0.16766 0.0
H164 H 0.7539 0.44371 0.32086 0.0
H165 H 0.80008 0.42568 0.33109 0.0
C166 C 0.69813 0.49022 0.27073 0.0
C167 C 0.67787 0.48003 0.22361 0.0
C168 C 0.72874 0.48569 0.27666 0.0
C169 C 0.73974 0.47095 0.23558 0.0
C170 C 0.72031 0.46209 0.18778 0.0
C171 C 0.68974 0.4666 0.18185 0.0
C172 C 0.82092 0.4569 0.20922 0.0
C173 C 0.82309 0.44132 0.25489 0.0
C174 C 0.79458 0.46749 0.20352 0.0
C175 C 0.76987 0.46274 0.24337 0.0
C176 C 0.77279 0.44813 0.28967 0.0
C177 C 0.79912 0.43755 0.29538 0.0
H178 H 0.31257 0.79241 0.8552 0.0
H179 H 0.28098 0.81235 0.70526 0.0
H180 H 0.25619 0.73872 0.857 0.0
H181 H 0.22389 0.75889 0.70774 0.0
H182 H 0.16575 0.63869 0.69534 0.0
H183 H 0.20976 0.69944 0.69723 0.0
H184 H 0.19108 0.7086 0.8614 0.0
H185 H 0.14753 0.64728 0.85982 0.0
C186 C 0.29323 0.78572 0.82312 0.0
C187 C 0.30155 0.80638 0.77968 0.0
C188 C 0.26068 0.75499 0.82434 0.0
C189 C 0.2356 0.74427 0.78225 0.0
C190 C 0.24291 0.7661 0.74036 0.0
C191 C 0.27556 0.79681 0.73905 0.0
C192 C 0.1705 0.65373 0.73169 0.0
C193 C 0.15358 0.63799 0.77762 0.0
C194 C 0.19561 0.68873 0.7327 0.0
C195 C 0.2043 0.70888 0.77963 0.0
C196 C 0.18549 0.69366 0.82482 0.0
C197 C 0.16038 0.65855 0.82384 0.0
H198 H 0.4724 0.96425 0.8405 0.0
H199 H 0.36695 0.95419 0.87478 0.0
H200 H 0.4981 0.00286 0.91751 0.0
H201 H 0.39284 -0.00701 0.95174 0.0
H202 H 0.44468 0.02592 0.11737 0.0
H203 H 0.41923 0.98995 0.03791 0.0
H204 H 0.51047 0.06166 0.9516 0.0
H205 H 0.53617 0.09774 0.03123 0.0
C206 C 0.45474 0.97042 0.86429 0.0
C207 C 0.41759 0.95607 0.85166 0.0
C208 C 0.46953 -0.00732 0.90821 0.0
C209 C 0.44744 0.00083 0.94063 0.0
C210 C 0.4104 0.98684 0.92768 0.0
C211 C 0.39564 0.96479 0.88349 0.0
C212 C 0.45936 0.03405 0.08149 0.0
C213 C 0.49248 0.06466 0.08059 0.0
C214 C 0.44463 0.01356 0.03593 0.0
C215 C 0.46282 0.02308 0.9886 0.0
C216 C 0.496 0.05361 0.98766 0.0
C217 C 0.51062 0.07429 0.03319 0.0
H218 H 0.46123 0.45761 0.28292 0.0
H219 H 0.57556 0.52075 0.31876 0.0
H220 H 0.44684 0.47658 0.36603 0.0
H221 H 0.56111 0.53923 0.40212 0.0
H222 H 0.52087 0.58893 0.52679 0.0
H223 H 0.5338 0.57318 0.44018 0.0
H224 H 0.45257 0.46754 0.45865 0.0
H225 H 0.43919 0.48331 0.54482 0.0
C226 C 0.48328 0.47564 0.30838 0.0
C227 C 0.51953 0.48758 0.29433 0.0
C228 C 0.47503 0.48633 0.35612 0.0
C229 C 0.50285 0.50924 0.39072 0.0
C230 C 0.53907 0.52182 0.37608 0.0
C231 C 0.54733 0.5111 0.32841 0.0
C232 C 0.50571 0.56236 0.51233 0.0
C233 C 0.47905 0.53735 0.54272 0.0
C234 C 0.51323 0.55333 0.4628 0.0
C235 C 0.49419 0.51914 0.4426 0.0
C236 C 0.46736 0.4942 0.47286 0.0
C237 C 0.45988 0.5032 0.5224 0.0
H238 H 0.0729 0.51762 0.98579 0.0
H239 H 0.01178 0.41597 0.91171 0.0
H240 H 0.04552 0.49522 0.06879 0.0
H241 H 0.98372 0.39374 -0.00539 0.0
H242 H 0.96152 0.35887 0.16159 0.0
H243 H -0.00451 0.38134 0.08235 0.0
H244 H 0.98658 0.47453 0.10658 0.0
H245 H 0.95354 0.45258 0.18591 0.0
C246 C 0.05358 0.49049 0.98718 0.0
C247 C 0.04435 0.46861 0.94205 0.0
C248 C 0.03779 0.47768 0.03475 0.0
C249 C 0.0123 0.44273 0.03829 0.0
C250 C 0.00358 0.4207 -0.00664 0.0
C251 C 0.01946 0.43351 0.94575 0.0
C252 C 0.96716 0.38429 0.15023 0.0
C253 C 0.95476 0.40388 0.18002 0.0
C254 C 0.9864 0.39706 0.10466 0.0
C255 C -0.00634 0.42969 0.08807 0.0
C256 C 0.9819 0.44951 0.11857 0.0
C257 C 0.96274 0.4368 0.16398 0.0
H258 H 0.45649 0.05241 0.38393 0.0
H259 H 0.51862 0.00194 0.33342 0.0
H260 H 0.4409 0.02011 0.46317 0.0
H261 H 0.50258 0.96933 0.41241 0.0
H262 H 0.50419 0.95262 0.58819 0.0
H263 H 0.51715 0.98208 0.50645 0.0
H264 H 0.40568 0.96097 0.49311 0.0
H265 H 0.39272 0.93184 0.57537 0.0
C266 C 0.46659 0.03424 0.38952 0.0
C267 C 0.48894 0.02986 0.35249 0.0
C268 C 0.45749 0.0156 0.4348 0.0
C269 C 0.47063 0.99228 0.44407 0.0
C270 C 0.49245 0.98747 0.40663 0.0
C271 C 0.50146 0.00601 0.36126 0.0
C272 C 0.48241 0.95422 0.56785 0.0
C273 C 0.44745 0.93996 0.58834 0.0
C274 C 0.4898 0.97089 0.52082 0.0
C275 C 0.46241 0.97377 0.49332 0.0
C276 C 0.42741 0.95944 0.51371 0.0
C277 C 0.41998 0.94264 0.56069 0.0
H278 H 0.58507 0.62361 0.82767 0.0
H279 H 0.49245 0.52361 0.79498 0.0
H280 H 0.60113 0.60136 0.90327 0.0
H281 H 0.50903 0.5012 0.86953 0.0
H282 H 0.52228 0.48588 0.04134 0.0
H283 H 0.50874 0.50739 0.96312 0.0
H284 H 0.62292 0.56215 0.93001 0.0
H285 H 0.63662 0.54128 0.00925 0.0
C286 C 0.5684 0.59679 0.83624 0.0
C287 C 0.53735 0.57545 0.80558 0.0
C288 C 0.57769 0.58399 0.87941 0.0
C289 C 0.55621 0.54956 0.89265 0.0
C290 C 0.52576 0.52802 0.86102 0.0
C291 C 0.51638 0.54083 0.81808 0.0
C292 C 0.54453 0.50245 0.01738 0.0
C293 C 0.58053 0.51189 0.03155 0.0
C294 C 0.53674 0.51462 0.9723 0.0
C295 C 0.56474 0.53638 0.94018 0.0
C296 C 0.60077 0.54573 0.95424 0.0
C297 C 0.60859 0.53363 -0.0005 0.0
H298 H -0.00742 0.53041 0.70434 0.0
H299 H 0.04853 0.47057 0.6769 0.0
H300 H 0.96053 0.50877 0.6205 0.0
H301 H 0.01696 0.44946 0.59281 0.0
H302 H 0.92953 0.3948 0.46521 0.0
H303 H 0.95707 0.41296 0.55249 0.0
H304 H 0.9761 0.51654 0.52834 0.0
H305 H 0.94811 0.49835 0.44159 0.0
C306 C -0.00208 0.51252 0.68058 0.0
C307 C 0.02322 0.50234 0.69721 0.0
C308 C 0.97973 0.5003 0.6324 0.0
C309 C 0.98639 0.47758 0.59987 0.0
C310 C 0.01097 0.46669 0.61715 0.0
C311 C 0.02921 0.47894 0.66526 0.0
C312 C 0.93956 0.42144 0.47856 0.0
C313 C 0.93667 0.44514 0.44642 0.0
C314 C 0.95545 0.43185 0.52849 0.0
C315 C 0.96869 0.46617 0.54737 0.0
C316 C 0.96568 0.48981 0.51526 0.0
C317 C 0.94987 0.47942 0.46535 0.0
loop_
_geom_bond_atom_site_label_1
_geom_bond_atom_site_label_2
_geom_bond_distance
_geom_bond_site_symmetry_2
_ccdc_geom_bond_type
C0 O1 1.160 . S
C0 O7 1.185 . S
O1 C0 1.160 . S
O2 Zn3 1.899 . S
O2 C10 1.284 . S
Zn3 O2 1.899 . S
Zn3 O4 2.032 . S
Zn3 O7 2.086 . S
Zn3 O12 1.977 . S
O4 Zn3 2.032 . S
O4 C8 1.278 . S
C5 O6 1.203 . S
C5 O12 1.267 . S
O6 C5 1.203 . S
O7 C0 1.185 . S
O7 Zn3 2.086 . S
C8 O4 1.278 . S
C8 O9 1.211 . S
O9 C8 1.211 . S
C10 O2 1.284 . S
C10 O11 1.273 . S
O11 C10 1.273 . S
O12 Zn3 1.977 . S
O12 C5 1.267 . S
C13 O14 1.160 . S
C13 O20 1.185 . S
O14 C13 1.160 . S
O15 Zn16 1.899 . S
O15 C23 1.284 . S
Zn16 O15 1.899 . S
Zn16 O17 2.032 . S
Zn16 O20 2.086 . S
Zn16 O25 1.977 . S
O17 Zn16 2.032 . S
O17 C21 1.278 . S
C18 O19 1.203 . S
C18 O25 1.267 . S
O19 C18 1.203 . S
O20 C13 1.185 . S
O20 Zn16 2.086 . S
C21 O17 1.278 . S
C21 O22 1.211 . S
O22 C21 1.211 . S
C23 O15 1.284 . S
C23 O24 1.273 . S
O24 C23 1.273 . S
O25 Zn16 1.977 . S
O25 C18 1.267 . S
C26 O27 1.160 . S
C26 O33 1.185 . S
O27 C26 1.160 . S
O28 Zn29 1.899 . S
O28 C36 1.284 . S
Zn29 O28 1.899 . S
Zn29 O30 2.032 . S
Zn29 O33 2.086 . S
Zn29 O38 1.977 . S
O30 Zn29 2.032 . S
O30 C34 1.278 . S
C31 O32 1.203 . S
C31 O38 1.267 . S
O32 C31 1.203 . S
O33 C26 1.185 . S
O33 Zn29 2.086 . S
C34 O30 1.278 . S
C34 O35 1.211 . S
O35 C34 1.211 . S
C36 O28 1.284 . S
C36 O37 1.273 . S
O37 C36 1.273 . S
O38 Zn29 1.977 . S
O38 C31 1.267 . S
C39 O40 1.160 . S
C39 O46 1.185 . S
O40 C39 1.160 . S
O41 Zn42 1.899 . S
O41 C49 1.284 . S
Zn42 O41 1.899 . S
Zn42 O43 2.032 . S
Zn42 O46 2.086 . S
Zn42 O51 1.977 . S
O43 Zn42 2.032 . S
O43 C47 1.278 . S
C44 O45 1.203 . S
C44 O51 1.267 . S
O45 C44 1.203 . S
O46 C39 1.185 . S
O46 Zn42 2.086 . S
C47 O43 1.278 . S
C47 O48 1.211 . S
O48 C47 1.211 . S
C49 O41 1.284 . S
C49 O50 1.273 . S
O50 C49 1.273 . S
O51 Zn42 1.977 . S
O51 C44 1.267 . S
C52 O53 1.160 . S
C52 O59 1.185 . S
O53 C52 1.160 . S
O54 Zn55 1.899 . S
O54 C62 1.284 . S
Zn55 O54 1.899 . S
Zn55 O56 2.032 . S
Zn55 O59 2.086 . S
Zn55 O64 1.977 . S
O56 Zn55 2.032 . S
O56 C60 1.278 . S
C57 O58 1.203 . S
C57 O64 1.267 . S
O58 C57 1.203 . S
O59 C52 1.185 . S
O59 Zn55 2.086 . S
C60 O56 1.278 . S
C60 O61 1.211 . S
O61 C60 1.211 . S
C62 O54 1.284 . S
C62 O63 1.273 . S
O63 C62 1.273 . S
O64 Zn55 1.977 . S
O64 C57 1.267 . S
C65 O66 1.160 . S
C65 O72 1.185 . S
O66 C65 1.160 . S
O67 Zn68 1.899 . S
O67 C75 1.284 . S
Zn68 O67 1.899 . S
Zn68 O69 2.032 . S
Zn68 O72 2.086 . S
Zn68 O77 1.977 . S
O69 Zn68 2.032 . S
O69 C73 1.278 . S
C70 O71 1.203 . S
C70 O77 1.267 . S
O71 C70 1.203 . S
O72 C65 1.185 . S
O72 Zn68 2.086 . S
C73 O69 1.278 . S
C73 O74 1.211 . S
O74 C73 1.211 . S
C75 O67 1.284 . S
C75 O76 1.273 . S
O76 C75 1.273 . S
O77 Zn68 1.977 . S
O77 C70 1.267 . S
H78 C86 0.950 . S
H79 C91 0.950 . S
H80 C88 0.950 . S
H81 C90 0.950 . S
H82 C92 0.950 . S
H83 C94 0.950 . S
H84 C96 0.950 . S
H85 C97 0.950 . S
C86 H78 0.950 . S
C86 C87 1.386 . S
C86 C88 1.391 . S
C87 C86 1.386 . S
C87 C91 1.393 . S
C88 H80 0.950 . S
C88 C86 1.391 . S
C88 C89 1.400 . S
C89 C88 1.400 . S
C89 C90 1.398 . S
C89 C95 1.491 . S
C90 H81 0.950 . S
C90 C89 1.398 . S
C90 C91 1.391 . S
C91 H79 0.950 . S
C91 C87 1.393 . S
C91 C90 1.391 . S
C92 H82 0.950 . S
C92 C93 1.386 . S
C92 C94 1.391 . S
C93 C92 1.386 . S
C93 C97 1.393 . S
C94 H83 0.950 . S
C94 C92 1.391 . S
C94 C95 1.400 . S
C95 C89 1.491 . S
C95 C94 1.400 . S
C95 C96 1.398 . S
C96 H84 0.950 . S
C96 C95 1.398 . S
C96 C97 1.391 . S
C97 H85 0.950 . S
C97 C93 1.393 . S
C97 C96 1.391 . S
H98 C106 0.950 . S
H99 C111 0.950 . S
H100 C108 0.950 . S
H101 C110 0.950 . S
H102 C112 0.950 . S
H103 C114 0.950 . S
H104 C116 0.950 . S
H105 C117 0.950 . S
C106 H98 0.950 . S
C106 C107 1.386 . S
C106 C108 1.391 . S
C107 C106 1.386 . S
C107 C111 1.393 . S
C108 H100 0.950 . S
C108 C106 1.391 . S
C108 C109 1.400 . S
C109 C108 1.400 . S
C109 C110 1.398 . S
C109 C115 1.491 . S
C110 H101 0.950 . S
C110 C109 1.398 . S
C110 C111 1.391 . S
C111 H99 0.950 . S
C111 C107 1.393 . S
C111 C110 1.391 . S
C112 H102 0.950 . S
C112 C113 1.386 . S
C112 C114 1.391 . S
C113 C112 1.386 . S
C113 C117 1.393 . S
C114 H103 0.950 . S
C114 C112 1.391 . S
C114 C115 1.400 . S
C115 C109 1.491 . S
C115 C114 1.400 . S
C115 C116 1.398 . S
C116 H104 0.950 . S
C116 C115 1.398 . S
C116 C117 1.391 . S
C117 H105 0.950 . S
C117 C113 1.393 . S
C117 C116 1.391 . S
H118 C126 0.950 . S
H119 C131 0.950 . S
H120 C128 0.950 . S
H121 C130 0.950 . S
H122 C132 0.950 . S
H123 C134 0.950 . S
H124 C136 0.950 . S
H125 C137 0.950 . S
C126 H118 0.950 . S
C126 C127 1.386 . S
C126 C128 1.391 . S
C127 C126 1.386 . S
C127 C131 1.393 . S
C128 H120 0.950 . S
C128 C126 1.391 . S
C128 C129 1.400 . S
C129 C128 1.400 . S
C129 C130 1.398 . S
C129 C135 1.491 . S
C130 H121 0.950 . S
C130 C129 1.398 . S
C130 C131 1.391 . S
C131 H119 0.950 . S
C131 C127 1.393 . S
C131 C130 1.391 . S
C132 H122 0.950 . S
C132 C133 1.386 . S
C132 C134 1.391 . S
C133 C132 1.386 . S
C133 C137 1.393 . S
C134 H123 0.950 . S
C134 C132 1.391 . S
C134 C135 1.400 . S
C135 C129 1.491 . S
C135 C134 1.400 . S
C135 C136 1.398 . S
C136 H124 0.950 . S
C136 C135 1.398 . S
C136 C137 1.391 . S
C137 H125 0.950 . S
C137 C133 1.393 . S
C137 C136 1.391 . S
H138 C146 0.950 . S
H139 C151 0.950 . S
H140 C148 0.950 . S
H141 C150 0.950 . S
H142 C152 0.950 . S
H143 C154 0.950 . S
H144 C156 0.950 . S
H145 C157 0.950 . S
C146 H138 0.950 . S
C146 C147 1.386 . S
C146 C148 1.391 . S
C147 C146 1.386 . S
C147 C151 1.393 . S
C148 H140 0.950 . S
C148 C146 1.391 . S
C148 C149 1.400 . S
C149 C148 1.400 . S
C149 C150 1.398 . S
C149 C155 1.491 . S
C150 H141 0.950 . S
C150 C149 1.398 . S
C150 C151 1.391 . S
C151 H139 0.950 . S
C151 C147 1.393 . S
C151 C150 1.391 . S
C152 H142 0.950 . S
C152 C153 1.386 . S
C152 C154 1.391 . S
C153 C152 1.386 . S
C153 C157 1.393 . S
C154 H143 0.950 . S
C154 C152 1.391 . S
C154 C155 1.400 . S
C155 C149 1.491 . S
C155 C154 1.400 . S
C155 C156 1.398 . S
C156 H144 0.950 . S
C156 C155 1.398 . S
C156 C157 1.391 . S
C157 H145 0.950 . S
C157 C153 1.393 . S
C157 C156 1.391 . S
H158 C166 0.950 . S
H159 C171 0.950 . S
H160 C168 0.950 . S
H161 C170 0.950 . S
H162 C172 0.950 . S
H163 C174 0.950 . S
H164 C176 0.950 . S
H165 C177 0.950 . S
C166 H158 0.950 . S
C166 C167 1.386 . S
C166 C168 1.391 . S
C167 C166 1.386 . S
C167 C171 1.393 . S
C168 H160 0.950 . S
C168 C166 1.391 . S
C168 C169 1.400 . S
C169 C168 1.400 . S
C169 C170 1.398 . S
C169 C175 1.491 . S
C170 H161 0.950 . S
C170 C169 1.398 . S
C170 C171 1.391 . S
C171 H159 0.950 . S
C171 C167 1.393 . S
C171 C170 1.391 . S
C172 H162 0.950 . S
C172 C173 1.386 . S
C172 C174 1.391 . S
C173 C172 1.386 . S
C173 C177 1.393 . S
C174 H163 0.950 . S
C174 C172 1.391 . S
C174 C175 1.400 . S
C175 C169 1.491 . S
C175 C174 1.400 . S
C175 C176 1.398 . S
C176 H164 0.950 . S
C176 C175 1.398 . S
C176 C177 1.391 . S
C177 H165 0.950 . S
C177 C173 1.393 . S
C177 C176 1.391 . S
H178 C186 0.950 . S
H179 C191 0.950 . S
H180 C188 0.950 . S
H181 C190 0.950 . S
H182 C192 0.950 . S
H183 C194 0.950 . S
H184 C196 0.950 . S
H185 C197 0.950 . S
C186 H178 0.950 . S
C186 C187 1.386 . S
C186 C188 1.391 . S
C187 C186 1.386 . S
C187 C191 1.393 . S
C188 H180 0.950 . S
C188 C186 1.391 . S
C188 C189 1.400 . S
C189 C188 1.400 . S
C189 C190 1.398 . S
C189 C195 1.491 . S
C190 H181 0.950 . S
C190 C189 1.398 . S
C190 C191 1.391 . S
C191 H179 0.950 . S
C191 C187 1.393 . S
C191 C190 1.391 . S
C192 H182 0.950 . S
C192 C193 1.386 . S
C192 C194 1.391 . S
C193 C192 1.386 . S
C193 C197 1.393 . S
C194 H183 0.950 . S
C194 C192 1.391 . S
C194 C195 1.400 . S
C195 C189 1.491 . S
C195 C194 1.400 . S
C195 C196 1.398 . S
C196 H184 0.950 . S
C196 C195 1.398 . S
C196 C197 1.391 . S
C197 H185 0.950 . S
C197 C193 1.393 . S
C197 C196 1.391 . S
H198 C206 0.950 . S
H199 C211 0.950 . S
H200 C208 0.950 . S
H201 C210 0.950 . S
H202 C212 0.950 . S
H203 C214 0.950 . S
H204 C216 0.950 . S
H205 C217 0.950 . S
C206 H198 0.950 . S
C206 C207 1.386 . S
C206 C208 1.391 . S
C207 C206 1.386 . S
C207 C211 1.393 . S
C208 H200 0.950 . S
C208 C206 1.391 . S
C208 C209 1.400 . S
C209 C208 1.400 . S
C209 C210 1.398 . S
C209 C215 1.491 1_566 S
C210 H201 0.950 . S
C210 C209 1.398 . S
C210 C211 1.391 . S
C211 H199 0.950 . S
C211 C207 1.393 . S
C211 C210 1.391 . S
C212 H202 0.950 . S
C212 C213 1.386 . S
C212 C214 1.391 . S
C213 C212 1.386 . S
C213 C217 1.393 . S
C214 H203 0.950 . S
C214 C212 1.391 . S
C214 C215 1.400 . S
C215 C209 1.491 1_544 S
C215 C214 1.400 . S
C215 C216 1.398 . S
C216 H204 0.950 . S
C216 C215 1.398 . S
C216 C217 1.391 . S
C217 H205 0.950 . S
C217 C213 1.393 . S
C217 C216 1.391 . S
H218 C226 0.950 . S
H219 C231 0.950 . S
H220 C228 0.950 . S
H221 C230 0.950 . S
H222 C232 0.950 . S
H223 C234 0.950 . S
H224 C236 0.950 . S
H225 C237 0.950 . S
C226 H218 0.950 . S
C226 C227 1.386 . S
C226 C228 1.391 . S
C227 C226 1.386 . S
C227 C231 1.393 . S
C228 H220 0.950 . S
C228 C226 1.391 . S
C228 C229 1.400 . S
C229 C228 1.400 . S
C229 C230 1.398 . S
C229 C235 1.491 . S
C230 H221 0.950 . S
C230 C229 1.398 . S
C230 C231 1.391 . S
C231 H219 0.950 . S
C231 C227 1.393 . S
C231 C230 1.391 . S
C232 H222 0.950 . S
C232 C233 1.386 . S
C232 C234 1.391 . S
C233 C232 1.386 . S
C233 C237 1.393 . S
C234 H223 0.950 . S
C234 C232 1.391 . S
C234 C235 1.400 . S
C235 C229 1.491 . S
C235 C234 1.400 . S
C235 C236 1.398 . S
C236 H224 0.950 . S
C236 C235 1.398 . S
C236 C237 1.391 . S
C237 H225 0.950 . S
C237 C233 1.393 . S
C237 C236 1.391 . S
H238 C246 0.950 . S
H239 C251 0.950 . S
H240 C248 0.950 . S
H241 C250 0.950 . S
H242 C252 0.950 . S
H243 C254 0.950 . S
H244 C256 0.950 . S
H245 C257 0.950 . S
C246 H238 0.950 . S
C246 C247 1.386 . S
C246 C248 1.391 . S
C247 C246 1.386 . S
C247 C251 1.393 . S
C248 H240 0.950 . S
C248 C246 1.391 . S
C248 C249 1.400 . S
C249 C248 1.400 . S
C249 C250 1.398 . S
C249 C255 1.491 1_456 S
C250 H241 0.950 . S
C250 C249 1.398 . S
C250 C251 1.391 . S
C251 H239 0.950 . S
C251 C247 1.393 . S
C251 C250 1.391 . S
C252 H242 0.950 . S
C252 C253 1.386 . S
C252 C254 1.391 . S
C253 C252 1.386 . S
C253 C257 1.393 . S
C254 H243 0.950 . S
C254 C252 1.391 . S
C254 C255 1.400 . S
C255 C249 1.491 1_654 S
C255 C254 1.400 . S
C255 C256 1.398 . S
C256 H244 0.950 . S
C256 C255 1.398 . S
C256 C257 1.391 . S
C257 H245 0.950 . S
C257 C253 1.393 . S
C257 C256 1.391 . S
H258 C266 0.950 . S
H259 C271 0.950 . S
H260 C268 0.950 . S
H261 C270 0.950 1_565 S
H262 C272 0.950 . S
H263 C274 0.950 . S
H264 C276 0.950 1_545 S
H265 C277 0.950 . S
C266 H258 0.950 . S
C266 C267 1.386 . S
C266 C268 1.391 . S
C267 C266 1.386 . S
C267 C271 1.393 . S
C268 H260 0.950 . S
C268 C266 1.391 . S
C268 C269 1.400 . S
C269 C268 1.400 . S
C269 C270 1.398 . S
C269 C275 1.491 1_545 S
C270 H261 0.950 1_545 S
C270 C269 1.398 . S
C270 C271 1.391 . S
C271 H259 0.950 . S
C271 C267 1.393 . S
C271 C270 1.391 . S
C272 H262 0.950 . S
C272 C273 1.386 . S
C272 C274 1.391 . S
C273 C272 1.386 . S
C273 C277 1.393 . S
C274 H263 0.950 . S
C274 C272 1.391 . S
C274 C275 1.400 . S
C275 C269 1.491 1_565 S
C275 C274 1.400 . S
C275 C276 1.398 . S
C276 H264 0.950 1_565 S
C276 C275 1.398 . S
C276 C277 1.391 . S
C277 H265 0.950 . S
C277 C273 1.393 . S
C277 C276 1.391 . S
H278 C286 0.950 . S
H279 C291 0.950 . S
H280 C288 0.950 . S
H281 C290 0.950 . S
H282 C292 0.950 . S
H283 C294 0.950 . S
H284 C296 0.950 . S
H285 C297 0.950 . S
C286 H278 0.950 . S
C286 C287 1.386 . S
C286 C288 1.391 . S
C287 C286 1.386 . S
C287 C291 1.393 . S
C288 H280 0.950 . S
C288 C286 1.391 . S
C288 C289 1.400 . S
C289 C288 1.400 . S
C289 C290 1.398 . S
C289 C295 1.481 1_556 S
C290 H281 0.950 . S
C290 C289 1.398 . S
C290 C291 1.391 . S
C291 H279 0.950 . S
C291 C287 1.393 . S
C291 C290 1.391 . S
C292 H282 0.950 . S
C292 C293 1.386 . S
C292 C294 1.391 1_554 S
C293 C292 1.386 . S
C293 C297 1.393 . S
C294 H283 0.950 . S
C294 C292 1.391 1_556 S
C294 C295 1.400 1_556 S
C295 C289 1.481 1_554 S
C295 C294 1.400 1_554 S
C295 C296 1.409 . S
C296 H284 0.950 . S
C296 C295 1.409 . S
C296 C297 1.391 . S
C297 H285 0.950 . S
C297 C293 1.393 . S
C297 C296 1.391 . S
H298 C306 0.950 . S
H299 C311 0.950 . S
H300 C308 0.950 1_655 S
H301 C310 0.950 . S
H302 C312 0.950 . S
H303 C314 0.950 1_455 S
H304 C316 0.950 . S
H305 C317 0.950 . S
C306 H298 0.950 . S
C306 C307 1.386 . S
C306 C308 1.391 . S
C307 C306 1.386 . S
C307 C311 1.393 . S
C308 H300 0.950 1_455 S
C308 C306 1.391 . S
C308 C309 1.400 . S
C309 C308 1.400 . S
C309 C310 1.398 . S
C309 C315 1.491 1_455 S
C310 H301 0.950 . S
C310 C309 1.398 . S
C310 C311 1.391 . S
C311 H299 0.950 . S
C311 C307 1.393 . S
C311 C310 1.391 . S
C312 H302 0.950 . S
C312 C313 1.386 . S
C312 C314 1.391 . S
C313 C312 1.386 . S
C313 C317 1.393 . S
C314 H303 0.950 1_655 S
C314 C312 1.391 . S
C314 C315 1.400 . S
C315 C309 1.491 1_655 S
C315 C314 1.400 . S
C315 C316 1.398 . S
C316 H304 0.950 . S
C316 C315 1.398 . S
C316 C317 1.391 . S
C317 H305 0.950 . S
C317 C313 1.393 . S
C317 C316 1.391 . S
C87 C5 0.919 . S
C93 C57 0.921 . S
C107 C23 0.994 . S
C113 C75 0.985 . S
C127 C10 0.987 . S
C133 C31 0.913 . S
C147 C49 0.963 . S
C153 C18 0.949 . S
C167 C62 0.971 . S
C173 C36 0.991 . S
C187 C44 0.923 . S
C193 C70 0.897 . S
C207 C47 1.310 . S
C213 C8 1.309 . S
C227 C60 1.333 . S
C233 C13 1.323 . S
C247 C65 1.329 . S
C253 C34 1.344 . S
C267 C0 1.345 . S
C273 C39 1.338 . S
C287 C21 1.339 . S
C293 C52 1.313 . S
C307 C73 1.328 . S
C313 C26 1.330 . S
