# Generated by pormake.
# Topology yfk, (5)-cn, num edge types: 1
# Building blocks:
#     Node 0, Type 0, BuildingBlock: BEQFEK_clean_sbu_0, # of connection points: 5
#     Node 1, Type 0, BuildingBlock: BEQFEK_clean_sbu_0, # of connection points: 5
#     Node 2, Type 0, BuildingBlock: BEQFEK_clean_sbu_0, # of connection points: 5
#     Node 3, Type 0, BuildingBlock: BEQFEK_clean_sbu_0, # of connection points: 5
#     Node 4, Type 0, BuildingBlock: BEQFEK_clean_sbu_0, # of connection points: 5
#     Node 5, Type 0, BuildingBlock: BEQFEK_clean_sbu_0, # of connection points: 5
#     Node 6, Type 0, BuildingBlock: BEQFEK_clean_sbu_0, # of connection points: 5
#     Node 7, Type 0, BuildingBlock: BEQFEK_clean_sbu_0, # of connection points: 5
#     Node 8, Type 0, BuildingBlock: BEQFEK_clean_sbu_0, # of connection points: 5
#     Node 9, Type 0, BuildingBlock: BEQFEK_clean_sbu_0, # of connection points: 5
#     Node 10, Type 0, BuildingBlock: BEQFEK_clean_sbu_0, # of connection points: 5
#     Node 11, Type 0, BuildingBlock: BEQFEK_clean_sbu_0, # of connection points: 5
#     Node 12, Type 0, BuildingBlock: BEQFEK_clean_sbu_0, # of connection points: 5
#     Node 13, Type 0, BuildingBlock: BEQFEK_clean_sbu_0, # of connection points: 5
#     Node 14, Type 0, BuildingBlock: BEQFEK_clean_sbu_0, # of connection points: 5
#     Node 15, Type 0, BuildingBlock: BEQFEK_clean_sbu_0, # of connection points: 5
#     Edge 16, Type (0, 0), BuildingBlock: XIVTED_clean_linker_0, # of connection points: 2
#     Edge 17, Type (0, 0), BuildingBlock: XIVTED_clean_linker_0, # of connection points: 2
#     Edge 18, Type (0, 0), BuildingBlock: XIVTED_clean_linker_0, # of connection points: 2
#     Edge 19, Type (0, 0), BuildingBlock: XIVTED_clean_linker_0, # of connection points: 2
#     Edge 20, Type (0, 0), BuildingBlock: XIVTED_clean_linker_0, # of connection points: 2
#     Edge 21, Type (0, 0), BuildingBlock: XIVTED_clean_linker_0, # of connection points: 2
#     Edge 22, Type (0, 0), BuildingBlock: XIVTED_clean_linker_0, # of connection points: 2
#     Edge 23, Type (0, 0), BuildingBlock: XIVTED_clean_linker_0, # of connection points: 2
#     Edge 24, Type (0, 0), BuildingBlock: XIVTED_clean_linker_0, # of connection points: 2
#     Edge 25, Type (0, 0), BuildingBlock: XIVTED_clean_linker_0, # of connection points: 2
#     Edge 26, Type (0, 0), BuildingBlock: XIVTED_clean_linker_0, # of connection points: 2
#     Edge 27, Type (0, 0), BuildingBlock: XIVTED_clean_linker_0, # of connection points: 2
#     Edge 28, Type (0, 0), BuildingBlock: XIVTED_clean_linker_0, # of connection points: 2
#     Edge 29, Type (0, 0), BuildingBlock: XIVTED_clean_linker_0, # of connection points: 2
#     Edge 30, Type (0, 0), BuildingBlock: XIVTED_clean_linker_0, # of connection points: 2
#     Edge 31, Type (0, 0), BuildingBlock: XIVTED_clean_linker_0, # of connection points: 2
#     Edge 32, Type (0, 0), BuildingBlock: XIVTED_clean_linker_0, # of connection points: 2
#     Edge 33, Type (0, 0), BuildingBlock: XIVTED_clean_linker_0, # of connection points: 2
#     Edge 34, Type (0, 0), BuildingBlock: XIVTED_clean_linker_0, # of connection points: 2
#     Edge 35, Type (0, 0), BuildingBlock: XIVTED_clean_linker_0, # of connection points: 2
#     Edge 36, Type (0, 0), BuildingBlock: XIVTED_clean_linker_0, # of connection points: 2
#     Edge 37, Type (0, 0), BuildingBlock: XIVTED_clean_linker_0, # of connection points: 2
#     Edge 38, Type (0, 0), BuildingBlock: XIVTED_clean_linker_0, # of connection points: 2
#     Edge 39, Type (0, 0), BuildingBlock: XIVTED_clean_linker_0, # of connection points: 2
#     Edge 40, Type (0, 0), BuildingBlock: XIVTED_clean_linker_0, # of connection points: 2
#     Edge 41, Type (0, 0), BuildingBlock: XIVTED_clean_linker_0, # of connection points: 2
#     Edge 42, Type (0, 0), BuildingBlock: XIVTED_clean_linker_0, # of connection points: 2
#     Edge 43, Type (0, 0), BuildingBlock: XIVTED_clean_linker_0, # of connection points: 2
#     Edge 44, Type (0, 0), BuildingBlock: XIVTED_clean_linker_0, # of connection points: 2
#     Edge 45, Type (0, 0), BuildingBlock: XIVTED_clean_linker_0, # of connection points: 2
#     Edge 46, Type (0, 0), BuildingBlock: XIVTED_clean_linker_0, # of connection points: 2
#     Edge 47, Type (0, 0), BuildingBlock: XIVTED_clean_linker_0, # of connection points: 2
#     Edge 48, Type (0, 0), BuildingBlock: XIVTED_clean_linker_0, # of connection points: 2
#     Edge 49, Type (0, 0), BuildingBlock: XIVTED_clean_linker_0, # of connection points: 2
#     Edge 50, Type (0, 0), BuildingBlock: XIVTED_clean_linker_0, # of connection points: 2
#     Edge 51, Type (0, 0), BuildingBlock: XIVTED_clean_linker_0, # of connection points: 2
#     Edge 52, Type (0, 0), BuildingBlock: XIVTED_clean_linker_0, # of connection points: 2
#     Edge 53, Type (0, 0), BuildingBlock: XIVTED_clean_linker_0, # of connection points: 2
#     Edge 54, Type (0, 0), BuildingBlock: XIVTED_clean_linker_0, # of connection points: 2
#     Edge 55, Type (0, 0), BuildingBlock: XIVTED_clean_linker_0, # of connection points: 2
# Relax obj value: 0.354
# Max RMSD: 0.208
# Mean RMSD: 0.208
data_MOF--net-yfk--node1-BEQFEK_clean_sbu_0--edge1-XIVTED_clean_linker_0
_symmetry_space_group_name_H-M    P1
_symmetry_Int_Tables_number       1
_symmetry_cell_setting            triclinic
loop_
_symmetry_equiv_pos_as_xyz
'x, y, z'
_cell_length_a     53.308069
_cell_length_b     53.331383
_cell_length_c     29.665073
_cell_angle_alpha  90.030933
_cell_angle_beta   89.815307
_cell_angle_gamma 90.001346
loop_
_atom_site_label
_atom_site_type_symbol
_atom_site_fract_x
_atom_site_fract_y
_atom_site_fract_z
_atom_type_partial_charge
Co0 Co 0.10457 0.04486 0.29854 0.0
Co1 Co 0.09523 0.09808 0.25761 0.0
C2 C 0.07139 0.05148 0.21832 0.0
O3 O 0.0834 0.03792 0.24618 0.0
O4 O 0.07351 0.07543 0.21846 0.0
C5 C 0.12453 0.99292 0.33414 0.0
O6 O 0.14052 0.98527 0.30331 0.0
C7 C 0.09312 0.14551 0.20217 0.0
C8 C 0.09619 0.17265 0.25834 0.0
C9 C 0.09378 0.17106 0.2121 0.0
N10 N 0.09509 0.13273 0.24118 0.0
N11 N 0.09694 0.14918 0.27436 0.0
C12 C 0.08975 0.13346 0.15709 0.0
H13 H 0.0806 0.11489 0.16086 0.0
H14 H 0.10845 0.13056 0.14139 0.0
H15 H 0.07844 0.14562 0.13462 0.0
C16 C 0.15641 0.06309 0.29936 0.0
N17 N 0.13263 0.06473 0.28461 0.0
N18 N 0.12921 0.08665 0.26515 0.0
C19 C 0.15119 0.0993 0.26584 0.0
C20 C 0.16902 0.08483 0.28773 0.0
C21 C 0.16553 0.04315 0.33082 0.0
H22 H 0.1516 0.04024 0.35818 0.0
H23 H 0.16761 0.02539 0.31183 0.0
H24 H 0.18395 0.04794 0.34584 0.0
O25 O 0.08463 0.06175 0.34492 0.0
O26 O 0.07944 0.1 0.31809 0.0
H27 H 0.1471 0.1385 0.27828 0.0
H28 H 0.17459 0.13037 0.24608 0.0
C29 C 0.15445 0.12596 0.25151 0.0
H30 H 0.14397 0.12944 0.21992 0.0
H31 H 0.0989 0.14438 0.30824 0.0
O32 O 0.11309 0.01363 0.32985 0.0
C33 C 0.0764 0.08393 0.34909 0.0
Co34 Co 0.04845 0.88599 0.67899 0.0
Co35 Co 0.09895 0.89914 0.72735 0.0
C36 C 0.05049 0.92444 0.75278 0.0
O37 O 0.03915 0.9112 0.72358 0.0
O38 O 0.07404 0.92193 0.76005 0.0
C39 C 0.9968 0.88105 0.65159 0.0
O40 O 0.99171 0.89649 0.68492 0.0
C41 C 0.14296 0.90271 0.79016 0.0
C42 C 0.17312 0.89786 0.73941 0.0
C43 C 0.16874 0.90085 0.78489 0.0
N44 N 0.13247 0.90073 0.74908 0.0
N45 N 0.1507 0.89808 0.71909 0.0
C46 C 0.12869 0.90482 0.83339 0.0
H47 H 0.10874 0.90951 0.82691 0.0
H48 H 0.12968 0.88666 0.85156 0.0
H49 H 0.1374 0.91931 0.85519 0.0
C50 C 0.06571 0.83524 0.69415 0.0
N51 N 0.06732 0.85985 0.70317 0.0
N52 N 0.08874 0.86468 0.7233 0.0
C53 C 0.10147 0.84287 0.7276 0.0
C54 C 0.08733 0.82361 0.70906 0.0
C55 C 0.04625 0.82409 0.66382 0.0
H56 H 0.04793 0.8326 0.6298 0.0
H57 H 0.02731 0.82846 0.67723 0.0
H58 H 0.0483 0.80345 0.66086 0.0
O59 O 0.06737 0.90341 0.63211 0.0
O60 O 0.10323 0.91284 0.66554 0.0
H61 H 0.14073 0.84809 0.7167 0.0
H62 H 0.13302 0.82089 0.74999 0.0
C63 C 0.12801 0.84074 0.74321 0.0
H64 H 0.13062 0.85187 0.77439 0.0
H65 H 0.14781 0.89565 0.6846 0.0
O66 O 0.01909 0.87329 0.64634 0.0
C67 C 0.08905 0.91315 0.6313 0.0
Co68 Co 0.88863 0.95214 0.30601 0.0
Co69 Co 0.90424 0.90054 0.26347 0.0
C70 C 0.92499 0.95025 0.22911 0.0
O71 O 0.91164 0.96231 0.25754 0.0
O72 O 0.92428 0.9262 0.22683 0.0
C73 C 0.87681 0.00356 0.34073 0.0
O74 O 0.88801 0.01444 0.30642 0.0
C75 C 0.90682 0.85398 0.20512 0.0
C76 C 0.90763 0.82606 0.26024 0.0
C77 C 0.90651 0.8283 0.21396 0.0
N78 N 0.90769 0.86623 0.24489 0.0
N79 N 0.90857 0.84927 0.27737 0.0
C80 C 0.90385 0.86656 0.16047 0.0
H81 H 0.89812 0.88642 0.16504 0.0
H82 H 0.88983 0.85642 0.13973 0.0
H83 H 0.92206 0.86607 0.14226 0.0
C84 C 0.83885 0.9312 0.29725 0.0
N85 N 0.86323 0.93083 0.28572 0.0
N86 N 0.86911 0.90867 0.26927 0.0
C87 C 0.84828 0.89415 0.27026 0.0
C88 C 0.82857 0.90788 0.28858 0.0
C89 C 0.82688 0.95177 0.32413 0.0
H90 H 0.83453 0.95157 0.35888 0.0
H91 H 0.83129 0.97015 0.30855 0.0
H92 H 0.8062 0.94943 0.32589 0.0
O93 O 0.90713 0.93519 0.35379 0.0
O94 O 0.91883 0.89901 0.32473 0.0
H95 H 0.85858 0.85676 0.28802 0.0
H96 H 0.82851 0.85921 0.26064 0.0
C97 C 0.84799 0.86658 0.26123 0.0
H98 H 0.85703 0.86273 0.22828 0.0
H99 H 0.90861 0.85348 0.3117 0.0
O100 O 0.87482 0.9799 0.3417 0.0
C101 C 0.91795 0.91417 0.3576 0.0
Co102 Co 0.95102 0.10482 0.68533 0.0
Co103 Co 0.89849 0.09717 0.73032 0.0
C104 C 0.94277 0.06921 0.764 0.0
O105 O 0.95623 0.08034 0.73464 0.0
O106 O 0.91924 0.07348 0.76755 0.0
C107 C 0.00379 0.12311 0.65105 0.0
O108 O 0.00935 0.14174 0.67818 0.0
C109 C 0.85099 0.0962 0.78506 0.0
C110 C 0.82441 0.10421 0.72976 0.0
C111 C 0.82558 0.09964 0.77557 0.0
N112 N 0.86395 0.09872 0.74632 0.0
N113 N 0.84786 0.10338 0.71359 0.0
C114 C 0.86307 0.09232 0.82992 0.0
H115 H 0.88303 0.09822 0.82869 0.0
H116 H 0.85296 0.103 0.85647 0.0
H117 H 0.86239 0.07209 0.83856 0.0
C118 C 0.93578 0.15766 0.69101 0.0
N119 N 0.93352 0.13361 0.70415 0.0
N120 N 0.91196 0.13064 0.72536 0.0
C121 C 0.90043 0.15317 0.72792 0.0
C122 C 0.91501 0.17093 0.70595 0.0
C123 C 0.95463 0.16658 0.65707 0.0
H124 H 0.959 0.15143 0.6327 0.0
H125 H 0.97202 0.17199 0.67496 0.0
H126 H 0.94788 0.18326 0.63836 0.0
O127 O 0.93194 0.08947 0.6361 0.0
O128 O 0.89556 0.08219 0.66962 0.0
H129 H 0.86074 0.15227 0.71882 0.0
H130 H 0.87155 0.17735 0.75424 0.0
C131 C 0.87443 0.15732 0.74536 0.0
H132 H 0.87107 0.14558 0.77558 0.0
H133 H 0.85297 0.10641 0.68005 0.0
O134 O 0.98329 0.11124 0.65526 0.0
C135 C 0.90976 0.081 0.6354 0.0
Co136 Co 0.10827 0.45251 0.93477 0.0
Co137 Co 0.09635 0.3996 0.97646 0.0
C138 C 0.072 0.44728 0.0115 0.0
O139 O 0.08506 0.46051 0.98441 0.0
O140 O 0.07403 0.42332 0.0126 0.0
C141 C 0.10865 0.50333 0.9024 0.0
O142 O 0.08999 0.50658 0.93086 0.0
C143 C 0.09444 0.3534 0.0349 0.0
C144 C 0.09762 0.32504 0.98071 0.0
C145 C 0.09631 0.32769 0.02697 0.0
N146 N 0.09495 0.36524 -0.00522 0.0
N147 N 0.09654 0.34806 0.96276 0.0
C148 C 0.09434 0.36658 0.07936 0.0
H149 H 0.10069 0.38628 0.07528 0.0
H150 H 0.10654 0.35661 0.10375 0.0
H151 H 0.07493 0.36673 0.093 0.0
C152 C 0.15947 0.43393 0.94214 0.0
N153 N 0.13511 0.43227 0.95355 0.0
N154 N 0.13068 0.41016 0.97158 0.0
C155 C 0.15243 0.39711 0.97223 0.0
C156 C 0.17129 0.41167 0.95321 0.0
C157 C 0.17011 0.45454 0.91368 0.0
H158 H 0.16579 0.47291 0.92943 0.0
H159 H 0.19074 0.45269 0.90968 0.0
H160 H 0.16121 0.45405 0.87992 0.0
O161 O 0.08933 0.4354 0.88726 0.0
O162 O 0.08242 0.39752 0.91501 0.0
H163 H 0.14616 0.35854 0.95666 0.0
H164 H 0.17454 0.36436 0.98779 0.0
C165 C 0.1546 0.36994 0.98393 0.0
H166 H 0.14447 0.36615 0.01586 0.0
H167 H 0.09778 0.35207 0.92842 0.0
O168 O 0.12041 0.48265 0.90262 0.0
C169 C 0.08066 0.41337 0.88335 0.0
Co170 Co 0.45022 0.88937 0.05253 0.0
Co171 Co 0.39746 0.90147 0.0126 0.0
C172 C 0.44357 0.92812 0.98023 0.0
O173 O 0.45698 0.91507 0.0067 0.0
O174 O 0.41978 0.9254 0.97831 0.0
C175 C 0.50361 0.86901 0.08592 0.0
O176 O 0.51472 0.85568 0.05442 0.0
C177 C 0.35196 0.90445 0.95363 0.0
C178 C 0.32298 0.89849 0.00615 0.0
C179 C 0.32636 0.9018 0.96045 0.0
N180 N 0.36332 0.90252 0.99397 0.0
N181 N 0.34578 0.89929 0.02507 0.0
C182 C 0.36531 0.90684 0.90949 0.0
H183 H 0.38556 0.91067 0.91465 0.0
H184 H 0.36314 0.88913 0.89023 0.0
H185 H 0.35667 0.92208 0.88934 0.0
C186 C 0.43312 0.83814 0.04062 0.0
N187 N 0.43126 0.8626 0.03029 0.0
N188 N 0.40898 0.86717 0.01314 0.0
C189 C 0.39617 0.84529 0.01134 0.0
C190 C 0.41092 0.8263 0.02916 0.0
C191 C 0.45335 0.82761 0.06995 0.0
H192 H 0.45439 0.83857 0.1017 0.0
H193 H 0.47158 0.82934 0.05219 0.0
H194 H 0.4501 0.80756 0.0781 0.0
O195 O 0.43211 0.90371 0.1043 0.0
O196 O 0.39515 0.91368 0.07565 0.0
H197 H 0.35753 0.85018 0.0283 0.0
H198 H 0.36384 0.82307 0.99387 0.0
C199 C 0.36899 0.84297 -0.00013 0.0
H200 H 0.36483 0.85401 0.96919 0.0
H201 H 0.34944 0.89682 0.0593 0.0
O202 O 0.48221 0.8786 0.07879 0.0
C203 C 0.41018 0.91271 0.1087 0.0
Co204 Co 0.89394 0.5494 0.92572 0.0
Co205 Co 0.90265 0.59963 0.97808 0.0
C206 C 0.92561 0.55044 0.00881 0.0
O207 O 0.91441 0.53889 0.97707 0.0
O208 O 0.92333 0.57425 0.01408 0.0
C209 C 0.88134 0.49781 0.89372 0.0
O210 O 0.88679 0.4879 0.93302 0.0
C211 C 0.90591 0.64562 0.03865 0.0
C212 C 0.89952 0.6737 0.98498 0.0
C213 C 0.90448 0.67132 0.03038 0.0
N214 N 0.90212 0.63349 -0.00067 0.0
N215 N 0.89814 0.65053 0.96778 0.0
C216 C 0.91187 0.633 0.08227 0.0
H217 H 0.91959 0.61397 0.07612 0.0
H218 H 0.89437 0.63114 0.10234 0.0
H219 H 0.92536 0.64442 0.102 0.0
C220 C 0.84177 0.56548 0.93235 0.0
N221 N 0.86594 0.56809 0.94401 0.0
N222 N 0.86886 0.58884 0.96734 0.0
C223 C 0.84621 0.60005 0.97169 0.0
C224 C 0.82831 0.58556 0.94971 0.0
C225 C 0.8329 0.54644 0.89874 0.0
H226 H 0.8451 0.54719 0.86842 0.0
H227 H 0.83445 0.52744 0.91366 0.0
H228 H 0.81333 0.54958 0.88776 0.0
O229 O 0.91489 0.56845 0.88383 0.0
O230 O 0.91972 0.60466 0.91905 0.0
H231 H 0.84707 0.64005 0.97035 0.0
H232 H 0.82182 0.6271 0.00343 0.0
C233 C 0.84187 0.62482 0.99402 0.0
H234 H 0.85369 0.62642 0.02458 0.0
H235 H 0.8946 0.6463 0.93406 0.0
O236 O 0.88334 0.52125 0.88788 0.0
C237 C 0.92345 0.59057 0.88526 0.0
Co238 Co 0.54586 0.10481 0.05804 0.0
Co239 Co 0.59825 0.09567 0.01323 0.0
C240 C 0.55349 0.06881 0.97985 0.0
O241 O 0.5404 0.08052 0.00896 0.0
O242 O 0.57712 0.07216 0.97643 0.0
C243 C 0.49428 0.12608 0.08501 0.0
O244 O 0.49343 0.14476 0.05628 0.0
C245 C 0.64524 0.09231 0.95739 0.0
C246 C 0.6727 0.09916 0.01183 0.0
C247 C 0.67081 0.0941 0.9663 0.0
N248 N 0.63272 0.09619 -0.00375 0.0
N249 N 0.64932 0.10027 0.02843 0.0
C250 C 0.63298 0.08597 0.91357 0.0
H251 H 0.61465 0.07672 0.91952 0.0
H252 H 0.62958 0.10353 0.89451 0.0
H253 H 0.64525 0.0736 0.893 0.0
C254 C 0.5629 0.15714 0.05257 0.0
N255 N 0.56417 0.13308 0.03903 0.0
N256 N 0.5854 0.12945 0.01706 0.0
C257 C 0.59757 0.15162 0.01397 0.0
C258 C 0.58383 0.16977 0.03662 0.0
C259 C 0.54513 0.16652 0.08803 0.0
H260 H 0.53833 0.15083 0.10923 0.0
H261 H 0.52904 0.17581 0.07141 0.0
H262 H 0.55408 0.18065 0.11017 0.0
O263 O 0.56447 0.08954 0.10745 0.0
O264 O 0.60097 0.0817 0.07488 0.0
H265 H 0.6373 0.14968 0.02205 0.0
H266 H 0.62688 0.17478 0.98633 0.0
C267 C 0.62353 0.15491 -0.00424 0.0
H268 H 0.62633 0.14283 0.96574 0.0
H269 H 0.64467 0.10388 0.062 0.0
O270 O 0.51307 0.11152 0.08648 0.0
C271 C 0.58668 0.08112 0.10913 0.0
Co272 Co 0.6023 0.54425 0.80345 0.0
Co273 Co 0.59571 0.5965 0.75767 0.0
C274 C 0.56902 0.5512 0.7224 0.0
O275 O 0.5798 0.53822 0.75259 0.0
O276 O 0.57264 0.57487 0.71938 0.0
C277 C 0.62068 0.49226 0.83727 0.0
O278 O 0.63946 0.488 0.80956 0.0
C279 C 0.59442 0.64297 0.69967 0.0
C280 C 0.60569 0.67033 0.752 0.0
C281 C 0.59923 0.6682 0.70723 0.0
N282 N 0.59812 0.63061 0.73869 0.0
N283 N 0.60466 0.6472 0.76966 0.0
C284 C 0.58712 0.63089 0.6562 0.0
H285 H 0.57538 0.6141 0.66264 0.0
H286 H 0.60437 0.6248 0.63823 0.0
H287 H 0.57693 0.64436 0.63439 0.0
C288 C 0.65492 0.55915 0.80232 0.0
N289 N 0.63138 0.56157 0.78688 0.0
N290 N 0.6292 0.58287 0.76477 0.0
C291 C 0.65203 0.59397 0.76331 0.0
C292 C 0.66901 0.57934 0.78724 0.0
C293 C 0.66195 0.54178 0.83996 0.0
H294 H 0.64521 0.53667 0.86007 0.0
H295 H 0.67064 0.52464 0.82566 0.0
H296 H 0.67567 0.5506 0.8631 0.0
O297 O 0.58626 0.56384 0.85057 0.0
O298 O 0.58058 0.60093 0.81903 0.0
H299 H 0.65331 0.63396 0.76674 0.0
H300 H 0.6774 0.62021 0.73222 0.0
C301 C 0.65734 0.61884 0.74211 0.0
H302 H 0.6454 0.62153 0.71196 0.0
H303 H 0.60869 0.64265 0.80307 0.0
O304 O 0.60792 0.51228 0.83449 0.0
C305 C 0.5789 0.58639 0.85282 0.0
Co306 Co 0.54327 0.39379 0.18799 0.0
Co307 Co 0.59651 0.40179 0.2309 0.0
C308 C 0.55004 0.42637 0.26935 0.0
O309 O 0.53653 0.41456 0.24112 0.0
O310 O 0.57395 0.42389 0.26973 0.0
C311 C 0.49206 0.37376 0.1543 0.0
O312 O 0.48873 0.35526 0.18284 0.0
C313 C 0.6441 0.40404 0.28647 0.0
C314 C 0.67108 0.39966 0.23018 0.0
C315 C 0.66966 0.40308 0.27626 0.0
N316 N 0.63118 0.40133 0.24775 0.0
N317 N 0.64756 0.39867 0.21453 0.0
C318 C 0.63223 0.4086 0.33144 0.0
H319 H 0.61344 0.41723 0.3273 0.0
H320 H 0.62986 0.3904 0.34903 0.0
H321 H 0.64431 0.42085 0.35245 0.0
C322 C 0.56175 0.34184 0.18355 0.0
N323 N 0.56289 0.3652 0.20063 0.0
N324 N 0.5844 0.36811 0.22186 0.0
C325 C 0.59703 0.34613 0.22047 0.0
C326 C 0.58326 0.32895 0.19567 0.0
C327 C 0.54242 0.33332 0.15035 0.0
H328 H 0.5372 0.34897 0.12769 0.0
H329 H 0.5256 0.32699 0.1691 0.0
H330 H 0.54898 0.31726 0.12974 0.0
O331 O 0.56094 0.41406 0.14343 0.0
O332 O 0.59923 0.41789 0.1709 0.0
H333 H 0.63659 0.34901 0.21041 0.0
H334 H 0.62704 0.32228 0.24303 0.0
C335 C 0.62329 0.34244 0.23667 0.0
H336 H 0.62638 0.35319 0.26814 0.0
H337 H 0.64266 0.39614 0.18082 0.0
O338 O 0.51151 0.38744 0.15592 0.0
C339 C 0.58334 0.42176 0.13999 0.0
Co340 Co 0.39108 0.45251 0.8003 0.0
Co341 Co 0.40477 0.39919 0.76155 0.0
C342 C 0.42678 0.44624 0.72204 0.0
O343 O 0.41422 0.4591 0.75029 0.0
O344 O 0.42545 0.42228 0.72146 0.0
C345 C 0.36873 0.50604 0.83419 0.0
O346 O 0.35391 0.51898 0.80762 0.0
C347 C 0.40678 0.35183 0.70591 0.0
C348 C 0.41125 0.32446 0.76125 0.0
C349 C 0.40898 0.32624 0.71496 0.0
N350 N 0.40761 0.36439 0.74538 0.0
N351 N 0.41031 0.34779 0.77808 0.0
C352 C 0.4045 0.36422 0.66092 0.0
H353 H 0.41115 0.38391 0.66274 0.0
H354 H 0.38449 0.36438 0.65075 0.0
H355 H 0.41536 0.35373 0.63507 0.0
C356 C 0.34081 0.43172 0.79612 0.0
N357 N 0.36498 0.43084 0.78326 0.0
N358 N 0.37009 0.40849 0.76675 0.0
C359 C 0.34896 0.39446 0.76865 0.0
C360 C 0.32981 0.40872 0.78754 0.0
C361 C 0.32983 0.45254 0.82376 0.0
H362 H 0.34112 0.45508 0.8548 0.0
H363 H 0.33064 0.47018 0.80408 0.0
H364 H 0.31002 0.44882 0.83318 0.0
O365 O 0.40914 0.43742 0.85134 0.0
O366 O 0.41902 0.40009 0.82343 0.0
H367 H 0.35897 0.35691 0.78595 0.0
H368 H 0.3284 0.35985 0.76041 0.0
C369 C 0.348 0.36688 0.75981 0.0
H370 H 0.35643 0.36283 0.72641 0.0
H371 H 0.41114 0.35233 0.81223 0.0
O372 O 0.3773 0.48517 0.8204 0.0
C373 C 0.41918 0.4159 0.85558 0.0
Co374 Co 0.45128 0.61034 0.18117 0.0
Co375 Co 0.40014 0.59607 0.22775 0.0
C376 C 0.45018 0.57492 0.25935 0.0
O377 O 0.4619 0.58805 0.23018 0.0
O378 O 0.42618 0.57585 0.26296 0.0
C379 C 0.50228 0.6175 0.14834 0.0
O380 O 0.50921 0.6017 0.17991 0.0
C381 C 0.35436 0.59101 0.28847 0.0
C382 C 0.32572 0.59095 0.2347 0.0
C383 C 0.32852 0.58973 0.28092 0.0
N384 N 0.36604 0.59292 0.24816 0.0
N385 N 0.34866 0.59285 0.21649 0.0
C386 C 0.36773 0.58973 0.3326 0.0
H387 H 0.3872 0.58287 0.32763 0.0
H388 H 0.36861 0.60881 0.34745 0.0
H389 H 0.35751 0.5773 0.35639 0.0
C390 C 0.431 0.66068 0.19153 0.0
N391 N 0.43031 0.6362 0.20202 0.0
N392 N 0.40863 0.63084 0.22105 0.0
C393 C 0.39471 0.65204 0.22257 0.0
C394 C 0.40836 0.67157 0.20349 0.0
C395 C 0.45113 0.67246 0.16329 0.0
H396 H 0.46975 0.66821 0.17801 0.0
H397 H 0.4488 0.69311 0.1612 0.0
H398 H 0.45048 0.66445 0.12877 0.0
O399 O 0.43427 0.59007 0.13501 0.0
O400 O 0.39778 0.58112 0.16677 0.0
H401 H 0.35627 0.64388 0.20893 0.0
H402 H 0.36117 0.67266 0.23967 0.0
C403 C 0.36762 0.65299 0.23557 0.0
H404 H 0.3647 0.64273 0.26765 0.0
H405 H 0.3524 0.59449 0.18209 0.0
O406 O 0.47955 0.62436 0.14647 0.0
C407 C 0.41277 0.57994 0.13355 0.0
Co408 Co 0.61038 0.94747 0.42745 0.0
Co409 Co 0.59627 0.8981 0.47899 0.0
C410 C 0.57468 0.94851 0.50583 0.0
O411 O 0.58775 0.95909 0.47525 0.0
O412 O 0.5757 0.92473 0.51221 0.0
C413 C 0.61956 -0.00145 0.3979 0.0
O414 O 0.60705 0.00568 0.4339 0.0
C415 C 0.5921 0.85431 0.54342 0.0
C416 C 0.59602 0.82409 0.49271 0.0
C417 C 0.59362 0.82845 0.53829 0.0
N418 N 0.59375 0.86477 0.50215 0.0
N419 N 0.59572 0.84647 0.47223 0.0
C420 C 0.59119 0.86863 0.58665 0.0
H421 H 0.58749 0.8888 0.58024 0.0
H422 H 0.60942 0.86662 0.60424 0.0
H423 H 0.57642 0.8607 0.60895 0.0
C424 C 0.6609 0.92825 0.44016 0.0
N425 N 0.63632 0.92756 0.45005 0.0
N426 N 0.63106 0.90673 0.47185 0.0
C427 C 0.65253 0.89344 0.47632 0.0
C428 C 0.67204 0.90661 0.45618 0.0
C429 C 0.67258 0.94717 0.40925 0.0
H430 H 0.66869 0.96631 0.42213 0.0
H431 H 0.69318 0.94454 0.40638 0.0
H432 H 0.66406 0.94546 0.3753 0.0
O433 O 0.59067 0.92891 0.383 0.0
O434 O 0.58131 0.8936 0.41843 0.0
H435 H 0.64621 0.85412 0.46916 0.0
H436 H 0.67383 0.86196 0.50105 0.0
C437 C 0.65407 0.86731 0.4943 0.0
H438 H 0.64306 0.86584 0.52592 0.0
H439 H 0.59789 0.84928 0.43764 0.0
O440 O 0.6238 0.97542 0.39165 0.0
C441 C 0.58051 0.90744 0.38376 0.0
Co442 Co 0.95021 0.38776 0.55448 0.0
Co443 Co 0.90002 0.40131 0.50615 0.0
C444 C 0.94745 0.42592 0.47862 0.0
O445 O 0.95746 0.41328 0.51001 0.0
O446 O 0.92413 0.4233 0.46936 0.0
C447 C 0.00353 0.36824 0.58795 0.0
O448 O 0.01318 0.35307 0.55763 0.0
C449 C 0.8527 0.40335 0.4497 0.0
C450 C 0.82541 0.40026 0.50578 0.0
C451 C 0.8271 0.40151 0.45939 0.0
N452 N 0.86536 0.40289 0.489 0.0
N453 N 0.84878 0.40135 0.52211 0.0
C454 C 0.86499 0.40336 0.40436 0.0
H455 H 0.88478 0.39707 0.40708 0.0
H456 H 0.85455 0.39107 0.38072 0.0
H457 H 0.8648 0.42272 0.39068 0.0
C458 C 0.93296 0.33723 0.5424 0.0
N459 N 0.93186 0.36142 0.5303 0.0
N460 N 0.90999 0.36629 0.51174 0.0
C461 C 0.89644 0.34478 0.51173 0.0
C462 C 0.91042 0.32584 0.53185 0.0
C463 C 0.95306 0.32671 0.57201 0.0
H464 H 0.97135 0.32864 0.55461 0.0
H465 H 0.94996 0.30658 0.57965 0.0
H466 H 0.95382 0.33752 0.60396 0.0
O467 O 0.93101 0.40191 0.60448 0.0
O468 O 0.89794 0.41619 0.56762 0.0
H469 H 0.85796 0.35155 0.52764 0.0
H470 H 0.86338 0.32325 0.49595 0.0
C471 C 0.86924 0.34309 0.50011 0.0
H472 H 0.86559 0.35338 0.46839 0.0
H473 H 0.85342 0.40006 0.55616 0.0
O474 O 0.98225 0.37825 0.5818 0.0
C475 C 0.91038 0.41373 0.60378 0.0
Co476 Co 0.38982 0.0459 0.43481 0.0
Co477 Co 0.40314 0.09901 0.47373 0.0
C478 C 0.4269 0.05108 0.50942 0.0
O479 O 0.41366 0.03776 0.48293 0.0
O480 O 0.4251 0.07507 0.50995 0.0
C481 C 0.38719 0.99468 0.4028 0.0
O482 O 0.40625 0.99036 0.42967 0.0
C483 C 0.4048 0.14491 0.53292 0.0
C484 C 0.40379 0.17375 0.47938 0.0
C485 C 0.40371 0.17072 0.52563 0.0
N486 N 0.40518 0.13337 0.49247 0.0
N487 N 0.40489 0.15083 0.46086 0.0
C488 C 0.40327 0.13142 0.57697 0.0
H489 H 0.39685 0.11182 0.5718 0.0
H490 H 0.39039 0.14138 0.60039 0.0
H491 H 0.42218 0.13098 0.59248 0.0
C492 C 0.33906 0.06441 0.44564 0.0
N493 N 0.36357 0.06628 0.45542 0.0
N494 N 0.3685 0.08902 0.47016 0.0
C495 C 0.34697 0.10246 0.46937 0.0
C496 C 0.3277 0.08736 0.45335 0.0
C497 C 0.32773 0.04266 0.42111 0.0
H498 H 0.33321 0.02491 0.43787 0.0
H499 H 0.30695 0.04398 0.42038 0.0
H500 H 0.33491 0.04233 0.38595 0.0
O501 O 0.40747 0.06292 0.38517 0.0
O502 O 0.41679 0.10048 0.41168 0.0
H503 H 0.35557 0.13967 0.4478 0.0
H504 H 0.32579 0.13679 0.47646 0.0
C505 C 0.34556 0.13022 0.47584 0.0
H506 H 0.35467 0.13541 0.50803 0.0
H507 H 0.40455 0.1471 0.42635 0.0
O508 O 0.37664 0.01598 0.40378 0.0
C509 C 0.41698 0.08455 0.37989 0.0
Co510 Co 0.04307 0.60628 0.54605 0.0
Co511 Co 0.09724 0.59449 0.50954 0.0
C512 C 0.05178 0.57068 0.46848 0.0
O513 O 0.03811 0.58259 0.49641 0.0
O514 O 0.07569 0.57294 0.46866 0.0
C515 C 0.98799 0.62567 0.57749 0.0
O516 O 0.9727 0.63477 0.54697 0.0
C517 C 0.14537 0.59308 0.45616 0.0
C518 C 0.17219 0.5949 0.51278 0.0
C519 C 0.17092 0.59423 0.46625 0.0
N520 N 0.13237 0.59325 0.49522 0.0
N521 N 0.14863 0.5941 0.52873 0.0
C522 C 0.13336 0.59387 0.41072 0.0
H523 H 0.11393 0.60122 0.41343 0.0
H524 H 0.14453 0.60567 0.38726 0.0
H525 H 0.13249 0.57457 0.39685 0.0
C526 C 0.06146 0.65725 0.54087 0.0
N527 N 0.0635 0.63313 0.52842 0.0
N528 N 0.08634 0.62882 0.51324 0.0
C529 C 0.09948 0.65047 0.51548 0.0
C530 C 0.08429 0.66904 0.53387 0.0
C531 C 0.03967 0.66743 0.5671 0.0
H532 H 0.02227 0.66484 0.54727 0.0
H533 H 0.04196 0.68768 0.57465 0.0
H534 H 0.03767 0.65685 0.59913 0.0
O535 O 0.05861 0.58989 0.59853 0.0
O536 O 0.09622 0.58028 0.57153 0.0
H537 H 0.13704 0.64345 0.5368 0.0
H538 H 0.13315 0.6724 0.50636 0.0
C539 C 0.12717 0.65249 0.50829 0.0
H540 H 0.13249 0.64289 0.47655 0.0
H541 H 0.14361 0.59483 0.56273 0.0
O542 O 0.00954 0.61807 0.56527 0.0
C543 C 0.08029 0.58036 0.60355 0.0
H544 H 0.07014 0.32037 0.10616 0.0
H545 H 0.11606 0.17779 0.12915 0.0
H546 H 0.12487 0.286 0.01831 0.0
H547 H 0.07013 0.21503 0.22868 0.0
H548 H 0.11756 0.21677 0.08561 0.0
H549 H 0.06908 0.28184 0.15115 0.0
C550 C 0.08233 0.30496 0.09696 0.0
C551 C 0.09768 0.30638 0.05863 0.0
C552 C 0.10699 0.21635 0.11683 0.0
C553 C 0.09612 0.26211 0.10898 0.0
C554 C 0.10585 0.19399 0.14131 0.0
C555 C 0.09268 0.19314 0.18221 0.0
C556 C 0.09483 0.23791 0.13342 0.0
C557 C 0.08046 0.21494 0.19719 0.0
C558 C 0.08153 0.28286 0.12229 0.0
C559 C 0.11262 0.28558 0.04749 0.0
N560 N 0.0818 0.23642 0.17282 0.0
N561 N 0.11139 0.2643 0.07239 0.0
H562 H 0.19165 0.86006 0.81959 0.0
H563 H 0.30593 0.94119 0.91591 0.0
H564 H 0.19207 0.94076 0.82246 0.0
H565 H 0.29951 0.86138 0.93444 0.0
H566 H 0.26565 0.94111 0.87596 0.0
H567 H 0.23166 0.85974 0.8601 0.0
C568 C 0.19993 0.87767 0.83008 0.0
C569 C 0.1886 0.90046 0.81875 0.0
C570 C 0.27319 0.92355 0.88823 0.0
C571 C 0.23461 0.9004 0.86293 0.0
C572 C 0.29628 0.92359 0.91032 0.0
C573 C 0.3059 0.90123 0.9277 0.0
C574 C 0.25983 0.90096 0.88368 0.0
C575 C 0.29261 0.87892 0.92093 0.0
C576 C 0.22284 0.87754 0.8526 0.0
C577 C 0.20018 0.92286 0.83159 0.0
N578 N 0.27016 0.87933 0.89947 0.0
N579 N 0.22274 0.92231 0.85276 0.0
H580 H 0.87696 0.78764 0.22632 0.0
H581 H 0.93127 0.71324 0.01351 0.0
H582 H 0.93077 0.81923 0.13361 0.0
H583 H 0.88389 0.67921 0.11435 0.0
H584 H 0.93096 0.7523 0.05638 0.0
H585 H 0.87736 0.74863 0.18324 0.0
C586 C 0.88869 0.7864 0.1965 0.0
C587 C 0.90386 0.80665 0.18339 0.0
C588 C 0.9208 0.73628 0.06946 0.0
C589 C 0.90485 0.76185 0.1345 0.0
C590 C 0.92109 0.71395 0.04516 0.0
C591 C 0.90772 0.69299 0.06066 0.0
C592 C 0.90671 0.73785 0.10934 0.0
C593 C 0.89476 0.69485 0.10167 0.0
C594 C 0.88902 0.76408 0.17212 0.0
C595 C 0.91857 0.80417 0.14447 0.0
N596 N 0.89438 0.71702 0.12446 0.0
N597 N 0.91885 0.78205 0.12153 0.0
H598 H 0.78214 0.12518 0.76408 0.0
H599 H 0.71567 0.07291 0.9854 0.0
H600 H 0.81742 0.07182 0.85307 0.0
H601 H 0.67591 0.11113 0.87925 0.0
H602 H 0.75364 0.07351 0.93921 0.0
H603 H 0.74372 0.12193 0.80819 0.0
C604 C 0.78191 0.11291 0.79317 0.0
C605 C 0.80326 0.09904 0.80525 0.0
C606 C 0.73654 0.08146 0.92574 0.0
C607 C 0.75913 0.09514 0.8558 0.0
C608 C 0.71487 0.08112 0.95203 0.0
C609 C 0.69257 0.09174 0.93586 0.0
C610 C 0.73601 0.09288 0.88321 0.0
C611 C 0.69254 0.10224 0.8926 0.0
C612 C 0.7599 0.11101 0.81821 0.0
C613 C 0.80179 0.08345 0.84321 0.0
N614 N 0.71404 0.10273 0.86785 0.0
N615 N 0.78007 0.08195 0.86722 0.0
H616 H 0.63783 0.69022 0.66319 0.0
H617 H 0.55609 0.80989 0.59111 0.0
H618 H 0.55818 0.6956 0.6854 0.0
H619 H 0.63428 0.80063 0.5583 0.0
H620 H 0.55692 0.76954 0.63114 0.0
H621 H 0.63712 0.73122 0.62597 0.0
C622 C 0.6201 0.69988 0.65906 0.0
C623 C 0.59795 0.68956 0.67629 0.0
C624 C 0.57401 0.77652 0.61582 0.0
C625 C 0.59701 0.73673 0.63579 0.0
C626 C 0.57359 0.79967 0.5937 0.0
C627 C 0.59523 0.80852 0.57216 0.0
C628 C 0.59623 0.76228 0.61606 0.0
C629 C 0.61731 0.79441 0.57508 0.0
C630 C 0.6197 0.72336 0.63841 0.0
C631 C 0.57551 0.70291 0.67154 0.0
N632 N 0.61724 0.77192 0.59643 0.0
N633 N 0.5756 0.72594 0.65189 0.0
H634 H 0.78527 0.37353 0.47216 0.0
H635 H 0.7133 0.42665 0.25674 0.0
H636 H 0.81821 0.42664 0.37969 0.0
H637 H 0.6772 0.38319 0.36093 0.0
H638 H 0.75226 0.42571 0.29963 0.0
H639 H 0.74643 0.37472 0.42903 0.0
C640 C 0.78439 0.38531 0.44245 0.0
C641 C 0.80507 0.39995 0.42936 0.0
C642 C 0.73579 0.41658 0.3134 0.0
C643 C 0.76043 0.40167 0.38015 0.0
C644 C 0.71352 0.41715 0.28902 0.0
C645 C 0.69193 0.40518 0.30554 0.0
C646 C 0.73666 0.40361 0.35445 0.0
C647 C 0.69325 0.39308 0.34739 0.0
C648 C 0.76215 0.38605 0.41799 0.0
C649 C 0.80292 0.41473 0.39053 0.0
N650 N 0.71533 0.39245 0.3703 0.0
N651 N 0.78092 0.41531 0.36738 0.0
H652 H 0.42906 0.17715 0.60543 0.0
H653 H 0.38055 0.31856 0.63834 0.0
H654 H 0.37535 0.21268 0.51784 0.0
H655 H 0.43532 0.28313 0.72404 0.0
H656 H 0.37778 0.27984 0.59421 0.0
H657 H 0.43 0.21522 0.65169 0.0
C658 C 0.41705 0.19274 0.59656 0.0
C659 C 0.40205 0.19177 0.55793 0.0
C660 C 0.39055 0.28062 0.62248 0.0
C661 C 0.40339 0.23555 0.6099 0.0
C662 C 0.39239 0.30288 0.64729 0.0
C663 C 0.40851 0.30423 0.6845 0.0
C664 C 0.40489 0.2596 0.63507 0.0
C665 C 0.4227 0.28292 0.69552 0.0
C666 C 0.41779 0.21459 0.62261 0.0
C667 C 0.38731 0.21276 0.54728 0.0
N668 N 0.42058 0.26155 0.67097 0.0
N669 N 0.38839 0.2338 0.573 0.0
H670 H 0.3226 0.6121 0.36456 0.0
H671 H 0.17841 0.56994 0.38519 0.0
H672 H 0.28474 0.56523 0.26764 0.0
H673 H 0.21474 0.61898 0.48051 0.0
H674 H 0.21736 0.56811 0.34162 0.0
H675 H 0.28392 0.61363 0.40944 0.0
C676 C 0.3064 0.60166 0.35325 0.0
C677 C 0.30699 0.58831 0.31251 0.0
C678 C 0.21676 0.57945 0.3719 0.0
C679 C 0.26247 0.59061 0.36283 0.0
C680 C 0.19437 0.58076 0.39646 0.0
C681 C 0.19321 0.59483 0.43631 0.0
C682 C 0.23818 0.59224 0.38737 0.0
C683 C 0.21484 0.60781 0.45001 0.0
C684 C 0.28418 0.60282 0.37853 0.0
C685 C 0.28511 0.57578 0.29883 0.0
N686 N 0.23642 0.60619 0.42568 0.0
N687 N 0.2638 0.5773 0.32378 0.0
H688 H 0.17402 0.10543 0.37068 0.0
H689 H 0.32374 0.09636 0.36415 0.0
H690 H 0.21649 0.0829 0.25381 0.0
H691 H 0.28075 0.09637 0.48729 0.0
H692 H 0.28504 0.10234 0.3212 0.0
H693 H 0.21338 0.11287 0.4114 0.0
C694 C 0.19175 0.10266 0.3534 0.0
C695 C 0.1923 0.0937 0.30901 0.0
C696 C 0.28406 0.10147 0.35764 0.0
C697 C 0.23708 0.10177 0.35511 0.0
C698 C 0.30609 0.09823 0.38207 0.0
C699 C 0.30518 0.09588 0.42908 0.0
C700 C 0.26098 0.10236 0.38047 0.0
C701 C 0.28204 0.09819 0.45101 0.0
C702 C 0.21411 0.10672 0.37662 0.0
C703 C 0.21549 0.09 0.28797 0.0
N704 N 0.26071 0.1011 0.42643 0.0
N705 N 0.23705 0.0939 0.31134 0.0
H706 H 0.08018 0.77675 0.74257 0.0
H707 H 0.09798 0.71545 0.50314 0.0
H708 H 0.11368 0.81699 0.63195 0.0
H709 H 0.08988 0.67158 0.62418 0.0
H710 H 0.10639 0.75269 0.54971 0.0
H711 H 0.08635 0.7374 0.70123 0.0
C712 C 0.0896 0.77707 0.71016 0.0
C713 C 0.09673 0.79981 0.69061 0.0
C714 C 0.10323 0.73481 0.56606 0.0
C715 C 0.10293 0.7554 0.64241 0.0
C716 C 0.09844 0.71369 0.5395 0.0
C717 C 0.09303 0.69076 0.56015 0.0
C718 C 0.10224 0.73282 0.61337 0.0
C719 C 0.09376 0.68916 0.60728 0.0
C720 C 0.09299 0.75473 0.6864 0.0
C721 C 0.10827 0.7996 0.6481 0.0
N722 N 0.09789 0.71001 0.63238 0.0
N723 N 0.11064 0.77773 0.62497 0.0
H724 H 0.78236 0.89637 0.25486 0.0
H725 H 0.71873 0.9104 0.49245 0.0
H726 H 0.82522 0.89776 0.37761 0.0
H727 H 0.67862 0.88153 0.3779 0.0
H728 H 0.75843 0.90281 0.45259 0.0
H729 H 0.74429 0.88786 0.29928 0.0
C730 C 0.78374 0.89421 0.29107 0.0
C731 C 0.80667 0.89775 0.31287 0.0
C732 C 0.741 0.89748 0.43657 0.0
C733 C 0.76357 0.88869 0.36382 0.0
C734 C 0.71845 0.90168 0.45946 0.0
C735 C 0.69567 0.89632 0.43835 0.0
C736 C 0.74054 0.8885 0.39195 0.0
C737 C 0.69601 0.88563 0.3952 0.0
C738 C 0.76211 0.88943 0.31645 0.0
C739 C 0.8077 0.89513 0.35984 0.0
N740 N 0.71811 0.88245 0.37301 0.0
N741 N 0.78636 0.89116 0.3839 0.0
H742 H 0.90134 0.27875 0.49917 0.0
H743 H 0.92208 0.21861 0.73638 0.0
H744 H 0.89882 0.32313 0.62042 0.0
H745 H 0.88882 0.17612 0.62856 0.0
H746 H 0.91319 0.25744 0.69481 0.0
H747 H 0.89541 0.24072 0.54494 0.0
C748 C 0.89877 0.28045 0.53528 0.0
C749 C 0.90056 0.30385 0.55629 0.0
C750 C 0.90732 0.23967 0.68067 0.0
C751 C 0.89472 0.26085 0.60871 0.0
C752 C 0.91236 0.21763 0.70441 0.0
C753 C 0.90597 0.19445 0.68574 0.0
C754 C 0.89641 0.23827 0.63759 0.0
C755 C 0.89382 0.19385 0.64392 0.0
C756 C 0.89554 0.25885 0.56141 0.0
C757 C 0.8975 0.30526 0.60321 0.0
N758 N 0.88978 0.21546 0.62079 0.0
N759 N 0.89526 0.28399 0.62801 0.0
H760 H 0.32565 0.3952 0.87512 0.0
H761 H 0.17579 0.39547 0.86729 0.0
H762 H 0.28284 0.40268 0.75306 0.0
H763 H 0.21847 0.40781 0.98825 0.0
H764 H 0.21482 0.38707 0.82602 0.0
H765 H 0.28662 0.3887 0.91756 0.0
C766 C 0.30797 0.39477 0.85722 0.0
C767 C 0.3072 0.39938 0.81075 0.0
C768 C 0.21567 0.39121 0.86173 0.0
C769 C 0.26269 0.39245 0.85879 0.0
C770 C 0.19347 0.39586 0.88522 0.0
C771 C 0.19419 0.40234 0.93095 0.0
C772 C 0.23872 0.39315 0.88423 0.0
C773 C 0.21734 0.40282 0.95293 0.0
C774 C 0.28576 0.39126 0.88139 0.0
C775 C 0.28402 0.39902 0.78888 0.0
N776 N 0.23881 0.39851 0.92923 0.0
N777 N 0.26258 0.39586 0.8132 0.0
H778 H 0.41314 0.77842 -0.00262 0.0
H779 H 0.40311 0.71886 0.23786 0.0
H780 H 0.38942 0.82239 0.11157 0.0
H781 H 0.39253 0.67501 0.1175 0.0
H782 H 0.39651 0.75726 0.19349 0.0
H783 H 0.40473 0.74005 0.04063 0.0
C784 C 0.40554 0.77985 0.03119 0.0
C785 C 0.40169 0.8033 0.05106 0.0
C786 C 0.39498 0.7392 0.17702 0.0
C787 C 0.39276 0.75994 0.10104 0.0
C788 C 0.3986 0.71739 0.20238 0.0
C789 C 0.3982 0.694 0.18108 0.0
C790 C 0.39161 0.73738 0.13009 0.0
C791 C 0.3928 0.69286 0.13492 0.0
C792 C 0.40079 0.75807 0.05591 0.0
C793 C 0.39235 0.80445 0.09524 0.0
N794 N 0.39018 0.71429 0.11073 0.0
N795 N 0.38855 0.78304 0.11911 0.0
H796 H 0.81187 0.62736 0.905 0.0
H797 H 0.70995 0.54949 0.78901 0.0
H798 H 0.78647 0.55778 0.96311 0.0
H799 H 0.68477 0.62348 0.82656 0.0
H800 H 0.74742 0.55553 0.83524 0.0
H801 H 0.77196 0.63049 0.86342 0.0
C802 C 0.79752 0.61328 0.91027 0.0
C803 C 0.80237 0.59213 0.93702 0.0
C804 C 0.73386 0.57058 0.83256 0.0
C805 C 0.75781 0.5951 0.88871 0.0
C806 C 0.7127 0.56728 0.80595 0.0
C807 C 0.69424 0.58594 0.80424 0.0
C808 C 0.73689 0.59293 0.85675 0.0
C809 C 0.69869 0.60872 0.82673 0.0
C810 C 0.77499 0.61497 0.88629 0.0
C811 C 0.78339 0.57424 0.94248 0.0
N812 N 0.71964 0.61161 0.85246 0.0
N813 N 0.7622 0.57572 0.91743 0.0
H814 H 0.60782 0.17557 0.11618 0.0
H815 H 0.59888 0.32498 0.10903 0.0
H816 H 0.58083 0.21685 0.00143 0.0
H817 H 0.58904 0.28194 0.2306 0.0
H818 H 0.607 0.28607 0.06722 0.0
H819 H 0.61557 0.21533 0.15567 0.0
C820 C 0.60424 0.19312 0.09897 0.0
C821 C 0.59362 0.19323 0.05582 0.0
C822 C 0.60352 0.2852 0.10318 0.0
C823 C 0.60234 0.23835 0.10033 0.0
C824 C 0.59901 0.30729 0.12696 0.0
C825 C 0.59296 0.30636 0.17294 0.0
C826 C 0.60229 0.26215 0.1258 0.0
C827 C 0.59345 0.28321 0.19502 0.0
C828 C 0.60849 0.21567 0.1215 0.0
C829 C 0.58903 0.2162 0.03475 0.0
N830 N 0.59779 0.26186 0.1711 0.0
N831 N 0.59326 0.23796 0.05739 0.0
H832 H 0.07128 0.0036 0.18602 0.0
H833 H 0.92414 0.00023 0.20932 0.0
H834 H 0.02511 0.06979 0.19464 0.0
H835 H 0.96969 0.93406 0.19195 0.0
H836 H 0.95957 0.02608 0.18608 0.0
H837 H 0.03406 0.97869 0.16916 0.0
C838 C 0.05338 0.01305 0.1829 0.0
C839 C 0.05127 0.03878 0.19248 0.0
C840 C 0.96175 0.00589 0.18633 0.0
C841 C 0.00832 0.01014 0.17451 0.0
C842 C 0.94145 0.99105 0.19958 0.0
C843 C 0.94402 0.96489 0.20345 0.0
C844 C 0.98504 0.99463 0.17739 0.0
C845 C 0.96686 0.95413 0.18985 0.0
C846 C 0.03206 -0.00125 0.17356 0.0
C847 C 0.02762 0.05001 0.1877 0.0
N848 N 0.98665 0.96907 0.17838 0.0
N849 N 0.00699 0.03553 0.18018 0.0
H850 H 0.03954 0.9406 0.84029 0.0
H851 H 0.92725 0.02102 0.75958 0.0
H852 H 0.02932 0.95862 0.69984 0.0
H853 H 0.98567 0.0677 0.81427 0.0
H854 H 0.95426 0.98426 0.77015 0.0
H855 H 0.01052 0.97551 0.86013 0.0
C856 C 0.03161 0.95213 0.8139 0.0
C857 C 0.03674 0.94687 0.7684 0.0
C858 C 0.96057 0.00241 0.78204 0.0
C859 C 0.00365 0.98565 0.79049 0.0
C860 C 0.94515 0.02334 0.77631 0.0
C861 C 0.95422 0.04735 0.78644 0.0
C862 C 0.98497 0.0055 0.79874 0.0
C863 C 0.97802 0.04942 0.80634 0.0
C864 C 0.01503 0.97176 0.82515 0.0
C865 C 0.02571 0.96201 0.73529 0.0
N866 N 0.99284 0.02877 0.81115 0.0
N867 N 0.00957 0.98052 0.74694 0.0
H868 H 0.02593 0.42858 0.03646 0.0
H869 H 0.96954 0.567 0.04733 0.0
H870 H 0.07042 0.49609 0.03912 0.0
H871 H 0.9256 0.50018 0.02592 0.0
H872 H 0.00557 0.5406 0.06695 0.0
H873 H 0.98865 0.45358 0.0548 0.0
C874 C 0.02804 0.44851 0.04244 0.0
C875 C 0.05129 0.46029 0.03567 0.0
C876 C 0.98786 0.53172 0.05898 0.0
C877 C 0.00864 0.48912 0.0559 0.0
C878 C 0.9672 0.54684 0.04822 0.0
C879 C 0.94463 0.53581 0.03422 0.0
C880 C 0.9859 0.50544 0.05575 0.0
C881 C 0.94277 0.5095 0.03581 0.0
C882 C 0.00669 0.46285 0.05248 0.0
C883 C 0.0528 0.48626 0.04344 0.0
N884 N 0.9632 0.49525 0.0455 0.0
N885 N 0.03176 0.49982 0.05243 0.0
H886 H 0.43326 0.97718 0.99323 0.0
H887 H 0.51135 0.07275 0.92947 0.0
H888 H 0.48377 0.92754 0.92304 0.0
H889 H 0.5654 0.01908 0.97754 0.0
H890 H 0.4824 0.03823 0.91261 0.0
H891 H 0.46133 0.01232 0.9762 0.0
C892 C 0.44959 0.97395 0.97214 0.0
C893 C 0.45596 0.94963 0.95845 0.0
C894 C 0.50087 0.03403 0.92569 0.0
C895 C 0.48831 0.98951 0.93965 0.0
C896 C 0.51744 0.0536 0.93487 0.0
C897 C 0.54071 0.04866 0.95488 0.0
C898 C 0.50754 0.00943 0.93718 0.0
C899 C 0.54772 0.02358 0.96159 0.0
C900 C 0.46567 0.99394 0.96271 0.0
C901 C 0.47815 0.94615 0.93356 0.0
N902 N 0.53095 0.00481 0.95355 0.0
N903 N 0.49383 0.96584 0.92556 0.0
H904 H 0.47241 0.42937 0.69056 0.0
H905 H 0.5232 0.56894 0.69429 0.0
H906 H 0.4251 0.49492 0.69424 0.0
H907 H 0.57024 0.50323 0.69165 0.0
H908 H 0.48729 0.54276 0.67289 0.0
H909 H 0.50793 0.45606 0.66923 0.0
C910 C 0.46928 0.44923 0.6854 0.0
C911 C 0.44589 0.45999 0.6952 0.0
C912 C 0.50561 0.53416 0.67577 0.0
C913 C 0.48654 0.49079 0.67184 0.0
C914 C 0.52617 0.54919 0.68754 0.0
C915 C 0.54963 0.53817 0.6954 0.0
C916 C 0.50862 0.50797 0.672 0.0
C917 C 0.55236 0.51241 0.68659 0.0
C918 C 0.48964 0.46455 0.67361 0.0
C919 C 0.44297 0.48589 0.68798 0.0
N920 N 0.53206 0.49814 0.67622 0.0
N921 N 0.46312 0.50045 0.67769 0.0
H922 H 0.50074 0.57449 0.27413 0.0
H923 H 0.50178 0.42765 0.30014 0.0
H924 H 0.43392 0.5309 0.29874 0.0
H925 H 0.56896 0.47245 0.29264 0.0
H926 H 0.47744 0.46544 0.31582 0.0
H927 H 0.52626 0.53861 0.29581 0.0
C928 C 0.49136 0.55753 0.28516 0.0
C929 C 0.46505 0.55566 0.2839 0.0
C930 C 0.49758 0.46702 0.31197 0.0
C931 C 0.49442 0.5141 0.30823 0.0
C932 C 0.51156 0.44537 0.30332 0.0
C933 C 0.53745 0.4469 0.29453 0.0
C934 C 0.50946 0.49052 0.3111 0.0
C935 C 0.54907 0.47036 0.29913 0.0
C936 C 0.50603 0.53697 0.29751 0.0
C937 C 0.45409 0.53321 0.29891 0.0
N938 N 0.53492 0.49132 0.306 0.0
N939 N 0.46882 0.51316 0.30954 0.0
H940 H 0.57426 -0.00052 0.51355 0.0
H941 H 0.42791 0.00263 0.53914 0.0
H942 H 0.53097 0.93399 0.54891 0.0
H943 H 0.47332 0.06942 0.53223 0.0
H944 H 0.46535 0.97813 0.55642 0.0
H945 H 0.53859 0.02587 0.53274 0.0
C946 C 0.55742 0.99062 0.52644 0.0
C947 C 0.55556 0.96434 0.5289 0.0
C948 C 0.46712 0.99822 0.55225 0.0
C949 C 0.51421 0.99473 0.55054 0.0
C950 C 0.44569 0.01228 0.54253 0.0
C951 C 0.44752 0.03809 0.53352 0.0
C952 C 0.49071 0.00993 0.55211 0.0
C953 C 0.47102 0.04957 0.53868 0.0
C954 C 0.53697 0.0058 0.53743 0.0
C955 C 0.53325 0.9541 0.54617 0.0
N956 N 0.49178 0.03533 0.54654 0.0
N957 N 0.51327 0.96928 0.55542 0.0
H958 H 0.99781 0.4304 0.48786 0.0
H959 H 0.00411 0.57095 0.43498 0.0
H960 H 0.93515 0.46563 0.42098 0.0
H961 H 0.07019 0.52467 0.44397 0.0
H962 H 0.97902 0.5336 0.41885 0.0
H963 H 0.02441 0.46464 0.46541 0.0
C964 C 0.9896 0.44508 0.46742 0.0
C965 C 0.96388 0.44503 0.45673 0.0
C966 C -0.00089 0.53168 0.42284 0.0
C967 C 0.99503 0.48493 0.43039 0.0
C968 C 0.0135 0.55301 0.43196 0.0
C969 C 0.0392 0.55081 0.44195 0.0
C970 C 0.01046 0.508 0.42468 0.0
C971 C 0.05042 0.52722 0.43704 0.0
C972 C 0.00507 0.4647 0.4543 0.0
C973 C 0.95475 0.46488 0.43027 0.0
N974 N 0.03586 0.50663 0.43006 0.0
N975 N 0.97023 0.48434 0.41869 0.0
H976 H 0.06307 0.94896 0.58848 0.0
H977 H 0.15612 0.95929 0.37657 0.0
H978 H 0.13244 0.90762 0.58221 0.0
H979 H 0.08418 0.99588 0.38897 0.0
H980 H 0.1498 0.94088 0.45203 0.0
H981 H 0.07327 0.96875 0.51692 0.0
C982 C 0.08051 0.94412 0.57174 0.0
C983 C 0.09682 0.92655 0.59055 0.0
C984 C 0.13544 0.95288 0.43794 0.0
C985 C 0.10848 0.94851 0.50799 0.0
C986 C 0.13893 0.96316 0.39486 0.0
C987 C 0.12066 0.97911 0.37661 0.0
C988 C 0.11351 0.95862 0.46237 0.0
C989 C 0.09886 0.98382 0.40179 0.0
C990 C 0.08636 0.95533 0.53085 0.0
C991 C 0.11943 0.92113 0.56829 0.0
N992 N 0.09597 0.97368 0.44321 0.0
N993 N 0.12452 0.93187 0.52761 0.0
H994 H 0.00132 0.85049 0.5778 0.0
H995 H 0.91415 0.94001 0.43656 0.0
H996 H 0.95289 0.90635 0.63755 0.0
H997 H 0.94335 0.87106 0.38065 0.0
H998 H 0.92831 0.92704 0.51063 0.0
H999 H 0.97901 0.85532 0.50651 0.0
C1000 C 0.98561 0.86335 0.57625 0.0
C1001 C 0.97933 0.87852 0.61338 0.0
C1002 C 0.93148 0.91462 0.48229 0.0
C1003 C 0.95411 0.88437 0.53185 0.0
C1004 C 0.92362 0.92213 0.43977 0.0
C1005 C 0.92771 0.90668 0.40216 0.0
C1006 C 0.94383 0.89159 0.48745 0.0
C1007 C 0.93996 0.88364 0.40867 0.0
C1008 C 0.97296 0.86614 0.53547 0.0
C1009 C 0.95864 0.89457 0.60964 0.0
N1010 N 0.94778 0.87685 0.45054 0.0
N1011 N 0.94709 0.89745 0.56927 0.0
H1012 H 0.89826 0.10711 0.56018 0.0
H1013 H 0.86249 0.98387 0.42179 0.0
H1014 H 0.89836 0.03256 0.6159 0.0
H1015 H 0.88228 0.05404 0.35819 0.0
H1016 H 0.86548 0.00394 0.49509 0.0
H1017 H 0.88294 0.09008 0.48839 0.0
C1018 C 0.89505 0.08713 0.55701 0.0
C1019 C 0.89976 0.07103 0.59323 0.0
C1020 C 0.86879 0.01506 0.4651 0.0
C1021 C 0.88248 0.05152 0.512 0.0
C1022 C 0.86697 0.00368 0.42305 0.0
C1023 C 0.87273 0.01718 0.38361 0.0
C1024 C 0.87616 0.04023 0.46793 0.0
C1025 C 0.87811 0.04282 0.38767 0.0
C1026 C 0.88628 0.07746 0.51631 0.0
C1027 C 0.89495 0.04542 0.58835 0.0
N1028 N 0.87999 0.05347 0.42921 0.0
N1029 N 0.88678 0.03636 0.54819 0.0
H1030 H 0.00963 0.07794 0.61187 0.0
H1031 H 0.0741 0.13078 0.38739 0.0
H1032 H 0.03107 0.15553 0.59771 0.0
H1033 H 0.05274 0.05367 0.40919 0.0
H1034 H 0.05876 0.14108 0.46338 0.0
H1035 H 0.02718 0.06915 0.53799 0.0
C1036 C 0.01847 0.09308 0.59332 0.0
C1037 C 0.01894 0.11748 0.61078 0.0
C1038 C 0.05735 0.12196 0.45134 0.0
C1039 C 0.03866 0.1077 0.52536 0.0
C1040 C 0.06587 0.11612 0.40793 0.0
C1041 C 0.06476 0.0913 0.3922 0.0
C1042 C 0.04752 0.10285 0.47878 0.0
C1043 C 0.05418 0.07298 0.42018 0.0
C1044 C 0.02835 0.0881 0.55094 0.0
C1045 C 0.03058 0.13641 0.58545 0.0
N1046 N 0.04601 0.07913 0.46202 0.0
N1047 N 0.0398 0.13118 0.54358 0.0
H1048 H 0.12061 0.55055 0.62508 0.0
H1049 H 0.0854 0.54832 0.88756 0.0
H1050 H 0.05735 0.58905 0.68442 0.0
H1051 H 0.13744 0.49624 0.82655 0.0
H1052 H 0.08208 0.57014 0.81549 0.0
H1053 H 0.13268 0.5359 0.70032 0.0
C1054 C 0.10927 0.55593 0.65388 0.0
C1055 C 0.08772 0.57078 0.64837 0.0
C1056 C 0.09442 0.55408 0.81801 0.0
C1057 C 0.10172 0.55454 0.73441 0.0
C1058 C 0.09646 0.54171 0.85925 0.0
C1059 C 0.11126 0.52008 0.86289 0.0
C1060 C 0.10717 0.54469 0.78007 0.0
C1061 C 0.12549 0.51264 0.82517 0.0
C1062 C 0.11623 0.54764 0.69677 0.0
C1063 C 0.07385 0.57732 0.6869 0.0
N1064 N 0.12278 0.52468 0.78509 0.0
N1065 N 0.08109 0.56916 0.72818 0.0
H1066 H 0.54348 0.84385 0.12402 0.0
H1067 H 0.54133 0.93028 0.34427 0.0
H1068 H 0.48951 0.90256 0.14993 0.0
H1069 H 0.5896 0.86581 0.33255 0.0
H1070 H 0.5214 0.91891 0.27326 0.0
H1071 H 0.56085 0.85056 0.1998 0.0
C1072 C 0.53537 0.85816 0.14551 0.0
C1073 C 0.51509 0.8727 0.13062 0.0
C1074 C 0.53627 0.90709 0.28608 0.0
C1075 C 0.53467 0.88039 0.21682 0.0
C1076 C 0.54757 0.91361 0.32658 0.0
C1077 C 0.56702 0.89896 0.34371 0.0
C1078 C 0.54496 0.88609 0.26198 0.0
C1079 C 0.57449 0.87745 0.32008 0.0
C1080 C 0.54516 0.86187 0.18875 0.0
C1081 C 0.50512 0.89084 0.15991 0.0
N1082 N 0.56364 0.87177 0.27987 0.0
N1083 N 0.51507 0.8942 0.20138 0.0
H1084 H 0.88843 0.44703 0.8841 0.0
H1085 H 0.88183 0.45585 0.61533 0.0
H1086 H 0.86458 0.51294 0.81144 0.0
H1087 H 0.91586 0.39475 0.68812 0.0
H1088 H 0.86762 0.4738 0.68711 0.0
H1089 H 0.88957 0.42388 0.81283 0.0
C1090 C 0.883 0.45649 0.85335 0.0
C1091 C 0.87702 0.48207 0.85354 0.0
C1092 C 0.87794 0.4563 0.68733 0.0
C1093 C 0.8786 0.45592 0.77208 0.0
C1094 C 0.88605 0.44612 0.64644 0.0
C1095 C 0.90038 0.42409 0.64611 0.0
C1096 C 0.88395 0.44412 0.72793 0.0
C1097 C 0.90532 0.4121 0.68716 0.0
C1098 C 0.88379 0.44334 0.81265 0.0
C1099 C 0.86986 0.49335 0.81274 0.0
N1100 N 0.89719 0.42232 0.72646 0.0
N1101 N 0.87122 0.48031 0.77356 0.0
H1102 H 0.48054 0.16118 0.1474 0.0
H1103 H 0.42253 0.05451 0.30606 0.0
H1104 H 0.46857 0.08449 0.10725 0.0
H1105 H 0.43406 0.13063 0.35134 0.0
H1106 H 0.43689 0.0665 0.23136 0.0
H1107 H 0.45969 0.15221 0.21976 0.0
C1108 C 0.47262 0.14275 0.15325 0.0
C1109 C 0.47587 0.12356 0.12148 0.0
C1110 C 0.43625 0.08067 0.2575 0.0
C1111 C 0.45291 0.11296 0.20392 0.0
C1112 C 0.42813 0.07378 0.30035 0.0
C1113 C 0.42706 0.09158 0.33512 0.0
C1114 C 0.44342 0.10557 0.24905 0.0
C1115 C 0.43463 0.11627 0.32556 0.0
C1116 C 0.4611 0.13751 0.19467 0.0
C1117 C 0.46615 0.09977 0.13093 0.0
N1118 N 0.44252 0.12255 0.28336 0.0
N1119 N 0.45526 0.0951 0.17138 0.0
H1120 H 0.65505 0.46573 0.88769 0.0
H1121 H 0.55517 0.4522 0.08797 0.0
H1122 H 0.57663 0.48515 0.87973 0.0
H1123 H 0.62862 0.41862 0.09611 0.0
H1124 H 0.56532 0.46772 0.01311 0.0
H1125 H 0.64765 0.44893 0.96404 0.0
C1126 C 0.63623 0.46585 0.90154 0.0
C1127 C 0.61641 0.47685 0.87764 0.0
C1128 C 0.57931 0.45693 0.03103 0.0
C1129 C 0.60803 0.45858 0.9645 0.0
C1130 C 0.57353 0.44823 0.07389 0.0
C1131 C 0.591 0.434 0.09783 0.0
C1132 C 0.60264 0.45105 0.01153 0.0
C1133 C 0.61469 0.42963 0.07849 0.0
C1134 C 0.63208 0.45661 0.94517 0.0
C1135 C 0.59245 0.47696 0.89717 0.0
N1136 N 0.61978 0.43793 0.03603 0.0
N1137 N 0.58901 0.46821 0.93948 0.0
H1138 H 0.43462 0.36914 0.88331 0.0
H1139 H 0.47086 0.41737 0.12982 0.0
H1140 H 0.42701 0.44566 0.92911 0.0
H1141 H 0.47696 0.33981 0.09066 0.0
H1142 H 0.45158 0.42691 0.05751 0.0
H1143 H 0.44871 0.35714 0.9588 0.0
C1144 C 0.43605 0.38345 0.90908 0.0
C1145 C 0.42956 0.40849 0.89982 0.0
C1146 C 0.45673 0.40769 0.06472 0.0
C1147 C 0.44541 0.39478 0.98625 0.0
C1148 C 0.46749 0.40224 0.10619 0.0
C1149 C 0.47513 0.37778 0.11613 0.0
C1150 C 0.45408 0.38862 0.03242 0.0
C1151 C 0.47082 0.35884 0.08431 0.0
C1152 C 0.44393 0.37653 0.95224 0.0
C1153 C 0.43169 0.42615 0.93461 0.0
N1154 N 0.46083 0.36471 0.04343 0.0
N1155 N 0.43942 0.41895 0.97614 0.0
H1156 H 0.40482 0.48902 0.89237 0.0
H1157 H 0.36672 0.58106 0.0938 0.0
H1158 H 0.34578 0.54401 0.88045 0.0
H1159 H 0.44107 0.55027 0.07883 0.0
H1160 H 0.35491 0.56183 0.02163 0.0
H1161 H 0.41456 0.50551 0.96742 0.0
C1162 C 0.39385 0.50449 0.90557 0.0
C1163 C 0.37456 0.51529 0.87999 0.0
C1164 C 0.37374 0.55916 0.03436 0.0
C1165 C 0.38547 0.534 0.96579 0.0
C1166 C 0.38042 0.56997 0.07551 0.0
C1167 C 0.40489 0.56722 0.09193 0.0
C1168 C 0.39154 0.54504 0.01021 0.0
C1169 C 0.42207 0.55293 0.06695 0.0
C1170 C 0.39947 0.51391 0.94829 0.0
C1171 C 0.36093 0.53526 0.89884 0.0
N1172 N 0.41503 0.54224 0.0274 0.0
N1173 N 0.3666 0.54394 0.94066 0.0
H1174 H 0.49131 0.64445 0.07212 0.0
H1175 H 0.5941 0.57016 0.93455 0.0
H1176 H 0.54998 0.60033 0.13324 0.0
H1177 H 0.54611 0.62508 0.87186 0.0
H1178 H 0.5804 0.58463 0.00817 0.0
H1179 H 0.51358 0.64228 0.00017 0.0
C1180 C 0.50917 0.63477 0.07073 0.0
C1181 C 0.51849 0.62195 0.10858 0.0
C1182 C 0.57289 0.5937 0.9785 0.0
C1183 C 0.54387 0.61927 0.02617 0.0
C1184 C 0.58053 0.58526 0.93634 0.0
C1185 C 0.57079 0.5961 0.89707 0.0
C1186 C 0.55492 0.61284 0.98171 0.0
C1187 C 0.55381 0.61605 0.90142 0.0
C1188 C 0.52183 0.63352 0.02951 0.0
C1189 C 0.54183 0.61006 0.10482 0.0
N1190 N 0.54605 0.62354 0.94312 0.0
N1191 N 0.55348 0.60863 0.06414 0.0
H1192 H 0.62525 0.0481 0.12316 0.0
H1193 H 0.60297 0.04694 0.38968 0.0
H1194 H 0.57062 0.09349 0.19332 0.0
H1195 H 0.64403 0.98938 0.31835 0.0
H1196 H 0.60015 0.07086 0.31971 0.0
H1197 H 0.64004 0.03218 0.19596 0.0
C1198 C 0.6165 0.0548 0.15389 0.0
C1199 C 0.5964 0.07174 0.15234 0.0
C1200 C 0.61008 0.05315 0.31956 0.0
C1201 C 0.61347 0.05413 0.23531 0.0
C1202 C 0.61185 0.03956 0.35957 0.0
C1203 C 0.62318 0.01585 0.3596 0.0
C1204 C 0.61969 0.0429 0.27943 0.0
C1205 C 0.63464 0.00737 0.31965 0.0
C1206 C 0.62497 0.0458 0.19533 0.0
C1207 C 0.58582 0.08001 0.19303 0.0
N1208 N 0.63223 0.0207 0.28093 0.0
N1209 N 0.59444 0.07107 0.23285 0.0
H1210 H 0.04027 0.34118 0.63142 0.0
H1211 H 0.05212 0.44252 0.82918 0.0
H1212 H 0.99687 0.40938 0.63991 0.0
H1213 H 0.0825 0.36786 0.84091 0.0
H1214 H 0.03416 0.43121 0.75649 0.0
H1215 H 0.05928 0.3514 0.70473 0.0
C1216 C 0.03494 0.35834 0.64849 0.0
C1217 C 0.01692 0.37439 0.62984 0.0
C1218 C 0.04476 0.41724 0.77483 0.0
C1219 C 0.03834 0.3861 0.71293 0.0
C1220 C 0.055 0.42373 0.81625 0.0
C1221 C 0.06876 0.40609 0.84075 0.0
C1222 C 0.04871 0.39306 0.75736 0.0
C1223 C 0.07181 0.3819 0.82292 0.0
C1224 C 0.04561 0.36406 0.69032 0.0
C1225 C 0.01052 0.39634 0.65327 0.0
N1226 N 0.06201 0.3761 0.78194 0.0
N1227 N 0.02122 0.40152 0.69349 0.0
H1228 H 0.35859 0.00426 0.32811 0.0
H1229 H 0.42615 0.89592 0.19007 0.0
H1230 H 0.40539 0.94735 0.38817 0.0
H1231 H 0.37496 0.94854 0.12928 0.0
H1232 H 0.41406 0.91135 0.26433 0.0
H1233 H 0.35909 0.98089 0.2574 0.0
C1234 C 0.36851 0.98654 0.32682 0.0
C1235 C 0.38243 0.97797 0.36395 0.0
C1236 C 0.40534 0.91951 0.23487 0.0
C1237 C 0.38321 0.95128 0.28284 0.0
C1238 C 0.41238 0.91081 0.19244 0.0
C1239 C 0.40188 0.92132 0.15355 0.0
C1240 C 0.38802 0.93924 0.23855 0.0
C1241 C 0.38365 0.94011 0.15853 0.0
C1242 C 0.36885 0.97326 0.28626 0.0
C1243 C 0.39478 0.95487 0.36022 0.0
N1244 N 0.37756 0.94878 0.20031 0.0
N1245 N 0.39516 0.94251 0.32019 0.0
H1246 H 0.94385 0.64154 0.61537 0.0
H1247 H 0.96658 0.57307 0.8484 0.0
H1248 H 0.01422 0.60609 0.64863 0.0
H1249 H 0.90923 0.62912 0.83136 0.0
H1250 H 0.98471 0.5851 0.77549 0.0
H1251 H 0.93048 0.63694 0.69384 0.0
C1252 C 0.95656 0.63292 0.63919 0.0
C1253 C 0.98012 0.62401 0.62529 0.0
C1254 C 0.96836 0.59502 0.78788 0.0
C1255 C 0.9649 0.61866 0.71511 0.0
C1256 C 0.9581 0.58818 0.82939 0.0
C1257 C 0.93658 0.60025 0.84549 0.0
C1258 C 0.95646 0.6135 0.76183 0.0
C1259 C 0.92604 0.6196 0.81991 0.0
C1260 C 0.94895 0.63041 0.68403 0.0
C1261 C 0.99582 0.61307 0.65772 0.0
N1262 N 0.93585 0.6254 0.77885 0.0
N1263 N 0.98783 0.6105 0.70102 0.0
loop_
_geom_bond_atom_site_label_1
_geom_bond_atom_site_label_2
_geom_bond_distance
_geom_bond_site_symmetry_2
_ccdc_geom_bond_type
Co0 O3 1.970 . S
Co0 N17 1.989 . S
Co0 O25 1.967 . S
Co0 O32 1.920 . S
Co1 O4 1.966 . S
Co1 N10 2.022 . S
Co1 N18 1.993 . S
Co1 O26 1.941 . S
C2 O3 1.258 . S
C2 O4 1.263 . S
O3 Co0 1.970 . S
O3 C2 1.258 . S
O4 Co1 1.966 . S
O4 C2 1.263 . S
C5 O6 1.228 1_545 S
C5 O32 1.289 . S
O6 C5 1.228 1_565 S
C7 C9 1.400 . S
C7 N10 1.351 . S
C7 C12 1.501 . S
C8 C9 1.387 . S
C8 N11 1.341 . S
C9 C7 1.400 . S
C9 C8 1.387 . S
N10 Co1 2.022 . S
N10 C7 1.351 . S
N10 N11 1.365 . S
N11 C8 1.341 . S
N11 N10 1.365 . S
N11 H31 0.862 . S
C12 C7 1.501 . S
C12 H13 0.961 . S
C12 H14 0.961 . S
C12 H15 0.960 . S
H13 C12 0.961 . S
H14 C12 0.961 . S
H15 C12 0.960 . S
C16 N17 1.342 . S
C16 C20 1.401 . S
C16 C21 1.499 . S
N17 Co0 1.989 . S
N17 C16 1.342 . S
N17 N18 1.388 . S
N18 Co1 1.993 . S
N18 N17 1.388 . S
N18 C19 1.346 . S
C19 N18 1.346 . S
C19 C20 1.396 . S
C19 C29 1.510 . S
C20 C16 1.401 . S
C20 C19 1.396 . S
C21 C16 1.499 . S
C21 H22 0.959 . S
C21 H23 0.960 . S
C21 H24 0.961 . S
H22 C21 0.959 . S
H23 C21 0.960 . S
H24 C21 0.961 . S
O25 Co0 1.967 . S
O25 C33 1.258 . S
O26 Co1 1.941 . S
O26 C33 1.266 . S
H27 C29 0.959 . S
H28 C29 0.961 . S
C29 C19 1.510 . S
C29 H27 0.959 . S
C29 H28 0.961 . S
C29 H30 0.960 . S
H30 C29 0.960 . S
H31 N11 0.862 . S
O32 Co0 1.920 . S
O32 C5 1.289 . S
C33 O25 1.258 . S
C33 O26 1.266 . S
Co34 O37 1.970 . S
Co34 N51 1.989 . S
Co34 O59 1.967 . S
Co34 O66 1.920 . S
Co35 O38 1.966 . S
Co35 N44 2.022 . S
Co35 N52 1.993 . S
Co35 O60 1.941 . S
C36 O37 1.258 . S
C36 O38 1.263 . S
O37 Co34 1.970 . S
O37 C36 1.258 . S
O38 Co35 1.966 . S
O38 C36 1.263 . S
C39 O40 1.228 1_455 S
C39 O66 1.289 . S
O40 C39 1.228 1_655 S
C41 C43 1.400 . S
C41 N44 1.351 . S
C41 C46 1.501 . S
C42 C43 1.387 . S
C42 N45 1.341 . S
C43 C41 1.400 . S
C43 C42 1.387 . S
N44 Co35 2.022 . S
N44 C41 1.351 . S
N44 N45 1.365 . S
N45 C42 1.341 . S
N45 N44 1.365 . S
N45 H65 0.862 . S
C46 C41 1.501 . S
C46 H47 0.961 . S
C46 H48 0.961 . S
C46 H49 0.960 . S
H47 C46 0.961 . S
H48 C46 0.961 . S
H49 C46 0.960 . S
C50 N51 1.342 . S
C50 C54 1.401 . S
C50 C55 1.499 . S
N51 Co34 1.989 . S
N51 C50 1.342 . S
N51 N52 1.388 . S
N52 Co35 1.993 . S
N52 N51 1.388 . S
N52 C53 1.346 . S
C53 N52 1.346 . S
C53 C54 1.396 . S
C53 C63 1.510 . S
C54 C50 1.401 . S
C54 C53 1.396 . S
C55 C50 1.499 . S
C55 H56 0.959 . S
C55 H57 0.960 . S
C55 H58 0.961 . S
H56 C55 0.959 . S
H57 C55 0.960 . S
H58 C55 0.961 . S
O59 Co34 1.967 . S
O59 C67 1.258 . S
O60 Co35 1.941 . S
O60 C67 1.266 . S
H61 C63 0.959 . S
H62 C63 0.961 . S
C63 C53 1.510 . S
C63 H61 0.959 . S
C63 H62 0.961 . S
C63 H64 0.960 . S
H64 C63 0.960 . S
H65 N45 0.862 . S
O66 Co34 1.920 . S
O66 C39 1.289 . S
C67 O59 1.258 . S
C67 O60 1.266 . S
Co68 O71 1.970 . S
Co68 N85 1.989 . S
Co68 O93 1.967 . S
Co68 O100 1.920 . S
Co69 O72 1.966 . S
Co69 N78 2.022 . S
Co69 N86 1.993 . S
Co69 O94 1.941 . S
C70 O71 1.258 . S
C70 O72 1.263 . S
O71 Co68 1.970 . S
O71 C70 1.258 . S
O72 Co69 1.966 . S
O72 C70 1.263 . S
C73 O74 1.228 1_565 S
C73 O100 1.289 . S
O74 C73 1.228 1_545 S
C75 C77 1.400 . S
C75 N78 1.351 . S
C75 C80 1.501 . S
C76 C77 1.387 . S
C76 N79 1.341 . S
C77 C75 1.400 . S
C77 C76 1.387 . S
N78 Co69 2.022 . S
N78 C75 1.351 . S
N78 N79 1.365 . S
N79 C76 1.341 . S
N79 N78 1.365 . S
N79 H99 0.862 . S
C80 C75 1.501 . S
C80 H81 0.961 . S
C80 H82 0.961 . S
C80 H83 0.960 . S
H81 C80 0.961 . S
H82 C80 0.961 . S
H83 C80 0.960 . S
C84 N85 1.342 . S
C84 C88 1.401 . S
C84 C89 1.499 . S
N85 Co68 1.989 . S
N85 C84 1.342 . S
N85 N86 1.388 . S
N86 Co69 1.993 . S
N86 N85 1.388 . S
N86 C87 1.346 . S
C87 N86 1.346 . S
C87 C88 1.396 . S
C87 C97 1.510 . S
C88 C84 1.401 . S
C88 C87 1.396 . S
C89 C84 1.499 . S
C89 H90 0.959 . S
C89 H91 0.960 . S
C89 H92 0.961 . S
H90 C89 0.959 . S
H91 C89 0.960 . S
H92 C89 0.961 . S
O93 Co68 1.967 . S
O93 C101 1.258 . S
O94 Co69 1.941 . S
O94 C101 1.266 . S
H95 C97 0.959 . S
H96 C97 0.961 . S
C97 C87 1.510 . S
C97 H95 0.959 . S
C97 H96 0.961 . S
C97 H98 0.960 . S
H98 C97 0.960 . S
H99 N79 0.862 . S
O100 Co68 1.920 . S
O100 C73 1.289 . S
C101 O93 1.258 . S
C101 O94 1.266 . S
Co102 O105 1.970 . S
Co102 N119 1.989 . S
Co102 O127 1.967 . S
Co102 O134 1.920 . S
Co103 O106 1.966 . S
Co103 N112 2.022 . S
Co103 N120 1.993 . S
Co103 O128 1.941 . S
C104 O105 1.258 . S
C104 O106 1.263 . S
O105 Co102 1.970 . S
O105 C104 1.258 . S
O106 Co103 1.966 . S
O106 C104 1.263 . S
C107 O108 1.228 1_655 S
C107 O134 1.289 . S
O108 C107 1.228 1_455 S
C109 C111 1.400 . S
C109 N112 1.351 . S
C109 C114 1.501 . S
C110 C111 1.387 . S
C110 N113 1.341 . S
C111 C109 1.400 . S
C111 C110 1.387 . S
N112 Co103 2.022 . S
N112 C109 1.351 . S
N112 N113 1.365 . S
N113 C110 1.341 . S
N113 N112 1.365 . S
N113 H133 0.862 . S
C114 C109 1.501 . S
C114 H115 0.961 . S
C114 H116 0.961 . S
C114 H117 0.960 . S
H115 C114 0.961 . S
H116 C114 0.961 . S
H117 C114 0.960 . S
C118 N119 1.342 . S
C118 C122 1.401 . S
C118 C123 1.499 . S
N119 Co102 1.989 . S
N119 C118 1.342 . S
N119 N120 1.388 . S
N120 Co103 1.993 . S
N120 N119 1.388 . S
N120 C121 1.346 . S
C121 N120 1.346 . S
C121 C122 1.396 . S
C121 C131 1.510 . S
C122 C118 1.401 . S
C122 C121 1.396 . S
C123 C118 1.499 . S
C123 H124 0.959 . S
C123 H125 0.960 . S
C123 H126 0.961 . S
H124 C123 0.959 . S
H125 C123 0.960 . S
H126 C123 0.961 . S
O127 Co102 1.967 . S
O127 C135 1.258 . S
O128 Co103 1.941 . S
O128 C135 1.266 . S
H129 C131 0.959 . S
H130 C131 0.961 . S
C131 C121 1.510 . S
C131 H129 0.959 . S
C131 H130 0.961 . S
C131 H132 0.960 . S
H132 C131 0.960 . S
H133 N113 0.862 . S
O134 Co102 1.920 . S
O134 C107 1.289 . S
C135 O127 1.258 . S
C135 O128 1.266 . S
Co136 O139 1.970 . S
Co136 N153 1.989 . S
Co136 O161 1.967 . S
Co136 O168 1.920 . S
Co137 O140 1.966 . S
Co137 N146 2.022 1_556 S
Co137 N154 1.993 . S
Co137 O162 1.941 . S
C138 O139 1.258 . S
C138 O140 1.263 . S
O139 Co136 1.970 . S
O139 C138 1.258 . S
O140 Co137 1.966 . S
O140 C138 1.263 . S
C141 O142 1.235 . S
C141 O168 1.289 . S
O142 C141 1.235 . S
C143 C145 1.400 . S
C143 N146 1.351 . S
C143 C148 1.501 . S
C144 C145 1.387 . S
C144 N147 1.341 1_554 S
C145 C143 1.400 . S
C145 C144 1.387 . S
N146 Co137 2.022 1_554 S
N146 C143 1.351 . S
N146 N147 1.365 1_554 S
N147 C144 1.341 1_556 S
N147 N146 1.365 1_556 S
N147 H167 0.862 . S
C148 C143 1.501 . S
C148 H149 0.961 . S
C148 H150 0.961 . S
C148 H151 0.960 . S
H149 C148 0.961 . S
H150 C148 0.961 . S
H151 C148 0.960 . S
C152 N153 1.342 . S
C152 C156 1.401 . S
C152 C157 1.499 . S
N153 Co136 1.989 . S
N153 C152 1.342 . S
N153 N154 1.388 . S
N154 Co137 1.993 . S
N154 N153 1.388 . S
N154 C155 1.346 . S
C155 N154 1.346 . S
C155 C156 1.396 . S
C155 C165 1.510 . S
C156 C152 1.401 . S
C156 C155 1.396 . S
C157 C152 1.499 . S
C157 H158 0.959 . S
C157 H159 0.960 . S
C157 H160 0.961 . S
H158 C157 0.959 . S
H159 C157 0.960 . S
H160 C157 0.961 . S
O161 Co136 1.967 . S
O161 C169 1.258 . S
O162 Co137 1.941 . S
O162 C169 1.266 . S
H163 C165 0.959 . S
H164 C165 0.961 1_554 S
C165 C155 1.510 . S
C165 H163 0.959 . S
C165 H164 0.961 1_556 S
C165 H166 0.960 1_556 S
H166 C165 0.960 1_554 S
H167 N147 0.862 . S
O168 Co136 1.920 . S
O168 C141 1.289 . S
C169 O161 1.258 . S
C169 O162 1.266 . S
Co170 O173 1.970 . S
Co170 N187 1.989 . S
Co170 O195 1.967 . S
Co170 O202 1.920 . S
Co171 O174 1.966 . S
Co171 N180 2.022 1_554 S
Co171 N188 1.993 . S
Co171 O196 1.941 . S
C172 O173 1.258 . S
C172 O174 1.263 . S
O173 Co170 1.970 . S
O173 C172 1.258 . S
O174 Co171 1.966 . S
O174 C172 1.263 . S
C175 O176 1.235 . S
C175 O202 1.289 . S
O176 C175 1.235 . S
C177 C179 1.400 . S
C177 N180 1.351 . S
C177 C182 1.501 . S
C178 C179 1.387 . S
C178 N181 1.341 1_556 S
C179 C177 1.400 . S
C179 C178 1.387 . S
N180 Co171 2.022 1_556 S
N180 C177 1.351 . S
N180 N181 1.365 1_556 S
N181 C178 1.341 1_554 S
N181 N180 1.365 1_554 S
N181 H201 0.862 . S
C182 C177 1.501 . S
C182 H183 0.961 . S
C182 H184 0.961 . S
C182 H185 0.960 . S
H183 C182 0.961 . S
H184 C182 0.961 . S
H185 C182 0.960 . S
C186 N187 1.342 . S
C186 C190 1.401 . S
C186 C191 1.499 . S
N187 Co170 1.989 . S
N187 C186 1.342 . S
N187 N188 1.388 . S
N188 Co171 1.993 . S
N188 N187 1.388 . S
N188 C189 1.346 . S
C189 N188 1.346 . S
C189 C190 1.396 . S
C189 C199 1.510 . S
C190 C186 1.401 . S
C190 C189 1.396 . S
C191 C186 1.499 . S
C191 H192 0.959 . S
C191 H193 0.960 . S
C191 H194 0.961 . S
H192 C191 0.959 . S
H193 C191 0.960 . S
H194 C191 0.961 . S
O195 Co170 1.967 . S
O195 C203 1.258 . S
O196 Co171 1.941 . S
O196 C203 1.266 . S
H197 C199 0.959 . S
H198 C199 0.961 1_556 S
C199 C189 1.510 . S
C199 H197 0.959 . S
C199 H198 0.961 1_554 S
C199 H200 0.960 1_554 S
H200 C199 0.960 1_556 S
H201 N181 0.862 . S
O202 Co170 1.920 . S
O202 C175 1.289 . S
C203 O195 1.258 . S
C203 O196 1.266 . S
Co204 O207 1.970 . S
Co204 N221 1.989 . S
Co204 O229 1.967 . S
Co204 O236 1.920 . S
Co205 O208 1.966 . S
Co205 N214 2.022 1_556 S
Co205 N222 1.993 . S
Co205 O230 1.941 . S
C206 O207 1.258 . S
C206 O208 1.263 . S
O207 Co204 1.970 . S
O207 C206 1.258 . S
O208 Co205 1.966 . S
O208 C206 1.263 . S
C209 O210 1.235 . S
C209 O236 1.289 . S
O210 C209 1.235 . S
C211 C213 1.400 . S
C211 N214 1.351 . S
C211 C216 1.501 . S
C212 C213 1.387 . S
C212 N215 1.341 1_554 S
C213 C211 1.400 . S
C213 C212 1.387 . S
N214 Co205 2.022 1_554 S
N214 C211 1.351 . S
N214 N215 1.365 1_554 S
N215 C212 1.341 1_556 S
N215 N214 1.365 1_556 S
N215 H235 0.862 . S
C216 C211 1.501 . S
C216 H217 0.961 . S
C216 H218 0.961 . S
C216 H219 0.960 . S
H217 C216 0.961 . S
H218 C216 0.961 . S
H219 C216 0.960 . S
C220 N221 1.342 . S
C220 C224 1.401 . S
C220 C225 1.499 . S
N221 Co204 1.989 . S
N221 C220 1.342 . S
N221 N222 1.388 . S
N222 Co205 1.993 . S
N222 N221 1.388 . S
N222 C223 1.346 . S
C223 N222 1.346 . S
C223 C224 1.396 . S
C223 C233 1.510 . S
C224 C220 1.401 . S
C224 C223 1.396 . S
C225 C220 1.499 . S
C225 H226 0.959 . S
C225 H227 0.960 . S
C225 H228 0.961 . S
H226 C225 0.959 . S
H227 C225 0.960 . S
H228 C225 0.961 . S
O229 Co204 1.967 . S
O229 C237 1.258 . S
O230 Co205 1.941 . S
O230 C237 1.266 . S
H231 C233 0.959 . S
H232 C233 0.961 1_554 S
C233 C223 1.510 . S
C233 H231 0.959 . S
C233 H232 0.961 1_556 S
C233 H234 0.960 1_556 S
H234 C233 0.960 1_554 S
H235 N215 0.862 . S
O236 Co204 1.920 . S
O236 C209 1.289 . S
C237 O229 1.258 . S
C237 O230 1.266 . S
Co238 O241 1.970 . S
Co238 N255 1.989 . S
Co238 O263 1.967 . S
Co238 O270 1.920 . S
Co239 O242 1.966 . S
Co239 N248 2.022 1_554 S
Co239 N256 1.993 . S
Co239 O264 1.941 . S
C240 O241 1.258 . S
C240 O242 1.263 . S
O241 Co238 1.970 . S
O241 C240 1.258 . S
O242 Co239 1.966 . S
O242 C240 1.263 . S
C243 O244 1.235 . S
C243 O270 1.289 . S
O244 C243 1.235 . S
C245 C247 1.400 . S
C245 N248 1.351 . S
C245 C250 1.501 . S
C246 C247 1.387 . S
C246 N249 1.341 1_556 S
C247 C245 1.400 . S
C247 C246 1.387 . S
N248 Co239 2.022 1_556 S
N248 C245 1.351 . S
N248 N249 1.365 1_556 S
N249 C246 1.341 1_554 S
N249 N248 1.365 1_554 S
N249 H269 0.862 . S
C250 C245 1.501 . S
C250 H251 0.961 . S
C250 H252 0.961 . S
C250 H253 0.960 . S
H251 C250 0.961 . S
H252 C250 0.961 . S
H253 C250 0.960 . S
C254 N255 1.342 . S
C254 C258 1.401 . S
C254 C259 1.499 . S
N255 Co238 1.989 . S
N255 C254 1.342 . S
N255 N256 1.388 . S
N256 Co239 1.993 . S
N256 N255 1.388 . S
N256 C257 1.346 . S
C257 N256 1.346 . S
C257 C258 1.396 . S
C257 C267 1.510 . S
C258 C254 1.401 . S
C258 C257 1.396 . S
C259 C254 1.499 . S
C259 H260 0.959 . S
C259 H261 0.960 . S
C259 H262 0.961 . S
H260 C259 0.959 . S
H261 C259 0.960 . S
H262 C259 0.961 . S
O263 Co238 1.967 . S
O263 C271 1.258 . S
O264 Co239 1.941 . S
O264 C271 1.266 . S
H265 C267 0.959 . S
H266 C267 0.961 1_556 S
C267 C257 1.510 . S
C267 H265 0.959 . S
C267 H266 0.961 1_554 S
C267 H268 0.960 1_554 S
H268 C267 0.960 1_556 S
H269 N249 0.862 . S
O270 Co238 1.920 . S
O270 C243 1.289 . S
C271 O263 1.258 . S
C271 O264 1.266 . S
Co272 O275 1.970 . S
Co272 N289 1.989 . S
Co272 O297 1.967 . S
Co272 O304 1.920 . S
Co273 O276 1.966 . S
Co273 N282 2.022 . S
Co273 N290 1.993 . S
Co273 O298 1.941 . S
C274 O275 1.258 . S
C274 O276 1.263 . S
O275 Co272 1.970 . S
O275 C274 1.258 . S
O276 Co273 1.966 . S
O276 C274 1.263 . S
C277 O278 1.235 . S
C277 O304 1.289 . S
O278 C277 1.235 . S
C279 C281 1.400 . S
C279 N282 1.351 . S
C279 C284 1.501 . S
C280 C281 1.387 . S
C280 N283 1.341 . S
C281 C279 1.400 . S
C281 C280 1.387 . S
N282 Co273 2.022 . S
N282 C279 1.351 . S
N282 N283 1.365 . S
N283 C280 1.341 . S
N283 N282 1.365 . S
N283 H303 0.862 . S
C284 C279 1.501 . S
C284 H285 0.961 . S
C284 H286 0.961 . S
C284 H287 0.960 . S
H285 C284 0.961 . S
H286 C284 0.961 . S
H287 C284 0.960 . S
C288 N289 1.342 . S
C288 C292 1.401 . S
C288 C293 1.499 . S
N289 Co272 1.989 . S
N289 C288 1.342 . S
N289 N290 1.388 . S
N290 Co273 1.993 . S
N290 N289 1.388 . S
N290 C291 1.346 . S
C291 N290 1.346 . S
C291 C292 1.396 . S
C291 C301 1.510 . S
C292 C288 1.401 . S
C292 C291 1.396 . S
C293 C288 1.499 . S
C293 H294 0.959 . S
C293 H295 0.960 . S
C293 H296 0.961 . S
H294 C293 0.959 . S
H295 C293 0.960 . S
H296 C293 0.961 . S
O297 Co272 1.967 . S
O297 C305 1.258 . S
O298 Co273 1.941 . S
O298 C305 1.266 . S
H299 C301 0.959 . S
H300 C301 0.961 . S
C301 C291 1.510 . S
C301 H299 0.959 . S
C301 H300 0.961 . S
C301 H302 0.960 . S
H302 C301 0.960 . S
H303 N283 0.862 . S
O304 Co272 1.920 . S
O304 C277 1.289 . S
C305 O297 1.258 . S
C305 O298 1.266 . S
Co306 O309 1.970 . S
Co306 N323 1.989 . S
Co306 O331 1.967 . S
Co306 O338 1.920 . S
Co307 O310 1.966 . S
Co307 N316 2.022 . S
Co307 N324 1.993 . S
Co307 O332 1.941 . S
C308 O309 1.258 . S
C308 O310 1.263 . S
O309 Co306 1.970 . S
O309 C308 1.258 . S
O310 Co307 1.966 . S
O310 C308 1.263 . S
C311 O312 1.235 . S
C311 O338 1.289 . S
O312 C311 1.235 . S
C313 C315 1.400 . S
C313 N316 1.351 . S
C313 C318 1.501 . S
C314 C315 1.387 . S
C314 N317 1.341 . S
C315 C313 1.400 . S
C315 C314 1.387 . S
N316 Co307 2.022 . S
N316 C313 1.351 . S
N316 N317 1.365 . S
N317 C314 1.341 . S
N317 N316 1.365 . S
N317 H337 0.862 . S
C318 C313 1.501 . S
C318 H319 0.961 . S
C318 H320 0.961 . S
C318 H321 0.960 . S
H319 C318 0.961 . S
H320 C318 0.961 . S
H321 C318 0.960 . S
C322 N323 1.342 . S
C322 C326 1.401 . S
C322 C327 1.499 . S
N323 Co306 1.989 . S
N323 C322 1.342 . S
N323 N324 1.388 . S
N324 Co307 1.993 . S
N324 N323 1.388 . S
N324 C325 1.346 . S
C325 N324 1.346 . S
C325 C326 1.396 . S
C325 C335 1.510 . S
C326 C322 1.401 . S
C326 C325 1.396 . S
C327 C322 1.499 . S
C327 H328 0.959 . S
C327 H329 0.960 . S
C327 H330 0.961 . S
H328 C327 0.959 . S
H329 C327 0.960 . S
H330 C327 0.961 . S
O331 Co306 1.967 . S
O331 C339 1.258 . S
O332 Co307 1.941 . S
O332 C339 1.266 . S
H333 C335 0.959 . S
H334 C335 0.961 . S
C335 C325 1.510 . S
C335 H333 0.959 . S
C335 H334 0.961 . S
C335 H336 0.960 . S
H336 C335 0.960 . S
H337 N317 0.862 . S
O338 Co306 1.920 . S
O338 C311 1.289 . S
C339 O331 1.258 . S
C339 O332 1.266 . S
Co340 O343 1.970 . S
Co340 N357 1.989 . S
Co340 O365 1.967 . S
Co340 O372 1.920 . S
Co341 O344 1.966 . S
Co341 N350 2.022 . S
Co341 N358 1.993 . S
Co341 O366 1.941 . S
C342 O343 1.258 . S
C342 O344 1.263 . S
O343 Co340 1.970 . S
O343 C342 1.258 . S
O344 Co341 1.966 . S
O344 C342 1.263 . S
C345 O346 1.235 . S
C345 O372 1.289 . S
O346 C345 1.235 . S
C347 C349 1.400 . S
C347 N350 1.351 . S
C347 C352 1.501 . S
C348 C349 1.387 . S
C348 N351 1.341 . S
C349 C347 1.400 . S
C349 C348 1.387 . S
N350 Co341 2.022 . S
N350 C347 1.351 . S
N350 N351 1.365 . S
N351 C348 1.341 . S
N351 N350 1.365 . S
N351 H371 0.862 . S
C352 C347 1.501 . S
C352 H353 0.961 . S
C352 H354 0.961 . S
C352 H355 0.960 . S
H353 C352 0.961 . S
H354 C352 0.961 . S
H355 C352 0.960 . S
C356 N357 1.342 . S
C356 C360 1.401 . S
C356 C361 1.499 . S
N357 Co340 1.989 . S
N357 C356 1.342 . S
N357 N358 1.388 . S
N358 Co341 1.993 . S
N358 N357 1.388 . S
N358 C359 1.346 . S
C359 N358 1.346 . S
C359 C360 1.396 . S
C359 C369 1.510 . S
C360 C356 1.401 . S
C360 C359 1.396 . S
C361 C356 1.499 . S
C361 H362 0.959 . S
C361 H363 0.960 . S
C361 H364 0.961 . S
H362 C361 0.959 . S
H363 C361 0.960 . S
H364 C361 0.961 . S
O365 Co340 1.967 . S
O365 C373 1.258 . S
O366 Co341 1.941 . S
O366 C373 1.266 . S
H367 C369 0.959 . S
H368 C369 0.961 . S
C369 C359 1.510 . S
C369 H367 0.959 . S
C369 H368 0.961 . S
C369 H370 0.960 . S
H370 C369 0.960 . S
H371 N351 0.862 . S
O372 Co340 1.920 . S
O372 C345 1.289 . S
C373 O365 1.258 . S
C373 O366 1.266 . S
Co374 O377 1.970 . S
Co374 N391 1.989 . S
Co374 O399 1.967 . S
Co374 O406 1.920 . S
Co375 O378 1.966 . S
Co375 N384 2.022 . S
Co375 N392 1.993 . S
Co375 O400 1.941 . S
C376 O377 1.258 . S
C376 O378 1.263 . S
O377 Co374 1.970 . S
O377 C376 1.258 . S
O378 Co375 1.966 . S
O378 C376 1.263 . S
C379 O380 1.235 . S
C379 O406 1.289 . S
O380 C379 1.235 . S
C381 C383 1.400 . S
C381 N384 1.351 . S
C381 C386 1.501 . S
C382 C383 1.387 . S
C382 N385 1.341 . S
C383 C381 1.400 . S
C383 C382 1.387 . S
N384 Co375 2.022 . S
N384 C381 1.351 . S
N384 N385 1.365 . S
N385 C382 1.341 . S
N385 N384 1.365 . S
N385 H405 0.862 . S
C386 C381 1.501 . S
C386 H387 0.961 . S
C386 H388 0.961 . S
C386 H389 0.960 . S
H387 C386 0.961 . S
H388 C386 0.961 . S
H389 C386 0.960 . S
C390 N391 1.342 . S
C390 C394 1.401 . S
C390 C395 1.499 . S
N391 Co374 1.989 . S
N391 C390 1.342 . S
N391 N392 1.388 . S
N392 Co375 1.993 . S
N392 N391 1.388 . S
N392 C393 1.346 . S
C393 N392 1.346 . S
C393 C394 1.396 . S
C393 C403 1.510 . S
C394 C390 1.401 . S
C394 C393 1.396 . S
C395 C390 1.499 . S
C395 H396 0.959 . S
C395 H397 0.960 . S
C395 H398 0.961 . S
H396 C395 0.959 . S
H397 C395 0.960 . S
H398 C395 0.961 . S
O399 Co374 1.967 . S
O399 C407 1.258 . S
O400 Co375 1.941 . S
O400 C407 1.266 . S
H401 C403 0.959 . S
H402 C403 0.961 . S
C403 C393 1.510 . S
C403 H401 0.959 . S
C403 H402 0.961 . S
C403 H404 0.960 . S
H404 C403 0.960 . S
H405 N385 0.862 . S
O406 Co374 1.920 . S
O406 C379 1.289 . S
C407 O399 1.258 . S
C407 O400 1.266 . S
Co408 O411 1.970 . S
Co408 N425 1.989 . S
Co408 O433 1.967 . S
Co408 O440 1.920 . S
Co409 O412 1.966 . S
Co409 N418 2.022 . S
Co409 N426 1.993 . S
Co409 O434 1.941 . S
C410 O411 1.258 . S
C410 O412 1.263 . S
O411 Co408 1.970 . S
O411 C410 1.258 . S
O412 Co409 1.966 . S
O412 C410 1.263 . S
C413 O414 1.228 1_565 S
C413 O440 1.289 . S
O414 C413 1.228 1_545 S
C415 C417 1.400 . S
C415 N418 1.351 . S
C415 C420 1.501 . S
C416 C417 1.387 . S
C416 N419 1.341 . S
C417 C415 1.400 . S
C417 C416 1.387 . S
N418 Co409 2.022 . S
N418 C415 1.351 . S
N418 N419 1.365 . S
N419 C416 1.341 . S
N419 N418 1.365 . S
N419 H439 0.862 . S
C420 C415 1.501 . S
C420 H421 0.961 . S
C420 H422 0.961 . S
C420 H423 0.960 . S
H421 C420 0.961 . S
H422 C420 0.961 . S
H423 C420 0.960 . S
C424 N425 1.342 . S
C424 C428 1.401 . S
C424 C429 1.499 . S
N425 Co408 1.989 . S
N425 C424 1.342 . S
N425 N426 1.388 . S
N426 Co409 1.993 . S
N426 N425 1.388 . S
N426 C427 1.346 . S
C427 N426 1.346 . S
C427 C428 1.396 . S
C427 C437 1.510 . S
C428 C424 1.401 . S
C428 C427 1.396 . S
C429 C424 1.499 . S
C429 H430 0.959 . S
C429 H431 0.960 . S
C429 H432 0.961 . S
H430 C429 0.959 . S
H431 C429 0.960 . S
H432 C429 0.961 . S
O433 Co408 1.967 . S
O433 C441 1.258 . S
O434 Co409 1.941 . S
O434 C441 1.266 . S
H435 C437 0.959 . S
H436 C437 0.961 . S
C437 C427 1.510 . S
C437 H435 0.959 . S
C437 H436 0.961 . S
C437 H438 0.960 . S
H438 C437 0.960 . S
H439 N419 0.862 . S
O440 Co408 1.920 . S
O440 C413 1.289 . S
C441 O433 1.258 . S
C441 O434 1.266 . S
Co442 O445 1.970 . S
Co442 N459 1.989 . S
Co442 O467 1.967 . S
Co442 O474 1.920 . S
Co443 O446 1.966 . S
Co443 N452 2.022 . S
Co443 N460 1.993 . S
Co443 O468 1.941 . S
C444 O445 1.258 . S
C444 O446 1.263 . S
O445 Co442 1.970 . S
O445 C444 1.258 . S
O446 Co443 1.966 . S
O446 C444 1.263 . S
C447 O448 1.228 1_655 S
C447 O474 1.289 . S
O448 C447 1.228 1_455 S
C449 C451 1.400 . S
C449 N452 1.351 . S
C449 C454 1.501 . S
C450 C451 1.387 . S
C450 N453 1.341 . S
C451 C449 1.400 . S
C451 C450 1.387 . S
N452 Co443 2.022 . S
N452 C449 1.351 . S
N452 N453 1.365 . S
N453 C450 1.341 . S
N453 N452 1.365 . S
N453 H473 0.862 . S
C454 C449 1.501 . S
C454 H455 0.961 . S
C454 H456 0.961 . S
C454 H457 0.960 . S
H455 C454 0.961 . S
H456 C454 0.961 . S
H457 C454 0.960 . S
C458 N459 1.342 . S
C458 C462 1.401 . S
C458 C463 1.499 . S
N459 Co442 1.989 . S
N459 C458 1.342 . S
N459 N460 1.388 . S
N460 Co443 1.993 . S
N460 N459 1.388 . S
N460 C461 1.346 . S
C461 N460 1.346 . S
C461 C462 1.396 . S
C461 C471 1.510 . S
C462 C458 1.401 . S
C462 C461 1.396 . S
C463 C458 1.499 . S
C463 H464 0.959 . S
C463 H465 0.960 . S
C463 H466 0.961 . S
H464 C463 0.959 . S
H465 C463 0.960 . S
H466 C463 0.961 . S
O467 Co442 1.967 . S
O467 C475 1.258 . S
O468 Co443 1.941 . S
O468 C475 1.266 . S
H469 C471 0.959 . S
H470 C471 0.961 . S
C471 C461 1.510 . S
C471 H469 0.959 . S
C471 H470 0.961 . S
C471 H472 0.960 . S
H472 C471 0.960 . S
H473 N453 0.862 . S
O474 Co442 1.920 . S
O474 C447 1.289 . S
C475 O467 1.258 . S
C475 O468 1.266 . S
Co476 O479 1.970 . S
Co476 N493 1.989 . S
Co476 O501 1.967 . S
Co476 O508 1.920 . S
Co477 O480 1.966 . S
Co477 N486 2.022 . S
Co477 N494 1.993 . S
Co477 O502 1.941 . S
C478 O479 1.258 . S
C478 O480 1.263 . S
O479 Co476 1.970 . S
O479 C478 1.258 . S
O480 Co477 1.966 . S
O480 C478 1.263 . S
C481 O482 1.228 1_545 S
C481 O508 1.289 . S
O482 C481 1.228 1_565 S
C483 C485 1.400 . S
C483 N486 1.351 . S
C483 C488 1.501 . S
C484 C485 1.387 . S
C484 N487 1.341 . S
C485 C483 1.400 . S
C485 C484 1.387 . S
N486 Co477 2.022 . S
N486 C483 1.351 . S
N486 N487 1.365 . S
N487 C484 1.341 . S
N487 N486 1.365 . S
N487 H507 0.862 . S
C488 C483 1.501 . S
C488 H489 0.961 . S
C488 H490 0.961 . S
C488 H491 0.960 . S
H489 C488 0.961 . S
H490 C488 0.961 . S
H491 C488 0.960 . S
C492 N493 1.342 . S
C492 C496 1.401 . S
C492 C497 1.499 . S
N493 Co476 1.989 . S
N493 C492 1.342 . S
N493 N494 1.388 . S
N494 Co477 1.993 . S
N494 N493 1.388 . S
N494 C495 1.346 . S
C495 N494 1.346 . S
C495 C496 1.396 . S
C495 C505 1.510 . S
C496 C492 1.401 . S
C496 C495 1.396 . S
C497 C492 1.499 . S
C497 H498 0.959 . S
C497 H499 0.960 . S
C497 H500 0.961 . S
H498 C497 0.959 . S
H499 C497 0.960 . S
H500 C497 0.961 . S
O501 Co476 1.967 . S
O501 C509 1.258 . S
O502 Co477 1.941 . S
O502 C509 1.266 . S
H503 C505 0.959 . S
H504 C505 0.961 . S
C505 C495 1.510 . S
C505 H503 0.959 . S
C505 H504 0.961 . S
C505 H506 0.960 . S
H506 C505 0.960 . S
H507 N487 0.862 . S
O508 Co476 1.920 . S
O508 C481 1.289 . S
C509 O501 1.258 . S
C509 O502 1.266 . S
Co510 O513 1.970 . S
Co510 N527 1.989 . S
Co510 O535 1.967 . S
Co510 O542 1.920 . S
Co511 O514 1.966 . S
Co511 N520 2.022 . S
Co511 N528 1.993 . S
Co511 O536 1.941 . S
C512 O513 1.258 . S
C512 O514 1.263 . S
O513 Co510 1.970 . S
O513 C512 1.258 . S
O514 Co511 1.966 . S
O514 C512 1.263 . S
C515 O516 1.228 1_455 S
C515 O542 1.289 . S
O516 C515 1.228 1_655 S
C517 C519 1.400 . S
C517 N520 1.351 . S
C517 C522 1.501 . S
C518 C519 1.387 . S
C518 N521 1.341 . S
C519 C517 1.400 . S
C519 C518 1.387 . S
N520 Co511 2.022 . S
N520 C517 1.351 . S
N520 N521 1.365 . S
N521 C518 1.341 . S
N521 N520 1.365 . S
N521 H541 0.862 . S
C522 C517 1.501 . S
C522 H523 0.961 . S
C522 H524 0.961 . S
C522 H525 0.960 . S
H523 C522 0.961 . S
H524 C522 0.961 . S
H525 C522 0.960 . S
C526 N527 1.342 . S
C526 C530 1.401 . S
C526 C531 1.499 . S
N527 Co510 1.989 . S
N527 C526 1.342 . S
N527 N528 1.388 . S
N528 Co511 1.993 . S
N528 N527 1.388 . S
N528 C529 1.346 . S
C529 N528 1.346 . S
C529 C530 1.396 . S
C529 C539 1.510 . S
C530 C526 1.401 . S
C530 C529 1.396 . S
C531 C526 1.499 . S
C531 H532 0.959 . S
C531 H533 0.960 . S
C531 H534 0.961 . S
H532 C531 0.959 . S
H533 C531 0.960 . S
H534 C531 0.961 . S
O535 Co510 1.967 . S
O535 C543 1.258 . S
O536 Co511 1.941 . S
O536 C543 1.266 . S
H537 C539 0.959 . S
H538 C539 0.961 . S
C539 C529 1.510 . S
C539 H537 0.959 . S
C539 H538 0.961 . S
C539 H540 0.960 . S
H540 C539 0.960 . S
H541 N521 0.862 . S
O542 Co510 1.920 . S
O542 C515 1.289 . S
C543 O535 1.258 . S
C543 O536 1.266 . S
H544 C550 0.930 . S
H545 C554 0.930 . S
H546 C559 0.929 . S
H547 C557 0.929 . S
H548 C552 0.929 . S
H549 C558 0.929 . S
C550 H544 0.930 . S
C550 C551 1.367 . S
C550 C558 1.378 . S
C551 C550 1.367 . S
C551 C559 1.433 . S
C552 H548 0.929 . S
C552 C554 1.378 . S
C552 C556 1.350 . S
C553 C556 1.463 . S
C553 C558 1.350 . S
C553 N561 1.427 . S
C554 H545 0.930 . S
C554 C552 1.378 . S
C554 C555 1.367 . S
C555 C554 1.367 . S
C555 C557 1.433 . S
C556 C552 1.350 . S
C556 C553 1.463 . S
C556 N560 1.427 . S
C557 H547 0.929 . S
C557 C555 1.433 . S
C557 N560 1.384 . S
C558 H549 0.929 . S
C558 C550 1.378 . S
C558 C553 1.350 . S
C559 H546 0.929 . S
C559 C551 1.433 . S
C559 N561 1.384 . S
N560 C556 1.427 . S
N560 C557 1.384 . S
N561 C553 1.427 . S
N561 C559 1.384 . S
H562 C568 0.930 . S
H563 C572 0.930 . S
H564 C577 0.929 . S
H565 C575 0.929 . S
H566 C570 0.929 . S
H567 C576 0.929 . S
C568 H562 0.930 . S
C568 C569 1.367 . S
C568 C576 1.378 . S
C569 C568 1.367 . S
C569 C577 1.433 . S
C570 H566 0.929 . S
C570 C572 1.378 . S
C570 C574 1.350 . S
C571 C574 1.463 . S
C571 C576 1.350 . S
C571 N579 1.427 . S
C572 H563 0.930 . S
C572 C570 1.378 . S
C572 C573 1.367 . S
C573 C572 1.367 . S
C573 C575 1.433 . S
C574 C570 1.350 . S
C574 C571 1.463 . S
C574 N578 1.427 . S
C575 H565 0.929 . S
C575 C573 1.433 . S
C575 N578 1.384 . S
C576 H567 0.929 . S
C576 C568 1.378 . S
C576 C571 1.350 . S
C577 H564 0.929 . S
C577 C569 1.433 . S
C577 N579 1.384 . S
N578 C574 1.427 . S
N578 C575 1.384 . S
N579 C571 1.427 . S
N579 C577 1.384 . S
H580 C586 0.930 . S
H581 C590 0.930 . S
H582 C595 0.929 . S
H583 C593 0.929 . S
H584 C588 0.929 . S
H585 C594 0.929 . S
C586 H580 0.930 . S
C586 C587 1.367 . S
C586 C594 1.378 . S
C587 C586 1.367 . S
C587 C595 1.433 . S
C588 H584 0.929 . S
C588 C590 1.378 . S
C588 C592 1.350 . S
C589 C592 1.463 . S
C589 C594 1.350 . S
C589 N597 1.427 . S
C590 H581 0.930 . S
C590 C588 1.378 . S
C590 C591 1.367 . S
C591 C590 1.367 . S
C591 C593 1.433 . S
C592 C588 1.350 . S
C592 C589 1.463 . S
C592 N596 1.427 . S
C593 H583 0.929 . S
C593 C591 1.433 . S
C593 N596 1.384 . S
C594 H585 0.929 . S
C594 C586 1.378 . S
C594 C589 1.350 . S
C595 H582 0.929 . S
C595 C587 1.433 . S
C595 N597 1.384 . S
N596 C592 1.427 . S
N596 C593 1.384 . S
N597 C589 1.427 . S
N597 C595 1.384 . S
H598 C604 0.930 . S
H599 C608 0.930 . S
H600 C613 0.929 . S
H601 C611 0.929 . S
H602 C606 0.929 . S
H603 C612 0.929 . S
C604 H598 0.930 . S
C604 C605 1.367 . S
C604 C612 1.378 . S
C605 C604 1.367 . S
C605 C613 1.433 . S
C606 H602 0.929 . S
C606 C608 1.378 . S
C606 C610 1.350 . S
C607 C610 1.463 . S
C607 C612 1.350 . S
C607 N615 1.427 . S
C608 H599 0.930 . S
C608 C606 1.378 . S
C608 C609 1.367 . S
C609 C608 1.367 . S
C609 C611 1.433 . S
C610 C606 1.350 . S
C610 C607 1.463 . S
C610 N614 1.427 . S
C611 H601 0.929 . S
C611 C609 1.433 . S
C611 N614 1.384 . S
C612 H603 0.929 . S
C612 C604 1.378 . S
C612 C607 1.350 . S
C613 H600 0.929 . S
C613 C605 1.433 . S
C613 N615 1.384 . S
N614 C610 1.427 . S
N614 C611 1.384 . S
N615 C607 1.427 . S
N615 C613 1.384 . S
H616 C622 0.930 . S
H617 C626 0.930 . S
H618 C631 0.929 . S
H619 C629 0.929 . S
H620 C624 0.929 . S
H621 C630 0.929 . S
C622 H616 0.930 . S
C622 C623 1.367 . S
C622 C630 1.378 . S
C623 C622 1.367 . S
C623 C631 1.433 . S
C624 H620 0.929 . S
C624 C626 1.378 . S
C624 C628 1.350 . S
C625 C628 1.463 . S
C625 C630 1.350 . S
C625 N633 1.427 . S
C626 H617 0.930 . S
C626 C624 1.378 . S
C626 C627 1.367 . S
C627 C626 1.367 . S
C627 C629 1.433 . S
C628 C624 1.350 . S
C628 C625 1.463 . S
C628 N632 1.427 . S
C629 H619 0.929 . S
C629 C627 1.433 . S
C629 N632 1.384 . S
C630 H621 0.929 . S
C630 C622 1.378 . S
C630 C625 1.350 . S
C631 H618 0.929 . S
C631 C623 1.433 . S
C631 N633 1.384 . S
N632 C628 1.427 . S
N632 C629 1.384 . S
N633 C625 1.427 . S
N633 C631 1.384 . S
H634 C640 0.930 . S
H635 C644 0.930 . S
H636 C649 0.929 . S
H637 C647 0.929 . S
H638 C642 0.929 . S
H639 C648 0.929 . S
C640 H634 0.930 . S
C640 C641 1.367 . S
C640 C648 1.378 . S
C641 C640 1.367 . S
C641 C649 1.433 . S
C642 H638 0.929 . S
C642 C644 1.378 . S
C642 C646 1.350 . S
C643 C646 1.463 . S
C643 C648 1.350 . S
C643 N651 1.427 . S
C644 H635 0.930 . S
C644 C642 1.378 . S
C644 C645 1.367 . S
C645 C644 1.367 . S
C645 C647 1.433 . S
C646 C642 1.350 . S
C646 C643 1.463 . S
C646 N650 1.427 . S
C647 H637 0.929 . S
C647 C645 1.433 . S
C647 N650 1.384 . S
C648 H639 0.929 . S
C648 C640 1.378 . S
C648 C643 1.350 . S
C649 H636 0.929 . S
C649 C641 1.433 . S
C649 N651 1.384 . S
N650 C646 1.427 . S
N650 C647 1.384 . S
N651 C643 1.427 . S
N651 C649 1.384 . S
H652 C658 0.930 . S
H653 C662 0.930 . S
H654 C667 0.929 . S
H655 C665 0.929 . S
H656 C660 0.929 . S
H657 C666 0.929 . S
C658 H652 0.930 . S
C658 C659 1.367 . S
C658 C666 1.378 . S
C659 C658 1.367 . S
C659 C667 1.433 . S
C660 H656 0.929 . S
C660 C662 1.378 . S
C660 C664 1.350 . S
C661 C664 1.463 . S
C661 C666 1.350 . S
C661 N669 1.427 . S
C662 H653 0.930 . S
C662 C660 1.378 . S
C662 C663 1.367 . S
C663 C662 1.367 . S
C663 C665 1.433 . S
C664 C660 1.350 . S
C664 C661 1.463 . S
C664 N668 1.427 . S
C665 H655 0.929 . S
C665 C663 1.433 . S
C665 N668 1.384 . S
C666 H657 0.929 . S
C666 C658 1.378 . S
C666 C661 1.350 . S
C667 H654 0.929 . S
C667 C659 1.433 . S
C667 N669 1.384 . S
N668 C664 1.427 . S
N668 C665 1.384 . S
N669 C661 1.427 . S
N669 C667 1.384 . S
H670 C676 0.930 . S
H671 C680 0.930 . S
H672 C685 0.929 . S
H673 C683 0.929 . S
H674 C678 0.929 . S
H675 C684 0.929 . S
C676 H670 0.930 . S
C676 C677 1.367 . S
C676 C684 1.378 . S
C677 C676 1.367 . S
C677 C685 1.433 . S
C678 H674 0.929 . S
C678 C680 1.378 . S
C678 C682 1.350 . S
C679 C682 1.463 . S
C679 C684 1.350 . S
C679 N687 1.427 . S
C680 H671 0.930 . S
C680 C678 1.378 . S
C680 C681 1.367 . S
C681 C680 1.367 . S
C681 C683 1.433 . S
C682 C678 1.350 . S
C682 C679 1.463 . S
C682 N686 1.427 . S
C683 H673 0.929 . S
C683 C681 1.433 . S
C683 N686 1.384 . S
C684 H675 0.929 . S
C684 C676 1.378 . S
C684 C679 1.350 . S
C685 H672 0.929 . S
C685 C677 1.433 . S
C685 N687 1.384 . S
N686 C682 1.427 . S
N686 C683 1.384 . S
N687 C679 1.427 . S
N687 C685 1.384 . S
H688 C694 0.930 . S
H689 C698 0.930 . S
H690 C703 0.929 . S
H691 C701 0.929 . S
H692 C696 0.929 . S
H693 C702 0.929 . S
C694 H688 0.930 . S
C694 C695 1.367 . S
C694 C702 1.378 . S
C695 C694 1.367 . S
C695 C703 1.433 . S
C696 H692 0.929 . S
C696 C698 1.378 . S
C696 C700 1.350 . S
C697 C700 1.463 . S
C697 C702 1.350 . S
C697 N705 1.427 . S
C698 H689 0.930 . S
C698 C696 1.378 . S
C698 C699 1.367 . S
C699 C698 1.367 . S
C699 C701 1.433 . S
C700 C696 1.350 . S
C700 C697 1.463 . S
C700 N704 1.427 . S
C701 H691 0.929 . S
C701 C699 1.433 . S
C701 N704 1.384 . S
C702 H693 0.929 . S
C702 C694 1.378 . S
C702 C697 1.350 . S
C703 H690 0.929 . S
C703 C695 1.433 . S
C703 N705 1.384 . S
N704 C700 1.427 . S
N704 C701 1.384 . S
N705 C697 1.427 . S
N705 C703 1.384 . S
H706 C712 0.930 . S
H707 C716 0.930 . S
H708 C721 0.929 . S
H709 C719 0.929 . S
H710 C714 0.929 . S
H711 C720 0.929 . S
C712 H706 0.930 . S
C712 C713 1.367 . S
C712 C720 1.378 . S
C713 C712 1.367 . S
C713 C721 1.433 . S
C714 H710 0.929 . S
C714 C716 1.378 . S
C714 C718 1.350 . S
C715 C718 1.463 . S
C715 C720 1.350 . S
C715 N723 1.427 . S
C716 H707 0.930 . S
C716 C714 1.378 . S
C716 C717 1.367 . S
C717 C716 1.367 . S
C717 C719 1.433 . S
C718 C714 1.350 . S
C718 C715 1.463 . S
C718 N722 1.427 . S
C719 H709 0.929 . S
C719 C717 1.433 . S
C719 N722 1.384 . S
C720 H711 0.929 . S
C720 C712 1.378 . S
C720 C715 1.350 . S
C721 H708 0.929 . S
C721 C713 1.433 . S
C721 N723 1.384 . S
N722 C718 1.427 . S
N722 C719 1.384 . S
N723 C715 1.427 . S
N723 C721 1.384 . S
H724 C730 0.930 . S
H725 C734 0.930 . S
H726 C739 0.929 . S
H727 C737 0.929 . S
H728 C732 0.929 . S
H729 C738 0.929 . S
C730 H724 0.930 . S
C730 C731 1.367 . S
C730 C738 1.378 . S
C731 C730 1.367 . S
C731 C739 1.433 . S
C732 H728 0.929 . S
C732 C734 1.378 . S
C732 C736 1.350 . S
C733 C736 1.463 . S
C733 C738 1.350 . S
C733 N741 1.427 . S
C734 H725 0.930 . S
C734 C732 1.378 . S
C734 C735 1.367 . S
C735 C734 1.367 . S
C735 C737 1.433 . S
C736 C732 1.350 . S
C736 C733 1.463 . S
C736 N740 1.427 . S
C737 H727 0.929 . S
C737 C735 1.433 . S
C737 N740 1.384 . S
C738 H729 0.929 . S
C738 C730 1.378 . S
C738 C733 1.350 . S
C739 H726 0.929 . S
C739 C731 1.433 . S
C739 N741 1.384 . S
N740 C736 1.427 . S
N740 C737 1.384 . S
N741 C733 1.427 . S
N741 C739 1.384 . S
H742 C748 0.930 . S
H743 C752 0.930 . S
H744 C757 0.929 . S
H745 C755 0.929 . S
H746 C750 0.929 . S
H747 C756 0.929 . S
C748 H742 0.930 . S
C748 C749 1.367 . S
C748 C756 1.378 . S
C749 C748 1.367 . S
C749 C757 1.433 . S
C750 H746 0.929 . S
C750 C752 1.378 . S
C750 C754 1.350 . S
C751 C754 1.463 . S
C751 C756 1.350 . S
C751 N759 1.427 . S
C752 H743 0.930 . S
C752 C750 1.378 . S
C752 C753 1.367 . S
C753 C752 1.367 . S
C753 C755 1.433 . S
C754 C750 1.350 . S
C754 C751 1.463 . S
C754 N758 1.427 . S
C755 H745 0.929 . S
C755 C753 1.433 . S
C755 N758 1.384 . S
C756 H747 0.929 . S
C756 C748 1.378 . S
C756 C751 1.350 . S
C757 H744 0.929 . S
C757 C749 1.433 . S
C757 N759 1.384 . S
N758 C754 1.427 . S
N758 C755 1.384 . S
N759 C751 1.427 . S
N759 C757 1.384 . S
H760 C766 0.930 . S
H761 C770 0.930 . S
H762 C775 0.929 . S
H763 C773 0.929 . S
H764 C768 0.929 . S
H765 C774 0.929 . S
C766 H760 0.930 . S
C766 C767 1.367 . S
C766 C774 1.378 . S
C767 C766 1.367 . S
C767 C775 1.433 . S
C768 H764 0.929 . S
C768 C770 1.378 . S
C768 C772 1.350 . S
C769 C772 1.463 . S
C769 C774 1.350 . S
C769 N777 1.427 . S
C770 H761 0.930 . S
C770 C768 1.378 . S
C770 C771 1.367 . S
C771 C770 1.367 . S
C771 C773 1.433 . S
C772 C768 1.350 . S
C772 C769 1.463 . S
C772 N776 1.427 . S
C773 H763 0.929 . S
C773 C771 1.433 . S
C773 N776 1.384 . S
C774 H765 0.929 . S
C774 C766 1.378 . S
C774 C769 1.350 . S
C775 H762 0.929 . S
C775 C767 1.433 . S
C775 N777 1.384 . S
N776 C772 1.427 . S
N776 C773 1.384 . S
N777 C769 1.427 . S
N777 C775 1.384 . S
H778 C784 0.930 . S
H779 C788 0.930 . S
H780 C793 0.929 . S
H781 C791 0.929 . S
H782 C786 0.929 . S
H783 C792 0.929 . S
C784 H778 0.930 . S
C784 C785 1.367 . S
C784 C792 1.378 . S
C785 C784 1.367 . S
C785 C793 1.433 . S
C786 H782 0.929 . S
C786 C788 1.378 . S
C786 C790 1.350 . S
C787 C790 1.463 . S
C787 C792 1.350 . S
C787 N795 1.427 . S
C788 H779 0.930 . S
C788 C786 1.378 . S
C788 C789 1.367 . S
C789 C788 1.367 . S
C789 C791 1.433 . S
C790 C786 1.350 . S
C790 C787 1.463 . S
C790 N794 1.427 . S
C791 H781 0.929 . S
C791 C789 1.433 . S
C791 N794 1.384 . S
C792 H783 0.929 . S
C792 C784 1.378 . S
C792 C787 1.350 . S
C793 H780 0.929 . S
C793 C785 1.433 . S
C793 N795 1.384 . S
N794 C790 1.427 . S
N794 C791 1.384 . S
N795 C787 1.427 . S
N795 C793 1.384 . S
H796 C802 0.930 . S
H797 C806 0.930 . S
H798 C811 0.929 . S
H799 C809 0.929 . S
H800 C804 0.929 . S
H801 C810 0.929 . S
C802 H796 0.930 . S
C802 C803 1.367 . S
C802 C810 1.378 . S
C803 C802 1.367 . S
C803 C811 1.433 . S
C804 H800 0.929 . S
C804 C806 1.378 . S
C804 C808 1.350 . S
C805 C808 1.463 . S
C805 C810 1.350 . S
C805 N813 1.427 . S
C806 H797 0.930 . S
C806 C804 1.378 . S
C806 C807 1.367 . S
C807 C806 1.367 . S
C807 C809 1.433 . S
C808 C804 1.350 . S
C808 C805 1.463 . S
C808 N812 1.427 . S
C809 H799 0.929 . S
C809 C807 1.433 . S
C809 N812 1.384 . S
C810 H801 0.929 . S
C810 C802 1.378 . S
C810 C805 1.350 . S
C811 H798 0.929 . S
C811 C803 1.433 . S
C811 N813 1.384 . S
N812 C808 1.427 . S
N812 C809 1.384 . S
N813 C805 1.427 . S
N813 C811 1.384 . S
H814 C820 0.930 . S
H815 C824 0.930 . S
H816 C829 0.929 . S
H817 C827 0.929 . S
H818 C822 0.929 . S
H819 C828 0.929 . S
C820 H814 0.930 . S
C820 C821 1.367 . S
C820 C828 1.378 . S
C821 C820 1.367 . S
C821 C829 1.433 . S
C822 H818 0.929 . S
C822 C824 1.378 . S
C822 C826 1.350 . S
C823 C826 1.463 . S
C823 C828 1.350 . S
C823 N831 1.427 . S
C824 H815 0.930 . S
C824 C822 1.378 . S
C824 C825 1.367 . S
C825 C824 1.367 . S
C825 C827 1.433 . S
C826 C822 1.350 . S
C826 C823 1.463 . S
C826 N830 1.427 . S
C827 H817 0.929 . S
C827 C825 1.433 . S
C827 N830 1.384 . S
C828 H819 0.929 . S
C828 C820 1.378 . S
C828 C823 1.350 . S
C829 H816 0.929 . S
C829 C821 1.433 . S
C829 N831 1.384 . S
N830 C826 1.427 . S
N830 C827 1.384 . S
N831 C823 1.427 . S
N831 C829 1.384 . S
H832 C838 0.930 . S
H833 C842 0.930 . S
H834 C847 0.929 . S
H835 C845 0.929 . S
H836 C840 0.929 1_545 S
H837 C846 0.929 1_565 S
C838 H832 0.930 . S
C838 C839 1.367 . S
C838 C846 1.378 . S
C839 C838 1.367 . S
C839 C847 1.433 . S
C840 H836 0.929 1_565 S
C840 C842 1.378 . S
C840 C844 1.350 . S
C841 C844 1.463 1_445 S
C841 C846 1.350 . S
C841 N849 1.427 . S
C842 H833 0.930 . S
C842 C840 1.378 . S
C842 C843 1.367 . S
C843 C842 1.367 . S
C843 C845 1.433 . S
C844 C840 1.350 . S
C844 C841 1.463 1_665 S
C844 N848 1.427 . S
C845 H835 0.929 . S
C845 C843 1.433 . S
C845 N848 1.384 . S
C846 H837 0.929 1_545 S
C846 C838 1.378 . S
C846 C841 1.350 . S
C847 H834 0.929 . S
C847 C839 1.433 . S
C847 N849 1.384 . S
N848 C844 1.427 . S
N848 C845 1.384 . S
N849 C841 1.427 . S
N849 C847 1.384 . S
H850 C856 0.930 . S
H851 C860 0.930 . S
H852 C865 0.929 . S
H853 C863 0.929 . S
H854 C858 0.929 . S
H855 C864 0.929 . S
C856 H850 0.930 . S
C856 C857 1.367 . S
C856 C864 1.378 . S
C857 C856 1.367 . S
C857 C865 1.433 . S
C858 H854 0.929 . S
C858 C860 1.378 . S
C858 C862 1.350 . S
C859 C862 1.463 1_465 S
C859 C864 1.350 . S
C859 N867 1.427 . S
C860 H851 0.930 . S
C860 C858 1.378 . S
C860 C861 1.367 . S
C861 C860 1.367 . S
C861 C863 1.433 . S
C862 C858 1.350 . S
C862 C859 1.463 1_645 S
C862 N866 1.427 . S
C863 H853 0.929 . S
C863 C861 1.433 . S
C863 N866 1.384 . S
C864 H855 0.929 . S
C864 C856 1.378 . S
C864 C859 1.350 . S
C865 H852 0.929 . S
C865 C857 1.433 . S
C865 N867 1.384 . S
N866 C862 1.427 . S
N866 C863 1.384 . S
N867 C859 1.427 . S
N867 C865 1.384 . S
H868 C874 0.930 . S
H869 C878 0.930 . S
H870 C883 0.929 . S
H871 C881 0.929 . S
H872 C876 0.929 1_455 S
H873 C882 0.929 1_655 S
C874 H868 0.930 . S
C874 C875 1.367 . S
C874 C882 1.378 . S
C875 C874 1.367 . S
C875 C883 1.433 1_556 S
C876 H872 0.929 1_655 S
C876 C878 1.378 . S
C876 C880 1.337 1_554 S
C877 C880 1.464 1_455 S
C877 C882 1.350 . S
C877 N885 1.427 1_556 S
C878 H869 0.930 . S
C878 C876 1.378 . S
C878 C879 1.367 1_554 S
C879 C878 1.367 1_556 S
C879 C881 1.433 . S
C880 C876 1.337 1_556 S
C880 C877 1.464 1_655 S
C880 N884 1.440 . S
C881 H871 0.929 . S
C881 C879 1.433 . S
C881 N884 1.384 . S
C882 H873 0.929 1_455 S
C882 C874 1.378 . S
C882 C877 1.350 . S
C883 H870 0.929 . S
C883 C875 1.433 1_554 S
C883 N885 1.384 . S
N884 C880 1.440 . S
N884 C881 1.384 . S
N885 C877 1.427 1_554 S
N885 C883 1.384 . S
H886 C892 0.930 . S
H887 C896 0.930 . S
H888 C901 0.929 . S
H889 C899 0.929 . S
H890 C894 0.929 . S
H891 C900 0.929 . S
C892 H886 0.930 . S
C892 C893 1.367 . S
C892 C900 1.378 . S
C893 C892 1.367 . S
C893 C901 1.433 1_554 S
C894 H890 0.929 . S
C894 C896 1.378 . S
C894 C898 1.343 1_556 S
C895 C898 1.463 1_565 S
C895 C900 1.350 . S
C895 N903 1.427 1_554 S
C896 H887 0.930 . S
C896 C894 1.378 . S
C896 C897 1.348 1_556 S
C897 C896 1.348 1_554 S
C897 C899 1.452 . S
C898 C894 1.343 1_554 S
C898 C895 1.463 1_545 S
C898 N902 1.435 . S
C899 H889 0.929 . S
C899 C897 1.452 . S
C899 N902 1.384 . S
C900 H891 0.929 . S
C900 C892 1.378 . S
C900 C895 1.350 . S
C901 H888 0.929 . S
C901 C893 1.433 1_556 S
C901 N903 1.384 . S
N902 C898 1.435 . S
N902 C899 1.384 . S
N903 C895 1.427 1_556 S
N903 C901 1.384 . S
H904 C910 0.930 . S
H905 C914 0.930 . S
H906 C919 0.929 . S
H907 C917 0.929 . S
H908 C912 0.929 . S
H909 C918 0.929 . S
C910 H904 0.930 . S
C910 C911 1.367 . S
C910 C918 1.378 . S
C911 C910 1.367 . S
C911 C919 1.433 . S
C912 H908 0.929 . S
C912 C914 1.378 . S
C912 C916 1.350 . S
C913 C916 1.463 . S
C913 C918 1.350 . S
C913 N921 1.427 . S
C914 H905 0.930 . S
C914 C912 1.378 . S
C914 C915 1.367 . S
C915 C914 1.367 . S
C915 C917 1.433 . S
C916 C912 1.350 . S
C916 C913 1.463 . S
C916 N920 1.427 . S
C917 H907 0.929 . S
C917 C915 1.433 . S
C917 N920 1.384 . S
C918 H909 0.929 . S
C918 C910 1.378 . S
C918 C913 1.350 . S
C919 H906 0.929 . S
C919 C911 1.433 . S
C919 N921 1.384 . S
N920 C916 1.427 . S
N920 C917 1.384 . S
N921 C913 1.427 . S
N921 C919 1.384 . S
H922 C928 0.930 . S
H923 C932 0.930 . S
H924 C937 0.929 . S
H925 C935 0.929 . S
H926 C930 0.929 . S
H927 C936 0.929 . S
C928 H922 0.930 . S
C928 C929 1.367 . S
C928 C936 1.378 . S
C929 C928 1.367 . S
C929 C937 1.433 . S
C930 H926 0.929 . S
C930 C932 1.378 . S
C930 C934 1.350 . S
C931 C934 1.463 . S
C931 C936 1.350 . S
C931 N939 1.427 . S
C932 H923 0.930 . S
C932 C930 1.378 . S
C932 C933 1.367 . S
C933 C932 1.367 . S
C933 C935 1.433 . S
C934 C930 1.350 . S
C934 C931 1.463 . S
C934 N938 1.427 . S
C935 H925 0.929 . S
C935 C933 1.433 . S
C935 N938 1.384 . S
C936 H927 0.929 . S
C936 C928 1.378 . S
C936 C931 1.350 . S
C937 H924 0.929 . S
C937 C929 1.433 . S
C937 N939 1.384 . S
N938 C934 1.427 . S
N938 C935 1.384 . S
N939 C931 1.427 . S
N939 C937 1.384 . S
H940 C946 0.930 . S
H941 C950 0.930 . S
H942 C955 0.929 . S
H943 C953 0.929 . S
H944 C948 0.929 1_565 S
H945 C954 0.929 1_545 S
C946 H940 0.930 . S
C946 C947 1.367 . S
C946 C954 1.378 . S
C947 C946 1.367 . S
C947 C955 1.433 . S
C948 H944 0.929 1_545 S
C948 C950 1.378 . S
C948 C952 1.350 . S
C949 C952 1.463 1_565 S
C949 C954 1.350 . S
C949 N957 1.427 . S
C950 H941 0.930 . S
C950 C948 1.378 . S
C950 C951 1.367 . S
C951 C950 1.367 . S
C951 C953 1.433 . S
C952 C948 1.350 . S
C952 C949 1.463 1_545 S
C952 N956 1.427 . S
C953 H943 0.929 . S
C953 C951 1.433 . S
C953 N956 1.384 . S
C954 H945 0.929 1_565 S
C954 C946 1.378 . S
C954 C949 1.350 . S
C955 H942 0.929 . S
C955 C947 1.433 . S
C955 N957 1.384 . S
N956 C952 1.427 . S
N956 C953 1.384 . S
N957 C949 1.427 . S
N957 C955 1.384 . S
H958 C964 0.930 . S
H959 C968 0.930 . S
H960 C973 0.929 . S
H961 C971 0.929 . S
H962 C966 0.929 1_655 S
H963 C972 0.929 1_455 S
C964 H958 0.930 . S
C964 C965 1.367 . S
C964 C972 1.378 . S
C965 C964 1.367 . S
C965 C973 1.433 . S
C966 H962 0.929 1_455 S
C966 C968 1.378 . S
C966 C970 1.350 . S
C967 C970 1.463 1_655 S
C967 C972 1.350 . S
C967 N975 1.427 . S
C968 H959 0.930 . S
C968 C966 1.378 . S
C968 C969 1.367 . S
C969 C968 1.367 . S
C969 C971 1.433 . S
C970 C966 1.350 . S
C970 C967 1.463 1_455 S
C970 N974 1.427 . S
C971 H961 0.929 . S
C971 C969 1.433 . S
C971 N974 1.384 . S
C972 H963 0.929 1_655 S
C972 C964 1.378 . S
C972 C967 1.350 . S
C973 H960 0.929 . S
C973 C965 1.433 . S
C973 N975 1.384 . S
N974 C970 1.427 . S
N974 C971 1.384 . S
N975 C967 1.427 . S
N975 C973 1.384 . S
H976 C982 0.930 . S
H977 C986 0.930 . S
H978 C991 0.929 . S
H979 C989 0.929 . S
H980 C984 0.929 . S
H981 C990 0.929 . S
C982 H976 0.930 . S
C982 C983 1.367 . S
C982 C990 1.378 . S
C983 C982 1.367 . S
C983 C991 1.433 . S
C984 H980 0.929 . S
C984 C986 1.378 . S
C984 C988 1.350 . S
C985 C988 1.463 . S
C985 C990 1.350 . S
C985 N993 1.427 . S
C986 H977 0.930 . S
C986 C984 1.378 . S
C986 C987 1.367 . S
C987 C986 1.367 . S
C987 C989 1.433 1_565 S
C988 C984 1.350 . S
C988 C985 1.463 . S
C988 N992 1.427 . S
C989 H979 0.929 . S
C989 C987 1.433 1_545 S
C989 N992 1.384 1_545 S
C990 H981 0.929 . S
C990 C982 1.378 . S
C990 C985 1.350 . S
C991 H978 0.929 . S
C991 C983 1.433 . S
C991 N993 1.384 . S
N992 C988 1.427 . S
N992 C989 1.384 1_565 S
N993 C985 1.427 . S
N993 C991 1.384 . S
H994 C1000 0.912 1_455 S
H995 C1004 0.930 . S
H996 C1009 0.929 . S
H997 C1007 0.929 . S
H998 C1002 0.929 . S
H999 C1008 0.929 . S
C1000 H994 0.912 1_655 S
C1000 C1001 1.373 . S
C1000 C1008 1.391 . S
C1001 C1000 1.373 . S
C1001 C1009 1.433 . S
C1002 H998 0.929 . S
C1002 C1004 1.378 . S
C1002 C1006 1.350 . S
C1003 C1006 1.463 . S
C1003 C1008 1.350 . S
C1003 N1011 1.427 . S
C1004 H995 0.930 . S
C1004 C1002 1.378 . S
C1004 C1005 1.367 . S
C1005 C1004 1.367 . S
C1005 C1007 1.433 . S
C1006 C1002 1.350 . S
C1006 C1003 1.463 . S
C1006 N1010 1.427 . S
C1007 H997 0.929 . S
C1007 C1005 1.433 . S
C1007 N1010 1.384 . S
C1008 H999 0.929 . S
C1008 C1000 1.391 . S
C1008 C1003 1.350 . S
C1009 H996 0.929 . S
C1009 C1001 1.433 . S
C1009 N1011 1.384 . S
N1010 C1006 1.427 . S
N1010 C1007 1.384 . S
N1011 C1003 1.427 . S
N1011 C1009 1.384 . S
H1012 C1018 0.930 . S
H1013 C1022 0.930 . S
H1014 C1027 0.929 . S
H1015 C1025 0.929 . S
H1016 C1020 0.929 1_565 S
H1017 C1026 0.929 . S
C1018 H1012 0.930 . S
C1018 C1019 1.367 . S
C1018 C1026 1.378 . S
C1019 C1018 1.367 . S
C1019 C1027 1.433 . S
C1020 H1016 0.929 1_545 S
C1020 C1022 1.378 1_545 S
C1020 C1024 1.350 . S
C1021 C1024 1.463 . S
C1021 C1026 1.350 . S
C1021 N1029 1.427 . S
C1022 H1013 0.930 . S
C1022 C1020 1.378 1_565 S
C1022 C1023 1.367 1_565 S
C1023 C1022 1.367 1_545 S
C1023 C1025 1.433 . S
C1024 C1020 1.350 . S
C1024 C1021 1.463 . S
C1024 N1028 1.427 . S
C1025 H1015 0.929 . S
C1025 C1023 1.433 . S
C1025 N1028 1.384 . S
C1026 H1017 0.929 . S
C1026 C1018 1.378 . S
C1026 C1021 1.350 . S
C1027 H1014 0.929 . S
C1027 C1019 1.433 . S
C1027 N1029 1.384 . S
N1028 C1024 1.427 . S
N1028 C1025 1.384 . S
N1029 C1021 1.427 . S
N1029 C1027 1.384 . S
H1030 C1036 0.925 1_655 S
H1031 C1040 0.930 . S
H1032 C1045 0.929 . S
H1033 C1043 0.929 . S
H1034 C1038 0.929 . S
H1035 C1044 0.929 . S
C1036 H1030 0.925 1_455 S
C1036 C1037 1.369 . S
C1036 C1044 1.382 . S
C1037 C1036 1.369 . S
C1037 C1045 1.433 . S
C1038 H1034 0.929 . S
C1038 C1040 1.378 . S
C1038 C1042 1.350 . S
C1039 C1042 1.463 . S
C1039 C1044 1.350 . S
C1039 N1047 1.427 . S
C1040 H1031 0.930 . S
C1040 C1038 1.378 . S
C1040 C1041 1.367 . S
C1041 C1040 1.367 . S
C1041 C1043 1.433 . S
C1042 C1038 1.350 . S
C1042 C1039 1.463 . S
C1042 N1046 1.427 . S
C1043 H1033 0.929 . S
C1043 C1041 1.433 . S
C1043 N1046 1.384 . S
C1044 H1035 0.929 . S
C1044 C1036 1.382 . S
C1044 C1039 1.350 . S
C1045 H1032 0.929 . S
C1045 C1037 1.433 . S
C1045 N1047 1.384 . S
N1046 C1042 1.427 . S
N1046 C1043 1.384 . S
N1047 C1039 1.427 . S
N1047 C1045 1.384 . S
H1048 C1054 0.930 . S
H1049 C1058 0.930 . S
H1050 C1063 0.929 . S
H1051 C1061 0.929 . S
H1052 C1056 0.929 . S
H1053 C1062 0.929 . S
C1054 H1048 0.930 . S
C1054 C1055 1.367 . S
C1054 C1062 1.378 . S
C1055 C1054 1.367 . S
C1055 C1063 1.433 . S
C1056 H1052 0.929 . S
C1056 C1058 1.378 . S
C1056 C1060 1.350 . S
C1057 C1060 1.463 . S
C1057 C1062 1.350 . S
C1057 N1065 1.427 . S
C1058 H1049 0.930 . S
C1058 C1056 1.378 . S
C1058 C1059 1.367 . S
C1059 C1058 1.367 . S
C1059 C1061 1.433 . S
C1060 C1056 1.350 . S
C1060 C1057 1.463 . S
C1060 N1064 1.427 . S
C1061 H1051 0.929 . S
C1061 C1059 1.433 . S
C1061 N1064 1.384 . S
C1062 H1053 0.929 . S
C1062 C1054 1.378 . S
C1062 C1057 1.350 . S
C1063 H1050 0.929 . S
C1063 C1055 1.433 . S
C1063 N1065 1.384 . S
N1064 C1060 1.427 . S
N1064 C1061 1.384 . S
N1065 C1057 1.427 . S
N1065 C1063 1.384 . S
H1066 C1072 0.930 . S
H1067 C1076 0.930 . S
H1068 C1081 0.929 . S
H1069 C1079 0.929 . S
H1070 C1074 0.929 . S
H1071 C1080 0.929 . S
C1072 H1066 0.930 . S
C1072 C1073 1.367 . S
C1072 C1080 1.378 . S
C1073 C1072 1.367 . S
C1073 C1081 1.433 . S
C1074 H1070 0.929 . S
C1074 C1076 1.378 . S
C1074 C1078 1.350 . S
C1075 C1078 1.463 . S
C1075 C1080 1.350 . S
C1075 N1083 1.427 . S
C1076 H1067 0.930 . S
C1076 C1074 1.378 . S
C1076 C1077 1.367 . S
C1077 C1076 1.367 . S
C1077 C1079 1.433 . S
C1078 C1074 1.350 . S
C1078 C1075 1.463 . S
C1078 N1082 1.427 . S
C1079 H1069 0.929 . S
C1079 C1077 1.433 . S
C1079 N1082 1.384 . S
C1080 H1071 0.929 . S
C1080 C1072 1.378 . S
C1080 C1075 1.350 . S
C1081 H1068 0.929 . S
C1081 C1073 1.433 . S
C1081 N1083 1.384 . S
N1082 C1078 1.427 . S
N1082 C1079 1.384 . S
N1083 C1075 1.427 . S
N1083 C1081 1.384 . S
H1084 C1090 0.930 . S
H1085 C1094 0.930 . S
H1086 C1099 0.929 . S
H1087 C1097 0.929 . S
H1088 C1092 0.929 . S
H1089 C1098 0.929 . S
C1090 H1084 0.930 . S
C1090 C1091 1.367 . S
C1090 C1098 1.378 . S
C1091 C1090 1.367 . S
C1091 C1099 1.433 . S
C1092 H1088 0.929 . S
C1092 C1094 1.378 . S
C1092 C1096 1.350 . S
C1093 C1096 1.463 . S
C1093 C1098 1.350 . S
C1093 N1101 1.427 . S
C1094 H1085 0.930 . S
C1094 C1092 1.378 . S
C1094 C1095 1.367 . S
C1095 C1094 1.367 . S
C1095 C1097 1.433 . S
C1096 C1092 1.350 . S
C1096 C1093 1.463 . S
C1096 N1100 1.427 . S
C1097 H1087 0.929 . S
C1097 C1095 1.433 . S
C1097 N1100 1.384 . S
C1098 H1089 0.929 . S
C1098 C1090 1.378 . S
C1098 C1093 1.350 . S
C1099 H1086 0.929 . S
C1099 C1091 1.433 . S
C1099 N1101 1.384 . S
N1100 C1096 1.427 . S
N1100 C1097 1.384 . S
N1101 C1093 1.427 . S
N1101 C1099 1.384 . S
H1102 C1108 0.930 . S
H1103 C1112 0.930 . S
H1104 C1117 0.929 . S
H1105 C1115 0.929 . S
H1106 C1110 0.929 . S
H1107 C1116 0.929 . S
C1108 H1102 0.930 . S
C1108 C1109 1.367 . S
C1108 C1116 1.378 . S
C1109 C1108 1.367 . S
C1109 C1117 1.433 . S
C1110 H1106 0.929 . S
C1110 C1112 1.378 . S
C1110 C1114 1.350 . S
C1111 C1114 1.463 . S
C1111 C1116 1.350 . S
C1111 N1119 1.427 . S
C1112 H1103 0.930 . S
C1112 C1110 1.378 . S
C1112 C1113 1.367 . S
C1113 C1112 1.367 . S
C1113 C1115 1.433 . S
C1114 C1110 1.350 . S
C1114 C1111 1.463 . S
C1114 N1118 1.427 . S
C1115 H1105 0.929 . S
C1115 C1113 1.433 . S
C1115 N1118 1.384 . S
C1116 H1107 0.929 . S
C1116 C1108 1.378 . S
C1116 C1111 1.350 . S
C1117 H1104 0.929 . S
C1117 C1109 1.433 . S
C1117 N1119 1.384 . S
N1118 C1114 1.427 . S
N1118 C1115 1.384 . S
N1119 C1111 1.427 . S
N1119 C1117 1.384 . S
H1120 C1126 0.930 . S
H1121 C1130 0.930 . S
H1122 C1135 0.929 . S
H1123 C1133 0.929 . S
H1124 C1128 0.929 . S
H1125 C1134 0.929 . S
C1126 H1120 0.930 . S
C1126 C1127 1.367 . S
C1126 C1134 1.378 . S
C1127 C1126 1.367 . S
C1127 C1135 1.433 . S
C1128 H1124 0.929 . S
C1128 C1130 1.378 . S
C1128 C1132 1.350 . S
C1129 C1132 1.463 1_556 S
C1129 C1134 1.350 . S
C1129 N1137 1.427 . S
C1130 H1121 0.930 . S
C1130 C1128 1.378 . S
C1130 C1131 1.367 . S
C1131 C1130 1.367 . S
C1131 C1133 1.433 . S
C1132 C1128 1.350 . S
C1132 C1129 1.463 1_554 S
C1132 N1136 1.427 . S
C1133 H1123 0.929 . S
C1133 C1131 1.433 . S
C1133 N1136 1.384 . S
C1134 H1125 0.929 . S
C1134 C1126 1.378 . S
C1134 C1129 1.350 . S
C1135 H1122 0.929 . S
C1135 C1127 1.433 . S
C1135 N1137 1.384 . S
N1136 C1132 1.427 . S
N1136 C1133 1.384 . S
N1137 C1129 1.427 . S
N1137 C1135 1.384 . S
H1138 C1144 0.930 . S
H1139 C1148 0.930 . S
H1140 C1153 0.929 . S
H1141 C1151 0.929 . S
H1142 C1146 0.929 . S
H1143 C1152 0.929 . S
C1144 H1138 0.930 . S
C1144 C1145 1.367 . S
C1144 C1152 1.378 . S
C1145 C1144 1.367 . S
C1145 C1153 1.433 . S
C1146 H1142 0.929 . S
C1146 C1148 1.378 . S
C1146 C1150 1.350 . S
C1147 C1150 1.463 1_556 S
C1147 C1152 1.350 . S
C1147 N1155 1.427 . S
C1148 H1139 0.930 . S
C1148 C1146 1.378 . S
C1148 C1149 1.367 . S
C1149 C1148 1.367 . S
C1149 C1151 1.433 . S
C1150 C1146 1.350 . S
C1150 C1147 1.463 1_554 S
C1150 N1154 1.427 . S
C1151 H1141 0.929 . S
C1151 C1149 1.433 . S
C1151 N1154 1.384 . S
C1152 H1143 0.929 . S
C1152 C1144 1.378 . S
C1152 C1147 1.350 . S
C1153 H1140 0.929 . S
C1153 C1145 1.433 . S
C1153 N1155 1.384 . S
N1154 C1150 1.427 . S
N1154 C1151 1.384 . S
N1155 C1147 1.427 . S
N1155 C1153 1.384 . S
H1156 C1162 0.930 . S
H1157 C1166 0.930 . S
H1158 C1171 0.929 . S
H1159 C1169 0.929 . S
H1160 C1164 0.929 . S
H1161 C1170 0.929 . S
C1162 H1156 0.930 . S
C1162 C1163 1.367 . S
C1162 C1170 1.378 . S
C1163 C1162 1.367 . S
C1163 C1171 1.433 . S
C1164 H1160 0.929 . S
C1164 C1166 1.378 . S
C1164 C1168 1.350 . S
C1165 C1168 1.463 1_556 S
C1165 C1170 1.350 . S
C1165 N1173 1.427 . S
C1166 H1157 0.930 . S
C1166 C1164 1.378 . S
C1166 C1167 1.367 . S
C1167 C1166 1.367 . S
C1167 C1169 1.433 . S
C1168 C1164 1.350 . S
C1168 C1165 1.463 1_554 S
C1168 N1172 1.427 . S
C1169 H1159 0.929 . S
C1169 C1167 1.433 . S
C1169 N1172 1.384 . S
C1170 H1161 0.929 . S
C1170 C1162 1.378 . S
C1170 C1165 1.350 . S
C1171 H1158 0.929 . S
C1171 C1163 1.433 . S
C1171 N1173 1.384 . S
N1172 C1168 1.427 . S
N1172 C1169 1.384 . S
N1173 C1165 1.427 . S
N1173 C1171 1.384 . S
H1174 C1180 0.930 . S
H1175 C1184 0.930 . S
H1176 C1189 0.929 . S
H1177 C1187 0.929 . S
H1178 C1182 0.917 1_554 S
H1179 C1188 0.929 1_556 S
C1180 H1174 0.930 . S
C1180 C1181 1.367 . S
C1180 C1188 1.378 . S
C1181 C1180 1.367 . S
C1181 C1189 1.433 . S
C1182 H1178 0.917 1_556 S
C1182 C1184 1.378 . S
C1182 C1186 1.350 . S
C1183 C1186 1.463 1_554 S
C1183 C1188 1.350 . S
C1183 N1191 1.427 . S
C1184 H1175 0.930 . S
C1184 C1182 1.378 . S
C1184 C1185 1.367 . S
C1185 C1184 1.367 . S
C1185 C1187 1.433 . S
C1186 C1182 1.350 . S
C1186 C1183 1.463 1_556 S
C1186 N1190 1.427 . S
C1187 H1177 0.929 . S
C1187 C1185 1.433 . S
C1187 N1190 1.384 . S
C1188 H1179 0.929 1_554 S
C1188 C1180 1.378 . S
C1188 C1183 1.350 . S
C1189 H1176 0.929 . S
C1189 C1181 1.433 . S
C1189 N1191 1.384 . S
N1190 C1186 1.427 . S
N1190 C1187 1.384 . S
N1191 C1183 1.427 . S
N1191 C1189 1.384 . S
H1192 C1198 0.930 . S
H1193 C1202 0.930 . S
H1194 C1207 0.929 . S
H1195 C1205 0.929 . S
H1196 C1200 0.929 . S
H1197 C1206 0.929 . S
C1198 H1192 0.930 . S
C1198 C1199 1.367 . S
C1198 C1206 1.378 . S
C1199 C1198 1.367 . S
C1199 C1207 1.433 . S
C1200 H1196 0.929 . S
C1200 C1202 1.378 . S
C1200 C1204 1.350 . S
C1201 C1204 1.463 . S
C1201 C1206 1.350 . S
C1201 N1209 1.427 . S
C1202 H1193 0.930 . S
C1202 C1200 1.378 . S
C1202 C1203 1.367 . S
C1203 C1202 1.367 . S
C1203 C1205 1.433 1_545 S
C1204 C1200 1.350 . S
C1204 C1201 1.463 . S
C1204 N1208 1.427 . S
C1205 H1195 0.929 . S
C1205 C1203 1.433 1_565 S
C1205 N1208 1.384 1_565 S
C1206 H1197 0.929 . S
C1206 C1198 1.378 . S
C1206 C1201 1.350 . S
C1207 H1194 0.929 . S
C1207 C1199 1.433 . S
C1207 N1209 1.384 . S
N1208 C1204 1.427 . S
N1208 C1205 1.384 1_545 S
N1209 C1201 1.427 . S
N1209 C1207 1.384 . S
H1210 C1216 0.930 . S
H1211 C1220 0.930 . S
H1212 C1225 0.929 . S
H1213 C1223 0.929 . S
H1214 C1218 0.929 . S
H1215 C1224 0.929 . S
C1216 H1210 0.930 . S
C1216 C1217 1.367 . S
C1216 C1224 1.378 . S
C1217 C1216 1.367 . S
C1217 C1225 1.433 1_455 S
C1218 H1214 0.929 . S
C1218 C1220 1.378 . S
C1218 C1222 1.350 . S
C1219 C1222 1.463 . S
C1219 C1224 1.350 . S
C1219 N1227 1.427 . S
C1220 H1211 0.930 . S
C1220 C1218 1.378 . S
C1220 C1221 1.367 . S
C1221 C1220 1.367 . S
C1221 C1223 1.433 . S
C1222 C1218 1.350 . S
C1222 C1219 1.463 . S
C1222 N1226 1.427 . S
C1223 H1213 0.929 . S
C1223 C1221 1.433 . S
C1223 N1226 1.384 . S
C1224 H1215 0.929 . S
C1224 C1216 1.378 . S
C1224 C1219 1.350 . S
C1225 H1212 0.929 . S
C1225 C1217 1.433 1_655 S
C1225 N1227 1.384 1_655 S
N1226 C1222 1.427 . S
N1226 C1223 1.384 . S
N1227 C1219 1.427 . S
N1227 C1225 1.384 1_455 S
H1228 C1234 0.930 . S
H1229 C1238 0.930 . S
H1230 C1243 0.929 . S
H1231 C1241 0.929 . S
H1232 C1236 0.929 . S
H1233 C1242 0.929 1_545 S
C1234 H1228 0.930 . S
C1234 C1235 1.367 1_545 S
C1234 C1242 1.378 1_545 S
C1235 C1234 1.367 1_565 S
C1235 C1243 1.433 . S
C1236 H1232 0.929 . S
C1236 C1238 1.378 . S
C1236 C1240 1.350 . S
C1237 C1240 1.463 . S
C1237 C1242 1.350 . S
C1237 N1245 1.427 . S
C1238 H1229 0.930 . S
C1238 C1236 1.378 . S
C1238 C1239 1.367 . S
C1239 C1238 1.367 . S
C1239 C1241 1.433 . S
C1240 C1236 1.350 . S
C1240 C1237 1.463 . S
C1240 N1244 1.427 . S
C1241 H1231 0.929 . S
C1241 C1239 1.433 . S
C1241 N1244 1.384 . S
C1242 H1233 0.929 1_565 S
C1242 C1234 1.378 1_565 S
C1242 C1237 1.350 . S
C1243 H1230 0.929 . S
C1243 C1235 1.433 . S
C1243 N1245 1.384 . S
N1244 C1240 1.427 . S
N1244 C1241 1.384 . S
N1245 C1237 1.427 . S
N1245 C1243 1.384 . S
H1246 C1252 0.930 . S
H1247 C1256 0.930 . S
H1248 C1261 0.929 . S
H1249 C1259 0.929 . S
H1250 C1254 0.929 . S
H1251 C1260 0.929 . S
C1252 H1246 0.930 . S
C1252 C1253 1.367 . S
C1252 C1260 1.378 . S
C1253 C1252 1.367 . S
C1253 C1261 1.433 1_655 S
C1254 H1250 0.929 . S
C1254 C1256 1.378 . S
C1254 C1258 1.350 . S
C1255 C1258 1.463 . S
C1255 C1260 1.350 . S
C1255 N1263 1.427 . S
C1256 H1247 0.930 . S
C1256 C1254 1.378 . S
C1256 C1257 1.367 . S
C1257 C1256 1.367 . S
C1257 C1259 1.433 . S
C1258 C1254 1.350 . S
C1258 C1255 1.463 . S
C1258 N1262 1.427 . S
C1259 H1249 0.929 . S
C1259 C1257 1.433 . S
C1259 N1262 1.384 . S
C1260 H1251 0.929 . S
C1260 C1252 1.378 . S
C1260 C1255 1.350 . S
C1261 H1248 0.929 . S
C1261 C1253 1.433 1_455 S
C1261 N1263 1.384 1_455 S
N1262 C1258 1.427 . S
N1262 C1259 1.384 . S
N1263 C1255 1.427 . S
N1263 C1261 1.384 1_655 S
C551 C145 1.997 . S
C555 C9 1.998 . S
C569 C43 1.989 . S
C573 C179 1.987 . S
C587 C77 1.980 . S
C591 C213 1.979 . S
C605 C111 1.979 . S
C609 C247 1.979 . S
C623 C281 1.992 . S
C627 C417 1.990 . S
C641 C451 1.980 . S
C645 C315 1.979 . S
C659 C485 1.995 . S
C663 C349 1.996 . S
C677 C383 1.998 . S
C681 C519 1.997 . S
C695 C20 1.174 . S
C699 C496 1.170 . S
C713 C54 1.180 . S
C717 C530 1.185 . S
C731 C88 1.184 . S
C735 C428 1.181 . S
C749 C462 1.185 . S
C753 C122 1.180 . S
C767 C360 1.171 . S
C771 C156 1.172 . S
C785 C190 1.180 . S
C789 C394 1.184 . S
C803 C224 1.178 . S
C807 C292 1.171 . S
C821 C258 1.174 . S
C825 C326 1.170 . S
C839 C2 1.248 . S
C843 C70 1.235 . S
C857 C36 1.252 . S
C861 C104 1.233 . S
C875 C138 1.238 . S
C879 C206 1.250 . S
C893 C172 1.233 . S
C897 C240 1.260 . S
C911 C342 1.248 . S
C915 C274 1.240 . S
C929 C376 1.235 . S
C933 C308 1.247 . S
C947 C410 1.233 . S
C951 C478 1.249 . S
C965 C444 1.233 . S
C969 C512 1.250 . S
C983 C67 0.748 . S
C987 C5 0.758 1_565 S
C1001 C39 0.748 1_655 S
C1005 C101 0.741 . S
C1019 C135 0.746 . S
C1023 C73 0.740 1_545 S
C1037 C107 0.741 1_455 S
C1041 C33 0.753 . S
C1055 C543 0.757 . S
C1059 C141 0.754 . S
C1073 C175 0.759 . S
C1077 C441 0.749 . S
C1091 C209 0.758 . S
C1095 C475 0.754 . S
C1109 C243 0.750 . S
C1113 C509 0.742 . S
C1127 C277 0.758 . S
C1131 C339 0.747 . S
C1145 C373 0.757 . S
C1149 C311 0.748 . S
C1163 C345 0.740 . S
C1167 C407 0.750 . S
C1181 C379 0.744 . S
C1185 C305 0.742 . S
C1199 C271 0.756 . S
C1203 C413 0.756 1_545 S
C1217 C447 0.758 1_455 S
C1221 C169 0.747 . S
C1235 C481 0.743 1_565 S
C1239 C203 0.743 . S
C1253 C515 0.759 1_655 S
C1257 C237 0.751 . S
