# Generated by pormake.
# Topology zfv, (5)-cn, num edge types: 1
# Building blocks:
#     Node 0, Type 0, BuildingBlock: XOMCOT_clean_sbu_1, # of connection points: 5
#     Node 1, Type 0, BuildingBlock: XOMCOT_clean_sbu_1, # of connection points: 5
#     Node 2, Type 0, BuildingBlock: XOMCOT_clean_sbu_1, # of connection points: 5
#     Node 3, Type 0, BuildingBlock: XOMCOT_clean_sbu_1, # of connection points: 5
#     Node 4, Type 0, BuildingBlock: XOMCOT_clean_sbu_1, # of connection points: 5
#     Node 5, Type 0, BuildingBlock: XOMCOT_clean_sbu_1, # of connection points: 5
#     Node 6, Type 0, BuildingBlock: XOMCOT_clean_sbu_1, # of connection points: 5
#     Node 7, Type 0, BuildingBlock: XOMCOT_clean_sbu_1, # of connection points: 5
#     Node 8, Type 0, BuildingBlock: XOMCOT_clean_sbu_1, # of connection points: 5
#     Node 9, Type 0, BuildingBlock: XOMCOT_clean_sbu_1, # of connection points: 5
#     Node 10, Type 0, BuildingBlock: XOMCOT_clean_sbu_1, # of connection points: 5
#     Node 11, Type 0, BuildingBlock: XOMCOT_clean_sbu_1, # of connection points: 5
#     Node 12, Type 0, BuildingBlock: XOMCOT_clean_sbu_1, # of connection points: 5
#     Node 13, Type 0, BuildingBlock: XOMCOT_clean_sbu_1, # of connection points: 5
#     Node 14, Type 0, BuildingBlock: XOMCOT_clean_sbu_1, # of connection points: 5
#     Node 15, Type 0, BuildingBlock: XOMCOT_clean_sbu_1, # of connection points: 5
#     Edge 16, Type (0, 0), BuildingBlock: AJUNOK_clean_linker_0, # of connection points: 2
#     Edge 17, Type (0, 0), BuildingBlock: AJUNOK_clean_linker_0, # of connection points: 2
#     Edge 18, Type (0, 0), BuildingBlock: AJUNOK_clean_linker_0, # of connection points: 2
#     Edge 19, Type (0, 0), BuildingBlock: AJUNOK_clean_linker_0, # of connection points: 2
#     Edge 20, Type (0, 0), BuildingBlock: AJUNOK_clean_linker_0, # of connection points: 2
#     Edge 21, Type (0, 0), BuildingBlock: AJUNOK_clean_linker_0, # of connection points: 2
#     Edge 22, Type (0, 0), BuildingBlock: AJUNOK_clean_linker_0, # of connection points: 2
#     Edge 23, Type (0, 0), BuildingBlock: AJUNOK_clean_linker_0, # of connection points: 2
#     Edge 24, Type (0, 0), BuildingBlock: AJUNOK_clean_linker_0, # of connection points: 2
#     Edge 25, Type (0, 0), BuildingBlock: AJUNOK_clean_linker_0, # of connection points: 2
#     Edge 26, Type (0, 0), BuildingBlock: AJUNOK_clean_linker_0, # of connection points: 2
#     Edge 27, Type (0, 0), BuildingBlock: AJUNOK_clean_linker_0, # of connection points: 2
#     Edge 28, Type (0, 0), BuildingBlock: AJUNOK_clean_linker_0, # of connection points: 2
#     Edge 29, Type (0, 0), BuildingBlock: AJUNOK_clean_linker_0, # of connection points: 2
#     Edge 30, Type (0, 0), BuildingBlock: AJUNOK_clean_linker_0, # of connection points: 2
#     Edge 31, Type (0, 0), BuildingBlock: AJUNOK_clean_linker_0, # of connection points: 2
#     Edge 32, Type (0, 0), BuildingBlock: AJUNOK_clean_linker_0, # of connection points: 2
#     Edge 33, Type (0, 0), BuildingBlock: AJUNOK_clean_linker_0, # of connection points: 2
#     Edge 34, Type (0, 0), BuildingBlock: AJUNOK_clean_linker_0, # of connection points: 2
#     Edge 35, Type (0, 0), BuildingBlock: AJUNOK_clean_linker_0, # of connection points: 2
#     Edge 36, Type (0, 0), BuildingBlock: AJUNOK_clean_linker_0, # of connection points: 2
#     Edge 37, Type (0, 0), BuildingBlock: AJUNOK_clean_linker_0, # of connection points: 2
#     Edge 38, Type (0, 0), BuildingBlock: AJUNOK_clean_linker_0, # of connection points: 2
#     Edge 39, Type (0, 0), BuildingBlock: AJUNOK_clean_linker_0, # of connection points: 2
#     Edge 40, Type (0, 0), BuildingBlock: AJUNOK_clean_linker_0, # of connection points: 2
#     Edge 41, Type (0, 0), BuildingBlock: AJUNOK_clean_linker_0, # of connection points: 2
#     Edge 42, Type (0, 0), BuildingBlock: AJUNOK_clean_linker_0, # of connection points: 2
#     Edge 43, Type (0, 0), BuildingBlock: AJUNOK_clean_linker_0, # of connection points: 2
#     Edge 44, Type (0, 0), BuildingBlock: AJUNOK_clean_linker_0, # of connection points: 2
#     Edge 45, Type (0, 0), BuildingBlock: AJUNOK_clean_linker_0, # of connection points: 2
#     Edge 46, Type (0, 0), BuildingBlock: AJUNOK_clean_linker_0, # of connection points: 2
#     Edge 47, Type (0, 0), BuildingBlock: AJUNOK_clean_linker_0, # of connection points: 2
#     Edge 48, Type (0, 0), BuildingBlock: AJUNOK_clean_linker_0, # of connection points: 2
#     Edge 49, Type (0, 0), BuildingBlock: AJUNOK_clean_linker_0, # of connection points: 2
#     Edge 50, Type (0, 0), BuildingBlock: AJUNOK_clean_linker_0, # of connection points: 2
#     Edge 51, Type (0, 0), BuildingBlock: AJUNOK_clean_linker_0, # of connection points: 2
#     Edge 52, Type (0, 0), BuildingBlock: AJUNOK_clean_linker_0, # of connection points: 2
#     Edge 53, Type (0, 0), BuildingBlock: AJUNOK_clean_linker_0, # of connection points: 2
#     Edge 54, Type (0, 0), BuildingBlock: AJUNOK_clean_linker_0, # of connection points: 2
#     Edge 55, Type (0, 0), BuildingBlock: AJUNOK_clean_linker_0, # of connection points: 2
# Relax obj value: 0.101
# Max RMSD: 0.109
# Mean RMSD: 0.109
data_MOF--net-zfv--node1-XOMCOT_clean_sbu_1--edge1-AJUNOK_clean_linker_0
_symmetry_space_group_name_H-M    P1
_symmetry_Int_Tables_number       1
_symmetry_cell_setting            triclinic
loop_
_symmetry_equiv_pos_as_xyz
'x, y, z'
_cell_length_a     58.180201
_cell_length_b     58.060524
_cell_length_c     13.567485
_cell_angle_alpha  90.259961
_cell_angle_beta   90.102651
_cell_angle_gamma 89.990199
loop_
_atom_site_label
_atom_site_type_symbol
_atom_site_fract_x
_atom_site_fract_y
_atom_site_fract_z
_atom_type_partial_charge
C0 C 0.04981 0.5852 0.2899 0.0
C1 C 0.04845 0.58194 0.38987 0.0
N2 N 0.06974 0.57818 0.42497 0.0
N3 N 0.07198 0.58432 0.26117 0.0
C4 C 0.08357 0.57885 0.34476 0.0
H5 H 0.03563 0.58968 0.24203 0.0
Co6 Co 0.08001 0.59227 0.13028 0.0
C7 C 0.1233 0.61389 0.23569 0.0
O8 O 0.11663 0.61352 0.32795 0.0
N9 N 0.08691 0.59983 0.99758 0.0
C10 C 0.09867 0.61978 0.8674 0.0
C11 C 0.0974 0.61935 0.96842 0.0
C12 C 0.08138 0.58894 0.91188 0.0
N13 N 0.08828 0.60079 0.83118 0.0
O14 O 0.09428 0.56263 0.11347 0.0
H15 H 0.1034 0.63278 1.01756 0.0
H16 H 0.07168 0.57311 0.90825 0.0
O17 O 0.10997 0.60631 0.1675 0.0
C18 C 0.07963 0.54775 0.08461 0.0
O19 O 0.05815 0.55423 0.07322 0.0
N20 N 0.06447 0.62072 0.14527 0.0
C21 C 0.0352 0.65841 0.17398 0.0
C22 C 0.05431 0.655 0.23528 0.0
C23 C 0.06869 0.63604 0.2198 0.0
C24 C 0.04604 0.62385 0.08446 0.0
C25 C 0.03129 0.64265 0.09705 0.0
H26 H 0.08228 0.63308 0.27165 0.0
H27 H 0.04228 0.61123 0.02781 0.0
H28 H 0.10192 0.57622 0.34821 0.0
H29 H 0.03328 0.5844 0.43481 0.0
H30 H 0.10674 0.63316 0.82443 0.0
H31 H 0.05752 0.66623 0.29776 0.0
H32 H 0.01665 0.64453 0.04834 0.0
C33 C 0.73625 0.74937 0.47064 0.0
C34 C 0.73818 0.74805 0.57174 0.0
N35 N 0.727 0.76612 0.61162 0.0
N36 N 0.72382 0.76812 0.44647 0.0
C37 C 0.71842 0.77791 0.53412 0.0
H38 H 0.74291 0.73703 0.41805 0.0
Co39 Co 0.71511 0.77533 0.31693 0.0
C40 C 0.70081 0.82458 0.32948 0.0
O41 O 0.71343 0.82995 0.25275 0.0
N42 N 0.70654 0.78168 0.18517 0.0
C43 C 0.68702 0.79264 0.05167 0.0
C44 C 0.68697 0.7918 0.15316 0.0
C45 C 0.71774 0.77575 0.10127 0.0
N46 N 0.70638 0.78249 1.01962 0.0
O47 O 0.74389 0.79101 0.3 0.0
H48 H 0.67331 0.7979 0.20051 0.0
H49 H 0.73377 0.76641 0.0991 0.0
O50 O 0.70058 0.8039 0.36132 0.0
C51 C 0.76046 0.77874 0.26832 0.0
O52 O 0.75675 0.75698 0.24691 0.0
N53 N 0.68775 0.75887 0.33478 0.0
C54 C 0.65118 0.72896 0.36965 0.0
C55 C 0.65275 0.75003 0.42005 0.0
C56 C 0.67116 0.76481 0.40143 0.0
C57 C 0.68639 0.73858 0.28431 0.0
C58 C 0.66813 0.7234 0.30012 0.0
H59 H 0.6724 0.78058 0.44355 0.0
H60 H 0.69994 0.73386 0.23357 0.0
H61 H 0.70732 0.79258 0.54159 0.0
H62 H 0.74679 0.73462 0.61281 0.0
H63 H 0.67362 0.79956 1.0049 0.0
H64 H 0.64003 0.75484 0.47462 0.0
H65 H 0.66776 0.70709 0.26113 0.0
C66 C 0.55593 0.42862 0.70152 0.0
C67 C 0.55821 0.42882 0.80229 0.0
N68 N 0.54347 0.41327 0.84019 0.0
N69 N 0.53959 0.41335 0.67582 0.0
C70 C 0.5323 0.40422 0.76156 0.0
H71 H 0.56491 0.4396 0.65017 0.0
Co72 Co 0.52992 0.40952 0.54737 0.0
C73 C 0.49096 0.37713 0.54815 0.0
O74 O 0.50022 0.3676 0.46961 0.0
N75 N 0.52029 0.40684 0.41478 0.0
C76 C 0.49892 0.41323 0.28157 0.0
C77 C 0.49944 0.4138 0.38251 0.0
C78 C 0.53212 0.4021 0.33134 0.0
N79 N 0.51958 0.40607 0.24905 0.0
O80 O 0.51501 0.43909 0.55631 0.0
H81 H 0.48573 0.41991 0.42958 0.0
H82 H 0.54971 0.39637 0.33057 0.0
O83 O 0.50128 0.39402 0.59046 0.0
C84 C 0.52322 0.45554 0.50528 0.0
O85 O 0.53972 0.45115 0.44197 0.0
N86 N 0.54674 0.38163 0.54256 0.0
C87 C 0.57951 0.34661 0.56367 0.0
C88 C 0.5578 0.34474 0.60742 0.0
C89 C 0.54184 0.36254 0.59747 0.0
C90 C 0.56802 0.38396 0.5017 0.0
C91 C 0.58452 0.36654 0.50987 0.0
H92 H 0.52631 0.36143 0.64023 0.0
H93 H 0.57268 0.40002 0.46695 0.0
H94 H 0.51885 0.39145 0.76647 0.0
H95 H 0.56899 0.4405 0.84404 0.0
H96 H 0.48481 0.41891 0.23563 0.0
H97 H 0.55363 0.33024 0.6541 0.0
H98 H 0.6013 0.36899 0.47708 0.0
C99 C 0.88878 0.25702 0.94279 0.0
C100 C 0.88715 0.25863 0.04377 0.0
N101 N 0.89125 0.23764 0.08214 0.0
N102 N 0.89414 0.23522 0.91759 0.0
C103 C 0.8953 0.22375 1.00386 0.0
H104 H 0.88705 0.27102 0.89096 0.0
Co105 Co 0.89999 0.22571 0.78909 0.0
C106 C 0.93491 0.18944 0.80487 0.0
O107 O 0.94583 0.20072 0.73537 0.0
N108 N 0.90447 0.21605 0.65589 0.0
C109 C 0.90343 0.19286 0.52397 0.0
C110 C 0.90375 0.19382 0.62499 0.0
C111 C 0.90314 0.22821 0.57089 0.0
N112 N 0.90284 0.21451 0.4901 0.0
O113 O 0.87059 0.21064 0.78674 0.0
H114 H 0.902 0.17907 0.67266 0.0
H115 H 0.90072 0.2466 0.56748 0.0
O116 O 0.91558 0.19722 0.83629 0.0
C117 C 0.85563 0.22241 0.74028 0.0
O118 O 0.86208 0.24174 0.69864 0.0
N119 N 0.92821 0.24262 0.79443 0.0
C120 C 0.9648 0.27347 0.82663 0.0
C121 C 0.96114 0.25476 0.88966 0.0
C122 C 0.94293 0.23962 0.87231 0.0
C123 C 0.93098 0.26125 0.73474 0.0
C124 C 0.94945 0.27645 0.74766 0.0
H125 H 0.93996 0.22622 0.92566 0.0
H126 H 0.91813 0.26547 0.68091 0.0
H127 H 0.89954 0.20569 1.00956 0.0
H128 H 0.88431 0.27428 0.08561 0.0
H129 H 0.90209 0.17746 0.47896 0.0
H130 H 0.97144 0.25239 0.9553 0.0
H131 H 0.95112 0.29094 0.69822 0.0
C132 C 0.05463 0.42253 0.83236 0.0
C133 C 0.05445 0.42357 0.73116 0.0
N134 N 0.07505 0.41643 0.69746 0.0
N135 N 0.07528 0.41488 0.86296 0.0
C136 C 0.08748 0.41168 0.77935 0.0
H137 H 0.04014 0.42571 0.88032 0.0
Co138 Co 0.08129 0.40567 0.99185 0.0
C139 C 0.12988 0.3917 0.99212 0.0
O140 O 0.13306 0.4032 0.07455 0.0
N141 N 0.08665 0.39605 0.12216 0.0
C142 C 0.09247 0.37316 0.25058 0.0
C143 C 0.09116 0.37421 0.1498 0.0
C144 C 0.08551 0.40799 0.20791 0.0
N145 N 0.0892 0.3945 0.28767 0.0
O146 O 0.09654 0.43459 1.01642 0.0
H147 H 0.09284 0.35975 0.09985 0.0
H148 H 0.08178 0.4262 0.21203 0.0
O149 O 0.11012 0.39136 0.95106 0.0
C150 C 0.08186 0.45015 0.0372 0.0
O151 O 0.06014 0.44429 0.04511 0.0
N152 N 0.0646 0.3787 0.9668 0.0
C153 C 0.03365 0.34342 0.92338 0.0
C154 C 0.0558 0.34337 0.88241 0.0
C155 C 0.07103 0.36135 0.90435 0.0
C156 C 0.04326 0.3789 1.00787 0.0
C157 C 0.02748 0.36144 0.98708 0.0
H158 H 0.08761 0.3616 0.86875 0.0
H159 H 0.0383 0.3931 0.05521 0.0
H160 H 0.10487 0.40527 0.77866 0.0
H161 H 0.03973 0.4278 0.68579 0.0
H162 H 0.09452 0.35753 0.29259 0.0
H163 H 0.061 0.32996 0.83137 0.0
H164 H 0.01054 0.36209 1.01991 0.0
C165 C 0.89629 0.74633 0.11259 0.0
C166 C 0.8965 0.74483 1.01136 0.0
N167 N 0.90043 0.76602 0.97489 0.0
N168 N 0.9001 0.76834 0.13976 0.0
C169 C 0.90219 0.78 0.05444 0.0
H170 H 0.89403 0.73222 0.16343 0.0
Co171 Co 0.90307 0.77832 0.26889 0.0
C172 C 0.93601 0.81674 0.26571 0.0
O173 O 0.94583 0.80691 0.3421 0.0
N174 N 0.90517 0.78845 0.40191 0.0
C175 C 0.90146 0.81174 0.53231 0.0
C176 C 0.90065 0.81031 0.43136 0.0
C177 C 0.90768 0.77675 0.48744 0.0
N178 N 0.90586 0.7906 0.56715 0.0
O179 O 0.87341 0.79278 0.25889 0.0
H180 H 0.89628 0.82429 0.38237 0.0
H181 H 0.90982 0.75836 0.49273 0.0
O182 O 0.91846 0.80708 0.2258 0.0
C183 C 0.85743 0.78381 0.31013 0.0
O184 O 0.86239 0.76674 0.36967 0.0
N185 N 0.93133 0.762 0.27519 0.0
C186 C 0.96732 0.73014 0.25621 0.0
C187 C 0.96755 0.75083 0.20349 0.0
C188 C 0.94924 0.76628 0.21244 0.0
C189 C 0.93054 0.7416 0.32445 0.0
C190 C 0.94852 0.72568 0.31778 0.0
H191 H 0.94881 0.78076 0.16298 0.0
H192 H 0.91508 0.73671 0.36289 0.0
H193 H 0.90476 0.79839 0.05077 0.0
H194 H 0.89447 0.72926 0.96803 0.0
H195 H 0.89791 0.82683 0.57691 0.0
H196 H 0.981 0.7544 0.15066 0.0
H197 H 0.9472 0.70954 0.35711 0.0
C198 C 0.55508 0.57063 0.37317 0.0
C199 C 0.556 0.56925 0.27185 0.0
N200 N 0.54345 0.58663 0.23443 0.0
N201 N 0.54184 0.58868 0.39974 0.0
C202 C 0.53532 0.59828 0.31334 0.0
H203 H 0.56362 0.5592 0.42405 0.0
Co204 Co 0.53477 0.59755 0.52908 0.0
C205 C 0.48567 0.61144 0.50852 0.0
O206 O 0.47918 0.5988 0.58353 0.0
N207 N 0.52813 0.60662 0.65986 0.0
C208 C 0.51769 0.62734 0.79099 0.0
C209 C 0.51812 0.62646 0.68957 0.0
C210 C 0.53405 0.59602 0.74493 0.0
N211 N 0.52763 0.60808 0.82588 0.0
O212 O 0.51867 0.56885 0.54588 0.0
H213 H 0.51191 0.63975 0.64069 0.0
H214 H 0.54383 0.58028 0.74805 0.0
O215 O 0.50673 0.61177 0.48252 0.0
C216 C 0.52964 0.55174 0.58092 0.0
O217 O 0.55102 0.55459 0.60949 0.0
N218 N 0.55158 0.62476 0.51116 0.0
C219 C 0.58224 0.66047 0.47202 0.0
C220 C 0.55921 0.66201 0.44233 0.0
C221 C 0.54409 0.64396 0.46266 0.0
C222 C 0.5737 0.62333 0.54355 0.0
C223 C 0.58933 0.64107 0.52526 0.0
H224 H 0.52665 0.64536 0.43641 0.0
H225 H 0.57938 0.60795 0.5812 0.0
H226 H 0.52475 0.61349 0.30791 0.0
H227 H 0.56546 0.55664 0.2291 0.0
H228 H 0.51071 0.64116 0.83558 0.0
H229 H 0.55303 0.6769 0.40243 0.0
H230 H 0.607 0.63927 0.54936 0.0
C231 C 0.73469 0.25502 0.558 0.0
C232 C 0.73699 0.25557 0.45693 0.0
N233 N 0.72579 0.2373 0.41897 0.0
N234 N 0.72216 0.23645 0.58364 0.0
C235 C 0.71712 0.22593 0.49703 0.0
H236 H 0.74102 0.26783 0.60933 0.0
Co237 Co 0.71297 0.22972 0.71273 0.0
C238 C 0.69726 0.18095 0.69077 0.0
O239 O 0.71118 0.17356 0.76006 0.0
N240 N 0.70402 0.22339 0.84327 0.0
C241 C 0.68477 0.21176 0.97529 0.0
C242 C 0.68476 0.21273 0.87409 0.0
C243 C 0.71506 0.2294 0.92746 0.0
N244 N 0.7039 0.22226 1.00944 0.0
O245 O 0.74116 0.21291 0.73081 0.0
H246 H 0.67132 0.20626 0.82626 0.0
H247 H 0.73049 0.23967 0.92827 0.0
O248 O 0.69725 0.20221 0.66734 0.0
C249 C 0.75805 0.22526 0.75899 0.0
O250 O 0.7546 0.24723 0.77679 0.0
N251 N 0.68611 0.24733 0.69363 0.0
C252 C 0.6501 0.27807 0.65492 0.0
C253 C 0.6534 0.25837 0.59634 0.0
C254 C 0.67119 0.24307 0.61787 0.0
C255 C 0.68338 0.26642 0.75125 0.0
C256 C 0.6653 0.28184 0.73411 0.0
H257 H 0.67344 0.22835 0.57031 0.0
H258 H 0.69556 0.26997 0.80968 0.0
H259 H 0.70669 0.21061 0.49032 0.0
H260 H 0.7452 0.26897 0.41437 0.0
H261 H 0.67157 0.2039 1.02001 0.0
H262 H 0.64293 0.25509 0.53184 0.0
H263 H 0.6635 0.29676 0.78162 0.0
C264 C 0.37173 0.25766 0.57182 0.0
C265 C 0.37047 0.25651 0.47064 0.0
N266 N 0.38842 0.26817 0.43294 0.0
N267 N 0.39016 0.27032 0.59852 0.0
C268 C 0.39996 0.27648 0.51208 0.0
H269 H 0.35993 0.24959 0.62237 0.0
Co270 Co 0.39973 0.27634 0.72821 0.0
C271 C 0.41513 0.32509 0.71493 0.0
O272 O 0.40268 0.33132 0.79122 0.0
N273 N 0.40948 0.28192 0.85904 0.0
C274 C 0.43077 0.29136 0.98998 0.0
C275 C 0.42974 0.29108 0.88854 0.0
C276 C 0.3988 0.2763 0.94417 0.0
N277 N 0.41134 0.28187 1.02472 0.0
O278 O 0.37154 0.29307 0.75069 0.0
H279 H 0.44315 0.29687 0.83945 0.0
H280 H 0.38218 0.26817 0.94795 0.0
O281 O 0.41468 0.30426 0.68468 0.0
C282 C 0.35489 0.28146 0.78569 0.0
O283 O 0.35805 0.2596 0.80613 0.0
N284 N 0.42634 0.25876 0.70583 0.0
C285 C 0.46191 0.22762 0.66753 0.0
C286 C 0.4632 0.25046 0.63463 0.0
C287 C 0.44534 0.26583 0.6551 0.0
C288 C 0.42481 0.23672 0.73901 0.0
C289 C 0.44242 0.22085 0.72092 0.0
H290 H 0.44673 0.28314 0.62732 0.0
H291 H 0.40959 0.23134 0.77845 0.0
H292 H 0.4156 0.28638 0.50693 0.0
H293 H 0.35714 0.24798 0.4285 0.0
H294 H 0.44496 0.29745 0.03473 0.0
H295 H 0.47758 0.25631 0.59086 0.0
H296 H 0.44072 0.20342 0.74797 0.0
C297 C 0.22199 0.75542 0.07854 0.0
C298 C 0.22523 0.75676 0.9786 0.0
N299 N 0.22847 0.73535 0.94311 0.0
N300 N 0.22228 0.73316 0.10662 0.0
C301 C 0.22734 0.72142 1.02272 0.0
H302 H 0.21818 0.76974 0.127 0.0
Co303 Co 0.21497 0.72506 0.23763 0.0
C304 C 0.19091 0.68297 0.1324 0.0
O305 O 0.19096 0.68981 0.04041 0.0
N306 N 0.20809 0.71797 0.37047 0.0
C307 C 0.18736 0.70916 0.50265 0.0
C308 C 0.18741 0.71052 0.40176 0.0
C309 C 0.22028 0.72138 0.45479 0.0
N310 N 0.20803 0.71605 0.5365 0.0
O311 O 0.24367 0.70917 0.24721 0.0
H312 H 0.17273 0.70756 0.35441 0.0
H313 H 0.23723 0.72894 0.45693 0.0
O314 O 0.19929 0.69593 0.20029 0.0
C315 C 0.25995 0.7223 0.27532 0.0
O316 O 0.25541 0.74395 0.29582 0.0
N317 N 0.18746 0.74219 0.22854 0.0
C318 C 0.15159 0.77376 0.20697 0.0
C319 C 0.15298 0.75427 0.14602 0.0
C320 C 0.17108 0.7387 0.15788 0.0
C321 C 0.18624 0.76095 0.28925 0.0
C322 C 0.16835 0.77688 0.28022 0.0
H323 H 0.17246 0.72465 0.10661 0.0
H324 H 0.19975 0.76404 0.34258 0.0
H325 H 0.22932 0.70294 1.01876 0.0
H326 H 0.22345 0.77209 0.93408 0.0
H327 H 0.17287 0.70429 0.5479 0.0
H328 H 0.1405 0.75139 0.08792 0.0
H329 H 0.16823 0.79201 0.32717 0.0
C330 C 0.23914 0.25787 0.99024 0.0
C331 C 0.24082 0.25749 0.09146 0.0
N332 N 0.22479 0.2718 0.12851 0.0
N333 N 0.2223 0.27256 0.96349 0.0
C334 C 0.21368 0.28055 0.04969 0.0
H335 H 0.24942 0.24785 0.93957 0.0
Co336 Co 0.21346 0.27905 0.83413 0.0
C337 C 0.19907 0.32763 0.84833 0.0
O338 O 0.2134 0.33281 0.77706 0.0
N339 N 0.20436 0.28517 0.70327 0.0
C340 C 0.18352 0.29546 0.5729 0.0
C341 C 0.18423 0.29454 0.67408 0.0
C342 C 0.21528 0.27997 0.61801 0.0
N343 N 0.20314 0.28634 0.53745 0.0
O344 O 0.24177 0.29581 0.8167 0.0
H345 H 0.17068 0.30011 0.7232 0.0
H346 H 0.23134 0.27078 0.61459 0.0
O347 O 0.19781 0.30691 0.87892 0.0
C348 C 0.25826 0.28368 0.7829 0.0
O349 O 0.25446 0.262 0.76039 0.0
N350 N 0.18717 0.2611 0.85099 0.0
C351 C 0.15239 0.22859 0.87534 0.0
C352 C 0.15004 0.25096 0.91397 0.0
C353 C 0.16771 0.26703 0.90121 0.0
C354 C 0.18969 0.23954 0.81264 0.0
C355 C 0.17251 0.22299 0.82395 0.0
H356 H 0.16582 0.28393 0.9336 0.0
H357 H 0.20536 0.23512 0.77417 0.0
H358 H 0.19949 0.2925 0.05511 0.0
H359 H 0.25249 0.24704 0.13451 0.0
H360 H 0.16956 0.30223 0.5289 0.0
H361 H 0.13496 0.25581 0.95587 0.0
H362 H 0.17498 0.20595 0.79297 0.0
C363 C 0.38188 0.75053 0.47237 0.0
C364 C 0.38142 0.7528 0.57326 0.0
N365 N 0.3971 0.73829 0.61204 0.0
N366 N 0.3975 0.73446 0.44742 0.0
C367 C 0.40645 0.72726 0.53381 0.0
H368 H 0.371 0.75947 0.42038 0.0
Co369 Co 0.40247 0.72493 0.319 0.0
C370 C 0.43375 0.68519 0.32603 0.0
O371 O 0.44424 0.69441 0.25003 0.0
N372 N 0.40624 0.71538 0.18647 0.0
C373 C 0.39992 0.69394 0.05278 0.0
C374 C 0.39952 0.69441 0.15363 0.0
C375 C 0.41053 0.72739 0.10318 0.0
N376 N 0.40662 0.71477 1.02067 0.0
O377 O 0.3724 0.71097 0.319 0.0
H378 H 0.39341 0.68065 0.20022 0.0
H379 H 0.41557 0.74522 0.10257 0.0
O380 O 0.41657 0.69573 0.36455 0.0
C381 C 0.35754 0.72078 0.2642 0.0
O382 O 0.36378 0.7386 0.21123 0.0
N383 N 0.43098 0.74081 0.32145 0.0
C384 C 0.46716 0.77216 0.3494 0.0
C385 C 0.46731 0.75065 0.39588 0.0
C386 C 0.44908 0.73535 0.38163 0.0
C387 C 0.43025 0.76192 0.27797 0.0
C388 C 0.44834 0.77761 0.28895 0.0
H389 H 0.44906 0.71988 0.42503 0.0
H390 H 0.41493 0.76721 0.23901 0.0
H391 H 0.4194 0.714 0.53949 0.0
H392 H 0.36959 0.76351 0.61433 0.0
H393 H 0.39424 0.67979 1.00659 0.0
H394 H 0.48072 0.74612 0.44772 0.0
H395 H 0.44715 0.79421 0.25324 0.0
C396 C 0.55041 0.08563 0.67857 0.0
C397 C 0.54892 0.08537 0.77983 0.0
N398 N 0.56985 0.09023 0.8172 0.0
N399 N 0.57215 0.09064 0.65236 0.0
C400 C 0.58371 0.09284 0.73822 0.0
H401 H 0.53636 0.08332 0.62715 0.0
Co402 Co 0.58151 0.09616 0.52394 0.0
C403 C 0.61799 0.13096 0.53754 0.0
O404 O 0.60663 0.14181 0.46789 0.0
N405 N 0.59109 0.1006 0.39118 0.0
C406 C 0.61443 0.09957 0.26065 0.0
C407 C 0.61324 0.09873 0.36146 0.0
C408 C 0.57908 0.10124 0.30545 0.0
N409 N 0.59292 0.10113 0.22564 0.0
O410 O 0.5968 0.06678 0.52319 0.0
H411 H 0.62769 0.09564 0.40981 0.0
H412 H 0.56062 0.10016 0.30012 0.0
O413 O 0.61002 0.11187 0.5706 0.0
C414 C 0.58801 0.05117 0.4685 0.0
O415 O 0.57021 0.0563 0.41315 0.0
N416 N 0.56453 0.12434 0.5287 0.0
C417 C 0.53297 0.16015 0.56476 0.0
C418 C 0.55246 0.15727 0.62441 0.0
C419 C 0.56795 0.13949 0.60507 0.0
C420 C 0.54517 0.12627 0.47253 0.0
C421 C 0.52962 0.14439 0.48709 0.0
H422 H 0.58186 0.13704 0.65668 0.0
H423 H 0.54065 0.11288 0.42109 0.0
H424 H 0.60182 0.09673 0.7427 0.0
H425 H 0.53345 0.08281 0.82257 0.0
H426 H 0.62975 0.0976 0.21624 0.0
H427 H 0.5552 0.16777 0.68944 0.0
H428 H 0.51455 0.1454 0.44034 0.0
C429 C 0.05472 0.93615 0.233 0.0
C430 C 0.0558 0.93694 0.3345 0.0
N431 N 0.04453 0.91853 0.37009 0.0
N432 N 0.04244 0.91756 0.20452 0.0
C433 C 0.03661 0.90714 0.28993 0.0
H434 H 0.06253 0.94836 0.18343 0.0
Co435 Co 0.03584 0.90825 0.0748 0.0
C436 C 0.98688 0.89333 0.09656 0.0
O437 O 0.97966 0.90646 1.02421 0.0
N438 N 0.02965 0.89865 0.944 0.0
C439 C 0.01938 0.8772 0.81461 0.0
C440 C 0.01937 0.87882 0.91579 0.0
C441 C 0.03617 0.90851 0.8581 0.0
N442 N 0.03015 0.89583 0.77822 0.0
O443 O 0.01927 0.93662 0.05504 0.0
H444 H 0.0126 0.86602 0.96552 0.0
H445 H 0.04587 0.9243 0.85347 0.0
O446 O 0.00808 0.89341 0.12066 0.0
C447 C 0.03089 0.95315 1.01899 0.0
O448 O 0.05245 0.94957 0.99498 0.0
N449 N 0.05324 0.88144 0.0945 0.0
C450 C 0.08421 0.84569 0.12906 0.0
C451 C 0.06113 0.84363 0.15705 0.0
C452 C 0.04586 0.86169 0.13894 0.0
C453 C 0.07548 0.88353 0.06484 0.0
C454 C 0.09127 0.86579 0.08088 0.0
H455 H 0.02831 0.85969 0.16254 0.0
H456 H 0.08106 0.8993 0.03008 0.0
H457 H 0.02667 0.89151 0.29356 0.0
H458 H 0.06453 0.94983 0.37868 0.0
H459 H 0.01187 0.86339 0.77146 0.0
H460 H 0.05495 0.82819 0.19284 0.0
H461 H 0.10897 0.868 0.05811 0.0
C462 C 0.55129 0.91514 0.31252 0.0
C463 C 0.5499 0.91501 0.21131 0.0
N464 N 0.57113 0.91142 0.17477 0.0
N465 N 0.57328 0.9116 0.33957 0.0
C466 C 0.58505 0.90983 0.25431 0.0
H467 H 0.5371 0.9169 0.3634 0.0
Co468 Co 0.58296 0.90775 0.46827 0.0
C469 C 0.62084 0.87465 0.46299 0.0
O470 O 0.60995 0.864 0.53433 0.0
N471 N 0.59288 0.90486 0.60124 0.0
C472 C 0.61628 0.90802 0.73125 0.0
C473 C 0.61479 0.90891 0.63049 0.0
C474 C 0.5812 0.90263 0.68701 0.0
N475 N 0.59512 0.90408 0.76649 0.0
O476 O 0.59729 0.93759 0.46326 0.0
H477 H 0.62879 0.91323 0.58162 0.0
H478 H 0.56279 0.90121 0.6927 0.0
O479 O 0.6119 0.89268 0.42427 0.0
C480 C 0.58866 0.9535 0.51673 0.0
O481 O 0.57173 0.94847 0.5768 0.0
N482 N 0.5669 0.87916 0.46915 0.0
C483 C 0.53632 0.84223 0.44228 0.0
C484 C 0.55635 0.84398 0.38565 0.0
C485 C 0.5712 0.86259 0.39934 0.0
C486 C 0.54699 0.87823 0.52189 0.0
C487 C 0.53181 0.85966 0.51165 0.0
H488 H 0.58532 0.86438 0.34847 0.0
H489 H 0.54181 0.89274 0.56636 0.0
H490 H 0.60344 0.90731 0.25087 0.0
H491 H 0.53434 0.91664 0.16805 0.0
H492 H 0.63143 0.91137 0.77549 0.0
H493 H 0.5599 0.83185 0.32676 0.0
H494 H 0.51616 0.85952 0.55472 0.0
C495 C 0.0588 0.07284 0.83234 0.0
C496 C 0.05937 0.07092 0.73088 0.0
N497 N 0.04134 0.08257 0.69411 0.0
N498 N 0.04044 0.08559 0.85932 0.0
C499 C 0.03 0.09098 0.77315 0.0
H500 H 0.07147 0.06613 0.88303 0.0
Co501 Co 0.03355 0.09483 0.98912 0.0
C502 C 0.98516 0.11108 0.96432 0.0
O503 O 0.97736 0.09696 0.03185 0.0
N504 N 0.02692 0.10391 0.12029 0.0
C505 C 0.01563 0.12445 0.25031 0.0
C506 C 0.01636 0.1235 0.14921 0.0
C507 C 0.03298 0.09355 0.20589 0.0
N508 N 0.02643 0.10575 0.28649 0.0
O509 O 0.01647 0.06682 1.00532 0.0
H510 H 0.0099 0.13661 0.10013 0.0
H511 H 0.04274 0.07775 0.20938 0.0
O512 O 0.0065 0.11108 0.94282 0.0
C513 C 0.02881 0.05019 0.03589 0.0
O514 O 0.05054 0.05402 0.05634 0.0
N515 N 0.0516 0.12148 0.97246 0.0
C516 C 0.08269 0.1577 0.94303 0.0
C517 C 0.064 0.15423 0.87891 0.0
C518 C 0.0484 0.13643 0.89627 0.0
C519 C 0.06983 0.12421 0.03465 0.0
C520 C 0.08525 0.14246 1.02262 0.0
H521 H 0.03425 0.13426 0.84579 0.0
H522 H 0.0726 0.11201 0.09347 0.0
H523 H 0.01484 0.10161 0.76738 0.0
H524 H 0.07268 0.06275 0.68736 0.0
H525 H 0.00753 0.13791 0.29319 0.0
H526 H 0.06168 0.16459 0.81363 0.0
H527 H 0.09925 0.14435 0.0747 0.0
C528 C 0.08374 0.572 0.69544 0.0
C529 C 0.08433 0.59514 0.72807 0.0
C530 C 0.07979 0.56634 0.59542 0.0
C531 C 0.07642 0.58364 0.52473 0.0
H532 H 0.08638 0.55818 0.74753 0.0
H533 H 0.07898 0.54841 0.57344 0.0
S534 S 0.07475 0.6465 0.57012 0.0
N535 N 0.07982 0.63528 0.67963 0.0
N536 N 0.07321 0.62447 0.49316 0.0
C537 C 0.07697 0.60667 0.5559 0.0
C538 C 0.08073 0.61248 0.65704 0.0
C539 C 0.71389 0.75606 0.88041 0.0
C540 C 0.71279 0.77855 0.91862 0.0
C541 C 0.71884 0.75209 0.78031 0.0
C542 C 0.72299 0.77049 0.71521 0.0
H543 H 0.71036 0.74155 0.92786 0.0
H544 H 0.71888 0.73453 0.75316 0.0
S545 S 0.7256 0.83233 0.78439 0.0
N546 N 0.71815 0.81921 0.88731 0.0
N547 N 0.72812 0.81188 0.69995 0.0
C548 C 0.72282 0.79301 0.7541 0.0
C549 C 0.71756 0.797 0.85564 0.0
C550 C 0.5105 0.40134 0.07246 0.0
C551 C 0.52681 0.40554 0.14721 0.0
C552 C 0.51623 0.40327 0.97271 0.0
C553 C 0.53858 0.40927 0.94306 0.0
H554 H 0.49297 0.39697 0.09121 0.0
H555 H 0.50276 0.40081 0.91869 0.0
S556 S 0.58837 0.41993 0.10867 0.0
N557 N 0.56667 0.41514 0.18396 0.0
N558 N 0.57772 0.41727 0.99642 0.0
C559 C 0.5554 0.41237 1.01671 0.0
C560 C 0.54948 0.41079 0.11867 0.0
C561 C 0.91329 0.2104 0.31514 0.0
C562 C 0.89993 0.22103 0.38861 0.0
C563 C 0.91026 0.21579 0.21531 0.0
C564 C 0.8936 0.23188 0.18509 0.0
H565 H 0.92632 0.19797 0.33539 0.0
H566 H 0.9213 0.20753 0.16158 0.0
S567 S 0.85236 0.26238 0.34836 0.0
N568 N 0.86837 0.24708 0.42442 0.0
N569 N 0.86238 0.25704 0.23673 0.0
C570 C 0.87976 0.24223 0.25792 0.0
C571 C 0.88299 0.23685 0.35968 0.0
C572 C 0.07373 0.41961 0.42019 0.0
C573 C 0.08772 0.40102 0.39075 0.0
C574 C 0.07042 0.42497 0.52009 0.0
C575 C 0.08078 0.41192 0.59532 0.0
H576 H 0.06459 0.4297 0.36595 0.0
H577 H 0.05927 0.43927 0.53859 0.0
S578 S 0.12027 0.36229 0.55807 0.0
N579 N 0.11369 0.37077 0.44565 0.0
N580 N 0.1061 0.3797 0.63269 0.0
C581 C 0.09534 0.39366 0.56704 0.0
C582 C 0.09909 0.38848 0.46512 0.0
C583 C 0.89116 0.76599 0.70024 0.0
C584 C 0.90554 0.78391 0.66885 0.0
C585 C 0.88958 0.76027 0.80031 0.0
C586 C 0.90251 0.77213 0.87231 0.0
H587 H 0.88063 0.75678 0.64724 0.0
H588 H 0.87783 0.74673 0.82167 0.0
S589 S 0.94492 0.81855 0.82444 0.0
N590 N 0.93402 0.81245 0.71491 0.0
N591 N 0.93183 0.80127 0.90275 0.0
C592 C 0.91755 0.78962 0.84085 0.0
C593 C 0.91888 0.7956 0.73914 0.0
C594 C 0.53599 0.61979 0.99833 0.0
C595 C 0.53155 0.60233 0.92828 0.0
C596 C 0.53977 0.61459 0.09815 0.0
C597 C 0.53942 0.59172 0.13177 0.0
H598 H 0.53685 0.63761 0.97563 0.0
H599 H 0.54336 0.62853 0.14923 0.0
S600 S 0.5261 0.53993 0.98166 0.0
N601 N 0.52526 0.56135 0.90209 0.0
N602 N 0.5327 0.55166 0.08903 0.0
C603 C 0.53464 0.57415 0.06317 0.0
C604 C 0.53064 0.57942 0.9617 0.0
C605 C 0.69817 0.2291 0.28546 0.0
C606 C 0.72087 0.233 0.31646 0.0
C607 C 0.69285 0.22582 0.1855 0.0
C608 C 0.71006 0.22588 0.1122 0.0
H609 H 0.68436 0.22914 0.33886 0.0
H610 H 0.67497 0.22358 0.16581 0.0
S611 S 0.77267 0.23349 0.15862 0.0
N612 N 0.76081 0.23601 0.26861 0.0
N613 N 0.75125 0.22876 0.08107 0.0
C614 C 0.73301 0.22927 0.14332 0.0
C615 C 0.73829 0.23307 0.24523 0.0
C616 C 0.40477 0.29166 0.29801 0.0
C617 C 0.39419 0.2712 0.33006 0.0
C618 C 0.41037 0.29501 0.19837 0.0
C619 C 0.40549 0.27809 0.12675 0.0
H620 H 0.40846 0.30535 0.35011 0.0
H621 H 0.41827 0.31109 0.17682 0.0
S622 S 0.38036 0.22048 0.17292 0.0
N623 N 0.38082 0.23302 0.28236 0.0
N624 N 0.391 0.23955 0.09552 0.0
C625 C 0.39532 0.25742 0.15781 0.0
C626 C 0.38976 0.25392 0.25925 0.0
C627 C 0.19672 0.72783 0.70479 0.0
C628 C 0.21384 0.72018 0.63893 0.0
C629 C 0.20164 0.73214 0.80424 0.0
C630 C 0.22382 0.72887 0.84253 0.0
H631 H 0.17942 0.73104 0.67887 0.0
H632 H 0.18805 0.7384 0.85183 0.0
S633 S 0.27472 0.70847 0.70423 0.0
N634 N 0.25394 0.70898 0.62092 0.0
N635 N 0.26304 0.71727 0.80888 0.0
C636 C 0.2411 0.72098 0.77883 0.0
C637 C 0.23616 0.71666 0.67675 0.0
C638 C 0.19163 0.27939 0.36396 0.0
C639 C 0.20905 0.283 0.43478 0.0
C640 C 0.19687 0.27604 0.264 0.0
C641 C 0.21974 0.27591 0.23099 0.0
H642 H 0.17378 0.27877 0.38603 0.0
H643 H 0.18297 0.27305 0.21233 0.0
S644 S 0.27162 0.28673 0.38308 0.0
N645 N 0.25012 0.28799 0.46222 0.0
N646 N 0.25986 0.28101 0.27483 0.0
C647 C 0.23731 0.2798 0.30015 0.0
C648 C 0.23201 0.28349 0.40185 0.0
C649 C 0.40839 0.71148 0.74445 0.0
C650 C 0.40133 0.73359 0.71507 0.0
C651 C 0.411 0.70589 0.84399 0.0
C652 C 0.40646 0.72206 0.91899 0.0
H653 H 0.41123 0.69807 0.69041 0.0
H654 H 0.41619 0.68853 0.86243 0.0
S655 S 0.38915 0.78301 0.88178 0.0
N656 N 0.39178 0.77243 0.76927 0.0
N657 N 0.39525 0.76153 0.95664 0.0
C658 C 0.40006 0.7445 0.89092 0.0
C659 C 0.39776 0.75031 0.78904 0.0
C660 C 0.56463 0.08029 0.99275 0.0
C661 C 0.57555 0.09356 0.91985 0.0
C662 C 0.56989 0.08323 0.09303 0.0
C663 C 0.58635 0.09945 0.12371 0.0
H664 H 0.55221 0.06726 0.97194 0.0
H665 H 0.56153 0.07234 0.14672 0.0
S666 S 0.61787 0.14035 0.96486 0.0
N667 N 0.60206 0.12507 0.88734 0.0
N668 N 0.61238 0.12996 0.07545 0.0
C669 C 0.59701 0.11316 0.0523 0.0
C670 C 0.59152 0.11038 0.95043 0.0
C671 C 0.03364 0.92418 0.64306 0.0
C672 C 0.03434 0.90119 0.6757 0.0
C673 C 0.03713 0.92972 0.54345 0.0
C674 C 0.0414 0.91251 0.47242 0.0
H675 H 0.02994 0.93796 0.69465 0.0
H676 H 0.03606 0.94759 0.52143 0.0
S677 S 0.04773 0.85001 0.52078 0.0
N678 N 0.04157 0.8613 0.62953 0.0
N679 N 0.04791 0.87175 0.44282 0.0
C680 C 0.04268 0.88953 0.50425 0.0
C681 C 0.03922 0.88387 0.60565 0.0
C682 C 0.56492 0.92115 0.99964 0.0
C683 C 0.57719 0.90893 0.07218 0.0
C684 C 0.57044 0.91904 0.89946 0.0
C685 C 0.58856 0.9048 0.86841 0.0
H686 H 0.5512 0.93276 1.02061 0.0
H687 H 0.56093 0.92909 0.84611 0.0
S688 S 0.62453 0.86732 1.02594 0.0
N689 N 0.60707 0.88048 0.10378 0.0
N690 N 0.61787 0.8773 0.91572 0.0
C691 C 0.60069 0.89218 0.93933 0.0
C692 C 0.59492 0.89405 0.04118 0.0
C693 C 0.03228 0.07703 0.41977 0.0
C694 C 0.03049 0.10018 0.38929 0.0
C695 C 0.03591 0.07131 0.51937 0.0
C696 C 0.0375 0.08849 0.59235 0.0
H697 H 0.03058 0.06319 0.36653 0.0
H698 H 0.03715 0.05335 0.53987 0.0
S699 S 0.03667 0.15152 0.55249 0.0
N700 N 0.03289 0.14037 0.44148 0.0
N701 N 0.03866 0.12938 0.62782 0.0
C702 C 0.03613 0.11159 0.56329 0.0
C703 C 0.03287 0.11749 0.46209 0.0
C704 C 0.09717 0.50969 0.13066 0.0
C705 C 0.08585 0.52365 0.06117 0.0
C706 C 0.09786 0.48554 0.11881 0.0
C707 C 0.08754 0.47488 0.03653 0.0
H708 H 0.10391 0.51726 0.19789 0.0
H709 H 0.105 0.47511 0.17737 0.0
S710 S 0.05902 0.50407 0.82728 0.0
N711 N 0.06644 0.5252 0.9027 0.0
N712 N 0.06802 0.48014 0.88023 0.0
C713 C 0.0779 0.48884 0.96332 0.0
C714 C 0.077 0.51318 0.97564 0.0
C715 C 0.81844 0.79252 0.37499 0.0
C716 C 0.83303 0.78941 0.2934 0.0
C717 C 0.79445 0.79162 0.36441 0.0
C718 C 0.78439 0.78691 0.27234 0.0
H719 H 0.82567 0.79431 0.44831 0.0
H720 H 0.78384 0.79262 0.42989 0.0
S721 S 0.81492 0.779 0.03521 0.0
N722 N 0.83565 0.78333 0.1166 0.0
N723 N 0.79057 0.78058 0.09745 0.0
C724 C 0.79871 0.78505 0.1895 0.0
C725 C 0.82308 0.78661 0.19981 0.0
C726 C 0.5173 0.51969 0.47125 0.0
C727 C 0.52119 0.52802 0.56726 0.0
C728 C 0.51612 0.49593 0.45224 0.0
C729 C 0.51805 0.47982 0.529 0.0
H730 H 0.51717 0.53147 0.4095 0.0
H731 H 0.51499 0.49007 0.37643 0.0
S732 S 0.52582 0.49309 0.79423 0.0
N733 N 0.5255 0.51855 0.74027 0.0
N734 N 0.52193 0.47396 0.70534 0.0
C735 C 0.51992 0.48806 0.62614 0.0
C736 C 0.52189 0.51218 0.64506 0.0
C737 C 0.81764 0.2226 0.6568 0.0
C738 C 0.8309 0.21651 0.73956 0.0
C739 C 0.79359 0.22296 0.66091 0.0
C740 C 0.78194 0.21736 0.74805 0.0
H741 H 0.82596 0.22848 0.59007 0.0
H742 H 0.78411 0.22932 0.59776 0.0
S743 S 0.80838 0.1983 0.98234 0.0
N744 N 0.83049 0.20288 0.90866 0.0
N745 N 0.78512 0.20401 0.91669 0.0
C746 C 0.79481 0.20977 0.82924 0.0
C747 C 0.81939 0.20913 0.82479 0.0
C748 C 0.29485 0.29185 0.69638 0.0
C749 C 0.28226 0.29169 0.78475 0.0
C750 C 0.319 0.29149 0.69724 0.0
C751 C 0.3312 0.29034 0.78655 0.0
H752 H 0.28598 0.2905 0.62632 0.0
H753 H 0.32803 0.28987 0.62777 0.0
S754 S 0.30631 0.29107 0.03759 0.0
N755 N 0.28377 0.29228 0.96349 0.0
N756 N 0.32911 0.29054 0.96512 0.0
C757 C 0.31887 0.29163 0.87519 0.0
C758 C 0.29434 0.2926 0.87429 0.0
C759 C 0.29712 0.71495 0.36007 0.0
C760 C 0.28411 0.71494 0.27258 0.0
C761 C 0.32126 0.71437 0.35737 0.0
C762 C 0.33301 0.71452 0.26694 0.0
H763 H 0.28861 0.71679 0.43068 0.0
H764 H 0.33072 0.71579 0.42599 0.0
S765 S 0.30673 0.71288 1.01789 0.0
N766 N 0.28458 0.71324 0.09394 0.0
N767 N 0.32992 0.71305 0.08844 0.0
C768 C 0.32014 0.71324 0.17934 0.0
C769 C 0.29564 0.71324 0.18225 0.0
C770 C 0.59575 0.01686 0.57298 0.0
C771 C 0.5945 0.02672 0.47875 0.0
C772 C 0.5955 0.99284 0.58466 0.0
C773 C 0.5947 0.97796 0.50251 0.0
H774 H 0.595 0.0277 0.63813 0.0
H775 H 0.59474 0.98587 0.65855 0.0
S776 S 0.59414 0.99535 0.24012 0.0
N777 N 0.59429 0.01994 0.30197 0.0
N778 N 0.59478 0.97481 0.32393 0.0
C779 C 0.59544 0.98763 0.40794 0.0
C780 C 0.59507 0.01205 0.39608 0.0
C781 C 0.02464 0.99039 0.93414 0.0
C782 C 0.02244 0.97709 1.01995 0.0
C783 C 0.02376 0.01453 0.93828 0.0
C784 C 0.02114 0.02611 0.0287 0.0
H785 H 0.02867 0.98213 0.86449 0.0
H786 H 0.02724 0.02419 0.87178 0.0
S787 S 0.01339 0.99925 0.27337 0.0
N788 N 0.01579 0.9772 0.19659 0.0
N789 N 0.01514 0.02265 0.20486 0.0
C790 C 0.01755 0.01303 0.11399 0.0
C791 C 0.0179 0.98844 0.10947 0.0
C792 C 0.17048 0.65872 0.25762 0.0
C793 C 0.17722 0.66222 0.15934 0.0
C794 C 0.15396 0.64219 0.28225 0.0
C795 C 0.14389 0.62789 0.20997 0.0
H796 H 0.17725 0.66938 0.31602 0.0
H797 H 0.1484 0.64137 0.35831 0.0
S798 S 0.16145 0.62466 0.94736 0.0
N799 N 0.17611 0.64667 0.99244 0.0
N800 N 0.14629 0.61448 0.04025 0.0
C801 C 0.15271 0.62912 0.11359 0.0
C802 C 0.16908 0.64649 0.0879 0.0
C803 C 0.65001 0.8658 0.33108 0.0
C804 C 0.64328 0.86538 0.4306 0.0
C805 C 0.66963 0.85365 0.29916 0.0
C806 C 0.68309 0.84085 0.36594 0.0
H807 H 0.63942 0.87447 0.27699 0.0
H808 H 0.67351 0.85322 0.22111 0.0
S809 S 0.67498 0.83802 0.63643 0.0
N810 N 0.65321 0.85367 0.59698 0.0
N811 N 0.69001 0.83138 0.53727 0.0
C812 C 0.6774 0.84185 0.46623 0.0
C813 C 0.65752 0.854 0.4985 0.0
C814 C 0.45886 0.34884 0.53632 0.0
C815 C 0.46996 0.3664 0.59031 0.0
C816 C 0.44053 0.33642 0.57591 0.0
C817 C 0.43229 0.34097 0.67128 0.0
H818 H 0.46468 0.34415 0.46314 0.0
H819 H 0.43308 0.32277 0.53173 0.0
S820 S 0.45391 0.38639 0.84122 0.0
N821 N 0.47028 0.38876 0.74246 0.0
N822 N 0.43572 0.36524 0.81725 0.0
C823 C 0.44239 0.35923 0.72473 0.0
C824 C 0.46123 0.37195 0.68424 0.0
C825 C 0.97761 0.14073 0.83606 0.0
C826 C 0.97027 0.12933 0.92156 0.0
C827 C 0.96562 0.15959 0.79845 0.0
C828 C 0.94569 0.16815 0.84462 0.0
H829 H 0.99306 0.13536 0.79814 0.0
H830 H 0.97243 0.16773 0.73304 0.0
S831 S 0.91855 0.1441 0.06909 0.0
N832 N 0.94123 0.12754 0.05028 0.0
N833 N 0.91859 0.16316 0.97909 0.0
C834 C 0.93763 0.15654 0.92862 0.0
C835 C 0.94992 0.13712 0.96712 0.0
C836 C 0.173 0.3429 0.98023 0.0
C837 C 0.18236 0.345 0.88503 0.0
C838 C 0.15642 0.35849 1.01515 0.0
C839 C 0.14817 0.37636 0.95524 0.0
H840 H 0.17852 0.32912 0.02828 0.0
H841 H 0.14958 0.35622 0.08872 0.0
S842 S 0.16705 0.38977 0.70149 0.0
N843 N 0.18232 0.36691 0.73235 0.0
N844 N 0.15071 0.39571 0.79771 0.0
C845 C 0.15732 0.37876 0.86035 0.0
C846 C 0.17456 0.36322 0.82536 0.0
C847 C 0.97868 0.86518 0.22998 0.0
C848 C 0.97159 0.87585 0.14226 0.0
C849 C 0.96663 0.84665 0.26976 0.0
C850 C 0.94678 0.83779 0.22398 0.0
H851 H 0.99402 0.87081 0.26791 0.0
H852 H 0.9734 0.83895 0.33634 0.0
S853 S 0.91921 0.86107 0.9984 0.0
N854 N 0.94225 0.8773 1.01425 0.0
N855 N 0.91933 0.84244 0.09002 0.0
C856 C 0.93868 0.84896 0.13873 0.0
C857 C 0.9511 0.868 0.09781 0.0
C858 C 0.47437 0.63517 0.36425 0.0
C859 C 0.46957 0.62771 0.46032 0.0
C860 C 0.46191 0.65298 0.32067 0.0
C861 C 0.44403 0.66429 0.3712 0.0
H862 H 0.48827 0.62756 0.32265 0.0
H863 H 0.4669 0.6583 0.24735 0.0
S864 S 0.42276 0.64957 0.62091 0.0
N865 N 0.44438 0.63164 0.60227 0.0
N866 N 0.42071 0.66525 0.51995 0.0
C867 C 0.43802 0.65611 0.46528 0.0
C868 C 0.45082 0.63779 0.50988 0.0
C869 C 0.66751 0.17289 0.56298 0.0
C870 C 0.67897 0.16588 0.64903 0.0
C871 C 0.64835 0.16104 0.52716 0.0
C872 C 0.63958 0.14152 0.57548 0.0
H873 H 0.67307 0.18801 0.52332 0.0
H874 H 0.64013 0.16765 0.4614 0.0
S875 S 0.66422 0.11477 0.80005 0.0
N876 N 0.68091 0.13725 0.77938 0.0
N877 N 0.64479 0.11477 0.71114 0.0
C878 C 0.6514 0.1336 0.65943 0.0
C879 C 0.67109 0.14579 0.6963 0.0
C880 C 0.99482 0.33139 0.86181 0.0
C881 C 0.01668 0.32526 0.89738 0.0
C882 C 0.9784 0.31458 0.83771 0.0
C883 C 0.98313 0.29088 0.84825 0.0
H884 H 0.99036 0.34937 0.85252 0.0
H885 H 0.96167 0.3203 0.81275 0.0
S886 S 0.03767 0.26609 0.94316 0.0
N887 N 0.04201 0.29416 0.94587 0.0
N888 N 0.01161 0.26239 0.89757 0.0
C889 C 0.00505 0.2846 0.88379 0.0
C890 C 0.0217 0.30179 0.90878 0.0
C891 C 0.49167 0.17266 0.58129 0.0
C892 C 0.51525 0.17802 0.58909 0.0
C893 C 0.47463 0.18868 0.60725 0.0
C894 C 0.48037 0.21072 0.643 0.0
H895 H 0.4862 0.15578 0.55646 0.0
H896 H 0.45678 0.18377 0.59848 0.0
S897 S 0.53932 0.2333 0.68215 0.0
N898 N 0.54328 0.20735 0.63504 0.0
N899 N 0.51124 0.23675 0.6896 0.0
C900 C 0.5038 0.21627 0.65263 0.0
C901 C 0.5212 0.20012 0.62457 0.0
C902 C 0.62946 0.70549 0.49264 0.0
C903 C 0.63278 0.71224 0.39416 0.0
C904 C 0.61301 0.68882 0.51737 0.0
C905 C 0.59904 0.67859 0.44473 0.0
H906 H 0.64003 0.71277 0.55076 0.0
H907 H 0.6112 0.68391 0.59391 0.0
S908 S 0.60056 0.69069 0.17654 0.0
N909 N 0.62048 0.70773 0.22397 0.0
N910 N 0.58951 0.67646 0.27036 0.0
C911 C 0.60194 0.68545 0.34622 0.0
C912 C 0.61885 0.70223 0.32095 0.0
C913 C 0.11479 0.81807 0.07484 0.0
C914 C 0.10092 0.82704 0.15059 0.0
C915 C 0.13082 0.80057 0.09355 0.0
C916 C 0.13379 0.79161 0.18898 0.0
H917 H 0.11315 0.82454 1.00038 0.0
H918 H 0.14128 0.7943 0.03312 0.0
S919 S 0.10179 0.80935 0.41297 0.0
N920 N 0.09124 0.82578 0.32472 0.0
N921 N 0.12136 0.79286 0.35984 0.0
C922 C 0.12003 0.80043 0.26538 0.0
C923 C 0.10357 0.81811 0.24616 0.0
C924 C 0.97848 0.68934 0.21856 0.0
C925 C 0.98518 0.7122 0.23826 0.0
C926 C 0.99474 0.67222 0.19712 0.0
C927 C 0.01841 0.6772 0.19469 0.0
H928 H 0.96046 0.68466 0.21809 0.0
H929 H 0.9887 0.65485 0.18328 0.0
S930 S 0.04502 0.73434 0.24116 0.0
N931 N 0.01718 0.73886 0.25512 0.0
N932 N 0.04773 0.70676 0.21298 0.0
C933 C 0.02538 0.69998 0.21445 0.0
C934 C 0.00879 0.71745 0.23632 0.0
C935 C 0.14028 0.18901 0.92699 0.0
C936 C 0.13431 0.21089 0.89103 0.0
C937 C 0.12354 0.17209 0.94338 0.0
C938 C 0.10003 0.17631 0.92512 0.0
H939 H 0.15807 0.18497 0.94323 0.0
H940 H 0.12922 0.15543 0.9694 0.0
S941 S 0.07584 0.23057 0.82386 0.0
N942 N 0.1037 0.23551 0.83147 0.0
N943 N 0.07194 0.20434 0.86706 0.0
C944 C 0.09392 0.19819 0.88832 0.0
C945 C 0.11108 0.21531 0.87047 0.0
C946 C 0.63633 0.31895 0.63709 0.0
C947 C 0.6317 0.29516 0.63069 0.0
C948 C 0.61956 0.33542 0.61348 0.0
C949 C 0.59745 0.32882 0.58203 0.0
H950 H 0.65314 0.32499 0.65973 0.0
H951 H 0.62386 0.35348 0.62156 0.0
S952 S 0.57663 0.26899 0.54783 0.0
N953 N 0.60309 0.26598 0.58976 0.0
N954 N 0.57212 0.29698 0.54086 0.0
C955 C 0.59266 0.30518 0.57344 0.0
C956 C 0.60963 0.28837 0.59859 0.0
C957 C 0.4956 0.82934 0.41478 0.0
C958 C 0.51911 0.82376 0.42143 0.0
C959 C 0.47909 0.81264 0.39072 0.0
C960 C 0.48532 0.78962 0.37146 0.0
H961 H 0.48986 0.84687 0.42677 0.0
H962 H 0.46122 0.81784 0.38833 0.0
S963 S 0.5446 0.7659 0.37903 0.0
N964 N 0.54771 0.79331 0.40914 0.0
N965 N 0.51684 0.76221 0.35909 0.0
C966 C 0.50879 0.78378 0.37748 0.0
C967 C 0.5256 0.80075 0.40328 0.0
loop_
_geom_bond_atom_site_label_1
_geom_bond_atom_site_label_2
_geom_bond_distance
_geom_bond_site_symmetry_2
_ccdc_geom_bond_type
C0 C1 1.351 . S
C0 N3 1.368 . S
C0 H5 0.931 . S
C1 C0 1.351 . S
C1 N2 1.373 . S
C1 H29 0.930 . S
N2 C1 1.373 . S
N2 C4 1.340 . S
N3 C0 1.368 . S
N3 C4 1.321 . S
N3 Co6 2.135 . S
C4 N2 1.340 . S
C4 N3 1.321 . S
C4 H28 0.930 . S
H5 C0 0.931 . S
Co6 N3 2.135 . S
Co6 N9 2.121 1_554 S
Co6 O14 2.055 . S
Co6 O17 2.039 . S
Co6 N20 2.140 . S
C7 O8 1.227 . S
C7 O17 1.265 . S
O8 C7 1.227 . S
N9 Co6 2.121 1_556 S
N9 C11 1.375 . S
N9 C12 1.313 . S
C10 C11 1.338 . S
C10 N13 1.377 . S
C10 H30 0.930 . S
C11 N9 1.375 . S
C11 C10 1.338 . S
C11 H15 0.931 . S
C12 N9 1.313 . S
C12 N13 1.344 . S
C12 H16 0.930 . S
N13 C10 1.377 . S
N13 C12 1.344 . S
O14 Co6 2.055 . S
O14 C18 1.253 . S
H15 C11 0.931 . S
H16 C12 0.930 . S
O17 Co6 2.039 . S
O17 C7 1.265 . S
C18 O14 1.253 . S
C18 O19 1.227 . S
O19 C18 1.227 . S
N20 Co6 2.140 . S
N20 C23 1.346 . S
N20 C24 1.345 . S
C21 C22 1.387 . S
C21 C25 1.391 . S
C22 C21 1.387 . S
C22 C23 1.369 . S
C22 H31 0.929 . S
C23 N20 1.346 . S
C23 C22 1.369 . S
C23 H26 0.928 . S
C24 N20 1.345 . S
C24 C25 1.371 . S
C24 H27 0.931 1_554 S
C25 C21 1.391 . S
C25 C24 1.371 . S
C25 H32 0.930 1_554 S
H26 C23 0.928 . S
H27 C24 0.931 1_556 S
H28 C4 0.930 . S
H29 C1 0.930 . S
H30 C10 0.930 . S
H31 C22 0.929 . S
H32 C25 0.930 1_556 S
C33 C34 1.351 . S
C33 N36 1.368 . S
C33 H38 0.931 . S
C34 C33 1.351 . S
C34 N35 1.373 . S
C34 H62 0.930 . S
N35 C34 1.373 . S
N35 C37 1.340 . S
N36 C33 1.368 . S
N36 C37 1.321 . S
N36 Co39 2.135 . S
C37 N35 1.340 . S
C37 N36 1.321 . S
C37 H61 0.930 . S
H38 C33 0.931 . S
Co39 N36 2.135 . S
Co39 N42 2.121 . S
Co39 O47 2.055 . S
Co39 O50 2.039 . S
Co39 N53 2.140 . S
C40 O41 1.227 . S
C40 O50 1.265 . S
O41 C40 1.227 . S
N42 Co39 2.121 . S
N42 C44 1.375 . S
N42 C45 1.313 . S
C43 C44 1.338 . S
C43 N46 1.377 . S
C43 H63 0.930 . S
C44 N42 1.375 . S
C44 C43 1.338 . S
C44 H48 0.931 . S
C45 N42 1.313 . S
C45 N46 1.344 . S
C45 H49 0.930 . S
N46 C43 1.377 . S
N46 C45 1.344 . S
O47 Co39 2.055 . S
O47 C51 1.253 . S
H48 C44 0.931 . S
H49 C45 0.930 . S
O50 Co39 2.039 . S
O50 C40 1.265 . S
C51 O47 1.253 . S
C51 O52 1.227 . S
O52 C51 1.227 . S
N53 Co39 2.140 . S
N53 C56 1.346 . S
N53 C57 1.345 . S
C54 C55 1.387 . S
C54 C58 1.391 . S
C55 C54 1.387 . S
C55 C56 1.369 . S
C55 H64 0.929 . S
C56 N53 1.346 . S
C56 C55 1.369 . S
C56 H59 0.928 . S
C57 N53 1.345 . S
C57 C58 1.371 . S
C57 H60 0.931 . S
C58 C54 1.391 . S
C58 C57 1.371 . S
C58 H65 0.930 . S
H59 C56 0.928 . S
H60 C57 0.931 . S
H61 C37 0.930 . S
H62 C34 0.930 . S
H63 C43 0.930 . S
H64 C55 0.929 . S
H65 C58 0.930 . S
C66 C67 1.351 . S
C66 N69 1.368 . S
C66 H71 0.931 . S
C67 C66 1.351 . S
C67 N68 1.373 . S
C67 H95 0.930 . S
N68 C67 1.373 . S
N68 C70 1.340 . S
N69 C66 1.368 . S
N69 C70 1.321 . S
N69 Co72 2.135 . S
C70 N68 1.340 . S
C70 N69 1.321 . S
C70 H94 0.930 . S
H71 C66 0.931 . S
Co72 N69 2.135 . S
Co72 N75 2.121 . S
Co72 O80 2.055 . S
Co72 O83 2.039 . S
Co72 N86 2.140 . S
C73 O74 1.227 . S
C73 O83 1.265 . S
O74 C73 1.227 . S
N75 Co72 2.121 . S
N75 C77 1.375 . S
N75 C78 1.313 . S
C76 C77 1.338 . S
C76 N79 1.377 . S
C76 H96 0.930 . S
C77 N75 1.375 . S
C77 C76 1.338 . S
C77 H81 0.931 . S
C78 N75 1.313 . S
C78 N79 1.344 . S
C78 H82 0.930 . S
N79 C76 1.377 . S
N79 C78 1.344 . S
O80 Co72 2.055 . S
O80 C84 1.253 . S
H81 C77 0.931 . S
H82 C78 0.930 . S
O83 Co72 2.039 . S
O83 C73 1.265 . S
C84 O80 1.253 . S
C84 O85 1.227 . S
O85 C84 1.227 . S
N86 Co72 2.140 . S
N86 C89 1.346 . S
N86 C90 1.345 . S
C87 C88 1.387 . S
C87 C91 1.391 . S
C88 C87 1.387 . S
C88 C89 1.369 . S
C88 H97 0.929 . S
C89 N86 1.346 . S
C89 C88 1.369 . S
C89 H92 0.928 . S
C90 N86 1.345 . S
C90 C91 1.371 . S
C90 H93 0.931 . S
C91 C87 1.391 . S
C91 C90 1.371 . S
C91 H98 0.930 . S
H92 C89 0.928 . S
H93 C90 0.931 . S
H94 C70 0.930 . S
H95 C67 0.930 . S
H96 C76 0.930 . S
H97 C88 0.929 . S
H98 C91 0.930 . S
C99 C100 1.351 . S
C99 N102 1.368 1_554 S
C99 H104 0.931 1_554 S
C100 C99 1.351 . S
C100 N101 1.373 . S
C100 H128 0.930 . S
N101 C100 1.373 . S
N101 C103 1.340 . S
N102 C99 1.368 1_556 S
N102 C103 1.321 1_556 S
N102 Co105 2.135 . S
C103 N101 1.340 . S
C103 N102 1.321 1_554 S
C103 H127 0.930 . S
H104 C99 0.931 1_556 S
Co105 N102 2.135 . S
Co105 N108 2.121 . S
Co105 O113 2.055 . S
Co105 O116 2.039 . S
Co105 N119 2.140 . S
C106 O107 1.227 . S
C106 O116 1.265 . S
O107 C106 1.227 . S
N108 Co105 2.121 . S
N108 C110 1.375 . S
N108 C111 1.313 . S
C109 C110 1.338 . S
C109 N112 1.377 . S
C109 H129 0.930 . S
C110 N108 1.375 . S
C110 C109 1.338 . S
C110 H114 0.931 . S
C111 N108 1.313 . S
C111 N112 1.344 . S
C111 H115 0.930 . S
N112 C109 1.377 . S
N112 C111 1.344 . S
O113 Co105 2.055 . S
O113 C117 1.253 . S
H114 C110 0.931 . S
H115 C111 0.930 . S
O116 Co105 2.039 . S
O116 C106 1.265 . S
C117 O113 1.253 . S
C117 O118 1.227 . S
O118 C117 1.227 . S
N119 Co105 2.140 . S
N119 C122 1.346 . S
N119 C123 1.345 . S
C120 C121 1.387 . S
C120 C124 1.391 . S
C121 C120 1.387 . S
C121 C122 1.369 . S
C121 H130 0.929 . S
C122 N119 1.346 . S
C122 C121 1.369 . S
C122 H125 0.928 . S
C123 N119 1.345 . S
C123 C124 1.371 . S
C123 H126 0.931 . S
C124 C120 1.391 . S
C124 C123 1.371 . S
C124 H131 0.930 . S
H125 C122 0.928 . S
H126 C123 0.931 . S
H127 C103 0.930 . S
H128 C100 0.930 . S
H129 C109 0.930 . S
H130 C121 0.929 . S
H131 C124 0.930 . S
C132 C133 1.351 . S
C132 N135 1.368 . S
C132 H137 0.931 . S
C133 C132 1.351 . S
C133 N134 1.373 . S
C133 H161 0.930 . S
N134 C133 1.373 . S
N134 C136 1.340 . S
N135 C132 1.368 . S
N135 C136 1.321 . S
N135 Co138 2.135 . S
C136 N134 1.340 . S
C136 N135 1.321 . S
C136 H160 0.930 . S
H137 C132 0.931 . S
Co138 N135 2.135 . S
Co138 N141 2.121 1_556 S
Co138 O146 2.055 . S
Co138 O149 2.039 . S
Co138 N152 2.140 . S
C139 O140 1.227 . S
C139 O149 1.265 . S
O140 C139 1.227 . S
N141 Co138 2.121 1_554 S
N141 C143 1.375 . S
N141 C144 1.313 . S
C142 C143 1.338 . S
C142 N145 1.377 . S
C142 H162 0.930 . S
C143 N141 1.375 . S
C143 C142 1.338 . S
C143 H147 0.931 . S
C144 N141 1.313 . S
C144 N145 1.344 . S
C144 H148 0.930 . S
N145 C142 1.377 . S
N145 C144 1.344 . S
O146 Co138 2.055 . S
O146 C150 1.253 . S
H147 C143 0.931 . S
H148 C144 0.930 . S
O149 Co138 2.039 . S
O149 C139 1.265 . S
C150 O146 1.253 . S
C150 O151 1.227 . S
O151 C150 1.227 . S
N152 Co138 2.140 . S
N152 C155 1.346 . S
N152 C156 1.345 . S
C153 C154 1.387 . S
C153 C157 1.391 . S
C154 C153 1.387 . S
C154 C155 1.369 . S
C154 H163 0.929 . S
C155 N152 1.346 . S
C155 C154 1.369 . S
C155 H158 0.928 . S
C156 N152 1.345 . S
C156 C157 1.371 . S
C156 H159 0.931 1_556 S
C157 C153 1.391 . S
C157 C156 1.371 . S
C157 H164 0.930 1_556 S
H158 C155 0.928 . S
H159 C156 0.931 1_554 S
H160 C136 0.930 . S
H161 C133 0.930 . S
H162 C142 0.930 . S
H163 C154 0.929 . S
H164 C157 0.930 1_554 S
C165 C166 1.351 . S
C165 N168 1.368 1_556 S
C165 H170 0.931 1_556 S
C166 C165 1.351 . S
C166 N167 1.373 . S
C166 H194 0.930 . S
N167 C166 1.373 . S
N167 C169 1.340 . S
N168 C165 1.368 1_554 S
N168 C169 1.321 1_554 S
N168 Co171 2.135 . S
C169 N167 1.340 . S
C169 N168 1.321 1_556 S
C169 H193 0.930 . S
H170 C165 0.931 1_554 S
Co171 N168 2.135 . S
Co171 N174 2.121 . S
Co171 O179 2.055 . S
Co171 O182 2.039 . S
Co171 N185 2.140 . S
C172 O173 1.227 . S
C172 O182 1.265 . S
O173 C172 1.227 . S
N174 Co171 2.121 . S
N174 C176 1.375 . S
N174 C177 1.313 . S
C175 C176 1.338 . S
C175 N178 1.377 . S
C175 H195 0.930 . S
C176 N174 1.375 . S
C176 C175 1.338 . S
C176 H180 0.931 . S
C177 N174 1.313 . S
C177 N178 1.344 . S
C177 H181 0.930 . S
N178 C175 1.377 . S
N178 C177 1.344 . S
O179 Co171 2.055 . S
O179 C183 1.253 . S
H180 C176 0.931 . S
H181 C177 0.930 . S
O182 Co171 2.039 . S
O182 C172 1.265 . S
C183 O179 1.253 . S
C183 O184 1.227 . S
O184 C183 1.227 . S
N185 Co171 2.140 . S
N185 C188 1.346 . S
N185 C189 1.345 . S
C186 C187 1.387 . S
C186 C190 1.391 . S
C187 C186 1.387 . S
C187 C188 1.369 . S
C187 H196 0.929 . S
C188 N185 1.346 . S
C188 C187 1.369 . S
C188 H191 0.928 . S
C189 N185 1.345 . S
C189 C190 1.371 . S
C189 H192 0.931 . S
C190 C186 1.391 . S
C190 C189 1.371 . S
C190 H197 0.930 . S
H191 C188 0.928 . S
H192 C189 0.931 . S
H193 C169 0.930 . S
H194 C166 0.930 . S
H195 C175 0.930 . S
H196 C187 0.929 . S
H197 C190 0.930 . S
C198 C199 1.351 . S
C198 N201 1.368 . S
C198 H203 0.931 . S
C199 C198 1.351 . S
C199 N200 1.373 . S
C199 H227 0.930 . S
N200 C199 1.373 . S
N200 C202 1.340 . S
N201 C198 1.368 . S
N201 C202 1.321 . S
N201 Co204 2.135 . S
C202 N200 1.340 . S
C202 N201 1.321 . S
C202 H226 0.930 . S
H203 C198 0.931 . S
Co204 N201 2.135 . S
Co204 N207 2.121 . S
Co204 O212 2.055 . S
Co204 O215 2.039 . S
Co204 N218 2.140 . S
C205 O206 1.227 . S
C205 O215 1.265 . S
O206 C205 1.227 . S
N207 Co204 2.121 . S
N207 C209 1.375 . S
N207 C210 1.313 . S
C208 C209 1.338 . S
C208 N211 1.377 . S
C208 H228 0.930 . S
C209 N207 1.375 . S
C209 C208 1.338 . S
C209 H213 0.931 . S
C210 N207 1.313 . S
C210 N211 1.344 . S
C210 H214 0.930 . S
N211 C208 1.377 . S
N211 C210 1.344 . S
O212 Co204 2.055 . S
O212 C216 1.253 . S
H213 C209 0.931 . S
H214 C210 0.930 . S
O215 Co204 2.039 . S
O215 C205 1.265 . S
C216 O212 1.253 . S
C216 O217 1.227 . S
O217 C216 1.227 . S
N218 Co204 2.140 . S
N218 C221 1.346 . S
N218 C222 1.345 . S
C219 C220 1.387 . S
C219 C223 1.391 . S
C220 C219 1.387 . S
C220 C221 1.369 . S
C220 H229 0.929 . S
C221 N218 1.346 . S
C221 C220 1.369 . S
C221 H224 0.928 . S
C222 N218 1.345 . S
C222 C223 1.371 . S
C222 H225 0.931 . S
C223 C219 1.391 . S
C223 C222 1.371 . S
C223 H230 0.930 . S
H224 C221 0.928 . S
H225 C222 0.931 . S
H226 C202 0.930 . S
H227 C199 0.930 . S
H228 C208 0.930 . S
H229 C220 0.929 . S
H230 C223 0.930 . S
C231 C232 1.351 . S
C231 N234 1.368 . S
C231 H236 0.931 . S
C232 C231 1.351 . S
C232 N233 1.373 . S
C232 H260 0.930 . S
N233 C232 1.373 . S
N233 C235 1.340 . S
N234 C231 1.368 . S
N234 C235 1.321 . S
N234 Co237 2.135 . S
C235 N233 1.340 . S
C235 N234 1.321 . S
C235 H259 0.930 . S
H236 C231 0.931 . S
Co237 N234 2.135 . S
Co237 N240 2.121 . S
Co237 O245 2.055 . S
Co237 O248 2.039 . S
Co237 N251 2.140 . S
C238 O239 1.227 . S
C238 O248 1.265 . S
O239 C238 1.227 . S
N240 Co237 2.121 . S
N240 C242 1.375 . S
N240 C243 1.313 . S
C241 C242 1.338 . S
C241 N244 1.377 . S
C241 H261 0.930 . S
C242 N240 1.375 . S
C242 C241 1.338 . S
C242 H246 0.931 . S
C243 N240 1.313 . S
C243 N244 1.344 . S
C243 H247 0.930 . S
N244 C241 1.377 . S
N244 C243 1.344 . S
O245 Co237 2.055 . S
O245 C249 1.253 . S
H246 C242 0.931 . S
H247 C243 0.930 . S
O248 Co237 2.039 . S
O248 C238 1.265 . S
C249 O245 1.253 . S
C249 O250 1.227 . S
O250 C249 1.227 . S
N251 Co237 2.140 . S
N251 C254 1.346 . S
N251 C255 1.345 . S
C252 C253 1.387 . S
C252 C256 1.391 . S
C253 C252 1.387 . S
C253 C254 1.369 . S
C253 H262 0.929 . S
C254 N251 1.346 . S
C254 C253 1.369 . S
C254 H257 0.928 . S
C255 N251 1.345 . S
C255 C256 1.371 . S
C255 H258 0.931 . S
C256 C252 1.391 . S
C256 C255 1.371 . S
C256 H263 0.930 . S
H257 C254 0.928 . S
H258 C255 0.931 . S
H259 C235 0.930 . S
H260 C232 0.930 . S
H261 C241 0.930 . S
H262 C253 0.929 . S
H263 C256 0.930 . S
C264 C265 1.351 . S
C264 N267 1.368 . S
C264 H269 0.931 . S
C265 C264 1.351 . S
C265 N266 1.373 . S
C265 H293 0.930 . S
N266 C265 1.373 . S
N266 C268 1.340 . S
N267 C264 1.368 . S
N267 C268 1.321 . S
N267 Co270 2.135 . S
C268 N266 1.340 . S
C268 N267 1.321 . S
C268 H292 0.930 . S
H269 C264 0.931 . S
Co270 N267 2.135 . S
Co270 N273 2.121 . S
Co270 O278 2.055 . S
Co270 O281 2.039 . S
Co270 N284 2.140 . S
C271 O272 1.227 . S
C271 O281 1.265 . S
O272 C271 1.227 . S
N273 Co270 2.121 . S
N273 C275 1.375 . S
N273 C276 1.313 . S
C274 C275 1.338 . S
C274 N277 1.377 . S
C274 H294 0.930 . S
C275 N273 1.375 . S
C275 C274 1.338 . S
C275 H279 0.931 . S
C276 N273 1.313 . S
C276 N277 1.344 . S
C276 H280 0.930 . S
N277 C274 1.377 . S
N277 C276 1.344 . S
O278 Co270 2.055 . S
O278 C282 1.253 . S
H279 C275 0.931 . S
H280 C276 0.930 . S
O281 Co270 2.039 . S
O281 C271 1.265 . S
C282 O278 1.253 . S
C282 O283 1.227 . S
O283 C282 1.227 . S
N284 Co270 2.140 . S
N284 C287 1.346 . S
N284 C288 1.345 . S
C285 C286 1.387 . S
C285 C289 1.391 . S
C286 C285 1.387 . S
C286 C287 1.369 . S
C286 H295 0.929 . S
C287 N284 1.346 . S
C287 C286 1.369 . S
C287 H290 0.928 . S
C288 N284 1.345 . S
C288 C289 1.371 . S
C288 H291 0.931 . S
C289 C285 1.391 . S
C289 C288 1.371 . S
C289 H296 0.930 . S
H290 C287 0.928 . S
H291 C288 0.931 . S
H292 C268 0.930 . S
H293 C265 0.930 . S
H294 C274 0.930 . S
H295 C286 0.929 . S
H296 C289 0.930 . S
C297 C298 1.351 . S
C297 N300 1.368 1_556 S
C297 H302 0.931 1_556 S
C298 C297 1.351 . S
C298 N299 1.373 . S
C298 H326 0.930 . S
N299 C298 1.373 . S
N299 C301 1.340 . S
N300 C297 1.368 1_554 S
N300 C301 1.321 1_554 S
N300 Co303 2.135 . S
C301 N299 1.340 . S
C301 N300 1.321 1_556 S
C301 H325 0.930 . S
H302 C297 0.931 1_554 S
Co303 N300 2.135 . S
Co303 N306 2.121 . S
Co303 O311 2.055 . S
Co303 O314 2.039 . S
Co303 N317 2.140 . S
C304 O305 1.227 . S
C304 O314 1.265 . S
O305 C304 1.227 . S
N306 Co303 2.121 . S
N306 C308 1.375 . S
N306 C309 1.313 . S
C307 C308 1.338 . S
C307 N310 1.377 . S
C307 H327 0.930 . S
C308 N306 1.375 . S
C308 C307 1.338 . S
C308 H312 0.931 . S
C309 N306 1.313 . S
C309 N310 1.344 . S
C309 H313 0.930 . S
N310 C307 1.377 . S
N310 C309 1.344 . S
O311 Co303 2.055 . S
O311 C315 1.253 . S
H312 C308 0.931 . S
H313 C309 0.930 . S
O314 Co303 2.039 . S
O314 C304 1.265 . S
C315 O311 1.253 . S
C315 O316 1.227 . S
O316 C315 1.227 . S
N317 Co303 2.140 . S
N317 C320 1.346 . S
N317 C321 1.345 . S
C318 C319 1.387 . S
C318 C322 1.391 . S
C319 C318 1.387 . S
C319 C320 1.369 . S
C319 H328 0.929 . S
C320 N317 1.346 . S
C320 C319 1.369 . S
C320 H323 0.928 . S
C321 N317 1.345 . S
C321 C322 1.371 . S
C321 H324 0.931 . S
C322 C318 1.391 . S
C322 C321 1.371 . S
C322 H329 0.930 . S
H323 C320 0.928 . S
H324 C321 0.931 . S
H325 C301 0.930 . S
H326 C298 0.930 . S
H327 C307 0.930 . S
H328 C319 0.929 . S
H329 C322 0.930 . S
C330 C331 1.351 . S
C330 N333 1.368 1_554 S
C330 H335 0.931 1_554 S
C331 C330 1.351 . S
C331 N332 1.373 . S
C331 H359 0.930 . S
N332 C331 1.373 . S
N332 C334 1.340 . S
N333 C330 1.368 1_556 S
N333 C334 1.321 1_556 S
N333 Co336 2.135 . S
C334 N332 1.340 . S
C334 N333 1.321 1_554 S
C334 H358 0.930 . S
H335 C330 0.931 1_556 S
Co336 N333 2.135 . S
Co336 N339 2.121 . S
Co336 O344 2.055 . S
Co336 O347 2.039 . S
Co336 N350 2.140 . S
C337 O338 1.227 . S
C337 O347 1.265 . S
O338 C337 1.227 . S
N339 Co336 2.121 . S
N339 C341 1.375 . S
N339 C342 1.313 . S
C340 C341 1.338 . S
C340 N343 1.377 . S
C340 H360 0.930 . S
C341 N339 1.375 . S
C341 C340 1.338 . S
C341 H345 0.931 . S
C342 N339 1.313 . S
C342 N343 1.344 . S
C342 H346 0.930 . S
N343 C340 1.377 . S
N343 C342 1.344 . S
O344 Co336 2.055 . S
O344 C348 1.253 . S
H345 C341 0.931 . S
H346 C342 0.930 . S
O347 Co336 2.039 . S
O347 C337 1.265 . S
C348 O344 1.253 . S
C348 O349 1.227 . S
O349 C348 1.227 . S
N350 Co336 2.140 . S
N350 C353 1.346 . S
N350 C354 1.345 . S
C351 C352 1.387 . S
C351 C355 1.391 . S
C352 C351 1.387 . S
C352 C353 1.369 . S
C352 H361 0.929 . S
C353 N350 1.346 . S
C353 C352 1.369 . S
C353 H356 0.928 . S
C354 N350 1.345 . S
C354 C355 1.371 . S
C354 H357 0.931 . S
C355 C351 1.391 . S
C355 C354 1.371 . S
C355 H362 0.930 . S
H356 C353 0.928 . S
H357 C354 0.931 . S
H358 C334 0.930 . S
H359 C331 0.930 . S
H360 C340 0.930 . S
H361 C352 0.929 . S
H362 C355 0.930 . S
C363 C364 1.351 . S
C363 N366 1.368 . S
C363 H368 0.931 . S
C364 C363 1.351 . S
C364 N365 1.373 . S
C364 H392 0.930 . S
N365 C364 1.373 . S
N365 C367 1.340 . S
N366 C363 1.368 . S
N366 C367 1.321 . S
N366 Co369 2.135 . S
C367 N365 1.340 . S
C367 N366 1.321 . S
C367 H391 0.930 . S
H368 C363 0.931 . S
Co369 N366 2.135 . S
Co369 N372 2.121 . S
Co369 O377 2.055 . S
Co369 O380 2.039 . S
Co369 N383 2.140 . S
C370 O371 1.227 . S
C370 O380 1.265 . S
O371 C370 1.227 . S
N372 Co369 2.121 . S
N372 C374 1.375 . S
N372 C375 1.313 . S
C373 C374 1.338 . S
C373 N376 1.377 . S
C373 H393 0.930 . S
C374 N372 1.375 . S
C374 C373 1.338 . S
C374 H378 0.931 . S
C375 N372 1.313 . S
C375 N376 1.344 . S
C375 H379 0.930 . S
N376 C373 1.377 . S
N376 C375 1.344 . S
O377 Co369 2.055 . S
O377 C381 1.253 . S
H378 C374 0.931 . S
H379 C375 0.930 . S
O380 Co369 2.039 . S
O380 C370 1.265 . S
C381 O377 1.253 . S
C381 O382 1.227 . S
O382 C381 1.227 . S
N383 Co369 2.140 . S
N383 C386 1.346 . S
N383 C387 1.345 . S
C384 C385 1.387 . S
C384 C388 1.391 . S
C385 C384 1.387 . S
C385 C386 1.369 . S
C385 H394 0.929 . S
C386 N383 1.346 . S
C386 C385 1.369 . S
C386 H389 0.928 . S
C387 N383 1.345 . S
C387 C388 1.371 . S
C387 H390 0.931 . S
C388 C384 1.391 . S
C388 C387 1.371 . S
C388 H395 0.930 . S
H389 C386 0.928 . S
H390 C387 0.931 . S
H391 C367 0.930 . S
H392 C364 0.930 . S
H393 C373 0.930 . S
H394 C385 0.929 . S
H395 C388 0.930 . S
C396 C397 1.351 . S
C396 N399 1.368 . S
C396 H401 0.931 . S
C397 C396 1.351 . S
C397 N398 1.373 . S
C397 H425 0.930 . S
N398 C397 1.373 . S
N398 C400 1.340 . S
N399 C396 1.368 . S
N399 C400 1.321 . S
N399 Co402 2.135 . S
C400 N398 1.340 . S
C400 N399 1.321 . S
C400 H424 0.930 . S
H401 C396 0.931 . S
Co402 N399 2.135 . S
Co402 N405 2.121 . S
Co402 O410 2.055 . S
Co402 O413 2.039 . S
Co402 N416 2.140 . S
C403 O404 1.227 . S
C403 O413 1.265 . S
O404 C403 1.227 . S
N405 Co402 2.121 . S
N405 C407 1.375 . S
N405 C408 1.313 . S
C406 C407 1.338 . S
C406 N409 1.377 . S
C406 H426 0.930 . S
C407 N405 1.375 . S
C407 C406 1.338 . S
C407 H411 0.931 . S
C408 N405 1.313 . S
C408 N409 1.344 . S
C408 H412 0.930 . S
N409 C406 1.377 . S
N409 C408 1.344 . S
O410 Co402 2.055 . S
O410 C414 1.253 . S
H411 C407 0.931 . S
H412 C408 0.930 . S
O413 Co402 2.039 . S
O413 C403 1.265 . S
C414 O410 1.253 . S
C414 O415 1.227 . S
O415 C414 1.227 . S
N416 Co402 2.140 . S
N416 C419 1.346 . S
N416 C420 1.345 . S
C417 C418 1.387 . S
C417 C421 1.391 . S
C418 C417 1.387 . S
C418 C419 1.369 . S
C418 H427 0.929 . S
C419 N416 1.346 . S
C419 C418 1.369 . S
C419 H422 0.928 . S
C420 N416 1.345 . S
C420 C421 1.371 . S
C420 H423 0.931 . S
C421 C417 1.391 . S
C421 C420 1.371 . S
C421 H428 0.930 . S
H422 C419 0.928 . S
H423 C420 0.931 . S
H424 C400 0.930 . S
H425 C397 0.930 . S
H426 C406 0.930 . S
H427 C418 0.929 . S
H428 C421 0.930 . S
C429 C430 1.351 . S
C429 N432 1.368 . S
C429 H434 0.931 . S
C430 C429 1.351 . S
C430 N431 1.373 . S
C430 H458 0.930 . S
N431 C430 1.373 . S
N431 C433 1.340 . S
N432 C429 1.368 . S
N432 C433 1.321 . S
N432 Co435 2.135 . S
C433 N431 1.340 . S
C433 N432 1.321 . S
C433 H457 0.930 . S
H434 C429 0.931 . S
Co435 N432 2.135 . S
Co435 N438 2.121 1_554 S
Co435 O443 2.055 . S
Co435 O446 2.037 1_455 S
Co435 N449 2.140 . S
C436 O437 1.202 1_655 S
C436 O446 1.265 . S
O437 C436 1.202 1_455 S
N438 Co435 2.121 1_556 S
N438 C440 1.375 . S
N438 C441 1.313 . S
C439 C440 1.338 . S
C439 N442 1.377 . S
C439 H459 0.930 . S
C440 N438 1.375 . S
C440 C439 1.338 . S
C440 H444 0.931 . S
C441 N438 1.313 . S
C441 N442 1.344 . S
C441 H445 0.930 . S
N442 C439 1.377 . S
N442 C441 1.344 . S
O443 Co435 2.055 . S
O443 C447 1.253 . S
H444 C440 0.931 . S
H445 C441 0.930 . S
O446 Co435 2.037 1_655 S
O446 C436 1.265 . S
C447 O443 1.253 . S
C447 O448 1.227 . S
O448 C447 1.227 . S
N449 Co435 2.140 . S
N449 C452 1.346 . S
N449 C453 1.345 . S
C450 C451 1.387 . S
C450 C454 1.391 . S
C451 C450 1.387 . S
C451 C452 1.369 . S
C451 H460 0.929 . S
C452 N449 1.346 . S
C452 C451 1.369 . S
C452 H455 0.928 . S
C453 N449 1.345 . S
C453 C454 1.371 . S
C453 H456 0.931 1_554 S
C454 C450 1.391 . S
C454 C453 1.371 . S
C454 H461 0.930 1_554 S
H455 C452 0.928 . S
H456 C453 0.931 1_556 S
H457 C433 0.930 . S
H458 C430 0.930 . S
H459 C439 0.930 . S
H460 C451 0.929 . S
H461 C454 0.930 1_556 S
C462 C463 1.351 . S
C462 N465 1.368 . S
C462 H467 0.931 . S
C463 C462 1.351 . S
C463 N464 1.373 . S
C463 H491 0.930 . S
N464 C463 1.373 . S
N464 C466 1.340 . S
N465 C462 1.368 . S
N465 C466 1.321 . S
N465 Co468 2.135 . S
C466 N464 1.340 . S
C466 N465 1.321 . S
C466 H490 0.930 . S
H467 C462 0.931 . S
Co468 N465 2.135 . S
Co468 N471 2.121 . S
Co468 O476 2.055 . S
Co468 O479 2.039 . S
Co468 N482 2.140 . S
C469 O470 1.227 . S
C469 O479 1.265 . S
O470 C469 1.227 . S
N471 Co468 2.121 . S
N471 C473 1.375 . S
N471 C474 1.313 . S
C472 C473 1.338 . S
C472 N475 1.377 . S
C472 H492 0.930 . S
C473 N471 1.375 . S
C473 C472 1.338 . S
C473 H477 0.931 . S
C474 N471 1.313 . S
C474 N475 1.344 . S
C474 H478 0.930 . S
N475 C472 1.377 . S
N475 C474 1.344 . S
O476 Co468 2.055 . S
O476 C480 1.253 . S
H477 C473 0.931 . S
H478 C474 0.930 . S
O479 Co468 2.039 . S
O479 C469 1.265 . S
C480 O476 1.253 . S
C480 O481 1.227 . S
O481 C480 1.227 . S
N482 Co468 2.140 . S
N482 C485 1.346 . S
N482 C486 1.345 . S
C483 C484 1.387 . S
C483 C487 1.391 . S
C484 C483 1.387 . S
C484 C485 1.369 . S
C484 H493 0.929 . S
C485 N482 1.346 . S
C485 C484 1.369 . S
C485 H488 0.928 . S
C486 N482 1.345 . S
C486 C487 1.371 . S
C486 H489 0.931 . S
C487 C483 1.391 . S
C487 C486 1.371 . S
C487 H494 0.930 . S
H488 C485 0.928 . S
H489 C486 0.931 . S
H490 C466 0.930 . S
H491 C463 0.930 . S
H492 C472 0.930 . S
H493 C484 0.929 . S
H494 C487 0.930 . S
C495 C496 1.351 . S
C495 N498 1.368 . S
C495 H500 0.931 . S
C496 C495 1.351 . S
C496 N497 1.373 . S
C496 H524 0.930 . S
N497 C496 1.373 . S
N497 C499 1.340 . S
N498 C495 1.368 . S
N498 C499 1.321 . S
N498 Co501 2.135 . S
C499 N497 1.340 . S
C499 N498 1.321 . S
C499 H523 0.930 . S
H500 C495 0.931 . S
Co501 N498 2.135 . S
Co501 N504 2.121 1_556 S
Co501 O509 2.055 . S
Co501 O512 2.037 1_455 S
Co501 N515 2.140 . S
C502 O503 1.202 1_655 S
C502 O512 1.265 . S
O503 C502 1.202 1_455 S
N504 Co501 2.121 1_554 S
N504 C506 1.375 . S
N504 C507 1.313 . S
C505 C506 1.338 . S
C505 N508 1.377 . S
C505 H525 0.930 . S
C506 N504 1.375 . S
C506 C505 1.338 . S
C506 H510 0.931 . S
C507 N504 1.313 . S
C507 N508 1.344 . S
C507 H511 0.930 . S
N508 C505 1.377 . S
N508 C507 1.344 . S
O509 Co501 2.055 . S
O509 C513 1.253 . S
H510 C506 0.931 . S
H511 C507 0.930 . S
O512 Co501 2.037 1_655 S
O512 C502 1.265 . S
C513 O509 1.253 . S
C513 O514 1.227 . S
O514 C513 1.227 . S
N515 Co501 2.140 . S
N515 C518 1.346 . S
N515 C519 1.345 . S
C516 C517 1.387 . S
C516 C520 1.391 . S
C517 C516 1.387 . S
C517 C518 1.369 . S
C517 H526 0.929 . S
C518 N515 1.346 . S
C518 C517 1.369 . S
C518 H521 0.928 . S
C519 N515 1.345 . S
C519 C520 1.371 . S
C519 H522 0.931 1_556 S
C520 C516 1.391 . S
C520 C519 1.371 . S
C520 H527 0.930 1_556 S
H521 C518 0.928 . S
H522 C519 0.931 1_554 S
H523 C499 0.930 . S
H524 C496 0.930 . S
H525 C505 0.930 . S
H526 C517 0.929 . S
H527 C520 0.930 1_554 S
C528 C529 1.369 . S
C528 C530 1.419 . S
C528 H532 0.930 . S
C529 C528 1.369 . S
C529 C538 1.429 . S
C530 C528 1.419 . S
C530 C531 1.363 . S
C530 H533 0.929 . S
C531 C530 1.363 . S
C531 C537 1.428 . S
H532 C528 0.930 . S
H533 C530 0.929 . S
S534 N535 1.613 . S
S534 N536 1.610 . S
N535 S534 1.613 . S
N535 C538 1.350 . S
N536 S534 1.610 . S
N536 C537 1.351 . S
C537 C531 1.428 . S
C537 N536 1.351 . S
C537 C538 1.434 . S
C538 C529 1.429 . S
C538 N535 1.350 . S
C538 C537 1.434 . S
C539 C540 1.369 . S
C539 C541 1.419 . S
C539 H543 0.930 . S
C540 C539 1.369 . S
C540 C549 1.429 . S
C541 C539 1.419 . S
C541 C542 1.363 . S
C541 H544 0.929 . S
C542 C541 1.363 . S
C542 C548 1.428 . S
H543 C539 0.930 . S
H544 C541 0.929 . S
S545 N546 1.613 . S
S545 N547 1.610 . S
N546 S545 1.613 . S
N546 C549 1.350 . S
N547 S545 1.610 . S
N547 C548 1.351 . S
C548 C542 1.428 . S
C548 N547 1.351 . S
C548 C549 1.434 . S
C549 C540 1.429 . S
C549 N546 1.350 . S
C549 C548 1.434 . S
C550 C551 1.369 . S
C550 C552 1.419 . S
C550 H554 0.930 . S
C551 C550 1.369 . S
C551 C560 1.429 . S
C552 C550 1.419 . S
C552 C553 1.363 1_554 S
C552 H555 0.929 . S
C553 C552 1.363 1_556 S
C553 C559 1.428 1_556 S
H554 C550 0.930 . S
H555 C552 0.929 . S
S556 N557 1.613 . S
S556 N558 1.610 1_554 S
N557 S556 1.613 . S
N557 C560 1.350 . S
N558 S556 1.610 1_556 S
N558 C559 1.351 1_556 S
C559 C553 1.428 1_554 S
C559 N558 1.351 1_554 S
C559 C560 1.434 . S
C560 C551 1.429 . S
C560 N557 1.350 . S
C560 C559 1.434 . S
C561 C562 1.369 . S
C561 C563 1.419 . S
C561 H565 0.930 . S
C562 C561 1.369 . S
C562 C571 1.429 . S
C563 C561 1.419 . S
C563 C564 1.363 . S
C563 H566 0.929 . S
C564 C563 1.363 . S
C564 C570 1.428 . S
H565 C561 0.930 . S
H566 C563 0.929 . S
S567 N568 1.613 . S
S567 N569 1.610 . S
N568 S567 1.613 . S
N568 C571 1.350 . S
N569 S567 1.610 . S
N569 C570 1.351 . S
C570 C564 1.428 . S
C570 N569 1.351 . S
C570 C571 1.434 . S
C571 C562 1.429 . S
C571 N568 1.350 . S
C571 C570 1.434 . S
C572 C573 1.369 . S
C572 C574 1.419 . S
C572 H576 0.930 . S
C573 C572 1.369 . S
C573 C582 1.429 . S
C574 C572 1.419 . S
C574 C575 1.363 . S
C574 H577 0.929 . S
C575 C574 1.363 . S
C575 C581 1.428 . S
H576 C572 0.930 . S
H577 C574 0.929 . S
S578 N579 1.613 . S
S578 N580 1.610 . S
N579 S578 1.613 . S
N579 C582 1.350 . S
N580 S578 1.610 . S
N580 C581 1.351 . S
C581 C575 1.428 . S
C581 N580 1.351 . S
C581 C582 1.434 . S
C582 C573 1.429 . S
C582 N579 1.350 . S
C582 C581 1.434 . S
C583 C584 1.369 . S
C583 C585 1.419 . S
C583 H587 0.930 . S
C584 C583 1.369 . S
C584 C593 1.429 . S
C585 C583 1.419 . S
C585 C586 1.363 . S
C585 H588 0.929 . S
C586 C585 1.363 . S
C586 C592 1.428 . S
H587 C583 0.930 . S
H588 C585 0.929 . S
S589 N590 1.613 . S
S589 N591 1.610 . S
N590 S589 1.613 . S
N590 C593 1.350 . S
N591 S589 1.610 . S
N591 C592 1.351 . S
C592 C586 1.428 . S
C592 N591 1.351 . S
C592 C593 1.434 . S
C593 C584 1.429 . S
C593 N590 1.350 . S
C593 C592 1.434 . S
C594 C595 1.369 . S
C594 C596 1.419 . S
C594 H598 0.930 . S
C595 C594 1.369 . S
C595 C604 1.429 . S
C596 C594 1.419 . S
C596 C597 1.363 1_556 S
C596 H599 0.929 . S
C597 C596 1.363 1_554 S
C597 C603 1.428 1_554 S
H598 C594 0.930 . S
H599 C596 0.929 . S
S600 N601 1.613 . S
S600 N602 1.610 . S
N601 S600 1.613 . S
N601 C604 1.350 . S
N602 S600 1.610 . S
N602 C603 1.351 . S
C603 C597 1.428 1_556 S
C603 N602 1.351 . S
C603 C604 1.434 . S
C604 C595 1.429 . S
C604 N601 1.350 . S
C604 C603 1.434 . S
C605 C606 1.369 . S
C605 C607 1.419 . S
C605 H609 0.930 . S
C606 C605 1.369 . S
C606 C615 1.429 . S
C607 C605 1.419 . S
C607 C608 1.363 . S
C607 H610 0.929 . S
C608 C607 1.363 . S
C608 C614 1.428 . S
H609 C605 0.930 . S
H610 C607 0.929 . S
S611 N612 1.613 . S
S611 N613 1.610 . S
N612 S611 1.613 . S
N612 C615 1.350 . S
N613 S611 1.610 . S
N613 C614 1.351 . S
C614 C608 1.428 . S
C614 N613 1.351 . S
C614 C615 1.434 . S
C615 C606 1.429 . S
C615 N612 1.350 . S
C615 C614 1.434 . S
C616 C617 1.369 . S
C616 C618 1.419 . S
C616 H620 0.930 . S
C617 C616 1.369 . S
C617 C626 1.429 . S
C618 C616 1.419 . S
C618 C619 1.363 . S
C618 H621 0.929 . S
C619 C618 1.363 . S
C619 C625 1.428 . S
H620 C616 0.930 . S
H621 C618 0.929 . S
S622 N623 1.613 . S
S622 N624 1.610 . S
N623 S622 1.613 . S
N623 C626 1.350 . S
N624 S622 1.610 . S
N624 C625 1.351 . S
C625 C619 1.428 . S
C625 N624 1.351 . S
C625 C626 1.434 . S
C626 C617 1.429 . S
C626 N623 1.350 . S
C626 C625 1.434 . S
C627 C628 1.369 . S
C627 C629 1.419 . S
C627 H631 0.930 . S
C628 C627 1.369 . S
C628 C637 1.429 . S
C629 C627 1.419 . S
C629 C630 1.363 . S
C629 H632 0.929 . S
C630 C629 1.363 . S
C630 C636 1.428 . S
H631 C627 0.930 . S
H632 C629 0.929 . S
S633 N634 1.613 . S
S633 N635 1.610 . S
N634 S633 1.613 . S
N634 C637 1.350 . S
N635 S633 1.610 . S
N635 C636 1.351 . S
C636 C630 1.428 . S
C636 N635 1.351 . S
C636 C637 1.434 . S
C637 C628 1.429 . S
C637 N634 1.350 . S
C637 C636 1.434 . S
C638 C639 1.369 . S
C638 C640 1.419 . S
C638 H642 0.930 . S
C639 C638 1.369 . S
C639 C648 1.429 . S
C640 C638 1.419 . S
C640 C641 1.363 . S
C640 H643 0.929 . S
C641 C640 1.363 . S
C641 C647 1.428 . S
H642 C638 0.930 . S
H643 C640 0.929 . S
S644 N645 1.613 . S
S644 N646 1.610 . S
N645 S644 1.613 . S
N645 C648 1.350 . S
N646 S644 1.610 . S
N646 C647 1.351 . S
C647 C641 1.428 . S
C647 N646 1.351 . S
C647 C648 1.434 . S
C648 C639 1.429 . S
C648 N645 1.350 . S
C648 C647 1.434 . S
C649 C650 1.369 . S
C649 C651 1.419 . S
C649 H653 0.930 . S
C650 C649 1.369 . S
C650 C659 1.429 . S
C651 C649 1.419 . S
C651 C652 1.363 . S
C651 H654 0.929 . S
C652 C651 1.363 . S
C652 C658 1.428 . S
H653 C649 0.930 . S
H654 C651 0.929 . S
S655 N656 1.613 . S
S655 N657 1.610 . S
N656 S655 1.613 . S
N656 C659 1.350 . S
N657 S655 1.610 . S
N657 C658 1.351 . S
C658 C652 1.428 . S
C658 N657 1.351 . S
C658 C659 1.434 . S
C659 C650 1.429 . S
C659 N656 1.350 . S
C659 C658 1.434 . S
C660 C661 1.369 1_554 S
C660 C662 1.419 . S
C660 H664 0.930 . S
C661 C660 1.369 1_556 S
C661 C670 1.429 1_556 S
C662 C660 1.419 . S
C662 C663 1.363 . S
C662 H665 0.929 . S
C663 C662 1.363 . S
C663 C669 1.428 . S
H664 C660 0.930 . S
H665 C662 0.929 . S
S666 N667 1.605 1_554 S
S666 N668 1.610 . S
N667 S666 1.605 1_556 S
N667 C670 1.345 1_556 S
N668 S666 1.610 . S
N668 C669 1.351 . S
C669 C663 1.428 . S
C669 N668 1.351 . S
C669 C670 1.434 . S
C670 C661 1.429 1_554 S
C670 N667 1.345 1_554 S
C670 C669 1.434 . S
C671 C672 1.369 . S
C671 C673 1.419 . S
C671 H675 0.930 . S
C672 C671 1.369 . S
C672 C681 1.429 . S
C673 C671 1.419 . S
C673 C674 1.363 . S
C673 H676 0.929 . S
C674 C673 1.363 . S
C674 C680 1.428 . S
H675 C671 0.930 . S
H676 C673 0.929 . S
S677 N678 1.613 . S
S677 N679 1.610 . S
N678 S677 1.613 . S
N678 C681 1.350 . S
N679 S677 1.610 . S
N679 C680 1.351 . S
C680 C674 1.428 . S
C680 N679 1.351 . S
C680 C681 1.434 . S
C681 C672 1.429 . S
C681 N678 1.350 . S
C681 C680 1.434 . S
C682 C683 1.369 1_556 S
C682 C684 1.419 . S
C682 H686 0.930 . S
C683 C682 1.369 1_554 S
C683 C692 1.429 1_554 S
C684 C682 1.419 . S
C684 C685 1.363 . S
C684 H687 0.929 . S
C685 C684 1.363 . S
C685 C691 1.428 . S
H686 C682 0.930 . S
H687 C684 0.929 . S
S688 N689 1.613 1_556 S
S688 N690 1.610 . S
N689 S688 1.613 1_554 S
N689 C692 1.350 1_554 S
N690 S688 1.610 . S
N690 C691 1.351 . S
C691 C685 1.428 . S
C691 N690 1.351 . S
C691 C692 1.434 . S
C692 C683 1.429 1_556 S
C692 N689 1.350 1_556 S
C692 C691 1.434 . S
C693 C694 1.369 . S
C693 C695 1.419 . S
C693 H697 0.930 . S
C694 C693 1.369 . S
C694 C703 1.429 . S
C695 C693 1.419 . S
C695 C696 1.363 . S
C695 H698 0.929 . S
C696 C695 1.363 . S
C696 C702 1.428 . S
H697 C693 0.930 . S
H698 C695 0.929 . S
S699 N700 1.613 . S
S699 N701 1.610 . S
N700 S699 1.613 . S
N700 C703 1.350 . S
N701 S699 1.610 . S
N701 C702 1.351 . S
C702 C696 1.428 . S
C702 N701 1.351 . S
C702 C703 1.434 . S
C703 C694 1.429 . S
C703 N700 1.350 . S
C703 C702 1.434 . S
C704 C705 1.369 . S
C704 C706 1.419 . S
C704 H708 0.930 . S
C705 C704 1.369 . S
C705 C714 1.429 1_554 S
C706 C704 1.419 . S
C706 C707 1.363 1_554 S
C706 H709 0.929 . S
C707 C706 1.363 1_556 S
C707 C713 1.428 . S
H708 C704 0.930 . S
H709 C706 0.929 . S
S710 N711 1.613 . S
S710 N712 1.610 . S
N711 S710 1.613 . S
N711 C714 1.350 . S
N712 S710 1.610 . S
N712 C713 1.351 . S
C713 C707 1.428 . S
C713 N712 1.351 . S
C713 C714 1.434 . S
C714 C705 1.429 1_556 S
C714 N711 1.350 . S
C714 C713 1.434 . S
C715 C716 1.369 . S
C715 C717 1.419 . S
C715 H719 0.930 . S
C716 C715 1.369 . S
C716 C725 1.429 . S
C717 C715 1.419 . S
C717 C718 1.363 . S
C717 H720 0.929 . S
C718 C717 1.363 . S
C718 C724 1.428 . S
H719 C715 0.930 . S
H720 C717 0.929 . S
S721 N722 1.613 . S
S721 N723 1.610 . S
N722 S721 1.613 . S
N722 C725 1.350 . S
N723 S721 1.610 . S
N723 C724 1.351 . S
C724 C718 1.428 . S
C724 N723 1.351 . S
C724 C725 1.434 . S
C725 C716 1.429 . S
C725 N722 1.350 . S
C725 C724 1.434 . S
C726 C727 1.369 . S
C726 C728 1.419 . S
C726 H730 0.930 . S
C727 C726 1.369 . S
C727 C736 1.429 . S
C728 C726 1.419 . S
C728 C729 1.363 . S
C728 H731 0.929 . S
C729 C728 1.363 . S
C729 C735 1.428 . S
H730 C726 0.930 . S
H731 C728 0.929 . S
S732 N733 1.613 . S
S732 N734 1.610 . S
N733 S732 1.613 . S
N733 C736 1.350 . S
N734 S732 1.610 . S
N734 C735 1.351 . S
C735 C729 1.428 . S
C735 N734 1.351 . S
C735 C736 1.434 . S
C736 C727 1.429 . S
C736 N733 1.350 . S
C736 C735 1.434 . S
C737 C738 1.369 . S
C737 C739 1.419 . S
C737 H741 0.930 . S
C738 C737 1.369 . S
C738 C747 1.429 . S
C739 C737 1.419 . S
C739 C740 1.363 . S
C739 H742 0.929 . S
C740 C739 1.363 . S
C740 C746 1.428 . S
H741 C737 0.930 . S
H742 C739 0.929 . S
S743 N744 1.613 . S
S743 N745 1.610 . S
N744 S743 1.613 . S
N744 C747 1.350 . S
N745 S743 1.610 . S
N745 C746 1.351 . S
C746 C740 1.428 . S
C746 N745 1.351 . S
C746 C747 1.434 . S
C747 C738 1.429 . S
C747 N744 1.350 . S
C747 C746 1.434 . S
C748 C749 1.369 . S
C748 C750 1.419 . S
C748 H752 0.930 . S
C749 C748 1.369 . S
C749 C758 1.429 . S
C750 C748 1.419 . S
C750 C751 1.363 . S
C750 H753 0.929 . S
C751 C750 1.363 . S
C751 C757 1.428 . S
H752 C748 0.930 . S
H753 C750 0.929 . S
S754 N755 1.613 . S
S754 N756 1.610 . S
N755 S754 1.613 . S
N755 C758 1.350 . S
N756 S754 1.610 . S
N756 C757 1.351 . S
C757 C751 1.428 . S
C757 N756 1.351 . S
C757 C758 1.434 . S
C758 C749 1.429 . S
C758 N755 1.350 . S
C758 C757 1.434 . S
C759 C760 1.369 . S
C759 C761 1.419 . S
C759 H763 0.930 . S
C760 C759 1.369 . S
C760 C769 1.429 . S
C761 C759 1.419 . S
C761 C762 1.363 . S
C761 H764 0.929 . S
C762 C761 1.363 . S
C762 C768 1.428 . S
H763 C759 0.930 . S
H764 C761 0.929 . S
S765 N766 1.613 . S
S765 N767 1.610 . S
N766 S765 1.613 . S
N766 C769 1.350 . S
N767 S765 1.610 . S
N767 C768 1.351 . S
C768 C762 1.428 . S
C768 N767 1.351 . S
C768 C769 1.434 . S
C769 C760 1.429 . S
C769 N766 1.350 . S
C769 C768 1.434 . S
C770 C771 1.369 . S
C770 C772 1.419 1_545 S
C770 H774 0.930 . S
C771 C770 1.369 . S
C771 C780 1.429 . S
C772 C770 1.419 1_565 S
C772 C773 1.363 . S
C772 H775 0.929 . S
C773 C772 1.363 . S
C773 C779 1.428 . S
H774 C770 0.930 . S
H775 C772 0.929 . S
S776 N777 1.613 . S
S776 N778 1.610 1_545 S
N777 S776 1.613 . S
N777 C780 1.350 . S
N778 S776 1.610 1_565 S
N778 C779 1.351 . S
C779 C773 1.428 . S
C779 N778 1.351 . S
C779 C780 1.434 1_565 S
C780 C771 1.429 . S
C780 N777 1.350 . S
C780 C779 1.434 1_545 S
C781 C782 1.369 1_556 S
C781 C783 1.419 1_565 S
C781 H785 0.930 . S
C782 C781 1.369 1_554 S
C782 C791 1.429 . S
C783 C781 1.419 1_545 S
C783 C784 1.363 . S
C783 H786 0.929 . S
C784 C783 1.363 . S
C784 C790 1.428 1_556 S
H785 C781 0.930 . S
H786 C783 0.929 . S
S787 N788 1.613 1_545 S
S787 N789 1.610 . S
N788 S787 1.613 1_565 S
N788 C791 1.350 . S
N789 S787 1.610 . S
N789 C790 1.351 . S
C790 C784 1.428 1_554 S
C790 N789 1.351 . S
C790 C791 1.434 1_545 S
C791 C782 1.429 . S
C791 N788 1.350 . S
C791 C790 1.434 1_565 S
C792 C793 1.369 . S
C792 C794 1.419 . S
C792 H796 0.930 . S
C793 C792 1.369 . S
C793 C802 1.429 . S
C794 C792 1.419 . S
C794 C795 1.363 . S
C794 H797 0.929 . S
C795 C794 1.363 . S
C795 C801 1.428 . S
H796 C792 0.930 . S
H797 C794 0.929 . S
S798 N799 1.613 . S
S798 N800 1.610 . S
N799 S798 1.613 . S
N799 C802 1.350 . S
N800 S798 1.610 . S
N800 C801 1.351 . S
C801 C795 1.428 . S
C801 N800 1.351 . S
C801 C802 1.434 . S
C802 C793 1.429 . S
C802 N799 1.350 . S
C802 C801 1.434 . S
C803 C804 1.369 . S
C803 C805 1.419 . S
C803 H807 0.930 . S
C804 C803 1.369 . S
C804 C813 1.429 . S
C805 C803 1.419 . S
C805 C806 1.363 . S
C805 H808 0.929 . S
C806 C805 1.363 . S
C806 C812 1.428 . S
H807 C803 0.930 . S
H808 C805 0.929 . S
S809 N810 1.613 . S
S809 N811 1.610 . S
N810 S809 1.613 . S
N810 C813 1.350 . S
N811 S809 1.610 . S
N811 C812 1.351 . S
C812 C806 1.428 . S
C812 N811 1.351 . S
C812 C813 1.434 . S
C813 C804 1.429 . S
C813 N810 1.350 . S
C813 C812 1.434 . S
C814 C815 1.369 . S
C814 C816 1.419 . S
C814 H818 0.930 . S
C815 C814 1.369 . S
C815 C824 1.429 . S
C816 C814 1.419 . S
C816 C817 1.363 . S
C816 H819 0.929 . S
C817 C816 1.363 . S
C817 C823 1.428 . S
H818 C814 0.930 . S
H819 C816 0.929 . S
S820 N821 1.613 . S
S820 N822 1.610 . S
N821 S820 1.613 . S
N821 C824 1.350 . S
N822 S820 1.610 . S
N822 C823 1.351 . S
C823 C817 1.428 . S
C823 N822 1.351 . S
C823 C824 1.434 . S
C824 C815 1.429 . S
C824 N821 1.350 . S
C824 C823 1.434 . S
C825 C826 1.369 . S
C825 C827 1.419 . S
C825 H829 0.930 . S
C826 C825 1.369 . S
C826 C835 1.429 . S
C827 C825 1.419 . S
C827 C828 1.363 . S
C827 H830 0.929 . S
C828 C827 1.363 . S
C828 C834 1.428 . S
H829 C825 0.930 . S
H830 C827 0.929 . S
S831 N832 1.613 . S
S831 N833 1.610 . S
N832 S831 1.613 . S
N832 C835 1.350 . S
N833 S831 1.610 . S
N833 C834 1.351 . S
C834 C828 1.428 . S
C834 N833 1.351 . S
C834 C835 1.434 . S
C835 C826 1.429 . S
C835 N832 1.350 . S
C835 C834 1.434 . S
C836 C837 1.369 . S
C836 C838 1.419 . S
C836 H840 0.930 1_556 S
C837 C836 1.369 . S
C837 C846 1.429 . S
C838 C836 1.419 . S
C838 C839 1.363 . S
C838 H841 0.929 1_556 S
C839 C838 1.363 . S
C839 C845 1.428 . S
H840 C836 0.930 1_554 S
H841 C838 0.929 1_554 S
S842 N843 1.613 . S
S842 N844 1.610 . S
N843 S842 1.613 . S
N843 C846 1.350 . S
N844 S842 1.610 . S
N844 C845 1.351 . S
C845 C839 1.428 . S
C845 N844 1.351 . S
C845 C846 1.434 . S
C846 C837 1.429 . S
C846 N843 1.350 . S
C846 C845 1.434 . S
C847 C848 1.369 . S
C847 C849 1.419 . S
C847 H851 0.930 . S
C848 C847 1.369 . S
C848 C857 1.429 . S
C849 C847 1.419 . S
C849 C850 1.363 . S
C849 H852 0.929 . S
C850 C849 1.363 . S
C850 C856 1.428 . S
H851 C847 0.930 . S
H852 C849 0.929 . S
S853 N854 1.613 . S
S853 N855 1.610 . S
N854 S853 1.613 . S
N854 C857 1.350 . S
N855 S853 1.610 . S
N855 C856 1.351 . S
C856 C850 1.428 . S
C856 N855 1.351 . S
C856 C857 1.434 . S
C857 C848 1.429 . S
C857 N854 1.350 . S
C857 C856 1.434 . S
C858 C859 1.369 . S
C858 C860 1.419 . S
C858 H862 0.930 . S
C859 C858 1.369 . S
C859 C868 1.429 . S
C860 C858 1.419 . S
C860 C861 1.363 . S
C860 H863 0.929 . S
C861 C860 1.363 . S
C861 C867 1.428 . S
H862 C858 0.930 . S
H863 C860 0.929 . S
S864 N865 1.613 . S
S864 N866 1.610 . S
N865 S864 1.613 . S
N865 C868 1.350 . S
N866 S864 1.610 . S
N866 C867 1.351 . S
C867 C861 1.428 . S
C867 N866 1.351 . S
C867 C868 1.434 . S
C868 C859 1.429 . S
C868 N865 1.350 . S
C868 C867 1.434 . S
C869 C870 1.369 . S
C869 C871 1.419 . S
C869 H873 0.930 . S
C870 C869 1.369 . S
C870 C879 1.429 . S
C871 C869 1.419 . S
C871 C872 1.363 . S
C871 H874 0.929 . S
C872 C871 1.363 . S
C872 C878 1.428 . S
H873 C869 0.930 . S
H874 C871 0.929 . S
S875 N876 1.613 . S
S875 N877 1.610 . S
N876 S875 1.613 . S
N876 C879 1.350 . S
N877 S875 1.610 . S
N877 C878 1.351 . S
C878 C872 1.428 . S
C878 N877 1.351 . S
C878 C879 1.434 . S
C879 C870 1.429 . S
C879 N876 1.350 . S
C879 C878 1.434 . S
C880 C881 1.369 . S
C880 C882 1.419 . S
C880 H884 0.930 . S
C881 C880 1.369 . S
C881 C890 1.429 . S
C882 C880 1.419 . S
C882 C883 1.363 . S
C882 H885 0.929 . S
C883 C882 1.363 . S
C883 C889 1.428 . S
H884 C880 0.930 . S
H885 C882 0.929 . S
S886 N887 1.613 . S
S886 N888 1.610 1_455 S
N887 S886 1.613 . S
N887 C890 1.350 1_455 S
N888 S886 1.610 1_655 S
N888 C889 1.351 . S
C889 C883 1.428 . S
C889 N888 1.351 . S
C889 C890 1.434 . S
C890 C881 1.429 . S
C890 N887 1.350 1_655 S
C890 C889 1.434 . S
C891 C892 1.369 . S
C891 C893 1.419 . S
C891 H895 0.930 . S
C892 C891 1.369 . S
C892 C901 1.429 . S
C893 C891 1.419 . S
C893 C894 1.363 . S
C893 H896 0.929 . S
C894 C893 1.363 . S
C894 C900 1.428 . S
H895 C891 0.930 . S
H896 C893 0.929 . S
S897 N898 1.613 . S
S897 N899 1.610 . S
N898 S897 1.613 . S
N898 C901 1.350 . S
N899 S897 1.610 . S
N899 C900 1.351 . S
C900 C894 1.428 . S
C900 N899 1.351 . S
C900 C901 1.434 . S
C901 C892 1.429 . S
C901 N898 1.350 . S
C901 C900 1.434 . S
C902 C903 1.369 . S
C902 C904 1.419 . S
C902 H906 0.930 . S
C903 C902 1.369 . S
C903 C912 1.429 . S
C904 C902 1.419 . S
C904 C905 1.363 . S
C904 H907 0.929 . S
C905 C904 1.363 . S
C905 C911 1.428 . S
H906 C902 0.930 . S
H907 C904 0.929 . S
S908 N909 1.613 . S
S908 N910 1.610 . S
N909 S908 1.613 . S
N909 C912 1.350 . S
N910 S908 1.610 . S
N910 C911 1.351 . S
C911 C905 1.428 . S
C911 N910 1.351 . S
C911 C912 1.434 . S
C912 C903 1.429 . S
C912 N909 1.350 . S
C912 C911 1.434 . S
C913 C914 1.369 . S
C913 C915 1.419 . S
C913 H917 0.930 1_554 S
C914 C913 1.369 . S
C914 C923 1.429 . S
C915 C913 1.419 . S
C915 C916 1.363 . S
C915 H918 0.929 . S
C916 C915 1.363 . S
C916 C922 1.428 . S
H917 C913 0.930 1_556 S
H918 C915 0.929 . S
S919 N920 1.613 . S
S919 N921 1.610 . S
N920 S919 1.613 . S
N920 C923 1.350 . S
N921 S919 1.610 . S
N921 C922 1.351 . S
C922 C916 1.428 . S
C922 N921 1.351 . S
C922 C923 1.434 . S
C923 C914 1.429 . S
C923 N920 1.350 . S
C923 C922 1.434 . S
C924 C925 1.369 . S
C924 C926 1.419 . S
C924 H928 0.930 . S
C925 C924 1.369 . S
C925 C934 1.429 . S
C926 C924 1.419 . S
C926 C927 1.363 . S
C926 H929 0.929 . S
C927 C926 1.363 . S
C927 C933 1.428 . S
H928 C924 0.930 . S
H929 C926 0.929 . S
S930 N931 1.613 1_455 S
S930 N932 1.610 . S
N931 S930 1.613 1_655 S
N931 C934 1.350 . S
N932 S930 1.610 . S
N932 C933 1.351 1_455 S
C933 C927 1.428 . S
C933 N932 1.351 1_655 S
C933 C934 1.434 . S
C934 C925 1.429 . S
C934 N931 1.350 . S
C934 C933 1.434 . S
C935 C936 1.369 . S
C935 C937 1.419 . S
C935 H939 0.930 . S
C936 C935 1.369 . S
C936 C945 1.429 . S
C937 C935 1.419 . S
C937 C938 1.363 . S
C937 H940 0.929 . S
C938 C937 1.363 . S
C938 C944 1.428 . S
H939 C935 0.930 . S
H940 C937 0.929 . S
S941 N942 1.613 . S
S941 N943 1.610 . S
N942 S941 1.613 . S
N942 C945 1.350 . S
N943 S941 1.610 . S
N943 C944 1.351 . S
C944 C938 1.428 . S
C944 N943 1.351 . S
C944 C945 1.434 . S
C945 C936 1.429 . S
C945 N942 1.350 . S
C945 C944 1.434 . S
C946 C947 1.369 . S
C946 C948 1.419 . S
C946 H950 0.930 . S
C947 C946 1.369 . S
C947 C956 1.429 . S
C948 C946 1.419 . S
C948 C949 1.363 . S
C948 H951 0.929 . S
C949 C948 1.363 . S
C949 C955 1.428 . S
H950 C946 0.930 . S
H951 C948 0.929 . S
S952 N953 1.613 . S
S952 N954 1.610 . S
N953 S952 1.613 . S
N953 C956 1.350 . S
N954 S952 1.610 . S
N954 C955 1.351 . S
C955 C949 1.428 . S
C955 N954 1.351 . S
C955 C956 1.434 . S
C956 C947 1.429 . S
C956 N953 1.350 . S
C956 C955 1.434 . S
C957 C958 1.369 . S
C957 C959 1.419 . S
C957 H961 0.930 . S
C958 C957 1.369 . S
C958 C967 1.429 . S
C959 C957 1.419 . S
C959 C960 1.363 . S
C959 H962 0.929 . S
C960 C959 1.363 . S
C960 C966 1.428 . S
H961 C957 0.930 . S
H962 C959 0.929 . S
S963 N964 1.613 . S
S963 N965 1.610 . S
N964 S963 1.613 . S
N964 C967 1.350 . S
N965 S963 1.610 . S
N965 C966 1.351 . S
C966 C960 1.428 . S
C966 N965 1.351 . S
C966 C967 1.434 . S
C967 C958 1.429 . S
C967 N964 1.350 . S
C967 C966 1.434 . S
C529 N13 1.454 . S
C531 N2 1.450 . S
C540 N46 1.451 1_556 S
C542 N35 1.452 . S
C551 N79 1.457 . S
C553 N68 1.448 . S
C562 N112 1.453 . S
C564 N101 1.451 . S
C573 N145 1.450 . S
C575 N134 1.454 . S
C584 N178 1.454 . S
C586 N167 1.451 . S
C595 N211 1.454 . S
C597 N200 1.450 . S
C606 N233 1.447 . S
C608 N244 1.456 1_554 S
C617 N266 1.449 . S
C619 N277 1.455 1_554 S
C628 N310 1.452 . S
C630 N299 1.451 . S
C639 N343 1.453 . S
C641 N332 1.451 . S
C650 N365 1.450 . S
C652 N376 1.454 1_556 S
C661 N398 1.455 . S
C663 N409 1.451 . S
C672 N442 1.451 . S
C674 N431 1.453 . S
C683 N464 1.454 . S
C685 N475 1.451 . S
C694 N508 1.451 . S
C696 N497 1.453 . S
C705 C18 1.174 . S
C707 C150 1.174 . S
C716 C183 1.176 . S
C718 C51 1.173 . S
C727 C216 1.172 . S
C729 C84 1.175 . S
C738 C117 1.176 . S
C740 C249 1.172 . S
C749 C348 1.175 . S
C751 C282 1.173 . S
C760 C315 1.176 . S
C762 C381 1.172 . S
C771 C414 1.172 . S
C773 C480 1.176 . S
C782 C447 1.176 . S
C784 C513 1.172 . S
C793 C304 1.482 . S
C795 C7 1.482 . S
C804 C469 1.482 . S
C806 C40 1.481 . S
C815 C73 1.478 . S
C817 C271 1.479 . S
C826 C502 1.507 . S
C828 C106 1.482 . S
C837 C337 1.482 . S
C839 C139 1.481 . S
C848 C436 1.507 . S
C850 C172 1.482 . S
C859 C205 1.480 . S
C861 C370 1.479 . S
C870 C238 1.482 . S
C872 C403 1.480 . S
C881 C153 1.497 1_655 S
C883 C120 1.498 . S
C892 C417 1.497 . S
C894 C285 1.498 . S
C903 C54 1.498 . S
C905 C219 1.498 . S
C914 C450 1.500 . S
C916 C318 1.500 . S
C925 C186 1.497 . S
C927 C21 1.498 1_655 S
C936 C351 1.498 . S
C938 C516 1.498 . S
C947 C252 1.497 . S
C949 C87 1.498 . S
C958 C483 1.497 . S
C960 C384 1.498 . S
