# Generated by pormake.
# Topology swf, (7)-cn, num edge types: 1
# Building blocks:
#     Node 0, Type 0, BuildingBlock: HICVOG_clean_sbu_0, # of connection points: 7
#     Node 1, Type 0, BuildingBlock: HICVOG_clean_sbu_0, # of connection points: 7
#     Node 2, Type 0, BuildingBlock: HICVOG_clean_sbu_0, # of connection points: 7
#     Node 3, Type 0, BuildingBlock: HICVOG_clean_sbu_0, # of connection points: 7
#     Node 4, Type 0, BuildingBlock: HICVOG_clean_sbu_0, # of connection points: 7
#     Node 5, Type 0, BuildingBlock: HICVOG_clean_sbu_0, # of connection points: 7
#     Node 6, Type 0, BuildingBlock: HICVOG_clean_sbu_0, # of connection points: 7
#     Node 7, Type 0, BuildingBlock: HICVOG_clean_sbu_0, # of connection points: 7
#     Node 8, Type 0, BuildingBlock: HICVOG_clean_sbu_0, # of connection points: 7
#     Node 9, Type 0, BuildingBlock: HICVOG_clean_sbu_0, # of connection points: 7
#     Node 10, Type 0, BuildingBlock: HICVOG_clean_sbu_0, # of connection points: 7
#     Node 11, Type 0, BuildingBlock: HICVOG_clean_sbu_0, # of connection points: 7
#     Edge 12, Type (0, 0), BuildingBlock: KIFKEQ_clean_linker_1, # of connection points: 2
#     Edge 13, Type (0, 0), BuildingBlock: KIFKEQ_clean_linker_1, # of connection points: 2
#     Edge 14, Type (0, 0), BuildingBlock: KIFKEQ_clean_linker_1, # of connection points: 2
#     Edge 15, Type (0, 0), BuildingBlock: KIFKEQ_clean_linker_1, # of connection points: 2
#     Edge 16, Type (0, 0), BuildingBlock: KIFKEQ_clean_linker_1, # of connection points: 2
#     Edge 17, Type (0, 0), BuildingBlock: KIFKEQ_clean_linker_1, # of connection points: 2
#     Edge 18, Type (0, 0), BuildingBlock: KIFKEQ_clean_linker_1, # of connection points: 2
#     Edge 19, Type (0, 0), BuildingBlock: KIFKEQ_clean_linker_1, # of connection points: 2
#     Edge 20, Type (0, 0), BuildingBlock: KIFKEQ_clean_linker_1, # of connection points: 2
#     Edge 21, Type (0, 0), BuildingBlock: KIFKEQ_clean_linker_1, # of connection points: 2
#     Edge 22, Type (0, 0), BuildingBlock: KIFKEQ_clean_linker_1, # of connection points: 2
#     Edge 23, Type (0, 0), BuildingBlock: KIFKEQ_clean_linker_1, # of connection points: 2
#     Edge 24, Type (0, 0), BuildingBlock: KIFKEQ_clean_linker_1, # of connection points: 2
#     Edge 25, Type (0, 0), BuildingBlock: KIFKEQ_clean_linker_1, # of connection points: 2
#     Edge 26, Type (0, 0), BuildingBlock: KIFKEQ_clean_linker_1, # of connection points: 2
#     Edge 27, Type (0, 0), BuildingBlock: KIFKEQ_clean_linker_1, # of connection points: 2
#     Edge 28, Type (0, 0), BuildingBlock: KIFKEQ_clean_linker_1, # of connection points: 2
#     Edge 29, Type (0, 0), BuildingBlock: KIFKEQ_clean_linker_1, # of connection points: 2
#     Edge 30, Type (0, 0), BuildingBlock: KIFKEQ_clean_linker_1, # of connection points: 2
#     Edge 31, Type (0, 0), BuildingBlock: KIFKEQ_clean_linker_1, # of connection points: 2
#     Edge 32, Type (0, 0), BuildingBlock: KIFKEQ_clean_linker_1, # of connection points: 2
#     Edge 33, Type (0, 0), BuildingBlock: KIFKEQ_clean_linker_1, # of connection points: 2
#     Edge 34, Type (0, 0), BuildingBlock: KIFKEQ_clean_linker_1, # of connection points: 2
#     Edge 35, Type (0, 0), BuildingBlock: KIFKEQ_clean_linker_1, # of connection points: 2
#     Edge 36, Type (0, 0), BuildingBlock: KIFKEQ_clean_linker_1, # of connection points: 2
#     Edge 37, Type (0, 0), BuildingBlock: KIFKEQ_clean_linker_1, # of connection points: 2
#     Edge 38, Type (0, 0), BuildingBlock: KIFKEQ_clean_linker_1, # of connection points: 2
#     Edge 39, Type (0, 0), BuildingBlock: KIFKEQ_clean_linker_1, # of connection points: 2
#     Edge 40, Type (0, 0), BuildingBlock: KIFKEQ_clean_linker_1, # of connection points: 2
#     Edge 41, Type (0, 0), BuildingBlock: KIFKEQ_clean_linker_1, # of connection points: 2
#     Edge 42, Type (0, 0), BuildingBlock: KIFKEQ_clean_linker_1, # of connection points: 2
#     Edge 43, Type (0, 0), BuildingBlock: KIFKEQ_clean_linker_1, # of connection points: 2
#     Edge 44, Type (0, 0), BuildingBlock: KIFKEQ_clean_linker_1, # of connection points: 2
#     Edge 45, Type (0, 0), BuildingBlock: KIFKEQ_clean_linker_1, # of connection points: 2
#     Edge 46, Type (0, 0), BuildingBlock: KIFKEQ_clean_linker_1, # of connection points: 2
#     Edge 47, Type (0, 0), BuildingBlock: KIFKEQ_clean_linker_1, # of connection points: 2
#     Edge 48, Type (0, 0), BuildingBlock: KIFKEQ_clean_linker_1, # of connection points: 2
#     Edge 49, Type (0, 0), BuildingBlock: KIFKEQ_clean_linker_1, # of connection points: 2
#     Edge 50, Type (0, 0), BuildingBlock: KIFKEQ_clean_linker_1, # of connection points: 2
#     Edge 51, Type (0, 0), BuildingBlock: KIFKEQ_clean_linker_1, # of connection points: 2
#     Edge 52, Type (0, 0), BuildingBlock: KIFKEQ_clean_linker_1, # of connection points: 2
#     Edge 53, Type (0, 0), BuildingBlock: KIFKEQ_clean_linker_1, # of connection points: 2
# Relax obj value: 0.350
# Max RMSD: 0.195
# Mean RMSD: 0.195
data_MOF--net-swf--node1-HICVOG_clean_sbu_0--edge1-KIFKEQ_clean_linker_1
_symmetry_space_group_name_H-M    P1
_symmetry_Int_Tables_number       1
_symmetry_cell_setting            triclinic
loop_
_symmetry_equiv_pos_as_xyz
'x, y, z'
_cell_length_a     47.327906
_cell_length_b     47.118129
_cell_length_c     24.222457
_cell_angle_alpha  89.894858
_cell_angle_beta   89.926765
_cell_angle_gamma 119.96528
loop_
_atom_site_label
_atom_site_type_symbol
_atom_site_fract_x
_atom_site_fract_y
_atom_site_fract_z
_atom_type_partial_charge
Zn0 Zn 0.44997 0.14139 0.99787 0.0
C1 C 0.45928 0.20801 0.11113 0.0
N2 N 0.45673 0.22451 1.06685 0.0
C3 C 0.45695 0.20691 1.02249 0.0
N4 N 0.45976 0.1808 1.03942 0.0
N5 N 0.4622 0.18192 0.09397 0.0
C6 C 0.42082 0.09081 0.1767 0.0
O7 O 0.42035 0.07989 0.12667 0.0
O8 O 0.46958 0.15549 0.92198 0.0
Zn9 Zn 0.4759 0.15443 0.13654 0.0
N10 N 0.40304 0.11591 1.00412 0.0
C11 C 0.35781 0.09999 1.06462 0.0
C12 C 0.39125 0.11558 1.05553 0.0
C13 C 0.38257 0.10099 0.96122 0.0
N14 N 0.33728 0.08508 1.02189 0.0
C15 C 0.34861 0.08521 0.97017 0.0
O16 O 0.49362 0.12703 0.09964 0.0
C17 C 0.48638 0.1092 1.05671 0.0
O18 O 0.46875 0.11159 1.01938 0.0
H19 H 0.40771 0.1275 0.0894 0.0
H20 H 0.39282 0.10119 0.92121 0.0
C21 C 0.51031 0.18037 0.23543 0.0
C22 C 0.52917 0.20651 0.2711 0.0
C23 C 0.55234 0.24144 0.19308 0.0
C24 C 0.53205 0.21582 0.15832 0.0
N25 N 0.51107 0.18609 0.18053 0.0
N26 N 0.55004 0.23634 0.24847 0.0
H27 H 0.49338 0.15612 0.25036 0.0
C28 C 0.499 0.17872 0.92541 0.0
O29 O 0.51104 0.19045 0.97436 0.0
O30 O 0.4406 0.1207 0.18785 0.0
H31 H 0.53184 0.2199 0.1144 0.0
H32 H 0.3482 0.09959 0.10535 0.0
H33 H 0.56891 0.26548 0.17645 0.0
Zn34 Zn 0.34305 0.47651 1.00386 0.0
C35 C 0.29079 0.49562 0.11158 0.0
N36 N 0.27384 0.49611 1.06656 0.0
C37 C 0.29084 0.49314 1.02365 0.0
N38 N 0.31689 0.49114 1.04245 0.0
N39 N 0.31705 0.49325 0.09681 0.0
C40 C 0.34032 0.44343 0.19553 0.0
O41 O 0.34951 0.44075 0.14558 0.0
O42 O 0.35268 0.49643 0.92803 0.0
Zn43 Zn 0.35286 0.50254 0.14694 0.0
N44 N 0.31594 0.42933 1.0077 0.0
C45 C 0.27733 0.38357 1.0608 0.0
C46 C 0.29863 0.41704 1.05527 0.0
C47 C 0.31209 0.40936 0.96472 0.0
N48 N 0.27359 0.36354 1.01804 0.0
C49 C 0.29008 0.37553 0.96979 0.0
O50 O 0.39621 0.50785 0.11769 0.0
C51 C 0.40766 0.50227 1.07403 0.0
O52 O 0.38976 0.49057 1.03138 0.0
H53 H 0.30105 0.43305 0.08882 0.0
H54 H 0.3261 0.4198 0.92738 0.0
C55 C 0.35613 0.54881 0.22774 0.0
C56 C 0.357 0.57819 0.2415 0.0
C57 C 0.37251 0.59709 0.14943 0.0
C58 C 0.37123 0.56782 0.13584 0.0
N59 N 0.36276 0.54426 0.17502 0.0
N60 N 0.36525 0.60152 0.20171 0.0
H61 H 0.34838 0.52906 0.25735 0.0
C62 C 0.36291 0.52704 0.93044 0.0
O63 O 0.36213 0.53996 0.97799 0.0
O64 O 0.3387 0.46884 0.2076 0.0
H65 H 0.37554 0.56321 0.09381 0.0
H66 H 0.26374 0.37358 0.09866 0.0
H67 H 0.37875 0.61595 0.11859 0.0
Zn68 Zn 0.89083 0.32011 1.03003 0.0
C69 C 0.82132 0.26203 0.13813 0.0
N70 N 0.80417 0.24539 0.09271 0.0
C71 C 0.82358 0.26338 1.0498 0.0
N72 N 0.85105 0.29016 1.06903 0.0
N73 N 0.84947 0.28934 0.12364 0.0
C74 C 0.92872 0.31708 0.21037 0.0
O75 O 0.93559 0.32147 0.15739 0.0
O76 O 0.87824 0.3307 0.95703 0.0
Zn77 Zn 0.87563 0.3255 0.17483 0.0
N78 N 0.91616 0.29804 1.02885 0.0
C79 C 0.92252 0.25379 1.06144 0.0
C80 C 0.90408 0.26917 1.05693 0.0
C81 C 0.94614 0.31212 1.00509 0.0
N82 N 0.95241 0.26779 1.0377 0.0
C83 C 0.96499 0.29667 1.00969 0.0
O84 O 0.90824 0.37232 0.14564 0.0
C85 C 0.92447 0.38503 0.10148 0.0
O86 O 0.9199 0.36722 1.05918 0.0
H87 H 0.88049 0.25815 0.07653 0.0
H88 H 0.95472 0.33481 0.98261 0.0
C89 C 0.83582 0.31993 0.2691 0.0
C90 C 0.80631 0.31474 0.29207 0.0
C91 C 0.79156 0.32686 0.20509 0.0
C92 C 0.82075 0.33193 0.18258 0.0
N93 N 0.84204 0.32802 0.21477 0.0
N94 N 0.78505 0.31841 0.25906 0.0
H95 H 0.85292 0.31618 0.29316 0.0
C96 C 0.86081 0.34378 0.9666 0.0
O97 O 0.85216 0.3448 1.01781 0.0
O98 O 0.90258 0.31556 0.22745 0.0
H99 H 0.82581 0.33736 0.13907 0.0
H100 H 0.9132 0.23092 0.08373 0.0
H101 H 0.77405 0.32932 0.17986 0.0
Zn102 Zn 0.54432 0.87152 0.11904 0.0
C103 C 0.57624 0.82921 1.00753 0.0
N104 N 0.58287 0.81634 1.05276 0.0
C105 C 0.5759 0.83026 0.09627 0.0
N106 N 0.56566 0.85111 0.07773 0.0
N107 N 0.56609 0.8504 1.02288 0.0
C108 C 0.49199 0.83533 0.9631 0.0
O109 O 0.49801 0.8423 1.01561 0.0
O110 O 0.57017 0.89695 0.18717 0.0
Zn111 Zn 0.55679 0.87641 0.97008 0.0
N112 N 0.49968 0.83635 0.13182 0.0
C113 C 0.45989 0.77963 0.1272 0.0
C114 C 0.49229 0.80449 0.12893 0.0
C115 C 0.47571 0.84423 0.13164 0.0
N116 N 0.43604 0.78754 0.12675 0.0
C117 C 0.44287 0.81922 0.12847 0.0
O118 O 0.55003 0.91502 0.99451 0.0
C119 C 0.54248 0.92394 1.03913 0.0
O120 O 0.53979 0.90847 0.0836 0.0
H121 H 0.51118 0.79822 0.12547 0.0
H122 H 0.48254 0.86978 0.1305 0.0
C123 C 0.61989 0.92107 0.94983 0.0
C124 C 0.64935 0.93974 0.92157 0.0
C125 C 0.6262 0.90499 0.84352 0.0
C126 C 0.59643 0.88774 0.87114 0.0
N127 N 0.59414 0.8963 0.92368 0.0
N128 N 0.65168 0.93079 0.86893 0.0
H129 H 0.61667 0.92606 0.99216 0.0
C130 C 0.59604 0.92392 0.17651 0.0
O131 O 0.60542 0.93099 0.12478 0.0
O132 O 0.51584 0.84692 0.9296 0.0
H133 H 0.57554 0.86776 0.85126 0.0
H134 H 0.45372 0.75425 0.12482 0.0
H135 H 0.62884 0.89849 0.80179 0.0
Zn136 Zn 0.70773 0.56443 1.00654 0.0
C137 C 0.76113 0.54903 0.1197 0.0
N138 N 0.78081 0.55292 0.07575 0.0
C139 C 0.76377 0.55407 1.03132 0.0
N140 N 0.73502 0.55144 1.04818 0.0
N141 N 0.7329 0.54728 0.10249 0.0
C142 C 0.70576 0.57882 0.21095 0.0
O143 O 0.7141 0.59108 0.16098 0.0
O144 O 0.69218 0.53716 0.9377 0.0
Zn145 Zn 0.69076 0.52753 0.14173 0.0
N146 N 0.73587 0.61154 1.0011 0.0
C147 C 0.77715 0.65928 1.04608 0.0
C148 C 0.75547 0.62573 1.04561 0.0
C149 C 0.73724 0.62973 0.95669 0.0
N150 N 0.7785 0.67752 1.00189 0.0
C151 C 0.75932 0.66367 0.95693 0.0
O152 O 0.65274 0.53308 0.11439 0.0
C153 C 0.6439 0.54383 1.07382 0.0
O154 O 0.66289 0.55647 1.03276 0.0
H155 H 0.75449 0.61116 0.08063 0.0
H156 H 0.72105 0.61788 0.92224 0.0
C157 C 0.64254 0.46179 0.11904 0.0
C158 C 0.63116 0.43034 0.09642 0.0
C159 C 0.68465 0.43823 0.10444 0.0
C160 C 0.69563 0.46931 0.12609 0.0
N161 N 0.67442 0.48061 0.13324 0.0
N162 N 0.65288 0.41961 0.09021 0.0
H163 H 0.62684 0.47201 0.12413 0.0
C164 C 0.67943 0.50688 0.94956 0.0
O165 O 0.6819 0.49845 1.00026 0.0
O166 O 0.6954 0.54834 0.21761 0.0
H167 H 0.72124 0.48462 0.13428 0.0
H168 H 0.79274 0.67076 0.08133 0.0
H169 H 0.70135 0.42913 0.09816 0.0
Zn170 Zn 0.16727 0.67474 0.16219 0.0
C171 C 0.21564 0.74866 1.05518 0.0
N172 N 0.23314 0.76604 0.09977 0.0
C173 C 0.21706 0.74583 0.14325 0.0
N174 N 0.19111 0.7173 0.12536 0.0
N175 N 0.19002 0.71957 1.07109 0.0
C176 C 0.18674 0.67335 0.96788 0.0
O177 O 0.18769 0.66604 1.01995 0.0
O178 O 0.15119 0.6783 0.23835 0.0
Zn179 Zn 0.15229 0.694 1.02472 0.0
N180 N 0.19611 0.65676 0.15205 0.0
C181 C 0.24869 0.66616 0.12629 0.0
C182 C 0.229 0.67711 0.14967 0.0
C183 C 0.18226 0.6259 0.13111 0.0
N184 N 0.23476 0.63546 0.10533 0.0
C185 C 0.2019 0.61476 0.10644 0.0
O186 O 0.11524 0.6465 1.04498 0.0
C187 C 0.10664 0.62854 0.08815 0.0
O188 O 0.1239 0.63862 0.13145 0.0
H189 H 0.23996 0.70226 0.16261 0.0
H190 H 0.15613 0.61098 0.13151 0.0
C191 C 0.1185 0.72467 0.97425 0.0
C192 C 0.10613 0.74632 0.97445 0.0
C193 C 0.12631 0.76312 1.0649 0.0
C194 C 0.13814 0.74141 1.06487 0.0
N195 N 0.13403 0.72256 1.01967 0.0
N196 N 0.11029 0.76486 1.01997 0.0
H197 H 0.11501 0.70893 0.93938 0.0
C198 C 0.13247 0.69032 0.23286 0.0
O199 O 0.13008 0.70084 0.18383 0.0
O200 O 0.17098 0.68777 0.95498 0.0
H201 H 0.15063 0.73982 0.10081 0.0
H202 H 0.27483 0.68218 0.12375 0.0
H203 H 0.12946 0.77817 0.10061 0.0
Zn204 Zn 0.88178 0.5469 0.49444 0.0
C205 C 0.82377 0.54807 0.61897 0.0
N206 N 0.8039 0.54493 0.57583 0.0
C207 C 0.82158 0.54602 0.53061 0.0
N208 N 0.85051 0.54903 0.54539 0.0
N209 N 0.85197 0.55029 0.59996 0.0
C210 C 0.86546 0.50641 0.69623 0.0
O211 O 0.85934 0.49867 0.64379 0.0
O212 O 0.91208 0.58908 0.45391 0.0
Zn213 Zn 0.89221 0.56275 0.63896 0.0
N214 N 0.85478 0.51365 0.44359 0.0
C215 C 0.83038 0.49254 0.35673 0.0
C216 C 0.85278 0.5186 0.38888 0.0
C217 C 0.8361 0.48393 0.46749 0.0
N218 N 0.81206 0.46257 0.38043 0.0
C219 C 0.81449 0.45731 0.4352 0.0
O220 O 0.92478 0.54936 0.60927 0.0
C221 C 0.92974 0.53645 0.56693 0.0
O222 O 0.91312 0.53196 0.52324 0.0
H223 H 0.86786 0.5426 0.37086 0.0
H224 H 0.8384 0.48144 0.51139 0.0
C225 C 0.93193 0.62843 0.68432 0.0
C226 C 0.94521 0.66262 0.68296 0.0
C227 C 0.91935 0.65827 0.59743 0.0
C228 C 0.90605 0.62448 0.59902 0.0
N229 N 0.91278 0.61014 0.64208 0.0
N230 N 0.93876 0.67661 0.63926 0.0
H231 H 0.93705 0.61649 0.71788 0.0
C232 C 0.93901 0.60766 0.47805 0.0
O233 O 0.94218 0.60178 0.52992 0.0
O234 O 0.88016 0.53658 0.70957 0.0
H235 H 0.89087 0.60997 0.56538 0.0
H236 H 0.82785 0.49596 0.31322 0.0
H237 H 0.91444 0.66987 0.56309 0.0
Zn238 Zn 0.33806 0.86749 0.52186 0.0
C239 C 0.27539 0.80872 0.64196 0.0
N240 N 0.25973 0.78873 0.59848 0.0
C241 C 0.27692 0.80687 0.55397 0.0
N242 N 0.30237 0.83604 0.56969 0.0
N243 N 0.30123 0.83744 0.6241 0.0
C244 C 0.33848 0.84306 0.74002 0.0
O245 O 0.34634 0.8359 0.69206 0.0
O246 O 0.32712 0.89616 0.47377 0.0
Zn247 Zn 0.32788 0.87787 0.6641 0.0
N248 N 0.34414 0.83967 0.47224 0.0
C249 C 0.35181 0.79429 0.45671 0.0
C250 C 0.35211 0.81766 0.49219 0.0
C251 C 0.3361 0.83962 0.41855 0.0
N252 N 0.34349 0.79402 0.40302 0.0
C253 C 0.33547 0.81608 0.38264 0.0
O254 O 0.37698 0.90707 0.64325 0.0
C255 C 0.39546 0.91279 0.6013 0.0
O256 O 0.38338 0.89854 0.55553 0.0
H257 H 0.35763 0.81771 0.53553 0.0
H258 H 0.32874 0.85679 0.40517 0.0
C259 C 0.298 0.9167 0.69435 0.0
C260 C 0.27868 0.93108 0.68307 0.0
C261 C 0.27359 0.91378 0.59009 0.0
C262 C 0.29248 0.8995 0.60153 0.0
N263 N 0.30453 0.90136 0.65318 0.0
N264 N 0.26724 0.92935 0.63097 0.0
H265 H 0.30818 0.91797 0.73483 0.0
C266 C 0.33929 0.92668 0.48265 0.0
O267 O 0.35542 0.93923 0.5286 0.0
O268 O 0.3295 0.86437 0.742 0.0
H269 H 0.2973 0.88682 0.56934 0.0
H270 H 0.35781 0.77631 0.47174 0.0
H271 H 0.26408 0.91256 0.54903 0.0
Zn272 Zn 0.45468 0.33187 0.63042 0.0
C273 C 0.46294 0.27223 0.52179 0.0
N274 N 0.46159 0.25408 0.56665 0.0
C275 C 0.46159 0.27236 0.61034 0.0
N276 N 0.46353 0.30075 0.59208 0.0
N277 N 0.46474 0.30067 0.53748 0.0
C278 C 0.41476 0.34032 0.46343 0.0
O279 O 0.42081 0.35398 0.5124 0.0
O280 O 0.47515 0.34115 0.70575 0.0
Zn281 Zn 0.47257 0.33684 0.48757 0.0
N282 N 0.40751 0.30988 0.62846 0.0
C283 C 0.35946 0.27516 0.57718 0.0
C284 C 0.39325 0.29311 0.58134 0.0
C285 C 0.38913 0.30871 0.67227 0.0
N286 N 0.34104 0.27412 0.62077 0.0
C287 C 0.35493 0.29009 0.66856 0.0
O288 O 0.4914 0.38389 0.51594 0.0
C289 C 0.48841 0.39723 0.5595 0.0
O290 O 0.47415 0.37975 0.60185 0.0
H291 H 0.40792 0.29361 0.54695 0.0
H292 H 0.40114 0.32226 0.70919 0.0
C293 C 0.49738 0.33466 0.38182 0.0
C294 C 0.51885 0.33159 0.34565 0.0
C295 C 0.55243 0.33606 0.42191 0.0
C296 C 0.53101 0.3391 0.45748 0.0
N297 N 0.50392 0.33812 0.43664 0.0
N298 N 0.54585 0.33236 0.36706 0.0
H299 H 0.47498 0.33295 0.36752 0.0
C300 C 0.50385 0.3453 0.70621 0.0
O301 O 0.51566 0.33989 0.6609 0.0
O302 O 0.43255 0.32919 0.4453 0.0
H303 H 0.53532 0.34128 0.50152 0.0
H304 H 0.34794 0.26209 0.53966 0.0
H305 H 0.57397 0.33639 0.43767 0.0
Zn306 Zn 0.16701 0.47867 0.49039 0.0
C307 C 0.23153 0.48892 0.61043 0.0
N308 N 0.25138 0.49327 0.56664 0.0
C309 C 0.2317 0.48845 0.52239 0.0
N310 N 0.20164 0.48193 0.53855 0.0
N311 N 0.20167 0.48243 0.59305 0.0
C312 C 0.19818 0.52991 0.69181 0.0
O313 O 0.20081 0.53762 0.63915 0.0
O314 O 0.14123 0.4352 0.45137 0.0
Zn315 Zn 0.16466 0.47165 0.63909 0.0
N316 N 0.18926 0.51125 0.43525 0.0
C317 C 0.22771 0.56633 0.41292 0.0
C318 C 0.20951 0.54245 0.45202 0.0
C319 C 0.18606 0.5027 0.3812 0.0
N320 N 0.22458 0.5579 0.35885 0.0
C321 C 0.20418 0.52665 0.34135 0.0
O322 O 0.12902 0.48171 0.6126 0.0
C323 C 0.11939 0.48838 0.56782 0.0
O324 O 0.13271 0.48862 0.52199 0.0
H325 H 0.21185 0.54844 0.49548 0.0
H326 H 0.17026 0.47737 0.37035 0.0
C327 C 0.13675 0.41429 0.70641 0.0
C328 C 0.12642 0.38128 0.71774 0.0
C329 C 0.13709 0.37397 0.62467 0.0
C330 C 0.1474 0.40674 0.61376 0.0
N331 N 0.14684 0.4261 0.65478 0.0
N332 N 0.12667 0.36196 0.67621 0.0
H333 H 0.13645 0.4305 0.73766 0.0
C334 C 0.11372 0.41352 0.47032 0.0
O335 O 0.10506 0.41732 0.52007 0.0
O336 O 0.18268 0.49982 0.7056 0.0
H337 H 0.15625 0.41681 0.57313 0.0
H338 H 0.24423 0.59132 0.4253 0.0
H339 H 0.13731 0.3582 0.59249 0.0
Zn340 Zn 0.69959 0.14469 0.67926 0.0
C341 C 0.75874 0.19676 0.54967 0.0
N342 N 0.77952 0.21278 0.59229 0.0
C343 C 0.76113 0.19866 0.63815 0.0
N344 N 0.7307 0.17477 0.6241 0.0
N345 N 0.72891 0.17343 0.56938 0.0
C346 C 0.68833 0.10028 0.46796 0.0
O347 O 0.69316 0.09309 0.51824 0.0
O348 O 0.68323 0.16889 0.72476 0.0
Zn349 Zn 0.68658 0.14964 0.53151 0.0
N350 N 0.7263 0.13262 0.72155 0.0
C351 C 0.77008 0.12168 0.71652 0.0
C352 C 0.74654 0.12634 0.69069 0.0
C353 C 0.72809 0.13378 0.77756 0.0
N354 N 0.77128 0.12178 0.77236 0.0
C355 C 0.7507 0.12721 0.80425 0.0
O356 O 0.64859 0.11052 0.57027 0.0
C357 C 0.63817 0.09384 0.61444 0.0
O358 O 0.6559 0.10274 0.65768 0.0
H359 H 0.74506 0.12607 0.64612 0.0
H360 H 0.712 0.13957 0.80038 0.0
C361 C 0.64018 0.17105 0.52861 0.0
C362 C 0.62958 0.19385 0.53596 0.0
C363 C 0.6846 0.23704 0.53245 0.0
C364 C 0.69493 0.21434 0.52616 0.0
N365 N 0.67257 0.18176 0.52397 0.0
N366 N 0.65232 0.22631 0.53731 0.0
H367 H 0.62327 0.145 0.52957 0.0
C368 C 0.66588 0.17666 0.69546 0.0
O369 O 0.66356 0.17039 0.64246 0.0
O370 O 0.68717 0.12645 0.46049 0.0
H371 H 0.72066 0.22285 0.52546 0.0
H372 H 0.78683 0.11734 0.69252 0.0
H373 H 0.70211 0.26297 0.53441 0.0
Zn374 Zn 0.57632 0.70329 0.47397 0.0
C375 C 0.57669 0.76392 0.5957 0.0
N376 N 0.57437 0.78097 0.55206 0.0
C377 C 0.57634 0.76458 0.50719 0.0
N378 N 0.57885 0.73824 0.52276 0.0
N379 N 0.57913 0.73788 0.57742 0.0
C380 C 0.53684 0.69026 0.68483 0.0
O381 O 0.52651 0.69139 0.63501 0.0
O382 O 0.61866 0.71116 0.43828 0.0
Zn383 Zn 0.58911 0.70858 0.61802 0.0
N384 N 0.54728 0.70065 0.4175 0.0
C385 C 0.53311 0.7063 0.32596 0.0
C386 C 0.55495 0.70498 0.36297 0.0
C387 C 0.51867 0.6968 0.43669 0.0
N388 N 0.50438 0.70239 0.34515 0.0
C389 C 0.49634 0.6975 0.39982 0.0
O390 O 0.57033 0.6606 0.59173 0.0
C391 C 0.55737 0.64286 0.54927 0.0
O392 O 0.55611 0.656 0.50398 0.0
H393 H 0.57819 0.70852 0.34883 0.0
H394 H 0.51404 0.694 0.48064 0.0
C395 C 0.65406 0.73123 0.66119 0.0
C396 C 0.6883 0.74963 0.65833 0.0
C397 C 0.685 0.768 0.56892 0.0
C398 C 0.65116 0.75 0.57202 0.0
N399 N 0.63627 0.73167 0.61777 0.0
N400 N 0.70283 0.76728 0.61198 0.0
H401 H 0.6416 0.71634 0.6969 0.0
C402 C 0.63345 0.69795 0.46137 0.0
O403 O 0.62505 0.68656 0.51179 0.0
O404 O 0.56692 0.69966 0.69183 0.0
H405 H 0.637 0.75043 0.53762 0.0
H406 H 0.53888 0.71037 0.28242 0.0
H407 H 0.69702 0.78231 0.53249 0.0
H408 H 0.43104 0.10005 0.28758 0.0
H409 H 0.36806 0.02909 0.16741 0.0
H410 H 0.40524 0.05988 0.36054 0.0
H411 H 0.34065 0.9891 0.24099 0.0
H412 H 0.33493 0.91504 0.37178 0.0
H413 H 0.34949 0.95493 0.29799 0.0
H414 H 0.3616 0.02829 0.41757 0.0
H415 H 0.349 0.98862 0.49161 0.0
C416 C 0.41106 0.07603 0.27692 0.0
C417 C 0.40182 0.06766 0.2216 0.0
C418 C 0.39598 0.0529 0.319 0.0
C419 C 0.37078 0.02088 0.3071 0.0
C420 C 0.36042 0.01315 0.25188 0.0
C421 C 0.37596 0.03616 0.20962 0.0
C422 C 0.34012 0.93954 0.38218 0.0
C423 C 0.3412 0.94882 0.43756 0.0
C424 C 0.3484 0.96254 0.33969 0.0
C425 C 0.35734 0.99526 0.35145 0.0
C426 C 0.35591 1.00371 0.40676 0.0
C427 C 0.34831 0.98088 0.44931 0.0
H428 H 0.32815 0.38116 0.18079 0.0
H429 H 0.347 0.45306 0.30697 0.0
H430 H 0.33502 0.34673 0.24837 0.0
H431 H 0.3554 0.41954 0.37406 0.0
H432 H 0.36813 0.35566 0.49141 0.0
H433 H 0.33862 0.37235 0.42908 0.0
H434 H 0.38209 0.35126 0.28935 0.0
H435 H 0.41032 0.33343 0.35146 0.0
C436 C 0.33331 0.38936 0.22325 0.0
C437 C 0.33763 0.42001 0.23852 0.0
C438 C 0.33745 0.36973 0.26192 0.0
C439 C 0.34652 0.38061 0.31647 0.0
C440 C 0.34823 0.41015 0.3326 0.0
C441 C 0.34358 0.42955 0.29405 0.0
C442 C 0.37069 0.35387 0.4473 0.0
C443 C 0.39193 0.34375 0.4263 0.0
C444 C 0.35395 0.36362 0.41157 0.0
C445 C 0.35837 0.36379 0.35412 0.0
C446 C 0.37773 0.35125 0.33324 0.0
C447 C 0.39416 0.34114 0.36894 0.0
H448 H 0.0549 0.36047 0.49741 0.0
H449 H 0.11558 0.41254 0.35753 0.0
H450 H 1.00948 0.32807 0.43543 0.0
H451 H 0.07003 0.38135 0.29588 0.0
H452 H 0.98614 0.31841 0.18864 0.0
H453 H 0.03124 0.33285 0.25215 0.0
H454 H 0.97373 0.33927 0.38525 0.0
H455 H 0.92845 0.32356 0.32243 0.0
C456 C 0.05869 0.36463 0.45334 0.0
C457 C 0.08874 0.38934 0.4325 0.0
C458 C 0.03255 0.34625 0.41777 0.0
C459 C 0.03572 0.35244 0.36056 0.0
C460 C 0.06655 0.37558 0.33951 0.0
C461 C 0.09279 0.39365 0.37502 0.0
C462 C 0.98293 0.32224 0.23175 0.0
C463 C 0.95383 0.32022 0.25031 0.0
C464 C 1.0089 0.33076 0.26814 0.0
C465 C 1.00648 0.33777 0.32386 0.0
C466 C 0.97657 0.33376 0.34293 0.0
C467 C 0.95053 0.32492 0.3067 0.0
H468 H 0.5839 0.91852 0.28814 0.0
H469 H 0.64645 0.98644 0.16299 0.0
H470 H 0.60895 0.96177 0.35743 0.0
H471 H 0.67148 0.02943 0.23216 0.0
H472 H 0.67521 0.10547 0.35902 0.0
H473 H 0.65512 0.06254 0.28884 0.0
H474 H 0.66101 0.99648 0.40591 0.0
H475 H 0.68084 0.03911 0.47595 0.0
C476 C 0.60321 0.94253 0.2755 0.0
C477 C 0.61307 0.94897 0.21996 0.0
C478 C 0.61764 0.96731 0.31523 0.0
C479 C 0.64211 0.99915 0.30026 0.0
C480 C 0.65241 1.00534 0.24494 0.0
C481 C 0.63818 0.98055 0.20536 0.0
C482 C 0.67257 0.08192 0.36958 0.0
C483 C 0.67956 0.07577 0.42321 0.0
C484 C 0.66112 0.05731 0.32933 0.0
C485 C 0.65621 0.02596 0.34191 0.0
C486 C 0.66404 0.02016 0.39509 0.0
C487 C 0.67567 0.04476 0.43513 0.0
H488 H 0.73051 0.64472 0.20838 0.0
H489 H 0.67576 0.55982 0.31251 0.0
H490 H 0.71963 0.67792 0.2722 0.0
H491 H 0.66463 0.59321 0.37647 0.0
H492 H 0.66446 0.66578 0.4977 0.0
H493 H 0.68789 0.63969 0.44184 0.0
H494 H 0.67017 0.68011 0.29448 0.0
H495 H 0.64683 0.70638 0.3503 0.0
C496 C 0.71649 0.63318 0.24535 0.0
C497 C 0.70368 0.59948 0.25506 0.0
C498 C 0.71013 0.65226 0.28177 0.0
C499 C 0.6909 0.63817 0.329 0.0
C500 C 0.67969 0.60488 0.34054 0.0
C501 C 0.68602 0.5857 0.3039 0.0
C502 C 0.66611 0.66967 0.45345 0.0
C503 C 0.65351 0.68801 0.42844 0.0
C504 C 0.67932 0.65445 0.42145 0.0
C505 C 0.68054 0.65744 0.3637 0.0
C506 C 0.66979 0.67745 0.33894 0.0
C507 C 0.6564 0.69255 0.37094 0.0
H508 H 0.94419 0.62036 0.36674 0.0
H509 H 1.00128 0.64362 0.51622 0.0
H510 H 0.99438 0.64707 0.31238 0.0
H511 H 0.05128 0.6701 0.46174 0.0
H512 H 0.12151 0.65976 0.33386 0.0
H513 H 0.07617 0.64671 0.39692 0.0
H514 H 0.04514 0.70046 0.29274 0.0
H515 H 0.09022 0.71354 0.22999 0.0
C516 C 0.96738 0.63182 0.38809 0.0
C517 C 0.96867 0.62954 0.44576 0.0
C518 C 0.99615 0.64713 0.35696 0.0
C519 C 0.02675 0.66031 0.38286 0.0
C520 C 0.02805 0.65973 0.44067 0.0
C521 C 0.99934 0.64473 0.47181 0.0
C522 C 0.10545 0.66938 0.32511 0.0
C523 C 0.10924 0.6873 0.27657 0.0
C524 C 0.0795 0.66196 0.36122 0.0
C525 C 0.05687 0.67224 0.34929 0.0
C526 C 0.06187 0.69178 0.30251 0.0
C527 C 0.08783 0.69936 0.26672 0.0
H528 H 0.69958 0.11054 0.87771 0.0
H529 H 0.79752 0.12587 0.86856 0.0
H530 H 0.68666 0.071 0.94936 0.0
H531 H 0.78409 0.08535 0.94107 0.0
H532 H 0.71286 0.97318 0.88851 0.0
H533 H 0.75031 0.03087 0.90178 0.0
H534 H 0.68504 0.0353 1.02179 0.0
H535 H 0.6469 0.97814 1.00714 0.0
C536 C 0.71908 0.10693 0.89258 0.0
C537 C 0.74889 0.11955 0.86412 0.0
C538 C 0.71161 0.08402 0.93463 0.0
C539 C 0.7337 0.0733 0.94808 0.0
C540 C 0.76605 0.09201 0.92953 0.0
C541 C 0.77364 0.11515 0.88765 0.0
C542 C 0.70681 0.98611 0.91901 0.0
C543 C 0.67606 0.97095 0.94456 0.0
C544 C 0.72867 0.01931 0.92747 0.0
C545 C 0.72009 0.03806 0.96149 0.0
C546 C 0.69195 0.02168 0.99426 0.0
C547 C 0.66992 0.98852 0.98551 0.0
H548 H 0.75453 0.65053 0.84642 0.0
H549 H 0.76767 0.72467 0.96485 0.0
H550 H 0.74794 0.68223 0.77319 0.0
H551 H 0.76142 0.75659 0.89123 0.0
H552 H 0.67859 0.74956 0.76941 0.0
H553 H 0.7074 0.73819 0.84153 0.0
H554 H 0.77312 0.73629 0.71953 0.0
H555 H 0.74405 0.74742 0.64705 0.0
C556 C 0.75643 0.6738 0.85656 0.0
C557 C 0.76058 0.68478 0.9113 0.0
C558 C 0.75324 0.69219 0.8146 0.0
C559 C 0.75399 0.72166 0.82696 0.0
C560 C 0.76062 0.73383 0.881 0.0
C561 C 0.76414 0.71558 0.92291 0.0
C562 C 0.69944 0.74713 0.75818 0.0
C563 C 0.70862 0.74836 0.70278 0.0
C564 C 0.71623 0.74117 0.79943 0.0
C565 C 0.74226 0.73619 0.78571 0.0
C566 C 0.75299 0.73992 0.73081 0.0
C567 C 0.73639 0.74624 0.68957 0.0
H568 H 0.05161 0.75084 0.98349 0.0
H569 H 0.11499 0.7428 0.86365 0.0
H570 H 1.01177 0.74048 0.91111 0.0
H571 H 0.07507 0.73231 0.79147 0.0
H572 H 1.00024 0.72108 0.66882 0.0
H573 H 0.04096 0.75307 0.73893 0.0
H574 H 0.98016 0.68371 0.86386 0.0
H575 H 0.93955 0.65182 0.79407 0.0
C576 C 0.05737 0.74775 0.94142 0.0
C577 C 0.08581 0.74666 0.92911 0.0
C578 C 0.03463 0.74185 0.90023 0.0
C579 C 0.04038 0.73534 0.84622 0.0
C580 C 0.07024 0.73741 0.83293 0.0
C581 C 0.09281 0.74293 0.87422 0.0
C582 C 0.99539 0.71312 0.7115 0.0
C583 C 0.96733 0.68368 0.72617 0.0
C584 C 0.01857 0.73139 0.75136 0.0
C585 C 1.01356 0.7207 0.80637 0.0
C586 C 0.98436 0.69255 0.82163 0.0
C587 C 0.96142 0.67406 0.78172 0.0
H588 H 0.28892 0.03116 0.98318 0.0
H589 H 0.3545 0.09671 0.85817 0.0
H590 H 0.25596 0.99253 0.91176 0.0
H591 H 0.32251 0.05755 0.78736 0.0
H592 H 0.27155 0.98407 0.66551 0.0
H593 H 0.27344 0.02246 0.73467 0.0
H594 H 0.27471 0.9596 0.86373 0.0
H595 H 0.27147 0.92077 0.79507 0.0
C596 C 0.29593 0.03768 0.94042 0.0
C597 C 0.32518 0.06617 0.92637 0.0
C598 C 0.27702 0.01554 0.89961 0.0
C599 C 0.28715 0.0216 0.84428 0.0
C600 C 0.3141 0.05203 0.82971 0.0
C601 C 0.33292 0.07421 0.87046 0.0
C602 C 0.27123 0.97801 0.70875 0.0
C603 C 0.27288 0.95022 0.72496 0.0
C604 C 0.2723 0.99999 0.74824 0.0
C605 C 0.27497 0.9944 0.8044 0.0
C606 C 0.27272 0.96468 0.82073 0.0
C607 C 0.27161 0.94272 0.7813 0.0
H608 H 0.29754 0.28945 0.66005 0.0
H609 H 0.36452 0.28769 0.77931 0.0
H610 H 0.2678 0.29813 0.73441 0.0
H611 H 0.3353 0.29699 0.85317 0.0
H612 H 0.28138 0.31441 0.98046 0.0
H613 H 0.28402 0.28033 0.90704 0.0
H614 H 0.29163 0.35129 0.78586 0.0
H615 H 0.28837 0.38489 0.85882 0.0
C616 C 0.30542 0.29017 0.70226 0.0
C617 C 0.33394 0.28916 0.71401 0.0
C618 C 0.28839 0.29506 0.74463 0.0
C619 C 0.29956 0.29864 0.79919 0.0
C620 C 0.3261 0.29421 0.81142 0.0
C621 C 0.34321 0.28953 0.76909 0.0
C622 C 0.28275 0.32222 0.93796 0.0
C623 C 0.28588 0.35273 0.92517 0.0
C624 C 0.28418 0.30272 0.89613 0.0
C625 C 0.28841 0.31342 0.8411 0.0
C626 C 0.28823 0.34239 0.82799 0.0
C627 C 0.28701 0.36194 0.86977 0.0
H628 H 0.07829 0.31916 0.73741 0.0
H629 H 0.14328 0.40985 0.82061 0.0
H630 H 0.04703 0.29786 0.82168 0.0
H631 H 0.11176 0.38837 0.90548 0.0
H632 H 1.00994 0.36088 0.98386 0.0
H633 H 0.05721 0.37958 0.92439 0.0
H634 H 0.04177 0.28118 0.91762 0.0
H635 H 0.99336 0.26198 0.97488 0.0
C636 C 0.08642 0.33423 0.77414 0.0
C637 C 0.11241 0.36659 0.77186 0.0
C638 C 0.06861 0.32193 0.82266 0.0
C639 C 0.07663 0.34171 0.86991 0.0
C640 C 0.10463 0.37291 0.86921 0.0
C641 C 0.12247 0.38526 0.82055 0.0
C642 C 0.01646 0.34314 0.96966 0.0
C643 C 0.99697 0.30965 0.98205 0.0
C644 C 0.04407 0.35403 0.93654 0.0
C645 C 0.05287 0.3317 0.91567 0.0
C646 C 0.03518 0.2988 0.93236 0.0
C647 C 1.00748 0.28787 0.96524 0.0
H648 H 0.54268 0.96282 0.95239 0.0
H649 H 0.52693 0.94978 0.12824 0.0
H650 H 0.53096 1.00791 0.95511 0.0
H651 H 0.51472 0.99416 0.13091 0.0
H652 H 0.52099 0.09393 0.1313 0.0
H653 H 0.53573 0.05126 0.1257 0.0
H654 H 0.48979 0.02276 0.96597 0.0
H655 H 0.47558 0.06594 0.97124 0.0
C656 C 0.53675 0.96947 0.99171 0.0
C657 C 0.53595 0.95232 1.04006 0.0
C658 C 0.52975 0.99537 0.99329 0.0
C659 C 0.52181 1.00525 1.04331 0.0
C660 C 0.52118 0.98808 0.09157 0.0
C661 C 0.52805 0.96222 0.08996 0.0
C662 C 0.51416 0.07878 0.09469 0.0
C663 C 0.49698 0.0838 1.05177 0.0
C664 C 0.52243 0.05389 0.09163 0.0
C665 C 0.51393 0.03289 1.04546 0.0
C666 C 0.49723 0.03832 1.00208 0.0
C667 C 0.48887 0.06319 1.00522 0.0
H668 H 0.44367 0.49919 0.16039 0.0
H669 H 0.45068 0.52043 0.98641 0.0
H670 H 0.4988 0.50832 0.16008 0.0
H671 H 0.50695 0.53247 0.98603 0.0
H672 H 0.60384 0.53401 0.98487 0.0
H673 H 0.54804 0.52326 0.98427 0.0
H674 H 0.55208 0.53554 0.16177 0.0
H675 H 0.60679 0.54342 0.16174 0.0
C676 C 0.45727 0.50637 0.12199 0.0
C677 C 0.44237 0.50895 1.07345 0.0
C678 C 0.48952 0.51204 0.12169 0.0
C679 C 0.50885 0.52162 1.07306 0.0
C680 C 0.49371 0.52457 1.02456 0.0
C681 C 0.46108 0.51789 1.02464 0.0
C682 C 0.59273 0.53446 1.02375 0.0
C683 C 0.61014 0.53968 1.07332 0.0
C684 C 0.56032 0.52842 1.02361 0.0
C685 C 0.54411 0.52825 1.07301 0.0
C686 C 0.56223 0.53433 0.12249 0.0
C687 C 0.59425 0.53936 0.12266 0.0
H688 H 0.06737 0.59342 0.17516 0.0
H689 H 0.08055 0.58465 1.00145 0.0
H690 H 0.02311 0.5371 0.17799 0.0
H691 H 0.03787 0.52731 1.00427 0.0
H692 H 0.94736 0.42602 1.01074 0.0
H693 H 0.9881 0.48389 1.0064 0.0
H694 H 1.00211 0.4836 0.18287 0.0
H695 H 0.9596 0.42644 0.18685 0.0
C696 C 0.06085 0.57934 0.13732 0.0
C697 C 0.07765 0.59409 0.08798 0.0
C698 C 0.03541 0.54639 0.13895 0.0
C699 C 0.02611 0.52614 0.09157 0.0
C700 C 0.04305 0.54123 1.04198 0.0
C701 C 0.06798 0.57454 1.04014 0.0
C702 C 0.95901 0.43843 1.04872 0.0
C703 C 0.94974 0.42117 0.09921 0.0
C704 C 0.98296 0.47202 1.0463 0.0
C705 C 0.99947 0.48982 0.09418 0.0
C706 C 0.99015 0.47211 0.14467 0.0
C707 C 0.96559 0.43874 0.14717 0.0
H708 H 0.96513 0.53367 0.47925 0.0
H709 H 0.95604 0.52122 0.65583 0.0
H710 H 1.01056 0.52338 0.47984 0.0
H711 H 1.00004 0.50854 0.65668 0.0
H712 H 0.09774 0.51137 0.65332 0.0
H713 H 0.05321 0.52329 0.65323 0.0
H714 H 0.03137 0.48997 0.48415 0.0
H715 H 0.07726 0.48043 0.48372 0.0
C716 C 0.97248 0.52812 0.51827 0.0
C717 C 0.95668 0.52828 0.56745 0.0
C718 C 0.99867 0.52191 0.51874 0.0
C719 C 1.00969 0.51477 0.56833 0.0
C720 C 0.99336 0.51451 0.61749 0.0
C721 C 0.96765 0.52152 0.61709 0.0
C722 C 0.08346 0.50674 0.61607 0.0
C723 C 0.09145 0.4951 0.56846 0.0
C724 C 0.05746 0.51333 0.616 0.0
C725 C 0.0379 0.50781 0.56863 0.0
C726 C 0.04581 0.4956 0.52132 0.0
C727 C 0.07224 0.48977 0.52107 0.0
H728 H 0.43568 0.93483 0.69312 0.0
H729 H 0.43733 0.94845 0.51708 0.0
H730 H 0.49359 0.97537 0.69779 0.0
H731 H 0.4943 0.99049 0.52146 0.0
H732 H 0.60354 0.05343 0.52869 0.0
H733 H 0.54734 1.00921 0.52668 0.0
H734 H 0.53698 0.02602 0.69917 0.0
H735 H 0.59423 0.06876 0.70134 0.0
C736 C 0.44835 0.94666 0.65528 0.0
C737 C 0.43146 0.93785 0.60465 0.0
C738 C 0.48191 0.97044 0.65788 0.0
C739 C 0.49994 0.98708 0.61005 0.0
C740 C 0.48258 0.97828 0.55954 0.0
C741 C 0.44932 0.95401 0.55687 0.0
C742 C 0.58936 0.04741 0.56644 0.0
C743 C 0.60386 0.06481 0.61524 0.0
C744 C 0.55652 0.02202 0.56526 0.0
C745 C 0.53618 0.01341 0.61252 0.0
C746 C 0.55104 0.03081 0.66164 0.0
C747 C 0.58425 0.05572 0.66307 0.0
H748 H 0.53436 0.60033 0.63828 0.0
H749 H 0.55576 0.60323 0.46488 0.0
H750 H 0.51726 0.54226 0.64128 0.0
H751 H 0.54131 0.54612 0.46795 0.0
H752 H 0.49352 0.43576 0.4707 0.0
H753 H 0.50781 0.49279 0.46859 0.0
H754 H 0.52416 0.49888 0.645 0.0
H755 H 0.5072 0.4408 0.64685 0.0
C756 C 0.53563 0.58858 0.6007 0.0
C757 C 0.54617 0.60671 0.55121 0.0
C758 C 0.52608 0.55496 0.60238 0.0
C759 C 0.52754 0.53818 0.55489 0.0
C760 C 0.53859 0.55683 0.50556 0.0
C761 C 0.54725 0.59014 0.50365 0.0
C762 C 0.50027 0.4493 0.50911 0.0
C763 C 0.49926 0.43333 0.55889 0.0
C764 C 0.50885 0.48259 0.508 0.0
C765 C 0.51774 0.50185 0.55654 0.0
C766 C 0.51706 0.48568 0.60641 0.0
C767 C 0.50758 0.45206 0.60762 0.0
H768 H 0.481 0.15588 0.33562 0.0
H769 H 0.57002 0.24981 0.34712 0.0
H770 H 0.48409 0.14702 0.4332 0.0
H771 H 0.57209 0.24123 0.44447 0.0
H772 H 0.60253 0.228 0.58057 0.0
H773 H 0.55405 0.22644 0.54356 0.0
H774 H 0.52831 0.13568 0.46091 0.0
H775 H 0.57638 0.13736 0.49596 0.0
C776 C 0.50127 0.17478 0.35831 0.0
C777 C 0.52675 0.20268 0.33207 0.0
C778 C 0.50227 0.17 0.41496 0.0
C779 C 0.52861 0.19295 0.4464 0.0
C780 C 0.55137 0.22282 0.42165 0.0
C781 C 0.55063 0.22747 0.36512 0.0
C782 C 0.58579 0.20698 0.55628 0.0
C783 C 0.59465 0.18424 0.53757 0.0
C784 C 0.55766 0.2058 0.53603 0.0
C785 C 0.539 0.18235 0.49605 0.0
C786 C 0.54311 0.15497 0.48979 0.0
C787 C 0.57127 0.15617 0.50962 0.0
H788 H 0.32886 0.61386 0.27369 0.0
H789 H 0.37229 0.55913 0.33864 0.0
H790 H 0.34207 0.64523 0.35895 0.0
H791 H 0.38535 0.58995 0.42261 0.0
H792 H 0.45664 0.71644 0.35114 0.0
H793 H 0.39803 0.68499 0.35278 0.0
H794 H 0.40131 0.62967 0.49261 0.0
H795 H 0.46015 0.66038 0.48981 0.0
C796 C 0.34012 0.6077 0.30699 0.0
C797 C 0.35161 0.58572 0.29831 0.0
C798 C 0.3473 0.62536 0.35618 0.0
C799 C 0.36759 0.62236 0.3953 0.0
C800 C 0.37139 0.59453 0.39213 0.0
C801 C 0.36413 0.57676 0.34323 0.0
C802 C 0.4449 0.69831 0.38348 0.0
C803 C 0.46313 0.68939 0.4175 0.0
C804 C 0.41095 0.68039 0.38522 0.0
C805 C 0.39502 0.6526 0.41975 0.0
C806 C 0.41303 0.64961 0.4632 0.0
C807 C 0.44708 0.66732 0.46128 0.0
H808 H 0.74671 0.27908 0.34185 0.0
H809 H 0.84929 0.33775 0.37886 0.0
H810 H 0.73358 0.29587 0.42859 0.0
H811 H 0.8364 0.35477 0.46385 0.0
H812 H 0.83222 0.43126 0.52256 0.0
H813 H 0.81587 0.37409 0.53349 0.0
H814 H 0.74243 0.34898 0.40769 0.0
H815 H 0.75792 0.40578 0.39828 0.0
C816 C 0.76642 0.29435 0.36964 0.0
C817 C 0.79904 0.30926 0.35179 0.0
C818 C 0.7589 0.30381 0.41964 0.0
C819 C 0.78396 0.32948 0.44987 0.0
C820 C 0.81623 0.33661 0.43977 0.0
C821 C 0.82384 0.32692 0.39021 0.0
C822 C 0.81148 0.41354 0.49904 0.0
C823 C 0.79744 0.42333 0.45719 0.0
C824 C 0.80208 0.38049 0.5055 0.0
C825 C 0.77942 0.35704 0.46896 0.0
C826 C 0.76089 0.36622 0.4355 0.0
C827 C 0.7701 0.39913 0.42925 0.0
H828 H 0.33845 0.8661 0.31665 0.0
H829 H 0.31405 0.76452 0.31229 0.0
H830 H 0.34347 0.869 0.21756 0.0
H831 H 0.32108 0.7682 0.2136 0.0
H832 H 0.44201 0.8741 0.16663 0.0
H833 H 0.39474 0.87575 0.19532 0.0
H834 H 0.33279 0.78168 0.11923 0.0
H835 H 0.3811 0.78012 0.0893 0.0
C836 C 0.33314 0.84397 0.29497 0.0
C837 C 0.32806 0.81556 0.32307 0.0
C838 C 0.33584 0.84568 0.23755 0.0
C839 C 0.3356 0.81988 0.20817 0.0
C840 C 0.32324 0.78936 0.23492 0.0
C841 C 0.31993 0.78737 0.29213 0.0
C842 C 0.41861 0.85426 0.15358 0.0
C843 C 0.41543 0.82593 0.12872 0.0
C844 C 0.39096 0.85532 0.16981 0.0
C845 C 0.35974 0.82763 0.16306 0.0
C846 C 0.35657 0.80263 0.12762 0.0
C847 C 0.3843 0.80155 0.11121 0.0
H848 H 0.54268 0.30523 0.27251 0.0
H849 H 0.48242 0.35026 0.28067 0.0
H850 H 0.54742 0.31328 0.1745 0.0
H851 H 0.48451 0.35549 0.18153 0.0
H852 H 0.57683 0.43944 0.1057 0.0
H853 H 0.52491 0.39691 0.13567 0.0
H854 H 0.54915 0.32411 0.08318 0.0
H855 H 0.60305 0.36736 1.05668 0.0
C856 C 0.52979 0.31622 0.25319 0.0
C857 C 0.51381 0.32875 0.28514 0.0
C858 C 0.53185 0.32027 0.19614 0.0
C859 C 0.51822 0.33737 0.16965 0.0
C860 C 0.49714 0.34421 0.20062 0.0
C861 C 0.49579 0.341 0.25801 0.0
C862 C 0.57165 0.41456 0.10041 0.0
C863 C 0.59594 0.40698 0.08607 0.0
C864 C 0.54094 0.38959 0.11661 0.0
C865 C 0.53457 0.35701 0.11905 0.0
C866 C 0.55479 0.34927 0.08757 0.0
C867 C 0.58589 0.37423 1.07247 0.0
H868 H 0.1394 0.5596 0.12144 0.0
H869 H 0.23272 0.58924 1.0444 0.0
H870 H 0.13287 0.50675 0.13992 0.0
H871 H 0.22536 0.53545 1.06426 0.0
H872 H 0.15672 0.47204 0.28324 0.0
H873 H 0.14883 0.46794 0.18401 0.0
H874 H 0.23825 0.56039 0.16386 0.0
H875 H 0.24518 0.56549 0.26134 0.0
C876 C 0.15824 0.55497 0.10663 0.0
C877 C 0.18874 0.58027 0.08788 0.0
C878 C 0.15402 0.52385 0.11613 0.0
C879 C 0.18127 0.5196 0.11171 0.0
C880 C 0.20543 0.5398 1.07347 0.0
C881 C 0.21008 0.57113 1.06348 0.0
C882 C 0.17532 0.4911 0.25786 0.0
C883 C 0.2015 0.51954 0.28116 0.0
C884 C 0.17086 0.48836 0.20054 0.0
C885 C 0.19257 0.51379 0.16555 0.0
C886 C 0.22074 0.54008 0.18879 0.0
C887 C 0.22454 0.54334 0.24554 0.0
H888 H 0.33164 0.78279 0.74799 0.0
H889 H 0.35486 0.86898 0.84344 0.0
H890 H 0.35656 0.76529 0.81816 0.0
H891 H 0.38051 0.85199 0.91313 0.0
H892 H 0.43934 0.82903 1.01841 0.0
H893 H 0.38671 0.81565 0.97987 0.0
H894 H 0.41682 0.79642 0.82239 0.0
H895 H 0.46902 0.80894 0.86168 0.0
C896 C 0.34115 0.79741 0.785 0.0
C897 C 0.34262 0.82781 0.78974 0.0
C898 C 0.35527 0.78733 0.82513 0.0
C899 C 0.37143 0.80783 0.86997 0.0
C900 C 0.3684 0.83574 0.87876 0.0
C901 C 0.3539 0.84565 0.83876 0.0
C902 C 0.43412 0.82048 0.97637 0.0
C903 C 0.4583 0.8203 0.94289 0.0
C904 C 0.40405 0.81302 0.95422 0.0
C905 C 0.39774 0.8053 0.89812 0.0
C906 C 0.42078 0.80199 0.86602 0.0
C907 C 0.45088 0.80954 0.88822 0.0
H908 H 0.55787 0.34256 0.73471 0.0
H909 H 0.50092 0.38771 0.779 0.0
H910 H 0.60161 0.38032 0.79596 0.0
H911 H 0.54491 0.42575 0.83946 0.0
H912 H 0.64965 0.51497 0.85943 0.0
H913 H 0.60476 0.4718 0.80684 0.0
H914 H 0.61196 0.39828 0.90243 0.0
H915 H 0.65658 0.44134 0.95576 0.0
C916 C 0.55446 0.36008 0.75851 0.0
C917 C 0.52622 0.36245 0.75201 0.0
C918 C 0.57942 0.38162 0.79335 0.0
C919 C 0.57666 0.40614 0.82134 0.0
C920 C 0.54762 0.40722 0.81753 0.0
C921 C 0.52239 0.38528 0.7835 0.0
C922 C 0.64205 0.48964 0.86859 0.0
C923 C 0.65656 0.48147 0.91159 0.0
C924 C 0.61616 0.46501 0.83903 0.0
C925 C 0.60478 0.4319 0.85143 0.0
C926 C 0.62031 0.42369 0.89247 0.0
C927 C 0.64585 0.4483 0.92267 0.0
H928 H 0.19315 0.523 0.80399 0.0
H929 H 0.22855 0.5957 0.67381 0.0
H930 H 0.2014 0.56503 0.87061 0.0
H931 H 0.23731 0.63782 0.74068 0.0
H932 H 0.18205 0.67542 0.85551 0.0
H933 H 0.19612 0.64592 0.78853 0.0
H934 H 0.23816 0.61594 0.91861 0.0
H935 H 0.22367 0.64492 0.98557 0.0
C936 C 0.20339 0.54807 0.78985 0.0
C937 C 0.20934 0.55592 0.73358 0.0
C938 C 0.20839 0.57223 0.82805 0.0
C939 C 0.21953 0.60463 0.81056 0.0
C940 C 0.22813 0.61294 0.75503 0.0
C941 C 0.22315 0.58879 0.71686 0.0
C942 C 0.19488 0.66309 0.86953 0.0
C943 C 0.2009 0.66164 0.92582 0.0
C944 C 0.20319 0.6464 0.83118 0.0
C945 C 0.21776 0.62817 0.84862 0.0
C946 C 0.22638 0.62925 0.90425 0.0
C947 C 0.21806 0.64587 0.9425 0.0
H948 H 0.66818 0.19807 0.80101 0.0
H949 H 0.61517 0.17897 0.64787 0.0
H950 H 0.62766 0.20765 0.84627 0.0
H951 H 0.57515 0.18934 0.69255 0.0
H952 H 0.49016 0.14683 0.82713 0.0
H953 H 0.53315 0.15552 0.7621 0.0
H954 H 0.60155 0.24195 0.85182 0.0
H955 H 0.55871 0.2331 0.91709 0.0
C956 C 0.64832 0.19671 0.77673 0.0
C957 C 0.64473 0.18763 0.72099 0.0
C958 C 0.62527 0.20248 0.80243 0.0
C959 C 0.59818 0.19915 0.77286 0.0
C960 C 0.59566 0.19189 0.71637 0.0
C961 C 0.61875 0.18623 0.69071 0.0
C962 C 0.51409 0.16825 0.83188 0.0
C963 C 0.52139 0.18875 0.87791 0.0
C964 C 0.53873 0.17331 0.79458 0.0
C965 C 0.57087 0.199 0.80281 0.0
C966 C 0.57716 0.22154 0.84533 0.0
C967 C 0.55261 0.21647 0.88255 0.0
H968 H 0.47704 0.68392 0.69512 0.0
H969 H 0.54095 0.65356 0.76828 0.0
H970 H 0.43173 0.64342 0.7509 0.0
H971 H 0.49547 0.61289 0.82407 0.0
H972 H 0.39965 0.51765 0.8538 0.0
H973 H 0.44253 0.56017 0.79636 0.0
H974 H 0.41427 0.6296 0.85141 0.0
H975 H 0.37155 0.58721 0.90888 0.0
C976 C 0.4815 0.66904 0.7241 0.0
C977 C 0.51238 0.67174 0.72749 0.0
C978 C 0.45559 0.64585 0.75575 0.0
C979 C 0.46006 0.62469 0.79077 0.0
C980 C 0.49136 0.62858 0.79645 0.0
C981 C 0.51744 0.65214 0.7653 0.0
C982 C 0.40202 0.54173 0.85231 0.0
C983 C 0.38246 0.54929 0.88572 0.0
C984 C 0.42683 0.56613 0.82024 0.0
C985 C 0.43203 0.59823 0.82056 0.0
C986 C 0.41085 0.60509 0.85076 0.0
C987 C 0.38638 0.58084 0.88336 0.0
H988 H 0.82909 0.37809 0.97921 0.0
H989 H 0.87936 0.3522 0.85771 0.0
H990 H 0.82603 0.4156 0.91367 0.0
H991 H 0.87618 0.38995 0.79195 0.0
H992 H 0.84138 0.44175 0.67519 0.0
H993 H 0.83567 0.39935 0.73907 0.0
H994 H 0.86905 0.46931 0.87245 0.0
H995 H 0.87482 0.5121 0.80834 0.0
C996 C 0.83913 0.38006 0.93825 0.0
C997 C 0.85481 0.36242 0.92376 0.0
C998 C 0.83752 0.40172 0.90092 0.0
C999 C 0.85121 0.40595 0.84814 0.0
C1000 C 0.86534 0.38705 0.83247 0.0
C1001 C 0.8672 0.36549 0.87005 0.0
C1002 C 0.84722 0.44814 0.71824 0.0
C1003 C 0.85883 0.48039 0.73673 0.0
C1004 C 0.84409 0.42382 0.75466 0.0
C1005 C 0.85216 0.43113 0.81045 0.0
C1006 C 0.8625 0.46302 0.82956 0.0
C1007 C 0.86591 0.48751 0.79294 0.0
H1008 H 0.45146 0.17276 0.2065 0.0
H1009 H 0.45788 0.26245 0.1541 0.0
H1010 H 0.45251 0.18758 0.30276 0.0
H1011 H 0.45378 0.27542 0.25114 0.0
H1012 H 0.42313 0.2731 0.4397 0.0
H1013 H 0.42108 0.25938 0.34139 0.0
H1014 H 0.49228 0.22987 0.37036 0.0
H1015 H 0.49529 0.24479 0.46802 0.0
C1016 C 0.45408 0.19605 0.21521 0.0
C1017 C 0.45734 0.21703 0.1713 0.0
C1018 C 0.45412 0.20455 0.27109 0.0
C1019 C 0.45522 0.23391 0.28607 0.0
C1020 C 0.45492 0.2536 0.24214 0.0
C1021 C 0.45689 0.24585 0.18599 0.0
C1022 C 0.43902 0.2645 0.42482 0.0
C1023 C 0.46018 0.26124 0.46209 0.0
C1024 C 0.43758 0.25621 0.36822 0.0
C1025 C 0.45667 0.24343 0.34681 0.0
C1026 C 0.47704 0.23927 0.38469 0.0
C1027 C 0.47878 0.24791 0.44109 0.0
H1028 H 0.28384 0.53756 0.46554 0.0
H1029 H 0.2012 0.44098 0.44386 0.0
H1030 H 0.29721 0.5395 0.36722 0.0
H1031 H 0.21486 0.44243 0.34584 0.0
H1032 H 0.26822 0.44391 0.18308 0.0
H1033 H 0.25453 0.44172 0.2813 0.0
H1034 H 0.2802 0.54316 0.27449 0.0
H1035 H 0.29098 0.54436 0.17494 0.0
C1036 C 0.26877 0.51654 0.43992 0.0
C1037 C 0.24141 0.4891 0.4629 0.0
C1038 C 0.27634 0.51769 0.38317 0.0
C1039 C 0.25746 0.49104 0.34767 0.0
C1040 C 0.23044 0.46334 0.37129 0.0
C1041 C 0.22241 0.46254 0.42768 0.0
C1042 C 0.27008 0.46553 0.20226 0.0
C1043 C 0.28028 0.49418 0.1707 0.0
C1044 C 0.26228 0.46433 0.25886 0.0
C1045 C 0.26553 0.49215 0.28654 0.0
C1046 C 0.2765 0.52099 0.2549 0.0
C1047 C 0.28272 0.52172 0.19761 0.0
H1048 H 0.71858 0.18373 0.45772 0.0
H1049 H 0.81985 0.23422 0.50191 0.0
H1050 H 0.73248 0.19605 0.36162 0.0
H1051 H 0.83444 0.25 0.40555 0.0
H1052 H 0.85727 0.25548 0.22077 0.0
H1053 H 0.84294 0.2403 0.3173 0.0
H1054 H 0.74752 0.22814 0.28677 0.0
H1055 H 0.76214 0.24246 0.18991 0.0
C1056 C 0.74394 0.19671 0.44718 0.0
C1057 C 0.76768 0.20612 0.48888 0.0
C1058 C 0.75222 0.20501 0.39105 0.0
C1059 C 0.78497 0.22407 0.37339 0.0
C1060 C 0.80891 0.23451 0.41551 0.0
C1061 C 0.80046 0.22564 0.47172 0.0
C1062 C 0.83335 0.2499 0.23494 0.0
C1063 C 0.81123 0.25096 0.19729 0.0
C1064 C 0.82492 0.24107 0.29095 0.0
C1065 C 0.79388 0.233 0.31217 0.0
C1066 C 0.77151 0.23345 0.27361 0.0
C1067 C 0.77992 0.24193 0.21737 0.0
H1068 H 0.54769 0.84041 0.18989 0.0
H1069 H 0.60418 0.79613 0.14246 0.0
H1070 H 0.55041 0.82809 0.28508 0.0
H1071 H 0.60434 0.78016 0.23858 0.0
H1072 H 0.61995 0.77265 0.42472 0.0
H1073 H 0.62109 0.7888 0.32837 0.0
H1074 H 0.53376 0.79425 0.35732 0.0
H1075 H 0.5344 0.78029 0.45405 0.0
C1076 C 0.56152 0.82879 0.19941 0.0
C1077 C 0.57685 0.82103 0.15688 0.0
C1078 C 0.56218 0.82039 0.25519 0.0
C1079 C 0.5776 0.80273 0.27194 0.0
C1080 C 0.59262 0.79428 0.22923 0.0
C1081 C 0.59232 0.80329 0.17318 0.0
C1082 C 0.6012 0.77766 0.41046 0.0
C1083 C 0.57713 0.77515 0.44773 0.0
C1084 C 0.60161 0.78675 0.35449 0.0
C1085 C 0.57756 0.79321 0.33288 0.0
C1086 C 0.55343 0.79055 0.37083 0.0
C1087 C 0.55354 0.78222 0.42704 0.0
H1088 H 0.85538 0.59184 0.45044 0.0
H1089 H 0.7658 0.50122 0.4758 0.0
H1090 H 0.84128 0.59249 0.35367 0.0
H1091 H 0.7521 0.5004 0.37835 0.0
H1092 H 0.7208 0.51579 0.20916 0.0
H1093 H 0.73428 0.51688 0.30543 0.0
H1094 H 0.83656 0.57496 0.26445 0.0
H1095 H 0.82218 0.57615 0.16788 0.0
C1096 C 0.83263 0.57186 0.43515 0.0
C1097 C 0.81177 0.54652 0.47136 0.0
C1098 C 0.8245 0.572 0.37899 0.0
C1099 C 0.79536 0.54642 0.35615 0.0
C1100 C 0.77447 0.52108 0.39304 0.0
C1101 C 0.78235 0.52135 0.44952 0.0
C1102 C 0.74608 0.52986 0.22039 0.0
C1103 C 0.76997 0.54705 0.17968 0.0
C1104 C 0.75413 0.52976 0.2765 0.0
C1105 C 0.78681 0.54627 0.29492 0.0
C1106 C 0.81099 0.56254 0.25368 0.0
C1107 C 0.80273 0.56292 0.19745 0.0
H1108 H 0.20937 0.70535 0.23261 0.0
H1109 H 0.24862 0.807 0.19161 0.0
H1110 H 0.22054 0.71887 0.32909 0.0
H1111 H 0.26224 0.82144 0.2884 0.0
H1112 H 0.26551 0.84087 0.47358 0.0
H1113 H 0.25064 0.82641 0.37709 0.0
H1114 H 0.25348 0.73697 0.40239 0.0
H1115 H 0.26629 0.75099 0.49958 0.0
C1116 C 0.22002 0.73069 0.24399 0.0
C1117 C 0.22679 0.75467 0.20334 0.0
C1118 C 0.22733 0.73878 0.30022 0.0
C1119 C 0.24245 0.77156 0.31875 0.0
C1120 C 0.24999 0.79578 0.27759 0.0
C1121 C 0.24249 0.78751 0.22122 0.0
C1122 C 0.26272 0.81801 0.45843 0.0
C1123 C 0.26725 0.7972 0.49463 0.0
C1124 C 0.25433 0.80963 0.40243 0.0
C1125 C 0.25062 0.78025 0.37989 0.0
C1126 C 0.25511 0.75943 0.41685 0.0
C1127 C 0.26282 0.76755 0.47315 0.0
H1128 H 0.54065 0.78783 0.64744 0.0
H1129 H 0.61512 0.76362 0.68265 0.0
H1130 H 0.54085 0.8029 0.74431 0.0
H1131 H 0.61514 0.77803 0.77974 0.0
H1132 H 0.62816 0.83412 0.94564 0.0
H1133 H 0.62899 0.8192 0.84866 0.0
H1134 H 0.52585 0.78437 0.83702 0.0
H1135 H 0.52533 0.79878 0.93387 0.0
C1136 C 0.55707 0.78553 0.67578 0.0
C1137 C 0.5774 0.77369 0.65628 0.0
C1138 C 0.55705 0.79402 0.7321 0.0
C1139 C 0.57782 0.79168 0.77177 0.0
C1140 C 0.59873 0.78054 0.75173 0.0
C1141 C 0.59848 0.77178 0.69548 0.0
C1142 C 0.60563 0.82321 0.92244 0.0
C1143 C 0.57685 0.81879 0.94797 0.0
C1144 C 0.60601 0.81447 0.86627 0.0
C1145 C 0.57756 0.80072 0.83299 0.0
C1146 C 0.54866 0.7956 0.85942 0.0
C1147 C 0.54832 0.80421 0.91549 0.0
H1148 H 0.86522 0.57938 0.70809 0.0
H1149 H 0.76318 0.52408 0.669 0.0
H1150 H 0.85217 0.57945 0.80561 0.0
H1151 H 0.74988 0.52663 0.76649 0.0
H1152 H 0.74862 0.57818 0.93694 0.0
H1153 H 0.76084 0.57482 0.84043 0.0
H1154 H 0.82117 0.53475 0.88933 0.0
H1155 H 0.80627 0.53548 0.98659 0.0
C1156 C 0.83998 0.56646 0.72 0.0
C1157 C 0.8156 0.55024 0.67962 0.0
C1158 C 0.83238 0.56696 0.77652 0.0
C1159 C 0.79984 0.55261 0.79512 0.0
C1160 C 0.77527 0.53776 0.7545 0.0
C1161 C 0.78298 0.53637 0.69814 0.0
C1162 C 0.76327 0.56736 0.9278 0.0
C1163 C 0.77473 0.55567 0.97105 0.0
C1164 C 0.77086 0.5659 0.87166 0.0
C1165 C 0.79167 0.55396 0.85591 0.0
C1166 C 0.80482 0.54388 0.89912 0.0
C1167 C 0.7963 0.54445 0.95536 0.0
H1168 H 0.26201 0.84298 0.72126 0.0
H1169 H 0.26447 0.75366 0.69963 0.0
H1170 H 0.24806 0.82953 0.81918 0.0
H1171 H 0.25038 0.73989 0.79726 0.0
H1172 H 0.19451 0.781 0.98507 0.0
H1173 H 0.20748 0.79489 0.88696 0.0
H1174 H 0.27049 0.7532 0.89046 0.0
H1175 H 0.25721 0.7393 0.98829 0.0
C1176 C 0.2595 0.82037 0.73728 0.0
C1177 C 0.26492 0.79974 0.70198 0.0
C1178 C 0.25127 0.81245 0.79384 0.0
C1179 C 0.24816 0.78354 0.81772 0.0
C1180 C 0.25294 0.76263 0.78177 0.0
C1181 C 0.26078 0.7704 0.72515 0.0
C1182 C 0.21124 0.77492 0.96499 0.0
C1183 C 0.2248 0.75903 0.99529 0.0
C1184 C 0.21889 0.78304 0.90832 0.0
C1185 C 0.24018 0.7753 0.87927 0.0
C1186 C 0.25373 0.75942 0.91005 0.0
C1187 C 0.24634 0.75165 0.96677 0.0
H1188 H 0.4841 0.23422 0.65976 0.0
H1189 H 0.43057 0.28308 0.69934 0.0
H1190 H 0.48137 0.21809 0.75733 0.0
H1191 H 0.43017 0.26941 0.79725 0.0
H1192 H 0.48514 0.26845 0.97406 0.0
H1193 H 0.48485 0.28341 0.87657 0.0
H1194 H 0.42459 0.18154 0.83561 0.0
H1195 H 0.42288 0.16697 0.93349 0.0
C1196 C 0.47204 0.24199 0.68908 0.0
C1197 C 0.45878 0.26144 0.67082 0.0
C1198 C 0.47057 0.23275 0.74544 0.0
C1199 C 0.45612 0.24289 0.78623 0.0
C1200 C 0.44219 0.26162 0.76786 0.0
C1201 C 0.44284 0.26998 0.71131 0.0
C1202 C 0.47152 0.24914 0.94453 0.0
C1203 C 0.45503 0.21611 0.9624 0.0
C1204 C 0.47149 0.25778 0.88823 0.0
C1205 C 0.45527 0.23375 0.84716 0.0
C1206 C 0.43799 0.20086 0.86524 0.0
C1207 C 0.43726 0.19238 0.92174 0.0
H1208 H 0.2087 0.43767 0.68472 0.0
H1209 H 0.27542 0.54137 0.67348 0.0
H1210 H 0.22214 0.43847 0.78278 0.0
H1211 H 0.28875 0.54248 0.77194 0.0
H1212 H 0.27832 0.5362 0.96598 0.0
H1213 H 0.26483 0.53566 0.86781 0.0
H1214 H 0.26772 0.44639 0.84564 0.0
H1215 H 0.28152 0.44736 0.94344 0.0
C1216 C 0.22618 0.46074 0.70318 0.0
C1217 C 0.24083 0.48944 0.6706 0.0
C1218 C 0.23415 0.46121 0.7597 0.0
C1219 C 0.25671 0.49056 0.78643 0.0
C1220 C 0.27117 0.51934 0.75371 0.0
C1221 C 0.26371 0.51871 0.69682 0.0
C1222 C 0.27612 0.51644 0.94018 0.0
C1223 C 0.28155 0.49203 0.96322 0.0
C1224 C 0.26854 0.51622 0.88345 0.0
C1225 C 0.26516 0.49104 0.84759 0.0
C1226 C 0.2699 0.46623 0.87114 0.0
C1227 C 0.27816 0.46688 0.92757 0.0
H1228 H 0.81301 0.20106 0.69641 0.0
H1229 H 0.73539 0.22262 0.71456 0.0
H1230 H 0.828 0.21542 0.79371 0.0
H1231 H 0.74955 0.23641 0.81161 0.0
H1232 H 0.76334 0.23331 0.99921 0.0
H1233 H 0.74927 0.21801 0.90243 0.0
H1234 H 0.85092 0.25558 0.8644 0.0
H1235 H 0.86453 0.26975 0.96158 0.0
C1236 C 0.79906 0.20889 0.72109 0.0
C1237 C 0.77215 0.20953 0.69736 0.0
C1238 C 0.80769 0.21725 0.77742 0.0
C1239 C 0.78994 0.2269 0.81246 0.0
C1240 C 0.76356 0.22831 0.78779 0.0
C1241 C 0.7551 0.22007 0.73163 0.0
C1242 C 0.7828 0.23839 0.97032 0.0
C1243 C 0.81536 0.25378 0.98913 0.0
C1244 C 0.77472 0.22977 0.91406 0.0
C1245 C 0.79877 0.2357 0.8737 0.0
C1246 C 0.83131 0.25031 0.893 0.0
C1247 C 0.83934 0.25904 0.9493 0.0
loop_
_geom_bond_atom_site_label_1
_geom_bond_atom_site_label_2
_geom_bond_distance
_geom_bond_site_symmetry_2
_ccdc_geom_bond_type
Zn0 N4 2.020 . S
Zn0 O8 2.019 . S
Zn0 N10 2.119 . S
Zn0 O18 1.975 . S
C1 N2 1.334 . S
C1 N5 1.336 . S
N2 C1 1.334 . S
N2 C3 1.333 1_554 S
C3 N2 1.333 1_556 S
C3 N4 1.336 . S
N4 Zn0 2.020 . S
N4 C3 1.336 . S
N4 N5 1.354 1_556 S
N5 C1 1.336 . S
N5 N4 1.354 1_554 S
N5 Zn9 2.020 . S
C6 O7 1.244 . S
C6 O30 1.257 . S
O7 C6 1.244 . S
O8 Zn0 2.019 . S
O8 C28 1.257 . S
Zn9 N5 2.020 . S
Zn9 O16 1.975 . S
Zn9 N25 2.119 . S
Zn9 O30 2.019 . S
N10 Zn0 2.119 . S
N10 C12 1.334 . S
N10 C13 1.328 . S
C11 C12 1.391 . S
C11 N14 1.329 . S
C11 H32 0.930 . S
C12 N10 1.334 . S
C12 C11 1.391 . S
C12 H19 0.930 . S
C13 N10 1.328 . S
C13 C15 1.392 . S
C13 H20 0.930 . S
N14 C11 1.329 . S
N14 C15 1.331 . S
C15 C13 1.392 . S
C15 N14 1.331 . S
O16 Zn9 1.975 . S
O16 C17 1.252 . S
C17 O16 1.252 . S
C17 O18 1.252 1_554 S
O18 Zn0 1.975 . S
O18 C17 1.252 1_556 S
H19 C12 0.930 . S
H20 C13 0.930 . S
C21 C22 1.392 . S
C21 N25 1.328 . S
C21 H27 0.930 . S
C22 C21 1.392 . S
C22 N26 1.331 . S
C23 C24 1.391 . S
C23 N26 1.329 . S
C23 H33 0.930 . S
C24 C23 1.391 . S
C24 N25 1.334 . S
C24 H31 0.930 . S
N25 Zn9 2.119 . S
N25 C21 1.328 . S
N25 C24 1.334 . S
N26 C22 1.331 . S
N26 C23 1.329 . S
H27 C21 0.930 . S
C28 O8 1.257 . S
C28 O29 1.244 . S
O29 C28 1.244 . S
O30 C6 1.257 . S
O30 Zn9 2.019 . S
H31 C24 0.930 . S
H32 C11 0.930 . S
H33 C23 0.930 . S
Zn34 N38 2.020 . S
Zn34 O42 2.019 . S
Zn34 N44 2.119 . S
Zn34 O52 1.975 . S
C35 N36 1.334 . S
C35 N39 1.336 . S
N36 C35 1.334 . S
N36 C37 1.333 1_554 S
C37 N36 1.333 1_556 S
C37 N38 1.336 . S
N38 Zn34 2.020 . S
N38 C37 1.336 . S
N38 N39 1.354 1_556 S
N39 C35 1.336 . S
N39 N38 1.354 1_554 S
N39 Zn43 2.020 . S
C40 O41 1.244 . S
C40 O64 1.257 . S
O41 C40 1.244 . S
O42 Zn34 2.019 . S
O42 C62 1.257 . S
Zn43 N39 2.020 . S
Zn43 O50 1.975 . S
Zn43 N59 2.119 . S
Zn43 O64 2.019 . S
N44 Zn34 2.119 . S
N44 C46 1.334 . S
N44 C47 1.328 . S
C45 C46 1.391 . S
C45 N48 1.329 . S
C45 H66 0.930 . S
C46 N44 1.334 . S
C46 C45 1.391 . S
C46 H53 0.930 . S
C47 N44 1.328 . S
C47 C49 1.392 . S
C47 H54 0.930 . S
N48 C45 1.329 . S
N48 C49 1.331 . S
C49 C47 1.392 . S
C49 N48 1.331 . S
O50 Zn43 1.975 . S
O50 C51 1.252 . S
C51 O50 1.252 . S
C51 O52 1.252 1_554 S
O52 Zn34 1.975 . S
O52 C51 1.252 1_556 S
H53 C46 0.930 . S
H54 C47 0.930 . S
C55 C56 1.392 . S
C55 N59 1.328 . S
C55 H61 0.930 . S
C56 C55 1.392 . S
C56 N60 1.331 . S
C57 C58 1.391 . S
C57 N60 1.329 . S
C57 H67 0.930 . S
C58 C57 1.391 . S
C58 N59 1.334 . S
C58 H65 0.930 . S
N59 Zn43 2.119 . S
N59 C55 1.328 . S
N59 C58 1.334 . S
N60 C56 1.331 . S
N60 C57 1.329 . S
H61 C55 0.930 . S
C62 O42 1.257 . S
C62 O63 1.244 . S
O63 C62 1.244 . S
O64 C40 1.257 . S
O64 Zn43 2.019 . S
H65 C58 0.930 . S
H66 C45 0.930 . S
H67 C57 0.930 . S
Zn68 N72 2.020 . S
Zn68 O76 2.019 . S
Zn68 N78 2.119 . S
Zn68 O86 1.975 . S
C69 N70 1.334 . S
C69 N73 1.336 . S
N70 C69 1.334 . S
N70 C71 1.333 1_554 S
C71 N70 1.333 1_556 S
C71 N72 1.336 . S
N72 Zn68 2.020 . S
N72 C71 1.336 . S
N72 N73 1.354 1_556 S
N73 C69 1.336 . S
N73 N72 1.354 1_554 S
N73 Zn77 2.020 . S
C74 O75 1.244 . S
C74 O98 1.257 . S
O75 C74 1.244 . S
O76 Zn68 2.019 . S
O76 C96 1.257 . S
Zn77 N73 2.020 . S
Zn77 O84 1.975 . S
Zn77 N93 2.119 . S
Zn77 O98 2.019 . S
N78 Zn68 2.119 . S
N78 C80 1.334 . S
N78 C81 1.328 . S
C79 C80 1.391 . S
C79 N82 1.329 . S
C79 H100 0.930 . S
C80 N78 1.334 . S
C80 C79 1.391 . S
C80 H87 0.930 . S
C81 N78 1.328 . S
C81 C83 1.392 . S
C81 H88 0.930 . S
N82 C79 1.329 . S
N82 C83 1.331 . S
C83 C81 1.392 . S
C83 N82 1.331 . S
O84 Zn77 1.975 . S
O84 C85 1.252 . S
C85 O84 1.252 . S
C85 O86 1.252 1_554 S
O86 Zn68 1.975 . S
O86 C85 1.252 1_556 S
H87 C80 0.930 . S
H88 C81 0.930 . S
C89 C90 1.392 . S
C89 N93 1.328 . S
C89 H95 0.930 . S
C90 C89 1.392 . S
C90 N94 1.331 . S
C91 C92 1.391 . S
C91 N94 1.329 . S
C91 H101 0.930 . S
C92 C91 1.391 . S
C92 N93 1.334 . S
C92 H99 0.930 . S
N93 Zn77 2.119 . S
N93 C89 1.328 . S
N93 C92 1.334 . S
N94 C90 1.331 . S
N94 C91 1.329 . S
H95 C89 0.930 . S
C96 O76 1.257 . S
C96 O97 1.244 . S
O97 C96 1.244 . S
O98 C74 1.257 . S
O98 Zn77 2.019 . S
H99 C92 0.930 . S
H100 C79 0.930 . S
H101 C91 0.930 . S
Zn102 N106 2.020 . S
Zn102 O110 2.019 . S
Zn102 N112 2.119 . S
Zn102 O120 1.975 . S
C103 N104 1.333 1_556 S
C103 N107 1.336 . S
N104 C103 1.333 1_554 S
N104 C105 1.334 . S
C105 N104 1.334 . S
C105 N106 1.336 . S
N106 Zn102 2.020 . S
N106 C105 1.336 . S
N106 N107 1.354 1_554 S
N107 C103 1.336 . S
N107 N106 1.354 1_556 S
N107 Zn111 2.020 . S
C108 O109 1.244 . S
C108 O132 1.257 . S
O109 C108 1.244 . S
O110 Zn102 2.019 . S
O110 C130 1.257 . S
Zn111 N107 2.020 . S
Zn111 O118 1.975 . S
Zn111 N127 2.119 . S
Zn111 O132 2.019 . S
N112 Zn102 2.119 . S
N112 C114 1.334 . S
N112 C115 1.328 . S
C113 C114 1.391 . S
C113 N116 1.329 . S
C113 H134 0.930 . S
C114 N112 1.334 . S
C114 C113 1.391 . S
C114 H121 0.930 . S
C115 N112 1.328 . S
C115 C117 1.392 . S
C115 H122 0.930 . S
N116 C113 1.329 . S
N116 C117 1.331 . S
C117 C115 1.392 . S
C117 N116 1.331 . S
O118 Zn111 1.975 . S
O118 C119 1.252 1_556 S
C119 O118 1.252 1_554 S
C119 O120 1.252 . S
O120 Zn102 1.975 . S
O120 C119 1.252 . S
H121 C114 0.930 . S
H122 C115 0.930 . S
C123 C124 1.392 . S
C123 N127 1.328 . S
C123 H129 0.930 . S
C124 C123 1.392 . S
C124 N128 1.331 . S
C125 C126 1.391 . S
C125 N128 1.329 . S
C125 H135 0.930 . S
C126 C125 1.391 . S
C126 N127 1.334 . S
C126 H133 0.930 . S
N127 Zn111 2.119 . S
N127 C123 1.328 . S
N127 C126 1.334 . S
N128 C124 1.331 . S
N128 C125 1.329 . S
H129 C123 0.930 . S
C130 O110 1.257 . S
C130 O131 1.244 . S
O131 C130 1.244 . S
O132 C108 1.257 . S
O132 Zn111 2.019 . S
H133 C126 0.930 . S
H134 C113 0.930 . S
H135 C125 0.930 . S
Zn136 N140 2.020 . S
Zn136 O144 2.019 . S
Zn136 N146 2.119 . S
Zn136 O154 1.975 . S
C137 N138 1.334 . S
C137 N141 1.336 . S
N138 C137 1.334 . S
N138 C139 1.333 1_554 S
C139 N138 1.333 1_556 S
C139 N140 1.336 . S
N140 Zn136 2.020 . S
N140 C139 1.336 . S
N140 N141 1.354 1_556 S
N141 C137 1.336 . S
N141 N140 1.354 1_554 S
N141 Zn145 2.020 . S
C142 O143 1.244 . S
C142 O166 1.257 . S
O143 C142 1.244 . S
O144 Zn136 2.019 . S
O144 C164 1.257 . S
Zn145 N141 2.020 . S
Zn145 O152 1.975 . S
Zn145 N161 2.119 . S
Zn145 O166 2.019 . S
N146 Zn136 2.119 . S
N146 C148 1.334 . S
N146 C149 1.328 . S
C147 C148 1.391 . S
C147 N150 1.329 . S
C147 H168 0.930 . S
C148 N146 1.334 . S
C148 C147 1.391 . S
C148 H155 0.930 . S
C149 N146 1.328 . S
C149 C151 1.392 . S
C149 H156 0.930 . S
N150 C147 1.329 . S
N150 C151 1.331 . S
C151 C149 1.392 . S
C151 N150 1.331 . S
O152 Zn145 1.975 . S
O152 C153 1.252 . S
C153 O152 1.252 . S
C153 O154 1.252 1_554 S
O154 Zn136 1.975 . S
O154 C153 1.252 1_556 S
H155 C148 0.930 . S
H156 C149 0.930 . S
C157 C158 1.392 . S
C157 N161 1.328 . S
C157 H163 0.930 . S
C158 C157 1.392 . S
C158 N162 1.331 . S
C159 C160 1.391 . S
C159 N162 1.329 . S
C159 H169 0.930 . S
C160 C159 1.391 . S
C160 N161 1.334 . S
C160 H167 0.930 . S
N161 Zn145 2.119 . S
N161 C157 1.328 . S
N161 C160 1.334 . S
N162 C158 1.331 . S
N162 C159 1.329 . S
H163 C157 0.930 . S
C164 O144 1.257 . S
C164 O165 1.244 . S
O165 C164 1.244 . S
O166 C142 1.257 . S
O166 Zn145 2.019 . S
H167 C160 0.930 . S
H168 C147 0.930 . S
H169 C159 0.930 . S
Zn170 N174 2.020 . S
Zn170 O178 2.019 . S
Zn170 N180 2.119 . S
Zn170 O188 1.975 . S
C171 N172 1.333 1_556 S
C171 N175 1.336 . S
N172 C171 1.333 1_554 S
N172 C173 1.334 . S
C173 N172 1.334 . S
C173 N174 1.336 . S
N174 Zn170 2.020 . S
N174 C173 1.336 . S
N174 N175 1.354 1_554 S
N175 C171 1.336 . S
N175 N174 1.354 1_556 S
N175 Zn179 2.020 . S
C176 O177 1.244 . S
C176 O200 1.257 . S
O177 C176 1.244 . S
O178 Zn170 2.019 . S
O178 C198 1.257 . S
Zn179 N175 2.020 . S
Zn179 O186 1.975 . S
Zn179 N195 2.119 . S
Zn179 O200 2.019 . S
N180 Zn170 2.119 . S
N180 C182 1.334 . S
N180 C183 1.328 . S
C181 C182 1.391 . S
C181 N184 1.329 . S
C181 H202 0.930 . S
C182 N180 1.334 . S
C182 C181 1.391 . S
C182 H189 0.930 . S
C183 N180 1.328 . S
C183 C185 1.392 . S
C183 H190 0.930 . S
N184 C181 1.329 . S
N184 C185 1.331 . S
C185 C183 1.392 . S
C185 N184 1.331 . S
O186 Zn179 1.975 . S
O186 C187 1.252 1_556 S
C187 O186 1.252 1_554 S
C187 O188 1.252 . S
O188 Zn170 1.975 . S
O188 C187 1.252 . S
H189 C182 0.930 . S
H190 C183 0.930 . S
C191 C192 1.392 . S
C191 N195 1.328 . S
C191 H197 0.930 . S
C192 C191 1.392 . S
C192 N196 1.331 . S
C193 C194 1.391 . S
C193 N196 1.329 . S
C193 H203 0.930 . S
C194 C193 1.391 . S
C194 N195 1.334 . S
C194 H201 0.930 . S
N195 Zn179 2.119 . S
N195 C191 1.328 . S
N195 C194 1.334 . S
N196 C192 1.331 . S
N196 C193 1.329 . S
H197 C191 0.930 . S
C198 O178 1.257 . S
C198 O199 1.244 . S
O199 C198 1.244 . S
O200 C176 1.257 . S
O200 Zn179 2.019 . S
H201 C194 0.930 . S
H202 C181 0.930 . S
H203 C193 0.930 . S
Zn204 N208 2.020 . S
Zn204 O212 2.019 . S
Zn204 N214 2.119 . S
Zn204 O222 1.975 . S
C205 N206 1.334 . S
C205 N209 1.336 . S
N206 C205 1.334 . S
N206 C207 1.334 . S
C207 N206 1.334 . S
C207 N208 1.336 . S
N208 Zn204 2.020 . S
N208 C207 1.336 . S
N208 N209 1.354 . S
N209 C205 1.336 . S
N209 N208 1.354 . S
N209 Zn213 2.020 . S
C210 O211 1.244 . S
C210 O234 1.257 . S
O211 C210 1.244 . S
O212 Zn204 2.019 . S
O212 C232 1.257 . S
Zn213 N209 2.020 . S
Zn213 O220 1.975 . S
Zn213 N229 2.119 . S
Zn213 O234 2.019 . S
N214 Zn204 2.119 . S
N214 C216 1.334 . S
N214 C217 1.328 . S
C215 C216 1.391 . S
C215 N218 1.329 . S
C215 H236 0.930 . S
C216 N214 1.334 . S
C216 C215 1.391 . S
C216 H223 0.930 . S
C217 N214 1.328 . S
C217 C219 1.392 . S
C217 H224 0.930 . S
N218 C215 1.329 . S
N218 C219 1.331 . S
C219 C217 1.392 . S
C219 N218 1.331 . S
O220 Zn213 1.975 . S
O220 C221 1.252 . S
C221 O220 1.252 . S
C221 O222 1.252 . S
O222 Zn204 1.975 . S
O222 C221 1.252 . S
H223 C216 0.930 . S
H224 C217 0.930 . S
C225 C226 1.392 . S
C225 N229 1.328 . S
C225 H231 0.930 . S
C226 C225 1.392 . S
C226 N230 1.331 . S
C227 C228 1.391 . S
C227 N230 1.329 . S
C227 H237 0.930 . S
C228 C227 1.391 . S
C228 N229 1.334 . S
C228 H235 0.930 . S
N229 Zn213 2.119 . S
N229 C225 1.328 . S
N229 C228 1.334 . S
N230 C226 1.331 . S
N230 C227 1.329 . S
H231 C225 0.930 . S
C232 O212 1.257 . S
C232 O233 1.244 . S
O233 C232 1.244 . S
O234 C210 1.257 . S
O234 Zn213 2.019 . S
H235 C228 0.930 . S
H236 C215 0.930 . S
H237 C227 0.930 . S
Zn238 N242 2.020 . S
Zn238 O246 2.019 . S
Zn238 N248 2.119 . S
Zn238 O256 1.975 . S
C239 N240 1.334 . S
C239 N243 1.336 . S
N240 C239 1.334 . S
N240 C241 1.334 . S
C241 N240 1.334 . S
C241 N242 1.336 . S
N242 Zn238 2.020 . S
N242 C241 1.336 . S
N242 N243 1.354 . S
N243 C239 1.336 . S
N243 N242 1.354 . S
N243 Zn247 2.020 . S
C244 O245 1.244 . S
C244 O268 1.257 . S
O245 C244 1.244 . S
O246 Zn238 2.019 . S
O246 C266 1.257 . S
Zn247 N243 2.020 . S
Zn247 O254 1.975 . S
Zn247 N263 2.119 . S
Zn247 O268 2.019 . S
N248 Zn238 2.119 . S
N248 C250 1.334 . S
N248 C251 1.328 . S
C249 C250 1.391 . S
C249 N252 1.329 . S
C249 H270 0.930 . S
C250 N248 1.334 . S
C250 C249 1.391 . S
C250 H257 0.930 . S
C251 N248 1.328 . S
C251 C253 1.392 . S
C251 H258 0.930 . S
N252 C249 1.329 . S
N252 C253 1.331 . S
C253 C251 1.392 . S
C253 N252 1.331 . S
O254 Zn247 1.975 . S
O254 C255 1.252 . S
C255 O254 1.252 . S
C255 O256 1.252 . S
O256 Zn238 1.975 . S
O256 C255 1.252 . S
H257 C250 0.930 . S
H258 C251 0.930 . S
C259 C260 1.392 . S
C259 N263 1.328 . S
C259 H265 0.930 . S
C260 C259 1.392 . S
C260 N264 1.331 . S
C261 C262 1.391 . S
C261 N264 1.329 . S
C261 H271 0.930 . S
C262 C261 1.391 . S
C262 N263 1.334 . S
C262 H269 0.930 . S
N263 Zn247 2.119 . S
N263 C259 1.328 . S
N263 C262 1.334 . S
N264 C260 1.331 . S
N264 C261 1.329 . S
H265 C259 0.930 . S
C266 O246 1.257 . S
C266 O267 1.244 . S
O267 C266 1.244 . S
O268 C244 1.257 . S
O268 Zn247 2.019 . S
H269 C262 0.930 . S
H270 C249 0.930 . S
H271 C261 0.930 . S
Zn272 N276 2.020 . S
Zn272 O280 2.019 . S
Zn272 N282 2.119 . S
Zn272 O290 1.975 . S
C273 N274 1.334 . S
C273 N277 1.336 . S
N274 C273 1.334 . S
N274 C275 1.334 . S
C275 N274 1.334 . S
C275 N276 1.336 . S
N276 Zn272 2.020 . S
N276 C275 1.336 . S
N276 N277 1.354 . S
N277 C273 1.336 . S
N277 N276 1.354 . S
N277 Zn281 2.020 . S
C278 O279 1.244 . S
C278 O302 1.257 . S
O279 C278 1.244 . S
O280 Zn272 2.019 . S
O280 C300 1.257 . S
Zn281 N277 2.020 . S
Zn281 O288 1.975 . S
Zn281 N297 2.119 . S
Zn281 O302 2.019 . S
N282 Zn272 2.119 . S
N282 C284 1.334 . S
N282 C285 1.328 . S
C283 C284 1.391 . S
C283 N286 1.329 . S
C283 H304 0.930 . S
C284 N282 1.334 . S
C284 C283 1.391 . S
C284 H291 0.930 . S
C285 N282 1.328 . S
C285 C287 1.392 . S
C285 H292 0.930 . S
N286 C283 1.329 . S
N286 C287 1.331 . S
C287 C285 1.392 . S
C287 N286 1.331 . S
O288 Zn281 1.975 . S
O288 C289 1.252 . S
C289 O288 1.252 . S
C289 O290 1.252 . S
O290 Zn272 1.975 . S
O290 C289 1.252 . S
H291 C284 0.930 . S
H292 C285 0.930 . S
C293 C294 1.392 . S
C293 N297 1.328 . S
C293 H299 0.930 . S
C294 C293 1.392 . S
C294 N298 1.331 . S
C295 C296 1.391 . S
C295 N298 1.329 . S
C295 H305 0.930 . S
C296 C295 1.391 . S
C296 N297 1.334 . S
C296 H303 0.930 . S
N297 Zn281 2.119 . S
N297 C293 1.328 . S
N297 C296 1.334 . S
N298 C294 1.331 . S
N298 C295 1.329 . S
H299 C293 0.930 . S
C300 O280 1.257 . S
C300 O301 1.244 . S
O301 C300 1.244 . S
O302 C278 1.257 . S
O302 Zn281 2.019 . S
H303 C296 0.930 . S
H304 C283 0.930 . S
H305 C295 0.930 . S
Zn306 N310 2.020 . S
Zn306 O314 2.019 . S
Zn306 N316 2.119 . S
Zn306 O324 1.975 . S
C307 N308 1.334 . S
C307 N311 1.336 . S
N308 C307 1.334 . S
N308 C309 1.334 . S
C309 N308 1.334 . S
C309 N310 1.336 . S
N310 Zn306 2.020 . S
N310 C309 1.336 . S
N310 N311 1.354 . S
N311 C307 1.336 . S
N311 N310 1.354 . S
N311 Zn315 2.020 . S
C312 O313 1.244 . S
C312 O336 1.257 . S
O313 C312 1.244 . S
O314 Zn306 2.019 . S
O314 C334 1.257 . S
Zn315 N311 2.020 . S
Zn315 O322 1.975 . S
Zn315 N331 2.119 . S
Zn315 O336 2.019 . S
N316 Zn306 2.119 . S
N316 C318 1.334 . S
N316 C319 1.328 . S
C317 C318 1.391 . S
C317 N320 1.329 . S
C317 H338 0.930 . S
C318 N316 1.334 . S
C318 C317 1.391 . S
C318 H325 0.930 . S
C319 N316 1.328 . S
C319 C321 1.392 . S
C319 H326 0.930 . S
N320 C317 1.329 . S
N320 C321 1.331 . S
C321 C319 1.392 . S
C321 N320 1.331 . S
O322 Zn315 1.975 . S
O322 C323 1.252 . S
C323 O322 1.252 . S
C323 O324 1.252 . S
O324 Zn306 1.975 . S
O324 C323 1.252 . S
H325 C318 0.930 . S
H326 C319 0.930 . S
C327 C328 1.392 . S
C327 N331 1.328 . S
C327 H333 0.930 . S
C328 C327 1.392 . S
C328 N332 1.331 . S
C329 C330 1.391 . S
C329 N332 1.329 . S
C329 H339 0.930 . S
C330 C329 1.391 . S
C330 N331 1.334 . S
C330 H337 0.930 . S
N331 Zn315 2.119 . S
N331 C327 1.328 . S
N331 C330 1.334 . S
N332 C328 1.331 . S
N332 C329 1.329 . S
H333 C327 0.930 . S
C334 O314 1.257 . S
C334 O335 1.244 . S
O335 C334 1.244 . S
O336 C312 1.257 . S
O336 Zn315 2.019 . S
H337 C330 0.930 . S
H338 C317 0.930 . S
H339 C329 0.930 . S
Zn340 N344 2.020 . S
Zn340 O348 2.019 . S
Zn340 N350 2.119 . S
Zn340 O358 1.975 . S
C341 N342 1.334 . S
C341 N345 1.336 . S
N342 C341 1.334 . S
N342 C343 1.334 . S
C343 N342 1.334 . S
C343 N344 1.336 . S
N344 Zn340 2.020 . S
N344 C343 1.336 . S
N344 N345 1.354 . S
N345 C341 1.336 . S
N345 N344 1.354 . S
N345 Zn349 2.020 . S
C346 O347 1.244 . S
C346 O370 1.257 . S
O347 C346 1.244 . S
O348 Zn340 2.019 . S
O348 C368 1.257 . S
Zn349 N345 2.020 . S
Zn349 O356 1.975 . S
Zn349 N365 2.119 . S
Zn349 O370 2.019 . S
N350 Zn340 2.119 . S
N350 C352 1.334 . S
N350 C353 1.328 . S
C351 C352 1.391 . S
C351 N354 1.329 . S
C351 H372 0.930 . S
C352 N350 1.334 . S
C352 C351 1.391 . S
C352 H359 0.930 . S
C353 N350 1.328 . S
C353 C355 1.392 . S
C353 H360 0.930 . S
N354 C351 1.329 . S
N354 C355 1.331 . S
C355 C353 1.392 . S
C355 N354 1.331 . S
O356 Zn349 1.975 . S
O356 C357 1.252 . S
C357 O356 1.252 . S
C357 O358 1.252 . S
O358 Zn340 1.975 . S
O358 C357 1.252 . S
H359 C352 0.930 . S
H360 C353 0.930 . S
C361 C362 1.392 . S
C361 N365 1.328 . S
C361 H367 0.930 . S
C362 C361 1.392 . S
C362 N366 1.331 . S
C363 C364 1.391 . S
C363 N366 1.329 . S
C363 H373 0.930 . S
C364 C363 1.391 . S
C364 N365 1.334 . S
C364 H371 0.930 . S
N365 Zn349 2.119 . S
N365 C361 1.328 . S
N365 C364 1.334 . S
N366 C362 1.331 . S
N366 C363 1.329 . S
H367 C361 0.930 . S
C368 O348 1.257 . S
C368 O369 1.244 . S
O369 C368 1.244 . S
O370 C346 1.257 . S
O370 Zn349 2.019 . S
H371 C364 0.930 . S
H372 C351 0.930 . S
H373 C363 0.930 . S
Zn374 N378 2.020 . S
Zn374 O382 2.019 . S
Zn374 N384 2.119 . S
Zn374 O392 1.975 . S
C375 N376 1.334 . S
C375 N379 1.336 . S
N376 C375 1.334 . S
N376 C377 1.334 . S
C377 N376 1.334 . S
C377 N378 1.336 . S
N378 Zn374 2.020 . S
N378 C377 1.336 . S
N378 N379 1.354 . S
N379 C375 1.336 . S
N379 N378 1.354 . S
N379 Zn383 2.020 . S
C380 O381 1.244 . S
C380 O404 1.257 . S
O381 C380 1.244 . S
O382 Zn374 2.019 . S
O382 C402 1.257 . S
Zn383 N379 2.020 . S
Zn383 O390 1.975 . S
Zn383 N399 2.119 . S
Zn383 O404 2.019 . S
N384 Zn374 2.119 . S
N384 C386 1.334 . S
N384 C387 1.328 . S
C385 C386 1.391 . S
C385 N388 1.329 . S
C385 H406 0.930 . S
C386 N384 1.334 . S
C386 C385 1.391 . S
C386 H393 0.930 . S
C387 N384 1.328 . S
C387 C389 1.392 . S
C387 H394 0.930 . S
N388 C385 1.329 . S
N388 C389 1.331 . S
C389 C387 1.392 . S
C389 N388 1.331 . S
O390 Zn383 1.975 . S
O390 C391 1.252 . S
C391 O390 1.252 . S
C391 O392 1.252 . S
O392 Zn374 1.975 . S
O392 C391 1.252 . S
H393 C386 0.930 . S
H394 C387 0.930 . S
C395 C396 1.392 . S
C395 N399 1.328 . S
C395 H401 0.930 . S
C396 C395 1.392 . S
C396 N400 1.331 . S
C397 C398 1.391 . S
C397 N400 1.329 . S
C397 H407 0.930 . S
C398 C397 1.391 . S
C398 N399 1.334 . S
C398 H405 0.930 . S
N399 Zn383 2.119 . S
N399 C395 1.328 . S
N399 C398 1.334 . S
N400 C396 1.331 . S
N400 C397 1.329 . S
H401 C395 0.930 . S
C402 O382 1.257 . S
C402 O403 1.244 . S
O403 C402 1.244 . S
O404 C380 1.257 . S
O404 Zn383 2.019 . S
H405 C398 0.930 . S
H406 C385 0.930 . S
H407 C397 0.930 . S
H408 C416 0.950 . S
H409 C421 0.950 . S
H410 C418 0.950 . S
H411 C420 0.950 1_565 S
H412 C422 0.950 . S
H413 C424 0.950 . S
H414 C426 0.950 1_545 S
H415 C427 0.950 . S
C416 H408 0.950 . S
C416 C417 1.386 . S
C416 C418 1.391 . S
C417 C416 1.386 . S
C417 C421 1.393 . S
C418 H410 0.950 . S
C418 C416 1.391 . S
C418 C419 1.400 . S
C419 C418 1.400 . S
C419 C420 1.398 . S
C419 C425 1.491 1_545 S
C420 H411 0.950 1_545 S
C420 C419 1.398 . S
C420 C421 1.391 . S
C421 H409 0.950 . S
C421 C417 1.393 . S
C421 C420 1.391 . S
C422 H412 0.950 . S
C422 C423 1.386 . S
C422 C424 1.391 . S
C423 C422 1.386 . S
C423 C427 1.393 . S
C424 H413 0.950 . S
C424 C422 1.391 . S
C424 C425 1.400 . S
C425 C419 1.491 1_565 S
C425 C424 1.400 . S
C425 C426 1.398 . S
C426 H414 0.950 1_565 S
C426 C425 1.398 . S
C426 C427 1.391 . S
C427 H415 0.950 . S
C427 C423 1.393 . S
C427 C426 1.391 . S
H428 C436 0.950 . S
H429 C441 0.950 . S
H430 C438 0.950 . S
H431 C440 0.950 . S
H432 C442 0.950 . S
H433 C444 0.950 . S
H434 C446 0.950 . S
H435 C447 0.950 . S
C436 H428 0.950 . S
C436 C437 1.386 . S
C436 C438 1.391 . S
C437 C436 1.386 . S
C437 C441 1.393 . S
C438 H430 0.950 . S
C438 C436 1.391 . S
C438 C439 1.400 . S
C439 C438 1.400 . S
C439 C440 1.398 . S
C439 C445 1.491 . S
C440 H431 0.950 . S
C440 C439 1.398 . S
C440 C441 1.391 . S
C441 H429 0.950 . S
C441 C437 1.393 . S
C441 C440 1.391 . S
C442 H432 0.950 . S
C442 C443 1.386 . S
C442 C444 1.391 . S
C443 C442 1.386 . S
C443 C447 1.393 . S
C444 H433 0.950 . S
C444 C442 1.391 . S
C444 C445 1.400 . S
C445 C439 1.491 . S
C445 C444 1.400 . S
C445 C446 1.398 . S
C446 H434 0.950 . S
C446 C445 1.398 . S
C446 C447 1.391 . S
C447 H435 0.950 . S
C447 C443 1.393 . S
C447 C446 1.391 . S
H448 C456 0.950 . S
H449 C461 0.950 . S
H450 C458 0.950 1_655 S
H451 C460 0.950 . S
H452 C462 0.950 . S
H453 C464 0.950 1_455 S
H454 C466 0.950 . S
H455 C467 0.950 . S
C456 H448 0.950 . S
C456 C457 1.386 . S
C456 C458 1.391 . S
C457 C456 1.386 . S
C457 C461 1.393 . S
C458 H450 0.950 1_455 S
C458 C456 1.391 . S
C458 C459 1.400 . S
C459 C458 1.400 . S
C459 C460 1.398 . S
C459 C465 1.491 1_455 S
C460 H451 0.950 . S
C460 C459 1.398 . S
C460 C461 1.391 . S
C461 H449 0.950 . S
C461 C457 1.393 . S
C461 C460 1.391 . S
C462 H452 0.950 . S
C462 C463 1.386 . S
C462 C464 1.391 . S
C463 C462 1.386 . S
C463 C467 1.393 . S
C464 H453 0.950 1_655 S
C464 C462 1.391 . S
C464 C465 1.400 . S
C465 C459 1.491 1_655 S
C465 C464 1.400 . S
C465 C466 1.398 . S
C466 H454 0.950 . S
C466 C465 1.398 . S
C466 C467 1.391 . S
C467 H455 0.950 . S
C467 C463 1.393 . S
C467 C466 1.391 . S
H468 C476 0.950 . S
H469 C481 0.950 . S
H470 C478 0.950 . S
H471 C480 0.950 1_545 S
H472 C482 0.950 . S
H473 C484 0.950 . S
H474 C486 0.950 1_565 S
H475 C487 0.950 . S
C476 H468 0.950 . S
C476 C477 1.386 . S
C476 C478 1.391 . S
C477 C476 1.386 . S
C477 C481 1.393 . S
C478 H470 0.950 . S
C478 C476 1.391 . S
C478 C479 1.400 . S
C479 C478 1.400 . S
C479 C480 1.398 . S
C479 C485 1.491 1_565 S
C480 H471 0.950 1_565 S
C480 C479 1.398 . S
C480 C481 1.391 . S
C481 H469 0.950 . S
C481 C477 1.393 . S
C481 C480 1.391 . S
C482 H472 0.950 . S
C482 C483 1.386 . S
C482 C484 1.391 . S
C483 C482 1.386 . S
C483 C487 1.393 . S
C484 H473 0.950 . S
C484 C482 1.391 . S
C484 C485 1.400 . S
C485 C479 1.491 1_545 S
C485 C484 1.400 . S
C485 C486 1.398 . S
C486 H474 0.950 1_545 S
C486 C485 1.398 . S
C486 C487 1.391 . S
C487 H475 0.950 . S
C487 C483 1.393 . S
C487 C486 1.391 . S
H488 C496 0.950 . S
H489 C501 0.950 . S
H490 C498 0.950 . S
H491 C500 0.950 . S
H492 C502 0.950 . S
H493 C504 0.950 . S
H494 C506 0.950 . S
H495 C507 0.950 . S
C496 H488 0.950 . S
C496 C497 1.386 . S
C496 C498 1.391 . S
C497 C496 1.386 . S
C497 C501 1.393 . S
C498 H490 0.950 . S
C498 C496 1.391 . S
C498 C499 1.400 . S
C499 C498 1.400 . S
C499 C500 1.398 . S
C499 C505 1.491 . S
C500 H491 0.950 . S
C500 C499 1.398 . S
C500 C501 1.391 . S
C501 H489 0.950 . S
C501 C497 1.393 . S
C501 C500 1.391 . S
C502 H492 0.950 . S
C502 C503 1.386 . S
C502 C504 1.391 . S
C503 C502 1.386 . S
C503 C507 1.393 . S
C504 H493 0.950 . S
C504 C502 1.391 . S
C504 C505 1.400 . S
C505 C499 1.491 . S
C505 C504 1.400 . S
C505 C506 1.398 . S
C506 H494 0.950 . S
C506 C505 1.398 . S
C506 C507 1.391 . S
C507 H495 0.950 . S
C507 C503 1.393 . S
C507 C506 1.391 . S
H508 C516 0.950 . S
H509 C521 0.950 . S
H510 C518 0.950 . S
H511 C520 0.950 1_455 S
H512 C522 0.950 . S
H513 C524 0.950 . S
H514 C526 0.950 1_655 S
H515 C527 0.950 . S
C516 H508 0.950 . S
C516 C517 1.386 . S
C516 C518 1.391 . S
C517 C516 1.386 . S
C517 C521 1.393 . S
C518 H510 0.950 . S
C518 C516 1.391 . S
C518 C519 1.400 . S
C519 C518 1.400 . S
C519 C520 1.398 . S
C519 C525 1.491 1_655 S
C520 H511 0.950 1_655 S
C520 C519 1.398 . S
C520 C521 1.391 . S
C521 H509 0.950 . S
C521 C517 1.393 . S
C521 C520 1.391 . S
C522 H512 0.950 . S
C522 C523 1.386 . S
C522 C524 1.391 . S
C523 C522 1.386 . S
C523 C527 1.393 . S
C524 H513 0.950 . S
C524 C522 1.391 . S
C524 C525 1.400 . S
C525 C519 1.491 1_455 S
C525 C524 1.400 . S
C525 C526 1.398 . S
C526 H514 0.950 1_455 S
C526 C525 1.398 . S
C526 C527 1.391 . S
C527 H515 0.950 . S
C527 C523 1.393 . S
C527 C526 1.391 . S
H528 C536 0.950 . S
H529 C541 0.950 . S
H530 C538 0.950 . S
H531 C540 0.961 . S
H532 C542 0.950 . S
H533 C544 0.950 . S
H534 C546 0.961 . S
H535 C547 0.950 . S
C536 H528 0.950 . S
C536 C537 1.386 . S
C536 C538 1.391 . S
C537 C536 1.386 . S
C537 C541 1.393 . S
C538 H530 0.950 . S
C538 C536 1.391 . S
C538 C539 1.400 . S
C539 C538 1.400 . S
C539 C540 1.398 . S
C539 C545 1.491 1_545 S
C540 H531 0.961 . S
C540 C539 1.398 . S
C540 C541 1.391 . S
C541 H529 0.950 . S
C541 C537 1.393 . S
C541 C540 1.391 . S
C542 H532 0.950 . S
C542 C543 1.386 . S
C542 C544 1.391 . S
C543 C542 1.386 . S
C543 C547 1.393 . S
C544 H533 0.950 . S
C544 C542 1.391 . S
C544 C545 1.400 . S
C545 C539 1.491 1_565 S
C545 C544 1.400 . S
C545 C546 1.398 . S
C546 H534 0.961 . S
C546 C545 1.398 . S
C546 C547 1.391 . S
C547 H535 0.950 . S
C547 C543 1.393 . S
C547 C546 1.391 . S
H548 C556 0.950 . S
H549 C561 0.950 . S
H550 C558 0.950 . S
H551 C560 0.950 . S
H552 C562 0.950 . S
H553 C564 0.950 . S
H554 C566 0.950 . S
H555 C567 0.950 . S
C556 H548 0.950 . S
C556 C557 1.386 . S
C556 C558 1.391 . S
C557 C556 1.386 . S
C557 C561 1.393 . S
C558 H550 0.950 . S
C558 C556 1.391 . S
C558 C559 1.400 . S
C559 C558 1.400 . S
C559 C560 1.398 . S
C559 C565 1.491 . S
C560 H551 0.950 . S
C560 C559 1.398 . S
C560 C561 1.391 . S
C561 H549 0.950 . S
C561 C557 1.393 . S
C561 C560 1.391 . S
C562 H552 0.950 . S
C562 C563 1.386 . S
C562 C564 1.391 . S
C563 C562 1.386 . S
C563 C567 1.393 . S
C564 H553 0.950 . S
C564 C562 1.391 . S
C564 C565 1.400 . S
C565 C559 1.491 . S
C565 C564 1.400 . S
C565 C566 1.398 . S
C566 H554 0.950 . S
C566 C565 1.398 . S
C566 C567 1.391 . S
C567 H555 0.950 . S
C567 C563 1.393 . S
C567 C566 1.391 . S
H568 C576 0.950 . S
H569 C581 0.950 . S
H570 C578 0.950 1_655 S
H571 C580 0.950 . S
H572 C582 0.950 . S
H573 C584 0.950 1_455 S
H574 C586 0.950 . S
H575 C587 0.950 . S
C576 H568 0.950 . S
C576 C577 1.386 . S
C576 C578 1.391 . S
C577 C576 1.386 . S
C577 C581 1.393 . S
C578 H570 0.950 1_455 S
C578 C576 1.391 . S
C578 C579 1.400 . S
C579 C578 1.400 . S
C579 C580 1.398 . S
C579 C585 1.491 1_455 S
C580 H571 0.950 . S
C580 C579 1.398 . S
C580 C581 1.391 . S
C581 H569 0.950 . S
C581 C577 1.393 . S
C581 C580 1.391 . S
C582 H572 0.950 . S
C582 C583 1.386 . S
C582 C584 1.391 . S
C583 C582 1.386 . S
C583 C587 1.393 . S
C584 H573 0.950 1_655 S
C584 C582 1.391 . S
C584 C585 1.400 . S
C585 C579 1.491 1_655 S
C585 C584 1.400 . S
C585 C586 1.398 . S
C586 H574 0.950 . S
C586 C585 1.398 . S
C586 C587 1.391 . S
C587 H575 0.950 . S
C587 C583 1.393 . S
C587 C586 1.391 . S
H588 C596 0.950 . S
H589 C601 0.950 . S
H590 C598 0.950 1_565 S
H591 C600 0.950 . S
H592 C602 0.950 . S
H593 C604 0.950 1_545 S
H594 C606 0.950 . S
H595 C607 0.950 . S
C596 H588 0.950 . S
C596 C597 1.386 . S
C596 C598 1.391 . S
C597 C596 1.386 . S
C597 C601 1.393 . S
C598 H590 0.950 1_545 S
C598 C596 1.391 . S
C598 C599 1.400 . S
C599 C598 1.400 . S
C599 C600 1.398 . S
C599 C605 1.491 1_545 S
C600 H591 0.950 . S
C600 C599 1.398 . S
C600 C601 1.391 . S
C601 H589 0.950 . S
C601 C597 1.393 . S
C601 C600 1.391 . S
C602 H592 0.950 . S
C602 C603 1.386 . S
C602 C604 1.391 . S
C603 C602 1.386 . S
C603 C607 1.393 . S
C604 H593 0.950 1_565 S
C604 C602 1.391 . S
C604 C605 1.400 . S
C605 C599 1.491 1_565 S
C605 C604 1.400 . S
C605 C606 1.398 . S
C606 H594 0.950 . S
C606 C605 1.398 . S
C606 C607 1.391 . S
C607 H595 0.950 . S
C607 C603 1.393 . S
C607 C606 1.391 . S
H608 C616 0.950 . S
H609 C621 0.950 . S
H610 C618 0.950 . S
H611 C620 0.950 . S
H612 C622 0.950 . S
H613 C624 0.950 . S
H614 C626 0.950 . S
H615 C627 0.950 . S
C616 H608 0.950 . S
C616 C617 1.386 . S
C616 C618 1.391 . S
C617 C616 1.386 . S
C617 C621 1.393 . S
C618 H610 0.950 . S
C618 C616 1.391 . S
C618 C619 1.400 . S
C619 C618 1.400 . S
C619 C620 1.398 . S
C619 C625 1.491 . S
C620 H611 0.950 . S
C620 C619 1.398 . S
C620 C621 1.391 . S
C621 H609 0.950 . S
C621 C617 1.393 . S
C621 C620 1.391 . S
C622 H612 0.950 . S
C622 C623 1.386 . S
C622 C624 1.391 . S
C623 C622 1.386 . S
C623 C627 1.393 . S
C624 H613 0.950 . S
C624 C622 1.391 . S
C624 C625 1.400 . S
C625 C619 1.491 . S
C625 C624 1.400 . S
C625 C626 1.398 . S
C626 H614 0.950 . S
C626 C625 1.398 . S
C626 C627 1.391 . S
C627 H615 0.950 . S
C627 C623 1.393 . S
C627 C626 1.391 . S
H628 C636 0.950 . S
H629 C641 0.950 . S
H630 C638 0.950 . S
H631 C640 0.950 . S
H632 C642 0.950 . S
H633 C644 0.950 . S
H634 C646 0.950 . S
H635 C647 0.950 . S
C636 H628 0.950 . S
C636 C637 1.386 . S
C636 C638 1.391 . S
C637 C636 1.386 . S
C637 C641 1.393 . S
C638 H630 0.950 . S
C638 C636 1.391 . S
C638 C639 1.400 . S
C639 C638 1.400 . S
C639 C640 1.398 . S
C639 C645 1.491 1_455 S
C640 H631 0.950 . S
C640 C639 1.398 . S
C640 C641 1.391 . S
C641 H629 0.950 . S
C641 C637 1.393 . S
C641 C640 1.391 . S
C642 H632 0.950 . S
C642 C643 1.386 . S
C642 C644 1.391 . S
C643 C642 1.386 . S
C643 C647 1.393 . S
C644 H633 0.950 . S
C644 C642 1.391 . S
C644 C645 1.400 . S
C645 C639 1.491 1_655 S
C645 C644 1.400 . S
C645 C646 1.398 . S
C646 H634 0.950 . S
C646 C645 1.398 . S
C646 C647 1.391 . S
C647 H635 0.950 . S
C647 C643 1.393 . S
C647 C646 1.391 . S
H648 C656 0.950 . S
H649 C661 0.950 . S
H650 C658 0.950 1_545 S
H651 C660 0.950 . S
H652 C662 0.950 . S
H653 C664 0.950 1_565 S
H654 C666 0.950 . S
H655 C667 0.950 . S
C656 H648 0.950 . S
C656 C657 1.395 . S
C656 C658 1.391 . S
C657 C656 1.395 . S
C657 C661 1.384 1_556 S
C658 H650 0.950 1_565 S
C658 C656 1.391 . S
C658 C659 1.403 . S
C659 C658 1.403 . S
C659 C660 1.395 1_556 S
C659 C665 1.490 1_566 S
C660 H651 0.950 . S
C660 C659 1.395 1_554 S
C660 C661 1.391 . S
C661 H649 0.950 . S
C661 C657 1.384 1_554 S
C661 C660 1.391 . S
C662 H652 0.950 . S
C662 C663 1.398 . S
C662 C664 1.391 . S
C663 C662 1.398 . S
C663 C667 1.380 1_554 S
C664 H653 0.950 1_545 S
C664 C662 1.391 . S
C664 C665 1.407 . S
C665 C659 1.490 1_544 S
C665 C664 1.407 . S
C665 C666 1.392 1_554 S
C666 H654 0.950 . S
C666 C665 1.392 1_556 S
C666 C667 1.391 . S
C667 H655 0.950 . S
C667 C663 1.380 1_556 S
C667 C666 1.391 . S
H668 C676 0.950 . S
H669 C681 0.950 . S
H670 C678 0.950 . S
H671 C680 0.950 . S
H672 C682 0.950 . S
H673 C684 0.950 . S
H674 C686 0.950 . S
H675 C687 0.950 . S
C676 H668 0.950 . S
C676 C677 1.386 . S
C676 C678 1.391 . S
C677 C676 1.386 . S
C677 C681 1.393 1_554 S
C678 H670 0.950 . S
C678 C676 1.391 . S
C678 C679 1.410 . S
C679 C678 1.410 . S
C679 C680 1.389 1_554 S
C679 C685 1.490 1_554 S
C680 H671 0.950 . S
C680 C679 1.389 1_556 S
C680 C681 1.391 . S
C681 H669 0.950 . S
C681 C677 1.393 1_556 S
C681 C680 1.391 . S
C682 H672 0.950 . S
C682 C683 1.386 . S
C682 C684 1.391 . S
C683 C682 1.386 . S
C683 C687 1.393 1_556 S
C684 H673 0.950 . S
C684 C682 1.391 . S
C684 C685 1.407 . S
C685 C679 1.490 1_556 S
C685 C684 1.407 . S
C685 C686 1.392 1_556 S
C686 H674 0.950 . S
C686 C685 1.392 1_554 S
C686 C687 1.391 . S
C687 H675 0.950 . S
C687 C683 1.393 1_554 S
C687 C686 1.391 . S
H688 C696 0.950 . S
H689 C701 0.950 . S
H690 C698 0.950 1_655 S
H691 C700 0.950 . S
H692 C702 0.950 . S
H693 C704 0.950 1_455 S
H694 C706 0.950 . S
H695 C707 0.950 . S
C696 H688 0.950 . S
C696 C697 1.386 1_554 S
C696 C698 1.391 . S
C697 C696 1.386 1_556 S
C697 C701 1.393 . S
C698 H690 0.950 1_455 S
C698 C696 1.391 . S
C698 C699 1.392 1_554 S
C699 C698 1.392 1_556 S
C699 C700 1.407 . S
C699 C705 1.490 1_456 S
C700 H691 0.950 . S
C700 C699 1.407 . S
C700 C701 1.391 . S
C701 H689 0.950 . S
C701 C697 1.393 . S
C701 C700 1.391 . S
C702 H692 0.950 . S
C702 C703 1.386 1_556 S
C702 C704 1.391 . S
C703 C702 1.386 1_554 S
C703 C707 1.393 . S
C704 H693 0.950 1_655 S
C704 C702 1.391 . S
C704 C705 1.389 1_556 S
C705 C699 1.490 1_654 S
C705 C704 1.389 1_554 S
C705 C706 1.410 . S
C706 H694 0.950 . S
C706 C705 1.410 . S
C706 C707 1.391 . S
C707 H695 0.950 . S
C707 C703 1.393 . S
C707 C706 1.391 . S
H708 C716 0.950 . S
H709 C721 0.950 . S
H710 C718 0.950 . S
H711 C720 0.950 1_455 S
H712 C722 0.950 . S
H713 C724 0.950 . S
H714 C726 0.950 1_655 S
H715 C727 0.950 . S
C716 H708 0.950 . S
C716 C717 1.386 . S
C716 C718 1.391 . S
C717 C716 1.386 . S
C717 C721 1.393 . S
C718 H710 0.950 . S
C718 C716 1.391 . S
C718 C719 1.400 . S
C719 C718 1.400 . S
C719 C720 1.398 . S
C719 C725 1.491 1_655 S
C720 H711 0.950 1_655 S
C720 C719 1.398 . S
C720 C721 1.391 . S
C721 H709 0.950 . S
C721 C717 1.393 . S
C721 C720 1.391 . S
C722 H712 0.950 . S
C722 C723 1.386 . S
C722 C724 1.391 . S
C723 C722 1.386 . S
C723 C727 1.393 . S
C724 H713 0.950 . S
C724 C722 1.391 . S
C724 C725 1.400 . S
C725 C719 1.491 1_455 S
C725 C724 1.400 . S
C725 C726 1.398 . S
C726 H714 0.950 1_455 S
C726 C725 1.398 . S
C726 C727 1.391 . S
C727 H715 0.950 . S
C727 C723 1.393 . S
C727 C726 1.391 . S
H728 C736 0.950 . S
H729 C741 0.950 . S
H730 C738 0.950 1_545 S
H731 C740 0.950 . S
H732 C742 0.950 . S
H733 C744 0.950 1_565 S
H734 C746 0.950 . S
H735 C747 0.950 . S
C736 H728 0.950 . S
C736 C737 1.386 . S
C736 C738 1.391 . S
C737 C736 1.386 . S
C737 C741 1.393 . S
C738 H730 0.950 1_565 S
C738 C736 1.391 . S
C738 C739 1.400 . S
C739 C738 1.400 . S
C739 C740 1.398 . S
C739 C745 1.491 1_565 S
C740 H731 0.950 . S
C740 C739 1.398 . S
C740 C741 1.391 . S
C741 H729 0.950 . S
C741 C737 1.393 . S
C741 C740 1.391 . S
C742 H732 0.950 . S
C742 C743 1.386 . S
C742 C744 1.391 . S
C743 C742 1.386 . S
C743 C747 1.393 . S
C744 H733 0.950 1_545 S
C744 C742 1.391 . S
C744 C745 1.400 . S
C745 C739 1.491 1_545 S
C745 C744 1.400 . S
C745 C746 1.398 . S
C746 H734 0.950 . S
C746 C745 1.398 . S
C746 C747 1.391 . S
C747 H735 0.950 . S
C747 C743 1.393 . S
C747 C746 1.391 . S
H748 C756 0.950 . S
H749 C761 0.950 . S
H750 C758 0.950 . S
H751 C760 0.950 . S
H752 C762 0.950 . S
H753 C764 0.950 . S
H754 C766 0.950 . S
H755 C767 0.950 . S
C756 H748 0.950 . S
C756 C757 1.386 . S
C756 C758 1.391 . S
C757 C756 1.386 . S
C757 C761 1.393 . S
C758 H750 0.950 . S
C758 C756 1.391 . S
C758 C759 1.400 . S
C759 C758 1.400 . S
C759 C760 1.398 . S
C759 C765 1.491 . S
C760 H751 0.950 . S
C760 C759 1.398 . S
C760 C761 1.391 . S
C761 H749 0.950 . S
C761 C757 1.393 . S
C761 C760 1.391 . S
C762 H752 0.950 . S
C762 C763 1.386 . S
C762 C764 1.391 . S
C763 C762 1.386 . S
C763 C767 1.393 . S
C764 H753 0.950 . S
C764 C762 1.391 . S
C764 C765 1.400 . S
C765 C759 1.491 . S
C765 C764 1.400 . S
C765 C766 1.398 . S
C766 H754 0.950 . S
C766 C765 1.398 . S
C766 C767 1.391 . S
C767 H755 0.950 . S
C767 C763 1.393 . S
C767 C766 1.391 . S
H768 C776 0.950 . S
H769 C781 0.950 . S
H770 C778 0.950 . S
H771 C780 0.950 . S
H772 C782 0.950 . S
H773 C784 0.950 . S
H774 C786 0.950 . S
H775 C787 0.950 . S
C776 H768 0.950 . S
C776 C777 1.386 . S
C776 C778 1.391 . S
C777 C776 1.386 . S
C777 C781 1.393 . S
C778 H770 0.950 . S
C778 C776 1.391 . S
C778 C779 1.400 . S
C779 C778 1.400 . S
C779 C780 1.398 . S
C779 C785 1.491 . S
C780 H771 0.950 . S
C780 C779 1.398 . S
C780 C781 1.391 . S
C781 H769 0.950 . S
C781 C777 1.393 . S
C781 C780 1.391 . S
C782 H772 0.950 . S
C782 C783 1.386 . S
C782 C784 1.391 . S
C783 C782 1.386 . S
C783 C787 1.393 . S
C784 H773 0.950 . S
C784 C782 1.391 . S
C784 C785 1.400 . S
C785 C779 1.491 . S
C785 C784 1.400 . S
C785 C786 1.398 . S
C786 H774 0.950 . S
C786 C785 1.398 . S
C786 C787 1.391 . S
C787 H775 0.950 . S
C787 C783 1.393 . S
C787 C786 1.391 . S
H788 C796 0.950 . S
H789 C801 0.950 . S
H790 C798 0.950 . S
H791 C800 0.950 . S
H792 C802 0.950 . S
H793 C804 0.950 . S
H794 C806 0.950 . S
H795 C807 0.950 . S
C796 H788 0.950 . S
C796 C797 1.386 . S
C796 C798 1.391 . S
C797 C796 1.386 . S
C797 C801 1.393 . S
C798 H790 0.950 . S
C798 C796 1.391 . S
C798 C799 1.400 . S
C799 C798 1.400 . S
C799 C800 1.398 . S
C799 C805 1.491 . S
C800 H791 0.950 . S
C800 C799 1.398 . S
C800 C801 1.391 . S
C801 H789 0.950 . S
C801 C797 1.393 . S
C801 C800 1.391 . S
C802 H792 0.950 . S
C802 C803 1.386 . S
C802 C804 1.391 . S
C803 C802 1.386 . S
C803 C807 1.393 . S
C804 H793 0.950 . S
C804 C802 1.391 . S
C804 C805 1.400 . S
C805 C799 1.491 . S
C805 C804 1.400 . S
C805 C806 1.398 . S
C806 H794 0.950 . S
C806 C805 1.398 . S
C806 C807 1.391 . S
C807 H795 0.950 . S
C807 C803 1.393 . S
C807 C806 1.391 . S
H808 C816 0.950 . S
H809 C821 0.950 . S
H810 C818 0.950 . S
H811 C820 0.950 . S
H812 C822 0.950 . S
H813 C824 0.950 . S
H814 C826 0.950 . S
H815 C827 0.950 . S
C816 H808 0.950 . S
C816 C817 1.386 . S
C816 C818 1.391 . S
C817 C816 1.386 . S
C817 C821 1.393 . S
C818 H810 0.950 . S
C818 C816 1.391 . S
C818 C819 1.400 . S
C819 C818 1.400 . S
C819 C820 1.398 . S
C819 C825 1.491 . S
C820 H811 0.950 . S
C820 C819 1.398 . S
C820 C821 1.391 . S
C821 H809 0.950 . S
C821 C817 1.393 . S
C821 C820 1.391 . S
C822 H812 0.950 . S
C822 C823 1.386 . S
C822 C824 1.391 . S
C823 C822 1.386 . S
C823 C827 1.393 . S
C824 H813 0.950 . S
C824 C822 1.391 . S
C824 C825 1.400 . S
C825 C819 1.491 . S
C825 C824 1.400 . S
C825 C826 1.398 . S
C826 H814 0.950 . S
C826 C825 1.398 . S
C826 C827 1.391 . S
C827 H815 0.950 . S
C827 C823 1.393 . S
C827 C826 1.391 . S
H828 C836 0.950 . S
H829 C841 0.950 . S
H830 C838 0.950 . S
H831 C840 0.950 . S
H832 C842 0.950 . S
H833 C844 0.950 . S
H834 C846 0.950 . S
H835 C847 0.950 . S
C836 H828 0.950 . S
C836 C837 1.386 . S
C836 C838 1.391 . S
C837 C836 1.386 . S
C837 C841 1.393 . S
C838 H830 0.950 . S
C838 C836 1.391 . S
C838 C839 1.400 . S
C839 C838 1.400 . S
C839 C840 1.398 . S
C839 C845 1.491 . S
C840 H831 0.950 . S
C840 C839 1.398 . S
C840 C841 1.391 . S
C841 H829 0.950 . S
C841 C837 1.393 . S
C841 C840 1.391 . S
C842 H832 0.950 . S
C842 C843 1.386 . S
C842 C844 1.391 . S
C843 C842 1.386 . S
C843 C847 1.393 . S
C844 H833 0.950 . S
C844 C842 1.391 . S
C844 C845 1.400 . S
C845 C839 1.491 . S
C845 C844 1.400 . S
C845 C846 1.398 . S
C846 H834 0.950 . S
C846 C845 1.398 . S
C846 C847 1.391 . S
C847 H835 0.950 . S
C847 C843 1.393 . S
C847 C846 1.391 . S
H848 C856 0.950 . S
H849 C861 0.950 . S
H850 C858 0.950 . S
H851 C860 0.950 . S
H852 C862 0.950 . S
H853 C864 0.950 . S
H854 C866 0.950 . S
H855 C867 0.950 . S
C856 H848 0.950 . S
C856 C857 1.386 . S
C856 C858 1.391 . S
C857 C856 1.386 . S
C857 C861 1.393 . S
C858 H850 0.950 . S
C858 C856 1.391 . S
C858 C859 1.400 . S
C859 C858 1.400 . S
C859 C860 1.398 . S
C859 C865 1.491 . S
C860 H851 0.950 . S
C860 C859 1.398 . S
C860 C861 1.391 . S
C861 H849 0.950 . S
C861 C857 1.393 . S
C861 C860 1.391 . S
C862 H852 0.950 . S
C862 C863 1.386 . S
C862 C864 1.391 . S
C863 C862 1.386 . S
C863 C867 1.393 . S
C864 H853 0.950 . S
C864 C862 1.391 . S
C864 C865 1.400 . S
C865 C859 1.491 . S
C865 C864 1.400 . S
C865 C866 1.398 . S
C866 H854 0.950 . S
C866 C865 1.398 . S
C866 C867 1.391 . S
C867 H855 0.950 . S
C867 C863 1.393 . S
C867 C866 1.391 . S
H868 C876 0.950 . S
H869 C881 0.950 . S
H870 C878 0.950 . S
H871 C880 0.950 . S
H872 C882 0.950 . S
H873 C884 0.950 . S
H874 C886 0.950 . S
H875 C887 0.950 . S
C876 H868 0.950 . S
C876 C877 1.386 . S
C876 C878 1.391 . S
C877 C876 1.386 . S
C877 C881 1.393 . S
C878 H870 0.950 . S
C878 C876 1.391 . S
C878 C879 1.400 . S
C879 C878 1.400 . S
C879 C880 1.398 . S
C879 C885 1.491 . S
C880 H871 0.950 . S
C880 C879 1.398 . S
C880 C881 1.391 . S
C881 H869 0.950 . S
C881 C877 1.393 . S
C881 C880 1.391 . S
C882 H872 0.950 . S
C882 C883 1.386 . S
C882 C884 1.391 . S
C883 C882 1.386 . S
C883 C887 1.393 . S
C884 H873 0.950 . S
C884 C882 1.391 . S
C884 C885 1.400 . S
C885 C879 1.491 . S
C885 C884 1.400 . S
C885 C886 1.398 . S
C886 H874 0.950 . S
C886 C885 1.398 . S
C886 C887 1.391 . S
C887 H875 0.950 . S
C887 C883 1.393 . S
C887 C886 1.391 . S
H888 C896 0.950 . S
H889 C901 0.950 . S
H890 C898 0.950 . S
H891 C900 0.950 . S
H892 C902 0.950 . S
H893 C904 0.950 . S
H894 C906 0.950 . S
H895 C907 0.950 . S
C896 H888 0.950 . S
C896 C897 1.386 . S
C896 C898 1.391 . S
C897 C896 1.386 . S
C897 C901 1.393 . S
C898 H890 0.950 . S
C898 C896 1.391 . S
C898 C899 1.400 . S
C899 C898 1.400 . S
C899 C900 1.398 . S
C899 C905 1.491 . S
C900 H891 0.950 . S
C900 C899 1.398 . S
C900 C901 1.391 . S
C901 H889 0.950 . S
C901 C897 1.393 . S
C901 C900 1.391 . S
C902 H892 0.950 . S
C902 C903 1.386 . S
C902 C904 1.391 . S
C903 C902 1.386 . S
C903 C907 1.393 . S
C904 H893 0.950 . S
C904 C902 1.391 . S
C904 C905 1.400 . S
C905 C899 1.491 . S
C905 C904 1.400 . S
C905 C906 1.398 . S
C906 H894 0.950 . S
C906 C905 1.398 . S
C906 C907 1.391 . S
C907 H895 0.950 . S
C907 C903 1.393 . S
C907 C906 1.391 . S
H908 C916 0.950 . S
H909 C921 0.950 . S
H910 C918 0.950 . S
H911 C920 0.950 . S
H912 C922 0.950 . S
H913 C924 0.950 . S
H914 C926 0.950 . S
H915 C927 0.950 . S
C916 H908 0.950 . S
C916 C917 1.386 . S
C916 C918 1.391 . S
C917 C916 1.386 . S
C917 C921 1.393 . S
C918 H910 0.950 . S
C918 C916 1.391 . S
C918 C919 1.400 . S
C919 C918 1.400 . S
C919 C920 1.398 . S
C919 C925 1.491 . S
C920 H911 0.950 . S
C920 C919 1.398 . S
C920 C921 1.391 . S
C921 H909 0.950 . S
C921 C917 1.393 . S
C921 C920 1.391 . S
C922 H912 0.950 . S
C922 C923 1.386 . S
C922 C924 1.391 . S
C923 C922 1.386 . S
C923 C927 1.393 . S
C924 H913 0.950 . S
C924 C922 1.391 . S
C924 C925 1.400 . S
C925 C919 1.491 . S
C925 C924 1.400 . S
C925 C926 1.398 . S
C926 H914 0.950 . S
C926 C925 1.398 . S
C926 C927 1.391 . S
C927 H915 0.950 . S
C927 C923 1.393 . S
C927 C926 1.391 . S
H928 C936 0.950 . S
H929 C941 0.950 . S
H930 C938 0.950 . S
H931 C940 0.950 . S
H932 C942 0.950 . S
H933 C944 0.950 . S
H934 C946 0.950 . S
H935 C947 0.950 . S
C936 H928 0.950 . S
C936 C937 1.386 . S
C936 C938 1.391 . S
C937 C936 1.386 . S
C937 C941 1.393 . S
C938 H930 0.950 . S
C938 C936 1.391 . S
C938 C939 1.400 . S
C939 C938 1.400 . S
C939 C940 1.398 . S
C939 C945 1.491 . S
C940 H931 0.950 . S
C940 C939 1.398 . S
C940 C941 1.391 . S
C941 H929 0.950 . S
C941 C937 1.393 . S
C941 C940 1.391 . S
C942 H932 0.950 . S
C942 C943 1.386 . S
C942 C944 1.391 . S
C943 C942 1.386 . S
C943 C947 1.393 . S
C944 H933 0.950 . S
C944 C942 1.391 . S
C944 C945 1.400 . S
C945 C939 1.491 . S
C945 C944 1.400 . S
C945 C946 1.398 . S
C946 H934 0.950 . S
C946 C945 1.398 . S
C946 C947 1.391 . S
C947 H935 0.950 . S
C947 C943 1.393 . S
C947 C946 1.391 . S
H948 C956 0.950 . S
H949 C961 0.950 . S
H950 C958 0.950 . S
H951 C960 0.950 . S
H952 C962 0.950 . S
H953 C964 0.950 . S
H954 C966 0.950 . S
H955 C967 0.950 . S
C956 H948 0.950 . S
C956 C957 1.386 . S
C956 C958 1.391 . S
C957 C956 1.386 . S
C957 C961 1.393 . S
C958 H950 0.950 . S
C958 C956 1.391 . S
C958 C959 1.400 . S
C959 C958 1.400 . S
C959 C960 1.398 . S
C959 C965 1.491 . S
C960 H951 0.950 . S
C960 C959 1.398 . S
C960 C961 1.391 . S
C961 H949 0.950 . S
C961 C957 1.393 . S
C961 C960 1.391 . S
C962 H952 0.950 . S
C962 C963 1.386 . S
C962 C964 1.391 . S
C963 C962 1.386 . S
C963 C967 1.393 . S
C964 H953 0.950 . S
C964 C962 1.391 . S
C964 C965 1.400 . S
C965 C959 1.491 . S
C965 C964 1.400 . S
C965 C966 1.398 . S
C966 H954 0.950 . S
C966 C965 1.398 . S
C966 C967 1.391 . S
C967 H955 0.950 . S
C967 C963 1.393 . S
C967 C966 1.391 . S
H968 C976 0.950 . S
H969 C981 0.950 . S
H970 C978 0.950 . S
H971 C980 0.950 . S
H972 C982 0.950 . S
H973 C984 0.950 . S
H974 C986 0.950 . S
H975 C987 0.950 . S
C976 H968 0.950 . S
C976 C977 1.386 . S
C976 C978 1.391 . S
C977 C976 1.386 . S
C977 C981 1.393 . S
C978 H970 0.950 . S
C978 C976 1.391 . S
C978 C979 1.400 . S
C979 C978 1.400 . S
C979 C980 1.398 . S
C979 C985 1.491 . S
C980 H971 0.950 . S
C980 C979 1.398 . S
C980 C981 1.391 . S
C981 H969 0.950 . S
C981 C977 1.393 . S
C981 C980 1.391 . S
C982 H972 0.950 . S
C982 C983 1.386 . S
C982 C984 1.391 . S
C983 C982 1.386 . S
C983 C987 1.393 . S
C984 H973 0.950 . S
C984 C982 1.391 . S
C984 C985 1.400 . S
C985 C979 1.491 . S
C985 C984 1.400 . S
C985 C986 1.398 . S
C986 H974 0.950 . S
C986 C985 1.398 . S
C986 C987 1.391 . S
C987 H975 0.950 . S
C987 C983 1.393 . S
C987 C986 1.391 . S
H988 C996 0.950 . S
H989 C1001 0.950 . S
H990 C998 0.950 . S
H991 C1000 0.950 . S
H992 C1002 0.950 . S
H993 C1004 0.950 . S
H994 C1006 0.950 . S
H995 C1007 0.950 . S
C996 H988 0.950 . S
C996 C997 1.386 . S
C996 C998 1.391 . S
C997 C996 1.386 . S
C997 C1001 1.393 . S
C998 H990 0.950 . S
C998 C996 1.391 . S
C998 C999 1.400 . S
C999 C998 1.400 . S
C999 C1000 1.398 . S
C999 C1005 1.491 . S
C1000 H991 0.950 . S
C1000 C999 1.398 . S
C1000 C1001 1.391 . S
C1001 H989 0.950 . S
C1001 C997 1.393 . S
C1001 C1000 1.391 . S
C1002 H992 0.950 . S
C1002 C1003 1.386 . S
C1002 C1004 1.391 . S
C1003 C1002 1.386 . S
C1003 C1007 1.393 . S
C1004 H993 0.950 . S
C1004 C1002 1.391 . S
C1004 C1005 1.400 . S
C1005 C999 1.491 . S
C1005 C1004 1.400 . S
C1005 C1006 1.398 . S
C1006 H994 0.950 . S
C1006 C1005 1.398 . S
C1006 C1007 1.391 . S
C1007 H995 0.950 . S
C1007 C1003 1.393 . S
C1007 C1006 1.391 . S
H1008 C1016 0.950 . S
H1009 C1021 0.950 . S
H1010 C1018 0.950 . S
H1011 C1020 0.950 . S
H1012 C1022 0.950 . S
H1013 C1024 0.950 . S
H1014 C1026 0.950 . S
H1015 C1027 0.950 . S
C1016 H1008 0.950 . S
C1016 C1017 1.386 . S
C1016 C1018 1.391 . S
C1017 C1016 1.386 . S
C1017 C1021 1.393 . S
C1018 H1010 0.950 . S
C1018 C1016 1.391 . S
C1018 C1019 1.400 . S
C1019 C1018 1.400 . S
C1019 C1020 1.398 . S
C1019 C1025 1.491 . S
C1020 H1011 0.950 . S
C1020 C1019 1.398 . S
C1020 C1021 1.391 . S
C1021 H1009 0.950 . S
C1021 C1017 1.393 . S
C1021 C1020 1.391 . S
C1022 H1012 0.950 . S
C1022 C1023 1.386 . S
C1022 C1024 1.391 . S
C1023 C1022 1.386 . S
C1023 C1027 1.393 . S
C1024 H1013 0.950 . S
C1024 C1022 1.391 . S
C1024 C1025 1.400 . S
C1025 C1019 1.491 . S
C1025 C1024 1.400 . S
C1025 C1026 1.398 . S
C1026 H1014 0.950 . S
C1026 C1025 1.398 . S
C1026 C1027 1.391 . S
C1027 H1015 0.950 . S
C1027 C1023 1.393 . S
C1027 C1026 1.391 . S
H1028 C1036 0.950 . S
H1029 C1041 0.950 . S
H1030 C1038 0.950 . S
H1031 C1040 0.950 . S
H1032 C1042 0.950 . S
H1033 C1044 0.950 . S
H1034 C1046 0.950 . S
H1035 C1047 0.950 . S
C1036 H1028 0.950 . S
C1036 C1037 1.386 . S
C1036 C1038 1.391 . S
C1037 C1036 1.386 . S
C1037 C1041 1.393 . S
C1038 H1030 0.950 . S
C1038 C1036 1.391 . S
C1038 C1039 1.400 . S
C1039 C1038 1.400 . S
C1039 C1040 1.398 . S
C1039 C1045 1.491 . S
C1040 H1031 0.950 . S
C1040 C1039 1.398 . S
C1040 C1041 1.391 . S
C1041 H1029 0.950 . S
C1041 C1037 1.393 . S
C1041 C1040 1.391 . S
C1042 H1032 0.950 . S
C1042 C1043 1.386 . S
C1042 C1044 1.391 . S
C1043 C1042 1.386 . S
C1043 C1047 1.393 . S
C1044 H1033 0.950 . S
C1044 C1042 1.391 . S
C1044 C1045 1.400 . S
C1045 C1039 1.491 . S
C1045 C1044 1.400 . S
C1045 C1046 1.398 . S
C1046 H1034 0.950 . S
C1046 C1045 1.398 . S
C1046 C1047 1.391 . S
C1047 H1035 0.950 . S
C1047 C1043 1.393 . S
C1047 C1046 1.391 . S
H1048 C1056 0.950 . S
H1049 C1061 0.950 . S
H1050 C1058 0.950 . S
H1051 C1060 0.950 . S
H1052 C1062 0.950 . S
H1053 C1064 0.950 . S
H1054 C1066 0.950 . S
H1055 C1067 0.950 . S
C1056 H1048 0.950 . S
C1056 C1057 1.386 . S
C1056 C1058 1.391 . S
C1057 C1056 1.386 . S
C1057 C1061 1.393 . S
C1058 H1050 0.950 . S
C1058 C1056 1.391 . S
C1058 C1059 1.400 . S
C1059 C1058 1.400 . S
C1059 C1060 1.398 . S
C1059 C1065 1.491 . S
C1060 H1051 0.950 . S
C1060 C1059 1.398 . S
C1060 C1061 1.391 . S
C1061 H1049 0.950 . S
C1061 C1057 1.393 . S
C1061 C1060 1.391 . S
C1062 H1052 0.950 . S
C1062 C1063 1.386 . S
C1062 C1064 1.391 . S
C1063 C1062 1.386 . S
C1063 C1067 1.393 . S
C1064 H1053 0.950 . S
C1064 C1062 1.391 . S
C1064 C1065 1.400 . S
C1065 C1059 1.491 . S
C1065 C1064 1.400 . S
C1065 C1066 1.398 . S
C1066 H1054 0.950 . S
C1066 C1065 1.398 . S
C1066 C1067 1.391 . S
C1067 H1055 0.950 . S
C1067 C1063 1.393 . S
C1067 C1066 1.391 . S
H1068 C1076 0.950 . S
H1069 C1081 0.950 . S
H1070 C1078 0.950 . S
H1071 C1080 0.950 . S
H1072 C1082 0.950 . S
H1073 C1084 0.950 . S
H1074 C1086 0.950 . S
H1075 C1087 0.950 . S
C1076 H1068 0.950 . S
C1076 C1077 1.386 . S
C1076 C1078 1.391 . S
C1077 C1076 1.386 . S
C1077 C1081 1.393 . S
C1078 H1070 0.950 . S
C1078 C1076 1.391 . S
C1078 C1079 1.400 . S
C1079 C1078 1.400 . S
C1079 C1080 1.398 . S
C1079 C1085 1.491 . S
C1080 H1071 0.950 . S
C1080 C1079 1.398 . S
C1080 C1081 1.391 . S
C1081 H1069 0.950 . S
C1081 C1077 1.393 . S
C1081 C1080 1.391 . S
C1082 H1072 0.950 . S
C1082 C1083 1.386 . S
C1082 C1084 1.391 . S
C1083 C1082 1.386 . S
C1083 C1087 1.393 . S
C1084 H1073 0.950 . S
C1084 C1082 1.391 . S
C1084 C1085 1.400 . S
C1085 C1079 1.491 . S
C1085 C1084 1.400 . S
C1085 C1086 1.398 . S
C1086 H1074 0.950 . S
C1086 C1085 1.398 . S
C1086 C1087 1.391 . S
C1087 H1075 0.950 . S
C1087 C1083 1.393 . S
C1087 C1086 1.391 . S
H1088 C1096 0.950 . S
H1089 C1101 0.950 . S
H1090 C1098 0.950 . S
H1091 C1100 0.950 . S
H1092 C1102 0.950 . S
H1093 C1104 0.950 . S
H1094 C1106 0.950 . S
H1095 C1107 0.950 . S
C1096 H1088 0.950 . S
C1096 C1097 1.386 . S
C1096 C1098 1.391 . S
C1097 C1096 1.386 . S
C1097 C1101 1.393 . S
C1098 H1090 0.950 . S
C1098 C1096 1.391 . S
C1098 C1099 1.400 . S
C1099 C1098 1.400 . S
C1099 C1100 1.398 . S
C1099 C1105 1.491 . S
C1100 H1091 0.950 . S
C1100 C1099 1.398 . S
C1100 C1101 1.391 . S
C1101 H1089 0.950 . S
C1101 C1097 1.393 . S
C1101 C1100 1.391 . S
C1102 H1092 0.950 . S
C1102 C1103 1.386 . S
C1102 C1104 1.391 . S
C1103 C1102 1.386 . S
C1103 C1107 1.393 . S
C1104 H1093 0.950 . S
C1104 C1102 1.391 . S
C1104 C1105 1.400 . S
C1105 C1099 1.491 . S
C1105 C1104 1.400 . S
C1105 C1106 1.398 . S
C1106 H1094 0.950 . S
C1106 C1105 1.398 . S
C1106 C1107 1.391 . S
C1107 H1095 0.950 . S
C1107 C1103 1.393 . S
C1107 C1106 1.391 . S
H1108 C1116 0.950 . S
H1109 C1121 0.950 . S
H1110 C1118 0.950 . S
H1111 C1120 0.950 . S
H1112 C1122 0.950 . S
H1113 C1124 0.950 . S
H1114 C1126 0.950 . S
H1115 C1127 0.950 . S
C1116 H1108 0.950 . S
C1116 C1117 1.386 . S
C1116 C1118 1.391 . S
C1117 C1116 1.386 . S
C1117 C1121 1.393 . S
C1118 H1110 0.950 . S
C1118 C1116 1.391 . S
C1118 C1119 1.400 . S
C1119 C1118 1.400 . S
C1119 C1120 1.398 . S
C1119 C1125 1.491 . S
C1120 H1111 0.950 . S
C1120 C1119 1.398 . S
C1120 C1121 1.391 . S
C1121 H1109 0.950 . S
C1121 C1117 1.393 . S
C1121 C1120 1.391 . S
C1122 H1112 0.950 . S
C1122 C1123 1.386 . S
C1122 C1124 1.391 . S
C1123 C1122 1.386 . S
C1123 C1127 1.393 . S
C1124 H1113 0.950 . S
C1124 C1122 1.391 . S
C1124 C1125 1.400 . S
C1125 C1119 1.491 . S
C1125 C1124 1.400 . S
C1125 C1126 1.398 . S
C1126 H1114 0.950 . S
C1126 C1125 1.398 . S
C1126 C1127 1.391 . S
C1127 H1115 0.950 . S
C1127 C1123 1.393 . S
C1127 C1126 1.391 . S
H1128 C1136 0.950 . S
H1129 C1141 0.950 . S
H1130 C1138 0.950 . S
H1131 C1140 0.950 . S
H1132 C1142 0.950 . S
H1133 C1144 0.950 . S
H1134 C1146 0.950 . S
H1135 C1147 0.950 . S
C1136 H1128 0.950 . S
C1136 C1137 1.386 . S
C1136 C1138 1.391 . S
C1137 C1136 1.386 . S
C1137 C1141 1.393 . S
C1138 H1130 0.950 . S
C1138 C1136 1.391 . S
C1138 C1139 1.400 . S
C1139 C1138 1.400 . S
C1139 C1140 1.398 . S
C1139 C1145 1.491 . S
C1140 H1131 0.950 . S
C1140 C1139 1.398 . S
C1140 C1141 1.391 . S
C1141 H1129 0.950 . S
C1141 C1137 1.393 . S
C1141 C1140 1.391 . S
C1142 H1132 0.950 . S
C1142 C1143 1.386 . S
C1142 C1144 1.391 . S
C1143 C1142 1.386 . S
C1143 C1147 1.393 . S
C1144 H1133 0.950 . S
C1144 C1142 1.391 . S
C1144 C1145 1.400 . S
C1145 C1139 1.491 . S
C1145 C1144 1.400 . S
C1145 C1146 1.398 . S
C1146 H1134 0.950 . S
C1146 C1145 1.398 . S
C1146 C1147 1.391 . S
C1147 H1135 0.950 . S
C1147 C1143 1.393 . S
C1147 C1146 1.391 . S
H1148 C1156 0.950 . S
H1149 C1161 0.950 . S
H1150 C1158 0.950 . S
H1151 C1160 0.950 . S
H1152 C1162 0.950 . S
H1153 C1164 0.950 . S
H1154 C1166 0.950 . S
H1155 C1167 0.950 . S
C1156 H1148 0.950 . S
C1156 C1157 1.386 . S
C1156 C1158 1.391 . S
C1157 C1156 1.386 . S
C1157 C1161 1.393 . S
C1158 H1150 0.950 . S
C1158 C1156 1.391 . S
C1158 C1159 1.400 . S
C1159 C1158 1.400 . S
C1159 C1160 1.398 . S
C1159 C1165 1.491 . S
C1160 H1151 0.950 . S
C1160 C1159 1.398 . S
C1160 C1161 1.391 . S
C1161 H1149 0.950 . S
C1161 C1157 1.393 . S
C1161 C1160 1.391 . S
C1162 H1152 0.950 . S
C1162 C1163 1.386 . S
C1162 C1164 1.391 . S
C1163 C1162 1.386 . S
C1163 C1167 1.393 . S
C1164 H1153 0.950 . S
C1164 C1162 1.391 . S
C1164 C1165 1.400 . S
C1165 C1159 1.491 . S
C1165 C1164 1.400 . S
C1165 C1166 1.398 . S
C1166 H1154 0.950 . S
C1166 C1165 1.398 . S
C1166 C1167 1.391 . S
C1167 H1155 0.950 . S
C1167 C1163 1.393 . S
C1167 C1166 1.391 . S
H1168 C1176 0.950 . S
H1169 C1181 0.950 . S
H1170 C1178 0.950 . S
H1171 C1180 0.950 . S
H1172 C1182 0.950 . S
H1173 C1184 0.950 . S
H1174 C1186 0.950 . S
H1175 C1187 0.950 . S
C1176 H1168 0.950 . S
C1176 C1177 1.386 . S
C1176 C1178 1.391 . S
C1177 C1176 1.386 . S
C1177 C1181 1.393 . S
C1178 H1170 0.950 . S
C1178 C1176 1.391 . S
C1178 C1179 1.400 . S
C1179 C1178 1.400 . S
C1179 C1180 1.398 . S
C1179 C1185 1.491 . S
C1180 H1171 0.950 . S
C1180 C1179 1.398 . S
C1180 C1181 1.391 . S
C1181 H1169 0.950 . S
C1181 C1177 1.393 . S
C1181 C1180 1.391 . S
C1182 H1172 0.950 . S
C1182 C1183 1.386 . S
C1182 C1184 1.391 . S
C1183 C1182 1.386 . S
C1183 C1187 1.393 . S
C1184 H1173 0.950 . S
C1184 C1182 1.391 . S
C1184 C1185 1.400 . S
C1185 C1179 1.491 . S
C1185 C1184 1.400 . S
C1185 C1186 1.398 . S
C1186 H1174 0.950 . S
C1186 C1185 1.398 . S
C1186 C1187 1.391 . S
C1187 H1175 0.950 . S
C1187 C1183 1.393 . S
C1187 C1186 1.391 . S
H1188 C1196 0.950 . S
H1189 C1201 0.950 . S
H1190 C1198 0.950 . S
H1191 C1200 0.950 . S
H1192 C1202 0.950 . S
H1193 C1204 0.950 . S
H1194 C1206 0.950 . S
H1195 C1207 0.950 . S
C1196 H1188 0.950 . S
C1196 C1197 1.386 . S
C1196 C1198 1.391 . S
C1197 C1196 1.386 . S
C1197 C1201 1.393 . S
C1198 H1190 0.950 . S
C1198 C1196 1.391 . S
C1198 C1199 1.400 . S
C1199 C1198 1.400 . S
C1199 C1200 1.398 . S
C1199 C1205 1.491 . S
C1200 H1191 0.950 . S
C1200 C1199 1.398 . S
C1200 C1201 1.391 . S
C1201 H1189 0.950 . S
C1201 C1197 1.393 . S
C1201 C1200 1.391 . S
C1202 H1192 0.950 . S
C1202 C1203 1.386 . S
C1202 C1204 1.391 . S
C1203 C1202 1.386 . S
C1203 C1207 1.393 . S
C1204 H1193 0.950 . S
C1204 C1202 1.391 . S
C1204 C1205 1.400 . S
C1205 C1199 1.491 . S
C1205 C1204 1.400 . S
C1205 C1206 1.398 . S
C1206 H1194 0.950 . S
C1206 C1205 1.398 . S
C1206 C1207 1.391 . S
C1207 H1195 0.950 . S
C1207 C1203 1.393 . S
C1207 C1206 1.391 . S
H1208 C1216 0.950 . S
H1209 C1221 0.950 . S
H1210 C1218 0.950 . S
H1211 C1220 0.950 . S
H1212 C1222 0.950 . S
H1213 C1224 0.950 . S
H1214 C1226 0.950 . S
H1215 C1227 0.950 . S
C1216 H1208 0.950 . S
C1216 C1217 1.386 . S
C1216 C1218 1.391 . S
C1217 C1216 1.386 . S
C1217 C1221 1.393 . S
C1218 H1210 0.950 . S
C1218 C1216 1.391 . S
C1218 C1219 1.400 . S
C1219 C1218 1.400 . S
C1219 C1220 1.398 . S
C1219 C1225 1.491 . S
C1220 H1211 0.950 . S
C1220 C1219 1.398 . S
C1220 C1221 1.391 . S
C1221 H1209 0.950 . S
C1221 C1217 1.393 . S
C1221 C1220 1.391 . S
C1222 H1212 0.950 . S
C1222 C1223 1.386 . S
C1222 C1224 1.391 . S
C1223 C1222 1.386 . S
C1223 C1227 1.393 . S
C1224 H1213 0.950 . S
C1224 C1222 1.391 . S
C1224 C1225 1.400 . S
C1225 C1219 1.491 . S
C1225 C1224 1.400 . S
C1225 C1226 1.398 . S
C1226 H1214 0.950 . S
C1226 C1225 1.398 . S
C1226 C1227 1.391 . S
C1227 H1215 0.950 . S
C1227 C1223 1.393 . S
C1227 C1226 1.391 . S
H1228 C1236 0.950 . S
H1229 C1241 0.950 . S
H1230 C1238 0.950 . S
H1231 C1240 0.950 . S
H1232 C1242 0.950 . S
H1233 C1244 0.950 . S
H1234 C1246 0.950 . S
H1235 C1247 0.950 . S
C1236 H1228 0.950 . S
C1236 C1237 1.386 . S
C1236 C1238 1.391 . S
C1237 C1236 1.386 . S
C1237 C1241 1.393 . S
C1238 H1230 0.950 . S
C1238 C1236 1.391 . S
C1238 C1239 1.400 . S
C1239 C1238 1.400 . S
C1239 C1240 1.398 . S
C1239 C1245 1.491 . S
C1240 H1231 0.950 . S
C1240 C1239 1.398 . S
C1240 C1241 1.391 . S
C1241 H1229 0.950 . S
C1241 C1237 1.393 . S
C1241 C1240 1.391 . S
C1242 H1232 0.950 . S
C1242 C1243 1.386 . S
C1242 C1244 1.391 . S
C1243 C1242 1.386 . S
C1243 C1247 1.393 . S
C1244 H1233 0.950 . S
C1244 C1242 1.391 . S
C1244 C1245 1.400 . S
C1245 C1239 1.491 . S
C1245 C1244 1.400 . S
C1245 C1246 1.398 . S
C1246 H1234 0.950 . S
C1246 C1245 1.398 . S
C1246 C1247 1.391 . S
C1247 H1235 0.950 . S
C1247 C1243 1.393 . S
C1247 C1246 1.391 . S
C417 C6 1.027 . S
C423 C266 0.998 . S
C437 C40 1.008 . S
C443 C278 1.025 . S
C457 C334 0.995 . S
C463 C74 1.014 . S
C477 C130 1.022 . S
C483 C346 0.993 . S
C497 C142 0.998 . S
C503 C402 1.023 . S
C517 C232 1.028 . S
C523 C198 1.005 . S
C537 C355 0.469 . S
C543 C124 0.477 . S
C557 C151 0.527 . S
C563 C396 0.543 . S
C577 C192 0.552 . S
C583 C226 0.542 . S
C597 C15 0.507 . S
C603 C260 0.492 . S
C617 C287 0.545 . S
C623 C49 0.532 . S
C637 C328 0.554 . S
C643 C83 0.560 . S
C657 C119 1.150 1_556 S
C663 C17 1.150 . S
C677 C51 1.160 . S
C683 C153 1.161 1_556 S
C697 C187 1.160 1_556 S
C703 C85 1.160 . S
C717 C221 1.162 . S
C723 C323 1.162 . S
C737 C255 1.151 . S
C743 C357 1.151 . S
C757 C391 1.150 . S
C763 C289 1.150 . S
C777 C22 0.533 . S
C783 C362 0.522 . S
C797 C56 0.542 . S
C803 C389 0.543 . S
C817 C90 0.544 . S
C823 C219 0.538 . S
C837 C253 0.455 . S
C843 C117 0.460 . S
C857 C294 0.544 . S
C863 C158 0.541 . S
C877 C185 0.541 . S
C883 C321 0.543 . S
C897 C244 1.079 . S
C903 C108 1.093 . S
C917 C300 1.074 . S
C923 C164 1.071 . S
C937 C312 1.090 . S
C943 C176 1.072 . S
C957 C368 1.082 . S
C963 C28 1.068 . S
C977 C380 1.069 . S
C983 C62 1.077 . S
C997 C96 1.070 . S
C1003 C210 1.092 . S
C1017 C1 2.956 . S
C1023 C273 2.957 . S
C1037 C309 2.956 . S
C1043 C35 2.955 . S
C1057 C341 2.957 . S
C1063 C69 2.959 . S
C1077 C105 2.957 . S
C1083 C377 2.959 . S
C1097 C207 2.957 . S
C1103 C137 2.959 . S
C1117 C173 2.956 . S
C1123 C241 2.958 . S
C1137 C375 2.935 . S
C1143 C103 2.937 . S
C1157 C205 2.932 . S
C1163 C139 2.936 . S
C1177 C239 2.933 . S
C1183 C171 2.937 . S
C1197 C275 2.934 . S
C1203 C3 2.935 . S
C1217 C307 2.933 . S
C1223 C37 2.934 . S
C1237 C343 2.934 . S
C1243 C71 2.935 . S
