# Generated by pormake.
# Topology whw, (6)-cn, num edge types: 1
# Building blocks:
#     Node 0, Type 0, BuildingBlock: GEDQOX_clean_sbu_0, # of connection points: 6
#     Node 1, Type 0, BuildingBlock: GEDQOX_clean_sbu_0, # of connection points: 6
#     Node 2, Type 0, BuildingBlock: GEDQOX_clean_sbu_0, # of connection points: 6
#     Node 3, Type 0, BuildingBlock: GEDQOX_clean_sbu_0, # of connection points: 6
#     Node 4, Type 0, BuildingBlock: GEDQOX_clean_sbu_0, # of connection points: 6
#     Node 5, Type 0, BuildingBlock: GEDQOX_clean_sbu_0, # of connection points: 6
#     Node 6, Type 0, BuildingBlock: GEDQOX_clean_sbu_0, # of connection points: 6
#     Node 7, Type 0, BuildingBlock: GEDQOX_clean_sbu_0, # of connection points: 6
#     Node 8, Type 0, BuildingBlock: GEDQOX_clean_sbu_0, # of connection points: 6
#     Node 9, Type 0, BuildingBlock: GEDQOX_clean_sbu_0, # of connection points: 6
#     Node 10, Type 0, BuildingBlock: GEDQOX_clean_sbu_0, # of connection points: 6
#     Node 11, Type 0, BuildingBlock: GEDQOX_clean_sbu_0, # of connection points: 6
#     Node 12, Type 0, BuildingBlock: GEDQOX_clean_sbu_0, # of connection points: 6
#     Node 13, Type 0, BuildingBlock: GEDQOX_clean_sbu_0, # of connection points: 6
#     Node 14, Type 0, BuildingBlock: GEDQOX_clean_sbu_0, # of connection points: 6
#     Node 15, Type 0, BuildingBlock: GEDQOX_clean_sbu_0, # of connection points: 6
#     Edge 16, Type (0, 0), BuildingBlock: CIFDUS_clean_linker_0, # of connection points: 2
#     Edge 17, Type (0, 0), BuildingBlock: CIFDUS_clean_linker_0, # of connection points: 2
#     Edge 18, Type (0, 0), BuildingBlock: CIFDUS_clean_linker_0, # of connection points: 2
#     Edge 19, Type (0, 0), BuildingBlock: CIFDUS_clean_linker_0, # of connection points: 2
#     Edge 20, Type (0, 0), BuildingBlock: CIFDUS_clean_linker_0, # of connection points: 2
#     Edge 21, Type (0, 0), BuildingBlock: CIFDUS_clean_linker_0, # of connection points: 2
#     Edge 22, Type (0, 0), BuildingBlock: CIFDUS_clean_linker_0, # of connection points: 2
#     Edge 23, Type (0, 0), BuildingBlock: CIFDUS_clean_linker_0, # of connection points: 2
#     Edge 24, Type (0, 0), BuildingBlock: CIFDUS_clean_linker_0, # of connection points: 2
#     Edge 25, Type (0, 0), BuildingBlock: CIFDUS_clean_linker_0, # of connection points: 2
#     Edge 26, Type (0, 0), BuildingBlock: CIFDUS_clean_linker_0, # of connection points: 2
#     Edge 27, Type (0, 0), BuildingBlock: CIFDUS_clean_linker_0, # of connection points: 2
#     Edge 28, Type (0, 0), BuildingBlock: CIFDUS_clean_linker_0, # of connection points: 2
#     Edge 29, Type (0, 0), BuildingBlock: CIFDUS_clean_linker_0, # of connection points: 2
#     Edge 30, Type (0, 0), BuildingBlock: CIFDUS_clean_linker_0, # of connection points: 2
#     Edge 31, Type (0, 0), BuildingBlock: CIFDUS_clean_linker_0, # of connection points: 2
#     Edge 32, Type (0, 0), BuildingBlock: CIFDUS_clean_linker_0, # of connection points: 2
#     Edge 33, Type (0, 0), BuildingBlock: CIFDUS_clean_linker_0, # of connection points: 2
#     Edge 34, Type (0, 0), BuildingBlock: CIFDUS_clean_linker_0, # of connection points: 2
#     Edge 35, Type (0, 0), BuildingBlock: CIFDUS_clean_linker_0, # of connection points: 2
#     Edge 36, Type (0, 0), BuildingBlock: CIFDUS_clean_linker_0, # of connection points: 2
#     Edge 37, Type (0, 0), BuildingBlock: CIFDUS_clean_linker_0, # of connection points: 2
#     Edge 38, Type (0, 0), BuildingBlock: CIFDUS_clean_linker_0, # of connection points: 2
#     Edge 39, Type (0, 0), BuildingBlock: CIFDUS_clean_linker_0, # of connection points: 2
#     Edge 40, Type (0, 0), BuildingBlock: CIFDUS_clean_linker_0, # of connection points: 2
#     Edge 41, Type (0, 0), BuildingBlock: CIFDUS_clean_linker_0, # of connection points: 2
#     Edge 42, Type (0, 0), BuildingBlock: CIFDUS_clean_linker_0, # of connection points: 2
#     Edge 43, Type (0, 0), BuildingBlock: CIFDUS_clean_linker_0, # of connection points: 2
#     Edge 44, Type (0, 0), BuildingBlock: CIFDUS_clean_linker_0, # of connection points: 2
#     Edge 45, Type (0, 0), BuildingBlock: CIFDUS_clean_linker_0, # of connection points: 2
#     Edge 46, Type (0, 0), BuildingBlock: CIFDUS_clean_linker_0, # of connection points: 2
#     Edge 47, Type (0, 0), BuildingBlock: CIFDUS_clean_linker_0, # of connection points: 2
#     Edge 48, Type (0, 0), BuildingBlock: CIFDUS_clean_linker_0, # of connection points: 2
#     Edge 49, Type (0, 0), BuildingBlock: CIFDUS_clean_linker_0, # of connection points: 2
#     Edge 50, Type (0, 0), BuildingBlock: CIFDUS_clean_linker_0, # of connection points: 2
#     Edge 51, Type (0, 0), BuildingBlock: CIFDUS_clean_linker_0, # of connection points: 2
#     Edge 52, Type (0, 0), BuildingBlock: CIFDUS_clean_linker_0, # of connection points: 2
#     Edge 53, Type (0, 0), BuildingBlock: CIFDUS_clean_linker_0, # of connection points: 2
#     Edge 54, Type (0, 0), BuildingBlock: CIFDUS_clean_linker_0, # of connection points: 2
#     Edge 55, Type (0, 0), BuildingBlock: CIFDUS_clean_linker_0, # of connection points: 2
#     Edge 56, Type (0, 0), BuildingBlock: CIFDUS_clean_linker_0, # of connection points: 2
#     Edge 57, Type (0, 0), BuildingBlock: CIFDUS_clean_linker_0, # of connection points: 2
#     Edge 58, Type (0, 0), BuildingBlock: CIFDUS_clean_linker_0, # of connection points: 2
#     Edge 59, Type (0, 0), BuildingBlock: CIFDUS_clean_linker_0, # of connection points: 2
#     Edge 60, Type (0, 0), BuildingBlock: CIFDUS_clean_linker_0, # of connection points: 2
#     Edge 61, Type (0, 0), BuildingBlock: CIFDUS_clean_linker_0, # of connection points: 2
#     Edge 62, Type (0, 0), BuildingBlock: CIFDUS_clean_linker_0, # of connection points: 2
#     Edge 63, Type (0, 0), BuildingBlock: CIFDUS_clean_linker_0, # of connection points: 2
# Relax obj value: 0.228
# Max RMSD: 0.199
# Mean RMSD: 0.199
data_MOF--net-whw--node1-GEDQOX_clean_sbu_0--edge1-CIFDUS_clean_linker_0
_symmetry_space_group_name_H-M    P1
_symmetry_Int_Tables_number       1
_symmetry_cell_setting            triclinic
loop_
_symmetry_equiv_pos_as_xyz
'x, y, z'
_cell_length_a     40.870749
_cell_length_b     41.007617
_cell_length_c     31.747871
_cell_angle_alpha  89.798188
_cell_angle_beta   90.10525
_cell_angle_gamma 89.652265
loop_
_atom_site_label
_atom_site_type_symbol
_atom_site_fract_x
_atom_site_fract_y
_atom_site_fract_z
_atom_type_partial_charge
Nd0 Nd 0.96705 0.08008 0.13766 0.0
Nd1 Nd 0.03525 0.08798 0.17957 0.0
C2 C 0.91844 0.06744 0.08515 0.0
C3 C 0.90852 0.08129 0.04374 0.0
C4 C 0.92845 0.07787 1.0079 0.0
C5 C 0.92029 0.09376 0.97016 0.0
C6 C 0.89193 0.11331 0.96722 0.0
C7 C 0.87152 0.11584 1.00272 0.0
C8 C 0.8797 0.09999 0.04046 0.0
C9 C 0.97747 0.14009 0.17144 0.0
C10 C 0.03217 0.10176 0.07971 0.0
C11 C 0.08548 0.10099 0.22972 0.0
C12 C 0.09374 0.11484 0.27155 0.0
C13 C 0.11549 0.14113 0.27359 0.0
C14 C 0.1246 0.15434 0.31239 0.0
C15 C 0.11234 0.14151 0.35035 0.0
C16 C 0.09079 0.1149 0.34843 0.0
C17 C 0.08148 0.10175 0.30941 0.0
C18 C 0.02347 0.02915 0.1411 0.0
C19 C 0.96945 0.0744 0.23703 0.0
O20 O 0.94551 0.05024 0.08653 0.0
O21 O 0.91544 0.0869 0.11746 0.0
O22 O 0.94905 0.12635 0.16999 0.0
O23 O -0.00127 0.1235 0.15207 0.0
O24 O 0.00161 0.09123 0.08174 0.0
O25 O 0.05027 0.10571 0.11389 0.0
O26 O 0.07462 0.12127 0.20087 0.0
O27 O 0.07098 0.0726 0.22855 0.0
O28 O 0.05179 0.04331 0.14134 0.0
O29 O 0.00368 0.04493 0.1637 0.0
O30 O -0.00236 0.08982 0.23337 0.0
O31 O 0.95476 0.06157 0.20386 0.0
H32 H 0.95076 0.06351 1.00918 0.0
H33 H 0.93675 0.09142 0.94363 0.0
H34 H 0.8492 0.13018 1.00141 0.0
H35 H 0.86375 0.10288 0.06743 0.0
H36 H 0.12558 0.15147 0.245 0.0
H37 H 0.14151 0.17458 0.31269 0.0
H38 H 0.08063 0.10468 0.37702 0.0
H39 H 0.06468 0.08144 0.30893 0.0
Nd40 Nd 0.14298 0.71142 0.38263 0.0
Nd41 Nd 0.14594 0.77761 0.42813 0.0
C42 C 0.15031 0.66306 0.32842 0.0
C43 C 0.13293 0.65429 0.28933 0.0
C44 C 0.14937 0.63781 0.25696 0.0
C45 C 0.13289 0.62968 0.21971 0.0
C46 C 0.09961 0.63779 0.21433 0.0
C47 C 0.08337 0.65465 0.24673 0.0
C48 C 0.0999 0.66297 0.28372 0.0
C49 C 0.08445 0.7306 0.41533 0.0
C50 C 0.13121 0.78124 0.32875 0.0
C51 C 0.14153 0.82779 0.48028 0.0
C52 C 0.12642 0.83545 0.52115 0.0
C53 C 0.13367 0.86494 0.54121 0.0
C54 C 0.11852 0.87314 0.57929 0.0
C55 C 0.09575 0.85195 0.59798 0.0
C56 C 0.08907 0.82206 0.57801 0.0
C57 C 0.1042 0.81393 0.53992 0.0
C58 C 0.20283 0.75647 0.38991 0.0
C59 C 0.14482 0.70953 0.48253 0.0
O60 O 0.16763 0.68973 0.32687 0.0
O61 O 0.13349 0.66052 0.36327 0.0
O62 O 0.09325 0.70038 0.41119 0.0
O63 O 0.10476 0.74952 0.3982 0.0
O64 O 0.13659 0.74928 0.32826 0.0
O65 O 0.13065 0.79792 0.36422 0.0
O66 O 0.12134 0.82302 0.44887 0.0
O67 O 0.16589 0.80692 0.48085 0.0
O68 O 0.19341 0.78673 0.3911 0.0
O69 O 0.18357 0.73941 0.41144 0.0
O70 O 0.13443 0.73997 0.47939 0.0
O71 O 0.15687 0.69403 0.44941 0.0
H72 H 0.17493 0.63117 0.26052 0.0
H73 H 0.14603 0.6166 0.19539 0.0
H74 H 0.05794 0.66175 0.24329 0.0
H75 H 0.08685 0.67622 0.30799 0.0
H76 H 0.15074 0.88187 0.52709 0.0
H77 H 0.124 0.89645 0.5935 0.0
H78 H 0.0721 0.8049 0.59181 0.0
H79 H 0.09831 0.79103 0.52489 0.0
Nd80 Nd 0.50694 0.89243 0.62392 0.0
Nd81 Nd 0.44121 0.89087 0.67269 0.0
C82 C 0.55437 0.9035 0.56875 0.0
C83 C 0.56697 0.88822 0.53001 0.0
C84 C 0.56472 0.85444 0.52376 0.0
C85 C 0.57655 0.84034 0.48667 0.0
C86 C 0.59063 0.85975 0.45492 0.0
C87 C 0.59245 0.89366 0.46116 0.0
C88 C 0.58075 0.90773 0.49838 0.0
C89 C 0.49318 0.83338 0.65934 0.0
C90 C 0.437 0.87467 0.57356 0.0
C91 C 0.39326 0.88293 0.72787 0.0
C92 C 0.38838 0.86824 0.76985 0.0
C93 C 0.41138 0.84634 0.78692 0.0
C94 C 0.40558 0.83131 0.82586 0.0
C95 C 0.37666 0.8379 0.84854 0.0
C96 C 0.35416 0.86059 0.83175 0.0
C97 C 0.35996 0.87555 0.79274 0.0
C98 C 0.45513 0.94797 0.63035 0.0
C99 C 0.51087 0.89704 0.72371 0.0
O100 O 0.52529 0.91663 0.56602 0.0
O101 O 0.55872 0.8874 0.60396 0.0
O102 O 0.52265 0.84389 0.6533 0.0
O103 O 0.47244 0.85215 0.64247 0.0
O104 O 0.46829 0.88305 0.57155 0.0
O105 O 0.42124 0.87263 0.60983 0.0
O106 O 0.3992 0.86267 0.69697 0.0
O107 O 0.41139 0.90912 0.72621 0.0
O108 O 0.42584 0.93643 0.63487 0.0
O109 O 0.47505 0.93098 0.65159 0.0
O110 O 0.48142 0.88401 0.72263 0.0
O111 O 0.52421 0.90944 0.68925 0.0
H112 H 0.55372 0.83896 0.54749 0.0
H113 H 0.57423 0.81424 0.48259 0.0
H114 H 0.60332 0.90928 0.4375 0.0
H115 H 0.58246 0.9339 0.5025 0.0
H116 H 0.43359 0.84053 0.76986 0.0
H117 H 0.42368 0.81436 0.83813 0.0
H118 H 0.33156 0.86602 0.84812 0.0
H119 H 0.34194 0.89243 0.78008 0.0
Nd120 Nd 0.35067 0.26245 0.8823 0.0
Nd121 Nd 0.36001 0.19705 0.92936 0.0
C122 C 0.33566 0.30867 0.82699 0.0
C123 C 0.34918 0.31892 0.78569 0.0
C124 C 0.3498 0.29769 0.75095 0.0
C125 C 0.36487 0.30705 0.71323 0.0
C126 C 0.37972 0.33781 0.70938 0.0
C127 C 0.37839 0.35924 0.74385 0.0
C128 C 0.36323 0.34993 0.78147 0.0
C129 C 0.41147 0.25467 0.91632 0.0
C130 C 0.37407 0.19527 0.83 0.0
C131 C 0.37327 0.14851 0.98239 0.0
C132 C 0.38718 0.14235 1.02465 0.0
C133 C 0.40645 0.16571 0.04504 0.0
C134 C 0.421 0.15854 0.08404 0.0
C135 C 0.41655 0.12789 0.10345 0.0
C136 C 0.39643 0.10496 0.08332 0.0
C137 C 0.38196 0.11214 0.0443 0.0
C138 C 0.30026 0.2073 0.89085 0.0
C139 C 0.34636 0.26446 0.98192 0.0
O140 O 0.32061 0.28062 0.82874 0.0
O141 O 0.35444 0.31357 0.8597 0.0
O142 O 0.3968 0.28261 0.91242 0.0
O143 O 0.39529 0.23219 0.89903 0.0
O144 O 0.36263 0.2256 0.82885 0.0
O145 O 0.37845 0.1794 0.86583 0.0
O146 O 0.39355 0.15858 0.95331 0.0
O147 O 0.34484 0.16331 0.98063 0.0
O148 O 0.31526 0.17932 0.89165 0.0
O149 O 0.3161 0.22768 0.91208 0.0
O150 O 0.36258 0.23656 0.98 0.0
O151 O 0.33257 0.2774 0.94794 0.0
H152 H 0.33919 0.2736 0.75307 0.0
H153 H 0.36566 0.28984 0.68744 0.0
H154 H 0.38911 0.38328 0.74177 0.0
H155 H 0.36296 0.36683 0.80763 0.0
H156 H 0.41063 0.18927 1.03052 0.0
H157 H 0.4359 0.17699 0.09891 0.0
H158 H 0.39269 0.08107 0.09706 0.0
H159 H 0.36716 0.09379 1.02905 0.0
Nd160 Nd 0.9605 0.89092 0.88254 0.0
Nd161 Nd 0.02911 0.89293 0.92425 0.0
C162 C 0.91011 0.88211 0.83107 0.0
C163 C 0.90389 0.8703 0.78789 0.0
C164 C 0.87395 0.87739 0.76806 0.0
C165 C 0.86691 0.86482 0.72804 0.0
C166 C 0.88968 0.84476 0.70716 0.0
C167 C 0.92014 0.83862 0.72668 0.0
C168 C 0.92716 0.85125 0.76661 0.0
C169 C 0.97642 0.94795 0.92262 0.0
C170 C 0.02756 0.90072 0.82553 0.0
C171 C 0.0778 0.90027 0.97841 0.0
C172 C 0.08491 0.88365 1.01877 0.0
C173 C 0.10703 0.89697 0.04771 0.0
C174 C 0.11372 0.88084 0.08586 0.0
C175 C 0.09849 0.85102 0.09562 0.0
C176 C 0.07603 0.83805 0.06661 0.0
C177 C 0.06923 0.85424 1.02872 0.0
C178 C 0.01305 0.83439 0.88914 0.0
C179 C 0.96231 0.87561 0.98178 0.0
O180 O 0.92008 0.86032 0.85861 0.0
O181 O 0.92553 0.90986 0.8345 0.0
O182 O 0.9471 0.93589 0.92186 0.0
O183 O -0.00477 0.93129 0.89963 0.0
O184 O -0.00176 0.88744 0.82883 0.0
O185 O 0.04311 0.91195 0.85901 0.0
O186 O 0.05189 0.91914 0.97795 0.0
O187 O 0.07987 0.88202 0.94481 0.0
O188 O 0.04256 0.84578 0.8896 0.0
O189 O -0.006 0.8526 0.90966 0.0
O190 O -0.00651 0.88416 0.97978 0.0
O191 O 0.94398 0.87303 0.94758 0.0
H192 H 0.85569 0.89213 0.78393 0.0
H193 H 0.84318 0.86984 0.71414 0.0
H194 H 0.93846 0.82368 0.71126 0.0
H195 H 0.95054 0.84567 0.78118 0.0
H196 H 0.11924 0.91972 0.04072 0.0
H197 H 0.13124 0.89143 0.10741 0.0
H198 H 0.06344 0.81547 0.0734 0.0
H199 H 0.05173 0.84373 1.00705 0.0
Nd200 Nd 0.33662 0.69421 0.12734 0.0
Nd201 Nd 0.33245 0.75704 0.17803 0.0
C202 C 0.34478 0.64589 0.07311 0.0
C203 C 0.35966 0.64048 0.03144 0.0
C204 C 0.35508 0.61068 1.01079 0.0
C205 C 0.37028 0.60459 0.97206 0.0
C206 C 0.39043 0.62823 0.95329 0.0
C207 C 0.39427 0.65843 0.97376 0.0
C208 C 0.37908 0.66446 1.01248 0.0
C209 C 0.27825 0.70598 0.16931 0.0
C210 C 0.33245 0.76404 0.07576 0.0
C211 C 0.32187 0.80895 0.22516 0.0
C212 C 0.33776 0.81987 0.26462 0.0
C213 C 0.31939 0.83471 0.29666 0.0
C214 C 0.33439 0.84392 0.33462 0.0
C215 C 0.3681 0.83844 0.34123 0.0
C216 C 0.38626 0.82333 0.30906 0.0
C217 C 0.37131 0.81414 0.27134 0.0
C218 C 0.39526 0.73607 0.16432 0.0
C219 C 0.3503 0.68886 0.22639 0.0
O220 O 0.36508 0.65184 0.10413 0.0
O221 O 0.31852 0.66434 0.07408 0.0
O222 O 0.29244 0.6777 0.16764 0.0
O223 O 0.29453 0.72608 0.14828 0.0
O224 O 0.33913 0.73252 0.07482 0.0
O225 O 0.3257 0.77918 0.11151 0.0
O226 O 0.30419 0.7825 0.22806 0.0
O227 O 0.34014 0.80941 0.19128 0.0
O228 O 0.38465 0.74801 0.19939 0.0
O229 O 0.3727 0.73518 0.13733 0.0
O230 O 0.33373 0.71662 0.22906 0.0
O231 O 0.3597 0.67735 0.18951 0.0
H232 H 0.34017 0.59187 1.02498 0.0
H233 H 0.36702 0.581 0.95747 0.0
H234 H 0.40918 0.6774 0.95994 0.0
H235 H 0.38284 0.68768 1.02789 0.0
H236 H 0.29342 0.83909 0.29238 0.0
H237 H 0.31967 0.85566 0.35857 0.0
H238 H 0.41208 0.81811 0.31324 0.0
H239 H 0.38606 0.80233 0.24749 0.0
Nd240 Nd 0.55365 0.08787 0.38825 0.0
Nd241 Nd 0.48494 0.08605 0.42992 0.0
C242 C 0.60381 0.09684 0.3367 0.0
C243 C 0.60945 0.11108 0.2946 0.0
C244 C 0.58537 0.1303 0.27486 0.0
C245 C 0.59141 0.14461 0.23554 0.0
C246 C 0.62173 0.14009 0.21516 0.0
C247 C 0.64551 0.1202 0.23476 0.0
C248 C 0.63941 0.10588 0.27412 0.0
C249 C 0.53934 0.03165 0.4318 0.0
C250 C 0.4867 0.0778 0.33108 0.0
C251 C 0.43536 0.07876 0.48277 0.0
C252 C 0.42566 0.09602 0.5215 0.0
C253 C 0.40754 0.07992 0.55262 0.0
C254 C 0.39936 0.09589 0.59015 0.0
C255 C 0.40915 0.1283 0.59716 0.0
C256 C 0.42741 0.14427 0.56583 0.0
C257 C 0.43572 0.12824 0.52849 0.0
C258 C 0.49985 0.14387 0.39201 0.0
C259 C 0.55116 0.10583 0.4869 0.0
O260 O 0.59567 0.11732 0.36651 0.0
O261 O 0.58684 0.06987 0.33799 0.0
O262 O 0.56856 0.04359 0.42828 0.0
O263 O 0.51972 0.04739 0.40843 0.0
O264 O 0.51598 0.09111 0.33431 0.0
O265 O 0.47138 0.06638 0.3647 0.0
O266 O 0.46244 0.06186 0.48533 0.0
O267 O 0.43325 0.09541 0.44768 0.0
O268 O 0.47044 0.13245 0.39445 0.0
O269 O 0.51961 0.12652 0.41292 0.0
O270 O 0.51992 0.0975 0.48507 0.0
O271 O 0.56975 0.10704 0.45284 0.0
H272 H 0.56202 0.13452 0.29007 0.0
H273 H 0.57231 0.15931 0.22113 0.0
H274 H 0.66918 0.11641 0.22024 0.0
H275 H 0.6583 0.09108 0.28886 0.0
H276 H 0.39987 0.05493 0.54799 0.0
H277 H 0.38512 0.08296 0.61353 0.0
H278 H 0.43581 0.169 0.5705 0.0
H279 H 0.45027 0.14094 0.50519 0.0
Nd280 Nd 0.15747 0.27217 0.63451 0.0
Nd281 Nd 0.15618 0.20673 0.68315 0.0
C282 C 0.15181 0.3214 0.58057 0.0
C283 C 0.13731 0.32796 0.53891 0.0
C284 C 0.11732 0.30485 0.51927 0.0
C285 C 0.1023 0.31207 0.48068 0.0
C286 C 0.10687 0.34261 0.46108 0.0
C287 C 0.12759 0.36535 0.48051 0.0
C288 C 0.14263 0.35807 0.51911 0.0
C289 C 0.21473 0.2536 0.67388 0.0
C290 C 0.15845 0.20265 0.58282 0.0
C291 C 0.16536 0.1607 0.74083 0.0
C292 C 0.15299 0.15551 0.78409 0.0
C293 C 0.17258 0.13965 0.81427 0.0
C294 C 0.16086 0.13441 0.85523 0.0
C295 C 0.12923 0.14483 0.86677 0.0
C296 C 0.10992 0.16122 0.83654 0.0
C297 C 0.12171 0.16663 0.79575 0.0
C298 C 0.09753 0.22408 0.6486 0.0
C299 C 0.14213 0.2774 0.73343 0.0
O300 O 0.13115 0.316 0.61123 0.0
O301 O 0.17712 0.30169 0.58162 0.0
O302 O 0.2043 0.2835 0.6718 0.0
O303 O 0.19601 0.23535 0.65324 0.0
O304 O 0.14819 0.23324 0.58425 0.0
O305 O 0.16926 0.18741 0.61711 0.0
O306 O 0.1854 0.1851 0.73561 0.0
O307 O 0.14385 0.15855 0.71041 0.0
O308 O 0.10711 0.19407 0.65345 0.0
O309 O 0.11728 0.24357 0.66563 0.0
O310 O 0.149 0.24577 0.73554 0.0
O311 O 0.14077 0.29318 0.69716 0.0
H312 H 0.11297 0.28144 0.53406 0.0
H313 H 0.08694 0.29378 0.46628 0.0
H314 H 0.13142 0.38915 0.46654 0.0
H315 H 0.15797 0.37621 0.5339 0.0
H316 H 0.19689 0.13114 0.80607 0.0
H317 H 0.17633 0.1216 0.87762 0.0
H318 H 0.0857 0.1701 0.84451 0.0
H319 H 0.10632 0.17944 0.77325 0.0
Nd320 Nd 0.84757 0.19149 0.6365 0.0
Nd321 Nd 0.84811 0.25747 0.68331 0.0
C322 C 0.85451 0.14187 0.58392 0.0
C323 C 0.87103 0.13359 0.54365 0.0
C324 C 0.85554 0.1391 0.50461 0.0
C325 C 0.87104 0.1304 0.4669 0.0
C326 C 0.90235 0.11597 0.46738 0.0
C327 C 0.9176 0.11013 0.50646 0.0
C328 C 0.90211 0.11871 0.54407 0.0
C329 C 0.78977 0.21038 0.67407 0.0
C330 C 0.84774 0.26036 0.58285 0.0
C331 C 0.83802 0.30467 0.73864 0.0
C332 C 0.84762 0.31046 0.78305 0.0
C333 C 0.84206 0.28713 0.81484 0.0
C334 C 0.85355 0.29224 0.85595 0.0
C335 C 0.87093 0.32072 0.86612 0.0
C336 C 0.87567 0.3443 0.83441 0.0
C337 C 0.86415 0.33922 0.79344 0.0
C338 C 0.90704 0.24012 0.65009 0.0
C339 C 0.86235 0.18755 0.7358 0.0
O340 O 0.87327 0.1464 0.61684 0.0
O341 O 0.82965 0.16218 0.58254 0.0
O342 O 0.80032 0.18049 0.67319 0.0
O343 O 0.80873 0.22831 0.6533 0.0
O344 O 0.858 0.22981 0.58551 0.0
O345 O 0.83601 0.27583 0.61627 0.0
O346 O 0.81685 0.28154 0.73131 0.0
O347 O 0.86176 0.30511 0.71111 0.0
O348 O 0.8972 0.27013 0.6537 0.0
O349 O 0.88733 0.2207 0.66743 0.0
O350 O 0.85496 0.2191 0.73706 0.0
O351 O 0.86426 0.17152 0.69992 0.0
H352 H 0.83143 0.15016 0.50312 0.0
H353 H 0.85874 0.1355 0.43734 0.0
H354 H 0.9415 0.09862 0.50802 0.0
H355 H 0.91453 0.11356 0.57355 0.0
H356 H 0.82937 0.26468 0.80783 0.0
H357 H 0.84961 0.27347 0.87945 0.0
H358 H 0.8884 0.36677 0.84123 0.0
H359 H 0.86863 0.35762 0.7696 0.0
Nd360 Nd 0.64405 0.78584 0.12435 0.0
Nd361 Nd 0.64344 0.723 0.17929 0.0
C362 C 0.63688 0.83318 0.06792 0.0
C363 C 0.62122 0.83868 1.02651 0.0
C364 C 0.62615 0.86819 1.00501 0.0
C365 C 0.61033 0.87442 0.96655 0.0
C366 C 0.58916 0.85121 0.94882 0.0
C367 C 0.58495 0.82129 0.97016 0.0
C368 C 0.60074 0.81514 1.00862 0.0
C369 C 0.70184 0.76992 0.16535 0.0
C370 C 0.64166 0.71421 0.07722 0.0
C371 C 0.65064 0.671 0.22801 0.0
C372 C 0.63639 0.66253 0.26936 0.0
C373 C 0.64681 0.63467 0.29154 0.0
C374 C 0.63208 0.62621 0.32998 0.0
C375 C 0.60644 0.64532 0.34656 0.0
C376 C 0.59662 0.67355 0.32456 0.0
C377 C 0.61156 0.68214 0.28656 0.0
C378 C 0.58404 0.7525 0.16797 0.0
C379 C 0.63472 0.79371 0.22473 0.0
O380 O 0.61713 0.82904 0.1 0.0
O381 O 0.66216 0.81336 0.06881 0.0
O382 O 0.69113 0.79951 0.1604 0.0
O383 O 0.683 0.75054 0.14681 0.0
O384 O 0.63824 0.74618 0.07443 0.0
O385 O 0.64685 0.69927 0.11367 0.0
O386 O 0.67137 0.69529 0.22785 0.0
O387 O 0.62981 0.67251 0.1966 0.0
O388 O 0.59316 0.73866 0.20269 0.0
O389 O 0.60509 0.74897 0.13953 0.0
O390 O 0.64786 0.76421 0.22802 0.0
O391 O 0.62613 0.8061 0.18772 0.0
H392 H 0.64185 0.8867 1.01834 0.0
H393 H 0.61393 0.8978 0.95136 0.0
H394 H 0.56928 0.80261 0.95721 0.0
H395 H 0.59666 0.79217 1.02466 0.0
H396 H 0.66603 0.61927 0.2789 0.0
H397 H 0.64013 0.60429 0.34618 0.0
H398 H 0.57734 0.68906 0.3368 0.0
H399 H 0.60343 0.70399 0.27038 0.0
Nd400 Nd 0.66022 0.20621 0.88363 0.0
Nd401 Nd 0.64762 0.27328 0.92592 0.0
C402 C 0.67786 0.16019 0.8298 0.0
C403 C 0.66972 0.15345 0.78504 0.0
C404 C 0.67965 0.17441 0.75227 0.0
C405 C 0.66938 0.16901 0.71071 0.0
C406 C 0.64882 0.14266 0.70105 0.0
C407 C 0.63979 0.12122 0.73365 0.0
C408 C 0.6502 0.12649 0.77504 0.0
C409 C 0.59898 0.21327 0.91577 0.0
C410 C 0.63569 0.27094 0.82592 0.0
C411 C 0.63219 0.3224 0.97662 0.0
C412 C 0.62001 0.328 1.01982 0.0
C413 C 0.60497 0.303 0.04284 0.0
C414 C 0.59249 0.3091 0.08317 0.0
C415 C 0.59466 0.34039 0.1013 0.0
C416 C 0.61058 0.3651 0.07845 0.0
C417 C 0.62309 0.35894 0.03813 0.0
C418 C 0.70814 0.26405 0.88954 0.0
C419 C 0.66276 0.2073 0.98367 0.0
O420 O 0.69568 0.18582 0.83772 0.0
O421 O 0.65403 0.15667 0.85684 0.0
O422 O 0.61457 0.18565 0.91461 0.0
O423 O 0.6146 0.23556 0.89707 0.0
O424 O 0.64857 0.24122 0.82797 0.0
O425 O 0.62948 0.28814 0.8602 0.0
O426 O 0.61168 0.3095 0.94975 0.0
O427 O 0.66182 0.31046 0.9732 0.0
O428 O 0.69214 0.2915 0.88841 0.0
O429 O 0.69275 0.24374 0.91165 0.0
O430 O 0.64694 0.2354 0.97968 0.0
O431 O 0.67641 0.1928 0.95079 0.0
H432 H 0.69472 0.19543 0.75876 0.0
H433 H 0.67668 0.18606 0.6864 0.0
H434 H 0.62445 0.10037 0.72718 0.0
H435 H 0.64238 0.10977 0.79949 0.0
H436 H 0.60248 0.27889 1.02941 0.0
H437 H 0.58087 0.28932 0.10003 0.0
H438 H 0.61242 0.3895 0.09112 0.0
H439 H 0.63469 0.37855 1.02089 0.0
Nd440 Nd 0.83715 0.77185 0.38025 0.0
Nd441 Nd 0.83209 0.70716 0.43062 0.0
C442 C 0.83144 0.81861 0.32267 0.0
C443 C 0.84209 0.82369 0.27852 0.0
C444 C 0.83804 0.79955 0.24758 0.0
C445 C 0.84969 0.8045 0.20651 0.0
C446 C 0.86573 0.83363 0.19551 0.0
C447 C 0.86926 0.85785 0.2265 0.0
C448 C 0.85758 0.85292 0.26744 0.0
C449 C 0.89452 0.75183 0.4158 0.0
C450 C 0.8456 0.69978 0.33126 0.0
C451 C 0.83539 0.65903 0.4865 0.0
C452 C 0.84923 0.65268 0.52869 0.0
C453 C 0.87353 0.67285 0.54554 0.0
C454 C 0.88772 0.66545 0.58462 0.0
C455 C 0.87792 0.63772 0.60763 0.0
C456 C 0.85281 0.6182 0.59115 0.0
C457 C 0.83866 0.6256 0.552 0.0
C458 C 0.77597 0.72819 0.39046 0.0
C459 C 0.83504 0.77755 0.48036 0.0
O460 O 0.80892 0.79672 0.32958 0.0
O461 O 0.8546 0.81793 0.3511 0.0
O462 O 0.88624 0.78219 0.41086 0.0
O463 O 0.87395 0.73302 0.39896 0.0
O464 O 0.84174 0.73188 0.32877 0.0
O465 O 0.84563 0.68413 0.36771 0.0
O466 O 0.85644 0.66281 0.45582 0.0
O467 O 0.81088 0.67967 0.48437 0.0
O468 O 0.78425 0.69774 0.39463 0.0
O469 O 0.79578 0.74571 0.41053 0.0
O470 O 0.84351 0.74642 0.47968 0.0
O471 O 0.8248 0.79272 0.44575 0.0
H472 H 0.82622 0.77671 0.2552 0.0
H473 H 0.84678 0.78519 0.18365 0.0
H474 H 0.88096 0.88078 0.21907 0.0
H475 H 0.8609 0.87192 0.29066 0.0
H476 H 0.88188 0.694 0.52817 0.0
H477 H 0.90663 0.68132 0.59667 0.0
H478 H 0.84485 0.59658 0.60783 0.0
H479 H 0.81987 0.60979 0.53951 0.0
Nd480 Nd 0.46911 0.5841 0.62809 0.0
Nd481 Nd 0.53514 0.58546 0.67634 0.0
C482 C 0.42108 0.57319 0.5738 0.0
C483 C 0.41031 0.58654 0.53262 0.0
C484 C 0.43258 0.59234 0.49977 0.0
C485 C 0.42201 0.60666 0.46192 0.0
C486 C 0.38896 0.6156 0.45616 0.0
C487 C 0.36671 0.60925 0.48893 0.0
C488 C 0.37728 0.59488 0.52666 0.0
C489 C 0.4844 0.64344 0.66085 0.0
C490 C 0.53911 0.59864 0.57621 0.0
C491 C 0.58342 0.59401 0.73086 0.0
C492 C 0.58778 0.60885 0.77265 0.0
C493 C 0.56445 0.63071 0.78873 0.0
C494 C 0.56956 0.64575 0.82766 0.0
C495 C 0.59809 0.6392 0.85126 0.0
C496 C 0.62093 0.61655 0.83549 0.0
C497 C 0.61581 0.60156 0.79648 0.0
C498 C 0.51869 0.52725 0.63943 0.0
C499 C 0.46565 0.58149 0.72798 0.0
O500 O 0.4483 0.55617 0.5747 0.0
O501 O 0.41822 0.59279 0.60598 0.0
O502 O 0.45467 0.63313 0.65642 0.0
O503 O 0.50464 0.62407 0.64428 0.0
O504 O 0.50735 0.59211 0.57492 0.0
O505 O 0.55555 0.59995 0.61207 0.0
O506 O 0.57707 0.61416 0.69975 0.0
O507 O 0.56578 0.56751 0.72948 0.0
O508 O 0.5484 0.53815 0.64158 0.0
O509 O 0.49972 0.54591 0.65929 0.0
O510 O 0.49538 0.59388 0.72628 0.0
O511 O 0.4517 0.56898 0.69407 0.0
H512 H 0.45823 0.58624 0.50352 0.0
H513 H 0.43989 0.61148 0.43758 0.0
H514 H 0.34103 0.61535 0.4854 0.0
H515 H 0.35965 0.59059 0.55149 0.0
H516 H 0.54251 0.63647 0.77091 0.0
H517 H 0.55125 0.6627 0.83918 0.0
H518 H 0.64325 0.61117 0.85267 0.0
H519 H 0.63404 0.58467 0.78457 0.0
Nd520 Nd 0.03628 0.38435 0.1342 0.0
Nd521 Nd 0.96887 0.37529 0.17751 0.0
C522 C 0.08386 0.39802 0.08064 0.0
C523 C 0.09394 0.38412 0.03945 0.0
C524 C 0.07396 0.38714 1.00348 0.0
C525 C 0.08241 0.37137 0.96593 0.0
C526 C 0.11108 0.35228 0.96337 0.0
C527 C 0.13152 0.35013 0.999 0.0
C528 C 0.12307 0.36591 0.03652 0.0
C529 C 0.0272 0.32393 0.16788 0.0
C530 C 0.97042 0.36199 0.07781 0.0
C531 C 0.91961 0.36253 0.22928 0.0
C532 C 0.91382 0.3503 0.27243 0.0
C533 C 0.88367 0.35646 0.29201 0.0
C534 C 0.87711 0.34398 0.33226 0.0
C535 C 0.90061 0.32496 0.35371 0.0
C536 C 0.93121 0.31962 0.33434 0.0
C537 C 0.93775 0.33217 0.29412 0.0
C538 C 0.97913 0.43443 0.13887 0.0
C539 C 0.03538 0.38898 0.23367 0.0
O540 O 0.05622 0.41429 0.08189 0.0
O541 O 0.08785 0.37901 0.11341 0.0
O542 O 0.05546 0.33793 0.16557 0.0
O543 O 0.00539 0.34042 0.14914 0.0
O544 O 0.00078 0.3732 0.0792 0.0
O545 O 0.95301 0.35731 0.11238 0.0
O546 O 0.93108 0.34158 0.20187 0.0
O547 O 0.93308 0.39128 0.22593 0.0
O548 O 0.9511 0.41974 0.13961 0.0
O549 O -0.00032 0.41894 0.16097 0.0
O550 O 0.0073 0.37337 0.23039 0.0
O551 O 0.04944 0.40236 0.20034 0.0
H552 H 0.05143 0.40114 1.00448 0.0
H553 H 0.06595 0.3734 0.93927 0.0
H554 H 0.15406 0.33615 0.99797 0.0
H555 H 0.13908 0.36335 0.06358 0.0
H556 H 0.86492 0.3705 0.27582 0.0
H557 H 0.85325 0.34834 0.34597 0.0
H558 H 0.95007 0.30552 0.35018 0.0
H559 H 0.96131 0.32736 0.27975 0.0
Nd560 Nd 0.45588 0.39121 0.38037 0.0
Nd561 Nd 0.52196 0.39109 0.42865 0.0
C562 C 0.40647 0.38504 0.32689 0.0
C563 C 0.40069 0.37031 0.28542 0.0
C564 C 0.3703 0.37431 0.26546 0.0
C565 C 0.36406 0.35907 0.22689 0.0
C566 C 0.38818 0.33954 0.20771 0.0
C567 C 0.41894 0.33636 0.22749 0.0
C568 C 0.42506 0.35147 0.26606 0.0
C569 C 0.47247 0.44826 0.42001 0.0
C570 C 0.52566 0.39327 0.32825 0.0
C571 C 0.56895 0.40004 0.48516 0.0
C572 C 0.57519 0.38965 0.52931 0.0
C573 C 0.55113 0.39263 0.56073 0.0
C574 C 0.55703 0.38093 0.60167 0.0
C575 C 0.58714 0.36601 0.61218 0.0
C576 C 0.61131 0.36366 0.58074 0.0
C577 C 0.60537 0.37531 0.53988 0.0
C578 C 0.5066 0.33298 0.3928 0.0
C579 C 0.45187 0.37467 0.47925 0.0
O580 O 0.41232 0.36459 0.35779 0.0
O581 O 0.42567 0.41047 0.32762 0.0
O582 O 0.44282 0.43729 0.41781 0.0
O583 O 0.49146 0.43021 0.39925 0.0
O584 O 0.49515 0.38283 0.32989 0.0
O585 O 0.54057 0.4047 0.36228 0.0
O586 O 0.54526 0.42105 0.47843 0.0
O587 O 0.56984 0.37701 0.45685 0.0
O588 O 0.53635 0.34328 0.39734 0.0
O589 O 0.48638 0.35171 0.41063 0.0
O590 O 0.48317 0.38295 0.48129 0.0
O591 O 0.43608 0.37283 0.44303 0.0
H592 H 0.35118 0.38874 0.28009 0.0
H593 H 0.34005 0.36177 0.21276 0.0
H594 H 0.43826 0.32194 0.2133 0.0
H595 H 0.44861 0.34806 0.28113 0.0
H596 H 0.52762 0.40362 0.55357 0.0
H597 H 0.5377 0.38295 0.62481 0.0
H598 H 0.63498 0.35292 0.58771 0.0
H599 H 0.62436 0.37282 0.51631 0.0
Nd600 Nd 0.01866 0.59262 0.8861 0.0
Nd601 Nd 0.95527 0.58739 0.93799 0.0
C602 C 0.06657 0.60244 0.83151 0.0
C603 C 0.07342 0.61764 0.78986 0.0
C604 C 0.08231 0.65063 0.78707 0.0
C605 C 0.09045 0.66458 0.74826 0.0
C606 C 0.09 0.64597 0.71107 0.0
C607 C 0.08136 0.61288 0.71386 0.0
C608 C 0.07324 0.59887 0.75281 0.0
C609 C 0.00854 0.53405 0.92723 0.0
C610 C 0.94805 0.58895 0.83558 0.0
C611 C 0.90467 0.57552 0.98709 0.0
C612 C 0.89695 0.59037 1.02827 0.0
C613 C 0.86725 0.5843 0.04892 0.0
C614 C 0.85973 0.60042 0.08674 0.0
C615 C 0.8816 0.62324 0.10392 0.0
C616 C 0.91153 0.62867 0.0835 0.0
C617 C 0.91921 0.61223 0.04634 0.0
C618 C 0.97602 0.64998 0.92574 0.0
C619 C 0.02424 0.60386 0.9855 0.0
O620 O 0.06032 0.62198 0.86319 0.0
O621 O 0.04884 0.5759 0.83218 0.0
O622 O 0.03678 0.54801 0.92423 0.0
O623 O 0.98743 0.55041 0.90743 0.0
O624 O 0.97972 0.59501 0.8344 0.0
O625 O 0.93276 0.58236 0.8714 0.0
O626 O 0.93082 0.55685 0.98633 0.0
O627 O 0.90325 0.59558 0.95491 0.0
O628 O 0.96285 0.63943 0.96008 0.0
O629 O 0.97713 0.62791 0.89832 0.0
O630 O -0.00366 0.58775 0.98814 0.0
O631 O 0.0357 0.61387 0.94883 0.0
H632 H 0.08333 0.66572 0.81496 0.0
H633 H 0.09754 0.68998 0.74753 0.0
H634 H 0.08047 0.59788 0.68589 0.0
H635 H 0.06695 0.57326 0.75389 0.0
H636 H 0.84974 0.56751 0.03554 0.0
H637 H 0.83649 0.5958 0.10191 0.0
H638 H 0.92904 0.64573 0.09632 0.0
H639 H 0.94247 0.61695 0.03141 0.0
H640 H 0.09389 0.12329 0.05967 0.0
H641 H 0.00169 0.096 1.00365 0.0
H642 H 0.02337 0.10676 0.93383 0.0
H643 H 0.06837 0.1237 0.88795 0.0
H644 H 0.16082 0.15108 0.94268 0.0
H645 H 0.13931 0.14032 1.01325 0.0
C646 C 0.0785 0.11977 0.03223 0.0
C647 C 0.04605 0.10894 0.0373 0.0
C648 C 0.09121 0.12597 0.99167 0.0
C649 C 0.02666 0.10439 1.00111 0.0
C650 C 0.03905 0.11054 0.96093 0.0
C651 C 0.08376 0.12761 0.91532 0.0
C652 C 0.11616 0.13829 0.90988 0.0
C653 C 0.07124 0.12138 0.95579 0.0
C654 C 0.13589 0.1426 0.9458 0.0
C655 C 0.12354 0.13659 0.98623 0.0
H656 H 0.1279 0.75588 0.24915 0.0
H657 H 0.12162 0.8467 0.31723 0.0
H658 H 0.1119 0.87615 0.25157 0.0
H659 H 0.10405 0.87635 0.17474 0.0
H660 H 0.10965 0.7857 0.10656 0.0
H661 H 0.12052 0.75615 0.17214 0.0
C662 C 0.12439 0.78211 0.2497 0.0
C663 C 0.12538 0.7989 0.28834 0.0
C664 C 0.11858 0.79904 0.21168 0.0
C665 C 0.12087 0.83297 0.28817 0.0
C666 C 0.11532 0.84993 0.25053 0.0
C667 C 0.10794 0.85017 0.17418 0.0
C668 C 0.10595 0.83333 0.1357 0.0
C669 C 0.11402 0.83325 0.2121 0.0
C670 C 0.11065 0.79929 0.13573 0.0
C671 C 0.11701 0.78235 0.17323 0.0
H672 H 0.34521 0.8328 0.42207 0.0
H673 H 0.42825 0.86643 0.35061 0.0
H674 H 0.45673 0.88028 0.41562 0.0
H675 H 0.45857 0.8824 0.49283 0.0
H676 H 0.37536 0.8496 0.56467 0.0
H677 H 0.34648 0.83637 0.4996 0.0
C678 C 0.36937 0.84351 0.42066 0.0
C679 C 0.38454 0.84831 0.38129 0.0
C680 C 0.38571 0.85157 0.45834 0.0
C681 C 0.41609 0.8619 0.38033 0.0
C682 C 0.4324 0.87001 0.41755 0.0
C683 C 0.43414 0.8723 0.49438 0.0
C684 C 0.41934 0.86688 0.53382 0.0
C685 C 0.41757 0.86475 0.45676 0.0
C686 C 0.38749 0.85403 0.53491 0.0
C687 C 0.3709 0.84641 0.49764 0.0
H688 H 0.36996 0.21959 0.74978 0.0
H689 H 0.39591 0.13267 0.81975 0.0
H690 H 0.40837 0.10438 0.75432 0.0
H691 H 0.41252 0.10418 0.67716 0.0
H692 H 0.38697 0.19093 0.60695 0.0
H693 H 0.37401 0.21937 0.67245 0.0
C694 C 0.37837 0.19449 0.7508 0.0
C695 C 0.38201 0.17843 0.78986 0.0
C696 C 0.38564 0.17825 0.71292 0.0
C697 C 0.39293 0.14581 0.79033 0.0
C698 C 0.40005 0.12951 0.75284 0.0
C699 C 0.40382 0.1292 0.67615 0.0
C700 C 0.4007 0.14534 0.63713 0.0
C701 C 0.39651 0.14546 0.71396 0.0
C702 C 0.3899 0.17799 0.63653 0.0
C703 C 0.38235 0.19425 0.67398 0.0
H704 H 0.92405 0.86081 0.17381 0.0
H705 H 0.83777 0.81768 0.11955 0.0
H706 H 0.85969 0.8266 0.04878 0.0
H707 H 0.9034 0.84737 1.00195 0.0
H708 H 0.98936 0.89043 0.05767 0.0
H709 H 0.9673 0.88126 0.12771 0.0
C710 C 0.90983 0.85362 0.14654 0.0
C711 C 0.87918 0.83872 0.15221 0.0
C712 C 0.92254 0.85888 0.10595 0.0
C713 C 0.86154 0.82895 0.11632 0.0
C714 C 0.87399 0.83421 0.07575 0.0
C715 C 0.91728 0.85475 1.02941 0.0
C716 C 0.9481 0.8695 1.02423 0.0
C717 C 0.90448 0.84924 0.07011 0.0
C718 C 0.96572 0.87881 0.06037 0.0
C719 C 0.95309 0.87365 0.10065 0.0
H720 H 0.85458 0.20893 0.81687 0.0
H721 H 0.88528 0.12524 0.74444 0.0
H722 H 0.89662 0.09509 0.80907 0.0
H723 H 0.89802 0.09212 0.88617 0.0
H724 H 0.86811 0.1757 0.9591 0.0
H725 H 0.85588 0.20589 0.89443 0.0
C726 C 0.86385 0.18415 0.81517 0.0
C727 C 0.86916 0.16956 0.77564 0.0
C728 C 0.87032 0.16674 0.85265 0.0
C729 C 0.88092 0.13724 0.77426 0.0
C730 C 0.88746 0.11989 0.81129 0.0
C731 C 0.88909 0.11703 0.88799 0.0
C732 C 0.88405 0.13151 0.92761 0.0
C733 C 0.88234 0.13438 0.85065 0.0
C734 C 0.87186 0.16369 0.92916 0.0
C735 C 0.86506 0.1811 0.89213 0.0
H736 H 0.58652 0.12838 0.6784 0.0
H737 H 0.68185 0.14681 0.62588 0.0
H738 H 0.66028 0.13786 0.55478 0.0
H739 H 0.61421 0.12333 0.50753 0.0
H740 H 0.51914 0.10527 0.56201 0.0
H741 H 0.54082 0.1153 0.6319 0.0
C742 C 0.60268 0.1302 0.65144 0.0
C743 C 0.63583 0.13796 0.65756 0.0
C744 C 0.59013 0.12505 0.61079 0.0
C745 C 0.6562 0.14098 0.6221 0.0
C746 C 0.64389 0.13573 0.58143 0.0
C747 C 0.59822 0.12171 0.53466 0.0
C748 C 0.56505 0.11343 0.52913 0.0
C749 C 0.61087 0.12758 0.57535 0.0
C750 C 0.54477 0.1115 0.56488 0.0
C751 C 0.55713 0.11723 0.60513 0.0
H752 H 0.58318 0.88165 0.37408 0.0
H753 H 0.62653 0.80363 0.44714 0.0
H754 H 0.64545 0.77732 0.38266 0.0
H755 H 0.64801 0.77538 0.30559 0.0
H756 H 0.60409 0.853 0.23216 0.0
H757 H 0.58768 0.88078 0.29674 0.0
C758 C 0.5971 0.8591 0.37593 0.0
C759 C 0.60322 0.84458 0.41548 0.0
C760 C 0.60785 0.844 0.33865 0.0
C761 C 0.62099 0.81511 0.41717 0.0
C762 C 0.63199 0.80011 0.3803 0.0
C763 C 0.63503 0.79848 0.30358 0.0
C764 C 0.62723 0.81196 0.2639 0.0
C765 C 0.62526 0.81415 0.34085 0.0
C766 C 0.61047 0.84199 0.26216 0.0
C767 C 0.60095 0.85788 0.29913 0.0
H768 H 0.63338 0.62662 0.42187 0.0
H769 H 0.54069 0.64255 0.3598 0.0
H770 H 0.51173 0.62866 0.42463 0.0
H771 H 0.51262 0.61336 0.49946 0.0
H772 H 0.60521 0.59914 0.56262 0.0
H773 H 0.63419 0.61089 0.49711 0.0
C774 C 0.60685 0.62679 0.42252 0.0
C775 C 0.58925 0.63569 0.38604 0.0
C776 C 0.59029 0.6192 0.46021 0.0
C777 C 0.55485 0.63612 0.38752 0.0
C778 C 0.53825 0.62808 0.42457 0.0
C779 C 0.53913 0.61261 0.49892 0.0
C780 C 0.55662 0.60535 0.53608 0.0
C781 C 0.5557 0.61982 0.4612 0.0
C782 C 0.59103 0.60484 0.53467 0.0
C783 C 0.60768 0.6115 0.49712 0.0
H784 H 0.60285 0.32771 0.80564 0.0
H785 H 0.65333 0.24576 0.74987 0.0
H786 H 0.64281 0.26762 0.67986 0.0
H787 H 0.61897 0.30956 0.63379 0.0
H788 H 0.56901 0.39215 0.68839 0.0
H789 H 0.57916 0.37026 0.75897 0.0
C790 C 0.61154 0.31463 0.77819 0.0
C791 C 0.62875 0.28496 0.78338 0.0
C792 C 0.60534 0.32738 0.73752 0.0
C793 C 0.63979 0.26845 0.7472 0.0
C794 C 0.63386 0.28099 0.70693 0.0
C795 C 0.61057 0.32304 0.66107 0.0
C796 C 0.59329 0.3526 0.65547 0.0
C797 C 0.61665 0.3104 0.70165 0.0
C798 C 0.58205 0.3692 0.69146 0.0
C799 C 0.58803 0.35677 0.73197 0.0
H800 H 0.91026 0.33576 0.05892 0.0
H801 H -0.00188 0.37301 1.00117 0.0
H802 H 0.9754 0.36337 0.93168 0.0
H803 H 0.93081 0.34465 0.8866 0.0
H804 H 0.84245 0.30753 0.94269 0.0
H805 H 0.86527 0.31638 1.01308 0.0
C806 C 0.92445 0.34172 0.03115 0.0
C807 C 0.95597 0.35512 0.03565 0.0
C808 C 0.91118 0.33606 0.99074 0.0
C809 C 0.97391 0.36262 0.99907 0.0
C810 C 0.9609 0.35715 0.95908 0.0
C811 C 0.91635 0.33876 0.91418 0.0
C812 C 0.88483 0.32564 0.90919 0.0
C813 C 0.92956 0.344 0.95449 0.0
C814 C 0.86685 0.31747 0.94546 0.0
C815 C 0.87984 0.32268 0.98578 0.0
H816 H 0.85935 0.72303 0.25262 0.0
H817 H 0.84172 0.63371 0.32099 0.0
H818 H 0.84927 0.60232 0.25648 0.0
H819 H 0.86256 0.59991 0.1806 0.0
H820 H 0.88263 0.68905 0.1134 0.0
H821 H 0.87219 0.72075 0.17715 0.0
C822 C 0.85701 0.69671 0.25346 0.0
C823 C 0.85006 0.68083 0.29179 0.0
C824 C 0.86181 0.67871 0.21628 0.0
C825 C 0.8473 0.64664 0.29211 0.0
C826 C 0.85153 0.62862 0.25514 0.0
C827 C 0.86432 0.62629 0.17996 0.0
C828 C 0.87332 0.64213 0.14239 0.0
C829 C 0.85899 0.64434 0.21706 0.0
C830 C 0.87591 0.67631 0.14203 0.0
C831 C 0.86993 0.69444 0.17845 0.0
H832 H 0.47105 0.38544 0.56053 0.0
H833 H 0.39248 0.34502 0.4866 0.0
H834 H 0.3634 0.3302 0.55079 0.0
H835 H 0.36018 0.32831 0.62808 0.0
H836 H 0.43864 0.36865 0.70215 0.0
H837 H 0.46764 0.38399 0.6379 0.0
C838 C 0.44766 0.37327 0.55841 0.0
C839 C 0.43417 0.36622 0.51863 0.0
C840 C 0.43091 0.36484 0.59557 0.0
C841 C 0.40354 0.35082 0.51666 0.0
C842 C 0.38685 0.34223 0.55342 0.0
C843 C 0.38373 0.34025 0.63018 0.0
C844 C 0.39714 0.34728 0.66998 0.0
C845 C 0.40033 0.34902 0.59306 0.0
C846 C 0.4275 0.36326 0.67201 0.0
C847 C 0.44422 0.3719 0.63525 0.0
H848 H 0.40631 0.60153 0.37506 0.0
H849 H 0.34636 0.66707 0.44829 0.0
H850 H 0.32827 0.69471 0.38402 0.0
H851 H 0.33052 0.70132 0.307 0.0
H852 H 0.39078 0.63587 0.23386 0.0
H853 H 0.40776 0.60748 0.29796 0.0
C854 C 0.38948 0.622 0.37701 0.0
C855 C 0.3778 0.63214 0.41661 0.0
C856 C 0.37923 0.63794 0.33986 0.0
C857 C 0.35552 0.65843 0.41833 0.0
C858 C 0.34528 0.67442 0.38155 0.0
C859 C 0.34735 0.68083 0.30502 0.0
C860 C 0.35942 0.67092 0.26551 0.0
C861 C 0.35709 0.6645 0.34213 0.0
C862 C 0.38103 0.64412 0.2637 0.0
C863 C 0.39085 0.62785 0.30043 0.0
H864 H 0.12008 0.64406 0.13301 0.0
H865 H 0.03872 0.61117 0.20797 0.0
H866 H 0.00848 0.59724 0.14411 0.0
H867 H 0.00484 0.59495 0.0669 0.0
H868 H 0.08586 0.62891 0.99184 0.0
H869 H 0.11653 0.64153 0.05568 0.0
C870 C 0.09586 0.63356 0.13534 0.0
C871 C 0.08171 0.62869 0.17524 0.0
C872 C 0.07849 0.6258 0.09844 0.0
C873 C 0.05007 0.61549 0.17768 0.0
C874 C 0.0328 0.60738 0.14116 0.0
C875 C 0.02925 0.60501 0.06444 0.0
C876 C 0.04295 0.61095 1.0245 0.0
C877 C 0.04671 0.61255 0.10135 0.0
C878 C 0.07459 0.62414 1.02207 0.0
C879 C 0.09221 0.63137 0.05862 0.0
H880 H 0.14967 0.25646 0.81485 0.0
H881 H 0.119 0.33974 0.74072 0.0
H882 H 0.10712 0.37008 0.80478 0.0
H883 H 0.10516 0.37325 0.88193 0.0
H884 H 0.13532 0.29009 0.95638 0.0
H885 H 0.14798 0.25978 0.8923 0.0
C886 C 0.1403 0.28121 0.81266 0.0
C887 C 0.13513 0.29564 0.77283 0.0
C888 C 0.13355 0.29871 0.84978 0.0
C889 C 0.12325 0.3279 0.77079 0.0
C890 C 0.11639 0.34534 0.80749 0.0
C891 C 0.11427 0.34841 0.88418 0.0
C892 C 0.11924 0.33407 0.92407 0.0
C893 C 0.12135 0.331 0.84716 0.0
C894 C 0.13162 0.30198 0.92622 0.0
C895 C 0.13868 0.2845 0.88953 0.0
H896 H 0.97092 0.29173 0.1809 0.0
H897 H 0.07576 0.27926 0.17879 0.0
H898 H 0.06966 0.22024 0.18459 0.0
H899 H 0.03422 0.17233 0.18057 0.0
H900 H 0.9294 0.18484 0.18455 0.0
H901 H 0.93571 0.24389 0.18844 0.0
C902 C -0.00766 0.27605 0.18244 0.0
C903 C 0.0236 0.28944 0.17851 0.0
C904 C 0.98866 0.2423 0.1858 0.0
C905 C 0.05138 0.26923 0.18126 0.0
C906 C 0.04794 0.23555 0.18445 0.0
C907 C 0.01287 0.18803 0.18304 0.0
C908 C 0.98149 0.17462 0.18134 0.0
C909 C 0.01667 0.22182 0.18522 0.0
C910 C 0.95385 0.19487 0.18529 0.0
C911 C 0.95741 0.22858 0.18737 0.0
H912 H 0.94502 0.79184 0.43036 0.0
H913 H 0.9187 0.69016 0.42537 0.0
H914 H 0.97641 0.67456 0.43184 0.0
H915 H 0.03397 0.69022 0.42863 0.0
H916 H 0.06018 0.79199 0.42587 0.0
H917 H 0.00254 0.80743 0.43323 0.0
C918 C 0.95189 0.76625 0.43131 0.0
C919 C 0.92798 0.74209 0.42667 0.0
C920 C 0.98495 0.75764 0.43322 0.0
C921 C 0.93695 0.70906 0.42838 0.0
C922 C 0.96983 0.7002 0.43196 0.0
C923 C 0.02708 0.71578 0.43023 0.0
C924 C 0.05093 0.74005 0.42601 0.0
C925 C -0.00597 0.72433 0.43276 0.0
C926 C 0.04196 0.77302 0.42852 0.0
C927 C 0.00912 0.78179 0.43266 0.0
H928 H 0.44114 0.69149 0.67644 0.0
H929 H 0.54459 0.67076 0.66907 0.0
H930 H 0.55661 0.72889 0.67541 0.0
H931 H 0.53722 0.78538 0.67238 0.0
H932 H 0.43358 0.80607 0.67239 0.0
H933 H 0.42191 0.74795 0.68025 0.0
C934 C 0.46632 0.69969 0.67687 0.0
C935 C 0.49199 0.67723 0.67156 0.0
C936 C 0.47288 0.73303 0.67884 0.0
C937 C 0.52451 0.68788 0.67261 0.0
C938 C 0.53135 0.72102 0.67612 0.0
C939 C 0.5121 0.77717 0.67478 0.0
C940 C 0.48621 0.79961 0.6711 0.0
C941 C 0.50566 0.74382 0.67758 0.0
C942 C 0.4538 0.78895 0.67464 0.0
C943 C 0.44716 0.75582 0.67903 0.0
H944 H 0.56324 0.26802 0.92602 0.0
H945 H 0.55684 0.16309 0.92709 0.0
H946 H 0.49731 0.16653 0.93184 0.0
H947 H 0.4471 0.19954 0.92681 0.0
H948 H 0.4538 0.30451 0.92765 0.0
H949 H 0.51327 0.30094 0.93179 0.0
C950 C 0.54877 0.246 0.92797 0.0
C951 C 0.56405 0.21546 0.92535 0.0
C952 C 0.5147 0.24815 0.93077 0.0
C953 C 0.54536 0.18693 0.92859 0.0
C954 C 0.51138 0.18885 0.93119 0.0
C955 C 0.46165 0.22154 0.92855 0.0
C956 C 0.44641 0.25215 0.92594 0.0
C957 C 0.49577 0.21933 0.9309 0.0
C958 C 0.4652 0.28062 0.92903 0.0
C959 C 0.49917 0.27864 0.93128 0.0
H960 H 0.96125 0.801 0.91681 0.0
H961 H 0.05021 0.79096 0.84508 0.0
H962 H 0.04421 0.73151 0.84516 0.0
H963 H 0.01753 0.68249 0.87463 0.0
H964 H 0.93254 0.69434 0.95366 0.0
H965 H 0.933 0.75301 0.94188 0.0
C966 C 0.97898 0.78582 0.90052 0.0
C967 C 0.0063 0.79995 0.88149 0.0
C968 C 0.97632 0.752 0.90268 0.0
C969 C 0.02911 0.78026 0.8603 0.0
C970 C 0.02579 0.74639 0.86054 0.0
C971 C -0.00097 0.69808 0.88871 0.0
C972 C 0.97539 0.68461 0.91533 0.0
C973 C 0.00017 0.73197 0.88311 0.0
C974 C 0.95133 0.70457 0.93361 0.0
C975 C 0.95146 0.738 0.92677 0.0
H976 H 0.54271 0.72765 0.11031 0.0
H977 H 0.55014 0.7957 0.213 0.0
H978 H 0.49063 0.79877 0.21805 0.0
H979 H 0.43814 0.77554 0.20115 0.0
H980 H 0.42886 0.70508 0.10138 0.0
H981 H 0.48788 0.7091 0.08712 0.0
C982 C 0.53102 0.744 0.13256 0.0
C983 C 0.55013 0.76164 0.16114 0.0
C984 C 0.49688 0.7443 0.13661 0.0
C985 C 0.5354 0.78227 0.19063 0.0
C986 C 0.50157 0.78369 0.19381 0.0
C987 C 0.44896 0.76108 0.17616 0.0
C988 C 0.42975 0.73932 0.15306 0.0
C989 C 0.48231 0.76362 0.16838 0.0
C990 C 0.44366 0.72151 0.11995 0.0
C991 C 0.4772 0.72393 0.11178 0.0
H992 H 0.45533 0.19104 0.37728 0.0
H993 H 0.55919 0.17168 0.37942 0.0
H994 H 0.57022 0.22988 0.37122 0.0
H995 H 0.55029 0.28592 0.37539 0.0
H996 H 0.4466 0.30548 0.38263 0.0
H997 H 0.43525 0.24729 0.37451 0.0
C998 C 0.48036 0.19955 0.37516 0.0
C999 C 0.50651 0.1775 0.37959 0.0
C1000 C 0.48639 0.23297 0.37261 0.0
C1001 C 0.53881 0.18852 0.37656 0.0
C1002 C 0.54506 0.22169 0.372 0.0
C1003 C 0.52519 0.27748 0.3745 0.0
C1004 C 0.49927 0.29953 0.38043 0.0
C1005 C 0.51905 0.24414 0.37188 0.0
C1006 C 0.46686 0.28861 0.37871 0.0
C1007 C 0.46042 0.25546 0.37419 0.0
H1008 H 0.04805 0.18243 0.63556 0.0
H1009 H 0.07156 0.28485 0.63817 0.0
H1010 H 0.01347 0.29883 0.6318 0.0
H1011 H 0.95636 0.28171 0.63563 0.0
H1012 H 0.93293 0.1793 0.64058 0.0
H1013 H -0.00908 0.16529 0.63329 0.0
C1014 C 0.04046 0.20781 0.63409 0.0
C1015 C 0.06371 0.23266 0.63799 0.0
C1016 C 0.00717 0.21553 0.63218 0.0
C1017 C 0.05383 0.26542 0.6357 0.0
C1018 C 0.02072 0.27337 0.63217 0.0
C1019 C 0.96394 0.25633 0.6345 0.0
C1020 C 0.94077 0.2315 0.6393 0.0
C1021 C -0.0028 0.2486 0.63199 0.0
C1022 C 0.95062 0.19873 0.63744 0.0
C1023 C 0.98366 0.19076 0.63335 0.0
H1024 H 0.05011 0.02668 0.06327 0.0
H1025 H 0.97176 -0.01211 0.1388 0.0
H1026 H 0.94925 0.96035 0.07686 0.0
H1027 H 0.95087 0.94928 1.00099 0.0
H1028 H 0.0297 0.98722 0.9256 0.0
H1029 H 0.05256 0.01435 0.98768 0.0
C1030 C 0.02839 0.01179 0.06627 0.0
C1031 C 0.01257 0.00911 0.10542 0.0
C1032 C 0.01527 -0.00321 1.03045 0.0
C1033 C 0.9843 -0.00993 0.1089 0.0
C1034 C 0.97133 0.97463 0.0735 0.0
C1035 C 0.97286 0.96378 0.99809 0.0
C1036 C 0.98847 0.96669 0.95885 0.0
C1037 C 0.9863 0.97832 0.03402 0.0
C1038 C 0.01722 0.98501 0.95554 0.0
C1039 C 0.03038 0.00023 0.99101 0.0
H1040 H 0.20473 0.78212 0.31167 0.0
H1041 H 0.23812 0.70007 0.38569 0.0
H1042 H 0.26205 0.67515 0.32255 0.0
H1043 H 0.27337 0.67715 0.2463 0.0
H1044 H 0.2392 0.7593 0.17291 0.0
H1045 H 0.21398 0.78307 0.2356 0.0
C1046 C 0.21754 0.75894 0.31405 0.0
C1047 C 0.22017 0.74307 0.35319 0.0
C1048 C 0.2301 0.7444 0.27759 0.0
C1049 C 0.23625 0.7128 0.35581 0.0
C1050 C 0.24957 0.69846 0.31973 0.0
C1051 C 0.25985 0.69993 0.24395 0.0
C1052 C 0.25801 0.71652 0.20516 0.0
C1053 C 0.2464 0.71394 0.28038 0.0
C1054 C 0.24074 0.74614 0.20251 0.0
C1055 C 0.22668 0.75988 0.23837 0.0
H1056 H 0.48071 0.00315 0.44782 0.0
H1057 H 0.57538 0.0215 0.50275 0.0
H1058 H 0.55687 -0.00011 0.57017 0.0
H1059 H 0.51333 0.97681 0.61438 0.0
H1060 H 0.41853 0.9586 0.55977 0.0
H1061 H 0.43693 0.98045 0.4923 0.0
C1062 C 0.49728 0.00213 0.47453 0.0
C1063 C 0.52919 0.01416 0.47038 0.0
C1064 C 0.48618 -0.00949 0.51369 0.0
C1065 C 0.5506 0.01247 0.50508 0.0
C1066 C 0.53994 0.00047 0.54386 0.0
C1067 C 0.49663 0.9781 0.58781 0.0
C1068 C 0.46475 0.966 0.59199 0.0
C1069 C 0.50763 -0.01008 0.54874 0.0
C1070 C 0.44325 0.9678 0.55741 0.0
C1071 C 0.45386 0.97992 0.51862 0.0
H1072 H 0.29636 0.17989 0.8135 0.0
H1073 H 0.25774 0.25824 0.88921 0.0
H1074 H 0.22876 0.28046 0.8278 0.0
H1075 H 0.21676 0.27896 0.7521 0.0
H1076 H 0.25437 0.20021 0.67637 0.0
H1077 H 0.28258 0.17724 0.7381 0.0
C1078 C 0.28112 0.20149 0.81665 0.0
C1079 C 0.27894 0.21742 0.85569 0.0
C1080 C 0.2653 0.21452 0.78105 0.0
C1081 C 0.25951 0.24558 0.85939 0.0
C1082 C 0.24326 0.25842 0.82427 0.0
C1083 C 0.23145 0.25697 0.74908 0.0
C1084 C 0.23405 0.24146 0.70983 0.0
C1085 C 0.24656 0.24347 0.78482 0.0
C1086 C 0.25248 0.21264 0.70633 0.0
C1087 C 0.2683 0.19942 0.74161 0.0
H1088 H 0.70818 0.28708 0.80962 0.0
H1089 H 0.75523 0.21708 0.89172 0.0
H1090 H 0.78372 0.19301 0.83133 0.0
H1091 H 0.79193 0.18964 0.75482 0.0
H1092 H 0.74637 0.26068 0.67293 0.0
H1093 H 0.71893 0.2857 0.73354 0.0
C1094 C 0.7251 0.26692 0.81435 0.0
C1095 C 0.72964 0.25369 0.85487 0.0
C1096 C 0.74054 0.25273 0.77946 0.0
C1097 C 0.75151 0.22756 0.86069 0.0
C1098 C 0.76746 0.21363 0.82619 0.0
C1099 C 0.77582 0.21047 0.75029 0.0
C1100 C 0.77067 0.22315 0.70963 0.0
C1101 C 0.76141 0.22546 0.78534 0.0
C1102 C 0.75021 0.2504 0.70405 0.0
C1103 C 0.73489 0.26485 0.73865 0.0
H1104 H 0.77214 0.69805 0.31526 0.0
H1105 H 0.74248 0.78531 0.38063 0.0
H1106 H 0.7196 0.80767 0.315 0.0
H1107 H 0.70885 0.80235 0.23905 0.0
H1108 H 0.73697 0.71412 0.17469 0.0
H1109 H 0.76154 0.69276 0.23967 0.0
C1110 C 0.76037 0.72183 0.31523 0.0
C1111 C 0.75878 0.74007 0.35257 0.0
C1112 C 0.74811 0.73469 0.27739 0.0
C1113 C 0.74373 0.77089 0.35214 0.0
C1114 C 0.73101 0.78375 0.31463 0.0
C1115 C 0.72082 0.77867 0.23915 0.0
C1116 C 0.72131 0.75977 0.20226 0.0
C1117 C 0.73345 0.76601 0.27699 0.0
C1118 C 0.73653 0.72904 0.20279 0.0
C1119 C 0.7502 0.71672 0.23996 0.0
H1120 H 0.54638 0.52392 0.56258 0.0
H1121 H 0.46488 0.4889 0.63558 0.0
H1122 H 0.44225 0.46239 0.57292 0.0
H1123 H 0.4451 0.45082 0.4972 0.0
H1124 H 0.52618 0.48665 0.42405 0.0
H1125 H 0.54907 0.51263 0.4869 0.0
C1126 C 0.52391 0.51009 0.56484 0.0
C1127 C 0.50736 0.50794 0.60348 0.0
C1128 C 0.5106 0.49605 0.52857 0.0
C1129 C 0.47803 0.4905 0.60605 0.0
C1130 C 0.465 0.47568 0.57026 0.0
C1131 C 0.46752 0.46474 0.49495 0.0
C1132 C 0.48392 0.46721 0.45623 0.0
C1133 C 0.48083 0.47877 0.53126 0.0
C1134 C 0.51316 0.48479 0.45365 0.0
C1135 C 0.52634 0.49931 0.48955 0.0
H1136 H 0.04178 0.5248 1.00026 0.0
H1137 H 0.9556 0.4948 0.93245 0.0
H1138 H 0.93821 0.46208 0.99296 0.0
H1139 H 0.94706 0.44307 0.06529 0.0
H1140 H 0.03253 0.47375 0.13406 0.0
H1141 H 0.05042 0.50601 0.0732 0.0
C1142 C 0.01943 0.51072 0.9986 0.0
C1143 C 6e-05 0.51183 0.96197 0.0
C1144 C 0.00922 0.49276 0.03385 0.0
C1145 C 0.97091 0.49402 0.96034 0.0
C1146 C 0.96089 0.47556 0.99495 0.0
C1147 C 0.96942 0.45712 0.06714 0.0
C1148 C 0.98846 0.45626 0.10403 0.0
C1149 C 0.97967 0.47507 0.03199 0.0
C1150 C 0.0175 0.47425 0.10592 0.0
C1151 C 0.0278 0.49245 0.0711 0.0
H1152 H 0.13054 0.11184 0.42492 0.0
H1153 H 0.11373 0.20624 0.36798 0.0
H1154 H 0.12858 0.23288 0.43364 0.0
H1155 H 0.14524 0.22984 0.50695 0.0
H1156 H 0.16153 0.13641 0.56658 0.0
H1157 H 0.14855 0.10897 0.49999 0.0
C1158 C 0.13003 0.13822 0.42703 0.0
C1159 C 0.12113 0.15698 0.39134 0.0
C1160 C 0.13876 0.15357 0.46521 0.0
C1161 C 0.12087 0.19118 0.39459 0.0
C1162 C 0.12928 0.20647 0.43222 0.0
C1163 C 0.14611 0.20343 0.50565 0.0
C1164 C 0.15427 0.18527 0.54201 0.0
C1165 C 0.13823 0.18795 0.46765 0.0
C1166 C 0.15552 0.15107 0.53917 0.0
C1167 C 0.14785 0.13537 0.50111 0.0
H1168 H 0.12052 0.88226 0.66799 0.0
H1169 H 0.03123 0.84313 0.61634 0.0
H1170 H 0.00218 0.85686 0.68087 0.0
H1171 H 0.00225 0.87816 0.75232 0.0
H1172 H 0.09109 0.91684 0.80573 0.0
H1173 H 0.1199 0.90602 0.73958 0.0
C1174 C 0.09463 0.87705 0.67068 0.0
C1175 C 0.07823 0.86133 0.63735 0.0
C1176 C 0.07792 0.88514 0.70804 0.0
C1177 C 0.04471 0.85455 0.64166 0.0
C1178 C 0.02796 0.86265 0.67847 0.0
C1179 C 0.02788 0.88454 0.74962 0.0
C1180 C 0.04446 0.89823 0.78421 0.0
C1181 C 0.04437 0.87767 0.71194 0.0
C1182 C 0.07764 0.90637 0.77971 0.0
C1183 C 0.09419 0.89999 0.74193 0.0
H1184 H 0.35434 0.74118 1.00079 0.0
H1185 H 0.31976 0.82923 0.06062 0.0
H1186 H 0.32995 0.85988 0.99553 0.0
H1187 H 0.35049 0.8618 0.92203 0.0
H1188 H 0.38589 0.77318 0.86439 0.0
H1189 H 0.37403 0.74281 0.92859 0.0
C1190 C 0.34874 0.76705 0.9998 0.0
C1191 C 0.33616 0.78278 0.03578 0.0
C1192 C 0.35521 0.78454 0.96268 0.0
C1193 C 0.32935 0.8164 0.03351 0.0
C1194 C 0.33528 0.83397 0.99629 0.0
C1195 C 0.35541 0.83581 0.92346 0.0
C1196 C 0.36932 0.8199 0.88835 0.0
C1197 C 0.34848 0.81833 0.96074 0.0
C1198 C 0.37578 0.78623 0.89101 0.0
C1199 C 0.36875 0.76875 0.92765 0.0
H1200 H 0.5103 0.10476 0.25924 0.0
H1201 H 0.42423 0.05843 0.30976 0.0
H1202 H 0.39503 0.06924 0.24357 0.0
H1203 H 0.39327 0.0945 0.17241 0.0
H1204 H 0.47972 0.14164 0.1242 0.0
H1205 H 0.50915 0.12838 0.18887 0.0
C1206 C 0.48521 0.09669 0.25595 0.0
C1207 C 0.46956 0.08074 0.28973 0.0
C1208 C 0.46844 0.10362 0.2183 0.0
C1209 C 0.437 0.07063 0.28441 0.0
C1210 C 0.42023 0.07699 0.24658 0.0
C1211 C 0.41862 0.10165 0.17594 0.0
C1212 C 0.43409 0.11938 0.14341 0.0
C1213 C 0.43557 0.09388 0.21347 0.0
C1214 C 0.46691 0.12862 0.14883 0.0
C1215 C 0.48389 0.12079 0.18574 0.0
H1216 H 0.86318 0.75368 0.55133 0.0
H1217 H 0.82084 0.84194 0.49987 0.0
H1218 H 0.83362 0.87067 0.56563 0.0
H1219 H 0.85817 0.87063 0.63762 0.0
H1220 H 0.90112 0.78158 0.68601 0.0
H1221 H 0.88704 0.75343 0.62119 0.0
C1222 C 0.85646 0.7792 0.5542 0.0
C1223 C 0.84086 0.79552 0.52044 0.0
C1224 C 0.86434 0.79553 0.59158 0.0
C1225 C 0.83272 0.82866 0.52523 0.0
C1226 C 0.84013 0.84511 0.56284 0.0
C1227 C 0.86432 0.84504 0.63397 0.0
C1228 C 0.881 0.82837 0.66671 0.0
C1229 C 0.85613 0.82881 0.59622 0.0
C1230 C 0.88891 0.79524 0.66124 0.0
C1231 C 0.88063 0.77901 0.62424 0.0
H1232 H 0.87734 0.08736 0.39638 0.0
H1233 H 0.96638 0.12665 0.44847 0.0
H1234 H -0.00471 0.11452 0.3833 0.0
H1235 H -0.00502 0.09522 0.31089 0.0
H1236 H 0.90621 0.05715 0.2566 0.0
H1237 H 0.87763 0.06604 0.32341 0.0
C1238 C 0.90303 0.09335 0.39337 0.0
C1239 C 0.91963 0.1079 0.42741 0.0
C1240 C 0.9196 0.08644 0.3555 0.0
C1241 C 0.95306 0.1151 0.42311 0.0
C1242 C 0.96961 0.10831 0.38573 0.0
C1243 C 0.96941 0.08858 0.31355 0.0
C1244 C 0.95276 0.07565 0.27854 0.0
C1245 C 0.95309 0.09422 0.35168 0.0
C1246 C 0.9197 0.06705 0.28297 0.0
C1247 C 0.90328 0.07233 0.32112 0.0
H1248 H 0.63731 0.23143 0.05602 0.0
H1249 H 0.68453 0.14564 1.00563 0.0
H1250 H 0.67676 0.11742 0.07308 0.0
H1251 H 0.65381 0.11637 0.14543 0.0
H1252 H 0.60606 0.20269 0.19369 0.0
H1253 H 0.61626 0.23113 0.1276 0.0
C1254 C 0.64613 0.20659 0.05957 0.0
C1255 C 0.66142 0.19072 1.02547 0.0
C1256 C 0.64105 0.19041 0.09802 0.0
C1257 C 0.67276 0.15856 0.0312 0.0
C1258 C 0.66815 0.14234 0.06976 0.0
C1259 C 0.64589 0.14149 0.14161 0.0
C1260 C 0.62883 0.15717 0.17456 0.0
C1261 C 0.65192 0.15789 0.10326 0.0
C1262 C 0.61859 0.1897 0.16877 0.0
C1263 C 0.62465 0.20613 0.13103 0.0
H1264 H 0.49034 0.87032 0.79725 0.0
H1265 H 0.57435 0.91599 0.74037 0.0
H1266 H 0.60594 0.90629 0.80505 0.0
H1267 H 0.61014 0.88277 0.87708 0.0
H1268 H 0.52538 0.83692 0.93199 0.0
H1269 H 0.49395 0.84831 0.86836 0.0
C1270 C 0.51552 0.87842 0.79879 0.0
C1271 C 0.52986 0.89394 0.76371 0.0
C1272 C 0.53359 0.87233 0.83569 0.0
C1273 C 0.56257 0.90411 0.76677 0.0
C1274 C 0.5807 0.89843 0.80375 0.0
C1275 C 0.58473 0.87548 0.87525 0.0
C1276 C 0.57036 0.85867 0.90941 0.0
C1277 C 0.56655 0.88226 0.83832 0.0
C1278 C 0.53741 0.84924 0.90612 0.0
C1279 C 0.51926 0.856 0.86979 0.0
H1280 H 0.62229 0.61529 0.926 0.0
H1281 H 0.58928 0.70404 0.86546 0.0
H1282 H 0.60065 0.73469 0.92938 0.0
H1283 H 0.61976 0.73658 1.00183 0.0
H1284 H 0.65203 0.64846 0.06449 0.0
H1285 H 0.6416 0.61735 1.00007 0.0
C1286 C 0.61775 0.64136 0.92679 0.0
C1287 C 0.60477 0.65728 0.89095 0.0
C1288 C 0.62437 0.65897 0.96387 0.0
C1289 C 0.59874 0.69104 0.89268 0.0
C1290 C 0.60546 0.70866 0.92915 0.0
C1291 C 0.62476 0.71059 1.0016 0.0
C1292 C 0.63686 0.69497 0.03809 0.0
C1293 C 0.61826 0.69289 0.96485 0.0
C1294 C 0.64281 0.66118 0.03693 0.0
C1295 C 0.63679 0.64337 1.00009 0.0
H1296 H 0.50543 0.35782 0.26162 0.0
H1297 H 0.58664 0.41595 0.30404 0.0
H1298 H 0.61537 0.40487 0.23756 0.0
H1299 H 0.61723 0.37786 0.16729 0.0
H1300 H 0.53502 0.31966 0.1278 0.0
H1301 H 0.50707 0.3314 0.19361 0.0
C1302 C 0.52931 0.36844 0.25654 0.0
C1303 C 0.54363 0.38804 0.28793 0.0
C1304 C 0.54567 0.36164 0.21877 0.0
C1305 C 0.5749 0.40093 0.28052 0.0
C1306 C 0.59134 0.39454 0.24248 0.0
C1307 C 0.59315 0.36786 0.17305 0.0
C1308 C 0.57845 0.34762 0.14247 0.0
C1309 C 0.57696 0.37482 0.21134 0.0
C1310 C 0.5473 0.33473 0.15081 0.0
C1311 C 0.53112 0.34166 0.18839 0.0
H1312 H 0.8678 0.35085 0.42178 0.0
H1313 H 0.91492 0.26279 0.37791 0.0
H1314 H 0.9018 0.23545 0.44385 0.0
H1315 H 0.87748 0.23613 0.51345 0.0
H1316 H 0.83078 0.32351 0.56007 0.0
H1317 H 0.84276 0.35132 0.49325 0.0
C1318 C 0.87507 0.32564 0.42663 0.0
C1319 C 0.89262 0.30904 0.39483 0.0
C1320 C 0.86738 0.30987 0.46498 0.0
C1321 C 0.902 0.27643 0.40191 0.0
C1322 C 0.89427 0.26064 0.43956 0.0
C1323 C 0.86966 0.26125 0.50927 0.0
C1324 C 0.85307 0.2776 0.542 0.0
C1325 C 0.87705 0.27711 0.47125 0.0
C1326 C 0.84345 0.31022 0.53554 0.0
C1327 C 0.85041 0.32616 0.49732 0.0
H1328 H 0.97265 0.6054 0.75928 0.0
H1329 H 0.88156 0.58302 0.82135 0.0
H1330 H 0.85169 0.59543 0.75605 0.0
H1331 H 0.85153 0.6152 0.68188 0.0
H1332 H 0.94345 0.63845 0.6224 0.0
H1333 H 0.97277 0.62361 0.68653 0.0
C1334 C 0.94625 0.60295 0.7588 0.0
C1335 C 0.92945 0.59324 0.79548 0.0
C1336 C 0.9293 0.61073 0.72161 0.0
C1337 C 0.89521 0.59031 0.79372 0.0
C1338 C 0.8781 0.59757 0.75638 0.0
C1339 C 0.87799 0.61681 0.68293 0.0
C1340 C 0.89519 0.62829 0.64735 0.0
C1341 C 0.89488 0.60821 0.72023 0.0
C1342 C 0.92948 0.63037 0.64942 0.0
C1343 C 0.94634 0.62163 0.68602 0.0
H1344 H 0.35446 0.36046 0.13757 0.0
H1345 H 0.40524 0.27691 0.18985 0.0
H1346 H 0.39499 0.2463 0.12574 0.0
H1347 H 0.37314 0.24335 0.05496 0.0
H1348 H 0.32289 0.32617 1.00012 0.0
H1349 H 0.33057 0.35665 0.06577 0.0
C1350 C 0.36301 0.33546 0.13503 0.0
C1351 C 0.38096 0.32118 0.16843 0.0
C1352 C 0.35693 0.31779 0.09785 0.0
C1353 C 0.39202 0.2888 0.16444 0.0
C1354 C 0.38592 0.27114 0.12788 0.0
C1355 C 0.3636 0.26803 0.05713 0.0
C1356 C 0.34753 0.28245 1.02241 0.0
C1357 C 0.36866 0.28546 0.09438 0.0
C1358 C 0.33531 0.31441 1.02629 0.0
C1359 C 0.33986 0.3319 0.06377 0.0
H1360 H 0.36861 0.5962 0.88275 0.0
H1361 H 0.45364 0.64343 0.93486 0.0
H1362 H 0.4842 0.63203 0.87076 0.0
H1363 H 0.48695 0.60944 0.80015 0.0
H1364 H 0.40257 0.56239 0.74613 0.0
H1365 H 0.37186 0.57234 0.81116 0.0
C1366 C 0.39389 0.6038 0.88018 0.0
C1367 C 0.40864 0.62095 0.91364 0.0
C1368 C 0.41152 0.59703 0.84303 0.0
C1369 C 0.44138 0.63081 0.90948 0.0
C1370 C 0.45901 0.62406 0.8729 0.0
C1371 C 0.46188 0.60112 0.8024 0.0
C1372 C 0.44716 0.58512 0.76806 0.0
C1373 C 0.44432 0.60732 0.83949 0.0
C1374 C 0.41461 0.57466 0.77197 0.0
C1375 C 0.39699 0.58046 0.80915 0.0
H1376 H 0.11141 0.73284 0.5494 0.0
H1377 H 0.16441 0.64761 0.50747 0.0
H1378 H 0.15208 0.62015 0.57446 0.0
H1379 H 0.12584 0.62073 0.64517 0.0
H1380 H 0.07137 0.70622 0.68343 0.0
H1381 H 0.08494 0.73321 0.6175 0.0
C1382 C 0.12057 0.70829 0.55467 0.0
C1383 C 0.13906 0.69244 0.52329 0.0
C1384 C 0.11305 0.69267 0.59272 0.0
C1385 C 0.15026 0.66049 0.53101 0.0
C1386 C 0.14313 0.64477 0.56931 0.0
C1387 C 0.11672 0.64515 0.63892 0.0
C1388 C 0.09784 0.66148 0.66968 0.0
C1389 C 0.12439 0.66061 0.60039 0.0
C1390 C 0.08648 0.69325 0.66097 0.0
C1391 C 0.09407 0.70868 0.62308 0.0
H1392 H 0.01192 0.36415 0.30661 0.0
H1393 H 0.09789 0.40896 0.25354 0.0
H1394 H 0.12749 0.39939 0.31974 0.0
H1395 H 0.12971 0.37511 0.39137 0.0
H1396 H 0.04325 0.32964 0.44222 0.0
H1397 H 0.01334 0.34212 0.3777 0.0
C1398 C 0.03709 0.37211 0.30935 0.0
C1399 C 0.05265 0.38718 0.27488 0.0
C1400 C 0.05405 0.36593 0.34698 0.0
C1401 C 0.08523 0.3974 0.27948 0.0
C1402 C 0.10223 0.39174 0.31728 0.0
C1403 C 0.10425 0.3682 0.38845 0.0
C1404 C 0.08891 0.35109 0.42157 0.0
C1405 C 0.08703 0.37553 0.35105 0.0
C1406 C 0.05593 0.34217 0.41704 0.0
C1407 C 0.03868 0.34954 0.38025 0.0
loop_
_geom_bond_atom_site_label_1
_geom_bond_atom_site_label_2
_geom_bond_distance
_geom_bond_site_symmetry_2
_ccdc_geom_bond_type
Nd0 C2 2.836 . S
Nd0 O20 2.500 . S
Nd0 O21 2.492 . S
Nd0 O22 2.487 . S
Nd0 O23 2.682 1_655 S
Nd0 O24 2.410 1_655 S
Nd0 O29 2.414 . S
Nd0 O31 2.424 . S
Nd1 C11 2.836 . S
Nd1 O23 2.414 . S
Nd1 O25 2.424 . S
Nd1 O26 2.500 . S
Nd1 O27 2.492 . S
Nd1 O28 2.487 . S
Nd1 O29 2.682 1_455 S
Nd1 O30 2.410 1_455 S
C2 Nd0 2.836 . S
C2 C3 1.498 1_554 S
C2 O20 1.258 . S
C2 O21 1.239 . S
C3 C2 1.498 1_556 S
C3 C4 1.366 . S
C3 C8 1.407 . S
C4 C3 1.366 . S
C4 C5 1.392 . S
C4 H32 0.930 . S
C5 C4 1.392 . S
C5 C6 1.398 . S
C5 H33 0.929 . S
C6 C5 1.398 . S
C6 C7 1.352 . S
C7 C6 1.352 . S
C7 C8 1.384 . S
C7 H34 0.930 . S
C8 C3 1.407 . S
C8 C7 1.384 . S
C8 H35 0.929 . S
C9 O22 1.241 . S
C9 O23 1.273 1_655 S
C10 O24 1.251 . S
C10 O25 1.268 . S
C11 Nd1 2.836 . S
C11 C12 1.498 . S
C11 O26 1.258 . S
C11 O27 1.239 . S
C12 C11 1.498 . S
C12 C13 1.366 . S
C12 C17 1.407 . S
C13 C12 1.366 . S
C13 C14 1.392 . S
C13 H36 0.930 . S
C14 C13 1.392 . S
C14 C15 1.398 . S
C14 H37 0.929 . S
C15 C14 1.398 . S
C15 C16 1.352 . S
C16 C15 1.352 . S
C16 C17 1.384 . S
C16 H38 0.930 . S
C17 C12 1.407 . S
C17 C16 1.384 . S
C17 H39 0.929 . S
C18 O28 1.241 . S
C18 O29 1.273 1_455 S
C19 O30 1.251 . S
C19 O31 1.268 . S
O20 Nd0 2.500 . S
O20 C2 1.258 . S
O21 Nd0 2.492 . S
O21 C2 1.239 . S
O22 Nd0 2.487 . S
O22 C9 1.241 . S
O23 Nd0 2.682 1_455 S
O23 Nd1 2.414 . S
O23 C9 1.273 1_455 S
O24 Nd0 2.410 1_455 S
O24 C10 1.251 . S
O25 Nd1 2.424 . S
O25 C10 1.268 . S
O26 Nd1 2.500 . S
O26 C11 1.258 . S
O27 Nd1 2.492 . S
O27 C11 1.239 . S
O28 Nd1 2.487 . S
O28 C18 1.241 . S
O29 Nd0 2.414 . S
O29 Nd1 2.682 1_655 S
O29 C18 1.273 1_655 S
O30 Nd1 2.410 1_655 S
O30 C19 1.251 . S
O31 Nd0 2.424 . S
O31 C19 1.268 . S
H32 C4 0.930 . S
H33 C5 0.929 . S
H34 C7 0.930 . S
H35 C8 0.929 . S
H36 C13 0.930 . S
H37 C14 0.929 . S
H38 C16 0.930 . S
H39 C17 0.929 . S
Nd40 C42 2.836 . S
Nd40 O60 2.500 . S
Nd40 O61 2.492 . S
Nd40 O62 2.487 . S
Nd40 O63 2.682 . S
Nd40 O64 2.410 . S
Nd40 O69 2.414 . S
Nd40 O71 2.424 . S
Nd41 C51 2.836 . S
Nd41 O63 2.414 . S
Nd41 O65 2.424 . S
Nd41 O66 2.500 . S
Nd41 O67 2.492 . S
Nd41 O68 2.487 . S
Nd41 O69 2.682 . S
Nd41 O70 2.410 . S
C42 Nd40 2.836 . S
C42 C43 1.498 . S
C42 O60 1.258 . S
C42 O61 1.239 . S
C43 C42 1.498 . S
C43 C44 1.366 . S
C43 C48 1.407 . S
C44 C43 1.366 . S
C44 C45 1.392 . S
C44 H72 0.930 . S
C45 C44 1.392 . S
C45 C46 1.398 . S
C45 H73 0.929 . S
C46 C45 1.398 . S
C46 C47 1.352 . S
C47 C46 1.352 . S
C47 C48 1.384 . S
C47 H74 0.930 . S
C48 C43 1.407 . S
C48 C47 1.384 . S
C48 H75 0.929 . S
C49 O62 1.241 . S
C49 O63 1.273 . S
C50 O64 1.251 . S
C50 O65 1.268 . S
C51 Nd41 2.836 . S
C51 C52 1.498 . S
C51 O66 1.258 . S
C51 O67 1.239 . S
C52 C51 1.498 . S
C52 C53 1.366 . S
C52 C57 1.407 . S
C53 C52 1.366 . S
C53 C54 1.392 . S
C53 H76 0.930 . S
C54 C53 1.392 . S
C54 C55 1.398 . S
C54 H77 0.929 . S
C55 C54 1.398 . S
C55 C56 1.352 . S
C56 C55 1.352 . S
C56 C57 1.384 . S
C56 H78 0.930 . S
C57 C52 1.407 . S
C57 C56 1.384 . S
C57 H79 0.929 . S
C58 O68 1.241 . S
C58 O69 1.273 . S
C59 O70 1.251 . S
C59 O71 1.268 . S
O60 Nd40 2.500 . S
O60 C42 1.258 . S
O61 Nd40 2.492 . S
O61 C42 1.239 . S
O62 Nd40 2.487 . S
O62 C49 1.241 . S
O63 Nd40 2.682 . S
O63 Nd41 2.414 . S
O63 C49 1.273 . S
O64 Nd40 2.410 . S
O64 C50 1.251 . S
O65 Nd41 2.424 . S
O65 C50 1.268 . S
O66 Nd41 2.500 . S
O66 C51 1.258 . S
O67 Nd41 2.492 . S
O67 C51 1.239 . S
O68 Nd41 2.487 . S
O68 C58 1.241 . S
O69 Nd40 2.414 . S
O69 Nd41 2.682 . S
O69 C58 1.273 . S
O70 Nd41 2.410 . S
O70 C59 1.251 . S
O71 Nd40 2.424 . S
O71 C59 1.268 . S
H72 C44 0.930 . S
H73 C45 0.929 . S
H74 C47 0.930 . S
H75 C48 0.929 . S
H76 C53 0.930 . S
H77 C54 0.929 . S
H78 C56 0.930 . S
H79 C57 0.929 . S
Nd80 C82 2.836 . S
Nd80 O100 2.500 . S
Nd80 O101 2.492 . S
Nd80 O102 2.487 . S
Nd80 O103 2.682 . S
Nd80 O104 2.410 . S
Nd80 O109 2.414 . S
Nd80 O111 2.424 . S
Nd81 C91 2.836 . S
Nd81 O103 2.414 . S
Nd81 O105 2.424 . S
Nd81 O106 2.500 . S
Nd81 O107 2.492 . S
Nd81 O108 2.487 . S
Nd81 O109 2.682 . S
Nd81 O110 2.410 . S
C82 Nd80 2.836 . S
C82 C83 1.498 . S
C82 O100 1.258 . S
C82 O101 1.239 . S
C83 C82 1.498 . S
C83 C84 1.366 . S
C83 C88 1.407 . S
C84 C83 1.366 . S
C84 C85 1.392 . S
C84 H112 0.930 . S
C85 C84 1.392 . S
C85 C86 1.398 . S
C85 H113 0.929 . S
C86 C85 1.398 . S
C86 C87 1.352 . S
C87 C86 1.352 . S
C87 C88 1.384 . S
C87 H114 0.930 . S
C88 C83 1.407 . S
C88 C87 1.384 . S
C88 H115 0.929 . S
C89 O102 1.241 . S
C89 O103 1.273 . S
C90 O104 1.251 . S
C90 O105 1.268 . S
C91 Nd81 2.836 . S
C91 C92 1.498 . S
C91 O106 1.258 . S
C91 O107 1.239 . S
C92 C91 1.498 . S
C92 C93 1.366 . S
C92 C97 1.407 . S
C93 C92 1.366 . S
C93 C94 1.392 . S
C93 H116 0.930 . S
C94 C93 1.392 . S
C94 C95 1.398 . S
C94 H117 0.929 . S
C95 C94 1.398 . S
C95 C96 1.352 . S
C96 C95 1.352 . S
C96 C97 1.384 . S
C96 H118 0.930 . S
C97 C92 1.407 . S
C97 C96 1.384 . S
C97 H119 0.929 . S
C98 O108 1.241 . S
C98 O109 1.273 . S
C99 O110 1.251 . S
C99 O111 1.268 . S
O100 Nd80 2.500 . S
O100 C82 1.258 . S
O101 Nd80 2.492 . S
O101 C82 1.239 . S
O102 Nd80 2.487 . S
O102 C89 1.241 . S
O103 Nd80 2.682 . S
O103 Nd81 2.414 . S
O103 C89 1.273 . S
O104 Nd80 2.410 . S
O104 C90 1.251 . S
O105 Nd81 2.424 . S
O105 C90 1.268 . S
O106 Nd81 2.500 . S
O106 C91 1.258 . S
O107 Nd81 2.492 . S
O107 C91 1.239 . S
O108 Nd81 2.487 . S
O108 C98 1.241 . S
O109 Nd80 2.414 . S
O109 Nd81 2.682 . S
O109 C98 1.273 . S
O110 Nd81 2.410 . S
O110 C99 1.251 . S
O111 Nd80 2.424 . S
O111 C99 1.268 . S
H112 C84 0.930 . S
H113 C85 0.929 . S
H114 C87 0.930 . S
H115 C88 0.929 . S
H116 C93 0.930 . S
H117 C94 0.929 . S
H118 C96 0.930 . S
H119 C97 0.929 . S
Nd120 C122 2.836 . S
Nd120 O140 2.500 . S
Nd120 O141 2.492 . S
Nd120 O142 2.487 . S
Nd120 O143 2.682 . S
Nd120 O144 2.410 . S
Nd120 O149 2.414 . S
Nd120 O151 2.424 . S
Nd121 C131 2.836 . S
Nd121 O143 2.414 . S
Nd121 O145 2.424 . S
Nd121 O146 2.500 . S
Nd121 O147 2.492 . S
Nd121 O148 2.487 . S
Nd121 O149 2.682 . S
Nd121 O150 2.410 . S
C122 Nd120 2.836 . S
C122 C123 1.498 . S
C122 O140 1.258 . S
C122 O141 1.239 . S
C123 C122 1.498 . S
C123 C124 1.366 . S
C123 C128 1.407 . S
C124 C123 1.366 . S
C124 C125 1.392 . S
C124 H152 0.930 . S
C125 C124 1.392 . S
C125 C126 1.398 . S
C125 H153 0.929 . S
C126 C125 1.398 . S
C126 C127 1.352 . S
C127 C126 1.352 . S
C127 C128 1.384 . S
C127 H154 0.930 . S
C128 C123 1.407 . S
C128 C127 1.384 . S
C128 H155 0.929 . S
C129 O142 1.241 . S
C129 O143 1.273 . S
C130 O144 1.251 . S
C130 O145 1.268 . S
C131 Nd121 2.836 . S
C131 C132 1.498 1_556 S
C131 O146 1.258 . S
C131 O147 1.239 . S
C132 C131 1.498 1_554 S
C132 C133 1.366 . S
C132 C137 1.407 . S
C133 C132 1.366 . S
C133 C134 1.392 . S
C133 H156 0.930 . S
C134 C133 1.392 . S
C134 C135 1.398 . S
C134 H157 0.929 . S
C135 C134 1.398 . S
C135 C136 1.352 . S
C136 C135 1.352 . S
C136 C137 1.384 . S
C136 H158 0.930 . S
C137 C132 1.407 . S
C137 C136 1.384 . S
C137 H159 0.929 . S
C138 O148 1.241 . S
C138 O149 1.273 . S
C139 O150 1.251 . S
C139 O151 1.268 . S
O140 Nd120 2.500 . S
O140 C122 1.258 . S
O141 Nd120 2.492 . S
O141 C122 1.239 . S
O142 Nd120 2.487 . S
O142 C129 1.241 . S
O143 Nd120 2.682 . S
O143 Nd121 2.414 . S
O143 C129 1.273 . S
O144 Nd120 2.410 . S
O144 C130 1.251 . S
O145 Nd121 2.424 . S
O145 C130 1.268 . S
O146 Nd121 2.500 . S
O146 C131 1.258 . S
O147 Nd121 2.492 . S
O147 C131 1.239 . S
O148 Nd121 2.487 . S
O148 C138 1.241 . S
O149 Nd120 2.414 . S
O149 Nd121 2.682 . S
O149 C138 1.273 . S
O150 Nd121 2.410 . S
O150 C139 1.251 . S
O151 Nd120 2.424 . S
O151 C139 1.268 . S
H152 C124 0.930 . S
H153 C125 0.929 . S
H154 C127 0.930 . S
H155 C128 0.929 . S
H156 C133 0.930 . S
H157 C134 0.929 . S
H158 C136 0.930 . S
H159 C137 0.929 . S
Nd160 C162 2.836 . S
Nd160 O180 2.500 . S
Nd160 O181 2.492 . S
Nd160 O182 2.487 . S
Nd160 O183 2.682 1_655 S
Nd160 O184 2.410 1_655 S
Nd160 O189 2.414 1_655 S
Nd160 O191 2.424 . S
Nd161 C171 2.836 . S
Nd161 O183 2.414 . S
Nd161 O185 2.424 . S
Nd161 O186 2.500 . S
Nd161 O187 2.492 . S
Nd161 O188 2.487 . S
Nd161 O189 2.682 . S
Nd161 O190 2.410 . S
C162 Nd160 2.836 . S
C162 C163 1.498 . S
C162 O180 1.258 . S
C162 O181 1.239 . S
C163 C162 1.498 . S
C163 C164 1.366 . S
C163 C168 1.407 . S
C164 C163 1.366 . S
C164 C165 1.392 . S
C164 H192 0.930 . S
C165 C164 1.392 . S
C165 C166 1.398 . S
C165 H193 0.929 . S
C166 C165 1.398 . S
C166 C167 1.352 . S
C167 C166 1.352 . S
C167 C168 1.384 . S
C167 H194 0.930 . S
C168 C163 1.407 . S
C168 C167 1.384 . S
C168 H195 0.929 . S
C169 O182 1.241 1_455 S
C169 O183 1.273 . S
C170 O184 1.251 . S
C170 O185 1.268 . S
C171 Nd161 2.836 . S
C171 C172 1.498 1_556 S
C171 O186 1.258 . S
C171 O187 1.239 . S
C172 C171 1.498 1_554 S
C172 C173 1.366 . S
C172 C177 1.407 . S
C173 C172 1.366 . S
C173 C174 1.392 . S
C173 H196 0.930 . S
C174 C173 1.392 . S
C174 C175 1.398 . S
C174 H197 0.929 . S
C175 C174 1.398 . S
C175 C176 1.352 . S
C176 C175 1.352 . S
C176 C177 1.384 . S
C176 H198 0.930 . S
C177 C172 1.407 . S
C177 C176 1.384 . S
C177 H199 0.929 . S
C178 O188 1.241 . S
C178 O189 1.273 . S
C179 O190 1.251 1_655 S
C179 O191 1.268 . S
O180 Nd160 2.500 . S
O180 C162 1.258 . S
O181 Nd160 2.492 . S
O181 C162 1.239 . S
O182 Nd160 2.487 . S
O182 C169 1.241 1_655 S
O183 Nd160 2.682 1_455 S
O183 Nd161 2.414 . S
O183 C169 1.273 . S
O184 Nd160 2.410 1_455 S
O184 C170 1.251 . S
O185 Nd161 2.424 . S
O185 C170 1.268 . S
O186 Nd161 2.500 . S
O186 C171 1.258 . S
O187 Nd161 2.492 . S
O187 C171 1.239 . S
O188 Nd161 2.487 . S
O188 C178 1.241 . S
O189 Nd160 2.414 1_455 S
O189 Nd161 2.682 . S
O189 C178 1.273 . S
O190 Nd161 2.410 . S
O190 C179 1.251 1_455 S
O191 Nd160 2.424 . S
O191 C179 1.268 . S
H192 C164 0.930 . S
H193 C165 0.929 . S
H194 C167 0.930 . S
H195 C168 0.929 . S
H196 C173 0.930 . S
H197 C174 0.929 . S
H198 C176 0.930 . S
H199 C177 0.929 . S
Nd200 C202 2.836 . S
Nd200 O220 2.500 . S
Nd200 O221 2.492 . S
Nd200 O222 2.487 . S
Nd200 O223 2.682 . S
Nd200 O224 2.410 . S
Nd200 O229 2.414 . S
Nd200 O231 2.424 . S
Nd201 C211 2.836 . S
Nd201 O223 2.414 . S
Nd201 O225 2.424 . S
Nd201 O226 2.500 . S
Nd201 O227 2.492 . S
Nd201 O228 2.487 . S
Nd201 O229 2.682 . S
Nd201 O230 2.410 . S
C202 Nd200 2.836 . S
C202 C203 1.498 1_554 S
C202 O220 1.258 . S
C202 O221 1.239 . S
C203 C202 1.498 1_556 S
C203 C204 1.366 . S
C203 C208 1.407 . S
C204 C203 1.366 . S
C204 C205 1.392 . S
C204 H232 0.930 . S
C205 C204 1.392 . S
C205 C206 1.398 . S
C205 H233 0.929 . S
C206 C205 1.398 . S
C206 C207 1.352 . S
C207 C206 1.352 . S
C207 C208 1.384 . S
C207 H234 0.930 . S
C208 C203 1.407 . S
C208 C207 1.384 . S
C208 H235 0.929 . S
C209 O222 1.241 . S
C209 O223 1.273 . S
C210 O224 1.251 . S
C210 O225 1.268 . S
C211 Nd201 2.836 . S
C211 C212 1.498 . S
C211 O226 1.258 . S
C211 O227 1.239 . S
C212 C211 1.498 . S
C212 C213 1.366 . S
C212 C217 1.407 . S
C213 C212 1.366 . S
C213 C214 1.392 . S
C213 H236 0.930 . S
C214 C213 1.392 . S
C214 C215 1.398 . S
C214 H237 0.929 . S
C215 C214 1.398 . S
C215 C216 1.352 . S
C216 C215 1.352 . S
C216 C217 1.384 . S
C216 H238 0.930 . S
C217 C212 1.407 . S
C217 C216 1.384 . S
C217 H239 0.929 . S
C218 O228 1.241 . S
C218 O229 1.273 . S
C219 O230 1.251 . S
C219 O231 1.268 . S
O220 Nd200 2.500 . S
O220 C202 1.258 . S
O221 Nd200 2.492 . S
O221 C202 1.239 . S
O222 Nd200 2.487 . S
O222 C209 1.241 . S
O223 Nd200 2.682 . S
O223 Nd201 2.414 . S
O223 C209 1.273 . S
O224 Nd200 2.410 . S
O224 C210 1.251 . S
O225 Nd201 2.424 . S
O225 C210 1.268 . S
O226 Nd201 2.500 . S
O226 C211 1.258 . S
O227 Nd201 2.492 . S
O227 C211 1.239 . S
O228 Nd201 2.487 . S
O228 C218 1.241 . S
O229 Nd200 2.414 . S
O229 Nd201 2.682 . S
O229 C218 1.273 . S
O230 Nd201 2.410 . S
O230 C219 1.251 . S
O231 Nd200 2.424 . S
O231 C219 1.268 . S
H232 C204 0.930 . S
H233 C205 0.929 . S
H234 C207 0.930 . S
H235 C208 0.929 . S
H236 C213 0.930 . S
H237 C214 0.929 . S
H238 C216 0.930 . S
H239 C217 0.929 . S
Nd240 C242 2.836 . S
Nd240 O260 2.500 . S
Nd240 O261 2.492 . S
Nd240 O262 2.487 . S
Nd240 O263 2.682 . S
Nd240 O264 2.410 . S
Nd240 O269 2.414 . S
Nd240 O271 2.424 . S
Nd241 C251 2.836 . S
Nd241 O263 2.414 . S
Nd241 O265 2.424 . S
Nd241 O266 2.500 . S
Nd241 O267 2.492 . S
Nd241 O268 2.487 . S
Nd241 O269 2.682 . S
Nd241 O270 2.410 . S
C242 Nd240 2.836 . S
C242 C243 1.498 . S
C242 O260 1.258 . S
C242 O261 1.239 . S
C243 C242 1.498 . S
C243 C244 1.366 . S
C243 C248 1.407 . S
C244 C243 1.366 . S
C244 C245 1.392 . S
C244 H272 0.930 . S
C245 C244 1.392 . S
C245 C246 1.398 . S
C245 H273 0.929 . S
C246 C245 1.398 . S
C246 C247 1.352 . S
C247 C246 1.352 . S
C247 C248 1.384 . S
C247 H274 0.930 . S
C248 C243 1.407 . S
C248 C247 1.384 . S
C248 H275 0.929 . S
C249 O262 1.241 . S
C249 O263 1.273 . S
C250 O264 1.251 . S
C250 O265 1.268 . S
C251 Nd241 2.836 . S
C251 C252 1.498 . S
C251 O266 1.258 . S
C251 O267 1.239 . S
C252 C251 1.498 . S
C252 C253 1.366 . S
C252 C257 1.407 . S
C253 C252 1.366 . S
C253 C254 1.392 . S
C253 H276 0.930 . S
C254 C253 1.392 . S
C254 C255 1.398 . S
C254 H277 0.929 . S
C255 C254 1.398 . S
C255 C256 1.352 . S
C256 C255 1.352 . S
C256 C257 1.384 . S
C256 H278 0.930 . S
C257 C252 1.407 . S
C257 C256 1.384 . S
C257 H279 0.929 . S
C258 O268 1.241 . S
C258 O269 1.273 . S
C259 O270 1.251 . S
C259 O271 1.268 . S
O260 Nd240 2.500 . S
O260 C242 1.258 . S
O261 Nd240 2.492 . S
O261 C242 1.239 . S
O262 Nd240 2.487 . S
O262 C249 1.241 . S
O263 Nd240 2.682 . S
O263 Nd241 2.414 . S
O263 C249 1.273 . S
O264 Nd240 2.410 . S
O264 C250 1.251 . S
O265 Nd241 2.424 . S
O265 C250 1.268 . S
O266 Nd241 2.500 . S
O266 C251 1.258 . S
O267 Nd241 2.492 . S
O267 C251 1.239 . S
O268 Nd241 2.487 . S
O268 C258 1.241 . S
O269 Nd240 2.414 . S
O269 Nd241 2.682 . S
O269 C258 1.273 . S
O270 Nd241 2.410 . S
O270 C259 1.251 . S
O271 Nd240 2.424 . S
O271 C259 1.268 . S
H272 C244 0.930 . S
H273 C245 0.929 . S
H274 C247 0.930 . S
H275 C248 0.929 . S
H276 C253 0.930 . S
H277 C254 0.929 . S
H278 C256 0.930 . S
H279 C257 0.929 . S
Nd280 C282 2.836 . S
Nd280 O300 2.500 . S
Nd280 O301 2.492 . S
Nd280 O302 2.487 . S
Nd280 O303 2.682 . S
Nd280 O304 2.410 . S
Nd280 O309 2.414 . S
Nd280 O311 2.424 . S
Nd281 C291 2.836 . S
Nd281 O303 2.414 . S
Nd281 O305 2.424 . S
Nd281 O306 2.500 . S
Nd281 O307 2.492 . S
Nd281 O308 2.487 . S
Nd281 O309 2.682 . S
Nd281 O310 2.410 . S
C282 Nd280 2.836 . S
C282 C283 1.498 . S
C282 O300 1.258 . S
C282 O301 1.239 . S
C283 C282 1.498 . S
C283 C284 1.366 . S
C283 C288 1.407 . S
C284 C283 1.366 . S
C284 C285 1.392 . S
C284 H312 0.930 . S
C285 C284 1.392 . S
C285 C286 1.398 . S
C285 H313 0.929 . S
C286 C285 1.398 . S
C286 C287 1.352 . S
C287 C286 1.352 . S
C287 C288 1.384 . S
C287 H314 0.930 . S
C288 C283 1.407 . S
C288 C287 1.384 . S
C288 H315 0.929 . S
C289 O302 1.241 . S
C289 O303 1.273 . S
C290 O304 1.251 . S
C290 O305 1.268 . S
C291 Nd281 2.836 . S
C291 C292 1.498 . S
C291 O306 1.258 . S
C291 O307 1.239 . S
C292 C291 1.498 . S
C292 C293 1.366 . S
C292 C297 1.407 . S
C293 C292 1.366 . S
C293 C294 1.392 . S
C293 H316 0.930 . S
C294 C293 1.392 . S
C294 C295 1.398 . S
C294 H317 0.929 . S
C295 C294 1.398 . S
C295 C296 1.352 . S
C296 C295 1.352 . S
C296 C297 1.384 . S
C296 H318 0.930 . S
C297 C292 1.407 . S
C297 C296 1.384 . S
C297 H319 0.929 . S
C298 O308 1.241 . S
C298 O309 1.273 . S
C299 O310 1.251 . S
C299 O311 1.268 . S
O300 Nd280 2.500 . S
O300 C282 1.258 . S
O301 Nd280 2.492 . S
O301 C282 1.239 . S
O302 Nd280 2.487 . S
O302 C289 1.241 . S
O303 Nd280 2.682 . S
O303 Nd281 2.414 . S
O303 C289 1.273 . S
O304 Nd280 2.410 . S
O304 C290 1.251 . S
O305 Nd281 2.424 . S
O305 C290 1.268 . S
O306 Nd281 2.500 . S
O306 C291 1.258 . S
O307 Nd281 2.492 . S
O307 C291 1.239 . S
O308 Nd281 2.487 . S
O308 C298 1.241 . S
O309 Nd280 2.414 . S
O309 Nd281 2.682 . S
O309 C298 1.273 . S
O310 Nd281 2.410 . S
O310 C299 1.251 . S
O311 Nd280 2.424 . S
O311 C299 1.268 . S
H312 C284 0.930 . S
H313 C285 0.929 . S
H314 C287 0.930 . S
H315 C288 0.929 . S
H316 C293 0.930 . S
H317 C294 0.929 . S
H318 C296 0.930 . S
H319 C297 0.929 . S
Nd320 C322 2.836 . S
Nd320 O340 2.500 . S
Nd320 O341 2.492 . S
Nd320 O342 2.487 . S
Nd320 O343 2.682 . S
Nd320 O344 2.410 . S
Nd320 O349 2.414 . S
Nd320 O351 2.424 . S
Nd321 C331 2.836 . S
Nd321 O343 2.414 . S
Nd321 O345 2.424 . S
Nd321 O346 2.500 . S
Nd321 O347 2.492 . S
Nd321 O348 2.487 . S
Nd321 O349 2.682 . S
Nd321 O350 2.410 . S
C322 Nd320 2.836 . S
C322 C323 1.498 . S
C322 O340 1.258 . S
C322 O341 1.239 . S
C323 C322 1.498 . S
C323 C324 1.366 . S
C323 C328 1.407 . S
C324 C323 1.366 . S
C324 C325 1.392 . S
C324 H352 0.930 . S
C325 C324 1.392 . S
C325 C326 1.398 . S
C325 H353 0.929 . S
C326 C325 1.398 . S
C326 C327 1.352 . S
C327 C326 1.352 . S
C327 C328 1.384 . S
C327 H354 0.930 . S
C328 C323 1.407 . S
C328 C327 1.384 . S
C328 H355 0.929 . S
C329 O342 1.241 . S
C329 O343 1.273 . S
C330 O344 1.251 . S
C330 O345 1.268 . S
C331 Nd321 2.836 . S
C331 C332 1.498 . S
C331 O346 1.258 . S
C331 O347 1.239 . S
C332 C331 1.498 . S
C332 C333 1.366 . S
C332 C337 1.407 . S
C333 C332 1.366 . S
C333 C334 1.392 . S
C333 H356 0.930 . S
C334 C333 1.392 . S
C334 C335 1.398 . S
C334 H357 0.929 . S
C335 C334 1.398 . S
C335 C336 1.352 . S
C336 C335 1.352 . S
C336 C337 1.384 . S
C336 H358 0.930 . S
C337 C332 1.407 . S
C337 C336 1.384 . S
C337 H359 0.929 . S
C338 O348 1.241 . S
C338 O349 1.273 . S
C339 O350 1.251 . S
C339 O351 1.268 . S
O340 Nd320 2.500 . S
O340 C322 1.258 . S
O341 Nd320 2.492 . S
O341 C322 1.239 . S
O342 Nd320 2.487 . S
O342 C329 1.241 . S
O343 Nd320 2.682 . S
O343 Nd321 2.414 . S
O343 C329 1.273 . S
O344 Nd320 2.410 . S
O344 C330 1.251 . S
O345 Nd321 2.424 . S
O345 C330 1.268 . S
O346 Nd321 2.500 . S
O346 C331 1.258 . S
O347 Nd321 2.492 . S
O347 C331 1.239 . S
O348 Nd321 2.487 . S
O348 C338 1.241 . S
O349 Nd320 2.414 . S
O349 Nd321 2.682 . S
O349 C338 1.273 . S
O350 Nd321 2.410 . S
O350 C339 1.251 . S
O351 Nd320 2.424 . S
O351 C339 1.268 . S
H352 C324 0.930 . S
H353 C325 0.929 . S
H354 C327 0.930 . S
H355 C328 0.929 . S
H356 C333 0.930 . S
H357 C334 0.929 . S
H358 C336 0.930 . S
H359 C337 0.929 . S
Nd360 C362 2.836 . S
Nd360 O380 2.500 . S
Nd360 O381 2.492 . S
Nd360 O382 2.487 . S
Nd360 O383 2.682 . S
Nd360 O384 2.410 . S
Nd360 O389 2.414 . S
Nd360 O391 2.424 . S
Nd361 C371 2.836 . S
Nd361 O383 2.414 . S
Nd361 O385 2.424 . S
Nd361 O386 2.500 . S
Nd361 O387 2.492 . S
Nd361 O388 2.487 . S
Nd361 O389 2.682 . S
Nd361 O390 2.410 . S
C362 Nd360 2.836 . S
C362 C363 1.498 1_554 S
C362 O380 1.258 . S
C362 O381 1.239 . S
C363 C362 1.498 1_556 S
C363 C364 1.366 . S
C363 C368 1.407 . S
C364 C363 1.366 . S
C364 C365 1.392 . S
C364 H392 0.930 . S
C365 C364 1.392 . S
C365 C366 1.398 . S
C365 H393 0.929 . S
C366 C365 1.398 . S
C366 C367 1.352 . S
C367 C366 1.352 . S
C367 C368 1.384 . S
C367 H394 0.930 . S
C368 C363 1.407 . S
C368 C367 1.384 . S
C368 H395 0.929 . S
C369 O382 1.241 . S
C369 O383 1.273 . S
C370 O384 1.251 . S
C370 O385 1.268 . S
C371 Nd361 2.836 . S
C371 C372 1.498 . S
C371 O386 1.258 . S
C371 O387 1.239 . S
C372 C371 1.498 . S
C372 C373 1.366 . S
C372 C377 1.407 . S
C373 C372 1.366 . S
C373 C374 1.392 . S
C373 H396 0.930 . S
C374 C373 1.392 . S
C374 C375 1.398 . S
C374 H397 0.929 . S
C375 C374 1.398 . S
C375 C376 1.352 . S
C376 C375 1.352 . S
C376 C377 1.384 . S
C376 H398 0.930 . S
C377 C372 1.407 . S
C377 C376 1.384 . S
C377 H399 0.929 . S
C378 O388 1.241 . S
C378 O389 1.273 . S
C379 O390 1.251 . S
C379 O391 1.268 . S
O380 Nd360 2.500 . S
O380 C362 1.258 . S
O381 Nd360 2.492 . S
O381 C362 1.239 . S
O382 Nd360 2.487 . S
O382 C369 1.241 . S
O383 Nd360 2.682 . S
O383 Nd361 2.414 . S
O383 C369 1.273 . S
O384 Nd360 2.410 . S
O384 C370 1.251 . S
O385 Nd361 2.424 . S
O385 C370 1.268 . S
O386 Nd361 2.500 . S
O386 C371 1.258 . S
O387 Nd361 2.492 . S
O387 C371 1.239 . S
O388 Nd361 2.487 . S
O388 C378 1.241 . S
O389 Nd360 2.414 . S
O389 Nd361 2.682 . S
O389 C378 1.273 . S
O390 Nd361 2.410 . S
O390 C379 1.251 . S
O391 Nd360 2.424 . S
O391 C379 1.268 . S
H392 C364 0.930 . S
H393 C365 0.929 . S
H394 C367 0.930 . S
H395 C368 0.929 . S
H396 C373 0.930 . S
H397 C374 0.929 . S
H398 C376 0.930 . S
H399 C377 0.929 . S
Nd400 C402 2.836 . S
Nd400 O420 2.500 . S
Nd400 O421 2.492 . S
Nd400 O422 2.487 . S
Nd400 O423 2.682 . S
Nd400 O424 2.410 . S
Nd400 O429 2.414 . S
Nd400 O431 2.424 . S
Nd401 C411 2.836 . S
Nd401 O423 2.414 . S
Nd401 O425 2.424 . S
Nd401 O426 2.500 . S
Nd401 O427 2.492 . S
Nd401 O428 2.487 . S
Nd401 O429 2.682 . S
Nd401 O430 2.410 . S
C402 Nd400 2.836 . S
C402 C403 1.498 . S
C402 O420 1.258 . S
C402 O421 1.239 . S
C403 C402 1.498 . S
C403 C404 1.366 . S
C403 C408 1.407 . S
C404 C403 1.366 . S
C404 C405 1.392 . S
C404 H432 0.930 . S
C405 C404 1.392 . S
C405 C406 1.398 . S
C405 H433 0.929 . S
C406 C405 1.398 . S
C406 C407 1.352 . S
C407 C406 1.352 . S
C407 C408 1.384 . S
C407 H434 0.930 . S
C408 C403 1.407 . S
C408 C407 1.384 . S
C408 H435 0.929 . S
C409 O422 1.241 . S
C409 O423 1.273 . S
C410 O424 1.251 . S
C410 O425 1.268 . S
C411 Nd401 2.836 . S
C411 C412 1.498 1_556 S
C411 O426 1.258 . S
C411 O427 1.239 . S
C412 C411 1.498 1_554 S
C412 C413 1.366 . S
C412 C417 1.407 . S
C413 C412 1.366 . S
C413 C414 1.392 . S
C413 H436 0.930 . S
C414 C413 1.392 . S
C414 C415 1.398 . S
C414 H437 0.929 . S
C415 C414 1.398 . S
C415 C416 1.352 . S
C416 C415 1.352 . S
C416 C417 1.384 . S
C416 H438 0.930 . S
C417 C412 1.407 . S
C417 C416 1.384 . S
C417 H439 0.929 . S
C418 O428 1.241 . S
C418 O429 1.273 . S
C419 O430 1.251 . S
C419 O431 1.268 . S
O420 Nd400 2.500 . S
O420 C402 1.258 . S
O421 Nd400 2.492 . S
O421 C402 1.239 . S
O422 Nd400 2.487 . S
O422 C409 1.241 . S
O423 Nd400 2.682 . S
O423 Nd401 2.414 . S
O423 C409 1.273 . S
O424 Nd400 2.410 . S
O424 C410 1.251 . S
O425 Nd401 2.424 . S
O425 C410 1.268 . S
O426 Nd401 2.500 . S
O426 C411 1.258 . S
O427 Nd401 2.492 . S
O427 C411 1.239 . S
O428 Nd401 2.487 . S
O428 C418 1.241 . S
O429 Nd400 2.414 . S
O429 Nd401 2.682 . S
O429 C418 1.273 . S
O430 Nd401 2.410 . S
O430 C419 1.251 . S
O431 Nd400 2.424 . S
O431 C419 1.268 . S
H432 C404 0.930 . S
H433 C405 0.929 . S
H434 C407 0.930 . S
H435 C408 0.929 . S
H436 C413 0.930 . S
H437 C414 0.929 . S
H438 C416 0.930 . S
H439 C417 0.929 . S
Nd440 C442 2.836 . S
Nd440 O460 2.500 . S
Nd440 O461 2.492 . S
Nd440 O462 2.487 . S
Nd440 O463 2.682 . S
Nd440 O464 2.410 . S
Nd440 O469 2.414 . S
Nd440 O471 2.424 . S
Nd441 C451 2.836 . S
Nd441 O463 2.414 . S
Nd441 O465 2.424 . S
Nd441 O466 2.500 . S
Nd441 O467 2.492 . S
Nd441 O468 2.487 . S
Nd441 O469 2.682 . S
Nd441 O470 2.410 . S
C442 Nd440 2.836 . S
C442 C443 1.498 . S
C442 O460 1.258 . S
C442 O461 1.239 . S
C443 C442 1.498 . S
C443 C444 1.366 . S
C443 C448 1.407 . S
C444 C443 1.366 . S
C444 C445 1.392 . S
C444 H472 0.930 . S
C445 C444 1.392 . S
C445 C446 1.398 . S
C445 H473 0.929 . S
C446 C445 1.398 . S
C446 C447 1.352 . S
C447 C446 1.352 . S
C447 C448 1.384 . S
C447 H474 0.930 . S
C448 C443 1.407 . S
C448 C447 1.384 . S
C448 H475 0.929 . S
C449 O462 1.241 . S
C449 O463 1.273 . S
C450 O464 1.251 . S
C450 O465 1.268 . S
C451 Nd441 2.836 . S
C451 C452 1.498 . S
C451 O466 1.258 . S
C451 O467 1.239 . S
C452 C451 1.498 . S
C452 C453 1.366 . S
C452 C457 1.407 . S
C453 C452 1.366 . S
C453 C454 1.392 . S
C453 H476 0.930 . S
C454 C453 1.392 . S
C454 C455 1.398 . S
C454 H477 0.929 . S
C455 C454 1.398 . S
C455 C456 1.352 . S
C456 C455 1.352 . S
C456 C457 1.384 . S
C456 H478 0.930 . S
C457 C452 1.407 . S
C457 C456 1.384 . S
C457 H479 0.929 . S
C458 O468 1.241 . S
C458 O469 1.273 . S
C459 O470 1.251 . S
C459 O471 1.268 . S
O460 Nd440 2.500 . S
O460 C442 1.258 . S
O461 Nd440 2.492 . S
O461 C442 1.239 . S
O462 Nd440 2.487 . S
O462 C449 1.241 . S
O463 Nd440 2.682 . S
O463 Nd441 2.414 . S
O463 C449 1.273 . S
O464 Nd440 2.410 . S
O464 C450 1.251 . S
O465 Nd441 2.424 . S
O465 C450 1.268 . S
O466 Nd441 2.500 . S
O466 C451 1.258 . S
O467 Nd441 2.492 . S
O467 C451 1.239 . S
O468 Nd441 2.487 . S
O468 C458 1.241 . S
O469 Nd440 2.414 . S
O469 Nd441 2.682 . S
O469 C458 1.273 . S
O470 Nd441 2.410 . S
O470 C459 1.251 . S
O471 Nd440 2.424 . S
O471 C459 1.268 . S
H472 C444 0.930 . S
H473 C445 0.929 . S
H474 C447 0.930 . S
H475 C448 0.929 . S
H476 C453 0.930 . S
H477 C454 0.929 . S
H478 C456 0.930 . S
H479 C457 0.929 . S
Nd480 C482 2.836 . S
Nd480 O500 2.500 . S
Nd480 O501 2.492 . S
Nd480 O502 2.487 . S
Nd480 O503 2.682 . S
Nd480 O504 2.410 . S
Nd480 O509 2.414 . S
Nd480 O511 2.424 . S
Nd481 C491 2.836 . S
Nd481 O503 2.414 . S
Nd481 O505 2.424 . S
Nd481 O506 2.500 . S
Nd481 O507 2.492 . S
Nd481 O508 2.487 . S
Nd481 O509 2.682 . S
Nd481 O510 2.410 . S
C482 Nd480 2.836 . S
C482 C483 1.498 . S
C482 O500 1.258 . S
C482 O501 1.239 . S
C483 C482 1.498 . S
C483 C484 1.366 . S
C483 C488 1.407 . S
C484 C483 1.366 . S
C484 C485 1.392 . S
C484 H512 0.930 . S
C485 C484 1.392 . S
C485 C486 1.398 . S
C485 H513 0.929 . S
C486 C485 1.398 . S
C486 C487 1.352 . S
C487 C486 1.352 . S
C487 C488 1.384 . S
C487 H514 0.930 . S
C488 C483 1.407 . S
C488 C487 1.384 . S
C488 H515 0.929 . S
C489 O502 1.241 . S
C489 O503 1.273 . S
C490 O504 1.251 . S
C490 O505 1.268 . S
C491 Nd481 2.836 . S
C491 C492 1.498 . S
C491 O506 1.258 . S
C491 O507 1.239 . S
C492 C491 1.498 . S
C492 C493 1.366 . S
C492 C497 1.407 . S
C493 C492 1.366 . S
C493 C494 1.392 . S
C493 H516 0.930 . S
C494 C493 1.392 . S
C494 C495 1.398 . S
C494 H517 0.929 . S
C495 C494 1.398 . S
C495 C496 1.352 . S
C496 C495 1.352 . S
C496 C497 1.384 . S
C496 H518 0.930 . S
C497 C492 1.407 . S
C497 C496 1.384 . S
C497 H519 0.929 . S
C498 O508 1.241 . S
C498 O509 1.273 . S
C499 O510 1.251 . S
C499 O511 1.268 . S
O500 Nd480 2.500 . S
O500 C482 1.258 . S
O501 Nd480 2.492 . S
O501 C482 1.239 . S
O502 Nd480 2.487 . S
O502 C489 1.241 . S
O503 Nd480 2.682 . S
O503 Nd481 2.414 . S
O503 C489 1.273 . S
O504 Nd480 2.410 . S
O504 C490 1.251 . S
O505 Nd481 2.424 . S
O505 C490 1.268 . S
O506 Nd481 2.500 . S
O506 C491 1.258 . S
O507 Nd481 2.492 . S
O507 C491 1.239 . S
O508 Nd481 2.487 . S
O508 C498 1.241 . S
O509 Nd480 2.414 . S
O509 Nd481 2.682 . S
O509 C498 1.273 . S
O510 Nd481 2.410 . S
O510 C499 1.251 . S
O511 Nd480 2.424 . S
O511 C499 1.268 . S
H512 C484 0.930 . S
H513 C485 0.929 . S
H514 C487 0.930 . S
H515 C488 0.929 . S
H516 C493 0.930 . S
H517 C494 0.929 . S
H518 C496 0.930 . S
H519 C497 0.929 . S
Nd520 C522 2.836 . S
Nd520 O540 2.500 . S
Nd520 O541 2.492 . S
Nd520 O542 2.487 . S
Nd520 O543 2.682 . S
Nd520 O544 2.410 . S
Nd520 O549 2.414 . S
Nd520 O551 2.424 . S
Nd521 C531 2.836 . S
Nd521 O543 2.414 1_655 S
Nd521 O545 2.424 . S
Nd521 O546 2.500 . S
Nd521 O547 2.492 . S
Nd521 O548 2.487 . S
Nd521 O549 2.682 1_655 S
Nd521 O550 2.410 1_655 S
C522 Nd520 2.836 . S
C522 C523 1.498 1_554 S
C522 O540 1.258 . S
C522 O541 1.239 . S
C523 C522 1.498 1_556 S
C523 C524 1.366 . S
C523 C528 1.407 . S
C524 C523 1.366 . S
C524 C525 1.392 . S
C524 H552 0.930 . S
C525 C524 1.392 . S
C525 C526 1.398 . S
C525 H553 0.929 . S
C526 C525 1.398 . S
C526 C527 1.352 . S
C527 C526 1.352 . S
C527 C528 1.384 . S
C527 H554 0.930 . S
C528 C523 1.407 . S
C528 C527 1.384 . S
C528 H555 0.929 . S
C529 O542 1.241 . S
C529 O543 1.273 . S
C530 O544 1.251 1_655 S
C530 O545 1.268 . S
C531 Nd521 2.836 . S
C531 C532 1.498 . S
C531 O546 1.258 . S
C531 O547 1.239 . S
C532 C531 1.498 . S
C532 C533 1.366 . S
C532 C537 1.407 . S
C533 C532 1.366 . S
C533 C534 1.392 . S
C533 H556 0.930 . S
C534 C533 1.392 . S
C534 C535 1.398 . S
C534 H557 0.929 . S
C535 C534 1.398 . S
C535 C536 1.352 . S
C536 C535 1.352 . S
C536 C537 1.384 . S
C536 H558 0.930 . S
C537 C532 1.407 . S
C537 C536 1.384 . S
C537 H559 0.929 . S
C538 O548 1.241 1_455 S
C538 O549 1.273 . S
C539 O550 1.251 . S
C539 O551 1.268 . S
O540 Nd520 2.500 . S
O540 C522 1.258 . S
O541 Nd520 2.492 . S
O541 C522 1.239 . S
O542 Nd520 2.487 . S
O542 C529 1.241 . S
O543 Nd520 2.682 . S
O543 Nd521 2.414 1_455 S
O543 C529 1.273 . S
O544 Nd520 2.410 . S
O544 C530 1.251 1_455 S
O545 Nd521 2.424 . S
O545 C530 1.268 . S
O546 Nd521 2.500 . S
O546 C531 1.258 . S
O547 Nd521 2.492 . S
O547 C531 1.239 . S
O548 Nd521 2.487 . S
O548 C538 1.241 1_655 S
O549 Nd520 2.414 . S
O549 Nd521 2.682 1_455 S
O549 C538 1.273 . S
O550 Nd521 2.410 1_455 S
O550 C539 1.251 . S
O551 Nd520 2.424 . S
O551 C539 1.268 . S
H552 C524 0.930 . S
H553 C525 0.929 . S
H554 C527 0.930 . S
H555 C528 0.929 . S
H556 C533 0.930 . S
H557 C534 0.929 . S
H558 C536 0.930 . S
H559 C537 0.929 . S
Nd560 C562 2.836 . S
Nd560 O580 2.500 . S
Nd560 O581 2.492 . S
Nd560 O582 2.487 . S
Nd560 O583 2.682 . S
Nd560 O584 2.410 . S
Nd560 O589 2.414 . S
Nd560 O591 2.424 . S
Nd561 C571 2.836 . S
Nd561 O583 2.414 . S
Nd561 O585 2.424 . S
Nd561 O586 2.500 . S
Nd561 O587 2.492 . S
Nd561 O588 2.487 . S
Nd561 O589 2.682 . S
Nd561 O590 2.410 . S
C562 Nd560 2.836 . S
C562 C563 1.498 . S
C562 O580 1.258 . S
C562 O581 1.239 . S
C563 C562 1.498 . S
C563 C564 1.366 . S
C563 C568 1.407 . S
C564 C563 1.366 . S
C564 C565 1.392 . S
C564 H592 0.930 . S
C565 C564 1.392 . S
C565 C566 1.398 . S
C565 H593 0.929 . S
C566 C565 1.398 . S
C566 C567 1.352 . S
C567 C566 1.352 . S
C567 C568 1.384 . S
C567 H594 0.930 . S
C568 C563 1.407 . S
C568 C567 1.384 . S
C568 H595 0.929 . S
C569 O582 1.241 . S
C569 O583 1.273 . S
C570 O584 1.251 . S
C570 O585 1.268 . S
C571 Nd561 2.836 . S
C571 C572 1.498 . S
C571 O586 1.258 . S
C571 O587 1.239 . S
C572 C571 1.498 . S
C572 C573 1.366 . S
C572 C577 1.407 . S
C573 C572 1.366 . S
C573 C574 1.392 . S
C573 H596 0.930 . S
C574 C573 1.392 . S
C574 C575 1.398 . S
C574 H597 0.929 . S
C575 C574 1.398 . S
C575 C576 1.352 . S
C576 C575 1.352 . S
C576 C577 1.384 . S
C576 H598 0.930 . S
C577 C572 1.407 . S
C577 C576 1.384 . S
C577 H599 0.929 . S
C578 O588 1.241 . S
C578 O589 1.273 . S
C579 O590 1.251 . S
C579 O591 1.268 . S
O580 Nd560 2.500 . S
O580 C562 1.258 . S
O581 Nd560 2.492 . S
O581 C562 1.239 . S
O582 Nd560 2.487 . S
O582 C569 1.241 . S
O583 Nd560 2.682 . S
O583 Nd561 2.414 . S
O583 C569 1.273 . S
O584 Nd560 2.410 . S
O584 C570 1.251 . S
O585 Nd561 2.424 . S
O585 C570 1.268 . S
O586 Nd561 2.500 . S
O586 C571 1.258 . S
O587 Nd561 2.492 . S
O587 C571 1.239 . S
O588 Nd561 2.487 . S
O588 C578 1.241 . S
O589 Nd560 2.414 . S
O589 Nd561 2.682 . S
O589 C578 1.273 . S
O590 Nd561 2.410 . S
O590 C579 1.251 . S
O591 Nd560 2.424 . S
O591 C579 1.268 . S
H592 C564 0.930 . S
H593 C565 0.929 . S
H594 C567 0.930 . S
H595 C568 0.929 . S
H596 C573 0.930 . S
H597 C574 0.929 . S
H598 C576 0.930 . S
H599 C577 0.929 . S
Nd600 C602 2.836 . S
Nd600 O620 2.500 . S
Nd600 O621 2.492 . S
Nd600 O622 2.487 . S
Nd600 O623 2.682 1_455 S
Nd600 O624 2.410 1_455 S
Nd600 O629 2.414 . S
Nd600 O631 2.424 . S
Nd601 C611 2.836 . S
Nd601 O623 2.414 . S
Nd601 O625 2.424 . S
Nd601 O626 2.500 . S
Nd601 O627 2.492 . S
Nd601 O628 2.487 . S
Nd601 O629 2.682 1_655 S
Nd601 O630 2.410 1_655 S
C602 Nd600 2.836 . S
C602 C603 1.498 . S
C602 O620 1.258 . S
C602 O621 1.239 . S
C603 C602 1.498 . S
C603 C604 1.366 . S
C603 C608 1.407 . S
C604 C603 1.366 . S
C604 C605 1.392 . S
C604 H632 0.930 . S
C605 C604 1.392 . S
C605 C606 1.398 . S
C605 H633 0.929 . S
C606 C605 1.398 . S
C606 C607 1.352 . S
C607 C606 1.352 . S
C607 C608 1.384 . S
C607 H634 0.930 . S
C608 C603 1.407 . S
C608 C607 1.384 . S
C608 H635 0.929 . S
C609 O622 1.241 . S
C609 O623 1.273 1_455 S
C610 O624 1.251 . S
C610 O625 1.268 . S
C611 Nd601 2.836 . S
C611 C612 1.498 1_556 S
C611 O626 1.258 . S
C611 O627 1.239 . S
C612 C611 1.498 1_554 S
C612 C613 1.366 . S
C612 C617 1.407 . S
C613 C612 1.366 . S
C613 C614 1.392 . S
C613 H636 0.930 . S
C614 C613 1.392 . S
C614 C615 1.398 . S
C614 H637 0.929 . S
C615 C614 1.398 . S
C615 C616 1.352 . S
C616 C615 1.352 . S
C616 C617 1.384 . S
C616 H638 0.930 . S
C617 C612 1.407 . S
C617 C616 1.384 . S
C617 H639 0.929 . S
C618 O628 1.241 . S
C618 O629 1.273 1_655 S
C619 O630 1.251 . S
C619 O631 1.268 . S
O620 Nd600 2.500 . S
O620 C602 1.258 . S
O621 Nd600 2.492 . S
O621 C602 1.239 . S
O622 Nd600 2.487 . S
O622 C609 1.241 . S
O623 Nd600 2.682 1_655 S
O623 Nd601 2.414 . S
O623 C609 1.273 1_655 S
O624 Nd600 2.410 1_655 S
O624 C610 1.251 . S
O625 Nd601 2.424 . S
O625 C610 1.268 . S
O626 Nd601 2.500 . S
O626 C611 1.258 . S
O627 Nd601 2.492 . S
O627 C611 1.239 . S
O628 Nd601 2.487 . S
O628 C618 1.241 . S
O629 Nd600 2.414 . S
O629 Nd601 2.682 1_455 S
O629 C618 1.273 1_455 S
O630 Nd601 2.410 1_455 S
O630 C619 1.251 . S
O631 Nd600 2.424 . S
O631 C619 1.268 . S
H632 C604 0.930 . S
H633 C605 0.929 . S
H634 C607 0.930 . S
H635 C608 0.929 . S
H636 C613 0.930 . S
H637 C614 0.929 . S
H638 C616 0.930 . S
H639 C617 0.929 . S
H640 C646 0.930 . S
H641 C649 0.930 . S
H642 C650 0.930 . S
H643 C651 0.930 . S
H644 C654 0.930 . S
H645 C655 0.930 . S
C646 H640 0.930 . S
C646 C647 1.355 . S
C646 C648 1.415 1_554 S
C647 C646 1.355 . S
C647 C649 1.419 1_554 S
C648 C646 1.415 1_556 S
C648 C653 1.425 . S
C648 C655 1.409 . S
C649 H641 0.930 . S
C649 C647 1.419 1_556 S
C649 C650 1.362 . S
C650 H642 0.930 . S
C650 C649 1.362 . S
C650 C653 1.409 . S
C651 H643 0.930 . S
C651 C652 1.355 . S
C651 C653 1.415 . S
C652 C651 1.355 . S
C652 C654 1.419 . S
C653 C648 1.425 . S
C653 C650 1.409 . S
C653 C651 1.415 . S
C654 H644 0.930 . S
C654 C652 1.419 . S
C654 C655 1.362 . S
C655 H645 0.930 . S
C655 C648 1.409 . S
C655 C654 1.362 . S
H656 C662 0.930 . S
H657 C665 0.930 . S
H658 C666 0.930 . S
H659 C667 0.930 . S
H660 C670 0.930 . S
H661 C671 0.930 . S
C662 H656 0.930 . S
C662 C663 1.355 . S
C662 C664 1.415 . S
C663 C662 1.355 . S
C663 C665 1.419 . S
C664 C662 1.415 . S
C664 C669 1.425 . S
C664 C671 1.409 . S
C665 H657 0.930 . S
C665 C663 1.419 . S
C665 C666 1.362 . S
C666 H658 0.930 . S
C666 C665 1.362 . S
C666 C669 1.409 . S
C667 H659 0.930 . S
C667 C668 1.355 . S
C667 C669 1.415 . S
C668 C667 1.355 . S
C668 C670 1.419 . S
C669 C664 1.425 . S
C669 C666 1.409 . S
C669 C667 1.415 . S
C670 H660 0.930 . S
C670 C668 1.419 . S
C670 C671 1.362 . S
C671 H661 0.930 . S
C671 C664 1.409 . S
C671 C670 1.362 . S
H672 C678 0.930 . S
H673 C681 0.930 . S
H674 C682 0.930 . S
H675 C683 0.930 . S
H676 C686 0.930 . S
H677 C687 0.930 . S
C678 H672 0.930 . S
C678 C679 1.355 . S
C678 C680 1.415 . S
C679 C678 1.355 . S
C679 C681 1.419 . S
C680 C678 1.415 . S
C680 C685 1.425 . S
C680 C687 1.409 . S
C681 H673 0.930 . S
C681 C679 1.419 . S
C681 C682 1.362 . S
C682 H674 0.930 . S
C682 C681 1.362 . S
C682 C685 1.409 . S
C683 H675 0.930 . S
C683 C684 1.355 . S
C683 C685 1.415 . S
C684 C683 1.355 . S
C684 C686 1.419 . S
C685 C680 1.425 . S
C685 C682 1.409 . S
C685 C683 1.415 . S
C686 H676 0.930 . S
C686 C684 1.419 . S
C686 C687 1.362 . S
C687 H677 0.930 . S
C687 C680 1.409 . S
C687 C686 1.362 . S
H688 C694 0.930 . S
H689 C697 0.930 . S
H690 C698 0.930 . S
H691 C699 0.930 . S
H692 C702 0.930 . S
H693 C703 0.930 . S
C694 H688 0.930 . S
C694 C695 1.355 . S
C694 C696 1.415 . S
C695 C694 1.355 . S
C695 C697 1.419 . S
C696 C694 1.415 . S
C696 C701 1.425 . S
C696 C703 1.409 . S
C697 H689 0.930 . S
C697 C695 1.419 . S
C697 C698 1.362 . S
C698 H690 0.930 . S
C698 C697 1.362 . S
C698 C701 1.409 . S
C699 H691 0.930 . S
C699 C700 1.355 . S
C699 C701 1.415 . S
C700 C699 1.355 . S
C700 C702 1.419 . S
C701 C696 1.425 . S
C701 C698 1.409 . S
C701 C699 1.415 . S
C702 H692 0.930 . S
C702 C700 1.419 . S
C702 C703 1.362 . S
C703 H693 0.930 . S
C703 C696 1.409 . S
C703 C702 1.362 . S
H704 C710 0.930 . S
H705 C713 0.930 . S
H706 C714 0.930 . S
H707 C715 0.930 . S
H708 C718 0.930 1_455 S
H709 C719 0.930 . S
C710 H704 0.930 . S
C710 C711 1.355 . S
C710 C712 1.415 . S
C711 C710 1.355 . S
C711 C713 1.419 . S
C712 C710 1.415 . S
C712 C717 1.425 . S
C712 C719 1.409 . S
C713 H705 0.930 . S
C713 C711 1.419 . S
C713 C714 1.362 . S
C714 H706 0.930 . S
C714 C713 1.362 . S
C714 C717 1.409 . S
C715 H707 0.930 . S
C715 C716 1.355 . S
C715 C717 1.415 1_556 S
C716 C715 1.355 . S
C716 C718 1.419 1_556 S
C717 C712 1.425 . S
C717 C714 1.409 . S
C717 C715 1.415 1_554 S
C718 H708 0.930 1_655 S
C718 C716 1.419 1_554 S
C718 C719 1.362 . S
C719 H709 0.930 . S
C719 C712 1.409 . S
C719 C718 1.362 . S
H720 C726 0.930 . S
H721 C729 0.930 . S
H722 C730 0.930 . S
H723 C731 0.930 . S
H724 C734 0.930 . S
H725 C735 0.930 . S
C726 H720 0.930 . S
C726 C727 1.355 . S
C726 C728 1.415 . S
C727 C726 1.355 . S
C727 C729 1.419 . S
C728 C726 1.415 . S
C728 C733 1.425 . S
C728 C735 1.409 . S
C729 H721 0.930 . S
C729 C727 1.419 . S
C729 C730 1.362 . S
C730 H722 0.930 . S
C730 C729 1.362 . S
C730 C733 1.409 . S
C731 H723 0.930 . S
C731 C732 1.355 . S
C731 C733 1.415 . S
C732 C731 1.355 . S
C732 C734 1.419 . S
C733 C728 1.425 . S
C733 C730 1.409 . S
C733 C731 1.415 . S
C734 H724 0.930 . S
C734 C732 1.419 . S
C734 C735 1.362 . S
C735 H725 0.930 . S
C735 C728 1.409 . S
C735 C734 1.362 . S
H736 C742 0.930 . S
H737 C745 0.930 . S
H738 C746 0.930 . S
H739 C747 0.930 . S
H740 C750 0.930 . S
H741 C751 0.930 . S
C742 H736 0.930 . S
C742 C743 1.355 . S
C742 C744 1.415 . S
C743 C742 1.355 . S
C743 C745 1.419 . S
C744 C742 1.415 . S
C744 C749 1.425 . S
C744 C751 1.409 . S
C745 H737 0.930 . S
C745 C743 1.419 . S
C745 C746 1.362 . S
C746 H738 0.930 . S
C746 C745 1.362 . S
C746 C749 1.409 . S
C747 H739 0.930 . S
C747 C748 1.355 . S
C747 C749 1.415 . S
C748 C747 1.355 . S
C748 C750 1.419 . S
C749 C744 1.425 . S
C749 C746 1.409 . S
C749 C747 1.415 . S
C750 H740 0.930 . S
C750 C748 1.419 . S
C750 C751 1.362 . S
C751 H741 0.930 . S
C751 C744 1.409 . S
C751 C750 1.362 . S
H752 C758 0.930 . S
H753 C761 0.930 . S
H754 C762 0.930 . S
H755 C763 0.930 . S
H756 C766 0.930 . S
H757 C767 0.930 . S
C758 H752 0.930 . S
C758 C759 1.355 . S
C758 C760 1.415 . S
C759 C758 1.355 . S
C759 C761 1.419 . S
C760 C758 1.415 . S
C760 C765 1.425 . S
C760 C767 1.409 . S
C761 H753 0.930 . S
C761 C759 1.419 . S
C761 C762 1.362 . S
C762 H754 0.930 . S
C762 C761 1.362 . S
C762 C765 1.409 . S
C763 H755 0.930 . S
C763 C764 1.355 . S
C763 C765 1.415 . S
C764 C763 1.355 . S
C764 C766 1.419 . S
C765 C760 1.425 . S
C765 C762 1.409 . S
C765 C763 1.415 . S
C766 H756 0.930 . S
C766 C764 1.419 . S
C766 C767 1.362 . S
C767 H757 0.930 . S
C767 C760 1.409 . S
C767 C766 1.362 . S
H768 C774 0.930 . S
H769 C777 0.930 . S
H770 C778 0.930 . S
H771 C779 0.930 . S
H772 C782 0.930 . S
H773 C783 0.930 . S
C774 H768 0.930 . S
C774 C775 1.355 . S
C774 C776 1.415 . S
C775 C774 1.355 . S
C775 C777 1.419 . S
C776 C774 1.415 . S
C776 C781 1.425 . S
C776 C783 1.409 . S
C777 H769 0.930 . S
C777 C775 1.419 . S
C777 C778 1.362 . S
C778 H770 0.930 . S
C778 C777 1.362 . S
C778 C781 1.409 . S
C779 H771 0.930 . S
C779 C780 1.355 . S
C779 C781 1.415 . S
C780 C779 1.355 . S
C780 C782 1.419 . S
C781 C776 1.425 . S
C781 C778 1.409 . S
C781 C779 1.415 . S
C782 H772 0.930 . S
C782 C780 1.419 . S
C782 C783 1.362 . S
C783 H773 0.930 . S
C783 C776 1.409 . S
C783 C782 1.362 . S
H784 C790 0.930 . S
H785 C793 0.930 . S
H786 C794 0.930 . S
H787 C795 0.930 . S
H788 C798 0.930 . S
H789 C799 0.930 . S
C790 H784 0.930 . S
C790 C791 1.355 . S
C790 C792 1.415 . S
C791 C790 1.355 . S
C791 C793 1.419 . S
C792 C790 1.415 . S
C792 C797 1.425 . S
C792 C799 1.409 . S
C793 H785 0.930 . S
C793 C791 1.419 . S
C793 C794 1.362 . S
C794 H786 0.930 . S
C794 C793 1.362 . S
C794 C797 1.409 . S
C795 H787 0.930 . S
C795 C796 1.355 . S
C795 C797 1.415 . S
C796 C795 1.355 . S
C796 C798 1.419 . S
C797 C792 1.425 . S
C797 C794 1.409 . S
C797 C795 1.415 . S
C798 H788 0.930 . S
C798 C796 1.419 . S
C798 C799 1.362 . S
C799 H789 0.930 . S
C799 C792 1.409 . S
C799 C798 1.362 . S
H800 C806 0.930 . S
H801 C809 0.930 1_455 S
H802 C810 0.930 . S
H803 C811 0.930 . S
H804 C814 0.930 . S
H805 C815 0.930 . S
C806 H800 0.930 . S
C806 C807 1.355 . S
C806 C808 1.415 1_554 S
C807 C806 1.355 . S
C807 C809 1.419 1_554 S
C808 C806 1.415 1_556 S
C808 C813 1.425 . S
C808 C815 1.409 . S
C809 H801 0.930 1_655 S
C809 C807 1.419 1_556 S
C809 C810 1.362 . S
C810 H802 0.930 . S
C810 C809 1.362 . S
C810 C813 1.409 . S
C811 H803 0.930 . S
C811 C812 1.355 . S
C811 C813 1.415 . S
C812 C811 1.355 . S
C812 C814 1.419 . S
C813 C808 1.425 . S
C813 C810 1.409 . S
C813 C811 1.415 . S
C814 H804 0.930 . S
C814 C812 1.419 . S
C814 C815 1.362 . S
C815 H805 0.930 . S
C815 C808 1.409 . S
C815 C814 1.362 . S
H816 C822 0.930 . S
H817 C825 0.930 . S
H818 C826 0.930 . S
H819 C827 0.930 . S
H820 C830 0.930 . S
H821 C831 0.930 . S
C822 H816 0.930 . S
C822 C823 1.355 . S
C822 C824 1.415 . S
C823 C822 1.355 . S
C823 C825 1.419 . S
C824 C822 1.415 . S
C824 C829 1.425 . S
C824 C831 1.409 . S
C825 H817 0.930 . S
C825 C823 1.419 . S
C825 C826 1.362 . S
C826 H818 0.930 . S
C826 C825 1.362 . S
C826 C829 1.409 . S
C827 H819 0.930 . S
C827 C828 1.355 . S
C827 C829 1.415 . S
C828 C827 1.355 . S
C828 C830 1.419 . S
C829 C824 1.425 . S
C829 C826 1.409 . S
C829 C827 1.415 . S
C830 H820 0.930 . S
C830 C828 1.419 . S
C830 C831 1.362 . S
C831 H821 0.930 . S
C831 C824 1.409 . S
C831 C830 1.362 . S
H832 C838 0.930 . S
H833 C841 0.930 . S
H834 C842 0.930 . S
H835 C843 0.930 . S
H836 C846 0.930 . S
H837 C847 0.930 . S
C838 H832 0.930 . S
C838 C839 1.355 . S
C838 C840 1.415 . S
C839 C838 1.355 . S
C839 C841 1.419 . S
C840 C838 1.415 . S
C840 C845 1.425 . S
C840 C847 1.409 . S
C841 H833 0.930 . S
C841 C839 1.419 . S
C841 C842 1.362 . S
C842 H834 0.930 . S
C842 C841 1.362 . S
C842 C845 1.409 . S
C843 H835 0.930 . S
C843 C844 1.355 . S
C843 C845 1.415 . S
C844 C843 1.355 . S
C844 C846 1.419 . S
C845 C840 1.425 . S
C845 C842 1.409 . S
C845 C843 1.415 . S
C846 H836 0.930 . S
C846 C844 1.419 . S
C846 C847 1.362 . S
C847 H837 0.930 . S
C847 C840 1.409 . S
C847 C846 1.362 . S
H848 C854 0.930 . S
H849 C857 0.930 . S
H850 C858 0.930 . S
H851 C859 0.930 . S
H852 C862 0.930 . S
H853 C863 0.930 . S
C854 H848 0.930 . S
C854 C855 1.355 . S
C854 C856 1.415 . S
C855 C854 1.355 . S
C855 C857 1.419 . S
C856 C854 1.415 . S
C856 C861 1.425 . S
C856 C863 1.409 . S
C857 H849 0.930 . S
C857 C855 1.419 . S
C857 C858 1.362 . S
C858 H850 0.930 . S
C858 C857 1.362 . S
C858 C861 1.409 . S
C859 H851 0.930 . S
C859 C860 1.355 . S
C859 C861 1.415 . S
C860 C859 1.355 . S
C860 C862 1.419 . S
C861 C856 1.425 . S
C861 C858 1.409 . S
C861 C859 1.415 . S
C862 H852 0.930 . S
C862 C860 1.419 . S
C862 C863 1.362 . S
C863 H853 0.930 . S
C863 C856 1.409 . S
C863 C862 1.362 . S
H864 C870 0.930 . S
H865 C873 0.930 . S
H866 C874 0.930 . S
H867 C875 0.930 . S
H868 C878 0.930 . S
H869 C879 0.930 . S
C870 H864 0.930 . S
C870 C871 1.355 . S
C870 C872 1.415 . S
C871 C870 1.355 . S
C871 C873 1.419 . S
C872 C870 1.415 . S
C872 C877 1.425 . S
C872 C879 1.409 . S
C873 H865 0.930 . S
C873 C871 1.419 . S
C873 C874 1.362 . S
C874 H866 0.930 . S
C874 C873 1.362 . S
C874 C877 1.409 . S
C875 H867 0.930 . S
C875 C876 1.355 1_554 S
C875 C877 1.415 . S
C876 C875 1.355 1_556 S
C876 C878 1.419 . S
C877 C872 1.425 . S
C877 C874 1.409 . S
C877 C875 1.415 . S
C878 H868 0.930 . S
C878 C876 1.419 . S
C878 C879 1.362 1_556 S
C879 H869 0.930 . S
C879 C872 1.409 . S
C879 C878 1.362 1_554 S
H880 C886 0.930 . S
H881 C889 0.930 . S
H882 C890 0.930 . S
H883 C891 0.930 . S
H884 C894 0.930 . S
H885 C895 0.930 . S
C886 H880 0.930 . S
C886 C887 1.355 . S
C886 C888 1.415 . S
C887 C886 1.355 . S
C887 C889 1.419 . S
C888 C886 1.415 . S
C888 C893 1.425 . S
C888 C895 1.409 . S
C889 H881 0.930 . S
C889 C887 1.419 . S
C889 C890 1.362 . S
C890 H882 0.930 . S
C890 C889 1.362 . S
C890 C893 1.409 . S
C891 H883 0.930 . S
C891 C892 1.355 . S
C891 C893 1.415 . S
C892 C891 1.355 . S
C892 C894 1.419 . S
C893 C888 1.425 . S
C893 C890 1.409 . S
C893 C891 1.415 . S
C894 H884 0.930 . S
C894 C892 1.419 . S
C894 C895 1.362 . S
C895 H885 0.930 . S
C895 C888 1.409 . S
C895 C894 1.362 . S
H896 C902 0.930 . S
H897 C905 0.930 . S
H898 C906 0.930 . S
H899 C907 0.930 . S
H900 C910 0.930 . S
H901 C911 0.931 . S
C902 H896 0.930 . S
C902 C903 1.355 . S
C902 C904 1.415 . S
C903 C902 1.355 . S
C903 C905 1.419 . S
C904 C902 1.415 . S
C904 C909 1.425 . S
C904 C911 1.409 . S
C905 H897 0.930 . S
C905 C903 1.419 . S
C905 C906 1.362 . S
C906 H898 0.930 . S
C906 C905 1.362 . S
C906 C909 1.409 . S
C907 H899 0.930 . S
C907 C908 1.352 1_455 S
C907 C909 1.415 . S
C908 C907 1.352 1_655 S
C908 C910 1.420 . S
C909 C904 1.425 . S
C909 C906 1.409 . S
C909 C907 1.415 . S
C910 H900 0.930 . S
C910 C908 1.420 . S
C910 C911 1.362 1_655 S
C911 H901 0.931 . S
C911 C904 1.409 . S
C911 C910 1.362 1_455 S
H912 C918 0.930 . S
H913 C921 0.930 . S
H914 C922 0.930 . S
H915 C923 0.930 . S
H916 C926 0.930 . S
H917 C927 0.930 . S
C918 H912 0.930 . S
C918 C919 1.355 . S
C918 C920 1.415 1_655 S
C919 C918 1.355 . S
C919 C921 1.419 . S
C920 C918 1.415 1_455 S
C920 C925 1.425 . S
C920 C927 1.409 . S
C921 H913 0.930 . S
C921 C919 1.419 . S
C921 C922 1.362 . S
C922 H914 0.930 . S
C922 C921 1.362 . S
C922 C925 1.409 1_655 S
C923 H915 0.930 . S
C923 C924 1.355 . S
C923 C925 1.415 . S
C924 C923 1.355 . S
C924 C926 1.419 . S
C925 C920 1.425 . S
C925 C922 1.409 1_455 S
C925 C923 1.415 . S
C926 H916 0.930 . S
C926 C924 1.419 . S
C926 C927 1.362 . S
C927 H917 0.930 . S
C927 C920 1.409 . S
C927 C926 1.362 . S
H928 C934 0.930 . S
H929 C937 0.930 . S
H930 C938 0.930 . S
H931 C939 0.930 . S
H932 C942 0.930 . S
H933 C943 0.930 . S
C934 H928 0.930 . S
C934 C935 1.355 . S
C934 C936 1.415 . S
C935 C934 1.355 . S
C935 C937 1.419 . S
C936 C934 1.415 . S
C936 C941 1.425 . S
C936 C943 1.409 . S
C937 H929 0.930 . S
C937 C935 1.419 . S
C937 C938 1.362 . S
C938 H930 0.930 . S
C938 C937 1.362 . S
C938 C941 1.409 . S
C939 H931 0.930 . S
C939 C940 1.355 . S
C939 C941 1.415 . S
C940 C939 1.355 . S
C940 C942 1.419 . S
C941 C936 1.425 . S
C941 C938 1.409 . S
C941 C939 1.415 . S
C942 H932 0.930 . S
C942 C940 1.419 . S
C942 C943 1.362 . S
C943 H933 0.930 . S
C943 C936 1.409 . S
C943 C942 1.362 . S
H944 C950 0.930 . S
H945 C953 0.930 . S
H946 C954 0.930 . S
H947 C955 0.930 . S
H948 C958 0.930 . S
H949 C959 0.930 . S
C950 H944 0.930 . S
C950 C951 1.355 . S
C950 C952 1.415 . S
C951 C950 1.355 . S
C951 C953 1.419 . S
C952 C950 1.415 . S
C952 C957 1.425 . S
C952 C959 1.409 . S
C953 H945 0.930 . S
C953 C951 1.419 . S
C953 C954 1.362 . S
C954 H946 0.930 . S
C954 C953 1.362 . S
C954 C957 1.409 . S
C955 H947 0.930 . S
C955 C956 1.355 . S
C955 C957 1.415 . S
C956 C955 1.355 . S
C956 C958 1.419 . S
C957 C952 1.425 . S
C957 C954 1.409 . S
C957 C955 1.415 . S
C958 H948 0.930 . S
C958 C956 1.419 . S
C958 C959 1.362 . S
C959 H949 0.930 . S
C959 C952 1.409 . S
C959 C958 1.362 . S
H960 C966 0.930 . S
H961 C969 0.930 . S
H962 C970 0.930 . S
H963 C971 0.930 . S
H964 C974 0.930 . S
H965 C975 0.930 . S
C966 H960 0.930 . S
C966 C967 1.355 1_655 S
C966 C968 1.415 . S
C967 C966 1.355 1_455 S
C967 C969 1.419 . S
C968 C966 1.415 . S
C968 C973 1.425 1_655 S
C968 C975 1.409 . S
C969 H961 0.930 . S
C969 C967 1.419 . S
C969 C970 1.362 . S
C970 H962 0.930 . S
C970 C969 1.362 . S
C970 C973 1.409 . S
C971 H963 0.930 . S
C971 C972 1.355 1_455 S
C971 C973 1.415 . S
C972 C971 1.355 1_655 S
C972 C974 1.419 . S
C973 C968 1.425 1_455 S
C973 C970 1.409 . S
C973 C971 1.415 . S
C974 H964 0.930 . S
C974 C972 1.419 . S
C974 C975 1.362 . S
C975 H965 0.930 . S
C975 C968 1.409 . S
C975 C974 1.362 . S
H976 C982 0.930 . S
H977 C985 0.930 . S
H978 C986 0.930 . S
H979 C987 0.930 . S
H980 C990 0.930 . S
H981 C991 0.930 . S
C982 H976 0.930 . S
C982 C983 1.355 . S
C982 C984 1.415 . S
C983 C982 1.355 . S
C983 C985 1.419 . S
C984 C982 1.415 . S
C984 C989 1.425 . S
C984 C991 1.409 . S
C985 H977 0.930 . S
C985 C983 1.419 . S
C985 C986 1.362 . S
C986 H978 0.930 . S
C986 C985 1.362 . S
C986 C989 1.409 . S
C987 H979 0.930 . S
C987 C988 1.355 . S
C987 C989 1.415 . S
C988 C987 1.355 . S
C988 C990 1.419 . S
C989 C984 1.425 . S
C989 C986 1.409 . S
C989 C987 1.415 . S
C990 H980 0.930 . S
C990 C988 1.419 . S
C990 C991 1.362 . S
C991 H981 0.930 . S
C991 C984 1.409 . S
C991 C990 1.362 . S
H992 C998 0.930 . S
H993 C1001 0.930 . S
H994 C1002 0.930 . S
H995 C1003 0.930 . S
H996 C1006 0.930 . S
H997 C1007 0.930 . S
C998 H992 0.930 . S
C998 C999 1.355 . S
C998 C1000 1.415 . S
C999 C998 1.355 . S
C999 C1001 1.419 . S
C1000 C998 1.415 . S
C1000 C1005 1.425 . S
C1000 C1007 1.409 . S
C1001 H993 0.930 . S
C1001 C999 1.419 . S
C1001 C1002 1.362 . S
C1002 H994 0.930 . S
C1002 C1001 1.362 . S
C1002 C1005 1.409 . S
C1003 H995 0.930 . S
C1003 C1004 1.355 . S
C1003 C1005 1.415 . S
C1004 C1003 1.355 . S
C1004 C1006 1.419 . S
C1005 C1000 1.425 . S
C1005 C1002 1.409 . S
C1005 C1003 1.415 . S
C1006 H996 0.930 . S
C1006 C1004 1.419 . S
C1006 C1007 1.362 . S
C1007 H997 0.930 . S
C1007 C1000 1.409 . S
C1007 C1006 1.362 . S
H1008 C1014 0.930 . S
H1009 C1017 0.930 . S
H1010 C1018 0.930 . S
H1011 C1019 0.930 . S
H1012 C1022 0.930 . S
H1013 C1023 0.930 . S
C1014 H1008 0.930 . S
C1014 C1015 1.355 . S
C1014 C1016 1.415 . S
C1015 C1014 1.355 . S
C1015 C1017 1.419 . S
C1016 C1014 1.415 . S
C1016 C1021 1.425 . S
C1016 C1023 1.409 1_455 S
C1017 H1009 0.930 . S
C1017 C1015 1.419 . S
C1017 C1018 1.362 . S
C1018 H1010 0.930 . S
C1018 C1017 1.362 . S
C1018 C1021 1.409 . S
C1019 H1011 0.930 . S
C1019 C1020 1.355 . S
C1019 C1021 1.415 1_655 S
C1020 C1019 1.355 . S
C1020 C1022 1.419 . S
C1021 C1016 1.425 . S
C1021 C1018 1.409 . S
C1021 C1019 1.415 1_455 S
C1022 H1012 0.930 . S
C1022 C1020 1.419 . S
C1022 C1023 1.362 . S
C1023 H1013 0.930 . S
C1023 C1016 1.409 1_655 S
C1023 C1022 1.362 . S
H1024 C1030 0.930 . S
H1025 C1033 0.930 . S
H1026 C1034 0.931 1_565 S
H1027 C1035 0.930 . S
H1028 C1038 0.930 . S
H1029 C1039 0.930 . S
C1030 H1024 0.930 . S
C1030 C1031 1.355 1_455 S
C1030 C1032 1.415 . S
C1031 C1030 1.355 1_655 S
C1031 C1033 1.419 . S
C1032 C1030 1.415 . S
C1032 C1037 1.425 1_444 S
C1032 C1039 1.409 1_544 S
C1033 H1025 0.930 . S
C1033 C1031 1.419 . S
C1033 C1034 1.362 . S
C1034 H1026 0.931 1_545 S
C1034 C1033 1.362 . S
C1034 C1037 1.409 1_544 S
C1035 H1027 0.930 . S
C1035 C1036 1.355 1_655 S
C1035 C1037 1.415 . S
C1036 C1035 1.355 1_455 S
C1036 C1038 1.419 . S
C1037 C1032 1.425 1_666 S
C1037 C1034 1.409 1_566 S
C1037 C1035 1.415 . S
C1038 H1028 0.930 . S
C1038 C1036 1.419 . S
C1038 C1039 1.362 . S
C1039 H1029 0.930 . S
C1039 C1032 1.409 1_566 S
C1039 C1038 1.362 . S
H1040 C1046 0.930 . S
H1041 C1049 0.930 . S
H1042 C1050 0.930 . S
H1043 C1051 0.930 . S
H1044 C1054 0.930 . S
H1045 C1055 0.930 . S
C1046 H1040 0.930 . S
C1046 C1047 1.355 . S
C1046 C1048 1.415 . S
C1047 C1046 1.355 . S
C1047 C1049 1.419 . S
C1048 C1046 1.415 . S
C1048 C1053 1.425 . S
C1048 C1055 1.409 . S
C1049 H1041 0.930 . S
C1049 C1047 1.419 . S
C1049 C1050 1.362 . S
C1050 H1042 0.930 . S
C1050 C1049 1.362 . S
C1050 C1053 1.409 . S
C1051 H1043 0.930 . S
C1051 C1052 1.355 . S
C1051 C1053 1.415 . S
C1052 C1051 1.355 . S
C1052 C1054 1.419 . S
C1053 C1048 1.425 . S
C1053 C1050 1.409 . S
C1053 C1051 1.415 . S
C1054 H1044 0.930 . S
C1054 C1052 1.419 . S
C1054 C1055 1.362 . S
C1055 H1045 0.930 . S
C1055 C1048 1.409 . S
C1055 C1054 1.362 . S
H1056 C1062 0.930 . S
H1057 C1065 0.930 . S
H1058 C1066 0.930 . S
H1059 C1067 0.930 . S
H1060 C1070 0.930 . S
H1061 C1071 0.930 . S
C1062 H1056 0.930 . S
C1062 C1063 1.355 . S
C1062 C1064 1.415 . S
C1063 C1062 1.355 . S
C1063 C1065 1.419 . S
C1064 C1062 1.415 . S
C1064 C1069 1.425 1_545 S
C1064 C1071 1.409 . S
C1065 H1057 0.930 . S
C1065 C1063 1.419 . S
C1065 C1066 1.362 1_545 S
C1066 H1058 0.930 . S
C1066 C1065 1.362 1_565 S
C1066 C1069 1.409 . S
C1067 H1059 0.930 . S
C1067 C1068 1.355 . S
C1067 C1069 1.415 . S
C1068 C1067 1.355 . S
C1068 C1070 1.419 . S
C1069 C1064 1.425 1_565 S
C1069 C1066 1.409 . S
C1069 C1067 1.415 . S
C1070 H1060 0.930 . S
C1070 C1068 1.419 . S
C1070 C1071 1.362 1_565 S
C1071 H1061 0.930 . S
C1071 C1064 1.409 . S
C1071 C1070 1.362 1_545 S
H1072 C1078 0.930 . S
H1073 C1081 0.930 . S
H1074 C1082 0.930 . S
H1075 C1083 0.930 . S
H1076 C1086 0.930 . S
H1077 C1087 0.930 . S
C1078 H1072 0.930 . S
C1078 C1079 1.355 . S
C1078 C1080 1.415 . S
C1079 C1078 1.355 . S
C1079 C1081 1.419 . S
C1080 C1078 1.415 . S
C1080 C1085 1.425 . S
C1080 C1087 1.409 . S
C1081 H1073 0.930 . S
C1081 C1079 1.419 . S
C1081 C1082 1.362 . S
C1082 H1074 0.930 . S
C1082 C1081 1.362 . S
C1082 C1085 1.409 . S
C1083 H1075 0.930 . S
C1083 C1084 1.355 . S
C1083 C1085 1.415 . S
C1084 C1083 1.355 . S
C1084 C1086 1.419 . S
C1085 C1080 1.425 . S
C1085 C1082 1.409 . S
C1085 C1083 1.415 . S
C1086 H1076 0.930 . S
C1086 C1084 1.419 . S
C1086 C1087 1.362 . S
C1087 H1077 0.930 . S
C1087 C1080 1.409 . S
C1087 C1086 1.362 . S
H1088 C1094 0.930 . S
H1089 C1097 0.930 . S
H1090 C1098 0.930 . S
H1091 C1099 0.930 . S
H1092 C1102 0.930 . S
H1093 C1103 0.930 . S
C1094 H1088 0.930 . S
C1094 C1095 1.355 . S
C1094 C1096 1.415 . S
C1095 C1094 1.355 . S
C1095 C1097 1.419 . S
C1096 C1094 1.415 . S
C1096 C1101 1.425 . S
C1096 C1103 1.409 . S
C1097 H1089 0.930 . S
C1097 C1095 1.419 . S
C1097 C1098 1.362 . S
C1098 H1090 0.930 . S
C1098 C1097 1.362 . S
C1098 C1101 1.409 . S
C1099 H1091 0.930 . S
C1099 C1100 1.355 . S
C1099 C1101 1.415 . S
C1100 C1099 1.355 . S
C1100 C1102 1.419 . S
C1101 C1096 1.425 . S
C1101 C1098 1.409 . S
C1101 C1099 1.415 . S
C1102 H1092 0.930 . S
C1102 C1100 1.419 . S
C1102 C1103 1.362 . S
C1103 H1093 0.930 . S
C1103 C1096 1.409 . S
C1103 C1102 1.362 . S
H1104 C1110 0.930 . S
H1105 C1113 0.930 . S
H1106 C1114 0.930 . S
H1107 C1115 0.930 . S
H1108 C1118 0.930 . S
H1109 C1119 0.930 . S
C1110 H1104 0.930 . S
C1110 C1111 1.355 . S
C1110 C1112 1.415 . S
C1111 C1110 1.355 . S
C1111 C1113 1.419 . S
C1112 C1110 1.415 . S
C1112 C1117 1.425 . S
C1112 C1119 1.409 . S
C1113 H1105 0.930 . S
C1113 C1111 1.419 . S
C1113 C1114 1.362 . S
C1114 H1106 0.930 . S
C1114 C1113 1.362 . S
C1114 C1117 1.409 . S
C1115 H1107 0.930 . S
C1115 C1116 1.355 . S
C1115 C1117 1.415 . S
C1116 C1115 1.355 . S
C1116 C1118 1.419 . S
C1117 C1112 1.425 . S
C1117 C1114 1.409 . S
C1117 C1115 1.415 . S
C1118 H1108 0.930 . S
C1118 C1116 1.419 . S
C1118 C1119 1.362 . S
C1119 H1109 0.930 . S
C1119 C1112 1.409 . S
C1119 C1118 1.362 . S
H1120 C1126 0.930 . S
H1121 C1129 0.930 . S
H1122 C1130 0.930 . S
H1123 C1131 0.930 . S
H1124 C1134 0.930 . S
H1125 C1135 0.930 . S
C1126 H1120 0.930 . S
C1126 C1127 1.355 . S
C1126 C1128 1.415 . S
C1127 C1126 1.355 . S
C1127 C1129 1.419 . S
C1128 C1126 1.415 . S
C1128 C1133 1.425 . S
C1128 C1135 1.409 . S
C1129 H1121 0.930 . S
C1129 C1127 1.419 . S
C1129 C1130 1.362 . S
C1130 H1122 0.930 . S
C1130 C1129 1.362 . S
C1130 C1133 1.409 . S
C1131 H1123 0.930 . S
C1131 C1132 1.355 . S
C1131 C1133 1.415 . S
C1132 C1131 1.355 . S
C1132 C1134 1.419 . S
C1133 C1128 1.425 . S
C1133 C1130 1.409 . S
C1133 C1131 1.415 . S
C1134 H1124 0.930 . S
C1134 C1132 1.419 . S
C1134 C1135 1.362 . S
C1135 H1125 0.930 . S
C1135 C1128 1.409 . S
C1135 C1134 1.362 . S
H1136 C1142 0.930 . S
H1137 C1145 0.930 . S
H1138 C1146 0.936 . S
H1139 C1147 0.930 . S
H1140 C1150 0.929 . S
H1141 C1151 0.936 . S
C1142 H1136 0.930 . S
C1142 C1143 1.355 1_655 S
C1142 C1144 1.410 1_655 S
C1143 C1142 1.355 1_455 S
C1143 C1145 1.419 . S
C1144 C1142 1.410 1_455 S
C1144 C1149 1.437 1_556 S
C1144 C1151 1.407 1_455 S
C1145 H1137 0.930 . S
C1145 C1143 1.419 . S
C1145 C1146 1.354 1_556 S
C1146 H1138 0.936 . S
C1146 C1145 1.354 1_554 S
C1146 C1149 1.412 . S
C1147 H1139 0.930 . S
C1147 C1148 1.355 . S
C1147 C1149 1.415 . S
C1148 C1147 1.355 . S
C1148 C1150 1.420 1_455 S
C1149 C1144 1.437 1_554 S
C1149 C1146 1.412 . S
C1149 C1147 1.415 . S
C1150 H1140 0.929 . S
C1150 C1148 1.420 1_655 S
C1150 C1151 1.354 1_554 S
C1151 H1141 0.936 . S
C1151 C1144 1.407 1_655 S
C1151 C1150 1.354 1_556 S
H1152 C1158 0.930 . S
H1153 C1161 0.930 . S
H1154 C1162 0.930 . S
H1155 C1163 0.930 . S
H1156 C1166 0.930 . S
H1157 C1167 0.930 . S
C1158 H1152 0.930 . S
C1158 C1159 1.355 . S
C1158 C1160 1.415 . S
C1159 C1158 1.355 . S
C1159 C1161 1.419 . S
C1160 C1158 1.415 . S
C1160 C1165 1.425 . S
C1160 C1167 1.409 . S
C1161 H1153 0.930 . S
C1161 C1159 1.419 . S
C1161 C1162 1.362 . S
C1162 H1154 0.930 . S
C1162 C1161 1.362 . S
C1162 C1165 1.409 . S
C1163 H1155 0.930 . S
C1163 C1164 1.355 . S
C1163 C1165 1.415 . S
C1164 C1163 1.355 . S
C1164 C1166 1.419 . S
C1165 C1160 1.425 . S
C1165 C1162 1.409 . S
C1165 C1163 1.415 . S
C1166 H1156 0.930 . S
C1166 C1164 1.419 . S
C1166 C1167 1.362 . S
C1167 H1157 0.930 . S
C1167 C1160 1.409 . S
C1167 C1166 1.362 . S
H1168 C1174 0.930 . S
H1169 C1177 0.930 . S
H1170 C1178 0.930 . S
H1171 C1179 0.930 . S
H1172 C1182 0.930 . S
H1173 C1183 0.930 . S
C1174 H1168 0.930 . S
C1174 C1175 1.355 . S
C1174 C1176 1.415 . S
C1175 C1174 1.355 . S
C1175 C1177 1.419 . S
C1176 C1174 1.415 . S
C1176 C1181 1.425 . S
C1176 C1183 1.409 . S
C1177 H1169 0.930 . S
C1177 C1175 1.419 . S
C1177 C1178 1.362 . S
C1178 H1170 0.930 . S
C1178 C1177 1.362 . S
C1178 C1181 1.409 . S
C1179 H1171 0.930 . S
C1179 C1180 1.355 . S
C1179 C1181 1.415 . S
C1180 C1179 1.355 . S
C1180 C1182 1.419 . S
C1181 C1176 1.425 . S
C1181 C1178 1.409 . S
C1181 C1179 1.415 . S
C1182 H1172 0.930 . S
C1182 C1180 1.419 . S
C1182 C1183 1.362 . S
C1183 H1173 0.930 . S
C1183 C1176 1.409 . S
C1183 C1182 1.362 . S
H1184 C1190 0.930 . S
H1185 C1193 0.930 . S
H1186 C1194 0.930 . S
H1187 C1195 0.930 . S
H1188 C1198 0.930 . S
H1189 C1199 0.930 . S
C1190 H1184 0.930 . S
C1190 C1191 1.355 1_556 S
C1190 C1192 1.415 . S
C1191 C1190 1.355 1_554 S
C1191 C1193 1.419 . S
C1192 C1190 1.415 . S
C1192 C1197 1.425 . S
C1192 C1199 1.409 . S
C1193 H1185 0.930 . S
C1193 C1191 1.419 . S
C1193 C1194 1.362 1_554 S
C1194 H1186 0.930 . S
C1194 C1193 1.362 1_556 S
C1194 C1197 1.409 . S
C1195 H1187 0.930 . S
C1195 C1196 1.355 . S
C1195 C1197 1.415 . S
C1196 C1195 1.355 . S
C1196 C1198 1.419 . S
C1197 C1192 1.425 . S
C1197 C1194 1.409 . S
C1197 C1195 1.415 . S
C1198 H1188 0.930 . S
C1198 C1196 1.419 . S
C1198 C1199 1.362 . S
C1199 H1189 0.930 . S
C1199 C1192 1.409 . S
C1199 C1198 1.362 . S
H1200 C1206 0.930 . S
H1201 C1209 0.930 . S
H1202 C1210 0.930 . S
H1203 C1211 0.930 . S
H1204 C1214 0.930 . S
H1205 C1215 0.930 . S
C1206 H1200 0.930 . S
C1206 C1207 1.355 . S
C1206 C1208 1.415 . S
C1207 C1206 1.355 . S
C1207 C1209 1.419 . S
C1208 C1206 1.415 . S
C1208 C1213 1.425 . S
C1208 C1215 1.409 . S
C1209 H1201 0.930 . S
C1209 C1207 1.419 . S
C1209 C1210 1.362 . S
C1210 H1202 0.930 . S
C1210 C1209 1.362 . S
C1210 C1213 1.409 . S
C1211 H1203 0.930 . S
C1211 C1212 1.355 . S
C1211 C1213 1.415 . S
C1212 C1211 1.355 . S
C1212 C1214 1.419 . S
C1213 C1208 1.425 . S
C1213 C1210 1.409 . S
C1213 C1211 1.415 . S
C1214 H1204 0.930 . S
C1214 C1212 1.419 . S
C1214 C1215 1.362 . S
C1215 H1205 0.930 . S
C1215 C1208 1.409 . S
C1215 C1214 1.362 . S
H1216 C1222 0.930 . S
H1217 C1225 0.930 . S
H1218 C1226 0.930 . S
H1219 C1227 0.930 . S
H1220 C1230 0.930 . S
H1221 C1231 0.930 . S
C1222 H1216 0.930 . S
C1222 C1223 1.355 . S
C1222 C1224 1.415 . S
C1223 C1222 1.355 . S
C1223 C1225 1.419 . S
C1224 C1222 1.415 . S
C1224 C1229 1.425 . S
C1224 C1231 1.409 . S
C1225 H1217 0.930 . S
C1225 C1223 1.419 . S
C1225 C1226 1.362 . S
C1226 H1218 0.930 . S
C1226 C1225 1.362 . S
C1226 C1229 1.409 . S
C1227 H1219 0.930 . S
C1227 C1228 1.355 . S
C1227 C1229 1.415 . S
C1228 C1227 1.355 . S
C1228 C1230 1.419 . S
C1229 C1224 1.425 . S
C1229 C1226 1.409 . S
C1229 C1227 1.415 . S
C1230 H1220 0.930 . S
C1230 C1228 1.419 . S
C1230 C1231 1.362 . S
C1231 H1221 0.930 . S
C1231 C1224 1.409 . S
C1231 C1230 1.362 . S
H1232 C1238 0.930 . S
H1233 C1241 0.930 . S
H1234 C1242 0.930 . S
H1235 C1243 0.930 . S
H1236 C1246 0.930 . S
H1237 C1247 0.930 . S
C1238 H1232 0.930 . S
C1238 C1239 1.355 . S
C1238 C1240 1.415 . S
C1239 C1238 1.355 . S
C1239 C1241 1.419 . S
C1240 C1238 1.415 . S
C1240 C1245 1.425 . S
C1240 C1247 1.409 . S
C1241 H1233 0.930 . S
C1241 C1239 1.419 . S
C1241 C1242 1.362 . S
C1242 H1234 0.930 . S
C1242 C1241 1.362 . S
C1242 C1245 1.409 . S
C1243 H1235 0.930 . S
C1243 C1244 1.355 . S
C1243 C1245 1.415 . S
C1244 C1243 1.355 . S
C1244 C1246 1.419 . S
C1245 C1240 1.425 . S
C1245 C1242 1.409 . S
C1245 C1243 1.415 . S
C1246 H1236 0.930 . S
C1246 C1244 1.419 . S
C1246 C1247 1.362 . S
C1247 H1237 0.930 . S
C1247 C1240 1.409 . S
C1247 C1246 1.362 . S
H1248 C1254 0.930 . S
H1249 C1257 0.930 . S
H1250 C1258 0.930 . S
H1251 C1259 0.930 . S
H1252 C1262 0.930 . S
H1253 C1263 0.930 . S
C1254 H1248 0.930 . S
C1254 C1255 1.355 1_554 S
C1254 C1256 1.415 . S
C1255 C1254 1.355 1_556 S
C1255 C1257 1.419 . S
C1256 C1254 1.415 . S
C1256 C1261 1.425 . S
C1256 C1263 1.409 . S
C1257 H1249 0.930 . S
C1257 C1255 1.419 . S
C1257 C1258 1.362 1_556 S
C1258 H1250 0.930 . S
C1258 C1257 1.362 1_554 S
C1258 C1261 1.409 . S
C1259 H1251 0.930 . S
C1259 C1260 1.355 . S
C1259 C1261 1.415 . S
C1260 C1259 1.355 . S
C1260 C1262 1.419 . S
C1261 C1256 1.425 . S
C1261 C1258 1.409 . S
C1261 C1259 1.415 . S
C1262 H1252 0.930 . S
C1262 C1260 1.419 . S
C1262 C1263 1.362 . S
C1263 H1253 0.930 . S
C1263 C1256 1.409 . S
C1263 C1262 1.362 . S
H1264 C1270 0.930 . S
H1265 C1273 0.930 . S
H1266 C1274 0.930 . S
H1267 C1275 0.930 . S
H1268 C1278 0.930 . S
H1269 C1279 0.930 . S
C1270 H1264 0.930 . S
C1270 C1271 1.355 . S
C1270 C1272 1.415 . S
C1271 C1270 1.355 . S
C1271 C1273 1.419 . S
C1272 C1270 1.415 . S
C1272 C1277 1.425 . S
C1272 C1279 1.409 . S
C1273 H1265 0.930 . S
C1273 C1271 1.419 . S
C1273 C1274 1.362 . S
C1274 H1266 0.930 . S
C1274 C1273 1.362 . S
C1274 C1277 1.409 . S
C1275 H1267 0.930 . S
C1275 C1276 1.355 . S
C1275 C1277 1.415 . S
C1276 C1275 1.355 . S
C1276 C1278 1.419 . S
C1277 C1272 1.425 . S
C1277 C1274 1.409 . S
C1277 C1275 1.415 . S
C1278 H1268 0.930 . S
C1278 C1276 1.419 . S
C1278 C1279 1.362 . S
C1279 H1269 0.930 . S
C1279 C1272 1.409 . S
C1279 C1278 1.362 . S
H1280 C1286 0.930 . S
H1281 C1289 0.930 . S
H1282 C1290 0.930 . S
H1283 C1291 0.930 . S
H1284 C1294 0.930 . S
H1285 C1295 0.930 1_554 S
C1286 H1280 0.930 . S
C1286 C1287 1.355 . S
C1286 C1288 1.415 . S
C1287 C1286 1.355 . S
C1287 C1289 1.419 . S
C1288 C1286 1.415 . S
C1288 C1293 1.425 . S
C1288 C1295 1.409 . S
C1289 H1281 0.930 . S
C1289 C1287 1.419 . S
C1289 C1290 1.362 . S
C1290 H1282 0.930 . S
C1290 C1289 1.362 . S
C1290 C1293 1.409 . S
C1291 H1283 0.930 . S
C1291 C1292 1.355 1_556 S
C1291 C1293 1.415 . S
C1292 C1291 1.355 1_554 S
C1292 C1294 1.419 . S
C1293 C1288 1.425 . S
C1293 C1290 1.409 . S
C1293 C1291 1.415 . S
C1294 H1284 0.930 . S
C1294 C1292 1.419 . S
C1294 C1295 1.362 1_554 S
C1295 H1285 0.930 1_556 S
C1295 C1288 1.409 . S
C1295 C1294 1.362 1_556 S
H1296 C1302 0.930 . S
H1297 C1305 0.930 . S
H1298 C1306 0.930 . S
H1299 C1307 0.930 . S
H1300 C1310 0.930 . S
H1301 C1311 0.930 . S
C1302 H1296 0.930 . S
C1302 C1303 1.355 . S
C1302 C1304 1.415 . S
C1303 C1302 1.355 . S
C1303 C1305 1.419 . S
C1304 C1302 1.415 . S
C1304 C1309 1.425 . S
C1304 C1311 1.409 . S
C1305 H1297 0.930 . S
C1305 C1303 1.419 . S
C1305 C1306 1.362 . S
C1306 H1298 0.930 . S
C1306 C1305 1.362 . S
C1306 C1309 1.409 . S
C1307 H1299 0.930 . S
C1307 C1308 1.355 . S
C1307 C1309 1.415 . S
C1308 C1307 1.355 . S
C1308 C1310 1.419 . S
C1309 C1304 1.425 . S
C1309 C1306 1.409 . S
C1309 C1307 1.415 . S
C1310 H1300 0.930 . S
C1310 C1308 1.419 . S
C1310 C1311 1.362 . S
C1311 H1301 0.930 . S
C1311 C1304 1.409 . S
C1311 C1310 1.362 . S
H1312 C1318 0.930 . S
H1313 C1321 0.930 . S
H1314 C1322 0.930 . S
H1315 C1323 0.930 . S
H1316 C1326 0.930 . S
H1317 C1327 0.930 . S
C1318 H1312 0.930 . S
C1318 C1319 1.355 . S
C1318 C1320 1.415 . S
C1319 C1318 1.355 . S
C1319 C1321 1.419 . S
C1320 C1318 1.415 . S
C1320 C1325 1.425 . S
C1320 C1327 1.409 . S
C1321 H1313 0.930 . S
C1321 C1319 1.419 . S
C1321 C1322 1.362 . S
C1322 H1314 0.930 . S
C1322 C1321 1.362 . S
C1322 C1325 1.409 . S
C1323 H1315 0.930 . S
C1323 C1324 1.355 . S
C1323 C1325 1.415 . S
C1324 C1323 1.355 . S
C1324 C1326 1.419 . S
C1325 C1320 1.425 . S
C1325 C1322 1.409 . S
C1325 C1323 1.415 . S
C1326 H1316 0.930 . S
C1326 C1324 1.419 . S
C1326 C1327 1.362 . S
C1327 H1317 0.930 . S
C1327 C1320 1.409 . S
C1327 C1326 1.362 . S
H1328 C1334 0.930 . S
H1329 C1337 0.930 . S
H1330 C1338 0.930 . S
H1331 C1339 0.930 . S
H1332 C1342 0.930 . S
H1333 C1343 0.930 . S
C1334 H1328 0.930 . S
C1334 C1335 1.355 . S
C1334 C1336 1.415 . S
C1335 C1334 1.355 . S
C1335 C1337 1.419 . S
C1336 C1334 1.415 . S
C1336 C1341 1.425 . S
C1336 C1343 1.409 . S
C1337 H1329 0.930 . S
C1337 C1335 1.419 . S
C1337 C1338 1.362 . S
C1338 H1330 0.930 . S
C1338 C1337 1.362 . S
C1338 C1341 1.409 . S
C1339 H1331 0.930 . S
C1339 C1340 1.355 . S
C1339 C1341 1.415 . S
C1340 C1339 1.355 . S
C1340 C1342 1.419 . S
C1341 C1336 1.425 . S
C1341 C1338 1.409 . S
C1341 C1339 1.415 . S
C1342 H1332 0.930 . S
C1342 C1340 1.419 . S
C1342 C1343 1.362 . S
C1343 H1333 0.930 . S
C1343 C1336 1.409 . S
C1343 C1342 1.362 . S
H1344 C1350 0.930 . S
H1345 C1353 0.930 . S
H1346 C1354 0.930 . S
H1347 C1355 0.930 . S
H1348 C1358 0.930 . S
H1349 C1359 0.930 . S
C1350 H1344 0.930 . S
C1350 C1351 1.355 . S
C1350 C1352 1.415 . S
C1351 C1350 1.355 . S
C1351 C1353 1.419 . S
C1352 C1350 1.415 . S
C1352 C1357 1.425 . S
C1352 C1359 1.409 . S
C1353 H1345 0.930 . S
C1353 C1351 1.419 . S
C1353 C1354 1.362 . S
C1354 H1346 0.930 . S
C1354 C1353 1.362 . S
C1354 C1357 1.409 . S
C1355 H1347 0.930 . S
C1355 C1356 1.355 . S
C1355 C1357 1.415 1_556 S
C1356 C1355 1.355 . S
C1356 C1358 1.419 1_556 S
C1357 C1352 1.425 . S
C1357 C1354 1.409 . S
C1357 C1355 1.415 1_554 S
C1358 H1348 0.930 . S
C1358 C1356 1.419 1_554 S
C1358 C1359 1.362 . S
C1359 H1349 0.930 . S
C1359 C1352 1.409 . S
C1359 C1358 1.362 . S
H1360 C1366 0.930 . S
H1361 C1369 0.930 . S
H1362 C1370 0.930 . S
H1363 C1371 0.930 . S
H1364 C1374 0.930 . S
H1365 C1375 0.930 . S
C1366 H1360 0.930 . S
C1366 C1367 1.355 . S
C1366 C1368 1.415 . S
C1367 C1366 1.355 . S
C1367 C1369 1.419 . S
C1368 C1366 1.415 . S
C1368 C1373 1.425 . S
C1368 C1375 1.409 . S
C1369 H1361 0.930 . S
C1369 C1367 1.419 . S
C1369 C1370 1.362 . S
C1370 H1362 0.930 . S
C1370 C1369 1.362 . S
C1370 C1373 1.409 . S
C1371 H1363 0.930 . S
C1371 C1372 1.355 . S
C1371 C1373 1.415 . S
C1372 C1371 1.355 . S
C1372 C1374 1.419 . S
C1373 C1368 1.425 . S
C1373 C1370 1.409 . S
C1373 C1371 1.415 . S
C1374 H1364 0.930 . S
C1374 C1372 1.419 . S
C1374 C1375 1.362 . S
C1375 H1365 0.930 . S
C1375 C1368 1.409 . S
C1375 C1374 1.362 . S
H1376 C1382 0.930 . S
H1377 C1385 0.930 . S
H1378 C1386 0.930 . S
H1379 C1387 0.930 . S
H1380 C1390 0.930 . S
H1381 C1391 0.930 . S
C1382 H1376 0.930 . S
C1382 C1383 1.355 . S
C1382 C1384 1.415 . S
C1383 C1382 1.355 . S
C1383 C1385 1.419 . S
C1384 C1382 1.415 . S
C1384 C1389 1.425 . S
C1384 C1391 1.409 . S
C1385 H1377 0.930 . S
C1385 C1383 1.419 . S
C1385 C1386 1.362 . S
C1386 H1378 0.930 . S
C1386 C1385 1.362 . S
C1386 C1389 1.409 . S
C1387 H1379 0.930 . S
C1387 C1388 1.355 . S
C1387 C1389 1.415 . S
C1388 C1387 1.355 . S
C1388 C1390 1.419 . S
C1389 C1384 1.425 . S
C1389 C1386 1.409 . S
C1389 C1387 1.415 . S
C1390 H1380 0.930 . S
C1390 C1388 1.419 . S
C1390 C1391 1.362 . S
C1391 H1381 0.930 . S
C1391 C1384 1.409 . S
C1391 C1390 1.362 . S
H1392 C1398 0.930 . S
H1393 C1401 0.930 . S
H1394 C1402 0.930 . S
H1395 C1403 0.930 . S
H1396 C1406 0.930 . S
H1397 C1407 0.930 . S
C1398 H1392 0.930 . S
C1398 C1399 1.355 . S
C1398 C1400 1.415 . S
C1399 C1398 1.355 . S
C1399 C1401 1.419 . S
C1400 C1398 1.415 . S
C1400 C1405 1.425 . S
C1400 C1407 1.409 . S
C1401 H1393 0.930 . S
C1401 C1399 1.419 . S
C1401 C1402 1.362 . S
C1402 H1394 0.930 . S
C1402 C1401 1.362 . S
C1402 C1405 1.409 . S
C1403 H1395 0.930 . S
C1403 C1404 1.355 . S
C1403 C1405 1.415 . S
C1404 C1403 1.355 . S
C1404 C1406 1.419 . S
C1405 C1400 1.425 . S
C1405 C1402 1.409 . S
C1405 C1403 1.415 . S
C1406 H1396 0.930 . S
C1406 C1404 1.419 . S
C1406 C1407 1.362 . S
C1407 H1397 0.930 . S
C1407 C1400 1.409 . S
C1407 C1406 1.362 . S
C647 C10 1.116 . S
C652 C295 1.114 . S
C663 C50 1.064 . S
C668 C175 1.075 . S
C679 C215 1.070 . S
C684 C90 1.063 . S
C695 C130 1.064 . S
C700 C255 1.078 . S
C711 C446 1.107 . S
C716 C179 1.082 . S
C727 C339 1.076 . S
C732 C6 1.014 . S
C743 C406 1.119 . S
C748 C259 1.101 . S
C759 C86 1.038 . S
C764 C379 1.113 . S
C775 C375 1.060 . S
C780 C490 1.061 . S
C791 C410 1.107 . S
C796 C575 1.118 . S
C807 C530 1.113 . S
C812 C335 1.116 . S
C823 C450 1.060 . S
C828 C615 1.054 . S
C839 C579 1.083 . S
C844 C126 1.013 . S
C855 C486 1.017 . S
C860 C219 1.096 . S
C871 C46 1.048 . S
C876 C619 1.061 . S
C887 C299 1.099 . S
C892 C526 1.019 . S
C903 C529 0.353 . S
C908 C9 0.547 . S
C919 C449 0.396 . S
C924 C49 0.574 . S
C935 C489 0.523 . S
C940 C89 0.565 . S
C951 C409 0.529 . S
C956 C129 0.351 . S
C967 C178 0.407 . S
C972 C618 0.405 . S
C983 C378 0.379 . S
C988 C218 0.438 . S
C999 C258 0.511 . S
C1004 C578 0.572 . S
C1015 C298 0.577 . S
C1020 C338 0.402 . S
C1031 C18 1.687 1_655 S
C1036 C169 1.687 . S
C1047 C58 1.629 . S
C1052 C209 1.629 . S
C1063 C249 1.643 . S
C1068 C98 1.643 . S
C1079 C138 1.635 . S
C1084 C289 1.635 . S
C1095 C418 1.699 . S
C1100 C329 1.699 . S
C1111 C458 1.670 . S
C1116 C369 1.670 . S
C1127 C498 1.690 . S
C1132 C569 1.690 . S
C1143 C609 1.636 . S
C1148 C538 1.636 . S
C1159 C15 1.932 . S
C1164 C290 2.011 . S
C1175 C55 1.948 . S
C1180 C170 2.009 . S
C1191 C210 1.988 . S
C1196 C95 1.885 . S
C1207 C250 1.986 . S
C1212 C135 1.896 . S
C1223 C459 2.009 . S
C1228 C166 1.949 . S
C1239 C326 1.940 . S
C1244 C19 2.002 . S
C1255 C419 1.989 . S
C1260 C246 1.908 . S
C1271 C99 2.011 . S
C1276 C366 1.948 . S
C1287 C495 1.886 . S
C1292 C370 1.991 . S
C1303 C570 1.987 . S
C1308 C415 1.902 . S
C1319 C535 1.939 . S
C1324 C330 2.013 . S
C1335 C610 1.986 . S
C1340 C455 1.890 . S
C1351 C566 1.947 . S
C1356 C139 2.013 . S
C1367 C206 1.941 . S
C1372 C499 2.012 . S
C1383 C59 1.998 . S
C1388 C606 1.896 . S
C1399 C539 1.986 . S
C1404 C286 1.899 . S
