# Generated by pormake.
# Topology sml, (6)-cn, num edge types: 1
# Building blocks:
#     Node 0, Type 0, BuildingBlock: BETDEL_clean_sbu_0, # of connection points: 6
#     Node 1, Type 0, BuildingBlock: BETDEL_clean_sbu_0, # of connection points: 6
#     Node 2, Type 0, BuildingBlock: BETDEL_clean_sbu_0, # of connection points: 6
#     Node 3, Type 0, BuildingBlock: BETDEL_clean_sbu_0, # of connection points: 6
#     Node 4, Type 0, BuildingBlock: BETDEL_clean_sbu_0, # of connection points: 6
#     Node 5, Type 0, BuildingBlock: BETDEL_clean_sbu_0, # of connection points: 6
#     Edge 6, Type (0, 0), BuildingBlock: TEMPAE_clean_linker_10, # of connection points: 2
#     Edge 7, Type (0, 0), BuildingBlock: TEMPAE_clean_linker_10, # of connection points: 2
#     Edge 8, Type (0, 0), BuildingBlock: TEMPAE_clean_linker_10, # of connection points: 2
#     Edge 9, Type (0, 0), BuildingBlock: TEMPAE_clean_linker_10, # of connection points: 2
#     Edge 10, Type (0, 0), BuildingBlock: TEMPAE_clean_linker_10, # of connection points: 2
#     Edge 11, Type (0, 0), BuildingBlock: TEMPAE_clean_linker_10, # of connection points: 2
#     Edge 12, Type (0, 0), BuildingBlock: TEMPAE_clean_linker_10, # of connection points: 2
#     Edge 13, Type (0, 0), BuildingBlock: TEMPAE_clean_linker_10, # of connection points: 2
#     Edge 14, Type (0, 0), BuildingBlock: TEMPAE_clean_linker_10, # of connection points: 2
#     Edge 15, Type (0, 0), BuildingBlock: TEMPAE_clean_linker_10, # of connection points: 2
#     Edge 16, Type (0, 0), BuildingBlock: TEMPAE_clean_linker_10, # of connection points: 2
#     Edge 17, Type (0, 0), BuildingBlock: TEMPAE_clean_linker_10, # of connection points: 2
#     Edge 18, Type (0, 0), BuildingBlock: TEMPAE_clean_linker_10, # of connection points: 2
#     Edge 19, Type (0, 0), BuildingBlock: TEMPAE_clean_linker_10, # of connection points: 2
#     Edge 20, Type (0, 0), BuildingBlock: TEMPAE_clean_linker_10, # of connection points: 2
#     Edge 21, Type (0, 0), BuildingBlock: TEMPAE_clean_linker_10, # of connection points: 2
#     Edge 22, Type (0, 0), BuildingBlock: TEMPAE_clean_linker_10, # of connection points: 2
#     Edge 23, Type (0, 0), BuildingBlock: TEMPAE_clean_linker_10, # of connection points: 2
# Relax obj value: 0.137
# Max RMSD: 0.175
# Mean RMSD: 0.175
data_MOF--net-sml--node1-BETDEL_clean_sbu_0--edge1-TEMPAE_clean_linker_10
_symmetry_space_group_name_H-M    P1
_symmetry_Int_Tables_number       1
_symmetry_cell_setting            triclinic
loop_
_symmetry_equiv_pos_as_xyz
'x, y, z'
_cell_length_a     36.210654
_cell_length_b     36.188305
_cell_length_c     18.255833
_cell_angle_alpha  90.177103
_cell_angle_beta   89.87127
_cell_angle_gamma 119.99812
loop_
_atom_site_label
_atom_site_type_symbol
_atom_site_fract_x
_atom_site_fract_y
_atom_site_fract_z
_atom_type_partial_charge
Dy0 Dy 0.1823 0.4198 0.0607 0.0
C1 C 0.21651 0.42231 0.36865 0.0
C2 C 0.18566 0.43009 0.91332 0.0
Dy3 Dy 0.21272 0.42851 0.22135 0.0
O4 O 0.1509 0.41623 0.95194 0.0
O5 O 0.21775 0.43906 0.95546 0.0
O6 O 0.12127 0.35924 0.08947 0.0
O7 O 0.15239 0.4077 0.1675 0.0
C8 C 0.12254 0.37012 0.15795 0.0
C9 C 0.2722 0.47869 0.12467 0.0
O10 O 0.21812 0.37158 0.18613 0.0
O11 O 0.1996 0.36862 0.06282 0.0
O12 O 0.24101 0.45606 0.33042 0.0
O13 O 0.19102 0.39105 0.32599 0.0
O14 O 0.2729 0.48952 0.19282 0.0
O15 O 0.24281 0.44091 0.11482 0.0
O16 O 0.18811 0.48287 0.09515 0.0
O17 O 0.18237 0.46889 0.21978 0.0
C18 C 0.21192 0.35457 0.11941 0.0
C19 C 0.18297 0.49216 0.16359 0.0
Dy20 Dy 0.82522 0.24657 0.61617 0.0
C21 C 0.7859 0.20929 0.30729 0.0
C22 C 0.81723 0.25283 0.76271 0.0
Dy23 Dy 0.79094 0.2129 0.4557 0.0
O24 O 0.85013 0.28053 0.7246 0.0
O25 O 0.78966 0.22291 0.7205 0.0
O26 O 0.8868 0.24677 0.59113 0.0
O27 O 0.85158 0.25374 0.50778 0.0
C28 C 0.88258 0.24834 0.52041 0.0
C29 C 0.73237 0.19091 0.56166 0.0
O30 O 0.79903 0.15944 0.49622 0.0
O31 O 0.80252 0.17637 0.6203 0.0
O32 O 0.76154 0.21665 0.35015 0.0
O33 O 0.81172 0.20187 0.34574 0.0
O34 O 0.72572 0.16756 0.50329 0.0
O35 O 0.76697 0.22531 0.55516 0.0
O36 O 0.82448 0.30461 0.57269 0.0
O37 O 0.80848 0.28137 0.45102 0.0
C38 C 0.79787 0.14975 0.56639 0.0
C39 C 0.81821 0.31072 0.50277 0.0
Dy40 Dy 0.58199 0.75094 0.70568 0.0
C41 C 0.59001 0.78257 0.01561 0.0
C42 C 0.58092 0.74433 0.55833 0.0
Dy43 Dy 0.58133 0.78362 0.86913 0.0
O44 O 0.61335 0.75223 0.59937 0.0
O45 O 0.54869 0.73873 0.598 0.0
O46 O 0.60496 0.70815 0.75002 0.0
O47 O 0.62054 0.76559 0.8043 0.0
C48 C 0.62237 0.7317 0.80788 0.0
C49 C 0.52583 0.79081 0.78046 0.0
O50 O 0.63697 0.84235 0.82409 0.0
O51 O 0.62641 0.82202 0.7002 0.0
O52 O 0.59706 0.81645 0.9791 0.0
O53 O 0.5787 0.75034 0.97213 0.0
O54 O 0.52939 0.80103 0.84975 0.0
O55 O 0.55113 0.77762 0.7675 0.0
O56 O 0.52018 0.69672 0.74701 0.0
O57 O 0.53465 0.71359 0.87112 0.0
C58 C 0.64552 0.85071 0.75323 0.0
C59 C 0.51184 0.68735 0.81756 0.0
Dy60 Dy 0.7412 0.58037 0.32243 0.0
C61 C 0.78642 0.59793 0.01647 0.0
C62 C 0.73616 0.57969 0.47162 0.0
Dy63 Dy 0.77861 0.58998 0.1654 0.0
O64 O 0.75162 0.61333 0.43063 0.0
O65 O 0.72168 0.54562 0.43099 0.0
O66 O 0.69789 0.60405 0.28485 0.0
O67 O 0.75724 0.6255 0.23298 0.0
C68 C 0.72244 0.62569 0.23046 0.0
C69 C 0.79595 0.54384 0.25871 0.0
O70 O 0.83532 0.64487 0.216 0.0
O71 O 0.81259 0.62179 0.33521 0.0
O72 O 0.79151 0.57062 0.05485 0.0
O73 O 0.77876 0.6218 0.05979 0.0
O74 O 0.82116 0.5652 0.20471 0.0
O75 O 0.76173 0.5448 0.25461 0.0
O76 O 0.68629 0.52164 0.27246 0.0
O77 O 0.70934 0.54176 0.15252 0.0
C78 C 0.84233 0.64689 0.28751 0.0
C79 C 0.68017 0.51623 0.20044 0.0
Dy80 Dy 0.23599 0.82086 0.40349 0.0
C81 C 0.21252 0.79116 0.71087 0.0
C82 C 0.23987 0.82138 0.25541 0.0
Dy83 Dy 0.2195 0.78994 0.56364 0.0
O84 O 0.2674 0.85239 0.29662 0.0
O85 O 0.21146 0.79082 0.29515 0.0
O86 O 0.23732 0.88176 0.43781 0.0
O87 O 0.25747 0.85053 0.50978 0.0
C88 C 0.24942 0.88035 0.50436 0.0
C89 C 0.20883 0.7306 0.46561 0.0
O90 O 0.1551 0.78132 0.53492 0.0
O91 O 0.16761 0.80309 0.4128 0.0
O92 O 0.21933 0.7641 0.67477 0.0
O93 O 0.20772 0.81635 0.66631 0.0
O94 O 0.21996 0.7299 0.53317 0.0
O95 O 0.19955 0.75957 0.45746 0.0
O96 O 0.29202 0.81137 0.42788 0.0
O97 O 0.28966 0.81743 0.55415 0.0
C98 C 0.14243 0.78849 0.47091 0.0
C99 C 0.30913 0.81586 0.4939 0.0
Dy100 Dy 0.42748 0.17557 0.96818 0.0
C101 C 0.42531 0.21494 0.6601 0.0
C102 C 0.44371 0.18454 0.11451 0.0
Dy103 Dy 0.42405 0.20909 0.80881 0.0
O104 O 0.43589 0.15052 0.07686 0.0
O105 O 0.44355 0.21297 0.07166 0.0
O106 O 0.36577 0.11346 0.94605 0.0
O107 O 0.40582 0.14888 0.86065 0.0
C108 C 0.36995 0.11751 0.87502 0.0
C109 C 0.46231 0.26828 0.91342 0.0
O110 O 0.36292 0.20014 0.85443 0.0
O111 O 0.37939 0.19727 0.97699 0.0
O112 O 0.45699 0.23895 0.70313 0.0
O113 O 0.39199 0.18912 0.69867 0.0
O114 O 0.44376 0.27402 0.85702 0.0
O115 O 0.46286 0.23401 0.90597 0.0
O116 O 0.48413 0.17411 0.91912 0.0
O117 O 0.47384 0.19019 0.79941 0.0
C118 C 0.35594 0.20138 0.9255 0.0
C119 C 0.49427 0.17971 0.84806 0.0
C120 C 0.30189 0.19762 0.01472 0.0
C121 C 0.32502 0.21415 0.94975 0.0
C122 C 0.27798 0.2147 0.04533 0.0
C123 C 0.27869 0.25025 0.01166 0.0
C124 C 0.30108 0.26624 0.94483 0.0
C125 C 0.32342 0.24751 0.91407 0.0
C126 C 0.25331 0.19574 0.11509 0.0
C127 C 0.30359 0.30477 0.90805 0.0
C128 C 0.20116 0.28925 0.05459 0.0
C129 C 0.22503 0.32281 0.10341 0.0
C130 C 0.21705 0.26344 0.02793 0.0
C131 C 0.2585 0.27262 0.04829 0.0
C132 C 0.2821 0.30563 0.09964 0.0
C133 C 0.26472 0.32989 0.12754 0.0
C134 C 0.19023 0.22759 0.97551 0.0
C135 C 0.32686 0.31723 0.12138 0.0
H136 H 0.30324 0.17186 0.04243 0.0
H137 H 0.34196 0.26084 0.86458 0.0
H138 H 0.26901 0.21823 0.16122 0.0
H139 H 0.2205 0.19054 0.11023 0.0
H140 H 0.25135 0.16492 0.12881 0.0
H141 H 0.32139 0.31256 0.85546 0.0
H142 H 0.27112 0.29932 0.89723 0.0
H143 H 0.31971 0.33285 0.94499 0.0
H144 H 0.17047 0.28389 0.03583 0.0
H145 H 0.28349 0.35636 0.16427 0.0
H146 H 0.1903 0.19806 0.9915 0.0
H147 H 0.20391 0.2362 0.91959 0.0
H148 H 0.15673 0.22075 0.97352 0.0
H149 H 0.32742 0.28877 0.1422 0.0
H150 H 0.34022 0.34249 0.16414 0.0
H151 H 0.34799 0.32876 0.0726 0.0
C152 C 0.08667 0.36797 0.27549 0.0
C153 C 0.08881 0.34654 0.21295 0.0
C154 C 0.05332 0.34767 0.3261 0.0
C155 C 0.02181 0.30442 0.31501 0.0
C156 C 0.025 0.28194 0.25382 0.0
C157 C 0.05822 0.30348 0.20283 0.0
C158 C 0.05085 0.37318 0.3897 0.0
C159 C 0.99281 0.23546 0.24139 0.0
C160 C 0.95155 0.25316 0.48221 0.0
C161 C 0.91617 0.2575 0.46549 0.0
C162 C 0.98529 0.26596 0.43184 0.0
C163 C 0.98384 0.28433 0.36415 0.0
C164 C 0.94736 0.28725 0.3462 0.0
C165 C 0.91391 0.27347 0.39677 0.0
C166 C 0.02307 0.26117 0.45209 0.0
C167 C 0.94461 0.30721 0.27532 0.0
H168 H 0.11034 0.40124 0.28374 0.0
H169 H 0.06013 0.28674 0.15492 0.0
H170 H 0.02105 0.37472 0.38588 0.0
H171 H 0.04979 0.35738 0.44222 0.0
H172 H 0.07837 0.40627 0.39118 0.0
H173 H 0.0027 0.22127 0.19681 0.0
H174 H 0.98813 0.217 0.29239 0.0
H175 H 0.96155 0.23202 0.22665 0.0
H176 H 0.95323 0.24053 0.53509 0.0
H177 H 0.88666 0.27701 0.38356 0.0
H178 H 0.05094 0.29298 0.46419 0.0
H179 H 0.03203 0.24736 0.40566 0.0
H180 H 0.01653 0.24059 0.50098 0.0
H181 H 0.96957 0.34144 0.27457 0.0
H182 H 0.91302 0.30479 0.26787 0.0
H183 H 0.95057 0.29169 0.2279 0.0
C184 C 0.74725 0.07224 0.55385 0.0
C185 C 0.78391 0.10531 0.58641 0.0
C186 C 0.72819 0.03055 0.58147 0.0
C187 C 0.74727 0.02152 0.64132 0.0
C188 C 0.78591 0.05441 0.67128 0.0
C189 C 0.80324 0.09623 0.64458 0.0
C190 C 0.68625 0.99683 0.54952 0.0
C191 C 0.80812 0.04575 0.73311 0.0
C192 C 0.67278 0.92871 0.76276 0.0
C193 C 0.67553 0.89494 0.73089 0.0
C194 C 0.69658 0.97029 0.73492 0.0
C195 C 0.72497 0.97844 0.67559 0.0
C196 C 0.72963 0.94475 0.6461 0.0
C197 C 0.7041 0.90316 0.67307 0.0
C198 C 0.68959 0.00497 0.76641 0.0
C199 C 0.7607 0.95242 0.58483 0.0
H200 H 0.73188 0.07954 0.50982 0.0
H201 H 0.83153 0.12198 0.66986 0.0
H202 H 0.68853 0.96874 0.53155 0.0
H203 H 0.66105 0.9857 0.59215 0.0
H204 H 0.67617 0.00882 0.50207 0.0
H205 H 0.84068 0.07309 0.74296 0.0
H206 H 0.78935 0.0395 0.78425 0.0
H207 H 0.81047 0.01691 0.72106 0.0
H208 H 0.65021 0.92216 0.80684 0.0
H209 H 0.70625 0.87695 0.64861 0.0
H210 H 0.67696 0.01721 0.72325 0.0
H211 H 0.72024 0.03219 0.7854 0.0
H212 H 0.66685 0.99351 0.8131 0.0
H213 H 0.74941 0.95994 0.53361 0.0
H214 H 0.76447 0.9242 0.57459 0.0
H215 H 0.7924 0.98025 0.59782 0.0
C216 C 0.63789 0.6796 0.86973 0.0
C217 C 0.63976 0.71922 0.87026 0.0
C218 C 0.65295 0.66647 0.92929 0.0
C219 C 0.66947 0.69326 0.9916 0.0
C220 C 0.67142 0.73335 0.9924 0.0
C221 C 0.6574 0.74624 0.93096 0.0
C222 C 0.65032 0.6235 0.92599 0.0
C223 C 0.68729 0.76212 0.05879 0.0
C224 C 0.66754 0.63635 0.1673 0.0
C225 C 0.70996 0.64565 0.17235 0.0
C226 C 0.65427 0.65287 0.11015 0.0
C227 C 0.68401 0.67881 0.05612 0.0
C228 C 0.72717 0.68919 0.06206 0.0
C229 C 0.73976 0.67306 0.12094 0.0
C230 C 0.60819 0.64176 0.10679 0.0
C231 C 0.75993 0.71673 0.00565 0.0
H232 H 0.62444 0.65866 0.82277 0.0
H233 H 0.65949 0.77717 0.93104 0.0
H234 H 0.68065 0.62603 0.94453 0.0
H235 H 0.62481 0.60101 0.96334 0.0
H236 H 0.64307 0.60968 0.86991 0.0
H237 H 0.68557 0.79169 0.05145 0.0
H238 H 0.66806 0.74491 0.10755 0.0
H239 H 0.7208 0.77115 0.0705 0.0
H240 H 0.64444 0.6155 0.20745 0.0
H241 H 0.77286 0.68151 0.12625 0.0
H242 H 0.59223 0.62011 0.05979 0.0
H243 H 0.60608 0.67094 0.09792 0.0
H244 H 0.59047 0.6258 0.15754 0.0
H245 H 0.76593 0.74986 0.0097 0.0
H246 H 0.74794 0.70505 0.94957 0.0
H247 H 0.79069 0.71736 0.01309 0.0
C248 C 0.06609 0.73243 0.47997 0.0
C249 C 0.09687 0.7738 0.45924 0.0
C250 C 0.02379 0.71424 0.45528 0.0
C251 C 0.01182 0.73864 0.41096 0.0
C252 C 0.04226 0.78153 0.39437 0.0
C253 C 0.08468 0.7983 0.41737 0.0
C254 C 0.99275 0.66801 0.4724 0.0
C255 C 0.03048 0.80913 0.34964 0.0
C256 C 0.92104 0.67859 0.27589 0.0
C257 C 0.88601 0.67437 0.31557 0.0
C258 C 0.96219 0.69964 0.30625 0.0
C259 C 0.96861 0.71814 0.37701 0.0
C260 C 0.93351 0.71557 0.41591 0.0
C261 C 0.89248 0.69298 0.38527 0.0
C262 C 0.99847 0.7005 0.26381 0.0
C263 C 0.93917 0.73601 0.49034 0.0
H264 H 0.07575 0.71323 0.51117 0.0
H265 H 0.10862 0.83028 0.40116 0.0
H266 H 0.96316 0.66458 0.4969 0.0
H267 H 0.9836 0.64912 0.42089 0.0
H268 H 0.0064 0.65415 0.51061 0.0
H269 H 0.05598 0.84319 0.3504 0.0
H270 H 0.02479 0.79792 0.29197 0.0
H271 H 0.00052 0.80665 0.37057 0.0
H272 H 0.91596 0.66356 0.22254 0.0
H273 H 0.86533 0.68968 0.41603 0.0
H274 H 0.01248 0.68451 0.29589 0.0
H275 H 0.02409 0.73391 0.25471 0.0
H276 H 0.98808 0.68435 0.20978 0.0
H277 H 0.94922 0.71988 0.5306 0.0
H278 H 0.90936 0.73427 0.51049 0.0
H279 H 0.9647 0.76999 0.48818 0.0
C280 C 0.36205 0.08664 0.7503 0.0
C281 C 0.34517 0.08347 0.82075 0.0
C282 C 0.34226 0.05322 0.69955 0.0
C283 C 0.30407 0.01573 0.7191 0.0
C284 C 0.28568 0.01308 0.789 0.0
C285 C 0.30671 0.04691 0.83939 0.0
C286 C 0.36355 0.0573 0.62635 0.0
C287 C 0.24446 0.97409 0.81119 0.0
C288 C 0.24644 0.94302 0.55692 0.0
C289 C 0.26029 0.91323 0.56166 0.0
C290 C 0.25842 0.97526 0.61021 0.0
C291 C 0.28578 0.97834 0.66829 0.0
C292 C 0.29894 0.9476 0.67402 0.0
C293 C 0.28563 0.9152 0.62117 0.0
C294 C 0.24262 0.00658 0.60347 0.0
C295 C 0.32867 0.94995 0.73412 0.0
H296 H 0.3919 0.11471 0.73557 0.0
H297 H 0.29348 0.04443 0.89367 0.0
H298 H 0.3734 0.03284 0.62196 0.0
H299 H 0.34091 0.05145 0.58106 0.0
H300 H 0.39214 0.08929 0.61847 0.0
H301 H 0.23179 0.97898 0.86357 0.0
H302 H 0.22004 0.96552 0.76783 0.0
H303 H 0.2496 0.94654 0.81779 0.0
H304 H 0.22641 0.94123 0.51144 0.0
H305 H 0.29631 0.89213 0.62526 0.0
H306 H 0.26953 0.03852 0.58894 0.0
H307 H 0.22962 0.00984 0.65668 0.0
H308 H 0.21753 0.99678 0.56091 0.0
H309 H 0.3595 0.98025 0.72948 0.0
H310 H 0.33501 0.92293 0.73187 0.0
H311 H 0.31502 0.9499 0.78856 0.0
C312 C 0.15502 0.4251 0.78856 0.0
C313 C 0.18852 0.42993 0.83314 0.0
C314 C 0.158 0.42348 0.71198 0.0
C315 C 0.1948 0.4256 0.68033 0.0
C316 C 0.22845 0.43012 0.72554 0.0
C317 C 0.22513 0.43283 0.80133 0.0
C318 C 0.12212 0.41994 0.66496 0.0
C319 C 0.26787 0.43172 0.69401 0.0
C320 C 0.18986 0.38432 0.48737 0.0
C321 C 0.21225 0.42255 0.44853 0.0
C322 C 0.18357 0.38472 0.56315 0.0
C323 C 0.19903 0.4243 0.59984 0.0
C324 C 0.22094 0.46294 0.56031 0.0
C325 C 0.22785 0.46159 0.48519 0.0
C326 C 0.16106 0.34296 0.60408 0.0
C327 C 0.23699 0.5057 0.59729 0.0
H328 H 0.12679 0.4229 0.81344 0.0
H329 H 0.25097 0.43627 0.83591 0.0
H330 H 0.13448 0.44737 0.62672 0.0
H331 H 0.10871 0.39054 0.63113 0.0
H332 H 0.09601 0.41925 0.6981 0.0
H333 H 0.29018 0.4333 0.73721 0.0
H334 H 0.25869 0.40307 0.65962 0.0
H335 H 0.28504 0.46004 0.65819 0.0
H336 H 0.17754 0.35418 0.45859 0.0
H337 H 0.24453 0.49118 0.45474 0.0
H338 H 0.13269 0.33992 0.63295 0.0
H339 H 0.18263 0.34217 0.64635 0.0
H340 H 0.15063 0.31499 0.56723 0.0
H341 H 0.21065 0.50617 0.62767 0.0
H342 H 0.25055 0.53253 0.5576 0.0
H343 H 0.26202 0.51115 0.63778 0.0
C344 C 0.8116 0.20198 0.18436 0.0
C345 C 0.78912 0.21613 0.22755 0.0
C346 C 0.81692 0.2105 0.10895 0.0
C347 C 0.80028 0.23468 0.07665 0.0
C348 C 0.77821 0.2497 0.1205 0.0
C349 C 0.77243 0.23976 0.19537 0.0
C350 C 0.83982 0.19313 0.06367 0.0
C351 C 0.76086 0.27637 0.08842 0.0
C352 C 0.84431 0.28155 0.88869 0.0
C353 C 0.81225 0.25162 0.84298 0.0
C354 C 0.84033 0.27728 0.96535 0.0
C355 C 0.80377 0.24199 0.99625 0.0
C356 C 0.77086 0.21248 0.95003 0.0
C357 C 0.77537 0.21788 0.8741 0.0
C358 C 0.87555 0.30993 0.01322 0.0
C359 C 0.73147 0.17428 0.98055 0.0
H360 H 0.82481 0.18401 0.2095 0.0
H361 H 0.7557 0.25139 0.22912 0.0
H362 H 0.81818 0.17157 0.02049 0.0
H363 H 0.86767 0.2196 0.0357 0.0
H364 H 0.8511 0.17518 0.09728 0.0
H365 H 0.74705 0.28797 0.13091 0.0
H366 H 0.78656 0.30432 0.0593 0.0
H367 H 0.73576 0.25737 0.04757 0.0
H368 H 0.87274 0.30772 0.86462 0.0
H369 H 0.75031 0.19479 0.83889 0.0
H370 H 0.8911 0.29475 0.04314 0.0
H371 H 0.86219 0.32243 0.05487 0.0
H372 H 0.90023 0.33713 0.98104 0.0
H373 H 0.74074 0.15383 0.01152 0.0
H374 H 0.70858 0.15467 0.93698 0.0
H375 H 0.71494 0.1848 0.01937 0.0
C376 C 0.61981 0.75681 0.44078 0.0
C377 C 0.58268 0.74822 0.47851 0.0
C378 C 0.6232 0.76425 0.36523 0.0
C379 C 0.58866 0.76319 0.32738 0.0
C380 C 0.55098 0.75428 0.36532 0.0
C381 C 0.5484 0.74672 0.4407 0.0
C382 C 0.66365 0.77333 0.32599 0.0
C383 C 0.51336 0.75242 0.32624 0.0
C384 C 0.6061 0.81471 0.14073 0.0
C385 C 0.59177 0.77905 0.09516 0.0
C386 C 0.60603 0.81022 0.21702 0.0
C387 C 0.59091 0.76912 0.2473 0.0
C388 C 0.57676 0.73316 0.20115 0.0
C389 C 0.57766 0.73866 0.12551 0.0
C390 C 0.62151 0.84916 0.2652 0.0
C391 C 0.56034 0.68881 0.2315 0.0
H392 H 0.64638 0.75817 0.47041 0.0
H393 H 0.51978 0.74031 0.47021 0.0
H394 H 0.65641 0.74854 0.2837 0.0
H395 H 0.67749 0.80444 0.29731 0.0
H396 H 0.68797 0.77412 0.36395 0.0
H397 H 0.48697 0.74641 0.36437 0.0
H398 H 0.52342 0.78286 0.2971 0.0
H399 H 0.50103 0.72667 0.28443 0.0
H400 H 0.61707 0.8459 0.11687 0.0
H401 H 0.56653 0.71103 0.09006 0.0
H402 H 0.64742 0.85223 0.30154 0.0
H403 H 0.59515 0.84571 0.30096 0.0
H404 H 0.63353 0.87897 0.23288 0.0
H405 H 0.58708 0.68668 0.25663 0.0
H406 H 0.54562 0.66381 0.18851 0.0
H407 H 0.53626 0.68179 0.27494 0.0
C408 C 0.79346 0.57207 0.89289 0.0
C409 C 0.78232 0.59711 0.93596 0.0
C410 C 0.78644 0.56857 0.81683 0.0
C411 C 0.76697 0.58989 0.7836 0.0
C412 C 0.75597 0.61547 0.82699 0.0
C413 C 0.76409 0.61901 0.90256 0.0
C414 C 0.79986 0.54212 0.77205 0.0
C415 C 0.73459 0.63821 0.79397 0.0
C416 C 0.78057 0.61518 0.58049 0.0
C417 C 0.743 0.58146 0.55133 0.0
C418 C 0.78932 0.61752 0.65562 0.0
C419 C 0.7589 0.58628 0.70321 0.0
C420 C 0.72056 0.55234 0.67403 0.0
C421 C 0.71347 0.5498 0.59792 0.0
C422 C 0.83116 0.65341 0.68399 0.0
C423 C 0.68678 0.51921 0.72332 0.0
H424 H 0.80749 0.55506 0.91872 0.0
H425 H 0.75506 0.63802 0.93592 0.0
H426 H 0.77161 0.51533 0.74544 0.0
H427 H 0.82192 0.56185 0.72777 0.0
H428 H 0.81593 0.5288 0.80579 0.0
H429 H 0.73125 0.65956 0.8339 0.0
H430 H 0.75291 0.65755 0.74615 0.0
H431 H 0.7024 0.6143 0.774 0.0
H432 H 0.80374 0.63931 0.54409 0.0
H433 H 0.68447 0.52375 0.57505 0.0
H434 H 0.84801 0.64027 0.71595 0.0
H435 H 0.82522 0.67406 0.72148 0.0
H436 H 0.85248 0.6735 0.63912 0.0
H437 H 0.70009 0.50231 0.75455 0.0
H438 H 0.65849 0.4953 0.69219 0.0
H439 H 0.67627 0.53501 0.76383 0.0
C440 C 0.23341 0.77613 0.83132 0.0
C441 C 0.21684 0.79712 0.79038 0.0
C442 C 0.2406 0.78364 0.90654 0.0
C443 C 0.23008 0.81215 0.94139 0.0
C444 C 0.21349 0.83359 0.90013 0.0
C445 C 0.20742 0.82608 0.82464 0.0
C446 C 0.2589 0.76067 0.94882 0.0
C447 C 0.20134 0.8637 0.9359 0.0
C448 C 0.20134 0.78904 0.14083 0.0
C449 C 0.23825 0.82066 0.17523 0.0
C450 C 0.198 0.78673 0.06469 0.0
C451 C 0.23282 0.81635 0.02197 0.0
C452 C 0.27027 0.84853 0.05627 0.0
C453 C 0.27243 0.85055 0.13309 0.0
C454 C 0.15731 0.75232 0.03006 0.0
C455 C 0.30821 0.88005 0.01191 0.0
H456 H 0.24136 0.75426 0.80438 0.0
H457 H 0.19508 0.84267 0.79251 0.0
H458 H 0.287 0.78384 0.98106 0.0
H459 H 0.23486 0.73815 0.98822 0.0
H460 H 0.26871 0.74243 0.91241 0.0
H461 H 0.18921 0.8781 0.89574 0.0
H462 H 0.17632 0.84638 0.97783 0.0
H463 H 0.2293 0.88975 0.96444 0.0
H464 H 0.17474 0.76604 0.17356 0.0
H465 H 0.30095 0.87491 0.16006 0.0
H466 H 0.16402 0.73042 0.99743 0.0
H467 H 0.14427 0.76681 0.992 0.0
H468 H 0.13249 0.73318 0.0714 0.0
H469 H 0.32055 0.86279 0.97875 0.0
H470 H 0.33443 0.90384 0.04697 0.0
H471 H 0.29859 0.89723 0.9731 0.0
C472 C 0.39304 0.19021 0.53604 0.0
C473 C 0.42933 0.21173 0.58016 0.0
C474 C 0.39679 0.18506 0.46052 0.0
C475 C 0.43778 0.20077 0.429 0.0
C476 C 0.47447 0.22179 0.47385 0.0
C477 C 0.46981 0.22752 0.5487 0.0
C478 C 0.35695 0.16331 0.41431 0.0
C479 C 0.51863 0.23802 0.44289 0.0
C480 C 0.44209 0.15652 0.24114 0.0
C481 C 0.44634 0.1893 0.1951 0.0
C482 C 0.44042 0.16021 0.31779 0.0
C483 C 0.44233 0.1972 0.34851 0.0
C484 C 0.44764 0.23072 0.30202 0.0
C485 C 0.44999 0.22651 0.22612 0.0
C486 C 0.43586 0.12428 0.36581 0.0
C487 C 0.44952 0.27056 0.33217 0.0
H488 H 0.36173 0.17766 0.56052 0.0
H489 H 0.49792 0.24345 0.58306 0.0
H490 H 0.3583 0.18539 0.37095 0.0
H491 H 0.35482 0.13502 0.38651 0.0
H492 H 0.32752 0.15288 0.44718 0.0
H493 H 0.5436 0.25101 0.48602 0.0
H494 H 0.52025 0.2119 0.41376 0.0
H495 H 0.52596 0.26352 0.40227 0.0
H496 H 0.43932 0.12777 0.21729 0.0
H497 H 0.45344 0.25209 0.19077 0.0
H498 H 0.40476 0.10957 0.39476 0.0
H499 H 0.46116 0.1368 0.40827 0.0
H500 H 0.43776 0.09909 0.33394 0.0
H501 H 0.41992 0.26193 0.36326 0.0
H502 H 0.45326 0.29346 0.2884 0.0
H503 H 0.4766 0.28687 0.37082 0.0
C504 C 0.14893 0.52508 0.23501 0.0
C505 C 0.1786 0.52953 0.1814 0.0
C506 C 0.15173 0.56078 0.27044 0.0
C507 C 0.1855 0.602 0.25257 0.0
C508 C 0.21341 0.60691 0.19397 0.0
C509 C 0.20953 0.57042 0.15871 0.0
C510 C 0.12083 0.55393 0.33168 0.0
C511 C 0.24968 0.65027 0.17295 0.0
C512 C 0.18073 0.69406 0.34495 0.0
C513 C 0.20481 0.69982 0.40839 0.0
C514 C 0.17573 0.66375 0.29159 0.0
C515 C 0.19495 0.6384 0.30251 0.0
C516 C 0.22024 0.64501 0.36575 0.0
C517 C 0.2247 0.67551 0.41796 0.0
C518 C 0.14862 0.65781 0.22506 0.0
C519 C 0.2415 0.61886 0.3796 0.0
H520 H 0.12506 0.49335 0.25262 0.0
H521 H 0.23288 0.57381 0.118 0.0
H522 H 0.1375 0.56003 0.38508 0.0
H523 H 0.10872 0.57656 0.32692 0.0
H524 H 0.09323 0.52087 0.33204 0.0
H525 H 0.26353 0.6496 0.11894 0.0
H526 H 0.23894 0.67409 0.17108 0.0
H527 H 0.27518 0.66114 0.21488 0.0
H528 H 0.16468 0.71229 0.33806 0.0
H529 H 0.24351 0.68007 0.4668 0.0
H530 H 0.11879 0.62649 0.22826 0.0
H531 H 0.16555 0.65767 0.17443 0.0
H532 H 0.14006 0.68323 0.22044 0.0
H533 H 0.21684 0.585 0.38853 0.0
H534 H 0.26275 0.63025 0.42824 0.0
H535 H 0.26057 0.61992 0.33119 0.0
C536 C 0.70679 0.21643 0.66609 0.0
C537 C 0.70108 0.18278 0.62039 0.0
C538 C 0.67536 0.21131 0.71653 0.0
C539 C 0.63712 0.17153 0.72125 0.0
C540 C 0.63282 0.13641 0.67968 0.0
C541 C 0.66476 0.14256 0.62905 0.0
C542 C 0.68149 0.2497 0.75948 0.0
C543 C 0.59311 0.09316 0.68469 0.0
C544 C 0.55501 0.16409 0.86174 0.0
C545 C 0.52981 0.17469 0.81805 0.0
C546 C 0.58937 0.16124 0.83097 0.0
C547 C 0.59886 0.1698 0.75531 0.0
C548 C 0.57298 0.17968 0.71113 0.0
C549 C 0.53891 0.18167 0.74273 0.0
C550 C 0.61598 0.15005 0.87958 0.0
C551 C 0.58194 0.18955 0.63035 0.0
H552 H 0.735 0.24759 0.65989 0.0
H553 H 0.66064 0.11628 0.59466 0.0
H554 H 0.66123 0.26158 0.73552 0.0
H555 H 0.67154 0.24106 0.81727 0.0
H556 H 0.71518 0.27605 0.7585 0.0
H557 H 0.59824 0.06764 0.66157 0.0
H558 H 0.58248 0.08528 0.74245 0.0
H559 H 0.56701 0.09353 0.65359 0.0
H560 H 0.54822 0.15844 0.91976 0.0
H561 H 0.51982 0.18963 0.70762 0.0
H562 H 0.64696 0.17916 0.89104 0.0
H563 H 0.62294 0.12683 0.852 0.0
H564 H 0.59995 0.13645 0.9327 0.0
H565 H 0.61424 0.21765 0.62284 0.0
H566 H 0.55848 0.19643 0.60368 0.0
H567 H 0.5813 0.16224 0.60143 0.0
C568 C 0.32702 0.54957 0.07699 0.0
C569 C 0.30386 0.50521 0.06878 0.0
C570 C 0.35808 0.5753 0.02549 0.0
C571 C 0.36661 0.55607 0.96488 0.0
C572 C 0.34266 0.51124 0.95566 0.0
C573 C 0.31149 0.48631 0.0078 0.0
C574 C 0.38255 0.62303 0.03704 0.0
C575 C 0.35088 0.48952 0.89212 0.0
C576 C 0.4338 0.6347 0.8162 0.0
C577 C 0.47489 0.64674 0.84087 0.0
C578 C 0.39769 0.603 0.85327 0.0
C579 C 0.40319 0.58289 0.91557 0.0
C580 C 0.44473 0.59256 0.93632 0.0
C581 C 0.48005 0.62467 0.89915 0.0
C582 C 0.35398 0.59376 0.82959 0.0
C583 C 0.45216 0.57143 0.00141 0.0
H584 H 0.32088 0.56418 0.1239 0.0
H585 H 0.29387 0.45189 0.00188 0.0
H586 H 0.4165 0.63364 0.04849 0.0
H587 H 0.38159 0.63962 0.98668 0.0
H588 H 0.36969 0.63318 0.08336 0.0
H589 H 0.32848 0.45452 0.89142 0.0
H590 H 0.34789 0.50312 0.83959 0.0
H591 H 0.38396 0.4953 0.89513 0.0
H592 H 0.4299 0.65229 0.77179 0.0
H593 H 0.51195 0.63416 0.91819 0.0
H594 H 0.34192 0.60864 0.86908 0.0
H595 H 0.3311 0.55894 0.82953 0.0
H596 H 0.35452 0.60662 0.77417 0.0
H597 H 0.44481 0.58308 0.05262 0.0
H598 H 0.48568 0.57836 0.00436 0.0
H599 H 0.4307 0.53634 -0.0009 0.0
C600 C 0.81137 0.35471 0.405 0.0
C601 C 0.82043 0.35102 0.47861 0.0
C602 C 0.81047 0.39058 0.37951 0.0
C603 C 0.81944 0.42444 0.42831 0.0
C604 C 0.82978 0.42181 0.50232 0.0
C605 C 0.82988 0.38489 0.52686 0.0
C606 C 0.79899 0.39168 0.30018 0.0
C607 C 0.84012 0.45765 0.55554 0.0
C608 C 0.84444 0.52215 0.3172 0.0
C609 C 0.80401 0.51813 0.31207 0.0
C610 C 0.85119 0.49442 0.36157 0.0
C611 C 0.81645 0.46149 0.40044 0.0
C612 C 0.77634 0.45947 0.39955 0.0
C613 C 0.77068 0.48801 0.3556 0.0
C614 C 0.89469 0.49835 0.36228 0.0
C615 C 0.73834 0.42479 0.43965 0.0
H616 H 0.8041 0.32907 0.3666 0.0
H617 H 0.83701 0.38246 0.58367 0.0
H618 H 0.77014 0.39492 0.29698 0.0
H619 H 0.82527 0.41974 0.27231 0.0
H620 H 0.79267 0.36252 0.26953 0.0
H621 H 0.85141 0.45257 0.60907 0.0
H622 H 0.86499 0.48847 0.53232 0.0
H623 H 0.81134 0.46042 0.56513 0.0
H624 H 0.8705 0.54604 0.28466 0.0
H625 H 0.73947 0.48516 0.35232 0.0
H626 H 0.89436 0.47339 0.32639 0.0
H627 H 0.90318 0.4934 0.41832 0.0
H628 H 0.9198 0.53001 0.3421 0.0
H629 H 0.72675 0.39407 0.41021 0.0
H630 H 0.7117 0.43164 0.44323 0.0
H631 H 0.74726 0.42067 0.49582 0.0
C632 C 0.38433 0.85148 0.5339 0.0
C633 C 0.34907 0.81545 0.50434 0.0
C634 C 0.41751 0.84832 0.56735 0.0
C635 C 0.41437 0.80781 0.57365 0.0
C636 C 0.38018 0.77189 0.53909 0.0
C637 C 0.34799 0.77626 0.50425 0.0
C638 C 0.45396 0.88765 0.60159 0.0
C639 C 0.37515 0.72803 0.54534 0.0
C640 C 0.5077 0.80012 0.65249 0.0
C641 C 0.49712 0.79408 0.72707 0.0
C642 C 0.48114 0.80455 0.60144 0.0
C643 C 0.44278 0.80207 0.6257 0.0
C644 C 0.43177 0.79528 0.70106 0.0
C645 C 0.4594 0.79196 0.75094 0.0
C646 C 0.49446 0.81259 0.52201 0.0
C647 C 0.39084 0.79171 0.72921 0.0
H648 H 0.38462 0.88159 0.53502 0.0
H649 H 0.32008 0.74824 0.48289 0.0
H650 H 0.44965 0.88642 0.6619 0.0
H651 H 0.48478 0.88911 0.59026 0.0
H652 H 0.45568 0.91736 0.58113 0.0
H653 H 0.35068 0.7049 0.50691 0.0
H654 H 0.40582 0.72914 0.53448 0.0
H655 H 0.36531 0.71609 0.60204 0.0
H656 H 0.53741 0.80268 0.63443 0.0
H657 H 0.45127 0.78722 0.80866 0.0
H658 H 0.4954 0.84214 0.50297 0.0
H659 H 0.47075 0.78596 0.48768 0.0
H660 H 0.52627 0.81579 0.51275 0.0
H661 H 0.39127 0.82223 0.7203 0.0
H662 H 0.38586 0.78399 0.78854 0.0
H663 H 0.36321 0.76657 0.69854 0.0
C664 C 0.60799 0.44896 0.2132 0.0
C665 C 0.64116 0.47922 0.16921 0.0
C666 C 0.57297 0.41267 0.18164 0.0
C667 C 0.57167 0.40629 0.10472 0.0
C668 C 0.60458 0.43724 0.06031 0.0
C669 C 0.6384 0.47325 0.09283 0.0
C670 C 0.53786 0.38082 0.23051 0.0
C671 C 0.60502 0.43171 0.97817 0.0
C672 C 0.51831 0.29879 0.01005 0.0
C673 C 0.48589 0.30037 0.97091 0.0
C674 C 0.54452 0.33159 0.05872 0.0
C675 C 0.53771 0.36654 0.06935 0.0
C676 C 0.50273 0.36644 0.03439 0.0
C677 C 0.47757 0.33361 0.98468 0.0
C678 C 0.58166 0.33049 0.09386 0.0
C679 C 0.49348 0.40233 0.04592 0.0
H680 H 0.60962 0.45329 0.2721 0.0
H681 H 0.66346 0.49626 0.05768 0.0
H682 H 0.50623 0.37312 0.2086 0.0
H683 H 0.53874 0.35062 0.23176 0.0
H684 H 0.54083 0.39277 0.28755 0.0
H685 H 0.63309 0.45878 0.95151 0.0
H686 H 0.60543 0.40191 0.96541 0.0
H687 H 0.57573 0.4288 0.95346 0.0
H688 H 0.52465 0.27294 -0.00017 0.0
H689 H 0.45198 0.33446 0.95539 0.0
H690 H 0.58362 0.33825 0.153 0.0
H691 H 0.6118 0.35495 0.06795 0.0
H692 H 0.57939 0.29886 0.08763 0.0
H693 H 0.49696 0.41168 0.10454 0.0
H694 H 0.46084 0.39344 0.02747 0.0
H695 H 0.5167 0.43067 0.01432 0.0
loop_
_geom_bond_atom_site_label_1
_geom_bond_atom_site_label_2
_geom_bond_distance
_geom_bond_site_symmetry_2
_ccdc_geom_bond_type
Dy0 O4 2.398 . S
Dy0 O5 2.491 . S
Dy0 O6 2.403 . S
Dy0 O7 2.664 . S
Dy0 O11 2.326 . S
Dy0 O15 2.310 . S
Dy0 O16 2.351 . S
C1 O12 1.185 . S
C1 O13 1.355 . S
C2 O4 1.185 . S
C2 O5 1.355 . S
Dy3 O7 2.310 . S
Dy3 O10 2.351 . S
Dy3 O12 2.398 . S
Dy3 O13 2.491 . S
Dy3 O14 2.403 . S
Dy3 O15 2.664 . S
Dy3 O17 2.326 . S
O4 Dy0 2.398 . S
O4 C2 1.185 . S
O5 Dy0 2.491 . S
O5 C2 1.355 . S
O6 Dy0 2.403 . S
O6 C8 1.254 . S
O7 Dy0 2.664 . S
O7 Dy3 2.310 . S
O7 C8 1.268 . S
C8 O6 1.254 . S
C8 O7 1.268 . S
C9 O14 1.254 . S
C9 O15 1.268 . S
O10 Dy3 2.351 . S
O10 C18 1.249 . S
O11 Dy0 2.326 . S
O11 C18 1.267 . S
O12 C1 1.185 . S
O12 Dy3 2.398 . S
O13 C1 1.355 . S
O13 Dy3 2.491 . S
O14 Dy3 2.403 . S
O14 C9 1.254 . S
O15 Dy0 2.310 . S
O15 Dy3 2.664 . S
O15 C9 1.268 . S
O16 Dy0 2.351 . S
O16 C19 1.249 . S
O17 Dy3 2.326 . S
O17 C19 1.267 . S
C18 O10 1.249 . S
C18 O11 1.267 . S
C19 O16 1.249 . S
C19 O17 1.267 . S
Dy20 O24 2.398 . S
Dy20 O25 2.491 . S
Dy20 O26 2.403 . S
Dy20 O27 2.664 . S
Dy20 O31 2.326 . S
Dy20 O35 2.310 . S
Dy20 O36 2.351 . S
C21 O32 1.185 . S
C21 O33 1.355 . S
C22 O24 1.185 . S
C22 O25 1.355 . S
Dy23 O27 2.310 . S
Dy23 O30 2.351 . S
Dy23 O32 2.398 . S
Dy23 O33 2.491 . S
Dy23 O34 2.403 . S
Dy23 O35 2.664 . S
Dy23 O37 2.326 . S
O24 Dy20 2.398 . S
O24 C22 1.185 . S
O25 Dy20 2.491 . S
O25 C22 1.355 . S
O26 Dy20 2.403 . S
O26 C28 1.254 . S
O27 Dy20 2.664 . S
O27 Dy23 2.310 . S
O27 C28 1.268 . S
C28 O26 1.254 . S
C28 O27 1.268 . S
C29 O34 1.254 . S
C29 O35 1.268 . S
O30 Dy23 2.351 . S
O30 C38 1.249 . S
O31 Dy20 2.326 . S
O31 C38 1.267 . S
O32 C21 1.185 . S
O32 Dy23 2.398 . S
O33 C21 1.355 . S
O33 Dy23 2.491 . S
O34 Dy23 2.403 . S
O34 C29 1.254 . S
O35 Dy20 2.310 . S
O35 Dy23 2.664 . S
O35 C29 1.268 . S
O36 Dy20 2.351 . S
O36 C39 1.249 . S
O37 Dy23 2.326 . S
O37 C39 1.267 . S
C38 O30 1.249 . S
C38 O31 1.267 . S
C39 O36 1.249 . S
C39 O37 1.267 . S
Dy40 O44 2.398 . S
Dy40 O45 2.491 . S
Dy40 O46 2.403 . S
Dy40 O47 2.664 . S
Dy40 O51 2.326 . S
Dy40 O55 2.310 . S
Dy40 O56 2.351 . S
C41 O52 1.185 . S
C41 O53 1.355 . S
C42 O44 1.185 . S
C42 O45 1.355 . S
Dy43 O47 2.310 1_554 S
Dy43 O50 2.351 1_554 S
Dy43 O52 2.398 . S
Dy43 O53 2.491 . S
Dy43 O54 2.403 . S
Dy43 O55 2.664 1_554 S
Dy43 O57 2.326 . S
O44 Dy40 2.398 . S
O44 C42 1.185 . S
O45 Dy40 2.491 . S
O45 C42 1.355 . S
O46 Dy40 2.403 . S
O46 C48 1.254 . S
O47 Dy40 2.664 . S
O47 Dy43 2.310 1_556 S
O47 C48 1.268 . S
C48 O46 1.254 . S
C48 O47 1.268 . S
C49 O54 1.254 1_556 S
C49 O55 1.268 . S
O50 Dy43 2.351 1_556 S
O50 C58 1.249 . S
O51 Dy40 2.326 . S
O51 C58 1.267 . S
O52 C41 1.185 . S
O52 Dy43 2.398 . S
O53 C41 1.355 . S
O53 Dy43 2.491 . S
O54 Dy43 2.403 . S
O54 C49 1.254 1_554 S
O55 Dy40 2.310 . S
O55 Dy43 2.664 1_556 S
O55 C49 1.268 . S
O56 Dy40 2.351 . S
O56 C59 1.249 1_556 S
O57 Dy43 2.326 . S
O57 C59 1.267 . S
C58 O50 1.249 . S
C58 O51 1.267 . S
C59 O56 1.249 1_554 S
C59 O57 1.267 . S
Dy60 O64 2.398 . S
Dy60 O65 2.491 . S
Dy60 O66 2.403 . S
Dy60 O67 2.664 . S
Dy60 O71 2.326 . S
Dy60 O75 2.310 . S
Dy60 O76 2.351 . S
C61 O72 1.185 . S
C61 O73 1.355 . S
C62 O64 1.185 . S
C62 O65 1.355 . S
Dy63 O67 2.310 1_556 S
Dy63 O70 2.351 1_556 S
Dy63 O72 2.398 . S
Dy63 O73 2.491 . S
Dy63 O74 2.403 1_556 S
Dy63 O75 2.664 1_556 S
Dy63 O77 2.326 . S
O64 Dy60 2.398 . S
O64 C62 1.185 . S
O65 Dy60 2.491 . S
O65 C62 1.355 . S
O66 Dy60 2.403 . S
O66 C68 1.254 . S
O67 Dy60 2.664 . S
O67 Dy63 2.310 1_554 S
O67 C68 1.268 . S
C68 O66 1.254 . S
C68 O67 1.268 . S
C69 O74 1.254 . S
C69 O75 1.268 . S
O70 Dy63 2.351 1_554 S
O70 C78 1.249 . S
O71 Dy60 2.326 . S
O71 C78 1.267 . S
O72 C61 1.185 . S
O72 Dy63 2.398 . S
O73 C61 1.355 . S
O73 Dy63 2.491 . S
O74 Dy63 2.403 1_554 S
O74 C69 1.254 . S
O75 Dy60 2.310 . S
O75 Dy63 2.664 1_554 S
O75 C69 1.268 . S
O76 Dy60 2.351 . S
O76 C79 1.249 . S
O77 Dy63 2.326 . S
O77 C79 1.267 1_556 S
C78 O70 1.249 . S
C78 O71 1.267 . S
C79 O76 1.249 . S
C79 O77 1.267 1_554 S
Dy80 O84 2.398 . S
Dy80 O85 2.491 . S
Dy80 O86 2.403 . S
Dy80 O87 2.664 . S
Dy80 O91 2.326 . S
Dy80 O95 2.310 . S
Dy80 O96 2.351 . S
C81 O92 1.185 . S
C81 O93 1.355 . S
C82 O84 1.185 . S
C82 O85 1.355 . S
Dy83 O87 2.310 . S
Dy83 O90 2.351 . S
Dy83 O92 2.398 . S
Dy83 O93 2.491 . S
Dy83 O94 2.403 . S
Dy83 O95 2.664 . S
Dy83 O97 2.326 . S
O84 Dy80 2.398 . S
O84 C82 1.185 . S
O85 Dy80 2.491 . S
O85 C82 1.355 . S
O86 Dy80 2.403 . S
O86 C88 1.254 . S
O87 Dy80 2.664 . S
O87 Dy83 2.310 . S
O87 C88 1.268 . S
C88 O86 1.254 . S
C88 O87 1.268 . S
C89 O94 1.254 . S
C89 O95 1.268 . S
O90 Dy83 2.351 . S
O90 C98 1.249 . S
O91 Dy80 2.326 . S
O91 C98 1.267 . S
O92 C81 1.185 . S
O92 Dy83 2.398 . S
O93 C81 1.355 . S
O93 Dy83 2.491 . S
O94 Dy83 2.403 . S
O94 C89 1.254 . S
O95 Dy80 2.310 . S
O95 Dy83 2.664 . S
O95 C89 1.268 . S
O96 Dy80 2.351 . S
O96 C99 1.249 . S
O97 Dy83 2.326 . S
O97 C99 1.267 . S
C98 O90 1.249 . S
C98 O91 1.267 . S
C99 O96 1.249 . S
C99 O97 1.267 . S
Dy100 O104 2.398 . S
Dy100 O105 2.491 . S
Dy100 O106 2.403 . S
Dy100 O107 2.664 . S
Dy100 O111 2.326 . S
Dy100 O115 2.310 . S
Dy100 O116 2.351 . S
C101 O112 1.185 . S
C101 O113 1.355 . S
C102 O104 1.185 . S
C102 O105 1.355 . S
Dy103 O107 2.310 . S
Dy103 O110 2.351 . S
Dy103 O112 2.398 . S
Dy103 O113 2.491 . S
Dy103 O114 2.403 . S
Dy103 O115 2.664 . S
Dy103 O117 2.326 . S
O104 Dy100 2.398 . S
O104 C102 1.185 . S
O105 Dy100 2.491 . S
O105 C102 1.355 . S
O106 Dy100 2.403 . S
O106 C108 1.254 . S
O107 Dy100 2.664 . S
O107 Dy103 2.310 . S
O107 C108 1.268 . S
C108 O106 1.254 . S
C108 O107 1.268 . S
C109 O114 1.254 . S
C109 O115 1.268 . S
O110 Dy103 2.351 . S
O110 C118 1.249 . S
O111 Dy100 2.326 . S
O111 C118 1.267 . S
O112 C101 1.185 . S
O112 Dy103 2.398 . S
O113 C101 1.355 . S
O113 Dy103 2.491 . S
O114 Dy103 2.403 . S
O114 C109 1.254 . S
O115 Dy100 2.310 . S
O115 Dy103 2.664 . S
O115 C109 1.268 . S
O116 Dy100 2.351 . S
O116 C119 1.249 . S
O117 Dy103 2.326 . S
O117 C119 1.267 . S
C118 O110 1.249 . S
C118 O111 1.267 . S
C119 O116 1.249 . S
C119 O117 1.267 . S
C120 C121 1.391 . S
C120 C122 1.394 . S
C120 H136 0.931 . S
C121 C120 1.391 . S
C121 C125 1.376 . S
C122 C120 1.394 . S
C122 C123 1.369 . S
C122 C126 1.531 1_556 S
C123 C122 1.369 . S
C123 C124 1.410 . S
C123 C131 1.503 1_556 S
C124 C123 1.410 . S
C124 C125 1.392 . S
C124 C127 1.511 . S
C125 C121 1.376 . S
C125 C124 1.392 . S
C125 H137 0.929 . S
C126 C122 1.531 1_554 S
C126 H138 0.960 . S
C126 H139 0.962 . S
C126 H140 0.960 . S
C127 C124 1.511 . S
C127 H141 0.961 . S
C127 H142 0.961 . S
C127 H143 0.961 . S
C128 C129 1.370 . S
C128 C130 1.363 . S
C128 H144 0.931 . S
C129 C128 1.370 . S
C129 C133 1.408 . S
C130 C128 1.363 . S
C130 C131 1.370 . S
C130 C134 1.524 . S
C131 C123 1.503 1_554 S
C131 C130 1.370 . S
C131 C132 1.403 . S
C132 C131 1.403 . S
C132 C133 1.404 . S
C132 C135 1.539 . S
C133 C129 1.408 . S
C133 C132 1.404 . S
C133 H145 0.930 . S
C134 C130 1.524 . S
C134 H146 0.956 . S
C134 H147 0.961 . S
C134 H148 0.961 . S
C135 C132 1.539 . S
C135 H149 0.958 . S
C135 H150 0.961 1_554 S
C135 H151 0.960 1_554 S
H136 C120 0.931 . S
H137 C125 0.929 . S
H138 C126 0.960 . S
H139 C126 0.962 . S
H140 C126 0.960 . S
H141 C127 0.961 . S
H142 C127 0.961 . S
H143 C127 0.961 . S
H144 C128 0.931 . S
H145 C133 0.930 . S
H146 C134 0.956 . S
H147 C134 0.961 . S
H148 C134 0.961 . S
H149 C135 0.958 . S
H150 C135 0.961 1_556 S
H151 C135 0.960 1_556 S
C152 C153 1.391 . S
C152 C154 1.394 . S
C152 H168 0.931 . S
C153 C152 1.391 . S
C153 C157 1.376 . S
C154 C152 1.394 . S
C154 C155 1.369 . S
C154 C158 1.531 . S
C155 C154 1.369 . S
C155 C156 1.410 . S
C155 C163 1.503 1_455 S
C156 C155 1.410 . S
C156 C157 1.392 . S
C156 C159 1.511 . S
C157 C153 1.376 . S
C157 C156 1.392 . S
C157 H169 0.929 . S
C158 C154 1.531 . S
C158 H170 0.960 . S
C158 H171 0.962 . S
C158 H172 0.960 . S
C159 C156 1.511 . S
C159 H173 0.961 . S
C159 H174 0.961 1_455 S
C159 H175 0.961 . S
C160 C161 1.370 . S
C160 C162 1.363 . S
C160 H176 0.931 . S
C161 C160 1.370 . S
C161 C165 1.408 . S
C162 C160 1.363 . S
C162 C163 1.370 . S
C162 C166 1.524 . S
C163 C155 1.503 1_655 S
C163 C162 1.370 . S
C163 C164 1.403 . S
C164 C163 1.403 . S
C164 C165 1.404 . S
C164 C167 1.539 . S
C165 C161 1.408 . S
C165 C164 1.404 . S
C165 H177 0.930 . S
C166 C162 1.524 . S
C166 H178 0.956 . S
C166 H179 0.961 . S
C166 H180 0.961 . S
C167 C164 1.539 . S
C167 H181 0.958 . S
C167 H182 0.961 . S
C167 H183 0.960 1_655 S
H168 C152 0.931 . S
H169 C157 0.929 . S
H170 C158 0.960 . S
H171 C158 0.962 . S
H172 C158 0.960 . S
H173 C159 0.961 . S
H174 C159 0.961 1_655 S
H175 C159 0.961 . S
H176 C160 0.931 . S
H177 C165 0.930 . S
H178 C166 0.956 . S
H179 C166 0.961 . S
H180 C166 0.961 . S
H181 C167 0.958 . S
H182 C167 0.961 . S
H183 C167 0.960 1_455 S
C184 C185 1.391 . S
C184 C186 1.394 . S
C184 H200 0.931 . S
C185 C184 1.391 . S
C185 C189 1.376 . S
C186 C184 1.394 . S
C186 C187 1.369 . S
C186 C190 1.531 . S
C187 C186 1.369 . S
C187 C188 1.410 . S
C187 C195 1.503 1_545 S
C188 C187 1.410 . S
C188 C189 1.392 . S
C188 C191 1.511 1_545 S
C189 C185 1.376 . S
C189 C188 1.392 . S
C189 H201 0.929 . S
C190 C186 1.531 . S
C190 H202 0.960 1_545 S
C190 H203 0.962 . S
C190 H204 0.960 . S
C191 C188 1.511 1_565 S
C191 H205 0.961 1_565 S
C191 H206 0.961 . S
C191 H207 0.961 . S
C192 C193 1.370 . S
C192 C194 1.363 . S
C192 H208 0.931 . S
C193 C192 1.370 . S
C193 C197 1.408 . S
C194 C192 1.363 . S
C194 C195 1.370 . S
C194 C198 1.524 1_565 S
C195 C187 1.503 1_565 S
C195 C194 1.370 . S
C195 C196 1.403 . S
C196 C195 1.403 . S
C196 C197 1.404 . S
C196 C199 1.539 . S
C197 C193 1.408 . S
C197 C196 1.404 . S
C197 H209 0.930 . S
C198 C194 1.524 1_545 S
C198 H210 0.956 . S
C198 H211 0.961 . S
C198 H212 0.961 . S
C199 C196 1.539 . S
C199 H213 0.958 . S
C199 H214 0.961 . S
C199 H215 0.960 . S
H200 C184 0.931 . S
H201 C189 0.929 . S
H202 C190 0.960 1_565 S
H203 C190 0.962 . S
H204 C190 0.960 . S
H205 C191 0.961 1_545 S
H206 C191 0.961 . S
H207 C191 0.961 . S
H208 C192 0.931 . S
H209 C197 0.930 . S
H210 C198 0.956 . S
H211 C198 0.961 . S
H212 C198 0.961 . S
H213 C199 0.958 . S
H214 C199 0.961 . S
H215 C199 0.960 . S
C216 C217 1.391 1_554 S
C216 C218 1.394 . S
C216 H232 0.931 . S
C217 C216 1.391 1_556 S
C217 C221 1.376 . S
C218 C216 1.394 . S
C218 C219 1.369 . S
C218 C222 1.531 . S
C219 C218 1.369 . S
C219 C220 1.410 1_554 S
C219 C227 1.503 . S
C220 C219 1.410 1_556 S
C220 C221 1.392 . S
C220 C223 1.511 . S
C221 C217 1.376 . S
C221 C220 1.392 . S
C221 H233 0.929 . S
C222 C218 1.531 . S
C222 H234 0.960 . S
C222 H235 0.962 . S
C222 H236 0.960 . S
C223 C220 1.511 . S
C223 H237 0.961 . S
C223 H238 0.961 . S
C223 H239 0.961 . S
C224 C225 1.370 . S
C224 C226 1.363 . S
C224 H240 0.931 . S
C225 C224 1.370 . S
C225 C229 1.408 1_554 S
C226 C224 1.363 . S
C226 C227 1.370 . S
C226 C230 1.524 . S
C227 C219 1.503 . S
C227 C226 1.370 . S
C227 C228 1.403 1_554 S
C228 C227 1.403 1_556 S
C228 C229 1.404 . S
C228 C231 1.539 . S
C229 C225 1.408 1_556 S
C229 C228 1.404 . S
C229 H241 0.930 . S
C230 C226 1.524 . S
C230 H242 0.956 . S
C230 H243 0.961 . S
C230 H244 0.961 . S
C231 C228 1.539 . S
C231 H245 0.958 . S
C231 H246 0.961 . S
C231 H247 0.960 . S
H232 C216 0.931 . S
H233 C221 0.929 . S
H234 C222 0.960 . S
H235 C222 0.962 . S
H236 C222 0.960 . S
H237 C223 0.961 . S
H238 C223 0.961 . S
H239 C223 0.961 . S
H240 C224 0.931 . S
H241 C229 0.930 . S
H242 C230 0.956 . S
H243 C230 0.961 . S
H244 C230 0.961 . S
H245 C231 0.958 . S
H246 C231 0.961 . S
H247 C231 0.960 . S
C248 C249 1.391 . S
C248 C250 1.394 . S
C248 H264 0.931 . S
C249 C248 1.391 . S
C249 C253 1.376 . S
C250 C248 1.394 . S
C250 C251 1.369 . S
C250 C254 1.531 . S
C251 C250 1.369 . S
C251 C252 1.410 . S
C251 C259 1.503 1_455 S
C252 C251 1.410 . S
C252 C253 1.392 . S
C252 C255 1.511 1_455 S
C253 C249 1.376 . S
C253 C252 1.392 . S
C253 H265 0.929 . S
C254 C250 1.531 . S
C254 H266 0.960 . S
C254 H267 0.962 . S
C254 H268 0.960 . S
C255 C252 1.511 1_655 S
C255 H269 0.961 . S
C255 H270 0.961 . S
C255 H271 0.961 . S
C256 C257 1.370 . S
C256 C258 1.363 . S
C256 H272 0.931 . S
C257 C256 1.370 . S
C257 C261 1.408 . S
C258 C256 1.363 . S
C258 C259 1.370 . S
C258 C262 1.524 1_655 S
C259 C251 1.503 1_655 S
C259 C258 1.370 . S
C259 C260 1.403 . S
C260 C259 1.403 . S
C260 C261 1.404 . S
C260 C263 1.539 . S
C261 C257 1.408 . S
C261 C260 1.404 . S
C261 H273 0.930 . S
C262 C258 1.524 1_455 S
C262 H274 0.956 . S
C262 H275 0.961 . S
C262 H276 0.961 . S
C263 C260 1.539 . S
C263 H277 0.958 . S
C263 H278 0.961 . S
C263 H279 0.960 . S
H264 C248 0.931 . S
H265 C253 0.929 . S
H266 C254 0.960 . S
H267 C254 0.962 . S
H268 C254 0.960 . S
H269 C255 0.961 . S
H270 C255 0.961 . S
H271 C255 0.961 . S
H272 C256 0.931 . S
H273 C261 0.930 . S
H274 C262 0.956 . S
H275 C262 0.961 . S
H276 C262 0.961 . S
H277 C263 0.958 . S
H278 C263 0.961 . S
H279 C263 0.960 . S
C280 C281 1.391 . S
C280 C282 1.394 . S
C280 H296 0.931 . S
C281 C280 1.391 . S
C281 C285 1.376 . S
C282 C280 1.394 . S
C282 C283 1.369 . S
C282 C286 1.531 . S
C283 C282 1.369 . S
C283 C284 1.410 . S
C283 C291 1.503 1_545 S
C284 C283 1.410 . S
C284 C285 1.392 . S
C284 C287 1.511 . S
C285 C281 1.376 . S
C285 C284 1.392 . S
C285 H297 0.929 . S
C286 C282 1.531 . S
C286 H298 0.960 1_545 S
C286 H299 0.962 . S
C286 H300 0.960 . S
C287 C284 1.511 . S
C287 H301 0.961 . S
C287 H302 0.974 . S
C287 H303 0.961 . S
C288 C289 1.370 . S
C288 C290 1.363 . S
C288 H304 0.931 . S
C289 C288 1.370 . S
C289 C293 1.408 . S
C290 C288 1.363 . S
C290 C291 1.370 . S
C290 C294 1.524 . S
C291 C283 1.503 1_565 S
C291 C290 1.370 . S
C291 C292 1.403 . S
C292 C291 1.403 . S
C292 C293 1.404 . S
C292 C295 1.539 . S
C293 C289 1.408 . S
C293 C292 1.404 . S
C293 H305 0.930 . S
C294 C290 1.524 . S
C294 H306 0.956 1_565 S
C294 H307 0.961 1_565 S
C294 H308 0.961 . S
C295 C292 1.539 . S
C295 H309 0.958 . S
C295 H310 0.961 . S
C295 H311 0.960 . S
H296 C280 0.931 . S
H297 C285 0.929 . S
H298 C286 0.960 1_565 S
H299 C286 0.962 . S
H300 C286 0.960 . S
H301 C287 0.961 . S
H302 C287 0.974 . S
H303 C287 0.961 . S
H304 C288 0.931 . S
H305 C293 0.930 . S
H306 C294 0.956 1_545 S
H307 C294 0.961 1_545 S
H308 C294 0.961 . S
H309 C295 0.958 . S
H310 C295 0.961 . S
H311 C295 0.960 . S
C312 C313 1.391 . S
C312 C314 1.394 . S
C312 H328 0.931 . S
C313 C312 1.391 . S
C313 C317 1.376 . S
C314 C312 1.394 . S
C314 C315 1.369 . S
C314 C318 1.531 . S
C315 C314 1.369 . S
C315 C316 1.410 . S
C315 C323 1.503 . S
C316 C315 1.410 . S
C316 C317 1.392 . S
C316 C319 1.511 . S
C317 C313 1.376 . S
C317 C316 1.392 . S
C317 H329 0.929 . S
C318 C314 1.531 . S
C318 H330 0.960 . S
C318 H331 0.962 . S
C318 H332 0.960 . S
C319 C316 1.511 . S
C319 H333 0.961 . S
C319 H334 0.961 . S
C319 H335 0.961 . S
C320 C321 1.370 . S
C320 C322 1.363 . S
C320 H336 0.931 . S
C321 C320 1.370 . S
C321 C325 1.408 . S
C322 C320 1.363 . S
C322 C323 1.370 . S
C322 C326 1.524 . S
C323 C315 1.503 . S
C323 C322 1.370 . S
C323 C324 1.403 . S
C324 C323 1.403 . S
C324 C325 1.404 . S
C324 C327 1.539 . S
C325 C321 1.408 . S
C325 C324 1.404 . S
C325 H337 0.930 . S
C326 C322 1.524 . S
C326 H338 0.956 . S
C326 H339 0.961 . S
C326 H340 0.961 . S
C327 C324 1.539 . S
C327 H341 0.958 . S
C327 H342 0.961 . S
C327 H343 0.960 . S
H328 C312 0.931 . S
H329 C317 0.929 . S
H330 C318 0.960 . S
H331 C318 0.962 . S
H332 C318 0.960 . S
H333 C319 0.961 . S
H334 C319 0.961 . S
H335 C319 0.961 . S
H336 C320 0.931 . S
H337 C325 0.930 . S
H338 C326 0.956 . S
H339 C326 0.961 . S
H340 C326 0.961 . S
H341 C327 0.958 . S
H342 C327 0.961 . S
H343 C327 0.960 . S
C344 C345 1.391 . S
C344 C346 1.394 1_554 S
C344 H360 0.931 . S
C345 C344 1.391 . S
C345 C349 1.376 . S
C346 C344 1.394 1_556 S
C346 C347 1.369 . S
C346 C350 1.531 . S
C347 C346 1.369 . S
C347 C348 1.410 . S
C347 C355 1.503 . S
C348 C347 1.410 . S
C348 C349 1.392 1_556 S
C348 C351 1.511 . S
C349 C345 1.376 . S
C349 C348 1.392 1_554 S
C349 H361 0.929 . S
C350 C346 1.531 . S
C350 H362 0.960 . S
C350 H363 0.962 . S
C350 H364 0.960 . S
C351 C348 1.511 . S
C351 H365 0.961 . S
C351 H366 0.961 . S
C351 H367 0.961 . S
C352 C353 1.370 . S
C352 C354 1.363 . S
C352 H368 0.931 . S
C353 C352 1.370 . S
C353 C357 1.408 . S
C354 C352 1.363 . S
C354 C355 1.370 . S
C354 C358 1.524 . S
C355 C347 1.503 . S
C355 C354 1.370 . S
C355 C356 1.403 . S
C356 C355 1.403 . S
C356 C357 1.404 . S
C356 C359 1.539 . S
C357 C353 1.408 . S
C357 C356 1.404 . S
C357 H369 0.930 . S
C358 C354 1.524 . S
C358 H370 0.956 . S
C358 H371 0.961 . S
C358 H372 0.961 . S
C359 C356 1.539 . S
C359 H373 0.958 . S
C359 H374 0.961 . S
C359 H375 0.960 . S
H360 C344 0.931 . S
H361 C349 0.929 . S
H362 C350 0.960 . S
H363 C350 0.962 . S
H364 C350 0.960 . S
H365 C351 0.961 . S
H366 C351 0.961 . S
H367 C351 0.961 . S
H368 C352 0.931 . S
H369 C357 0.930 . S
H370 C358 0.956 . S
H371 C358 0.961 . S
H372 C358 0.961 . S
H373 C359 0.958 . S
H374 C359 0.961 . S
H375 C359 0.960 . S
C376 C377 1.391 . S
C376 C378 1.394 . S
C376 H392 0.931 . S
C377 C376 1.391 . S
C377 C381 1.376 . S
C378 C376 1.394 . S
C378 C379 1.369 . S
C378 C382 1.531 . S
C379 C378 1.369 . S
C379 C380 1.410 . S
C379 C387 1.503 . S
C380 C379 1.410 . S
C380 C381 1.392 . S
C380 C383 1.511 . S
C381 C377 1.376 . S
C381 C380 1.392 . S
C381 H393 0.929 . S
C382 C378 1.531 . S
C382 H394 0.960 . S
C382 H395 0.962 . S
C382 H396 0.960 . S
C383 C380 1.511 . S
C383 H397 0.961 . S
C383 H398 0.961 . S
C383 H399 0.961 . S
C384 C385 1.370 . S
C384 C386 1.363 . S
C384 H400 0.931 . S
C385 C384 1.370 . S
C385 C389 1.408 . S
C386 C384 1.363 . S
C386 C387 1.370 . S
C386 C390 1.524 . S
C387 C379 1.503 . S
C387 C386 1.370 . S
C387 C388 1.403 . S
C388 C387 1.403 . S
C388 C389 1.404 . S
C388 C391 1.539 . S
C389 C385 1.408 . S
C389 C388 1.404 . S
C389 H401 0.930 . S
C390 C386 1.524 . S
C390 H402 0.956 . S
C390 H403 0.961 . S
C390 H404 0.961 . S
C391 C388 1.539 . S
C391 H405 0.958 . S
C391 H406 0.961 . S
C391 H407 0.960 . S
H392 C376 0.931 . S
H393 C381 0.929 . S
H394 C382 0.960 . S
H395 C382 0.962 . S
H396 C382 0.960 . S
H397 C383 0.961 . S
H398 C383 0.961 . S
H399 C383 0.961 . S
H400 C384 0.931 . S
H401 C389 0.930 . S
H402 C390 0.956 . S
H403 C390 0.961 . S
H404 C390 0.961 . S
H405 C391 0.958 . S
H406 C391 0.961 . S
H407 C391 0.960 . S
C408 C409 1.391 . S
C408 C410 1.394 . S
C408 H424 0.931 . S
C409 C408 1.391 . S
C409 C413 1.376 . S
C410 C408 1.394 . S
C410 C411 1.369 . S
C410 C414 1.531 . S
C411 C410 1.369 . S
C411 C412 1.410 . S
C411 C419 1.503 . S
C412 C411 1.410 . S
C412 C413 1.392 . S
C412 C415 1.511 . S
C413 C409 1.376 . S
C413 C412 1.392 . S
C413 H425 0.929 . S
C414 C410 1.531 . S
C414 H426 0.960 . S
C414 H427 0.962 . S
C414 H428 0.960 . S
C415 C412 1.511 . S
C415 H429 0.961 . S
C415 H430 0.961 . S
C415 H431 0.961 . S
C416 C417 1.370 . S
C416 C418 1.363 . S
C416 H432 0.931 . S
C417 C416 1.370 . S
C417 C421 1.408 . S
C418 C416 1.363 . S
C418 C419 1.370 . S
C418 C422 1.524 . S
C419 C411 1.503 . S
C419 C418 1.370 . S
C419 C420 1.403 . S
C420 C419 1.403 . S
C420 C421 1.404 . S
C420 C423 1.539 . S
C421 C417 1.408 . S
C421 C420 1.404 . S
C421 H433 0.930 . S
C422 C418 1.524 . S
C422 H434 0.956 . S
C422 H435 0.961 . S
C422 H436 0.961 . S
C423 C420 1.539 . S
C423 H437 0.958 . S
C423 H438 0.961 . S
C423 H439 0.960 . S
H424 C408 0.931 . S
H425 C413 0.929 . S
H426 C414 0.960 . S
H427 C414 0.962 . S
H428 C414 0.960 . S
H429 C415 0.961 . S
H430 C415 0.961 . S
H431 C415 0.961 . S
H432 C416 0.931 . S
H433 C421 0.930 . S
H434 C422 0.956 . S
H435 C422 0.961 . S
H436 C422 0.961 . S
H437 C423 0.958 . S
H438 C423 0.961 . S
H439 C423 0.960 . S
C440 C441 1.391 . S
C440 C442 1.394 1_556 S
C440 H456 0.931 . S
C441 C440 1.391 . S
C441 C445 1.376 . S
C442 C440 1.394 1_554 S
C442 C443 1.369 . S
C442 C446 1.531 . S
C443 C442 1.369 . S
C443 C444 1.410 . S
C443 C451 1.503 . S
C444 C443 1.410 . S
C444 C445 1.392 1_554 S
C444 C447 1.511 . S
C445 C441 1.376 . S
C445 C444 1.392 1_556 S
C445 H457 0.929 . S
C446 C442 1.531 . S
C446 H458 0.960 . S
C446 H459 0.962 . S
C446 H460 0.960 . S
C447 C444 1.511 . S
C447 H461 0.961 . S
C447 H462 0.961 . S
C447 H463 0.961 . S
C448 C449 1.370 . S
C448 C450 1.363 . S
C448 H464 0.931 . S
C449 C448 1.370 . S
C449 C453 1.408 . S
C450 C448 1.363 . S
C450 C451 1.370 . S
C450 C454 1.524 . S
C451 C443 1.503 . S
C451 C450 1.370 . S
C451 C452 1.403 . S
C452 C451 1.403 . S
C452 C453 1.404 . S
C452 C455 1.539 . S
C453 C449 1.408 . S
C453 C452 1.404 . S
C453 H465 0.930 . S
C454 C450 1.524 . S
C454 H466 0.956 . S
C454 H467 0.961 . S
C454 H468 0.961 . S
C455 C452 1.539 . S
C455 H469 0.958 . S
C455 H470 0.961 . S
C455 H471 0.960 . S
H456 C440 0.931 . S
H457 C445 0.929 . S
H458 C446 0.960 . S
H459 C446 0.962 . S
H460 C446 0.960 . S
H461 C447 0.961 . S
H462 C447 0.961 . S
H463 C447 0.961 . S
H464 C448 0.931 . S
H465 C453 0.930 . S
H466 C454 0.956 . S
H467 C454 0.961 . S
H468 C454 0.961 . S
H469 C455 0.958 . S
H470 C455 0.961 . S
H471 C455 0.960 . S
C472 C473 1.391 . S
C472 C474 1.394 . S
C472 H488 0.931 . S
C473 C472 1.391 . S
C473 C477 1.376 . S
C474 C472 1.394 . S
C474 C475 1.369 . S
C474 C478 1.531 . S
C475 C474 1.369 . S
C475 C476 1.410 . S
C475 C483 1.503 . S
C476 C475 1.410 . S
C476 C477 1.392 . S
C476 C479 1.511 . S
C477 C473 1.376 . S
C477 C476 1.392 . S
C477 H489 0.929 . S
C478 C474 1.531 . S
C478 H490 0.960 . S
C478 H491 0.962 . S
C478 H492 0.960 . S
C479 C476 1.511 . S
C479 H493 0.961 . S
C479 H494 0.961 . S
C479 H495 0.961 . S
C480 C481 1.370 . S
C480 C482 1.363 . S
C480 H496 0.931 . S
C481 C480 1.370 . S
C481 C485 1.408 . S
C482 C480 1.363 . S
C482 C483 1.370 . S
C482 C486 1.524 . S
C483 C475 1.503 . S
C483 C482 1.370 . S
C483 C484 1.403 . S
C484 C483 1.403 . S
C484 C485 1.404 . S
C484 C487 1.539 . S
C485 C481 1.408 . S
C485 C484 1.404 . S
C485 H497 0.930 . S
C486 C482 1.524 . S
C486 H498 0.956 . S
C486 H499 0.961 . S
C486 H500 0.961 . S
C487 C484 1.539 . S
C487 H501 0.958 . S
C487 H502 0.961 . S
C487 H503 0.960 . S
H488 C472 0.931 . S
H489 C477 0.929 . S
H490 C478 0.960 . S
H491 C478 0.962 . S
H492 C478 0.960 . S
H493 C479 0.961 . S
H494 C479 0.961 . S
H495 C479 0.961 . S
H496 C480 0.931 . S
H497 C485 0.930 . S
H498 C486 0.956 . S
H499 C486 0.961 . S
H500 C486 0.961 . S
H501 C487 0.958 . S
H502 C487 0.961 . S
H503 C487 0.960 . S
C504 C505 1.391 . S
C504 C506 1.394 . S
C504 H520 0.931 . S
C505 C504 1.391 . S
C505 C509 1.376 . S
C506 C504 1.394 . S
C506 C507 1.369 . S
C506 C510 1.531 . S
C507 C506 1.369 . S
C507 C508 1.410 . S
C507 C515 1.503 . S
C508 C507 1.410 . S
C508 C509 1.392 . S
C508 C511 1.511 . S
C509 C505 1.376 . S
C509 C508 1.392 . S
C509 H521 0.929 . S
C510 C506 1.531 . S
C510 H522 0.960 . S
C510 H523 0.962 . S
C510 H524 0.960 . S
C511 C508 1.511 . S
C511 H525 0.961 . S
C511 H526 0.961 . S
C511 H527 0.961 . S
C512 C513 1.370 . S
C512 C514 1.363 . S
C512 H528 0.931 . S
C513 C512 1.370 . S
C513 C517 1.408 . S
C514 C512 1.363 . S
C514 C515 1.370 . S
C514 C518 1.524 . S
C515 C507 1.503 . S
C515 C514 1.370 . S
C515 C516 1.403 . S
C516 C515 1.403 . S
C516 C517 1.404 . S
C516 C519 1.539 . S
C517 C513 1.408 . S
C517 C516 1.404 . S
C517 H529 0.930 . S
C518 C514 1.524 . S
C518 H530 0.956 . S
C518 H531 0.961 . S
C518 H532 0.961 . S
C519 C516 1.539 . S
C519 H533 0.958 . S
C519 H534 0.961 . S
C519 H535 0.960 . S
H520 C504 0.931 . S
H521 C509 0.929 . S
H522 C510 0.960 . S
H523 C510 0.962 . S
H524 C510 0.960 . S
H525 C511 0.961 . S
H526 C511 0.961 . S
H527 C511 0.961 . S
H528 C512 0.931 . S
H529 C517 0.930 . S
H530 C518 0.956 . S
H531 C518 0.961 . S
H532 C518 0.961 . S
H533 C519 0.958 . S
H534 C519 0.961 . S
H535 C519 0.960 . S
C536 C537 1.391 . S
C536 C538 1.394 . S
C536 H552 0.931 . S
C537 C536 1.391 . S
C537 C541 1.376 . S
C538 C536 1.394 . S
C538 C539 1.369 . S
C538 C542 1.531 . S
C539 C538 1.369 . S
C539 C540 1.410 . S
C539 C547 1.503 . S
C540 C539 1.410 . S
C540 C541 1.392 . S
C540 C543 1.511 . S
C541 C537 1.376 . S
C541 C540 1.392 . S
C541 H553 0.929 . S
C542 C538 1.531 . S
C542 H554 0.960 . S
C542 H555 0.962 . S
C542 H556 0.960 . S
C543 C540 1.511 . S
C543 H557 0.961 . S
C543 H558 0.961 . S
C543 H559 0.961 . S
C544 C545 1.370 . S
C544 C546 1.363 . S
C544 H560 0.931 . S
C545 C544 1.370 . S
C545 C549 1.408 . S
C546 C544 1.363 . S
C546 C547 1.370 . S
C546 C550 1.524 . S
C547 C539 1.503 . S
C547 C546 1.370 . S
C547 C548 1.403 . S
C548 C547 1.403 . S
C548 C549 1.404 . S
C548 C551 1.539 . S
C549 C545 1.408 . S
C549 C548 1.404 . S
C549 H561 0.930 . S
C550 C546 1.524 . S
C550 H562 0.956 . S
C550 H563 0.961 . S
C550 H564 0.961 . S
C551 C548 1.539 . S
C551 H565 0.958 . S
C551 H566 0.961 . S
C551 H567 0.960 . S
H552 C536 0.931 . S
H553 C541 0.929 . S
H554 C542 0.960 . S
H555 C542 0.962 . S
H556 C542 0.960 . S
H557 C543 0.961 . S
H558 C543 0.961 . S
H559 C543 0.961 . S
H560 C544 0.931 . S
H561 C549 0.930 . S
H562 C550 0.956 . S
H563 C550 0.961 . S
H564 C550 0.961 . S
H565 C551 0.958 . S
H566 C551 0.961 . S
H567 C551 0.960 . S
C568 C569 1.391 . S
C568 C570 1.394 . S
C568 H584 0.931 . S
C569 C568 1.391 . S
C569 C573 1.376 . S
C570 C568 1.394 . S
C570 C571 1.369 . S
C570 C574 1.531 . S
C571 C570 1.369 . S
C571 C572 1.410 . S
C571 C579 1.503 . S
C572 C571 1.410 . S
C572 C573 1.392 . S
C572 C575 1.511 . S
C573 C569 1.376 . S
C573 C572 1.392 . S
C573 H585 0.929 . S
C574 C570 1.531 . S
C574 H586 0.960 . S
C574 H587 0.962 . S
C574 H588 0.960 . S
C575 C572 1.511 . S
C575 H589 0.961 . S
C575 H590 0.961 . S
C575 H591 0.961 . S
C576 C577 1.370 . S
C576 C578 1.363 . S
C576 H592 0.931 . S
C577 C576 1.370 . S
C577 C581 1.408 . S
C578 C576 1.363 . S
C578 C579 1.370 . S
C578 C582 1.524 . S
C579 C571 1.503 . S
C579 C578 1.370 . S
C579 C580 1.403 . S
C580 C579 1.403 . S
C580 C581 1.404 . S
C580 C583 1.539 . S
C581 C577 1.408 . S
C581 C580 1.404 . S
C581 H593 0.930 . S
C582 C578 1.524 . S
C582 H594 0.956 . S
C582 H595 0.961 . S
C582 H596 0.961 . S
C583 C580 1.539 . S
C583 H597 0.958 . S
C583 H598 0.961 . S
C583 H599 0.960 . S
H584 C568 0.931 . S
H585 C573 0.929 . S
H586 C574 0.960 . S
H587 C574 0.962 . S
H588 C574 0.960 . S
H589 C575 0.961 . S
H590 C575 0.961 . S
H591 C575 0.961 . S
H592 C576 0.931 . S
H593 C581 0.930 . S
H594 C582 0.956 . S
H595 C582 0.961 . S
H596 C582 0.961 . S
H597 C583 0.958 . S
H598 C583 0.961 . S
H599 C583 0.960 . S
C600 C601 1.391 . S
C600 C602 1.394 . S
C600 H616 0.931 . S
C601 C600 1.391 . S
C601 C605 1.376 . S
C602 C600 1.394 . S
C602 C603 1.369 . S
C602 C606 1.531 . S
C603 C602 1.369 . S
C603 C604 1.410 . S
C603 C611 1.503 . S
C604 C603 1.410 . S
C604 C605 1.392 . S
C604 C607 1.511 . S
C605 C601 1.376 . S
C605 C604 1.392 . S
C605 H617 0.929 . S
C606 C602 1.531 . S
C606 H618 0.960 . S
C606 H619 0.962 . S
C606 H620 0.960 . S
C607 C604 1.511 . S
C607 H621 0.961 . S
C607 H622 0.961 . S
C607 H623 0.961 . S
C608 C609 1.370 . S
C608 C610 1.363 . S
C608 H624 0.931 . S
C609 C608 1.370 . S
C609 C613 1.408 . S
C610 C608 1.363 . S
C610 C611 1.370 . S
C610 C614 1.524 . S
C611 C603 1.503 . S
C611 C610 1.370 . S
C611 C612 1.403 . S
C612 C611 1.403 . S
C612 C613 1.404 . S
C612 C615 1.539 . S
C613 C609 1.408 . S
C613 C612 1.404 . S
C613 H625 0.930 . S
C614 C610 1.524 . S
C614 H626 0.956 . S
C614 H627 0.961 . S
C614 H628 0.961 . S
C615 C612 1.539 . S
C615 H629 0.958 . S
C615 H630 0.961 . S
C615 H631 0.960 . S
H616 C600 0.931 . S
H617 C605 0.929 . S
H618 C606 0.960 . S
H619 C606 0.962 . S
H620 C606 0.960 . S
H621 C607 0.961 . S
H622 C607 0.961 . S
H623 C607 0.961 . S
H624 C608 0.931 . S
H625 C613 0.930 . S
H626 C614 0.956 . S
H627 C614 0.961 . S
H628 C614 0.961 . S
H629 C615 0.958 . S
H630 C615 0.961 . S
H631 C615 0.960 . S
C632 C633 1.391 . S
C632 C634 1.394 . S
C632 H648 0.931 . S
C633 C632 1.391 . S
C633 C637 1.376 . S
C634 C632 1.394 . S
C634 C635 1.369 . S
C634 C638 1.531 . S
C635 C634 1.369 . S
C635 C636 1.410 . S
C635 C643 1.503 . S
C636 C635 1.410 . S
C636 C637 1.392 . S
C636 C639 1.511 . S
C637 C633 1.376 . S
C637 C636 1.392 . S
C637 H649 0.929 . S
C638 C634 1.531 . S
C638 H650 0.960 . S
C638 H651 0.962 . S
C638 H652 0.960 . S
C639 C636 1.511 . S
C639 H653 0.961 . S
C639 H654 0.961 . S
C639 H655 0.961 . S
C640 C641 1.370 . S
C640 C642 1.363 . S
C640 H656 0.931 . S
C641 C640 1.370 . S
C641 C645 1.408 . S
C642 C640 1.363 . S
C642 C643 1.370 . S
C642 C646 1.524 . S
C643 C635 1.503 . S
C643 C642 1.370 . S
C643 C644 1.403 . S
C644 C643 1.403 . S
C644 C645 1.404 . S
C644 C647 1.539 . S
C645 C641 1.408 . S
C645 C644 1.404 . S
C645 H657 0.930 1_556 S
C646 C642 1.524 . S
C646 H658 0.956 . S
C646 H659 0.961 . S
C646 H660 0.961 . S
C647 C644 1.539 . S
C647 H661 0.959 1_556 S
C647 H662 0.961 1_556 S
C647 H663 0.960 . S
H648 C632 0.931 . S
H649 C637 0.929 . S
H650 C638 0.960 . S
H651 C638 0.962 . S
H652 C638 0.960 . S
H653 C639 0.961 . S
H654 C639 0.961 . S
H655 C639 0.961 . S
H656 C640 0.931 . S
H657 C645 0.930 1_554 S
H658 C646 0.956 . S
H659 C646 0.961 . S
H660 C646 0.961 . S
H661 C647 0.959 1_554 S
H662 C647 0.961 1_554 S
H663 C647 0.960 . S
C664 C665 1.391 . S
C664 C666 1.394 . S
C664 H680 0.931 1_556 S
C665 C664 1.391 . S
C665 C669 1.376 . S
C666 C664 1.394 . S
C666 C667 1.369 . S
C666 C670 1.537 . S
C667 C666 1.369 . S
C667 C668 1.410 . S
C667 C675 1.503 . S
C668 C667 1.410 . S
C668 C669 1.392 . S
C668 C671 1.511 . S
C669 C665 1.376 . S
C669 C668 1.392 . S
C669 H681 0.929 . S
C670 C666 1.537 . S
C670 H682 0.968 . S
C670 H683 0.955 1_556 S
C670 H684 0.953 1_556 S
C671 C668 1.511 . S
C671 H685 0.961 . S
C671 H686 0.961 . S
C671 H687 0.961 . S
C672 C673 1.370 . S
C672 C674 1.363 . S
C672 H688 0.931 . S
C673 C672 1.370 . S
C673 C677 1.408 . S
C674 C672 1.363 . S
C674 C675 1.370 . S
C674 C678 1.524 . S
C675 C667 1.503 . S
C675 C674 1.370 . S
C675 C676 1.403 . S
C676 C675 1.403 . S
C676 C677 1.404 . S
C676 C679 1.539 . S
C677 C673 1.408 . S
C677 C676 1.404 . S
C677 H689 0.930 . S
C678 C674 1.524 . S
C678 H690 0.956 . S
C678 H691 0.961 . S
C678 H692 0.961 . S
C679 C676 1.539 . S
C679 H693 0.958 . S
C679 H694 0.961 . S
C679 H695 0.960 . S
H680 C664 0.931 1_554 S
H681 C669 0.929 . S
H682 C670 0.968 . S
H683 C670 0.955 1_554 S
H684 C670 0.953 1_554 S
H685 C671 0.961 . S
H686 C671 0.961 . S
H687 C671 0.961 . S
H688 C672 0.931 . S
H689 C677 0.930 . S
H690 C678 0.956 . S
H691 C678 0.961 . S
H692 C678 0.961 . S
H693 C679 0.958 . S
H694 C679 0.961 . S
H695 C679 0.960 . S
C121 C118 1.550 . S
C129 C18 1.545 . S
C153 C8 1.447 . S
C161 C28 1.448 . S
C185 C38 1.555 . S
C193 C58 1.544 . S
C217 C48 1.419 . S
C225 C68 1.465 . S
C249 C98 1.553 . S
C257 C78 1.544 . S
C281 C108 1.454 . S
C289 C88 1.482 . S
C313 C2 1.191 1_556 S
C321 C1 1.224 . S
C345 C21 1.204 . S
C353 C22 1.218 . S
C377 C42 1.197 . S
C385 C41 1.223 . S
C409 C61 1.234 . S
C417 C62 1.207 . S
C441 C81 1.229 . S
C449 C82 1.210 . S
C473 C101 1.229 . S
C481 C102 1.208 1_554 S
C505 C19 1.612 . S
C513 C89 1.622 . S
C537 C29 1.614 . S
C545 C119 1.604 . S
C569 C9 1.618 . S
C577 C59 1.610 . S
C601 C39 1.595 . S
C609 C69 1.622 . S
C633 C99 1.608 . S
C641 C49 1.622 . S
C665 C79 1.617 1_556 S
C673 C109 1.624 . S
