# Generated by pormake.
# Topology uno, (4)-cn, num edge types: 1
# Building blocks:
#     Node 0, Type 0, BuildingBlock: KOZSID_clean_sbu_0, # of connection points: 4
#     Node 1, Type 0, BuildingBlock: KOZSID_clean_sbu_0, # of connection points: 4
#     Node 2, Type 0, BuildingBlock: KOZSID_clean_sbu_0, # of connection points: 4
#     Node 3, Type 0, BuildingBlock: KOZSID_clean_sbu_0, # of connection points: 4
#     Node 4, Type 0, BuildingBlock: KOZSID_clean_sbu_0, # of connection points: 4
#     Node 5, Type 0, BuildingBlock: KOZSID_clean_sbu_0, # of connection points: 4
#     Node 6, Type 0, BuildingBlock: KOZSID_clean_sbu_0, # of connection points: 4
#     Node 7, Type 0, BuildingBlock: KOZSID_clean_sbu_0, # of connection points: 4
#     Node 8, Type 0, BuildingBlock: KOZSID_clean_sbu_0, # of connection points: 4
#     Node 9, Type 0, BuildingBlock: KOZSID_clean_sbu_0, # of connection points: 4
#     Node 10, Type 0, BuildingBlock: KOZSID_clean_sbu_0, # of connection points: 4
#     Node 11, Type 0, BuildingBlock: KOZSID_clean_sbu_0, # of connection points: 4
#     Node 12, Type 0, BuildingBlock: KOZSID_clean_sbu_0, # of connection points: 4
#     Node 13, Type 0, BuildingBlock: KOZSID_clean_sbu_0, # of connection points: 4
#     Node 14, Type 0, BuildingBlock: KOZSID_clean_sbu_0, # of connection points: 4
#     Node 15, Type 0, BuildingBlock: KOZSID_clean_sbu_0, # of connection points: 4
#     Node 16, Type 0, BuildingBlock: KOZSID_clean_sbu_0, # of connection points: 4
#     Node 17, Type 0, BuildingBlock: KOZSID_clean_sbu_0, # of connection points: 4
#     Node 18, Type 0, BuildingBlock: KOZSID_clean_sbu_0, # of connection points: 4
#     Node 19, Type 0, BuildingBlock: KOZSID_clean_sbu_0, # of connection points: 4
#     Node 20, Type 0, BuildingBlock: KOZSID_clean_sbu_0, # of connection points: 4
#     Node 21, Type 0, BuildingBlock: KOZSID_clean_sbu_0, # of connection points: 4
#     Node 22, Type 0, BuildingBlock: KOZSID_clean_sbu_0, # of connection points: 4
#     Node 23, Type 0, BuildingBlock: KOZSID_clean_sbu_0, # of connection points: 4
#     Edge 24, Type (0, 0), BuildingBlock: KIFKEQ_clean_linker_1, # of connection points: 2
#     Edge 25, Type (0, 0), BuildingBlock: KIFKEQ_clean_linker_1, # of connection points: 2
#     Edge 26, Type (0, 0), BuildingBlock: KIFKEQ_clean_linker_1, # of connection points: 2
#     Edge 27, Type (0, 0), BuildingBlock: KIFKEQ_clean_linker_1, # of connection points: 2
#     Edge 28, Type (0, 0), BuildingBlock: KIFKEQ_clean_linker_1, # of connection points: 2
#     Edge 29, Type (0, 0), BuildingBlock: KIFKEQ_clean_linker_1, # of connection points: 2
#     Edge 30, Type (0, 0), BuildingBlock: KIFKEQ_clean_linker_1, # of connection points: 2
#     Edge 31, Type (0, 0), BuildingBlock: KIFKEQ_clean_linker_1, # of connection points: 2
#     Edge 32, Type (0, 0), BuildingBlock: KIFKEQ_clean_linker_1, # of connection points: 2
#     Edge 33, Type (0, 0), BuildingBlock: KIFKEQ_clean_linker_1, # of connection points: 2
#     Edge 34, Type (0, 0), BuildingBlock: KIFKEQ_clean_linker_1, # of connection points: 2
#     Edge 35, Type (0, 0), BuildingBlock: KIFKEQ_clean_linker_1, # of connection points: 2
#     Edge 36, Type (0, 0), BuildingBlock: KIFKEQ_clean_linker_1, # of connection points: 2
#     Edge 37, Type (0, 0), BuildingBlock: KIFKEQ_clean_linker_1, # of connection points: 2
#     Edge 38, Type (0, 0), BuildingBlock: KIFKEQ_clean_linker_1, # of connection points: 2
#     Edge 39, Type (0, 0), BuildingBlock: KIFKEQ_clean_linker_1, # of connection points: 2
#     Edge 40, Type (0, 0), BuildingBlock: KIFKEQ_clean_linker_1, # of connection points: 2
#     Edge 41, Type (0, 0), BuildingBlock: KIFKEQ_clean_linker_1, # of connection points: 2
#     Edge 42, Type (0, 0), BuildingBlock: KIFKEQ_clean_linker_1, # of connection points: 2
#     Edge 43, Type (0, 0), BuildingBlock: KIFKEQ_clean_linker_1, # of connection points: 2
#     Edge 44, Type (0, 0), BuildingBlock: KIFKEQ_clean_linker_1, # of connection points: 2
#     Edge 45, Type (0, 0), BuildingBlock: KIFKEQ_clean_linker_1, # of connection points: 2
#     Edge 46, Type (0, 0), BuildingBlock: KIFKEQ_clean_linker_1, # of connection points: 2
#     Edge 47, Type (0, 0), BuildingBlock: KIFKEQ_clean_linker_1, # of connection points: 2
#     Edge 48, Type (0, 0), BuildingBlock: KIFKEQ_clean_linker_1, # of connection points: 2
#     Edge 49, Type (0, 0), BuildingBlock: KIFKEQ_clean_linker_1, # of connection points: 2
#     Edge 50, Type (0, 0), BuildingBlock: KIFKEQ_clean_linker_1, # of connection points: 2
#     Edge 51, Type (0, 0), BuildingBlock: KIFKEQ_clean_linker_1, # of connection points: 2
#     Edge 52, Type (0, 0), BuildingBlock: KIFKEQ_clean_linker_1, # of connection points: 2
#     Edge 53, Type (0, 0), BuildingBlock: KIFKEQ_clean_linker_1, # of connection points: 2
#     Edge 54, Type (0, 0), BuildingBlock: KIFKEQ_clean_linker_1, # of connection points: 2
#     Edge 55, Type (0, 0), BuildingBlock: KIFKEQ_clean_linker_1, # of connection points: 2
#     Edge 56, Type (0, 0), BuildingBlock: KIFKEQ_clean_linker_1, # of connection points: 2
#     Edge 57, Type (0, 0), BuildingBlock: KIFKEQ_clean_linker_1, # of connection points: 2
#     Edge 58, Type (0, 0), BuildingBlock: KIFKEQ_clean_linker_1, # of connection points: 2
#     Edge 59, Type (0, 0), BuildingBlock: KIFKEQ_clean_linker_1, # of connection points: 2
#     Edge 60, Type (0, 0), BuildingBlock: KIFKEQ_clean_linker_1, # of connection points: 2
#     Edge 61, Type (0, 0), BuildingBlock: KIFKEQ_clean_linker_1, # of connection points: 2
#     Edge 62, Type (0, 0), BuildingBlock: KIFKEQ_clean_linker_1, # of connection points: 2
#     Edge 63, Type (0, 0), BuildingBlock: KIFKEQ_clean_linker_1, # of connection points: 2
#     Edge 64, Type (0, 0), BuildingBlock: KIFKEQ_clean_linker_1, # of connection points: 2
#     Edge 65, Type (0, 0), BuildingBlock: KIFKEQ_clean_linker_1, # of connection points: 2
#     Edge 66, Type (0, 0), BuildingBlock: KIFKEQ_clean_linker_1, # of connection points: 2
#     Edge 67, Type (0, 0), BuildingBlock: KIFKEQ_clean_linker_1, # of connection points: 2
#     Edge 68, Type (0, 0), BuildingBlock: KIFKEQ_clean_linker_1, # of connection points: 2
#     Edge 69, Type (0, 0), BuildingBlock: KIFKEQ_clean_linker_1, # of connection points: 2
#     Edge 70, Type (0, 0), BuildingBlock: KIFKEQ_clean_linker_1, # of connection points: 2
#     Edge 71, Type (0, 0), BuildingBlock: KIFKEQ_clean_linker_1, # of connection points: 2
# Relax obj value: 0.386
# Max RMSD: 0.280
# Mean RMSD: 0.248
data_MOF--net-uno--node1-KOZSID_clean_sbu_0--edge1-KIFKEQ_clean_linker_1
_symmetry_space_group_name_H-M    P1
_symmetry_Int_Tables_number       1
_symmetry_cell_setting            triclinic
loop_
_symmetry_equiv_pos_as_xyz
'x, y, z'
_cell_length_a     65.754197
_cell_length_b     64.187671
_cell_length_c     64.317252
_cell_angle_alpha  89.794394
_cell_angle_beta   90.000054
_cell_angle_gamma 92.611902
loop_
_atom_site_label
_atom_site_type_symbol
_atom_site_fract_x
_atom_site_fract_y
_atom_site_fract_z
_atom_type_partial_charge
C0 C 0.07552 0.29131 0.22553 0.0
C1 C 0.05973 0.28883 0.21138 0.0
C2 C 0.06067 0.26891 0.20358 0.0
C3 C 0.07692 0.26036 0.21343 0.0
N4 N 0.08606 0.27371 0.22692 0.0
Co5 Co 0.11086 0.26883 0.24333 0.0
N6 N 0.11915 0.24654 0.22445 0.0
C7 C 0.10672 0.2359 0.21118 0.0
C8 C 0.11651 0.22071 0.20065 0.0
C9 C 0.13618 0.22178 0.20795 0.0
C10 C 0.13734 0.23762 0.22261 0.0
N11 N 0.13573 0.26456 0.25991 0.0
C12 C 0.15289 0.25499 0.25464 0.0
C13 C 0.16675 0.25577 0.27099 0.0
C14 C 0.15769 0.26583 0.28706 0.0
C15 C 0.13891 0.2707 0.2797 0.0
N16 N 0.10235 0.29101 0.26224 0.0
C17 C 0.10859 0.29405 0.28194 0.0
C18 C 0.10073 0.31144 0.29068 0.0
C19 C 0.08895 0.31986 0.27545 0.0
C20 C 0.09018 0.30698 0.25824 0.0
N21 N 0.09587 0.24721 0.25988 0.0
C22 C 0.07406 0.21005 0.27065 0.0
C23 C 0.09533 0.21122 0.27067 0.0
C24 C 0.10583 0.22968 0.26515 0.0
C25 C 0.06392 0.22866 0.26764 0.0
C26 C 0.07519 0.24721 0.26255 0.0
N27 N 0.12609 0.28924 0.22605 0.0
C28 C 0.15658 0.31077 0.22069 0.0
C29 C 0.15488 0.30791 0.19911 0.0
C30 C 0.13742 0.29739 0.19138 0.0
C31 C 0.12336 0.28817 0.20502 0.0
C32 C 0.14172 0.3016 0.23393 0.0
H33 H 0.11128 0.27858 0.1983 0.0
H34 H 0.14367 0.30323 0.25051 0.0
H35 H 0.122 0.22891 0.26347 0.0
H36 H 0.06705 0.2611 0.25931 0.0
C37 C 0.08697 0.24256 0.20708 0.0
C38 C 0.07972 0.30995 0.23833 0.0
C39 C 0.15528 0.24245 0.23577 0.0
C40 C 0.12538 0.28374 0.28952 0.0
H41 H 0.04887 0.30026 0.20705 0.0
H42 H 0.0514 0.26204 0.19126 0.0
H43 H 0.11028 0.21043 0.18872 0.0
H44 H 0.14822 0.21184 0.20326 0.0
H45 H 0.18165 0.24928 0.27145 0.0
H46 H 0.16426 0.26961 0.30208 0.0
H47 H 0.10432 0.31812 0.30574 0.0
H48 H 0.08091 0.33409 0.27685 0.0
H49 H 0.10395 0.19757 0.2738 0.0
H50 H 0.04746 0.22866 0.26798 0.0
H51 H 0.1697 0.31914 0.22729 0.0
H52 H 0.13543 0.29457 0.1749 0.0
C53 C 0.96783 0.77383 0.51993 0.0
C54 C 0.96708 0.75965 0.50373 0.0
C55 C 0.98597 0.76104 0.49432 0.0
C56 C 0.99721 0.77599 0.50522 0.0
N57 N 0.98647 0.78368 0.52097 0.0
Co58 Co 0.99474 0.80758 0.53887 0.0
N59 N 0.01477 0.81861 0.51843 0.0
C60 C 0.0226 0.80766 0.50274 0.0
C61 C 0.03657 0.81938 0.49127 0.0
C62 C 0.03766 0.83869 0.50053 0.0
C63 C 0.02434 0.8377 0.51731 0.0
N64 N 0.00228 0.83124 0.55732 0.0
C65 C 0.01231 0.84954 0.55283 0.0
C66 C 0.01477 0.86155 0.57072 0.0
C67 C 0.00613 0.85018 0.58679 0.0
C68 C 0.9989 0.83188 0.57798 0.0
N69 N 0.97472 0.79632 0.55915 0.0
C70 C 0.97435 0.79995 0.57967 0.0
C71 C 0.95741 0.79067 0.58907 0.0
C72 C 0.94651 0.7809 0.57331 0.0
C73 C 0.95751 0.78482 0.55526 0.0
N74 N 0.01664 0.79141 0.55121 0.0
C75 C 0.05315 0.77037 0.55208 0.0
C76 C 0.053 0.79172 0.55596 0.0
C77 C 0.03481 0.80186 0.55541 0.0
C78 C 0.0343 0.75918 0.55079 0.0
C79 C 0.01611 0.77003 0.55076 0.0
N80 N 0.97412 0.82421 0.52537 0.0
C81 C 0.95713 0.85667 0.52336 0.0
C82 C 0.95623 0.85495 0.50163 0.0
C83 C 0.96231 0.83662 0.49247 0.0
C84 C 0.97159 0.82187 0.50439 0.0
C85 C 0.96554 0.84064 0.53509 0.0
H86 H 0.97851 0.80976 0.49588 0.0
H87 H 0.96657 0.84239 0.55174 0.0
H88 H 0.03617 0.81853 0.55619 0.0
H89 H 0.00185 0.76129 0.54852 0.0
C90 C 0.01439 0.7876 0.49768 0.0
C91 C 0.9512 0.77826 0.53442 0.0
C92 C 0.02245 0.85441 0.53285 0.0
C93 C 0.98645 0.81648 0.58788 0.0
H94 H 0.95423 0.74982 0.49876 0.0
H95 H 0.99028 0.75344 0.48009 0.0
H96 H 0.0446 0.81468 0.47749 0.0
H97 H 0.04736 0.85189 0.49566 0.0
H98 H 0.02257 0.87667 0.57227 0.0
H99 H 0.00493 0.85489 0.60287 0.0
H100 H 0.95262 0.7923 0.60506 0.0
H101 H 0.93189 0.77258 0.5747 0.0
H102 H 0.0671 0.80092 0.55794 0.0
H103 H 0.03365 0.74248 0.54836 0.0
H104 H 0.95244 0.87065 0.53103 0.0
H105 H 0.96225 0.8347 0.47573 0.0
C106 C 0.44676 0.71346 0.71833 0.0
C107 C 0.45965 0.71564 0.70137 0.0
C108 C 0.45662 0.7351 0.69305 0.0
C109 C 0.44209 0.7437 0.70542 0.0
N110 N 0.43611 0.7308 0.72096 0.0
Co111 Co 0.414 0.7351 0.74103 0.0
N112 N 0.4011 0.75525 0.72254 0.0
C113 C 0.41049 0.7658 0.70684 0.0
C114 C 0.39796 0.77939 0.6972 0.0
C115 C 0.37973 0.77737 0.70767 0.0
C116 C 0.38211 0.76256 0.72319 0.0
N117 N 0.3919 0.73883 0.76135 0.0
C118 C 0.37337 0.74675 0.75854 0.0
C119 C 0.36236 0.74597 0.777 0.0
C120 C 0.37472 0.73781 0.79185 0.0
C121 C 0.3925 0.73389 0.7817 0.0
N122 N 0.42712 0.71498 0.75932 0.0
C123 C 0.42459 0.71292 0.77996 0.0
C124 C 0.43467 0.69636 0.78789 0.0
C125 C 0.44384 0.68744 0.77112 0.0
C126 C 0.43892 0.69918 0.75383 0.0
N127 N 0.42983 0.75865 0.75354 0.0
C128 C 0.45096 0.79702 0.76058 0.0
C129 C 0.42981 0.795 0.76264 0.0
C130 C 0.41964 0.77593 0.75901 0.0
C131 C 0.46159 0.77884 0.75702 0.0
C132 C 0.45069 0.7597 0.7537 0.0
N133 N 0.39786 0.71252 0.72791 0.0
C134 C 0.37053 0.68632 0.72927 0.0
C135 C 0.36899 0.68684 0.70752 0.0
C136 C 0.38316 0.69921 0.69628 0.0
C137 C 0.3972 0.71203 0.7067 0.0
C138 C 0.38546 0.69903 0.73919 0.0
H139 H 0.4066 0.72257 0.69743 0.0
H140 H 0.38619 0.69886 0.75595 0.0
H141 H 0.40331 0.77581 0.75917 0.0
H142 H 0.45905 0.74608 0.75002 0.0
C143 C 0.42988 0.7603 0.69988 0.0
C144 C 0.44514 0.69529 0.73228 0.0
C145 C 0.36692 0.75753 0.73955 0.0
C146 C 0.40849 0.72257 0.78978 0.0
H147 H 0.46978 0.70423 0.69547 0.0
H148 H 0.46308 0.74148 0.67878 0.0
H149 H 0.40144 0.78923 0.68386 0.0
H150 H 0.36636 0.78608 0.70449 0.0
H151 H 0.34714 0.75115 0.7796 0.0
H152 H 0.37093 0.73453 0.80795 0.0
H153 H 0.43402 0.69035 0.80364 0.0
H154 H 0.45251 0.67356 0.77166 0.0
H155 H 0.42095 0.80838 0.76613 0.0
H156 H 0.47802 0.77958 0.75569 0.0
H157 H 0.35982 0.67687 0.73848 0.0
H158 H 0.38234 0.70041 0.67949 0.0
C159 C 0.56486 0.24734 0.00222 0.0
C160 C 0.5643 0.264 0.98856 0.0
C161 C 0.54439 0.26475 0.98194 0.0
C162 C 0.53397 0.24851 0.99193 0.0
N163 N 0.54613 0.23792 0.00458 0.0
Co164 Co 0.53904 0.21143 0.01954 0.0
N165 N 0.51488 0.20546 0.00182 0.0
C166 C 0.50567 0.21958 0.98991 0.0
C167 C 0.48805 0.21161 0.98093 0.0
C168 C 0.48593 0.19138 0.98787 0.0
C169 C 0.50243 0.18809 1.00075 0.0
N170 N 0.53329 0.18457 0.03423 0.0
C171 C 0.52087 0.16815 0.02876 0.0
C172 C 0.52215 0.15197 0.0431 0.0
C173 C 0.53517 0.15893 0.05844 0.0
C174 C 0.54131 0.17878 0.05256 0.0
N175 N 0.56289 0.21787 0.03749 0.0
C176 C 0.56664 0.20974 0.05631 0.0
C177 C 0.5851 0.21678 0.06428 0.0
C178 C 0.59354 0.22983 0.04935 0.0
C179 C 0.57966 0.22999 0.03315 0.0
N180 N 0.52053 0.22585 0.03872 0.0
C181 C 0.48242 0.24323 0.04323 0.0
C182 C 0.48526 0.22262 0.04904 0.0
C183 C 0.50439 0.21439 0.04716 0.0
C184 C 0.49987 0.25607 0.03924 0.0
C185 C 0.519 0.24708 0.03775 0.0
N186 N 0.55584 0.19686 0.99954 0.0
C187 C 0.5718 0.16532 0.9897 0.0
C188 C 0.56782 0.16948 0.96868 0.0
C189 C 0.55997 0.18861 0.96344 0.0
C190 C 0.55385 0.2018 0.97896 0.0
C191 C 0.5662 0.17962 0.00493 0.0
H192 H 0.54573 0.21501 0.97396 0.0
H193 H 0.56879 0.1759 0.02105 0.0
H194 H 0.50497 0.19811 0.05052 0.0
H195 H 0.53202 0.2571 0.03363 0.0
C196 C 0.51491 0.2395 0.98616 0.0
C197 C 0.58299 0.2408 0.01336 0.0
C198 C 0.5047 0.16901 0.0131 0.0
C199 C 0.55593 0.19155 0.06274 0.0
H200 H 0.57699 0.27416 0.98363 0.0
H201 H 0.53861 0.27492 0.97009 0.0
H202 H 0.47801 0.21949 0.97049 0.0
H203 H 0.47344 0.18042 0.98425 0.0
H204 H 0.51369 0.1371 0.04306 0.0
H205 H 0.53963 0.15049 0.07218 0.0
H206 H 0.5924 0.21158 0.07833 0.0
H207 H 0.60848 0.23758 0.04996 0.0
H208 H 0.47244 0.2124 0.05361 0.0
H209 H 0.49859 0.27246 0.03571 0.0
H210 H 0.57813 0.15074 0.99436 0.0
H211 H 0.55643 0.19246 0.94746 0.0
C212 C 0.97929 0.97849 0.30455 0.0
C213 C 0.95942 0.98207 0.29889 0.0
C214 C 0.95448 1.00043 0.30847 0.0
C215 C 0.97155 0.0071 0.31947 0.0
N216 N 0.98672 0.994 0.31704 0.0
Co217 Co 0.01277 0.9949 0.3322 0.0
N218 N 0.00178 0.01138 0.35496 0.0
C219 C 0.98528 0.02295 0.35387 0.0
C220 C 0.98122 0.03204 0.3727 0.0
C221 C 0.99616 0.02573 0.38615 0.0
C222 C 0.00853 0.01309 0.37476 0.0
N223 N 0.03899 0.99532 0.34679 0.0
C224 C 0.04274 0.99854 0.3671 0.0
C225 C 0.06348 0.99797 0.37113 0.0
C226 C 0.07281 0.99419 0.35246 0.0
C227 C 0.05733 0.99273 0.33811 0.0
N228 N 0.02379 0.97858 0.30948 0.0
C229 C 0.04343 0.97761 0.304 0.0
C230 C 0.04596 0.96415 0.28766 0.0
C231 C 0.02668 0.95625 0.28288 0.0
C232 C 0.01356 0.96541 0.2966 0.0
N233 N 0.02126 0.02112 0.31809 0.0
C234 C 0.0275 0.06175 0.30201 0.0
C235 C 0.03408 0.05664 0.32199 0.0
C236 C 0.03073 0.03652 0.32971 0.0
C237 C 0.01887 0.04558 0.28965 0.0
C238 C 0.01596 0.02532 0.29797 0.0
N239 N 0.00377 0.96957 0.34724 0.0
C240 C 0.01096 0.93957 0.36817 0.0
C241 C 0.99132 0.93956 0.37688 0.0
C242 C 0.97788 0.95404 0.36943 0.0
C243 C 0.98431 0.9687 0.35479 0.0
C244 C 0.01684 0.95465 0.35313 0.0
H245 H 0.97375 0.98033 0.35084 0.0
H246 H 0.03216 0.95492 0.34704 0.0
H247 H 0.03504 0.03379 0.34559 0.0
H248 H 0.00871 0.01327 0.28848 0.0
C249 C 0.97195 0.02093 0.3366 0.0
C250 C 0.99157 0.96098 0.29787 0.0
C251 C 0.02703 0.0034 0.38236 0.0
C252 C 0.05877 0.98512 0.31767 0.0
H253 H 0.94938 0.97234 0.28935 0.0
H254 H 0.93965 0.00708 0.30876 0.0
H255 H 0.96834 0.0412 0.37657 0.0
H256 H 0.99765 0.02977 0.40241 0.0
H257 H 0.07109 1.00009 0.38594 0.0
H258 H 0.08881 0.99188 0.34988 0.0
H259 H 0.06016 0.95943 0.28105 0.0
H260 H 0.02275 0.94468 0.27118 0.0
H261 H 0.04149 0.06824 0.33195 0.0
H262 H 0.01372 0.04868 0.274 0.0
H263 H 0.02182 0.92847 0.37331 0.0
H264 H 0.96275 0.95513 0.37586 0.0
C265 C 0.21258 0.72425 0.5265 0.0
C266 C 0.21601 0.74192 0.51436 0.0
C267 C 0.23668 0.74665 0.5151 0.0
C268 C 0.24469 0.73166 0.52769 0.0
N269 N 0.23027 0.71777 0.53456 0.0
Co270 Co 0.2336 0.69561 0.55578 0.0
N271 N 0.25932 0.70889 0.56603 0.0
C272 C 0.27122 0.72292 0.55541 0.0
C273 C 0.289 0.72816 0.56573 0.0
C274 C 0.28822 0.71663 0.58378 0.0
C275 C 0.2699 0.70496 0.58354 0.0
N276 N 0.23565 0.67379 0.57744 0.0
C277 C 0.24716 0.67384 0.59484 0.0
C278 C 0.24309 0.65579 0.60643 0.0
C279 C 0.22918 0.64376 0.59538 0.0
C280 C 0.22527 0.65518 0.57789 0.0
N281 N 0.20824 0.68215 0.54495 0.0
C282 C 0.20168 0.66217 0.54747 0.0
C283 C 0.18288 0.65804 0.53859 0.0
C284 C 0.17729 0.6767 0.5303 0.0
C285 C 0.19306 0.69105 0.53463 0.0
N286 N 0.25039 0.6795 0.53643 0.0
C287 C 0.28991 0.68151 0.52056 0.0
C288 C 0.2848 0.66836 0.53736 0.0
C289 C 0.2649 0.66733 0.54489 0.0
C290 C 0.27377 0.68904 0.50881 0.0
C291 C 0.25377 0.68679 0.51662 0.0
N292 N 0.21844 0.71242 0.57528 0.0
C293 C 0.19647 0.71675 0.6049 0.0
C294 C 0.20201 0.73812 0.60528 0.0
C295 C 0.21539 0.74627 0.5903 0.0
C296 C 0.22361 0.73327 0.57588 0.0
C297 C 0.20464 0.70412 0.58936 0.0
H298 H 0.2349 0.74026 0.56575 0.0
H299 H 0.20029 0.68771 0.58907 0.0
H300 H 0.26247 0.65877 0.55909 0.0
H301 H 0.24173 0.69374 0.50797 0.0
C302 C 0.2639 0.73284 0.53745 0.0
C303 C 0.19278 0.71332 0.5302 0.0
C304 C 0.26367 0.68934 0.59939 0.0
C305 C 0.21035 0.65007 0.56296 0.0
H306 H 0.20479 0.75069 0.50624 0.0
H307 H 0.24463 0.76026 0.50851 0.0
H308 H 0.3009 0.73939 0.56097 0.0
H309 H 0.2999 0.71665 0.59563 0.0
H310 H 0.24977 0.65148 0.62111 0.0
H311 H 0.22242 0.62871 0.59982 0.0
H312 H 0.17354 0.64376 0.53968 0.0
H313 H 0.16295 0.67969 0.52284 0.0
H314 H 0.29638 0.66045 0.5459 0.0
H315 H 0.27658 0.6982 0.49486 0.0
H316 H 0.18626 0.70992 0.61652 0.0
H317 H 0.22045 0.76259 0.59043 0.0
C318 C 0.53781 0.03159 0.78446 0.0
C319 C 0.55778 0.02832 0.77909 0.0
C320 C 0.5633 0.0109 0.7901 0.0
C321 C 0.54639 0.00449 0.80154 0.0
N322 N 0.53079 0.01685 0.79808 0.0
Co323 Co 0.50462 0.01604 0.81293 0.0
N324 N 0.51594 1.00126 0.83683 0.0
C325 C 0.53278 0.99015 0.83666 0.0
C326 C 0.53697 0.98233 0.8561 0.0
C327 C 0.52176 0.989 0.86897 0.0
C328 C 0.50912 1.00056 0.85665 0.0
N329 N 0.47831 0.01563 0.82736 0.0
C330 C 0.47458 0.01363 0.84784 0.0
C331 C 0.4538 0.01391 0.85175 0.0
C332 C 0.44443 0.01621 0.83281 0.0
C333 C 0.45993 0.01716 0.81845 0.0
N334 N 0.49325 0.03068 0.78904 0.0
C335 C 0.47355 0.03074 0.78351 0.0
C336 C 0.4706 0.04306 0.76633 0.0
C337 C 0.48964 0.0512 0.76098 0.0
C338 C 0.50314 0.0433 0.77523 0.0
N339 N 0.49704 0.9889 0.80039 0.0
C340 C 0.49189 0.94759 0.78619 0.0
C341 C 0.48536 0.95322 0.80602 0.0
C342 C 0.48812 0.97372 0.81279 0.0
C343 C 0.49997 0.9635 0.77308 0.0
C344 C 0.50235 0.98409 0.78046 0.0
N345 N 0.51273 0.04246 0.82623 0.0
C346 C 0.5049 0.0749 0.84245 0.0
C347 C 0.52451 0.07649 0.85116 0.0
C348 C 0.53813 0.06116 0.84653 0.0
C349 C 0.53199 0.0444 0.83423 0.0
C350 C 0.49937 0.05779 0.82972 0.0
H351 H 0.54275 0.03252 0.83202 0.0
H352 H 0.48417 0.0565 0.82336 0.0
H353 H 0.48374 0.97703 0.82853 0.0
H354 H 0.50918 0.99596 0.77038 0.0
C355 C 0.54626 0.99162 0.81948 0.0
C356 C 0.52516 0.04795 0.77594 0.0
C357 C 0.49037 0.01022 0.86346 0.0
C358 C 0.45839 0.02355 0.79757 0.0
H359 H 0.56734 0.0377 0.76865 0.0
H360 H 0.57832 0.00472 0.79085 0.0
H361 H 0.5501 0.97384 0.86068 0.0
H362 H 0.52028 0.98592 0.88546 0.0
H363 H 0.44622 0.01259 0.86667 0.0
H364 H 0.42837 0.01797 0.83001 0.0
H365 H 0.45624 0.04688 0.7594 0.0
H366 H 0.49299 0.06199 0.74837 0.0
H367 H 0.47839 0.94177 0.81653 0.0
H368 H 0.5051 0.95999 0.75753 0.0
H369 H 0.49391 0.08651 0.84571 0.0
H370 H 0.55327 0.06148 0.85321 0.0
C371 C 0.31849 0.27381 0.01652 0.0
C372 C 0.31718 0.2567 0.00343 0.0
C373 C 0.2968 0.25055 0.00233 0.0
C374 C 0.28681 0.26416 0.01483 0.0
N375 N 0.29976 0.27845 0.02344 0.0
Co376 Co 0.2931 0.29922 0.04483 0.0
N377 N 0.268 0.28333 0.05305 0.0
C378 C 0.25797 0.26893 0.04124 0.0
C379 C 0.24028 0.26136 0.05048 0.0
C380 C 0.23915 0.27183 0.06905 0.0
C381 C 0.25629 0.28525 0.07018 0.0
N382 N 0.28743 0.32002 0.06644 0.0
C383 C 0.27511 0.31816 0.08322 0.0
C384 C 0.27648 0.33626 0.09508 0.0
C385 C 0.28951 0.35006 0.08483 0.0
C386 C 0.29562 0.33963 0.0675 0.0
N387 N 0.31797 0.31518 0.03621 0.0
C388 C 0.32238 0.33557 0.03928 0.0
C389 C 0.34141 0.34168 0.03196 0.0
C390 C 0.34938 0.32391 0.02408 0.0
C391 C 0.3347 0.30803 0.02709 0.0
N392 N 0.27647 0.31422 0.02455 0.0
C393 C 0.24247 0.31637 0.99867 0.0
C394 C 0.24198 0.32408 0.01889 0.0
C395 C 0.25904 0.32282 0.03157 0.0
C396 C 0.26119 0.31064 0.99058 0.0
C397 C 0.27836 0.31064 0.00365 0.0
N398 N 0.30829 0.2833 0.06515 0.0
C399 C 0.32647 0.28015 0.09752 0.0
C400 C 0.3228 0.25844 0.0971 0.0
C401 C 0.31268 0.24953 0.08011 0.0
C402 C 0.3053 0.2621 0.0647 0.0
C403 C 0.31945 0.29235 0.08097 0.0
H404 H 0.29604 0.25442 0.05308 0.0
H405 H 0.32218 0.30906 0.08145 0.0
H406 H 0.25685 0.32644 0.04766 0.0
H407 H 0.29245 0.30541 0.99733 0.0
C408 C 0.26712 0.26088 0.02327 0.0
C409 C 0.33716 0.28612 0.02205 0.0
C410 C 0.26012 0.30076 0.08673 0.0
C411 C 0.31119 0.34647 0.05384 0.0
H412 H 0.32953 0.2492 0.99583 0.0
H413 H 0.29033 0.23683 0.99462 0.0
H414 H 0.22973 0.24931 0.04471 0.0
H415 H 0.22697 0.27 0.08032 0.0
H416 H 0.2686 0.33939 0.10942 0.0
H417 H 0.29441 0.36558 0.08979 0.0
H418 H 0.34925 0.35676 0.03373 0.0
H419 H 0.36447 0.32255 0.01762 0.0
H420 H 0.22784 0.32889 0.02562 0.0
H421 H 0.26226 0.30507 0.97476 0.0
H422 H 0.33416 0.28756 0.11061 0.0
H423 H 0.3091 0.23289 0.07943 0.0
C424 C 0.30236 0.05882 0.21612 0.0
C425 C 0.32238 0.05401 0.21973 0.0
C426 C 0.32781 0.063 0.23857 0.0
C427 C 0.31086 0.07283 0.24547 0.0
N428 N 0.29531 0.07024 0.23205 0.0
Co429 Co 0.26919 0.08403 0.2333 0.0
N430 N 0.28053 0.10656 0.25105 0.0
C431 C 0.29738 0.10577 0.26279 0.0
C432 C 0.30161 0.12439 0.27285 0.0
C433 C 0.2864 0.13738 0.26696 0.0
C434 C 0.27372 0.12595 0.25359 0.0
N435 N 0.24288 0.09728 0.23403 0.0
C436 C 0.23913 0.11728 0.23813 0.0
C437 C 0.21836 0.12034 0.23729 0.0
C438 C 0.209 0.10136 0.23245 0.0
C439 C 0.2245 0.08782 0.23065 0.0
N440 N 0.25782 0.06156 0.21564 0.0
C441 C 0.23814 0.05518 0.214 0.0
C442 C 0.23529 0.03951 0.19957 0.0
C443 C 0.25437 0.03613 0.19175 0.0
C444 C 0.26773 0.04996 0.2019 0.0
N445 N 0.26155 0.06818 0.25863 0.0
C446 C 0.2573 0.05006 0.29847 0.0
C447 C 0.25024 0.06987 0.29421 0.0
C448 C 0.25256 0.07858 0.27447 0.0
C449 C 0.26528 0.03884 0.2818 0.0
C450 C 0.26721 0.04817 0.26195 0.0
N451 N 0.27742 0.1008 0.20896 0.0
C452 C 0.26947 0.12246 0.17964 0.0
C453 C 0.28916 0.13202 0.18027 0.0
C454 C 0.30293 0.12477 0.1948 0.0
C455 C 0.29684 0.10936 0.20882 0.0
C456 C 0.26395 0.10664 0.19406 0.0
H457 H 0.30771 0.1055 0.22049 0.0
H458 H 0.24863 0.09982 0.19379 0.0
H459 H 0.24794 0.09433 0.27243 0.0
H460 H 0.27407 0.0396 0.24955 0.0
C461 C 0.31076 0.08928 0.26011 0.0
C462 C 0.28966 0.05235 0.19809 0.0
C463 C 0.25492 0.13309 0.24396 0.0
C464 C 0.22295 0.06771 0.22194 0.0
H465 H 0.33218 0.04544 0.20971 0.0
H466 H 0.34284 0.06374 0.24545 0.0
H467 H 0.31474 0.12848 0.28238 0.0
H468 H 0.28492 0.15337 0.27177 0.0
H469 H 0.21077 0.13471 0.23989 0.0
H470 H 0.19294 0.09812 0.22964 0.0
H471 H 0.22096 0.03249 0.19423 0.0
H472 H 0.25801 0.02526 0.17962 0.0
H473 H 0.24331 0.07894 0.30624 0.0
H474 H 0.27075 0.02336 0.28422 0.0
H475 H 0.25835 0.12747 0.16849 0.0
H476 H 0.31812 0.13185 0.19636 0.0
C477 C 0.21384 0.96958 0.53008 0.0
C478 C 0.22494 0.95181 0.52857 0.0
C479 C 0.22094 0.94357 0.50912 0.0
C480 C 0.20759 0.95668 0.49986 0.0
N481 N 0.20327 0.97262 0.51234 0.0
Co482 Co 0.18291 0.9937 0.50701 0.0
N483 N 0.168 0.97556 0.48699 0.0
C484 C 0.17565 0.95924 0.47706 0.0
C485 C 0.16182 0.94986 0.46364 0.0
C486 C 0.1446 0.96115 0.46518 0.0
C487 C 0.14883 0.97685 0.47957 0.0
N488 N 0.16285 0.01518 0.50208 0.0
C489 C 0.14391 0.0131 0.49397 0.0
C490 C 0.13465 0.03215 0.49408 0.0
C491 C 0.14861 0.04658 0.50201 0.0
C492 C 0.16551 0.03562 0.50651 0.0
N493 N 0.19785 0.01152 0.52719 0.0
C494 C 0.19742 0.03234 0.52885 0.0
C495 C 0.20838 0.03976 0.54574 0.0
C496 C 0.21585 0.02242 0.55524 0.0
C497 C 0.20897 0.00544 0.54359 0.0
N498 N 0.19942 0.00523 0.48369 0.0
C499 C 0.22053 0.0129 0.44613 0.0
C500 C 0.19948 0.01462 0.44737 0.0
C501 C 0.18934 0.01071 0.46601 0.0
C502 C 0.23114 0.00893 0.46465 0.0
C503 C 0.22026 0.00519 0.48335 0.0
N504 N 0.16577 0.98161 0.52924 0.0
C505 C 0.13569 0.98455 0.55013 0.0
C506 C 0.13225 0.96288 0.54947 0.0
C507 C 0.1471 0.95074 0.54078 0.0
C508 C 0.16351 0.96036 0.53049 0.0
C509 C 0.15308 0.9936 0.54049 0.0
H510 H 0.1731 0.95044 0.52181 0.0
H511 H 0.15521 0.01037 0.54053 0.0
H512 H 0.17302 0.01091 0.46553 0.0
H513 H 0.22854 1.00128 0.49723 0.0
C514 C 0.1945 0.95148 0.48314 0.0
C515 C 0.21315 0.98365 0.5481 0.0
C516 C 0.13525 0.99392 0.4842 0.0
C517 C 0.18232 0.043 0.51834 0.0
H518 H 0.23439 0.94508 0.54034 0.0
H519 H 0.22581 0.92882 0.50325 0.0
H520 H 0.16378 0.93611 0.45428 0.0
H521 H 0.13065 0.95834 0.4565 0.0
H522 H 0.11949 0.03539 0.48883 0.0
H523 H 0.14634 0.0629 0.50495 0.0
H524 H 0.20943 0.05561 0.55147 0.0
H525 H 0.22479 0.02218 0.56936 0.0
H526 H 0.19064 0.01832 0.43374 0.0
H527 H 0.24752 0.00777 0.4645 0.0
H528 H 0.12453 0.9944 0.55692 0.0
H529 H 0.14491 0.93393 0.53984 0.0
C530 C 0.22317 0.94215 0.71753 0.0
C531 C 0.20349 0.94812 0.72101 0.0
C532 C 0.19737 0.93908 0.73968 0.0
C533 C 0.21361 0.92807 0.74659 0.0
N534 N 0.22938 0.92996 0.73335 0.0
Co535 Co 0.25468 0.9147 0.73479 0.0
N536 N 0.24203 0.89259 0.75239 0.0
C537 C 0.2251 0.89416 0.76389 0.0
C538 C 0.21984 0.87568 0.7739 0.0
C539 C 0.23443 0.86194 0.76826 0.0
C540 C 0.24783 0.87281 0.75508 0.0
N541 N 0.28022 0.90001 0.7358 0.0
C542 C 0.28294 0.8798 0.74007 0.0
C543 C 0.30352 0.8757 0.73958 0.0
C544 C 0.31382 0.89422 0.73477 0.0
C545 C 0.29905 0.90855 0.73265 0.0
N546 N 0.26736 0.93674 0.71726 0.0
C547 C 0.28731 0.94202 0.71578 0.0
C548 C 0.29113 0.95765 0.70139 0.0
C549 C 0.27238 0.96219 0.69341 0.0
C550 C 0.25824 0.94904 0.70344 0.0
N551 N 0.26287 0.92993 0.76022 0.0
C552 C 0.26829 0.9477 0.79999 0.0
C553 C 0.27416 0.92746 0.79577 0.0
C554 C 0.27122 0.91892 0.77609 0.0
C555 C 0.26083 0.95942 0.78331 0.0
C556 C 0.25833 0.95027 0.7635 0.0
N557 N 0.2459 0.89856 0.71033 0.0
C558 C 0.25345 0.87588 0.68186 0.0
C559 C 0.23342 0.86717 0.68236 0.0
C560 C 0.21962 0.87559 0.69613 0.0
C561 C 0.2261 0.89107 0.70984 0.0
C562 C 0.25933 0.89184 0.69586 0.0
H563 H 0.2152 0.89572 0.72113 0.0
H564 H 0.27492 0.8979 0.69576 0.0
H565 H 0.27492 0.90288 0.77412 0.0
H566 H 0.25198 0.95931 0.75109 0.0
C567 C 0.21266 0.91141 0.76112 0.0
C568 C 0.23628 0.94819 0.69967 0.0
C569 C 0.26639 0.86474 0.7458 0.0
C570 C 0.30171 0.92864 0.72392 0.0
H571 H 0.19439 0.95753 0.71098 0.0
H572 H 0.18231 0.93915 0.74644 0.0
H573 H 0.20642 0.87222 0.78326 0.0
H574 H 0.23505 0.84582 0.77312 0.0
H575 H 0.31037 0.86095 0.74243 0.0
H576 H 0.33003 0.89667 0.73222 0.0
H577 H 0.30583 0.96394 0.6962 0.0
H578 H 0.26945 0.97344 0.68132 0.0
H579 H 0.28069 0.91793 0.80775 0.0
H580 H 0.25624 0.97522 0.78566 0.0
H581 H 0.26458 0.87001 0.67123 0.0
H582 H 0.20413 0.86926 0.69748 0.0
C583 C 0.31173 0.03454 0.02733 0.0
C584 C 0.29703 0.04923 0.02542 0.0
C585 C 0.29782 0.05617 0.00509 0.0
C586 C 0.31299 0.04546 0.99571 0.0
N587 N 0.32149 0.03218 0.00896 0.0
Co588 Co 0.34569 0.01579 0.00353 0.0
N589 N 0.35487 0.0343 0.98052 0.0
C590 C 0.34303 0.04728 0.97001 0.0
C591 C 0.35339 0.05762 0.95423 0.0
C592 C 0.37279 0.05046 0.95483 0.0
C593 C 0.37323 0.0361 0.97101 0.0
N594 N 0.36989 0.99919 0.99894 0.0
C595 C 0.3874 0.00444 0.98879 0.0
C596 C 0.40062 0.98815 0.98962 0.0
C597 C 0.39075 0.97213 1.00029 0.0
C598 C 0.37215 0.97946 0.00547 0.0
N599 N 0.33632 0.99735 0.02643 0.0
C600 C 0.34133 0.97755 0.02971 0.0
C601 C 0.33298 0.96941 0.04778 0.0
C602 C 0.32232 0.98522 0.05635 0.0
C603 C 0.32486 0.00211 0.04299 0.0
N604 N 0.33033 0.99867 0.9828 0.0
C605 C 0.30917 0.9866 0.94639 0.0
C606 C 0.33038 0.98666 0.94732 0.0
C607 C 0.34055 0.99283 0.96535 0.0
C608 C 0.29859 0.99034 0.96493 0.0
C609 C 0.30951 0.99612 0.98311 0.0
N610 N 0.36141 0.03367 0.02284 0.0
C611 C 0.39271 0.03982 0.04166 0.0
C612 C 0.39188 0.06132 0.03784 0.0
C613 C 0.37432 0.06871 0.02871 0.0
C614 C 0.35942 0.05472 0.02127 0.0
C615 C 0.37697 0.02623 0.03441 0.0
H616 H 0.34741 0.06114 0.01233 0.0
H617 H 0.37829 0.00966 0.03659 0.0
H618 H 0.3568 0.99451 0.96419 0.0
H619 H 0.30109 0.9999 0.99691 0.0
C620 C 0.3234 0.05146 0.97734 0.0
C621 C 0.31642 0.02257 0.04624 0.0
C622 C 0.39063 0.02314 0.97567 0.0
C623 C 0.35794 0.9697 0.01908 0.0
H624 H 0.28719 0.05483 0.03741 0.0
H625 H 0.2895 0.06878 0.99851 0.0
H626 H 0.34772 0.06936 0.94388 0.0
H627 H 0.38511 0.05507 0.94439 0.0
H628 H 0.41563 0.98766 0.98277 0.0
H629 H 0.39668 0.95717 0.00425 0.0
H630 H 0.33566 0.95442 0.05478 0.0
H631 H 0.31417 0.98466 0.07098 0.0
H632 H 0.33931 0.98306 0.93374 0.0
H633 H 0.28212 0.98999 0.96513 0.0
H634 H 0.40587 0.0335 0.04908 0.0
H635 H 0.37293 0.08512 0.02529 0.0
C636 C 0.74748 0.22825 0.98163 0.0
C637 C 0.74437 0.20804 0.98888 0.0
C638 C 0.75884 0.19647 0.97947 0.0
C639 C 0.76985 0.21027 0.96695 0.0
N640 N 0.76364 0.22998 0.96852 0.0
Co641 Co 0.77115 0.25406 0.94997 0.0
N642 N 0.78467 0.23586 0.92976 0.0
C643 C 0.78999 0.21603 0.93291 0.0
C644 C 0.79764 0.20726 0.91521 0.0
C645 C 0.79682 0.22237 0.90006 0.0
C646 C 0.78874 0.2395 0.90942 0.0
N647 N 0.77725 0.27812 0.9311 0.0
C648 C 0.78338 0.27797 0.91114 0.0
C649 C 0.78527 0.29807 0.90305 0.0
C650 C 0.77957 0.31125 0.91845 0.0
C651 C 0.7745 0.29847 0.93495 0.0
N652 N 0.75775 0.2722 0.97031 0.0
C653 C 0.75877 0.29322 0.97099 0.0
C654 C 0.74634 0.30102 0.98596 0.0
C655 C 0.73636 0.28395 0.9947 0.0
C656 C 0.74337 0.26665 0.98457 0.0
N657 N 0.79844 0.25903 0.96397 0.0
C658 C 0.84154 0.26127 0.96637 0.0
C659 C 0.83067 0.27902 0.96222 0.0
C660 C 0.80935 0.27767 0.96166 0.0
C661 C 0.83027 0.2433 0.97259 0.0
C662 C 0.80891 0.24276 0.97192 0.0
N663 N 0.74517 0.24874 0.93531 0.0
C664 C 0.7164 0.26058 0.91596 0.0
C665 C 0.71225 0.24032 0.90837 0.0
C666 C 0.72419 0.22438 0.91554 0.0
C667 C 0.74029 0.22886 0.92889 0.0
C668 C 0.73288 0.26443 0.92956 0.0
H669 H 0.74929 0.21607 0.93306 0.0
H670 H 0.73606 0.28017 0.93474 0.0
H671 H 0.80228 0.29189 0.95864 0.0
H672 H 0.80136 0.22882 0.97747 0.0
C673 C 0.78278 0.2048 0.95052 0.0
C674 C 0.73448 0.24546 0.98671 0.0
C675 C 0.78486 0.25903 0.89884 0.0
C676 C 0.76646 0.30476 0.95399 0.0
H677 H 0.73237 0.2022 0.99917 0.0
H678 H 0.76003 0.17973 0.98033 0.0
H679 H 0.80185 0.19129 0.91313 0.0
H680 H 0.80112 0.22085 0.88391 0.0
H681 H 0.7896 0.30272 0.88745 0.0
H682 H 0.77857 0.32801 0.91747 0.0
H683 H 0.74325 0.31721 0.98868 0.0
H684 H 0.7244 0.2844 0.00619 0.0
H685 H 0.83847 0.29376 0.95837 0.0
H686 H 0.83787 0.22953 0.97762 0.0
H687 H 0.7074 0.2734 0.911 0.0
H688 H 0.72196 0.20853 0.90997 0.0
C689 C 0.04271 0.4738 0.20388 0.0
C690 C 0.06325 0.47884 0.20142 0.0
C691 C 0.06461 0.49595 0.18829 0.0
C692 C 0.04483 0.50042 0.18349 0.0
N693 N 0.03142 0.48718 0.19304 0.0
Co694 Co 0.0018 0.48529 0.1888 0.0
N695 N 0.00411 0.49933 0.16161 0.0
C696 C 0.01992 0.51169 0.15509 0.0
C697 C 0.01708 0.51871 0.13509 0.0
C698 C 0.99837 0.5102 0.12895 0.0
C699 C 0.99082 0.49844 0.1456 0.0
N700 N 0.97217 0.4829 0.18487 0.0
C701 C 0.96157 0.48324 0.16697 0.0
C702 C 0.94081 0.48102 0.17086 0.0
C703 C 0.93862 0.47923 0.19209 0.0
C704 C 0.95809 0.48049 0.19994 0.0
N705 N 0.99957 0.47141 0.21604 0.0
C706 C 0.98303 0.4702 0.22833 0.0
C707 C 0.98611 0.45834 0.2458 0.0
C708 C 0.00566 0.45169 0.24412 0.0
C709 C 0.01351 0.45996 0.22567 0.0
N710 N 0.99918 0.51272 0.20179 0.0
C711 C 0.99948 0.5546 0.21454 0.0
C712 C 0.9865 0.54721 0.19871 0.0
C713 C 0.98659 0.52643 0.19262 0.0
C714 C 0.01146 0.54015 0.22483 0.0
C715 C 0.01107 0.51924 0.21821 0.0
N716 N 0.00453 0.45855 0.17504 0.0
C717 C 0.99263 0.42345 0.16713 0.0
C718 C 0.00745 0.42234 0.15149 0.0
C719 C 0.0208 0.43957 0.14819 0.0
C720 C 0.01917 0.45732 0.16009 0.0
C721 C 0.9915 0.44176 0.17887 0.0
H722 H 0.02956 0.47031 0.15675 0.0
H723 H 0.9799 0.44256 0.19068 0.0
H724 H 0.97699 0.52176 0.17973 0.0
H725 H 0.02091 0.50852 0.2258 0.0
C726 C 0.0385 0.51221 0.16623 0.0
C727 C 0.03389 0.45687 0.21705 0.0
C728 C 0.97088 0.48706 0.14649 0.0
C729 C 0.96397 0.47532 0.22031 0.0
H730 H 0.07582 0.47076 0.20806 0.0
H731 H 0.0784 0.50316 0.18178 0.0
H732 H 0.02777 0.5279 0.12564 0.0
H733 H 0.99126 0.51224 0.11396 0.0
H734 H 0.92859 0.48076 0.15958 0.0
H735 H 0.92458 0.47636 0.20063 0.0
H736 H 0.975 0.4537 0.25754 0.0
H737 H 0.01286 0.44155 0.25502 0.0
H738 H 0.9765 0.55752 0.19071 0.0
H739 H 0.02159 0.5451 0.23731 0.0
H740 H 0.982 0.41041 0.17014 0.0
H741 H 0.0322 0.43966 0.13602 0.0
C742 C 0.78417 0.79391 0.50361 0.0
C743 C 0.78334 0.81447 0.5098 0.0
C744 C 0.76585 0.82188 0.50112 0.0
C745 C 0.75705 0.80545 0.49009 0.0
N746 N 0.7678 0.78818 0.49174 0.0
Co747 Co 0.76405 0.76219 0.4753 0.0
N748 N 0.74706 0.77582 0.45449 0.0
C749 C 0.73731 0.79362 0.45729 0.0
C750 C 0.72606 0.79878 0.44015 0.0
C751 C 0.72896 0.78325 0.42588 0.0
C752 C 0.74188 0.76947 0.43514 0.0
N753 N 0.76223 0.73638 0.45867 0.0
C754 C 0.75709 0.73398 0.43853 0.0
C755 C 0.75887 0.71333 0.43244 0.0
C756 C 0.76499 0.70253 0.44959 0.0
C757 C 0.76682 0.71709 0.46509 0.0
N758 N 0.7804 0.74852 0.49665 0.0
C759 C 0.78131 0.72796 0.50032 0.0
C760 C 0.79486 0.72367 0.51591 0.0
C761 C 0.80313 0.74271 0.52204 0.0
C762 C 0.79406 0.75747 0.50982 0.0
N763 N 0.73805 0.75387 0.49009 0.0
C764 C 0.69535 0.75466 0.49456 0.0
C765 C 0.70429 0.73857 0.48386 0.0
C766 C 0.72534 0.73848 0.48173 0.0
C767 C 0.70838 0.76801 0.50631 0.0
C768 C 0.72969 0.76675 0.50447 0.0
N769 N 0.78844 0.77092 0.45936 0.0
C770 C 0.81615 0.76241 0.43685 0.0
C771 C 0.81652 0.78254 0.42815 0.0
C772 C 0.80351 0.79696 0.43644 0.0
C773 C 0.78975 0.7909 0.45187 0.0
C774 C 0.80207 0.75695 0.4526 0.0
H775 H 0.77921 0.80223 0.45654 0.0
H776 H 0.80173 0.74128 0.45874 0.0
H777 H 0.73045 0.72648 0.47185 0.0
H778 H 0.73912 0.77727 0.51369 0.0
C779 C 0.74226 0.80679 0.47429 0.0
C780 C 0.80012 0.77958 0.50929 0.0
C781 C 0.74889 0.75044 0.42547 0.0
C782 C 0.77454 0.71376 0.48509 0.0
H783 H 0.79439 0.82323 0.51914 0.0
H784 H 0.76106 0.83778 0.50151 0.0
H785 H 0.71758 0.81267 0.43786 0.0
H786 H 0.72255 0.7823 0.4104 0.0
H787 H 0.75585 0.70661 0.4173 0.0
H788 H 0.76817 0.68616 0.45047 0.0
H789 H 0.79969 0.7085 0.52077 0.0
H790 H 0.81524 0.74542 0.53325 0.0
H791 H 0.69507 0.72662 0.47597 0.0
H792 H 0.70237 0.78007 0.51594 0.0
H793 H 0.82626 0.75083 0.43122 0.0
H794 H 0.80286 0.81258 0.43012 0.0
C795 C 0.97557 0.79028 0.2762 0.0
C796 C 0.99192 0.78925 0.2897 0.0
C797 C 0.98954 0.77033 0.29998 0.0
C798 C 0.97212 0.76072 0.29189 0.0
N799 N 0.96381 0.77246 0.27714 0.0
Co800 Co 0.93843 0.76579 0.26183 0.0
N801 N 0.92802 0.74677 0.28382 0.0
C802 C 0.93946 0.73795 0.29851 0.0
C803 C 0.92805 0.72483 0.31132 0.0
C804 C 0.9084 0.72534 0.30398 0.0
C805 C 0.90885 0.73879 0.28701 0.0
N806 N 0.9134 0.75947 0.24579 0.0
C807 C 0.89526 0.7511 0.25223 0.0
C808 C 0.88185 0.74908 0.23553 0.0
C809 C 0.89229 0.75602 0.21815 0.0
C810 C 0.91141 0.76198 0.22508 0.0
N811 N 0.94898 0.78477 0.24004 0.0
C812 C 0.94478 0.78331 0.21971 0.0
C813 C 0.95666 0.79717 0.20808 0.0
C814 C 0.96881 0.80798 0.22225 0.0
C815 C 0.96301 0.80064 0.24179 0.0
N816 N 0.95112 0.74194 0.24862 0.0
C817 C 0.96967 0.70433 0.23998 0.0
C818 C 0.94862 0.70489 0.24268 0.0
C819 C 0.93974 0.72363 0.24694 0.0
C820 C 0.9811 0.72339 0.23976 0.0
C821 C 0.97148 0.7421 0.24403 0.0
N822 N 0.92543 0.78865 0.27599 0.0
C823 C 0.89576 0.80895 0.27971 0.0
C824 C 0.8989 0.80988 0.30128 0.0
C825 C 0.91681 0.80228 0.30937 0.0
C826 C 0.92955 0.79145 0.29665 0.0
C827 C 0.90968 0.79878 0.26717 0.0
H828 H 0.94151 0.78357 0.30431 0.0
H829 H 0.90671 0.79754 0.2507 0.0
H830 H 0.92371 0.72285 0.25023 0.0
H831 H 0.98065 0.75648 0.24476 0.0
C832 C 0.96018 0.74437 0.30115 0.0
C833 C 0.97132 0.80768 0.26197 0.0
C834 C 0.89142 0.74195 0.273 0.0
C835 C 0.92698 0.77219 0.21326 0.0
H836 H 0.00385 0.80113 0.29227 0.0
H837 H 0.99859 0.76501 0.31284 0.0
H838 H 0.93327 0.71621 0.32464 0.0
H839 H 0.89532 0.71652 0.31015 0.0
H840 H 0.86637 0.74259 0.23572 0.0
H841 H 0.88651 0.75686 0.20242 0.0
H842 H 0.95601 0.79977 0.19147 0.0
H843 H 0.98042 0.81992 0.2186 0.0
H844 H 0.93903 0.69071 0.24228 0.0
H845 H 0.99741 0.72374 0.23738 0.0
H846 H 0.88213 0.81488 0.27284 0.0
H847 H 0.91982 0.80241 0.32593 0.0
C848 C 0.54415 0.21937 0.75674 0.0
C849 C 0.52811 0.22037 0.77058 0.0
C850 C 0.52878 0.24048 0.77818 0.0
C851 C 0.54515 0.25062 0.76853 0.0
N852 N 0.55452 0.23801 0.75533 0.0
Co853 Co 0.58001 0.24462 0.73992 0.0
N854 N 0.58816 0.26731 0.75918 0.0
C855 C 0.57556 0.27708 0.77203 0.0
C856 C 0.58552 0.29268 0.78314 0.0
C857 C 0.60548 0.29274 0.77667 0.0
C858 C 0.60663 0.27712 0.7619 0.0
N859 N 0.60543 0.25064 0.72418 0.0
C860 C 0.6227 0.26113 0.73018 0.0
C861 C 0.63696 0.26169 0.71417 0.0
C862 C 0.62804 0.25141 0.69762 0.0
C863 C 0.60893 0.24512 0.70435 0.0
N864 N 0.57169 0.22201 0.72067 0.0
C865 C 0.57817 0.21962 0.70106 0.0
C866 C 0.57014 0.20162 0.69214 0.0
C867 C 0.55804 0.19217 0.70721 0.0
C868 C 0.55937 0.20504 0.72447 0.0
N869 N 0.56609 0.26532 0.72297 0.0
C870 C 0.54535 0.30132 0.71302 0.0
C871 C 0.5666 0.30162 0.71332 0.0
C872 C 0.57659 0.28369 0.71839 0.0
C873 C 0.53473 0.28191 0.71507 0.0
C874 C 0.54548 0.26396 0.71974 0.0
N875 N 0.59415 0.22518 0.75781 0.0
C876 C 0.62476 0.20735 0.76532 0.0
C877 C 0.62122 0.20948 0.78673 0.0
C878 C 0.60288 0.21746 0.79314 0.0
C879 C 0.58982 0.22543 0.7786 0.0
C880 C 0.61062 0.21482 0.75103 0.0
H881 H 0.57729 0.23363 0.78465 0.0
H882 H 0.61388 0.21373 0.73463 0.0
H883 H 0.59276 0.28551 0.72049 0.0
H884 H 0.53695 0.2494 0.72238 0.0
C885 C 0.55544 0.2691 0.77536 0.0
C886 C 0.54909 0.20109 0.74439 0.0
C887 C 0.62497 0.27304 0.74961 0.0
C888 C 0.59534 0.23126 0.69393 0.0
H889 H 0.51738 0.20782 0.77493 0.0
H890 H 0.51939 0.24646 0.79042 0.0
H891 H 0.57922 0.30245 0.79498 0.0
H892 H 0.61774 0.30319 0.78206 0.0
H893 H 0.65206 0.26914 0.71425 0.0
H894 H 0.63492 0.24838 0.68271 0.0
H895 H 0.57381 0.1953 0.67709 0.0
H896 H 0.54969 0.17735 0.70575 0.0
H897 H 0.57558 0.316 0.71091 0.0
H898 H 0.51826 0.28079 0.71442 0.0
H899 H 0.63872 0.20101 0.75974 0.0
H900 H 0.59954 0.21967 0.80946 0.0
C901 C 0.45923 0.52874 0.68564 0.0
C902 C 0.43879 0.52381 0.68907 0.0
C903 C 0.43414 0.50592 0.67777 0.0
C904 C 0.45199 0.5009 0.66812 0.0
N905 N 0.46735 0.51454 0.67294 0.0
Co906 Co 0.49483 0.51575 0.66079 0.0
N907 N 0.48568 0.49993 0.63609 0.0
C908 C 0.46874 0.48747 0.63476 0.0
C909 C 0.46641 0.47902 0.6152 0.0
C910 C 0.48294 0.48669 0.60383 0.0
C911 C 0.49448 0.49944 0.6171 0.0
N912 N 0.52244 0.51746 0.64906 0.0
C913 C 0.52817 0.51557 0.62909 0.0
C914 C 0.54926 0.51753 0.62736 0.0
C915 C 0.55672 0.52076 0.64712 0.0
C916 C 0.53988 0.52055 0.65977 0.0
N917 N 0.50401 0.53143 0.68551 0.0
C918 C 0.5231 0.53311 0.69297 0.0
C919 C 0.52459 0.54585 0.7101 0.0
C920 C 0.50525 0.55254 0.71337 0.0
C921 C 0.49302 0.5434 0.69803 0.0
N922 N 0.50088 0.48921 0.6743 0.0
C923 C 0.50415 0.44807 0.68871 0.0
C924 C 0.51283 0.45461 0.66981 0.0
C925 C 0.51097 0.47496 0.66292 0.0
C926 C 0.49489 0.46306 0.701 0.0
C927 C 0.49344 0.48362 0.69351 0.0
N928 N 0.48843 0.54143 0.64629 0.0
C929 C 0.49983 0.57256 0.62805 0.0
C930 C 0.4822 0.57143 0.61558 0.0
C931 C 0.46709 0.55613 0.62033 0.0
C932 C 0.47039 0.54158 0.63577 0.0
C933 C 0.50262 0.55739 0.64343 0.0
H934 H 0.45887 0.52934 0.6378 0.0
H935 H 0.51673 0.55775 0.65207 0.0
H936 H 0.51698 0.47879 0.64775 0.0
H937 H 0.48566 0.49476 0.70283 0.0
C938 C 0.45369 0.48797 0.65048 0.0
C939 C 0.47117 0.54617 0.69517 0.0
C940 C 0.51404 0.51038 0.61198 0.0
C941 C 0.53945 0.52712 0.6806 0.0
H942 H 0.42838 0.53241 0.69841 0.0
H943 H 0.41919 0.49848 0.67563 0.0
H944 H 0.45369 0.46937 0.60951 0.0
H945 H 0.48604 0.48344 0.58767 0.0
H946 H 0.55831 0.51663 0.61337 0.0
H947 H 0.57246 0.52381 0.65153 0.0
H948 H 0.53829 0.5509 0.71833 0.0
H949 H 0.50092 0.5632 0.72537 0.0
H950 H 0.52076 0.44392 0.66004 0.0
H951 H 0.48815 0.4588 0.71587 0.0
H952 H 0.51172 0.5845 0.62545 0.0
H953 H 0.45329 0.55422 0.61124 0.0
C954 C 0.00953 0.28039 0.94885 0.0
C955 C 0.01214 0.28816 0.92889 0.0
C956 C 0.02673 0.30439 0.93023 0.0
C957 C 0.03236 0.3055 0.9509 0.0
N958 N 0.02223 0.29081 0.96219 0.0
Co959 Co 0.02221 0.28798 0.99262 0.0
N960 N 0.03143 0.31718 0.99654 0.0
C961 C 0.04126 0.32925 0.98224 0.0
C962 C 0.04605 0.3489 0.98982 0.0
C963 C 0.03887 0.34884 0.01 0.0
C964 C 0.02997 0.32914 0.01365 0.0
N965 N 0.02125 0.28438 0.02293 0.0
C966 C 0.01967 0.29899 0.03776 0.0
C967 C 0.01863 0.28965 0.05732 0.0
C968 C 0.02043 0.2686 0.05436 0.0
C969 C 0.02215 0.26614 0.03325 0.0
N970 N 0.01375 0.2587 0.98861 0.0
C971 C 0.01796 0.24288 1.0013 0.0
C972 C 0.01313 0.22382 0.9924 0.0
C973 C 0.00531 0.22831 0.97305 0.0
C974 C 0.00519 0.24987 0.97167 0.0
N975 N 0.05106 0.28084 0.99244 0.0
C976 C 0.09362 0.28268 0.98764 0.0
C977 C 0.08454 0.28966 0.00585 0.0
C978 C 0.06345 0.28879 0.00786 0.0
C979 C 0.08097 0.27255 0.97281 0.0
C980 C 0.05969 0.27158 0.97565 0.0
N981 N 0.99401 0.29657 0.99251 0.0
C982 C 0.95901 0.29519 0.00393 0.0
C983 C 0.95533 0.31296 0.99186 0.0
C984 C 0.97127 0.32214 0.98038 0.0
C985 C 0.9902 0.31385 0.98092 0.0
C986 C 0.97862 0.28706 0.00391 0.0
H987 H 0.00186 0.32186 0.97195 0.0
H988 H 0.98147 0.2734 0.01315 0.0
H989 H 0.05731 0.29616 0.02131 0.0
H990 H 0.0502 0.26461 0.9636 0.0
C991 C 0.04182 0.32289 0.96113 0.0
C992 C 0.99608 0.26234 0.95524 0.0
C993 C 0.02143 0.32162 0.03367 0.0
C994 C 0.02191 0.24701 0.02243 0.0
H995 H 0.00406 0.28298 0.91505 0.0
H996 H 0.03141 0.31507 0.91789 0.0
H997 H 0.05307 0.36199 0.98145 0.0
H998 H 0.04005 0.36176 0.02076 0.0
H999 H 0.01709 0.29713 0.07223 0.0
H1000 H 0.01995 0.25653 0.06616 0.0
H1001 H 0.01407 0.20857 0.99948 0.0
H1002 H 0.99963 0.21709 0.96169 0.0
H1003 H 0.09361 0.29683 0.01818 0.0
H1004 H 0.08728 0.26654 0.95862 0.0
H1005 H 0.94696 0.28772 0.01313 0.0
H1006 H 0.96927 0.33611 0.9712 0.0
C1007 C 0.52758 0.75558 0.47067 0.0
C1008 C 0.52844 0.76282 0.45039 0.0
C1009 C 0.51231 0.75313 0.44015 0.0
C1010 C 0.50265 0.74045 0.45474 0.0
N1011 N 0.51132 0.74211 0.47373 0.0
Co1012 Co 0.50623 0.72335 0.4982 0.0
N1013 N 0.48905 0.70324 0.48153 0.0
C1014 C 0.48144 0.70665 0.46237 0.0
C1015 C 0.46944 0.69012 0.4552 0.0
C1016 C 0.46946 0.67546 0.47077 0.0
C1017 C 0.48153 0.68388 0.48658 0.0
N1018 N 0.50287 0.70427 0.52258 0.0
C1019 C 0.4956 0.6843 0.52336 0.0
C1020 C 0.4979 0.67591 0.5432 0.0
C1021 C 0.50659 0.69127 0.55528 0.0
C1022 C 0.50941 0.70801 0.54222 0.0
N1023 N 0.52274 0.74389 0.51492 0.0
C1024 C 0.52432 0.74471 0.53579 0.0
C1025 C 0.53713 0.76073 0.54257 0.0
C1026 C 0.54459 0.77019 0.52489 0.0
C1027 C 0.53586 0.7593 0.50829 0.0
N1028 N 0.4805 0.73723 0.5057 0.0
C1029 C 0.4378 0.73437 0.50988 0.0
C1030 C 0.45049 0.73168 0.52708 0.0
C1031 C 0.47165 0.73367 0.52477 0.0
C1032 C 0.44693 0.74276 0.49184 0.0
C1033 C 0.46824 0.74487 0.49047 0.0
N1034 N 0.53063 0.70858 0.49032 0.0
C1035 C 0.55916 0.68809 0.49952 0.0
C1036 C 0.5597 0.67994 0.4793 0.0
C1037 C 0.54641 0.68759 0.46453 0.0
C1038 C 0.53219 0.70176 0.47029 0.0
C1039 C 0.54465 0.70264 0.50465 0.0
H1040 H 0.52185 0.70619 0.45848 0.0
H1041 H 0.54427 0.70833 0.52035 0.0
H1042 H 0.48044 0.73108 0.53837 0.0
H1043 H 0.47437 0.75161 0.4765 0.0
C1044 C 0.48823 0.72412 0.45054 0.0
C1045 C 0.54252 0.7615 0.48674 0.0
C1046 C 0.48564 0.6731 0.50608 0.0
C1047 C 0.51837 0.72735 0.54776 0.0
H1048 H 0.5399 0.77345 0.44367 0.0
H1049 H 0.50898 0.75404 0.4237 0.0
H1050 H 0.46217 0.68858 0.44015 0.0
H1051 H 0.46171 0.66021 0.47046 0.0
H1052 H 0.4937 0.66033 0.54856 0.0
H1053 H 0.51061 0.69027 0.57157 0.0
H1054 H 0.54204 0.76388 0.55836 0.0
H1055 H 0.55606 0.78276 0.52448 0.0
H1056 H 0.44424 0.72714 0.54208 0.0
H1057 H 0.43793 0.74657 0.47838 0.0
H1058 H 0.56947 0.68289 0.51139 0.0
H1059 H 0.54602 0.68173 0.44875 0.0
C1060 C 0.71236 0.52601 0.47036 0.0
C1061 C 0.72958 0.53887 0.47353 0.0
C1062 C 0.72787 0.54693 0.49334 0.0
C1063 C 0.70996 0.5382 0.5013 0.0
N1064 N 0.70072 0.52512 0.48769 0.0
Co1065 Co 0.67448 0.50961 0.49165 0.0
N1066 N 0.66549 0.52948 0.51255 0.0
C1067 C 0.67784 0.54271 0.52345 0.0
C1068 C 0.66722 0.5542 0.53742 0.0
C1069 C 0.64713 0.54751 0.5352 0.0
C1070 C 0.64654 0.53224 0.51994 0.0
N1071 N 0.64848 0.4935 0.4951 0.0
C1072 C 0.63076 0.49946 0.50327 0.0
C1073 C 0.61627 0.48296 0.50287 0.0
C1074 C 0.62559 0.46615 0.49458 0.0
C1075 C 0.64515 0.47321 0.49027 0.0
N1076 N 0.68367 0.48982 0.47095 0.0
C1077 C 0.6782 0.46949 0.46999 0.0
C1078 C 0.68939 0.45924 0.45547 0.0
C1079 C 0.70246 0.47433 0.44685 0.0
C1080 C 0.69791 0.49304 0.45611 0.0
N1081 N 0.6863 0.49332 0.51429 0.0
C1082 C 0.704 0.47893 0.55104 0.0
C1083 C 0.68312 0.48176 0.54987 0.0
C1084 C 0.67467 0.48908 0.53159 0.0
C1085 C 0.71576 0.48214 0.53299 0.0
C1086 C 0.70648 0.48889 0.51458 0.0
N1087 N 0.66243 0.52671 0.47003 0.0
C1088 C 0.63359 0.53334 0.44834 0.0
C1089 C 0.63802 0.55488 0.44986 0.0
C1090 C 0.65606 0.56172 0.45957 0.0
C1091 C 0.66773 0.54756 0.46983 0.0
C1092 C 0.64646 0.51939 0.45806 0.0
H1093 H 0.67988 0.55403 0.47928 0.0
H1094 H 0.64254 0.50289 0.45735 0.0
H1095 H 0.65885 0.49258 0.5321 0.0
H1096 H 0.71584 0.4916 0.50095 0.0
C1097 C 0.69868 0.54567 0.51817 0.0
C1098 C 0.70724 0.51381 0.45148 0.0
C1099 C 0.62824 0.51928 0.51427 0.0
C1100 C 0.65997 0.46221 0.47952 0.0
H1101 H 0.74173 0.54242 0.46256 0.0
H1102 H 0.73778 0.55881 0.50043 0.0
H1103 H 0.67325 0.5663 0.54768 0.0
H1104 H 0.63443 0.55299 0.54403 0.0
H1105 H 0.60079 0.48286 0.5086 0.0
H1106 H 0.61879 0.45074 0.49178 0.0
H1107 H 0.68762 0.44303 0.45094 0.0
H1108 H 0.71364 0.47194 0.43485 0.0
H1109 H 0.6735 0.47964 0.56347 0.0
H1110 H 0.73198 0.47991 0.53324 0.0
H1111 H 0.61979 0.52744 0.44078 0.0
H1112 H 0.65999 0.57819 0.46139 0.0
C1113 C 0.7802 0.45119 0.79344 0.0
C1114 C 0.80086 0.45573 0.79575 0.0
C1115 C 0.81029 0.44608 0.77965 0.0
C1116 C 0.79489 0.43622 0.76844 0.0
N1117 N 0.77622 0.43963 0.7762 0.0
Co1118 Co 0.74963 0.42652 0.76689 0.0
N1119 N 0.76345 0.4057 0.7494 0.0
C1120 C 0.78369 0.40454 0.7462 0.0
C1121 C 0.78863 0.38682 0.73576 0.0
C1122 C 0.7705 0.37587 0.73262 0.0
C1123 C 0.75555 0.38764 0.74126 0.0
N1124 N 0.72298 0.41413 0.7572 0.0
C1125 C 0.71897 0.3965 0.74632 0.0
C1126 C 0.69824 0.39339 0.74258 0.0
C1127 C 0.6889 0.40953 0.75182 0.0
C1128 C 0.70437 0.42151 0.76062 0.0
N1129 N 0.73587 0.44637 0.78555 0.0
C1130 C 0.71568 0.4491 0.78713 0.0
C1131 C 0.71068 0.46187 0.80321 0.0
C1132 C 0.72869 0.46696 0.81293 0.0
C1133 C 0.74371 0.45709 0.80204 0.0
N1134 N 0.74906 0.44636 0.74268 0.0
C1135 C 0.7427 0.46262 0.70231 0.0
C1136 C 0.72872 0.46555 0.71836 0.0
C1137 C 0.73236 0.4577 0.73836 0.0
C1138 C 0.76104 0.45388 0.70768 0.0
C1139 C 0.764 0.44635 0.72779 0.0
N1140 N 0.75021 0.4062 0.78996 0.0
C1141 C 0.73307 0.37907 0.81045 0.0
C1142 C 0.75169 0.37007 0.81451 0.0
C1143 C 0.76949 0.38046 0.80749 0.0
C1144 C 0.76843 0.39832 0.7955 0.0
C1145 C 0.7327 0.39736 0.79839 0.0
H1146 H 0.78259 0.40471 0.78981 0.0
H1147 H 0.71815 0.40365 0.79519 0.0
H1148 H 0.72113 0.46047 0.74979 0.0
H1149 H 0.77823 0.43977 0.73044 0.0
C1150 C 0.79761 0.41932 0.75499 0.0
C1151 C 0.76491 0.4566 0.80875 0.0
C1152 C 0.73401 0.38115 0.74178 0.0
C1153 C 0.70173 0.4374 0.77502 0.0
H1154 H 0.80832 0.46409 0.80842 0.0
H1155 H 0.82651 0.4447 0.77763 0.0
H1156 H 0.80368 0.382 0.73173 0.0
H1157 H 0.76848 0.3608 0.72522 0.0
H1158 H 0.69051 0.38033 0.73491 0.0
H1159 H 0.67269 0.41152 0.75312 0.0
H1160 H 0.69561 0.46588 0.80811 0.0
H1161 H 0.73034 0.47611 0.82694 0.0
H1162 H 0.71474 0.47336 0.71544 0.0
H1163 H 0.77276 0.45165 0.69618 0.0
H1164 H 0.71891 0.37176 0.816 0.0
H1165 H 0.78429 0.37418 0.8101 0.0
C1166 C 0.78551 0.46868 0.98061 0.0
C1167 C 0.76664 0.45832 0.98224 0.0
C1168 C 0.76439 0.45263 0.00285 0.0
C1169 C 0.78198 0.45985 0.01258 0.0
N1170 N 0.79493 0.46976 0.99932 0.0
Co1171 Co 0.82275 0.4811 0.00574 0.0
N1172 N 0.82458 0.46355 0.03089 0.0
C1173 C 0.80865 0.45426 0.04102 0.0
C1174 C 0.81448 0.44379 0.05854 0.0
C1175 C 0.83527 0.44691 0.05954 0.0
C1176 C 0.84103 0.45922 0.04255 0.0
N1177 N 0.85072 0.49249 0.0114 0.0
C1178 C 0.8653 0.48494 0.02381 0.0
C1179 C 0.88281 0.49796 0.02319 0.0
C1180 C 0.8788 0.51427 0.01024 0.0
C1181 C 0.85917 0.51039 0.00363 0.0
N1182 N 0.82068 0.49882 0.98078 0.0
C1183 C 0.83171 0.51648 0.97657 0.0
C1184 C 0.82699 0.52483 0.95754 0.0
C1185 C 0.81221 0.51146 0.94933 0.0
C1186 C 0.80879 0.49571 0.96389 0.0
N1187 N 0.81147 0.50282 0.02345 0.0
C1188 C 0.79134 0.5194 0.05756 0.0
C1189 C 0.81227 0.51675 0.05812 0.0
C1190 C 0.82193 0.50836 0.04115 0.0
C1191 C 0.78123 0.51664 0.03847 0.0
C1192 C 0.79178 0.5087 0.02136 0.0
N1193 N 0.834 0.4587 0.9894 0.0
C1194 C 0.86381 0.4447 0.9742 0.0
C1195 C 0.85647 0.42445 0.9792 0.0
C1196 C 0.83678 0.4216 0.98702 0.0
C1197 C 0.8259 0.43887 0.99219 0.0
C1198 C 0.85199 0.46169 0.9789 0.0
H1199 H 0.81179 0.43594 1.00031 0.0
H1200 H 0.85817 0.47723 0.97571 0.0
H1201 H 0.83741 0.50446 0.04361 0.0
H1202 H 0.78349 0.50563 0.00711 0.0
C1203 C 0.78902 0.45351 0.03216 0.0
C1204 C 0.79416 0.47806 0.96155 0.0
C1205 C 0.86189 0.46789 0.03895 0.0
C1206 C 0.84932 0.52148 0.98807 0.0
H1207 H 0.75586 0.455 0.96985 0.0
H1208 H 0.752 0.44318 0.00957 0.0
H1209 H 0.80486 0.43457 0.06907 0.0
H1210 H 0.84505 0.44105 0.07155 0.0
H1211 H 0.89681 0.49629 0.03175 0.0
H1212 H 0.8891 0.52718 0.0059 0.0
H1213 H 0.8344 0.53817 0.94989 0.0
H1214 H 0.8051 0.51286 0.93424 0.0
H1215 H 0.82094 0.51958 0.07224 0.0
H1216 H 0.76511 0.51916 0.03715 0.0
H1217 H 0.87893 0.44743 0.96776 0.0
H1218 H 0.83058 0.40618 0.99107 0.0
C1219 C 0.71469 0.57036 0.28525 0.0
C1220 C 0.69389 0.5684 0.28181 0.0
C1221 C 0.69024 0.57913 0.2636 0.0
C1222 C 0.70894 0.5871 0.2569 0.0
N1223 N 0.72388 0.58176 0.26986 0.0
Co1224 Co 0.75255 0.59198 0.26872 0.0
N1225 N 0.74592 0.61658 0.25217 0.0
C1226 C 0.72907 0.6186 0.24066 0.0
C1227 C 0.72869 0.63809 0.23164 0.0
C1228 C 0.74639 0.64867 0.23799 0.0
C1229 C 0.75658 0.63502 0.25058 0.0
N1230 N 0.78126 0.60181 0.2681 0.0
C1231 C 0.78898 0.62136 0.26515 0.0
C1232 C 0.81011 0.6219 0.26602 0.0
C1233 C 0.81554 0.60174 0.26966 0.0
C1234 C 0.79751 0.59008 0.27078 0.0
N1235 N 0.7593 0.5674 0.28503 0.0
C1236 C 0.77742 0.55858 0.28597 0.0
C1237 C 0.77707 0.54178 0.29935 0.0
C1238 C 0.75756 0.54023 0.30723 0.0
C1239 C 0.74718 0.55621 0.29815 0.0
N1240 N 0.75645 0.57674 0.24276 0.0
C1241 C 0.75659 0.55984 0.20255 0.0
C1242 C 0.7678 0.5783 0.20722 0.0
C1243 C 0.7674 0.5865 0.22718 0.0
C1244 C 0.74638 0.54923 0.21894 0.0
C1245 C 0.74663 0.55788 0.239 0.0
N1246 N 0.74826 0.60805 0.29389 0.0
C1247 C 0.7611 0.62575 0.32438 0.0
C1248 C 0.7446 0.63901 0.32394 0.0
C1249 C 0.72945 0.63529 0.30901 0.0
C1250 C 0.73142 0.61972 0.2945 0.0
C1251 C 0.76264 0.6103 0.30913 0.0
H1252 H 0.71985 0.61831 0.28275 0.0
H1253 H 0.77583 0.60086 0.30904 0.0
H1254 H 0.77529 0.60135 0.22967 0.0
H1255 H 0.73818 0.54982 0.25124 0.0
C1256 C 0.71238 0.604 0.24291 0.0
C1257 C 0.72607 0.56108 0.30249 0.0
C1258 C 0.77653 0.6392 0.26049 0.0
C1259 C 0.79495 0.56954 0.27845 0.0
H1260 H 0.68253 0.56052 0.29152 0.0
H1261 H 0.6755 0.58213 0.25702 0.0
H1262 H 0.7165 0.64436 0.22259 0.0
H1263 H 0.75111 0.66457 0.23407 0.0
H1264 H 0.82048 0.63538 0.2643 0.0
H1265 H 0.83075 0.59648 0.27222 0.0
H1266 H 0.78979 0.53271 0.30402 0.0
H1267 H 0.75178 0.52911 0.31872 0.0
H1268 H 0.7766 0.58673 0.19542 0.0
H1269 H 0.73765 0.53479 0.21621 0.0
H1270 H 0.77299 0.62766 0.33593 0.0
H1271 H 0.71662 0.64514 0.30746 0.0
H1272 H 0.23162 0.32981 0.08947 0.0
H1273 H 0.25431 0.27644 0.12129 0.0
H1274 H 0.20842 0.33567 0.11812 0.0
H1275 H 0.22999 0.28115 0.14955 0.0
H1276 H 0.19531 0.30136 0.20497 0.0
H1277 H 0.2217 0.30147 0.17834 0.0
H1278 H 0.17869 0.32331 0.13321 0.0
H1279 H 0.15304 0.32468 0.1601 0.0
C1280 C 0.23138 0.31919 0.10262 0.0
C1281 C 0.24481 0.30286 0.10345 0.0
C1282 C 0.21801 0.32243 0.11901 0.0
C1283 C 0.21729 0.30897 0.13635 0.0
C1284 C 0.23042 0.29218 0.13678 0.0
C1285 C 0.24413 0.28923 0.1205 0.0
C1286 C 0.19178 0.30697 0.18954 0.0
C1287 C 0.17202 0.31287 0.18461 0.0
C1288 C 0.20679 0.30658 0.17412 0.0
C1289 C 0.2023 0.31191 0.1534 0.0
C1290 C 0.1829 0.31917 0.14891 0.0
C1291 C 0.16806 0.31984 0.16435 0.0
H1292 H 0.93167 0.85664 0.46777 0.0
H1293 H 0.97632 0.89291 0.503 0.0
H1294 H 0.93957 0.87746 0.4372 0.0
H1295 H 0.98326 0.91513 0.47278 0.0
H1296 H 0.01403 0.9288 0.41079 0.0
H1297 H 0.00187 0.91165 0.44255 0.0
H1298 H 0.94119 0.90584 0.41651 0.0
H1299 H 0.95385 0.92073 0.38424 0.0
C1300 C 0.94238 0.8699 0.46923 0.0
C1301 C 0.95359 0.87295 0.48763 0.0
C1302 C 0.94707 0.88188 0.4516 0.0
C1303 C 0.96266 0.89766 0.45215 0.0
C1304 C 0.97179 0.90256 0.47146 0.0
C1305 C 0.96738 0.89023 0.48902 0.0
C1306 C 0.99825 0.92325 0.41166 0.0
C1307 C 0.98493 0.92628 0.39496 0.0
C1308 C 0.99108 0.91391 0.43013 0.0
C1309 C 0.97035 0.90769 0.43248 0.0
C1310 C 0.95724 0.91022 0.41547 0.0
C1311 C 0.9645 0.91901 0.39691 0.0
H1312 H 0.27037 0.7135 0.63357 0.0
H1313 H 0.28805 0.65671 0.6045 0.0
H1314 H 0.29347 0.70731 0.66251 0.0
H1315 H 0.31008 0.64954 0.63392 0.0
H1316 H 0.36878 0.66388 0.67206 0.0
H1317 H 0.34121 0.66154 0.64706 0.0
H1318 H 0.3008 0.68737 0.69232 0.0
H1319 H 0.32898 0.6908 0.71694 0.0
C1320 C 0.27904 0.69955 0.63363 0.0
C1321 C 0.27745 0.6855 0.61707 0.0
C1322 C 0.29204 0.69577 0.65029 0.0
C1323 C 0.30355 0.67776 0.65073 0.0
C1324 C 0.30165 0.66364 0.6341 0.0
C1325 C 0.28898 0.66764 0.61731 0.0
C1326 C 0.35382 0.66841 0.67686 0.0
C1327 C 0.35109 0.67784 0.69626 0.0
C1328 C 0.33793 0.66707 0.66253 0.0
C1329 C 0.31884 0.67483 0.66743 0.0
C1330 C 0.31548 0.68187 0.6878 0.0
C1331 C 0.3315 0.68342 0.70209 0.0
H1332 H 0.58306 0.1728 0.9293 0.0
H1333 H 0.55097 0.13003 0.97107 0.0
H1334 H 0.5724 0.15128 0.89987 0.0
H1335 H 0.54106 0.10783 0.94172 0.0
H1336 H 0.50349 0.08899 0.88521 0.0
H1337 H 0.51686 0.11024 0.91401 0.0
H1338 H 0.57396 0.11993 0.88127 0.0
H1339 H 0.56018 0.0997 0.85221 0.0
C1340 C 0.57437 0.15834 0.93223 0.0
C1341 C 0.56774 0.15316 0.95245 0.0
C1342 C 0.56818 0.146 0.91535 0.0
C1343 C 0.5554 0.12807 0.91834 0.0
C1344 C 0.55038 0.12188 0.9388 0.0
C1345 C 0.55648 0.13432 0.95569 0.0
C1346 C 0.51866 0.09622 0.88397 0.0
C1347 C 0.5308 0.09269 0.86651 0.0
C1348 C 0.52651 0.108 0.90064 0.0
C1349 C 0.54669 0.11642 0.9002 0.0
C1350 C 0.5584 0.11373 0.88222 0.0
C1351 C 0.55051 0.10211 0.86554 0.0
H1352 H 0.24294 0.15581 0.27692 0.0
H1353 H 0.25175 0.15837 0.21056 0.0
H1354 H 0.221 0.18554 0.27479 0.0
H1355 H 0.22979 0.1881 0.20828 0.0
H1356 H 0.19222 0.24807 0.21631 0.0
H1357 H 0.22155 0.22558 0.21918 0.0
H1358 H 0.18589 0.18315 0.25845 0.0
H1359 H 0.15687 0.2054 0.25533 0.0
C1360 C 0.24102 0.16347 0.26206 0.0
C1361 C 0.24915 0.15508 0.24394 0.0
C1362 C 0.22823 0.18024 0.26075 0.0
C1363 C 0.22341 0.18886 0.2413 0.0
C1364 C 0.23327 0.18182 0.22346 0.0
C1365 C 0.24594 0.16493 0.22476 0.0
C1366 C 0.19076 0.23377 0.22529 0.0
C1367 C 0.17242 0.22821 0.23546 0.0
C1368 C 0.20747 0.22103 0.22707 0.0
C1369 C 0.20611 0.20284 0.23936 0.0
C1370 C 0.18756 0.1973 0.24926 0.0
C1371 C 0.17089 0.20982 0.24726 0.0
H1372 H 0.01459 0.89578 0.53035 0.0
H1373 H 0.06324 0.85343 0.53693 0.0
H1374 H 0.03842 0.92529 0.53825 0.0
H1375 H 0.08713 0.8826 0.54403 0.0
H1376 H 0.12282 0.93093 0.57615 0.0
H1377 H 0.09382 0.90614 0.57246 0.0
H1378 H 0.06825 0.94574 0.52566 0.0
H1379 H 0.09688 0.97092 0.53018 0.0
C1380 C 0.03053 0.89296 0.53284 0.0
C1381 C 0.03726 0.87252 0.53273 0.0
C1382 C 0.04411 0.90974 0.53753 0.0
C1383 C 0.06457 0.90625 0.54225 0.0
C1384 C 0.07136 0.88581 0.54109 0.0
C1385 C 0.05782 0.86913 0.53654 0.0
C1386 C 0.11049 0.93473 0.56583 0.0
C1387 C 0.11204 0.95271 0.5534 0.0
C1388 C 0.09408 0.92039 0.56338 0.0
C1389 C 0.07912 0.92362 0.5482 0.0
C1390 C 0.07956 0.94272 0.53739 0.0
C1391 C 0.09588 0.95722 0.54008 0.0
H1392 H 0.27567 0.84142 0.77956 0.0
H1393 H 0.27032 0.83932 0.71283 0.0
H1394 H 0.29693 0.81114 0.77878 0.0
H1395 H 0.29179 0.80924 0.71186 0.0
H1396 H 0.33061 0.75145 0.71897 0.0
H1397 H 0.30036 0.7726 0.72172 0.0
H1398 H 0.33244 0.81298 0.76556 0.0
H1399 H 0.36231 0.79203 0.76263 0.0
C1400 C 0.27815 0.83375 0.76486 0.0
C1401 C 0.27126 0.84246 0.74628 0.0
C1402 C 0.2906 0.81666 0.76433 0.0
C1403 C 0.29639 0.8081 0.74521 0.0
C1404 C 0.28758 0.81542 0.72683 0.0
C1405 C 0.27518 0.83254 0.72737 0.0
C1406 C 0.33098 0.76483 0.7292 0.0
C1407 C 0.34855 0.77011 0.74075 0.0
C1408 C 0.31375 0.77686 0.73083 0.0
C1409 C 0.31386 0.7942 0.74419 0.0
C1410 C 0.33161 0.79939 0.75561 0.0
C1411 C 0.34877 0.78757 0.7538 0.0
H1412 H 0.39333 0.10138 0.05218 0.0
H1413 H 0.4311 0.05444 0.02672 0.0
H1414 H 0.41995 0.12789 0.04548 0.0
H1415 H 0.45853 0.08073 0.02145 0.0
H1416 H 0.49335 0.13486 0.98988 0.0
H1417 H 0.46675 0.10818 0.99833 0.0
H1418 H 0.45128 0.14306 0.05316 0.0
H1419 H 0.4768 0.17003 0.04373 0.0
C1420 C 0.40762 0.09663 0.04574 0.0
C1421 C 0.40999 0.07584 0.03978 0.0
C1422 C 0.423 0.11186 0.04195 0.0
C1423 C 0.44137 0.10662 0.0325 0.0
C1424 C 0.44438 0.08549 0.02816 0.0
C1425 C 0.42882 0.07028 0.03166 0.0
C1426 C 0.4838 0.13689 0.00339 0.0
C1427 C 0.48682 0.15442 0.01608 0.0
C1428 C 0.46886 0.12148 0.00852 0.0
C1429 C 0.45695 0.12323 0.02663 0.0
C1430 C 0.45985 0.14118 0.03897 0.0
C1431 C 0.47446 0.15668 0.03361 0.0
H1432 H 0.0386 0.03625 0.40676 0.0
H1433 H 0.03087 0.96922 0.40639 0.0
H1434 H 0.062 0.03425 0.43616 0.0
H1435 H 0.05446 0.96707 0.43562 0.0
H1436 H 0.0988 0.97282 0.49169 0.0
H1437 H 0.06667 0.97601 0.47242 0.0
H1438 H 0.09687 0.0206 0.43097 0.0
H1439 H 0.12859 0.01721 0.45002 0.0
C1440 C 0.04101 0.02119 0.41377 0.0
C1441 C 0.03292 0.0029 0.40452 0.0
C1442 C 0.05465 0.01998 0.43035 0.0
C1443 C 0.0604 1.00047 0.43784 0.0
C1444 C 0.05032 0.98231 0.43021 0.0
C1445 C 0.03671 0.98352 0.41359 0.0
C1446 C 0.09834 0.98335 0.47853 0.0
C1447 C 0.11589 0.9951 0.4725 0.0
C1448 C 0.08006 0.98522 0.46757 0.0
C1449 C 0.07913 0.99899 0.45054 0.0
C1450 C 0.0969 0.0104 0.44442 0.0
C1451 C 0.11509 0.00834 0.45516 0.0
H1452 H 0.17894 0.77166 0.60185 0.0
H1453 H 0.21513 0.73796 0.64522 0.0
H1454 H 0.18522 0.80343 0.62155 0.0
H1455 H 0.22075 0.76958 0.66585 0.0
H1456 H 0.25495 0.8323 0.67523 0.0
H1457 H 0.2424 0.79941 0.66018 0.0
H1458 H 0.18375 0.82548 0.64972 0.0
H1459 H 0.19682 0.85869 0.66319 0.0
C1460 C 0.18716 0.77082 0.61641 0.0
C1461 C 0.19656 0.75243 0.62203 0.0
C1462 C 0.19101 0.78913 0.62766 0.0
C1463 C 0.20411 0.78932 0.64499 0.0
C1464 C 0.2112 0.77019 0.65217 0.0
C1465 C 0.20751 0.75189 0.64073 0.0
C1466 C 0.23956 0.83115 0.66922 0.0
C1467 C 0.22692 0.84816 0.67046 0.0
C1468 C 0.23215 0.8121 0.66105 0.0
C1469 C 0.21185 0.80952 0.6541 0.0
C1470 C 0.19944 0.82675 0.65485 0.0
C1471 C 0.20693 0.84584 0.6627 0.0
H1472 H 0.39233 1.00137 0.9401 0.0
H1473 H 0.42762 0.04448 0.97843 0.0
H1474 H 0.42151 0.9979 0.91708 0.0
H1475 H 0.45709 0.04131 0.95505 0.0
H1476 H 0.48677 0.04586 0.88513 0.0
H1477 H 0.46494 0.04986 0.91559 0.0
H1478 H 0.45697 0.98289 0.92052 0.0
H1479 H 0.47879 0.97901 0.89008 0.0
C1480 C 0.40638 0.01024 0.94339 0.0
C1481 C 0.40788 0.02324 0.96083 0.0
C1482 C 0.42312 0.00808 0.93044 0.0
C1483 C 0.44167 0.01902 0.93454 0.0
C1484 C 0.443 0.03259 0.95168 0.0
C1485 C 0.42621 0.03452 0.9649 0.0
C1486 C 0.48118 0.03204 0.89345 0.0
C1487 C 0.48456 0.01213 0.88555 0.0
C1488 C 0.46861 0.03432 0.91077 0.0
C1489 C 0.45903 0.01669 0.92016 0.0
C1490 C 0.46403 0.99673 0.91341 0.0
C1491 C 0.47673 0.99447 0.89622 0.0
H1492 H 0.32604 0.1406 0.16184 0.0
H1493 H 0.26677 0.16572 0.1702 0.0
H1494 H 0.33874 0.17339 0.14717 0.0
H1495 H 0.27894 0.19811 0.15353 0.0
H1496 H 0.3056 0.25956 0.13544 0.0
H1497 H 0.29898 0.22888 0.15743 0.0
H1498 H 0.33865 0.19391 0.11835 0.0
H1499 H 0.34604 0.22481 0.09755 0.0
C1500 C 0.31559 0.15307 0.16025 0.0
C1501 C 0.29541 0.15055 0.16743 0.0
C1502 C 0.32287 0.17192 0.15163 0.0
C1503 C 0.31002 0.18869 0.14929 0.0
C1504 C 0.28952 0.18584 0.15559 0.0
C1505 C 0.28234 0.16704 0.16468 0.0
C1506 C 0.31379 0.24561 0.13242 0.0
C1507 C 0.32635 0.24449 0.11487 0.0
C1508 C 0.30956 0.22782 0.14462 0.0
C1509 C 0.31767 0.20859 0.13931 0.0
C1510 C 0.33205 0.20828 0.1231 0.0
C1511 C 0.3365 0.2261 0.11119 0.0
H1512 H 0.72785 0.33421 0.80821 0.0
H1513 H 0.77922 0.35901 0.84358 0.0
H1514 H 0.73476 0.29891 0.82058 0.0
H1515 H 0.78642 0.32417 0.85515 0.0
H1516 H 0.80884 0.26641 0.86498 0.0
H1517 H 0.79822 0.29024 0.83783 0.0
H1518 H 0.73574 0.28057 0.8574 0.0
H1519 H 0.74646 0.25632 0.88405 0.0
C1520 C 0.74047 0.33217 0.81869 0.0
C1521 C 0.75321 0.34936 0.82463 0.0
C1522 C 0.74458 0.31198 0.82549 0.0
C1523 C 0.76164 0.30873 0.83807 0.0
C1524 C 0.77368 0.32606 0.84475 0.0
C1525 C 0.76942 0.34608 0.83829 0.0
C1526 C 0.79272 0.26809 0.86237 0.0
C1527 C 0.77847 0.26012 0.87687 0.0
C1528 C 0.78663 0.28199 0.84706 0.0
C1529 C 0.76627 0.28787 0.84621 0.0
C1530 C 0.75155 0.27653 0.85792 0.0
C1531 C 0.75767 0.26252 0.87311 0.0
H1532 H 0.96115 0.4501 0.12799 0.0
H1533 H 0.95089 0.51586 0.1244 0.0
H1534 H 0.93472 0.44315 0.10158 0.0
H1535 H 0.92452 0.50908 0.09808 0.0
H1536 H 0.8616 0.48689 0.07626 0.0
H1537 H 0.88969 0.49082 0.10104 0.0
H1538 H 0.92553 0.45082 0.06323 0.0
H1539 H 0.89719 0.44698 0.03833 0.0
C1540 C 0.95357 0.46307 0.12106 0.0
C1541 C 0.95814 0.48351 0.12781 0.0
C1542 C 0.93846 0.45912 0.10607 0.0
C1543 C 0.92744 0.47555 0.09797 0.0
C1544 C 0.93262 0.49609 0.10426 0.0
C1545 C 0.94784 0.50004 0.11905 0.0
C1546 C 0.87531 0.47852 0.0736 0.0
C1547 C 0.87727 0.4664 0.05569 0.0
C1548 C 0.89146 0.48099 0.08756 0.0
C1549 C 0.90989 0.47137 0.08388 0.0
C1550 C 0.91149 0.45838 0.06643 0.0
C1551 C 0.89531 0.45606 0.05231 0.0
H1552 H 0.77163 0.75418 0.39042 0.0
H1553 H 0.71336 0.73162 0.41386 0.0
H1554 H 0.76841 0.73001 0.36134 0.0
H1555 H 0.71073 0.70609 0.38648 0.0
H1556 H 0.7105 0.65686 0.33936 0.0
H1557 H 0.70841 0.69004 0.35618 0.0
H1558 H 0.77425 0.6957 0.3591 0.0
H1559 H 0.77624 0.664 0.33919 0.0
C1560 C 0.75772 0.74461 0.38874 0.0
C1561 C 0.74277 0.7445 0.40422 0.0
C1562 C 0.75609 0.73027 0.37248 0.0
C1563 C 0.73985 0.71516 0.37201 0.0
C1564 C 0.72359 0.7172 0.38607 0.0
C1565 C 0.72493 0.73202 0.40184 0.0
C1566 C 0.72461 0.6654 0.34303 0.0
C1567 C 0.74358 0.65769 0.33752 0.0
C1568 C 0.72339 0.68445 0.35313 0.0
C1569 C 0.74112 0.69595 0.35911 0.0
C1570 C 0.76014 0.68785 0.35427 0.0
C1571 C 0.76135 0.66917 0.34336 0.0
H1572 H 0.79495 0.66181 0.2296 0.0
H1573 H 0.782 0.66239 0.29527 0.0
H1574 H 0.82144 0.68947 0.23448 0.0
H1575 H 0.80827 0.69039 0.30017 0.0
H1576 H 0.85392 0.75248 0.28709 0.0
H1577 H 0.82179 0.73118 0.28431 0.0
H1578 H 0.85496 0.68053 0.25919 0.0
H1579 H 0.88683 0.70148 0.26248 0.0
C1580 C 0.79707 0.66867 0.24486 0.0
C1581 C 0.78637 0.6603 0.26202 0.0
C1582 C 0.81232 0.68427 0.24771 0.0
C1583 C 0.81691 0.69185 0.26772 0.0
C1584 C 0.80489 0.68486 0.2846 0.0
C1585 C 0.78982 0.669 0.28179 0.0
C1586 C 0.85425 0.73658 0.28155 0.0
C1587 C 0.8727 0.72837 0.27527 0.0
C1588 C 0.83597 0.72454 0.27979 0.0
C1589 C 0.83599 0.70443 0.27123 0.0
C1590 C 0.85458 0.69611 0.26559 0.0
C1591 C 0.87277 0.70792 0.26771 0.0
H1592 H 0.62901 0.31248 0.73534 0.0
H1593 H 0.66208 0.26485 0.76622 0.0
H1594 H 0.66037 0.33415 0.73195 0.0
H1595 H 0.69375 0.28679 0.76316 0.0
H1596 H 0.73171 0.35398 0.77394 0.0
H1597 H 0.70701 0.3243 0.77663 0.0
H1598 H 0.69405 0.32992 0.71113 0.0
H1599 H 0.71873 0.35956 0.70862 0.0
C1600 C 0.643 0.30694 0.74181 0.0
C1601 C 0.64324 0.28729 0.75134 0.0
C1602 C 0.66096 0.3191 0.73956 0.0
C1603 C 0.67952 0.31191 0.74691 0.0
C1604 C 0.67964 0.29256 0.75723 0.0
C1605 C 0.66161 0.28018 0.75919 0.0
C1606 C 0.7243 0.34812 0.76 0.0
C1607 C 0.72689 0.35897 0.74114 0.0
C1608 C 0.71012 0.33126 0.76153 0.0
C1609 C 0.69833 0.32523 0.7442 0.0
C1610 C 0.70277 0.33452 0.72479 0.0
C1611 C 0.71707 0.35124 0.72325 0.0
H1612 H 0.44978 0.6624 0.52444 0.0
H1613 H 0.50388 0.63668 0.4994 0.0
H1614 H 0.44633 0.63398 0.54911 0.0
H1615 H 0.49973 0.60692 0.5229 0.0
H1616 H 0.51229 0.58631 0.58908 0.0
H1617 H 0.50861 0.60567 0.55714 0.0
H1618 H 0.44317 0.60285 0.56513 0.0
H1619 H 0.44712 0.58596 0.59838 0.0
C1620 C 0.46006 0.64973 0.52324 0.0
C1621 C 0.47729 0.6518 0.51046 0.0
C1622 C 0.45826 0.63338 0.5376 0.0
C1623 C 0.47342 0.61857 0.53887 0.0
C1624 C 0.48842 0.61865 0.5232 0.0
C1625 C 0.49051 0.63535 0.50925 0.0
C1626 C 0.49714 0.59028 0.58436 0.0
C1627 C 0.48006 0.58453 0.59656 0.0
C1628 C 0.49492 0.60089 0.56555 0.0
C1629 C 0.47549 0.60563 0.55807 0.0
C1630 C 0.45841 0.59973 0.57024 0.0
C1631 C 0.46069 0.58971 0.58934 0.0
H1632 H 0.70405 0.26392 0.87398 0.0
H1633 H 0.68678 0.20568 0.90441 0.0
H1634 H 0.68367 0.25337 0.84386 0.0
H1635 H 0.66797 0.19436 0.87383 0.0
H1636 H 0.66052 0.22496 0.78513 0.0
H1637 H 0.68294 0.23134 0.81486 0.0
H1638 H 0.63924 0.19805 0.8545 0.0
H1639 H 0.61781 0.1905 0.8246 0.0
C1640 C 0.69578 0.24895 0.87433 0.0
C1641 C 0.69722 0.2356 0.89156 0.0
C1642 C 0.68444 0.24265 0.85684 0.0
C1643 C 0.67445 0.22276 0.85609 0.0
C1644 C 0.67531 0.2098 0.87371 0.0
C1645 C 0.68629 0.21624 0.89127 0.0
C1646 C 0.65622 0.2182 0.80004 0.0
C1647 C 0.63736 0.20733 0.80258 0.0
C1648 C 0.66881 0.22232 0.81723 0.0
C1649 C 0.66269 0.21581 0.83731 0.0
C1650 C 0.64462 0.20336 0.8394 0.0
C1651 C 0.63224 0.19899 0.82221 0.0
H1652 H 0.97632 0.39992 0.13235 0.0
H1653 H 0.04173 0.40393 0.1389 0.0
H1654 H 0.97942 0.37427 0.10468 0.0
H1655 H 0.04503 0.37993 0.11037 0.0
H1656 H 0.99274 0.35024 0.03944 0.0
H1657 H 0.98877 0.3729 0.06958 0.0
H1658 H 0.04176 0.34684 0.09787 0.0
H1659 H 0.04642 0.32578 0.06706 0.0
C1660 C 0.99132 0.39508 0.12808 0.0
C1661 C 0.00879 0.40408 0.13762 0.0
C1662 C 0.99316 0.3807 0.11194 0.0
C1663 C 0.0125 0.37523 0.10491 0.0
C1664 C 0.02985 0.38349 0.11532 0.0
C1665 C 0.02799 0.39749 0.13161 0.0
C1666 C 0.00359 0.34972 0.05209 0.0
C1667 C 0.01971 0.33625 0.05122 0.0
C1668 C 1.00119 0.3624 0.0695 0.0
C1669 C 0.01479 0.36161 0.08641 0.0
C1670 C 0.03111 0.3482 0.08517 0.0
C1671 C 0.03374 0.33598 0.0676 0.0
H1672 H 0.83631 0.82008 0.41948 0.0
H1673 H 0.82414 0.75852 0.39411 0.0
H1674 H 0.85165 0.83145 0.38684 0.0
H1675 H 0.8411 0.76937 0.36198 0.0
H1676 H 0.85994 0.79369 0.301 0.0
H1677 H 0.83814 0.78931 0.33148 0.0
H1678 H 0.88042 0.8289 0.3667 0.0
H1679 H 0.90133 0.83422 0.33592 0.0
C1680 C 0.83709 0.80887 0.40699 0.0
C1681 C 0.82884 0.78839 0.40943 0.0
C1682 C 0.84606 0.81538 0.38826 0.0
C1683 C 0.84746 0.80146 0.37155 0.0
C1684 C 0.83983 0.78074 0.37425 0.0
C1685 C 0.83053 0.77433 0.3929 0.0
C1686 C 0.86397 0.80232 0.31497 0.0
C1687 C 0.88244 0.81413 0.31617 0.0
C1688 C 0.85175 0.79939 0.33263 0.0
C1689 C 0.85786 0.80809 0.35184 0.0
C1690 C 0.87516 0.82183 0.35231 0.0
C1691 C 0.88718 0.82497 0.3346 0.0
H1692 H 0.52139 0.54463 0.588 0.0
H1693 H 0.52778 0.47812 0.58978 0.0
H1694 H 0.5474 0.54789 0.56069 0.0
H1695 H 0.55383 0.4813 0.56265 0.0
H1696 H 0.5928 0.53733 0.50334 0.0
H1697 H 0.56025 0.53494 0.52256 0.0
H1698 H 0.58915 0.50081 0.5715 0.0
H1699 H 0.62141 0.5036 0.5526 0.0
C1700 C 0.5276 0.53063 0.5817 0.0
C1701 C 0.52253 0.51111 0.5907 0.0
C1702 C 0.54255 0.5325 0.56623 0.0
C1703 C 0.55278 0.51488 0.55988 0.0
C1704 C 0.54622 0.49512 0.56744 0.0
C1705 C 0.53115 0.49323 0.58271 0.0
C1706 C 0.59211 0.52973 0.51841 0.0
C1707 C 0.60945 0.52086 0.52675 0.0
C1708 C 0.57357 0.52821 0.52926 0.0
C1709 C 0.57218 0.51733 0.54825 0.0
C1710 C 0.58974 0.50892 0.55669 0.0
C1711 C 0.60821 0.51075 0.54608 0.0
H1712 H 0.93317 0.32741 0.0244 0.0
H1713 H 0.93462 0.32372 0.95748 0.0
H1714 H 0.90682 0.35333 0.02187 0.0
H1715 H 0.90792 0.34845 0.955 0.0
H1716 H 0.8924 0.42228 0.99947 0.0
H1717 H 0.91239 0.39141 0.00465 0.0
H1718 H 0.87021 0.35541 0.96612 0.0
H1719 H 0.84999 0.38628 0.96119 0.0
C1720 C 0.92717 0.33131 0.00927 0.0
C1721 C 0.93564 0.32322 0.99115 0.0
C1722 C 0.91231 0.34626 0.0078 0.0
C1723 C 0.90545 0.35284 0.98821 0.0
C1724 C 0.91278 0.34349 0.97026 0.0
C1725 C 0.92795 0.32916 0.97171 0.0
C1726 C 0.88761 0.40783 0.99186 0.0
C1727 C 0.86993 0.40667 0.9796 0.0
C1728 C 0.89877 0.39013 0.99518 0.0
C1729 C 0.8926 0.37102 0.98606 0.0
C1730 C 0.87514 0.36995 0.97345 0.0
C1731 C 0.86376 0.38758 0.97044 0.0
H1732 H 0.64332 0.59165 0.42882 0.0
H1733 H 0.59883 0.55415 0.46338 0.0
H1734 H 0.62403 0.62242 0.43491 0.0
H1735 H 0.5788 0.58474 0.46862 0.0
H1736 H 0.56694 0.64516 0.50237 0.0
H1737 H 0.58343 0.61393 0.49101 0.0
H1738 H 0.59569 0.64268 0.43114 0.0
H1739 H 0.58053 0.67432 0.44304 0.0
C1740 C 0.62888 0.58985 0.43689 0.0
C1741 C 0.6227 0.57058 0.44582 0.0
C1742 C 0.61781 0.60753 0.44048 0.0
C1743 C 0.60014 0.60623 0.45284 0.0
C1744 C 0.59271 0.58644 0.45964 0.0
C1745 C 0.60391 0.56877 0.4562 0.0
C1746 C 0.57364 0.64499 0.48699 0.0
C1747 C 0.57238 0.66223 0.47363 0.0
C1748 C 0.58266 0.62689 0.48026 0.0
C1749 C 0.59052 0.62554 0.45995 0.0
C1750 C 0.58984 0.64307 0.44685 0.0
C1751 C 0.58104 0.66122 0.45366 0.0
H1752 H 0.03769 0.07701 0.26297 0.0
H1753 H 0.02171 0.09704 0.32464 0.0
H1754 H 0.04456 0.11333 0.2528 0.0
H1755 H 0.02989 0.13295 0.31504 0.0
H1756 H 0.03878 0.19879 0.29226 0.0
H1757 H 0.02338 0.16363 0.29698 0.0
H1758 H 0.07016 0.13891 0.25812 0.0
H1759 H 0.08452 0.17379 0.25246 0.0
C1760 C 0.03549 0.08912 0.27433 0.0
C1761 C 0.02959 0.08394 0.29477 0.0
C1762 C 0.03968 0.11001 0.26858 0.0
C1763 C 0.0382 0.12627 0.28317 0.0
C1764 C 0.03118 0.12108 0.30326 0.0
C1765 C 0.02681 0.10031 0.3089 0.0
C1766 C 0.04549 0.18586 0.28444 0.0
C1767 C 0.06318 0.18913 0.27238 0.0
C1768 C 0.03681 0.16562 0.2873 0.0
C1769 C 0.0456 0.14818 0.27816 0.0
C1770 C 0.06271 0.15175 0.26531 0.0
C1771 C 0.07123 0.17186 0.26236 0.0
H1772 H 0.17056 0.73413 0.50115 0.0
H1773 H 0.17046 0.71488 0.56538 0.0
H1774 H 0.13621 0.74683 0.50539 0.0
H1775 H 0.13645 0.72775 0.5699 0.0
H1776 H 0.06762 0.7331 0.56626 0.0
H1777 H 0.10145 0.71963 0.56022 0.0
H1778 H 0.1173 0.77332 0.52184 0.0
H1779 H 0.08359 0.78625 0.52729 0.0
C1780 C 0.16342 0.73319 0.51631 0.0
C1781 C 0.17334 0.72398 0.53306 0.0
C1782 C 0.14366 0.74028 0.51876 0.0
C1783 C 0.1334 0.73819 0.53799 0.0
C1784 C 0.14363 0.72929 0.55478 0.0
C1785 C 0.16327 0.72222 0.5523 0.0
C1786 C 0.07828 0.74184 0.55636 0.0
C1787 C 0.07299 0.76089 0.54755 0.0
C1788 C 0.09775 0.73427 0.55304 0.0
C1789 C 0.11227 0.7455 0.54069 0.0
C1790 C 0.1066 0.76416 0.53133 0.0
C1791 C 0.08728 0.7717 0.53468 0.0
H1792 H 0.4816 0.93096 0.74788 0.0
H1793 H 0.49898 0.91321 0.81 0.0
H1794 H 0.47602 0.89421 0.73892 0.0
H1795 H 0.49224 0.87677 0.80152 0.0
H1796 H 0.48666 0.81026 0.78018 0.0
H1797 H 0.50051 0.8462 0.7836 0.0
H1798 H 0.45118 0.86774 0.74593 0.0
H1799 H 0.43818 0.83212 0.74174 0.0
C1800 C 0.48439 0.91926 0.75959 0.0
C1801 C 0.49035 0.92518 0.77979 0.0
C1802 C 0.48097 0.89813 0.75453 0.0
C1803 C 0.48334 0.88235 0.76956 0.0
C1804 C 0.49032 0.8883 0.78943 0.0
C1805 C 0.49387 0.90934 0.79442 0.0
C1806 C 0.47908 0.82268 0.77232 0.0
C1807 C 0.46109 0.81833 0.76104 0.0
C1808 C 0.48687 0.84334 0.77443 0.0
C1809 C 0.47688 0.86008 0.76525 0.0
C1810 C 0.45949 0.85545 0.75311 0.0
C1811 C 0.45182 0.83493 0.75096 0.0
H1812 H 0.35946 0.28635 0.05738 0.0
H1813 H 0.36152 0.26763 0.99314 0.0
H1814 H 0.39471 0.27676 0.06203 0.0
H1815 H 0.39678 0.25764 0.9978 0.0
H1816 H 0.45239 0.22258 0.02158 0.0
H1817 H 0.4173 0.23202 0.0163 0.0
H1818 H 0.42942 0.28898 0.05053 0.0
H1819 H 0.46477 0.27933 0.05599 0.0
C1820 C 0.36739 0.27981 0.04434 0.0
C1821 C 0.35756 0.27728 0.02502 0.0
C1822 C 0.38766 0.27454 0.04694 0.0
C1823 C 0.39868 0.26653 0.03028 0.0
C1824 C 0.38869 0.26356 0.01103 0.0
C1825 C 0.36839 0.26903 0.00839 0.0
C1826 C 0.44757 0.23711 0.02807 0.0
C1827 C 0.46133 0.25008 0.03948 0.0
C1828 C 0.42747 0.24261 0.02486 0.0
C1829 C 0.42043 0.2612 0.03306 0.0
C1830 C 0.43427 0.2744 0.0442 0.0
C1831 C 0.45455 0.26899 0.04722 0.0
H1832 H 0.27725 0.07455 0.16496 0.0
H1833 H 0.31766 0.02613 0.18148 0.0
H1834 H 0.28456 0.0693 0.12822 0.0
H1835 H 0.32525 0.02092 0.14458 0.0
H1836 H 0.34533 0.02795 0.07605 0.0
H1837 H 0.34093 0.03672 0.11277 0.0
H1838 H 0.27646 0.04187 0.10247 0.0
H1839 H 0.28091 0.03267 0.06592 0.0
C1840 C 0.28806 0.06305 0.16073 0.0
C1841 C 0.29715 0.05103 0.1762 0.0
C1842 C 0.2921 0.0599 0.13963 0.0
C1843 C 0.3054 0.04458 0.13331 0.0
C1844 C 0.3151 0.03303 0.14884 0.0
C1845 C 0.31093 0.03612 0.17005 0.0
C1846 C 0.33026 0.03125 0.08164 0.0
C1847 C 0.31356 0.03021 0.06794 0.0
C1848 C 0.32771 0.03612 0.1027 0.0
C1849 C 0.30836 0.04013 0.11066 0.0
C1850 C 0.29167 0.03931 0.09685 0.0
C1851 C 0.29421 0.03424 0.0758 0.0
H1852 H 0.20744 0.99476 0.41006 0.0
H1853 H 0.25608 0.03471 0.43476 0.0
H1854 H 0.21955 0.00163 0.37502 0.0
H1855 H 0.26901 0.04093 0.39942 0.0
H1856 H 0.26531 0.07167 0.33438 0.0
H1857 H 0.25978 0.06027 0.36997 0.0
H1858 H 0.24341 0.9981 0.34832 0.0
H1859 H 0.24786 0.00996 0.31237 0.0
C1860 C 0.22098 0.00482 0.408 0.0
C1861 C 0.23052 0.01455 0.42525 0.0
C1862 C 0.22812 0.00857 0.3878 0.0
C1863 C 0.24521 0.02205 0.38412 0.0
C1864 C 0.25556 0.03078 0.40152 0.0
C1865 C 0.24831 0.02705 0.42185 0.0
C1866 C 0.26044 0.05555 0.33713 0.0
C1867 C 0.25654 0.04189 0.32034 0.0
C1868 C 0.25759 0.04889 0.35771 0.0
C1869 C 0.25092 0.02825 0.36226 0.0
C1870 C 0.24814 0.01423 0.34551 0.0
C1871 C 0.25091 0.02097 0.32483 0.0
H1872 H 0.21239 0.97881 0.68401 0.0
H1873 H 0.24481 0.92484 0.66617 0.0
H1874 H 0.20565 0.98631 0.64728 0.0
H1875 H 0.23807 0.93206 0.6296 0.0
H1876 H 0.24628 0.96731 0.56737 0.0
H1877 H 0.24965 0.9574 0.6039 0.0
H1878 H 0.18816 0.97538 0.61546 0.0
H1879 H 0.18491 0.98516 0.5788 0.0
C1880 C 0.2175 0.96819 0.67227 0.0
C1881 C 0.22884 0.95106 0.67796 0.0
C1882 C 0.21378 0.97253 0.65117 0.0
C1883 C 0.22147 0.95991 0.63532 0.0
C1884 C 0.2322 0.94237 0.64124 0.0
C1885 C 0.23588 0.93806 0.66223 0.0
C1886 C 0.23333 0.96861 0.5776 0.0
C1887 C 0.21516 0.9765 0.57011 0.0
C1888 C 0.23526 0.96305 0.59862 0.0
C1889 C 0.21912 0.96541 0.61276 0.0
C1890 C 0.20096 0.97344 0.60517 0.0
C1891 C 0.19904 0.97893 0.58414 0.0
H1892 H 0.27895 0.98765 0.81333 0.0
H1893 H 0.26078 0.92634 0.83641 0.0
H1894 H 0.28446 0.99954 0.84896 0.0
H1895 H 0.26765 0.93768 0.87168 0.0
H1896 H 0.27392 0.96354 0.93621 0.0
H1897 H 0.26013 0.95676 0.90136 0.0
H1898 H 0.30852 0.99636 0.87497 0.0
H1899 H 0.32129 0.00396 0.90947 0.0
C1900 C 0.27601 0.97671 0.82595 0.0
C1901 C 0.26984 0.95588 0.82179 0.0
C1902 C 0.27942 0.98346 0.84647 0.0
C1903 C 0.27689 0.96953 0.86344 0.0
C1904 C 0.26972 0.949 0.85926 0.0
C1905 C 0.26612 0.94235 0.83883 0.0
C1906 C 0.2813 0.97108 0.92296 0.0
C1907 C 0.29898 0.98393 0.92568 0.0
C1908 C 0.27356 0.96704 0.90289 0.0
C1909 C 0.2833 0.97575 0.88507 0.0
C1910 C 0.30036 0.98942 0.88807 0.0
C1911 C 0.30794 0.99354 0.90799 0.0
H1912 H 0.11521 0.3186 0.99726 0.0
H1913 H 0.12242 0.25831 0.96931 0.0
H1914 H 0.15137 0.32619 0.99486 0.0
H1915 H 0.15902 0.26651 0.9656 0.0
H1916 H 0.22491 0.27796 0.99262 0.0
H1917 H 0.18899 0.26955 0.9857 0.0
H1918 H 0.17951 0.33494 0.97483 0.0
H1919 H 0.21522 0.3432 0.98309 0.0
C1920 C 0.12454 0.30691 0.99047 0.0
C1921 C 0.11583 0.28758 0.98397 0.0
C1922 C 0.14541 0.31148 0.98868 0.0
C1923 C 0.15841 0.29705 0.97996 0.0
C1924 C 0.14963 0.27797 0.97265 0.0
C1925 C 0.12858 0.27331 0.9746 0.0
C1926 C 0.21521 0.29039 0.98804 0.0
C1927 C 0.22282 0.3112 0.9882 0.0
C1928 C 0.19455 0.28561 0.98411 0.0
C1929 C 0.18103 0.30156 0.98007 0.0
C1930 C 0.1892 0.32223 0.97848 0.0
C1931 C 0.20976 0.32702 0.98284 0.0
H1932 H 0.70546 0.23325 0.95847 0.0
H1933 H 0.71312 0.25084 0.02265 0.0
H1934 H 0.66837 0.23312 0.96253 0.0
H1935 H 0.67611 0.25081 0.02688 0.0
H1936 H 0.61134 0.27177 0.02246 0.0
H1937 H 0.64797 0.27197 0.01535 0.0
H1938 H 0.63902 0.21517 0.98005 0.0
H1939 H 0.60238 0.2152 0.9872 0.0
C1940 C 0.69915 0.23675 0.97353 0.0
C1941 C 0.71211 0.24218 0.99021 0.0
C1942 C 0.67792 0.23677 0.97587 0.0
C1943 C 0.66917 0.24232 0.99495 0.0
C1944 C 0.68226 0.24695 0.01183 0.0
C1945 C 0.70345 0.24679 0.0095 0.0
C1946 C 0.61721 0.25971 0.01269 0.0
C1947 C 0.60408 0.24365 0.00511 0.0
C1948 C 0.63821 0.25959 0.00888 0.0
C1949 C 0.64657 0.24341 0.99736 0.0
C1950 C 0.63317 0.22792 0.98889 0.0
C1951 C 0.61218 0.22798 0.99285 0.0
H1952 H 0.09338 0.33645 0.20763 0.0
H1953 H 0.04843 0.33004 0.25624 0.0
H1954 H 0.08355 0.37245 0.20121 0.0
H1955 H 0.0389 0.36604 0.25029 0.0
H1956 H 0.04734 0.43759 0.25234 0.0
H1957 H 0.05743 0.40153 0.25592 0.0
H1958 H 0.05323 0.39379 0.18941 0.0
H1959 H 0.04247 0.42975 0.18601 0.0
C1960 C 0.08123 0.34271 0.21675 0.0
C1961 C 0.07185 0.33065 0.23262 0.0
C1962 C 0.07564 0.36329 0.21313 0.0
C1963 C 0.0607 0.37225 0.2255 0.0
C1964 C 0.05075 0.35977 0.24078 0.0
C1965 C 0.05612 0.33916 0.24414 0.0
C1966 C 0.04834 0.42811 0.23853 0.0
C1967 C 0.04343 0.43626 0.21897 0.0
C1968 C 0.0542 0.40748 0.24055 0.0
C1969 C 0.05574 0.39462 0.22299 0.0
C1970 C 0.05209 0.40322 0.20326 0.0
C1971 C 0.04596 0.42382 0.20129 0.0
H1972 H 0.9288 0.81257 0.53836 0.0
H1973 H 0.92433 0.74881 0.51736 0.0
H1974 H 0.89268 0.8162 0.53086 0.0
H1975 H 0.88832 0.75245 0.50952 0.0
H1976 H 0.82876 0.76868 0.48183 0.0
H1977 H 0.86547 0.77021 0.48611 0.0
H1978 H 0.85891 0.80309 0.54401 0.0
H1979 H 0.82174 0.80171 0.53932 0.0
C1980 C 0.92015 0.79941 0.53183 0.0
C1981 C 0.92959 0.78055 0.52795 0.0
C1982 C 0.89941 0.80146 0.52766 0.0
C1983 C 0.88753 0.78469 0.51946 0.0
C1984 C 0.89706 0.76586 0.51541 0.0
C1985 C 0.9178 0.76379 0.5197 0.0
C1986 C 0.83514 0.77686 0.49509 0.0
C1987 C 0.82234 0.7854 0.51 0.0
C1988 C 0.85623 0.77744 0.49775 0.0
C1989 C 0.86523 0.78648 0.51556 0.0
C1990 C 0.85253 0.79609 0.53002 0.0
C1991 C 0.83125 0.79546 0.52731 0.0
H1992 H 0.31055 0.69209 0.4839 0.0
H1993 H 0.31841 0.68972 0.5506 0.0
H1994 H 0.34594 0.70566 0.48031 0.0
H1995 H 0.35339 0.70247 0.54686 0.0
H1996 H 0.4207 0.70085 0.53089 0.0
H1997 H 0.38531 0.6885 0.53212 0.0
H1998 H 0.36911 0.73801 0.49063 0.0
H1999 H 0.40472 0.75101 0.4898 0.0
C2000 C 0.31972 0.69432 0.49776 0.0
C2001 C 0.3116 0.68919 0.51749 0.0
C2002 C 0.33999 0.70214 0.49569 0.0
C2003 C 0.35257 0.70487 0.51329 0.0
C2004 C 0.34431 0.7001 0.53295 0.0
C2005 C 0.32418 0.69255 0.53503 0.0
C2006 C 0.40966 0.70949 0.52231 0.0
C2007 C 0.41575 0.72727 0.51057 0.0
C2008 C 0.38932 0.70223 0.52289 0.0
C2009 C 0.37435 0.71231 0.51156 0.0
C2010 C 0.38032 0.7298 0.49941 0.0
C2011 C 0.40077 0.73726 0.49898 0.0
H2012 H 0.96201 0.94424 0.27136 0.0
H2013 H 0.0047 0.9275 0.31873 0.0
H2014 H 0.95376 0.90735 0.2649 0.0
H2015 H 0.99768 0.89081 0.31149 0.0
H2016 H 0.97552 0.82432 0.30179 0.0
H2017 H 0.97684 0.86051 0.31232 0.0
H2018 H 0.96764 0.87933 0.24865 0.0
H2019 H 0.96518 0.84368 0.23831 0.0
C2020 C 0.96922 0.93271 0.2808 0.0
C2021 C 0.98374 0.93885 0.29582 0.0
C2022 C 0.96487 0.91145 0.27679 0.0
C2023 C 0.9752 0.89579 0.28746 0.0
C2024 C 0.98913 0.90212 0.30307 0.0
C2025 C 0.99327 0.92328 0.30719 0.0
C2026 C 0.97423 0.83601 0.2898 0.0
C2027 C 0.97164 0.83034 0.26874 0.0
C2028 C 0.97483 0.85702 0.29598 0.0
C2029 C 0.97276 0.8732 0.28136 0.0
C2030 C 0.96927 0.86755 0.26054 0.0
C2031 C 0.96841 0.84662 0.25443 0.0
H2032 H 0.52907 0.06746 0.73825 0.0
H2033 H 0.53835 0.07736 0.8038 0.0
H2034 H 0.53486 0.10488 0.73186 0.0
H2035 H 0.54413 0.11481 0.79764 0.0
H2036 H 0.56981 0.17973 0.77347 0.0
H2037 H 0.56642 0.14231 0.78147 0.0
H2038 H 0.5157 0.13603 0.73889 0.0
H2039 H 0.51926 0.17337 0.73102 0.0
C2040 C 0.5327 0.07765 0.75124 0.0
C2041 C 0.53318 0.06957 0.77152 0.0
C2042 C 0.5358 0.0991 0.74766 0.0
C2043 C 0.53957 0.11298 0.76428 0.0
C2044 C 0.54127 0.10464 0.78446 0.0
C2045 C 0.53806 0.08316 0.78802 0.0
C2046 C 0.55771 0.17033 0.7662 0.0
C2047 C 0.54477 0.17932 0.75167 0.0
C2048 C 0.55581 0.14891 0.77068 0.0
C2049 C 0.54099 0.13603 0.76057 0.0
C2050 C 0.52757 0.14534 0.74662 0.0
C2051 C 0.52942 0.16674 0.74226 0.0
H2052 H 0.51089 0.31136 0.69107 0.0
H2053 H 0.5561 0.33714 0.73359 0.0
H2054 H 0.49636 0.34571 0.68795 0.0
H2055 H 0.54252 0.37132 0.72966 0.0
H2056 H 0.51147 0.43117 0.72737 0.0
H2057 H 0.51687 0.39465 0.73575 0.0
H2058 H 0.50468 0.3779 0.67176 0.0
H2059 H 0.49815 0.41392 0.66384 0.0
C2060 C 0.51765 0.32429 0.69983 0.0
C2061 C 0.53496 0.32154 0.71218 0.0
C2062 C 0.50946 0.34406 0.69792 0.0
C2063 C 0.51835 0.36153 0.70837 0.0
C2064 C 0.53503 0.3584 0.72149 0.0
C2065 C 0.5431 0.33875 0.72345 0.0
C2066 C 0.50948 0.41959 0.71525 0.0
C2067 C 0.50482 0.42561 0.69484 0.0
C2068 C 0.51281 0.39863 0.71996 0.0
C2069 C 0.51161 0.38319 0.70436 0.0
C2070 C 0.5057 0.38913 0.68427 0.0
C2071 C 0.50225 0.40997 0.67963 0.0
H2072 H 0.87033 0.2927 0.97527 0.0
H2073 H 0.86428 0.23016 0.95074 0.0
H2074 H 0.90696 0.29282 0.96945 0.0
H2075 H 0.90095 0.23049 0.94493 0.0
H2076 H 0.96787 0.23001 0.96498 0.0
H2077 H 0.93165 0.23039 0.96636 0.0
H2078 H 0.93366 0.29243 0.94062 0.0
H2079 H 0.97092 0.29294 0.94037 0.0
C2080 C 0.87672 0.27905 0.96845 0.0
C2081 C 0.86419 0.26135 0.9636 0.0
C2082 C 0.89779 0.27924 0.96496 0.0
C2083 C 0.90699 0.26184 0.95649 0.0
C2084 C 0.89447 0.24416 0.95161 0.0
C2085 C 0.8734 0.24392 0.95509 0.0
C2086 C 0.96118 0.244 0.9596 0.0
C2087 C 0.97312 0.26163 0.95287 0.0
C2088 C 0.93996 0.24404 0.96027 0.0
C2089 C 0.92964 0.26161 0.95405 0.0
C2090 C 0.94122 0.27892 0.94627 0.0
C2091 C 0.96266 0.279 0.94575 0.0
H2092 H 0.96152 0.67 0.26401 0.0
H2093 H 0.99911 0.69181 0.21268 0.0
H2094 H 0.97262 0.63484 0.25905 0.0
H2095 H 0.01098 0.65644 0.20809 0.0
H2096 H 1.00001 0.58745 0.18739 0.0
H2097 H 0.99674 0.62416 0.19503 0.0
H2098 H 0.99878 0.61049 0.26081 0.0
H2099 H 1.00119 0.57338 0.25305 0.0
C2100 C 0.9724 0.6673 0.25177 0.0
C2101 C 0.97911 0.68367 0.23846 0.0
C2102 C 0.979 0.64711 0.24909 0.0
C2103 C 0.99262 0.6426 0.23305 0.0
C2104 C 1.00022 0.65922 0.2204 0.0
C2105 C 0.99359 0.67955 0.22313 0.0
C2106 C 0.99979 0.59224 0.20352 0.0
C2107 C 1.00042 0.57734 0.21961 0.0
C2108 C 0.9982 0.61343 0.20791 0.0
C2109 C 0.9973 0.62043 0.22856 0.0
C2110 C 0.99907 0.60567 0.2447 0.0
C2111 C 1.00065 0.58438 0.24028 0.0
H2112 H 0.56642 0.73158 0.47149 0.0
H2113 H 0.56905 0.79521 0.4928 0.0
H2114 H 0.60361 0.73129 0.47252 0.0
H2115 H 0.60631 0.79475 0.49462 0.0
H2116 H 0.67174 0.74695 0.46004 0.0
H2117 H 0.63532 0.7498 0.45588 0.0
H2118 H 0.63121 0.77382 0.51818 0.0
H2119 H 0.66786 0.77001 0.52296 0.0
C2120 C 0.57498 0.74562 0.47602 0.0
C2121 C 0.56483 0.76327 0.48244 0.0
C2122 C 0.59627 0.74544 0.47676 0.0
C2123 C 0.60787 0.76286 0.48412 0.0
C2124 C 0.59776 0.78094 0.48936 0.0
C2125 C 0.57648 0.78122 0.48823 0.0
C2126 C 0.66319 0.75243 0.47315 0.0
C2127 C 0.67294 0.75769 0.49212 0.0
C2128 C 0.64224 0.75426 0.4706 0.0
C2129 C 0.63035 0.7619 0.4867 0.0
C2130 C 0.64002 0.76795 0.50542 0.0
C2131 C 0.66106 0.76578 0.50815 0.0
H2132 H 0.71599 0.55486 0.43855 0.0
H2133 H 0.69615 0.49466 0.41389 0.0
H2134 H 0.71698 0.56886 0.40355 0.0
H2135 H 0.69833 0.5083 0.37943 0.0
H2136 H 0.6932 0.5371 0.3172 0.0
H2137 H 0.68536 0.5286 0.35344 0.0
H2138 H 0.73625 0.56888 0.37306 0.0
H2139 H 0.74298 0.5783 0.33702 0.0
C2140 C 0.7125 0.54425 0.42593 0.0
C2141 C 0.70739 0.52296 0.42969 0.0
C2142 C 0.71291 0.55246 0.40563 0.0
C2143 C 0.70811 0.53973 0.38834 0.0
C2144 C 0.70211 0.51879 0.39214 0.0
C2145 C 0.70145 0.51069 0.41234 0.0
C2146 C 0.70209 0.54481 0.32932 0.0
C2147 C 0.71849 0.55863 0.32426 0.0
C2148 C 0.69793 0.53959 0.35017 0.0
C2149 C 0.71035 0.54774 0.36643 0.0
C2150 C 0.72614 0.56237 0.36124 0.0
C2151 C 0.73009 0.56775 0.34048 0.0
H2152 H 0.69269 0.44791 0.57824 0.0
H2153 H 0.73508 0.50064 0.57069 0.0
H2154 H 0.703 0.44446 0.61444 0.0
H2155 H 0.74498 0.49781 0.6072 0.0
H2156 H 0.76854 0.47693 0.67094 0.0
H2157 H 0.7612 0.47926 0.63394 0.0
H2158 H 0.6981 0.4617 0.64612 0.0
H2159 H 0.70568 0.458 0.68283 0.0
C2160 C 0.70443 0.45861 0.58432 0.0
C2161 C 0.71312 0.47449 0.57165 0.0
C2162 C 0.71016 0.45684 0.60517 0.0
C2163 C 0.72454 0.47113 0.61403 0.0
C2164 C 0.73395 0.48644 0.60101 0.0
C2165 C 0.72835 0.48804 0.58002 0.0
C2166 C 0.7531 0.47342 0.66575 0.0
C2167 C 0.73777 0.46706 0.68004 0.0
C2168 C 0.74884 0.47498 0.64446 0.0
C2169 C 0.72909 0.47037 0.63683 0.0
C2170 C 0.71361 0.46486 0.65124 0.0
C2171 C 0.7179 0.46314 0.67247 0.0
H2172 H 0.76158 0.49087 0.9394 0.0
H2173 H 0.81305 0.45189 0.93576 0.0
H2174 H 0.75466 0.48505 0.90233 0.0
H2175 H 0.80633 0.44599 0.8987 0.0
H2176 H 0.77606 0.42662 0.8359 0.0
H2177 H 0.78198 0.42994 0.87344 0.0
H2178 H 0.77155 0.49579 0.86937 0.0
H2179 H 0.76577 0.49232 0.83187 0.0
C2180 C 0.77108 0.48064 0.9307 0.0
C2181 C 0.78761 0.47152 0.94037 0.0
C2182 C 0.76733 0.47752 0.90945 0.0
C2183 C 0.78004 0.46517 0.89746 0.0
C2184 C 0.79614 0.45543 0.90745 0.0
C2185 C 0.79996 0.45872 0.92865 0.0
C2186 C 0.77527 0.44181 0.84309 0.0
C2187 C 0.7703 0.45919 0.83113 0.0
C2188 C 0.77861 0.44373 0.86455 0.0
C2189 C 0.77697 0.46309 0.87451 0.0
C2190 C 0.77251 0.48057 0.86232 0.0
C2191 C 0.76934 0.47866 0.84085 0.0
H2192 H 0.75589 0.5193 0.18833 0.0
H2193 H 0.75488 0.58308 0.16681 0.0
H2194 H 0.7582 0.50757 0.15248 0.0
H2195 H 0.75888 0.5716 0.1313 0.0
H2196 H 0.76161 0.54724 0.06642 0.0
H2197 H 0.74764 0.55497 0.10078 0.0
H2198 H 0.78384 0.50727 0.12793 0.0
H2199 H 0.79656 0.49895 0.09391 0.0
C2200 C 0.75601 0.53083 0.176 0.0
C2201 C 0.75573 0.5522 0.18063 0.0
C2202 C 0.75761 0.52413 0.15537 0.0
C2203 C 0.75922 0.53862 0.13883 0.0
C2204 C 0.75764 0.55988 0.14343 0.0
C2205 C 0.75575 0.56653 0.16397 0.0
C2206 C 0.76615 0.53819 0.07974 0.0
C2207 C 0.78055 0.52286 0.07752 0.0
C2208 C 0.75833 0.54271 0.09948 0.0
C2209 C 0.76476 0.53196 0.11736 0.0
C2210 C 0.77826 0.51582 0.11473 0.0
C2211 C 0.78587 0.51125 0.09514 0.0
H2212 H 0.47548 0.6697 0.74384 0.0
H2213 H 0.42329 0.67254 0.70357 0.0
H2214 H 0.47886 0.63303 0.73474 0.0
H2215 H 0.42703 0.6359 0.69382 0.0
H2216 H 0.45952 0.57587 0.66784 0.0
H2217 H 0.45235 0.61228 0.67559 0.0
H2218 H 0.45762 0.59928 0.74121 0.0
H2219 H 0.46429 0.56289 0.73338 0.0
C2220 C 0.4647 0.66242 0.73308 0.0
C2221 C 0.44882 0.67378 0.72483 0.0
C2222 C 0.46662 0.64143 0.72783 0.0
C2223 C 0.45298 0.6314 0.71384 0.0
C2224 C 0.43772 0.64312 0.70472 0.0
C2225 C 0.43561 0.66408 0.71024 0.0
C2226 C 0.45853 0.58072 0.68391 0.0
C2227 C 0.46253 0.56665 0.70003 0.0
C2228 C 0.45456 0.60157 0.68836 0.0
C2229 C 0.45478 0.60879 0.70901 0.0
C2230 C 0.45773 0.59433 0.72513 0.0
C2231 C 0.4614 0.57348 0.72068 0.0
loop_
_geom_bond_atom_site_label_1
_geom_bond_atom_site_label_2
_geom_bond_distance
_geom_bond_site_symmetry_2
_ccdc_geom_bond_type
C0 C1 1.443 . S
C0 N4 1.376 . S
C0 C38 1.389 . S
C1 C0 1.443 . S
C1 C2 1.340 . S
C1 H41 0.951 . S
C2 C1 1.340 . S
C2 C3 1.439 . S
C2 H42 0.950 . S
C3 C2 1.439 . S
C3 N4 1.374 . S
C3 C37 1.395 . S
N4 C0 1.376 . S
N4 C3 1.374 . S
N4 Co5 2.008 . S
Co5 N4 2.008 . S
Co5 N6 1.995 . S
Co5 N11 2.008 . S
Co5 N16 1.995 . S
Co5 N21 2.282 . S
Co5 N27 2.282 . S
N6 Co5 1.995 . S
N6 C7 1.376 . S
N6 C10 1.383 . S
C7 N6 1.376 . S
C7 C8 1.446 . S
C7 C37 1.391 . S
C8 C7 1.446 . S
C8 C9 1.339 . S
C8 H43 0.949 . S
C9 C8 1.339 . S
C9 C10 1.439 . S
C9 H44 0.950 . S
C10 N6 1.383 . S
C10 C9 1.439 . S
C10 C39 1.392 . S
N11 Co5 2.008 . S
N11 C12 1.376 . S
N11 C15 1.374 . S
C12 N11 1.376 . S
C12 C13 1.443 . S
C12 C39 1.389 . S
C13 C12 1.443 . S
C13 C14 1.340 . S
C13 H45 0.951 . S
C14 C13 1.340 . S
C14 C15 1.439 . S
C14 H46 0.950 . S
C15 N11 1.374 . S
C15 C14 1.439 . S
C15 C40 1.395 . S
N16 Co5 1.995 . S
N16 C17 1.376 . S
N16 C20 1.383 . S
C17 N16 1.376 . S
C17 C18 1.446 . S
C17 C40 1.391 . S
C18 C17 1.446 . S
C18 C19 1.339 . S
C18 H47 0.949 . S
C19 C18 1.339 . S
C19 C20 1.439 . S
C19 H48 0.950 . S
C20 N16 1.383 . S
C20 C19 1.439 . S
C20 C38 1.392 . S
N21 Co5 2.282 . S
N21 C24 1.332 . S
N21 C26 1.332 . S
C22 C23 1.386 . S
C22 C25 1.388 . S
C23 C22 1.386 . S
C23 C24 1.382 . S
C23 H49 0.950 . S
C24 N21 1.332 . S
C24 C23 1.382 . S
C24 H35 0.952 . S
C25 C22 1.388 . S
C25 C26 1.382 . S
C25 H50 0.950 . S
C26 N21 1.332 . S
C26 C25 1.382 . S
C26 H36 0.948 . S
N27 Co5 2.282 . S
N27 C31 1.332 . S
N27 C32 1.332 . S
C28 C29 1.388 . S
C28 C32 1.382 . S
C28 H51 0.950 . S
C29 C28 1.388 . S
C29 C30 1.386 . S
C30 C29 1.386 . S
C30 C31 1.382 . S
C30 H52 0.950 . S
C31 N27 1.332 . S
C31 C30 1.382 . S
C31 H33 0.952 . S
C32 N27 1.332 . S
C32 C28 1.382 . S
C32 H34 0.948 . S
H33 C31 0.952 . S
H34 C32 0.948 . S
H35 C24 0.952 . S
H36 C26 0.948 . S
C37 C3 1.395 . S
C37 C7 1.391 . S
C38 C0 1.389 . S
C38 C20 1.392 . S
C39 C10 1.392 . S
C39 C12 1.389 . S
C40 C15 1.395 . S
C40 C17 1.391 . S
H41 C1 0.951 . S
H42 C2 0.950 . S
H43 C8 0.949 . S
H44 C9 0.950 . S
H45 C13 0.951 . S
H46 C14 0.950 . S
H47 C18 0.949 . S
H48 C19 0.950 . S
H49 C23 0.950 . S
H50 C25 0.950 . S
H51 C28 0.950 . S
H52 C30 0.950 . S
C53 C54 1.443 . S
C53 N57 1.376 . S
C53 C91 1.389 . S
C54 C53 1.443 . S
C54 C55 1.340 . S
C54 H94 0.951 . S
C55 C54 1.340 . S
C55 C56 1.439 . S
C55 H95 0.950 . S
C56 C55 1.439 . S
C56 N57 1.374 . S
C56 C90 1.395 1_655 S
N57 C53 1.376 . S
N57 C56 1.374 . S
N57 Co58 2.008 1_655 S
Co58 N57 2.008 1_455 S
Co58 N59 1.995 . S
Co58 N64 2.008 . S
Co58 N69 1.995 1_455 S
Co58 N74 2.282 . S
Co58 N80 2.282 1_455 S
N59 Co58 1.995 . S
N59 C60 1.376 . S
N59 C63 1.383 . S
C60 N59 1.376 . S
C60 C61 1.446 . S
C60 C90 1.391 . S
C61 C60 1.446 . S
C61 C62 1.339 . S
C61 H96 0.949 . S
C62 C61 1.339 . S
C62 C63 1.439 . S
C62 H97 0.950 . S
C63 N59 1.383 . S
C63 C62 1.439 . S
C63 C92 1.392 . S
N64 Co58 2.008 . S
N64 C65 1.376 . S
N64 C68 1.374 . S
C65 N64 1.376 . S
C65 C66 1.443 . S
C65 C92 1.389 . S
C66 C65 1.443 . S
C66 C67 1.340 . S
C66 H98 0.951 . S
C67 C66 1.340 . S
C67 C68 1.439 . S
C67 H99 0.950 . S
C68 N64 1.374 . S
C68 C67 1.439 . S
C68 C93 1.395 1_455 S
N69 Co58 1.995 1_655 S
N69 C70 1.376 . S
N69 C73 1.383 . S
C70 N69 1.376 . S
C70 C71 1.446 . S
C70 C93 1.391 . S
C71 C70 1.446 . S
C71 C72 1.339 . S
C71 H100 0.949 . S
C72 C71 1.339 . S
C72 C73 1.439 . S
C72 H101 0.950 . S
C73 N69 1.383 . S
C73 C72 1.439 . S
C73 C91 1.392 . S
N74 Co58 2.282 . S
N74 C77 1.332 . S
N74 C79 1.332 . S
C75 C76 1.386 . S
C75 C78 1.388 . S
C76 C75 1.386 . S
C76 C77 1.382 . S
C76 H102 0.950 . S
C77 N74 1.332 . S
C77 C76 1.382 . S
C77 H88 0.952 1_455 S
C78 C75 1.388 . S
C78 C79 1.382 . S
C78 H103 0.950 . S
C79 N74 1.332 . S
C79 C78 1.382 . S
C79 H89 0.948 . S
N80 Co58 2.282 1_655 S
N80 C84 1.332 . S
N80 C85 1.332 . S
C81 C82 1.388 . S
C81 C85 1.382 . S
C81 H104 0.950 . S
C82 C81 1.388 . S
C82 C83 1.386 . S
C83 C82 1.386 . S
C83 C84 1.382 . S
C83 H105 0.950 . S
C84 N80 1.332 . S
C84 C83 1.382 . S
C84 H86 0.952 1_655 S
C85 N80 1.332 . S
C85 C81 1.382 . S
C85 H87 0.948 . S
H86 C84 0.952 1_455 S
H87 C85 0.948 . S
H88 C77 0.952 1_655 S
H89 C79 0.948 . S
C90 C56 1.395 1_455 S
C90 C60 1.391 . S
C91 C53 1.389 . S
C91 C73 1.392 . S
C92 C63 1.392 . S
C92 C65 1.389 . S
C93 C68 1.395 1_655 S
C93 C70 1.391 . S
H94 C54 0.951 . S
H95 C55 0.950 . S
H96 C61 0.949 . S
H97 C62 0.950 . S
H98 C66 0.951 . S
H99 C67 0.950 . S
H100 C71 0.949 . S
H101 C72 0.950 . S
H102 C76 0.950 . S
H103 C78 0.950 . S
H104 C81 0.950 . S
H105 C83 0.950 . S
C106 C107 1.443 . S
C106 N110 1.376 . S
C106 C144 1.389 . S
C107 C106 1.443 . S
C107 C108 1.340 . S
C107 H147 0.951 . S
C108 C107 1.340 . S
C108 C109 1.439 . S
C108 H148 0.950 . S
C109 C108 1.439 . S
C109 N110 1.374 . S
C109 C143 1.395 . S
N110 C106 1.376 . S
N110 C109 1.374 . S
N110 Co111 2.008 . S
Co111 N110 2.008 . S
Co111 N112 1.995 . S
Co111 N117 2.008 . S
Co111 N122 1.995 . S
Co111 N127 2.282 . S
Co111 N133 2.282 . S
N112 Co111 1.995 . S
N112 C113 1.376 . S
N112 C116 1.383 . S
C113 N112 1.376 . S
C113 C114 1.446 . S
C113 C143 1.391 . S
C114 C113 1.446 . S
C114 C115 1.339 . S
C114 H149 0.949 . S
C115 C114 1.339 . S
C115 C116 1.439 . S
C115 H150 0.950 . S
C116 N112 1.383 . S
C116 C115 1.439 . S
C116 C145 1.392 . S
N117 Co111 2.008 . S
N117 C118 1.376 . S
N117 C121 1.374 . S
C118 N117 1.376 . S
C118 C119 1.443 . S
C118 C145 1.389 . S
C119 C118 1.443 . S
C119 C120 1.340 . S
C119 H151 0.951 . S
C120 C119 1.340 . S
C120 C121 1.439 . S
C120 H152 0.950 . S
C121 N117 1.374 . S
C121 C120 1.439 . S
C121 C146 1.395 . S
N122 Co111 1.995 . S
N122 C123 1.376 . S
N122 C126 1.383 . S
C123 N122 1.376 . S
C123 C124 1.446 . S
C123 C146 1.391 . S
C124 C123 1.446 . S
C124 C125 1.339 . S
C124 H153 0.949 . S
C125 C124 1.339 . S
C125 C126 1.439 . S
C125 H154 0.950 . S
C126 N122 1.383 . S
C126 C125 1.439 . S
C126 C144 1.392 . S
N127 Co111 2.282 . S
N127 C130 1.332 . S
N127 C132 1.332 . S
C128 C129 1.386 . S
C128 C131 1.388 . S
C129 C128 1.386 . S
C129 C130 1.382 . S
C129 H155 0.950 . S
C130 N127 1.332 . S
C130 C129 1.382 . S
C130 H141 0.952 . S
C131 C128 1.388 . S
C131 C132 1.382 . S
C131 H156 0.950 . S
C132 N127 1.332 . S
C132 C131 1.382 . S
C132 H142 0.948 . S
N133 Co111 2.282 . S
N133 C137 1.332 . S
N133 C138 1.332 . S
C134 C135 1.388 . S
C134 C138 1.382 . S
C134 H157 0.950 . S
C135 C134 1.388 . S
C135 C136 1.386 . S
C136 C135 1.386 . S
C136 C137 1.382 . S
C136 H158 0.950 . S
C137 N133 1.332 . S
C137 C136 1.382 . S
C137 H139 0.952 . S
C138 N133 1.332 . S
C138 C134 1.382 . S
C138 H140 0.948 . S
H139 C137 0.952 . S
H140 C138 0.948 . S
H141 C130 0.952 . S
H142 C132 0.948 . S
C143 C109 1.395 . S
C143 C113 1.391 . S
C144 C106 1.389 . S
C144 C126 1.392 . S
C145 C116 1.392 . S
C145 C118 1.389 . S
C146 C121 1.395 . S
C146 C123 1.391 . S
H147 C107 0.951 . S
H148 C108 0.950 . S
H149 C114 0.949 . S
H150 C115 0.950 . S
H151 C119 0.951 . S
H152 C120 0.950 . S
H153 C124 0.949 . S
H154 C125 0.950 . S
H155 C129 0.950 . S
H156 C131 0.950 . S
H157 C134 0.950 . S
H158 C136 0.950 . S
C159 C160 1.443 . S
C159 N163 1.376 . S
C159 C197 1.389 . S
C160 C159 1.443 . S
C160 C161 1.340 . S
C160 H200 0.951 . S
C161 C160 1.340 . S
C161 C162 1.439 . S
C161 H201 0.950 . S
C162 C161 1.439 . S
C162 N163 1.374 . S
C162 C196 1.395 . S
N163 C159 1.376 . S
N163 C162 1.374 . S
N163 Co164 2.008 . S
Co164 N163 2.008 . S
Co164 N165 1.995 . S
Co164 N170 2.008 1_556 S
Co164 N175 1.995 1_556 S
Co164 N180 2.282 1_556 S
Co164 N186 2.282 . S
N165 Co164 1.995 . S
N165 C166 1.376 . S
N165 C169 1.383 . S
C166 N165 1.376 . S
C166 C167 1.446 . S
C166 C196 1.391 . S
C167 C166 1.446 . S
C167 C168 1.339 . S
C167 H202 0.949 . S
C168 C167 1.339 . S
C168 C169 1.439 . S
C168 H203 0.950 . S
C169 N165 1.383 . S
C169 C168 1.439 . S
C169 C198 1.392 1_556 S
N170 Co164 2.008 1_554 S
N170 C171 1.376 . S
N170 C174 1.374 . S
C171 N170 1.376 . S
C171 C172 1.443 . S
C171 C198 1.389 . S
C172 C171 1.443 . S
C172 C173 1.340 . S
C172 H204 0.951 . S
C173 C172 1.340 . S
C173 C174 1.439 . S
C173 H205 0.950 . S
C174 N170 1.374 . S
C174 C173 1.439 . S
C174 C199 1.395 . S
N175 Co164 1.995 1_554 S
N175 C176 1.376 . S
N175 C179 1.383 . S
C176 N175 1.376 . S
C176 C177 1.446 . S
C176 C199 1.391 . S
C177 C176 1.446 . S
C177 C178 1.339 . S
C177 H206 0.949 . S
C178 C177 1.339 . S
C178 C179 1.439 . S
C178 H207 0.950 . S
C179 N175 1.383 . S
C179 C178 1.439 . S
C179 C197 1.392 1_554 S
N180 Co164 2.282 1_554 S
N180 C183 1.332 . S
N180 C185 1.332 . S
C181 C182 1.386 . S
C181 C184 1.388 . S
C182 C181 1.386 . S
C182 C183 1.382 . S
C182 H208 0.950 . S
C183 N180 1.332 . S
C183 C182 1.382 . S
C183 H194 0.952 . S
C184 C181 1.388 . S
C184 C185 1.382 . S
C184 H209 0.950 . S
C185 N180 1.332 . S
C185 C184 1.382 . S
C185 H195 0.948 1_554 S
N186 Co164 2.282 . S
N186 C190 1.332 . S
N186 C191 1.332 . S
C187 C188 1.388 . S
C187 C191 1.382 . S
C187 H210 0.950 . S
C188 C187 1.388 . S
C188 C189 1.386 . S
C189 C188 1.386 . S
C189 C190 1.382 . S
C189 H211 0.950 . S
C190 N186 1.332 . S
C190 C189 1.382 . S
C190 H192 0.952 . S
C191 N186 1.332 . S
C191 C187 1.382 . S
C191 H193 0.948 1_556 S
H192 C190 0.952 . S
H193 C191 0.948 1_554 S
H194 C183 0.952 . S
H195 C185 0.948 1_556 S
C196 C162 1.395 . S
C196 C166 1.391 . S
C197 C159 1.389 . S
C197 C179 1.392 1_556 S
C198 C169 1.392 1_554 S
C198 C171 1.389 . S
C199 C174 1.395 . S
C199 C176 1.391 . S
H200 C160 0.951 . S
H201 C161 0.950 . S
H202 C167 0.949 . S
H203 C168 0.950 . S
H204 C172 0.951 . S
H205 C173 0.950 . S
H206 C177 0.949 . S
H207 C178 0.950 . S
H208 C182 0.950 . S
H209 C184 0.950 . S
H210 C187 0.950 . S
H211 C189 0.950 . S
C212 C213 1.443 . S
C212 N216 1.376 1_565 S
C212 C250 1.389 . S
C213 C212 1.443 . S
C213 C214 1.340 1_565 S
C213 H253 0.951 . S
C214 C213 1.340 1_545 S
C214 C215 1.439 . S
C214 H254 0.950 . S
C215 C214 1.439 . S
C215 N216 1.374 . S
C215 C249 1.395 . S
N216 C212 1.376 1_545 S
N216 C215 1.374 . S
N216 Co217 2.008 1_645 S
Co217 N216 2.008 1_465 S
Co217 N218 1.995 1_465 S
Co217 N223 2.007 . S
Co217 N228 1.995 . S
Co217 N233 2.282 1_565 S
Co217 N239 2.282 1_455 S
N218 Co217 1.995 1_645 S
N218 C219 1.376 . S
N218 C222 1.383 1_655 S
C219 N218 1.376 . S
C219 C220 1.446 . S
C219 C249 1.391 . S
C220 C219 1.446 . S
C220 C221 1.339 1_655 S
C220 H255 0.949 . S
C221 C220 1.339 1_455 S
C221 C222 1.439 . S
C221 H256 0.950 . S
C222 N218 1.383 1_455 S
C222 C221 1.439 . S
C222 C251 1.392 . S
N223 Co217 2.007 . S
N223 C224 1.369 1_565 S
N223 C227 1.380 . S
C224 N223 1.369 1_545 S
C224 C225 1.443 . S
C224 C251 1.389 . S
C225 C224 1.443 . S
C225 C226 1.340 1_545 S
C225 H257 0.951 . S
C226 C225 1.340 1_565 S
C226 C227 1.439 . S
C226 H258 0.950 . S
C227 N223 1.380 . S
C227 C226 1.439 . S
C227 C252 1.395 . S
N228 Co217 1.995 . S
N228 C229 1.376 . S
N228 C232 1.383 1_455 S
C229 N228 1.376 . S
C229 C230 1.446 . S
C229 C252 1.391 . S
C230 C229 1.446 . S
C230 C231 1.339 1_455 S
C230 H259 0.949 . S
C231 C230 1.339 1_655 S
C231 C232 1.439 . S
C231 H260 0.950 . S
C232 N228 1.383 1_655 S
C232 C231 1.439 . S
C232 C250 1.392 . S
N233 Co217 2.282 1_545 S
N233 C236 1.332 . S
N233 C238 1.332 . S
C234 C235 1.386 . S
C234 C237 1.388 . S
C235 C234 1.386 . S
C235 C236 1.382 . S
C235 H261 0.950 . S
C236 N233 1.332 . S
C236 C235 1.382 . S
C236 H247 0.952 . S
C237 C234 1.388 . S
C237 C238 1.382 . S
C237 H262 0.950 . S
C238 N233 1.332 . S
C238 C237 1.382 . S
C238 H248 0.948 1_455 S
N239 Co217 2.282 1_655 S
N239 C243 1.332 . S
N239 C244 1.332 . S
C240 C241 1.388 . S
C240 C244 1.382 . S
C240 H263 0.950 . S
C241 C240 1.388 . S
C241 C242 1.386 . S
C242 C241 1.386 . S
C242 C243 1.382 . S
C242 H264 0.950 . S
C243 N239 1.332 . S
C243 C242 1.382 . S
C243 H245 0.952 . S
C244 N239 1.332 . S
C244 C240 1.382 . S
C244 H246 0.948 1_655 S
H245 C243 0.952 . S
H246 C244 0.948 1_455 S
H247 C236 0.952 . S
H248 C238 0.948 1_655 S
C249 C215 1.395 . S
C249 C219 1.391 . S
C250 C212 1.389 . S
C250 C232 1.392 . S
C251 C222 1.392 . S
C251 C224 1.389 . S
C252 C227 1.395 . S
C252 C229 1.391 . S
H253 C213 0.951 . S
H254 C214 0.950 . S
H255 C220 0.949 . S
H256 C221 0.950 . S
H257 C225 0.951 . S
H258 C226 0.950 . S
H259 C230 0.949 . S
H260 C231 0.950 . S
H261 C235 0.950 . S
H262 C237 0.950 . S
H263 C240 0.950 . S
H264 C242 0.950 . S
C265 C266 1.443 . S
C265 N269 1.376 . S
C265 C303 1.389 . S
C266 C265 1.443 . S
C266 C267 1.340 . S
C266 H306 0.951 . S
C267 C266 1.340 . S
C267 C268 1.439 . S
C267 H307 0.950 . S
C268 C267 1.439 . S
C268 N269 1.374 . S
C268 C302 1.395 . S
N269 C265 1.376 . S
N269 C268 1.374 . S
N269 Co270 2.008 . S
Co270 N269 2.008 . S
Co270 N271 1.995 . S
Co270 N276 2.008 . S
Co270 N281 1.995 . S
Co270 N286 2.282 . S
Co270 N292 2.282 . S
N271 Co270 1.995 . S
N271 C272 1.376 . S
N271 C275 1.383 . S
C272 N271 1.376 . S
C272 C273 1.446 . S
C272 C302 1.391 . S
C273 C272 1.446 . S
C273 C274 1.339 . S
C273 H308 0.949 . S
C274 C273 1.339 . S
C274 C275 1.439 . S
C274 H309 0.950 . S
C275 N271 1.383 . S
C275 C274 1.439 . S
C275 C304 1.392 . S
N276 Co270 2.008 . S
N276 C277 1.376 . S
N276 C280 1.374 . S
C277 N276 1.376 . S
C277 C278 1.443 . S
C277 C304 1.389 . S
C278 C277 1.443 . S
C278 C279 1.340 . S
C278 H310 0.951 . S
C279 C278 1.340 . S
C279 C280 1.439 . S
C279 H311 0.950 . S
C280 N276 1.374 . S
C280 C279 1.439 . S
C280 C305 1.395 . S
N281 Co270 1.995 . S
N281 C282 1.376 . S
N281 C285 1.383 . S
C282 N281 1.376 . S
C282 C283 1.446 . S
C282 C305 1.391 . S
C283 C282 1.446 . S
C283 C284 1.339 . S
C283 H312 0.949 . S
C284 C283 1.339 . S
C284 C285 1.439 . S
C284 H313 0.950 . S
C285 N281 1.383 . S
C285 C284 1.439 . S
C285 C303 1.392 . S
N286 Co270 2.282 . S
N286 C289 1.332 . S
N286 C291 1.332 . S
C287 C288 1.386 . S
C287 C290 1.388 . S
C288 C287 1.386 . S
C288 C289 1.382 . S
C288 H314 0.950 . S
C289 N286 1.332 . S
C289 C288 1.382 . S
C289 H300 0.952 . S
C290 C287 1.388 . S
C290 C291 1.382 . S
C290 H315 0.950 . S
C291 N286 1.332 . S
C291 C290 1.382 . S
C291 H301 0.948 . S
N292 Co270 2.282 . S
N292 C296 1.332 . S
N292 C297 1.332 . S
C293 C294 1.388 . S
C293 C297 1.382 . S
C293 H316 0.950 . S
C294 C293 1.388 . S
C294 C295 1.386 . S
C295 C294 1.386 . S
C295 C296 1.382 . S
C295 H317 0.950 . S
C296 N292 1.332 . S
C296 C295 1.382 . S
C296 H298 0.952 . S
C297 N292 1.332 . S
C297 C293 1.382 . S
C297 H299 0.948 . S
H298 C296 0.952 . S
H299 C297 0.948 . S
H300 C289 0.952 . S
H301 C291 0.948 . S
C302 C268 1.395 . S
C302 C272 1.391 . S
C303 C265 1.389 . S
C303 C285 1.392 . S
C304 C275 1.392 . S
C304 C277 1.389 . S
C305 C280 1.395 . S
C305 C282 1.391 . S
H306 C266 0.951 . S
H307 C267 0.950 . S
H308 C273 0.949 . S
H309 C274 0.950 . S
H310 C278 0.951 . S
H311 C279 0.950 . S
H312 C283 0.949 . S
H313 C284 0.950 . S
H314 C288 0.950 . S
H315 C290 0.950 . S
H316 C293 0.950 . S
H317 C295 0.950 . S
C318 C319 1.443 . S
C318 N322 1.401 . S
C318 C356 1.389 . S
C319 C318 1.443 . S
C319 C320 1.341 1_545 S
C319 H359 0.951 . S
C320 C319 1.341 1_565 S
C320 C321 1.439 . S
C320 H360 0.950 . S
C321 C320 1.439 . S
C321 N322 1.356 1_565 S
C321 C355 1.395 . S
N322 C318 1.401 . S
N322 C321 1.356 1_545 S
N322 Co323 2.010 . S
Co323 N322 2.010 . S
Co323 N324 1.995 1_545 S
Co323 N329 2.009 1_545 S
Co323 N334 1.995 . S
Co323 N339 2.282 1_545 S
Co323 N345 2.282 . S
N324 Co323 1.995 1_565 S
N324 C325 1.376 . S
N324 C328 1.383 . S
C325 N324 1.376 . S
C325 C326 1.446 . S
C325 C355 1.391 . S
C326 C325 1.446 . S
C326 C327 1.339 . S
C326 H361 0.949 . S
C327 C326 1.339 . S
C327 C328 1.439 . S
C327 H362 0.950 . S
C328 N324 1.383 . S
C328 C327 1.439 . S
C328 C357 1.392 . S
N329 Co323 2.009 1_565 S
N329 C330 1.394 . S
N329 C333 1.360 1_565 S
C330 N329 1.394 . S
C330 C331 1.443 . S
C330 C357 1.389 . S
C331 C330 1.443 . S
C331 C332 1.333 1_565 S
C331 H363 0.951 . S
C332 C331 1.333 1_545 S
C332 C333 1.442 . S
C332 H364 0.953 . S
C333 N329 1.360 1_545 S
C333 C332 1.442 . S
C333 C358 1.395 . S
N334 Co323 1.995 . S
N334 C335 1.376 . S
N334 C338 1.383 . S
C335 N334 1.376 . S
C335 C336 1.446 . S
C335 C358 1.391 . S
C336 C335 1.446 . S
C336 C337 1.339 . S
C336 H365 0.949 . S
C337 C336 1.339 . S
C337 C338 1.439 . S
C337 H366 0.950 . S
C338 N334 1.383 . S
C338 C337 1.439 . S
C338 C356 1.392 . S
N339 Co323 2.282 1_565 S
N339 C342 1.332 . S
N339 C344 1.332 . S
C340 C341 1.386 . S
C340 C343 1.388 . S
C341 C340 1.386 . S
C341 C342 1.382 . S
C341 H367 0.950 . S
C342 N339 1.332 . S
C342 C341 1.382 . S
C342 H353 0.952 . S
C343 C340 1.388 . S
C343 C344 1.382 . S
C343 H368 0.950 . S
C344 N339 1.332 . S
C344 C343 1.382 . S
C344 H354 0.948 . S
N345 Co323 2.282 . S
N345 C349 1.332 . S
N345 C350 1.332 . S
C346 C347 1.388 . S
C346 C350 1.382 . S
C346 H369 0.950 . S
C347 C346 1.388 . S
C347 C348 1.386 . S
C348 C347 1.386 . S
C348 C349 1.382 . S
C348 H370 0.950 . S
C349 N345 1.332 . S
C349 C348 1.382 . S
C349 H351 0.952 . S
C350 N345 1.332 . S
C350 C346 1.382 . S
C350 H352 0.948 . S
H351 C349 0.952 . S
H352 C350 0.948 . S
H353 C342 0.952 . S
H354 C344 0.948 . S
C355 C321 1.395 . S
C355 C325 1.391 . S
C356 C318 1.389 . S
C356 C338 1.392 . S
C357 C328 1.392 . S
C357 C330 1.389 . S
C358 C333 1.395 . S
C358 C335 1.391 . S
H359 C319 0.951 . S
H360 C320 0.950 . S
H361 C326 0.949 . S
H362 C327 0.950 . S
H363 C331 0.951 . S
H364 C332 0.953 . S
H365 C336 0.949 . S
H366 C337 0.950 . S
H367 C341 0.950 . S
H368 C343 0.950 . S
H369 C346 0.950 . S
H370 C348 0.950 . S
C371 C372 1.443 . S
C371 N375 1.376 . S
C371 C409 1.389 . S
C372 C371 1.443 . S
C372 C373 1.340 . S
C372 H412 0.951 . S
C373 C372 1.340 . S
C373 C374 1.439 . S
C373 H413 0.950 . S
C374 C373 1.439 . S
C374 N375 1.374 . S
C374 C408 1.395 . S
N375 C371 1.376 . S
N375 C374 1.374 . S
N375 Co376 2.008 . S
Co376 N375 2.008 . S
Co376 N377 1.995 . S
Co376 N382 2.008 . S
Co376 N387 1.995 . S
Co376 N392 2.282 . S
Co376 N398 2.282 . S
N377 Co376 1.995 . S
N377 C378 1.376 . S
N377 C381 1.383 . S
C378 N377 1.376 . S
C378 C379 1.446 . S
C378 C408 1.391 . S
C379 C378 1.446 . S
C379 C380 1.339 . S
C379 H414 0.949 . S
C380 C379 1.339 . S
C380 C381 1.439 . S
C380 H415 0.950 . S
C381 N377 1.383 . S
C381 C380 1.439 . S
C381 C410 1.392 . S
N382 Co376 2.008 . S
N382 C383 1.376 . S
N382 C386 1.374 . S
C383 N382 1.376 . S
C383 C384 1.443 . S
C383 C410 1.389 . S
C384 C383 1.443 . S
C384 C385 1.340 . S
C384 H416 0.951 . S
C385 C384 1.340 . S
C385 C386 1.439 . S
C385 H417 0.950 . S
C386 N382 1.374 . S
C386 C385 1.439 . S
C386 C411 1.395 . S
N387 Co376 1.995 . S
N387 C388 1.376 . S
N387 C391 1.383 . S
C388 N387 1.376 . S
C388 C389 1.446 . S
C388 C411 1.391 . S
C389 C388 1.446 . S
C389 C390 1.339 . S
C389 H418 0.949 . S
C390 C389 1.339 . S
C390 C391 1.439 . S
C390 H419 0.950 . S
C391 N387 1.383 . S
C391 C390 1.439 . S
C391 C409 1.392 . S
N392 Co376 2.282 . S
N392 C395 1.332 . S
N392 C397 1.332 . S
C393 C394 1.386 . S
C393 C396 1.388 . S
C394 C393 1.386 . S
C394 C395 1.382 . S
C394 H420 0.950 . S
C395 N392 1.332 . S
C395 C394 1.382 . S
C395 H406 0.952 . S
C396 C393 1.388 . S
C396 C397 1.382 . S
C396 H421 0.950 . S
C397 N392 1.332 . S
C397 C396 1.382 . S
C397 H407 0.948 . S
N398 Co376 2.282 . S
N398 C402 1.332 . S
N398 C403 1.332 . S
C399 C400 1.388 . S
C399 C403 1.382 . S
C399 H422 0.950 . S
C400 C399 1.388 . S
C400 C401 1.386 . S
C401 C400 1.386 . S
C401 C402 1.382 . S
C401 H423 0.950 . S
C402 N398 1.332 . S
C402 C401 1.382 . S
C402 H404 0.952 . S
C403 N398 1.332 . S
C403 C399 1.382 . S
C403 H405 0.948 . S
H404 C402 0.952 . S
H405 C403 0.948 . S
H406 C395 0.952 . S
H407 C397 0.948 . S
C408 C374 1.395 . S
C408 C378 1.391 . S
C409 C371 1.389 . S
C409 C391 1.392 . S
C410 C381 1.392 . S
C410 C383 1.389 . S
C411 C386 1.395 . S
C411 C388 1.391 . S
H412 C372 0.951 . S
H413 C373 0.950 . S
H414 C379 0.949 . S
H415 C380 0.950 . S
H416 C384 0.951 . S
H417 C385 0.950 . S
H418 C389 0.949 . S
H419 C390 0.950 . S
H420 C394 0.950 . S
H421 C396 0.950 . S
H422 C399 0.950 . S
H423 C401 0.950 . S
C424 C425 1.443 . S
C424 N428 1.376 . S
C424 C462 1.389 . S
C425 C424 1.443 . S
C425 C426 1.340 . S
C425 H465 0.951 . S
C426 C425 1.340 . S
C426 C427 1.439 . S
C426 H466 0.950 . S
C427 C426 1.439 . S
C427 N428 1.374 . S
C427 C461 1.395 . S
N428 C424 1.376 . S
N428 C427 1.374 . S
N428 Co429 2.008 . S
Co429 N428 2.008 . S
Co429 N430 1.995 . S
Co429 N435 2.008 . S
Co429 N440 1.995 . S
Co429 N445 2.282 . S
Co429 N451 2.282 . S
N430 Co429 1.995 . S
N430 C431 1.376 . S
N430 C434 1.383 . S
C431 N430 1.376 . S
C431 C432 1.446 . S
C431 C461 1.391 . S
C432 C431 1.446 . S
C432 C433 1.339 . S
C432 H467 0.949 . S
C433 C432 1.339 . S
C433 C434 1.439 . S
C433 H468 0.950 . S
C434 N430 1.383 . S
C434 C433 1.439 . S
C434 C463 1.392 . S
N435 Co429 2.008 . S
N435 C436 1.376 . S
N435 C439 1.374 . S
C436 N435 1.376 . S
C436 C437 1.443 . S
C436 C463 1.389 . S
C437 C436 1.443 . S
C437 C438 1.340 . S
C437 H469 0.951 . S
C438 C437 1.340 . S
C438 C439 1.439 . S
C438 H470 0.950 . S
C439 N435 1.374 . S
C439 C438 1.439 . S
C439 C464 1.395 . S
N440 Co429 1.995 . S
N440 C441 1.376 . S
N440 C444 1.383 . S
C441 N440 1.376 . S
C441 C442 1.446 . S
C441 C464 1.391 . S
C442 C441 1.446 . S
C442 C443 1.339 . S
C442 H471 0.949 . S
C443 C442 1.339 . S
C443 C444 1.439 . S
C443 H472 0.950 . S
C444 N440 1.383 . S
C444 C443 1.439 . S
C444 C462 1.392 . S
N445 Co429 2.282 . S
N445 C448 1.332 . S
N445 C450 1.332 . S
C446 C447 1.386 . S
C446 C449 1.388 . S
C447 C446 1.386 . S
C447 C448 1.382 . S
C447 H473 0.950 . S
C448 N445 1.332 . S
C448 C447 1.382 . S
C448 H459 0.952 . S
C449 C446 1.388 . S
C449 C450 1.382 . S
C449 H474 0.950 . S
C450 N445 1.332 . S
C450 C449 1.382 . S
C450 H460 0.948 . S
N451 Co429 2.282 . S
N451 C455 1.332 . S
N451 C456 1.332 . S
C452 C453 1.388 . S
C452 C456 1.382 . S
C452 H475 0.950 . S
C453 C452 1.388 . S
C453 C454 1.386 . S
C454 C453 1.386 . S
C454 C455 1.382 . S
C454 H476 0.950 . S
C455 N451 1.332 . S
C455 C454 1.382 . S
C455 H457 0.952 . S
C456 N451 1.332 . S
C456 C452 1.382 . S
C456 H458 0.948 . S
H457 C455 0.952 . S
H458 C456 0.948 . S
H459 C448 0.952 . S
H460 C450 0.948 . S
C461 C427 1.395 . S
C461 C431 1.391 . S
C462 C424 1.389 . S
C462 C444 1.392 . S
C463 C434 1.392 . S
C463 C436 1.389 . S
C464 C439 1.395 . S
C464 C441 1.391 . S
H465 C425 0.951 . S
H466 C426 0.950 . S
H467 C432 0.949 . S
H468 C433 0.950 . S
H469 C437 0.951 . S
H470 C438 0.950 . S
H471 C442 0.949 . S
H472 C443 0.950 . S
H473 C447 0.950 . S
H474 C449 0.950 . S
H475 C452 0.950 . S
H476 C454 0.950 . S
C477 C478 1.443 . S
C477 N481 1.376 . S
C477 C515 1.389 . S
C478 C477 1.443 . S
C478 C479 1.340 . S
C478 H518 0.951 . S
C479 C478 1.340 . S
C479 C480 1.439 . S
C479 H519 0.950 . S
C480 C479 1.439 . S
C480 N481 1.374 . S
C480 C514 1.395 . S
N481 C477 1.376 . S
N481 C480 1.374 . S
N481 Co482 2.008 . S
Co482 N481 2.008 . S
Co482 N483 1.995 . S
Co482 N488 2.008 1_565 S
Co482 N493 1.995 1_565 S
Co482 N498 2.282 1_565 S
Co482 N504 2.282 . S
N483 Co482 1.995 . S
N483 C484 1.376 . S
N483 C487 1.383 . S
C484 N483 1.376 . S
C484 C485 1.446 . S
C484 C514 1.391 . S
C485 C484 1.446 . S
C485 C486 1.339 . S
C485 H520 0.949 . S
C486 C485 1.339 . S
C486 C487 1.439 . S
C486 H521 0.950 . S
C487 N483 1.383 . S
C487 C486 1.439 . S
C487 C516 1.392 1_565 S
N488 Co482 2.008 1_545 S
N488 C489 1.376 . S
N488 C492 1.374 . S
C489 N488 1.376 . S
C489 C490 1.443 . S
C489 C516 1.389 . S
C490 C489 1.443 . S
C490 C491 1.340 . S
C490 H522 0.951 . S
C491 C490 1.340 . S
C491 C492 1.439 . S
C491 H523 0.950 . S
C492 N488 1.374 . S
C492 C491 1.439 . S
C492 C517 1.395 . S
N493 Co482 1.995 1_545 S
N493 C494 1.376 . S
N493 C497 1.383 1_545 S
C494 N493 1.376 . S
C494 C495 1.446 . S
C494 C517 1.391 . S
C495 C494 1.446 . S
C495 C496 1.339 . S
C495 H524 0.949 . S
C496 C495 1.339 . S
C496 C497 1.439 1_545 S
C496 H525 0.950 . S
C497 N493 1.383 1_565 S
C497 C496 1.439 1_565 S
C497 C515 1.392 . S
N498 Co482 2.282 1_545 S
N498 C501 1.332 . S
N498 C503 1.332 . S
C499 C500 1.386 . S
C499 C502 1.388 . S
C500 C499 1.386 . S
C500 C501 1.382 . S
C500 H526 0.950 . S
C501 N498 1.332 . S
C501 C500 1.382 . S
C501 H512 0.952 . S
C502 C499 1.388 . S
C502 C503 1.382 . S
C502 H527 0.950 . S
C503 N498 1.332 . S
C503 C502 1.382 . S
C503 H513 0.948 1_545 S
N504 Co482 2.282 . S
N504 C508 1.332 . S
N504 C509 1.332 . S
C505 C506 1.388 . S
C505 C509 1.382 . S
C505 H528 0.950 . S
C506 C505 1.388 . S
C506 C507 1.386 . S
C507 C506 1.386 . S
C507 C508 1.382 . S
C507 H529 0.950 . S
C508 N504 1.332 . S
C508 C507 1.382 . S
C508 H510 0.952 . S
C509 N504 1.332 . S
C509 C505 1.382 . S
C509 H511 0.948 . S
H510 C508 0.952 . S
H511 C509 0.948 . S
H512 C501 0.952 . S
H513 C503 0.948 1_565 S
C514 C480 1.395 . S
C514 C484 1.391 . S
C515 C477 1.389 . S
C515 C497 1.392 . S
C516 C487 1.392 1_545 S
C516 C489 1.389 . S
C517 C492 1.395 . S
C517 C494 1.391 . S
H518 C478 0.951 . S
H519 C479 0.950 . S
H520 C485 0.949 . S
H521 C486 0.950 . S
H522 C490 0.951 . S
H523 C491 0.950 . S
H524 C495 0.949 . S
H525 C496 0.950 . S
H526 C500 0.950 . S
H527 C502 0.950 . S
H528 C505 0.950 . S
H529 C507 0.950 . S
C530 C531 1.443 . S
C530 N534 1.376 . S
C530 C568 1.389 . S
C531 C530 1.443 . S
C531 C532 1.340 . S
C531 H571 0.951 . S
C532 C531 1.340 . S
C532 C533 1.439 . S
C532 H572 0.950 . S
C533 C532 1.439 . S
C533 N534 1.374 . S
C533 C567 1.395 . S
N534 C530 1.376 . S
N534 C533 1.374 . S
N534 Co535 2.008 . S
Co535 N534 2.008 . S
Co535 N536 1.995 . S
Co535 N541 2.008 . S
Co535 N546 1.995 . S
Co535 N551 2.282 . S
Co535 N557 2.282 . S
N536 Co535 1.995 . S
N536 C537 1.376 . S
N536 C540 1.383 . S
C537 N536 1.376 . S
C537 C538 1.446 . S
C537 C567 1.391 . S
C538 C537 1.446 . S
C538 C539 1.339 . S
C538 H573 0.949 . S
C539 C538 1.339 . S
C539 C540 1.439 . S
C539 H574 0.950 . S
C540 N536 1.383 . S
C540 C539 1.439 . S
C540 C569 1.392 . S
N541 Co535 2.008 . S
N541 C542 1.376 . S
N541 C545 1.374 . S
C542 N541 1.376 . S
C542 C543 1.443 . S
C542 C569 1.389 . S
C543 C542 1.443 . S
C543 C544 1.340 . S
C543 H575 0.951 . S
C544 C543 1.340 . S
C544 C545 1.439 . S
C544 H576 0.950 . S
C545 N541 1.374 . S
C545 C544 1.439 . S
C545 C570 1.395 . S
N546 Co535 1.995 . S
N546 C547 1.376 . S
N546 C550 1.383 . S
C547 N546 1.376 . S
C547 C548 1.446 . S
C547 C570 1.391 . S
C548 C547 1.446 . S
C548 C549 1.339 . S
C548 H577 0.949 . S
C549 C548 1.339 . S
C549 C550 1.439 . S
C549 H578 0.950 . S
C550 N546 1.383 . S
C550 C549 1.439 . S
C550 C568 1.392 . S
N551 Co535 2.282 . S
N551 C554 1.332 . S
N551 C556 1.332 . S
C552 C553 1.386 . S
C552 C555 1.388 . S
C553 C552 1.386 . S
C553 C554 1.382 . S
C553 H579 0.950 . S
C554 N551 1.332 . S
C554 C553 1.382 . S
C554 H565 0.952 . S
C555 C552 1.388 . S
C555 C556 1.382 . S
C555 H580 0.950 . S
C556 N551 1.332 . S
C556 C555 1.382 . S
C556 H566 0.948 . S
N557 Co535 2.282 . S
N557 C561 1.332 . S
N557 C562 1.332 . S
C558 C559 1.388 . S
C558 C562 1.382 . S
C558 H581 0.950 . S
C559 C558 1.388 . S
C559 C560 1.386 . S
C560 C559 1.386 . S
C560 C561 1.382 . S
C560 H582 0.950 . S
C561 N557 1.332 . S
C561 C560 1.382 . S
C561 H563 0.952 . S
C562 N557 1.332 . S
C562 C558 1.382 . S
C562 H564 0.948 . S
H563 C561 0.952 . S
H564 C562 0.948 . S
H565 C554 0.952 . S
H566 C556 0.948 . S
C567 C533 1.395 . S
C567 C537 1.391 . S
C568 C530 1.389 . S
C568 C550 1.392 . S
C569 C540 1.392 . S
C569 C542 1.389 . S
C570 C545 1.395 . S
C570 C547 1.391 . S
H571 C531 0.951 . S
H572 C532 0.950 . S
H573 C538 0.949 . S
H574 C539 0.950 . S
H575 C543 0.951 . S
H576 C544 0.950 . S
H577 C548 0.949 . S
H578 C549 0.950 . S
H579 C553 0.950 . S
H580 C555 0.950 . S
H581 C558 0.950 . S
H582 C560 0.950 . S
C583 C584 1.443 . S
C583 N587 1.376 . S
C583 C621 1.389 . S
C584 C583 1.443 . S
C584 C585 1.340 . S
C584 H624 0.951 . S
C585 C584 1.340 . S
C585 C586 1.439 1_554 S
C585 H625 0.950 . S
C586 C585 1.439 1_556 S
C586 N587 1.374 1_556 S
C586 C620 1.395 . S
N587 C583 1.376 . S
N587 C586 1.374 1_554 S
N587 Co588 2.008 1_554 S
Co588 N587 2.008 1_556 S
Co588 N589 1.995 . S
Co588 N594 2.008 1_545 S
Co588 N599 1.995 1_546 S
Co588 N604 2.282 1_545 S
Co588 N610 2.282 1_556 S
N589 Co588 1.995 . S
N589 C590 1.376 . S
N589 C593 1.383 . S
C590 N589 1.376 . S
C590 C591 1.446 . S
C590 C620 1.391 . S
C591 C590 1.446 . S
C591 C592 1.339 . S
C591 H626 0.949 . S
C592 C591 1.339 . S
C592 C593 1.439 . S
C592 H627 0.950 . S
C593 N589 1.383 . S
C593 C592 1.439 . S
C593 C622 1.392 1_545 S
N594 Co588 2.008 1_565 S
N594 C595 1.376 . S
N594 C598 1.374 1_556 S
C595 N594 1.376 . S
C595 C596 1.443 . S
C595 C622 1.389 . S
C596 C595 1.443 . S
C596 C597 1.340 . S
C596 H628 0.951 . S
C597 C596 1.340 . S
C597 C598 1.439 1_556 S
C597 H629 0.950 . S
C598 N594 1.374 1_554 S
C598 C597 1.439 1_554 S
C598 C623 1.395 . S
N599 Co588 1.995 1_564 S
N599 C600 1.376 . S
N599 C603 1.383 1_565 S
C600 N599 1.376 . S
C600 C601 1.446 . S
C600 C623 1.391 . S
C601 C600 1.446 . S
C601 C602 1.339 . S
C601 H630 0.949 . S
C602 C601 1.339 . S
C602 C603 1.439 1_565 S
C602 H631 0.950 . S
C603 N599 1.383 1_545 S
C603 C602 1.439 1_545 S
C603 C621 1.392 . S
N604 Co588 2.282 1_565 S
N604 C607 1.332 . S
N604 C609 1.332 . S
C605 C606 1.386 . S
C605 C608 1.388 . S
C606 C605 1.386 . S
C606 C607 1.382 . S
C606 H632 0.950 . S
C607 N604 1.332 . S
C607 C606 1.382 . S
C607 H618 0.952 1_556 S
C608 C605 1.388 . S
C608 C609 1.382 . S
C608 H633 0.950 . S
C609 N604 1.332 . S
C609 C608 1.382 . S
C609 H619 0.948 1_565 S
N610 Co588 2.282 1_554 S
N610 C614 1.332 . S
N610 C615 1.332 . S
C611 C612 1.388 . S
C611 C615 1.382 . S
C611 H634 0.950 . S
C612 C611 1.388 . S
C612 C613 1.386 . S
C613 C612 1.386 . S
C613 C614 1.382 . S
C613 H635 0.950 . S
C614 N610 1.332 . S
C614 C613 1.382 . S
C614 H616 0.952 1_554 S
C615 N610 1.332 . S
C615 C611 1.382 . S
C615 H617 0.948 . S
H616 C614 0.952 1_556 S
H617 C615 0.948 . S
H618 C607 0.952 1_554 S
H619 C609 0.948 1_545 S
C620 C586 1.395 . S
C620 C590 1.391 . S
C621 C583 1.389 . S
C621 C603 1.392 . S
C622 C593 1.392 1_565 S
C622 C595 1.389 . S
C623 C598 1.395 . S
C623 C600 1.391 . S
H624 C584 0.951 . S
H625 C585 0.950 . S
H626 C591 0.949 . S
H627 C592 0.950 . S
H628 C596 0.951 . S
H629 C597 0.950 . S
H630 C601 0.949 . S
H631 C602 0.950 . S
H632 C606 0.950 . S
H633 C608 0.950 . S
H634 C611 0.950 . S
H635 C613 0.950 . S
C636 C637 1.443 . S
C636 N640 1.376 . S
C636 C674 1.389 . S
C637 C636 1.443 . S
C637 C638 1.340 . S
C637 H677 0.951 . S
C638 C637 1.340 . S
C638 C639 1.439 . S
C638 H678 0.950 . S
C639 C638 1.439 . S
C639 N640 1.374 . S
C639 C673 1.395 . S
N640 C636 1.376 . S
N640 C639 1.374 . S
N640 Co641 2.008 . S
Co641 N640 2.008 . S
Co641 N642 1.995 . S
Co641 N647 2.008 . S
Co641 N652 1.995 . S
Co641 N657 2.282 . S
Co641 N663 2.282 . S
N642 Co641 1.995 . S
N642 C643 1.376 . S
N642 C646 1.383 . S
C643 N642 1.376 . S
C643 C644 1.446 . S
C643 C673 1.391 . S
C644 C643 1.446 . S
C644 C645 1.339 . S
C644 H679 0.949 . S
C645 C644 1.339 . S
C645 C646 1.439 . S
C645 H680 0.950 . S
C646 N642 1.383 . S
C646 C645 1.439 . S
C646 C675 1.392 . S
N647 Co641 2.008 . S
N647 C648 1.376 . S
N647 C651 1.374 . S
C648 N647 1.376 . S
C648 C649 1.443 . S
C648 C675 1.389 . S
C649 C648 1.443 . S
C649 C650 1.340 . S
C649 H681 0.951 . S
C650 C649 1.340 . S
C650 C651 1.439 . S
C650 H682 0.950 . S
C651 N647 1.374 . S
C651 C650 1.439 . S
C651 C676 1.395 . S
N652 Co641 1.995 . S
N652 C653 1.376 . S
N652 C656 1.383 . S
C653 N652 1.376 . S
C653 C654 1.446 . S
C653 C676 1.391 . S
C654 C653 1.446 . S
C654 C655 1.339 . S
C654 H683 0.949 . S
C655 C654 1.339 . S
C655 C656 1.439 . S
C655 H684 0.950 . S
C656 N652 1.383 . S
C656 C655 1.439 . S
C656 C674 1.392 . S
N657 Co641 2.282 . S
N657 C660 1.332 . S
N657 C662 1.332 . S
C658 C659 1.386 . S
C658 C661 1.388 . S
C659 C658 1.386 . S
C659 C660 1.382 . S
C659 H685 0.950 . S
C660 N657 1.332 . S
C660 C659 1.382 . S
C660 H671 0.952 . S
C661 C658 1.388 . S
C661 C662 1.382 . S
C661 H686 0.950 . S
C662 N657 1.332 . S
C662 C661 1.382 . S
C662 H672 0.948 . S
N663 Co641 2.282 . S
N663 C667 1.332 . S
N663 C668 1.332 . S
C664 C665 1.388 . S
C664 C668 1.382 . S
C664 H687 0.950 . S
C665 C664 1.388 . S
C665 C666 1.386 . S
C666 C665 1.386 . S
C666 C667 1.382 . S
C666 H688 0.950 . S
C667 N663 1.332 . S
C667 C666 1.382 . S
C667 H669 0.952 . S
C668 N663 1.332 . S
C668 C664 1.382 . S
C668 H670 0.948 . S
H669 C667 0.952 . S
H670 C668 0.948 . S
H671 C660 0.952 . S
H672 C662 0.948 . S
C673 C639 1.395 . S
C673 C643 1.391 . S
C674 C636 1.389 . S
C674 C656 1.392 . S
C675 C646 1.392 . S
C675 C648 1.389 . S
C676 C651 1.395 . S
C676 C653 1.391 . S
H677 C637 0.951 . S
H678 C638 0.950 . S
H679 C644 0.949 . S
H680 C645 0.950 . S
H681 C649 0.951 . S
H682 C650 0.950 . S
H683 C654 0.949 . S
H684 C655 0.950 . S
H685 C659 0.950 . S
H686 C661 0.950 . S
H687 C664 0.950 . S
H688 C666 0.950 . S
C689 C690 1.443 . S
C689 N693 1.376 . S
C689 C727 1.389 . S
C690 C689 1.443 . S
C690 C691 1.340 . S
C690 H730 0.951 . S
C691 C690 1.340 . S
C691 C692 1.439 . S
C691 H731 0.950 . S
C692 C691 1.439 . S
C692 N693 1.374 . S
C692 C726 1.395 . S
N693 C689 1.376 . S
N693 C692 1.374 . S
N693 Co694 2.008 1_455 S
Co694 N693 2.008 1_655 S
Co694 N695 1.995 1_655 S
Co694 N700 2.008 . S
Co694 N705 1.995 . S
Co694 N710 2.282 . S
Co694 N716 2.282 1_655 S
N695 Co694 1.995 1_455 S
N695 C696 1.376 . S
N695 C699 1.383 1_455 S
C696 N695 1.376 . S
C696 C697 1.446 . S
C696 C726 1.391 . S
C697 C696 1.446 . S
C697 C698 1.339 1_455 S
C697 H732 0.949 . S
C698 C697 1.339 1_655 S
C698 C699 1.439 . S
C698 H733 0.950 . S
C699 N695 1.383 1_655 S
C699 C698 1.439 . S
C699 C728 1.392 . S
N700 Co694 2.008 . S
N700 C701 1.376 . S
N700 C704 1.374 . S
C701 N700 1.376 . S
C701 C702 1.443 . S
C701 C728 1.389 . S
C702 C701 1.443 . S
C702 C703 1.340 . S
C702 H734 0.951 . S
C703 C702 1.340 . S
C703 C704 1.439 . S
C703 H735 0.950 . S
C704 N700 1.374 . S
C704 C703 1.439 . S
C704 C729 1.395 . S
N705 Co694 1.995 . S
N705 C706 1.376 . S
N705 C709 1.383 1_655 S
C706 N705 1.376 . S
C706 C707 1.446 . S
C706 C729 1.391 . S
C707 C706 1.446 . S
C707 C708 1.339 1_655 S
C707 H736 0.949 . S
C708 C707 1.339 1_455 S
C708 C709 1.439 . S
C708 H737 0.950 . S
C709 N705 1.383 1_455 S
C709 C708 1.439 . S
C709 C727 1.392 . S
N710 Co694 2.282 . S
N710 C713 1.332 . S
N710 C715 1.332 1_655 S
C711 C712 1.386 . S
C711 C714 1.388 . S
C712 C711 1.386 . S
C712 C713 1.382 . S
C712 H738 0.950 . S
C713 N710 1.332 . S
C713 C712 1.382 . S
C713 H724 0.952 . S
C714 C711 1.388 . S
C714 C715 1.382 1_655 S
C714 H739 0.950 1_655 S
C715 N710 1.332 1_455 S
C715 C714 1.382 1_455 S
C715 H725 0.948 . S
N716 Co694 2.282 1_455 S
N716 C720 1.332 . S
N716 C721 1.332 1_455 S
C717 C718 1.388 . S
C717 C721 1.382 1_455 S
C717 H740 0.950 1_455 S
C718 C717 1.388 . S
C718 C719 1.386 . S
C719 C718 1.386 . S
C719 C720 1.382 . S
C719 H741 0.950 . S
C720 N716 1.332 . S
C720 C719 1.382 . S
C720 H722 0.952 . S
C721 N716 1.332 1_655 S
C721 C717 1.382 1_655 S
C721 H723 0.948 . S
H722 C720 0.952 . S
H723 C721 0.948 . S
H724 C713 0.952 . S
H725 C715 0.948 . S
C726 C692 1.395 . S
C726 C696 1.391 . S
C727 C689 1.389 . S
C727 C709 1.392 . S
C728 C699 1.392 . S
C728 C701 1.389 . S
C729 C704 1.395 . S
C729 C706 1.391 . S
H730 C690 0.951 . S
H731 C691 0.950 . S
H732 C697 0.949 . S
H733 C698 0.950 . S
H734 C702 0.951 . S
H735 C703 0.950 . S
H736 C707 0.949 . S
H737 C708 0.950 . S
H738 C712 0.950 . S
H739 C714 0.950 1_455 S
H740 C717 0.950 1_655 S
H741 C719 0.950 . S
C742 C743 1.443 . S
C742 N746 1.376 . S
C742 C780 1.389 . S
C743 C742 1.443 . S
C743 C744 1.340 . S
C743 H783 0.951 . S
C744 C743 1.340 . S
C744 C745 1.439 . S
C744 H784 0.950 . S
C745 C744 1.439 . S
C745 N746 1.374 . S
C745 C779 1.395 . S
N746 C742 1.376 . S
N746 C745 1.374 . S
N746 Co747 2.008 . S
Co747 N746 2.008 . S
Co747 N748 1.995 . S
Co747 N753 2.008 . S
Co747 N758 1.995 . S
Co747 N763 2.282 . S
Co747 N769 2.282 . S
N748 Co747 1.995 . S
N748 C749 1.376 . S
N748 C752 1.383 . S
C749 N748 1.376 . S
C749 C750 1.446 . S
C749 C779 1.391 . S
C750 C749 1.446 . S
C750 C751 1.339 . S
C750 H785 0.949 . S
C751 C750 1.339 . S
C751 C752 1.439 . S
C751 H786 0.950 . S
C752 N748 1.383 . S
C752 C751 1.439 . S
C752 C781 1.392 . S
N753 Co747 2.008 . S
N753 C754 1.376 . S
N753 C757 1.374 . S
C754 N753 1.376 . S
C754 C755 1.443 . S
C754 C781 1.389 . S
C755 C754 1.443 . S
C755 C756 1.340 . S
C755 H787 0.951 . S
C756 C755 1.340 . S
C756 C757 1.439 . S
C756 H788 0.950 . S
C757 N753 1.374 . S
C757 C756 1.439 . S
C757 C782 1.395 . S
N758 Co747 1.995 . S
N758 C759 1.376 . S
N758 C762 1.383 . S
C759 N758 1.376 . S
C759 C760 1.446 . S
C759 C782 1.391 . S
C760 C759 1.446 . S
C760 C761 1.339 . S
C760 H789 0.949 . S
C761 C760 1.339 . S
C761 C762 1.439 . S
C761 H790 0.950 . S
C762 N758 1.383 . S
C762 C761 1.439 . S
C762 C780 1.392 . S
N763 Co747 2.282 . S
N763 C766 1.332 . S
N763 C768 1.332 . S
C764 C765 1.386 . S
C764 C767 1.388 . S
C765 C764 1.386 . S
C765 C766 1.382 . S
C765 H791 0.950 . S
C766 N763 1.332 . S
C766 C765 1.382 . S
C766 H777 0.952 . S
C767 C764 1.388 . S
C767 C768 1.382 . S
C767 H792 0.950 . S
C768 N763 1.332 . S
C768 C767 1.382 . S
C768 H778 0.948 . S
N769 Co747 2.282 . S
N769 C773 1.332 . S
N769 C774 1.332 . S
C770 C771 1.388 . S
C770 C774 1.382 . S
C770 H793 0.950 . S
C771 C770 1.388 . S
C771 C772 1.386 . S
C772 C771 1.386 . S
C772 C773 1.382 . S
C772 H794 0.950 . S
C773 N769 1.332 . S
C773 C772 1.382 . S
C773 H775 0.952 . S
C774 N769 1.332 . S
C774 C770 1.382 . S
C774 H776 0.948 . S
H775 C773 0.952 . S
H776 C774 0.948 . S
H777 C766 0.952 . S
H778 C768 0.948 . S
C779 C745 1.395 . S
C779 C749 1.391 . S
C780 C742 1.389 . S
C780 C762 1.392 . S
C781 C752 1.392 . S
C781 C754 1.389 . S
C782 C757 1.395 . S
C782 C759 1.391 . S
H783 C743 0.951 . S
H784 C744 0.950 . S
H785 C750 0.949 . S
H786 C751 0.950 . S
H787 C755 0.951 . S
H788 C756 0.950 . S
H789 C760 0.949 . S
H790 C761 0.950 . S
H791 C765 0.950 . S
H792 C767 0.950 . S
H793 C770 0.950 . S
H794 C772 0.950 . S
C795 C796 1.443 . S
C795 N799 1.376 . S
C795 C833 1.389 . S
C796 C795 1.443 . S
C796 C797 1.340 . S
C796 H836 0.951 . S
C797 C796 1.340 . S
C797 C798 1.439 . S
C797 H837 0.950 . S
C798 C797 1.439 . S
C798 N799 1.374 . S
C798 C832 1.395 . S
N799 C795 1.376 . S
N799 C798 1.374 . S
N799 Co800 2.008 . S
Co800 N799 2.008 . S
Co800 N801 1.995 . S
Co800 N806 2.008 . S
Co800 N811 1.995 . S
Co800 N816 2.282 . S
Co800 N822 2.282 . S
N801 Co800 1.995 . S
N801 C802 1.376 . S
N801 C805 1.383 . S
C802 N801 1.376 . S
C802 C803 1.446 . S
C802 C832 1.391 . S
C803 C802 1.446 . S
C803 C804 1.339 . S
C803 H838 0.949 . S
C804 C803 1.339 . S
C804 C805 1.439 . S
C804 H839 0.950 . S
C805 N801 1.383 . S
C805 C804 1.439 . S
C805 C834 1.392 . S
N806 Co800 2.008 . S
N806 C807 1.376 . S
N806 C810 1.374 . S
C807 N806 1.376 . S
C807 C808 1.443 . S
C807 C834 1.389 . S
C808 C807 1.443 . S
C808 C809 1.340 . S
C808 H840 0.951 . S
C809 C808 1.340 . S
C809 C810 1.439 . S
C809 H841 0.950 . S
C810 N806 1.374 . S
C810 C809 1.439 . S
C810 C835 1.395 . S
N811 Co800 1.995 . S
N811 C812 1.376 . S
N811 C815 1.383 . S
C812 N811 1.376 . S
C812 C813 1.446 . S
C812 C835 1.391 . S
C813 C812 1.446 . S
C813 C814 1.339 . S
C813 H842 0.949 . S
C814 C813 1.339 . S
C814 C815 1.439 . S
C814 H843 0.950 . S
C815 N811 1.383 . S
C815 C814 1.439 . S
C815 C833 1.392 . S
N816 Co800 2.282 . S
N816 C819 1.332 . S
N816 C821 1.332 . S
C817 C818 1.386 . S
C817 C820 1.388 . S
C818 C817 1.386 . S
C818 C819 1.382 . S
C818 H844 0.950 . S
C819 N816 1.332 . S
C819 C818 1.382 . S
C819 H830 0.952 . S
C820 C817 1.388 . S
C820 C821 1.382 . S
C820 H845 0.950 . S
C821 N816 1.332 . S
C821 C820 1.382 . S
C821 H831 0.948 . S
N822 Co800 2.282 . S
N822 C826 1.332 . S
N822 C827 1.332 . S
C823 C824 1.388 . S
C823 C827 1.382 . S
C823 H846 0.950 . S
C824 C823 1.388 . S
C824 C825 1.386 . S
C825 C824 1.386 . S
C825 C826 1.382 . S
C825 H847 0.950 . S
C826 N822 1.332 . S
C826 C825 1.382 . S
C826 H828 0.952 . S
C827 N822 1.332 . S
C827 C823 1.382 . S
C827 H829 0.948 . S
H828 C826 0.952 . S
H829 C827 0.948 . S
H830 C819 0.952 . S
H831 C821 0.948 . S
C832 C798 1.395 . S
C832 C802 1.391 . S
C833 C795 1.389 . S
C833 C815 1.392 . S
C834 C805 1.392 . S
C834 C807 1.389 . S
C835 C810 1.395 . S
C835 C812 1.391 . S
H836 C796 0.951 . S
H837 C797 0.950 . S
H838 C803 0.949 . S
H839 C804 0.950 . S
H840 C808 0.951 . S
H841 C809 0.950 . S
H842 C813 0.949 . S
H843 C814 0.950 . S
H844 C818 0.950 . S
H845 C820 0.950 . S
H846 C823 0.950 . S
H847 C825 0.950 . S
C848 C849 1.443 . S
C848 N852 1.376 . S
C848 C886 1.389 . S
C849 C848 1.443 . S
C849 C850 1.340 . S
C849 H889 0.951 . S
C850 C849 1.340 . S
C850 C851 1.439 . S
C850 H890 0.950 . S
C851 C850 1.439 . S
C851 N852 1.374 . S
C851 C885 1.395 . S
N852 C848 1.376 . S
N852 C851 1.374 . S
N852 Co853 2.008 . S
Co853 N852 2.008 . S
Co853 N854 1.995 . S
Co853 N859 2.008 . S
Co853 N864 1.995 . S
Co853 N869 2.282 . S
Co853 N875 2.282 . S
N854 Co853 1.995 . S
N854 C855 1.376 . S
N854 C858 1.383 . S
C855 N854 1.376 . S
C855 C856 1.446 . S
C855 C885 1.391 . S
C856 C855 1.446 . S
C856 C857 1.339 . S
C856 H891 0.949 . S
C857 C856 1.339 . S
C857 C858 1.439 . S
C857 H892 0.950 . S
C858 N854 1.383 . S
C858 C857 1.439 . S
C858 C887 1.392 . S
N859 Co853 2.008 . S
N859 C860 1.376 . S
N859 C863 1.374 . S
C860 N859 1.376 . S
C860 C861 1.443 . S
C860 C887 1.389 . S
C861 C860 1.443 . S
C861 C862 1.340 . S
C861 H893 0.951 . S
C862 C861 1.340 . S
C862 C863 1.439 . S
C862 H894 0.950 . S
C863 N859 1.374 . S
C863 C862 1.439 . S
C863 C888 1.395 . S
N864 Co853 1.995 . S
N864 C865 1.376 . S
N864 C868 1.383 . S
C865 N864 1.376 . S
C865 C866 1.446 . S
C865 C888 1.391 . S
C866 C865 1.446 . S
C866 C867 1.339 . S
C866 H895 0.949 . S
C867 C866 1.339 . S
C867 C868 1.439 . S
C867 H896 0.950 . S
C868 N864 1.383 . S
C868 C867 1.439 . S
C868 C886 1.392 . S
N869 Co853 2.282 . S
N869 C872 1.332 . S
N869 C874 1.332 . S
C870 C871 1.386 . S
C870 C873 1.388 . S
C871 C870 1.386 . S
C871 C872 1.382 . S
C871 H897 0.950 . S
C872 N869 1.332 . S
C872 C871 1.382 . S
C872 H883 0.952 . S
C873 C870 1.388 . S
C873 C874 1.382 . S
C873 H898 0.950 . S
C874 N869 1.332 . S
C874 C873 1.382 . S
C874 H884 0.948 . S
N875 Co853 2.282 . S
N875 C879 1.332 . S
N875 C880 1.332 . S
C876 C877 1.388 . S
C876 C880 1.382 . S
C876 H899 0.950 . S
C877 C876 1.388 . S
C877 C878 1.386 . S
C878 C877 1.386 . S
C878 C879 1.382 . S
C878 H900 0.950 . S
C879 N875 1.332 . S
C879 C878 1.382 . S
C879 H881 0.952 . S
C880 N875 1.332 . S
C880 C876 1.382 . S
C880 H882 0.948 . S
H881 C879 0.952 . S
H882 C880 0.948 . S
H883 C872 0.952 . S
H884 C874 0.948 . S
C885 C851 1.395 . S
C885 C855 1.391 . S
C886 C848 1.389 . S
C886 C868 1.392 . S
C887 C858 1.392 . S
C887 C860 1.389 . S
C888 C863 1.395 . S
C888 C865 1.391 . S
H889 C849 0.951 . S
H890 C850 0.950 . S
H891 C856 0.949 . S
H892 C857 0.950 . S
H893 C861 0.951 . S
H894 C862 0.950 . S
H895 C866 0.949 . S
H896 C867 0.950 . S
H897 C871 0.950 . S
H898 C873 0.950 . S
H899 C876 0.950 . S
H900 C878 0.950 . S
C901 C902 1.443 . S
C901 N905 1.376 . S
C901 C939 1.389 . S
C902 C901 1.443 . S
C902 C903 1.340 . S
C902 H942 0.951 . S
C903 C902 1.340 . S
C903 C904 1.439 . S
C903 H943 0.950 . S
C904 C903 1.439 . S
C904 N905 1.374 . S
C904 C938 1.395 . S
N905 C901 1.376 . S
N905 C904 1.374 . S
N905 Co906 2.008 . S
Co906 N905 2.008 . S
Co906 N907 1.995 . S
Co906 N912 2.008 . S
Co906 N917 1.995 . S
Co906 N922 2.282 . S
Co906 N928 2.282 . S
N907 Co906 1.995 . S
N907 C908 1.376 . S
N907 C911 1.383 . S
C908 N907 1.376 . S
C908 C909 1.446 . S
C908 C938 1.391 . S
C909 C908 1.446 . S
C909 C910 1.339 . S
C909 H944 0.949 . S
C910 C909 1.339 . S
C910 C911 1.439 . S
C910 H945 0.950 . S
C911 N907 1.383 . S
C911 C910 1.439 . S
C911 C940 1.392 . S
N912 Co906 2.008 . S
N912 C913 1.376 . S
N912 C916 1.374 . S
C913 N912 1.376 . S
C913 C914 1.443 . S
C913 C940 1.389 . S
C914 C913 1.443 . S
C914 C915 1.340 . S
C914 H946 0.951 . S
C915 C914 1.340 . S
C915 C916 1.439 . S
C915 H947 0.950 . S
C916 N912 1.374 . S
C916 C915 1.439 . S
C916 C941 1.395 . S
N917 Co906 1.995 . S
N917 C918 1.376 . S
N917 C921 1.383 . S
C918 N917 1.376 . S
C918 C919 1.446 . S
C918 C941 1.391 . S
C919 C918 1.446 . S
C919 C920 1.339 . S
C919 H948 0.949 . S
C920 C919 1.339 . S
C920 C921 1.439 . S
C920 H949 0.950 . S
C921 N917 1.383 . S
C921 C920 1.439 . S
C921 C939 1.392 . S
N922 Co906 2.282 . S
N922 C925 1.332 . S
N922 C927 1.332 . S
C923 C924 1.386 . S
C923 C926 1.388 . S
C924 C923 1.386 . S
C924 C925 1.382 . S
C924 H950 0.950 . S
C925 N922 1.332 . S
C925 C924 1.382 . S
C925 H936 0.952 . S
C926 C923 1.388 . S
C926 C927 1.382 . S
C926 H951 0.950 . S
C927 N922 1.332 . S
C927 C926 1.382 . S
C927 H937 0.948 . S
N928 Co906 2.282 . S
N928 C932 1.332 . S
N928 C933 1.332 . S
C929 C930 1.388 . S
C929 C933 1.382 . S
C929 H952 0.950 . S
C930 C929 1.388 . S
C930 C931 1.386 . S
C931 C930 1.386 . S
C931 C932 1.382 . S
C931 H953 0.950 . S
C932 N928 1.332 . S
C932 C931 1.382 . S
C932 H934 0.952 . S
C933 N928 1.332 . S
C933 C929 1.382 . S
C933 H935 0.948 . S
H934 C932 0.952 . S
H935 C933 0.948 . S
H936 C925 0.952 . S
H937 C927 0.948 . S
C938 C904 1.395 . S
C938 C908 1.391 . S
C939 C901 1.389 . S
C939 C921 1.392 . S
C940 C911 1.392 . S
C940 C913 1.389 . S
C941 C916 1.395 . S
C941 C918 1.391 . S
H942 C902 0.951 . S
H943 C903 0.950 . S
H944 C909 0.949 . S
H945 C910 0.950 . S
H946 C914 0.951 . S
H947 C915 0.950 . S
H948 C919 0.949 . S
H949 C920 0.950 . S
H950 C924 0.950 . S
H951 C926 0.950 . S
H952 C929 0.950 . S
H953 C931 0.950 . S
C954 C955 1.443 . S
C954 N958 1.376 . S
C954 C992 1.389 . S
C955 C954 1.443 . S
C955 C956 1.340 . S
C955 H995 0.951 . S
C956 C955 1.340 . S
C956 C957 1.439 1_655 S
C956 H996 0.950 1_655 S
C957 C956 1.439 1_455 S
C957 N958 1.374 1_455 S
C957 C991 1.395 . S
N958 C954 1.376 . S
N958 C957 1.374 1_655 S
N958 Co959 2.008 1_556 S
Co959 N958 2.008 1_554 S
Co959 N960 1.995 1_654 S
Co959 N965 2.008 1_655 S
Co959 N970 1.995 . S
Co959 N975 2.282 1_655 S
Co959 N981 2.282 1_554 S
N960 Co959 1.995 1_456 S
N960 C961 1.376 . S
N960 C964 1.383 1_556 S
C961 N960 1.376 . S
C961 C962 1.446 . S
C961 C991 1.391 . S
C962 C961 1.446 . S
C962 C963 1.339 1_556 S
C962 H997 0.949 . S
C963 C962 1.339 1_554 S
C963 C964 1.439 . S
C963 H998 0.950 . S
C964 N960 1.383 1_554 S
C964 C963 1.439 . S
C964 C993 1.392 . S
N965 Co959 2.008 1_455 S
N965 C966 1.376 . S
N965 C969 1.374 1_455 S
C966 N965 1.376 . S
C966 C967 1.443 . S
C966 C993 1.389 . S
C967 C966 1.443 . S
C967 C968 1.340 . S
C967 H999 0.951 . S
C968 C967 1.340 . S
C968 C969 1.439 1_455 S
C968 H1000 0.950 1_455 S
C969 N965 1.374 1_655 S
C969 C968 1.439 1_655 S
C969 C994 1.395 . S
N970 Co959 1.995 . S
N970 C971 1.376 . S
N970 C974 1.383 1_554 S
C971 N970 1.376 . S
C971 C972 1.446 . S
C971 C994 1.391 . S
C972 C971 1.446 . S
C972 C973 1.339 1_554 S
C972 H1001 0.949 . S
C973 C972 1.339 1_556 S
C973 C974 1.439 . S
C973 H1002 0.950 . S
C974 N970 1.383 1_556 S
C974 C973 1.439 . S
C974 C992 1.392 . S
N975 Co959 2.282 1_455 S
N975 C978 1.332 . S
N975 C980 1.332 1_554 S
C976 C977 1.386 . S
C976 C979 1.388 . S
C977 C976 1.386 . S
C977 C978 1.382 . S
C977 H1003 0.950 . S
C978 N975 1.332 . S
C978 C977 1.382 . S
C978 H989 0.952 . S
C979 C976 1.388 . S
C979 C980 1.382 1_554 S
C979 H1004 0.950 1_554 S
C980 N975 1.332 1_556 S
C980 C979 1.382 1_556 S
C980 H990 0.948 . S
N981 Co959 2.282 1_556 S
N981 C985 1.332 . S
N981 C986 1.332 1_556 S
C982 C983 1.388 . S
C982 C986 1.382 1_556 S
C982 H1005 0.950 1_556 S
C983 C982 1.388 . S
C983 C984 1.386 . S
C984 C983 1.386 . S
C984 C985 1.382 . S
C984 H1006 0.950 . S
C985 N981 1.332 . S
C985 C984 1.382 . S
C985 H987 0.952 . S
C986 N981 1.332 1_554 S
C986 C982 1.382 1_554 S
C986 H988 0.948 . S
H987 C985 0.952 . S
H988 C986 0.948 . S
H989 C978 0.952 . S
H990 C980 0.948 . S
C991 C957 1.395 . S
C991 C961 1.391 . S
C992 C954 1.389 . S
C992 C974 1.392 . S
C993 C964 1.392 . S
C993 C966 1.389 . S
C994 C969 1.395 . S
C994 C971 1.391 . S
H995 C955 0.951 . S
H996 C956 0.950 1_455 S
H997 C962 0.949 . S
H998 C963 0.950 . S
H999 C967 0.951 . S
H1000 C968 0.950 1_655 S
H1001 C972 0.949 . S
H1002 C973 0.950 . S
H1003 C977 0.950 . S
H1004 C979 0.950 1_556 S
H1005 C982 0.950 1_554 S
H1006 C984 0.950 . S
C1007 C1008 1.443 . S
C1007 N1011 1.376 . S
C1007 C1045 1.389 . S
C1008 C1007 1.443 . S
C1008 C1009 1.340 . S
C1008 H1048 0.951 . S
C1009 C1008 1.340 . S
C1009 C1010 1.439 . S
C1009 H1049 0.950 . S
C1010 C1009 1.439 . S
C1010 N1011 1.374 . S
C1010 C1044 1.395 . S
N1011 C1007 1.376 . S
N1011 C1010 1.374 . S
N1011 Co1012 2.008 . S
Co1012 N1011 2.008 . S
Co1012 N1013 1.995 . S
Co1012 N1018 2.008 . S
Co1012 N1023 1.995 . S
Co1012 N1028 2.282 . S
Co1012 N1034 2.282 . S
N1013 Co1012 1.995 . S
N1013 C1014 1.376 . S
N1013 C1017 1.383 . S
C1014 N1013 1.376 . S
C1014 C1015 1.446 . S
C1014 C1044 1.391 . S
C1015 C1014 1.446 . S
C1015 C1016 1.339 . S
C1015 H1050 0.949 . S
C1016 C1015 1.339 . S
C1016 C1017 1.439 . S
C1016 H1051 0.950 . S
C1017 N1013 1.383 . S
C1017 C1016 1.439 . S
C1017 C1046 1.392 . S
N1018 Co1012 2.008 . S
N1018 C1019 1.376 . S
N1018 C1022 1.374 . S
C1019 N1018 1.376 . S
C1019 C1020 1.443 . S
C1019 C1046 1.389 . S
C1020 C1019 1.443 . S
C1020 C1021 1.340 . S
C1020 H1052 0.951 . S
C1021 C1020 1.340 . S
C1021 C1022 1.439 . S
C1021 H1053 0.950 . S
C1022 N1018 1.374 . S
C1022 C1021 1.439 . S
C1022 C1047 1.395 . S
N1023 Co1012 1.995 . S
N1023 C1024 1.376 . S
N1023 C1027 1.383 . S
C1024 N1023 1.376 . S
C1024 C1025 1.446 . S
C1024 C1047 1.391 . S
C1025 C1024 1.446 . S
C1025 C1026 1.339 . S
C1025 H1054 0.949 . S
C1026 C1025 1.339 . S
C1026 C1027 1.439 . S
C1026 H1055 0.950 . S
C1027 N1023 1.383 . S
C1027 C1026 1.439 . S
C1027 C1045 1.392 . S
N1028 Co1012 2.282 . S
N1028 C1031 1.332 . S
N1028 C1033 1.332 . S
C1029 C1030 1.386 . S
C1029 C1032 1.388 . S
C1030 C1029 1.386 . S
C1030 C1031 1.382 . S
C1030 H1056 0.950 . S
C1031 N1028 1.332 . S
C1031 C1030 1.382 . S
C1031 H1042 0.952 . S
C1032 C1029 1.388 . S
C1032 C1033 1.382 . S
C1032 H1057 0.950 . S
C1033 N1028 1.332 . S
C1033 C1032 1.382 . S
C1033 H1043 0.948 . S
N1034 Co1012 2.282 . S
N1034 C1038 1.332 . S
N1034 C1039 1.332 . S
C1035 C1036 1.388 . S
C1035 C1039 1.382 . S
C1035 H1058 0.950 . S
C1036 C1035 1.388 . S
C1036 C1037 1.386 . S
C1037 C1036 1.386 . S
C1037 C1038 1.382 . S
C1037 H1059 0.950 . S
C1038 N1034 1.332 . S
C1038 C1037 1.382 . S
C1038 H1040 0.952 . S
C1039 N1034 1.332 . S
C1039 C1035 1.382 . S
C1039 H1041 0.948 . S
H1040 C1038 0.952 . S
H1041 C1039 0.948 . S
H1042 C1031 0.952 . S
H1043 C1033 0.948 . S
C1044 C1010 1.395 . S
C1044 C1014 1.391 . S
C1045 C1007 1.389 . S
C1045 C1027 1.392 . S
C1046 C1017 1.392 . S
C1046 C1019 1.389 . S
C1047 C1022 1.395 . S
C1047 C1024 1.391 . S
H1048 C1008 0.951 . S
H1049 C1009 0.950 . S
H1050 C1015 0.949 . S
H1051 C1016 0.950 . S
H1052 C1020 0.951 . S
H1053 C1021 0.950 . S
H1054 C1025 0.949 . S
H1055 C1026 0.950 . S
H1056 C1030 0.950 . S
H1057 C1032 0.950 . S
H1058 C1035 0.950 . S
H1059 C1037 0.950 . S
C1060 C1061 1.443 . S
C1060 N1064 1.376 . S
C1060 C1098 1.389 . S
C1061 C1060 1.443 . S
C1061 C1062 1.340 . S
C1061 H1101 0.951 . S
C1062 C1061 1.340 . S
C1062 C1063 1.439 . S
C1062 H1102 0.950 . S
C1063 C1062 1.439 . S
C1063 N1064 1.374 . S
C1063 C1097 1.395 . S
N1064 C1060 1.376 . S
N1064 C1063 1.374 . S
N1064 Co1065 2.008 . S
Co1065 N1064 2.008 . S
Co1065 N1066 1.995 . S
Co1065 N1071 2.008 . S
Co1065 N1076 1.995 . S
Co1065 N1081 2.282 . S
Co1065 N1087 2.282 . S
N1066 Co1065 1.995 . S
N1066 C1067 1.376 . S
N1066 C1070 1.383 . S
C1067 N1066 1.376 . S
C1067 C1068 1.446 . S
C1067 C1097 1.391 . S
C1068 C1067 1.446 . S
C1068 C1069 1.339 . S
C1068 H1103 0.949 . S
C1069 C1068 1.339 . S
C1069 C1070 1.439 . S
C1069 H1104 0.950 . S
C1070 N1066 1.383 . S
C1070 C1069 1.439 . S
C1070 C1099 1.392 . S
N1071 Co1065 2.008 . S
N1071 C1072 1.376 . S
N1071 C1075 1.374 . S
C1072 N1071 1.376 . S
C1072 C1073 1.443 . S
C1072 C1099 1.389 . S
C1073 C1072 1.443 . S
C1073 C1074 1.340 . S
C1073 H1105 0.951 . S
C1074 C1073 1.340 . S
C1074 C1075 1.439 . S
C1074 H1106 0.950 . S
C1075 N1071 1.374 . S
C1075 C1074 1.439 . S
C1075 C1100 1.395 . S
N1076 Co1065 1.995 . S
N1076 C1077 1.376 . S
N1076 C1080 1.383 . S
C1077 N1076 1.376 . S
C1077 C1078 1.446 . S
C1077 C1100 1.391 . S
C1078 C1077 1.446 . S
C1078 C1079 1.339 . S
C1078 H1107 0.949 . S
C1079 C1078 1.339 . S
C1079 C1080 1.439 . S
C1079 H1108 0.950 . S
C1080 N1076 1.383 . S
C1080 C1079 1.439 . S
C1080 C1098 1.392 . S
N1081 Co1065 2.282 . S
N1081 C1084 1.332 . S
N1081 C1086 1.332 . S
C1082 C1083 1.386 . S
C1082 C1085 1.388 . S
C1083 C1082 1.386 . S
C1083 C1084 1.382 . S
C1083 H1109 0.950 . S
C1084 N1081 1.332 . S
C1084 C1083 1.382 . S
C1084 H1095 0.952 . S
C1085 C1082 1.388 . S
C1085 C1086 1.382 . S
C1085 H1110 0.950 . S
C1086 N1081 1.332 . S
C1086 C1085 1.382 . S
C1086 H1096 0.948 . S
N1087 Co1065 2.282 . S
N1087 C1091 1.332 . S
N1087 C1092 1.332 . S
C1088 C1089 1.388 . S
C1088 C1092 1.382 . S
C1088 H1111 0.950 . S
C1089 C1088 1.388 . S
C1089 C1090 1.386 . S
C1090 C1089 1.386 . S
C1090 C1091 1.382 . S
C1090 H1112 0.950 . S
C1091 N1087 1.332 . S
C1091 C1090 1.382 . S
C1091 H1093 0.952 . S
C1092 N1087 1.332 . S
C1092 C1088 1.382 . S
C1092 H1094 0.948 . S
H1093 C1091 0.952 . S
H1094 C1092 0.948 . S
H1095 C1084 0.952 . S
H1096 C1086 0.948 . S
C1097 C1063 1.395 . S
C1097 C1067 1.391 . S
C1098 C1060 1.389 . S
C1098 C1080 1.392 . S
C1099 C1070 1.392 . S
C1099 C1072 1.389 . S
C1100 C1075 1.395 . S
C1100 C1077 1.391 . S
H1101 C1061 0.951 . S
H1102 C1062 0.950 . S
H1103 C1068 0.949 . S
H1104 C1069 0.950 . S
H1105 C1073 0.951 . S
H1106 C1074 0.950 . S
H1107 C1078 0.949 . S
H1108 C1079 0.950 . S
H1109 C1083 0.950 . S
H1110 C1085 0.950 . S
H1111 C1088 0.950 . S
H1112 C1090 0.950 . S
C1113 C1114 1.443 . S
C1113 N1117 1.376 . S
C1113 C1151 1.389 . S
C1114 C1113 1.443 . S
C1114 C1115 1.340 . S
C1114 H1154 0.951 . S
C1115 C1114 1.340 . S
C1115 C1116 1.439 . S
C1115 H1155 0.950 . S
C1116 C1115 1.439 . S
C1116 N1117 1.374 . S
C1116 C1150 1.395 . S
N1117 C1113 1.376 . S
N1117 C1116 1.374 . S
N1117 Co1118 2.008 . S
Co1118 N1117 2.008 . S
Co1118 N1119 1.995 . S
Co1118 N1124 2.008 . S
Co1118 N1129 1.995 . S
Co1118 N1134 2.282 . S
Co1118 N1140 2.282 . S
N1119 Co1118 1.995 . S
N1119 C1120 1.376 . S
N1119 C1123 1.383 . S
C1120 N1119 1.376 . S
C1120 C1121 1.446 . S
C1120 C1150 1.391 . S
C1121 C1120 1.446 . S
C1121 C1122 1.339 . S
C1121 H1156 0.949 . S
C1122 C1121 1.339 . S
C1122 C1123 1.439 . S
C1122 H1157 0.950 . S
C1123 N1119 1.383 . S
C1123 C1122 1.439 . S
C1123 C1152 1.392 . S
N1124 Co1118 2.008 . S
N1124 C1125 1.376 . S
N1124 C1128 1.374 . S
C1125 N1124 1.376 . S
C1125 C1126 1.443 . S
C1125 C1152 1.389 . S
C1126 C1125 1.443 . S
C1126 C1127 1.340 . S
C1126 H1158 0.951 . S
C1127 C1126 1.340 . S
C1127 C1128 1.439 . S
C1127 H1159 0.950 . S
C1128 N1124 1.374 . S
C1128 C1127 1.439 . S
C1128 C1153 1.395 . S
N1129 Co1118 1.995 . S
N1129 C1130 1.376 . S
N1129 C1133 1.383 . S
C1130 N1129 1.376 . S
C1130 C1131 1.446 . S
C1130 C1153 1.391 . S
C1131 C1130 1.446 . S
C1131 C1132 1.339 . S
C1131 H1160 0.949 . S
C1132 C1131 1.339 . S
C1132 C1133 1.439 . S
C1132 H1161 0.950 . S
C1133 N1129 1.383 . S
C1133 C1132 1.439 . S
C1133 C1151 1.392 . S
N1134 Co1118 2.282 . S
N1134 C1137 1.332 . S
N1134 C1139 1.332 . S
C1135 C1136 1.386 . S
C1135 C1138 1.388 . S
C1136 C1135 1.386 . S
C1136 C1137 1.382 . S
C1136 H1162 0.950 . S
C1137 N1134 1.332 . S
C1137 C1136 1.382 . S
C1137 H1148 0.952 . S
C1138 C1135 1.388 . S
C1138 C1139 1.382 . S
C1138 H1163 0.950 . S
C1139 N1134 1.332 . S
C1139 C1138 1.382 . S
C1139 H1149 0.948 . S
N1140 Co1118 2.282 . S
N1140 C1144 1.332 . S
N1140 C1145 1.332 . S
C1141 C1142 1.388 . S
C1141 C1145 1.382 . S
C1141 H1164 0.950 . S
C1142 C1141 1.388 . S
C1142 C1143 1.386 . S
C1143 C1142 1.386 . S
C1143 C1144 1.382 . S
C1143 H1165 0.950 . S
C1144 N1140 1.332 . S
C1144 C1143 1.382 . S
C1144 H1146 0.952 . S
C1145 N1140 1.332 . S
C1145 C1141 1.382 . S
C1145 H1147 0.948 . S
H1146 C1144 0.952 . S
H1147 C1145 0.948 . S
H1148 C1137 0.952 . S
H1149 C1139 0.948 . S
C1150 C1116 1.395 . S
C1150 C1120 1.391 . S
C1151 C1113 1.389 . S
C1151 C1133 1.392 . S
C1152 C1123 1.392 . S
C1152 C1125 1.389 . S
C1153 C1128 1.395 . S
C1153 C1130 1.391 . S
H1154 C1114 0.951 . S
H1155 C1115 0.950 . S
H1156 C1121 0.949 . S
H1157 C1122 0.950 . S
H1158 C1126 0.951 . S
H1159 C1127 0.950 . S
H1160 C1131 0.949 . S
H1161 C1132 0.950 . S
H1162 C1136 0.950 . S
H1163 C1138 0.950 . S
H1164 C1141 0.950 . S
H1165 C1143 0.950 . S
C1166 C1167 1.443 . S
C1166 N1170 1.376 . S
C1166 C1204 1.389 . S
C1167 C1166 1.443 . S
C1167 C1168 1.340 . S
C1167 H1207 0.951 . S
C1168 C1167 1.340 . S
C1168 C1169 1.439 1_556 S
C1168 H1208 0.950 . S
C1169 C1168 1.439 1_554 S
C1169 N1170 1.374 1_554 S
C1169 C1203 1.395 . S
N1170 C1166 1.376 . S
N1170 C1169 1.374 1_556 S
N1170 Co1171 2.008 1_556 S
Co1171 N1170 2.008 1_554 S
Co1171 N1172 1.995 . S
Co1171 N1177 2.008 . S
Co1171 N1182 1.995 1_554 S
Co1171 N1187 2.282 . S
Co1171 N1193 2.282 1_554 S
N1172 Co1171 1.995 . S
N1172 C1173 1.376 . S
N1172 C1176 1.383 . S
C1173 N1172 1.376 . S
C1173 C1174 1.446 . S
C1173 C1203 1.391 . S
C1174 C1173 1.446 . S
C1174 C1175 1.339 . S
C1174 H1209 0.949 . S
C1175 C1174 1.339 . S
C1175 C1176 1.439 . S
C1175 H1210 0.950 . S
C1176 N1172 1.383 . S
C1176 C1175 1.439 . S
C1176 C1205 1.392 . S
N1177 Co1171 2.008 . S
N1177 C1178 1.376 . S
N1177 C1181 1.374 1_554 S
C1178 N1177 1.376 . S
C1178 C1179 1.443 . S
C1178 C1205 1.389 . S
C1179 C1178 1.443 . S
C1179 C1180 1.340 . S
C1179 H1211 0.951 . S
C1180 C1179 1.340 . S
C1180 C1181 1.439 1_554 S
C1180 H1212 0.950 . S
C1181 N1177 1.374 1_556 S
C1181 C1180 1.439 1_556 S
C1181 C1206 1.395 . S
N1182 Co1171 1.995 1_556 S
N1182 C1183 1.376 . S
N1182 C1186 1.383 . S
C1183 N1182 1.376 . S
C1183 C1184 1.446 . S
C1183 C1206 1.391 . S
C1184 C1183 1.446 . S
C1184 C1185 1.339 . S
C1184 H1213 0.949 . S
C1185 C1184 1.339 . S
C1185 C1186 1.439 . S
C1185 H1214 0.950 . S
C1186 N1182 1.383 . S
C1186 C1185 1.439 . S
C1186 C1204 1.392 . S
N1187 Co1171 2.282 . S
N1187 C1190 1.332 . S
N1187 C1192 1.332 . S
C1188 C1189 1.386 . S
C1188 C1191 1.388 . S
C1189 C1188 1.386 . S
C1189 C1190 1.382 . S
C1189 H1215 0.950 . S
C1190 N1187 1.332 . S
C1190 C1189 1.382 . S
C1190 H1201 0.952 1_554 S
C1191 C1188 1.388 . S
C1191 C1192 1.382 . S
C1191 H1216 0.950 . S
C1192 N1187 1.332 . S
C1192 C1191 1.382 . S
C1192 H1202 0.948 . S
N1193 Co1171 2.282 1_556 S
N1193 C1197 1.332 . S
N1193 C1198 1.332 . S
C1194 C1195 1.388 . S
C1194 C1198 1.382 . S
C1194 H1217 0.950 . S
C1195 C1194 1.388 . S
C1195 C1196 1.386 . S
C1196 C1195 1.386 . S
C1196 C1197 1.382 . S
C1196 H1218 0.950 . S
C1197 N1193 1.332 . S
C1197 C1196 1.382 . S
C1197 H1199 0.952 1_556 S
C1198 N1193 1.332 . S
C1198 C1194 1.382 . S
C1198 H1200 0.948 . S
H1199 C1197 0.952 1_554 S
H1200 C1198 0.948 . S
H1201 C1190 0.952 1_556 S
H1202 C1192 0.948 . S
C1203 C1169 1.395 . S
C1203 C1173 1.391 . S
C1204 C1166 1.389 . S
C1204 C1186 1.392 . S
C1205 C1176 1.392 . S
C1205 C1178 1.389 . S
C1206 C1181 1.395 . S
C1206 C1183 1.391 . S
H1207 C1167 0.951 . S
H1208 C1168 0.950 . S
H1209 C1174 0.949 . S
H1210 C1175 0.950 . S
H1211 C1179 0.951 . S
H1212 C1180 0.950 . S
H1213 C1184 0.949 . S
H1214 C1185 0.950 . S
H1215 C1189 0.950 . S
H1216 C1191 0.950 . S
H1217 C1194 0.950 . S
H1218 C1196 0.950 . S
C1219 C1220 1.443 . S
C1219 N1223 1.376 . S
C1219 C1257 1.389 . S
C1220 C1219 1.443 . S
C1220 C1221 1.340 . S
C1220 H1260 0.951 . S
C1221 C1220 1.340 . S
C1221 C1222 1.439 . S
C1221 H1261 0.950 . S
C1222 C1221 1.439 . S
C1222 N1223 1.374 . S
C1222 C1256 1.395 . S
N1223 C1219 1.376 . S
N1223 C1222 1.374 . S
N1223 Co1224 2.008 . S
Co1224 N1223 2.008 . S
Co1224 N1225 1.995 . S
Co1224 N1230 2.008 . S
Co1224 N1235 1.995 . S
Co1224 N1240 2.282 . S
Co1224 N1246 2.282 . S
N1225 Co1224 1.995 . S
N1225 C1226 1.376 . S
N1225 C1229 1.383 . S
C1226 N1225 1.376 . S
C1226 C1227 1.446 . S
C1226 C1256 1.391 . S
C1227 C1226 1.446 . S
C1227 C1228 1.339 . S
C1227 H1262 0.949 . S
C1228 C1227 1.339 . S
C1228 C1229 1.439 . S
C1228 H1263 0.950 . S
C1229 N1225 1.383 . S
C1229 C1228 1.439 . S
C1229 C1258 1.392 . S
N1230 Co1224 2.008 . S
N1230 C1231 1.376 . S
N1230 C1234 1.374 . S
C1231 N1230 1.376 . S
C1231 C1232 1.443 . S
C1231 C1258 1.389 . S
C1232 C1231 1.443 . S
C1232 C1233 1.340 . S
C1232 H1264 0.951 . S
C1233 C1232 1.340 . S
C1233 C1234 1.439 . S
C1233 H1265 0.950 . S
C1234 N1230 1.374 . S
C1234 C1233 1.439 . S
C1234 C1259 1.395 . S
N1235 Co1224 1.995 . S
N1235 C1236 1.376 . S
N1235 C1239 1.383 . S
C1236 N1235 1.376 . S
C1236 C1237 1.446 . S
C1236 C1259 1.391 . S
C1237 C1236 1.446 . S
C1237 C1238 1.339 . S
C1237 H1266 0.949 . S
C1238 C1237 1.339 . S
C1238 C1239 1.439 . S
C1238 H1267 0.950 . S
C1239 N1235 1.383 . S
C1239 C1238 1.439 . S
C1239 C1257 1.392 . S
N1240 Co1224 2.282 . S
N1240 C1243 1.332 . S
N1240 C1245 1.332 . S
C1241 C1242 1.386 . S
C1241 C1244 1.388 . S
C1242 C1241 1.386 . S
C1242 C1243 1.382 . S
C1242 H1268 0.950 . S
C1243 N1240 1.332 . S
C1243 C1242 1.382 . S
C1243 H1254 0.952 . S
C1244 C1241 1.388 . S
C1244 C1245 1.382 . S
C1244 H1269 0.950 . S
C1245 N1240 1.332 . S
C1245 C1244 1.382 . S
C1245 H1255 0.948 . S
N1246 Co1224 2.282 . S
N1246 C1250 1.332 . S
N1246 C1251 1.332 . S
C1247 C1248 1.388 . S
C1247 C1251 1.382 . S
C1247 H1270 0.950 . S
C1248 C1247 1.388 . S
C1248 C1249 1.386 . S
C1249 C1248 1.386 . S
C1249 C1250 1.382 . S
C1249 H1271 0.950 . S
C1250 N1246 1.332 . S
C1250 C1249 1.382 . S
C1250 H1252 0.952 . S
C1251 N1246 1.332 . S
C1251 C1247 1.382 . S
C1251 H1253 0.948 . S
H1252 C1250 0.952 . S
H1253 C1251 0.948 . S
H1254 C1243 0.952 . S
H1255 C1245 0.948 . S
C1256 C1222 1.395 . S
C1256 C1226 1.391 . S
C1257 C1219 1.389 . S
C1257 C1239 1.392 . S
C1258 C1229 1.392 . S
C1258 C1231 1.389 . S
C1259 C1234 1.395 . S
C1259 C1236 1.391 . S
H1260 C1220 0.951 . S
H1261 C1221 0.950 . S
H1262 C1227 0.949 . S
H1263 C1228 0.950 . S
H1264 C1232 0.951 . S
H1265 C1233 0.950 . S
H1266 C1237 0.949 . S
H1267 C1238 0.950 . S
H1268 C1242 0.950 . S
H1269 C1244 0.950 . S
H1270 C1247 0.950 . S
H1271 C1249 0.950 . S
H1272 C1280 0.950 . S
H1273 C1285 0.950 . S
H1274 C1282 0.950 . S
H1275 C1284 0.950 . S
H1276 C1286 0.950 . S
H1277 C1288 0.950 . S
H1278 C1290 0.950 . S
H1279 C1291 0.950 . S
C1280 H1272 0.950 . S
C1280 C1281 1.386 . S
C1280 C1282 1.391 . S
C1281 C1280 1.386 . S
C1281 C1285 1.393 . S
C1282 H1274 0.950 . S
C1282 C1280 1.391 . S
C1282 C1283 1.400 . S
C1283 C1282 1.400 . S
C1283 C1284 1.398 . S
C1283 C1289 1.491 . S
C1284 H1275 0.950 . S
C1284 C1283 1.398 . S
C1284 C1285 1.391 . S
C1285 H1273 0.950 . S
C1285 C1281 1.393 . S
C1285 C1284 1.391 . S
C1286 H1276 0.950 . S
C1286 C1287 1.386 . S
C1286 C1288 1.391 . S
C1287 C1286 1.386 . S
C1287 C1291 1.393 . S
C1288 H1277 0.950 . S
C1288 C1286 1.391 . S
C1288 C1289 1.400 . S
C1289 C1283 1.491 . S
C1289 C1288 1.400 . S
C1289 C1290 1.398 . S
C1290 H1278 0.950 . S
C1290 C1289 1.398 . S
C1290 C1291 1.391 . S
C1291 H1279 0.950 . S
C1291 C1287 1.393 . S
C1291 C1290 1.391 . S
H1292 C1300 0.950 . S
H1293 C1305 0.950 . S
H1294 C1302 0.950 . S
H1295 C1304 0.950 . S
H1296 C1306 0.950 . S
H1297 C1308 0.950 . S
H1298 C1310 0.950 . S
H1299 C1311 0.950 . S
C1300 H1292 0.950 . S
C1300 C1301 1.386 . S
C1300 C1302 1.391 . S
C1301 C1300 1.386 . S
C1301 C1305 1.393 . S
C1302 H1294 0.950 . S
C1302 C1300 1.391 . S
C1302 C1303 1.400 . S
C1303 C1302 1.400 . S
C1303 C1304 1.398 . S
C1303 C1309 1.491 . S
C1304 H1295 0.950 . S
C1304 C1303 1.398 . S
C1304 C1305 1.391 . S
C1305 H1293 0.950 . S
C1305 C1301 1.393 . S
C1305 C1304 1.391 . S
C1306 H1296 0.950 . S
C1306 C1307 1.386 . S
C1306 C1308 1.391 . S
C1307 C1306 1.386 . S
C1307 C1311 1.393 . S
C1308 H1297 0.950 . S
C1308 C1306 1.391 . S
C1308 C1309 1.400 . S
C1309 C1303 1.491 . S
C1309 C1308 1.400 . S
C1309 C1310 1.398 . S
C1310 H1298 0.950 . S
C1310 C1309 1.398 . S
C1310 C1311 1.391 . S
C1311 H1299 0.950 . S
C1311 C1307 1.393 . S
C1311 C1310 1.391 . S
H1312 C1320 0.950 . S
H1313 C1325 0.950 . S
H1314 C1322 0.950 . S
H1315 C1324 0.950 . S
H1316 C1326 0.950 . S
H1317 C1328 0.950 . S
H1318 C1330 0.950 . S
H1319 C1331 0.950 . S
C1320 H1312 0.950 . S
C1320 C1321 1.386 . S
C1320 C1322 1.391 . S
C1321 C1320 1.386 . S
C1321 C1325 1.393 . S
C1322 H1314 0.950 . S
C1322 C1320 1.391 . S
C1322 C1323 1.400 . S
C1323 C1322 1.400 . S
C1323 C1324 1.398 . S
C1323 C1329 1.491 . S
C1324 H1315 0.950 . S
C1324 C1323 1.398 . S
C1324 C1325 1.391 . S
C1325 H1313 0.950 . S
C1325 C1321 1.393 . S
C1325 C1324 1.391 . S
C1326 H1316 0.950 . S
C1326 C1327 1.386 . S
C1326 C1328 1.391 . S
C1327 C1326 1.386 . S
C1327 C1331 1.393 . S
C1328 H1317 0.950 . S
C1328 C1326 1.391 . S
C1328 C1329 1.400 . S
C1329 C1323 1.491 . S
C1329 C1328 1.400 . S
C1329 C1330 1.398 . S
C1330 H1318 0.950 . S
C1330 C1329 1.398 . S
C1330 C1331 1.391 . S
C1331 H1319 0.950 . S
C1331 C1327 1.393 . S
C1331 C1330 1.391 . S
H1332 C1340 0.950 . S
H1333 C1345 0.950 . S
H1334 C1342 0.950 . S
H1335 C1344 0.950 . S
H1336 C1346 0.950 . S
H1337 C1348 0.950 . S
H1338 C1350 0.950 . S
H1339 C1351 0.950 . S
C1340 H1332 0.950 . S
C1340 C1341 1.386 . S
C1340 C1342 1.391 . S
C1341 C1340 1.386 . S
C1341 C1345 1.393 . S
C1342 H1334 0.950 . S
C1342 C1340 1.391 . S
C1342 C1343 1.400 . S
C1343 C1342 1.400 . S
C1343 C1344 1.398 . S
C1343 C1349 1.491 . S
C1344 H1335 0.950 . S
C1344 C1343 1.398 . S
C1344 C1345 1.391 . S
C1345 H1333 0.950 . S
C1345 C1341 1.393 . S
C1345 C1344 1.391 . S
C1346 H1336 0.950 . S
C1346 C1347 1.386 . S
C1346 C1348 1.391 . S
C1347 C1346 1.386 . S
C1347 C1351 1.393 . S
C1348 H1337 0.950 . S
C1348 C1346 1.391 . S
C1348 C1349 1.400 . S
C1349 C1343 1.491 . S
C1349 C1348 1.400 . S
C1349 C1350 1.398 . S
C1350 H1338 0.950 . S
C1350 C1349 1.398 . S
C1350 C1351 1.391 . S
C1351 H1339 0.950 . S
C1351 C1347 1.393 . S
C1351 C1350 1.391 . S
H1352 C1360 0.950 . S
H1353 C1365 0.950 . S
H1354 C1362 0.950 . S
H1355 C1364 0.950 . S
H1356 C1366 0.950 . S
H1357 C1368 0.950 . S
H1358 C1370 0.950 . S
H1359 C1371 0.950 . S
C1360 H1352 0.950 . S
C1360 C1361 1.386 . S
C1360 C1362 1.391 . S
C1361 C1360 1.386 . S
C1361 C1365 1.393 . S
C1362 H1354 0.950 . S
C1362 C1360 1.391 . S
C1362 C1363 1.400 . S
C1363 C1362 1.400 . S
C1363 C1364 1.398 . S
C1363 C1369 1.491 . S
C1364 H1355 0.950 . S
C1364 C1363 1.398 . S
C1364 C1365 1.391 . S
C1365 H1353 0.950 . S
C1365 C1361 1.393 . S
C1365 C1364 1.391 . S
C1366 H1356 0.950 . S
C1366 C1367 1.386 . S
C1366 C1368 1.391 . S
C1367 C1366 1.386 . S
C1367 C1371 1.393 . S
C1368 H1357 0.950 . S
C1368 C1366 1.391 . S
C1368 C1369 1.400 . S
C1369 C1363 1.491 . S
C1369 C1368 1.400 . S
C1369 C1370 1.398 . S
C1370 H1358 0.950 . S
C1370 C1369 1.398 . S
C1370 C1371 1.391 . S
C1371 H1359 0.950 . S
C1371 C1367 1.393 . S
C1371 C1370 1.391 . S
H1372 C1380 0.950 . S
H1373 C1385 0.950 . S
H1374 C1382 0.950 . S
H1375 C1384 0.950 . S
H1376 C1386 0.950 . S
H1377 C1388 0.950 . S
H1378 C1390 0.950 . S
H1379 C1391 0.950 . S
C1380 H1372 0.950 . S
C1380 C1381 1.386 . S
C1380 C1382 1.391 . S
C1381 C1380 1.386 . S
C1381 C1385 1.393 . S
C1382 H1374 0.950 . S
C1382 C1380 1.391 . S
C1382 C1383 1.400 . S
C1383 C1382 1.400 . S
C1383 C1384 1.398 . S
C1383 C1389 1.491 . S
C1384 H1375 0.950 . S
C1384 C1383 1.398 . S
C1384 C1385 1.391 . S
C1385 H1373 0.950 . S
C1385 C1381 1.393 . S
C1385 C1384 1.391 . S
C1386 H1376 0.950 . S
C1386 C1387 1.386 . S
C1386 C1388 1.391 . S
C1387 C1386 1.386 . S
C1387 C1391 1.393 . S
C1388 H1377 0.950 . S
C1388 C1386 1.391 . S
C1388 C1389 1.400 . S
C1389 C1383 1.491 . S
C1389 C1388 1.400 . S
C1389 C1390 1.398 . S
C1390 H1378 0.950 . S
C1390 C1389 1.398 . S
C1390 C1391 1.391 . S
C1391 H1379 0.950 . S
C1391 C1387 1.393 . S
C1391 C1390 1.391 . S
H1392 C1400 0.950 . S
H1393 C1405 0.950 . S
H1394 C1402 0.950 . S
H1395 C1404 0.950 . S
H1396 C1406 0.950 . S
H1397 C1408 0.950 . S
H1398 C1410 0.950 . S
H1399 C1411 0.950 . S
C1400 H1392 0.950 . S
C1400 C1401 1.386 . S
C1400 C1402 1.391 . S
C1401 C1400 1.386 . S
C1401 C1405 1.393 . S
C1402 H1394 0.950 . S
C1402 C1400 1.391 . S
C1402 C1403 1.400 . S
C1403 C1402 1.400 . S
C1403 C1404 1.398 . S
C1403 C1409 1.491 . S
C1404 H1395 0.950 . S
C1404 C1403 1.398 . S
C1404 C1405 1.391 . S
C1405 H1393 0.950 . S
C1405 C1401 1.393 . S
C1405 C1404 1.391 . S
C1406 H1396 0.950 . S
C1406 C1407 1.386 . S
C1406 C1408 1.391 . S
C1407 C1406 1.386 . S
C1407 C1411 1.393 . S
C1408 H1397 0.950 . S
C1408 C1406 1.391 . S
C1408 C1409 1.400 . S
C1409 C1403 1.491 . S
C1409 C1408 1.400 . S
C1409 C1410 1.398 . S
C1410 H1398 0.950 . S
C1410 C1409 1.398 . S
C1410 C1411 1.391 . S
C1411 H1399 0.950 . S
C1411 C1407 1.393 . S
C1411 C1410 1.391 . S
H1412 C1420 0.950 . S
H1413 C1425 0.950 . S
H1414 C1422 0.950 . S
H1415 C1424 0.950 . S
H1416 C1426 0.950 . S
H1417 C1428 0.950 . S
H1418 C1430 0.950 . S
H1419 C1431 0.950 . S
C1420 H1412 0.950 . S
C1420 C1421 1.386 . S
C1420 C1422 1.391 . S
C1421 C1420 1.386 . S
C1421 C1425 1.393 . S
C1422 H1414 0.950 . S
C1422 C1420 1.391 . S
C1422 C1423 1.400 . S
C1423 C1422 1.400 . S
C1423 C1424 1.398 . S
C1423 C1429 1.491 . S
C1424 H1415 0.950 . S
C1424 C1423 1.398 . S
C1424 C1425 1.391 . S
C1425 H1413 0.950 . S
C1425 C1421 1.393 . S
C1425 C1424 1.391 . S
C1426 H1416 0.950 . S
C1426 C1427 1.386 . S
C1426 C1428 1.391 . S
C1427 C1426 1.386 . S
C1427 C1431 1.393 . S
C1428 H1417 0.950 . S
C1428 C1426 1.391 . S
C1428 C1429 1.400 . S
C1429 C1423 1.491 . S
C1429 C1428 1.400 . S
C1429 C1430 1.398 . S
C1430 H1418 0.950 . S
C1430 C1429 1.398 . S
C1430 C1431 1.391 . S
C1431 H1419 0.950 . S
C1431 C1427 1.393 . S
C1431 C1430 1.391 . S
H1432 C1440 0.950 . S
H1433 C1445 0.950 . S
H1434 C1442 0.950 . S
H1435 C1444 0.950 . S
H1436 C1446 0.950 . S
H1437 C1448 0.950 . S
H1438 C1450 0.950 . S
H1439 C1451 0.950 . S
C1440 H1432 0.950 . S
C1440 C1441 1.386 . S
C1440 C1442 1.391 . S
C1441 C1440 1.386 . S
C1441 C1445 1.393 . S
C1442 H1434 0.950 . S
C1442 C1440 1.391 . S
C1442 C1443 1.400 . S
C1443 C1442 1.400 . S
C1443 C1444 1.398 . S
C1443 C1449 1.491 . S
C1444 H1435 0.950 . S
C1444 C1443 1.398 . S
C1444 C1445 1.391 . S
C1445 H1433 0.950 . S
C1445 C1441 1.393 . S
C1445 C1444 1.391 . S
C1446 H1436 0.950 . S
C1446 C1447 1.386 . S
C1446 C1448 1.391 . S
C1447 C1446 1.386 . S
C1447 C1451 1.393 . S
C1448 H1437 0.950 . S
C1448 C1446 1.391 . S
C1448 C1449 1.400 . S
C1449 C1443 1.491 . S
C1449 C1448 1.400 . S
C1449 C1450 1.398 . S
C1450 H1438 0.950 . S
C1450 C1449 1.398 . S
C1450 C1451 1.391 . S
C1451 H1439 0.950 . S
C1451 C1447 1.393 . S
C1451 C1450 1.391 . S
H1452 C1460 0.950 . S
H1453 C1465 0.950 . S
H1454 C1462 0.950 . S
H1455 C1464 0.950 . S
H1456 C1466 0.950 . S
H1457 C1468 0.950 . S
H1458 C1470 0.950 . S
H1459 C1471 0.950 . S
C1460 H1452 0.950 . S
C1460 C1461 1.386 . S
C1460 C1462 1.391 . S
C1461 C1460 1.386 . S
C1461 C1465 1.393 . S
C1462 H1454 0.950 . S
C1462 C1460 1.391 . S
C1462 C1463 1.400 . S
C1463 C1462 1.400 . S
C1463 C1464 1.398 . S
C1463 C1469 1.491 . S
C1464 H1455 0.950 . S
C1464 C1463 1.398 . S
C1464 C1465 1.391 . S
C1465 H1453 0.950 . S
C1465 C1461 1.393 . S
C1465 C1464 1.391 . S
C1466 H1456 0.950 . S
C1466 C1467 1.386 . S
C1466 C1468 1.391 . S
C1467 C1466 1.386 . S
C1467 C1471 1.393 . S
C1468 H1457 0.950 . S
C1468 C1466 1.391 . S
C1468 C1469 1.400 . S
C1469 C1463 1.491 . S
C1469 C1468 1.400 . S
C1469 C1470 1.398 . S
C1470 H1458 0.950 . S
C1470 C1469 1.398 . S
C1470 C1471 1.391 . S
C1471 H1459 0.950 . S
C1471 C1467 1.393 . S
C1471 C1470 1.391 . S
H1472 C1480 0.950 . S
H1473 C1485 0.950 . S
H1474 C1482 0.950 . S
H1475 C1484 0.950 . S
H1476 C1486 0.950 . S
H1477 C1488 0.950 . S
H1478 C1490 0.950 . S
H1479 C1491 0.950 . S
C1480 H1472 0.950 . S
C1480 C1481 1.386 . S
C1480 C1482 1.391 . S
C1481 C1480 1.386 . S
C1481 C1485 1.393 . S
C1482 H1474 0.950 . S
C1482 C1480 1.391 . S
C1482 C1483 1.400 . S
C1483 C1482 1.400 . S
C1483 C1484 1.398 . S
C1483 C1489 1.491 . S
C1484 H1475 0.950 . S
C1484 C1483 1.398 . S
C1484 C1485 1.391 . S
C1485 H1473 0.950 . S
C1485 C1481 1.393 . S
C1485 C1484 1.391 . S
C1486 H1476 0.950 . S
C1486 C1487 1.386 . S
C1486 C1488 1.391 . S
C1487 C1486 1.386 . S
C1487 C1491 1.393 . S
C1488 H1477 0.950 . S
C1488 C1486 1.391 . S
C1488 C1489 1.400 . S
C1489 C1483 1.491 . S
C1489 C1488 1.400 . S
C1489 C1490 1.398 . S
C1490 H1478 0.950 . S
C1490 C1489 1.398 . S
C1490 C1491 1.391 . S
C1491 H1479 0.950 . S
C1491 C1487 1.393 . S
C1491 C1490 1.391 . S
H1492 C1500 0.950 . S
H1493 C1505 0.950 . S
H1494 C1502 0.950 . S
H1495 C1504 0.950 . S
H1496 C1506 0.950 . S
H1497 C1508 0.950 . S
H1498 C1510 0.950 . S
H1499 C1511 0.950 . S
C1500 H1492 0.950 . S
C1500 C1501 1.386 . S
C1500 C1502 1.391 . S
C1501 C1500 1.386 . S
C1501 C1505 1.393 . S
C1502 H1494 0.950 . S
C1502 C1500 1.391 . S
C1502 C1503 1.400 . S
C1503 C1502 1.400 . S
C1503 C1504 1.398 . S
C1503 C1509 1.491 . S
C1504 H1495 0.950 . S
C1504 C1503 1.398 . S
C1504 C1505 1.391 . S
C1505 H1493 0.950 . S
C1505 C1501 1.393 . S
C1505 C1504 1.391 . S
C1506 H1496 0.950 . S
C1506 C1507 1.386 . S
C1506 C1508 1.391 . S
C1507 C1506 1.386 . S
C1507 C1511 1.393 . S
C1508 H1497 0.950 . S
C1508 C1506 1.391 . S
C1508 C1509 1.400 . S
C1509 C1503 1.491 . S
C1509 C1508 1.400 . S
C1509 C1510 1.398 . S
C1510 H1498 0.950 . S
C1510 C1509 1.398 . S
C1510 C1511 1.391 . S
C1511 H1499 0.950 . S
C1511 C1507 1.393 . S
C1511 C1510 1.391 . S
H1512 C1520 0.950 . S
H1513 C1525 0.950 . S
H1514 C1522 0.950 . S
H1515 C1524 0.950 . S
H1516 C1526 0.950 . S
H1517 C1528 0.950 . S
H1518 C1530 0.950 . S
H1519 C1531 0.950 . S
C1520 H1512 0.950 . S
C1520 C1521 1.386 . S
C1520 C1522 1.391 . S
C1521 C1520 1.386 . S
C1521 C1525 1.393 . S
C1522 H1514 0.950 . S
C1522 C1520 1.391 . S
C1522 C1523 1.400 . S
C1523 C1522 1.400 . S
C1523 C1524 1.398 . S
C1523 C1529 1.491 . S
C1524 H1515 0.950 . S
C1524 C1523 1.398 . S
C1524 C1525 1.391 . S
C1525 H1513 0.950 . S
C1525 C1521 1.393 . S
C1525 C1524 1.391 . S
C1526 H1516 0.950 . S
C1526 C1527 1.386 . S
C1526 C1528 1.391 . S
C1527 C1526 1.386 . S
C1527 C1531 1.393 . S
C1528 H1517 0.950 . S
C1528 C1526 1.391 . S
C1528 C1529 1.400 . S
C1529 C1523 1.491 . S
C1529 C1528 1.400 . S
C1529 C1530 1.398 . S
C1530 H1518 0.950 . S
C1530 C1529 1.398 . S
C1530 C1531 1.391 . S
C1531 H1519 0.950 . S
C1531 C1527 1.393 . S
C1531 C1530 1.391 . S
H1532 C1540 0.950 . S
H1533 C1545 0.950 . S
H1534 C1542 0.950 . S
H1535 C1544 0.950 . S
H1536 C1546 0.950 . S
H1537 C1548 0.950 . S
H1538 C1550 0.950 . S
H1539 C1551 0.950 . S
C1540 H1532 0.950 . S
C1540 C1541 1.386 . S
C1540 C1542 1.391 . S
C1541 C1540 1.386 . S
C1541 C1545 1.393 . S
C1542 H1534 0.950 . S
C1542 C1540 1.391 . S
C1542 C1543 1.400 . S
C1543 C1542 1.400 . S
C1543 C1544 1.398 . S
C1543 C1549 1.491 . S
C1544 H1535 0.950 . S
C1544 C1543 1.398 . S
C1544 C1545 1.391 . S
C1545 H1533 0.950 . S
C1545 C1541 1.393 . S
C1545 C1544 1.391 . S
C1546 H1536 0.950 . S
C1546 C1547 1.386 . S
C1546 C1548 1.391 . S
C1547 C1546 1.386 . S
C1547 C1551 1.393 . S
C1548 H1537 0.950 . S
C1548 C1546 1.391 . S
C1548 C1549 1.400 . S
C1549 C1543 1.491 . S
C1549 C1548 1.400 . S
C1549 C1550 1.398 . S
C1550 H1538 0.950 . S
C1550 C1549 1.398 . S
C1550 C1551 1.391 . S
C1551 H1539 0.950 . S
C1551 C1547 1.393 . S
C1551 C1550 1.391 . S
H1552 C1560 0.950 . S
H1553 C1565 0.950 . S
H1554 C1562 0.950 . S
H1555 C1564 0.950 . S
H1556 C1566 0.950 . S
H1557 C1568 0.950 . S
H1558 C1570 0.950 . S
H1559 C1571 0.950 . S
C1560 H1552 0.950 . S
C1560 C1561 1.386 . S
C1560 C1562 1.391 . S
C1561 C1560 1.386 . S
C1561 C1565 1.393 . S
C1562 H1554 0.950 . S
C1562 C1560 1.391 . S
C1562 C1563 1.400 . S
C1563 C1562 1.400 . S
C1563 C1564 1.398 . S
C1563 C1569 1.491 . S
C1564 H1555 0.950 . S
C1564 C1563 1.398 . S
C1564 C1565 1.391 . S
C1565 H1553 0.950 . S
C1565 C1561 1.393 . S
C1565 C1564 1.391 . S
C1566 H1556 0.950 . S
C1566 C1567 1.386 . S
C1566 C1568 1.391 . S
C1567 C1566 1.386 . S
C1567 C1571 1.393 . S
C1568 H1557 0.950 . S
C1568 C1566 1.391 . S
C1568 C1569 1.400 . S
C1569 C1563 1.491 . S
C1569 C1568 1.400 . S
C1569 C1570 1.398 . S
C1570 H1558 0.950 . S
C1570 C1569 1.398 . S
C1570 C1571 1.391 . S
C1571 H1559 0.950 . S
C1571 C1567 1.393 . S
C1571 C1570 1.391 . S
H1572 C1580 0.950 . S
H1573 C1585 0.950 . S
H1574 C1582 0.950 . S
H1575 C1584 0.950 . S
H1576 C1586 0.950 . S
H1577 C1588 0.950 . S
H1578 C1590 0.950 . S
H1579 C1591 0.950 . S
C1580 H1572 0.950 . S
C1580 C1581 1.386 . S
C1580 C1582 1.391 . S
C1581 C1580 1.386 . S
C1581 C1585 1.393 . S
C1582 H1574 0.950 . S
C1582 C1580 1.391 . S
C1582 C1583 1.400 . S
C1583 C1582 1.400 . S
C1583 C1584 1.398 . S
C1583 C1589 1.491 . S
C1584 H1575 0.950 . S
C1584 C1583 1.398 . S
C1584 C1585 1.391 . S
C1585 H1573 0.950 . S
C1585 C1581 1.393 . S
C1585 C1584 1.391 . S
C1586 H1576 0.950 . S
C1586 C1587 1.386 . S
C1586 C1588 1.391 . S
C1587 C1586 1.386 . S
C1587 C1591 1.393 . S
C1588 H1577 0.950 . S
C1588 C1586 1.391 . S
C1588 C1589 1.400 . S
C1589 C1583 1.491 . S
C1589 C1588 1.400 . S
C1589 C1590 1.398 . S
C1590 H1578 0.950 . S
C1590 C1589 1.398 . S
C1590 C1591 1.391 . S
C1591 H1579 0.950 . S
C1591 C1587 1.393 . S
C1591 C1590 1.391 . S
H1592 C1600 0.950 . S
H1593 C1605 0.950 . S
H1594 C1602 0.950 . S
H1595 C1604 0.950 . S
H1596 C1606 0.950 . S
H1597 C1608 0.950 . S
H1598 C1610 0.950 . S
H1599 C1611 0.950 . S
C1600 H1592 0.950 . S
C1600 C1601 1.386 . S
C1600 C1602 1.391 . S
C1601 C1600 1.386 . S
C1601 C1605 1.393 . S
C1602 H1594 0.950 . S
C1602 C1600 1.391 . S
C1602 C1603 1.400 . S
C1603 C1602 1.400 . S
C1603 C1604 1.398 . S
C1603 C1609 1.491 . S
C1604 H1595 0.950 . S
C1604 C1603 1.398 . S
C1604 C1605 1.391 . S
C1605 H1593 0.950 . S
C1605 C1601 1.393 . S
C1605 C1604 1.391 . S
C1606 H1596 0.950 . S
C1606 C1607 1.386 . S
C1606 C1608 1.391 . S
C1607 C1606 1.386 . S
C1607 C1611 1.393 . S
C1608 H1597 0.950 . S
C1608 C1606 1.391 . S
C1608 C1609 1.400 . S
C1609 C1603 1.491 . S
C1609 C1608 1.400 . S
C1609 C1610 1.398 . S
C1610 H1598 0.950 . S
C1610 C1609 1.398 . S
C1610 C1611 1.391 . S
C1611 H1599 0.950 . S
C1611 C1607 1.393 . S
C1611 C1610 1.391 . S
H1612 C1620 0.950 . S
H1613 C1625 0.950 . S
H1614 C1622 0.950 . S
H1615 C1624 0.950 . S
H1616 C1626 0.950 . S
H1617 C1628 0.950 . S
H1618 C1630 0.950 . S
H1619 C1631 0.950 . S
C1620 H1612 0.950 . S
C1620 C1621 1.386 . S
C1620 C1622 1.391 . S
C1621 C1620 1.386 . S
C1621 C1625 1.393 . S
C1622 H1614 0.950 . S
C1622 C1620 1.391 . S
C1622 C1623 1.400 . S
C1623 C1622 1.400 . S
C1623 C1624 1.398 . S
C1623 C1629 1.491 . S
C1624 H1615 0.950 . S
C1624 C1623 1.398 . S
C1624 C1625 1.391 . S
C1625 H1613 0.950 . S
C1625 C1621 1.393 . S
C1625 C1624 1.391 . S
C1626 H1616 0.950 . S
C1626 C1627 1.386 . S
C1626 C1628 1.391 . S
C1627 C1626 1.386 . S
C1627 C1631 1.393 . S
C1628 H1617 0.950 . S
C1628 C1626 1.391 . S
C1628 C1629 1.400 . S
C1629 C1623 1.491 . S
C1629 C1628 1.400 . S
C1629 C1630 1.398 . S
C1630 H1618 0.950 . S
C1630 C1629 1.398 . S
C1630 C1631 1.391 . S
C1631 H1619 0.950 . S
C1631 C1627 1.393 . S
C1631 C1630 1.391 . S
H1632 C1640 0.950 . S
H1633 C1645 0.950 . S
H1634 C1642 0.950 . S
H1635 C1644 0.950 . S
H1636 C1646 0.950 . S
H1637 C1648 0.950 . S
H1638 C1650 0.950 . S
H1639 C1651 0.950 . S
C1640 H1632 0.950 . S
C1640 C1641 1.386 . S
C1640 C1642 1.391 . S
C1641 C1640 1.386 . S
C1641 C1645 1.393 . S
C1642 H1634 0.950 . S
C1642 C1640 1.391 . S
C1642 C1643 1.400 . S
C1643 C1642 1.400 . S
C1643 C1644 1.398 . S
C1643 C1649 1.491 . S
C1644 H1635 0.950 . S
C1644 C1643 1.398 . S
C1644 C1645 1.391 . S
C1645 H1633 0.950 . S
C1645 C1641 1.393 . S
C1645 C1644 1.391 . S
C1646 H1636 0.950 . S
C1646 C1647 1.386 . S
C1646 C1648 1.391 . S
C1647 C1646 1.386 . S
C1647 C1651 1.393 . S
C1648 H1637 0.950 . S
C1648 C1646 1.391 . S
C1648 C1649 1.400 . S
C1649 C1643 1.491 . S
C1649 C1648 1.400 . S
C1649 C1650 1.398 . S
C1650 H1638 0.950 . S
C1650 C1649 1.398 . S
C1650 C1651 1.391 . S
C1651 H1639 0.950 . S
C1651 C1647 1.393 . S
C1651 C1650 1.391 . S
H1652 C1660 0.950 . S
H1653 C1665 0.950 . S
H1654 C1662 0.950 . S
H1655 C1664 0.950 . S
H1656 C1666 0.950 . S
H1657 C1668 0.950 . S
H1658 C1670 0.950 . S
H1659 C1671 0.950 . S
C1660 H1652 0.950 . S
C1660 C1661 1.386 . S
C1660 C1662 1.391 . S
C1661 C1660 1.386 . S
C1661 C1665 1.393 . S
C1662 H1654 0.950 . S
C1662 C1660 1.391 . S
C1662 C1663 1.400 . S
C1663 C1662 1.400 . S
C1663 C1664 1.398 . S
C1663 C1669 1.491 . S
C1664 H1655 0.950 . S
C1664 C1663 1.398 . S
C1664 C1665 1.391 . S
C1665 H1653 0.950 . S
C1665 C1661 1.393 . S
C1665 C1664 1.391 . S
C1666 H1656 0.950 . S
C1666 C1667 1.386 . S
C1666 C1668 1.391 . S
C1667 C1666 1.386 . S
C1667 C1671 1.393 . S
C1668 H1657 0.950 . S
C1668 C1666 1.391 . S
C1668 C1669 1.400 . S
C1669 C1663 1.491 . S
C1669 C1668 1.400 . S
C1669 C1670 1.398 . S
C1670 H1658 0.950 . S
C1670 C1669 1.398 . S
C1670 C1671 1.391 . S
C1671 H1659 0.950 . S
C1671 C1667 1.393 . S
C1671 C1670 1.391 . S
H1672 C1680 0.950 . S
H1673 C1685 0.950 . S
H1674 C1682 0.950 . S
H1675 C1684 0.950 . S
H1676 C1686 0.950 . S
H1677 C1688 0.950 . S
H1678 C1690 0.950 . S
H1679 C1691 0.950 . S
C1680 H1672 0.950 . S
C1680 C1681 1.386 . S
C1680 C1682 1.391 . S
C1681 C1680 1.386 . S
C1681 C1685 1.393 . S
C1682 H1674 0.950 . S
C1682 C1680 1.391 . S
C1682 C1683 1.400 . S
C1683 C1682 1.400 . S
C1683 C1684 1.398 . S
C1683 C1689 1.491 . S
C1684 H1675 0.950 . S
C1684 C1683 1.398 . S
C1684 C1685 1.391 . S
C1685 H1673 0.950 . S
C1685 C1681 1.393 . S
C1685 C1684 1.391 . S
C1686 H1676 0.950 . S
C1686 C1687 1.386 . S
C1686 C1688 1.391 . S
C1687 C1686 1.386 . S
C1687 C1691 1.393 . S
C1688 H1677 0.950 . S
C1688 C1686 1.391 . S
C1688 C1689 1.400 . S
C1689 C1683 1.491 . S
C1689 C1688 1.400 . S
C1689 C1690 1.398 . S
C1690 H1678 0.950 . S
C1690 C1689 1.398 . S
C1690 C1691 1.391 . S
C1691 H1679 0.950 . S
C1691 C1687 1.393 . S
C1691 C1690 1.391 . S
H1692 C1700 0.950 . S
H1693 C1705 0.950 . S
H1694 C1702 0.950 . S
H1695 C1704 0.950 . S
H1696 C1706 0.950 . S
H1697 C1708 0.950 . S
H1698 C1710 0.950 . S
H1699 C1711 0.950 . S
C1700 H1692 0.950 . S
C1700 C1701 1.386 . S
C1700 C1702 1.391 . S
C1701 C1700 1.386 . S
C1701 C1705 1.393 . S
C1702 H1694 0.950 . S
C1702 C1700 1.391 . S
C1702 C1703 1.400 . S
C1703 C1702 1.400 . S
C1703 C1704 1.398 . S
C1703 C1709 1.491 . S
C1704 H1695 0.950 . S
C1704 C1703 1.398 . S
C1704 C1705 1.391 . S
C1705 H1693 0.950 . S
C1705 C1701 1.393 . S
C1705 C1704 1.391 . S
C1706 H1696 0.950 . S
C1706 C1707 1.386 . S
C1706 C1708 1.391 . S
C1707 C1706 1.386 . S
C1707 C1711 1.393 . S
C1708 H1697 0.950 . S
C1708 C1706 1.391 . S
C1708 C1709 1.400 . S
C1709 C1703 1.491 . S
C1709 C1708 1.400 . S
C1709 C1710 1.398 . S
C1710 H1698 0.950 . S
C1710 C1709 1.398 . S
C1710 C1711 1.391 . S
C1711 H1699 0.950 . S
C1711 C1707 1.393 . S
C1711 C1710 1.391 . S
H1712 C1720 0.950 1_554 S
H1713 C1725 0.950 . S
H1714 C1722 0.950 . S
H1715 C1724 0.950 . S
H1716 C1726 0.950 . S
H1717 C1728 0.950 . S
H1718 C1730 0.950 . S
H1719 C1731 0.950 . S
C1720 H1712 0.950 1_556 S
C1720 C1721 1.386 . S
C1720 C1722 1.391 . S
C1721 C1720 1.386 . S
C1721 C1725 1.393 . S
C1722 H1714 0.950 . S
C1722 C1720 1.391 . S
C1722 C1723 1.400 . S
C1723 C1722 1.400 . S
C1723 C1724 1.398 . S
C1723 C1729 1.491 . S
C1724 H1715 0.950 . S
C1724 C1723 1.398 . S
C1724 C1725 1.391 . S
C1725 H1713 0.950 . S
C1725 C1721 1.393 . S
C1725 C1724 1.391 . S
C1726 H1716 0.950 . S
C1726 C1727 1.386 . S
C1726 C1728 1.391 . S
C1727 C1726 1.386 . S
C1727 C1731 1.393 . S
C1728 H1717 0.950 . S
C1728 C1726 1.391 . S
C1728 C1729 1.400 . S
C1729 C1723 1.491 . S
C1729 C1728 1.400 . S
C1729 C1730 1.398 . S
C1730 H1718 0.950 . S
C1730 C1729 1.398 . S
C1730 C1731 1.391 . S
C1731 H1719 0.950 . S
C1731 C1727 1.393 . S
C1731 C1730 1.391 . S
H1732 C1740 0.950 . S
H1733 C1745 0.950 . S
H1734 C1742 0.950 . S
H1735 C1744 0.950 . S
H1736 C1746 0.950 . S
H1737 C1748 0.950 . S
H1738 C1750 0.950 . S
H1739 C1751 0.950 . S
C1740 H1732 0.950 . S
C1740 C1741 1.386 . S
C1740 C1742 1.391 . S
C1741 C1740 1.386 . S
C1741 C1745 1.393 . S
C1742 H1734 0.950 . S
C1742 C1740 1.391 . S
C1742 C1743 1.400 . S
C1743 C1742 1.400 . S
C1743 C1744 1.398 . S
C1743 C1749 1.491 . S
C1744 H1735 0.950 . S
C1744 C1743 1.398 . S
C1744 C1745 1.391 . S
C1745 H1733 0.950 . S
C1745 C1741 1.393 . S
C1745 C1744 1.391 . S
C1746 H1736 0.950 . S
C1746 C1747 1.386 . S
C1746 C1748 1.391 . S
C1747 C1746 1.386 . S
C1747 C1751 1.393 . S
C1748 H1737 0.950 . S
C1748 C1746 1.391 . S
C1748 C1749 1.400 . S
C1749 C1743 1.491 . S
C1749 C1748 1.400 . S
C1749 C1750 1.398 . S
C1750 H1738 0.950 . S
C1750 C1749 1.398 . S
C1750 C1751 1.391 . S
C1751 H1739 0.950 . S
C1751 C1747 1.393 . S
C1751 C1750 1.391 . S
H1752 C1760 0.950 . S
H1753 C1765 0.950 . S
H1754 C1762 0.950 . S
H1755 C1764 0.950 . S
H1756 C1766 0.950 . S
H1757 C1768 0.950 . S
H1758 C1770 0.950 . S
H1759 C1771 0.950 . S
C1760 H1752 0.950 . S
C1760 C1761 1.386 . S
C1760 C1762 1.391 . S
C1761 C1760 1.386 . S
C1761 C1765 1.393 . S
C1762 H1754 0.950 . S
C1762 C1760 1.391 . S
C1762 C1763 1.400 . S
C1763 C1762 1.400 . S
C1763 C1764 1.398 . S
C1763 C1769 1.491 . S
C1764 H1755 0.950 . S
C1764 C1763 1.398 . S
C1764 C1765 1.391 . S
C1765 H1753 0.950 . S
C1765 C1761 1.393 . S
C1765 C1764 1.391 . S
C1766 H1756 0.950 . S
C1766 C1767 1.386 . S
C1766 C1768 1.391 . S
C1767 C1766 1.386 . S
C1767 C1771 1.393 . S
C1768 H1757 0.950 . S
C1768 C1766 1.391 . S
C1768 C1769 1.400 . S
C1769 C1763 1.491 . S
C1769 C1768 1.400 . S
C1769 C1770 1.398 . S
C1770 H1758 0.950 . S
C1770 C1769 1.398 . S
C1770 C1771 1.391 . S
C1771 H1759 0.950 . S
C1771 C1767 1.393 . S
C1771 C1770 1.391 . S
H1772 C1780 0.950 . S
H1773 C1785 0.950 . S
H1774 C1782 0.950 . S
H1775 C1784 0.950 . S
H1776 C1786 0.950 . S
H1777 C1788 0.950 . S
H1778 C1790 0.950 . S
H1779 C1791 0.950 . S
C1780 H1772 0.950 . S
C1780 C1781 1.386 . S
C1780 C1782 1.391 . S
C1781 C1780 1.386 . S
C1781 C1785 1.393 . S
C1782 H1774 0.950 . S
C1782 C1780 1.391 . S
C1782 C1783 1.400 . S
C1783 C1782 1.400 . S
C1783 C1784 1.398 . S
C1783 C1789 1.491 . S
C1784 H1775 0.950 . S
C1784 C1783 1.398 . S
C1784 C1785 1.391 . S
C1785 H1773 0.950 . S
C1785 C1781 1.393 . S
C1785 C1784 1.391 . S
C1786 H1776 0.950 . S
C1786 C1787 1.386 . S
C1786 C1788 1.391 . S
C1787 C1786 1.386 . S
C1787 C1791 1.393 . S
C1788 H1777 0.950 . S
C1788 C1786 1.391 . S
C1788 C1789 1.400 . S
C1789 C1783 1.491 . S
C1789 C1788 1.400 . S
C1789 C1790 1.398 . S
C1790 H1778 0.950 . S
C1790 C1789 1.398 . S
C1790 C1791 1.391 . S
C1791 H1779 0.950 . S
C1791 C1787 1.393 . S
C1791 C1790 1.391 . S
H1792 C1800 0.950 . S
H1793 C1805 0.950 . S
H1794 C1802 0.950 . S
H1795 C1804 0.950 . S
H1796 C1806 0.950 . S
H1797 C1808 0.950 . S
H1798 C1810 0.950 . S
H1799 C1811 0.950 . S
C1800 H1792 0.950 . S
C1800 C1801 1.386 . S
C1800 C1802 1.391 . S
C1801 C1800 1.386 . S
C1801 C1805 1.393 . S
C1802 H1794 0.950 . S
C1802 C1800 1.391 . S
C1802 C1803 1.400 . S
C1803 C1802 1.400 . S
C1803 C1804 1.398 . S
C1803 C1809 1.491 . S
C1804 H1795 0.950 . S
C1804 C1803 1.398 . S
C1804 C1805 1.391 . S
C1805 H1793 0.950 . S
C1805 C1801 1.393 . S
C1805 C1804 1.391 . S
C1806 H1796 0.950 . S
C1806 C1807 1.386 . S
C1806 C1808 1.391 . S
C1807 C1806 1.386 . S
C1807 C1811 1.393 . S
C1808 H1797 0.950 . S
C1808 C1806 1.391 . S
C1808 C1809 1.400 . S
C1809 C1803 1.491 . S
C1809 C1808 1.400 . S
C1809 C1810 1.398 . S
C1810 H1798 0.950 . S
C1810 C1809 1.398 . S
C1810 C1811 1.391 . S
C1811 H1799 0.950 . S
C1811 C1807 1.393 . S
C1811 C1810 1.391 . S
H1812 C1820 0.950 . S
H1813 C1825 0.950 . S
H1814 C1822 0.950 . S
H1815 C1824 0.950 . S
H1816 C1826 0.950 . S
H1817 C1828 0.950 . S
H1818 C1830 0.950 . S
H1819 C1831 0.950 . S
C1820 H1812 0.950 . S
C1820 C1821 1.386 . S
C1820 C1822 1.391 . S
C1821 C1820 1.386 . S
C1821 C1825 1.393 . S
C1822 H1814 0.950 . S
C1822 C1820 1.391 . S
C1822 C1823 1.400 . S
C1823 C1822 1.400 . S
C1823 C1824 1.398 . S
C1823 C1829 1.491 . S
C1824 H1815 0.950 . S
C1824 C1823 1.398 . S
C1824 C1825 1.391 . S
C1825 H1813 0.950 . S
C1825 C1821 1.393 . S
C1825 C1824 1.391 . S
C1826 H1816 0.950 . S
C1826 C1827 1.386 . S
C1826 C1828 1.391 . S
C1827 C1826 1.386 . S
C1827 C1831 1.393 . S
C1828 H1817 0.950 . S
C1828 C1826 1.391 . S
C1828 C1829 1.400 . S
C1829 C1823 1.491 . S
C1829 C1828 1.400 . S
C1829 C1830 1.398 . S
C1830 H1818 0.950 . S
C1830 C1829 1.398 . S
C1830 C1831 1.391 . S
C1831 H1819 0.950 . S
C1831 C1827 1.393 . S
C1831 C1830 1.391 . S
H1832 C1840 0.950 . S
H1833 C1845 0.950 . S
H1834 C1842 0.950 . S
H1835 C1844 0.950 . S
H1836 C1846 0.950 . S
H1837 C1848 0.950 . S
H1838 C1850 0.950 . S
H1839 C1851 0.950 . S
C1840 H1832 0.950 . S
C1840 C1841 1.386 . S
C1840 C1842 1.391 . S
C1841 C1840 1.386 . S
C1841 C1845 1.393 . S
C1842 H1834 0.950 . S
C1842 C1840 1.391 . S
C1842 C1843 1.400 . S
C1843 C1842 1.400 . S
C1843 C1844 1.398 . S
C1843 C1849 1.491 . S
C1844 H1835 0.950 . S
C1844 C1843 1.398 . S
C1844 C1845 1.391 . S
C1845 H1833 0.950 . S
C1845 C1841 1.393 . S
C1845 C1844 1.391 . S
C1846 H1836 0.950 . S
C1846 C1847 1.386 . S
C1846 C1848 1.391 . S
C1847 C1846 1.386 . S
C1847 C1851 1.393 . S
C1848 H1837 0.950 . S
C1848 C1846 1.391 . S
C1848 C1849 1.400 . S
C1849 C1843 1.491 . S
C1849 C1848 1.400 . S
C1849 C1850 1.398 . S
C1850 H1838 0.950 . S
C1850 C1849 1.398 . S
C1850 C1851 1.391 . S
C1851 H1839 0.950 . S
C1851 C1847 1.393 . S
C1851 C1850 1.391 . S
H1852 C1860 0.950 . S
H1853 C1865 0.950 . S
H1854 C1862 0.950 . S
H1855 C1864 0.950 . S
H1856 C1866 0.950 . S
H1857 C1868 0.950 . S
H1858 C1870 0.950 . S
H1859 C1871 0.950 . S
C1860 H1852 0.950 . S
C1860 C1861 1.386 . S
C1860 C1862 1.391 . S
C1861 C1860 1.386 . S
C1861 C1865 1.393 . S
C1862 H1854 0.950 . S
C1862 C1860 1.391 . S
C1862 C1863 1.400 . S
C1863 C1862 1.400 . S
C1863 C1864 1.398 . S
C1863 C1869 1.491 . S
C1864 H1855 0.950 . S
C1864 C1863 1.398 . S
C1864 C1865 1.391 . S
C1865 H1853 0.950 . S
C1865 C1861 1.393 . S
C1865 C1864 1.391 . S
C1866 H1856 0.950 . S
C1866 C1867 1.386 . S
C1866 C1868 1.391 . S
C1867 C1866 1.386 . S
C1867 C1871 1.393 . S
C1868 H1857 0.950 . S
C1868 C1866 1.391 . S
C1868 C1869 1.400 . S
C1869 C1863 1.491 . S
C1869 C1868 1.400 . S
C1869 C1870 1.398 . S
C1870 H1858 0.950 . S
C1870 C1869 1.398 . S
C1870 C1871 1.391 . S
C1871 H1859 0.950 . S
C1871 C1867 1.393 . S
C1871 C1870 1.391 . S
H1872 C1880 0.950 . S
H1873 C1885 0.950 . S
H1874 C1882 0.950 . S
H1875 C1884 0.950 . S
H1876 C1886 0.950 . S
H1877 C1888 0.950 . S
H1878 C1890 0.950 . S
H1879 C1891 0.950 . S
C1880 H1872 0.950 . S
C1880 C1881 1.386 . S
C1880 C1882 1.391 . S
C1881 C1880 1.386 . S
C1881 C1885 1.393 . S
C1882 H1874 0.950 . S
C1882 C1880 1.391 . S
C1882 C1883 1.400 . S
C1883 C1882 1.400 . S
C1883 C1884 1.398 . S
C1883 C1889 1.491 . S
C1884 H1875 0.950 . S
C1884 C1883 1.398 . S
C1884 C1885 1.391 . S
C1885 H1873 0.950 . S
C1885 C1881 1.393 . S
C1885 C1884 1.391 . S
C1886 H1876 0.950 . S
C1886 C1887 1.386 . S
C1886 C1888 1.391 . S
C1887 C1886 1.386 . S
C1887 C1891 1.393 . S
C1888 H1877 0.950 . S
C1888 C1886 1.391 . S
C1888 C1889 1.400 . S
C1889 C1883 1.491 . S
C1889 C1888 1.400 . S
C1889 C1890 1.398 . S
C1890 H1878 0.950 . S
C1890 C1889 1.398 . S
C1890 C1891 1.391 . S
C1891 H1879 0.950 . S
C1891 C1887 1.393 . S
C1891 C1890 1.391 . S
H1892 C1900 0.950 . S
H1893 C1905 0.950 . S
H1894 C1902 0.950 . S
H1895 C1904 0.950 . S
H1896 C1906 0.950 . S
H1897 C1908 0.950 . S
H1898 C1910 0.950 . S
H1899 C1911 0.950 . S
C1900 H1892 0.950 . S
C1900 C1901 1.386 . S
C1900 C1902 1.391 . S
C1901 C1900 1.386 . S
C1901 C1905 1.393 . S
C1902 H1894 0.950 . S
C1902 C1900 1.391 . S
C1902 C1903 1.400 . S
C1903 C1902 1.400 . S
C1903 C1904 1.398 . S
C1903 C1909 1.491 . S
C1904 H1895 0.950 . S
C1904 C1903 1.398 . S
C1904 C1905 1.391 . S
C1905 H1893 0.950 . S
C1905 C1901 1.393 . S
C1905 C1904 1.391 . S
C1906 H1896 0.950 . S
C1906 C1907 1.386 . S
C1906 C1908 1.391 . S
C1907 C1906 1.386 . S
C1907 C1911 1.393 . S
C1908 H1897 0.950 . S
C1908 C1906 1.391 . S
C1908 C1909 1.400 . S
C1909 C1903 1.491 . S
C1909 C1908 1.400 . S
C1909 C1910 1.398 . S
C1910 H1898 0.950 . S
C1910 C1909 1.398 . S
C1910 C1911 1.391 . S
C1911 H1899 0.950 . S
C1911 C1907 1.393 . S
C1911 C1910 1.391 . S
H1912 C1920 0.950 1_556 S
H1913 C1925 0.950 . S
H1914 C1922 0.950 . S
H1915 C1924 0.950 . S
H1916 C1926 0.950 . S
H1917 C1928 0.950 . S
H1918 C1930 0.950 . S
H1919 C1931 0.950 . S
C1920 H1912 0.950 1_554 S
C1920 C1921 1.386 . S
C1920 C1922 1.391 . S
C1921 C1920 1.386 . S
C1921 C1925 1.393 . S
C1922 H1914 0.950 . S
C1922 C1920 1.391 . S
C1922 C1923 1.400 . S
C1923 C1922 1.400 . S
C1923 C1924 1.398 . S
C1923 C1929 1.491 . S
C1924 H1915 0.950 . S
C1924 C1923 1.398 . S
C1924 C1925 1.391 . S
C1925 H1913 0.950 . S
C1925 C1921 1.393 . S
C1925 C1924 1.391 . S
C1926 H1916 0.950 . S
C1926 C1927 1.386 . S
C1926 C1928 1.391 . S
C1927 C1926 1.386 . S
C1927 C1931 1.393 . S
C1928 H1917 0.950 . S
C1928 C1926 1.391 . S
C1928 C1929 1.400 . S
C1929 C1923 1.491 . S
C1929 C1928 1.400 . S
C1929 C1930 1.398 . S
C1930 H1918 0.950 . S
C1930 C1929 1.398 . S
C1930 C1931 1.391 . S
C1931 H1919 0.950 . S
C1931 C1927 1.393 . S
C1931 C1930 1.391 . S
H1932 C1940 0.950 . S
H1933 C1945 0.950 . S
H1934 C1942 0.950 . S
H1935 C1944 0.950 . S
H1936 C1946 0.950 . S
H1937 C1948 0.950 . S
H1938 C1950 0.950 . S
H1939 C1951 0.950 . S
C1940 H1932 0.950 . S
C1940 C1941 1.386 . S
C1940 C1942 1.391 . S
C1941 C1940 1.386 . S
C1941 C1945 1.393 . S
C1942 H1934 0.950 . S
C1942 C1940 1.391 . S
C1942 C1943 1.400 . S
C1943 C1942 1.400 . S
C1943 C1944 1.398 . S
C1943 C1949 1.491 . S
C1944 H1935 0.950 . S
C1944 C1943 1.398 . S
C1944 C1945 1.391 . S
C1945 H1933 0.950 . S
C1945 C1941 1.393 . S
C1945 C1944 1.391 . S
C1946 H1936 0.950 . S
C1946 C1947 1.386 . S
C1946 C1948 1.391 . S
C1947 C1946 1.386 . S
C1947 C1951 1.393 . S
C1948 H1937 0.950 . S
C1948 C1946 1.391 . S
C1948 C1949 1.400 . S
C1949 C1943 1.491 . S
C1949 C1948 1.400 . S
C1949 C1950 1.398 . S
C1950 H1938 0.950 . S
C1950 C1949 1.398 . S
C1950 C1951 1.391 . S
C1951 H1939 0.950 . S
C1951 C1947 1.393 . S
C1951 C1950 1.391 . S
H1952 C1960 0.950 . S
H1953 C1965 0.950 . S
H1954 C1962 0.950 . S
H1955 C1964 0.950 . S
H1956 C1966 0.950 . S
H1957 C1968 0.950 . S
H1958 C1970 0.950 . S
H1959 C1971 0.950 . S
C1960 H1952 0.950 . S
C1960 C1961 1.386 . S
C1960 C1962 1.391 . S
C1961 C1960 1.386 . S
C1961 C1965 1.393 . S
C1962 H1954 0.950 . S
C1962 C1960 1.391 . S
C1962 C1963 1.400 . S
C1963 C1962 1.400 . S
C1963 C1964 1.398 . S
C1963 C1969 1.491 . S
C1964 H1955 0.950 . S
C1964 C1963 1.398 . S
C1964 C1965 1.391 . S
C1965 H1953 0.950 . S
C1965 C1961 1.393 . S
C1965 C1964 1.391 . S
C1966 H1956 0.950 . S
C1966 C1967 1.386 . S
C1966 C1968 1.391 . S
C1967 C1966 1.386 . S
C1967 C1971 1.393 . S
C1968 H1957 0.950 . S
C1968 C1966 1.391 . S
C1968 C1969 1.400 . S
C1969 C1963 1.491 . S
C1969 C1968 1.400 . S
C1969 C1970 1.398 . S
C1970 H1958 0.950 . S
C1970 C1969 1.398 . S
C1970 C1971 1.391 . S
C1971 H1959 0.950 . S
C1971 C1967 1.393 . S
C1971 C1970 1.391 . S
H1972 C1980 0.950 . S
H1973 C1985 0.950 . S
H1974 C1982 0.950 . S
H1975 C1984 0.950 . S
H1976 C1986 0.950 . S
H1977 C1988 0.950 . S
H1978 C1990 0.950 . S
H1979 C1991 0.950 . S
C1980 H1972 0.950 . S
C1980 C1981 1.386 . S
C1980 C1982 1.391 . S
C1981 C1980 1.386 . S
C1981 C1985 1.393 . S
C1982 H1974 0.950 . S
C1982 C1980 1.391 . S
C1982 C1983 1.400 . S
C1983 C1982 1.400 . S
C1983 C1984 1.398 . S
C1983 C1989 1.491 . S
C1984 H1975 0.950 . S
C1984 C1983 1.398 . S
C1984 C1985 1.391 . S
C1985 H1973 0.950 . S
C1985 C1981 1.393 . S
C1985 C1984 1.391 . S
C1986 H1976 0.950 . S
C1986 C1987 1.386 . S
C1986 C1988 1.391 . S
C1987 C1986 1.386 . S
C1987 C1991 1.393 . S
C1988 H1977 0.950 . S
C1988 C1986 1.391 . S
C1988 C1989 1.400 . S
C1989 C1983 1.491 . S
C1989 C1988 1.400 . S
C1989 C1990 1.398 . S
C1990 H1978 0.950 . S
C1990 C1989 1.398 . S
C1990 C1991 1.391 . S
C1991 H1979 0.950 . S
C1991 C1987 1.393 . S
C1991 C1990 1.391 . S
H1992 C2000 0.950 . S
H1993 C2005 0.950 . S
H1994 C2002 0.950 . S
H1995 C2004 0.950 . S
H1996 C2006 0.950 . S
H1997 C2008 0.950 . S
H1998 C2010 0.950 . S
H1999 C2011 0.950 . S
C2000 H1992 0.950 . S
C2000 C2001 1.386 . S
C2000 C2002 1.391 . S
C2001 C2000 1.386 . S
C2001 C2005 1.393 . S
C2002 H1994 0.950 . S
C2002 C2000 1.391 . S
C2002 C2003 1.400 . S
C2003 C2002 1.400 . S
C2003 C2004 1.398 . S
C2003 C2009 1.491 . S
C2004 H1995 0.950 . S
C2004 C2003 1.398 . S
C2004 C2005 1.391 . S
C2005 H1993 0.950 . S
C2005 C2001 1.393 . S
C2005 C2004 1.391 . S
C2006 H1996 0.950 . S
C2006 C2007 1.386 . S
C2006 C2008 1.391 . S
C2007 C2006 1.386 . S
C2007 C2011 1.393 . S
C2008 H1997 0.950 . S
C2008 C2006 1.391 . S
C2008 C2009 1.400 . S
C2009 C2003 1.491 . S
C2009 C2008 1.400 . S
C2009 C2010 1.398 . S
C2010 H1998 0.950 . S
C2010 C2009 1.398 . S
C2010 C2011 1.391 . S
C2011 H1999 0.950 . S
C2011 C2007 1.393 . S
C2011 C2010 1.391 . S
H2012 C2020 0.950 . S
H2013 C2025 0.950 . S
H2014 C2022 0.950 . S
H2015 C2024 0.950 . S
H2016 C2026 0.950 . S
H2017 C2028 0.950 . S
H2018 C2030 0.950 . S
H2019 C2031 0.950 . S
C2020 H2012 0.950 . S
C2020 C2021 1.386 . S
C2020 C2022 1.391 . S
C2021 C2020 1.386 . S
C2021 C2025 1.393 . S
C2022 H2014 0.950 . S
C2022 C2020 1.391 . S
C2022 C2023 1.400 . S
C2023 C2022 1.400 . S
C2023 C2024 1.398 . S
C2023 C2029 1.491 . S
C2024 H2015 0.950 . S
C2024 C2023 1.398 . S
C2024 C2025 1.391 . S
C2025 H2013 0.950 . S
C2025 C2021 1.393 . S
C2025 C2024 1.391 . S
C2026 H2016 0.950 . S
C2026 C2027 1.386 . S
C2026 C2028 1.391 . S
C2027 C2026 1.386 . S
C2027 C2031 1.393 . S
C2028 H2017 0.950 . S
C2028 C2026 1.391 . S
C2028 C2029 1.400 . S
C2029 C2023 1.491 . S
C2029 C2028 1.400 . S
C2029 C2030 1.398 . S
C2030 H2018 0.950 . S
C2030 C2029 1.398 . S
C2030 C2031 1.391 . S
C2031 H2019 0.950 . S
C2031 C2027 1.393 . S
C2031 C2030 1.391 . S
H2032 C2040 0.950 . S
H2033 C2045 0.950 . S
H2034 C2042 0.950 . S
H2035 C2044 0.950 . S
H2036 C2046 0.950 . S
H2037 C2048 0.950 . S
H2038 C2050 0.950 . S
H2039 C2051 0.950 . S
C2040 H2032 0.950 . S
C2040 C2041 1.386 . S
C2040 C2042 1.391 . S
C2041 C2040 1.386 . S
C2041 C2045 1.393 . S
C2042 H2034 0.950 . S
C2042 C2040 1.391 . S
C2042 C2043 1.400 . S
C2043 C2042 1.400 . S
C2043 C2044 1.398 . S
C2043 C2049 1.491 . S
C2044 H2035 0.950 . S
C2044 C2043 1.398 . S
C2044 C2045 1.391 . S
C2045 H2033 0.950 . S
C2045 C2041 1.393 . S
C2045 C2044 1.391 . S
C2046 H2036 0.950 . S
C2046 C2047 1.386 . S
C2046 C2048 1.391 . S
C2047 C2046 1.386 . S
C2047 C2051 1.393 . S
C2048 H2037 0.950 . S
C2048 C2046 1.391 . S
C2048 C2049 1.400 . S
C2049 C2043 1.491 . S
C2049 C2048 1.400 . S
C2049 C2050 1.398 . S
C2050 H2038 0.950 . S
C2050 C2049 1.398 . S
C2050 C2051 1.391 . S
C2051 H2039 0.950 . S
C2051 C2047 1.393 . S
C2051 C2050 1.391 . S
H2052 C2060 0.950 . S
H2053 C2065 0.950 . S
H2054 C2062 0.950 . S
H2055 C2064 0.950 . S
H2056 C2066 0.950 . S
H2057 C2068 0.950 . S
H2058 C2070 0.950 . S
H2059 C2071 0.950 . S
C2060 H2052 0.950 . S
C2060 C2061 1.386 . S
C2060 C2062 1.391 . S
C2061 C2060 1.386 . S
C2061 C2065 1.393 . S
C2062 H2054 0.950 . S
C2062 C2060 1.391 . S
C2062 C2063 1.400 . S
C2063 C2062 1.400 . S
C2063 C2064 1.398 . S
C2063 C2069 1.491 . S
C2064 H2055 0.950 . S
C2064 C2063 1.398 . S
C2064 C2065 1.391 . S
C2065 H2053 0.950 . S
C2065 C2061 1.393 . S
C2065 C2064 1.391 . S
C2066 H2056 0.950 . S
C2066 C2067 1.386 . S
C2066 C2068 1.391 . S
C2067 C2066 1.386 . S
C2067 C2071 1.393 . S
C2068 H2057 0.950 . S
C2068 C2066 1.391 . S
C2068 C2069 1.400 . S
C2069 C2063 1.491 . S
C2069 C2068 1.400 . S
C2069 C2070 1.398 . S
C2070 H2058 0.950 . S
C2070 C2069 1.398 . S
C2070 C2071 1.391 . S
C2071 H2059 0.950 . S
C2071 C2067 1.393 . S
C2071 C2070 1.391 . S
H2072 C2080 0.950 . S
H2073 C2085 0.950 . S
H2074 C2082 0.950 . S
H2075 C2084 0.950 . S
H2076 C2086 0.950 . S
H2077 C2088 0.950 . S
H2078 C2090 0.950 . S
H2079 C2091 0.950 . S
C2080 H2072 0.950 . S
C2080 C2081 1.386 . S
C2080 C2082 1.391 . S
C2081 C2080 1.386 . S
C2081 C2085 1.393 . S
C2082 H2074 0.950 . S
C2082 C2080 1.391 . S
C2082 C2083 1.400 . S
C2083 C2082 1.400 . S
C2083 C2084 1.398 . S
C2083 C2089 1.491 . S
C2084 H2075 0.950 . S
C2084 C2083 1.398 . S
C2084 C2085 1.391 . S
C2085 H2073 0.950 . S
C2085 C2081 1.393 . S
C2085 C2084 1.391 . S
C2086 H2076 0.950 . S
C2086 C2087 1.386 . S
C2086 C2088 1.391 . S
C2087 C2086 1.386 . S
C2087 C2091 1.393 . S
C2088 H2077 0.950 . S
C2088 C2086 1.391 . S
C2088 C2089 1.400 . S
C2089 C2083 1.491 . S
C2089 C2088 1.400 . S
C2089 C2090 1.398 . S
C2090 H2078 0.950 . S
C2090 C2089 1.398 . S
C2090 C2091 1.391 . S
C2091 H2079 0.950 . S
C2091 C2087 1.393 . S
C2091 C2090 1.391 . S
H2092 C2100 0.950 . S
H2093 C2105 0.950 . S
H2094 C2102 0.950 . S
H2095 C2104 0.950 . S
H2096 C2106 0.950 . S
H2097 C2108 0.950 . S
H2098 C2110 0.950 . S
H2099 C2111 0.950 . S
C2100 H2092 0.950 . S
C2100 C2101 1.386 . S
C2100 C2102 1.391 . S
C2101 C2100 1.386 . S
C2101 C2105 1.393 . S
C2102 H2094 0.950 . S
C2102 C2100 1.391 . S
C2102 C2103 1.400 . S
C2103 C2102 1.400 . S
C2103 C2104 1.398 . S
C2103 C2109 1.491 . S
C2104 H2095 0.950 . S
C2104 C2103 1.398 . S
C2104 C2105 1.391 . S
C2105 H2093 0.950 . S
C2105 C2101 1.393 . S
C2105 C2104 1.391 . S
C2106 H2096 0.950 . S
C2106 C2107 1.386 . S
C2106 C2108 1.391 . S
C2107 C2106 1.386 . S
C2107 C2111 1.393 . S
C2108 H2097 0.950 . S
C2108 C2106 1.391 . S
C2108 C2109 1.400 . S
C2109 C2103 1.491 . S
C2109 C2108 1.400 . S
C2109 C2110 1.398 . S
C2110 H2098 0.950 . S
C2110 C2109 1.398 . S
C2110 C2111 1.391 . S
C2111 H2099 0.950 . S
C2111 C2107 1.393 . S
C2111 C2110 1.391 . S
H2112 C2120 0.950 . S
H2113 C2125 0.950 . S
H2114 C2122 0.950 . S
H2115 C2124 0.950 . S
H2116 C2126 0.950 . S
H2117 C2128 0.950 . S
H2118 C2130 0.950 . S
H2119 C2131 0.950 . S
C2120 H2112 0.950 . S
C2120 C2121 1.386 . S
C2120 C2122 1.391 . S
C2121 C2120 1.386 . S
C2121 C2125 1.393 . S
C2122 H2114 0.950 . S
C2122 C2120 1.391 . S
C2122 C2123 1.400 . S
C2123 C2122 1.400 . S
C2123 C2124 1.398 . S
C2123 C2129 1.491 . S
C2124 H2115 0.950 . S
C2124 C2123 1.398 . S
C2124 C2125 1.391 . S
C2125 H2113 0.950 . S
C2125 C2121 1.393 . S
C2125 C2124 1.391 . S
C2126 H2116 0.950 . S
C2126 C2127 1.386 . S
C2126 C2128 1.391 . S
C2127 C2126 1.386 . S
C2127 C2131 1.393 . S
C2128 H2117 0.950 . S
C2128 C2126 1.391 . S
C2128 C2129 1.400 . S
C2129 C2123 1.491 . S
C2129 C2128 1.400 . S
C2129 C2130 1.398 . S
C2130 H2118 0.950 . S
C2130 C2129 1.398 . S
C2130 C2131 1.391 . S
C2131 H2119 0.950 . S
C2131 C2127 1.393 . S
C2131 C2130 1.391 . S
H2132 C2140 0.950 . S
H2133 C2145 0.950 . S
H2134 C2142 0.950 . S
H2135 C2144 0.950 . S
H2136 C2146 0.950 . S
H2137 C2148 0.950 . S
H2138 C2150 0.950 . S
H2139 C2151 0.950 . S
C2140 H2132 0.950 . S
C2140 C2141 1.386 . S
C2140 C2142 1.391 . S
C2141 C2140 1.386 . S
C2141 C2145 1.393 . S
C2142 H2134 0.950 . S
C2142 C2140 1.391 . S
C2142 C2143 1.400 . S
C2143 C2142 1.400 . S
C2143 C2144 1.398 . S
C2143 C2149 1.491 . S
C2144 H2135 0.950 . S
C2144 C2143 1.398 . S
C2144 C2145 1.391 . S
C2145 H2133 0.950 . S
C2145 C2141 1.393 . S
C2145 C2144 1.391 . S
C2146 H2136 0.950 . S
C2146 C2147 1.386 . S
C2146 C2148 1.391 . S
C2147 C2146 1.386 . S
C2147 C2151 1.393 . S
C2148 H2137 0.950 . S
C2148 C2146 1.391 . S
C2148 C2149 1.400 . S
C2149 C2143 1.491 . S
C2149 C2148 1.400 . S
C2149 C2150 1.398 . S
C2150 H2138 0.950 . S
C2150 C2149 1.398 . S
C2150 C2151 1.391 . S
C2151 H2139 0.950 . S
C2151 C2147 1.393 . S
C2151 C2150 1.391 . S
H2152 C2160 0.950 . S
H2153 C2165 0.950 . S
H2154 C2162 0.950 . S
H2155 C2164 0.950 . S
H2156 C2166 0.950 . S
H2157 C2168 0.950 . S
H2158 C2170 0.950 . S
H2159 C2171 0.950 . S
C2160 H2152 0.950 . S
C2160 C2161 1.386 . S
C2160 C2162 1.391 . S
C2161 C2160 1.386 . S
C2161 C2165 1.393 . S
C2162 H2154 0.950 . S
C2162 C2160 1.391 . S
C2162 C2163 1.400 . S
C2163 C2162 1.400 . S
C2163 C2164 1.398 . S
C2163 C2169 1.491 . S
C2164 H2155 0.950 . S
C2164 C2163 1.398 . S
C2164 C2165 1.391 . S
C2165 H2153 0.950 . S
C2165 C2161 1.393 . S
C2165 C2164 1.391 . S
C2166 H2156 0.950 . S
C2166 C2167 1.386 . S
C2166 C2168 1.391 . S
C2167 C2166 1.386 . S
C2167 C2171 1.393 . S
C2168 H2157 0.950 . S
C2168 C2166 1.391 . S
C2168 C2169 1.400 . S
C2169 C2163 1.491 . S
C2169 C2168 1.400 . S
C2169 C2170 1.398 . S
C2170 H2158 0.950 . S
C2170 C2169 1.398 . S
C2170 C2171 1.391 . S
C2171 H2159 0.950 . S
C2171 C2167 1.393 . S
C2171 C2170 1.391 . S
H2172 C2180 0.950 . S
H2173 C2185 0.950 . S
H2174 C2182 0.950 . S
H2175 C2184 0.950 . S
H2176 C2186 0.950 . S
H2177 C2188 0.950 . S
H2178 C2190 0.950 . S
H2179 C2191 0.950 . S
C2180 H2172 0.950 . S
C2180 C2181 1.386 . S
C2180 C2182 1.391 . S
C2181 C2180 1.386 . S
C2181 C2185 1.393 . S
C2182 H2174 0.950 . S
C2182 C2180 1.391 . S
C2182 C2183 1.400 . S
C2183 C2182 1.400 . S
C2183 C2184 1.398 . S
C2183 C2189 1.491 . S
C2184 H2175 0.950 . S
C2184 C2183 1.398 . S
C2184 C2185 1.391 . S
C2185 H2173 0.950 . S
C2185 C2181 1.393 . S
C2185 C2184 1.391 . S
C2186 H2176 0.950 . S
C2186 C2187 1.386 . S
C2186 C2188 1.391 . S
C2187 C2186 1.386 . S
C2187 C2191 1.393 . S
C2188 H2177 0.950 . S
C2188 C2186 1.391 . S
C2188 C2189 1.400 . S
C2189 C2183 1.491 . S
C2189 C2188 1.400 . S
C2189 C2190 1.398 . S
C2190 H2178 0.950 . S
C2190 C2189 1.398 . S
C2190 C2191 1.391 . S
C2191 H2179 0.950 . S
C2191 C2187 1.393 . S
C2191 C2190 1.391 . S
H2192 C2200 0.950 . S
H2193 C2205 0.950 . S
H2194 C2202 0.950 . S
H2195 C2204 0.950 . S
H2196 C2206 0.950 . S
H2197 C2208 0.950 . S
H2198 C2210 0.950 . S
H2199 C2211 0.950 . S
C2200 H2192 0.950 . S
C2200 C2201 1.386 . S
C2200 C2202 1.391 . S
C2201 C2200 1.386 . S
C2201 C2205 1.393 . S
C2202 H2194 0.950 . S
C2202 C2200 1.391 . S
C2202 C2203 1.400 . S
C2203 C2202 1.400 . S
C2203 C2204 1.398 . S
C2203 C2209 1.491 . S
C2204 H2195 0.950 . S
C2204 C2203 1.398 . S
C2204 C2205 1.391 . S
C2205 H2193 0.950 . S
C2205 C2201 1.393 . S
C2205 C2204 1.391 . S
C2206 H2196 0.950 . S
C2206 C2207 1.386 . S
C2206 C2208 1.391 . S
C2207 C2206 1.386 . S
C2207 C2211 1.393 . S
C2208 H2197 0.950 . S
C2208 C2206 1.391 . S
C2208 C2209 1.400 . S
C2209 C2203 1.491 . S
C2209 C2208 1.400 . S
C2209 C2210 1.398 . S
C2210 H2198 0.950 . S
C2210 C2209 1.398 . S
C2210 C2211 1.391 . S
C2211 H2199 0.950 . S
C2211 C2207 1.393 . S
C2211 C2210 1.391 . S
H2212 C2220 0.950 . S
H2213 C2225 0.950 . S
H2214 C2222 0.950 . S
H2215 C2224 0.950 . S
H2216 C2226 0.950 . S
H2217 C2228 0.950 . S
H2218 C2230 0.950 . S
H2219 C2231 0.950 . S
C2220 H2212 0.950 . S
C2220 C2221 1.386 . S
C2220 C2222 1.391 . S
C2221 C2220 1.386 . S
C2221 C2225 1.393 . S
C2222 H2214 0.950 . S
C2222 C2220 1.391 . S
C2222 C2223 1.400 . S
C2223 C2222 1.400 . S
C2223 C2224 1.398 . S
C2223 C2229 1.491 . S
C2224 H2215 0.950 . S
C2224 C2223 1.398 . S
C2224 C2225 1.391 . S
C2225 H2213 0.950 . S
C2225 C2221 1.393 . S
C2225 C2224 1.391 . S
C2226 H2216 0.950 . S
C2226 C2227 1.386 . S
C2226 C2228 1.391 . S
C2227 C2226 1.386 . S
C2227 C2231 1.393 . S
C2228 H2217 0.950 . S
C2228 C2226 1.391 . S
C2228 C2229 1.400 . S
C2229 C2223 1.491 . S
C2229 C2228 1.400 . S
C2229 C2230 1.398 . S
C2230 H2218 0.950 . S
C2230 C2229 1.398 . S
C2230 C2231 1.391 . S
C2231 H2219 0.950 . S
C2231 C2227 1.393 . S
C2231 C2230 1.391 . S
C1281 C410 1.525 . S
C1287 C29 1.446 . S
C1301 C82 0.782 . S
C1307 C241 0.742 . S
C1321 C304 1.392 . S
C1327 C135 1.328 . S
C1341 C188 0.898 . S
C1347 C347 0.896 . S
C1361 C463 2.077 . S
C1367 C39 2.143 . S
C1381 C92 1.241 . S
C1387 C506 1.264 . S
C1401 C569 2.031 . S
C1407 C145 2.107 . S
C1421 C612 1.155 . S
C1427 C198 1.134 . S
C1441 C251 1.553 . S
C1447 C516 1.557 . S
C1461 C294 1.166 . S
C1467 C559 1.212 . S
C1481 C622 1.649 . S
C1487 C357 1.624 . S
C1501 C453 1.284 . S
C1507 C400 1.229 . S
C1521 C1142 1.500 . S
C1527 C675 1.410 . S
C1541 C728 1.637 . S
C1547 C1205 1.612 . S
C1561 C781 1.173 . S
C1567 C1248 1.200 . S
C1581 C1258 1.781 . S
C1587 C834 1.809 . S
C1601 C887 1.884 . S
C1607 C1152 1.890 . S
C1621 C1046 1.193 . S
C1627 C930 1.215 . S
C1641 C665 1.114 . S
C1647 C877 1.120 . S
C1661 C718 0.729 . S
C1667 C993 0.766 . S
C1681 C771 1.340 . S
C1687 C824 1.317 . S
C1701 C940 1.772 . S
C1707 C1099 1.761 . S
C1721 C983 0.886 . S
C1727 C1195 0.911 . S
C1741 C1089 0.869 . S
C1747 C1036 0.834 . S
C1761 C234 2.447 . S
C1767 C22 2.376 . S
C1781 C303 1.765 . S
C1787 C75 1.681 . S
C1801 C340 2.595 . S
C1807 C128 2.519 . S
C1821 C409 2.453 . S
C1827 C181 2.393 . S
C1841 C462 2.949 . S
C1847 C621 3.033 . S
C1861 C499 2.389 . S
C1867 C446 2.440 . S
C1881 C568 2.598 . S
C1887 C515 2.672 . S
C1901 C552 1.839 . S
C1907 C605 1.776 . S
C1921 C976 2.822 . S
C1927 C393 2.696 . S
C1941 C674 2.477 . S
C1947 C197 2.577 . S
C1961 C38 2.503 . S
C1967 C727 2.477 . S
C1981 C91 3.232 . S
C1987 C780 3.145 . S
C2001 C287 2.506 . S
C2007 C1029 2.599 . S
C2021 C250 1.904 . S
C2027 C833 1.939 . S
C2041 C356 1.961 . S
C2047 C886 2.010 . S
C2061 C870 2.331 . S
C2067 C923 2.396 . S
C2081 C658 1.594 . S
C2087 C992 1.544 . S
C2101 C817 2.269 . S
C2107 C711 2.383 . S
C2121 C1045 2.882 . S
C2127 C764 2.908 . S
C2141 C1098 2.497 . S
C2147 C1257 2.466 . S
C2161 C1082 2.373 . S
C2167 C1135 2.429 . S
C2181 C1204 2.779 . S
C2187 C1151 2.735 . S
C2201 C1241 1.787 . S
C2207 C1188 1.697 . S
C2221 C144 2.776 . S
C2227 C939 2.712 . S
