# Generated by pormake.
# Topology fst, (5)-cn, num edge types: 1
# Building blocks:
#     Node 0, Type 0, BuildingBlock: XOMCOT_clean_sbu_0, # of connection points: 5
#     Node 1, Type 0, BuildingBlock: XOMCOT_clean_sbu_0, # of connection points: 5
#     Node 2, Type 0, BuildingBlock: XOMCOT_clean_sbu_0, # of connection points: 5
#     Node 3, Type 0, BuildingBlock: XOMCOT_clean_sbu_0, # of connection points: 5
#     Node 4, Type 0, BuildingBlock: XOMCOT_clean_sbu_0, # of connection points: 5
#     Node 5, Type 0, BuildingBlock: XOMCOT_clean_sbu_0, # of connection points: 5
#     Node 6, Type 0, BuildingBlock: XOMCOT_clean_sbu_0, # of connection points: 5
#     Node 7, Type 0, BuildingBlock: XOMCOT_clean_sbu_0, # of connection points: 5
#     Node 8, Type 0, BuildingBlock: XOMCOT_clean_sbu_0, # of connection points: 5
#     Node 9, Type 0, BuildingBlock: XOMCOT_clean_sbu_0, # of connection points: 5
#     Node 10, Type 0, BuildingBlock: XOMCOT_clean_sbu_0, # of connection points: 5
#     Node 11, Type 0, BuildingBlock: XOMCOT_clean_sbu_0, # of connection points: 5
#     Edge 12, Type (0, 0), BuildingBlock: AJUNOK_clean_linker_0, # of connection points: 2
#     Edge 13, Type (0, 0), BuildingBlock: AJUNOK_clean_linker_0, # of connection points: 2
#     Edge 14, Type (0, 0), BuildingBlock: AJUNOK_clean_linker_0, # of connection points: 2
#     Edge 15, Type (0, 0), BuildingBlock: AJUNOK_clean_linker_0, # of connection points: 2
#     Edge 16, Type (0, 0), BuildingBlock: AJUNOK_clean_linker_0, # of connection points: 2
#     Edge 17, Type (0, 0), BuildingBlock: AJUNOK_clean_linker_0, # of connection points: 2
#     Edge 18, Type (0, 0), BuildingBlock: AJUNOK_clean_linker_0, # of connection points: 2
#     Edge 19, Type (0, 0), BuildingBlock: AJUNOK_clean_linker_0, # of connection points: 2
#     Edge 20, Type (0, 0), BuildingBlock: AJUNOK_clean_linker_0, # of connection points: 2
#     Edge 21, Type (0, 0), BuildingBlock: AJUNOK_clean_linker_0, # of connection points: 2
#     Edge 22, Type (0, 0), BuildingBlock: AJUNOK_clean_linker_0, # of connection points: 2
#     Edge 23, Type (0, 0), BuildingBlock: AJUNOK_clean_linker_0, # of connection points: 2
#     Edge 24, Type (0, 0), BuildingBlock: AJUNOK_clean_linker_0, # of connection points: 2
#     Edge 25, Type (0, 0), BuildingBlock: AJUNOK_clean_linker_0, # of connection points: 2
#     Edge 26, Type (0, 0), BuildingBlock: AJUNOK_clean_linker_0, # of connection points: 2
#     Edge 27, Type (0, 0), BuildingBlock: AJUNOK_clean_linker_0, # of connection points: 2
#     Edge 28, Type (0, 0), BuildingBlock: AJUNOK_clean_linker_0, # of connection points: 2
#     Edge 29, Type (0, 0), BuildingBlock: AJUNOK_clean_linker_0, # of connection points: 2
#     Edge 30, Type (0, 0), BuildingBlock: AJUNOK_clean_linker_0, # of connection points: 2
#     Edge 31, Type (0, 0), BuildingBlock: AJUNOK_clean_linker_0, # of connection points: 2
#     Edge 32, Type (0, 0), BuildingBlock: AJUNOK_clean_linker_0, # of connection points: 2
#     Edge 33, Type (0, 0), BuildingBlock: AJUNOK_clean_linker_0, # of connection points: 2
#     Edge 34, Type (0, 0), BuildingBlock: AJUNOK_clean_linker_0, # of connection points: 2
#     Edge 35, Type (0, 0), BuildingBlock: AJUNOK_clean_linker_0, # of connection points: 2
#     Edge 36, Type (0, 0), BuildingBlock: AJUNOK_clean_linker_0, # of connection points: 2
#     Edge 37, Type (0, 0), BuildingBlock: AJUNOK_clean_linker_0, # of connection points: 2
#     Edge 38, Type (0, 0), BuildingBlock: AJUNOK_clean_linker_0, # of connection points: 2
#     Edge 39, Type (0, 0), BuildingBlock: AJUNOK_clean_linker_0, # of connection points: 2
#     Edge 40, Type (0, 0), BuildingBlock: AJUNOK_clean_linker_0, # of connection points: 2
#     Edge 41, Type (0, 0), BuildingBlock: AJUNOK_clean_linker_0, # of connection points: 2
# Relax obj value: 0.176
# Max RMSD: 0.157
# Mean RMSD: 0.157
data_MOF--net-fst--node1-XOMCOT_clean_sbu_0--edge1-AJUNOK_clean_linker_0
_symmetry_space_group_name_H-M    P1
_symmetry_Int_Tables_number       1
_symmetry_cell_setting            triclinic
loop_
_symmetry_equiv_pos_as_xyz
'x, y, z'
_cell_length_a     55.240338
_cell_length_b     55.038945
_cell_length_c     13.722841
_cell_angle_alpha  89.936877
_cell_angle_beta   90.120181
_cell_angle_gamma 119.84918
loop_
_atom_site_label
_atom_site_type_symbol
_atom_site_fract_x
_atom_site_fract_y
_atom_site_fract_z
_atom_type_partial_charge
Co0 Co 0.13531 0.42988 0.04949 0.0
C1 C 0.13456 0.43126 0.26899 0.0
C2 C 0.12182 0.39061 0.21005 0.0
C3 C 0.11949 0.38835 0.30964 0.0
N4 N 0.13121 0.41746 0.18406 0.0
N5 N 0.12737 0.41386 0.34686 0.0
H6 H 0.14234 0.45345 0.27446 0.0
H7 H 0.11661 0.3736 0.15977 0.0
C8 C 0.07771 0.37883 1.02033 0.0
O9 O 0.08735 0.36248 0.99203 0.0
N10 N 0.1391 0.44172 0.91474 0.0
C11 C 0.15449 0.46838 0.88344 0.0
C12 C 0.15278 0.46885 0.78378 0.0
C13 C 0.12866 0.42615 0.83324 0.0
N14 N 0.13652 0.44239 0.75231 0.0
C15 C 0.15023 0.48484 0.11949 0.0
C16 C 0.10513 0.4857 0.03551 0.0
C17 C 0.12791 0.5108 0.0666 0.0
C18 C 0.15015 0.5102 0.11315 0.0
C19 C 0.1059 0.46092 0.04351 0.0
N20 N 0.12872 0.46069 0.08184 0.0
H21 H 0.16864 0.48511 0.14765 0.0
H22 H 0.08911 0.44279 1.00913 0.0
H23 H 0.16674 0.4863 0.92959 0.0
H24 H 0.11591 0.40355 0.83294 0.0
O25 O 0.17527 0.44932 0.06057 0.0
O26 O 0.1499 0.40493 1.01671 0.0
O27 O 0.09408 0.40475 0.03611 0.0
C28 C 0.17457 0.42648 0.0329 0.0
H29 H 0.11208 0.36925 0.35139 0.0
H30 H 0.16355 0.48712 0.73755 0.0
H31 H 0.08759 0.48554 0.99929 0.0
H32 H 0.16814 0.5294 0.13792 0.0
Co33 Co 0.71321 0.13169 0.07554 0.0
C34 C 0.71171 0.13173 0.29233 0.0
C35 C 0.73002 0.10828 0.23526 0.0
C36 C 0.73019 0.10696 0.33528 0.0
N37 N 0.71831 0.12362 0.20845 0.0
N38 N 0.71861 0.12161 0.37134 0.0
H39 H 0.7027 0.14523 0.29511 0.0
H40 H 0.73809 0.09886 0.18538 0.0
C41 C 0.67976 0.07297 0.99088 0.0
O42 O 0.66496 0.08106 0.93923 0.0
N43 N 0.70881 0.14008 0.94028 0.0
C44 C 0.7041 0.16068 0.90924 0.0
C45 C 0.70334 0.16072 0.80938 0.0
C46 C 0.71245 0.12891 0.85738 0.0
N47 N 0.7083 0.14059 0.77679 0.0
C48 C 0.67117 0.14682 0.10592 0.0
C49 C 0.62581 0.09353 0.11888 0.0
C50 C 0.6214 0.11603 0.09895 0.0
C51 C 0.64438 0.14308 0.09874 0.0
C52 C 0.65328 0.09836 0.12498 0.0
N53 N 0.67546 0.12443 0.10669 0.0
H54 H 0.68849 0.16793 0.10552 0.0
H55 H 0.65645 0.08093 0.14049 0.0
H56 H 0.70267 0.17584 0.95461 0.0
H57 H 0.71792 0.11257 0.85583 0.0
O58 O 0.73333 0.17122 0.10327 0.0
O59 O 0.75321 0.14738 0.05207 0.0
O60 O 0.69972 0.09072 0.0445 0.0
C61 C 0.75599 0.17149 0.07721 0.0
H62 H 0.73809 0.09588 0.37821 0.0
H63 H 0.70043 0.17516 0.76397 0.0
H64 H 0.60837 0.0724 0.12512 0.0
H65 H 0.6417 0.16116 0.08957 0.0
Co66 Co 0.58866 0.709 0.05151 0.0
C67 C 0.58778 0.70969 0.26935 0.0
C68 C 0.62915 0.72977 0.2096 0.0
C69 C 0.63125 0.73141 0.30938 0.0
N70 N 0.60199 0.71606 0.18443 0.0
N71 N 0.60528 0.71905 0.34714 0.0
H72 H 0.56524 0.69879 0.27411 0.0
H73 H 0.64631 0.7381 0.1586 0.0
C74 C 0.61774 0.67887 0.96814 0.0
O75 O 0.59618 0.66386 0.91136 0.0
N76 N 0.57584 0.70273 0.91636 0.0
C77 C 0.54948 0.69322 0.88443 0.0
C78 C 0.54925 0.69342 0.78449 0.0
C79 C 0.59149 0.70988 0.83427 0.0
N80 N 0.5756 0.70387 0.75284 0.0
C81 C 0.5327 0.66542 0.09234 0.0
C82 C 0.54231 0.62081 0.08985 0.0
C83 C 0.51489 0.61556 0.07724 0.0
C84 C 0.51015 0.63821 0.08506 0.0
C85 C 0.56436 0.64863 0.0971 0.0
N86 N 0.55954 0.6706 0.0863 0.0
H87 H 0.52832 0.68244 0.09452 0.0
H88 H 0.58517 0.65215 0.10793 0.0
H89 H 0.53152 0.68771 0.92925 0.0
H90 H 0.61395 0.71906 0.83423 0.0
O91 O 0.56787 0.72816 0.07386 0.0
O92 O 0.61149 0.74909 0.02347 0.0
O93 O 0.6176 0.69726 0.02465 0.0
C94 C 0.58973 0.75118 0.04647 0.0
H95 H 0.65048 0.74051 0.35076 0.0
H96 H 0.53119 0.6873 0.7384 0.0
H97 H 0.54686 0.60382 0.08916 0.0
H98 H 0.48917 0.63502 0.08101 0.0
Co99 Co 0.89051 0.58686 0.05603 0.0
C100 C 0.89065 0.58471 0.27255 0.0
C101 C 0.91928 0.62556 0.21667 0.0
C102 C 0.92051 0.62667 0.31666 0.0
N103 N 0.90077 0.59926 0.18903 0.0
N104 N 0.90254 0.60101 0.35209 0.0
H105 H 0.87433 0.563 0.27457 0.0
H106 H 0.93074 0.64293 0.16761 0.0
C107 C 0.94833 0.61053 0.96683 0.0
O108 O 0.94041 0.587 0.9194 0.0
N109 N 0.87986 0.57482 0.92088 0.0
C110 C 0.85628 0.55173 0.89107 0.0
C111 C 0.85566 0.5506 0.79121 0.0
C112 C 0.89237 0.58827 0.83718 0.0
N113 N 0.87847 0.57339 0.75741 0.0
C114 C 0.875 0.52897 0.07245 0.0
C115 C 0.92747 0.53597 0.10291 0.0
C116 C 0.90524 0.50895 0.08325 0.0
C117 C 0.87859 0.50564 0.07117 0.0
C118 C 0.92281 0.55889 0.10402 0.0
N119 N 0.89723 0.55547 0.07996 0.0
H120 H 0.85415 0.52554 0.06582 0.0
H121 H 0.93997 0.57939 0.12169 0.0
H122 H 0.83969 0.53713 0.93755 0.0
H123 H 0.91107 0.60857 0.83405 0.0
O124 O 0.85161 0.56873 0.09142 0.0
O125 O 0.876 0.61252 0.04094 0.0
O126 O 0.9308 0.61342 1.01895 0.0
C127 C 0.85208 0.59195 0.06994 0.0
H128 H 0.93363 0.64504 0.35998 0.0
H129 H 0.83916 0.53476 0.74666 0.0
H130 H 0.94824 0.53937 0.11674 0.0
H131 H 0.8606 0.48521 0.05774 0.0
Co132 Co 0.30754 0.8882 0.05652 0.0
C133 C 0.30521 0.88402 0.27529 0.0
C134 C 0.2822 0.90251 0.21601 0.0
C135 C 0.27928 0.90134 0.31572 0.0
N136 N 0.29845 0.8917 0.19041 0.0
N137 N 0.29368 0.88963 0.35277 0.0
H138 H 0.31802 0.87438 0.28136 0.0
H139 H 0.27316 0.91085 0.16529 0.0
C140 C 0.32838 0.94732 0.97344 0.0
O141 O 0.33093 0.93969 0.88551 0.0
N142 N 0.31579 0.88392 0.92122 0.0
C143 C 0.33398 0.87587 0.89099 0.0
C144 C 0.33266 0.87328 0.79156 0.0
C145 C 0.30256 0.88462 0.83883 0.0
N146 N 0.31311 0.87902 0.75826 0.0
C147 C 0.34913 0.87608 0.13028 0.0
C148 C 0.39473 0.92374 0.05832 0.0
C149 C 0.39815 0.90137 0.08831 0.0
C150 C 0.3753 0.87782 0.12898 0.0
C151 C 0.36839 0.92138 0.06225 0.0
N152 N 0.34552 0.89718 0.09315 0.0
H153 H 0.3314 0.85663 0.15344 0.0
H154 H 0.3666 0.93839 0.03252 0.0
H155 H 0.34718 0.87154 0.93714 0.0
H156 H 0.28645 0.89034 0.83785 0.0
O157 O 0.28917 0.84815 0.06893 0.0
O158 O 0.26794 0.87133 0.02374 0.0
O159 O 0.31955 0.92954 0.04315 0.0
C160 C 0.26621 0.84726 0.04214 0.0
H161 H 0.26808 0.90918 0.35786 0.0
H162 H 0.34508 0.86741 0.74703 0.0
H163 H 0.41205 0.94243 0.02739 0.0
H164 H 0.37712 0.86001 0.15263 0.0
Co165 Co 0.43882 0.31115 0.07685 0.0
C166 C 0.44064 0.31401 0.29612 0.0
C167 C 0.39918 0.29216 0.23745 0.0
C168 C 0.39728 0.29255 0.3371 0.0
N169 N 0.4263 0.30585 0.21123 0.0
N170 N 0.42331 0.30636 0.37375 0.0
H171 H 0.46307 0.32521 0.30216 0.0
H172 H 0.38181 0.28207 0.18759 0.0
C173 C 0.3897 0.3205 0.03672 0.0
O174 O 0.37262 0.29436 1.01193 0.0
N175 N 0.45083 0.31618 0.94255 0.0
C176 C 0.47701 0.32414 0.91337 0.0
C177 C 0.47789 0.32499 0.81355 0.0
C178 C 0.43596 0.31195 0.8599 0.0
N179 N 0.45213 0.31733 0.77962 0.0
C180 C 0.4941 0.35083 0.14551 0.0
C181 C 0.49665 0.39648 0.05126 0.0
C182 C 0.52102 0.39888 0.09052 0.0
C183 C 0.51957 0.37606 0.141 0.0
C184 C 0.47177 0.37119 0.05768 0.0
N185 N 0.47056 0.34839 0.10297 0.0
H186 H 0.49383 0.33273 0.1771 0.0
H187 H 0.45437 0.36982 1.01769 0.0
H188 H 0.4943 0.32876 0.96143 0.0
H189 H 0.41374 0.30431 0.85878 0.0
O190 O 0.45646 0.28897 0.09767 0.0
O191 O 0.41254 0.27153 0.05179 0.0
O192 O 0.41528 0.32896 0.05426 0.0
C193 C 0.43307 0.26711 0.07312 0.0
H194 H 0.37826 0.28267 0.37955 0.0
H195 H 0.49616 0.33084 0.76921 0.0
H196 H 0.49711 0.41369 1.01119 0.0
H197 H 0.53822 0.37716 0.1712 0.0
Co198 Co 0.5829 0.89556 1.00852 0.0
C199 C 0.58098 0.8964 0.78931 0.0
C200 C 0.62237 0.91412 0.84728 0.0
C201 C 0.62415 0.91593 0.74758 0.0
N202 N 0.59537 0.90211 0.87398 0.0
N203 N 0.59815 0.9049 0.71093 0.0
H204 H 0.55855 0.88562 0.78434 0.0
H205 H 0.63975 0.92086 0.89681 0.0
C206 C 0.63375 0.95225 0.04997 0.0
O207 O 0.64893 0.94069 0.07161 0.0
N208 N 0.57083 0.88911 0.14286 0.0
C209 C 0.54449 0.87147 0.17223 0.0
C210 C 0.5434 0.87232 0.27196 0.0
C211 C 0.58563 0.90016 0.22534 0.0
N212 N 0.56918 0.89039 0.30519 0.0
C213 C 0.528 0.8815 0.9404 0.0
C214 C 0.52657 0.92499 0.03589 0.0
C215 C 0.50184 0.90317 0.99807 0.0
C216 C 0.50277 0.8817 0.94665 0.0
C217 C 0.5513 0.9242 0.02735 0.0
N218 N 0.5519 0.90232 0.98193 0.0
H219 H 0.52774 0.86342 0.90879 0.0
H220 H 0.56909 0.94006 0.06623 0.0
H221 H 0.52723 0.85858 0.1244 0.0
H222 H 0.60781 0.91494 0.22711 0.0
O223 O 0.56403 0.85561 0.9887 0.0
O224 O 0.60801 0.88068 0.03457 0.0
O225 O 0.60787 0.93691 0.03086 0.0
C226 C 0.58686 0.85606 1.01426 0.0
H227 H 0.64318 0.92481 0.7053 0.0
H228 H 0.52523 0.85999 0.31692 0.0
H229 H 0.52649 0.94178 0.07681 0.0
H230 H 0.48385 0.8643 0.91744 0.0
Co231 Co 0.70454 0.58839 1.0177 0.0
C232 C 0.70227 0.58717 0.79809 0.0
C233 C 0.73025 0.62771 0.85687 0.0
C234 C 0.73017 0.62993 0.75726 0.0
N235 N 0.71273 0.60094 0.88307 0.0
N236 N 0.7125 0.60448 0.72006 0.0
H237 H 0.68786 0.56504 0.79262 0.0
H238 H 0.74225 0.6447 0.90681 0.0
C239 C 0.69594 0.63813 0.04344 0.0
O240 O 0.72244 0.65449 0.06451 0.0
N241 N 0.6967 0.57642 0.15231 0.0
C242 C 0.68667 0.54989 0.18379 0.0
C243 C 0.68459 0.54938 0.28344 0.0
C244 C 0.70125 0.5919 0.2337 0.0
N245 N 0.69367 0.57571 0.31468 0.0
C246 C 0.66768 0.53304 0.94554 0.0
C247 C 0.62038 0.52823 0.03237 0.0
C248 C 0.62015 0.50409 1.00005 0.0
C249 C 0.64362 0.5067 0.95192 0.0
C250 C 0.64462 0.55412 0.02378 0.0
N251 N 0.66836 0.55629 0.98411 0.0
H252 H 0.68643 0.53432 0.91642 0.0
H253 H 0.64468 0.57162 0.05894 0.0
H254 H 0.68184 0.53212 0.1378 0.0
H255 H 0.71019 0.61442 0.23388 0.0
O256 O 0.72683 0.5706 1.00871 0.0
O257 O 0.74346 0.61474 0.05259 0.0
O258 O 0.68632 0.61201 0.03032 0.0
C259 C 0.74797 0.59392 0.0377 0.0
H260 H 0.74196 0.64897 0.7155 0.0
H261 H 0.67799 0.53124 0.32985 0.0
H262 H 0.60245 0.52688 0.06946 0.0
H263 H 0.64405 0.48834 0.92593 0.0
Co264 Co 0.12527 0.69645 0.98158 0.0
C265 C 0.12606 0.69623 0.76143 0.0
C266 C 0.10741 0.71883 0.82221 0.0
C267 C 0.10645 0.72024 0.72262 0.0
N268 N 0.11954 0.70367 0.84721 0.0
N269 N 0.11841 0.70628 0.68422 0.0
H270 H 0.13641 0.68411 0.75451 0.0
H271 H 0.09982 0.72845 0.87295 0.0
C272 C 0.06782 0.68836 1.01989 0.0
O273 O 0.07841 0.71483 0.04382 0.0
N274 N 0.13082 0.68975 0.11618 0.0
C275 C 0.14738 0.67976 0.14722 0.0
C276 C 0.14709 0.67903 0.24725 0.0
C277 C 0.12109 0.69554 0.19793 0.0
N278 N 0.13073 0.68908 0.27901 0.0
C279 C 0.14217 0.65817 0.90932 0.0
C280 C 0.10016 0.61167 1.00192 0.0
C281 C 0.12309 0.61044 0.96548 0.0
C282 C 0.14378 0.63361 0.91521 0.0
C283 C 0.09921 0.63639 0.99398 0.0
N284 N 0.12043 0.65967 0.95059 0.0
H285 H 0.15968 0.67666 0.87898 0.0
H286 H 0.08269 0.63719 0.03259 0.0
H287 H 0.15942 0.67397 0.10054 0.0
H288 H 0.10753 0.70449 0.19815 0.0
O289 O 0.16498 0.71846 0.96663 0.0
O290 O 0.13832 0.7358 1.01259 0.0
O291 O 0.08387 0.67866 0.99997 0.0
C292 C 0.16333 0.74005 0.99465 0.0
H293 H 0.09712 0.73034 0.68188 0.0
H294 H 0.15877 0.67253 0.29338 0.0
H295 H 0.08385 0.59414 0.04159 0.0
H296 H 0.16201 0.63345 0.88712 0.0
Co297 Co 0.43561 0.12099 0.04055 0.0
C298 C 0.43748 0.12205 0.82178 0.0
C299 C 0.39587 0.10248 0.87864 0.0
C300 C 0.39427 0.10152 0.77868 0.0
N301 N 0.42291 0.11501 0.90607 0.0
N302 N 0.4204 0.11394 0.74313 0.0
H303 H 0.45995 0.13276 0.8172 0.0
H304 H 0.37837 0.09486 0.9278 0.0
C305 C 0.38413 0.06555 0.08196 0.0
O306 O 0.37025 0.07781 0.11142 0.0
N307 N 0.44804 0.12699 0.17492 0.0
C308 C 0.4748 0.14297 0.20347 0.0
C309 C 0.47587 0.14427 0.30318 0.0
C310 C 0.43302 0.11903 0.25821 0.0
N311 N 0.44963 0.12958 0.3378 0.0
C312 C 0.49038 0.13468 0.97302 0.0
C313 C 0.48955 0.08754 0.04711 0.0
C314 C 0.51497 0.10973 1.01466 0.0
C315 C 0.51503 0.13328 0.97481 0.0
C316 C 0.46553 0.0899 0.04543 0.0
N317 N 0.46608 0.11353 1.01063 0.0
H318 H 0.49144 0.15379 0.94809 0.0
H319 H 0.44724 0.07318 0.07908 0.0
H320 H 0.49247 0.15359 0.15528 0.0
H321 H 0.41049 0.10659 0.26051 0.0
O322 O 0.45476 0.16106 1.02198 0.0
O323 O 0.41078 0.13587 0.06806 0.0
O324 O 0.41001 0.07995 0.06213 0.0
C325 C 0.43181 0.16044 0.04704 0.0
H326 H 0.37541 0.093 0.73527 0.0
H327 H 0.49462 0.15517 0.34678 0.0
H328 H 0.48843 0.06889 0.078 0.0
H329 H 0.53426 0.15129 0.95087 0.0
Co330 Co 0.32394 0.43161 1.00377 0.0
C331 C 0.32327 0.43272 0.78615 0.0
C332 C 0.30713 0.39134 0.84483 0.0
C333 C 0.30531 0.3894 0.74499 0.0
N334 N 0.31849 0.41843 0.87068 0.0
N335 N 0.31519 0.41535 0.70799 0.0
H336 H 0.33195 0.45518 0.78194 0.0
H337 H 0.30039 0.37408 0.89532 0.0
C338 C 0.35387 0.40319 0.09568 0.0
O339 O 0.36757 0.42449 0.15496 0.0
N340 N 0.32866 0.44445 0.13863 0.0
C341 C 0.33776 0.47093 0.16907 0.0
C342 C 0.33707 0.4714 0.26897 0.0
C343 C 0.3213 0.42895 0.22133 0.0
N344 N 0.3268 0.44506 0.302 0.0
C345 C 0.36536 0.48821 0.95831 0.0
C346 C 0.41201 0.48252 0.97654 0.0
C347 C 0.41545 0.50957 0.97778 0.0
C348 C 0.39172 0.51212 0.96286 0.0
C349 C 0.38504 0.45902 0.97105 0.0
N350 N 0.36191 0.46208 0.97232 0.0
H351 H 0.34757 0.49118 0.95119 0.0
H352 H 0.38315 0.43864 0.96732 0.0
H353 H 0.34363 0.48883 0.12294 0.0
H354 H 0.31267 0.40647 0.22237 0.0
O355 O 0.30358 0.45097 0.97733 0.0
O356 O 0.28405 0.40722 0.02777 0.0
O357 O 0.33672 0.40363 0.03407 0.0
C358 C 0.28096 0.42833 1.00226 0.0
H359 H 0.29769 0.37035 0.70296 0.0
H360 H 0.34306 0.48967 0.31403 0.0
H361 H 0.42991 0.4795 0.98107 0.0
H362 H 0.39322 0.5325 0.9602 0.0
Co363 Co 0.9022 0.31894 0.03128 0.0
C364 C 0.89837 0.31682 0.81268 0.0
C365 C 0.9162 0.29319 0.87232 0.0
C366 C 0.91537 0.29053 0.77258 0.0
N367 N 0.90558 0.30965 0.89768 0.0
N368 N 0.90407 0.30529 0.73522 0.0
H369 H 0.88909 0.32999 0.80675 0.0
H370 H 0.92426 0.28392 0.92321 0.0
C371 C 0.96144 0.34239 0.1135 0.0
O372 O 0.95507 0.35139 0.19243 0.0
N373 N 0.89824 0.32743 0.16636 0.0
C374 C 0.8893 0.34493 0.19704 0.0
C375 C 0.8875 0.34397 0.29669 0.0
C376 C 0.90064 0.31518 0.24873 0.0
N377 N 0.89473 0.3254 0.32954 0.0
C378 C 0.88863 0.35985 0.96147 0.0
C379 C 0.93716 0.40683 1.02079 0.0
C380 C 0.9136 0.40928 1.00114 0.0
C381 C 0.88964 0.38572 0.96571 0.0
C382 C 0.93526 0.38047 1.01588 0.0
N383 N 0.91055 0.35691 0.99318 0.0
H384 H 0.86913 0.34175 0.94099 0.0
H385 H 0.95338 0.37933 0.03624 0.0
H386 H 0.88381 0.35733 0.1512 0.0
H387 H 0.90753 0.2999 0.24939 0.0
O388 O 0.86205 0.29984 1.01975 0.0
O389 O 0.88588 0.27933 0.06499 0.0
O390 O 0.94324 0.33057 0.04609 0.0
C391 C 0.86168 0.27709 0.0472 0.0
H392 H 0.92323 0.27929 0.73067 0.0
H393 H 0.88098 0.35583 0.34166 0.0
H394 H 0.95631 0.42473 0.04627 0.0
H395 H 0.87117 0.38691 0.94732 0.0
C396 C 0.12608 0.57841 0.08768 0.0
C397 C 0.12647 0.5861 0.98942 0.0
C398 C 0.12766 0.55454 0.11291 0.0
C399 C 0.12931 0.53747 0.04053 0.0
H400 H 0.12426 0.59084 0.14537 0.0
H401 H 0.12674 0.54894 0.18907 0.0
S402 S 0.13208 0.54892 0.77352 0.0
N403 N 0.12968 0.57532 0.82007 0.0
N404 N 0.13227 0.53017 0.86733 0.0
C405 C 0.13036 0.54524 0.94231 0.0
C406 C 0.12908 0.56969 0.91673 0.0
C407 C 0.57188 0.10141 0.14259 0.0
C408 C 0.59348 0.11188 0.07372 0.0
C409 C 0.54639 0.10026 0.12198 0.0
C410 C 0.54149 0.10931 0.0314 0.0
H411 H 0.57507 0.095 0.21393 0.0
H412 H 0.53074 0.09305 0.17878 0.0
S413 S 0.59063 0.13537 0.82274 0.0
N414 N 0.60792 0.1296 0.90953 0.0
N415 N 0.55988 0.12678 0.86965 0.0
C416 C 0.56267 0.11873 0.9607 0.0
C417 C 0.58865 0.12013 0.9821 0.0
C418 C 0.45118 0.55969 0.94261 0.0
C419 C 0.44303 0.53519 0.99744 0.0
C420 C 0.47476 0.5852 0.96794 0.0
C421 C 0.49142 0.58742 0.04903 0.0
H422 H 0.43886 0.55933 0.88052 0.0
H423 H 0.47981 0.60352 0.92422 0.0
S424 S 0.47986 0.52957 0.21565 0.0
N425 N 0.45404 0.51477 0.13606 0.0
N426 N 0.49865 0.56273 0.1825 0.0
C427 C 0.48426 0.56295 0.10245 0.0
C428 C 0.46004 0.53687 0.07694 0.0
C429 C 0.93189 0.46136 0.98747 0.0
C430 C 0.91278 0.43513 0.02732 0.0
C431 C 0.93014 0.48549 1.00912 0.0
C432 C 0.9094 0.48425 0.07205 0.0
H433 H 0.94772 0.46306 0.93705 0.0
H434 H 0.94448 0.50501 0.97354 0.0
S435 S 0.85741 0.42139 0.20736 0.0
N436 N 0.87448 0.40996 0.14041 0.0
N437 N 0.87152 0.4551 0.18239 0.0
C438 C 0.89124 0.45839 0.11636 0.0
C439 C 0.89286 0.43392 0.0937 0.0
C440 C 0.43445 0.90518 0.9708 0.0
C441 C 0.42455 0.90148 0.06733 0.0
C442 C 0.45916 0.90504 0.94808 0.0
C443 C 0.47497 0.90164 1.02143 0.0
H444 H 0.42286 0.90798 0.9123 0.0
H445 H 0.46619 0.90806 0.87311 0.0
S446 S 0.45814 0.89103 0.28491 0.0
N447 N 0.4323 0.89391 0.23616 0.0
N448 N 0.47903 0.89419 0.19382 0.0
C449 C 0.46529 0.89784 0.118 0.0
C450 C 0.43996 0.89757 0.14089 0.0
C451 C 0.58004 0.45783 0.9502 0.0
C452 C 0.59634 0.47628 0.02443 0.0
C453 C 0.55606 0.43239 0.97269 0.0
C454 C 0.54793 0.4244 0.07007 0.0
H455 H 0.58536 0.46352 0.87446 0.0
H456 H 0.54348 0.41902 0.91348 0.0
S457 S 0.58487 0.46454 0.2906 0.0
N458 N 0.60369 0.48439 0.19887 0.0
N459 N 0.55872 0.43629 0.24092 0.0
C460 C 0.5647 0.44215 0.14487 0.0
C461 C 0.58888 0.46821 0.12203 0.0
C462 C 0.22869 0.4025 0.02842 0.0
C463 C 0.25348 0.42735 1.0043 0.0
C464 C 0.20286 0.40184 0.0345 0.0
C465 C 0.20103 0.42612 1.01805 0.0
H466 H 0.22925 0.38348 0.04383 0.0
H467 H 0.18442 0.38247 0.05507 0.0
S468 S 0.2591 0.49595 0.94546 0.0
N469 N 0.27385 0.47643 0.95835 0.0
N470 N 0.22581 0.47517 0.97077 0.0
C471 C 0.22547 0.45082 0.99145 0.0
C472 C 0.25155 0.45145 0.98434 0.0
C473 C 0.83411 0.22427 0.05718 0.0
C474 C 0.83488 0.25025 0.05788 0.0
C475 C 0.80862 0.19879 0.06326 0.0
C476 C 0.78301 0.19838 0.07195 0.0
H477 H 0.85328 0.22357 0.05017 0.0
H478 H 0.809 0.17931 0.06136 0.0
S479 S 0.77376 0.26082 0.0802 0.0
N480 N 0.80774 0.27389 0.06971 0.0
N481 N 0.76028 0.22652 0.08196 0.0
C482 C 0.78365 0.22431 0.07416 0.0
C483 C 0.80943 0.25008 0.06692 0.0
C484 C 0.61387 0.80407 0.03186 0.0
C485 C 0.5891 0.77795 0.03877 0.0
C486 C 0.61322 0.82936 0.0251 0.0
C487 C 0.58775 0.82945 0.02322 0.0
H488 H 0.63393 0.80502 0.03244 0.0
H489 H 0.63278 0.84891 1.02018 0.0
S490 S 0.51694 0.7667 0.03887 0.0
N491 N 0.53837 0.75399 0.04334 0.0
N492 N 0.53713 0.80095 0.02985 0.0
C493 C 0.56289 0.80343 0.02982 0.0
C494 C 0.56356 0.77788 0.03778 0.0
C495 C 0.80057 0.61846 0.02931 0.0
C496 C 0.77501 0.59526 0.05723 0.0
C497 C 0.8257 0.61771 0.03626 0.0
C498 C 0.82609 0.59387 0.0724 0.0
H499 H 0.80099 0.63674 0.99799 0.0
H500 H 0.84477 0.6356 1.01047 0.0
S501 S 0.76488 0.52931 0.16788 0.0
N502 N 0.75189 0.549 0.13067 0.0
N503 N 0.79865 0.54765 0.14533 0.0
C504 C 0.80073 0.57125 0.1056 0.0
C505 C 0.77532 0.57194 0.09757 0.0
C506 C 0.18915 0.79294 1.00368 0.0
C507 C 0.18916 0.76741 1.00981 0.0
C508 C 0.2141 0.8188 1.01383 0.0
C509 C 0.23982 0.81998 0.03194 0.0
H510 H 0.16989 0.79297 0.98913 0.0
H511 H 0.21322 0.83796 1.00746 0.0
S512 S 0.25056 0.7588 0.06058 0.0
N513 N 0.21687 0.74495 0.0392 0.0
N514 N 0.26326 0.79298 0.05867 0.0
C515 C 0.23983 0.79447 0.04022 0.0
C516 C 0.21465 0.76836 0.0291 0.0
C517 C 0.4558 0.21255 0.05668 0.0
C518 C 0.43063 0.18684 0.05378 0.0
C519 C 0.45607 0.23806 0.06333 0.0
C520 C 0.43118 0.23921 0.06614 0.0
H521 H 0.47566 0.21308 0.05467 0.0
H522 H 0.47615 0.25712 0.06546 0.0
S523 S 0.35949 0.17797 0.0592 0.0
N524 N 0.37995 0.16406 0.054 0.0
N525 N 0.38048 0.21224 0.06487 0.0
C526 C 0.40576 0.21372 0.06249 0.0
C527 C 0.40548 0.18751 0.05694 0.0
C528 C 0.13436 0.40566 0.51943 0.0
C529 C 0.12827 0.42059 0.44908 0.0
C530 C 0.13587 0.41206 0.61902 0.0
C531 C 0.13159 0.43376 0.65187 0.0
H532 H 0.1387 0.38936 0.4972 0.0
H533 H 0.14147 0.4007 0.67032 0.0
S534 S 0.11172 0.47692 0.50049 0.0
N535 N 0.11526 0.45627 0.42156 0.0
N536 N 0.11892 0.46873 0.60838 0.0
C537 C 0.12465 0.44826 0.58316 0.0
C538 C 0.12283 0.44161 0.48188 0.0
C539 C 0.73476 0.12703 0.54265 0.0
C540 C 0.71525 0.12579 0.47334 0.0
C541 C 0.73198 0.13101 0.64219 0.0
C542 C 0.70974 0.13415 0.67601 0.0
H543 H 0.75265 0.12545 0.5196 0.0
H544 H 0.74775 0.13248 0.69268 0.0
S545 S 0.65135 0.12942 0.52767 0.0
N546 N 0.6716 0.12565 0.44799 0.0
N547 N 0.66679 0.13373 0.6345 0.0
C548 C 0.68974 0.13228 0.60828 0.0
C549 C 0.69241 0.12801 0.50713 0.0
C550 C 0.57453 0.69131 0.48298 0.0
C551 C 0.59807 0.71579 0.44937 0.0
C552 C 0.56767 0.68742 0.58235 0.0
C553 C 0.58411 0.7078 0.65211 0.0
H554 H 0.56154 0.67485 0.43226 0.0
H555 H 0.5494 0.6682 0.60508 0.0
S556 S 0.64635 0.77672 0.6016 0.0
N557 N 0.63679 0.7616 0.49368 0.0
N558 N 0.62398 0.75393 0.68029 0.0
C559 C 0.60752 0.73246 0.61967 0.0
C560 C 0.61445 0.73656 0.51839 0.0
C561 C 0.89933 0.61389 0.52262 0.0
C562 C 0.89673 0.59363 0.45394 0.0
C563 C 0.89402 0.6074 0.62202 0.0
C564 C 0.88559 0.58034 0.6564 0.0
H565 H 0.90506 0.63486 0.49928 0.0
H566 H 0.8958 0.62343 0.67198 0.0
S567 S 0.87825 0.52042 0.51008 0.0
N568 N 0.88722 0.54589 0.42997 0.0
N569 N 0.87656 0.53361 0.61622 0.0
C570 C 0.88337 0.56002 0.58936 0.0
C571 C 0.88905 0.56666 0.48832 0.0
C572 C 0.32903 0.89036 0.58764 0.0
C573 C 0.30738 0.88126 0.65682 0.0
C574 C 0.32428 0.89256 0.48855 0.0
C575 C 0.29774 0.88604 0.45446 0.0
H576 H 0.35002 0.89628 0.61039 0.0
H577 H 0.34165 0.90006 0.43844 0.0
S578 S 0.23343 0.8592 0.60308 0.0
N579 N 0.25796 0.86413 0.68259 0.0
N580 N 0.24914 0.86875 0.49623 0.0
C581 C 0.2758 0.87665 0.52221 0.0
C582 C 0.28059 0.8742 0.62335 0.0
C583 C 0.45153 0.30467 0.50986 0.0
C584 C 0.43075 0.31006 0.47536 0.0
C585 C 0.45803 0.3067 0.60932 0.0
C586 C 0.44421 0.31452 0.67812 0.0
H587 H 0.46238 0.2982 0.45977 0.0
H588 H 0.47382 0.30177 0.6326 0.0
S589 S 0.38978 0.33327 0.62268 0.0
N590 N 0.39724 0.32481 0.51593 0.0
N591 N 0.40985 0.32927 0.70291 0.0
C592 C 0.42367 0.32044 0.64404 0.0
C593 C 0.41689 0.31811 0.54267 0.0
C594 C 0.60084 0.89531 0.44003 0.0
C595 C 0.57724 0.89603 0.40597 0.0
C596 C 0.60744 0.89816 0.53963 0.0
C597 C 0.59084 0.9021 0.60879 0.0
H598 H 0.61372 0.89161 0.38965 0.0
H599 H 0.62539 0.89665 0.56279 0.0
S600 S 0.5286 0.9088 0.55387 0.0
N601 N 0.53831 0.90284 0.44696 0.0
N602 N 0.55104 0.90892 0.63387 0.0
C603 C 0.56767 0.90377 0.57478 0.0
C604 C 0.56083 0.9006 0.47347 0.0
C605 C 0.72754 0.61283 0.54753 0.0
C606 C 0.70676 0.59767 0.61778 0.0
C607 C 0.72278 0.60638 0.44796 0.0
C608 C 0.69717 0.58435 0.41499 0.0
H609 H 0.74795 0.62938 0.56978 0.0
H610 H 0.73956 0.61796 0.39677 0.0
S611 S 0.63482 0.54021 0.56561 0.0
N612 N 0.65859 0.56125 0.64471 0.0
N613 N 0.65014 0.54865 0.45795 0.0
C614 C 0.67596 0.56953 0.48346 0.0
C615 C 0.68063 0.57627 0.58471 0.0
C616 C 0.12163 0.67272 0.44935 0.0
C617 C 0.12639 0.69335 0.37947 0.0
C618 C 0.11915 0.67709 0.54868 0.0
C619 C 0.12156 0.70237 0.58192 0.0
H620 H 0.11974 0.653 0.42673 0.0
H621 H 0.11503 0.66045 0.59968 0.0
S622 S 0.13702 0.76414 0.42877 0.0
N623 N 0.13504 0.74047 0.35042 0.0
N624 N 0.13101 0.7491 0.537 0.0
C625 C 0.12682 0.72337 0.51265 0.0
C626 C 0.12906 0.71876 0.41147 0.0
C627 C 0.42003 0.10058 0.47401 0.0
C628 C 0.44161 0.12632 0.43908 0.0
C629 C 0.41329 0.09663 0.57359 0.0
C630 C 0.42798 0.11822 0.64167 0.0
H631 H 0.40874 0.08323 0.42435 0.0
H632 H 0.39675 0.07642 0.59794 0.0
S633 S 0.48361 0.1906 0.58624 0.0
N634 N 0.47571 0.17455 0.47965 0.0
N635 N 0.4633 0.1668 0.66646 0.0
C636 C 0.44903 0.14422 0.60747 0.0
C637 C 0.45575 0.14836 0.50626 0.0
C638 C 0.34054 0.44738 0.57174 0.0
C639 C 0.31734 0.42273 0.60603 0.0
C640 C 0.34356 0.4543 0.47234 0.0
C641 C 0.32352 0.43686 0.40321 0.0
H642 H 0.35673 0.46116 0.62189 0.0
H643 H 0.36193 0.47335 0.44911 0.0
S644 S 0.25756 0.37142 0.45635 0.0
N645 N 0.27296 0.38181 0.56355 0.0
N646 N 0.27887 0.39482 0.37689 0.0
C647 C 0.30003 0.41239 0.43658 0.0
C648 C 0.29687 0.40535 0.53788 0.0
C649 C 0.90741 0.33626 0.59971 0.0
C650 C 0.90092 0.30959 0.63335 0.0
C651 C 0.90562 0.34121 0.50048 0.0
C652 C 0.89707 0.31965 0.43079 0.0
H653 H 0.91449 0.35357 0.65032 0.0
H654 H 0.91132 0.36224 0.47798 0.0
S655 S 0.87536 0.24545 0.48274 0.0
N656 N 0.88421 0.26096 0.59026 0.0
N657 N 0.88054 0.27022 0.40366 0.0
C658 C 0.89012 0.29276 0.46366 0.0
C659 C 0.89207 0.28774 0.56491 0.0
C660 C 0.02606 0.34768 0.99018 0.0
C661 C 0.04804 0.36732 0.04843 0.0
C662 C 0.99807 0.3393 1.01264 0.0
C663 C 0.99103 0.34991 0.09505 0.0
H664 H 0.03054 0.33953 0.92506 0.0
H665 H 0.98188 0.32471 0.96405 0.0
S666 S 0.04129 0.39976 0.27646 0.0
N667 N 0.06098 0.39566 0.19548 0.0
N668 N 1.00888 0.37982 0.23848 0.0
C669 C 0.01297 0.36864 0.15607 0.0
C670 C 0.0413 0.37735 0.13253 0.0
C671 C 0.63124 0.99394 0.98891 0.0
C672 C 0.64667 0.98323 0.0362 0.0
C673 C 0.64246 0.0227 0.97216 0.0
C674 C 0.66966 0.04237 1.00242 0.0
H675 H 0.61016 0.97998 0.96381 0.0
H676 H 0.62934 0.02954 0.93668 0.0
S677 S 0.7194 0.02562 0.12686 0.0
N678 N 0.69107 0.99482 0.11105 0.0
N679 N 0.71215 0.04892 0.07999 0.0
C680 C 0.68555 0.03204 0.04881 0.0
C681 C 0.67411 1.00256 0.06547 0.0
C682 C 0.65179 0.6334 0.97367 0.0
C683 C 0.67704 0.64979 0.02453 0.0
C684 C 0.63341 0.64338 0.95304 0.0
C685 C 0.63917 0.67018 0.98299 0.0
H686 H 0.64605 0.61253 0.94891 0.0
H687 H 0.61416 0.62958 0.91511 0.0
S688 S 0.7028 0.72206 0.11559 0.0
N689 N 0.70716 0.69467 0.10207 0.0
N690 N 0.67255 0.71341 0.06382 0.0
C691 C 0.66453 0.68704 0.0327 0.0
C692 C 0.68344 0.6769 0.0532 0.0
C693 C 0.02714 0.64227 0.96901 0.0
C694 C 0.03711 0.66951 1.0065 0.0
C695 C 0.99863 0.62386 0.95343 0.0
C696 C 0.97858 0.63168 0.97476 0.0
H697 H 0.04145 0.63487 0.95121 0.0
H698 H 0.99228 0.60304 0.92647 0.0
S699 S 0.99333 0.7011 0.06806 0.0
N700 N 0.02437 0.70371 0.06062 0.0
N701 N 0.97077 0.66917 0.03054 0.0
C702 C 0.98815 0.65904 1.01016 0.0
C703 C 0.01733 0.67789 0.02616 0.0
C704 C 0.33295 0.98676 0.0797 0.0
C705 C 0.34142 0.97767 0.99704 0.0
C706 C 0.34635 0.01528 0.10631 0.0
C707 C 0.36923 0.03556 0.05291 0.0
H708 H 0.31588 0.97172 0.12429 0.0
H709 H 0.33921 0.02137 0.17033 0.0
S710 S 0.39932 0.02295 0.82949 0.0
N711 N 0.37379 0.99167 0.86083 0.0
N712 N 0.39917 0.04468 0.91178 0.0
C713 C 0.37771 0.02674 0.96978 0.0
C714 C 0.36377 0.99798 0.94161 0.0
C715 C 0.34833 0.35901 1.01868 0.0
C716 C 0.36174 0.3809 0.08742 0.0
C717 C 0.35686 0.33906 1.00382 0.0
C718 C 0.37935 0.34037 0.05624 0.0
H719 H 0.33136 0.35747 0.97455 0.0
H720 H 0.34627 0.323 0.94904 0.0
S721 S 0.41977 0.3915 0.25171 0.0
N722 N 0.39745 0.40111 0.21339 0.0
N723 N 0.41341 0.36396 0.18544 0.0
C724 C 0.39229 0.3615 0.12754 0.0
C725 C 0.38351 0.38162 0.14316 0.0
loop_
_geom_bond_atom_site_label_1
_geom_bond_atom_site_label_2
_geom_bond_distance
_geom_bond_site_symmetry_2
_ccdc_geom_bond_type
Co0 N4 2.148 . S
Co0 N10 2.128 1_554 S
Co0 N20 2.194 . S
Co0 O25 2.351 . S
Co0 O26 2.155 . S
Co0 O27 2.096 1_554 S
C1 N4 1.301 . S
C1 N5 1.328 . S
C1 H6 0.930 . S
C2 C3 1.333 . S
C2 N4 1.317 . S
C2 H7 0.930 . S
C3 C2 1.333 . S
C3 N5 1.350 . S
C3 H29 0.931 . S
N4 Co0 2.148 . S
N4 C1 1.301 . S
N4 C2 1.317 . S
N5 C1 1.328 . S
N5 C3 1.350 . S
H6 C1 0.930 . S
H7 C2 0.930 . S
C8 O9 1.224 . S
C8 O27 1.247 . S
O9 C8 1.224 . S
N10 Co0 2.128 1_556 S
N10 C11 1.355 . S
N10 C13 1.311 . S
C11 N10 1.355 . S
C11 C12 1.363 . S
C11 H23 0.929 . S
C12 C11 1.363 . S
C12 N14 1.375 . S
C12 H30 0.931 . S
C13 N10 1.311 . S
C13 N14 1.347 . S
C13 H24 0.929 . S
N14 C12 1.375 . S
N14 C13 1.347 . S
C15 C18 1.365 . S
C15 N20 1.328 . S
C15 H21 0.929 . S
C16 C17 1.362 . S
C16 C19 1.378 . S
C16 H31 0.929 . S
C17 C16 1.362 . S
C17 C18 1.366 . S
C18 C15 1.365 . S
C18 C17 1.366 . S
C18 H32 0.930 . S
C19 C16 1.378 . S
C19 N20 1.315 . S
C19 H22 0.930 . S
N20 Co0 2.194 . S
N20 C15 1.328 . S
N20 C19 1.315 . S
H21 C15 0.929 . S
H22 C19 0.930 . S
H23 C11 0.929 . S
H24 C13 0.929 . S
O25 Co0 2.351 . S
O25 C28 1.244 . S
O26 Co0 2.155 . S
O26 C28 1.240 . S
O27 Co0 2.096 1_556 S
O27 C8 1.247 . S
C28 O25 1.244 . S
C28 O26 1.240 . S
H29 C3 0.931 . S
H30 C12 0.931 . S
H31 C16 0.929 . S
H32 C18 0.930 . S
Co33 N37 2.148 . S
Co33 N43 2.128 1_554 S
Co33 N53 2.194 . S
Co33 O58 2.351 . S
Co33 O59 2.155 . S
Co33 O60 2.096 1_554 S
C34 N37 1.301 . S
C34 N38 1.328 . S
C34 H39 0.930 . S
C35 C36 1.333 . S
C35 N37 1.317 . S
C35 H40 0.930 . S
C36 C35 1.333 . S
C36 N38 1.350 . S
C36 H62 0.931 . S
N37 Co33 2.148 . S
N37 C34 1.301 . S
N37 C35 1.317 . S
N38 C34 1.328 . S
N38 C36 1.350 . S
H39 C34 0.930 . S
H40 C35 0.930 . S
C41 O42 1.224 . S
C41 O60 1.247 . S
O42 C41 1.224 . S
N43 Co33 2.128 1_556 S
N43 C44 1.355 . S
N43 C46 1.311 . S
C44 N43 1.355 . S
C44 C45 1.363 . S
C44 H56 0.929 . S
C45 C44 1.363 . S
C45 N47 1.375 . S
C45 H63 0.931 . S
C46 N43 1.311 . S
C46 N47 1.347 . S
C46 H57 0.929 . S
N47 C45 1.375 . S
N47 C46 1.347 . S
C48 C51 1.365 . S
C48 N53 1.328 . S
C48 H54 0.929 . S
C49 C50 1.362 . S
C49 C52 1.378 . S
C49 H64 0.929 . S
C50 C49 1.362 . S
C50 C51 1.366 . S
C51 C48 1.365 . S
C51 C50 1.366 . S
C51 H65 0.930 . S
C52 C49 1.378 . S
C52 N53 1.315 . S
C52 H55 0.930 . S
N53 Co33 2.194 . S
N53 C48 1.328 . S
N53 C52 1.315 . S
H54 C48 0.929 . S
H55 C52 0.930 . S
H56 C44 0.929 . S
H57 C46 0.929 . S
O58 Co33 2.351 . S
O58 C61 1.244 . S
O59 Co33 2.155 . S
O59 C61 1.240 . S
O60 Co33 2.096 1_556 S
O60 C41 1.247 . S
C61 O58 1.244 . S
C61 O59 1.240 . S
H62 C36 0.931 . S
H63 C45 0.931 . S
H64 C49 0.929 . S
H65 C51 0.930 . S
Co66 N70 2.148 . S
Co66 N76 2.128 1_554 S
Co66 N86 2.194 . S
Co66 O91 2.351 . S
Co66 O92 2.155 . S
Co66 O93 2.096 1_554 S
C67 N70 1.301 . S
C67 N71 1.328 . S
C67 H72 0.930 . S
C68 C69 1.333 . S
C68 N70 1.317 . S
C68 H73 0.930 . S
C69 C68 1.333 . S
C69 N71 1.350 . S
C69 H95 0.931 . S
N70 Co66 2.148 . S
N70 C67 1.301 . S
N70 C68 1.317 . S
N71 C67 1.328 . S
N71 C69 1.350 . S
H72 C67 0.930 . S
H73 C68 0.930 . S
C74 O75 1.224 . S
C74 O93 1.247 . S
O75 C74 1.224 . S
N76 Co66 2.128 1_556 S
N76 C77 1.355 . S
N76 C79 1.311 . S
C77 N76 1.355 . S
C77 C78 1.363 . S
C77 H89 0.929 . S
C78 C77 1.363 . S
C78 N80 1.375 . S
C78 H96 0.931 . S
C79 N76 1.311 . S
C79 N80 1.347 . S
C79 H90 0.929 . S
N80 C78 1.375 . S
N80 C79 1.347 . S
C81 C84 1.365 . S
C81 N86 1.328 . S
C81 H87 0.929 . S
C82 C83 1.362 . S
C82 C85 1.378 . S
C82 H97 0.929 . S
C83 C82 1.362 . S
C83 C84 1.366 . S
C84 C81 1.365 . S
C84 C83 1.366 . S
C84 H98 0.930 . S
C85 C82 1.378 . S
C85 N86 1.315 . S
C85 H88 0.930 . S
N86 Co66 2.194 . S
N86 C81 1.328 . S
N86 C85 1.315 . S
H87 C81 0.929 . S
H88 C85 0.930 . S
H89 C77 0.929 . S
H90 C79 0.929 . S
O91 Co66 2.351 . S
O91 C94 1.244 . S
O92 Co66 2.155 . S
O92 C94 1.240 . S
O93 Co66 2.096 1_556 S
O93 C74 1.247 . S
C94 O91 1.244 . S
C94 O92 1.240 . S
H95 C69 0.931 . S
H96 C78 0.931 . S
H97 C82 0.929 . S
H98 C84 0.930 . S
Co99 N103 2.148 . S
Co99 N109 2.128 1_554 S
Co99 N119 2.194 . S
Co99 O124 2.351 . S
Co99 O125 2.155 . S
Co99 O126 2.096 1_554 S
C100 N103 1.301 . S
C100 N104 1.328 . S
C100 H105 0.930 . S
C101 C102 1.333 . S
C101 N103 1.317 . S
C101 H106 0.930 . S
C102 C101 1.333 . S
C102 N104 1.350 . S
C102 H128 0.931 . S
N103 Co99 2.148 . S
N103 C100 1.301 . S
N103 C101 1.317 . S
N104 C100 1.328 . S
N104 C102 1.350 . S
H105 C100 0.930 . S
H106 C101 0.930 . S
C107 O108 1.224 . S
C107 O126 1.247 . S
O108 C107 1.224 . S
N109 Co99 2.128 1_556 S
N109 C110 1.355 . S
N109 C112 1.311 . S
C110 N109 1.355 . S
C110 C111 1.363 . S
C110 H122 0.929 . S
C111 C110 1.363 . S
C111 N113 1.375 . S
C111 H129 0.931 . S
C112 N109 1.311 . S
C112 N113 1.347 . S
C112 H123 0.929 . S
N113 C111 1.375 . S
N113 C112 1.347 . S
C114 C117 1.365 . S
C114 N119 1.328 . S
C114 H120 0.929 . S
C115 C116 1.362 . S
C115 C118 1.378 . S
C115 H130 0.929 . S
C116 C115 1.362 . S
C116 C117 1.366 . S
C117 C114 1.365 . S
C117 C116 1.366 . S
C117 H131 0.930 . S
C118 C115 1.378 . S
C118 N119 1.315 . S
C118 H121 0.930 . S
N119 Co99 2.194 . S
N119 C114 1.328 . S
N119 C118 1.315 . S
H120 C114 0.929 . S
H121 C118 0.930 . S
H122 C110 0.929 . S
H123 C112 0.929 . S
O124 Co99 2.351 . S
O124 C127 1.244 . S
O125 Co99 2.155 . S
O125 C127 1.240 . S
O126 Co99 2.096 1_556 S
O126 C107 1.247 . S
C127 O124 1.244 . S
C127 O125 1.240 . S
H128 C102 0.931 . S
H129 C111 0.931 . S
H130 C115 0.929 . S
H131 C117 0.930 . S
Co132 N136 2.148 . S
Co132 N142 2.128 1_554 S
Co132 N152 2.194 . S
Co132 O157 2.351 . S
Co132 O158 2.155 . S
Co132 O159 2.096 1_554 S
C133 N136 1.301 . S
C133 N137 1.328 . S
C133 H138 0.930 . S
C134 C135 1.333 . S
C134 N136 1.317 . S
C134 H139 0.930 . S
C135 C134 1.333 . S
C135 N137 1.350 . S
C135 H161 0.931 . S
N136 Co132 2.148 . S
N136 C133 1.301 . S
N136 C134 1.317 . S
N137 C133 1.328 . S
N137 C135 1.350 . S
H138 C133 0.930 . S
H139 C134 0.930 . S
C140 O141 1.224 . S
C140 O159 1.247 . S
O141 C140 1.224 . S
N142 Co132 2.128 1_556 S
N142 C143 1.355 . S
N142 C145 1.311 . S
C143 N142 1.355 . S
C143 C144 1.363 . S
C143 H155 0.929 . S
C144 C143 1.363 . S
C144 N146 1.375 . S
C144 H162 0.931 . S
C145 N142 1.311 . S
C145 N146 1.347 . S
C145 H156 0.929 . S
N146 C144 1.375 . S
N146 C145 1.347 . S
C147 C150 1.365 . S
C147 N152 1.328 . S
C147 H153 0.929 . S
C148 C149 1.362 . S
C148 C151 1.378 . S
C148 H163 0.929 . S
C149 C148 1.362 . S
C149 C150 1.366 . S
C150 C147 1.365 . S
C150 C149 1.366 . S
C150 H164 0.930 . S
C151 C148 1.378 . S
C151 N152 1.315 . S
C151 H154 0.930 . S
N152 Co132 2.194 . S
N152 C147 1.328 . S
N152 C151 1.315 . S
H153 C147 0.929 . S
H154 C151 0.930 . S
H155 C143 0.929 . S
H156 C145 0.929 . S
O157 Co132 2.351 . S
O157 C160 1.244 . S
O158 Co132 2.155 . S
O158 C160 1.240 . S
O159 Co132 2.096 1_556 S
O159 C140 1.247 . S
C160 O157 1.244 . S
C160 O158 1.240 . S
H161 C135 0.931 . S
H162 C144 0.931 . S
H163 C148 0.929 . S
H164 C150 0.930 . S
Co165 N169 2.148 . S
Co165 N175 2.128 1_554 S
Co165 N185 2.194 . S
Co165 O190 2.351 . S
Co165 O191 2.155 . S
Co165 O192 2.096 1_554 S
C166 N169 1.301 . S
C166 N170 1.328 . S
C166 H171 0.930 . S
C167 C168 1.333 . S
C167 N169 1.317 . S
C167 H172 0.930 . S
C168 C167 1.333 . S
C168 N170 1.350 . S
C168 H194 0.931 . S
N169 Co165 2.148 . S
N169 C166 1.301 . S
N169 C167 1.317 . S
N170 C166 1.328 . S
N170 C168 1.350 . S
H171 C166 0.930 . S
H172 C167 0.930 . S
C173 O174 1.224 . S
C173 O192 1.247 . S
O174 C173 1.224 . S
N175 Co165 2.128 1_556 S
N175 C176 1.355 . S
N175 C178 1.311 . S
C176 N175 1.355 . S
C176 C177 1.363 . S
C176 H188 0.929 . S
C177 C176 1.363 . S
C177 N179 1.375 . S
C177 H195 0.931 . S
C178 N175 1.311 . S
C178 N179 1.347 . S
C178 H189 0.929 . S
N179 C177 1.375 . S
N179 C178 1.347 . S
C180 C183 1.365 . S
C180 N185 1.328 . S
C180 H186 0.929 . S
C181 C182 1.362 . S
C181 C184 1.378 . S
C181 H196 0.929 . S
C182 C181 1.362 . S
C182 C183 1.366 . S
C183 C180 1.365 . S
C183 C182 1.366 . S
C183 H197 0.930 . S
C184 C181 1.378 . S
C184 N185 1.315 . S
C184 H187 0.930 . S
N185 Co165 2.194 . S
N185 C180 1.328 . S
N185 C184 1.315 . S
H186 C180 0.929 . S
H187 C184 0.930 . S
H188 C176 0.929 . S
H189 C178 0.929 . S
O190 Co165 2.351 . S
O190 C193 1.244 . S
O191 Co165 2.155 . S
O191 C193 1.240 . S
O192 Co165 2.096 1_556 S
O192 C173 1.247 . S
C193 O190 1.244 . S
C193 O191 1.240 . S
H194 C168 0.931 . S
H195 C177 0.931 . S
H196 C181 0.929 . S
H197 C183 0.930 . S
Co198 N202 2.148 1_554 S
Co198 N208 2.128 . S
Co198 N218 2.194 . S
Co198 O223 2.351 1_554 S
Co198 O224 2.155 . S
Co198 O225 2.096 . S
C199 N202 1.301 . S
C199 N203 1.328 . S
C199 H204 0.930 . S
C200 C201 1.333 . S
C200 N202 1.317 . S
C200 H205 0.930 . S
C201 C200 1.333 . S
C201 N203 1.350 . S
C201 H227 0.931 . S
N202 Co198 2.148 1_556 S
N202 C199 1.301 . S
N202 C200 1.317 . S
N203 C199 1.328 . S
N203 C201 1.350 . S
H204 C199 0.930 . S
H205 C200 0.930 . S
C206 O207 1.224 . S
C206 O225 1.247 . S
O207 C206 1.224 . S
N208 Co198 2.128 . S
N208 C209 1.355 . S
N208 C211 1.311 . S
C209 N208 1.355 . S
C209 C210 1.363 . S
C209 H221 0.929 . S
C210 C209 1.363 . S
C210 N212 1.375 . S
C210 H228 0.931 . S
C211 N208 1.311 . S
C211 N212 1.347 . S
C211 H222 0.929 . S
N212 C210 1.375 . S
N212 C211 1.347 . S
C213 C216 1.365 . S
C213 N218 1.327 1_556 S
C213 H219 0.929 . S
C214 C215 1.362 . S
C214 C217 1.378 . S
C214 H229 0.929 . S
C215 C214 1.362 . S
C215 C216 1.366 1_554 S
C216 C213 1.365 . S
C216 C215 1.366 1_556 S
C216 H230 0.930 . S
C217 C214 1.378 . S
C217 N218 1.316 . S
C217 H220 0.930 . S
N218 Co198 2.194 . S
N218 C213 1.327 1_554 S
N218 C217 1.316 . S
H219 C213 0.929 . S
H220 C217 0.930 . S
H221 C209 0.929 . S
H222 C211 0.929 . S
O223 Co198 2.351 1_556 S
O223 C226 1.244 . S
O224 Co198 2.155 . S
O224 C226 1.239 1_554 S
O225 Co198 2.096 . S
O225 C206 1.247 . S
C226 O223 1.244 . S
C226 O224 1.239 1_556 S
H227 C201 0.931 . S
H228 C210 0.931 . S
H229 C214 0.929 . S
H230 C216 0.930 . S
Co231 N235 2.148 1_554 S
Co231 N241 2.128 . S
Co231 N251 2.194 . S
Co231 O256 2.351 1_554 S
Co231 O257 2.155 . S
Co231 O258 2.096 . S
C232 N235 1.301 . S
C232 N236 1.328 . S
C232 H237 0.930 . S
C233 C234 1.333 . S
C233 N235 1.317 . S
C233 H238 0.930 . S
C234 C233 1.333 . S
C234 N236 1.350 . S
C234 H260 0.931 . S
N235 Co231 2.148 1_556 S
N235 C232 1.301 . S
N235 C233 1.317 . S
N236 C232 1.328 . S
N236 C234 1.350 . S
H237 C232 0.930 . S
H238 C233 0.930 . S
C239 O240 1.224 . S
C239 O258 1.247 . S
O240 C239 1.224 . S
N241 Co231 2.128 . S
N241 C242 1.355 . S
N241 C244 1.311 . S
C242 N241 1.355 . S
C242 C243 1.363 . S
C242 H254 0.929 . S
C243 C242 1.363 . S
C243 N245 1.375 . S
C243 H261 0.931 . S
C244 N241 1.311 . S
C244 N245 1.347 . S
C244 H255 0.929 . S
N245 C243 1.375 . S
N245 C244 1.347 . S
C246 C249 1.365 . S
C246 N251 1.327 1_556 S
C246 H252 0.929 . S
C247 C248 1.362 . S
C247 C250 1.378 . S
C247 H262 0.929 . S
C248 C247 1.362 . S
C248 C249 1.366 1_554 S
C249 C246 1.365 . S
C249 C248 1.366 1_556 S
C249 H263 0.930 . S
C250 C247 1.378 . S
C250 N251 1.316 . S
C250 H253 0.930 . S
N251 Co231 2.194 . S
N251 C246 1.327 1_554 S
N251 C250 1.316 . S
H252 C246 0.929 . S
H253 C250 0.930 . S
H254 C242 0.929 . S
H255 C244 0.929 . S
O256 Co231 2.351 1_556 S
O256 C259 1.244 . S
O257 Co231 2.155 . S
O257 C259 1.239 1_554 S
O258 Co231 2.096 . S
O258 C239 1.247 . S
C259 O256 1.244 . S
C259 O257 1.239 1_556 S
H260 C234 0.931 . S
H261 C243 0.931 . S
H262 C247 0.929 . S
H263 C249 0.930 . S
Co264 N268 2.148 1_554 S
Co264 N274 2.128 . S
Co264 N284 2.194 . S
Co264 O289 2.351 1_554 S
Co264 O290 2.155 . S
Co264 O291 2.096 . S
C265 N268 1.301 . S
C265 N269 1.328 . S
C265 H270 0.930 . S
C266 C267 1.333 . S
C266 N268 1.317 . S
C266 H271 0.930 . S
C267 C266 1.333 . S
C267 N269 1.350 . S
C267 H293 0.931 . S
N268 Co264 2.148 1_556 S
N268 C265 1.301 . S
N268 C266 1.317 . S
N269 C265 1.328 . S
N269 C267 1.350 . S
H270 C265 0.930 . S
H271 C266 0.930 . S
C272 O273 1.224 . S
C272 O291 1.247 . S
O273 C272 1.224 . S
N274 Co264 2.128 . S
N274 C275 1.355 . S
N274 C277 1.311 . S
C275 N274 1.355 . S
C275 C276 1.363 . S
C275 H287 0.929 . S
C276 C275 1.363 . S
C276 N278 1.375 . S
C276 H294 0.931 . S
C277 N274 1.311 . S
C277 N278 1.347 . S
C277 H288 0.929 . S
N278 C276 1.375 . S
N278 C277 1.347 . S
C279 C282 1.365 . S
C279 N284 1.327 1_556 S
C279 H285 0.929 . S
C280 C281 1.362 . S
C280 C283 1.378 . S
C280 H295 0.929 . S
C281 C280 1.362 . S
C281 C282 1.366 1_554 S
C282 C279 1.365 . S
C282 C281 1.366 1_556 S
C282 H296 0.930 . S
C283 C280 1.378 . S
C283 N284 1.316 . S
C283 H286 0.930 . S
N284 Co264 2.194 . S
N284 C279 1.327 1_554 S
N284 C283 1.316 . S
H285 C279 0.929 . S
H286 C283 0.930 . S
H287 C275 0.929 . S
H288 C277 0.929 . S
O289 Co264 2.351 1_556 S
O289 C292 1.244 . S
O290 Co264 2.155 . S
O290 C292 1.239 1_554 S
O291 Co264 2.096 . S
O291 C272 1.247 . S
C292 O289 1.244 . S
C292 O290 1.239 1_556 S
H293 C267 0.931 . S
H294 C276 0.931 . S
H295 C280 0.929 . S
H296 C282 0.930 . S
Co297 N301 2.148 1_554 S
Co297 N307 2.128 . S
Co297 N317 2.194 . S
Co297 O322 2.351 1_554 S
Co297 O323 2.155 . S
Co297 O324 2.096 . S
C298 N301 1.301 . S
C298 N302 1.328 . S
C298 H303 0.930 . S
C299 C300 1.333 . S
C299 N301 1.317 . S
C299 H304 0.930 . S
C300 C299 1.333 . S
C300 N302 1.350 . S
C300 H326 0.931 . S
N301 Co297 2.148 1_556 S
N301 C298 1.301 . S
N301 C299 1.317 . S
N302 C298 1.328 . S
N302 C300 1.350 . S
H303 C298 0.930 . S
H304 C299 0.930 . S
C305 O306 1.224 . S
C305 O324 1.247 . S
O306 C305 1.224 . S
N307 Co297 2.128 . S
N307 C308 1.355 . S
N307 C310 1.311 . S
C308 N307 1.355 . S
C308 C309 1.363 . S
C308 H320 0.929 . S
C309 C308 1.363 . S
C309 N311 1.375 . S
C309 H327 0.931 . S
C310 N307 1.311 . S
C310 N311 1.347 . S
C310 H321 0.929 . S
N311 C309 1.375 . S
N311 C310 1.347 . S
C312 C315 1.365 . S
C312 N317 1.327 1_556 S
C312 H318 0.929 . S
C313 C314 1.362 . S
C313 C316 1.378 . S
C313 H328 0.929 . S
C314 C313 1.362 . S
C314 C315 1.366 1_554 S
C315 C312 1.365 . S
C315 C314 1.366 1_556 S
C315 H329 0.930 . S
C316 C313 1.378 . S
C316 N317 1.316 . S
C316 H319 0.930 . S
N317 Co297 2.194 . S
N317 C312 1.327 1_554 S
N317 C316 1.316 . S
H318 C312 0.929 . S
H319 C316 0.930 . S
H320 C308 0.929 . S
H321 C310 0.929 . S
O322 Co297 2.351 1_556 S
O322 C325 1.244 . S
O323 Co297 2.155 . S
O323 C325 1.239 1_554 S
O324 Co297 2.096 . S
O324 C305 1.247 . S
C325 O322 1.244 . S
C325 O323 1.239 1_556 S
H326 C300 0.931 . S
H327 C309 0.931 . S
H328 C313 0.929 . S
H329 C315 0.930 . S
Co330 N334 2.148 1_554 S
Co330 N340 2.128 . S
Co330 N350 2.194 . S
Co330 O355 2.351 1_554 S
Co330 O356 2.155 . S
Co330 O357 2.096 . S
C331 N334 1.301 . S
C331 N335 1.328 . S
C331 H336 0.930 . S
C332 C333 1.333 . S
C332 N334 1.317 . S
C332 H337 0.930 . S
C333 C332 1.333 . S
C333 N335 1.350 . S
C333 H359 0.931 . S
N334 Co330 2.148 1_556 S
N334 C331 1.301 . S
N334 C332 1.317 . S
N335 C331 1.328 . S
N335 C333 1.350 . S
H336 C331 0.930 . S
H337 C332 0.930 . S
C338 O339 1.224 . S
C338 O357 1.247 . S
O339 C338 1.224 . S
N340 Co330 2.128 . S
N340 C341 1.355 . S
N340 C343 1.311 . S
C341 N340 1.355 . S
C341 C342 1.363 . S
C341 H353 0.929 . S
C342 C341 1.363 . S
C342 N344 1.375 . S
C342 H360 0.931 . S
C343 N340 1.311 . S
C343 N344 1.347 . S
C343 H354 0.929 . S
N344 C342 1.375 . S
N344 C343 1.347 . S
C345 C348 1.365 . S
C345 N350 1.327 1_556 S
C345 H351 0.929 . S
C346 C347 1.362 . S
C346 C349 1.378 . S
C346 H361 0.929 . S
C347 C346 1.362 . S
C347 C348 1.366 1_554 S
C348 C345 1.365 . S
C348 C347 1.366 1_556 S
C348 H362 0.930 . S
C349 C346 1.378 . S
C349 N350 1.316 . S
C349 H352 0.930 . S
N350 Co330 2.194 . S
N350 C345 1.327 1_554 S
N350 C349 1.316 . S
H351 C345 0.929 . S
H352 C349 0.930 . S
H353 C341 0.929 . S
H354 C343 0.929 . S
O355 Co330 2.351 1_556 S
O355 C358 1.244 . S
O356 Co330 2.155 . S
O356 C358 1.239 1_554 S
O357 Co330 2.096 . S
O357 C338 1.247 . S
C358 O355 1.244 . S
C358 O356 1.239 1_556 S
H359 C333 0.931 . S
H360 C342 0.931 . S
H361 C346 0.929 . S
H362 C348 0.930 . S
Co363 N367 2.148 1_554 S
Co363 N373 2.128 . S
Co363 N383 2.194 . S
Co363 O388 2.351 1_554 S
Co363 O389 2.155 . S
Co363 O390 2.096 . S
C364 N367 1.301 . S
C364 N368 1.328 . S
C364 H369 0.930 . S
C365 C366 1.333 . S
C365 N367 1.317 . S
C365 H370 0.930 . S
C366 C365 1.333 . S
C366 N368 1.350 . S
C366 H392 0.931 . S
N367 Co363 2.148 1_556 S
N367 C364 1.301 . S
N367 C365 1.317 . S
N368 C364 1.328 . S
N368 C366 1.350 . S
H369 C364 0.930 . S
H370 C365 0.930 . S
C371 O372 1.224 . S
C371 O390 1.247 . S
O372 C371 1.224 . S
N373 Co363 2.128 . S
N373 C374 1.355 . S
N373 C376 1.311 . S
C374 N373 1.355 . S
C374 C375 1.363 . S
C374 H386 0.929 . S
C375 C374 1.363 . S
C375 N377 1.375 . S
C375 H393 0.931 . S
C376 N373 1.311 . S
C376 N377 1.347 . S
C376 H387 0.929 . S
N377 C375 1.375 . S
N377 C376 1.347 . S
C378 C381 1.365 . S
C378 N383 1.327 1_556 S
C378 H384 0.929 . S
C379 C380 1.362 . S
C379 C382 1.378 . S
C379 H394 0.929 . S
C380 C379 1.362 . S
C380 C381 1.366 1_554 S
C381 C378 1.365 . S
C381 C380 1.366 1_556 S
C381 H395 0.930 . S
C382 C379 1.378 . S
C382 N383 1.316 . S
C382 H385 0.930 . S
N383 Co363 2.194 . S
N383 C378 1.327 1_554 S
N383 C382 1.316 . S
H384 C378 0.929 . S
H385 C382 0.930 . S
H386 C374 0.929 . S
H387 C376 0.929 . S
O388 Co363 2.351 1_556 S
O388 C391 1.244 . S
O389 Co363 2.155 . S
O389 C391 1.239 1_554 S
O390 Co363 2.096 . S
O390 C371 1.247 . S
C391 O388 1.244 . S
C391 O389 1.239 1_556 S
H392 C366 0.931 . S
H393 C375 0.931 . S
H394 C379 0.929 . S
H395 C381 0.930 . S
C396 C397 1.369 . S
C396 C398 1.419 . S
C396 H400 0.930 . S
C397 C396 1.369 . S
C397 C406 1.429 1_554 S
C398 C396 1.419 . S
C398 C399 1.363 . S
C398 H401 0.929 . S
C399 C398 1.363 . S
C399 C405 1.428 1_554 S
H400 C396 0.930 . S
H401 C398 0.929 . S
S402 N403 1.613 . S
S402 N404 1.610 . S
N403 S402 1.613 . S
N403 C406 1.350 . S
N404 S402 1.610 . S
N404 C405 1.351 . S
C405 C399 1.428 1_556 S
C405 N404 1.351 . S
C405 C406 1.434 . S
C406 C397 1.429 1_556 S
C406 N403 1.350 . S
C406 C405 1.434 . S
C407 C408 1.369 . S
C407 C409 1.419 . S
C407 H411 0.930 . S
C408 C407 1.369 . S
C408 C417 1.429 1_554 S
C409 C407 1.419 . S
C409 C410 1.363 . S
C409 H412 0.929 . S
C410 C409 1.363 . S
C410 C416 1.428 1_554 S
H411 C407 0.930 . S
H412 C409 0.929 . S
S413 N414 1.613 . S
S413 N415 1.610 . S
N414 S413 1.613 . S
N414 C417 1.350 . S
N415 S413 1.610 . S
N415 C416 1.351 . S
C416 C410 1.428 1_556 S
C416 N415 1.351 . S
C416 C417 1.434 . S
C417 C408 1.429 1_556 S
C417 N414 1.350 . S
C417 C416 1.434 . S
C418 C419 1.369 1_556 S
C418 C420 1.419 . S
C418 H422 0.930 . S
C419 C418 1.369 1_554 S
C419 C428 1.429 . S
C420 C418 1.419 . S
C420 C421 1.363 1_556 S
C420 H423 0.929 . S
C421 C420 1.363 1_554 S
C421 C427 1.428 . S
H422 C418 0.930 . S
H423 C420 0.929 . S
S424 N425 1.613 . S
S424 N426 1.610 . S
N425 S424 1.613 . S
N425 C428 1.350 . S
N426 S424 1.610 . S
N426 C427 1.351 . S
C427 C421 1.428 . S
C427 N426 1.351 . S
C427 C428 1.434 . S
C428 C419 1.429 . S
C428 N425 1.350 . S
C428 C427 1.434 . S
C429 C430 1.369 1_556 S
C429 C431 1.419 . S
C429 H433 0.930 . S
C430 C429 1.369 1_554 S
C430 C439 1.429 . S
C431 C429 1.419 . S
C431 C432 1.363 1_556 S
C431 H434 0.929 . S
C432 C431 1.363 1_554 S
C432 C438 1.428 . S
H433 C429 0.930 . S
H434 C431 0.929 . S
S435 N436 1.613 . S
S435 N437 1.610 . S
N436 S435 1.613 . S
N436 C439 1.350 . S
N437 S435 1.610 . S
N437 C438 1.351 . S
C438 C432 1.428 . S
C438 N437 1.351 . S
C438 C439 1.434 . S
C439 C430 1.429 . S
C439 N436 1.350 . S
C439 C438 1.434 . S
C440 C441 1.369 1_556 S
C440 C442 1.419 . S
C440 H444 0.930 . S
C441 C440 1.369 1_554 S
C441 C450 1.429 . S
C442 C440 1.419 . S
C442 C443 1.363 1_556 S
C442 H445 0.929 . S
C443 C442 1.363 1_554 S
C443 C449 1.428 . S
H444 C440 0.930 . S
H445 C442 0.929 . S
S446 N447 1.613 . S
S446 N448 1.610 . S
N447 S446 1.613 . S
N447 C450 1.350 . S
N448 S446 1.610 . S
N448 C449 1.351 . S
C449 C443 1.428 . S
C449 N448 1.351 . S
C449 C450 1.434 . S
C450 C441 1.429 . S
C450 N447 1.350 . S
C450 C449 1.434 . S
C451 C452 1.369 1_556 S
C451 C453 1.419 . S
C451 H455 0.930 . S
C452 C451 1.369 1_554 S
C452 C461 1.429 . S
C453 C451 1.419 . S
C453 C454 1.363 1_556 S
C453 H456 0.929 . S
C454 C453 1.363 1_554 S
C454 C460 1.428 . S
H455 C451 0.930 . S
H456 C453 0.929 . S
S457 N458 1.613 . S
S457 N459 1.610 . S
N458 S457 1.613 . S
N458 C461 1.350 . S
N459 S457 1.610 . S
N459 C460 1.351 . S
C460 C454 1.428 . S
C460 N459 1.351 . S
C460 C461 1.434 . S
C461 C452 1.429 . S
C461 N458 1.350 . S
C461 C460 1.434 . S
C462 C463 1.369 1_554 S
C462 C464 1.419 . S
C462 H466 0.930 . S
C463 C462 1.369 1_556 S
C463 C472 1.429 . S
C464 C462 1.419 . S
C464 C465 1.363 . S
C464 H467 0.929 . S
C465 C464 1.363 . S
C465 C471 1.428 1_554 S
H466 C462 0.930 . S
H467 C464 0.929 . S
S468 N469 1.613 . S
S468 N470 1.610 . S
N469 S468 1.613 . S
N469 C472 1.350 . S
N470 S468 1.610 . S
N470 C471 1.351 . S
C471 C465 1.428 1_556 S
C471 N470 1.351 . S
C471 C472 1.434 . S
C472 C463 1.429 . S
C472 N469 1.350 . S
C472 C471 1.434 . S
C473 C474 1.369 1_554 S
C473 C475 1.419 . S
C473 H477 0.930 . S
C474 C473 1.369 1_556 S
C474 C483 1.429 . S
C475 C473 1.419 . S
C475 C476 1.363 . S
C475 H478 0.929 . S
C476 C475 1.363 . S
C476 C482 1.428 1_554 S
H477 C473 0.930 . S
H478 C475 0.929 . S
S479 N480 1.613 . S
S479 N481 1.610 . S
N480 S479 1.613 . S
N480 C483 1.350 . S
N481 S479 1.610 . S
N481 C482 1.351 . S
C482 C476 1.428 1_556 S
C482 N481 1.351 . S
C482 C483 1.434 . S
C483 C474 1.429 . S
C483 N480 1.350 . S
C483 C482 1.434 . S
C484 C485 1.369 . S
C484 C486 1.419 . S
C484 H488 0.930 . S
C485 C484 1.369 . S
C485 C494 1.429 1_554 S
C486 C484 1.419 . S
C486 C487 1.363 1_554 S
C486 H489 0.929 . S
C487 C486 1.363 1_556 S
C487 C493 1.428 . S
H488 C484 0.930 . S
H489 C486 0.929 . S
S490 N491 1.613 . S
S490 N492 1.610 . S
N491 S490 1.613 . S
N491 C494 1.350 . S
N492 S490 1.610 . S
N492 C493 1.351 . S
C493 C487 1.428 . S
C493 N492 1.351 . S
C493 C494 1.434 . S
C494 C485 1.429 1_556 S
C494 N491 1.350 . S
C494 C493 1.434 . S
C495 C496 1.369 1_554 S
C495 C497 1.418 . S
C495 H499 0.930 1_554 S
C496 C495 1.369 1_556 S
C496 C505 1.427 1_556 S
C497 C495 1.418 . S
C497 C498 1.363 . S
C497 H500 0.929 . S
C498 C497 1.363 . S
C498 C504 1.428 . S
H499 C495 0.930 1_556 S
H500 C497 0.929 . S
S501 N502 1.613 . S
S501 N503 1.610 . S
N502 S501 1.613 . S
N502 C505 1.350 . S
N503 S501 1.610 . S
N503 C504 1.351 . S
C504 C498 1.428 . S
C504 N503 1.351 . S
C504 C505 1.434 . S
C505 C496 1.427 1_554 S
C505 N502 1.350 . S
C505 C504 1.434 . S
C506 C507 1.370 . S
C506 C508 1.420 . S
C506 H510 0.930 . S
C507 C506 1.370 . S
C507 C516 1.427 1_556 S
C508 C506 1.420 . S
C508 C509 1.360 1_556 S
C508 H511 0.931 . S
C509 C508 1.360 1_554 S
C509 C515 1.428 . S
H510 C506 0.930 . S
H511 C508 0.931 . S
S512 N513 1.613 . S
S512 N514 1.610 . S
N513 S512 1.613 . S
N513 C516 1.350 . S
N514 S512 1.610 . S
N514 C515 1.351 . S
C515 C509 1.428 . S
C515 N514 1.351 . S
C515 C516 1.434 . S
C516 C507 1.427 1_554 S
C516 N513 1.350 . S
C516 C515 1.434 . S
C517 C518 1.369 1_554 S
C517 C519 1.419 . S
C517 H521 0.930 . S
C518 C517 1.369 1_556 S
C518 C527 1.429 . S
C519 C517 1.419 . S
C519 C520 1.363 . S
C519 H522 0.929 . S
C520 C519 1.363 . S
C520 C526 1.428 1_554 S
H521 C517 0.930 . S
H522 C519 0.929 . S
S523 N524 1.613 . S
S523 N525 1.610 . S
N524 S523 1.613 . S
N524 C527 1.350 . S
N525 S523 1.610 . S
N525 C526 1.351 . S
C526 C520 1.428 1_556 S
C526 N525 1.351 . S
C526 C527 1.434 . S
C527 C518 1.429 . S
C527 N524 1.350 . S
C527 C526 1.434 . S
C528 C529 1.369 . S
C528 C530 1.419 . S
C528 H532 0.930 . S
C529 C528 1.369 . S
C529 C538 1.429 . S
C530 C528 1.419 . S
C530 C531 1.363 . S
C530 H533 0.929 . S
C531 C530 1.363 . S
C531 C537 1.428 . S
H532 C528 0.930 . S
H533 C530 0.929 . S
S534 N535 1.613 . S
S534 N536 1.610 . S
N535 S534 1.613 . S
N535 C538 1.350 . S
N536 S534 1.610 . S
N536 C537 1.351 . S
C537 C531 1.428 . S
C537 N536 1.351 . S
C537 C538 1.434 . S
C538 C529 1.429 . S
C538 N535 1.350 . S
C538 C537 1.434 . S
C539 C540 1.369 . S
C539 C541 1.419 . S
C539 H543 0.930 . S
C540 C539 1.369 . S
C540 C549 1.429 . S
C541 C539 1.419 . S
C541 C542 1.363 . S
C541 H544 0.929 . S
C542 C541 1.363 . S
C542 C548 1.428 . S
H543 C539 0.930 . S
H544 C541 0.929 . S
S545 N546 1.613 . S
S545 N547 1.610 . S
N546 S545 1.613 . S
N546 C549 1.350 . S
N547 S545 1.610 . S
N547 C548 1.351 . S
C548 C542 1.428 . S
C548 N547 1.351 . S
C548 C549 1.434 . S
C549 C540 1.429 . S
C549 N546 1.350 . S
C549 C548 1.434 . S
C550 C551 1.369 . S
C550 C552 1.419 . S
C550 H554 0.930 . S
C551 C550 1.369 . S
C551 C560 1.429 . S
C552 C550 1.419 . S
C552 C553 1.363 . S
C552 H555 0.929 . S
C553 C552 1.363 . S
C553 C559 1.428 . S
H554 C550 0.930 . S
H555 C552 0.929 . S
S556 N557 1.613 . S
S556 N558 1.610 . S
N557 S556 1.613 . S
N557 C560 1.350 . S
N558 S556 1.610 . S
N558 C559 1.351 . S
C559 C553 1.428 . S
C559 N558 1.351 . S
C559 C560 1.434 . S
C560 C551 1.429 . S
C560 N557 1.350 . S
C560 C559 1.434 . S
C561 C562 1.369 . S
C561 C563 1.419 . S
C561 H565 0.930 . S
C562 C561 1.369 . S
C562 C571 1.429 . S
C563 C561 1.419 . S
C563 C564 1.363 . S
C563 H566 0.929 . S
C564 C563 1.363 . S
C564 C570 1.428 . S
H565 C561 0.930 . S
H566 C563 0.929 . S
S567 N568 1.613 . S
S567 N569 1.610 . S
N568 S567 1.613 . S
N568 C571 1.350 . S
N569 S567 1.610 . S
N569 C570 1.351 . S
C570 C564 1.428 . S
C570 N569 1.351 . S
C570 C571 1.434 . S
C571 C562 1.429 . S
C571 N568 1.350 . S
C571 C570 1.434 . S
C572 C573 1.369 . S
C572 C574 1.419 . S
C572 H576 0.930 . S
C573 C572 1.369 . S
C573 C582 1.429 . S
C574 C572 1.419 . S
C574 C575 1.363 . S
C574 H577 0.929 . S
C575 C574 1.363 . S
C575 C581 1.428 . S
H576 C572 0.930 . S
H577 C574 0.929 . S
S578 N579 1.613 . S
S578 N580 1.610 . S
N579 S578 1.613 . S
N579 C582 1.350 . S
N580 S578 1.610 . S
N580 C581 1.351 . S
C581 C575 1.428 . S
C581 N580 1.351 . S
C581 C582 1.434 . S
C582 C573 1.429 . S
C582 N579 1.350 . S
C582 C581 1.434 . S
C583 C584 1.369 . S
C583 C585 1.419 . S
C583 H587 0.930 . S
C584 C583 1.369 . S
C584 C593 1.429 . S
C585 C583 1.419 . S
C585 C586 1.363 . S
C585 H588 0.929 . S
C586 C585 1.363 . S
C586 C592 1.428 . S
H587 C583 0.930 . S
H588 C585 0.929 . S
S589 N590 1.613 . S
S589 N591 1.610 . S
N590 S589 1.613 . S
N590 C593 1.350 . S
N591 S589 1.610 . S
N591 C592 1.351 . S
C592 C586 1.428 . S
C592 N591 1.351 . S
C592 C593 1.434 . S
C593 C584 1.429 . S
C593 N590 1.350 . S
C593 C592 1.434 . S
C594 C595 1.369 . S
C594 C596 1.419 . S
C594 H598 0.930 . S
C595 C594 1.369 . S
C595 C604 1.429 . S
C596 C594 1.419 . S
C596 C597 1.363 . S
C596 H599 0.929 . S
C597 C596 1.363 . S
C597 C603 1.428 . S
H598 C594 0.930 . S
H599 C596 0.929 . S
S600 N601 1.613 . S
S600 N602 1.610 . S
N601 S600 1.613 . S
N601 C604 1.350 . S
N602 S600 1.610 . S
N602 C603 1.351 . S
C603 C597 1.428 . S
C603 N602 1.351 . S
C603 C604 1.434 . S
C604 C595 1.429 . S
C604 N601 1.350 . S
C604 C603 1.434 . S
C605 C606 1.369 . S
C605 C607 1.419 . S
C605 H609 0.930 . S
C606 C605 1.369 . S
C606 C615 1.429 . S
C607 C605 1.419 . S
C607 C608 1.363 . S
C607 H610 0.929 . S
C608 C607 1.363 . S
C608 C614 1.428 . S
H609 C605 0.930 . S
H610 C607 0.929 . S
S611 N612 1.613 . S
S611 N613 1.610 . S
N612 S611 1.613 . S
N612 C615 1.350 . S
N613 S611 1.610 . S
N613 C614 1.351 . S
C614 C608 1.428 . S
C614 N613 1.351 . S
C614 C615 1.434 . S
C615 C606 1.429 . S
C615 N612 1.350 . S
C615 C614 1.434 . S
C616 C617 1.369 . S
C616 C618 1.419 . S
C616 H620 0.930 . S
C617 C616 1.369 . S
C617 C626 1.429 . S
C618 C616 1.419 . S
C618 C619 1.363 . S
C618 H621 0.929 . S
C619 C618 1.363 . S
C619 C625 1.428 . S
H620 C616 0.930 . S
H621 C618 0.929 . S
S622 N623 1.613 . S
S622 N624 1.610 . S
N623 S622 1.613 . S
N623 C626 1.350 . S
N624 S622 1.610 . S
N624 C625 1.351 . S
C625 C619 1.428 . S
C625 N624 1.351 . S
C625 C626 1.434 . S
C626 C617 1.429 . S
C626 N623 1.350 . S
C626 C625 1.434 . S
C627 C628 1.369 . S
C627 C629 1.419 . S
C627 H631 0.930 . S
C628 C627 1.369 . S
C628 C637 1.429 . S
C629 C627 1.419 . S
C629 C630 1.363 . S
C629 H632 0.929 . S
C630 C629 1.363 . S
C630 C636 1.428 . S
H631 C627 0.930 . S
H632 C629 0.929 . S
S633 N634 1.613 . S
S633 N635 1.610 . S
N634 S633 1.613 . S
N634 C637 1.350 . S
N635 S633 1.610 . S
N635 C636 1.351 . S
C636 C630 1.428 . S
C636 N635 1.351 . S
C636 C637 1.434 . S
C637 C628 1.429 . S
C637 N634 1.350 . S
C637 C636 1.434 . S
C638 C639 1.369 . S
C638 C640 1.419 . S
C638 H642 0.930 . S
C639 C638 1.369 . S
C639 C648 1.429 . S
C640 C638 1.419 . S
C640 C641 1.363 . S
C640 H643 0.929 . S
C641 C640 1.363 . S
C641 C647 1.428 . S
H642 C638 0.930 . S
H643 C640 0.929 . S
S644 N645 1.613 . S
S644 N646 1.610 . S
N645 S644 1.613 . S
N645 C648 1.350 . S
N646 S644 1.610 . S
N646 C647 1.351 . S
C647 C641 1.428 . S
C647 N646 1.351 . S
C647 C648 1.434 . S
C648 C639 1.429 . S
C648 N645 1.350 . S
C648 C647 1.434 . S
C649 C650 1.369 . S
C649 C651 1.419 . S
C649 H653 0.930 . S
C650 C649 1.369 . S
C650 C659 1.429 . S
C651 C649 1.419 . S
C651 C652 1.363 . S
C651 H654 0.929 . S
C652 C651 1.363 . S
C652 C658 1.428 . S
H653 C649 0.930 . S
H654 C651 0.929 . S
S655 N656 1.613 . S
S655 N657 1.610 . S
N656 S655 1.613 . S
N656 C659 1.350 . S
N657 S655 1.610 . S
N657 C658 1.351 . S
C658 C652 1.428 . S
C658 N657 1.351 . S
C658 C659 1.434 . S
C659 C650 1.429 . S
C659 N656 1.350 . S
C659 C658 1.434 . S
C660 C661 1.369 . S
C660 C662 1.419 1_455 S
C660 H664 0.930 . S
C661 C660 1.369 . S
C661 C670 1.429 1_556 S
C662 C660 1.419 1_655 S
C662 C663 1.363 1_556 S
C662 H665 0.929 . S
C663 C662 1.363 1_554 S
C663 C669 1.428 . S
H664 C660 0.930 . S
H665 C662 0.929 . S
S666 N667 1.613 . S
S666 N668 1.610 1_455 S
N667 S666 1.613 . S
N667 C670 1.350 . S
N668 S666 1.610 1_655 S
N668 C669 1.351 . S
C669 C663 1.428 . S
C669 N668 1.351 . S
C669 C670 1.434 1_655 S
C670 C661 1.429 1_554 S
C670 N667 1.350 . S
C670 C669 1.434 1_455 S
C671 C672 1.369 1_556 S
C671 C673 1.419 1_565 S
C671 H675 0.930 . S
C672 C671 1.369 1_554 S
C672 C681 1.429 . S
C673 C671 1.419 1_545 S
C673 C674 1.363 . S
C673 H676 0.929 . S
C674 C673 1.363 . S
C674 C680 1.428 1_556 S
H675 C671 0.930 . S
H676 C673 0.929 . S
S677 N678 1.613 1_545 S
S677 N679 1.610 . S
N678 S677 1.613 1_565 S
N678 C681 1.350 . S
N679 S677 1.610 . S
N679 C680 1.351 . S
C680 C674 1.428 1_554 S
C680 N679 1.351 . S
C680 C681 1.434 1_545 S
C681 C672 1.429 . S
C681 N678 1.350 . S
C681 C680 1.434 1_565 S
C682 C683 1.369 . S
C682 C684 1.419 . S
C682 H686 0.930 . S
C683 C682 1.369 . S
C683 C692 1.429 . S
C684 C682 1.419 . S
C684 C685 1.363 1_554 S
C684 H687 0.929 1_554 S
C685 C684 1.363 1_556 S
C685 C691 1.428 1_556 S
H686 C682 0.930 . S
H687 C684 0.929 1_556 S
S688 N689 1.613 . S
S688 N690 1.610 . S
N689 S688 1.613 . S
N689 C692 1.350 . S
N690 S688 1.610 . S
N690 C691 1.351 . S
C691 C685 1.428 1_554 S
C691 N690 1.351 . S
C691 C692 1.434 . S
C692 C683 1.429 . S
C692 N689 1.350 . S
C692 C691 1.434 . S
C693 C694 1.369 1_556 S
C693 C695 1.419 1_455 S
C693 H697 0.930 . S
C694 C693 1.369 1_554 S
C694 C703 1.429 . S
C695 C693 1.419 1_655 S
C695 C696 1.363 . S
C695 H698 0.929 . S
C696 C695 1.363 . S
C696 C702 1.428 1_556 S
H697 C693 0.930 . S
H698 C695 0.929 . S
S699 N700 1.613 1_655 S
S699 N701 1.610 . S
N700 S699 1.613 1_455 S
N700 C703 1.350 . S
N701 S699 1.610 . S
N701 C702 1.351 . S
C702 C696 1.428 1_554 S
C702 N701 1.351 . S
C702 C703 1.434 1_655 S
C703 C694 1.429 . S
C703 N700 1.350 . S
C703 C702 1.434 1_455 S
C704 C705 1.369 1_554 S
C704 C706 1.419 1_565 S
C704 H708 0.930 . S
C705 C704 1.369 1_556 S
C705 C714 1.429 . S
C706 C704 1.419 1_545 S
C706 C707 1.363 . S
C706 H709 0.929 . S
C707 C706 1.363 . S
C707 C713 1.428 1_554 S
H708 C704 0.930 . S
H709 C706 0.929 . S
S710 N711 1.613 1_545 S
S710 N712 1.610 . S
N711 S710 1.613 1_565 S
N711 C714 1.350 . S
N712 S710 1.610 . S
N712 C713 1.351 . S
C713 C707 1.428 1_556 S
C713 N712 1.351 . S
C713 C714 1.434 1_545 S
C714 C705 1.429 . S
C714 N711 1.350 . S
C714 C713 1.434 1_565 S
C715 C716 1.369 . S
C715 C717 1.419 1_554 S
C715 H719 0.930 . S
C716 C715 1.369 . S
C716 C725 1.429 . S
C717 C715 1.419 1_556 S
C717 C718 1.363 . S
C717 H720 0.929 . S
C718 C717 1.363 . S
C718 C724 1.428 1_556 S
H719 C715 0.930 . S
H720 C717 0.929 . S
S721 N722 1.613 . S
S721 N723 1.610 . S
N722 S721 1.613 . S
N722 C725 1.350 . S
N723 S721 1.610 . S
N723 C724 1.351 . S
C724 C718 1.428 1_554 S
C724 N723 1.351 . S
C724 C725 1.434 . S
C725 C716 1.429 . S
C725 N722 1.350 . S
C725 C724 1.434 . S
C397 C281 1.593 . S
C399 C17 1.593 . S
C408 C50 1.594 . S
C410 C314 1.594 . S
C419 C347 1.593 . S
C421 C83 1.593 . S
C430 C380 1.594 . S
C432 C116 1.594 . S
C441 C149 1.594 . S
C443 C215 1.594 . S
C452 C248 1.594 . S
C454 C182 1.594 . S
C463 C358 1.282 . S
C465 C28 1.278 . S
C474 C391 1.281 . S
C476 C61 1.279 . S
C485 C94 1.277 . S
C487 C226 1.283 . S
C496 C259 1.277 . S
C498 C127 1.280 . S
C507 C292 1.277 . S
C509 C160 1.282 . S
C518 C325 1.283 . S
C520 C193 1.277 . S
C529 N5 1.489 . S
C531 N14 1.478 . S
C540 N38 1.493 . S
C542 N47 1.475 . S
C551 N71 1.482 . S
C553 N80 1.484 . S
C562 N104 1.493 . S
C564 N113 1.475 . S
C573 N146 1.476 . S
C575 N137 1.490 . S
C584 N170 1.482 . S
C586 N179 1.484 . S
C595 N212 1.485 . S
C597 N203 1.484 . S
C606 N236 1.491 . S
C608 N245 1.477 . S
C617 N278 1.479 . S
C619 N269 1.488 . S
C628 N311 1.474 . S
C630 N302 1.492 . S
C639 N335 1.484 . S
C641 N344 1.483 . S
C650 N368 1.488 . S
C652 N377 1.479 . S
C661 C8 1.376 . S
C663 C371 1.380 . S
C672 C206 1.382 . S
C674 C41 1.378 . S
C683 C239 1.382 . S
C685 C74 1.379 . S
C694 C272 1.381 . S
C696 C107 1.376 . S
C705 C140 1.379 . S
C707 C305 1.375 . S
C716 C338 1.373 . S
C718 C173 1.375 . S
